# Generated by pormake.
# Topology soh, (5)-cn, num edge types: 1
# Building blocks:
#     Node 0, Type 0, BuildingBlock: BEQFEK_clean_sbu_0, # of connection points: 5
#     Node 1, Type 0, BuildingBlock: BEQFEK_clean_sbu_0, # of connection points: 5
#     Node 2, Type 0, BuildingBlock: BEQFEK_clean_sbu_0, # of connection points: 5
#     Node 3, Type 0, BuildingBlock: BEQFEK_clean_sbu_0, # of connection points: 5
#     Node 4, Type 0, BuildingBlock: BEQFEK_clean_sbu_0, # of connection points: 5
#     Node 5, Type 0, BuildingBlock: BEQFEK_clean_sbu_0, # of connection points: 5
#     Node 6, Type 0, BuildingBlock: BEQFEK_clean_sbu_0, # of connection points: 5
#     Node 7, Type 0, BuildingBlock: BEQFEK_clean_sbu_0, # of connection points: 5
#     Node 8, Type 0, BuildingBlock: BEQFEK_clean_sbu_0, # of connection points: 5
#     Node 9, Type 0, BuildingBlock: BEQFEK_clean_sbu_0, # of connection points: 5
#     Node 10, Type 0, BuildingBlock: BEQFEK_clean_sbu_0, # of connection points: 5
#     Node 11, Type 0, BuildingBlock: BEQFEK_clean_sbu_0, # of connection points: 5
#     Node 12, Type 0, BuildingBlock: BEQFEK_clean_sbu_0, # of connection points: 5
#     Node 13, Type 0, BuildingBlock: BEQFEK_clean_sbu_0, # of connection points: 5
#     Node 14, Type 0, BuildingBlock: BEQFEK_clean_sbu_0, # of connection points: 5
#     Node 15, Type 0, BuildingBlock: BEQFEK_clean_sbu_0, # of connection points: 5
#     Node 16, Type 0, BuildingBlock: BEQFEK_clean_sbu_0, # of connection points: 5
#     Node 17, Type 0, BuildingBlock: BEQFEK_clean_sbu_0, # of connection points: 5
#     Node 18, Type 0, BuildingBlock: BEQFEK_clean_sbu_0, # of connection points: 5
#     Node 19, Type 0, BuildingBlock: BEQFEK_clean_sbu_0, # of connection points: 5
#     Node 20, Type 0, BuildingBlock: BEQFEK_clean_sbu_0, # of connection points: 5
#     Node 21, Type 0, BuildingBlock: BEQFEK_clean_sbu_0, # of connection points: 5
#     Node 22, Type 0, BuildingBlock: BEQFEK_clean_sbu_0, # of connection points: 5
#     Node 23, Type 0, BuildingBlock: BEQFEK_clean_sbu_0, # of connection points: 5
#     Node 24, Type 0, BuildingBlock: BEQFEK_clean_sbu_0, # of connection points: 5
#     Node 25, Type 0, BuildingBlock: BEQFEK_clean_sbu_0, # of connection points: 5
#     Node 26, Type 0, BuildingBlock: BEQFEK_clean_sbu_0, # of connection points: 5
#     Node 27, Type 0, BuildingBlock: BEQFEK_clean_sbu_0, # of connection points: 5
#     Node 28, Type 0, BuildingBlock: BEQFEK_clean_sbu_0, # of connection points: 5
#     Node 29, Type 0, BuildingBlock: BEQFEK_clean_sbu_0, # of connection points: 5
#     Node 30, Type 0, BuildingBlock: BEQFEK_clean_sbu_0, # of connection points: 5
#     Node 31, Type 0, BuildingBlock: BEQFEK_clean_sbu_0, # of connection points: 5
#     Edge 32, Type (0, 0), BuildingBlock: UVAHIK_clean_linker_0, # of connection points: 2
#     Edge 33, Type (0, 0), BuildingBlock: UVAHIK_clean_linker_0, # of connection points: 2
#     Edge 34, Type (0, 0), BuildingBlock: UVAHIK_clean_linker_0, # of connection points: 2
#     Edge 35, Type (0, 0), BuildingBlock: UVAHIK_clean_linker_0, # of connection points: 2
#     Edge 36, Type (0, 0), BuildingBlock: UVAHIK_clean_linker_0, # of connection points: 2
#     Edge 37, Type (0, 0), BuildingBlock: UVAHIK_clean_linker_0, # of connection points: 2
#     Edge 38, Type (0, 0), BuildingBlock: UVAHIK_clean_linker_0, # of connection points: 2
#     Edge 39, Type (0, 0), BuildingBlock: UVAHIK_clean_linker_0, # of connection points: 2
#     Edge 40, Type (0, 0), BuildingBlock: UVAHIK_clean_linker_0, # of connection points: 2
#     Edge 41, Type (0, 0), BuildingBlock: UVAHIK_clean_linker_0, # of connection points: 2
#     Edge 42, Type (0, 0), BuildingBlock: UVAHIK_clean_linker_0, # of connection points: 2
#     Edge 43, Type (0, 0), BuildingBlock: UVAHIK_clean_linker_0, # of connection points: 2
#     Edge 44, Type (0, 0), BuildingBlock: UVAHIK_clean_linker_0, # of connection points: 2
#     Edge 45, Type (0, 0), BuildingBlock: UVAHIK_clean_linker_0, # of connection points: 2
#     Edge 46, Type (0, 0), BuildingBlock: UVAHIK_clean_linker_0, # of connection points: 2
#     Edge 47, Type (0, 0), BuildingBlock: UVAHIK_clean_linker_0, # of connection points: 2
#     Edge 48, Type (0, 0), BuildingBlock: UVAHIK_clean_linker_0, # of connection points: 2
#     Edge 49, Type (0, 0), BuildingBlock: UVAHIK_clean_linker_0, # of connection points: 2
#     Edge 50, Type (0, 0), BuildingBlock: UVAHIK_clean_linker_0, # of connection points: 2
#     Edge 51, Type (0, 0), BuildingBlock: UVAHIK_clean_linker_0, # of connection points: 2
#     Edge 52, Type (0, 0), BuildingBlock: UVAHIK_clean_linker_0, # of connection points: 2
#     Edge 53, Type (0, 0), BuildingBlock: UVAHIK_clean_linker_0, # of connection points: 2
#     Edge 54, Type (0, 0), BuildingBlock: UVAHIK_clean_linker_0, # of connection points: 2
#     Edge 55, Type (0, 0), BuildingBlock: UVAHIK_clean_linker_0, # of connection points: 2
#     Edge 56, Type (0, 0), BuildingBlock: UVAHIK_clean_linker_0, # of connection points: 2
#     Edge 57, Type (0, 0), BuildingBlock: UVAHIK_clean_linker_0, # of connection points: 2
#     Edge 58, Type (0, 0), BuildingBlock: UVAHIK_clean_linker_0, # of connection points: 2
#     Edge 59, Type (0, 0), BuildingBlock: UVAHIK_clean_linker_0, # of connection points: 2
#     Edge 60, Type (0, 0), BuildingBlock: UVAHIK_clean_linker_0, # of connection points: 2
#     Edge 61, Type (0, 0), BuildingBlock: UVAHIK_clean_linker_0, # of connection points: 2
#     Edge 62, Type (0, 0), BuildingBlock: UVAHIK_clean_linker_0, # of connection points: 2
#     Edge 63, Type (0, 0), BuildingBlock: UVAHIK_clean_linker_0, # of connection points: 2
#     Edge 64, Type (0, 0), BuildingBlock: UVAHIK_clean_linker_0, # of connection points: 2
#     Edge 65, Type (0, 0), BuildingBlock: UVAHIK_clean_linker_0, # of connection points: 2
#     Edge 66, Type (0, 0), BuildingBlock: UVAHIK_clean_linker_0, # of connection points: 2
#     Edge 67, Type (0, 0), BuildingBlock: UVAHIK_clean_linker_0, # of connection points: 2
#     Edge 68, Type (0, 0), BuildingBlock: UVAHIK_clean_linker_0, # of connection points: 2
#     Edge 69, Type (0, 0), BuildingBlock: UVAHIK_clean_linker_0, # of connection points: 2
#     Edge 70, Type (0, 0), BuildingBlock: UVAHIK_clean_linker_0, # of connection points: 2
#     Edge 71, Type (0, 0), BuildingBlock: UVAHIK_clean_linker_0, # of connection points: 2
#     Edge 72, Type (0, 0), BuildingBlock: UVAHIK_clean_linker_0, # of connection points: 2
#     Edge 73, Type (0, 0), BuildingBlock: UVAHIK_clean_linker_0, # of connection points: 2
#     Edge 74, Type (0, 0), BuildingBlock: UVAHIK_clean_linker_0, # of connection points: 2
#     Edge 75, Type (0, 0), BuildingBlock: UVAHIK_clean_linker_0, # of connection points: 2
#     Edge 76, Type (0, 0), BuildingBlock: UVAHIK_clean_linker_0, # of connection points: 2
#     Edge 77, Type (0, 0), BuildingBlock: UVAHIK_clean_linker_0, # of connection points: 2
#     Edge 78, Type (0, 0), BuildingBlock: UVAHIK_clean_linker_0, # of connection points: 2
#     Edge 79, Type (0, 0), BuildingBlock: UVAHIK_clean_linker_0, # of connection points: 2
#     Edge 80, Type (0, 0), BuildingBlock: UVAHIK_clean_linker_0, # of connection points: 2
#     Edge 81, Type (0, 0), BuildingBlock: UVAHIK_clean_linker_0, # of connection points: 2
#     Edge 82, Type (0, 0), BuildingBlock: UVAHIK_clean_linker_0, # of connection points: 2
#     Edge 83, Type (0, 0), BuildingBlock: UVAHIK_clean_linker_0, # of connection points: 2
#     Edge 84, Type (0, 0), BuildingBlock: UVAHIK_clean_linker_0, # of connection points: 2
#     Edge 85, Type (0, 0), BuildingBlock: UVAHIK_clean_linker_0, # of connection points: 2
#     Edge 86, Type (0, 0), BuildingBlock: UVAHIK_clean_linker_0, # of connection points: 2
#     Edge 87, Type (0, 0), BuildingBlock: UVAHIK_clean_linker_0, # of connection points: 2
#     Edge 88, Type (0, 0), BuildingBlock: UVAHIK_clean_linker_0, # of connection points: 2
#     Edge 89, Type (0, 0), BuildingBlock: UVAHIK_clean_linker_0, # of connection points: 2
#     Edge 90, Type (0, 0), BuildingBlock: UVAHIK_clean_linker_0, # of connection points: 2
#     Edge 91, Type (0, 0), BuildingBlock: UVAHIK_clean_linker_0, # of connection points: 2
#     Edge 92, Type (0, 0), BuildingBlock: UVAHIK_clean_linker_0, # of connection points: 2
#     Edge 93, Type (0, 0), BuildingBlock: UVAHIK_clean_linker_0, # of connection points: 2
#     Edge 94, Type (0, 0), BuildingBlock: UVAHIK_clean_linker_0, # of connection points: 2
#     Edge 95, Type (0, 0), BuildingBlock: UVAHIK_clean_linker_0, # of connection points: 2
#     Edge 96, Type (0, 0), BuildingBlock: UVAHIK_clean_linker_0, # of connection points: 2
#     Edge 97, Type (0, 0), BuildingBlock: UVAHIK_clean_linker_0, # of connection points: 2
#     Edge 98, Type (0, 0), BuildingBlock: UVAHIK_clean_linker_0, # of connection points: 2
#     Edge 99, Type (0, 0), BuildingBlock: UVAHIK_clean_linker_0, # of connection points: 2
#     Edge 100, Type (0, 0), BuildingBlock: UVAHIK_clean_linker_0, # of connection points: 2
#     Edge 101, Type (0, 0), BuildingBlock: UVAHIK_clean_linker_0, # of connection points: 2
#     Edge 102, Type (0, 0), BuildingBlock: UVAHIK_clean_linker_0, # of connection points: 2
#     Edge 103, Type (0, 0), BuildingBlock: UVAHIK_clean_linker_0, # of connection points: 2
#     Edge 104, Type (0, 0), BuildingBlock: UVAHIK_clean_linker_0, # of connection points: 2
#     Edge 105, Type (0, 0), BuildingBlock: UVAHIK_clean_linker_0, # of connection points: 2
#     Edge 106, Type (0, 0), BuildingBlock: UVAHIK_clean_linker_0, # of connection points: 2
#     Edge 107, Type (0, 0), BuildingBlock: UVAHIK_clean_linker_0, # of connection points: 2
#     Edge 108, Type (0, 0), BuildingBlock: UVAHIK_clean_linker_0, # of connection points: 2
#     Edge 109, Type (0, 0), BuildingBlock: UVAHIK_clean_linker_0, # of connection points: 2
#     Edge 110, Type (0, 0), BuildingBlock: UVAHIK_clean_linker_0, # of connection points: 2
#     Edge 111, Type (0, 0), BuildingBlock: UVAHIK_clean_linker_0, # of connection points: 2
# Relax obj value: 0.337
# Max RMSD: 0.175
# Mean RMSD: 0.175
data_MOF--net-soh--node1-BEQFEK_clean_sbu_0--edge1-UVAHIK_clean_linker_0
_symmetry_space_group_name_H-M    P1
_symmetry_Int_Tables_number       1
_symmetry_cell_setting            triclinic
loop_
_symmetry_equiv_pos_as_xyz
'x, y, z'
_cell_length_a     101.99562
_cell_length_b     51.456328
_cell_length_c     60.580697
_cell_angle_alpha  90.012091
_cell_angle_beta   89.929953
_cell_angle_gamma 89.928873
loop_
_atom_site_label
_atom_site_type_symbol
_atom_site_fract_x
_atom_site_fract_y
_atom_site_fract_z
_atom_type_partial_charge
Co0 Co 0.29765 0.32201 0.18544 0.0
Co1 Co 0.29017 0.36711 0.21756 0.0
C2 C 0.31837 0.35604 0.205 0.0
O3 O 0.31509 0.33672 0.1931 0.0
O4 O 0.30976 0.36953 0.21512 0.0
C5 C 0.311 0.27609 0.17135 0.0
O6 O 0.32018 0.28532 0.18435 0.0
C7 C 0.29038 0.39012 0.26107 0.0
C8 C 0.27179 0.41213 0.26194 0.0
C9 C 0.28214 0.40391 0.27502 0.0
N10 N 0.28507 0.38992 0.2408 0.0
N11 N 0.27416 0.40379 0.24122 0.0
C12 C 0.30192 0.3738 0.26758 0.0
H13 H 0.31088 0.386 0.26706 0.0
H14 H 0.30321 0.35736 0.25593 0.0
H15 H 0.30078 0.36616 0.2846 0.0
C16 C 0.28522 0.29032 0.22157 0.0
N17 N 0.28831 0.31333 0.212 0.0
N18 N 0.28457 0.33237 0.22508 0.0
C19 C 0.27858 0.32198 0.243 0.0
C20 C 0.27899 0.29498 0.24169 0.0
C21 C 0.28954 0.26451 0.21276 0.0
H22 H 0.28565 0.26185 0.19582 0.0
H23 H 0.30039 0.26411 0.21194 0.0
H24 H 0.2863 0.24813 0.22326 0.0
O25 O 0.28808 0.34802 0.16592 0.0
O26 O 0.28249 0.37956 0.18914 0.0
H27 H 0.26401 0.32564 0.26865 0.0
H28 H 0.27904 0.34262 0.27365 0.0
C29 C 0.27186 0.3373 0.26072 0.0
H30 H 0.26744 0.35511 0.25371 0.0
H31 H 0.26781 0.4058 0.22783 0.0
O32 O 0.30055 0.28922 0.16859 0.0
C33 C 0.28274 0.37012 0.16966 0.0
Co34 Co 0.97876 0.95466 0.18341 0.0
Co35 Co 0.98516 0.90916 0.21586 0.0
C36 C 0.95729 0.92208 0.20114 0.0
O37 O 0.96083 0.94174 0.18987 0.0
O38 O 0.96569 0.90807 0.21123 0.0
C39 C 0.9669 0.99836 0.16091 0.0
O40 O 0.95579 0.98626 0.16468 0.0
C41 C 0.98264 0.88649 0.25945 0.0
C42 C 1.00156 0.86633 0.26382 0.0
C43 C 0.99049 0.87454 0.27524 0.0
N44 N 0.98908 0.88657 0.24008 0.0
N45 N 1.00019 0.87368 0.24259 0.0
C46 C 0.96929 0.89814 0.26251 0.0
H47 H 0.96272 0.89128 0.2492 0.0
H48 H 0.96995 0.91963 0.26136 0.0
H49 H 0.96483 0.89236 0.27847 0.0
C50 C 0.99007 0.9858 0.2204 0.0
N51 N 0.98735 0.96282 0.21055 0.0
N52 N 0.99078 0.94375 0.22376 0.0
C53 C 0.9963 0.95411 0.24209 0.0
C54 C 0.99586 0.98115 0.24085 0.0
C55 C 0.98579 1.01155 0.21143 0.0
H56 H 0.99219 0.01689 0.19734 0.0
H57 H 0.97558 1.01008 0.20531 0.0
H58 H 0.98623 0.02709 0.22408 0.0
O59 O 0.98829 0.92778 0.16485 0.0
O60 O 0.99364 0.89619 0.18816 0.0
H61 H 1.00741 0.92132 0.25329 0.0
H62 H 1.00985 0.95041 0.26925 0.0
C63 C 1.00249 0.93867 0.26021 0.0
H64 H 0.99483 0.93255 0.27206 0.0
H65 H 1.0073 0.87174 0.2303 0.0
O66 O 0.97762 0.98758 0.16645 0.0
C67 C 0.99358 0.90568 0.16868 0.0
Co68 Co 0.29846 0.95794 0.10052 0.0
Co69 Co 0.29183 0.91254 0.06835 0.0
C70 C 0.31972 0.92453 0.08165 0.0
O71 O 0.31617 0.94385 0.09332 0.0
O72 O 0.31132 0.91077 0.07145 0.0
C73 C 0.31085 1.00526 0.111 0.0
O74 O 0.31859 0.99712 0.09508 0.0
C75 C 0.29349 0.8891 0.02519 0.0
C76 C 0.27609 0.86364 0.02391 0.0
C77 C 0.28632 0.87321 1.01115 0.0
N78 N 0.28766 0.88915 0.04507 0.0
N79 N 0.27744 0.87341 0.04443 0.0
C80 C 0.30458 0.90689 0.01925 0.0
H81 H 0.30524 0.9232 0.03117 0.0
H82 H 0.30332 0.9149 1.00239 0.0
H83 H 0.31391 0.8958 0.01976 0.0
C84 C 0.28515 0.98889 0.06467 0.0
N85 N 0.28899 0.96614 0.07391 0.0
N86 N 0.28582 0.94698 0.06055 0.0
C87 C 0.27956 0.95702 0.04271 0.0
C88 C 0.27918 0.984 0.04448 0.0
C89 C 0.28699 0.01507 0.07495 0.0
H90 H 0.28472 0.01417 0.09283 0.0
H91 H 0.29732 0.02125 0.07276 0.0
H92 H 0.28054 0.02981 0.06713 0.0
O93 O 0.28906 0.93169 0.11996 0.0
O94 O 0.28392 0.89999 0.0966 0.0
H95 H 0.27068 0.92247 0.02967 0.0
H96 H 0.26653 0.95151 1.01487 0.0
C97 C 0.2745 0.94132 0.02374 0.0
H98 H 0.28252 0.93797 1.01175 0.0
H99 H 0.27097 0.87057 0.05754 0.0
O100 O 0.30138 0.99086 0.11708 0.0
C101 C 0.28392 0.90945 0.11609 0.0
Co102 Co 0.97808 0.31889 0.10268 0.0
Co103 Co 0.98467 0.36392 0.0699 0.0
C104 C 0.95676 0.35177 0.08446 0.0
O105 O 0.96022 0.33228 0.09599 0.0
O106 O 0.96523 0.36537 0.07422 0.0
C107 C 0.96558 0.27337 0.12002 0.0
O108 O 0.95518 0.28335 0.11048 0.0
C109 C 0.98176 0.38456 0.02591 0.0
C110 C 0.99891 0.41019 0.02176 0.0
C111 C 0.98851 0.39918 1.01039 0.0
N112 N 0.98811 0.38612 0.04528 0.0
N113 N 0.99818 0.40201 0.04289 0.0
C114 C 0.96954 0.3689 0.02257 0.0
H115 H 0.96179 0.37628 0.03378 0.0
H116 H 0.97141 0.3483 0.02698 0.0
H117 H 0.96578 0.37028 1.00546 0.0
C118 C 0.99047 0.28737 0.06652 0.0
N119 N 0.98709 0.31034 0.07586 0.0
N120 N 0.99067 0.32934 0.06267 0.0
C121 C 0.99699 0.319 0.04502 0.0
C122 C 0.99682 0.29198 0.04655 0.0
C123 C 0.98765 0.26141 0.07654 0.0
H124 H 0.99177 0.26071 0.09346 0.0
H125 H 0.97688 0.25867 0.07772 0.0
H126 H 0.99197 0.24533 0.06672 0.0
O127 O 0.98765 0.34592 0.12111 0.0
O128 O 0.99298 0.37733 0.09752 0.0
H129 H 1.01052 0.32408 0.01777 0.0
H130 H 0.99469 0.33823 1.01428 0.0
C131 C 1.00254 0.33455 0.02641 0.0
H132 H 1.00642 0.35325 0.03259 0.0
H133 H 1.00498 0.40603 0.05528 0.0
O134 O 0.97628 0.28607 0.11978 0.0
C135 C 0.99291 0.36801 0.11707 0.0
Co136 Co 0.72832 0.70812 0.84964 0.0
Co137 Co 0.7353 0.66228 0.81819 0.0
C138 C 0.70722 0.67456 0.83122 0.0
O139 O 0.71064 0.69418 0.84261 0.0
O140 O 0.71574 0.66058 0.82141 0.0
C141 C 0.71547 0.75447 0.86363 0.0
O142 O 0.70617 0.74533 0.85083 0.0
C143 C 0.73352 0.64019 0.77481 0.0
C144 C 0.75035 0.61326 0.77298 0.0
C145 C 0.74033 0.62404 0.76046 0.0
N146 N 0.73931 0.63917 0.79466 0.0
N147 N 0.7492 0.62261 0.79368 0.0
C148 C 0.72289 0.65925 0.7692 0.0
H149 H 0.72238 0.67499 0.78166 0.0
H150 H 0.72456 0.66796 0.75268 0.0
H151 H 0.71333 0.649 0.76899 0.0
C152 C 0.74078 0.7387 0.81275 0.0
N153 N 0.73756 0.71604 0.82279 0.0
N154 N 0.74121 0.69658 0.81014 0.0
C155 C 0.74734 0.70627 0.79207 0.0
C156 C 0.74706 0.73332 0.79278 0.0
C157 C 0.73657 0.76482 0.82103 0.0
H158 H 0.74071 0.76812 0.83772 0.0
H159 H 0.72573 0.76521 0.82236 0.0
H160 H 0.73962 0.7808 0.80993 0.0
O161 O 0.7378 0.68185 0.86915 0.0
O162 O 0.74331 0.64985 0.8463 0.0
H163 H 0.76244 0.70111 0.76756 0.0
H164 H 0.74719 0.68548 0.76145 0.0
C165 C 0.75413 0.69019 0.77491 0.0
H166 H 0.75791 0.67197 0.78226 0.0
H167 H 0.75559 0.61886 0.80673 0.0
O168 O 0.72589 0.7412 0.86626 0.0
C169 C 0.74312 0.65966 0.86566 0.0
Co170 Co 0.04789 0.07306 0.84972 0.0
Co171 Co 0.04159 0.11877 0.81733 0.0
C172 C 0.06936 0.10632 0.83229 0.0
O173 O 0.06576 0.08671 0.84357 0.0
O174 O 0.06104 0.12019 0.82191 0.0
C175 C 0.06018 0.02849 0.87005 0.0
O176 O 0.07116 0.03993 0.86428 0.0
C177 C 0.04381 0.1425 0.77399 0.0
C178 C 0.02482 0.16263 0.77037 0.0
C179 C 0.03586 0.15498 0.75862 0.0
N180 N 0.03745 0.14167 0.79342 0.0
N181 N 0.02629 0.15449 0.79137 0.0
C182 C 0.05718 0.13116 0.77047 0.0
H183 H 0.06375 0.13739 0.784 0.0
H184 H 0.05658 0.10963 0.77083 0.0
H185 H 0.0616 0.13777 0.75471 0.0
C186 C 0.03662 0.04208 0.81255 0.0
N187 N 0.03938 0.06502 0.82244 0.0
N188 N 0.03608 0.08415 0.80919 0.0
C189 C 0.03065 0.07387 0.79074 0.0
C190 C 0.03096 0.04682 0.792 0.0
C191 C 0.04075 0.01627 0.82159 0.0
H192 H 0.0347 1.01163 0.8363 0.0
H193 H 0.05114 0.01729 0.82684 0.0
H194 H 0.03975 1.00047 0.80927 0.0
O195 O 0.03806 0.09942 0.86843 0.0
O196 O 0.03319 0.13141 0.84522 0.0
H197 H 0.01743 0.07775 0.76312 0.0
H198 H 0.0325 0.09562 0.76091 0.0
C199 C 0.02469 0.08942 0.77247 0.0
H200 H 0.01969 0.10674 0.77928 0.0
H201 H 0.01924 0.15598 0.80381 0.0
O202 O 0.04933 0.03994 0.86645 0.0
C203 C 0.03296 0.1217 0.86462 0.0
Co204 Co 0.72786 0.07198 0.93497 0.0
Co205 Co 0.73496 0.11741 0.96674 0.0
C206 C 0.70691 0.10581 0.95481 0.0
O207 O 0.71035 0.0865 0.943 0.0
O208 O 0.71541 0.11967 0.9647 0.0
C209 C 0.71518 0.02469 0.92528 0.0
O210 O 0.70775 0.03277 0.94164 0.0
C211 C 0.7346 0.14347 1.00913 0.0
C212 C 0.75388 0.16293 1.00983 0.0
C213 C 0.74306 0.15707 0.02279 0.0
N214 N 0.74025 0.14105 0.9892 0.0
N215 N 0.75158 0.15347 0.98946 0.0
C216 C 0.72236 0.12939 1.01577 0.0
H217 H 0.71379 0.14214 1.01254 0.0
H218 H 0.7212 0.1114 1.00587 0.0
H219 H 0.72244 0.12433 0.03356 0.0
C220 C 0.74153 0.04093 0.97029 0.0
N221 N 0.73766 0.06373 0.96119 0.0
N222 N 0.74073 0.08281 0.97471 0.0
C223 C 0.74677 0.0726 0.99271 0.0
C224 C 0.74731 0.04565 0.99067 0.0
C225 C 0.73987 0.01485 0.95974 0.0
H226 H 0.74185 0.01616 0.94179 0.0
H227 H 0.72966 1.0081 0.96232 0.0
H228 H 0.74662 1.00033 0.96713 0.0
O229 O 0.73708 0.0976 0.91488 0.0
O230 O 0.74251 0.12934 0.93793 0.0
H231 H 0.75643 0.10567 1.00668 0.0
H232 H 0.75775 0.07684 0.02322 0.0
C233 C 0.75118 0.08806 1.01227 0.0
H234 H 0.74253 0.09383 0.02215 0.0
H235 H 0.7582 0.15365 0.97632 0.0
O236 O 0.72453 0.03912 0.9187 0.0
C237 C 0.74231 0.11977 0.91849 0.0
Co238 Co 0.04821 0.70848 0.93067 0.0
Co239 Co 0.04171 0.66259 0.96255 0.0
C240 C 0.06967 0.67605 0.94826 0.0
O241 O 0.06617 0.69585 0.93715 0.0
O242 O 0.06122 0.66188 0.95804 0.0
C243 C 0.06002 0.75301 0.90958 0.0
O244 O 0.07112 0.74136 0.91433 0.0
C245 C 0.04439 0.64295 1.00689 0.0
C246 C 0.02791 0.61555 1.01052 0.0
C247 C 0.03779 0.62784 0.02225 0.0
N248 N 0.03844 0.6404 0.98723 0.0
N249 N 0.02876 0.62353 0.98935 0.0
C250 C 0.05602 0.66016 1.01075 0.0
H251 H 0.05323 0.68073 1.00791 0.0
H252 H 0.06007 0.65785 0.0276 0.0
H253 H 0.06385 0.65517 0.99881 0.0
C254 C 0.03653 0.73886 0.96805 0.0
N255 N 0.03943 0.71622 0.95776 0.0
N256 N 0.03558 0.69677 0.97018 0.0
C257 C 0.02938 0.70647 0.98815 0.0
C258 C 0.03006 0.73351 0.98784 0.0
C259 C 0.04114 0.76483 0.96012 0.0
H260 H 0.05133 0.76317 0.95386 0.0
H261 H 0.04089 0.77963 0.97342 0.0
H262 H 0.0348 0.77133 0.94631 0.0
O263 O 0.03881 0.68132 0.91201 0.0
O264 O 0.0334 0.64934 0.93497 0.0
H265 H 0.01358 0.70159 1.01138 0.0
H266 H 0.0285 0.68518 0.01833 0.0
C267 C 0.02197 0.69042 1.00451 0.0
H268 H 0.01826 0.67245 0.99663 0.0
H269 H 0.0223 0.6186 0.97669 0.0
O270 O 0.04926 0.74167 0.91399 0.0
C271 C 0.03355 0.65911 0.91559 0.0
Co272 Co 0.29875 0.82008 0.6828 0.0
Co273 Co 0.29227 0.8658 0.71513 0.0
C274 C 0.32012 0.85324 0.70047 0.0
O275 O 0.31658 0.83372 0.68907 0.0
O276 O 0.31172 0.86705 0.71071 0.0
C277 C 0.31119 0.77376 0.66777 0.0
O278 O 0.3208 0.78294 0.67987 0.0
C279 C 0.29507 0.88584 0.75933 0.0
C280 C 0.27793 0.91153 0.76365 0.0
C281 C 0.28824 0.9001 0.77502 0.0
N282 N 0.28885 0.88793 0.73987 0.0
N283 N 0.27878 0.90387 0.74239 0.0
C284 C 0.30719 0.86978 0.76267 0.0
H285 H 0.30498 0.84905 0.75929 0.0
H286 H 0.31127 0.87198 0.77951 0.0
H287 H 0.31482 0.87608 0.75082 0.0
C288 C 0.28688 0.78926 0.72001 0.0
N289 N 0.28998 0.81197 0.70996 0.0
N290 N 0.28632 0.83137 0.72266 0.0
C291 C 0.28017 0.82158 0.74065 0.0
C292 C 0.28058 0.79454 0.73999 0.0
C293 C 0.29118 0.76321 0.71171 0.0
H294 H 0.28665 0.75947 0.69538 0.0
H295 H 0.30197 0.76328 0.7096 0.0
H296 H 0.2886 0.74728 0.72319 0.0
O297 O 0.28895 0.84689 0.66424 0.0
O298 O 0.284 0.87901 0.68741 0.0
H299 H 0.2649 0.82635 0.76493 0.0
H300 H 0.27993 0.84286 0.77084 0.0
C301 C 0.27309 0.83755 0.75749 0.0
H302 H 0.26911 0.85544 0.74984 0.0
H303 H 0.27204 0.90821 0.72998 0.0
O304 O 0.30073 0.78707 0.66582 0.0
C305 C 0.28385 0.86924 0.66801 0.0
Co306 Co 0.97695 0.45907 0.68073 0.0
Co307 Co 0.984 0.41479 0.71395 0.0
C308 C 0.95596 0.42609 0.70004 0.0
O309 O 0.95929 0.44525 0.68805 0.0
O310 O 0.96453 0.41287 0.71038 0.0
C311 C 0.96434 0.50548 0.6678 0.0
O312 O 0.95599 0.49741 0.68283 0.0
C313 C 0.98168 0.39509 0.75829 0.0
C314 C 0.99867 0.36887 0.76202 0.0
C315 C 0.98847 0.38034 0.77366 0.0
N316 N 0.98779 0.3931 0.73871 0.0
N317 N 0.99778 0.37691 0.74086 0.0
C318 C 0.9696 0.41117 0.76193 0.0
H319 H 0.97144 0.43151 0.75671 0.0
H320 H 0.96621 0.41066 0.7793 0.0
H321 H 0.96159 0.40345 0.75148 0.0
C322 C 0.9898 0.49144 0.71612 0.0
N323 N 0.98624 0.46836 0.70717 0.0
N324 N 0.98995 0.44955 0.72047 0.0
C325 C 0.99649 0.46011 0.73775 0.0
C326 C 0.99634 0.48705 0.7359 0.0
C327 C 0.98702 0.51742 0.70609 0.0
H328 H 0.98973 0.51722 0.68837 0.0
H329 H 0.97639 0.52166 0.70755 0.0
H330 H 0.99257 0.53307 0.71451 0.0
O331 O 0.98656 0.43194 0.66232 0.0
O332 O 0.9921 0.40103 0.68627 0.0
H333 H 1.01056 0.45564 0.76415 0.0
H334 H 0.99483 0.44156 0.76892 0.0
C335 C 1.00242 0.44492 0.75624 0.0
H336 H 1.00619 0.42608 0.75013 0.0
H337 H 1.00438 0.37246 0.72824 0.0
O338 O 0.97422 0.49134 0.66321 0.0
C339 C 0.99192 0.40998 0.66659 0.0
Co340 Co 0.29819 0.455 0.59944 0.0
Co341 Co 0.29197 0.40934 0.56692 0.0
C342 C 0.31962 0.42125 0.58049 0.0
O343 O 0.31587 0.44037 0.59228 0.0
O344 O 0.31139 0.40743 0.56994 0.0
C345 C 0.31057 0.50249 0.60881 0.0
O346 O 0.31795 0.49426 0.59245 0.0
C347 C 0.29332 0.38041 0.52544 0.0
C348 C 0.27272 0.3686 0.52092 0.0
C349 C 0.28465 0.37023 0.50997 0.0
N350 N 0.28663 0.38594 0.544 0.0
N351 N 0.27443 0.3779 0.54149 0.0
C352 C 0.30771 0.38529 0.52273 0.0
H353 H 0.30955 0.40653 0.52201 0.0
H354 H 0.31166 0.37569 0.50774 0.0
H355 H 0.31301 0.3774 0.53721 0.0
C356 C 0.28508 0.48586 0.56353 0.0
N357 N 0.28886 0.46307 0.57276 0.0
N358 N 0.28657 0.4441 0.55871 0.0
C359 C 0.28142 0.45444 0.54002 0.0
C360 C 0.28032 0.48125 0.54241 0.0
C361 C 0.28589 0.51182 0.57455 0.0
H362 H 0.28374 0.50994 0.59241 0.0
H363 H 0.29591 0.51976 0.57237 0.0
H364 H 0.27885 0.52573 0.56709 0.0
O365 O 0.28862 0.42947 0.61897 0.0
O366 O 0.28411 0.39737 0.59568 0.0
H367 H 0.27128 0.42462 0.52248 0.0
H368 H 0.27554 0.45214 0.50561 0.0
C369 C 0.27888 0.43949 0.51929 0.0
H370 H 0.28803 0.42977 0.51401 0.0
H371 H 0.26702 0.38074 0.55314 0.0
O372 O 0.3013 0.48803 0.61565 0.0
C373 C 0.28376 0.40703 0.61511 0.0
Co374 Co 0.9793 0.82282 0.59836 0.0
Co375 Co 0.98677 0.868 0.5665 0.0
C376 C 0.95861 0.85709 0.57827 0.0
O377 O 0.96198 0.83788 0.59024 0.0
O378 O 0.96717 0.87073 0.56824 0.0
C379 C 0.96602 0.7762 0.6085 0.0
O380 O 0.95841 0.78483 0.59263 0.0
C381 C 0.98695 0.894 0.52408 0.0
C382 C 1.00641 0.91273 0.52369 0.0
C383 C 0.99562 0.90731 0.51059 0.0
N384 N 0.99242 0.89138 0.5441 0.0
N385 N 1.00388 0.90336 0.54402 0.0
C386 C 0.97461 0.88044 0.51722 0.0
H387 H 0.97339 0.86212 0.52666 0.0
H388 H 0.97459 0.87611 0.49928 0.0
H389 H 0.96612 0.89322 0.52098 0.0
C390 C 0.99261 0.79129 0.56296 0.0
N391 N 0.98903 0.81425 0.57213 0.0
N392 N 0.99236 0.83322 0.55866 0.0
C393 C 0.99838 0.82276 0.54071 0.0
C394 C 0.99856 0.79581 0.54268 0.0
C395 C 0.99037 0.76523 0.57321 0.0
H396 H 0.99253 0.76602 0.59112 0.0
H397 H 0.97997 0.7596 0.57088 0.0
H398 H 0.99666 0.75016 0.56544 0.0
O399 O 0.98868 0.84821 0.61844 0.0
O400 O 0.99422 0.87987 0.59537 0.0
H401 H 1.00986 0.82635 0.51071 0.0
H402 H 0.99475 0.84396 0.51103 0.0
C403 C 1.0032 0.83796 0.52129 0.0
H404 H 1.00852 0.85542 0.52701 0.0
H405 H 1.01041 0.90329 0.55726 0.0
O406 O 0.97569 0.79004 0.61461 0.0
C407 C 0.99398 0.87032 0.61482 0.0
Co408 Co 0.72901 0.20503 0.34893 0.0
Co409 Co 0.73434 0.15975 0.31549 0.0
C410 C 0.70699 0.17274 0.33059 0.0
O411 O 0.71099 0.19164 0.34238 0.0
O412 O 0.71499 0.15876 0.31963 0.0
C413 C 0.71665 0.25088 0.36648 0.0
O414 O 0.70609 0.24104 0.35735 0.0
C415 C 0.73182 0.13165 0.27384 0.0
C416 C 0.75227 0.11979 0.26751 0.0
C417 C 0.74007 0.12185 0.25752 0.0
N418 N 0.73899 0.13662 0.29196 0.0
N419 N 0.75109 0.12851 0.28838 0.0
C420 C 0.7174 0.13688 0.27229 0.0
H421 H 0.71563 0.15816 0.27213 0.0
H422 H 0.71305 0.12778 0.25741 0.0
H423 H 0.71243 0.12869 0.28699 0.0
C424 C 0.74152 0.23608 0.31286 0.0
N425 N 0.73789 0.21314 0.32191 0.0
N426 N 0.73991 0.19443 0.3075 0.0
C427 C 0.7448 0.20508 0.28873 0.0
C428 C 0.74601 0.23186 0.29146 0.0
C429 C 0.74063 0.26168 0.32448 0.0
H430 H 0.7447 0.2598 0.34135 0.0
H431 H 0.73018 0.2675 0.32584 0.0
H432 H 0.74609 0.27706 0.31554 0.0
O433 O 0.73852 0.17841 0.3675 0.0
O434 O 0.74254 0.14674 0.34353 0.0
H435 H 0.75454 0.17571 0.26995 0.0
H436 H 0.74958 0.20337 0.25376 0.0
C437 C 0.74678 0.1905 0.26762 0.0
H438 H 0.73753 0.1807 0.26309 0.0
H439 H 0.7588 0.131 0.29949 0.0
O440 O 0.72731 0.23805 0.36584 0.0
C441 C 0.74316 0.15591 0.3631 0.0
Co442 Co 0.04957 0.56826 0.35169 0.0
Co443 Co 0.043 0.61351 0.3192 0.0
C444 C 0.07101 0.60007 0.33328 0.0
O445 O 0.06753 0.58053 0.34475 0.0
O446 O 0.06253 0.61408 0.3234 0.0
C447 C 0.06135 0.52407 0.37349 0.0
O448 O 0.07248 0.53564 0.36874 0.0
C449 C 0.04536 0.63218 0.27447 0.0
C450 C 0.02899 0.65996 0.27102 0.0
C451 C 0.03869 0.64719 0.25914 0.0
N452 N 0.03962 0.63524 0.29428 0.0
N453 N 0.03002 0.65233 0.29226 0.0
C454 C 0.05685 0.6146 0.27046 0.0
H455 H 0.05391 0.59411 0.2732 0.0
H456 H 0.06088 0.61689 0.25356 0.0
H457 H 0.06474 0.61921 0.28236 0.0
C458 C 0.03763 0.53723 0.31496 0.0
N459 N 0.04065 0.56004 0.32484 0.0
N460 N 0.03676 0.57928 0.31221 0.0
C461 C 0.03043 0.5693 0.29453 0.0
C462 C 0.03104 0.54226 0.29523 0.0
C463 C 0.0422 0.51135 0.32319 0.0
H464 H 0.05239 0.51299 0.32938 0.0
H465 H 0.04191 0.49634 0.31008 0.0
H466 H 0.03585 0.50516 0.3371 0.0
O467 O 0.04029 0.59597 0.37011 0.0
O468 O 0.03481 0.62742 0.34667 0.0
H469 H 0.01442 0.57394 0.27173 0.0
H470 H 0.02931 0.58989 0.26401 0.0
C471 C 0.02291 0.58511 0.27814 0.0
H472 H 0.01933 0.60333 0.28583 0.0
H473 H 0.02371 0.65767 0.30507 0.0
O474 O 0.05061 0.53536 0.36882 0.0
C475 C 0.03503 0.61813 0.36621 0.0
Co476 Co 0.72853 0.56993 0.43222 0.0
Co477 Co 0.73437 0.6149 0.46559 0.0
C478 C 0.70675 0.60196 0.45047 0.0
O479 O 0.71049 0.58268 0.43889 0.0
O480 O 0.71498 0.61584 0.46095 0.0
C481 C 0.71641 0.52496 0.41257 0.0
O482 O 0.70552 0.53547 0.41995 0.0
C483 C 0.73091 0.63787 0.50887 0.0
C484 C 0.74921 0.65989 0.51389 0.0
C485 C 0.738 0.65142 0.52466 0.0
N486 N 0.73784 0.63746 0.48999 0.0
N487 N 0.7486 0.65132 0.49287 0.0
C488 C 0.71786 0.62491 0.51157 0.0
H489 H 0.7188 0.60382 0.50803 0.0
H490 H 0.71365 0.62795 0.52825 0.0
H491 H 0.71089 0.63322 0.49944 0.0
C492 C 0.74098 0.53851 0.46813 0.0
N493 N 0.73744 0.56153 0.45911 0.0
N494 N 0.74034 0.58034 0.47295 0.0
C495 C 0.74617 0.5698 0.49096 0.0
C496 C 0.74661 0.54285 0.48871 0.0
C497 C 0.73899 0.51275 0.45719 0.0
H498 H 0.74355 0.51312 0.44057 0.0
H499 H 0.72833 0.50917 0.45516 0.0
H500 H 0.7434 0.49664 0.46682 0.0
O501 O 0.73791 0.59734 0.41405 0.0
O502 O 0.74279 0.62851 0.43808 0.0
H503 H 0.75555 0.60283 0.50551 0.0
H504 H 0.7568 0.57369 0.52185 0.0
C505 C 0.75034 0.58501 0.51076 0.0
H506 H 0.74151 0.5905 0.52024 0.0
H507 H 0.75593 0.65346 0.48097 0.0
O508 O 0.72716 0.53714 0.41492 0.0
C509 C 0.74296 0.61951 0.41843 0.0
Co510 Co 0.04782 0.20451 0.43468 0.0
Co511 Co 0.04027 0.15914 0.46632 0.0
C512 C 0.06856 0.17045 0.45372 0.0
O513 O 0.06536 0.19011 0.44214 0.0
O514 O 0.05989 0.1568 0.46354 0.0
C515 C 0.06091 0.24905 0.41563 0.0
O516 O 0.07167 0.23761 0.42252 0.0
C517 C 0.04053 0.13565 0.50965 0.0
C518 C 0.02191 0.11384 0.51036 0.0
C519 C 0.03228 0.12178 0.52348 0.0
N520 N 0.03522 0.13611 0.48938 0.0
N521 N 0.02428 0.12237 0.48971 0.0
C522 C 0.05209 0.15177 0.51629 0.0
H523 H 0.06104 0.13949 0.51563 0.0
H524 H 0.0534 0.16835 0.5048 0.0
H525 H 0.05098 0.15918 0.5334 0.0
C526 C 0.03585 0.23581 0.47119 0.0
N527 N 0.03864 0.21283 0.46136 0.0
N528 N 0.03475 0.19377 0.47422 0.0
C529 C 0.02885 0.20414 0.49225 0.0
C530 C 0.02953 0.23116 0.49122 0.0
C531 C 0.04054 0.26148 0.46268 0.0
H532 H 0.03498 0.26657 0.44755 0.0
H533 H 0.05106 0.25997 0.45826 0.0
H534 H 0.03936 0.27721 0.47502 0.0
O535 O 0.0383 0.17863 0.41507 0.0
O536 O 0.03241 0.14706 0.43797 0.0
H537 H 0.01415 0.20052 0.51768 0.0
H538 H 0.0291 0.18316 0.52273 0.0
C539 C 0.02199 0.18878 0.50977 0.0
H540 H 0.01754 0.17112 0.50257 0.0
H541 H 0.01793 0.12059 0.47631 0.0
O542 O 0.04996 0.23763 0.41817 0.0
C543 C 0.03279 0.15669 0.41858 0.0
Co544 Co 0.79791 0.31927 0.68253 0.0
Co545 Co 0.79113 0.36498 0.71432 0.0
C546 C 0.8191 0.35284 0.70092 0.0
O547 O 0.81563 0.33337 0.68937 0.0
O548 O 0.81064 0.36664 0.71104 0.0
C549 C 0.81059 0.27256 0.66918 0.0
O550 O 0.81965 0.28133 0.68263 0.0
C551 C 0.79277 0.38761 0.75764 0.0
C552 C 0.77574 0.41409 0.7591 0.0
C553 C 0.7858 0.40375 0.77178 0.0
N554 N 0.78702 0.3882 0.73773 0.0
N555 N 0.77702 0.4045 0.73849 0.0
C556 C 0.80353 0.36898 0.76351 0.0
H557 H 0.80415 0.35302 0.75126 0.0
H558 H 0.80193 0.36057 0.78016 0.0
H559 H 0.81302 0.37952 0.76357 0.0
C560 C 0.78544 0.28857 0.71939 0.0
N561 N 0.78873 0.31126 0.70946 0.0
N562 N 0.78522 0.33067 0.7223 0.0
C563 C 0.77916 0.32092 0.74039 0.0
C564 C 0.77931 0.29388 0.73949 0.0
C565 C 0.78942 0.26241 0.71088 0.0
H566 H 0.80027 0.26139 0.71022 0.0
H567 H 0.78591 0.24636 0.7215 0.0
H568 H 0.78557 0.25974 0.69392 0.0
O569 O 0.7883 0.34546 0.66314 0.0
O570 O 0.78322 0.37751 0.68621 0.0
H571 H 0.76434 0.326 0.76541 0.0
H572 H 0.77967 0.34155 0.77107 0.0
C573 C 0.77257 0.33693 0.75783 0.0
H574 H 0.76872 0.35519 0.75066 0.0
H575 H 0.77064 0.40791 0.72537 0.0
O576 O 0.80037 0.28623 0.66587 0.0
C577 C 0.78319 0.36779 0.66682 0.0
Co578 Co 0.47847 0.9566 0.68304 0.0
Co579 Co 0.48538 0.9121 0.71577 0.0
C580 C 0.45737 0.92365 0.702 0.0
O581 O 0.4608 0.94275 0.69006 0.0
O582 O 0.46587 0.91034 0.71237 0.0
C583 C 0.46576 1.00291 0.67154 0.0
O584 O 0.45799 0.9947 0.68736 0.0
C585 C 0.48319 0.89236 0.75994 0.0
C586 C 0.49897 0.86317 0.76257 0.0
C587 C 0.48952 0.87621 0.77478 0.0
N588 N 0.48881 0.88957 0.74005 0.0
N589 N 0.49805 0.8716 0.74153 0.0
C590 C 0.47229 0.91116 0.76464 0.0
H591 H 0.47539 0.93112 0.76016 0.0
H592 H 0.46915 0.9106 0.78216 0.0
H593 H 0.46371 0.90619 0.75426 0.0
C594 C 0.49149 0.9888 0.7184 0.0
N595 N 0.4878 0.96574 0.70954 0.0
N596 N 0.49159 0.94685 0.72273 0.0
C597 C 0.49838 0.95745 0.73978 0.0
C598 C 0.49817 0.98444 0.73806 0.0
C599 C 0.48905 0.01475 0.70805 0.0
H600 H 0.49137 0.01394 0.69019 0.0
H601 H 0.47858 0.02 0.71014 0.0
H602 H 0.49514 0.0301 0.7158 0.0
O603 O 0.48809 0.92992 0.66432 0.0
O604 O 0.49336 0.89851 0.68794 0.0
H605 H 0.5154 0.9487 0.75908 0.0
H606 H 0.50023 0.94684 0.77362 0.0
C607 C 0.50505 0.94248 0.75767 0.0
H608 H 0.50514 0.92148 0.7543 0.0
H609 H 0.50418 0.86616 0.72852 0.0
O610 O 0.47547 0.98885 0.66585 0.0
C611 C 0.49331 0.90777 0.66837 0.0
Co612 Co 0.7991 0.95496 0.59706 0.0
Co613 Co 0.79275 0.90897 0.56539 0.0
C614 C 0.82061 0.92222 0.57811 0.0
O615 O 0.81691 0.94151 0.58971 0.0
O616 O 0.8123 0.90797 0.56818 0.0
C617 C 0.81101 1.00292 0.60696 0.0
O618 O 0.81865 0.99512 0.59079 0.0
C619 C 0.79431 0.8848 0.52242 0.0
C620 C 0.77699 0.8591 0.5218 0.0
C621 C 0.78707 0.86866 0.50869 0.0
N622 N 0.78864 0.88504 0.54245 0.0
N623 N 0.7785 0.86911 0.54219 0.0
C624 C 0.80527 0.90269 0.51602 0.0
H625 H 0.81463 0.89171 0.51629 0.0
H626 H 0.80601 0.91912 0.52779 0.0
H627 H 0.80381 0.9105 0.49913 0.0
C628 C 0.78548 0.98509 0.56102 0.0
N629 N 0.78947 0.96256 0.57046 0.0
N630 N 0.78644 0.94314 0.55727 0.0
C631 C 0.78014 0.95281 0.53931 0.0
C632 C 0.77958 0.97981 0.54084 0.0
C633 C 0.78711 1.01145 0.57106 0.0
H634 H 0.78495 1.01066 0.58897 0.0
H635 H 0.79736 0.01802 0.56862 0.0
H636 H 0.78047 0.02582 0.56321 0.0
O637 O 0.78998 0.92871 0.61687 0.0
O638 O 0.78501 0.89655 0.59389 0.0
H639 H 0.77156 0.91783 0.52653 0.0
H640 H 0.7671 0.94661 0.51162 0.0
C641 C 0.77518 0.93678 0.52047 0.0
H642 H 0.7832 0.93366 0.50843 0.0
H643 H 0.77213 0.86638 0.55548 0.0
O644 O 0.80179 0.98808 0.61338 0.0
C645 C 0.78499 0.9063 0.61328 0.0
Co646 Co 0.47813 0.31929 0.60202 0.0
Co647 Co 0.4852 0.36384 0.56931 0.0
C648 C 0.45715 0.35255 0.58306 0.0
O649 O 0.46053 0.33328 0.59486 0.0
O650 O 0.46569 0.36596 0.57284 0.0
C651 C 0.46543 0.27306 0.61381 0.0
O652 O 0.4575 0.28136 0.59826 0.0
C653 C 0.4828 0.38418 0.52532 0.0
C654 C 0.50003 0.40965 0.52138 0.0
C655 C 0.48967 0.39867 0.50989 0.0
N656 N 0.48902 0.3858 0.54478 0.0
N657 N 0.49914 0.40159 0.54254 0.0
C658 C 0.4706 0.3685 0.52177 0.0
H659 H 0.47231 0.34809 0.52692 0.0
H660 H 0.46715 0.3692 0.50445 0.0
H661 H 0.46266 0.37647 0.5323 0.0
C662 C 0.49095 0.28713 0.56628 0.0
N663 N 0.48743 0.31011 0.57551 0.0
N664 N 0.49116 0.32908 0.56238 0.0
C665 C 0.49769 0.31868 0.54498 0.0
C666 C 0.49748 0.29171 0.54649 0.0
C667 C 0.48818 0.26102 0.57607 0.0
H668 H 0.49066 0.26108 0.59387 0.0
H669 H 0.47761 0.25658 0.57419 0.0
H670 H 0.49394 0.24554 0.56772 0.0
O671 O 0.48772 0.346 0.62069 0.0
O672 O 0.4933 0.3772 0.59707 0.0
H673 H 0.51176 0.32334 0.51855 0.0
H674 H 0.49611 0.33797 0.5142 0.0
C675 C 0.50369 0.3341 0.52671 0.0
H676 H 0.50758 0.3527 0.53312 0.0
H677 H 0.50586 0.40563 0.55505 0.0
O678 O 0.47519 0.28703 0.61921 0.0
C679 C 0.4931 0.36798 0.61664 0.0
Co680 Co 0.22919 0.70395 0.34829 0.0
Co681 Co 0.23648 0.65851 0.31667 0.0
C682 C 0.20825 0.67049 0.32961 0.0
O683 O 0.21157 0.6902 0.34102 0.0
O684 O 0.21684 0.65655 0.31983 0.0
C685 C 0.21648 0.74765 0.36955 0.0
O686 O 0.20552 0.73544 0.36488 0.0
C687 C 0.23574 0.63537 0.27329 0.0
C688 C 0.25413 0.61273 0.27207 0.0
C689 C 0.24373 0.62122 0.25921 0.0
N690 N 0.24122 0.63549 0.29342 0.0
N691 N 0.25202 0.62129 0.2928 0.0
C692 C 0.22429 0.65207 0.26698 0.0
H693 H 0.22307 0.66832 0.27884 0.0
H694 H 0.22551 0.66001 0.25007 0.0
H695 H 0.21527 0.64006 0.26726 0.0
C696 C 0.241 0.73509 0.31167 0.0
N697 N 0.23826 0.71214 0.32154 0.0
N698 N 0.24208 0.69304 0.30865 0.0
C699 C 0.24793 0.70335 0.29055 0.0
C700 C 0.24726 0.7304 0.29159 0.0
C701 C 0.2363 0.76078 0.3202 0.0
H702 H 0.24237 0.76652 0.33457 0.0
H703 H 0.22599 0.75899 0.32579 0.0
H704 H 0.23684 0.77618 0.30745 0.0
O705 O 0.23859 0.6778 0.36771 0.0
O706 O 0.24451 0.64618 0.34485 0.0
H707 H 0.2626 0.69952 0.2651 0.0
H708 H 0.24758 0.68248 0.26001 0.0
C709 C 0.25471 0.68791 0.27298 0.0
H710 H 0.25908 0.67011 0.28013 0.0
H711 H 0.25845 0.61914 0.30605 0.0
O712 O 0.22738 0.73696 0.36491 0.0
C713 C 0.24409 0.65583 0.36423 0.0
Co714 Co 0.54844 0.07051 0.35049 0.0
Co715 Co 0.54152 0.11632 0.31828 0.0
C716 C 0.56949 0.1044 0.33233 0.0
O717 O 0.56608 0.08471 0.34367 0.0
O718 O 0.56101 0.1182 0.32227 0.0
C719 C 0.5612 0.02419 0.36541 0.0
O720 O 0.57081 0.03341 0.3533 0.0
C721 C 0.54334 0.13992 0.27475 0.0
C722 C 0.52428 0.15985 0.27141 0.0
C723 C 0.53527 0.15225 0.25948 0.0
N724 N 0.53711 0.13909 0.29431 0.0
N725 N 0.5259 0.1518 0.29241 0.0
C726 C 0.55673 0.12872 0.27101 0.0
H727 H 0.56339 0.13525 0.28431 0.0
H728 H 0.55621 0.10719 0.27161 0.0
H729 H 0.56099 0.13517 0.2551 0.0
C730 C 0.53652 0.03948 0.3137 0.0
N731 N 0.53951 0.06238 0.32352 0.0
N732 N 0.53609 0.08157 0.31038 0.0
C733 C 0.53044 0.07136 0.29209 0.0
C734 C 0.5307 0.04435 0.2933 0.0
C735 C 0.5406 1.01355 0.32256 0.0
H736 H 0.53623 1.01067 0.33916 0.0
H737 H 0.55141 1.01315 0.3242 0.0
H738 H 0.53767 0.99731 0.31165 0.0
O739 O 0.53879 0.0969 0.3695 0.0
O740 O 0.53328 0.1287 0.34647 0.0
H741 H 0.5193 0.10411 0.28089 0.0
H742 H 0.51707 0.0752 0.26466 0.0
C743 C 0.52434 0.08691 0.27395 0.0
H744 H 0.53206 0.09324 0.26229 0.0
H745 H 0.51893 0.15329 0.30497 0.0
O746 O 0.55072 0.03748 0.36737 0.0
C747 C 0.53344 0.11901 0.36589 0.0
Co748 Co 0.22716 0.06703 0.43156 0.0
Co749 Co 0.23368 0.11155 0.46474 0.0
C750 C 0.20573 0.09877 0.45078 0.0
O751 O 0.20925 0.07961 0.4389 0.0
O752 O 0.21417 0.11249 0.46093 0.0
C753 C 0.2148 0.02213 0.41261 0.0
O754 O 0.20413 0.03229 0.42119 0.0
C755 C 0.23095 0.13084 0.50912 0.0
C756 C 0.24749 0.15803 0.51307 0.0
C757 C 0.23747 0.14587 0.52459 0.0
N758 N 0.23705 0.13334 0.48958 0.0
N759 N 0.24676 0.15012 0.49186 0.0
C760 C 0.21915 0.11398 0.51263 0.0
H761 H 0.22138 0.09376 0.50747 0.0
H762 H 0.21568 0.11431 0.52997 0.0
H763 H 0.21105 0.12114 0.50208 0.0
C764 C 0.23989 0.03514 0.46708 0.0
N765 N 0.23638 0.05819 0.45806 0.0
N766 N 0.24002 0.07705 0.47132 0.0
C767 C 0.24658 0.06656 0.48862 0.0
C768 C 0.24644 0.03955 0.48688 0.0
C769 C 0.23696 1.0093 0.45691 0.0
H770 H 0.24122 1.00858 0.44008 0.0
H771 H 0.22619 1.00689 0.45545 0.0
H772 H 0.24108 0.99305 0.46675 0.0
O773 O 0.23641 0.09473 0.41331 0.0
O774 O 0.24176 0.12576 0.43723 0.0
H775 H 0.26082 0.07185 0.51468 0.0
H776 H 0.24484 0.08445 0.52004 0.0
C777 C 0.25236 0.08194 0.50711 0.0
H778 H 0.25566 0.10117 0.50114 0.0
H779 H 0.25331 0.15503 0.4793 0.0
O780 O 0.22556 0.03451 0.41403 0.0
C781 C 0.24161 0.11683 0.41755 0.0
Co782 Co 0.54767 0.70496 0.43378 0.0
Co783 Co 0.54173 0.65944 0.46676 0.0
C784 C 0.56924 0.67122 0.45261 0.0
O785 O 0.56541 0.69026 0.4408 0.0
O786 O 0.5611 0.65748 0.46344 0.0
C787 C 0.55983 0.75278 0.42472 0.0
O788 O 0.567 0.74472 0.44137 0.0
C789 C 0.54319 0.63021 0.50821 0.0
C790 C 0.52244 0.61994 0.51356 0.0
C791 C 0.53453 0.62066 0.52403 0.0
N792 N 0.53638 0.63628 0.48992 0.0
N793 N 0.52407 0.62915 0.49293 0.0
C794 C 0.55769 0.63407 0.51037 0.0
H795 H 0.5599 0.65514 0.51137 0.0
H796 H 0.56166 0.62388 0.52505 0.0
H797 H 0.56266 0.62619 0.49553 0.0
C798 C 0.53436 0.73585 0.4695 0.0
N799 N 0.53835 0.71307 0.46049 0.0
N800 N 0.53644 0.69429 0.47488 0.0
C801 C 0.5315 0.70478 0.49369 0.0
C802 C 0.52998 0.73148 0.49093 0.0
C803 C 0.53446 0.76148 0.45785 0.0
H804 H 0.53245 0.75877 0.44003 0.0
H805 H 0.54421 0.77065 0.45991 0.0
H806 H 0.52698 0.77477 0.46494 0.0
O807 O 0.53807 0.67927 0.41448 0.0
O808 O 0.53381 0.64729 0.43805 0.0
H809 H 0.52168 0.67602 0.51297 0.0
H810 H 0.52749 0.7032 0.52892 0.0
C811 C 0.52976 0.6902 0.51484 0.0
H812 H 0.53893 0.67973 0.51877 0.0
H813 H 0.51656 0.63257 0.48159 0.0
O814 O 0.55076 0.73806 0.41754 0.0
C815 C 0.53333 0.65679 0.41857 0.0
Co816 Co 0.798 0.82228 0.18495 0.0
Co817 Co 0.79191 0.86835 0.2168 0.0
C818 C 0.8197 0.85452 0.20286 0.0
O819 O 0.81597 0.83511 0.19145 0.0
O820 O 0.81144 0.8688 0.21302 0.0
C821 C 0.80999 0.77725 0.16472 0.0
O822 O 0.82105 0.78863 0.17009 0.0
C823 C 0.79385 0.89074 0.26032 0.0
C824 C 0.77716 0.91806 0.26164 0.0
C825 C 0.787 0.90712 0.27445 0.0
N826 N 0.78821 0.89175 0.24032 0.0
N827 N 0.77843 0.90857 0.24101 0.0
C828 C 0.80435 0.87158 0.26625 0.0
H829 H 0.80501 0.85592 0.25372 0.0
H830 H 0.80245 0.86283 0.28267 0.0
H831 H 0.81392 0.88178 0.26689 0.0
C832 C 0.78609 0.79224 0.22223 0.0
N833 N 0.78915 0.81489 0.21211 0.0
N834 N 0.78569 0.83435 0.2249 0.0
C835 C 0.77974 0.82465 0.24313 0.0
C836 C 0.78 0.79758 0.24236 0.0
C837 C 0.79034 0.76618 0.21385 0.0
H838 H 0.80068 0.76724 0.20826 0.0
H839 H 0.78956 0.75091 0.22668 0.0
H840 H 0.78419 0.76074 0.19949 0.0
O841 O 0.78863 0.84898 0.16582 0.0
O842 O 0.78393 0.88126 0.18886 0.0
H843 H 0.76477 0.83001 0.26781 0.0
H844 H 0.78013 0.84521 0.27386 0.0
C845 C 0.77312 0.84077 0.26045 0.0
H846 H 0.76945 0.85917 0.25324 0.0
H847 H 0.77215 0.91236 0.22782 0.0
O848 O 0.79921 0.78888 0.16851 0.0
C849 C 0.78373 0.87149 0.1695 0.0
Co850 Co 0.47708 0.45768 0.18269 0.0
Co851 Co 0.48368 0.41255 0.2151 0.0
C852 C 0.45577 0.42492 0.20149 0.0
O853 O 0.45931 0.44422 0.18985 0.0
O854 O 0.4642 0.41108 0.21154 0.0
C855 C 0.4648 0.50458 0.17151 0.0
O856 O 0.45701 0.4967 0.18742 0.0
C857 C 0.48088 0.39006 0.25842 0.0
C858 C 0.4988 0.36652 0.2625 0.0
C859 C 0.48796 0.37592 0.27382 0.0
N860 N 0.48745 0.38985 0.2392 0.0
N861 N 0.49798 0.37511 0.24151 0.0
C862 C 0.46819 0.40426 0.26185 0.0
H863 H 0.4694 0.42502 0.25734 0.0
H864 H 0.4645 0.40249 0.27898 0.0
H865 H 0.46067 0.39584 0.25077 0.0
C866 C 0.49033 0.48903 0.21838 0.0
N867 N 0.48649 0.46625 0.2092 0.0
N868 N 0.48974 0.44711 0.22252 0.0
C869 C 0.49609 0.45718 0.24022 0.0
C870 C 0.49643 0.48417 0.2385 0.0
C871 C 0.48835 0.51519 0.20814 0.0
H872 H 0.49067 0.51436 0.19029 0.0
H873 H 0.47796 0.52111 0.21023 0.0
H874 H 0.49467 0.53005 0.21605 0.0
O875 O 0.48648 0.43098 0.16375 0.0
O876 O 0.4918 0.3994 0.18716 0.0
H877 H 0.50822 0.45218 0.26934 0.0
H878 H 0.49268 0.43634 0.26978 0.0
C879 C 0.50106 0.44142 0.25914 0.0
H880 H 0.50574 0.42341 0.25297 0.0
H881 H 0.50502 0.37233 0.22922 0.0
O882 O 0.47433 0.49014 0.16571 0.0
C883 C 0.49171 0.40882 0.16765 0.0
Co884 Co 0.79816 0.45792 0.10075 0.0
Co885 Co 0.79208 0.41276 0.06785 0.0
C886 C 0.81982 0.4255 0.0834 0.0
O887 O 0.81619 0.44509 0.09472 0.0
O888 O 0.8115 0.41169 0.07301 0.0
C889 C 0.80986 0.50223 0.12232 0.0
O890 O 0.82099 0.49091 0.11709 0.0
C891 C 0.7952 0.39294 0.02356 0.0
C892 C 0.77822 0.36691 0.01923 0.0
C893 C 0.78849 0.37848 1.00789 0.0
N894 N 0.78893 0.39079 0.04298 0.0
N895 N 0.77896 0.37468 0.04047 0.0
C896 C 0.80724 0.40916 0.02024 0.0
H897 H 0.8048 0.42997 0.02276 0.0
H898 H 0.81161 0.40628 1.00366 0.0
H899 H 0.81471 0.40371 0.03266 0.0
C900 C 0.78679 0.48922 0.06368 0.0
N901 N 0.78971 0.46629 0.07349 0.0
N902 N 0.78617 0.44719 0.06043 0.0
C903 C 0.78025 0.45739 0.04241 0.0
C904 C 0.78067 0.48443 0.04349 0.0
C905 C 0.79106 0.51503 0.0725 0.0
H906 H 0.80128 0.51359 0.07857 0.0
H907 H 0.79058 0.53046 0.05977 0.0
H908 H 0.78468 0.52048 0.08662 0.0
O909 O 0.78845 0.43056 0.11876 0.0
O910 O 0.78345 0.39914 0.09503 0.0
H911 H 0.76523 0.45305 0.0177 0.0
H912 H 0.78038 0.43682 1.01184 0.0
C913 C 0.77338 0.44176 0.02513 0.0
H914 H 0.76942 0.42363 0.03236 0.0
H915 H 0.77222 0.37023 0.05287 0.0
O916 O 0.79913 0.49078 0.11797 0.0
C917 C 0.78328 0.40842 0.11458 0.0
Co918 Co 0.4785 0.82086 0.10078 0.0
Co919 Co 0.48483 0.86613 0.06831 0.0
C920 C 0.4571 0.85439 0.08267 0.0
O921 O 0.46073 0.83494 0.09408 0.0
O922 O 0.46544 0.86817 0.07236 0.0
C923 C 0.46616 0.77392 0.11071 0.0
O924 O 0.45887 0.78204 0.09424 0.0
C925 C 0.48182 0.89175 0.02609 0.0
C926 C 0.50109 0.91011 0.0208 0.0
C927 C 0.48938 0.90424 1.01029 0.0
N928 N 0.48891 0.88929 0.04464 0.0
N929 N 0.50027 0.90111 0.04166 0.0
C930 C 0.46821 0.88122 0.02344 0.0
H931 H 0.46822 0.85996 0.02651 0.0
H932 H 0.46408 0.88547 1.00691 0.0
H933 H 0.46171 0.89044 0.03587 0.0
C934 C 0.49171 0.78959 0.06495 0.0
N935 N 0.48778 0.81237 0.07406 0.0
N936 N 0.49047 0.83139 0.06028 0.0
C937 C 0.49626 0.82118 0.04206 0.0
C938 C 0.49711 0.79426 0.04422 0.0
C939 C 0.49062 0.76363 0.07592 0.0
H940 H 0.49272 0.76543 0.09379 0.0
H941 H 0.48052 0.75609 0.07372 0.0
H942 H 0.49757 0.74946 0.06853 0.0
O943 O 0.48807 0.84696 0.1198 0.0
O944 O 0.4932 0.87857 0.09633 0.0
H945 H 0.50632 0.85302 0.02702 0.0
H946 H 0.505 0.82487 1.00941 0.0
C947 C 0.49993 0.83663 0.02212 0.0
H948 H 0.49088 0.84441 1.0147 0.0
H949 H 0.50783 0.9013 0.05326 0.0
O950 O 0.4755 0.78826 0.1174 0.0
C951 C 0.49329 0.86907 0.11581 0.0
Co952 Co 0.22837 0.20911 0.85239 0.0
Co953 Co 0.23422 0.16381 0.81947 0.0
C954 C 0.20665 0.17654 0.83427 0.0
O955 O 0.21043 0.19567 0.84593 0.0
O956 O 0.21487 0.16275 0.82366 0.0
C957 C 0.21642 0.25648 0.86341 0.0
O958 O 0.20863 0.24866 0.84749 0.0
C959 C 0.23091 0.14028 0.77652 0.0
C960 C 0.24907 0.1176 0.77187 0.0
C961 C 0.23792 0.12619 0.76096 0.0
N962 N 0.23779 0.14084 0.79541 0.0
N963 N 0.24847 0.1266 0.79277 0.0
C964 C 0.21797 0.1537 0.77353 0.0
H965 H 0.21075 0.14511 0.78511 0.0
H966 H 0.21895 0.17462 0.7777 0.0
H967 H 0.21405 0.15139 0.7566 0.0
C968 C 0.24149 0.2401 0.81629 0.0
N969 N 0.23754 0.2174 0.8255 0.0
N970 N 0.2403 0.19827 0.81185 0.0
C971 C 0.24633 0.20826 0.79378 0.0
C972 C 0.24708 0.23519 0.79575 0.0
C973 C 0.24013 0.26621 0.82692 0.0
H974 H 0.24253 0.26487 0.84472 0.0
H975 H 0.22988 0.27307 0.82509 0.0
H976 H 0.24673 0.28064 0.81906 0.0
O977 O 0.23793 0.18234 0.87104 0.0
O978 O 0.24238 0.15054 0.84731 0.0
H979 H 0.25557 0.17476 0.7797 0.0
H980 H 0.25693 0.20349 0.76289 0.0
C981 C 0.25044 0.19258 0.7742 0.0
H982 H 0.24157 0.18713 0.76489 0.0
H983 H 0.25574 0.12443 0.80472 0.0
O984 O 0.22584 0.24183 0.86931 0.0
C985 C 0.24276 0.15989 0.86684 0.0
Co986 Co 0.54903 0.57121 0.84957 0.0
Co987 Co 0.54171 0.61644 0.81735 0.0
C988 C 0.56987 0.60492 0.8298 0.0
O989 O 0.56653 0.58572 0.84181 0.0
O990 O 0.5613 0.61845 0.81967 0.0
C991 C 0.56214 0.52481 0.86298 0.0
O992 O 0.57114 0.53381 0.84948 0.0
C993 C 0.54206 0.63892 0.77356 0.0
C994 C 0.52365 0.66147 0.7726 0.0
C995 C 0.53392 0.65274 0.75951 0.0
N996 N 0.53677 0.63915 0.79388 0.0
N997 N 0.52596 0.65334 0.79338 0.0
C998 C 0.55349 0.62219 0.76715 0.0
H999 H 0.56252 0.63416 0.7674 0.0
H1000 H 0.5547 0.60593 0.77899 0.0
H1001 H 0.55225 0.61426 0.75024 0.0
C1002 C 0.53641 0.53972 0.81353 0.0
N1003 N 0.53962 0.56268 0.82306 0.0
N1004 N 0.53594 0.58177 0.81003 0.0
C1005 C 0.52985 0.57148 0.79218 0.0
C1006 C 0.53017 0.5445 0.79347 0.0
C1007 C 0.54058 0.51381 0.82229 0.0
H1008 H 0.53692 0.51143 0.83941 0.0
H1009 H 0.55143 0.51294 0.82255 0.0
H1010 H 0.537 0.49749 0.81204 0.0
O1011 O 0.5395 0.59743 0.86905 0.0
O1012 O 0.53415 0.62916 0.84587 0.0
H1013 H 0.51518 0.57532 0.76679 0.0
H1014 H 0.53026 0.59197 0.76145 0.0
C1015 C 0.52313 0.58687 0.77454 0.0
H1016 H 0.51882 0.60478 0.78158 0.0
H1017 H 0.51964 0.65573 0.80679 0.0
O1018 O 0.55186 0.5383 0.86639 0.0
C1019 C 0.53431 0.61968 0.86535 0.0
Co1020 Co 0.2287 0.57344 0.93494 0.0
Co1021 Co 0.23479 0.61892 0.96755 0.0
C1022 C 0.20721 0.6074 0.95355 0.0
O1023 O 0.211 0.58813 0.94197 0.0
O1024 O 0.2154 0.62127 0.96415 0.0
C1025 C 0.21647 0.52589 0.92576 0.0
O1026 O 0.20929 0.53381 0.94249 0.0
C1027 C 0.23324 0.64896 1.00842 0.0
C1028 C 0.2541 0.65737 1.01467 0.0
C1029 C 0.24184 0.65774 0.02462 0.0
N1030 N 0.24022 0.64218 0.99048 0.0
N1031 N 0.25262 0.64826 0.99398 0.0
C1032 C 0.21864 0.64631 1.00997 0.0
H1033 H 0.21409 0.65452 0.9949 0.0
H1034 H 0.21598 0.62543 1.01092 0.0
H1035 H 0.21465 0.65688 0.02446 0.0
C1036 C 0.24188 0.54242 0.9707 0.0
N1037 N 0.23799 0.56522 0.96162 0.0
N1038 N 0.23988 0.58402 0.97599 0.0
C1039 C 0.24465 0.57351 0.99489 0.0
C1040 C 0.24614 0.54677 0.9922 0.0
C1041 C 0.24179 0.5168 0.95902 0.0
H1042 H 0.24383 0.51953 0.9412 0.0
H1043 H 0.23203 0.50764 0.96104 0.0
H1044 H 0.24925 0.50349 0.9661 0.0
O1045 O 0.23824 0.59893 0.9155 0.0
O1046 O 0.24296 0.63075 0.93892 0.0
H1047 H 0.25465 0.60146 1.01472 0.0
H1048 H 0.24779 0.57498 0.03034 0.0
C1049 C 0.24619 0.58809 1.01609 0.0
H1050 H 0.23719 0.59947 0.01934 0.0
H1051 H 0.26022 0.64406 0.98301 0.0
O1052 O 0.22557 0.54058 0.91868 0.0
C1053 C 0.24324 0.6212 0.91945 0.0
Co1054 Co 0.5483 0.20659 0.93422 0.0
Co1055 Co 0.54105 0.16112 0.96624 0.0
C1056 C 0.56918 0.17297 0.95427 0.0
O1057 O 0.56578 0.19207 0.94219 0.0
O1058 O 0.56066 0.15927 0.96434 0.0
C1059 C 0.5615 0.25303 0.92129 0.0
O1060 O 0.57036 0.24392 0.93496 0.0
C1061 C 0.54112 0.13757 1.00965 0.0
C1062 C 0.52248 0.11584 1.01018 0.0
C1063 C 0.53281 0.12373 0.02341 0.0
N1064 N 0.53587 0.13809 0.98932 0.0
N1065 N 0.52492 0.12438 0.98955 0.0
C1066 C 0.55271 0.15356 1.01638 0.0
H1067 H 0.55371 0.17078 1.0055 0.0
H1068 H 0.55189 0.15998 0.03382 0.0
H1069 H 0.56171 0.14157 1.0147 0.0
C1070 C 0.53543 0.23781 0.97024 0.0
N1071 N 0.53874 0.21491 0.96066 0.0
N1072 N 0.53516 0.19574 0.9737 0.0
C1073 C 0.52908 0.20594 0.99165 0.0
C1074 C 0.52926 0.23294 0.99036 0.0
C1075 C 0.53952 0.26377 0.9615 0.0
H1076 H 0.53598 0.26604 0.94431 0.0
H1077 H 0.55037 0.26484 0.96143 0.0
H1078 H 0.53577 0.28007 0.97164 0.0
O1079 O 0.53894 0.18055 0.91446 0.0
O1080 O 0.53377 0.14857 0.93748 0.0
H1081 H 0.51476 0.20196 0.01767 0.0
H1082 H 0.5299 0.18507 0.02215 0.0
C1083 C 0.52258 0.19044 1.00946 0.0
H1084 H 0.51815 0.17267 1.00245 0.0
H1085 H 0.51861 0.12263 0.97609 0.0
O1086 O 0.55124 0.23962 0.91761 0.0
C1087 C 0.5339 0.15817 0.91805 0.0
C1088 C 0.29306 0.4098 0.31156 0.0
C1089 C 0.28205 0.40235 0.2993 0.0
C1090 C 0.29346 0.40546 0.33434 0.0
C1091 C 0.29573 0.38051 0.37924 0.0
H1092 H 0.26413 0.3825 0.41487 0.0
C1093 C 0.27811 0.35247 0.47309 0.0
C1094 C 0.28609 0.36918 0.4856 0.0
C1095 C 0.27797 0.3541 0.45001 0.0
C1096 C 0.27299 0.38157 0.40502 0.0
H1097 H 0.26289 0.38446 0.30084 0.0
H1098 H 0.2637 0.37593 0.34031 0.0
H1099 H 0.26289 0.39263 0.37564 0.0
H1100 H 0.29966 0.40167 0.48331 0.0
H1101 H 0.30008 0.40308 0.44337 0.0
H1102 H 0.30586 0.37083 0.40916 0.0
C1103 C 0.27187 0.38598 0.33276 0.0
C1104 C 0.27231 0.38733 0.3825 0.0
C1105 C 0.27138 0.39082 0.3101 0.0
C1106 C 0.29402 0.38731 0.47445 0.0
C1107 C 0.29411 0.3885 0.45145 0.0
C1108 C 0.29643 0.3753 0.40184 0.0
C1109 C 0.28297 0.39303 0.34521 0.0
C1110 C 0.28368 0.38694 0.36927 0.0
C1111 C 0.28593 0.37225 0.43906 0.0
C1112 C 0.28507 0.3758 0.4149 0.0
H1113 H 0.30141 0.41867 0.30346 0.0
H1114 H 0.30205 0.41174 0.34335 0.0
H1115 H 0.30466 0.37936 0.36961 0.0
H1116 H 0.2717 0.33866 0.48118 0.0
H1117 H 0.27152 0.34146 0.44073 0.0
C1118 C 1.00509 0.8919 0.4752 0.0
C1119 C 0.99563 0.90679 0.48632 0.0
C1120 C 1.00429 0.8884 0.4524 0.0
C1121 C 0.99216 0.87039 0.40797 0.0
H1122 H 0.9931 0.92929 0.36818 0.0
C1123 C 0.98398 0.8984 0.30975 0.0
C1124 C 0.98956 0.87641 0.29965 0.0
C1125 C 0.98415 0.90132 0.3326 0.0
C1126 C 0.99253 0.91258 0.37898 0.0
H1127 H 0.97809 0.93006 0.4827 0.0
H1128 H 0.97701 0.92491 0.44234 0.0
H1129 H 0.99414 0.93648 0.40786 0.0
H1130 H 1.00025 0.84076 0.30577 0.0
H1131 H 1.00119 0.84642 0.34573 0.0
H1132 H 0.99006 0.84641 0.37938 0.0
C1133 C 0.98492 0.91575 0.45138 0.0
C1134 C 0.99324 0.91679 0.40171 0.0
C1135 C 0.98555 0.91877 0.4743 0.0
C1136 C 0.99561 0.85765 0.31307 0.0
C1137 C 0.99606 0.86085 0.33602 0.0
C1138 C 0.99116 0.86616 0.38523 0.0
C1139 C 0.99416 0.90017 0.44034 0.0
C1140 C 0.99313 0.89574 0.41635 0.0
C1141 C 0.9904 0.88288 0.34609 0.0
C1142 C 0.99136 0.8872 0.37039 0.0
H1143 H 1.01282 0.88218 0.48426 0.0
H1144 H 1.01154 0.8764 0.44417 0.0
H1145 H 0.99198 0.85387 0.41905 0.0
H1146 H 0.97988 0.91409 0.30013 0.0
H1147 H 0.97951 0.91836 0.33961 0.0
C1148 C 0.2873 0.92033 0.81267 0.0
C1149 C 0.28937 0.89839 0.79934 0.0
C1150 C 0.28776 0.9182 0.83572 0.0
C1151 C 0.29918 0.87412 0.88048 0.0
H1152 H 0.27329 0.91046 0.91579 0.0
C1153 C 0.29934 0.87208 0.97599 0.0
C1154 C 0.28716 0.87218 0.98679 0.0
C1155 C 0.30004 0.87497 0.95308 0.0
C1156 C 0.28051 0.89997 0.90614 0.0
H1157 H 0.29276 0.85672 0.79984 0.0
H1158 H 0.2935 0.85301 0.83953 0.0
H1159 H 0.27388 0.91721 0.87601 0.0
H1160 H 0.26611 0.87343 0.982 0.0
H1161 H 0.26728 0.87753 0.94198 0.0
H1162 H 0.30549 0.85613 0.91045 0.0
C1163 C 0.29203 0.87208 0.83238 0.0
C1164 C 0.28099 0.90418 0.88337 0.0
C1165 C 0.29162 0.87424 0.80949 0.0
C1166 C 0.27566 0.87347 0.97414 0.0
C1167 C 0.27633 0.8762 0.95123 0.0
C1168 C 0.29866 0.86981 0.90322 0.0
C1169 C 0.29014 0.89399 0.84582 0.0
C1170 C 0.29023 0.89109 0.87023 0.0
C1171 C 0.28854 0.87765 0.94048 0.0
C1172 C 0.28925 0.8825 0.91631 0.0
H1173 H 0.28536 0.9391 0.80526 0.0
H1174 H 0.2863 0.93549 0.84562 0.0
H1175 H 0.30655 0.86398 0.87089 0.0
H1176 H 0.30836 0.87042 0.98528 0.0
H1177 H 0.30961 0.87595 0.94537 0.0
C1178 C 0.98888 0.42041 0.97316 0.0
C1179 C 0.98728 0.398 0.98609 0.0
C1180 C 0.98847 0.41877 0.95008 0.0
C1181 C 0.97877 0.4084 0.90247 0.0
H1182 H 1.00085 0.35651 0.87443 0.0
C1183 C 0.98845 0.35894 0.8108 0.0
C1184 C 0.98736 0.38151 0.79796 0.0
C1185 C 0.98793 0.36048 0.83387 0.0
C1186 C 0.99445 0.37078 0.88197 0.0
H1187 H 0.98451 0.3562 0.9849 0.0
H1188 H 0.98387 0.35339 0.945 0.0
H1189 H 1.00094 0.36086 0.91451 0.0
H1190 H 0.98557 0.42348 0.79924 0.0
H1191 H 0.985 0.42629 0.839 0.0
H1192 H 0.97198 0.41795 0.87014 0.0
C1193 C 0.98526 0.37224 0.95262 0.0
C1194 C 0.99459 0.3734 0.90491 0.0
C1195 C 0.98549 0.37394 0.97555 0.0
C1196 C 0.98604 0.40563 0.80857 0.0
C1197 C 0.98568 0.40723 0.83149 0.0
C1198 C 0.97849 0.40556 0.87955 0.0
C1199 C 0.98679 0.39457 0.93967 0.0
C1200 C 0.98679 0.39229 0.91534 0.0
C1201 C 0.98657 0.38471 0.84449 0.0
C1202 C 0.9864 0.38683 0.86898 0.0
H1203 H 0.99046 0.43913 0.9809 0.0
H1204 H 0.98977 0.43626 0.94038 0.0
H1205 H 0.97253 0.42285 0.91018 0.0
H1206 H 0.98962 0.34014 0.80298 0.0
H1207 H 0.98854 0.34268 0.84335 0.0
C1208 C 0.75067 0.62365 0.72311 0.0
C1209 C 0.73927 0.62339 0.73612 0.0
C1210 C 0.74983 0.62678 0.70026 0.0
C1211 C 0.72665 0.62384 0.65309 0.0
H1212 H 0.75277 0.6675 0.62501 0.0
C1213 C 0.73286 0.6271 0.55925 0.0
C1214 C 0.73633 0.65053 0.54891 0.0
C1215 C 0.73235 0.62528 0.58215 0.0
C1216 C 0.74528 0.65558 0.63263 0.0
H1217 H 0.71804 0.6238 0.73527 0.0
H1218 H 0.71653 0.63024 0.69557 0.0
H1219 H 0.75363 0.66044 0.66472 0.0
H1220 H 0.74228 0.69034 0.55448 0.0
H1221 H 0.74112 0.68743 0.59486 0.0
H1222 H 0.71808 0.61958 0.62115 0.0
C1223 C 0.72615 0.62809 0.7029 0.0
C1224 C 0.74591 0.65114 0.65536 0.0
C1225 C 0.727 0.62472 0.72573 0.0
C1226 C 0.73939 0.67215 0.56205 0.0
C1227 C 0.73881 0.6704 0.58512 0.0
C1228 C 0.72596 0.62847 0.63043 0.0
C1229 C 0.73756 0.62972 0.68993 0.0
C1230 C 0.73671 0.63492 0.66583 0.0
C1231 C 0.73534 0.64683 0.59542 0.0
C1232 C 0.73539 0.64405 0.61984 0.0
H1233 H 0.76027 0.62248 0.73067 0.0
H1234 H 0.75881 0.62722 0.69072 0.0
H1235 H 0.71944 0.61113 0.66053 0.0
H1236 H 0.73095 0.60974 0.54976 0.0
H1237 H 0.73004 0.60662 0.58944 0.0
C1238 C 0.04253 0.1332 0.72319 0.0
C1239 C 0.03681 0.15451 0.73417 0.0
C1240 C 0.04248 0.13175 0.70021 0.0
C1241 C 0.04686 0.14719 0.65072 0.0
H1242 H 1.01298 0.13459 0.62388 0.0
C1243 C 0.02179 0.13579 0.55852 0.0
C1244 C 0.03218 0.12321 0.54774 0.0
C1245 C 0.02234 0.14038 0.58121 0.0
C1246 C 0.02251 0.13859 0.63092 0.0
H1247 H 0.02594 0.19032 0.72949 0.0
H1248 H 0.0254 0.18711 0.68902 0.0
H1249 H 0.01434 0.1441 0.66325 0.0
H1250 H 0.05108 0.10488 0.55192 0.0
H1251 H 0.05175 0.11125 0.59187 0.0
H1252 H 0.05512 0.14255 0.61857 0.0
C1253 C 0.03035 0.17215 0.69846 0.0
C1254 C 0.02325 0.14396 0.65349 0.0
C1255 C 0.03068 0.17396 0.72152 0.0
C1256 C 0.04295 0.11453 0.56002 0.0
C1257 C 0.04337 0.11857 0.58284 0.0
C1258 C 0.04612 0.14242 0.62805 0.0
C1259 C 0.03629 0.15103 0.68771 0.0
C1260 C 0.03543 0.14801 0.66356 0.0
C1261 C 0.03318 0.132 0.59371 0.0
C1262 C 0.03395 0.13769 0.61784 0.0
H1263 H 0.04657 0.11694 0.73218 0.0
H1264 H 0.04683 0.11498 0.69222 0.0
H1265 H 0.05636 0.15025 0.65826 0.0
H1266 H 0.01351 0.14313 0.54921 0.0
H1267 H 0.01441 0.15124 0.58874 0.0
C1268 C 0.73008 0.14098 0.22331 0.0
C1269 C 0.73811 0.12209 0.23325 0.0
C1270 C 0.72968 0.1437 0.20044 0.0
C1271 C 0.74032 0.11296 0.14748 0.0
H1272 H 0.73709 0.1837 0.12593 0.0
C1273 C 0.753 0.14361 0.05837 0.0
C1274 C 0.74291 0.15652 0.04708 0.0
C1275 C 0.75212 0.13958 0.0811 0.0
C1276 C 0.73791 0.16386 0.13175 0.0
H1277 H 0.75224 0.09159 0.22679 0.0
H1278 H 0.75205 0.09708 0.1868 0.0
H1279 H 0.73597 0.17528 0.16542 0.0
H1280 H 0.72421 0.176 0.05043 0.0
H1281 H 0.72288 0.16983 0.09062 0.0
H1282 H 0.74286 0.10194 0.1136 0.0
C1283 C 0.74558 0.10907 0.19667 0.0
C1284 C 0.73718 0.15892 0.15437 0.0
C1285 C 0.74576 0.10598 0.21963 0.0
C1286 C 0.73214 0.1662 0.05893 0.0
C1287 C 0.73137 0.16261 0.08178 0.0
C1288 C 0.7413 0.11801 0.12487 0.0
C1289 C 0.7377 0.12831 0.18679 0.0
C1290 C 0.73832 0.13337 0.16258 0.0
C1291 C 0.74124 0.1488 0.09295 0.0
C1292 C 0.74009 0.14349 0.11684 0.0
H1293 H 0.72456 0.15477 0.23305 0.0
H1294 H 0.72332 0.15844 0.19353 0.0
H1295 H 0.74104 0.09302 0.15307 0.0
H1296 H 0.76131 0.13566 0.04947 0.0
H1297 H 0.75988 0.12904 0.08941 0.0
C1298 C 0.03829 0.66802 0.22178 0.0
C1299 C 0.03947 0.64558 0.23481 0.0
C1300 C 0.0385 0.66617 0.19872 0.0
C1301 C 0.03159 0.62084 0.15361 0.0
H1302 H 0.05438 0.66488 0.11868 0.0
C1303 C 0.03767 0.60648 0.0594 0.0
C1304 C 0.03881 0.62906 0.04657 0.0
C1305 C 0.03816 0.60798 0.08248 0.0
C1306 C 0.04782 0.65264 0.12814 0.0
H1307 H 0.04119 0.60353 0.23385 0.0
H1308 H 0.04153 0.60037 0.19391 0.0
H1309 H 0.054 0.66957 0.15874 0.0
H1310 H 0.0406 0.67105 0.04791 0.0
H1311 H 0.04116 0.67375 0.0877 0.0
H1312 H 0.02516 0.60427 0.12313 0.0
C1313 C 0.04062 0.61939 0.20144 0.0
C1314 C 0.04764 0.65535 0.15108 0.0
C1315 C 0.04057 0.62127 0.22437 0.0
C1316 C 0.04012 0.65316 0.05721 0.0
C1317 C 0.04046 0.65472 0.08015 0.0
C1318 C 0.03166 0.61832 0.13065 0.0
C1319 C 0.03958 0.64178 0.18837 0.0
C1320 C 0.03954 0.63945 0.16402 0.0
C1321 C 0.03955 0.63218 0.09312 0.0
C1322 C 0.03977 0.63421 0.11762 0.0
H1323 H 0.03726 0.68694 0.22944 0.0
H1324 H 0.03757 0.68372 0.18897 0.0
H1325 H 0.02517 0.60848 0.16323 0.0
H1326 H 0.03652 0.58769 0.05158 0.0
H1327 H 0.03753 0.59018 0.09194 0.0
C1328 C 0.78759 0.35791 0.97041 0.0
C1329 C 0.78972 0.37995 0.98358 0.0
C1330 C 0.78801 0.35982 0.94735 0.0
C1331 C 0.79934 0.40324 0.90213 0.0
H1332 H 0.77303 0.36732 0.8676 0.0
C1333 C 0.799 0.40429 0.80667 0.0
C1334 C 0.78675 0.40472 0.79612 0.0
C1335 C 0.79979 0.40152 0.82957 0.0
C1336 C 0.78037 0.37767 0.87703 0.0
H1337 H 0.79319 0.42156 0.98279 0.0
H1338 H 0.7939 0.42489 0.94305 0.0
H1339 H 0.77384 0.36087 0.90741 0.0
H1340 H 0.76573 0.4044 0.80129 0.0
H1341 H 0.76708 0.40043 0.84133 0.0
H1342 H 0.80558 0.42078 0.8719 0.0
C1343 C 0.79241 0.40591 0.95035 0.0
C1344 C 0.78097 0.37364 0.89981 0.0
C1345 C 0.79203 0.40396 0.97326 0.0
C1346 C 0.77531 0.40397 0.80899 0.0
C1347 C 0.77609 0.40132 0.83189 0.0
C1348 C 0.79872 0.40736 0.87938 0.0
C1349 C 0.79041 0.38391 0.93708 0.0
C1350 C 0.79037 0.38659 0.91266 0.0
C1351 C 0.78834 0.39944 0.8424 0.0
C1352 C 0.78915 0.39481 0.86657 0.0
H1353 H 0.78561 0.33923 0.97795 0.0
H1354 H 0.78647 0.34247 0.93758 0.0
H1355 H 0.80683 0.41326 0.9115 0.0
H1356 H 0.80798 0.40552 0.7972 0.0
H1357 H 0.80939 0.40017 0.8371 0.0
C1358 C 0.4833 0.88036 0.97598 0.0
C1359 C 0.48766 0.90334 0.98609 0.0
C1360 C 0.48296 0.87813 0.95312 0.0
C1361 C 0.49761 0.90591 0.90277 0.0
H1362 H 0.47057 0.86523 0.8739 0.0
C1363 C 0.49041 0.90283 0.80892 0.0
C1364 C 0.48919 0.87829 0.79903 0.0
C1365 C 0.49031 0.90544 0.83175 0.0
C1366 C 0.47824 0.87638 0.88183 0.0
H1367 H 0.49522 0.94197 0.98018 0.0
H1368 H 0.49424 0.9385 0.93985 0.0
H1369 H 0.4693 0.87292 0.9136 0.0
H1370 H 0.48721 0.83706 0.80513 0.0
H1371 H 0.48669 0.84164 0.84563 0.0
H1372 H 0.50628 0.90994 0.87075 0.0
C1373 C 0.49119 0.92205 0.94974 0.0
C1374 C 0.47753 0.88084 0.90453 0.0
C1375 C 0.49165 0.92417 0.97277 0.0
C1376 C 0.48804 0.8562 0.81244 0.0
C1377 C 0.48772 0.85883 0.83546 0.0
C1378 C 0.4982 0.90174 0.88004 0.0
C1379 C 0.48697 0.89884 0.93966 0.0
C1380 C 0.48726 0.89552 0.91531 0.0
C1381 C 0.48891 0.88353 0.84523 0.0
C1382 C 0.48855 0.88685 0.86942 0.0
H1383 H 0.48056 0.86357 0.98561 0.0
H1384 H 0.47999 0.85972 0.94604 0.0
H1385 H 0.5054 0.91685 0.91055 0.0
H1386 H 0.49145 0.92012 0.799 0.0
H1387 H 0.49115 0.92469 0.83887 0.0
C1388 C 0.77577 0.87013 0.47228 0.0
C1389 C 0.78748 0.86796 0.4843 0.0
C1390 C 0.77607 0.87385 0.44947 0.0
C1391 C 0.79716 0.86973 0.39982 0.0
H1392 H 0.77361 0.92299 0.37777 0.0
C1393 C 0.79973 0.90625 0.30989 0.0
C1394 C 0.78765 0.90758 0.29883 0.0
C1395 C 0.80014 0.90291 0.33278 0.0
C1396 C 0.78018 0.90796 0.38364 0.0
H1397 H 0.80863 0.86552 0.48169 0.0
H1398 H 0.80921 0.87248 0.4418 0.0
H1399 H 0.77335 0.91185 0.41684 0.0
H1400 H 0.76656 0.90812 0.30314 0.0
H1401 H 0.76725 0.90249 0.34305 0.0
H1402 H 0.80396 0.86585 0.36653 0.0
C1403 C 0.79978 0.87151 0.45002 0.0
C1404 C 0.78 0.90149 0.40601 0.0
C1405 C 0.79947 0.86775 0.47287 0.0
C1406 C 0.77601 0.90718 0.31122 0.0
C1407 C 0.77641 0.90393 0.33409 0.0
C1408 C 0.79734 0.87623 0.37741 0.0
C1409 C 0.78809 0.87536 0.43816 0.0
C1410 C 0.78841 0.88215 0.41434 0.0
C1411 C 0.78847 0.90114 0.34506 0.0
C1412 C 0.78879 0.8953 0.36905 0.0
H1413 H 0.76637 0.87024 0.48064 0.0
H1414 H 0.76688 0.87612 0.44074 0.0
H1415 H 0.80368 0.85462 0.40568 0.0
H1416 H 0.80886 0.90728 0.30082 0.0
H1417 H 0.80958 0.90143 0.34084 0.0
C1418 C 0.48431 0.40097 0.30853 0.0
C1419 C 0.48672 0.37706 0.2981 0.0
C1420 C 0.48415 0.40288 0.33141 0.0
C1421 C 0.49553 0.36929 0.38172 0.0
H1422 H 0.47206 0.41827 0.4104 0.0
C1423 C 0.48712 0.37287 0.47533 0.0
C1424 C 0.4886 0.39716 0.48562 0.0
C1425 C 0.48685 0.37085 0.45246 0.0
C1426 C 0.47873 0.40473 0.40252 0.0
H1427 H 0.49102 0.33638 0.30345 0.0
H1428 H 0.49024 0.33936 0.34382 0.0
H1429 H 0.47079 0.41204 0.37054 0.0
H1430 H 0.49117 0.43839 0.48006 0.0
H1431 H 0.49032 0.43494 0.43954 0.0
H1432 H 0.5031 0.36142 0.41401 0.0
C1433 C 0.48865 0.3568 0.33418 0.0
C1434 C 0.47804 0.40113 0.37972 0.0
C1435 C 0.48899 0.35499 0.31111 0.0
C1436 C 0.48986 0.41949 0.4725 0.0
C1437 C 0.48937 0.41752 0.44945 0.0
C1438 C 0.49606 0.3726 0.40456 0.0
C1439 C 0.4863 0.38087 0.34458 0.0
C1440 C 0.48651 0.38351 0.369 0.0
C1441 C 0.48798 0.39309 0.43932 0.0
C1442 C 0.48772 0.39044 0.4151 0.0
H1443 H 0.48288 0.41854 0.29911 0.0
H1444 H 0.48269 0.42188 0.33871 0.0
H1445 H 0.50237 0.35595 0.37403 0.0
H1446 H 0.48633 0.35522 0.48484 0.0
H1447 H 0.48569 0.35184 0.44501 0.0
C1448 C 0.25432 0.63299 0.22363 0.0
C1449 C 0.24355 0.62243 0.23494 0.0
C1450 C 0.25361 0.63754 0.20094 0.0
C1451 C 0.24387 0.66181 0.15727 0.0
H1452 H 0.23535 0.60607 0.11679 0.0
C1453 C 0.23094 0.64121 0.05906 0.0
C1454 C 0.23985 0.65828 0.0489 0.0
C1455 C 0.2305 0.63875 0.08196 0.0
C1456 C 0.23746 0.62207 0.12781 0.0
H1457 H 0.2238 0.60765 0.23166 0.0
H1458 H 0.22274 0.61465 0.19158 0.0
H1459 H 0.23621 0.59738 0.15623 0.0
H1460 H 0.25545 0.68586 0.05502 0.0
H1461 H 0.25515 0.68068 0.09502 0.0
H1462 H 0.24474 0.68679 0.1291 0.0
C1463 C 0.23163 0.61969 0.20036 0.0
C1464 C 0.23805 0.61695 0.15041 0.0
C1465 C 0.23223 0.61564 0.22316 0.0
C1466 C 0.24829 0.67291 0.06234 0.0
C1467 C 0.24807 0.67 0.08532 0.0
C1468 C 0.24302 0.6671 0.13468 0.0
C1469 C 0.24223 0.63111 0.18916 0.0
C1470 C 0.24135 0.63671 0.1653 0.0
C1471 C 0.23932 0.65247 0.0954 0.0
C1472 C 0.23985 0.64727 0.1196 0.0
H1473 H 0.26307 0.6387 0.23249 0.0
H1474 H 0.26193 0.64621 0.1926 0.0
H1475 H 0.24632 0.67742 0.16854 0.0
H1476 H 0.22474 0.62848 0.04951 0.0
H1477 H 0.22345 0.62541 0.08903 0.0
C1478 C 0.52233 0.13778 0.05848 0.0
C1479 C 0.53264 0.12496 0.0477 0.0
C1480 C 0.52274 0.1418 0.08127 0.0
C1481 C 0.54609 0.14116 0.12888 0.0
H1482 H 0.51396 0.1438 0.16314 0.0
C1483 C 0.54184 0.13067 0.22388 0.0
C1484 C 0.53613 0.15189 0.23499 0.0
C1485 C 0.54186 0.12947 0.20088 0.0
C1486 C 0.52297 0.14337 0.15367 0.0
H1487 H 0.55131 0.10575 0.05197 0.0
H1488 H 0.55174 0.11113 0.09204 0.0
H1489 H 0.51289 0.13549 0.12356 0.0
H1490 H 0.52529 0.18775 0.23051 0.0
H1491 H 0.52487 0.18502 0.19001 0.0
H1492 H 0.55611 0.14753 0.15955 0.0
C1493 C 0.54352 0.11905 0.08296 0.0
C1494 C 0.52241 0.1387 0.13095 0.0
C1495 C 0.54323 0.11559 0.06006 0.0
C1496 C 0.53002 0.17145 0.22245 0.0
C1497 C 0.52975 0.16991 0.19936 0.0
C1498 C 0.54664 0.14523 0.15168 0.0
C1499 C 0.53338 0.1326 0.09389 0.0
C1500 C 0.53396 0.1375 0.11819 0.0
C1501 C 0.53574 0.14893 0.18845 0.0
C1502 C 0.5351 0.14638 0.16421 0.0
H1503 H 0.51419 0.14564 0.04913 0.0
H1504 H 0.51488 0.1528 0.08881 0.0
H1505 H 0.55519 0.14105 0.1197 0.0
H1506 H 0.54586 0.11432 0.23279 0.0
H1507 H 0.54624 0.1128 0.19279 0.0
C1508 C 0.23709 0.16677 0.56195 0.0
C1509 C 0.2364 0.1443 0.54887 0.0
C1510 C 0.23664 0.16485 0.58501 0.0
C1511 C 0.24443 0.12062 0.62999 0.0
H1512 H 0.21901 0.1594 0.66437 0.0
C1513 C 0.23864 0.10454 0.72394 0.0
C1514 C 0.2363 0.12678 0.73674 0.0
C1515 C 0.23797 0.10585 0.70087 0.0
C1516 C 0.22629 0.14867 0.65507 0.0
H1517 H 0.23523 0.1022 0.54972 0.0
H1518 H 0.23465 0.0989 0.58961 0.0
H1519 H 0.21978 0.16494 0.62439 0.0
H1520 H 0.23203 0.16807 0.73533 0.0
H1521 H 0.23119 0.17054 0.69565 0.0
H1522 H 0.25126 0.10488 0.66052 0.0
C1523 C 0.23531 0.11797 0.58212 0.0
C1524 C 0.2267 0.15187 0.6322 0.0
C1525 C 0.23554 0.11993 0.55922 0.0
C1526 C 0.23349 0.15036 0.72608 0.0
C1527 C 0.23297 0.15178 0.70318 0.0
C1528 C 0.24417 0.11771 0.65289 0.0
C1529 C 0.23587 0.14036 0.59522 0.0
C1530 C 0.23575 0.13783 0.61949 0.0
C1531 C 0.23521 0.12959 0.69022 0.0
C1532 C 0.2351 0.13172 0.66574 0.0
H1533 H 0.23792 0.18575 0.55434 0.0
H1534 H 0.23717 0.18239 0.59486 0.0
H1535 H 0.25154 0.10968 0.62048 0.0
H1536 H 0.24099 0.08619 0.73177 0.0
H1537 H 0.23964 0.0883 0.69141 0.0
C1538 C 0.54467 0.63675 0.55932 0.0
C1539 C 0.53623 0.61938 0.54837 0.0
C1540 C 0.54497 0.63789 0.58233 0.0
C1541 C 0.54734 0.62459 0.63198 0.0
H1542 H 0.51426 0.64368 0.65907 0.0
C1543 C 0.52294 0.64047 0.7244 0.0
C1544 C 0.53383 0.65109 0.73521 0.0
C1545 C 0.52329 0.63584 0.70169 0.0
C1546 C 0.52355 0.63787 0.65197 0.0
H1547 H 0.52122 0.59014 0.5532 0.0
H1548 H 0.52145 0.59287 0.59363 0.0
H1549 H 0.5151 0.634 0.61973 0.0
H1550 H 0.55348 0.66597 0.73095 0.0
H1551 H 0.55392 0.65941 0.691 0.0
H1552 H 0.55582 0.62765 0.66409 0.0
C1553 C 0.5281 0.60496 0.58419 0.0
C1554 C 0.524 0.6324 0.62938 0.0
C1555 C 0.52801 0.60336 0.56111 0.0
C1556 C 0.54496 0.65777 0.72288 0.0
C1557 C 0.54523 0.65366 0.70005 0.0
C1558 C 0.54686 0.62952 0.65467 0.0
C1559 C 0.53653 0.62239 0.59495 0.0
C1560 C 0.53592 0.62596 0.61916 0.0
C1561 C 0.53448 0.64221 0.68916 0.0
C1562 C 0.53498 0.63653 0.66498 0.0
H1563 H 0.55054 0.65061 0.5503 0.0
H1564 H 0.55134 0.65192 0.59025 0.0
H1565 H 0.55665 0.6196 0.62442 0.0
H1566 H 0.51433 0.6347 0.73369 0.0
H1567 H 0.51491 0.62653 0.69415 0.0
C1568 C 0.34228 0.34465 0.20267 0.0
C1569 C 0.33243 0.36326 0.2066 0.0
C1570 C 0.35555 0.35158 0.20351 0.0
C1571 C 0.37773 0.40504 0.19396 0.0
H1572 H 0.40232 0.36833 0.23146 0.0
C1573 C 0.43198 0.43725 0.19938 0.0
C1574 C 0.44164 0.4183 0.20318 0.0
C1575 C 0.41864 0.43098 0.20084 0.0
C1576 C 0.3957 0.37856 0.22054 0.0
H1577 H 0.32882 0.40375 0.21447 0.0
H1578 H 0.35204 0.41599 0.21517 0.0
H1579 H 0.37922 0.35617 0.23174 0.0
H1580 H 0.44487 0.3778 0.21127 0.0
H1581 H 0.42175 0.36646 0.21265 0.0
H1582 H 0.39409 0.42659 0.18181 0.0
C1583 C 0.34943 0.39599 0.21175 0.0
C1584 C 0.38241 0.37166 0.22089 0.0
C1585 C 0.33616 0.38895 0.21143 0.0
C1586 C 0.43766 0.39291 0.20841 0.0
C1587 C 0.42433 0.38647 0.20937 0.0
C1588 C 0.39105 0.41157 0.19321 0.0
C1589 C 0.35924 0.37737 0.20779 0.0
C1590 C 0.3733 0.38489 0.20766 0.0
C1591 C 0.41457 0.40541 0.20564 0.0
C1592 C 0.40028 0.39849 0.20653 0.0
H1593 H 0.33974 0.32469 0.19898 0.0
H1594 H 0.36292 0.33688 0.20032 0.0
H1595 H 0.37092 0.41536 0.18341 0.0
H1596 H 0.43471 0.45708 0.19554 0.0
H1597 H 0.41156 0.44637 0.19838 0.0
C1598 C 0.93344 0.93391 0.19835 0.0
C1599 C 0.94319 0.91513 0.20233 0.0
C1600 C 0.92013 0.92726 0.19936 0.0
C1601 C 0.89754 0.87405 0.19101 0.0
H1602 H 0.87366 0.91137 0.22945 0.0
C1603 C 0.84345 0.84196 0.19991 0.0
C1604 C 0.83386 0.86102 0.20392 0.0
C1605 C 0.8568 0.84823 0.20057 0.0
C1606 C 0.88008 0.90098 0.21828 0.0
H1607 H 0.94658 0.87459 0.21031 0.0
H1608 H 0.92333 0.86285 0.2113 0.0
H1609 H 0.89676 0.92344 0.22839 0.0
H1610 H 0.83079 0.90171 0.21154 0.0
H1611 H 0.85392 0.91301 0.21156 0.0
H1612 H 0.88096 0.85236 0.17999 0.0
C1613 C 0.92603 0.88276 0.20771 0.0
C1614 C 0.89336 0.90784 0.21784 0.0
C1615 C 0.93932 0.88953 0.20722 0.0
C1616 C 0.83794 0.88651 0.20856 0.0
C1617 C 0.85127 0.89293 0.20873 0.0
C1618 C 0.88421 0.86755 0.19105 0.0
C1619 C 0.91631 0.90158 0.20385 0.0
C1620 C 0.90222 0.89437 0.20428 0.0
C1621 C 0.86095 0.8739 0.20476 0.0
C1622 C 0.87524 0.88084 0.20475 0.0
H1623 H 0.93608 0.95382 0.19463 0.0
H1624 H 0.91282 0.9421 0.19624 0.0
H1625 H 0.90417 0.86353 0.18023 0.0
H1626 H 0.84063 0.82207 0.1965 0.0
H1627 H 0.86384 0.83279 0.19795 0.0
C1628 C 0.33768 0.89189 0.07542 0.0
C1629 C 0.33383 0.9175 0.08039 0.0
C1630 C 0.35096 0.88496 0.07519 0.0
C1631 C 0.38382 0.90943 0.06609 0.0
H1632 H 0.39561 0.85388 0.10446 0.0
C1633 C 0.43907 0.88689 0.07677 0.0
C1634 C 0.44298 0.86133 0.08159 0.0
C1635 C 0.42577 0.89365 0.07633 0.0
C1636 C 0.39254 0.86909 0.09326 0.0
H1637 H 0.34095 0.95604 0.08844 0.0
H1638 H 0.3642 0.94404 0.08723 0.0
H1639 H 0.37245 0.86546 0.10346 0.0
H1640 H 0.43597 0.82261 0.08909 0.0
H1641 H 0.41283 0.8339 0.08717 0.0
H1642 H 0.40365 0.91255 0.05507 0.0
C1643 C 0.35688 0.92933 0.08387 0.0
C1644 C 0.37923 0.87582 0.09286 0.0
C1645 C 0.34359 0.93614 0.08463 0.0
C1646 C 0.43328 0.84255 0.08556 0.0
C1647 C 0.41996 0.84915 0.08462 0.0
C1648 C 0.39708 0.90232 0.06608 0.0
C1649 C 0.36069 0.90361 0.07938 0.0
C1650 C 0.37476 0.89616 0.0794 0.0
C1651 C 0.41597 0.87488 0.0802 0.0
C1652 C 0.4017 0.88214 0.0798 0.0
H1653 H 0.33041 0.87705 0.07215 0.0
H1654 H 0.35365 0.86502 0.07159 0.0
H1655 H 0.38059 0.92505 0.0554 0.0
H1656 H 0.44632 0.90187 0.07381 0.0
H1657 H 0.42324 0.91377 0.07334 0.0
C1658 C 0.93281 0.3408 0.08754 0.0
C1659 C 0.9427 0.35918 0.08333 0.0
C1660 C 0.91956 0.34797 0.0867 0.0
C1661 C 0.89747 0.40208 0.09528 0.0
H1662 H 0.87313 0.36597 0.05701 0.0
C1663 C 0.8437 0.4368 0.0868 0.0
C1664 C 0.83391 0.41827 0.08261 0.0
C1665 C 0.85699 0.42986 0.08617 0.0
C1666 C 0.87967 0.37603 0.06815 0.0
H1667 H 0.94641 0.39952 0.07508 0.0
H1668 H 0.92326 0.41216 0.07439 0.0
H1669 H 0.89609 0.35281 0.05785 0.0
H1670 H 0.83041 0.37779 0.07478 0.0
H1671 H 0.85339 0.36532 0.07485 0.0
H1672 H 0.88115 0.42453 0.10649 0.0
C1673 C 0.9258 0.39217 0.07803 0.0
C1674 C 0.89288 0.36854 0.06846 0.0
C1675 C 0.93904 0.38488 0.07834 0.0
C1676 C 0.83771 0.39261 0.0779 0.0
C1677 C 0.85097 0.38551 0.07777 0.0
C1678 C 0.88422 0.40921 0.09538 0.0
C1679 C 0.91594 0.37377 0.08215 0.0
C1680 C 0.90191 0.38157 0.08194 0.0
C1681 C 0.86086 0.40403 0.08184 0.0
C1682 C 0.87508 0.39638 0.08174 0.0
H1683 H 0.9353 0.32083 0.09135 0.0
H1684 H 0.91213 0.33345 0.09001 0.0
H1685 H 0.90423 0.41228 0.10599 0.0
H1686 H 0.8411 0.45681 0.09027 0.0
H1687 H 0.86419 0.44493 0.08888 0.0
C1688 C 0.68338 0.68663 0.83303 0.0
C1689 C 0.69311 0.6677 0.82961 0.0
C1690 C 0.67007 0.68014 0.8318 0.0
C1691 C 0.64724 0.62683 0.81356 0.0
H1692 H 0.62246 0.6646 0.85009 0.0
C1693 C 0.59377 0.59342 0.83224 0.0
C1694 C 0.58395 0.612 0.82809 0.0
C1695 C 0.60705 0.60025 0.83123 0.0
C1696 C 0.62928 0.654 0.83971 0.0
H1697 H 0.69648 0.62701 0.82241 0.0
H1698 H 0.67338 0.61531 0.82142 0.0
H1699 H 0.64561 0.67603 0.85124 0.0
H1700 H 0.5804 0.65235 0.81965 0.0
H1701 H 0.60362 0.66444 0.81863 0.0
H1702 H 0.63078 0.60401 0.80299 0.0
C1703 C 0.67591 0.63546 0.82423 0.0
C1704 C 0.64258 0.66064 0.8402 0.0
C1705 C 0.68922 0.6421 0.82496 0.0
C1706 C 0.58772 0.63756 0.82287 0.0
C1707 C 0.60099 0.64453 0.82237 0.0
C1708 C 0.63397 0.61984 0.81348 0.0
C1709 C 0.66608 0.65437 0.82762 0.0
C1710 C 0.65181 0.64724 0.82706 0.0
C1711 C 0.61079 0.62594 0.82654 0.0
C1712 C 0.62485 0.63342 0.82648 0.0
H1713 H 0.68605 0.70661 0.83641 0.0
H1714 H 0.66293 0.69551 0.83396 0.0
H1715 H 0.65386 0.61632 0.80281 0.0
H1716 H 0.59121 0.57355 0.83623 0.0
H1717 H 0.61441 0.58559 0.83459 0.0
C1718 C 0.09321 0.09479 0.83568 0.0
C1719 C 0.08346 0.11346 0.83156 0.0
C1720 C 0.1065 0.10163 0.83528 0.0
C1721 C 0.12936 0.15538 0.81813 0.0
H1722 H 0.15362 0.11818 0.85594 0.0
C1723 C 0.18283 0.18851 0.83792 0.0
C1724 C 0.19252 0.16978 0.83337 0.0
C1725 C 0.1695 0.18194 0.83713 0.0
C1726 C 0.14694 0.12866 0.84526 0.0
H1727 H 0.08001 0.15404 0.82401 0.0
H1728 H 0.10302 0.16632 0.82446 0.0
H1729 H 0.13048 0.10649 0.85614 0.0
H1730 H 0.19579 0.12941 0.82461 0.0
H1731 H 0.17253 0.1178 0.82401 0.0
H1732 H 0.14594 0.17828 0.80815 0.0
C1733 C 0.10056 0.14612 0.82718 0.0
C1734 C 0.13366 0.12185 0.84518 0.0
C1735 C 0.08729 0.13914 0.82708 0.0
C1736 C 0.18858 0.14431 0.82814 0.0
C1737 C 0.17528 0.13762 0.82788 0.0
C1738 C 0.14261 0.16255 0.81863 0.0
C1739 C 0.11041 0.12748 0.83126 0.0
C1740 C 0.12463 0.13497 0.83149 0.0
C1741 C 0.16562 0.15637 0.83231 0.0
C1742 C 0.15153 0.14915 0.83208 0.0
H1743 H 0.09059 0.07477 0.83896 0.0
H1744 H 0.11368 0.08645 0.83795 0.0
H1745 H 0.12291 0.16568 0.80699 0.0
H1746 H 0.18554 0.20831 0.84192 0.0
H1747 H 0.16222 0.19672 0.84067 0.0
C1748 C 0.58732 0.14087 0.96117 0.0
C1749 C 0.58331 0.16633 0.9562 0.0
C1750 C 0.60067 0.1344 0.96189 0.0
C1751 C 0.63378 0.15977 0.94506 0.0
H1752 H 0.64613 0.10381 0.98255 0.0
C1753 C 0.68885 0.13808 0.96179 0.0
C1754 C 0.69279 0.11257 0.95663 0.0
C1755 C 0.67553 0.14472 0.96245 0.0
C1756 C 0.64278 0.11945 0.97198 0.0
H1757 H 0.5902 0.20521 0.94894 0.0
H1758 H 0.61335 0.19444 0.95138 0.0
H1759 H 0.62297 0.11574 0.98303 0.0
H1760 H 0.68578 0.07389 0.94875 0.0
H1761 H 0.66249 0.08539 0.95067 0.0
H1762 H 0.65381 0.16395 0.93477 0.0
C1763 C 0.60629 0.17902 0.95377 0.0
C1764 C 0.62947 0.12623 0.97208 0.0
C1765 C 0.59296 0.18533 0.95255 0.0
C1766 C 0.68308 0.09373 0.95269 0.0
C1767 C 0.66976 0.10025 0.95387 0.0
C1768 C 0.64712 0.15336 0.94537 0.0
C1769 C 0.6104 0.15336 0.95815 0.0
C1770 C 0.62471 0.14641 0.9585 0.0
C1771 C 0.66586 0.12587 0.9585 0.0
C1772 C 0.65174 0.13304 0.95871 0.0
H1773 H 0.58013 0.12573 0.96391 0.0
H1774 H 0.60329 0.11433 0.9649 0.0
H1775 H 0.6306 0.17496 0.93393 0.0
H1776 H 0.69608 0.15306 0.96485 0.0
H1777 H 0.67278 0.16459 0.96614 0.0
C1778 C 0.09351 0.68803 0.94619 0.0
C1779 C 0.08379 0.66916 0.94968 0.0
C1780 C 0.10682 0.68149 0.94745 0.0
C1781 C 0.12958 0.62831 0.96627 0.0
H1782 H 0.15454 0.66576 0.92995 0.0
C1783 C 0.18344 0.59536 0.94976 0.0
C1784 C 0.19307 0.6142 0.95424 0.0
C1785 C 0.17011 0.60195 0.95003 0.0
C1786 C 0.14767 0.65523 0.94025 0.0
H1787 H 0.08044 0.62848 0.95695 0.0
H1788 H 0.10352 0.61671 0.958 0.0
H1789 H 0.13136 0.67708 0.92824 0.0
H1790 H 0.19621 0.65477 0.96236 0.0
H1791 H 0.17292 0.66639 0.96211 0.0
H1792 H 0.14601 0.6057 0.97739 0.0
C1793 C 0.10099 0.63686 0.95512 0.0
C1794 C 0.13435 0.66182 0.93944 0.0
C1795 C 0.08768 0.64355 0.95435 0.0
C1796 C 0.18905 0.63978 0.95894 0.0
C1797 C 0.17574 0.64648 0.9587 0.0
C1798 C 0.14286 0.62136 0.96667 0.0
C1799 C 0.1108 0.65573 0.95174 0.0
C1800 C 0.12507 0.64856 0.95253 0.0
C1801 C 0.16614 0.62763 0.95427 0.0
C1802 C 0.15204 0.63484 0.95376 0.0
H1803 H 0.09083 0.70801 0.94277 0.0
H1804 H 0.11396 0.69682 0.94526 0.0
H1805 H 0.12291 0.61792 0.97699 0.0
H1806 H 0.18622 0.57548 0.94614 0.0
H1807 H 0.1629 0.58709 0.94649 0.0
C1808 C 0.43954 0.89089 0.70862 0.0
C1809 C 0.4433 0.91646 0.70339 0.0
C1810 C 0.42628 0.88383 0.7089 0.0
C1811 C 0.39332 0.90816 0.71767 0.0
H1812 H 0.38171 0.85239 0.67942 0.0
C1813 C 0.33811 0.88573 0.70646 0.0
C1814 C 0.33423 0.86016 0.70167 0.0
C1815 C 0.35141 0.89245 0.70703 0.0
C1816 C 0.38473 0.86766 0.69059 0.0
H1817 H 0.43603 0.95482 0.69499 0.0
H1818 H 0.41283 0.94263 0.6963 0.0
H1819 H 0.40485 0.86393 0.68061 0.0
H1820 H 0.3413 0.82139 0.69438 0.0
H1821 H 0.36442 0.8326 0.69653 0.0
H1822 H 0.37344 0.91141 0.72846 0.0
C1823 C 0.4202 0.92803 0.69981 0.0
C1824 C 0.39803 0.87436 0.6911 0.0
C1825 C 0.43347 0.93495 0.69899 0.0
C1826 C 0.34396 0.84134 0.69788 0.0
C1827 C 0.35727 0.8479 0.69895 0.0
C1828 C 0.38006 0.90109 0.71757 0.0
C1829 C 0.41649 0.90234 0.70453 0.0
C1830 C 0.40243 0.8948 0.70451 0.0
C1831 C 0.36124 0.87363 0.70334 0.0
C1832 C 0.3755 0.88083 0.70388 0.0
H1833 H 0.44687 0.87617 0.71202 0.0
H1834 H 0.42366 0.86392 0.71267 0.0
H1835 H 0.3965 0.92387 0.7283 0.0
H1836 H 0.33085 0.90075 0.7093 0.0
H1837 H 0.35392 0.91257 0.70999 0.0
C1838 C 0.93198 0.43691 0.69719 0.0
C1839 C 0.94192 0.41866 0.70157 0.0
C1840 C 0.91875 0.42973 0.69826 0.0
C1841 C 0.89681 0.37552 0.69033 0.0
H1842 H 0.8723 0.4122 0.7281 0.0
C1843 C 0.84299 0.34129 0.69836 0.0
C1844 C 0.83318 0.35995 0.70218 0.0
C1845 C 0.85627 0.34812 0.69923 0.0
C1846 C 0.87889 0.40197 0.7171 0.0
H1847 H 0.94574 0.37851 0.71039 0.0
H1848 H 0.92261 0.36581 0.71147 0.0
H1849 H 0.89527 0.42525 0.72731 0.0
H1850 H 0.82964 0.40052 0.70969 0.0
H1851 H 0.85264 0.41279 0.71006 0.0
H1852 H 0.88053 0.35304 0.67917 0.0
C1853 C 0.92511 0.38574 0.70753 0.0
C1854 C 0.8921 0.4094 0.71683 0.0
C1855 C 0.93833 0.39305 0.707 0.0
C1856 C 0.83696 0.38561 0.70685 0.0
C1857 C 0.85023 0.39259 0.70722 0.0
C1858 C 0.88355 0.36846 0.69019 0.0
C1859 C 0.9152 0.40401 0.70321 0.0
C1860 C 0.90119 0.39617 0.70352 0.0
C1861 C 0.86013 0.37397 0.70344 0.0
C1862 C 0.87435 0.3815 0.70364 0.0
H1863 H 0.93442 0.4568 0.69304 0.0
H1864 H 0.91129 0.44416 0.69479 0.0
H1865 H 0.90361 0.36518 0.67974 0.0
H1866 H 0.84041 0.32128 0.69493 0.0
H1867 H 0.86349 0.33296 0.69676 0.0
C1868 C 0.33782 0.3891 0.57448 0.0
C1869 C 0.33378 0.4146 0.57944 0.0
C1870 C 0.35114 0.38254 0.57435 0.0
C1871 C 0.38388 0.40768 0.56555 0.0
H1872 H 0.39577 0.35246 0.60416 0.0
C1873 C 0.43922 0.38516 0.57643 0.0
C1874 C 0.44306 0.35961 0.58145 0.0
C1875 C 0.42592 0.39199 0.57583 0.0
C1876 C 0.39267 0.36757 0.59289 0.0
H1877 H 0.3406 0.45333 0.58757 0.0
H1878 H 0.36394 0.44196 0.58656 0.0
H1879 H 0.37259 0.36375 0.60301 0.0
H1880 H 0.43594 0.32098 0.58901 0.0
H1881 H 0.41286 0.33237 0.58677 0.0
H1882 H 0.40373 0.41097 0.5546 0.0
C1883 C 0.35674 0.42706 0.58312 0.0
C1884 C 0.37935 0.37415 0.59241 0.0
C1885 C 0.34339 0.4335 0.58378 0.0
C1886 C 0.43331 0.34091 0.58534 0.0
C1887 C 0.42001 0.34758 0.58424 0.0
C1888 C 0.39717 0.40073 0.56561 0.0
C1889 C 0.36073 0.40145 0.57864 0.0
C1890 C 0.37484 0.39434 0.57883 0.0
C1891 C 0.41607 0.37332 0.57974 0.0
C1892 C 0.40182 0.38061 0.57937 0.0
H1893 H 0.33066 0.37407 0.57115 0.0
H1894 H 0.35398 0.36268 0.57077 0.0
H1895 H 0.38061 0.42321 0.55479 0.0
H1896 H 0.4465 0.40006 0.5735 0.0
H1897 H 0.42342 0.41211 0.57273 0.0
C1898 C 0.83896 0.89055 0.57145 0.0
C1899 C 0.8348 0.91593 0.57654 0.0
C1900 C 0.85233 0.88433 0.57089 0.0
C1901 C 0.88489 0.91052 0.56142 0.0
H1902 H 0.89736 0.85507 0.59925 0.0
C1903 C 0.94048 0.88929 0.57154 0.0
C1904 C 0.94449 0.8638 0.57639 0.0
C1905 C 0.92712 0.89578 0.57099 0.0
C1906 C 0.8941 0.87025 0.58818 0.0
H1907 H 0.84147 0.95485 0.5844 0.0
H1908 H 0.86486 0.9441 0.58265 0.0
H1909 H 0.87412 0.86574 0.59859 0.0
H1910 H 0.93761 0.82488 0.58355 0.0
H1911 H 0.91447 0.83568 0.58138 0.0
H1912 H 0.90467 0.91453 0.55023 0.0
C1913 C 0.85772 0.929 0.57944 0.0
C1914 C 0.88074 0.87647 0.58799 0.0
C1915 C 0.84434 0.9351 0.58053 0.0
C1916 C 0.93485 0.84479 0.58004 0.0
C1917 C 0.92152 0.85112 0.57898 0.0
C1918 C 0.89823 0.90393 0.56121 0.0
C1919 C 0.86184 0.90349 0.57486 0.0
C1920 C 0.87601 0.89674 0.5747 0.0
C1921 C 0.9174 0.87681 0.57478 0.0
C1922 C 0.90309 0.88374 0.57467 0.0
H1923 H 0.83187 0.87532 0.56835 0.0
H1924 H 0.85525 0.86455 0.56723 0.0
H1925 H 0.88146 0.92613 0.55089 0.0
H1926 H 0.94767 0.90443 0.56879 0.0
H1927 H 0.92449 0.91586 0.56807 0.0
C1928 C 0.58735 0.13729 0.3266 0.0
C1929 C 0.58357 0.1116 0.33113 0.0
C1930 C 0.60063 0.14427 0.32634 0.0
C1931 C 0.63383 0.11983 0.34352 0.0
H1932 H 0.64597 0.17602 0.30609 0.0
C1933 C 0.68865 0.14099 0.32505 0.0
C1934 C 0.6928 0.16639 0.33 0.0
C1935 C 0.67531 0.13466 0.32513 0.0
C1936 C 0.64268 0.16037 0.31668 0.0
H1937 H 0.59077 0.07286 0.33817 0.0
H1938 H 0.61383 0.08453 0.33654 0.0
H1939 H 0.62287 0.16377 0.3056 0.0
H1940 H 0.68616 0.20519 0.33843 0.0
H1941 H 0.66276 0.19423 0.33781 0.0
H1942 H 0.65387 0.11588 0.35375 0.0
C1943 C 0.60663 0.09973 0.33413 0.0
C1944 C 0.6294 0.15339 0.31656 0.0
C1945 C 0.59336 0.09291 0.33489 0.0
C1946 C 0.68328 0.18544 0.33463 0.0
C1947 C 0.6699 0.17922 0.3342 0.0
C1948 C 0.64714 0.12645 0.34324 0.0
C1949 C 0.61051 0.1256 0.33011 0.0
C1950 C 0.62473 0.13303 0.33004 0.0
C1951 C 0.66581 0.15371 0.32965 0.0
C1952 C 0.65168 0.14682 0.32989 0.0
H1953 H 0.58004 0.1522 0.32379 0.0
H1954 H 0.60307 0.16447 0.3236 0.0
H1955 H 0.63071 0.10453 0.35458 0.0
H1956 H 0.69573 0.12584 0.32151 0.0
H1957 H 0.67239 0.11488 0.32149 0.0
C1958 C 0.18439 0.68213 0.33177 0.0
C1959 C 0.19417 0.66335 0.3282 0.0
C1960 C 0.17111 0.67533 0.33119 0.0
C1961 C 0.14823 0.62129 0.31487 0.0
H1962 H 0.12404 0.65926 0.35236 0.0
C1963 C 0.0949 0.58823 0.33564 0.0
C1964 C 0.08511 0.60695 0.33166 0.0
C1965 C 0.1082 0.59489 0.33432 0.0
C1966 C 0.13069 0.64858 0.34174 0.0
H1967 H 0.19767 0.62263 0.32128 0.0
H1968 H 0.17462 0.61042 0.32136 0.0
H1969 H 0.14716 0.67093 0.35219 0.0
H1970 H 0.08166 0.64736 0.32329 0.0
H1971 H 0.10489 0.6591 0.32173 0.0
H1972 H 0.13164 0.5982 0.30534 0.0
C1973 C 0.17708 0.63066 0.32384 0.0
C1974 C 0.14397 0.65537 0.34145 0.0
C1975 C 0.19036 0.63761 0.32393 0.0
C1976 C 0.08894 0.63247 0.3264 0.0
C1977 C 0.10223 0.63924 0.32558 0.0
C1978 C 0.13498 0.61415 0.31556 0.0
C1979 C 0.16721 0.6494 0.32753 0.0
C1980 C 0.15298 0.64196 0.3279 0.0
C1981 C 0.11198 0.62051 0.3295 0.0
C1982 C 0.12607 0.62783 0.32889 0.0
H1983 H 0.18699 0.70221 0.33486 0.0
H1984 H 0.16392 0.69057 0.33351 0.0
H1985 H 0.15468 0.61073 0.30386 0.0
H1986 H 0.09228 0.56839 0.33965 0.0
H1987 H 0.11554 0.58011 0.33749 0.0
C1988 C 0.68293 0.59006 0.44725 0.0
C1989 C 0.69261 0.6088 0.45145 0.0
C1990 C 0.66961 0.59666 0.44808 0.0
C1991 C 0.64667 0.64974 0.4668 0.0
H1992 H 0.62214 0.6131 0.42919 0.0
C1993 C 0.59303 0.68319 0.44874 0.0
C1994 C 0.58338 0.66442 0.45329 0.0
C1995 C 0.60636 0.67656 0.44916 0.0
C1996 C 0.62889 0.62342 0.43982 0.0
H1997 H 0.69589 0.6493 0.45949 0.0
H1998 H 0.67284 0.66119 0.45978 0.0
H1999 H 0.6453 0.60156 0.42816 0.0
H2000 H 0.58019 0.62392 0.46163 0.0
H2001 H 0.60346 0.61224 0.46161 0.0
H2002 H 0.63014 0.67236 0.47757 0.0
C2003 C 0.67537 0.64109 0.4567 0.0
C2004 C 0.6422 0.61669 0.43942 0.0
C2005 C 0.68867 0.63433 0.45637 0.0
C2006 C 0.58737 0.63887 0.45815 0.0
C2007 C 0.60067 0.63212 0.45805 0.0
C2008 C 0.63341 0.65684 0.46679 0.0
C2009 C 0.66559 0.62236 0.45264 0.0
C2010 C 0.65133 0.62964 0.45299 0.0
C2011 C 0.61029 0.65091 0.4536 0.0
C2012 C 0.62439 0.64365 0.4534 0.0
H2013 H 0.68564 0.57015 0.44361 0.0
H2014 H 0.66248 0.58143 0.44537 0.0
H2015 H 0.65321 0.65988 0.4779 0.0
H2016 H 0.59028 0.70304 0.445 0.0
H2017 H 0.61361 0.69137 0.44562 0.0
C2018 C 0.1877 0.13099 0.45789 0.0
C2019 C 0.1916 0.10557 0.45249 0.0
C2020 C 0.1744 0.13768 0.45878 0.0
C2021 C 0.14108 0.11349 0.44205 0.0
H2022 H 0.12934 0.16883 0.48082 0.0
C2023 C 0.08622 0.13711 0.45984 0.0
C2024 C 0.0826 0.16295 0.45529 0.0
C2025 C 0.09946 0.1298 0.46018 0.0
C2026 C 0.13251 0.15336 0.46989 0.0
H2027 H 0.18456 0.06702 0.44448 0.0
H2028 H 0.16142 0.07817 0.44718 0.0
H2029 H 0.15237 0.15611 0.48074 0.0
H2030 H 0.09007 0.20149 0.44817 0.0
H2031 H 0.1132 0.18882 0.44954 0.0
H2032 H 0.12097 0.11028 0.43197 0.0
C2033 C 0.16856 0.09338 0.44984 0.0
C2034 C 0.14576 0.14614 0.46966 0.0
C2035 C 0.18188 0.08686 0.44846 0.0
C2036 C 0.09253 0.18142 0.45164 0.0
C2037 C 0.10576 0.17422 0.4525 0.0
C2038 C 0.12779 0.12034 0.44268 0.0
C2039 C 0.16458 0.11899 0.4548 0.0
C2040 C 0.15031 0.12623 0.45558 0.0
C2041 C 0.10936 0.14829 0.45652 0.0
C2042 C 0.12339 0.14048 0.45646 0.0
H2043 H 0.19495 0.14593 0.46092 0.0
H2044 H 0.17188 0.15772 0.46218 0.0
H2045 H 0.14409 0.0985 0.43059 0.0
H2046 H 0.07882 0.1224 0.46265 0.0
H2047 H 0.10198 0.1097 0.4634 0.0
C2048 C 0.30353 0.0419 0.13554 0.0
C2049 C 0.31193 0.03236 0.11901 0.0
C2050 C 0.30389 0.06813 0.14161 0.0
C2051 C 0.32437 0.12779 0.13722 0.0
H2052 H 0.29144 0.16282 0.1491 0.0
C2053 C 0.30206 0.23851 0.14967 0.0
C2054 C 0.31191 0.24903 0.16317 0.0
C2055 C 0.30237 0.21224 0.14371 0.0
C2056 C 0.30072 0.15343 0.14557 0.0
H2057 H 0.32743 0.04286 0.09612 0.0
H2058 H 0.32787 0.08844 0.10631 0.0
H2059 H 0.29147 0.11666 0.14039 0.0
H2060 H 0.32992 0.24029 0.18071 0.0
H2061 H 0.33032 0.1946 0.17075 0.0
H2062 H 0.33358 0.16472 0.14159 0.0
C2063 C 0.32117 0.07569 0.11495 0.0
C2064 C 0.30076 0.12681 0.14094 0.0
C2065 C 0.32087 0.04949 0.10902 0.0
C2066 C 0.32222 0.23288 0.17017 0.0
C2067 C 0.32247 0.20662 0.16436 0.0
C2068 C 0.32432 0.15443 0.14168 0.0
C2069 C 0.31261 0.08543 0.13118 0.0
C2070 C 0.31259 0.11364 0.13671 0.0
C2071 C 0.31249 0.19587 0.15125 0.0
C2072 C 0.3125 0.16761 0.14595 0.0
H2073 H 0.29654 0.02919 0.14358 0.0
H2074 H 0.29731 0.07486 0.15443 0.0
H2075 H 0.33369 0.11828 0.1343 0.0
H2076 H 0.294 0.25045 0.14396 0.0
H2077 H 0.29465 0.20476 0.13325 0.0
C2078 C 0.95501 0.03884 0.14952 0.0
C2079 C 0.96687 0.02587 0.15378 0.0
C2080 C 0.95488 0.06557 0.14541 0.0
C2081 C 0.97402 0.12444 0.15675 0.0
H2082 H 0.952 0.1557 0.11188 0.0
C2083 C 0.97709 0.23318 0.13318 0.0
C2084 C 0.9654 0.24597 0.12743 0.0
C2085 C 0.97714 0.20645 0.13728 0.0
C2086 C 0.95807 0.14732 0.12471 0.0
H2087 H 0.98798 0.03065 0.15611 0.0
H2088 H 0.98772 0.07722 0.14889 0.0
H2089 H 0.95249 0.10856 0.11591 0.0
H2090 H 0.94447 0.24096 0.12265 0.0
H2091 H 0.94452 0.19452 0.13031 0.0
H2092 H 0.97953 0.16315 0.16569 0.0
C2093 C 0.9785 0.06677 0.14903 0.0
C2094 C 0.95838 0.1203 0.12694 0.0
C2095 C 0.97865 0.04004 0.15301 0.0
C2096 C 0.95367 0.23168 0.12688 0.0
C2097 C 0.95372 0.205 0.13108 0.0
C2098 C 0.97367 0.15147 0.15459 0.0
C2099 C 0.9666 0.0799 0.14558 0.0
C2100 C 0.96638 0.10857 0.14295 0.0
C2101 C 0.96549 0.19195 0.13586 0.0
C2102 C 0.96569 0.16324 0.13853 0.0
H2103 H 0.94577 0.02851 0.14999 0.0
H2104 H 0.94554 0.07518 0.14291 0.0
H2105 H 0.98012 0.11599 0.1695 0.0
H2106 H 0.9863 0.2436 0.13372 0.0
H2107 H 0.98641 0.19701 0.14076 0.0
C2108 C 0.72209 0.98832 0.90022 0.0
C2109 C 0.71403 0.99762 0.91731 0.0
C2110 C 0.72176 0.96209 0.89416 0.0
C2111 C 0.70185 0.90193 0.8997 0.0
H2112 H 0.73478 0.86791 0.88584 0.0
C2113 C 0.72461 0.79198 0.88517 0.0
C2114 C 0.71462 0.78145 0.87197 0.0
C2115 C 0.72425 0.81815 0.89141 0.0
C2116 C 0.72551 0.87702 0.88992 0.0
H2117 H 0.69914 0.98674 0.9412 0.0
H2118 H 0.69875 0.94113 0.93099 0.0
H2119 H 0.73459 0.91401 0.89481 0.0
H2120 H 0.69631 0.79006 0.85526 0.0
H2121 H 0.69582 0.83559 0.86571 0.0
H2122 H 0.69283 0.86478 0.89558 0.0
C2123 C 0.70517 0.95407 0.92193 0.0
C2124 C 0.72538 0.90359 0.89471 0.0
C2125 C 0.70543 0.98028 0.92786 0.0
C2126 C 0.70413 0.79749 0.86554 0.0
C2127 C 0.70382 0.82364 0.87164 0.0
C2128 C 0.702 0.87534 0.89508 0.0
C2129 C 0.71342 0.94457 0.90516 0.0
C2130 C 0.71354 0.91639 0.89963 0.0
C2131 C 0.71393 0.83438 0.88447 0.0
C2132 C 0.71383 0.86254 0.89007 0.0
H2133 H 0.7288 1.0012 0.89173 0.0
H2134 H 0.72809 0.95555 0.88091 0.0
H2135 H 0.69253 0.91117 0.90318 0.0
H2136 H 0.73281 0.78012 0.89043 0.0
H2137 H 0.73208 0.82566 0.90162 0.0
C2138 C 0.04844 0.98745 0.88028 0.0
C2139 C 0.06027 1.00094 0.87711 0.0
C2140 C 0.04848 0.96071 0.88427 0.0
C2141 C 0.06897 0.9026 0.87539 0.0
H2142 H 0.04469 0.87024 0.91626 0.0
C2143 C 0.07185 0.79407 0.89979 0.0
C2144 C 0.05998 0.7806 0.90264 0.0
C2145 C 0.07185 0.82082 0.89583 0.0
C2146 C 0.05142 0.87896 0.90457 0.0
H2147 H 0.08146 0.99708 0.87662 0.0
H2148 H 0.08153 0.9505 0.88394 0.0
H2149 H 0.04494 0.91742 0.91253 0.0
H2150 H 0.03879 0.78454 0.90268 0.0
H2151 H 0.03882 0.83114 0.89553 0.0
H2152 H 0.07545 0.86413 0.86744 0.0
C2153 C 0.0722 0.96053 0.88289 0.0
C2154 C 0.05158 0.906 0.90248 0.0
C2155 C 0.07216 0.98727 0.87888 0.0
C2156 C 0.04811 0.79432 0.90064 0.0
C2157 C 0.04812 0.82108 0.89673 0.0
C2158 C 0.06881 0.87556 0.87749 0.0
C2159 C 0.06036 0.94685 0.88523 0.0
C2160 C 0.06036 0.91814 0.88786 0.0
C2161 C 0.05999 0.83471 0.89467 0.0
C2162 C 0.06003 0.86342 0.89208 0.0
H2163 H 0.0391 0.99737 0.87897 0.0
H2164 H 0.03918 0.95075 0.88582 0.0
H2165 H 0.07569 0.9113 0.86368 0.0
H2166 H 0.08117 0.78411 0.90126 0.0
H2167 H 0.08117 0.83077 0.89447 0.0
C2168 C 0.30152 0.73602 0.64715 0.0
C2169 C 0.3118 0.74665 0.65964 0.0
C2170 C 0.3017 0.70974 0.64118 0.0
C2171 C 0.3004 0.65082 0.64306 0.0
H2172 H 0.33318 0.61639 0.62891 0.0
C2173 C 0.30369 0.53926 0.63355 0.0
C2174 C 0.31167 0.52973 0.61644 0.0
C2175 C 0.30402 0.56559 0.63931 0.0
C2176 C 0.32391 0.6257 0.63263 0.0
H2177 H 0.3304 0.73809 0.67542 0.0
H2178 H 0.33057 0.69243 0.66549 0.0
H2179 H 0.33301 0.66285 0.63601 0.0
H2180 H 0.32636 0.54036 0.59212 0.0
H2181 H 0.32671 0.58611 0.60177 0.0
H2182 H 0.29123 0.61379 0.63885 0.0
C2183 C 0.32249 0.70435 0.65986 0.0
C2184 C 0.32384 0.65235 0.63699 0.0
C2185 C 0.32236 0.7306 0.66566 0.0
C2186 C 0.32014 0.54698 0.6055 0.0
C2187 C 0.32039 0.57328 0.61111 0.0
C2188 C 0.30045 0.62418 0.63851 0.0
C2189 C 0.31212 0.6935 0.6477 0.0
C2190 C 0.31209 0.66526 0.64234 0.0
C2191 C 0.31226 0.583 0.62796 0.0
C2192 C 0.31221 0.61126 0.63327 0.0
H2193 H 0.29325 0.74788 0.64223 0.0
H2194 H 0.29365 0.70216 0.63149 0.0
H2195 H 0.29119 0.66 0.64741 0.0
H2196 H 0.29707 0.52645 0.64232 0.0
H2197 H 0.29778 0.57229 0.65263 0.0
C2198 C 0.97279 0.54227 0.64459 0.0
C2199 C 0.96339 0.53239 0.65933 0.0
C2200 C 0.97254 0.56848 0.63845 0.0
C2201 C 0.95132 0.62732 0.63849 0.0
H2202 H 0.98452 0.66365 0.63477 0.0
C2203 C 0.9732 0.73889 0.63229 0.0
C2204 C 0.96463 0.74911 0.61634 0.0
C2205 C 0.97263 0.71258 0.63802 0.0
C2206 C 0.97515 0.65388 0.63599 0.0
H2207 H 0.94619 0.54216 0.67879 0.0
H2208 H 0.94591 0.58771 0.66844 0.0
H2209 H 0.98427 0.61736 0.64302 0.0
H2210 H 0.94858 0.73982 0.59423 0.0
H2211 H 0.94774 0.69406 0.6039 0.0
H2212 H 0.94218 0.66398 0.63219 0.0
C2213 C 0.95335 0.57525 0.66129 0.0
C2214 C 0.97502 0.62721 0.64036 0.0
C2215 C 0.95355 0.54908 0.66732 0.0
C2216 C 0.95528 0.73263 0.60666 0.0
C2217 C 0.95477 0.70635 0.61229 0.0
C2218 C 0.95145 0.654 0.63425 0.0
C2219 C 0.96294 0.58537 0.647 0.0
C2220 C 0.9631 0.61359 0.64167 0.0
C2221 C 0.96353 0.69591 0.62784 0.0
C2222 C 0.96337 0.66762 0.63292 0.0
H2223 H 0.98048 0.5299 0.63812 0.0
H2224 H 0.97994 0.57553 0.62711 0.0
H2225 H 0.94196 0.61743 0.63915 0.0
H2226 H 0.9805 0.75108 0.64008 0.0
H2227 H 0.97937 0.70529 0.65035 0.0
C2228 C 0.7046 0.4839 0.40288 0.0
C2229 C 0.71644 0.49761 0.40496 0.0
C2230 C 0.70464 0.45728 0.39834 0.0
C2231 C 0.72577 0.40306 0.37869 0.0
H2232 H 0.70061 0.36067 0.41045 0.0
C2233 C 0.72841 0.29104 0.37896 0.0
C2234 C 0.71659 0.27816 0.37425 0.0
C2235 C 0.72847 0.31765 0.3836 0.0
C2236 C 0.70764 0.37228 0.40138 0.0
H2237 H 0.73762 0.49425 0.40301 0.0
H2238 H 0.7377 0.44779 0.39557 0.0
H2239 H 0.70052 0.40767 0.41548 0.0
H2240 H 0.6955 0.2829 0.37172 0.0
H2241 H 0.69561 0.32926 0.38009 0.0
H2242 H 0.73297 0.36749 0.36483 0.0
C2243 C 0.72836 0.45762 0.39717 0.0
C2244 C 0.70756 0.39923 0.40415 0.0
C2245 C 0.72831 0.48429 0.40155 0.0
C2246 C 0.70478 0.29223 0.37524 0.0
C2247 C 0.70483 0.31878 0.38009 0.0
C2248 C 0.72591 0.37607 0.37605 0.0
C2249 C 0.71653 0.44369 0.3959 0.0
C2250 C 0.71658 0.41499 0.39276 0.0
C2251 C 0.7167 0.33187 0.38389 0.0
C2252 C 0.71681 0.36041 0.38731 0.0
H2253 H 0.69527 0.4936 0.40525 0.0
H2254 H 0.69533 0.44731 0.39696 0.0
H2255 H 0.73274 0.41458 0.36942 0.0
H2256 H 0.73768 0.28077 0.3784 0.0
H2257 H 0.73774 0.32717 0.38677 0.0
C2258 C 0.07318 0.29012 0.40745 0.0
C2259 C 0.06124 0.27654 0.40844 0.0
C2260 C 0.07335 0.31681 0.40318 0.0
C2261 C 0.0532 0.37118 0.3816 0.0
H2262 H 0.07634 0.41354 0.41741 0.0
C2263 C 0.04944 0.48283 0.38246 0.0
C2264 C 0.0613 0.49658 0.38071 0.0
C2265 C 0.04946 0.45612 0.3866 0.0
C2266 C 0.0699 0.40196 0.40716 0.0
H2267 H 0.04014 0.28026 0.40496 0.0
H2268 H 0.04044 0.32676 0.39772 0.0
H2269 H 0.07651 0.36641 0.42172 0.0
H2270 H 0.08247 0.49319 0.38283 0.0
H2271 H 0.08249 0.4466 0.39009 0.0
H2272 H 0.04655 0.40675 0.36713 0.0
C2273 C 0.04969 0.31677 0.40005 0.0
C2274 C 0.07003 0.37494 0.40956 0.0
C2275 C 0.04952 0.29009 0.40427 0.0
C2276 C 0.07316 0.48321 0.38409 0.0
C2277 C 0.07317 0.4565 0.38831 0.0
C2278 C 0.05305 0.39819 0.37924 0.0
C2279 C 0.06159 0.33054 0.39981 0.0
C2280 C 0.06168 0.35923 0.39682 0.0
C2281 C 0.06133 0.44257 0.38919 0.0
C2282 C 0.06139 0.41389 0.39201 0.0
H2283 H 0.08239 0.28027 0.41049 0.0
H2284 H 0.0827 0.32674 0.40271 0.0
H2285 H 0.04677 0.35964 0.37131 0.0
H2286 H 0.04012 0.49253 0.38002 0.0
H2287 H 0.04017 0.44602 0.38757 0.0
C2288 C 0.80397 0.03883 0.63246 0.0
C2289 C 0.81179 0.0301 0.61483 0.0
C2290 C 0.80403 0.06505 0.63859 0.0
C2291 C 0.81247 0.11918 0.65476 0.0
H2292 H 0.80914 0.17044 0.60809 0.0
C2293 C 0.82095 0.22852 0.66928 0.0
C2294 C 0.8113 0.24546 0.66106 0.0
C2295 C 0.82099 0.20231 0.66335 0.0
C2296 C 0.81002 0.15633 0.62128 0.0
H2297 H 0.82596 0.04199 0.59004 0.0
H2298 H 0.82596 0.08764 0.60066 0.0
H2299 H 0.80923 0.12414 0.59889 0.0
H2300 H 0.79431 0.2483 0.63968 0.0
H2301 H 0.79454 0.20243 0.629 0.0
H2302 H 0.81335 0.15138 0.67713 0.0
C2303 C 0.81976 0.07423 0.60967 0.0
C2304 C 0.81018 0.12989 0.61602 0.0
C2305 C 0.81983 0.04803 0.60373 0.0
C2306 C 0.8019 0.23575 0.64626 0.0
C2307 C 0.80203 0.20954 0.64012 0.0
C2308 C 0.81249 0.14563 0.65999 0.0
C2309 C 0.81178 0.08306 0.62701 0.0
C2310 C 0.81143 0.11106 0.6327 0.0
C2311 C 0.81146 0.1925 0.64889 0.0
C2312 C 0.81128 0.16446 0.6433 0.0
H2313 H 0.79765 0.02549 0.64131 0.0
H2314 H 0.79774 0.07138 0.65198 0.0
H2315 H 0.81351 0.10508 0.66792 0.0
H2316 H 0.82833 0.23533 0.68074 0.0
H2317 H 0.82847 0.18967 0.67013 0.0
C2318 C 0.4731 0.03962 0.64726 0.0
C2319 C 0.46459 0.02993 0.66356 0.0
C2320 C 0.47279 0.06593 0.64153 0.0
C2321 C 0.46428 0.11996 0.62532 0.0
H2322 H 0.46433 0.16963 0.67357 0.0
C2323 C 0.45524 0.22907 0.61196 0.0
C2324 C 0.46433 0.24602 0.62178 0.0
C2325 C 0.4551 0.20278 0.6175 0.0
C2326 C 0.46436 0.15597 0.65997 0.0
H2327 H 0.44884 0.04008 0.68615 0.0
H2328 H 0.44838 0.08588 0.67618 0.0
H2329 H 0.46443 0.12304 0.68157 0.0
H2330 H 0.48007 0.24889 0.64571 0.0
H2331 H 0.47964 0.20282 0.65568 0.0
H2332 H 0.46417 0.15289 0.60371 0.0
C2333 C 0.45533 0.07317 0.66798 0.0
C2334 C 0.46432 0.12937 0.66452 0.0
C2335 C 0.45554 0.04689 0.67354 0.0
C2336 C 0.47294 0.23631 0.63788 0.0
C2337 C 0.4727 0.20999 0.6436 0.0
C2338 C 0.46417 0.14656 0.62077 0.0
C2339 C 0.46407 0.08301 0.65216 0.0
C2340 C 0.46425 0.11114 0.64723 0.0
C2341 C 0.46394 0.19293 0.63314 0.0
C2342 C 0.46418 0.16479 0.63805 0.0
H2343 H 0.48019 0.02703 0.63931 0.0
H2344 H 0.47965 0.07309 0.62931 0.0
H2345 H 0.46419 0.1063 0.61171 0.0
H2346 H 0.44846 0.2359 0.5995 0.0
H2347 H 0.44812 0.19009 0.60944 0.0
C2348 C 0.2042 0.78796 0.38024 0.0
C2349 C 0.21619 0.77512 0.37677 0.0
C2350 C 0.2039 0.81464 0.38455 0.0
C2351 C 0.22472 0.87027 0.40153 0.0
H2352 H 0.19824 0.91107 0.37132 0.0
C2353 C 0.22652 0.98205 0.39975 0.0
C2354 C 0.21472 0.99486 0.40488 0.0
C2355 C 0.22661 0.95539 0.39537 0.0
C2356 C 0.20564 0.89991 0.37998 0.0
H2357 H 0.23732 0.7801 0.37589 0.0
H2358 H 0.23679 0.82655 0.38307 0.0
H2359 H 0.19847 0.86393 0.36711 0.0
H2360 H 0.19369 0.98994 0.40838 0.0
H2361 H 0.19387 0.94348 0.40062 0.0
H2362 H 0.23194 0.90631 0.41423 0.0
C2363 C 0.2276 0.81602 0.38271 0.0
C2364 C 0.20573 0.87289 0.37766 0.0
C2365 C 0.2279 0.78936 0.3785 0.0
C2366 C 0.20295 0.98067 0.40451 0.0
C2367 C 0.20304 0.95405 0.40001 0.0
C2368 C 0.22465 0.89728 0.40375 0.0
C2369 C 0.21559 0.82907 0.38544 0.0
C2370 C 0.21528 0.85774 0.38841 0.0
C2371 C 0.21491 0.94102 0.39586 0.0
C2372 C 0.21512 0.91239 0.39299 0.0
H2373 H 0.195 0.77754 0.37912 0.0
H2374 H 0.1945 0.82401 0.38699 0.0
H2375 H 0.23209 0.85917 0.41029 0.0
H2376 H 0.23575 0.99241 0.39981 0.0
H2377 H 0.23588 0.94594 0.39187 0.0
C2378 C 0.55142 0.98637 0.38584 0.0
C2379 C 0.56177 0.99703 0.37348 0.0
C2380 C 0.55153 0.96006 0.39171 0.0
C2381 C 0.57354 0.90246 0.39601 0.0
H2382 H 0.54084 0.86421 0.39395 0.0
C2383 C 0.55308 0.7895 0.3998 0.0
C2384 C 0.56096 0.78002 0.41703 0.0
C2385 C 0.55349 0.8158 0.39393 0.0
C2386 C 0.55009 0.87451 0.39436 0.0
H2387 H 0.58044 0.98844 0.35787 0.0
H2388 H 0.58051 0.9427 0.36767 0.0
H2389 H 0.54097 0.9104 0.38529 0.0
H2390 H 0.57556 0.79072 0.44143 0.0
H2391 H 0.57606 0.8364 0.43155 0.0
H2392 H 0.58274 0.86644 0.40431 0.0
C2393 C 0.57241 0.95465 0.37324 0.0
C2394 C 0.55013 0.90114 0.38974 0.0
C2395 C 0.57234 0.98094 0.36752 0.0
C2396 C 0.56941 0.7973 0.42797 0.0
C2397 C 0.56975 0.82356 0.42222 0.0
C2398 C 0.57351 0.87582 0.40046 0.0
C2399 C 0.56195 0.94378 0.38525 0.0
C2400 C 0.56185 0.91549 0.39055 0.0
C2401 C 0.56172 0.83324 0.40524 0.0
C2402 C 0.56179 0.86148 0.39978 0.0
H2403 H 0.54313 0.99825 0.39072 0.0
H2404 H 0.54342 0.95249 0.4013 0.0
H2405 H 0.58273 0.91287 0.39705 0.0
H2406 H 0.54647 0.77669 0.39104 0.0
H2407 H 0.54732 0.82247 0.38053 0.0
C2408 C 0.79785 0.54315 0.13221 0.0
C2409 C 0.80976 0.52967 0.12971 0.0
C2410 C 0.79778 0.56982 0.13656 0.0
C2411 C 0.81845 0.62421 0.15613 0.0
H2412 H 0.79418 0.66651 0.12237 0.0
C2413 C 0.82181 0.73594 0.15551 0.0
C2414 C 0.80996 0.74967 0.15773 0.0
C2415 C 0.82177 0.70921 0.15141 0.0
C2416 C 0.80093 0.65496 0.13208 0.0
H2417 H 0.83093 0.53349 0.13066 0.0
H2418 H 0.8308 0.57998 0.1382 0.0
H2419 H 0.79398 0.6194 0.11804 0.0
H2420 H 0.78877 0.74619 0.15664 0.0
H2421 H 0.78872 0.69959 0.1496 0.0
H2422 H 0.82541 0.65976 0.17016 0.0
C2423 C 0.82151 0.56992 0.1369 0.0
C2424 C 0.8008 0.62795 0.12964 0.0
C2425 C 0.82158 0.54326 0.13251 0.0
C2426 C 0.79808 0.73623 0.15497 0.0
C2427 C 0.79804 0.7095 0.15087 0.0
C2428 C 0.81858 0.65121 0.15857 0.0
C2429 C 0.80961 0.5836 0.13858 0.0
C2430 C 0.80956 0.61226 0.14163 0.0
C2431 C 0.80989 0.6956 0.14942 0.0
C2432 C 0.80984 0.66691 0.14654 0.0
H2433 H 0.78855 0.53327 0.13022 0.0
H2434 H 0.78845 0.57972 0.13814 0.0
H2435 H 0.82521 0.61266 0.16581 0.0
H2436 H 0.83114 0.7457 0.15746 0.0
H2437 H 0.83107 0.69916 0.14997 0.0
C2438 C 0.47241 0.54089 0.14705 0.0
C2439 C 0.46377 0.53153 0.1633 0.0
C2440 C 0.47219 0.5671 0.14099 0.0
C2441 C 0.46344 0.63106 0.16287 0.0
H2442 H 0.46461 0.6533 0.10174 0.0
C2443 C 0.45609 0.72987 0.10818 0.0
C2444 C 0.46486 0.74692 0.11866 0.0
C2445 C 0.4557 0.70367 0.114 0.0
C2446 C 0.46423 0.64734 0.11888 0.0
H2447 H 0.44789 0.54216 0.18545 0.0
H2448 H 0.44756 0.58779 0.17486 0.0
H2449 H 0.46428 0.60691 0.11043 0.0
H2450 H 0.4798 0.75003 0.14397 0.0
H2451 H 0.47898 0.70413 0.15434 0.0
H2452 H 0.46339 0.67149 0.17132 0.0
C2453 C 0.45456 0.57491 0.16698 0.0
C2454 C 0.46415 0.62085 0.12383 0.0
C2455 C 0.45469 0.54873 0.1729 0.0
C2456 C 0.47293 0.73738 0.13562 0.0
C2457 C 0.47245 0.71115 0.14158 0.0
C2458 C 0.46365 0.65756 0.15792 0.0
C2459 C 0.46341 0.58442 0.1512 0.0
C2460 C 0.46368 0.61247 0.14586 0.0
C2461 C 0.46398 0.69399 0.13055 0.0
C2462 C 0.46396 0.66594 0.13588 0.0
H2463 H 0.47953 0.52812 0.13938 0.0
H2464 H 0.47916 0.57397 0.12882 0.0
H2465 H 0.46322 0.6251 0.18001 0.0
H2466 H 0.44972 0.73658 0.09506 0.0
H2467 H 0.44894 0.69093 0.10546 0.0
C2468 C 0.22405 0.29282 0.88789 0.0
C2469 C 0.21542 0.28347 0.87165 0.0
C2470 C 0.22376 0.319 0.89411 0.0
C2471 C 0.21454 0.38318 0.87289 0.0
H2472 H 0.21593 0.40471 0.93418 0.0
C2473 C 0.20693 0.48132 0.92871 0.0
C2474 C 0.21534 0.4988 0.91786 0.0
C2475 C 0.20671 0.45512 0.92278 0.0
C2476 C 0.21548 0.39897 0.91699 0.0
H2477 H 0.19951 0.29414 0.84963 0.0
H2478 H 0.19905 0.33966 0.86049 0.0
H2479 H 0.21591 0.35843 0.92506 0.0
H2480 H 0.22985 0.50259 0.89185 0.0
H2481 H 0.22935 0.45674 0.88133 0.0
H2482 H 0.21409 0.42371 0.86481 0.0
C2483 C 0.2061 0.32682 0.86825 0.0
C2484 C 0.21558 0.37251 0.91179 0.0
C2485 C 0.20632 0.30068 0.86217 0.0
C2486 C 0.22324 0.48963 0.90049 0.0
C2487 C 0.22294 0.46341 0.89445 0.0
C2488 C 0.21456 0.40963 0.87808 0.0
C2489 C 0.21492 0.33633 0.88408 0.0
C2490 C 0.21503 0.36436 0.88969 0.0
C2491 C 0.21482 0.44583 0.90577 0.0
C2492 C 0.21495 0.41779 0.90019 0.0
H2493 H 0.2312 0.28006 0.89546 0.0
H2494 H 0.23071 0.32585 0.9063 0.0
H2495 H 0.21425 0.37745 0.85569 0.0
H2496 H 0.20071 0.48773 0.94215 0.0
H2497 H 0.20022 0.44207 0.93158 0.0
C2498 C 0.55312 0.29052 0.89874 0.0
C2499 C 0.56242 0.28023 0.91344 0.0
C2500 C 0.55345 0.31685 0.89292 0.0
C2501 C 0.57494 0.37545 0.89436 0.0
H2502 H 0.54199 0.4122 0.88768 0.0
C2503 C 0.5535 0.48746 0.88539 0.0
C2504 C 0.56294 0.49761 0.87087 0.0
C2505 C 0.5537 0.46112 0.89119 0.0
C2506 C 0.55129 0.40235 0.88976 0.0
H2507 H 0.57944 0.28952 0.93339 0.0
H2508 H 0.57982 0.33525 0.92376 0.0
H2509 H 0.54187 0.366 0.89617 0.0
H2510 H 0.58009 0.48805 0.85123 0.0
H2511 H 0.58025 0.4423 0.86083 0.0
H2512 H 0.58436 0.41194 0.88887 0.0
C2513 C 0.57243 0.32303 0.91625 0.0
C2514 C 0.55123 0.37568 0.89425 0.0
C2515 C 0.57218 0.29672 0.92187 0.0
C2516 C 0.57272 0.48096 0.86261 0.0
C2517 C 0.57285 0.45465 0.86821 0.0
C2518 C 0.575 0.40214 0.89009 0.0
C2519 C 0.56301 0.33353 0.90184 0.0
C2520 C 0.56305 0.36185 0.89658 0.0
C2521 C 0.56328 0.44428 0.88244 0.0
C2522 C 0.56318 0.41596 0.88766 0.0
H2523 H 0.54548 0.27832 0.89192 0.0
H2524 H 0.54617 0.32411 0.88147 0.0
H2525 H 0.58425 0.36547 0.89575 0.0
H2526 H 0.54584 0.49978 0.89208 0.0
H2527 H 0.54631 0.45398 0.90251 0.0
C2528 C 0.24413 0.12707 0.37689 0.0
C2529 C 0.2467 0.13338 0.39909 0.0
C2530 C 0.24791 0.14384 0.3597 0.0
C2531 C 0.25764 0.21307 0.34926 0.0
H2532 H 0.2679 0.18662 0.29187 0.0
C2533 C 0.27937 0.27987 0.28122 0.0
C2534 C 0.27527 0.27595 0.25931 0.0
C2535 C 0.27593 0.2623 0.29795 0.0
C2536 C 0.26494 0.19438 0.30773 0.0
H2537 H 0.25572 0.16216 0.42034 0.0
H2538 H 0.26262 0.19082 0.39056 0.0
H2539 H 0.26235 0.1563 0.3214 0.0
H2540 H 0.26409 0.25059 0.23795 0.0
H2541 H 0.25823 0.21959 0.26707 0.0
H2542 H 0.2604 0.25112 0.33563 0.0
C2543 C 0.25735 0.17327 0.38634 0.0
C2544 C 0.26172 0.17693 0.32475 0.0
C2545 C 0.25348 0.15662 0.40351 0.0
C2546 C 0.26761 0.25395 0.25458 0.0
C2547 C 0.26424 0.23619 0.2713 0.0
C2548 C 0.26096 0.23047 0.33231 0.0
C2549 C 0.25446 0.16739 0.36413 0.0
C2550 C 0.25802 0.18597 0.34585 0.0
C2551 C 0.26832 0.24015 0.29327 0.0
C2552 C 0.26466 0.22142 0.31128 0.0
H2553 H 0.23886 0.10948 0.37276 0.0
H2554 H 0.24533 0.1386 0.34296 0.0
H2555 H 0.25458 0.221 0.36499 0.0
H2556 H 0.28541 0.29644 0.28541 0.0
H2557 H 0.27942 0.26589 0.31454 0.0
C2558 C 0.03024 0.14814 0.37762 0.0
C2559 C 0.02762 0.14103 0.39964 0.0
C2560 C 0.02638 0.13211 0.35998 0.0
C2561 C 1.00388 0.0777 0.3451 0.0
H2562 H 0.02842 0.06586 0.29724 0.0
C2563 C 0.99542 0.99619 0.28047 0.0
C2564 C 0.99937 1.00032 0.2585 0.0
C2565 C 0.99865 0.014 0.29714 0.0
C2566 C 0.02133 0.06917 0.31025 0.0
H2567 H 0.01853 0.11149 0.4201 0.0
H2568 H 1.01176 0.08383 0.38952 0.0
H2569 H 0.03407 0.09596 0.32682 0.0
H2570 H 1.00988 0.02653 0.23691 0.0
H2571 H 0.01523 0.05804 0.26578 0.0
H2572 H 0.99109 0.05111 0.32856 0.0
C2573 C 0.01678 0.10185 0.38581 0.0
C2574 C 0.0246 0.0865 0.32731 0.0
C2575 C 0.02072 0.11774 0.40343 0.0
C2576 C 1.00662 0.02284 0.25364 0.0
C2577 C 1.0098 0.04077 0.2703 0.0
C2578 C 1.00058 0.0605 0.32799 0.0
C2579 C 0.01968 0.1086 0.36381 0.0
C2580 C 0.01597 0.0909 0.3451 0.0
C2581 C 1.00587 0.03666 0.29237 0.0
C2582 C 1.00928 0.05574 0.31034 0.0
H2583 H 0.03555 0.16584 0.37397 0.0
H2584 H 0.02866 0.13817 0.3433 0.0
H2585 H 0.99687 0.08085 0.35827 0.0
H2586 H 0.98971 0.97922 0.2848 0.0
H2587 H 0.99558 1.00975 0.31386 0.0
C2588 C 0.26268 1.00346 0.01808 0.0
C2589 C 0.27533 1.00335 0.02724 0.0
C2590 C 0.25936 0.02101 1.00121 0.0
C2591 C 0.26947 0.08345 0.97488 0.0
H2592 H 0.24862 0.05864 0.92577 0.0
C2593 C 0.2481 0.15242 0.9072 0.0
C2594 C 0.24792 0.14335 0.88526 0.0
C2595 C 0.25187 0.136 0.92464 0.0
C2596 C 0.25452 0.06592 0.93926 0.0
H2597 H 0.2943 0.02207 0.02629 0.0
H2598 H 0.28854 0.0528 0.99703 0.0
H2599 H 0.25418 0.0291 0.95581 0.0
H2600 H 0.25193 0.10974 0.86466 0.0
H2601 H 0.25851 0.08138 0.89488 0.0
H2602 H 0.26991 0.12023 0.95817 0.0
C2603 C 0.28114 0.03936 1.00282 0.0
C2604 C 0.25759 0.04899 0.95668 0.0
C2605 C 0.28446 0.0217 0.01958 0.0
C2606 C 0.2519 0.11753 0.88127 0.0
C2607 C 0.25558 0.10111 0.89869 0.0
C2608 C 0.26632 0.10045 0.95751 0.0
C2609 C 0.26856 0.03914 0.9932 0.0
C2610 C 0.26514 0.05744 0.97475 0.0
C2611 C 0.25548 0.10996 0.92069 0.0
C2612 C 0.25884 0.09192 0.93937 0.0
H2613 H 0.25531 0.99005 0.02403 0.0
H2614 H 0.24951 0.02053 0.99458 0.0
H2615 H 0.2752 0.0908 0.98855 0.0
H2616 H 0.24508 0.1721 0.91102 0.0
H2617 H 0.25156 0.14352 0.94133 0.0
C2618 C 0.0273 0.12771 0.90506 0.0
C2619 C 0.02773 0.13765 0.8834 0.0
C2620 C 0.02349 0.14351 0.92291 0.0
C2621 C 0.02139 0.2129 0.93972 0.0
H2622 H 0.99982 0.18692 0.98758 0.0
C2623 C 0.01336 0.27191 0.02051 0.0
C2624 C 1.00057 0.2727 0.02915 0.0
C2625 C 0.0166 0.25487 1.0032 0.0
C2626 C 1.00581 0.19457 0.97432 0.0
H2627 H 0.02415 0.17218 0.86374 0.0
H2628 H 0.01753 0.19952 0.8947 0.0
H2629 H 1.00509 0.1586 0.95636 0.0
H2630 H 0.98124 0.25568 0.02678 0.0
H2631 H 0.98687 0.2257 0.99681 0.0
H2632 H 0.02207 0.24887 0.95756 0.0
C2633 C 0.02026 0.17954 0.89795 0.0
C2634 C 1.00894 0.17821 0.95647 0.0
C2635 C 0.02396 0.16372 0.88011 0.0
C2636 C 0.9912 0.25546 0.02053 0.0
C2637 C 0.99444 0.23826 1.00334 0.0
C2638 C 0.01837 0.22916 0.95764 0.0
C2639 C 0.0201 0.16979 0.91967 0.0
C2640 C 0.01674 0.18715 0.93884 0.0
C2641 C 1.00716 0.2379 0.99422 0.0
C2642 C 1.01051 0.22029 0.97522 0.0
H2643 H 0.03015 0.1078 0.90834 0.0
H2644 H 0.02359 0.1353 0.93936 0.0
H2645 H 0.02754 0.22047 0.92664 0.0
H2646 H 0.02089 0.2845 0.02714 0.0
H2647 H 0.02655 0.25487 0.99695 0.0
C2648 C 0.74707 0.74715 0.75288 0.0
C2649 C 0.75097 0.75177 0.77479 0.0
C2650 C 0.75063 0.76423 0.73584 0.0
C2651 C 0.76159 0.83196 0.7248 0.0
H2652 H 0.77224 0.80371 0.66825 0.0
C2653 C 0.78239 0.89743 0.65421 0.0
C2654 C 0.77992 0.89032 0.63214 0.0
C2655 C 0.77863 0.88118 0.67178 0.0
C2656 C 0.7691 0.8121 0.68377 0.0
H2657 H 0.76194 0.77786 0.79582 0.0
H2658 H 0.768 0.80799 0.76616 0.0
H2659 H 0.76634 0.77444 0.69818 0.0
H2660 H 0.77109 0.86067 0.61155 0.0
H2661 H 0.76423 0.83292 0.64194 0.0
H2662 H 0.76418 0.86964 0.71033 0.0
C2663 C 0.76205 0.79122 0.76216 0.0
C2664 C 0.76574 0.79518 0.70105 0.0
C2665 C 0.75857 0.77396 0.7792 0.0
C2666 C 0.77326 0.86682 0.62825 0.0
C2667 C 0.76941 0.85069 0.64579 0.0
C2668 C 0.76486 0.84893 0.70744 0.0
C2669 C 0.75816 0.78658 0.74019 0.0
C2670 C 0.76191 0.80481 0.72184 0.0
C2671 C 0.7722 0.85735 0.66787 0.0
C2672 C 0.76865 0.8393 0.68657 0.0
H2673 H 0.74106 0.73046 0.74891 0.0
H2674 H 0.74727 0.76012 0.71925 0.0
H2675 H 0.75855 0.84018 0.74045 0.0
H2676 H 0.78757 0.91525 0.65793 0.0
H2677 H 0.78113 0.88703 0.68841 0.0
C2678 C 0.01993 1.00544 0.77915 0.0
C2679 C 0.0274 0.02768 0.77434 0.0
C2680 C 0.01672 0.98749 0.7625 0.0
C2681 C 0.02613 0.96722 0.70497 0.0
H2682 H 0.99253 0.93215 0.70606 0.0
C2683 C 1.00597 0.9095 0.62973 0.0
C2684 C 0.9991 0.88622 0.63366 0.0
C2685 C 1.0099 0.92557 0.64725 0.0
C2686 C 1.00203 0.94152 0.7056 0.0
H2687 H 0.03739 0.04834 0.74814 0.0
H2688 H 0.03146 0.01783 0.71908 0.0
H2689 H 0.99818 0.96243 0.73551 0.0
H2690 H 0.99117 0.86162 0.65948 0.0
H2691 H 0.99801 0.88961 0.68998 0.0
H2692 H 0.02985 0.94662 0.67481 0.0
C2693 C 0.02825 0.01376 0.73576 0.0
C2694 C 1.0053 0.95895 0.72259 0.0
C2695 C 0.03152 0.03157 0.75243 0.0
C2696 C 0.99647 0.87931 0.65573 0.0
C2697 C 1.0003 0.89552 0.67326 0.0
C2698 C 0.02281 0.94994 0.68792 0.0
C2699 C 0.02083 0.99133 0.74048 0.0
C2700 C 0.01739 0.97222 0.72253 0.0
C2701 C 1.00699 0.91901 0.66929 0.0
C2702 C 1.01069 0.93687 0.6879 0.0
H2703 H 0.01652 1.00195 0.79582 0.0
H2704 H 1.01113 0.97043 0.76701 0.0
H2705 H 0.03565 0.97647 0.70442 0.0
H2706 H 1.00817 0.9156 0.61302 0.0
H2707 H 0.01491 0.94356 0.64344 0.0
C2708 C 0.77433 0.91326 0.15439 0.0
C2709 C 0.77868 0.88761 0.15073 0.0
C2710 C 0.7707 0.92936 0.13673 0.0
C2711 C 0.76084 0.92917 0.07748 0.0
H2712 H 0.77193 1.00117 0.07959 0.0
C2713 C 0.74234 1.00712 1.01488 0.0
C2714 C 0.75126 0.02615 1.00773 0.0
C2715 C 0.74574 0.98946 0.03161 0.0
C2716 C 0.76882 0.98109 0.07859 0.0
H2717 H 0.78225 0.8588 0.12529 0.0
H2718 H 0.77586 0.88683 0.09452 0.0
H2719 H 0.7775 0.97198 0.10984 0.0
H2720 H 0.771 0.0407 1.01179 0.0
H2721 H 0.77695 1.01016 0.04112 0.0
H2722 H 0.75225 0.93831 0.04609 0.0
C2723 C 0.77522 0.89447 0.11115 0.0
C2724 C 0.77189 0.96435 0.09614 0.0
C2725 C 0.77893 0.87836 0.12884 0.0
C2726 C 0.7638 0.02666 0.0173 0.0
C2727 C 0.7672 1.00912 0.03413 0.0
C2728 C 0.75769 0.94598 0.05997 0.0
C2729 C 0.77124 0.92036 0.1148 0.0
C2730 C 0.76793 0.93813 0.0959 0.0
C2731 C 0.75818 0.99037 0.04169 0.0
C2732 C 0.76164 0.97222 0.06024 0.0
H2733 H 0.77395 0.92118 0.17094 0.0
H2734 H 0.76747 0.94896 0.14031 0.0
H2735 H 0.75753 0.9092 0.07671 0.0
H2736 H 0.73259 1.00626 1.00786 0.0
H2737 H 0.73848 0.97552 0.03705 0.0
C2738 C 0.02953 0.746 0.02805 0.0
C2739 C 0.02634 0.75186 1.00602 0.0
C2740 C 0.0262 0.76303 0.04525 0.0
C2741 C 0.01732 0.83185 0.0572 0.0
H2742 H 1.0048 0.80343 0.11257 0.0
C2743 C 0.99674 0.89743 0.12782 0.0
C2744 C 0.99874 0.88972 0.14987 0.0
C2745 C 1.00046 0.88127 0.11018 0.0
C2746 C 1.00847 0.81181 0.09739 0.0
H2747 H 0.01703 0.78033 0.98491 0.0
H2748 H 1.01129 0.81027 1.0149 0.0
H2749 H 1.01031 0.77431 0.08229 0.0
H2750 H 1.0067 0.859 0.17039 0.0
H2751 H 0.01346 0.83127 0.13983 0.0
H2752 H 0.01558 0.86936 0.07235 0.0
C2753 C 0.01648 0.79251 0.01888 0.0
C2754 C 1.01161 0.795 0.07991 0.0
C2755 C 0.01976 0.77534 1.00165 0.0
C2756 C 1.00492 0.86566 0.1537 0.0
C2757 C 1.0087 0.84956 0.13608 0.0
C2758 C 0.01424 0.84869 0.07474 0.0
C2759 C 0.01963 0.78658 0.04098 0.0
C2760 C 0.0161 0.80472 0.05953 0.0
C2761 C 1.00636 0.85689 0.114 0.0
C2762 C 1.00978 0.83896 0.09517 0.0
H2763 H 0.03484 0.72839 0.03201 0.0
H2764 H 0.02901 0.75791 0.06193 0.0
H2765 H 0.02091 0.84011 0.04191 0.0
H2766 H 0.99194 0.91571 0.12412 0.0
H2767 H 0.99833 0.88763 0.09353 0.0
C2768 C 0.28056 0.78105 0.77997 0.0
C2769 C 0.27679 0.77609 0.75805 0.0
C2770 C 0.2772 0.76387 0.79706 0.0
C2771 C 0.25469 0.70853 0.81106 0.0
H2772 H 0.27873 0.6992 0.85994 0.0
C2773 C 0.2464 0.62979 0.87867 0.0
C2774 C 0.24847 0.63726 0.90077 0.0
C2775 C 0.25021 0.646 0.86113 0.0
C2776 C 0.27184 0.7017 0.84652 0.0
H2777 H 0.26625 0.74931 0.73705 0.0
H2778 H 0.26078 0.71879 0.76659 0.0
H2779 H 0.28451 0.7284 0.82981 0.0
H2780 H 0.25653 0.66768 0.92148 0.0
H2781 H 0.26328 0.69568 0.89099 0.0
H2782 H 0.24211 0.68148 0.82775 0.0
C2783 C 0.26619 0.73619 0.77077 0.0
C2784 C 0.27514 0.7186 0.82917 0.0
C2785 C 0.26948 0.75354 0.7537 0.0
C2786 C 0.25478 0.66115 0.90475 0.0
C2787 C 0.2587 0.67724 0.8872 0.0
C2788 C 0.25145 0.69146 0.82833 0.0
C2789 C 0.27003 0.74102 0.79278 0.0
C2790 C 0.26659 0.72246 0.81117 0.0
C2791 C 0.25632 0.67008 0.86511 0.0
C2792 C 0.25994 0.68786 0.84639 0.0
H2793 H 0.28627 0.79815 0.78394 0.0
H2794 H 0.28017 0.76874 0.8137 0.0
H2795 H 0.24769 0.71115 0.79783 0.0
H2796 H 0.24155 0.61163 0.87485 0.0
H2797 H 0.24836 0.63962 0.84439 0.0
C2798 C 0.03049 0.65138 0.87464 0.0
C2799 C 0.02841 0.64344 0.89662 0.0
C2800 C 0.02666 0.63557 0.85686 0.0
C2801 C 1.00509 0.57981 0.84171 0.0
H2802 H 0.02874 0.57269 0.79192 0.0
C2803 C 0.99055 0.52272 0.76255 0.0
C2804 C 1.00011 0.50652 0.75305 0.0
C2805 C 0.99383 0.54012 0.77953 0.0
C2806 C 0.02203 0.57432 0.80571 0.0
H2807 H 0.02032 0.61258 0.91686 0.0
H2808 H 0.01362 0.58524 0.886 0.0
H2809 H 0.03451 0.60142 0.82248 0.0
H2810 H 0.0207 0.4965 0.75334 0.0
H2811 H 0.02649 0.52673 0.78303 0.0
H2812 H 0.9927 0.55244 0.8251 0.0
C2813 C 0.01818 0.60377 0.88246 0.0
C2814 C 0.02528 0.59108 0.82319 0.0
C2815 C 0.02208 0.61948 0.90023 0.0
C2816 C 1.0131 0.50855 0.76053 0.0
C2817 C 0.01642 0.52606 0.77742 0.0
C2818 C 1.0018 0.56321 0.82417 0.0
C2819 C 0.02054 0.6114 0.86048 0.0
C2820 C 0.01689 0.59401 0.84152 0.0
C2821 C 1.0068 0.54196 0.78735 0.0
C2822 C 1.01024 0.5601 0.80592 0.0
H2823 H 0.03533 0.66963 0.87111 0.0
H2824 H 0.0285 0.64233 0.84022 0.0
H2825 H 0.99831 0.58166 0.85539 0.0
H2826 H 0.98045 0.5216 0.75709 0.0
H2827 H 0.98618 0.55224 0.78647 0.0
C2828 C 0.26441 0.4995 0.51458 0.0
C2829 C 0.27661 0.50077 0.52527 0.0
C2830 C 0.26114 0.51734 0.49791 0.0
C2831 C 0.27604 0.5617 0.45676 0.0
H2832 H 0.24127 0.59202 0.45378 0.0
C2833 C 0.25665 0.61756 0.37968 0.0
C2834 C 0.24916 0.6402 0.38326 0.0
C2835 C 0.26048 0.60167 0.39738 0.0
C2836 C 0.25105 0.58387 0.45442 0.0
H2837 H 0.29492 0.52185 0.52697 0.0
H2838 H 0.28929 0.55293 0.49781 0.0
H2839 H 0.24679 0.56242 0.48395 0.0
H2840 H 0.24002 0.66385 0.40862 0.0
H2841 H 0.24662 0.63608 0.4394 0.0
H2842 H 0.28026 0.583 0.42713 0.0
C2843 C 0.28223 0.5381 0.50223 0.0
C2844 C 0.25419 0.56667 0.47163 0.0
C2845 C 0.28543 0.52044 0.51906 0.0
C2846 C 0.24581 0.64667 0.40515 0.0
C2847 C 0.24951 0.6306 0.42283 0.0
C2848 C 0.27285 0.57864 0.43939 0.0
C2849 C 0.27005 0.53677 0.49135 0.0
C2850 C 0.26673 0.55533 0.47307 0.0
C2851 C 0.25681 0.60775 0.4192 0.0
C2852 C 0.26031 0.59 0.43796 0.0
H2853 H 0.25741 0.48458 0.51907 0.0
H2854 H 0.25172 0.51556 0.48983 0.0
H2855 H 0.28575 0.55321 0.45719 0.0
H2856 H 0.2594 0.61185 0.3631 0.0
H2857 H 0.26601 0.58416 0.39389 0.0
C2858 C 0.9928 0.75892 0.51724 0.0
C2859 C 1.00223 0.77623 0.52553 0.0
C2860 C 0.99602 0.74104 0.50057 0.0
C2861 C 0.02422 0.70746 0.47372 0.0
H2862 H 0.99969 0.69634 0.4258 0.0
C2863 C 0.03247 0.62746 0.40704 0.0
C2864 C 0.02998 0.63437 0.38494 0.0
C2865 C 0.02874 0.6439 0.4245 0.0
C2866 C 1.00669 0.69924 0.439 0.0
H2867 H 0.02256 0.78784 0.5233 0.0
H2868 H 0.02825 0.7567 0.49417 0.0
H2869 H 0.99418 0.72669 0.4554 0.0
H2870 H 0.02124 0.664 0.36415 0.0
H2871 H 0.01466 0.69239 0.39446 0.0
H2872 H 0.03679 0.68022 0.45718 0.0
C2873 C 0.01832 0.75688 0.50051 0.0
C2874 C 1.00347 0.71651 0.45614 0.0
C2875 C 0.01506 0.77489 0.51709 0.0
C2876 C 0.02333 0.6579 0.38089 0.0
C2877 C 0.01949 0.67421 0.39834 0.0
C2878 C 0.0274 0.69002 0.45667 0.0
C2879 C 1.00883 0.7398 0.49186 0.0
C2880 C 1.01221 0.721 0.47373 0.0
C2881 C 0.02228 0.66764 0.42041 0.0
C2882 C 0.01871 0.68572 0.43898 0.0
H2883 H 0.98284 0.75947 0.52347 0.0
H2884 H 0.98848 0.72804 0.4946 0.0
H2885 H 0.03116 0.71018 0.48703 0.0
H2886 H 0.03759 0.60958 0.4109 0.0
H2887 H 0.03091 0.63797 0.44125 0.0
C2888 C 0.7789 0.40027 0.15519 0.0
C2889 C 0.77795 0.39213 0.13304 0.0
C2890 C 0.775 0.38387 0.17256 0.0
C2891 C 0.76923 0.31382 0.18533 0.0
H2892 H 0.75288 0.34061 0.23845 0.0
C2893 C 0.76167 0.24888 0.26266 0.0
C2894 C 0.74989 0.25156 0.27449 0.0
C2895 C 0.76502 0.26656 0.24592 0.0
C2896 C 0.75736 0.33271 0.22369 0.0
H2897 H 0.77171 0.36031 0.11204 0.0
H2898 H 0.76477 0.33209 0.14211 0.0
H2899 H 0.75819 0.3702 0.20823 0.0
H2900 H 0.73245 0.27514 0.27817 0.0
H2901 H 0.73824 0.30605 0.24906 0.0
H2902 H 0.76821 0.27631 0.20056 0.0
C2903 C 0.76877 0.35098 0.14616 0.0
C2904 C 0.76055 0.34979 0.20639 0.0
C2905 C 0.77266 0.36735 0.12882 0.0
C2906 C 0.74165 0.27268 0.26949 0.0
C2907 C 0.74501 0.29042 0.25278 0.0
C2908 C 0.76608 0.29678 0.20263 0.0
C2909 C 0.77004 0.35879 0.16834 0.0
C2910 C 0.76653 0.34062 0.18689 0.0
C2911 C 0.7567 0.28752 0.24056 0.0
C2912 C 0.76009 0.30591 0.22212 0.0
H2913 H 0.78297 0.41912 0.1592 0.0
H2914 H 0.77625 0.39061 0.18936 0.0
H2915 H 0.77397 0.30594 0.17079 0.0
H2916 H 0.76829 0.23297 0.26629 0.0
H2917 H 0.77422 0.26384 0.23726 0.0
C2918 C 0.03019 0.529 0.25523 0.0
C2919 C 0.02715 0.52361 0.27741 0.0
C2920 C 0.02667 0.51174 0.23834 0.0
C2921 C 0.01739 0.44292 0.22746 0.0
H2922 H 1.00462 0.47077 0.17207 0.0
C2923 C 0.99617 0.37675 0.15785 0.0
C2924 C 0.99814 0.38414 0.1357 0.0
C2925 C 1.00002 0.39307 0.17528 0.0
C2926 C 1.00835 0.46254 0.18726 0.0
H2927 H 0.01792 0.49569 0.29914 0.0
H2928 H 1.01184 0.46533 0.26968 0.0
H2929 H 1.01045 0.50022 0.20189 0.0
H2930 H 1.00616 0.41442 0.11479 0.0
H2931 H 1.01312 0.44241 0.14498 0.0
H2932 H 0.01538 0.40521 0.21276 0.0
C2933 C 0.01706 0.48291 0.26534 0.0
C2934 C 1.01168 0.47954 0.20448 0.0
C2935 C 0.02053 0.50032 0.28226 0.0
C2936 C 1.0044 0.40803 0.13156 0.0
C2937 C 1.0083 0.42427 0.14898 0.0
C2938 C 0.01412 0.42588 0.21018 0.0
C2939 C 0.02004 0.4884 0.24308 0.0
C2940 C 0.01628 0.47004 0.22485 0.0
C2941 C 1.006 0.41728 0.17115 0.0
C2942 C 1.00957 0.4354 0.18974 0.0
H2943 H 0.03554 0.54644 0.2509 0.0
H2944 H 0.02937 0.51651 0.22153 0.0
H2945 H 0.02105 0.43481 0.24276 0.0
H2946 H 0.99132 0.35862 0.16177 0.0
H2947 H 0.99793 0.38698 0.19202 0.0
C2948 C 0.77355 0.40938 0.6518 0.0
C2949 C 0.77807 0.38386 0.64806 0.0
C2950 C 0.76988 0.42551 0.6342 0.0
C2951 C 0.76012 0.42571 0.57494 0.0
H2952 H 0.7711 0.49776 0.57747 0.0
C2953 C 0.74152 0.50427 0.51287 0.0
C2954 C 0.7505 0.52318 0.50568 0.0
C2955 C 0.74491 0.48648 0.52952 0.0
C2956 C 0.76801 0.47767 0.57636 0.0
H2957 H 0.78188 0.35531 0.62251 0.0
H2958 H 0.7754 0.38342 0.59182 0.0
H2959 H 0.77671 0.46836 0.60755 0.0
H2960 H 0.77026 0.53757 0.50975 0.0
H2961 H 0.77618 0.50682 0.53893 0.0
H2962 H 0.75149 0.43508 0.54362 0.0
C2963 C 0.77467 0.39091 0.60848 0.0
C2964 C 0.77111 0.46081 0.5938 0.0
C2965 C 0.77843 0.37476 0.62613 0.0
C2966 C 0.76304 0.52355 0.51522 0.0
C2967 C 0.76642 0.5059 0.53197 0.0
C2968 C 0.75693 0.44265 0.55754 0.0
C2969 C 0.77053 0.41669 0.61223 0.0
C2970 C 0.76721 0.43456 0.59341 0.0
C2971 C 0.75737 0.48719 0.53951 0.0
C2972 C 0.76084 0.46891 0.55797 0.0
H2973 H 0.77307 0.41719 0.66839 0.0
H2974 H 0.76653 0.44503 0.63785 0.0
H2975 H 0.75686 0.40571 0.57406 0.0
H2976 H 0.73175 0.50357 0.50591 0.0
H2977 H 0.73762 0.47259 0.53495 0.0
C2978 C 0.99481 0.40002 0.62592 0.0
C2979 C 0.99713 0.39349 0.64816 0.0
C2980 C 0.99864 0.38324 0.60875 0.0
C2981 C 1.00769 0.31372 0.59827 0.0
H2982 H 0.01924 0.33991 0.54151 0.0
C2983 C 0.02932 0.24576 0.53093 0.0
C2984 C 0.02579 0.25024 0.50882 0.0
C2985 C 0.02588 0.26347 0.54758 0.0
C2986 C 0.01591 0.33222 0.55718 0.0
H2987 H 1.00578 0.3643 0.66949 0.0
H2988 H 1.01272 0.33558 0.63976 0.0
H2989 H 0.01362 0.37036 0.57095 0.0
H2990 H 0.01577 0.27691 0.48695 0.0
H2991 H 1.00985 0.30804 0.51595 0.0
H2992 H 1.01008 0.27561 0.58455 0.0
C2993 C 1.00762 0.35335 0.6355 0.0
C2994 C 1.01266 0.34975 0.57414 0.0
C2995 C 1.00373 0.37003 0.65264 0.0
C2996 C 0.01877 0.27301 0.50378 0.0
C2997 C 0.01539 0.29087 0.52043 0.0
C2998 C 1.011 0.29624 0.58137 0.0
C2999 C 1.00497 0.35944 0.61326 0.0
C3000 C 1.00852 0.3408 0.59501 0.0
C3001 C 0.01886 0.28633 0.54262 0.0
C3002 C 0.01519 0.30518 0.56056 0.0
H3003 H 0.98969 0.41779 0.62175 0.0
H3004 H 0.99627 0.38865 0.59196 0.0
H3005 H 1.00428 0.3059 0.61383 0.0
H3006 H 0.03492 0.22867 0.53537 0.0
H3007 H 0.02894 0.25942 0.56434 0.0
C3008 C 0.74456 0.12901 0.87759 0.0
C3009 C 0.74735 0.13574 0.89963 0.0
C3010 C 0.74824 0.14537 0.86006 0.0
C3011 C 0.75813 0.21429 0.84847 0.0
H3012 H 0.76777 0.18676 0.79114 0.0
C3013 C 0.77971 0.27956 0.77923 0.0
C3014 C 0.77547 0.27536 0.75744 0.0
C3015 C 0.77626 0.26235 0.79623 0.0
C3016 C 0.76498 0.19482 0.80698 0.0
H3017 H 0.7567 0.16477 0.92021 0.0
H3018 H 0.76344 0.1927 0.88986 0.0
H3019 H 0.76233 0.15701 0.82116 0.0
H3020 H 0.76397 0.24997 0.7366 0.0
H3021 H 0.75809 0.2196 0.76618 0.0
H3022 H 0.76095 0.25207 0.83435 0.0
C3023 C 0.75805 0.17516 0.88602 0.0
C3024 C 0.76183 0.1777 0.82428 0.0
C3025 C 0.75428 0.15893 0.90353 0.0
C3026 C 0.76761 0.25351 0.75311 0.0
C3027 C 0.76423 0.23612 0.7701 0.0
C3028 C 0.76137 0.23136 0.83125 0.0
C3029 C 0.75492 0.16892 0.86399 0.0
C3030 C 0.75836 0.18713 0.84537 0.0
C3031 C 0.76849 0.24031 0.79195 0.0
C3032 C 0.76487 0.22193 0.81023 0.0
H3033 H 0.73916 0.11143 0.87388 0.0
H3034 H 0.74549 0.13985 0.84347 0.0
H3035 H 0.75523 0.22253 0.86418 0.0
H3036 H 0.78591 0.29601 0.78311 0.0
H3037 H 0.77989 0.26611 0.81271 0.0
C3038 C 0.49296 0.02238 0.76294 0.0
C3039 C 0.50209 1.00399 0.75517 0.0
C3040 C 0.49627 0.03993 0.77982 0.0
C3041 C 0.51961 0.04877 0.82636 0.0
H3042 H 0.50769 0.12034 0.82525 0.0
C3043 C 0.52486 0.1162 0.90267 0.0
C3044 C 0.52902 0.14198 0.89915 0.0
C3045 C 0.52132 0.10012 0.88492 0.0
C3046 C 0.51117 0.10046 0.82581 0.0
H3047 H 0.52215 0.99076 0.75842 0.0
H3048 H 0.52785 0.02077 0.78815 0.0
H3049 H 0.50241 0.09133 0.79453 0.0
H3050 H 0.53237 0.171 0.87382 0.0
H3051 H 0.52611 0.14303 0.84292 0.0
H3052 H 0.52841 0.05785 0.85754 0.0
C3053 C 0.51802 0.02138 0.78147 0.0
C3054 C 0.50803 0.0837 0.80824 0.0
C3055 C 0.51472 1.00399 0.76445 0.0
C3056 C 0.5292 0.15135 0.87729 0.0
C3057 C 0.52557 0.13527 0.85951 0.0
C3058 C 0.52265 0.06543 0.84399 0.0
C3059 C 0.50882 0.03952 0.78955 0.0
C3060 C 0.51222 0.05759 0.80821 0.0
C3061 C 0.52175 0.10927 0.86303 0.0
C3062 C 0.51847 0.09156 0.84404 0.0
H3063 H 0.48312 0.02282 0.75626 0.0
H3064 H 0.48887 0.05338 0.78565 0.0
H3065 H 0.52292 0.02879 0.82712 0.0
H3066 H 0.52454 0.10816 0.91918 0.0
H3067 H 0.51824 0.08041 0.88841 0.0
C3068 C 0.78486 0.01728 0.51569 0.0
C3069 C 0.77575 0.99888 0.52334 0.0
C3070 C 0.78155 0.03481 0.49882 0.0
C3071 C 0.75802 0.04435 0.45254 0.0
H3072 H 0.77044 0.11551 0.45402 0.0
C3073 C 0.75212 0.11323 0.37725 0.0
C3074 C 0.74834 0.13913 0.38136 0.0
C3075 C 0.75582 0.09666 0.39459 0.0
C3076 C 0.76681 0.09575 0.45335 0.0
H3077 H 0.75579 0.98531 0.51994 0.0
H3078 H 0.75001 0.01559 0.49031 0.0
H3079 H 0.7757 0.08606 0.48437 0.0
H3080 H 0.74583 0.16784 0.40724 0.0
H3081 H 0.75229 0.13904 0.43737 0.0
H3082 H 0.74901 0.05408 0.42167 0.0
C3083 C 0.75984 0.01621 0.49703 0.0
C3084 C 0.76995 0.07873 0.47071 0.0
C3085 C 0.76314 0.99877 0.51401 0.0
C3086 C 0.74871 0.14811 0.40333 0.0
C3087 C 0.75246 0.13154 0.42067 0.0
C3088 C 0.75495 0.06131 0.43513 0.0
C3089 C 0.76902 0.03443 0.48907 0.0
C3090 C 0.76559 0.05274 0.4706 0.0
C3091 C 0.7559 0.10543 0.41661 0.0
C3092 C 0.75929 0.0873 0.43523 0.0
H3093 H 0.79467 0.01782 0.52252 0.0
H3094 H 0.78895 0.04829 0.49307 0.0
H3095 H 0.75458 0.02447 0.45167 0.0
H3096 H 0.752 0.10549 0.36063 0.0
H3097 H 0.7586 0.07687 0.39068 0.0
C3098 C 0.51406 0.27024 0.52131 0.0
C3099 C 0.50111 0.27241 0.52906 0.0
C3100 C 0.51724 0.25279 0.50425 0.0
C3101 C 0.50231 0.21588 0.45765 0.0
H3102 H 0.53493 0.17718 0.45874 0.0
C3103 C 0.522 0.15878 0.38129 0.0
C3104 C 0.52833 0.13479 0.38487 0.0
C3105 C 0.51821 0.17466 0.39907 0.0
C3106 C 0.52572 0.18765 0.45819 0.0
H3107 H 0.4814 0.25764 0.52527 0.0
H3108 H 0.48689 0.22713 0.49563 0.0
H3109 H 0.52941 0.20607 0.48936 0.0
H3110 H 0.53537 0.10874 0.41039 0.0
H3111 H 0.52875 0.1363 0.44128 0.0
H3112 H 0.4986 0.19739 0.42653 0.0
C3113 C 0.49461 0.23909 0.50248 0.0
C3114 C 0.52261 0.20451 0.47571 0.0
C3115 C 0.49146 0.25642 0.51961 0.0
C3116 C 0.53052 0.12699 0.40686 0.0
C3117 C 0.52681 0.14297 0.42465 0.0
C3118 C 0.50546 0.19917 0.44006 0.0
C3119 C 0.50754 0.23708 0.49441 0.0
C3120 C 0.51085 0.21891 0.47574 0.0
C3121 C 0.52071 0.16718 0.42105 0.0
C3122 C 0.51722 0.18477 0.44003 0.0
H3123 H 0.52173 0.28209 0.52843 0.0
H3124 H 0.52729 0.25199 0.49847 0.0
H3125 H 0.49323 0.22676 0.45689 0.0
H3126 H 0.52016 0.16559 0.36466 0.0
H3127 H 0.51365 0.19321 0.39554 0.0
C3128 C 0.2578 0.77247 0.27922 0.0
C3129 C 0.25097 0.74955 0.27403 0.0
C3130 C 0.26101 0.7906 0.26271 0.0
C3131 C 0.2523 0.80999 0.20479 0.0
H3132 H 0.28507 0.84787 0.2074 0.0
C3133 C 0.27233 0.86957 0.13053 0.0
C3134 C 0.27877 0.89326 0.13473 0.0
C3135 C 0.26845 0.8532 0.14788 0.0
C3136 C 0.2758 0.83772 0.20651 0.0
H3137 H 0.24214 0.72785 0.24729 0.0
H3138 H 0.24806 0.75874 0.2185 0.0
H3139 H 0.27958 0.81708 0.23657 0.0
H3140 H 0.28595 0.91829 0.16085 0.0
H3141 H 0.27915 0.8898 0.19107 0.0
H3142 H 0.24862 0.83037 0.17455 0.0
C3143 C 0.25077 0.76315 0.23536 0.0
C3144 C 0.27262 0.81999 0.22333 0.0
C3145 C 0.24753 0.74513 0.25188 0.0
C3146 C 0.28099 0.90028 0.15689 0.0
C3147 C 0.27719 0.88379 0.17427 0.0
C3148 C 0.25551 0.8276 0.18793 0.0
C3149 C 0.25751 0.78628 0.24047 0.0
C3150 C 0.26084 0.8057 0.22271 0.0
C3151 C 0.27096 0.85988 0.17002 0.0
C3152 C 0.26733 0.84168 0.18846 0.0
H3153 H 0.26069 0.77639 0.29609 0.0
H3154 H 0.26606 0.8082 0.26749 0.0
H3155 H 0.24301 0.79991 0.20382 0.0
H3156 H 0.27045 0.86336 0.11374 0.0
H3157 H 0.2638 0.83489 0.14386 0.0
C3158 C 0.51928 1.00363 0.27999 0.0
C3159 C 0.52714 0.02543 0.27552 0.0
C3160 C 0.51606 0.98592 0.26318 0.0
C3161 C 0.52584 0.9656 0.2058 0.0
H3162 H 0.49196 0.93161 0.20616 0.0
C3163 C 0.50542 0.90832 0.13034 0.0
C3164 C 0.49858 0.88503 0.13444 0.0
C3165 C 0.50943 0.92443 0.14779 0.0
C3166 C 0.50153 0.9407 0.2059 0.0
H3167 H 0.53769 0.04575 0.24977 0.0
H3168 H 0.53172 0.01571 0.22038 0.0
H3169 H 0.49761 0.9617 0.23572 0.0
H3170 H 0.49083 0.86045 0.16044 0.0
H3171 H 0.49777 0.88854 0.19076 0.0
H3172 H 0.52959 0.94495 0.17565 0.0
C3173 C 0.52827 1.0117 0.23694 0.0
C3174 C 0.50481 0.958 0.22296 0.0
C3175 C 0.53157 0.02922 0.25378 0.0
C3176 C 0.49609 0.87814 0.15656 0.0
C3177 C 0.49998 0.8944 0.17399 0.0
C3178 C 0.5225 0.94849 0.18864 0.0
C3179 C 0.5205 0.98965 0.24133 0.0
C3180 C 0.51702 0.97081 0.22321 0.0
C3181 C 0.50661 0.9179 0.16987 0.0
C3182 C 0.51029 0.93579 0.18841 0.0
H3183 H 0.51557 1.00031 0.29651 0.0
H3184 H 0.51019 0.96914 0.26744 0.0
H3185 H 0.53545 0.97451 0.20547 0.0
H3186 H 0.50751 0.91437 0.11359 0.0
H3187 H 0.51441 0.94243 0.14392 0.0
C3188 C 0.27488 0.91126 0.65251 0.0
C3189 C 0.27863 0.88517 0.64922 0.0
C3190 C 0.27109 0.92702 0.6347 0.0
C3191 C 0.25941 0.92556 0.57645 0.0
H3192 H 0.27248 0.99626 0.575 0.0
C3193 C 0.24107 1.00287 0.51293 0.0
C3194 C 0.25037 0.02014 0.50406 0.0
C3195 C 0.24448 0.98563 0.52999 0.0
C3196 C 0.26879 0.97653 0.57501 0.0
H3197 H 0.28095 0.85526 0.62429 0.0
H3198 H 0.27423 0.88267 0.59332 0.0
H3199 H 0.27821 0.96788 0.60578 0.0
H3200 H 0.2707 0.03194 0.50551 0.0
H3201 H 0.27663 1.00226 0.53547 0.0
H3202 H 0.25003 0.93425 0.54559 0.0
C3203 C 0.27422 0.89093 0.60976 0.0
C3204 C 0.27197 0.96029 0.59286 0.0
C3205 C 0.27811 0.87518 0.62758 0.0
C3206 C 0.26323 0.01934 0.51234 0.0
C3207 C 0.26662 1.00226 0.52952 0.0
C3208 C 0.25612 0.94191 0.55868 0.0
C3209 C 0.27083 0.91722 0.613 0.0
C3210 C 0.26734 0.93453 0.59388 0.0
C3211 C 0.25727 0.98527 0.53875 0.0
C3212 C 0.26079 0.96765 0.55765 0.0
H3213 H 0.27511 0.91977 0.66886 0.0
H3214 H 0.26837 0.947 0.63797 0.0
H3215 H 0.25557 0.90594 0.57666 0.0
H3216 H 0.23106 1.00311 0.50699 0.0
H3217 H 0.23697 0.97305 0.53672 0.0
C3218 C 0.50403 0.86689 0.65388 0.0
C3219 C 0.49847 0.89149 0.64977 0.0
C3220 C 0.50781 0.85054 0.63645 0.0
C3221 C 0.51508 0.84934 0.57587 0.0
H3222 H 0.50843 0.77559 0.58237 0.0
C3223 C 0.53394 0.77283 0.51227 0.0
C3224 C 0.526 0.75113 0.50787 0.0
C3225 C 0.53058 0.79053 0.52901 0.0
C3226 C 0.51026 0.79614 0.58011 0.0
H3227 H 0.49282 0.91817 0.62375 0.0
H3228 H 0.49931 0.88967 0.59343 0.0
H3229 H 0.50278 0.80517 0.61226 0.0
H3230 H 0.50807 0.73151 0.51708 0.0
H3231 H 0.50211 0.76235 0.54613 0.0
H3232 H 0.5223 0.84031 0.54349 0.0
C3233 C 0.50088 0.88308 0.61019 0.0
C3234 C 0.50719 0.81315 0.59747 0.0
C3235 C 0.49711 0.89947 0.62765 0.0
C3236 C 0.51447 0.74786 0.52027 0.0
C3237 C 0.5111 0.76553 0.53702 0.0
C3238 C 0.51817 0.8323 0.55849 0.0
C3239 C 0.50613 0.85819 0.6143 0.0
C3240 C 0.50955 0.84005 0.59567 0.0
C3241 C 0.51917 0.78704 0.54182 0.0
C3242 C 0.51581 0.8054 0.56031 0.0
H3243 H 0.5053 0.86001 0.67064 0.0
H3244 H 0.51204 0.83181 0.64039 0.0
H3245 H 0.51717 0.86983 0.57383 0.0
H3246 H 0.54296 0.77576 0.50315 0.0
H3247 H 0.53715 0.80659 0.53229 0.0
C3248 C 0.7545 0.6598 0.40463 0.0
C3249 C 0.74815 0.63612 0.40009 0.0
C3250 C 0.75834 0.67654 0.3875 0.0
C3251 C 0.76354 0.67994 0.32612 0.0
H3252 H 0.76055 0.75409 0.33625 0.0
C3253 C 0.76903 0.75621 0.2554 0.0
C3254 C 0.77613 0.77893 0.2602 0.0
C3255 C 0.7657 0.73855 0.2722 0.0
C3256 C 0.76158 0.73346 0.33315 0.0
H3257 H 0.74107 0.61151 0.37361 0.0
H3258 H 0.74753 0.64074 0.34388 0.0
H3259 H 0.75492 0.72386 0.36566 0.0
H3260 H 0.78541 0.80064 0.28651 0.0
H3261 H 0.77945 0.77027 0.31576 0.0
H3262 H 0.77002 0.68972 0.29343 0.0
C3263 C 0.74978 0.64628 0.36069 0.0
C3264 C 0.75838 0.71601 0.35013 0.0
C3265 C 0.74601 0.62945 0.37784 0.0
C3266 C 0.77972 0.78362 0.28225 0.0
C3267 C 0.77632 0.76611 0.29906 0.0
C3268 C 0.76666 0.69743 0.30908 0.0
C3269 C 0.75587 0.67028 0.36523 0.0
C3270 C 0.75935 0.68892 0.34696 0.0
C3271 C 0.76929 0.74324 0.29431 0.0
C3272 C 0.76577 0.72447 0.31236 0.0
H3273 H 0.75639 0.66564 0.42151 0.0
H3274 H 0.76325 0.69447 0.39181 0.0
H3275 H 0.76464 0.65934 0.32299 0.0
H3276 H 0.76597 0.75216 0.23864 0.0
H3277 H 0.76015 0.72136 0.2679 0.0
C3278 C 0.49128 0.52184 0.26367 0.0
C3279 C 0.50036 0.50345 0.25579 0.0
C3280 C 0.49464 0.53914 0.2807 0.0
C3281 C 0.51827 0.54751 0.32705 0.0
H3282 H 0.50583 0.61873 0.32704 0.0
C3283 C 0.5244 0.61443 0.40364 0.0
C3284 C 0.52815 0.64043 0.40001 0.0
C3285 C 0.52066 0.59831 0.38602 0.0
C3286 C 0.50946 0.59894 0.3273 0.0
H3287 H 0.52033 0.48975 0.25892 0.0
H3288 H 0.5262 0.51966 0.28874 0.0
H3289 H 0.50049 0.59009 0.29617 0.0
H3290 H 0.53056 0.66978 0.37465 0.0
H3291 H 0.52402 0.64179 0.34403 0.0
H3292 H 0.52736 0.55638 0.35804 0.0
C3293 C 0.51636 0.52044 0.2821 0.0
C3294 C 0.50628 0.58238 0.30963 0.0
C3295 C 0.513 0.50325 0.26498 0.0
C3296 C 0.52771 0.64996 0.37821 0.0
C3297 C 0.52391 0.63385 0.36058 0.0
C3298 C 0.52138 0.564 0.34477 0.0
C3299 C 0.5072 0.53854 0.29038 0.0
C3300 C 0.51065 0.55639 0.30919 0.0
C3301 C 0.52049 0.60765 0.36416 0.0
C3302 C 0.51704 0.59001 0.3452 0.0
H3303 H 0.48144 0.52245 0.25697 0.0
H3304 H 0.48725 0.55256 0.28666 0.0
H3305 H 0.52172 0.5276 0.32752 0.0
H3306 H 0.52458 0.60627 0.42012 0.0
H3307 H 0.51791 0.57843 0.38957 0.0
C3308 C 0.74593 0.65135 0.90663 0.0
C3309 C 0.74829 0.64395 0.88459 0.0
C3310 C 0.7498 0.63532 0.92427 0.0
C3311 C 0.77195 0.58005 0.93884 0.0
H3312 H 0.74791 0.56986 0.98766 0.0
C3313 C 0.78043 0.49883 1.00372 0.0
C3314 C 0.77691 0.50343 0.02583 0.0
C3315 C 0.7771 0.51656 0.98704 0.0
C3316 C 0.75486 0.57269 0.97436 0.0
H3317 H 0.75693 0.61385 0.8641 0.0
H3318 H 0.76371 0.58619 0.89467 0.0
H3319 H 0.7422 0.59992 0.95804 0.0
H3320 H 0.76697 0.53034 0.04763 0.0
H3321 H 0.76144 0.56168 0.01872 0.0
H3322 H 0.78465 0.553 0.95511 0.0
C3323 C 0.75889 0.60444 0.8984 0.0
C3324 C 0.75156 0.59 0.95729 0.0
C3325 C 0.75494 0.62034 0.88078 0.0
C3326 C 0.76993 0.52628 0.03081 0.0
C3327 C 0.76663 0.54413 1.01412 0.0
C3328 C 0.77528 0.56285 0.95595 0.0
C3329 C 0.75626 0.6115 0.92043 0.0
C3330 C 0.76001 0.59381 0.93916 0.0
C3331 C 0.77019 0.53961 0.99192 0.0
C3332 C 0.76675 0.55868 0.97394 0.0
H3333 H 0.74082 0.6693 0.91029 0.0
H3334 H 0.74774 0.64162 0.94097 0.0
H3335 H 0.77883 0.58272 0.92541 0.0
H3336 H 0.78594 0.48161 0.99928 0.0
H3337 H 0.77987 0.51199 0.97022 0.0
C3338 C 0.52447 0.66116 0.88045 0.0
C3339 C 0.52928 0.63585 0.88418 0.0
C3340 C 0.52079 0.67731 0.89809 0.0
C3341 C 0.51179 0.67737 0.95791 0.0
H3342 H 0.52109 0.75027 0.9543 0.0
C3343 C 0.49269 0.75453 0.02096 0.0
C3344 C 0.5012 0.77473 0.02719 0.0
C3345 C 0.49619 0.73691 1.00422 0.0
C3346 C 0.51848 0.72995 0.95574 0.0
H3347 H 0.53366 0.60775 0.90981 0.0
H3348 H 0.52722 0.63585 0.94052 0.0
H3349 H 0.52683 0.72105 0.92414 0.0
H3350 H 0.52034 0.79144 0.02134 0.0
H3351 H 0.52646 0.76092 0.99208 0.0
H3352 H 0.50356 0.68629 0.98967 0.0
C3353 C 0.52623 0.64318 0.92385 0.0
C3354 C 0.52164 0.71316 0.93822 0.0
C3355 C 0.52998 0.62702 0.90617 0.0
C3356 C 0.51345 0.77644 1.01662 0.0
C3357 C 0.51693 0.75891 0.9998 0.0
C3358 C 0.50855 0.69421 0.97539 0.0
C3359 C 0.52175 0.66874 0.92011 0.0
C3360 C 0.51834 0.68659 0.93898 0.0
C3361 C 0.50832 0.73897 0.99317 0.0
C3362 C 0.51186 0.72079 0.97461 0.0
H3363 H 0.52373 0.66877 0.86383 0.0
H3364 H 0.51717 0.69662 0.89441 0.0
H3365 H 0.50898 0.65713 0.95912 0.0
H3366 H 0.48315 0.75273 0.02871 0.0
H3367 H 0.48921 0.72206 0.99954 0.0
C3368 C 0.26345 0.25343 0.76848 0.0
C3369 C 0.25102 0.25449 0.77849 0.0
C3370 C 0.26679 0.2706 0.75135 0.0
C3371 C 0.25735 0.33363 0.72501 0.0
H3372 H 0.27694 0.3066 0.67516 0.0
C3373 C 0.27867 0.4003 0.65567 0.0
C3374 C 0.2786 0.39091 0.63382 0.0
C3375 C 0.27488 0.38432 0.6734 0.0
C3376 C 0.27138 0.31451 0.68884 0.0
H3377 H 0.23249 0.27499 0.77877 0.0
H3378 H 0.23828 0.30507 0.74903 0.0
H3379 H 0.27135 0.27792 0.70576 0.0
H3380 H 0.2741 0.35719 0.61371 0.0
H3381 H 0.26743 0.32959 0.64442 0.0
H3382 H 0.25726 0.37016 0.70791 0.0
C3383 C 0.24551 0.291 0.75437 0.0
C3384 C 0.2683 0.29806 0.70661 0.0
C3385 C 0.24216 0.27372 0.77143 0.0
C3386 C 0.27433 0.36522 0.63023 0.0
C3387 C 0.2706 0.34923 0.64794 0.0
C3388 C 0.2605 0.35013 0.70728 0.0
C3389 C 0.25782 0.28953 0.74386 0.0
C3390 C 0.26123 0.30732 0.72499 0.0
C3391 C 0.27096 0.3584 0.66985 0.0
C3392 C 0.26754 0.34082 0.68886 0.0
H3393 H 0.2706 0.23921 0.77388 0.0
H3394 H 0.27645 0.26913 0.74405 0.0
H3395 H 0.252 0.34161 0.73889 0.0
H3396 H 0.28192 0.41989 0.6592 0.0
H3397 H 0.27541 0.3921 0.68998 0.0
C3398 C 0.51864 0.50374 0.78037 0.0
C3399 C 0.52646 0.52558 0.77579 0.0
C3400 C 0.51531 0.48609 0.76357 0.0
C3401 C 0.51243 0.48058 0.70255 0.0
H3402 H 0.51355 0.40636 0.71323 0.0
C3403 C 0.50523 0.40723 0.63102 0.0
C3404 C 0.49826 0.38415 0.63524 0.0
C3405 C 0.50908 0.42367 0.64832 0.0
C3406 C 0.513 0.42701 0.70995 0.0
H3407 H 0.5369 0.54593 0.7499 0.0
H3408 H 0.53097 0.51554 0.72063 0.0
H3409 H 0.51899 0.4365 0.74296 0.0
H3410 H 0.4901 0.36027 0.66134 0.0
H3411 H 0.49656 0.38905 0.69137 0.0
H3412 H 0.50624 0.47132 0.66975 0.0
C3413 C 0.52733 0.512 0.73716 0.0
C3414 C 0.51615 0.44434 0.72708 0.0
C3415 C 0.53074 0.52947 0.75397 0.0
C3416 C 0.49552 0.37775 0.65737 0.0
C3417 C 0.49928 0.39431 0.67469 0.0
C3418 C 0.50919 0.46329 0.6855 0.0
C3419 C 0.51958 0.49 0.74169 0.0
C3420 C 0.51597 0.4714 0.7236 0.0
C3421 C 0.50599 0.41774 0.67045 0.0
C3422 C 0.50947 0.43618 0.68884 0.0
H3423 H 0.51499 0.50045 0.79693 0.0
H3424 H 0.50919 0.4696 0.76767 0.0
H3425 H 0.51196 0.50125 0.69929 0.0
H3426 H 0.50761 0.41282 0.61425 0.0
H3427 H 0.51449 0.44112 0.64426 0.0
C3428 C 0.27936 0.37842 0.12877 0.0
C3429 C 0.27766 0.38623 0.15088 0.0
C3430 C 0.27565 0.39479 0.11124 0.0
C3431 C 0.26882 0.46467 0.09869 0.0
H3432 H 0.25453 0.43756 0.04412 0.0
C3433 C 0.26147 0.53075 0.02195 0.0
C3434 C 0.25013 0.52712 1.00917 0.0
C3435 C 0.26489 0.51301 0.03861 0.0
C3436 C 0.25843 0.44556 0.05928 0.0
H3437 H 0.27026 0.41738 0.17161 0.0
H3438 H 0.26366 0.44548 0.1413 0.0
H3439 H 0.25972 0.40787 0.07432 0.0
H3440 H 0.23353 0.50173 1.00383 0.0
H3441 H 0.23942 0.47078 0.03279 0.0
H3442 H 0.26731 0.50236 0.08391 0.0
C3443 C 0.26811 0.42693 0.1374 0.0
C3444 C 0.26156 0.42841 0.07659 0.0
C3445 C 0.27181 0.41061 0.15488 0.0
C3446 C 0.24242 0.50498 1.01319 0.0
C3447 C 0.24582 0.48719 0.02985 0.0
C3448 C 0.26572 0.48177 0.08141 0.0
C3449 C 0.27013 0.41949 0.11526 0.0
C3450 C 0.26677 0.43769 0.09663 0.0
C3451 C 0.25706 0.49103 0.04299 0.0
C3452 C 0.26046 0.47254 0.06139 0.0
H3453 H 0.28387 0.3599 0.12494 0.0
H3454 H 0.27748 0.38835 0.0945 0.0
H3455 H 0.27298 0.47267 0.11365 0.0
H3456 H 0.26772 0.54743 0.01908 0.0
H3457 H 0.27374 0.5165 0.04799 0.0
C3458 C 0.52986 0.24809 0.02985 0.0
C3459 C 0.5255 0.25183 1.00807 0.0
C3460 C 0.52649 0.26568 0.04663 0.0
C3461 C 0.50301 0.3195 0.06048 0.0
H3462 H 0.52785 0.33284 0.10752 0.0
C3463 C 0.49426 0.39956 0.12686 0.0
C3464 C 0.49689 0.39276 0.14895 0.0
C3465 C 0.49811 0.38326 0.1094 0.0
C3466 C 0.52075 0.32922 0.09461 0.0
H3467 H 0.51392 0.2768 0.98699 0.0
H3468 H 0.50842 0.30809 1.01596 0.0
H3469 H 0.5337 0.30313 0.07777 0.0
H3470 H 0.50599 0.36353 0.16971 0.0
H3471 H 0.5128 0.33541 0.13934 0.0
H3472 H 0.49014 0.34596 0.07729 0.0
C3473 C 0.5143 0.29133 0.02028 0.0
C3474 C 0.52408 0.31203 0.07749 0.0
C3475 C 0.5176 0.27356 1.00353 0.0
C3476 C 0.50379 0.36952 0.15298 0.0
C3477 C 0.50775 0.35337 0.1355 0.0
C3478 C 0.49973 0.33689 0.0775 0.0
C3479 C 0.51872 0.28773 0.04215 0.0
C3480 C 0.51524 0.30669 0.06019 0.0
C3481 C 0.50482 0.35981 0.11346 0.0
C3482 C 0.50851 0.34189 0.0949 0.0
H3483 H 0.536 0.2316 0.03393 0.0
H3484 H 0.52992 0.26175 0.0632 0.0
H3485 H 0.4958 0.31573 0.04778 0.0
H3486 H 0.48895 0.41722 0.12303 0.0
H3487 H 0.49581 0.38905 0.09266 0.0
loop_
_geom_bond_atom_site_label_1
_geom_bond_atom_site_label_2
_geom_bond_distance
_geom_bond_site_symmetry_2
_ccdc_geom_bond_type
Co0 O3 1.970 . S
Co0 N17 1.989 . S
Co0 O25 1.967 . S
Co0 O32 1.920 . S
Co1 O4 1.966 . S
Co1 N10 2.022 . S
Co1 N18 1.993 . S
Co1 O26 1.941 . S
C2 O3 1.258 . S
C2 O4 1.263 . S
O3 Co0 1.970 . S
O3 C2 1.258 . S
O4 Co1 1.966 . S
O4 C2 1.263 . S
C5 O6 1.235 . S
C5 O32 1.289 . S
O6 C5 1.235 . S
C7 C9 1.400 . S
C7 N10 1.351 . S
C7 C12 1.501 . S
C8 C9 1.387 . S
C8 N11 1.341 . S
C9 C7 1.400 . S
C9 C8 1.387 . S
N10 Co1 2.022 . S
N10 C7 1.351 . S
N10 N11 1.365 . S
N11 C8 1.341 . S
N11 N10 1.365 . S
N11 H31 0.862 . S
C12 C7 1.501 . S
C12 H13 0.961 . S
C12 H14 0.961 . S
C12 H15 0.960 . S
H13 C12 0.961 . S
H14 C12 0.961 . S
H15 C12 0.960 . S
C16 N17 1.342 . S
C16 C20 1.401 . S
C16 C21 1.499 . S
N17 Co0 1.989 . S
N17 C16 1.342 . S
N17 N18 1.388 . S
N18 Co1 1.993 . S
N18 N17 1.388 . S
N18 C19 1.346 . S
C19 N18 1.346 . S
C19 C20 1.396 . S
C19 C29 1.510 . S
C20 C16 1.401 . S
C20 C19 1.396 . S
C21 C16 1.499 . S
C21 H22 0.959 . S
C21 H23 0.960 . S
C21 H24 0.961 . S
H22 C21 0.959 . S
H23 C21 0.960 . S
H24 C21 0.961 . S
O25 Co0 1.967 . S
O25 C33 1.258 . S
O26 Co1 1.941 . S
O26 C33 1.266 . S
H27 C29 0.959 . S
H28 C29 0.961 . S
C29 C19 1.510 . S
C29 H27 0.959 . S
C29 H28 0.961 . S
C29 H30 0.960 . S
H30 C29 0.960 . S
H31 N11 0.862 . S
O32 Co0 1.920 . S
O32 C5 1.289 . S
C33 O25 1.258 . S
C33 O26 1.266 . S
Co34 O37 1.970 . S
Co34 N51 1.988 . S
Co34 O59 1.967 . S
Co34 O66 1.920 1_565 S
Co35 O38 1.966 . S
Co35 N44 2.022 . S
Co35 N52 1.993 . S
Co35 O60 1.941 . S
C36 O37 1.258 . S
C36 O38 1.263 . S
O37 Co34 1.970 . S
O37 C36 1.258 . S
O38 Co35 1.966 . S
O38 C36 1.263 . S
C39 O40 1.235 . S
C39 O66 1.289 . S
O40 C39 1.235 . S
C41 C43 1.400 . S
C41 N44 1.351 . S
C41 C46 1.501 . S
C42 C43 1.387 . S
C42 N45 1.341 . S
C43 C41 1.400 . S
C43 C42 1.387 . S
N44 Co35 2.022 . S
N44 C41 1.351 . S
N44 N45 1.365 . S
N45 C42 1.341 . S
N45 N44 1.365 . S
N45 H65 0.862 . S
C46 C41 1.501 . S
C46 H47 0.961 . S
C46 H48 0.961 . S
C46 H49 0.960 . S
H47 C46 0.961 . S
H48 C46 0.961 . S
H49 C46 0.960 . S
C50 N51 1.345 1_545 S
C50 C54 1.401 . S
C50 C55 1.499 . S
N51 Co34 1.988 . S
N51 C50 1.345 1_565 S
N51 N52 1.385 . S
N52 Co35 1.993 . S
N52 N51 1.385 . S
N52 C53 1.346 . S
C53 N52 1.346 . S
C53 C54 1.396 1_565 S
C53 C63 1.510 . S
C54 C50 1.401 . S
C54 C53 1.396 1_545 S
C55 C50 1.499 . S
C55 H56 0.959 . S
C55 H57 0.960 . S
C55 H58 0.961 . S
H56 C55 0.959 . S
H57 C55 0.960 . S
H58 C55 0.961 . S
O59 Co34 1.967 . S
O59 C67 1.258 . S
O60 Co35 1.941 . S
O60 C67 1.266 . S
H61 C63 0.959 . S
H62 C63 0.961 . S
C63 C53 1.510 . S
C63 H61 0.959 . S
C63 H62 0.961 . S
C63 H64 0.960 . S
H64 C63 0.960 . S
H65 N45 0.862 . S
O66 Co34 1.920 1_545 S
O66 C39 1.289 . S
C67 O59 1.258 . S
C67 O60 1.266 . S
Co68 O71 1.970 . S
Co68 N85 1.988 . S
Co68 O93 1.967 . S
Co68 O100 1.920 1_565 S
Co69 O72 1.966 . S
Co69 N78 2.022 1_554 S
Co69 N86 1.993 . S
Co69 O94 1.941 . S
C70 O71 1.258 . S
C70 O72 1.263 . S
O71 Co68 1.970 . S
O71 C70 1.258 . S
O72 Co69 1.966 . S
O72 C70 1.263 . S
C73 O74 1.235 . S
C73 O100 1.289 . S
O74 C73 1.235 . S
C75 C77 1.400 . S
C75 N78 1.351 . S
C75 C80 1.501 . S
C76 C77 1.387 . S
C76 N79 1.341 . S
C77 C75 1.400 . S
C77 C76 1.387 . S
N78 Co69 2.022 1_556 S
N78 C75 1.351 . S
N78 N79 1.365 . S
N79 C76 1.341 . S
N79 N78 1.365 . S
N79 H99 0.862 . S
C80 C75 1.501 . S
C80 H81 0.961 . S
C80 H82 0.961 . S
C80 H83 0.960 . S
H81 C80 0.961 . S
H82 C80 0.961 . S
H83 C80 0.960 . S
C84 N85 1.345 1_545 S
C84 C88 1.401 1_554 S
C84 C89 1.499 . S
N85 Co68 1.988 . S
N85 C84 1.345 1_565 S
N85 N86 1.385 . S
N86 Co69 1.993 . S
N86 N85 1.385 . S
N86 C87 1.346 1_554 S
C87 N86 1.346 1_556 S
C87 C88 1.396 1_565 S
C87 C97 1.510 . S
C88 C84 1.401 1_556 S
C88 C87 1.396 1_545 S
C89 C84 1.499 . S
C89 H90 0.959 . S
C89 H91 0.960 . S
C89 H92 0.961 . S
H90 C89 0.959 . S
H91 C89 0.960 . S
H92 C89 0.961 . S
O93 Co68 1.967 . S
O93 C101 1.258 . S
O94 Co69 1.941 . S
O94 C101 1.266 . S
H95 C97 0.959 . S
H96 C97 0.961 . S
C97 C87 1.510 . S
C97 H95 0.959 . S
C97 H96 0.961 . S
C97 H98 0.960 . S
H98 C97 0.960 . S
H99 N79 0.862 . S
O100 Co68 1.920 1_545 S
O100 C73 1.289 . S
C101 O93 1.258 . S
C101 O94 1.266 . S
Co102 O105 1.970 . S
Co102 N119 1.989 . S
Co102 O127 1.967 . S
Co102 O134 1.920 . S
Co103 O106 1.966 . S
Co103 N112 2.022 1_554 S
Co103 N120 1.993 . S
Co103 O128 1.941 . S
C104 O105 1.258 . S
C104 O106 1.263 . S
O105 Co102 1.970 . S
O105 C104 1.258 . S
O106 Co103 1.966 . S
O106 C104 1.263 . S
C107 O108 1.235 . S
C107 O134 1.289 . S
O108 C107 1.235 . S
C109 C111 1.400 . S
C109 N112 1.351 . S
C109 C114 1.501 . S
C110 C111 1.387 . S
C110 N113 1.341 . S
C111 C109 1.400 . S
C111 C110 1.387 . S
N112 Co103 2.022 1_556 S
N112 C109 1.351 . S
N112 N113 1.365 . S
N113 C110 1.341 . S
N113 N112 1.365 . S
N113 H133 0.862 . S
C114 C109 1.501 . S
C114 H115 0.961 . S
C114 H116 0.961 . S
C114 H117 0.960 . S
H115 C114 0.961 . S
H116 C114 0.961 . S
H117 C114 0.960 . S
C118 N119 1.342 . S
C118 C122 1.401 1_554 S
C118 C123 1.499 . S
N119 Co102 1.989 . S
N119 C118 1.342 . S
N119 N120 1.388 . S
N120 Co103 1.993 . S
N120 N119 1.388 . S
N120 C121 1.346 1_554 S
C121 N120 1.346 1_556 S
C121 C122 1.396 . S
C121 C131 1.510 . S
C122 C118 1.401 1_556 S
C122 C121 1.396 . S
C123 C118 1.499 . S
C123 H124 0.959 . S
C123 H125 0.960 . S
C123 H126 0.961 . S
H124 C123 0.959 . S
H125 C123 0.960 . S
H126 C123 0.961 . S
O127 Co102 1.967 . S
O127 C135 1.258 . S
O128 Co103 1.941 . S
O128 C135 1.266 . S
H129 C131 0.959 . S
H130 C131 0.961 . S
C131 C121 1.510 . S
C131 H129 0.959 . S
C131 H130 0.961 . S
C131 H132 0.960 . S
H132 C131 0.960 . S
H133 N113 0.862 . S
O134 Co102 1.920 . S
O134 C107 1.289 . S
C135 O127 1.258 . S
C135 O128 1.266 . S
Co136 O139 1.970 . S
Co136 N153 1.989 . S
Co136 O161 1.967 . S
Co136 O168 1.920 . S
Co137 O140 1.966 . S
Co137 N146 2.022 . S
Co137 N154 1.993 . S
Co137 O162 1.941 . S
C138 O139 1.258 . S
C138 O140 1.263 . S
O139 Co136 1.970 . S
O139 C138 1.258 . S
O140 Co137 1.966 . S
O140 C138 1.263 . S
C141 O142 1.235 . S
C141 O168 1.289 . S
O142 C141 1.235 . S
C143 C145 1.400 . S
C143 N146 1.351 . S
C143 C148 1.501 . S
C144 C145 1.387 . S
C144 N147 1.341 . S
C145 C143 1.400 . S
C145 C144 1.387 . S
N146 Co137 2.022 . S
N146 C143 1.351 . S
N146 N147 1.365 . S
N147 C144 1.341 . S
N147 N146 1.365 . S
N147 H167 0.862 . S
C148 C143 1.501 . S
C148 H149 0.961 . S
C148 H150 0.961 . S
C148 H151 0.960 . S
H149 C148 0.961 . S
H150 C148 0.961 . S
H151 C148 0.960 . S
C152 N153 1.342 . S
C152 C156 1.401 . S
C152 C157 1.499 . S
N153 Co136 1.989 . S
N153 C152 1.342 . S
N153 N154 1.388 . S
N154 Co137 1.993 . S
N154 N153 1.388 . S
N154 C155 1.346 . S
C155 N154 1.346 . S
C155 C156 1.396 . S
C155 C165 1.510 . S
C156 C152 1.401 . S
C156 C155 1.396 . S
C157 C152 1.499 . S
C157 H158 0.959 . S
C157 H159 0.960 . S
C157 H160 0.961 . S
H158 C157 0.959 . S
H159 C157 0.960 . S
H160 C157 0.961 . S
O161 Co136 1.967 . S
O161 C169 1.258 . S
O162 Co137 1.941 . S
O162 C169 1.266 . S
H163 C165 0.959 . S
H164 C165 0.961 . S
C165 C155 1.510 . S
C165 H163 0.959 . S
C165 H164 0.961 . S
C165 H166 0.960 . S
H166 C165 0.960 . S
H167 N147 0.862 . S
O168 Co136 1.920 . S
O168 C141 1.289 . S
C169 O161 1.258 . S
C169 O162 1.266 . S
Co170 O173 1.970 . S
Co170 N187 1.988 . S
Co170 O195 1.967 . S
Co170 O202 1.920 1_545 S
Co171 O174 1.966 . S
Co171 N180 2.022 . S
Co171 N188 1.993 . S
Co171 O196 1.941 . S
C172 O173 1.258 . S
C172 O174 1.263 . S
O173 Co170 1.970 . S
O173 C172 1.258 . S
O174 Co171 1.966 . S
O174 C172 1.263 . S
C175 O176 1.235 . S
C175 O202 1.289 . S
O176 C175 1.235 . S
C177 C179 1.400 . S
C177 N180 1.351 . S
C177 C182 1.501 . S
C178 C179 1.387 . S
C178 N181 1.341 . S
C179 C177 1.400 . S
C179 C178 1.387 . S
N180 Co171 2.022 . S
N180 C177 1.351 . S
N180 N181 1.365 . S
N181 C178 1.341 . S
N181 N180 1.365 . S
N181 H201 0.862 . S
C182 C177 1.501 . S
C182 H183 0.961 . S
C182 H184 0.961 . S
C182 H185 0.960 . S
H183 C182 0.961 . S
H184 C182 0.961 . S
H185 C182 0.960 . S
C186 N187 1.345 1_565 S
C186 C190 1.401 . S
C186 C191 1.499 . S
N187 Co170 1.988 . S
N187 C186 1.345 1_545 S
N187 N188 1.385 . S
N188 Co171 1.993 . S
N188 N187 1.385 . S
N188 C189 1.346 . S
C189 N188 1.346 . S
C189 C190 1.396 1_545 S
C189 C199 1.510 . S
C190 C186 1.401 . S
C190 C189 1.396 1_565 S
C191 C186 1.499 . S
C191 H192 0.959 . S
C191 H193 0.960 . S
C191 H194 0.961 . S
H192 C191 0.959 . S
H193 C191 0.960 . S
H194 C191 0.961 . S
O195 Co170 1.967 . S
O195 C203 1.258 . S
O196 Co171 1.941 . S
O196 C203 1.266 . S
H197 C199 0.959 . S
H198 C199 0.961 . S
C199 C189 1.510 . S
C199 H197 0.959 . S
C199 H198 0.961 . S
C199 H200 0.960 . S
H200 C199 0.960 . S
H201 N181 0.862 . S
O202 Co170 1.920 1_565 S
O202 C175 1.289 . S
C203 O195 1.258 . S
C203 O196 1.266 . S
Co204 O207 1.970 . S
Co204 N221 1.988 . S
Co204 O229 1.967 . S
Co204 O236 1.920 1_545 S
Co205 O208 1.966 . S
Co205 N214 2.022 1_556 S
Co205 N222 1.993 . S
Co205 O230 1.941 . S
C206 O207 1.258 . S
C206 O208 1.263 . S
O207 Co204 1.970 . S
O207 C206 1.258 . S
O208 Co205 1.966 . S
O208 C206 1.263 . S
C209 O210 1.235 . S
C209 O236 1.289 . S
O210 C209 1.235 . S
C211 C213 1.400 . S
C211 N214 1.351 . S
C211 C216 1.501 . S
C212 C213 1.387 . S
C212 N215 1.341 . S
C213 C211 1.400 . S
C213 C212 1.387 . S
N214 Co205 2.022 1_554 S
N214 C211 1.351 . S
N214 N215 1.365 . S
N215 C212 1.341 . S
N215 N214 1.365 . S
N215 H235 0.862 . S
C216 C211 1.501 . S
C216 H217 0.961 . S
C216 H218 0.961 . S
C216 H219 0.960 . S
H217 C216 0.961 . S
H218 C216 0.961 . S
H219 C216 0.960 . S
C220 N221 1.345 1_565 S
C220 C224 1.401 1_556 S
C220 C225 1.499 . S
N221 Co204 1.988 . S
N221 C220 1.345 1_545 S
N221 N222 1.385 . S
N222 Co205 1.993 . S
N222 N221 1.385 . S
N222 C223 1.346 1_556 S
C223 N222 1.346 1_554 S
C223 C224 1.396 1_545 S
C223 C233 1.510 . S
C224 C220 1.401 1_554 S
C224 C223 1.396 1_565 S
C225 C220 1.499 . S
C225 H226 0.959 . S
C225 H227 0.960 . S
C225 H228 0.961 . S
H226 C225 0.959 . S
H227 C225 0.960 . S
H228 C225 0.961 . S
O229 Co204 1.967 . S
O229 C237 1.258 . S
O230 Co205 1.941 . S
O230 C237 1.266 . S
H231 C233 0.959 . S
H232 C233 0.961 . S
C233 C223 1.510 . S
C233 H231 0.959 . S
C233 H232 0.961 . S
C233 H234 0.960 . S
H234 C233 0.960 . S
H235 N215 0.862 . S
O236 Co204 1.920 1_565 S
O236 C209 1.289 . S
C237 O229 1.258 . S
C237 O230 1.266 . S
Co238 O241 1.970 . S
Co238 N255 1.989 . S
Co238 O263 1.967 . S
Co238 O270 1.920 . S
Co239 O242 1.966 . S
Co239 N248 2.022 1_556 S
Co239 N256 1.993 . S
Co239 O264 1.941 . S
C240 O241 1.258 . S
C240 O242 1.263 . S
O241 Co238 1.970 . S
O241 C240 1.258 . S
O242 Co239 1.966 . S
O242 C240 1.263 . S
C243 O244 1.235 . S
C243 O270 1.289 . S
O244 C243 1.235 . S
C245 C247 1.400 . S
C245 N248 1.351 . S
C245 C250 1.501 . S
C246 C247 1.387 . S
C246 N249 1.341 . S
C247 C245 1.400 . S
C247 C246 1.387 . S
N248 Co239 2.022 1_554 S
N248 C245 1.351 . S
N248 N249 1.365 . S
N249 C246 1.341 . S
N249 N248 1.365 . S
N249 H269 0.862 . S
C250 C245 1.501 . S
C250 H251 0.961 . S
C250 H252 0.961 . S
C250 H253 0.960 . S
H251 C250 0.961 . S
H252 C250 0.961 . S
H253 C250 0.960 . S
C254 N255 1.342 . S
C254 C258 1.401 1_556 S
C254 C259 1.499 . S
N255 Co238 1.989 . S
N255 C254 1.342 . S
N255 N256 1.388 . S
N256 Co239 1.993 . S
N256 N255 1.388 . S
N256 C257 1.346 1_556 S
C257 N256 1.346 1_554 S
C257 C258 1.396 . S
C257 C267 1.510 . S
C258 C254 1.401 1_554 S
C258 C257 1.396 . S
C259 C254 1.499 . S
C259 H260 0.959 . S
C259 H261 0.960 . S
C259 H262 0.961 . S
H260 C259 0.959 . S
H261 C259 0.960 . S
H262 C259 0.961 . S
O263 Co238 1.967 . S
O263 C271 1.258 . S
O264 Co239 1.941 . S
O264 C271 1.266 . S
H265 C267 0.959 . S
H266 C267 0.961 . S
C267 C257 1.510 . S
C267 H265 0.959 . S
C267 H266 0.961 . S
C267 H268 0.960 . S
H268 C267 0.960 . S
H269 N249 0.862 . S
O270 Co238 1.920 . S
O270 C243 1.289 . S
C271 O263 1.258 . S
C271 O264 1.266 . S
Co272 O275 1.970 . S
Co272 N289 1.989 . S
Co272 O297 1.967 . S
Co272 O304 1.920 . S
Co273 O276 1.966 . S
Co273 N282 2.022 . S
Co273 N290 1.993 . S
Co273 O298 1.941 . S
C274 O275 1.258 . S
C274 O276 1.263 . S
O275 Co272 1.970 . S
O275 C274 1.258 . S
O276 Co273 1.966 . S
O276 C274 1.263 . S
C277 O278 1.235 . S
C277 O304 1.289 . S
O278 C277 1.235 . S
C279 C281 1.400 . S
C279 N282 1.351 . S
C279 C284 1.501 . S
C280 C281 1.387 . S
C280 N283 1.341 . S
C281 C279 1.400 . S
C281 C280 1.387 . S
N282 Co273 2.022 . S
N282 C279 1.351 . S
N282 N283 1.365 . S
N283 C280 1.341 . S
N283 N282 1.365 . S
N283 H303 0.862 . S
C284 C279 1.501 . S
C284 H285 0.961 . S
C284 H286 0.961 . S
C284 H287 0.960 . S
H285 C284 0.961 . S
H286 C284 0.961 . S
H287 C284 0.960 . S
C288 N289 1.342 . S
C288 C292 1.401 . S
C288 C293 1.499 . S
N289 Co272 1.989 . S
N289 C288 1.342 . S
N289 N290 1.388 . S
N290 Co273 1.993 . S
N290 N289 1.388 . S
N290 C291 1.346 . S
C291 N290 1.346 . S
C291 C292 1.396 . S
C291 C301 1.510 . S
C292 C288 1.401 . S
C292 C291 1.396 . S
C293 C288 1.499 . S
C293 H294 0.959 . S
C293 H295 0.960 . S
C293 H296 0.961 . S
H294 C293 0.959 . S
H295 C293 0.960 . S
H296 C293 0.961 . S
O297 Co272 1.967 . S
O297 C305 1.258 . S
O298 Co273 1.941 . S
O298 C305 1.266 . S
H299 C301 0.959 . S
H300 C301 0.961 . S
C301 C291 1.510 . S
C301 H299 0.959 . S
C301 H300 0.961 . S
C301 H302 0.960 . S
H302 C301 0.960 . S
H303 N283 0.862 . S
O304 Co272 1.920 . S
O304 C277 1.289 . S
C305 O297 1.258 . S
C305 O298 1.266 . S
Co306 O309 1.970 . S
Co306 N323 1.989 . S
Co306 O331 1.967 . S
Co306 O338 1.920 . S
Co307 O310 1.966 . S
Co307 N316 2.022 . S
Co307 N324 1.993 . S
Co307 O332 1.941 . S
C308 O309 1.258 . S
C308 O310 1.263 . S
O309 Co306 1.970 . S
O309 C308 1.258 . S
O310 Co307 1.966 . S
O310 C308 1.263 . S
C311 O312 1.235 . S
C311 O338 1.289 . S
O312 C311 1.235 . S
C313 C315 1.400 . S
C313 N316 1.351 . S
C313 C318 1.501 . S
C314 C315 1.387 . S
C314 N317 1.341 . S
C315 C313 1.400 . S
C315 C314 1.387 . S
N316 Co307 2.022 . S
N316 C313 1.351 . S
N316 N317 1.365 . S
N317 C314 1.341 . S
N317 N316 1.365 . S
N317 H337 0.862 . S
C318 C313 1.501 . S
C318 H319 0.961 . S
C318 H320 0.961 . S
C318 H321 0.960 . S
H319 C318 0.961 . S
H320 C318 0.961 . S
H321 C318 0.960 . S
C322 N323 1.342 . S
C322 C326 1.401 . S
C322 C327 1.499 . S
N323 Co306 1.989 . S
N323 C322 1.342 . S
N323 N324 1.388 . S
N324 Co307 1.993 . S
N324 N323 1.388 . S
N324 C325 1.346 . S
C325 N324 1.346 . S
C325 C326 1.396 . S
C325 C335 1.510 . S
C326 C322 1.401 . S
C326 C325 1.396 . S
C327 C322 1.499 . S
C327 H328 0.959 . S
C327 H329 0.960 . S
C327 H330 0.961 . S
H328 C327 0.959 . S
H329 C327 0.960 . S
H330 C327 0.961 . S
O331 Co306 1.967 . S
O331 C339 1.258 . S
O332 Co307 1.941 . S
O332 C339 1.266 . S
H333 C335 0.959 . S
H334 C335 0.961 . S
C335 C325 1.510 . S
C335 H333 0.959 . S
C335 H334 0.961 . S
C335 H336 0.960 . S
H336 C335 0.960 . S
H337 N317 0.862 . S
O338 Co306 1.920 . S
O338 C311 1.289 . S
C339 O331 1.258 . S
C339 O332 1.266 . S
Co340 O343 1.970 . S
Co340 N357 1.989 . S
Co340 O365 1.967 . S
Co340 O372 1.920 . S
Co341 O344 1.966 . S
Co341 N350 2.022 . S
Co341 N358 1.993 . S
Co341 O366 1.941 . S
C342 O343 1.258 . S
C342 O344 1.263 . S
O343 Co340 1.970 . S
O343 C342 1.258 . S
O344 Co341 1.966 . S
O344 C342 1.263 . S
C345 O346 1.235 . S
C345 O372 1.289 . S
O346 C345 1.235 . S
C347 C349 1.400 . S
C347 N350 1.351 . S
C347 C352 1.501 . S
C348 C349 1.387 . S
C348 N351 1.341 . S
C349 C347 1.400 . S
C349 C348 1.387 . S
N350 Co341 2.022 . S
N350 C347 1.351 . S
N350 N351 1.365 . S
N351 C348 1.341 . S
N351 N350 1.365 . S
N351 H371 0.862 . S
C352 C347 1.501 . S
C352 H353 0.961 . S
C352 H354 0.961 . S
C352 H355 0.960 . S
H353 C352 0.961 . S
H354 C352 0.961 . S
H355 C352 0.960 . S
C356 N357 1.342 . S
C356 C360 1.401 . S
C356 C361 1.499 . S
N357 Co340 1.989 . S
N357 C356 1.342 . S
N357 N358 1.388 . S
N358 Co341 1.993 . S
N358 N357 1.388 . S
N358 C359 1.346 . S
C359 N358 1.346 . S
C359 C360 1.396 . S
C359 C369 1.510 . S
C360 C356 1.401 . S
C360 C359 1.396 . S
C361 C356 1.499 . S
C361 H362 0.959 . S
C361 H363 0.960 . S
C361 H364 0.961 . S
H362 C361 0.959 . S
H363 C361 0.960 . S
H364 C361 0.961 . S
O365 Co340 1.967 . S
O365 C373 1.258 . S
O366 Co341 1.941 . S
O366 C373 1.266 . S
H367 C369 0.959 . S
H368 C369 0.961 . S
C369 C359 1.510 . S
C369 H367 0.959 . S
C369 H368 0.961 . S
C369 H370 0.960 . S
H370 C369 0.960 . S
H371 N351 0.862 . S
O372 Co340 1.920 . S
O372 C345 1.289 . S
C373 O365 1.258 . S
C373 O366 1.266 . S
Co374 O377 1.970 . S
Co374 N391 1.989 . S
Co374 O399 1.967 . S
Co374 O406 1.920 . S
Co375 O378 1.966 . S
Co375 N384 2.022 . S
Co375 N392 1.993 . S
Co375 O400 1.941 . S
C376 O377 1.258 . S
C376 O378 1.263 . S
O377 Co374 1.970 . S
O377 C376 1.258 . S
O378 Co375 1.966 . S
O378 C376 1.263 . S
C379 O380 1.235 . S
C379 O406 1.289 . S
O380 C379 1.235 . S
C381 C383 1.400 . S
C381 N384 1.351 . S
C381 C386 1.501 . S
C382 C383 1.387 . S
C382 N385 1.341 . S
C383 C381 1.400 . S
C383 C382 1.387 . S
N384 Co375 2.022 . S
N384 C381 1.351 . S
N384 N385 1.365 . S
N385 C382 1.341 . S
N385 N384 1.365 . S
N385 H405 0.862 . S
C386 C381 1.501 . S
C386 H387 0.961 . S
C386 H388 0.961 . S
C386 H389 0.960 . S
H387 C386 0.961 . S
H388 C386 0.961 . S
H389 C386 0.960 . S
C390 N391 1.342 . S
C390 C394 1.401 . S
C390 C395 1.499 . S
N391 Co374 1.989 . S
N391 C390 1.342 . S
N391 N392 1.388 . S
N392 Co375 1.993 . S
N392 N391 1.388 . S
N392 C393 1.346 . S
C393 N392 1.346 . S
C393 C394 1.396 . S
C393 C403 1.510 . S
C394 C390 1.401 . S
C394 C393 1.396 . S
C395 C390 1.499 . S
C395 H396 0.959 . S
C395 H397 0.960 . S
C395 H398 0.961 . S
H396 C395 0.959 . S
H397 C395 0.960 . S
H398 C395 0.961 . S
O399 Co374 1.967 . S
O399 C407 1.258 . S
O400 Co375 1.941 . S
O400 C407 1.266 . S
H401 C403 0.959 . S
H402 C403 0.961 . S
C403 C393 1.510 . S
C403 H401 0.959 . S
C403 H402 0.961 . S
C403 H404 0.960 . S
H404 C403 0.960 . S
H405 N385 0.862 . S
O406 Co374 1.920 . S
O406 C379 1.289 . S
C407 O399 1.258 . S
C407 O400 1.266 . S
Co408 O411 1.970 . S
Co408 N425 1.989 . S
Co408 O433 1.967 . S
Co408 O440 1.920 . S
Co409 O412 1.966 . S
Co409 N418 2.022 . S
Co409 N426 1.993 . S
Co409 O434 1.941 . S
C410 O411 1.258 . S
C410 O412 1.263 . S
O411 Co408 1.970 . S
O411 C410 1.258 . S
O412 Co409 1.966 . S
O412 C410 1.263 . S
C413 O414 1.235 . S
C413 O440 1.289 . S
O414 C413 1.235 . S
C415 C417 1.400 . S
C415 N418 1.351 . S
C415 C420 1.501 . S
C416 C417 1.387 . S
C416 N419 1.341 . S
C417 C415 1.400 . S
C417 C416 1.387 . S
N418 Co409 2.022 . S
N418 C415 1.351 . S
N418 N419 1.365 . S
N419 C416 1.341 . S
N419 N418 1.365 . S
N419 H439 0.862 . S
C420 C415 1.501 . S
C420 H421 0.961 . S
C420 H422 0.961 . S
C420 H423 0.960 . S
H421 C420 0.961 . S
H422 C420 0.961 . S
H423 C420 0.960 . S
C424 N425 1.342 . S
C424 C428 1.401 . S
C424 C429 1.499 . S
N425 Co408 1.989 . S
N425 C424 1.342 . S
N425 N426 1.388 . S
N426 Co409 1.993 . S
N426 N425 1.388 . S
N426 C427 1.346 . S
C427 N426 1.346 . S
C427 C428 1.396 . S
C427 C437 1.510 . S
C428 C424 1.401 . S
C428 C427 1.396 . S
C429 C424 1.499 . S
C429 H430 0.959 . S
C429 H431 0.960 . S
C429 H432 0.961 . S
H430 C429 0.959 . S
H431 C429 0.960 . S
H432 C429 0.961 . S
O433 Co408 1.967 . S
O433 C441 1.258 . S
O434 Co409 1.941 . S
O434 C441 1.266 . S
H435 C437 0.959 . S
H436 C437 0.961 . S
C437 C427 1.510 . S
C437 H435 0.959 . S
C437 H436 0.961 . S
C437 H438 0.960 . S
H438 C437 0.960 . S
H439 N419 0.862 . S
O440 Co408 1.920 . S
O440 C413 1.289 . S
C441 O433 1.258 . S
C441 O434 1.266 . S
Co442 O445 1.970 . S
Co442 N459 1.989 . S
Co442 O467 1.967 . S
Co442 O474 1.920 . S
Co443 O446 1.966 . S
Co443 N452 2.022 . S
Co443 N460 1.993 . S
Co443 O468 1.941 . S
C444 O445 1.258 . S
C444 O446 1.263 . S
O445 Co442 1.970 . S
O445 C444 1.258 . S
O446 Co443 1.966 . S
O446 C444 1.263 . S
C447 O448 1.235 . S
C447 O474 1.289 . S
O448 C447 1.235 . S
C449 C451 1.400 . S
C449 N452 1.351 . S
C449 C454 1.501 . S
C450 C451 1.387 . S
C450 N453 1.341 . S
C451 C449 1.400 . S
C451 C450 1.387 . S
N452 Co443 2.022 . S
N452 C449 1.351 . S
N452 N453 1.365 . S
N453 C450 1.341 . S
N453 N452 1.365 . S
N453 H473 0.862 . S
C454 C449 1.501 . S
C454 H455 0.961 . S
C454 H456 0.961 . S
C454 H457 0.960 . S
H455 C454 0.961 . S
H456 C454 0.961 . S
H457 C454 0.960 . S
C458 N459 1.342 . S
C458 C462 1.401 . S
C458 C463 1.499 . S
N459 Co442 1.989 . S
N459 C458 1.342 . S
N459 N460 1.388 . S
N460 Co443 1.993 . S
N460 N459 1.388 . S
N460 C461 1.346 . S
C461 N460 1.346 . S
C461 C462 1.396 . S
C461 C471 1.510 . S
C462 C458 1.401 . S
C462 C461 1.396 . S
C463 C458 1.499 . S
C463 H464 0.959 . S
C463 H465 0.960 . S
C463 H466 0.961 . S
H464 C463 0.959 . S
H465 C463 0.960 . S
H466 C463 0.961 . S
O467 Co442 1.967 . S
O467 C475 1.258 . S
O468 Co443 1.941 . S
O468 C475 1.266 . S
H469 C471 0.959 . S
H470 C471 0.961 . S
C471 C461 1.510 . S
C471 H469 0.959 . S
C471 H470 0.961 . S
C471 H472 0.960 . S
H472 C471 0.960 . S
H473 N453 0.862 . S
O474 Co442 1.920 . S
O474 C447 1.289 . S
C475 O467 1.258 . S
C475 O468 1.266 . S
Co476 O479 1.970 . S
Co476 N493 1.989 . S
Co476 O501 1.967 . S
Co476 O508 1.920 . S
Co477 O480 1.966 . S
Co477 N486 2.022 . S
Co477 N494 1.993 . S
Co477 O502 1.941 . S
C478 O479 1.258 . S
C478 O480 1.263 . S
O479 Co476 1.970 . S
O479 C478 1.258 . S
O480 Co477 1.966 . S
O480 C478 1.263 . S
C481 O482 1.235 . S
C481 O508 1.289 . S
O482 C481 1.235 . S
C483 C485 1.400 . S
C483 N486 1.351 . S
C483 C488 1.501 . S
C484 C485 1.387 . S
C484 N487 1.341 . S
C485 C483 1.400 . S
C485 C484 1.387 . S
N486 Co477 2.022 . S
N486 C483 1.351 . S
N486 N487 1.365 . S
N487 C484 1.341 . S
N487 N486 1.365 . S
N487 H507 0.862 . S
C488 C483 1.501 . S
C488 H489 0.961 . S
C488 H490 0.961 . S
C488 H491 0.960 . S
H489 C488 0.961 . S
H490 C488 0.961 . S
H491 C488 0.960 . S
C492 N493 1.342 . S
C492 C496 1.401 . S
C492 C497 1.499 . S
N493 Co476 1.989 . S
N493 C492 1.342 . S
N493 N494 1.388 . S
N494 Co477 1.993 . S
N494 N493 1.388 . S
N494 C495 1.346 . S
C495 N494 1.346 . S
C495 C496 1.396 . S
C495 C505 1.510 . S
C496 C492 1.401 . S
C496 C495 1.396 . S
C497 C492 1.499 . S
C497 H498 0.959 . S
C497 H499 0.960 . S
C497 H500 0.961 . S
H498 C497 0.959 . S
H499 C497 0.960 . S
H500 C497 0.961 . S
O501 Co476 1.967 . S
O501 C509 1.258 . S
O502 Co477 1.941 . S
O502 C509 1.266 . S
H503 C505 0.959 . S
H504 C505 0.961 . S
C505 C495 1.510 . S
C505 H503 0.959 . S
C505 H504 0.961 . S
C505 H506 0.960 . S
H506 C505 0.960 . S
H507 N487 0.862 . S
O508 Co476 1.920 . S
O508 C481 1.289 . S
C509 O501 1.258 . S
C509 O502 1.266 . S
Co510 O513 1.970 . S
Co510 N527 1.989 . S
Co510 O535 1.967 . S
Co510 O542 1.920 . S
Co511 O514 1.966 . S
Co511 N520 2.022 . S
Co511 N528 1.993 . S
Co511 O536 1.941 . S
C512 O513 1.258 . S
C512 O514 1.263 . S
O513 Co510 1.970 . S
O513 C512 1.258 . S
O514 Co511 1.966 . S
O514 C512 1.263 . S
C515 O516 1.235 . S
C515 O542 1.289 . S
O516 C515 1.235 . S
C517 C519 1.400 . S
C517 N520 1.351 . S
C517 C522 1.501 . S
C518 C519 1.387 . S
C518 N521 1.341 . S
C519 C517 1.400 . S
C519 C518 1.387 . S
N520 Co511 2.022 . S
N520 C517 1.351 . S
N520 N521 1.365 . S
N521 C518 1.341 . S
N521 N520 1.365 . S
N521 H541 0.862 . S
C522 C517 1.501 . S
C522 H523 0.961 . S
C522 H524 0.961 . S
C522 H525 0.960 . S
H523 C522 0.961 . S
H524 C522 0.961 . S
H525 C522 0.960 . S
C526 N527 1.342 . S
C526 C530 1.401 . S
C526 C531 1.499 . S
N527 Co510 1.989 . S
N527 C526 1.342 . S
N527 N528 1.388 . S
N528 Co511 1.993 . S
N528 N527 1.388 . S
N528 C529 1.346 . S
C529 N528 1.346 . S
C529 C530 1.396 . S
C529 C539 1.510 . S
C530 C526 1.401 . S
C530 C529 1.396 . S
C531 C526 1.499 . S
C531 H532 0.959 . S
C531 H533 0.960 . S
C531 H534 0.961 . S
H532 C531 0.959 . S
H533 C531 0.960 . S
H534 C531 0.961 . S
O535 Co510 1.967 . S
O535 C543 1.258 . S
O536 Co511 1.941 . S
O536 C543 1.266 . S
H537 C539 0.959 . S
H538 C539 0.961 . S
C539 C529 1.510 . S
C539 H537 0.959 . S
C539 H538 0.961 . S
C539 H540 0.960 . S
H540 C539 0.960 . S
H541 N521 0.862 . S
O542 Co510 1.920 . S
O542 C515 1.289 . S
C543 O535 1.258 . S
C543 O536 1.266 . S
Co544 O547 1.970 . S
Co544 N561 1.989 . S
Co544 O569 1.967 . S
Co544 O576 1.920 . S
Co545 O548 1.966 . S
Co545 N554 2.022 . S
Co545 N562 1.993 . S
Co545 O570 1.941 . S
C546 O547 1.258 . S
C546 O548 1.263 . S
O547 Co544 1.970 . S
O547 C546 1.258 . S
O548 Co545 1.966 . S
O548 C546 1.263 . S
C549 O550 1.235 . S
C549 O576 1.289 . S
O550 C549 1.235 . S
C551 C553 1.400 . S
C551 N554 1.351 . S
C551 C556 1.501 . S
C552 C553 1.387 . S
C552 N555 1.341 . S
C553 C551 1.400 . S
C553 C552 1.387 . S
N554 Co545 2.022 . S
N554 C551 1.351 . S
N554 N555 1.365 . S
N555 C552 1.341 . S
N555 N554 1.365 . S
N555 H575 0.862 . S
C556 C551 1.501 . S
C556 H557 0.961 . S
C556 H558 0.961 . S
C556 H559 0.960 . S
H557 C556 0.961 . S
H558 C556 0.961 . S
H559 C556 0.960 . S
C560 N561 1.342 . S
C560 C564 1.401 . S
C560 C565 1.499 . S
N561 Co544 1.989 . S
N561 C560 1.342 . S
N561 N562 1.388 . S
N562 Co545 1.993 . S
N562 N561 1.388 . S
N562 C563 1.346 . S
C563 N562 1.346 . S
C563 C564 1.396 . S
C563 C573 1.510 . S
C564 C560 1.401 . S
C564 C563 1.396 . S
C565 C560 1.499 . S
C565 H566 0.959 . S
C565 H567 0.960 . S
C565 H568 0.961 . S
H566 C565 0.959 . S
H567 C565 0.960 . S
H568 C565 0.961 . S
O569 Co544 1.967 . S
O569 C577 1.258 . S
O570 Co545 1.941 . S
O570 C577 1.266 . S
H571 C573 0.959 . S
H572 C573 0.961 . S
C573 C563 1.510 . S
C573 H571 0.959 . S
C573 H572 0.961 . S
C573 H574 0.960 . S
H574 C573 0.960 . S
H575 N555 0.862 . S
O576 Co544 1.920 . S
O576 C549 1.289 . S
C577 O569 1.258 . S
C577 O570 1.266 . S
Co578 O581 1.970 . S
Co578 N595 1.988 . S
Co578 O603 1.967 . S
Co578 O610 1.920 1_565 S
Co579 O582 1.966 . S
Co579 N588 2.022 . S
Co579 N596 1.993 . S
Co579 O604 1.941 . S
C580 O581 1.258 . S
C580 O582 1.263 . S
O581 Co578 1.970 . S
O581 C580 1.258 . S
O582 Co579 1.966 . S
O582 C580 1.263 . S
C583 O584 1.235 . S
C583 O610 1.289 . S
O584 C583 1.235 . S
C585 C587 1.400 . S
C585 N588 1.351 . S
C585 C590 1.501 . S
C586 C587 1.387 . S
C586 N589 1.341 . S
C587 C585 1.400 . S
C587 C586 1.387 . S
N588 Co579 2.022 . S
N588 C585 1.351 . S
N588 N589 1.365 . S
N589 C586 1.341 . S
N589 N588 1.365 . S
N589 H609 0.862 . S
C590 C585 1.501 . S
C590 H591 0.961 . S
C590 H592 0.961 . S
C590 H593 0.960 . S
H591 C590 0.961 . S
H592 C590 0.961 . S
H593 C590 0.960 . S
C594 N595 1.345 1_545 S
C594 C598 1.401 . S
C594 C599 1.499 . S
N595 Co578 1.988 . S
N595 C594 1.345 1_565 S
N595 N596 1.385 . S
N596 Co579 1.993 . S
N596 N595 1.385 . S
N596 C597 1.346 . S
C597 N596 1.346 . S
C597 C598 1.396 1_565 S
C597 C607 1.510 . S
C598 C594 1.401 . S
C598 C597 1.396 1_545 S
C599 C594 1.499 . S
C599 H600 0.959 . S
C599 H601 0.960 . S
C599 H602 0.961 . S
H600 C599 0.959 . S
H601 C599 0.960 . S
H602 C599 0.961 . S
O603 Co578 1.967 . S
O603 C611 1.258 . S
O604 Co579 1.941 . S
O604 C611 1.266 . S
H605 C607 0.959 . S
H606 C607 0.961 . S
C607 C597 1.510 . S
C607 H605 0.959 . S
C607 H606 0.961 . S
C607 H608 0.960 . S
H608 C607 0.960 . S
H609 N589 0.862 . S
O610 Co578 1.920 1_545 S
O610 C583 1.289 . S
C611 O603 1.258 . S
C611 O604 1.266 . S
Co612 O615 1.970 . S
Co612 N629 1.988 . S
Co612 O637 1.967 . S
Co612 O644 1.920 1_565 S
Co613 O616 1.966 . S
Co613 N622 2.022 . S
Co613 N630 1.993 . S
Co613 O638 1.941 . S
C614 O615 1.258 . S
C614 O616 1.263 . S
O615 Co612 1.970 . S
O615 C614 1.258 . S
O616 Co613 1.966 . S
O616 C614 1.263 . S
C617 O618 1.235 . S
C617 O644 1.289 . S
O618 C617 1.235 . S
C619 C621 1.400 . S
C619 N622 1.351 . S
C619 C624 1.501 . S
C620 C621 1.387 . S
C620 N623 1.341 . S
C621 C619 1.400 . S
C621 C620 1.387 . S
N622 Co613 2.022 . S
N622 C619 1.351 . S
N622 N623 1.365 . S
N623 C620 1.341 . S
N623 N622 1.365 . S
N623 H643 0.862 . S
C624 C619 1.501 . S
C624 H625 0.961 . S
C624 H626 0.961 . S
C624 H627 0.960 . S
H625 C624 0.961 . S
H626 C624 0.961 . S
H627 C624 0.960 . S
C628 N629 1.345 1_545 S
C628 C632 1.401 . S
C628 C633 1.499 . S
N629 Co612 1.988 . S
N629 C628 1.345 1_565 S
N629 N630 1.385 . S
N630 Co613 1.993 . S
N630 N629 1.385 . S
N630 C631 1.346 . S
C631 N630 1.346 . S
C631 C632 1.396 1_565 S
C631 C641 1.510 . S
C632 C628 1.401 . S
C632 C631 1.396 1_545 S
C633 C628 1.499 . S
C633 H634 0.959 . S
C633 H635 0.960 . S
C633 H636 0.961 . S
H634 C633 0.959 . S
H635 C633 0.960 . S
H636 C633 0.961 . S
O637 Co612 1.967 . S
O637 C645 1.258 . S
O638 Co613 1.941 . S
O638 C645 1.266 . S
H639 C641 0.959 . S
H640 C641 0.961 . S
C641 C631 1.510 . S
C641 H639 0.959 . S
C641 H640 0.961 . S
C641 H642 0.960 . S
H642 C641 0.960 . S
H643 N623 0.862 . S
O644 Co612 1.920 1_545 S
O644 C617 1.289 . S
C645 O637 1.258 . S
C645 O638 1.266 . S
Co646 O649 1.970 . S
Co646 N663 1.989 . S
Co646 O671 1.967 . S
Co646 O678 1.920 . S
Co647 O650 1.966 . S
Co647 N656 2.022 . S
Co647 N664 1.993 . S
Co647 O672 1.941 . S
C648 O649 1.258 . S
C648 O650 1.263 . S
O649 Co646 1.970 . S
O649 C648 1.258 . S
O650 Co647 1.966 . S
O650 C648 1.263 . S
C651 O652 1.235 . S
C651 O678 1.289 . S
O652 C651 1.235 . S
C653 C655 1.400 . S
C653 N656 1.351 . S
C653 C658 1.501 . S
C654 C655 1.387 . S
C654 N657 1.341 . S
C655 C653 1.400 . S
C655 C654 1.387 . S
N656 Co647 2.022 . S
N656 C653 1.351 . S
N656 N657 1.365 . S
N657 C654 1.341 . S
N657 N656 1.365 . S
N657 H677 0.862 . S
C658 C653 1.501 . S
C658 H659 0.961 . S
C658 H660 0.961 . S
C658 H661 0.960 . S
H659 C658 0.961 . S
H660 C658 0.961 . S
H661 C658 0.960 . S
C662 N663 1.342 . S
C662 C666 1.401 . S
C662 C667 1.499 . S
N663 Co646 1.989 . S
N663 C662 1.342 . S
N663 N664 1.388 . S
N664 Co647 1.993 . S
N664 N663 1.388 . S
N664 C665 1.346 . S
C665 N664 1.346 . S
C665 C666 1.396 . S
C665 C675 1.510 . S
C666 C662 1.401 . S
C666 C665 1.396 . S
C667 C662 1.499 . S
C667 H668 0.959 . S
C667 H669 0.960 . S
C667 H670 0.961 . S
H668 C667 0.959 . S
H669 C667 0.960 . S
H670 C667 0.961 . S
O671 Co646 1.967 . S
O671 C679 1.258 . S
O672 Co647 1.941 . S
O672 C679 1.266 . S
H673 C675 0.959 . S
H674 C675 0.961 . S
C675 C665 1.510 . S
C675 H673 0.959 . S
C675 H674 0.961 . S
C675 H676 0.960 . S
H676 C675 0.960 . S
H677 N657 0.862 . S
O678 Co646 1.920 . S
O678 C651 1.289 . S
C679 O671 1.258 . S
C679 O672 1.266 . S
Co680 O683 1.970 . S
Co680 N697 1.989 . S
Co680 O705 1.967 . S
Co680 O712 1.920 . S
Co681 O684 1.966 . S
Co681 N690 2.022 . S
Co681 N698 1.993 . S
Co681 O706 1.941 . S
C682 O683 1.258 . S
C682 O684 1.263 . S
O683 Co680 1.970 . S
O683 C682 1.258 . S
O684 Co681 1.966 . S
O684 C682 1.263 . S
C685 O686 1.235 . S
C685 O712 1.289 . S
O686 C685 1.235 . S
C687 C689 1.400 . S
C687 N690 1.351 . S
C687 C692 1.501 . S
C688 C689 1.387 . S
C688 N691 1.341 . S
C689 C687 1.400 . S
C689 C688 1.387 . S
N690 Co681 2.022 . S
N690 C687 1.351 . S
N690 N691 1.365 . S
N691 C688 1.341 . S
N691 N690 1.365 . S
N691 H711 0.862 . S
C692 C687 1.501 . S
C692 H693 0.961 . S
C692 H694 0.961 . S
C692 H695 0.960 . S
H693 C692 0.961 . S
H694 C692 0.961 . S
H695 C692 0.960 . S
C696 N697 1.342 . S
C696 C700 1.401 . S
C696 C701 1.499 . S
N697 Co680 1.989 . S
N697 C696 1.342 . S
N697 N698 1.388 . S
N698 Co681 1.993 . S
N698 N697 1.388 . S
N698 C699 1.346 . S
C699 N698 1.346 . S
C699 C700 1.396 . S
C699 C709 1.510 . S
C700 C696 1.401 . S
C700 C699 1.396 . S
C701 C696 1.499 . S
C701 H702 0.959 . S
C701 H703 0.960 . S
C701 H704 0.961 . S
H702 C701 0.959 . S
H703 C701 0.960 . S
H704 C701 0.961 . S
O705 Co680 1.967 . S
O705 C713 1.258 . S
O706 Co681 1.941 . S
O706 C713 1.266 . S
H707 C709 0.959 . S
H708 C709 0.961 . S
C709 C699 1.510 . S
C709 H707 0.959 . S
C709 H708 0.961 . S
C709 H710 0.960 . S
H710 C709 0.960 . S
H711 N691 0.862 . S
O712 Co680 1.920 . S
O712 C685 1.289 . S
C713 O705 1.258 . S
C713 O706 1.266 . S
Co714 O717 1.970 . S
Co714 N731 1.988 . S
Co714 O739 1.967 . S
Co714 O746 1.920 1_545 S
Co715 O718 1.966 . S
Co715 N724 2.022 . S
Co715 N732 1.993 . S
Co715 O740 1.941 . S
C716 O717 1.258 . S
C716 O718 1.263 . S
O717 Co714 1.970 . S
O717 C716 1.258 . S
O718 Co715 1.966 . S
O718 C716 1.263 . S
C719 O720 1.235 . S
C719 O746 1.289 . S
O720 C719 1.235 . S
C721 C723 1.400 . S
C721 N724 1.351 . S
C721 C726 1.501 . S
C722 C723 1.387 . S
C722 N725 1.341 . S
C723 C721 1.400 . S
C723 C722 1.387 . S
N724 Co715 2.022 . S
N724 C721 1.351 . S
N724 N725 1.365 . S
N725 C722 1.341 . S
N725 N724 1.365 . S
N725 H745 0.862 . S
C726 C721 1.501 . S
C726 H727 0.961 . S
C726 H728 0.961 . S
C726 H729 0.960 . S
H727 C726 0.961 . S
H728 C726 0.961 . S
H729 C726 0.960 . S
C730 N731 1.345 1_565 S
C730 C734 1.401 . S
C730 C735 1.499 . S
N731 Co714 1.988 . S
N731 C730 1.345 1_545 S
N731 N732 1.385 . S
N732 Co715 1.993 . S
N732 N731 1.385 . S
N732 C733 1.346 . S
C733 N732 1.346 . S
C733 C734 1.396 1_545 S
C733 C743 1.510 . S
C734 C730 1.401 . S
C734 C733 1.396 1_565 S
C735 C730 1.499 . S
C735 H736 0.959 . S
C735 H737 0.960 . S
C735 H738 0.961 . S
H736 C735 0.959 . S
H737 C735 0.960 . S
H738 C735 0.961 . S
O739 Co714 1.967 . S
O739 C747 1.258 . S
O740 Co715 1.941 . S
O740 C747 1.266 . S
H741 C743 0.959 . S
H742 C743 0.961 . S
C743 C733 1.510 . S
C743 H741 0.959 . S
C743 H742 0.961 . S
C743 H744 0.960 . S
H744 C743 0.960 . S
H745 N725 0.862 . S
O746 Co714 1.920 1_565 S
O746 C719 1.289 . S
C747 O739 1.258 . S
C747 O740 1.266 . S
Co748 O751 1.970 . S
Co748 N765 1.988 . S
Co748 O773 1.967 . S
Co748 O780 1.920 1_545 S
Co749 O752 1.966 . S
Co749 N758 2.022 . S
Co749 N766 1.993 . S
Co749 O774 1.941 . S
C750 O751 1.258 . S
C750 O752 1.263 . S
O751 Co748 1.970 . S
O751 C750 1.258 . S
O752 Co749 1.966 . S
O752 C750 1.263 . S
C753 O754 1.235 . S
C753 O780 1.289 . S
O754 C753 1.235 . S
C755 C757 1.400 . S
C755 N758 1.351 . S
C755 C760 1.501 . S
C756 C757 1.387 . S
C756 N759 1.341 . S
C757 C755 1.400 . S
C757 C756 1.387 . S
N758 Co749 2.022 . S
N758 C755 1.351 . S
N758 N759 1.365 . S
N759 C756 1.341 . S
N759 N758 1.365 . S
N759 H779 0.862 . S
C760 C755 1.501 . S
C760 H761 0.961 . S
C760 H762 0.961 . S
C760 H763 0.960 . S
H761 C760 0.961 . S
H762 C760 0.961 . S
H763 C760 0.960 . S
C764 N765 1.345 1_565 S
C764 C768 1.401 . S
C764 C769 1.499 . S
N765 Co748 1.988 . S
N765 C764 1.345 1_545 S
N765 N766 1.385 . S
N766 Co749 1.993 . S
N766 N765 1.385 . S
N766 C767 1.346 . S
C767 N766 1.346 . S
C767 C768 1.396 1_545 S
C767 C777 1.510 . S
C768 C764 1.401 . S
C768 C767 1.396 1_565 S
C769 C764 1.499 . S
C769 H770 0.959 . S
C769 H771 0.960 . S
C769 H772 0.961 . S
H770 C769 0.959 . S
H771 C769 0.960 . S
H772 C769 0.961 . S
O773 Co748 1.967 . S
O773 C781 1.258 . S
O774 Co749 1.941 . S
O774 C781 1.266 . S
H775 C777 0.959 . S
H776 C777 0.961 . S
C777 C767 1.510 . S
C777 H775 0.959 . S
C777 H776 0.961 . S
C777 H778 0.960 . S
H778 C777 0.960 . S
H779 N759 0.862 . S
O780 Co748 1.920 1_565 S
O780 C753 1.289 . S
C781 O773 1.258 . S
C781 O774 1.266 . S
Co782 O785 1.970 . S
Co782 N799 1.989 . S
Co782 O807 1.967 . S
Co782 O814 1.920 . S
Co783 O786 1.966 . S
Co783 N792 2.022 . S
Co783 N800 1.993 . S
Co783 O808 1.941 . S
C784 O785 1.258 . S
C784 O786 1.263 . S
O785 Co782 1.970 . S
O785 C784 1.258 . S
O786 Co783 1.966 . S
O786 C784 1.263 . S
C787 O788 1.235 . S
C787 O814 1.289 . S
O788 C787 1.235 . S
C789 C791 1.400 . S
C789 N792 1.351 . S
C789 C794 1.501 . S
C790 C791 1.387 . S
C790 N793 1.341 . S
C791 C789 1.400 . S
C791 C790 1.387 . S
N792 Co783 2.022 . S
N792 C789 1.351 . S
N792 N793 1.365 . S
N793 C790 1.341 . S
N793 N792 1.365 . S
N793 H813 0.862 . S
C794 C789 1.501 . S
C794 H795 0.961 . S
C794 H796 0.961 . S
C794 H797 0.960 . S
H795 C794 0.961 . S
H796 C794 0.961 . S
H797 C794 0.960 . S
C798 N799 1.342 . S
C798 C802 1.401 . S
C798 C803 1.499 . S
N799 Co782 1.989 . S
N799 C798 1.342 . S
N799 N800 1.388 . S
N800 Co783 1.993 . S
N800 N799 1.388 . S
N800 C801 1.346 . S
C801 N800 1.346 . S
C801 C802 1.396 . S
C801 C811 1.510 . S
C802 C798 1.401 . S
C802 C801 1.396 . S
C803 C798 1.499 . S
C803 H804 0.959 . S
C803 H805 0.960 . S
C803 H806 0.961 . S
H804 C803 0.959 . S
H805 C803 0.960 . S
H806 C803 0.961 . S
O807 Co782 1.967 . S
O807 C815 1.258 . S
O808 Co783 1.941 . S
O808 C815 1.266 . S
H809 C811 0.959 . S
H810 C811 0.961 . S
C811 C801 1.510 . S
C811 H809 0.959 . S
C811 H810 0.961 . S
C811 H812 0.960 . S
H812 C811 0.960 . S
H813 N793 0.862 . S
O814 Co782 1.920 . S
O814 C787 1.289 . S
C815 O807 1.258 . S
C815 O808 1.266 . S
Co816 O819 1.970 . S
Co816 N833 1.989 . S
Co816 O841 1.967 . S
Co816 O848 1.920 . S
Co817 O820 1.966 . S
Co817 N826 2.022 . S
Co817 N834 1.993 . S
Co817 O842 1.941 . S
C818 O819 1.258 . S
C818 O820 1.263 . S
O819 Co816 1.970 . S
O819 C818 1.258 . S
O820 Co817 1.966 . S
O820 C818 1.263 . S
C821 O822 1.235 . S
C821 O848 1.289 . S
O822 C821 1.235 . S
C823 C825 1.400 . S
C823 N826 1.351 . S
C823 C828 1.501 . S
C824 C825 1.387 . S
C824 N827 1.341 . S
C825 C823 1.400 . S
C825 C824 1.387 . S
N826 Co817 2.022 . S
N826 C823 1.351 . S
N826 N827 1.365 . S
N827 C824 1.341 . S
N827 N826 1.365 . S
N827 H847 0.862 . S
C828 C823 1.501 . S
C828 H829 0.961 . S
C828 H830 0.961 . S
C828 H831 0.960 . S
H829 C828 0.961 . S
H830 C828 0.961 . S
H831 C828 0.960 . S
C832 N833 1.342 . S
C832 C836 1.401 . S
C832 C837 1.499 . S
N833 Co816 1.989 . S
N833 C832 1.342 . S
N833 N834 1.388 . S
N834 Co817 1.993 . S
N834 N833 1.388 . S
N834 C835 1.346 . S
C835 N834 1.346 . S
C835 C836 1.396 . S
C835 C845 1.510 . S
C836 C832 1.401 . S
C836 C835 1.396 . S
C837 C832 1.499 . S
C837 H838 0.959 . S
C837 H839 0.960 . S
C837 H840 0.961 . S
H838 C837 0.959 . S
H839 C837 0.960 . S
H840 C837 0.961 . S
O841 Co816 1.967 . S
O841 C849 1.258 . S
O842 Co817 1.941 . S
O842 C849 1.266 . S
H843 C845 0.959 . S
H844 C845 0.961 . S
C845 C835 1.510 . S
C845 H843 0.959 . S
C845 H844 0.961 . S
C845 H846 0.960 . S
H846 C845 0.960 . S
H847 N827 0.862 . S
O848 Co816 1.920 . S
O848 C821 1.289 . S
C849 O841 1.258 . S
C849 O842 1.266 . S
Co850 O853 1.970 . S
Co850 N867 1.989 . S
Co850 O875 1.967 . S
Co850 O882 1.920 . S
Co851 O854 1.966 . S
Co851 N860 2.022 . S
Co851 N868 1.993 . S
Co851 O876 1.941 . S
C852 O853 1.258 . S
C852 O854 1.263 . S
O853 Co850 1.970 . S
O853 C852 1.258 . S
O854 Co851 1.966 . S
O854 C852 1.263 . S
C855 O856 1.235 . S
C855 O882 1.289 . S
O856 C855 1.235 . S
C857 C859 1.400 . S
C857 N860 1.351 . S
C857 C862 1.501 . S
C858 C859 1.387 . S
C858 N861 1.341 . S
C859 C857 1.400 . S
C859 C858 1.387 . S
N860 Co851 2.022 . S
N860 C857 1.351 . S
N860 N861 1.365 . S
N861 C858 1.341 . S
N861 N860 1.365 . S
N861 H881 0.862 . S
C862 C857 1.501 . S
C862 H863 0.961 . S
C862 H864 0.961 . S
C862 H865 0.960 . S
H863 C862 0.961 . S
H864 C862 0.961 . S
H865 C862 0.960 . S
C866 N867 1.342 . S
C866 C870 1.401 . S
C866 C871 1.499 . S
N867 Co850 1.989 . S
N867 C866 1.342 . S
N867 N868 1.388 . S
N868 Co851 1.993 . S
N868 N867 1.388 . S
N868 C869 1.346 . S
C869 N868 1.346 . S
C869 C870 1.396 . S
C869 C879 1.510 . S
C870 C866 1.401 . S
C870 C869 1.396 . S
C871 C866 1.499 . S
C871 H872 0.959 . S
C871 H873 0.960 . S
C871 H874 0.961 . S
H872 C871 0.959 . S
H873 C871 0.960 . S
H874 C871 0.961 . S
O875 Co850 1.967 . S
O875 C883 1.258 . S
O876 Co851 1.941 . S
O876 C883 1.266 . S
H877 C879 0.959 . S
H878 C879 0.961 . S
C879 C869 1.510 . S
C879 H877 0.959 . S
C879 H878 0.961 . S
C879 H880 0.960 . S
H880 C879 0.960 . S
H881 N861 0.862 . S
O882 Co850 1.920 . S
O882 C855 1.289 . S
C883 O875 1.258 . S
C883 O876 1.266 . S
Co884 O887 1.970 . S
Co884 N901 1.989 . S
Co884 O909 1.967 . S
Co884 O916 1.920 . S
Co885 O888 1.966 . S
Co885 N894 2.022 1_554 S
Co885 N902 1.993 . S
Co885 O910 1.941 . S
C886 O887 1.258 . S
C886 O888 1.263 . S
O887 Co884 1.970 . S
O887 C886 1.258 . S
O888 Co885 1.966 . S
O888 C886 1.263 . S
C889 O890 1.235 . S
C889 O916 1.289 . S
O890 C889 1.235 . S
C891 C893 1.400 . S
C891 N894 1.351 . S
C891 C896 1.501 . S
C892 C893 1.387 . S
C892 N895 1.341 . S
C893 C891 1.400 . S
C893 C892 1.387 . S
N894 Co885 2.022 1_556 S
N894 C891 1.351 . S
N894 N895 1.365 . S
N895 C892 1.341 . S
N895 N894 1.365 . S
N895 H915 0.862 . S
C896 C891 1.501 . S
C896 H897 0.961 . S
C896 H898 0.961 . S
C896 H899 0.960 . S
H897 C896 0.961 . S
H898 C896 0.961 . S
H899 C896 0.960 . S
C900 N901 1.342 . S
C900 C904 1.401 1_554 S
C900 C905 1.499 . S
N901 Co884 1.989 . S
N901 C900 1.342 . S
N901 N902 1.388 . S
N902 Co885 1.993 . S
N902 N901 1.388 . S
N902 C903 1.346 1_554 S
C903 N902 1.346 1_556 S
C903 C904 1.396 . S
C903 C913 1.510 . S
C904 C900 1.401 1_556 S
C904 C903 1.396 . S
C905 C900 1.499 . S
C905 H906 0.959 . S
C905 H907 0.960 . S
C905 H908 0.961 . S
H906 C905 0.959 . S
H907 C905 0.960 . S
H908 C905 0.961 . S
O909 Co884 1.967 . S
O909 C917 1.258 . S
O910 Co885 1.941 . S
O910 C917 1.266 . S
H911 C913 0.959 . S
H912 C913 0.961 . S
C913 C903 1.510 . S
C913 H911 0.959 . S
C913 H912 0.961 . S
C913 H914 0.960 . S
H914 C913 0.960 . S
H915 N895 0.862 . S
O916 Co884 1.920 . S
O916 C889 1.289 . S
C917 O909 1.258 . S
C917 O910 1.266 . S
Co918 O921 1.970 . S
Co918 N935 1.989 . S
Co918 O943 1.967 . S
Co918 O950 1.920 . S
Co919 O922 1.966 . S
Co919 N928 2.022 1_554 S
Co919 N936 1.993 . S
Co919 O944 1.941 . S
C920 O921 1.258 . S
C920 O922 1.263 . S
O921 Co918 1.970 . S
O921 C920 1.258 . S
O922 Co919 1.966 . S
O922 C920 1.263 . S
C923 O924 1.235 . S
C923 O950 1.289 . S
O924 C923 1.235 . S
C925 C927 1.400 . S
C925 N928 1.351 . S
C925 C930 1.501 . S
C926 C927 1.387 . S
C926 N929 1.341 . S
C927 C925 1.400 . S
C927 C926 1.387 . S
N928 Co919 2.022 1_556 S
N928 C925 1.351 . S
N928 N929 1.365 . S
N929 C926 1.341 . S
N929 N928 1.365 . S
N929 H949 0.862 . S
C930 C925 1.501 . S
C930 H931 0.961 . S
C930 H932 0.961 . S
C930 H933 0.960 . S
H931 C930 0.961 . S
H932 C930 0.961 . S
H933 C930 0.960 . S
C934 N935 1.342 . S
C934 C938 1.401 1_554 S
C934 C939 1.499 . S
N935 Co918 1.989 . S
N935 C934 1.342 . S
N935 N936 1.388 . S
N936 Co919 1.993 . S
N936 N935 1.388 . S
N936 C937 1.346 1_554 S
C937 N936 1.346 1_556 S
C937 C938 1.396 . S
C937 C947 1.510 . S
C938 C934 1.401 1_556 S
C938 C937 1.396 . S
C939 C934 1.499 . S
C939 H940 0.959 . S
C939 H941 0.960 . S
C939 H942 0.961 . S
H940 C939 0.959 . S
H941 C939 0.960 . S
H942 C939 0.961 . S
O943 Co918 1.967 . S
O943 C951 1.258 . S
O944 Co919 1.941 . S
O944 C951 1.266 . S
H945 C947 0.959 . S
H946 C947 0.961 . S
C947 C937 1.510 . S
C947 H945 0.959 . S
C947 H946 0.961 . S
C947 H948 0.960 . S
H948 C947 0.960 . S
H949 N929 0.862 . S
O950 Co918 1.920 . S
O950 C923 1.289 . S
C951 O943 1.258 . S
C951 O944 1.266 . S
Co952 O955 1.970 . S
Co952 N969 1.989 . S
Co952 O977 1.967 . S
Co952 O984 1.920 . S
Co953 O956 1.966 . S
Co953 N962 2.022 . S
Co953 N970 1.993 . S
Co953 O978 1.941 . S
C954 O955 1.258 . S
C954 O956 1.263 . S
O955 Co952 1.970 . S
O955 C954 1.258 . S
O956 Co953 1.966 . S
O956 C954 1.263 . S
C957 O958 1.235 . S
C957 O984 1.289 . S
O958 C957 1.235 . S
C959 C961 1.400 . S
C959 N962 1.351 . S
C959 C964 1.501 . S
C960 C961 1.387 . S
C960 N963 1.341 . S
C961 C959 1.400 . S
C961 C960 1.387 . S
N962 Co953 2.022 . S
N962 C959 1.351 . S
N962 N963 1.365 . S
N963 C960 1.341 . S
N963 N962 1.365 . S
N963 H983 0.862 . S
C964 C959 1.501 . S
C964 H965 0.961 . S
C964 H966 0.961 . S
C964 H967 0.960 . S
H965 C964 0.961 . S
H966 C964 0.961 . S
H967 C964 0.960 . S
C968 N969 1.342 . S
C968 C972 1.401 . S
C968 C973 1.499 . S
N969 Co952 1.989 . S
N969 C968 1.342 . S
N969 N970 1.388 . S
N970 Co953 1.993 . S
N970 N969 1.388 . S
N970 C971 1.346 . S
C971 N970 1.346 . S
C971 C972 1.396 . S
C971 C981 1.510 . S
C972 C968 1.401 . S
C972 C971 1.396 . S
C973 C968 1.499 . S
C973 H974 0.959 . S
C973 H975 0.960 . S
C973 H976 0.961 . S
H974 C973 0.959 . S
H975 C973 0.960 . S
H976 C973 0.961 . S
O977 Co952 1.967 . S
O977 C985 1.258 . S
O978 Co953 1.941 . S
O978 C985 1.266 . S
H979 C981 0.959 . S
H980 C981 0.961 . S
C981 C971 1.510 . S
C981 H979 0.959 . S
C981 H980 0.961 . S
C981 H982 0.960 . S
H982 C981 0.960 . S
H983 N963 0.862 . S
O984 Co952 1.920 . S
O984 C957 1.289 . S
C985 O977 1.258 . S
C985 O978 1.266 . S
Co986 O989 1.970 . S
Co986 N1003 1.989 . S
Co986 O1011 1.967 . S
Co986 O1018 1.920 . S
Co987 O990 1.966 . S
Co987 N996 2.022 . S
Co987 N1004 1.993 . S
Co987 O1012 1.941 . S
C988 O989 1.258 . S
C988 O990 1.263 . S
O989 Co986 1.970 . S
O989 C988 1.258 . S
O990 Co987 1.966 . S
O990 C988 1.263 . S
C991 O992 1.235 . S
C991 O1018 1.289 . S
O992 C991 1.235 . S
C993 C995 1.400 . S
C993 N996 1.351 . S
C993 C998 1.501 . S
C994 C995 1.387 . S
C994 N997 1.341 . S
C995 C993 1.400 . S
C995 C994 1.387 . S
N996 Co987 2.022 . S
N996 C993 1.351 . S
N996 N997 1.365 . S
N997 C994 1.341 . S
N997 N996 1.365 . S
N997 H1017 0.862 . S
C998 C993 1.501 . S
C998 H999 0.961 . S
C998 H1000 0.961 . S
C998 H1001 0.960 . S
H999 C998 0.961 . S
H1000 C998 0.961 . S
H1001 C998 0.960 . S
C1002 N1003 1.342 . S
C1002 C1006 1.401 . S
C1002 C1007 1.499 . S
N1003 Co986 1.989 . S
N1003 C1002 1.342 . S
N1003 N1004 1.388 . S
N1004 Co987 1.993 . S
N1004 N1003 1.388 . S
N1004 C1005 1.346 . S
C1005 N1004 1.346 . S
C1005 C1006 1.396 . S
C1005 C1015 1.510 . S
C1006 C1002 1.401 . S
C1006 C1005 1.396 . S
C1007 C1002 1.499 . S
C1007 H1008 0.959 . S
C1007 H1009 0.960 . S
C1007 H1010 0.961 . S
H1008 C1007 0.959 . S
H1009 C1007 0.960 . S
H1010 C1007 0.961 . S
O1011 Co986 1.967 . S
O1011 C1019 1.258 . S
O1012 Co987 1.941 . S
O1012 C1019 1.266 . S
H1013 C1015 0.959 . S
H1014 C1015 0.961 . S
C1015 C1005 1.510 . S
C1015 H1013 0.959 . S
C1015 H1014 0.961 . S
C1015 H1016 0.960 . S
H1016 C1015 0.960 . S
H1017 N997 0.862 . S
O1018 Co986 1.920 . S
O1018 C991 1.289 . S
C1019 O1011 1.258 . S
C1019 O1012 1.266 . S
Co1020 O1023 1.970 . S
Co1020 N1037 1.989 . S
Co1020 O1045 1.967 . S
Co1020 O1052 1.920 . S
Co1021 O1024 1.966 . S
Co1021 N1030 2.022 1_556 S
Co1021 N1038 1.993 . S
Co1021 O1046 1.941 . S
C1022 O1023 1.258 . S
C1022 O1024 1.263 . S
O1023 Co1020 1.970 . S
O1023 C1022 1.258 . S
O1024 Co1021 1.966 . S
O1024 C1022 1.263 . S
C1025 O1026 1.235 . S
C1025 O1052 1.289 . S
O1026 C1025 1.235 . S
C1027 C1029 1.400 . S
C1027 N1030 1.351 . S
C1027 C1032 1.501 . S
C1028 C1029 1.387 . S
C1028 N1031 1.341 . S
C1029 C1027 1.400 . S
C1029 C1028 1.387 . S
N1030 Co1021 2.022 1_554 S
N1030 C1027 1.351 . S
N1030 N1031 1.365 . S
N1031 C1028 1.341 . S
N1031 N1030 1.365 . S
N1031 H1051 0.862 . S
C1032 C1027 1.501 . S
C1032 H1033 0.961 . S
C1032 H1034 0.961 . S
C1032 H1035 0.960 . S
H1033 C1032 0.961 . S
H1034 C1032 0.961 . S
H1035 C1032 0.960 . S
C1036 N1037 1.342 . S
C1036 C1040 1.401 1_556 S
C1036 C1041 1.499 . S
N1037 Co1020 1.989 . S
N1037 C1036 1.342 . S
N1037 N1038 1.388 . S
N1038 Co1021 1.993 . S
N1038 N1037 1.388 . S
N1038 C1039 1.346 1_556 S
C1039 N1038 1.346 1_554 S
C1039 C1040 1.396 . S
C1039 C1049 1.510 . S
C1040 C1036 1.401 1_554 S
C1040 C1039 1.396 . S
C1041 C1036 1.499 . S
C1041 H1042 0.959 . S
C1041 H1043 0.960 . S
C1041 H1044 0.961 . S
H1042 C1041 0.959 . S
H1043 C1041 0.960 . S
H1044 C1041 0.961 . S
O1045 Co1020 1.967 . S
O1045 C1053 1.258 . S
O1046 Co1021 1.941 . S
O1046 C1053 1.266 . S
H1047 C1049 0.959 . S
H1048 C1049 0.961 . S
C1049 C1039 1.510 . S
C1049 H1047 0.959 . S
C1049 H1048 0.961 . S
C1049 H1050 0.960 . S
H1050 C1049 0.960 . S
H1051 N1031 0.862 . S
O1052 Co1020 1.920 . S
O1052 C1025 1.289 . S
C1053 O1045 1.258 . S
C1053 O1046 1.266 . S
Co1054 O1057 1.970 . S
Co1054 N1071 1.989 . S
Co1054 O1079 1.967 . S
Co1054 O1086 1.920 . S
Co1055 O1058 1.966 . S
Co1055 N1064 2.022 1_556 S
Co1055 N1072 1.993 . S
Co1055 O1080 1.941 . S
C1056 O1057 1.258 . S
C1056 O1058 1.263 . S
O1057 Co1054 1.970 . S
O1057 C1056 1.258 . S
O1058 Co1055 1.966 . S
O1058 C1056 1.263 . S
C1059 O1060 1.235 . S
C1059 O1086 1.289 . S
O1060 C1059 1.235 . S
C1061 C1063 1.400 . S
C1061 N1064 1.351 . S
C1061 C1066 1.501 . S
C1062 C1063 1.387 . S
C1062 N1065 1.341 . S
C1063 C1061 1.400 . S
C1063 C1062 1.387 . S
N1064 Co1055 2.022 1_554 S
N1064 C1061 1.351 . S
N1064 N1065 1.365 . S
N1065 C1062 1.341 . S
N1065 N1064 1.365 . S
N1065 H1085 0.862 . S
C1066 C1061 1.501 . S
C1066 H1067 0.961 . S
C1066 H1068 0.961 . S
C1066 H1069 0.960 . S
H1067 C1066 0.961 . S
H1068 C1066 0.961 . S
H1069 C1066 0.960 . S
C1070 N1071 1.342 . S
C1070 C1074 1.401 1_556 S
C1070 C1075 1.499 . S
N1071 Co1054 1.989 . S
N1071 C1070 1.342 . S
N1071 N1072 1.388 . S
N1072 Co1055 1.993 . S
N1072 N1071 1.388 . S
N1072 C1073 1.346 1_556 S
C1073 N1072 1.346 1_554 S
C1073 C1074 1.396 . S
C1073 C1083 1.510 . S
C1074 C1070 1.401 1_554 S
C1074 C1073 1.396 . S
C1075 C1070 1.499 . S
C1075 H1076 0.959 . S
C1075 H1077 0.960 . S
C1075 H1078 0.961 . S
H1076 C1075 0.959 . S
H1077 C1075 0.960 . S
H1078 C1075 0.961 . S
O1079 Co1054 1.967 . S
O1079 C1087 1.258 . S
O1080 Co1055 1.941 . S
O1080 C1087 1.266 . S
H1081 C1083 0.959 . S
H1082 C1083 0.961 . S
C1083 C1073 1.510 . S
C1083 H1081 0.959 . S
C1083 H1082 0.961 . S
C1083 H1084 0.960 . S
H1084 C1083 0.960 . S
H1085 N1065 0.862 . S
O1086 Co1054 1.920 . S
O1086 C1059 1.289 . S
C1087 O1079 1.258 . S
C1087 O1080 1.266 . S
C1088 C1089 1.349 . S
C1088 C1090 1.327 . S
C1088 H1113 0.950 . S
C1089 C1088 1.349 . S
C1089 C1105 1.349 . S
C1090 C1088 1.327 . S
C1090 C1109 1.429 . S
C1090 H1114 0.950 . S
C1091 C1108 1.574 . S
C1091 C1110 1.368 . S
C1091 H1115 0.949 . S
H1092 C1096 0.949 . S
C1093 C1094 1.349 . S
C1093 C1095 1.327 . S
C1093 H1116 0.950 . S
C1094 C1093 1.349 . S
C1094 C1106 1.349 . S
C1095 C1093 1.327 . S
C1095 C1111 1.429 . S
C1095 H1117 0.950 . S
C1096 H1092 0.949 . S
C1096 C1104 1.574 . S
C1096 C1112 1.368 . S
H1097 C1105 0.950 . S
H1098 C1103 0.950 . S
H1099 C1104 0.949 . S
H1100 C1106 0.950 . S
H1101 C1107 0.950 . S
H1102 C1108 0.949 . S
C1103 H1098 0.950 . S
C1103 C1105 1.327 . S
C1103 C1109 1.429 . S
C1104 C1096 1.574 . S
C1104 H1099 0.949 . S
C1104 C1110 1.368 . S
C1105 C1089 1.349 . S
C1105 H1097 0.950 . S
C1105 C1103 1.327 . S
C1106 C1094 1.349 . S
C1106 H1100 0.950 . S
C1106 C1107 1.327 . S
C1107 H1101 0.950 . S
C1107 C1106 1.327 . S
C1107 C1111 1.429 . S
C1108 C1091 1.574 . S
C1108 H1102 0.949 . S
C1108 C1112 1.368 . S
C1109 C1090 1.429 . S
C1109 C1103 1.429 . S
C1109 C1110 1.523 . S
C1110 C1091 1.368 . S
C1110 C1104 1.368 . S
C1110 C1109 1.523 . S
C1111 C1095 1.429 . S
C1111 C1107 1.429 . S
C1111 C1112 1.523 . S
C1112 C1096 1.368 . S
C1112 C1108 1.368 . S
C1112 C1111 1.523 . S
H1113 C1088 0.950 . S
H1114 C1090 0.950 . S
H1115 C1091 0.949 . S
H1116 C1093 0.950 . S
H1117 C1095 0.950 . S
C1118 C1119 1.349 . S
C1118 C1120 1.327 . S
C1118 H1143 0.950 . S
C1119 C1118 1.349 . S
C1119 C1135 1.349 . S
C1120 C1118 1.327 . S
C1120 C1139 1.429 . S
C1120 H1144 0.950 . S
C1121 C1138 1.574 . S
C1121 C1140 1.368 . S
C1121 H1145 0.949 . S
H1122 C1126 0.949 . S
C1123 C1124 1.349 . S
C1123 C1125 1.327 . S
C1123 H1146 0.950 . S
C1124 C1123 1.349 . S
C1124 C1136 1.349 . S
C1125 C1123 1.327 . S
C1125 C1141 1.429 . S
C1125 H1147 0.950 . S
C1126 H1122 0.949 . S
C1126 C1134 1.574 . S
C1126 C1142 1.368 . S
H1127 C1135 0.950 . S
H1128 C1133 0.950 . S
H1129 C1134 0.949 . S
H1130 C1136 0.950 . S
H1131 C1137 0.950 . S
H1132 C1138 0.949 . S
C1133 H1128 0.950 . S
C1133 C1135 1.327 . S
C1133 C1139 1.429 . S
C1134 C1126 1.574 . S
C1134 H1129 0.949 . S
C1134 C1140 1.368 . S
C1135 C1119 1.349 . S
C1135 H1127 0.950 . S
C1135 C1133 1.327 . S
C1136 C1124 1.349 . S
C1136 H1130 0.950 . S
C1136 C1137 1.327 . S
C1137 H1131 0.950 . S
C1137 C1136 1.327 . S
C1137 C1141 1.429 . S
C1138 C1121 1.574 . S
C1138 H1132 0.949 . S
C1138 C1142 1.368 . S
C1139 C1120 1.429 . S
C1139 C1133 1.429 . S
C1139 C1140 1.523 . S
C1140 C1121 1.368 . S
C1140 C1134 1.368 . S
C1140 C1139 1.523 . S
C1141 C1125 1.429 . S
C1141 C1137 1.429 . S
C1141 C1142 1.523 . S
C1142 C1126 1.368 . S
C1142 C1138 1.368 . S
C1142 C1141 1.523 . S
H1143 C1118 0.950 . S
H1144 C1120 0.950 . S
H1145 C1121 0.949 . S
H1146 C1123 0.950 . S
H1147 C1125 0.950 . S
C1148 C1149 1.349 . S
C1148 C1150 1.327 . S
C1148 H1173 0.950 . S
C1149 C1148 1.349 . S
C1149 C1165 1.349 . S
C1150 C1148 1.327 . S
C1150 C1169 1.429 . S
C1150 H1174 0.950 . S
C1151 C1168 1.574 . S
C1151 C1170 1.368 . S
C1151 H1175 0.949 . S
H1152 C1156 0.949 . S
C1153 C1154 1.349 . S
C1153 C1155 1.327 . S
C1153 H1176 0.950 . S
C1154 C1153 1.349 . S
C1154 C1166 1.349 . S
C1155 C1153 1.327 . S
C1155 C1171 1.429 . S
C1155 H1177 0.950 . S
C1156 H1152 0.949 . S
C1156 C1164 1.574 . S
C1156 C1172 1.368 . S
H1157 C1165 0.950 . S
H1158 C1163 0.950 . S
H1159 C1164 0.949 . S
H1160 C1166 0.950 . S
H1161 C1167 0.950 . S
H1162 C1168 0.949 . S
C1163 H1158 0.950 . S
C1163 C1165 1.327 . S
C1163 C1169 1.429 . S
C1164 C1156 1.574 . S
C1164 H1159 0.949 . S
C1164 C1170 1.368 . S
C1165 C1149 1.349 . S
C1165 H1157 0.950 . S
C1165 C1163 1.327 . S
C1166 C1154 1.349 . S
C1166 H1160 0.950 . S
C1166 C1167 1.327 . S
C1167 H1161 0.950 . S
C1167 C1166 1.327 . S
C1167 C1171 1.429 . S
C1168 C1151 1.574 . S
C1168 H1162 0.949 . S
C1168 C1172 1.368 . S
C1169 C1150 1.429 . S
C1169 C1163 1.429 . S
C1169 C1170 1.523 . S
C1170 C1151 1.368 . S
C1170 C1164 1.368 . S
C1170 C1169 1.523 . S
C1171 C1155 1.429 . S
C1171 C1167 1.429 . S
C1171 C1172 1.523 . S
C1172 C1156 1.368 . S
C1172 C1168 1.368 . S
C1172 C1171 1.523 . S
H1173 C1148 0.950 . S
H1174 C1150 0.950 . S
H1175 C1151 0.949 . S
H1176 C1153 0.950 . S
H1177 C1155 0.950 . S
C1178 C1179 1.349 . S
C1178 C1180 1.327 . S
C1178 H1203 0.950 . S
C1179 C1178 1.349 . S
C1179 C1195 1.349 . S
C1180 C1178 1.327 . S
C1180 C1199 1.429 . S
C1180 H1204 0.950 . S
C1181 C1198 1.574 . S
C1181 C1200 1.368 . S
C1181 H1205 0.949 . S
H1182 C1186 0.949 . S
C1183 C1184 1.349 . S
C1183 C1185 1.327 . S
C1183 H1206 0.950 . S
C1184 C1183 1.349 . S
C1184 C1196 1.349 . S
C1185 C1183 1.327 . S
C1185 C1201 1.429 . S
C1185 H1207 0.950 . S
C1186 H1182 0.949 . S
C1186 C1194 1.574 . S
C1186 C1202 1.368 . S
H1187 C1195 0.950 . S
H1188 C1193 0.950 . S
H1189 C1194 0.949 . S
H1190 C1196 0.950 . S
H1191 C1197 0.950 . S
H1192 C1198 0.949 . S
C1193 H1188 0.950 . S
C1193 C1195 1.327 . S
C1193 C1199 1.429 . S
C1194 C1186 1.574 . S
C1194 H1189 0.949 . S
C1194 C1200 1.368 . S
C1195 C1179 1.349 . S
C1195 H1187 0.950 . S
C1195 C1193 1.327 . S
C1196 C1184 1.349 . S
C1196 H1190 0.950 . S
C1196 C1197 1.327 . S
C1197 H1191 0.950 . S
C1197 C1196 1.327 . S
C1197 C1201 1.429 . S
C1198 C1181 1.574 . S
C1198 H1192 0.949 . S
C1198 C1202 1.368 . S
C1199 C1180 1.429 . S
C1199 C1193 1.429 . S
C1199 C1200 1.523 . S
C1200 C1181 1.368 . S
C1200 C1194 1.368 . S
C1200 C1199 1.523 . S
C1201 C1185 1.429 . S
C1201 C1197 1.429 . S
C1201 C1202 1.523 . S
C1202 C1186 1.368 . S
C1202 C1198 1.368 . S
C1202 C1201 1.523 . S
H1203 C1178 0.950 . S
H1204 C1180 0.950 . S
H1205 C1181 0.949 . S
H1206 C1183 0.950 . S
H1207 C1185 0.950 . S
C1208 C1209 1.349 . S
C1208 C1210 1.327 . S
C1208 H1233 0.950 . S
C1209 C1208 1.349 . S
C1209 C1225 1.349 . S
C1210 C1208 1.327 . S
C1210 C1229 1.429 . S
C1210 H1234 0.950 . S
C1211 C1228 1.574 . S
C1211 C1230 1.368 . S
C1211 H1235 0.949 . S
H1212 C1216 0.949 . S
C1213 C1214 1.349 . S
C1213 C1215 1.327 . S
C1213 H1236 0.950 . S
C1214 C1213 1.349 . S
C1214 C1226 1.349 . S
C1215 C1213 1.327 . S
C1215 C1231 1.429 . S
C1215 H1237 0.950 . S
C1216 H1212 0.949 . S
C1216 C1224 1.574 . S
C1216 C1232 1.368 . S
H1217 C1225 0.950 . S
H1218 C1223 0.950 . S
H1219 C1224 0.949 . S
H1220 C1226 0.950 . S
H1221 C1227 0.950 . S
H1222 C1228 0.949 . S
C1223 H1218 0.950 . S
C1223 C1225 1.327 . S
C1223 C1229 1.429 . S
C1224 C1216 1.574 . S
C1224 H1219 0.949 . S
C1224 C1230 1.368 . S
C1225 C1209 1.349 . S
C1225 H1217 0.950 . S
C1225 C1223 1.327 . S
C1226 C1214 1.349 . S
C1226 H1220 0.950 . S
C1226 C1227 1.327 . S
C1227 H1221 0.950 . S
C1227 C1226 1.327 . S
C1227 C1231 1.429 . S
C1228 C1211 1.574 . S
C1228 H1222 0.949 . S
C1228 C1232 1.368 . S
C1229 C1210 1.429 . S
C1229 C1223 1.429 . S
C1229 C1230 1.523 . S
C1230 C1211 1.368 . S
C1230 C1224 1.368 . S
C1230 C1229 1.523 . S
C1231 C1215 1.429 . S
C1231 C1227 1.429 . S
C1231 C1232 1.523 . S
C1232 C1216 1.368 . S
C1232 C1228 1.368 . S
C1232 C1231 1.523 . S
H1233 C1208 0.950 . S
H1234 C1210 0.950 . S
H1235 C1211 0.949 . S
H1236 C1213 0.950 . S
H1237 C1215 0.950 . S
C1238 C1239 1.349 . S
C1238 C1240 1.327 . S
C1238 H1263 0.950 . S
C1239 C1238 1.349 . S
C1239 C1255 1.349 . S
C1240 C1238 1.327 . S
C1240 C1259 1.429 . S
C1240 H1264 0.950 . S
C1241 C1258 1.574 . S
C1241 C1260 1.368 . S
C1241 H1265 0.949 . S
H1242 C1246 0.949 . S
C1243 C1244 1.349 . S
C1243 C1245 1.327 . S
C1243 H1266 0.950 . S
C1244 C1243 1.349 . S
C1244 C1256 1.349 . S
C1245 C1243 1.327 . S
C1245 C1261 1.429 . S
C1245 H1267 0.950 . S
C1246 H1242 0.949 . S
C1246 C1254 1.574 . S
C1246 C1262 1.368 . S
H1247 C1255 0.950 . S
H1248 C1253 0.950 . S
H1249 C1254 0.949 . S
H1250 C1256 0.950 . S
H1251 C1257 0.950 . S
H1252 C1258 0.949 . S
C1253 H1248 0.950 . S
C1253 C1255 1.327 . S
C1253 C1259 1.429 . S
C1254 C1246 1.574 . S
C1254 H1249 0.949 . S
C1254 C1260 1.368 . S
C1255 C1239 1.349 . S
C1255 H1247 0.950 . S
C1255 C1253 1.327 . S
C1256 C1244 1.349 . S
C1256 H1250 0.950 . S
C1256 C1257 1.327 . S
C1257 H1251 0.950 . S
C1257 C1256 1.327 . S
C1257 C1261 1.429 . S
C1258 C1241 1.574 . S
C1258 H1252 0.949 . S
C1258 C1262 1.368 . S
C1259 C1240 1.429 . S
C1259 C1253 1.429 . S
C1259 C1260 1.523 . S
C1260 C1241 1.368 . S
C1260 C1254 1.368 . S
C1260 C1259 1.523 . S
C1261 C1245 1.429 . S
C1261 C1257 1.429 . S
C1261 C1262 1.523 . S
C1262 C1246 1.368 . S
C1262 C1258 1.368 . S
C1262 C1261 1.523 . S
H1263 C1238 0.950 . S
H1264 C1240 0.950 . S
H1265 C1241 0.949 . S
H1266 C1243 0.950 . S
H1267 C1245 0.950 . S
C1268 C1269 1.349 . S
C1268 C1270 1.327 . S
C1268 H1293 0.950 . S
C1269 C1268 1.349 . S
C1269 C1285 1.349 . S
C1270 C1268 1.327 . S
C1270 C1289 1.429 . S
C1270 H1294 0.950 . S
C1271 C1288 1.574 . S
C1271 C1290 1.368 . S
C1271 H1295 0.949 . S
H1272 C1276 0.949 . S
C1273 C1274 1.349 . S
C1273 C1275 1.327 . S
C1273 H1296 0.950 . S
C1274 C1273 1.349 . S
C1274 C1286 1.349 . S
C1275 C1273 1.327 . S
C1275 C1291 1.429 . S
C1275 H1297 0.950 . S
C1276 H1272 0.949 . S
C1276 C1284 1.574 . S
C1276 C1292 1.368 . S
H1277 C1285 0.950 . S
H1278 C1283 0.950 . S
H1279 C1284 0.949 . S
H1280 C1286 0.950 . S
H1281 C1287 0.950 . S
H1282 C1288 0.949 . S
C1283 H1278 0.950 . S
C1283 C1285 1.327 . S
C1283 C1289 1.429 . S
C1284 C1276 1.574 . S
C1284 H1279 0.949 . S
C1284 C1290 1.368 . S
C1285 C1269 1.349 . S
C1285 H1277 0.950 . S
C1285 C1283 1.327 . S
C1286 C1274 1.349 . S
C1286 H1280 0.950 . S
C1286 C1287 1.327 . S
C1287 H1281 0.950 . S
C1287 C1286 1.327 . S
C1287 C1291 1.429 . S
C1288 C1271 1.574 . S
C1288 H1282 0.949 . S
C1288 C1292 1.368 . S
C1289 C1270 1.429 . S
C1289 C1283 1.429 . S
C1289 C1290 1.523 . S
C1290 C1271 1.368 . S
C1290 C1284 1.368 . S
C1290 C1289 1.523 . S
C1291 C1275 1.429 . S
C1291 C1287 1.429 . S
C1291 C1292 1.523 . S
C1292 C1276 1.368 . S
C1292 C1288 1.368 . S
C1292 C1291 1.523 . S
H1293 C1268 0.950 . S
H1294 C1270 0.950 . S
H1295 C1271 0.949 . S
H1296 C1273 0.950 . S
H1297 C1275 0.950 . S
C1298 C1299 1.349 . S
C1298 C1300 1.327 . S
C1298 H1323 0.950 . S
C1299 C1298 1.349 . S
C1299 C1315 1.349 . S
C1300 C1298 1.327 . S
C1300 C1319 1.429 . S
C1300 H1324 0.950 . S
C1301 C1318 1.574 . S
C1301 C1320 1.368 . S
C1301 H1325 0.949 . S
H1302 C1306 0.949 . S
C1303 C1304 1.349 . S
C1303 C1305 1.327 . S
C1303 H1326 0.950 . S
C1304 C1303 1.349 . S
C1304 C1316 1.349 . S
C1305 C1303 1.327 . S
C1305 C1321 1.429 . S
C1305 H1327 0.950 . S
C1306 H1302 0.949 . S
C1306 C1314 1.574 . S
C1306 C1322 1.368 . S
H1307 C1315 0.950 . S
H1308 C1313 0.950 . S
H1309 C1314 0.949 . S
H1310 C1316 0.950 . S
H1311 C1317 0.950 . S
H1312 C1318 0.949 . S
C1313 H1308 0.950 . S
C1313 C1315 1.327 . S
C1313 C1319 1.429 . S
C1314 C1306 1.574 . S
C1314 H1309 0.949 . S
C1314 C1320 1.368 . S
C1315 C1299 1.349 . S
C1315 H1307 0.950 . S
C1315 C1313 1.327 . S
C1316 C1304 1.349 . S
C1316 H1310 0.950 . S
C1316 C1317 1.327 . S
C1317 H1311 0.950 . S
C1317 C1316 1.327 . S
C1317 C1321 1.429 . S
C1318 C1301 1.574 . S
C1318 H1312 0.949 . S
C1318 C1322 1.368 . S
C1319 C1300 1.429 . S
C1319 C1313 1.429 . S
C1319 C1320 1.523 . S
C1320 C1301 1.368 . S
C1320 C1314 1.368 . S
C1320 C1319 1.523 . S
C1321 C1305 1.429 . S
C1321 C1317 1.429 . S
C1321 C1322 1.523 . S
C1322 C1306 1.368 . S
C1322 C1318 1.368 . S
C1322 C1321 1.523 . S
H1323 C1298 0.950 . S
H1324 C1300 0.950 . S
H1325 C1301 0.949 . S
H1326 C1303 0.950 . S
H1327 C1305 0.950 . S
C1328 C1329 1.349 . S
C1328 C1330 1.327 . S
C1328 H1353 0.950 . S
C1329 C1328 1.349 . S
C1329 C1345 1.349 . S
C1330 C1328 1.327 . S
C1330 C1349 1.429 . S
C1330 H1354 0.950 . S
C1331 C1348 1.574 . S
C1331 C1350 1.368 . S
C1331 H1355 0.949 . S
H1332 C1336 0.949 . S
C1333 C1334 1.349 . S
C1333 C1335 1.327 . S
C1333 H1356 0.950 . S
C1334 C1333 1.349 . S
C1334 C1346 1.349 . S
C1335 C1333 1.327 . S
C1335 C1351 1.429 . S
C1335 H1357 0.950 . S
C1336 H1332 0.949 . S
C1336 C1344 1.574 . S
C1336 C1352 1.368 . S
H1337 C1345 0.950 . S
H1338 C1343 0.950 . S
H1339 C1344 0.949 . S
H1340 C1346 0.950 . S
H1341 C1347 0.950 . S
H1342 C1348 0.949 . S
C1343 H1338 0.950 . S
C1343 C1345 1.327 . S
C1343 C1349 1.429 . S
C1344 C1336 1.574 . S
C1344 H1339 0.949 . S
C1344 C1350 1.368 . S
C1345 C1329 1.349 . S
C1345 H1337 0.950 . S
C1345 C1343 1.327 . S
C1346 C1334 1.349 . S
C1346 H1340 0.950 . S
C1346 C1347 1.327 . S
C1347 H1341 0.950 . S
C1347 C1346 1.327 . S
C1347 C1351 1.429 . S
C1348 C1331 1.574 . S
C1348 H1342 0.949 . S
C1348 C1352 1.368 . S
C1349 C1330 1.429 . S
C1349 C1343 1.429 . S
C1349 C1350 1.523 . S
C1350 C1331 1.368 . S
C1350 C1344 1.368 . S
C1350 C1349 1.523 . S
C1351 C1335 1.429 . S
C1351 C1347 1.429 . S
C1351 C1352 1.523 . S
C1352 C1336 1.368 . S
C1352 C1348 1.368 . S
C1352 C1351 1.523 . S
H1353 C1328 0.950 . S
H1354 C1330 0.950 . S
H1355 C1331 0.949 . S
H1356 C1333 0.950 . S
H1357 C1335 0.950 . S
C1358 C1359 1.349 . S
C1358 C1360 1.327 . S
C1358 H1383 0.950 . S
C1359 C1358 1.349 . S
C1359 C1375 1.349 . S
C1360 C1358 1.327 . S
C1360 C1379 1.429 . S
C1360 H1384 0.950 . S
C1361 C1378 1.574 . S
C1361 C1380 1.368 . S
C1361 H1385 0.949 . S
H1362 C1366 0.949 . S
C1363 C1364 1.349 . S
C1363 C1365 1.327 . S
C1363 H1386 0.950 . S
C1364 C1363 1.349 . S
C1364 C1376 1.349 . S
C1365 C1363 1.327 . S
C1365 C1381 1.429 . S
C1365 H1387 0.950 . S
C1366 H1362 0.949 . S
C1366 C1374 1.574 . S
C1366 C1382 1.368 . S
H1367 C1375 0.950 . S
H1368 C1373 0.950 . S
H1369 C1374 0.949 . S
H1370 C1376 0.950 . S
H1371 C1377 0.950 . S
H1372 C1378 0.949 . S
C1373 H1368 0.950 . S
C1373 C1375 1.327 . S
C1373 C1379 1.429 . S
C1374 C1366 1.574 . S
C1374 H1369 0.949 . S
C1374 C1380 1.368 . S
C1375 C1359 1.349 . S
C1375 H1367 0.950 . S
C1375 C1373 1.327 . S
C1376 C1364 1.349 . S
C1376 H1370 0.950 . S
C1376 C1377 1.327 . S
C1377 H1371 0.950 . S
C1377 C1376 1.327 . S
C1377 C1381 1.429 . S
C1378 C1361 1.574 . S
C1378 H1372 0.949 . S
C1378 C1382 1.368 . S
C1379 C1360 1.429 . S
C1379 C1373 1.429 . S
C1379 C1380 1.523 . S
C1380 C1361 1.368 . S
C1380 C1374 1.368 . S
C1380 C1379 1.523 . S
C1381 C1365 1.429 . S
C1381 C1377 1.429 . S
C1381 C1382 1.523 . S
C1382 C1366 1.368 . S
C1382 C1378 1.368 . S
C1382 C1381 1.523 . S
H1383 C1358 0.950 . S
H1384 C1360 0.950 . S
H1385 C1361 0.949 . S
H1386 C1363 0.950 . S
H1387 C1365 0.950 . S
C1388 C1389 1.349 . S
C1388 C1390 1.327 . S
C1388 H1413 0.950 . S
C1389 C1388 1.349 . S
C1389 C1405 1.349 . S
C1390 C1388 1.327 . S
C1390 C1409 1.429 . S
C1390 H1414 0.950 . S
C1391 C1408 1.574 . S
C1391 C1410 1.368 . S
C1391 H1415 0.949 . S
H1392 C1396 0.949 . S
C1393 C1394 1.349 . S
C1393 C1395 1.327 . S
C1393 H1416 0.950 . S
C1394 C1393 1.349 . S
C1394 C1406 1.349 . S
C1395 C1393 1.327 . S
C1395 C1411 1.429 . S
C1395 H1417 0.950 . S
C1396 H1392 0.949 . S
C1396 C1404 1.574 . S
C1396 C1412 1.368 . S
H1397 C1405 0.950 . S
H1398 C1403 0.950 . S
H1399 C1404 0.949 . S
H1400 C1406 0.950 . S
H1401 C1407 0.950 . S
H1402 C1408 0.949 . S
C1403 H1398 0.950 . S
C1403 C1405 1.327 . S
C1403 C1409 1.429 . S
C1404 C1396 1.574 . S
C1404 H1399 0.949 . S
C1404 C1410 1.368 . S
C1405 C1389 1.349 . S
C1405 H1397 0.950 . S
C1405 C1403 1.327 . S
C1406 C1394 1.349 . S
C1406 H1400 0.950 . S
C1406 C1407 1.327 . S
C1407 H1401 0.950 . S
C1407 C1406 1.327 . S
C1407 C1411 1.429 . S
C1408 C1391 1.574 . S
C1408 H1402 0.949 . S
C1408 C1412 1.368 . S
C1409 C1390 1.429 . S
C1409 C1403 1.429 . S
C1409 C1410 1.523 . S
C1410 C1391 1.368 . S
C1410 C1404 1.368 . S
C1410 C1409 1.523 . S
C1411 C1395 1.429 . S
C1411 C1407 1.429 . S
C1411 C1412 1.523 . S
C1412 C1396 1.368 . S
C1412 C1408 1.368 . S
C1412 C1411 1.523 . S
H1413 C1388 0.950 . S
H1414 C1390 0.950 . S
H1415 C1391 0.949 . S
H1416 C1393 0.950 . S
H1417 C1395 0.950 . S
C1418 C1419 1.349 . S
C1418 C1420 1.327 . S
C1418 H1443 0.950 . S
C1419 C1418 1.349 . S
C1419 C1435 1.349 . S
C1420 C1418 1.327 . S
C1420 C1439 1.429 . S
C1420 H1444 0.950 . S
C1421 C1438 1.574 . S
C1421 C1440 1.368 . S
C1421 H1445 0.949 . S
H1422 C1426 0.949 . S
C1423 C1424 1.349 . S
C1423 C1425 1.327 . S
C1423 H1446 0.950 . S
C1424 C1423 1.349 . S
C1424 C1436 1.349 . S
C1425 C1423 1.327 . S
C1425 C1441 1.429 . S
C1425 H1447 0.950 . S
C1426 H1422 0.949 . S
C1426 C1434 1.574 . S
C1426 C1442 1.368 . S
H1427 C1435 0.950 . S
H1428 C1433 0.950 . S
H1429 C1434 0.949 . S
H1430 C1436 0.950 . S
H1431 C1437 0.950 . S
H1432 C1438 0.949 . S
C1433 H1428 0.950 . S
C1433 C1435 1.327 . S
C1433 C1439 1.429 . S
C1434 C1426 1.574 . S
C1434 H1429 0.949 . S
C1434 C1440 1.368 . S
C1435 C1419 1.349 . S
C1435 H1427 0.950 . S
C1435 C1433 1.327 . S
C1436 C1424 1.349 . S
C1436 H1430 0.950 . S
C1436 C1437 1.327 . S
C1437 H1431 0.950 . S
C1437 C1436 1.327 . S
C1437 C1441 1.429 . S
C1438 C1421 1.574 . S
C1438 H1432 0.949 . S
C1438 C1442 1.368 . S
C1439 C1420 1.429 . S
C1439 C1433 1.429 . S
C1439 C1440 1.523 . S
C1440 C1421 1.368 . S
C1440 C1434 1.368 . S
C1440 C1439 1.523 . S
C1441 C1425 1.429 . S
C1441 C1437 1.429 . S
C1441 C1442 1.523 . S
C1442 C1426 1.368 . S
C1442 C1438 1.368 . S
C1442 C1441 1.523 . S
H1443 C1418 0.950 . S
H1444 C1420 0.950 . S
H1445 C1421 0.949 . S
H1446 C1423 0.950 . S
H1447 C1425 0.950 . S
C1448 C1449 1.349 . S
C1448 C1450 1.327 . S
C1448 H1473 0.950 . S
C1449 C1448 1.349 . S
C1449 C1465 1.349 . S
C1450 C1448 1.327 . S
C1450 C1469 1.429 . S
C1450 H1474 0.950 . S
C1451 C1468 1.574 . S
C1451 C1470 1.368 . S
C1451 H1475 0.949 . S
H1452 C1456 0.949 . S
C1453 C1454 1.349 . S
C1453 C1455 1.327 . S
C1453 H1476 0.950 . S
C1454 C1453 1.349 . S
C1454 C1466 1.349 . S
C1455 C1453 1.327 . S
C1455 C1471 1.429 . S
C1455 H1477 0.950 . S
C1456 H1452 0.949 . S
C1456 C1464 1.574 . S
C1456 C1472 1.368 . S
H1457 C1465 0.950 . S
H1458 C1463 0.950 . S
H1459 C1464 0.949 . S
H1460 C1466 0.950 . S
H1461 C1467 0.950 . S
H1462 C1468 0.949 . S
C1463 H1458 0.950 . S
C1463 C1465 1.327 . S
C1463 C1469 1.429 . S
C1464 C1456 1.574 . S
C1464 H1459 0.949 . S
C1464 C1470 1.368 . S
C1465 C1449 1.349 . S
C1465 H1457 0.950 . S
C1465 C1463 1.327 . S
C1466 C1454 1.349 . S
C1466 H1460 0.950 . S
C1466 C1467 1.327 . S
C1467 H1461 0.950 . S
C1467 C1466 1.327 . S
C1467 C1471 1.429 . S
C1468 C1451 1.574 . S
C1468 H1462 0.949 . S
C1468 C1472 1.368 . S
C1469 C1450 1.429 . S
C1469 C1463 1.429 . S
C1469 C1470 1.523 . S
C1470 C1451 1.368 . S
C1470 C1464 1.368 . S
C1470 C1469 1.523 . S
C1471 C1455 1.429 . S
C1471 C1467 1.429 . S
C1471 C1472 1.523 . S
C1472 C1456 1.368 . S
C1472 C1468 1.368 . S
C1472 C1471 1.523 . S
H1473 C1448 0.950 . S
H1474 C1450 0.950 . S
H1475 C1451 0.949 . S
H1476 C1453 0.950 . S
H1477 C1455 0.950 . S
C1478 C1479 1.349 . S
C1478 C1480 1.327 . S
C1478 H1503 0.950 . S
C1479 C1478 1.349 . S
C1479 C1495 1.349 . S
C1480 C1478 1.327 . S
C1480 C1499 1.429 . S
C1480 H1504 0.950 . S
C1481 C1498 1.574 . S
C1481 C1500 1.368 . S
C1481 H1505 0.949 . S
H1482 C1486 0.949 . S
C1483 C1484 1.349 . S
C1483 C1485 1.327 . S
C1483 H1506 0.950 . S
C1484 C1483 1.349 . S
C1484 C1496 1.349 . S
C1485 C1483 1.327 . S
C1485 C1501 1.429 . S
C1485 H1507 0.950 . S
C1486 H1482 0.949 . S
C1486 C1494 1.574 . S
C1486 C1502 1.368 . S
H1487 C1495 0.950 . S
H1488 C1493 0.950 . S
H1489 C1494 0.949 . S
H1490 C1496 0.950 . S
H1491 C1497 0.950 . S
H1492 C1498 0.949 . S
C1493 H1488 0.950 . S
C1493 C1495 1.327 . S
C1493 C1499 1.429 . S
C1494 C1486 1.574 . S
C1494 H1489 0.949 . S
C1494 C1500 1.368 . S
C1495 C1479 1.349 . S
C1495 H1487 0.950 . S
C1495 C1493 1.327 . S
C1496 C1484 1.349 . S
C1496 H1490 0.950 . S
C1496 C1497 1.327 . S
C1497 H1491 0.950 . S
C1497 C1496 1.327 . S
C1497 C1501 1.429 . S
C1498 C1481 1.574 . S
C1498 H1492 0.949 . S
C1498 C1502 1.368 . S
C1499 C1480 1.429 . S
C1499 C1493 1.429 . S
C1499 C1500 1.523 . S
C1500 C1481 1.368 . S
C1500 C1494 1.368 . S
C1500 C1499 1.523 . S
C1501 C1485 1.429 . S
C1501 C1497 1.429 . S
C1501 C1502 1.523 . S
C1502 C1486 1.368 . S
C1502 C1498 1.368 . S
C1502 C1501 1.523 . S
H1503 C1478 0.950 . S
H1504 C1480 0.950 . S
H1505 C1481 0.949 . S
H1506 C1483 0.950 . S
H1507 C1485 0.950 . S
C1508 C1509 1.349 . S
C1508 C1510 1.327 . S
C1508 H1533 0.950 . S
C1509 C1508 1.349 . S
C1509 C1525 1.349 . S
C1510 C1508 1.327 . S
C1510 C1529 1.429 . S
C1510 H1534 0.950 . S
C1511 C1528 1.574 . S
C1511 C1530 1.368 . S
C1511 H1535 0.949 . S
H1512 C1516 0.949 . S
C1513 C1514 1.349 . S
C1513 C1515 1.327 . S
C1513 H1536 0.950 . S
C1514 C1513 1.349 . S
C1514 C1526 1.349 . S
C1515 C1513 1.327 . S
C1515 C1531 1.429 . S
C1515 H1537 0.950 . S
C1516 H1512 0.949 . S
C1516 C1524 1.574 . S
C1516 C1532 1.368 . S
H1517 C1525 0.950 . S
H1518 C1523 0.950 . S
H1519 C1524 0.949 . S
H1520 C1526 0.950 . S
H1521 C1527 0.950 . S
H1522 C1528 0.949 . S
C1523 H1518 0.950 . S
C1523 C1525 1.327 . S
C1523 C1529 1.429 . S
C1524 C1516 1.574 . S
C1524 H1519 0.949 . S
C1524 C1530 1.368 . S
C1525 C1509 1.349 . S
C1525 H1517 0.950 . S
C1525 C1523 1.327 . S
C1526 C1514 1.349 . S
C1526 H1520 0.950 . S
C1526 C1527 1.327 . S
C1527 H1521 0.950 . S
C1527 C1526 1.327 . S
C1527 C1531 1.429 . S
C1528 C1511 1.574 . S
C1528 H1522 0.949 . S
C1528 C1532 1.368 . S
C1529 C1510 1.429 . S
C1529 C1523 1.429 . S
C1529 C1530 1.523 . S
C1530 C1511 1.368 . S
C1530 C1524 1.368 . S
C1530 C1529 1.523 . S
C1531 C1515 1.429 . S
C1531 C1527 1.429 . S
C1531 C1532 1.523 . S
C1532 C1516 1.368 . S
C1532 C1528 1.368 . S
C1532 C1531 1.523 . S
H1533 C1508 0.950 . S
H1534 C1510 0.950 . S
H1535 C1511 0.949 . S
H1536 C1513 0.950 . S
H1537 C1515 0.950 . S
C1538 C1539 1.349 . S
C1538 C1540 1.327 . S
C1538 H1563 0.950 . S
C1539 C1538 1.349 . S
C1539 C1555 1.349 . S
C1540 C1538 1.327 . S
C1540 C1559 1.429 . S
C1540 H1564 0.950 . S
C1541 C1558 1.574 . S
C1541 C1560 1.368 . S
C1541 H1565 0.949 . S
H1542 C1546 0.949 . S
C1543 C1544 1.349 . S
C1543 C1545 1.327 . S
C1543 H1566 0.950 . S
C1544 C1543 1.349 . S
C1544 C1556 1.349 . S
C1545 C1543 1.327 . S
C1545 C1561 1.429 . S
C1545 H1567 0.950 . S
C1546 H1542 0.949 . S
C1546 C1554 1.574 . S
C1546 C1562 1.368 . S
H1547 C1555 0.950 . S
H1548 C1553 0.950 . S
H1549 C1554 0.949 . S
H1550 C1556 0.950 . S
H1551 C1557 0.950 . S
H1552 C1558 0.949 . S
C1553 H1548 0.950 . S
C1553 C1555 1.327 . S
C1553 C1559 1.429 . S
C1554 C1546 1.574 . S
C1554 H1549 0.949 . S
C1554 C1560 1.368 . S
C1555 C1539 1.349 . S
C1555 H1547 0.950 . S
C1555 C1553 1.327 . S
C1556 C1544 1.349 . S
C1556 H1550 0.950 . S
C1556 C1557 1.327 . S
C1557 H1551 0.950 . S
C1557 C1556 1.327 . S
C1557 C1561 1.429 . S
C1558 C1541 1.574 . S
C1558 H1552 0.949 . S
C1558 C1562 1.368 . S
C1559 C1540 1.429 . S
C1559 C1553 1.429 . S
C1559 C1560 1.523 . S
C1560 C1541 1.368 . S
C1560 C1554 1.368 . S
C1560 C1559 1.523 . S
C1561 C1545 1.429 . S
C1561 C1557 1.429 . S
C1561 C1562 1.523 . S
C1562 C1546 1.368 . S
C1562 C1558 1.368 . S
C1562 C1561 1.523 . S
H1563 C1538 0.950 . S
H1564 C1540 0.950 . S
H1565 C1541 0.949 . S
H1566 C1543 0.950 . S
H1567 C1545 0.950 . S
C1568 C1569 1.349 . S
C1568 C1570 1.327 . S
C1568 H1593 0.950 . S
C1569 C1568 1.349 . S
C1569 C1585 1.349 . S
C1570 C1568 1.327 . S
C1570 C1589 1.429 . S
C1570 H1594 0.950 . S
C1571 C1588 1.574 . S
C1571 C1590 1.368 . S
C1571 H1595 0.949 . S
H1572 C1576 0.949 . S
C1573 C1574 1.349 . S
C1573 C1575 1.327 . S
C1573 H1596 0.950 . S
C1574 C1573 1.349 . S
C1574 C1586 1.349 . S
C1575 C1573 1.327 . S
C1575 C1591 1.429 . S
C1575 H1597 0.950 . S
C1576 H1572 0.949 . S
C1576 C1584 1.574 . S
C1576 C1592 1.368 . S
H1577 C1585 0.950 . S
H1578 C1583 0.950 . S
H1579 C1584 0.949 . S
H1580 C1586 0.950 . S
H1581 C1587 0.950 . S
H1582 C1588 0.949 . S
C1583 H1578 0.950 . S
C1583 C1585 1.327 . S
C1583 C1589 1.429 . S
C1584 C1576 1.574 . S
C1584 H1579 0.949 . S
C1584 C1590 1.368 . S
C1585 C1569 1.349 . S
C1585 H1577 0.950 . S
C1585 C1583 1.327 . S
C1586 C1574 1.349 . S
C1586 H1580 0.950 . S
C1586 C1587 1.327 . S
C1587 H1581 0.950 . S
C1587 C1586 1.327 . S
C1587 C1591 1.429 . S
C1588 C1571 1.574 . S
C1588 H1582 0.949 . S
C1588 C1592 1.368 . S
C1589 C1570 1.429 . S
C1589 C1583 1.429 . S
C1589 C1590 1.523 . S
C1590 C1571 1.368 . S
C1590 C1584 1.368 . S
C1590 C1589 1.523 . S
C1591 C1575 1.429 . S
C1591 C1587 1.429 . S
C1591 C1592 1.523 . S
C1592 C1576 1.368 . S
C1592 C1588 1.368 . S
C1592 C1591 1.523 . S
H1593 C1568 0.950 . S
H1594 C1570 0.950 . S
H1595 C1571 0.949 . S
H1596 C1573 0.950 . S
H1597 C1575 0.950 . S
C1598 C1599 1.349 . S
C1598 C1600 1.327 . S
C1598 H1623 0.950 . S
C1599 C1598 1.349 . S
C1599 C1615 1.349 . S
C1600 C1598 1.327 . S
C1600 C1619 1.429 . S
C1600 H1624 0.950 . S
C1601 C1618 1.574 . S
C1601 C1620 1.368 . S
C1601 H1625 0.949 . S
H1602 C1606 0.949 . S
C1603 C1604 1.349 . S
C1603 C1605 1.327 . S
C1603 H1626 0.950 . S
C1604 C1603 1.349 . S
C1604 C1616 1.349 . S
C1605 C1603 1.327 . S
C1605 C1621 1.429 . S
C1605 H1627 0.950 . S
C1606 H1602 0.949 . S
C1606 C1614 1.574 . S
C1606 C1622 1.368 . S
H1607 C1615 0.950 . S
H1608 C1613 0.950 . S
H1609 C1614 0.949 . S
H1610 C1616 0.950 . S
H1611 C1617 0.950 . S
H1612 C1618 0.949 . S
C1613 H1608 0.950 . S
C1613 C1615 1.327 . S
C1613 C1619 1.429 . S
C1614 C1606 1.574 . S
C1614 H1609 0.949 . S
C1614 C1620 1.368 . S
C1615 C1599 1.349 . S
C1615 H1607 0.950 . S
C1615 C1613 1.327 . S
C1616 C1604 1.349 . S
C1616 H1610 0.950 . S
C1616 C1617 1.327 . S
C1617 H1611 0.950 . S
C1617 C1616 1.327 . S
C1617 C1621 1.429 . S
C1618 C1601 1.574 . S
C1618 H1612 0.949 . S
C1618 C1622 1.368 . S
C1619 C1600 1.429 . S
C1619 C1613 1.429 . S
C1619 C1620 1.523 . S
C1620 C1601 1.368 . S
C1620 C1614 1.368 . S
C1620 C1619 1.523 . S
C1621 C1605 1.429 . S
C1621 C1617 1.429 . S
C1621 C1622 1.523 . S
C1622 C1606 1.368 . S
C1622 C1618 1.368 . S
C1622 C1621 1.523 . S
H1623 C1598 0.950 . S
H1624 C1600 0.950 . S
H1625 C1601 0.949 . S
H1626 C1603 0.950 . S
H1627 C1605 0.950 . S
C1628 C1629 1.349 . S
C1628 C1630 1.327 . S
C1628 H1653 0.950 . S
C1629 C1628 1.349 . S
C1629 C1645 1.349 . S
C1630 C1628 1.327 . S
C1630 C1649 1.429 . S
C1630 H1654 0.950 . S
C1631 C1648 1.574 . S
C1631 C1650 1.368 . S
C1631 H1655 0.949 . S
H1632 C1636 0.949 . S
C1633 C1634 1.349 . S
C1633 C1635 1.327 . S
C1633 H1656 0.950 . S
C1634 C1633 1.349 . S
C1634 C1646 1.349 . S
C1635 C1633 1.327 . S
C1635 C1651 1.429 . S
C1635 H1657 0.950 . S
C1636 H1632 0.949 . S
C1636 C1644 1.574 . S
C1636 C1652 1.368 . S
H1637 C1645 0.950 . S
H1638 C1643 0.950 . S
H1639 C1644 0.949 . S
H1640 C1646 0.950 . S
H1641 C1647 0.950 . S
H1642 C1648 0.949 . S
C1643 H1638 0.950 . S
C1643 C1645 1.327 . S
C1643 C1649 1.429 . S
C1644 C1636 1.574 . S
C1644 H1639 0.949 . S
C1644 C1650 1.368 . S
C1645 C1629 1.349 . S
C1645 H1637 0.950 . S
C1645 C1643 1.327 . S
C1646 C1634 1.349 . S
C1646 H1640 0.950 . S
C1646 C1647 1.327 . S
C1647 H1641 0.950 . S
C1647 C1646 1.327 . S
C1647 C1651 1.429 . S
C1648 C1631 1.574 . S
C1648 H1642 0.949 . S
C1648 C1652 1.368 . S
C1649 C1630 1.429 . S
C1649 C1643 1.429 . S
C1649 C1650 1.523 . S
C1650 C1631 1.368 . S
C1650 C1644 1.368 . S
C1650 C1649 1.523 . S
C1651 C1635 1.429 . S
C1651 C1647 1.429 . S
C1651 C1652 1.523 . S
C1652 C1636 1.368 . S
C1652 C1648 1.368 . S
C1652 C1651 1.523 . S
H1653 C1628 0.950 . S
H1654 C1630 0.950 . S
H1655 C1631 0.949 . S
H1656 C1633 0.950 . S
H1657 C1635 0.950 . S
C1658 C1659 1.349 . S
C1658 C1660 1.327 . S
C1658 H1683 0.950 . S
C1659 C1658 1.349 . S
C1659 C1675 1.349 . S
C1660 C1658 1.327 . S
C1660 C1679 1.429 . S
C1660 H1684 0.950 . S
C1661 C1678 1.574 . S
C1661 C1680 1.368 . S
C1661 H1685 0.949 . S
H1662 C1666 0.949 . S
C1663 C1664 1.349 . S
C1663 C1665 1.327 . S
C1663 H1686 0.950 . S
C1664 C1663 1.349 . S
C1664 C1676 1.349 . S
C1665 C1663 1.327 . S
C1665 C1681 1.429 . S
C1665 H1687 0.950 . S
C1666 H1662 0.949 . S
C1666 C1674 1.574 . S
C1666 C1682 1.368 . S
H1667 C1675 0.950 . S
H1668 C1673 0.950 . S
H1669 C1674 0.949 . S
H1670 C1676 0.950 . S
H1671 C1677 0.950 . S
H1672 C1678 0.949 . S
C1673 H1668 0.950 . S
C1673 C1675 1.327 . S
C1673 C1679 1.429 . S
C1674 C1666 1.574 . S
C1674 H1669 0.949 . S
C1674 C1680 1.368 . S
C1675 C1659 1.349 . S
C1675 H1667 0.950 . S
C1675 C1673 1.327 . S
C1676 C1664 1.349 . S
C1676 H1670 0.950 . S
C1676 C1677 1.327 . S
C1677 H1671 0.950 . S
C1677 C1676 1.327 . S
C1677 C1681 1.429 . S
C1678 C1661 1.574 . S
C1678 H1672 0.949 . S
C1678 C1682 1.368 . S
C1679 C1660 1.429 . S
C1679 C1673 1.429 . S
C1679 C1680 1.523 . S
C1680 C1661 1.368 . S
C1680 C1674 1.368 . S
C1680 C1679 1.523 . S
C1681 C1665 1.429 . S
C1681 C1677 1.429 . S
C1681 C1682 1.523 . S
C1682 C1666 1.368 . S
C1682 C1678 1.368 . S
C1682 C1681 1.523 . S
H1683 C1658 0.950 . S
H1684 C1660 0.950 . S
H1685 C1661 0.949 . S
H1686 C1663 0.950 . S
H1687 C1665 0.950 . S
C1688 C1689 1.349 . S
C1688 C1690 1.327 . S
C1688 H1713 0.950 . S
C1689 C1688 1.349 . S
C1689 C1705 1.349 . S
C1690 C1688 1.327 . S
C1690 C1709 1.429 . S
C1690 H1714 0.950 . S
C1691 C1708 1.574 . S
C1691 C1710 1.368 . S
C1691 H1715 0.949 . S
H1692 C1696 0.949 . S
C1693 C1694 1.349 . S
C1693 C1695 1.327 . S
C1693 H1716 0.950 . S
C1694 C1693 1.349 . S
C1694 C1706 1.349 . S
C1695 C1693 1.327 . S
C1695 C1711 1.429 . S
C1695 H1717 0.950 . S
C1696 H1692 0.949 . S
C1696 C1704 1.574 . S
C1696 C1712 1.368 . S
H1697 C1705 0.950 . S
H1698 C1703 0.950 . S
H1699 C1704 0.949 . S
H1700 C1706 0.950 . S
H1701 C1707 0.950 . S
H1702 C1708 0.949 . S
C1703 H1698 0.950 . S
C1703 C1705 1.327 . S
C1703 C1709 1.429 . S
C1704 C1696 1.574 . S
C1704 H1699 0.949 . S
C1704 C1710 1.368 . S
C1705 C1689 1.349 . S
C1705 H1697 0.950 . S
C1705 C1703 1.327 . S
C1706 C1694 1.349 . S
C1706 H1700 0.950 . S
C1706 C1707 1.327 . S
C1707 H1701 0.950 . S
C1707 C1706 1.327 . S
C1707 C1711 1.429 . S
C1708 C1691 1.574 . S
C1708 H1702 0.949 . S
C1708 C1712 1.368 . S
C1709 C1690 1.429 . S
C1709 C1703 1.429 . S
C1709 C1710 1.523 . S
C1710 C1691 1.368 . S
C1710 C1704 1.368 . S
C1710 C1709 1.523 . S
C1711 C1695 1.429 . S
C1711 C1707 1.429 . S
C1711 C1712 1.523 . S
C1712 C1696 1.368 . S
C1712 C1708 1.368 . S
C1712 C1711 1.523 . S
H1713 C1688 0.950 . S
H1714 C1690 0.950 . S
H1715 C1691 0.949 . S
H1716 C1693 0.950 . S
H1717 C1695 0.950 . S
C1718 C1719 1.349 . S
C1718 C1720 1.327 . S
C1718 H1743 0.950 . S
C1719 C1718 1.349 . S
C1719 C1735 1.349 . S
C1720 C1718 1.327 . S
C1720 C1739 1.429 . S
C1720 H1744 0.950 . S
C1721 C1738 1.574 . S
C1721 C1740 1.368 . S
C1721 H1745 0.949 . S
H1722 C1726 0.949 . S
C1723 C1724 1.349 . S
C1723 C1725 1.327 . S
C1723 H1746 0.950 . S
C1724 C1723 1.349 . S
C1724 C1736 1.349 . S
C1725 C1723 1.327 . S
C1725 C1741 1.429 . S
C1725 H1747 0.950 . S
C1726 H1722 0.949 . S
C1726 C1734 1.574 . S
C1726 C1742 1.368 . S
H1727 C1735 0.950 . S
H1728 C1733 0.950 . S
H1729 C1734 0.949 . S
H1730 C1736 0.950 . S
H1731 C1737 0.950 . S
H1732 C1738 0.949 . S
C1733 H1728 0.950 . S
C1733 C1735 1.327 . S
C1733 C1739 1.429 . S
C1734 C1726 1.574 . S
C1734 H1729 0.949 . S
C1734 C1740 1.368 . S
C1735 C1719 1.349 . S
C1735 H1727 0.950 . S
C1735 C1733 1.327 . S
C1736 C1724 1.349 . S
C1736 H1730 0.950 . S
C1736 C1737 1.327 . S
C1737 H1731 0.950 . S
C1737 C1736 1.327 . S
C1737 C1741 1.429 . S
C1738 C1721 1.574 . S
C1738 H1732 0.949 . S
C1738 C1742 1.368 . S
C1739 C1720 1.429 . S
C1739 C1733 1.429 . S
C1739 C1740 1.523 . S
C1740 C1721 1.368 . S
C1740 C1734 1.368 . S
C1740 C1739 1.523 . S
C1741 C1725 1.429 . S
C1741 C1737 1.429 . S
C1741 C1742 1.523 . S
C1742 C1726 1.368 . S
C1742 C1738 1.368 . S
C1742 C1741 1.523 . S
H1743 C1718 0.950 . S
H1744 C1720 0.950 . S
H1745 C1721 0.949 . S
H1746 C1723 0.950 . S
H1747 C1725 0.950 . S
C1748 C1749 1.349 . S
C1748 C1750 1.327 . S
C1748 H1773 0.950 . S
C1749 C1748 1.349 . S
C1749 C1765 1.349 . S
C1750 C1748 1.327 . S
C1750 C1769 1.429 . S
C1750 H1774 0.950 . S
C1751 C1768 1.574 . S
C1751 C1770 1.368 . S
C1751 H1775 0.949 . S
H1752 C1756 0.949 . S
C1753 C1754 1.349 . S
C1753 C1755 1.327 . S
C1753 H1776 0.950 . S
C1754 C1753 1.349 . S
C1754 C1766 1.349 . S
C1755 C1753 1.327 . S
C1755 C1771 1.429 . S
C1755 H1777 0.950 . S
C1756 H1752 0.949 . S
C1756 C1764 1.574 . S
C1756 C1772 1.368 . S
H1757 C1765 0.950 . S
H1758 C1763 0.950 . S
H1759 C1764 0.949 . S
H1760 C1766 0.950 . S
H1761 C1767 0.950 . S
H1762 C1768 0.949 . S
C1763 H1758 0.950 . S
C1763 C1765 1.327 . S
C1763 C1769 1.429 . S
C1764 C1756 1.574 . S
C1764 H1759 0.949 . S
C1764 C1770 1.368 . S
C1765 C1749 1.349 . S
C1765 H1757 0.950 . S
C1765 C1763 1.327 . S
C1766 C1754 1.349 . S
C1766 H1760 0.950 . S
C1766 C1767 1.327 . S
C1767 H1761 0.950 . S
C1767 C1766 1.327 . S
C1767 C1771 1.429 . S
C1768 C1751 1.574 . S
C1768 H1762 0.949 . S
C1768 C1772 1.368 . S
C1769 C1750 1.429 . S
C1769 C1763 1.429 . S
C1769 C1770 1.523 . S
C1770 C1751 1.368 . S
C1770 C1764 1.368 . S
C1770 C1769 1.523 . S
C1771 C1755 1.429 . S
C1771 C1767 1.429 . S
C1771 C1772 1.523 . S
C1772 C1756 1.368 . S
C1772 C1768 1.368 . S
C1772 C1771 1.523 . S
H1773 C1748 0.950 . S
H1774 C1750 0.950 . S
H1775 C1751 0.949 . S
H1776 C1753 0.950 . S
H1777 C1755 0.950 . S
C1778 C1779 1.349 . S
C1778 C1780 1.327 . S
C1778 H1803 0.950 . S
C1779 C1778 1.349 . S
C1779 C1795 1.349 . S
C1780 C1778 1.327 . S
C1780 C1799 1.429 . S
C1780 H1804 0.950 . S
C1781 C1798 1.574 . S
C1781 C1800 1.368 . S
C1781 H1805 0.949 . S
H1782 C1786 0.949 . S
C1783 C1784 1.349 . S
C1783 C1785 1.327 . S
C1783 H1806 0.950 . S
C1784 C1783 1.349 . S
C1784 C1796 1.349 . S
C1785 C1783 1.327 . S
C1785 C1801 1.429 . S
C1785 H1807 0.950 . S
C1786 H1782 0.949 . S
C1786 C1794 1.574 . S
C1786 C1802 1.368 . S
H1787 C1795 0.950 . S
H1788 C1793 0.950 . S
H1789 C1794 0.949 . S
H1790 C1796 0.950 . S
H1791 C1797 0.950 . S
H1792 C1798 0.949 . S
C1793 H1788 0.950 . S
C1793 C1795 1.327 . S
C1793 C1799 1.429 . S
C1794 C1786 1.574 . S
C1794 H1789 0.949 . S
C1794 C1800 1.368 . S
C1795 C1779 1.349 . S
C1795 H1787 0.950 . S
C1795 C1793 1.327 . S
C1796 C1784 1.349 . S
C1796 H1790 0.950 . S
C1796 C1797 1.327 . S
C1797 H1791 0.950 . S
C1797 C1796 1.327 . S
C1797 C1801 1.429 . S
C1798 C1781 1.574 . S
C1798 H1792 0.949 . S
C1798 C1802 1.368 . S
C1799 C1780 1.429 . S
C1799 C1793 1.429 . S
C1799 C1800 1.523 . S
C1800 C1781 1.368 . S
C1800 C1794 1.368 . S
C1800 C1799 1.523 . S
C1801 C1785 1.429 . S
C1801 C1797 1.429 . S
C1801 C1802 1.523 . S
C1802 C1786 1.368 . S
C1802 C1798 1.368 . S
C1802 C1801 1.523 . S
H1803 C1778 0.950 . S
H1804 C1780 0.950 . S
H1805 C1781 0.949 . S
H1806 C1783 0.950 . S
H1807 C1785 0.950 . S
C1808 C1809 1.349 . S
C1808 C1810 1.327 . S
C1808 H1833 0.950 . S
C1809 C1808 1.349 . S
C1809 C1825 1.349 . S
C1810 C1808 1.327 . S
C1810 C1829 1.429 . S
C1810 H1834 0.950 . S
C1811 C1828 1.574 . S
C1811 C1830 1.368 . S
C1811 H1835 0.949 . S
H1812 C1816 0.949 . S
C1813 C1814 1.349 . S
C1813 C1815 1.327 . S
C1813 H1836 0.950 . S
C1814 C1813 1.349 . S
C1814 C1826 1.349 . S
C1815 C1813 1.327 . S
C1815 C1831 1.429 . S
C1815 H1837 0.950 . S
C1816 H1812 0.949 . S
C1816 C1824 1.574 . S
C1816 C1832 1.368 . S
H1817 C1825 0.950 . S
H1818 C1823 0.950 . S
H1819 C1824 0.949 . S
H1820 C1826 0.950 . S
H1821 C1827 0.950 . S
H1822 C1828 0.949 . S
C1823 H1818 0.950 . S
C1823 C1825 1.327 . S
C1823 C1829 1.429 . S
C1824 C1816 1.574 . S
C1824 H1819 0.949 . S
C1824 C1830 1.368 . S
C1825 C1809 1.349 . S
C1825 H1817 0.950 . S
C1825 C1823 1.327 . S
C1826 C1814 1.349 . S
C1826 H1820 0.950 . S
C1826 C1827 1.327 . S
C1827 H1821 0.950 . S
C1827 C1826 1.327 . S
C1827 C1831 1.429 . S
C1828 C1811 1.574 . S
C1828 H1822 0.949 . S
C1828 C1832 1.368 . S
C1829 C1810 1.429 . S
C1829 C1823 1.429 . S
C1829 C1830 1.523 . S
C1830 C1811 1.368 . S
C1830 C1824 1.368 . S
C1830 C1829 1.523 . S
C1831 C1815 1.429 . S
C1831 C1827 1.429 . S
C1831 C1832 1.523 . S
C1832 C1816 1.368 . S
C1832 C1828 1.368 . S
C1832 C1831 1.523 . S
H1833 C1808 0.950 . S
H1834 C1810 0.950 . S
H1835 C1811 0.949 . S
H1836 C1813 0.950 . S
H1837 C1815 0.950 . S
C1838 C1839 1.349 . S
C1838 C1840 1.327 . S
C1838 H1863 0.950 . S
C1839 C1838 1.349 . S
C1839 C1855 1.349 . S
C1840 C1838 1.327 . S
C1840 C1859 1.429 . S
C1840 H1864 0.950 . S
C1841 C1858 1.574 . S
C1841 C1860 1.368 . S
C1841 H1865 0.949 . S
H1842 C1846 0.949 . S
C1843 C1844 1.349 . S
C1843 C1845 1.327 . S
C1843 H1866 0.950 . S
C1844 C1843 1.349 . S
C1844 C1856 1.349 . S
C1845 C1843 1.327 . S
C1845 C1861 1.429 . S
C1845 H1867 0.950 . S
C1846 H1842 0.949 . S
C1846 C1854 1.574 . S
C1846 C1862 1.368 . S
H1847 C1855 0.950 . S
H1848 C1853 0.950 . S
H1849 C1854 0.949 . S
H1850 C1856 0.950 . S
H1851 C1857 0.950 . S
H1852 C1858 0.949 . S
C1853 H1848 0.950 . S
C1853 C1855 1.327 . S
C1853 C1859 1.429 . S
C1854 C1846 1.574 . S
C1854 H1849 0.949 . S
C1854 C1860 1.368 . S
C1855 C1839 1.349 . S
C1855 H1847 0.950 . S
C1855 C1853 1.327 . S
C1856 C1844 1.349 . S
C1856 H1850 0.950 . S
C1856 C1857 1.327 . S
C1857 H1851 0.950 . S
C1857 C1856 1.327 . S
C1857 C1861 1.429 . S
C1858 C1841 1.574 . S
C1858 H1852 0.949 . S
C1858 C1862 1.368 . S
C1859 C1840 1.429 . S
C1859 C1853 1.429 . S
C1859 C1860 1.523 . S
C1860 C1841 1.368 . S
C1860 C1854 1.368 . S
C1860 C1859 1.523 . S
C1861 C1845 1.429 . S
C1861 C1857 1.429 . S
C1861 C1862 1.523 . S
C1862 C1846 1.368 . S
C1862 C1858 1.368 . S
C1862 C1861 1.523 . S
H1863 C1838 0.950 . S
H1864 C1840 0.950 . S
H1865 C1841 0.949 . S
H1866 C1843 0.950 . S
H1867 C1845 0.950 . S
C1868 C1869 1.349 . S
C1868 C1870 1.327 . S
C1868 H1893 0.950 . S
C1869 C1868 1.349 . S
C1869 C1885 1.349 . S
C1870 C1868 1.327 . S
C1870 C1889 1.429 . S
C1870 H1894 0.950 . S
C1871 C1888 1.574 . S
C1871 C1890 1.368 . S
C1871 H1895 0.949 . S
H1872 C1876 0.949 . S
C1873 C1874 1.349 . S
C1873 C1875 1.327 . S
C1873 H1896 0.950 . S
C1874 C1873 1.349 . S
C1874 C1886 1.349 . S
C1875 C1873 1.327 . S
C1875 C1891 1.429 . S
C1875 H1897 0.950 . S
C1876 H1872 0.949 . S
C1876 C1884 1.574 . S
C1876 C1892 1.368 . S
H1877 C1885 0.950 . S
H1878 C1883 0.950 . S
H1879 C1884 0.949 . S
H1880 C1886 0.950 . S
H1881 C1887 0.950 . S
H1882 C1888 0.949 . S
C1883 H1878 0.950 . S
C1883 C1885 1.327 . S
C1883 C1889 1.429 . S
C1884 C1876 1.574 . S
C1884 H1879 0.949 . S
C1884 C1890 1.368 . S
C1885 C1869 1.349 . S
C1885 H1877 0.950 . S
C1885 C1883 1.327 . S
C1886 C1874 1.349 . S
C1886 H1880 0.950 . S
C1886 C1887 1.327 . S
C1887 H1881 0.950 . S
C1887 C1886 1.327 . S
C1887 C1891 1.429 . S
C1888 C1871 1.574 . S
C1888 H1882 0.949 . S
C1888 C1892 1.368 . S
C1889 C1870 1.429 . S
C1889 C1883 1.429 . S
C1889 C1890 1.523 . S
C1890 C1871 1.368 . S
C1890 C1884 1.368 . S
C1890 C1889 1.523 . S
C1891 C1875 1.429 . S
C1891 C1887 1.429 . S
C1891 C1892 1.523 . S
C1892 C1876 1.368 . S
C1892 C1888 1.368 . S
C1892 C1891 1.523 . S
H1893 C1868 0.950 . S
H1894 C1870 0.950 . S
H1895 C1871 0.949 . S
H1896 C1873 0.950 . S
H1897 C1875 0.950 . S
C1898 C1899 1.349 . S
C1898 C1900 1.327 . S
C1898 H1923 0.950 . S
C1899 C1898 1.349 . S
C1899 C1915 1.349 . S
C1900 C1898 1.327 . S
C1900 C1919 1.429 . S
C1900 H1924 0.950 . S
C1901 C1918 1.574 . S
C1901 C1920 1.368 . S
C1901 H1925 0.949 . S
H1902 C1906 0.949 . S
C1903 C1904 1.349 . S
C1903 C1905 1.327 . S
C1903 H1926 0.950 . S
C1904 C1903 1.349 . S
C1904 C1916 1.349 . S
C1905 C1903 1.327 . S
C1905 C1921 1.429 . S
C1905 H1927 0.950 . S
C1906 H1902 0.949 . S
C1906 C1914 1.574 . S
C1906 C1922 1.368 . S
H1907 C1915 0.950 . S
H1908 C1913 0.950 . S
H1909 C1914 0.949 . S
H1910 C1916 0.950 . S
H1911 C1917 0.950 . S
H1912 C1918 0.949 . S
C1913 H1908 0.950 . S
C1913 C1915 1.327 . S
C1913 C1919 1.429 . S
C1914 C1906 1.574 . S
C1914 H1909 0.949 . S
C1914 C1920 1.368 . S
C1915 C1899 1.349 . S
C1915 H1907 0.950 . S
C1915 C1913 1.327 . S
C1916 C1904 1.349 . S
C1916 H1910 0.950 . S
C1916 C1917 1.327 . S
C1917 H1911 0.950 . S
C1917 C1916 1.327 . S
C1917 C1921 1.429 . S
C1918 C1901 1.574 . S
C1918 H1912 0.949 . S
C1918 C1922 1.368 . S
C1919 C1900 1.429 . S
C1919 C1913 1.429 . S
C1919 C1920 1.523 . S
C1920 C1901 1.368 . S
C1920 C1914 1.368 . S
C1920 C1919 1.523 . S
C1921 C1905 1.429 . S
C1921 C1917 1.429 . S
C1921 C1922 1.523 . S
C1922 C1906 1.368 . S
C1922 C1918 1.368 . S
C1922 C1921 1.523 . S
H1923 C1898 0.950 . S
H1924 C1900 0.950 . S
H1925 C1901 0.949 . S
H1926 C1903 0.950 . S
H1927 C1905 0.950 . S
C1928 C1929 1.349 . S
C1928 C1930 1.327 . S
C1928 H1953 0.950 . S
C1929 C1928 1.349 . S
C1929 C1945 1.349 . S
C1930 C1928 1.327 . S
C1930 C1949 1.429 . S
C1930 H1954 0.950 . S
C1931 C1948 1.574 . S
C1931 C1950 1.368 . S
C1931 H1955 0.949 . S
H1932 C1936 0.949 . S
C1933 C1934 1.349 . S
C1933 C1935 1.327 . S
C1933 H1956 0.950 . S
C1934 C1933 1.349 . S
C1934 C1946 1.349 . S
C1935 C1933 1.327 . S
C1935 C1951 1.429 . S
C1935 H1957 0.950 . S
C1936 H1932 0.949 . S
C1936 C1944 1.574 . S
C1936 C1952 1.368 . S
H1937 C1945 0.950 . S
H1938 C1943 0.950 . S
H1939 C1944 0.949 . S
H1940 C1946 0.950 . S
H1941 C1947 0.950 . S
H1942 C1948 0.949 . S
C1943 H1938 0.950 . S
C1943 C1945 1.327 . S
C1943 C1949 1.429 . S
C1944 C1936 1.574 . S
C1944 H1939 0.949 . S
C1944 C1950 1.368 . S
C1945 C1929 1.349 . S
C1945 H1937 0.950 . S
C1945 C1943 1.327 . S
C1946 C1934 1.349 . S
C1946 H1940 0.950 . S
C1946 C1947 1.327 . S
C1947 H1941 0.950 . S
C1947 C1946 1.327 . S
C1947 C1951 1.429 . S
C1948 C1931 1.574 . S
C1948 H1942 0.949 . S
C1948 C1952 1.368 . S
C1949 C1930 1.429 . S
C1949 C1943 1.429 . S
C1949 C1950 1.523 . S
C1950 C1931 1.368 . S
C1950 C1944 1.368 . S
C1950 C1949 1.523 . S
C1951 C1935 1.429 . S
C1951 C1947 1.429 . S
C1951 C1952 1.523 . S
C1952 C1936 1.368 . S
C1952 C1948 1.368 . S
C1952 C1951 1.523 . S
H1953 C1928 0.950 . S
H1954 C1930 0.950 . S
H1955 C1931 0.949 . S
H1956 C1933 0.950 . S
H1957 C1935 0.950 . S
C1958 C1959 1.349 . S
C1958 C1960 1.327 . S
C1958 H1983 0.950 . S
C1959 C1958 1.349 . S
C1959 C1975 1.349 . S
C1960 C1958 1.327 . S
C1960 C1979 1.429 . S
C1960 H1984 0.950 . S
C1961 C1978 1.574 . S
C1961 C1980 1.368 . S
C1961 H1985 0.949 . S
H1962 C1966 0.949 . S
C1963 C1964 1.349 . S
C1963 C1965 1.327 . S
C1963 H1986 0.950 . S
C1964 C1963 1.349 . S
C1964 C1976 1.349 . S
C1965 C1963 1.327 . S
C1965 C1981 1.429 . S
C1965 H1987 0.950 . S
C1966 H1962 0.949 . S
C1966 C1974 1.574 . S
C1966 C1982 1.368 . S
H1967 C1975 0.950 . S
H1968 C1973 0.950 . S
H1969 C1974 0.949 . S
H1970 C1976 0.950 . S
H1971 C1977 0.950 . S
H1972 C1978 0.949 . S
C1973 H1968 0.950 . S
C1973 C1975 1.327 . S
C1973 C1979 1.429 . S
C1974 C1966 1.574 . S
C1974 H1969 0.949 . S
C1974 C1980 1.368 . S
C1975 C1959 1.349 . S
C1975 H1967 0.950 . S
C1975 C1973 1.327 . S
C1976 C1964 1.349 . S
C1976 H1970 0.950 . S
C1976 C1977 1.327 . S
C1977 H1971 0.950 . S
C1977 C1976 1.327 . S
C1977 C1981 1.429 . S
C1978 C1961 1.574 . S
C1978 H1972 0.949 . S
C1978 C1982 1.368 . S
C1979 C1960 1.429 . S
C1979 C1973 1.429 . S
C1979 C1980 1.523 . S
C1980 C1961 1.368 . S
C1980 C1974 1.368 . S
C1980 C1979 1.523 . S
C1981 C1965 1.429 . S
C1981 C1977 1.429 . S
C1981 C1982 1.523 . S
C1982 C1966 1.368 . S
C1982 C1978 1.368 . S
C1982 C1981 1.523 . S
H1983 C1958 0.950 . S
H1984 C1960 0.950 . S
H1985 C1961 0.949 . S
H1986 C1963 0.950 . S
H1987 C1965 0.950 . S
C1988 C1989 1.349 . S
C1988 C1990 1.327 . S
C1988 H2013 0.950 . S
C1989 C1988 1.349 . S
C1989 C2005 1.349 . S
C1990 C1988 1.327 . S
C1990 C2009 1.429 . S
C1990 H2014 0.950 . S
C1991 C2008 1.574 . S
C1991 C2010 1.368 . S
C1991 H2015 0.949 . S
H1992 C1996 0.949 . S
C1993 C1994 1.349 . S
C1993 C1995 1.327 . S
C1993 H2016 0.950 . S
C1994 C1993 1.349 . S
C1994 C2006 1.349 . S
C1995 C1993 1.327 . S
C1995 C2011 1.429 . S
C1995 H2017 0.950 . S
C1996 H1992 0.949 . S
C1996 C2004 1.574 . S
C1996 C2012 1.368 . S
H1997 C2005 0.950 . S
H1998 C2003 0.950 . S
H1999 C2004 0.949 . S
H2000 C2006 0.950 . S
H2001 C2007 0.950 . S
H2002 C2008 0.949 . S
C2003 H1998 0.950 . S
C2003 C2005 1.327 . S
C2003 C2009 1.429 . S
C2004 C1996 1.574 . S
C2004 H1999 0.949 . S
C2004 C2010 1.368 . S
C2005 C1989 1.349 . S
C2005 H1997 0.950 . S
C2005 C2003 1.327 . S
C2006 C1994 1.349 . S
C2006 H2000 0.950 . S
C2006 C2007 1.327 . S
C2007 H2001 0.950 . S
C2007 C2006 1.327 . S
C2007 C2011 1.429 . S
C2008 C1991 1.574 . S
C2008 H2002 0.949 . S
C2008 C2012 1.368 . S
C2009 C1990 1.429 . S
C2009 C2003 1.429 . S
C2009 C2010 1.523 . S
C2010 C1991 1.368 . S
C2010 C2004 1.368 . S
C2010 C2009 1.523 . S
C2011 C1995 1.429 . S
C2011 C2007 1.429 . S
C2011 C2012 1.523 . S
C2012 C1996 1.368 . S
C2012 C2008 1.368 . S
C2012 C2011 1.523 . S
H2013 C1988 0.950 . S
H2014 C1990 0.950 . S
H2015 C1991 0.949 . S
H2016 C1993 0.950 . S
H2017 C1995 0.950 . S
C2018 C2019 1.349 . S
C2018 C2020 1.327 . S
C2018 H2043 0.950 . S
C2019 C2018 1.349 . S
C2019 C2035 1.349 . S
C2020 C2018 1.327 . S
C2020 C2039 1.429 . S
C2020 H2044 0.950 . S
C2021 C2038 1.574 . S
C2021 C2040 1.368 . S
C2021 H2045 0.949 . S
H2022 C2026 0.949 . S
C2023 C2024 1.349 . S
C2023 C2025 1.327 . S
C2023 H2046 0.950 . S
C2024 C2023 1.349 . S
C2024 C2036 1.349 . S
C2025 C2023 1.327 . S
C2025 C2041 1.429 . S
C2025 H2047 0.950 . S
C2026 H2022 0.949 . S
C2026 C2034 1.574 . S
C2026 C2042 1.368 . S
H2027 C2035 0.950 . S
H2028 C2033 0.950 . S
H2029 C2034 0.949 . S
H2030 C2036 0.950 . S
H2031 C2037 0.950 . S
H2032 C2038 0.949 . S
C2033 H2028 0.950 . S
C2033 C2035 1.327 . S
C2033 C2039 1.429 . S
C2034 C2026 1.574 . S
C2034 H2029 0.949 . S
C2034 C2040 1.368 . S
C2035 C2019 1.349 . S
C2035 H2027 0.950 . S
C2035 C2033 1.327 . S
C2036 C2024 1.349 . S
C2036 H2030 0.950 . S
C2036 C2037 1.327 . S
C2037 H2031 0.950 . S
C2037 C2036 1.327 . S
C2037 C2041 1.429 . S
C2038 C2021 1.574 . S
C2038 H2032 0.949 . S
C2038 C2042 1.368 . S
C2039 C2020 1.429 . S
C2039 C2033 1.429 . S
C2039 C2040 1.523 . S
C2040 C2021 1.368 . S
C2040 C2034 1.368 . S
C2040 C2039 1.523 . S
C2041 C2025 1.429 . S
C2041 C2037 1.429 . S
C2041 C2042 1.523 . S
C2042 C2026 1.368 . S
C2042 C2038 1.368 . S
C2042 C2041 1.523 . S
H2043 C2018 0.950 . S
H2044 C2020 0.950 . S
H2045 C2021 0.949 . S
H2046 C2023 0.950 . S
H2047 C2025 0.950 . S
C2048 C2049 1.349 . S
C2048 C2050 1.327 . S
C2048 H2073 0.950 . S
C2049 C2048 1.349 . S
C2049 C2065 1.349 . S
C2050 C2048 1.327 . S
C2050 C2069 1.429 . S
C2050 H2074 0.950 . S
C2051 C2068 1.574 . S
C2051 C2070 1.368 . S
C2051 H2075 0.949 . S
H2052 C2056 0.949 . S
C2053 C2054 1.349 . S
C2053 C2055 1.327 . S
C2053 H2076 0.950 . S
C2054 C2053 1.349 . S
C2054 C2066 1.349 . S
C2055 C2053 1.327 . S
C2055 C2071 1.429 . S
C2055 H2077 0.950 . S
C2056 H2052 0.949 . S
C2056 C2064 1.574 . S
C2056 C2072 1.368 . S
H2057 C2065 0.950 . S
H2058 C2063 0.950 . S
H2059 C2064 0.949 . S
H2060 C2066 0.950 . S
H2061 C2067 0.950 . S
H2062 C2068 0.949 . S
C2063 H2058 0.950 . S
C2063 C2065 1.327 . S
C2063 C2069 1.429 . S
C2064 C2056 1.574 . S
C2064 H2059 0.949 . S
C2064 C2070 1.368 . S
C2065 C2049 1.349 . S
C2065 H2057 0.950 . S
C2065 C2063 1.327 . S
C2066 C2054 1.349 . S
C2066 H2060 0.950 . S
C2066 C2067 1.327 . S
C2067 H2061 0.950 . S
C2067 C2066 1.327 . S
C2067 C2071 1.429 . S
C2068 C2051 1.574 . S
C2068 H2062 0.949 . S
C2068 C2072 1.368 . S
C2069 C2050 1.429 . S
C2069 C2063 1.429 . S
C2069 C2070 1.523 . S
C2070 C2051 1.368 . S
C2070 C2064 1.368 . S
C2070 C2069 1.523 . S
C2071 C2055 1.429 . S
C2071 C2067 1.429 . S
C2071 C2072 1.523 . S
C2072 C2056 1.368 . S
C2072 C2068 1.368 . S
C2072 C2071 1.523 . S
H2073 C2048 0.950 . S
H2074 C2050 0.950 . S
H2075 C2051 0.949 . S
H2076 C2053 0.950 . S
H2077 C2055 0.950 . S
C2078 C2079 1.349 . S
C2078 C2080 1.327 . S
C2078 H2103 0.950 . S
C2079 C2078 1.349 . S
C2079 C2095 1.349 . S
C2080 C2078 1.327 . S
C2080 C2099 1.429 . S
C2080 H2104 0.950 . S
C2081 C2098 1.574 . S
C2081 C2100 1.368 . S
C2081 H2105 0.949 . S
H2082 C2086 0.949 . S
C2083 C2084 1.349 . S
C2083 C2085 1.327 . S
C2083 H2106 0.950 . S
C2084 C2083 1.349 . S
C2084 C2096 1.349 . S
C2085 C2083 1.327 . S
C2085 C2101 1.429 . S
C2085 H2107 0.950 . S
C2086 H2082 0.949 . S
C2086 C2094 1.574 . S
C2086 C2102 1.368 . S
H2087 C2095 0.950 . S
H2088 C2093 0.950 . S
H2089 C2094 0.949 . S
H2090 C2096 0.950 . S
H2091 C2097 0.950 . S
H2092 C2098 0.949 . S
C2093 H2088 0.950 . S
C2093 C2095 1.327 . S
C2093 C2099 1.429 . S
C2094 C2086 1.574 . S
C2094 H2089 0.949 . S
C2094 C2100 1.368 . S
C2095 C2079 1.349 . S
C2095 H2087 0.950 . S
C2095 C2093 1.327 . S
C2096 C2084 1.349 . S
C2096 H2090 0.950 . S
C2096 C2097 1.327 . S
C2097 H2091 0.950 . S
C2097 C2096 1.327 . S
C2097 C2101 1.429 . S
C2098 C2081 1.574 . S
C2098 H2092 0.949 . S
C2098 C2102 1.368 . S
C2099 C2080 1.429 . S
C2099 C2093 1.429 . S
C2099 C2100 1.523 . S
C2100 C2081 1.368 . S
C2100 C2094 1.368 . S
C2100 C2099 1.523 . S
C2101 C2085 1.429 . S
C2101 C2097 1.429 . S
C2101 C2102 1.523 . S
C2102 C2086 1.368 . S
C2102 C2098 1.368 . S
C2102 C2101 1.523 . S
H2103 C2078 0.950 . S
H2104 C2080 0.950 . S
H2105 C2081 0.949 . S
H2106 C2083 0.950 . S
H2107 C2085 0.950 . S
C2108 C2109 1.349 . S
C2108 C2110 1.327 . S
C2108 H2133 0.950 . S
C2109 C2108 1.349 . S
C2109 C2125 1.349 . S
C2110 C2108 1.327 . S
C2110 C2129 1.429 . S
C2110 H2134 0.950 . S
C2111 C2128 1.574 . S
C2111 C2130 1.368 . S
C2111 H2135 0.949 . S
H2112 C2116 0.949 . S
C2113 C2114 1.349 . S
C2113 C2115 1.327 . S
C2113 H2136 0.950 . S
C2114 C2113 1.349 . S
C2114 C2126 1.349 . S
C2115 C2113 1.327 . S
C2115 C2131 1.429 . S
C2115 H2137 0.950 . S
C2116 H2112 0.949 . S
C2116 C2124 1.574 . S
C2116 C2132 1.368 . S
H2117 C2125 0.950 . S
H2118 C2123 0.950 . S
H2119 C2124 0.949 . S
H2120 C2126 0.950 . S
H2121 C2127 0.950 . S
H2122 C2128 0.949 . S
C2123 H2118 0.950 . S
C2123 C2125 1.327 . S
C2123 C2129 1.429 . S
C2124 C2116 1.574 . S
C2124 H2119 0.949 . S
C2124 C2130 1.368 . S
C2125 C2109 1.349 . S
C2125 H2117 0.950 . S
C2125 C2123 1.327 . S
C2126 C2114 1.349 . S
C2126 H2120 0.950 . S
C2126 C2127 1.327 . S
C2127 H2121 0.950 . S
C2127 C2126 1.327 . S
C2127 C2131 1.429 . S
C2128 C2111 1.574 . S
C2128 H2122 0.949 . S
C2128 C2132 1.368 . S
C2129 C2110 1.429 . S
C2129 C2123 1.429 . S
C2129 C2130 1.523 . S
C2130 C2111 1.368 . S
C2130 C2124 1.368 . S
C2130 C2129 1.523 . S
C2131 C2115 1.429 . S
C2131 C2127 1.429 . S
C2131 C2132 1.523 . S
C2132 C2116 1.368 . S
C2132 C2128 1.368 . S
C2132 C2131 1.523 . S
H2133 C2108 0.950 . S
H2134 C2110 0.950 . S
H2135 C2111 0.949 . S
H2136 C2113 0.950 . S
H2137 C2115 0.950 . S
C2138 C2139 1.349 . S
C2138 C2140 1.327 . S
C2138 H2163 0.950 . S
C2139 C2138 1.349 . S
C2139 C2155 1.349 . S
C2140 C2138 1.327 . S
C2140 C2159 1.429 . S
C2140 H2164 0.950 . S
C2141 C2158 1.574 . S
C2141 C2160 1.368 . S
C2141 H2165 0.949 . S
H2142 C2146 0.949 . S
C2143 C2144 1.349 . S
C2143 C2145 1.327 . S
C2143 H2166 0.950 . S
C2144 C2143 1.349 . S
C2144 C2156 1.349 . S
C2145 C2143 1.327 . S
C2145 C2161 1.429 . S
C2145 H2167 0.950 . S
C2146 H2142 0.949 . S
C2146 C2154 1.574 . S
C2146 C2162 1.368 . S
H2147 C2155 0.950 . S
H2148 C2153 0.950 . S
H2149 C2154 0.949 . S
H2150 C2156 0.950 . S
H2151 C2157 0.950 . S
H2152 C2158 0.949 . S
C2153 H2148 0.950 . S
C2153 C2155 1.327 . S
C2153 C2159 1.429 . S
C2154 C2146 1.574 . S
C2154 H2149 0.949 . S
C2154 C2160 1.368 . S
C2155 C2139 1.349 . S
C2155 H2147 0.950 . S
C2155 C2153 1.327 . S
C2156 C2144 1.349 . S
C2156 H2150 0.950 . S
C2156 C2157 1.327 . S
C2157 H2151 0.950 . S
C2157 C2156 1.327 . S
C2157 C2161 1.429 . S
C2158 C2141 1.574 . S
C2158 H2152 0.949 . S
C2158 C2162 1.368 . S
C2159 C2140 1.429 . S
C2159 C2153 1.429 . S
C2159 C2160 1.523 . S
C2160 C2141 1.368 . S
C2160 C2154 1.368 . S
C2160 C2159 1.523 . S
C2161 C2145 1.429 . S
C2161 C2157 1.429 . S
C2161 C2162 1.523 . S
C2162 C2146 1.368 . S
C2162 C2158 1.368 . S
C2162 C2161 1.523 . S
H2163 C2138 0.950 . S
H2164 C2140 0.950 . S
H2165 C2141 0.949 . S
H2166 C2143 0.950 . S
H2167 C2145 0.950 . S
C2168 C2169 1.349 . S
C2168 C2170 1.327 . S
C2168 H2193 0.950 . S
C2169 C2168 1.349 . S
C2169 C2185 1.349 . S
C2170 C2168 1.327 . S
C2170 C2189 1.429 . S
C2170 H2194 0.950 . S
C2171 C2188 1.574 . S
C2171 C2190 1.368 . S
C2171 H2195 0.949 . S
H2172 C2176 0.949 . S
C2173 C2174 1.349 . S
C2173 C2175 1.327 . S
C2173 H2196 0.950 . S
C2174 C2173 1.349 . S
C2174 C2186 1.349 . S
C2175 C2173 1.327 . S
C2175 C2191 1.429 . S
C2175 H2197 0.950 . S
C2176 H2172 0.949 . S
C2176 C2184 1.574 . S
C2176 C2192 1.368 . S
H2177 C2185 0.950 . S
H2178 C2183 0.950 . S
H2179 C2184 0.949 . S
H2180 C2186 0.950 . S
H2181 C2187 0.950 . S
H2182 C2188 0.949 . S
C2183 H2178 0.950 . S
C2183 C2185 1.327 . S
C2183 C2189 1.429 . S
C2184 C2176 1.574 . S
C2184 H2179 0.949 . S
C2184 C2190 1.368 . S
C2185 C2169 1.349 . S
C2185 H2177 0.950 . S
C2185 C2183 1.327 . S
C2186 C2174 1.349 . S
C2186 H2180 0.950 . S
C2186 C2187 1.327 . S
C2187 H2181 0.950 . S
C2187 C2186 1.327 . S
C2187 C2191 1.429 . S
C2188 C2171 1.574 . S
C2188 H2182 0.949 . S
C2188 C2192 1.368 . S
C2189 C2170 1.429 . S
C2189 C2183 1.429 . S
C2189 C2190 1.523 . S
C2190 C2171 1.368 . S
C2190 C2184 1.368 . S
C2190 C2189 1.523 . S
C2191 C2175 1.429 . S
C2191 C2187 1.429 . S
C2191 C2192 1.523 . S
C2192 C2176 1.368 . S
C2192 C2188 1.368 . S
C2192 C2191 1.523 . S
H2193 C2168 0.950 . S
H2194 C2170 0.950 . S
H2195 C2171 0.949 . S
H2196 C2173 0.950 . S
H2197 C2175 0.950 . S
C2198 C2199 1.349 . S
C2198 C2200 1.327 . S
C2198 H2223 0.950 . S
C2199 C2198 1.349 . S
C2199 C2215 1.349 . S
C2200 C2198 1.327 . S
C2200 C2219 1.429 . S
C2200 H2224 0.950 . S
C2201 C2218 1.574 . S
C2201 C2220 1.368 . S
C2201 H2225 0.949 . S
H2202 C2206 0.949 . S
C2203 C2204 1.349 . S
C2203 C2205 1.327 . S
C2203 H2226 0.950 . S
C2204 C2203 1.349 . S
C2204 C2216 1.349 . S
C2205 C2203 1.327 . S
C2205 C2221 1.429 . S
C2205 H2227 0.950 . S
C2206 H2202 0.949 . S
C2206 C2214 1.574 . S
C2206 C2222 1.368 . S
H2207 C2215 0.950 . S
H2208 C2213 0.950 . S
H2209 C2214 0.949 . S
H2210 C2216 0.950 . S
H2211 C2217 0.950 . S
H2212 C2218 0.949 . S
C2213 H2208 0.950 . S
C2213 C2215 1.327 . S
C2213 C2219 1.429 . S
C2214 C2206 1.574 . S
C2214 H2209 0.949 . S
C2214 C2220 1.368 . S
C2215 C2199 1.349 . S
C2215 H2207 0.950 . S
C2215 C2213 1.327 . S
C2216 C2204 1.349 . S
C2216 H2210 0.950 . S
C2216 C2217 1.327 . S
C2217 H2211 0.950 . S
C2217 C2216 1.327 . S
C2217 C2221 1.429 . S
C2218 C2201 1.574 . S
C2218 H2212 0.949 . S
C2218 C2222 1.368 . S
C2219 C2200 1.429 . S
C2219 C2213 1.429 . S
C2219 C2220 1.523 . S
C2220 C2201 1.368 . S
C2220 C2214 1.368 . S
C2220 C2219 1.523 . S
C2221 C2205 1.429 . S
C2221 C2217 1.429 . S
C2221 C2222 1.523 . S
C2222 C2206 1.368 . S
C2222 C2218 1.368 . S
C2222 C2221 1.523 . S
H2223 C2198 0.950 . S
H2224 C2200 0.950 . S
H2225 C2201 0.949 . S
H2226 C2203 0.950 . S
H2227 C2205 0.950 . S
C2228 C2229 1.349 . S
C2228 C2230 1.327 . S
C2228 H2253 0.950 . S
C2229 C2228 1.349 . S
C2229 C2245 1.349 . S
C2230 C2228 1.327 . S
C2230 C2249 1.429 . S
C2230 H2254 0.950 . S
C2231 C2248 1.574 . S
C2231 C2250 1.368 . S
C2231 H2255 0.949 . S
H2232 C2236 0.949 . S
C2233 C2234 1.349 . S
C2233 C2235 1.327 . S
C2233 H2256 0.950 . S
C2234 C2233 1.349 . S
C2234 C2246 1.349 . S
C2235 C2233 1.327 . S
C2235 C2251 1.429 . S
C2235 H2257 0.950 . S
C2236 H2232 0.949 . S
C2236 C2244 1.574 . S
C2236 C2252 1.368 . S
H2237 C2245 0.950 . S
H2238 C2243 0.950 . S
H2239 C2244 0.949 . S
H2240 C2246 0.950 . S
H2241 C2247 0.950 . S
H2242 C2248 0.949 . S
C2243 H2238 0.950 . S
C2243 C2245 1.327 . S
C2243 C2249 1.429 . S
C2244 C2236 1.574 . S
C2244 H2239 0.949 . S
C2244 C2250 1.368 . S
C2245 C2229 1.349 . S
C2245 H2237 0.950 . S
C2245 C2243 1.327 . S
C2246 C2234 1.349 . S
C2246 H2240 0.950 . S
C2246 C2247 1.327 . S
C2247 H2241 0.950 . S
C2247 C2246 1.327 . S
C2247 C2251 1.429 . S
C2248 C2231 1.574 . S
C2248 H2242 0.949 . S
C2248 C2252 1.368 . S
C2249 C2230 1.429 . S
C2249 C2243 1.429 . S
C2249 C2250 1.523 . S
C2250 C2231 1.368 . S
C2250 C2244 1.368 . S
C2250 C2249 1.523 . S
C2251 C2235 1.429 . S
C2251 C2247 1.429 . S
C2251 C2252 1.523 . S
C2252 C2236 1.368 . S
C2252 C2248 1.368 . S
C2252 C2251 1.523 . S
H2253 C2228 0.950 . S
H2254 C2230 0.950 . S
H2255 C2231 0.949 . S
H2256 C2233 0.950 . S
H2257 C2235 0.950 . S
C2258 C2259 1.349 . S
C2258 C2260 1.327 . S
C2258 H2283 0.950 . S
C2259 C2258 1.349 . S
C2259 C2275 1.349 . S
C2260 C2258 1.327 . S
C2260 C2279 1.429 . S
C2260 H2284 0.950 . S
C2261 C2278 1.574 . S
C2261 C2280 1.368 . S
C2261 H2285 0.949 . S
H2262 C2266 0.949 . S
C2263 C2264 1.349 . S
C2263 C2265 1.327 . S
C2263 H2286 0.950 . S
C2264 C2263 1.349 . S
C2264 C2276 1.349 . S
C2265 C2263 1.327 . S
C2265 C2281 1.429 . S
C2265 H2287 0.950 . S
C2266 H2262 0.949 . S
C2266 C2274 1.574 . S
C2266 C2282 1.368 . S
H2267 C2275 0.950 . S
H2268 C2273 0.950 . S
H2269 C2274 0.949 . S
H2270 C2276 0.950 . S
H2271 C2277 0.950 . S
H2272 C2278 0.949 . S
C2273 H2268 0.950 . S
C2273 C2275 1.327 . S
C2273 C2279 1.429 . S
C2274 C2266 1.574 . S
C2274 H2269 0.949 . S
C2274 C2280 1.368 . S
C2275 C2259 1.349 . S
C2275 H2267 0.950 . S
C2275 C2273 1.327 . S
C2276 C2264 1.349 . S
C2276 H2270 0.950 . S
C2276 C2277 1.327 . S
C2277 H2271 0.950 . S
C2277 C2276 1.327 . S
C2277 C2281 1.429 . S
C2278 C2261 1.574 . S
C2278 H2272 0.949 . S
C2278 C2282 1.368 . S
C2279 C2260 1.429 . S
C2279 C2273 1.429 . S
C2279 C2280 1.523 . S
C2280 C2261 1.368 . S
C2280 C2274 1.368 . S
C2280 C2279 1.523 . S
C2281 C2265 1.429 . S
C2281 C2277 1.429 . S
C2281 C2282 1.523 . S
C2282 C2266 1.368 . S
C2282 C2278 1.368 . S
C2282 C2281 1.523 . S
H2283 C2258 0.950 . S
H2284 C2260 0.950 . S
H2285 C2261 0.949 . S
H2286 C2263 0.950 . S
H2287 C2265 0.950 . S
C2288 C2289 1.349 . S
C2288 C2290 1.327 . S
C2288 H2313 0.950 . S
C2289 C2288 1.349 . S
C2289 C2305 1.349 . S
C2290 C2288 1.327 . S
C2290 C2309 1.429 . S
C2290 H2314 0.950 . S
C2291 C2308 1.574 . S
C2291 C2310 1.368 . S
C2291 H2315 0.949 . S
H2292 C2296 0.949 . S
C2293 C2294 1.349 . S
C2293 C2295 1.327 . S
C2293 H2316 0.950 . S
C2294 C2293 1.349 . S
C2294 C2306 1.349 . S
C2295 C2293 1.327 . S
C2295 C2311 1.429 . S
C2295 H2317 0.950 . S
C2296 H2292 0.949 . S
C2296 C2304 1.574 . S
C2296 C2312 1.368 . S
H2297 C2305 0.950 . S
H2298 C2303 0.950 . S
H2299 C2304 0.949 . S
H2300 C2306 0.950 . S
H2301 C2307 0.950 . S
H2302 C2308 0.949 . S
C2303 H2298 0.950 . S
C2303 C2305 1.327 . S
C2303 C2309 1.429 . S
C2304 C2296 1.574 . S
C2304 H2299 0.949 . S
C2304 C2310 1.368 . S
C2305 C2289 1.349 . S
C2305 H2297 0.950 . S
C2305 C2303 1.327 . S
C2306 C2294 1.349 . S
C2306 H2300 0.950 . S
C2306 C2307 1.327 . S
C2307 H2301 0.950 . S
C2307 C2306 1.327 . S
C2307 C2311 1.429 . S
C2308 C2291 1.574 . S
C2308 H2302 0.949 . S
C2308 C2312 1.368 . S
C2309 C2290 1.429 . S
C2309 C2303 1.429 . S
C2309 C2310 1.523 . S
C2310 C2291 1.368 . S
C2310 C2304 1.368 . S
C2310 C2309 1.523 . S
C2311 C2295 1.429 . S
C2311 C2307 1.429 . S
C2311 C2312 1.523 . S
C2312 C2296 1.368 . S
C2312 C2308 1.368 . S
C2312 C2311 1.523 . S
H2313 C2288 0.950 . S
H2314 C2290 0.950 . S
H2315 C2291 0.949 . S
H2316 C2293 0.950 . S
H2317 C2295 0.950 . S
C2318 C2319 1.349 . S
C2318 C2320 1.327 . S
C2318 H2343 0.950 . S
C2319 C2318 1.349 . S
C2319 C2335 1.349 . S
C2320 C2318 1.327 . S
C2320 C2339 1.429 . S
C2320 H2344 0.950 . S
C2321 C2338 1.574 . S
C2321 C2340 1.368 . S
C2321 H2345 0.949 . S
H2322 C2326 0.949 . S
C2323 C2324 1.349 . S
C2323 C2325 1.327 . S
C2323 H2346 0.950 . S
C2324 C2323 1.349 . S
C2324 C2336 1.349 . S
C2325 C2323 1.327 . S
C2325 C2341 1.429 . S
C2325 H2347 0.950 . S
C2326 H2322 0.949 . S
C2326 C2334 1.574 . S
C2326 C2342 1.368 . S
H2327 C2335 0.950 . S
H2328 C2333 0.950 . S
H2329 C2334 0.949 . S
H2330 C2336 0.950 . S
H2331 C2337 0.950 . S
H2332 C2338 0.949 . S
C2333 H2328 0.950 . S
C2333 C2335 1.327 . S
C2333 C2339 1.429 . S
C2334 C2326 1.574 . S
C2334 H2329 0.949 . S
C2334 C2340 1.368 . S
C2335 C2319 1.349 . S
C2335 H2327 0.950 . S
C2335 C2333 1.327 . S
C2336 C2324 1.349 . S
C2336 H2330 0.950 . S
C2336 C2337 1.327 . S
C2337 H2331 0.950 . S
C2337 C2336 1.327 . S
C2337 C2341 1.429 . S
C2338 C2321 1.574 . S
C2338 H2332 0.949 . S
C2338 C2342 1.368 . S
C2339 C2320 1.429 . S
C2339 C2333 1.429 . S
C2339 C2340 1.523 . S
C2340 C2321 1.368 . S
C2340 C2334 1.368 . S
C2340 C2339 1.523 . S
C2341 C2325 1.429 . S
C2341 C2337 1.429 . S
C2341 C2342 1.523 . S
C2342 C2326 1.368 . S
C2342 C2338 1.368 . S
C2342 C2341 1.523 . S
H2343 C2318 0.950 . S
H2344 C2320 0.950 . S
H2345 C2321 0.949 . S
H2346 C2323 0.950 . S
H2347 C2325 0.950 . S
C2348 C2349 1.349 . S
C2348 C2350 1.327 . S
C2348 H2373 0.950 . S
C2349 C2348 1.349 . S
C2349 C2365 1.349 . S
C2350 C2348 1.327 . S
C2350 C2369 1.429 . S
C2350 H2374 0.950 . S
C2351 C2368 1.574 . S
C2351 C2370 1.368 . S
C2351 H2375 0.949 . S
H2352 C2356 0.949 . S
C2353 C2354 1.349 . S
C2353 C2355 1.327 . S
C2353 H2376 0.950 . S
C2354 C2353 1.349 . S
C2354 C2366 1.349 . S
C2355 C2353 1.327 . S
C2355 C2371 1.429 . S
C2355 H2377 0.950 . S
C2356 H2352 0.949 . S
C2356 C2364 1.574 . S
C2356 C2372 1.368 . S
H2357 C2365 0.950 . S
H2358 C2363 0.950 . S
H2359 C2364 0.949 . S
H2360 C2366 0.950 . S
H2361 C2367 0.950 . S
H2362 C2368 0.949 . S
C2363 H2358 0.950 . S
C2363 C2365 1.327 . S
C2363 C2369 1.429 . S
C2364 C2356 1.574 . S
C2364 H2359 0.949 . S
C2364 C2370 1.368 . S
C2365 C2349 1.349 . S
C2365 H2357 0.950 . S
C2365 C2363 1.327 . S
C2366 C2354 1.349 . S
C2366 H2360 0.950 . S
C2366 C2367 1.327 . S
C2367 H2361 0.950 . S
C2367 C2366 1.327 . S
C2367 C2371 1.429 . S
C2368 C2351 1.574 . S
C2368 H2362 0.949 . S
C2368 C2372 1.368 . S
C2369 C2350 1.429 . S
C2369 C2363 1.429 . S
C2369 C2370 1.523 . S
C2370 C2351 1.368 . S
C2370 C2364 1.368 . S
C2370 C2369 1.523 . S
C2371 C2355 1.429 . S
C2371 C2367 1.429 . S
C2371 C2372 1.523 . S
C2372 C2356 1.368 . S
C2372 C2368 1.368 . S
C2372 C2371 1.523 . S
H2373 C2348 0.950 . S
H2374 C2350 0.950 . S
H2375 C2351 0.949 . S
H2376 C2353 0.950 . S
H2377 C2355 0.950 . S
C2378 C2379 1.349 . S
C2378 C2380 1.327 . S
C2378 H2403 0.950 . S
C2379 C2378 1.349 . S
C2379 C2395 1.349 . S
C2380 C2378 1.327 . S
C2380 C2399 1.429 . S
C2380 H2404 0.950 . S
C2381 C2398 1.574 . S
C2381 C2400 1.368 . S
C2381 H2405 0.949 . S
H2382 C2386 0.949 . S
C2383 C2384 1.349 . S
C2383 C2385 1.327 . S
C2383 H2406 0.950 . S
C2384 C2383 1.349 . S
C2384 C2396 1.349 . S
C2385 C2383 1.327 . S
C2385 C2401 1.429 . S
C2385 H2407 0.950 . S
C2386 H2382 0.949 . S
C2386 C2394 1.574 . S
C2386 C2402 1.368 . S
H2387 C2395 0.950 . S
H2388 C2393 0.950 . S
H2389 C2394 0.949 . S
H2390 C2396 0.950 . S
H2391 C2397 0.950 . S
H2392 C2398 0.949 . S
C2393 H2388 0.950 . S
C2393 C2395 1.327 . S
C2393 C2399 1.429 . S
C2394 C2386 1.574 . S
C2394 H2389 0.949 . S
C2394 C2400 1.368 . S
C2395 C2379 1.349 . S
C2395 H2387 0.950 . S
C2395 C2393 1.327 . S
C2396 C2384 1.349 . S
C2396 H2390 0.950 . S
C2396 C2397 1.327 . S
C2397 H2391 0.950 . S
C2397 C2396 1.327 . S
C2397 C2401 1.429 . S
C2398 C2381 1.574 . S
C2398 H2392 0.949 . S
C2398 C2402 1.368 . S
C2399 C2380 1.429 . S
C2399 C2393 1.429 . S
C2399 C2400 1.523 . S
C2400 C2381 1.368 . S
C2400 C2394 1.368 . S
C2400 C2399 1.523 . S
C2401 C2385 1.429 . S
C2401 C2397 1.429 . S
C2401 C2402 1.523 . S
C2402 C2386 1.368 . S
C2402 C2398 1.368 . S
C2402 C2401 1.523 . S
H2403 C2378 0.950 . S
H2404 C2380 0.950 . S
H2405 C2381 0.949 . S
H2406 C2383 0.950 . S
H2407 C2385 0.950 . S
C2408 C2409 1.349 . S
C2408 C2410 1.327 . S
C2408 H2433 0.950 . S
C2409 C2408 1.349 . S
C2409 C2425 1.349 . S
C2410 C2408 1.327 . S
C2410 C2429 1.429 . S
C2410 H2434 0.950 . S
C2411 C2428 1.574 . S
C2411 C2430 1.368 . S
C2411 H2435 0.949 . S
H2412 C2416 0.949 . S
C2413 C2414 1.349 . S
C2413 C2415 1.327 . S
C2413 H2436 0.950 . S
C2414 C2413 1.349 . S
C2414 C2426 1.349 . S
C2415 C2413 1.327 . S
C2415 C2431 1.429 . S
C2415 H2437 0.950 . S
C2416 H2412 0.949 . S
C2416 C2424 1.574 . S
C2416 C2432 1.368 . S
H2417 C2425 0.950 . S
H2418 C2423 0.950 . S
H2419 C2424 0.949 . S
H2420 C2426 0.950 . S
H2421 C2427 0.950 . S
H2422 C2428 0.949 . S
C2423 H2418 0.950 . S
C2423 C2425 1.327 . S
C2423 C2429 1.429 . S
C2424 C2416 1.574 . S
C2424 H2419 0.949 . S
C2424 C2430 1.368 . S
C2425 C2409 1.349 . S
C2425 H2417 0.950 . S
C2425 C2423 1.327 . S
C2426 C2414 1.349 . S
C2426 H2420 0.950 . S
C2426 C2427 1.327 . S
C2427 H2421 0.950 . S
C2427 C2426 1.327 . S
C2427 C2431 1.429 . S
C2428 C2411 1.574 . S
C2428 H2422 0.949 . S
C2428 C2432 1.368 . S
C2429 C2410 1.429 . S
C2429 C2423 1.429 . S
C2429 C2430 1.523 . S
C2430 C2411 1.368 . S
C2430 C2424 1.368 . S
C2430 C2429 1.523 . S
C2431 C2415 1.429 . S
C2431 C2427 1.429 . S
C2431 C2432 1.523 . S
C2432 C2416 1.368 . S
C2432 C2428 1.368 . S
C2432 C2431 1.523 . S
H2433 C2408 0.950 . S
H2434 C2410 0.950 . S
H2435 C2411 0.949 . S
H2436 C2413 0.950 . S
H2437 C2415 0.950 . S
C2438 C2439 1.349 . S
C2438 C2440 1.327 . S
C2438 H2463 0.950 . S
C2439 C2438 1.349 . S
C2439 C2455 1.349 . S
C2440 C2438 1.327 . S
C2440 C2459 1.429 . S
C2440 H2464 0.950 . S
C2441 C2458 1.574 . S
C2441 C2460 1.368 . S
C2441 H2465 0.949 . S
H2442 C2446 0.949 . S
C2443 C2444 1.349 . S
C2443 C2445 1.327 . S
C2443 H2466 0.950 . S
C2444 C2443 1.349 . S
C2444 C2456 1.349 . S
C2445 C2443 1.327 . S
C2445 C2461 1.429 . S
C2445 H2467 0.950 . S
C2446 H2442 0.949 . S
C2446 C2454 1.574 . S
C2446 C2462 1.368 . S
H2447 C2455 0.950 . S
H2448 C2453 0.950 . S
H2449 C2454 0.949 . S
H2450 C2456 0.950 . S
H2451 C2457 0.950 . S
H2452 C2458 0.949 . S
C2453 H2448 0.950 . S
C2453 C2455 1.327 . S
C2453 C2459 1.429 . S
C2454 C2446 1.574 . S
C2454 H2449 0.949 . S
C2454 C2460 1.368 . S
C2455 C2439 1.349 . S
C2455 H2447 0.950 . S
C2455 C2453 1.327 . S
C2456 C2444 1.349 . S
C2456 H2450 0.950 . S
C2456 C2457 1.327 . S
C2457 H2451 0.950 . S
C2457 C2456 1.327 . S
C2457 C2461 1.429 . S
C2458 C2441 1.574 . S
C2458 H2452 0.949 . S
C2458 C2462 1.368 . S
C2459 C2440 1.429 . S
C2459 C2453 1.429 . S
C2459 C2460 1.523 . S
C2460 C2441 1.368 . S
C2460 C2454 1.368 . S
C2460 C2459 1.523 . S
C2461 C2445 1.429 . S
C2461 C2457 1.429 . S
C2461 C2462 1.523 . S
C2462 C2446 1.368 . S
C2462 C2458 1.368 . S
C2462 C2461 1.523 . S
H2463 C2438 0.950 . S
H2464 C2440 0.950 . S
H2465 C2441 0.949 . S
H2466 C2443 0.950 . S
H2467 C2445 0.950 . S
C2468 C2469 1.349 . S
C2468 C2470 1.327 . S
C2468 H2493 0.950 . S
C2469 C2468 1.349 . S
C2469 C2485 1.349 . S
C2470 C2468 1.327 . S
C2470 C2489 1.429 . S
C2470 H2494 0.950 . S
C2471 C2488 1.574 . S
C2471 C2490 1.368 . S
C2471 H2495 0.949 . S
H2472 C2476 0.949 . S
C2473 C2474 1.349 . S
C2473 C2475 1.327 . S
C2473 H2496 0.950 . S
C2474 C2473 1.349 . S
C2474 C2486 1.349 . S
C2475 C2473 1.327 . S
C2475 C2491 1.429 . S
C2475 H2497 0.950 . S
C2476 H2472 0.949 . S
C2476 C2484 1.574 . S
C2476 C2492 1.368 . S
H2477 C2485 0.950 . S
H2478 C2483 0.950 . S
H2479 C2484 0.949 . S
H2480 C2486 0.950 . S
H2481 C2487 0.950 . S
H2482 C2488 0.949 . S
C2483 H2478 0.950 . S
C2483 C2485 1.327 . S
C2483 C2489 1.429 . S
C2484 C2476 1.574 . S
C2484 H2479 0.949 . S
C2484 C2490 1.368 . S
C2485 C2469 1.349 . S
C2485 H2477 0.950 . S
C2485 C2483 1.327 . S
C2486 C2474 1.349 . S
C2486 H2480 0.950 . S
C2486 C2487 1.327 . S
C2487 H2481 0.950 . S
C2487 C2486 1.327 . S
C2487 C2491 1.429 . S
C2488 C2471 1.574 . S
C2488 H2482 0.949 . S
C2488 C2492 1.368 . S
C2489 C2470 1.429 . S
C2489 C2483 1.429 . S
C2489 C2490 1.523 . S
C2490 C2471 1.368 . S
C2490 C2484 1.368 . S
C2490 C2489 1.523 . S
C2491 C2475 1.429 . S
C2491 C2487 1.429 . S
C2491 C2492 1.523 . S
C2492 C2476 1.368 . S
C2492 C2488 1.368 . S
C2492 C2491 1.523 . S
H2493 C2468 0.950 . S
H2494 C2470 0.950 . S
H2495 C2471 0.949 . S
H2496 C2473 0.950 . S
H2497 C2475 0.950 . S
C2498 C2499 1.349 . S
C2498 C2500 1.327 . S
C2498 H2523 0.950 . S
C2499 C2498 1.349 . S
C2499 C2515 1.349 . S
C2500 C2498 1.327 . S
C2500 C2519 1.429 . S
C2500 H2524 0.950 . S
C2501 C2518 1.574 . S
C2501 C2520 1.368 . S
C2501 H2525 0.949 . S
H2502 C2506 0.949 . S
C2503 C2504 1.349 . S
C2503 C2505 1.327 . S
C2503 H2526 0.950 . S
C2504 C2503 1.349 . S
C2504 C2516 1.349 . S
C2505 C2503 1.327 . S
C2505 C2521 1.429 . S
C2505 H2527 0.950 . S
C2506 H2502 0.949 . S
C2506 C2514 1.574 . S
C2506 C2522 1.368 . S
H2507 C2515 0.950 . S
H2508 C2513 0.950 . S
H2509 C2514 0.949 . S
H2510 C2516 0.950 . S
H2511 C2517 0.950 . S
H2512 C2518 0.949 . S
C2513 H2508 0.950 . S
C2513 C2515 1.327 . S
C2513 C2519 1.429 . S
C2514 C2506 1.574 . S
C2514 H2509 0.949 . S
C2514 C2520 1.368 . S
C2515 C2499 1.349 . S
C2515 H2507 0.950 . S
C2515 C2513 1.327 . S
C2516 C2504 1.349 . S
C2516 H2510 0.950 . S
C2516 C2517 1.327 . S
C2517 H2511 0.950 . S
C2517 C2516 1.327 . S
C2517 C2521 1.429 . S
C2518 C2501 1.574 . S
C2518 H2512 0.949 . S
C2518 C2522 1.368 . S
C2519 C2500 1.429 . S
C2519 C2513 1.429 . S
C2519 C2520 1.523 . S
C2520 C2501 1.368 . S
C2520 C2514 1.368 . S
C2520 C2519 1.523 . S
C2521 C2505 1.429 . S
C2521 C2517 1.429 . S
C2521 C2522 1.523 . S
C2522 C2506 1.368 . S
C2522 C2518 1.368 . S
C2522 C2521 1.523 . S
H2523 C2498 0.950 . S
H2524 C2500 0.950 . S
H2525 C2501 0.949 . S
H2526 C2503 0.950 . S
H2527 C2505 0.950 . S
C2528 C2529 1.349 . S
C2528 C2530 1.327 . S
C2528 H2553 0.950 . S
C2529 C2528 1.349 . S
C2529 C2545 1.349 . S
C2530 C2528 1.327 . S
C2530 C2549 1.429 . S
C2530 H2554 0.950 . S
C2531 C2548 1.574 . S
C2531 C2550 1.368 . S
C2531 H2555 0.949 . S
H2532 C2536 0.949 . S
C2533 C2534 1.349 . S
C2533 C2535 1.327 . S
C2533 H2556 0.950 . S
C2534 C2533 1.349 . S
C2534 C2546 1.349 . S
C2535 C2533 1.327 . S
C2535 C2551 1.429 . S
C2535 H2557 0.950 . S
C2536 H2532 0.949 . S
C2536 C2544 1.574 . S
C2536 C2552 1.368 . S
H2537 C2545 0.950 . S
H2538 C2543 0.950 . S
H2539 C2544 0.949 . S
H2540 C2546 0.950 . S
H2541 C2547 0.950 . S
H2542 C2548 0.949 . S
C2543 H2538 0.950 . S
C2543 C2545 1.327 . S
C2543 C2549 1.429 . S
C2544 C2536 1.574 . S
C2544 H2539 0.949 . S
C2544 C2550 1.368 . S
C2545 C2529 1.349 . S
C2545 H2537 0.950 . S
C2545 C2543 1.327 . S
C2546 C2534 1.349 . S
C2546 H2540 0.950 . S
C2546 C2547 1.327 . S
C2547 H2541 0.950 . S
C2547 C2546 1.327 . S
C2547 C2551 1.429 . S
C2548 C2531 1.574 . S
C2548 H2542 0.949 . S
C2548 C2552 1.368 . S
C2549 C2530 1.429 . S
C2549 C2543 1.429 . S
C2549 C2550 1.523 . S
C2550 C2531 1.368 . S
C2550 C2544 1.368 . S
C2550 C2549 1.523 . S
C2551 C2535 1.429 . S
C2551 C2547 1.429 . S
C2551 C2552 1.523 . S
C2552 C2536 1.368 . S
C2552 C2548 1.368 . S
C2552 C2551 1.523 . S
H2553 C2528 0.950 . S
H2554 C2530 0.950 . S
H2555 C2531 0.949 . S
H2556 C2533 0.950 . S
H2557 C2535 0.950 . S
C2558 C2559 1.349 . S
C2558 C2560 1.327 . S
C2558 H2583 0.950 . S
C2559 C2558 1.349 . S
C2559 C2575 1.349 . S
C2560 C2558 1.327 . S
C2560 C2579 1.429 . S
C2560 H2584 0.950 . S
C2561 C2578 1.574 . S
C2561 C2580 1.368 1_655 S
C2561 H2585 0.949 . S
H2562 C2566 0.949 . S
C2563 C2564 1.349 . S
C2563 C2565 1.327 . S
C2563 H2586 0.950 . S
C2564 C2563 1.349 . S
C2564 C2576 1.349 . S
C2565 C2563 1.327 . S
C2565 C2581 1.429 . S
C2565 H2587 0.950 . S
C2566 H2562 0.949 . S
C2566 C2574 1.574 . S
C2566 C2582 1.368 1_455 S
H2567 C2575 0.950 . S
H2568 C2573 0.948 . S
H2569 C2574 0.949 . S
H2570 C2576 0.950 . S
H2571 C2577 0.950 1_455 S
H2572 C2578 0.949 . S
C2573 H2568 0.948 . S
C2573 C2575 1.327 . S
C2573 C2579 1.429 . S
C2574 C2566 1.574 . S
C2574 H2569 0.949 . S
C2574 C2580 1.368 . S
C2575 C2559 1.349 . S
C2575 H2567 0.950 . S
C2575 C2573 1.327 . S
C2576 C2564 1.349 . S
C2576 H2570 0.950 . S
C2576 C2577 1.327 . S
C2577 H2571 0.950 1_655 S
C2577 C2576 1.327 . S
C2577 C2581 1.429 . S
C2578 C2561 1.574 . S
C2578 H2572 0.949 . S
C2578 C2582 1.368 . S
C2579 C2560 1.429 . S
C2579 C2573 1.429 . S
C2579 C2580 1.523 . S
C2580 C2561 1.368 1_455 S
C2580 C2574 1.368 . S
C2580 C2579 1.523 . S
C2581 C2565 1.429 . S
C2581 C2577 1.429 . S
C2581 C2582 1.523 . S
C2582 C2566 1.368 1_655 S
C2582 C2578 1.368 . S
C2582 C2581 1.523 . S
H2583 C2558 0.950 . S
H2584 C2560 0.950 . S
H2585 C2561 0.949 . S
H2586 C2563 0.950 . S
H2587 C2565 0.950 . S
C2588 C2589 1.349 . S
C2588 C2590 1.327 . S
C2588 H2613 0.950 . S
C2589 C2588 1.349 . S
C2589 C2605 1.349 . S
C2590 C2588 1.327 . S
C2590 C2609 1.429 . S
C2590 H2614 0.950 . S
C2591 C2608 1.574 . S
C2591 C2610 1.368 . S
C2591 H2615 0.949 . S
H2592 C2596 0.949 . S
C2593 C2594 1.349 . S
C2593 C2595 1.327 . S
C2593 H2616 0.950 . S
C2594 C2593 1.349 . S
C2594 C2606 1.349 . S
C2595 C2593 1.327 . S
C2595 C2611 1.429 . S
C2595 H2617 0.950 . S
C2596 H2592 0.949 . S
C2596 C2604 1.574 . S
C2596 C2612 1.368 . S
H2597 C2605 0.950 . S
H2598 C2603 0.950 . S
H2599 C2604 0.949 . S
H2600 C2606 0.950 . S
H2601 C2607 0.950 . S
H2602 C2608 0.949 . S
C2603 H2598 0.950 . S
C2603 C2605 1.327 . S
C2603 C2609 1.429 . S
C2604 C2596 1.574 . S
C2604 H2599 0.949 . S
C2604 C2610 1.368 . S
C2605 C2589 1.349 . S
C2605 H2597 0.950 . S
C2605 C2603 1.327 . S
C2606 C2594 1.349 . S
C2606 H2600 0.950 . S
C2606 C2607 1.327 . S
C2607 H2601 0.950 . S
C2607 C2606 1.327 . S
C2607 C2611 1.429 . S
C2608 C2591 1.574 . S
C2608 H2602 0.949 . S
C2608 C2612 1.368 . S
C2609 C2590 1.429 . S
C2609 C2603 1.429 . S
C2609 C2610 1.523 . S
C2610 C2591 1.368 . S
C2610 C2604 1.368 . S
C2610 C2609 1.523 . S
C2611 C2595 1.429 . S
C2611 C2607 1.429 . S
C2611 C2612 1.523 . S
C2612 C2596 1.368 . S
C2612 C2608 1.368 . S
C2612 C2611 1.523 . S
H2613 C2588 0.950 . S
H2614 C2590 0.950 . S
H2615 C2591 0.949 . S
H2616 C2593 0.950 . S
H2617 C2595 0.950 . S
C2618 C2619 1.349 . S
C2618 C2620 1.327 . S
C2618 H2643 0.950 . S
C2619 C2618 1.349 . S
C2619 C2635 1.349 . S
C2620 C2618 1.327 . S
C2620 C2639 1.429 . S
C2620 H2644 0.950 . S
C2621 C2638 1.574 1_455 S
C2621 C2640 1.368 . S
C2621 H2645 0.949 . S
H2622 C2626 0.942 1_655 S
C2623 C2624 1.349 . S
C2623 C2625 1.327 . S
C2623 H2646 0.950 . S
C2624 C2623 1.349 . S
C2624 C2636 1.349 . S
C2625 C2623 1.327 . S
C2625 C2641 1.429 . S
C2625 H2647 0.950 . S
C2626 H2622 0.942 1_455 S
C2626 C2634 1.600 . S
C2626 C2642 1.354 1_455 S
H2627 C2635 0.950 . S
H2628 C2633 0.950 . S
H2629 C2634 0.949 . S
H2630 C2636 0.950 . S
H2631 C2637 0.950 . S
H2632 C2638 0.949 . S
C2633 H2628 0.950 . S
C2633 C2635 1.327 . S
C2633 C2639 1.429 . S
C2634 C2626 1.600 . S
C2634 H2629 0.949 . S
C2634 C2640 1.368 . S
C2635 C2619 1.349 . S
C2635 H2627 0.950 . S
C2635 C2633 1.327 . S
C2636 C2624 1.349 . S
C2636 H2630 0.950 . S
C2636 C2637 1.327 . S
C2637 H2631 0.950 . S
C2637 C2636 1.327 . S
C2637 C2641 1.429 . S
C2638 C2621 1.574 1_655 S
C2638 H2632 0.949 . S
C2638 C2642 1.368 . S
C2639 C2620 1.429 . S
C2639 C2633 1.429 . S
C2639 C2640 1.523 . S
C2640 C2621 1.368 . S
C2640 C2634 1.368 . S
C2640 C2639 1.523 . S
C2641 C2625 1.429 . S
C2641 C2637 1.429 . S
C2641 C2642 1.523 . S
C2642 C2626 1.354 1_655 S
C2642 C2638 1.368 . S
C2642 C2641 1.523 . S
H2643 C2618 0.950 . S
H2644 C2620 0.950 . S
H2645 C2621 0.949 . S
H2646 C2623 0.950 . S
H2647 C2625 0.950 . S
C2648 C2649 1.349 . S
C2648 C2650 1.327 . S
C2648 H2673 0.950 . S
C2649 C2648 1.349 . S
C2649 C2665 1.349 . S
C2650 C2648 1.327 . S
C2650 C2669 1.429 . S
C2650 H2674 0.950 . S
C2651 C2668 1.574 . S
C2651 C2670 1.368 . S
C2651 H2675 0.949 . S
H2652 C2656 0.949 . S
C2653 C2654 1.349 . S
C2653 C2655 1.327 . S
C2653 H2676 0.950 . S
C2654 C2653 1.349 . S
C2654 C2666 1.349 . S
C2655 C2653 1.327 . S
C2655 C2671 1.429 . S
C2655 H2677 0.950 . S
C2656 H2652 0.949 . S
C2656 C2664 1.574 . S
C2656 C2672 1.368 . S
H2657 C2665 0.950 . S
H2658 C2663 0.950 . S
H2659 C2664 0.949 . S
H2660 C2666 0.950 . S
H2661 C2667 0.950 . S
H2662 C2668 0.949 . S
C2663 H2658 0.950 . S
C2663 C2665 1.327 . S
C2663 C2669 1.429 . S
C2664 C2656 1.574 . S
C2664 H2659 0.949 . S
C2664 C2670 1.368 . S
C2665 C2649 1.349 . S
C2665 H2657 0.950 . S
C2665 C2663 1.327 . S
C2666 C2654 1.349 . S
C2666 H2660 0.950 . S
C2666 C2667 1.327 . S
C2667 H2661 0.950 . S
C2667 C2666 1.327 . S
C2667 C2671 1.429 . S
C2668 C2651 1.574 . S
C2668 H2662 0.949 . S
C2668 C2672 1.368 . S
C2669 C2650 1.429 . S
C2669 C2663 1.429 . S
C2669 C2670 1.523 . S
C2670 C2651 1.368 . S
C2670 C2664 1.368 . S
C2670 C2669 1.523 . S
C2671 C2655 1.429 . S
C2671 C2667 1.429 . S
C2671 C2672 1.523 . S
C2672 C2656 1.368 . S
C2672 C2668 1.368 . S
C2672 C2671 1.523 . S
H2673 C2648 0.950 . S
H2674 C2650 0.950 . S
H2675 C2651 0.949 . S
H2676 C2653 0.950 . S
H2677 C2655 0.950 . S
C2678 C2679 1.349 . S
C2678 C2680 1.327 . S
C2678 H2703 0.950 . S
C2679 C2678 1.349 . S
C2679 C2695 1.349 . S
C2680 C2678 1.327 . S
C2680 C2699 1.429 . S
C2680 H2704 0.950 1_455 S
C2681 C2698 1.574 . S
C2681 C2700 1.368 . S
C2681 H2705 0.949 . S
H2682 C2686 0.949 . S
C2683 C2684 1.349 . S
C2683 C2685 1.327 . S
C2683 H2706 0.950 . S
C2684 C2683 1.349 . S
C2684 C2696 1.349 . S
C2685 C2683 1.327 . S
C2685 C2701 1.429 . S
C2685 H2707 0.950 . S
C2686 H2682 0.949 . S
C2686 C2694 1.574 . S
C2686 C2702 1.368 . S
H2687 C2695 0.950 . S
H2688 C2693 0.950 . S
H2689 C2694 0.949 . S
H2690 C2696 0.950 . S
H2691 C2697 0.950 . S
H2692 C2698 0.949 . S
C2693 H2688 0.950 . S
C2693 C2695 1.327 . S
C2693 C2699 1.429 . S
C2694 C2686 1.574 . S
C2694 H2689 0.949 . S
C2694 C2700 1.368 1_655 S
C2695 C2679 1.349 . S
C2695 H2687 0.950 . S
C2695 C2693 1.327 . S
C2696 C2684 1.349 . S
C2696 H2690 0.950 . S
C2696 C2697 1.327 . S
C2697 H2691 0.950 . S
C2697 C2696 1.327 . S
C2697 C2701 1.429 . S
C2698 C2681 1.574 . S
C2698 H2692 0.949 . S
C2698 C2702 1.368 1_455 S
C2699 C2680 1.429 . S
C2699 C2693 1.429 . S
C2699 C2700 1.523 . S
C2700 C2681 1.368 . S
C2700 C2694 1.368 1_455 S
C2700 C2699 1.523 . S
C2701 C2685 1.429 . S
C2701 C2697 1.429 . S
C2701 C2702 1.523 . S
C2702 C2686 1.368 . S
C2702 C2698 1.368 1_655 S
C2702 C2701 1.523 . S
H2703 C2678 0.950 . S
H2704 C2680 0.950 1_655 S
H2705 C2681 0.949 . S
H2706 C2683 0.950 . S
H2707 C2685 0.950 . S
C2708 C2709 1.349 . S
C2708 C2710 1.327 . S
C2708 H2733 0.950 . S
C2709 C2708 1.349 . S
C2709 C2725 1.349 . S
C2710 C2708 1.327 . S
C2710 C2729 1.429 . S
C2710 H2734 0.950 . S
C2711 C2728 1.574 . S
C2711 C2730 1.368 . S
C2711 H2735 0.949 . S
H2712 C2716 0.949 . S
C2713 C2714 1.349 . S
C2713 C2715 1.327 . S
C2713 H2736 0.950 . S
C2714 C2713 1.349 . S
C2714 C2726 1.349 . S
C2715 C2713 1.327 . S
C2715 C2731 1.429 . S
C2715 H2737 0.950 . S
C2716 H2712 0.949 . S
C2716 C2724 1.574 . S
C2716 C2732 1.368 . S
H2717 C2725 0.950 . S
H2718 C2723 0.950 . S
H2719 C2724 0.949 . S
H2720 C2726 0.950 . S
H2721 C2727 0.950 . S
H2722 C2728 0.949 . S
C2723 H2718 0.950 . S
C2723 C2725 1.327 . S
C2723 C2729 1.429 . S
C2724 C2716 1.574 . S
C2724 H2719 0.949 . S
C2724 C2730 1.368 . S
C2725 C2709 1.349 . S
C2725 H2717 0.950 . S
C2725 C2723 1.327 . S
C2726 C2714 1.349 . S
C2726 H2720 0.950 . S
C2726 C2727 1.327 . S
C2727 H2721 0.950 . S
C2727 C2726 1.327 . S
C2727 C2731 1.429 . S
C2728 C2711 1.574 . S
C2728 H2722 0.949 . S
C2728 C2732 1.368 . S
C2729 C2710 1.429 . S
C2729 C2723 1.429 . S
C2729 C2730 1.523 . S
C2730 C2711 1.368 . S
C2730 C2724 1.368 . S
C2730 C2729 1.523 . S
C2731 C2715 1.429 . S
C2731 C2727 1.429 . S
C2731 C2732 1.523 . S
C2732 C2716 1.368 . S
C2732 C2728 1.368 . S
C2732 C2731 1.523 . S
H2733 C2708 0.950 . S
H2734 C2710 0.950 . S
H2735 C2711 0.949 . S
H2736 C2713 0.950 . S
H2737 C2715 0.950 . S
C2738 C2739 1.349 . S
C2738 C2740 1.327 . S
C2738 H2763 0.950 . S
C2739 C2738 1.349 . S
C2739 C2755 1.349 . S
C2740 C2738 1.327 . S
C2740 C2759 1.429 . S
C2740 H2764 0.950 . S
C2741 C2758 1.574 . S
C2741 C2760 1.368 1_655 S
C2741 H2765 0.949 . S
H2742 C2746 0.949 . S
C2743 C2744 1.349 . S
C2743 C2745 1.327 . S
C2743 H2766 0.950 . S
C2744 C2743 1.349 . S
C2744 C2756 1.349 . S
C2745 C2743 1.327 . S
C2745 C2761 1.429 . S
C2745 H2767 0.950 . S
C2746 H2742 0.949 . S
C2746 C2754 1.574 1_655 S
C2746 C2762 1.368 . S
H2747 C2755 0.950 . S
H2748 C2753 0.950 . S
H2749 C2754 0.949 . S
H2750 C2756 0.950 . S
H2751 C2757 0.950 . S
H2752 C2758 0.949 . S
C2753 H2748 0.950 . S
C2753 C2755 1.327 . S
C2753 C2759 1.429 . S
C2754 C2746 1.574 1_455 S
C2754 H2749 0.949 . S
C2754 C2760 1.368 . S
C2755 C2739 1.349 . S
C2755 H2747 0.950 . S
C2755 C2753 1.327 . S
C2756 C2744 1.349 . S
C2756 H2750 0.950 . S
C2756 C2757 1.327 . S
C2757 H2751 0.950 . S
C2757 C2756 1.327 . S
C2757 C2761 1.429 . S
C2758 C2741 1.574 . S
C2758 H2752 0.949 . S
C2758 C2762 1.368 . S
C2759 C2740 1.429 . S
C2759 C2753 1.429 . S
C2759 C2760 1.523 . S
C2760 C2741 1.368 1_455 S
C2760 C2754 1.368 . S
C2760 C2759 1.523 . S
C2761 C2745 1.429 . S
C2761 C2757 1.429 . S
C2761 C2762 1.523 . S
C2762 C2746 1.368 . S
C2762 C2758 1.368 . S
C2762 C2761 1.523 . S
H2763 C2738 0.950 . S
H2764 C2740 0.950 . S
H2765 C2741 0.949 . S
H2766 C2743 0.950 . S
H2767 C2745 0.950 . S
C2768 C2769 1.349 . S
C2768 C2770 1.327 . S
C2768 H2793 0.950 . S
C2769 C2768 1.349 . S
C2769 C2785 1.349 . S
C2770 C2768 1.327 . S
C2770 C2789 1.429 . S
C2770 H2794 0.950 . S
C2771 C2788 1.574 . S
C2771 C2790 1.368 . S
C2771 H2795 0.949 . S
H2772 C2776 0.949 . S
C2773 C2774 1.349 . S
C2773 C2775 1.327 . S
C2773 H2796 0.950 . S
C2774 C2773 1.349 . S
C2774 C2786 1.349 . S
C2775 C2773 1.327 . S
C2775 C2791 1.429 . S
C2775 H2797 0.950 . S
C2776 H2772 0.949 . S
C2776 C2784 1.574 . S
C2776 C2792 1.368 . S
H2777 C2785 0.950 . S
H2778 C2783 0.950 . S
H2779 C2784 0.949 . S
H2780 C2786 0.950 . S
H2781 C2787 0.950 . S
H2782 C2788 0.949 . S
C2783 H2778 0.950 . S
C2783 C2785 1.327 . S
C2783 C2789 1.429 . S
C2784 C2776 1.574 . S
C2784 H2779 0.949 . S
C2784 C2790 1.368 . S
C2785 C2769 1.349 . S
C2785 H2777 0.950 . S
C2785 C2783 1.327 . S
C2786 C2774 1.349 . S
C2786 H2780 0.950 . S
C2786 C2787 1.327 . S
C2787 H2781 0.950 . S
C2787 C2786 1.327 . S
C2787 C2791 1.429 . S
C2788 C2771 1.574 . S
C2788 H2782 0.949 . S
C2788 C2792 1.368 . S
C2789 C2770 1.429 . S
C2789 C2783 1.429 . S
C2789 C2790 1.523 . S
C2790 C2771 1.368 . S
C2790 C2784 1.368 . S
C2790 C2789 1.523 . S
C2791 C2775 1.429 . S
C2791 C2787 1.429 . S
C2791 C2792 1.523 . S
C2792 C2776 1.368 . S
C2792 C2788 1.368 . S
C2792 C2791 1.523 . S
H2793 C2768 0.950 . S
H2794 C2770 0.950 . S
H2795 C2771 0.949 . S
H2796 C2773 0.950 . S
H2797 C2775 0.950 . S
C2798 C2799 1.349 . S
C2798 C2800 1.327 . S
C2798 H2823 0.950 . S
C2799 C2798 1.349 . S
C2799 C2815 1.349 . S
C2800 C2798 1.327 . S
C2800 C2819 1.429 . S
C2800 H2824 0.950 . S
C2801 C2818 1.574 . S
C2801 C2820 1.368 1_655 S
C2801 H2825 0.949 . S
H2802 C2806 0.949 . S
C2803 C2804 1.349 . S
C2803 C2805 1.327 . S
C2803 H2826 0.950 . S
C2804 C2803 1.349 . S
C2804 C2816 1.349 . S
C2805 C2803 1.327 . S
C2805 C2821 1.429 . S
C2805 H2827 0.950 . S
C2806 H2802 0.949 . S
C2806 C2814 1.574 . S
C2806 C2822 1.368 1_455 S
H2807 C2815 0.950 . S
H2808 C2813 0.950 1_655 S
H2809 C2814 0.949 . S
H2810 C2816 0.967 . S
H2811 C2817 0.910 1_455 S
H2812 C2818 0.949 . S
C2813 H2808 0.950 1_455 S
C2813 C2815 1.327 . S
C2813 C2819 1.429 . S
C2814 C2806 1.574 . S
C2814 H2809 0.949 . S
C2814 C2820 1.368 . S
C2815 C2799 1.349 . S
C2815 H2807 0.950 . S
C2815 C2813 1.327 . S
C2816 C2804 1.349 . S
C2816 H2810 0.967 . S
C2816 C2817 1.344 . S
C2817 H2811 0.910 1_655 S
C2817 C2816 1.344 . S
C2817 C2821 1.451 . S
C2818 C2801 1.574 . S
C2818 H2812 0.949 . S
C2818 C2822 1.368 . S
C2819 C2800 1.429 . S
C2819 C2813 1.429 . S
C2819 C2820 1.523 . S
C2820 C2801 1.368 1_455 S
C2820 C2814 1.368 . S
C2820 C2819 1.523 . S
C2821 C2805 1.429 . S
C2821 C2817 1.451 . S
C2821 C2822 1.523 . S
C2822 C2806 1.368 1_655 S
C2822 C2818 1.368 . S
C2822 C2821 1.523 . S
H2823 C2798 0.950 . S
H2824 C2800 0.950 . S
H2825 C2801 0.949 . S
H2826 C2803 0.950 . S
H2827 C2805 0.950 . S
C2828 C2829 1.349 . S
C2828 C2830 1.327 . S
C2828 H2853 0.950 . S
C2829 C2828 1.349 . S
C2829 C2845 1.349 . S
C2830 C2828 1.327 . S
C2830 C2849 1.429 . S
C2830 H2854 0.950 . S
C2831 C2848 1.574 . S
C2831 C2850 1.368 . S
C2831 H2855 0.949 . S
H2832 C2836 0.949 . S
C2833 C2834 1.349 . S
C2833 C2835 1.327 . S
C2833 H2856 0.950 . S
C2834 C2833 1.349 . S
C2834 C2846 1.349 . S
C2835 C2833 1.327 . S
C2835 C2851 1.429 . S
C2835 H2857 0.950 . S
C2836 H2832 0.949 . S
C2836 C2844 1.574 . S
C2836 C2852 1.368 . S
H2837 C2845 0.950 . S
H2838 C2843 0.950 . S
H2839 C2844 0.949 . S
H2840 C2846 0.950 . S
H2841 C2847 0.950 . S
H2842 C2848 0.949 . S
C2843 H2838 0.950 . S
C2843 C2845 1.327 . S
C2843 C2849 1.429 . S
C2844 C2836 1.574 . S
C2844 H2839 0.949 . S
C2844 C2850 1.368 . S
C2845 C2829 1.349 . S
C2845 H2837 0.950 . S
C2845 C2843 1.327 . S
C2846 C2834 1.349 . S
C2846 H2840 0.950 . S
C2846 C2847 1.327 . S
C2847 H2841 0.950 . S
C2847 C2846 1.327 . S
C2847 C2851 1.429 . S
C2848 C2831 1.574 . S
C2848 H2842 0.949 . S
C2848 C2852 1.368 . S
C2849 C2830 1.429 . S
C2849 C2843 1.429 . S
C2849 C2850 1.523 . S
C2850 C2831 1.368 . S
C2850 C2844 1.368 . S
C2850 C2849 1.523 . S
C2851 C2835 1.429 . S
C2851 C2847 1.429 . S
C2851 C2852 1.523 . S
C2852 C2836 1.368 . S
C2852 C2848 1.368 . S
C2852 C2851 1.523 . S
H2853 C2828 0.950 . S
H2854 C2830 0.950 . S
H2855 C2831 0.949 . S
H2856 C2833 0.950 . S
H2857 C2835 0.950 . S
C2858 C2859 1.349 . S
C2858 C2860 1.327 . S
C2858 H2883 0.950 . S
C2859 C2858 1.349 . S
C2859 C2875 1.349 . S
C2860 C2858 1.327 . S
C2860 C2879 1.429 . S
C2860 H2884 0.950 . S
C2861 C2878 1.574 . S
C2861 C2880 1.368 1_455 S
C2861 H2885 0.949 . S
H2862 C2866 0.949 . S
C2863 C2864 1.349 . S
C2863 C2865 1.327 . S
C2863 H2886 0.950 . S
C2864 C2863 1.349 . S
C2864 C2876 1.349 . S
C2865 C2863 1.327 . S
C2865 C2881 1.429 . S
C2865 H2887 0.950 . S
C2866 H2862 0.949 . S
C2866 C2874 1.574 . S
C2866 C2882 1.368 1_655 S
H2867 C2875 0.964 . S
H2868 C2873 0.914 1_455 S
H2869 C2874 0.949 . S
H2870 C2876 0.950 . S
H2871 C2877 0.950 1_655 S
H2872 C2878 0.949 . S
C2873 H2868 0.914 1_655 S
C2873 C2875 1.342 . S
C2873 C2879 1.449 . S
C2874 C2866 1.574 . S
C2874 H2869 0.949 . S
C2874 C2880 1.368 . S
C2875 C2859 1.349 . S
C2875 H2867 0.964 . S
C2875 C2873 1.342 . S
C2876 C2864 1.349 . S
C2876 H2870 0.950 . S
C2876 C2877 1.327 . S
C2877 H2871 0.950 1_455 S
C2877 C2876 1.327 . S
C2877 C2881 1.429 . S
C2878 C2861 1.574 . S
C2878 H2872 0.949 . S
C2878 C2882 1.368 . S
C2879 C2860 1.429 . S
C2879 C2873 1.449 . S
C2879 C2880 1.523 . S
C2880 C2861 1.368 1_655 S
C2880 C2874 1.368 . S
C2880 C2879 1.523 . S
C2881 C2865 1.429 . S
C2881 C2877 1.429 . S
C2881 C2882 1.523 . S
C2882 C2866 1.368 1_455 S
C2882 C2878 1.368 . S
C2882 C2881 1.523 . S
H2883 C2858 0.950 . S
H2884 C2860 0.950 . S
H2885 C2861 0.949 . S
H2886 C2863 0.950 . S
H2887 C2865 0.950 . S
C2888 C2889 1.349 . S
C2888 C2890 1.327 . S
C2888 H2913 0.950 . S
C2889 C2888 1.349 . S
C2889 C2905 1.349 . S
C2890 C2888 1.327 . S
C2890 C2909 1.429 . S
C2890 H2914 0.950 . S
C2891 C2908 1.574 . S
C2891 C2910 1.368 . S
C2891 H2915 0.949 . S
H2892 C2896 0.949 . S
C2893 C2894 1.349 . S
C2893 C2895 1.327 . S
C2893 H2916 0.950 . S
C2894 C2893 1.349 . S
C2894 C2906 1.349 . S
C2895 C2893 1.327 . S
C2895 C2911 1.429 . S
C2895 H2917 0.950 . S
C2896 H2892 0.949 . S
C2896 C2904 1.574 . S
C2896 C2912 1.368 . S
H2897 C2905 0.950 . S
H2898 C2903 0.950 . S
H2899 C2904 0.949 . S
H2900 C2906 0.950 . S
H2901 C2907 0.950 . S
H2902 C2908 0.949 . S
C2903 H2898 0.950 . S
C2903 C2905 1.327 . S
C2903 C2909 1.429 . S
C2904 C2896 1.574 . S
C2904 H2899 0.949 . S
C2904 C2910 1.368 . S
C2905 C2889 1.349 . S
C2905 H2897 0.950 . S
C2905 C2903 1.327 . S
C2906 C2894 1.349 . S
C2906 H2900 0.950 . S
C2906 C2907 1.327 . S
C2907 H2901 0.950 . S
C2907 C2906 1.327 . S
C2907 C2911 1.429 . S
C2908 C2891 1.574 . S
C2908 H2902 0.949 . S
C2908 C2912 1.368 . S
C2909 C2890 1.429 . S
C2909 C2903 1.429 . S
C2909 C2910 1.523 . S
C2910 C2891 1.368 . S
C2910 C2904 1.368 . S
C2910 C2909 1.523 . S
C2911 C2895 1.429 . S
C2911 C2907 1.429 . S
C2911 C2912 1.523 . S
C2912 C2896 1.368 . S
C2912 C2908 1.368 . S
C2912 C2911 1.523 . S
H2913 C2888 0.950 . S
H2914 C2890 0.950 . S
H2915 C2891 0.949 . S
H2916 C2893 0.950 . S
H2917 C2895 0.950 . S
C2918 C2919 1.349 . S
C2918 C2920 1.327 . S
C2918 H2943 0.950 . S
C2919 C2918 1.349 . S
C2919 C2935 1.349 . S
C2920 C2918 1.327 . S
C2920 C2939 1.429 . S
C2920 H2944 0.950 . S
C2921 C2938 1.574 . S
C2921 C2940 1.368 1_655 S
C2921 H2945 0.949 . S
H2922 C2926 0.965 . S
C2923 C2924 1.349 . S
C2923 C2925 1.327 . S
C2923 H2946 0.950 . S
C2924 C2923 1.349 . S
C2924 C2936 1.349 . S
C2925 C2923 1.327 . S
C2925 C2941 1.429 . S
C2925 H2947 0.950 . S
C2926 H2922 0.965 . S
C2926 C2934 1.600 . S
C2926 C2942 1.329 1_455 S
H2927 C2935 0.950 . S
H2928 C2933 0.916 1_655 S
H2929 C2934 0.949 . S
H2930 C2936 0.950 . S
H2931 C2937 0.950 . S
H2932 C2938 0.949 . S
C2933 H2928 0.916 1_455 S
C2933 C2935 1.327 . S
C2933 C2939 1.429 . S
C2934 C2926 1.600 . S
C2934 H2929 0.949 . S
C2934 C2940 1.368 . S
C2935 C2919 1.349 . S
C2935 H2927 0.950 . S
C2935 C2933 1.327 . S
C2936 C2924 1.349 . S
C2936 H2930 0.950 . S
C2936 C2937 1.327 . S
C2937 H2931 0.950 . S
C2937 C2936 1.327 . S
C2937 C2941 1.429 . S
C2938 C2921 1.574 . S
C2938 H2932 0.949 . S
C2938 C2942 1.368 . S
C2939 C2920 1.429 . S
C2939 C2933 1.429 . S
C2939 C2940 1.523 . S
C2940 C2921 1.368 1_455 S
C2940 C2934 1.368 . S
C2940 C2939 1.523 . S
C2941 C2925 1.429 . S
C2941 C2937 1.429 . S
C2941 C2942 1.523 . S
C2942 C2926 1.329 1_655 S
C2942 C2938 1.368 . S
C2942 C2941 1.523 . S
H2943 C2918 0.950 . S
H2944 C2920 0.950 . S
H2945 C2921 0.949 . S
H2946 C2923 0.950 . S
H2947 C2925 0.950 . S
C2948 C2949 1.349 . S
C2948 C2950 1.327 . S
C2948 H2973 0.950 . S
C2949 C2948 1.349 . S
C2949 C2965 1.349 . S
C2950 C2948 1.327 . S
C2950 C2969 1.429 . S
C2950 H2974 0.950 . S
C2951 C2968 1.574 . S
C2951 C2970 1.368 . S
C2951 H2975 0.949 . S
H2952 C2956 0.949 . S
C2953 C2954 1.349 . S
C2953 C2955 1.327 . S
C2953 H2976 0.950 . S
C2954 C2953 1.349 . S
C2954 C2966 1.349 . S
C2955 C2953 1.327 . S
C2955 C2971 1.429 . S
C2955 H2977 0.950 . S
C2956 H2952 0.949 . S
C2956 C2964 1.574 . S
C2956 C2972 1.368 . S
H2957 C2965 0.950 . S
H2958 C2963 0.950 . S
H2959 C2964 0.949 . S
H2960 C2966 0.950 . S
H2961 C2967 0.950 . S
H2962 C2968 0.949 . S
C2963 H2958 0.950 . S
C2963 C2965 1.327 . S
C2963 C2969 1.429 . S
C2964 C2956 1.574 . S
C2964 H2959 0.949 . S
C2964 C2970 1.368 . S
C2965 C2949 1.349 . S
C2965 H2957 0.950 . S
C2965 C2963 1.327 . S
C2966 C2954 1.349 . S
C2966 H2960 0.950 . S
C2966 C2967 1.327 . S
C2967 H2961 0.950 . S
C2967 C2966 1.327 . S
C2967 C2971 1.429 . S
C2968 C2951 1.574 . S
C2968 H2962 0.949 . S
C2968 C2972 1.368 . S
C2969 C2950 1.429 . S
C2969 C2963 1.429 . S
C2969 C2970 1.523 . S
C2970 C2951 1.368 . S
C2970 C2964 1.368 . S
C2970 C2969 1.523 . S
C2971 C2955 1.429 . S
C2971 C2967 1.429 . S
C2971 C2972 1.523 . S
C2972 C2956 1.368 . S
C2972 C2968 1.368 . S
C2972 C2971 1.523 . S
H2973 C2948 0.950 . S
H2974 C2950 0.950 . S
H2975 C2951 0.949 . S
H2976 C2953 0.950 . S
H2977 C2955 0.950 . S
C2978 C2979 1.349 . S
C2978 C2980 1.327 . S
C2978 H3003 0.950 . S
C2979 C2978 1.349 . S
C2979 C2995 1.349 . S
C2980 C2978 1.327 . S
C2980 C2999 1.429 . S
C2980 H3004 0.950 . S
C2981 C2998 1.574 . S
C2981 C3000 1.368 1_455 S
C2981 H3005 0.949 . S
H2982 C2986 0.949 . S
C2983 C2984 1.349 . S
C2983 C2985 1.327 . S
C2983 H3006 0.950 . S
C2984 C2983 1.349 . S
C2984 C2996 1.349 . S
C2985 C2983 1.327 . S
C2985 C3001 1.429 . S
C2985 H3007 0.950 . S
C2986 H2982 0.949 . S
C2986 C2994 1.574 . S
C2986 C3002 1.368 1_655 S
H2987 C2995 0.950 . S
H2988 C2993 0.950 . S
H2989 C2994 0.949 . S
H2990 C2996 0.950 . S
H2991 C2997 0.950 1_655 S
H2992 C2998 0.949 . S
C2993 H2988 0.950 . S
C2993 C2995 1.327 . S
C2993 C2999 1.429 . S
C2994 C2986 1.574 . S
C2994 H2989 0.949 . S
C2994 C3000 1.368 . S
C2995 C2979 1.349 . S
C2995 H2987 0.950 . S
C2995 C2993 1.327 . S
C2996 C2984 1.349 . S
C2996 H2990 0.950 . S
C2996 C2997 1.327 . S
C2997 H2991 0.950 1_455 S
C2997 C2996 1.327 . S
C2997 C3001 1.429 . S
C2998 C2981 1.574 . S
C2998 H2992 0.949 . S
C2998 C3002 1.368 . S
C2999 C2980 1.429 . S
C2999 C2993 1.429 . S
C2999 C3000 1.523 . S
C3000 C2981 1.368 1_655 S
C3000 C2994 1.368 . S
C3000 C2999 1.523 . S
C3001 C2985 1.429 . S
C3001 C2997 1.429 . S
C3001 C3002 1.523 . S
C3002 C2986 1.368 1_455 S
C3002 C2998 1.368 . S
C3002 C3001 1.523 . S
H3003 C2978 0.950 . S
H3004 C2980 0.950 . S
H3005 C2981 0.949 . S
H3006 C2983 0.950 . S
H3007 C2985 0.950 . S
C3008 C3009 1.349 . S
C3008 C3010 1.327 . S
C3008 H3033 0.950 . S
C3009 C3008 1.349 . S
C3009 C3025 1.349 . S
C3010 C3008 1.327 . S
C3010 C3029 1.429 . S
C3010 H3034 0.950 . S
C3011 C3028 1.574 . S
C3011 C3030 1.368 . S
C3011 H3035 0.949 . S
H3012 C3016 0.949 . S
C3013 C3014 1.349 . S
C3013 C3015 1.327 . S
C3013 H3036 0.950 . S
C3014 C3013 1.349 . S
C3014 C3026 1.349 . S
C3015 C3013 1.327 . S
C3015 C3031 1.429 . S
C3015 H3037 0.950 . S
C3016 H3012 0.949 . S
C3016 C3024 1.574 . S
C3016 C3032 1.368 . S
H3017 C3025 0.950 . S
H3018 C3023 0.950 . S
H3019 C3024 0.949 . S
H3020 C3026 0.950 . S
H3021 C3027 0.950 . S
H3022 C3028 0.949 . S
C3023 H3018 0.950 . S
C3023 C3025 1.327 . S
C3023 C3029 1.429 . S
C3024 C3016 1.574 . S
C3024 H3019 0.949 . S
C3024 C3030 1.368 . S
C3025 C3009 1.349 . S
C3025 H3017 0.950 . S
C3025 C3023 1.327 . S
C3026 C3014 1.349 . S
C3026 H3020 0.950 . S
C3026 C3027 1.327 . S
C3027 H3021 0.950 . S
C3027 C3026 1.327 . S
C3027 C3031 1.429 . S
C3028 C3011 1.574 . S
C3028 H3022 0.949 . S
C3028 C3032 1.368 . S
C3029 C3010 1.429 . S
C3029 C3023 1.429 . S
C3029 C3030 1.523 . S
C3030 C3011 1.368 . S
C3030 C3024 1.368 . S
C3030 C3029 1.523 . S
C3031 C3015 1.429 . S
C3031 C3027 1.429 . S
C3031 C3032 1.523 . S
C3032 C3016 1.368 . S
C3032 C3028 1.368 . S
C3032 C3031 1.523 . S
H3033 C3008 0.950 . S
H3034 C3010 0.950 . S
H3035 C3011 0.949 . S
H3036 C3013 0.950 . S
H3037 C3015 0.950 . S
C3038 C3039 1.349 . S
C3038 C3040 1.327 . S
C3038 H3063 0.950 . S
C3039 C3038 1.349 . S
C3039 C3055 1.349 . S
C3040 C3038 1.327 . S
C3040 C3059 1.429 . S
C3040 H3064 0.950 . S
C3041 C3058 1.574 . S
C3041 C3060 1.368 . S
C3041 H3065 0.949 . S
H3042 C3046 0.949 . S
C3043 C3044 1.349 . S
C3043 C3045 1.327 . S
C3043 H3066 0.950 . S
C3044 C3043 1.349 . S
C3044 C3056 1.349 . S
C3045 C3043 1.327 . S
C3045 C3061 1.429 . S
C3045 H3067 0.950 . S
C3046 H3042 0.949 . S
C3046 C3054 1.574 . S
C3046 C3062 1.368 . S
H3047 C3055 0.950 . S
H3048 C3053 0.950 . S
H3049 C3054 0.949 . S
H3050 C3056 0.950 . S
H3051 C3057 0.950 . S
H3052 C3058 0.949 . S
C3053 H3048 0.950 . S
C3053 C3055 1.327 . S
C3053 C3059 1.429 . S
C3054 C3046 1.574 . S
C3054 H3049 0.949 . S
C3054 C3060 1.368 . S
C3055 C3039 1.349 . S
C3055 H3047 0.950 . S
C3055 C3053 1.327 . S
C3056 C3044 1.349 . S
C3056 H3050 0.950 . S
C3056 C3057 1.327 . S
C3057 H3051 0.950 . S
C3057 C3056 1.327 . S
C3057 C3061 1.429 . S
C3058 C3041 1.574 . S
C3058 H3052 0.949 . S
C3058 C3062 1.368 . S
C3059 C3040 1.429 . S
C3059 C3053 1.429 . S
C3059 C3060 1.523 . S
C3060 C3041 1.368 . S
C3060 C3054 1.368 . S
C3060 C3059 1.523 . S
C3061 C3045 1.429 . S
C3061 C3057 1.429 . S
C3061 C3062 1.523 . S
C3062 C3046 1.368 . S
C3062 C3058 1.368 . S
C3062 C3061 1.523 . S
H3063 C3038 0.950 . S
H3064 C3040 0.950 . S
H3065 C3041 0.949 . S
H3066 C3043 0.950 . S
H3067 C3045 0.950 . S
C3068 C3069 1.349 . S
C3068 C3070 1.327 . S
C3068 H3093 0.950 . S
C3069 C3068 1.349 . S
C3069 C3085 1.349 . S
C3070 C3068 1.327 . S
C3070 C3089 1.429 . S
C3070 H3094 0.950 . S
C3071 C3088 1.574 . S
C3071 C3090 1.368 . S
C3071 H3095 0.949 . S
H3072 C3076 0.949 . S
C3073 C3074 1.349 . S
C3073 C3075 1.327 . S
C3073 H3096 0.950 . S
C3074 C3073 1.349 . S
C3074 C3086 1.349 . S
C3075 C3073 1.327 . S
C3075 C3091 1.429 . S
C3075 H3097 0.950 . S
C3076 H3072 0.949 . S
C3076 C3084 1.574 . S
C3076 C3092 1.368 . S
H3077 C3085 0.950 . S
H3078 C3083 0.950 . S
H3079 C3084 0.949 . S
H3080 C3086 0.950 . S
H3081 C3087 0.950 . S
H3082 C3088 0.949 . S
C3083 H3078 0.950 . S
C3083 C3085 1.327 . S
C3083 C3089 1.429 . S
C3084 C3076 1.574 . S
C3084 H3079 0.949 . S
C3084 C3090 1.368 . S
C3085 C3069 1.349 . S
C3085 H3077 0.950 . S
C3085 C3083 1.327 . S
C3086 C3074 1.349 . S
C3086 H3080 0.950 . S
C3086 C3087 1.327 . S
C3087 H3081 0.950 . S
C3087 C3086 1.327 . S
C3087 C3091 1.429 . S
C3088 C3071 1.574 . S
C3088 H3082 0.949 . S
C3088 C3092 1.368 . S
C3089 C3070 1.429 . S
C3089 C3083 1.429 . S
C3089 C3090 1.523 . S
C3090 C3071 1.368 . S
C3090 C3084 1.368 . S
C3090 C3089 1.523 . S
C3091 C3075 1.429 . S
C3091 C3087 1.429 . S
C3091 C3092 1.523 . S
C3092 C3076 1.368 . S
C3092 C3088 1.368 . S
C3092 C3091 1.523 . S
H3093 C3068 0.950 . S
H3094 C3070 0.950 . S
H3095 C3071 0.949 . S
H3096 C3073 0.950 . S
H3097 C3075 0.950 . S
C3098 C3099 1.349 . S
C3098 C3100 1.327 . S
C3098 H3123 0.950 . S
C3099 C3098 1.349 . S
C3099 C3115 1.349 . S
C3100 C3098 1.327 . S
C3100 C3119 1.429 . S
C3100 H3124 0.950 . S
C3101 C3118 1.574 . S
C3101 C3120 1.368 . S
C3101 H3125 0.949 . S
H3102 C3106 0.949 . S
C3103 C3104 1.349 . S
C3103 C3105 1.327 . S
C3103 H3126 0.950 . S
C3104 C3103 1.349 . S
C3104 C3116 1.349 . S
C3105 C3103 1.327 . S
C3105 C3121 1.429 . S
C3105 H3127 0.950 . S
C3106 H3102 0.949 . S
C3106 C3114 1.574 . S
C3106 C3122 1.368 . S
H3107 C3115 0.950 . S
H3108 C3113 0.950 . S
H3109 C3114 0.949 . S
H3110 C3116 0.950 . S
H3111 C3117 0.950 . S
H3112 C3118 0.949 . S
C3113 H3108 0.950 . S
C3113 C3115 1.327 . S
C3113 C3119 1.429 . S
C3114 C3106 1.574 . S
C3114 H3109 0.949 . S
C3114 C3120 1.368 . S
C3115 C3099 1.349 . S
C3115 H3107 0.950 . S
C3115 C3113 1.327 . S
C3116 C3104 1.349 . S
C3116 H3110 0.950 . S
C3116 C3117 1.327 . S
C3117 H3111 0.950 . S
C3117 C3116 1.327 . S
C3117 C3121 1.429 . S
C3118 C3101 1.574 . S
C3118 H3112 0.949 . S
C3118 C3122 1.368 . S
C3119 C3100 1.429 . S
C3119 C3113 1.429 . S
C3119 C3120 1.523 . S
C3120 C3101 1.368 . S
C3120 C3114 1.368 . S
C3120 C3119 1.523 . S
C3121 C3105 1.429 . S
C3121 C3117 1.429 . S
C3121 C3122 1.523 . S
C3122 C3106 1.368 . S
C3122 C3118 1.368 . S
C3122 C3121 1.523 . S
H3123 C3098 0.950 . S
H3124 C3100 0.950 . S
H3125 C3101 0.949 . S
H3126 C3103 0.950 . S
H3127 C3105 0.950 . S
C3128 C3129 1.349 . S
C3128 C3130 1.327 . S
C3128 H3153 0.950 . S
C3129 C3128 1.349 . S
C3129 C3145 1.349 . S
C3130 C3128 1.327 . S
C3130 C3149 1.429 . S
C3130 H3154 0.950 . S
C3131 C3148 1.574 . S
C3131 C3150 1.368 . S
C3131 H3155 0.949 . S
H3132 C3136 0.949 . S
C3133 C3134 1.349 . S
C3133 C3135 1.327 . S
C3133 H3156 0.950 . S
C3134 C3133 1.349 . S
C3134 C3146 1.349 . S
C3135 C3133 1.327 . S
C3135 C3151 1.429 . S
C3135 H3157 0.950 . S
C3136 H3132 0.949 . S
C3136 C3144 1.574 . S
C3136 C3152 1.368 . S
H3137 C3145 0.950 . S
H3138 C3143 0.950 . S
H3139 C3144 0.949 . S
H3140 C3146 0.950 . S
H3141 C3147 0.950 . S
H3142 C3148 0.949 . S
C3143 H3138 0.950 . S
C3143 C3145 1.327 . S
C3143 C3149 1.429 . S
C3144 C3136 1.574 . S
C3144 H3139 0.949 . S
C3144 C3150 1.368 . S
C3145 C3129 1.349 . S
C3145 H3137 0.950 . S
C3145 C3143 1.327 . S
C3146 C3134 1.349 . S
C3146 H3140 0.950 . S
C3146 C3147 1.327 . S
C3147 H3141 0.950 . S
C3147 C3146 1.327 . S
C3147 C3151 1.429 . S
C3148 C3131 1.574 . S
C3148 H3142 0.949 . S
C3148 C3152 1.368 . S
C3149 C3130 1.429 . S
C3149 C3143 1.429 . S
C3149 C3150 1.523 . S
C3150 C3131 1.368 . S
C3150 C3144 1.368 . S
C3150 C3149 1.523 . S
C3151 C3135 1.429 . S
C3151 C3147 1.429 . S
C3151 C3152 1.523 . S
C3152 C3136 1.368 . S
C3152 C3148 1.368 . S
C3152 C3151 1.523 . S
H3153 C3128 0.950 . S
H3154 C3130 0.950 . S
H3155 C3131 0.949 . S
H3156 C3133 0.950 . S
H3157 C3135 0.950 . S
C3158 C3159 1.349 . S
C3158 C3160 1.327 . S
C3158 H3183 0.950 . S
C3159 C3158 1.349 . S
C3159 C3175 1.349 . S
C3160 C3158 1.327 . S
C3160 C3179 1.429 . S
C3160 H3184 0.950 . S
C3161 C3178 1.574 . S
C3161 C3180 1.368 . S
C3161 H3185 0.949 . S
H3162 C3166 0.949 . S
C3163 C3164 1.349 . S
C3163 C3165 1.327 . S
C3163 H3186 0.950 . S
C3164 C3163 1.349 . S
C3164 C3176 1.349 . S
C3165 C3163 1.327 . S
C3165 C3181 1.429 . S
C3165 H3187 0.950 . S
C3166 H3162 0.949 . S
C3166 C3174 1.574 . S
C3166 C3182 1.368 . S
H3167 C3175 0.950 . S
H3168 C3173 0.950 . S
H3169 C3174 0.949 . S
H3170 C3176 0.950 . S
H3171 C3177 0.950 . S
H3172 C3178 0.949 . S
C3173 H3168 0.950 . S
C3173 C3175 1.327 . S
C3173 C3179 1.429 . S
C3174 C3166 1.574 . S
C3174 H3169 0.949 . S
C3174 C3180 1.368 . S
C3175 C3159 1.349 . S
C3175 H3167 0.950 . S
C3175 C3173 1.327 . S
C3176 C3164 1.349 . S
C3176 H3170 0.950 . S
C3176 C3177 1.327 . S
C3177 H3171 0.950 . S
C3177 C3176 1.327 . S
C3177 C3181 1.429 . S
C3178 C3161 1.574 . S
C3178 H3172 0.949 . S
C3178 C3182 1.368 . S
C3179 C3160 1.429 . S
C3179 C3173 1.429 . S
C3179 C3180 1.523 . S
C3180 C3161 1.368 . S
C3180 C3174 1.368 . S
C3180 C3179 1.523 . S
C3181 C3165 1.429 . S
C3181 C3177 1.429 . S
C3181 C3182 1.523 . S
C3182 C3166 1.368 . S
C3182 C3178 1.368 . S
C3182 C3181 1.523 . S
H3183 C3158 0.950 . S
H3184 C3160 0.950 . S
H3185 C3161 0.949 . S
H3186 C3163 0.950 . S
H3187 C3165 0.950 . S
C3188 C3189 1.349 . S
C3188 C3190 1.327 . S
C3188 H3213 0.950 . S
C3189 C3188 1.349 . S
C3189 C3205 1.349 . S
C3190 C3188 1.327 . S
C3190 C3209 1.429 . S
C3190 H3214 0.950 . S
C3191 C3208 1.574 . S
C3191 C3210 1.368 . S
C3191 H3215 0.949 . S
H3192 C3196 0.949 . S
C3193 C3194 1.349 . S
C3193 C3195 1.327 . S
C3193 H3216 0.950 . S
C3194 C3193 1.349 . S
C3194 C3206 1.349 . S
C3195 C3193 1.327 . S
C3195 C3211 1.429 . S
C3195 H3217 0.950 . S
C3196 H3192 0.949 . S
C3196 C3204 1.574 . S
C3196 C3212 1.368 . S
H3197 C3205 0.950 . S
H3198 C3203 0.950 . S
H3199 C3204 0.949 . S
H3200 C3206 0.950 . S
H3201 C3207 0.950 . S
H3202 C3208 0.949 . S
C3203 H3198 0.950 . S
C3203 C3205 1.327 . S
C3203 C3209 1.429 . S
C3204 C3196 1.574 . S
C3204 H3199 0.949 . S
C3204 C3210 1.368 . S
C3205 C3189 1.349 . S
C3205 H3197 0.950 . S
C3205 C3203 1.327 . S
C3206 C3194 1.349 . S
C3206 H3200 0.950 . S
C3206 C3207 1.327 . S
C3207 H3201 0.950 . S
C3207 C3206 1.327 . S
C3207 C3211 1.429 . S
C3208 C3191 1.574 . S
C3208 H3202 0.949 . S
C3208 C3212 1.368 . S
C3209 C3190 1.429 . S
C3209 C3203 1.429 . S
C3209 C3210 1.523 . S
C3210 C3191 1.368 . S
C3210 C3204 1.368 . S
C3210 C3209 1.523 . S
C3211 C3195 1.429 . S
C3211 C3207 1.429 . S
C3211 C3212 1.523 . S
C3212 C3196 1.368 . S
C3212 C3208 1.368 . S
C3212 C3211 1.523 . S
H3213 C3188 0.950 . S
H3214 C3190 0.950 . S
H3215 C3191 0.949 . S
H3216 C3193 0.950 . S
H3217 C3195 0.950 . S
C3218 C3219 1.349 . S
C3218 C3220 1.327 . S
C3218 H3243 0.950 . S
C3219 C3218 1.349 . S
C3219 C3235 1.349 . S
C3220 C3218 1.327 . S
C3220 C3239 1.429 . S
C3220 H3244 0.950 . S
C3221 C3238 1.574 . S
C3221 C3240 1.368 . S
C3221 H3245 0.949 . S
H3222 C3226 0.949 . S
C3223 C3224 1.349 . S
C3223 C3225 1.327 . S
C3223 H3246 0.950 . S
C3224 C3223 1.349 . S
C3224 C3236 1.349 . S
C3225 C3223 1.327 . S
C3225 C3241 1.429 . S
C3225 H3247 0.950 . S
C3226 H3222 0.949 . S
C3226 C3234 1.574 . S
C3226 C3242 1.368 . S
H3227 C3235 0.950 . S
H3228 C3233 0.950 . S
H3229 C3234 0.949 . S
H3230 C3236 0.950 . S
H3231 C3237 0.950 . S
H3232 C3238 0.949 . S
C3233 H3228 0.950 . S
C3233 C3235 1.327 . S
C3233 C3239 1.429 . S
C3234 C3226 1.574 . S
C3234 H3229 0.949 . S
C3234 C3240 1.368 . S
C3235 C3219 1.349 . S
C3235 H3227 0.950 . S
C3235 C3233 1.327 . S
C3236 C3224 1.349 . S
C3236 H3230 0.950 . S
C3236 C3237 1.327 . S
C3237 H3231 0.950 . S
C3237 C3236 1.327 . S
C3237 C3241 1.429 . S
C3238 C3221 1.574 . S
C3238 H3232 0.949 . S
C3238 C3242 1.368 . S
C3239 C3220 1.429 . S
C3239 C3233 1.429 . S
C3239 C3240 1.523 . S
C3240 C3221 1.368 . S
C3240 C3234 1.368 . S
C3240 C3239 1.523 . S
C3241 C3225 1.429 . S
C3241 C3237 1.429 . S
C3241 C3242 1.523 . S
C3242 C3226 1.368 . S
C3242 C3238 1.368 . S
C3242 C3241 1.523 . S
H3243 C3218 0.950 . S
H3244 C3220 0.950 . S
H3245 C3221 0.949 . S
H3246 C3223 0.950 . S
H3247 C3225 0.950 . S
C3248 C3249 1.349 . S
C3248 C3250 1.327 . S
C3248 H3273 0.950 . S
C3249 C3248 1.349 . S
C3249 C3265 1.349 . S
C3250 C3248 1.327 . S
C3250 C3269 1.429 . S
C3250 H3274 0.950 . S
C3251 C3268 1.574 . S
C3251 C3270 1.368 . S
C3251 H3275 0.949 . S
H3252 C3256 0.949 . S
C3253 C3254 1.349 . S
C3253 C3255 1.327 . S
C3253 H3276 0.950 . S
C3254 C3253 1.349 . S
C3254 C3266 1.349 . S
C3255 C3253 1.327 . S
C3255 C3271 1.429 . S
C3255 H3277 0.950 . S
C3256 H3252 0.949 . S
C3256 C3264 1.574 . S
C3256 C3272 1.368 . S
H3257 C3265 0.950 . S
H3258 C3263 0.950 . S
H3259 C3264 0.949 . S
H3260 C3266 0.950 . S
H3261 C3267 0.950 . S
H3262 C3268 0.949 . S
C3263 H3258 0.950 . S
C3263 C3265 1.327 . S
C3263 C3269 1.429 . S
C3264 C3256 1.574 . S
C3264 H3259 0.949 . S
C3264 C3270 1.368 . S
C3265 C3249 1.349 . S
C3265 H3257 0.950 . S
C3265 C3263 1.327 . S
C3266 C3254 1.349 . S
C3266 H3260 0.950 . S
C3266 C3267 1.327 . S
C3267 H3261 0.950 . S
C3267 C3266 1.327 . S
C3267 C3271 1.429 . S
C3268 C3251 1.574 . S
C3268 H3262 0.949 . S
C3268 C3272 1.368 . S
C3269 C3250 1.429 . S
C3269 C3263 1.429 . S
C3269 C3270 1.523 . S
C3270 C3251 1.368 . S
C3270 C3264 1.368 . S
C3270 C3269 1.523 . S
C3271 C3255 1.429 . S
C3271 C3267 1.429 . S
C3271 C3272 1.523 . S
C3272 C3256 1.368 . S
C3272 C3268 1.368 . S
C3272 C3271 1.523 . S
H3273 C3248 0.950 . S
H3274 C3250 0.950 . S
H3275 C3251 0.949 . S
H3276 C3253 0.950 . S
H3277 C3255 0.950 . S
C3278 C3279 1.349 . S
C3278 C3280 1.327 . S
C3278 H3303 0.950 . S
C3279 C3278 1.349 . S
C3279 C3295 1.349 . S
C3280 C3278 1.327 . S
C3280 C3299 1.429 . S
C3280 H3304 0.950 . S
C3281 C3298 1.574 . S
C3281 C3300 1.368 . S
C3281 H3305 0.949 . S
H3282 C3286 0.949 . S
C3283 C3284 1.349 . S
C3283 C3285 1.327 . S
C3283 H3306 0.950 . S
C3284 C3283 1.349 . S
C3284 C3296 1.349 . S
C3285 C3283 1.327 . S
C3285 C3301 1.429 . S
C3285 H3307 0.950 . S
C3286 H3282 0.949 . S
C3286 C3294 1.574 . S
C3286 C3302 1.368 . S
H3287 C3295 0.950 . S
H3288 C3293 0.950 . S
H3289 C3294 0.949 . S
H3290 C3296 0.950 . S
H3291 C3297 0.950 . S
H3292 C3298 0.949 . S
C3293 H3288 0.950 . S
C3293 C3295 1.327 . S
C3293 C3299 1.429 . S
C3294 C3286 1.574 . S
C3294 H3289 0.949 . S
C3294 C3300 1.368 . S
C3295 C3279 1.349 . S
C3295 H3287 0.950 . S
C3295 C3293 1.327 . S
C3296 C3284 1.349 . S
C3296 H3290 0.950 . S
C3296 C3297 1.327 . S
C3297 H3291 0.950 . S
C3297 C3296 1.327 . S
C3297 C3301 1.429 . S
C3298 C3281 1.574 . S
C3298 H3292 0.949 . S
C3298 C3302 1.368 . S
C3299 C3280 1.429 . S
C3299 C3293 1.429 . S
C3299 C3300 1.523 . S
C3300 C3281 1.368 . S
C3300 C3294 1.368 . S
C3300 C3299 1.523 . S
C3301 C3285 1.429 . S
C3301 C3297 1.429 . S
C3301 C3302 1.523 . S
C3302 C3286 1.368 . S
C3302 C3298 1.368 . S
C3302 C3301 1.523 . S
H3303 C3278 0.950 . S
H3304 C3280 0.950 . S
H3305 C3281 0.949 . S
H3306 C3283 0.950 . S
H3307 C3285 0.950 . S
C3308 C3309 1.349 . S
C3308 C3310 1.327 . S
C3308 H3333 0.950 . S
C3309 C3308 1.349 . S
C3309 C3325 1.349 . S
C3310 C3308 1.327 . S
C3310 C3329 1.429 . S
C3310 H3334 0.950 . S
C3311 C3328 1.574 . S
C3311 C3330 1.368 . S
C3311 H3335 0.949 . S
H3312 C3316 0.949 . S
C3313 C3314 1.349 . S
C3313 C3315 1.327 . S
C3313 H3336 0.950 . S
C3314 C3313 1.349 . S
C3314 C3326 1.349 . S
C3315 C3313 1.327 . S
C3315 C3331 1.429 . S
C3315 H3337 0.950 . S
C3316 H3312 0.949 . S
C3316 C3324 1.574 . S
C3316 C3332 1.368 . S
H3317 C3325 0.950 . S
H3318 C3323 0.950 . S
H3319 C3324 0.949 . S
H3320 C3326 0.950 . S
H3321 C3327 0.950 . S
H3322 C3328 0.949 . S
C3323 H3318 0.950 . S
C3323 C3325 1.327 . S
C3323 C3329 1.429 . S
C3324 C3316 1.574 . S
C3324 H3319 0.949 . S
C3324 C3330 1.368 . S
C3325 C3309 1.349 . S
C3325 H3317 0.950 . S
C3325 C3323 1.327 . S
C3326 C3314 1.349 . S
C3326 H3320 0.950 . S
C3326 C3327 1.327 . S
C3327 H3321 0.950 . S
C3327 C3326 1.327 . S
C3327 C3331 1.429 . S
C3328 C3311 1.574 . S
C3328 H3322 0.949 . S
C3328 C3332 1.368 . S
C3329 C3310 1.429 . S
C3329 C3323 1.429 . S
C3329 C3330 1.523 . S
C3330 C3311 1.368 . S
C3330 C3324 1.368 . S
C3330 C3329 1.523 . S
C3331 C3315 1.429 . S
C3331 C3327 1.429 . S
C3331 C3332 1.523 . S
C3332 C3316 1.368 . S
C3332 C3328 1.368 . S
C3332 C3331 1.523 . S
H3333 C3308 0.950 . S
H3334 C3310 0.950 . S
H3335 C3311 0.949 . S
H3336 C3313 0.950 . S
H3337 C3315 0.950 . S
C3338 C3339 1.349 . S
C3338 C3340 1.327 . S
C3338 H3363 0.950 . S
C3339 C3338 1.349 . S
C3339 C3355 1.349 . S
C3340 C3338 1.327 . S
C3340 C3359 1.429 . S
C3340 H3364 0.950 . S
C3341 C3358 1.574 . S
C3341 C3360 1.368 . S
C3341 H3365 0.949 . S
H3342 C3346 0.949 . S
C3343 C3344 1.349 . S
C3343 C3345 1.327 . S
C3343 H3366 0.950 . S
C3344 C3343 1.349 . S
C3344 C3356 1.349 . S
C3345 C3343 1.327 . S
C3345 C3361 1.429 . S
C3345 H3367 0.950 . S
C3346 H3342 0.949 . S
C3346 C3354 1.574 . S
C3346 C3362 1.368 . S
H3347 C3355 0.950 . S
H3348 C3353 0.950 . S
H3349 C3354 0.949 . S
H3350 C3356 0.950 . S
H3351 C3357 0.950 . S
H3352 C3358 0.949 . S
C3353 H3348 0.950 . S
C3353 C3355 1.327 . S
C3353 C3359 1.429 . S
C3354 C3346 1.574 . S
C3354 H3349 0.949 . S
C3354 C3360 1.368 . S
C3355 C3339 1.349 . S
C3355 H3347 0.950 . S
C3355 C3353 1.327 . S
C3356 C3344 1.349 . S
C3356 H3350 0.950 . S
C3356 C3357 1.327 . S
C3357 H3351 0.950 . S
C3357 C3356 1.327 . S
C3357 C3361 1.429 . S
C3358 C3341 1.574 . S
C3358 H3352 0.949 . S
C3358 C3362 1.368 . S
C3359 C3340 1.429 . S
C3359 C3353 1.429 . S
C3359 C3360 1.523 . S
C3360 C3341 1.368 . S
C3360 C3354 1.368 . S
C3360 C3359 1.523 . S
C3361 C3345 1.429 . S
C3361 C3357 1.429 . S
C3361 C3362 1.523 . S
C3362 C3346 1.368 . S
C3362 C3358 1.368 . S
C3362 C3361 1.523 . S
H3363 C3338 0.950 . S
H3364 C3340 0.950 . S
H3365 C3341 0.949 . S
H3366 C3343 0.950 . S
H3367 C3345 0.950 . S
C3368 C3369 1.349 . S
C3368 C3370 1.327 . S
C3368 H3393 0.950 . S
C3369 C3368 1.349 . S
C3369 C3385 1.349 . S
C3370 C3368 1.327 . S
C3370 C3389 1.429 . S
C3370 H3394 0.950 . S
C3371 C3388 1.574 . S
C3371 C3390 1.368 . S
C3371 H3395 0.949 . S
H3372 C3376 0.949 . S
C3373 C3374 1.349 . S
C3373 C3375 1.327 . S
C3373 H3396 0.950 . S
C3374 C3373 1.349 . S
C3374 C3386 1.349 . S
C3375 C3373 1.327 . S
C3375 C3391 1.429 . S
C3375 H3397 0.950 . S
C3376 H3372 0.949 . S
C3376 C3384 1.574 . S
C3376 C3392 1.368 . S
H3377 C3385 0.950 . S
H3378 C3383 0.950 . S
H3379 C3384 0.949 . S
H3380 C3386 0.950 . S
H3381 C3387 0.950 . S
H3382 C3388 0.949 . S
C3383 H3378 0.950 . S
C3383 C3385 1.327 . S
C3383 C3389 1.429 . S
C3384 C3376 1.574 . S
C3384 H3379 0.949 . S
C3384 C3390 1.368 . S
C3385 C3369 1.349 . S
C3385 H3377 0.950 . S
C3385 C3383 1.327 . S
C3386 C3374 1.349 . S
C3386 H3380 0.950 . S
C3386 C3387 1.327 . S
C3387 H3381 0.950 . S
C3387 C3386 1.327 . S
C3387 C3391 1.429 . S
C3388 C3371 1.574 . S
C3388 H3382 0.949 . S
C3388 C3392 1.368 . S
C3389 C3370 1.429 . S
C3389 C3383 1.429 . S
C3389 C3390 1.523 . S
C3390 C3371 1.368 . S
C3390 C3384 1.368 . S
C3390 C3389 1.523 . S
C3391 C3375 1.429 . S
C3391 C3387 1.429 . S
C3391 C3392 1.523 . S
C3392 C3376 1.368 . S
C3392 C3388 1.368 . S
C3392 C3391 1.523 . S
H3393 C3368 0.950 . S
H3394 C3370 0.950 . S
H3395 C3371 0.949 . S
H3396 C3373 0.950 . S
H3397 C3375 0.950 . S
C3398 C3399 1.349 . S
C3398 C3400 1.327 . S
C3398 H3423 0.950 . S
C3399 C3398 1.349 . S
C3399 C3415 1.349 . S
C3400 C3398 1.327 . S
C3400 C3419 1.429 . S
C3400 H3424 0.950 . S
C3401 C3418 1.574 . S
C3401 C3420 1.368 . S
C3401 H3425 0.949 . S
H3402 C3406 0.949 . S
C3403 C3404 1.349 . S
C3403 C3405 1.327 . S
C3403 H3426 0.950 . S
C3404 C3403 1.349 . S
C3404 C3416 1.349 . S
C3405 C3403 1.327 . S
C3405 C3421 1.429 . S
C3405 H3427 0.950 . S
C3406 H3402 0.949 . S
C3406 C3414 1.574 . S
C3406 C3422 1.368 . S
H3407 C3415 0.950 . S
H3408 C3413 0.950 . S
H3409 C3414 0.949 . S
H3410 C3416 0.950 . S
H3411 C3417 0.950 . S
H3412 C3418 0.949 . S
C3413 H3408 0.950 . S
C3413 C3415 1.327 . S
C3413 C3419 1.429 . S
C3414 C3406 1.574 . S
C3414 H3409 0.949 . S
C3414 C3420 1.368 . S
C3415 C3399 1.349 . S
C3415 H3407 0.950 . S
C3415 C3413 1.327 . S
C3416 C3404 1.349 . S
C3416 H3410 0.950 . S
C3416 C3417 1.327 . S
C3417 H3411 0.950 . S
C3417 C3416 1.327 . S
C3417 C3421 1.429 . S
C3418 C3401 1.574 . S
C3418 H3412 0.949 . S
C3418 C3422 1.368 . S
C3419 C3400 1.429 . S
C3419 C3413 1.429 . S
C3419 C3420 1.523 . S
C3420 C3401 1.368 . S
C3420 C3414 1.368 . S
C3420 C3419 1.523 . S
C3421 C3405 1.429 . S
C3421 C3417 1.429 . S
C3421 C3422 1.523 . S
C3422 C3406 1.368 . S
C3422 C3418 1.368 . S
C3422 C3421 1.523 . S
H3423 C3398 0.950 . S
H3424 C3400 0.950 . S
H3425 C3401 0.949 . S
H3426 C3403 0.950 . S
H3427 C3405 0.950 . S
C3428 C3429 1.349 . S
C3428 C3430 1.327 . S
C3428 H3453 0.950 . S
C3429 C3428 1.349 . S
C3429 C3445 1.349 . S
C3430 C3428 1.327 . S
C3430 C3449 1.429 . S
C3430 H3454 0.950 . S
C3431 C3448 1.574 . S
C3431 C3450 1.368 . S
C3431 H3455 0.949 . S
H3432 C3436 0.949 . S
C3433 C3434 1.349 . S
C3433 C3435 1.327 . S
C3433 H3456 0.950 . S
C3434 C3433 1.349 . S
C3434 C3446 1.349 . S
C3435 C3433 1.327 . S
C3435 C3451 1.429 . S
C3435 H3457 0.950 . S
C3436 H3432 0.949 . S
C3436 C3444 1.574 . S
C3436 C3452 1.368 . S
H3437 C3445 0.950 . S
H3438 C3443 0.950 . S
H3439 C3444 0.949 . S
H3440 C3446 0.950 . S
H3441 C3447 0.950 . S
H3442 C3448 0.949 . S
C3443 H3438 0.950 . S
C3443 C3445 1.327 . S
C3443 C3449 1.429 . S
C3444 C3436 1.574 . S
C3444 H3439 0.949 . S
C3444 C3450 1.368 . S
C3445 C3429 1.349 . S
C3445 H3437 0.950 . S
C3445 C3443 1.327 . S
C3446 C3434 1.349 . S
C3446 H3440 0.950 . S
C3446 C3447 1.327 . S
C3447 H3441 0.950 . S
C3447 C3446 1.327 . S
C3447 C3451 1.429 . S
C3448 C3431 1.574 . S
C3448 H3442 0.949 . S
C3448 C3452 1.368 . S
C3449 C3430 1.429 . S
C3449 C3443 1.429 . S
C3449 C3450 1.523 . S
C3450 C3431 1.368 . S
C3450 C3444 1.368 . S
C3450 C3449 1.523 . S
C3451 C3435 1.429 . S
C3451 C3447 1.429 . S
C3451 C3452 1.523 . S
C3452 C3436 1.368 . S
C3452 C3448 1.368 . S
C3452 C3451 1.523 . S
H3453 C3428 0.950 . S
H3454 C3430 0.950 . S
H3455 C3431 0.949 . S
H3456 C3433 0.950 . S
H3457 C3435 0.950 . S
C3458 C3459 1.349 . S
C3458 C3460 1.327 . S
C3458 H3483 0.950 . S
C3459 C3458 1.349 . S
C3459 C3475 1.349 . S
C3460 C3458 1.327 . S
C3460 C3479 1.429 . S
C3460 H3484 0.950 . S
C3461 C3478 1.574 . S
C3461 C3480 1.368 . S
C3461 H3485 0.949 . S
H3462 C3466 0.949 . S
C3463 C3464 1.349 . S
C3463 C3465 1.327 . S
C3463 H3486 0.950 . S
C3464 C3463 1.349 . S
C3464 C3476 1.349 . S
C3465 C3463 1.327 . S
C3465 C3481 1.429 . S
C3465 H3487 0.950 . S
C3466 H3462 0.949 . S
C3466 C3474 1.574 . S
C3466 C3482 1.368 . S
H3467 C3475 0.950 . S
H3468 C3473 0.950 . S
H3469 C3474 0.949 . S
H3470 C3476 0.950 . S
H3471 C3477 0.950 . S
H3472 C3478 0.949 . S
C3473 H3468 0.950 . S
C3473 C3475 1.327 . S
C3473 C3479 1.429 . S
C3474 C3466 1.574 . S
C3474 H3469 0.949 . S
C3474 C3480 1.368 . S
C3475 C3459 1.349 . S
C3475 H3467 0.950 . S
C3475 C3473 1.327 . S
C3476 C3464 1.349 . S
C3476 H3470 0.950 . S
C3476 C3477 1.327 . S
C3477 H3471 0.950 . S
C3477 C3476 1.327 . S
C3477 C3481 1.429 . S
C3478 C3461 1.574 . S
C3478 H3472 0.949 . S
C3478 C3482 1.368 . S
C3479 C3460 1.429 . S
C3479 C3473 1.429 . S
C3479 C3480 1.523 . S
C3480 C3461 1.368 . S
C3480 C3474 1.368 . S
C3480 C3479 1.523 . S
C3481 C3465 1.429 . S
C3481 C3477 1.429 . S
C3481 C3482 1.523 . S
C3482 C3466 1.368 . S
C3482 C3478 1.368 . S
C3482 C3481 1.523 . S
H3483 C3458 0.950 . S
H3484 C3460 0.950 . S
H3485 C3461 0.949 . S
H3486 C3463 0.950 . S
H3487 C3465 0.950 . S
C1089 C9 0.514 . S
C1094 C349 0.514 . S
C1119 C383 0.514 . S
C1124 C43 0.514 . S
C1149 C281 0.514 . S
C1154 C77 0.514 . S
C1179 C111 0.514 . S
C1184 C315 0.514 . S
C1209 C145 0.514 . S
C1214 C485 0.514 . S
C1239 C179 0.514 . S
C1244 C519 0.514 . S
C1269 C417 0.514 . S
C1274 C213 0.514 . S
C1299 C451 0.514 . S
C1304 C247 0.514 . S
C1329 C893 0.514 . S
C1334 C553 0.514 . S
C1359 C927 0.514 . S
C1364 C587 0.514 . S
C1389 C621 0.514 . S
C1394 C825 0.514 . S
C1419 C859 0.514 . S
C1424 C655 0.514 . S
C1449 C689 0.514 . S
C1454 C1029 0.514 . S
C1479 C1063 0.514 . S
C1484 C723 0.514 . S
C1509 C757 0.514 . S
C1514 C961 0.514 . S
C1539 C791 0.514 . S
C1544 C995 0.514 . S
C1569 C2 1.821 . S
C1574 C852 1.821 . S
C1599 C36 1.821 . S
C1604 C818 1.821 . S
C1629 C70 1.821 . S
C1634 C920 1.821 . S
C1659 C104 1.821 . S
C1664 C886 1.821 . S
C1689 C138 1.821 . S
C1694 C988 1.821 . S
C1719 C172 1.821 . S
C1724 C954 1.821 . S
C1749 C1056 1.821 . S
C1754 C206 1.821 . S
C1779 C240 1.821 . S
C1784 C1022 1.821 . S
C1809 C580 1.821 . S
C1814 C274 1.821 . S
C1839 C308 1.821 . S
C1844 C546 1.821 . S
C1869 C342 1.821 . S
C1874 C648 1.821 . S
C1899 C614 1.821 . S
C1904 C376 1.821 . S
C1929 C716 1.821 . S
C1934 C410 1.821 . S
C1959 C682 1.821 . S
C1964 C444 1.821 . S
C1989 C478 1.821 . S
C1994 C784 1.821 . S
C2019 C750 1.821 . S
C2024 C512 1.821 . S
C2049 C73 0.426 . S
C2054 C5 0.426 . S
C2079 C39 0.426 . S
C2084 C107 0.426 . S
C2109 C209 0.426 . S
C2114 C141 0.426 . S
C2139 C175 0.426 . S
C2144 C243 0.426 . S
C2169 C277 0.426 . S
C2174 C345 0.426 . S
C2199 C311 0.426 . S
C2204 C379 0.426 . S
C2229 C481 0.426 . S
C2234 C413 0.426 . S
C2259 C515 0.426 . S
C2264 C447 0.426 . S
C2289 C617 0.426 . S
C2294 C549 0.426 . S
C2319 C583 0.426 . S
C2324 C651 0.426 . S
C2349 C685 0.426 . S
C2354 C753 0.426 . S
C2379 C719 0.426 . S
C2384 C787 0.426 . S
C2409 C889 0.426 . S
C2414 C821 0.426 . S
C2439 C855 0.426 . S
C2444 C923 0.426 . S
C2469 C957 0.426 . S
C2474 C1025 0.426 . S
C2499 C1059 0.426 . S
C2504 C991 0.426 . S
C2529 C781 2.507 . S
C2534 C20 2.493 . S
C2559 C543 2.507 . S
C2564 C54 2.493 . S
C2589 C88 2.493 . S
C2594 C985 2.507 . S
C2619 C203 2.507 . S
C2624 C122 2.493 . S
C2649 C156 2.493 . S
C2654 C645 2.507 . S
C2679 C190 2.493 . S
C2684 C407 2.507 . S
C2709 C849 2.507 . S
C2714 C224 2.493 . S
C2739 C258 2.493 . S
C2744 C67 2.507 . S
C2769 C292 2.493 . S
C2774 C1053 2.507 . S
C2799 C271 2.507 . S
C2804 C326 2.493 . S
C2829 C360 2.493 . S
C2834 C713 2.507 . S
C2859 C394 2.493 . S
C2864 C475 2.507 . S
C2889 C917 2.507 . S
C2894 C428 2.493 . S
C2919 C462 2.493 . S
C2924 C135 2.507 . S
C2949 C577 2.507 . S
C2954 C496 2.493 . S
C2979 C339 2.507 . S
C2984 C530 2.493 . S
C3009 C237 2.507 . S
C3014 C564 2.493 . S
C3039 C598 2.493 . S
C3044 C1087 2.507 . S
C3069 C632 2.493 . S
C3074 C441 2.507 . S
C3099 C666 2.493 . S
C3104 C747 2.507 . S
C3129 C700 2.493 . S
C3134 C101 2.507 . S
C3159 C734 2.493 . S
C3164 C951 2.507 . S
C3189 C305 2.507 . S
C3194 C768 2.493 . S
C3219 C611 2.507 . S
C3224 C802 2.493 . S
C3249 C509 2.507 . S
C3254 C836 2.493 . S
C3279 C870 2.493 . S
C3284 C815 2.507 . S
C3309 C169 2.507 . S
C3314 C904 2.493 . S
C3339 C1019 2.507 . S
C3344 C938 2.493 . S
C3369 C972 2.493 . S
C3374 C373 2.507 . S
C3399 C1006 2.493 . S
C3404 C679 2.507 . S
C3429 C33 2.507 . S
C3434 C1040 2.493 . S
C3459 C1074 2.493 . S
C3464 C883 2.507 . S
