# Generated by pormake.
# Topology crr, (4)-cn, num edge types: 1
# Building blocks:
#     Node 0, Type 0, BuildingBlock: NAWXER_clean_sbu_0, # of connection points: 4
#     Node 1, Type 0, BuildingBlock: NAWXER_clean_sbu_0, # of connection points: 4
#     Node 2, Type 0, BuildingBlock: NAWXER_clean_sbu_0, # of connection points: 4
#     Node 3, Type 0, BuildingBlock: NAWXER_clean_sbu_0, # of connection points: 4
#     Node 4, Type 0, BuildingBlock: NAWXER_clean_sbu_0, # of connection points: 4
#     Node 5, Type 0, BuildingBlock: NAWXER_clean_sbu_0, # of connection points: 4
#     Node 6, Type 0, BuildingBlock: NAWXER_clean_sbu_0, # of connection points: 4
#     Node 7, Type 0, BuildingBlock: NAWXER_clean_sbu_0, # of connection points: 4
#     Node 8, Type 0, BuildingBlock: NAWXER_clean_sbu_0, # of connection points: 4
#     Node 9, Type 0, BuildingBlock: NAWXER_clean_sbu_0, # of connection points: 4
#     Node 10, Type 0, BuildingBlock: NAWXER_clean_sbu_0, # of connection points: 4
#     Node 11, Type 0, BuildingBlock: NAWXER_clean_sbu_0, # of connection points: 4
#     Edge 12, Type (0, 0), BuildingBlock: XIVTED_clean_linker_0, # of connection points: 2
#     Edge 13, Type (0, 0), BuildingBlock: XIVTED_clean_linker_0, # of connection points: 2
#     Edge 14, Type (0, 0), BuildingBlock: XIVTED_clean_linker_0, # of connection points: 2
#     Edge 15, Type (0, 0), BuildingBlock: XIVTED_clean_linker_0, # of connection points: 2
#     Edge 16, Type (0, 0), BuildingBlock: XIVTED_clean_linker_0, # of connection points: 2
#     Edge 17, Type (0, 0), BuildingBlock: XIVTED_clean_linker_0, # of connection points: 2
#     Edge 18, Type (0, 0), BuildingBlock: XIVTED_clean_linker_0, # of connection points: 2
#     Edge 19, Type (0, 0), BuildingBlock: XIVTED_clean_linker_0, # of connection points: 2
#     Edge 20, Type (0, 0), BuildingBlock: XIVTED_clean_linker_0, # of connection points: 2
#     Edge 21, Type (0, 0), BuildingBlock: XIVTED_clean_linker_0, # of connection points: 2
#     Edge 22, Type (0, 0), BuildingBlock: XIVTED_clean_linker_0, # of connection points: 2
#     Edge 23, Type (0, 0), BuildingBlock: XIVTED_clean_linker_0, # of connection points: 2
#     Edge 24, Type (0, 0), BuildingBlock: XIVTED_clean_linker_0, # of connection points: 2
#     Edge 25, Type (0, 0), BuildingBlock: XIVTED_clean_linker_0, # of connection points: 2
#     Edge 26, Type (0, 0), BuildingBlock: XIVTED_clean_linker_0, # of connection points: 2
#     Edge 27, Type (0, 0), BuildingBlock: XIVTED_clean_linker_0, # of connection points: 2
#     Edge 28, Type (0, 0), BuildingBlock: XIVTED_clean_linker_0, # of connection points: 2
#     Edge 29, Type (0, 0), BuildingBlock: XIVTED_clean_linker_0, # of connection points: 2
#     Edge 30, Type (0, 0), BuildingBlock: XIVTED_clean_linker_0, # of connection points: 2
#     Edge 31, Type (0, 0), BuildingBlock: XIVTED_clean_linker_0, # of connection points: 2
#     Edge 32, Type (0, 0), BuildingBlock: XIVTED_clean_linker_0, # of connection points: 2
#     Edge 33, Type (0, 0), BuildingBlock: XIVTED_clean_linker_0, # of connection points: 2
#     Edge 34, Type (0, 0), BuildingBlock: XIVTED_clean_linker_0, # of connection points: 2
#     Edge 35, Type (0, 0), BuildingBlock: XIVTED_clean_linker_0, # of connection points: 2
# Relax obj value: 0.065
# Max RMSD: 0.110
# Mean RMSD: 0.110
data_MOF--net-crr--node1-NAWXER_clean_sbu_0--edge1-XIVTED_clean_linker_0
_symmetry_space_group_name_H-M    P1
_symmetry_Int_Tables_number       1
_symmetry_cell_setting            triclinic
loop_
_symmetry_equiv_pos_as_xyz
'x, y, z'
_cell_length_a     40.381654
_cell_length_b     40.015562
_cell_length_c     40.316447
_cell_angle_alpha  89.907521
_cell_angle_beta   89.756476
_cell_angle_gamma 89.713176
loop_
_atom_site_label
_atom_site_type_symbol
_atom_site_fract_x
_atom_site_fract_y
_atom_site_fract_z
_atom_type_partial_charge
C0 C 0.08685 0.34799 0.41471 0.0
C1 C 0.14825 0.36411 0.31205 0.0
O2 O 0.11407 0.36322 0.41056 0.0
Zn3 Zn 0.11795 0.35685 0.36353 0.0
O4 O 0.07167 0.33577 0.38963 0.0
Zn5 Zn 0.07886 0.33329 0.33674 0.0
O6 O 0.08054 0.28548 0.32782 0.0
O7 O 0.12232 0.30396 0.35794 0.0
O8 O 0.12036 0.34963 0.3077 0.0
O9 O 0.15715 0.37237 0.34113 0.0
O10 O 0.08231 0.39016 0.34354 0.0
O11 O 0.04338 0.36114 0.31862 0.0
C12 C 0.10711 0.27988 0.34378 0.0
C13 C 0.05553 0.38923 0.32675 0.0
C14 C 0.30839 0.94757 0.73364 0.0
C15 C 0.29467 0.99478 0.62277 0.0
O16 O 0.29312 0.97454 0.72675 0.0
Zn17 Zn 0.29914 0.97145 0.67875 0.0
O18 O 0.32031 0.9293 0.71041 0.0
Zn19 Zn 0.32355 0.92893 0.65777 0.0
O20 O 0.37077 0.92792 0.65103 0.0
O21 O 0.3522 0.97512 0.67281 0.0
O22 O 0.30869 0.96602 0.623 0.0
O23 O 0.28476 0.00777 0.64986 0.0
O24 O 0.26687 0.93081 0.66617 0.0
O25 O 0.2982 0.89075 0.64509 0.0
C26 C 0.37633 0.95716 0.66193 0.0
C27 C 0.26977 0.90153 0.65356 0.0
C28 C 0.95155 0.61185 0.29763 0.0
C29 C 0.90261 0.7236 0.30876 0.0
O30 O 0.96332 0.63852 0.28505 0.0
Zn31 Zn 0.92967 0.66867 0.30326 0.0
O32 O 0.92587 0.61326 0.31628 0.0
Zn33 Zn 0.89163 0.64905 0.33511 0.0
O34 O 0.85107 0.63242 0.31702 0.0
O35 O 0.88631 0.65062 0.27904 0.0
O36 O 0.88798 0.70092 0.32563 0.0
O37 O 0.92809 0.71627 0.29154 0.0
O38 O 0.94155 0.66723 0.35508 0.0
O39 O 0.89836 0.64681 0.38202 0.0
C40 C 0.85848 0.6374 0.28673 0.0
C41 C 0.92766 0.65819 0.38231 0.0
C42 C 0.67199 0.0787 0.70194 0.0
C43 C 0.68437 0.03394 0.59062 0.0
O44 O 0.69097 0.0551 0.69263 0.0
Zn45 Zn 0.68008 0.05788 0.64595 0.0
O46 O 0.6553 0.09524 0.68039 0.0
Zn47 Zn 0.64827 0.09514 0.62755 0.0
O48 O 0.6016 0.08979 0.62505 0.0
O49 O 0.62742 0.04563 0.64562 0.0
O50 O 0.66573 0.05998 0.59118 0.0
O51 O 0.69822 0.02406 0.61712 0.0
O52 O 0.70445 0.10354 0.63046 0.0
O53 O 0.66496 0.13729 0.61291 0.0
C54 C 0.60046 0.06044 0.637 0.0
C55 C 0.69539 0.13187 0.61839 0.0
C56 C 0.12768 0.64508 0.69004 0.0
C57 C 0.05903 0.65713 0.59204 0.0
O58 O 0.13245 0.63213 0.66164 0.0
Zn59 Zn 0.09367 0.65035 0.64077 0.0
O60 O 0.10189 0.66324 0.69525 0.0
Zn61 Zn 0.06002 0.68171 0.66784 0.0
O62 O 0.0221 0.6622 0.69037 0.0
O63 O 0.05424 0.62502 0.6653 0.0
O64 O 0.0474 0.67308 0.61709 0.0
O65 O 0.08593 0.64076 0.59471 0.0
O66 O 0.10486 0.70216 0.63986 0.0
O67 O 0.06759 0.72979 0.66932 0.0
C68 C 0.02866 0.63201 0.68291 0.0
C69 C 0.09367 0.72976 0.65149 0.0
C70 C 0.60137 0.92215 0.30776 0.0
C71 C 0.711 0.86981 0.30763 0.0
O72 O 0.60373 0.89796 0.32854 0.0
Zn73 Zn 0.63968 0.86071 0.34238 0.0
O74 O 0.62542 0.92838 0.28829 0.0
Zn75 Zn 0.65564 0.89464 0.30519 0.0
O76 O 0.63509 0.84916 0.28667 0.0
O77 O 0.62046 0.81846 0.32962 0.0
O78 O 0.70097 0.8928 0.28828 0.0
O79 O 0.69071 0.85636 0.32816 0.0
O80 O 0.64448 0.86966 0.38873 0.0
O81 O 0.66255 0.91041 0.35632 0.0
C82 C 0.62267 0.82217 0.29843 0.0
C83 C 0.65737 0.89841 0.38548 0.0
C84 C 0.87706 0.342 0.71519 0.0
C85 C 0.95354 0.34334 0.62137 0.0
O86 O 0.86664 0.35866 0.69014 0.0
Zn87 Zn 0.88164 0.37142 0.64107 0.0
O88 O 0.90501 0.3272 0.71378 0.0
Zn89 Zn 0.91575 0.34115 0.66876 0.0
O90 O 0.92109 0.39439 0.67418 0.0
O91 O 0.88289 0.41957 0.64384 0.0
O92 O 0.95708 0.32722 0.64831 0.0
O93 O 0.92709 0.36034 0.61619 0.0
O94 O 0.84779 0.34961 0.6147 0.0
O95 O 0.87987 0.31396 0.64139 0.0
C96 C 0.90717 0.42134 0.66377 0.0
C97 C 0.85531 0.31964 0.62216 0.0
C98 C 0.40263 0.07217 0.3259 0.0
C99 C 0.29618 0.12999 0.33258 0.0
O100 O 0.40343 0.09708 0.34586 0.0
Zn101 Zn 0.3704 0.13644 0.36135 0.0
O102 O 0.37638 0.06628 0.30975 0.0
Zn103 Zn 0.34949 0.1021 0.32766 0.0
O104 O 0.37017 0.14598 0.3052 0.0
O105 O 0.39039 0.17717 0.34519 0.0
O106 O 0.30351 0.1054 0.31397 0.0
O107 O 0.31861 0.14335 0.35061 0.0
O108 O 0.36812 0.13024 0.40841 0.0
O109 O 0.34402 0.08993 0.38006 0.0
C110 C 0.38486 0.17267 0.31457 0.0
C111 C 0.35181 0.10316 0.40799 0.0
C112 C 0.36752 0.45159 0.07583 0.0
C113 C 0.38952 0.35431 0.14615 0.0
O114 O 0.3869 0.44992 0.10054 0.0
Zn115 Zn 0.37966 0.40325 0.11161 0.0
O116 O 0.35146 0.42561 0.06696 0.0
Zn117 Zn 0.34574 0.37511 0.08227 0.0
O118 O 0.29968 0.37271 0.09504 0.0
O119 O 0.32993 0.40278 0.12919 0.0
O120 O 0.3691 0.34865 0.12253 0.0
O121 O 0.40184 0.38333 0.14952 0.0
O122 O 0.40111 0.37516 0.07155 0.0
O123 O 0.36079 0.35022 0.04417 0.0
C124 C 0.30198 0.39024 0.12119 0.0
C125 C 0.39145 0.35601 0.04803 0.0
C126 C 0.31148 0.68241 0.84861 0.0
C127 C 0.41157 0.70786 0.90896 0.0
O128 O 0.30491 0.69547 0.87697 0.0
Zn129 Zn 0.33245 0.71573 0.91794 0.0
O130 O 0.34139 0.67931 0.83932 0.0
Zn131 Zn 0.36159 0.69747 0.87808 0.0
O132 O 0.34927 0.66145 0.91589 0.0
O133 O 0.31969 0.68716 0.95452 0.0
O134 O 0.40894 0.69678 0.8796 0.0
O135 O 0.38542 0.7162 0.92525 0.0
O136 O 0.31902 0.76237 0.9189 0.0
O137 O 0.3504 0.74963 0.87574 0.0
C138 C 0.33373 0.6608 0.9437 0.0
C139 C 0.33396 0.77126 0.89258 0.0
C140 C 0.60321 0.63108 0.14257 0.0
C141 C 0.62417 0.5293 0.07859 0.0
O142 O 0.59092 0.60235 0.1481 0.0
Zn143 Zn 0.61153 0.58026 0.11037 0.0
O144 O 0.62255 0.63539 0.11762 0.0
Zn145 Zn 0.64414 0.60656 0.07793 0.0
O146 O 0.62778 0.62851 0.03898 0.0
O147 O 0.58831 0.60551 0.06942 0.0
O148 O 0.63953 0.55483 0.06727 0.0
O149 O 0.6046 0.53271 0.10313 0.0
O150 O 0.6622 0.58218 0.12538 0.0
O151 O 0.69042 0.61046 0.08769 0.0
C152 C 0.59727 0.62306 0.04427 0.0
C153 C 0.68958 0.59446 0.11494 0.0
C154 C 0.6561 0.20659 0.90293 0.0
C155 C 0.66225 0.31258 0.96239 0.0
O156 O 0.64321 0.23129 0.88737 0.0
Zn157 Zn 0.6362 0.2834 0.89324 0.0
O158 O 0.66952 0.21103 0.93103 0.0
Zn159 Zn 0.66031 0.25894 0.93366 0.0
O160 O 0.60704 0.26246 0.93676 0.0
O161 O 0.58902 0.28826 0.8918 0.0
O162 O 0.67235 0.28438 0.97308 0.0
O163 O 0.6491 0.31483 0.93364 0.0
O164 O 0.66136 0.30211 0.85779 0.0
O165 O 0.69295 0.27874 0.89603 0.0
C166 C 0.58304 0.27442 0.91955 0.0
C167 C 0.68997 0.2946 0.8685 0.0
H168 H 0.13362 0.24881 0.39682 0.0
H169 H 0.24699 0.12941 0.28519 0.0
H170 H 0.11837 0.2372 0.29177 0.0
H171 H 0.26771 0.16022 0.38543 0.0
H172 H 0.19245 0.15715 0.28925 0.0
H173 H 0.17367 0.20311 0.39552 0.0
C174 C 0.13813 0.2359 0.37361 0.0
C175 C 0.12296 0.24675 0.34435 0.0
C176 C 0.20885 0.15736 0.31042 0.0
C177 C 0.16985 0.19539 0.34226 0.0
C178 C 0.23987 0.14158 0.30813 0.0
C179 C 0.26202 0.14311 0.33481 0.0
C180 C 0.2 0.17419 0.33979 0.0
C181 C 0.25165 0.15902 0.36402 0.0
C182 C 0.1612 0.21 0.37277 0.0
C183 C 0.12959 0.22934 0.31487 0.0
N184 N 0.22156 0.17402 0.36564 0.0
N185 N 0.15321 0.20488 0.31437 0.0
H186 H 0.20811 0.90989 0.68129 0.0
H187 H 0.14027 0.73987 0.60393 0.0
H188 H 0.2643 0.84448 0.61697 0.0
H189 H 0.09265 0.78877 0.68685 0.0
H190 H 0.17995 0.78522 0.60071 0.0
H191 H 0.16067 0.87213 0.67673 0.0
C192 C 0.21039 0.88776 0.666 0.0
C193 C 0.2403 0.88016 0.64967 0.0
C194 C 0.16069 0.78628 0.61945 0.0
C195 C 0.18617 0.83721 0.64419 0.0
C196 C 0.1379 0.76042 0.62126 0.0
C197 C 0.1134 0.76029 0.64605 0.0
C198 C 0.1592 0.81228 0.64268 0.0
C199 C 0.11126 0.78784 0.66747 0.0
C200 C 0.18334 0.86625 0.66348 0.0
C201 C 0.24187 0.85119 0.63022 0.0
N202 N 0.13422 0.81263 0.66558 0.0
N203 N 0.21523 0.83079 0.62808 0.0
H204 H 0.74633 0.84968 0.36076 0.0
H205 H 0.88749 0.76218 0.25448 0.0
H206 H 0.75472 0.86403 0.25506 0.0
H207 H 0.88015 0.75904 0.36107 0.0
H208 H 0.84586 0.80734 0.25373 0.0
H209 H 0.80108 0.82428 0.36126 0.0
C210 C 0.75994 0.84766 0.33761 0.0
C211 C 0.74586 0.85849 0.30776 0.0
C212 C 0.8541 0.79744 0.27732 0.0
C213 C 0.80868 0.82871 0.30792 0.0
C214 C 0.87809 0.77196 0.27775 0.0
C215 C 0.88702 0.75693 0.3079 0.0
C216 C 0.83914 0.80764 0.30726 0.0
C217 C 0.87374 0.76994 0.33732 0.0
C218 C 0.79133 0.83322 0.33788 0.0
C219 C 0.76475 0.85578 0.27857 0.0
N220 N 0.85021 0.79418 0.33623 0.0
N221 N 0.79503 0.84051 0.27924 0.0
H222 H 0.87042 0.25329 0.62536 0.0
H223 H 0.68414 0.19523 0.59489 0.0
H224 H 0.79193 0.32111 0.59726 0.0
H225 H 0.76261 0.12952 0.62769 0.0
H226 H 0.72439 0.2402 0.58863 0.0
H227 H 0.83276 0.20652 0.61849 0.0
C228 C 0.84533 0.25834 0.61729 0.0
C229 C 0.83421 0.29125 0.61225 0.0
C230 C 0.73285 0.21588 0.59694 0.0
C231 C 0.7907 0.23761 0.60473 0.0
C232 C 0.70988 0.19014 0.60056 0.0
C233 C 0.71994 0.15857 0.61216 0.0
C234 C 0.76617 0.21007 0.605 0.0
C235 C 0.75365 0.15348 0.61892 0.0
C236 C 0.82379 0.23156 0.61346 0.0
C237 C 0.80153 0.29617 0.60152 0.0
N238 N 0.77548 0.17901 0.61545 0.0
N239 N 0.78077 0.26965 0.59852 0.0
H240 H 0.38304 0.28776 0.13553 0.0
H241 H 0.40738 0.23659 0.32536 0.0
H242 H 0.4125 0.3585 0.21034 0.0
H243 H 0.38106 0.16818 0.24721 0.0
H244 H 0.41516 0.2806 0.28366 0.0
H245 H 0.38831 0.24284 0.1758 0.0
C246 C 0.39089 0.29381 0.16047 0.0
C247 C 0.39699 0.32698 0.16971 0.0
C248 C 0.40802 0.25585 0.27568 0.0
C249 C 0.40274 0.27546 0.21633 0.0
C250 C 0.40361 0.2307 0.29945 0.0
C251 C 0.3932 0.19871 0.28981 0.0
C252 C 0.40198 0.24889 0.2421 0.0
C253 C 0.38875 0.1925 0.25589 0.0
C254 C 0.39392 0.26809 0.18351 0.0
C255 C 0.40749 0.33326 0.20225 0.0
N256 N 0.39293 0.21738 0.23338 0.0
N257 N 0.40963 0.30774 0.22459 0.0
H258 H 0.31623 0.6525 0.78763 0.0
H259 H 0.12178 0.66257 0.75518 0.0
H260 H 0.2448 0.68708 0.86001 0.0
H261 H 0.19167 0.62237 0.6842 0.0
H262 H 0.16608 0.66649 0.79578 0.0
H263 H 0.27077 0.63691 0.75106 0.0
C264 C 0.29099 0.65669 0.79591 0.0
C265 C 0.28432 0.67143 0.82681 0.0
C266 C 0.17172 0.65646 0.77146 0.0
C267 C 0.2322 0.65359 0.78509 0.0
C268 C 0.1464 0.65417 0.74825 0.0
C269 C 0.15312 0.64247 0.71612 0.0
C270 C 0.20412 0.64731 0.76243 0.0
C271 C 0.18542 0.63167 0.70865 0.0
C272 C 0.26505 0.64769 0.77504 0.0
C273 C 0.25114 0.67603 0.83632 0.0
N274 N 0.20984 0.63475 0.73152 0.0
N275 N 0.22635 0.66735 0.81544 0.0
H276 H 0.583 0.6297 0.20798 0.0
H277 H 0.61946 0.8248 0.23093 0.0
H278 H 0.61094 0.69708 0.12912 0.0
H279 H 0.60309 0.75805 0.31356 0.0
H280 H 0.60782 0.77922 0.19296 0.0
H281 H 0.58164 0.67726 0.24652 0.0
C282 C 0.58829 0.65452 0.19868 0.0
C283 C 0.59744 0.65942 0.1654 0.0
C284 C 0.60655 0.77448 0.21939 0.0
C285 C 0.59606 0.71367 0.20915 0.0
C286 C 0.61322 0.80057 0.24114 0.0
C287 C 0.61264 0.79519 0.27553 0.0
C288 C 0.5994 0.74255 0.23196 0.0
C289 C 0.60403 0.76327 0.28722 0.0
C290 C 0.58769 0.68159 0.22069 0.0
C291 C 0.60417 0.69206 0.15466 0.0
N292 N 0.59804 0.73803 0.26546 0.0
N293 N 0.60353 0.71781 0.17647 0.0
H294 H 0.69398 0.34031 0.81858 0.0
H295 H 0.87833 0.2948 0.76521 0.0
H296 H 0.75347 0.27073 0.87491 0.0
H297 H 0.82464 0.38156 0.73055 0.0
H298 H 0.83456 0.28537 0.80676 0.0
H299 H 0.74262 0.35497 0.786 0.0
C300 C 0.71734 0.32813 0.82411 0.0
C301 C 0.71966 0.30416 0.84936 0.0
C302 C 0.83273 0.30672 0.79032 0.0
C303 C 0.77563 0.32077 0.81204 0.0
C304 C 0.85772 0.31216 0.76675 0.0
C305 C 0.85481 0.33867 0.7441 0.0
C306 C 0.80482 0.32788 0.79092 0.0
C307 C 0.82762 0.36043 0.74711 0.0
C308 C 0.7452 0.33665 0.80563 0.0
C309 C 0.75065 0.28937 0.85562 0.0
N310 N 0.80357 0.35433 0.76976 0.0
N311 N 0.77745 0.29768 0.83683 0.0
H312 H 0.36646 0.9344 0.7633 0.0
H313 H 0.28187 0.81553 0.89756 0.0
H314 H 0.2611 0.93251 0.78017 0.0
H315 H 0.38102 0.80516 0.85865 0.0
H316 H 0.27638 0.86903 0.86771 0.0
H317 H 0.37452 0.89957 0.81234 0.0
C318 C 0.34509 0.92742 0.77809 0.0
C319 C 0.31313 0.93613 0.76789 0.0
C320 C 0.29952 0.85529 0.86632 0.0
C321 C 0.32191 0.89507 0.82308 0.0
C322 C 0.3027 0.82492 0.88339 0.0
C323 C 0.33177 0.80582 0.88008 0.0
C324 C 0.32581 0.86663 0.84638 0.0
C325 C 0.358 0.81891 0.86141 0.0
C326 C 0.34963 0.90732 0.80589 0.0
C327 C 0.28615 0.92636 0.78755 0.0
N328 N 0.35431 0.84834 0.84512 0.0
N329 N 0.29107 0.90563 0.81396 0.0
H330 H 0.69566 0.56083 0.17344 0.0
H331 H 0.86518 0.64982 0.22057 0.0
H332 H 0.7494 0.62564 0.10667 0.0
H333 H 0.80064 0.60212 0.29185 0.0
H334 H 0.82775 0.63349 0.17633 0.0
H335 H 0.7395 0.56703 0.21418 0.0
C336 C 0.71692 0.57602 0.16714 0.0
C337 C 0.71865 0.59322 0.13681 0.0
C338 C 0.82184 0.62651 0.20163 0.0
C339 C 0.7687 0.60058 0.1835 0.0
C340 C 0.84313 0.63586 0.22694 0.0
C341 C 0.83583 0.62754 0.26001 0.0
C342 C 0.79308 0.60862 0.20939 0.0
C343 C 0.80704 0.6093 0.26675 0.0
C344 C 0.74185 0.57963 0.1905 0.0
C345 C 0.74694 0.61219 0.12986 0.0
N346 N 0.78662 0.6005 0.2416 0.0
N347 N 0.77075 0.61568 0.15325 0.0
H348 H 0.61651 0.10142 0.73217 0.0
H349 H 0.70959 0.1661 0.89065 0.0
H350 H 0.7181 0.0747 0.75196 0.0
H351 H 0.60455 0.17543 0.87463 0.0
H352 H 0.71243 0.12423 0.84612 0.0
H353 H 0.61053 0.12084 0.78894 0.0
C354 C 0.63756 0.09952 0.74867 0.0
C355 C 0.66798 0.08702 0.73731 0.0
C356 C 0.6886 0.13463 0.85309 0.0
C357 C 0.66158 0.10972 0.8025 0.0
C358 C 0.68695 0.15822 0.8787 0.0
C359 C 0.65682 0.17419 0.88596 0.0
C360 C 0.6599 0.12741 0.83481 0.0
C361 C 0.62827 0.16372 0.8695 0.0
C362 C 0.63412 0.11043 0.78121 0.0
C363 C 0.6943 0.08447 0.75983 0.0
N364 N 0.63059 0.14139 0.84438 0.0
N365 N 0.69071 0.09642 0.79129 0.0
H366 H 0.24223 0.35768 0.12002 0.0
H367 H 0.20501 0.40141 0.30936 0.0
H368 H 0.29898 0.42835 0.17701 0.0
H369 H 0.13877 0.34389 0.24826 0.0
H370 H 0.23885 0.41304 0.26031 0.0
H371 H 0.20193 0.35488 0.16541 0.0
C372 C 0.2459 0.37305 0.14177 0.0
C373 C 0.27423 0.39289 0.14494 0.0
C374 C 0.21679 0.39802 0.25762 0.0
C375 C 0.22869 0.38939 0.19705 0.0
C376 C 0.19761 0.39122 0.28566 0.0
C377 C 0.16919 0.37148 0.28293 0.0
C378 C 0.2076 0.38475 0.22675 0.0
C379 C 0.16057 0.35914 0.25154 0.0
C380 C 0.223 0.37133 0.16775 0.0
C381 C 0.27773 0.41233 0.17367 0.0
N382 N 0.17982 0.36581 0.22471 0.0
N383 N 0.25547 0.40976 0.19878 0.0
H384 H 0.97785 0.39688 0.58862 0.0
H385 H 0.04727 0.2981 0.43801 0.0
H386 H 0.98693 0.28971 0.59538 0.0
H387 H 0.09314 0.39061 0.46713 0.0
H388 H 0.02024 0.29506 0.49257 0.0
H389 H 0.01591 0.39651 0.5411 0.0
C390 C 0.98827 0.37333 0.58025 0.0
C391 C 0.97949 0.34328 0.59575 0.0
C392 C 0.03656 0.31576 0.48707 0.0
C393 C 0.02199 0.34259 0.54116 0.0
C394 C 0.05175 0.31766 0.45597 0.0
C395 C 0.07226 0.34476 0.44812 0.0
C396 C 0.04121 0.34163 0.50998 0.0
C397 C 0.0775 0.36932 0.47228 0.0
C398 C 0.00996 0.37315 0.55331 0.0
C399 C 0.99342 0.31337 0.58408 0.0
N400 N 0.06156 0.3675 0.50199 0.0
N401 N 0.01357 0.31366 0.55692 0.0
H402 H 0.32215 0.04245 0.4165 0.0
H403 H 0.2978 0.06262 0.61284 0.0
H404 H 0.35415 0.12932 0.47083 0.0
H405 H 0.29116 0.96879 0.56083 0.0
H406 H 0.30824 0.09087 0.55964 0.0
H407 H 0.30172 0.01816 0.4682 0.0
C408 C 0.32494 0.05642 0.43931 0.0
C409 C 0.34019 0.08784 0.43935 0.0
C410 C 0.30402 0.06416 0.55991 0.0
C411 C 0.31644 0.0603 0.49865 0.0
C412 C 0.29771 0.04814 0.59016 0.0
C413 C 0.29381 0.01335 0.59115 0.0
C414 C 0.30607 0.0452 0.53062 0.0
C415 C 0.2943 0.99565 0.56114 0.0
C416 C 0.31318 0.04256 0.46882 0.0
C417 C 0.34288 0.10487 0.46968 0.0
N418 N 0.30053 0.01172 0.53216 0.0
N419 N 0.33113 0.09087 0.49813 0.0
H420 H 0.08131 0.64084 0.52973 0.0
H421 H 0.9037 0.65529 0.44586 0.0
H422 H 0.99427 0.67393 0.58316 0.0
H423 H 0.99456 0.66336 0.38964 0.0
H424 H 0.93602 0.65522 0.49711 0.0
H425 H 0.04921 0.64183 0.47822 0.0
C426 C 0.05549 0.64825 0.53061 0.0
C427 C 0.04043 0.65742 0.56067 0.0
C428 C 0.94881 0.65715 0.47351 0.0
C429 C 0.0037 0.6583 0.50221 0.0
C430 C 0.93041 0.65713 0.44432 0.0
C431 C 0.94649 0.65944 0.41352 0.0
C432 C 0.98349 0.65892 0.4718 0.0
C433 C 0.98117 0.66177 0.4129 0.0
C434 C 0.03726 0.64894 0.50127 0.0
C435 C 0.00691 0.66688 0.56047 0.0
N436 N -0.00143 0.6612 0.44164 0.0
N437 N 0.98961 0.6669 0.53171 0.0
H438 H 0.70213 0.96812 0.5838 0.0
H439 H 0.67126 0.96508 0.38816 0.0
H440 H 0.67224 0.05487 0.52741 0.0
H441 H 0.6629 0.87728 0.44996 0.0
H442 H 0.68304 0.99831 0.43749 0.0
H443 H 0.69962 0.93456 0.53303 0.0
C444 C 0.69557 0.9802 0.56067 0.0
C445 C 0.68718 0.01427 0.5598 0.0
C446 C 0.67877 0.97174 0.44019 0.0
C447 C 0.68429 0.97615 0.50191 0.0
C448 C 0.67212 0.95274 0.41207 0.0
C449 C 0.66584 0.9184 0.415 0.0
C450 C 0.67957 0.95625 0.47143 0.0
C451 C 0.66729 0.90374 0.44663 0.0
C452 C 0.69392 0.96101 0.53182 0.0
C453 C 0.67865 0.02862 0.52921 0.0
N454 N 0.67402 0.92277 0.47366 0.0
N455 N 0.67737 0.00948 0.50148 0.0
H456 H 0.4501 0.05961 0.37206 0.0
H457 H 0.57436 0.95931 0.257 0.0
H458 H 0.42195 0.03495 0.27196 0.0
H459 H 0.56096 0.93454 0.36037 0.0
H460 H 0.52512 0.99587 0.26024 0.0
H461 H 0.49837 0.02268 0.36659 0.0
C462 C 0.45419 0.04655 0.34887 0.0
C463 C 0.43197 0.0502 0.32245 0.0
C464 C 0.53304 0.98225 0.28207 0.0
C465 C 0.48734 0.00849 0.31591 0.0
C466 C 0.56109 0.96157 0.28029 0.0
C467 C 0.5716 0.9438 0.30842 0.0
C468 C 0.51619 0.98584 0.31241 0.0
C469 C 0.55354 0.94757 0.33803 0.0
C470 C 0.4816 0.02543 0.34584 0.0
C471 C 0.43839 0.03259 0.29298 0.0
N472 N 0.52697 0.96845 0.33935 0.0
N473 N 0.46572 0.01266 0.29035 0.0
H474 H 0.96102 0.63055 0.6787 0.0
H475 H 0.95878 0.43257 0.70558 0.0
H476 H 0.04596 0.57077 0.70527 0.0
H477 H 0.88591 0.48459 0.64646 0.0
H478 H 0.98396 0.48587 0.71923 0.0
H479 H 0.92654 0.57995 0.68071 0.0
C480 C 0.97211 0.60697 0.68599 0.0
C481 C 0.00625 0.60458 0.69179 0.0
C482 C 0.96229 0.48568 0.7035 0.0
C483 C 0.96743 0.54712 0.69389 0.0
C484 C 0.94786 0.45522 0.69562 0.0
C485 C 0.92047 0.45401 0.67435 0.0
C486 C 0.94932 0.51531 0.69008 0.0
C487 C 0.90725 0.48433 0.66262 0.0
C488 C 0.95259 0.57815 0.68678 0.0
C489 C 0.0197 0.5735 0.70056 0.0
N490 N 0.922 0.5138 0.6704 0.0
N491 N 0.0003 0.54596 0.70117 0.0
H492 H 0.5882 0.99401 0.64874 0.0
H493 H 0.39381 0.02198 0.67204 0.0
H494 H 0.53917 0.08925 0.63585 0.0
H495 H 0.43544 0.92515 0.6488 0.0
H496 H 0.44876 0.04633 0.6672 0.0
H497 H 0.53391 0.96765 0.65639 0.0
C498 C 0.56606 0.00936 0.64757 0.0
C499 C 0.56817 0.04386 0.64156 0.0
C500 C 0.44591 0.01974 0.6632 0.0
C501 C 0.50634 0.01402 0.6506 0.0
C502 C 0.41455 0.00575 0.66612 0.0
C503 C 0.40998 0.97146 0.66068 0.0
C504 C 0.47308 0.99932 0.65509 0.0
C505 C 0.43784 0.95173 0.65302 0.0
C506 C 0.53517 0.9943 0.65184 0.0
C507 C 0.53872 0.06256 0.64023 0.0
N508 N 0.4683 0.96596 0.65048 0.0
N509 N 0.50908 0.04743 0.64487 0.0
H510 H 0.92048 0.5521 0.29628 0.0
H511 H 0.08572 0.44955 0.32289 0.0
H512 H 0.01723 0.59642 0.28702 0.0
H513 H 0.99184 0.40176 0.30532 0.0
H514 H 0.0613 0.50308 0.30771 0.0
H515 H 0.94597 0.49674 0.29656 0.0
C516 C 0.94716 0.55009 0.29386 0.0
C517 C 0.96689 0.57883 0.29201 0.0
C518 C 0.04605 0.48092 0.30686 0.0
C519 C 0.99624 0.51551 0.29282 0.0
C520 C 0.05988 0.45031 0.3158 0.0
C521 C 0.0406 0.42118 0.31587 0.0
C522 C 0.01248 0.48267 0.29835 0.0
C523 C 0.00748 0.42364 0.30585 0.0
C524 C 0.96166 0.51847 0.29395 0.0
C525 C 0.00119 0.57486 0.28855 0.0
N526 N 0.99431 0.45399 0.29791 0.0
N527 N 0.01488 0.54372 0.28964 0.0
H528 H 0.3798 0.51595 0.09625 0.0
H529 H 0.33963 0.59718 0.92107 0.0
H530 H 0.34373 0.45886 0.01327 0.0
H531 H 0.33104 0.65422 0.01144 0.0
H532 H 0.34728 0.54644 0.95394 0.0
H533 H 0.36888 0.56762 0.06488 0.0
C534 C 0.36979 0.51429 0.07143 0.0
C535 C 0.36267 0.48312 0.05731 0.0
C536 C 0.34344 0.57 0.96661 0.0
C537 C 0.3503 0.54174 0.02152 0.0
C538 C 0.33906 0.59894 0.94788 0.0
C539 C 0.33456 0.62986 0.9636 0.0
C540 C 0.34404 0.57203 0.00134 0.0
C541 C 0.33411 0.63076 -0.00159 0.0
C542 C 0.36333 0.54371 0.05371 0.0
C543 C 0.3495 0.48235 0.02516 0.0
N544 N 0.3392 0.60226 0.0162 0.0
N545 N 0.34395 0.51119 0.0083 0.0
H546 H 0.4722 0.68853 0.88406 0.0
H547 H 0.53341 0.63631 0.06097 0.0
H548 H 0.42355 0.72099 0.97413 0.0
H549 H 0.60358 0.64685 0.98058 0.0
H550 H 0.49166 0.66437 0.02744 0.0
H551 H 0.52073 0.67236 0.9168 0.0
C552 C 0.47197 0.69296 0.91056 0.0
C553 C 0.44354 0.70559 0.92646 0.0
C554 C 0.51623 0.66074 0.01716 0.0
C555 C 0.49846 0.68657 0.96383 0.0
C556 C 0.53997 0.64438 0.03614 0.0
C557 C 0.57189 0.63905 0.02339 0.0
C558 C 0.52422 0.67133 0.98494 0.0
C559 C 0.57916 0.65044 0.99123 0.0
C560 C 0.49963 0.68366 0.92918 0.0
C561 C 0.4447 0.71095 0.96082 0.0
N562 N 0.55532 0.66578 0.97284 0.0
N563 N 0.47144 0.70079 0.97843 0.0
H564 H 0.67644 0.37462 0.94081 0.0
H565 H 0.60611 0.46681 0.10141 0.0
H566 H 0.64985 0.32001 0.02916 0.0
H567 H 0.658 0.51639 0.02159 0.0
H568 H 0.61991 0.41267 0.07588 0.0
H569 H 0.6692 0.42683 0.97086 0.0
C570 C 0.66959 0.37372 0.96682 0.0
C571 C 0.66383 0.3431 0.98262 0.0
C572 C 0.62833 0.43547 0.06415 0.0
C573 C 0.65453 0.40288 0.01711 0.0
C574 C 0.62025 0.46634 0.07853 0.0
C575 C 0.63076 0.4962 0.06353 0.0
C576 C 0.64675 0.43463 0.03449 0.0
C577 C 0.64927 0.49411 0.03406 0.0
C578 C 0.66534 0.40353 0.98398 0.0
C579 C 0.65485 0.34321 0.01628 0.0
N580 N 0.65651 0.46396 0.02053 0.0
N581 N 0.64998 0.37278 0.03239 0.0
H582 H 0.45237 0.33644 0.06747 0.0
H583 H 0.52616 0.30074 0.89242 0.0
H584 H 0.38728 0.33596 0.98288 0.0
H585 H 0.56393 0.25347 0.98104 0.0
H586 H 0.47511 0.31478 0.92262 0.0
H587 H 0.49483 0.30862 0.03441 0.0
C588 C 0.44708 0.33049 0.04182 0.0
C589 C 0.41649 0.33873 0.0277 0.0
C590 C 0.49436 0.3007 0.9351 0.0
C591 C 0.465 0.30695 0.98969 0.0
C592 C 0.52348 0.29268 0.91795 0.0
C593 C 0.54963 0.27649 0.93444 0.0
C594 C 0.49181 0.2929 0.96894 0.0
C595 C 0.54469 0.26644 0.96744 0.0
C596 C 0.47118 0.3143 0.02308 0.0
C597 C 0.41069 0.33003 0.99453 0.0
N598 N 0.51665 0.27541 0.98378 0.0
N599 N 0.43504 0.31501 0.97633 0.0
loop_
_geom_bond_atom_site_label_1
_geom_bond_atom_site_label_2
_geom_bond_distance
_geom_bond_site_symmetry_2
_ccdc_geom_bond_type
C0 O2 1.247 . S
C0 O4 1.258 . S
C1 O8 1.247 . S
C1 O9 1.258 . S
O2 C0 1.247 . S
O2 Zn3 2.028 . S
Zn3 O2 2.028 . S
Zn3 O7 2.035 . S
Zn3 O9 2.035 . S
Zn3 O10 2.028 . S
O4 C0 1.258 . S
O4 Zn5 2.035 . S
Zn5 O4 2.035 . S
Zn5 O6 2.028 . S
Zn5 O8 2.028 . S
Zn5 O11 2.035 . S
O6 Zn5 2.028 . S
O6 C12 1.247 . S
O7 Zn3 2.035 . S
O7 C12 1.258 . S
O8 C1 1.247 . S
O8 Zn5 2.028 . S
O9 C1 1.258 . S
O9 Zn3 2.035 . S
O10 Zn3 2.028 . S
O10 C13 1.247 . S
O11 Zn5 2.035 . S
O11 C13 1.258 . S
C12 O6 1.247 . S
C12 O7 1.258 . S
C13 O10 1.247 . S
C13 O11 1.258 . S
C14 O16 1.247 . S
C14 O18 1.258 . S
C15 O22 1.247 . S
C15 O23 1.258 . S
O16 C14 1.247 . S
O16 Zn17 2.028 . S
Zn17 O16 2.028 . S
Zn17 O21 2.035 . S
Zn17 O23 2.035 . S
Zn17 O24 2.028 . S
O18 C14 1.258 . S
O18 Zn19 2.035 . S
Zn19 O18 2.035 . S
Zn19 O20 2.028 . S
Zn19 O22 2.028 . S
Zn19 O25 2.035 . S
O20 Zn19 2.028 . S
O20 C26 1.247 . S
O21 Zn17 2.035 . S
O21 C26 1.258 . S
O22 C15 1.247 . S
O22 Zn19 2.028 . S
O23 C15 1.258 . S
O23 Zn17 2.035 . S
O24 Zn17 2.028 . S
O24 C27 1.247 . S
O25 Zn19 2.035 . S
O25 C27 1.258 . S
C26 O20 1.247 . S
C26 O21 1.258 . S
C27 O24 1.247 . S
C27 O25 1.258 . S
C28 O30 1.247 . S
C28 O32 1.258 . S
C29 O36 1.247 . S
C29 O37 1.258 . S
O30 C28 1.247 . S
O30 Zn31 2.028 . S
Zn31 O30 2.028 . S
Zn31 O35 2.035 . S
Zn31 O37 2.035 . S
Zn31 O38 2.028 . S
O32 C28 1.258 . S
O32 Zn33 2.035 . S
Zn33 O32 2.035 . S
Zn33 O34 2.028 . S
Zn33 O36 2.028 . S
Zn33 O39 2.035 . S
O34 Zn33 2.028 . S
O34 C40 1.247 . S
O35 Zn31 2.035 . S
O35 C40 1.258 . S
O36 C29 1.247 . S
O36 Zn33 2.028 . S
O37 C29 1.258 . S
O37 Zn31 2.035 . S
O38 Zn31 2.028 . S
O38 C41 1.247 . S
O39 Zn33 2.035 . S
O39 C41 1.258 . S
C40 O34 1.247 . S
C40 O35 1.258 . S
C41 O38 1.247 . S
C41 O39 1.258 . S
C42 O44 1.247 . S
C42 O46 1.258 . S
C43 O50 1.247 . S
C43 O51 1.258 . S
O44 C42 1.247 . S
O44 Zn45 2.028 . S
Zn45 O44 2.028 . S
Zn45 O49 2.035 . S
Zn45 O51 2.035 . S
Zn45 O52 2.028 . S
O46 C42 1.258 . S
O46 Zn47 2.035 . S
Zn47 O46 2.035 . S
Zn47 O48 2.028 . S
Zn47 O50 2.028 . S
Zn47 O53 2.035 . S
O48 Zn47 2.028 . S
O48 C54 1.247 . S
O49 Zn45 2.035 . S
O49 C54 1.258 . S
O50 C43 1.247 . S
O50 Zn47 2.028 . S
O51 C43 1.258 . S
O51 Zn45 2.035 . S
O52 Zn45 2.028 . S
O52 C55 1.247 . S
O53 Zn47 2.035 . S
O53 C55 1.258 . S
C54 O48 1.247 . S
C54 O49 1.258 . S
C55 O52 1.247 . S
C55 O53 1.258 . S
C56 O58 1.247 . S
C56 O60 1.258 . S
C57 O64 1.247 . S
C57 O65 1.258 . S
O58 C56 1.247 . S
O58 Zn59 2.028 . S
Zn59 O58 2.028 . S
Zn59 O63 2.035 . S
Zn59 O65 2.035 . S
Zn59 O66 2.028 . S
O60 C56 1.258 . S
O60 Zn61 2.035 . S
Zn61 O60 2.035 . S
Zn61 O62 2.028 . S
Zn61 O64 2.028 . S
Zn61 O67 2.035 . S
O62 Zn61 2.028 . S
O62 C68 1.247 . S
O63 Zn59 2.035 . S
O63 C68 1.258 . S
O64 C57 1.247 . S
O64 Zn61 2.028 . S
O65 C57 1.258 . S
O65 Zn59 2.035 . S
O66 Zn59 2.028 . S
O66 C69 1.247 . S
O67 Zn61 2.035 . S
O67 C69 1.258 . S
C68 O62 1.247 . S
C68 O63 1.258 . S
C69 O66 1.247 . S
C69 O67 1.258 . S
C70 O72 1.247 . S
C70 O74 1.258 . S
C71 O78 1.247 . S
C71 O79 1.258 . S
O72 C70 1.247 . S
O72 Zn73 2.028 . S
Zn73 O72 2.028 . S
Zn73 O77 2.035 . S
Zn73 O79 2.035 . S
Zn73 O80 2.028 . S
O74 C70 1.258 . S
O74 Zn75 2.035 . S
Zn75 O74 2.035 . S
Zn75 O76 2.028 . S
Zn75 O78 2.028 . S
Zn75 O81 2.035 . S
O76 Zn75 2.028 . S
O76 C82 1.247 . S
O77 Zn73 2.035 . S
O77 C82 1.258 . S
O78 C71 1.247 . S
O78 Zn75 2.028 . S
O79 C71 1.258 . S
O79 Zn73 2.035 . S
O80 Zn73 2.028 . S
O80 C83 1.247 . S
O81 Zn75 2.035 . S
O81 C83 1.258 . S
C82 O76 1.247 . S
C82 O77 1.258 . S
C83 O80 1.247 . S
C83 O81 1.258 . S
C84 O86 1.247 . S
C84 O88 1.258 . S
C85 O92 1.247 . S
C85 O93 1.258 . S
O86 C84 1.247 . S
O86 Zn87 2.028 . S
Zn87 O86 2.028 . S
Zn87 O91 2.035 . S
Zn87 O93 2.035 . S
Zn87 O94 2.028 . S
O88 C84 1.258 . S
O88 Zn89 2.035 . S
Zn89 O88 2.035 . S
Zn89 O90 2.028 . S
Zn89 O92 2.028 . S
Zn89 O95 2.035 . S
O90 Zn89 2.028 . S
O90 C96 1.247 . S
O91 Zn87 2.035 . S
O91 C96 1.258 . S
O92 C85 1.247 . S
O92 Zn89 2.028 . S
O93 C85 1.258 . S
O93 Zn87 2.035 . S
O94 Zn87 2.028 . S
O94 C97 1.247 . S
O95 Zn89 2.035 . S
O95 C97 1.258 . S
C96 O90 1.247 . S
C96 O91 1.258 . S
C97 O94 1.247 . S
C97 O95 1.258 . S
C98 O100 1.247 . S
C98 O102 1.258 . S
C99 O106 1.247 . S
C99 O107 1.258 . S
O100 C98 1.247 . S
O100 Zn101 2.028 . S
Zn101 O100 2.028 . S
Zn101 O105 2.035 . S
Zn101 O107 2.035 . S
Zn101 O108 2.028 . S
O102 C98 1.258 . S
O102 Zn103 2.035 . S
Zn103 O102 2.035 . S
Zn103 O104 2.028 . S
Zn103 O106 2.028 . S
Zn103 O109 2.035 . S
O104 Zn103 2.028 . S
O104 C110 1.247 . S
O105 Zn101 2.035 . S
O105 C110 1.258 . S
O106 C99 1.247 . S
O106 Zn103 2.028 . S
O107 C99 1.258 . S
O107 Zn101 2.035 . S
O108 Zn101 2.028 . S
O108 C111 1.247 . S
O109 Zn103 2.035 . S
O109 C111 1.258 . S
C110 O104 1.247 . S
C110 O105 1.258 . S
C111 O108 1.247 . S
C111 O109 1.258 . S
C112 O114 1.247 . S
C112 O116 1.258 . S
C113 O120 1.247 . S
C113 O121 1.258 . S
O114 C112 1.247 . S
O114 Zn115 2.028 . S
Zn115 O114 2.028 . S
Zn115 O119 2.035 . S
Zn115 O121 2.035 . S
Zn115 O122 2.028 . S
O116 C112 1.258 . S
O116 Zn117 2.035 . S
Zn117 O116 2.035 . S
Zn117 O118 2.028 . S
Zn117 O120 2.028 . S
Zn117 O123 2.035 . S
O118 Zn117 2.028 . S
O118 C124 1.247 . S
O119 Zn115 2.035 . S
O119 C124 1.258 . S
O120 C113 1.247 . S
O120 Zn117 2.028 . S
O121 C113 1.258 . S
O121 Zn115 2.035 . S
O122 Zn115 2.028 . S
O122 C125 1.247 . S
O123 Zn117 2.035 . S
O123 C125 1.258 . S
C124 O118 1.247 . S
C124 O119 1.258 . S
C125 O122 1.247 . S
C125 O123 1.258 . S
C126 O128 1.247 . S
C126 O130 1.258 . S
C127 O134 1.247 . S
C127 O135 1.258 . S
O128 C126 1.247 . S
O128 Zn129 2.028 . S
Zn129 O128 2.028 . S
Zn129 O133 2.035 . S
Zn129 O135 2.035 . S
Zn129 O136 2.028 . S
O130 C126 1.258 . S
O130 Zn131 2.035 . S
Zn131 O130 2.035 . S
Zn131 O132 2.028 . S
Zn131 O134 2.028 . S
Zn131 O137 2.035 . S
O132 Zn131 2.028 . S
O132 C138 1.247 . S
O133 Zn129 2.035 . S
O133 C138 1.258 . S
O134 C127 1.247 . S
O134 Zn131 2.028 . S
O135 C127 1.258 . S
O135 Zn129 2.035 . S
O136 Zn129 2.028 . S
O136 C139 1.247 . S
O137 Zn131 2.035 . S
O137 C139 1.258 . S
C138 O132 1.247 . S
C138 O133 1.258 . S
C139 O136 1.247 . S
C139 O137 1.258 . S
C140 O142 1.247 . S
C140 O144 1.258 . S
C141 O148 1.247 . S
C141 O149 1.258 . S
O142 C140 1.247 . S
O142 Zn143 2.028 . S
Zn143 O142 2.028 . S
Zn143 O147 2.035 . S
Zn143 O149 2.035 . S
Zn143 O150 2.028 . S
O144 C140 1.258 . S
O144 Zn145 2.035 . S
Zn145 O144 2.035 . S
Zn145 O146 2.028 . S
Zn145 O148 2.028 . S
Zn145 O151 2.035 . S
O146 Zn145 2.028 . S
O146 C152 1.247 . S
O147 Zn143 2.035 . S
O147 C152 1.258 . S
O148 C141 1.247 . S
O148 Zn145 2.028 . S
O149 C141 1.258 . S
O149 Zn143 2.035 . S
O150 Zn143 2.028 . S
O150 C153 1.247 . S
O151 Zn145 2.035 . S
O151 C153 1.258 . S
C152 O146 1.247 . S
C152 O147 1.258 . S
C153 O150 1.247 . S
C153 O151 1.258 . S
C154 O156 1.247 . S
C154 O158 1.258 . S
C155 O162 1.247 . S
C155 O163 1.258 . S
O156 C154 1.247 . S
O156 Zn157 2.028 . S
Zn157 O156 2.028 . S
Zn157 O161 2.035 . S
Zn157 O163 2.035 . S
Zn157 O164 2.028 . S
O158 C154 1.258 . S
O158 Zn159 2.035 . S
Zn159 O158 2.035 . S
Zn159 O160 2.028 . S
Zn159 O162 2.028 . S
Zn159 O165 2.035 . S
O160 Zn159 2.028 . S
O160 C166 1.247 . S
O161 Zn157 2.035 . S
O161 C166 1.258 . S
O162 C155 1.247 . S
O162 Zn159 2.028 . S
O163 C155 1.258 . S
O163 Zn157 2.035 . S
O164 Zn157 2.028 . S
O164 C167 1.247 . S
O165 Zn159 2.035 . S
O165 C167 1.258 . S
C166 O160 1.247 . S
C166 O161 1.258 . S
C167 O164 1.247 . S
C167 O165 1.258 . S
H168 C174 0.930 . S
H169 C178 0.930 . S
H170 C183 0.929 . S
H171 C181 0.929 . S
H172 C176 0.929 . S
H173 C182 0.929 . S
C174 H168 0.930 . S
C174 C175 1.367 . S
C174 C182 1.378 . S
C175 C174 1.367 . S
C175 C183 1.433 . S
C176 H172 0.929 . S
C176 C178 1.378 . S
C176 C180 1.350 . S
C177 C180 1.463 . S
C177 C182 1.350 . S
C177 N185 1.427 . S
C178 H169 0.930 . S
C178 C176 1.378 . S
C178 C179 1.367 . S
C179 C178 1.367 . S
C179 C181 1.433 . S
C180 C176 1.350 . S
C180 C177 1.463 . S
C180 N184 1.427 . S
C181 H171 0.929 . S
C181 C179 1.433 . S
C181 N184 1.384 . S
C182 H173 0.929 . S
C182 C174 1.378 . S
C182 C177 1.350 . S
C183 H170 0.929 . S
C183 C175 1.433 . S
C183 N185 1.384 . S
N184 C180 1.427 . S
N184 C181 1.384 . S
N185 C177 1.427 . S
N185 C183 1.384 . S
H186 C192 0.930 . S
H187 C196 0.930 . S
H188 C201 0.929 . S
H189 C199 0.929 . S
H190 C194 0.929 . S
H191 C200 0.929 . S
C192 H186 0.930 . S
C192 C193 1.367 . S
C192 C200 1.378 . S
C193 C192 1.367 . S
C193 C201 1.433 . S
C194 H190 0.929 . S
C194 C196 1.378 . S
C194 C198 1.350 . S
C195 C198 1.463 . S
C195 C200 1.350 . S
C195 N203 1.427 . S
C196 H187 0.930 . S
C196 C194 1.378 . S
C196 C197 1.367 . S
C197 C196 1.367 . S
C197 C199 1.433 . S
C198 C194 1.350 . S
C198 C195 1.463 . S
C198 N202 1.427 . S
C199 H189 0.929 . S
C199 C197 1.433 . S
C199 N202 1.384 . S
C200 H191 0.929 . S
C200 C192 1.378 . S
C200 C195 1.350 . S
C201 H188 0.929 . S
C201 C193 1.433 . S
C201 N203 1.384 . S
N202 C198 1.427 . S
N202 C199 1.384 . S
N203 C195 1.427 . S
N203 C201 1.384 . S
H204 C210 0.930 . S
H205 C214 0.930 . S
H206 C219 0.929 . S
H207 C217 0.929 . S
H208 C212 0.929 . S
H209 C218 0.929 . S
C210 H204 0.930 . S
C210 C211 1.367 . S
C210 C218 1.378 . S
C211 C210 1.367 . S
C211 C219 1.433 . S
C212 H208 0.929 . S
C212 C214 1.378 . S
C212 C216 1.350 . S
C213 C216 1.463 . S
C213 C218 1.350 . S
C213 N221 1.427 . S
C214 H205 0.930 . S
C214 C212 1.378 . S
C214 C215 1.367 . S
C215 C214 1.367 . S
C215 C217 1.433 . S
C216 C212 1.350 . S
C216 C213 1.463 . S
C216 N220 1.427 . S
C217 H207 0.929 . S
C217 C215 1.433 . S
C217 N220 1.384 . S
C218 H209 0.929 . S
C218 C210 1.378 . S
C218 C213 1.350 . S
C219 H206 0.929 . S
C219 C211 1.433 . S
C219 N221 1.384 . S
N220 C216 1.427 . S
N220 C217 1.384 . S
N221 C213 1.427 . S
N221 C219 1.384 . S
H222 C228 0.930 . S
H223 C232 0.930 . S
H224 C237 0.929 . S
H225 C235 0.929 . S
H226 C230 0.929 . S
H227 C236 0.929 . S
C228 H222 0.930 . S
C228 C229 1.367 . S
C228 C236 1.378 . S
C229 C228 1.367 . S
C229 C237 1.433 . S
C230 H226 0.929 . S
C230 C232 1.378 . S
C230 C234 1.350 . S
C231 C234 1.463 . S
C231 C236 1.350 . S
C231 N239 1.427 . S
C232 H223 0.930 . S
C232 C230 1.378 . S
C232 C233 1.367 . S
C233 C232 1.367 . S
C233 C235 1.433 . S
C234 C230 1.350 . S
C234 C231 1.463 . S
C234 N238 1.427 . S
C235 H225 0.929 . S
C235 C233 1.433 . S
C235 N238 1.384 . S
C236 H227 0.929 . S
C236 C228 1.378 . S
C236 C231 1.350 . S
C237 H224 0.929 . S
C237 C229 1.433 . S
C237 N239 1.384 . S
N238 C234 1.427 . S
N238 C235 1.384 . S
N239 C231 1.427 . S
N239 C237 1.384 . S
H240 C246 0.930 . S
H241 C250 0.930 . S
H242 C255 0.929 . S
H243 C253 0.929 . S
H244 C248 0.929 . S
H245 C254 0.929 . S
C246 H240 0.930 . S
C246 C247 1.367 . S
C246 C254 1.378 . S
C247 C246 1.367 . S
C247 C255 1.433 . S
C248 H244 0.929 . S
C248 C250 1.378 . S
C248 C252 1.350 . S
C249 C252 1.463 . S
C249 C254 1.350 . S
C249 N257 1.427 . S
C250 H241 0.930 . S
C250 C248 1.378 . S
C250 C251 1.367 . S
C251 C250 1.367 . S
C251 C253 1.433 . S
C252 C248 1.350 . S
C252 C249 1.463 . S
C252 N256 1.427 . S
C253 H243 0.929 . S
C253 C251 1.433 . S
C253 N256 1.384 . S
C254 H245 0.929 . S
C254 C246 1.378 . S
C254 C249 1.350 . S
C255 H242 0.929 . S
C255 C247 1.433 . S
C255 N257 1.384 . S
N256 C252 1.427 . S
N256 C253 1.384 . S
N257 C249 1.427 . S
N257 C255 1.384 . S
H258 C264 0.930 . S
H259 C268 0.930 . S
H260 C273 0.929 . S
H261 C271 0.929 . S
H262 C266 0.929 . S
H263 C272 0.929 . S
C264 H258 0.930 . S
C264 C265 1.367 . S
C264 C272 1.378 . S
C265 C264 1.367 . S
C265 C273 1.433 . S
C266 H262 0.929 . S
C266 C268 1.378 . S
C266 C270 1.350 . S
C267 C270 1.463 . S
C267 C272 1.350 . S
C267 N275 1.427 . S
C268 H259 0.930 . S
C268 C266 1.378 . S
C268 C269 1.367 . S
C269 C268 1.367 . S
C269 C271 1.433 . S
C270 C266 1.350 . S
C270 C267 1.463 . S
C270 N274 1.427 . S
C271 H261 0.929 . S
C271 C269 1.433 . S
C271 N274 1.384 . S
C272 H263 0.929 . S
C272 C264 1.378 . S
C272 C267 1.350 . S
C273 H260 0.929 . S
C273 C265 1.433 . S
C273 N275 1.384 . S
N274 C270 1.427 . S
N274 C271 1.384 . S
N275 C267 1.427 . S
N275 C273 1.384 . S
H276 C282 0.930 . S
H277 C286 0.930 . S
H278 C291 0.929 . S
H279 C289 0.929 . S
H280 C284 0.929 . S
H281 C290 0.929 . S
C282 H276 0.930 . S
C282 C283 1.367 . S
C282 C290 1.378 . S
C283 C282 1.367 . S
C283 C291 1.433 . S
C284 H280 0.929 . S
C284 C286 1.378 . S
C284 C288 1.350 . S
C285 C288 1.463 . S
C285 C290 1.350 . S
C285 N293 1.427 . S
C286 H277 0.930 . S
C286 C284 1.378 . S
C286 C287 1.367 . S
C287 C286 1.367 . S
C287 C289 1.433 . S
C288 C284 1.350 . S
C288 C285 1.463 . S
C288 N292 1.427 . S
C289 H279 0.929 . S
C289 C287 1.433 . S
C289 N292 1.384 . S
C290 H281 0.929 . S
C290 C282 1.378 . S
C290 C285 1.350 . S
C291 H278 0.929 . S
C291 C283 1.433 . S
C291 N293 1.384 . S
N292 C288 1.427 . S
N292 C289 1.384 . S
N293 C285 1.427 . S
N293 C291 1.384 . S
H294 C300 0.930 . S
H295 C304 0.930 . S
H296 C309 0.929 . S
H297 C307 0.929 . S
H298 C302 0.929 . S
H299 C308 0.929 . S
C300 H294 0.930 . S
C300 C301 1.367 . S
C300 C308 1.378 . S
C301 C300 1.367 . S
C301 C309 1.433 . S
C302 H298 0.929 . S
C302 C304 1.378 . S
C302 C306 1.350 . S
C303 C306 1.463 . S
C303 C308 1.350 . S
C303 N311 1.427 . S
C304 H295 0.930 . S
C304 C302 1.378 . S
C304 C305 1.367 . S
C305 C304 1.367 . S
C305 C307 1.433 . S
C306 C302 1.350 . S
C306 C303 1.463 . S
C306 N310 1.427 . S
C307 H297 0.929 . S
C307 C305 1.433 . S
C307 N310 1.384 . S
C308 H299 0.929 . S
C308 C300 1.378 . S
C308 C303 1.350 . S
C309 H296 0.929 . S
C309 C301 1.433 . S
C309 N311 1.384 . S
N310 C306 1.427 . S
N310 C307 1.384 . S
N311 C303 1.427 . S
N311 C309 1.384 . S
H312 C318 0.930 . S
H313 C322 0.930 . S
H314 C327 0.929 . S
H315 C325 0.929 . S
H316 C320 0.929 . S
H317 C326 0.929 . S
C318 H312 0.930 . S
C318 C319 1.367 . S
C318 C326 1.378 . S
C319 C318 1.367 . S
C319 C327 1.433 . S
C320 H316 0.929 . S
C320 C322 1.378 . S
C320 C324 1.350 . S
C321 C324 1.463 . S
C321 C326 1.350 . S
C321 N329 1.427 . S
C322 H313 0.930 . S
C322 C320 1.378 . S
C322 C323 1.367 . S
C323 C322 1.367 . S
C323 C325 1.433 . S
C324 C320 1.350 . S
C324 C321 1.463 . S
C324 N328 1.427 . S
C325 H315 0.929 . S
C325 C323 1.433 . S
C325 N328 1.384 . S
C326 H317 0.929 . S
C326 C318 1.378 . S
C326 C321 1.350 . S
C327 H314 0.929 . S
C327 C319 1.433 . S
C327 N329 1.384 . S
N328 C324 1.427 . S
N328 C325 1.384 . S
N329 C321 1.427 . S
N329 C327 1.384 . S
H330 C336 0.930 . S
H331 C340 0.930 . S
H332 C345 0.929 . S
H333 C343 0.929 . S
H334 C338 0.929 . S
H335 C344 0.929 . S
C336 H330 0.930 . S
C336 C337 1.367 . S
C336 C344 1.378 . S
C337 C336 1.367 . S
C337 C345 1.433 . S
C338 H334 0.929 . S
C338 C340 1.378 . S
C338 C342 1.350 . S
C339 C342 1.463 . S
C339 C344 1.350 . S
C339 N347 1.427 . S
C340 H331 0.930 . S
C340 C338 1.378 . S
C340 C341 1.367 . S
C341 C340 1.367 . S
C341 C343 1.433 . S
C342 C338 1.350 . S
C342 C339 1.463 . S
C342 N346 1.427 . S
C343 H333 0.929 . S
C343 C341 1.433 . S
C343 N346 1.384 . S
C344 H335 0.929 . S
C344 C336 1.378 . S
C344 C339 1.350 . S
C345 H332 0.929 . S
C345 C337 1.433 . S
C345 N347 1.384 . S
N346 C342 1.427 . S
N346 C343 1.384 . S
N347 C339 1.427 . S
N347 C345 1.384 . S
H348 C354 0.930 . S
H349 C358 0.930 . S
H350 C363 0.929 . S
H351 C361 0.929 . S
H352 C356 0.929 . S
H353 C362 0.929 . S
C354 H348 0.930 . S
C354 C355 1.367 . S
C354 C362 1.378 . S
C355 C354 1.367 . S
C355 C363 1.433 . S
C356 H352 0.929 . S
C356 C358 1.378 . S
C356 C360 1.350 . S
C357 C360 1.463 . S
C357 C362 1.350 . S
C357 N365 1.427 . S
C358 H349 0.930 . S
C358 C356 1.378 . S
C358 C359 1.367 . S
C359 C358 1.367 . S
C359 C361 1.433 . S
C360 C356 1.350 . S
C360 C357 1.463 . S
C360 N364 1.427 . S
C361 H351 0.929 . S
C361 C359 1.433 . S
C361 N364 1.384 . S
C362 H353 0.929 . S
C362 C354 1.378 . S
C362 C357 1.350 . S
C363 H350 0.929 . S
C363 C355 1.433 . S
C363 N365 1.384 . S
N364 C360 1.427 . S
N364 C361 1.384 . S
N365 C357 1.427 . S
N365 C363 1.384 . S
H366 C372 0.930 . S
H367 C376 0.930 . S
H368 C381 0.929 . S
H369 C379 0.929 . S
H370 C374 0.929 . S
H371 C380 0.929 . S
C372 H366 0.930 . S
C372 C373 1.367 . S
C372 C380 1.378 . S
C373 C372 1.367 . S
C373 C381 1.433 . S
C374 H370 0.929 . S
C374 C376 1.378 . S
C374 C378 1.350 . S
C375 C378 1.463 . S
C375 C380 1.350 . S
C375 N383 1.427 . S
C376 H367 0.930 . S
C376 C374 1.378 . S
C376 C377 1.367 . S
C377 C376 1.367 . S
C377 C379 1.433 . S
C378 C374 1.350 . S
C378 C375 1.463 . S
C378 N382 1.427 . S
C379 H369 0.929 . S
C379 C377 1.433 . S
C379 N382 1.384 . S
C380 H371 0.929 . S
C380 C372 1.378 . S
C380 C375 1.350 . S
C381 H368 0.929 . S
C381 C373 1.433 . S
C381 N383 1.384 . S
N382 C378 1.427 . S
N382 C379 1.384 . S
N383 C375 1.427 . S
N383 C381 1.384 . S
H384 C390 0.930 1_455 S
H385 C394 0.930 1_655 S
H386 C399 0.929 . S
H387 C397 0.929 . S
H388 C392 0.929 . S
H389 C398 0.929 . S
C390 H384 0.930 1_655 S
C390 C391 1.367 . S
C390 C398 1.378 1_655 S
C391 C390 1.367 . S
C391 C399 1.433 . S
C392 H388 0.929 . S
C392 C394 1.378 1_655 S
C392 C396 1.350 1_655 S
C393 C396 1.463 1_655 S
C393 C398 1.350 1_655 S
C393 N401 1.427 . S
C394 H385 0.930 1_455 S
C394 C392 1.378 1_455 S
C394 C395 1.367 . S
C395 C394 1.367 . S
C395 C397 1.433 . S
C396 C392 1.350 1_455 S
C396 C393 1.463 1_455 S
C396 N400 1.427 . S
C397 H387 0.929 . S
C397 C395 1.433 . S
C397 N400 1.384 . S
C398 H389 0.929 . S
C398 C390 1.378 1_455 S
C398 C393 1.350 1_455 S
C399 H386 0.929 . S
C399 C391 1.433 . S
C399 N401 1.384 . S
N400 C396 1.427 . S
N400 C397 1.384 . S
N401 C393 1.427 . S
N401 C399 1.384 . S
H402 C408 0.930 . S
H403 C412 0.930 . S
H404 C417 0.929 . S
H405 C415 0.929 . S
H406 C410 0.929 . S
H407 C416 0.929 . S
C408 H402 0.930 . S
C408 C409 1.367 1_565 S
C408 C416 1.378 . S
C409 C408 1.367 1_545 S
C409 C417 1.433 . S
C410 H406 0.929 . S
C410 C412 1.378 . S
C410 C414 1.350 1_545 S
C411 C414 1.463 1_545 S
C411 C416 1.350 1_545 S
C411 N419 1.427 . S
C412 H403 0.930 . S
C412 C410 1.378 . S
C412 C413 1.367 1_545 S
C413 C412 1.367 1_565 S
C413 C415 1.433 . S
C414 C410 1.350 1_565 S
C414 C411 1.463 1_565 S
C414 N418 1.427 . S
C415 H405 0.929 . S
C415 C413 1.433 . S
C415 N418 1.384 . S
C416 H407 0.929 . S
C416 C408 1.378 . S
C416 C411 1.350 1_565 S
C417 H404 0.929 . S
C417 C409 1.433 . S
C417 N419 1.384 . S
N418 C414 1.427 . S
N418 C415 1.384 . S
N419 C411 1.427 . S
N419 C417 1.384 . S
H420 C426 0.930 . S
H421 C430 0.930 . S
H422 C435 0.929 . S
H423 C433 0.929 . S
H424 C428 0.929 . S
H425 C434 0.929 . S
C426 H420 0.930 . S
C426 C427 1.367 . S
C426 C434 1.378 . S
C427 C426 1.367 . S
C427 C435 1.433 1_455 S
C428 H424 0.929 . S
C428 C430 1.378 . S
C428 C432 1.350 . S
C429 C432 1.463 1_455 S
C429 C434 1.350 . S
C429 N437 1.427 1_455 S
C430 H421 0.930 . S
C430 C428 1.378 . S
C430 C431 1.367 . S
C431 C430 1.367 . S
C431 C433 1.433 1_655 S
C432 C428 1.350 . S
C432 C429 1.463 1_655 S
C432 N436 1.427 1_655 S
C433 H423 0.929 . S
C433 C431 1.433 1_455 S
C433 N436 1.384 . S
C434 H425 0.929 . S
C434 C426 1.378 . S
C434 C429 1.350 . S
C435 H422 0.929 . S
C435 C427 1.433 1_655 S
C435 N437 1.384 . S
N436 C432 1.427 1_455 S
N436 C433 1.384 . S
N437 C429 1.427 1_655 S
N437 C435 1.384 . S
H438 C444 0.930 . S
H439 C448 0.930 . S
H440 C453 0.929 . S
H441 C451 0.929 . S
H442 C446 0.929 . S
H443 C452 0.929 . S
C444 H438 0.930 . S
C444 C445 1.367 1_565 S
C444 C452 1.378 . S
C445 C444 1.367 1_545 S
C445 C453 1.433 . S
C446 H442 0.929 . S
C446 C448 1.378 . S
C446 C450 1.350 1_545 S
C447 C450 1.463 1_545 S
C447 C452 1.350 1_545 S
C447 N455 1.427 . S
C448 H439 0.930 . S
C448 C446 1.378 . S
C448 C449 1.367 1_545 S
C449 C448 1.367 1_565 S
C449 C451 1.433 . S
C450 C446 1.350 1_565 S
C450 C447 1.463 1_565 S
C450 N454 1.427 . S
C451 H441 0.929 . S
C451 C449 1.433 . S
C451 N454 1.384 . S
C452 H443 0.929 . S
C452 C444 1.378 . S
C452 C447 1.350 1_565 S
C453 H440 0.929 . S
C453 C445 1.433 . S
C453 N455 1.384 . S
N454 C450 1.427 . S
N454 C451 1.384 . S
N455 C447 1.427 . S
N455 C453 1.384 . S
H456 C462 0.930 . S
H457 C466 0.930 . S
H458 C471 0.929 . S
H459 C469 0.929 . S
H460 C464 0.929 . S
H461 C470 0.929 . S
C462 H456 0.930 . S
C462 C463 1.367 . S
C462 C470 1.378 1_545 S
C463 C462 1.367 . S
C463 C471 1.433 . S
C464 H460 0.929 . S
C464 C466 1.378 1_545 S
C464 C468 1.350 1_545 S
C465 C468 1.463 1_545 S
C465 C470 1.350 1_545 S
C465 N473 1.427 . S
C466 H457 0.930 . S
C466 C464 1.378 1_565 S
C466 C467 1.367 . S
C467 C466 1.367 . S
C467 C469 1.433 . S
C468 C464 1.350 1_565 S
C468 C465 1.463 1_565 S
C468 N472 1.427 . S
C469 H459 0.929 . S
C469 C467 1.433 . S
C469 N472 1.384 . S
C470 H461 0.929 . S
C470 C462 1.378 1_565 S
C470 C465 1.350 1_565 S
C471 H458 0.929 . S
C471 C463 1.433 . S
C471 N473 1.384 . S
N472 C468 1.427 . S
N472 C469 1.384 . S
N473 C465 1.427 . S
N473 C471 1.384 . S
H474 C480 0.930 . S
H475 C484 0.930 . S
H476 C489 0.929 . S
H477 C487 0.929 . S
H478 C482 0.929 . S
H479 C488 0.929 . S
C480 H474 0.930 . S
C480 C481 1.367 1_655 S
C480 C488 1.378 . S
C481 C480 1.367 1_455 S
C481 C489 1.433 . S
C482 H478 0.929 . S
C482 C484 1.378 . S
C482 C486 1.350 1_455 S
C483 C486 1.463 1_455 S
C483 C488 1.350 1_455 S
C483 N491 1.427 . S
C484 H475 0.930 . S
C484 C482 1.378 . S
C484 C485 1.367 1_455 S
C485 C484 1.367 1_655 S
C485 C487 1.433 . S
C486 C482 1.350 1_655 S
C486 C483 1.463 1_655 S
C486 N490 1.427 . S
C487 H477 0.929 . S
C487 C485 1.433 . S
C487 N490 1.384 . S
C488 H479 0.929 . S
C488 C480 1.378 . S
C488 C483 1.350 1_655 S
C489 H476 0.929 . S
C489 C481 1.433 . S
C489 N491 1.384 . S
N490 C486 1.427 . S
N490 C487 1.384 . S
N491 C483 1.427 . S
N491 C489 1.384 . S
H492 C498 0.930 . S
H493 C502 0.930 . S
H494 C507 0.929 . S
H495 C505 0.929 . S
H496 C500 0.929 . S
H497 C506 0.929 . S
C498 H492 0.930 . S
C498 C499 1.367 1_565 S
C498 C506 1.378 . S
C499 C498 1.367 1_545 S
C499 C507 1.433 . S
C500 H496 0.929 . S
C500 C502 1.378 . S
C500 C504 1.350 1_545 S
C501 C504 1.463 1_545 S
C501 C506 1.350 1_545 S
C501 N509 1.427 . S
C502 H493 0.930 . S
C502 C500 1.378 . S
C502 C503 1.367 1_545 S
C503 C502 1.367 1_565 S
C503 C505 1.433 . S
C504 C500 1.350 1_565 S
C504 C501 1.463 1_565 S
C504 N508 1.427 . S
C505 H495 0.929 . S
C505 C503 1.433 . S
C505 N508 1.384 . S
C506 H497 0.929 . S
C506 C498 1.378 . S
C506 C501 1.350 1_565 S
C507 H494 0.929 . S
C507 C499 1.433 . S
C507 N509 1.384 . S
N508 C504 1.427 . S
N508 C505 1.384 . S
N509 C501 1.427 . S
N509 C507 1.384 . S
H510 C516 0.930 . S
H511 C520 0.930 . S
H512 C525 0.929 1_455 S
H513 C523 0.929 1_655 S
H514 C518 0.929 . S
H515 C524 0.929 . S
C516 H510 0.930 . S
C516 C517 1.367 . S
C516 C524 1.378 . S
C517 C516 1.367 . S
C517 C525 1.433 . S
C518 H514 0.929 . S
C518 C520 1.378 . S
C518 C522 1.350 . S
C519 C522 1.463 1_655 S
C519 C524 1.350 . S
C519 N527 1.427 1_655 S
C520 H511 0.930 . S
C520 C518 1.378 . S
C520 C521 1.367 . S
C521 C520 1.367 . S
C521 C523 1.433 . S
C522 C518 1.350 . S
C522 C519 1.463 1_455 S
C522 N526 1.427 1_455 S
C523 H513 0.929 1_455 S
C523 C521 1.433 . S
C523 N526 1.384 1_455 S
C524 H515 0.929 . S
C524 C516 1.378 . S
C524 C519 1.350 . S
C525 H512 0.929 1_655 S
C525 C517 1.433 . S
C525 N527 1.384 1_655 S
N526 C522 1.427 1_655 S
N526 C523 1.384 1_655 S
N527 C519 1.427 1_455 S
N527 C525 1.384 1_455 S
H528 C534 0.930 . S
H529 C538 0.930 . S
H530 C543 0.929 . S
H531 C541 0.929 . S
H532 C536 0.929 . S
H533 C542 0.929 . S
C534 H528 0.930 . S
C534 C535 1.367 . S
C534 C542 1.378 . S
C535 C534 1.367 . S
C535 C543 1.433 1_554 S
C536 H532 0.929 . S
C536 C538 1.378 . S
C536 C540 1.350 . S
C537 C540 1.463 1_554 S
C537 C542 1.350 . S
C537 N545 1.427 1_554 S
C538 H529 0.930 . S
C538 C536 1.378 . S
C538 C539 1.367 . S
C539 C538 1.367 . S
C539 C541 1.433 1_556 S
C540 C536 1.350 . S
C540 C537 1.463 1_556 S
C540 N544 1.427 1_556 S
C541 H531 0.929 . S
C541 C539 1.433 1_554 S
C541 N544 1.384 . S
C542 H533 0.929 . S
C542 C534 1.378 . S
C542 C537 1.350 . S
C543 H530 0.929 . S
C543 C535 1.433 1_556 S
C543 N545 1.384 . S
N544 C540 1.427 1_554 S
N544 C541 1.384 . S
N545 C537 1.427 1_556 S
N545 C543 1.384 . S
H546 C552 0.930 . S
H547 C556 0.930 . S
H548 C561 0.929 . S
H549 C559 0.929 . S
H550 C554 0.929 . S
H551 C560 0.929 . S
C552 H546 0.930 . S
C552 C553 1.367 . S
C552 C560 1.378 . S
C553 C552 1.367 . S
C553 C561 1.433 1_556 S
C554 H550 0.929 . S
C554 C556 1.378 . S
C554 C558 1.350 . S
C555 C558 1.463 1_556 S
C555 C560 1.350 . S
C555 N563 1.427 1_556 S
C556 H547 0.930 . S
C556 C554 1.378 . S
C556 C557 1.367 . S
C557 C556 1.367 . S
C557 C559 1.433 1_554 S
C558 C554 1.350 . S
C558 C555 1.463 1_554 S
C558 N562 1.427 1_554 S
C559 H549 0.929 . S
C559 C557 1.433 1_556 S
C559 N562 1.384 . S
C560 H551 0.929 . S
C560 C552 1.378 . S
C560 C555 1.350 . S
C561 H548 0.929 . S
C561 C553 1.433 1_554 S
C561 N563 1.384 . S
N562 C558 1.427 1_556 S
N562 C559 1.384 . S
N563 C555 1.427 1_554 S
N563 C561 1.384 . S
H564 C570 0.930 . S
H565 C574 0.930 . S
H566 C579 0.929 . S
H567 C577 0.929 . S
H568 C572 0.929 . S
H569 C578 0.929 . S
C570 H564 0.930 . S
C570 C571 1.367 . S
C570 C578 1.378 . S
C571 C570 1.367 . S
C571 C579 1.433 1_556 S
C572 H568 0.929 . S
C572 C574 1.378 . S
C572 C576 1.350 . S
C573 C576 1.463 1_556 S
C573 C578 1.350 . S
C573 N581 1.427 1_556 S
C574 H565 0.930 . S
C574 C572 1.378 . S
C574 C575 1.367 . S
C575 C574 1.367 . S
C575 C577 1.433 1_554 S
C576 C572 1.350 . S
C576 C573 1.463 1_554 S
C576 N580 1.427 1_554 S
C577 H567 0.929 . S
C577 C575 1.433 1_556 S
C577 N580 1.384 . S
C578 H569 0.929 . S
C578 C570 1.378 . S
C578 C573 1.350 . S
C579 H566 0.929 . S
C579 C571 1.433 1_554 S
C579 N581 1.384 . S
N580 C576 1.427 1_556 S
N580 C577 1.384 . S
N581 C573 1.427 1_554 S
N581 C579 1.384 . S
H582 C588 0.930 . S
H583 C592 0.930 . S
H584 C597 0.929 . S
H585 C595 0.929 . S
H586 C590 0.929 . S
H587 C596 0.929 . S
C588 H582 0.930 . S
C588 C589 1.367 . S
C588 C596 1.378 . S
C589 C588 1.367 . S
C589 C597 1.433 1_554 S
C590 H586 0.929 . S
C590 C592 1.378 . S
C590 C594 1.350 . S
C591 C594 1.463 1_554 S
C591 C596 1.350 . S
C591 N599 1.427 1_554 S
C592 H583 0.930 . S
C592 C590 1.378 . S
C592 C593 1.367 . S
C593 C592 1.367 . S
C593 C595 1.433 1_556 S
C594 C590 1.350 . S
C594 C591 1.463 1_556 S
C594 N598 1.427 1_556 S
C595 H585 0.929 . S
C595 C593 1.433 1_554 S
C595 N598 1.384 . S
C596 H587 0.929 . S
C596 C588 1.378 . S
C596 C591 1.350 . S
C597 H584 0.929 . S
C597 C589 1.433 1_556 S
C597 N599 1.384 . S
N598 C594 1.427 1_554 S
N598 C595 1.384 . S
N599 C591 1.427 1_556 S
N599 C597 1.384 . S
C175 C12 1.444 . S
C179 C99 1.449 . S
C193 C27 1.450 . S
C197 C69 1.442 . S
C211 C71 1.443 . S
C215 C29 1.449 . S
C229 C97 1.448 . S
C233 C55 1.445 . S
C247 C113 1.445 . S
C251 C110 1.448 . S
C265 C126 1.448 . S
C269 C56 1.444 . S
C283 C140 1.442 . S
C287 C82 1.450 . S
C301 C167 1.444 . S
C305 C84 1.447 . S
C319 C14 1.444 . S
C323 C139 1.449 . S
C337 C153 1.444 . S
C341 C40 1.448 . S
C355 C42 1.444 . S
C359 C154 1.449 . S
C373 C124 1.448 . S
C377 C1 1.445 . S
C391 C85 1.733 . S
C395 C0 1.730 . S
C409 C111 1.734 . S
C413 C15 1.734 . S
C427 C57 1.728 . S
C431 C41 1.728 . S
C445 C43 1.733 . S
C449 C83 1.733 . S
C463 C98 1.731 . S
C467 C70 1.730 . S
C481 C68 1.733 . S
C485 C96 1.734 . S
C499 C54 1.733 . S
C503 C26 1.733 . S
C517 C28 1.730 . S
C521 C13 1.728 . S
C535 C112 1.726 . S
C539 C138 1.726 . S
C553 C127 1.725 . S
C557 C152 1.727 . S
C571 C155 1.727 . S
C575 C141 1.727 . S
C589 C125 1.726 . S
C593 C166 1.728 . S
