# Generated by pormake.
# Topology ghw, (5)-cn, num edge types: 1
# Building blocks:
#     Node 0, Type 0, BuildingBlock: XOMCOT_clean_sbu_0, # of connection points: 5
#     Node 1, Type 0, BuildingBlock: XOMCOT_clean_sbu_0, # of connection points: 5
#     Node 2, Type 0, BuildingBlock: XOMCOT_clean_sbu_0, # of connection points: 5
#     Node 3, Type 0, BuildingBlock: XOMCOT_clean_sbu_0, # of connection points: 5
#     Node 4, Type 0, BuildingBlock: XOMCOT_clean_sbu_0, # of connection points: 5
#     Node 5, Type 0, BuildingBlock: XOMCOT_clean_sbu_0, # of connection points: 5
#     Node 6, Type 0, BuildingBlock: XOMCOT_clean_sbu_0, # of connection points: 5
#     Node 7, Type 0, BuildingBlock: XOMCOT_clean_sbu_0, # of connection points: 5
#     Node 8, Type 0, BuildingBlock: XOMCOT_clean_sbu_0, # of connection points: 5
#     Node 9, Type 0, BuildingBlock: XOMCOT_clean_sbu_0, # of connection points: 5
#     Node 10, Type 0, BuildingBlock: XOMCOT_clean_sbu_0, # of connection points: 5
#     Node 11, Type 0, BuildingBlock: XOMCOT_clean_sbu_0, # of connection points: 5
#     Node 12, Type 0, BuildingBlock: XOMCOT_clean_sbu_0, # of connection points: 5
#     Node 13, Type 0, BuildingBlock: XOMCOT_clean_sbu_0, # of connection points: 5
#     Node 14, Type 0, BuildingBlock: XOMCOT_clean_sbu_0, # of connection points: 5
#     Node 15, Type 0, BuildingBlock: XOMCOT_clean_sbu_0, # of connection points: 5
#     Edge 16, Type (0, 0), BuildingBlock: MIFKUJ_clean_linker_0, # of connection points: 2
#     Edge 17, Type (0, 0), BuildingBlock: MIFKUJ_clean_linker_0, # of connection points: 2
#     Edge 18, Type (0, 0), BuildingBlock: MIFKUJ_clean_linker_0, # of connection points: 2
#     Edge 19, Type (0, 0), BuildingBlock: MIFKUJ_clean_linker_0, # of connection points: 2
#     Edge 20, Type (0, 0), BuildingBlock: MIFKUJ_clean_linker_0, # of connection points: 2
#     Edge 21, Type (0, 0), BuildingBlock: MIFKUJ_clean_linker_0, # of connection points: 2
#     Edge 22, Type (0, 0), BuildingBlock: MIFKUJ_clean_linker_0, # of connection points: 2
#     Edge 23, Type (0, 0), BuildingBlock: MIFKUJ_clean_linker_0, # of connection points: 2
#     Edge 24, Type (0, 0), BuildingBlock: MIFKUJ_clean_linker_0, # of connection points: 2
#     Edge 25, Type (0, 0), BuildingBlock: MIFKUJ_clean_linker_0, # of connection points: 2
#     Edge 26, Type (0, 0), BuildingBlock: MIFKUJ_clean_linker_0, # of connection points: 2
#     Edge 27, Type (0, 0), BuildingBlock: MIFKUJ_clean_linker_0, # of connection points: 2
#     Edge 28, Type (0, 0), BuildingBlock: MIFKUJ_clean_linker_0, # of connection points: 2
#     Edge 29, Type (0, 0), BuildingBlock: MIFKUJ_clean_linker_0, # of connection points: 2
#     Edge 30, Type (0, 0), BuildingBlock: MIFKUJ_clean_linker_0, # of connection points: 2
#     Edge 31, Type (0, 0), BuildingBlock: MIFKUJ_clean_linker_0, # of connection points: 2
#     Edge 32, Type (0, 0), BuildingBlock: MIFKUJ_clean_linker_0, # of connection points: 2
#     Edge 33, Type (0, 0), BuildingBlock: MIFKUJ_clean_linker_0, # of connection points: 2
#     Edge 34, Type (0, 0), BuildingBlock: MIFKUJ_clean_linker_0, # of connection points: 2
#     Edge 35, Type (0, 0), BuildingBlock: MIFKUJ_clean_linker_0, # of connection points: 2
#     Edge 36, Type (0, 0), BuildingBlock: MIFKUJ_clean_linker_0, # of connection points: 2
#     Edge 37, Type (0, 0), BuildingBlock: MIFKUJ_clean_linker_0, # of connection points: 2
#     Edge 38, Type (0, 0), BuildingBlock: MIFKUJ_clean_linker_0, # of connection points: 2
#     Edge 39, Type (0, 0), BuildingBlock: MIFKUJ_clean_linker_0, # of connection points: 2
#     Edge 40, Type (0, 0), BuildingBlock: MIFKUJ_clean_linker_0, # of connection points: 2
#     Edge 41, Type (0, 0), BuildingBlock: MIFKUJ_clean_linker_0, # of connection points: 2
#     Edge 42, Type (0, 0), BuildingBlock: MIFKUJ_clean_linker_0, # of connection points: 2
#     Edge 43, Type (0, 0), BuildingBlock: MIFKUJ_clean_linker_0, # of connection points: 2
#     Edge 44, Type (0, 0), BuildingBlock: MIFKUJ_clean_linker_0, # of connection points: 2
#     Edge 45, Type (0, 0), BuildingBlock: MIFKUJ_clean_linker_0, # of connection points: 2
#     Edge 46, Type (0, 0), BuildingBlock: MIFKUJ_clean_linker_0, # of connection points: 2
#     Edge 47, Type (0, 0), BuildingBlock: MIFKUJ_clean_linker_0, # of connection points: 2
#     Edge 48, Type (0, 0), BuildingBlock: MIFKUJ_clean_linker_0, # of connection points: 2
#     Edge 49, Type (0, 0), BuildingBlock: MIFKUJ_clean_linker_0, # of connection points: 2
#     Edge 50, Type (0, 0), BuildingBlock: MIFKUJ_clean_linker_0, # of connection points: 2
#     Edge 51, Type (0, 0), BuildingBlock: MIFKUJ_clean_linker_0, # of connection points: 2
#     Edge 52, Type (0, 0), BuildingBlock: MIFKUJ_clean_linker_0, # of connection points: 2
#     Edge 53, Type (0, 0), BuildingBlock: MIFKUJ_clean_linker_0, # of connection points: 2
#     Edge 54, Type (0, 0), BuildingBlock: MIFKUJ_clean_linker_0, # of connection points: 2
#     Edge 55, Type (0, 0), BuildingBlock: MIFKUJ_clean_linker_0, # of connection points: 2
# Relax obj value: 0.149
# Max RMSD: 0.189
# Mean RMSD: 0.189
data_MOF--net-ghw--node1-XOMCOT_clean_sbu_0--edge1-MIFKUJ_clean_linker_0
_symmetry_space_group_name_H-M    P1
_symmetry_Int_Tables_number       1
_symmetry_cell_setting            triclinic
loop_
_symmetry_equiv_pos_as_xyz
'x, y, z'
_cell_length_a     41.618965
_cell_length_b     53.304888
_cell_length_c     44.262993
_cell_angle_alpha  89.974544
_cell_angle_beta   91.362995
_cell_angle_gamma 90.025428
loop_
_atom_site_label
_atom_site_type_symbol
_atom_site_fract_x
_atom_site_fract_y
_atom_site_fract_z
_atom_type_partial_charge
Co0 Co 0.12779 0.13519 0.40891 0.0
C1 C 0.19 0.10665 0.40928 0.0
C2 C 0.1634 0.10183 0.44972 0.0
C3 C 0.19178 0.08883 0.45289 0.0
N4 N 0.16207 0.11284 0.42227 0.0
N5 N 0.20845 0.09188 0.42743 0.0
H6 H 0.19768 0.11357 0.38778 0.0
H7 H 0.14508 0.10351 0.46654 0.0
C8 C 0.09678 0.08533 0.41954 0.0
O9 O 0.11969 0.07494 0.4039 0.0
N10 N 0.09342 0.15745 0.39654 0.0
C11 C 0.09417 0.17439 0.37398 0.0
C12 C 0.06346 0.18323 0.36862 0.0
C13 C 0.06253 0.15642 0.40492 0.0
N14 N 0.04367 0.17184 0.38806 0.0
C15 C 0.15312 0.13104 0.34961 0.0
C16 C 0.10084 0.10764 0.3224 0.0
C17 C 0.12611 0.11561 0.30417 0.0
C18 C 0.15256 0.12729 0.31842 0.0
C19 C 0.10232 0.11188 0.3537 0.0
N20 N 0.12861 0.12301 0.36718 0.0
H21 H 0.17272 0.14182 0.35928 0.0
H22 H 0.08144 0.10742 0.36664 0.0
H23 H 0.11523 0.17899 0.36124 0.0
H24 H 0.05361 0.14356 0.42167 0.0
O25 O 0.15836 0.1624 0.40568 0.0
O26 O 0.13242 0.1529 0.44716 0.0
O27 O 0.09536 0.10922 0.42191 0.0
C28 C 0.15332 0.16712 0.43395 0.0
H29 H 0.19969 0.07825 0.47257 0.0
H30 H 0.05607 0.19637 0.35115 0.0
H31 H 0.07966 0.09878 0.31255 0.0
H32 H 0.1721 0.13479 0.30545 0.0
Co33 Co 0.122 0.1401 0.87179 0.0
C34 C 0.0598 0.11167 0.87035 0.0
C35 C 0.08811 0.10562 0.83121 0.0
C36 C 0.05959 0.09295 0.82729 0.0
N37 N 0.08847 0.11716 0.85834 0.0
N38 N 0.04185 0.09678 0.85192 0.0
H39 H 0.05122 0.11936 0.89115 0.0
H40 H 0.10707 0.10692 0.81498 0.0
C41 C 0.15481 0.09067 0.86176 0.0
O42 O 0.13221 0.07962 0.87718 0.0
N43 N 0.15573 0.16294 0.88398 0.0
C44 C 0.15479 0.18069 0.90557 0.0
C45 C 0.18495 0.19123 0.90875 0.0
C46 C 0.18608 0.16301 0.87416 0.0
N47 N 0.2046 0.18001 0.889 0.0
C48 C 0.09573 0.13609 0.9308 0.0
C49 C 0.14708 0.11218 0.9589 0.0
C50 C 0.12121 0.11977 0.97665 0.0
C51 C 0.09534 0.13186 0.96192 0.0
C52 C 0.14663 0.11701 0.92768 0.0
N53 N 0.12072 0.12826 0.91371 0.0
H54 H 0.07636 0.1469 0.92081 0.0
H55 H 0.16786 0.11268 0.91518 0.0
H56 H 0.13391 0.18515 0.91862 0.0
H57 H 0.19474 0.15014 0.85734 0.0
O58 O 0.09079 0.16696 0.87409 0.0
O59 O 0.11761 0.15729 0.8332 0.0
O60 O 0.1553 0.11458 0.85952 0.0
C61 C 0.09625 0.17143 0.84581 0.0
H62 H 0.05223 0.08218 0.80759 0.0
H63 H 0.1919 0.20574 0.92469 0.0
H64 H 0.16789 0.10302 0.96903 0.0
H65 H 0.07539 0.13918 0.97445 0.0
Co66 Co 0.86911 0.88044 0.61764 0.0
C67 C 0.80852 0.91114 0.61829 0.0
C68 C 0.83425 0.91488 0.57725 0.0
C69 C 0.80646 0.92881 0.57463 0.0
N70 N 0.83565 0.90383 0.60471 0.0
N71 N 0.79048 0.92647 0.60057 0.0
H72 H 0.80089 0.90477 0.63998 0.0
H73 H 0.85205 0.9126 0.56006 0.0
C74 C 0.90168 0.92995 0.60978 0.0
O75 O 0.87888 0.94015 0.62572 0.0
N76 N 0.90269 0.85726 0.62937 0.0
C77 C 0.9013 0.83949 0.65095 0.0
C78 C 0.93171 0.82985 0.65583 0.0
C79 C 0.93363 0.85801 0.62113 0.0
N80 N 0.95196 0.8416 0.63711 0.0
C81 C 0.84248 0.88443 0.67645 0.0
C82 C 0.89596 0.90393 0.70595 0.0
C83 C 0.86916 0.8975 0.72325 0.0
C84 C 0.84189 0.8883 0.70756 0.0
C85 C 0.89497 0.90077 0.67441 0.0
N86 N 0.86816 0.89147 0.65984 0.0
H87 H 0.82244 0.87468 0.66599 0.0
H88 H 0.91658 0.90433 0.66208 0.0
H89 H 0.88002 0.8348 0.66333 0.0
H90 H 0.94298 0.87133 0.60513 0.0
O91 O 0.83772 0.85372 0.6195 0.0
O92 O 0.86456 0.86379 0.57873 0.0
O93 O 0.90243 0.90616 0.60617 0.0
C94 C 0.84317 0.84953 0.59117 0.0
H95 H 0.79844 0.93951 0.55508 0.0
H96 H 0.93855 0.81589 0.67253 0.0
H97 H 0.91817 0.91025 0.7166 0.0
H98 H 0.82019 0.88329 0.71908 0.0
Co99 Co 0.87712 0.86934 0.15493 0.0
C100 C 0.93969 0.89457 0.14649 0.0
C101 C 0.9151 0.91005 0.18398 0.0
C102 C 0.94422 0.92214 0.18155 0.0
N103 N 0.91186 0.89325 0.16134 0.0
N104 N 0.95966 0.91238 0.15779 0.0
H105 H 0.94629 0.88168 0.12909 0.0
H106 H 0.89777 0.91302 0.20145 0.0
C107 C 0.84313 0.91893 0.16363 0.0
O108 O 0.86276 0.92963 0.14468 0.0
N109 N 0.84289 0.84533 0.14892 0.0
C110 C 0.84327 0.82517 0.13062 0.0
C111 C 0.81346 0.81395 0.13078 0.0
C112 C 0.81305 0.84612 0.16004 0.0
N113 N 0.79443 0.82721 0.14921 0.0
C114 C 0.89593 0.87019 0.09302 0.0
C115 C 0.8428 0.89462 0.06893 0.0
C116 C 0.86802 0.88837 0.04983 0.0
C117 C 0.89458 0.87569 0.06224 0.0
C118 C 0.84551 0.88921 0.09998 0.0
N119 N 0.8727 0.87829 0.11202 0.0
H120 H 0.91547 0.85868 0.10125 0.0
H121 H 0.82535 0.89329 0.11404 0.0
H122 H 0.86353 0.8194 0.11745 0.0
H123 H 0.80473 0.86079 0.17475 0.0
O124 O 0.90845 0.84262 0.15188 0.0
O125 O 0.88685 0.85513 0.19446 0.0
O126 O 0.84483 0.8953 0.16844 0.0
C127 C 0.90664 0.84016 0.181 0.0
H128 H 0.95335 0.93666 0.1965 0.0
H129 H 0.80629 0.79755 0.1179 0.0
H130 H 0.82126 0.90359 0.05997 0.0
H131 H 0.91378 0.86931 0.04803 0.0
Co132 Co 0.12716 0.63558 0.90447 0.0
C133 C 0.18972 0.60805 0.90511 0.0
C134 C 0.16325 0.60216 0.94541 0.0
C135 C 0.1923 0.58999 0.94852 0.0
N136 N 0.16145 0.61327 0.91803 0.0
N137 N 0.20885 0.59372 0.9231 0.0
H138 H 0.19727 0.61564 0.88391 0.0
H139 H 0.14494 0.60337 0.96229 0.0
C140 C 0.09622 0.58583 0.91586 0.0
O141 O 0.11948 0.57532 0.90079 0.0
N142 N 0.09312 0.65799 0.89153 0.0
C143 C 0.09536 0.67573 0.86999 0.0
C144 C 0.06524 0.68542 0.86402 0.0
C145 C 0.06177 0.65721 0.89857 0.0
N146 N 0.04416 0.67371 0.88193 0.0
C147 C 0.15266 0.63098 0.84504 0.0
C148 C 0.10183 0.60503 0.81884 0.0
C149 C 0.12737 0.61226 0.80055 0.0
C150 C 0.15298 0.62544 0.81422 0.0
C151 C 0.10247 0.61099 0.84972 0.0
N152 N 0.12825 0.62308 0.86284 0.0
H153 H 0.17164 0.64266 0.85423 0.0
H154 H 0.08147 0.60678 0.86259 0.0
H155 H 0.11718 0.68056 0.85854 0.0
H156 H 0.05174 0.64406 0.91441 0.0
O157 O 0.15812 0.66267 0.90164 0.0
O158 O 0.13137 0.65331 0.94268 0.0
O159 O 0.09444 0.60976 0.91749 0.0
C160 C 0.1527 0.66738 0.92988 0.0
H161 H 0.20082 0.57967 0.96818 0.0
H162 H 0.05921 0.69962 0.84735 0.0
H163 H 0.08116 0.59523 0.80934 0.0
H164 H 0.17257 0.6325 0.80097 0.0
Co165 Co 0.12349 0.62499 0.36969 0.0
C166 C 0.06158 0.59658 0.37148 0.0
C167 C 0.08558 0.5922 0.32952 0.0
C168 C 0.05671 0.57962 0.32754 0.0
N169 N 0.08873 0.60274 0.35715 0.0
N170 N 0.04178 0.58236 0.35401 0.0
H171 H 0.05528 0.60324 0.39349 0.0
H172 H 0.10285 0.59403 0.31177 0.0
C173 C 0.1537 0.5749 0.35864 0.0
O174 O 0.13026 0.56453 0.37363 0.0
N175 N 0.15802 0.64729 0.38149 0.0
C176 C 0.15709 0.66485 0.40332 0.0
C177 C 0.18743 0.67474 0.40747 0.0
C178 C 0.1887 0.64687 0.37238 0.0
N179 N 0.20723 0.66337 0.38805 0.0
C180 C 0.099 0.62222 0.42946 0.0
C181 C 0.14906 0.59566 0.45602 0.0
C182 C 0.12426 0.60422 0.47441 0.0
C183 C 0.09907 0.61773 0.4605 0.0
C184 C 0.14818 0.60079 0.42488 0.0
N185 N 0.12278 0.61326 0.41166 0.0
H186 H 0.08009 0.63383 0.42001 0.0
H187 H 0.16873 0.59562 0.41188 0.0
H188 H 0.13606 0.66951 0.41607 0.0
H189 H 0.19764 0.63398 0.35568 0.0
O190 O 0.09312 0.65239 0.37242 0.0
O191 O 0.11892 0.64222 0.33112 0.0
O192 O 0.1557 0.5988 0.35691 0.0
C193 C 0.09818 0.65673 0.34405 0.0
H194 H 0.04719 0.56963 0.30801 0.0
H195 H 0.1945 0.68886 0.42389 0.0
H196 H 0.16937 0.58547 0.46557 0.0
H197 H 0.08003 0.62581 0.4736 0.0
Co198 Co 0.86744 0.38494 0.11999 0.0
C199 C 0.80487 0.41238 0.12128 0.0
C200 C 0.83166 0.42074 0.08181 0.0
C201 C 0.80284 0.43334 0.07982 0.0
N202 N 0.83322 0.40793 0.10808 0.0
N203 N 0.78599 0.42805 0.10468 0.0
H204 H 0.7972 0.40333 0.14159 0.0
H205 H 0.85004 0.42054 0.06494 0.0
C206 C 0.89995 0.43449 0.1097 0.0
O207 O 0.87729 0.44535 0.12521 0.0
N208 N 0.90142 0.36195 0.13114 0.0
C209 C 0.90055 0.34449 0.1531 0.0
C210 C 0.9306 0.3339 0.15637 0.0
C211 C 0.93173 0.36162 0.12108 0.0
N212 N 0.95014 0.34474 0.13626 0.0
C213 C 0.8435 0.38855 0.18011 0.0
C214 C 0.89486 0.4141 0.20597 0.0
C215 C 0.86954 0.40686 0.22455 0.0
C216 C 0.84374 0.39375 0.21104 0.0
C217 C 0.89376 0.40831 0.17503 0.0
N218 N 0.86765 0.39652 0.16208 0.0
H219 H 0.82428 0.37706 0.17102 0.0
H220 H 0.91461 0.4125 0.16195 0.0
H221 H 0.8798 0.34036 0.16649 0.0
H222 H 0.94054 0.37423 0.104 0.0
O223 O 0.83629 0.35797 0.12269 0.0
O224 O 0.86193 0.36815 0.08128 0.0
O225 O 0.90049 0.41058 0.10719 0.0
C226 C 0.84105 0.35375 0.09421 0.0
H227 H 0.79479 0.4451 0.06121 0.0
H228 H 0.93767 0.31966 0.17265 0.0
H229 H 0.91567 0.42386 0.21523 0.0
H230 H 0.82432 0.38656 0.22439 0.0
Co231 Co 0.87992 0.38605 0.65543 0.0
C232 C 0.94357 0.41138 0.65738 0.0
C233 C 0.91378 0.42319 0.69348 0.0
C234 C 0.94328 0.43462 0.69708 0.0
N235 N 0.91365 0.40913 0.66809 0.0
N236 N 0.96191 0.42699 0.67443 0.0
H237 H 0.95254 0.401 0.63851 0.0
H238 H 0.89422 0.42423 0.70909 0.0
C239 C 0.84615 0.43508 0.66545 0.0
O240 O 0.86813 0.44611 0.64923 0.0
N241 N 0.84653 0.36286 0.64352 0.0
C242 C 0.84848 0.34501 0.6221 0.0
C243 C 0.81846 0.33467 0.61742 0.0
C244 C 0.81561 0.36305 0.65179 0.0
N245 N 0.79786 0.34611 0.63604 0.0
C246 C 0.90447 0.3915 0.59561 0.0
C247 C 0.85134 0.41473 0.5697 0.0
C248 C 0.87701 0.40847 0.55105 0.0
C249 C 0.90379 0.39663 0.56463 0.0
C250 C 0.85286 0.40896 0.60062 0.0
N251 N 0.8797 0.39827 0.6136 0.0
H252 H 0.92428 0.38065 0.60463 0.0
H253 H 0.83171 0.41218 0.61368 0.0
H254 H 0.86993 0.34057 0.60987 0.0
H255 H 0.80591 0.37617 0.6678 0.0
O256 O 0.91149 0.35946 0.65225 0.0
O257 O 0.88553 0.36878 0.69377 0.0
O258 O 0.84645 0.41121 0.66857 0.0
C259 C 0.9067 0.35481 0.68063 0.0
H260 H 0.95108 0.44637 0.71581 0.0
H261 H 0.81215 0.32029 0.60107 0.0
H262 H 0.82985 0.42357 0.5605 0.0
H263 H 0.92361 0.39019 0.55126 0.0
Co264 Co 0.63213 0.13311 0.90508 0.0
C265 C 0.69387 0.10526 0.90002 0.0
C266 C 0.67083 0.09822 0.94194 0.0
C267 C 0.69942 0.08526 0.94199 0.0
N268 N 0.66714 0.11048 0.91543 0.0
N269 N 0.71382 0.0897 0.91554 0.0
H270 H 0.69965 0.11354 0.87866 0.0
H271 H 0.654 0.09893 0.96017 0.0
C272 C 0.60182 0.08291 0.91655 0.0
O273 O 0.62364 0.07238 0.89972 0.0
N274 N 0.59714 0.15579 0.8953 0.0
C275 C 0.59925 0.17762 0.88015 0.0
C276 C 0.56883 0.18719 0.87567 0.0
C277 C 0.56545 0.15229 0.89962 0.0
N278 N 0.54748 0.17119 0.88777 0.0
C279 C 0.65334 0.13106 0.84392 0.0
C280 C 0.60333 0.10291 0.81985 0.0
C281 C 0.62753 0.11103 0.80047 0.0
C282 C 0.65255 0.12556 0.81306 0.0
C283 C 0.60494 0.10904 0.8507 0.0
N284 N 0.63056 0.122 0.86279 0.0
H285 H 0.67223 0.14317 0.85245 0.0
H286 H 0.58495 0.10392 0.86446 0.0
H287 H 0.62126 0.18582 0.87222 0.0
H288 H 0.55562 0.13584 0.91025 0.0
O289 O 0.66285 0.1604 0.90193 0.0
O290 O 0.63875 0.14956 0.94389 0.0
O291 O 0.60063 0.10681 0.91897 0.0
C292 C 0.65902 0.16425 0.93062 0.0
H293 H 0.70899 0.07376 0.96022 0.0
H294 H 0.56307 0.20456 0.86413 0.0
H295 H 0.58308 0.09206 0.81133 0.0
H296 H 0.67103 0.13342 0.79908 0.0
Co297 Co 0.61719 0.12151 0.36923 0.0
C298 C 0.55567 0.09341 0.37392 0.0
C299 C 0.57943 0.08562 0.33259 0.0
C300 C 0.55057 0.0729 0.33232 0.0
N301 N 0.58279 0.09824 0.35889 0.0
N302 N 0.53577 0.07781 0.35843 0.0
H303 H 0.54941 0.10213 0.39486 0.0
H304 H 0.5965 0.08609 0.31455 0.0
C305 C 0.64956 0.07187 0.35864 0.0
O306 O 0.6276 0.06097 0.375 0.0
N307 N 0.65126 0.14481 0.37919 0.0
C308 C 0.64994 0.16314 0.40007 0.0
C309 C 0.68026 0.17299 0.40444 0.0
C310 C 0.6822 0.14388 0.37088 0.0
N311 N 0.70045 0.16081 0.38613 0.0
C312 C 0.59519 0.11961 0.43003 0.0
C313 C 0.64638 0.0937 0.45557 0.0
C314 C 0.62167 0.10173 0.4744 0.0
C315 C 0.59599 0.115 0.46105 0.0
C316 C 0.64461 0.09874 0.42441 0.0
N317 N 0.61853 0.11073 0.41167 0.0
H318 H 0.576 0.13118 0.42104 0.0
H319 H 0.66491 0.09381 0.41095 0.0
H320 H 0.62873 0.16816 0.41235 0.0
H321 H 0.69161 0.13021 0.35535 0.0
O322 O 0.58591 0.14838 0.37192 0.0
O323 O 0.61052 0.13767 0.3302 0.0
O324 O 0.64991 0.09578 0.35604 0.0
C325 C 0.58983 0.15214 0.34324 0.0
H326 H 0.54102 0.06136 0.31412 0.0
H327 H 0.68712 0.18748 0.42047 0.0
H328 H 0.66714 0.08387 0.46482 0.0
H329 H 0.57708 0.12274 0.47462 0.0
Co330 Co 0.37189 0.88084 0.12007 0.0
C331 C 0.30948 0.90817 0.11595 0.0
C332 C 0.33834 0.91352 0.07702 0.0
C333 C 0.30881 0.9243 0.07136 0.0
N334 N 0.33886 0.90351 0.10505 0.0
N335 N 0.29086 0.92092 0.09591 0.0
H336 H 0.30063 0.9007 0.13678 0.0
H337 H 0.35751 0.91178 0.06108 0.0
C338 C 0.40467 0.92952 0.10752 0.0
O339 O 0.38214 0.94073 0.12285 0.0
N340 N 0.40493 0.85795 0.13424 0.0
C341 C 0.40078 0.83803 0.15244 0.0
C342 C 0.43035 0.82779 0.15946 0.0
C343 C 0.43694 0.85966 0.13055 0.0
N344 N 0.45318 0.84149 0.14584 0.0
C345 C 0.34603 0.88823 0.17904 0.0
C346 C 0.39853 0.91253 0.20467 0.0
C347 C 0.37265 0.90658 0.22321 0.0
C348 C 0.34614 0.89429 0.20979 0.0
C349 C 0.39753 0.90595 0.17399 0.0
N350 N 0.37104 0.89462 0.16113 0.0
H351 H 0.32635 0.87712 0.17015 0.0
H352 H 0.41882 0.90903 0.16108 0.0
H353 H 0.37793 0.8317 0.16072 0.0
H354 H 0.44819 0.87445 0.11789 0.0
O355 O 0.33964 0.85473 0.12376 0.0
O356 O 0.36725 0.86205 0.08265 0.0
O357 O 0.40548 0.90554 0.10614 0.0
C358 C 0.34509 0.84905 0.09578 0.0
H359 H 0.30062 0.93287 0.05038 0.0
H360 H 0.43452 0.81162 0.17378 0.0
H361 H 0.41981 0.92173 0.21382 0.0
H362 H 0.32614 0.8882 0.22317 0.0
Co363 Co 0.38074 0.8907 0.6536 0.0
C364 C 0.44392 0.91751 0.65296 0.0
C365 C 0.41802 0.92398 0.69346 0.0
C366 C 0.44706 0.9362 0.69595 0.0
N367 N 0.41583 0.91251 0.66634 0.0
N368 N 0.46331 0.9321 0.67044 0.0
H369 H 0.45104 0.90969 0.63173 0.0
H370 H 0.39989 0.92311 0.71054 0.0
C371 C 0.35047 0.9408 0.66583 0.0
O372 O 0.3732 0.95164 0.65036 0.0
N373 N 0.34559 0.86901 0.64178 0.0
C374 C 0.3452 0.85211 0.61921 0.0
C375 C 0.31442 0.84289 0.61568 0.0
C376 C 0.31531 0.86975 0.65184 0.0
N377 N 0.29556 0.85411 0.63612 0.0
C378 C 0.405 0.89469 0.59375 0.0
C379 C 0.35503 0.922 0.56818 0.0
C380 C 0.37989 0.91401 0.54946 0.0
C381 C 0.40499 0.90007 0.56288 0.0
C382 C 0.35582 0.91596 0.5991 0.0
N383 N 0.38122 0.90317 0.61187 0.0
H384 H 0.42374 0.88269 0.60272 0.0
H385 H 0.33526 0.92076 0.61228 0.0
H386 H 0.36555 0.84759 0.60547 0.0
H387 H 0.30782 0.88187 0.66993 0.0
O388 O 0.41064 0.863 0.65001 0.0
O389 O 0.38551 0.87289 0.69175 0.0
O390 O 0.34903 0.91687 0.66735 0.0
C391 C 0.40586 0.85835 0.67837 0.0
H392 H 0.4557 0.94692 0.71525 0.0
H393 H 0.30637 0.82981 0.59842 0.0
H394 H 0.33475 0.93247 0.55904 0.0
H395 H 0.42402 0.89231 0.54949 0.0
Co396 Co 0.633 0.63083 0.40132 0.0
C397 C 0.69531 0.60267 0.40269 0.0
C398 C 0.66744 0.59632 0.44201 0.0
C399 C 0.69594 0.58346 0.44539 0.0
N400 N 0.66678 0.60809 0.41502 0.0
N401 N 0.71344 0.58747 0.42061 0.0
H402 H 0.70366 0.61057 0.38196 0.0
H403 H 0.64863 0.59741 0.45841 0.0
C404 C 0.60014 0.5816 0.4125 0.0
O405 O 0.62256 0.57042 0.397 0.0
N406 N 0.59926 0.6535 0.38851 0.0
C407 C 0.60033 0.6699 0.36539 0.0
C408 C 0.57 0.67962 0.36039 0.0
C409 C 0.56858 0.65369 0.39759 0.0
N410 N 0.55015 0.66936 0.38064 0.0
C411 C 0.65887 0.6256 0.34222 0.0
C412 C 0.60658 0.60216 0.31507 0.0
C413 C 0.6325 0.60905 0.29705 0.0
C414 C 0.65893 0.62078 0.31122 0.0
C415 C 0.60759 0.60721 0.34621 0.0
N416 N 0.63392 0.61826 0.35971 0.0
H417 H 0.67834 0.6366 0.35169 0.0
H418 H 0.58639 0.60339 0.35899 0.0
H419 H 0.62133 0.67361 0.35216 0.0
H420 H 0.55947 0.64158 0.41505 0.0
O421 O 0.66422 0.65765 0.39821 0.0
O422 O 0.63755 0.64862 0.43943 0.0
O423 O 0.59973 0.60554 0.41444 0.0
C424 C 0.65882 0.66259 0.42639 0.0
H425 H 0.70332 0.57232 0.46479 0.0
H426 H 0.5629 0.69267 0.34272 0.0
H427 H 0.58532 0.59347 0.30512 0.0
H428 H 0.6789 0.62751 0.29822 0.0
Co429 Co 0.61914 0.63949 0.866 0.0
C430 C 0.55732 0.6115 0.86939 0.0
C431 C 0.5816 0.60433 0.82818 0.0
C432 C 0.55272 0.59167 0.82728 0.0
N433 N 0.58468 0.6165 0.85481 0.0
N434 N 0.53755 0.5962 0.85329 0.0
H435 H 0.5509 0.61986 0.89051 0.0
H436 H 0.59895 0.60501 0.81038 0.0
C437 C 0.65069 0.58978 0.85556 0.0
O438 O 0.62791 0.57954 0.87153 0.0
N439 N 0.65304 0.66267 0.87674 0.0
C440 C 0.65191 0.67986 0.89902 0.0
C441 C 0.68186 0.69045 0.90283 0.0
C442 C 0.68344 0.66325 0.86692 0.0
N443 N 0.70151 0.68002 0.88261 0.0
C444 C 0.59676 0.63645 0.92678 0.0
C445 C 0.64818 0.61032 0.95158 0.0
C446 C 0.6236 0.61801 0.97075 0.0
C447 C 0.59778 0.63144 0.95776 0.0
C448 C 0.64639 0.61604 0.92064 0.0
N449 N 0.62018 0.62803 0.9082 0.0
H450 H 0.57751 0.64808 0.91805 0.0
H451 H 0.66683 0.6116 0.90715 0.0
H452 H 0.63111 0.68362 0.91248 0.0
H453 H 0.69266 0.65076 0.84991 0.0
O454 O 0.58797 0.66638 0.86906 0.0
O455 O 0.6129 0.6562 0.82729 0.0
O456 O 0.65194 0.61368 0.85277 0.0
C457 C 0.59218 0.67054 0.84048 0.0
H458 H 0.54346 0.58035 0.80874 0.0
H459 H 0.68898 0.70418 0.91973 0.0
H460 H 0.66899 0.60028 0.96035 0.0
H461 H 0.57895 0.63901 0.97152 0.0
Co462 Co 0.3718 0.38303 0.62018 0.0
C463 C 0.30856 0.40816 0.62322 0.0
C464 C 0.33512 0.42122 0.58548 0.0
C465 C 0.30571 0.43317 0.58512 0.0
N466 N 0.3372 0.40606 0.60993 0.0
N467 N 0.28921 0.42471 0.60881 0.0
H468 H 0.30119 0.3973 0.64236 0.0
H469 H 0.35339 0.42302 0.56865 0.0
C470 C 0.40498 0.43262 0.6098 0.0
O471 O 0.38374 0.44381 0.62668 0.0
N472 N 0.406 0.35995 0.63006 0.0
C473 C 0.40561 0.34246 0.65206 0.0
C474 C 0.43615 0.33294 0.65599 0.0
C475 C 0.43649 0.3606 0.62055 0.0
N476 N 0.4554 0.3444 0.63619 0.0
C477 C 0.34984 0.3851 0.68098 0.0
C478 C 0.40149 0.41061 0.7065 0.0
C479 C 0.37729 0.40184 0.72528 0.0
C480 C 0.35126 0.38901 0.71213 0.0
C481 C 0.39939 0.40591 0.67526 0.0
N482 N 0.3732 0.39398 0.66257 0.0
H483 H 0.33058 0.3736 0.67209 0.0
H484 H 0.41971 0.41077 0.66178 0.0
H485 H 0.38498 0.33798 0.66544 0.0
H486 H 0.44521 0.37372 0.604 0.0
O487 O 0.3409 0.35595 0.62327 0.0
O488 O 0.365 0.36678 0.58128 0.0
O489 O 0.40442 0.40876 0.60678 0.0
C490 C 0.34468 0.35214 0.59458 0.0
H491 H 0.29659 0.44613 0.56814 0.0
H492 H 0.44389 0.31936 0.67284 0.0
H493 H 0.42259 0.41981 0.71605 0.0
H494 H 0.33251 0.38135 0.726 0.0
Co495 Co 0.37752 0.37047 0.15435 0.0
C496 C 0.43935 0.39929 0.15424 0.0
C497 C 0.41575 0.40105 0.19669 0.0
C498 C 0.44432 0.41397 0.19936 0.0
N499 N 0.41255 0.39189 0.16836 0.0
N500 N 0.45899 0.41288 0.1726 0.0
H501 H 0.44535 0.39422 0.13155 0.0
H502 H 0.39859 0.39823 0.21435 0.0
C503 C 0.34851 0.4207 0.16694 0.0
O504 O 0.3724 0.431 0.15253 0.0
N505 N 0.34262 0.34904 0.14098 0.0
C506 C 0.34369 0.33227 0.11825 0.0
C507 C 0.31298 0.3239 0.11187 0.0
C508 C 0.31143 0.35044 0.14842 0.0
N509 N 0.2928 0.33537 0.13083 0.0
C510 C 0.403 0.37467 0.09502 0.0
C511 C 0.35321 0.40192 0.06892 0.0
C512 C 0.37776 0.39317 0.05049 0.0
C513 C 0.40299 0.37957 0.06404 0.0
C514 C 0.35398 0.39636 0.09993 0.0
N515 N 0.37914 0.38341 0.11292 0.0
H516 H 0.42191 0.36298 0.10436 0.0
H517 H 0.33336 0.40135 0.11294 0.0
H518 H 0.36507 0.32743 0.10613 0.0
H519 H 0.30221 0.36324 0.16508 0.0
O520 O 0.4074 0.34273 0.15098 0.0
O521 O 0.38104 0.35209 0.19221 0.0
O522 O 0.34578 0.3968 0.1678 0.0
C523 C 0.40182 0.33774 0.17911 0.0
H524 H 0.45368 0.42325 0.21946 0.0
H525 H 0.30588 0.31094 0.0941 0.0
H526 H 0.33272 0.41181 0.05919 0.0
H527 H 0.42233 0.37225 0.05067 0.0
H528 H 0.25593 0.08357 0.46911 0.0
H529 H 0.31173 0.07288 0.4594 0.0
H530 H 0.29021 0.07071 0.36365 0.0
H531 H 0.23398 0.08096 0.37327 0.0
H532 H 0.33366 0.03323 0.38207 0.0
H533 H 0.31975 0.12266 0.39294 0.0
H534 H 0.30253 0.16127 0.41863 0.0
H535 H 0.36435 0.14376 0.49476 0.0
H536 H 0.38159 0.10482 0.46969 0.0
H537 H 0.48491 0.06684 0.32115 0.0
H538 H 0.42933 0.06034 0.33596 0.0
H539 H 0.45846 0.06632 0.42986 0.0
H540 H 0.51412 0.0725 0.41523 0.0
H541 H 0.41147 0.09881 0.41519 0.0
H542 H 0.42934 0.01139 0.40383 0.0
H543 H 0.44825 0.97325 0.3783 0.0
H544 H 0.38081 0.986 0.30503 0.0
H545 H 0.36154 0.02434 0.33007 0.0
C546 C 0.26284 0.08031 0.44603 0.0
C547 C 0.24061 0.08338 0.42191 0.0
C548 C 0.29479 0.07431 0.44051 0.0
C549 C 0.30512 0.07128 0.41079 0.0
C550 C 0.28268 0.07301 0.38674 0.0
C551 C 0.2507 0.07913 0.39224 0.0
C552 C 0.33977 0.06874 0.40472 0.0
C553 C 0.35073 0.04757 0.38916 0.0
C554 C 0.36201 0.08728 0.41448 0.0
C555 C 0.35173 0.11072 0.42956 0.0
C556 C 0.32948 0.12695 0.41526 0.0
C557 C 0.31976 0.1489 0.42968 0.0
C558 C 0.33236 0.15496 0.45829 0.0
C559 C 0.35464 0.13904 0.47258 0.0
C560 C 0.3644 0.11703 0.45827 0.0
C561 C 0.47965 0.06612 0.34496 0.0
C562 C 0.50388 0.07058 0.367 0.0
C563 C 0.44785 0.06238 0.35341 0.0
C564 C 0.43977 0.06288 0.38402 0.0
C565 C 0.46417 0.066 0.4061 0.0
C566 C 0.49591 0.06969 0.39769 0.0
C567 C 0.40563 0.06317 0.39276 0.0
C568 C 0.39463 0.08415 0.40858 0.0
C569 C 0.38354 0.04434 0.38346 0.0
C570 C 0.39434 0.02096 0.36862 0.0
C571 C 0.41872 1.00619 0.38214 0.0
C572 C 0.42947 0.98452 0.36779 0.0
C573 C 0.41605 0.97742 0.33987 0.0
C574 C 0.3914 0.9917 0.32652 0.0
C575 C 0.38044 0.01333 0.34086 0.0
H576 H 0.42461 0.96076 0.3287 0.0
H577 H 0.3249 0.17202 0.46937 0.0
H578 H 0.00364 0.17726 0.33953 0.0
H579 H 0.94496 0.17649 0.33908 0.0
H580 H 0.94673 0.1684 0.43617 0.0
H581 H 0.0056 0.16834 0.43644 0.0
H582 H 0.90515 0.1378 0.41377 0.0
H583 H 0.92539 0.225 0.39872 0.0
H584 H 0.94876 0.26247 0.37504 0.0
H585 H 0.90171 0.24377 0.29064 0.0
H586 H 0.87837 0.20598 0.31372 0.0
H587 H 0.74029 0.17036 0.4338 0.0
H588 H 0.79905 0.17293 0.43357 0.0
H589 H 0.79733 0.15905 0.33758 0.0
H590 H 0.7384 0.15618 0.33777 0.0
H591 H 0.83804 0.20086 0.35921 0.0
H592 H 0.81425 0.11423 0.37937 0.0
H593 H 0.78992 0.0792 0.40699 0.0
H594 H 0.84391 0.09945 0.48714 0.0
H595 H 0.86767 0.13526 0.46035 0.0
C596 C 0.99148 0.17568 0.36079 0.0
C597 C 0.00913 0.17302 0.38805 0.0
C598 C 0.95791 0.17526 0.36054 0.0
C599 C 0.94129 0.17276 0.38764 0.0
C600 C 0.95895 0.17033 0.41495 0.0
C601 C 0.99254 0.17034 0.41513 0.0
C602 C 0.90556 0.17181 0.3874 0.0
C603 C 0.89052 0.15184 0.40224 0.0
C604 C 0.88635 0.18984 0.37188 0.0
C605 C 0.90039 0.21252 0.35788 0.0
C606 C 0.92023 0.22877 0.37505 0.0
C607 C 0.93343 0.25009 0.36174 0.0
C608 C 0.92679 0.25546 0.33133 0.0
C609 C 0.90687 0.23956 0.31418 0.0
C610 C 0.89362 0.2182 0.32737 0.0
C611 C 0.75243 0.1681 0.41262 0.0
C612 C 0.73487 0.16315 0.38576 0.0
C613 C 0.78594 0.16942 0.41256 0.0
C614 C 0.80241 0.16609 0.38559 0.0
C615 C 0.78495 0.16165 0.3586 0.0
C616 C 0.75143 0.1599 0.35875 0.0
C617 C 0.83792 0.16701 0.38569 0.0
C618 C 0.85282 0.18693 0.37079 0.0
C619 C 0.85694 0.14923 0.40172 0.0
C620 C 0.8425 0.12768 0.41787 0.0
C621 C 0.82066 0.11146 0.40298 0.0
C622 C 0.807 0.0914 0.41848 0.0
C623 C 0.81541 0.08706 0.44877 0.0
C624 C 0.8374 0.10284 0.46367 0.0
C625 C 0.85089 0.12308 0.44835 0.0
H626 H 0.8049 0.07146 0.4607 0.0
H627 H 0.93703 0.27198 0.32108 0.0
H628 H 0.50467 0.14602 0.92243 0.0
H629 H 0.44621 0.14903 0.91975 0.0
H630 H 0.45243 0.20415 0.84886 0.0
H631 H 0.51071 0.20088 0.85064 0.0
H632 H 0.41054 0.21838 0.89178 0.0
H633 H 0.43202 0.14641 0.8319 0.0
H634 H 0.45232 0.10463 0.81816 0.0
H635 H 0.39591 0.07092 0.88727 0.0
H636 H 0.37612 0.11258 0.90214 0.0
H637 H 0.24053 0.16924 0.84033 0.0
H638 H 0.29895 0.1705 0.83763 0.0
H639 H 0.30525 0.19973 0.92841 0.0
H640 H 0.24679 0.19804 0.93159 0.0
H641 H 0.34086 0.14444 0.87193 0.0
H642 H 0.37351 0.23779 0.93345 0.0
H643 H 0.3512 0.28032 0.93958 0.0
H644 H 0.29749 0.27245 0.85609 0.0
H645 H 0.31991 0.23013 0.84918 0.0
C646 C 0.49379 0.15861 0.906 0.0
C647 C 0.5128 0.17318 0.88674 0.0
C648 C 0.46026 0.16034 0.90459 0.0
C649 C 0.445 0.17673 0.88402 0.0
C650 C 0.46375 0.19146 0.865 0.0
C651 C 0.49722 0.18961 0.8662 0.0
C652 C 0.40948 0.17872 0.88243 0.0
C653 C 0.39528 0.2022 0.88754 0.0
C654 C 0.38964 0.15769 0.87624 0.0
C655 C 0.40292 0.13272 0.86843 0.0
C656 C 0.42441 0.13016 0.84457 0.0
C657 C 0.43576 0.10647 0.83651 0.0
C658 C 0.42547 0.08513 0.85187 0.0
C659 C 0.40391 0.08746 0.87541 0.0
C660 C 0.39276 0.11113 0.88378 0.0
C661 C 0.25424 0.17593 0.85977 0.0
C662 C 0.23884 0.18329 0.8863 0.0
C663 C 0.28767 0.17676 0.85811 0.0
C664 C 0.30642 0.18522 0.88279 0.0
C665 C 0.29119 0.1934 0.90896 0.0
C666 C 0.2577 0.19247 0.9107 0.0
C667 C 0.34195 0.18394 0.88181 0.0
C668 C 0.35615 0.16058 0.87632 0.0
C669 C 0.36174 0.20514 0.88703 0.0
C670 C 0.34812 0.23063 0.89101 0.0
C671 C 0.357 0.24516 0.91636 0.0
C672 C 0.34436 0.26925 0.91996 0.0
C673 C 0.32287 0.27906 0.89829 0.0
C674 C 0.31405 0.26482 0.87292 0.0
C675 C 0.32668 0.24076 0.86918 0.0
H676 H 0.31311 0.29771 0.90111 0.0
H677 H 0.43417 0.0668 0.84551 0.0
H678 H 0.99592 0.08938 0.8085 0.0
H679 H 0.93933 0.07966 0.81611 0.0
H680 H 0.95673 0.0774 0.91251 0.0
H681 H 0.01366 0.08675 0.90502 0.0
H682 H 0.91346 0.03964 0.8907 0.0
H683 H 0.93039 0.12925 0.88392 0.0
H684 H 0.94899 0.16837 0.86023 0.0
H685 H 0.8888 0.15368 0.78211 0.0
H686 H 0.87018 0.11424 0.80518 0.0
H687 H 0.76434 0.07685 0.95234 0.0
H688 H 0.81932 0.06861 0.93715 0.0
H689 H 0.79015 0.07678 0.84351 0.0
H690 H 0.73496 0.08453 0.85846 0.0
H691 H 0.83875 0.1078 0.85921 0.0
H692 H 0.81407 0.02216 0.86932 0.0
H693 H 0.79526 0.98271 0.89175 0.0
H694 H 0.86874 0.98784 0.96115 0.0
H695 H 0.8877 0.02765 0.93953 0.0
C696 C 0.98789 0.08629 0.83128 0.0
C697 C 0.00916 0.08902 0.85621 0.0
C698 C 0.95554 0.08083 0.83557 0.0
C699 C 0.94392 0.07801 0.86486 0.0
C700 C 0.96533 0.07951 0.88973 0.0
C701 C 0.99769 0.08511 0.88546 0.0
C702 C 0.90902 0.07589 0.86967 0.0
C703 C 0.89698 0.05449 0.88401 0.0
C704 C 0.88771 0.09511 0.86017 0.0
C705 C 0.89915 0.11868 0.84614 0.0
C706 C 0.92136 0.13423 0.86157 0.0
C707 C 0.93185 0.15649 0.84829 0.0
C708 C 0.92005 0.16351 0.8197 0.0
C709 C 0.89788 0.14822 0.80427 0.0
C710 C 0.88735 0.12592 0.81743 0.0
C711 C 0.76937 0.07626 0.92849 0.0
C712 C 0.74531 0.08177 0.90664 0.0
C713 C 0.80085 0.07151 0.91984 0.0
C714 C 0.80877 0.07212 0.88921 0.0
C715 C 0.78452 0.07634 0.86728 0.0
C716 C 0.75305 0.08098 0.87589 0.0
C717 C 0.84283 0.07149 0.88044 0.0
C718 C 0.85489 0.09257 0.86547 0.0
C719 C 0.86395 0.05185 0.88924 0.0
C720 C 0.85207 0.02821 0.90297 0.0
C721 C 0.8259 0.01519 0.8897 0.0
C722 C 0.81527 0.99267 0.90221 0.0
C723 C 0.83063 0.98288 0.928 0.0
C724 C 0.85677 0.99553 0.94125 0.0
C725 C 0.8675 0.01807 0.92884 0.0
H726 H 0.8224 0.96542 0.93761 0.0
H727 H 0.92801 0.18082 0.80955 0.0
H728 H 0.76906 0.94006 0.65522 0.0
H729 H 0.71351 0.94935 0.668 0.0
H730 H 0.68499 0.94319 0.57396 0.0
H731 H 0.74066 0.93395 0.56105 0.0
H732 H 0.65123 0.97987 0.60299 0.0
H733 H 0.67891 0.89331 0.61865 0.0
H734 H 0.71172 0.8585 0.63926 0.0
H735 H 0.69189 0.88228 0.7296 0.0
H736 H 0.65937 0.9175 0.7095 0.0
H737 H 0.48917 0.93941 0.61552 0.0
H738 H 0.54567 0.94707 0.60501 0.0
H739 H 0.56766 0.94977 0.70069 0.0
H740 H 0.51142 0.94134 0.71135 0.0
H741 H 0.60534 0.91736 0.67281 0.0
H742 H 0.57778 1.00439 0.65734 0.0
H743 H 0.54672 0.04013 0.63655 0.0
H744 H 0.56546 0.01547 0.54633 0.0
H745 H 0.59693 0.97973 0.56663 0.0
C746 C 0.75099 0.94094 0.63726 0.0
C747 C 0.75902 0.93579 0.60724 0.0
C748 C 0.71934 0.94634 0.64455 0.0
C749 C 0.69509 0.94637 0.622 0.0
C750 C 0.70337 0.9431 0.5917 0.0
C751 C 0.73515 0.93784 0.58436 0.0
C752 C 0.66089 0.94735 0.63036 0.0
C753 C 0.64111 0.96625 0.61815 0.0
C754 C 0.64785 0.92958 0.65044 0.0
C755 C 0.66699 0.90819 0.66258 0.0
C756 C 0.68173 0.89121 0.64291 0.0
C757 C 0.70026 0.8714 0.6545 0.0
C758 C 0.70396 0.86822 0.68572 0.0
C759 C 0.68905 0.8848 0.70542 0.0
C760 C 0.67055 0.90468 0.69395 0.0
C761 C 0.50599 0.94177 0.63432 0.0
C762 C 0.49582 0.93947 0.66427 0.0
C763 C 0.53822 0.94652 0.62829 0.0
C764 C 0.56085 0.94918 0.65208 0.0
C765 C 0.55055 0.94789 0.682 0.0
C766 C 0.51834 0.94317 0.68805 0.0
C767 C 0.59562 0.95027 0.64577 0.0
C768 C 0.6155 0.93144 0.65811 0.0
C769 C 0.60868 0.9681 0.62582 0.0
C770 C 0.5894 0.98929 0.61349 0.0
C771 C 0.57507 1.00651 0.63307 0.0
C772 C 0.55752 0.02682 0.62138 0.0
C773 C 0.55397 0.02999 0.59014 0.0
C774 C 0.56809 0.01292 0.57052 0.0
C775 C 0.58594 0.99272 0.5821 0.0
H776 H 0.5404 0.04573 0.58113 0.0
H777 H 0.71833 0.85288 0.69465 0.0
H778 H 0.99158 0.83123 0.6849 0.0
H779 H 0.05028 0.8324 0.68602 0.0
H780 H 0.04947 0.84945 0.59069 0.0
H781 H 0.99065 0.8487 0.58963 0.0
H782 H 0.09588 0.80733 0.66031 0.0
H783 H 0.11113 0.88922 0.57526 0.0
H784 H 0.08073 0.92616 0.55685 0.0
H785 H 0.03011 0.92919 0.64015 0.0
H786 H 0.06063 0.89263 0.6593 0.0
H787 H 0.25799 0.81546 0.61626 0.0
H788 H 0.19961 0.81257 0.61776 0.0
H789 H 0.19615 0.8837 0.66403 0.0
H790 H 0.25429 0.8874 0.66124 0.0
H791 H 0.15172 0.88277 0.62204 0.0
H792 H 0.18509 0.8268 0.70084 0.0
H793 H 0.21424 0.79143 0.72468 0.0
H794 H 0.16676 0.73998 0.6638 0.0
H795 H 0.13774 0.7751 0.63922 0.0
C796 C 0.0039 0.83487 0.6641 0.0
C797 C 0.98651 0.84 0.63719 0.0
C798 C 0.03747 0.83561 0.66478 0.0
C799 C 0.05431 0.84141 0.63856 0.0
C800 C 0.037 0.84549 0.61137 0.0
C801 C 0.00343 0.84501 0.61075 0.0
C802 C 0.08988 0.84376 0.6399 0.0
C803 C 0.10811 0.8238 0.65188 0.0
C804 C 0.10582 0.86551 0.62956 0.0
C805 C 0.08793 0.88797 0.61856 0.0
C806 C 0.09364 0.89786 0.58971 0.0
C807 C 0.07638 0.91873 0.57914 0.0
C808 C 0.0534 0.92993 0.59727 0.0
C809 C 0.04782 0.92043 0.62609 0.0
C810 C 0.0651 0.89964 0.63681 0.0
C811 C 0.2449 0.8306 0.62661 0.0
C812 C 0.26112 0.85167 0.6386 0.0
C813 C 0.21145 0.82877 0.62775 0.0
C814 C 0.19344 0.84779 0.6413 0.0
C815 C 0.20951 0.86875 0.65349 0.0
C816 C 0.24293 0.87069 0.65216 0.0
C817 C 0.15781 0.84615 0.64204 0.0
C818 C 0.13954 0.86627 0.63042 0.0
C819 C 0.14182 0.8248 0.65343 0.0
C820 C 0.15949 0.80364 0.66797 0.0
C821 C 0.1811 0.80798 0.69233 0.0
C822 C 0.19757 0.78797 0.70601 0.0
C823 C 0.19243 0.76349 0.6957 0.0
C824 C 0.17078 0.75896 0.67171 0.0
C825 C 0.15431 0.77892 0.6579 0.0
H826 H 0.20517 0.74801 0.70635 0.0
H827 H 0.03996 0.946 0.58904 0.0
H828 H 0.75999 0.84335 0.19676 0.0
H829 H 0.70175 0.84174 0.2016 0.0
H830 H 0.69325 0.80154 0.11725 0.0
H831 H 0.75137 0.80341 0.11196 0.0
H832 H 0.66001 0.86361 0.16431 0.0
H833 H 0.62308 0.76468 0.11881 0.0
H834 H 0.64326 0.72119 0.11997 0.0
H835 H 0.6993 0.73742 0.20026 0.0
H836 H 0.67899 0.78085 0.19999 0.0
H837 H 0.49883 0.86105 0.1094 0.0
H838 H 0.55691 0.8565 0.11505 0.0
H839 H 0.54459 0.80976 0.19343 0.0
H840 H 0.48659 0.81472 0.18864 0.0
H841 H 0.58789 0.78982 0.1554 0.0
H842 H 0.56827 0.86812 0.20282 0.0
H843 H 0.54955 0.91156 0.20973 0.0
H844 H 0.60821 0.93608 0.13689 0.0
H845 H 0.62632 0.89265 0.12875 0.0
C846 C 0.74583 0.83408 0.17927 0.0
C847 C 0.76048 0.82377 0.1538 0.0
C848 C 0.71252 0.83302 0.18219 0.0
C849 C 0.69316 0.82145 0.15984 0.0
C850 C 0.70775 0.81023 0.135 0.0
C851 C 0.74108 0.81134 0.13202 0.0
C852 C 0.65768 0.82341 0.16095 0.0
C853 C 0.64423 0.84748 0.16246 0.0
C854 C 0.63717 0.80225 0.1589 0.0
C855 C 0.64983 0.77619 0.15911 0.0
C856 C 0.63969 0.75899 0.13674 0.0
C857 C 0.65114 0.73433 0.13725 0.0
C858 C 0.67274 0.72661 0.16003 0.0
C859 C 0.68276 0.74349 0.18248 0.0
C860 C 0.67132 0.76815 0.18213 0.0
C861 C 0.50828 0.85001 0.12807 0.0
C862 C 0.48764 0.83833 0.14858 0.0
C863 C 0.5416 0.84736 0.13118 0.0
C864 C 0.55504 0.83289 0.15476 0.0
C865 C 0.53467 0.82094 0.17501 0.0
C866 C 0.50138 0.82374 0.1721 0.0
C867 C 0.59037 0.83012 0.15817 0.0
C868 C 0.60373 0.80594 0.15733 0.0
C869 C 0.61088 0.85114 0.16144 0.0
C870 C 0.59839 0.87703 0.16496 0.0
C871 C 0.5767 0.88268 0.18788 0.0
C872 C 0.56624 0.90733 0.19206 0.0
C873 C 0.57762 0.92656 0.17372 0.0
C874 C 0.59932 0.92116 0.15102 0.0
C875 C 0.60952 0.8965 0.14648 0.0
H876 H 0.56966 0.94566 0.1771 0.0
H877 H 0.68157 0.70752 0.16038 0.0
H878 H 0.00684 0.93913 0.1874 0.0
H879 H 0.06175 0.94591 0.17092 0.0
H880 H 0.04066 0.90505 0.08886 0.0
H881 H 0.98552 0.89932 0.10401 0.0
H882 H 0.09457 0.88706 0.12229 0.0
H883 H 0.04951 0.96066 0.08278 0.0
H884 H 0.02219 1.00132 0.07712 0.0
H885 H 0.0954 0.03619 0.13246 0.0
H886 H 0.12145 0.99549 0.14106 0.0
H887 H 0.24513 0.91329 0.05277 0.0
H888 H 0.18681 0.91626 0.05897 0.0
H889 H 0.2022 0.94158 0.1507 0.0
H890 H 0.2606 0.93804 0.14476 0.0
H891 H 0.15069 0.96804 0.10689 0.0
H892 H 0.18843 0.88789 0.1508 0.0
H893 H 0.21873 0.84838 0.14601 0.0
H894 H 0.16019 0.82784 0.06874 0.0
H895 H 0.12991 0.86748 0.07278 0.0
C896 C 0.01351 0.93193 0.16561 0.0
C897 C 0.99156 0.91813 0.14747 0.0
C898 C 0.04501 0.93583 0.15626 0.0
C899 C 0.05518 0.9258 0.12881 0.0
C900 C 0.03326 0.91272 0.11027 0.0
C901 C 0.0017 0.90926 0.11924 0.0
C902 C 0.08927 0.92731 0.12042 0.0
C903 C 0.10669 0.90482 0.11876 0.0
C904 C 0.10494 0.95048 0.11546 0.0
C905 C 0.08718 0.97467 0.11312 0.0
C906 C 0.05912 0.97674 0.09486 0.0
C907 C 0.04376 0.9999 0.09118 0.0
C908 C 0.05667 0.02133 0.10494 0.0
C909 C 0.08481 0.01956 0.12259 0.0
C910 C 0.09976 0.99637 0.12708 0.0
C911 C 0.236 0.91996 0.074 0.0
C912 C 0.2571 0.92547 0.09834 0.0
C913 C 0.20284 0.92157 0.07753 0.0
C914 C 0.19048 0.92914 0.10525 0.0
C915 C 0.2115 0.93581 0.12912 0.0
C916 C 0.24464 0.93369 0.1258 0.0
C917 C 0.15567 0.92809 0.11018 0.0
C918 C 0.13824 0.95051 0.11086 0.0
C919 C 0.13973 0.90494 0.11362 0.0
C920 C 0.15714 0.88073 0.11191 0.0
C921 C 0.18217 0.87502 0.13268 0.0
C922 C 0.19932 0.8526 0.13011 0.0
C923 C 0.19145 0.83564 0.10703 0.0
C924 C 0.16629 0.84101 0.08658 0.0
C925 C 0.14911 0.86344 0.08901 0.0
H926 H 0.20481 0.81832 0.10504 0.0
H927 H 0.04511 0.03934 0.10164 0.0
H928 H 0.25708 0.58707 0.96458 0.0
H929 H 0.31375 0.57966 0.95439 0.0
H930 H 0.29175 0.57741 0.85873 0.0
H931 H 0.23486 0.58433 0.8688 0.0
H932 H 0.33897 0.54216 0.87706 0.0
H933 H 0.3156 0.6304 0.88764 0.0
H934 H 0.29417 0.66741 0.91381 0.0
H935 H 0.359 0.65415 0.98903 0.0
H936 H 0.38045 0.61678 0.96349 0.0
H937 H 0.48746 0.58445 0.81534 0.0
H938 H 0.43208 0.57592 0.82947 0.0
H939 H 0.45968 0.58238 0.92368 0.0
H940 H 0.51512 0.59049 0.90979 0.0
H941 H 0.41 0.61269 0.9086 0.0
H942 H 0.43903 0.52756 0.894 0.0
H943 H 0.45941 0.49008 0.86818 0.0
H944 H 0.38445 0.49666 0.80035 0.0
H945 H 0.36399 0.53455 0.82538 0.0
C946 C 0.26414 0.58442 0.94143 0.0
C947 C 0.24155 0.5866 0.91746 0.0
C948 C 0.29655 0.5803 0.93564 0.0
C949 C 0.30693 0.57828 0.9058 0.0
C950 C 0.28421 0.57897 0.88191 0.0
C951 C 0.2518 0.58319 0.88768 0.0
C952 C 0.34166 0.57799 0.89936 0.0
C953 C 0.35458 0.55762 0.88366 0.0
C954 C 0.36194 0.59799 0.90859 0.0
C955 C 0.34937 0.62064 0.92381 0.0
C956 C 0.32511 0.63526 0.90986 0.0
C957 C 0.31298 0.65632 0.92456 0.0
C958 C 0.32515 0.66309 0.9531 0.0
C959 C 0.34955 0.64885 0.96695 0.0
C960 C 0.36171 0.62774 0.95237 0.0
C961 C 0.48193 0.5835 0.83907 0.0
C962 C 0.50568 0.58851 0.86143 0.0
C963 C 0.45024 0.57862 0.84711 0.0
C964 C 0.44178 0.57855 0.87763 0.0
C965 C 0.46568 0.58249 0.89999 0.0
C966 C 0.49731 0.5873 0.892 0.0
C967 C 0.40763 0.57683 0.88614 0.0
C968 C 0.39467 0.59701 0.90215 0.0
C969 C 0.38746 0.55666 0.87704 0.0
C970 C 0.40014 0.53413 0.86149 0.0
C971 C 0.42711 0.52125 0.87337 0.0
C972 C 0.43866 0.49989 0.85888 0.0
C973 C 0.42328 0.49103 0.83261 0.0
C974 C 0.39636 0.50357 0.82071 0.0
C975 C 0.38479 0.52501 0.83504 0.0
H976 H 0.43217 0.47441 0.82152 0.0
H977 H 0.31573 0.67939 0.96445 0.0
H978 H 0.73645 0.68566 0.83258 0.0
H979 H 0.79516 0.68942 0.83044 0.0
H980 H 0.80196 0.68387 0.92773 0.0
H981 H 0.74333 0.6817 0.92977 0.0
H982 H 0.84445 0.71575 0.90955 0.0
H983 H 0.81051 0.63284 0.87692 0.0
H984 H 0.77723 0.60576 0.84356 0.0
H985 H 0.82697 0.63297 0.76626 0.0
H986 H 0.85964 0.66101 0.79898 0.0
H987 H 0.00409 0.66869 0.92885 0.0
H988 H 0.94538 0.67303 0.92733 0.0
H989 H 0.94761 0.68917 0.83193 0.0
H990 H 0.00616 0.68484 0.83333 0.0
H991 H 0.90116 0.65376 0.84641 0.0
H992 H 0.93448 0.73603 0.87745 0.0
H993 H 0.96303 0.76781 0.9084 0.0
H994 H 0.91419 0.7426 0.98719 0.0
H995 H 0.88554 0.71049 0.95675 0.0
C996 C 0.75066 0.68551 0.85339 0.0
C997 C 0.73566 0.68328 0.88129 0.0
C998 C 0.7841 0.68758 0.85222 0.0
C999 C 0.80311 0.68633 0.87891 0.0
C1000 C 0.78791 0.68483 0.90684 0.0
C1001 C 0.75448 0.68352 0.90802 0.0
C1002 C 0.83877 0.68528 0.8779 0.0
C1003 C 0.85682 0.70198 0.89602 0.0
C1004 C 0.85498 0.6677 0.85966 0.0
C1005 C 0.83728 0.64926 0.84038 0.0
C1006 C 0.8143 0.6331 0.8528 0.0
C1007 C 0.79535 0.61775 0.83398 0.0
C1008 C 0.79981 0.61782 0.80279 0.0
C1009 C 0.82342 0.63307 0.7904 0.0
C1010 C 0.84208 0.64876 0.80906 0.0
C1011 C 0.99202 0.67314 0.90759 0.0
C1012 C 0.00972 0.67655 0.88126 0.0
C1013 C 0.95855 0.67575 0.90677 0.0
C1014 C 0.9422 0.68157 0.87953 0.0
C1015 C 0.95978 0.68475 0.85317 0.0
C1016 C 0.99324 0.68246 0.85406 0.0
C1017 C 0.90669 0.68396 0.87847 0.0
C1018 C 0.88873 0.66747 0.85998 0.0
C1019 C 0.89053 0.70168 0.89638 0.0
C1020 C 0.90816 0.72065 0.91488 0.0
C1021 C 0.93009 0.73707 0.90144 0.0
C1022 C 0.94622 0.7552 0.91887 0.0
C1023 C 0.94053 0.75715 0.94976 0.0
C1024 C 0.91866 0.741 0.96328 0.0
C1025 C 0.90242 0.72287 0.94594 0.0
H1026 H 0.95297 0.77124 0.9632 0.0
H1027 H 0.78517 0.60589 0.78826 0.0
H1028 H 0.50902 0.67467 0.33293 0.0
H1029 H 0.45041 0.67605 0.33404 0.0
H1030 H 0.45479 0.67146 0.43144 0.0
H1031 H 0.51353 0.66913 0.43017 0.0
H1032 H 0.41158 0.64121 0.41186 0.0
H1033 H 0.43423 0.72756 0.39038 0.0
H1034 H 0.45821 0.76302 0.36303 0.0
H1035 H 0.40787 0.74077 0.28159 0.0
H1036 H 0.38382 0.70504 0.30836 0.0
H1037 H 0.24849 0.67387 0.43441 0.0
H1038 H 0.30704 0.6771 0.43242 0.0
H1039 H 0.30246 0.66255 0.3366 0.0
H1040 H 0.24368 0.65924 0.33848 0.0
H1041 H 0.34483 0.70333 0.3553 0.0
H1042 H 0.32275 0.6167 0.37827 0.0
H1043 H 0.29806 0.58236 0.40697 0.0
H1044 H 0.34736 0.60709 0.48791 0.0
H1045 H 0.37197 0.64185 0.45977 0.0
C1046 C 0.49746 0.67433 0.35457 0.0
C1047 C 0.51577 0.67192 0.38149 0.0
C1048 C 0.46393 0.67519 0.35522 0.0
C1049 C 0.44804 0.67428 0.38287 0.0
C1050 C 0.46641 0.6722 0.40982 0.0
C1051 C 0.49993 0.67089 0.40912 0.0
C1052 C 0.4123 0.67418 0.3836 0.0
C1053 C 0.39711 0.6551 0.39988 0.0
C1054 C 0.39318 0.6919 0.36741 0.0
C1055 C 0.40747 0.71348 0.35132 0.0
C1056 C 0.42844 0.73013 0.36659 0.0
C1057 C 0.44201 0.7503 0.3512 0.0
C1058 C 0.43466 0.75407 0.32057 0.0
C1059 C 0.41358 0.73779 0.3053 0.0
C1060 C 0.39993 0.7176 0.32058 0.0
C1061 C 0.25991 0.67167 0.41286 0.0
C1062 C 0.24154 0.66631 0.38658 0.0
C1063 C 0.29334 0.67338 0.41179 0.0
C1064 C 0.309 0.66996 0.38439 0.0
C1065 C 0.29075 0.66524 0.35795 0.0
C1066 C 0.25728 0.6632 0.35908 0.0
C1067 C 0.34453 0.67055 0.38365 0.0
C1068 C 0.35954 0.68962 0.36735 0.0
C1069 C 0.36352 0.65303 0.40006 0.0
C1070 C 0.34893 0.63203 0.41698 0.0
C1071 C 0.3281 0.61495 0.40224 0.0
C1072 C 0.31416 0.59538 0.4184 0.0
C1073 C 0.32107 0.59258 0.44926 0.0
C1074 C 0.342 0.60931 0.46402 0.0
C1075 C 0.35596 0.62893 0.44797 0.0
H1076 H 0.31026 0.57742 0.46173 0.0
H1077 H 0.4453 0.76961 0.30864 0.0
H1078 H 0.74144 0.58117 0.36645 0.0
H1079 H 0.79774 0.57167 0.3577 0.0
H1080 H 0.81528 0.56464 0.45379 0.0
H1081 H 0.75926 0.57517 0.46278 0.0
H1082 H 0.85741 0.5949 0.43018 0.0
H1083 H 0.82202 0.51126 0.40621 0.0
H1084 H 0.78851 0.4786 0.38159 0.0
H1085 H 0.81393 0.50645 0.2943 0.0
H1086 H 0.84767 0.53921 0.31843 0.0
H1087 H 0.02067 0.5688 0.40887 0.0
H1088 H 0.96495 0.56083 0.42248 0.0
H1089 H 0.93473 0.57062 0.32929 0.0
H1090 H 0.99048 0.57817 0.31556 0.0
H1091 H 0.89981 0.53487 0.35551 0.0
H1092 H 0.93296 0.61948 0.37993 0.0
H1093 H 0.96794 0.65122 0.40445 0.0
H1094 H 0.94615 0.62117 0.49164 0.0
H1095 H 0.91138 0.58901 0.46757 0.0
C1096 C 0.75722 0.57755 0.38574 0.0
C1097 C 0.74584 0.57923 0.41534 0.0
C1098 C 0.78934 0.57171 0.38068 0.0
C1099 C 0.81072 0.56717 0.40508 0.0
C1100 C 0.79918 0.56795 0.43461 0.0
C1101 C 0.76706 0.57386 0.4397 0.0
C1102 C 0.84562 0.56441 0.39988 0.0
C1103 C 0.86676 0.5813 0.41441 0.0
C1104 C 0.85778 0.54717 0.37873 0.0
C1105 C 0.83714 0.52778 0.36412 0.0
C1106 C 0.82026 0.51051 0.38177 0.0
C1107 C 0.80132 0.49194 0.36791 0.0
C1108 C 0.79898 0.49051 0.33641 0.0
C1109 C 0.81566 0.50763 0.3187 0.0
C1110 C 0.8348 0.52613 0.33245 0.0
C1111 C 0.00214 0.56901 0.39129 0.0
C1112 C 0.0098 0.57451 0.36126 0.0
C1113 C 0.97037 0.56441 0.39905 0.0
C1114 C 0.94561 0.56573 0.37701 0.0
C1115 C 0.95344 0.56964 0.34669 0.0
C1116 C 0.9853 0.57395 0.33886 0.0
C1117 C 0.91146 0.56521 0.3858 0.0
C1118 C 0.89049 0.54796 0.37178 0.0
C1119 C 0.89941 0.5821 0.40745 0.0
C1120 C 0.91985 0.6017 0.42195 0.0
C1121 C 0.93577 0.61956 0.40432 0.0
C1122 C 0.95555 0.63763 0.41813 0.0
C1123 C 0.95933 0.63817 0.44958 0.0
C1124 C 0.94324 0.6207 0.46728 0.0
C1125 C 0.92348 0.60256 0.45357 0.0
H1126 H 0.97467 0.65215 0.46024 0.0
H1127 H 0.78436 0.47609 0.32572 0.0
H1128 H 0.47841 0.43014 0.1186 0.0
H1129 H 0.53311 0.44203 0.10534 0.0
H1130 H 0.56535 0.42819 0.19721 0.0
H1131 H 0.5106 0.41674 0.21063 0.0
H1132 H 0.59571 0.46814 0.17436 0.0
H1133 H 0.572 0.38325 0.14218 0.0
H1134 H 0.54061 0.35086 0.11476 0.0
H1135 H 0.55809 0.38807 0.03066 0.0
H1136 H 0.58925 0.42088 0.05767 0.0
H1137 H 0.75804 0.42999 0.15945 0.0
H1138 H 0.70132 0.43689 0.16917 0.0
H1139 H 0.6831 0.4506 0.07426 0.0
H1140 H 0.7395 0.44264 0.06413 0.0
H1141 H 0.64401 0.41604 0.09449 0.0
H1142 H 0.67686 0.49702 0.12781 0.0
H1143 H 0.70773 0.52903 0.15646 0.0
H1144 H 0.6738 0.49892 0.23975 0.0
H1145 H 0.6434 0.46636 0.21172 0.0
C1146 C 0.49716 0.42982 0.13597 0.0
C1147 C 0.49038 0.42221 0.16554 0.0
C1148 C 0.52835 0.43667 0.12841 0.0
C1149 C 0.55342 0.43556 0.15017 0.0
C1150 C 0.54638 0.42918 0.18006 0.0
C1151 C 0.51511 0.42262 0.18771 0.0
C1152 C 0.5873 0.43907 0.14139 0.0
C1153 C 0.60645 0.45669 0.15705 0.0
C1154 C 0.60098 0.42454 0.11826 0.0
C1155 C 0.58264 0.40465 0.10196 0.0
C1156 C 0.56898 0.38459 0.11786 0.0
C1157 C 0.55125 0.36616 0.10239 0.0
C1158 C 0.54728 0.36745 0.07099 0.0
C1159 C 0.56114 0.38713 0.05498 0.0
C1160 C 0.57884 0.40564 0.07035 0.0
C1161 C 0.74204 0.43452 0.14061 0.0
C1162 C 0.75337 0.43529 0.11091 0.0
C1163 C 0.70964 0.43886 0.14629 0.0
C1164 C 0.68794 0.44436 0.12246 0.0
C1165 C 0.69943 0.44639 0.093 0.0
C1166 C 0.7318 0.44193 0.08727 0.0
C1167 C 0.65287 0.44492 0.12776 0.0
C1168 C 0.63338 0.4279 0.11149 0.0
C1169 C 0.63911 0.45987 0.15054 0.0
C1170 C 0.65798 0.47913 0.16757 0.0
C1171 C 0.67623 0.49708 0.15222 0.0
C1172 C 0.69357 0.51536 0.16835 0.0
C1173 C 0.69264 0.51605 0.19986 0.0
C1174 C 0.67447 0.49838 0.21533 0.0
C1175 C 0.6572 0.48 0.19932 0.0
H1176 H 0.70599 0.53028 0.21228 0.0
H1177 H 0.53353 0.35317 0.05906 0.0
H1178 H 0.25343 0.33615 0.17842 0.0
H1179 H 0.19437 0.33497 0.17666 0.0
H1180 H 0.19522 0.33171 0.07935 0.0
H1181 H 0.25417 0.33238 0.08107 0.0
H1182 H 0.15264 0.36958 0.10603 0.0
H1183 H 0.17716 0.28182 0.10837 0.0
H1184 H 0.20308 0.24317 0.12739 0.0
H1185 H 0.15774 0.25249 0.21277 0.0
H1186 H 0.13198 0.29151 0.19445 0.0
H1187 H 0.98508 0.34869 0.08569 0.0
H1188 H 0.04345 0.34447 0.08201 0.0
H1189 H 0.0508 0.32901 0.17764 0.0
H1190 H 0.99253 0.33265 0.1812 0.0
H1191 H 0.08981 0.29933 0.1486 0.0
H1192 H 0.06684 0.38809 0.14696 0.0
H1193 H 0.03975 0.42616 0.12751 0.0
H1194 H 0.08191 0.41513 0.04093 0.0
H1195 H 0.10888 0.37676 0.05974 0.0
C1196 C 0.24093 0.3351 0.15673 0.0
C1197 C 0.25826 0.33421 0.12991 0.0
C1198 C 0.20732 0.33435 0.15573 0.0
C1199 C 0.19055 0.33319 0.12787 0.0
C1200 C 0.20778 0.33254 0.10105 0.0
C1201 C 0.24137 0.33276 0.10207 0.0
C1202 C 0.15498 0.33307 0.12679 0.0
C1203 C 0.13881 0.3541 0.11494 0.0
C1204 C 0.13715 0.31303 0.13888 0.0
C1205 C 0.15294 0.28977 0.15015 0.0
C1206 C 0.17301 0.27581 0.13133 0.0
C1207 C 0.18759 0.25378 0.14194 0.0
C1208 C 0.18209 0.24539 0.17127 0.0
C1209 C 0.162 0.25903 0.19006 0.0
C1210 C 0.14741 0.2811 0.17957 0.0
C1211 C 0.9992 0.34436 0.10587 0.0
C1212 C 0.98426 0.34109 0.13374 0.0
C1213 C 0.03253 0.34198 0.10378 0.0
C1214 C 0.05162 0.33682 0.12966 0.0
C1215 C 0.03662 0.33297 0.15736 0.0
C1216 C 0.00329 0.33502 0.15937 0.0
C1217 C 0.08725 0.33603 0.1282 0.0
C1218 C 0.10352 0.31483 0.13959 0.0
C1219 C 0.10519 0.35599 0.11578 0.0
C1220 C 0.08964 0.37942 0.10468 0.0
C1221 C 0.07022 0.39372 0.12373 0.0
C1222 C 0.05488 0.41535 0.11282 0.0
C1223 C 0.05904 0.42303 0.08298 0.0
C1224 C 0.07867 0.40914 0.06403 0.0
C1225 C 0.09402 0.38746 0.0748 0.0
H1226 H 0.0471 0.43975 0.07457 0.0
H1227 H 0.19333 0.22829 0.17941 0.0
H1228 H 0.49659 0.34111 0.6839 0.0
H1229 H 0.55545 0.34081 0.6826 0.0
H1230 H 0.55072 0.34389 0.58524 0.0
H1231 H 0.49165 0.3448 0.58652 0.0
H1232 H 0.59463 0.30504 0.61609 0.0
H1233 H 0.56857 0.39304 0.61148 0.0
H1234 H 0.54238 0.43195 0.62811 0.0
H1235 H 0.59165 0.42669 0.71422 0.0
H1236 H 0.61774 0.38748 0.69828 0.0
H1237 H 0.75841 0.33279 0.58924 0.0
H1238 H 0.69984 0.33079 0.58907 0.0
H1239 H 0.70064 0.35132 0.68339 0.0
H1240 H 0.75935 0.35354 0.68357 0.0
H1241 H 0.6579 0.37825 0.65306 0.0
H1242 H 0.68341 0.29091 0.65971 0.0
H1243 H 0.70913 0.25114 0.64532 0.0
H1244 H 0.66109 0.25399 0.55846 0.0
H1245 H 0.63539 0.29397 0.57219 0.0
C1246 C 0.50815 0.34148 0.66225 0.0
C1247 C 0.48978 0.34285 0.63528 0.0
C1248 C 0.54165 0.34146 0.66155 0.0
C1249 C 0.55721 0.3424 0.63384 0.0
C1250 C 0.53897 0.34318 0.6068 0.0
C1251 C 0.50543 0.34375 0.60754 0.0
C1252 C 0.59261 0.34273 0.6333 0.0
C1253 C 0.60859 0.32113 0.62372 0.0
C1254 C 0.61049 0.36353 0.64415 0.0
C1255 C 0.59472 0.38707 0.65384 0.0
C1256 C 0.5735 0.39998 0.63411 0.0
C1257 C 0.55876 0.42215 0.64337 0.0
C1258 C 0.56525 0.43173 0.67226 0.0
C1259 C 0.58659 0.41921 0.69188 0.0
C1260 C 0.60135 0.397 0.68274 0.0
C1261 C 0.74617 0.33645 0.61007 0.0
C1262 C 0.7635 0.34326 0.63646 0.0
C1263 C 0.71266 0.33534 0.60994 0.0
C1264 C 0.69586 0.34068 0.63629 0.0
C1265 C 0.71312 0.34717 0.66278 0.0
C1266 C 0.74663 0.34846 0.66286 0.0
C1267 C 0.66025 0.34045 0.63592 0.0
C1268 C 0.64412 0.3621 0.64537 0.0
C1269 C 0.64224 0.31957 0.62525 0.0
C1270 C 0.65773 0.29557 0.61687 0.0
C1271 C 0.67854 0.28317 0.63744 0.0
C1272 C 0.69307 0.26057 0.62943 0.0
C1273 C 0.68681 0.25008 0.60096 0.0
C1274 C 0.66595 0.26215 0.58048 0.0
C1275 C 0.65137 0.28477 0.58838 0.0
H1276 H 0.69807 0.23258 0.59481 0.0
H1277 H 0.55382 0.44889 0.67942 0.0
H1278 H 0.99274 0.47097 0.68402 0.0
H1279 H 0.05053 0.47909 0.67797 0.0
H1280 H 0.06435 0.40187 0.65233 0.0
H1281 H 0.00696 0.39381 0.65803 0.0
H1282 H 0.1095 0.42369 0.69962 0.0
H1283 H 0.06619 0.43808 0.59372 0.0
H1284 H 0.02758 0.4601 0.55976 0.0
H1285 H 0.05804 0.53094 0.59671 0.0
H1286 H 0.09701 0.50926 0.63071 0.0
H1287 H 0.24388 0.39116 0.62229 0.0
H1288 H 0.18932 0.39993 0.63834 0.0
H1289 H 0.20687 0.47936 0.62965 0.0
H1290 H 0.2614 0.47039 0.61194 0.0
H1291 H 0.14798 0.46806 0.60868 0.0
H1292 H 0.20622 0.45282 0.69938 0.0
H1293 H 0.24439 0.43155 0.73427 0.0
H1294 H 0.18524 0.36554 0.73264 0.0
H1295 H 0.14696 0.38622 0.69734 0.0
C1296 C 0.00828 0.45581 0.67719 0.0
C1297 C 0.99556 0.43184 0.67125 0.0
C1298 C 0.04108 0.46046 0.67371 0.0
C1299 C 0.06147 0.44103 0.66478 0.0
C1300 C 0.04886 0.41704 0.6593 0.0
C1301 C 0.01614 0.41252 0.6623 0.0
C1302 C 0.096 0.44539 0.66038 0.0
C1303 C 0.11812 0.43349 0.67991 0.0
C1304 C 0.10703 0.4591 0.63542 0.0
C1305 C 0.08442 0.47213 0.61456 0.0
C1306 C 0.06468 0.45836 0.59445 0.0
C1307 C 0.04279 0.47076 0.57522 0.0
C1308 C 0.04045 0.49691 0.57601 0.0
C1309 C 0.06002 0.5107 0.59602 0.0
C1310 C 0.08207 0.49838 0.61519 0.0
C1311 C 0.23594 0.41047 0.62366 0.0
C1312 C 0.25663 0.43014 0.61617 0.0
C1313 C 0.20493 0.4155 0.63298 0.0
C1314 C 0.1943 0.44037 0.63582 0.0
C1315 C 0.21466 0.46009 0.62757 0.0
C1316 C 0.24563 0.45499 0.61754 0.0
C1317 C 0.16171 0.44525 0.64719 0.0
C1318 C 0.13985 0.45894 0.62904 0.0
C1319 C 0.15103 0.43358 0.67392 0.0
C1320 C 0.17372 0.42109 0.69558 0.0
C1321 C 0.20141 0.43372 0.70633 0.0
C1322 C 0.22308 0.42176 0.72619 0.0
C1323 C 0.21726 0.3972 0.73563 0.0
C1324 C 0.1897 0.38457 0.72531 0.0
C1325 C 0.16797 0.39643 0.70541 0.0
H1326 H 0.23409 0.38795 0.75094 0.0
H1327 H 0.02343 0.50648 0.56117 0.0
H1328 H 0.07298 0.12045 0.26614 0.0
H1329 H 0.07114 0.11968 0.21087 0.0
H1330 H 0.17328 0.10657 0.21012 0.0
H1331 H 0.17528 0.10632 0.26529 0.0
H1332 H 0.1515 0.14612 0.17101 0.0
H1333 H 0.12453 0.06025 0.19581 0.0
H1334 H 0.09266 0.02675 0.21914 0.0
H1335 H 0.00822 0.05194 0.17047 0.0
H1336 H 0.03948 0.08587 0.1472 0.0
H1337 H 0.17327 0.12161 0.01658 0.0
H1338 H 0.17323 0.11905 0.07155 0.0
H1339 H 0.07013 0.11042 0.06884 0.0
H1340 H 0.07024 0.11094 0.01386 0.0
H1341 H 0.09054 0.08292 0.11067 0.0
H1342 H 0.11109 0.16803 0.08699 0.0
H1343 H 0.13721 0.20486 0.06448 0.0
H1344 H 0.22547 0.1869 0.1118 0.0
H1345 H 0.20003 0.14969 0.13425 0.0
C1346 C 0.095 0.11688 0.25435 0.0
C1347 C 0.12431 0.11348 0.27044 0.0
C1348 C 0.09391 0.11667 0.22267 0.0
C1349 C 0.1221 0.11317 0.20635 0.0
C1350 C 0.15128 0.10953 0.22224 0.0
C1351 C 0.15235 0.10946 0.25386 0.0
C1352 C 0.12135 0.11343 0.17272 0.0
C1353 C 0.13856 0.13213 0.15773 0.0
C1354 C 0.10323 0.09587 0.15549 0.0
C1355 C 0.08427 0.07584 0.17007 0.0
C1356 C 0.09906 0.05891 0.19044 0.0
C1357 C 0.08113 0.03977 0.20356 0.0
C1358 C 0.04841 0.03728 0.19638 0.0
C1359 C 0.03355 0.05394 0.17609 0.0
C1360 C 0.05136 0.07313 0.16292 0.0
C1361 C 0.15059 0.11863 0.02751 0.0
C1362 C 0.12171 0.11673 1.0104 0.0
C1363 C 0.15054 0.11762 0.05917 0.0
C1364 C 0.12157 0.11522 0.07469 0.0
C1365 C 0.09285 0.11252 0.05766 0.0
C1366 C 0.09293 0.11312 0.02603 0.0
C1367 C 0.12112 0.11555 0.10855 0.0
C1368 C 0.10358 0.09701 0.12372 0.0
C1369 C 0.13807 0.13383 0.12599 0.0
C1370 C 0.15374 0.15586 0.112 0.0
C1371 C 0.13617 0.17175 0.09233 0.0
C1372 C 0.15084 0.19273 0.07963 0.0
C1373 C 0.18302 0.19815 0.0866 0.0
C1374 C 0.20058 0.18262 0.10634 0.0
C1375 C 0.18605 0.16158 0.11905 0.0
H1376 H 0.1943 0.21443 0.07679 0.0
H1377 H 0.03461 0.02238 0.20647 0.0
H1378 H 0.82016 0.87614 1.00894 0.0
H1379 H 0.82132 0.88018 0.95366 0.0
H1380 H 0.91396 0.91618 0.96109 0.0
H1381 H 0.91312 0.9118 0.01624 0.0
H1382 H 0.87074 0.93903 0.9179 0.0
H1383 H 0.91428 0.85823 0.94412 0.0
H1384 H 0.91504 0.81631 0.96775 0.0
H1385 H 0.83001 0.79581 0.91676 0.0
H1386 H 0.82847 0.83775 0.89313 0.0
H1387 H 0.90606 0.92819 0.76137 0.0
H1388 H 0.90827 0.92845 0.81634 0.0
H1389 H 0.83413 0.87189 0.81787 0.0
H1390 H 0.8349 0.86894 0.76365 0.0
H1391 H 0.87194 0.86046 0.85811 0.0
H1392 H 0.82479 0.94181 0.83393 0.0
H1393 H 0.82384 0.98343 0.80945 0.0
H1394 H 0.91226 1.00298 0.85554 0.0
H1395 H 0.9136 0.96159 0.88044 0.0
C1396 C 0.84048 0.88527 0.99877 0.0
C1397 C 0.86657 0.89362 0.01683 0.0
C1398 C 0.84123 0.88744 0.96722 0.0
C1399 C 0.86786 0.8983 0.95325 0.0
C1400 C 0.89322 0.90772 0.97137 0.0
C1401 C 0.89274 0.90516 1.00283 0.0
C1402 C 0.86998 0.89874 0.91975 0.0
C1403 C 0.87096 0.92191 0.90472 0.0
C1404 C 0.87037 0.87637 0.90262 0.0
C1405 C 0.87104 0.85126 0.91714 0.0
C1406 C 0.89553 0.84489 0.9382 0.0
C1407 C 0.89616 0.8211 0.95153 0.0
C1408 C 0.87252 0.80345 0.94384 0.0
C1409 C 0.84826 0.80953 0.92275 0.0
C1410 C 0.8475 0.8333 0.90937 0.0
C1411 C 0.89054 0.91545 0.77323 0.0
C1412 C 0.86996 0.89878 0.75727 0.0
C1413 C 0.89135 0.91603 0.80497 0.0
C1414 C 0.87073 0.90068 0.8217 0.0
C1415 C 0.85024 0.88412 0.80585 0.0
C1416 C 0.85025 0.88286 0.77434 0.0
C1417 C 0.87092 0.90091 0.85561 0.0
C1418 C 0.87094 0.87776 0.87095 0.0
C1419 C 0.87086 0.92334 0.87294 0.0
C1420 C 0.86949 0.94851 0.85873 0.0
C1421 C 0.84405 0.95499 0.83877 0.0
C1422 C 0.84343 0.97855 0.82485 0.0
C1423 C 0.86807 0.9958 0.83081 0.0
C1424 C 0.89321 0.98962 0.85093 0.0
C1425 C 0.89384 0.96615 0.86504 0.0
H1426 H 0.86755 0.01404 0.82005 0.0
H1427 H 0.87302 0.78505 0.95418 0.0
H1428 H 0.1771 0.60372 0.5134 0.0
H1429 H 0.17769 0.60123 0.5686 0.0
H1430 H 0.0744 0.59571 0.56725 0.0
H1431 H 0.07348 0.59683 0.51213 0.0
H1432 H 0.10216 0.63463 0.60629 0.0
H1433 H 0.1126 0.54699 0.58305 0.0
H1434 H 0.13726 0.50985 0.56 0.0
H1435 H 0.2255 0.52444 0.6091 0.0
H1436 H 0.20127 0.56167 0.63255 0.0
H1437 H 0.07548 0.61438 0.76088 0.0
H1438 H 0.07519 0.60962 0.70603 0.0
H1439 H 0.17743 0.59639 0.70923 0.0
H1440 H 0.17769 0.59994 0.76427 0.0
H1441 H 0.15097 0.56665 0.66868 0.0
H1442 H 0.14573 0.65432 0.68891 0.0
H1443 H 0.12547 0.69355 0.711 0.0
H1444 H 0.03399 0.68219 0.66618 0.0
H1445 H 0.05361 0.64273 0.64405 0.0
C1446 C 0.1545 0.60136 0.52466 0.0
C1447 C 0.12521 0.60068 0.50801 0.0
C1448 C 0.1549 0.60015 0.55632 0.0
C1449 C 0.12607 0.59846 0.57202 0.0
C1450 C 0.09691 0.59725 0.55558 0.0
C1451 C 0.09648 0.59805 0.52399 0.0
C1452 C 0.12612 0.59889 0.6056 0.0
C1453 C 0.1124 0.6196 0.61998 0.0
C1454 C 0.14055 0.57971 0.62336 0.0
C1455 C 0.15515 0.55725 0.60939 0.0
C1456 C 0.13731 0.54238 0.58881 0.0
C1457 C 0.15119 0.52127 0.57571 0.0
C1458 C 0.18299 0.51487 0.58295 0.0
C1459 C 0.20088 0.52946 0.60346 0.0
C1460 C 0.18703 0.55051 0.61677 0.0
C1461 C 0.09784 0.60998 0.75007 0.0
C1462 C 0.12665 0.60771 0.76718 0.0
C1463 C 0.09771 0.60757 0.71856 0.0
C1464 C 0.1264 0.60312 0.70329 0.0
C1465 C 0.15499 0.59998 0.72036 0.0
C1466 C 0.15513 0.60225 0.75189 0.0
C1467 C 0.12672 0.60237 0.66956 0.0
C1468 C 0.14061 0.58167 0.6551 0.0
C1469 C 0.11307 0.62185 0.65161 0.0
C1470 C 0.10103 0.64543 0.66511 0.0
C1471 C 0.1212 0.66007 0.68399 0.0
C1472 C 0.10985 0.68237 0.69646 0.0
C1473 C 0.07843 0.69031 0.69008 0.0
C1474 C 0.05831 0.67599 0.67115 0.0
C1475 C 0.06954 0.65367 0.65861 0.0
H1476 H 0.0697 0.70759 0.69974 0.0
H1477 H 0.19371 0.49852 0.57278 0.0
H1478 H 0.82375 0.40644 0.51267 0.0
H1479 H 0.82166 0.4108 0.45791 0.0
H1480 H 0.92424 0.42226 0.45774 0.0
H1481 H 0.92625 0.41987 0.51275 0.0
H1482 H 0.89926 0.45059 0.41686 0.0
H1483 H 0.88685 0.36373 0.44067 0.0
H1484 H 0.86329 0.32652 0.46478 0.0
H1485 H 0.77241 0.34182 0.42063 0.0
H1486 H 0.79535 0.37934 0.39655 0.0
H1487 H 0.92215 0.40677 0.26382 0.0
H1488 H 0.92275 0.41164 0.31878 0.0
H1489 H 0.81992 0.42104 0.31657 0.0
H1490 H 0.81908 0.41734 0.26158 0.0
H1491 H 0.84417 0.3834 0.35796 0.0
H1492 H 0.86442 0.46821 0.32782 0.0
H1493 H 0.89374 0.50188 0.30218 0.0
H1494 H 0.97736 0.48716 0.35798 0.0
H1495 H 0.94896 0.45268 0.38317 0.0
C1496 C 0.84585 0.41047 0.50123 0.0
C1497 C 0.87525 0.41257 0.5175 0.0
C1498 C 0.84467 0.41258 0.46967 0.0
C1499 C 0.8729 0.41624 0.45339 0.0
C1500 C 0.90209 0.41922 0.46958 0.0
C1501 C 0.90324 0.41752 0.50118 0.0
C1502 C 0.87221 0.41621 0.41956 0.0
C1503 C 0.88753 0.43572 0.40402 0.0
C1504 C 0.85664 0.39699 0.40257 0.0
C1505 C 0.84272 0.3745 0.41709 0.0
C1506 C 0.86177 0.35928 0.4363 0.0
C1507 C 0.84855 0.33811 0.44993 0.0
C1508 C 0.81635 0.33186 0.44432 0.0
C1509 C 0.79733 0.34672 0.42501 0.0
C1510 C 0.81044 0.36793 0.41135 0.0
C1511 C 0.89968 0.41044 0.27481 0.0
C1512 C 0.87052 0.41149 0.25797 0.0
C1513 C 0.90009 0.41305 0.30635 0.0
C1514 C 0.87137 0.4166 0.32179 0.0
C1515 C 0.84234 0.41811 0.30514 0.0
C1516 C 0.84193 0.41583 0.27363 0.0
C1517 C 0.87131 0.41764 0.3554 0.0
C1518 C 0.85582 0.39829 0.37085 0.0
C1519 C 0.88753 0.43662 0.37218 0.0
C1520 C 0.90458 0.45756 0.35716 0.0
C1521 C 0.88918 0.47187 0.33437 0.0
C1522 C 0.90569 0.49108 0.31984 0.0
C1523 C 0.93746 0.49656 0.32832 0.0
C1524 C 0.95279 0.48282 0.35134 0.0
C1525 C 0.93651 0.46337 0.36568 0.0
H1526 H 0.95011 0.5116 0.31723 0.0
H1527 H 0.80615 0.31545 0.45487 0.0
H1528 H 0.67446 0.1037 0.51327 0.0
H1529 H 0.67528 0.1008 0.56853 0.0
H1530 H 0.57283 0.08886 0.5669 0.0
H1531 H 0.57184 0.09097 0.51179 0.0
H1532 H 0.59302 0.12702 0.60635 0.0
H1533 H 0.62311 0.04368 0.57958 0.0
H1534 H 0.65601 0.01118 0.5559 0.0
H1535 H 0.73649 0.03147 0.61324 0.0
H1536 H 0.70446 0.06495 0.63633 0.0
H1537 H 0.57422 0.10739 0.76231 0.0
H1538 H 0.57276 0.10095 0.70774 0.0
H1539 H 0.67629 0.09748 0.70795 0.0
H1540 H 0.6779 0.10215 0.76273 0.0
H1541 H 0.65466 0.06564 0.66879 0.0
H1542 H 0.6323 0.15216 0.68803 0.0
H1543 H 0.60421 0.18821 0.71024 0.0
H1544 H 0.51581 0.16487 0.66681 0.0
H1545 H 0.54332 0.12848 0.64464 0.0
C1546 C 0.65217 0.09993 0.52456 0.0
C1547 C 0.62303 0.09776 0.50789 0.0
C1548 C 0.65268 0.09843 0.55622 0.0
C1549 C 0.62409 0.09472 0.57189 0.0
C1550 C 0.59514 0.09195 0.55533 0.0
C1551 C 0.59464 0.09325 0.52376 0.0
C1552 C 0.62395 0.09471 0.60555 0.0
C1553 C 0.60616 0.11337 0.61999 0.0
C1554 C 0.64198 0.07738 0.62336 0.0
C1555 C 0.66132 0.0571 0.60951 0.0
C1556 C 0.64791 0.0415 0.58689 0.0
C1557 C 0.66649 0.02296 0.57345 0.0
C1558 C 0.69836 0.01928 0.58302 0.0
C1559 C 0.71179 0.03434 0.60583 0.0
C1560 C 0.69345 0.05322 0.61899 0.0
C1561 C 0.59671 0.10474 0.75096 0.0
C1562 C 0.62622 0.10561 0.76721 0.0
C1563 C 0.59585 0.10138 0.71954 0.0
C1564 C 0.62445 0.0993 0.70341 0.0
C1565 C 0.65384 0.09922 0.71966 0.0
C1566 C 0.65472 0.10224 0.7511 0.0
C1567 C 0.62391 0.09811 0.66961 0.0
C1568 C 0.6415 0.07925 0.65513 0.0
C1569 C 0.60643 0.11564 0.65161 0.0
C1570 C 0.58978 0.13745 0.66497 0.0
C1571 C 0.60681 0.15461 0.68341 0.0
C1572 C 0.59101 0.17512 0.69596 0.0
C1573 C 0.55823 0.17878 0.69002 0.0
C1574 C 0.54119 0.16197 0.67145 0.0
C1575 C 0.55688 0.14142 0.65887 0.0
H1576 H 0.54604 0.19467 0.69974 0.0
H1577 H 0.71259 1.00469 0.57284 0.0
H1578 H 0.42529 0.9045 0.26216 0.0
H1579 H 0.42686 0.91001 0.31676 0.0
H1580 H 0.32468 0.92353 0.31544 0.0
H1581 H 0.32321 0.91963 0.26047 0.0
H1582 H 0.35066 0.95281 0.35524 0.0
H1583 H 0.36009 0.86477 0.33584 0.0
H1584 H 0.38261 0.82628 0.31381 0.0
H1585 H 0.47373 0.84141 0.35758 0.0
H1586 H 0.45187 0.88017 0.37957 0.0
H1587 H 0.32711 0.9162 0.51037 0.0
H1588 H 0.32665 0.91994 0.4553 0.0
H1589 H 0.43001 0.92445 0.45693 0.0
H1590 H 0.43082 0.92207 0.512 0.0
H1591 H 0.40331 0.88664 0.41771 0.0
H1592 H 0.3932 0.9743 0.43821 0.0
H1593 H 0.36951 0.01159 0.46192 0.0
H1594 H 0.27905 0.99633 0.41702 0.0
H1595 H 0.30214 0.95877 0.3932 0.0
C1596 C 0.40317 0.90914 0.27325 0.0
C1597 C 0.37404 0.91141 0.2566 0.0
C1598 C 0.40403 0.9119 0.30472 0.0
C1599 C 0.37574 0.91655 0.32055 0.0
C1600 C 0.34684 0.91971 0.30395 0.0
C1601 C 0.34599 0.91721 0.27241 0.0
C1602 C 0.37622 0.91764 0.35435 0.0
C1603 C 0.36195 0.93819 0.36881 0.0
C1604 C 0.3912 0.89877 0.37238 0.0
C1605 C 0.40443 0.87551 0.3591 0.0
C1606 C 0.385 0.85999 0.34058 0.0
C1607 C 0.39763 0.83811 0.32814 0.0
C1608 C 0.4296 0.83145 0.33423 0.0
C1609 C 0.44898 0.84662 0.35285 0.0
C1610 C 0.43648 0.86853 0.36532 0.0
C1611 C 0.34977 0.91865 0.49925 0.0
C1612 C 0.37904 0.91857 0.51598 0.0
C1613 C 0.34943 0.92064 0.46763 0.0
C1614 C 0.37831 0.92235 0.45198 0.0
C1615 C 0.40745 0.92295 0.46852 0.0
C1616 C 0.40781 0.92139 0.5001 0.0
C1617 C 0.37826 0.9219 0.41833 0.0
C1618 C 0.39234 0.90133 0.40399 0.0
C1619 C 0.36311 0.9407 0.40049 0.0
C1620 C 0.34925 0.96348 0.41433 0.0
C1621 C 0.36815 0.97873 0.43364 0.0
C1622 C 0.35486 0.99994 0.44705 0.0
C1623 C 0.32269 1.00611 0.44129 0.0
C1624 C 0.30389 0.99136 0.42167 0.0
C1625 C 0.3171 0.97016 0.40814 0.0
H1626 H 0.31238 0.02241 0.45188 0.0
H1627 H 0.43935 0.81454 0.32457 0.0
H1628 H 0.67743 0.61638 1.00857 0.0
H1629 H 0.67957 0.61131 0.06348 0.0
H1630 H 0.57636 0.60576 0.06438 0.0
H1631 H 0.57385 0.60937 1.0094 0.0
H1632 H 0.60909 0.64408 0.10552 0.0
H1633 H 0.60869 0.55391 0.08098 0.0
H1634 H 0.63006 0.51743 0.05358 0.0
H1635 H 0.72465 0.53276 0.08986 0.0
H1636 H 0.70374 0.56929 0.11749 0.0
H1637 H 0.58107 0.61637 0.25793 0.0
H1638 H 0.58055 0.61518 0.20275 0.0
H1639 H 0.68094 0.59504 0.20455 0.0
H1640 H 0.68133 0.59529 0.25979 0.0
H1641 H 0.65224 0.57011 0.1612 0.0
H1642 H 0.65588 0.65548 0.19 0.0
H1643 H 0.64109 0.69497 0.21505 0.0
H1644 H 0.54948 0.69434 0.16839 0.0
H1645 H 0.56344 0.65454 0.14349 0.0
C1646 C 0.65514 0.61348 0.02019 0.0
C1647 C 0.62541 0.61345 1.0042 0.0
C1648 C 0.65646 0.61078 0.0517 0.0
C1649 C 0.62812 0.60827 0.06798 0.0
C1650 C 0.59851 0.60784 0.05224 0.0
C1651 C 0.59717 0.61011 0.02073 0.0
C1652 C 0.6292 0.60714 0.10153 0.0
C1653 C 0.618 0.62779 0.1178 0.0
C1654 C 0.64224 0.58637 0.11739 0.0
C1655 C 0.65471 0.56429 0.10118 0.0
C1656 C 0.63405 0.54949 0.08302 0.0
C1657 C 0.64607 0.52882 0.06748 0.0
C1658 C 0.67872 0.52283 0.06988 0.0
C1659 C 0.6994 0.53747 0.08792 0.0
C1660 C 0.68745 0.55808 0.10363 0.0
C1661 C 0.60291 0.61121 0.24667 0.0
C1662 C 0.6313 0.60608 0.26344 0.0
C1663 C 0.60269 0.61084 0.21501 0.0
C1664 C 0.63088 0.60553 0.19932 0.0
C1665 C 0.65892 0.59939 0.216 0.0
C1666 C 0.65915 0.59972 0.24766 0.0
C1667 C 0.63125 0.60693 0.16561 0.0
C1668 C 0.64302 0.58643 0.14918 0.0
C1669 C 0.6195 0.62823 0.14957 0.0
C1670 C 0.61056 0.65181 0.16517 0.0
C1671 C 0.63239 0.66356 0.18539 0.0
C1672 C 0.62418 0.68603 0.19953 0.0
C1673 C 0.59434 0.69712 0.19338 0.0
C1674 C 0.57258 0.68571 0.17316 0.0
C1675 C 0.58061 0.66317 0.15906 0.0
H1676 H 0.58811 0.71461 0.2042 0.0
H1677 H 0.68798 0.50679 0.05789 0.0
H1678 H 0.38085 0.36359 0.76541 0.0
H1679 H 0.38059 0.36582 0.82052 0.0
H1680 H 0.37764 0.44666 0.81578 0.0
H1681 H 0.37957 0.44437 0.76026 0.0
H1682 H 0.41387 0.43369 0.86226 0.0
H1683 H 0.30889 0.41097 0.82897 0.0
H1684 H 0.267 0.38756 0.80056 0.0
H1685 H 0.29451 0.31978 0.84673 0.0
H1686 H 0.33692 0.34269 0.87517 0.0
H1687 H 0.36457 0.43615 0.01815 0.0
H1688 H 0.36339 0.44132 0.9629 0.0
H1689 H 0.38589 0.3629 0.95238 0.0
H1690 H 0.3872 0.35768 1.00728 0.0
H1691 H 0.33505 0.37968 0.91404 0.0
H1692 H 0.44524 0.40393 0.94174 0.0
H1693 H 0.48467 0.42914 0.97116 0.0
H1694 H 0.44145 0.4969 0.93703 0.0
H1695 H 0.40173 0.47203 0.9074 0.0
C1696 C 0.38051 0.38183 0.77619 0.0
C1697 C 0.38003 0.4038 0.75868 0.0
C1698 C 0.38009 0.38313 0.80769 0.0
C1699 C 0.37822 0.40641 0.82246 0.0
C1700 C 0.37894 0.42847 0.80499 0.0
C1701 C 0.38001 0.42718 0.77333 0.0
C1702 C 0.37485 0.40739 0.85599 0.0
C1703 C 0.39624 0.42218 0.87345 0.0
C1704 C 0.35185 0.39247 0.87094 0.0
C1705 C 0.32627 0.37854 0.85404 0.0
C1706 C 0.30616 0.39103 0.83293 0.0
C1707 C 0.28231 0.37785 0.81683 0.0
C1708 C 0.27815 0.35218 0.82178 0.0
C1709 C 0.29779 0.33965 0.84291 0.0
C1710 C 0.32172 0.35274 0.85906 0.0
C1711 C 0.36915 0.42004 1.004 0.0
C1712 C 0.37622 0.39656 0.01707 0.0
C1713 C 0.36862 0.42303 0.97248 0.0
C1714 C 0.37476 0.40251 0.95351 0.0
C1715 C 0.38117 0.37899 0.96654 0.0
C1716 C 0.38211 0.37608 0.99794 0.0
C1717 C 0.3746 0.40531 0.92004 0.0
C1718 C 0.35243 0.39131 0.90266 0.0
C1719 C 0.3964 0.42124 0.90524 0.0
C1720 C 0.42057 0.43617 0.92245 0.0
C1721 C 0.44418 0.42421 0.94054 0.0
C1722 C 0.46657 0.43843 0.9572 0.0
C1723 C 0.4656 0.46461 0.9559 0.0
C1724 C 0.44225 0.47662 0.93788 0.0
C1725 C 0.41986 0.46249 0.92109 0.0
H1726 H 0.4829 0.47559 0.96887 0.0
H1727 H 0.25966 0.342 0.80928 0.0
H1728 H 0.34436 0.34189 0.53389 0.0
H1729 H 0.31221 0.31034 0.50657 0.0
H1730 H 0.27063 0.28671 0.59026 0.0
H1731 H 0.30283 0.31806 0.6177 0.0
H1732 H 0.28657 0.24663 0.55565 0.0
H1733 H 0.22897 0.32409 0.54173 0.0
H1734 H 0.22259 0.3685 0.52719 0.0
H1735 H 0.24734 0.35064 0.43606 0.0
H1736 H 0.25434 0.30615 0.45018 0.0
H1737 H 0.15351 0.17782 0.49455 0.0
H1738 H 0.18618 0.20923 0.52163 0.0
H1739 H 0.22763 0.23229 0.43767 0.0
H1740 H 0.19501 0.20108 0.4105 0.0
H1741 H 0.21215 0.27253 0.47213 0.0
H1742 H 0.26875 0.19504 0.4854 0.0
H1743 H 0.275 0.15053 0.49958 0.0
H1744 H 0.25291 0.16823 0.59138 0.0
H1745 H 0.24579 0.21278 0.57764 0.0
C1746 C 0.32847 0.32991 0.54649 0.0
C1747 C 0.32609 0.33255 0.57797 0.0
C1748 C 0.31 0.31194 0.53083 0.0
C1749 C 0.28872 0.29628 0.5463 0.0
C1750 C 0.28684 0.29855 0.57781 0.0
C1751 C 0.3052 0.31656 0.59346 0.0
C1752 C 0.26805 0.27781 0.52965 0.0
C1753 C 0.27001 0.25233 0.53764 0.0
C1754 C 0.24692 0.28513 0.50568 0.0
C1755 C 0.24249 0.31183 0.49709 0.0
C1756 C 0.23329 0.32966 0.51865 0.0
C1757 C 0.22952 0.35484 0.51047 0.0
C1758 C 0.23463 0.3624 0.48073 0.0
C1759 C 0.24343 0.34476 0.45909 0.0
C1760 C 0.24729 0.31956 0.46717 0.0
C1761 C 0.16943 0.18969 0.48185 0.0
C1762 C 0.17169 0.18692 0.45038 0.0
C1763 C 0.18821 0.20756 0.49736 0.0
C1764 C 0.20963 0.22298 0.48173 0.0
C1765 C 0.21133 0.22062 0.45023 0.0
C1766 C 0.1927 0.20271 0.43474 0.0
C1767 C 0.23058 0.24135 0.49819 0.0
C1768 C 0.2287 0.26681 0.49014 0.0
C1769 C 0.25185 0.23399 0.52203 0.0
C1770 C 0.2564 0.20723 0.53042 0.0
C1771 C 0.26495 0.18942 0.50857 0.0
C1772 C 0.2687 0.16419 0.51652 0.0
C1773 C 0.26434 0.15656 0.54635 0.0
C1774 C 0.25625 0.17416 0.56828 0.0
C1775 C 0.25234 0.19941 0.56042 0.0
H1776 H 0.26728 0.13702 0.55247 0.0
H1777 H 0.2317 0.3819 0.47444 0.0
H1778 H 0.90293 0.9813 0.60714 0.0
H1779 H 0.93621 0.00774 0.57539 0.0
H1780 H 0.98417 0.94199 0.54198 0.0
H1781 H 0.95132 0.91542 0.57403 0.0
H1782 H 0.02619 0.97853 0.55147 0.0
H1783 H 0.92301 0.97184 0.50165 0.0
H1784 H 0.86408 0.97513 0.49615 0.0
H1785 H 0.86958 0.05454 0.51169 0.0
H1786 H 0.92853 0.05165 0.51793 0.0
H1787 H 0.09525 0.034 0.42265 0.0
H1788 H 0.06229 0.00785 0.45506 0.0
H1789 H 0.01594 0.074 0.48928 0.0
H1790 H 0.04848 0.10029 0.4566 0.0
H1791 H 0.97303 0.03748 0.47944 0.0
H1792 H 0.07658 0.04396 0.52868 0.0
H1793 H 0.13551 0.04038 0.5338 0.0
H1794 H 0.12917 0.96089 0.51909 0.0
H1795 H 0.07024 0.96406 0.51324 0.0
C1796 C 0.92076 0.97244 0.59329 0.0
C1797 C 0.92421 0.94617 0.59299 0.0
C1798 C 0.93964 0.9876 0.57494 0.0
C1799 C 0.96223 0.97687 0.55571 0.0
C1800 C 0.96672 0.95074 0.55638 0.0
C1801 C 0.94787 0.93555 0.57474 0.0
C1802 C 0.98084 0.99277 0.5346 0.0
C1803 C 0.01452 0.99116 0.53545 0.0
C1804 C 0.96571 0.00974 0.51408 0.0
C1805 C 0.9302 0.01147 0.51062 0.0
C1806 C 0.91165 0.98996 0.50423 0.0
C1807 C 0.87823 0.99176 0.50094 0.0
C1808 C 0.86309 0.01502 0.50366 0.0
C1809 C 0.88134 0.03653 0.50967 0.0
C1810 C 0.91475 0.03481 0.51311 0.0
C1811 C 0.07785 0.04302 0.43685 0.0
C1812 C 0.07468 0.0693 0.43708 0.0
C1813 C 0.05914 0.02801 0.45555 0.0
C1814 C 0.037 0.03894 0.47508 0.0
C1815 C 0.03295 0.06511 0.47455 0.0
C1816 C 0.05162 0.08013 0.45583 0.0
C1817 C 0.01836 0.02318 0.49631 0.0
C1818 C 0.98468 0.02483 0.49547 0.0
C1819 C 0.03348 1.0062 0.51681 0.0
C1820 C 0.06899 1.00431 0.5201 0.0
C1821 C 0.08776 0.02575 0.52618 0.0
C1822 C 0.12118 0.02379 0.52927 0.0
C1823 C 0.13609 1.00044 0.52665 0.0
C1824 C 0.1176 0.97898 0.521 0.0
C1825 C 0.0842 0.98086 0.51778 0.0
H1826 H 0.16196 0.99895 0.5291 0.0
H1827 H 0.83723 0.01638 0.50103 0.0
H1828 H 0.30712 0.92465 0.70717 0.0
H1829 H 0.27441 0.95012 0.74034 0.0
H1830 H 0.31058 0.01743 0.69896 0.0
H1831 H 0.34419 0.99202 0.66627 0.0
H1832 H 0.31153 0.02289 0.75775 0.0
H1833 H 0.23225 0.99456 0.68499 0.0
H1834 H 0.20264 0.96304 0.6545 0.0
H1835 H 0.17012 0.92769 0.73542 0.0
H1836 H 0.19989 0.95881 0.76643 0.0
H1837 H 0.19846 0.10704 0.82074 0.0
H1838 H 0.23165 0.0817 0.78782 0.0
H1839 H 0.19602 0.01426 0.8293 0.0
H1840 H 0.16202 0.03952 0.86179 0.0
H1841 H 0.1948 0.00891 0.77035 0.0
H1842 H 0.27435 0.03766 0.84303 0.0
H1843 H 0.30442 0.06921 0.87311 0.0
H1844 H 0.33661 0.10399 0.79173 0.0
H1845 H 0.3064 0.07285 0.76113 0.0
C1846 C 0.30791 0.94487 0.70486 0.0
C1847 C 0.32829 0.95626 0.68394 0.0
C1848 C 0.28906 0.95945 0.72384 0.0
C1849 C 0.28967 0.98578 0.72204 0.0
C1850 C 0.30965 0.99718 0.70087 0.0
C1851 C 0.32876 0.9826 0.68204 0.0
C1852 C 0.27027 1.0014 0.74285 0.0
C1853 C 0.2859 0.02006 0.76015 0.0
C1854 C 0.23695 0.99738 0.74666 0.0
C1855 C 0.21854 0.97891 0.72804 0.0
C1856 C 0.21893 0.97999 0.69629 0.0
C1857 C 0.2021 0.9622 0.67891 0.0
C1858 C 0.18458 0.94334 0.69301 0.0
C1859 C 0.18373 0.9423 0.72453 0.0
C1860 C 0.20054 0.96002 0.74202 0.0
C1861 C 0.19792 0.08683 0.82317 0.0
C1862 C 0.17754 0.07535 0.84403 0.0
C1863 C 0.21704 0.07232 0.80431 0.0
C1864 C 0.21667 0.04599 0.80616 0.0
C1865 C 0.19677 0.03451 0.82735 0.0
C1866 C 0.17744 0.04901 0.84607 0.0
C1867 C 0.23607 0.03041 0.78528 0.0
C1868 C 0.22043 0.01175 0.76795 0.0
C1869 C 0.26938 0.03448 0.78139 0.0
C1870 C 0.28783 0.05306 0.79978 0.0
C1871 C 0.28766 0.05213 0.83154 0.0
C1872 C 0.30476 0.06993 0.84868 0.0
C1873 C 0.32228 0.08864 0.83431 0.0
C1874 C 0.32295 0.08951 0.8028 0.0
C1875 C 0.30587 0.07178 0.78555 0.0
H1876 H 0.33534 0.10245 0.84758 0.0
H1877 H 0.1716 0.92957 0.67952 0.0
H1878 H 0.90621 0.34422 0.74115 0.0
H1879 H 0.93841 0.31291 0.76875 0.0
H1880 H 0.98139 0.28983 0.68555 0.0
H1881 H 0.94921 0.32106 0.65778 0.0
H1882 H 0.96505 0.24942 0.7206 0.0
H1883 H 0.02243 0.3269 0.73341 0.0
H1884 H 0.02881 0.37152 0.74694 0.0
H1885 H 0.00347 0.35508 0.83833 0.0
H1886 H 0.99644 0.31039 0.82521 0.0
H1887 H 0.09724 0.18143 0.7851 0.0
H1888 H 0.06513 0.21248 0.75688 0.0
H1889 H 0.02174 0.23637 0.83956 0.0
H1890 H 0.05377 0.20546 0.86789 0.0
H1891 H 0.03841 0.27631 0.80449 0.0
H1892 H 0.98229 0.19856 0.79202 0.0
H1893 H 0.97604 0.15392 0.77852 0.0
H1894 H 0.99867 0.17068 0.68656 0.0
H1895 H 0.00576 0.21536 0.69963 0.0
C1896 C 0.9224 0.33241 0.72869 0.0
C1897 C 0.92521 0.33519 0.69727 0.0
C1898 C 0.94089 0.31457 0.74452 0.0
C1899 C 0.96258 0.29914 0.72928 0.0
C1900 C 0.96486 0.3015 0.69781 0.0
C1901 C 0.94651 0.31943 0.68198 0.0
C1902 C 0.98328 0.28089 0.74622 0.0
C1903 C 0.9814 0.25533 0.73868 0.0
C1904 C 0.00416 0.28851 0.77024 0.0
C1905 C 0.00859 0.31534 0.77825 0.0
C1906 C 0.01796 0.33283 0.75633 0.0
C1907 C 0.02174 0.35813 0.76394 0.0
C1908 C 0.01647 0.36614 0.79346 0.0
C1909 C 0.0075 0.34885 0.81546 0.0
C1910 C 0.00364 0.32353 0.80796 0.0
C1911 C 0.081 0.19339 0.79729 0.0
C1912 C 0.07803 0.19094 0.82873 0.0
C1913 C 0.06255 0.21106 0.78111 0.0
C1914 C 0.04078 0.22663 0.79605 0.0
C1915 C 0.03834 0.22458 0.82753 0.0
C1916 C 0.05663 0.20684 0.84368 0.0
C1917 C 0.02021 0.24482 0.77887 0.0
C1918 C 0.02209 0.27037 0.78639 0.0
C1919 C 0.99933 0.23717 0.75485 0.0
C1920 C 0.99487 0.2103 0.74688 0.0
C1921 C 0.9862 0.19271 0.76896 0.0
C1922 C 0.98246 0.1674 0.76139 0.0
C1923 C 0.98697 0.15948 0.73171 0.0
C1924 C 0.99521 0.17685 0.70955 0.0
C1925 C 0.9991 0.20217 0.71703 0.0
H1926 H 0.98404 0.13988 0.72589 0.0
H1927 H 0.01941 0.38573 0.79931 0.0
H1928 H 0.84778 0.83726 0.53125 0.0
H1929 H 0.81679 0.80555 0.50301 0.0
H1930 H 0.76662 0.78609 0.5839 0.0
H1931 H 0.79772 0.81747 0.61227 0.0
H1932 H 0.7834 0.74465 0.55384 0.0
H1933 H 0.7313 0.82255 0.52906 0.0
H1934 H 0.72843 0.86627 0.51097 0.0
H1935 H 0.7617 0.84319 0.4242 0.0
H1936 H 0.76523 0.79936 0.44193 0.0
H1937 H 0.65453 0.67577 0.48598 0.0
H1938 H 0.68587 0.70764 0.51351 0.0
H1939 H 0.73562 0.72602 0.43203 0.0
H1940 H 0.70412 0.69441 0.40431 0.0
H1941 H 0.71949 0.76792 0.46202 0.0
H1942 H 0.77115 0.68988 0.48685 0.0
H1943 H 0.77389 0.6462 0.50508 0.0
H1944 H 0.74128 0.6696 0.59195 0.0
H1945 H 0.73788 0.71339 0.57409 0.0
C1946 C 0.83022 0.82617 0.54303 0.0
C1947 C 0.82518 0.82994 0.574 0.0
C1948 C 0.81241 0.80812 0.52683 0.0
C1949 C 0.78907 0.79357 0.54123 0.0
C1950 C 0.78444 0.79705 0.57226 0.0
C1951 C 0.80221 0.81507 0.58844 0.0
C1952 C 0.76932 0.77484 0.52401 0.0
C1953 C 0.76912 0.74982 0.53398 0.0
C1954 C 0.75116 0.7814 0.49771 0.0
C1955 C 0.74884 0.80771 0.48692 0.0
C1956 C 0.73824 0.82682 0.50619 0.0
C1957 C 0.73646 0.85162 0.49599 0.0
C1958 C 0.74496 0.85751 0.46647 0.0
C1959 C 0.75517 0.8386 0.44707 0.0
C1960 C 0.75705 0.81378 0.45718 0.0
C1961 C 0.67205 0.68667 0.47389 0.0
C1962 C 0.67688 0.68249 0.44296 0.0
C1963 C 0.69007 0.70481 0.48969 0.0
C1964 C 0.71344 0.71906 0.47495 0.0
C1965 C 0.7178 0.71527 0.44393 0.0
C1966 C 0.69981 0.69713 0.42812 0.0
C1967 C 0.73352 0.73775 0.49189 0.0
C1968 C 0.73379 0.76275 0.48187 0.0
C1969 C 0.75173 0.73118 0.51816 0.0
C1970 C 0.75396 0.70488 0.52903 0.0
C1971 C 0.76433 0.68569 0.50977 0.0
C1972 C 0.76604 0.66091 0.52004 0.0
C1973 C 0.75769 0.65512 0.54963 0.0
C1974 C 0.7477 0.67411 0.56903 0.0
C1975 C 0.74589 0.69891 0.55884 0.0
H1976 H 0.75903 0.63593 0.55755 0.0
H1977 H 0.74356 0.87672 0.45862 0.0
H1978 H 0.65673 0.02074 0.35955 0.0
H1979 H 0.69058 0.99501 0.32751 0.0
H1980 H 0.72635 0.06181 0.28472 0.0
H1981 H 0.69321 0.08766 0.31719 0.0
H1982 H 0.68895 0.98837 0.26948 0.0
H1983 H 0.79961 0.05327 0.25762 0.0
H1984 H 0.8318 0.08333 0.28809 0.0
H1985 H 0.80297 0.04667 0.36949 0.0
H1986 H 0.77056 0.01652 0.33955 0.0
H1987 H 0.83466 0.96999 0.16158 0.0
H1988 H 0.8015 0.99585 0.19421 0.0
H1989 H 0.76963 0.92941 0.2404 0.0
H1990 H 0.80216 0.90344 0.20756 0.0
H1991 H 0.80511 1.00266 0.25378 0.0
H1992 H 0.69529 0.93825 0.26836 0.0
H1993 H 0.66489 0.90581 0.24001 0.0
H1994 H 0.6935 0.93857 0.15621 0.0
H1995 H 0.72377 0.97139 0.18402 0.0
C1996 C 0.67213 0.03001 0.34362 0.0
C1997 C 0.67222 0.05632 0.34105 0.0
C1998 C 0.69141 0.01522 0.32517 0.0
C1999 C 0.71129 0.02635 0.30369 0.0
C2000 C 0.71176 0.05267 0.30141 0.0
C2001 C 0.69264 0.06748 0.31998 0.0
C2002 C 0.73031 0.01042 0.28282 0.0
C2003 C 0.71446 0.99131 0.26642 0.0
C2004 C 0.76349 0.01444 0.27814 0.0
C2005 C 0.78243 0.03281 0.29634 0.0
C2006 C 0.80011 0.05168 0.28203 0.0
C2007 C 0.81833 0.06877 0.29921 0.0
C2008 C 0.81929 0.06701 0.33072 0.0
C2009 C 0.80197 0.04819 0.34511 0.0
C2010 C 0.78359 0.03114 0.32805 0.0
C2011 C 0.82029 0.96082 0.17842 0.0
C2012 C 0.82107 0.93457 0.18179 0.0
C2013 C 0.80143 0.97567 0.1972 0.0
C2014 C 0.78278 0.96466 0.21971 0.0
C2015 C 0.78329 0.93842 0.22292 0.0
C2016 C 0.80205 0.92355 0.20411 0.0
C2017 C 0.76374 0.98064 0.24048 0.0
C2018 C 0.77958 0.99978 0.25682 0.0
C2019 C 0.73064 0.97645 0.24535 0.0
C2020 C 0.71207 0.95711 0.22831 0.0
C2021 C 0.69498 0.93859 0.24388 0.0
C2022 C 0.67782 0.92014 0.22792 0.0
C2023 C 0.67743 0.92009 0.19637 0.0
C2024 C 0.69399 0.93858 0.18067 0.0
C2025 C 0.7112 0.95709 0.19652 0.0
H2026 H 0.6643 0.90573 0.18411 0.0
H2027 H 0.83361 0.08013 0.34395 0.0
H2028 H 0.95289 0.80942 0.15875 0.0
H2029 H 0.9861 0.77893 0.18637 0.0
H2030 H 0.93853 0.79784 0.26884 0.0
H2031 H 0.90564 0.82885 0.24138 0.0
H2032 H 0.00144 0.79387 0.27912 0.0
H2033 H 0.92105 0.74319 0.22931 0.0
H2034 H 0.88863 0.72742 0.18599 0.0
H2035 H 0.97424 0.70163 0.14355 0.0
H2036 H 0.00723 0.71755 0.18645 0.0
H2037 H 0.0527 0.68843 0.36573 0.0
H2038 H 0.02137 0.71992 0.33785 0.0
H2039 H 0.07126 0.70141 0.25652 0.0
H2040 H 0.10245 0.66951 0.28427 0.0
H2041 H 0.0078 0.7053 0.24539 0.0
H2042 H 0.08806 0.75561 0.29596 0.0
H2043 H 0.12007 0.77123 0.33962 0.0
H2044 H 0.03413 0.7975 0.38107 0.0
H2045 H 0.00155 0.78172 0.33783 0.0
C2046 C 0.94942 0.80707 0.18276 0.0
C2047 C 0.92649 0.82148 0.19784 0.0
C2048 C 0.96837 0.78953 0.19852 0.0
C2049 C 0.96457 0.78577 0.22966 0.0
C2050 C 0.94189 0.80034 0.24483 0.0
C2051 C 0.92302 0.818 0.22909 0.0
C2052 C 0.9844 0.76678 0.24639 0.0
C2053 C 0.00247 0.77443 0.27196 0.0
C2054 C 0.98643 0.7415 0.23671 0.0
C2055 C 0.96663 0.73178 0.21097 0.0
C2056 C 0.93298 0.73432 0.21064 0.0
C2057 C 0.9145 0.72533 0.18617 0.0
C2058 C 0.92938 0.71359 0.162 0.0
C2059 C 0.96276 0.71075 0.16228 0.0
C2060 C 0.98136 0.71974 0.18667 0.0
C2061 C 0.05718 0.69114 0.34194 0.0
C2062 C 0.08019 0.67652 0.32724 0.0
C2063 C 0.03929 0.70924 0.32603 0.0
C2064 C 0.04416 0.71329 0.29512 0.0
C2065 C 0.0671 0.69868 0.28036 0.0
C2066 C 0.08501 0.68051 0.29628 0.0
C2067 C 0.02481 0.73239 0.27812 0.0
C2068 C 0.00681 0.72475 0.2525 0.0
C2069 C 0.02278 0.75766 0.28781 0.0
C2070 C 0.04234 0.76728 0.31377 0.0
C2071 C 0.07596 0.76455 0.31448 0.0
C2072 C 0.09421 0.77346 0.33914 0.0
C2073 C 0.07913 0.78529 0.36314 0.0
C2074 C 0.04578 0.7883 0.36248 0.0
C2075 C 0.02741 0.77941 0.33789 0.0
H2076 H 0.09331 0.79218 0.38221 0.0
H2077 H 0.91503 0.70664 0.14307 0.0
H2078 H 0.29403 0.82217 0.11637 0.0
H2079 H 0.26086 0.79168 0.08854 0.0
H2080 H 0.31899 0.80187 1.01008 0.0
H2081 H 0.35197 0.8327 0.03767 0.0
H2082 H 0.2564 0.80174 0.99442 0.0
H2083 H 0.32634 0.74921 0.05484 0.0
H2084 H 0.35239 0.73414 0.10206 0.0
H2085 H 0.26013 0.71618 0.13774 0.0
H2086 H 0.23349 0.73146 0.09085 0.0
H2087 H 0.20254 0.69592 0.91004 0.0
H2088 H 0.23441 0.72672 0.93857 0.0
H2089 H 0.17659 0.7139 0.0167 0.0
H2090 H 0.14502 0.68259 0.9884 0.0
H2091 H 0.23819 0.71566 0.03306 0.0
H2092 H 0.16813 0.76759 0.97262 0.0
H2093 H 0.14183 0.7828 0.92558 0.0
H2094 H 0.23377 0.80217 0.89021 0.0
H2095 H 0.26066 0.78676 0.9369 0.0
C2096 C 0.29992 0.8178 0.09325 0.0
C2097 C 0.32582 0.82975 0.07931 0.0
C2098 C 0.28094 0.8003 0.07737 0.0
C2099 C 0.28758 0.7942 0.04726 0.0
C2100 C 0.31337 0.80621 0.03327 0.0
C2101 C 0.33232 0.82376 0.04913 0.0
C2102 C 0.26746 0.77556 0.03022 0.0
C2103 C 0.25278 0.78282 1.00269 0.0
C2104 C 0.26195 0.75103 0.04131 0.0
C2105 C 0.27792 0.7417 0.06945 0.0
C2106 C 0.3116 0.74222 0.07284 0.0
C2107 C 0.32647 0.73361 0.09953 0.0
C2108 C 0.30792 0.72427 0.12292 0.0
C2109 C 0.27446 0.72345 0.11962 0.0
C2110 C 0.25947 0.73206 0.09298 0.0
C2111 C 0.19644 0.69976 0.93324 0.0
C2112 C 0.17108 0.68689 0.94688 0.0
C2113 C 0.21466 0.71747 0.94953 0.0
C2114 C 0.20771 0.72297 0.97975 0.0
C2115 C 0.18243 0.71007 0.99343 0.0
C2116 C 0.16429 0.69224 0.97718 0.0
C2117 C 0.22718 0.74181 0.99717 0.0
C2118 C 0.24175 0.73459 0.0248 0.0
C2119 C 0.23253 0.7664 0.98619 0.0
C2120 C 0.21642 0.7758 0.95815 0.0
C2121 C 0.18275 0.77492 0.95472 0.0
C2122 C 0.16774 0.78361 0.92814 0.0
C2123 C 0.18612 0.79339 0.90489 0.0
C2124 C 0.21956 0.79457 0.90822 0.0
C2125 C 0.2347 0.78588 0.93475 0.0
H2126 H 0.17445 0.80011 0.88433 0.0
H2127 H 0.31948 0.71762 0.14356 0.0
H2128 H 0.04482 0.60067 0.9493 0.0
H2129 H 0.01206 0.57474 0.98223 0.0
H2130 H 0.06566 0.50918 0.9566 0.0
H2131 H 0.09799 0.53485 0.92317 0.0
H2132 H 0.00418 0.4977 0.95994 0.0
H2133 H 0.08078 0.54028 0.02434 0.0
H2134 H 0.10951 0.57695 0.0456 0.0
H2135 H 0.02063 0.6068 0.07729 0.0
H2136 H 0.99129 0.57047 0.05583 0.0
H2137 H 0.95252 0.41885 0.07841 0.0
H2138 H 0.98715 0.44421 0.04656 0.0
H2139 H 0.93381 0.51054 0.06979 0.0
H2140 H 0.89957 0.48545 0.10216 0.0
H2141 H 0.99619 0.5211 0.06799 0.0
H2142 H 0.91964 0.47864 1.00241 0.0
H2143 H 0.89134 0.4417 0.98132 0.0
H2144 H 0.98096 0.41128 0.95219 0.0
H2145 H 0.00985 0.4479 0.97348 0.0
C2146 C 0.04945 0.5807 0.95042 0.0
C2147 C 0.0742 0.5699 0.93365 0.0
C2148 C 0.03082 0.56589 0.96945 0.0
C2149 C 0.03674 0.54002 0.97242 0.0
C2150 C 0.06065 0.52908 0.95485 0.0
C2151 C 0.07917 0.54383 0.93571 0.0
C2152 C 0.01851 0.52442 0.99419 0.0
C2153 C 0.0028 0.50268 0.98364 0.0
C2154 C 0.01619 0.531 0.02509 0.0
C2155 C 0.03381 0.55277 0.03823 0.0
C2156 C 0.06734 0.55475 0.03567 0.0
C2157 C 0.08373 0.57547 0.04777 0.0
C2158 C 0.06689 0.59423 0.06272 0.0
C2159 C 0.03363 0.59227 0.06567 0.0
C2160 C 0.01711 0.57162 0.05356 0.0
C2161 C 0.94832 0.43887 0.07698 0.0
C2162 C 0.92304 0.45005 0.0927 0.0
C2163 C 0.96808 0.45335 0.05861 0.0
C2164 C 0.96274 0.47926 0.05524 0.0
C2165 C 0.93837 0.49059 0.07188 0.0
C2166 C 0.91876 0.47618 0.0904 0.0
C2167 C 0.98175 0.49448 0.0337 0.0
C2168 C 0.99762 0.51612 0.0443 0.0
C2169 C 0.98429 0.48778 1.00286 0.0
C2170 C 0.96692 0.46589 0.98977 0.0
C2171 C 0.93332 0.464 0.99166 0.0
C2172 C 0.91718 0.44313 0.97966 0.0
C2173 C 0.93435 0.42413 0.96548 0.0
C2174 C 0.9677 0.426 0.9632 0.0
C2175 C 0.98397 0.44681 0.97521 0.0
H2176 H 0.92181 0.40798 0.95621 0.0
H2177 H 0.07963 0.61025 0.07208 0.0
H2178 H 0.20549 0.5896 0.32567 0.0
H2179 H 0.23893 0.56349 0.29364 0.0
H2180 H 0.18545 0.49794 0.31968 0.0
H2181 H 0.15233 0.52382 0.35218 0.0
H2182 H 0.24776 0.4871 0.31734 0.0
H2183 H 0.1705 0.5281 0.25171 0.0
H2184 H 0.14156 0.56437 0.2297 0.0
H2185 H 0.23032 0.59434 0.19778 0.0
H2186 H 0.25988 0.55841 0.21999 0.0
H2187 H 0.29678 0.40611 0.2001 0.0
H2188 H 0.26362 0.43228 0.23233 0.0
H2189 H 0.31742 0.49768 0.20634 0.0
H2190 H 0.35029 0.47175 0.1737 0.0
H2191 H 0.25506 0.50866 0.20866 0.0
H2192 H 0.33231 0.46769 0.27417 0.0
H2193 H 0.36135 0.4315 0.29626 0.0
H2194 H 0.27269 0.40154 0.32846 0.0
H2195 H 0.24304 0.43739 0.30617 0.0
C2196 C 0.20101 0.5696 0.32483 0.0
C2197 C 0.17604 0.55887 0.34142 0.0
C2198 C 0.22006 0.55469 0.30634 0.0
C2199 C 0.21437 0.52876 0.30375 0.0
C2200 C 0.19027 0.51789 0.32116 0.0
C2201 C 0.1713 0.53275 0.33975 0.0
C2202 C 0.23295 0.51305 0.28242 0.0
C2203 C 0.24901 0.49166 0.29351 0.0
C2204 C 0.23519 0.51919 0.25137 0.0
C2205 C 0.21743 0.54069 0.23776 0.0
C2206 C 0.18388 0.54251 0.24018 0.0
C2207 C 0.16736 0.563 0.22764 0.0
C2208 C 0.1841 0.58167 0.21242 0.0
C2209 C 0.21739 0.57987 0.20962 0.0
C2210 C 0.23404 0.55944 0.22215 0.0
C2211 C 0.30139 0.42609 0.201 0.0
C2212 C 0.32638 0.43676 0.18438 0.0
C2213 C 0.2825 0.44104 0.2196 0.0
C2214 C 0.28834 0.46694 0.22223 0.0
C2215 C 0.31249 0.47776 0.20482 0.0
C2216 C 0.33132 0.46285 0.18615 0.0
C2217 C 0.26984 0.48269 0.24358 0.0
C2218 C 0.2538 0.50409 0.23249 0.0
C2219 C 0.26762 0.47657 0.27463 0.0
C2220 C 0.28542 0.4551 0.28825 0.0
C2221 C 0.31898 0.45329 0.28578 0.0
C2222 C 0.33555 0.43285 0.29836 0.0
C2223 C 0.31886 0.4142 0.31369 0.0
C2224 C 0.28557 0.41599 0.31654 0.0
C2225 C 0.26888 0.43637 0.30396 0.0
H2226 H 0.33173 0.39839 0.32341 0.0
H2227 H 0.17127 0.59752 0.20273 0.0
H2228 H 0.79586 0.32154 0.11577 0.0
H2229 H 0.76543 0.28946 0.08787 0.0
H2230 H 0.81495 0.30888 1.00661 0.0
H2231 H 0.8452 0.34129 0.03436 0.0
H2232 H 0.75188 0.30319 0.99493 0.0
H2233 H 0.83375 0.25535 0.04664 0.0
H2234 H 0.86602 0.24076 0.09066 0.0
H2235 H 0.78088 0.21232 0.13161 0.0
H2236 H 0.74802 0.22706 0.088 0.0
H2237 H 0.70392 0.1965 0.90857 0.0
H2238 H 0.73481 0.22846 0.93622 0.0
H2239 H 0.68644 0.20888 0.01805 0.0
H2240 H 0.65581 0.17654 0.99058 0.0
H2241 H 0.7492 0.21463 0.02929 0.0
H2242 H 0.66728 0.26263 0.9778 0.0
H2243 H 0.63491 0.27727 0.93386 0.0
H2244 H 0.72001 0.30547 0.89261 0.0
H2245 H 0.75297 0.29068 0.93614 0.0
C2246 C 0.80038 0.31895 0.09198 0.0
C2247 C 0.82308 0.33393 0.07733 0.0
C2248 C 0.78302 0.30051 0.07605 0.0
C2249 C 0.78809 0.29648 0.04515 0.0
C2250 C 0.8106 0.31156 0.03042 0.0
C2251 C 0.82798 0.33003 0.04635 0.0
C2252 C 0.76964 0.27679 0.02815 0.0
C2253 C 0.75168 0.28376 1.00222 0.0
C2254 C 0.76867 0.2515 0.03798 0.0
C2255 C 0.78839 0.24252 0.06418 0.0
C2256 C 0.82187 0.24616 0.06513 0.0
C2257 C 0.84028 0.23783 0.08999 0.0
C2258 C 0.8255 0.22568 0.11395 0.0
C2259 C 0.79229 0.22177 0.11305 0.0
C2260 C 0.77377 0.23008 0.08826 0.0
C2261 C 0.69976 0.19903 0.93244 0.0
C2262 C 0.67728 0.18401 0.94733 0.0
C2263 C 0.71738 0.21741 0.94822 0.0
C2264 C 0.71275 0.22137 0.97922 0.0
C2265 C 0.69045 0.20626 0.99417 0.0
C2266 C 0.67286 0.18782 0.9784 0.0
C2267 C 0.7314 0.24104 0.99608 0.0
C2268 C 0.7494 0.23406 0.02199 0.0
C2269 C 0.7324 0.26633 0.98624 0.0
C2270 C 0.71263 0.27533 0.9601 0.0
C2271 C 0.67912 0.27179 0.95925 0.0
C2272 C 0.66067 0.28013 0.93444 0.0
C2273 C 0.67541 0.29223 0.91042 0.0
C2274 C 0.70863 0.29606 0.91121 0.0
C2275 C 0.72721 0.28772 0.93596 0.0
H2276 H 0.66108 0.29868 0.89123 0.0
H2277 H 0.83979 0.21925 0.13318 0.0
H2278 H 0.79758 0.41893 0.70168 0.0
H2279 H 0.76387 0.44441 0.73426 0.0
H2280 H 0.8096 0.51154 0.70192 0.0
H2281 H 0.84349 0.48626 0.66947 0.0
H2282 H 0.80791 0.50981 0.76365 0.0
H2283 H 0.73213 0.49582 0.67987 0.0
H2284 H 0.70051 0.4692 0.64457 0.0
H2285 H 0.65513 0.4334 0.71928 0.0
H2286 H 0.68664 0.45966 0.75502 0.0
H2287 H 0.70293 0.60358 0.82221 0.0
H2288 H 0.73673 0.57637 0.79162 0.0
H2289 H 0.68329 0.51174 0.82068 0.0
H2290 H 0.64945 0.53867 0.85107 0.0
H2291 H 0.68881 0.5104 0.76187 0.0
H2292 H 0.75809 0.52352 0.84562 0.0
H2293 H 0.79199 0.54379 0.88483 0.0
H2294 H 0.85263 0.57407 0.81672 0.0
H2295 H 0.81825 0.55498 0.77691 0.0
C2296 C 0.80022 0.43914 0.7012 0.0
C2297 C 0.82333 0.45051 0.68292 0.0
C2298 C 0.78084 0.4537 0.71982 0.0
C2299 C 0.78408 0.47994 0.7205 0.0
C2300 C 0.80666 0.49134 0.70183 0.0
C2301 C 0.82595 0.47683 0.68315 0.0
C2302 C 0.76514 0.49551 0.74163 0.0
C2303 C 0.78185 0.51041 0.76294 0.0
C2304 C 0.73114 0.49515 0.74171 0.0
C2305 C 0.71195 0.47958 0.72013 0.0
C2306 C 0.71553 0.48218 0.68877 0.0
C2307 C 0.69758 0.46718 0.66868 0.0
C2308 C 0.67583 0.4496 0.67967 0.0
C2309 C 0.67193 0.44704 0.71078 0.0
C2310 C 0.68979 0.462 0.73096 0.0
C2311 C 0.69857 0.58355 0.82233 0.0
C2312 C 0.67332 0.57338 0.83907 0.0
C2313 C 0.71801 0.56798 0.80489 0.0
C2314 C 0.71262 0.54193 0.80377 0.0
C2315 C 0.68789 0.53175 0.821 0.0
C2316 C 0.66861 0.54723 0.83852 0.0
C2317 C 0.73158 0.52542 0.78358 0.0
C2318 C 0.71488 0.51017 0.76254 0.0
C2319 C 0.76566 0.52501 0.78428 0.0
C2320 C 0.78514 0.53808 0.80812 0.0
C2321 C 0.77816 0.53498 0.83886 0.0
C2322 C 0.79758 0.5462 0.86125 0.0
C2323 C 0.82445 0.56021 0.85328 0.0
C2324 C 0.83185 0.56315 0.82287 0.0
C2325 C 0.81224 0.5523 0.80037 0.0
H2326 H 0.83951 0.56881 0.87065 0.0
H2327 H 0.66198 0.43798 0.6641 0.0
H2328 H 0.44382 0.91352 0.06254 0.0
H2329 H 0.47662 0.93921 0.02948 0.0
H2330 H 0.44877 1.00567 0.07792 0.0
H2331 H 0.41505 0.98016 0.1104 0.0
H2332 H 0.44628 0.01479 0.01965 0.0
H2333 H 0.52297 0.97671 0.08752 0.0
H2334 H 0.54785 0.94072 0.11375 0.0
H2335 H 0.57836 0.91091 0.02901 0.0
H2336 H 0.55239 0.94631 1.00205 0.0
H2337 H 0.5633 0.09769 0.96249 0.0
H2338 H 0.53099 0.07128 0.99503 0.0
H2339 H 0.559 1.00582 0.94479 0.0
H2340 H 0.59237 0.03209 0.91274 0.0
H2341 H 0.56127 0.99583 1.00334 0.0
H2342 H 0.48466 0.03482 0.93564 0.0
H2343 H 0.46005 0.07133 0.91017 0.0
H2344 H 0.42981 0.10002 0.99555 0.0
H2345 H 0.45542 0.0641 0.02174 0.0
C2346 C 0.44491 0.93358 0.06636 0.0
C2347 C 0.42692 0.94475 0.08926 0.0
C2348 C 0.46369 0.94828 0.0474 0.0
C2349 C 0.4655 0.97443 0.0513 0.0
C2350 C 0.44777 0.98557 0.07434 0.0
C2351 C 0.42865 0.97092 0.09306 0.0
C2352 C 0.48572 0.99021 0.03136 0.0
C2353 C 0.47152 0.0108 0.01639 0.0
C2354 C 0.51854 0.98477 0.02652 0.0
C2355 C 0.53543 0.96405 0.04273 0.0
C2356 C 0.53484 0.96243 0.07443 0.0
C2357 C 0.54912 0.94209 0.08944 0.0
C2358 C 0.56478 0.92352 0.07309 0.0
C2359 C 0.5662 0.9253 0.04165 0.0
C2360 C 0.5516 0.94546 0.02648 0.0
C2361 C 0.56243 0.0777 0.95816 0.0
C2362 C 0.58029 0.06705 0.93482 0.0
C2363 C 0.54388 0.06258 0.97683 0.0
C2364 C 0.54214 0.03652 0.9722 0.0
C2365 C 0.55991 0.02585 0.94886 0.0
C2366 C 0.57882 0.04093 0.93041 0.0
C2367 C 0.52183 0.02043 0.99169 0.0
C2368 C 0.53601 0.99978 1.00655 0.0
C2369 C 0.489 0.02586 0.99651 0.0
C2370 C 0.47223 0.04685 0.98069 0.0
C2371 C 0.47288 0.04895 0.94902 0.0
C2372 C 0.45878 0.06958 0.93445 0.0
C2373 C 0.44329 0.08799 0.95121 0.0
C2374 C 0.44183 0.08575 0.98259 0.0
C2375 C 0.45622 0.06529 0.99733 0.0
H2376 H 0.43247 0.10399 0.93991 0.0
H2377 H 0.57578 0.90775 0.08476 0.0
H2378 H 0.44793 0.30646 0.15747 0.0
H2379 H 0.47921 0.27483 0.18524 0.0
H2380 H 0.42761 0.29186 0.26607 0.0
H2381 H 0.39653 0.32389 0.23845 0.0
H2382 H 0.49058 0.28825 0.2785 0.0
H2383 H 0.41256 0.23786 0.22492 0.0
H2384 H 0.38207 0.22261 0.18014 0.0
H2385 H 0.46967 0.19795 0.14033 0.0
H2386 H 0.50075 0.21337 0.18472 0.0
H2387 H 0.54308 0.18292 0.36466 0.0
H2388 H 0.51107 0.21398 0.33669 0.0
H2389 H 0.5618 0.19632 0.25555 0.0
H2390 H 0.59354 0.16481 0.28336 0.0
H2391 H 0.49919 0.20024 0.24323 0.0
H2392 H 0.57728 0.25065 0.29646 0.0
H2393 H 0.60806 0.26612 0.34096 0.0
H2394 H 0.52074 0.29095 0.38113 0.0
H2395 H 0.48937 0.27532 0.33703 0.0
C2396 C 0.44305 0.30338 0.18111 0.0
C2397 C 0.41959 0.31764 0.1957 0.0
C2398 C 0.46092 0.2852 0.19697 0.0
C2399 C 0.4556 0.28069 0.22774 0.0
C2400 C 0.43217 0.29493 0.24235 0.0
C2401 C 0.4143 0.31316 0.2265 0.0
C2402 C 0.47493 0.26153 0.24477 0.0
C2403 C 0.49206 0.26891 0.27102 0.0
C2404 C 0.47765 0.23641 0.23466 0.0
C2405 C 0.459 0.22698 0.20802 0.0
C2406 C 0.42534 0.22935 0.20652 0.0
C2407 C 0.40795 0.22064 0.18123 0.0
C2408 C 0.42393 0.20937 0.15737 0.0
C2409 C 0.45733 0.20671 0.15881 0.0
C2410 C 0.47484 0.21541 0.18404 0.0
C2411 C 0.54755 0.18569 0.34088 0.0
C2412 C 0.57101 0.17144 0.32629 0.0
C2413 C 0.52927 0.20356 0.32491 0.0
C2414 C 0.53422 0.20781 0.29402 0.0
C2415 C 0.55751 0.19347 0.27935 0.0
C2416 C 0.57575 0.17551 0.29531 0.0
C2417 C 0.51482 0.22695 0.27699 0.0
C2418 C 0.49769 0.21956 0.25074 0.0
C2419 C 0.51214 0.25208 0.28707 0.0
C2420 C 0.53095 0.26159 0.31356 0.0
C2421 C 0.56462 0.25924 0.31488 0.0
C2422 C 0.58218 0.26806 0.34001 0.0
C2423 C 0.56636 0.27945 0.36389 0.0
C2424 C 0.53295 0.2821 0.36264 0.0
C2425 C 0.51527 0.27328 0.33757 0.0
H2426 H 0.57999 0.28627 0.38333 0.0
H2427 H 0.41042 0.20265 0.13781 0.0
H2428 H 0.44973 0.82564 0.65568 0.0
H2429 H 0.48058 0.79339 0.68292 0.0
H2430 H 0.43427 0.81372 0.76554 0.0
H2431 H 0.40297 0.84576 0.73831 0.0
H2432 H 0.52381 0.79677 0.7279 0.0
H2433 H 0.42816 0.76228 0.81108 0.0
H2434 H 0.36927 0.75775 0.81342 0.0
H2435 H 0.36265 0.75224 0.71669 0.0
H2436 H 0.42151 0.75639 0.7138 0.0
H2437 H 0.54754 0.7028 0.86278 0.0
H2438 H 0.51626 0.73463 0.83524 0.0
H2439 H 0.56275 0.71409 0.75278 0.0
H2440 H 0.59447 0.68246 0.78032 0.0
H2441 H 0.47309 0.73105 0.79022 0.0
H2442 H 0.56882 0.76558 0.70708 0.0
H2443 H 0.6277 0.77029 0.70482 0.0
H2444 H 0.63414 0.77585 0.80155 0.0
H2445 H 0.57529 0.77154 0.80436 0.0
C2446 C 0.44593 0.82314 0.67962 0.0
C2447 C 0.42375 0.83822 0.69478 0.0
C2448 C 0.46371 0.80474 0.6952 0.0
C2449 C 0.45965 0.80089 0.72628 0.0
C2450 C 0.43752 0.81598 0.74149 0.0
C2451 C 0.41968 0.83437 0.72589 0.0
C2452 C 0.47899 0.78144 0.7428 0.0
C2453 C 0.51266 0.78219 0.74117 0.0
C2454 C 0.46462 0.76271 0.76077 0.0
C2455 C 0.42922 0.75993 0.76224 0.0
C2456 C 0.41414 0.76002 0.79033 0.0
C2457 C 0.38077 0.75753 0.79174 0.0
C2458 C 0.36222 0.7548 0.76522 0.0
C2459 C 0.37703 0.75446 0.73722 0.0
C2460 C 0.41039 0.75691 0.73568 0.0
C2461 C 0.55125 0.70513 0.8388 0.0
C2462 C 0.57364 0.69015 0.82378 0.0
C2463 C 0.53323 0.7233 0.82305 0.0
C2464 C 0.53727 0.727 0.79194 0.0
C2465 C 0.55951 0.71194 0.77685 0.0
C2466 C 0.57759 0.69378 0.79261 0.0
C2467 C 0.5179 0.74638 0.77531 0.0
C2468 C 0.48423 0.74562 0.77692 0.0
C2469 C 0.53227 0.7651 0.75734 0.0
C2470 C 0.56767 0.76794 0.75592 0.0
C2471 C 0.5828 0.76788 0.72785 0.0
C2472 C 0.61616 0.77048 0.72648 0.0
C2473 C 0.63465 0.77328 0.75303 0.0
C2474 C 0.6198 0.77358 0.78101 0.0
C2475 C 0.58644 0.77102 0.7825 0.0
H2476 H 0.66048 0.77527 0.75192 0.0
H2477 H 0.33639 0.7529 0.76636 0.0
H2478 H 0.59328 0.53044 0.41343 0.0
H2479 H 0.55985 0.5054 0.4467 0.0
H2480 H 0.52291 0.57306 0.48636 0.0
H2481 H 0.55633 0.59827 0.45323 0.0
H2482 H 0.54165 0.53929 0.52948 0.0
H2483 H 0.47614 0.53843 0.43896 0.0
H2484 H 0.46414 0.53199 0.3847 0.0
H2485 H 0.48859 0.45403 0.39342 0.0
H2486 H 0.50117 0.46008 0.44769 0.0
H2487 H 0.41254 0.48376 0.6094 0.0
H2488 H 0.44624 0.50875 0.5763 0.0
H2489 H 0.48208 0.44105 0.53583 0.0
H2490 H 0.44837 0.41592 0.56872 0.0
H2491 H 0.464 0.47479 0.49312 0.0
H2492 H 0.5298 0.47537 0.58326 0.0
H2493 H 0.54234 0.48157 0.63745 0.0
H2494 H 0.51782 0.55954 0.62951 0.0
H2495 H 0.50479 0.55379 0.57528 0.0
C2496 C 0.57779 0.54004 0.42897 0.0
C2497 C 0.57754 0.56641 0.43057 0.0
C2498 C 0.55863 0.52567 0.44799 0.0
C2499 C 0.53875 0.53731 0.46904 0.0
C2500 C 0.53808 0.56363 0.47038 0.0
C2501 C 0.5571 0.57803 0.45126 0.0
C2502 C 0.51945 0.52204 0.49026 0.0
C2503 C 0.52432 0.52545 0.52151 0.0
C2504 C 0.49745 0.50346 0.47996 0.0
C2505 C 0.48992 0.49977 0.44733 0.0
C2506 C 0.47924 0.51996 0.42926 0.0
C2507 C 0.47227 0.51637 0.39851 0.0
C2508 C 0.47569 0.49264 0.3856 0.0
C2509 C 0.486 0.47242 0.40344 0.0
C2510 C 0.49303 0.47591 0.4342 0.0
C2511 C 0.42785 0.47414 0.59372 0.0
C2512 C 0.42766 0.44779 0.59178 0.0
C2513 C 0.44717 0.48848 0.5748 0.0
C2514 C 0.46682 0.47681 0.55356 0.0
C2515 C 0.46709 0.45051 0.55194 0.0
C2516 C 0.44787 0.43615 0.57091 0.0
C2517 C 0.48618 0.49205 0.53235 0.0
C2518 C 0.48133 0.48863 0.5011 0.0
C2519 C 0.50825 0.51057 0.54265 0.0
C2520 C 0.516 0.51409 0.57527 0.0
C2521 C 0.52681 0.4938 0.59311 0.0
C2522 C 0.53407 0.49724 0.62383 0.0
C2523 C 0.53078 0.5209 0.63694 0.0
C2524 C 0.52031 0.54121 0.61933 0.0
C2525 C 0.51303 0.53788 0.58859 0.0
H2526 H 0.53641 0.52352 0.66073 0.0
H2527 H 0.47027 0.48989 0.3618 0.0
loop_
_geom_bond_atom_site_label_1
_geom_bond_atom_site_label_2
_geom_bond_distance
_geom_bond_site_symmetry_2
_ccdc_geom_bond_type
Co0 N4 2.148 . S
Co0 N10 2.128 . S
Co0 N20 2.194 . S
Co0 O25 2.351 . S
Co0 O26 2.155 . S
Co0 O27 2.096 . S
C1 N4 1.301 . S
C1 N5 1.328 . S
C1 H6 0.930 . S
C2 C3 1.333 . S
C2 N4 1.317 . S
C2 H7 0.930 . S
C3 C2 1.333 . S
C3 N5 1.350 . S
C3 H29 0.931 . S
N4 Co0 2.148 . S
N4 C1 1.301 . S
N4 C2 1.317 . S
N5 C1 1.328 . S
N5 C3 1.350 . S
H6 C1 0.930 . S
H7 C2 0.930 . S
C8 O9 1.224 . S
C8 O27 1.247 . S
O9 C8 1.224 . S
N10 Co0 2.128 . S
N10 C11 1.355 . S
N10 C13 1.311 . S
C11 N10 1.355 . S
C11 C12 1.363 . S
C11 H23 0.929 . S
C12 C11 1.363 . S
C12 N14 1.375 . S
C12 H30 0.931 . S
C13 N10 1.311 . S
C13 N14 1.347 . S
C13 H24 0.929 . S
N14 C12 1.375 . S
N14 C13 1.347 . S
C15 C18 1.365 . S
C15 N20 1.328 . S
C15 H21 0.929 . S
C16 C17 1.362 . S
C16 C19 1.378 . S
C16 H31 0.929 . S
C17 C16 1.362 . S
C17 C18 1.366 . S
C18 C15 1.365 . S
C18 C17 1.366 . S
C18 H32 0.930 . S
C19 C16 1.378 . S
C19 N20 1.315 . S
C19 H22 0.930 . S
N20 Co0 2.194 . S
N20 C15 1.328 . S
N20 C19 1.315 . S
H21 C15 0.929 . S
H22 C19 0.930 . S
H23 C11 0.929 . S
H24 C13 0.929 . S
O25 Co0 2.351 . S
O25 C28 1.244 . S
O26 Co0 2.155 . S
O26 C28 1.240 . S
O27 Co0 2.096 . S
O27 C8 1.247 . S
C28 O25 1.244 . S
C28 O26 1.240 . S
H29 C3 0.931 . S
H30 C12 0.931 . S
H31 C16 0.929 . S
H32 C18 0.930 . S
Co33 N37 2.148 . S
Co33 N43 2.128 . S
Co33 N53 2.194 . S
Co33 O58 2.351 . S
Co33 O59 2.155 . S
Co33 O60 2.096 . S
C34 N37 1.301 . S
C34 N38 1.328 . S
C34 H39 0.930 . S
C35 C36 1.333 . S
C35 N37 1.317 . S
C35 H40 0.930 . S
C36 C35 1.333 . S
C36 N38 1.350 . S
C36 H62 0.931 . S
N37 Co33 2.148 . S
N37 C34 1.301 . S
N37 C35 1.317 . S
N38 C34 1.328 . S
N38 C36 1.350 . S
H39 C34 0.930 . S
H40 C35 0.930 . S
C41 O42 1.224 . S
C41 O60 1.247 . S
O42 C41 1.224 . S
N43 Co33 2.128 . S
N43 C44 1.355 . S
N43 C46 1.311 . S
C44 N43 1.355 . S
C44 C45 1.363 . S
C44 H56 0.929 . S
C45 C44 1.363 . S
C45 N47 1.375 . S
C45 H63 0.931 . S
C46 N43 1.311 . S
C46 N47 1.347 . S
C46 H57 0.929 . S
N47 C45 1.375 . S
N47 C46 1.347 . S
C48 C51 1.365 . S
C48 N53 1.328 . S
C48 H54 0.929 . S
C49 C50 1.362 . S
C49 C52 1.378 . S
C49 H64 0.929 . S
C50 C49 1.362 . S
C50 C51 1.366 . S
C51 C48 1.365 . S
C51 C50 1.366 . S
C51 H65 0.930 . S
C52 C49 1.378 . S
C52 N53 1.315 . S
C52 H55 0.930 . S
N53 Co33 2.194 . S
N53 C48 1.328 . S
N53 C52 1.315 . S
H54 C48 0.929 . S
H55 C52 0.930 . S
H56 C44 0.929 . S
H57 C46 0.929 . S
O58 Co33 2.351 . S
O58 C61 1.244 . S
O59 Co33 2.155 . S
O59 C61 1.240 . S
O60 Co33 2.096 . S
O60 C41 1.247 . S
C61 O58 1.244 . S
C61 O59 1.240 . S
H62 C36 0.931 . S
H63 C45 0.931 . S
H64 C49 0.929 . S
H65 C51 0.930 . S
Co66 N70 2.148 . S
Co66 N76 2.128 . S
Co66 N86 2.194 . S
Co66 O91 2.351 . S
Co66 O92 2.155 . S
Co66 O93 2.096 . S
C67 N70 1.301 . S
C67 N71 1.328 . S
C67 H72 0.930 . S
C68 C69 1.333 . S
C68 N70 1.317 . S
C68 H73 0.930 . S
C69 C68 1.333 . S
C69 N71 1.350 . S
C69 H95 0.931 . S
N70 Co66 2.148 . S
N70 C67 1.301 . S
N70 C68 1.317 . S
N71 C67 1.328 . S
N71 C69 1.350 . S
H72 C67 0.930 . S
H73 C68 0.930 . S
C74 O75 1.224 . S
C74 O93 1.247 . S
O75 C74 1.224 . S
N76 Co66 2.128 . S
N76 C77 1.355 . S
N76 C79 1.311 . S
C77 N76 1.355 . S
C77 C78 1.363 . S
C77 H89 0.929 . S
C78 C77 1.363 . S
C78 N80 1.375 . S
C78 H96 0.931 . S
C79 N76 1.311 . S
C79 N80 1.347 . S
C79 H90 0.929 . S
N80 C78 1.375 . S
N80 C79 1.347 . S
C81 C84 1.365 . S
C81 N86 1.328 . S
C81 H87 0.929 . S
C82 C83 1.362 . S
C82 C85 1.378 . S
C82 H97 0.929 . S
C83 C82 1.362 . S
C83 C84 1.366 . S
C84 C81 1.365 . S
C84 C83 1.366 . S
C84 H98 0.930 . S
C85 C82 1.378 . S
C85 N86 1.315 . S
C85 H88 0.930 . S
N86 Co66 2.194 . S
N86 C81 1.328 . S
N86 C85 1.315 . S
H87 C81 0.929 . S
H88 C85 0.930 . S
H89 C77 0.929 . S
H90 C79 0.929 . S
O91 Co66 2.351 . S
O91 C94 1.244 . S
O92 Co66 2.155 . S
O92 C94 1.240 . S
O93 Co66 2.096 . S
O93 C74 1.247 . S
C94 O91 1.244 . S
C94 O92 1.240 . S
H95 C69 0.931 . S
H96 C78 0.931 . S
H97 C82 0.929 . S
H98 C84 0.930 . S
Co99 N103 2.148 . S
Co99 N109 2.128 . S
Co99 N119 2.194 . S
Co99 O124 2.351 . S
Co99 O125 2.155 . S
Co99 O126 2.096 . S
C100 N103 1.301 . S
C100 N104 1.328 . S
C100 H105 0.930 . S
C101 C102 1.333 . S
C101 N103 1.317 . S
C101 H106 0.930 . S
C102 C101 1.333 . S
C102 N104 1.350 . S
C102 H128 0.931 . S
N103 Co99 2.148 . S
N103 C100 1.301 . S
N103 C101 1.317 . S
N104 C100 1.328 . S
N104 C102 1.350 . S
H105 C100 0.930 . S
H106 C101 0.930 . S
C107 O108 1.224 . S
C107 O126 1.247 . S
O108 C107 1.224 . S
N109 Co99 2.128 . S
N109 C110 1.355 . S
N109 C112 1.311 . S
C110 N109 1.355 . S
C110 C111 1.363 . S
C110 H122 0.929 . S
C111 C110 1.363 . S
C111 N113 1.375 . S
C111 H129 0.931 . S
C112 N109 1.311 . S
C112 N113 1.347 . S
C112 H123 0.929 . S
N113 C111 1.375 . S
N113 C112 1.347 . S
C114 C117 1.365 . S
C114 N119 1.328 . S
C114 H120 0.929 . S
C115 C116 1.362 . S
C115 C118 1.378 . S
C115 H130 0.929 . S
C116 C115 1.362 . S
C116 C117 1.366 . S
C117 C114 1.365 . S
C117 C116 1.366 . S
C117 H131 0.930 . S
C118 C115 1.378 . S
C118 N119 1.315 . S
C118 H121 0.930 . S
N119 Co99 2.194 . S
N119 C114 1.328 . S
N119 C118 1.315 . S
H120 C114 0.929 . S
H121 C118 0.930 . S
H122 C110 0.929 . S
H123 C112 0.929 . S
O124 Co99 2.351 . S
O124 C127 1.244 . S
O125 Co99 2.155 . S
O125 C127 1.240 . S
O126 Co99 2.096 . S
O126 C107 1.247 . S
C127 O124 1.244 . S
C127 O125 1.240 . S
H128 C102 0.931 . S
H129 C111 0.931 . S
H130 C115 0.929 . S
H131 C117 0.930 . S
Co132 N136 2.148 . S
Co132 N142 2.128 . S
Co132 N152 2.194 . S
Co132 O157 2.351 . S
Co132 O158 2.155 . S
Co132 O159 2.096 . S
C133 N136 1.301 . S
C133 N137 1.328 . S
C133 H138 0.930 . S
C134 C135 1.333 . S
C134 N136 1.317 . S
C134 H139 0.930 . S
C135 C134 1.333 . S
C135 N137 1.350 . S
C135 H161 0.931 . S
N136 Co132 2.148 . S
N136 C133 1.301 . S
N136 C134 1.317 . S
N137 C133 1.328 . S
N137 C135 1.350 . S
H138 C133 0.930 . S
H139 C134 0.930 . S
C140 O141 1.224 . S
C140 O159 1.247 . S
O141 C140 1.224 . S
N142 Co132 2.128 . S
N142 C143 1.355 . S
N142 C145 1.311 . S
C143 N142 1.355 . S
C143 C144 1.363 . S
C143 H155 0.929 . S
C144 C143 1.363 . S
C144 N146 1.375 . S
C144 H162 0.931 . S
C145 N142 1.311 . S
C145 N146 1.347 . S
C145 H156 0.929 . S
N146 C144 1.375 . S
N146 C145 1.347 . S
C147 C150 1.365 . S
C147 N152 1.328 . S
C147 H153 0.929 . S
C148 C149 1.362 . S
C148 C151 1.378 . S
C148 H163 0.929 . S
C149 C148 1.362 . S
C149 C150 1.366 . S
C150 C147 1.365 . S
C150 C149 1.366 . S
C150 H164 0.930 . S
C151 C148 1.378 . S
C151 N152 1.315 . S
C151 H154 0.930 . S
N152 Co132 2.194 . S
N152 C147 1.328 . S
N152 C151 1.315 . S
H153 C147 0.929 . S
H154 C151 0.930 . S
H155 C143 0.929 . S
H156 C145 0.929 . S
O157 Co132 2.351 . S
O157 C160 1.244 . S
O158 Co132 2.155 . S
O158 C160 1.240 . S
O159 Co132 2.096 . S
O159 C140 1.247 . S
C160 O157 1.244 . S
C160 O158 1.240 . S
H161 C135 0.931 . S
H162 C144 0.931 . S
H163 C148 0.929 . S
H164 C150 0.930 . S
Co165 N169 2.148 . S
Co165 N175 2.128 . S
Co165 N185 2.194 . S
Co165 O190 2.351 . S
Co165 O191 2.155 . S
Co165 O192 2.096 . S
C166 N169 1.301 . S
C166 N170 1.328 . S
C166 H171 0.930 . S
C167 C168 1.333 . S
C167 N169 1.317 . S
C167 H172 0.930 . S
C168 C167 1.333 . S
C168 N170 1.350 . S
C168 H194 0.931 . S
N169 Co165 2.148 . S
N169 C166 1.301 . S
N169 C167 1.317 . S
N170 C166 1.328 . S
N170 C168 1.350 . S
H171 C166 0.930 . S
H172 C167 0.930 . S
C173 O174 1.224 . S
C173 O192 1.247 . S
O174 C173 1.224 . S
N175 Co165 2.128 . S
N175 C176 1.355 . S
N175 C178 1.311 . S
C176 N175 1.355 . S
C176 C177 1.363 . S
C176 H188 0.929 . S
C177 C176 1.363 . S
C177 N179 1.375 . S
C177 H195 0.931 . S
C178 N175 1.311 . S
C178 N179 1.347 . S
C178 H189 0.929 . S
N179 C177 1.375 . S
N179 C178 1.347 . S
C180 C183 1.365 . S
C180 N185 1.328 . S
C180 H186 0.929 . S
C181 C182 1.362 . S
C181 C184 1.378 . S
C181 H196 0.929 . S
C182 C181 1.362 . S
C182 C183 1.366 . S
C183 C180 1.365 . S
C183 C182 1.366 . S
C183 H197 0.930 . S
C184 C181 1.378 . S
C184 N185 1.315 . S
C184 H187 0.930 . S
N185 Co165 2.194 . S
N185 C180 1.328 . S
N185 C184 1.315 . S
H186 C180 0.929 . S
H187 C184 0.930 . S
H188 C176 0.929 . S
H189 C178 0.929 . S
O190 Co165 2.351 . S
O190 C193 1.244 . S
O191 Co165 2.155 . S
O191 C193 1.240 . S
O192 Co165 2.096 . S
O192 C173 1.247 . S
C193 O190 1.244 . S
C193 O191 1.240 . S
H194 C168 0.931 . S
H195 C177 0.931 . S
H196 C181 0.929 . S
H197 C183 0.930 . S
Co198 N202 2.148 . S
Co198 N208 2.128 . S
Co198 N218 2.194 . S
Co198 O223 2.351 . S
Co198 O224 2.155 . S
Co198 O225 2.096 . S
C199 N202 1.301 . S
C199 N203 1.328 . S
C199 H204 0.930 . S
C200 C201 1.333 . S
C200 N202 1.317 . S
C200 H205 0.930 . S
C201 C200 1.333 . S
C201 N203 1.350 . S
C201 H227 0.931 . S
N202 Co198 2.148 . S
N202 C199 1.301 . S
N202 C200 1.317 . S
N203 C199 1.328 . S
N203 C201 1.350 . S
H204 C199 0.930 . S
H205 C200 0.930 . S
C206 O207 1.224 . S
C206 O225 1.247 . S
O207 C206 1.224 . S
N208 Co198 2.128 . S
N208 C209 1.355 . S
N208 C211 1.311 . S
C209 N208 1.355 . S
C209 C210 1.363 . S
C209 H221 0.929 . S
C210 C209 1.363 . S
C210 N212 1.375 . S
C210 H228 0.931 . S
C211 N208 1.311 . S
C211 N212 1.347 . S
C211 H222 0.929 . S
N212 C210 1.375 . S
N212 C211 1.347 . S
C213 C216 1.365 . S
C213 N218 1.328 . S
C213 H219 0.929 . S
C214 C215 1.362 . S
C214 C217 1.378 . S
C214 H229 0.929 . S
C215 C214 1.362 . S
C215 C216 1.366 . S
C216 C213 1.365 . S
C216 C215 1.366 . S
C216 H230 0.930 . S
C217 C214 1.378 . S
C217 N218 1.315 . S
C217 H220 0.930 . S
N218 Co198 2.194 . S
N218 C213 1.328 . S
N218 C217 1.315 . S
H219 C213 0.929 . S
H220 C217 0.930 . S
H221 C209 0.929 . S
H222 C211 0.929 . S
O223 Co198 2.351 . S
O223 C226 1.244 . S
O224 Co198 2.155 . S
O224 C226 1.240 . S
O225 Co198 2.096 . S
O225 C206 1.247 . S
C226 O223 1.244 . S
C226 O224 1.240 . S
H227 C201 0.931 . S
H228 C210 0.931 . S
H229 C214 0.929 . S
H230 C216 0.930 . S
Co231 N235 2.148 . S
Co231 N241 2.128 . S
Co231 N251 2.194 . S
Co231 O256 2.351 . S
Co231 O257 2.155 . S
Co231 O258 2.096 . S
C232 N235 1.301 . S
C232 N236 1.328 . S
C232 H237 0.930 . S
C233 C234 1.333 . S
C233 N235 1.317 . S
C233 H238 0.930 . S
C234 C233 1.333 . S
C234 N236 1.350 . S
C234 H260 0.931 . S
N235 Co231 2.148 . S
N235 C232 1.301 . S
N235 C233 1.317 . S
N236 C232 1.328 . S
N236 C234 1.350 . S
H237 C232 0.930 . S
H238 C233 0.930 . S
C239 O240 1.224 . S
C239 O258 1.247 . S
O240 C239 1.224 . S
N241 Co231 2.128 . S
N241 C242 1.355 . S
N241 C244 1.311 . S
C242 N241 1.355 . S
C242 C243 1.363 . S
C242 H254 0.929 . S
C243 C242 1.363 . S
C243 N245 1.375 . S
C243 H261 0.931 . S
C244 N241 1.311 . S
C244 N245 1.347 . S
C244 H255 0.929 . S
N245 C243 1.375 . S
N245 C244 1.347 . S
C246 C249 1.365 . S
C246 N251 1.328 . S
C246 H252 0.929 . S
C247 C248 1.362 . S
C247 C250 1.378 . S
C247 H262 0.929 . S
C248 C247 1.362 . S
C248 C249 1.366 . S
C249 C246 1.365 . S
C249 C248 1.366 . S
C249 H263 0.930 . S
C250 C247 1.378 . S
C250 N251 1.315 . S
C250 H253 0.930 . S
N251 Co231 2.194 . S
N251 C246 1.328 . S
N251 C250 1.315 . S
H252 C246 0.929 . S
H253 C250 0.930 . S
H254 C242 0.929 . S
H255 C244 0.929 . S
O256 Co231 2.351 . S
O256 C259 1.244 . S
O257 Co231 2.155 . S
O257 C259 1.240 . S
O258 Co231 2.096 . S
O258 C239 1.247 . S
C259 O256 1.244 . S
C259 O257 1.240 . S
H260 C234 0.931 . S
H261 C243 0.931 . S
H262 C247 0.929 . S
H263 C249 0.930 . S
Co264 N268 2.148 . S
Co264 N274 2.128 . S
Co264 N284 2.194 . S
Co264 O289 2.351 . S
Co264 O290 2.155 . S
Co264 O291 2.096 . S
C265 N268 1.301 . S
C265 N269 1.328 . S
C265 H270 0.930 . S
C266 C267 1.333 . S
C266 N268 1.317 . S
C266 H271 0.930 . S
C267 C266 1.333 . S
C267 N269 1.350 . S
C267 H293 0.931 . S
N268 Co264 2.148 . S
N268 C265 1.301 . S
N268 C266 1.317 . S
N269 C265 1.328 . S
N269 C267 1.350 . S
H270 C265 0.930 . S
H271 C266 0.930 . S
C272 O273 1.224 . S
C272 O291 1.247 . S
O273 C272 1.224 . S
N274 Co264 2.128 . S
N274 C275 1.355 . S
N274 C277 1.311 . S
C275 N274 1.355 . S
C275 C276 1.363 . S
C275 H287 0.929 . S
C276 C275 1.363 . S
C276 N278 1.375 . S
C276 H294 0.931 . S
C277 N274 1.311 . S
C277 N278 1.347 . S
C277 H288 0.929 . S
N278 C276 1.375 . S
N278 C277 1.347 . S
C279 C282 1.365 . S
C279 N284 1.328 . S
C279 H285 0.929 . S
C280 C281 1.362 . S
C280 C283 1.378 . S
C280 H295 0.929 . S
C281 C280 1.362 . S
C281 C282 1.366 . S
C282 C279 1.365 . S
C282 C281 1.366 . S
C282 H296 0.930 . S
C283 C280 1.378 . S
C283 N284 1.315 . S
C283 H286 0.930 . S
N284 Co264 2.194 . S
N284 C279 1.328 . S
N284 C283 1.315 . S
H285 C279 0.929 . S
H286 C283 0.930 . S
H287 C275 0.929 . S
H288 C277 0.929 . S
O289 Co264 2.351 . S
O289 C292 1.244 . S
O290 Co264 2.155 . S
O290 C292 1.240 . S
O291 Co264 2.096 . S
O291 C272 1.247 . S
C292 O289 1.244 . S
C292 O290 1.240 . S
H293 C267 0.931 . S
H294 C276 0.931 . S
H295 C280 0.929 . S
H296 C282 0.930 . S
Co297 N301 2.148 . S
Co297 N307 2.128 . S
Co297 N317 2.194 . S
Co297 O322 2.351 . S
Co297 O323 2.155 . S
Co297 O324 2.096 . S
C298 N301 1.301 . S
C298 N302 1.328 . S
C298 H303 0.930 . S
C299 C300 1.333 . S
C299 N301 1.317 . S
C299 H304 0.930 . S
C300 C299 1.333 . S
C300 N302 1.350 . S
C300 H326 0.931 . S
N301 Co297 2.148 . S
N301 C298 1.301 . S
N301 C299 1.317 . S
N302 C298 1.328 . S
N302 C300 1.350 . S
H303 C298 0.930 . S
H304 C299 0.930 . S
C305 O306 1.224 . S
C305 O324 1.247 . S
O306 C305 1.224 . S
N307 Co297 2.128 . S
N307 C308 1.355 . S
N307 C310 1.311 . S
C308 N307 1.355 . S
C308 C309 1.363 . S
C308 H320 0.929 . S
C309 C308 1.363 . S
C309 N311 1.375 . S
C309 H327 0.931 . S
C310 N307 1.311 . S
C310 N311 1.347 . S
C310 H321 0.929 . S
N311 C309 1.375 . S
N311 C310 1.347 . S
C312 C315 1.365 . S
C312 N317 1.328 . S
C312 H318 0.929 . S
C313 C314 1.362 . S
C313 C316 1.378 . S
C313 H328 0.929 . S
C314 C313 1.362 . S
C314 C315 1.366 . S
C315 C312 1.365 . S
C315 C314 1.366 . S
C315 H329 0.930 . S
C316 C313 1.378 . S
C316 N317 1.315 . S
C316 H319 0.930 . S
N317 Co297 2.194 . S
N317 C312 1.328 . S
N317 C316 1.315 . S
H318 C312 0.929 . S
H319 C316 0.930 . S
H320 C308 0.929 . S
H321 C310 0.929 . S
O322 Co297 2.351 . S
O322 C325 1.244 . S
O323 Co297 2.155 . S
O323 C325 1.240 . S
O324 Co297 2.096 . S
O324 C305 1.247 . S
C325 O322 1.244 . S
C325 O323 1.240 . S
H326 C300 0.931 . S
H327 C309 0.931 . S
H328 C313 0.929 . S
H329 C315 0.930 . S
Co330 N334 2.148 . S
Co330 N340 2.128 . S
Co330 N350 2.194 . S
Co330 O355 2.351 . S
Co330 O356 2.155 . S
Co330 O357 2.096 . S
C331 N334 1.301 . S
C331 N335 1.328 . S
C331 H336 0.930 . S
C332 C333 1.333 . S
C332 N334 1.317 . S
C332 H337 0.930 . S
C333 C332 1.333 . S
C333 N335 1.350 . S
C333 H359 0.931 . S
N334 Co330 2.148 . S
N334 C331 1.301 . S
N334 C332 1.317 . S
N335 C331 1.328 . S
N335 C333 1.350 . S
H336 C331 0.930 . S
H337 C332 0.930 . S
C338 O339 1.224 . S
C338 O357 1.247 . S
O339 C338 1.224 . S
N340 Co330 2.128 . S
N340 C341 1.355 . S
N340 C343 1.311 . S
C341 N340 1.355 . S
C341 C342 1.363 . S
C341 H353 0.929 . S
C342 C341 1.363 . S
C342 N344 1.375 . S
C342 H360 0.931 . S
C343 N340 1.311 . S
C343 N344 1.347 . S
C343 H354 0.929 . S
N344 C342 1.375 . S
N344 C343 1.347 . S
C345 C348 1.365 . S
C345 N350 1.328 . S
C345 H351 0.929 . S
C346 C347 1.362 . S
C346 C349 1.378 . S
C346 H361 0.929 . S
C347 C346 1.362 . S
C347 C348 1.366 . S
C348 C345 1.365 . S
C348 C347 1.366 . S
C348 H362 0.930 . S
C349 C346 1.378 . S
C349 N350 1.315 . S
C349 H352 0.930 . S
N350 Co330 2.194 . S
N350 C345 1.328 . S
N350 C349 1.315 . S
H351 C345 0.929 . S
H352 C349 0.930 . S
H353 C341 0.929 . S
H354 C343 0.929 . S
O355 Co330 2.351 . S
O355 C358 1.244 . S
O356 Co330 2.155 . S
O356 C358 1.240 . S
O357 Co330 2.096 . S
O357 C338 1.247 . S
C358 O355 1.244 . S
C358 O356 1.240 . S
H359 C333 0.931 . S
H360 C342 0.931 . S
H361 C346 0.929 . S
H362 C348 0.930 . S
Co363 N367 2.148 . S
Co363 N373 2.128 . S
Co363 N383 2.194 . S
Co363 O388 2.351 . S
Co363 O389 2.155 . S
Co363 O390 2.096 . S
C364 N367 1.301 . S
C364 N368 1.328 . S
C364 H369 0.930 . S
C365 C366 1.333 . S
C365 N367 1.317 . S
C365 H370 0.930 . S
C366 C365 1.333 . S
C366 N368 1.350 . S
C366 H392 0.931 . S
N367 Co363 2.148 . S
N367 C364 1.301 . S
N367 C365 1.317 . S
N368 C364 1.328 . S
N368 C366 1.350 . S
H369 C364 0.930 . S
H370 C365 0.930 . S
C371 O372 1.224 . S
C371 O390 1.247 . S
O372 C371 1.224 . S
N373 Co363 2.128 . S
N373 C374 1.355 . S
N373 C376 1.311 . S
C374 N373 1.355 . S
C374 C375 1.363 . S
C374 H386 0.929 . S
C375 C374 1.363 . S
C375 N377 1.375 . S
C375 H393 0.931 . S
C376 N373 1.311 . S
C376 N377 1.347 . S
C376 H387 0.929 . S
N377 C375 1.375 . S
N377 C376 1.347 . S
C378 C381 1.365 . S
C378 N383 1.328 . S
C378 H384 0.929 . S
C379 C380 1.362 . S
C379 C382 1.378 . S
C379 H394 0.929 . S
C380 C379 1.362 . S
C380 C381 1.366 . S
C381 C378 1.365 . S
C381 C380 1.366 . S
C381 H395 0.930 . S
C382 C379 1.378 . S
C382 N383 1.315 . S
C382 H385 0.930 . S
N383 Co363 2.194 . S
N383 C378 1.328 . S
N383 C382 1.315 . S
H384 C378 0.929 . S
H385 C382 0.930 . S
H386 C374 0.929 . S
H387 C376 0.929 . S
O388 Co363 2.351 . S
O388 C391 1.244 . S
O389 Co363 2.155 . S
O389 C391 1.240 . S
O390 Co363 2.096 . S
O390 C371 1.247 . S
C391 O388 1.244 . S
C391 O389 1.240 . S
H392 C366 0.931 . S
H393 C375 0.931 . S
H394 C379 0.929 . S
H395 C381 0.930 . S
Co396 N400 2.148 . S
Co396 N406 2.128 . S
Co396 N416 2.194 . S
Co396 O421 2.351 . S
Co396 O422 2.155 . S
Co396 O423 2.096 . S
C397 N400 1.301 . S
C397 N401 1.328 . S
C397 H402 0.930 . S
C398 C399 1.333 . S
C398 N400 1.317 . S
C398 H403 0.930 . S
C399 C398 1.333 . S
C399 N401 1.350 . S
C399 H425 0.931 . S
N400 Co396 2.148 . S
N400 C397 1.301 . S
N400 C398 1.317 . S
N401 C397 1.328 . S
N401 C399 1.350 . S
H402 C397 0.930 . S
H403 C398 0.930 . S
C404 O405 1.224 . S
C404 O423 1.247 . S
O405 C404 1.224 . S
N406 Co396 2.128 . S
N406 C407 1.355 . S
N406 C409 1.311 . S
C407 N406 1.355 . S
C407 C408 1.363 . S
C407 H419 0.929 . S
C408 C407 1.363 . S
C408 N410 1.375 . S
C408 H426 0.931 . S
C409 N406 1.311 . S
C409 N410 1.347 . S
C409 H420 0.929 . S
N410 C408 1.375 . S
N410 C409 1.347 . S
C411 C414 1.365 . S
C411 N416 1.328 . S
C411 H417 0.929 . S
C412 C413 1.362 . S
C412 C415 1.378 . S
C412 H427 0.929 . S
C413 C412 1.362 . S
C413 C414 1.366 . S
C414 C411 1.365 . S
C414 C413 1.366 . S
C414 H428 0.930 . S
C415 C412 1.378 . S
C415 N416 1.315 . S
C415 H418 0.930 . S
N416 Co396 2.194 . S
N416 C411 1.328 . S
N416 C415 1.315 . S
H417 C411 0.929 . S
H418 C415 0.930 . S
H419 C407 0.929 . S
H420 C409 0.929 . S
O421 Co396 2.351 . S
O421 C424 1.244 . S
O422 Co396 2.155 . S
O422 C424 1.240 . S
O423 Co396 2.096 . S
O423 C404 1.247 . S
C424 O421 1.244 . S
C424 O422 1.240 . S
H425 C399 0.931 . S
H426 C408 0.931 . S
H427 C412 0.929 . S
H428 C414 0.930 . S
Co429 N433 2.148 . S
Co429 N439 2.128 . S
Co429 N449 2.194 . S
Co429 O454 2.351 . S
Co429 O455 2.155 . S
Co429 O456 2.096 . S
C430 N433 1.301 . S
C430 N434 1.328 . S
C430 H435 0.930 . S
C431 C432 1.333 . S
C431 N433 1.317 . S
C431 H436 0.930 . S
C432 C431 1.333 . S
C432 N434 1.350 . S
C432 H458 0.931 . S
N433 Co429 2.148 . S
N433 C430 1.301 . S
N433 C431 1.317 . S
N434 C430 1.328 . S
N434 C432 1.350 . S
H435 C430 0.930 . S
H436 C431 0.930 . S
C437 O438 1.224 . S
C437 O456 1.247 . S
O438 C437 1.224 . S
N439 Co429 2.128 . S
N439 C440 1.355 . S
N439 C442 1.311 . S
C440 N439 1.355 . S
C440 C441 1.363 . S
C440 H452 0.929 . S
C441 C440 1.363 . S
C441 N443 1.375 . S
C441 H459 0.931 . S
C442 N439 1.311 . S
C442 N443 1.347 . S
C442 H453 0.929 . S
N443 C441 1.375 . S
N443 C442 1.347 . S
C444 C447 1.365 . S
C444 N449 1.328 . S
C444 H450 0.929 . S
C445 C446 1.362 . S
C445 C448 1.378 . S
C445 H460 0.929 . S
C446 C445 1.362 . S
C446 C447 1.366 . S
C447 C444 1.365 . S
C447 C446 1.366 . S
C447 H461 0.930 . S
C448 C445 1.378 . S
C448 N449 1.315 . S
C448 H451 0.930 . S
N449 Co429 2.194 . S
N449 C444 1.328 . S
N449 C448 1.315 . S
H450 C444 0.929 . S
H451 C448 0.930 . S
H452 C440 0.929 . S
H453 C442 0.929 . S
O454 Co429 2.351 . S
O454 C457 1.244 . S
O455 Co429 2.155 . S
O455 C457 1.240 . S
O456 Co429 2.096 . S
O456 C437 1.247 . S
C457 O454 1.244 . S
C457 O455 1.240 . S
H458 C432 0.931 . S
H459 C441 0.931 . S
H460 C445 0.929 . S
H461 C447 0.930 . S
Co462 N466 2.148 . S
Co462 N472 2.128 . S
Co462 N482 2.194 . S
Co462 O487 2.351 . S
Co462 O488 2.155 . S
Co462 O489 2.096 . S
C463 N466 1.301 . S
C463 N467 1.328 . S
C463 H468 0.930 . S
C464 C465 1.333 . S
C464 N466 1.317 . S
C464 H469 0.930 . S
C465 C464 1.333 . S
C465 N467 1.350 . S
C465 H491 0.931 . S
N466 Co462 2.148 . S
N466 C463 1.301 . S
N466 C464 1.317 . S
N467 C463 1.328 . S
N467 C465 1.350 . S
H468 C463 0.930 . S
H469 C464 0.930 . S
C470 O471 1.224 . S
C470 O489 1.247 . S
O471 C470 1.224 . S
N472 Co462 2.128 . S
N472 C473 1.355 . S
N472 C475 1.311 . S
C473 N472 1.355 . S
C473 C474 1.363 . S
C473 H485 0.929 . S
C474 C473 1.363 . S
C474 N476 1.375 . S
C474 H492 0.931 . S
C475 N472 1.311 . S
C475 N476 1.347 . S
C475 H486 0.929 . S
N476 C474 1.375 . S
N476 C475 1.347 . S
C477 C480 1.365 . S
C477 N482 1.328 . S
C477 H483 0.929 . S
C478 C479 1.362 . S
C478 C481 1.378 . S
C478 H493 0.929 . S
C479 C478 1.362 . S
C479 C480 1.366 . S
C480 C477 1.365 . S
C480 C479 1.366 . S
C480 H494 0.930 . S
C481 C478 1.378 . S
C481 N482 1.315 . S
C481 H484 0.930 . S
N482 Co462 2.194 . S
N482 C477 1.328 . S
N482 C481 1.315 . S
H483 C477 0.929 . S
H484 C481 0.930 . S
H485 C473 0.929 . S
H486 C475 0.929 . S
O487 Co462 2.351 . S
O487 C490 1.244 . S
O488 Co462 2.155 . S
O488 C490 1.240 . S
O489 Co462 2.096 . S
O489 C470 1.247 . S
C490 O487 1.244 . S
C490 O488 1.240 . S
H491 C465 0.931 . S
H492 C474 0.931 . S
H493 C478 0.929 . S
H494 C480 0.930 . S
Co495 N499 2.148 . S
Co495 N505 2.128 . S
Co495 N515 2.194 . S
Co495 O520 2.351 . S
Co495 O521 2.155 . S
Co495 O522 2.096 . S
C496 N499 1.301 . S
C496 N500 1.328 . S
C496 H501 0.930 . S
C497 C498 1.333 . S
C497 N499 1.317 . S
C497 H502 0.930 . S
C498 C497 1.333 . S
C498 N500 1.350 . S
C498 H524 0.931 . S
N499 Co495 2.148 . S
N499 C496 1.301 . S
N499 C497 1.317 . S
N500 C496 1.328 . S
N500 C498 1.350 . S
H501 C496 0.930 . S
H502 C497 0.930 . S
C503 O504 1.224 . S
C503 O522 1.247 . S
O504 C503 1.224 . S
N505 Co495 2.128 . S
N505 C506 1.355 . S
N505 C508 1.311 . S
C506 N505 1.355 . S
C506 C507 1.363 . S
C506 H518 0.929 . S
C507 C506 1.363 . S
C507 N509 1.375 . S
C507 H525 0.931 . S
C508 N505 1.311 . S
C508 N509 1.347 . S
C508 H519 0.929 . S
N509 C507 1.375 . S
N509 C508 1.347 . S
C510 C513 1.365 . S
C510 N515 1.328 . S
C510 H516 0.929 . S
C511 C512 1.362 . S
C511 C514 1.378 . S
C511 H526 0.929 . S
C512 C511 1.362 . S
C512 C513 1.366 . S
C513 C510 1.365 . S
C513 C512 1.366 . S
C513 H527 0.930 . S
C514 C511 1.378 . S
C514 N515 1.315 . S
C514 H517 0.930 . S
N515 Co495 2.194 . S
N515 C510 1.328 . S
N515 C514 1.315 . S
H516 C510 0.929 . S
H517 C514 0.930 . S
H518 C506 0.929 . S
H519 C508 0.929 . S
O520 Co495 2.351 . S
O520 C523 1.244 . S
O521 Co495 2.155 . S
O521 C523 1.240 . S
O522 Co495 2.096 . S
O522 C503 1.247 . S
C523 O520 1.244 . S
C523 O521 1.240 . S
H524 C498 0.931 . S
H525 C507 0.931 . S
H526 C511 0.929 . S
H527 C513 0.930 . S
H528 C546 0.951 . S
H529 C548 0.951 . S
H530 C550 0.950 . S
H531 C551 0.950 . S
H532 C553 0.950 . S
H533 C556 0.950 . S
H534 C557 0.950 . S
H535 C559 0.950 . S
H536 C560 0.950 . S
H537 C561 0.951 . S
H538 C563 0.951 . S
H539 C565 0.950 . S
H540 C566 0.950 . S
H541 C568 0.950 . S
H542 C571 0.950 . S
H543 C572 0.950 . S
H544 C574 0.950 . S
H545 C575 0.950 . S
C546 H528 0.951 . S
C546 C547 1.366 . S
C546 C548 1.388 . S
C547 C546 1.366 . S
C547 C551 1.385 . S
C548 H529 0.951 . S
C548 C546 1.388 . S
C548 C549 1.366 . S
C549 C548 1.366 . S
C549 C550 1.414 . S
C549 C552 1.499 . S
C550 H530 0.950 . S
C550 C549 1.414 . S
C550 C551 1.374 . S
C551 H531 0.950 . S
C551 C547 1.385 . S
C551 C550 1.374 . S
C552 C549 1.499 . S
C552 C553 1.373 . S
C552 C554 1.389 . S
C553 H532 0.950 . S
C553 C552 1.373 . S
C553 C569 1.377 . S
C554 C552 1.389 . S
C554 C555 1.524 . S
C554 C568 1.377 . S
C555 C554 1.524 . S
C555 C556 1.397 . S
C555 C560 1.363 . S
C556 H533 0.950 . S
C556 C555 1.397 . S
C556 C557 1.334 . S
C557 H534 0.950 . S
C557 C556 1.334 . S
C557 C558 1.287 . S
C558 C557 1.287 . S
C558 C559 1.524 . S
C558 H577 0.913 . S
C559 H535 0.950 . S
C559 C558 1.524 . S
C559 C560 1.415 . S
C560 H536 0.950 . S
C560 C555 1.363 . S
C560 C559 1.415 . S
C561 H537 0.951 . S
C561 C562 1.366 . S
C561 C563 1.388 . S
C562 C561 1.366 . S
C562 C566 1.385 . S
C563 H538 0.951 . S
C563 C561 1.388 . S
C563 C564 1.366 . S
C564 C563 1.366 . S
C564 C565 1.414 . S
C564 C567 1.499 . S
C565 H539 0.950 . S
C565 C564 1.414 . S
C565 C566 1.374 . S
C566 H540 0.950 . S
C566 C562 1.385 . S
C566 C565 1.374 . S
C567 C564 1.499 . S
C567 C568 1.373 . S
C567 C569 1.389 . S
C568 H541 0.950 . S
C568 C554 1.377 . S
C568 C567 1.373 . S
C569 C553 1.377 . S
C569 C567 1.389 . S
C569 C570 1.524 . S
C570 C569 1.524 . S
C570 C571 1.397 . S
C570 C575 1.363 . S
C571 H542 0.950 . S
C571 C570 1.397 . S
C571 C572 1.334 . S
C572 H543 0.950 . S
C572 C571 1.334 . S
C572 C573 1.287 . S
C573 C572 1.287 . S
C573 C574 1.524 . S
C573 H576 0.999 . S
C574 H544 0.950 . S
C574 C573 1.524 . S
C574 C575 1.415 . S
C575 H545 0.950 . S
C575 C570 1.363 . S
C575 C574 1.415 . S
H576 C573 0.999 . S
H577 C558 0.913 . S
H578 C596 0.951 1_455 S
H579 C598 0.951 . S
H580 C600 0.950 . S
H581 C601 0.950 1_455 S
H582 C603 0.950 . S
H583 C606 0.950 . S
H584 C607 0.950 . S
H585 C609 0.950 . S
H586 C610 0.950 . S
H587 C611 0.951 . S
H588 C613 0.951 . S
H589 C615 0.950 . S
H590 C616 0.950 . S
H591 C618 0.950 . S
H592 C621 0.950 . S
H593 C622 0.950 . S
H594 C624 0.950 . S
H595 C625 0.950 . S
C596 H578 0.951 1_655 S
C596 C597 1.366 1_655 S
C596 C598 1.388 . S
C597 C596 1.366 1_455 S
C597 C601 1.385 1_455 S
C598 H579 0.951 . S
C598 C596 1.388 . S
C598 C599 1.366 . S
C599 C598 1.366 . S
C599 C600 1.414 . S
C599 C602 1.499 . S
C600 H580 0.950 . S
C600 C599 1.414 . S
C600 C601 1.374 . S
C601 H581 0.950 1_655 S
C601 C597 1.385 1_655 S
C601 C600 1.374 . S
C602 C599 1.499 . S
C602 C603 1.373 . S
C602 C604 1.389 . S
C603 H582 0.950 . S
C603 C602 1.373 . S
C603 C619 1.377 . S
C604 C602 1.389 . S
C604 C605 1.524 . S
C604 C618 1.377 . S
C605 C604 1.524 . S
C605 C606 1.397 . S
C605 C610 1.363 . S
C606 H583 0.950 . S
C606 C605 1.397 . S
C606 C607 1.334 . S
C607 H584 0.950 . S
C607 C606 1.334 . S
C607 C608 1.287 . S
C608 C607 1.287 . S
C608 C609 1.524 . S
C608 H627 0.913 . S
C609 H585 0.950 . S
C609 C608 1.524 . S
C609 C610 1.415 . S
C610 H586 0.950 . S
C610 C605 1.363 . S
C610 C609 1.415 . S
C611 H587 0.951 . S
C611 C612 1.366 . S
C611 C613 1.388 . S
C612 C611 1.366 . S
C612 C616 1.385 . S
C613 H588 0.951 . S
C613 C611 1.388 . S
C613 C614 1.366 . S
C614 C613 1.366 . S
C614 C615 1.414 . S
C614 C617 1.499 . S
C615 H589 0.950 . S
C615 C614 1.414 . S
C615 C616 1.374 . S
C616 H590 0.950 . S
C616 C612 1.385 . S
C616 C615 1.374 . S
C617 C614 1.499 . S
C617 C618 1.373 . S
C617 C619 1.389 . S
C618 H591 0.950 . S
C618 C604 1.377 . S
C618 C617 1.373 . S
C619 C603 1.377 . S
C619 C617 1.389 . S
C619 C620 1.524 . S
C620 C619 1.524 . S
C620 C621 1.397 . S
C620 C625 1.363 . S
C621 H592 0.950 . S
C621 C620 1.397 . S
C621 C622 1.334 . S
C622 H593 0.950 . S
C622 C621 1.334 . S
C622 C623 1.287 . S
C623 C622 1.287 . S
C623 C624 1.524 . S
C623 H626 0.999 . S
C624 H594 0.950 . S
C624 C623 1.524 . S
C624 C625 1.415 . S
C625 H595 0.950 . S
C625 C620 1.363 . S
C625 C624 1.415 . S
H626 C623 0.999 . S
H627 C608 0.913 . S
H628 C646 0.951 . S
H629 C648 0.951 . S
H630 C650 0.950 . S
H631 C651 0.950 . S
H632 C653 0.950 . S
H633 C656 0.950 . S
H634 C657 0.950 . S
H635 C659 0.950 . S
H636 C660 0.950 . S
H637 C661 0.951 . S
H638 C663 0.951 . S
H639 C665 0.950 . S
H640 C666 0.950 . S
H641 C668 0.950 . S
H642 C671 0.950 . S
H643 C672 0.950 . S
H644 C674 0.950 . S
H645 C675 0.950 . S
C646 H628 0.951 . S
C646 C647 1.366 . S
C646 C648 1.388 . S
C647 C646 1.366 . S
C647 C651 1.385 . S
C648 H629 0.951 . S
C648 C646 1.388 . S
C648 C649 1.366 . S
C649 C648 1.366 . S
C649 C650 1.414 . S
C649 C652 1.499 . S
C650 H630 0.950 . S
C650 C649 1.414 . S
C650 C651 1.374 . S
C651 H631 0.950 . S
C651 C647 1.385 . S
C651 C650 1.374 . S
C652 C649 1.499 . S
C652 C653 1.373 . S
C652 C654 1.389 . S
C653 H632 0.950 . S
C653 C652 1.373 . S
C653 C669 1.377 . S
C654 C652 1.389 . S
C654 C655 1.524 . S
C654 C668 1.377 . S
C655 C654 1.524 . S
C655 C656 1.397 . S
C655 C660 1.363 . S
C656 H633 0.950 . S
C656 C655 1.397 . S
C656 C657 1.334 . S
C657 H634 0.950 . S
C657 C656 1.334 . S
C657 C658 1.287 . S
C658 C657 1.287 . S
C658 C659 1.524 . S
C658 H677 0.913 . S
C659 H635 0.950 . S
C659 C658 1.524 . S
C659 C660 1.415 . S
C660 H636 0.950 . S
C660 C655 1.363 . S
C660 C659 1.415 . S
C661 H637 0.951 . S
C661 C662 1.366 . S
C661 C663 1.388 . S
C662 C661 1.366 . S
C662 C666 1.385 . S
C663 H638 0.951 . S
C663 C661 1.388 . S
C663 C664 1.366 . S
C664 C663 1.366 . S
C664 C665 1.414 . S
C664 C667 1.499 . S
C665 H639 0.950 . S
C665 C664 1.414 . S
C665 C666 1.374 . S
C666 H640 0.950 . S
C666 C662 1.385 . S
C666 C665 1.374 . S
C667 C664 1.499 . S
C667 C668 1.373 . S
C667 C669 1.389 . S
C668 H641 0.950 . S
C668 C654 1.377 . S
C668 C667 1.373 . S
C669 C653 1.377 . S
C669 C667 1.389 . S
C669 C670 1.524 . S
C670 C669 1.524 . S
C670 C671 1.397 . S
C670 C675 1.363 . S
C671 H642 0.950 . S
C671 C670 1.397 . S
C671 C672 1.334 . S
C672 H643 0.950 . S
C672 C671 1.334 . S
C672 C673 1.287 . S
C673 C672 1.287 . S
C673 C674 1.524 . S
C673 H676 0.999 . S
C674 H644 0.950 . S
C674 C673 1.524 . S
C674 C675 1.415 . S
C675 H645 0.950 . S
C675 C670 1.363 . S
C675 C674 1.415 . S
H676 C673 0.999 . S
H677 C658 0.913 . S
H678 C696 0.951 1_455 S
H679 C698 0.951 . S
H680 C700 0.950 . S
H681 C701 0.950 1_455 S
H682 C703 0.950 . S
H683 C706 0.950 . S
H684 C707 0.950 . S
H685 C709 0.950 . S
H686 C710 0.950 . S
H687 C711 0.951 . S
H688 C713 0.951 . S
H689 C715 0.950 . S
H690 C716 0.950 . S
H691 C718 0.950 . S
H692 C721 0.950 . S
H693 C722 0.950 . S
H694 C724 0.950 . S
H695 C725 0.950 . S
C696 H678 0.951 1_655 S
C696 C697 1.366 1_655 S
C696 C698 1.388 . S
C697 C696 1.366 1_455 S
C697 C701 1.385 1_455 S
C698 H679 0.951 . S
C698 C696 1.388 . S
C698 C699 1.366 . S
C699 C698 1.366 . S
C699 C700 1.414 . S
C699 C702 1.499 . S
C700 H680 0.950 . S
C700 C699 1.414 . S
C700 C701 1.374 . S
C701 H681 0.950 1_655 S
C701 C697 1.385 1_655 S
C701 C700 1.374 . S
C702 C699 1.499 . S
C702 C703 1.373 . S
C702 C704 1.389 . S
C703 H682 0.950 . S
C703 C702 1.373 . S
C703 C719 1.377 . S
C704 C702 1.389 . S
C704 C705 1.524 . S
C704 C718 1.377 . S
C705 C704 1.524 . S
C705 C706 1.397 . S
C705 C710 1.363 . S
C706 H683 0.950 . S
C706 C705 1.397 . S
C706 C707 1.334 . S
C707 H684 0.950 . S
C707 C706 1.334 . S
C707 C708 1.287 . S
C708 C707 1.287 . S
C708 C709 1.524 . S
C708 H727 0.913 . S
C709 H685 0.950 . S
C709 C708 1.524 . S
C709 C710 1.415 . S
C710 H686 0.950 . S
C710 C705 1.363 . S
C710 C709 1.415 . S
C711 H687 0.951 . S
C711 C712 1.366 . S
C711 C713 1.388 . S
C712 C711 1.366 . S
C712 C716 1.385 . S
C713 H688 0.951 . S
C713 C711 1.388 . S
C713 C714 1.366 . S
C714 C713 1.366 . S
C714 C715 1.414 . S
C714 C717 1.499 . S
C715 H689 0.950 . S
C715 C714 1.414 . S
C715 C716 1.374 . S
C716 H690 0.950 . S
C716 C712 1.385 . S
C716 C715 1.374 . S
C717 C714 1.499 . S
C717 C718 1.373 . S
C717 C719 1.389 . S
C718 H691 0.950 . S
C718 C704 1.377 . S
C718 C717 1.373 . S
C719 C703 1.377 . S
C719 C717 1.389 . S
C719 C720 1.524 . S
C720 C719 1.524 . S
C720 C721 1.397 . S
C720 C725 1.363 . S
C721 H692 0.950 . S
C721 C720 1.397 . S
C721 C722 1.334 . S
C722 H693 0.950 . S
C722 C721 1.334 . S
C722 C723 1.287 . S
C723 C722 1.287 . S
C723 C724 1.524 . S
C723 H726 0.999 . S
C724 H694 0.950 . S
C724 C723 1.524 . S
C724 C725 1.415 . S
C725 H695 0.950 . S
C725 C720 1.363 . S
C725 C724 1.415 . S
H726 C723 0.999 . S
H727 C708 0.913 . S
H728 C746 0.951 . S
H729 C748 0.951 . S
H730 C750 0.950 . S
H731 C751 0.950 . S
H732 C753 0.950 . S
H733 C756 0.950 . S
H734 C757 0.950 . S
H735 C759 0.950 . S
H736 C760 0.950 . S
H737 C761 0.951 . S
H738 C763 0.951 . S
H739 C765 0.950 . S
H740 C766 0.950 . S
H741 C768 0.950 . S
H742 C771 0.950 . S
H743 C772 0.950 . S
H744 C774 0.950 . S
H745 C775 0.950 . S
C746 H728 0.951 . S
C746 C747 1.366 . S
C746 C748 1.388 . S
C747 C746 1.366 . S
C747 C751 1.385 . S
C748 H729 0.951 . S
C748 C746 1.388 . S
C748 C749 1.366 . S
C749 C748 1.366 . S
C749 C750 1.414 . S
C749 C752 1.499 . S
C750 H730 0.950 . S
C750 C749 1.414 . S
C750 C751 1.374 . S
C751 H731 0.950 . S
C751 C747 1.385 . S
C751 C750 1.374 . S
C752 C749 1.499 . S
C752 C753 1.373 . S
C752 C754 1.389 . S
C753 H732 0.950 . S
C753 C752 1.373 . S
C753 C769 1.377 . S
C754 C752 1.389 . S
C754 C755 1.524 . S
C754 C768 1.377 . S
C755 C754 1.524 . S
C755 C756 1.397 . S
C755 C760 1.363 . S
C756 H733 0.950 . S
C756 C755 1.397 . S
C756 C757 1.334 . S
C757 H734 0.950 . S
C757 C756 1.334 . S
C757 C758 1.287 . S
C758 C757 1.287 . S
C758 C759 1.524 . S
C758 H777 0.913 . S
C759 H735 0.950 . S
C759 C758 1.524 . S
C759 C760 1.415 . S
C760 H736 0.950 . S
C760 C755 1.363 . S
C760 C759 1.415 . S
C761 H737 0.951 . S
C761 C762 1.366 . S
C761 C763 1.388 . S
C762 C761 1.366 . S
C762 C766 1.385 . S
C763 H738 0.951 . S
C763 C761 1.388 . S
C763 C764 1.366 . S
C764 C763 1.366 . S
C764 C765 1.414 . S
C764 C767 1.499 . S
C765 H739 0.950 . S
C765 C764 1.414 . S
C765 C766 1.374 . S
C766 H740 0.950 . S
C766 C762 1.385 . S
C766 C765 1.374 . S
C767 C764 1.499 . S
C767 C768 1.373 . S
C767 C769 1.389 . S
C768 H741 0.950 . S
C768 C754 1.377 . S
C768 C767 1.373 . S
C769 C753 1.377 . S
C769 C767 1.389 . S
C769 C770 1.524 . S
C770 C769 1.524 . S
C770 C771 1.397 . S
C770 C775 1.363 . S
C771 H742 0.950 . S
C771 C770 1.397 . S
C771 C772 1.334 . S
C772 H743 0.950 . S
C772 C771 1.334 . S
C772 C773 1.287 . S
C773 C772 1.287 . S
C773 C774 1.524 . S
C773 H776 0.999 . S
C774 H744 0.950 . S
C774 C773 1.524 . S
C774 C775 1.415 . S
C775 H745 0.950 . S
C775 C770 1.363 . S
C775 C774 1.415 . S
H776 C773 0.999 . S
H777 C758 0.913 . S
H778 C796 0.951 1_655 S
H779 C798 0.951 . S
H780 C800 0.950 . S
H781 C801 0.950 1_655 S
H782 C803 0.950 . S
H783 C806 0.950 . S
H784 C807 0.950 . S
H785 C809 0.950 . S
H786 C810 0.950 . S
H787 C811 0.951 . S
H788 C813 0.951 . S
H789 C815 0.950 . S
H790 C816 0.950 . S
H791 C818 0.950 . S
H792 C821 0.950 . S
H793 C822 0.950 . S
H794 C824 0.950 . S
H795 C825 0.950 . S
C796 H778 0.951 1_455 S
C796 C797 1.366 1_455 S
C796 C798 1.388 . S
C797 C796 1.366 1_655 S
C797 C801 1.385 1_655 S
C798 H779 0.951 . S
C798 C796 1.388 . S
C798 C799 1.366 . S
C799 C798 1.366 . S
C799 C800 1.414 . S
C799 C802 1.499 . S
C800 H780 0.950 . S
C800 C799 1.414 . S
C800 C801 1.374 . S
C801 H781 0.950 1_455 S
C801 C797 1.385 1_455 S
C801 C800 1.374 . S
C802 C799 1.499 . S
C802 C803 1.373 . S
C802 C804 1.389 . S
C803 H782 0.950 . S
C803 C802 1.373 . S
C803 C819 1.377 . S
C804 C802 1.389 . S
C804 C805 1.524 . S
C804 C818 1.377 . S
C805 C804 1.524 . S
C805 C806 1.397 . S
C805 C810 1.363 . S
C806 H783 0.950 . S
C806 C805 1.397 . S
C806 C807 1.334 . S
C807 H784 0.950 . S
C807 C806 1.334 . S
C807 C808 1.287 . S
C808 C807 1.287 . S
C808 C809 1.524 . S
C808 H827 0.913 . S
C809 H785 0.950 . S
C809 C808 1.524 . S
C809 C810 1.415 . S
C810 H786 0.950 . S
C810 C805 1.363 . S
C810 C809 1.415 . S
C811 H787 0.951 . S
C811 C812 1.366 . S
C811 C813 1.388 . S
C812 C811 1.366 . S
C812 C816 1.385 . S
C813 H788 0.951 . S
C813 C811 1.388 . S
C813 C814 1.366 . S
C814 C813 1.366 . S
C814 C815 1.414 . S
C814 C817 1.499 . S
C815 H789 0.950 . S
C815 C814 1.414 . S
C815 C816 1.374 . S
C816 H790 0.950 . S
C816 C812 1.385 . S
C816 C815 1.374 . S
C817 C814 1.499 . S
C817 C818 1.373 . S
C817 C819 1.389 . S
C818 H791 0.950 . S
C818 C804 1.377 . S
C818 C817 1.373 . S
C819 C803 1.377 . S
C819 C817 1.389 . S
C819 C820 1.524 . S
C820 C819 1.524 . S
C820 C821 1.397 . S
C820 C825 1.363 . S
C821 H792 0.950 . S
C821 C820 1.397 . S
C821 C822 1.334 . S
C822 H793 0.950 . S
C822 C821 1.334 . S
C822 C823 1.287 . S
C823 C822 1.287 . S
C823 C824 1.524 . S
C823 H826 0.999 . S
C824 H794 0.950 . S
C824 C823 1.524 . S
C824 C825 1.415 . S
C825 H795 0.950 . S
C825 C820 1.363 . S
C825 C824 1.415 . S
H826 C823 0.999 . S
H827 C808 0.913 . S
H828 C846 0.951 . S
H829 C848 0.951 . S
H830 C850 0.950 . S
H831 C851 0.950 . S
H832 C853 0.950 . S
H833 C856 0.950 . S
H834 C857 0.950 . S
H835 C859 0.950 . S
H836 C860 0.950 . S
H837 C861 0.951 . S
H838 C863 0.951 . S
H839 C865 0.950 . S
H840 C866 0.950 . S
H841 C868 0.950 . S
H842 C871 0.950 . S
H843 C872 0.950 . S
H844 C874 0.950 . S
H845 C875 0.950 . S
C846 H828 0.951 . S
C846 C847 1.366 . S
C846 C848 1.388 . S
C847 C846 1.366 . S
C847 C851 1.385 . S
C848 H829 0.951 . S
C848 C846 1.388 . S
C848 C849 1.366 . S
C849 C848 1.366 . S
C849 C850 1.414 . S
C849 C852 1.499 . S
C850 H830 0.950 . S
C850 C849 1.414 . S
C850 C851 1.374 . S
C851 H831 0.950 . S
C851 C847 1.385 . S
C851 C850 1.374 . S
C852 C849 1.499 . S
C852 C853 1.373 . S
C852 C854 1.389 . S
C853 H832 0.950 . S
C853 C852 1.373 . S
C853 C869 1.377 . S
C854 C852 1.389 . S
C854 C855 1.524 . S
C854 C868 1.377 . S
C855 C854 1.524 . S
C855 C856 1.397 . S
C855 C860 1.363 . S
C856 H833 0.950 . S
C856 C855 1.397 . S
C856 C857 1.334 . S
C857 H834 0.950 . S
C857 C856 1.334 . S
C857 C858 1.287 . S
C858 C857 1.287 . S
C858 C859 1.524 . S
C858 H877 0.913 . S
C859 H835 0.950 . S
C859 C858 1.524 . S
C859 C860 1.415 . S
C860 H836 0.950 . S
C860 C855 1.363 . S
C860 C859 1.415 . S
C861 H837 0.951 . S
C861 C862 1.366 . S
C861 C863 1.388 . S
C862 C861 1.366 . S
C862 C866 1.385 . S
C863 H838 0.951 . S
C863 C861 1.388 . S
C863 C864 1.366 . S
C864 C863 1.366 . S
C864 C865 1.414 . S
C864 C867 1.499 . S
C865 H839 0.950 . S
C865 C864 1.414 . S
C865 C866 1.374 . S
C866 H840 0.950 . S
C866 C862 1.385 . S
C866 C865 1.374 . S
C867 C864 1.499 . S
C867 C868 1.373 . S
C867 C869 1.389 . S
C868 H841 0.950 . S
C868 C854 1.377 . S
C868 C867 1.373 . S
C869 C853 1.377 . S
C869 C867 1.389 . S
C869 C870 1.524 . S
C870 C869 1.524 . S
C870 C871 1.397 . S
C870 C875 1.363 . S
C871 H842 0.950 . S
C871 C870 1.397 . S
C871 C872 1.334 . S
C872 H843 0.950 . S
C872 C871 1.334 . S
C872 C873 1.287 . S
C873 C872 1.287 . S
C873 C874 1.524 . S
C873 H876 0.999 . S
C874 H844 0.950 . S
C874 C873 1.524 . S
C874 C875 1.415 . S
C875 H845 0.950 . S
C875 C870 1.363 . S
C875 C874 1.415 . S
H876 C873 0.999 . S
H877 C858 0.913 . S
H878 C896 0.951 1_655 S
H879 C898 0.951 . S
H880 C900 0.950 . S
H881 C901 0.950 1_655 S
H882 C903 0.950 . S
H883 C906 0.950 . S
H884 C907 0.950 . S
H885 C909 0.950 . S
H886 C910 0.950 . S
H887 C911 0.951 . S
H888 C913 0.951 . S
H889 C915 0.950 . S
H890 C916 0.950 . S
H891 C918 0.950 . S
H892 C921 0.950 . S
H893 C922 0.950 . S
H894 C924 0.950 . S
H895 C925 0.950 . S
C896 H878 0.951 1_455 S
C896 C897 1.366 1_455 S
C896 C898 1.388 . S
C897 C896 1.366 1_655 S
C897 C901 1.385 1_655 S
C898 H879 0.951 . S
C898 C896 1.388 . S
C898 C899 1.366 . S
C899 C898 1.366 . S
C899 C900 1.414 . S
C899 C902 1.499 . S
C900 H880 0.950 . S
C900 C899 1.414 . S
C900 C901 1.374 . S
C901 H881 0.950 1_455 S
C901 C897 1.385 1_455 S
C901 C900 1.374 . S
C902 C899 1.499 . S
C902 C903 1.373 . S
C902 C904 1.389 . S
C903 H882 0.950 . S
C903 C902 1.373 . S
C903 C919 1.377 . S
C904 C902 1.389 . S
C904 C905 1.524 . S
C904 C918 1.377 . S
C905 C904 1.524 . S
C905 C906 1.397 . S
C905 C910 1.363 . S
C906 H883 0.950 . S
C906 C905 1.397 . S
C906 C907 1.334 . S
C907 H884 0.950 . S
C907 C906 1.334 . S
C907 C908 1.287 . S
C908 C907 1.287 . S
C908 C909 1.524 . S
C908 H927 0.913 1_565 S
C909 H885 0.950 . S
C909 C908 1.524 . S
C909 C910 1.415 . S
C910 H886 0.950 . S
C910 C905 1.363 . S
C910 C909 1.415 . S
C911 H887 0.951 . S
C911 C912 1.366 . S
C911 C913 1.388 . S
C912 C911 1.366 . S
C912 C916 1.385 . S
C913 H888 0.951 . S
C913 C911 1.388 . S
C913 C914 1.366 . S
C914 C913 1.366 . S
C914 C915 1.414 . S
C914 C917 1.499 . S
C915 H889 0.950 . S
C915 C914 1.414 . S
C915 C916 1.374 . S
C916 H890 0.950 . S
C916 C912 1.385 . S
C916 C915 1.374 . S
C917 C914 1.499 . S
C917 C918 1.373 . S
C917 C919 1.389 . S
C918 H891 0.950 . S
C918 C904 1.377 . S
C918 C917 1.373 . S
C919 C903 1.377 . S
C919 C917 1.389 . S
C919 C920 1.524 . S
C920 C919 1.524 . S
C920 C921 1.397 . S
C920 C925 1.363 . S
C921 H892 0.950 . S
C921 C920 1.397 . S
C921 C922 1.334 . S
C922 H893 0.950 . S
C922 C921 1.334 . S
C922 C923 1.287 . S
C923 C922 1.287 . S
C923 C924 1.524 . S
C923 H926 0.999 . S
C924 H894 0.950 . S
C924 C923 1.524 . S
C924 C925 1.415 . S
C925 H895 0.950 . S
C925 C920 1.363 . S
C925 C924 1.415 . S
H926 C923 0.999 . S
H927 C908 0.913 1_545 S
H928 C946 0.951 . S
H929 C948 0.951 . S
H930 C950 0.950 . S
H931 C951 0.950 . S
H932 C953 0.950 . S
H933 C956 0.950 . S
H934 C957 0.950 . S
H935 C959 0.950 . S
H936 C960 0.950 . S
H937 C961 0.951 . S
H938 C963 0.951 . S
H939 C965 0.950 . S
H940 C966 0.950 . S
H941 C968 0.950 . S
H942 C971 0.950 . S
H943 C972 0.950 . S
H944 C974 0.950 . S
H945 C975 0.950 . S
C946 H928 0.951 . S
C946 C947 1.366 . S
C946 C948 1.388 . S
C947 C946 1.366 . S
C947 C951 1.385 . S
C948 H929 0.951 . S
C948 C946 1.388 . S
C948 C949 1.366 . S
C949 C948 1.366 . S
C949 C950 1.414 . S
C949 C952 1.499 . S
C950 H930 0.950 . S
C950 C949 1.414 . S
C950 C951 1.374 . S
C951 H931 0.950 . S
C951 C947 1.385 . S
C951 C950 1.374 . S
C952 C949 1.499 . S
C952 C953 1.373 . S
C952 C954 1.389 . S
C953 H932 0.950 . S
C953 C952 1.373 . S
C953 C969 1.377 . S
C954 C952 1.389 . S
C954 C955 1.524 . S
C954 C968 1.377 . S
C955 C954 1.524 . S
C955 C956 1.397 . S
C955 C960 1.363 . S
C956 H933 0.950 . S
C956 C955 1.397 . S
C956 C957 1.334 . S
C957 H934 0.950 . S
C957 C956 1.334 . S
C957 C958 1.287 . S
C958 C957 1.287 . S
C958 C959 1.524 . S
C958 H977 0.913 . S
C959 H935 0.950 . S
C959 C958 1.524 . S
C959 C960 1.415 . S
C960 H936 0.950 . S
C960 C955 1.363 . S
C960 C959 1.415 . S
C961 H937 0.951 . S
C961 C962 1.366 . S
C961 C963 1.388 . S
C962 C961 1.366 . S
C962 C966 1.385 . S
C963 H938 0.951 . S
C963 C961 1.388 . S
C963 C964 1.366 . S
C964 C963 1.366 . S
C964 C965 1.414 . S
C964 C967 1.499 . S
C965 H939 0.950 . S
C965 C964 1.414 . S
C965 C966 1.374 . S
C966 H940 0.950 . S
C966 C962 1.385 . S
C966 C965 1.374 . S
C967 C964 1.499 . S
C967 C968 1.373 . S
C967 C969 1.389 . S
C968 H941 0.950 . S
C968 C954 1.377 . S
C968 C967 1.373 . S
C969 C953 1.377 . S
C969 C967 1.389 . S
C969 C970 1.524 . S
C970 C969 1.524 . S
C970 C971 1.397 . S
C970 C975 1.363 . S
C971 H942 0.950 . S
C971 C970 1.397 . S
C971 C972 1.334 . S
C972 H943 0.950 . S
C972 C971 1.334 . S
C972 C973 1.287 . S
C973 C972 1.287 . S
C973 C974 1.524 . S
C973 H976 0.999 . S
C974 H944 0.950 . S
C974 C973 1.524 . S
C974 C975 1.415 . S
C975 H945 0.950 . S
C975 C970 1.363 . S
C975 C974 1.415 . S
H976 C973 0.999 . S
H977 C958 0.913 . S
H978 C996 0.951 . S
H979 C998 0.951 . S
H980 C1000 0.950 . S
H981 C1001 0.950 . S
H982 C1003 0.950 . S
H983 C1006 0.950 . S
H984 C1007 0.950 . S
H985 C1009 0.950 . S
H986 C1010 0.950 . S
H987 C1011 0.951 1_455 S
H988 C1013 0.951 . S
H989 C1015 0.950 . S
H990 C1016 0.950 1_455 S
H991 C1018 0.950 . S
H992 C1021 0.950 . S
H993 C1022 0.950 . S
H994 C1024 0.950 . S
H995 C1025 0.950 . S
C996 H978 0.951 . S
C996 C997 1.366 . S
C996 C998 1.388 . S
C997 C996 1.366 . S
C997 C1001 1.385 . S
C998 H979 0.951 . S
C998 C996 1.388 . S
C998 C999 1.366 . S
C999 C998 1.366 . S
C999 C1000 1.414 . S
C999 C1002 1.499 . S
C1000 H980 0.950 . S
C1000 C999 1.414 . S
C1000 C1001 1.374 . S
C1001 H981 0.950 . S
C1001 C997 1.385 . S
C1001 C1000 1.374 . S
C1002 C999 1.499 . S
C1002 C1003 1.373 . S
C1002 C1004 1.389 . S
C1003 H982 0.950 . S
C1003 C1002 1.373 . S
C1003 C1019 1.377 . S
C1004 C1002 1.389 . S
C1004 C1005 1.524 . S
C1004 C1018 1.377 . S
C1005 C1004 1.524 . S
C1005 C1006 1.397 . S
C1005 C1010 1.363 . S
C1006 H983 0.950 . S
C1006 C1005 1.397 . S
C1006 C1007 1.334 . S
C1007 H984 0.950 . S
C1007 C1006 1.334 . S
C1007 C1008 1.287 . S
C1008 C1007 1.287 . S
C1008 C1009 1.524 . S
C1008 H1027 0.913 . S
C1009 H985 0.950 . S
C1009 C1008 1.524 . S
C1009 C1010 1.415 . S
C1010 H986 0.950 . S
C1010 C1005 1.363 . S
C1010 C1009 1.415 . S
C1011 H987 0.951 1_655 S
C1011 C1012 1.366 1_655 S
C1011 C1013 1.388 . S
C1012 C1011 1.366 1_455 S
C1012 C1016 1.385 1_455 S
C1013 H988 0.951 . S
C1013 C1011 1.388 . S
C1013 C1014 1.366 . S
C1014 C1013 1.366 . S
C1014 C1015 1.414 . S
C1014 C1017 1.499 . S
C1015 H989 0.950 . S
C1015 C1014 1.414 . S
C1015 C1016 1.374 . S
C1016 H990 0.950 1_655 S
C1016 C1012 1.385 1_655 S
C1016 C1015 1.374 . S
C1017 C1014 1.499 . S
C1017 C1018 1.373 . S
C1017 C1019 1.389 . S
C1018 H991 0.950 . S
C1018 C1004 1.377 . S
C1018 C1017 1.373 . S
C1019 C1003 1.377 . S
C1019 C1017 1.389 . S
C1019 C1020 1.524 . S
C1020 C1019 1.524 . S
C1020 C1021 1.397 . S
C1020 C1025 1.363 . S
C1021 H992 0.950 . S
C1021 C1020 1.397 . S
C1021 C1022 1.334 . S
C1022 H993 0.950 . S
C1022 C1021 1.334 . S
C1022 C1023 1.287 . S
C1023 C1022 1.287 . S
C1023 C1024 1.524 . S
C1023 H1026 0.999 . S
C1024 H994 0.950 . S
C1024 C1023 1.524 . S
C1024 C1025 1.415 . S
C1025 H995 0.950 . S
C1025 C1020 1.363 . S
C1025 C1024 1.415 . S
H1026 C1023 0.999 . S
H1027 C1008 0.913 . S
H1028 C1046 0.951 . S
H1029 C1048 0.951 . S
H1030 C1050 0.950 . S
H1031 C1051 0.950 . S
H1032 C1053 0.950 . S
H1033 C1056 0.950 . S
H1034 C1057 0.950 . S
H1035 C1059 0.950 . S
H1036 C1060 0.950 . S
H1037 C1061 0.951 . S
H1038 C1063 0.951 . S
H1039 C1065 0.950 . S
H1040 C1066 0.950 . S
H1041 C1068 0.950 . S
H1042 C1071 0.950 . S
H1043 C1072 0.950 . S
H1044 C1074 0.950 . S
H1045 C1075 0.950 . S
C1046 H1028 0.951 . S
C1046 C1047 1.366 . S
C1046 C1048 1.388 . S
C1047 C1046 1.366 . S
C1047 C1051 1.385 . S
C1048 H1029 0.951 . S
C1048 C1046 1.388 . S
C1048 C1049 1.366 . S
C1049 C1048 1.366 . S
C1049 C1050 1.414 . S
C1049 C1052 1.499 . S
C1050 H1030 0.950 . S
C1050 C1049 1.414 . S
C1050 C1051 1.374 . S
C1051 H1031 0.950 . S
C1051 C1047 1.385 . S
C1051 C1050 1.374 . S
C1052 C1049 1.499 . S
C1052 C1053 1.373 . S
C1052 C1054 1.389 . S
C1053 H1032 0.950 . S
C1053 C1052 1.373 . S
C1053 C1069 1.377 . S
C1054 C1052 1.389 . S
C1054 C1055 1.524 . S
C1054 C1068 1.377 . S
C1055 C1054 1.524 . S
C1055 C1056 1.397 . S
C1055 C1060 1.363 . S
C1056 H1033 0.950 . S
C1056 C1055 1.397 . S
C1056 C1057 1.334 . S
C1057 H1034 0.950 . S
C1057 C1056 1.334 . S
C1057 C1058 1.287 . S
C1058 C1057 1.287 . S
C1058 C1059 1.524 . S
C1058 H1077 0.913 . S
C1059 H1035 0.950 . S
C1059 C1058 1.524 . S
C1059 C1060 1.415 . S
C1060 H1036 0.950 . S
C1060 C1055 1.363 . S
C1060 C1059 1.415 . S
C1061 H1037 0.951 . S
C1061 C1062 1.366 . S
C1061 C1063 1.388 . S
C1062 C1061 1.366 . S
C1062 C1066 1.385 . S
C1063 H1038 0.951 . S
C1063 C1061 1.388 . S
C1063 C1064 1.366 . S
C1064 C1063 1.366 . S
C1064 C1065 1.414 . S
C1064 C1067 1.499 . S
C1065 H1039 0.950 . S
C1065 C1064 1.414 . S
C1065 C1066 1.374 . S
C1066 H1040 0.950 . S
C1066 C1062 1.385 . S
C1066 C1065 1.374 . S
C1067 C1064 1.499 . S
C1067 C1068 1.373 . S
C1067 C1069 1.389 . S
C1068 H1041 0.950 . S
C1068 C1054 1.377 . S
C1068 C1067 1.373 . S
C1069 C1053 1.377 . S
C1069 C1067 1.389 . S
C1069 C1070 1.524 . S
C1070 C1069 1.524 . S
C1070 C1071 1.397 . S
C1070 C1075 1.363 . S
C1071 H1042 0.950 . S
C1071 C1070 1.397 . S
C1071 C1072 1.334 . S
C1072 H1043 0.950 . S
C1072 C1071 1.334 . S
C1072 C1073 1.287 . S
C1073 C1072 1.287 . S
C1073 C1074 1.524 . S
C1073 H1076 0.999 . S
C1074 H1044 0.950 . S
C1074 C1073 1.524 . S
C1074 C1075 1.415 . S
C1075 H1045 0.950 . S
C1075 C1070 1.363 . S
C1075 C1074 1.415 . S
H1076 C1073 0.999 . S
H1077 C1058 0.913 . S
H1078 C1096 0.951 . S
H1079 C1098 0.951 . S
H1080 C1100 0.950 . S
H1081 C1101 0.950 . S
H1082 C1103 0.950 . S
H1083 C1106 0.950 . S
H1084 C1107 0.950 . S
H1085 C1109 0.950 . S
H1086 C1110 0.950 . S
H1087 C1111 0.951 1_455 S
H1088 C1113 0.951 . S
H1089 C1115 0.950 . S
H1090 C1116 0.950 1_455 S
H1091 C1118 0.950 . S
H1092 C1121 0.950 . S
H1093 C1122 0.950 . S
H1094 C1124 0.950 . S
H1095 C1125 0.950 . S
C1096 H1078 0.951 . S
C1096 C1097 1.366 . S
C1096 C1098 1.388 . S
C1097 C1096 1.366 . S
C1097 C1101 1.385 . S
C1098 H1079 0.951 . S
C1098 C1096 1.388 . S
C1098 C1099 1.366 . S
C1099 C1098 1.366 . S
C1099 C1100 1.414 . S
C1099 C1102 1.499 . S
C1100 H1080 0.950 . S
C1100 C1099 1.414 . S
C1100 C1101 1.374 . S
C1101 H1081 0.950 . S
C1101 C1097 1.385 . S
C1101 C1100 1.374 . S
C1102 C1099 1.499 . S
C1102 C1103 1.373 . S
C1102 C1104 1.389 . S
C1103 H1082 0.950 . S
C1103 C1102 1.373 . S
C1103 C1119 1.377 . S
C1104 C1102 1.389 . S
C1104 C1105 1.524 . S
C1104 C1118 1.377 . S
C1105 C1104 1.524 . S
C1105 C1106 1.397 . S
C1105 C1110 1.363 . S
C1106 H1083 0.950 . S
C1106 C1105 1.397 . S
C1106 C1107 1.334 . S
C1107 H1084 0.950 . S
C1107 C1106 1.334 . S
C1107 C1108 1.287 . S
C1108 C1107 1.287 . S
C1108 C1109 1.524 . S
C1108 H1127 0.913 . S
C1109 H1085 0.950 . S
C1109 C1108 1.524 . S
C1109 C1110 1.415 . S
C1110 H1086 0.950 . S
C1110 C1105 1.363 . S
C1110 C1109 1.415 . S
C1111 H1087 0.951 1_655 S
C1111 C1112 1.366 1_655 S
C1111 C1113 1.388 . S
C1112 C1111 1.366 1_455 S
C1112 C1116 1.385 1_455 S
C1113 H1088 0.951 . S
C1113 C1111 1.388 . S
C1113 C1114 1.366 . S
C1114 C1113 1.366 . S
C1114 C1115 1.414 . S
C1114 C1117 1.499 . S
C1115 H1089 0.950 . S
C1115 C1114 1.414 . S
C1115 C1116 1.374 . S
C1116 H1090 0.950 1_655 S
C1116 C1112 1.385 1_655 S
C1116 C1115 1.374 . S
C1117 C1114 1.499 . S
C1117 C1118 1.373 . S
C1117 C1119 1.389 . S
C1118 H1091 0.950 . S
C1118 C1104 1.377 . S
C1118 C1117 1.373 . S
C1119 C1103 1.377 . S
C1119 C1117 1.389 . S
C1119 C1120 1.524 . S
C1120 C1119 1.524 . S
C1120 C1121 1.397 . S
C1120 C1125 1.363 . S
C1121 H1092 0.950 . S
C1121 C1120 1.397 . S
C1121 C1122 1.334 . S
C1122 H1093 0.950 . S
C1122 C1121 1.334 . S
C1122 C1123 1.287 . S
C1123 C1122 1.287 . S
C1123 C1124 1.524 . S
C1123 H1126 0.999 . S
C1124 H1094 0.950 . S
C1124 C1123 1.524 . S
C1124 C1125 1.415 . S
C1125 H1095 0.950 . S
C1125 C1120 1.363 . S
C1125 C1124 1.415 . S
H1126 C1123 0.999 . S
H1127 C1108 0.913 . S
H1128 C1146 0.951 . S
H1129 C1148 0.951 . S
H1130 C1150 0.950 . S
H1131 C1151 0.950 . S
H1132 C1153 0.950 . S
H1133 C1156 0.950 . S
H1134 C1157 0.950 . S
H1135 C1159 0.950 . S
H1136 C1160 0.950 . S
H1137 C1161 0.951 . S
H1138 C1163 0.951 . S
H1139 C1165 0.950 . S
H1140 C1166 0.950 . S
H1141 C1168 0.950 . S
H1142 C1171 0.950 . S
H1143 C1172 0.950 . S
H1144 C1174 0.950 . S
H1145 C1175 0.950 . S
C1146 H1128 0.951 . S
C1146 C1147 1.366 . S
C1146 C1148 1.388 . S
C1147 C1146 1.366 . S
C1147 C1151 1.385 . S
C1148 H1129 0.951 . S
C1148 C1146 1.388 . S
C1148 C1149 1.366 . S
C1149 C1148 1.366 . S
C1149 C1150 1.414 . S
C1149 C1152 1.499 . S
C1150 H1130 0.950 . S
C1150 C1149 1.414 . S
C1150 C1151 1.374 . S
C1151 H1131 0.950 . S
C1151 C1147 1.385 . S
C1151 C1150 1.374 . S
C1152 C1149 1.499 . S
C1152 C1153 1.373 . S
C1152 C1154 1.389 . S
C1153 H1132 0.950 . S
C1153 C1152 1.373 . S
C1153 C1169 1.377 . S
C1154 C1152 1.389 . S
C1154 C1155 1.524 . S
C1154 C1168 1.377 . S
C1155 C1154 1.524 . S
C1155 C1156 1.397 . S
C1155 C1160 1.363 . S
C1156 H1133 0.950 . S
C1156 C1155 1.397 . S
C1156 C1157 1.334 . S
C1157 H1134 0.950 . S
C1157 C1156 1.334 . S
C1157 C1158 1.287 . S
C1158 C1157 1.287 . S
C1158 C1159 1.524 . S
C1158 H1177 0.913 . S
C1159 H1135 0.950 . S
C1159 C1158 1.524 . S
C1159 C1160 1.415 . S
C1160 H1136 0.950 . S
C1160 C1155 1.363 . S
C1160 C1159 1.415 . S
C1161 H1137 0.951 . S
C1161 C1162 1.366 . S
C1161 C1163 1.388 . S
C1162 C1161 1.366 . S
C1162 C1166 1.385 . S
C1163 H1138 0.951 . S
C1163 C1161 1.388 . S
C1163 C1164 1.366 . S
C1164 C1163 1.366 . S
C1164 C1165 1.414 . S
C1164 C1167 1.499 . S
C1165 H1139 0.950 . S
C1165 C1164 1.414 . S
C1165 C1166 1.374 . S
C1166 H1140 0.950 . S
C1166 C1162 1.385 . S
C1166 C1165 1.374 . S
C1167 C1164 1.499 . S
C1167 C1168 1.373 . S
C1167 C1169 1.389 . S
C1168 H1141 0.950 . S
C1168 C1154 1.377 . S
C1168 C1167 1.373 . S
C1169 C1153 1.377 . S
C1169 C1167 1.389 . S
C1169 C1170 1.524 . S
C1170 C1169 1.524 . S
C1170 C1171 1.397 . S
C1170 C1175 1.363 . S
C1171 H1142 0.950 . S
C1171 C1170 1.397 . S
C1171 C1172 1.334 . S
C1172 H1143 0.950 . S
C1172 C1171 1.334 . S
C1172 C1173 1.287 . S
C1173 C1172 1.287 . S
C1173 C1174 1.524 . S
C1173 H1176 0.999 . S
C1174 H1144 0.950 . S
C1174 C1173 1.524 . S
C1174 C1175 1.415 . S
C1175 H1145 0.950 . S
C1175 C1170 1.363 . S
C1175 C1174 1.415 . S
H1176 C1173 0.999 . S
H1177 C1158 0.913 . S
H1178 C1196 0.951 . S
H1179 C1198 0.951 . S
H1180 C1200 0.950 . S
H1181 C1201 0.950 . S
H1182 C1203 0.950 . S
H1183 C1206 0.950 . S
H1184 C1207 0.950 . S
H1185 C1209 0.950 . S
H1186 C1210 0.950 . S
H1187 C1211 0.951 1_655 S
H1188 C1213 0.951 . S
H1189 C1215 0.950 . S
H1190 C1216 0.950 1_655 S
H1191 C1218 0.950 . S
H1192 C1221 0.950 . S
H1193 C1222 0.950 . S
H1194 C1224 0.950 . S
H1195 C1225 0.950 . S
C1196 H1178 0.951 . S
C1196 C1197 1.366 . S
C1196 C1198 1.388 . S
C1197 C1196 1.366 . S
C1197 C1201 1.385 . S
C1198 H1179 0.951 . S
C1198 C1196 1.388 . S
C1198 C1199 1.366 . S
C1199 C1198 1.366 . S
C1199 C1200 1.414 . S
C1199 C1202 1.499 . S
C1200 H1180 0.950 . S
C1200 C1199 1.414 . S
C1200 C1201 1.374 . S
C1201 H1181 0.950 . S
C1201 C1197 1.385 . S
C1201 C1200 1.374 . S
C1202 C1199 1.499 . S
C1202 C1203 1.373 . S
C1202 C1204 1.389 . S
C1203 H1182 0.950 . S
C1203 C1202 1.373 . S
C1203 C1219 1.377 . S
C1204 C1202 1.389 . S
C1204 C1205 1.524 . S
C1204 C1218 1.377 . S
C1205 C1204 1.524 . S
C1205 C1206 1.397 . S
C1205 C1210 1.363 . S
C1206 H1183 0.950 . S
C1206 C1205 1.397 . S
C1206 C1207 1.334 . S
C1207 H1184 0.950 . S
C1207 C1206 1.334 . S
C1207 C1208 1.287 . S
C1208 C1207 1.287 . S
C1208 C1209 1.524 . S
C1208 H1227 0.913 . S
C1209 H1185 0.950 . S
C1209 C1208 1.524 . S
C1209 C1210 1.415 . S
C1210 H1186 0.950 . S
C1210 C1205 1.363 . S
C1210 C1209 1.415 . S
C1211 H1187 0.951 1_455 S
C1211 C1212 1.366 1_455 S
C1211 C1213 1.388 . S
C1212 C1211 1.366 1_655 S
C1212 C1216 1.385 1_655 S
C1213 H1188 0.951 . S
C1213 C1211 1.388 . S
C1213 C1214 1.366 . S
C1214 C1213 1.366 . S
C1214 C1215 1.414 . S
C1214 C1217 1.499 . S
C1215 H1189 0.950 . S
C1215 C1214 1.414 . S
C1215 C1216 1.374 . S
C1216 H1190 0.950 1_455 S
C1216 C1212 1.385 1_455 S
C1216 C1215 1.374 . S
C1217 C1214 1.499 . S
C1217 C1218 1.373 . S
C1217 C1219 1.389 . S
C1218 H1191 0.950 . S
C1218 C1204 1.377 . S
C1218 C1217 1.373 . S
C1219 C1203 1.377 . S
C1219 C1217 1.389 . S
C1219 C1220 1.524 . S
C1220 C1219 1.524 . S
C1220 C1221 1.397 . S
C1220 C1225 1.363 . S
C1221 H1192 0.950 . S
C1221 C1220 1.397 . S
C1221 C1222 1.334 . S
C1222 H1193 0.950 . S
C1222 C1221 1.334 . S
C1222 C1223 1.287 . S
C1223 C1222 1.287 . S
C1223 C1224 1.524 . S
C1223 H1226 0.999 . S
C1224 H1194 0.950 . S
C1224 C1223 1.524 . S
C1224 C1225 1.415 . S
C1225 H1195 0.950 . S
C1225 C1220 1.363 . S
C1225 C1224 1.415 . S
H1226 C1223 0.999 . S
H1227 C1208 0.913 . S
H1228 C1246 0.951 . S
H1229 C1248 0.951 . S
H1230 C1250 0.950 . S
H1231 C1251 0.950 . S
H1232 C1253 0.950 . S
H1233 C1256 0.950 . S
H1234 C1257 0.950 . S
H1235 C1259 0.950 . S
H1236 C1260 0.950 . S
H1237 C1261 0.951 . S
H1238 C1263 0.951 . S
H1239 C1265 0.950 . S
H1240 C1266 0.950 . S
H1241 C1268 0.950 . S
H1242 C1271 0.950 . S
H1243 C1272 0.950 . S
H1244 C1274 0.950 . S
H1245 C1275 0.950 . S
C1246 H1228 0.951 . S
C1246 C1247 1.366 . S
C1246 C1248 1.388 . S
C1247 C1246 1.366 . S
C1247 C1251 1.385 . S
C1248 H1229 0.951 . S
C1248 C1246 1.388 . S
C1248 C1249 1.366 . S
C1249 C1248 1.366 . S
C1249 C1250 1.414 . S
C1249 C1252 1.499 . S
C1250 H1230 0.950 . S
C1250 C1249 1.414 . S
C1250 C1251 1.374 . S
C1251 H1231 0.950 . S
C1251 C1247 1.385 . S
C1251 C1250 1.374 . S
C1252 C1249 1.499 . S
C1252 C1253 1.373 . S
C1252 C1254 1.389 . S
C1253 H1232 0.950 . S
C1253 C1252 1.373 . S
C1253 C1269 1.377 . S
C1254 C1252 1.389 . S
C1254 C1255 1.524 . S
C1254 C1268 1.377 . S
C1255 C1254 1.524 . S
C1255 C1256 1.397 . S
C1255 C1260 1.363 . S
C1256 H1233 0.950 . S
C1256 C1255 1.397 . S
C1256 C1257 1.334 . S
C1257 H1234 0.950 . S
C1257 C1256 1.334 . S
C1257 C1258 1.287 . S
C1258 C1257 1.287 . S
C1258 C1259 1.524 . S
C1258 H1277 0.913 . S
C1259 H1235 0.950 . S
C1259 C1258 1.524 . S
C1259 C1260 1.415 . S
C1260 H1236 0.950 . S
C1260 C1255 1.363 . S
C1260 C1259 1.415 . S
C1261 H1237 0.951 . S
C1261 C1262 1.366 . S
C1261 C1263 1.388 . S
C1262 C1261 1.366 . S
C1262 C1266 1.385 . S
C1263 H1238 0.951 . S
C1263 C1261 1.388 . S
C1263 C1264 1.366 . S
C1264 C1263 1.366 . S
C1264 C1265 1.414 . S
C1264 C1267 1.499 . S
C1265 H1239 0.950 . S
C1265 C1264 1.414 . S
C1265 C1266 1.374 . S
C1266 H1240 0.950 . S
C1266 C1262 1.385 . S
C1266 C1265 1.374 . S
C1267 C1264 1.499 . S
C1267 C1268 1.373 . S
C1267 C1269 1.389 . S
C1268 H1241 0.950 . S
C1268 C1254 1.377 . S
C1268 C1267 1.373 . S
C1269 C1253 1.377 . S
C1269 C1267 1.389 . S
C1269 C1270 1.524 . S
C1270 C1269 1.524 . S
C1270 C1271 1.397 . S
C1270 C1275 1.363 . S
C1271 H1242 0.950 . S
C1271 C1270 1.397 . S
C1271 C1272 1.334 . S
C1272 H1243 0.950 . S
C1272 C1271 1.334 . S
C1272 C1273 1.287 . S
C1273 C1272 1.287 . S
C1273 C1274 1.524 . S
C1273 H1276 0.999 . S
C1274 H1244 0.950 . S
C1274 C1273 1.524 . S
C1274 C1275 1.415 . S
C1275 H1245 0.950 . S
C1275 C1270 1.363 . S
C1275 C1274 1.415 . S
H1276 C1273 0.999 . S
H1277 C1258 0.913 . S
H1278 C1296 0.951 1_655 S
H1279 C1298 0.951 . S
H1280 C1300 0.950 . S
H1281 C1301 0.950 1_655 S
H1282 C1303 0.950 . S
H1283 C1306 0.950 . S
H1284 C1307 0.950 . S
H1285 C1309 0.950 . S
H1286 C1310 0.950 . S
H1287 C1311 0.951 . S
H1288 C1313 0.951 . S
H1289 C1315 0.950 . S
H1290 C1316 0.950 . S
H1291 C1318 0.950 . S
H1292 C1321 0.950 . S
H1293 C1322 0.950 . S
H1294 C1324 0.950 . S
H1295 C1325 0.950 . S
C1296 H1278 0.951 1_455 S
C1296 C1297 1.366 1_455 S
C1296 C1298 1.388 . S
C1297 C1296 1.366 1_655 S
C1297 C1301 1.385 1_655 S
C1298 H1279 0.951 . S
C1298 C1296 1.388 . S
C1298 C1299 1.366 . S
C1299 C1298 1.366 . S
C1299 C1300 1.414 . S
C1299 C1302 1.499 . S
C1300 H1280 0.950 . S
C1300 C1299 1.414 . S
C1300 C1301 1.374 . S
C1301 H1281 0.950 1_455 S
C1301 C1297 1.385 1_455 S
C1301 C1300 1.374 . S
C1302 C1299 1.499 . S
C1302 C1303 1.373 . S
C1302 C1304 1.389 . S
C1303 H1282 0.950 . S
C1303 C1302 1.373 . S
C1303 C1319 1.377 . S
C1304 C1302 1.389 . S
C1304 C1305 1.524 . S
C1304 C1318 1.377 . S
C1305 C1304 1.524 . S
C1305 C1306 1.397 . S
C1305 C1310 1.363 . S
C1306 H1283 0.950 . S
C1306 C1305 1.397 . S
C1306 C1307 1.334 . S
C1307 H1284 0.950 . S
C1307 C1306 1.334 . S
C1307 C1308 1.287 . S
C1308 C1307 1.287 . S
C1308 C1309 1.524 . S
C1308 H1327 0.913 . S
C1309 H1285 0.950 . S
C1309 C1308 1.524 . S
C1309 C1310 1.415 . S
C1310 H1286 0.950 . S
C1310 C1305 1.363 . S
C1310 C1309 1.415 . S
C1311 H1287 0.951 . S
C1311 C1312 1.366 . S
C1311 C1313 1.388 . S
C1312 C1311 1.366 . S
C1312 C1316 1.385 . S
C1313 H1288 0.951 . S
C1313 C1311 1.388 . S
C1313 C1314 1.366 . S
C1314 C1313 1.366 . S
C1314 C1315 1.414 . S
C1314 C1317 1.499 . S
C1315 H1289 0.950 . S
C1315 C1314 1.414 . S
C1315 C1316 1.374 . S
C1316 H1290 0.950 . S
C1316 C1312 1.385 . S
C1316 C1315 1.374 . S
C1317 C1314 1.499 . S
C1317 C1318 1.373 . S
C1317 C1319 1.389 . S
C1318 H1291 0.950 . S
C1318 C1304 1.377 . S
C1318 C1317 1.373 . S
C1319 C1303 1.377 . S
C1319 C1317 1.389 . S
C1319 C1320 1.524 . S
C1320 C1319 1.524 . S
C1320 C1321 1.397 . S
C1320 C1325 1.363 . S
C1321 H1292 0.950 . S
C1321 C1320 1.397 . S
C1321 C1322 1.334 . S
C1322 H1293 0.950 . S
C1322 C1321 1.334 . S
C1322 C1323 1.287 . S
C1323 C1322 1.287 . S
C1323 C1324 1.524 . S
C1323 H1326 0.999 . S
C1324 H1294 0.950 . S
C1324 C1323 1.524 . S
C1324 C1325 1.415 . S
C1325 H1295 0.950 . S
C1325 C1320 1.363 . S
C1325 C1324 1.415 . S
H1326 C1323 0.999 . S
H1327 C1308 0.913 . S
H1328 C1346 0.951 . S
H1329 C1348 0.951 . S
H1330 C1350 0.950 . S
H1331 C1351 0.950 . S
H1332 C1353 0.950 . S
H1333 C1356 0.950 . S
H1334 C1357 0.950 . S
H1335 C1359 0.950 . S
H1336 C1360 0.950 . S
H1337 C1361 0.951 . S
H1338 C1363 0.951 . S
H1339 C1365 0.950 . S
H1340 C1366 0.950 . S
H1341 C1368 0.950 . S
H1342 C1371 0.950 . S
H1343 C1372 0.950 . S
H1344 C1374 0.950 . S
H1345 C1375 0.950 . S
C1346 H1328 0.951 . S
C1346 C1347 1.366 . S
C1346 C1348 1.388 . S
C1347 C1346 1.366 . S
C1347 C1351 1.385 . S
C1348 H1329 0.951 . S
C1348 C1346 1.388 . S
C1348 C1349 1.366 . S
C1349 C1348 1.366 . S
C1349 C1350 1.414 . S
C1349 C1352 1.499 . S
C1350 H1330 0.950 . S
C1350 C1349 1.414 . S
C1350 C1351 1.374 . S
C1351 H1331 0.950 . S
C1351 C1347 1.385 . S
C1351 C1350 1.374 . S
C1352 C1349 1.499 . S
C1352 C1353 1.373 . S
C1352 C1354 1.389 . S
C1353 H1332 0.950 . S
C1353 C1352 1.373 . S
C1353 C1369 1.377 . S
C1354 C1352 1.389 . S
C1354 C1355 1.524 . S
C1354 C1368 1.377 . S
C1355 C1354 1.524 . S
C1355 C1356 1.397 . S
C1355 C1360 1.363 . S
C1356 H1333 0.950 . S
C1356 C1355 1.397 . S
C1356 C1357 1.334 . S
C1357 H1334 0.950 . S
C1357 C1356 1.334 . S
C1357 C1358 1.287 . S
C1358 C1357 1.287 . S
C1358 C1359 1.524 . S
C1358 H1377 0.913 . S
C1359 H1335 0.950 . S
C1359 C1358 1.524 . S
C1359 C1360 1.415 . S
C1360 H1336 0.950 . S
C1360 C1355 1.363 . S
C1360 C1359 1.415 . S
C1361 H1337 0.951 . S
C1361 C1362 1.363 1_554 S
C1361 C1363 1.388 . S
C1362 C1361 1.363 1_556 S
C1362 C1366 1.382 1_556 S
C1363 H1338 0.951 . S
C1363 C1361 1.388 . S
C1363 C1364 1.366 . S
C1364 C1363 1.366 . S
C1364 C1365 1.414 . S
C1364 C1367 1.499 . S
C1365 H1339 0.950 . S
C1365 C1364 1.414 . S
C1365 C1366 1.374 . S
C1366 H1340 0.950 . S
C1366 C1362 1.382 1_554 S
C1366 C1365 1.374 . S
C1367 C1364 1.499 . S
C1367 C1368 1.373 . S
C1367 C1369 1.389 . S
C1368 H1341 0.950 . S
C1368 C1354 1.377 . S
C1368 C1367 1.373 . S
C1369 C1353 1.377 . S
C1369 C1367 1.389 . S
C1369 C1370 1.524 . S
C1370 C1369 1.524 . S
C1370 C1371 1.397 . S
C1370 C1375 1.363 . S
C1371 H1342 0.950 . S
C1371 C1370 1.397 . S
C1371 C1372 1.334 . S
C1372 H1343 0.950 . S
C1372 C1371 1.334 . S
C1372 C1373 1.287 . S
C1373 C1372 1.287 . S
C1373 C1374 1.524 . S
C1373 H1376 0.999 . S
C1374 H1344 0.950 . S
C1374 C1373 1.524 . S
C1374 C1375 1.415 . S
C1375 H1345 0.950 . S
C1375 C1370 1.363 . S
C1375 C1374 1.415 . S
H1376 C1373 0.999 . S
H1377 C1358 0.913 . S
H1378 C1396 0.951 . S
H1379 C1398 0.951 . S
H1380 C1400 0.950 . S
H1381 C1401 0.950 . S
H1382 C1403 0.950 . S
H1383 C1406 0.950 . S
H1384 C1407 0.950 . S
H1385 C1409 0.950 . S
H1386 C1410 0.950 . S
H1387 C1411 0.951 . S
H1388 C1413 0.951 . S
H1389 C1415 0.950 . S
H1390 C1416 0.950 . S
H1391 C1418 0.950 . S
H1392 C1421 0.950 . S
H1393 C1422 0.950 . S
H1394 C1424 0.950 . S
H1395 C1425 0.950 . S
C1396 H1378 0.951 . S
C1396 C1397 1.363 1_556 S
C1396 C1398 1.388 . S
C1397 C1396 1.363 1_554 S
C1397 C1401 1.382 1_554 S
C1398 H1379 0.951 . S
C1398 C1396 1.388 . S
C1398 C1399 1.366 . S
C1399 C1398 1.366 . S
C1399 C1400 1.414 . S
C1399 C1402 1.499 . S
C1400 H1380 0.950 . S
C1400 C1399 1.414 . S
C1400 C1401 1.374 . S
C1401 H1381 0.950 . S
C1401 C1397 1.382 1_556 S
C1401 C1400 1.374 . S
C1402 C1399 1.499 . S
C1402 C1403 1.373 . S
C1402 C1404 1.389 . S
C1403 H1382 0.950 . S
C1403 C1402 1.373 . S
C1403 C1419 1.377 . S
C1404 C1402 1.389 . S
C1404 C1405 1.524 . S
C1404 C1418 1.377 . S
C1405 C1404 1.524 . S
C1405 C1406 1.397 . S
C1405 C1410 1.363 . S
C1406 H1383 0.950 . S
C1406 C1405 1.397 . S
C1406 C1407 1.334 . S
C1407 H1384 0.950 . S
C1407 C1406 1.334 . S
C1407 C1408 1.287 . S
C1408 C1407 1.287 . S
C1408 C1409 1.524 . S
C1408 H1427 0.913 . S
C1409 H1385 0.950 . S
C1409 C1408 1.524 . S
C1409 C1410 1.415 . S
C1410 H1386 0.950 . S
C1410 C1405 1.363 . S
C1410 C1409 1.415 . S
C1411 H1387 0.951 . S
C1411 C1412 1.366 . S
C1411 C1413 1.388 . S
C1412 C1411 1.366 . S
C1412 C1416 1.385 . S
C1413 H1388 0.951 . S
C1413 C1411 1.388 . S
C1413 C1414 1.366 . S
C1414 C1413 1.366 . S
C1414 C1415 1.414 . S
C1414 C1417 1.499 . S
C1415 H1389 0.950 . S
C1415 C1414 1.414 . S
C1415 C1416 1.374 . S
C1416 H1390 0.950 . S
C1416 C1412 1.385 . S
C1416 C1415 1.374 . S
C1417 C1414 1.499 . S
C1417 C1418 1.373 . S
C1417 C1419 1.389 . S
C1418 H1391 0.950 . S
C1418 C1404 1.377 . S
C1418 C1417 1.373 . S
C1419 C1403 1.377 . S
C1419 C1417 1.389 . S
C1419 C1420 1.524 . S
C1420 C1419 1.524 . S
C1420 C1421 1.397 . S
C1420 C1425 1.363 . S
C1421 H1392 0.950 . S
C1421 C1420 1.397 . S
C1421 C1422 1.334 . S
C1422 H1393 0.950 . S
C1422 C1421 1.334 . S
C1422 C1423 1.287 . S
C1423 C1422 1.287 . S
C1423 C1424 1.524 . S
C1423 H1426 0.999 . S
C1424 H1394 0.950 . S
C1424 C1423 1.524 . S
C1424 C1425 1.415 . S
C1425 H1395 0.950 . S
C1425 C1420 1.363 . S
C1425 C1424 1.415 . S
H1426 C1423 0.999 . S
H1427 C1408 0.913 . S
H1428 C1446 0.951 . S
H1429 C1448 0.951 . S
H1430 C1450 0.950 . S
H1431 C1451 0.950 . S
H1432 C1453 0.950 . S
H1433 C1456 0.950 . S
H1434 C1457 0.950 . S
H1435 C1459 0.950 . S
H1436 C1460 0.950 . S
H1437 C1461 0.951 . S
H1438 C1463 0.951 . S
H1439 C1465 0.950 . S
H1440 C1466 0.950 . S
H1441 C1468 0.950 . S
H1442 C1471 0.950 . S
H1443 C1472 0.950 . S
H1444 C1474 0.950 . S
H1445 C1475 0.950 . S
C1446 H1428 0.951 . S
C1446 C1447 1.366 . S
C1446 C1448 1.388 . S
C1447 C1446 1.366 . S
C1447 C1451 1.385 . S
C1448 H1429 0.951 . S
C1448 C1446 1.388 . S
C1448 C1449 1.366 . S
C1449 C1448 1.366 . S
C1449 C1450 1.414 . S
C1449 C1452 1.499 . S
C1450 H1430 0.950 . S
C1450 C1449 1.414 . S
C1450 C1451 1.374 . S
C1451 H1431 0.950 . S
C1451 C1447 1.385 . S
C1451 C1450 1.374 . S
C1452 C1449 1.499 . S
C1452 C1453 1.373 . S
C1452 C1454 1.389 . S
C1453 H1432 0.950 . S
C1453 C1452 1.373 . S
C1453 C1469 1.377 . S
C1454 C1452 1.389 . S
C1454 C1455 1.524 . S
C1454 C1468 1.377 . S
C1455 C1454 1.524 . S
C1455 C1456 1.397 . S
C1455 C1460 1.363 . S
C1456 H1433 0.950 . S
C1456 C1455 1.397 . S
C1456 C1457 1.334 . S
C1457 H1434 0.950 . S
C1457 C1456 1.334 . S
C1457 C1458 1.287 . S
C1458 C1457 1.287 . S
C1458 C1459 1.524 . S
C1458 H1477 0.913 . S
C1459 H1435 0.950 . S
C1459 C1458 1.524 . S
C1459 C1460 1.415 . S
C1460 H1436 0.950 . S
C1460 C1455 1.363 . S
C1460 C1459 1.415 . S
C1461 H1437 0.951 . S
C1461 C1462 1.366 . S
C1461 C1463 1.388 . S
C1462 C1461 1.366 . S
C1462 C1466 1.385 . S
C1463 H1438 0.951 . S
C1463 C1461 1.388 . S
C1463 C1464 1.366 . S
C1464 C1463 1.366 . S
C1464 C1465 1.414 . S
C1464 C1467 1.499 . S
C1465 H1439 0.950 . S
C1465 C1464 1.414 . S
C1465 C1466 1.374 . S
C1466 H1440 0.950 . S
C1466 C1462 1.385 . S
C1466 C1465 1.374 . S
C1467 C1464 1.499 . S
C1467 C1468 1.373 . S
C1467 C1469 1.389 . S
C1468 H1441 0.950 . S
C1468 C1454 1.377 . S
C1468 C1467 1.373 . S
C1469 C1453 1.377 . S
C1469 C1467 1.389 . S
C1469 C1470 1.524 . S
C1470 C1469 1.524 . S
C1470 C1471 1.397 . S
C1470 C1475 1.363 . S
C1471 H1442 0.950 . S
C1471 C1470 1.397 . S
C1471 C1472 1.334 . S
C1472 H1443 0.950 . S
C1472 C1471 1.334 . S
C1472 C1473 1.287 . S
C1473 C1472 1.287 . S
C1473 C1474 1.524 . S
C1473 H1476 0.999 . S
C1474 H1444 0.950 . S
C1474 C1473 1.524 . S
C1474 C1475 1.415 . S
C1475 H1445 0.950 . S
C1475 C1470 1.363 . S
C1475 C1474 1.415 . S
H1476 C1473 0.999 . S
H1477 C1458 0.913 . S
H1478 C1496 0.951 . S
H1479 C1498 0.951 . S
H1480 C1500 0.950 . S
H1481 C1501 0.950 . S
H1482 C1503 0.950 . S
H1483 C1506 0.950 . S
H1484 C1507 0.950 . S
H1485 C1509 0.950 . S
H1486 C1510 0.950 . S
H1487 C1511 0.951 . S
H1488 C1513 0.951 . S
H1489 C1515 0.950 . S
H1490 C1516 0.950 . S
H1491 C1518 0.950 . S
H1492 C1521 0.950 . S
H1493 C1522 0.950 . S
H1494 C1524 0.950 1_455 S
H1495 C1525 0.950 . S
C1496 H1478 0.951 . S
C1496 C1497 1.366 . S
C1496 C1498 1.388 . S
C1497 C1496 1.366 . S
C1497 C1501 1.385 . S
C1498 H1479 0.951 . S
C1498 C1496 1.388 . S
C1498 C1499 1.366 . S
C1499 C1498 1.366 . S
C1499 C1500 1.414 . S
C1499 C1502 1.499 . S
C1500 H1480 0.950 . S
C1500 C1499 1.414 . S
C1500 C1501 1.374 . S
C1501 H1481 0.950 . S
C1501 C1497 1.385 . S
C1501 C1500 1.374 . S
C1502 C1499 1.499 . S
C1502 C1503 1.373 . S
C1502 C1504 1.389 . S
C1503 H1482 0.950 . S
C1503 C1502 1.373 . S
C1503 C1519 1.377 . S
C1504 C1502 1.389 . S
C1504 C1505 1.524 . S
C1504 C1518 1.377 . S
C1505 C1504 1.524 . S
C1505 C1506 1.397 . S
C1505 C1510 1.363 . S
C1506 H1483 0.950 . S
C1506 C1505 1.397 . S
C1506 C1507 1.334 . S
C1507 H1484 0.950 . S
C1507 C1506 1.334 . S
C1507 C1508 1.287 . S
C1508 C1507 1.287 . S
C1508 C1509 1.524 . S
C1508 H1527 0.913 . S
C1509 H1485 0.950 . S
C1509 C1508 1.524 . S
C1509 C1510 1.415 . S
C1510 H1486 0.950 . S
C1510 C1505 1.363 . S
C1510 C1509 1.415 . S
C1511 H1487 0.951 . S
C1511 C1512 1.366 . S
C1511 C1513 1.388 . S
C1512 C1511 1.366 . S
C1512 C1516 1.385 . S
C1513 H1488 0.951 . S
C1513 C1511 1.388 . S
C1513 C1514 1.366 . S
C1514 C1513 1.366 . S
C1514 C1515 1.414 . S
C1514 C1517 1.499 . S
C1515 H1489 0.950 . S
C1515 C1514 1.414 . S
C1515 C1516 1.374 . S
C1516 H1490 0.950 . S
C1516 C1512 1.385 . S
C1516 C1515 1.374 . S
C1517 C1514 1.499 . S
C1517 C1518 1.373 . S
C1517 C1519 1.389 . S
C1518 H1491 0.950 . S
C1518 C1504 1.377 . S
C1518 C1517 1.373 . S
C1519 C1503 1.377 . S
C1519 C1517 1.389 . S
C1519 C1520 1.524 . S
C1520 C1519 1.524 . S
C1520 C1521 1.397 . S
C1520 C1525 1.363 . S
C1521 H1492 0.950 . S
C1521 C1520 1.397 . S
C1521 C1522 1.334 . S
C1522 H1493 0.950 . S
C1522 C1521 1.334 . S
C1522 C1523 1.287 . S
C1523 C1522 1.287 . S
C1523 C1524 1.524 . S
C1523 H1526 0.999 . S
C1524 H1494 0.950 1_655 S
C1524 C1523 1.524 . S
C1524 C1525 1.415 . S
C1525 H1495 0.950 . S
C1525 C1520 1.363 . S
C1525 C1524 1.415 . S
H1526 C1523 0.999 . S
H1527 C1508 0.913 . S
H1528 C1546 0.951 . S
H1529 C1548 0.951 . S
H1530 C1550 0.950 . S
H1531 C1551 0.950 . S
H1532 C1553 0.950 . S
H1533 C1556 0.950 . S
H1534 C1557 0.950 . S
H1535 C1559 0.950 . S
H1536 C1560 0.950 . S
H1537 C1561 0.951 . S
H1538 C1563 0.951 . S
H1539 C1565 0.950 . S
H1540 C1566 0.950 . S
H1541 C1568 0.950 . S
H1542 C1571 0.950 . S
H1543 C1572 0.950 . S
H1544 C1574 0.950 . S
H1545 C1575 0.950 . S
C1546 H1528 0.951 . S
C1546 C1547 1.366 . S
C1546 C1548 1.388 . S
C1547 C1546 1.366 . S
C1547 C1551 1.385 . S
C1548 H1529 0.951 . S
C1548 C1546 1.388 . S
C1548 C1549 1.366 . S
C1549 C1548 1.366 . S
C1549 C1550 1.414 . S
C1549 C1552 1.499 . S
C1550 H1530 0.950 . S
C1550 C1549 1.414 . S
C1550 C1551 1.374 . S
C1551 H1531 0.950 . S
C1551 C1547 1.385 . S
C1551 C1550 1.374 . S
C1552 C1549 1.499 . S
C1552 C1553 1.373 . S
C1552 C1554 1.389 . S
C1553 H1532 0.950 . S
C1553 C1552 1.373 . S
C1553 C1569 1.377 . S
C1554 C1552 1.389 . S
C1554 C1555 1.524 . S
C1554 C1568 1.377 . S
C1555 C1554 1.524 . S
C1555 C1556 1.397 . S
C1555 C1560 1.363 . S
C1556 H1533 0.950 . S
C1556 C1555 1.397 . S
C1556 C1557 1.334 . S
C1557 H1534 0.950 . S
C1557 C1556 1.334 . S
C1557 C1558 1.287 . S
C1558 C1557 1.287 . S
C1558 C1559 1.524 . S
C1558 H1577 0.913 . S
C1559 H1535 0.950 . S
C1559 C1558 1.524 . S
C1559 C1560 1.415 . S
C1560 H1536 0.950 . S
C1560 C1555 1.363 . S
C1560 C1559 1.415 . S
C1561 H1537 0.951 . S
C1561 C1562 1.366 . S
C1561 C1563 1.388 . S
C1562 C1561 1.366 . S
C1562 C1566 1.385 . S
C1563 H1538 0.951 . S
C1563 C1561 1.388 . S
C1563 C1564 1.366 . S
C1564 C1563 1.366 . S
C1564 C1565 1.414 . S
C1564 C1567 1.499 . S
C1565 H1539 0.950 . S
C1565 C1564 1.414 . S
C1565 C1566 1.374 . S
C1566 H1540 0.950 . S
C1566 C1562 1.385 . S
C1566 C1565 1.374 . S
C1567 C1564 1.499 . S
C1567 C1568 1.373 . S
C1567 C1569 1.389 . S
C1568 H1541 0.950 . S
C1568 C1554 1.377 . S
C1568 C1567 1.373 . S
C1569 C1553 1.377 . S
C1569 C1567 1.389 . S
C1569 C1570 1.524 . S
C1570 C1569 1.524 . S
C1570 C1571 1.397 . S
C1570 C1575 1.363 . S
C1571 H1542 0.950 . S
C1571 C1570 1.397 . S
C1571 C1572 1.334 . S
C1572 H1543 0.950 . S
C1572 C1571 1.334 . S
C1572 C1573 1.287 . S
C1573 C1572 1.287 . S
C1573 C1574 1.524 . S
C1573 H1576 0.999 . S
C1574 H1544 0.950 . S
C1574 C1573 1.524 . S
C1574 C1575 1.415 . S
C1575 H1545 0.950 . S
C1575 C1570 1.363 . S
C1575 C1574 1.415 . S
H1576 C1573 0.999 . S
H1577 C1558 0.913 . S
H1578 C1596 0.951 . S
H1579 C1598 0.951 . S
H1580 C1600 0.950 . S
H1581 C1601 0.950 . S
H1582 C1603 0.950 . S
H1583 C1606 0.950 . S
H1584 C1607 0.950 . S
H1585 C1609 0.950 . S
H1586 C1610 0.950 . S
H1587 C1611 0.951 . S
H1588 C1613 0.951 . S
H1589 C1615 0.950 . S
H1590 C1616 0.950 . S
H1591 C1618 0.950 . S
H1592 C1621 0.950 . S
H1593 C1622 0.950 . S
H1594 C1624 0.950 . S
H1595 C1625 0.950 . S
C1596 H1578 0.951 . S
C1596 C1597 1.366 . S
C1596 C1598 1.388 . S
C1597 C1596 1.366 . S
C1597 C1601 1.385 . S
C1598 H1579 0.951 . S
C1598 C1596 1.388 . S
C1598 C1599 1.366 . S
C1599 C1598 1.366 . S
C1599 C1600 1.414 . S
C1599 C1602 1.499 . S
C1600 H1580 0.950 . S
C1600 C1599 1.414 . S
C1600 C1601 1.374 . S
C1601 H1581 0.950 . S
C1601 C1597 1.385 . S
C1601 C1600 1.374 . S
C1602 C1599 1.499 . S
C1602 C1603 1.373 . S
C1602 C1604 1.389 . S
C1603 H1582 0.950 . S
C1603 C1602 1.373 . S
C1603 C1619 1.377 . S
C1604 C1602 1.389 . S
C1604 C1605 1.524 . S
C1604 C1618 1.377 . S
C1605 C1604 1.524 . S
C1605 C1606 1.397 . S
C1605 C1610 1.363 . S
C1606 H1583 0.950 . S
C1606 C1605 1.397 . S
C1606 C1607 1.334 . S
C1607 H1584 0.950 . S
C1607 C1606 1.334 . S
C1607 C1608 1.287 . S
C1608 C1607 1.287 . S
C1608 C1609 1.524 . S
C1608 H1627 0.913 . S
C1609 H1585 0.950 . S
C1609 C1608 1.524 . S
C1609 C1610 1.415 . S
C1610 H1586 0.950 . S
C1610 C1605 1.363 . S
C1610 C1609 1.415 . S
C1611 H1587 0.951 . S
C1611 C1612 1.366 . S
C1611 C1613 1.388 . S
C1612 C1611 1.366 . S
C1612 C1616 1.385 . S
C1613 H1588 0.951 . S
C1613 C1611 1.388 . S
C1613 C1614 1.366 . S
C1614 C1613 1.366 . S
C1614 C1615 1.414 . S
C1614 C1617 1.499 . S
C1615 H1589 0.950 . S
C1615 C1614 1.414 . S
C1615 C1616 1.374 . S
C1616 H1590 0.950 . S
C1616 C1612 1.385 . S
C1616 C1615 1.374 . S
C1617 C1614 1.499 . S
C1617 C1618 1.373 . S
C1617 C1619 1.389 . S
C1618 H1591 0.950 . S
C1618 C1604 1.377 . S
C1618 C1617 1.373 . S
C1619 C1603 1.377 . S
C1619 C1617 1.389 . S
C1619 C1620 1.524 . S
C1620 C1619 1.524 . S
C1620 C1621 1.397 . S
C1620 C1625 1.363 . S
C1621 H1592 0.950 . S
C1621 C1620 1.397 . S
C1621 C1622 1.334 . S
C1622 H1593 0.950 . S
C1622 C1621 1.334 . S
C1622 C1623 1.287 . S
C1623 C1622 1.287 . S
C1623 C1624 1.524 . S
C1623 H1626 0.999 . S
C1624 H1594 0.950 . S
C1624 C1623 1.524 . S
C1624 C1625 1.415 . S
C1625 H1595 0.950 . S
C1625 C1620 1.363 . S
C1625 C1624 1.415 . S
H1626 C1623 0.999 . S
H1627 C1608 0.913 . S
H1628 C1646 0.951 . S
H1629 C1648 0.951 . S
H1630 C1650 0.950 . S
H1631 C1651 0.950 . S
H1632 C1653 0.950 . S
H1633 C1656 0.950 . S
H1634 C1657 0.950 . S
H1635 C1659 0.950 . S
H1636 C1660 0.950 . S
H1637 C1661 0.951 . S
H1638 C1663 0.951 . S
H1639 C1665 0.950 . S
H1640 C1666 0.950 . S
H1641 C1668 0.950 . S
H1642 C1671 0.950 . S
H1643 C1672 0.950 . S
H1644 C1674 0.950 . S
H1645 C1675 0.950 . S
C1646 H1628 0.951 . S
C1646 C1647 1.363 1_554 S
C1646 C1648 1.388 . S
C1647 C1646 1.363 1_556 S
C1647 C1651 1.382 1_556 S
C1648 H1629 0.951 . S
C1648 C1646 1.388 . S
C1648 C1649 1.366 . S
C1649 C1648 1.366 . S
C1649 C1650 1.414 . S
C1649 C1652 1.499 . S
C1650 H1630 0.950 . S
C1650 C1649 1.414 . S
C1650 C1651 1.374 . S
C1651 H1631 0.950 . S
C1651 C1647 1.382 1_554 S
C1651 C1650 1.374 . S
C1652 C1649 1.499 . S
C1652 C1653 1.373 . S
C1652 C1654 1.389 . S
C1653 H1632 0.950 . S
C1653 C1652 1.373 . S
C1653 C1669 1.377 . S
C1654 C1652 1.389 . S
C1654 C1655 1.524 . S
C1654 C1668 1.377 . S
C1655 C1654 1.524 . S
C1655 C1656 1.397 . S
C1655 C1660 1.363 . S
C1656 H1633 0.950 . S
C1656 C1655 1.397 . S
C1656 C1657 1.334 . S
C1657 H1634 0.950 . S
C1657 C1656 1.334 . S
C1657 C1658 1.287 . S
C1658 C1657 1.287 . S
C1658 C1659 1.524 . S
C1658 H1677 0.913 . S
C1659 H1635 0.950 . S
C1659 C1658 1.524 . S
C1659 C1660 1.415 . S
C1660 H1636 0.950 . S
C1660 C1655 1.363 . S
C1660 C1659 1.415 . S
C1661 H1637 0.951 . S
C1661 C1662 1.366 . S
C1661 C1663 1.388 . S
C1662 C1661 1.366 . S
C1662 C1666 1.385 . S
C1663 H1638 0.951 . S
C1663 C1661 1.388 . S
C1663 C1664 1.366 . S
C1664 C1663 1.366 . S
C1664 C1665 1.414 . S
C1664 C1667 1.499 . S
C1665 H1639 0.950 . S
C1665 C1664 1.414 . S
C1665 C1666 1.374 . S
C1666 H1640 0.950 . S
C1666 C1662 1.385 . S
C1666 C1665 1.374 . S
C1667 C1664 1.499 . S
C1667 C1668 1.373 . S
C1667 C1669 1.389 . S
C1668 H1641 0.950 . S
C1668 C1654 1.377 . S
C1668 C1667 1.373 . S
C1669 C1653 1.377 . S
C1669 C1667 1.389 . S
C1669 C1670 1.524 . S
C1670 C1669 1.524 . S
C1670 C1671 1.397 . S
C1670 C1675 1.363 . S
C1671 H1642 0.950 . S
C1671 C1670 1.397 . S
C1671 C1672 1.334 . S
C1672 H1643 0.950 . S
C1672 C1671 1.334 . S
C1672 C1673 1.287 . S
C1673 C1672 1.287 . S
C1673 C1674 1.524 . S
C1673 H1676 0.999 . S
C1674 H1644 0.950 . S
C1674 C1673 1.524 . S
C1674 C1675 1.415 . S
C1675 H1645 0.950 . S
C1675 C1670 1.363 . S
C1675 C1674 1.415 . S
H1676 C1673 0.999 . S
H1677 C1658 0.913 . S
H1678 C1696 0.951 . S
H1679 C1698 0.951 . S
H1680 C1700 0.950 . S
H1681 C1701 0.950 . S
H1682 C1703 0.950 . S
H1683 C1706 0.950 . S
H1684 C1707 0.950 . S
H1685 C1709 0.950 . S
H1686 C1710 0.950 . S
H1687 C1711 0.951 . S
H1688 C1713 0.951 . S
H1689 C1715 0.950 . S
H1690 C1716 0.950 . S
H1691 C1718 0.950 . S
H1692 C1721 0.950 . S
H1693 C1722 0.950 . S
H1694 C1724 0.950 . S
H1695 C1725 0.950 . S
C1696 H1678 0.951 . S
C1696 C1697 1.366 . S
C1696 C1698 1.388 . S
C1697 C1696 1.366 . S
C1697 C1701 1.385 . S
C1698 H1679 0.951 . S
C1698 C1696 1.388 . S
C1698 C1699 1.366 . S
C1699 C1698 1.366 . S
C1699 C1700 1.414 . S
C1699 C1702 1.499 . S
C1700 H1680 0.950 . S
C1700 C1699 1.414 . S
C1700 C1701 1.374 . S
C1701 H1681 0.950 . S
C1701 C1697 1.385 . S
C1701 C1700 1.374 . S
C1702 C1699 1.499 . S
C1702 C1703 1.373 . S
C1702 C1704 1.389 . S
C1703 H1682 0.950 . S
C1703 C1702 1.373 . S
C1703 C1719 1.377 . S
C1704 C1702 1.389 . S
C1704 C1705 1.524 . S
C1704 C1718 1.377 . S
C1705 C1704 1.524 . S
C1705 C1706 1.397 . S
C1705 C1710 1.363 . S
C1706 H1683 0.950 . S
C1706 C1705 1.397 . S
C1706 C1707 1.334 . S
C1707 H1684 0.950 . S
C1707 C1706 1.334 . S
C1707 C1708 1.287 . S
C1708 C1707 1.287 . S
C1708 C1709 1.524 . S
C1708 H1727 0.913 . S
C1709 H1685 0.950 . S
C1709 C1708 1.524 . S
C1709 C1710 1.415 . S
C1710 H1686 0.950 . S
C1710 C1705 1.363 . S
C1710 C1709 1.415 . S
C1711 H1687 0.951 . S
C1711 C1712 1.363 1_556 S
C1711 C1713 1.388 . S
C1712 C1711 1.363 1_554 S
C1712 C1716 1.382 1_554 S
C1713 H1688 0.951 . S
C1713 C1711 1.388 . S
C1713 C1714 1.366 . S
C1714 C1713 1.366 . S
C1714 C1715 1.414 . S
C1714 C1717 1.499 . S
C1715 H1689 0.950 . S
C1715 C1714 1.414 . S
C1715 C1716 1.374 . S
C1716 H1690 0.950 . S
C1716 C1712 1.382 1_556 S
C1716 C1715 1.374 . S
C1717 C1714 1.499 . S
C1717 C1718 1.373 . S
C1717 C1719 1.389 . S
C1718 H1691 0.950 . S
C1718 C1704 1.377 . S
C1718 C1717 1.373 . S
C1719 C1703 1.377 . S
C1719 C1717 1.389 . S
C1719 C1720 1.524 . S
C1720 C1719 1.524 . S
C1720 C1721 1.397 . S
C1720 C1725 1.363 . S
C1721 H1692 0.950 . S
C1721 C1720 1.397 . S
C1721 C1722 1.334 . S
C1722 H1693 0.950 . S
C1722 C1721 1.334 . S
C1722 C1723 1.287 . S
C1723 C1722 1.287 . S
C1723 C1724 1.524 . S
C1723 H1726 0.999 . S
C1724 H1694 0.950 . S
C1724 C1723 1.524 . S
C1724 C1725 1.415 . S
C1725 H1695 0.950 . S
C1725 C1720 1.363 . S
C1725 C1724 1.415 . S
H1726 C1723 0.999 . S
H1727 C1708 0.913 . S
H1728 C1746 0.951 . S
H1729 C1748 0.951 . S
H1730 C1750 0.950 . S
H1731 C1751 0.950 . S
H1732 C1753 0.950 . S
H1733 C1756 0.950 . S
H1734 C1757 0.950 . S
H1735 C1759 0.950 . S
H1736 C1760 0.950 . S
H1737 C1761 0.951 . S
H1738 C1763 0.951 . S
H1739 C1765 0.950 . S
H1740 C1766 0.950 . S
H1741 C1768 0.950 . S
H1742 C1771 0.950 . S
H1743 C1772 0.950 . S
H1744 C1774 0.950 . S
H1745 C1775 0.950 . S
C1746 H1728 0.951 . S
C1746 C1747 1.366 . S
C1746 C1748 1.388 . S
C1747 C1746 1.366 . S
C1747 C1751 1.385 . S
C1748 H1729 0.951 . S
C1748 C1746 1.388 . S
C1748 C1749 1.366 . S
C1749 C1748 1.366 . S
C1749 C1750 1.414 . S
C1749 C1752 1.499 . S
C1750 H1730 0.950 . S
C1750 C1749 1.414 . S
C1750 C1751 1.374 . S
C1751 H1731 0.950 . S
C1751 C1747 1.385 . S
C1751 C1750 1.374 . S
C1752 C1749 1.499 . S
C1752 C1753 1.373 . S
C1752 C1754 1.389 . S
C1753 H1732 0.950 . S
C1753 C1752 1.373 . S
C1753 C1769 1.377 . S
C1754 C1752 1.389 . S
C1754 C1755 1.524 . S
C1754 C1768 1.377 . S
C1755 C1754 1.524 . S
C1755 C1756 1.397 . S
C1755 C1760 1.363 . S
C1756 H1733 0.950 . S
C1756 C1755 1.397 . S
C1756 C1757 1.334 . S
C1757 H1734 0.950 . S
C1757 C1756 1.334 . S
C1757 C1758 1.287 . S
C1758 C1757 1.287 . S
C1758 C1759 1.524 . S
C1758 H1777 0.913 . S
C1759 H1735 0.950 . S
C1759 C1758 1.524 . S
C1759 C1760 1.415 . S
C1760 H1736 0.950 . S
C1760 C1755 1.363 . S
C1760 C1759 1.415 . S
C1761 H1737 0.951 . S
C1761 C1762 1.366 . S
C1761 C1763 1.388 . S
C1762 C1761 1.366 . S
C1762 C1766 1.385 . S
C1763 H1738 0.951 . S
C1763 C1761 1.388 . S
C1763 C1764 1.366 . S
C1764 C1763 1.366 . S
C1764 C1765 1.414 . S
C1764 C1767 1.499 . S
C1765 H1739 0.950 . S
C1765 C1764 1.414 . S
C1765 C1766 1.374 . S
C1766 H1740 0.950 . S
C1766 C1762 1.385 . S
C1766 C1765 1.374 . S
C1767 C1764 1.499 . S
C1767 C1768 1.373 . S
C1767 C1769 1.389 . S
C1768 H1741 0.950 . S
C1768 C1754 1.377 . S
C1768 C1767 1.373 . S
C1769 C1753 1.377 . S
C1769 C1767 1.389 . S
C1769 C1770 1.524 . S
C1770 C1769 1.524 . S
C1770 C1771 1.397 . S
C1770 C1775 1.363 . S
C1771 H1742 0.950 . S
C1771 C1770 1.397 . S
C1771 C1772 1.334 . S
C1772 H1743 0.950 . S
C1772 C1771 1.334 . S
C1772 C1773 1.287 . S
C1773 C1772 1.287 . S
C1773 C1774 1.524 . S
C1773 H1776 0.999 . S
C1774 H1744 0.950 . S
C1774 C1773 1.524 . S
C1774 C1775 1.415 . S
C1775 H1745 0.950 . S
C1775 C1770 1.363 . S
C1775 C1774 1.415 . S
H1776 C1773 0.999 . S
H1777 C1758 0.913 . S
H1778 C1796 0.951 . S
H1779 C1798 0.951 . S
H1780 C1800 0.950 . S
H1781 C1801 0.950 . S
H1782 C1803 0.950 . S
H1783 C1806 0.950 . S
H1784 C1807 0.950 . S
H1785 C1809 0.950 . S
H1786 C1810 0.950 . S
H1787 C1811 0.951 . S
H1788 C1813 0.951 . S
H1789 C1815 0.950 . S
H1790 C1816 0.950 . S
H1791 C1818 0.950 . S
H1792 C1821 0.950 . S
H1793 C1822 0.950 . S
H1794 C1824 0.950 . S
H1795 C1825 0.950 . S
C1796 H1778 0.951 . S
C1796 C1797 1.366 . S
C1796 C1798 1.388 . S
C1797 C1796 1.366 . S
C1797 C1801 1.385 . S
C1798 H1779 0.951 . S
C1798 C1796 1.388 . S
C1798 C1799 1.366 . S
C1799 C1798 1.366 . S
C1799 C1800 1.414 . S
C1799 C1802 1.499 . S
C1800 H1780 0.950 . S
C1800 C1799 1.414 . S
C1800 C1801 1.374 . S
C1801 H1781 0.950 . S
C1801 C1797 1.385 . S
C1801 C1800 1.374 . S
C1802 C1799 1.499 . S
C1802 C1803 1.373 1_665 S
C1802 C1804 1.389 . S
C1803 H1782 0.950 . S
C1803 C1802 1.373 1_445 S
C1803 C1819 1.377 . S
C1804 C1802 1.389 . S
C1804 C1805 1.524 . S
C1804 C1818 1.377 . S
C1805 C1804 1.524 . S
C1805 C1806 1.397 . S
C1805 C1810 1.363 . S
C1806 H1783 0.950 . S
C1806 C1805 1.397 . S
C1806 C1807 1.334 . S
C1807 H1784 0.950 . S
C1807 C1806 1.334 . S
C1807 C1808 1.287 . S
C1808 C1807 1.287 . S
C1808 C1809 1.524 . S
C1808 H1827 0.913 . S
C1809 H1785 0.950 . S
C1809 C1808 1.524 . S
C1809 C1810 1.415 . S
C1810 H1786 0.950 . S
C1810 C1805 1.363 . S
C1810 C1809 1.415 . S
C1811 H1787 0.951 . S
C1811 C1812 1.366 . S
C1811 C1813 1.388 . S
C1812 C1811 1.366 . S
C1812 C1816 1.385 . S
C1813 H1788 0.951 . S
C1813 C1811 1.388 . S
C1813 C1814 1.366 . S
C1814 C1813 1.366 . S
C1814 C1815 1.414 . S
C1814 C1817 1.499 . S
C1815 H1789 0.950 . S
C1815 C1814 1.414 . S
C1815 C1816 1.374 . S
C1816 H1790 0.950 . S
C1816 C1812 1.385 . S
C1816 C1815 1.374 . S
C1817 C1814 1.499 . S
C1817 C1818 1.373 1_445 S
C1817 C1819 1.389 . S
C1818 H1791 0.950 . S
C1818 C1804 1.377 . S
C1818 C1817 1.373 1_665 S
C1819 C1803 1.377 . S
C1819 C1817 1.389 . S
C1819 C1820 1.524 . S
C1820 C1819 1.524 . S
C1820 C1821 1.397 . S
C1820 C1825 1.363 . S
C1821 H1792 0.950 . S
C1821 C1820 1.397 . S
C1821 C1822 1.334 . S
C1822 H1793 0.950 . S
C1822 C1821 1.334 . S
C1822 C1823 1.287 . S
C1823 C1822 1.287 . S
C1823 C1824 1.524 . S
C1823 H1826 0.999 . S
C1824 H1794 0.950 . S
C1824 C1823 1.524 . S
C1824 C1825 1.415 . S
C1825 H1795 0.950 . S
C1825 C1820 1.363 . S
C1825 C1824 1.415 . S
H1826 C1823 0.999 . S
H1827 C1808 0.913 . S
H1828 C1846 0.951 . S
H1829 C1848 0.951 . S
H1830 C1850 0.950 . S
H1831 C1851 0.950 . S
H1832 C1853 0.950 . S
H1833 C1856 0.950 . S
H1834 C1857 0.950 . S
H1835 C1859 0.950 . S
H1836 C1860 0.950 . S
H1837 C1861 0.951 . S
H1838 C1863 0.951 . S
H1839 C1865 0.950 . S
H1840 C1866 0.950 . S
H1841 C1868 0.950 . S
H1842 C1871 0.950 . S
H1843 C1872 0.950 . S
H1844 C1874 0.950 . S
H1845 C1875 0.950 . S
C1846 H1828 0.951 . S
C1846 C1847 1.366 . S
C1846 C1848 1.388 . S
C1847 C1846 1.366 . S
C1847 C1851 1.385 . S
C1848 H1829 0.951 . S
C1848 C1846 1.388 . S
C1848 C1849 1.366 . S
C1849 C1848 1.366 . S
C1849 C1850 1.414 . S
C1849 C1852 1.499 . S
C1850 H1830 0.950 . S
C1850 C1849 1.414 . S
C1850 C1851 1.374 . S
C1851 H1831 0.950 . S
C1851 C1847 1.385 . S
C1851 C1850 1.374 . S
C1852 C1849 1.499 . S
C1852 C1853 1.373 . S
C1852 C1854 1.389 1_565 S
C1853 H1832 0.950 . S
C1853 C1852 1.373 . S
C1853 C1869 1.377 . S
C1854 C1852 1.389 1_545 S
C1854 C1855 1.524 . S
C1854 C1868 1.377 . S
C1855 C1854 1.524 . S
C1855 C1856 1.397 . S
C1855 C1860 1.363 . S
C1856 H1833 0.950 . S
C1856 C1855 1.397 . S
C1856 C1857 1.334 . S
C1857 H1834 0.950 . S
C1857 C1856 1.334 . S
C1857 C1858 1.287 . S
C1858 C1857 1.287 . S
C1858 C1859 1.524 . S
C1858 H1877 0.913 . S
C1859 H1835 0.950 . S
C1859 C1858 1.524 . S
C1859 C1860 1.415 . S
C1860 H1836 0.950 . S
C1860 C1855 1.363 . S
C1860 C1859 1.415 . S
C1861 H1837 0.951 . S
C1861 C1862 1.366 . S
C1861 C1863 1.388 . S
C1862 C1861 1.366 . S
C1862 C1866 1.385 . S
C1863 H1838 0.951 . S
C1863 C1861 1.388 . S
C1863 C1864 1.366 . S
C1864 C1863 1.366 . S
C1864 C1865 1.414 . S
C1864 C1867 1.499 . S
C1865 H1839 0.950 . S
C1865 C1864 1.414 . S
C1865 C1866 1.374 . S
C1866 H1840 0.950 . S
C1866 C1862 1.385 . S
C1866 C1865 1.374 . S
C1867 C1864 1.499 . S
C1867 C1868 1.373 . S
C1867 C1869 1.389 1_545 S
C1868 H1841 0.950 . S
C1868 C1854 1.377 . S
C1868 C1867 1.373 . S
C1869 C1853 1.377 . S
C1869 C1867 1.389 1_565 S
C1869 C1870 1.524 . S
C1870 C1869 1.524 . S
C1870 C1871 1.397 . S
C1870 C1875 1.363 . S
C1871 H1842 0.950 . S
C1871 C1870 1.397 . S
C1871 C1872 1.334 . S
C1872 H1843 0.950 . S
C1872 C1871 1.334 . S
C1872 C1873 1.287 . S
C1873 C1872 1.287 . S
C1873 C1874 1.524 . S
C1873 H1876 0.999 . S
C1874 H1844 0.950 . S
C1874 C1873 1.524 . S
C1874 C1875 1.415 . S
C1875 H1845 0.950 . S
C1875 C1870 1.363 . S
C1875 C1874 1.415 . S
H1876 C1873 0.999 . S
H1877 C1858 0.913 . S
H1878 C1896 0.951 . S
H1879 C1898 0.951 . S
H1880 C1900 0.950 . S
H1881 C1901 0.950 . S
H1882 C1903 0.950 . S
H1883 C1906 0.950 . S
H1884 C1907 0.950 . S
H1885 C1909 0.950 . S
H1886 C1910 0.950 . S
H1887 C1911 0.951 . S
H1888 C1913 0.951 . S
H1889 C1915 0.950 . S
H1890 C1916 0.950 . S
H1891 C1918 0.950 . S
H1892 C1921 0.950 . S
H1893 C1922 0.950 . S
H1894 C1924 0.950 . S
H1895 C1925 0.950 . S
C1896 H1878 0.951 . S
C1896 C1897 1.366 . S
C1896 C1898 1.388 . S
C1897 C1896 1.366 . S
C1897 C1901 1.385 . S
C1898 H1879 0.951 . S
C1898 C1896 1.388 . S
C1898 C1899 1.366 . S
C1899 C1898 1.366 . S
C1899 C1900 1.414 . S
C1899 C1902 1.499 . S
C1900 H1880 0.950 . S
C1900 C1899 1.414 . S
C1900 C1901 1.374 . S
C1901 H1881 0.950 . S
C1901 C1897 1.385 . S
C1901 C1900 1.374 . S
C1902 C1899 1.499 . S
C1902 C1903 1.373 . S
C1902 C1904 1.389 1_655 S
C1903 H1882 0.950 . S
C1903 C1902 1.373 . S
C1903 C1919 1.377 . S
C1904 C1902 1.389 1_455 S
C1904 C1905 1.524 . S
C1904 C1918 1.377 . S
C1905 C1904 1.524 . S
C1905 C1906 1.397 . S
C1905 C1910 1.363 . S
C1906 H1883 0.950 . S
C1906 C1905 1.397 . S
C1906 C1907 1.334 . S
C1907 H1884 0.950 . S
C1907 C1906 1.334 . S
C1907 C1908 1.287 . S
C1908 C1907 1.287 . S
C1908 C1909 1.524 . S
C1908 H1927 0.913 . S
C1909 H1885 0.950 . S
C1909 C1908 1.524 . S
C1909 C1910 1.415 . S
C1910 H1886 0.950 . S
C1910 C1905 1.363 . S
C1910 C1909 1.415 . S
C1911 H1887 0.951 . S
C1911 C1912 1.366 . S
C1911 C1913 1.388 . S
C1912 C1911 1.366 . S
C1912 C1916 1.385 . S
C1913 H1888 0.951 . S
C1913 C1911 1.388 . S
C1913 C1914 1.366 . S
C1914 C1913 1.366 . S
C1914 C1915 1.414 . S
C1914 C1917 1.499 . S
C1915 H1889 0.950 . S
C1915 C1914 1.414 . S
C1915 C1916 1.374 . S
C1916 H1890 0.950 . S
C1916 C1912 1.385 . S
C1916 C1915 1.374 . S
C1917 C1914 1.499 . S
C1917 C1918 1.373 . S
C1917 C1919 1.389 1_455 S
C1918 H1891 0.950 . S
C1918 C1904 1.377 . S
C1918 C1917 1.373 . S
C1919 C1903 1.377 . S
C1919 C1917 1.389 1_655 S
C1919 C1920 1.524 . S
C1920 C1919 1.524 . S
C1920 C1921 1.397 . S
C1920 C1925 1.363 . S
C1921 H1892 0.950 . S
C1921 C1920 1.397 . S
C1921 C1922 1.334 . S
C1922 H1893 0.950 . S
C1922 C1921 1.334 . S
C1922 C1923 1.287 . S
C1923 C1922 1.287 . S
C1923 C1924 1.524 . S
C1923 H1926 0.999 . S
C1924 H1894 0.950 . S
C1924 C1923 1.524 . S
C1924 C1925 1.415 . S
C1925 H1895 0.950 . S
C1925 C1920 1.363 . S
C1925 C1924 1.415 . S
H1926 C1923 0.999 . S
H1927 C1908 0.913 . S
H1928 C1946 0.951 . S
H1929 C1948 0.951 . S
H1930 C1950 0.950 . S
H1931 C1951 0.950 . S
H1932 C1953 0.950 . S
H1933 C1956 0.950 . S
H1934 C1957 0.950 . S
H1935 C1959 0.950 . S
H1936 C1960 0.950 . S
H1937 C1961 0.951 . S
H1938 C1963 0.951 . S
H1939 C1965 0.950 . S
H1940 C1966 0.950 . S
H1941 C1968 0.950 . S
H1942 C1971 0.950 . S
H1943 C1972 0.950 . S
H1944 C1974 0.950 . S
H1945 C1975 0.950 . S
C1946 H1928 0.951 . S
C1946 C1947 1.366 . S
C1946 C1948 1.388 . S
C1947 C1946 1.366 . S
C1947 C1951 1.385 . S
C1948 H1929 0.951 . S
C1948 C1946 1.388 . S
C1948 C1949 1.366 . S
C1949 C1948 1.366 . S
C1949 C1950 1.414 . S
C1949 C1952 1.499 . S
C1950 H1930 0.950 . S
C1950 C1949 1.414 . S
C1950 C1951 1.374 . S
C1951 H1931 0.950 . S
C1951 C1947 1.385 . S
C1951 C1950 1.374 . S
C1952 C1949 1.499 . S
C1952 C1953 1.373 . S
C1952 C1954 1.389 . S
C1953 H1932 0.950 . S
C1953 C1952 1.373 . S
C1953 C1969 1.377 . S
C1954 C1952 1.389 . S
C1954 C1955 1.524 . S
C1954 C1968 1.377 . S
C1955 C1954 1.524 . S
C1955 C1956 1.397 . S
C1955 C1960 1.363 . S
C1956 H1933 0.950 . S
C1956 C1955 1.397 . S
C1956 C1957 1.334 . S
C1957 H1934 0.950 . S
C1957 C1956 1.334 . S
C1957 C1958 1.287 . S
C1958 C1957 1.287 . S
C1958 C1959 1.524 . S
C1958 H1977 0.913 . S
C1959 H1935 0.950 . S
C1959 C1958 1.524 . S
C1959 C1960 1.415 . S
C1960 H1936 0.950 . S
C1960 C1955 1.363 . S
C1960 C1959 1.415 . S
C1961 H1937 0.951 . S
C1961 C1962 1.366 . S
C1961 C1963 1.388 . S
C1962 C1961 1.366 . S
C1962 C1966 1.385 . S
C1963 H1938 0.951 . S
C1963 C1961 1.388 . S
C1963 C1964 1.366 . S
C1964 C1963 1.366 . S
C1964 C1965 1.414 . S
C1964 C1967 1.499 . S
C1965 H1939 0.950 . S
C1965 C1964 1.414 . S
C1965 C1966 1.374 . S
C1966 H1940 0.950 . S
C1966 C1962 1.385 . S
C1966 C1965 1.374 . S
C1967 C1964 1.499 . S
C1967 C1968 1.373 . S
C1967 C1969 1.389 . S
C1968 H1941 0.950 . S
C1968 C1954 1.377 . S
C1968 C1967 1.373 . S
C1969 C1953 1.377 . S
C1969 C1967 1.389 . S
C1969 C1970 1.524 . S
C1970 C1969 1.524 . S
C1970 C1971 1.397 . S
C1970 C1975 1.363 . S
C1971 H1942 0.950 . S
C1971 C1970 1.397 . S
C1971 C1972 1.334 . S
C1972 H1943 0.950 . S
C1972 C1971 1.334 . S
C1972 C1973 1.287 . S
C1973 C1972 1.287 . S
C1973 C1974 1.524 . S
C1973 H1976 0.999 . S
C1974 H1944 0.950 . S
C1974 C1973 1.524 . S
C1974 C1975 1.415 . S
C1975 H1945 0.950 . S
C1975 C1970 1.363 . S
C1975 C1974 1.415 . S
H1976 C1973 0.999 . S
H1977 C1958 0.913 . S
H1978 C1996 0.951 . S
H1979 C1998 0.951 . S
H1980 C2000 0.950 . S
H1981 C2001 0.950 . S
H1982 C2003 0.950 . S
H1983 C2006 0.950 . S
H1984 C2007 0.950 . S
H1985 C2009 0.950 . S
H1986 C2010 0.950 . S
H1987 C2011 0.951 . S
H1988 C2013 0.951 . S
H1989 C2015 0.950 . S
H1990 C2016 0.950 . S
H1991 C2018 0.950 . S
H1992 C2021 0.950 . S
H1993 C2022 0.950 . S
H1994 C2024 0.950 . S
H1995 C2025 0.950 . S
C1996 H1978 0.951 . S
C1996 C1997 1.366 . S
C1996 C1998 1.388 . S
C1997 C1996 1.366 . S
C1997 C2001 1.385 . S
C1998 H1979 0.951 . S
C1998 C1996 1.388 . S
C1998 C1999 1.366 . S
C1999 C1998 1.366 . S
C1999 C2000 1.414 . S
C1999 C2002 1.499 . S
C2000 H1980 0.950 . S
C2000 C1999 1.414 . S
C2000 C2001 1.374 . S
C2001 H1981 0.950 . S
C2001 C1997 1.385 . S
C2001 C2000 1.374 . S
C2002 C1999 1.499 . S
C2002 C2003 1.373 1_545 S
C2002 C2004 1.389 . S
C2003 H1982 0.950 . S
C2003 C2002 1.373 1_565 S
C2003 C2019 1.377 . S
C2004 C2002 1.389 . S
C2004 C2005 1.524 . S
C2004 C2018 1.377 . S
C2005 C2004 1.524 . S
C2005 C2006 1.397 . S
C2005 C2010 1.363 . S
C2006 H1983 0.950 . S
C2006 C2005 1.397 . S
C2006 C2007 1.334 . S
C2007 H1984 0.950 . S
C2007 C2006 1.334 . S
C2007 C2008 1.287 . S
C2008 C2007 1.287 . S
C2008 C2009 1.524 . S
C2008 H2027 0.913 . S
C2009 H1985 0.950 . S
C2009 C2008 1.524 . S
C2009 C2010 1.415 . S
C2010 H1986 0.950 . S
C2010 C2005 1.363 . S
C2010 C2009 1.415 . S
C2011 H1987 0.951 . S
C2011 C2012 1.366 . S
C2011 C2013 1.388 . S
C2012 C2011 1.366 . S
C2012 C2016 1.385 . S
C2013 H1988 0.951 . S
C2013 C2011 1.388 . S
C2013 C2014 1.366 . S
C2014 C2013 1.366 . S
C2014 C2015 1.414 . S
C2014 C2017 1.499 . S
C2015 H1989 0.950 . S
C2015 C2014 1.414 . S
C2015 C2016 1.374 . S
C2016 H1990 0.950 . S
C2016 C2012 1.385 . S
C2016 C2015 1.374 . S
C2017 C2014 1.499 . S
C2017 C2018 1.373 1_565 S
C2017 C2019 1.389 . S
C2018 H1991 0.950 . S
C2018 C2004 1.377 . S
C2018 C2017 1.373 1_545 S
C2019 C2003 1.377 . S
C2019 C2017 1.389 . S
C2019 C2020 1.524 . S
C2020 C2019 1.524 . S
C2020 C2021 1.397 . S
C2020 C2025 1.363 . S
C2021 H1992 0.950 . S
C2021 C2020 1.397 . S
C2021 C2022 1.334 . S
C2022 H1993 0.950 . S
C2022 C2021 1.334 . S
C2022 C2023 1.287 . S
C2023 C2022 1.287 . S
C2023 C2024 1.524 . S
C2023 H2026 0.999 . S
C2024 H1994 0.950 . S
C2024 C2023 1.524 . S
C2024 C2025 1.415 . S
C2025 H1995 0.950 . S
C2025 C2020 1.363 . S
C2025 C2024 1.415 . S
H2026 C2023 0.999 . S
H2027 C2008 0.913 . S
H2028 C2046 0.951 . S
H2029 C2048 0.951 . S
H2030 C2050 0.950 . S
H2031 C2051 0.950 . S
H2032 C2053 0.950 . S
H2033 C2056 0.950 1_655 S
H2034 C2057 0.950 1_655 S
H2035 C2059 0.950 . S
H2036 C2060 0.950 . S
H2037 C2061 0.951 . S
H2038 C2063 0.951 . S
H2039 C2065 0.950 . S
H2040 C2066 0.950 . S
H2041 C2068 0.950 . S
H2042 C2071 0.950 1_455 S
H2043 C2072 0.950 1_455 S
H2044 C2074 0.950 . S
H2045 C2075 0.950 . S
C2046 H2028 0.951 . S
C2046 C2047 1.366 . S
C2046 C2048 1.388 . S
C2047 C2046 1.366 . S
C2047 C2051 1.385 . S
C2048 H2029 0.951 . S
C2048 C2046 1.388 . S
C2048 C2049 1.366 . S
C2049 C2048 1.366 . S
C2049 C2050 1.414 . S
C2049 C2052 1.499 . S
C2050 H2030 0.950 . S
C2050 C2049 1.414 . S
C2050 C2051 1.374 . S
C2051 H2031 0.950 . S
C2051 C2047 1.385 . S
C2051 C2050 1.374 . S
C2052 C2049 1.499 . S
C2052 C2053 1.373 . S
C2052 C2054 1.389 1_655 S
C2053 H2032 0.950 . S
C2053 C2052 1.373 . S
C2053 C2069 1.377 . S
C2054 C2052 1.389 1_455 S
C2054 C2055 1.524 . S
C2054 C2068 1.377 . S
C2055 C2054 1.524 . S
C2055 C2056 1.397 . S
C2055 C2060 1.363 . S
C2056 H2033 0.950 1_455 S
C2056 C2055 1.397 . S
C2056 C2057 1.334 . S
C2057 H2034 0.950 1_455 S
C2057 C2056 1.334 . S
C2057 C2058 1.287 . S
C2058 C2057 1.287 . S
C2058 C2059 1.524 . S
C2058 H2077 0.913 . S
C2059 H2035 0.950 . S
C2059 C2058 1.524 . S
C2059 C2060 1.415 . S
C2060 H2036 0.950 . S
C2060 C2055 1.363 . S
C2060 C2059 1.415 . S
C2061 H2037 0.951 . S
C2061 C2062 1.366 . S
C2061 C2063 1.388 . S
C2062 C2061 1.366 . S
C2062 C2066 1.385 . S
C2063 H2038 0.951 . S
C2063 C2061 1.388 . S
C2063 C2064 1.366 . S
C2064 C2063 1.366 . S
C2064 C2065 1.414 . S
C2064 C2067 1.499 . S
C2065 H2039 0.950 . S
C2065 C2064 1.414 . S
C2065 C2066 1.374 . S
C2066 H2040 0.950 . S
C2066 C2062 1.385 . S
C2066 C2065 1.374 . S
C2067 C2064 1.499 . S
C2067 C2068 1.373 . S
C2067 C2069 1.389 1_455 S
C2068 H2041 0.950 . S
C2068 C2054 1.377 . S
C2068 C2067 1.373 . S
C2069 C2053 1.377 . S
C2069 C2067 1.389 1_655 S
C2069 C2070 1.524 . S
C2070 C2069 1.524 . S
C2070 C2071 1.397 . S
C2070 C2075 1.363 . S
C2071 H2042 0.950 1_655 S
C2071 C2070 1.397 . S
C2071 C2072 1.334 . S
C2072 H2043 0.950 1_655 S
C2072 C2071 1.334 . S
C2072 C2073 1.287 . S
C2073 C2072 1.287 . S
C2073 C2074 1.524 . S
C2073 H2076 0.999 . S
C2074 H2044 0.950 . S
C2074 C2073 1.524 . S
C2074 C2075 1.415 . S
C2075 H2045 0.950 . S
C2075 C2070 1.363 . S
C2075 C2074 1.415 . S
H2076 C2073 0.999 . S
H2077 C2058 0.913 . S
H2078 C2096 0.951 . S
H2079 C2098 0.951 . S
H2080 C2100 0.950 . S
H2081 C2101 0.950 . S
H2082 C2103 0.950 . S
H2083 C2106 0.950 . S
H2084 C2107 0.950 . S
H2085 C2109 0.950 . S
H2086 C2110 0.950 . S
H2087 C2111 0.951 . S
H2088 C2113 0.951 . S
H2089 C2115 0.950 . S
H2090 C2116 0.950 . S
H2091 C2118 0.950 . S
H2092 C2121 0.950 . S
H2093 C2122 0.950 . S
H2094 C2124 0.950 . S
H2095 C2125 0.950 . S
C2096 H2078 0.951 . S
C2096 C2097 1.366 . S
C2096 C2098 1.388 . S
C2097 C2096 1.366 . S
C2097 C2101 1.385 . S
C2098 H2079 0.951 . S
C2098 C2096 1.388 . S
C2098 C2099 1.366 . S
C2099 C2098 1.366 . S
C2099 C2100 1.414 . S
C2099 C2102 1.499 . S
C2100 H2080 0.950 . S
C2100 C2099 1.414 . S
C2100 C2101 1.374 . S
C2101 H2081 0.950 . S
C2101 C2097 1.385 . S
C2101 C2100 1.374 . S
C2102 C2099 1.499 . S
C2102 C2103 1.373 1_554 S
C2102 C2104 1.389 . S
C2103 H2082 0.950 . S
C2103 C2102 1.373 1_556 S
C2103 C2119 1.377 . S
C2104 C2102 1.389 . S
C2104 C2105 1.524 . S
C2104 C2118 1.377 . S
C2105 C2104 1.524 . S
C2105 C2106 1.397 . S
C2105 C2110 1.363 . S
C2106 H2083 0.950 . S
C2106 C2105 1.397 . S
C2106 C2107 1.334 . S
C2107 H2084 0.950 . S
C2107 C2106 1.334 . S
C2107 C2108 1.287 . S
C2108 C2107 1.287 . S
C2108 C2109 1.524 . S
C2108 H2127 0.913 . S
C2109 H2085 0.950 . S
C2109 C2108 1.524 . S
C2109 C2110 1.415 . S
C2110 H2086 0.950 . S
C2110 C2105 1.363 . S
C2110 C2109 1.415 . S
C2111 H2087 0.951 . S
C2111 C2112 1.366 . S
C2111 C2113 1.388 . S
C2112 C2111 1.366 . S
C2112 C2116 1.385 . S
C2113 H2088 0.951 . S
C2113 C2111 1.388 . S
C2113 C2114 1.366 . S
C2114 C2113 1.366 . S
C2114 C2115 1.414 . S
C2114 C2117 1.499 . S
C2115 H2089 0.950 . S
C2115 C2114 1.414 . S
C2115 C2116 1.374 . S
C2116 H2090 0.950 . S
C2116 C2112 1.385 . S
C2116 C2115 1.374 . S
C2117 C2114 1.499 . S
C2117 C2118 1.373 1_556 S
C2117 C2119 1.389 . S
C2118 H2091 0.950 . S
C2118 C2104 1.377 . S
C2118 C2117 1.373 1_554 S
C2119 C2103 1.377 . S
C2119 C2117 1.389 . S
C2119 C2120 1.524 . S
C2120 C2119 1.524 . S
C2120 C2121 1.397 . S
C2120 C2125 1.363 . S
C2121 H2092 0.950 . S
C2121 C2120 1.397 . S
C2121 C2122 1.334 . S
C2122 H2093 0.950 . S
C2122 C2121 1.334 . S
C2122 C2123 1.287 . S
C2123 C2122 1.287 . S
C2123 C2124 1.524 . S
C2123 H2126 0.999 . S
C2124 H2094 0.950 . S
C2124 C2123 1.524 . S
C2124 C2125 1.415 . S
C2125 H2095 0.950 . S
C2125 C2120 1.363 . S
C2125 C2124 1.415 . S
H2126 C2123 0.999 . S
H2127 C2108 0.913 . S
H2128 C2146 0.951 . S
H2129 C2148 0.951 . S
H2130 C2150 0.950 . S
H2131 C2151 0.950 . S
H2132 C2153 0.950 . S
H2133 C2156 0.950 . S
H2134 C2157 0.950 . S
H2135 C2159 0.950 . S
H2136 C2160 0.950 . S
H2137 C2161 0.951 . S
H2138 C2163 0.951 . S
H2139 C2165 0.950 . S
H2140 C2166 0.950 . S
H2141 C2168 0.950 . S
H2142 C2171 0.950 . S
H2143 C2172 0.950 . S
H2144 C2174 0.950 . S
H2145 C2175 0.950 . S
C2146 H2128 0.951 . S
C2146 C2147 1.366 . S
C2146 C2148 1.388 . S
C2147 C2146 1.366 . S
C2147 C2151 1.385 . S
C2148 H2129 0.951 . S
C2148 C2146 1.388 . S
C2148 C2149 1.366 . S
C2149 C2148 1.366 . S
C2149 C2150 1.414 . S
C2149 C2152 1.499 . S
C2150 H2130 0.950 . S
C2150 C2149 1.414 . S
C2150 C2151 1.374 . S
C2151 H2131 0.950 . S
C2151 C2147 1.385 . S
C2151 C2150 1.374 . S
C2152 C2149 1.499 . S
C2152 C2153 1.373 . S
C2152 C2154 1.389 1_456 S
C2153 H2132 0.950 . S
C2153 C2152 1.373 . S
C2153 C2169 1.377 . S
C2154 C2152 1.389 1_654 S
C2154 C2155 1.524 . S
C2154 C2168 1.377 . S
C2155 C2154 1.524 . S
C2155 C2156 1.397 1_655 S
C2155 C2160 1.363 . S
C2156 H2133 0.950 . S
C2156 C2155 1.397 1_455 S
C2156 C2157 1.334 . S
C2157 H2134 0.950 . S
C2157 C2156 1.334 . S
C2157 C2158 1.281 1_455 S
C2158 C2157 1.281 1_655 S
C2158 C2159 1.530 . S
C2158 H2177 0.913 1_655 S
C2159 H2135 0.950 . S
C2159 C2158 1.530 . S
C2159 C2160 1.415 . S
C2160 H2136 0.950 . S
C2160 C2155 1.363 . S
C2160 C2159 1.415 . S
C2161 H2137 0.951 . S
C2161 C2162 1.366 . S
C2161 C2163 1.388 . S
C2162 C2161 1.366 . S
C2162 C2166 1.385 . S
C2163 H2138 0.951 . S
C2163 C2161 1.388 . S
C2163 C2164 1.366 . S
C2164 C2163 1.366 . S
C2164 C2165 1.414 . S
C2164 C2167 1.499 . S
C2165 H2139 0.950 . S
C2165 C2164 1.414 . S
C2165 C2166 1.374 . S
C2166 H2140 0.950 . S
C2166 C2162 1.385 . S
C2166 C2165 1.374 . S
C2167 C2164 1.499 . S
C2167 C2168 1.373 . S
C2167 C2169 1.389 1_654 S
C2168 H2141 0.950 . S
C2168 C2154 1.377 . S
C2168 C2167 1.373 . S
C2169 C2153 1.377 . S
C2169 C2167 1.389 1_456 S
C2169 C2170 1.524 . S
C2170 C2169 1.524 . S
C2170 C2171 1.397 1_455 S
C2170 C2175 1.363 . S
C2171 H2142 0.950 . S
C2171 C2170 1.397 1_655 S
C2171 C2172 1.334 . S
C2172 H2143 0.950 . S
C2172 C2171 1.334 . S
C2172 C2173 1.281 1_655 S
C2173 C2172 1.281 1_455 S
C2173 C2174 1.530 . S
C2173 H2176 0.999 . S
C2174 H2144 0.950 . S
C2174 C2173 1.530 . S
C2174 C2175 1.415 . S
C2175 H2145 0.950 . S
C2175 C2170 1.363 . S
C2175 C2174 1.415 . S
H2176 C2173 0.999 . S
H2177 C2158 0.913 1_455 S
H2178 C2196 0.951 . S
H2179 C2198 0.951 . S
H2180 C2200 0.950 . S
H2181 C2201 0.950 . S
H2182 C2203 0.950 . S
H2183 C2206 0.950 . S
H2184 C2207 0.950 . S
H2185 C2209 0.950 . S
H2186 C2210 0.950 . S
H2187 C2211 0.951 . S
H2188 C2213 0.951 . S
H2189 C2215 0.950 . S
H2190 C2216 0.950 . S
H2191 C2218 0.950 . S
H2192 C2221 0.950 . S
H2193 C2222 0.950 . S
H2194 C2224 0.950 . S
H2195 C2225 0.950 . S
C2196 H2178 0.951 . S
C2196 C2197 1.366 . S
C2196 C2198 1.388 . S
C2197 C2196 1.366 . S
C2197 C2201 1.385 . S
C2198 H2179 0.951 . S
C2198 C2196 1.388 . S
C2198 C2199 1.366 . S
C2199 C2198 1.366 . S
C2199 C2200 1.414 . S
C2199 C2202 1.499 . S
C2200 H2180 0.950 . S
C2200 C2199 1.414 . S
C2200 C2201 1.374 . S
C2201 H2181 0.950 . S
C2201 C2197 1.385 . S
C2201 C2200 1.374 . S
C2202 C2199 1.499 . S
C2202 C2203 1.373 . S
C2202 C2204 1.389 . S
C2203 H2182 0.950 . S
C2203 C2202 1.373 . S
C2203 C2219 1.377 . S
C2204 C2202 1.389 . S
C2204 C2205 1.524 . S
C2204 C2218 1.377 . S
C2205 C2204 1.524 . S
C2205 C2206 1.397 . S
C2205 C2210 1.363 . S
C2206 H2183 0.950 . S
C2206 C2205 1.397 . S
C2206 C2207 1.334 . S
C2207 H2184 0.950 . S
C2207 C2206 1.334 . S
C2207 C2208 1.287 . S
C2208 C2207 1.287 . S
C2208 C2209 1.524 . S
C2208 H2227 0.913 . S
C2209 H2185 0.950 . S
C2209 C2208 1.524 . S
C2209 C2210 1.415 . S
C2210 H2186 0.950 . S
C2210 C2205 1.363 . S
C2210 C2209 1.415 . S
C2211 H2187 0.951 . S
C2211 C2212 1.366 . S
C2211 C2213 1.388 . S
C2212 C2211 1.366 . S
C2212 C2216 1.385 . S
C2213 H2188 0.951 . S
C2213 C2211 1.388 . S
C2213 C2214 1.366 . S
C2214 C2213 1.366 . S
C2214 C2215 1.414 . S
C2214 C2217 1.499 . S
C2215 H2189 0.950 . S
C2215 C2214 1.414 . S
C2215 C2216 1.374 . S
C2216 H2190 0.950 . S
C2216 C2212 1.385 . S
C2216 C2215 1.374 . S
C2217 C2214 1.499 . S
C2217 C2218 1.373 . S
C2217 C2219 1.389 . S
C2218 H2191 0.950 . S
C2218 C2204 1.377 . S
C2218 C2217 1.373 . S
C2219 C2203 1.377 . S
C2219 C2217 1.389 . S
C2219 C2220 1.524 . S
C2220 C2219 1.524 . S
C2220 C2221 1.397 . S
C2220 C2225 1.363 . S
C2221 H2192 0.950 . S
C2221 C2220 1.397 . S
C2221 C2222 1.334 . S
C2222 H2193 0.950 . S
C2222 C2221 1.334 . S
C2222 C2223 1.287 . S
C2223 C2222 1.287 . S
C2223 C2224 1.524 . S
C2223 H2226 0.999 . S
C2224 H2194 0.950 . S
C2224 C2223 1.524 . S
C2224 C2225 1.415 . S
C2225 H2195 0.950 . S
C2225 C2220 1.363 . S
C2225 C2224 1.415 . S
H2226 C2223 0.999 . S
H2227 C2208 0.913 . S
H2228 C2246 0.951 . S
H2229 C2248 0.951 . S
H2230 C2250 0.950 . S
H2231 C2251 0.950 . S
H2232 C2253 0.950 . S
H2233 C2256 0.950 . S
H2234 C2257 0.950 . S
H2235 C2259 0.950 . S
H2236 C2260 0.950 . S
H2237 C2261 0.951 . S
H2238 C2263 0.951 . S
H2239 C2265 0.950 . S
H2240 C2266 0.950 . S
H2241 C2268 0.950 . S
H2242 C2271 0.950 . S
H2243 C2272 0.950 . S
H2244 C2274 0.950 . S
H2245 C2275 0.950 . S
C2246 H2228 0.951 . S
C2246 C2247 1.366 . S
C2246 C2248 1.388 . S
C2247 C2246 1.366 . S
C2247 C2251 1.385 . S
C2248 H2229 0.951 . S
C2248 C2246 1.388 . S
C2248 C2249 1.366 . S
C2249 C2248 1.366 . S
C2249 C2250 1.414 . S
C2249 C2252 1.499 . S
C2250 H2230 0.950 . S
C2250 C2249 1.414 . S
C2250 C2251 1.374 . S
C2251 H2231 0.950 . S
C2251 C2247 1.385 . S
C2251 C2250 1.374 . S
C2252 C2249 1.499 . S
C2252 C2253 1.373 1_554 S
C2252 C2254 1.389 . S
C2253 H2232 0.950 . S
C2253 C2252 1.373 1_556 S
C2253 C2269 1.377 . S
C2254 C2252 1.389 . S
C2254 C2255 1.524 . S
C2254 C2268 1.377 . S
C2255 C2254 1.524 . S
C2255 C2256 1.397 . S
C2255 C2260 1.363 . S
C2256 H2233 0.950 . S
C2256 C2255 1.397 . S
C2256 C2257 1.334 . S
C2257 H2234 0.950 . S
C2257 C2256 1.334 . S
C2257 C2258 1.287 . S
C2258 C2257 1.287 . S
C2258 C2259 1.524 . S
C2258 H2277 0.913 . S
C2259 H2235 0.950 . S
C2259 C2258 1.524 . S
C2259 C2260 1.415 . S
C2260 H2236 0.950 . S
C2260 C2255 1.363 . S
C2260 C2259 1.415 . S
C2261 H2237 0.951 . S
C2261 C2262 1.366 . S
C2261 C2263 1.388 . S
C2262 C2261 1.366 . S
C2262 C2266 1.385 . S
C2263 H2238 0.951 . S
C2263 C2261 1.388 . S
C2263 C2264 1.366 . S
C2264 C2263 1.366 . S
C2264 C2265 1.414 . S
C2264 C2267 1.499 . S
C2265 H2239 0.950 . S
C2265 C2264 1.414 . S
C2265 C2266 1.374 . S
C2266 H2240 0.950 . S
C2266 C2262 1.385 . S
C2266 C2265 1.374 . S
C2267 C2264 1.499 . S
C2267 C2268 1.373 1_556 S
C2267 C2269 1.389 . S
C2268 H2241 0.950 . S
C2268 C2254 1.377 . S
C2268 C2267 1.373 1_554 S
C2269 C2253 1.377 . S
C2269 C2267 1.389 . S
C2269 C2270 1.524 . S
C2270 C2269 1.524 . S
C2270 C2271 1.397 . S
C2270 C2275 1.363 . S
C2271 H2242 0.950 . S
C2271 C2270 1.397 . S
C2271 C2272 1.334 . S
C2272 H2243 0.950 . S
C2272 C2271 1.334 . S
C2272 C2273 1.287 . S
C2273 C2272 1.287 . S
C2273 C2274 1.524 . S
C2273 H2276 0.999 . S
C2274 H2244 0.950 . S
C2274 C2273 1.524 . S
C2274 C2275 1.415 . S
C2275 H2245 0.950 . S
C2275 C2270 1.363 . S
C2275 C2274 1.415 . S
H2276 C2273 0.999 . S
H2277 C2258 0.913 . S
H2278 C2296 0.951 . S
H2279 C2298 0.951 . S
H2280 C2300 0.950 . S
H2281 C2301 0.950 . S
H2282 C2303 0.950 . S
H2283 C2306 0.950 . S
H2284 C2307 0.950 . S
H2285 C2309 0.950 . S
H2286 C2310 0.950 . S
H2287 C2311 0.951 . S
H2288 C2313 0.951 . S
H2289 C2315 0.950 . S
H2290 C2316 0.950 . S
H2291 C2318 0.950 . S
H2292 C2321 0.950 . S
H2293 C2322 0.950 . S
H2294 C2324 0.950 . S
H2295 C2325 0.950 . S
C2296 H2278 0.951 . S
C2296 C2297 1.366 . S
C2296 C2298 1.388 . S
C2297 C2296 1.366 . S
C2297 C2301 1.385 . S
C2298 H2279 0.951 . S
C2298 C2296 1.388 . S
C2298 C2299 1.366 . S
C2299 C2298 1.366 . S
C2299 C2300 1.414 . S
C2299 C2302 1.499 . S
C2300 H2280 0.950 . S
C2300 C2299 1.414 . S
C2300 C2301 1.374 . S
C2301 H2281 0.950 . S
C2301 C2297 1.385 . S
C2301 C2300 1.374 . S
C2302 C2299 1.499 . S
C2302 C2303 1.373 . S
C2302 C2304 1.389 . S
C2303 H2282 0.950 . S
C2303 C2302 1.373 . S
C2303 C2319 1.377 . S
C2304 C2302 1.389 . S
C2304 C2305 1.524 . S
C2304 C2318 1.377 . S
C2305 C2304 1.524 . S
C2305 C2306 1.397 . S
C2305 C2310 1.363 . S
C2306 H2283 0.950 . S
C2306 C2305 1.397 . S
C2306 C2307 1.334 . S
C2307 H2284 0.950 . S
C2307 C2306 1.334 . S
C2307 C2308 1.287 . S
C2308 C2307 1.287 . S
C2308 C2309 1.524 . S
C2308 H2327 0.913 . S
C2309 H2285 0.950 . S
C2309 C2308 1.524 . S
C2309 C2310 1.415 . S
C2310 H2286 0.950 . S
C2310 C2305 1.363 . S
C2310 C2309 1.415 . S
C2311 H2287 0.951 . S
C2311 C2312 1.366 . S
C2311 C2313 1.388 . S
C2312 C2311 1.366 . S
C2312 C2316 1.385 . S
C2313 H2288 0.951 . S
C2313 C2311 1.388 . S
C2313 C2314 1.366 . S
C2314 C2313 1.366 . S
C2314 C2315 1.414 . S
C2314 C2317 1.499 . S
C2315 H2289 0.950 . S
C2315 C2314 1.414 . S
C2315 C2316 1.374 . S
C2316 H2290 0.950 . S
C2316 C2312 1.385 . S
C2316 C2315 1.374 . S
C2317 C2314 1.499 . S
C2317 C2318 1.373 . S
C2317 C2319 1.389 . S
C2318 H2291 0.950 . S
C2318 C2304 1.377 . S
C2318 C2317 1.373 . S
C2319 C2303 1.377 . S
C2319 C2317 1.389 . S
C2319 C2320 1.524 . S
C2320 C2319 1.524 . S
C2320 C2321 1.397 . S
C2320 C2325 1.363 . S
C2321 H2292 0.950 . S
C2321 C2320 1.397 . S
C2321 C2322 1.334 . S
C2322 H2293 0.950 . S
C2322 C2321 1.334 . S
C2322 C2323 1.287 . S
C2323 C2322 1.287 . S
C2323 C2324 1.524 . S
C2323 H2326 0.999 . S
C2324 H2294 0.950 . S
C2324 C2323 1.524 . S
C2324 C2325 1.415 . S
C2325 H2295 0.950 . S
C2325 C2320 1.363 . S
C2325 C2324 1.415 . S
H2326 C2323 0.999 . S
H2327 C2308 0.913 . S
H2328 C2346 0.951 . S
H2329 C2348 0.951 . S
H2330 C2350 0.950 . S
H2331 C2351 0.950 . S
H2332 C2353 0.950 . S
H2333 C2356 0.950 . S
H2334 C2357 0.950 . S
H2335 C2359 0.950 . S
H2336 C2360 0.950 . S
H2337 C2361 0.951 . S
H2338 C2363 0.951 . S
H2339 C2365 0.950 . S
H2340 C2366 0.950 . S
H2341 C2368 0.950 . S
H2342 C2371 0.950 . S
H2343 C2372 0.950 . S
H2344 C2374 0.950 . S
H2345 C2375 0.950 . S
C2346 H2328 0.951 . S
C2346 C2347 1.366 . S
C2346 C2348 1.388 . S
C2347 C2346 1.366 . S
C2347 C2351 1.385 . S
C2348 H2329 0.951 . S
C2348 C2346 1.388 . S
C2348 C2349 1.366 . S
C2349 C2348 1.366 . S
C2349 C2350 1.414 . S
C2349 C2352 1.499 . S
C2350 H2330 0.950 . S
C2350 C2349 1.414 . S
C2350 C2351 1.374 . S
C2351 H2331 0.950 . S
C2351 C2347 1.385 . S
C2351 C2350 1.374 . S
C2352 C2349 1.499 . S
C2352 C2353 1.373 1_565 S
C2352 C2354 1.389 1_554 S
C2353 H2332 0.950 . S
C2353 C2352 1.373 1_545 S
C2353 C2369 1.377 . S
C2354 C2352 1.389 1_556 S
C2354 C2355 1.524 . S
C2354 C2368 1.377 . S
C2355 C2354 1.524 . S
C2355 C2356 1.397 1_556 S
C2355 C2360 1.363 . S
C2356 H2333 0.950 . S
C2356 C2355 1.397 1_554 S
C2356 C2357 1.334 . S
C2357 H2334 0.950 . S
C2357 C2356 1.334 . S
C2357 C2358 1.287 1_554 S
C2358 C2357 1.287 1_556 S
C2358 C2359 1.524 . S
C2358 H2377 0.913 . S
C2359 H2335 0.950 . S
C2359 C2358 1.524 . S
C2359 C2360 1.415 . S
C2360 H2336 0.950 . S
C2360 C2355 1.363 . S
C2360 C2359 1.415 . S
C2361 H2337 0.951 . S
C2361 C2362 1.366 . S
C2361 C2363 1.388 . S
C2362 C2361 1.366 . S
C2362 C2366 1.385 . S
C2363 H2338 0.951 . S
C2363 C2361 1.388 . S
C2363 C2364 1.366 . S
C2364 C2363 1.366 . S
C2364 C2365 1.414 . S
C2364 C2367 1.499 . S
C2365 H2339 0.950 . S
C2365 C2364 1.414 . S
C2365 C2366 1.374 . S
C2366 H2340 0.950 . S
C2366 C2362 1.385 . S
C2366 C2365 1.374 . S
C2367 C2364 1.499 . S
C2367 C2368 1.373 1_545 S
C2367 C2369 1.389 1_556 S
C2368 H2341 0.950 . S
C2368 C2354 1.377 . S
C2368 C2367 1.373 1_565 S
C2369 C2353 1.377 . S
C2369 C2367 1.389 1_554 S
C2369 C2370 1.524 . S
C2370 C2369 1.524 . S
C2370 C2371 1.397 1_554 S
C2370 C2375 1.363 . S
C2371 H2342 0.950 . S
C2371 C2370 1.397 1_556 S
C2371 C2372 1.334 . S
C2372 H2343 0.950 . S
C2372 C2371 1.334 . S
C2372 C2373 1.287 1_556 S
C2373 C2372 1.287 1_554 S
C2373 C2374 1.524 . S
C2373 H2376 0.999 . S
C2374 H2344 0.950 . S
C2374 C2373 1.524 . S
C2374 C2375 1.415 . S
C2375 H2345 0.950 . S
C2375 C2370 1.363 . S
C2375 C2374 1.415 . S
H2376 C2373 0.999 . S
H2377 C2358 0.913 . S
H2378 C2396 0.951 . S
H2379 C2398 0.951 . S
H2380 C2400 0.950 . S
H2381 C2401 0.950 . S
H2382 C2403 0.950 . S
H2383 C2406 0.950 . S
H2384 C2407 0.950 . S
H2385 C2409 0.950 . S
H2386 C2410 0.950 . S
H2387 C2411 0.951 . S
H2388 C2413 0.951 . S
H2389 C2415 0.950 . S
H2390 C2416 0.950 . S
H2391 C2418 0.950 . S
H2392 C2421 0.950 . S
H2393 C2422 0.950 . S
H2394 C2424 0.950 . S
H2395 C2425 0.950 . S
C2396 H2378 0.951 . S
C2396 C2397 1.366 . S
C2396 C2398 1.388 . S
C2397 C2396 1.366 . S
C2397 C2401 1.385 . S
C2398 H2379 0.951 . S
C2398 C2396 1.388 . S
C2398 C2399 1.366 . S
C2399 C2398 1.366 . S
C2399 C2400 1.414 . S
C2399 C2402 1.499 . S
C2400 H2380 0.950 . S
C2400 C2399 1.414 . S
C2400 C2401 1.374 . S
C2401 H2381 0.950 . S
C2401 C2397 1.385 . S
C2401 C2400 1.374 . S
C2402 C2399 1.499 . S
C2402 C2403 1.373 . S
C2402 C2404 1.389 . S
C2403 H2382 0.950 . S
C2403 C2402 1.373 . S
C2403 C2419 1.377 . S
C2404 C2402 1.389 . S
C2404 C2405 1.524 . S
C2404 C2418 1.377 . S
C2405 C2404 1.524 . S
C2405 C2406 1.397 . S
C2405 C2410 1.363 . S
C2406 H2383 0.950 . S
C2406 C2405 1.397 . S
C2406 C2407 1.334 . S
C2407 H2384 0.950 . S
C2407 C2406 1.334 . S
C2407 C2408 1.287 . S
C2408 C2407 1.287 . S
C2408 C2409 1.524 . S
C2408 H2427 0.913 . S
C2409 H2385 0.950 . S
C2409 C2408 1.524 . S
C2409 C2410 1.415 . S
C2410 H2386 0.950 . S
C2410 C2405 1.363 . S
C2410 C2409 1.415 . S
C2411 H2387 0.951 . S
C2411 C2412 1.366 . S
C2411 C2413 1.388 . S
C2412 C2411 1.366 . S
C2412 C2416 1.385 . S
C2413 H2388 0.951 . S
C2413 C2411 1.388 . S
C2413 C2414 1.366 . S
C2414 C2413 1.366 . S
C2414 C2415 1.414 . S
C2414 C2417 1.499 . S
C2415 H2389 0.950 . S
C2415 C2414 1.414 . S
C2415 C2416 1.374 . S
C2416 H2390 0.950 . S
C2416 C2412 1.385 . S
C2416 C2415 1.374 . S
C2417 C2414 1.499 . S
C2417 C2418 1.373 . S
C2417 C2419 1.389 . S
C2418 H2391 0.950 . S
C2418 C2404 1.377 . S
C2418 C2417 1.373 . S
C2419 C2403 1.377 . S
C2419 C2417 1.389 . S
C2419 C2420 1.524 . S
C2420 C2419 1.524 . S
C2420 C2421 1.397 . S
C2420 C2425 1.363 . S
C2421 H2392 0.950 . S
C2421 C2420 1.397 . S
C2421 C2422 1.334 . S
C2422 H2393 0.950 . S
C2422 C2421 1.334 . S
C2422 C2423 1.287 . S
C2423 C2422 1.287 . S
C2423 C2424 1.524 . S
C2423 H2426 0.999 . S
C2424 H2394 0.950 . S
C2424 C2423 1.524 . S
C2424 C2425 1.415 . S
C2425 H2395 0.950 . S
C2425 C2420 1.363 . S
C2425 C2424 1.415 . S
H2426 C2423 0.999 . S
H2427 C2408 0.913 . S
H2428 C2446 0.951 . S
H2429 C2448 0.951 . S
H2430 C2450 0.950 . S
H2431 C2451 0.950 . S
H2432 C2453 0.950 . S
H2433 C2456 0.950 . S
H2434 C2457 0.950 . S
H2435 C2459 0.950 . S
H2436 C2460 0.950 . S
H2437 C2461 0.951 . S
H2438 C2463 0.951 . S
H2439 C2465 0.950 . S
H2440 C2466 0.950 . S
H2441 C2468 0.950 . S
H2442 C2471 0.950 . S
H2443 C2472 0.950 . S
H2444 C2474 0.950 . S
H2445 C2475 0.950 . S
C2446 H2428 0.951 . S
C2446 C2447 1.366 . S
C2446 C2448 1.388 . S
C2447 C2446 1.366 . S
C2447 C2451 1.385 . S
C2448 H2429 0.951 . S
C2448 C2446 1.388 . S
C2448 C2449 1.366 . S
C2449 C2448 1.366 . S
C2449 C2450 1.414 . S
C2449 C2452 1.499 . S
C2450 H2430 0.950 . S
C2450 C2449 1.414 . S
C2450 C2451 1.374 . S
C2451 H2431 0.950 . S
C2451 C2447 1.385 . S
C2451 C2450 1.374 . S
C2452 C2449 1.499 . S
C2452 C2453 1.373 . S
C2452 C2454 1.389 . S
C2453 H2432 0.950 . S
C2453 C2452 1.373 . S
C2453 C2469 1.377 . S
C2454 C2452 1.389 . S
C2454 C2455 1.524 . S
C2454 C2468 1.377 . S
C2455 C2454 1.524 . S
C2455 C2456 1.397 . S
C2455 C2460 1.363 . S
C2456 H2433 0.950 . S
C2456 C2455 1.397 . S
C2456 C2457 1.334 . S
C2457 H2434 0.950 . S
C2457 C2456 1.334 . S
C2457 C2458 1.287 . S
C2458 C2457 1.287 . S
C2458 C2459 1.524 . S
C2458 H2477 0.913 . S
C2459 H2435 0.950 . S
C2459 C2458 1.524 . S
C2459 C2460 1.415 . S
C2460 H2436 0.950 . S
C2460 C2455 1.363 . S
C2460 C2459 1.415 . S
C2461 H2437 0.951 . S
C2461 C2462 1.366 . S
C2461 C2463 1.388 . S
C2462 C2461 1.366 . S
C2462 C2466 1.385 . S
C2463 H2438 0.951 . S
C2463 C2461 1.388 . S
C2463 C2464 1.366 . S
C2464 C2463 1.366 . S
C2464 C2465 1.414 . S
C2464 C2467 1.499 . S
C2465 H2439 0.950 . S
C2465 C2464 1.414 . S
C2465 C2466 1.374 . S
C2466 H2440 0.950 . S
C2466 C2462 1.385 . S
C2466 C2465 1.374 . S
C2467 C2464 1.499 . S
C2467 C2468 1.373 . S
C2467 C2469 1.389 . S
C2468 H2441 0.950 . S
C2468 C2454 1.377 . S
C2468 C2467 1.373 . S
C2469 C2453 1.377 . S
C2469 C2467 1.389 . S
C2469 C2470 1.524 . S
C2470 C2469 1.524 . S
C2470 C2471 1.397 . S
C2470 C2475 1.363 . S
C2471 H2442 0.950 . S
C2471 C2470 1.397 . S
C2471 C2472 1.334 . S
C2472 H2443 0.950 . S
C2472 C2471 1.334 . S
C2472 C2473 1.287 . S
C2473 C2472 1.287 . S
C2473 C2474 1.524 . S
C2473 H2476 0.999 . S
C2474 H2444 0.950 . S
C2474 C2473 1.524 . S
C2474 C2475 1.415 . S
C2475 H2445 0.950 . S
C2475 C2470 1.363 . S
C2475 C2474 1.415 . S
H2476 C2473 0.999 . S
H2477 C2458 0.913 . S
H2478 C2496 0.951 . S
H2479 C2498 0.951 . S
H2480 C2500 0.950 . S
H2481 C2501 0.950 . S
H2482 C2503 0.950 . S
H2483 C2506 0.950 . S
H2484 C2507 0.950 . S
H2485 C2509 0.950 . S
H2486 C2510 0.950 . S
H2487 C2511 0.951 . S
H2488 C2513 0.951 . S
H2489 C2515 0.950 . S
H2490 C2516 0.950 . S
H2491 C2518 0.950 . S
H2492 C2521 0.950 . S
H2493 C2522 0.950 . S
H2494 C2524 0.950 . S
H2495 C2525 0.950 . S
C2496 H2478 0.951 . S
C2496 C2497 1.366 . S
C2496 C2498 1.388 . S
C2497 C2496 1.366 . S
C2497 C2501 1.385 . S
C2498 H2479 0.951 . S
C2498 C2496 1.388 . S
C2498 C2499 1.366 . S
C2499 C2498 1.366 . S
C2499 C2500 1.414 . S
C2499 C2502 1.499 . S
C2500 H2480 0.950 . S
C2500 C2499 1.414 . S
C2500 C2501 1.374 . S
C2501 H2481 0.950 . S
C2501 C2497 1.385 . S
C2501 C2500 1.374 . S
C2502 C2499 1.499 . S
C2502 C2503 1.373 . S
C2502 C2504 1.389 . S
C2503 H2482 0.950 . S
C2503 C2502 1.373 . S
C2503 C2519 1.377 . S
C2504 C2502 1.389 . S
C2504 C2505 1.524 . S
C2504 C2518 1.377 . S
C2505 C2504 1.524 . S
C2505 C2506 1.397 . S
C2505 C2510 1.363 . S
C2506 H2483 0.950 . S
C2506 C2505 1.397 . S
C2506 C2507 1.334 . S
C2507 H2484 0.950 . S
C2507 C2506 1.334 . S
C2507 C2508 1.287 . S
C2508 C2507 1.287 . S
C2508 C2509 1.524 . S
C2508 H2527 0.913 . S
C2509 H2485 0.950 . S
C2509 C2508 1.524 . S
C2509 C2510 1.415 . S
C2510 H2486 0.950 . S
C2510 C2505 1.363 . S
C2510 C2509 1.415 . S
C2511 H2487 0.951 . S
C2511 C2512 1.366 . S
C2511 C2513 1.388 . S
C2512 C2511 1.366 . S
C2512 C2516 1.385 . S
C2513 H2488 0.951 . S
C2513 C2511 1.388 . S
C2513 C2514 1.366 . S
C2514 C2513 1.366 . S
C2514 C2515 1.414 . S
C2514 C2517 1.499 . S
C2515 H2489 0.950 . S
C2515 C2514 1.414 . S
C2515 C2516 1.374 . S
C2516 H2490 0.950 . S
C2516 C2512 1.385 . S
C2516 C2515 1.374 . S
C2517 C2514 1.499 . S
C2517 C2518 1.373 . S
C2517 C2519 1.389 . S
C2518 H2491 0.950 . S
C2518 C2504 1.377 . S
C2518 C2517 1.373 . S
C2519 C2503 1.377 . S
C2519 C2517 1.389 . S
C2519 C2520 1.524 . S
C2520 C2519 1.524 . S
C2520 C2521 1.397 . S
C2520 C2525 1.363 . S
C2521 H2492 0.950 . S
C2521 C2520 1.397 . S
C2521 C2522 1.334 . S
C2522 H2493 0.950 . S
C2522 C2521 1.334 . S
C2522 C2523 1.287 . S
C2523 C2522 1.287 . S
C2523 C2524 1.524 . S
C2523 H2526 0.999 . S
C2524 H2494 0.950 . S
C2524 C2523 1.524 . S
C2524 C2525 1.415 . S
C2525 H2495 0.950 . S
C2525 C2520 1.363 . S
C2525 C2524 1.415 . S
H2526 C2523 0.999 . S
H2527 C2508 0.913 . S
C547 N5 0.543 . S
C562 N302 0.544 . S
C597 N14 0.659 . S
C612 N311 0.658 . S
C647 N278 0.658 . S
C662 N47 0.659 . S
C697 N38 0.543 . S
C712 N269 0.544 . S
C747 N71 0.543 . S
C762 N368 0.544 . S
C797 N80 0.658 . S
C812 N377 0.659 . S
C847 N113 0.659 . S
C862 N344 0.658 . S
C897 N104 0.544 . S
C912 N335 0.543 . S
C947 N137 0.543 . S
C962 N434 0.544 . S
C997 N443 0.658 . S
C1012 N146 0.659 . S
C1047 N410 0.659 . S
C1062 N179 0.659 . S
C1097 N401 0.543 . S
C1112 N170 0.543 . S
C1147 N500 0.543 . S
C1162 N203 0.544 . S
C1197 N509 0.659 . S
C1212 N212 0.658 . S
C1247 N476 0.658 . S
C1262 N245 0.659 . S
C1297 N236 0.543 . S
C1312 N467 0.543 . S
C1347 C17 1.141 . S
C1362 C50 1.146 . S
C1397 C116 1.146 . S
C1412 C83 1.141 . S
C1447 C182 1.141 . S
C1462 C149 1.141 . S
C1497 C248 1.140 . S
C1512 C215 1.140 . S
C1547 C314 1.141 . S
C1562 C281 1.141 . S
C1597 C347 1.141 . S
C1612 C380 1.141 . S
C1647 C446 1.146 . S
C1662 C413 1.141 . S
C1697 C479 1.141 . S
C1712 C512 1.146 . S
C1747 C490 1.794 . S
C1762 C28 1.794 . S
C1797 C74 1.815 . S
C1812 C8 1.815 . S
C1847 C371 1.815 . S
C1862 C41 1.815 . S
C1897 C259 1.794 . S
C1912 C61 1.794 . S
C1947 C94 1.794 . S
C1962 C424 1.794 . S
C1997 C305 1.815 . S
C2012 C107 1.815 . S
C2047 C127 1.794 . S
C2062 C193 1.794 . S
C2097 C358 1.793 . S
C2112 C160 1.793 . S
C2147 C140 1.815 . S
C2162 C206 1.815 . S
C2197 C173 1.815 . S
C2212 C503 1.815 . S
C2247 C226 1.793 . S
C2262 C292 1.793 . S
C2297 C239 1.815 . S
C2312 C437 1.815 . S
C2347 C338 1.815 . S
C2362 C272 1.815 . S
C2397 C523 1.794 . S
C2412 C325 1.794 . S
C2447 C391 1.794 . S
C2462 C457 1.794 . S
C2497 C404 1.815 . S
C2512 C470 1.815 . S
