# Generated by pormake.
# Topology kag, (6)-cn, num edge types: 1
# Building blocks:
#     Node 0, Type 0, BuildingBlock: VOLQOD_clean_sbu_1, # of connection points: 6
#     Node 1, Type 0, BuildingBlock: VOLQOD_clean_sbu_1, # of connection points: 6
#     Node 2, Type 0, BuildingBlock: VOLQOD_clean_sbu_1, # of connection points: 6
#     Edge 3, Type (0, 0), BuildingBlock: MIFKUJ_clean_linker_0, # of connection points: 2
#     Edge 4, Type (0, 0), BuildingBlock: MIFKUJ_clean_linker_0, # of connection points: 2
#     Edge 5, Type (0, 0), BuildingBlock: MIFKUJ_clean_linker_0, # of connection points: 2
#     Edge 6, Type (0, 0), BuildingBlock: MIFKUJ_clean_linker_0, # of connection points: 2
#     Edge 7, Type (0, 0), BuildingBlock: MIFKUJ_clean_linker_0, # of connection points: 2
#     Edge 8, Type (0, 0), BuildingBlock: MIFKUJ_clean_linker_0, # of connection points: 2
#     Edge 9, Type (0, 0), BuildingBlock: MIFKUJ_clean_linker_0, # of connection points: 2
#     Edge 10, Type (0, 0), BuildingBlock: MIFKUJ_clean_linker_0, # of connection points: 2
#     Edge 11, Type (0, 0), BuildingBlock: MIFKUJ_clean_linker_0, # of connection points: 2
# Relax obj value: 0.314
# Max RMSD: 0.246
# Mean RMSD: 0.245
data_MOF--net-kag--node1-VOLQOD_clean_sbu_1--edge1-MIFKUJ_clean_linker_0
_symmetry_space_group_name_H-M    P1
_symmetry_Int_Tables_number       1
_symmetry_cell_setting            triclinic
loop_
_symmetry_equiv_pos_as_xyz
'x, y, z'
_cell_length_a     39.872696
_cell_length_b     39.698915
_cell_length_c     21.646507
_cell_angle_alpha  90.798502
_cell_angle_beta   89.962206
_cell_angle_gamma 120.00003
loop_
_atom_site_label
_atom_site_type_symbol
_atom_site_fract_x
_atom_site_fract_y
_atom_site_fract_z
_atom_type_partial_charge
O0 O 0.01687 0.50017 0.87741 0.0
Zn1 Zn 0.01187 0.48403 0.9651 0.0
O2 O 0.00217 0.51742 0.01886 0.0
Zn3 Zn 0.04743 0.54827 0.07097 0.0
Zn4 Zn -0.008 0.55128 0.96856 0.0
Zn5 Zn 0.95745 0.4856 0.0698 0.0
O6 O 0.03186 0.54373 0.15959 0.0
O7 O 0.9727 0.49198 0.15882 0.0
O8 O 0.0585 0.48176 0.99236 0.0
O9 O 0.08368 0.52673 0.06688 0.0
O10 O 0.07517 0.60502 0.04761 0.0
O11 O 0.03422 0.60612 0.97935 0.0
O12 O 0.94256 0.54936 0.99276 0.0
O13 O 0.96763 0.42976 0.96642 0.0
O14 O 0.9185 0.50342 0.06362 0.0
O15 O 0.93137 0.42898 0.04489 0.0
C16 C 0.00514 0.5203 0.84921 0.0
C17 C 0.00221 0.51813 0.18788 0.0
C18 C 0.06541 0.62347 0.01079 0.0
C19 C 0.08399 0.50002 0.03401 0.0
C20 C 0.91654 0.52911 0.03179 0.0
C21 C 0.9385 0.41168 0.00126 0.0
O22 O -0.00818 0.53915 0.87824 0.0
O23 O 0.5267 -0.00554 0.97699 0.0
Zn24 Zn 0.53463 -0.00452 0.8848 0.0
O25 O 0.50133 0.00956 0.83986 0.0
Zn26 Zn 0.46323 0.96488 0.79175 0.0
Zn27 Zn 0.47481 0.02433 0.89941 0.0
Zn28 Zn 0.53251 0.05332 0.7858 0.0
O29 O 0.47221 0.97535 0.70115 0.0
O30 O 0.51976 0.03689 0.69656 0.0
O31 O 0.52354 0.9425 0.86088 0.0
O32 O 0.46749 0.9174 0.81018 0.0
O33 O 0.40868 0.95148 0.81271 0.0
O34 O 0.41758 0.99149 0.89168 0.0
O35 O 0.49028 0.07957 0.89072 0.0
O36 O 0.59023 0.0334 0.87074 0.0
O37 O 0.52555 0.09963 0.80543 0.0
O38 O 0.58936 0.07293 0.80009 0.0
C39 C 0.50738 0.00532 0.01012 0.0
C40 C 0.49542 0.00497 0.67013 0.0
C41 C 0.39537 0.96405 0.855 0.0
C42 C 0.49443 0.91381 0.83515 0.0
C43 C 0.50949 0.10582 0.85169 0.0
C44 C 0.60783 0.0626 0.83592 0.0
O45 O 0.48712 0.01818 0.98583 0.0
O46 O 0.50921 0.54255 0.28124 0.0
Zn47 Zn 0.52135 0.55984 0.19304 0.0
O48 O 0.49048 0.51581 0.13793 0.0
Zn49 Zn 0.52318 0.51953 0.07072 0.0
Zn50 Zn 0.46968 0.46682 0.1829 0.0
Zn51 Zn 0.44916 0.51882 0.09745 0.0
O52 O 0.50994 0.53296 0.98921 0.0
O53 O 0.44776 0.51202 0.00357 0.0
O54 O 0.57924 0.581 0.18146 0.0
O55 O 0.57812 0.55638 0.08846 0.0
O56 O 0.51827 0.46808 0.05941 0.0
O57 O 0.48794 0.4322 0.1412 0.0
O58 O 0.41066 0.43771 0.18126 0.0
O59 O 0.50873 0.60226 0.17498 0.0
O60 O 0.39888 0.47893 0.12982 0.0
O61 O 0.45603 0.57105 0.11526 0.0
C62 C 0.49592 0.50957 0.30687 0.0
C63 C 0.47669 0.52345 0.96785 0.0
C64 C 0.50527 0.43683 0.08958 0.0
C65 C 0.5967 0.57778 0.13441 0.0
C66 C 0.38737 0.44798 0.16018 0.0
C67 C 0.4809 0.6014 0.14451 0.0
O68 O 0.48298 0.47813 0.27487 0.0
H69 H 0.00198 0.57312 0.77358 0.0
H70 H 0.00253 0.57304 0.66067 0.0
H71 H 0.01018 0.46832 0.65897 0.0
H72 H 0.01101 0.46898 0.77162 0.0
H73 H 0.05588 0.51504 0.57582 0.0
H74 H 0.92353 0.46615 0.63238 0.0
H75 H 0.86909 0.46655 0.68587 0.0
H76 H 0.89383 0.57144 0.59343 0.0
H77 H 0.94876 0.57195 0.53998 0.0
H78 H 0.94463 0.46802 0.26394 0.0
H79 H 0.94534 0.46784 0.37663 0.0
H80 H 0.05975 0.56902 0.37852 0.0
H81 H 0.05965 0.56922 0.2658 0.0
H82 H 0.95111 0.52057 0.46087 0.0
H83 H 0.11127 0.55992 0.49673 0.0
H84 H 0.16076 0.55112 0.44206 0.0
H85 H 0.0715 0.4497 0.3485 0.0
H86 H 0.02155 0.45743 0.40337 0.0
C87 C 0.00385 0.55015 0.74907 0.0
C88 C 0.00624 0.52095 0.78129 0.0
C89 C 0.00407 0.55008 0.68466 0.0
C90 C 0.00581 0.52034 0.65156 0.0
C91 C 0.00885 0.49155 0.68369 0.0
C92 C 0.00922 0.49192 0.74802 0.0
C93 C 0.00391 0.51881 0.5834 0.0
C94 C 0.03302 0.51632 0.55069 0.0
C95 C 0.97357 0.51958 0.55075 0.0
C96 C 0.94047 0.51928 0.58265 0.0
C97 C 0.91752 0.48945 0.6238 0.0
C98 C 0.88655 0.48949 0.65406 0.0
C99 C 0.87806 0.51905 0.64318 0.0
C100 C 0.90047 0.54859 0.60188 0.0
C101 C 0.9315 0.54871 0.57155 0.0
C102 C 0.96997 0.49027 0.28825 0.0
C103 C 0.00218 0.51853 0.25594 0.0
C104 C 0.97023 0.49017 0.35259 0.0
C105 C 0.0027 0.5182 0.38558 0.0
C106 C 0.03463 0.54685 0.35364 0.0
C107 C 0.03445 0.54696 0.28929 0.0
C108 C 0.00329 0.5173 0.45355 0.0
C109 C 0.974 0.5194 0.48613 0.0
C110 C 0.03275 0.51489 0.48604 0.0
C111 C 0.06267 0.50956 0.45371 0.0
C112 C 0.10222 0.53563 0.46472 0.0
C113 C 0.13036 0.53082 0.43368 0.0
C114 C 0.11929 0.49993 0.39169 0.0
C115 C 0.08006 0.47367 0.38088 0.0
C116 C 0.05182 0.47828 0.41191 0.0
H117 H 0.1411 0.49629 0.3676 0.0
H118 H 0.85408 0.51903 0.66665 0.0
H119 H 0.53362 0.96582 0.07966 0.0
H120 H 0.53005 0.95866 0.19216 0.0
H121 H 0.47882 0.03188 0.20587 0.0
H122 H 0.4814 0.03842 0.09415 0.0
H123 H 0.56115 0.00901 0.28553 0.0
H124 H 0.41265 0.00188 0.31702 0.0
H125 H 0.35148 0.9783 0.2591 0.0
H126 H 0.37222 0.89615 0.15985 0.0
H127 H 0.43321 0.91881 0.21779 0.0
H128 H 0.54003 0.06158 0.58796 0.0
H129 H 0.54115 0.05513 0.47581 0.0
H130 H 0.45203 0.93452 0.48583 0.0
H131 H 0.45019 0.94077 0.59797 0.0
H132 H 0.43748 0.96915 0.39426 0.0
H133 H 0.54474 0.9579 0.4617 0.0
H134 H 0.60491 0.97606 0.5193 0.0
H135 H 0.66408 0.08323 0.42064 0.0
H136 H 0.60409 0.06597 0.36304 0.0
C137 C 0.52167 0.98042 0.10675 0.0
C138 C 0.50747 0.00239 0.07801 0.0
C139 C 0.51965 0.9763 0.17091 0.0
C140 C 0.50348 -0.00587 0.20712 0.0
C141 C 0.4905 0.01707 0.17863 0.0
C142 C 0.49218 0.02091 0.11473 0.0
C143 C 0.50035 0.9893 0.27487 0.0
C144 C 0.5341 9e-05 0.30934 0.0
C145 C 0.46479 0.9767 0.30573 0.0
C146 C 0.42768 0.96228 0.27151 0.0
C147 C 0.40405 0.97862 0.28313 0.0
C148 C 0.36943 0.96545 0.25022 0.0
C149 C 0.35802 0.93582 0.20571 0.0
C150 C 0.38114 0.91919 0.1942 0.0
C151 C 0.41577 0.93221 0.22703 0.0
C152 C 0.52056 0.03369 0.56639 0.0
C153 C 0.49511 0.00165 0.602 0.0
C154 C 0.52141 0.03 0.50231 0.0
C155 C 0.4971 -0.00582 0.47272 0.0
C156 C 0.47113 0.96237 0.50789 0.0
C157 C 0.47017 0.96603 0.57198 0.0
C158 C 0.49854 0.99018 0.40489 0.0
C159 C 0.46446 0.97769 0.37044 0.0
C160 C 0.53358 0.0003 0.37409 0.0
C161 C 0.56982 0.01075 0.40837 0.0
C162 C 0.57051 0.98547 0.45258 0.0
C163 C 0.60459 -0.00442 0.48519 0.0
C164 C 0.63827 0.03081 0.47372 0.0
C165 C 0.63796 0.05596 0.4295 0.0
C166 C 0.60393 0.046 0.3968 0.0
H167 H 0.66463 0.03859 0.49902 0.0
H168 H 0.33124 0.92572 0.1802 0.0
H169 H 0.41603 0.47066 0.89628 0.0
H170 H 0.41363 0.4658 0.78275 0.0
H171 H 0.52468 0.57086 0.7739 0.0
H172 H 0.52766 0.57529 0.88689 0.0
H173 H 0.46467 0.56357 0.6852 0.0
H174 H 0.52736 0.4946 0.76438 0.0
H175 H 0.52938 0.44511 0.82939 0.0
H176 H 0.4291 0.35517 0.73506 0.0
H177 H 0.42594 0.40425 0.67051 0.0
H178 H 0.5373 0.56844 0.38988 0.0
H179 H 0.52929 0.56797 0.5016 0.0
H180 H 0.43958 0.44736 0.49087 0.0
H181 H 0.44857 0.44727 0.37884 0.0
H182 H 0.48072 0.45807 0.58993 0.0
H183 H 0.41898 0.5234 0.50568 0.0
H184 H 0.41225 0.57104 0.44283 0.0
H185 H 0.50395 0.66484 0.54654 0.0
H186 H 0.51165 0.61777 0.60943 0.0
C187 C 0.43947 0.49311 0.86995 0.0
C188 C 0.47199 0.52341 0.90017 0.0
C189 C 0.43819 0.49018 0.80528 0.0
C190 C 0.46908 0.5179 0.77012 0.0
C191 C 0.50057 0.54923 0.80024 0.0
C192 C 0.50225 0.55168 0.86469 0.0
C193 C 0.47008 0.51328 0.70217 0.0
C194 C 0.46839 0.54068 0.6642 0.0
C195 C 0.4738 0.4827 0.67502 0.0
C196 C 0.47611 0.45315 0.71316 0.0
C197 C 0.50549 0.46431 0.75795 0.0
C198 C 0.50687 0.43633 0.79469 0.0
C199 C 0.47929 0.39703 0.78657 0.0
C200 C 0.45036 0.38562 0.74153 0.0
C201 C 0.44875 0.41351 0.70485 0.0
C202 C 0.51606 0.54169 0.41127 0.0
C203 C 0.49338 0.50796 0.37531 0.0
C204 C 0.51129 0.54153 0.47524 0.0
C205 C 0.48305 0.50793 0.50474 0.0
C206 C 0.46137 0.47375 0.46928 0.0
C207 C 0.46656 0.47372 0.4052 0.0
C208 C 0.47601 0.5089 0.57229 0.0
C209 C 0.47656 0.48079 0.61043 0.0
C210 C 0.47064 0.53857 0.59962 0.0
C211 C 0.4661 0.56703 0.56194 0.0
C212 C 0.43791 0.55419 0.5148 0.0
C213 C 0.4339 0.5811 0.47919 0.0
C214 C 0.45772 0.62094 0.49059 0.0
C215 C 0.48555 0.63396 0.53771 0.0
C216 C 0.48973 0.60718 0.57339 0.0
H217 H 0.45456 0.64172 0.46299 0.0
H218 H 0.48046 0.37544 0.81503 0.0
H219 H 0.09998 0.45162 0.96513 0.0
H220 H 0.1418 0.42555 0.99359 0.0
H221 H 0.17232 0.49216 0.16403 0.0
H222 H 0.13061 0.51844 0.13612 0.0
H223 H 0.22063 0.46609 0.01836 0.0
H224 H 0.18141 0.43715 0.27643 0.0
H225 H 0.12542 0.41963 0.34415 0.0
H226 H 0.04773 0.36219 0.19164 0.0
H227 H 0.10319 0.37894 0.1232 0.0
H228 H 0.34803 0.45875 0.2517 0.0
H229 H 0.2824 0.44742 0.23806 0.0
H230 H 0.26817 0.37768 0.07499 0.0
H231 H 0.33421 0.38969 0.08815 0.0
H232 H 0.20461 0.39481 0.21291 0.0
H233 H 0.25063 0.42012 0.95887 0.0
H234 H 0.30987 0.44617 0.89575 0.0
H235 H 0.37697 0.52104 0.04658 0.0
H236 H 0.31818 0.49542 0.11042 0.0
C237 C 0.11574 0.46091 0.00854 0.0
C238 C 0.11201 0.48715 0.04836 0.0
C239 C 0.13948 0.44587 0.02476 0.0
C240 C 0.15948 0.45641 0.08133 0.0
C241 C 0.15648 0.48315 0.12065 0.0
C242 C 0.133 0.49846 0.10428 0.0
C243 C 0.1849 0.44077 0.09814 0.0
C244 C 0.21654 0.4496 0.06004 0.0
C245 C 0.1801 0.42036 0.15356 0.0
C246 C 0.1465 0.40953 0.19462 0.0
C247 C 0.15237 0.42059 0.25743 0.0
C248 C 0.12073 0.41084 0.29592 0.0
C249 C 0.08305 0.38985 0.27219 0.0
C250 C 0.07693 0.37853 0.20993 0.0
C251 C 0.10846 0.3882 0.17124 0.0
C252 C 0.32991 0.43889 0.21539 0.0
C253 C 0.3458 0.42499 0.17095 0.0
C254 C 0.29247 0.43258 0.20741 0.0
C255 C 0.27094 0.41257 0.15464 0.0
C256 C 0.28461 0.39355 0.11565 0.0
C257 C 0.32216 0.40007 0.12348 0.0
C258 C 0.24012 0.41998 0.13287 0.0
C259 C 0.20788 0.41016 0.17027 0.0
C260 C 0.24465 0.4403 0.07737 0.0
C261 C 0.28015 0.45552 0.0395 0.0
C262 C 0.27807 0.44207 0.97849 0.0
C263 C 0.31155 0.45673 0.94266 0.0
C264 C 0.34718 0.4851 0.96726 0.0
C265 C 0.34941 0.49889 0.02773 0.0
C266 C 0.31605 0.48424 0.06378 0.0
H267 H 0.373 0.49658 0.93937 0.0
H268 H 0.05859 0.38231 0.30206 0.0
H269 H 0.658 0.12237 0.76264 0.0
H270 H 0.72328 0.17403 0.79153 0.0
H271 H 0.71698 0.11454 0.95989 0.0
H272 H 0.65241 0.06231 0.93104 0.0
H273 H 0.72268 0.20001 0.95162 0.0
H274 H 0.77921 0.11878 0.90427 0.0
H275 H 0.7922 0.07666 0.83544 0.0
H276 H 0.84629 0.16903 0.70503 0.0
H277 H 0.83304 0.21151 0.77273 0.0
H278 H 0.89016 0.35614 0.08166 0.0
H279 H 0.84146 0.28872 0.05656 0.0
H280 H 0.87552 0.30773 0.86506 0.0
H281 H 0.92552 0.37416 0.89056 0.0
H282 H 0.85682 0.23771 0.89083 0.0
H283 H 0.7975 0.31645 0.92377 0.0
H284 H 0.78314 0.36147 0.98232 0.0
H285 H 0.73151 0.27772 0.12627 0.0
H286 H 0.74597 0.23236 0.06882 0.0
C287 C 0.67102 0.11962 0.80478 0.0
C288 C 0.64987 0.08853 0.8449 0.0
C289 C 0.70827 0.14904 0.82106 0.0
C290 C 0.7246 0.14779 0.87768 0.0
C291 C 0.70477 0.1156 0.91574 0.0
C292 C 0.66786 0.08585 0.89907 0.0
C293 C 0.75873 0.18298 0.90183 0.0
C294 C 0.75216 0.20805 0.93948 0.0
C295 C 0.79668 0.1936 0.88388 0.0
C296 C 0.80469 0.16814 0.84322 0.0
C297 C 0.79344 0.12995 0.86059 0.0
C298 C 0.80097 0.10606 0.82186 0.0
C299 C 0.81994 0.12012 0.76579 0.0
C300 C 0.83153 0.15815 0.74842 0.0
C301 C 0.82405 0.18216 0.78698 0.0
C302 C 0.88748 0.34566 0.03443 0.0
C303 C 0.9112 0.37035 0.98791 0.0
C304 C 0.85967 0.30725 0.02008 0.0
C305 C 0.85425 0.29348 0.95865 0.0
C306 C 0.87912 0.31768 0.91274 0.0
C307 C 0.90756 0.35571 0.92733 0.0
C308 C 0.82099 0.25508 0.94107 0.0
C309 C 0.82751 0.22952 0.90412 0.0
C310 C 0.78268 0.24434 0.95833 0.0
C311 C 0.77326 0.27124 0.99239 0.0
C312 C 0.78329 0.30775 0.96808 0.0
C313 C 0.77517 0.33333 0.00109 0.0
C314 C 0.7567 0.32259 0.05821 0.0
C315 C 0.74604 0.2861 0.08221 0.0
C316 C 0.75413 0.26042 0.0494 0.0
H317 H 0.75036 0.34239 0.08363 0.0
H318 H 0.82575 0.10158 0.73589 0.0
H319 H 0.55082 0.89531 0.84991 0.0
H320 H 0.54314 0.83661 0.89743 0.0
H321 H 0.41896 0.78643 0.89391 0.0
H322 H 0.42649 0.84537 0.84614 0.0
H323 H 0.44751 0.79159 0.01022 0.0
H324 H 0.45793 0.74213 0.81518 0.0
H325 H 0.48434 0.74226 0.71216 0.0
H326 H 0.59158 0.76473 0.79485 0.0
H327 H 0.56603 0.7653 0.89841 0.0
H328 H 0.41785 0.60901 0.1249 0.0
H329 H 0.41771 0.66359 0.07433 0.0
H330 H 0.54251 0.72874 0.0833 0.0
H331 H 0.54285 0.67438 0.13484 0.0
H332 H 0.50897 0.71242 0.96174 0.0
H333 H 0.49774 0.76424 0.15732 0.0
H334 H 0.46951 0.76248 0.25939 0.0
H335 H 0.36102 0.73302 0.17338 0.0
H336 H 0.38844 0.73403 0.07075 0.0
C337 C 0.52183 0.87121 0.85723 0.0
C338 C 0.48927 0.87494 0.84501 0.0
C339 C 0.51747 0.83767 0.88428 0.0
C340 C 0.48049 0.8074 0.89955 0.0
C341 C 0.44772 0.80964 0.88253 0.0
C342 C 0.45206 0.84314 0.85481 0.0
C343 C 0.4769 0.77654 0.9409 0.0
C344 C 0.46018 0.77361 -0.00084 0.0
C345 C 0.49443 0.75405 0.92688 0.0
C346 C 0.51013 0.75407 0.86462 0.0
C347 C 0.48728 0.74747 0.81142 0.0
C348 C 0.50207 0.74733 0.7529 0.0
C349 C 0.53964 0.75358 0.74695 0.0
C350 C 0.56249 0.75992 0.79953 0.0
C351 C 0.54784 0.7601 0.85817 0.0
C352 C 0.44516 0.63558 0.11826 0.0
C353 C 0.48038 0.63752 0.13322 0.0
C354 C 0.44503 0.66664 0.08936 0.0
C355 C 0.48011 0.69981 0.07466 0.0
C356 C 0.5152 0.70318 0.09432 0.0
C357 C 0.51533 0.67231 0.12416 0.0
C358 C 0.4802 0.72804 0.03117 0.0
C359 C 0.49614 0.7303 0.97252 0.0
C360 C 0.46168 0.74963 0.04466 0.0
C361 C 0.44504 0.74878 0.10636 0.0
C362 C 0.46774 0.75696 0.16018 0.0
C363 C 0.45191 0.75621 0.21814 0.0
C364 C 0.41346 0.74753 0.22288 0.0
C365 C 0.39078 0.73968 0.16964 0.0
C366 C 0.40647 0.74037 0.11156 0.0
H367 H 0.40127 0.74699 0.2678 0.0
H368 H 0.55103 0.75342 0.70161 0.0
H369 H 0.85337 0.48927 0.10577 0.0
H370 H 0.80364 0.50605 0.13061 0.0
H371 H 0.85873 0.60498 0.01101 0.0
H372 H 0.90868 0.58862 0.98593 0.0
H373 H 0.8385 0.62276 0.12567 0.0
H374 H 0.78089 0.52512 0.96188 0.0
H375 H 0.75891 0.46076 0.91343 0.0
H376 H 0.6825 0.40545 0.06548 0.0
H377 H 0.70448 0.46949 0.11534 0.0
H378 H 0.64403 0.60475 0.03612 0.0
H379 H 0.70647 0.60791 0.02669 0.0
H380 H 0.70675 0.58823 0.22196 0.0
H381 H 0.6436 0.58462 0.23178 0.0
H382 H 0.70026 0.53197 0.07507 0.0
H383 H 0.81869 0.64178 0.23765 0.0
H384 H 0.84026 0.7062 0.28574 0.0
H385 H 0.79366 0.73739 0.13231 0.0
H386 H 0.77236 0.67343 0.08296 0.0
C387 C 0.85484 0.51449 0.08447 0.0
C388 C 0.88495 0.53755 0.0437 0.0
C389 C 0.82645 0.52405 0.09884 0.0
C390 C 0.82767 0.55676 0.07268 0.0
C391 C 0.85752 0.57975 0.03189 0.0
C392 C 0.88581 0.57013 0.01724 0.0
C393 C 0.79737 0.56668 0.08679 0.0
C394 C 0.80824 0.60292 0.11473 0.0
C395 C 0.75795 0.5406 0.07279 0.0
C396 C 0.74468 0.50209 0.04268 0.0
C397 C 0.75967 0.49922 0.98526 0.0
C398 C 0.74716 0.46279 0.95751 0.0
C399 C 0.71943 0.42902 0.98647 0.0
C400 C 0.70405 0.43162 0.04317 0.0
C401 C 0.71651 0.46798 0.07118 0.0
C402 C 0.65811 0.60271 0.07755 0.0
C403 C 0.6389 0.59396 0.13453 0.0
C404 C 0.6937 0.60446 0.07203 0.0
C405 C 0.71077 0.59791 0.12349 0.0
C406 C 0.69388 0.59352 0.18188 0.0
C407 C 0.658 0.5917 0.18749 0.0
C408 C 0.74145 0.58814 0.11326 0.0
C409 C 0.7305 0.55169 0.08645 0.0
C410 C 0.78063 0.61399 0.12817 0.0
C411 C 0.79343 0.65261 0.15712 0.0
C412 C 0.81309 0.66242 0.2142 0.0
C413 C 0.82529 0.69886 0.24165 0.0
C414 C 0.81817 0.7258 0.21224 0.0
C415 C 0.79895 0.71641 0.15522 0.0
C416 C 0.78671 0.68002 0.12757 0.0
H417 H 0.82765 0.754 0.23355 0.0
H418 H 0.70978 0.40085 0.96491 0.0
H419 H 0.05885 0.66832 0.92276 0.0
H420 H 0.10576 0.73538 0.89776 0.0
H421 H 0.17789 0.74117 0.05047 0.0
H422 H 0.13121 0.6736 0.07583 0.0
H423 H 0.17027 0.81273 0.02571 0.0
H424 H 0.19996 0.71812 0.92755 0.0
H425 H 0.18167 0.65953 0.86339 0.0
H426 H 0.15324 0.71002 0.71242 0.0
H427 H 0.17085 0.7687 0.77612 0.0
H428 H 0.36387 0.9458 0.96818 0.0
H429 H 0.29819 0.89696 0.99323 0.0
H430 H 0.26675 0.88402 0.79965 0.0
H431 H 0.33418 0.9306 0.77415 0.0
H432 H 0.24383 0.81893 0.83714 0.0
H433 H 0.22587 0.91895 0.92394 0.0
H434 H 0.24133 0.97789 0.98512 0.0
H435 H 0.24318 0.921 0.15127 0.0
H436 H 0.22813 0.86185 0.09111 0.0
C437 C 0.08433 0.68393 0.95184 0.0
C438 C 0.09159 0.66544 0.00086 0.0
C439 C 0.11096 0.7223 0.93754 0.0
C440 C 0.1451 0.74293 0.97226 0.0
C441 C 0.15145 0.72555 0.02349 0.0
C442 C 0.12496 0.68692 0.03754 0.0
C443 C 0.17636 0.78052 0.95021 0.0
C444 C 0.18662 0.81447 0.98463 0.0
C445 C 0.19626 0.78255 0.89522 0.0
C446 C 0.18626 0.74753 0.85677 0.0
C447 C 0.1895 0.71657 0.88084 0.0
C448 C 0.17932 0.68338 0.84455 0.0
C449 C 0.16617 0.681 0.78393 0.0
C450 C 0.16334 0.71187 0.75942 0.0
C451 C 0.17343 0.7451 0.79557 0.0
C452 C 0.34268 0.9333 0.9311 0.0
C453 C 0.35392 0.94175 0.86924 0.0
C454 C 0.30482 0.90554 0.94553 0.0
C455 C 0.27695 0.88692 0.89856 0.0
C456 C 0.28764 0.89776 0.83684 0.0
C457 C 0.32603 0.92445 0.82218 0.0
C458 C 0.23904 0.85222 0.91313 0.0
C459 C 0.22729 0.81826 0.87739 0.0
C460 C 0.21737 0.85057 0.96624 0.0
C461 C 0.22595 0.88595 0.00287 0.0
C462 C 0.22972 0.91904 0.97349 0.0
C463 C 0.23838 0.95249 0.00802 0.0
C464 C 0.24324 0.95319 0.07203 0.0
C465 C 0.23934 0.92039 0.1017 0.0
C466 C 0.23062 0.88685 0.06742 0.0
H467 H 0.25001 0.97913 0.09865 0.0
H468 H 0.15828 0.65527 0.7559 0.0
H469 H 0.51399 0.42714 0.96785 0.0
H470 H 0.52132 0.37596 0.91789 0.0
H471 H 0.51351 0.32386 0.0947 0.0
H472 H 0.50562 0.37525 0.14579 0.0
H473 H 0.57736 0.33358 0.01006 0.0
H474 H 0.43911 0.28477 0.01568 0.0
H475 H 0.37983 0.28787 0.99622 0.0
H476 H 0.40212 0.29595 0.80139 0.0
H477 H 0.46222 0.29408 0.81982 0.0
H478 H 0.51488 0.13763 0.96433 0.0
H479 H 0.52361 0.20134 0.98992 0.0
H480 H 0.52718 0.22667 0.79608 0.0
H481 H 0.51924 0.16237 0.76969 0.0
H482 H 0.47237 0.23755 0.87252 0.0
H483 H 0.60469 0.27795 0.86211 0.0
H484 H 0.66365 0.27368 0.87743 0.0
H485 H 0.65442 0.28241 0.07387 0.0
H486 H 0.59484 0.28595 0.05992 0.0
C487 C 0.51399 0.40494 0.99643 0.0
C488 C 0.50929 0.40517 0.0609 0.0
C489 C 0.51815 0.37576 0.96764 0.0
C490 C 0.518 0.34641 0.00273 0.0
C491 C 0.51382 0.34658 0.06716 0.0
C492 C 0.50905 0.37564 0.09613 0.0
C493 C 0.52088 0.31485 0.97136 0.0
C494 C 0.55436 0.31233 0.98041 0.0
C495 C 0.49157 0.28855 0.93032 0.0
C496 C 0.45552 0.2899 0.91925 0.0
C497 C 0.43172 0.28781 0.96876 0.0
C498 C 0.39793 0.2893 0.9579 0.0
C499 C 0.38736 0.29239 0.89763 0.0
C500 C 0.4105 0.29384 0.84808 0.0
C501 C 0.44444 0.29259 0.85871 0.0
C502 C 0.51766 0.15674 0.92698 0.0
C503 C 0.516 0.14505 0.86499 0.0
C504 C 0.52298 0.19322 0.94173 0.0
C505 C 0.52628 0.21859 0.89487 0.0
C506 C 0.5249 0.20734 0.83271 0.0
C507 C 0.52038 0.17083 0.81777 0.0
C508 C 0.52833 0.2555 0.9126 0.0
C509 C 0.49578 0.2592 0.90117 0.0
C510 C 0.55868 0.28311 0.95081 0.0
C511 C 0.59496 0.2818 0.95993 0.0
C512 C 0.61499 0.27863 0.90865 0.0
C513 C 0.64856 0.27639 0.91707 0.0
C514 C 0.66261 0.27755 0.97657 0.0
C515 C 0.64337 0.28138 0.02781 0.0
C516 C 0.6097 0.28355 0.01966 0.0
H517 H 0.68835 0.27537 0.98283 0.0
H518 H 0.36115 0.29345 0.88929 0.0
loop_
_geom_bond_atom_site_label_1
_geom_bond_atom_site_label_2
_geom_bond_distance
_geom_bond_site_symmetry_2
_ccdc_geom_bond_type
O0 Zn1 1.953 . S
O0 C16 1.225 . S
Zn1 O0 1.953 . S
Zn1 O2 1.949 1_556 S
Zn1 O8 1.919 . S
Zn1 O13 1.924 1_455 S
O2 Zn1 1.949 1_554 S
O2 Zn3 1.923 . S
O2 Zn4 1.950 1_454 S
O2 Zn5 1.945 1_455 S
Zn3 O2 1.923 . S
Zn3 O6 1.933 . S
Zn3 O9 1.941 . S
Zn3 O10 1.965 . S
Zn4 O2 1.950 1_656 S
Zn4 O11 1.938 1_655 S
Zn4 O12 1.906 . S
Zn4 O22 1.953 . S
Zn5 O2 1.945 1_655 S
Zn5 O7 1.932 . S
Zn5 O14 1.977 . S
Zn5 O15 1.910 . S
O6 Zn3 1.933 . S
O6 C17 1.226 . S
O7 Zn5 1.932 . S
O7 C17 1.307 1_655 S
O8 Zn1 1.919 . S
O8 C19 1.253 1_556 S
O9 Zn3 1.941 . S
O9 C19 1.283 . S
O10 Zn3 1.965 . S
O10 C18 1.303 1_554 S
O11 Zn4 1.938 1_455 S
O11 C18 1.247 . S
O12 Zn4 1.906 . S
O12 C20 1.304 1_556 S
O13 Zn1 1.924 1_655 S
O13 C21 1.311 . S
O14 Zn5 1.977 . S
O14 C20 1.272 . S
O15 Zn5 1.910 . S
O15 C21 1.231 1_554 S
C16 O0 1.225 . S
C16 O22 1.298 1_455 S
C17 O6 1.226 . S
C17 O7 1.307 1_455 S
C18 O10 1.303 1_556 S
C18 O11 1.247 . S
C19 O8 1.253 1_554 S
C19 O9 1.283 . S
C20 O12 1.304 1_554 S
C20 O14 1.272 . S
C21 O13 1.311 . S
C21 O15 1.231 1_556 S
O22 Zn4 1.953 . S
O22 C16 1.298 1_655 S
O23 Zn24 1.953 . S
O23 C39 1.225 . S
Zn24 O23 1.953 . S
Zn24 O25 1.946 1_554 S
Zn24 O31 1.919 1_545 S
Zn24 O36 1.924 . S
O25 Zn24 1.946 1_556 S
O25 Zn26 1.925 1_545 S
O25 Zn27 1.947 1_556 S
O25 Zn28 1.947 . S
Zn26 O25 1.925 1_565 S
Zn26 O29 1.933 . S
Zn26 O32 1.941 . S
Zn26 O33 1.965 . S
Zn27 O25 1.947 1_554 S
Zn27 O34 1.938 1_545 S
Zn27 O35 1.906 . S
Zn27 O45 1.953 . S
Zn28 O25 1.947 . S
Zn28 O30 1.932 . S
Zn28 O37 1.977 . S
Zn28 O38 1.910 . S
O29 Zn26 1.933 . S
O29 C40 1.226 1_565 S
O30 Zn28 1.932 . S
O30 C40 1.307 . S
O31 Zn24 1.919 1_565 S
O31 C42 1.253 1_554 S
O32 Zn26 1.941 . S
O32 C42 1.283 . S
O33 Zn26 1.965 . S
O33 C41 1.303 1_556 S
O34 Zn27 1.938 1_565 S
O34 C41 1.247 . S
O35 Zn27 1.906 . S
O35 C43 1.304 1_554 S
O36 Zn24 1.924 . S
O36 C44 1.311 . S
O37 Zn28 1.977 . S
O37 C43 1.272 . S
O38 Zn28 1.910 . S
O38 C44 1.231 1_556 S
C39 O23 1.225 . S
C39 O45 1.298 . S
C40 O29 1.226 1_545 S
C40 O30 1.307 . S
C41 O33 1.303 1_554 S
C41 O34 1.247 . S
C42 O31 1.253 1_556 S
C42 O32 1.283 . S
C43 O35 1.304 1_556 S
C43 O37 1.272 . S
C44 O36 1.311 . S
C44 O38 1.231 1_554 S
O45 Zn27 1.953 . S
O45 C39 1.298 . S
O46 Zn47 1.953 . S
O46 C62 1.225 . S
Zn47 O46 1.953 . S
Zn47 O48 1.946 1_554 S
Zn47 O54 1.919 . S
Zn47 O59 1.924 . S
O48 Zn47 1.946 1_556 S
O48 Zn49 1.926 . S
O48 Zn50 1.947 1_556 S
O48 Zn51 1.947 . S
Zn49 O48 1.926 . S
Zn49 O52 1.933 . S
Zn49 O55 1.941 . S
Zn49 O56 1.965 . S
Zn50 O48 1.947 1_554 S
Zn50 O57 1.938 . S
Zn50 O58 1.906 . S
Zn50 O68 1.953 . S
Zn51 O48 1.947 . S
Zn51 O53 1.932 . S
Zn51 O60 1.977 . S
Zn51 O61 1.910 . S
O52 Zn49 1.933 . S
O52 C63 1.226 . S
O53 Zn51 1.932 . S
O53 C63 1.307 . S
O54 Zn47 1.919 . S
O54 C65 1.253 1_554 S
O55 Zn49 1.941 . S
O55 C65 1.283 . S
O56 Zn49 1.965 . S
O56 C64 1.303 1_556 S
O57 Zn50 1.938 . S
O57 C64 1.247 . S
O58 Zn50 1.906 . S
O58 C66 1.304 1_554 S
O59 Zn47 1.924 . S
O59 C67 1.311 . S
O60 Zn51 1.977 . S
O60 C66 1.272 . S
O61 Zn51 1.910 . S
O61 C67 1.231 1_556 S
C62 O46 1.225 . S
C62 O68 1.298 . S
C63 O52 1.226 . S
C63 O53 1.307 . S
C64 O56 1.303 1_554 S
C64 O57 1.247 . S
C65 O54 1.253 1_556 S
C65 O55 1.283 . S
C66 O58 1.304 1_556 S
C66 O60 1.272 . S
C67 O59 1.311 . S
C67 O61 1.231 1_554 S
O68 Zn50 1.953 . S
O68 C62 1.298 . S
H69 C87 0.951 . S
H70 C89 0.951 . S
H71 C91 0.950 . S
H72 C92 0.950 . S
H73 C94 0.950 . S
H74 C97 0.950 . S
H75 C98 0.950 . S
H76 C100 0.950 . S
H77 C101 0.950 1_455 S
H78 C102 0.951 . S
H79 C104 0.951 . S
H80 C106 0.950 . S
H81 C107 0.950 . S
H82 C109 0.950 . S
H83 C112 0.950 . S
H84 C113 0.950 . S
H85 C115 0.950 . S
H86 C116 0.950 1_655 S
C87 H69 0.951 . S
C87 C88 1.366 . S
C87 C89 1.388 . S
C88 C87 1.366 . S
C88 C92 1.385 1_455 S
C89 H70 0.951 . S
C89 C87 1.388 . S
C89 C90 1.366 . S
C90 C89 1.366 . S
C90 C91 1.414 1_455 S
C90 C93 1.499 . S
C91 H71 0.950 . S
C91 C90 1.414 1_655 S
C91 C92 1.374 . S
C92 H72 0.950 . S
C92 C88 1.385 1_655 S
C92 C91 1.374 . S
C93 C90 1.499 . S
C93 C94 1.373 . S
C93 C95 1.389 1_455 S
C94 H73 0.950 . S
C94 C93 1.373 . S
C94 C110 1.377 . S
C95 C93 1.389 1_655 S
C95 C96 1.524 . S
C95 C109 1.377 . S
C96 C95 1.524 . S
C96 C97 1.397 . S
C96 C101 1.363 . S
C97 H74 0.950 . S
C97 C96 1.397 . S
C97 C98 1.334 . S
C98 H75 0.950 . S
C98 C97 1.334 . S
C98 C99 1.287 . S
C99 C98 1.287 . S
C99 C100 1.524 . S
C99 H118 0.913 . S
C100 H76 0.950 . S
C100 C99 1.524 . S
C100 C101 1.415 . S
C101 H77 0.950 1_655 S
C101 C96 1.363 . S
C101 C100 1.415 . S
C102 H78 0.951 . S
C102 C103 1.366 1_655 S
C102 C104 1.388 . S
C103 C102 1.366 1_455 S
C103 C107 1.385 . S
C104 H79 0.951 . S
C104 C102 1.388 . S
C104 C105 1.366 1_655 S
C105 C104 1.366 1_455 S
C105 C106 1.414 . S
C105 C108 1.499 . S
C106 H80 0.950 . S
C106 C105 1.414 . S
C106 C107 1.374 . S
C107 H81 0.950 . S
C107 C103 1.385 . S
C107 C106 1.374 . S
C108 C105 1.499 . S
C108 C109 1.373 1_455 S
C108 C110 1.389 . S
C109 H82 0.950 . S
C109 C95 1.377 . S
C109 C108 1.373 1_655 S
C110 C94 1.377 . S
C110 C108 1.389 . S
C110 C111 1.524 . S
C111 C110 1.524 . S
C111 C112 1.397 . S
C111 C116 1.363 . S
C112 H83 0.950 . S
C112 C111 1.397 . S
C112 C113 1.334 . S
C113 H84 0.950 . S
C113 C112 1.334 . S
C113 C114 1.287 . S
C114 C113 1.287 . S
C114 C115 1.524 . S
C114 H117 0.999 . S
C115 H85 0.950 . S
C115 C114 1.524 . S
C115 C116 1.415 . S
C116 H86 0.950 1_455 S
C116 C111 1.363 . S
C116 C115 1.415 . S
H117 C114 0.999 . S
H118 C99 0.913 . S
H119 C137 0.951 . S
H120 C139 0.951 . S
H121 C141 0.950 . S
H122 C142 0.950 . S
H123 C144 0.950 . S
H124 C147 0.950 . S
H125 C148 0.950 . S
H126 C150 0.949 1_565 S
H127 C151 0.950 1_565 S
H128 C152 0.951 . S
H129 C154 0.951 . S
H130 C156 0.950 . S
H131 C157 0.950 . S
H132 C159 0.950 . S
H133 C162 0.950 . S
H134 C163 0.950 . S
H135 C165 0.950 . S
H136 C166 0.950 . S
C137 H119 0.951 . S
C137 C138 1.366 1_565 S
C137 C139 1.388 . S
C138 C137 1.366 1_545 S
C138 C142 1.385 . S
C139 H120 0.951 . S
C139 C137 1.388 . S
C139 C140 1.366 1_565 S
C140 C139 1.366 1_545 S
C140 C141 1.414 . S
C140 C143 1.499 . S
C141 H121 0.950 . S
C141 C140 1.414 . S
C141 C142 1.374 . S
C142 H122 0.950 . S
C142 C138 1.385 . S
C142 C141 1.374 . S
C143 C140 1.499 . S
C143 C144 1.373 . S
C143 C145 1.389 . S
C144 H123 0.950 . S
C144 C143 1.373 . S
C144 C160 1.377 . S
C145 C143 1.389 . S
C145 C146 1.524 . S
C145 C159 1.377 . S
C146 C145 1.524 . S
C146 C147 1.397 . S
C146 C151 1.363 . S
C147 H124 0.950 . S
C147 C146 1.397 . S
C147 C148 1.334 . S
C148 H125 0.950 . S
C148 C147 1.334 . S
C148 C149 1.287 . S
C149 C148 1.287 . S
C149 C150 1.524 . S
C149 H168 0.913 . S
C150 H126 0.949 1_545 S
C150 C149 1.524 . S
C150 C151 1.415 . S
C151 H127 0.950 1_545 S
C151 C146 1.363 . S
C151 C150 1.415 . S
C152 H128 0.951 . S
C152 C153 1.366 . S
C152 C154 1.388 . S
C153 C152 1.366 . S
C153 C157 1.385 1_545 S
C154 H129 0.951 . S
C154 C152 1.388 . S
C154 C155 1.366 . S
C155 C154 1.366 . S
C155 C156 1.414 1_545 S
C155 C158 1.499 . S
C156 H130 0.950 . S
C156 C155 1.414 1_565 S
C156 C157 1.374 . S
C157 H131 0.950 . S
C157 C153 1.385 1_565 S
C157 C156 1.374 . S
C158 C155 1.499 . S
C158 C159 1.373 . S
C158 C160 1.389 . S
C159 H132 0.950 . S
C159 C145 1.377 . S
C159 C158 1.373 . S
C160 C144 1.377 . S
C160 C158 1.389 . S
C160 C161 1.524 . S
C161 C160 1.524 . S
C161 C162 1.397 1_545 S
C161 C166 1.363 . S
C162 H133 0.950 . S
C162 C161 1.397 1_565 S
C162 C163 1.334 . S
C163 H134 0.950 . S
C163 C162 1.334 . S
C163 C164 1.287 . S
C164 C163 1.287 . S
C164 C165 1.524 1_565 S
C164 H167 0.999 . S
C165 H135 0.950 . S
C165 C164 1.524 1_545 S
C165 C166 1.415 . S
C166 H136 0.950 . S
C166 C161 1.363 . S
C166 C165 1.415 . S
H167 C164 0.999 . S
H168 C149 0.913 . S
H169 C187 0.951 . S
H170 C189 0.951 . S
H171 C191 0.950 . S
H172 C192 0.950 . S
H173 C194 0.950 . S
H174 C197 0.950 . S
H175 C198 0.950 . S
H176 C200 0.950 . S
H177 C201 0.950 . S
H178 C202 0.951 . S
H179 C204 0.951 . S
H180 C206 0.950 . S
H181 C207 0.950 . S
H182 C209 0.950 . S
H183 C212 0.950 . S
H184 C213 0.950 . S
H185 C215 0.950 . S
H186 C216 0.950 . S
C187 H169 0.951 . S
C187 C188 1.366 . S
C187 C189 1.388 . S
C188 C187 1.366 . S
C188 C192 1.385 . S
C189 H170 0.951 . S
C189 C187 1.388 . S
C189 C190 1.366 . S
C190 C189 1.366 . S
C190 C191 1.414 . S
C190 C193 1.499 . S
C191 H171 0.950 . S
C191 C190 1.414 . S
C191 C192 1.374 . S
C192 H172 0.950 . S
C192 C188 1.385 . S
C192 C191 1.374 . S
C193 C190 1.499 . S
C193 C194 1.373 . S
C193 C195 1.389 . S
C194 H173 0.950 . S
C194 C193 1.373 . S
C194 C210 1.377 . S
C195 C193 1.389 . S
C195 C196 1.524 . S
C195 C209 1.377 . S
C196 C195 1.524 . S
C196 C197 1.397 . S
C196 C201 1.363 . S
C197 H174 0.950 . S
C197 C196 1.397 . S
C197 C198 1.334 . S
C198 H175 0.950 . S
C198 C197 1.334 . S
C198 C199 1.287 . S
C199 C198 1.287 . S
C199 C200 1.524 . S
C199 H218 0.913 . S
C200 H176 0.950 . S
C200 C199 1.524 . S
C200 C201 1.415 . S
C201 H177 0.950 . S
C201 C196 1.363 . S
C201 C200 1.415 . S
C202 H178 0.951 . S
C202 C203 1.366 . S
C202 C204 1.388 . S
C203 C202 1.366 . S
C203 C207 1.385 . S
C204 H179 0.951 . S
C204 C202 1.388 . S
C204 C205 1.366 . S
C205 C204 1.366 . S
C205 C206 1.414 . S
C205 C208 1.499 . S
C206 H180 0.950 . S
C206 C205 1.414 . S
C206 C207 1.374 . S
C207 H181 0.950 . S
C207 C203 1.385 . S
C207 C206 1.374 . S
C208 C205 1.499 . S
C208 C209 1.373 . S
C208 C210 1.389 . S
C209 H182 0.950 . S
C209 C195 1.377 . S
C209 C208 1.373 . S
C210 C194 1.377 . S
C210 C208 1.389 . S
C210 C211 1.524 . S
C211 C210 1.524 . S
C211 C212 1.397 . S
C211 C216 1.363 . S
C212 H183 0.950 . S
C212 C211 1.397 . S
C212 C213 1.334 . S
C213 H184 0.950 . S
C213 C212 1.334 . S
C213 C214 1.287 . S
C214 C213 1.287 . S
C214 C215 1.524 . S
C214 H217 0.999 . S
C215 H185 0.950 . S
C215 C214 1.524 . S
C215 C216 1.415 . S
C216 H186 0.950 . S
C216 C211 1.363 . S
C216 C215 1.415 . S
H217 C214 0.999 . S
H218 C199 0.913 . S
H219 C237 0.951 . S
H220 C239 0.951 . S
H221 C241 0.950 . S
H222 C242 0.950 . S
H223 C244 0.950 . S
H224 C247 0.950 . S
H225 C248 0.950 . S
H226 C250 0.950 . S
H227 C251 0.950 . S
H228 C252 0.951 . S
H229 C254 0.951 . S
H230 C256 0.950 . S
H231 C257 0.950 . S
H232 C259 0.950 . S
H233 C262 0.950 . S
H234 C263 0.950 . S
H235 C265 0.950 . S
H236 C266 0.950 . S
C237 H219 0.951 . S
C237 C238 1.366 1_556 S
C237 C239 1.388 . S
C238 C237 1.366 1_554 S
C238 C242 1.385 . S
C239 H220 0.951 . S
C239 C237 1.388 . S
C239 C240 1.366 1_556 S
C240 C239 1.366 1_554 S
C240 C241 1.414 . S
C240 C243 1.499 . S
C241 H221 0.950 . S
C241 C240 1.414 . S
C241 C242 1.374 . S
C242 H222 0.950 . S
C242 C238 1.385 . S
C242 C241 1.374 . S
C243 C240 1.499 . S
C243 C244 1.373 . S
C243 C245 1.389 1_554 S
C244 H223 0.950 . S
C244 C243 1.373 . S
C244 C260 1.377 . S
C245 C243 1.389 1_556 S
C245 C246 1.524 . S
C245 C259 1.377 . S
C246 C245 1.524 . S
C246 C247 1.397 1_556 S
C246 C251 1.363 . S
C247 H224 0.950 . S
C247 C246 1.397 1_554 S
C247 C248 1.334 . S
C248 H225 0.950 . S
C248 C247 1.334 . S
C248 C249 1.287 1_554 S
C249 C248 1.287 1_556 S
C249 C250 1.524 . S
C249 H268 0.913 . S
C250 H226 0.950 . S
C250 C249 1.524 . S
C250 C251 1.415 . S
C251 H227 0.950 . S
C251 C246 1.363 . S
C251 C250 1.415 . S
C252 H228 0.951 . S
C252 C253 1.366 1_554 S
C252 C254 1.388 . S
C253 C252 1.366 1_556 S
C253 C257 1.385 . S
C254 H229 0.951 . S
C254 C252 1.388 . S
C254 C255 1.366 1_554 S
C255 C254 1.366 1_556 S
C255 C256 1.414 . S
C255 C258 1.499 . S
C256 H230 0.950 . S
C256 C255 1.414 . S
C256 C257 1.374 . S
C257 H231 0.950 . S
C257 C253 1.385 . S
C257 C256 1.374 . S
C258 C255 1.499 . S
C258 C259 1.373 . S
C258 C260 1.389 1_556 S
C259 H232 0.950 . S
C259 C245 1.377 . S
C259 C258 1.373 . S
C260 C244 1.377 . S
C260 C258 1.389 1_554 S
C260 C261 1.524 . S
C261 C260 1.524 . S
C261 C262 1.397 1_554 S
C261 C266 1.363 . S
C262 H233 0.950 . S
C262 C261 1.397 1_556 S
C262 C263 1.334 . S
C263 H234 0.950 . S
C263 C262 1.334 . S
C263 C264 1.287 1_556 S
C264 C263 1.287 1_554 S
C264 C265 1.524 . S
C264 H267 0.999 . S
C265 H235 0.950 . S
C265 C264 1.524 . S
C265 C266 1.415 . S
C266 H236 0.950 . S
C266 C261 1.363 . S
C266 C265 1.415 . S
H267 C264 0.999 . S
H268 C249 0.913 . S
H269 C287 0.951 . S
H270 C289 0.951 . S
H271 C291 0.950 . S
H272 C292 0.950 . S
H273 C294 0.950 . S
H274 C297 0.950 . S
H275 C298 0.950 1_554 S
H276 C300 0.950 . S
H277 C301 0.950 . S
H278 C302 0.951 . S
H279 C304 0.951 . S
H280 C306 0.950 . S
H281 C307 0.950 . S
H282 C309 0.950 . S
H283 C312 0.950 . S
H284 C313 0.950 1_556 S
H285 C315 0.950 . S
H286 C316 0.950 . S
C287 H269 0.951 . S
C287 C288 1.366 1_556 S
C287 C289 1.388 . S
C288 C287 1.366 1_554 S
C288 C292 1.385 . S
C289 H270 0.951 . S
C289 C287 1.388 . S
C289 C290 1.366 1_556 S
C290 C289 1.366 1_554 S
C290 C291 1.414 . S
C290 C293 1.499 . S
C291 H271 0.950 . S
C291 C290 1.414 . S
C291 C292 1.374 . S
C292 H272 0.950 . S
C292 C288 1.385 . S
C292 C291 1.374 . S
C293 C290 1.499 . S
C293 C294 1.373 . S
C293 C295 1.389 1_554 S
C294 H273 0.950 . S
C294 C293 1.373 . S
C294 C310 1.377 . S
C295 C293 1.389 1_556 S
C295 C296 1.524 . S
C295 C309 1.377 . S
C296 C295 1.524 . S
C296 C297 1.397 1_556 S
C296 C301 1.363 . S
C297 H274 0.950 . S
C297 C296 1.397 1_554 S
C297 C298 1.334 1_554 S
C298 H275 0.950 1_556 S
C298 C297 1.334 1_556 S
C298 C299 1.287 . S
C299 C298 1.287 . S
C299 C300 1.524 . S
C299 H318 0.913 . S
C300 H276 0.950 . S
C300 C299 1.524 . S
C300 C301 1.415 . S
C301 H277 0.950 . S
C301 C296 1.363 . S
C301 C300 1.415 . S
C302 H278 0.951 . S
C302 C303 1.366 1_554 S
C302 C304 1.388 . S
C303 C302 1.366 1_556 S
C303 C307 1.385 . S
C304 H279 0.951 . S
C304 C302 1.388 . S
C304 C305 1.366 1_554 S
C305 C304 1.366 1_556 S
C305 C306 1.414 . S
C305 C308 1.499 . S
C306 H280 0.950 . S
C306 C305 1.414 . S
C306 C307 1.374 . S
C307 H281 0.950 . S
C307 C303 1.385 . S
C307 C306 1.374 . S
C308 C305 1.499 . S
C308 C309 1.373 . S
C308 C310 1.389 1_556 S
C309 H282 0.950 . S
C309 C295 1.377 . S
C309 C308 1.373 . S
C310 C294 1.377 . S
C310 C308 1.389 1_554 S
C310 C311 1.524 . S
C311 C310 1.524 . S
C311 C312 1.397 1_554 S
C311 C316 1.363 . S
C312 H283 0.950 . S
C312 C311 1.397 1_556 S
C312 C313 1.334 1_556 S
C313 H284 0.950 1_554 S
C313 C312 1.334 1_554 S
C313 C314 1.287 . S
C314 C313 1.287 . S
C314 C315 1.524 . S
C314 H317 0.999 . S
C315 H285 0.950 . S
C315 C314 1.524 . S
C315 C316 1.415 . S
C316 H286 0.950 . S
C316 C311 1.363 . S
C316 C315 1.415 . S
H317 C314 0.999 . S
H318 C299 0.913 . S
H319 C337 0.951 . S
H320 C339 0.951 . S
H321 C341 0.950 . S
H322 C342 0.950 . S
H323 C344 0.950 . S
H324 C347 0.950 . S
H325 C348 0.950 . S
H326 C350 0.950 . S
H327 C351 0.950 . S
H328 C352 0.951 . S
H329 C354 0.951 . S
H330 C356 0.950 . S
H331 C357 0.954 . S
H332 C359 0.950 . S
H333 C362 0.950 . S
H334 C363 0.950 . S
H335 C365 0.950 . S
H336 C366 0.950 . S
C337 H319 0.951 . S
C337 C338 1.366 . S
C337 C339 1.388 . S
C338 C337 1.366 . S
C338 C342 1.385 1_556 S
C339 H320 0.951 . S
C339 C337 1.388 . S
C339 C340 1.366 . S
C340 C339 1.366 . S
C340 C341 1.414 1_556 S
C340 C343 1.499 . S
C341 H321 0.950 . S
C341 C340 1.414 1_554 S
C341 C342 1.374 . S
C342 H322 0.950 . S
C342 C338 1.385 1_554 S
C342 C341 1.374 . S
C343 C340 1.499 . S
C343 C344 1.373 1_556 S
C343 C345 1.389 . S
C344 H323 0.950 . S
C344 C343 1.373 1_554 S
C344 C360 1.377 . S
C345 C343 1.389 . S
C345 C346 1.524 . S
C345 C359 1.377 . S
C346 C345 1.524 . S
C346 C347 1.397 . S
C346 C351 1.363 . S
C347 H324 0.950 . S
C347 C346 1.397 . S
C347 C348 1.334 . S
C348 H325 0.950 . S
C348 C347 1.334 . S
C348 C349 1.287 . S
C349 C348 1.287 . S
C349 C350 1.524 . S
C349 H368 0.913 . S
C350 H326 0.950 . S
C350 C349 1.524 . S
C350 C351 1.415 . S
C351 H327 0.950 . S
C351 C346 1.363 . S
C351 C350 1.415 . S
C352 H328 0.951 . S
C352 C353 1.366 . S
C352 C354 1.388 . S
C353 C352 1.366 . S
C353 C357 1.380 1_554 S
C354 H329 0.951 . S
C354 C352 1.388 . S
C354 C355 1.366 . S
C355 C354 1.366 . S
C355 C356 1.414 1_554 S
C355 C358 1.499 . S
C356 H330 0.950 . S
C356 C355 1.414 1_556 S
C356 C357 1.375 . S
C357 H331 0.954 . S
C357 C353 1.380 1_556 S
C357 C356 1.375 . S
C358 C355 1.499 . S
C358 C359 1.373 1_554 S
C358 C360 1.389 . S
C359 H332 0.950 . S
C359 C345 1.377 . S
C359 C358 1.373 1_556 S
C360 C344 1.377 . S
C360 C358 1.389 . S
C360 C361 1.524 . S
C361 C360 1.524 . S
C361 C362 1.397 . S
C361 C366 1.363 . S
C362 H333 0.950 . S
C362 C361 1.397 . S
C362 C363 1.334 . S
C363 H334 0.950 . S
C363 C362 1.334 . S
C363 C364 1.287 . S
C364 C363 1.287 . S
C364 C365 1.524 . S
C364 H367 0.999 . S
C365 H335 0.950 . S
C365 C364 1.524 . S
C365 C366 1.415 . S
C366 H336 0.950 . S
C366 C361 1.363 . S
C366 C365 1.415 . S
H367 C364 0.999 . S
H368 C349 0.913 . S
H369 C387 0.951 . S
H370 C389 0.951 . S
H371 C391 0.950 . S
H372 C392 0.950 . S
H373 C394 0.950 . S
H374 C397 0.950 1_556 S
H375 C398 0.950 . S
H376 C400 0.950 . S
H377 C401 0.950 . S
H378 C402 0.951 . S
H379 C404 0.951 . S
H380 C406 0.950 . S
H381 C407 0.950 . S
H382 C409 0.950 . S
H383 C412 0.950 1_554 S
H384 C413 0.950 . S
H385 C415 0.950 . S
H386 C416 0.950 . S
C387 H369 0.951 . S
C387 C388 1.366 . S
C387 C389 1.388 . S
C388 C387 1.366 . S
C388 C392 1.385 1_554 S
C389 H370 0.951 . S
C389 C387 1.388 . S
C389 C390 1.366 . S
C390 C389 1.366 . S
C390 C391 1.414 1_554 S
C390 C393 1.499 . S
C391 H371 0.950 . S
C391 C390 1.414 1_556 S
C391 C392 1.374 . S
C392 H372 0.950 . S
C392 C388 1.385 1_556 S
C392 C391 1.374 . S
C393 C390 1.499 . S
C393 C394 1.373 1_554 S
C393 C395 1.389 . S
C394 H373 0.950 . S
C394 C393 1.373 1_556 S
C394 C410 1.377 . S
C395 C393 1.389 . S
C395 C396 1.524 . S
C395 C409 1.377 . S
C396 C395 1.524 . S
C396 C397 1.397 . S
C396 C401 1.363 . S
C397 H374 0.950 1_554 S
C397 C396 1.397 . S
C397 C398 1.334 . S
C398 H375 0.950 . S
C398 C397 1.334 . S
C398 C399 1.287 . S
C399 C398 1.287 . S
C399 C400 1.524 . S
C399 H418 0.913 . S
C400 H376 0.950 . S
C400 C399 1.524 . S
C400 C401 1.415 . S
C401 H377 0.950 . S
C401 C396 1.363 . S
C401 C400 1.415 . S
C402 H378 0.951 . S
C402 C403 1.366 . S
C402 C404 1.388 . S
C403 C402 1.366 . S
C403 C407 1.385 1_556 S
C404 H379 0.951 . S
C404 C402 1.388 . S
C404 C405 1.366 . S
C405 C404 1.366 . S
C405 C406 1.414 1_556 S
C405 C408 1.499 . S
C406 H380 0.950 . S
C406 C405 1.414 1_554 S
C406 C407 1.374 . S
C407 H381 0.950 . S
C407 C403 1.385 1_554 S
C407 C406 1.374 . S
C408 C405 1.499 . S
C408 C409 1.373 1_556 S
C408 C410 1.389 . S
C409 H382 0.950 . S
C409 C395 1.377 . S
C409 C408 1.373 1_554 S
C410 C394 1.377 . S
C410 C408 1.389 . S
C410 C411 1.524 . S
C411 C410 1.524 . S
C411 C412 1.397 . S
C411 C416 1.363 . S
C412 H383 0.950 1_556 S
C412 C411 1.397 . S
C412 C413 1.334 . S
C413 H384 0.950 . S
C413 C412 1.334 . S
C413 C414 1.287 . S
C414 C413 1.287 . S
C414 C415 1.524 . S
C414 H417 0.999 . S
C415 H385 0.950 . S
C415 C414 1.524 . S
C415 C416 1.415 . S
C416 H386 0.950 . S
C416 C411 1.363 . S
C416 C415 1.415 . S
H417 C414 0.999 . S
H418 C399 0.913 . S
H419 C437 0.951 . S
H420 C439 0.951 . S
H421 C441 0.950 . S
H422 C442 0.950 . S
H423 C444 0.950 . S
H424 C447 0.950 . S
H425 C448 0.950 . S
H426 C450 0.950 . S
H427 C451 0.950 . S
H428 C452 0.951 . S
H429 C454 0.951 . S
H430 C456 0.950 . S
H431 C457 0.950 . S
H432 C459 0.950 . S
H433 C462 0.950 . S
H434 C463 0.950 . S
H435 C465 0.950 . S
H436 C466 0.950 . S
C437 H419 0.951 . S
C437 C438 1.366 . S
C437 C439 1.388 . S
C438 C437 1.366 . S
C438 C442 1.385 . S
C439 H420 0.951 . S
C439 C437 1.388 . S
C439 C440 1.366 . S
C440 C439 1.366 . S
C440 C441 1.414 . S
C440 C443 1.499 . S
C441 H421 0.950 . S
C441 C440 1.414 . S
C441 C442 1.374 . S
C442 H422 0.950 . S
C442 C438 1.385 . S
C442 C441 1.374 . S
C443 C440 1.499 . S
C443 C444 1.373 1_556 S
C443 C445 1.389 . S
C444 H423 0.950 . S
C444 C443 1.373 1_554 S
C444 C460 1.377 . S
C445 C443 1.389 . S
C445 C446 1.524 . S
C445 C459 1.377 . S
C446 C445 1.524 . S
C446 C447 1.397 . S
C446 C451 1.363 . S
C447 H424 0.950 . S
C447 C446 1.397 . S
C447 C448 1.334 . S
C448 H425 0.950 . S
C448 C447 1.334 . S
C448 C449 1.287 . S
C449 C448 1.287 . S
C449 C450 1.524 . S
C449 H468 0.913 . S
C450 H426 0.950 . S
C450 C449 1.524 . S
C450 C451 1.415 . S
C451 H427 0.950 . S
C451 C446 1.363 . S
C451 C450 1.415 . S
C452 H428 0.951 . S
C452 C453 1.366 . S
C452 C454 1.388 . S
C453 C452 1.366 . S
C453 C457 1.385 . S
C454 H429 0.951 . S
C454 C452 1.388 . S
C454 C455 1.366 . S
C455 C454 1.366 . S
C455 C456 1.414 . S
C455 C458 1.499 . S
C456 H430 0.950 . S
C456 C455 1.414 . S
C456 C457 1.374 . S
C457 H431 0.950 . S
C457 C453 1.385 . S
C457 C456 1.374 . S
C458 C455 1.499 . S
C458 C459 1.373 1_554 S
C458 C460 1.389 . S
C459 H432 0.950 . S
C459 C445 1.377 . S
C459 C458 1.373 1_556 S
C460 C444 1.377 . S
C460 C458 1.389 . S
C460 C461 1.524 . S
C461 C460 1.524 . S
C461 C462 1.397 . S
C461 C466 1.363 . S
C462 H433 0.950 . S
C462 C461 1.397 . S
C462 C463 1.334 . S
C463 H434 0.950 . S
C463 C462 1.334 . S
C463 C464 1.287 . S
C464 C463 1.287 . S
C464 C465 1.524 . S
C464 H467 0.999 . S
C465 H435 0.950 . S
C465 C464 1.524 . S
C465 C466 1.415 . S
C466 H436 0.950 . S
C466 C461 1.363 . S
C466 C465 1.415 . S
H467 C464 0.999 . S
H468 C449 0.913 . S
H469 C487 0.951 1_556 S
H470 C489 0.951 . S
H471 C491 0.950 . S
H472 C492 0.950 . S
H473 C494 0.950 . S
H474 C497 0.950 . S
H475 C498 0.950 . S
H476 C500 0.950 . S
H477 C501 0.950 1_556 S
H478 C502 0.951 1_554 S
H479 C504 0.951 . S
H480 C506 0.950 . S
H481 C507 0.950 . S
H482 C509 0.950 . S
H483 C512 0.950 . S
H484 C513 0.950 . S
H485 C515 0.950 . S
H486 C516 0.950 1_554 S
C487 H469 0.951 1_554 S
C487 C488 1.366 . S
C487 C489 1.388 1_554 S
C488 C487 1.366 . S
C488 C492 1.385 . S
C489 H470 0.951 . S
C489 C487 1.388 1_556 S
C489 C490 1.366 1_556 S
C490 C489 1.366 1_554 S
C490 C491 1.414 . S
C490 C493 1.499 . S
C491 H471 0.950 . S
C491 C490 1.414 . S
C491 C492 1.374 . S
C492 H472 0.950 . S
C492 C488 1.385 . S
C492 C491 1.374 . S
C493 C490 1.499 . S
C493 C494 1.373 1_554 S
C493 C495 1.389 . S
C494 H473 0.950 . S
C494 C493 1.373 1_556 S
C494 C510 1.377 . S
C495 C493 1.389 . S
C495 C496 1.524 . S
C495 C509 1.377 . S
C496 C495 1.524 . S
C496 C497 1.397 . S
C496 C501 1.363 . S
C497 H474 0.950 . S
C497 C496 1.397 . S
C497 C498 1.334 . S
C498 H475 0.950 . S
C498 C497 1.334 . S
C498 C499 1.287 . S
C499 C498 1.287 . S
C499 C500 1.524 . S
C499 H518 0.913 . S
C500 H476 0.950 . S
C500 C499 1.524 . S
C500 C501 1.415 . S
C501 H477 0.950 1_554 S
C501 C496 1.363 . S
C501 C500 1.415 . S
C502 H478 0.951 1_556 S
C502 C503 1.366 . S
C502 C504 1.388 1_556 S
C503 C502 1.366 . S
C503 C507 1.385 . S
C504 H479 0.951 . S
C504 C502 1.388 1_554 S
C504 C505 1.366 1_554 S
C505 C504 1.366 1_556 S
C505 C506 1.414 . S
C505 C508 1.499 . S
C506 H480 0.950 . S
C506 C505 1.414 . S
C506 C507 1.374 . S
C507 H481 0.950 . S
C507 C503 1.385 . S
C507 C506 1.374 . S
C508 C505 1.499 . S
C508 C509 1.373 1_556 S
C508 C510 1.389 . S
C509 H482 0.950 . S
C509 C495 1.377 . S
C509 C508 1.373 1_554 S
C510 C494 1.377 . S
C510 C508 1.389 . S
C510 C511 1.524 . S
C511 C510 1.524 . S
C511 C512 1.397 . S
C511 C516 1.363 . S
C512 H483 0.950 . S
C512 C511 1.397 . S
C512 C513 1.334 . S
C513 H484 0.950 . S
C513 C512 1.334 . S
C513 C514 1.287 . S
C514 C513 1.287 . S
C514 C515 1.524 . S
C514 H517 0.999 . S
C515 H485 0.950 . S
C515 C514 1.524 . S
C515 C516 1.415 . S
C516 H486 0.950 1_556 S
C516 C511 1.363 . S
C516 C515 1.415 . S
H517 C514 0.999 . S
H518 C499 0.913 . S
C88 C16 1.499 . S
C103 C17 1.499 . S
C138 C39 1.499 . S
C153 C40 1.499 . S
C188 C63 1.499 . S
C203 C62 1.500 . S
C238 C19 0.849 . S
C253 C66 0.853 . S
C288 C44 0.821 . S
C303 C21 0.822 . S
C338 C42 0.847 . S
C353 C67 0.856 . S
C388 C20 0.890 . S
C403 C65 0.885 . S
C438 C18 0.940 . S
C453 C41 0.940 . S
C488 C64 0.903 . S
C503 C43 0.891 . S
