# Generated by pormake.
# Topology fnz, (5)-cn, num edge types: 1
# Building blocks:
#     Node 0, Type 0, BuildingBlock: BEQFEK_clean_sbu_0, # of connection points: 5
#     Node 1, Type 0, BuildingBlock: BEQFEK_clean_sbu_0, # of connection points: 5
#     Node 2, Type 0, BuildingBlock: BEQFEK_clean_sbu_0, # of connection points: 5
#     Node 3, Type 0, BuildingBlock: BEQFEK_clean_sbu_0, # of connection points: 5
#     Node 4, Type 0, BuildingBlock: BEQFEK_clean_sbu_0, # of connection points: 5
#     Node 5, Type 0, BuildingBlock: BEQFEK_clean_sbu_0, # of connection points: 5
#     Node 6, Type 0, BuildingBlock: BEQFEK_clean_sbu_0, # of connection points: 5
#     Node 7, Type 0, BuildingBlock: BEQFEK_clean_sbu_0, # of connection points: 5
#     Node 8, Type 0, BuildingBlock: BEQFEK_clean_sbu_0, # of connection points: 5
#     Node 9, Type 0, BuildingBlock: BEQFEK_clean_sbu_0, # of connection points: 5
#     Node 10, Type 0, BuildingBlock: BEQFEK_clean_sbu_0, # of connection points: 5
#     Node 11, Type 0, BuildingBlock: BEQFEK_clean_sbu_0, # of connection points: 5
#     Edge 12, Type (0, 0), BuildingBlock: OJICUG_clean_linker_0, # of connection points: 2
#     Edge 13, Type (0, 0), BuildingBlock: OJICUG_clean_linker_0, # of connection points: 2
#     Edge 14, Type (0, 0), BuildingBlock: OJICUG_clean_linker_0, # of connection points: 2
#     Edge 15, Type (0, 0), BuildingBlock: OJICUG_clean_linker_0, # of connection points: 2
#     Edge 16, Type (0, 0), BuildingBlock: OJICUG_clean_linker_0, # of connection points: 2
#     Edge 17, Type (0, 0), BuildingBlock: OJICUG_clean_linker_0, # of connection points: 2
#     Edge 18, Type (0, 0), BuildingBlock: OJICUG_clean_linker_0, # of connection points: 2
#     Edge 19, Type (0, 0), BuildingBlock: OJICUG_clean_linker_0, # of connection points: 2
#     Edge 20, Type (0, 0), BuildingBlock: OJICUG_clean_linker_0, # of connection points: 2
#     Edge 21, Type (0, 0), BuildingBlock: OJICUG_clean_linker_0, # of connection points: 2
#     Edge 22, Type (0, 0), BuildingBlock: OJICUG_clean_linker_0, # of connection points: 2
#     Edge 23, Type (0, 0), BuildingBlock: OJICUG_clean_linker_0, # of connection points: 2
#     Edge 24, Type (0, 0), BuildingBlock: OJICUG_clean_linker_0, # of connection points: 2
#     Edge 25, Type (0, 0), BuildingBlock: OJICUG_clean_linker_0, # of connection points: 2
#     Edge 26, Type (0, 0), BuildingBlock: OJICUG_clean_linker_0, # of connection points: 2
#     Edge 27, Type (0, 0), BuildingBlock: OJICUG_clean_linker_0, # of connection points: 2
#     Edge 28, Type (0, 0), BuildingBlock: OJICUG_clean_linker_0, # of connection points: 2
#     Edge 29, Type (0, 0), BuildingBlock: OJICUG_clean_linker_0, # of connection points: 2
#     Edge 30, Type (0, 0), BuildingBlock: OJICUG_clean_linker_0, # of connection points: 2
#     Edge 31, Type (0, 0), BuildingBlock: OJICUG_clean_linker_0, # of connection points: 2
#     Edge 32, Type (0, 0), BuildingBlock: OJICUG_clean_linker_0, # of connection points: 2
#     Edge 33, Type (0, 0), BuildingBlock: OJICUG_clean_linker_0, # of connection points: 2
#     Edge 34, Type (0, 0), BuildingBlock: OJICUG_clean_linker_0, # of connection points: 2
#     Edge 35, Type (0, 0), BuildingBlock: OJICUG_clean_linker_0, # of connection points: 2
#     Edge 36, Type (0, 0), BuildingBlock: OJICUG_clean_linker_0, # of connection points: 2
#     Edge 37, Type (0, 0), BuildingBlock: OJICUG_clean_linker_0, # of connection points: 2
#     Edge 38, Type (0, 0), BuildingBlock: OJICUG_clean_linker_0, # of connection points: 2
#     Edge 39, Type (0, 0), BuildingBlock: OJICUG_clean_linker_0, # of connection points: 2
#     Edge 40, Type (0, 0), BuildingBlock: OJICUG_clean_linker_0, # of connection points: 2
#     Edge 41, Type (0, 0), BuildingBlock: OJICUG_clean_linker_0, # of connection points: 2
# Relax obj value: 0.287
# Max RMSD: 0.257
# Mean RMSD: 0.235
data_MOF--net-fnz--node1-BEQFEK_clean_sbu_0--edge1-OJICUG_clean_linker_0
_symmetry_space_group_name_H-M    P1
_symmetry_Int_Tables_number       1
_symmetry_cell_setting            triclinic
loop_
_symmetry_equiv_pos_as_xyz
'x, y, z'
_cell_length_a     29.157839
_cell_length_b     28.911422
_cell_length_c     26.558471
_cell_angle_alpha  89.968611
_cell_angle_beta   89.804108
_cell_angle_gamma 119.75927
loop_
_atom_site_label
_atom_site_type_symbol
_atom_site_fract_x
_atom_site_fract_y
_atom_site_fract_z
_atom_type_partial_charge
Co0 Co 0.39288 0.12425 0.09633 0.0
Co1 Co 0.36883 0.09991 0.97713 0.0
C2 C 0.45755 0.09606 1.03629 0.0
O3 O 0.4548 0.11976 0.07572 0.0
O4 O 0.42962 0.09072 0.99739 0.0
C5 C 0.4319 0.15642 0.20212 0.0
O6 O 0.47328 0.1524 0.18907 0.0
C7 C 0.38689 0.13968 0.86855 0.0
C8 C 0.32327 0.06921 0.83102 0.0
C9 C 0.36257 0.12132 0.82157 0.0
N10 N 0.36221 0.10045 0.9034 0.0
N11 N 0.3248 0.05835 0.88006 0.0
C12 C 0.43063 0.19434 0.88095 0.0
H13 H 0.43453 0.20032 0.92231 0.0
H14 H 0.42341 0.22488 0.86313 0.0
H15 H 0.46833 0.19929 0.86584 0.0
C16 C 0.37136 0.2087 0.06928 0.0
N17 N 0.38055 0.16958 0.05481 0.0
N18 N 0.36613 0.15734 1.00755 0.0
C19 C 0.34455 0.18646 0.99138 0.0
C20 C 0.34721 0.21979 1.03002 0.0
C21 C 0.38522 0.23449 0.12003 0.0
H22 H 0.35323 0.20983 0.14712 0.0
H23 H 0.42258 0.23744 0.13336 0.0
H24 H 0.39009 0.27506 0.11881 0.0
O25 O 0.33572 0.04922 0.08781 0.0
O26 O 0.31151 0.03328 1.00693 0.0
H27 H 0.29759 0.13431 0.93162 0.0
H28 H 0.28121 0.18498 0.94833 0.0
C29 C 0.31403 0.17631 0.94352 0.0
H30 H 0.34055 0.20291 0.91354 0.0
H31 H 0.29898 0.02253 0.89802 0.0
O32 O 0.39562 0.14555 0.16981 0.0
C33 C 0.30748 0.01784 0.05274 0.0
Co34 Co 0.33063 0.47397 0.12978 0.0
Co35 Co 0.35136 0.50587 1.01583 0.0
C36 C 0.44023 0.53254 0.08437 0.0
O37 O 0.40823 0.51055 0.12081 0.0
O38 O 0.42419 0.54069 1.04259 0.0
C39 C 0.31733 0.5162 0.21896 0.0
O40 O 0.34062 0.55929 0.19083 0.0
C41 C 0.36065 0.56742 0.92411 0.0
C42 C 0.34445 0.50716 0.86577 0.0
C43 C 0.35222 0.55811 0.87273 0.0
N44 N 0.35607 0.52343 0.94621 0.0
N45 N 0.34813 0.48822 0.91084 0.0
C46 C 0.37572 0.61812 0.95161 0.0
H47 H 0.3598 0.60975 0.99058 0.0
H48 H 0.36299 0.64324 0.93117 0.0
H49 H 0.41932 0.64071 0.95471 0.0
C50 C 0.2376 0.47753 0.10755 0.0
N51 N 0.28911 0.49729 0.09631 0.0
N52 N 0.29793 0.51419 0.04943 0.0
C53 C 0.25202 0.50771 1.03034 0.0
C54 C 0.21241 0.4841 0.06642 0.0
C55 C 0.2102 0.43816 0.14944 0.0
H56 H 0.23221 0.41746 0.15949 0.0
H57 H 0.20696 0.45948 0.18271 0.0
H58 H 0.1698 0.4069 0.13889 0.0
O59 O 0.30829 0.40359 0.10142 0.0
O60 O 0.32795 0.42894 1.02096 0.0
H61 H 0.25332 0.4927 0.95144 0.0
H62 H 0.20314 0.50907 0.96955 0.0
C63 C 0.24396 0.51737 0.97675 0.0
H64 H 0.27047 0.55989 0.96864 0.0
H65 H 0.34221 0.45011 0.91779 0.0
O66 O 0.31401 0.47333 0.20238 0.0
C67 C 0.3118 0.39318 0.05526 0.0
Co68 Co 0.88675 0.29775 0.1163 0.0
Co69 Co 0.8861 0.28954 0.99194 0.0
C70 C 0.87073 0.36322 0.04629 0.0
O71 O 0.852 0.33556 0.08624 0.0
O72 O 0.85748 0.33814 1.00472 0.0
C73 C 0.828 0.26901 0.21251 0.0
O74 O 0.78828 0.25888 0.18263 0.0
C75 C 0.84663 0.26103 0.88341 0.0
C76 C 0.90892 0.24712 0.85269 0.0
C77 C 0.86189 0.24504 0.8393 0.0
N78 N 0.88259 0.27083 0.92021 0.0
N79 N 0.91983 0.26284 0.9009 0.0
C80 C 0.79773 0.26456 0.89165 0.0
H81 H 0.7929 0.27089 0.93209 0.0
H82 H 0.76261 0.22746 0.8786 0.0
H83 H 0.80058 0.29857 0.86971 0.0
C84 C 0.83797 0.18249 0.1034 0.0
N85 N 0.85898 0.2314 0.08321 0.0
N86 N 0.85206 0.2273 1.03396 0.0
C87 C 0.82323 0.17527 1.022 0.0
C88 C 0.81336 0.14505 0.06572 0.0
C89 C 0.84394 0.17188 0.15752 0.0
H90 H 0.8825 0.20342 0.17208 0.0
H91 H 0.81205 0.17191 0.18026 0.0
H92 H 0.84133 0.13245 0.1619 0.0
O93 O 0.96205 0.33793 0.09801 0.0
O94 O 0.96278 0.33033 1.01393 0.0
H95 H 0.83155 0.15596 0.94607 0.0
H96 H 0.76583 0.11537 0.97165 0.0
C97 C 0.80073 0.1559 0.97073 0.0
H98 H 0.78832 0.18308 0.95437 0.0
H99 H 0.95235 0.2671 0.92106 0.0
O100 O 0.87397 0.28734 0.19291 0.0
C101 C 0.98679 0.34744 0.05606 0.0
Co102 Co 0.53644 0.86909 0.13527 0.0
Co103 Co 0.54066 0.86204 1.01862 0.0
C104 C 0.48905 0.91644 0.06737 0.0
O105 O 0.49735 0.90499 0.11143 0.0
O106 O 0.5005 0.89844 1.02879 0.0
C107 C 0.47945 0.81133 0.21963 0.0
O108 O 0.44224 0.78835 0.1856 0.0
C109 C 0.49173 0.81379 0.92399 0.0
C110 C 0.55986 0.84087 0.87277 0.0
C111 C 0.5055 0.80799 0.87558 0.0
N112 N 0.5358 0.84767 0.94886 0.0
N113 N 0.57634 0.86509 0.91761 0.0
C114 C 0.43765 0.78561 0.94699 0.0
H115 H 0.41496 0.80451 0.93319 0.0
H116 H 0.43988 0.78852 0.98866 0.0
H117 H 0.4161 0.74325 0.93521 0.0
C118 C 0.54167 0.77239 0.12398 0.0
N119 N 0.52598 0.80568 0.10514 0.0
N120 N 0.52 0.7989 0.05627 0.0
C121 C 0.52781 0.75819 0.04334 0.0
C122 C 0.54287 0.74077 0.08541 0.0
C123 C 0.56979 0.78134 0.17326 0.0
H124 H 0.58463 0.82252 0.18678 0.0
H125 H 0.54218 0.75242 0.20128 0.0
H126 H 0.60413 0.77488 0.16979 0.0
O127 O 0.60974 0.92094 0.1218 0.0
O128 O 0.61461 0.91556 1.03804 0.0
H129 H 0.55726 0.76886 0.96783 0.0
H130 H 0.52527 0.70049 0.98992 0.0
C131 C 0.52444 0.73843 0.991 0.0
H132 H 0.48638 0.7308 0.97547 0.0
H133 H 0.61547 0.89101 0.92773 0.0
O134 O 0.52229 0.85301 0.20749 0.0
C135 C 0.63564 0.93572 0.08052 0.0
Co136 Co 0.68186 0.55206 0.15067 0.0
Co137 Co 0.69549 0.56299 1.02662 0.0
C138 C 0.60889 0.48174 0.07931 0.0
O139 O 0.63197 0.48225 0.12017 0.0
O140 O 0.63513 0.48982 1.03856 0.0
C141 C 0.67663 0.50999 0.25688 0.0
O142 O 0.64466 0.46156 0.24056 0.0
C143 C 0.7226 0.54964 0.91718 0.0
C144 C 0.74985 0.6312 0.89004 0.0
C145 C 0.74346 0.58251 0.87448 0.0
N146 N 0.71776 0.57821 0.95544 0.0
N147 N 0.73413 0.62683 0.9383 0.0
C148 C 0.70666 0.49205 0.92143 0.0
H149 H 0.68111 0.47387 0.95497 0.0
H150 H 0.74253 0.4883 0.92545 0.0
H151 H 0.68559 0.47047 0.88689 0.0
C152 C 0.79591 0.59993 0.1404 0.0
N153 N 0.74808 0.57785 0.11884 0.0
N154 N 0.75353 0.57781 0.06946 0.0
C155 C 0.80517 0.59812 0.05853 0.0
C156 C 0.83354 0.61316 0.10317 0.0
C157 C 0.8057 0.61367 0.19503 0.0
H158 H 0.78039 0.63 0.20795 0.0
H159 H 0.79551 0.57702 0.21679 0.0
H160 H 0.8475 0.6438 0.20234 0.0
O161 O 0.65714 0.60223 0.13311 0.0
O162 O 0.66921 0.61223 0.04945 0.0
H163 H 0.82796 0.63537 0.98622 0.0
H164 H 0.86647 0.60568 1.00716 0.0
C165 C 0.82639 0.60107 1.00653 0.0
H166 H 0.79984 0.56411 0.98588 0.0
H167 H 0.73509 0.65745 0.95987 0.0
O168 O 0.69222 0.54926 0.22646 0.0
C169 C 0.65481 0.62307 0.09144 0.0
Co170 Co 0.12939 0.64891 0.13302 0.0
Co171 Co 0.11443 0.66285 1.01941 0.0
C172 C 0.07421 0.55665 0.05774 0.0
O173 O 0.09009 0.57698 0.10121 0.0
O174 O 0.08806 0.58583 1.0185 0.0
C175 C 0.21114 0.66345 0.19983 0.0
O176 O 0.23837 0.67452 0.15772 0.0
C177 C 0.13524 0.69217 0.91252 0.0
C178 C 0.10143 0.7456 0.9078 0.0
C179 C 0.13323 0.73032 0.88222 0.0
N180 N 0.10847 0.68791 0.95519 0.0
N181 N 0.08646 0.71812 0.9511 0.0
C182 C 0.16714 0.66516 0.90419 0.0
H183 H 0.17254 0.64882 0.94013 0.0
H184 H 0.20605 0.69294 0.88704 0.0
H185 H 0.14574 0.63171 0.87752 0.0
C186 C 0.2059 0.75822 0.11312 0.0
N187 N 0.18064 0.70768 0.0959 0.0
N188 N 0.18266 0.70805 0.04644 0.0
C189 C 0.2135 0.75912 1.03142 0.0
C190 C 0.22694 0.79258 0.07257 0.0
C191 C 0.19927 0.77339 0.16545 0.0
H192 H 0.16814 0.73871 0.18626 0.0
H193 H 0.23718 0.7889 0.18587 0.0
H194 H 0.18887 0.80547 0.1644 0.0
O195 O 0.07274 0.66428 0.14419 0.0
O196 O 0.06265 0.67096 0.06191 0.0
H197 H 0.20591 0.78447 0.95774 0.0
H198 H 0.27225 0.8143 0.97982 0.0
C199 C 0.23377 0.77661 0.97908 0.0
H200 H 0.23945 0.7458 0.96015 0.0
H201 H 0.06529 0.72383 0.97981 0.0
O202 O 0.16177 0.64685 0.19799 0.0
C203 C 0.04911 0.67159 0.10748 0.0
Co204 Co 0.84502 0.52273 0.58116 0.0
Co205 Co 0.85812 0.63626 0.5766 0.0
C206 C 0.81605 0.56939 0.67115 0.0
O207 O 0.81921 0.53025 0.65224 0.0
O208 O 0.83064 0.61164 0.64547 0.0
C209 C 0.85789 0.42764 0.55738 0.0
O210 O 0.83441 0.37592 0.55039 0.0
C211 C 0.82619 0.71618 0.58009 0.0
C212 C 0.8831 0.77859 0.52875 0.0
C213 C 0.83811 0.76404 0.55735 0.0
N214 N 0.86229 0.70307 0.56576 0.0
N215 N 0.89729 0.74131 0.53634 0.0
C216 C 0.77554 0.67846 0.60645 0.0
H217 H 0.76962 0.63758 0.60742 0.0
H218 H 0.74119 0.67705 0.58713 0.0
H219 H 0.77654 0.69276 0.64539 0.0
C220 C 0.78336 0.51165 0.48603 0.0
N221 N 0.80965 0.53854 0.52779 0.0
N222 N 0.81398 0.58605 0.52702 0.0
C223 C 0.78941 0.59037 0.48568 0.0
C224 C 0.76949 0.54362 0.45763 0.0
C225 C 0.77755 0.45914 0.47099 0.0
H226 H 0.81654 0.4613 0.47332 0.0
H227 H 0.75043 0.42799 0.49778 0.0
H228 H 0.76227 0.44774 0.43217 0.0
O229 O 0.92257 0.56939 0.57189 0.0
O230 O 0.93082 0.64982 0.56988 0.0
H231 H 0.82367 0.67244 0.46448 0.0
H232 H 0.75683 0.63097 0.44204 0.0
C233 C 0.78424 0.6382 0.47367 0.0
H234 H 0.76824 0.64854 0.50679 0.0
H235 H 0.92864 0.74004 0.51856 0.0
O236 O 0.8299 0.44793 0.5719 0.0
C237 C 0.95095 0.61971 0.56765 0.0
Co238 Co 0.28767 0.84481 0.45206 0.0
Co239 Co 0.2848 0.86526 0.56663 0.0
C240 C 0.3856 0.92107 0.51231 0.0
O241 O 0.36224 0.89773 0.47178 0.0
O242 O 0.36061 0.91038 0.55381 0.0
C243 C 0.29274 0.76995 0.3856 0.0
O244 O 0.29552 0.74815 0.42802 0.0
C245 C 0.28233 0.85456 0.67736 0.0
C246 C 0.22548 0.88147 0.69609 0.0
C247 C 0.25299 0.85851 0.71671 0.0
N248 N 0.27061 0.87221 0.63517 0.0
N249 N 0.23809 0.88996 0.64708 0.0
C250 C 0.32224 0.83638 0.67985 0.0
H251 H 0.32936 0.82515 0.64185 0.0
H252 H 0.30999 0.80286 0.70666 0.0
H253 H 0.36004 0.86987 0.6937 0.0
C254 C 0.19975 0.74505 0.4875 0.0
N255 N 0.24769 0.78733 0.49734 0.0
N256 N 0.25429 0.79275 0.54641 0.0
C257 C 0.21253 0.7509 0.56861 0.0
C258 C 0.17554 0.72079 0.53247 0.0
C259 C 0.17174 0.73733 0.43834 0.0
H260 H 0.19472 0.7711 0.41234 0.0
H261 H 0.16533 0.69978 0.42084 0.0
H262 H 0.13232 0.73352 0.44446 0.0
O263 O 0.24803 0.88365 0.446 0.0
O264 O 0.24618 0.89434 0.52872 0.0
H265 H 0.19148 0.77224 0.63864 0.0
H266 H 0.17036 0.70267 0.63286 0.0
C267 C 0.20286 0.74349 0.62404 0.0
H268 H 0.23899 0.7491 0.64279 0.0
H269 H 0.222 0.90505 0.62124 0.0
O270 O 0.29073 0.81295 0.38656 0.0
C271 C 0.23313 0.89953 0.48421 0.0
Co272 Co 0.43522 0.30031 0.53939 0.0
Co273 Co 0.31761 0.20986 0.52849 0.0
C274 C 0.38016 0.21976 0.62339 0.0
O275 O 0.42238 0.25975 0.60637 0.0
O276 O 0.33843 0.19842 0.59677 0.0
C277 C 0.53844 0.40216 0.5228 0.0
O278 O 0.58976 0.4244 0.51639 0.0
C279 C 0.23827 0.09962 0.52349 0.0
C280 C 0.17929 0.09831 0.47068 0.0
C281 C 0.19339 0.06564 0.49655 0.0
N282 N 0.25032 0.1499 0.51396 0.0
N283 N 0.21396 0.14904 0.48372 0.0
C284 C 0.27548 0.08545 0.54915 0.0
H285 H 0.31697 0.11709 0.5427 0.0
H286 H 0.27076 0.04706 0.53563 0.0
H287 H 0.26747 0.08205 0.59022 0.0
C288 C 0.44283 0.25603 0.43894 0.0
N289 N 0.4162 0.25442 0.48145 0.0
N290 N 0.36688 0.21596 0.47727 0.0
C291 C 0.3609 0.19152 0.43238 0.0
C292 C 0.40853 0.21623 0.40617 0.0
C293 C 0.49836 0.2985 0.4279 0.0
H294 H 0.50106 0.33808 0.43046 0.0
H295 H 0.52511 0.29697 0.45663 0.0
H296 H 0.51148 0.29404 0.38987 0.0
O297 O 0.39468 0.33931 0.5375 0.0
O298 O 0.3111 0.27477 0.52963 0.0
H299 H 0.27996 0.15597 0.41029 0.0
H300 H 0.31571 0.12815 0.37886 0.0
C301 C 0.31072 0.14447 0.41488 0.0
H302 H 0.29755 0.11242 0.44325 0.0
H303 H 0.21549 0.18303 0.46842 0.0
O304 O 0.51225 0.35259 0.53323 0.0
C305 C 0.34557 0.32396 0.53331 0.0
Co306 Co 0.14825 0.46461 0.48295 0.0
Co307 Co 0.14841 0.47274 0.59962 0.0
C308 C 0.07706 0.49591 0.53599 0.0
O309 O 0.0947 0.48789 0.49495 0.0
O310 O 0.09723 0.49425 0.57768 0.0
C311 C 0.1854 0.50886 0.38519 0.0
O312 O 0.19496 0.55336 0.40743 0.0
C313 C 0.20259 0.54228 0.6839 0.0
C314 C 0.16619 0.48991 0.7495 0.0
C315 C 0.20652 0.54017 0.73569 0.0
N316 N 0.16316 0.49513 0.66785 0.0
N317 N 0.14037 0.46453 0.70745 0.0
C318 C 0.23777 0.58751 0.64981 0.0
H319 H 0.21555 0.5876 0.61598 0.0
H320 H 0.27155 0.58294 0.63714 0.0
H321 H 0.25369 0.62606 0.66997 0.0
C322 C 0.25579 0.49188 0.50103 0.0
N323 N 0.21531 0.49916 0.51605 0.0
N324 N 0.21332 0.4974 0.56555 0.0
C325 C 0.24994 0.48572 0.58288 0.0
C326 C 0.27718 0.48038 0.5425 0.0
C327 C 0.26452 0.4807 0.44791 0.0
H328 H 0.2297 0.44362 0.43459 0.0
H329 H 0.27147 0.5149 0.42404 0.0
H330 H 0.29976 0.47585 0.44416 0.0
O331 O 0.11551 0.39014 0.5074 0.0
O332 O 0.11333 0.39446 0.59143 0.0
H333 H 0.20664 0.43009 0.64217 0.0
H334 H 0.2757 0.44833 0.63887 0.0
C335 C 0.24727 0.463 0.63442 0.0
H336 H 0.25721 0.49399 0.66304 0.0
H337 H 0.10928 0.42526 0.70547 0.0
O338 O 0.16089 0.46538 0.4096 0.0
C339 C 0.10449 0.36772 0.5507 0.0
Co340 Co 0.69642 0.1332 0.55435 0.0
Co341 Co 0.79045 0.11289 0.54625 0.0
C342 C 0.769 0.16501 0.63963 0.0
O343 O 0.73013 0.16799 0.62105 0.0
O344 O 0.79087 0.14378 0.61418 0.0
C345 C 0.60302 0.09179 0.50515 0.0
O346 O 0.63324 0.08371 0.47374 0.0
C347 C 0.90147 0.16478 0.55406 0.0
C348 C 0.92525 0.10663 0.52987 0.0
C349 C 0.94458 0.15783 0.54818 0.0
N350 N 0.8581 0.1196 0.54148 0.0
N351 N 0.87211 0.08445 0.52737 0.0
C352 C 0.90191 0.2154 0.56738 0.0
H353 H 0.86488 0.21396 0.55533 0.0
H354 H 0.93607 0.25013 0.54938 0.0
H355 H 0.90594 0.22107 0.60878 0.0
C356 C 0.74331 0.19061 0.45525 0.0
N357 N 0.74324 0.16359 0.49695 0.0
N358 N 0.78134 0.15201 0.49269 0.0
C359 C 0.80613 0.17019 0.44795 0.0
C360 C 0.78321 0.19574 0.42219 0.0
C361 C 0.70601 0.21141 0.44759 0.0
H362 H 0.67115 0.18177 0.42619 0.0
H363 H 0.69208 0.21789 0.48446 0.0
H364 H 0.72539 0.24917 0.42574 0.0
O365 O 0.67193 0.0556 0.55931 0.0
O366 O 0.73558 0.03722 0.54434 0.0
H367 H 0.83985 0.11913 0.44249 0.0
H368 H 0.84809 0.15806 0.38663 0.0
C369 C 0.84745 0.15842 0.42838 0.0
H370 H 0.88674 0.18937 0.44211 0.0
H371 H 0.84572 0.04589 0.51535 0.0
O372 O 0.62487 0.12346 0.54204 0.0
C373 C 0.68725 0.02185 0.5531 0.0
Co374 Co 0.53592 0.68387 0.47594 0.0
Co375 Co 0.53322 0.66834 0.59087 0.0
C376 C 0.49887 0.5762 0.52126 0.0
O377 O 0.50835 0.60519 0.48225 0.0
O378 O 0.50373 0.596 0.56471 0.0
C379 C 0.48632 0.68373 0.38314 0.0
O380 O 0.44275 0.64836 0.4058 0.0
C381 C 0.47587 0.65684 0.68308 0.0
C382 C 0.53346 0.66487 0.74073 0.0
C383 C 0.48482 0.662 0.73442 0.0
N384 N 0.51812 0.65908 0.66032 0.0
N385 N 0.55165 0.6619 0.69501 0.0
C386 C 0.42876 0.65177 0.65569 0.0
H387 H 0.4203 0.62562 0.62237 0.0
H388 H 0.43673 0.69129 0.64209 0.0
H389 H 0.39384 0.63549 0.68097 0.0
C390 C 0.51558 0.76779 0.50609 0.0
N391 N 0.50692 0.71818 0.51646 0.0
N392 N 0.51134 0.71464 0.56537 0.0
C393 C 0.52694 0.76266 0.58657 0.0
C394 C 0.53024 0.79804 0.5497 0.0
C395 C 0.52505 0.79138 0.45441 0.0
H396 H 0.56059 0.79267 0.43781 0.0
H397 H 0.49002 0.76686 0.4309 0.0
H398 H 0.53133 0.83253 0.45507 0.0
O399 O 0.61193 0.7201 0.49467 0.0
O400 O 0.60947 0.70664 0.57779 0.0
H401 H 0.58347 0.76362 0.63924 0.0
H402 H 0.57804 0.82313 0.64075 0.0
C403 C 0.55576 0.77926 0.63593 0.0
H404 H 0.52714 0.76286 0.6672 0.0
H405 H 0.58836 0.66543 0.68728 0.0
O406 O 0.53038 0.7001 0.40508 0.0
C407 C 0.6351 0.72663 0.537 0.0
C408 C 0.47032 0.02246 1.00258 0.0
C409 C 0.47506 0.0562 1.04278 0.0
H410 H 0.46824 0.9508 0.97908 0.0
C411 C 0.4835 0.04265 0.09152 0.0
H412 H 0.46311 0.03104 0.96464 0.0
C413 C 0.4851 0.99573 0.10002 0.0
C414 C 0.47888 0.96137 0.05997 0.0
H415 H 0.48652 0.06701 0.12369 0.0
H416 H 0.4919 0.98681 0.13797 0.0
C417 C 0.47204 0.97568 1.01107 0.0
C418 C 0.55536 0.51813 1.03788 0.0
C419 C 0.56918 0.50005 0.08143 0.0
H420 H 0.50648 0.54596 1.00517 0.0
C421 C 0.54442 0.49945 0.1272 0.0
H422 H 0.5736 0.51941 1.00192 0.0
C423 C 0.50576 0.51475 0.12907 0.0
C424 C 0.49072 0.53126 0.08525 0.0
H425 H 0.55402 0.48593 0.16155 0.0
H426 H 0.48601 0.5114 0.16462 0.0
C427 C 0.51727 0.53421 1.03991 0.0
C428 C 0.0056 0.47881 1.00823 0.0
C429 C 0.02659 0.50274 0.05495 0.0
H430 H 0.93999 0.41692 0.96855 0.0
C431 C -0.00405 0.47985 0.09862 0.0
H432 H 0.0275 0.49587 0.97373 0.0
C433 C 0.94561 0.43497 0.09568 0.0
C434 C 0.92435 0.41128 0.04901 0.0
H435 H 0.01001 0.49764 0.13525 0.0
H436 H 0.92317 0.41905 0.13012 0.0
C437 C 0.95505 0.43386 1.00525 0.0
C438 C 0.99023 0.47286 0.49588 0.0
C439 C 0.02461 0.49326 0.53726 0.0
H440 H 0.91002 0.43623 0.47006 0.0
C441 C 0.00423 0.50026 0.58315 0.0
H442 H 0.00408 0.46628 0.46017 0.0
C443 C 0.95029 0.48352 0.5885 0.0
C444 C 0.91552 0.4594 0.54818 0.0
H445 H 0.02932 0.51565 0.61594 0.0
H446 H 0.93519 0.48597 0.62514 0.0
C447 C 0.93622 0.45557 0.5015 0.0
C448 C 0.52244 0.01997 0.46332 0.0
C449 C 0.54567 0.05271 0.50553 0.0
H450 H 0.45437 0.95257 0.43241 0.0
C451 C 0.51567 0.04199 0.54989 0.0
H452 H 0.54462 0.02687 0.42865 0.0
C453 C 0.46414 -0.00134 0.55234 0.0
C454 C 0.44123 0.9653 0.51035 0.0
H455 H 0.5326 0.06585 0.58331 0.0
H456 H 0.4423 0.99136 0.58726 0.0
C457 C 0.47084 0.97695 0.46563 0.0
C458 C 0.4947 0.44854 0.56177 0.0
C459 C 0.51387 0.43594 0.51852 0.0
H460 H 0.47391 0.50246 0.59641 0.0
C461 C 0.52028 0.46485 0.47401 0.0
H462 H 0.49044 0.42745 0.59675 0.0
C463 C 0.51014 0.50745 0.47334 0.0
C464 C 0.49481 0.52291 0.51767 0.0
H465 H 0.53603 0.45639 0.44045 0.0
H466 H 0.51829 0.53071 0.43914 0.0
C467 C 0.48561 0.49179 0.5615 0.0
C468 C 0.24067 0.92411 1.0305 0.0
C469 C 0.27952 0.96005 0.06337 0.0
H470 H 0.192 0.84278 1.00918 0.0
C471 C 0.29807 0.94005 0.10193 0.0
H472 H 0.22558 0.93828 1.00059 0.0
C473 C 0.28053 0.88556 0.1055 0.0
C474 C 0.24363 0.85003 0.07108 0.0
H475 H 0.32864 0.96676 0.12751 0.0
H476 H 0.29729 0.87153 0.13394 0.0
C477 C 0.22235 0.86956 1.03482 0.0
C478 C 0.2978 0.25827 0.07272 0.0
C479 C 0.32632 0.25663 1.03078 0.0
H480 H 0.26986 0.30323 0.11331 0.0
C481 C 0.33953 0.29397 0.99201 0.0
H482 H 0.2856 0.22853 0.10221 0.0
C483 C 0.32954 0.33602 0.99772 0.0
C484 C 0.30685 0.34142 1.04261 0.0
H485 H 0.36109 0.29298 0.95912 0.0
H486 H 0.34377 0.36655 0.96883 0.0
C487 C 0.28838 0.30064 0.07881 0.0
C488 C 0.06756 0.42 0.09645 0.0
C489 C 0.04447 0.3841 0.05634 0.0
H490 H 0.13833 0.48274 0.1286 0.0
C491 C 0.07683 0.38458 1.01686 0.0
H492 H 0.04384 0.42051 0.12765 0.0
C493 C 0.13154 0.4187 1.01874 0.0
C494 C 0.15442 0.45466 0.05891 0.0
H495 H 0.06015 0.35714 0.98565 0.0
H496 H 0.15597 0.41524 0.98989 0.0
C497 C 0.12163 0.45589 0.09694 0.0
C498 C 0.76809 0.04889 1.0391 0.0
C499 C 0.77364 0.08842 0.07329 0.0
H500 H 0.71868 0.96837 1.01391 0.0
C501 C 0.73746 0.07466 0.11311 0.0
H502 H 0.79609 0.05838 1.00855 0.0
C503 C 0.69542 0.02326 0.11769 0.0
C504 C 0.68712 0.98481 0.08125 0.0
H505 H 0.73933 0.10427 0.13915 0.0
H506 H 0.66702 0.01505 0.14762 0.0
C507 C 0.72434 -0.00251 1.04243 0.0
C508 C 0.56253 0.6746 0.126 0.0
C509 C 0.57101 0.70994 0.08627 0.0
H510 H 0.58426 0.62133 0.16005 0.0
C511 C 0.60934 0.71859 0.04952 0.0
H512 H 0.53356 0.66755 0.15502 0.0
C513 C 0.63695 0.69068 0.05124 0.0
C514 C 0.6284 0.6553 0.09097 0.0
H515 H 0.61863 0.74744 1.01968 0.0
H516 H 0.66541 0.69724 1.02183 0.0
C517 C 0.59168 0.64833 0.12887 0.0
C518 C 0.92679 0.67718 0.07921 0.0
C519 C 0.89064 0.63586 0.1103 0.0
H520 H 0.00726 0.72222 0.05473 0.0
C521 C 0.90906 0.61418 0.147 0.0
H522 H 0.9134 0.69537 0.05157 0.0
C523 C 0.96265 0.63096 0.15022 0.0
C524 C -0.00183 0.66856 0.11583 0.0
H525 H 0.88175 0.58205 0.17125 0.0
H526 H 0.97541 0.61087 0.17639 0.0
C527 C 0.98032 0.69309 0.08158 0.0
C528 C 0.08428 0.64181 0.52348 0.0
C529 C 0.11789 0.69332 0.54156 0.0
H530 H 0.004 0.57851 0.51657 0.0
C531 C 0.09619 0.72059 0.5671 0.0
H532 H 0.10012 0.62069 0.50256 0.0
C533 C 0.04209 0.69625 0.57603 0.0
C534 C 0.00835 0.64425 0.55915 0.0
H535 H 0.12111 0.76116 0.57979 0.0
H536 H 0.02665 0.71823 0.59613 0.0
C537 C 0.02971 0.6175 0.53213 0.0
C538 C 0.20059 0.00272 0.43872 0.0
C539 C 0.17963 0.01098 0.48335 0.0
H540 H 0.23478 0.95995 0.40384 0.0
C541 C 0.16338 0.97315 0.52203 0.0
H542 H 0.21353 0.03172 0.40848 0.0
C543 C 0.17544 0.93222 0.51941 0.0
C544 C 0.20432 0.9291 0.47829 0.0
H545 H 0.14737 0.979 0.55678 0.0
H546 H 0.16672 0.9063 0.55175 0.0
C547 C 0.21313 0.96191 0.43622 0.0
C548 C 0.34669 0.45546 0.52349 0.0
C549 C 0.29586 0.44112 0.54074 0.0
H550 H 0.40052 0.42789 0.50408 0.0
C551 C 0.26057 0.38752 0.55291 0.0
H552 H 0.37385 0.49613 0.51219 0.0
C553 C 0.27659 0.34942 0.55022 0.0
C554 C 0.32794 0.3639 0.53427 0.0
H555 H 0.22044 0.37507 0.56457 0.0
H556 H 0.24887 0.30873 0.56101 0.0
C557 C 0.36221 0.41686 0.5196 0.0
C558 C 0.05386 0.28237 0.59841 0.0
C559 C 0.07615 0.30897 0.5529 0.0
H560 H -0.00578 0.21034 0.63255 0.0
C561 C 0.06523 0.2791 0.50826 0.0
H562 H 0.06223 0.30399 0.63358 0.0
C563 C 0.02688 0.22526 0.50799 0.0
C564 C -0.00071 0.20097 0.55229 0.0
H565 H 0.08277 0.2982 0.47272 0.0
H566 H 0.01447 0.20465 0.47227 0.0
C567 C 0.01553 0.22858 0.59804 0.0
C568 C 0.66164 0.92558 0.54369 0.0
C569 C 0.64711 0.96435 0.55329 0.0
H570 H 0.63539 0.84239 0.53475 0.0
C571 C 0.59323 0.94779 0.56142 0.0
H572 H 0.70256 0.93682 0.53707 0.0
C573 C 0.5549 0.89374 0.56004 0.0
C574 C 0.56978 0.85547 0.55036 0.0
H575 H 0.58051 0.97658 0.56865 0.0
H576 H 0.5138 0.88187 0.56649 0.0
C577 C 0.6233 0.87167 0.54215 0.0
C578 C 0.71909 0.7725 0.58516 0.0
C579 C 0.69315 0.7547 0.53878 0.0
H580 H 0.78914 0.79288 0.62697 0.0
C581 C 0.72261 0.75784 0.49569 0.0
H582 H 0.6976 0.77199 0.61871 0.0
C583 C 0.77518 0.77045 0.50047 0.0
C584 C 0.79838 0.77997 0.5483 0.0
H585 H 0.70379 0.74528 0.45929 0.0
H586 H 0.79512 0.76579 0.46799 0.0
C587 C 0.7717 0.78548 0.5898 0.0
C588 C 0.38343 0.20229 0.31469 0.0
C589 C 0.41777 0.20525 0.35322 0.0
H590 H 0.36025 0.18395 0.23757 0.0
C591 C 0.45833 0.19422 0.34124 0.0
H592 H 0.35216 0.21119 0.32263 0.0
C593 C 0.46341 0.17905 0.29214 0.0
C594 C 0.42778 0.17421 0.25396 0.0
H595 H 0.48522 0.19592 0.37017 0.0
H596 H 0.49465 0.17008 0.28439 0.0
C597 C 0.38807 0.18661 0.26589 0.0
C598 C 0.24718 0.4656 0.28349 0.0
C599 C 0.28495 0.51463 0.26266 0.0
H600 H 0.1845 0.42511 0.33668 0.0
C601 C 0.28772 0.56169 0.28064 0.0
H602 H 0.24345 0.42852 0.27004 0.0
C603 C 0.25385 0.55974 0.31902 0.0
C604 C 0.21593 0.51067 0.33975 0.0
H605 H 0.31615 0.60012 0.26516 0.0
H606 H 0.25836 0.5968 0.33328 0.0
C607 C 0.21276 0.4636 0.3212 0.0
C608 C 0.76515 0.22457 0.28525 0.0
C609 C 0.81751 0.25353 0.26712 0.0
H610 H 0.71338 0.18298 0.347 0.0
C611 C 0.85869 0.26535 0.3013 0.0
H612 H 0.73219 0.21427 0.26028 0.0
C613 C 0.84767 0.24805 0.35179 0.0
C614 C 0.79521 0.21791 0.36946 0.0
H615 H 0.89947 0.28765 0.289 0.0
H616 H 0.88038 0.25797 0.37698 0.0
C617 C 0.75421 0.20689 0.33543 0.0
C618 C 0.43353 0.73233 0.27738 0.0
C619 C 0.4787 0.78088 0.26462 0.0
H620 H 0.40047 0.66294 0.32479 0.0
C621 C 0.52586 0.79651 0.29086 0.0
H622 H 0.39663 0.71907 0.25766 0.0
C623 C 0.52865 0.76343 0.32724 0.0
C624 C 0.48375 0.71484 0.34011 0.0
H625 H 0.56154 0.83339 0.28185 0.0
H626 H 0.56609 0.77665 0.34588 0.0
C627 C 0.43591 0.69981 0.31521 0.0
C628 C 0.69952 0.4858 0.39402 0.0
C629 C 0.74532 0.53386 0.40624 0.0
H630 H 0.64197 0.44029 0.3375 0.0
C631 C 0.76763 0.57378 0.36909 0.0
H632 H 0.68092 0.4544 0.42188 0.0
C633 C 0.74419 0.5667 0.3217 0.0
C634 C 0.69888 0.51849 0.30895 0.0
H635 H 0.80349 0.61089 0.37665 0.0
H636 H 0.76234 0.59897 0.29482 0.0
C637 C 0.67691 0.47797 0.34579 0.0
C638 C 0.28462 0.73569 0.24809 0.0
C639 C 0.23883 0.68524 0.2476 0.0
H640 H 0.33699 0.80314 0.2929 0.0
C641 C 0.21549 0.66031 0.29335 0.0
H642 H 0.30311 0.75593 0.21321 0.0
C643 C 0.23621 0.6865 0.33886 0.0
C644 C 0.27899 0.73881 0.33897 0.0
H645 H 0.1802 0.62144 0.29381 0.0
H646 H 0.21658 0.66721 0.37368 0.0
C647 C 0.30388 0.76281 0.29347 0.0
C648 C 0.45862 0.72921 0.75754 0.0
C649 C 0.46427 0.68523 0.77133 0.0
H650 H 0.46858 0.80466 0.78104 0.0
C651 C 0.46737 0.67531 0.82239 0.0
H652 H 0.45533 0.73781 0.71863 0.0
C653 C 0.47365 0.71313 0.85806 0.0
C654 C 0.47699 0.76127 0.84316 0.0
H655 H 0.47146 0.64159 0.83402 0.0
H656 H 0.48272 0.70744 0.89595 0.0
C657 C 0.46615 0.76774 0.79326 0.0
C658 C 0.77719 0.60417 0.7349 0.0
C659 C 0.79375 0.5673 0.72292 0.0
H660 H 0.74775 0.63655 0.78986 0.0
C661 C 0.79014 0.53165 0.76112 0.0
H662 H 0.7785 0.63198 0.70692 0.0
C663 C 0.77243 0.53462 0.81026 0.0
C664 C 0.75732 0.5729 0.82212 0.0
H665 H 0.80259 0.50273 0.75357 0.0
H666 H 0.77258 0.50826 0.83902 0.0
C667 C 0.75933 0.6068 0.7831 0.0
C668 C 0.21549 0.7721 0.76301 0.0
C669 C 0.23557 0.82756 0.76373 0.0
H670 H 0.16608 0.69721 0.79974 0.0
C671 C 0.22599 0.85073 0.80578 0.0
H672 H 0.22076 0.75284 0.73047 0.0
C673 C 0.19417 0.81885 0.84494 0.0
C674 C 0.17109 0.76311 0.8427 0.0
H675 H 0.24043 0.89324 0.80689 0.0
H676 H 0.18623 0.83785 0.8763 0.0
C677 C 0.18348 0.74004 0.80234 0.0
C678 C 0.32577 0.13053 0.73934 0.0
C679 C 0.36939 0.1494 0.77189 0.0
H680 H 0.29469 0.13747 0.669 0.0
C681 C 0.41769 0.19275 0.75509 0.0
H682 H 0.28774 0.09754 0.75041 0.0
C683 C 0.42183 0.21611 0.70719 0.0
C684 C 0.37782 0.19671 0.67484 0.0
H685 H 0.45266 0.20795 0.77813 0.0
H686 H 0.45957 0.24902 0.69538 0.0
C687 C 0.32981 0.15369 0.69209 0.0
C688 C 0.28766 0.58767 0.85179 0.0
C689 C 0.33055 0.58133 0.83687 0.0
H690 H 0.21283 0.57865 0.83032 0.0
C691 C 0.3395 0.57877 0.78533 0.0
H692 H 0.27978 0.59047 0.89095 0.0
C693 C 0.302 0.5742 0.75024 0.0
C694 C 0.25432 0.57038 0.76647 0.0
H695 H 0.37208 0.57366 0.7727 0.0
H696 H 0.30746 0.56643 0.71159 0.0
C697 C 0.2491 0.58103 0.81694 0.0
C698 C 0.79394 0.23201 0.77016 0.0
C699 C 0.83563 0.22515 0.78869 0.0
H700 H 0.7399 0.21866 0.70918 0.0
C701 C 0.85425 0.19874 0.75716 0.0
H702 H 0.77878 0.25304 0.79184 0.0
C703 C 0.83245 0.17978 0.7097 0.0
C704 C 0.79075 0.18614 0.69113 0.0
H705 H 0.88606 0.19221 0.76908 0.0
H706 H 0.84868 0.15984 0.68751 0.0
C707 C 0.77169 0.21258 0.72213 0.0
loop_
_geom_bond_atom_site_label_1
_geom_bond_atom_site_label_2
_geom_bond_distance
_geom_bond_site_symmetry_2
_ccdc_geom_bond_type
Co0 O3 1.970 . S
Co0 N17 1.989 . S
Co0 O25 1.967 . S
Co0 O32 1.920 . S
Co1 O4 1.966 . S
Co1 N10 2.022 . S
Co1 N18 1.993 . S
Co1 O26 1.941 . S
C2 O3 1.258 . S
C2 O4 1.263 1_554 S
O3 Co0 1.970 . S
O3 C2 1.258 . S
O4 Co1 1.966 . S
O4 C2 1.263 1_556 S
C5 O6 1.235 . S
C5 O32 1.289 . S
O6 C5 1.235 . S
C7 C9 1.400 . S
C7 N10 1.351 . S
C7 C12 1.501 . S
C8 C9 1.387 . S
C8 N11 1.341 . S
C9 C7 1.400 . S
C9 C8 1.387 . S
N10 Co1 2.022 . S
N10 C7 1.351 . S
N10 N11 1.365 . S
N11 C8 1.341 . S
N11 N10 1.365 . S
N11 H31 0.862 . S
C12 C7 1.501 . S
C12 H13 0.961 . S
C12 H14 0.961 . S
C12 H15 0.960 . S
H13 C12 0.961 . S
H14 C12 0.961 . S
H15 C12 0.960 . S
C16 N17 1.342 . S
C16 C20 1.401 . S
C16 C21 1.499 . S
N17 Co0 1.989 . S
N17 C16 1.342 . S
N17 N18 1.388 1_554 S
N18 Co1 1.993 . S
N18 N17 1.388 1_556 S
N18 C19 1.346 . S
C19 N18 1.346 . S
C19 C20 1.396 1_556 S
C19 C29 1.510 . S
C20 C16 1.401 . S
C20 C19 1.396 1_554 S
C21 C16 1.499 . S
C21 H22 0.959 . S
C21 H23 0.960 . S
C21 H24 0.961 . S
H22 C21 0.959 . S
H23 C21 0.960 . S
H24 C21 0.961 . S
O25 Co0 1.967 . S
O25 C33 1.258 . S
O26 Co1 1.941 . S
O26 C33 1.266 1_556 S
H27 C29 0.959 . S
H28 C29 0.961 . S
C29 C19 1.510 . S
C29 H27 0.959 . S
C29 H28 0.961 . S
C29 H30 0.960 . S
H30 C29 0.960 . S
H31 N11 0.862 . S
O32 Co0 1.920 . S
O32 C5 1.289 . S
C33 O25 1.258 . S
C33 O26 1.266 1_554 S
Co34 O37 1.970 . S
Co34 N51 1.989 . S
Co34 O59 1.967 . S
Co34 O66 1.920 . S
Co35 O38 1.966 . S
Co35 N44 2.022 . S
Co35 N52 1.993 1_556 S
Co35 O60 1.941 . S
C36 O37 1.258 . S
C36 O38 1.263 1_554 S
O37 Co34 1.970 . S
O37 C36 1.258 . S
O38 Co35 1.966 . S
O38 C36 1.263 1_556 S
C39 O40 1.235 . S
C39 O66 1.289 . S
O40 C39 1.235 . S
C41 C43 1.400 . S
C41 N44 1.351 . S
C41 C46 1.501 . S
C42 C43 1.387 . S
C42 N45 1.341 . S
C43 C41 1.400 . S
C43 C42 1.387 . S
N44 Co35 2.022 . S
N44 C41 1.351 . S
N44 N45 1.365 . S
N45 C42 1.341 . S
N45 N44 1.365 . S
N45 H65 0.862 . S
C46 C41 1.501 . S
C46 H47 0.961 . S
C46 H48 0.961 . S
C46 H49 0.960 . S
H47 C46 0.961 . S
H48 C46 0.961 . S
H49 C46 0.960 . S
C50 N51 1.342 . S
C50 C54 1.401 . S
C50 C55 1.499 . S
N51 Co34 1.989 . S
N51 C50 1.342 . S
N51 N52 1.388 . S
N52 Co35 1.993 1_554 S
N52 N51 1.388 . S
N52 C53 1.346 1_554 S
C53 N52 1.346 1_556 S
C53 C54 1.396 1_556 S
C53 C63 1.510 . S
C54 C50 1.401 . S
C54 C53 1.396 1_554 S
C55 C50 1.499 . S
C55 H56 0.959 . S
C55 H57 0.960 . S
C55 H58 0.961 . S
H56 C55 0.959 . S
H57 C55 0.960 . S
H58 C55 0.961 . S
O59 Co34 1.967 . S
O59 C67 1.258 . S
O60 Co35 1.941 . S
O60 C67 1.266 1_556 S
H61 C63 0.959 . S
H62 C63 0.961 . S
C63 C53 1.510 . S
C63 H61 0.959 . S
C63 H62 0.961 . S
C63 H64 0.960 . S
H64 C63 0.960 . S
H65 N45 0.862 . S
O66 Co34 1.920 . S
O66 C39 1.289 . S
C67 O59 1.258 . S
C67 O60 1.266 1_554 S
Co68 O71 1.970 . S
Co68 N85 1.989 . S
Co68 O93 1.967 . S
Co68 O100 1.920 . S
Co69 O72 1.966 . S
Co69 N78 2.022 . S
Co69 N86 1.993 . S
Co69 O94 1.941 . S
C70 O71 1.258 . S
C70 O72 1.263 1_554 S
O71 Co68 1.970 . S
O71 C70 1.258 . S
O72 Co69 1.966 . S
O72 C70 1.263 1_556 S
C73 O74 1.235 . S
C73 O100 1.289 . S
O74 C73 1.235 . S
C75 C77 1.400 . S
C75 N78 1.351 . S
C75 C80 1.501 . S
C76 C77 1.387 . S
C76 N79 1.341 . S
C77 C75 1.400 . S
C77 C76 1.387 . S
N78 Co69 2.022 . S
N78 C75 1.351 . S
N78 N79 1.365 . S
N79 C76 1.341 . S
N79 N78 1.365 . S
N79 H99 0.862 . S
C80 C75 1.501 . S
C80 H81 0.961 . S
C80 H82 0.961 . S
C80 H83 0.960 . S
H81 C80 0.961 . S
H82 C80 0.961 . S
H83 C80 0.960 . S
C84 N85 1.342 . S
C84 C88 1.401 . S
C84 C89 1.499 . S
N85 Co68 1.989 . S
N85 C84 1.342 . S
N85 N86 1.388 1_554 S
N86 Co69 1.993 . S
N86 N85 1.388 1_556 S
N86 C87 1.346 . S
C87 N86 1.346 . S
C87 C88 1.396 1_556 S
C87 C97 1.510 . S
C88 C84 1.401 . S
C88 C87 1.396 1_554 S
C89 C84 1.499 . S
C89 H90 0.959 . S
C89 H91 0.960 . S
C89 H92 0.961 . S
H90 C89 0.959 . S
H91 C89 0.960 . S
H92 C89 0.961 . S
O93 Co68 1.967 . S
O93 C101 1.258 . S
O94 Co69 1.941 . S
O94 C101 1.266 1_556 S
H95 C97 0.959 . S
H96 C97 0.961 . S
C97 C87 1.510 . S
C97 H95 0.959 . S
C97 H96 0.961 . S
C97 H98 0.960 . S
H98 C97 0.960 . S
H99 N79 0.862 . S
O100 Co68 1.920 . S
O100 C73 1.289 . S
C101 O93 1.258 . S
C101 O94 1.266 1_554 S
Co102 O105 1.970 . S
Co102 N119 1.989 . S
Co102 O127 1.967 . S
Co102 O134 1.920 . S
Co103 O106 1.966 . S
Co103 N112 2.022 . S
Co103 N120 1.993 1_556 S
Co103 O128 1.941 . S
C104 O105 1.258 . S
C104 O106 1.263 1_554 S
O105 Co102 1.970 . S
O105 C104 1.258 . S
O106 Co103 1.966 . S
O106 C104 1.263 1_556 S
C107 O108 1.235 . S
C107 O134 1.289 . S
O108 C107 1.235 . S
C109 C111 1.400 . S
C109 N112 1.351 . S
C109 C114 1.501 . S
C110 C111 1.387 . S
C110 N113 1.341 . S
C111 C109 1.400 . S
C111 C110 1.387 . S
N112 Co103 2.022 . S
N112 C109 1.351 . S
N112 N113 1.365 . S
N113 C110 1.341 . S
N113 N112 1.365 . S
N113 H133 0.862 . S
C114 C109 1.501 . S
C114 H115 0.961 . S
C114 H116 0.961 . S
C114 H117 0.960 . S
H115 C114 0.961 . S
H116 C114 0.961 . S
H117 C114 0.960 . S
C118 N119 1.342 . S
C118 C122 1.401 . S
C118 C123 1.499 . S
N119 Co102 1.989 . S
N119 C118 1.342 . S
N119 N120 1.388 . S
N120 Co103 1.993 1_554 S
N120 N119 1.388 . S
N120 C121 1.346 1_554 S
C121 N120 1.346 1_556 S
C121 C122 1.396 1_556 S
C121 C131 1.510 . S
C122 C118 1.401 . S
C122 C121 1.396 1_554 S
C123 C118 1.499 . S
C123 H124 0.959 . S
C123 H125 0.960 . S
C123 H126 0.961 . S
H124 C123 0.959 . S
H125 C123 0.960 . S
H126 C123 0.961 . S
O127 Co102 1.967 . S
O127 C135 1.258 . S
O128 Co103 1.941 . S
O128 C135 1.266 1_556 S
H129 C131 0.959 . S
H130 C131 0.961 . S
C131 C121 1.510 . S
C131 H129 0.959 . S
C131 H130 0.961 . S
C131 H132 0.960 . S
H132 C131 0.960 . S
H133 N113 0.862 . S
O134 Co102 1.920 . S
O134 C107 1.289 . S
C135 O127 1.258 . S
C135 O128 1.266 1_554 S
Co136 O139 1.970 . S
Co136 N153 1.989 . S
Co136 O161 1.967 . S
Co136 O168 1.920 . S
Co137 O140 1.966 . S
Co137 N146 2.022 . S
Co137 N154 1.993 . S
Co137 O162 1.941 . S
C138 O139 1.258 . S
C138 O140 1.263 1_554 S
O139 Co136 1.970 . S
O139 C138 1.258 . S
O140 Co137 1.966 . S
O140 C138 1.263 1_556 S
C141 O142 1.235 . S
C141 O168 1.289 . S
O142 C141 1.235 . S
C143 C145 1.400 . S
C143 N146 1.351 . S
C143 C148 1.501 . S
C144 C145 1.387 . S
C144 N147 1.341 . S
C145 C143 1.400 . S
C145 C144 1.387 . S
N146 Co137 2.022 . S
N146 C143 1.351 . S
N146 N147 1.365 . S
N147 C144 1.341 . S
N147 N146 1.365 . S
N147 H167 0.862 . S
C148 C143 1.501 . S
C148 H149 0.961 . S
C148 H150 0.961 . S
C148 H151 0.960 . S
H149 C148 0.961 . S
H150 C148 0.961 . S
H151 C148 0.960 . S
C152 N153 1.342 . S
C152 C156 1.401 . S
C152 C157 1.499 . S
N153 Co136 1.989 . S
N153 C152 1.342 . S
N153 N154 1.388 1_554 S
N154 Co137 1.993 . S
N154 N153 1.388 1_556 S
N154 C155 1.346 . S
C155 N154 1.346 . S
C155 C156 1.396 1_556 S
C155 C165 1.510 . S
C156 C152 1.401 . S
C156 C155 1.396 1_554 S
C157 C152 1.499 . S
C157 H158 0.959 . S
C157 H159 0.960 . S
C157 H160 0.961 . S
H158 C157 0.959 . S
H159 C157 0.960 . S
H160 C157 0.961 . S
O161 Co136 1.967 . S
O161 C169 1.258 . S
O162 Co137 1.941 . S
O162 C169 1.266 1_556 S
H163 C165 0.959 . S
H164 C165 0.961 . S
C165 C155 1.510 . S
C165 H163 0.959 . S
C165 H164 0.961 . S
C165 H166 0.960 . S
H166 C165 0.960 . S
H167 N147 0.862 . S
O168 Co136 1.920 . S
O168 C141 1.289 . S
C169 O161 1.258 . S
C169 O162 1.266 1_554 S
Co170 O173 1.970 . S
Co170 N187 1.989 . S
Co170 O195 1.967 . S
Co170 O202 1.920 . S
Co171 O174 1.966 . S
Co171 N180 2.022 . S
Co171 N188 1.993 1_556 S
Co171 O196 1.941 . S
C172 O173 1.258 . S
C172 O174 1.263 1_554 S
O173 Co170 1.970 . S
O173 C172 1.258 . S
O174 Co171 1.966 . S
O174 C172 1.263 1_556 S
C175 O176 1.235 . S
C175 O202 1.289 . S
O176 C175 1.235 . S
C177 C179 1.400 . S
C177 N180 1.351 . S
C177 C182 1.501 . S
C178 C179 1.387 . S
C178 N181 1.341 . S
C179 C177 1.400 . S
C179 C178 1.387 . S
N180 Co171 2.022 . S
N180 C177 1.351 . S
N180 N181 1.365 . S
N181 C178 1.341 . S
N181 N180 1.365 . S
N181 H201 0.862 . S
C182 C177 1.501 . S
C182 H183 0.961 . S
C182 H184 0.961 . S
C182 H185 0.960 . S
H183 C182 0.961 . S
H184 C182 0.961 . S
H185 C182 0.960 . S
C186 N187 1.342 . S
C186 C190 1.401 . S
C186 C191 1.499 . S
N187 Co170 1.989 . S
N187 C186 1.342 . S
N187 N188 1.388 . S
N188 Co171 1.993 1_554 S
N188 N187 1.388 . S
N188 C189 1.346 1_554 S
C189 N188 1.346 1_556 S
C189 C190 1.396 1_556 S
C189 C199 1.510 . S
C190 C186 1.401 . S
C190 C189 1.396 1_554 S
C191 C186 1.499 . S
C191 H192 0.959 . S
C191 H193 0.960 . S
C191 H194 0.961 . S
H192 C191 0.959 . S
H193 C191 0.960 . S
H194 C191 0.961 . S
O195 Co170 1.967 . S
O195 C203 1.258 . S
O196 Co171 1.941 . S
O196 C203 1.266 1_556 S
H197 C199 0.959 . S
H198 C199 0.961 . S
C199 C189 1.510 . S
C199 H197 0.959 . S
C199 H198 0.961 . S
C199 H200 0.960 . S
H200 C199 0.960 . S
H201 N181 0.862 . S
O202 Co170 1.920 . S
O202 C175 1.289 . S
C203 O195 1.258 . S
C203 O196 1.266 1_554 S
Co204 O207 1.970 . S
Co204 N221 1.989 . S
Co204 O229 1.967 . S
Co204 O236 1.920 . S
Co205 O208 1.966 . S
Co205 N214 2.022 . S
Co205 N222 1.993 . S
Co205 O230 1.941 . S
C206 O207 1.258 . S
C206 O208 1.263 . S
O207 Co204 1.970 . S
O207 C206 1.258 . S
O208 Co205 1.966 . S
O208 C206 1.263 . S
C209 O210 1.235 . S
C209 O236 1.289 . S
O210 C209 1.235 . S
C211 C213 1.400 . S
C211 N214 1.351 . S
C211 C216 1.501 . S
C212 C213 1.387 . S
C212 N215 1.341 . S
C213 C211 1.400 . S
C213 C212 1.387 . S
N214 Co205 2.022 . S
N214 C211 1.351 . S
N214 N215 1.365 . S
N215 C212 1.341 . S
N215 N214 1.365 . S
N215 H235 0.862 . S
C216 C211 1.501 . S
C216 H217 0.961 . S
C216 H218 0.961 . S
C216 H219 0.960 . S
H217 C216 0.961 . S
H218 C216 0.961 . S
H219 C216 0.960 . S
C220 N221 1.342 . S
C220 C224 1.401 . S
C220 C225 1.499 . S
N221 Co204 1.989 . S
N221 C220 1.342 . S
N221 N222 1.388 . S
N222 Co205 1.993 . S
N222 N221 1.388 . S
N222 C223 1.346 . S
C223 N222 1.346 . S
C223 C224 1.396 . S
C223 C233 1.510 . S
C224 C220 1.401 . S
C224 C223 1.396 . S
C225 C220 1.499 . S
C225 H226 0.959 . S
C225 H227 0.960 . S
C225 H228 0.961 . S
H226 C225 0.959 . S
H227 C225 0.960 . S
H228 C225 0.961 . S
O229 Co204 1.967 . S
O229 C237 1.258 . S
O230 Co205 1.941 . S
O230 C237 1.266 . S
H231 C233 0.959 . S
H232 C233 0.961 . S
C233 C223 1.510 . S
C233 H231 0.959 . S
C233 H232 0.961 . S
C233 H234 0.960 . S
H234 C233 0.960 . S
H235 N215 0.862 . S
O236 Co204 1.920 . S
O236 C209 1.289 . S
C237 O229 1.258 . S
C237 O230 1.266 . S
Co238 O241 1.970 . S
Co238 N255 1.989 . S
Co238 O263 1.967 . S
Co238 O270 1.920 . S
Co239 O242 1.966 . S
Co239 N248 2.022 . S
Co239 N256 1.993 . S
Co239 O264 1.941 . S
C240 O241 1.258 . S
C240 O242 1.263 . S
O241 Co238 1.970 . S
O241 C240 1.258 . S
O242 Co239 1.966 . S
O242 C240 1.263 . S
C243 O244 1.235 . S
C243 O270 1.289 . S
O244 C243 1.235 . S
C245 C247 1.400 . S
C245 N248 1.351 . S
C245 C250 1.501 . S
C246 C247 1.387 . S
C246 N249 1.341 . S
C247 C245 1.400 . S
C247 C246 1.387 . S
N248 Co239 2.022 . S
N248 C245 1.351 . S
N248 N249 1.365 . S
N249 C246 1.341 . S
N249 N248 1.365 . S
N249 H269 0.862 . S
C250 C245 1.501 . S
C250 H251 0.961 . S
C250 H252 0.961 . S
C250 H253 0.960 . S
H251 C250 0.961 . S
H252 C250 0.961 . S
H253 C250 0.960 . S
C254 N255 1.342 . S
C254 C258 1.401 . S
C254 C259 1.499 . S
N255 Co238 1.989 . S
N255 C254 1.342 . S
N255 N256 1.388 . S
N256 Co239 1.993 . S
N256 N255 1.388 . S
N256 C257 1.346 . S
C257 N256 1.346 . S
C257 C258 1.396 . S
C257 C267 1.510 . S
C258 C254 1.401 . S
C258 C257 1.396 . S
C259 C254 1.499 . S
C259 H260 0.959 . S
C259 H261 0.960 . S
C259 H262 0.961 . S
H260 C259 0.959 . S
H261 C259 0.960 . S
H262 C259 0.961 . S
O263 Co238 1.967 . S
O263 C271 1.258 . S
O264 Co239 1.941 . S
O264 C271 1.266 . S
H265 C267 0.959 . S
H266 C267 0.961 . S
C267 C257 1.510 . S
C267 H265 0.959 . S
C267 H266 0.961 . S
C267 H268 0.960 . S
H268 C267 0.960 . S
H269 N249 0.862 . S
O270 Co238 1.920 . S
O270 C243 1.289 . S
C271 O263 1.258 . S
C271 O264 1.266 . S
Co272 O275 1.970 . S
Co272 N289 1.989 . S
Co272 O297 1.967 . S
Co272 O304 1.920 . S
Co273 O276 1.966 . S
Co273 N282 2.022 . S
Co273 N290 1.993 . S
Co273 O298 1.941 . S
C274 O275 1.258 . S
C274 O276 1.263 . S
O275 Co272 1.970 . S
O275 C274 1.258 . S
O276 Co273 1.966 . S
O276 C274 1.263 . S
C277 O278 1.235 . S
C277 O304 1.289 . S
O278 C277 1.235 . S
C279 C281 1.400 . S
C279 N282 1.351 . S
C279 C284 1.501 . S
C280 C281 1.387 . S
C280 N283 1.341 . S
C281 C279 1.400 . S
C281 C280 1.387 . S
N282 Co273 2.022 . S
N282 C279 1.351 . S
N282 N283 1.365 . S
N283 C280 1.341 . S
N283 N282 1.365 . S
N283 H303 0.862 . S
C284 C279 1.501 . S
C284 H285 0.961 . S
C284 H286 0.961 . S
C284 H287 0.960 . S
H285 C284 0.961 . S
H286 C284 0.961 . S
H287 C284 0.960 . S
C288 N289 1.342 . S
C288 C292 1.401 . S
C288 C293 1.499 . S
N289 Co272 1.989 . S
N289 C288 1.342 . S
N289 N290 1.388 . S
N290 Co273 1.993 . S
N290 N289 1.388 . S
N290 C291 1.346 . S
C291 N290 1.346 . S
C291 C292 1.396 . S
C291 C301 1.510 . S
C292 C288 1.401 . S
C292 C291 1.396 . S
C293 C288 1.499 . S
C293 H294 0.959 . S
C293 H295 0.960 . S
C293 H296 0.961 . S
H294 C293 0.959 . S
H295 C293 0.960 . S
H296 C293 0.961 . S
O297 Co272 1.967 . S
O297 C305 1.258 . S
O298 Co273 1.941 . S
O298 C305 1.266 . S
H299 C301 0.959 . S
H300 C301 0.961 . S
C301 C291 1.510 . S
C301 H299 0.959 . S
C301 H300 0.961 . S
C301 H302 0.960 . S
H302 C301 0.960 . S
H303 N283 0.862 . S
O304 Co272 1.920 . S
O304 C277 1.289 . S
C305 O297 1.258 . S
C305 O298 1.266 . S
Co306 O309 1.970 . S
Co306 N323 1.989 . S
Co306 O331 1.967 . S
Co306 O338 1.920 . S
Co307 O310 1.966 . S
Co307 N316 2.022 . S
Co307 N324 1.993 . S
Co307 O332 1.941 . S
C308 O309 1.258 . S
C308 O310 1.263 . S
O309 Co306 1.970 . S
O309 C308 1.258 . S
O310 Co307 1.966 . S
O310 C308 1.263 . S
C311 O312 1.235 . S
C311 O338 1.289 . S
O312 C311 1.235 . S
C313 C315 1.400 . S
C313 N316 1.351 . S
C313 C318 1.501 . S
C314 C315 1.387 . S
C314 N317 1.341 . S
C315 C313 1.400 . S
C315 C314 1.387 . S
N316 Co307 2.022 . S
N316 C313 1.351 . S
N316 N317 1.365 . S
N317 C314 1.341 . S
N317 N316 1.365 . S
N317 H337 0.862 . S
C318 C313 1.501 . S
C318 H319 0.961 . S
C318 H320 0.961 . S
C318 H321 0.960 . S
H319 C318 0.961 . S
H320 C318 0.961 . S
H321 C318 0.960 . S
C322 N323 1.342 . S
C322 C326 1.401 . S
C322 C327 1.499 . S
N323 Co306 1.989 . S
N323 C322 1.342 . S
N323 N324 1.388 . S
N324 Co307 1.993 . S
N324 N323 1.388 . S
N324 C325 1.346 . S
C325 N324 1.346 . S
C325 C326 1.396 . S
C325 C335 1.510 . S
C326 C322 1.401 . S
C326 C325 1.396 . S
C327 C322 1.499 . S
C327 H328 0.959 . S
C327 H329 0.960 . S
C327 H330 0.961 . S
H328 C327 0.959 . S
H329 C327 0.960 . S
H330 C327 0.961 . S
O331 Co306 1.967 . S
O331 C339 1.258 . S
O332 Co307 1.941 . S
O332 C339 1.266 . S
H333 C335 0.959 . S
H334 C335 0.961 . S
C335 C325 1.510 . S
C335 H333 0.959 . S
C335 H334 0.961 . S
C335 H336 0.960 . S
H336 C335 0.960 . S
H337 N317 0.862 . S
O338 Co306 1.920 . S
O338 C311 1.289 . S
C339 O331 1.258 . S
C339 O332 1.266 . S
Co340 O343 1.970 . S
Co340 N357 1.989 . S
Co340 O365 1.967 . S
Co340 O372 1.920 . S
Co341 O344 1.966 . S
Co341 N350 2.022 . S
Co341 N358 1.993 . S
Co341 O366 1.941 . S
C342 O343 1.258 . S
C342 O344 1.263 . S
O343 Co340 1.970 . S
O343 C342 1.258 . S
O344 Co341 1.966 . S
O344 C342 1.263 . S
C345 O346 1.235 . S
C345 O372 1.289 . S
O346 C345 1.235 . S
C347 C349 1.400 . S
C347 N350 1.351 . S
C347 C352 1.501 . S
C348 C349 1.387 . S
C348 N351 1.341 . S
C349 C347 1.400 . S
C349 C348 1.387 . S
N350 Co341 2.022 . S
N350 C347 1.351 . S
N350 N351 1.365 . S
N351 C348 1.341 . S
N351 N350 1.365 . S
N351 H371 0.862 . S
C352 C347 1.501 . S
C352 H353 0.961 . S
C352 H354 0.961 . S
C352 H355 0.960 . S
H353 C352 0.961 . S
H354 C352 0.961 . S
H355 C352 0.960 . S
C356 N357 1.342 . S
C356 C360 1.401 . S
C356 C361 1.499 . S
N357 Co340 1.989 . S
N357 C356 1.342 . S
N357 N358 1.388 . S
N358 Co341 1.993 . S
N358 N357 1.388 . S
N358 C359 1.346 . S
C359 N358 1.346 . S
C359 C360 1.396 . S
C359 C369 1.510 . S
C360 C356 1.401 . S
C360 C359 1.396 . S
C361 C356 1.499 . S
C361 H362 0.959 . S
C361 H363 0.960 . S
C361 H364 0.961 . S
H362 C361 0.959 . S
H363 C361 0.960 . S
H364 C361 0.961 . S
O365 Co340 1.967 . S
O365 C373 1.258 . S
O366 Co341 1.941 . S
O366 C373 1.266 . S
H367 C369 0.959 . S
H368 C369 0.961 . S
C369 C359 1.510 . S
C369 H367 0.959 . S
C369 H368 0.961 . S
C369 H370 0.960 . S
H370 C369 0.960 . S
H371 N351 0.862 . S
O372 Co340 1.920 . S
O372 C345 1.289 . S
C373 O365 1.258 . S
C373 O366 1.266 . S
Co374 O377 1.970 . S
Co374 N391 1.989 . S
Co374 O399 1.967 . S
Co374 O406 1.920 . S
Co375 O378 1.966 . S
Co375 N384 2.022 . S
Co375 N392 1.993 . S
Co375 O400 1.941 . S
C376 O377 1.258 . S
C376 O378 1.263 . S
O377 Co374 1.970 . S
O377 C376 1.258 . S
O378 Co375 1.966 . S
O378 C376 1.263 . S
C379 O380 1.235 . S
C379 O406 1.289 . S
O380 C379 1.235 . S
C381 C383 1.400 . S
C381 N384 1.351 . S
C381 C386 1.501 . S
C382 C383 1.387 . S
C382 N385 1.341 . S
C383 C381 1.400 . S
C383 C382 1.387 . S
N384 Co375 2.022 . S
N384 C381 1.351 . S
N384 N385 1.365 . S
N385 C382 1.341 . S
N385 N384 1.365 . S
N385 H405 0.862 . S
C386 C381 1.501 . S
C386 H387 0.961 . S
C386 H388 0.961 . S
C386 H389 0.960 . S
H387 C386 0.961 . S
H388 C386 0.961 . S
H389 C386 0.960 . S
C390 N391 1.342 . S
C390 C394 1.401 . S
C390 C395 1.499 . S
N391 Co374 1.989 . S
N391 C390 1.342 . S
N391 N392 1.388 . S
N392 Co375 1.993 . S
N392 N391 1.388 . S
N392 C393 1.346 . S
C393 N392 1.346 . S
C393 C394 1.396 . S
C393 C403 1.510 . S
C394 C390 1.401 . S
C394 C393 1.396 . S
C395 C390 1.499 . S
C395 H396 0.959 . S
C395 H397 0.960 . S
C395 H398 0.961 . S
H396 C395 0.959 . S
H397 C395 0.960 . S
H398 C395 0.961 . S
O399 Co374 1.967 . S
O399 C407 1.258 . S
O400 Co375 1.941 . S
O400 C407 1.266 . S
H401 C403 0.959 . S
H402 C403 0.961 . S
C403 C393 1.510 . S
C403 H401 0.959 . S
C403 H402 0.961 . S
C403 H404 0.960 . S
H404 C403 0.960 . S
H405 N385 0.862 . S
O406 Co374 1.920 . S
O406 C379 1.289 . S
C407 O399 1.258 . S
C407 O400 1.266 . S
C408 C409 1.387 1_556 S
C408 H412 0.950 . S
C408 C417 1.390 1_545 S
C409 C408 1.387 1_554 S
C409 C411 1.387 . S
H410 C417 0.950 . S
C411 C409 1.387 . S
C411 C413 1.390 1_545 S
C411 H415 0.950 . S
H412 C408 0.950 . S
C413 C411 1.390 1_565 S
C413 C414 1.387 . S
C413 H416 0.950 . S
C414 C413 1.387 . S
C414 C417 1.387 1_554 S
H415 C411 0.950 . S
H416 C413 0.950 . S
C417 C408 1.390 1_565 S
C417 H410 0.950 . S
C417 C414 1.387 1_556 S
C418 C419 1.387 1_556 S
C418 H422 0.950 . S
C418 C427 1.390 . S
C419 C418 1.387 1_554 S
C419 C421 1.387 . S
H420 C427 0.950 . S
C421 C419 1.387 . S
C421 C423 1.390 . S
C421 H425 0.950 . S
H422 C418 0.950 . S
C423 C421 1.390 . S
C423 C424 1.387 . S
C423 H426 0.950 . S
C424 C423 1.387 . S
C424 C427 1.387 1_554 S
H425 C421 0.950 . S
H426 C423 0.950 . S
C427 C418 1.390 . S
C427 H420 0.950 . S
C427 C424 1.387 1_556 S
C428 C429 1.387 1_556 S
C428 H432 0.950 . S
C428 C437 1.390 1_455 S
C429 C428 1.387 1_554 S
C429 C431 1.387 . S
H430 C437 0.950 . S
C431 C429 1.387 . S
C431 C433 1.390 1_455 S
C431 H435 0.950 . S
H432 C428 0.950 . S
C433 C431 1.390 1_655 S
C433 C434 1.387 . S
C433 H436 0.950 . S
C434 C433 1.387 . S
C434 C437 1.387 1_554 S
H435 C431 0.950 . S
H436 C433 0.950 . S
C437 C428 1.390 1_655 S
C437 H430 0.950 . S
C437 C434 1.387 1_556 S
C438 C439 1.387 . S
C438 H442 0.950 . S
C438 C447 1.390 . S
C439 C438 1.387 . S
C439 C441 1.387 . S
H440 C447 0.950 1_655 S
C441 C439 1.387 . S
C441 C443 1.390 . S
C441 H445 0.950 . S
H442 C438 0.950 . S
C443 C441 1.390 . S
C443 C444 1.387 1_455 S
C443 H446 0.950 1_455 S
C444 C443 1.387 1_655 S
C444 C447 1.387 1_655 S
H445 C441 0.950 . S
H446 C443 0.950 1_655 S
C447 C438 1.390 . S
C447 H440 0.950 1_455 S
C447 C444 1.387 1_455 S
C448 C449 1.387 1_565 S
C448 H452 0.950 1_565 S
C448 C457 1.390 . S
C449 C448 1.387 1_545 S
C449 C451 1.387 1_545 S
H450 C457 0.950 . S
C451 C449 1.387 1_565 S
C451 C453 1.390 . S
C451 H455 0.950 1_565 S
H452 C448 0.950 1_545 S
C453 C451 1.390 . S
C453 C454 1.387 . S
C453 H456 0.950 . S
C454 C453 1.387 . S
C454 C457 1.387 . S
H455 C451 0.950 1_545 S
H456 C453 0.950 . S
C457 C448 1.390 . S
C457 H450 0.950 . S
C457 C454 1.387 . S
C458 C459 1.387 . S
C458 H462 0.950 . S
C458 C467 1.390 . S
C459 C458 1.387 . S
C459 C461 1.387 . S
H460 C467 0.950 . S
C461 C459 1.387 . S
C461 C463 1.390 . S
C461 H465 0.950 . S
H462 C458 0.950 . S
C463 C461 1.390 . S
C463 C464 1.387 . S
C463 H466 0.950 . S
C464 C463 1.387 . S
C464 C467 1.387 . S
H465 C461 0.950 . S
H466 C463 0.950 . S
C467 C458 1.390 . S
C467 H460 0.950 . S
C467 C464 1.387 . S
C468 C469 1.387 1_566 S
C468 H472 0.950 . S
C468 C477 1.390 . S
C469 C468 1.387 1_544 S
C469 C471 1.387 1_545 S
H470 C477 0.950 . S
C471 C469 1.387 1_565 S
C471 C473 1.390 . S
C471 H475 0.950 1_565 S
H472 C468 0.950 . S
C473 C471 1.390 . S
C473 C474 1.387 . S
C473 H476 0.950 . S
C474 C473 1.387 . S
C474 C477 1.387 1_554 S
H475 C471 0.950 1_545 S
H476 C473 0.950 . S
C477 C468 1.390 . S
C477 H470 0.950 . S
C477 C474 1.387 1_556 S
C478 C479 1.387 . S
C478 H482 0.950 . S
C478 C487 1.390 . S
C479 C478 1.387 . S
C479 C481 1.387 1_554 S
H480 C487 0.950 . S
C481 C479 1.387 1_556 S
C481 C483 1.390 1_556 S
C481 H485 0.950 . S
H482 C478 0.950 . S
C483 C481 1.390 1_554 S
C483 C484 1.387 . S
C483 H486 0.950 1_554 S
C484 C483 1.387 . S
C484 C487 1.387 . S
H485 C481 0.950 . S
H486 C483 0.950 1_556 S
C487 C478 1.390 . S
C487 H480 0.950 . S
C487 C484 1.387 . S
C488 C489 1.387 1_455 S
C488 H492 0.950 1_455 S
C488 C497 1.390 . S
C489 C488 1.387 1_655 S
C489 C491 1.387 1_654 S
H490 C497 0.950 . S
C491 C489 1.387 1_456 S
C491 C493 1.390 . S
C491 H495 0.950 . S
H492 C488 0.950 1_655 S
C493 C491 1.390 . S
C493 C494 1.387 1_556 S
C493 H496 0.950 . S
C494 C493 1.387 1_554 S
C494 C497 1.387 . S
H495 C491 0.950 . S
H496 C493 0.950 . S
C497 C488 1.390 . S
C497 H490 0.950 . S
C497 C494 1.387 . S
C498 C499 1.387 1_556 S
C498 H502 0.950 . S
C498 C507 1.390 . S
C499 C498 1.387 1_554 S
C499 C501 1.387 . S
H500 C507 0.950 1_565 S
C501 C499 1.387 . S
C501 C503 1.390 . S
C501 H505 0.950 . S
H502 C498 0.950 . S
C503 C501 1.390 . S
C503 C504 1.387 . S
C503 H506 0.950 . S
C504 C503 1.387 . S
C504 C507 1.387 1_554 S
H505 C501 0.950 . S
H506 C503 0.950 . S
C507 C498 1.390 . S
C507 H500 0.950 1_545 S
C507 C504 1.387 1_556 S
C508 C509 1.387 . S
C508 H512 0.950 . S
C508 C517 1.390 . S
C509 C508 1.387 . S
C509 C511 1.387 1_554 S
H510 C517 0.950 . S
C511 C509 1.387 1_556 S
C511 C513 1.390 . S
C511 H515 0.950 . S
H512 C508 0.950 . S
C513 C511 1.390 . S
C513 C514 1.387 1_556 S
C513 H516 0.950 . S
C514 C513 1.387 1_554 S
C514 C517 1.387 . S
H515 C511 0.950 . S
H516 C513 0.950 . S
C517 C508 1.390 . S
C517 H510 0.950 . S
C517 C514 1.387 . S
C518 C519 1.387 1_556 S
C518 H522 0.950 . S
C518 C527 1.390 . S
C519 C518 1.387 1_554 S
C519 C521 1.387 . S
H520 C527 0.950 . S
C521 C519 1.387 . S
C521 C523 1.390 . S
C521 H525 0.950 . S
H522 C518 0.950 . S
C523 C521 1.390 . S
C523 C524 1.387 . S
C523 H526 0.950 . S
C524 C523 1.387 . S
C524 C527 1.387 1_554 S
H525 C521 0.950 . S
H526 C523 0.950 . S
C527 C518 1.390 . S
C527 H520 0.950 . S
C527 C524 1.387 1_556 S
C528 C529 1.387 . S
C528 H532 0.950 . S
C528 C537 1.390 1_455 S
C529 C528 1.387 . S
C529 C531 1.387 . S
H530 C537 0.950 . S
C531 C529 1.387 . S
C531 C533 1.390 . S
C531 H535 0.950 . S
H532 C528 0.950 . S
C533 C531 1.390 . S
C533 C534 1.387 1_455 S
C533 H536 0.950 . S
C534 C533 1.387 1_655 S
C534 C537 1.387 . S
H535 C531 0.950 . S
H536 C533 0.950 . S
C537 C528 1.390 1_655 S
C537 H530 0.950 . S
C537 C534 1.387 . S
C538 C539 1.387 . S
C538 H542 0.950 . S
C538 C547 1.390 1_545 S
C539 C538 1.387 . S
C539 C541 1.387 . S
H540 C547 0.950 . S
C541 C539 1.387 . S
C541 C543 1.390 1_545 S
C541 H545 0.950 . S
H542 C538 0.950 . S
C543 C541 1.390 1_565 S
C543 C544 1.387 . S
C543 H546 0.950 . S
C544 C543 1.387 . S
C544 C547 1.387 . S
H545 C541 0.950 . S
H546 C543 0.950 . S
C547 C538 1.390 1_565 S
C547 H540 0.950 . S
C547 C544 1.387 . S
C548 C549 1.387 . S
C548 H552 0.950 . S
C548 C557 1.390 . S
C549 C548 1.387 . S
C549 C551 1.387 . S
H550 C557 0.950 . S
C551 C549 1.387 . S
C551 C553 1.390 . S
C551 H555 0.950 . S
H552 C548 0.950 . S
C553 C551 1.390 . S
C553 C554 1.387 . S
C553 H556 0.950 . S
C554 C553 1.387 . S
C554 C557 1.387 . S
H555 C551 0.950 . S
H556 C553 0.950 . S
C557 C548 1.390 . S
C557 H550 0.950 . S
C557 C554 1.387 . S
C558 C559 1.387 . S
C558 H562 0.950 . S
C558 C567 1.390 1_455 S
C559 C558 1.387 . S
C559 C561 1.387 . S
H560 C567 0.950 . S
C561 C559 1.387 . S
C561 C563 1.390 1_455 S
C561 H565 0.950 . S
H562 C558 0.950 . S
C563 C561 1.390 1_655 S
C563 C564 1.387 . S
C563 H566 0.950 . S
C564 C563 1.387 . S
C564 C567 1.387 . S
H565 C561 0.950 . S
H566 C563 0.950 . S
C567 C558 1.390 1_655 S
C567 H560 0.950 . S
C567 C564 1.387 . S
C568 C569 1.387 1_565 S
C568 H572 0.950 1_565 S
C568 C577 1.390 . S
C569 C568 1.387 1_545 S
C569 C571 1.387 . S
H570 C577 0.950 . S
C571 C569 1.387 . S
C571 C573 1.390 1_545 S
C571 H575 0.950 . S
H572 C568 0.950 1_545 S
C573 C571 1.390 1_565 S
C573 C574 1.387 . S
C573 H576 0.950 . S
C574 C573 1.387 . S
C574 C577 1.387 . S
H575 C571 0.950 . S
H576 C573 0.950 . S
C577 C568 1.390 . S
C577 H570 0.950 . S
C577 C574 1.387 . S
C578 C579 1.387 . S
C578 H582 0.950 . S
C578 C587 1.390 . S
C579 C578 1.387 . S
C579 C581 1.387 . S
H580 C587 0.950 . S
C581 C579 1.387 . S
C581 C583 1.390 . S
C581 H585 0.950 . S
H582 C578 0.950 . S
C583 C581 1.390 . S
C583 C584 1.387 . S
C583 H586 0.950 . S
C584 C583 1.387 . S
C584 C587 1.387 . S
H585 C581 0.950 . S
H586 C583 0.950 . S
C587 C578 1.390 . S
C587 H580 0.950 . S
C587 C584 1.387 . S
C588 C589 1.387 . S
C588 H592 0.950 . S
C588 C597 1.390 . S
C589 C588 1.387 . S
C589 C591 1.387 . S
H590 C597 0.950 . S
C591 C589 1.387 . S
C591 C593 1.390 . S
C591 H595 0.950 . S
H592 C588 0.950 . S
C593 C591 1.390 . S
C593 C594 1.387 . S
C593 H596 0.950 . S
C594 C593 1.387 . S
C594 C597 1.387 . S
H595 C591 0.950 . S
H596 C593 0.950 . S
C597 C588 1.390 . S
C597 H590 0.950 . S
C597 C594 1.387 . S
C598 C599 1.387 . S
C598 H602 0.950 . S
C598 C607 1.390 . S
C599 C598 1.387 . S
C599 C601 1.387 . S
H600 C607 0.950 . S
C601 C599 1.387 . S
C601 C603 1.390 . S
C601 H605 0.950 . S
H602 C598 0.950 . S
C603 C601 1.390 . S
C603 C604 1.387 . S
C603 H606 0.950 . S
C604 C603 1.387 . S
C604 C607 1.387 . S
H605 C601 0.950 . S
H606 C603 0.950 . S
C607 C598 1.390 . S
C607 H600 0.950 . S
C607 C604 1.387 . S
C608 C609 1.387 . S
C608 H612 0.950 . S
C608 C617 1.390 . S
C609 C608 1.387 . S
C609 C611 1.387 . S
H610 C617 0.950 . S
C611 C609 1.387 . S
C611 C613 1.390 . S
C611 H615 0.950 . S
H612 C608 0.950 . S
C613 C611 1.390 . S
C613 C614 1.387 . S
C613 H616 0.950 . S
C614 C613 1.387 . S
C614 C617 1.387 . S
H615 C611 0.950 . S
H616 C613 0.950 . S
C617 C608 1.390 . S
C617 H610 0.950 . S
C617 C614 1.387 . S
C618 C619 1.387 . S
C618 H622 0.950 . S
C618 C627 1.390 . S
C619 C618 1.387 . S
C619 C621 1.387 . S
H620 C627 0.950 . S
C621 C619 1.387 . S
C621 C623 1.390 . S
C621 H625 0.950 . S
H622 C618 0.950 . S
C623 C621 1.390 . S
C623 C624 1.387 . S
C623 H626 0.950 . S
C624 C623 1.387 . S
C624 C627 1.387 . S
H625 C621 0.950 . S
H626 C623 0.950 . S
C627 C618 1.390 . S
C627 H620 0.950 . S
C627 C624 1.387 . S
C628 C629 1.387 . S
C628 H632 0.950 . S
C628 C637 1.390 . S
C629 C628 1.387 . S
C629 C631 1.387 . S
H630 C637 0.950 . S
C631 C629 1.387 . S
C631 C633 1.390 . S
C631 H635 0.950 . S
H632 C628 0.950 . S
C633 C631 1.390 . S
C633 C634 1.387 . S
C633 H636 0.950 . S
C634 C633 1.387 . S
C634 C637 1.387 . S
H635 C631 0.950 . S
H636 C633 0.950 . S
C637 C628 1.390 . S
C637 H630 0.950 . S
C637 C634 1.387 . S
C638 C639 1.387 . S
C638 H642 0.950 . S
C638 C647 1.390 . S
C639 C638 1.387 . S
C639 C641 1.387 . S
H640 C647 0.950 . S
C641 C639 1.387 . S
C641 C643 1.390 . S
C641 H645 0.950 . S
H642 C638 0.950 . S
C643 C641 1.390 . S
C643 C644 1.387 . S
C643 H646 0.950 . S
C644 C643 1.387 . S
C644 C647 1.387 . S
H645 C641 0.950 . S
H646 C643 0.950 . S
C647 C638 1.390 . S
C647 H640 0.950 . S
C647 C644 1.387 . S
C648 C649 1.387 . S
C648 H652 0.950 . S
C648 C657 1.390 . S
C649 C648 1.387 . S
C649 C651 1.387 . S
H650 C657 0.950 . S
C651 C649 1.387 . S
C651 C653 1.390 . S
C651 H655 0.950 . S
H652 C648 0.950 . S
C653 C651 1.390 . S
C653 C654 1.387 . S
C653 H656 0.950 . S
C654 C653 1.387 . S
C654 C657 1.387 . S
H655 C651 0.950 . S
H656 C653 0.950 . S
C657 C648 1.390 . S
C657 H650 0.950 . S
C657 C654 1.387 . S
C658 C659 1.387 . S
C658 H662 0.950 . S
C658 C667 1.390 . S
C659 C658 1.387 . S
C659 C661 1.387 . S
H660 C667 0.950 . S
C661 C659 1.387 . S
C661 C663 1.390 . S
C661 H665 0.950 . S
H662 C658 0.950 . S
C663 C661 1.390 . S
C663 C664 1.387 . S
C663 H666 0.950 . S
C664 C663 1.387 . S
C664 C667 1.387 . S
H665 C661 0.950 . S
H666 C663 0.950 . S
C667 C658 1.390 . S
C667 H660 0.950 . S
C667 C664 1.387 . S
C668 C669 1.387 . S
C668 H672 0.950 . S
C668 C677 1.390 . S
C669 C668 1.387 . S
C669 C671 1.387 . S
H670 C677 0.950 . S
C671 C669 1.387 . S
C671 C673 1.390 . S
C671 H675 0.950 . S
H672 C668 0.950 . S
C673 C671 1.390 . S
C673 C674 1.387 . S
C673 H676 0.950 . S
C674 C673 1.387 . S
C674 C677 1.387 . S
H675 C671 0.950 . S
H676 C673 0.950 . S
C677 C668 1.390 . S
C677 H670 0.950 . S
C677 C674 1.387 . S
C678 C679 1.387 . S
C678 H682 0.950 . S
C678 C687 1.390 . S
C679 C678 1.387 . S
C679 C681 1.387 . S
H680 C687 0.950 . S
C681 C679 1.387 . S
C681 C683 1.390 . S
C681 H685 0.950 . S
H682 C678 0.950 . S
C683 C681 1.390 . S
C683 C684 1.387 . S
C683 H686 0.950 . S
C684 C683 1.387 . S
C684 C687 1.387 . S
H685 C681 0.950 . S
H686 C683 0.950 . S
C687 C678 1.390 . S
C687 H680 0.950 . S
C687 C684 1.387 . S
C688 C689 1.387 . S
C688 H692 0.950 . S
C688 C697 1.390 . S
C689 C688 1.387 . S
C689 C691 1.387 . S
H690 C697 0.950 . S
C691 C689 1.387 . S
C691 C693 1.390 . S
C691 H695 0.950 . S
H692 C688 0.950 . S
C693 C691 1.390 . S
C693 C694 1.387 . S
C693 H696 0.950 . S
C694 C693 1.387 . S
C694 C697 1.387 . S
H695 C691 0.950 . S
H696 C693 0.950 . S
C697 C688 1.390 . S
C697 H690 0.950 . S
C697 C694 1.387 . S
C698 C699 1.387 . S
C698 H702 0.950 . S
C698 C707 1.390 . S
C699 C698 1.387 . S
C699 C701 1.387 . S
H700 C707 0.950 . S
C701 C699 1.387 . S
C701 C703 1.390 . S
C701 H705 0.950 . S
H702 C698 0.950 . S
C703 C701 1.390 . S
C703 C704 1.387 . S
C703 H706 0.950 . S
C704 C703 1.387 . S
C704 C707 1.387 . S
H705 C701 0.950 . S
H706 C703 0.950 . S
C707 C698 1.390 . S
C707 H700 0.950 . S
C707 C704 1.387 . S
C409 C2 2.078 . S
C414 C104 2.085 . S
C419 C138 2.078 . S
C424 C36 2.086 . S
C429 C172 2.085 . S
C434 C70 2.078 . S
C439 C308 2.208 . S
C444 C209 2.411 . S
C449 C345 2.411 . S
C454 C240 2.208 . S
C459 C277 2.408 . S
C464 C376 2.204 . S
C469 C33 1.177 . S
C474 C190 1.193 . S
C479 C20 0.933 . S
C484 C67 0.914 . S
C489 C101 1.173 . S
C494 C54 1.190 . S
C499 C88 0.936 . S
C504 C135 0.917 1_545 S
C509 C122 1.190 . S
C514 C169 1.173 . S
C519 C156 0.937 . S
C524 C203 0.918 1_655 S
C529 C258 0.827 . S
C534 C237 0.822 . S
C539 C281 0.659 . S
C544 C271 0.617 . S
C549 C326 0.825 . S
C554 C305 0.819 . S
C559 C339 0.626 . S
C564 C349 0.670 . S
C569 C373 0.826 . S
C574 C394 0.832 . S
C579 C407 0.627 . S
C584 C213 0.670 . S
C589 C292 2.028 . S
C594 C5 1.991 . S
C599 C39 1.407 . S
C604 C311 1.418 . S
C609 C73 1.992 . S
C614 C360 2.028 . S
C619 C107 1.411 . S
C624 C379 1.421 . S
C629 C224 2.029 . S
C634 C141 1.994 . S
C639 C175 1.408 . S
C644 C243 1.419 . S
C649 C383 0.954 . S
C654 C111 0.972 . S
C659 C206 2.367 . S
C664 C145 2.259 . S
C669 C247 0.955 . S
C674 C179 0.970 . S
C679 C9 2.260 . S
C684 C274 2.367 . S
C689 C43 0.968 . S
C694 C315 0.957 . S
C699 C77 2.259 . S
C704 C342 2.366 . S
