# Generated by pormake.
# Topology pcl, (4)-cn, num edge types: 1
# Building blocks:
#     Node 0, Type 0, BuildingBlock: TATPOV_clean_sbu_0, # of connection points: 4
#     Node 1, Type 0, BuildingBlock: TATPOV_clean_sbu_0, # of connection points: 4
#     Node 2, Type 0, BuildingBlock: TATPOV_clean_sbu_0, # of connection points: 4
#     Node 3, Type 0, BuildingBlock: TATPOV_clean_sbu_0, # of connection points: 4
#     Node 4, Type 0, BuildingBlock: TATPOV_clean_sbu_0, # of connection points: 4
#     Node 5, Type 0, BuildingBlock: TATPOV_clean_sbu_0, # of connection points: 4
#     Node 6, Type 0, BuildingBlock: TATPOV_clean_sbu_0, # of connection points: 4
#     Node 7, Type 0, BuildingBlock: TATPOV_clean_sbu_0, # of connection points: 4
#     Node 8, Type 0, BuildingBlock: TATPOV_clean_sbu_0, # of connection points: 4
#     Node 9, Type 0, BuildingBlock: TATPOV_clean_sbu_0, # of connection points: 4
#     Node 10, Type 0, BuildingBlock: TATPOV_clean_sbu_0, # of connection points: 4
#     Node 11, Type 0, BuildingBlock: TATPOV_clean_sbu_0, # of connection points: 4
#     Node 12, Type 0, BuildingBlock: TATPOV_clean_sbu_0, # of connection points: 4
#     Node 13, Type 0, BuildingBlock: TATPOV_clean_sbu_0, # of connection points: 4
#     Node 14, Type 0, BuildingBlock: TATPOV_clean_sbu_0, # of connection points: 4
#     Node 15, Type 0, BuildingBlock: TATPOV_clean_sbu_0, # of connection points: 4
#     Edge 16, Type (0, 0), BuildingBlock: XIVTED_clean_linker_0, # of connection points: 2
#     Edge 17, Type (0, 0), BuildingBlock: XIVTED_clean_linker_0, # of connection points: 2
#     Edge 18, Type (0, 0), BuildingBlock: XIVTED_clean_linker_0, # of connection points: 2
#     Edge 19, Type (0, 0), BuildingBlock: XIVTED_clean_linker_0, # of connection points: 2
#     Edge 20, Type (0, 0), BuildingBlock: XIVTED_clean_linker_0, # of connection points: 2
#     Edge 21, Type (0, 0), BuildingBlock: XIVTED_clean_linker_0, # of connection points: 2
#     Edge 22, Type (0, 0), BuildingBlock: XIVTED_clean_linker_0, # of connection points: 2
#     Edge 23, Type (0, 0), BuildingBlock: XIVTED_clean_linker_0, # of connection points: 2
#     Edge 24, Type (0, 0), BuildingBlock: XIVTED_clean_linker_0, # of connection points: 2
#     Edge 25, Type (0, 0), BuildingBlock: XIVTED_clean_linker_0, # of connection points: 2
#     Edge 26, Type (0, 0), BuildingBlock: XIVTED_clean_linker_0, # of connection points: 2
#     Edge 27, Type (0, 0), BuildingBlock: XIVTED_clean_linker_0, # of connection points: 2
#     Edge 28, Type (0, 0), BuildingBlock: XIVTED_clean_linker_0, # of connection points: 2
#     Edge 29, Type (0, 0), BuildingBlock: XIVTED_clean_linker_0, # of connection points: 2
#     Edge 30, Type (0, 0), BuildingBlock: XIVTED_clean_linker_0, # of connection points: 2
#     Edge 31, Type (0, 0), BuildingBlock: XIVTED_clean_linker_0, # of connection points: 2
#     Edge 32, Type (0, 0), BuildingBlock: XIVTED_clean_linker_0, # of connection points: 2
#     Edge 33, Type (0, 0), BuildingBlock: XIVTED_clean_linker_0, # of connection points: 2
#     Edge 34, Type (0, 0), BuildingBlock: XIVTED_clean_linker_0, # of connection points: 2
#     Edge 35, Type (0, 0), BuildingBlock: XIVTED_clean_linker_0, # of connection points: 2
#     Edge 36, Type (0, 0), BuildingBlock: XIVTED_clean_linker_0, # of connection points: 2
#     Edge 37, Type (0, 0), BuildingBlock: XIVTED_clean_linker_0, # of connection points: 2
#     Edge 38, Type (0, 0), BuildingBlock: XIVTED_clean_linker_0, # of connection points: 2
#     Edge 39, Type (0, 0), BuildingBlock: XIVTED_clean_linker_0, # of connection points: 2
#     Edge 40, Type (0, 0), BuildingBlock: XIVTED_clean_linker_0, # of connection points: 2
#     Edge 41, Type (0, 0), BuildingBlock: XIVTED_clean_linker_0, # of connection points: 2
#     Edge 42, Type (0, 0), BuildingBlock: XIVTED_clean_linker_0, # of connection points: 2
#     Edge 43, Type (0, 0), BuildingBlock: XIVTED_clean_linker_0, # of connection points: 2
#     Edge 44, Type (0, 0), BuildingBlock: XIVTED_clean_linker_0, # of connection points: 2
#     Edge 45, Type (0, 0), BuildingBlock: XIVTED_clean_linker_0, # of connection points: 2
#     Edge 46, Type (0, 0), BuildingBlock: XIVTED_clean_linker_0, # of connection points: 2
#     Edge 47, Type (0, 0), BuildingBlock: XIVTED_clean_linker_0, # of connection points: 2
# Relax obj value: 0.053
# Max RMSD: 0.064
# Mean RMSD: 0.055
data_MOF--net-pcl--node1-TATPOV_clean_sbu_0--edge1-XIVTED_clean_linker_0
_symmetry_space_group_name_H-M    P1
_symmetry_Int_Tables_number       1
_symmetry_cell_setting            triclinic
loop_
_symmetry_equiv_pos_as_xyz
'x, y, z'
_cell_length_a     43.735673
_cell_length_b     49.040618
_cell_length_c     44.876354
_cell_angle_alpha  89.898247
_cell_angle_beta   89.999266
_cell_angle_gamma 90.219764
loop_
_atom_site_label
_atom_site_type_symbol
_atom_site_fract_x
_atom_site_fract_y
_atom_site_fract_z
_atom_type_partial_charge
Zn0 Zn 0.11977 0.3743 0.11743 0.0
Zn1 Zn 0.14699 0.34123 0.07799 0.0
O2 O 0.15655 0.37871 0.05996 0.0
O3 O 0.13492 0.40631 0.09233 0.0
O4 O 0.16654 0.31388 0.05048 0.0
O5 O 0.14549 0.35926 0.1504 0.0
O6 O 0.17 0.33404 0.11761 0.0
C7 C 0.15012 0.40277 0.0686 0.0
C8 C 0.07708 0.33903 0.08912 0.0
O9 O 0.10085 0.33139 0.07502 0.0
O10 O 0.07901 0.35696 0.10925 0.0
C11 C 0.19316 0.31696 0.03957 0.0
O12 O 0.20859 0.33935 0.04543 0.0
C13 C 0.16622 0.34228 0.14426 0.0
Zn14 Zn 0.87047 0.61932 0.62993 0.0
Zn15 Zn 0.85914 0.65729 0.58896 0.0
O16 O 0.84742 0.62096 0.56839 0.0
O17 O 0.85657 0.58956 0.60231 0.0
O18 O 0.84687 0.68607 0.55903 0.0
O19 O 0.84078 0.63607 0.6581 0.0
O20 O 0.83178 0.66814 0.62479 0.0
C21 C 0.84755 0.59599 0.57646 0.0
C22 C 0.92427 0.64993 0.61277 0.0
O23 O 0.90611 0.66195 0.5948 0.0
O24 O 0.91426 0.63159 0.63016 0.0
C25 C 0.81988 0.68455 0.54856 0.0
O26 O 0.80237 0.66397 0.55654 0.0
C27 C 0.82702 0.65753 0.65029 0.0
Zn28 Zn 0.1452 0.58023 0.87367 0.0
Zn29 Zn 0.1509 0.62027 0.91301 0.0
O30 O 0.16231 0.58501 0.93651 0.0
O31 O 0.15739 0.5521 0.90354 0.0
O32 O 0.15961 0.6514 0.9416 0.0
O33 O 0.17728 0.59605 0.84714 0.0
O34 O 0.17898 0.63138 0.87734 0.0
C35 C 0.16365 0.55977 0.92974 0.0
C36 C 0.08835 0.60871 0.88563 0.0
O37 O 0.10449 0.62216 0.90424 0.0
O38 O 0.1007 0.59064 0.86951 0.0
C39 C 0.16657 0.64863 0.96898 0.0
O40 O 0.16658 0.62416 0.9809 0.0
C41 C 0.18775 0.61932 0.85371 0.0
Zn42 Zn 0.85761 0.43326 0.36773 0.0
Zn43 Zn 0.85244 0.39189 0.40521 0.0
O44 O 0.83839 0.42598 0.42923 0.0
O45 O 0.84311 0.46015 0.39768 0.0
O46 O 0.84345 0.36 0.43274 0.0
O47 O 0.82751 0.41734 0.3393 0.0
O48 O 0.82702 0.38079 0.36783 0.0
C49 C 0.83618 0.45138 0.42332 0.0
C50 C 0.91532 0.40634 0.38077 0.0
O51 O 0.89922 0.39169 0.39837 0.0
O52 O 0.90266 0.42451 0.36494 0.0
C53 C 0.84133 0.36171 0.46095 0.0
O54 O 0.84692 0.38517 0.47397 0.0
C55 C 0.81842 0.39329 0.34436 0.0
Zn56 Zn 0.80172 0.57795 0.85882 0.0
Zn57 Zn 0.7952 0.61667 0.8989 0.0
O58 O 0.77658 0.63237 0.86015 0.0
O59 O 0.77609 0.5979 0.82892 0.0
O60 O 0.78375 0.64561 0.92862 0.0
O61 O 0.78266 0.54919 0.88446 0.0
O62 O 0.77679 0.5815 0.91786 0.0
C63 C 0.76964 0.62242 0.83482 0.0
C64 C 0.85926 0.6027 0.87954 0.0
O65 O 0.8422 0.6164 0.89698 0.0
O66 O 0.84742 0.58582 0.86146 0.0
C67 C 0.79241 0.67025 0.92576 0.0
O68 O 0.81096 0.67678 0.90383 0.0
C69 C 0.77359 0.55666 0.90991 0.0
Zn70 Zn 0.2024 0.43796 0.35399 0.0
Zn71 Zn 0.20859 0.39794 0.39348 0.0
O72 O 0.2258 0.38287 0.35397 0.0
O73 O 0.22649 0.41761 0.32297 0.0
O74 O 0.22032 0.36898 0.4234 0.0
O75 O 0.22241 0.46603 0.38008 0.0
O76 O 0.22754 0.43264 0.41241 0.0
C77 C 0.23214 0.39282 0.32845 0.0
C78 C 0.14469 0.41342 0.37562 0.0
O79 O 0.16167 0.39885 0.39233 0.0
O80 O 0.15664 0.43061 0.35788 0.0
C81 C 0.22086 0.34366 0.41732 0.0
O82 O 0.21162 0.33542 0.39097 0.0
C83 C 0.23124 0.45765 0.4053 0.0
Zn84 Zn 0.81898 0.39224 0.10141 0.0
Zn85 Zn 0.78963 0.35124 0.07657 0.0
O86 O 0.7765 0.34766 0.12079 0.0
O87 O 0.80448 0.37997 0.14157 0.0
O88 O 0.76683 0.32044 0.05644 0.0
O89 O 0.79481 0.41989 0.07915 0.0
O90 O 0.7746 0.38592 0.05379 0.0
C91 C 0.78553 0.36054 0.14381 0.0
C92 C 0.85961 0.35512 0.0731 0.0
O93 O 0.83511 0.34129 0.06984 0.0
O94 O 0.85881 0.37866 0.08455 0.0
C95 C 0.77363 0.29597 0.063 0.0
O96 O 0.79513 0.2915 0.08285 0.0
C97 C 0.77779 0.41149 0.05831 0.0
Zn98 Zn 0.20398 0.60465 0.62061 0.0
Zn99 Zn 0.21741 0.64913 0.59243 0.0
O100 O 0.23489 0.65422 0.63556 0.0
O101 O 0.22978 0.61353 0.65566 0.0
O102 O 0.23377 0.68215 0.57027 0.0
O103 O 0.22034 0.57966 0.58997 0.0
O104 O 0.23302 0.617 0.56569 0.0
C105 C 0.23909 0.63789 0.65734 0.0
C106 C 0.15097 0.6379 0.60589 0.0
O107 O 0.17034 0.65299 0.59236 0.0
O108 O 0.15987 0.61683 0.61976 0.0
C109 C 0.23667 0.70543 0.58241 0.0
O110 O 0.22751 0.70872 0.61005 0.0
C111 C 0.2324 0.591 0.56756 0.0
Zn112 Zn 0.62134 0.87314 0.12755 0.0
Zn113 Zn 0.64656 0.83882 0.08778 0.0
O114 O 0.65623 0.87604 0.06934 0.0
O115 O 0.63615 0.9047 0.10155 0.0
O116 O 0.66565 0.81154 0.05989 0.0
O117 O 0.64785 0.8579 0.1599 0.0
O118 O 0.67012 0.83127 0.12692 0.0
C119 C 0.65057 0.90038 0.07751 0.0
C120 C 0.57712 0.83798 0.10053 0.0
O121 O 0.60024 0.82967 0.08584 0.0
O122 O 0.58015 0.85607 0.12038 0.0
C123 C 0.69244 0.81511 0.04955 0.0
O124 O 0.70749 0.83747 0.05639 0.0
C125 C 0.66756 0.84007 0.15348 0.0
Zn126 Zn 0.38505 0.13652 0.6199 0.0
Zn127 Zn 0.35679 0.1678 0.57913 0.0
O128 O 0.34894 0.1294 0.56304 0.0
O129 O 0.37128 0.10312 0.59634 0.0
O130 O 0.33512 0.19243 0.54993 0.0
O131 O 0.35881 0.15193 0.65225 0.0
O132 O 0.33354 0.17551 0.61848 0.0
C133 C 0.35605 0.10572 0.57247 0.0
C134 C 0.4264 0.1726 0.59009 0.0
O135 O 0.40246 0.17933 0.57563 0.0
O136 O 0.42494 0.15503 0.61071 0.0
C137 C 0.33159 0.21743 0.55651 0.0
O138 O 0.34286 0.22658 0.58174 0.0
C139 C 0.33756 0.16819 0.64544 0.0
Zn140 Zn 0.64015 0.06744 0.8727 0.0
Zn141 Zn 0.64508 0.10946 0.90903 0.0
O142 O 0.65705 0.07551 0.93449 0.0
O143 O 0.65362 0.04083 0.90363 0.0
O144 O 0.65487 0.14102 0.93652 0.0
O145 O 0.67105 0.08247 0.84433 0.0
O146 O 0.67146 0.11955 0.87188 0.0
C147 C 0.6594 0.05002 0.92932 0.0
C148 C 0.58266 0.09593 0.88367 0.0
O149 O 0.59861 0.1108 0.9011 0.0
O150 O 0.5953 0.07704 0.86891 0.0
C151 C 0.68121 0.1406 0.94855 0.0
O152 O 0.69935 0.11991 0.94305 0.0
C153 C 0.68031 0.10654 0.84888 0.0
Zn154 Zn 0.3704 0.92855 0.38046 0.0
Zn155 Zn 0.35995 0.88766 0.41741 0.0
O156 O 0.34834 0.92255 0.44149 0.0
O157 O 0.35726 0.95623 0.41014 0.0
O158 O 0.34729 0.85607 0.44418 0.0
O159 O 0.3399 0.91538 0.35096 0.0
O160 O 0.33417 0.879 0.37929 0.0
C161 C 0.34861 0.94801 0.43549 0.0
C162 C 0.42485 0.8976 0.39477 0.0
O163 O 0.40688 0.88418 0.41181 0.0
O164 O 0.41445 0.91669 0.37867 0.0
C165 C 0.34089 0.85824 0.47174 0.0
O166 O 0.34424 0.88195 0.48492 0.0
C167 C 0.32784 0.89233 0.35567 0.0
Zn168 Zn 0.29534 0.0728 0.85452 0.0
Zn169 Zn 0.28955 0.11277 0.89368 0.0
O170 O 0.27316 0.12793 0.85384 0.0
O171 O 0.27224 0.09327 0.82289 0.0
O172 O 0.2783 0.1428 0.92221 0.0
O173 O 0.2742 0.04535 0.88062 0.0
O174 O 0.26996 0.07852 0.91323 0.0
C175 C 0.26699 0.11813 0.82825 0.0
C176 C 0.35332 0.0962 0.87679 0.0
O177 O 0.33638 0.11108 0.89312 0.0
O178 O 0.34129 0.07918 0.85896 0.0
C179 C 0.28811 0.16707 0.91905 0.0
O180 O 0.30754 0.17253 0.8975 0.0
C181 C 0.26569 0.05364 0.90595 0.0
Zn182 Zn 0.70884 0.92813 0.36504 0.0
Zn183 Zn 0.71905 0.88887 0.40386 0.0
O184 O 0.73447 0.87454 0.36323 0.0
O185 O 0.73162 0.90923 0.33231 0.0
O186 O 0.7335 0.85924 0.4317 0.0
O187 O 0.72954 0.95669 0.38964 0.0
O188 O 0.73727 0.92419 0.42259 0.0
C189 C 0.73879 0.88471 0.33741 0.0
C190 C 0.65349 0.90207 0.38982 0.0
O191 O 0.67211 0.88805 0.40537 0.0
O192 O 0.66359 0.91968 0.37149 0.0
C193 C 0.72475 0.83472 0.42807 0.0
O194 O 0.70482 0.82918 0.407 0.0
C195 C 0.73969 0.94915 0.4147 0.0
Zn196 Zn 0.31905 0.90141 0.10728 0.0
Zn197 Zn 0.2902 0.85809 0.08617 0.0
O198 O 0.27853 0.85668 0.131 0.0
O199 O 0.3033 0.89267 0.1481 0.0
O200 O 0.26693 0.82667 0.06774 0.0
O201 O 0.29553 0.92734 0.0823 0.0
O202 O 0.27439 0.89139 0.0613 0.0
C203 C 0.28605 0.87229 0.15249 0.0
C204 C 0.3599 0.86187 0.08215 0.0
O205 O 0.33546 0.84787 0.07942 0.0
O206 O 0.35897 0.88593 0.09227 0.0
C207 C 0.26509 0.80328 0.0799 0.0
O208 O 0.27872 0.79914 0.1056 0.0
C209 C 0.2778 0.91723 0.063 0.0
Zn210 Zn 0.68123 0.11333 0.6028 0.0
Zn211 Zn 0.7124 0.15445 0.58016 0.0
O212 O 0.72403 0.15677 0.62499 0.0
O213 O 0.69492 0.1241 0.64368 0.0
O214 O 0.73671 0.18473 0.56044 0.0
O215 O 0.70538 0.08559 0.58087 0.0
O216 O 0.72777 0.11978 0.55757 0.0
C217 C 0.71409 0.14318 0.64724 0.0
C218 C 0.64249 0.15199 0.57415 0.0
O219 O 0.66739 0.16547 0.57207 0.0
O220 O 0.6424 0.12818 0.58504 0.0
C221 C 0.74091 0.20792 0.57244 0.0
O222 O 0.72925 0.21265 0.59891 0.0
C223 C 0.72377 0.09416 0.56124 0.0
H224 H 0.05149 0.34065 0.0339 0.0
H225 H 0.88335 0.30737 0.09352 0.0
H226 H 0.03287 0.31784 0.1249 0.0
H227 H 0.90427 0.3771 0.03853 0.0
H228 H 0.93764 0.29423 0.09186 0.0
H229 H 0.99652 0.33667 0.02277 0.0
C230 C 0.03596 0.33375 0.05117 0.0
C231 C 0.04645 0.32957 0.08033 0.0
C232 C 0.93003 0.3119 0.07942 0.0
C233 C 0.98423 0.32477 0.06778 0.0
C234 C 0.89919 0.31929 0.08021 0.0
C235 C 0.88962 0.34333 0.06618 0.0
C236 C 0.951 0.32836 0.06389 0.0
C237 C 0.91096 0.35844 0.04964 0.0
C238 C 0.00473 0.33168 0.04488 0.0
C239 C 0.02549 0.32122 0.10216 0.0
N240 N 0.94077 0.35077 0.04904 0.0
N241 N 0.99526 0.31922 0.09549 0.0
H242 H 0.96329 0.64226 0.65875 0.0
H243 H 0.11746 0.67039 0.56734 0.0
H244 H 0.96097 0.67049 0.56766 0.0
H245 H 0.10951 0.62124 0.64687 0.0
H246 H 0.06187 0.67895 0.56956 0.0
H247 H 0.01871 0.64433 0.65777 0.0
C248 C 0.9745 0.64916 0.63855 0.0
C249 C 0.95748 0.6558 0.6131 0.0
C250 C 0.07251 0.66644 0.58652 0.0
C251 C 0.02138 0.65782 0.61164 0.0
C252 C 0.10413 0.6616 0.58531 0.0
C253 C 0.11807 0.64486 0.6068 0.0
C254 C 0.05509 0.65485 0.60967 0.0
C255 C 0.09979 0.63399 0.62961 0.0
C256 C 0.00622 0.65027 0.63797 0.0
C257 C 0.97328 0.66507 0.58772 0.0
N258 N 0.06942 0.63918 0.63041 0.0
N259 N 0.00451 0.66546 0.58746 0.0
H260 H 0.90033 0.58127 0.84057 0.0
H261 H 0.05001 0.6367 0.92376 0.0
H262 H 0.89517 0.63235 0.91867 0.0
H263 H 0.05001 0.58907 0.84295 0.0
H264 H 0.99381 0.63792 0.92183 0.0
H265 H 0.9555 0.58602 0.8409 0.0
C266 C 0.91079 0.59353 0.85788 0.0
C267 C 0.89296 0.60628 0.87975 0.0
C268 C 0.00622 0.62741 0.90445 0.0
C269 C 0.95678 0.61185 0.88028 0.0
C270 C 0.03827 0.6268 0.90546 0.0
C271 C 0.05478 0.61256 0.88362 0.0
C272 C 0.99071 0.61373 0.88141 0.0
C273 C 0.03836 0.60006 0.86047 0.0
C274 C 0.94245 0.5963 0.858 0.0
C275 C 0.90802 0.62208 0.90142 0.0
N276 N 0.00739 0.60083 0.8601 0.0
N277 N 0.93912 0.6243 0.90125 0.0
H278 H 0.10346 0.43813 0.33914 0.0
H279 H 0.95374 0.37687 0.41765 0.0
H280 H 0.10877 0.38181 0.41303 0.0
H281 H 0.95394 0.42971 0.34059 0.0
H282 H 0.01 0.3765 0.41631 0.0
H283 H 0.04828 0.43382 0.33963 0.0
C284 C 0.09303 0.42482 0.35557 0.0
C285 C 0.11092 0.4104 0.37617 0.0
C286 C 0.99761 0.388 0.39964 0.0
C287 C 0.04707 0.40532 0.37685 0.0
C288 C 0.96553 0.38816 0.40033 0.0
C289 C 0.94904 0.4035 0.37934 0.0
C290 C 0.01315 0.40329 0.3778 0.0
C291 C 0.96554 0.41777 0.35743 0.0
C292 C 0.06136 0.4223 0.35578 0.0
C293 C 0.09588 0.39336 0.39677 0.0
N294 N 0.99651 0.41738 0.35735 0.0
N295 N 0.06476 0.39135 0.39668 0.0
H296 H 0.40535 0.88326 0.04815 0.0
H297 H 0.53281 0.81914 0.13769 0.0
H298 H 0.38297 0.81412 0.10348 0.0
H299 H 0.55043 0.83938 0.0458 0.0
H300 H 0.47798 0.81641 0.12654 0.0
H301 H 0.45865 0.86801 0.04646 0.0
C302 C 0.41162 0.86449 0.05932 0.0
C303 C 0.38996 0.84983 0.0759 0.0
C304 C 0.49392 0.82062 0.10863 0.0
C305 C 0.45074 0.83288 0.07497 0.0
C306 C 0.52511 0.82217 0.11497 0.0
C307 C 0.54595 0.82934 0.09256 0.0
C308 C 0.48355 0.82741 0.07998 0.0
C309 C 0.53497 0.83352 0.06357 0.0
C310 C 0.44192 0.85577 0.05829 0.0
C311 C 0.39911 0.8258 0.09028 0.0
N312 N 0.50434 0.83326 0.05824 0.0
N313 N 0.42908 0.81842 0.09018 0.0
H314 H 0.59851 0.13082 0.53836 0.0
H315 H 0.46964 0.1955 0.62555 0.0
H316 H 0.61901 0.20011 0.59385 0.0
H317 H 0.4527 0.17003 0.53521 0.0
H318 H 0.52422 0.19964 0.61404 0.0
H319 H 0.54526 0.14586 0.53511 0.0
C320 C 0.59187 0.14964 0.54916 0.0
C321 C 0.61297 0.16434 0.56633 0.0
C322 C 0.50847 0.194 0.59646 0.0
C323 C 0.55213 0.18105 0.56367 0.0
C324 C 0.47739 0.19167 0.60301 0.0
C325 C 0.45684 0.18253 0.58122 0.0
C326 C 0.51911 0.18606 0.56829 0.0
C327 C 0.46792 0.17738 0.55248 0.0
C328 C 0.56157 0.15823 0.54727 0.0
C329 C 0.60333 0.1884 0.58022 0.0
N330 N 0.49852 0.17846 0.54702 0.0
N331 N 0.57333 0.19565 0.57929 0.0
H332 H 0.54481 0.0731 0.84253 0.0
H333 H 0.38896 0.12782 0.9142 0.0
H334 H 0.54386 0.12643 0.91897 0.0
H335 H 0.39489 0.07014 0.84185 0.0
H336 H 0.44511 0.1305 0.91515 0.0
H337 H 0.48949 0.07526 0.84036 0.0
C338 C 0.53296 0.08541 0.85886 0.0
C339 C 0.5491 0.09944 0.88113 0.0
C340 C 0.434 0.11733 0.89908 0.0
C341 C 0.48515 0.10185 0.87888 0.0
C342 C 0.40199 0.11577 0.89852 0.0
C343 C 0.38712 0.09862 0.878 0.0
C344 C 0.45116 0.10173 0.87889 0.0
C345 C 0.40519 0.08354 0.85818 0.0
C346 C 0.50123 0.08661 0.85762 0.0
C347 C 0.53234 0.11525 0.90145 0.0
N348 N 0.4361 0.08545 0.85916 0.0
N349 N 0.5012 0.11589 0.89998 0.0
H350 H 0.45995 0.86872 0.43513 0.0
H351 H 0.6216 0.86684 0.42679 0.0
H352 H 0.46604 0.91547 0.35377 0.0
H353 H 0.60875 0.92762 0.35825 0.0
H354 H 0.56608 0.86068 0.42942 0.0
H355 H 0.51586 0.86603 0.43634 0.0
C356 C 0.47303 0.878 0.41727 0.0
C357 C 0.45825 0.89251 0.39445 0.0
C358 C 0.57529 0.87554 0.41402 0.0
C359 C 0.5223 0.88948 0.39547 0.0
C360 C 0.60712 0.87899 0.41243 0.0
C361 C 0.61996 0.8979 0.3924 0.0
C362 C 0.55625 0.89118 0.39539 0.0
C363 C 0.60007 0.91289 0.37417 0.0
C364 C 0.50506 0.87647 0.41794 0.0
C365 C 0.47633 0.90429 0.372 0.0
N366 N 0.56942 0.90917 0.37612 0.0
N367 N 0.50722 0.90266 0.37323 0.0
H368 H 0.227 0.35341 0.14699 0.0
H369 H 0.21854 0.33865 0.32291 0.0
H370 H 0.15308 0.31635 0.19607 0.0
H371 H 0.26094 0.40581 0.27618 0.0
H372 H 0.21369 0.31424 0.27564 0.0
H373 H 0.25708 0.35577 0.19321 0.0
C374 C 0.21774 0.34459 0.16724 0.0
C375 C 0.18762 0.3348 0.16803 0.0
C376 C 0.22507 0.3339 0.27597 0.0
C377 C 0.22149 0.33751 0.2205 0.0
C378 C 0.22801 0.34781 0.30294 0.0
C379 C 0.2394 0.37461 0.30327 0.0
C380 C 0.23392 0.34681 0.24937 0.0
C381 C 0.25137 0.38542 0.27673 0.0
C382 C 0.23477 0.3461 0.19355 0.0
C383 C 0.17627 0.32409 0.19477 0.0
N384 N 0.24776 0.37169 0.25069 0.0
N385 N 0.19308 0.32604 0.22011 0.0
H386 H 0.76701 0.64499 0.65498 0.0
H387 H 0.7847 0.6759 0.82573 0.0
H388 H 0.83814 0.69396 0.69435 0.0
H389 H 0.73416 0.60912 0.78706 0.0
H390 H 0.78571 0.69836 0.77697 0.0
H391 H 0.73734 0.64877 0.70106 0.0
C392 C 0.77564 0.65767 0.67288 0.0
C393 C 0.80494 0.66911 0.67118 0.0
C394 C 0.7734 0.67928 0.77942 0.0
C395 C 0.77196 0.67264 0.72406 0.0
C396 C 0.77264 0.66653 0.80729 0.0
C397 C 0.76009 0.64027 0.81009 0.0
C398 C 0.76142 0.66564 0.75449 0.0
C399 C 0.74473 0.62908 0.78556 0.0
C400 C 0.75887 0.65965 0.69923 0.0
C401 C 0.81553 0.6849 0.69501 0.0
N402 N 0.74639 0.64154 0.7586 0.0
N403 N 0.79933 0.68571 0.72083 0.0
H404 H 0.24049 0.59844 0.8326 0.0
H405 H 0.22108 0.68396 0.68645 0.0
H406 H 0.18223 0.66878 0.82598 0.0
H407 H 0.27761 0.61272 0.6958 0.0
H408 H 0.2202 0.68867 0.74083 0.0
H409 H 0.26746 0.61314 0.78778 0.0
C410 C 0.23401 0.61746 0.82206 0.0
C411 C 0.20904 0.63233 0.83265 0.0
C412 C 0.23373 0.67259 0.73097 0.0
C413 C 0.23874 0.64869 0.78053 0.0
C414 C 0.23453 0.6701 0.6999 0.0
C415 C 0.24902 0.64764 0.68681 0.0
C416 C 0.2475 0.65242 0.74876 0.0
C417 C 0.26582 0.6301 0.70516 0.0
C418 C 0.24929 0.62584 0.79638 0.0
C419 C 0.20143 0.6568 0.81833 0.0
N420 N 0.26408 0.63252 0.73522 0.0
N421 N 0.21569 0.66388 0.79245 0.0
H422 H 0.74085 0.38533 0.17509 0.0
H423 H 0.82284 0.34056 0.32473 0.0
H424 H 0.80794 0.32154 0.18069 0.0
H425 H 0.77327 0.41531 0.31087 0.0
H426 H 0.80223 0.3231 0.27746 0.0
H427 H 0.7365 0.38508 0.22945 0.0
C428 C 0.75368 0.37046 0.18783 0.0
C429 C 0.77468 0.35338 0.17369 0.0
C430 C 0.79518 0.34299 0.28525 0.0
C431 C 0.77102 0.35379 0.23568 0.0
C432 C 0.80679 0.35288 0.31225 0.0
C433 C 0.8001 0.37956 0.32126 0.0
C434 C 0.77666 0.35992 0.26754 0.0
C435 C 0.77934 0.39479 0.30434 0.0
C436 C 0.75146 0.37048 0.21882 0.0
C437 C 0.79134 0.33486 0.191 0.0
N438 N 0.76869 0.38491 0.2781 0.0
N439 N 0.78966 0.33593 0.22124 0.0
H440 H 0.7241 0.83093 0.33094 0.0
H441 H 0.72871 0.8496 0.15529 0.0
H442 H 0.7669 0.89836 0.28508 0.0
H443 H 0.65451 0.81391 0.20517 0.0
H444 H 0.75994 0.85004 0.20086 0.0
H445 H 0.71744 0.80774 0.28309 0.0
C446 C 0.73333 0.84033 0.311 0.0
C447 C 0.74537 0.86689 0.31177 0.0
C448 C 0.73726 0.84109 0.20148 0.0
C449 C 0.73782 0.84054 0.25729 0.0
C450 C 0.71956 0.8407 0.17555 0.0
C451 C 0.68911 0.83183 0.1768 0.0
C452 C 0.72431 0.83231 0.22851 0.0
C453 C 0.67795 0.82096 0.20353 0.0
C454 C 0.72934 0.82714 0.28371 0.0
C455 C 0.75692 0.87812 0.28528 0.0
N456 N 0.69544 0.82181 0.22851 0.0
N457 N 0.75232 0.86511 0.25896 0.0
H458 H 0.28144 0.17216 0.82298 0.0
H459 H 0.27647 0.15799 0.64695 0.0
H460 H 0.23895 0.10565 0.77548 0.0
H461 H 0.35008 0.19357 0.69763 0.0
H462 H 0.24533 0.156 0.69252 0.0
H463 H 0.2876 0.19664 0.77579 0.0
C464 C 0.27223 0.16317 0.80284 0.0
C465 C 0.26044 0.13651 0.80295 0.0
C466 C 0.26783 0.16526 0.69334 0.0
C467 C 0.26742 0.16438 0.74917 0.0
C468 C 0.28548 0.16656 0.6674 0.0
C469 C 0.3158 0.17578 0.66884 0.0
C470 C 0.28068 0.17354 0.72057 0.0
C471 C 0.32677 0.18622 0.69583 0.0
C472 C 0.27592 0.17712 0.77592 0.0
C473 C 0.24882 0.12592 0.7762 0.0
N474 N 0.30934 0.1845 0.72079 0.0
N475 N 0.25316 0.13967 0.75023 0.0
H476 H 0.72654 0.08408 0.8173 0.0
H477 H 0.69596 0.18394 0.68427 0.0
H478 H 0.67544 0.15849 0.82689 0.0
H479 H 0.75352 0.11309 0.6795 0.0
H480 H 0.69909 0.18227 0.73887 0.0
H481 H 0.74777 0.10116 0.77065 0.0
C482 C 0.72039 0.10435 0.80983 0.0
C483 C 0.69895 0.11977 0.82562 0.0
C484 C 0.71194 0.16765 0.72592 0.0
C485 C 0.72219 0.13914 0.77161 0.0
C486 C 0.71037 0.16879 0.69479 0.0
C487 C 0.7246 0.14865 0.67766 0.0
C488 C 0.72743 0.14592 0.73971 0.0
C489 C 0.74238 0.12902 0.69211 0.0
C490 C 0.73245 0.11413 0.78314 0.0
C491 C 0.69186 0.14597 0.8152 0.0
N492 N 0.74288 0.12786 0.72232 0.0
N493 N 0.70283 0.15458 0.78836 0.0
H494 H 0.29627 0.82639 0.18564 0.0
H495 H 0.27979 0.91744 0.33002 0.0
H496 H 0.25612 0.90636 0.18934 0.0
H497 H 0.3312 0.84274 0.32786 0.0
H498 H 0.25606 0.9053 0.28269 0.0
H499 H 0.29486 0.8242 0.24042 0.0
C500 C 0.28601 0.84297 0.19799 0.0
C501 C 0.27643 0.86666 0.18325 0.0
C502 C 0.272 0.89117 0.29276 0.0
C503 C 0.27516 0.86456 0.2454 0.0
C504 C 0.2854 0.89806 0.31985 0.0
C505 C 0.3076 0.88116 0.33252 0.0
C506 C 0.28165 0.86762 0.27771 0.0
C507 C 0.31414 0.85627 0.31863 0.0
C508 C 0.28544 0.84183 0.22919 0.0
C509 C 0.26382 0.88781 0.20006 0.0
N510 N 0.30178 0.85053 0.29147 0.0
N511 N 0.2639 0.88641 0.23023 0.0
H512 H 0.30663 0.22055 0.92136 0.0
H513 H 0.17091 0.26549 0.02988 0.0
H514 H 0.24129 0.16423 0.95945 0.0
H515 H 0.24719 0.31812 0.00844 0.0
H516 H 0.19477 0.229 0.00134 0.0
H517 H 0.28394 0.25729 0.95077 0.0
C518 C 0.28761 0.21587 0.93599 0.0
C519 C 0.27584 0.18925 0.9379 0.0
C520 C 0.20633 0.24852 0.00289 0.0
C521 C 0.24961 0.23125 0.97138 0.0
C522 C 0.19265 0.26943 0.0191 0.0
C523 C 0.20707 0.29494 0.0216 0.0
C524 C 0.23457 0.25313 0.98882 0.0
C525 C 0.23527 0.29878 0.00717 0.0
C526 C 0.27469 0.23686 0.95277 0.0
C527 C 0.25117 0.1844 0.95726 0.0
N528 N 0.24806 0.27812 0.99133 0.0
N529 N 0.23879 0.20521 0.97309 0.0
H530 H 0.84478 0.73486 0.53634 0.0
H531 H 0.7071 0.78114 0.43035 0.0
H532 H 0.76629 0.68419 0.5173 0.0
H533 H 0.77356 0.83743 0.46637 0.0
H534 H 0.73096 0.74431 0.45867 0.0
H535 H 0.8218 0.77155 0.50686 0.0
C536 C 0.82283 0.73138 0.52581 0.0
C537 C 0.8074 0.70643 0.52937 0.0
C538 C 0.74028 0.76473 0.46044 0.0
C539 C 0.78098 0.74831 0.49568 0.0
C540 C 0.72666 0.78579 0.44427 0.0
C541 C 0.73828 0.81245 0.44603 0.0
C542 C 0.76592 0.77028 0.47831 0.0
C543 C 0.76373 0.81722 0.46443 0.0
C544 C 0.80966 0.75237 0.50912 0.0
C545 C 0.77896 0.7031 0.51528 0.0
N546 N 0.77677 0.79632 0.47976 0.0
N547 N 0.7667 0.72377 0.49906 0.0
H548 H 0.25591 0.751 0.09985 0.0
H549 H 0.17065 0.70208 0.95116 0.0
H550 H 0.23603 0.80433 0.02575 0.0
H551 H 0.18771 0.64941 0.02648 0.0
H552 H 0.1925 0.74023 0.97899 0.0
H553 H 0.22937 0.71397 0.0741 0.0
C554 C 0.24591 0.75497 0.0782 0.0
C555 C 0.24834 0.78083 0.06492 0.0
C556 C 0.19132 0.72037 0.98951 0.0
C557 C 0.21788 0.73843 0.03525 0.0
C558 C 0.17878 0.69855 0.97363 0.0
C559 C 0.17745 0.67242 0.98642 0.0
C560 C 0.20274 0.71607 0.0184 0.0
C561 C 0.18832 0.66915 0.01566 0.0
C562 C 0.23072 0.7338 0.06351 0.0
C563 C 0.23482 0.78473 0.03684 0.0
N564 N 0.20065 0.69066 0.03057 0.0
N565 N 0.22029 0.76376 0.02292 0.0
H566 H 0.76489 0.20624 0.51598 0.0
H567 H 0.82844 0.35971 0.52072 0.0
H568 H 0.75619 0.25901 0.59239 0.0
H569 H 0.82795 0.31004 0.44139 0.0
H570 H 0.80611 0.32168 0.54857 0.0
H571 H 0.79185 0.24272 0.48956 0.0
C572 C 0.76872 0.22546 0.52726 0.0
C573 C 0.7581 0.22957 0.55644 0.0
C574 C 0.81101 0.31905 0.5251 0.0
C575 C 0.78905 0.27148 0.52626 0.0
C576 C 0.82386 0.34076 0.50917 0.0
C577 C 0.82997 0.33816 0.4786 0.0
C578 C 0.80425 0.29449 0.5104 0.0
C579 C 0.82353 0.31305 0.46489 0.0
C580 C 0.78411 0.2463 0.51213 0.0
C581 C 0.76382 0.25492 0.56989 0.0
N582 N 0.81094 0.29225 0.48085 0.0
N583 N 0.77884 0.2749 0.55469 0.0
H584 H 0.67172 0.76332 0.03857 0.0
H585 H 0.80882 0.72421 0.92906 0.0
H586 H 0.7465 0.81816 0.01877 0.0
H587 H 0.74625 0.66515 0.96662 0.0
H588 H 0.78487 0.75969 0.95933 0.0
H589 H 0.69689 0.72796 0.00931 0.0
C590 C 0.69339 0.76798 0.02799 0.0
C591 C 0.70703 0.79376 0.03115 0.0
C592 C 0.77651 0.73893 0.96104 0.0
C593 C 0.73599 0.7533 -0.0024 0.0
C594 C 0.79016 0.71866 0.94377 0.0
C595 C 0.77953 0.69165 0.94527 0.0
C596 C 0.75182 0.7322 0.97972 0.0
C597 C 0.75527 0.68567 0.96475 0.0
C598 C 0.70782 0.74772 0.01139 0.0
C599 C 0.73518 0.79856 0.01699 0.0
N600 N 0.74213 0.7058 0.98105 0.0
N601 N 0.74869 0.77855 0.00076 0.0
H602 H 0.3193 0.27156 0.56466 0.0
H603 H 0.229 0.28858 0.41043 0.0
H604 H 0.30458 0.20548 0.5028 0.0
H605 H 0.24419 0.35418 0.47281 0.0
H606 H 0.2549 0.25739 0.44461 0.0
H607 H 0.29065 0.30174 0.53173 0.0
C608 C 0.31006 0.26337 0.54413 0.0
C609 C 0.31444 0.23592 0.53648 0.0
C610 C 0.25245 0.27859 0.45087 0.0
C611 C 0.28144 0.27046 0.4986 0.0
C612 C 0.23758 0.29641 0.43139 0.0
C613 C 0.23448 0.3241 0.43869 0.0
C614 C 0.26435 0.28849 0.47786 0.0
C615 C 0.24609 0.33304 0.46618 0.0
C616 C 0.29364 0.28064 0.52533 0.0
C617 C 0.30184 0.2265 0.50959 0.0
N618 N 0.26058 0.31533 0.48467 0.0
N619 N 0.28595 0.24374 0.49161 0.0
H620 H 0.78735 0.24181 0.06754 0.0
H621 H 0.65591 0.19148 0.95584 0.0
H622 H 0.72498 0.29719 0.02419 0.0
H623 H 0.73175 0.14165 0.98407 0.0
H624 H 0.67681 0.22943 0.98518 0.0
H625 H 0.76309 0.20385 0.04152 0.0
C626 C 0.76847 0.24601 0.05262 0.0
C627 C 0.75831 0.27278 0.04794 0.0
C628 C 0.68877 0.21014 0.98498 0.0
C629 C 0.73031 0.22926 0.01804 0.0
C630 C 0.6768 0.18845 0.96835 0.0
C631 C 0.69218 0.16339 0.96739 0.0
C632 C 0.71611 0.2066 0.00096 0.0
C633 C 0.71921 0.16064 0.98399 0.0
C634 C 0.75465 0.22429 0.03771 0.0
C635 C 0.73368 0.2769 0.02835 0.0
N636 N 0.73027 0.18194 4e-05 0.0
N637 N 0.72052 0.25537 0.0141 0.0
H638 H 0.2485 0.75715 0.60248 0.0
H639 H 0.3294 0.80645 0.45128 0.0
H640 H 0.25942 0.70559 0.52537 0.0
H641 H 0.32101 0.8568 0.52965 0.0
H642 H 0.30419 0.76917 0.47804 0.0
H643 H 0.27479 0.79391 0.57598 0.0
C644 C 0.25633 0.75355 0.57994 0.0
C645 C 0.25169 0.72819 0.56616 0.0
C646 C 0.30795 0.78834 0.48942 0.0
C647 C 0.28201 0.77029 0.53564 0.0
C648 C 0.32242 0.80965 0.47416 0.0
C649 C 0.32733 0.83487 0.48819 0.0
C650 C 0.29822 0.79224 0.51894 0.0
C651 C 0.31774 0.83776 0.51789 0.0
C652 C 0.27143 0.77457 0.56482 0.0
C653 C 0.26244 0.72478 0.5369 0.0
N654 N 0.30358 0.81677 0.53221 0.0
N655 N 0.27709 0.74556 0.52264 0.0
H656 H 0.15948 0.56408 0.99072 0.0
H657 H 0.17889 0.40313 0.01429 0.0
H658 H 0.18168 0.50736 0.92063 0.0
H659 H 0.14167 0.45695 0.08104 0.0
H660 H 0.18907 0.44261 0.98251 0.0
H661 H 0.1622 0.52657 0.02687 0.0
C662 C 0.16546 0.54388 0.98302 0.0
C663 C 0.16997 0.53876 0.95258 0.0
C664 C 0.17889 0.4458 0.00421 0.0
C665 C 0.17295 0.49585 0.99365 0.0
C666 C 0.17308 0.42325 0.0224 0.0
C667 C 0.15902 0.42665 0.05024 0.0
C668 C 0.1706 0.47199 0.0139 0.0
C669 C 0.15223 0.45329 0.05962 0.0
C670 C 0.16684 0.52246 0.00361 0.0
C671 C 0.17761 0.51217 0.94382 0.0
N672 N 0.15787 0.47491 0.04139 0.0
N673 N 0.17862 0.49172 0.96419 0.0
H674 H 0.84423 0.54109 0.58708 0.0
H675 H 0.81959 0.50447 0.41583 0.0
H676 H 0.83039 0.60105 0.51784 0.0
H677 H 0.83578 0.44412 0.48411 0.0
H678 H 0.81565 0.53936 0.45415 0.0
H679 H 0.834 0.50501 0.55107 0.0
C680 C 0.83881 0.54672 0.56434 0.0
C681 C 0.83859 0.57419 0.55539 0.0
C682 C 0.81971 0.51846 0.46085 0.0
C683 C 0.82686 0.53284 0.514 0.0
C684 C 0.82194 0.49847 0.43896 0.0
C685 C 0.82849 0.47137 0.44675 0.0
C686 C 0.82433 0.51142 0.49082 0.0
C687 C 0.8309 0.46478 0.47709 0.0
C688 C 0.83293 0.52605 0.54379 0.0
C689 C 0.83111 0.58018 0.52569 0.0
N690 N 0.82925 0.48476 0.49802 0.0
N691 N 0.82583 0.55966 0.50601 0.0
H692 H 0.76552 0.46471 0.07015 0.0
H693 H 0.75977 0.50319 0.89867 0.0
H694 H 0.76054 0.40499 -0.00018 0.0
H695 H 0.7622 0.56236 0.96976 0.0
H696 H 0.75022 0.46732 0.93524 0.0
H697 H 0.75416 0.50047 0.03412 0.0
C698 C 0.76152 0.45907 0.04714 0.0
C699 C 0.76451 0.43189 0.03784 0.0
C700 C 0.75237 0.48819 0.94283 0.0
C701 C 0.75198 0.47289 -0.0037 0.0
C702 C 0.75785 0.50873 0.92195 0.0
C703 C 0.76239 0.53581 0.93121 0.0
C704 C 0.75166 0.49467 0.97326 0.0
C705 C 0.75921 0.54176 0.96161 0.0
C706 C 0.75504 0.47953 0.02655 0.0
C707 C 0.75865 0.42571 0.00788 0.0
N708 N 0.75453 0.52129 0.98159 0.0
N709 N 0.75324 0.44615 0.98803 0.0
H710 H 0.25072 0.44764 0.46236 0.0
H711 H 0.2411 0.60448 0.50855 0.0
H712 H 0.23694 0.5131 0.39936 0.0
H713 H 0.24817 0.53749 0.57062 0.0
H714 H 0.25014 0.57252 0.46747 0.0
H715 H 0.26058 0.48133 0.50116 0.0
C716 C 0.2502 0.46908 0.45655 0.0
C717 C 0.24244 0.47752 0.42765 0.0
C718 C 0.25019 0.56493 0.49014 0.0
C719 C 0.25338 0.51629 0.47212 0.0
C720 C 0.24517 0.58319 0.51358 0.0
C721 C 0.24334 0.57353 0.54297 0.0
C722 C 0.25348 0.53694 0.49627 0.0
C723 C 0.24882 0.54574 0.54824 0.0
C724 C 0.25578 0.48835 0.47876 0.0
C725 C 0.24244 0.50563 0.42142 0.0
N726 N 0.25329 0.52843 0.52513 0.0
N727 N 0.24734 0.52401 0.44357 0.0
H728 H 0.65519 0.0576 0.98992 0.0
H729 H 0.67964 0.89878 0.02347 0.0
H730 H 0.67915 0.99771 0.92363 0.0
H731 H 0.64107 0.95498 0.08707 0.0
H732 H 0.6888 0.9368 0.98946 0.0
H733 H 0.6593 0.02225 0.02849 0.0
C734 C 0.66183 0.03717 0.98355 0.0
C735 C 0.66642 0.03048 0.95349 0.0
C736 C 0.67856 0.94086 0.01096 0.0
C737 C 0.67104 0.99007 -0.00269 0.0
C738 C 0.67333 0.91914 0.03042 0.0
C739 C 0.65916 0.9236 0.05803 0.0
C740 C 0.66953 0.9673 0.01908 0.0
C741 C 0.65176 0.95052 0.06589 0.0
C742 C 0.66401 0.01699 0.00552 0.0
C743 C 0.67497 0.00369 0.94648 0.0
N744 N 0.65678 0.97132 0.0464 0.0
N745 N 0.67676 0.98446 0.96816 0.0
H746 H 0.35191 0.94345 0.49654 0.0
H747 H 0.32613 0.10371 0.51891 0.0
H748 H 0.32871 0.9997 0.42611 0.0
H749 H 0.36728 0.05196 0.58562 0.0
H750 H 0.31711 0.06367 0.48792 0.0
H751 H 0.34758 0.98088 0.53263 0.0
C752 C 0.34531 0.96351 0.48878 0.0
C753 C 0.34103 0.9686 0.45829 0.0
C754 C 0.32791 0.06103 0.50945 0.0
C755 C 0.33617 0.01131 0.4992 0.0
C756 C 0.33306 0.08391 0.52718 0.0
C757 C 0.34788 0.08129 0.55476 0.0
C758 C 0.33764 0.03527 0.51927 0.0
C759 C 0.35608 0.05501 0.56437 0.0
C760 C 0.34304 0.98487 0.50931 0.0
C761 C 0.33262 0.99497 0.44938 0.0
N762 N 0.35109 0.03304 0.54654 0.0
N763 N 0.33069 0.01533 0.46967 0.0
H764 H 0.26339 0.9705 0.07127 0.0
H765 H 0.25376 0.99923 0.89784 0.0
H766 H 0.26008 0.90668 0.00533 0.0
H767 H 0.2532 0.06202 0.96515 0.0
H768 H 0.24609 0.96495 0.93665 0.0
H769 H 0.24956 0.00361 0.03315 0.0
C770 C 0.25926 0.96339 0.04877 0.0
C771 C 0.26338 0.93588 0.04131 0.0
C772 C 0.24711 0.98626 0.9429 0.0
C773 C 0.24805 0.97385 -0.0027 0.0
C774 C 0.25148 0.0059 0.92072 0.0
C775 C 0.25476 0.03356 0.92829 0.0
C776 C 0.24623 0.99428 0.97289 0.0
C777 C 0.25122 0.04094 0.95828 0.0
C778 C 0.25135 0.98234 0.02698 0.0
C779 C 0.25732 0.92774 0.01195 0.0
N780 N 0.24766 0.02138 0.9795 0.0
N781 N 0.25053 0.94676 0.99084 0.0
H782 H 0.7358 0.04104 0.57374 0.0
H783 H 0.75276 1.0028 0.40342 0.0
H784 H 0.74461 0.10106 0.50386 0.0
H785 H 0.75037 0.94361 0.47469 0.0
H786 H 0.75946 0.03898 0.4401 0.0
H787 H 0.75067 0.00562 0.53871 0.0
C788 C 0.74133 0.04681 0.55105 0.0
C789 C 0.73846 0.07396 0.54153 0.0
C790 C 0.75802 0.01805 0.44773 0.0
C791 C 0.75507 0.03334 0.50107 0.0
C792 C 0.7542 0.99733 0.42677 0.0
C793 C 0.75037 0.97014 0.43603 0.0
C794 C 0.75771 0.01161 0.47821 0.0
C795 C 0.75286 0.96428 0.46654 0.0
C796 C 0.74986 0.02655 0.53104 0.0
C797 C 0.74634 0.08035 0.51204 0.0
N798 N 0.75582 0.9849 0.48656 0.0
N799 N 0.75372 0.06007 0.49266 0.0
loop_
_geom_bond_atom_site_label_1
_geom_bond_atom_site_label_2
_geom_bond_distance
_geom_bond_site_symmetry_2
_ccdc_geom_bond_type
Zn0 O3 2.031 . S
Zn0 O5 2.049 . S
Zn0 O10 2.067 . S
Zn1 O2 1.962 . S
Zn1 O4 1.986 . S
Zn1 O6 1.996 . S
Zn1 O9 1.943 . S
O2 Zn1 1.962 . S
O2 C7 1.254 . S
O3 Zn0 2.031 . S
O3 C7 1.269 . S
O4 Zn1 1.986 . S
O4 C11 1.262 . S
O5 Zn0 2.049 . S
O5 C13 1.260 . S
O6 Zn1 1.996 . S
O6 C13 1.257 . S
C7 O2 1.254 . S
C7 O3 1.269 . S
C8 O9 1.249 . S
C8 O10 1.270 . S
O9 Zn1 1.943 . S
O9 C8 1.249 . S
O10 Zn0 2.067 . S
O10 C8 1.270 . S
C11 O4 1.262 . S
C11 O12 1.232 . S
O12 C11 1.232 . S
C13 O5 1.260 . S
C13 O6 1.257 . S
Zn14 O17 2.031 . S
Zn14 O19 2.049 . S
Zn14 O24 2.067 . S
Zn15 O16 1.962 . S
Zn15 O18 1.986 . S
Zn15 O20 1.996 . S
Zn15 O23 1.943 . S
O16 Zn15 1.962 . S
O16 C21 1.254 . S
O17 Zn14 2.031 . S
O17 C21 1.269 . S
O18 Zn15 1.986 . S
O18 C25 1.262 . S
O19 Zn14 2.049 . S
O19 C27 1.260 . S
O20 Zn15 1.996 . S
O20 C27 1.257 . S
C21 O16 1.254 . S
C21 O17 1.269 . S
C22 O23 1.249 . S
C22 O24 1.270 . S
O23 Zn15 1.943 . S
O23 C22 1.249 . S
O24 Zn14 2.067 . S
O24 C22 1.270 . S
C25 O18 1.262 . S
C25 O26 1.232 . S
O26 C25 1.232 . S
C27 O19 1.260 . S
C27 O20 1.257 . S
Zn28 O31 2.031 . S
Zn28 O33 2.049 . S
Zn28 O38 2.067 . S
Zn29 O30 1.962 . S
Zn29 O32 1.986 . S
Zn29 O34 1.996 . S
Zn29 O37 1.943 . S
O30 Zn29 1.962 . S
O30 C35 1.254 . S
O31 Zn28 2.031 . S
O31 C35 1.269 . S
O32 Zn29 1.986 . S
O32 C39 1.262 . S
O33 Zn28 2.049 . S
O33 C41 1.260 . S
O34 Zn29 1.996 . S
O34 C41 1.257 . S
C35 O30 1.254 . S
C35 O31 1.269 . S
C36 O37 1.249 . S
C36 O38 1.270 . S
O37 Zn29 1.943 . S
O37 C36 1.249 . S
O38 Zn28 2.067 . S
O38 C36 1.270 . S
C39 O32 1.262 . S
C39 O40 1.232 . S
O40 C39 1.232 . S
C41 O33 1.260 . S
C41 O34 1.257 . S
Zn42 O45 2.031 . S
Zn42 O47 2.049 . S
Zn42 O52 2.067 . S
Zn43 O44 1.962 . S
Zn43 O46 1.986 . S
Zn43 O48 1.996 . S
Zn43 O51 1.943 . S
O44 Zn43 1.962 . S
O44 C49 1.254 . S
O45 Zn42 2.031 . S
O45 C49 1.269 . S
O46 Zn43 1.986 . S
O46 C53 1.262 . S
O47 Zn42 2.049 . S
O47 C55 1.260 . S
O48 Zn43 1.996 . S
O48 C55 1.257 . S
C49 O44 1.254 . S
C49 O45 1.269 . S
C50 O51 1.249 . S
C50 O52 1.270 . S
O51 Zn43 1.943 . S
O51 C50 1.249 . S
O52 Zn42 2.067 . S
O52 C50 1.270 . S
C53 O46 1.262 . S
C53 O54 1.232 . S
O54 C53 1.232 . S
C55 O47 1.260 . S
C55 O48 1.257 . S
Zn56 O59 2.031 . S
Zn56 O61 2.049 . S
Zn56 O66 2.067 . S
Zn57 O58 1.962 . S
Zn57 O60 1.986 . S
Zn57 O62 1.996 . S
Zn57 O65 1.943 . S
O58 Zn57 1.962 . S
O58 C63 1.254 . S
O59 Zn56 2.031 . S
O59 C63 1.269 . S
O60 Zn57 1.986 . S
O60 C67 1.262 . S
O61 Zn56 2.049 . S
O61 C69 1.260 . S
O62 Zn57 1.996 . S
O62 C69 1.257 . S
C63 O58 1.254 . S
C63 O59 1.269 . S
C64 O65 1.249 . S
C64 O66 1.270 . S
O65 Zn57 1.943 . S
O65 C64 1.249 . S
O66 Zn56 2.067 . S
O66 C64 1.270 . S
C67 O60 1.262 . S
C67 O68 1.232 . S
O68 C67 1.232 . S
C69 O61 1.260 . S
C69 O62 1.257 . S
Zn70 O73 2.031 . S
Zn70 O75 2.049 . S
Zn70 O80 2.067 . S
Zn71 O72 1.962 . S
Zn71 O74 1.986 . S
Zn71 O76 1.996 . S
Zn71 O79 1.943 . S
O72 Zn71 1.962 . S
O72 C77 1.254 . S
O73 Zn70 2.031 . S
O73 C77 1.269 . S
O74 Zn71 1.986 . S
O74 C81 1.262 . S
O75 Zn70 2.049 . S
O75 C83 1.260 . S
O76 Zn71 1.996 . S
O76 C83 1.257 . S
C77 O72 1.254 . S
C77 O73 1.269 . S
C78 O79 1.249 . S
C78 O80 1.270 . S
O79 Zn71 1.943 . S
O79 C78 1.249 . S
O80 Zn70 2.067 . S
O80 C78 1.270 . S
C81 O74 1.262 . S
C81 O82 1.232 . S
O82 C81 1.232 . S
C83 O75 1.260 . S
C83 O76 1.257 . S
Zn84 O87 2.031 . S
Zn84 O89 2.049 . S
Zn84 O94 2.067 . S
Zn85 O86 1.962 . S
Zn85 O88 1.986 . S
Zn85 O90 1.996 . S
Zn85 O93 1.943 . S
O86 Zn85 1.962 . S
O86 C91 1.254 . S
O87 Zn84 2.031 . S
O87 C91 1.269 . S
O88 Zn85 1.986 . S
O88 C95 1.262 . S
O89 Zn84 2.049 . S
O89 C97 1.260 . S
O90 Zn85 1.996 . S
O90 C97 1.257 . S
C91 O86 1.254 . S
C91 O87 1.269 . S
C92 O93 1.249 . S
C92 O94 1.270 . S
O93 Zn85 1.943 . S
O93 C92 1.249 . S
O94 Zn84 2.067 . S
O94 C92 1.270 . S
C95 O88 1.262 . S
C95 O96 1.232 . S
O96 C95 1.232 . S
C97 O89 1.260 . S
C97 O90 1.257 . S
Zn98 O101 2.031 . S
Zn98 O103 2.049 . S
Zn98 O108 2.067 . S
Zn99 O100 1.962 . S
Zn99 O102 1.986 . S
Zn99 O104 1.996 . S
Zn99 O107 1.943 . S
O100 Zn99 1.962 . S
O100 C105 1.254 . S
O101 Zn98 2.031 . S
O101 C105 1.269 . S
O102 Zn99 1.986 . S
O102 C109 1.262 . S
O103 Zn98 2.049 . S
O103 C111 1.260 . S
O104 Zn99 1.996 . S
O104 C111 1.257 . S
C105 O100 1.254 . S
C105 O101 1.269 . S
C106 O107 1.249 . S
C106 O108 1.270 . S
O107 Zn99 1.943 . S
O107 C106 1.249 . S
O108 Zn98 2.067 . S
O108 C106 1.270 . S
C109 O102 1.262 . S
C109 O110 1.232 . S
O110 C109 1.232 . S
C111 O103 1.260 . S
C111 O104 1.257 . S
Zn112 O115 2.031 . S
Zn112 O117 2.049 . S
Zn112 O122 2.067 . S
Zn113 O114 1.962 . S
Zn113 O116 1.986 . S
Zn113 O118 1.996 . S
Zn113 O121 1.943 . S
O114 Zn113 1.962 . S
O114 C119 1.254 . S
O115 Zn112 2.031 . S
O115 C119 1.269 . S
O116 Zn113 1.986 . S
O116 C123 1.262 . S
O117 Zn112 2.049 . S
O117 C125 1.260 . S
O118 Zn113 1.996 . S
O118 C125 1.257 . S
C119 O114 1.254 . S
C119 O115 1.269 . S
C120 O121 1.249 . S
C120 O122 1.270 . S
O121 Zn113 1.943 . S
O121 C120 1.249 . S
O122 Zn112 2.067 . S
O122 C120 1.270 . S
C123 O116 1.262 . S
C123 O124 1.232 . S
O124 C123 1.232 . S
C125 O117 1.260 . S
C125 O118 1.257 . S
Zn126 O129 2.031 . S
Zn126 O131 2.049 . S
Zn126 O136 2.067 . S
Zn127 O128 1.962 . S
Zn127 O130 1.986 . S
Zn127 O132 1.996 . S
Zn127 O135 1.943 . S
O128 Zn127 1.962 . S
O128 C133 1.254 . S
O129 Zn126 2.031 . S
O129 C133 1.269 . S
O130 Zn127 1.986 . S
O130 C137 1.262 . S
O131 Zn126 2.049 . S
O131 C139 1.260 . S
O132 Zn127 1.996 . S
O132 C139 1.257 . S
C133 O128 1.254 . S
C133 O129 1.269 . S
C134 O135 1.249 . S
C134 O136 1.270 . S
O135 Zn127 1.943 . S
O135 C134 1.249 . S
O136 Zn126 2.067 . S
O136 C134 1.270 . S
C137 O130 1.262 . S
C137 O138 1.232 . S
O138 C137 1.232 . S
C139 O131 1.260 . S
C139 O132 1.257 . S
Zn140 O143 2.031 . S
Zn140 O145 2.049 . S
Zn140 O150 2.067 . S
Zn141 O142 1.962 . S
Zn141 O144 1.986 . S
Zn141 O146 1.996 . S
Zn141 O149 1.943 . S
O142 Zn141 1.962 . S
O142 C147 1.254 . S
O143 Zn140 2.031 . S
O143 C147 1.269 . S
O144 Zn141 1.986 . S
O144 C151 1.262 . S
O145 Zn140 2.049 . S
O145 C153 1.260 . S
O146 Zn141 1.996 . S
O146 C153 1.257 . S
C147 O142 1.254 . S
C147 O143 1.269 . S
C148 O149 1.249 . S
C148 O150 1.270 . S
O149 Zn141 1.943 . S
O149 C148 1.249 . S
O150 Zn140 2.067 . S
O150 C148 1.270 . S
C151 O144 1.262 . S
C151 O152 1.232 . S
O152 C151 1.232 . S
C153 O145 1.260 . S
C153 O146 1.257 . S
Zn154 O157 2.031 . S
Zn154 O159 2.049 . S
Zn154 O164 2.067 . S
Zn155 O156 1.962 . S
Zn155 O158 1.986 . S
Zn155 O160 1.996 . S
Zn155 O163 1.943 . S
O156 Zn155 1.962 . S
O156 C161 1.254 . S
O157 Zn154 2.031 . S
O157 C161 1.269 . S
O158 Zn155 1.986 . S
O158 C165 1.262 . S
O159 Zn154 2.049 . S
O159 C167 1.260 . S
O160 Zn155 1.996 . S
O160 C167 1.257 . S
C161 O156 1.254 . S
C161 O157 1.269 . S
C162 O163 1.249 . S
C162 O164 1.270 . S
O163 Zn155 1.943 . S
O163 C162 1.249 . S
O164 Zn154 2.067 . S
O164 C162 1.270 . S
C165 O158 1.262 . S
C165 O166 1.232 . S
O166 C165 1.232 . S
C167 O159 1.260 . S
C167 O160 1.257 . S
Zn168 O171 2.031 . S
Zn168 O173 2.049 . S
Zn168 O178 2.067 . S
Zn169 O170 1.962 . S
Zn169 O172 1.986 . S
Zn169 O174 1.996 . S
Zn169 O177 1.943 . S
O170 Zn169 1.962 . S
O170 C175 1.254 . S
O171 Zn168 2.031 . S
O171 C175 1.269 . S
O172 Zn169 1.986 . S
O172 C179 1.262 . S
O173 Zn168 2.049 . S
O173 C181 1.260 . S
O174 Zn169 1.996 . S
O174 C181 1.257 . S
C175 O170 1.254 . S
C175 O171 1.269 . S
C176 O177 1.249 . S
C176 O178 1.270 . S
O177 Zn169 1.943 . S
O177 C176 1.249 . S
O178 Zn168 2.067 . S
O178 C176 1.270 . S
C179 O172 1.262 . S
C179 O180 1.232 . S
O180 C179 1.232 . S
C181 O173 1.260 . S
C181 O174 1.257 . S
Zn182 O185 2.031 . S
Zn182 O187 2.049 . S
Zn182 O192 2.067 . S
Zn183 O184 1.962 . S
Zn183 O186 1.986 . S
Zn183 O188 1.996 . S
Zn183 O191 1.943 . S
O184 Zn183 1.962 . S
O184 C189 1.254 . S
O185 Zn182 2.031 . S
O185 C189 1.269 . S
O186 Zn183 1.986 . S
O186 C193 1.262 . S
O187 Zn182 2.049 . S
O187 C195 1.260 . S
O188 Zn183 1.996 . S
O188 C195 1.257 . S
C189 O184 1.254 . S
C189 O185 1.269 . S
C190 O191 1.249 . S
C190 O192 1.270 . S
O191 Zn183 1.943 . S
O191 C190 1.249 . S
O192 Zn182 2.067 . S
O192 C190 1.270 . S
C193 O186 1.262 . S
C193 O194 1.232 . S
O194 C193 1.232 . S
C195 O187 1.260 . S
C195 O188 1.257 . S
Zn196 O199 2.031 . S
Zn196 O201 2.049 . S
Zn196 O206 2.067 . S
Zn197 O198 1.962 . S
Zn197 O200 1.986 . S
Zn197 O202 1.996 . S
Zn197 O205 1.943 . S
O198 Zn197 1.962 . S
O198 C203 1.254 . S
O199 Zn196 2.031 . S
O199 C203 1.269 . S
O200 Zn197 1.986 . S
O200 C207 1.262 . S
O201 Zn196 2.049 . S
O201 C209 1.260 . S
O202 Zn197 1.996 . S
O202 C209 1.257 . S
C203 O198 1.254 . S
C203 O199 1.269 . S
C204 O205 1.249 . S
C204 O206 1.270 . S
O205 Zn197 1.943 . S
O205 C204 1.249 . S
O206 Zn196 2.067 . S
O206 C204 1.270 . S
C207 O200 1.262 . S
C207 O208 1.232 . S
O208 C207 1.232 . S
C209 O201 1.260 . S
C209 O202 1.257 . S
Zn210 O213 2.031 . S
Zn210 O215 2.049 . S
Zn210 O220 2.067 . S
Zn211 O212 1.962 . S
Zn211 O214 1.986 . S
Zn211 O216 1.996 . S
Zn211 O219 1.943 . S
O212 Zn211 1.962 . S
O212 C217 1.254 . S
O213 Zn210 2.031 . S
O213 C217 1.269 . S
O214 Zn211 1.986 . S
O214 C221 1.262 . S
O215 Zn210 2.049 . S
O215 C223 1.260 . S
O216 Zn211 1.996 . S
O216 C223 1.257 . S
C217 O212 1.254 . S
C217 O213 1.269 . S
C218 O219 1.249 . S
C218 O220 1.270 . S
O219 Zn211 1.943 . S
O219 C218 1.249 . S
O220 Zn210 2.067 . S
O220 C218 1.270 . S
C221 O214 1.262 . S
C221 O222 1.232 . S
O222 C221 1.232 . S
C223 O215 1.260 . S
C223 O216 1.257 . S
H224 C230 0.930 . S
H225 C234 0.930 . S
H226 C239 0.929 . S
H227 C237 0.929 . S
H228 C232 0.929 . S
H229 C238 0.929 . S
C230 H224 0.930 . S
C230 C231 1.367 . S
C230 C238 1.378 . S
C231 C230 1.367 . S
C231 C239 1.433 . S
C232 H228 0.929 . S
C232 C234 1.378 . S
C232 C236 1.350 . S
C233 C236 1.463 1_455 S
C233 C238 1.350 . S
C233 N241 1.427 . S
C234 H225 0.930 . S
C234 C232 1.378 . S
C234 C235 1.367 . S
C235 C234 1.367 . S
C235 C237 1.433 . S
C236 C232 1.350 . S
C236 C233 1.463 1_655 S
C236 N240 1.427 . S
C237 H227 0.929 . S
C237 C235 1.433 . S
C237 N240 1.384 . S
C238 H229 0.929 . S
C238 C230 1.378 . S
C238 C233 1.350 . S
C239 H226 0.929 . S
C239 C231 1.433 . S
C239 N241 1.384 . S
N240 C236 1.427 . S
N240 C237 1.384 . S
N241 C233 1.427 . S
N241 C239 1.384 . S
H242 C248 0.930 . S
H243 C252 0.930 . S
H244 C257 0.929 . S
H245 C255 0.929 . S
H246 C250 0.929 . S
H247 C256 0.929 . S
C248 H242 0.930 . S
C248 C249 1.367 . S
C248 C256 1.378 . S
C249 C248 1.367 . S
C249 C257 1.433 . S
C250 H246 0.929 . S
C250 C252 1.378 . S
C250 C254 1.350 . S
C251 C254 1.463 1_655 S
C251 C256 1.350 . S
C251 N259 1.427 . S
C252 H243 0.930 . S
C252 C250 1.378 . S
C252 C253 1.367 . S
C253 C252 1.367 . S
C253 C255 1.433 . S
C254 C250 1.350 . S
C254 C251 1.463 1_455 S
C254 N258 1.427 . S
C255 H245 0.929 . S
C255 C253 1.433 . S
C255 N258 1.384 . S
C256 H247 0.929 . S
C256 C248 1.378 . S
C256 C251 1.350 . S
C257 H244 0.929 . S
C257 C249 1.433 . S
C257 N259 1.384 . S
N258 C254 1.427 . S
N258 C255 1.384 . S
N259 C251 1.427 . S
N259 C257 1.384 . S
H260 C266 0.930 . S
H261 C270 0.930 . S
H262 C275 0.929 . S
H263 C273 0.929 . S
H264 C268 0.929 . S
H265 C274 0.929 . S
C266 H260 0.930 . S
C266 C267 1.367 . S
C266 C274 1.378 . S
C267 C266 1.367 . S
C267 C275 1.433 . S
C268 H264 0.929 . S
C268 C270 1.378 . S
C268 C272 1.350 . S
C269 C272 1.463 1_655 S
C269 C274 1.350 . S
C269 N277 1.427 . S
C270 H261 0.930 . S
C270 C268 1.378 . S
C270 C271 1.367 . S
C271 C270 1.367 . S
C271 C273 1.433 . S
C272 C268 1.350 . S
C272 C269 1.463 1_455 S
C272 N276 1.427 . S
C273 H263 0.929 . S
C273 C271 1.433 . S
C273 N276 1.384 . S
C274 H265 0.929 . S
C274 C266 1.378 . S
C274 C269 1.350 . S
C275 H262 0.929 . S
C275 C267 1.433 . S
C275 N277 1.384 . S
N276 C272 1.427 . S
N276 C273 1.384 . S
N277 C269 1.427 . S
N277 C275 1.384 . S
H278 C284 0.930 . S
H279 C288 0.930 . S
H280 C293 0.929 . S
H281 C291 0.929 . S
H282 C286 0.929 . S
H283 C292 0.929 . S
C284 H278 0.930 . S
C284 C285 1.367 . S
C284 C292 1.378 . S
C285 C284 1.367 . S
C285 C293 1.433 . S
C286 H282 0.929 . S
C286 C288 1.378 . S
C286 C290 1.350 . S
C287 C290 1.463 1_455 S
C287 C292 1.350 . S
C287 N295 1.427 . S
C288 H279 0.930 . S
C288 C286 1.378 . S
C288 C289 1.367 . S
C289 C288 1.367 . S
C289 C291 1.433 . S
C290 C286 1.350 . S
C290 C287 1.463 1_655 S
C290 N294 1.427 . S
C291 H281 0.929 . S
C291 C289 1.433 . S
C291 N294 1.384 . S
C292 H283 0.929 . S
C292 C284 1.378 . S
C292 C287 1.350 . S
C293 H280 0.929 . S
C293 C285 1.433 . S
C293 N295 1.384 . S
N294 C290 1.427 . S
N294 C291 1.384 . S
N295 C287 1.427 . S
N295 C293 1.384 . S
H296 C302 0.930 . S
H297 C306 0.930 . S
H298 C311 0.929 . S
H299 C309 0.929 . S
H300 C304 0.929 . S
H301 C310 0.929 . S
C302 H296 0.930 . S
C302 C303 1.367 . S
C302 C310 1.378 . S
C303 C302 1.367 . S
C303 C311 1.433 . S
C304 H300 0.929 . S
C304 C306 1.378 . S
C304 C308 1.350 . S
C305 C308 1.463 . S
C305 C310 1.350 . S
C305 N313 1.427 . S
C306 H297 0.930 . S
C306 C304 1.378 . S
C306 C307 1.367 . S
C307 C306 1.367 . S
C307 C309 1.433 . S
C308 C304 1.350 . S
C308 C305 1.463 . S
C308 N312 1.427 . S
C309 H299 0.929 . S
C309 C307 1.433 . S
C309 N312 1.384 . S
C310 H301 0.929 . S
C310 C302 1.378 . S
C310 C305 1.350 . S
C311 H298 0.929 . S
C311 C303 1.433 . S
C311 N313 1.384 . S
N312 C308 1.427 . S
N312 C309 1.384 . S
N313 C305 1.427 . S
N313 C311 1.384 . S
H314 C320 0.930 . S
H315 C324 0.930 . S
H316 C329 0.929 . S
H317 C327 0.929 . S
H318 C322 0.929 . S
H319 C328 0.929 . S
C320 H314 0.930 . S
C320 C321 1.367 . S
C320 C328 1.378 . S
C321 C320 1.367 . S
C321 C329 1.433 . S
C322 H318 0.929 . S
C322 C324 1.378 . S
C322 C326 1.350 . S
C323 C326 1.463 . S
C323 C328 1.350 . S
C323 N331 1.427 . S
C324 H315 0.930 . S
C324 C322 1.378 . S
C324 C325 1.367 . S
C325 C324 1.367 . S
C325 C327 1.433 . S
C326 C322 1.350 . S
C326 C323 1.463 . S
C326 N330 1.427 . S
C327 H317 0.929 . S
C327 C325 1.433 . S
C327 N330 1.384 . S
C328 H319 0.929 . S
C328 C320 1.378 . S
C328 C323 1.350 . S
C329 H316 0.929 . S
C329 C321 1.433 . S
C329 N331 1.384 . S
N330 C326 1.427 . S
N330 C327 1.384 . S
N331 C323 1.427 . S
N331 C329 1.384 . S
H332 C338 0.930 . S
H333 C342 0.930 . S
H334 C347 0.929 . S
H335 C345 0.929 . S
H336 C340 0.929 . S
H337 C346 0.929 . S
C338 H332 0.930 . S
C338 C339 1.367 . S
C338 C346 1.378 . S
C339 C338 1.367 . S
C339 C347 1.433 . S
C340 H336 0.929 . S
C340 C342 1.378 . S
C340 C344 1.350 . S
C341 C344 1.463 . S
C341 C346 1.350 . S
C341 N349 1.427 . S
C342 H333 0.930 . S
C342 C340 1.378 . S
C342 C343 1.367 . S
C343 C342 1.367 . S
C343 C345 1.433 . S
C344 C340 1.350 . S
C344 C341 1.463 . S
C344 N348 1.427 . S
C345 H335 0.929 . S
C345 C343 1.433 . S
C345 N348 1.384 . S
C346 H337 0.929 . S
C346 C338 1.378 . S
C346 C341 1.350 . S
C347 H334 0.929 . S
C347 C339 1.433 . S
C347 N349 1.384 . S
N348 C344 1.427 . S
N348 C345 1.384 . S
N349 C341 1.427 . S
N349 C347 1.384 . S
H350 C356 0.930 . S
H351 C360 0.930 . S
H352 C365 0.929 . S
H353 C363 0.929 . S
H354 C358 0.929 . S
H355 C364 0.929 . S
C356 H350 0.930 . S
C356 C357 1.367 . S
C356 C364 1.378 . S
C357 C356 1.367 . S
C357 C365 1.433 . S
C358 H354 0.929 . S
C358 C360 1.378 . S
C358 C362 1.350 . S
C359 C362 1.463 . S
C359 C364 1.350 . S
C359 N367 1.427 . S
C360 H351 0.930 . S
C360 C358 1.378 . S
C360 C361 1.367 . S
C361 C360 1.367 . S
C361 C363 1.433 . S
C362 C358 1.350 . S
C362 C359 1.463 . S
C362 N366 1.427 . S
C363 H353 0.929 . S
C363 C361 1.433 . S
C363 N366 1.384 . S
C364 H355 0.929 . S
C364 C356 1.378 . S
C364 C359 1.350 . S
C365 H352 0.929 . S
C365 C357 1.433 . S
C365 N367 1.384 . S
N366 C362 1.427 . S
N366 C363 1.384 . S
N367 C359 1.427 . S
N367 C365 1.384 . S
H368 C374 0.930 . S
H369 C378 0.930 . S
H370 C383 0.929 . S
H371 C381 0.929 . S
H372 C376 0.929 . S
H373 C382 0.929 . S
C374 H368 0.930 . S
C374 C375 1.367 . S
C374 C382 1.378 . S
C375 C374 1.367 . S
C375 C383 1.433 . S
C376 H372 0.929 . S
C376 C378 1.378 . S
C376 C380 1.350 . S
C377 C380 1.463 . S
C377 C382 1.350 . S
C377 N385 1.427 . S
C378 H369 0.930 . S
C378 C376 1.378 . S
C378 C379 1.367 . S
C379 C378 1.367 . S
C379 C381 1.433 . S
C380 C376 1.350 . S
C380 C377 1.463 . S
C380 N384 1.427 . S
C381 H371 0.929 . S
C381 C379 1.433 . S
C381 N384 1.384 . S
C382 H373 0.929 . S
C382 C374 1.378 . S
C382 C377 1.350 . S
C383 H370 0.929 . S
C383 C375 1.433 . S
C383 N385 1.384 . S
N384 C380 1.427 . S
N384 C381 1.384 . S
N385 C377 1.427 . S
N385 C383 1.384 . S
H386 C392 0.930 . S
H387 C396 0.930 . S
H388 C401 0.929 . S
H389 C399 0.929 . S
H390 C394 0.929 . S
H391 C400 0.929 . S
C392 H386 0.930 . S
C392 C393 1.367 . S
C392 C400 1.378 . S
C393 C392 1.367 . S
C393 C401 1.433 . S
C394 H390 0.929 . S
C394 C396 1.378 . S
C394 C398 1.350 . S
C395 C398 1.463 . S
C395 C400 1.350 . S
C395 N403 1.427 . S
C396 H387 0.930 . S
C396 C394 1.378 . S
C396 C397 1.367 . S
C397 C396 1.367 . S
C397 C399 1.433 . S
C398 C394 1.350 . S
C398 C395 1.463 . S
C398 N402 1.427 . S
C399 H389 0.929 . S
C399 C397 1.433 . S
C399 N402 1.384 . S
C400 H391 0.929 . S
C400 C392 1.378 . S
C400 C395 1.350 . S
C401 H388 0.929 . S
C401 C393 1.433 . S
C401 N403 1.384 . S
N402 C398 1.427 . S
N402 C399 1.384 . S
N403 C395 1.427 . S
N403 C401 1.384 . S
H404 C410 0.930 . S
H405 C414 0.930 . S
H406 C419 0.929 . S
H407 C417 0.929 . S
H408 C412 0.929 . S
H409 C418 0.929 . S
C410 H404 0.930 . S
C410 C411 1.367 . S
C410 C418 1.378 . S
C411 C410 1.367 . S
C411 C419 1.433 . S
C412 H408 0.929 . S
C412 C414 1.378 . S
C412 C416 1.350 . S
C413 C416 1.463 . S
C413 C418 1.350 . S
C413 N421 1.427 . S
C414 H405 0.930 . S
C414 C412 1.378 . S
C414 C415 1.367 . S
C415 C414 1.367 . S
C415 C417 1.433 . S
C416 C412 1.350 . S
C416 C413 1.463 . S
C416 N420 1.427 . S
C417 H407 0.929 . S
C417 C415 1.433 . S
C417 N420 1.384 . S
C418 H409 0.929 . S
C418 C410 1.378 . S
C418 C413 1.350 . S
C419 H406 0.929 . S
C419 C411 1.433 . S
C419 N421 1.384 . S
N420 C416 1.427 . S
N420 C417 1.384 . S
N421 C413 1.427 . S
N421 C419 1.384 . S
H422 C428 0.930 . S
H423 C432 0.930 . S
H424 C437 0.929 . S
H425 C435 0.929 . S
H426 C430 0.929 . S
H427 C436 0.929 . S
C428 H422 0.930 . S
C428 C429 1.367 . S
C428 C436 1.378 . S
C429 C428 1.367 . S
C429 C437 1.433 . S
C430 H426 0.929 . S
C430 C432 1.378 . S
C430 C434 1.350 . S
C431 C434 1.463 . S
C431 C436 1.350 . S
C431 N439 1.427 . S
C432 H423 0.930 . S
C432 C430 1.378 . S
C432 C433 1.367 . S
C433 C432 1.367 . S
C433 C435 1.433 . S
C434 C430 1.350 . S
C434 C431 1.463 . S
C434 N438 1.427 . S
C435 H425 0.929 . S
C435 C433 1.433 . S
C435 N438 1.384 . S
C436 H427 0.929 . S
C436 C428 1.378 . S
C436 C431 1.350 . S
C437 H424 0.929 . S
C437 C429 1.433 . S
C437 N439 1.384 . S
N438 C434 1.427 . S
N438 C435 1.384 . S
N439 C431 1.427 . S
N439 C437 1.384 . S
H440 C446 0.930 . S
H441 C450 0.930 . S
H442 C455 0.929 . S
H443 C453 0.929 . S
H444 C448 0.929 . S
H445 C454 0.929 . S
C446 H440 0.930 . S
C446 C447 1.367 . S
C446 C454 1.378 . S
C447 C446 1.367 . S
C447 C455 1.433 . S
C448 H444 0.929 . S
C448 C450 1.378 . S
C448 C452 1.350 . S
C449 C452 1.463 . S
C449 C454 1.350 . S
C449 N457 1.427 . S
C450 H441 0.930 . S
C450 C448 1.378 . S
C450 C451 1.367 . S
C451 C450 1.367 . S
C451 C453 1.433 . S
C452 C448 1.350 . S
C452 C449 1.463 . S
C452 N456 1.427 . S
C453 H443 0.929 . S
C453 C451 1.433 . S
C453 N456 1.384 . S
C454 H445 0.929 . S
C454 C446 1.378 . S
C454 C449 1.350 . S
C455 H442 0.929 . S
C455 C447 1.433 . S
C455 N457 1.384 . S
N456 C452 1.427 . S
N456 C453 1.384 . S
N457 C449 1.427 . S
N457 C455 1.384 . S
H458 C464 0.930 . S
H459 C468 0.930 . S
H460 C473 0.929 . S
H461 C471 0.929 . S
H462 C466 0.929 . S
H463 C472 0.929 . S
C464 H458 0.930 . S
C464 C465 1.367 . S
C464 C472 1.378 . S
C465 C464 1.367 . S
C465 C473 1.433 . S
C466 H462 0.929 . S
C466 C468 1.378 . S
C466 C470 1.350 . S
C467 C470 1.463 . S
C467 C472 1.350 . S
C467 N475 1.427 . S
C468 H459 0.930 . S
C468 C466 1.378 . S
C468 C469 1.367 . S
C469 C468 1.367 . S
C469 C471 1.433 . S
C470 C466 1.350 . S
C470 C467 1.463 . S
C470 N474 1.427 . S
C471 H461 0.929 . S
C471 C469 1.433 . S
C471 N474 1.384 . S
C472 H463 0.929 . S
C472 C464 1.378 . S
C472 C467 1.350 . S
C473 H460 0.929 . S
C473 C465 1.433 . S
C473 N475 1.384 . S
N474 C470 1.427 . S
N474 C471 1.384 . S
N475 C467 1.427 . S
N475 C473 1.384 . S
H476 C482 0.930 . S
H477 C486 0.930 . S
H478 C491 0.929 . S
H479 C489 0.929 . S
H480 C484 0.929 . S
H481 C490 0.929 . S
C482 H476 0.930 . S
C482 C483 1.367 . S
C482 C490 1.378 . S
C483 C482 1.367 . S
C483 C491 1.433 . S
C484 H480 0.929 . S
C484 C486 1.378 . S
C484 C488 1.350 . S
C485 C488 1.463 . S
C485 C490 1.350 . S
C485 N493 1.427 . S
C486 H477 0.930 . S
C486 C484 1.378 . S
C486 C487 1.367 . S
C487 C486 1.367 . S
C487 C489 1.433 . S
C488 C484 1.350 . S
C488 C485 1.463 . S
C488 N492 1.427 . S
C489 H479 0.929 . S
C489 C487 1.433 . S
C489 N492 1.384 . S
C490 H481 0.929 . S
C490 C482 1.378 . S
C490 C485 1.350 . S
C491 H478 0.929 . S
C491 C483 1.433 . S
C491 N493 1.384 . S
N492 C488 1.427 . S
N492 C489 1.384 . S
N493 C485 1.427 . S
N493 C491 1.384 . S
H494 C500 0.930 . S
H495 C504 0.930 . S
H496 C509 0.929 . S
H497 C507 0.929 . S
H498 C502 0.929 . S
H499 C508 0.929 . S
C500 H494 0.930 . S
C500 C501 1.367 . S
C500 C508 1.378 . S
C501 C500 1.367 . S
C501 C509 1.433 . S
C502 H498 0.929 . S
C502 C504 1.378 . S
C502 C506 1.350 . S
C503 C506 1.463 . S
C503 C508 1.350 . S
C503 N511 1.427 . S
C504 H495 0.930 . S
C504 C502 1.378 . S
C504 C505 1.367 . S
C505 C504 1.367 . S
C505 C507 1.433 . S
C506 C502 1.350 . S
C506 C503 1.463 . S
C506 N510 1.427 . S
C507 H497 0.929 . S
C507 C505 1.433 . S
C507 N510 1.384 . S
C508 H499 0.929 . S
C508 C500 1.378 . S
C508 C503 1.350 . S
C509 H496 0.929 . S
C509 C501 1.433 . S
C509 N511 1.384 . S
N510 C506 1.427 . S
N510 C507 1.384 . S
N511 C503 1.427 . S
N511 C509 1.384 . S
H512 C518 0.930 . S
H513 C522 0.930 . S
H514 C527 0.929 1_554 S
H515 C525 0.929 1_556 S
H516 C520 0.929 . S
H517 C526 0.929 . S
C518 H512 0.930 . S
C518 C519 1.367 . S
C518 C526 1.378 . S
C519 C518 1.367 . S
C519 C527 1.433 . S
C520 H516 0.929 . S
C520 C522 1.378 . S
C520 C524 1.350 . S
C521 C524 1.463 1_556 S
C521 C526 1.350 . S
C521 N529 1.427 1_556 S
C522 H513 0.930 . S
C522 C520 1.378 . S
C522 C523 1.367 . S
C523 C522 1.367 . S
C523 C525 1.433 . S
C524 C520 1.350 . S
C524 C521 1.463 1_554 S
C524 N528 1.427 1_554 S
C525 H515 0.929 1_554 S
C525 C523 1.433 . S
C525 N528 1.384 1_554 S
C526 H517 0.929 . S
C526 C518 1.378 . S
C526 C521 1.350 . S
C527 H514 0.929 1_556 S
C527 C519 1.433 . S
C527 N529 1.384 1_556 S
N528 C524 1.427 1_556 S
N528 C525 1.384 1_556 S
N529 C521 1.427 1_554 S
N529 C527 1.384 1_554 S
H530 C536 0.930 . S
H531 C540 0.930 . S
H532 C545 0.929 . S
H533 C543 0.929 . S
H534 C538 0.929 . S
H535 C544 0.929 . S
C536 H530 0.930 . S
C536 C537 1.367 . S
C536 C544 1.378 . S
C537 C536 1.367 . S
C537 C545 1.433 . S
C538 H534 0.929 . S
C538 C540 1.378 . S
C538 C542 1.350 . S
C539 C542 1.463 . S
C539 C544 1.350 . S
C539 N547 1.427 . S
C540 H531 0.930 . S
C540 C538 1.378 . S
C540 C541 1.367 . S
C541 C540 1.367 . S
C541 C543 1.433 . S
C542 C538 1.350 . S
C542 C539 1.463 . S
C542 N546 1.427 . S
C543 H533 0.929 . S
C543 C541 1.433 . S
C543 N546 1.384 . S
C544 H535 0.929 . S
C544 C536 1.378 . S
C544 C539 1.350 . S
C545 H532 0.929 . S
C545 C537 1.433 . S
C545 N547 1.384 . S
N546 C542 1.427 . S
N546 C543 1.384 . S
N547 C539 1.427 . S
N547 C545 1.384 . S
H548 C554 0.930 . S
H549 C558 0.930 . S
H550 C563 0.928 1_556 S
H551 C561 0.929 1_554 S
H552 C556 0.929 . S
H553 C562 0.929 . S
C554 H548 0.930 . S
C554 C555 1.367 . S
C554 C562 1.378 . S
C555 C554 1.367 . S
C555 C563 1.433 . S
C556 H552 0.929 . S
C556 C558 1.378 . S
C556 C560 1.350 . S
C557 C560 1.463 1_554 S
C557 C562 1.350 . S
C557 N565 1.427 1_554 S
C558 H549 0.930 . S
C558 C556 1.378 . S
C558 C559 1.367 . S
C559 C558 1.367 . S
C559 C561 1.433 . S
C560 C556 1.350 . S
C560 C557 1.463 1_556 S
C560 N564 1.427 1_556 S
C561 H551 0.929 1_556 S
C561 C559 1.433 . S
C561 N564 1.384 1_556 S
C562 H553 0.929 . S
C562 C554 1.378 . S
C562 C557 1.350 . S
C563 H550 0.928 1_554 S
C563 C555 1.433 . S
C563 N565 1.384 1_554 S
N564 C560 1.427 1_554 S
N564 C561 1.384 1_554 S
N565 C557 1.427 1_556 S
N565 C563 1.384 1_556 S
H566 C572 0.930 . S
H567 C576 0.930 . S
H568 C581 0.929 . S
H569 C579 0.929 . S
H570 C574 0.929 . S
H571 C580 0.929 . S
C572 H566 0.930 . S
C572 C573 1.367 . S
C572 C580 1.378 . S
C573 C572 1.367 . S
C573 C581 1.433 . S
C574 H570 0.929 . S
C574 C576 1.378 . S
C574 C578 1.350 . S
C575 C578 1.463 . S
C575 C580 1.350 . S
C575 N583 1.427 . S
C576 H567 0.930 . S
C576 C574 1.378 . S
C576 C577 1.367 . S
C577 C576 1.367 . S
C577 C579 1.433 . S
C578 C574 1.350 . S
C578 C575 1.463 . S
C578 N582 1.427 . S
C579 H569 0.929 . S
C579 C577 1.433 . S
C579 N582 1.384 . S
C580 H571 0.929 . S
C580 C572 1.378 . S
C580 C575 1.350 . S
C581 H568 0.929 . S
C581 C573 1.433 . S
C581 N583 1.384 . S
N582 C578 1.427 . S
N582 C579 1.384 . S
N583 C575 1.427 . S
N583 C581 1.384 . S
H584 C590 0.930 . S
H585 C594 0.930 . S
H586 C599 0.929 1_556 S
H587 C597 0.929 1_554 S
H588 C592 0.929 . S
H589 C598 0.929 . S
C590 H584 0.930 . S
C590 C591 1.367 . S
C590 C598 1.378 . S
C591 C590 1.367 . S
C591 C599 1.433 . S
C592 H588 0.929 . S
C592 C594 1.378 . S
C592 C596 1.350 . S
C593 C596 1.463 1_554 S
C593 C598 1.350 . S
C593 N601 1.427 1_554 S
C594 H585 0.930 . S
C594 C592 1.378 . S
C594 C595 1.367 . S
C595 C594 1.367 . S
C595 C597 1.433 . S
C596 C592 1.350 . S
C596 C593 1.463 1_556 S
C596 N600 1.427 1_556 S
C597 H587 0.929 1_556 S
C597 C595 1.433 . S
C597 N600 1.384 1_556 S
C598 H589 0.929 . S
C598 C590 1.378 . S
C598 C593 1.350 . S
C599 H586 0.929 1_554 S
C599 C591 1.433 . S
C599 N601 1.384 1_554 S
N600 C596 1.427 1_554 S
N600 C597 1.384 1_554 S
N601 C593 1.427 1_556 S
N601 C599 1.384 1_556 S
H602 C608 0.930 . S
H603 C612 0.930 . S
H604 C617 0.929 . S
H605 C615 0.929 . S
H606 C610 0.929 . S
H607 C616 0.929 . S
C608 H602 0.930 . S
C608 C609 1.367 . S
C608 C616 1.378 . S
C609 C608 1.367 . S
C609 C617 1.433 . S
C610 H606 0.929 . S
C610 C612 1.378 . S
C610 C614 1.350 . S
C611 C614 1.463 . S
C611 C616 1.350 . S
C611 N619 1.427 . S
C612 H603 0.930 . S
C612 C610 1.378 . S
C612 C613 1.367 . S
C613 C612 1.367 . S
C613 C615 1.433 . S
C614 C610 1.350 . S
C614 C611 1.463 . S
C614 N618 1.427 . S
C615 H605 0.929 . S
C615 C613 1.433 . S
C615 N618 1.384 . S
C616 H607 0.929 . S
C616 C608 1.378 . S
C616 C611 1.350 . S
C617 H604 0.929 . S
C617 C609 1.433 . S
C617 N619 1.384 . S
N618 C614 1.427 . S
N618 C615 1.384 . S
N619 C611 1.427 . S
N619 C617 1.384 . S
H620 C626 0.930 . S
H621 C630 0.930 . S
H622 C635 0.929 1_556 S
H623 C633 0.929 1_554 S
H624 C628 0.929 . S
H625 C634 0.929 . S
C626 H620 0.930 . S
C626 C627 1.367 . S
C626 C634 1.378 . S
C627 C626 1.367 . S
C627 C635 1.433 . S
C628 H624 0.929 . S
C628 C630 1.378 . S
C628 C632 1.350 . S
C629 C632 1.463 1_554 S
C629 C634 1.350 . S
C629 N637 1.427 1_554 S
C630 H621 0.930 . S
C630 C628 1.378 . S
C630 C631 1.367 . S
C631 C630 1.367 . S
C631 C633 1.433 . S
C632 C628 1.350 . S
C632 C629 1.463 1_556 S
C632 N636 1.427 1_556 S
C633 H623 0.929 1_556 S
C633 C631 1.433 . S
C633 N636 1.384 1_556 S
C634 H625 0.929 . S
C634 C626 1.378 . S
C634 C629 1.350 . S
C635 H622 0.929 1_554 S
C635 C627 1.433 . S
C635 N637 1.384 1_554 S
N636 C632 1.427 1_554 S
N636 C633 1.384 1_554 S
N637 C629 1.427 1_556 S
N637 C635 1.384 1_556 S
H638 C644 0.930 . S
H639 C648 0.930 . S
H640 C653 0.929 . S
H641 C651 0.929 . S
H642 C646 0.929 . S
H643 C652 0.929 . S
C644 H638 0.930 . S
C644 C645 1.367 . S
C644 C652 1.378 . S
C645 C644 1.367 . S
C645 C653 1.433 . S
C646 H642 0.929 . S
C646 C648 1.378 . S
C646 C650 1.350 . S
C647 C650 1.463 . S
C647 C652 1.350 . S
C647 N655 1.427 . S
C648 H639 0.930 . S
C648 C646 1.378 . S
C648 C649 1.367 . S
C649 C648 1.367 . S
C649 C651 1.433 . S
C650 C646 1.350 . S
C650 C647 1.463 . S
C650 N654 1.427 . S
C651 H641 0.929 . S
C651 C649 1.433 . S
C651 N654 1.384 . S
C652 H643 0.929 . S
C652 C644 1.378 . S
C652 C647 1.350 . S
C653 H640 0.929 . S
C653 C645 1.433 . S
C653 N655 1.384 . S
N654 C650 1.427 . S
N654 C651 1.384 . S
N655 C647 1.427 . S
N655 C653 1.384 . S
H656 C662 0.930 . S
H657 C666 0.930 . S
H658 C671 0.929 . S
H659 C669 0.929 . S
H660 C664 0.929 . S
H661 C670 0.929 . S
C662 H656 0.930 . S
C662 C663 1.367 . S
C662 C670 1.378 1_556 S
C663 C662 1.367 . S
C663 C671 1.433 . S
C664 H660 0.929 . S
C664 C666 1.378 1_556 S
C664 C668 1.350 1_556 S
C665 C668 1.463 1_556 S
C665 C670 1.350 1_556 S
C665 N673 1.427 . S
C666 H657 0.930 . S
C666 C664 1.378 1_554 S
C666 C667 1.367 . S
C667 C666 1.367 . S
C667 C669 1.433 . S
C668 C664 1.350 1_554 S
C668 C665 1.463 1_554 S
C668 N672 1.427 . S
C669 H659 0.929 . S
C669 C667 1.433 . S
C669 N672 1.384 . S
C670 H661 0.929 . S
C670 C662 1.378 1_554 S
C670 C665 1.350 1_554 S
C671 H658 0.929 . S
C671 C663 1.433 . S
C671 N673 1.384 . S
N672 C668 1.427 . S
N672 C669 1.384 . S
N673 C665 1.427 . S
N673 C671 1.384 . S
H674 C680 0.930 . S
H675 C684 0.930 . S
H676 C689 0.929 . S
H677 C687 0.929 . S
H678 C682 0.929 . S
H679 C688 0.929 . S
C680 H674 0.930 . S
C680 C681 1.367 . S
C680 C688 1.378 . S
C681 C680 1.367 . S
C681 C689 1.433 . S
C682 H678 0.929 . S
C682 C684 1.378 . S
C682 C686 1.350 . S
C683 C686 1.463 . S
C683 C688 1.350 . S
C683 N691 1.427 . S
C684 H675 0.930 . S
C684 C682 1.378 . S
C684 C685 1.367 . S
C685 C684 1.367 . S
C685 C687 1.433 . S
C686 C682 1.350 . S
C686 C683 1.463 . S
C686 N690 1.427 . S
C687 H677 0.929 . S
C687 C685 1.433 . S
C687 N690 1.384 . S
C688 H679 0.929 . S
C688 C680 1.378 . S
C688 C683 1.350 . S
C689 H676 0.929 . S
C689 C681 1.433 . S
C689 N691 1.384 . S
N690 C686 1.427 . S
N690 C687 1.384 . S
N691 C683 1.427 . S
N691 C689 1.384 . S
H692 C698 0.930 . S
H693 C702 0.930 . S
H694 C707 0.925 1_556 S
H695 C705 0.925 1_554 S
H696 C700 0.929 . S
H697 C706 0.929 . S
C698 H692 0.930 . S
C698 C699 1.367 . S
C698 C706 1.378 . S
C699 C698 1.367 . S
C699 C707 1.433 . S
C700 H696 0.929 . S
C700 C702 1.378 . S
C700 C704 1.350 . S
C701 C704 1.463 1_554 S
C701 C706 1.350 . S
C701 N709 1.427 1_554 S
C702 H693 0.930 . S
C702 C700 1.378 . S
C702 C703 1.367 . S
C703 C702 1.367 . S
C703 C705 1.433 . S
C704 C700 1.350 . S
C704 C701 1.463 1_556 S
C704 N708 1.427 1_556 S
C705 H695 0.925 1_556 S
C705 C703 1.433 . S
C705 N708 1.384 1_556 S
C706 H697 0.929 . S
C706 C698 1.378 . S
C706 C701 1.350 . S
C707 H694 0.925 1_554 S
C707 C699 1.433 . S
C707 N709 1.384 1_554 S
N708 C704 1.427 1_554 S
N708 C705 1.384 1_554 S
N709 C701 1.427 1_556 S
N709 C707 1.384 1_556 S
H710 C716 0.930 . S
H711 C720 0.930 . S
H712 C725 0.929 . S
H713 C723 0.929 . S
H714 C718 0.929 . S
H715 C724 0.929 . S
C716 H710 0.930 . S
C716 C717 1.367 . S
C716 C724 1.378 . S
C717 C716 1.367 . S
C717 C725 1.433 . S
C718 H714 0.929 . S
C718 C720 1.378 . S
C718 C722 1.350 . S
C719 C722 1.463 . S
C719 C724 1.350 . S
C719 N727 1.427 . S
C720 H711 0.930 . S
C720 C718 1.378 . S
C720 C721 1.367 . S
C721 C720 1.367 . S
C721 C723 1.433 . S
C722 C718 1.350 . S
C722 C719 1.463 . S
C722 N726 1.427 . S
C723 H713 0.929 . S
C723 C721 1.433 . S
C723 N726 1.384 . S
C724 H715 0.929 . S
C724 C716 1.378 . S
C724 C719 1.350 . S
C725 H712 0.929 . S
C725 C717 1.433 . S
C725 N727 1.384 . S
N726 C722 1.427 . S
N726 C723 1.384 . S
N727 C719 1.427 . S
N727 C725 1.384 . S
H728 C734 0.930 . S
H729 C738 0.930 . S
H730 C743 0.929 . S
H731 C741 0.929 . S
H732 C736 0.929 1_556 S
H733 C742 0.929 1_554 S
C734 H728 0.930 . S
C734 C735 1.367 . S
C734 C742 1.378 . S
C735 C734 1.367 . S
C735 C743 1.433 . S
C736 H732 0.929 1_554 S
C736 C738 1.378 . S
C736 C740 1.350 . S
C737 C740 1.463 1_546 S
C737 C742 1.350 . S
C737 N745 1.427 . S
C738 H729 0.930 . S
C738 C736 1.378 . S
C738 C739 1.367 . S
C739 C738 1.367 . S
C739 C741 1.433 . S
C740 C736 1.350 . S
C740 C737 1.463 1_564 S
C740 N744 1.427 . S
C741 H731 0.929 . S
C741 C739 1.433 . S
C741 N744 1.384 . S
C742 H733 0.929 1_556 S
C742 C734 1.378 . S
C742 C737 1.350 . S
C743 H730 0.929 . S
C743 C735 1.433 . S
C743 N745 1.384 . S
N744 C740 1.427 . S
N744 C741 1.384 . S
N745 C737 1.427 . S
N745 C743 1.384 . S
H746 C752 0.930 . S
H747 C756 0.930 . S
H748 C761 0.929 . S
H749 C759 0.929 . S
H750 C754 0.929 . S
H751 C760 0.929 . S
C752 H746 0.930 . S
C752 C753 1.367 . S
C752 C760 1.378 . S
C753 C752 1.367 . S
C753 C761 1.433 . S
C754 H750 0.929 . S
C754 C756 1.378 . S
C754 C758 1.350 . S
C755 C758 1.463 1_565 S
C755 C760 1.350 . S
C755 N763 1.427 . S
C756 H747 0.930 . S
C756 C754 1.378 . S
C756 C757 1.367 . S
C757 C756 1.367 . S
C757 C759 1.433 . S
C758 C754 1.350 . S
C758 C755 1.463 1_545 S
C758 N762 1.427 . S
C759 H749 0.929 . S
C759 C757 1.433 . S
C759 N762 1.384 . S
C760 H751 0.929 . S
C760 C752 1.378 . S
C760 C755 1.350 . S
C761 H748 0.929 . S
C761 C753 1.433 . S
C761 N763 1.384 . S
N762 C758 1.427 . S
N762 C759 1.384 . S
N763 C755 1.427 . S
N763 C761 1.384 . S
H764 C770 0.930 . S
H765 C774 0.930 . S
H766 C779 0.929 . S
H767 C777 0.929 . S
H768 C772 0.929 1_565 S
H769 C778 0.929 1_545 S
C770 H764 0.930 . S
C770 C771 1.367 . S
C770 C778 1.378 . S
C771 C770 1.367 . S
C771 C779 1.433 . S
C772 H768 0.929 1_545 S
C772 C774 1.378 . S
C772 C776 1.350 . S
C773 C776 1.463 1_564 S
C773 C778 1.350 . S
C773 N781 1.427 1_554 S
C774 H765 0.930 . S
C774 C772 1.378 . S
C774 C775 1.367 . S
C775 C774 1.367 . S
C775 C777 1.433 . S
C776 C772 1.350 . S
C776 C773 1.463 1_546 S
C776 N780 1.427 1_556 S
C777 H767 0.929 . S
C777 C775 1.433 . S
C777 N780 1.384 1_556 S
C778 H769 0.929 1_565 S
C778 C770 1.378 . S
C778 C773 1.350 . S
C779 H766 0.929 . S
C779 C771 1.433 . S
C779 N781 1.384 1_554 S
N780 C776 1.427 1_554 S
N780 C777 1.384 1_554 S
N781 C773 1.427 1_556 S
N781 C779 1.384 1_556 S
H782 C788 0.930 . S
H783 C792 0.930 . S
H784 C797 0.929 . S
H785 C795 0.929 . S
H786 C790 0.929 . S
H787 C796 0.929 . S
C788 H782 0.930 . S
C788 C789 1.367 . S
C788 C796 1.378 . S
C789 C788 1.367 . S
C789 C797 1.433 . S
C790 H786 0.929 . S
C790 C792 1.378 . S
C790 C794 1.350 . S
C791 C794 1.463 1_545 S
C791 C796 1.350 . S
C791 N799 1.427 . S
C792 H783 0.930 . S
C792 C790 1.378 . S
C792 C793 1.367 . S
C793 C792 1.367 . S
C793 C795 1.433 . S
C794 C790 1.350 . S
C794 C791 1.463 1_565 S
C794 N798 1.427 . S
C795 H785 0.929 . S
C795 C793 1.433 . S
C795 N798 1.384 . S
C796 H787 0.929 . S
C796 C788 1.378 . S
C796 C791 1.350 . S
C797 H784 0.929 . S
C797 C789 1.433 . S
C797 N799 1.384 . S
N798 C794 1.427 . S
N798 C795 1.384 . S
N799 C791 1.427 . S
N799 C797 1.384 . S
C231 C8 1.426 . S
C235 C92 1.421 . S
C249 C22 1.422 . S
C253 C106 1.424 . S
C267 C64 1.409 . S
C271 C36 1.424 . S
C285 C78 1.416 . S
C289 C50 1.429 . S
C303 C204 1.412 . S
C307 C120 1.418 . S
C321 C218 1.411 . S
C325 C134 1.419 . S
C339 C148 1.416 . S
C343 C176 1.414 . S
C357 C162 1.425 . S
C361 C190 1.422 . S
C375 C13 1.299 . S
C379 C77 1.412 . S
C393 C27 1.319 . S
C397 C63 1.404 . S
C411 C41 1.299 . S
C415 C105 1.413 . S
C429 C91 1.405 . S
C433 C55 1.322 . S
C447 C189 1.413 . S
C451 C125 1.299 . S
C465 C175 1.410 . S
C469 C139 1.302 . S
C483 C153 1.299 . S
C487 C217 1.413 . S
C501 C203 1.412 . S
C505 C167 1.300 . S
C519 C179 1.361 . S
C523 C11 1.362 . S
C537 C25 1.362 . S
C541 C193 1.361 . S
C555 C207 1.361 . S
C559 C39 1.362 . S
C573 C221 1.364 . S
C577 C53 1.356 . S
C591 C123 1.362 . S
C595 C67 1.360 . S
C609 C137 1.361 . S
C613 C81 1.361 . S
C627 C95 1.360 . S
C631 C151 1.362 . S
C645 C109 1.361 . S
C649 C165 1.362 . S
C663 C35 1.498 . S
C667 C7 1.502 . S
C681 C21 1.496 . S
C685 C49 1.494 . S
C699 C97 1.236 . S
C703 C69 1.242 . S
C717 C83 1.259 . S
C721 C111 1.255 . S
C735 C147 1.497 . S
C739 C119 1.501 . S
C753 C161 1.500 . S
C757 C133 1.501 . S
C771 C209 1.236 . S
C775 C181 1.244 . S
C789 C223 1.237 . S
C793 C195 1.251 . S
