# Generated by pormake.
# Topology vbb, (4)-cn, num edge types: 1
# Building blocks:
#     Node 0, Type 0, BuildingBlock: ICAMEG_clean_sbu_1, # of connection points: 4
#     Node 1, Type 0, BuildingBlock: ICAMEG_clean_sbu_1, # of connection points: 4
#     Node 2, Type 0, BuildingBlock: ICAMEG_clean_sbu_1, # of connection points: 4
#     Node 3, Type 0, BuildingBlock: ICAMEG_clean_sbu_1, # of connection points: 4
#     Node 4, Type 0, BuildingBlock: ICAMEG_clean_sbu_1, # of connection points: 4
#     Node 5, Type 0, BuildingBlock: ICAMEG_clean_sbu_1, # of connection points: 4
#     Node 6, Type 0, BuildingBlock: ICAMEG_clean_sbu_1, # of connection points: 4
#     Node 7, Type 0, BuildingBlock: ICAMEG_clean_sbu_1, # of connection points: 4
#     Node 8, Type 0, BuildingBlock: ICAMEG_clean_sbu_1, # of connection points: 4
#     Node 9, Type 0, BuildingBlock: ICAMEG_clean_sbu_1, # of connection points: 4
#     Node 10, Type 0, BuildingBlock: ICAMEG_clean_sbu_1, # of connection points: 4
#     Node 11, Type 0, BuildingBlock: ICAMEG_clean_sbu_1, # of connection points: 4
#     Node 12, Type 0, BuildingBlock: ICAMEG_clean_sbu_1, # of connection points: 4
#     Node 13, Type 0, BuildingBlock: ICAMEG_clean_sbu_1, # of connection points: 4
#     Node 14, Type 0, BuildingBlock: ICAMEG_clean_sbu_1, # of connection points: 4
#     Node 15, Type 0, BuildingBlock: ICAMEG_clean_sbu_1, # of connection points: 4
#     Node 16, Type 0, BuildingBlock: ICAMEG_clean_sbu_1, # of connection points: 4
#     Node 17, Type 0, BuildingBlock: ICAMEG_clean_sbu_1, # of connection points: 4
#     Node 18, Type 0, BuildingBlock: ICAMEG_clean_sbu_1, # of connection points: 4
#     Node 19, Type 0, BuildingBlock: ICAMEG_clean_sbu_1, # of connection points: 4
#     Node 20, Type 0, BuildingBlock: ICAMEG_clean_sbu_1, # of connection points: 4
#     Node 21, Type 0, BuildingBlock: ICAMEG_clean_sbu_1, # of connection points: 4
#     Node 22, Type 0, BuildingBlock: ICAMEG_clean_sbu_1, # of connection points: 4
#     Node 23, Type 0, BuildingBlock: ICAMEG_clean_sbu_1, # of connection points: 4
#     Node 24, Type 0, BuildingBlock: ICAMEG_clean_sbu_1, # of connection points: 4
#     Node 25, Type 0, BuildingBlock: ICAMEG_clean_sbu_1, # of connection points: 4
#     Node 26, Type 0, BuildingBlock: ICAMEG_clean_sbu_1, # of connection points: 4
#     Node 27, Type 0, BuildingBlock: ICAMEG_clean_sbu_1, # of connection points: 4
#     Node 28, Type 0, BuildingBlock: ICAMEG_clean_sbu_1, # of connection points: 4
#     Node 29, Type 0, BuildingBlock: ICAMEG_clean_sbu_1, # of connection points: 4
#     Node 30, Type 0, BuildingBlock: ICAMEG_clean_sbu_1, # of connection points: 4
#     Node 31, Type 0, BuildingBlock: ICAMEG_clean_sbu_1, # of connection points: 4
#     Edge 32, Type (0, 0), BuildingBlock: CIFDUS_clean_linker_0, # of connection points: 2
#     Edge 33, Type (0, 0), BuildingBlock: CIFDUS_clean_linker_0, # of connection points: 2
#     Edge 34, Type (0, 0), BuildingBlock: CIFDUS_clean_linker_0, # of connection points: 2
#     Edge 35, Type (0, 0), BuildingBlock: CIFDUS_clean_linker_0, # of connection points: 2
#     Edge 36, Type (0, 0), BuildingBlock: CIFDUS_clean_linker_0, # of connection points: 2
#     Edge 37, Type (0, 0), BuildingBlock: CIFDUS_clean_linker_0, # of connection points: 2
#     Edge 38, Type (0, 0), BuildingBlock: CIFDUS_clean_linker_0, # of connection points: 2
#     Edge 39, Type (0, 0), BuildingBlock: CIFDUS_clean_linker_0, # of connection points: 2
#     Edge 40, Type (0, 0), BuildingBlock: CIFDUS_clean_linker_0, # of connection points: 2
#     Edge 41, Type (0, 0), BuildingBlock: CIFDUS_clean_linker_0, # of connection points: 2
#     Edge 42, Type (0, 0), BuildingBlock: CIFDUS_clean_linker_0, # of connection points: 2
#     Edge 43, Type (0, 0), BuildingBlock: CIFDUS_clean_linker_0, # of connection points: 2
#     Edge 44, Type (0, 0), BuildingBlock: CIFDUS_clean_linker_0, # of connection points: 2
#     Edge 45, Type (0, 0), BuildingBlock: CIFDUS_clean_linker_0, # of connection points: 2
#     Edge 46, Type (0, 0), BuildingBlock: CIFDUS_clean_linker_0, # of connection points: 2
#     Edge 47, Type (0, 0), BuildingBlock: CIFDUS_clean_linker_0, # of connection points: 2
#     Edge 48, Type (0, 0), BuildingBlock: CIFDUS_clean_linker_0, # of connection points: 2
#     Edge 49, Type (0, 0), BuildingBlock: CIFDUS_clean_linker_0, # of connection points: 2
#     Edge 50, Type (0, 0), BuildingBlock: CIFDUS_clean_linker_0, # of connection points: 2
#     Edge 51, Type (0, 0), BuildingBlock: CIFDUS_clean_linker_0, # of connection points: 2
#     Edge 52, Type (0, 0), BuildingBlock: CIFDUS_clean_linker_0, # of connection points: 2
#     Edge 53, Type (0, 0), BuildingBlock: CIFDUS_clean_linker_0, # of connection points: 2
#     Edge 54, Type (0, 0), BuildingBlock: CIFDUS_clean_linker_0, # of connection points: 2
#     Edge 55, Type (0, 0), BuildingBlock: CIFDUS_clean_linker_0, # of connection points: 2
#     Edge 56, Type (0, 0), BuildingBlock: CIFDUS_clean_linker_0, # of connection points: 2
#     Edge 57, Type (0, 0), BuildingBlock: CIFDUS_clean_linker_0, # of connection points: 2
#     Edge 58, Type (0, 0), BuildingBlock: CIFDUS_clean_linker_0, # of connection points: 2
#     Edge 59, Type (0, 0), BuildingBlock: CIFDUS_clean_linker_0, # of connection points: 2
#     Edge 60, Type (0, 0), BuildingBlock: CIFDUS_clean_linker_0, # of connection points: 2
#     Edge 61, Type (0, 0), BuildingBlock: CIFDUS_clean_linker_0, # of connection points: 2
#     Edge 62, Type (0, 0), BuildingBlock: CIFDUS_clean_linker_0, # of connection points: 2
#     Edge 63, Type (0, 0), BuildingBlock: CIFDUS_clean_linker_0, # of connection points: 2
#     Edge 64, Type (0, 0), BuildingBlock: CIFDUS_clean_linker_0, # of connection points: 2
#     Edge 65, Type (0, 0), BuildingBlock: CIFDUS_clean_linker_0, # of connection points: 2
#     Edge 66, Type (0, 0), BuildingBlock: CIFDUS_clean_linker_0, # of connection points: 2
#     Edge 67, Type (0, 0), BuildingBlock: CIFDUS_clean_linker_0, # of connection points: 2
#     Edge 68, Type (0, 0), BuildingBlock: CIFDUS_clean_linker_0, # of connection points: 2
#     Edge 69, Type (0, 0), BuildingBlock: CIFDUS_clean_linker_0, # of connection points: 2
#     Edge 70, Type (0, 0), BuildingBlock: CIFDUS_clean_linker_0, # of connection points: 2
#     Edge 71, Type (0, 0), BuildingBlock: CIFDUS_clean_linker_0, # of connection points: 2
#     Edge 72, Type (0, 0), BuildingBlock: CIFDUS_clean_linker_0, # of connection points: 2
#     Edge 73, Type (0, 0), BuildingBlock: CIFDUS_clean_linker_0, # of connection points: 2
#     Edge 74, Type (0, 0), BuildingBlock: CIFDUS_clean_linker_0, # of connection points: 2
#     Edge 75, Type (0, 0), BuildingBlock: CIFDUS_clean_linker_0, # of connection points: 2
#     Edge 76, Type (0, 0), BuildingBlock: CIFDUS_clean_linker_0, # of connection points: 2
#     Edge 77, Type (0, 0), BuildingBlock: CIFDUS_clean_linker_0, # of connection points: 2
#     Edge 78, Type (0, 0), BuildingBlock: CIFDUS_clean_linker_0, # of connection points: 2
#     Edge 79, Type (0, 0), BuildingBlock: CIFDUS_clean_linker_0, # of connection points: 2
#     Edge 80, Type (0, 0), BuildingBlock: CIFDUS_clean_linker_0, # of connection points: 2
#     Edge 81, Type (0, 0), BuildingBlock: CIFDUS_clean_linker_0, # of connection points: 2
#     Edge 82, Type (0, 0), BuildingBlock: CIFDUS_clean_linker_0, # of connection points: 2
#     Edge 83, Type (0, 0), BuildingBlock: CIFDUS_clean_linker_0, # of connection points: 2
#     Edge 84, Type (0, 0), BuildingBlock: CIFDUS_clean_linker_0, # of connection points: 2
#     Edge 85, Type (0, 0), BuildingBlock: CIFDUS_clean_linker_0, # of connection points: 2
#     Edge 86, Type (0, 0), BuildingBlock: CIFDUS_clean_linker_0, # of connection points: 2
#     Edge 87, Type (0, 0), BuildingBlock: CIFDUS_clean_linker_0, # of connection points: 2
#     Edge 88, Type (0, 0), BuildingBlock: CIFDUS_clean_linker_0, # of connection points: 2
#     Edge 89, Type (0, 0), BuildingBlock: CIFDUS_clean_linker_0, # of connection points: 2
#     Edge 90, Type (0, 0), BuildingBlock: CIFDUS_clean_linker_0, # of connection points: 2
#     Edge 91, Type (0, 0), BuildingBlock: CIFDUS_clean_linker_0, # of connection points: 2
#     Edge 92, Type (0, 0), BuildingBlock: CIFDUS_clean_linker_0, # of connection points: 2
#     Edge 93, Type (0, 0), BuildingBlock: CIFDUS_clean_linker_0, # of connection points: 2
#     Edge 94, Type (0, 0), BuildingBlock: CIFDUS_clean_linker_0, # of connection points: 2
#     Edge 95, Type (0, 0), BuildingBlock: CIFDUS_clean_linker_0, # of connection points: 2
# Relax obj value: 0.070
# Max RMSD: 0.278
# Mean RMSD: 0.251
data_MOF--net-vbb--node1-ICAMEG_clean_sbu_1--edge1-CIFDUS_clean_linker_0
_symmetry_space_group_name_H-M    P1
_symmetry_Int_Tables_number       1
_symmetry_cell_setting            triclinic
loop_
_symmetry_equiv_pos_as_xyz
'x, y, z'
_cell_length_a     50.268855
_cell_length_b     20.14643
_cell_length_c     105.35056
_cell_angle_alpha  88.409551
_cell_angle_beta   90.368995
_cell_angle_gamma 89.96498
loop_
_atom_site_label
_atom_site_type_symbol
_atom_site_fract_x
_atom_site_fract_y
_atom_site_fract_z
_atom_type_partial_charge
Co0 Co 0.49349 0.12017 0.0624 0.0
Co1 Co 0.50624 0.96646 0.07631 0.0
O2 O 0.48905 0.02482 0.06387 0.0
C3 C 0.50942 0.06527 0.03802 0.0
O4 O 0.52489 0.0256 0.04484 0.0
C5 C 0.44883 0.95203 0.0802 0.0
O6 O 0.44871 0.01707 0.08036 0.0
O7 O 0.4981 0.02727 0.09025 0.0
O8 O 0.49102 0.12876 0.08136 0.0
H9 H 0.5663 0.90785 0.11325 0.0
H10 H 0.45179 0.05315 0.04727 0.0
O11 O 0.49614 0.11053 0.04343 0.0
H12 H 0.40379 0.21165 0.07366 0.0
H13 H 0.47875 0.34402 0.04118 0.0
H14 H 0.52317 0.22197 0.07658 0.0
H15 H 0.45275 0.20402 0.07465 0.0
H16 H 0.47315 0.22277 0.04394 0.0
O17 O 0.47085 0.92104 0.079 0.0
H18 H 0.54533 0.9829 0.0972 0.0
H19 H 0.50198 0.82168 0.08224 0.0
H20 H 0.5292 0.34318 0.07423 0.0
H21 H 0.40286 0.05939 0.04594 0.0
H22 H 0.50689 0.40502 0.05642 0.0
H23 H 0.37852 0.13883 0.05925 0.0
O24 O 0.53274 0.1124 0.06414 0.0
H25 H 0.48581 0.83867 0.03712 0.0
H26 H 0.55519 0.89626 0.06823 0.0
H27 H 0.5666 0.82485 0.0504 0.0
H28 H 0.53177 0.79578 0.03468 0.0
H29 H 0.47531 0.91015 0.05505 0.0
H30 H 0.52234 0.74486 0.09818 0.0
H31 H 0.55482 0.78789 0.1138 0.0
O32 O 0.54134 0.01318 0.07375 0.0
C33 C 0.49318 0.08912 0.09104 0.0
C34 C 0.55226 0.88846 0.10646 0.0
C35 C 0.52756 0.79699 0.09802 0.0
N36 N 0.52268 0.90649 0.08873 0.0
C37 C 0.5404 0.93066 0.09733 0.0
C38 C 0.51607 0.84069 0.08903 0.0
C39 C 0.54578 0.82117 0.10678 0.0
C40 C 0.44139 0.08849 0.05297 0.0
N41 N 0.45513 0.12853 0.06096 0.0
C42 C 0.41366 0.09156 0.05222 0.0
C43 C 0.40001 0.13607 0.0597 0.0
C44 C 0.41417 0.17691 0.0678 0.0
C45 C 0.44189 0.17237 0.06832 0.0
C46 C 0.48854 0.31764 0.04898 0.0
C47 C 0.51328 0.2486 0.06885 0.0
C48 C 0.48549 0.24901 0.05057 0.0
N49 N 0.49771 0.21549 0.06045 0.0
C50 C 0.51682 0.3172 0.06754 0.0
C51 C 0.50433 0.35184 0.05754 0.0
C52 C 0.54873 0.06965 0.0691 0.0
C53 C 0.50113 0.85078 0.04394 0.0
C54 C 0.53993 0.88366 0.06144 0.0
C55 C 0.54649 0.84317 0.05138 0.0
C56 C 0.52693 0.82682 0.04256 0.0
N57 N 0.51459 0.90704 0.06272 0.0
C58 C 0.49528 0.891 0.05415 0.0
Co59 Co 0.75037 0.17373 0.06549 0.0
Co60 Co 0.73745 0.33181 0.07543 0.0
O61 O 0.75476 0.26899 0.0647 0.0
C62 C 0.73308 0.22045 0.04015 0.0
O63 O 0.71723 0.2597 0.04632 0.0
C64 C 0.79482 0.34435 0.07976 0.0
O65 O 0.79413 0.27964 0.08132 0.0
O66 O 0.74454 0.27579 0.09083 0.0
O67 O 0.75316 0.17184 0.08462 0.0
H68 H 0.67614 0.4056 0.10979 0.0
H69 H 0.79172 0.23522 0.04888 0.0
O70 O 0.7473 0.17768 0.04632 0.0
H71 H 0.84036 0.08671 0.07893 0.0
H72 H 0.76486 0.94377 0.04947 0.0
H73 H 0.72118 0.07689 0.08195 0.0
H74 H 0.79142 0.09472 0.0797 0.0
H75 H 0.77026 0.06557 0.04942 0.0
O76 O 0.77319 0.37646 0.07764 0.0
H77 H 0.69729 0.32433 0.09594 0.0
H78 H 0.74258 0.47775 0.07806 0.0
H79 H 0.71539 0.95528 0.08241 0.0
H80 H 0.84061 0.22842 0.04773 0.0
H81 H 0.73732 0.88787 0.06608 0.0
H82 H 0.86528 0.15403 0.06288 0.0
O83 O 0.71117 0.18184 0.06705 0.0
H84 H 0.76021 0.44346 0.03365 0.0
H85 H 0.68934 0.40065 0.06498 0.0
H86 H 0.67905 0.46519 0.04531 0.0
H87 H 0.71463 0.48677 0.02947 0.0
H88 H 0.76959 0.37901 0.05342 0.0
H89 H 0.72206 0.56073 0.09176 0.0
H90 H 0.68851 0.52476 0.10774 0.0
O91 O 0.70211 0.28544 0.07339 0.0
C92 C 0.75002 0.2149 0.09323 0.0
C93 C 0.69065 0.42192 0.10283 0.0
C94 C 0.71646 0.50898 0.09273 0.0
N95 N 0.72093 0.39648 0.08613 0.0
C96 C 0.70262 0.37618 0.09494 0.0
C97 C 0.72803 0.46182 0.08501 0.0
C98 C 0.69763 0.48877 0.10169 0.0
C99 C 0.80226 0.20202 0.05539 0.0
N100 N 0.7887 0.165 0.06428 0.0
C101 C 0.82997 0.19864 0.05474 0.0
C102 C 0.8438 0.15696 0.06325 0.0
C103 C 0.82983 0.11922 0.07226 0.0
C104 C 0.80212 0.12396 0.07265 0.0
C105 C 0.75523 0.97259 0.05664 0.0
C106 C 0.73092 0.04784 0.07486 0.0
C107 C 0.75817 0.04153 0.05664 0.0
N108 N 0.74619 0.07813 0.06572 0.0
C109 C 0.7275 0.97903 0.07515 0.0
C110 C 0.73979 0.94125 0.06597 0.0
C111 C 0.69494 0.2267 0.07043 0.0
C112 C 0.74456 0.4346 0.04051 0.0
C113 C 0.70494 0.41011 0.05815 0.0
C114 C 0.699 0.44668 0.04703 0.0
C115 C 0.71897 0.45879 0.03815 0.0
N116 N 0.73007 0.38647 0.06038 0.0
C117 C 0.74979 0.39841 0.05175 0.0
Co118 Co 0.49791 0.1516 0.19322 0.0
Co119 Co 0.50963 0.30197 0.17794 0.0
O120 O 0.49376 0.24669 0.1911 0.0
C121 C 0.51861 0.21161 0.21639 0.0
O122 O 0.53338 0.24745 0.20862 0.0
C123 C 0.45185 0.31501 0.17492 0.0
O124 O 0.45198 0.24994 0.17538 0.0
O125 O 0.5002 0.23787 0.16476 0.0
O126 O 0.49267 0.13851 0.17442 0.0
H127 H 0.56568 0.35181 0.13952 0.0
H128 H 0.45898 0.22364 0.20892 0.0
O129 O 0.50359 0.16631 0.21197 0.0
H130 H 0.40621 0.06126 0.18529 0.0
H131 H 0.48531 0.93382 0.21689 0.0
H132 H 0.52469 0.04488 0.17919 0.0
H133 H 0.45495 0.06672 0.18287 0.0
H134 H 0.47999 0.05462 0.21315 0.0
O135 O 0.47386 0.34672 0.17547 0.0
H136 H 0.54653 0.28056 0.15656 0.0
H137 H 0.50464 0.44534 0.17085 0.0
H138 H 0.53037 0.92402 0.18251 0.0
H139 H 0.41033 0.21962 0.21167 0.0
H140 H 0.51059 0.8677 0.20148 0.0
H141 H 0.38359 0.13825 0.19975 0.0
O142 O 0.53677 0.15726 0.19025 0.0
H143 H 0.49327 0.43895 0.21627 0.0
H144 H 0.55934 0.37384 0.18452 0.0
H145 H 0.57259 0.44938 0.20148 0.0
H146 H 0.53943 0.48227 0.21752 0.0
H147 H 0.48092 0.36333 0.19919 0.0
H148 H 0.52321 0.51839 0.15392 0.0
H149 H 0.55403 0.47165 0.13813 0.0
O150 O 0.54501 0.25555 0.18027 0.0
C151 C 0.49457 0.17623 0.16446 0.0
C152 C 0.55236 0.37281 0.14637 0.0
C153 C 0.52849 0.4663 0.15445 0.0
N154 N 0.52472 0.35899 0.16475 0.0
C155 C 0.54154 0.33277 0.15606 0.0
C156 C 0.51802 0.42472 0.16399 0.0
C157 C 0.54579 0.44004 0.14559 0.0
C158 C 0.44754 0.18746 0.20383 0.0
N159 N 0.45982 0.14512 0.19581 0.0
C160 C 0.41997 0.18566 0.20538 0.0
C161 C 0.40497 0.14005 0.19867 0.0
C162 C 0.41765 0.09687 0.19055 0.0
C163 C 0.44525 0.10019 0.18922 0.0
C164 C 0.49399 0.95777 0.20858 0.0
C165 C 0.5159 0.02066 0.18742 0.0
C166 C 0.49109 0.02613 0.20643 0.0
N167 N 0.50189 0.05659 0.19593 0.0
C168 C 0.51924 0.95224 0.18927 0.0
C169 C 0.50817 0.92069 0.19993 0.0
C170 C 0.55247 0.19887 0.18486 0.0
C171 C 0.50787 0.42517 0.20931 0.0
C172 C 0.5448 0.38812 0.19145 0.0
C173 C 0.55241 0.43091 0.20102 0.0
C174 C 0.53379 0.44937 0.21002 0.0
N175 N 0.51935 0.36457 0.19082 0.0
C176 C 0.50096 0.38262 0.19958 0.0
Co177 Co 0.75253 0.08344 0.1909 0.0
Co178 Co 0.73924 0.92819 0.17959 0.0
O179 O 0.75641 0.98805 0.19104 0.0
C180 C 0.73417 0.03205 0.21569 0.0
O181 O 0.71799 0.99533 0.20907 0.0
C182 C 0.79661 0.91479 0.17593 0.0
O183 O 0.79616 0.97974 0.17493 0.0
O184 O 0.74719 0.98695 0.16476 0.0
O185 O 0.75592 0.08941 0.1718 0.0
H186 H 0.67901 0.86399 0.14372 0.0
H187 H 0.79304 0.01693 0.20759 0.0
O188 O 0.74884 0.0753 0.21 0.0
H189 H 0.84334 0.17004 0.17942 0.0
H190 H 0.76749 0.30874 0.20904 0.0
H191 H 0.72442 0.18488 0.17482 0.0
H192 H 0.7944 0.16385 0.17789 0.0
H193 H 0.77236 0.18702 0.20814 0.0
O194 O 0.77484 0.88283 0.17755 0.0
H195 H 0.69995 0.94142 0.15853 0.0
H196 H 0.74377 0.78289 0.17594 0.0
H197 H 0.71917 0.30652 0.1753 0.0
H198 H 0.8419 0.02185 0.20948 0.0
H199 H 0.7408 0.36928 0.19251 0.0
H200 H 0.8674 0.09854 0.19528 0.0
O201 O 0.71341 0.07717 0.18872 0.0
H202 H 0.75984 0.80726 0.22085 0.0
H203 H 0.69041 0.85921 0.18881 0.0
H204 H 0.67906 0.79106 0.20783 0.0
H205 H 0.71391 0.76487 0.22403 0.0
H206 H 0.77029 0.87535 0.20171 0.0
H207 H 0.72345 0.70371 0.16126 0.0
H208 H 0.69075 0.74419 0.14504 0.0
O209 O 0.70407 0.97544 0.18144 0.0
C210 C 0.75298 0.04801 0.16286 0.0
C211 C 0.69315 0.84571 0.15078 0.0
C212 C 0.71812 0.75576 0.16061 0.0
N213 N 0.72283 0.86648 0.16815 0.0
C214 C 0.70499 0.88927 0.15921 0.0
C215 C 0.72958 0.80078 0.16888 0.0
C216 C 0.69977 0.77851 0.15152 0.0
C217 C 0.80394 0.05113 0.20149 0.0
N218 N 0.79086 0.09047 0.19271 0.0
C219 C 0.83163 0.05343 0.20257 0.0
C220 C 0.84593 0.09641 0.19458 0.0
C221 C 0.83244 0.1365 0.18567 0.0
C222 C 0.80474 0.13278 0.18485 0.0
C223 C 0.758 0.28197 0.20149 0.0
C224 C 0.73403 0.2119 0.18229 0.0
C225 C 0.76064 0.21308 0.20094 0.0
N226 N 0.74883 0.17906 0.19139 0.0
C227 C 0.73092 0.28075 0.18253 0.0
C228 C 0.74304 0.31591 0.1922 0.0
C229 C 0.69712 0.03382 0.18471 0.0
C230 C 0.74451 0.81812 0.21384 0.0
C231 C 0.70569 0.84774 0.19579 0.0
C232 C 0.69915 0.80915 0.20654 0.0
C233 C 0.71872 0.79445 0.21563 0.0
N234 N 0.73101 0.87084 0.19412 0.0
C235 C 0.75034 0.85639 0.20295 0.0
Co236 Co 0.51368 0.88674 0.94238 0.0
Co237 Co 0.50241 0.04333 0.92947 0.0
O238 O 0.51885 0.98189 0.94159 0.0
C239 C 0.49706 0.93861 0.9669 0.0
O240 O 0.48207 0.97952 0.9601 0.0
C241 C 0.55998 0.05327 0.92579 0.0
O242 O 0.55912 0.98836 0.92541 0.0
O243 O 0.50985 0.98435 0.91517 0.0
O244 O 0.51701 0.88143 0.92338 0.0
H245 H 0.44317 0.11233 0.89283 0.0
H246 H 0.55519 0.94908 0.95837 0.0
O247 O 0.51026 0.89344 0.96141 0.0
H248 H 0.60319 0.79284 0.9315 0.0
H249 H 0.52571 0.65895 0.96236 0.0
H250 H 0.48402 0.78896 0.92721 0.0
H251 H 0.55435 0.80304 0.93005 0.0
H252 H 0.53232 0.7802 0.96043 0.0
O253 O 0.53843 0.08621 0.92705 0.0
H254 H 0.46315 0.03325 0.90847 0.0
H255 H 0.50851 0.1884 0.92438 0.0
H256 H 0.47699 0.66783 0.92873 0.0
H257 H 0.60399 0.94019 0.96016 0.0
H258 H 0.49793 0.602 0.94641 0.0
H259 H 0.62834 0.8619 0.94662 0.0
O260 O 0.47458 0.89672 0.94028 0.0
H261 H 0.52425 0.16276 0.96948 0.0
H262 H 0.45431 0.11577 0.93794 0.0
H263 H 0.4437 0.18479 0.95622 0.0
H264 H 0.47881 0.2085 0.97217 0.0
H265 H 0.53396 0.09377 0.95109 0.0
H266 H 0.48916 0.26919 0.90887 0.0
H267 H 0.45618 0.23125 0.89298 0.0
O268 O 0.46673 0.99886 0.93175 0.0
C269 C 0.51489 0.92282 0.91396 0.0
C270 C 0.45744 0.12951 0.89974 0.0
C271 C 0.48329 0.21754 0.90873 0.0
N272 N 0.48675 0.10641 0.91739 0.0
C273 C 0.46874 0.08502 0.90864 0.0
C274 C 0.4942 0.17161 0.91747 0.0
C275 C 0.46477 0.19622 0.89982 0.0
C276 C 0.56558 0.91421 0.95256 0.0
N277 N 0.5519 0.87625 0.94418 0.0
C278 C 0.59324 0.90966 0.95358 0.0
C279 C 0.6069 0.86579 0.94596 0.0
C280 C 0.5928 0.82706 0.93747 0.0
C281 C 0.56515 0.83304 0.93669 0.0
C282 C 0.51651 0.68708 0.95461 0.0
C283 C 0.4933 0.76058 0.93489 0.0
C284 C 0.52013 0.75572 0.95349 0.0
N285 N 0.50867 0.79145 0.94369 0.0
C286 C 0.4892 0.69204 0.93572 0.0
C287 C 0.50093 0.65515 0.94565 0.0
C288 C 0.45892 0.94151 0.93578 0.0
C289 C 0.50882 0.153 0.96257 0.0
C290 C 0.4697 0.12608 0.94482 0.0
C291 C 0.46359 0.16522 0.95514 0.0
C292 C 0.4833 0.17857 0.96408 0.0
N293 N 0.49476 0.1011 0.94341 0.0
C294 C 0.51422 0.1142 0.9521 0.0
Co295 Co 0.25685 0.84112 0.9422 0.0
Co296 Co 0.26876 0.68708 0.93 0.0
O297 O 0.25251 0.74569 0.94194 0.0
C298 C 0.27619 0.787 0.96665 0.0
O299 O 0.29166 0.74961 0.95987 0.0
C300 C 0.21106 0.67341 0.92676 0.0
O301 O 0.21099 0.73848 0.92625 0.0
O302 O 0.25978 0.74792 0.91552 0.0
O303 O 0.25212 0.84922 0.92327 0.0
H304 H 0.32624 0.62781 0.89315 0.0
H305 H 0.21715 0.77387 0.95895 0.0
O306 O 0.26167 0.83141 0.96115 0.0
H307 H 0.16567 0.93137 0.93183 0.0
H308 H 0.24385 0.06501 0.96121 0.0
H309 H 0.28461 0.94311 0.92633 0.0
H310 H 0.21446 0.92414 0.92987 0.0
H311 H 0.23836 0.94363 0.95992 0.0
O312 O 0.23311 0.6421 0.92803 0.0
H313 H 0.30648 0.70308 0.9086 0.0
H314 H 0.2639 0.54234 0.92565 0.0
H315 H 0.29048 0.06446 0.9272 0.0
H316 H 0.16845 0.77981 0.96128 0.0
H317 H 0.27001 0.12622 0.94474 0.0
H318 H 0.14235 0.85873 0.94761 0.0
O319 O 0.2959 0.83402 0.93973 0.0
H320 H 0.2507 0.5607 0.97082 0.0
H321 H 0.31803 0.61583 0.93837 0.0
H322 H 0.33047 0.54468 0.95691 0.0
H323 H 0.29668 0.51685 0.97331 0.0
H324 H 0.23915 0.63181 0.95216 0.0
H325 H 0.28306 0.46531 0.91034 0.0
H326 H 0.31454 0.50799 0.89397 0.0
O327 O 0.30411 0.73328 0.93179 0.0
C328 C 0.254 0.80932 0.91407 0.0
C329 C 0.31263 0.60857 0.90027 0.0
C330 C 0.28837 0.51738 0.90991 0.0
N331 N 0.28429 0.62691 0.91808 0.0
C332 C 0.30146 0.6509 0.90906 0.0
C333 C 0.27756 0.5612 0.91854 0.0
C334 C 0.30603 0.54136 0.90073 0.0
C335 C 0.206 0.809 0.95308 0.0
N336 N 0.21867 0.84897 0.94435 0.0
C337 C 0.17839 0.81188 0.9544 0.0
C338 C 0.16376 0.85611 0.94671 0.0
C339 C 0.17683 0.89684 0.93786 0.0
C340 C 0.20446 0.89252 0.93679 0.0
C341 C 0.25283 0.03868 0.95351 0.0
C342 C 0.27551 0.96972 0.93395 0.0
C343 C 0.24983 0.96998 0.95275 0.0
N344 N 0.261 0.93651 0.94301 0.0
C345 C 0.27897 0.03839 0.93441 0.0
C346 C 0.2675 0.07299 0.94426 0.0
C347 C 0.31168 0.79057 0.93539 0.0
C348 C 0.26557 0.57228 0.96372 0.0
C349 C 0.30321 0.60373 0.94545 0.0
C350 C 0.31036 0.56342 0.95592 0.0
C351 C 0.29139 0.54779 0.96512 0.0
N352 N 0.27787 0.62762 0.94416 0.0
C353 C 0.25912 0.61228 0.9531 0.0
Co354 Co 0.51484 0.87321 0.81122 0.0
Co355 Co 0.50743 0.72141 0.82663 0.0
O356 O 0.52131 0.77922 0.81338 0.0
C357 C 0.49308 0.80679 0.7888 0.0
O358 O 0.479 0.77207 0.79703 0.0
C359 C 0.56566 0.71914 0.82898 0.0
O360 O 0.56312 0.78384 0.82847 0.0
O361 O 0.5157 0.78661 0.83968 0.0
O362 O 0.52079 0.88721 0.83006 0.0
H363 H 0.45496 0.66149 0.86573 0.0
H364 H 0.55202 0.81397 0.7927 0.0
O365 O 0.50791 0.85402 0.79264 0.0
H366 H 0.60866 0.95726 0.81854 0.0
H367 H 0.4753 0.0698 0.78714 0.0
H368 H 0.52574 0.00172 0.82542 0.0
H369 H 0.5614 0.9462 0.82315 0.0
H370 H 0.48449 0.95267 0.79154 0.0
O371 O 0.54474 0.68273 0.82864 0.0
H372 H 0.47123 0.7362 0.84853 0.0
H373 H 0.5165 0.57912 0.83346 0.0
H374 H 0.51674 0.11876 0.82128 0.0
H375 H 0.59939 0.8236 0.78788 0.0
H376 H 0.49153 0.15457 0.80196 0.0
H377 H 0.62826 0.89587 0.80078 0.0
O378 O 0.47673 0.86313 0.81521 0.0
H379 H 0.5253 0.58827 0.78795 0.0
H380 H 0.45925 0.64264 0.82048 0.0
H381 H 0.44701 0.56594 0.80354 0.0
H382 H 0.48015 0.53851 0.7871 0.0
H383 H 0.53665 0.66483 0.80503 0.0
H384 H 0.50083 0.50267 0.85054 0.0
H385 H 0.46977 0.54379 0.8668 0.0
O386 O 0.4706 0.76278 0.82487 0.0
C387 C 0.51986 0.84893 0.84002 0.0
C388 C 0.46839 0.6429 0.85867 0.0
C389 C 0.49416 0.55379 0.85015 0.0
N390 N 0.49453 0.66174 0.83994 0.0
C391 C 0.47759 0.6849 0.84888 0.0
C392 C 0.50298 0.59726 0.84051 0.0
C393 C 0.47673 0.57689 0.85927 0.0
C394 C 0.56383 0.84796 0.7981 0.0
N395 N 0.55279 0.88387 0.80759 0.0
C396 C 0.59096 0.85217 0.79543 0.0
C397 C 0.60716 0.89248 0.80268 0.0
C398 C 0.59614 0.92714 0.8126 0.0
C399 C 0.56892 0.92171 0.81501 0.0
C400 C 0.48702 0.05508 0.79541 0.0
C401 C 0.51568 0.01512 0.81672 0.0
C402 C 0.49286 0.98814 0.79789 0.0
N403 N 0.50785 0.96842 0.80824 0.0
C404 C 0.51022 0.08249 0.81453 0.0
C405 C 0.496 0.10256 0.80374 0.0
C406 C 0.46214 0.81977 0.82079 0.0
C407 C 0.51072 0.59963 0.79509 0.0
C408 C 0.4738 0.6306 0.8134 0.0
C409 C 0.46676 0.5872 0.80383 0.0
C410 C 0.48537 0.57181 0.79461 0.0
N411 N 0.49869 0.65771 0.81379 0.0
C412 C 0.51708 0.64268 0.80482 0.0
Co413 Co 0.24996 0.87168 0.81129 0.0
Co414 Co 0.268 0.01642 0.82568 0.0
O415 O 0.24919 0.96669 0.81312 0.0
C416 C 0.27097 0.93433 0.78791 0.0
O417 O 0.28891 0.96063 0.79531 0.0
C418 C 0.21106 0.04251 0.82904 0.0
O419 O 0.20906 0.97767 0.82911 0.0
O420 O 0.25692 0.9535 0.83929 0.0
O421 O 0.24635 0.85657 0.83027 0.0
H422 H 0.32817 0.04849 0.86328 0.0
H423 H 0.21332 0.94907 0.79418 0.0
O424 O 0.25441 0.89201 0.79252 0.0
H425 H 0.154 0.81806 0.82209 0.0
H426 H 0.27262 0.66773 0.78678 0.0
H427 H 0.23555 0.74527 0.82677 0.0
H428 H 0.20211 0.81054 0.82483 0.0
H429 H 0.27091 0.78605 0.79078 0.0
O430 O 0.23408 0.06948 0.82808 0.0
H431 H 0.30522 0.98392 0.84694 0.0
H432 H 0.269 0.15955 0.83177 0.0
H433 H 0.23717 0.62704 0.82302 0.0
H434 H 0.16514 0.95806 0.79121 0.0
H435 H 0.25555 0.58653 0.80287 0.0
H436 H 0.13491 0.89226 0.80519 0.0
O437 O 0.28901 0.86774 0.81381 0.0
H438 H 0.25479 0.1599 0.78636 0.0
H439 H 0.31989 0.07627 0.81819 0.0
H440 H 0.33502 0.14949 0.80051 0.0
H441 H 0.30236 0.19161 0.78442 0.0
H442 H 0.24055 0.08655 0.80418 0.0
H443 H 0.29142 0.22609 0.84801 0.0
H444 H 0.32132 0.17049 0.86388 0.0
O445 O 0.30141 0.96141 0.82347 0.0
C446 C 0.24968 0.89289 0.83997 0.0
C447 C 0.31528 0.07332 0.85638 0.0
C448 C 0.29462 0.17299 0.84782 0.0
N449 N 0.28604 0.06813 0.83835 0.0
C450 C 0.30231 0.03706 0.84708 0.0
C451 C 0.28196 0.13511 0.83867 0.0
C452 C 0.3114 0.14177 0.85672 0.0
C453 C 0.20069 0.91775 0.80001 0.0
N454 N 0.21128 0.87507 0.80906 0.0
C455 C 0.1732 0.92413 0.7984 0.0
C456 C 0.15626 0.88743 0.80626 0.0
C457 C 0.16697 0.84562 0.81571 0.0
C458 C 0.19457 0.84052 0.81705 0.0
C459 C 0.26382 0.68479 0.79546 0.0
C460 C 0.24277 0.73023 0.81774 0.0
C461 C 0.26227 0.75266 0.79774 0.0
N462 N 0.251 0.77543 0.80862 0.0
C463 C 0.24399 0.662 0.81577 0.0
C464 C 0.25438 0.63926 0.80449 0.0
C465 C 0.30653 0.90407 0.81901 0.0
C466 C 0.26919 0.14213 0.79335 0.0
C467 C 0.30555 0.09476 0.81126 0.0
C468 C 0.31423 0.13615 0.80127 0.0
C469 C 0.29589 0.1598 0.79225 0.0
N470 N 0.27934 0.07763 0.81226 0.0
C471 C 0.26122 0.10083 0.80349 0.0
Co472 Co 0.49826 0.6332 0.56231 0.0
Co473 Co 0.50371 0.47521 0.5754 0.0
O474 O 0.48952 0.5398 0.56326 0.0
C475 C 0.51264 0.57595 0.53795 0.0
O476 O 0.52635 0.53291 0.54489 0.0
C477 C 0.44584 0.47902 0.57907 0.0
O478 O 0.44924 0.5434 0.5795 0.0
O479 O 0.4987 0.53609 0.58964 0.0
O480 O 0.49549 0.64008 0.58134 0.0
H481 H 0.56041 0.39346 0.61205 0.0
H482 H 0.45434 0.58028 0.54648 0.0
O483 O 0.50113 0.62444 0.54328 0.0
H484 H 0.41295 0.74896 0.57307 0.0
H485 H 0.49463 0.86166 0.54188 0.0
H486 H 0.53164 0.72449 0.57726 0.0
H487 H 0.46115 0.72661 0.57458 0.0
H488 H 0.48353 0.74256 0.54406 0.0
O489 O 0.46608 0.44106 0.57786 0.0
H490 H 0.54343 0.47647 0.59634 0.0
H491 H 0.49208 0.33247 0.58066 0.0
H492 H 0.54314 0.8434 0.5755 0.0
H493 H 0.40614 0.60131 0.54462 0.0
H494 H 0.52457 0.91282 0.5577 0.0
H495 H 0.38512 0.686 0.55801 0.0
O496 O 0.53683 0.61434 0.56436 0.0
H497 H 0.477 0.35991 0.53558 0.0
H498 H 0.54878 0.3916 0.56696 0.0
H499 H 0.55652 0.31959 0.54878 0.0
H500 H 0.52048 0.30353 0.53292 0.0
H501 H 0.47017 0.43169 0.55387 0.0
H502 H 0.50836 0.2479 0.59625 0.0
H503 H 0.54284 0.27823 0.61206 0.0
O504 O 0.54105 0.51121 0.57303 0.0
C505 C 0.49618 0.59859 0.5908 0.0
C506 C 0.54547 0.37956 0.60517 0.0
C507 C 0.51623 0.29789 0.59632 0.0
N508 N 0.51701 0.40904 0.58753 0.0
C509 C 0.53586 0.42628 0.59623 0.0
C510 C 0.50706 0.34595 0.58753 0.0
C511 C 0.53558 0.31494 0.60519 0.0
C512 C 0.44542 0.61781 0.55223 0.0
N513 N 0.46059 0.65256 0.56056 0.0
C514 C 0.41808 0.62926 0.55117 0.0
C515 C 0.40629 0.67672 0.5587 0.0
C516 C 0.4219 0.71203 0.56716 0.0
C517 C 0.44917 0.69915 0.56798 0.0
C518 C 0.50281 0.83195 0.54969 0.0
C519 C 0.52337 0.75449 0.56954 0.0
C520 C 0.49665 0.76451 0.55095 0.0
N521 N 0.50682 0.72683 0.56082 0.0
C522 C 0.53 0.82174 0.56857 0.0
C523 C 0.51961 0.86064 0.55857 0.0
C524 C 0.55091 0.56646 0.5689 0.0
C525 C 0.49282 0.36628 0.54246 0.0
C526 C 0.53298 0.38465 0.56012 0.0
C527 C 0.53747 0.3438 0.54985 0.0
C528 C 0.51723 0.33474 0.54096 0.0
N529 N 0.509 0.41547 0.56151 0.0
C530 C 0.48902 0.40665 0.55286 0.0
Co531 Co 0.75607 0.61881 0.56199 0.0
Co532 Co 0.75008 0.77747 0.57304 0.0
O533 O 0.76461 0.71248 0.56183 0.0
C534 C 0.74275 0.67313 0.53657 0.0
O535 O 0.72853 0.7171 0.54249 0.0
C536 C 0.80795 0.77694 0.57723 0.0
O537 O 0.80518 0.71236 0.57838 0.0
O538 O 0.75548 0.7177 0.5881 0.0
O539 O 0.75817 0.61335 0.58106 0.0
H540 H 0.69285 0.8593 0.60828 0.0
H541 H 0.80045 0.67109 0.54609 0.0
O542 O 0.75395 0.62566 0.54289 0.0
H543 H 0.84122 0.50532 0.57555 0.0
H544 H 0.76107 0.38869 0.54482 0.0
H545 H 0.72229 0.52833 0.57768 0.0
H546 H 0.79294 0.52699 0.57606 0.0
H547 H 0.77179 0.50809 0.5455 0.0
O548 O 0.78739 0.81352 0.57532 0.0
H549 H 0.71044 0.77595 0.59379 0.0
H550 H 0.76067 0.92109 0.57646 0.0
H551 H 0.71115 0.40916 0.5774 0.0
H552 H 0.84875 0.65066 0.54521 0.0
H553 H 0.7306 0.33848 0.56088 0.0
H554 H 0.86947 0.56746 0.56004 0.0
O555 O 0.71736 0.63726 0.56323 0.0
H556 H 0.77601 0.89051 0.53184 0.0
H557 H 0.70449 0.85875 0.56325 0.0
H558 H 0.69628 0.92886 0.54404 0.0
H559 H 0.73218 0.94491 0.52816 0.0
H560 H 0.78333 0.82066 0.55114 0.0
H561 H 0.74376 0.00602 0.59082 0.0
H562 H 0.70954 0.97529 0.60684 0.0
O563 O 0.71301 0.73998 0.57095 0.0
C564 C 0.75772 0.65516 0.59 0.0
C565 C 0.70768 0.87336 0.6013 0.0
C566 C 0.73629 0.95569 0.59152 0.0
N567 N 0.73634 0.84389 0.58422 0.0
C568 C 0.71763 0.82645 0.59305 0.0
C569 C 0.74581 0.90742 0.58343 0.0
C570 C 0.71708 0.93842 0.6005 0.0
C571 C 0.80924 0.63419 0.55248 0.0
N572 N 0.79385 0.5999 0.56106 0.0
C573 C 0.83664 0.62308 0.55197 0.0
C574 C 0.84825 0.57647 0.56031 0.0
C575 C 0.83242 0.54161 0.56902 0.0
C576 C 0.8051 0.55412 0.56927 0.0
C577 C 0.75249 0.41895 0.55207 0.0
C578 C 0.73094 0.49782 0.5705 0.0
C579 C 0.75843 0.48658 0.55248 0.0
N580 N 0.74777 0.52497 0.56166 0.0
C581 C 0.72451 0.43041 0.57037 0.0
C582 C 0.73541 0.3908 0.56109 0.0
C583 C 0.70323 0.68485 0.56726 0.0
C584 C 0.76025 0.88411 0.53871 0.0
C585 C 0.72023 0.86572 0.5564 0.0
C586 C 0.71547 0.90549 0.54555 0.0
C587 C 0.73564 0.91453 0.53664 0.0
N588 N 0.7444 0.83598 0.55834 0.0
C589 C 0.76431 0.84486 0.54969 0.0
Co590 Co 0.49817 0.649 0.6936 0.0
Co591 Co 0.50384 0.80225 0.67868 0.0
O592 O 0.49047 0.74251 0.69173 0.0
C593 C 0.51823 0.71368 0.71642 0.0
O594 O 0.53109 0.75202 0.70831 0.0
C595 C 0.44584 0.79709 0.67574 0.0
O596 O 0.44951 0.73273 0.67609 0.0
O597 O 0.49768 0.7366 0.66543 0.0
O598 O 0.49257 0.6354 0.67475 0.0
H599 H 0.55734 0.87016 0.64034 0.0
H600 H 0.45763 0.71103 0.70996 0.0
O601 O 0.5044 0.66512 0.71236 0.0
H602 H 0.40995 0.53736 0.68686 0.0
H603 H 0.49549 0.42925 0.71737 0.0
H604 H 0.5273 0.54858 0.67889 0.0
H605 H 0.45808 0.5548 0.68371 0.0
H606 H 0.48555 0.54835 0.7138 0.0
O607 O 0.46599 0.83594 0.6763 0.0
H608 H 0.54167 0.79293 0.65727 0.0
H609 H 0.49207 0.94325 0.67181 0.0
H610 H 0.53758 0.42954 0.68203 0.0
H611 H 0.40958 0.69506 0.71345 0.0
H612 H 0.52164 0.36906 0.70139 0.0
H613 H 0.38539 0.60791 0.7018 0.0
O614 O 0.53633 0.66375 0.69004 0.0
H615 H 0.48103 0.93207 0.71719 0.0
H616 H 0.54993 0.88701 0.68544 0.0
H617 H 0.55958 0.96489 0.70255 0.0
H618 H 0.52499 0.98769 0.71859 0.0
H619 H 0.47228 0.85439 0.69997 0.0
H620 H 0.50709 0.02213 0.65499 0.0
H621 H 0.54002 0.98569 0.63913 0.0
O622 O 0.54123 0.7657 0.6809 0.0
C623 C 0.49394 0.67419 0.66488 0.0
C624 C 0.54308 0.88672 0.64723 0.0
C625 C 0.51484 0.97199 0.65544 0.0
N626 N 0.51621 0.86389 0.66558 0.0
C627 C 0.53421 0.84329 0.65686 0.0
C628 C 0.5064 0.92715 0.66493 0.0
C629 C 0.53332 0.95151 0.64655 0.0
C630 C 0.44733 0.67242 0.70499 0.0
N631 N 0.46068 0.6335 0.69672 0.0
C632 C 0.42009 0.66384 0.70695 0.0
C633 C 0.40652 0.61499 0.7004 0.0
C634 C 0.42029 0.57541 0.69201 0.0
C635 C 0.44752 0.58549 0.69026 0.0
C636 C 0.50254 0.45505 0.70889 0.0
C637 C 0.52021 0.52257 0.68731 0.0
C638 C 0.49704 0.52249 0.70684 0.0
N639 N 0.50579 0.55526 0.69614 0.0
C640 C 0.52613 0.45518 0.68905 0.0
C641 C 0.5172 0.4213 0.69992 0.0
C642 C 0.55053 0.70945 0.68491 0.0
C643 C 0.49622 0.92273 0.71023 0.0
C644 C 0.53476 0.89694 0.69237 0.0
C645 C 0.54033 0.94106 0.70203 0.0
C646 C 0.52091 0.95385 0.71102 0.0
N647 N 0.51051 0.86661 0.69166 0.0
C648 C 0.49134 0.87905 0.70042 0.0
Co649 Co 0.75232 0.60596 0.69308 0.0
Co650 Co 0.74004 0.45437 0.67993 0.0
O651 O 0.75648 0.51077 0.69222 0.0
C652 C 0.73296 0.54677 0.71703 0.0
O653 O 0.71692 0.51282 0.70982 0.0
C654 C 0.79763 0.4402 0.67688 0.0
O655 O 0.79774 0.50528 0.67663 0.0
O656 O 0.74907 0.51712 0.66589 0.0
O657 O 0.75665 0.61762 0.67409 0.0
H658 H 0.68245 0.40173 0.64238 0.0
H659 H 0.79219 0.53507 0.70949 0.0
O660 O 0.74776 0.59194 0.71203 0.0
H661 H 0.84347 0.6966 0.68355 0.0
H662 H 0.76595 0.82516 0.71386 0.0
H663 H 0.72472 0.71164 0.67782 0.0
H664 H 0.79464 0.69035 0.68141 0.0
H665 H 0.77113 0.70416 0.71165 0.0
O666 O 0.77557 0.40897 0.67794 0.0
H667 H 0.7024 0.47426 0.65835 0.0
H668 H 0.74442 0.31031 0.67489 0.0
H669 H 0.71916 0.83268 0.6796 0.0
H670 H 0.84092 0.53997 0.71199 0.0
H671 H 0.73987 0.89023 0.69772 0.0
H672 H 0.86693 0.62092 0.69891 0.0
O673 O 0.71323 0.60026 0.69037 0.0
H674 H 0.75773 0.32245 0.72029 0.0
H675 H 0.69056 0.38336 0.68768 0.0
H676 H 0.67787 0.31039 0.70584 0.0
H677 H 0.71158 0.27968 0.72232 0.0
H678 H 0.76952 0.39537 0.70199 0.0
H679 H 0.72506 0.23596 0.65904 0.0
H680 H 0.69377 0.28164 0.64267 0.0
O681 O 0.70491 0.50125 0.6817 0.0
C682 C 0.7546 0.57872 0.66469 0.0
C683 C 0.69597 0.38118 0.6495 0.0
C684 C 0.71992 0.28816 0.65884 0.0
N685 N 0.72432 0.39632 0.6676 0.0
C686 C 0.70725 0.42196 0.65859 0.0
C687 C 0.73084 0.33046 0.66777 0.0
C688 C 0.70236 0.31382 0.64966 0.0
C689 C 0.80329 0.57108 0.70389 0.0
N690 N 0.79054 0.61275 0.69538 0.0
C691 C 0.83092 0.57337 0.70529 0.0
C692 C 0.8455 0.61873 0.69794 0.0
C693 C 0.83235 0.66118 0.68931 0.0
C694 C 0.8047 0.6574 0.68814 0.0
C695 C 0.75687 0.80067 0.70591 0.0
C696 C 0.73393 0.73641 0.68569 0.0
C697 C 0.75969 0.7322 0.70463 0.0
N698 N 0.74839 0.70107 0.69458 0.0
C699 C 0.73065 0.80492 0.68667 0.0
C700 C 0.74224 0.83716 0.69685 0.0
C701 C 0.69745 0.55815 0.68553 0.0
C702 C 0.74289 0.33526 0.71314 0.0
C703 C 0.70534 0.36993 0.69479 0.0
C704 C 0.69806 0.32861 0.70505 0.0
C705 C 0.71698 0.31137 0.71429 0.0
N706 N 0.73078 0.39321 0.69374 0.0
C707 C 0.74948 0.37628 0.70273 0.0
Co708 Co 0.5093 0.38049 0.44362 0.0
Co709 Co 0.50147 0.53531 0.42934 0.0
O710 O 0.51668 0.47469 0.44198 0.0
C711 C 0.49463 0.44026 0.46775 0.0
O712 O 0.48039 0.48188 0.46073 0.0
C713 C 0.55946 0.54002 0.42583 0.0
O714 O 0.55818 0.47499 0.42604 0.0
O715 O 0.50819 0.47231 0.4156 0.0
O716 O 0.512 0.37023 0.4247 0.0
H717 H 0.44399 0.6019 0.39193 0.0
H718 H 0.55259 0.44036 0.45889 0.0
O719 O 0.50657 0.39205 0.46255 0.0
H720 H 0.59622 0.27123 0.43322 0.0
H721 H 0.51686 0.15586 0.46541 0.0
H722 H 0.47692 0.28364 0.4295 0.0
H723 H 0.54768 0.28836 0.43183 0.0
H724 H 0.5261 0.27559 0.46243 0.0
O725 O 0.53812 0.57421 0.4267 0.0
H726 H 0.46243 0.52445 0.40828 0.0
H727 H 0.50996 0.67863 0.42311 0.0
H728 H 0.46727 0.16399 0.43206 0.0
H729 H 0.60113 0.42459 0.46062 0.0
H730 H 0.48731 0.09928 0.45013 0.0
H731 H 0.62328 0.33975 0.44768 0.0
O732 O 0.47037 0.39537 0.44165 0.0
H733 H 0.5249 0.66127 0.46837 0.0
H734 H 0.45462 0.61523 0.43696 0.0
H735 H 0.44504 0.68965 0.45458 0.0
H736 H 0.48033 0.71294 0.47046 0.0
H737 H 0.53356 0.58692 0.45065 0.0
H738 H 0.49218 0.75775 0.40687 0.0
H739 H 0.45889 0.71949 0.39116 0.0
O740 O 0.46498 0.49542 0.43186 0.0
C741 C 0.5114 0.40971 0.41495 0.0
C742 C 0.45841 0.61923 0.39875 0.0
C743 C 0.48549 0.70668 0.40713 0.0
N744 N 0.48703 0.59725 0.4167 0.0
C745 C 0.46884 0.57567 0.40806 0.0
C746 C 0.49551 0.66169 0.41628 0.0
C747 C 0.4668 0.68519 0.39832 0.0
C748 C 0.56201 0.40273 0.45335 0.0
N749 N 0.54727 0.365 0.44533 0.0
C750 C 0.58954 0.39426 0.45432 0.0
C751 C 0.60196 0.34672 0.44704 0.0
C752 C 0.58679 0.30829 0.43892 0.0
C753 C 0.55931 0.31823 0.43817 0.0
C754 C 0.50804 0.1835 0.45749 0.0
C755 C 0.48583 0.25571 0.43734 0.0
C756 C 0.51315 0.25128 0.45578 0.0
N757 N 0.50218 0.28636 0.44577 0.0
C758 C 0.48024 0.18803 0.43876 0.0
C759 C 0.49146 0.15177 0.44891 0.0
C760 C 0.45577 0.44087 0.4366 0.0
C761 C 0.5094 0.65171 0.46149 0.0
C762 C 0.47007 0.62526 0.44382 0.0
C763 C 0.46455 0.66749 0.45376 0.0
C764 C 0.48437 0.6806 0.46266 0.0
N765 N 0.49465 0.59702 0.44275 0.0
C766 C 0.51422 0.60987 0.4514 0.0
Co767 Co 0.25128 0.38577 0.44374 0.0
Co768 Co 0.25693 0.22748 0.43247 0.0
O769 O 0.24264 0.29214 0.44381 0.0
C770 C 0.26587 0.3292 0.4687 0.0
O771 O 0.28004 0.28688 0.46235 0.0
C772 C 0.19899 0.22915 0.4284 0.0
O773 O 0.20175 0.29381 0.4275 0.0
O774 O 0.25163 0.28821 0.41758 0.0
O775 O 0.24838 0.39231 0.42472 0.0
H776 H 0.31358 0.14657 0.39694 0.0
H777 H 0.20754 0.33274 0.45998 0.0
O778 O 0.25425 0.37743 0.4628 0.0
H779 H 0.16571 0.50051 0.4313 0.0
H780 H 0.24735 0.61464 0.46154 0.0
H781 H 0.28433 0.4772 0.42788 0.0
H782 H 0.21392 0.47855 0.43025 0.0
H783 H 0.23651 0.49536 0.46069 0.0
O784 O 0.21953 0.19233 0.43015 0.0
H785 H 0.29639 0.22941 0.41164 0.0
H786 H 0.24589 0.08428 0.42879 0.0
H787 H 0.29558 0.59626 0.42833 0.0
H788 H 0.15933 0.35342 0.4614 0.0
H789 H 0.27703 0.66584 0.44525 0.0
H790 H 0.13808 0.43765 0.44696 0.0
O791 O 0.28989 0.36735 0.44203 0.0
H792 H 0.23068 0.11218 0.47341 0.0
H793 H 0.30228 0.14471 0.44207 0.0
H794 H 0.31024 0.07289 0.46107 0.0
H795 H 0.27428 0.05637 0.47691 0.0
H796 H 0.22363 0.18379 0.45431 0.0
H797 H 0.2624 -0.00012 0.41422 0.0
H798 H 0.29655 0.03086 0.39819 0.0
O799 O 0.29414 0.26402 0.43458 0.0
C800 C 0.24903 0.35071 0.41575 0.0
C801 C 0.29878 0.1324 0.40392 0.0
C802 C 0.27002 0.05008 0.41361 0.0
N803 N 0.27039 0.16143 0.42113 0.0
C804 C 0.28905 0.17902 0.4123 0.0
C805 C 0.26073 0.09806 0.42182 0.0
C806 C 0.28919 0.0675 0.40462 0.0
C807 C 0.19853 0.37007 0.45377 0.0
N808 N 0.21358 0.40478 0.44511 0.0
C809 C 0.17118 0.38132 0.45458 0.0
C810 C 0.15926 0.42851 0.44646 0.0
C811 C 0.17475 0.46378 0.43766 0.0
C812 C 0.20203 0.45111 0.43711 0.0
C813 C 0.25554 0.58486 0.45411 0.0
C814 C 0.27608 0.50723 0.43524 0.0
C815 C 0.24952 0.5173 0.4536 0.0
N816 N 0.25968 0.47953 0.44421 0.0
C817 C 0.28257 0.57458 0.43546 0.0
C818 C 0.27218 0.61357 0.44497 0.0
C819 C 0.30395 0.31947 0.43807 0.0
C820 C 0.24646 0.11872 0.46655 0.0
C821 C 0.28653 0.13758 0.44891 0.0
C822 C 0.29114 0.09683 0.45964 0.0
C823 C 0.27094 0.08751 0.46852 0.0
N824 N 0.26247 0.16803 0.44705 0.0
C825 C 0.24255 0.15901 0.45569 0.0
Co826 Co 0.51174 0.34458 0.31283 0.0
Co827 Co 0.50242 0.1927 0.32792 0.0
O828 O 0.51744 0.25005 0.31485 0.0
C829 C 0.492 0.28323 0.28962 0.0
O830 O 0.4779 0.24573 0.29739 0.0
C831 C 0.56038 0.18636 0.33091 0.0
O832 O 0.55907 0.25135 0.33065 0.0
O833 O 0.51042 0.2574 0.3412 0.0
O834 O 0.51661 0.35765 0.33166 0.0
H835 H 0.44682 0.13507 0.36612 0.0
H836 H 0.5519 0.27714 0.29707 0.0
O837 O 0.50637 0.32979 0.29404 0.0
H838 H 0.60184 0.44398 0.32093 0.0
H839 H 0.52083 0.56409 0.28937 0.0
H840 H 0.48323 0.44813 0.32698 0.0
H841 H 0.55321 0.43347 0.3233 0.0
H842 H 0.52807 0.44383 0.29299 0.0
O843 O 0.53895 0.15219 0.33038 0.0
H844 H 0.46484 0.20905 0.34922 0.0
H845 H 0.51003 0.0499 0.33486 0.0
H846 H 0.47562 0.5684 0.32378 0.0
H847 H 0.60045 0.28618 0.29437 0.0
H848 H 0.4945 0.62718 0.30485 0.0
H849 H 0.62578 0.36982 0.3064 0.0
O850 O 0.47302 0.33473 0.31578 0.0
H851 H 0.52177 0.05905 0.28946 0.0
H852 H 0.45418 0.11544 0.32113 0.0
H853 H 0.44254 0.03909 0.30405 0.0
H854 H 0.47646 0.01058 0.28804 0.0
H855 H 0.53251 0.13538 0.30665 0.0
H856 H 0.49262 0.97418 0.35166 0.0
H857 H 0.46071 0.0167 0.36741 0.0
O858 O 0.46626 0.23508 0.32554 0.0
C859 C 0.51498 0.31956 0.34159 0.0
C860 C 0.46062 0.11589 0.35928 0.0
C861 C 0.48636 0.02561 0.35117 0.0
N862 N 0.48824 0.13356 0.34101 0.0
C863 C 0.47082 0.15748 0.34967 0.0
C864 C 0.49617 0.06868 0.3417 0.0
C865 C 0.46845 0.0495 0.36001 0.0
C866 C 0.56271 0.31429 0.30221 0.0
N867 N 0.5497 0.35509 0.31026 0.0
C868 C 0.59023 0.31894 0.30069 0.0
C869 C 0.60444 0.36582 0.30746 0.0
C870 C 0.59102 0.40742 0.31562 0.0
C871 C 0.56349 0.40125 0.31692 0.0
C872 C 0.51253 0.53905 0.29765 0.0
C873 C 0.49162 0.47342 0.31876 0.0
C874 C 0.51651 0.47098 0.29973 0.0
N875 N 0.5062 0.43916 0.31021 0.0
C876 C 0.48719 0.5415 0.31698 0.0
C877 C 0.49777 0.57443 0.30635 0.0
C878 C 0.45794 0.29122 0.32104 0.0
C879 C 0.50685 0.07091 0.2964 0.0
C880 C 0.46906 0.10307 0.31422 0.0
C881 C 0.46236 0.05981 0.30458 0.0
C882 C 0.48141 0.04381 0.2956 0.0
N883 N 0.49404 0.12948 0.31493 0.0
C884 C 0.51285 0.11385 0.3062 0.0
Co885 Co 0.25654 0.39331 0.31298 0.0
Co886 Co 0.26822 0.54703 0.3254 0.0
O887 O 0.25205 0.48866 0.31334 0.0
C888 C 0.27641 0.449 0.28889 0.0
O889 O 0.29184 0.48527 0.29597 0.0
C890 C 0.21052 0.5598 0.32841 0.0
O891 O 0.21061 0.49473 0.32873 0.0
O892 O 0.25953 0.4855 0.33971 0.0
O893 O 0.25167 0.38428 0.3319 0.0
H894 H 0.32567 0.60558 0.36265 0.0
H895 H 0.21698 0.46108 0.29595 0.0
O896 O 0.26166 0.40433 0.29407 0.0
H897 H 0.16539 0.30213 0.32233 0.0
H898 H 0.24425 0.17065 0.29334 0.0
H899 H 0.2841 0.29043 0.32894 0.0
H900 H 0.21413 0.30967 0.32479 0.0
H901 H 0.23855 0.29188 0.29485 0.0
O902 O 0.23247 0.59145 0.32728 0.0
H903 H 0.30603 0.53067 0.347 0.0
H904 H 0.26308 0.69154 0.32989 0.0
H905 H 0.29017 0.16922 0.32785 0.0
H906 H 0.16834 0.45484 0.29313 0.0
H907 H 0.27016 0.10852 0.30994 0.0
H908 H 0.14218 0.37518 0.30643 0.0
O909 O 0.2955 0.40029 0.31589 0.0
H910 H 0.24966 0.67424 0.2846 0.0
H911 H 0.31727 0.61903 0.31735 0.0
H912 H 0.32948 0.69065 0.29891 0.0
H913 H 0.29554 0.7185 0.28236 0.0
H914 H 0.23835 0.60268 0.30317 0.0
H915 H 0.28212 0.76822 0.34541 0.0
H916 H 0.31372 0.7253 0.3619 0.0
O917 O 0.30363 0.50128 0.32376 0.0
C918 C 0.2538 0.42411 0.34113 0.0
C919 C 0.31201 0.62493 0.35547 0.0
C920 C 0.28754 0.7162 0.34581 0.0
N921 N 0.28367 0.60693 0.33748 0.0
C922 C 0.30091 0.5828 0.34656 0.0
C923 C 0.2768 0.67258 0.33706 0.0
C924 C 0.30527 0.69208 0.35506 0.0
C925 C 0.2058 0.42564 0.30166 0.0
N926 N 0.21842 0.38541 0.31046 0.0
C927 C 0.17823 0.42259 0.30007 0.0
C928 C 0.16356 0.37795 0.30754 0.0
C929 C 0.17657 0.33698 0.31647 0.0
C930 C 0.20417 0.34148 0.31782 0.0
C931 C 0.25303 0.19652 0.30119 0.0
C932 C 0.2752 0.26429 0.32117 0.0
C933 C 0.24991 0.26513 0.30209 0.0
N934 N 0.26084 0.29801 0.31202 0.0
C935 C 0.27877 0.19569 0.32058 0.0
C936 C 0.26756 0.16169 0.31052 0.0
C937 C 0.31121 0.44375 0.32034 0.0
C938 C 0.26459 0.66266 0.29178 0.0
C939 C 0.30239 0.63119 0.31021 0.0
C940 C 0.3094 0.67175 0.29979 0.0
C941 C 0.29035 0.68739 0.29052 0.0
N942 N 0.2771 0.60707 0.31136 0.0
C943 C 0.25827 0.62242 0.30234 0.0
Co944 Co 0.99724 0.13658 0.561 0.0
Co945 Co 1.00309 0.98012 0.57474 0.0
O946 O 0.98909 0.04282 0.56222 0.0
C947 C 0.01343 0.07691 0.53717 0.0
O948 O 0.02744 0.03618 0.54447 0.0
C949 C 0.94497 0.98042 0.5777 0.0
O950 O 0.94758 0.04511 0.5779 0.0
O951 O 0.99665 0.04231 0.58859 0.0
O952 O 0.99351 0.14565 0.57994 0.0
H953 H 0.05811 0.90558 0.61249 0.0
H954 H 0.95451 0.07992 0.5449 0.0
O955 O 1.00113 0.12545 0.54208 0.0
H956 H 0.91054 0.24954 0.57033 0.0
H957 H 0.99285 0.36242 0.53952 0.0
H958 H 0.02917 0.23133 0.57588 0.0
H959 H 0.95881 0.22961 0.57246 0.0
H960 H 0.98261 0.24301 0.54212 0.0
O961 O 0.9657 0.94386 0.57684 0.0
H962 H 0.04135 0.98595 0.59624 0.0
H963 H 0.9926 0.83711 0.58036 0.0
H964 H 0.0398 0.3506 0.57371 0.0
H965 H 0.90626 0.09851 0.54243 0.0
H966 H 0.02158 0.41698 0.55542 0.0
H967 H 0.88393 0.18365 0.55524 0.0
O968 O 0.03584 0.11986 0.5636 0.0
H969 H 0.97993 0.85942 0.53504 0.0
H970 H 0.04943 0.89814 0.56725 0.0
H971 H 0.05893 0.82469 0.54947 0.0
H972 H 0.02404 0.80508 0.5332 0.0
H973 H 0.97133 0.93269 0.55294 0.0
H974 H 0.0087 0.75512 0.59649 0.0
H975 H 0.04176 0.78922 0.61267 0.0
O976 O 0.0402 0.01796 0.57279 0.0
C977 C 0.99384 0.10489 0.58952 0.0
C978 C 0.04379 0.89005 0.60545 0.0
C979 C 0.01603 0.80562 0.59648 0.0
N980 N 0.01625 0.91596 0.5873 0.0
C981 C 0.03431 0.93526 0.5962 0.0
C982 C 0.00696 0.85223 0.58739 0.0
C983 C 0.03458 0.82479 0.60556 0.0
C984 C 0.94503 0.11765 0.5504 0.0
N985 N 0.95951 0.15401 0.55875 0.0
C986 C 0.91766 0.12772 0.549 0.0
C987 C 0.90514 0.17543 0.55621 0.0
C988 C 0.92005 0.21239 0.56468 0.0
C989 C 0.94737 0.20087 0.56585 0.0
C990 C 1.00088 0.33405 0.54754 0.0
C991 C 0.02104 0.25998 0.56794 0.0
C992 C 0.9952 0.26644 0.54904 0.0
N993 N 0.00516 0.23045 0.55918 0.0
C994 C 0.02719 0.32745 0.56674 0.0
C995 C 0.01699 0.36464 0.55647 0.0
C996 C 0.04993 0.07321 0.56859 0.0
C997 C 0.99525 0.86732 0.54211 0.0
C998 C 0.03413 0.88964 0.56023 0.0
C999 C 0.03961 0.84798 0.55019 0.0
C1000 C 0.02002 0.83693 0.54107 0.0
N1001 N 0.0098 0.91929 0.56117 0.0
C1002 C 0.99045 0.90854 0.55229 0.0
Co1003 Co 0.25439 0.12993 0.56379 0.0
Co1004 Co 0.24848 0.28937 0.57443 0.0
O1005 O 0.2628 0.22361 0.56335 0.0
C1006 C 0.23944 0.18409 0.5387 0.0
O1007 O 0.22518 0.22654 0.54497 0.0
C1008 C 0.30632 0.28658 0.57856 0.0
O1009 O 0.303 0.22221 0.57973 0.0
O1010 O 0.25355 0.23018 0.58955 0.0
O1011 O 0.25749 0.12542 0.58284 0.0
H1012 H 0.19147 0.37443 0.60945 0.0
H1013 H 0.29786 0.18199 0.54727 0.0
O1014 O 0.25124 0.13644 0.54471 0.0
H1015 H 0.34033 0.01745 0.57642 0.0
H1016 H 0.25854 0.89937 0.54679 0.0
H1017 H 0.22166 0.03964 0.58004 0.0
H1018 H 0.29208 0.03889 0.57751 0.0
H1019 H 0.26921 0.01887 0.54721 0.0
O1020 O 0.28605 0.32426 0.57669 0.0
H1021 H 0.2087 0.28992 0.59511 0.0
H1022 H 0.25979 0.43275 0.57766 0.0
H1023 H 0.21059 0.92038 0.58002 0.0
H1024 H 0.34609 0.16179 0.54581 0.0
H1025 H 0.22909 0.84939 0.56331 0.0
H1026 H 0.36766 0.07919 0.56048 0.0
O1027 O 0.21579 0.14807 0.56553 0.0
H1028 H 0.27522 0.40114 0.53321 0.0
H1029 H 0.20326 0.37128 0.56445 0.0
H1030 H 0.19554 0.44166 0.54523 0.0
H1031 H 0.23169 0.45686 0.52945 0.0
H1032 H 0.28203 0.33098 0.55252 0.0
H1033 H 0.24324 0.51881 0.59187 0.0
H1034 H 0.20877 0.48982 0.60787 0.0
O1035 O 0.21123 0.25256 0.57237 0.0
C1036 C 0.25646 0.16798 0.59164 0.0
C1037 C 0.20641 0.38773 0.60248 0.0
C1038 C 0.2355 0.46875 0.59263 0.0
N1039 N 0.23501 0.35666 0.58549 0.0
C1040 C 0.21616 0.34016 0.59431 0.0
C1041 C 0.24481 0.41985 0.58463 0.0
C1042 C 0.21615 0.45245 0.6016 0.0
C1043 C 0.30701 0.14534 0.55359 0.0
N1044 N 0.29212 0.11124 0.5624 0.0
C1045 C 0.33437 0.13436 0.55276 0.0
C1046 C 0.34647 0.08809 0.561 0.0
C1047 C 0.33114 0.05346 0.56995 0.0
C1048 C 0.30384 0.06582 0.57053 0.0
C1049 C 0.25038 0.92976 0.55413 0.0
C1050 C 0.2299 0.00898 0.57278 0.0
C1051 C 0.25631 0.99744 0.5544 0.0
N1052 N 0.24618 0.036 0.56368 0.0
C1053 C 0.22351 0.94153 0.5728 0.0
C1054 C 0.23387 0.90175 0.56341 0.0
C1055 C 0.20158 0.19631 0.56921 0.0
C1056 C 0.25937 0.39518 0.54005 0.0
C1057 C 0.21909 0.37783 0.55763 0.0
C1058 C 0.21462 0.41776 0.54678 0.0
C1059 C 0.23492 0.42635 0.53794 0.0
N1060 N 0.24313 0.34747 0.55964 0.0
C1061 C 0.26314 0.35571 0.55103 0.0
Co1062 Co 0.99492 0.13827 0.6921 0.0
Co1063 Co 0.00506 0.29582 0.67948 0.0
O1064 O 0.98904 0.23331 0.69141 0.0
C1065 C 0.01108 0.18934 0.7168 0.0
O1066 O 0.02597 0.23074 0.71016 0.0
C1067 C 0.94732 0.30726 0.67581 0.0
O1068 O 0.94769 0.24237 0.67515 0.0
O1069 O 0.99728 0.23775 0.66505 0.0
O1070 O 0.99195 0.13377 0.67306 0.0
H1071 H 0.06317 0.36747 0.64298 0.0
H1072 H 0.95281 0.1981 0.70785 0.0
O1073 O 0.99806 0.14417 0.71115 0.0
H1074 H 0.90618 0.04188 0.6802 0.0
H1075 H 0.98394 0.90913 0.71152 0.0
H1076 H 0.0256 0.04239 0.67708 0.0
H1077 H 0.95496 0.05399 0.67919 0.0
H1078 H 0.97661 0.03021 0.70975 0.0
O1079 O 0.9691 0.33904 0.67719 0.0
H1080 H 0.04366 0.2873 0.65841 0.0
H1081 H 0.99881 0.44132 0.6748 0.0
H1082 H 0.03334 0.92147 0.67844 0.0
H1083 H 0.90405 0.18729 0.7092 0.0
H1084 H 0.01242 0.854 0.69576 0.0
H1085 H 0.8804 0.10898 0.69526 0.0
O1086 O 0.03402 0.14957 0.69036 0.0
H1087 H 0.98417 0.41222 0.71982 0.0
H1088 H 0.05327 0.36815 0.68812 0.0
H1089 H 0.06427 0.43607 0.70656 0.0
H1090 H 0.02958 0.45834 0.72259 0.0
H1091 H 0.97409 0.3443 0.70127 0.0
H1092 H 0.01771 0.52318 0.65951 0.0
H1093 H 0.0502 0.48638 0.64348 0.0
O1094 O 0.04077 0.25155 0.68162 0.0
C1095 C 0.99325 0.17582 0.66373 0.0
C1096 C 0.04911 0.38417 0.64995 0.0
C1097 C 0.02357 0.47155 0.65921 0.0
N1098 N 0.02034 0.3598 0.66756 0.0
C1099 C 0.03807 0.33904 0.65873 0.0
C1100 C 0.01291 0.42499 0.66784 0.0
C1101 C 0.0418 0.45086 0.65023 0.0
C1102 C 0.94272 0.16325 0.70187 0.0
N1103 N 0.95675 0.12636 0.69351 0.0
C1104 C 0.91508 0.1576 0.70263 0.0
C1105 C 0.90181 0.11373 0.6948 0.0
C1106 C 0.91627 0.0761 0.68633 0.0
C1107 C 0.94388 0.08317 0.68581 0.0
C1108 C 0.99313 0.93797 0.70392 0.0
C1109 C 0.01631 0.01328 0.6846 0.0
C1110 C 0.98909 0.00652 0.70289 0.0
N1111 N 1.00053 0.04314 0.69328 0.0
C1112 C 0.02082 0.94487 0.68534 0.0
C1113 C 0.0091 0.90706 0.69507 0.0
C1114 C 0.04918 0.19484 0.68576 0.0
C1115 C 0.99942 0.40309 0.71287 0.0
C1116 C 0.03807 0.37778 0.69504 0.0
C1117 C 0.0444 0.41632 0.70545 0.0
C1118 C 0.02492 0.42887 0.71443 0.0
N1119 N 0.01304 0.35258 0.69359 0.0
C1120 C 0.9938 0.36489 0.70232 0.0
Co1121 Co 0.25087 0.12582 0.69469 0.0
Co1122 Co 0.24658 0.97141 0.6817 0.0
O1123 O 0.25936 0.03248 0.69411 0.0
C1124 C 0.23083 0.06214 0.7181 0.0
O1125 O 0.21751 0.02395 0.71047 0.0
C1126 C 0.30457 0.9791 0.67902 0.0
O1127 O 0.30064 0.04332 0.67915 0.0
O1128 O 0.25226 0.03684 0.66775 0.0
O1129 O 0.25678 0.13867 0.67582 0.0
H1130 H 0.19365 0.89978 0.64385 0.0
H1131 H 0.29173 0.06643 0.71214 0.0
O1132 O 0.24463 0.11042 0.71351 0.0
H1133 H 0.33816 0.24249 0.68756 0.0
H1134 H 0.25154 0.34719 0.71558 0.0
H1135 H 0.22072 0.22335 0.67854 0.0
H1136 H 0.29031 0.22193 0.68408 0.0
H1137 H 0.26254 0.22848 0.71365 0.0
O1138 O 0.28463 0.93956 0.67979 0.0
H1139 H 0.2087 0.97822 0.65997 0.0
H1140 H 0.25941 0.83073 0.67657 0.0
H1141 H 0.20939 0.34199 0.68004 0.0
H1142 H 0.33949 0.08562 0.71598 0.0
H1143 H 0.22484 0.40473 0.69867 0.0
H1144 H 0.36306 0.17401 0.7036 0.0
O1145 O 0.21284 0.10891 0.69095 0.0
H1146 H 0.27061 0.8451 0.72195 0.0
H1147 H 0.20132 0.88408 0.68923 0.0
H1148 H 0.19244 0.80656 0.70726 0.0
H1149 H 0.22722 0.78684 0.72379 0.0
H1150 H 0.27862 0.92224 0.70379 0.0
H1151 H 0.24503 0.75068 0.66058 0.0
H1152 H 0.21185 0.78508 0.6441 0.0
O1153 O 0.20892 0.00579 0.68331 0.0
C1154 C 0.25585 0.09922 0.66647 0.0
C1155 C 0.20802 0.88411 0.65102 0.0
C1156 C 0.23689 0.80045 0.6604 0.0
N1157 N 0.23467 0.90874 0.66927 0.0
C1158 C 0.21654 0.92822 0.6602 0.0
C1159 C 0.24497 0.84595 0.66941 0.0
C1160 C 0.21827 0.81978 0.65116 0.0
C1161 C 0.30173 0.10561 0.70684 0.0
N1162 N 0.28818 0.14349 0.69798 0.0
C1163 C 0.32883 0.11599 0.70901 0.0
C1164 C 0.34205 0.16553 0.70204 0.0
C1165 C 0.32809 0.20395 0.69303 0.0
C1166 C 0.30101 0.1921 0.69111 0.0
C1167 C 0.24472 0.32041 0.70741 0.0
C1168 C 0.22764 0.2504 0.68664 0.0
C1169 C 0.25084 0.2532 0.70629 0.0
N1170 N 0.2424 0.21922 0.69597 0.0
C1171 C 0.2211 0.31753 0.68746 0.0
C1172 C 0.22975 0.35268 0.69792 0.0
C1173 C 0.19905 0.06182 0.68643 0.0
C1174 C 0.25534 0.85308 0.71478 0.0
C1175 C 0.21658 0.87544 0.69636 0.0
C1176 C 0.21144 0.83155 0.70655 0.0
C1177 C 0.23097 0.82049 0.71582 0.0
N1178 N 0.24052 0.90721 0.69542 0.0
C1179 C 0.25981 0.89646 0.70444 0.0
Co1180 Co 0.01307 0.86505 0.44443 0.0
Co1181 Co 0.00469 0.02064 0.43063 0.0
O1182 O 0.01987 0.95937 0.44309 0.0
C1183 C 0.9969 0.92378 0.46836 0.0
O1184 O 0.98222 0.96344 0.46115 0.0
C1185 C 0.06258 0.02372 0.4272 0.0
O1186 O 0.06038 0.95896 0.42697 0.0
O1187 O 0.01132 0.95867 0.41676 0.0
O1188 O 0.01632 0.8559 0.42546 0.0
H1189 H 0.94747 0.09064 0.39333 0.0
H1190 H 0.0555 0.92564 0.46014 0.0
O1191 O 0.00961 0.87612 0.46336 0.0
H1192 H 0.10091 0.75919 0.43452 0.0
H1193 H 0.021 0.64006 0.46602 0.0
H1194 H 0.98203 0.76739 0.42981 0.0
H1195 H 0.05234 0.77498 0.43276 0.0
H1196 H 0.02962 0.76021 0.46327 0.0
O1197 O 0.04163 0.05937 0.42822 0.0
H1198 H 0.96572 0.01173 0.40947 0.0
H1199 H 0.01342 0.16416 0.42481 0.0
H1200 H 0.97302 0.64735 0.43214 0.0
H1201 H 0.10404 0.91123 0.46225 0.0
H1202 H 0.99258 0.58286 0.45035 0.0
H1203 H 0.12709 0.82769 0.44934 0.0
O1204 O 0.97426 0.87864 0.4421 0.0
H1205 H 0.02783 0.14457 0.46996 0.0
H1206 H 0.95764 0.09905 0.43846 0.0
H1207 H 0.94791 0.17251 0.45621 0.0
H1208 H 0.98316 0.19557 0.47213 0.0
H1209 H 0.03665 0.07121 0.45211 0.0
H1210 H 0.99583 0.24474 0.40878 0.0
H1211 H 0.96254 0.20808 0.39292 0.0
O1212 O 0.96809 0.97999 0.4329 0.0
C1213 C 0.01499 0.89636 0.41585 0.0
C1214 C 0.96188 0.10727 0.40022 0.0
C1215 C 0.98905 0.19374 0.40889 0.0
N1216 N 0.99038 0.08359 0.41814 0.0
C1217 C 0.9722 0.06288 0.40941 0.0
C1218 C 0.99897 0.14793 0.41792 0.0
C1219 C 0.97037 0.17314 0.39999 0.0
C1220 C 0.06531 0.88858 0.45461 0.0
N1221 N 0.05106 0.8508 0.44641 0.0
C1222 C 0.09284 0.88089 0.4558 0.0
C1223 C 0.10576 0.83408 0.44854 0.0
C1224 C 0.09109 0.79565 0.44022 0.0
C1225 C 0.0636 0.80482 0.43925 0.0
C1226 C 0.0124 0.6676 0.45803 0.0
C1227 C 0.99074 0.73958 0.43772 0.0
C1228 C 0.01715 0.73562 0.45645 0.0
N1229 N 0.00645 0.77059 0.44636 0.0
C1230 C 0.9855 0.67166 0.43901 0.0
C1231 C 0.99646 0.63553 0.44924 0.0
C1232 C 0.95933 0.92389 0.43719 0.0
C1233 C 0.01236 0.13517 0.46305 0.0
C1234 C 0.97309 0.10905 0.44533 0.0
C1235 C 0.96748 0.1507 0.45535 0.0
C1236 C 0.98727 0.16369 0.46427 0.0
N1237 N 0.99774 0.08128 0.4442 0.0
C1238 C 0.01727 0.09388 0.45289 0.0
Co1239 Co 0.75542 0.83463 0.43858 0.0
Co1240 Co 0.76819 0.67361 0.43025 0.0
O1241 O 0.75023 0.7396 0.44004 0.0
C1242 C 0.76859 0.79264 0.46472 0.0
O1243 O 0.78492 0.75102 0.45943 0.0
C1244 C 0.71106 0.6604 0.42498 0.0
O1245 O 0.71188 0.72466 0.42271 0.0
O1246 O 0.76256 0.72596 0.41426 0.0
O1247 O 0.75492 0.832 0.41947 0.0
H1248 H 0.8322 0.59017 0.3979 0.0
H1249 H 0.71162 0.77864 0.45442 0.0
O1250 O 0.75602 0.83542 0.45777 0.0
H1251 H 0.66783 0.92218 0.42187 0.0
H1252 H 0.74055 0.06917 0.45209 0.0
H1253 H 0.7873 0.92618 0.42222 0.0
H1254 H 0.71673 0.91207 0.4226 0.0
H1255 H 0.73427 0.94762 0.45305 0.0
O1256 O 0.73253 0.62894 0.42779 0.0
H1257 H 0.81011 0.67525 0.41055 0.0
H1258 H 0.76278 0.52704 0.42882 0.0
H1259 H 0.79403 0.04744 0.42086 0.0
H1260 H 0.66271 0.78761 0.45407 0.0
H1261 H 0.77054 0.11981 0.43588 0.0
H1262 H 0.64048 0.85951 0.43767 0.0
O1263 O 0.79475 0.8246 0.43825 0.0
H1264 H 0.74123 0.5702 0.4722 0.0
H1265 H 0.81516 0.60638 0.44225 0.0
H1266 H 0.82333 0.54466 0.46246 0.0
H1267 H 0.78619 0.52624 0.47759 0.0
H1268 H 0.73399 0.63201 0.45194 0.0
H1269 H 0.78421 0.44031 0.41631 0.0
H1270 H 0.81926 0.47173 0.40076 0.0
O1271 O 0.80352 0.71975 0.43257 0.0
C1272 C 0.75809 0.78675 0.41129 0.0
C1273 C 0.81703 0.57583 0.40469 0.0
C1274 C 0.79006 0.49173 0.41501 0.0
N1275 N 0.78539 0.60595 0.42049 0.0
C1276 C 0.80452 0.62375 0.4119 0.0
C1277 C 0.77797 0.54101 0.42204 0.0
C1278 C 0.80974 0.50939 0.40628 0.0
C1279 C 0.70214 0.81077 0.44736 0.0
N1280 N 0.71704 0.84521 0.4386 0.0
C1281 C 0.67442 0.81538 0.44717 0.0
C1282 C 0.66196 0.85566 0.43795 0.0
C1283 C 0.67729 0.89079 0.42908 0.0
C1284 C 0.70497 0.88486 0.42954 0.0
C1285 C 0.75086 0.03818 0.44549 0.0
C1286 C 0.7769 0.9574 0.42873 0.0
C1287 C 0.74743 0.96936 0.446 0.0
N1288 N 0.76028 0.93001 0.43765 0.0
C1289 C 0.78084 0.026 0.42794 0.0
C1290 C 0.76768 0.06656 0.43638 0.0
C1291 C 0.81092 0.77848 0.43543 0.0
C1292 C 0.75754 0.57758 0.46565 0.0
C1293 C 0.79891 0.59849 0.44879 0.0
C1294 C 0.80364 0.56343 0.46021 0.0
C1295 C 0.78278 0.55303 0.46868 0.0
N1296 N 0.77409 0.62237 0.44588 0.0
C1297 C 0.75354 0.61234 0.45414 0.0
Co1298 Co 0.01542 0.86108 0.31324 0.0
Co1299 Co 1.00326 0.70486 0.32602 0.0
O1300 O 0.02023 0.76577 0.31411 0.0
C1301 C 0.99935 0.80968 0.28855 0.0
O1302 O 0.98394 0.76946 0.29517 0.0
C1303 C 0.06074 0.69147 0.33015 0.0
O1304 O 0.06054 0.75635 0.3308 0.0
O1305 O 0.01096 0.76332 0.34041 0.0
O1306 O 0.01794 0.86642 0.33228 0.0
H1307 H 0.94335 0.63806 0.36217 0.0
H1308 H 0.05729 0.7976 0.29788 0.0
O1309 O 0.01266 0.85437 0.29418 0.0
H1310 H 0.10483 0.95234 0.32549 0.0
H1311 H 0.02911 0.08839 0.29342 0.0
H1312 H 0.98544 0.95978 0.3279 0.0
H1313 H 0.05591 0.94351 0.32621 0.0
H1314 H 0.03521 0.96697 0.29548 0.0
O1315 O 0.03887 0.66011 0.32867 0.0
H1316 H 0.96394 0.71642 0.34673 0.0
H1317 H 0.00829 0.5594 0.33106 0.0
H1318 H 0.97891 0.08108 0.32625 0.0
H1319 H 0.10618 0.80508 0.29681 0.0
H1320 H 1.00084 0.14622 0.3089 0.0
H1321 H 0.13029 0.88264 0.31073 0.0
O1322 O 0.97623 0.85229 0.31476 0.0
H1323 H 0.02463 0.58461 0.28617 0.0
H1324 H 0.95475 0.63474 0.31712 0.0
H1325 H 0.94386 0.56605 0.29877 0.0
H1326 H 0.97895 0.54071 0.28313 0.0
H1327 H 0.03461 0.65334 0.30462 0.0
H1328 H 0.98831 0.47931 0.34638 0.0
H1329 H 0.95552 0.51855 0.36204 0.0
O1330 O 0.96793 0.75099 0.32349 0.0
C1331 C 0.01572 0.82497 0.34167 0.0
C1332 C 0.95752 0.62031 0.35535 0.0
C1333 C 0.98279 0.53122 0.3465 0.0
N1334 N 0.98707 0.6423 0.33794 0.0
C1335 C 0.96917 0.6644 0.34657 0.0
C1336 C 0.99406 0.57677 0.33787 0.0
C1337 C 0.96439 0.55327 0.35529 0.0
C1338 C 0.06759 0.83213 0.30384 0.0
N1339 N 0.05373 0.87045 0.31203 0.0
C1340 C 0.0953 0.8359 0.30324 0.0
C1341 C 0.10882 0.87936 0.31107 0.0
C1342 C 0.09454 0.91844 0.31936 0.0
C1343 C 0.06685 0.91323 0.31972 0.0
C1344 C 0.01948 0.06057 0.30103 0.0
C1345 C 0.99517 0.98786 0.32038 0.0
C1346 C 0.02282 0.99184 0.30222 0.0
N1347 N 0.01082 0.9565 0.31185 0.0
C1348 C 0.99134 0.05649 0.31947 0.0
C1349 C 1.00363 0.09299 0.30972 0.0
C1350 C 0.96037 0.80826 0.31925 0.0
C1351 C 0.00921 0.59507 0.29295 0.0
C1352 C 0.97012 0.62377 0.31037 0.0
C1353 C 0.96386 0.58481 0.30001 0.0
C1354 C 0.98356 0.57054 0.29124 0.0
N1355 N 0.99531 0.64769 0.31198 0.0
C1356 C 0.01476 0.63373 0.30345 0.0
Co1357 Co 0.75859 0.90613 0.31282 0.0
Co1358 Co 0.76986 0.06309 0.32378 0.0
O1359 O 0.75341 0.00122 0.31248 0.0
C1360 C 0.77657 0.95769 0.28798 0.0
O1361 O 0.79211 0.99612 0.29459 0.0
C1362 C 0.71231 0.07214 0.32764 0.0
O1363 O 0.71343 0.0072 0.32849 0.0
O1364 O 0.76279 0.00441 0.33871 0.0
O1365 O 0.75508 0.90092 0.33194 0.0
H1366 H 0.82952 0.13389 0.35937 0.0
H1367 H 0.71735 0.96826 0.29593 0.0
O1368 O 0.76236 0.91358 0.2937 0.0
H1369 H 0.66891 0.81258 0.32436 0.0
H1370 H 0.74679 0.67863 0.29515 0.0
H1371 H 0.78797 0.808 0.32912 0.0
H1372 H 0.71772 0.82297 0.32594 0.0
H1373 H 0.74029 0.79997 0.29579 0.0
O1374 O 0.7337 0.10556 0.32589 0.0
H1375 H 0.80946 0.05407 0.34476 0.0
H1376 H 0.76347 0.20816 0.32719 0.0
H1377 H 0.79485 0.68679 0.32891 0.0
H1378 H 0.66861 0.95909 0.29398 0.0
H1379 H 0.77417 0.62128 0.31183 0.0
H1380 H 0.64403 0.88109 0.30831 0.0
O1381 O 0.79761 0.91571 0.31503 0.0
H1382 H 0.74718 0.1803 0.28239 0.0
H1383 H 0.81764 0.13572 0.31429 0.0
H1384 H 0.82785 0.20385 0.29511 0.0
H1385 H 0.79248 0.22633 0.27898 0.0
H1386 H 0.73788 0.11231 0.30168 0.0
H1387 H 0.78288 0.28968 0.34166 0.0
H1388 H 0.81623 0.25264 0.35786 0.0
O1389 O 0.80565 0.01883 0.32192 0.0
C1390 C 0.75755 0.94317 0.34076 0.0
C1391 C 0.81509 0.15068 0.35232 0.0
C1392 C 0.78888 0.23811 0.34239 0.0
N1393 N 0.78555 0.12667 0.33507 0.0
C1394 C 0.80374 0.10576 0.344 0.0
C1395 C 0.77794 0.19177 0.33424 0.0
C1396 C 0.8076 0.21729 0.35148 0.0
C1397 C 0.70687 0.93351 0.30209 0.0
N1398 N 0.7204 0.8958 0.31098 0.0
C1399 C 0.67924 0.92881 0.30098 0.0
C1400 C 0.66546 0.8851 0.30903 0.0
C1401 C 0.6794 0.84667 0.31805 0.0
C1402 C 0.70703 0.85277 0.3189 0.0
C1403 C 0.75586 0.70662 0.30265 0.0
C1404 C 0.77877 0.77975 0.32171 0.0
C1405 C 0.7523 0.7753 0.30304 0.0
N1406 N 0.76359 0.81083 0.31253 0.0
C1407 C 0.7828 0.71117 0.32161 0.0
C1408 C 0.77122 0.67446 0.31202 0.0
C1409 C 0.81335 0.96075 0.31884 0.0
C1410 C 0.76273 0.17106 0.28937 0.0
C1411 C 0.80214 0.14557 0.30734 0.0
C1412 C 0.80803 0.18416 0.2965 0.0
C1413 C 0.78817 0.19678 0.28746 0.0
N1414 N 0.77716 0.12046 0.30913 0.0
C1415 C 0.75755 0.13286 0.30034 0.0
Co1416 Co 0.99509 0.62508 0.06197 0.0
Co1417 Co 1.00425 0.46885 0.07542 0.0
O1418 O 0.98858 0.53046 0.06313 0.0
C1419 C 0.01132 0.56883 0.03783 0.0
O1420 O 0.02586 0.52816 0.0449 0.0
C1421 C 0.94646 0.46287 0.07907 0.0
O1422 O 0.94773 0.52784 0.07918 0.0
O1423 O 0.99755 0.52992 0.08945 0.0
O1424 O 0.99194 0.63287 0.08094 0.0
H1425 H 0.06243 0.39899 0.11239 0.0
H1426 H 0.95278 0.56468 0.04617 0.0
O1427 O 0.99848 0.61566 0.04301 0.0
H1428 H 0.90691 0.72782 0.07237 0.0
H1429 H 0.98617 0.85135 0.04098 0.0
H1430 H 0.02597 0.72229 0.07676 0.0
H1431 H 0.95557 0.7134 0.07395 0.0
H1432 H 0.97796 0.7309 0.04344 0.0
O1433 O 0.96779 0.42886 0.07798 0.0
H1434 H 0.04349 0.47802 0.09645 0.0
H1435 H 0.99644 0.32468 0.08099 0.0
H1436 H 0.03459 0.84261 0.07472 0.0
H1437 H 0.90414 0.57775 0.04425 0.0
H1438 H 0.01461 0.90798 0.05672 0.0
H1439 H 0.88086 0.65956 0.05745 0.0
O1440 O 0.03401 0.61217 0.06418 0.0
H1441 H 0.98097 0.34753 0.03581 0.0
H1442 H 0.05141 0.39169 0.06726 0.0
H1443 H 0.06116 0.32014 0.04923 0.0
H1444 H 0.02579 0.29784 0.03333 0.0
H1445 H 0.97212 0.41898 0.05395 0.0
H1446 H 0.01475 0.24396 0.09681 0.0
H1447 H 0.04806 0.28101 0.11262 0.0
O1448 O 0.04048 0.51018 0.07304 0.0
C1449 C 0.99355 0.59205 0.09047 0.0
C1450 C 0.04802 0.38218 0.10551 0.0
C1451 C 0.02122 0.29519 0.09678 0.0
N1452 N 0.01911 0.40574 0.08774 0.0
C1453 C 0.0373 0.42665 0.09644 0.0
C1454 C 0.01091 0.34109 0.08786 0.0
C1455 C 0.03992 0.31601 0.10565 0.0
C1456 C 0.94286 0.60102 0.05183 0.0
N1457 N 0.95703 0.6386 0.06009 0.0
C1458 C 0.91529 0.60796 0.05074 0.0
C1459 C 0.90223 0.6538 0.05817 0.0
C1460 C 0.91683 0.69209 0.06655 0.0
C1461 C 0.94437 0.6837 0.0674 0.0
C1462 C 0.99496 0.82343 0.04887 0.0
C1463 C 0.0171 0.75047 0.06894 0.0
C1464 C 0.99043 0.75523 0.05029 0.0
N1465 N 1.00137 0.71977 0.06026 0.0
C1466 C 0.0221 0.81855 0.06782 0.0
C1467 C 0.01091 0.85518 0.05771 0.0
C1468 C 0.04905 0.56654 0.06886 0.0
C1469 C 0.9965 0.35665 0.04271 0.0
C1470 C 0.0359 0.38199 0.06041 0.0
C1471 C 0.04153 0.34142 0.05022 0.0
C1472 C 0.02167 0.32886 0.04131 0.0
N1473 N 0.01118 0.40913 0.0617 0.0
C1474 C 0.99158 0.39683 0.05303 0.0
Co1475 Co 0.25228 0.65446 0.06285 0.0
Co1476 Co 0.24161 0.8063 0.07622 0.0
O1477 O 0.2576 0.74935 0.0639 0.0
C1478 C 0.2343 0.71437 0.03863 0.0
O1479 O 0.21904 0.7517 0.04553 0.0
C1480 C 0.2994 0.81726 0.07978 0.0
O1481 O 0.29927 0.75216 0.07995 0.0
O1482 O 0.24986 0.74212 0.09028 0.0
O1483 O 0.25616 0.64207 0.08174 0.0
H1484 H 0.18402 0.86076 0.11332 0.0
H1485 H 0.29325 0.72237 0.04695 0.0
O1486 O 0.24823 0.66827 0.04395 0.0
H1487 H 0.34212 0.55628 0.07328 0.0
H1488 H 0.26376 0.43413 0.04224 0.0
H1489 H 0.22287 0.5512 0.0777 0.0
H1490 H 0.29335 0.56635 0.07491 0.0
H1491 H 0.27042 0.55462 0.04451 0.0
O1492 O 0.27748 0.84918 0.07863 0.0
H1493 H 0.20346 0.78783 0.09738 0.0
H1494 H 0.24747 0.94969 0.08165 0.0
H1495 H 0.21582 0.43069 0.07584 0.0
H1496 H 0.34196 0.71368 0.04496 0.0
H1497 H 0.23636 0.37136 0.05801 0.0
H1498 H 0.36674 0.6304 0.05824 0.0
O1499 O 0.21321 0.66358 0.06506 0.0
H1500 H 0.26132 0.93982 0.03639 0.0
H1501 H 0.19307 0.88174 0.06822 0.0
H1502 H 0.1815 0.95723 0.05017 0.0
H1503 H 0.21576 0.98659 0.03409 0.0
H1504 H 0.27198 0.86435 0.05455 0.0
H1505 H 0.22865 0.02438 0.09747 0.0
H1506 H 0.19661 0.97997 0.11342 0.0
O1507 O 0.20596 0.76244 0.07395 0.0
C1508 C 0.25464 0.68001 0.09126 0.0
C1509 C 0.19787 0.88076 0.10638 0.0
C1510 C 0.22295 0.97257 0.0975 0.0
N1511 N 0.22635 0.8647 0.08853 0.0
C1512 C 0.20886 0.83976 0.09731 0.0
C1513 C 0.23357 0.93007 0.08858 0.0
C1514 C 0.20497 0.94762 0.10645 0.0
C1515 C 0.30383 0.6854 0.05264 0.0
N1516 N 0.29044 0.64458 0.06097 0.0
C1517 C 0.33144 0.68095 0.05152 0.0
C1518 C 0.34534 0.63428 0.05899 0.0
C1519 C 0.33153 0.5927 0.06743 0.0
C1520 C 0.30393 0.59865 0.06832 0.0
C1521 C 0.25475 0.4594 0.05006 0.0
C1522 C 0.23199 0.52564 0.06995 0.0
C1523 C 0.2584 0.5276 0.05138 0.0
N1524 N 0.24718 0.55971 0.06127 0.0
C1525 C 0.22787 0.45744 0.06893 0.0
C1526 C 0.23938 0.4242 0.05892 0.0
C1527 C 0.19784 0.70685 0.06975 0.0
C1528 C 0.24625 0.92758 0.04336 0.0
C1529 C 0.20808 0.89444 0.06127 0.0
C1530 C 0.20143 0.93723 0.05108 0.0
C1531 C 0.22067 0.95371 0.04206 0.0
N1532 N 0.2332 0.86895 0.06246 0.0
C1533 C 0.2522 0.8851 0.05369 0.0
Co1534 Co 0.99635 0.6297 0.19306 0.0
Co1535 Co 0.00567 0.78663 0.18001 0.0
O1536 O 0.98998 0.72445 0.1921 0.0
C1537 C 0.01241 0.68352 0.21756 0.0
O1538 O 0.02694 0.72513 0.21079 0.0
C1539 C 0.94791 0.79374 0.17612 0.0
O1540 O 0.94907 0.72882 0.17577 0.0
O1541 O 0.99873 0.72672 0.16577 0.0
O1542 O 0.99325 0.62339 0.17406 0.0
H1543 H 0.06377 0.85818 0.1435 0.0
H1544 H 0.95406 0.68946 0.20871 0.0
O1545 O 0.99965 0.63738 0.21207 0.0
H1546 H 0.90806 0.52913 0.18169 0.0
H1547 H 0.98696 0.40187 0.21327 0.0
H1548 H 0.02724 0.53344 0.17822 0.0
H1549 H 0.95676 0.54282 0.18054 0.0
H1550 H 0.97894 0.52257 0.21113 0.0
O1551 O 0.9693 0.82734 0.17741 0.0
H1552 H 0.04477 0.77834 0.15914 0.0
H1553 H 0.99809 0.93124 0.17477 0.0
H1554 H 0.03567 0.41289 0.17995 0.0
H1555 H 0.90538 0.6771 0.21021 0.0
H1556 H 0.01545 0.34626 0.19757 0.0
H1557 H 0.88204 0.59672 0.19658 0.0
O1558 O 0.03531 0.64237 0.19118 0.0
H1559 H 0.98296 0.90558 0.21984 0.0
H1560 H 0.05304 0.86247 0.18857 0.0
H1561 H 0.06308 0.93262 0.20682 0.0
H1562 H 0.0279 0.95438 0.22263 0.0
H1563 H 0.97382 0.83552 0.20148 0.0
H1564 H 0.01644 0.01275 0.15925 0.0
H1565 H 0.0496 0.97633 0.1435 0.0
O1566 O 0.0418 0.74458 0.18247 0.0
C1567 C 0.99473 0.66468 0.16461 0.0
C1568 C 0.04942 0.87471 0.15035 0.0
C1569 C 0.02283 0.96144 0.15918 0.0
N1570 N 0.02057 0.85034 0.16792 0.0
C1571 C 0.03867 0.82978 0.15925 0.0
C1572 C 0.01248 0.9151 0.16793 0.0
C1573 C 0.04144 0.94098 0.15034 0.0
C1574 C 0.94411 0.65371 0.20287 0.0
N1575 N 0.95827 0.61653 0.19461 0.0
C1576 C 0.91651 0.64718 0.20372 0.0
C1577 C 0.90343 0.60214 0.19606 0.0
C1578 C 0.91801 0.56424 0.18769 0.0
C1579 C 0.94558 0.5722 0.18708 0.0
C1580 C 0.99586 0.43035 0.20554 0.0
C1581 C 0.01827 0.50471 0.18588 0.0
C1582 C 0.99144 0.49868 0.2043 0.0
N1583 N 1.00251 0.53484 0.19453 0.0
C1584 C 0.02316 0.4365 0.18682 0.0
C1585 C 0.01184 0.39917 0.19673 0.0
C1586 C 0.05035 0.68808 0.18664 0.0
C1587 C 0.99842 0.89667 0.21299 0.0
C1588 C 0.03762 0.87192 0.19539 0.0
C1589 C 0.04341 0.9117 0.2057 0.0
C1590 C 0.02365 0.92395 0.21456 0.0
N1591 N 0.01284 0.84524 0.19393 0.0
C1592 C 0.99333 0.85727 0.20254 0.0
Co1593 Co 0.25344 0.60164 0.19341 0.0
Co1594 Co 0.24357 0.45127 0.17934 0.0
O1595 O 0.25926 0.50717 0.19197 0.0
C1596 C 0.23528 0.53785 0.21714 0.0
O1597 O 0.22025 0.50155 0.20985 0.0
C1598 C 0.30144 0.44316 0.17595 0.0
O1599 O 0.30084 0.50819 0.17609 0.0
O1600 O 0.25127 0.51748 0.16563 0.0
O1601 O 0.25743 0.61669 0.17457 0.0
H1602 H 0.1862 0.39941 0.14167 0.0
H1603 H 0.29458 0.53278 0.20936 0.0
O1604 O 0.24921 0.58491 0.21223 0.0
H1605 H 0.34288 0.70349 0.18423 0.0
H1606 H 0.26352 0.81907 0.21527 0.0
H1607 H 0.22375 0.70614 0.17881 0.0
H1608 H 0.29419 0.69231 0.18213 0.0
H1609 H 0.2708 0.69921 0.21244 0.0
O1610 O 0.27976 0.41021 0.17689 0.0
H1611 H 0.2052 0.47097 0.15805 0.0
H1612 H 0.25037 0.30897 0.17327 0.0
H1613 H 0.21608 0.82606 0.18121 0.0
H1614 H 0.34321 0.54254 0.21181 0.0
H1615 H 0.23605 0.88331 0.19956 0.0
H1616 H 0.36771 0.62815 0.19914 0.0
O1617 O 0.21448 0.59186 0.1908 0.0
H1618 H 0.26441 0.31361 0.21866 0.0
H1619 H 0.19557 0.37319 0.18677 0.0
H1620 H 0.18461 0.29515 0.20443 0.0
H1621 H 0.21916 0.26503 0.22054 0.0
H1622 H 0.27448 0.39162 0.20088 0.0
H1623 H 0.23199 0.23566 0.157 0.0
H1624 H 0.19959 0.28083 0.14108 0.0
O1625 O 0.20762 0.49348 0.18162 0.0
C1626 C 0.25587 0.57971 0.1649 0.0
C1627 C 0.20021 0.37908 0.14859 0.0
C1628 C 0.22594 0.28719 0.15718 0.0
N1629 N 0.22864 0.39392 0.16667 0.0
C1630 C 0.21096 0.41929 0.15791 0.0
C1631 C 0.2363 0.32891 0.16635 0.0
C1632 C 0.20776 0.31257 0.14825 0.0
C1633 C 0.30503 0.57075 0.20393 0.0
N1634 N 0.29152 0.61227 0.19568 0.0
C1635 C 0.3326 0.57581 0.20531 0.0
C1636 C 0.34634 0.62379 0.19819 0.0
C1637 C 0.33242 0.66605 0.18982 0.0
C1638 C 0.30485 0.65947 0.18866 0.0
C1639 C 0.25475 0.79471 0.20723 0.0
C1640 C 0.23263 0.7308 0.18677 0.0
C1641 C 0.25876 0.72687 0.20559 0.0
N1642 N 0.24785 0.69592 0.19542 0.0
C1643 C 0.22815 0.79866 0.1881 0.0
C1644 C 0.23934 0.83073 0.1984 0.0
C1645 C 0.19929 0.54866 0.18589 0.0
C1646 C 0.24922 0.32617 0.21167 0.0
C1647 C 0.21072 0.36015 0.19373 0.0
C1648 C 0.20441 0.31592 0.2037 0.0
C1649 C 0.22381 0.29902 0.21273 0.0
N1650 N 0.23567 0.38662 0.19276 0.0
C1651 C 0.25483 0.37008 0.20155 0.0
Co1652 Co 0.01518 0.37405 0.94356 0.0
Co1653 Co 1.00378 0.52871 0.9298 0.0
O1654 O 0.02038 0.46919 0.9422 0.0
C1655 C 0.99868 0.42999 0.9677 0.0
O1656 O 0.98355 0.46945 0.96067 0.0
C1657 C 0.0614 0.54042 0.92609 0.0
O1658 O 0.06118 0.47537 0.92596 0.0
O1659 O 0.01148 0.46761 0.91588 0.0
O1660 O 0.01817 0.36554 0.92461 0.0
H1661 H 0.94457 0.59098 0.89275 0.0
H1662 H 0.05688 0.43893 0.95904 0.0
O1663 O 0.01197 0.38399 0.96251 0.0
H1664 H 0.10454 0.27843 0.93296 0.0
H1665 H 0.02755 0.14956 0.96487 0.0
H1666 H 0.98525 0.27366 0.92913 0.0
H1667 H 0.05569 0.28847 0.93159 0.0
H1668 H 0.03412 0.27053 0.96217 0.0
O1669 O 0.03954 0.57222 0.92719 0.0
H1670 H 0.96473 0.51465 0.90882 0.0
H1671 H 0.00931 0.67332 0.92396 0.0
H1672 H 0.97827 0.15275 0.93142 0.0
H1673 H 0.1057 0.43028 0.96075 0.0
H1674 H 0.99951 0.08988 0.9494 0.0
H1675 H 0.12988 0.34981 0.94761 0.0
O1676 O 0.97605 0.38355 0.94152 0.0
H1677 H 0.02512 0.65454 0.96912 0.0
H1678 H 0.95546 0.60183 0.93781 0.0
H1679 H 0.94461 0.67364 0.95566 0.0
H1680 H 0.97959 0.70028 0.97148 0.0
H1681 H 0.03505 0.5827 0.95117 0.0
H1682 H 0.98976 0.75139 0.908 0.0
H1683 H 0.95708 0.71029 0.89228 0.0
O1684 O 0.96825 0.48406 0.93229 0.0
C1685 C 0.01622 0.40571 0.915 0.0
C1686 C 0.9587 0.60954 0.89958 0.0
C1687 C 0.9841 0.69955 0.90813 0.0
N1688 N 0.98795 0.58972 0.91738 0.0
C1689 C 0.97011 0.5666 0.90872 0.0
C1690 C 0.99513 0.65515 0.91713 0.0
C1691 C 0.96576 0.67646 0.89931 0.0
C1692 C 0.0672 0.40316 0.95341 0.0
N1693 N 0.05342 0.3639 0.94529 0.0
C1694 C 0.09488 0.39873 0.95438 0.0
C1695 C 0.10843 0.35364 0.94698 0.0
C1696 C 0.09423 0.3136 0.93876 0.0
C1697 C 0.06657 0.31951 0.93802 0.0
C1698 C 0.01823 0.17639 0.95699 0.0
C1699 C 0.99468 0.24657 0.93693 0.0
C1700 C 0.02183 0.24486 0.95543 0.0
N1701 N 0.0102 0.27894 0.94546 0.0
C1702 C 0.9906 0.17815 0.9382 0.0
C1703 C 1.0025 0.14292 0.9483 0.0
C1704 C 0.96041 0.42752 0.93671 0.0
C1705 C 0.00974 0.64352 0.96226 0.0
C1706 C 0.97078 0.61336 0.94464 0.0
C1707 C 0.96454 0.65409 0.95472 0.0
C1708 C 0.98418 0.66908 0.96359 0.0
N1709 N 0.99589 0.58841 0.94341 0.0
C1710 C 0.01528 0.60309 0.95204 0.0
Co1711 Co 0.75814 0.33355 0.94288 0.0
Co1712 Co 0.76909 0.18027 0.93019 0.0
O1713 O 0.75283 0.23868 0.94216 0.0
C1714 C 0.77521 0.27613 0.96757 0.0
O1715 O 0.79057 0.23747 0.96099 0.0
C1716 C 0.71149 0.17207 0.92615 0.0
O1717 O 0.71244 0.23709 0.9257 0.0
O1718 O 0.76183 0.24322 0.91579 0.0
O1719 O 0.7549 0.34407 0.92387 0.0
H1720 H 0.82812 0.12015 0.89395 0.0
H1721 H 0.71656 0.26755 0.9587 0.0
O1722 O 0.76153 0.32167 0.9619 0.0
H1723 H 0.66875 0.43126 0.93138 0.0
H1724 H 0.74631 0.55612 0.96258 0.0
H1725 H 0.788 0.43517 0.92783 0.0
H1726 H 0.71757 0.42079 0.93019 0.0
H1727 H 0.73959 0.43541 0.96071 0.0
O1728 O 0.73299 0.13858 0.92758 0.0
H1729 H 0.80838 0.19534 0.90942 0.0
H1730 H 0.76262 0.03666 0.92517 0.0
H1731 H 0.79512 0.55586 0.92928 0.0
H1732 H 0.66778 0.27666 0.96025 0.0
H1733 H 0.77418 0.61714 0.94676 0.0
H1734 H 0.64353 0.35871 0.94647 0.0
O1735 O 0.7972 0.32371 0.941 0.0
H1736 H 0.74698 0.05031 0.97014 0.0
H1737 H 0.81699 0.10468 0.93897 0.0
H1738 H 0.82743 0.03028 0.95734 0.0
H1739 H 0.79228 0.00278 0.97309 0.0
H1740 H 0.73746 0.12467 0.95168 0.0
H1741 H 0.78173 0.95974 0.90982 0.0
H1742 H 0.81479 0.00142 0.8941 0.0
O1743 O 0.80484 0.22357 0.93266 0.0
C1744 C 0.75705 0.30519 0.9145 0.0
C1745 C 0.81382 0.10134 0.90079 0.0
C1746 C 0.78774 0.01133 0.90968 0.0
N1747 N 0.78459 0.12017 0.91825 0.0
C1748 C 0.80265 0.14362 0.90959 0.0
C1749 C 0.77697 0.05508 0.91833 0.0
C1750 C 0.8063 0.03474 0.90087 0.0
C1751 C 0.70621 0.30402 0.95279 0.0
N1752 N 0.71993 0.34395 0.94443 0.0
C1753 C 0.67856 0.30871 0.95367 0.0
C1754 C 0.66496 0.3547 0.94592 0.0
C1755 C 0.6791 0.39538 0.93744 0.0
C1756 C 0.70673 0.38923 0.93681 0.0
C1757 C 0.75551 0.52999 0.95491 0.0
C1758 C 0.77871 0.46157 0.93542 0.0
C1759 C 0.75182 0.46166 0.95383 0.0
N1760 N 0.76328 0.42845 0.94414 0.0
C1761 C 0.78287 0.52987 0.93621 0.0
C1762 C 0.77114 0.5642 0.94603 0.0
C1763 C 0.81276 0.27981 0.93666 0.0
C1764 C 0.76244 0.06174 0.96332 0.0
C1765 C 0.80159 0.09278 0.94578 0.0
C1766 C 0.8076 0.05062 0.95615 0.0
C1767 C 0.78787 0.03518 0.96498 0.0
N1768 N 0.77661 0.11866 0.94422 0.0
C1769 C 0.75713 0.10358 0.95282 0.0
Co1770 Co 0.01476 0.36486 0.81261 0.0
Co1771 Co 0.00558 0.20805 0.82575 0.0
O1772 O 0.02109 0.26989 0.81354 0.0
C1773 C 0.99844 0.31182 0.78808 0.0
O1774 O 0.98381 0.27029 0.79482 0.0
C1775 C 0.06382 0.19489 0.82896 0.0
O1776 O 0.06426 0.25991 0.82935 0.0
O1777 O 0.01408 0.26717 0.83993 0.0
O1778 O 0.01805 0.37086 0.83159 0.0
H1779 H 0.94916 0.13928 0.86304 0.0
H1780 H 0.05684 0.30501 0.79684 0.0
O1781 O 0.01134 0.35757 0.79361 0.0
H1782 H 0.10329 0.46461 0.82384 0.0
H1783 H 0.02455 0.59291 0.79253 0.0
H1784 H 0.984 0.46115 0.82749 0.0
H1785 H 0.0546 0.45102 0.82514 0.0
H1786 H 0.03237 0.47211 0.7946 0.0
O1787 O 0.04161 0.16456 0.82784 0.0
H1788 H 0.968 0.21825 0.84719 0.0
H1789 H 0.01189 0.06273 0.83074 0.0
H1790 H 0.97578 0.58182 0.82584 0.0
H1791 H 0.10549 0.31732 0.79519 0.0
H1792 H 0.99613 0.64853 0.80826 0.0
H1793 H 0.12906 0.39736 0.8088 0.0
O1794 O 0.97568 0.35289 0.81451 0.0
H1795 H 0.02479 0.08897 0.78553 0.0
H1796 H 0.95707 0.13465 0.81781 0.0
H1797 H 0.94534 0.06534 0.79966 0.0
H1798 H 0.97934 0.04225 0.78335 0.0
H1799 H 0.03561 0.1583 0.80379 0.0
H1800 H 0.99367 0.98208 0.84645 0.0
H1801 H 0.96199 0.02024 0.86272 0.0
O1802 O 0.96963 0.25203 0.82382 0.0
C1803 C 0.01763 0.32943 0.84104 0.0
C1804 C 0.96286 0.122 0.85596 0.0
C1805 C 0.98787 0.03378 0.84667 0.0
N1806 N 0.9908 0.14493 0.83799 0.0
C1807 C 0.97351 0.16643 0.84695 0.0
C1808 C 0.99815 0.07965 0.83781 0.0
C1809 C 0.97009 0.05523 0.85579 0.0
C1810 C 0.06689 0.34057 0.80268 0.0
N1811 N 0.05286 0.37759 0.81101 0.0
C1812 C 0.09447 0.34707 0.80175 0.0
C1813 C 0.10769 0.39192 0.8094 0.0
C1814 C 0.09324 0.42963 0.81785 0.0
C1815 C 0.06568 0.4217 0.81855 0.0
C1816 C 0.0156 0.56439 0.80025 0.0
C1817 C 0.99304 0.48993 0.81986 0.0
C1818 C 0.01991 0.496 0.80144 0.0
N1819 N 0.00877 0.4598 0.81119 0.0
C1820 C 0.98826 0.5582 0.81895 0.0
C1821 C 0.99966 0.59558 0.80908 0.0
C1822 C 0.96082 0.3079 0.81944 0.0
C1823 C 0.00984 0.09848 0.7926 0.0
C1824 C 0.97196 0.12473 0.81076 0.0
C1825 C 0.96523 0.08538 0.80051 0.0
C1826 C 0.98432 0.07237 0.79137 0.0
N1827 N 0.99702 0.15027 0.81188 0.0
C1828 C 0.01588 0.13748 0.80299 0.0
Co1829 Co 0.75764 0.376 0.81177 0.0
Co1830 Co 0.76279 0.52771 0.82579 0.0
O1831 O 0.7492 0.46903 0.81314 0.0
C1832 C 0.77503 0.44352 0.78819 0.0
O1833 O 0.78898 0.48123 0.79568 0.0
C1834 C 0.70465 0.52297 0.8289 0.0
O1835 O 0.70789 0.45844 0.82884 0.0
O1836 O 0.75706 0.46036 0.83948 0.0
O1837 O 0.7535 0.36005 0.83068 0.0
H1838 H 0.81747 0.59157 0.86363 0.0
H1839 H 0.7152 0.43778 0.79555 0.0
O1840 O 0.76201 0.3942 0.79291 0.0
H1841 H 0.67104 0.25838 0.82024 0.0
H1842 H 0.75467 0.15812 0.78965 0.0
H1843 H 0.78926 0.27616 0.82666 0.0
H1844 H 0.71919 0.27833 0.82274 0.0
H1845 H 0.744 0.27638 0.79249 0.0
O1846 O 0.72502 0.56108 0.82806 0.0
H1847 H 0.8013 0.51619 0.8472 0.0
H1848 H 0.75108 0.66799 0.83178 0.0
H1849 H 0.80031 0.15791 0.82424 0.0
H1850 H 0.66709 0.41928 0.7927 0.0
H1851 H 0.78296 0.09809 0.80562 0.0
H1852 H 0.64466 0.32923 0.80514 0.0
O1853 O 0.79608 0.39241 0.81471 0.0
H1854 H 0.73839 0.661 0.78639 0.0
H1855 H 0.80837 0.61447 0.81844 0.0
H1856 H 0.8172 0.6944 0.8008 0.0
H1857 H 0.78207 0.71795 0.7846 0.0
H1858 H 0.73046 0.58131 0.80416 0.0
H1859 H 0.76657 0.74501 0.84808 0.0
H1860 H 0.80007 0.70691 0.86412 0.0
O1861 O 0.80025 0.49232 0.82368 0.0
C1862 C 0.75417 0.39755 0.84032 0.0
C1863 C 0.80296 0.60885 0.85665 0.0
C1864 C 0.77436 0.69494 0.84794 0.0
N1865 N 0.7755 0.58799 0.83848 0.0
C1866 C 0.79381 0.56647 0.84731 0.0
C1867 C 0.76564 0.65114 0.83875 0.0
C1868 C 0.79316 0.67353 0.85694 0.0
C1869 C 0.70568 0.39792 0.80088 0.0
N1870 N 0.72004 0.3588 0.80922 0.0
C1871 C 0.67839 0.38792 0.79927 0.0
C1872 C 0.66581 0.33744 0.80627 0.0
C1873 C 0.6806 0.2977 0.81474 0.0
C1874 C 0.70785 0.30922 0.81612 0.0
C1875 C 0.76233 0.18362 0.79781 0.0
C1876 C 0.78153 0.25038 0.81857 0.0
C1877 C 0.7564 0.25058 0.79945 0.0
N1878 N 0.7659 0.28295 0.80976 0.0
C1879 C 0.78791 0.18347 0.81724 0.0
C1880 C 0.77819 0.14996 0.80678 0.0
C1881 C 0.81008 0.43801 0.81963 0.0
C1882 C 0.75382 0.65134 0.79342 0.0
C1883 C 0.79297 0.6247 0.81146 0.0
C1884 C 0.79807 0.66998 0.80149 0.0
C1885 C 0.77835 0.68319 0.79241 0.0
N1886 N 0.76887 0.59364 0.81237 0.0
C1887 C 0.7494 0.6065 0.80353 0.0
H1888 H 0.49123 0.0189 0.11353 0.0
H1889 H 0.48827 0.21907 0.0977 0.0
H1890 H 0.48659 0.26269 0.11906 0.0
H1891 H 0.48857 0.24459 0.14205 0.0
H1892 H 0.49204 0.04495 0.15805 0.0
H1893 H 0.49056 0.00056 0.13667 0.0
C1894 C 0.49007 0.07214 0.1147 0.0
C1895 C 0.49012 0.11564 0.10396 0.0
C1896 C 0.48921 0.09696 0.12702 0.0
C1897 C 0.48836 0.18437 0.10574 0.0
C1898 C 0.48744 0.20939 0.11797 0.0
C1899 C 0.48885 0.19123 0.14093 0.0
C1900 C 0.49069 0.14818 0.1517 0.0
C1901 C 0.48825 0.16619 0.12865 0.0
C1902 C 0.49068 0.07927 0.14998 0.0
C1903 C 0.48995 0.05388 0.13774 0.0
H1904 H 0.75245 0.17497 0.15295 0.0
H1905 H 0.76105 0.97036 0.14248 0.0
H1906 H 0.76223 0.00377 0.12014 0.0
H1907 H 0.7581 0.09003 0.10338 0.0
H1908 H 0.74856 0.29459 0.11379 0.0
H1909 H 0.75058 0.26205 0.13616 0.0
C1910 C 0.75489 0.13782 0.1458 0.0
C1911 C 0.75641 0.07032 0.14944 0.0
C1912 C 0.7552 0.15715 0.13286 0.0
C1913 C 0.75954 0.02277 0.13999 0.0
C1914 C 0.76023 0.04172 0.12717 0.0
C1915 C 0.75666 0.12759 0.11052 0.0
C1916 C 0.75299 0.19452 0.10682 0.0
C1917 C 0.7576 0.10864 0.12346 0.0
C1918 C 0.75122 0.24246 0.11628 0.0
C1919 C 0.75238 0.22402 0.12914 0.0
H1920 H 0.52925 0.77971 0.86201 0.0
H1921 H 0.51623 0.97925 0.8472 0.0
H1922 H 0.51485 0.01978 0.86886 0.0
H1923 H 0.51397 0.99697 0.89188 0.0
H1924 H 0.52522 0.79614 0.90648 0.0
H1925 H 0.53029 0.75765 0.88486 0.0
C1926 C 0.52629 0.83231 0.86344 0.0
C1927 C 0.52275 0.87636 0.8529 0.0
C1928 C 0.52484 0.85483 0.87588 0.0
C1929 C 0.51924 0.94428 0.85505 0.0
C1930 C 0.51819 0.96735 0.86746 0.0
C1931 C 0.51764 0.94472 0.8904 0.0
C1932 C 0.51901 0.89944 0.90087 0.0
C1933 C 0.52041 0.92281 0.87793 0.0
C1934 C 0.52394 0.83209 0.89866 0.0
C1935 C 0.52688 0.81004 0.88629 0.0
H1936 H 0.24108 0.96068 0.86135 0.0
H1937 H 0.25041 0.76163 0.84784 0.0
H1938 H 0.2506 0.71803 0.86972 0.0
H1939 H 0.2522 0.73778 0.89255 0.0
H1940 H 0.24478 0.93779 0.90597 0.0
H1941 H 0.23997 0.97974 0.88411 0.0
C1942 C 0.24295 0.90758 0.86315 0.0
C1943 C 0.24587 0.86447 0.85293 0.0
C1944 C 0.24373 0.88321 0.87571 0.0
C1945 C 0.24789 0.79587 0.85547 0.0
C1946 C 0.24827 0.77101 0.868 0.0
C1947 C 0.24939 0.7906 0.89075 0.0
C1948 C 0.24917 0.83466 0.90093 0.0
C1949 C 0.24685 0.81445 0.87817 0.0
C1950 C 0.24521 0.90276 0.89835 0.0
C1951 C 0.24245 0.92681 0.88585 0.0
H1952 H 0.49458 0.52485 0.61293 0.0
H1953 H 0.49176 0.72739 0.59828 0.0
H1954 H 0.48908 0.76723 0.61991 0.0
H1955 H 0.4893 0.74526 0.64273 0.0
H1956 H 0.49307 0.54354 0.65769 0.0
H1957 H 0.49319 0.50263 0.63599 0.0
C1958 C 0.49328 0.57781 0.61441 0.0
C1959 C 0.49352 0.62309 0.60391 0.0
C1960 C 0.49184 0.60045 0.62688 0.0
C1961 C 0.4917 0.69138 0.60611 0.0
C1962 C 0.49016 0.71421 0.61849 0.0
C1963 C 0.49003 0.69214 0.64135 0.0
C1964 C 0.49136 0.64752 0.65192 0.0
C1965 C 0.49047 0.66923 0.62892 0.0
C1966 C 0.49202 0.57902 0.64979 0.0
C1967 C 0.49222 0.55568 0.63738 0.0
H1968 H 0.75949 0.50722 0.64342 0.0
H1969 H 0.75809 0.70901 0.65627 0.0
H1970 H 0.76011 0.75026 0.63421 0.0
H1971 H 0.75969 0.72858 0.61137 0.0
H1972 H 0.76034 0.52609 0.59879 0.0
H1973 H 0.76113 0.48565 0.62083 0.0
C1974 C 0.75972 0.56038 0.64148 0.0
C1975 C 0.75838 0.60498 0.65154 0.0
C1976 C 0.7606 0.58356 0.62884 0.0
C1977 C 0.75906 0.67355 0.64875 0.0
C1978 C 0.76011 0.69712 0.63613 0.0
C1979 C 0.76014 0.67552 0.6134 0.0
C1980 C 0.75977 0.63046 0.60337 0.0
C1981 C 0.76047 0.65251 0.6261 0.0
C1982 C 0.76052 0.56197 0.60627 0.0
C1983 C 0.76095 0.53876 0.61887 0.0
H1984 H 0.51541 0.47864 0.39238 0.0
H1985 H 0.51444 0.27897 0.4085 0.0
H1986 H 0.51718 0.23435 0.38724 0.0
H1987 H 0.51771 0.25167 0.36422 0.0
H1988 H 0.51808 0.45092 0.34793 0.0
H1989 H 0.51804 0.49598 0.36927 0.0
C1990 C 0.5159 0.42527 0.3913 0.0
C1991 C 0.51451 0.38226 0.4021 0.0
C1992 C 0.51739 0.39989 0.37904 0.0
C1993 C 0.51539 0.31333 0.40042 0.0
C1994 C 0.51694 0.28774 0.38825 0.0
C1995 C 0.51795 0.30508 0.36526 0.0
C1996 C 0.51771 0.34782 0.35441 0.0
C1997 C 0.51764 0.33055 0.37751 0.0
C1998 C 0.51825 0.41679 0.35606 0.0
C1999 C 0.51812 0.44258 0.36827 0.0
H2000 H 0.24944 0.49724 0.36223 0.0
H2001 H 0.24893 0.29473 0.34972 0.0
H2002 H 0.24597 0.25462 0.3718 0.0
H2003 H 0.24615 0.27711 0.39452 0.0
H2004 H 0.2474 0.4799 0.40691 0.0
H2005 H 0.24737 0.5198 0.38482 0.0
C2006 C 0.24857 0.4442 0.36427 0.0
C2007 C 0.24968 0.39901 0.3543 0.0
C2008 C 0.24711 0.4216 0.37693 0.0
C2009 C 0.24819 0.33061 0.35718 0.0
C2010 C 0.24657 0.30767 0.3698 0.0
C2011 C 0.24628 0.33014 0.39244 0.0
C2012 C 0.247 0.37544 0.40241 0.0
C2013 C 0.24644 0.35274 0.37974 0.0
C2014 C 0.24693 0.44389 0.39946 0.0
C2015 C 0.24696 0.46676 0.38683 0.0
H2016 H 0.98801 0.03203 0.61141 0.0
H2017 H 0.99376 0.23453 0.59705 0.0
H2018 H 0.99284 0.27411 0.6188 0.0
H2019 H 0.9927 0.25071 0.64177 0.0
H2020 H 0.98755 0.04776 0.65597 0.0
H2021 H 0.98589 0.009 0.63424 0.0
C2022 C 0.98895 0.08498 0.61296 0.0
C2023 C 0.99116 0.13022 0.60255 0.0
C2024 C 0.98862 0.10727 0.62544 0.0
C2025 C 0.9921 0.19856 0.60484 0.0
C2026 C 0.99164 0.2212 0.61728 0.0
C2027 C 0.99106 0.19792 0.64017 0.0
C2028 C 0.99041 0.15221 0.65057 0.0
C2029 C 0.99027 0.1759 0.62764 0.0
C2030 C 0.98815 0.08411 0.64821 0.0
C2031 C 0.98723 0.06188 0.63577 0.0
H2032 H 0.25618 0.2439 0.61266 0.0
H2033 H 0.26268 0.04053 0.60091 0.0
H2034 H 0.26501 0.00292 0.6231 0.0
H2035 H 0.26317 0.02687 0.64553 0.0
H2036 H 0.25541 0.22922 0.6576 0.0
H2037 H 0.25608 0.26831 0.63536 0.0
C2038 C 0.25823 0.19127 0.6149 0.0
C2039 C 0.25909 0.14504 0.60507 0.0
C2040 C 0.25939 0.16992 0.62767 0.0
C2041 C 0.26187 0.0772 0.60823 0.0
C2042 C 0.26321 0.05565 0.62092 0.0
C2043 C 0.2617 0.07973 0.64339 0.0
C2044 C 0.25897 0.12508 0.65327 0.0
C2045 C 0.26168 0.10151 0.63068 0.0
C2046 C 0.2575 0.19328 0.65021 0.0
C2047 C 0.25775 0.21554 0.6375 0.0
H2048 H 0.01669 0.75031 0.36364 0.0
H2049 H 0.0209 0.95327 0.34937 0.0
H2050 H 0.02237 0.99227 0.3711 0.0
H2051 H 0.02034 0.96932 0.39395 0.0
H2052 H 0.01573 0.76673 0.40835 0.0
H2053 H 0.01677 0.72706 0.38661 0.0
C2054 C 0.01806 0.80317 0.36523 0.0
C2055 C 0.01849 0.84881 0.35481 0.0
C2056 C 0.01879 0.8253 0.37774 0.0
C2057 C 0.02048 0.91698 0.35714 0.0
C2058 C 0.02127 0.93934 0.36958 0.0
C2059 C 0.01966 0.91634 0.3924 0.0
C2060 C 0.01773 0.87108 0.40283 0.0
C2061 C 0.0201 0.89399 0.37992 0.0
C2062 C 0.01717 0.8027 0.40055 0.0
C2063 C 0.01769 0.78002 0.38812 0.0
H2064 H 0.74903 0.90898 0.40024 0.0
H2065 H 0.76348 0.70418 0.39126 0.0
H2066 H 0.76281 0.73316 0.36869 0.0
H2067 H 0.76031 0.81758 0.35135 0.0
H2068 H 0.74661 0.02234 0.36055 0.0
H2069 H 0.7446 0.99207 0.383 0.0
C2070 C 0.7519 0.87055 0.39337 0.0
C2071 C 0.75643 0.80465 0.39754 0.0
C2072 C 0.75167 0.88743 0.38034 0.0
C2073 C 0.76004 0.75556 0.38841 0.0
C2074 C 0.75966 0.77196 0.37545 0.0
C2075 C 0.7566 0.85537 0.35826 0.0
C2076 C 0.75387 0.9221 0.35423 0.0
C2077 C 0.75577 0.83788 0.37128 0.0
C2078 C 0.74911 0.97054 0.36334 0.0
C2079 C 0.74793 0.9534 0.37623 0.0
H2080 H 0.9919 0.73859 0.14261 0.0
H2081 H 0.99121 0.5357 0.15707 0.0
H2082 H 0.98948 0.49608 0.13537 0.0
H2083 H 0.99026 0.51875 0.11247 0.0
H2084 H 0.99132 0.72149 0.09795 0.0
H2085 H 0.99062 0.76136 0.11965 0.0
C2086 C 0.99126 0.6856 0.14107 0.0
C2087 C 0.99188 0.6402 0.15152 0.0
C2088 C 0.99037 0.66315 0.12859 0.0
C2089 C 0.99081 0.57182 0.14926 0.0
C2090 C 0.98987 0.54911 0.13684 0.0
C2091 C 0.99022 0.57179 0.11398 0.0
C2092 C 0.99105 0.61705 0.10353 0.0
C2093 C 0.98997 0.59432 0.12646 0.0
C2094 C 0.99074 0.68548 0.10577 0.0
C2095 C 0.99041 0.70832 0.11819 0.0
H2096 H 0.26067 0.51493 0.14279 0.0
H2097 H 0.25799 0.71193 0.15796 0.0
H2098 H 0.25888 0.76013 0.13642 0.0
H2099 H 0.25759 0.74598 0.11341 0.0
H2100 H 0.25967 0.54865 0.09834 0.0
H2101 H 0.26195 0.50098 0.11986 0.0
C2102 C 0.26042 0.56851 0.14144 0.0
C2103 C 0.25898 0.60973 0.15201 0.0
C2104 C 0.26071 0.59578 0.12907 0.0
C2105 C 0.25901 0.67899 0.15002 0.0
C2106 C 0.25944 0.70658 0.13771 0.0
C2107 C 0.25868 0.69249 0.11479 0.0
C2108 C 0.25819 0.65097 0.10423 0.0
C2109 C 0.25983 0.66537 0.12717 0.0
C2110 C 0.2599 0.58185 0.10625 0.0
C2111 C 0.26116 0.55451 0.11857 0.0
H2112 H 0.02055 0.25647 0.86318 0.0
H2113 H 0.02084 0.45875 0.84838 0.0
H2114 H 0.02173 0.49948 0.86998 0.0
H2115 H 0.02005 0.47798 0.89291 0.0
H2116 H 0.01936 0.27595 0.9078 0.0
H2117 H 0.02116 0.23494 0.8862 0.0
C2118 C 0.02098 0.30956 0.86463 0.0
C2119 C 0.02044 0.35444 0.8541 0.0
C2120 C 0.02132 0.3327 0.87707 0.0
C2121 C 0.02118 0.42298 0.85625 0.0
C2122 C 0.02163 0.44635 0.86861 0.0
C2123 C 0.0204 0.42486 0.89149 0.0
C2124 C 0.01933 0.38013 0.90202 0.0
C2125 C 0.02131 0.40167 0.87908 0.0
C2126 C 0.0201 0.31157 0.89992 0.0
C2127 C 0.02107 0.28807 0.88756 0.0
H2128 H 0.7564 0.23657 0.89256 0.0
H2129 H 0.75012 0.43517 0.90678 0.0
H2130 H 0.74707 0.47999 0.88506 0.0
H2131 H 0.74826 0.46355 0.86224 0.0
H2132 H 0.75519 0.26559 0.84781 0.0
H2133 H 0.75559 0.2197 0.86957 0.0
C2134 C 0.75426 0.28972 0.89096 0.0
C2135 C 0.75369 0.33246 0.90136 0.0
C2136 C 0.75261 0.31523 0.87844 0.0
C2137 C 0.7507 0.40107 0.89902 0.0
C2138 C 0.74897 0.42677 0.88659 0.0
C2139 C 0.74974 0.41021 0.86377 0.0
C2140 C 0.75192 0.36812 0.85334 0.0
C2141 C 0.75022 0.38437 0.87626 0.0
C2142 C 0.75352 0.29919 0.85562 0.0
C2143 C 0.75385 0.27296 0.86807 0.0
H2144 H 0.34882 0.76261 0.08034 0.0
H2145 H 0.30801 0.95139 0.08024 0.0
H2146 H 0.35076 0.00915 0.08058 0.0
H2147 H 0.39943 0.00605 0.08065 0.0
H2148 H 0.44037 0.81752 0.08051 0.0
H2149 H 0.39761 0.75952 0.08056 0.0
C2150 C 0.3492 0.81642 0.08046 0.0
C2151 C 0.32519 0.85262 0.08031 0.0
C2152 C 0.37381 0.84927 0.08062 0.0
C2153 C 0.32615 0.9223 0.08038 0.0
C2154 C 0.35059 0.95535 0.08057 0.0
C2155 C 0.3991 0.95221 0.0807 0.0
C2156 C 0.42313 0.91616 0.08063 0.0
C2157 C 0.37451 0.91932 0.08067 0.0
C2158 C 0.42221 0.84647 0.08061 0.0
C2159 C 0.39776 0.81331 0.08062 0.0
H2160 H 0.84322 0.28552 0.0811 0.0
H2161 H 0.80551 0.47808 0.07822 0.0
H2162 H 0.8493 0.53145 0.07789 0.0
H2163 H 0.89805 0.52297 0.07831 0.0
H2164 H 0.93545 0.32988 0.08082 0.0
H2165 H 0.89169 0.27697 0.08139 0.0
C2166 C 0.84446 0.33926 0.08046 0.0
C2167 C 0.82105 0.37782 0.07976 0.0
C2168 C 0.86959 0.36936 0.0802 0.0
C2169 C 0.82317 0.44728 0.07881 0.0
C2170 C 0.8482 0.47775 0.07862 0.0
C2171 C 0.8967 0.46927 0.07905 0.0
C2172 C 0.92005 0.4304 0.0796 0.0
C2173 C 0.87151 0.43923 0.07931 0.0
C2174 C 0.91784 0.36094 0.08042 0.0
C2175 C 0.89284 0.33068 0.08074 0.0
H2176 H 0.40285 0.25905 0.17482 0.0
H2177 H 0.44241 0.44935 0.17431 0.0
H2178 H 0.39919 0.50549 0.1744 0.0
H2179 H 0.3504 0.50016 0.17497 0.0
H2180 H 0.31111 0.30946 0.17561 0.0
H2181 H 0.35428 0.25371 0.17512 0.0
C2182 C 0.40213 0.31288 0.17466 0.0
C2183 C 0.4259 0.34998 0.17452 0.0
C2184 C 0.3773 0.34465 0.17476 0.0
C2185 C 0.42446 0.41962 0.17438 0.0
C2186 C 0.39976 0.4517 0.17445 0.0
C2187 C 0.3512 0.44637 0.17494 0.0
C2188 C 0.32748 0.40903 0.17529 0.0
C2189 C 0.37607 0.41467 0.17468 0.0
C2190 C 0.329 0.33941 0.17531 0.0
C2191 C 0.35368 0.30751 0.17504 0.0
H2192 H 0.8451 0.9728 0.17511 0.0
H2193 H 0.80695 0.78072 0.17658 0.0
H2194 H 0.85063 0.72658 0.1766 0.0
H2195 H 0.89941 0.73431 0.17632 0.0
H2196 H 0.93716 0.92696 0.17517 0.0
H2197 H 0.89353 0.98059 0.17491 0.0
C2198 C 0.8462 0.91901 0.17538 0.0
C2199 C 0.82273 0.8808 0.17577 0.0
C2200 C 0.87125 0.88847 0.17545 0.0
C2201 C 0.82468 0.81124 0.17623 0.0
C2202 C 0.84964 0.78034 0.17624 0.0
C2203 C 0.89816 0.78807 0.17594 0.0
C2204 C 0.92157 0.82662 0.17569 0.0
C2205 C 0.87303 0.81853 0.17585 0.0
C2206 C 0.9195 0.89615 0.17533 0.0
C2207 C 0.89456 0.92682 0.17518 0.0
H2208 H 0.66309 0.23164 0.92559 0.0
H2209 H 0.70069 0.03873 0.92591 0.0
H2210 H 0.65695 0.98554 0.92565 0.0
H2211 H 0.60838 0.994 0.92552 0.0
H2212 H 0.57072 0.1868 0.92551 0.0
H2213 H 0.61448 0.24009 0.92545 0.0
C2214 C 0.66181 0.1779 0.92553 0.0
C2215 C 0.68519 0.13916 0.92571 0.0
C2216 C 0.63667 0.14779 0.92544 0.0
C2217 C 0.68306 0.06967 0.92574 0.0
C2218 C 0.65806 0.03928 0.9256 0.0
C2219 C 0.60964 0.04776 0.92544 0.0
C2220 C 0.58625 0.08642 0.92546 0.0
C2221 C 0.63477 0.07789 0.92546 0.0
C2222 C 0.58837 0.15592 0.92546 0.0
C2223 C 0.61337 0.18636 0.92543 0.0
H2224 H 0.16177 0.72808 0.92586 0.0
H2225 H 0.20236 0.53895 0.92692 0.0
H2226 H 0.15948 0.48149 0.9266 0.0
H2227 H 0.1107 0.48522 0.92621 0.0
H2228 H 0.07027 0.67457 0.92536 0.0
H2229 H 0.11313 0.73184 0.92538 0.0
C2230 C 0.16134 0.67423 0.92596 0.0
C2231 C 0.18531 0.63784 0.92636 0.0
C2232 C 0.1367 0.64167 0.92581 0.0
C2233 C 0.18425 0.56815 0.92658 0.0
C2234 C 0.15975 0.5353 0.9264 0.0
C2235 C 0.11119 0.53907 0.92595 0.0
C2236 C 0.08725 0.57558 0.92573 0.0
C2237 C 0.13587 0.5716 0.92603 0.0
C2238 C 0.08835 0.64527 0.9255 0.0
C2239 C 0.11285 0.67803 0.92552 0.0
H2240 H 0.58123 0.58801 0.82954 0.0
H2241 H 0.61206 0.78813 0.82916 0.0
H2242 H 0.65729 0.74614 0.82926 0.0
H2243 H 0.68874 0.65292 0.82919 0.0
H2244 H 0.65835 0.45252 0.82947 0.0
H2245 H 0.61291 0.49421 0.8297 0.0
C2246 C 0.59784 0.62232 0.82953 0.0
C2247 C 0.59303 0.69109 0.82938 0.0
C2248 C 0.62416 0.59788 0.82956 0.0
C2249 C 0.61493 0.73483 0.82932 0.0
C2250 C 0.64098 0.71095 0.82936 0.0
C2251 C 0.67219 0.61838 0.82934 0.0
C2252 C 0.67712 0.54975 0.82935 0.0
C2253 C 0.6459 0.64261 0.82945 0.0
C2254 C 0.65531 0.50575 0.82951 0.0
C2255 C 0.62918 0.52948 0.82962 0.0
H2256 H 0.11439 0.24472 0.82932 0.0
H2257 H 0.07055 0.06033 0.82926 0.0
H2258 H 0.11221 0.9981 0.82942 0.0
H2259 H 0.16064 0.9956 0.82942 0.0
H2260 H 0.20529 0.17863 0.82929 0.0
H2261 H 0.16357 0.24193 0.8294 0.0
C2262 C 0.11391 0.19089 0.82941 0.0
C2263 C 0.08926 0.1573 0.82932 0.0
C2264 C 0.13803 0.15523 0.82947 0.0
C2265 C 0.08913 0.08755 0.82934 0.0
C2266 C 0.11297 0.05188 0.82944 0.0
C2267 C 0.16142 0.04939 0.82947 0.0
C2268 C 0.18618 0.08228 0.8294 0.0
C2269 C 0.13748 0.08518 0.82949 0.0
C2270 C 0.18657 0.15201 0.82938 0.0
C2271 C 0.16271 0.18818 0.82944 0.0
H2272 H 0.42966 0.34919 0.57945 0.0
H2273 H 0.39978 0.55024 0.57889 0.0
H2274 H 0.35425 0.50946 0.57864 0.0
H2275 H 0.32242 0.4166 0.57847 0.0
H2276 H 0.35239 0.2156 0.57924 0.0
H2277 H 0.39787 0.25643 0.57952 0.0
C2278 C 0.41319 0.38402 0.57931 0.0
C2279 C 0.41828 0.4526 0.57923 0.0
C2280 C 0.38684 0.3603 0.5792 0.0
C2281 C 0.3966 0.49705 0.57902 0.0
C2282 C 0.37043 0.47385 0.57885 0.0
C2283 C 0.3389 0.38181 0.57872 0.0
C2284 C 0.33384 0.3132 0.57887 0.0
C2285 C 0.36526 0.40556 0.57893 0.0
C2286 C 0.35553 0.26879 0.57918 0.0
C2287 C 0.38168 0.29202 0.57932 0.0
H2288 H 0.82247 0.90797 0.5768 0.0
H2289 H 0.85489 0.70938 0.57842 0.0
H2290 H 0.89988 0.75388 0.57878 0.0
H2291 H 0.93047 0.84928 0.5785 0.0
H2292 H 0.898 0.04784 0.57701 0.0
H2293 H 0.85304 0.00331 0.57675 0.0
C2294 C 0.83937 0.87447 0.57725 0.0
C2295 C 0.83517 0.80547 0.57762 0.0
C2296 C 0.86539 0.90035 0.57749 0.0
C2297 C 0.85739 0.7628 0.5782 0.0
C2298 C 0.88324 0.78815 0.57838 0.0
C2299 C 0.91356 0.88276 0.57815 0.0
C2300 C 0.91776 0.95177 0.57781 0.0
C2301 C 0.88753 0.85686 0.57802 0.0
C2302 C 0.89551 0.99442 0.57734 0.0
C2303 C 0.86967 0.96905 0.57716 0.0
H2304 H 0.42845 0.92561 0.67712 0.0
H2305 H 0.4006 0.72382 0.67419 0.0
H2306 H 0.35473 0.76136 0.67494 0.0
H2307 H 0.322 0.85123 0.67675 0.0
H2308 H 0.34979 0.053 0.67976 0.0
H2309 H 0.39568 0.0157 0.67867 0.0
C2310 C 0.41234 0.88999 0.67656 0.0
C2311 C 0.41811 0.82214 0.67557 0.0
C2312 C 0.38576 0.91177 0.67706 0.0
C2313 C 0.3969 0.77655 0.67493 0.0
C2314 C 0.37053 0.79784 0.67539 0.0
C2315 C 0.3381 0.88696 0.67716 0.0
C2316 C 0.33233 0.95469 0.67831 0.0
C2317 C 0.36467 0.8653 0.67651 0.0
C2318 C 0.35351 0.0004 0.67882 0.0
C2319 C 0.37989 0.97922 0.67821 0.0
H2320 H 0.84688 0.49465 0.67652 0.0
H2321 H 0.80631 0.30577 0.67631 0.0
H2322 H 0.8492 0.24828 0.67578 0.0
H2323 H 0.89803 0.25197 0.67552 0.0
H2324 H 0.93834 0.44122 0.67594 0.0
H2325 H 0.89547 0.4984 0.67622 0.0
C2326 C 0.84731 0.44086 0.6763 0.0
C2327 C 0.82336 0.40455 0.6764 0.0
C2328 C 0.87195 0.40831 0.67603 0.0
C2329 C 0.82441 0.33491 0.67621 0.0
C2330 C 0.84893 0.30206 0.67591 0.0
C2331 C 0.8975 0.30578 0.6756 0.0
C2332 C 0.92141 0.34229 0.67565 0.0
C2333 C 0.8728 0.3383 0.67582 0.0
C2334 C 0.92028 0.41192 0.67587 0.0
C2335 C 0.89577 0.44464 0.67604 0.0
H2336 H 0.60804 0.48068 0.42732 0.0
H2337 H 0.57031 0.67273 0.42301 0.0
H2338 H 0.61396 0.72611 0.42217 0.0
H2339 H 0.66251 0.71837 0.42277 0.0
H2340 H 0.70052 0.52694 0.42754 0.0
H2341 H 0.65685 0.47304 0.42805 0.0
C2342 C 0.60931 0.53423 0.42613 0.0
C2343 C 0.58587 0.57264 0.42515 0.0
C2344 C 0.63446 0.56461 0.42573 0.0
C2345 C 0.58797 0.64198 0.42375 0.0
C2346 C 0.61293 0.67252 0.42327 0.0
C2347 C 0.66136 0.66476 0.42386 0.0
C2348 C 0.68484 0.62669 0.42504 0.0
C2349 C 0.63626 0.63432 0.42425 0.0
C2350 C 0.68281 0.55739 0.42657 0.0
C2351 C 0.65785 0.5266 0.42687 0.0
H2352 H 0.07659 0.15534 0.42705 0.0
H2353 H 0.10973 0.95748 0.42718 0.0
H2354 H 0.15451 0.00275 0.42756 0.0
H2355 H 0.18474 0.09831 0.42803 0.0
H2356 H 0.1519 0.2964 0.42777 0.0
H2357 H 0.10698 0.25133 0.42725 0.0
C2358 C 0.09361 0.12221 0.42711 0.0
C2359 C 0.08964 0.05315 0.42705 0.0
C2360 C 0.11957 0.14855 0.42732 0.0
C2361 C 0.11202 0.01094 0.42717 0.0
C2362 C 0.13777 0.03671 0.42741 0.0
C2363 C 0.16777 0.1316 0.42784 0.0
C2364 C 0.17181 0.20058 0.42791 0.0
C2365 C 0.14183 0.10542 0.42751 0.0
C2366 C 0.1495 0.24299 0.42766 0.0
C2367 C 0.1237 0.2173 0.42738 0.0
H2368 H 0.66439 0.01157 0.32974 0.0
H2369 H 0.70084 0.2055 0.32697 0.0
H2370 H 0.65687 0.25748 0.32796 0.0
H2371 H 0.60839 0.24751 0.32949 0.0
H2372 H 0.57204 0.05337 0.33203 0.0
H2373 H 0.61603 0.0016 0.33129 0.0
C2374 C 0.66284 0.0653 0.3294 0.0
C2375 C 0.68595 0.10466 0.32834 0.0
C2376 C 0.63759 0.09466 0.32995 0.0
C2377 C 0.68343 0.1741 0.32782 0.0
C2378 C 0.6583 0.20378 0.32839 0.0
C2379 C 0.61 0.19381 0.32996 0.0
C2380 C 0.58689 0.15432 0.33088 0.0
C2381 C 0.63528 0.16449 0.32946 0.0
C2382 C 0.58946 0.08489 0.33136 0.0
C2383 C 0.6146 0.0553 0.33093 0.0
H2384 H 0.16136 0.50464 0.32896 0.0
H2385 H 0.20161 0.69401 0.32901 0.0
H2386 H 0.15865 0.75098 0.32978 0.0
H2387 H 0.10994 0.74679 0.33031 0.0
H2388 H 0.06976 0.55736 0.32999 0.0
H2389 H 0.11272 0.50044 0.3295 0.0
C2390 C 0.16084 0.55842 0.32919 0.0
C2391 C 0.18472 0.59504 0.32898 0.0
C2392 C 0.13615 0.59072 0.3296 0.0
C2393 C 0.18356 0.66465 0.32919 0.0
C2394 C 0.15901 0.69721 0.32963 0.0
C2395 C 0.1105 0.69299 0.33021 0.0
C2396 C 0.08662 0.65634 0.33025 0.0
C2397 C 0.13521 0.6607 0.32984 0.0
C2398 C 0.08781 0.58673 0.33 0.0
C2399 C 0.11236 0.55419 0.32971 0.0
H2400 H 0.52809 0.96086 0.02486 0.0
H2401 H 0.48103 0.13954 0.02047 0.0
H2402 H 0.47252 0.11468 0.99823 0.0
H2403 H 0.47816 0.04217 0.98014 0.0
H2404 H 0.52529 0.86359 0.98445 0.0
H2405 H 0.53371 0.88816 0.00674 0.0
C2406 C 0.51608 0.99468 0.01904 0.0
C2407 C 0.50533 0.05226 0.02435 0.0
C2408 C 0.51104 0.97973 0.0063 0.0
C2409 C 0.48964 0.09507 0.01665 0.0
C2410 C 0.48469 0.08076 0.00394 0.0
C2411 C 0.49016 0.00825 0.98595 0.0
C2412 C 0.50097 0.95084 0.98061 0.0
C2413 C 0.49518 0.02309 0.99869 0.0
C2414 C 0.51663 0.90792 0.9883 0.0
C2415 C 0.52154 0.92209 1.00103 0.0
H2416 H 0.77134 0.17066 0.02465 0.0
H2417 H 0.70315 0.30116 0.02468 0.0
H2418 H 0.71076 0.33204 1.00252 0.0
H2419 H 0.73693 0.32359 0.98309 0.0
H2420 H 0.80487 0.19253 0.98279 0.0
H2421 H 0.79729 0.161 0.005 0.0
C2422 C 0.75798 0.20522 0.01976 0.0
C2423 C 0.73666 0.23319 0.02634 0.0
C2424 C 0.76258 0.22347 0.00696 0.0
C2425 C 0.7197 0.27855 0.01987 0.0
C2426 C 0.72408 0.2966 0.00718 0.0
C2427 C 0.75024 0.28861 0.98791 0.0
C2428 C 0.77156 0.261 0.98129 0.0
C2429 C 0.74557 0.26986 1.00065 0.0
C2430 C 0.78837 0.21495 0.98766 0.0
C2431 C 0.784 0.19659 1.00037 0.0
H2432 H 0.48472 0.16477 0.23475 0.0
H2433 H 0.54993 0.30082 0.22843 0.0
H2434 H 0.54694 0.33708 0.25023 0.0
H2435 H 0.5258 0.33076 0.27124 0.0
H2436 H 0.46062 0.19455 0.27753 0.0
H2437 H 0.46357 0.15855 0.25572 0.0
C2438 C 0.49842 0.20191 0.23818 0.0
C2439 C 0.5176 0.22955 0.22995 0.0
C2440 C 0.49648 0.22321 0.25075 0.0
C2441 C 0.53501 0.27826 0.23454 0.0
C2442 C 0.53328 0.29936 0.24702 0.0
C2443 C 0.51209 0.29369 0.2678 0.0
C2444 C 0.49295 0.26584 0.27603 0.0
C2445 C 0.51402 0.27247 0.25522 0.0
C2446 C 0.47553 0.2172 0.27143 0.0
C2447 C 0.47723 0.19626 0.25894 0.0
H2448 H 0.77421 0.07091 0.23148 0.0
H2449 H 0.70239 0.95377 0.2306 0.0
H2450 H 0.70978 0.91713 0.25258 0.0
H2451 H 0.73669 0.91775 0.27217 0.0
H2452 H 0.8085 0.03499 0.27301 0.0
H2453 H 0.80118 0.07123 0.25102 0.0
C2454 C 0.76002 0.03802 0.23614 0.0
C2455 C 0.73769 0.01566 0.2294 0.0
C2456 C 0.76455 0.01625 0.24878 0.0
C2457 C 0.7197 0.97218 0.23556 0.0
C2458 C 0.72396 0.95081 0.24814 0.0
C2459 C 0.75091 0.95051 0.26748 0.0
C2460 C 0.77318 0.97314 0.27423 0.0
C2461 C 0.74641 0.97211 0.25483 0.0
C2462 C 0.79121 0.01645 0.26805 0.0
C2463 C 0.787 0.03758 0.25547 0.0
H2464 H 0.23879 0.83415 0.98271 0.0
H2465 H 0.3056 0.69983 0.98113 0.0
H2466 H 0.29785 0.66327 0.00303 0.0
H2467 H 0.27191 0.66829 0.02261 0.0
H2468 H 0.20518 0.80277 0.02426 0.0
H2469 H 0.21298 0.83967 1.00236 0.0
C2470 C 0.25184 0.79744 0.9872 0.0
C2471 C 0.27282 0.77016 0.9803 0.0
C2472 C 0.24711 0.77591 0.99978 0.0
C2473 C 0.28935 0.72201 0.98623 0.0
C2474 C 0.28488 0.70073 0.99875 0.0
C2475 C 0.25891 0.70517 0.01814 0.0
C2476 C 0.23788 0.73227 0.02504 0.0
C2477 C 0.26369 0.72692 0.00558 0.0
C2478 C 0.22144 0.78071 0.01915 0.0
C2479 C 0.22594 0.80216 0.00664 0.0
H2480 H 0.48431 0.67195 0.73533 0.0
H2481 H 0.55101 0.80163 0.72772 0.0
H2482 H 0.54856 0.844 0.74906 0.0
H2483 H 0.52726 0.84605 0.76995 0.0
H2484 H 0.46072 0.71625 0.77776 0.0
H2485 H 0.46328 0.67304 0.75643 0.0
C2486 C 0.4985 0.70883 0.73841 0.0
C2487 C 0.51785 0.73317 0.7299 0.0
C2488 C 0.49686 0.73386 0.75075 0.0
C2489 C 0.53589 0.78169 0.73403 0.0
C2490 C 0.53448 0.80634 0.74625 0.0
C2491 C 0.51317 0.80878 0.76695 0.0
C2492 C 0.49373 0.78502 0.77545 0.0
C2493 C 0.51491 0.78331 0.75467 0.0
C2494 C 0.47584 0.73595 0.77142 0.0
C2495 C 0.47733 0.71083 0.75921 0.0
H2496 H 0.27062 0.08923 0.73493 0.0
H2497 H 0.19641 0.98365 0.73128 0.0
H2498 H 0.20268 0.93247 0.75231 0.0
H2499 H 0.2299 0.91428 0.77146 0.0
H2500 H 0.30431 0.01908 0.77518 0.0
H2501 H 0.29746 0.07293 0.75441 0.0
C2502 C 0.25562 0.05599 0.73885 0.0
C2503 C 0.23305 0.04057 0.73158 0.0
C2504 C 0.2596 0.02544 0.75088 0.0
C2505 C 0.21396 0.99654 0.7367 0.0
C2506 C 0.21759 0.96683 0.7487 0.0
C2507 C 0.24473 0.94844 0.76769 0.0
C2508 C 0.26766 0.96204 0.77484 0.0
C2509 C 0.24054 0.98004 0.75579 0.0
C2510 C 0.28653 0.00716 0.76985 0.0
C2511 C 0.28257 0.03842 0.75799 0.0
H2512 H 0.47907 0.54958 0.48038 0.0
H2513 H 0.52123 0.36389 0.48561 0.0
H2514 H 0.53108 0.3909 0.50763 0.0
H2515 H 0.52817 0.46735 0.52523 0.0
H2516 H 0.48594 0.65299 0.52013 0.0
H2517 H 0.47608 0.62619 0.49806 0.0
C2518 C 0.49029 0.51471 0.48633 0.0
C2519 C 0.4993 0.45453 0.48133 0.0
C2520 C 0.49615 0.53091 0.49894 0.0
C2521 C 0.51397 0.41035 0.4892 0.0
C2522 C 0.5197 0.4259 0.50178 0.0
C2523 C 0.51691 0.50231 0.51931 0.0
C2524 C 0.50792 0.56238 0.52434 0.0
C2525 C 0.51103 0.48618 0.50671 0.0
C2526 C 0.49322 0.60663 0.5165 0.0
C2527 C 0.48748 0.59117 0.5039 0.0
H2528 H 0.72693 0.77705 0.52122 0.0
H2529 H 0.77262 0.59534 0.52127 0.0
H2530 H 0.78536 0.61832 0.49926 0.0
H2531 H 0.78421 0.69035 0.48024 0.0
H2532 H 0.73778 0.87075 0.47976 0.0
H2533 H 0.7251 0.84848 0.50189 0.0
C2534 C 0.73952 0.74212 0.51641 0.0
C2535 C 0.74872 0.68434 0.52291 0.0
C2536 C 0.74694 0.75588 0.50376 0.0
C2537 C 0.76514 0.63998 0.51651 0.0
C2538 C 0.77255 0.65325 0.50393 0.0
C2539 C 0.77138 0.7251 0.48494 0.0
C2540 C 0.76207 0.78239 0.47834 0.0
C2541 C 0.76374 0.71125 0.49752 0.0
C2542 C 0.74534 0.8265 0.48463 0.0
C2543 C 0.73799 0.81359 0.49726 0.0
H2544 H 0.7364 0.40686 0.77145 0.0
H2545 H 0.80582 0.5312 0.77484 0.0
H2546 H 0.79838 0.57675 0.75344 0.0
H2547 H 0.77193 0.58245 0.73372 0.0
H2548 H 0.70224 0.4588 0.73043 0.0
H2549 H 0.70988 0.41276 0.75175 0.0
C2550 C 0.75008 0.44324 0.76744 0.0
C2551 C 0.77173 0.46509 0.77472 0.0
C2552 C 0.74545 0.47027 0.75516 0.0
C2553 C 0.78904 0.51316 0.76943 0.0
C2554 C 0.78475 0.53959 0.7572 0.0
C2555 C 0.75824 0.54605 0.73773 0.0
C2556 C 0.73646 0.52463 0.73048 0.0
C2557 C 0.76288 0.519 0.75 0.0
C2558 C 0.71912 0.47665 0.73579 0.0
C2559 C 0.72353 0.44987 0.74799 0.0
H2560 H 0.28051 0.21934 0.4825 0.0
H2561 H 0.23724 0.40369 0.48515 0.0
H2562 H 0.22434 0.37308 0.50688 0.0
H2563 H 0.22473 0.2935 0.52484 0.0
H2564 H 0.26813 0.10932 0.52227 0.0
H2565 H 0.28097 0.13976 0.50052 0.0
C2566 C 0.26838 0.25315 0.48783 0.0
C2567 C 0.25992 0.31391 0.4822 0.0
C2568 C 0.26069 0.23476 0.50021 0.0
C2569 C 0.24413 0.35683 0.48926 0.0
C2570 C 0.23661 0.33917 0.50165 0.0
C2571 C 0.23689 0.25967 0.51953 0.0
C2572 C 0.24538 0.19902 0.52518 0.0
C2573 C 0.24459 0.27804 0.50716 0.0
C2574 C 0.26121 0.1561 0.51814 0.0
C2575 C 0.26869 0.17367 0.50573 0.0
H2576 H 0.23838 0.40767 0.2723 0.0
H2577 H 0.30704 0.53531 0.27509 0.0
H2578 H 0.29968 0.57657 0.2534 0.0
H2579 H 0.27352 0.57776 0.23367 0.0
H2580 H 0.20501 0.44984 0.23078 0.0
H2581 H 0.21242 0.40815 0.25246 0.0
C2582 C 0.25192 0.44388 0.26811 0.0
C2583 C 0.27329 0.46797 0.2753 0.0
C2584 C 0.24742 0.46818 0.25565 0.0
C2585 C 0.29047 0.51556 0.26976 0.0
C2586 C 0.28622 0.53956 0.25737 0.0
C2587 C 0.26005 0.54131 0.23783 0.0
C2588 C 0.23864 0.51744 0.23064 0.0
C2589 C 0.26463 0.5167 0.25025 0.0
C2590 C 0.22158 0.46943 0.23612 0.0
C2591 C 0.22586 0.44523 0.24851 0.0
H2592 H 0.97934 0.03325 0.48023 0.0
H2593 H 0.02528 0.85408 0.48663 0.0
H2594 H 0.03509 0.8873 0.50834 0.0
H2595 H 0.0311 0.9676 0.52528 0.0
H2596 H 0.98524 0.1469 0.51885 0.0
H2597 H 0.97546 0.11372 0.49715 0.0
C2598 C 0.99141 0.00113 0.48636 0.0
C2599 C 1.00147 0.94098 0.48179 0.0
C2600 C 0.9973 0.02103 0.49873 0.0
C2601 C 0.01718 0.90038 0.4899 0.0
C2602 C 0.0229 0.91954 0.50229 0.0
C2603 C 0.01907 -0.00022 0.51914 0.0
C2604 C 0.009 0.05992 0.52371 0.0
C2605 C 0.01321 0.97994 0.50676 0.0
C2606 C 0.99335 0.10061 0.51559 0.0
C2607 C 0.98764 0.08146 0.5032 0.0
H2608 H 0.02929 0.29304 0.73029 0.0
H2609 H 0.98335 0.11261 0.73407 0.0
H2610 H 0.97485 0.13587 0.75635 0.0
H2611 H 0.98014 0.20782 0.77462 0.0
H2612 H 0.02598 0.38841 0.77077 0.0
H2613 H 0.03447 0.36504 0.7485 0.0
C2614 C 0.01752 0.25847 0.73597 0.0
C2615 C 0.00708 0.2009 0.7305 0.0
C2616 C 0.01244 0.27258 0.74871 0.0
C2617 C 0.99172 0.15709 0.73803 0.0
C2618 C 0.98677 0.17051 0.75076 0.0
C2619 C 0.99187 0.2424 0.76892 0.0
C2620 C 1.00231 0.30004 0.77438 0.0
C2621 C 0.99691 0.22829 0.75617 0.0
C2622 C 0.01762 0.34387 0.76682 0.0
C2623 C 0.02256 0.33039 0.7541 0.0
H2624 H 0.03087 0.78768 0.23089 0.0
H2625 H 0.98449 0.60804 0.23493 0.0
H2626 H 0.97585 0.63263 0.25713 0.0
H2627 H 0.98101 0.70554 0.27522 0.0
H2628 H 0.02757 0.88489 0.27124 0.0
H2629 H 0.03623 0.86034 0.24903 0.0
C2630 C 0.01899 0.75355 0.23662 0.0
C2631 C 0.00844 0.69584 0.23123 0.0
C2632 C 0.01388 0.76835 0.24932 0.0
C2633 C 0.99295 0.6526 0.23882 0.0
C2634 C 0.98791 0.66679 0.25151 0.0
C2635 C 0.99296 0.73958 0.26951 0.0
C2636 C 1.00352 0.79725 0.2749 0.0
C2637 C 0.99814 0.72471 0.25682 0.0
C2638 C 0.01911 0.84036 0.26733 0.0
C2639 C 0.02415 0.8262 0.25465 0.0
H2640 H 0.98006 0.53644 0.98019 0.0
H2641 H 0.02681 0.35792 0.9857 0.0
H2642 H 0.03537 0.38661 0.00776 0.0
H2643 H 0.02998 0.46264 0.0253 0.0
H2644 H 0.98328 0.64128 0.01982 0.0
H2645 H 0.97472 0.61265 0.99775 0.0
C2646 C 0.99202 0.50348 0.98621 0.0
C2647 C 1.00268 0.44485 0.98128 0.0
C2648 C 0.99714 0.52072 0.99881 0.0
C2649 C 0.01828 0.40314 0.98923 0.0
C2650 C 0.02327 0.41967 1.00184 0.0
C2651 C 0.01803 0.49568 0.01929 0.0
C2652 C 0.00738 0.55429 0.02423 0.0
C2653 C 0.01293 0.47851 0.00669 0.0
C2654 C 0.99182 0.59609 0.01628 0.0
C2655 C 0.98682 0.57958 0.00367 0.0
H2656 H 0.56999 0.19374 0.06789 0.0
H2657 H 0.59181 0.9868 0.07173 0.0
H2658 H 0.63884 0.01766 0.07251 0.0
H2659 H 0.67358 0.10304 0.07191 0.0
H2660 H 0.65178 0.31027 0.0691 0.0
H2661 H 0.60471 0.27947 0.06821 0.0
C2662 C 0.58499 0.15523 0.06885 0.0
C2663 C 0.57733 0.08787 0.06962 0.0
C2664 C 0.61194 0.1734 0.06953 0.0
C2665 C 0.5971 0.03888 0.07108 0.0
C2666 C 0.624 0.05653 0.07152 0.0
C2667 C 0.65858 0.14164 0.07109 0.0
C2668 C 0.66628 0.20899 0.07046 0.0
C2669 C 0.63162 0.12359 0.07073 0.0
C2670 C 0.64647 0.25817 0.0696 0.0
C2671 C 0.61956 0.24054 0.06905 0.0
H2672 H 0.57259 0.07385 0.18556 0.0
H2673 H 0.59613 0.27961 0.18223 0.0
H2674 H 0.64294 0.24605 0.18176 0.0
H2675 H 0.67693 0.15859 0.18285 0.0
H2676 H 0.65331 0.95266 0.18525 0.0
H2677 H 0.60648 0.98617 0.18546 0.0
C2678 C 0.58792 0.11151 0.18475 0.0
C2679 C 0.58085 0.17931 0.18408 0.0
C2680 C 0.61467 0.0918 0.18431 0.0
C2681 C 0.601 0.22722 0.18279 0.0
C2682 C 0.62775 0.20802 0.18255 0.0
C2683 C 0.66158 0.12088 0.18343 0.0
C2684 C 0.66866 0.0531 0.18418 0.0
C2685 C 0.63478 0.1405 0.1834 0.0
C2686 C 0.64844 0.00504 0.18468 0.0
C2687 C 0.62169 0.02423 0.18484 0.0
H2688 H 0.43682 0.81869 0.93552 0.0
H2689 H 0.41634 0.02689 0.93475 0.0
H2690 H 0.36902 0.99819 0.93453 0.0
H2691 H 0.33363 0.91396 0.93495 0.0
H2692 H 0.35432 0.70595 0.93471 0.0
H2693 H 0.40156 0.73479 0.93488 0.0
C2694 C 0.42205 0.85795 0.93533 0.0
C2695 C 0.43017 0.92495 0.93529 0.0
C2696 C 0.39496 0.84109 0.93501 0.0
C2697 C 0.41069 0.97501 0.93482 0.0
C2698 C 0.38363 0.95859 0.93471 0.0
C2699 C 0.34844 0.87481 0.93494 0.0
C2700 C 0.34038 0.80774 0.93494 0.0
C2701 C 0.37555 0.8918 0.93488 0.0
C2702 C 0.3599 0.75786 0.93473 0.0
C2703 C 0.38693 0.77434 0.93485 0.0
H2704 H 0.41633 0.74842 0.81705 0.0
H2705 H 0.44562 0.93852 0.82868 0.0
H2706 H 0.40033 0.98136 0.82969 0.0
H2707 H 0.35238 0.96751 0.82607 0.0
H2708 H 0.32298 0.77886 0.81347 0.0
H2709 H 0.36784 0.73357 0.81401 0.0
C2710 C 0.41265 0.79874 0.82 0.0
C2711 C 0.43423 0.84015 0.8228 0.0
C2712 C 0.38643 0.82395 0.82023 0.0
C2713 C 0.42926 0.9057 0.82644 0.0
C2714 C 0.40337 0.9304 0.82699 0.0
C2715 C 0.35574 0.91646 0.82348 0.0
C2716 C 0.33417 0.87724 0.81964 0.0
C2717 C 0.38178 0.89046 0.82368 0.0
C2718 C 0.33909 0.81091 0.81635 0.0
C2719 C 0.36483 0.78457 0.81669 0.0
H2720 H 0.67685 0.5668 0.56814 0.0
H2721 H 0.66365 0.77863 0.56769 0.0
H2722 H 0.61554 0.76013 0.56817 0.0
H2723 H 0.57739 0.68408 0.56843 0.0
H2724 H 0.5905 0.47222 0.56998 0.0
H2725 H 0.63866 0.4906 0.56943 0.0
C2726 C 0.6635 0.60908 0.56811 0.0
C2727 C 0.67396 0.67419 0.56775 0.0
C2728 C 0.63589 0.59803 0.56861 0.0
C2729 C 0.65625 0.72813 0.56793 0.0
C2730 C 0.62872 0.71753 0.56819 0.0
C2731 C 0.59072 0.64174 0.56864 0.0
C2732 C 0.58023 0.57669 0.56912 0.0
C2733 C 0.61834 0.65273 0.56849 0.0
C2734 C 0.59794 0.52268 0.56959 0.0
C2735 C 0.62549 0.53323 0.56924 0.0
H2736 H 0.57283 0.58872 0.68289 0.0
H2737 H 0.5929 0.79639 0.6847 0.0
H2738 H 0.64042 0.76753 0.68497 0.0
H2739 H 0.67586 0.68237 0.68562 0.0
H2740 H 0.65482 0.47522 0.68315 0.0
H2741 H 0.60776 0.50503 0.68227 0.0
C2742 C 0.58753 0.6279 0.68334 0.0
C2743 C 0.57932 0.69463 0.68394 0.0
C2744 C 0.61454 0.61092 0.68345 0.0
C2745 C 0.5987 0.74472 0.68424 0.0
C2746 C 0.62582 0.72813 0.68446 0.0
C2747 C 0.66099 0.64367 0.6849 0.0
C2748 C 0.6689 0.57643 0.6846 0.0
C2749 C 0.63393 0.66127 0.68424 0.0
C2750 C 0.64936 0.52717 0.68344 0.0
C2751 C 0.62243 0.5442 0.68295 0.0
H2752 H 0.42993 0.32203 0.43798 0.0
H2753 H 0.41584 0.53322 0.4346 0.0
H2754 H 0.36785 0.51378 0.43485 0.0
H2755 H 0.33002 0.43726 0.43633 0.0
H2756 H 0.34373 0.22576 0.43855 0.0
H2757 H 0.39187 0.24495 0.43841 0.0
C2758 C 0.41639 0.36391 0.43732 0.0
C2759 C 0.42657 0.42917 0.43639 0.0
C2760 C 0.38879 0.35228 0.43726 0.0
C2761 C 0.40865 0.48262 0.43534 0.0
C2762 C 0.38118 0.4715 0.4355 0.0
C2763 C 0.34348 0.39519 0.43681 0.0
C2764 C 0.3332 0.33006 0.43759 0.0
C2765 C 0.37105 0.40661 0.43652 0.0
C2766 C 0.35104 0.27631 0.43797 0.0
C2767 C 0.37857 0.28731 0.43792 0.0
H2768 H 0.43609 0.41399 0.32097 0.0
H2769 H 0.41541 0.20606 0.32277 0.0
H2770 H 0.36809 0.23538 0.32282 0.0
H2771 H 0.33284 0.32015 0.32172 0.0
H2772 H 0.35389 0.52799 0.32083 0.0
H2773 H 0.40108 0.49843 0.3211 0.0
C2774 C 0.42128 0.37493 0.32137 0.0
C2775 C 0.42928 0.30783 0.32172 0.0
C2776 C 0.39426 0.39217 0.32155 0.0
C2777 C 0.40979 0.258 0.32247 0.0
C2778 C 0.38276 0.27478 0.32246 0.0
C2779 C 0.34773 0.35908 0.32158 0.0
C2780 C 0.33982 0.4263 0.32112 0.0
C2781 C 0.37479 0.3417 0.3219 0.0
C2782 C 0.3594 0.47599 0.32117 0.0
C2783 C 0.38638 0.45909 0.32129 0.0
H2784 H 0.0757 0.19201 0.56797 0.0
H2785 H 0.08992 0.98079 0.57109 0.0
H2786 H 0.13793 0.00085 0.57161 0.0
H2787 H 0.17569 0.07802 0.57073 0.0
H2788 H 0.16155 0.28943 0.56857 0.0
H2789 H 0.11348 0.26949 0.56819 0.0
C2790 C 0.08924 0.15019 0.56875 0.0
C2791 C 0.07912 0.08478 0.56936 0.0
C2792 C 0.11679 0.16217 0.56923 0.0
C2793 C 0.09707 0.03149 0.57058 0.0
C2794 C 0.12454 0.04298 0.57086 0.0
C2795 C 0.16216 0.11993 0.57017 0.0
C2796 C 0.17232 0.18528 0.56954 0.0
C2797 C 0.1346 0.10807 0.57011 0.0
C2798 C 0.15436 0.23875 0.56903 0.0
C2799 C 0.12687 0.22731 0.56878 0.0
H2800 H 0.17437 0.1806 0.68417 0.0
H2801 H 0.15838 0.97019 0.68638 0.0
H2802 H 0.11041 0.99308 0.6864 0.0
H2803 H 0.07331 0.07346 0.68655 0.0
H2804 H 0.09012 0.28357 0.68364 0.0
H2805 H 0.13773 0.25997 0.68321 0.0
C2806 C 0.16046 0.13952 0.68465 0.0
C2807 C 0.16998 0.0737 0.68542 0.0
C2808 C 0.13312 0.15308 0.68461 0.0
C2809 C 0.1516 0.02123 0.68579 0.0
C2810 C 0.1242 0.03438 0.68586 0.0
C2811 C 0.08737 0.11417 0.68584 0.0
C2812 C 0.07809 0.18037 0.68527 0.0
C2813 C 0.11476 0.10018 0.68542 0.0
C2814 C 0.09663 0.23231 0.68414 0.0
C2815 C 0.12387 0.21883 0.6839 0.0
H2816 H 0.93613 0.80228 0.4383 0.0
H2817 H 0.91736 0.01094 0.43424 0.0
H2818 H 0.86982 0.98404 0.43345 0.0
H2819 H 0.83377 0.90119 0.43413 0.0
H2820 H 0.85313 0.69245 0.43719 0.0
H2821 H 0.90047 0.71972 0.43812 0.0
C2822 C 0.92172 0.84214 0.43728 0.0
C2823 C 0.9304 0.90876 0.43646 0.0
C2824 C 0.89456 0.82623 0.43664 0.0
C2825 C 0.91131 0.95938 0.43492 0.0
C2826 C 0.88413 0.94396 0.43449 0.0
C2827 C 0.8483 0.86152 0.43503 0.0
C2828 C 0.83978 0.7947 0.4357 0.0
C2829 C 0.87554 0.87756 0.43539 0.0
C2830 C 0.85901 0.74415 0.43667 0.0
C2831 C 0.88611 0.75976 0.43723 0.0
H2832 H 0.93852 0.93179 0.31842 0.0
H2833 H 0.91768 0.72394 0.32094 0.0
H2834 H 0.87047 0.75339 0.32109 0.0
H2835 H 0.83533 0.83775 0.32021 0.0
H2836 H 0.85605 0.04576 0.31863 0.0
H2837 H 0.90333 0.01643 0.31849 0.0
C2838 C 0.92369 0.89277 0.31897 0.0
C2839 C 0.93169 0.82559 0.31954 0.0
C2840 C 0.89664 0.9101 0.31925 0.0
C2841 C 0.91214 0.77592 0.32045 0.0
C2842 C 0.88514 0.79276 0.32053 0.0
C2843 C 0.85014 0.87686 0.31982 0.0
C2844 C 0.8421 0.94399 0.31931 0.0
C2845 C 0.8772 0.85964 0.31988 0.0
C2846 C 0.86164 0.99381 0.31901 0.0
C2847 C 0.88866 0.97702 0.3189 0.0
H2848 H 0.1746 0.58503 0.06968 0.0
H2849 H 0.15621 0.7942 0.07058 0.0
H2850 H 0.10868 0.76872 0.07029 0.0
H2851 H 0.07252 0.68747 0.06943 0.0
H2852 H 0.09058 0.47798 0.06965 0.0
H2853 H 0.13824 0.50325 0.06989 0.0
C2854 C 0.16021 0.62512 0.0698 0.0
C2855 C 0.169 0.69156 0.07003 0.0
C2856 C 0.13292 0.61004 0.06983 0.0
C2857 C 0.15005 0.74274 0.07039 0.0
C2858 C 0.12286 0.72819 0.0702 0.0
C2859 C 0.08684 0.6472 0.0695 0.0
C2860 C 0.07796 0.58086 0.06938 0.0
C2861 C 0.1141 0.66208 0.06984 0.0
C2862 C 0.09684 0.5294 0.06971 0.0
C2863 C 0.12409 0.54386 0.06982 0.0
H2864 H 0.0739 0.56709 0.18596 0.0
H2865 H 0.09177 0.7766 0.18614 0.0
H2866 H 0.13942 0.75153 0.18594 0.0
H2867 H 0.17582 0.67006 0.18605 0.0
H2868 H 0.15781 0.46086 0.18474 0.0
H2869 H 0.1102 0.48601 0.18498 0.0
C2870 C 0.08819 0.60738 0.18599 0.0
C2871 C 0.07925 0.67369 0.18621 0.0
C2872 C 0.11546 0.59263 0.18565 0.0
C2873 C 0.09807 0.72521 0.18601 0.0
C2874 C 0.12532 0.71087 0.18591 0.0
C2875 C 0.16151 0.62986 0.18583 0.0
C2876 C 0.17041 0.56353 0.1855 0.0
C2877 C 0.13421 0.64476 0.18579 0.0
C2878 C 0.15154 0.51224 0.185 0.0
C2879 C 0.12432 0.52661 0.18518 0.0
H2880 H 0.83519 0.40227 0.93603 0.0
H2881 H 0.85503 0.19371 0.93652 0.0
H2882 H 0.90244 0.22146 0.93671 0.0
H2883 H 0.93804 0.30485 0.93703 0.0
H2884 H 0.91813 0.51341 0.93541 0.0
H2885 H 0.87076 0.48561 0.93534 0.0
C2886 C 0.84985 0.36275 0.93621 0.0
C2887 C 0.84154 0.29589 0.93639 0.0
C2888 C 0.87699 0.3791 0.93611 0.0
C2889 C 0.86085 0.24548 0.93639 0.0
C2890 C 0.88795 0.26135 0.93653 0.0
C2891 C 0.92337 0.34435 0.9367 0.0
C2892 C 0.93166 0.41124 0.93635 0.0
C2893 C 0.89622 0.32797 0.93645 0.0
C2894 C 0.91234 0.46163 0.9357 0.0
C2895 C 0.88525 0.44573 0.93568 0.0
H2896 H 0.9361 0.42869 0.81926 0.0
H2897 H 0.92011 0.21811 0.82104 0.0
H2898 H 0.87236 0.24044 0.82139 0.0
H2899 H 0.83526 0.31916 0.82075 0.0
H2900 H 0.85059 0.52989 0.82009 0.0
H2901 H 0.89863 0.50807 0.81986 0.0
C2902 C 0.92219 0.38761 0.81971 0.0
C2903 C 0.93178 0.32164 0.81998 0.0
C2904 C 0.89469 0.40088 0.82014 0.0
C2905 C 0.91339 0.26921 0.82078 0.0
C2906 C 0.88605 0.28198 0.82097 0.0
C2907 C 0.84905 0.36051 0.82056 0.0
C2908 C 0.83927 0.42619 0.8203 0.0
C2909 C 0.8765 0.34753 0.82058 0.0
C2910 C 0.85753 0.47895 0.82028 0.0
C2911 C 0.88499 0.46643 0.8201 0.0
loop_
_geom_bond_atom_site_label_1
_geom_bond_atom_site_label_2
_geom_bond_distance
_geom_bond_site_symmetry_2
_ccdc_geom_bond_type
Co0 O2 2.143 1_545 S
Co0 O8 2.074 . S
Co0 O11 2.093 . S
Co0 O24 2.097 . S
Co0 N41 2.151 . S
Co0 N49 2.214 . S
Co1 O2 2.160 . S
Co1 O7 2.058 1_565 S
Co1 O17 2.057 . S
Co1 O32 2.037 . S
Co1 N36 2.145 . S
Co1 N57 2.257 . S
O2 Co0 2.143 1_565 S
O2 Co1 2.160 . S
C3 O4 1.278 1_545 S
C3 O11 1.224 . S
O4 C3 1.278 1_565 S
C5 O6 1.245 . S
C5 O17 1.232 . S
O6 C5 1.245 . S
O7 Co1 2.058 1_545 S
O7 C33 1.269 . S
O8 Co0 2.074 . S
O8 C33 1.257 . S
H9 C34 0.930 . S
H10 C40 0.930 . S
O11 Co0 2.093 . S
O11 C3 1.224 . S
H12 C44 0.929 . S
H13 C46 0.930 . S
H14 C47 0.930 . S
H15 C45 0.929 . S
H16 C48 0.928 . S
O17 Co1 2.057 . S
O17 C5 1.232 . S
H18 C37 0.929 . S
H19 C38 0.929 . S
H20 C50 0.931 . S
H21 C42 0.929 . S
H22 C51 0.930 . S
H23 C43 0.931 . S
O24 Co0 2.097 . S
O24 C52 1.214 . S
H25 C53 0.929 . S
H26 C54 0.929 . S
H27 C55 0.930 . S
H28 C56 0.929 . S
H29 C58 0.930 . S
H30 C35 0.930 . S
H31 C39 0.930 . S
O32 Co1 2.037 . S
O32 C52 1.234 1_565 S
C33 O7 1.269 . S
C33 O8 1.257 . S
C34 H9 0.930 . S
C34 C37 1.388 . S
C34 C39 1.418 . S
C35 H30 0.930 . S
C35 C38 1.404 . S
C35 C39 1.353 . S
N36 Co1 2.145 . S
N36 C37 1.397 . S
N36 C38 1.334 . S
C37 H18 0.929 . S
C37 C34 1.388 . S
C37 N36 1.397 . S
C38 H19 0.929 . S
C38 C35 1.404 . S
C38 N36 1.334 . S
C39 H31 0.930 . S
C39 C34 1.418 . S
C39 C35 1.353 . S
C40 H10 0.930 . S
C40 N41 1.330 . S
C40 C42 1.446 . S
N41 Co0 2.151 . S
N41 C40 1.330 . S
N41 C45 1.418 . S
C42 H21 0.929 . S
C42 C40 1.446 . S
C42 C43 1.332 . S
C43 H23 0.931 . S
C43 C42 1.332 . S
C43 C44 1.267 . S
C44 H12 0.929 . S
C44 C43 1.267 . S
C44 C45 1.251 . S
C45 H15 0.929 . S
C45 N41 1.418 . S
C45 C44 1.251 . S
C46 H13 0.930 . S
C46 C48 1.406 . S
C46 C51 1.261 . S
C47 H14 0.930 . S
C47 N49 1.325 . S
C47 C50 1.357 . S
C48 H16 0.928 . S
C48 C46 1.406 . S
C48 N49 1.261 . S
N49 Co0 2.214 . S
N49 C47 1.325 . S
N49 C48 1.261 . S
C50 H20 0.931 . S
C50 C47 1.357 . S
C50 C51 1.312 . S
C51 H22 0.930 . S
C51 C46 1.261 . S
C51 C50 1.312 . S
C52 O24 1.214 . S
C52 O32 1.234 1_545 S
C53 H25 0.929 . S
C53 C56 1.391 . S
C53 C58 1.391 . S
C54 H26 0.929 . S
C54 C55 1.390 . S
C54 N57 1.391 . S
C55 H27 0.930 . S
C55 C54 1.390 . S
C55 C56 1.392 . S
C56 H28 0.929 . S
C56 C53 1.391 . S
C56 C55 1.392 . S
N57 Co1 2.257 . S
N57 C54 1.391 . S
N57 C58 1.388 . S
C58 H29 0.930 . S
C58 C53 1.391 . S
C58 N57 1.388 . S
Co59 O61 2.143 . S
Co59 O67 2.074 . S
Co59 O70 2.093 . S
Co59 O83 2.097 . S
Co59 N100 2.151 . S
Co59 N108 2.214 . S
Co60 O61 2.160 . S
Co60 O66 2.058 . S
Co60 O76 2.057 . S
Co60 O91 2.037 . S
Co60 N95 2.145 . S
Co60 N116 2.257 . S
O61 Co59 2.143 . S
O61 Co60 2.160 . S
C62 O63 1.278 . S
C62 O70 1.224 . S
O63 C62 1.278 . S
C64 O65 1.245 . S
C64 O76 1.232 . S
O65 C64 1.245 . S
O66 Co60 2.058 . S
O66 C92 1.269 . S
O67 Co59 2.074 . S
O67 C92 1.257 . S
H68 C93 0.930 . S
H69 C99 0.930 . S
O70 Co59 2.093 . S
O70 C62 1.224 . S
H71 C103 0.929 . S
H72 C105 0.930 . S
H73 C106 0.930 . S
H74 C104 0.929 . S
H75 C107 0.928 . S
O76 Co60 2.057 . S
O76 C64 1.232 . S
H77 C96 0.929 . S
H78 C97 0.929 . S
H79 C109 0.931 . S
H80 C101 0.929 . S
H81 C110 0.930 . S
H82 C102 0.931 . S
O83 Co59 2.097 . S
O83 C111 1.214 . S
H84 C112 0.929 . S
H85 C113 0.929 . S
H86 C114 0.930 . S
H87 C115 0.929 . S
H88 C117 0.930 . S
H89 C94 0.930 . S
H90 C98 0.930 . S
O91 Co60 2.037 . S
O91 C111 1.234 . S
C92 O66 1.269 . S
C92 O67 1.257 . S
C93 H68 0.930 . S
C93 C96 1.388 . S
C93 C98 1.418 . S
C94 H89 0.930 . S
C94 C97 1.404 . S
C94 C98 1.353 . S
N95 Co60 2.145 . S
N95 C96 1.397 . S
N95 C97 1.334 . S
C96 H77 0.929 . S
C96 C93 1.388 . S
C96 N95 1.397 . S
C97 H78 0.929 . S
C97 C94 1.404 . S
C97 N95 1.334 . S
C98 H90 0.930 . S
C98 C93 1.418 . S
C98 C94 1.353 . S
C99 H69 0.930 . S
C99 N100 1.330 . S
C99 C101 1.446 . S
N100 Co59 2.151 . S
N100 C99 1.330 . S
N100 C104 1.418 . S
C101 H80 0.929 . S
C101 C99 1.446 . S
C101 C102 1.332 . S
C102 H82 0.931 . S
C102 C101 1.332 . S
C102 C103 1.267 . S
C103 H71 0.929 . S
C103 C102 1.267 . S
C103 C104 1.251 . S
C104 H74 0.929 . S
C104 N100 1.418 . S
C104 C103 1.251 . S
C105 H72 0.930 . S
C105 C107 1.406 1_565 S
C105 C110 1.261 . S
C106 H73 0.930 . S
C106 N108 1.325 . S
C106 C109 1.357 . S
C107 H75 0.928 . S
C107 C105 1.406 1_545 S
C107 N108 1.261 . S
N108 Co59 2.214 . S
N108 C106 1.325 . S
N108 C107 1.261 . S
C109 H79 0.931 . S
C109 C106 1.357 . S
C109 C110 1.312 1_545 S
C110 H81 0.930 . S
C110 C105 1.261 . S
C110 C109 1.312 1_565 S
C111 O83 1.214 . S
C111 O91 1.234 . S
C112 H84 0.929 . S
C112 C115 1.391 . S
C112 C117 1.391 . S
C113 H85 0.929 . S
C113 C114 1.390 . S
C113 N116 1.391 . S
C114 H86 0.930 . S
C114 C113 1.390 . S
C114 C115 1.392 . S
C115 H87 0.929 . S
C115 C112 1.391 . S
C115 C114 1.392 . S
N116 Co60 2.257 . S
N116 C113 1.391 . S
N116 C117 1.388 . S
C117 H88 0.930 . S
C117 C112 1.391 . S
C117 N116 1.388 . S
Co118 O120 2.143 . S
Co118 O126 2.074 . S
Co118 O129 2.093 . S
Co118 O142 2.097 . S
Co118 N159 2.151 . S
Co118 N167 2.214 . S
Co119 O120 2.160 . S
Co119 O125 2.058 . S
Co119 O135 2.057 . S
Co119 O150 2.037 . S
Co119 N154 2.145 . S
Co119 N175 2.257 . S
O120 Co118 2.143 . S
O120 Co119 2.160 . S
C121 O122 1.278 . S
C121 O129 1.224 . S
O122 C121 1.278 . S
C123 O124 1.245 . S
C123 O135 1.232 . S
O124 C123 1.245 . S
O125 Co119 2.058 . S
O125 C151 1.269 . S
O126 Co118 2.074 . S
O126 C151 1.257 . S
H127 C152 0.930 . S
H128 C158 0.930 . S
O129 Co118 2.093 . S
O129 C121 1.224 . S
H130 C162 0.929 1_565 S
H131 C164 0.930 . S
H132 C165 0.930 . S
H133 C163 0.929 . S
H134 C166 0.928 . S
O135 Co119 2.057 . S
O135 C123 1.232 . S
H136 C155 0.929 . S
H137 C156 0.929 . S
H138 C168 0.931 . S
H139 C160 0.929 . S
H140 C169 0.930 . S
H141 C161 0.931 . S
O142 Co118 2.097 . S
O142 C170 1.214 . S
H143 C171 0.929 . S
H144 C172 0.929 . S
H145 C173 0.930 . S
H146 C174 0.929 . S
H147 C176 0.930 . S
H148 C153 0.930 . S
H149 C157 0.930 . S
O150 Co119 2.037 . S
O150 C170 1.234 . S
C151 O125 1.269 . S
C151 O126 1.257 . S
C152 H127 0.930 . S
C152 C155 1.388 . S
C152 C157 1.418 . S
C153 H148 0.930 . S
C153 C156 1.404 . S
C153 C157 1.353 . S
N154 Co119 2.145 . S
N154 C155 1.397 . S
N154 C156 1.334 . S
C155 H136 0.929 . S
C155 C152 1.388 . S
C155 N154 1.397 . S
C156 H137 0.929 . S
C156 C153 1.404 . S
C156 N154 1.334 . S
C157 H149 0.930 . S
C157 C152 1.418 . S
C157 C153 1.353 . S
C158 H128 0.930 . S
C158 N159 1.330 . S
C158 C160 1.446 . S
N159 Co118 2.151 . S
N159 C158 1.330 . S
N159 C163 1.418 . S
C160 H139 0.929 . S
C160 C158 1.446 . S
C160 C161 1.332 . S
C161 H141 0.931 . S
C161 C160 1.332 . S
C161 C162 1.267 . S
C162 H130 0.929 1_545 S
C162 C161 1.267 . S
C162 C163 1.251 . S
C163 H133 0.929 . S
C163 N159 1.418 . S
C163 C162 1.251 . S
C164 H131 0.930 . S
C164 C166 1.406 1_565 S
C164 C169 1.261 . S
C165 H132 0.930 . S
C165 N167 1.325 . S
C165 C168 1.357 . S
C166 H134 0.928 . S
C166 C164 1.406 1_545 S
C166 N167 1.261 . S
N167 Co118 2.214 . S
N167 C165 1.325 . S
N167 C166 1.261 . S
C168 H138 0.931 . S
C168 C165 1.357 . S
C168 C169 1.312 1_545 S
C169 H140 0.930 . S
C169 C164 1.261 . S
C169 C168 1.312 1_565 S
C170 O142 1.214 . S
C170 O150 1.234 . S
C171 H143 0.929 . S
C171 C174 1.391 . S
C171 C176 1.391 . S
C172 H144 0.929 . S
C172 C173 1.390 . S
C172 N175 1.391 . S
C173 H145 0.930 . S
C173 C172 1.390 . S
C173 C174 1.392 . S
C174 H146 0.929 . S
C174 C171 1.391 . S
C174 C173 1.392 . S
N175 Co119 2.257 . S
N175 C172 1.391 . S
N175 C176 1.388 . S
C176 H147 0.930 . S
C176 C171 1.391 . S
C176 N175 1.388 . S
Co177 O179 2.143 1_545 S
Co177 O185 2.074 . S
Co177 O188 2.093 . S
Co177 O201 2.097 . S
Co177 N218 2.151 . S
Co177 N226 2.214 . S
Co178 O179 2.160 . S
Co178 O184 2.058 1_565 S
Co178 O194 2.057 . S
Co178 O209 2.037 . S
Co178 N213 2.145 . S
Co178 N234 2.257 . S
O179 Co177 2.143 1_565 S
O179 Co178 2.160 . S
C180 O181 1.278 1_545 S
C180 O188 1.224 . S
O181 C180 1.278 1_565 S
C182 O183 1.245 . S
C182 O194 1.232 . S
O183 C182 1.245 . S
O184 Co178 2.058 1_545 S
O184 C210 1.269 . S
O185 Co177 2.074 . S
O185 C210 1.257 . S
H186 C211 0.930 . S
H187 C217 0.930 . S
O188 Co177 2.093 . S
O188 C180 1.224 . S
H189 C221 0.929 . S
H190 C223 0.930 . S
H191 C224 0.930 . S
H192 C222 0.929 . S
H193 C225 0.928 . S
O194 Co178 2.057 . S
O194 C182 1.232 . S
H195 C214 0.929 . S
H196 C215 0.929 . S
H197 C227 0.931 . S
H198 C219 0.929 . S
H199 C228 0.930 . S
H200 C220 0.931 . S
O201 Co177 2.097 . S
O201 C229 1.214 . S
H202 C230 0.929 . S
H203 C231 0.929 . S
H204 C232 0.930 . S
H205 C233 0.929 . S
H206 C235 0.930 . S
H207 C212 0.930 . S
H208 C216 0.930 . S
O209 Co178 2.037 . S
O209 C229 1.234 1_565 S
C210 O184 1.269 . S
C210 O185 1.257 . S
C211 H186 0.930 . S
C211 C214 1.388 . S
C211 C216 1.418 . S
C212 H207 0.930 . S
C212 C215 1.404 . S
C212 C216 1.353 . S
N213 Co178 2.145 . S
N213 C214 1.397 . S
N213 C215 1.334 . S
C214 H195 0.929 . S
C214 C211 1.388 . S
C214 N213 1.397 . S
C215 H196 0.929 . S
C215 C212 1.404 . S
C215 N213 1.334 . S
C216 H208 0.930 . S
C216 C211 1.418 . S
C216 C212 1.353 . S
C217 H187 0.930 . S
C217 N218 1.330 . S
C217 C219 1.446 . S
N218 Co177 2.151 . S
N218 C217 1.330 . S
N218 C222 1.418 . S
C219 H198 0.929 . S
C219 C217 1.446 . S
C219 C220 1.332 . S
C220 H200 0.931 . S
C220 C219 1.332 . S
C220 C221 1.267 . S
C221 H189 0.929 . S
C221 C220 1.267 . S
C221 C222 1.251 . S
C222 H192 0.929 . S
C222 N218 1.418 . S
C222 C221 1.251 . S
C223 H190 0.930 . S
C223 C225 1.406 . S
C223 C228 1.261 . S
C224 H191 0.930 . S
C224 N226 1.325 . S
C224 C227 1.357 . S
C225 H193 0.928 . S
C225 C223 1.406 . S
C225 N226 1.261 . S
N226 Co177 2.214 . S
N226 C224 1.325 . S
N226 C225 1.261 . S
C227 H197 0.931 . S
C227 C224 1.357 . S
C227 C228 1.312 . S
C228 H199 0.930 . S
C228 C223 1.261 . S
C228 C227 1.312 . S
C229 O201 1.214 . S
C229 O209 1.234 1_545 S
C230 H202 0.929 . S
C230 C233 1.391 . S
C230 C235 1.391 . S
C231 H203 0.929 . S
C231 C232 1.390 . S
C231 N234 1.391 . S
C232 H204 0.930 . S
C232 C231 1.390 . S
C232 C233 1.392 . S
C233 H205 0.929 . S
C233 C230 1.391 . S
C233 C232 1.392 . S
N234 Co178 2.257 . S
N234 C231 1.391 . S
N234 C235 1.388 . S
C235 H206 0.930 . S
C235 C230 1.391 . S
C235 N234 1.388 . S
Co236 O238 2.143 1_565 S
Co236 O244 2.074 . S
Co236 O247 2.093 . S
Co236 O260 2.097 . S
Co236 N277 2.151 . S
Co236 N285 2.214 . S
Co237 O238 2.160 . S
Co237 O243 2.058 1_545 S
Co237 O253 2.057 . S
Co237 O268 2.037 . S
Co237 N272 2.145 . S
Co237 N293 2.257 . S
O238 Co236 2.143 1_545 S
O238 Co237 2.160 . S
C239 O240 1.278 1_565 S
C239 O247 1.224 . S
O240 C239 1.278 1_545 S
C241 O242 1.245 . S
C241 O253 1.232 . S
O242 C241 1.245 . S
O243 Co237 2.058 1_565 S
O243 C269 1.269 . S
O244 Co236 2.074 . S
O244 C269 1.257 . S
H245 C270 0.930 . S
H246 C276 0.930 . S
O247 Co236 2.093 . S
O247 C239 1.224 . S
H248 C280 0.929 . S
H249 C282 0.930 . S
H250 C283 0.930 . S
H251 C281 0.929 . S
H252 C284 0.928 . S
O253 Co237 2.057 . S
O253 C241 1.232 . S
H254 C273 0.929 . S
H255 C274 0.929 . S
H256 C286 0.931 . S
H257 C278 0.929 . S
H258 C287 0.930 . S
H259 C279 0.931 . S
O260 Co236 2.097 . S
O260 C288 1.214 . S
H261 C289 0.929 . S
H262 C290 0.929 . S
H263 C291 0.930 . S
H264 C292 0.929 . S
H265 C294 0.930 . S
H266 C271 0.930 . S
H267 C275 0.930 . S
O268 Co237 2.037 . S
O268 C288 1.234 1_545 S
C269 O243 1.269 . S
C269 O244 1.257 . S
C270 H245 0.930 . S
C270 C273 1.388 . S
C270 C275 1.418 . S
C271 H266 0.930 . S
C271 C274 1.404 . S
C271 C275 1.353 . S
N272 Co237 2.145 . S
N272 C273 1.397 . S
N272 C274 1.334 . S
C273 H254 0.929 . S
C273 C270 1.388 . S
C273 N272 1.397 . S
C274 H255 0.929 . S
C274 C271 1.404 . S
C274 N272 1.334 . S
C275 H267 0.930 . S
C275 C270 1.418 . S
C275 C271 1.353 . S
C276 H246 0.930 . S
C276 N277 1.330 . S
C276 C278 1.446 . S
N277 Co236 2.151 . S
N277 C276 1.330 . S
N277 C281 1.418 . S
C278 H257 0.929 . S
C278 C276 1.446 . S
C278 C279 1.332 . S
C279 H259 0.931 . S
C279 C278 1.332 . S
C279 C280 1.267 . S
C280 H248 0.929 . S
C280 C279 1.267 . S
C280 C281 1.251 . S
C281 H251 0.929 . S
C281 N277 1.418 . S
C281 C280 1.251 . S
C282 H249 0.930 . S
C282 C284 1.406 . S
C282 C287 1.261 . S
C283 H250 0.930 . S
C283 N285 1.325 . S
C283 C286 1.357 . S
C284 H252 0.928 . S
C284 C282 1.406 . S
C284 N285 1.261 . S
N285 Co236 2.214 . S
N285 C283 1.325 . S
N285 C284 1.261 . S
C286 H256 0.931 . S
C286 C283 1.357 . S
C286 C287 1.312 . S
C287 H258 0.930 . S
C287 C282 1.261 . S
C287 C286 1.312 . S
C288 O260 1.214 . S
C288 O268 1.234 1_565 S
C289 H261 0.929 . S
C289 C292 1.391 . S
C289 C294 1.391 . S
C290 H262 0.929 . S
C290 C291 1.390 . S
C290 N293 1.391 . S
C291 H263 0.930 . S
C291 C290 1.390 . S
C291 C292 1.392 . S
C292 H264 0.929 . S
C292 C289 1.391 . S
C292 C291 1.392 . S
N293 Co237 2.257 . S
N293 C290 1.391 . S
N293 C294 1.388 . S
C294 H265 0.930 . S
C294 C289 1.391 . S
C294 N293 1.388 . S
Co295 O297 2.143 . S
Co295 O303 2.074 . S
Co295 O306 2.093 . S
Co295 O319 2.097 . S
Co295 N336 2.151 . S
Co295 N344 2.214 . S
Co296 O297 2.160 . S
Co296 O302 2.058 . S
Co296 O312 2.057 . S
Co296 O327 2.037 . S
Co296 N331 2.145 . S
Co296 N352 2.257 . S
O297 Co295 2.143 . S
O297 Co296 2.160 . S
C298 O299 1.278 . S
C298 O306 1.224 . S
O299 C298 1.278 . S
C300 O301 1.245 . S
C300 O312 1.232 . S
O301 C300 1.245 . S
O302 Co296 2.058 . S
O302 C328 1.269 . S
O303 Co295 2.074 . S
O303 C328 1.257 . S
H304 C329 0.930 . S
H305 C335 0.930 . S
O306 Co295 2.093 . S
O306 C298 1.224 . S
H307 C339 0.929 . S
H308 C341 0.930 . S
H309 C342 0.930 . S
H310 C340 0.929 . S
H311 C343 0.928 . S
O312 Co296 2.057 . S
O312 C300 1.232 . S
H313 C332 0.929 . S
H314 C333 0.929 . S
H315 C345 0.931 . S
H316 C337 0.929 . S
H317 C346 0.930 . S
H318 C338 0.931 . S
O319 Co295 2.097 . S
O319 C347 1.214 . S
H320 C348 0.929 . S
H321 C349 0.929 . S
H322 C350 0.930 . S
H323 C351 0.929 . S
H324 C353 0.930 . S
H325 C330 0.930 . S
H326 C334 0.930 . S
O327 Co296 2.037 . S
O327 C347 1.234 . S
C328 O302 1.269 . S
C328 O303 1.257 . S
C329 H304 0.930 . S
C329 C332 1.388 . S
C329 C334 1.418 . S
C330 H325 0.930 . S
C330 C333 1.404 . S
C330 C334 1.353 . S
N331 Co296 2.145 . S
N331 C332 1.397 . S
N331 C333 1.334 . S
C332 H313 0.929 . S
C332 C329 1.388 . S
C332 N331 1.397 . S
C333 H314 0.929 . S
C333 C330 1.404 . S
C333 N331 1.334 . S
C334 H326 0.930 . S
C334 C329 1.418 . S
C334 C330 1.353 . S
C335 H305 0.930 . S
C335 N336 1.330 . S
C335 C337 1.446 . S
N336 Co295 2.151 . S
N336 C335 1.330 . S
N336 C340 1.418 . S
C337 H316 0.929 . S
C337 C335 1.446 . S
C337 C338 1.332 . S
C338 H318 0.931 . S
C338 C337 1.332 . S
C338 C339 1.267 . S
C339 H307 0.929 . S
C339 C338 1.267 . S
C339 C340 1.251 . S
C340 H310 0.929 . S
C340 N336 1.418 . S
C340 C339 1.251 . S
C341 H308 0.930 . S
C341 C343 1.406 1_545 S
C341 C346 1.261 . S
C342 H309 0.930 . S
C342 N344 1.325 . S
C342 C345 1.357 . S
C343 H311 0.928 . S
C343 C341 1.406 1_565 S
C343 N344 1.261 . S
N344 Co295 2.214 . S
N344 C342 1.325 . S
N344 C343 1.261 . S
C345 H315 0.931 . S
C345 C342 1.357 . S
C345 C346 1.312 1_565 S
C346 H317 0.930 . S
C346 C341 1.261 . S
C346 C345 1.312 1_545 S
C347 O319 1.214 . S
C347 O327 1.234 . S
C348 H320 0.929 . S
C348 C351 1.391 . S
C348 C353 1.391 . S
C349 H321 0.929 . S
C349 C350 1.390 . S
C349 N352 1.391 . S
C350 H322 0.930 . S
C350 C349 1.390 . S
C350 C351 1.392 . S
C351 H323 0.929 . S
C351 C348 1.391 . S
C351 C350 1.392 . S
N352 Co296 2.257 . S
N352 C349 1.391 . S
N352 C353 1.388 . S
C353 H324 0.930 . S
C353 C348 1.391 . S
C353 N352 1.388 . S
Co354 O356 2.143 . S
Co354 O362 2.074 . S
Co354 O365 2.093 . S
Co354 O378 2.097 . S
Co354 N395 2.151 . S
Co354 N403 2.214 . S
Co355 O356 2.160 . S
Co355 O361 2.058 . S
Co355 O371 2.057 . S
Co355 O386 2.037 . S
Co355 N390 2.145 . S
Co355 N411 2.257 . S
O356 Co354 2.143 . S
O356 Co355 2.160 . S
C357 O358 1.278 . S
C357 O365 1.224 . S
O358 C357 1.278 . S
C359 O360 1.245 . S
C359 O371 1.232 . S
O360 C359 1.245 . S
O361 Co355 2.058 . S
O361 C387 1.269 . S
O362 Co354 2.074 . S
O362 C387 1.257 . S
H363 C388 0.930 . S
H364 C394 0.930 . S
O365 Co354 2.093 . S
O365 C357 1.224 . S
H366 C398 0.929 1_545 S
H367 C400 0.930 . S
H368 C401 0.930 . S
H369 C399 0.929 . S
H370 C402 0.928 . S
O371 Co355 2.057 . S
O371 C359 1.232 . S
H372 C391 0.929 . S
H373 C392 0.929 . S
H374 C404 0.931 . S
H375 C396 0.929 . S
H376 C405 0.930 . S
H377 C397 0.931 . S
O378 Co354 2.097 . S
O378 C406 1.214 . S
H379 C407 0.929 . S
H380 C408 0.929 . S
H381 C409 0.930 . S
H382 C410 0.929 . S
H383 C412 0.930 . S
H384 C389 0.930 . S
H385 C393 0.930 . S
O386 Co355 2.037 . S
O386 C406 1.234 . S
C387 O361 1.269 . S
C387 O362 1.257 . S
C388 H363 0.930 . S
C388 C391 1.388 . S
C388 C393 1.418 . S
C389 H384 0.930 . S
C389 C392 1.404 . S
C389 C393 1.353 . S
N390 Co355 2.145 . S
N390 C391 1.397 . S
N390 C392 1.334 . S
C391 H372 0.929 . S
C391 C388 1.388 . S
C391 N390 1.397 . S
C392 H373 0.929 . S
C392 C389 1.404 . S
C392 N390 1.334 . S
C393 H385 0.930 . S
C393 C388 1.418 . S
C393 C389 1.353 . S
C394 H364 0.930 . S
C394 N395 1.330 . S
C394 C396 1.446 . S
N395 Co354 2.151 . S
N395 C394 1.330 . S
N395 C399 1.418 . S
C396 H375 0.929 . S
C396 C394 1.446 . S
C396 C397 1.332 . S
C397 H377 0.931 . S
C397 C396 1.332 . S
C397 C398 1.267 . S
C398 H366 0.929 1_565 S
C398 C397 1.267 . S
C398 C399 1.251 . S
C399 H369 0.929 . S
C399 N395 1.418 . S
C399 C398 1.251 . S
C400 H367 0.930 . S
C400 C402 1.406 1_545 S
C400 C405 1.261 . S
C401 H368 0.930 . S
C401 N403 1.325 . S
C401 C404 1.357 . S
C402 H370 0.928 . S
C402 C400 1.406 1_565 S
C402 N403 1.261 . S
N403 Co354 2.214 . S
N403 C401 1.325 . S
N403 C402 1.261 . S
C404 H374 0.931 . S
C404 C401 1.357 . S
C404 C405 1.312 1_565 S
C405 H376 0.930 . S
C405 C400 1.261 . S
C405 C404 1.312 1_545 S
C406 O378 1.214 . S
C406 O386 1.234 . S
C407 H379 0.929 . S
C407 C410 1.391 . S
C407 C412 1.391 . S
C408 H380 0.929 . S
C408 C409 1.390 . S
C408 N411 1.391 . S
C409 H381 0.930 . S
C409 C408 1.390 . S
C409 C410 1.392 . S
C410 H382 0.929 . S
C410 C407 1.391 . S
C410 C409 1.392 . S
N411 Co355 2.257 . S
N411 C408 1.391 . S
N411 C412 1.388 . S
C412 H383 0.930 . S
C412 C407 1.391 . S
C412 N411 1.388 . S
Co413 O415 2.143 1_565 S
Co413 O421 2.074 . S
Co413 O424 2.093 . S
Co413 O437 2.097 . S
Co413 N454 2.151 . S
Co413 N462 2.214 . S
Co414 O415 2.160 . S
Co414 O420 2.058 1_545 S
Co414 O430 2.057 . S
Co414 O445 2.037 . S
Co414 N449 2.145 . S
Co414 N470 2.257 . S
O415 Co413 2.143 1_545 S
O415 Co414 2.160 . S
C416 O417 1.278 1_565 S
C416 O424 1.224 . S
O417 C416 1.278 1_545 S
C418 O419 1.245 . S
C418 O430 1.232 . S
O419 C418 1.245 . S
O420 Co414 2.058 1_565 S
O420 C446 1.269 . S
O421 Co413 2.074 . S
O421 C446 1.257 . S
H422 C447 0.930 . S
H423 C453 0.930 . S
O424 Co413 2.093 . S
O424 C416 1.224 . S
H425 C457 0.929 . S
H426 C459 0.930 . S
H427 C460 0.930 . S
H428 C458 0.929 . S
H429 C461 0.928 . S
O430 Co414 2.057 . S
O430 C418 1.232 . S
H431 C450 0.929 . S
H432 C451 0.929 . S
H433 C463 0.931 . S
H434 C455 0.929 . S
H435 C464 0.930 . S
H436 C456 0.931 . S
O437 Co413 2.097 . S
O437 C465 1.214 . S
H438 C466 0.929 . S
H439 C467 0.929 . S
H440 C468 0.930 . S
H441 C469 0.929 . S
H442 C471 0.930 . S
H443 C448 0.930 . S
H444 C452 0.930 . S
O445 Co414 2.037 . S
O445 C465 1.234 1_545 S
C446 O420 1.269 . S
C446 O421 1.257 . S
C447 H422 0.930 . S
C447 C450 1.388 . S
C447 C452 1.418 . S
C448 H443 0.930 . S
C448 C451 1.404 . S
C448 C452 1.353 . S
N449 Co414 2.145 . S
N449 C450 1.397 . S
N449 C451 1.334 . S
C450 H431 0.929 . S
C450 C447 1.388 . S
C450 N449 1.397 . S
C451 H432 0.929 . S
C451 C448 1.404 . S
C451 N449 1.334 . S
C452 H444 0.930 . S
C452 C447 1.418 . S
C452 C448 1.353 . S
C453 H423 0.930 . S
C453 N454 1.330 . S
C453 C455 1.446 . S
N454 Co413 2.151 . S
N454 C453 1.330 . S
N454 C458 1.418 . S
C455 H434 0.929 . S
C455 C453 1.446 . S
C455 C456 1.332 . S
C456 H436 0.931 . S
C456 C455 1.332 . S
C456 C457 1.267 . S
C457 H425 0.929 . S
C457 C456 1.267 . S
C457 C458 1.251 . S
C458 H428 0.929 . S
C458 N454 1.418 . S
C458 C457 1.251 . S
C459 H426 0.930 . S
C459 C461 1.406 . S
C459 C464 1.261 . S
C460 H427 0.930 . S
C460 N462 1.325 . S
C460 C463 1.357 . S
C461 H429 0.928 . S
C461 C459 1.406 . S
C461 N462 1.261 . S
N462 Co413 2.214 . S
N462 C460 1.325 . S
N462 C461 1.261 . S
C463 H433 0.931 . S
C463 C460 1.357 . S
C463 C464 1.312 . S
C464 H435 0.930 . S
C464 C459 1.261 . S
C464 C463 1.312 . S
C465 O437 1.214 . S
C465 O445 1.234 1_565 S
C466 H438 0.929 . S
C466 C469 1.391 . S
C466 C471 1.391 . S
C467 H439 0.929 . S
C467 C468 1.390 . S
C467 N470 1.391 . S
C468 H440 0.930 . S
C468 C467 1.390 . S
C468 C469 1.392 . S
C469 H441 0.929 . S
C469 C466 1.391 . S
C469 C468 1.392 . S
N470 Co414 2.257 . S
N470 C467 1.391 . S
N470 C471 1.388 . S
C471 H442 0.930 . S
C471 C466 1.391 . S
C471 N470 1.388 . S
Co472 O474 2.143 . S
Co472 O480 2.074 . S
Co472 O483 2.093 . S
Co472 O496 2.097 . S
Co472 N513 2.151 . S
Co472 N521 2.214 . S
Co473 O474 2.160 . S
Co473 O479 2.058 . S
Co473 O489 2.057 . S
Co473 O504 2.037 . S
Co473 N508 2.145 . S
Co473 N529 2.257 . S
O474 Co472 2.143 . S
O474 Co473 2.160 . S
C475 O476 1.278 . S
C475 O483 1.224 . S
O476 C475 1.278 . S
C477 O478 1.245 . S
C477 O489 1.232 . S
O478 C477 1.245 . S
O479 Co473 2.058 . S
O479 C505 1.269 . S
O480 Co472 2.074 . S
O480 C505 1.257 . S
H481 C506 0.930 . S
H482 C512 0.930 . S
O483 Co472 2.093 . S
O483 C475 1.224 . S
H484 C516 0.929 . S
H485 C518 0.930 . S
H486 C519 0.930 . S
H487 C517 0.929 . S
H488 C520 0.928 . S
O489 Co473 2.057 . S
O489 C477 1.232 . S
H490 C509 0.929 . S
H491 C510 0.929 . S
H492 C522 0.931 . S
H493 C514 0.929 . S
H494 C523 0.930 . S
H495 C515 0.931 . S
O496 Co472 2.097 . S
O496 C524 1.214 . S
H497 C525 0.929 . S
H498 C526 0.929 . S
H499 C527 0.930 . S
H500 C528 0.929 . S
H501 C530 0.930 . S
H502 C507 0.930 . S
H503 C511 0.930 . S
O504 Co473 2.037 . S
O504 C524 1.234 . S
C505 O479 1.269 . S
C505 O480 1.257 . S
C506 H481 0.930 . S
C506 C509 1.388 . S
C506 C511 1.418 . S
C507 H502 0.930 . S
C507 C510 1.404 . S
C507 C511 1.353 . S
N508 Co473 2.145 . S
N508 C509 1.397 . S
N508 C510 1.334 . S
C509 H490 0.929 . S
C509 C506 1.388 . S
C509 N508 1.397 . S
C510 H491 0.929 . S
C510 C507 1.404 . S
C510 N508 1.334 . S
C511 H503 0.930 . S
C511 C506 1.418 . S
C511 C507 1.353 . S
C512 H482 0.930 . S
C512 N513 1.330 . S
C512 C514 1.446 . S
N513 Co472 2.151 . S
N513 C512 1.330 . S
N513 C517 1.418 . S
C514 H493 0.929 . S
C514 C512 1.446 . S
C514 C515 1.332 . S
C515 H495 0.931 . S
C515 C514 1.332 . S
C515 C516 1.267 . S
C516 H484 0.929 . S
C516 C515 1.267 . S
C516 C517 1.251 . S
C517 H487 0.929 . S
C517 N513 1.418 . S
C517 C516 1.251 . S
C518 H485 0.930 . S
C518 C520 1.406 . S
C518 C523 1.261 . S
C519 H486 0.930 . S
C519 N521 1.325 . S
C519 C522 1.357 . S
C520 H488 0.928 . S
C520 C518 1.406 . S
C520 N521 1.261 . S
N521 Co472 2.214 . S
N521 C519 1.325 . S
N521 C520 1.261 . S
C522 H492 0.931 . S
C522 C519 1.357 . S
C522 C523 1.312 . S
C523 H494 0.930 . S
C523 C518 1.261 . S
C523 C522 1.312 . S
C524 O496 1.214 . S
C524 O504 1.234 . S
C525 H497 0.929 . S
C525 C528 1.391 . S
C525 C530 1.391 . S
C526 H498 0.929 . S
C526 C527 1.390 . S
C526 N529 1.391 . S
C527 H499 0.930 . S
C527 C526 1.390 . S
C527 C528 1.392 . S
C528 H500 0.929 . S
C528 C525 1.391 . S
C528 C527 1.392 . S
N529 Co473 2.257 . S
N529 C526 1.391 . S
N529 C530 1.388 . S
C530 H501 0.930 . S
C530 C525 1.391 . S
C530 N529 1.388 . S
Co531 O533 2.143 . S
Co531 O539 2.074 . S
Co531 O542 2.093 . S
Co531 O555 2.097 . S
Co531 N572 2.151 . S
Co531 N580 2.214 . S
Co532 O533 2.160 . S
Co532 O538 2.058 . S
Co532 O548 2.057 . S
Co532 O563 2.037 . S
Co532 N567 2.145 . S
Co532 N588 2.257 . S
O533 Co531 2.143 . S
O533 Co532 2.160 . S
C534 O535 1.278 . S
C534 O542 1.224 . S
O535 C534 1.278 . S
C536 O537 1.245 . S
C536 O548 1.232 . S
O537 C536 1.245 . S
O538 Co532 2.058 . S
O538 C564 1.269 . S
O539 Co531 2.074 . S
O539 C564 1.257 . S
H540 C565 0.930 . S
H541 C571 0.930 . S
O542 Co531 2.093 . S
O542 C534 1.224 . S
H543 C575 0.929 . S
H544 C577 0.930 . S
H545 C578 0.930 . S
H546 C576 0.929 . S
H547 C579 0.928 . S
O548 Co532 2.057 . S
O548 C536 1.232 . S
H549 C568 0.929 . S
H550 C569 0.929 . S
H551 C581 0.931 . S
H552 C573 0.929 . S
H553 C582 0.930 . S
H554 C574 0.931 . S
O555 Co531 2.097 . S
O555 C583 1.214 . S
H556 C584 0.929 . S
H557 C585 0.929 . S
H558 C586 0.930 . S
H559 C587 0.929 . S
H560 C589 0.930 . S
H561 C566 0.930 . S
H562 C570 0.930 1_545 S
O563 Co532 2.037 . S
O563 C583 1.234 . S
C564 O538 1.269 . S
C564 O539 1.257 . S
C565 H540 0.930 . S
C565 C568 1.388 . S
C565 C570 1.418 . S
C566 H561 0.930 . S
C566 C569 1.404 1_545 S
C566 C570 1.353 1_545 S
N567 Co532 2.145 . S
N567 C568 1.397 . S
N567 C569 1.334 . S
C568 H549 0.929 . S
C568 C565 1.388 . S
C568 N567 1.397 . S
C569 H550 0.929 . S
C569 C566 1.404 1_565 S
C569 N567 1.334 . S
C570 H562 0.930 1_565 S
C570 C565 1.418 . S
C570 C566 1.353 1_565 S
C571 H541 0.930 . S
C571 N572 1.330 . S
C571 C573 1.446 . S
N572 Co531 2.151 . S
N572 C571 1.330 . S
N572 C576 1.418 . S
C573 H552 0.929 . S
C573 C571 1.446 . S
C573 C574 1.332 . S
C574 H554 0.931 . S
C574 C573 1.332 . S
C574 C575 1.267 . S
C575 H543 0.929 . S
C575 C574 1.267 . S
C575 C576 1.251 . S
C576 H546 0.929 . S
C576 N572 1.418 . S
C576 C575 1.251 . S
C577 H544 0.930 . S
C577 C579 1.406 . S
C577 C582 1.261 . S
C578 H545 0.930 . S
C578 N580 1.325 . S
C578 C581 1.357 . S
C579 H547 0.928 . S
C579 C577 1.406 . S
C579 N580 1.261 . S
N580 Co531 2.214 . S
N580 C578 1.325 . S
N580 C579 1.261 . S
C581 H551 0.931 . S
C581 C578 1.357 . S
C581 C582 1.312 . S
C582 H553 0.930 . S
C582 C577 1.261 . S
C582 C581 1.312 . S
C583 O555 1.214 . S
C583 O563 1.234 . S
C584 H556 0.929 . S
C584 C587 1.391 1_565 S
C584 C589 1.391 . S
C585 H557 0.929 . S
C585 C586 1.390 . S
C585 N588 1.391 . S
C586 H558 0.930 . S
C586 C585 1.390 . S
C586 C587 1.392 1_565 S
C587 H559 0.929 . S
C587 C584 1.391 1_545 S
C587 C586 1.392 1_545 S
N588 Co532 2.257 . S
N588 C585 1.391 . S
N588 C589 1.388 . S
C589 H560 0.930 . S
C589 C584 1.391 . S
C589 N588 1.388 . S
Co590 O592 2.143 . S
Co590 O598 2.074 . S
Co590 O601 2.093 . S
Co590 O614 2.097 . S
Co590 N631 2.151 . S
Co590 N639 2.214 . S
Co591 O592 2.160 . S
Co591 O597 2.058 . S
Co591 O607 2.057 . S
Co591 O622 2.037 . S
Co591 N626 2.145 . S
Co591 N647 2.257 . S
O592 Co590 2.143 . S
O592 Co591 2.160 . S
C593 O594 1.278 . S
C593 O601 1.224 . S
O594 C593 1.278 . S
C595 O596 1.245 . S
C595 O607 1.232 . S
O596 C595 1.245 . S
O597 Co591 2.058 . S
O597 C623 1.269 . S
O598 Co590 2.074 . S
O598 C623 1.257 . S
H599 C624 0.930 . S
H600 C630 0.930 . S
O601 Co590 2.093 . S
O601 C593 1.224 . S
H602 C634 0.929 . S
H603 C636 0.930 . S
H604 C637 0.930 . S
H605 C635 0.929 . S
H606 C638 0.928 . S
O607 Co591 2.057 . S
O607 C595 1.232 . S
H608 C627 0.929 . S
H609 C628 0.929 . S
H610 C640 0.931 . S
H611 C632 0.929 . S
H612 C641 0.930 . S
H613 C633 0.931 . S
O614 Co590 2.097 . S
O614 C642 1.214 . S
H615 C643 0.929 1_545 S
H616 C644 0.929 . S
H617 C645 0.930 1_545 S
H618 C646 0.929 . S
H619 C648 0.930 . S
H620 C625 0.930 . S
H621 C629 0.930 1_545 S
O622 Co591 2.037 . S
O622 C642 1.234 . S
C623 O597 1.269 . S
C623 O598 1.257 . S
C624 H599 0.930 . S
C624 C627 1.388 . S
C624 C629 1.418 . S
C625 H620 0.930 . S
C625 C628 1.404 1_545 S
C625 C629 1.353 1_545 S
N626 Co591 2.145 . S
N626 C627 1.397 . S
N626 C628 1.334 . S
C627 H608 0.929 . S
C627 C624 1.388 . S
C627 N626 1.397 . S
C628 H609 0.929 . S
C628 C625 1.404 1_565 S
C628 N626 1.334 . S
C629 H621 0.930 1_565 S
C629 C624 1.418 . S
C629 C625 1.353 1_565 S
C630 H600 0.930 . S
C630 N631 1.330 . S
C630 C632 1.446 . S
N631 Co590 2.151 . S
N631 C630 1.330 . S
N631 C635 1.418 . S
C632 H611 0.929 . S
C632 C630 1.446 . S
C632 C633 1.332 . S
C633 H613 0.931 . S
C633 C632 1.332 . S
C633 C634 1.267 . S
C634 H602 0.929 . S
C634 C633 1.267 . S
C634 C635 1.251 . S
C635 H605 0.929 . S
C635 N631 1.418 . S
C635 C634 1.251 . S
C636 H603 0.930 . S
C636 C638 1.406 . S
C636 C641 1.261 . S
C637 H604 0.930 . S
C637 N639 1.325 . S
C637 C640 1.357 . S
C638 H606 0.928 . S
C638 C636 1.406 . S
C638 N639 1.261 . S
N639 Co590 2.214 . S
N639 C637 1.325 . S
N639 C638 1.261 . S
C640 H610 0.931 . S
C640 C637 1.357 . S
C640 C641 1.312 . S
C641 H612 0.930 . S
C641 C636 1.261 . S
C641 C640 1.312 . S
C642 O614 1.214 . S
C642 O622 1.234 . S
C643 H615 0.929 1_565 S
C643 C646 1.391 1_565 S
C643 C648 1.391 . S
C644 H616 0.929 . S
C644 C645 1.390 . S
C644 N647 1.391 . S
C645 H617 0.930 1_565 S
C645 C644 1.390 . S
C645 C646 1.392 1_565 S
C646 H618 0.929 . S
C646 C643 1.391 1_545 S
C646 C645 1.392 1_545 S
N647 Co591 2.257 . S
N647 C644 1.391 . S
N647 C648 1.388 . S
C648 H619 0.930 . S
C648 C643 1.391 . S
C648 N647 1.388 . S
Co649 O651 2.143 . S
Co649 O657 2.074 . S
Co649 O660 2.093 . S
Co649 O673 2.097 . S
Co649 N690 2.151 . S
Co649 N698 2.214 . S
Co650 O651 2.160 . S
Co650 O656 2.058 . S
Co650 O666 2.057 . S
Co650 O681 2.037 . S
Co650 N685 2.145 . S
Co650 N706 2.257 . S
O651 Co649 2.143 . S
O651 Co650 2.160 . S
C652 O653 1.278 . S
C652 O660 1.224 . S
O653 C652 1.278 . S
C654 O655 1.245 . S
C654 O666 1.232 . S
O655 C654 1.245 . S
O656 Co650 2.058 . S
O656 C682 1.269 . S
O657 Co649 2.074 . S
O657 C682 1.257 . S
H658 C683 0.930 . S
H659 C689 0.930 . S
O660 Co649 2.093 . S
O660 C652 1.224 . S
H661 C693 0.929 . S
H662 C695 0.930 . S
H663 C696 0.930 . S
H664 C694 0.929 . S
H665 C697 0.928 . S
O666 Co650 2.057 . S
O666 C654 1.232 . S
H667 C686 0.929 . S
H668 C687 0.929 . S
H669 C699 0.931 . S
H670 C691 0.929 . S
H671 C700 0.930 . S
H672 C692 0.931 . S
O673 Co649 2.097 . S
O673 C701 1.214 . S
H674 C702 0.929 . S
H675 C703 0.929 . S
H676 C704 0.930 . S
H677 C705 0.929 . S
H678 C707 0.930 . S
H679 C684 0.930 . S
H680 C688 0.930 . S
O681 Co650 2.037 . S
O681 C701 1.234 . S
C682 O656 1.269 . S
C682 O657 1.257 . S
C683 H658 0.930 . S
C683 C686 1.388 . S
C683 C688 1.418 . S
C684 H679 0.930 . S
C684 C687 1.404 . S
C684 C688 1.353 . S
N685 Co650 2.145 . S
N685 C686 1.397 . S
N685 C687 1.334 . S
C686 H667 0.929 . S
C686 C683 1.388 . S
C686 N685 1.397 . S
C687 H668 0.929 . S
C687 C684 1.404 . S
C687 N685 1.334 . S
C688 H680 0.930 . S
C688 C683 1.418 . S
C688 C684 1.353 . S
C689 H659 0.930 . S
C689 N690 1.330 . S
C689 C691 1.446 . S
N690 Co649 2.151 . S
N690 C689 1.330 . S
N690 C694 1.418 . S
C691 H670 0.929 . S
C691 C689 1.446 . S
C691 C692 1.332 . S
C692 H672 0.931 . S
C692 C691 1.332 . S
C692 C693 1.267 . S
C693 H661 0.929 . S
C693 C692 1.267 . S
C693 C694 1.251 . S
C694 H664 0.929 . S
C694 N690 1.418 . S
C694 C693 1.251 . S
C695 H662 0.930 . S
C695 C697 1.406 . S
C695 C700 1.261 . S
C696 H663 0.930 . S
C696 N698 1.325 . S
C696 C699 1.357 . S
C697 H665 0.928 . S
C697 C695 1.406 . S
C697 N698 1.261 . S
N698 Co649 2.214 . S
N698 C696 1.325 . S
N698 C697 1.261 . S
C699 H669 0.931 . S
C699 C696 1.357 . S
C699 C700 1.312 . S
C700 H671 0.930 . S
C700 C695 1.261 . S
C700 C699 1.312 . S
C701 O673 1.214 . S
C701 O681 1.234 . S
C702 H674 0.929 . S
C702 C705 1.391 . S
C702 C707 1.391 . S
C703 H675 0.929 . S
C703 C704 1.390 . S
C703 N706 1.391 . S
C704 H676 0.930 . S
C704 C703 1.390 . S
C704 C705 1.392 . S
C705 H677 0.929 . S
C705 C702 1.391 . S
C705 C704 1.392 . S
N706 Co650 2.257 . S
N706 C703 1.391 . S
N706 C707 1.388 . S
C707 H678 0.930 . S
C707 C702 1.391 . S
C707 N706 1.388 . S
Co708 O710 2.143 . S
Co708 O716 2.074 . S
Co708 O719 2.093 . S
Co708 O732 2.097 . S
Co708 N749 2.151 . S
Co708 N757 2.214 . S
Co709 O710 2.160 . S
Co709 O715 2.058 . S
Co709 O725 2.057 . S
Co709 O740 2.037 . S
Co709 N744 2.145 . S
Co709 N765 2.257 . S
O710 Co708 2.143 . S
O710 Co709 2.160 . S
C711 O712 1.278 . S
C711 O719 1.224 . S
O712 C711 1.278 . S
C713 O714 1.245 . S
C713 O725 1.232 . S
O714 C713 1.245 . S
O715 Co709 2.058 . S
O715 C741 1.269 . S
O716 Co708 2.074 . S
O716 C741 1.257 . S
H717 C742 0.930 . S
H718 C748 0.930 . S
O719 Co708 2.093 . S
O719 C711 1.224 . S
H720 C752 0.929 . S
H721 C754 0.930 . S
H722 C755 0.930 . S
H723 C753 0.929 . S
H724 C756 0.928 . S
O725 Co709 2.057 . S
O725 C713 1.232 . S
H726 C745 0.929 . S
H727 C746 0.929 . S
H728 C758 0.931 . S
H729 C750 0.929 . S
H730 C759 0.930 . S
H731 C751 0.931 . S
O732 Co708 2.097 . S
O732 C760 1.214 . S
H733 C761 0.929 . S
H734 C762 0.929 . S
H735 C763 0.930 . S
H736 C764 0.929 . S
H737 C766 0.930 . S
H738 C743 0.930 . S
H739 C747 0.930 . S
O740 Co709 2.037 . S
O740 C760 1.234 . S
C741 O715 1.269 . S
C741 O716 1.257 . S
C742 H717 0.930 . S
C742 C745 1.388 . S
C742 C747 1.418 . S
C743 H738 0.930 . S
C743 C746 1.404 . S
C743 C747 1.353 . S
N744 Co709 2.145 . S
N744 C745 1.397 . S
N744 C746 1.334 . S
C745 H726 0.929 . S
C745 C742 1.388 . S
C745 N744 1.397 . S
C746 H727 0.929 . S
C746 C743 1.404 . S
C746 N744 1.334 . S
C747 H739 0.930 . S
C747 C742 1.418 . S
C747 C743 1.353 . S
C748 H718 0.930 . S
C748 N749 1.330 . S
C748 C750 1.446 . S
N749 Co708 2.151 . S
N749 C748 1.330 . S
N749 C753 1.418 . S
C750 H729 0.929 . S
C750 C748 1.446 . S
C750 C751 1.332 . S
C751 H731 0.931 . S
C751 C750 1.332 . S
C751 C752 1.267 . S
C752 H720 0.929 . S
C752 C751 1.267 . S
C752 C753 1.251 . S
C753 H723 0.929 . S
C753 N749 1.418 . S
C753 C752 1.251 . S
C754 H721 0.930 . S
C754 C756 1.406 . S
C754 C759 1.261 . S
C755 H722 0.930 . S
C755 N757 1.325 . S
C755 C758 1.357 . S
C756 H724 0.928 . S
C756 C754 1.406 . S
C756 N757 1.261 . S
N757 Co708 2.214 . S
N757 C755 1.325 . S
N757 C756 1.261 . S
C758 H728 0.931 . S
C758 C755 1.357 . S
C758 C759 1.312 . S
C759 H730 0.930 . S
C759 C754 1.261 . S
C759 C758 1.312 . S
C760 O732 1.214 . S
C760 O740 1.234 . S
C761 H733 0.929 . S
C761 C764 1.391 . S
C761 C766 1.391 . S
C762 H734 0.929 . S
C762 C763 1.390 . S
C762 N765 1.391 . S
C763 H735 0.930 . S
C763 C762 1.390 . S
C763 C764 1.392 . S
C764 H736 0.929 . S
C764 C761 1.391 . S
C764 C763 1.392 . S
N765 Co709 2.257 . S
N765 C762 1.391 . S
N765 C766 1.388 . S
C766 H737 0.930 . S
C766 C761 1.391 . S
C766 N765 1.388 . S
Co767 O769 2.143 . S
Co767 O775 2.074 . S
Co767 O778 2.093 . S
Co767 O791 2.097 . S
Co767 N808 2.151 . S
Co767 N816 2.214 . S
Co768 O769 2.160 . S
Co768 O774 2.058 . S
Co768 O784 2.057 . S
Co768 O799 2.037 . S
Co768 N803 2.145 . S
Co768 N824 2.257 . S
O769 Co767 2.143 . S
O769 Co768 2.160 . S
C770 O771 1.278 . S
C770 O778 1.224 . S
O771 C770 1.278 . S
C772 O773 1.245 . S
C772 O784 1.232 . S
O773 C772 1.245 . S
O774 Co768 2.058 . S
O774 C800 1.269 . S
O775 Co767 2.074 . S
O775 C800 1.257 . S
H776 C801 0.930 . S
H777 C807 0.930 . S
O778 Co767 2.093 . S
O778 C770 1.224 . S
H779 C811 0.929 . S
H780 C813 0.930 . S
H781 C814 0.930 . S
H782 C812 0.929 . S
H783 C815 0.928 . S
O784 Co768 2.057 . S
O784 C772 1.232 . S
H785 C804 0.929 . S
H786 C805 0.929 . S
H787 C817 0.931 . S
H788 C809 0.929 . S
H789 C818 0.930 . S
H790 C810 0.931 . S
O791 Co767 2.097 . S
O791 C819 1.214 . S
H792 C820 0.929 . S
H793 C821 0.929 . S
H794 C822 0.930 . S
H795 C823 0.929 . S
H796 C825 0.930 . S
H797 C802 0.930 . S
H798 C806 0.930 1_565 S
O799 Co768 2.037 . S
O799 C819 1.234 . S
C800 O774 1.269 . S
C800 O775 1.257 . S
C801 H776 0.930 . S
C801 C804 1.388 . S
C801 C806 1.418 . S
C802 H797 0.930 . S
C802 C805 1.404 1_565 S
C802 C806 1.353 1_565 S
N803 Co768 2.145 . S
N803 C804 1.397 . S
N803 C805 1.334 . S
C804 H785 0.929 . S
C804 C801 1.388 . S
C804 N803 1.397 . S
C805 H786 0.929 . S
C805 C802 1.404 1_545 S
C805 N803 1.334 . S
C806 H798 0.930 1_545 S
C806 C801 1.418 . S
C806 C802 1.353 1_545 S
C807 H777 0.930 . S
C807 N808 1.330 . S
C807 C809 1.446 . S
N808 Co767 2.151 . S
N808 C807 1.330 . S
N808 C812 1.418 . S
C809 H788 0.929 . S
C809 C807 1.446 . S
C809 C810 1.332 . S
C810 H790 0.931 . S
C810 C809 1.332 . S
C810 C811 1.267 . S
C811 H779 0.929 . S
C811 C810 1.267 . S
C811 C812 1.251 . S
C812 H782 0.929 . S
C812 N808 1.418 . S
C812 C811 1.251 . S
C813 H780 0.930 . S
C813 C815 1.406 . S
C813 C818 1.261 . S
C814 H781 0.930 . S
C814 N816 1.325 . S
C814 C817 1.357 . S
C815 H783 0.928 . S
C815 C813 1.406 . S
C815 N816 1.261 . S
N816 Co767 2.214 . S
N816 C814 1.325 . S
N816 C815 1.261 . S
C817 H787 0.931 . S
C817 C814 1.357 . S
C817 C818 1.312 . S
C818 H789 0.930 . S
C818 C813 1.261 . S
C818 C817 1.312 . S
C819 O791 1.214 . S
C819 O799 1.234 . S
C820 H792 0.929 . S
C820 C823 1.391 1_545 S
C820 C825 1.391 . S
C821 H793 0.929 . S
C821 C822 1.390 . S
C821 N824 1.391 . S
C822 H794 0.930 . S
C822 C821 1.390 . S
C822 C823 1.392 1_545 S
C823 H795 0.929 . S
C823 C820 1.391 1_565 S
C823 C822 1.392 1_565 S
N824 Co768 2.257 . S
N824 C821 1.391 . S
N824 C825 1.388 . S
C825 H796 0.930 . S
C825 C820 1.391 . S
C825 N824 1.388 . S
Co826 O828 2.143 . S
Co826 O834 2.074 . S
Co826 O837 2.093 . S
Co826 O850 2.097 . S
Co826 N867 2.151 . S
Co826 N875 2.214 . S
Co827 O828 2.160 . S
Co827 O833 2.058 . S
Co827 O843 2.057 . S
Co827 O858 2.037 . S
Co827 N862 2.145 . S
Co827 N883 2.257 . S
O828 Co826 2.143 . S
O828 Co827 2.160 . S
C829 O830 1.278 . S
C829 O837 1.224 . S
O830 C829 1.278 . S
C831 O832 1.245 . S
C831 O843 1.232 . S
O832 C831 1.245 . S
O833 Co827 2.058 . S
O833 C859 1.269 . S
O834 Co826 2.074 . S
O834 C859 1.257 . S
H835 C860 0.930 . S
H836 C866 0.930 . S
O837 Co826 2.093 . S
O837 C829 1.224 . S
H838 C870 0.929 . S
H839 C872 0.930 . S
H840 C873 0.930 . S
H841 C871 0.929 . S
H842 C874 0.928 . S
O843 Co827 2.057 . S
O843 C831 1.232 . S
H844 C863 0.929 . S
H845 C864 0.929 . S
H846 C876 0.931 . S
H847 C868 0.929 . S
H848 C877 0.930 . S
H849 C869 0.931 . S
O850 Co826 2.097 . S
O850 C878 1.214 . S
H851 C879 0.929 1_565 S
H852 C880 0.929 . S
H853 C881 0.930 1_565 S
H854 C882 0.929 . S
H855 C884 0.930 . S
H856 C861 0.930 . S
H857 C865 0.930 1_565 S
O858 Co827 2.037 . S
O858 C878 1.234 . S
C859 O833 1.269 . S
C859 O834 1.257 . S
C860 H835 0.930 . S
C860 C863 1.388 . S
C860 C865 1.418 . S
C861 H856 0.930 . S
C861 C864 1.404 1_565 S
C861 C865 1.353 1_565 S
N862 Co827 2.145 . S
N862 C863 1.397 . S
N862 C864 1.334 . S
C863 H844 0.929 . S
C863 C860 1.388 . S
C863 N862 1.397 . S
C864 H845 0.929 . S
C864 C861 1.404 1_545 S
C864 N862 1.334 . S
C865 H857 0.930 1_545 S
C865 C860 1.418 . S
C865 C861 1.353 1_545 S
C866 H836 0.930 . S
C866 N867 1.330 . S
C866 C868 1.446 . S
N867 Co826 2.151 . S
N867 C866 1.330 . S
N867 C871 1.418 . S
C868 H847 0.929 . S
C868 C866 1.446 . S
C868 C869 1.332 . S
C869 H849 0.931 . S
C869 C868 1.332 . S
C869 C870 1.267 . S
C870 H838 0.929 . S
C870 C869 1.267 . S
C870 C871 1.251 . S
C871 H841 0.929 . S
C871 N867 1.418 . S
C871 C870 1.251 . S
C872 H839 0.930 . S
C872 C874 1.406 . S
C872 C877 1.261 . S
C873 H840 0.930 . S
C873 N875 1.325 . S
C873 C876 1.357 . S
C874 H842 0.928 . S
C874 C872 1.406 . S
C874 N875 1.261 . S
N875 Co826 2.214 . S
N875 C873 1.325 . S
N875 C874 1.261 . S
C876 H846 0.931 . S
C876 C873 1.357 . S
C876 C877 1.312 . S
C877 H848 0.930 . S
C877 C872 1.261 . S
C877 C876 1.312 . S
C878 O850 1.214 . S
C878 O858 1.234 . S
C879 H851 0.929 1_545 S
C879 C882 1.391 1_545 S
C879 C884 1.391 . S
C880 H852 0.929 . S
C880 C881 1.390 . S
C880 N883 1.391 . S
C881 H853 0.930 1_545 S
C881 C880 1.390 . S
C881 C882 1.392 1_545 S
C882 H854 0.929 . S
C882 C879 1.391 1_565 S
C882 C881 1.392 1_565 S
N883 Co827 2.257 . S
N883 C880 1.391 . S
N883 C884 1.388 . S
C884 H855 0.930 . S
C884 C879 1.391 . S
C884 N883 1.388 . S
Co885 O887 2.143 . S
Co885 O893 2.074 . S
Co885 O896 2.093 . S
Co885 O909 2.097 . S
Co885 N926 2.151 . S
Co885 N934 2.214 . S
Co886 O887 2.160 . S
Co886 O892 2.058 . S
Co886 O902 2.057 . S
Co886 O917 2.037 . S
Co886 N921 2.145 . S
Co886 N942 2.257 . S
O887 Co885 2.143 . S
O887 Co886 2.160 . S
C888 O889 1.278 . S
C888 O896 1.224 . S
O889 C888 1.278 . S
C890 O891 1.245 . S
C890 O902 1.232 . S
O891 C890 1.245 . S
O892 Co886 2.058 . S
O892 C918 1.269 . S
O893 Co885 2.074 . S
O893 C918 1.257 . S
H894 C919 0.930 . S
H895 C925 0.930 . S
O896 Co885 2.093 . S
O896 C888 1.224 . S
H897 C929 0.929 . S
H898 C931 0.930 . S
H899 C932 0.930 . S
H900 C930 0.929 . S
H901 C933 0.928 . S
O902 Co886 2.057 . S
O902 C890 1.232 . S
H903 C922 0.929 . S
H904 C923 0.929 . S
H905 C935 0.931 . S
H906 C927 0.929 . S
H907 C936 0.930 . S
H908 C928 0.931 . S
O909 Co885 2.097 . S
O909 C937 1.214 . S
H910 C938 0.929 . S
H911 C939 0.929 . S
H912 C940 0.930 . S
H913 C941 0.929 . S
H914 C943 0.930 . S
H915 C920 0.930 . S
H916 C924 0.930 . S
O917 Co886 2.037 . S
O917 C937 1.234 . S
C918 O892 1.269 . S
C918 O893 1.257 . S
C919 H894 0.930 . S
C919 C922 1.388 . S
C919 C924 1.418 . S
C920 H915 0.930 . S
C920 C923 1.404 . S
C920 C924 1.353 . S
N921 Co886 2.145 . S
N921 C922 1.397 . S
N921 C923 1.334 . S
C922 H903 0.929 . S
C922 C919 1.388 . S
C922 N921 1.397 . S
C923 H904 0.929 . S
C923 C920 1.404 . S
C923 N921 1.334 . S
C924 H916 0.930 . S
C924 C919 1.418 . S
C924 C920 1.353 . S
C925 H895 0.930 . S
C925 N926 1.330 . S
C925 C927 1.446 . S
N926 Co885 2.151 . S
N926 C925 1.330 . S
N926 C930 1.418 . S
C927 H906 0.929 . S
C927 C925 1.446 . S
C927 C928 1.332 . S
C928 H908 0.931 . S
C928 C927 1.332 . S
C928 C929 1.267 . S
C929 H897 0.929 . S
C929 C928 1.267 . S
C929 C930 1.251 . S
C930 H900 0.929 . S
C930 N926 1.418 . S
C930 C929 1.251 . S
C931 H898 0.930 . S
C931 C933 1.406 . S
C931 C936 1.261 . S
C932 H899 0.930 . S
C932 N934 1.325 . S
C932 C935 1.357 . S
C933 H901 0.928 . S
C933 C931 1.406 . S
C933 N934 1.261 . S
N934 Co885 2.214 . S
N934 C932 1.325 . S
N934 C933 1.261 . S
C935 H905 0.931 . S
C935 C932 1.357 . S
C935 C936 1.312 . S
C936 H907 0.930 . S
C936 C931 1.261 . S
C936 C935 1.312 . S
C937 O909 1.214 . S
C937 O917 1.234 . S
C938 H910 0.929 . S
C938 C941 1.391 . S
C938 C943 1.391 . S
C939 H911 0.929 . S
C939 C940 1.390 . S
C939 N942 1.391 . S
C940 H912 0.930 . S
C940 C939 1.390 . S
C940 C941 1.392 . S
C941 H913 0.929 . S
C941 C938 1.391 . S
C941 C940 1.392 . S
N942 Co886 2.257 . S
N942 C939 1.391 . S
N942 C943 1.388 . S
C943 H914 0.930 . S
C943 C938 1.391 . S
C943 N942 1.388 . S
Co944 O946 2.145 1_455 S
Co944 O952 2.074 . S
Co944 O955 2.093 . S
Co944 O968 2.097 . S
Co944 N985 2.151 1_455 S
Co944 N993 2.214 . S
Co945 O946 2.159 1_465 S
Co945 O951 2.058 1_465 S
Co945 O961 2.057 1_455 S
Co945 O976 2.037 . S
Co945 N980 2.145 . S
Co945 N1001 2.257 . S
O946 Co944 2.145 1_655 S
O946 Co945 2.159 1_645 S
C947 O948 1.280 1_545 S
C947 O955 1.224 . S
O948 C947 1.280 1_565 S
C949 O950 1.245 . S
C949 O961 1.232 . S
O950 C949 1.245 . S
O951 Co945 2.058 1_645 S
O951 C977 1.269 . S
O952 Co944 2.074 . S
O952 C977 1.257 1_455 S
H953 C978 0.930 . S
H954 C984 0.930 . S
O955 Co944 2.093 . S
O955 C947 1.224 . S
H956 C988 0.929 . S
H957 C990 0.930 . S
H958 C991 0.930 . S
H959 C989 0.929 . S
H960 C992 0.928 . S
O961 Co945 2.057 1_655 S
O961 C949 1.232 . S
H962 C981 0.929 . S
H963 C982 0.929 1_655 S
H964 C994 0.931 . S
H965 C986 0.929 . S
H966 C995 0.930 . S
H967 C987 0.931 . S
O968 Co944 2.097 . S
O968 C996 1.214 . S
H969 C997 0.929 . S
H970 C998 0.929 . S
H971 C999 0.930 . S
H972 C1000 0.929 . S
H973 C1002 0.930 1_655 S
H974 C979 0.933 . S
H975 C983 0.930 . S
O976 Co945 2.037 . S
O976 C996 1.234 1_565 S
C977 O951 1.269 . S
C977 O952 1.257 1_655 S
C978 H953 0.930 . S
C978 C981 1.388 . S
C978 C983 1.418 . S
C979 H974 0.933 . S
C979 C982 1.404 . S
C979 C983 1.353 . S
N980 Co945 2.145 . S
N980 C981 1.397 . S
N980 C982 1.334 . S
C981 H962 0.929 . S
C981 C978 1.388 . S
C981 N980 1.397 . S
C982 H963 0.929 1_455 S
C982 C979 1.404 . S
C982 N980 1.334 . S
C983 H975 0.930 . S
C983 C978 1.418 . S
C983 C979 1.353 . S
C984 H954 0.930 . S
C984 N985 1.330 . S
C984 C986 1.446 . S
N985 Co944 2.151 1_655 S
N985 C984 1.330 . S
N985 C989 1.418 . S
C986 H965 0.929 . S
C986 C984 1.446 . S
C986 C987 1.332 . S
C987 H967 0.931 . S
C987 C986 1.332 . S
C987 C988 1.267 . S
C988 H956 0.929 . S
C988 C987 1.267 . S
C988 C989 1.251 . S
C989 H959 0.929 . S
C989 N985 1.418 . S
C989 C988 1.251 . S
C990 H957 0.930 . S
C990 C992 1.406 . S
C990 C995 1.261 . S
C991 H958 0.930 . S
C991 N993 1.325 . S
C991 C994 1.357 . S
C992 H960 0.928 . S
C992 C990 1.406 . S
C992 N993 1.261 . S
N993 Co944 2.214 . S
N993 C991 1.325 . S
N993 C992 1.261 . S
C994 H964 0.931 . S
C994 C991 1.357 . S
C994 C995 1.312 . S
C995 H966 0.930 . S
C995 C990 1.261 . S
C995 C994 1.312 . S
C996 O968 1.214 . S
C996 O976 1.234 1_545 S
C997 H969 0.929 . S
C997 C1000 1.391 . S
C997 C1002 1.391 . S
C998 H970 0.929 . S
C998 C999 1.390 . S
C998 N1001 1.391 . S
C999 H971 0.930 . S
C999 C998 1.390 . S
C999 C1000 1.392 . S
C1000 H972 0.929 . S
C1000 C997 1.391 . S
C1000 C999 1.392 . S
N1001 Co945 2.257 . S
N1001 C998 1.391 . S
N1001 C1002 1.388 . S
C1002 H973 0.930 1_455 S
C1002 C997 1.391 . S
C1002 N1001 1.388 . S
Co1003 O1005 2.143 . S
Co1003 O1011 2.074 . S
Co1003 O1014 2.093 . S
Co1003 O1027 2.097 . S
Co1003 N1044 2.151 . S
Co1003 N1052 2.214 . S
Co1004 O1005 2.160 . S
Co1004 O1010 2.058 . S
Co1004 O1020 2.057 . S
Co1004 O1035 2.037 . S
Co1004 N1039 2.145 . S
Co1004 N1060 2.257 . S
O1005 Co1003 2.143 . S
O1005 Co1004 2.160 . S
C1006 O1007 1.278 . S
C1006 O1014 1.224 . S
O1007 C1006 1.278 . S
C1008 O1009 1.245 . S
C1008 O1020 1.232 . S
O1009 C1008 1.245 . S
O1010 Co1004 2.058 . S
O1010 C1036 1.269 . S
O1011 Co1003 2.074 . S
O1011 C1036 1.257 . S
H1012 C1037 0.930 . S
H1013 C1043 0.930 . S
O1014 Co1003 2.093 . S
O1014 C1006 1.224 . S
H1015 C1047 0.929 . S
H1016 C1049 0.930 1_565 S
H1017 C1050 0.930 . S
H1018 C1048 0.929 . S
H1019 C1051 0.928 . S
O1020 Co1004 2.057 . S
O1020 C1008 1.232 . S
H1021 C1040 0.929 . S
H1022 C1041 0.929 . S
H1023 C1053 0.931 . S
H1024 C1045 0.929 . S
H1025 C1054 0.930 . S
H1026 C1046 0.931 . S
O1027 Co1003 2.097 . S
O1027 C1055 1.214 . S
H1028 C1056 0.929 . S
H1029 C1057 0.929 . S
H1030 C1058 0.930 . S
H1031 C1059 0.929 . S
H1032 C1061 0.930 . S
H1033 C1038 0.930 . S
H1034 C1042 0.930 . S
O1035 Co1004 2.037 . S
O1035 C1055 1.234 . S
C1036 O1010 1.269 . S
C1036 O1011 1.257 . S
C1037 H1012 0.930 . S
C1037 C1040 1.388 . S
C1037 C1042 1.418 . S
C1038 H1033 0.930 . S
C1038 C1041 1.404 . S
C1038 C1042 1.353 . S
N1039 Co1004 2.145 . S
N1039 C1040 1.397 . S
N1039 C1041 1.334 . S
C1040 H1021 0.929 . S
C1040 C1037 1.388 . S
C1040 N1039 1.397 . S
C1041 H1022 0.929 . S
C1041 C1038 1.404 . S
C1041 N1039 1.334 . S
C1042 H1034 0.930 . S
C1042 C1037 1.418 . S
C1042 C1038 1.353 . S
C1043 H1013 0.930 . S
C1043 N1044 1.330 . S
C1043 C1045 1.446 . S
N1044 Co1003 2.151 . S
N1044 C1043 1.330 . S
N1044 C1048 1.418 . S
C1045 H1024 0.929 . S
C1045 C1043 1.446 . S
C1045 C1046 1.332 . S
C1046 H1026 0.931 . S
C1046 C1045 1.332 . S
C1046 C1047 1.267 . S
C1047 H1015 0.929 . S
C1047 C1046 1.267 . S
C1047 C1048 1.251 . S
C1048 H1018 0.929 . S
C1048 N1044 1.418 . S
C1048 C1047 1.251 . S
C1049 H1016 0.930 1_545 S
C1049 C1051 1.406 . S
C1049 C1054 1.261 1_545 S
C1050 H1017 0.930 . S
C1050 N1052 1.325 . S
C1050 C1053 1.357 . S
C1051 H1019 0.928 . S
C1051 C1049 1.406 . S
C1051 N1052 1.261 . S
N1052 Co1003 2.214 . S
N1052 C1050 1.325 . S
N1052 C1051 1.261 . S
C1053 H1023 0.931 . S
C1053 C1050 1.357 . S
C1053 C1054 1.312 1_545 S
C1054 H1025 0.930 . S
C1054 C1049 1.261 1_565 S
C1054 C1053 1.312 1_565 S
C1055 O1027 1.214 . S
C1055 O1035 1.234 . S
C1056 H1028 0.929 . S
C1056 C1059 1.391 . S
C1056 C1061 1.391 . S
C1057 H1029 0.929 . S
C1057 C1058 1.390 . S
C1057 N1060 1.391 . S
C1058 H1030 0.930 . S
C1058 C1057 1.390 . S
C1058 C1059 1.392 . S
C1059 H1031 0.929 . S
C1059 C1056 1.391 . S
C1059 C1058 1.392 . S
N1060 Co1004 2.257 . S
N1060 C1057 1.391 . S
N1060 C1061 1.388 . S
C1061 H1032 0.930 . S
C1061 C1056 1.391 . S
C1061 N1060 1.388 . S
Co1062 O1064 2.143 1_455 S
Co1062 O1070 2.074 . S
Co1062 O1073 2.093 . S
Co1062 O1086 2.097 . S
Co1062 N1103 2.151 1_455 S
Co1062 N1111 2.214 . S
Co1063 O1064 2.160 1_455 S
Co1063 O1069 2.058 1_455 S
Co1063 O1079 2.057 1_455 S
Co1063 O1094 2.037 . S
Co1063 N1098 2.145 . S
Co1063 N1119 2.257 . S
O1064 Co1062 2.143 1_655 S
O1064 Co1063 2.160 1_655 S
C1065 O1066 1.280 . S
C1065 O1073 1.224 . S
O1066 C1065 1.280 . S
C1067 O1068 1.245 . S
C1067 O1079 1.232 . S
O1068 C1067 1.245 . S
O1069 Co1063 2.058 1_655 S
O1069 C1095 1.269 . S
O1070 Co1062 2.074 . S
O1070 C1095 1.257 1_455 S
H1071 C1096 0.930 . S
H1072 C1102 0.930 . S
O1073 Co1062 2.093 . S
O1073 C1065 1.224 . S
H1074 C1106 0.929 1_565 S
H1075 C1108 0.930 . S
H1076 C1109 0.930 . S
H1077 C1107 0.929 . S
H1078 C1110 0.928 . S
O1079 Co1063 2.057 1_655 S
O1079 C1067 1.232 . S
H1080 C1099 0.929 . S
H1081 C1100 0.914 1_655 S
H1082 C1112 0.931 1_565 S
H1083 C1104 0.929 . S
H1084 C1113 0.930 . S
H1085 C1105 0.931 . S
O1086 Co1062 2.097 . S
O1086 C1114 1.214 . S
H1087 C1115 0.929 1_655 S
H1088 C1116 0.929 . S
H1089 C1117 0.930 . S
H1090 C1118 0.929 . S
H1091 C1120 0.924 1_655 S
H1092 C1097 0.930 1_655 S
H1093 C1101 0.930 . S
O1094 Co1063 2.037 . S
O1094 C1114 1.234 . S
C1095 O1069 1.269 . S
C1095 O1070 1.257 1_655 S
C1096 H1071 0.930 . S
C1096 C1099 1.388 . S
C1096 C1101 1.418 . S
C1097 H1092 0.930 1_455 S
C1097 C1100 1.409 . S
C1097 C1101 1.353 . S
N1098 Co1063 2.145 . S
N1098 C1099 1.397 . S
N1098 C1100 1.345 . S
C1099 H1080 0.929 . S
C1099 C1096 1.388 . S
C1099 N1098 1.397 . S
C1100 H1081 0.914 1_455 S
C1100 C1097 1.409 . S
C1100 N1098 1.345 . S
C1101 H1093 0.930 . S
C1101 C1096 1.418 . S
C1101 C1097 1.353 . S
C1102 H1072 0.930 . S
C1102 N1103 1.330 . S
C1102 C1104 1.446 . S
N1103 Co1062 2.151 1_655 S
N1103 C1102 1.330 . S
N1103 C1107 1.418 . S
C1104 H1083 0.929 . S
C1104 C1102 1.446 . S
C1104 C1105 1.332 . S
C1105 H1085 0.931 . S
C1105 C1104 1.332 . S
C1105 C1106 1.267 . S
C1106 H1074 0.929 1_545 S
C1106 C1105 1.267 . S
C1106 C1107 1.251 . S
C1107 H1077 0.929 . S
C1107 N1103 1.418 . S
C1107 C1106 1.251 . S
C1108 H1075 0.930 . S
C1108 C1110 1.406 1_565 S
C1108 C1113 1.261 . S
C1109 H1076 0.930 . S
C1109 N1111 1.325 . S
C1109 C1112 1.357 . S
C1110 H1078 0.928 . S
C1110 C1108 1.406 1_545 S
C1110 N1111 1.261 . S
N1111 Co1062 2.214 . S
N1111 C1109 1.325 . S
N1111 C1110 1.261 . S
C1112 H1082 0.931 1_545 S
C1112 C1109 1.357 . S
C1112 C1113 1.312 1_545 S
C1113 H1084 0.930 . S
C1113 C1108 1.261 . S
C1113 C1112 1.312 1_565 S
C1114 O1086 1.214 . S
C1114 O1094 1.234 . S
C1115 H1087 0.929 1_455 S
C1115 C1118 1.391 . S
C1115 C1120 1.393 . S
C1116 H1088 0.929 . S
C1116 C1117 1.390 . S
C1116 N1119 1.391 . S
C1117 H1089 0.930 . S
C1117 C1116 1.390 . S
C1117 C1118 1.392 . S
C1118 H1090 0.929 . S
C1118 C1115 1.391 . S
C1118 C1117 1.392 . S
N1119 Co1063 2.257 . S
N1119 C1116 1.391 . S
N1119 C1120 1.393 . S
C1120 H1091 0.924 1_455 S
C1120 C1115 1.393 . S
C1120 N1119 1.393 . S
Co1121 O1123 2.143 1_545 S
Co1121 O1129 2.074 . S
Co1121 O1132 2.093 . S
Co1121 O1145 2.097 . S
Co1121 N1162 2.151 . S
Co1121 N1170 2.214 . S
Co1122 O1123 2.160 . S
Co1122 O1128 2.058 1_565 S
Co1122 O1138 2.057 . S
Co1122 O1153 2.037 . S
Co1122 N1157 2.145 . S
Co1122 N1178 2.257 . S
O1123 Co1121 2.143 1_565 S
O1123 Co1122 2.160 . S
C1124 O1125 1.278 1_545 S
C1124 O1132 1.224 . S
O1125 C1124 1.278 1_565 S
C1126 O1127 1.245 . S
C1126 O1138 1.232 . S
O1127 C1126 1.245 . S
O1128 Co1122 2.058 1_545 S
O1128 C1154 1.269 . S
O1129 Co1121 2.074 . S
O1129 C1154 1.257 . S
H1130 C1155 0.930 . S
H1131 C1161 0.930 . S
O1132 Co1121 2.093 . S
O1132 C1124 1.224 . S
H1133 C1165 0.929 . S
H1134 C1167 0.930 . S
H1135 C1168 0.930 . S
H1136 C1166 0.929 . S
H1137 C1169 0.928 . S
O1138 Co1122 2.057 . S
O1138 C1126 1.232 . S
H1139 C1158 0.929 . S
H1140 C1159 0.929 . S
H1141 C1171 0.931 . S
H1142 C1163 0.929 . S
H1143 C1172 0.930 . S
H1144 C1164 0.931 . S
O1145 Co1121 2.097 . S
O1145 C1173 1.214 . S
H1146 C1174 0.929 . S
H1147 C1175 0.929 . S
H1148 C1176 0.930 . S
H1149 C1177 0.929 . S
H1150 C1179 0.930 . S
H1151 C1156 0.930 . S
H1152 C1160 0.930 . S
O1153 Co1122 2.037 . S
O1153 C1173 1.234 1_565 S
C1154 O1128 1.269 . S
C1154 O1129 1.257 . S
C1155 H1130 0.930 . S
C1155 C1158 1.388 . S
C1155 C1160 1.418 . S
C1156 H1151 0.930 . S
C1156 C1159 1.404 . S
C1156 C1160 1.353 . S
N1157 Co1122 2.145 . S
N1157 C1158 1.397 . S
N1157 C1159 1.334 . S
C1158 H1139 0.929 . S
C1158 C1155 1.388 . S
C1158 N1157 1.397 . S
C1159 H1140 0.929 . S
C1159 C1156 1.404 . S
C1159 N1157 1.334 . S
C1160 H1152 0.930 . S
C1160 C1155 1.418 . S
C1160 C1156 1.353 . S
C1161 H1131 0.930 . S
C1161 N1162 1.330 . S
C1161 C1163 1.446 . S
N1162 Co1121 2.151 . S
N1162 C1161 1.330 . S
N1162 C1166 1.418 . S
C1163 H1142 0.929 . S
C1163 C1161 1.446 . S
C1163 C1164 1.332 . S
C1164 H1144 0.931 . S
C1164 C1163 1.332 . S
C1164 C1165 1.267 . S
C1165 H1133 0.929 . S
C1165 C1164 1.267 . S
C1165 C1166 1.251 . S
C1166 H1136 0.929 . S
C1166 N1162 1.418 . S
C1166 C1165 1.251 . S
C1167 H1134 0.930 . S
C1167 C1169 1.406 . S
C1167 C1172 1.261 . S
C1168 H1135 0.930 . S
C1168 N1170 1.325 . S
C1168 C1171 1.357 . S
C1169 H1137 0.928 . S
C1169 C1167 1.406 . S
C1169 N1170 1.261 . S
N1170 Co1121 2.214 . S
N1170 C1168 1.325 . S
N1170 C1169 1.261 . S
C1171 H1141 0.931 . S
C1171 C1168 1.357 . S
C1171 C1172 1.312 . S
C1172 H1143 0.930 . S
C1172 C1167 1.261 . S
C1172 C1171 1.312 . S
C1173 O1145 1.214 . S
C1173 O1153 1.234 1_545 S
C1174 H1146 0.929 . S
C1174 C1177 1.391 . S
C1174 C1179 1.391 . S
C1175 H1147 0.929 . S
C1175 C1176 1.390 . S
C1175 N1178 1.391 . S
C1176 H1148 0.930 . S
C1176 C1175 1.390 . S
C1176 C1177 1.392 . S
C1177 H1149 0.929 . S
C1177 C1174 1.391 . S
C1177 C1176 1.392 . S
N1178 Co1122 2.257 . S
N1178 C1175 1.391 . S
N1178 C1179 1.388 . S
C1179 H1150 0.930 . S
C1179 C1174 1.391 . S
C1179 N1178 1.388 . S
Co1180 O1182 2.145 1_655 S
Co1180 O1188 2.074 . S
Co1180 O1191 2.093 . S
Co1180 O1204 2.097 . S
Co1180 N1221 2.151 1_655 S
Co1180 N1229 2.214 . S
Co1181 O1182 2.159 1_645 S
Co1181 O1187 2.058 1_645 S
Co1181 O1197 2.057 1_655 S
Co1181 O1212 2.037 . S
Co1181 N1216 2.145 . S
Co1181 N1237 2.257 . S
O1182 Co1180 2.145 1_455 S
O1182 Co1181 2.159 1_465 S
C1183 O1184 1.280 1_565 S
C1183 O1191 1.224 . S
O1184 C1183 1.280 1_545 S
C1185 O1186 1.245 . S
C1185 O1197 1.232 . S
O1186 C1185 1.245 . S
O1187 Co1181 2.058 1_465 S
O1187 C1213 1.269 . S
O1188 Co1180 2.074 . S
O1188 C1213 1.257 1_655 S
H1189 C1214 0.930 . S
H1190 C1220 0.930 . S
O1191 Co1180 2.093 . S
O1191 C1183 1.224 . S
H1192 C1224 0.929 . S
H1193 C1226 0.930 . S
H1194 C1227 0.930 . S
H1195 C1225 0.929 . S
H1196 C1228 0.928 . S
O1197 Co1181 2.057 1_455 S
O1197 C1185 1.232 . S
H1198 C1217 0.929 . S
H1199 C1218 0.929 1_455 S
H1200 C1230 0.931 . S
H1201 C1222 0.929 . S
H1202 C1231 0.930 . S
H1203 C1223 0.931 . S
O1204 Co1180 2.097 . S
O1204 C1232 1.214 . S
H1205 C1233 0.929 . S
H1206 C1234 0.929 . S
H1207 C1235 0.930 . S
H1208 C1236 0.929 . S
H1209 C1238 0.930 1_455 S
H1210 C1215 0.933 . S
H1211 C1219 0.930 . S
O1212 Co1181 2.037 . S
O1212 C1232 1.234 1_545 S
C1213 O1187 1.269 . S
C1213 O1188 1.257 1_455 S
C1214 H1189 0.930 . S
C1214 C1217 1.388 . S
C1214 C1219 1.418 . S
C1215 H1210 0.933 . S
C1215 C1218 1.404 . S
C1215 C1219 1.353 . S
N1216 Co1181 2.145 . S
N1216 C1217 1.397 . S
N1216 C1218 1.334 . S
C1217 H1198 0.929 . S
C1217 C1214 1.388 . S
C1217 N1216 1.397 . S
C1218 H1199 0.929 1_655 S
C1218 C1215 1.404 . S
C1218 N1216 1.334 . S
C1219 H1211 0.930 . S
C1219 C1214 1.418 . S
C1219 C1215 1.353 . S
C1220 H1190 0.930 . S
C1220 N1221 1.330 . S
C1220 C1222 1.446 . S
N1221 Co1180 2.151 1_455 S
N1221 C1220 1.330 . S
N1221 C1225 1.418 . S
C1222 H1201 0.929 . S
C1222 C1220 1.446 . S
C1222 C1223 1.332 . S
C1223 H1203 0.931 . S
C1223 C1222 1.332 . S
C1223 C1224 1.267 . S
C1224 H1192 0.929 . S
C1224 C1223 1.267 . S
C1224 C1225 1.251 . S
C1225 H1195 0.929 . S
C1225 N1221 1.418 . S
C1225 C1224 1.251 . S
C1226 H1193 0.930 . S
C1226 C1228 1.406 . S
C1226 C1231 1.261 . S
C1227 H1194 0.930 . S
C1227 N1229 1.325 . S
C1227 C1230 1.357 . S
C1228 H1196 0.928 . S
C1228 C1226 1.406 . S
C1228 N1229 1.261 . S
N1229 Co1180 2.214 . S
N1229 C1227 1.325 . S
N1229 C1228 1.261 . S
C1230 H1200 0.931 . S
C1230 C1227 1.357 . S
C1230 C1231 1.312 . S
C1231 H1202 0.930 . S
C1231 C1226 1.261 . S
C1231 C1230 1.312 . S
C1232 O1204 1.214 . S
C1232 O1212 1.234 1_565 S
C1233 H1205 0.929 . S
C1233 C1236 1.391 . S
C1233 C1238 1.391 . S
C1234 H1206 0.929 . S
C1234 C1235 1.390 . S
C1234 N1237 1.391 . S
C1235 H1207 0.930 . S
C1235 C1234 1.390 . S
C1235 C1236 1.392 . S
C1236 H1208 0.929 . S
C1236 C1233 1.391 . S
C1236 C1235 1.392 . S
N1237 Co1181 2.257 . S
N1237 C1234 1.391 . S
N1237 C1238 1.388 . S
C1238 H1209 0.930 1_655 S
C1238 C1233 1.391 . S
C1238 N1237 1.388 . S
Co1239 O1241 2.143 . S
Co1239 O1247 2.074 . S
Co1239 O1250 2.093 . S
Co1239 O1263 2.097 . S
Co1239 N1280 2.151 . S
Co1239 N1288 2.214 . S
Co1240 O1241 2.160 . S
Co1240 O1246 2.058 . S
Co1240 O1256 2.057 . S
Co1240 O1271 2.037 . S
Co1240 N1275 2.145 . S
Co1240 N1296 2.257 . S
O1241 Co1239 2.143 . S
O1241 Co1240 2.160 . S
C1242 O1243 1.278 . S
C1242 O1250 1.224 . S
O1243 C1242 1.278 . S
C1244 O1245 1.245 . S
C1244 O1256 1.232 . S
O1245 C1244 1.245 . S
O1246 Co1240 2.058 . S
O1246 C1272 1.269 . S
O1247 Co1239 2.074 . S
O1247 C1272 1.257 . S
H1248 C1273 0.930 . S
H1249 C1279 0.930 . S
O1250 Co1239 2.093 . S
O1250 C1242 1.224 . S
H1251 C1283 0.929 . S
H1252 C1285 0.930 1_545 S
H1253 C1286 0.930 . S
H1254 C1284 0.929 . S
H1255 C1287 0.928 . S
O1256 Co1240 2.057 . S
O1256 C1244 1.232 . S
H1257 C1276 0.929 . S
H1258 C1277 0.929 . S
H1259 C1289 0.931 . S
H1260 C1281 0.929 . S
H1261 C1290 0.930 . S
H1262 C1282 0.931 . S
O1263 Co1239 2.097 . S
O1263 C1291 1.214 . S
H1264 C1292 0.929 . S
H1265 C1293 0.929 . S
H1266 C1294 0.930 . S
H1267 C1295 0.929 . S
H1268 C1297 0.930 . S
H1269 C1274 0.930 . S
H1270 C1278 0.930 . S
O1271 Co1240 2.037 . S
O1271 C1291 1.234 . S
C1272 O1246 1.269 . S
C1272 O1247 1.257 . S
C1273 H1248 0.930 . S
C1273 C1276 1.388 . S
C1273 C1278 1.418 . S
C1274 H1269 0.930 . S
C1274 C1277 1.404 . S
C1274 C1278 1.353 . S
N1275 Co1240 2.145 . S
N1275 C1276 1.397 . S
N1275 C1277 1.334 . S
C1276 H1257 0.929 . S
C1276 C1273 1.388 . S
C1276 N1275 1.397 . S
C1277 H1258 0.929 . S
C1277 C1274 1.404 . S
C1277 N1275 1.334 . S
C1278 H1270 0.930 . S
C1278 C1273 1.418 . S
C1278 C1274 1.353 . S
C1279 H1249 0.930 . S
C1279 N1280 1.330 . S
C1279 C1281 1.446 . S
N1280 Co1239 2.151 . S
N1280 C1279 1.330 . S
N1280 C1284 1.418 . S
C1281 H1260 0.929 . S
C1281 C1279 1.446 . S
C1281 C1282 1.332 . S
C1282 H1262 0.931 . S
C1282 C1281 1.332 . S
C1282 C1283 1.267 . S
C1283 H1251 0.929 . S
C1283 C1282 1.267 . S
C1283 C1284 1.251 . S
C1284 H1254 0.929 . S
C1284 N1280 1.418 . S
C1284 C1283 1.251 . S
C1285 H1252 0.930 1_565 S
C1285 C1287 1.406 . S
C1285 C1290 1.261 1_565 S
C1286 H1253 0.930 . S
C1286 N1288 1.325 . S
C1286 C1289 1.357 . S
C1287 H1255 0.928 . S
C1287 C1285 1.406 . S
C1287 N1288 1.261 . S
N1288 Co1239 2.214 . S
N1288 C1286 1.325 . S
N1288 C1287 1.261 . S
C1289 H1259 0.931 . S
C1289 C1286 1.357 . S
C1289 C1290 1.312 1_565 S
C1290 H1261 0.930 . S
C1290 C1285 1.261 1_545 S
C1290 C1289 1.312 1_545 S
C1291 O1263 1.214 . S
C1291 O1271 1.234 . S
C1292 H1264 0.929 . S
C1292 C1295 1.391 . S
C1292 C1297 1.391 . S
C1293 H1265 0.929 . S
C1293 C1294 1.390 . S
C1293 N1296 1.391 . S
C1294 H1266 0.930 . S
C1294 C1293 1.390 . S
C1294 C1295 1.392 . S
C1295 H1267 0.929 . S
C1295 C1292 1.391 . S
C1295 C1294 1.392 . S
N1296 Co1240 2.257 . S
N1296 C1293 1.391 . S
N1296 C1297 1.388 . S
C1297 H1268 0.930 . S
C1297 C1292 1.391 . S
C1297 N1296 1.388 . S
Co1298 O1300 2.143 1_655 S
Co1298 O1306 2.074 . S
Co1298 O1309 2.093 . S
Co1298 O1322 2.097 . S
Co1298 N1339 2.151 1_655 S
Co1298 N1347 2.214 . S
Co1299 O1300 2.160 1_655 S
Co1299 O1305 2.058 1_655 S
Co1299 O1315 2.057 1_655 S
Co1299 O1330 2.037 . S
Co1299 N1334 2.145 . S
Co1299 N1355 2.257 . S
O1300 Co1298 2.143 1_455 S
O1300 Co1299 2.160 1_455 S
C1301 O1302 1.280 . S
C1301 O1309 1.224 . S
O1302 C1301 1.280 . S
C1303 O1304 1.245 . S
C1303 O1315 1.232 . S
O1304 C1303 1.245 . S
O1305 Co1299 2.058 1_455 S
O1305 C1331 1.269 . S
O1306 Co1298 2.074 . S
O1306 C1331 1.257 1_655 S
H1307 C1332 0.930 . S
H1308 C1338 0.930 . S
O1309 Co1298 2.093 . S
O1309 C1301 1.224 . S
H1310 C1342 0.929 1_545 S
H1311 C1344 0.930 . S
H1312 C1345 0.930 . S
H1313 C1343 0.929 . S
H1314 C1346 0.928 . S
O1315 Co1299 2.057 1_455 S
O1315 C1303 1.232 . S
H1316 C1335 0.929 . S
H1317 C1336 0.914 1_455 S
H1318 C1348 0.931 1_545 S
H1319 C1340 0.929 . S
H1320 C1349 0.930 . S
H1321 C1341 0.931 . S
O1322 Co1298 2.097 . S
O1322 C1350 1.214 . S
H1323 C1351 0.929 1_455 S
H1324 C1352 0.929 . S
H1325 C1353 0.930 . S
H1326 C1354 0.929 . S
H1327 C1356 0.924 1_455 S
H1328 C1333 0.930 1_455 S
H1329 C1337 0.930 . S
O1330 Co1299 2.037 . S
O1330 C1350 1.234 . S
C1331 O1305 1.269 . S
C1331 O1306 1.257 1_455 S
C1332 H1307 0.930 . S
C1332 C1335 1.388 . S
C1332 C1337 1.418 . S
C1333 H1328 0.930 1_655 S
C1333 C1336 1.409 . S
C1333 C1337 1.353 . S
N1334 Co1299 2.145 . S
N1334 C1335 1.397 . S
N1334 C1336 1.345 . S
C1335 H1316 0.929 . S
C1335 C1332 1.388 . S
C1335 N1334 1.397 . S
C1336 H1317 0.914 1_655 S
C1336 C1333 1.409 . S
C1336 N1334 1.345 . S
C1337 H1329 0.930 . S
C1337 C1332 1.418 . S
C1337 C1333 1.353 . S
C1338 H1308 0.930 . S
C1338 N1339 1.330 . S
C1338 C1340 1.446 . S
N1339 Co1298 2.151 1_455 S
N1339 C1338 1.330 . S
N1339 C1343 1.418 . S
C1340 H1319 0.929 . S
C1340 C1338 1.446 . S
C1340 C1341 1.332 . S
C1341 H1321 0.931 . S
C1341 C1340 1.332 . S
C1341 C1342 1.267 . S
C1342 H1310 0.929 1_565 S
C1342 C1341 1.267 . S
C1342 C1343 1.251 . S
C1343 H1313 0.929 . S
C1343 N1339 1.418 . S
C1343 C1342 1.251 . S
C1344 H1311 0.930 . S
C1344 C1346 1.406 1_545 S
C1344 C1349 1.261 . S
C1345 H1312 0.930 . S
C1345 N1347 1.325 . S
C1345 C1348 1.357 . S
C1346 H1314 0.928 . S
C1346 C1344 1.406 1_565 S
C1346 N1347 1.261 . S
N1347 Co1298 2.214 . S
N1347 C1345 1.325 . S
N1347 C1346 1.261 . S
C1348 H1318 0.931 1_565 S
C1348 C1345 1.357 . S
C1348 C1349 1.312 1_565 S
C1349 H1320 0.930 . S
C1349 C1344 1.261 . S
C1349 C1348 1.312 1_545 S
C1350 O1322 1.214 . S
C1350 O1330 1.234 . S
C1351 H1323 0.929 1_655 S
C1351 C1354 1.391 . S
C1351 C1356 1.393 . S
C1352 H1324 0.929 . S
C1352 C1353 1.390 . S
C1352 N1355 1.391 . S
C1353 H1325 0.930 . S
C1353 C1352 1.390 . S
C1353 C1354 1.392 . S
C1354 H1326 0.929 . S
C1354 C1351 1.391 . S
C1354 C1353 1.392 . S
N1355 Co1299 2.257 . S
N1355 C1352 1.391 . S
N1355 C1356 1.393 . S
C1356 H1327 0.924 1_655 S
C1356 C1351 1.393 . S
C1356 N1355 1.393 . S
Co1357 O1359 2.143 1_565 S
Co1357 O1365 2.074 . S
Co1357 O1368 2.093 . S
Co1357 O1381 2.097 . S
Co1357 N1398 2.151 . S
Co1357 N1406 2.214 . S
Co1358 O1359 2.160 . S
Co1358 O1364 2.058 1_545 S
Co1358 O1374 2.057 . S
Co1358 O1389 2.037 . S
Co1358 N1393 2.145 . S
Co1358 N1414 2.257 . S
O1359 Co1357 2.143 1_545 S
O1359 Co1358 2.160 . S
C1360 O1361 1.278 1_565 S
C1360 O1368 1.224 . S
O1361 C1360 1.278 1_545 S
C1362 O1363 1.245 . S
C1362 O1374 1.232 . S
O1363 C1362 1.245 . S
O1364 Co1358 2.058 1_565 S
O1364 C1390 1.269 . S
O1365 Co1357 2.074 . S
O1365 C1390 1.257 . S
H1366 C1391 0.930 . S
H1367 C1397 0.930 . S
O1368 Co1357 2.093 . S
O1368 C1360 1.224 . S
H1369 C1401 0.929 . S
H1370 C1403 0.930 . S
H1371 C1404 0.930 . S
H1372 C1402 0.929 . S
H1373 C1405 0.928 . S
O1374 Co1358 2.057 . S
O1374 C1362 1.232 . S
H1375 C1394 0.929 . S
H1376 C1395 0.929 . S
H1377 C1407 0.931 . S
H1378 C1399 0.929 . S
H1379 C1408 0.930 . S
H1380 C1400 0.931 . S
O1381 Co1357 2.097 . S
O1381 C1409 1.214 . S
H1382 C1410 0.929 . S
H1383 C1411 0.929 . S
H1384 C1412 0.930 . S
H1385 C1413 0.929 . S
H1386 C1415 0.930 . S
H1387 C1392 0.930 . S
H1388 C1396 0.930 . S
O1389 Co1358 2.037 . S
O1389 C1409 1.234 1_545 S
C1390 O1364 1.269 . S
C1390 O1365 1.257 . S
C1391 H1366 0.930 . S
C1391 C1394 1.388 . S
C1391 C1396 1.418 . S
C1392 H1387 0.930 . S
C1392 C1395 1.404 . S
C1392 C1396 1.353 . S
N1393 Co1358 2.145 . S
N1393 C1394 1.397 . S
N1393 C1395 1.334 . S
C1394 H1375 0.929 . S
C1394 C1391 1.388 . S
C1394 N1393 1.397 . S
C1395 H1376 0.929 . S
C1395 C1392 1.404 . S
C1395 N1393 1.334 . S
C1396 H1388 0.930 . S
C1396 C1391 1.418 . S
C1396 C1392 1.353 . S
C1397 H1367 0.930 . S
C1397 N1398 1.330 . S
C1397 C1399 1.446 . S
N1398 Co1357 2.151 . S
N1398 C1397 1.330 . S
N1398 C1402 1.418 . S
C1399 H1378 0.929 . S
C1399 C1397 1.446 . S
C1399 C1400 1.332 . S
C1400 H1380 0.931 . S
C1400 C1399 1.332 . S
C1400 C1401 1.267 . S
C1401 H1369 0.929 . S
C1401 C1400 1.267 . S
C1401 C1402 1.251 . S
C1402 H1372 0.929 . S
C1402 N1398 1.418 . S
C1402 C1401 1.251 . S
C1403 H1370 0.930 . S
C1403 C1405 1.406 . S
C1403 C1408 1.261 . S
C1404 H1371 0.930 . S
C1404 N1406 1.325 . S
C1404 C1407 1.357 . S
C1405 H1373 0.928 . S
C1405 C1403 1.406 . S
C1405 N1406 1.261 . S
N1406 Co1357 2.214 . S
N1406 C1404 1.325 . S
N1406 C1405 1.261 . S
C1407 H1377 0.931 . S
C1407 C1404 1.357 . S
C1407 C1408 1.312 . S
C1408 H1379 0.930 . S
C1408 C1403 1.261 . S
C1408 C1407 1.312 . S
C1409 O1381 1.214 . S
C1409 O1389 1.234 1_565 S
C1410 H1382 0.929 . S
C1410 C1413 1.391 . S
C1410 C1415 1.391 . S
C1411 H1383 0.929 . S
C1411 C1412 1.390 . S
C1411 N1414 1.391 . S
C1412 H1384 0.930 . S
C1412 C1411 1.390 . S
C1412 C1413 1.392 . S
C1413 H1385 0.929 . S
C1413 C1410 1.391 . S
C1413 C1412 1.392 . S
N1414 Co1358 2.257 . S
N1414 C1411 1.391 . S
N1414 C1415 1.388 . S
C1415 H1386 0.930 . S
C1415 C1410 1.391 . S
C1415 N1414 1.388 . S
Co1416 O1418 2.143 1_455 S
Co1416 O1424 2.074 . S
Co1416 O1427 2.093 . S
Co1416 O1440 2.097 . S
Co1416 N1457 2.151 1_455 S
Co1416 N1465 2.214 . S
Co1417 O1418 2.160 1_455 S
Co1417 O1423 2.058 1_455 S
Co1417 O1433 2.057 1_455 S
Co1417 O1448 2.037 . S
Co1417 N1452 2.145 . S
Co1417 N1473 2.257 . S
O1418 Co1416 2.143 1_655 S
O1418 Co1417 2.160 1_655 S
C1419 O1420 1.279 . S
C1419 O1427 1.224 . S
O1420 C1419 1.279 . S
C1421 O1422 1.245 . S
C1421 O1433 1.232 . S
O1422 C1421 1.245 . S
O1423 Co1417 2.058 1_655 S
O1423 C1449 1.269 . S
O1424 Co1416 2.074 . S
O1424 C1449 1.257 1_455 S
H1425 C1450 0.930 . S
H1426 C1456 0.930 . S
O1427 Co1416 2.093 . S
O1427 C1419 1.224 . S
H1428 C1460 0.929 . S
H1429 C1462 0.930 . S
H1430 C1463 0.930 . S
H1431 C1461 0.929 . S
H1432 C1464 0.928 . S
O1433 Co1417 2.057 1_655 S
O1433 C1421 1.232 . S
H1434 C1453 0.929 . S
H1435 C1454 0.929 1_655 S
H1436 C1466 0.931 . S
H1437 C1458 0.929 . S
H1438 C1467 0.930 . S
H1439 C1459 0.931 . S
O1440 Co1416 2.097 . S
O1440 C1468 1.214 . S
H1441 C1469 0.926 1_655 S
H1442 C1470 0.929 . S
H1443 C1471 0.930 . S
H1444 C1472 0.929 . S
H1445 C1474 0.930 1_655 S
H1446 C1451 0.930 1_655 S
H1447 C1455 0.930 . S
O1448 Co1417 2.037 . S
O1448 C1468 1.234 . S
C1449 O1423 1.269 . S
C1449 O1424 1.257 1_655 S
C1450 H1425 0.930 . S
C1450 C1453 1.388 . S
C1450 C1455 1.418 . S
C1451 H1446 0.930 1_455 S
C1451 C1454 1.404 . S
C1451 C1455 1.353 . S
N1452 Co1417 2.145 . S
N1452 C1453 1.397 . S
N1452 C1454 1.334 . S
C1453 H1434 0.929 . S
C1453 C1450 1.388 . S
C1453 N1452 1.397 . S
C1454 H1435 0.929 1_455 S
C1454 C1451 1.404 . S
C1454 N1452 1.334 . S
C1455 H1447 0.930 . S
C1455 C1450 1.418 . S
C1455 C1451 1.353 . S
C1456 H1426 0.930 . S
C1456 N1457 1.330 . S
C1456 C1458 1.446 . S
N1457 Co1416 2.151 1_655 S
N1457 C1456 1.330 . S
N1457 C1461 1.418 . S
C1458 H1437 0.929 . S
C1458 C1456 1.446 . S
C1458 C1459 1.332 . S
C1459 H1439 0.931 . S
C1459 C1458 1.332 . S
C1459 C1460 1.267 . S
C1460 H1428 0.929 . S
C1460 C1459 1.267 . S
C1460 C1461 1.251 . S
C1461 H1431 0.929 . S
C1461 N1457 1.418 . S
C1461 C1460 1.251 . S
C1462 H1429 0.930 . S
C1462 C1464 1.406 . S
C1462 C1467 1.261 . S
C1463 H1430 0.930 . S
C1463 N1465 1.325 . S
C1463 C1466 1.357 . S
C1464 H1432 0.928 . S
C1464 C1462 1.406 . S
C1464 N1465 1.261 . S
N1465 Co1416 2.214 . S
N1465 C1463 1.325 . S
N1465 C1464 1.261 . S
C1466 H1436 0.931 . S
C1466 C1463 1.357 . S
C1466 C1467 1.312 . S
C1467 H1438 0.930 . S
C1467 C1462 1.261 . S
C1467 C1466 1.312 . S
C1468 O1440 1.214 . S
C1468 O1448 1.234 . S
C1469 H1441 0.926 1_455 S
C1469 C1472 1.391 . S
C1469 C1474 1.391 . S
C1470 H1442 0.929 . S
C1470 C1471 1.390 . S
C1470 N1473 1.391 . S
C1471 H1443 0.930 . S
C1471 C1470 1.390 . S
C1471 C1472 1.392 . S
C1472 H1444 0.929 . S
C1472 C1469 1.391 . S
C1472 C1471 1.392 . S
N1473 Co1417 2.257 . S
N1473 C1470 1.391 . S
N1473 C1474 1.388 . S
C1474 H1445 0.930 1_455 S
C1474 C1469 1.391 . S
C1474 N1473 1.388 . S
Co1475 O1477 2.143 . S
Co1475 O1483 2.074 . S
Co1475 O1486 2.093 . S
Co1475 O1499 2.097 . S
Co1475 N1516 2.151 . S
Co1475 N1524 2.214 . S
Co1476 O1477 2.160 . S
Co1476 O1482 2.058 . S
Co1476 O1492 2.057 . S
Co1476 O1507 2.037 . S
Co1476 N1511 2.145 . S
Co1476 N1532 2.257 . S
O1477 Co1475 2.143 . S
O1477 Co1476 2.160 . S
C1478 O1479 1.278 . S
C1478 O1486 1.224 . S
O1479 C1478 1.278 . S
C1480 O1481 1.245 . S
C1480 O1492 1.232 . S
O1481 C1480 1.245 . S
O1482 Co1476 2.058 . S
O1482 C1508 1.269 . S
O1483 Co1475 2.074 . S
O1483 C1508 1.257 . S
H1484 C1509 0.930 . S
H1485 C1515 0.930 . S
O1486 Co1475 2.093 . S
O1486 C1478 1.224 . S
H1487 C1519 0.929 . S
H1488 C1521 0.930 . S
H1489 C1522 0.930 . S
H1490 C1520 0.929 . S
H1491 C1523 0.928 . S
O1492 Co1476 2.057 . S
O1492 C1480 1.232 . S
H1493 C1512 0.929 . S
H1494 C1513 0.929 . S
H1495 C1525 0.931 . S
H1496 C1517 0.929 . S
H1497 C1526 0.930 . S
H1498 C1518 0.931 . S
O1499 Co1475 2.097 . S
O1499 C1527 1.214 . S
H1500 C1528 0.929 1_545 S
H1501 C1529 0.929 . S
H1502 C1530 0.930 1_545 S
H1503 C1531 0.929 . S
H1504 C1533 0.930 . S
H1505 C1510 0.930 . S
H1506 C1514 0.930 . S
O1507 Co1476 2.037 . S
O1507 C1527 1.234 . S
C1508 O1482 1.269 . S
C1508 O1483 1.257 . S
C1509 H1484 0.930 . S
C1509 C1512 1.388 . S
C1509 C1514 1.418 1_565 S
C1510 H1505 0.930 . S
C1510 C1513 1.404 1_545 S
C1510 C1514 1.353 . S
N1511 Co1476 2.145 . S
N1511 C1512 1.397 . S
N1511 C1513 1.334 . S
C1512 H1493 0.929 . S
C1512 C1509 1.388 . S
C1512 N1511 1.397 . S
C1513 H1494 0.929 . S
C1513 C1510 1.404 1_565 S
C1513 N1511 1.334 . S
C1514 H1506 0.930 . S
C1514 C1509 1.418 1_545 S
C1514 C1510 1.353 . S
C1515 H1485 0.930 . S
C1515 N1516 1.330 . S
C1515 C1517 1.446 . S
N1516 Co1475 2.151 . S
N1516 C1515 1.330 . S
N1516 C1520 1.418 . S
C1517 H1496 0.929 . S
C1517 C1515 1.446 . S
C1517 C1518 1.332 . S
C1518 H1498 0.931 . S
C1518 C1517 1.332 . S
C1518 C1519 1.267 . S
C1519 H1487 0.929 . S
C1519 C1518 1.267 . S
C1519 C1520 1.251 . S
C1520 H1490 0.929 . S
C1520 N1516 1.418 . S
C1520 C1519 1.251 . S
C1521 H1488 0.930 . S
C1521 C1523 1.406 . S
C1521 C1526 1.261 . S
C1522 H1489 0.930 . S
C1522 N1524 1.325 . S
C1522 C1525 1.357 . S
C1523 H1491 0.928 . S
C1523 C1521 1.406 . S
C1523 N1524 1.261 . S
N1524 Co1475 2.214 . S
N1524 C1522 1.325 . S
N1524 C1523 1.261 . S
C1525 H1495 0.931 . S
C1525 C1522 1.357 . S
C1525 C1526 1.312 . S
C1526 H1497 0.930 . S
C1526 C1521 1.261 . S
C1526 C1525 1.312 . S
C1527 O1499 1.214 . S
C1527 O1507 1.234 . S
C1528 H1500 0.929 1_565 S
C1528 C1531 1.391 1_565 S
C1528 C1533 1.391 . S
C1529 H1501 0.929 . S
C1529 C1530 1.390 . S
C1529 N1532 1.391 . S
C1530 H1502 0.930 1_565 S
C1530 C1529 1.390 . S
C1530 C1531 1.392 1_565 S
C1531 H1503 0.929 . S
C1531 C1528 1.391 1_545 S
C1531 C1530 1.392 1_545 S
N1532 Co1476 2.257 . S
N1532 C1529 1.391 . S
N1532 C1533 1.388 . S
C1533 H1504 0.930 . S
C1533 C1528 1.391 . S
C1533 N1532 1.388 . S
Co1534 O1536 2.143 1_455 S
Co1534 O1542 2.074 . S
Co1534 O1545 2.093 . S
Co1534 O1558 2.097 . S
Co1534 N1575 2.151 1_455 S
Co1534 N1583 2.214 . S
Co1535 O1536 2.160 1_455 S
Co1535 O1541 2.058 1_455 S
Co1535 O1551 2.057 1_455 S
Co1535 O1566 2.037 . S
Co1535 N1570 2.145 . S
Co1535 N1591 2.257 . S
O1536 Co1534 2.143 1_655 S
O1536 Co1535 2.160 1_655 S
C1537 O1538 1.280 . S
C1537 O1545 1.224 . S
O1538 C1537 1.280 . S
C1539 O1540 1.245 . S
C1539 O1551 1.232 . S
O1540 C1539 1.245 . S
O1541 Co1535 2.058 1_655 S
O1541 C1567 1.269 . S
O1542 Co1534 2.074 . S
O1542 C1567 1.257 1_455 S
H1543 C1568 0.930 . S
H1544 C1574 0.930 . S
O1545 Co1534 2.093 . S
O1545 C1537 1.224 . S
H1546 C1578 0.929 . S
H1547 C1580 0.930 . S
H1548 C1581 0.930 . S
H1549 C1579 0.929 . S
H1550 C1582 0.928 . S
O1551 Co1535 2.057 1_655 S
O1551 C1539 1.232 . S
H1552 C1571 0.929 . S
H1553 C1572 0.929 1_655 S
H1554 C1584 0.931 . S
H1555 C1576 0.929 . S
H1556 C1585 0.930 . S
H1557 C1577 0.931 . S
O1558 Co1534 2.097 . S
O1558 C1586 1.214 . S
H1559 C1587 0.942 . S
H1560 C1588 0.929 . S
H1561 C1589 0.930 . S
H1562 C1590 0.929 1_545 S
H1563 C1592 0.930 1_655 S
H1564 C1569 0.930 1_645 S
H1565 C1573 0.930 1_545 S
O1566 Co1535 2.037 . S
O1566 C1586 1.234 . S
C1567 O1541 1.269 . S
C1567 O1542 1.257 1_655 S
C1568 H1543 0.930 . S
C1568 C1571 1.388 . S
C1568 C1573 1.418 . S
C1569 H1564 0.930 1_465 S
C1569 C1572 1.404 . S
C1569 C1573 1.353 . S
N1570 Co1535 2.145 . S
N1570 C1571 1.397 . S
N1570 C1572 1.334 . S
C1571 H1552 0.929 . S
C1571 C1568 1.388 . S
C1571 N1570 1.397 . S
C1572 H1553 0.929 1_455 S
C1572 C1569 1.404 . S
C1572 N1570 1.334 . S
C1573 H1565 0.930 1_565 S
C1573 C1568 1.418 . S
C1573 C1569 1.353 . S
C1574 H1544 0.930 . S
C1574 N1575 1.330 . S
C1574 C1576 1.446 . S
N1575 Co1534 2.151 1_655 S
N1575 C1574 1.330 . S
N1575 C1579 1.418 . S
C1576 H1555 0.929 . S
C1576 C1574 1.446 . S
C1576 C1577 1.332 . S
C1577 H1557 0.931 . S
C1577 C1576 1.332 . S
C1577 C1578 1.267 . S
C1578 H1546 0.929 . S
C1578 C1577 1.267 . S
C1578 C1579 1.251 . S
C1579 H1549 0.929 . S
C1579 N1575 1.418 . S
C1579 C1578 1.251 . S
C1580 H1547 0.930 . S
C1580 C1582 1.406 . S
C1580 C1585 1.261 . S
C1581 H1548 0.930 . S
C1581 N1583 1.325 . S
C1581 C1584 1.357 . S
C1582 H1550 0.928 . S
C1582 C1580 1.406 . S
C1582 N1583 1.261 . S
N1583 Co1534 2.214 . S
N1583 C1581 1.325 . S
N1583 C1582 1.261 . S
C1584 H1554 0.931 . S
C1584 C1581 1.357 . S
C1584 C1585 1.312 . S
C1585 H1556 0.930 . S
C1585 C1580 1.261 . S
C1585 C1584 1.312 . S
C1586 O1558 1.214 . S
C1586 O1566 1.234 . S
C1587 H1559 0.942 . S
C1587 C1590 1.391 . S
C1587 C1592 1.391 . S
C1588 H1560 0.929 . S
C1588 C1589 1.390 . S
C1588 N1591 1.391 . S
C1589 H1561 0.930 . S
C1589 C1588 1.390 . S
C1589 C1590 1.392 . S
C1590 H1562 0.929 1_565 S
C1590 C1587 1.391 . S
C1590 C1589 1.392 . S
N1591 Co1535 2.257 . S
N1591 C1588 1.391 . S
N1591 C1592 1.388 . S
C1592 H1563 0.930 1_455 S
C1592 C1587 1.391 . S
C1592 N1591 1.388 . S
Co1593 O1595 2.143 . S
Co1593 O1601 2.074 . S
Co1593 O1604 2.093 . S
Co1593 O1617 2.097 . S
Co1593 N1634 2.151 . S
Co1593 N1642 2.214 . S
Co1594 O1595 2.160 . S
Co1594 O1600 2.058 . S
Co1594 O1610 2.057 . S
Co1594 O1625 2.037 . S
Co1594 N1629 2.145 . S
Co1594 N1650 2.257 . S
O1595 Co1593 2.143 . S
O1595 Co1594 2.160 . S
C1596 O1597 1.278 . S
C1596 O1604 1.224 . S
O1597 C1596 1.278 . S
C1598 O1599 1.245 . S
C1598 O1610 1.232 . S
O1599 C1598 1.245 . S
O1600 Co1594 2.058 . S
O1600 C1626 1.269 . S
O1601 Co1593 2.074 . S
O1601 C1626 1.257 . S
H1602 C1627 0.930 . S
H1603 C1633 0.930 . S
O1604 Co1593 2.093 . S
O1604 C1596 1.224 . S
H1605 C1637 0.929 . S
H1606 C1639 0.930 . S
H1607 C1640 0.930 . S
H1608 C1638 0.929 . S
H1609 C1641 0.928 . S
O1610 Co1594 2.057 . S
O1610 C1598 1.232 . S
H1611 C1630 0.929 . S
H1612 C1631 0.929 . S
H1613 C1643 0.931 . S
H1614 C1635 0.929 . S
H1615 C1644 0.930 . S
H1616 C1636 0.931 . S
O1617 Co1593 2.097 . S
O1617 C1645 1.214 . S
H1618 C1646 0.929 . S
H1619 C1647 0.929 . S
H1620 C1648 0.930 . S
H1621 C1649 0.929 . S
H1622 C1651 0.930 . S
H1623 C1628 0.930 . S
H1624 C1632 0.930 . S
O1625 Co1594 2.037 . S
O1625 C1645 1.234 . S
C1626 O1600 1.269 . S
C1626 O1601 1.257 . S
C1627 H1602 0.930 . S
C1627 C1630 1.388 . S
C1627 C1632 1.418 . S
C1628 H1623 0.930 . S
C1628 C1631 1.404 . S
C1628 C1632 1.353 . S
N1629 Co1594 2.145 . S
N1629 C1630 1.397 . S
N1629 C1631 1.334 . S
C1630 H1611 0.929 . S
C1630 C1627 1.388 . S
C1630 N1629 1.397 . S
C1631 H1612 0.929 . S
C1631 C1628 1.404 . S
C1631 N1629 1.334 . S
C1632 H1624 0.930 . S
C1632 C1627 1.418 . S
C1632 C1628 1.353 . S
C1633 H1603 0.930 . S
C1633 N1634 1.330 . S
C1633 C1635 1.446 . S
N1634 Co1593 2.151 . S
N1634 C1633 1.330 . S
N1634 C1638 1.418 . S
C1635 H1614 0.929 . S
C1635 C1633 1.446 . S
C1635 C1636 1.332 . S
C1636 H1616 0.931 . S
C1636 C1635 1.332 . S
C1636 C1637 1.267 . S
C1637 H1605 0.929 . S
C1637 C1636 1.267 . S
C1637 C1638 1.251 . S
C1638 H1608 0.929 . S
C1638 N1634 1.418 . S
C1638 C1637 1.251 . S
C1639 H1606 0.930 . S
C1639 C1641 1.406 . S
C1639 C1644 1.261 . S
C1640 H1607 0.930 . S
C1640 N1642 1.325 . S
C1640 C1643 1.357 . S
C1641 H1609 0.928 . S
C1641 C1639 1.406 . S
C1641 N1642 1.261 . S
N1642 Co1593 2.214 . S
N1642 C1640 1.325 . S
N1642 C1641 1.261 . S
C1643 H1613 0.931 . S
C1643 C1640 1.357 . S
C1643 C1644 1.312 . S
C1644 H1615 0.930 . S
C1644 C1639 1.261 . S
C1644 C1643 1.312 . S
C1645 O1617 1.214 . S
C1645 O1625 1.234 . S
C1646 H1618 0.929 . S
C1646 C1649 1.391 . S
C1646 C1651 1.391 . S
C1647 H1619 0.929 . S
C1647 C1648 1.390 . S
C1647 N1650 1.391 . S
C1648 H1620 0.930 . S
C1648 C1647 1.390 . S
C1648 C1649 1.392 . S
C1649 H1621 0.929 . S
C1649 C1646 1.391 . S
C1649 C1648 1.392 . S
N1650 Co1594 2.257 . S
N1650 C1647 1.391 . S
N1650 C1651 1.388 . S
C1651 H1622 0.930 . S
C1651 C1646 1.391 . S
C1651 N1650 1.388 . S
Co1652 O1654 2.143 1_655 S
Co1652 O1660 2.074 . S
Co1652 O1663 2.093 . S
Co1652 O1676 2.097 . S
Co1652 N1693 2.151 1_655 S
Co1652 N1701 2.214 . S
Co1653 O1654 2.160 1_655 S
Co1653 O1659 2.058 1_655 S
Co1653 O1669 2.057 1_655 S
Co1653 O1684 2.037 . S
Co1653 N1688 2.145 . S
Co1653 N1709 2.257 . S
O1654 Co1652 2.143 1_455 S
O1654 Co1653 2.160 1_455 S
C1655 O1656 1.279 . S
C1655 O1663 1.224 . S
O1656 C1655 1.279 . S
C1657 O1658 1.245 . S
C1657 O1669 1.232 . S
O1658 C1657 1.245 . S
O1659 Co1653 2.058 1_455 S
O1659 C1685 1.269 . S
O1660 Co1652 2.074 . S
O1660 C1685 1.257 1_655 S
H1661 C1686 0.930 . S
H1662 C1692 0.930 . S
O1663 Co1652 2.093 . S
O1663 C1655 1.224 . S
H1664 C1696 0.929 . S
H1665 C1698 0.930 . S
H1666 C1699 0.930 . S
H1667 C1697 0.929 . S
H1668 C1700 0.928 . S
O1669 Co1653 2.057 1_455 S
O1669 C1657 1.232 . S
H1670 C1689 0.929 . S
H1671 C1690 0.929 1_455 S
H1672 C1702 0.931 . S
H1673 C1694 0.929 . S
H1674 C1703 0.930 . S
H1675 C1695 0.931 . S
O1676 Co1652 2.097 . S
O1676 C1704 1.214 . S
H1677 C1705 0.926 1_455 S
H1678 C1706 0.929 . S
H1679 C1707 0.930 . S
H1680 C1708 0.929 . S
H1681 C1710 0.930 1_455 S
H1682 C1687 0.930 1_455 S
H1683 C1691 0.930 . S
O1684 Co1653 2.037 . S
O1684 C1704 1.234 . S
C1685 O1659 1.269 . S
C1685 O1660 1.257 1_455 S
C1686 H1661 0.930 . S
C1686 C1689 1.388 . S
C1686 C1691 1.418 . S
C1687 H1682 0.930 1_655 S
C1687 C1690 1.404 . S
C1687 C1691 1.353 . S
N1688 Co1653 2.145 . S
N1688 C1689 1.397 . S
N1688 C1690 1.334 . S
C1689 H1670 0.929 . S
C1689 C1686 1.388 . S
C1689 N1688 1.397 . S
C1690 H1671 0.929 1_655 S
C1690 C1687 1.404 . S
C1690 N1688 1.334 . S
C1691 H1683 0.930 . S
C1691 C1686 1.418 . S
C1691 C1687 1.353 . S
C1692 H1662 0.930 . S
C1692 N1693 1.330 . S
C1692 C1694 1.446 . S
N1693 Co1652 2.151 1_455 S
N1693 C1692 1.330 . S
N1693 C1697 1.418 . S
C1694 H1673 0.929 . S
C1694 C1692 1.446 . S
C1694 C1695 1.332 . S
C1695 H1675 0.931 . S
C1695 C1694 1.332 . S
C1695 C1696 1.267 . S
C1696 H1664 0.929 . S
C1696 C1695 1.267 . S
C1696 C1697 1.251 . S
C1697 H1667 0.929 . S
C1697 N1693 1.418 . S
C1697 C1696 1.251 . S
C1698 H1665 0.930 . S
C1698 C1700 1.406 . S
C1698 C1703 1.261 . S
C1699 H1666 0.930 . S
C1699 N1701 1.325 . S
C1699 C1702 1.357 . S
C1700 H1668 0.928 . S
C1700 C1698 1.406 . S
C1700 N1701 1.261 . S
N1701 Co1652 2.214 . S
N1701 C1699 1.325 . S
N1701 C1700 1.261 . S
C1702 H1672 0.931 . S
C1702 C1699 1.357 . S
C1702 C1703 1.312 . S
C1703 H1674 0.930 . S
C1703 C1698 1.261 . S
C1703 C1702 1.312 . S
C1704 O1676 1.214 . S
C1704 O1684 1.234 . S
C1705 H1677 0.926 1_655 S
C1705 C1708 1.391 . S
C1705 C1710 1.391 . S
C1706 H1678 0.929 . S
C1706 C1707 1.390 . S
C1706 N1709 1.391 . S
C1707 H1679 0.930 . S
C1707 C1706 1.390 . S
C1707 C1708 1.392 . S
C1708 H1680 0.929 . S
C1708 C1705 1.391 . S
C1708 C1707 1.392 . S
N1709 Co1653 2.257 . S
N1709 C1706 1.391 . S
N1709 C1710 1.388 . S
C1710 H1681 0.930 1_655 S
C1710 C1705 1.391 . S
C1710 N1709 1.388 . S
Co1711 O1713 2.143 . S
Co1711 O1719 2.074 . S
Co1711 O1722 2.093 . S
Co1711 O1735 2.097 . S
Co1711 N1752 2.151 . S
Co1711 N1760 2.214 . S
Co1712 O1713 2.160 . S
Co1712 O1718 2.058 . S
Co1712 O1728 2.057 . S
Co1712 O1743 2.037 . S
Co1712 N1747 2.145 . S
Co1712 N1768 2.257 . S
O1713 Co1711 2.143 . S
O1713 Co1712 2.160 . S
C1714 O1715 1.278 . S
C1714 O1722 1.224 . S
O1715 C1714 1.278 . S
C1716 O1717 1.245 . S
C1716 O1728 1.232 . S
O1717 C1716 1.245 . S
O1718 Co1712 2.058 . S
O1718 C1744 1.269 . S
O1719 Co1711 2.074 . S
O1719 C1744 1.257 . S
H1720 C1745 0.930 . S
H1721 C1751 0.930 . S
O1722 Co1711 2.093 . S
O1722 C1714 1.224 . S
H1723 C1755 0.929 . S
H1724 C1757 0.930 . S
H1725 C1758 0.930 . S
H1726 C1756 0.929 . S
H1727 C1759 0.928 . S
O1728 Co1712 2.057 . S
O1728 C1716 1.232 . S
H1729 C1748 0.929 . S
H1730 C1749 0.929 . S
H1731 C1761 0.931 . S
H1732 C1753 0.929 . S
H1733 C1762 0.930 . S
H1734 C1754 0.931 . S
O1735 Co1711 2.097 . S
O1735 C1763 1.214 . S
H1736 C1764 0.929 1_565 S
H1737 C1765 0.929 . S
H1738 C1766 0.930 1_565 S
H1739 C1767 0.929 . S
H1740 C1769 0.930 . S
H1741 C1746 0.930 . S
H1742 C1750 0.930 . S
O1743 Co1712 2.037 . S
O1743 C1763 1.234 . S
C1744 O1718 1.269 . S
C1744 O1719 1.257 . S
C1745 H1720 0.930 . S
C1745 C1748 1.388 . S
C1745 C1750 1.418 1_545 S
C1746 H1741 0.930 . S
C1746 C1749 1.404 1_565 S
C1746 C1750 1.353 . S
N1747 Co1712 2.145 . S
N1747 C1748 1.397 . S
N1747 C1749 1.334 . S
C1748 H1729 0.929 . S
C1748 C1745 1.388 . S
C1748 N1747 1.397 . S
C1749 H1730 0.929 . S
C1749 C1746 1.404 1_545 S
C1749 N1747 1.334 . S
C1750 H1742 0.930 . S
C1750 C1745 1.418 1_565 S
C1750 C1746 1.353 . S
C1751 H1721 0.930 . S
C1751 N1752 1.330 . S
C1751 C1753 1.446 . S
N1752 Co1711 2.151 . S
N1752 C1751 1.330 . S
N1752 C1756 1.418 . S
C1753 H1732 0.929 . S
C1753 C1751 1.446 . S
C1753 C1754 1.332 . S
C1754 H1734 0.931 . S
C1754 C1753 1.332 . S
C1754 C1755 1.267 . S
C1755 H1723 0.929 . S
C1755 C1754 1.267 . S
C1755 C1756 1.251 . S
C1756 H1726 0.929 . S
C1756 N1752 1.418 . S
C1756 C1755 1.251 . S
C1757 H1724 0.930 . S
C1757 C1759 1.406 . S
C1757 C1762 1.261 . S
C1758 H1725 0.930 . S
C1758 N1760 1.325 . S
C1758 C1761 1.357 . S
C1759 H1727 0.928 . S
C1759 C1757 1.406 . S
C1759 N1760 1.261 . S
N1760 Co1711 2.214 . S
N1760 C1758 1.325 . S
N1760 C1759 1.261 . S
C1761 H1731 0.931 . S
C1761 C1758 1.357 . S
C1761 C1762 1.312 . S
C1762 H1733 0.930 . S
C1762 C1757 1.261 . S
C1762 C1761 1.312 . S
C1763 O1735 1.214 . S
C1763 O1743 1.234 . S
C1764 H1736 0.929 1_545 S
C1764 C1767 1.391 1_545 S
C1764 C1769 1.391 . S
C1765 H1737 0.929 . S
C1765 C1766 1.390 . S
C1765 N1768 1.391 . S
C1766 H1738 0.930 1_545 S
C1766 C1765 1.390 . S
C1766 C1767 1.392 1_545 S
C1767 H1739 0.929 . S
C1767 C1764 1.391 1_565 S
C1767 C1766 1.392 1_565 S
N1768 Co1712 2.257 . S
N1768 C1765 1.391 . S
N1768 C1769 1.388 . S
C1769 H1740 0.930 . S
C1769 C1764 1.391 . S
C1769 N1768 1.388 . S
Co1770 O1772 2.143 1_655 S
Co1770 O1778 2.074 . S
Co1770 O1781 2.093 . S
Co1770 O1794 2.097 . S
Co1770 N1811 2.151 1_655 S
Co1770 N1819 2.214 . S
Co1771 O1772 2.160 1_655 S
Co1771 O1777 2.058 1_655 S
Co1771 O1787 2.057 1_655 S
Co1771 O1802 2.037 . S
Co1771 N1806 2.145 . S
Co1771 N1827 2.257 . S
O1772 Co1770 2.143 1_455 S
O1772 Co1771 2.160 1_455 S
C1773 O1774 1.280 . S
C1773 O1781 1.224 . S
O1774 C1773 1.280 . S
C1775 O1776 1.245 . S
C1775 O1787 1.232 . S
O1776 C1775 1.245 . S
O1777 Co1771 2.058 1_455 S
O1777 C1803 1.269 . S
O1778 Co1770 2.074 . S
O1778 C1803 1.257 1_655 S
H1779 C1804 0.930 . S
H1780 C1810 0.930 . S
O1781 Co1770 2.093 . S
O1781 C1773 1.224 . S
H1782 C1814 0.929 . S
H1783 C1816 0.930 . S
H1784 C1817 0.930 . S
H1785 C1815 0.929 . S
H1786 C1818 0.928 . S
O1787 Co1771 2.057 1_455 S
O1787 C1775 1.232 . S
H1788 C1807 0.929 . S
H1789 C1808 0.929 1_455 S
H1790 C1820 0.931 . S
H1791 C1812 0.929 . S
H1792 C1821 0.930 . S
H1793 C1813 0.931 . S
O1794 Co1770 2.097 . S
O1794 C1822 1.214 . S
H1795 C1823 0.942 . S
H1796 C1824 0.929 . S
H1797 C1825 0.930 . S
H1798 C1826 0.929 1_565 S
H1799 C1828 0.930 1_455 S
H1800 C1805 0.930 1_465 S
H1801 C1809 0.930 1_565 S
O1802 Co1771 2.037 . S
O1802 C1822 1.234 . S
C1803 O1777 1.269 . S
C1803 O1778 1.257 1_455 S
C1804 H1779 0.930 . S
C1804 C1807 1.388 . S
C1804 C1809 1.418 . S
C1805 H1800 0.930 1_645 S
C1805 C1808 1.404 . S
C1805 C1809 1.353 . S
N1806 Co1771 2.145 . S
N1806 C1807 1.397 . S
N1806 C1808 1.334 . S
C1807 H1788 0.929 . S
C1807 C1804 1.388 . S
C1807 N1806 1.397 . S
C1808 H1789 0.929 1_655 S
C1808 C1805 1.404 . S
C1808 N1806 1.334 . S
C1809 H1801 0.930 1_545 S
C1809 C1804 1.418 . S
C1809 C1805 1.353 . S
C1810 H1780 0.930 . S
C1810 N1811 1.330 . S
C1810 C1812 1.446 . S
N1811 Co1770 2.151 1_455 S
N1811 C1810 1.330 . S
N1811 C1815 1.418 . S
C1812 H1791 0.929 . S
C1812 C1810 1.446 . S
C1812 C1813 1.332 . S
C1813 H1793 0.931 . S
C1813 C1812 1.332 . S
C1813 C1814 1.267 . S
C1814 H1782 0.929 . S
C1814 C1813 1.267 . S
C1814 C1815 1.251 . S
C1815 H1785 0.929 . S
C1815 N1811 1.418 . S
C1815 C1814 1.251 . S
C1816 H1783 0.930 . S
C1816 C1818 1.406 . S
C1816 C1821 1.261 . S
C1817 H1784 0.930 . S
C1817 N1819 1.325 . S
C1817 C1820 1.357 . S
C1818 H1786 0.928 . S
C1818 C1816 1.406 . S
C1818 N1819 1.261 . S
N1819 Co1770 2.214 . S
N1819 C1817 1.325 . S
N1819 C1818 1.261 . S
C1820 H1790 0.931 . S
C1820 C1817 1.357 . S
C1820 C1821 1.312 . S
C1821 H1792 0.930 . S
C1821 C1816 1.261 . S
C1821 C1820 1.312 . S
C1822 O1794 1.214 . S
C1822 O1802 1.234 . S
C1823 H1795 0.942 . S
C1823 C1826 1.391 . S
C1823 C1828 1.391 . S
C1824 H1796 0.929 . S
C1824 C1825 1.390 . S
C1824 N1827 1.391 . S
C1825 H1797 0.930 . S
C1825 C1824 1.390 . S
C1825 C1826 1.392 . S
C1826 H1798 0.929 1_545 S
C1826 C1823 1.391 . S
C1826 C1825 1.392 . S
N1827 Co1771 2.257 . S
N1827 C1824 1.391 . S
N1827 C1828 1.388 . S
C1828 H1799 0.930 1_655 S
C1828 C1823 1.391 . S
C1828 N1827 1.388 . S
Co1829 O1831 2.143 . S
Co1829 O1837 2.074 . S
Co1829 O1840 2.093 . S
Co1829 O1853 2.097 . S
Co1829 N1870 2.151 . S
Co1829 N1878 2.214 . S
Co1830 O1831 2.160 . S
Co1830 O1836 2.058 . S
Co1830 O1846 2.057 . S
Co1830 O1861 2.037 . S
Co1830 N1865 2.145 . S
Co1830 N1886 2.257 . S
O1831 Co1829 2.143 . S
O1831 Co1830 2.160 . S
C1832 O1833 1.278 . S
C1832 O1840 1.224 . S
O1833 C1832 1.278 . S
C1834 O1835 1.245 . S
C1834 O1846 1.232 . S
O1835 C1834 1.245 . S
O1836 Co1830 2.058 . S
O1836 C1862 1.269 . S
O1837 Co1829 2.074 . S
O1837 C1862 1.257 . S
H1838 C1863 0.930 . S
H1839 C1869 0.930 . S
O1840 Co1829 2.093 . S
O1840 C1832 1.224 . S
H1841 C1873 0.929 . S
H1842 C1875 0.930 . S
H1843 C1876 0.930 . S
H1844 C1874 0.929 . S
H1845 C1877 0.928 . S
O1846 Co1830 2.057 . S
O1846 C1834 1.232 . S
H1847 C1866 0.929 . S
H1848 C1867 0.929 . S
H1849 C1879 0.931 . S
H1850 C1871 0.929 . S
H1851 C1880 0.930 . S
H1852 C1872 0.931 . S
O1853 Co1829 2.097 . S
O1853 C1881 1.214 . S
H1854 C1882 0.929 . S
H1855 C1883 0.929 . S
H1856 C1884 0.930 . S
H1857 C1885 0.929 . S
H1858 C1887 0.930 . S
H1859 C1864 0.930 . S
H1860 C1868 0.930 . S
O1861 Co1830 2.037 . S
O1861 C1881 1.234 . S
C1862 O1836 1.269 . S
C1862 O1837 1.257 . S
C1863 H1838 0.930 . S
C1863 C1866 1.388 . S
C1863 C1868 1.418 . S
C1864 H1859 0.930 . S
C1864 C1867 1.404 . S
C1864 C1868 1.353 . S
N1865 Co1830 2.145 . S
N1865 C1866 1.397 . S
N1865 C1867 1.334 . S
C1866 H1847 0.929 . S
C1866 C1863 1.388 . S
C1866 N1865 1.397 . S
C1867 H1848 0.929 . S
C1867 C1864 1.404 . S
C1867 N1865 1.334 . S
C1868 H1860 0.930 . S
C1868 C1863 1.418 . S
C1868 C1864 1.353 . S
C1869 H1839 0.930 . S
C1869 N1870 1.330 . S
C1869 C1871 1.446 . S
N1870 Co1829 2.151 . S
N1870 C1869 1.330 . S
N1870 C1874 1.418 . S
C1871 H1850 0.929 . S
C1871 C1869 1.446 . S
C1871 C1872 1.332 . S
C1872 H1852 0.931 . S
C1872 C1871 1.332 . S
C1872 C1873 1.267 . S
C1873 H1841 0.929 . S
C1873 C1872 1.267 . S
C1873 C1874 1.251 . S
C1874 H1844 0.929 . S
C1874 N1870 1.418 . S
C1874 C1873 1.251 . S
C1875 H1842 0.930 . S
C1875 C1877 1.406 . S
C1875 C1880 1.261 . S
C1876 H1843 0.930 . S
C1876 N1878 1.325 . S
C1876 C1879 1.357 . S
C1877 H1845 0.928 . S
C1877 C1875 1.406 . S
C1877 N1878 1.261 . S
N1878 Co1829 2.214 . S
N1878 C1876 1.325 . S
N1878 C1877 1.261 . S
C1879 H1849 0.931 . S
C1879 C1876 1.357 . S
C1879 C1880 1.312 . S
C1880 H1851 0.930 . S
C1880 C1875 1.261 . S
C1880 C1879 1.312 . S
C1881 O1853 1.214 . S
C1881 O1861 1.234 . S
C1882 H1854 0.929 . S
C1882 C1885 1.391 . S
C1882 C1887 1.391 . S
C1883 H1855 0.929 . S
C1883 C1884 1.390 . S
C1883 N1886 1.391 . S
C1884 H1856 0.930 . S
C1884 C1883 1.390 . S
C1884 C1885 1.392 . S
C1885 H1857 0.929 . S
C1885 C1882 1.391 . S
C1885 C1884 1.392 . S
N1886 Co1830 2.257 . S
N1886 C1883 1.391 . S
N1886 C1887 1.388 . S
C1887 H1858 0.930 . S
C1887 C1882 1.391 . S
C1887 N1886 1.388 . S
H1888 C1894 0.930 . S
H1889 C1897 0.930 . S
H1890 C1898 0.930 . S
H1891 C1899 0.930 . S
H1892 C1902 0.930 . S
H1893 C1903 0.930 . S
C1894 H1888 0.930 . S
C1894 C1895 1.355 . S
C1894 C1896 1.415 . S
C1895 C1894 1.355 . S
C1895 C1897 1.419 . S
C1896 C1894 1.415 . S
C1896 C1901 1.425 . S
C1896 C1903 1.409 . S
C1897 H1889 0.930 . S
C1897 C1895 1.419 . S
C1897 C1898 1.362 . S
C1898 H1890 0.930 . S
C1898 C1897 1.362 . S
C1898 C1901 1.409 . S
C1899 H1891 0.930 . S
C1899 C1900 1.355 . S
C1899 C1901 1.415 . S
C1900 C1899 1.355 . S
C1900 C1902 1.419 . S
C1901 C1896 1.425 . S
C1901 C1898 1.409 . S
C1901 C1899 1.415 . S
C1902 H1892 0.930 . S
C1902 C1900 1.419 . S
C1902 C1903 1.362 . S
C1903 H1893 0.930 . S
C1903 C1896 1.409 . S
C1903 C1902 1.362 . S
H1904 C1910 0.930 . S
H1905 C1913 0.931 . S
H1906 C1914 0.930 . S
H1907 C1915 0.930 . S
H1908 C1918 0.930 . S
H1909 C1919 0.930 . S
C1910 H1904 0.930 . S
C1910 C1911 1.355 . S
C1910 C1912 1.415 . S
C1911 C1910 1.355 . S
C1911 C1913 1.419 . S
C1912 C1910 1.415 . S
C1912 C1917 1.425 . S
C1912 C1919 1.409 . S
C1913 H1905 0.931 . S
C1913 C1911 1.419 . S
C1913 C1914 1.362 . S
C1914 H1906 0.930 . S
C1914 C1913 1.362 . S
C1914 C1917 1.409 . S
C1915 H1907 0.930 . S
C1915 C1916 1.355 . S
C1915 C1917 1.415 . S
C1916 C1915 1.355 . S
C1916 C1918 1.419 . S
C1917 C1912 1.425 . S
C1917 C1914 1.409 . S
C1917 C1915 1.415 . S
C1918 H1908 0.930 . S
C1918 C1916 1.419 . S
C1918 C1919 1.362 . S
C1919 H1909 0.930 . S
C1919 C1912 1.409 . S
C1919 C1918 1.362 . S
H1920 C1926 0.930 . S
H1921 C1929 0.930 . S
H1922 C1930 0.930 . S
H1923 C1931 0.930 . S
H1924 C1934 0.930 . S
H1925 C1935 0.930 . S
C1926 H1920 0.930 . S
C1926 C1927 1.355 . S
C1926 C1928 1.415 . S
C1927 C1926 1.355 . S
C1927 C1929 1.419 . S
C1928 C1926 1.415 . S
C1928 C1933 1.425 . S
C1928 C1935 1.409 . S
C1929 H1921 0.930 . S
C1929 C1927 1.419 . S
C1929 C1930 1.362 . S
C1930 H1922 0.930 . S
C1930 C1929 1.362 . S
C1930 C1933 1.409 . S
C1931 H1923 0.930 . S
C1931 C1932 1.355 . S
C1931 C1933 1.415 . S
C1932 C1931 1.355 . S
C1932 C1934 1.419 . S
C1933 C1928 1.425 . S
C1933 C1930 1.409 . S
C1933 C1931 1.415 . S
C1934 H1924 0.930 . S
C1934 C1932 1.419 . S
C1934 C1935 1.362 . S
C1935 H1925 0.930 . S
C1935 C1928 1.409 . S
C1935 C1934 1.362 . S
H1936 C1942 0.930 . S
H1937 C1945 0.930 . S
H1938 C1946 0.930 . S
H1939 C1947 0.930 . S
H1940 C1950 0.930 . S
H1941 C1951 0.930 . S
C1942 H1936 0.930 . S
C1942 C1943 1.355 . S
C1942 C1944 1.415 . S
C1943 C1942 1.355 . S
C1943 C1945 1.419 . S
C1944 C1942 1.415 . S
C1944 C1949 1.425 . S
C1944 C1951 1.409 . S
C1945 H1937 0.930 . S
C1945 C1943 1.419 . S
C1945 C1946 1.362 . S
C1946 H1938 0.930 . S
C1946 C1945 1.362 . S
C1946 C1949 1.409 . S
C1947 H1939 0.930 . S
C1947 C1948 1.355 . S
C1947 C1949 1.415 . S
C1948 C1947 1.355 . S
C1948 C1950 1.419 . S
C1949 C1944 1.425 . S
C1949 C1946 1.409 . S
C1949 C1947 1.415 . S
C1950 H1940 0.930 . S
C1950 C1948 1.419 . S
C1950 C1951 1.362 . S
C1951 H1941 0.930 . S
C1951 C1944 1.409 . S
C1951 C1950 1.362 . S
H1952 C1958 0.930 . S
H1953 C1961 0.930 . S
H1954 C1962 0.930 . S
H1955 C1963 0.930 . S
H1956 C1966 0.930 . S
H1957 C1967 0.930 . S
C1958 H1952 0.930 . S
C1958 C1959 1.355 . S
C1958 C1960 1.415 . S
C1959 C1958 1.355 . S
C1959 C1961 1.419 . S
C1960 C1958 1.415 . S
C1960 C1965 1.425 . S
C1960 C1967 1.409 . S
C1961 H1953 0.930 . S
C1961 C1959 1.419 . S
C1961 C1962 1.362 . S
C1962 H1954 0.930 . S
C1962 C1961 1.362 . S
C1962 C1965 1.409 . S
C1963 H1955 0.930 . S
C1963 C1964 1.355 . S
C1963 C1965 1.415 . S
C1964 C1963 1.355 . S
C1964 C1966 1.419 . S
C1965 C1960 1.425 . S
C1965 C1962 1.409 . S
C1965 C1963 1.415 . S
C1966 H1956 0.930 . S
C1966 C1964 1.419 . S
C1966 C1967 1.362 . S
C1967 H1957 0.930 . S
C1967 C1960 1.409 . S
C1967 C1966 1.362 . S
H1968 C1974 0.930 . S
H1969 C1977 0.930 . S
H1970 C1978 0.930 . S
H1971 C1979 0.930 . S
H1972 C1982 0.930 . S
H1973 C1983 0.930 . S
C1974 H1968 0.930 . S
C1974 C1975 1.355 . S
C1974 C1976 1.415 . S
C1975 C1974 1.355 . S
C1975 C1977 1.419 . S
C1976 C1974 1.415 . S
C1976 C1981 1.425 . S
C1976 C1983 1.409 . S
C1977 H1969 0.930 . S
C1977 C1975 1.419 . S
C1977 C1978 1.362 . S
C1978 H1970 0.930 . S
C1978 C1977 1.362 . S
C1978 C1981 1.409 . S
C1979 H1971 0.930 . S
C1979 C1980 1.355 . S
C1979 C1981 1.415 . S
C1980 C1979 1.355 . S
C1980 C1982 1.419 . S
C1981 C1976 1.425 . S
C1981 C1978 1.409 . S
C1981 C1979 1.415 . S
C1982 H1972 0.930 . S
C1982 C1980 1.419 . S
C1982 C1983 1.362 . S
C1983 H1973 0.930 . S
C1983 C1976 1.409 . S
C1983 C1982 1.362 . S
H1984 C1990 0.930 . S
H1985 C1993 0.930 . S
H1986 C1994 0.930 . S
H1987 C1995 0.930 . S
H1988 C1998 0.930 . S
H1989 C1999 0.930 . S
C1990 H1984 0.930 . S
C1990 C1991 1.355 . S
C1990 C1992 1.415 . S
C1991 C1990 1.355 . S
C1991 C1993 1.419 . S
C1992 C1990 1.415 . S
C1992 C1997 1.425 . S
C1992 C1999 1.409 . S
C1993 H1985 0.930 . S
C1993 C1991 1.419 . S
C1993 C1994 1.362 . S
C1994 H1986 0.930 . S
C1994 C1993 1.362 . S
C1994 C1997 1.409 . S
C1995 H1987 0.930 . S
C1995 C1996 1.355 . S
C1995 C1997 1.415 . S
C1996 C1995 1.355 . S
C1996 C1998 1.419 . S
C1997 C1992 1.425 . S
C1997 C1994 1.409 . S
C1997 C1995 1.415 . S
C1998 H1988 0.930 . S
C1998 C1996 1.419 . S
C1998 C1999 1.362 . S
C1999 H1989 0.930 . S
C1999 C1992 1.409 . S
C1999 C1998 1.362 . S
H2000 C2006 0.930 . S
H2001 C2009 0.930 . S
H2002 C2010 0.930 . S
H2003 C2011 0.930 . S
H2004 C2014 0.930 . S
H2005 C2015 0.930 . S
C2006 H2000 0.930 . S
C2006 C2007 1.355 . S
C2006 C2008 1.415 . S
C2007 C2006 1.355 . S
C2007 C2009 1.419 . S
C2008 C2006 1.415 . S
C2008 C2013 1.425 . S
C2008 C2015 1.409 . S
C2009 H2001 0.930 . S
C2009 C2007 1.419 . S
C2009 C2010 1.362 . S
C2010 H2002 0.930 . S
C2010 C2009 1.362 . S
C2010 C2013 1.409 . S
C2011 H2003 0.930 . S
C2011 C2012 1.355 . S
C2011 C2013 1.415 . S
C2012 C2011 1.355 . S
C2012 C2014 1.419 . S
C2013 C2008 1.425 . S
C2013 C2010 1.409 . S
C2013 C2011 1.415 . S
C2014 H2004 0.930 . S
C2014 C2012 1.419 . S
C2014 C2015 1.362 . S
C2015 H2005 0.930 . S
C2015 C2008 1.409 . S
C2015 C2014 1.362 . S
H2016 C2022 0.930 . S
H2017 C2025 0.930 . S
H2018 C2026 0.930 . S
H2019 C2027 0.930 . S
H2020 C2030 0.930 . S
H2021 C2031 0.930 . S
C2022 H2016 0.930 . S
C2022 C2023 1.355 . S
C2022 C2024 1.415 . S
C2023 C2022 1.355 . S
C2023 C2025 1.419 1_655 S
C2024 C2022 1.415 . S
C2024 C2029 1.425 1_655 S
C2024 C2031 1.409 . S
C2025 H2017 0.930 . S
C2025 C2023 1.419 1_455 S
C2025 C2026 1.362 . S
C2026 H2018 0.930 . S
C2026 C2025 1.362 . S
C2026 C2029 1.409 . S
C2027 H2019 0.930 . S
C2027 C2028 1.355 1_455 S
C2027 C2029 1.415 . S
C2028 C2027 1.355 1_655 S
C2028 C2030 1.419 . S
C2029 C2024 1.425 1_455 S
C2029 C2026 1.409 . S
C2029 C2027 1.415 . S
C2030 H2020 0.930 . S
C2030 C2028 1.419 . S
C2030 C2031 1.362 . S
C2031 H2021 0.930 . S
C2031 C2024 1.409 . S
C2031 C2030 1.362 . S
H2032 C2038 0.930 . S
H2033 C2041 0.930 . S
H2034 C2042 0.930 . S
H2035 C2043 0.930 . S
H2036 C2046 0.930 . S
H2037 C2047 0.930 . S
C2038 H2032 0.930 . S
C2038 C2039 1.355 . S
C2038 C2040 1.415 . S
C2039 C2038 1.355 . S
C2039 C2041 1.419 . S
C2040 C2038 1.415 . S
C2040 C2045 1.425 . S
C2040 C2047 1.409 . S
C2041 H2033 0.930 . S
C2041 C2039 1.419 . S
C2041 C2042 1.362 . S
C2042 H2034 0.930 . S
C2042 C2041 1.362 . S
C2042 C2045 1.409 . S
C2043 H2035 0.930 . S
C2043 C2044 1.355 . S
C2043 C2045 1.415 . S
C2044 C2043 1.355 . S
C2044 C2046 1.419 . S
C2045 C2040 1.425 . S
C2045 C2042 1.409 . S
C2045 C2043 1.415 . S
C2046 H2036 0.930 . S
C2046 C2044 1.419 . S
C2046 C2047 1.362 . S
C2047 H2037 0.930 . S
C2047 C2040 1.409 . S
C2047 C2046 1.362 . S
H2048 C2054 0.930 . S
H2049 C2057 0.930 . S
H2050 C2058 0.930 . S
H2051 C2059 0.930 . S
H2052 C2062 0.930 . S
H2053 C2063 0.930 . S
C2054 H2048 0.930 . S
C2054 C2055 1.355 1_655 S
C2054 C2056 1.415 . S
C2055 C2054 1.355 1_455 S
C2055 C2057 1.419 . S
C2056 C2054 1.415 . S
C2056 C2061 1.425 1_655 S
C2056 C2063 1.409 . S
C2057 H2049 0.930 . S
C2057 C2055 1.419 . S
C2057 C2058 1.362 . S
C2058 H2050 0.930 . S
C2058 C2057 1.362 . S
C2058 C2061 1.409 . S
C2059 H2051 0.930 . S
C2059 C2060 1.355 . S
C2059 C2061 1.415 . S
C2060 C2059 1.355 . S
C2060 C2062 1.419 1_455 S
C2061 C2056 1.425 1_455 S
C2061 C2058 1.409 . S
C2061 C2059 1.415 . S
C2062 H2052 0.930 . S
C2062 C2060 1.419 1_655 S
C2062 C2063 1.362 . S
C2063 H2053 0.930 . S
C2063 C2056 1.409 . S
C2063 C2062 1.362 . S
H2064 C2070 0.930 . S
H2065 C2073 0.930 . S
H2066 C2074 0.930 . S
H2067 C2075 0.930 . S
H2068 C2078 0.930 . S
H2069 C2079 0.930 . S
C2070 H2064 0.930 . S
C2070 C2071 1.355 . S
C2070 C2072 1.415 . S
C2071 C2070 1.355 . S
C2071 C2073 1.419 . S
C2072 C2070 1.415 . S
C2072 C2077 1.425 . S
C2072 C2079 1.409 . S
C2073 H2065 0.930 . S
C2073 C2071 1.419 . S
C2073 C2074 1.362 . S
C2074 H2066 0.930 . S
C2074 C2073 1.362 . S
C2074 C2077 1.409 . S
C2075 H2067 0.930 . S
C2075 C2076 1.355 . S
C2075 C2077 1.415 . S
C2076 C2075 1.355 . S
C2076 C2078 1.419 . S
C2077 C2072 1.425 . S
C2077 C2074 1.409 . S
C2077 C2075 1.415 . S
C2078 H2068 0.930 . S
C2078 C2076 1.419 . S
C2078 C2079 1.362 . S
C2079 H2069 0.930 . S
C2079 C2072 1.409 . S
C2079 C2078 1.362 . S
H2080 C2086 0.930 . S
H2081 C2089 0.930 . S
H2082 C2090 0.930 . S
H2083 C2091 0.930 . S
H2084 C2094 0.930 . S
H2085 C2095 0.930 . S
C2086 H2080 0.930 . S
C2086 C2087 1.355 . S
C2086 C2088 1.415 . S
C2087 C2086 1.355 . S
C2087 C2089 1.419 1_655 S
C2088 C2086 1.415 . S
C2088 C2093 1.425 1_655 S
C2088 C2095 1.409 . S
C2089 H2081 0.930 . S
C2089 C2087 1.419 1_455 S
C2089 C2090 1.362 . S
C2090 H2082 0.930 . S
C2090 C2089 1.362 . S
C2090 C2093 1.409 . S
C2091 H2083 0.930 . S
C2091 C2092 1.355 1_455 S
C2091 C2093 1.415 . S
C2092 C2091 1.355 1_655 S
C2092 C2094 1.419 . S
C2093 C2088 1.425 1_455 S
C2093 C2090 1.409 . S
C2093 C2091 1.415 . S
C2094 H2084 0.930 . S
C2094 C2092 1.419 . S
C2094 C2095 1.362 . S
C2095 H2085 0.930 . S
C2095 C2088 1.409 . S
C2095 C2094 1.362 . S
H2096 C2102 0.930 . S
H2097 C2105 0.930 . S
H2098 C2106 0.930 . S
H2099 C2107 0.930 . S
H2100 C2110 0.930 . S
H2101 C2111 0.930 . S
C2102 H2096 0.930 . S
C2102 C2103 1.355 . S
C2102 C2104 1.415 . S
C2103 C2102 1.355 . S
C2103 C2105 1.419 . S
C2104 C2102 1.415 . S
C2104 C2109 1.425 . S
C2104 C2111 1.409 . S
C2105 H2097 0.930 . S
C2105 C2103 1.419 . S
C2105 C2106 1.362 . S
C2106 H2098 0.930 . S
C2106 C2105 1.362 . S
C2106 C2109 1.409 . S
C2107 H2099 0.930 . S
C2107 C2108 1.355 . S
C2107 C2109 1.415 . S
C2108 C2107 1.355 . S
C2108 C2110 1.419 . S
C2109 C2104 1.425 . S
C2109 C2106 1.409 . S
C2109 C2107 1.415 . S
C2110 H2100 0.930 . S
C2110 C2108 1.419 . S
C2110 C2111 1.362 . S
C2111 H2101 0.930 . S
C2111 C2104 1.409 . S
C2111 C2110 1.362 . S
H2112 C2118 0.930 . S
H2113 C2121 0.930 . S
H2114 C2122 0.930 . S
H2115 C2123 0.930 . S
H2116 C2126 0.930 . S
H2117 C2127 0.930 . S
C2118 H2112 0.930 . S
C2118 C2119 1.355 . S
C2118 C2120 1.415 . S
C2119 C2118 1.355 . S
C2119 C2121 1.419 . S
C2120 C2118 1.415 . S
C2120 C2125 1.425 . S
C2120 C2127 1.409 . S
C2121 H2113 0.930 . S
C2121 C2119 1.419 . S
C2121 C2122 1.362 . S
C2122 H2114 0.930 . S
C2122 C2121 1.362 . S
C2122 C2125 1.409 . S
C2123 H2115 0.930 . S
C2123 C2124 1.355 . S
C2123 C2125 1.415 . S
C2124 C2123 1.355 . S
C2124 C2126 1.419 . S
C2125 C2120 1.425 . S
C2125 C2122 1.409 . S
C2125 C2123 1.415 . S
C2126 H2116 0.930 . S
C2126 C2124 1.419 . S
C2126 C2127 1.362 . S
C2127 H2117 0.930 . S
C2127 C2120 1.409 . S
C2127 C2126 1.362 . S
H2128 C2134 0.930 . S
H2129 C2137 0.930 . S
H2130 C2138 0.930 . S
H2131 C2139 0.930 . S
H2132 C2142 0.930 . S
H2133 C2143 0.930 . S
C2134 H2128 0.930 . S
C2134 C2135 1.355 . S
C2134 C2136 1.415 . S
C2135 C2134 1.355 . S
C2135 C2137 1.419 . S
C2136 C2134 1.415 . S
C2136 C2141 1.425 . S
C2136 C2143 1.409 . S
C2137 H2129 0.930 . S
C2137 C2135 1.419 . S
C2137 C2138 1.362 . S
C2138 H2130 0.930 . S
C2138 C2137 1.362 . S
C2138 C2141 1.409 . S
C2139 H2131 0.930 . S
C2139 C2140 1.355 . S
C2139 C2141 1.415 . S
C2140 C2139 1.355 . S
C2140 C2142 1.419 . S
C2141 C2136 1.425 . S
C2141 C2138 1.409 . S
C2141 C2139 1.415 . S
C2142 H2132 0.930 . S
C2142 C2140 1.419 . S
C2142 C2143 1.362 . S
C2143 H2133 0.930 . S
C2143 C2136 1.409 . S
C2143 C2142 1.362 . S
H2144 C2150 0.930 . S
H2145 C2153 0.930 . S
H2146 C2154 0.930 . S
H2147 C2155 0.930 . S
H2148 C2158 0.930 . S
H2149 C2159 0.930 . S
C2150 H2144 0.930 . S
C2150 C2151 1.355 . S
C2150 C2152 1.415 . S
C2151 C2150 1.355 . S
C2151 C2153 1.419 . S
C2152 C2150 1.415 . S
C2152 C2157 1.425 . S
C2152 C2159 1.409 . S
C2153 H2145 0.930 . S
C2153 C2151 1.419 . S
C2153 C2154 1.362 . S
C2154 H2146 0.930 . S
C2154 C2153 1.362 . S
C2154 C2157 1.409 . S
C2155 H2147 0.930 . S
C2155 C2156 1.355 . S
C2155 C2157 1.415 . S
C2156 C2155 1.355 . S
C2156 C2158 1.419 . S
C2157 C2152 1.425 . S
C2157 C2154 1.409 . S
C2157 C2155 1.415 . S
C2158 H2148 0.930 . S
C2158 C2156 1.419 . S
C2158 C2159 1.362 . S
C2159 H2149 0.930 . S
C2159 C2152 1.409 . S
C2159 C2158 1.362 . S
H2160 C2166 0.930 . S
H2161 C2169 0.930 . S
H2162 C2170 0.930 . S
H2163 C2171 0.930 . S
H2164 C2174 0.930 . S
H2165 C2175 0.930 . S
C2166 H2160 0.930 . S
C2166 C2167 1.355 . S
C2166 C2168 1.415 . S
C2167 C2166 1.355 . S
C2167 C2169 1.419 . S
C2168 C2166 1.415 . S
C2168 C2173 1.425 . S
C2168 C2175 1.409 . S
C2169 H2161 0.930 . S
C2169 C2167 1.419 . S
C2169 C2170 1.362 . S
C2170 H2162 0.930 . S
C2170 C2169 1.362 . S
C2170 C2173 1.409 . S
C2171 H2163 0.930 . S
C2171 C2172 1.355 . S
C2171 C2173 1.415 . S
C2172 C2171 1.355 . S
C2172 C2174 1.419 . S
C2173 C2168 1.425 . S
C2173 C2170 1.409 . S
C2173 C2171 1.415 . S
C2174 H2164 0.930 . S
C2174 C2172 1.419 . S
C2174 C2175 1.362 . S
C2175 H2165 0.930 . S
C2175 C2168 1.409 . S
C2175 C2174 1.362 . S
H2176 C2182 0.930 . S
H2177 C2185 0.930 . S
H2178 C2186 0.930 . S
H2179 C2187 0.930 . S
H2180 C2190 0.930 . S
H2181 C2191 0.930 . S
C2182 H2176 0.930 . S
C2182 C2183 1.355 . S
C2182 C2184 1.415 . S
C2183 C2182 1.355 . S
C2183 C2185 1.419 . S
C2184 C2182 1.415 . S
C2184 C2189 1.425 . S
C2184 C2191 1.409 . S
C2185 H2177 0.930 . S
C2185 C2183 1.419 . S
C2185 C2186 1.362 . S
C2186 H2178 0.930 . S
C2186 C2185 1.362 . S
C2186 C2189 1.409 . S
C2187 H2179 0.930 . S
C2187 C2188 1.355 . S
C2187 C2189 1.415 . S
C2188 C2187 1.355 . S
C2188 C2190 1.419 . S
C2189 C2184 1.425 . S
C2189 C2186 1.409 . S
C2189 C2187 1.415 . S
C2190 H2180 0.930 . S
C2190 C2188 1.419 . S
C2190 C2191 1.362 . S
C2191 H2181 0.930 . S
C2191 C2184 1.409 . S
C2191 C2190 1.362 . S
H2192 C2198 0.930 . S
H2193 C2201 0.930 . S
H2194 C2202 0.930 . S
H2195 C2203 0.930 . S
H2196 C2206 0.930 . S
H2197 C2207 0.930 1_545 S
C2198 H2192 0.930 . S
C2198 C2199 1.355 . S
C2198 C2200 1.415 . S
C2199 C2198 1.355 . S
C2199 C2201 1.419 . S
C2200 C2198 1.415 . S
C2200 C2205 1.425 . S
C2200 C2207 1.409 . S
C2201 H2193 0.930 . S
C2201 C2199 1.419 . S
C2201 C2202 1.362 . S
C2202 H2194 0.930 . S
C2202 C2201 1.362 . S
C2202 C2205 1.409 . S
C2203 H2195 0.930 . S
C2203 C2204 1.355 . S
C2203 C2205 1.415 . S
C2204 C2203 1.355 . S
C2204 C2206 1.419 . S
C2205 C2200 1.425 . S
C2205 C2202 1.409 . S
C2205 C2203 1.415 . S
C2206 H2196 0.930 . S
C2206 C2204 1.419 . S
C2206 C2207 1.362 . S
C2207 H2197 0.930 1_565 S
C2207 C2200 1.409 . S
C2207 C2206 1.362 . S
H2208 C2214 0.930 . S
H2209 C2217 0.930 . S
H2210 C2218 0.930 . S
H2211 C2219 0.930 . S
H2212 C2222 0.930 . S
H2213 C2223 0.930 . S
C2214 H2208 0.930 . S
C2214 C2215 1.355 . S
C2214 C2216 1.415 . S
C2215 C2214 1.355 . S
C2215 C2217 1.419 . S
C2216 C2214 1.415 . S
C2216 C2221 1.425 . S
C2216 C2223 1.409 . S
C2217 H2209 0.930 . S
C2217 C2215 1.419 . S
C2217 C2218 1.362 . S
C2218 H2210 0.930 . S
C2218 C2217 1.362 . S
C2218 C2221 1.409 . S
C2219 H2211 0.930 . S
C2219 C2220 1.355 . S
C2219 C2221 1.415 . S
C2220 C2219 1.355 . S
C2220 C2222 1.419 . S
C2221 C2216 1.425 . S
C2221 C2218 1.409 . S
C2221 C2219 1.415 . S
C2222 H2212 0.930 . S
C2222 C2220 1.419 . S
C2222 C2223 1.362 . S
C2223 H2213 0.930 . S
C2223 C2216 1.409 . S
C2223 C2222 1.362 . S
H2224 C2230 0.930 . S
H2225 C2233 0.930 . S
H2226 C2234 0.930 . S
H2227 C2235 0.930 . S
H2228 C2238 0.930 . S
H2229 C2239 0.930 . S
C2230 H2224 0.930 . S
C2230 C2231 1.355 . S
C2230 C2232 1.415 . S
C2231 C2230 1.355 . S
C2231 C2233 1.419 . S
C2232 C2230 1.415 . S
C2232 C2237 1.425 . S
C2232 C2239 1.409 . S
C2233 H2225 0.930 . S
C2233 C2231 1.419 . S
C2233 C2234 1.362 . S
C2234 H2226 0.930 . S
C2234 C2233 1.362 . S
C2234 C2237 1.409 . S
C2235 H2227 0.930 . S
C2235 C2236 1.355 . S
C2235 C2237 1.415 . S
C2236 C2235 1.355 . S
C2236 C2238 1.419 . S
C2237 C2232 1.425 . S
C2237 C2234 1.409 . S
C2237 C2235 1.415 . S
C2238 H2228 0.930 . S
C2238 C2236 1.419 . S
C2238 C2239 1.362 . S
C2239 H2229 0.930 . S
C2239 C2232 1.409 . S
C2239 C2238 1.362 . S
H2240 C2246 0.930 . S
H2241 C2249 0.930 . S
H2242 C2250 0.930 . S
H2243 C2251 0.930 . S
H2244 C2254 0.930 . S
H2245 C2255 0.930 . S
C2246 H2240 0.930 . S
C2246 C2247 1.355 . S
C2246 C2248 1.415 . S
C2247 C2246 1.355 . S
C2247 C2249 1.419 . S
C2248 C2246 1.415 . S
C2248 C2253 1.425 . S
C2248 C2255 1.409 . S
C2249 H2241 0.930 . S
C2249 C2247 1.419 . S
C2249 C2250 1.362 . S
C2250 H2242 0.930 . S
C2250 C2249 1.362 . S
C2250 C2253 1.409 . S
C2251 H2243 0.930 . S
C2251 C2252 1.355 . S
C2251 C2253 1.415 . S
C2252 C2251 1.355 . S
C2252 C2254 1.419 . S
C2253 C2248 1.425 . S
C2253 C2250 1.409 . S
C2253 C2251 1.415 . S
C2254 H2244 0.930 . S
C2254 C2252 1.419 . S
C2254 C2255 1.362 . S
C2255 H2245 0.930 . S
C2255 C2248 1.409 . S
C2255 C2254 1.362 . S
H2256 C2262 0.930 . S
H2257 C2265 0.930 . S
H2258 C2266 0.930 . S
H2259 C2267 0.930 . S
H2260 C2270 0.930 . S
H2261 C2271 0.930 . S
C2262 H2256 0.930 . S
C2262 C2263 1.355 . S
C2262 C2264 1.415 . S
C2263 C2262 1.355 . S
C2263 C2265 1.419 . S
C2264 C2262 1.415 . S
C2264 C2269 1.425 . S
C2264 C2271 1.409 . S
C2265 H2257 0.930 . S
C2265 C2263 1.419 . S
C2265 C2266 1.362 . S
C2266 H2258 0.930 . S
C2266 C2265 1.362 . S
C2266 C2269 1.409 . S
C2267 H2259 0.930 . S
C2267 C2268 1.355 . S
C2267 C2269 1.415 . S
C2268 C2267 1.355 . S
C2268 C2270 1.419 . S
C2269 C2264 1.425 . S
C2269 C2266 1.409 . S
C2269 C2267 1.415 . S
C2270 H2260 0.930 . S
C2270 C2268 1.419 . S
C2270 C2271 1.362 . S
C2271 H2261 0.930 . S
C2271 C2264 1.409 . S
C2271 C2270 1.362 . S
H2272 C2278 0.930 . S
H2273 C2281 0.930 . S
H2274 C2282 0.930 . S
H2275 C2283 0.930 . S
H2276 C2286 0.930 . S
H2277 C2287 0.930 . S
C2278 H2272 0.930 . S
C2278 C2279 1.355 . S
C2278 C2280 1.415 . S
C2279 C2278 1.355 . S
C2279 C2281 1.419 . S
C2280 C2278 1.415 . S
C2280 C2285 1.425 . S
C2280 C2287 1.409 . S
C2281 H2273 0.930 . S
C2281 C2279 1.419 . S
C2281 C2282 1.362 . S
C2282 H2274 0.930 . S
C2282 C2281 1.362 . S
C2282 C2285 1.409 . S
C2283 H2275 0.930 . S
C2283 C2284 1.355 . S
C2283 C2285 1.415 . S
C2284 C2283 1.355 . S
C2284 C2286 1.419 . S
C2285 C2280 1.425 . S
C2285 C2282 1.409 . S
C2285 C2283 1.415 . S
C2286 H2276 0.930 . S
C2286 C2284 1.419 . S
C2286 C2287 1.362 . S
C2287 H2277 0.930 . S
C2287 C2280 1.409 . S
C2287 C2286 1.362 . S
H2288 C2294 0.930 . S
H2289 C2297 0.930 . S
H2290 C2298 0.930 . S
H2291 C2299 0.930 . S
H2292 C2302 0.930 . S
H2293 C2303 0.930 1_545 S
C2294 H2288 0.930 . S
C2294 C2295 1.355 . S
C2294 C2296 1.415 . S
C2295 C2294 1.355 . S
C2295 C2297 1.419 . S
C2296 C2294 1.415 . S
C2296 C2301 1.425 . S
C2296 C2303 1.409 . S
C2297 H2289 0.930 . S
C2297 C2295 1.419 . S
C2297 C2298 1.362 . S
C2298 H2290 0.930 . S
C2298 C2297 1.362 . S
C2298 C2301 1.409 . S
C2299 H2291 0.930 . S
C2299 C2300 1.355 . S
C2299 C2301 1.415 . S
C2300 C2299 1.355 . S
C2300 C2302 1.419 . S
C2301 C2296 1.425 . S
C2301 C2298 1.409 . S
C2301 C2299 1.415 . S
C2302 H2292 0.930 . S
C2302 C2300 1.419 . S
C2302 C2303 1.362 . S
C2303 H2293 0.930 1_565 S
C2303 C2296 1.409 . S
C2303 C2302 1.362 . S
H2304 C2310 0.930 . S
H2305 C2313 0.930 . S
H2306 C2314 0.930 . S
H2307 C2315 0.930 . S
H2308 C2318 0.930 . S
H2309 C2319 0.930 1_545 S
C2310 H2304 0.930 . S
C2310 C2311 1.355 . S
C2310 C2312 1.415 . S
C2311 C2310 1.355 . S
C2311 C2313 1.419 . S
C2312 C2310 1.415 . S
C2312 C2317 1.425 . S
C2312 C2319 1.409 . S
C2313 H2305 0.930 . S
C2313 C2311 1.419 . S
C2313 C2314 1.362 . S
C2314 H2306 0.930 . S
C2314 C2313 1.362 . S
C2314 C2317 1.409 . S
C2315 H2307 0.930 . S
C2315 C2316 1.355 . S
C2315 C2317 1.415 . S
C2316 C2315 1.355 . S
C2316 C2318 1.419 . S
C2317 C2312 1.425 . S
C2317 C2314 1.409 . S
C2317 C2315 1.415 . S
C2318 H2308 0.930 . S
C2318 C2316 1.419 . S
C2318 C2319 1.362 . S
C2319 H2309 0.930 1_565 S
C2319 C2312 1.409 . S
C2319 C2318 1.362 . S
H2320 C2326 0.930 . S
H2321 C2329 0.930 . S
H2322 C2330 0.930 . S
H2323 C2331 0.930 . S
H2324 C2334 0.930 . S
H2325 C2335 0.930 . S
C2326 H2320 0.930 . S
C2326 C2327 1.355 . S
C2326 C2328 1.415 . S
C2327 C2326 1.355 . S
C2327 C2329 1.419 . S
C2328 C2326 1.415 . S
C2328 C2333 1.425 . S
C2328 C2335 1.409 . S
C2329 H2321 0.930 . S
C2329 C2327 1.419 . S
C2329 C2330 1.362 . S
C2330 H2322 0.930 . S
C2330 C2329 1.362 . S
C2330 C2333 1.409 . S
C2331 H2323 0.930 . S
C2331 C2332 1.355 . S
C2331 C2333 1.415 . S
C2332 C2331 1.355 . S
C2332 C2334 1.419 . S
C2333 C2328 1.425 . S
C2333 C2330 1.409 . S
C2333 C2331 1.415 . S
C2334 H2324 0.930 . S
C2334 C2332 1.419 . S
C2334 C2335 1.362 . S
C2335 H2325 0.930 . S
C2335 C2328 1.409 . S
C2335 C2334 1.362 . S
H2336 C2342 0.930 . S
H2337 C2345 0.930 . S
H2338 C2346 0.930 . S
H2339 C2347 0.930 . S
H2340 C2350 0.930 . S
H2341 C2351 0.930 . S
C2342 H2336 0.930 . S
C2342 C2343 1.355 . S
C2342 C2344 1.415 . S
C2343 C2342 1.355 . S
C2343 C2345 1.419 . S
C2344 C2342 1.415 . S
C2344 C2349 1.425 . S
C2344 C2351 1.409 . S
C2345 H2337 0.930 . S
C2345 C2343 1.419 . S
C2345 C2346 1.362 . S
C2346 H2338 0.930 . S
C2346 C2345 1.362 . S
C2346 C2349 1.409 . S
C2347 H2339 0.930 . S
C2347 C2348 1.355 . S
C2347 C2349 1.415 . S
C2348 C2347 1.355 . S
C2348 C2350 1.419 . S
C2349 C2344 1.425 . S
C2349 C2346 1.409 . S
C2349 C2347 1.415 . S
C2350 H2340 0.930 . S
C2350 C2348 1.419 . S
C2350 C2351 1.362 . S
C2351 H2341 0.930 . S
C2351 C2344 1.409 . S
C2351 C2350 1.362 . S
H2352 C2358 0.930 . S
H2353 C2361 0.930 . S
H2354 C2362 0.930 1_565 S
H2355 C2363 0.930 . S
H2356 C2366 0.930 . S
H2357 C2367 0.930 . S
C2358 H2352 0.930 . S
C2358 C2359 1.355 . S
C2358 C2360 1.415 . S
C2359 C2358 1.355 . S
C2359 C2361 1.419 . S
C2360 C2358 1.415 . S
C2360 C2365 1.425 . S
C2360 C2367 1.409 . S
C2361 H2353 0.930 . S
C2361 C2359 1.419 . S
C2361 C2362 1.362 . S
C2362 H2354 0.930 1_545 S
C2362 C2361 1.362 . S
C2362 C2365 1.409 . S
C2363 H2355 0.930 . S
C2363 C2364 1.355 . S
C2363 C2365 1.415 . S
C2364 C2363 1.355 . S
C2364 C2366 1.419 . S
C2365 C2360 1.425 . S
C2365 C2362 1.409 . S
C2365 C2363 1.415 . S
C2366 H2356 0.930 . S
C2366 C2364 1.419 . S
C2366 C2367 1.362 . S
C2367 H2357 0.930 . S
C2367 C2360 1.409 . S
C2367 C2366 1.362 . S
H2368 C2374 0.930 . S
H2369 C2377 0.930 . S
H2370 C2378 0.930 . S
H2371 C2379 0.930 . S
H2372 C2382 0.930 . S
H2373 C2383 0.930 . S
C2374 H2368 0.930 . S
C2374 C2375 1.355 . S
C2374 C2376 1.415 . S
C2375 C2374 1.355 . S
C2375 C2377 1.419 . S
C2376 C2374 1.415 . S
C2376 C2381 1.425 . S
C2376 C2383 1.409 . S
C2377 H2369 0.930 . S
C2377 C2375 1.419 . S
C2377 C2378 1.362 . S
C2378 H2370 0.930 . S
C2378 C2377 1.362 . S
C2378 C2381 1.409 . S
C2379 H2371 0.930 . S
C2379 C2380 1.355 . S
C2379 C2381 1.415 . S
C2380 C2379 1.355 . S
C2380 C2382 1.419 . S
C2381 C2376 1.425 . S
C2381 C2378 1.409 . S
C2381 C2379 1.415 . S
C2382 H2372 0.930 . S
C2382 C2380 1.419 . S
C2382 C2383 1.362 . S
C2383 H2373 0.930 . S
C2383 C2376 1.409 . S
C2383 C2382 1.362 . S
H2384 C2390 0.930 . S
H2385 C2393 0.930 . S
H2386 C2394 0.930 . S
H2387 C2395 0.930 . S
H2388 C2398 0.930 . S
H2389 C2399 0.930 . S
C2390 H2384 0.930 . S
C2390 C2391 1.355 . S
C2390 C2392 1.415 . S
C2391 C2390 1.355 . S
C2391 C2393 1.419 . S
C2392 C2390 1.415 . S
C2392 C2397 1.425 . S
C2392 C2399 1.409 . S
C2393 H2385 0.930 . S
C2393 C2391 1.419 . S
C2393 C2394 1.362 . S
C2394 H2386 0.930 . S
C2394 C2393 1.362 . S
C2394 C2397 1.409 . S
C2395 H2387 0.930 . S
C2395 C2396 1.355 . S
C2395 C2397 1.415 . S
C2396 C2395 1.355 . S
C2396 C2398 1.419 . S
C2397 C2392 1.425 . S
C2397 C2394 1.409 . S
C2397 C2395 1.415 . S
C2398 H2388 0.930 . S
C2398 C2396 1.419 . S
C2398 C2399 1.362 . S
C2399 H2389 0.930 . S
C2399 C2392 1.409 . S
C2399 C2398 1.362 . S
H2400 C2406 0.930 . S
H2401 C2409 0.930 . S
H2402 C2410 0.930 1_556 S
H2403 C2411 0.930 . S
H2404 C2414 0.930 . S
H2405 C2415 0.930 1_554 S
C2406 H2400 0.930 . S
C2406 C2407 1.355 1_565 S
C2406 C2408 1.415 . S
C2407 C2406 1.355 1_545 S
C2407 C2409 1.419 . S
C2408 C2406 1.415 . S
C2408 C2413 1.425 1_564 S
C2408 C2415 1.409 1_554 S
C2409 H2401 0.930 . S
C2409 C2407 1.419 . S
C2409 C2410 1.362 . S
C2410 H2402 0.930 1_554 S
C2410 C2409 1.362 . S
C2410 C2413 1.409 1_554 S
C2411 H2403 0.930 . S
C2411 C2412 1.355 1_545 S
C2411 C2413 1.415 . S
C2412 C2411 1.355 1_565 S
C2412 C2414 1.419 . S
C2413 C2408 1.425 1_546 S
C2413 C2410 1.409 1_556 S
C2413 C2411 1.415 . S
C2414 H2404 0.930 . S
C2414 C2412 1.419 . S
C2414 C2415 1.362 . S
C2415 H2405 0.930 1_556 S
C2415 C2408 1.409 1_556 S
C2415 C2414 1.362 . S
H2416 C2422 0.930 . S
H2417 C2425 0.930 . S
H2418 C2426 0.968 . S
H2419 C2427 0.930 . S
H2420 C2430 0.930 . S
H2421 C2431 0.930 . S
C2422 H2416 0.930 . S
C2422 C2423 1.355 . S
C2422 C2424 1.415 . S
C2423 C2422 1.355 . S
C2423 C2425 1.419 . S
C2424 C2422 1.415 . S
C2424 C2429 1.425 1_554 S
C2424 C2431 1.409 1_554 S
C2425 H2417 0.930 . S
C2425 C2423 1.419 . S
C2425 C2426 1.362 . S
C2426 H2418 0.968 . S
C2426 C2425 1.362 . S
C2426 C2429 1.409 1_554 S
C2427 H2419 0.930 . S
C2427 C2428 1.355 . S
C2427 C2429 1.415 . S
C2428 C2427 1.355 . S
C2428 C2430 1.419 . S
C2429 C2424 1.425 1_556 S
C2429 C2426 1.409 1_556 S
C2429 C2427 1.415 . S
C2430 H2420 0.930 . S
C2430 C2428 1.419 . S
C2430 C2431 1.362 . S
C2431 H2421 0.930 . S
C2431 C2424 1.409 1_556 S
C2431 C2430 1.362 . S
H2432 C2438 0.930 . S
H2433 C2441 0.930 . S
H2434 C2442 0.930 . S
H2435 C2443 0.930 . S
H2436 C2446 0.930 . S
H2437 C2447 0.930 . S
C2438 H2432 0.930 . S
C2438 C2439 1.355 . S
C2438 C2440 1.415 . S
C2439 C2438 1.355 . S
C2439 C2441 1.419 . S
C2440 C2438 1.415 . S
C2440 C2445 1.425 . S
C2440 C2447 1.409 . S
C2441 H2433 0.930 . S
C2441 C2439 1.419 . S
C2441 C2442 1.362 . S
C2442 H2434 0.930 . S
C2442 C2441 1.362 . S
C2442 C2445 1.409 . S
C2443 H2435 0.930 . S
C2443 C2444 1.355 . S
C2443 C2445 1.415 . S
C2444 C2443 1.355 . S
C2444 C2446 1.419 . S
C2445 C2440 1.425 . S
C2445 C2442 1.409 . S
C2445 C2443 1.415 . S
C2446 H2436 0.930 . S
C2446 C2444 1.419 . S
C2446 C2447 1.362 . S
C2447 H2437 0.930 . S
C2447 C2440 1.409 . S
C2447 C2446 1.362 . S
H2448 C2454 0.930 . S
H2449 C2457 0.930 . S
H2450 C2458 0.930 . S
H2451 C2459 0.930 . S
H2452 C2462 0.930 . S
H2453 C2463 0.930 . S
C2454 H2448 0.930 . S
C2454 C2455 1.355 . S
C2454 C2456 1.415 . S
C2455 C2454 1.355 . S
C2455 C2457 1.419 1_545 S
C2456 C2454 1.415 . S
C2456 C2461 1.425 1_545 S
C2456 C2463 1.409 . S
C2457 H2449 0.930 . S
C2457 C2455 1.419 1_565 S
C2457 C2458 1.362 . S
C2458 H2450 0.930 . S
C2458 C2457 1.362 . S
C2458 C2461 1.409 . S
C2459 H2451 0.930 . S
C2459 C2460 1.355 . S
C2459 C2461 1.415 . S
C2460 C2459 1.355 . S
C2460 C2462 1.419 1_565 S
C2461 C2456 1.425 1_565 S
C2461 C2458 1.409 . S
C2461 C2459 1.415 . S
C2462 H2452 0.930 . S
C2462 C2460 1.419 1_545 S
C2462 C2463 1.362 . S
C2463 H2453 0.930 . S
C2463 C2456 1.409 . S
C2463 C2462 1.362 . S
H2464 C2470 0.930 . S
H2465 C2473 0.930 . S
H2466 C2474 0.930 . S
H2467 C2475 0.930 . S
H2468 C2478 0.930 . S
H2469 C2479 0.930 . S
C2470 H2464 0.930 . S
C2470 C2471 1.355 . S
C2470 C2472 1.415 . S
C2471 C2470 1.355 . S
C2471 C2473 1.419 . S
C2472 C2470 1.415 . S
C2472 C2477 1.425 1_556 S
C2472 C2479 1.409 1_556 S
C2473 H2465 0.930 . S
C2473 C2471 1.419 . S
C2473 C2474 1.362 . S
C2474 H2466 0.930 . S
C2474 C2473 1.362 . S
C2474 C2477 1.409 1_556 S
C2475 H2467 0.930 . S
C2475 C2476 1.355 . S
C2475 C2477 1.415 . S
C2476 C2475 1.355 . S
C2476 C2478 1.419 . S
C2477 C2472 1.425 1_554 S
C2477 C2474 1.409 1_554 S
C2477 C2475 1.415 . S
C2478 H2468 0.930 . S
C2478 C2476 1.419 . S
C2478 C2479 1.362 . S
C2479 H2469 0.930 . S
C2479 C2472 1.409 1_554 S
C2479 C2478 1.362 . S
H2480 C2486 0.930 . S
H2481 C2489 0.930 . S
H2482 C2490 0.930 . S
H2483 C2491 0.930 . S
H2484 C2494 0.930 . S
H2485 C2495 0.930 . S
C2486 H2480 0.930 . S
C2486 C2487 1.355 . S
C2486 C2488 1.415 . S
C2487 C2486 1.355 . S
C2487 C2489 1.419 . S
C2488 C2486 1.415 . S
C2488 C2493 1.425 . S
C2488 C2495 1.409 . S
C2489 H2481 0.930 . S
C2489 C2487 1.419 . S
C2489 C2490 1.362 . S
C2490 H2482 0.930 . S
C2490 C2489 1.362 . S
C2490 C2493 1.409 . S
C2491 H2483 0.930 . S
C2491 C2492 1.355 . S
C2491 C2493 1.415 . S
C2492 C2491 1.355 . S
C2492 C2494 1.419 . S
C2493 C2488 1.425 . S
C2493 C2490 1.409 . S
C2493 C2491 1.415 . S
C2494 H2484 0.930 . S
C2494 C2492 1.419 . S
C2494 C2495 1.362 . S
C2495 H2485 0.930 . S
C2495 C2488 1.409 . S
C2495 C2494 1.362 . S
H2496 C2502 0.930 . S
H2497 C2505 0.930 . S
H2498 C2506 0.930 . S
H2499 C2507 0.930 . S
H2500 C2510 0.930 . S
H2501 C2511 0.930 . S
C2502 H2496 0.930 . S
C2502 C2503 1.355 . S
C2502 C2504 1.415 . S
C2503 C2502 1.355 . S
C2503 C2505 1.419 1_545 S
C2504 C2502 1.415 . S
C2504 C2509 1.425 1_545 S
C2504 C2511 1.409 . S
C2505 H2497 0.930 . S
C2505 C2503 1.419 1_565 S
C2505 C2506 1.362 . S
C2506 H2498 0.930 . S
C2506 C2505 1.362 . S
C2506 C2509 1.409 . S
C2507 H2499 0.930 . S
C2507 C2508 1.355 . S
C2507 C2509 1.415 . S
C2508 C2507 1.355 . S
C2508 C2510 1.419 1_565 S
C2509 C2504 1.425 1_565 S
C2509 C2506 1.409 . S
C2509 C2507 1.415 . S
C2510 H2500 0.930 . S
C2510 C2508 1.419 1_545 S
C2510 C2511 1.362 . S
C2511 H2501 0.930 . S
C2511 C2504 1.409 . S
C2511 C2510 1.362 . S
H2512 C2518 0.930 . S
H2513 C2521 0.930 . S
H2514 C2522 0.930 . S
H2515 C2523 0.930 . S
H2516 C2526 0.930 . S
H2517 C2527 0.930 . S
C2518 H2512 0.930 . S
C2518 C2519 1.355 . S
C2518 C2520 1.415 . S
C2519 C2518 1.355 . S
C2519 C2521 1.419 . S
C2520 C2518 1.415 . S
C2520 C2525 1.425 . S
C2520 C2527 1.409 . S
C2521 H2513 0.930 . S
C2521 C2519 1.419 . S
C2521 C2522 1.362 . S
C2522 H2514 0.930 . S
C2522 C2521 1.362 . S
C2522 C2525 1.409 . S
C2523 H2515 0.930 . S
C2523 C2524 1.355 . S
C2523 C2525 1.415 . S
C2524 C2523 1.355 . S
C2524 C2526 1.419 . S
C2525 C2520 1.425 . S
C2525 C2522 1.409 . S
C2525 C2523 1.415 . S
C2526 H2516 0.930 . S
C2526 C2524 1.419 . S
C2526 C2527 1.362 . S
C2527 H2517 0.930 . S
C2527 C2520 1.409 . S
C2527 C2526 1.362 . S
H2528 C2534 0.930 . S
H2529 C2537 0.930 . S
H2530 C2538 0.930 . S
H2531 C2539 0.930 . S
H2532 C2542 0.930 . S
H2533 C2543 0.930 . S
C2534 H2528 0.930 . S
C2534 C2535 1.355 . S
C2534 C2536 1.415 . S
C2535 C2534 1.355 . S
C2535 C2537 1.419 . S
C2536 C2534 1.415 . S
C2536 C2541 1.425 . S
C2536 C2543 1.409 . S
C2537 H2529 0.930 . S
C2537 C2535 1.419 . S
C2537 C2538 1.362 . S
C2538 H2530 0.930 . S
C2538 C2537 1.362 . S
C2538 C2541 1.409 . S
C2539 H2531 0.930 . S
C2539 C2540 1.355 . S
C2539 C2541 1.415 . S
C2540 C2539 1.355 . S
C2540 C2542 1.419 . S
C2541 C2536 1.425 . S
C2541 C2538 1.409 . S
C2541 C2539 1.415 . S
C2542 H2532 0.930 . S
C2542 C2540 1.419 . S
C2542 C2543 1.362 . S
C2543 H2533 0.930 . S
C2543 C2536 1.409 . S
C2543 C2542 1.362 . S
H2544 C2550 0.930 . S
H2545 C2553 0.930 . S
H2546 C2554 0.930 . S
H2547 C2555 0.930 . S
H2548 C2558 0.930 . S
H2549 C2559 0.930 . S
C2550 H2544 0.930 . S
C2550 C2551 1.355 . S
C2550 C2552 1.415 . S
C2551 C2550 1.355 . S
C2551 C2553 1.419 . S
C2552 C2550 1.415 . S
C2552 C2557 1.425 . S
C2552 C2559 1.409 . S
C2553 H2545 0.930 . S
C2553 C2551 1.419 . S
C2553 C2554 1.362 . S
C2554 H2546 0.930 . S
C2554 C2553 1.362 . S
C2554 C2557 1.409 . S
C2555 H2547 0.930 . S
C2555 C2556 1.355 . S
C2555 C2557 1.415 . S
C2556 C2555 1.355 . S
C2556 C2558 1.419 . S
C2557 C2552 1.425 . S
C2557 C2554 1.409 . S
C2557 C2555 1.415 . S
C2558 H2548 0.930 . S
C2558 C2556 1.419 . S
C2558 C2559 1.362 . S
C2559 H2549 0.930 . S
C2559 C2552 1.409 . S
C2559 C2558 1.362 . S
H2560 C2566 0.930 . S
H2561 C2569 0.930 . S
H2562 C2570 0.930 . S
H2563 C2571 0.930 . S
H2564 C2574 0.930 . S
H2565 C2575 0.930 . S
C2566 H2560 0.930 . S
C2566 C2567 1.355 . S
C2566 C2568 1.415 . S
C2567 C2566 1.355 . S
C2567 C2569 1.419 . S
C2568 C2566 1.415 . S
C2568 C2573 1.425 . S
C2568 C2575 1.409 . S
C2569 H2561 0.930 . S
C2569 C2567 1.419 . S
C2569 C2570 1.362 . S
C2570 H2562 0.930 . S
C2570 C2569 1.362 . S
C2570 C2573 1.409 . S
C2571 H2563 0.930 . S
C2571 C2572 1.355 . S
C2571 C2573 1.415 . S
C2572 C2571 1.355 . S
C2572 C2574 1.419 . S
C2573 C2568 1.425 . S
C2573 C2570 1.409 . S
C2573 C2571 1.415 . S
C2574 H2564 0.930 . S
C2574 C2572 1.419 . S
C2574 C2575 1.362 . S
C2575 H2565 0.930 . S
C2575 C2568 1.409 . S
C2575 C2574 1.362 . S
H2576 C2582 0.930 . S
H2577 C2585 0.930 . S
H2578 C2586 0.930 . S
H2579 C2587 0.930 . S
H2580 C2590 0.930 . S
H2581 C2591 0.930 . S
C2582 H2576 0.930 . S
C2582 C2583 1.355 . S
C2582 C2584 1.415 . S
C2583 C2582 1.355 . S
C2583 C2585 1.419 . S
C2584 C2582 1.415 . S
C2584 C2589 1.425 . S
C2584 C2591 1.409 . S
C2585 H2577 0.930 . S
C2585 C2583 1.419 . S
C2585 C2586 1.362 . S
C2586 H2578 0.930 . S
C2586 C2585 1.362 . S
C2586 C2589 1.409 . S
C2587 H2579 0.930 . S
C2587 C2588 1.355 . S
C2587 C2589 1.415 . S
C2588 C2587 1.355 . S
C2588 C2590 1.419 . S
C2589 C2584 1.425 . S
C2589 C2586 1.409 . S
C2589 C2587 1.415 . S
C2590 H2580 0.930 . S
C2590 C2588 1.419 . S
C2590 C2591 1.362 . S
C2591 H2581 0.930 . S
C2591 C2584 1.409 . S
C2591 C2590 1.362 . S
H2592 C2598 0.930 . S
H2593 C2601 0.930 . S
H2594 C2602 0.930 . S
H2595 C2603 0.930 . S
H2596 C2606 0.930 . S
H2597 C2607 0.930 . S
C2598 H2592 0.930 . S
C2598 C2599 1.355 1_655 S
C2598 C2600 1.415 . S
C2599 C2598 1.355 1_455 S
C2599 C2601 1.419 1_565 S
C2600 C2598 1.415 . S
C2600 C2605 1.425 1_665 S
C2600 C2607 1.409 . S
C2601 H2593 0.930 . S
C2601 C2599 1.419 1_545 S
C2601 C2602 1.362 . S
C2602 H2594 0.930 . S
C2602 C2601 1.362 . S
C2602 C2605 1.409 . S
C2603 H2595 0.930 . S
C2603 C2604 1.355 1_455 S
C2603 C2605 1.415 . S
C2604 C2603 1.355 1_655 S
C2604 C2606 1.419 1_545 S
C2605 C2600 1.425 1_445 S
C2605 C2602 1.409 . S
C2605 C2603 1.415 . S
C2606 H2596 0.930 . S
C2606 C2604 1.419 1_565 S
C2606 C2607 1.362 . S
C2607 H2597 0.930 . S
C2607 C2600 1.409 . S
C2607 C2606 1.362 . S
H2608 C2614 0.930 . S
H2609 C2617 0.930 . S
H2610 C2618 0.930 . S
H2611 C2619 0.930 . S
H2612 C2622 0.930 . S
H2613 C2623 0.930 . S
C2614 H2608 0.930 . S
C2614 C2615 1.355 1_455 S
C2614 C2616 1.415 . S
C2615 C2614 1.355 1_655 S
C2615 C2617 1.419 . S
C2616 C2614 1.415 . S
C2616 C2621 1.425 1_455 S
C2616 C2623 1.409 . S
C2617 H2609 0.930 . S
C2617 C2615 1.419 . S
C2617 C2618 1.362 . S
C2618 H2610 0.930 . S
C2618 C2617 1.362 . S
C2618 C2621 1.409 . S
C2619 H2611 0.930 . S
C2619 C2620 1.355 1_655 S
C2619 C2621 1.415 . S
C2620 C2619 1.355 1_455 S
C2620 C2622 1.419 . S
C2621 C2616 1.425 1_655 S
C2621 C2618 1.409 . S
C2621 C2619 1.415 . S
C2622 H2612 0.930 . S
C2622 C2620 1.419 . S
C2622 C2623 1.362 . S
C2623 H2613 0.930 . S
C2623 C2616 1.409 . S
C2623 C2622 1.362 . S
H2624 C2630 0.930 . S
H2625 C2633 0.930 . S
H2626 C2634 0.930 . S
H2627 C2635 0.930 . S
H2628 C2638 0.930 . S
H2629 C2639 0.930 . S
C2630 H2624 0.930 . S
C2630 C2631 1.348 1_655 S
C2630 C2632 1.415 . S
C2631 C2630 1.348 1_455 S
C2631 C2633 1.428 . S
C2632 C2630 1.415 . S
C2632 C2637 1.425 1_655 S
C2632 C2639 1.409 . S
C2633 H2625 0.930 . S
C2633 C2631 1.428 . S
C2633 C2634 1.362 . S
C2634 H2626 0.930 . S
C2634 C2633 1.362 . S
C2634 C2637 1.409 . S
C2635 H2627 0.930 . S
C2635 C2636 1.355 1_455 S
C2635 C2637 1.415 . S
C2636 C2635 1.355 1_655 S
C2636 C2638 1.419 . S
C2637 C2632 1.425 1_455 S
C2637 C2634 1.409 . S
C2637 C2635 1.415 . S
C2638 H2628 0.930 . S
C2638 C2636 1.419 . S
C2638 C2639 1.362 . S
C2639 H2629 0.930 . S
C2639 C2632 1.409 . S
C2639 C2638 1.362 . S
H2640 C2646 0.930 . S
H2641 C2649 0.930 . S
H2642 C2650 0.930 1_554 S
H2643 C2651 0.930 . S
H2644 C2654 0.930 . S
H2645 C2655 0.930 1_556 S
C2646 H2640 0.930 . S
C2646 C2647 1.355 . S
C2646 C2648 1.415 . S
C2647 C2646 1.355 . S
C2647 C2649 1.419 1_455 S
C2648 C2646 1.415 . S
C2648 C2653 1.425 1_456 S
C2648 C2655 1.409 1_556 S
C2649 H2641 0.930 . S
C2649 C2647 1.419 1_655 S
C2649 C2650 1.362 . S
C2650 H2642 0.930 1_556 S
C2650 C2649 1.362 . S
C2650 C2653 1.409 1_556 S
C2651 H2643 0.930 . S
C2651 C2652 1.355 . S
C2651 C2653 1.415 . S
C2652 C2651 1.355 . S
C2652 C2654 1.419 1_655 S
C2653 C2648 1.425 1_654 S
C2653 C2650 1.409 1_554 S
C2653 C2651 1.415 . S
C2654 H2644 0.930 . S
C2654 C2652 1.419 1_455 S
C2654 C2655 1.362 . S
C2655 H2645 0.930 1_554 S
C2655 C2648 1.409 1_554 S
C2655 C2654 1.362 . S
H2656 C2662 0.930 . S
H2657 C2665 0.930 . S
H2658 C2666 0.930 . S
H2659 C2667 0.930 . S
H2660 C2670 0.930 . S
H2661 C2671 0.930 . S
C2662 H2656 0.930 . S
C2662 C2663 1.355 . S
C2662 C2664 1.415 . S
C2663 C2662 1.355 . S
C2663 C2665 1.419 . S
C2664 C2662 1.415 . S
C2664 C2669 1.425 . S
C2664 C2671 1.409 . S
C2665 H2657 0.930 . S
C2665 C2663 1.419 . S
C2665 C2666 1.362 . S
C2666 H2658 0.930 . S
C2666 C2665 1.362 . S
C2666 C2669 1.409 . S
C2667 H2659 0.930 . S
C2667 C2668 1.355 . S
C2667 C2669 1.415 . S
C2668 C2667 1.355 . S
C2668 C2670 1.419 . S
C2669 C2664 1.425 . S
C2669 C2666 1.409 . S
C2669 C2667 1.415 . S
C2670 H2660 0.930 . S
C2670 C2668 1.419 . S
C2670 C2671 1.362 . S
C2671 H2661 0.930 . S
C2671 C2664 1.409 . S
C2671 C2670 1.362 . S
H2672 C2678 0.930 . S
H2673 C2681 0.930 . S
H2674 C2682 0.930 . S
H2675 C2683 0.930 . S
H2676 C2686 0.930 1_565 S
H2677 C2687 0.930 . S
C2678 H2672 0.930 . S
C2678 C2679 1.355 . S
C2678 C2680 1.415 . S
C2679 C2678 1.355 . S
C2679 C2681 1.419 . S
C2680 C2678 1.415 . S
C2680 C2685 1.425 . S
C2680 C2687 1.409 . S
C2681 H2673 0.930 . S
C2681 C2679 1.419 . S
C2681 C2682 1.362 . S
C2682 H2674 0.930 . S
C2682 C2681 1.362 . S
C2682 C2685 1.409 . S
C2683 H2675 0.930 . S
C2683 C2684 1.355 . S
C2683 C2685 1.415 . S
C2684 C2683 1.355 . S
C2684 C2686 1.419 . S
C2685 C2680 1.425 . S
C2685 C2682 1.409 . S
C2685 C2683 1.415 . S
C2686 H2676 0.930 1_545 S
C2686 C2684 1.419 . S
C2686 C2687 1.362 . S
C2687 H2677 0.930 . S
C2687 C2680 1.409 . S
C2687 C2686 1.362 . S
H2688 C2694 0.930 . S
H2689 C2697 0.930 . S
H2690 C2698 0.930 . S
H2691 C2699 0.930 . S
H2692 C2702 0.930 . S
H2693 C2703 0.930 . S
C2694 H2688 0.930 . S
C2694 C2695 1.355 . S
C2694 C2696 1.415 . S
C2695 C2694 1.355 . S
C2695 C2697 1.419 . S
C2696 C2694 1.415 . S
C2696 C2701 1.425 . S
C2696 C2703 1.409 . S
C2697 H2689 0.930 . S
C2697 C2695 1.419 . S
C2697 C2698 1.362 . S
C2698 H2690 0.930 . S
C2698 C2697 1.362 . S
C2698 C2701 1.409 . S
C2699 H2691 0.930 . S
C2699 C2700 1.355 . S
C2699 C2701 1.415 . S
C2700 C2699 1.355 . S
C2700 C2702 1.419 . S
C2701 C2696 1.425 . S
C2701 C2698 1.409 . S
C2701 C2699 1.415 . S
C2702 H2692 0.930 . S
C2702 C2700 1.419 . S
C2702 C2703 1.362 . S
C2703 H2693 0.930 . S
C2703 C2696 1.409 . S
C2703 C2702 1.362 . S
H2704 C2710 0.930 . S
H2705 C2713 0.930 . S
H2706 C2714 0.930 . S
H2707 C2715 0.930 . S
H2708 C2718 0.930 . S
H2709 C2719 0.930 . S
C2710 H2704 0.930 . S
C2710 C2711 1.355 . S
C2710 C2712 1.415 . S
C2711 C2710 1.355 . S
C2711 C2713 1.419 . S
C2712 C2710 1.415 . S
C2712 C2717 1.425 . S
C2712 C2719 1.409 . S
C2713 H2705 0.930 . S
C2713 C2711 1.419 . S
C2713 C2714 1.362 . S
C2714 H2706 0.930 . S
C2714 C2713 1.362 . S
C2714 C2717 1.409 . S
C2715 H2707 0.930 . S
C2715 C2716 1.355 . S
C2715 C2717 1.415 . S
C2716 C2715 1.355 . S
C2716 C2718 1.419 . S
C2717 C2712 1.425 . S
C2717 C2714 1.409 . S
C2717 C2715 1.415 . S
C2718 H2708 0.930 . S
C2718 C2716 1.419 . S
C2718 C2719 1.362 . S
C2719 H2709 0.930 . S
C2719 C2712 1.409 . S
C2719 C2718 1.362 . S
H2720 C2726 0.930 . S
H2721 C2729 0.930 . S
H2722 C2730 0.930 . S
H2723 C2731 0.930 . S
H2724 C2734 0.930 . S
H2725 C2735 0.930 . S
C2726 H2720 0.930 . S
C2726 C2727 1.355 . S
C2726 C2728 1.415 . S
C2727 C2726 1.355 . S
C2727 C2729 1.419 . S
C2728 C2726 1.415 . S
C2728 C2733 1.425 . S
C2728 C2735 1.409 . S
C2729 H2721 0.930 . S
C2729 C2727 1.419 . S
C2729 C2730 1.362 . S
C2730 H2722 0.930 . S
C2730 C2729 1.362 . S
C2730 C2733 1.409 . S
C2731 H2723 0.930 . S
C2731 C2732 1.355 . S
C2731 C2733 1.415 . S
C2732 C2731 1.355 . S
C2732 C2734 1.419 . S
C2733 C2728 1.425 . S
C2733 C2730 1.409 . S
C2733 C2731 1.415 . S
C2734 H2724 0.930 . S
C2734 C2732 1.419 . S
C2734 C2735 1.362 . S
C2735 H2725 0.930 . S
C2735 C2728 1.409 . S
C2735 C2734 1.362 . S
H2736 C2742 0.930 . S
H2737 C2745 0.930 . S
H2738 C2746 0.930 . S
H2739 C2747 0.930 . S
H2740 C2750 0.930 . S
H2741 C2751 0.930 . S
C2742 H2736 0.930 . S
C2742 C2743 1.355 . S
C2742 C2744 1.415 . S
C2743 C2742 1.355 . S
C2743 C2745 1.419 . S
C2744 C2742 1.415 . S
C2744 C2749 1.425 . S
C2744 C2751 1.409 . S
C2745 H2737 0.930 . S
C2745 C2743 1.419 . S
C2745 C2746 1.362 . S
C2746 H2738 0.930 . S
C2746 C2745 1.362 . S
C2746 C2749 1.409 . S
C2747 H2739 0.930 . S
C2747 C2748 1.355 . S
C2747 C2749 1.415 . S
C2748 C2747 1.355 . S
C2748 C2750 1.419 . S
C2749 C2744 1.425 . S
C2749 C2746 1.409 . S
C2749 C2747 1.415 . S
C2750 H2740 0.930 . S
C2750 C2748 1.419 . S
C2750 C2751 1.362 . S
C2751 H2741 0.930 . S
C2751 C2744 1.409 . S
C2751 C2750 1.362 . S
H2752 C2758 0.930 . S
H2753 C2761 0.930 . S
H2754 C2762 0.930 . S
H2755 C2763 0.930 . S
H2756 C2766 0.930 . S
H2757 C2767 0.930 . S
C2758 H2752 0.930 . S
C2758 C2759 1.355 . S
C2758 C2760 1.415 . S
C2759 C2758 1.355 . S
C2759 C2761 1.419 . S
C2760 C2758 1.415 . S
C2760 C2765 1.425 . S
C2760 C2767 1.409 . S
C2761 H2753 0.930 . S
C2761 C2759 1.419 . S
C2761 C2762 1.362 . S
C2762 H2754 0.930 . S
C2762 C2761 1.362 . S
C2762 C2765 1.409 . S
C2763 H2755 0.930 . S
C2763 C2764 1.355 . S
C2763 C2765 1.415 . S
C2764 C2763 1.355 . S
C2764 C2766 1.419 . S
C2765 C2760 1.425 . S
C2765 C2762 1.409 . S
C2765 C2763 1.415 . S
C2766 H2756 0.930 . S
C2766 C2764 1.419 . S
C2766 C2767 1.362 . S
C2767 H2757 0.930 . S
C2767 C2760 1.409 . S
C2767 C2766 1.362 . S
H2768 C2774 0.930 . S
H2769 C2777 0.930 . S
H2770 C2778 0.930 . S
H2771 C2779 0.930 . S
H2772 C2782 0.930 . S
H2773 C2783 0.930 . S
C2774 H2768 0.930 . S
C2774 C2775 1.355 . S
C2774 C2776 1.415 . S
C2775 C2774 1.355 . S
C2775 C2777 1.419 . S
C2776 C2774 1.415 . S
C2776 C2781 1.425 . S
C2776 C2783 1.409 . S
C2777 H2769 0.930 . S
C2777 C2775 1.419 . S
C2777 C2778 1.362 . S
C2778 H2770 0.930 . S
C2778 C2777 1.362 . S
C2778 C2781 1.409 . S
C2779 H2771 0.930 . S
C2779 C2780 1.355 . S
C2779 C2781 1.415 . S
C2780 C2779 1.355 . S
C2780 C2782 1.419 . S
C2781 C2776 1.425 . S
C2781 C2778 1.409 . S
C2781 C2779 1.415 . S
C2782 H2772 0.930 . S
C2782 C2780 1.419 . S
C2782 C2783 1.362 . S
C2783 H2773 0.930 . S
C2783 C2776 1.409 . S
C2783 C2782 1.362 . S
H2784 C2790 0.930 . S
H2785 C2793 0.930 . S
H2786 C2794 0.930 . S
H2787 C2795 0.930 . S
H2788 C2798 0.930 . S
H2789 C2799 0.930 . S
C2790 H2784 0.930 . S
C2790 C2791 1.355 . S
C2790 C2792 1.415 . S
C2791 C2790 1.355 . S
C2791 C2793 1.419 . S
C2792 C2790 1.415 . S
C2792 C2797 1.425 . S
C2792 C2799 1.409 . S
C2793 H2785 0.930 . S
C2793 C2791 1.419 . S
C2793 C2794 1.362 . S
C2794 H2786 0.930 . S
C2794 C2793 1.362 . S
C2794 C2797 1.409 . S
C2795 H2787 0.930 . S
C2795 C2796 1.355 . S
C2795 C2797 1.415 . S
C2796 C2795 1.355 . S
C2796 C2798 1.419 . S
C2797 C2792 1.425 . S
C2797 C2794 1.409 . S
C2797 C2795 1.415 . S
C2798 H2788 0.930 . S
C2798 C2796 1.419 . S
C2798 C2799 1.362 . S
C2799 H2789 0.930 . S
C2799 C2792 1.409 . S
C2799 C2798 1.362 . S
H2800 C2806 0.930 . S
H2801 C2809 0.930 1_565 S
H2802 C2810 0.930 . S
H2803 C2811 0.930 . S
H2804 C2814 0.930 . S
H2805 C2815 0.930 . S
C2806 H2800 0.930 . S
C2806 C2807 1.355 . S
C2806 C2808 1.415 . S
C2807 C2806 1.355 . S
C2807 C2809 1.419 . S
C2808 C2806 1.415 . S
C2808 C2813 1.425 . S
C2808 C2815 1.409 . S
C2809 H2801 0.930 1_545 S
C2809 C2807 1.419 . S
C2809 C2810 1.362 . S
C2810 H2802 0.930 . S
C2810 C2809 1.362 . S
C2810 C2813 1.409 . S
C2811 H2803 0.930 . S
C2811 C2812 1.355 . S
C2811 C2813 1.415 . S
C2812 C2811 1.355 . S
C2812 C2814 1.419 . S
C2813 C2808 1.425 . S
C2813 C2810 1.409 . S
C2813 C2811 1.415 . S
C2814 H2804 0.930 . S
C2814 C2812 1.419 . S
C2814 C2815 1.362 . S
C2815 H2805 0.930 . S
C2815 C2808 1.409 . S
C2815 C2814 1.362 . S
H2816 C2822 0.930 . S
H2817 C2825 0.930 1_545 S
H2818 C2826 0.930 . S
H2819 C2827 0.930 . S
H2820 C2830 0.930 . S
H2821 C2831 0.930 . S
C2822 H2816 0.930 . S
C2822 C2823 1.355 . S
C2822 C2824 1.415 . S
C2823 C2822 1.355 . S
C2823 C2825 1.419 . S
C2824 C2822 1.415 . S
C2824 C2829 1.425 . S
C2824 C2831 1.409 . S
C2825 H2817 0.930 1_565 S
C2825 C2823 1.419 . S
C2825 C2826 1.362 . S
C2826 H2818 0.930 . S
C2826 C2825 1.362 . S
C2826 C2829 1.409 . S
C2827 H2819 0.930 . S
C2827 C2828 1.355 . S
C2827 C2829 1.415 . S
C2828 C2827 1.355 . S
C2828 C2830 1.419 . S
C2829 C2824 1.425 . S
C2829 C2826 1.409 . S
C2829 C2827 1.415 . S
C2830 H2820 0.930 . S
C2830 C2828 1.419 . S
C2830 C2831 1.362 . S
C2831 H2821 0.930 . S
C2831 C2824 1.409 . S
C2831 C2830 1.362 . S
H2832 C2838 0.930 . S
H2833 C2841 0.930 . S
H2834 C2842 0.930 . S
H2835 C2843 0.930 1_545 S
H2836 C2846 0.930 . S
H2837 C2847 0.930 . S
C2838 H2832 0.930 . S
C2838 C2839 1.355 . S
C2838 C2840 1.415 . S
C2839 C2838 1.355 . S
C2839 C2841 1.419 . S
C2840 C2838 1.415 . S
C2840 C2845 1.425 . S
C2840 C2847 1.409 . S
C2841 H2833 0.930 . S
C2841 C2839 1.419 . S
C2841 C2842 1.362 . S
C2842 H2834 0.930 . S
C2842 C2841 1.362 . S
C2842 C2845 1.409 . S
C2843 H2835 0.930 1_565 S
C2843 C2844 1.355 . S
C2843 C2845 1.415 . S
C2844 C2843 1.355 . S
C2844 C2846 1.419 . S
C2845 C2840 1.425 . S
C2845 C2842 1.409 . S
C2845 C2843 1.415 . S
C2846 H2836 0.930 . S
C2846 C2844 1.419 . S
C2846 C2847 1.362 . S
C2847 H2837 0.930 . S
C2847 C2840 1.409 . S
C2847 C2846 1.362 . S
H2848 C2854 0.930 . S
H2849 C2857 0.930 . S
H2850 C2858 0.930 . S
H2851 C2859 0.930 . S
H2852 C2862 0.930 . S
H2853 C2863 0.930 . S
C2854 H2848 0.930 . S
C2854 C2855 1.355 . S
C2854 C2856 1.415 . S
C2855 C2854 1.355 . S
C2855 C2857 1.419 . S
C2856 C2854 1.415 . S
C2856 C2861 1.425 . S
C2856 C2863 1.409 . S
C2857 H2849 0.930 . S
C2857 C2855 1.419 . S
C2857 C2858 1.362 . S
C2858 H2850 0.930 . S
C2858 C2857 1.362 . S
C2858 C2861 1.409 . S
C2859 H2851 0.930 . S
C2859 C2860 1.355 . S
C2859 C2861 1.415 . S
C2860 C2859 1.355 . S
C2860 C2862 1.419 . S
C2861 C2856 1.425 . S
C2861 C2858 1.409 . S
C2861 C2859 1.415 . S
C2862 H2852 0.930 . S
C2862 C2860 1.419 . S
C2862 C2863 1.362 . S
C2863 H2853 0.930 . S
C2863 C2856 1.409 . S
C2863 C2862 1.362 . S
H2864 C2870 0.930 . S
H2865 C2873 0.930 . S
H2866 C2874 0.930 . S
H2867 C2875 0.930 . S
H2868 C2878 0.930 . S
H2869 C2879 0.930 . S
C2870 H2864 0.930 . S
C2870 C2871 1.355 . S
C2870 C2872 1.415 . S
C2871 C2870 1.355 . S
C2871 C2873 1.419 . S
C2872 C2870 1.415 . S
C2872 C2877 1.425 . S
C2872 C2879 1.409 . S
C2873 H2865 0.930 . S
C2873 C2871 1.419 . S
C2873 C2874 1.362 . S
C2874 H2866 0.930 . S
C2874 C2873 1.362 . S
C2874 C2877 1.409 . S
C2875 H2867 0.930 . S
C2875 C2876 1.355 . S
C2875 C2877 1.415 . S
C2876 C2875 1.355 . S
C2876 C2878 1.419 . S
C2877 C2872 1.425 . S
C2877 C2874 1.409 . S
C2877 C2875 1.415 . S
C2878 H2868 0.930 . S
C2878 C2876 1.419 . S
C2878 C2879 1.362 . S
C2879 H2869 0.930 . S
C2879 C2872 1.409 . S
C2879 C2878 1.362 . S
H2880 C2886 0.930 . S
H2881 C2889 0.930 . S
H2882 C2890 0.930 . S
H2883 C2891 0.930 . S
H2884 C2894 0.930 . S
H2885 C2895 0.930 . S
C2886 H2880 0.930 . S
C2886 C2887 1.355 . S
C2886 C2888 1.415 . S
C2887 C2886 1.355 . S
C2887 C2889 1.419 . S
C2888 C2886 1.415 . S
C2888 C2893 1.425 . S
C2888 C2895 1.409 . S
C2889 H2881 0.930 . S
C2889 C2887 1.419 . S
C2889 C2890 1.362 . S
C2890 H2882 0.930 . S
C2890 C2889 1.362 . S
C2890 C2893 1.409 . S
C2891 H2883 0.930 . S
C2891 C2892 1.355 . S
C2891 C2893 1.415 . S
C2892 C2891 1.355 . S
C2892 C2894 1.419 . S
C2893 C2888 1.425 . S
C2893 C2890 1.409 . S
C2893 C2891 1.415 . S
C2894 H2884 0.930 . S
C2894 C2892 1.419 . S
C2894 C2895 1.362 . S
C2895 H2885 0.930 . S
C2895 C2888 1.409 . S
C2895 C2894 1.362 . S
H2896 C2902 0.930 . S
H2897 C2905 0.930 . S
H2898 C2906 0.930 . S
H2899 C2907 0.930 . S
H2900 C2910 0.930 . S
H2901 C2911 0.930 . S
C2902 H2896 0.930 . S
C2902 C2903 1.355 . S
C2902 C2904 1.415 . S
C2903 C2902 1.355 . S
C2903 C2905 1.419 . S
C2904 C2902 1.415 . S
C2904 C2909 1.425 . S
C2904 C2911 1.409 . S
C2905 H2897 0.930 . S
C2905 C2903 1.419 . S
C2905 C2906 1.362 . S
C2906 H2898 0.930 . S
C2906 C2905 1.362 . S
C2906 C2909 1.409 . S
C2907 H2899 0.930 . S
C2907 C2908 1.355 . S
C2907 C2909 1.415 . S
C2908 C2907 1.355 . S
C2908 C2910 1.419 . S
C2909 C2904 1.425 . S
C2909 C2906 1.409 . S
C2909 C2907 1.415 . S
C2910 H2900 0.930 . S
C2910 C2908 1.419 . S
C2910 C2911 1.362 . S
C2911 H2901 0.930 . S
C2911 C2904 1.409 . S
C2911 C2910 1.362 . S
C1895 C33 1.341 . S
C1900 C151 1.333 . S
C1911 C210 1.298 . S
C1916 C92 1.307 . S
C1927 C387 1.351 . S
C1932 C269 1.361 . S
C1943 C446 1.320 . S
C1948 C328 1.334 . S
C1959 C505 1.344 . S
C1964 C623 1.341 . S
C1975 C682 1.340 . S
C1980 C564 1.337 . S
C1991 C741 1.342 . S
C1996 C859 1.363 . S
C2007 C918 1.306 . S
C2012 C800 1.319 . S
C2023 C977 1.304 . S
C2028 C1095 1.324 . S
C2039 C1036 1.339 . S
C2044 C1154 1.339 . S
C2055 C1331 1.352 . S
C2060 C1213 1.347 . S
C2071 C1272 1.321 . S
C2076 C1390 1.304 . S
C2087 C1567 1.312 . S
C2092 C1449 1.327 . S
C2103 C1626 1.339 . S
C2108 C1508 1.347 . S
C2119 C1803 1.343 . S
C2124 C1685 1.347 . S
C2135 C1744 1.348 . S
C2140 C1862 1.341 . S
C2151 C1480 1.592 . S
C2156 C5 1.600 . S
C2167 C64 1.533 . S
C2172 C1421 1.521 . S
C2183 C123 1.558 . S
C2188 C1598 1.544 . S
C2199 C182 1.518 . S
C2204 C1539 1.509 . S
C2215 C1716 1.530 . S
C2220 C241 1.536 . S
C2231 C300 1.570 . S
C2236 C1657 1.572 . S
C2247 C359 1.494 . S
C2252 C1834 1.488 . S
C2263 C1775 1.501 . S
C2268 C418 1.488 . S
C2279 C477 1.535 . S
C2284 C1008 1.531 . S
C2295 C536 1.460 . S
C2300 C949 1.450 . S
C2311 C595 1.523 . S
C2316 C1126 1.543 . S
C2327 C654 1.516 . S
C2332 C1067 1.511 . S
C2343 C713 1.621 . S
C2348 C1244 1.606 . S
C2359 C1185 1.464 . S
C2364 C772 1.459 . S
C2375 C1362 1.599 . S
C2380 C831 1.580 . S
C2391 C890 1.455 . S
C2396 C1303 1.467 . S
C2407 C3 1.477 . S
C2412 C239 1.477 . S
C2423 C62 1.415 . S
C2428 C1714 1.416 . S
C2439 C121 1.462 . S
C2444 C829 1.464 . S
C2455 C180 1.423 . S
C2460 C1360 1.424 . S
C2471 C298 1.417 . S
C2476 C1478 1.418 . S
C2487 C593 1.460 . S
C2492 C357 1.458 . S
C2503 C1124 1.410 . S
C2508 C416 1.409 . S
C2519 C711 1.461 . S
C2524 C475 1.461 . S
C2535 C534 1.445 . S
C2540 C1242 1.445 . S
C2551 C1832 1.414 . S
C2556 C652 1.414 . S
C2567 C770 1.442 . S
C2572 C1006 1.443 . S
C2583 C888 1.407 . S
C2588 C1596 1.407 . S
C2599 C1183 1.458 1_455 S
C2604 C947 1.456 1_655 S
C2615 C1065 1.469 1_655 S
C2620 C1773 1.467 1_455 S
C2631 C1537 1.450 . S
C2636 C1301 1.448 . S
C2647 C1655 1.480 1_455 S
C2652 C1419 1.478 1_655 S
C2663 C52 1.765 . S
C2668 C111 1.753 . S
C2679 C170 1.748 . S
C2684 C229 1.758 . S
C2695 C288 1.794 . S
C2700 C347 1.813 . S
C2711 C406 1.672 . S
C2716 C465 1.686 . S
C2727 C583 1.702 . S
C2732 C524 1.688 . S
C2743 C642 1.757 . S
C2748 C701 1.759 . S
C2759 C760 1.765 . S
C2764 C819 1.777 . S
C2775 C878 1.754 . S
C2780 C937 1.760 . S
C2791 C996 1.839 . S
C2796 C1055 1.818 . S
C2807 C1173 1.785 . S
C2812 C1114 1.786 . S
C2823 C1232 1.858 . S
C2828 C1291 1.851 . S
C2839 C1350 1.708 . S
C2844 C1409 1.715 . S
C2855 C1527 1.816 . S
C2860 C1468 1.825 . S
C2871 C1586 1.800 . S
C2876 C1645 1.811 . S
C2887 C1763 1.752 . S
C2892 C1704 1.775 . S
C2903 C1822 1.790 . S
C2908 C1881 1.805 . S
