# Generated by pormake.
# Topology wli, (5)-cn, num edge types: 1
# Building blocks:
#     Node 0, Type 0, BuildingBlock: XOMCOT_clean_sbu_0, # of connection points: 5
#     Node 1, Type 0, BuildingBlock: XOMCOT_clean_sbu_0, # of connection points: 5
#     Node 2, Type 0, BuildingBlock: XOMCOT_clean_sbu_0, # of connection points: 5
#     Node 3, Type 0, BuildingBlock: XOMCOT_clean_sbu_0, # of connection points: 5
#     Node 4, Type 0, BuildingBlock: XOMCOT_clean_sbu_0, # of connection points: 5
#     Node 5, Type 0, BuildingBlock: XOMCOT_clean_sbu_0, # of connection points: 5
#     Edge 6, Type (0, 0), BuildingBlock: UVAHIK_clean_linker_0, # of connection points: 2
#     Edge 7, Type (0, 0), BuildingBlock: UVAHIK_clean_linker_0, # of connection points: 2
#     Edge 8, Type (0, 0), BuildingBlock: UVAHIK_clean_linker_0, # of connection points: 2
#     Edge 9, Type (0, 0), BuildingBlock: UVAHIK_clean_linker_0, # of connection points: 2
#     Edge 10, Type (0, 0), BuildingBlock: UVAHIK_clean_linker_0, # of connection points: 2
#     Edge 11, Type (0, 0), BuildingBlock: UVAHIK_clean_linker_0, # of connection points: 2
#     Edge 12, Type (0, 0), BuildingBlock: UVAHIK_clean_linker_0, # of connection points: 2
#     Edge 13, Type (0, 0), BuildingBlock: UVAHIK_clean_linker_0, # of connection points: 2
#     Edge 14, Type (0, 0), BuildingBlock: UVAHIK_clean_linker_0, # of connection points: 2
#     Edge 15, Type (0, 0), BuildingBlock: UVAHIK_clean_linker_0, # of connection points: 2
#     Edge 16, Type (0, 0), BuildingBlock: UVAHIK_clean_linker_0, # of connection points: 2
#     Edge 17, Type (0, 0), BuildingBlock: UVAHIK_clean_linker_0, # of connection points: 2
#     Edge 18, Type (0, 0), BuildingBlock: UVAHIK_clean_linker_0, # of connection points: 2
#     Edge 19, Type (0, 0), BuildingBlock: UVAHIK_clean_linker_0, # of connection points: 2
#     Edge 20, Type (0, 0), BuildingBlock: UVAHIK_clean_linker_0, # of connection points: 2
# Relax obj value: 0.128
# Max RMSD: 0.157
# Mean RMSD: 0.157
data_MOF--net-wli--node1-XOMCOT_clean_sbu_0--edge1-UVAHIK_clean_linker_0
_symmetry_space_group_name_H-M    P1
_symmetry_Int_Tables_number       1
_symmetry_cell_setting            triclinic
loop_
_symmetry_equiv_pos_as_xyz
'x, y, z'
_cell_length_a     46.855901
_cell_length_b     46.791254
_cell_length_c     33.186625
_cell_angle_alpha  89.891329
_cell_angle_beta   89.925403
_cell_angle_gamma 120.07357
loop_
_atom_site_label
_atom_site_type_symbol
_atom_site_fract_x
_atom_site_fract_y
_atom_site_fract_z
_atom_type_partial_charge
Co0 Co 0.1973 0.42644 0.10755 0.0
C1 C 0.14677 0.38391 0.16864 0.0
C2 C 0.19032 0.38011 0.17244 0.0
C3 C 0.16924 0.36153 0.20301 0.0
N4 N 0.17578 0.39321 0.14975 0.0
N5 N 0.14191 0.36405 0.20062 0.0
H6 H 0.13029 0.39284 0.16092 0.0
H7 H 0.21523 0.38491 0.16831 0.0
C8 C 0.21519 0.37589 0.08632 0.0
O9 O 0.18377 0.35436 0.09191 0.0
N10 N 0.219 0.46043 0.06714 0.0
C11 C 0.20419 0.47306 0.04437 0.0
C12 C 0.22749 0.49738 0.02011 0.0
C13 C 0.25123 0.47748 0.0569 0.0
N14 N 0.25706 0.50019 0.02791 0.0
C15 C 0.1322 0.39094 0.0715 0.0
C16 C 0.15343 0.37896 0.99905 0.0
C17 C 0.12007 0.36914 1.00357 0.0
C18 C 0.10943 0.37508 0.0405 0.0
C19 C 0.17524 0.39469 0.03063 0.0
N20 N 0.16454 0.39972 0.06692 0.0
H21 H 0.12402 0.3979 0.098 0.0
H22 H 0.20116 0.40406 0.02515 0.0
H23 H 0.17823 0.46527 0.04566 0.0
H24 H 0.26988 0.47332 0.07033 0.0
O25 O 0.17684 0.45025 0.12858 0.0
O26 O 0.22516 0.45718 0.14832 0.0
O27 O 0.22574 0.40667 0.09208 0.0
C28 C 0.20265 0.46565 0.15154 0.0
H29 H 0.17438 0.34866 0.22648 0.0
H30 H 0.22308 0.51243 0.99905 0.0
H31 H 0.16288 0.37528 0.97091 0.0
H32 H 0.0841 0.3691 0.0447 0.0
Co33 Co 0.5846 0.77174 0.77052 0.0
C34 C 0.62759 0.76537 0.8297 0.0
C35 C 0.63691 0.81518 0.82766 0.0
C36 C 0.6568 0.81307 0.85679 0.0
N37 N 0.61869 0.78522 0.81075 0.0
N38 N 0.65065 0.78165 0.85815 0.0
H39 H 0.61714 0.73938 0.82305 0.0
H40 H 0.63533 0.83685 0.8202 0.0
C41 C 0.60611 0.83024 0.71632 0.0
O42 O 0.5966 0.80947 0.68598 0.0
N43 N 0.54943 0.75758 0.731 0.0
C44 C 0.53367 0.72857 0.71108 0.0
C45 C 0.50727 0.7267 0.69076 0.0
C46 C 0.53157 0.77242 0.72333 0.0
N47 N 0.50601 0.75428 0.69843 0.0
C48 C 0.60446 0.73325 0.72319 0.0
C49 C 0.66119 0.78552 0.69144 0.0
C50 C 0.65068 0.75359 0.67724 0.0
C51 C 0.62259 0.72713 0.69462 0.0
C52 C 0.64245 0.79041 0.7205 0.0
N53 N 0.61286 0.76477 0.7333 0.0
H54 H 0.58366 0.71245 0.73717 0.0
H55 H 0.65182 0.81494 0.73241 0.0
H56 H 0.53936 0.70902 0.71246 0.0
H57 H 0.53653 0.79551 0.73681 0.0
O58 O 0.56135 0.72836 0.79465 0.0
O59 O 0.55408 0.77007 0.81134 0.0
O60 O 0.6035 0.81946 0.75247 0.0
C61 C 0.54598 0.73931 0.8167 0.0
H62 H 0.67355 0.8328 0.87647 0.0
H63 H 0.49005 0.70635 0.67217 0.0
H64 H 0.68374 0.80648 0.68032 0.0
H65 H 0.61416 0.70191 0.68558 0.0
Co66 Co 0.23566 0.8111 0.44197 0.0
C67 C 0.242 0.86118 0.50254 0.0
C68 C 0.20138 0.81284 0.51484 0.0
C69 C 0.2044 0.83315 0.54643 0.0
N70 N 0.22458 0.83048 0.48685 0.0
N71 N 0.23004 0.86352 0.53869 0.0
H72 H 0.26447 0.88078 0.4898 0.0
H73 H 0.18434 0.78655 0.51323 0.0
C74 C 0.16493 0.78999 0.43035 0.0
O75 O 0.17295 0.82028 0.44034 0.0
N76 N 0.24724 0.79137 0.39872 0.0
C77 C 0.27415 0.80717 0.37506 0.0
C78 C 0.27635 0.78428 0.35141 0.0
C79 C 0.23334 0.75911 0.38927 0.0
N80 N 0.25078 0.75413 0.36045 0.0
C81 C 0.26645 0.87605 0.4063 0.0
C82 C 0.22623 0.85844 0.33935 0.0
C83 C 0.25337 0.89052 0.34142 0.0
C84 C 0.27343 0.89929 0.37575 0.0
C85 C 0.22049 0.83589 0.37016 0.0
N86 N 0.23981 0.84491 0.40389 0.0
H87 H 0.28407 0.88255 0.43028 0.0
H88 H 0.20162 0.8106 0.36527 0.0
H89 H 0.29158 0.83339 0.37594 0.0
H90 H 0.21194 0.73963 0.40447 0.0
O91 O 0.28056 0.832 0.46098 0.0
O92 O 0.24061 0.78251 0.48007 0.0
O93 O 0.18714 0.7817 0.42893 0.0
C94 C 0.27138 0.8057 0.48282 0.0
H95 H 0.18952 0.82583 0.57355 0.0
H96 H 0.29557 0.78934 0.32966 0.0
H97 H 0.21009 0.85026 0.31341 0.0
H98 H 0.2955 0.92328 0.37807 0.0
Co99 Co 0.4277 0.19484 0.90201 0.0
C100 C 0.38431 0.14417 0.84176 0.0
C101 C 0.38796 0.19114 0.83213 0.0
C102 C 0.37055 0.17073 0.80071 0.0
N103 N 0.39608 0.17437 0.85846 0.0
N104 N 0.36834 0.14122 0.80677 0.0
H105 H 0.38952 0.12559 0.85269 0.0
H106 H 0.39561 0.21705 0.83458 0.0
C107 C 0.37704 0.21377 0.91763 0.0
O108 O 0.35533 0.18267 0.91039 0.0
N109 N 0.46008 0.21579 0.94384 0.0
C110 C 0.47264 0.20104 0.96689 0.0
C111 C 0.4975 0.22468 0.99013 0.0
C112 C 0.47735 0.24814 0.9532 0.0
N113 N 0.50048 0.25424 0.98142 0.0
C114 C 0.39423 0.12993 0.93811 0.0
C115 C 0.37445 0.14815 0.00716 0.0
C116 C 0.36813 0.11563 0.00394 0.0
C117 C 0.37819 0.10663 0.96867 0.0
C118 C 0.39095 0.17071 0.97622 0.0
N119 N 0.39959 0.16133 0.94138 0.0
H120 H 0.40432 0.12316 0.91322 0.0
H121 H 0.39813 0.19619 0.98143 0.0
H122 H 0.46478 0.17502 0.9661 0.0
H123 H 0.47397 0.26691 0.93851 0.0
O124 O 0.45193 0.17446 0.88212 0.0
O125 O 0.4599 0.22327 0.86247 0.0
O126 O 0.40789 0.22349 0.91584 0.0
C127 C 0.46807 0.20051 0.85954 0.0
H128 H 0.36117 0.17746 0.77478 0.0
H129 H 0.51245 0.2205 0.01154 0.0
H130 H 0.36756 0.15655 0.03388 0.0
H131 H 0.3753 0.0823 0.96547 0.0
Co132 Co 0.81551 0.23734 0.56868 0.0
C133 C 0.86552 0.24328 0.5107 0.0
C134 C 0.82501 0.19346 0.51297 0.0
C135 C 0.84718 0.19543 0.48408 0.0
N136 N 0.83666 0.22351 0.52958 0.0
N137 N 0.87246 0.22686 0.48255 0.0
H138 H 0.88092 0.26933 0.51707 0.0
H139 H 0.80165 0.17187 0.52036 0.0
C140 C 0.77924 0.17979 0.62475 0.0
O141 O 0.78978 0.20111 0.65454 0.0
N142 N 0.794 0.25186 0.60709 0.0
C143 C 0.80684 0.28132 0.62587 0.0
C144 C 0.78213 0.28308 0.64593 0.0
C145 C 0.7613 0.2366 0.6151 0.0
N146 N 0.75354 0.25495 0.6392 0.0
C147 C 0.8736 0.27844 0.61464 0.0
C148 C 0.87878 0.22859 0.65229 0.0
C149 C 0.89892 0.26123 0.66526 0.0
C150 C 0.89722 0.28642 0.64449 0.0
C151 C 0.85559 0.2218 0.62184 0.0
N152 N 0.85108 0.24634 0.60628 0.0
H153 H 0.87335 0.29833 0.59856 0.0
H154 H 0.84097 0.19669 0.61148 0.0
H155 H 0.83195 0.30119 0.62394 0.0
H156 H 0.74343 0.21299 0.60253 0.0
O157 O 0.83485 0.27992 0.54275 0.0
O158 O 0.78612 0.23722 0.5273 0.0
O159 O 0.78758 0.18999 0.58842 0.0
C160 C 0.80843 0.26797 0.52085 0.0
H161 H 0.84425 0.17561 0.46459 0.0
H162 H 0.78496 0.30369 0.66377 0.0
H163 H 0.88015 0.20838 0.66624 0.0
H164 H 0.91381 0.31217 0.65151 0.0
Co165 Co 0.7737 0.58186 0.23438 0.0
C166 C 0.76635 0.62475 0.17324 0.0
C167 C 0.81212 0.6254 0.16701 0.0
C168 C 0.80976 0.64385 0.13623 0.0
N169 N 0.78549 0.6144 0.19133 0.0
N170 N 0.78089 0.64328 0.14014 0.0
H171 H 0.74154 0.61744 0.18232 0.0
H172 H 0.83134 0.6192 0.17024 0.0
C173 C 0.84349 0.63134 0.25155 0.0
O174 O 0.83484 0.65371 0.24522 0.0
N175 N 0.76139 0.54847 0.2755 0.0
C176 C 0.73432 0.53641 0.29899 0.0
C177 C 0.73201 0.51053 0.32126 0.0
C178 C 0.7752 0.5298 0.28358 0.0
N179 N 0.75762 0.50631 0.31147 0.0
C180 C 0.74573 0.61867 0.2707 0.0
C181 C 0.7812 0.63264 0.34152 0.0
C182 C 0.75771 0.64258 0.33754 0.0
C183 C 0.73998 0.6356 0.30144 0.0
C184 C 0.78622 0.61593 0.31011 0.0
N185 N 0.76937 0.60993 0.27459 0.0
H186 H 0.72968 0.61087 0.24503 0.0
H187 H 0.80278 0.60654 0.31525 0.0
H188 H 0.71705 0.54536 0.29916 0.0
H189 H 0.79682 0.53251 0.26823 0.0
O190 O 0.72901 0.55869 0.21465 0.0
O191 O 0.76916 0.55004 0.19416 0.0
O192 O 0.82202 0.60061 0.24847 0.0
C193 C 0.73838 0.5424 0.19166 0.0
H194 H 0.82703 0.6552 0.11158 0.0
H195 H 0.71281 0.4958 0.34283 0.0
H196 H 0.79512 0.63704 0.3691 0.0
H197 H 0.72063 0.64164 0.29778 0.0
C198 C 0.21291 0.69717 0.33729 0.0
C199 C 0.24507 0.72316 0.3444 0.0
C200 C 0.20772 0.66784 0.31941 0.0
C201 C 0.25175 0.63552 0.25786 0.0
H202 H 0.1769 0.55014 0.28543 0.0
C203 C 0.23744 0.51409 0.19575 0.0
C204 C 0.20664 0.49242 0.1786 0.0
C205 C 0.24172 0.54094 0.21881 0.0
C206 C 0.19785 0.57387 0.27738 0.0
H207 H 0.29687 0.73826 0.3406 0.0
H208 H 0.28799 0.68705 0.3107 0.0
H209 H 0.18513 0.59949 0.32076 0.0
H210 H 0.15589 0.4811 0.17333 0.0
H211 H 0.16334 0.52781 0.21398 0.0
H212 H 0.26463 0.60981 0.21487 0.0
C213 C 0.2667 0.68953 0.31735 0.0
C214 C 0.20251 0.60218 0.29746 0.0
C215 C 0.27185 0.71888 0.33463 0.0
C216 C 0.17996 0.49747 0.18606 0.0
C217 C 0.18415 0.52408 0.20951 0.0
C218 C 0.24729 0.60723 0.23819 0.0
C219 C 0.23461 0.6638 0.30878 0.0
C220 C 0.22952 0.63341 0.2879 0.0
C221 C 0.2152 0.5464 0.22556 0.0
C222 C 0.22028 0.57613 0.24764 0.0
H223 H 0.19188 0.69997 0.34438 0.0
H224 H 0.18267 0.64876 0.31292 0.0
H225 H 0.27239 0.65915 0.24892 0.0
H226 H 0.25845 0.51082 0.19052 0.0
H227 H 0.26586 0.5576 0.23115 0.0
C228 C 0.50103 0.72803 0.86643 0.0
C229 C 0.51963 0.71713 0.84495 0.0
C230 C 0.4747 0.70609 0.89094 0.0
C231 C 0.43739 0.62362 0.94086 0.0
H232 H 0.35644 0.62658 0.93205 0.0
C233 C 0.28873 0.53553 0.97049 0.0
C234 C 0.28809 0.52356 0.00956 0.0
C235 C 0.31824 0.55982 0.95338 0.0
C236 C 0.37882 0.62532 0.93473 0.0
H237 H 0.52578 0.67493 0.83318 0.0
H238 H 0.47982 0.63676 0.87531 0.0
H239 H 0.40594 0.66817 0.89779 0.0
H240 H 0.31825 0.52729 0.06093 0.0
H241 H 0.37007 0.56989 0.03094 0.0
H242 H 0.40981 0.58 0.97671 0.0
C243 C 0.48569 0.66226 0.87377 0.0
C244 C 0.40735 0.64947 0.91552 0.0
C245 C 0.51194 0.68414 0.84933 0.0
C246 C 0.31794 0.53582 0.03069 0.0
C247 C 0.3476 0.56026 0.01352 0.0
C248 C 0.4088 0.59943 0.96012 0.0
C249 C 0.46645 0.67282 0.8945 0.0
C250 C 0.4369 0.64869 0.91785 0.0
C251 C 0.34798 0.57289 0.97486 0.0
C252 C 0.37903 0.59969 0.95674 0.0
H253 H 0.50643 0.75334 0.86378 0.0
H254 H 0.46065 0.71515 0.9069 0.0
H255 H 0.45984 0.62251 0.94369 0.0
H256 H 0.26635 0.52609 0.95299 0.0
H257 H 0.31773 0.56831 0.92315 0.0
C258 C 0.28628 0.77228 0.52807 0.0
C259 C 0.29496 0.80247 0.50927 0.0
C260 C 0.30905 0.76917 0.55215 0.0
C261 C 0.39892 0.80846 0.57083 0.0
H262 H 0.37052 0.75249 0.66584 0.0
C263 C 0.49077 0.79487 0.67432 0.0
C264 C 0.48193 0.76211 0.68335 0.0
C265 C 0.46792 0.802 0.65664 0.0
C266 C 0.37878 0.76815 0.63933 0.0
H267 H 0.33397 0.85332 0.50171 0.0
H268 H 0.3734 0.84814 0.54435 0.0
H269 H 0.33061 0.76078 0.62804 0.0
H270 H 0.4419 0.71135 0.68278 0.0
H271 H 0.40208 0.7237 0.65203 0.0
H272 H 0.44709 0.81573 0.58219 0.0
C273 C 0.34932 0.8266 0.53984 0.0
C274 C 0.3559 0.7728 0.61754 0.0
C275 C 0.32664 0.82963 0.51554 0.0
C276 C 0.44951 0.73678 0.67568 0.0
C277 C 0.42662 0.7439 0.65846 0.0
C278 C 0.42183 0.80399 0.5928 0.0
C279 C 0.34093 0.79626 0.5582 0.0
C280 C 0.36558 0.79267 0.5827 0.0
C281 C 0.43568 0.77651 0.64818 0.0
C282 C 0.41192 0.78345 0.62696 0.0
H283 H 0.26207 0.75089 0.52366 0.0
H284 H 0.30187 0.74529 0.5653 0.0
H285 H 0.4072 0.82352 0.54384 0.0
H286 H 0.51563 0.81483 0.67972 0.0
H287 H 0.47552 0.8274 0.64929 0.0
C288 C 0.49972 0.1772 0.82615 0.0
C289 C 0.4946 0.204 0.83231 0.0
C290 C 0.52535 0.18053 0.8014 0.0
C291 C 0.58436 0.23414 0.72234 0.0
H292 H 0.63463 0.19348 0.75785 0.0
C293 C 0.71389 0.27171 0.66171 0.0
C294 C 0.72158 0.24673 0.65465 0.0
C295 C 0.68391 0.26429 0.67943 0.0
C296 C 0.62054 0.20457 0.7472 0.0
H297 H 0.51211 0.25522 0.81715 0.0
H298 H 0.55739 0.26135 0.77465 0.0
H299 H 0.58701 0.18521 0.79687 0.0
H300 H 0.70366 0.19429 0.65986 0.0
H301 H 0.65103 0.1812 0.69106 0.0
H302 H 0.61865 0.25427 0.67328 0.0
C303 C 0.54122 0.23753 0.78828 0.0
C304 C 0.5932 0.19983 0.76955 0.0
C305 C 0.51539 0.2341 0.81284 0.0
C306 C 0.69827 0.21398 0.66475 0.0
C307 C 0.66834 0.20657 0.6829 0.0
C308 C 0.61185 0.23905 0.70015 0.0
C309 C 0.54665 0.21082 0.78244 0.0
C310 C 0.57491 0.21478 0.75761 0.0
C311 C 0.66101 0.23173 0.69079 0.0
C312 C 0.6304 0.22456 0.71254 0.0
H313 H 0.48392 0.15358 0.84049 0.0
H314 H 0.5284 0.15928 0.79705 0.0
H315 H 0.57052 0.24552 0.71183 0.0
H316 H 0.73121 0.29711 0.65379 0.0
H317 H 0.67912 0.28426 0.68539 0.0
C318 C 0.79611 0.48691 0.33076 0.0
C319 C 0.76376 0.48101 0.32668 0.0
C320 C 0.80192 0.4628 0.34749 0.0
C321 C 0.76229 0.37346 0.37009 0.0
H322 H 0.82828 0.40131 0.45404 0.0
C323 C 0.77233 0.28121 0.47819 0.0
C324 C 0.80384 0.2893 0.49184 0.0
C325 C 0.7681 0.30354 0.45429 0.0
C326 C 0.81015 0.39307 0.43017 0.0
H327 H 0.71212 0.4447 0.33534 0.0
H328 H 0.72222 0.40278 0.36459 0.0
H329 H 0.82037 0.44234 0.41857 0.0
H330 H 0.85581 0.32615 0.48944 0.0
H331 H 0.84865 0.36446 0.44693 0.0
H332 H 0.75204 0.32415 0.38169 0.0
C333 C 0.74311 0.42601 0.35495 0.0
C334 C 0.8056 0.41667 0.40988 0.0
C335 C 0.73734 0.45018 0.33862 0.0
C336 C 0.83114 0.3194 0.47975 0.0
C337 C 0.827 0.34149 0.45559 0.0
C338 C 0.767 0.34982 0.39021 0.0
C339 C 0.77547 0.43216 0.36002 0.0
C340 C 0.78147 0.40713 0.37983 0.0
C341 C 0.79536 0.33425 0.4433 0.0
C342 C 0.79087 0.3593 0.4207 0.0
H343 H 0.81694 0.51047 0.32198 0.0
H344 H 0.82713 0.46816 0.35074 0.0
H345 H 0.74371 0.36539 0.34677 0.0
H346 H 0.75083 0.25824 0.48724 0.0
H347 H 0.74333 0.29722 0.4457 0.0
C348 C 0.51695 0.31082 1.00377 0.0
C349 C 0.52463 0.28573 0.99754 0.0
C350 C 0.54011 0.34084 0.02117 0.0
C351 C 0.62902 0.39423 0.03982 0.0
H352 H 0.60157 0.42609 0.13131 0.0
C353 C 0.72282 0.49351 0.14745 0.0
C354 C 0.7148 0.51588 0.16494 0.0
C355 C 0.69971 0.46731 0.12401 0.0
C356 C 0.60962 0.41797 0.10536 0.0
H357 H 0.56286 0.27282 1.00315 0.0
H358 H 0.60326 0.32514 0.03326 0.0
H359 H 0.56089 0.37748 0.0949 0.0
H360 H 0.67676 0.52911 0.17055 0.0
H361 H 0.63681 0.48405 0.12878 0.0
H362 H 0.67769 0.43466 0.05 0.0
C363 C 0.57936 0.32162 0.02491 0.0
C364 C 0.58626 0.39004 0.08457 0.0
C365 C 0.55613 0.29155 0.00806 0.0
C366 C 0.68355 0.51206 0.15773 0.0
C367 C 0.66056 0.48609 0.13397 0.0
C368 C 0.65234 0.42235 0.06034 0.0
C369 C 0.57152 0.34647 0.03201 0.0
C370 C 0.5958 0.37762 0.05195 0.0
C371 C 0.66818 0.46311 0.11719 0.0
C372 C 0.64305 0.43434 0.09376 0.0
H373 H 0.4928 0.3069 0.99609 0.0
H374 H 0.53348 0.35966 0.02614 0.0
H375 H 0.63699 0.38541 0.01445 0.0
H376 H 0.74667 0.49573 0.15268 0.0
H377 H 0.70633 0.44986 0.11215 0.0
C378 C 0.93894 0.2532 0.70799 0.0
C379 C 0.92094 0.26936 0.70076 0.0
C380 C 0.96011 0.26189 0.74119 0.0
C381 C 0.00785 0.33152 0.80937 0.0
H382 H 0.01134 0.26684 0.87929 0.0
C383 C 0.10766 0.36934 0.93029 0.0
C384 C 0.09728 0.35533 0.96881 0.0
C385 C 0.08629 0.35715 0.89753 0.0
C386 C 0.0105 0.28513 0.86007 0.0
H387 H 0.90979 0.30603 0.72396 0.0
H388 H 0.94682 0.32134 0.78118 0.0
H389 H 0.9732 0.24832 0.82209 0.0
H390 H 0.05645 0.31723 1.00304 0.0
H391 H 0.01879 0.29599 0.94551 0.0
H392 H 0.0447 0.36833 0.84729 0.0
C393 C 0.94511 0.30245 0.76086 0.0
C394 C 0.98894 0.27455 0.82718 0.0
C395 C 0.92397 0.29373 0.72795 0.0
C396 C 0.06505 0.32862 0.97375 0.0
C397 C 0.04365 0.31628 0.9408 0.0
C398 C 0.02946 0.34206 0.84196 0.0
C399 C 0.96369 0.28693 0.76762 0.0
C400 C 0.98725 0.29769 0.8017 0.0
C401 C 0.05399 0.33065 0.90242 0.0
C402 C 0.03098 0.31902 0.86774 0.0
H403 H 0.93728 0.23443 0.68753 0.0
H404 H 0.97429 0.24964 0.7456 0.0
H405 H 0.00734 0.34994 0.79002 0.0
H406 H 0.13217 0.39023 0.92555 0.0
H407 H 0.09507 0.36855 0.86827 0.0
C408 C 0.74731 0.6451 0.41108 0.0
C409 C 0.75019 0.6579 0.37201 0.0
C410 C 0.74002 0.65911 0.44371 0.0
C411 C 0.70373 0.71096 0.4693 0.0
H412 H 0.74329 0.71543 0.57343 0.0
C413 C 0.67716 0.76756 0.60898 0.0
C414 C 0.66824 0.74782 0.64386 0.0
C415 C 0.6907 0.76016 0.5758 0.0
C416 C 0.73199 0.71426 0.54455 0.0
H417 H 0.74783 0.69556 0.33651 0.0
H418 H 0.73542 0.72044 0.39373 0.0
H419 H 0.76024 0.69609 0.51488 0.0
H420 H 0.66786 0.70581 0.67206 0.0
H421 H 0.69156 0.69292 0.61416 0.0
H422 H 0.6754 0.72905 0.49919 0.0
C423 C 0.73839 0.69923 0.39902 0.0
C424 C 0.7416 0.70308 0.51102 0.0
C425 C 0.74553 0.68504 0.36626 0.0
C426 C 0.67425 0.72128 0.64545 0.0
C427 C 0.68806 0.71408 0.61243 0.0
C428 C 0.69429 0.72236 0.50282 0.0
C429 C 0.73554 0.68641 0.43817 0.0
C430 C 0.72718 0.70075 0.47311 0.0
C431 C 0.6959 0.73309 0.57701 0.0
C432 C 0.70795 0.72363 0.54091 0.0
H433 H 0.75008 0.62376 0.41638 0.0
H434 H 0.73724 0.64807 0.47321 0.0
H435 H 0.69179 0.70911 0.44073 0.0
H436 H 0.67259 0.78802 0.6068 0.0
H437 H 0.69677 0.7754 0.54901 0.0
C438 C 0.36126 0.10329 0.07828 0.0
C439 C 0.3534 0.09208 0.03827 0.0
C440 C 0.3482 0.08123 0.11056 0.0
C441 C 0.317 0.99514 0.13739 0.0
H442 H 0.27936 0.01449 0.23035 0.0
C443 C 0.25748 0.90152 0.26685 0.0
C444 C 0.26227 0.91359 0.30654 0.0
C445 C 0.26678 0.92302 0.23398 0.0
C446 C 0.29018 0.0089 0.20489 0.0
H447 H 0.32512 0.04867 1.00118 0.0
H448 H 0.30306 0.01003 0.05773 0.0
H449 H 0.29892 0.0525 0.17313 0.0
H450 H 0.28042 0.95801 0.34248 0.0
H451 H 0.29797 0.99567 0.28516 0.0
H452 H 0.30942 0.95221 0.1693 0.0
C453 C 0.31935 0.03602 0.06384 0.0
C454 C 0.30122 0.0306 0.17206 0.0
C455 C 0.33209 0.05816 0.03149 0.0
C456 C 0.2766 0.94782 0.3124 0.0
C457 C 0.28627 0.96941 0.27945 0.0
C458 C 0.30636 0.97365 0.17038 0.0
C459 C 0.32733 0.04737 0.10367 0.0
C460 C 0.31472 0.02392 0.13801 0.0
C461 C 0.28163 0.95729 0.23979 0.0
C462 C 0.29277 0.9802 0.20459 0.0
H463 H 0.3782 0.12904 0.08481 0.0
H464 H 0.35515 0.09056 0.14094 0.0
H465 H 0.32777 0.98966 0.11176 0.0
H466 H 0.24713 0.87543 0.26095 0.0
H467 H 0.26231 0.91267 0.20395 0.0
C468 C 0.38724 0.26853 0.94448 0.0
C469 C 0.36527 0.23632 0.93099 0.0
C470 C 0.3753 0.28884 0.95865 0.0
C471 C 0.30035 0.29707 0.95663 0.0
H472 H 0.3339 0.34553 0.05641 0.0
C473 C 0.22288 0.33167 0.05545 0.0
C474 C 0.23689 0.3644 0.06909 0.0
C475 C 0.24229 0.32066 0.03689 0.0
C476 C 0.32465 0.33252 0.0282 0.0
H477 H 0.31359 0.20039 0.92159 0.0
H478 H 0.293 0.23527 0.94647 0.0
H479 H 0.3613 0.31786 0.02591 0.0
H480 H 0.28261 0.41103 0.07477 0.0
H481 H 0.31691 0.3913 0.04275 0.0
H482 H 0.26294 0.31046 0.95976 0.0
C483 C 0.31943 0.24524 0.94561 0.0
C484 C 0.34034 0.31673 0.01068 0.0
C485 C 0.33128 0.22506 0.93158 0.0
C486 C 0.27109 0.38569 0.06456 0.0
C487 C 0.2907 0.37443 0.04633 0.0
C488 C 0.28462 0.31254 0.97424 0.0
C489 C 0.3412 0.27737 0.95937 0.0
C490 C 0.32775 0.29802 0.97527 0.0
C491 C 0.2763 0.34193 0.03176 0.0
C492 C 0.29603 0.32967 0.01074 0.0
H493 H 0.41359 0.27792 0.94452 0.0
H494 H 0.39274 0.31352 0.96887 0.0
H495 H 0.29051 0.28363 0.92881 0.0
H496 H 0.19668 0.31452 0.05841 0.0
H497 H 0.23061 0.29535 0.02649 0.0
C498 C 0.74863 0.1202 0.60301 0.0
C499 C 0.75986 0.14387 0.63392 0.0
C500 C 0.73107 0.08638 0.61216 0.0
C501 C 0.71644 0.02719 0.69479 0.0
H502 H 0.64032 0.9671 0.63158 0.0
C503 C 0.63366 0.88948 0.73938 0.0
C504 C 0.62217 0.86625 0.70797 0.0
C505 C 0.64957 0.92341 0.73092 0.0
C506 C 0.66174 0.98344 0.64931 0.0
H507 H 0.76104 0.15036 0.69877 0.0
H508 H 0.73046 0.09166 0.71457 0.0
H509 H 0.66995 0.02582 0.61513 0.0
H510 H 0.61837 0.86068 0.64295 0.0
H511 H 0.64638 0.91946 0.62832 0.0
H512 H 0.70851 0.98484 0.72872 0.0
C513 C 0.73551 0.09916 0.68327 0.0
C514 C 0.67874 0.01716 0.63984 0.0
C515 C 0.7529 0.13289 0.67414 0.0
C516 C 0.62677 0.87778 0.66798 0.0
C517 C 0.64269 0.91161 0.65954 0.0
C518 C 0.69952 0.99345 0.70417 0.0
C519 C 0.72446 0.07544 0.65245 0.0
C520 C 0.70633 0.03948 0.66244 0.0
C521 C 0.65441 0.93494 0.69084 0.0
C522 C 0.67197 0.97107 0.68152 0.0
H523 H 0.75358 0.12775 0.57172 0.0
H524 H 0.72318 0.06879 0.58768 0.0
H525 H 0.73787 0.04359 0.71249 0.0
H526 H 0.63047 0.88148 0.77053 0.0
H527 H 0.65786 0.9406 0.75585 0.0
C528 C 0.10524 0.77243 0.42839 0.0
C529 C 0.131 0.76729 0.41621 0.0
C530 C 0.07381 0.75387 0.41185 0.0
C531 C 0.01897 0.73139 0.35207 0.0
H532 H 0.9784 0.63959 0.32012 0.0
C533 C 0.90281 0.67429 0.25544 0.0
C534 C 0.87745 0.64235 0.26522 0.0
C535 C 0.93422 0.68679 0.27183 0.0
C536 C 0.98928 0.66517 0.32912 0.0
H537 H 0.1438 0.73775 0.37821 0.0
H538 H 0.08893 0.70581 0.34821 0.0
H539 H 0.03116 0.66548 0.35576 0.0
H540 H 0.86533 0.59785 0.29864 0.0
H541 H 0.92022 0.6201 0.32851 0.0
H542 H 0.97699 0.7311 0.32699 0.0
C543 C 0.09286 0.72383 0.37117 0.0
C544 C 0.01972 0.68013 0.34919 0.0
C545 C 0.12434 0.74217 0.38826 0.0
C546 C 0.88451 0.62256 0.29049 0.0
C547 C 0.91598 0.63531 0.3075 0.0
C548 C 0.98864 0.71647 0.3324 0.0
C549 C 0.0674 0.73005 0.38206 0.0
C550 C 0.03492 0.71346 0.36099 0.0
C551 C 0.941 0.66794 0.29914 0.0
C552 C 0.97341 0.68324 0.32036 0.0
H553 H 0.1095 0.79129 0.45031 0.0
H554 H 0.05465 0.75871 0.42195 0.0
H555 H 0.03006 0.75724 0.3599 0.0
H556 H 0.89823 0.68993 0.23554 0.0
H557 H 0.95306 0.71161 0.26362 0.0
C558 C 0.91293 0.22159 0.4399 0.0
C559 C 0.89971 0.24068 0.45452 0.0
C560 C 0.93918 0.23499 0.41241 0.0
C561 C 1.00525 0.31541 0.37094 0.0
H562 H 0.00898 0.25995 0.28684 0.0
C563 C 0.09757 0.36724 0.23746 0.0
C564 C 0.1144 0.35024 0.22828 0.0
C565 C 0.07126 0.35396 0.26485 0.0
C566 C 0.00839 0.27568 0.31034 0.0
H567 H 0.90312 0.28854 0.45095 0.0
H568 H 0.94826 0.31169 0.4025 0.0
H569 H 0.96334 0.23669 0.33481 0.0
H570 H 0.11649 0.3058 0.24008 0.0
H571 H 0.07038 0.28245 0.28771 0.0
H572 H 0.05005 0.35454 0.34576 0.0
C573 C 0.93915 0.28668 0.41306 0.0
C574 C 0.98228 0.26233 0.338 0.0
C575 C 0.91317 0.27339 0.44085 0.0
C576 C 0.10414 0.31955 0.2468 0.0
C577 C 0.07759 0.30608 0.27378 0.0
C578 C 0.03115 0.32882 0.343 0.0
C579 C 0.95261 0.26771 0.39847 0.0
C580 C 0.98039 0.28197 0.36881 0.0
C581 C 0.06094 0.3232 0.28326 0.0
C582 C 0.03308 0.30908 0.3125 0.0
H583 H 0.90328 0.19643 0.4502 0.0
H584 H 0.9492 0.21975 0.4025 0.0
H585 H 1.00505 0.33121 0.39459 0.0
H586 H 0.1051 0.39109 0.22403 0.0
H587 H 0.05878 0.36764 0.27138 0.0
C588 C 0.64439 0.73514 0.90009 0.0
C589 C 0.66391 0.76774 0.88617 0.0
C590 C 0.65691 0.72177 0.9279 0.0
C591 C 0.72487 0.74591 1.00219 0.0
H592 H 0.69833 0.65309 0.99616 0.0
C593 C 0.78828 0.68734 0.09293 0.0
C594 C 0.76742 0.65735 0.11268 0.0
C595 C 0.77542 0.70098 0.06594 0.0
C596 C 0.70575 0.679 0.9984 0.0
H597 H 0.71202 0.81167 0.88993 0.0
H598 H 0.73438 0.78815 0.93753 0.0
H599 H 0.67707 0.67656 0.94711 0.0
H600 H 0.71676 0.61788 0.11917 0.0
H601 H 0.69428 0.64156 0.07167 0.0
H602 H 0.75424 0.74831 0.05296 0.0
C603 C 0.70904 0.7731 0.92791 0.0
C604 C 0.69349 0.69249 0.97036 0.0
C605 C 0.69633 0.7866 0.90047 0.0
C606 C 0.73339 0.64119 0.10475 0.0
C607 C 0.72058 0.65459 0.0773 0.0
C608 C 0.73744 0.73248 0.0299 0.0
C609 C 0.68946 0.74051 0.94218 0.0
C610 C 0.7028 0.72615 0.97189 0.0
C611 C 0.74146 0.68466 0.05766 0.0
C612 C 0.72796 0.69887 0.02836 0.0
H613 H 0.61912 0.72018 0.89017 0.0
H614 H 0.64078 0.69687 0.93871 0.0
H615 H 0.73215 0.77173 0.00496 0.0
H616 H 0.81455 0.7004 0.09866 0.0
H617 H 0.79214 0.72406 0.05104 0.0
C618 C 0.34143 0.0811 0.79458 0.0
C619 C 0.35467 0.11343 0.77967 0.0
C620 C 0.32814 0.05414 0.7683 0.0
C621 C 0.29603 0.0299 0.66403 0.0
H622 H 0.30834 0.9553 0.68555 0.0
C623 C 0.26075 0.92394 0.54967 0.0
C624 C 0.24397 0.89164 0.56529 0.0
C625 C 0.27448 0.9512 0.57551 0.0
C626 C 0.30447 0.97584 0.67931 0.0
H627 H 0.36509 0.14282 0.72533 0.0
H628 H 0.34246 0.09603 0.67949 0.0
H629 H 0.33206 1.00242 0.73112 0.0
H630 H 0.22898 0.8627 0.62038 0.0
H631 H 0.25276 0.91018 0.66538 0.0
H632 H 0.26878 1.00336 0.61189 0.0
C633 C 0.3415 0.09131 0.71156 0.0
C634 C 0.31799 1.00284 0.7055 0.0
C635 C 0.35454 0.11821 0.73786 0.0
C636 C 0.24137 0.88722 0.60734 0.0
C637 C 0.25533 0.91444 0.63315 0.0
C638 C 0.28273 1.003 0.63769 0.0
C639 C 0.32801 0.05888 0.7264 0.0
C640 C 0.31385 0.0302 0.69831 0.0
C641 C 0.27201 0.94673 0.61755 0.0
C642 C 0.28668 0.97561 0.64512 0.0
H643 H 0.34085 0.07661 0.82666 0.0
H644 H 0.3175 0.02953 0.78093 0.0
H645 H 0.29183 0.05022 0.65783 0.0
H646 H 0.26298 0.92814 0.51745 0.0
H647 H 0.28739 0.97578 0.56258 0.0
loop_
_geom_bond_atom_site_label_1
_geom_bond_atom_site_label_2
_geom_bond_distance
_geom_bond_site_symmetry_2
_ccdc_geom_bond_type
Co0 N4 2.148 . S
Co0 N10 2.128 . S
Co0 N20 2.194 . S
Co0 O25 2.351 . S
Co0 O26 2.155 . S
Co0 O27 2.096 . S
C1 N4 1.301 . S
C1 N5 1.328 . S
C1 H6 0.930 . S
C2 C3 1.333 . S
C2 N4 1.317 . S
C2 H7 0.930 . S
C3 C2 1.333 . S
C3 N5 1.350 . S
C3 H29 0.931 . S
N4 Co0 2.148 . S
N4 C1 1.301 . S
N4 C2 1.317 . S
N5 C1 1.328 . S
N5 C3 1.350 . S
H6 C1 0.930 . S
H7 C2 0.930 . S
C8 O9 1.224 . S
C8 O27 1.247 . S
O9 C8 1.224 . S
N10 Co0 2.128 . S
N10 C11 1.355 1_554 S
N10 C13 1.311 . S
C11 N10 1.355 1_556 S
C11 C12 1.363 . S
C11 H23 0.929 . S
C12 C11 1.363 . S
C12 N14 1.375 . S
C12 H30 0.931 . S
C13 N10 1.311 . S
C13 N14 1.347 1_554 S
C13 H24 0.929 . S
N14 C12 1.375 . S
N14 C13 1.347 1_556 S
C15 C18 1.365 1_554 S
C15 N20 1.328 . S
C15 H21 0.929 . S
C16 C17 1.362 . S
C16 C19 1.375 1_556 S
C16 H31 0.929 . S
C17 C16 1.362 . S
C17 C18 1.366 . S
C18 C15 1.365 1_556 S
C18 C17 1.366 . S
C18 H32 0.930 . S
C19 C16 1.375 1_554 S
C19 N20 1.317 . S
C19 H22 0.930 . S
N20 Co0 2.194 . S
N20 C15 1.328 . S
N20 C19 1.317 . S
H21 C15 0.929 . S
H22 C19 0.930 . S
H23 C11 0.929 . S
H24 C13 0.929 . S
O25 Co0 2.351 . S
O25 C28 1.244 . S
O26 Co0 2.155 . S
O26 C28 1.240 . S
O27 Co0 2.096 . S
O27 C8 1.247 . S
C28 O25 1.244 . S
C28 O26 1.240 . S
H29 C3 0.931 . S
H30 C12 0.931 . S
H31 C16 0.929 . S
H32 C18 0.930 . S
Co33 N37 2.148 . S
Co33 N43 2.128 . S
Co33 N53 2.194 . S
Co33 O58 2.351 . S
Co33 O59 2.155 . S
Co33 O60 2.096 . S
C34 N37 1.301 . S
C34 N38 1.328 . S
C34 H39 0.930 . S
C35 C36 1.333 . S
C35 N37 1.317 . S
C35 H40 0.930 . S
C36 C35 1.333 . S
C36 N38 1.350 . S
C36 H62 0.931 . S
N37 Co33 2.148 . S
N37 C34 1.301 . S
N37 C35 1.317 . S
N38 C34 1.328 . S
N38 C36 1.350 . S
H39 C34 0.930 . S
H40 C35 0.930 . S
C41 O42 1.224 . S
C41 O60 1.247 . S
O42 C41 1.224 . S
N43 Co33 2.128 . S
N43 C44 1.355 . S
N43 C46 1.311 . S
C44 N43 1.355 . S
C44 C45 1.363 . S
C44 H56 0.929 . S
C45 C44 1.363 . S
C45 N47 1.375 . S
C45 H63 0.931 . S
C46 N43 1.311 . S
C46 N47 1.347 . S
C46 H57 0.929 . S
N47 C45 1.375 . S
N47 C46 1.347 . S
C48 C51 1.365 . S
C48 N53 1.328 . S
C48 H54 0.929 . S
C49 C50 1.362 . S
C49 C52 1.378 . S
C49 H64 0.929 . S
C50 C49 1.362 . S
C50 C51 1.366 . S
C51 C48 1.365 . S
C51 C50 1.366 . S
C51 H65 0.930 . S
C52 C49 1.378 . S
C52 N53 1.315 . S
C52 H55 0.930 . S
N53 Co33 2.194 . S
N53 C48 1.328 . S
N53 C52 1.315 . S
H54 C48 0.929 . S
H55 C52 0.930 . S
H56 C44 0.929 . S
H57 C46 0.929 . S
O58 Co33 2.351 . S
O58 C61 1.244 . S
O59 Co33 2.155 . S
O59 C61 1.240 . S
O60 Co33 2.096 . S
O60 C41 1.247 . S
C61 O58 1.244 . S
C61 O59 1.240 . S
H62 C36 0.931 . S
H63 C45 0.931 . S
H64 C49 0.929 . S
H65 C51 0.930 . S
Co66 N70 2.148 . S
Co66 N76 2.128 . S
Co66 N86 2.194 . S
Co66 O91 2.351 . S
Co66 O92 2.155 . S
Co66 O93 2.096 . S
C67 N70 1.301 . S
C67 N71 1.328 . S
C67 H72 0.930 . S
C68 C69 1.333 . S
C68 N70 1.317 . S
C68 H73 0.930 . S
C69 C68 1.333 . S
C69 N71 1.350 . S
C69 H95 0.931 . S
N70 Co66 2.148 . S
N70 C67 1.301 . S
N70 C68 1.317 . S
N71 C67 1.328 . S
N71 C69 1.350 . S
H72 C67 0.930 . S
H73 C68 0.930 . S
C74 O75 1.224 . S
C74 O93 1.247 . S
O75 C74 1.224 . S
N76 Co66 2.128 . S
N76 C77 1.355 . S
N76 C79 1.311 . S
C77 N76 1.355 . S
C77 C78 1.363 . S
C77 H89 0.929 . S
C78 C77 1.363 . S
C78 N80 1.375 . S
C78 H96 0.931 . S
C79 N76 1.311 . S
C79 N80 1.347 . S
C79 H90 0.929 . S
N80 C78 1.375 . S
N80 C79 1.347 . S
C81 C84 1.365 . S
C81 N86 1.328 . S
C81 H87 0.929 . S
C82 C83 1.362 . S
C82 C85 1.378 . S
C82 H97 0.929 . S
C83 C82 1.362 . S
C83 C84 1.366 . S
C84 C81 1.365 . S
C84 C83 1.366 . S
C84 H98 0.930 . S
C85 C82 1.378 . S
C85 N86 1.315 . S
C85 H88 0.930 . S
N86 Co66 2.194 . S
N86 C81 1.328 . S
N86 C85 1.315 . S
H87 C81 0.929 . S
H88 C85 0.930 . S
H89 C77 0.929 . S
H90 C79 0.929 . S
O91 Co66 2.351 . S
O91 C94 1.244 . S
O92 Co66 2.155 . S
O92 C94 1.240 . S
O93 Co66 2.096 . S
O93 C74 1.247 . S
C94 O91 1.244 . S
C94 O92 1.240 . S
H95 C69 0.931 . S
H96 C78 0.931 . S
H97 C82 0.929 . S
H98 C84 0.930 . S
Co99 N103 2.148 . S
Co99 N109 2.128 . S
Co99 N119 2.194 . S
Co99 O124 2.351 . S
Co99 O125 2.155 . S
Co99 O126 2.096 . S
C100 N103 1.301 . S
C100 N104 1.328 . S
C100 H105 0.930 . S
C101 C102 1.333 . S
C101 N103 1.317 . S
C101 H106 0.930 . S
C102 C101 1.333 . S
C102 N104 1.350 . S
C102 H128 0.931 . S
N103 Co99 2.148 . S
N103 C100 1.301 . S
N103 C101 1.317 . S
N104 C100 1.328 . S
N104 C102 1.350 . S
H105 C100 0.930 . S
H106 C101 0.930 . S
C107 O108 1.224 . S
C107 O126 1.247 . S
O108 C107 1.224 . S
N109 Co99 2.128 . S
N109 C110 1.355 1_556 S
N109 C112 1.311 . S
C110 N109 1.355 1_554 S
C110 C111 1.363 . S
C110 H122 0.929 . S
C111 C110 1.363 . S
C111 N113 1.375 . S
C111 H129 0.931 . S
C112 N109 1.311 . S
C112 N113 1.347 1_556 S
C112 H123 0.929 . S
N113 C111 1.375 . S
N113 C112 1.347 1_554 S
C114 C117 1.365 1_556 S
C114 N119 1.328 . S
C114 H120 0.929 . S
C115 C116 1.362 . S
C115 C118 1.375 1_554 S
C115 H130 0.929 . S
C116 C115 1.362 . S
C116 C117 1.366 . S
C117 C114 1.365 1_554 S
C117 C116 1.366 . S
C117 H131 0.930 . S
C118 C115 1.375 1_556 S
C118 N119 1.317 . S
C118 H121 0.930 . S
N119 Co99 2.194 . S
N119 C114 1.328 . S
N119 C118 1.317 . S
H120 C114 0.929 . S
H121 C118 0.930 . S
H122 C110 0.929 . S
H123 C112 0.929 . S
O124 Co99 2.351 . S
O124 C127 1.244 . S
O125 Co99 2.155 . S
O125 C127 1.240 . S
O126 Co99 2.096 . S
O126 C107 1.247 . S
C127 O124 1.244 . S
C127 O125 1.240 . S
H128 C102 0.931 . S
H129 C111 0.931 . S
H130 C115 0.929 . S
H131 C117 0.930 . S
Co132 N136 2.148 . S
Co132 N142 2.128 . S
Co132 N152 2.194 . S
Co132 O157 2.351 . S
Co132 O158 2.155 . S
Co132 O159 2.096 . S
C133 N136 1.301 . S
C133 N137 1.328 . S
C133 H138 0.930 . S
C134 C135 1.333 . S
C134 N136 1.317 . S
C134 H139 0.930 . S
C135 C134 1.333 . S
C135 N137 1.350 . S
C135 H161 0.931 . S
N136 Co132 2.148 . S
N136 C133 1.301 . S
N136 C134 1.317 . S
N137 C133 1.328 . S
N137 C135 1.350 . S
H138 C133 0.930 . S
H139 C134 0.930 . S
C140 O141 1.224 . S
C140 O159 1.247 . S
O141 C140 1.224 . S
N142 Co132 2.128 . S
N142 C143 1.355 . S
N142 C145 1.311 . S
C143 N142 1.355 . S
C143 C144 1.363 . S
C143 H155 0.929 . S
C144 C143 1.363 . S
C144 N146 1.375 . S
C144 H162 0.931 . S
C145 N142 1.311 . S
C145 N146 1.347 . S
C145 H156 0.929 . S
N146 C144 1.375 . S
N146 C145 1.347 . S
C147 C150 1.365 . S
C147 N152 1.328 . S
C147 H153 0.929 . S
C148 C149 1.362 . S
C148 C151 1.378 . S
C148 H163 0.929 . S
C149 C148 1.362 . S
C149 C150 1.366 . S
C150 C147 1.365 . S
C150 C149 1.366 . S
C150 H164 0.930 . S
C151 C148 1.378 . S
C151 N152 1.315 . S
C151 H154 0.930 . S
N152 Co132 2.194 . S
N152 C147 1.328 . S
N152 C151 1.315 . S
H153 C147 0.929 . S
H154 C151 0.930 . S
H155 C143 0.929 . S
H156 C145 0.929 . S
O157 Co132 2.351 . S
O157 C160 1.244 . S
O158 Co132 2.155 . S
O158 C160 1.240 . S
O159 Co132 2.096 . S
O159 C140 1.247 . S
C160 O157 1.244 . S
C160 O158 1.240 . S
H161 C135 0.931 . S
H162 C144 0.931 . S
H163 C148 0.929 . S
H164 C150 0.930 . S
Co165 N169 2.148 . S
Co165 N175 2.128 . S
Co165 N185 2.194 . S
Co165 O190 2.351 . S
Co165 O191 2.155 . S
Co165 O192 2.096 . S
C166 N169 1.301 . S
C166 N170 1.328 . S
C166 H171 0.930 . S
C167 C168 1.333 . S
C167 N169 1.317 . S
C167 H172 0.930 . S
C168 C167 1.333 . S
C168 N170 1.350 . S
C168 H194 0.931 . S
N169 Co165 2.148 . S
N169 C166 1.301 . S
N169 C167 1.317 . S
N170 C166 1.328 . S
N170 C168 1.350 . S
H171 C166 0.930 . S
H172 C167 0.930 . S
C173 O174 1.224 . S
C173 O192 1.247 . S
O174 C173 1.224 . S
N175 Co165 2.128 . S
N175 C176 1.355 . S
N175 C178 1.311 . S
C176 N175 1.355 . S
C176 C177 1.363 . S
C176 H188 0.929 . S
C177 C176 1.363 . S
C177 N179 1.375 . S
C177 H195 0.931 . S
C178 N175 1.311 . S
C178 N179 1.347 . S
C178 H189 0.929 . S
N179 C177 1.375 . S
N179 C178 1.347 . S
C180 C183 1.365 . S
C180 N185 1.328 . S
C180 H186 0.929 . S
C181 C182 1.362 . S
C181 C184 1.378 . S
C181 H196 0.929 . S
C182 C181 1.362 . S
C182 C183 1.366 . S
C183 C180 1.365 . S
C183 C182 1.366 . S
C183 H197 0.930 . S
C184 C181 1.378 . S
C184 N185 1.315 . S
C184 H187 0.930 . S
N185 Co165 2.194 . S
N185 C180 1.328 . S
N185 C184 1.315 . S
H186 C180 0.929 . S
H187 C184 0.930 . S
H188 C176 0.929 . S
H189 C178 0.929 . S
O190 Co165 2.351 . S
O190 C193 1.244 . S
O191 Co165 2.155 . S
O191 C193 1.240 . S
O192 Co165 2.096 . S
O192 C173 1.247 . S
C193 O190 1.244 . S
C193 O191 1.240 . S
H194 C168 0.931 . S
H195 C177 0.931 . S
H196 C181 0.929 . S
H197 C183 0.930 . S
C198 C199 1.349 . S
C198 C200 1.327 . S
C198 H223 0.950 . S
C199 C198 1.349 . S
C199 C215 1.349 . S
C200 C198 1.327 . S
C200 C219 1.429 . S
C200 H224 0.950 . S
C201 C218 1.574 . S
C201 C220 1.368 . S
C201 H225 0.949 . S
H202 C206 0.949 . S
C203 C204 1.349 . S
C203 C205 1.327 . S
C203 H226 0.950 . S
C204 C203 1.349 . S
C204 C216 1.349 . S
C205 C203 1.327 . S
C205 C221 1.429 . S
C205 H227 0.950 . S
C206 H202 0.949 . S
C206 C214 1.574 . S
C206 C222 1.368 . S
H207 C215 0.950 . S
H208 C213 0.950 . S
H209 C214 0.949 . S
H210 C216 0.950 . S
H211 C217 0.950 . S
H212 C218 0.949 . S
C213 H208 0.950 . S
C213 C215 1.327 . S
C213 C219 1.429 . S
C214 C206 1.574 . S
C214 H209 0.949 . S
C214 C220 1.368 . S
C215 C199 1.349 . S
C215 H207 0.950 . S
C215 C213 1.327 . S
C216 C204 1.349 . S
C216 H210 0.950 . S
C216 C217 1.327 . S
C217 H211 0.950 . S
C217 C216 1.327 . S
C217 C221 1.429 . S
C218 C201 1.574 . S
C218 H212 0.949 . S
C218 C222 1.368 . S
C219 C200 1.429 . S
C219 C213 1.429 . S
C219 C220 1.523 . S
C220 C201 1.368 . S
C220 C214 1.368 . S
C220 C219 1.523 . S
C221 C205 1.429 . S
C221 C217 1.429 . S
C221 C222 1.523 . S
C222 C206 1.368 . S
C222 C218 1.368 . S
C222 C221 1.523 . S
H223 C198 0.950 . S
H224 C200 0.950 . S
H225 C201 0.949 . S
H226 C203 0.950 . S
H227 C205 0.950 . S
C228 C229 1.349 . S
C228 C230 1.327 . S
C228 H253 0.950 . S
C229 C228 1.349 . S
C229 C245 1.349 . S
C230 C228 1.327 . S
C230 C249 1.429 . S
C230 H254 0.950 . S
C231 C248 1.574 . S
C231 C250 1.368 . S
C231 H255 0.949 . S
H232 C236 0.949 . S
C233 C234 1.349 . S
C233 C235 1.327 . S
C233 H256 0.950 . S
C234 C233 1.349 . S
C234 C246 1.349 . S
C235 C233 1.327 . S
C235 C251 1.429 . S
C235 H257 0.950 . S
C236 H232 0.949 . S
C236 C244 1.574 . S
C236 C252 1.368 . S
H237 C245 0.950 . S
H238 C243 0.950 . S
H239 C244 0.949 . S
H240 C246 0.925 1_554 S
H241 C247 0.950 . S
H242 C248 0.949 . S
C243 H238 0.950 . S
C243 C245 1.327 . S
C243 C249 1.429 . S
C244 C236 1.574 . S
C244 H239 0.949 . S
C244 C250 1.368 . S
C245 C229 1.349 . S
C245 H237 0.950 . S
C245 C243 1.327 . S
C246 C234 1.349 . S
C246 H240 0.925 1_556 S
C246 C247 1.327 . S
C247 H241 0.950 . S
C247 C246 1.327 . S
C247 C251 1.429 . S
C248 C231 1.574 . S
C248 H242 0.949 . S
C248 C252 1.368 . S
C249 C230 1.429 . S
C249 C243 1.429 . S
C249 C250 1.523 . S
C250 C231 1.368 . S
C250 C244 1.368 . S
C250 C249 1.523 . S
C251 C235 1.429 . S
C251 C247 1.429 . S
C251 C252 1.523 . S
C252 C236 1.368 . S
C252 C248 1.368 . S
C252 C251 1.523 . S
H253 C228 0.950 . S
H254 C230 0.950 . S
H255 C231 0.949 . S
H256 C233 0.950 . S
H257 C235 0.950 . S
C258 C259 1.349 . S
C258 C260 1.327 . S
C258 H283 0.950 . S
C259 C258 1.349 . S
C259 C275 1.349 . S
C260 C258 1.327 . S
C260 C279 1.429 . S
C260 H284 0.950 . S
C261 C278 1.574 . S
C261 C280 1.368 . S
C261 H285 0.949 . S
H262 C266 0.949 . S
C263 C264 1.349 . S
C263 C265 1.327 . S
C263 H286 0.950 . S
C264 C263 1.349 . S
C264 C276 1.349 . S
C265 C263 1.327 . S
C265 C281 1.429 . S
C265 H287 0.950 . S
C266 H262 0.949 . S
C266 C274 1.574 . S
C266 C282 1.368 . S
H267 C275 0.950 . S
H268 C273 0.950 . S
H269 C274 0.949 . S
H270 C276 0.950 . S
H271 C277 0.950 . S
H272 C278 0.949 . S
C273 H268 0.950 . S
C273 C275 1.327 . S
C273 C279 1.429 . S
C274 C266 1.574 . S
C274 H269 0.949 . S
C274 C280 1.368 . S
C275 C259 1.349 . S
C275 H267 0.950 . S
C275 C273 1.327 . S
C276 C264 1.349 . S
C276 H270 0.950 . S
C276 C277 1.327 . S
C277 H271 0.950 . S
C277 C276 1.327 . S
C277 C281 1.429 . S
C278 C261 1.574 . S
C278 H272 0.949 . S
C278 C282 1.368 . S
C279 C260 1.429 . S
C279 C273 1.429 . S
C279 C280 1.523 . S
C280 C261 1.368 . S
C280 C274 1.368 . S
C280 C279 1.523 . S
C281 C265 1.429 . S
C281 C277 1.429 . S
C281 C282 1.523 . S
C282 C266 1.368 . S
C282 C278 1.368 . S
C282 C281 1.523 . S
H283 C258 0.950 . S
H284 C260 0.950 . S
H285 C261 0.949 . S
H286 C263 0.950 . S
H287 C265 0.950 . S
C288 C289 1.349 . S
C288 C290 1.327 . S
C288 H313 0.950 . S
C289 C288 1.349 . S
C289 C305 1.349 . S
C290 C288 1.327 . S
C290 C309 1.429 . S
C290 H314 0.950 . S
C291 C308 1.574 . S
C291 C310 1.368 . S
C291 H315 0.949 . S
H292 C296 0.949 . S
C293 C294 1.349 . S
C293 C295 1.327 . S
C293 H316 0.950 . S
C294 C293 1.349 . S
C294 C306 1.349 . S
C295 C293 1.327 . S
C295 C311 1.429 . S
C295 H317 0.950 . S
C296 H292 0.949 . S
C296 C304 1.574 . S
C296 C312 1.368 . S
H297 C305 0.950 . S
H298 C303 0.950 . S
H299 C304 0.949 . S
H300 C306 0.950 . S
H301 C307 0.950 . S
H302 C308 0.949 . S
C303 H298 0.950 . S
C303 C305 1.327 . S
C303 C309 1.429 . S
C304 C296 1.574 . S
C304 H299 0.949 . S
C304 C310 1.368 . S
C305 C289 1.349 . S
C305 H297 0.950 . S
C305 C303 1.327 . S
C306 C294 1.349 . S
C306 H300 0.950 . S
C306 C307 1.327 . S
C307 H301 0.950 . S
C307 C306 1.327 . S
C307 C311 1.429 . S
C308 C291 1.574 . S
C308 H302 0.949 . S
C308 C312 1.368 . S
C309 C290 1.429 . S
C309 C303 1.429 . S
C309 C310 1.523 . S
C310 C291 1.368 . S
C310 C304 1.368 . S
C310 C309 1.523 . S
C311 C295 1.429 . S
C311 C307 1.429 . S
C311 C312 1.523 . S
C312 C296 1.368 . S
C312 C308 1.368 . S
C312 C311 1.523 . S
H313 C288 0.950 . S
H314 C290 0.950 . S
H315 C291 0.949 . S
H316 C293 0.950 . S
H317 C295 0.950 . S
C318 C319 1.349 . S
C318 C320 1.327 . S
C318 H343 0.950 . S
C319 C318 1.349 . S
C319 C335 1.349 . S
C320 C318 1.327 . S
C320 C339 1.429 . S
C320 H344 0.950 . S
C321 C338 1.574 . S
C321 C340 1.368 . S
C321 H345 0.949 . S
H322 C326 0.949 . S
C323 C324 1.349 . S
C323 C325 1.327 . S
C323 H346 0.950 . S
C324 C323 1.349 . S
C324 C336 1.349 . S
C325 C323 1.327 . S
C325 C341 1.429 . S
C325 H347 0.950 . S
C326 H322 0.949 . S
C326 C334 1.574 . S
C326 C342 1.368 . S
H327 C335 0.950 . S
H328 C333 0.950 . S
H329 C334 0.949 . S
H330 C336 0.950 . S
H331 C337 0.950 . S
H332 C338 0.949 . S
C333 H328 0.950 . S
C333 C335 1.327 . S
C333 C339 1.429 . S
C334 C326 1.574 . S
C334 H329 0.949 . S
C334 C340 1.368 . S
C335 C319 1.349 . S
C335 H327 0.950 . S
C335 C333 1.327 . S
C336 C324 1.349 . S
C336 H330 0.950 . S
C336 C337 1.327 . S
C337 H331 0.950 . S
C337 C336 1.327 . S
C337 C341 1.429 . S
C338 C321 1.574 . S
C338 H332 0.949 . S
C338 C342 1.368 . S
C339 C320 1.429 . S
C339 C333 1.429 . S
C339 C340 1.523 . S
C340 C321 1.368 . S
C340 C334 1.368 . S
C340 C339 1.523 . S
C341 C325 1.429 . S
C341 C337 1.429 . S
C341 C342 1.523 . S
C342 C326 1.368 . S
C342 C338 1.368 . S
C342 C341 1.523 . S
H343 C318 0.950 . S
H344 C320 0.950 . S
H345 C321 0.949 . S
H346 C323 0.950 . S
H347 C325 0.950 . S
C348 C349 1.349 . S
C348 C350 1.327 . S
C348 H373 0.950 . S
C349 C348 1.349 . S
C349 C365 1.349 . S
C350 C348 1.327 . S
C350 C369 1.429 . S
C350 H374 0.950 . S
C351 C368 1.574 . S
C351 C370 1.368 . S
C351 H375 0.949 . S
H352 C356 0.949 . S
C353 C354 1.349 . S
C353 C355 1.327 . S
C353 H376 0.950 . S
C354 C353 1.349 . S
C354 C366 1.349 . S
C355 C353 1.327 . S
C355 C371 1.429 . S
C355 H377 0.950 . S
C356 H352 0.949 . S
C356 C364 1.574 . S
C356 C372 1.368 . S
H357 C365 0.950 . S
H358 C363 0.950 . S
H359 C364 0.949 . S
H360 C366 0.950 . S
H361 C367 0.950 . S
H362 C368 0.949 . S
C363 H358 0.950 . S
C363 C365 1.327 . S
C363 C369 1.429 . S
C364 C356 1.574 . S
C364 H359 0.949 . S
C364 C370 1.368 . S
C365 C349 1.349 . S
C365 H357 0.950 . S
C365 C363 1.327 . S
C366 C354 1.349 . S
C366 H360 0.950 . S
C366 C367 1.327 . S
C367 H361 0.950 . S
C367 C366 1.327 . S
C367 C371 1.429 . S
C368 C351 1.574 . S
C368 H362 0.949 . S
C368 C372 1.368 . S
C369 C350 1.429 . S
C369 C363 1.429 . S
C369 C370 1.523 . S
C370 C351 1.368 . S
C370 C364 1.368 . S
C370 C369 1.523 . S
C371 C355 1.429 . S
C371 C367 1.429 . S
C371 C372 1.523 . S
C372 C356 1.368 . S
C372 C368 1.368 . S
C372 C371 1.523 . S
H373 C348 0.950 . S
H374 C350 0.950 . S
H375 C351 0.949 . S
H376 C353 0.950 . S
H377 C355 0.950 . S
C378 C379 1.349 . S
C378 C380 1.327 . S
C378 H403 0.950 . S
C379 C378 1.349 . S
C379 C395 1.349 . S
C380 C378 1.327 . S
C380 C399 1.429 . S
C380 H404 0.950 . S
C381 C398 1.574 1_655 S
C381 C400 1.368 . S
C381 H405 0.949 . S
H382 C386 0.949 . S
C383 C384 1.349 . S
C383 C385 1.327 . S
C383 H406 0.950 . S
C384 C383 1.349 . S
C384 C396 1.349 . S
C385 C383 1.327 . S
C385 C401 1.429 . S
C385 H407 0.950 . S
C386 H382 0.949 . S
C386 C394 1.574 1_455 S
C386 C402 1.368 . S
H387 C395 0.950 . S
H388 C393 0.950 . S
H389 C394 0.949 . S
H390 C396 0.950 . S
H391 C397 0.950 . S
H392 C398 0.949 . S
C393 H388 0.950 . S
C393 C395 1.327 . S
C393 C399 1.429 . S
C394 C386 1.574 1_655 S
C394 H389 0.949 . S
C394 C400 1.368 . S
C395 C379 1.349 . S
C395 H387 0.950 . S
C395 C393 1.327 . S
C396 C384 1.349 . S
C396 H390 0.950 . S
C396 C397 1.327 . S
C397 H391 0.950 . S
C397 C396 1.327 . S
C397 C401 1.429 . S
C398 C381 1.574 1_455 S
C398 H392 0.949 . S
C398 C402 1.368 . S
C399 C380 1.429 . S
C399 C393 1.429 . S
C399 C400 1.523 . S
C400 C381 1.368 . S
C400 C394 1.368 . S
C400 C399 1.523 . S
C401 C385 1.429 . S
C401 C397 1.429 . S
C401 C402 1.523 . S
C402 C386 1.368 . S
C402 C398 1.368 . S
C402 C401 1.523 . S
H403 C378 0.950 . S
H404 C380 0.950 . S
H405 C381 0.949 . S
H406 C383 0.950 . S
H407 C385 0.950 . S
C408 C409 1.349 . S
C408 C410 1.327 . S
C408 H433 0.950 . S
C409 C408 1.349 . S
C409 C425 1.349 . S
C410 C408 1.327 . S
C410 C429 1.429 . S
C410 H434 0.950 . S
C411 C428 1.574 . S
C411 C430 1.368 . S
C411 H435 0.949 . S
H412 C416 0.949 . S
C413 C414 1.349 . S
C413 C415 1.327 . S
C413 H436 0.950 . S
C414 C413 1.349 . S
C414 C426 1.349 . S
C415 C413 1.327 . S
C415 C431 1.429 . S
C415 H437 0.950 . S
C416 H412 0.949 . S
C416 C424 1.574 . S
C416 C432 1.368 . S
H417 C425 0.950 . S
H418 C423 0.950 . S
H419 C424 0.949 . S
H420 C426 0.950 . S
H421 C427 0.950 . S
H422 C428 0.949 . S
C423 H418 0.950 . S
C423 C425 1.327 . S
C423 C429 1.429 . S
C424 C416 1.574 . S
C424 H419 0.949 . S
C424 C430 1.368 . S
C425 C409 1.349 . S
C425 H417 0.950 . S
C425 C423 1.327 . S
C426 C414 1.349 . S
C426 H420 0.950 . S
C426 C427 1.327 . S
C427 H421 0.950 . S
C427 C426 1.327 . S
C427 C431 1.429 . S
C428 C411 1.574 . S
C428 H422 0.949 . S
C428 C432 1.368 . S
C429 C410 1.429 . S
C429 C423 1.429 . S
C429 C430 1.523 . S
C430 C411 1.368 . S
C430 C424 1.368 . S
C430 C429 1.523 . S
C431 C415 1.429 . S
C431 C427 1.429 . S
C431 C432 1.523 . S
C432 C416 1.368 . S
C432 C428 1.368 . S
C432 C431 1.523 . S
H433 C408 0.950 . S
H434 C410 0.950 . S
H435 C411 0.949 . S
H436 C413 0.950 . S
H437 C415 0.950 . S
C438 C439 1.349 . S
C438 C440 1.327 . S
C438 H463 0.950 . S
C439 C438 1.349 . S
C439 C455 1.349 . S
C440 C438 1.327 . S
C440 C459 1.429 . S
C440 H464 0.950 . S
C441 C458 1.574 . S
C441 C460 1.368 1_565 S
C441 H465 0.949 . S
H442 C446 0.949 . S
C443 C444 1.349 . S
C443 C445 1.327 . S
C443 H466 0.950 . S
C444 C443 1.349 . S
C444 C456 1.349 . S
C445 C443 1.327 . S
C445 C461 1.429 . S
C445 H467 0.950 . S
C446 H442 0.949 . S
C446 C454 1.574 . S
C446 C462 1.368 1_545 S
H447 C455 0.950 . S
H448 C453 0.950 . S
H449 C454 0.949 . S
H450 C456 0.950 . S
H451 C457 0.950 . S
H452 C458 0.949 . S
C453 H448 0.950 . S
C453 C455 1.327 . S
C453 C459 1.429 . S
C454 C446 1.574 . S
C454 H449 0.949 . S
C454 C460 1.368 . S
C455 C439 1.349 . S
C455 H447 0.950 . S
C455 C453 1.327 . S
C456 C444 1.349 . S
C456 H450 0.950 . S
C456 C457 1.327 . S
C457 H451 0.950 . S
C457 C456 1.327 . S
C457 C461 1.429 . S
C458 C441 1.574 . S
C458 H452 0.949 . S
C458 C462 1.368 . S
C459 C440 1.429 . S
C459 C453 1.429 . S
C459 C460 1.523 . S
C460 C441 1.368 1_545 S
C460 C454 1.368 . S
C460 C459 1.523 . S
C461 C445 1.429 . S
C461 C457 1.429 . S
C461 C462 1.523 . S
C462 C446 1.368 1_565 S
C462 C458 1.368 . S
C462 C461 1.523 . S
H463 C438 0.950 . S
H464 C440 0.950 . S
H465 C441 0.949 . S
H466 C443 0.950 . S
H467 C445 0.950 . S
C468 C469 1.349 . S
C468 C470 1.327 1_556 S
C468 H493 0.950 1_556 S
C469 C468 1.349 . S
C469 C485 1.349 . S
C470 C468 1.327 1_554 S
C470 C489 1.429 1_554 S
C470 H494 0.950 . S
C471 C488 1.574 . S
C471 C490 1.368 . S
C471 H495 0.949 . S
H472 C476 0.949 . S
C473 C474 1.349 . S
C473 C475 1.327 1_554 S
C473 H496 0.950 1_554 S
C474 C473 1.349 . S
C474 C486 1.349 . S
C475 C473 1.327 1_556 S
C475 C491 1.429 1_556 S
C475 H497 0.950 . S
C476 H472 0.949 . S
C476 C484 1.574 . S
C476 C492 1.368 . S
H477 C485 0.950 . S
H478 C483 0.950 . S
H479 C484 0.949 . S
H480 C486 0.950 . S
H481 C487 0.950 . S
H482 C488 0.949 . S
C483 H478 0.950 . S
C483 C485 1.327 . S
C483 C489 1.429 . S
C484 C476 1.574 . S
C484 H479 0.949 . S
C484 C490 1.368 1_554 S
C485 C469 1.349 . S
C485 H477 0.950 . S
C485 C483 1.327 . S
C486 C474 1.349 . S
C486 H480 0.950 . S
C486 C487 1.327 . S
C487 H481 0.950 . S
C487 C486 1.327 . S
C487 C491 1.429 . S
C488 C471 1.574 . S
C488 H482 0.949 . S
C488 C492 1.368 1_556 S
C489 C470 1.429 1_556 S
C489 C483 1.429 . S
C489 C490 1.523 . S
C490 C471 1.368 . S
C490 C484 1.368 1_556 S
C490 C489 1.523 . S
C491 C475 1.429 1_554 S
C491 C487 1.429 . S
C491 C492 1.523 . S
C492 C476 1.368 . S
C492 C488 1.368 1_554 S
C492 C491 1.523 . S
H493 C468 0.950 1_554 S
H494 C470 0.950 . S
H495 C471 0.949 . S
H496 C473 0.950 1_556 S
H497 C475 0.950 . S
C498 C499 1.349 . S
C498 C500 1.327 . S
C498 H523 0.950 . S
C499 C498 1.349 . S
C499 C515 1.349 . S
C500 C498 1.327 . S
C500 C519 1.429 . S
C500 H524 0.950 . S
C501 C518 1.574 1_545 S
C501 C520 1.368 . S
C501 H525 0.949 . S
H502 C506 0.949 . S
C503 C504 1.349 . S
C503 C505 1.327 . S
C503 H526 0.950 . S
C504 C503 1.349 . S
C504 C516 1.349 . S
C505 C503 1.327 . S
C505 C521 1.429 . S
C505 H527 0.950 . S
C506 H502 0.949 . S
C506 C514 1.574 1_565 S
C506 C522 1.368 . S
H507 C515 0.950 . S
H508 C513 0.950 . S
H509 C514 0.949 . S
H510 C516 0.950 . S
H511 C517 0.950 . S
H512 C518 0.949 . S
C513 H508 0.950 . S
C513 C515 1.327 . S
C513 C519 1.429 . S
C514 C506 1.574 1_545 S
C514 H509 0.949 . S
C514 C520 1.368 . S
C515 C499 1.349 . S
C515 H507 0.950 . S
C515 C513 1.327 . S
C516 C504 1.349 . S
C516 H510 0.950 . S
C516 C517 1.327 . S
C517 H511 0.950 . S
C517 C516 1.327 . S
C517 C521 1.429 . S
C518 C501 1.574 1_565 S
C518 H512 0.949 . S
C518 C522 1.368 . S
C519 C500 1.429 . S
C519 C513 1.429 . S
C519 C520 1.523 . S
C520 C501 1.368 . S
C520 C514 1.368 . S
C520 C519 1.523 . S
C521 C505 1.429 . S
C521 C517 1.429 . S
C521 C522 1.523 . S
C522 C506 1.368 . S
C522 C518 1.368 . S
C522 C521 1.523 . S
H523 C498 0.950 . S
H524 C500 0.950 . S
H525 C501 0.949 . S
H526 C503 0.950 . S
H527 C505 0.950 . S
C528 C529 1.349 . S
C528 C530 1.327 . S
C528 H553 0.950 . S
C529 C528 1.349 . S
C529 C545 1.349 . S
C530 C528 1.327 . S
C530 C549 1.429 . S
C530 H554 0.950 . S
C531 C548 1.574 1_455 S
C531 C550 1.368 . S
C531 H555 0.949 . S
H532 C536 0.949 . S
C533 C534 1.349 . S
C533 C535 1.327 . S
C533 H556 0.950 . S
C534 C533 1.349 . S
C534 C546 1.349 . S
C535 C533 1.327 . S
C535 C551 1.429 . S
C535 H557 0.950 . S
C536 H532 0.949 . S
C536 C544 1.574 1_655 S
C536 C552 1.368 . S
H537 C545 0.950 . S
H538 C543 0.950 . S
H539 C544 0.949 . S
H540 C546 0.950 . S
H541 C547 0.950 . S
H542 C548 0.949 . S
C543 H538 0.950 . S
C543 C545 1.327 . S
C543 C549 1.429 . S
C544 C536 1.574 1_455 S
C544 H539 0.949 . S
C544 C550 1.368 . S
C545 C529 1.349 . S
C545 H537 0.950 . S
C545 C543 1.327 . S
C546 C534 1.349 . S
C546 H540 0.950 . S
C546 C547 1.327 . S
C547 H541 0.950 . S
C547 C546 1.327 . S
C547 C551 1.429 . S
C548 C531 1.574 1_655 S
C548 H542 0.949 . S
C548 C552 1.368 . S
C549 C530 1.429 . S
C549 C543 1.429 . S
C549 C550 1.523 . S
C550 C531 1.368 . S
C550 C544 1.368 . S
C550 C549 1.523 . S
C551 C535 1.429 . S
C551 C547 1.429 . S
C551 C552 1.523 . S
C552 C536 1.368 . S
C552 C548 1.368 . S
C552 C551 1.523 . S
H553 C528 0.950 . S
H554 C530 0.950 . S
H555 C531 0.949 . S
H556 C533 0.950 . S
H557 C535 0.950 . S
C558 C559 1.349 . S
C558 C560 1.327 . S
C558 H583 0.950 . S
C559 C558 1.349 . S
C559 C575 1.349 . S
C560 C558 1.327 . S
C560 C579 1.429 . S
C560 H584 0.950 . S
C561 C578 1.574 . S
C561 C580 1.368 1_455 S
C561 H585 0.949 . S
H562 C566 0.949 . S
C563 C564 1.349 . S
C563 C565 1.327 . S
C563 H586 0.950 . S
C564 C563 1.349 . S
C564 C576 1.349 . S
C565 C563 1.327 . S
C565 C581 1.429 . S
C565 H587 0.950 . S
C566 H562 0.949 . S
C566 C574 1.574 . S
C566 C582 1.368 1_655 S
H567 C575 0.950 . S
H568 C573 0.950 . S
H569 C574 0.949 . S
H570 C576 0.950 . S
H571 C577 0.950 . S
H572 C578 0.949 . S
C573 H568 0.950 . S
C573 C575 1.327 . S
C573 C579 1.429 . S
C574 C566 1.574 . S
C574 H569 0.949 . S
C574 C580 1.368 . S
C575 C559 1.349 . S
C575 H567 0.950 . S
C575 C573 1.327 . S
C576 C564 1.349 . S
C576 H570 0.950 . S
C576 C577 1.327 . S
C577 H571 0.950 . S
C577 C576 1.327 . S
C577 C581 1.429 . S
C578 C561 1.574 . S
C578 H572 0.949 . S
C578 C582 1.368 . S
C579 C560 1.429 . S
C579 C573 1.429 . S
C579 C580 1.523 . S
C580 C561 1.368 1_655 S
C580 C574 1.368 . S
C580 C579 1.523 . S
C581 C565 1.429 . S
C581 C577 1.429 . S
C581 C582 1.523 . S
C582 C566 1.368 1_455 S
C582 C578 1.368 . S
C582 C581 1.523 . S
H583 C558 0.950 . S
H584 C560 0.950 . S
H585 C561 0.949 . S
H586 C563 0.950 . S
H587 C565 0.950 . S
C588 C589 1.349 . S
C588 C590 1.327 . S
C588 H613 0.950 . S
C589 C588 1.349 . S
C589 C605 1.349 . S
C590 C588 1.327 . S
C590 C609 1.429 . S
C590 H614 0.950 . S
C591 C608 1.574 1_556 S
C591 C610 1.368 . S
C591 H615 0.949 . S
H592 C596 0.949 . S
C593 C594 1.349 . S
C593 C595 1.327 . S
C593 H616 0.950 . S
C594 C593 1.349 . S
C594 C606 1.349 . S
C595 C593 1.327 . S
C595 C611 1.429 . S
C595 H617 0.950 . S
C596 H592 0.949 . S
C596 C604 1.574 1_554 S
C596 C612 1.368 . S
H597 C605 0.950 . S
H598 C603 0.950 . S
H599 C604 0.949 . S
H600 C606 0.950 . S
H601 C607 0.950 . S
H602 C608 0.949 . S
C603 H598 0.950 . S
C603 C605 1.327 . S
C603 C609 1.429 . S
C604 C596 1.574 1_556 S
C604 H599 0.949 . S
C604 C610 1.368 . S
C605 C589 1.349 . S
C605 H597 0.950 . S
C605 C603 1.327 . S
C606 C594 1.349 . S
C606 H600 0.950 . S
C606 C607 1.327 . S
C607 H601 0.950 . S
C607 C606 1.327 . S
C607 C611 1.429 . S
C608 C591 1.574 1_554 S
C608 H602 0.949 . S
C608 C612 1.368 . S
C609 C590 1.429 . S
C609 C603 1.429 . S
C609 C610 1.523 . S
C610 C591 1.368 . S
C610 C604 1.368 . S
C610 C609 1.523 . S
C611 C595 1.429 . S
C611 C607 1.429 . S
C611 C612 1.523 . S
C612 C596 1.368 . S
C612 C608 1.368 . S
C612 C611 1.523 . S
H613 C588 0.950 . S
H614 C590 0.950 . S
H615 C591 0.949 . S
H616 C593 0.950 . S
H617 C595 0.950 . S
C618 C619 1.349 . S
C618 C620 1.327 . S
C618 H643 0.950 . S
C619 C618 1.349 . S
C619 C635 1.349 . S
C620 C618 1.327 . S
C620 C639 1.429 . S
C620 H644 0.950 . S
C621 C638 1.574 . S
C621 C640 1.368 . S
C621 H645 0.949 . S
H622 C626 0.949 . S
C623 C624 1.349 . S
C623 C625 1.327 . S
C623 H646 0.950 . S
C624 C623 1.349 . S
C624 C636 1.349 . S
C625 C623 1.327 . S
C625 C641 1.429 . S
C625 H647 0.950 . S
C626 H622 0.949 . S
C626 C634 1.574 . S
C626 C642 1.368 . S
H627 C635 0.950 . S
H628 C633 0.950 . S
H629 C634 0.949 . S
H630 C636 0.950 . S
H631 C637 0.950 . S
H632 C638 0.949 . S
C633 H628 0.950 . S
C633 C635 1.327 . S
C633 C639 1.429 . S
C634 C626 1.574 . S
C634 H629 0.949 . S
C634 C640 1.368 1_565 S
C635 C619 1.349 . S
C635 H627 0.950 . S
C635 C633 1.327 . S
C636 C624 1.349 . S
C636 H630 0.950 . S
C636 C637 1.327 . S
C637 H631 0.950 . S
C637 C636 1.327 . S
C637 C641 1.429 . S
C638 C621 1.574 . S
C638 H632 0.949 . S
C638 C642 1.368 1_545 S
C639 C620 1.429 . S
C639 C633 1.429 . S
C639 C640 1.523 . S
C640 C621 1.368 . S
C640 C634 1.368 1_545 S
C640 C639 1.523 . S
C641 C625 1.429 . S
C641 C637 1.429 . S
C641 C642 1.523 . S
C642 C626 1.368 . S
C642 C638 1.368 1_565 S
C642 C641 1.523 . S
H643 C618 0.950 . S
H644 C620 0.950 . S
H645 C621 0.949 . S
H646 C623 0.950 . S
H647 C625 0.950 . S
C199 N80 1.031 . S
C204 C28 1.068 . S
C229 C61 1.069 . S
C234 N14 1.032 . S
C259 C94 1.069 . S
C264 N47 1.032 . S
C289 C127 1.068 . S
C294 N146 1.031 . S
C319 N179 1.032 . S
C324 C160 1.069 . S
C349 N113 1.032 . S
C354 C193 1.069 . S
C379 C149 0.502 . S
C384 C17 0.502 . S
C409 C182 0.501 . S
C414 C50 0.501 . S
C439 C116 0.502 . S
C444 C83 0.502 . S
C469 C107 1.792 . S
C474 C8 1.792 . S
C499 C140 1.792 . S
C504 C41 1.792 . S
C529 C74 1.792 . S
C534 C173 1.792 . S
C559 N137 2.152 . S
C564 N5 2.152 . S
C589 N38 2.152 . S
C594 N170 2.152 . S
C619 N104 2.152 . S
C624 N71 2.152 . S
