# Generated by pormake.
# Topology wir, (6)-cn, num edge types: 1
# Building blocks:
#     Node 0, Type 0, BuildingBlock: KUMJIN_clean_sbu_1, # of connection points: 6
#     Node 1, Type 0, BuildingBlock: KUMJIN_clean_sbu_1, # of connection points: 6
#     Node 2, Type 0, BuildingBlock: KUMJIN_clean_sbu_1, # of connection points: 6
#     Node 3, Type 0, BuildingBlock: KUMJIN_clean_sbu_1, # of connection points: 6
#     Node 4, Type 0, BuildingBlock: KUMJIN_clean_sbu_1, # of connection points: 6
#     Node 5, Type 0, BuildingBlock: KUMJIN_clean_sbu_1, # of connection points: 6
#     Node 6, Type 0, BuildingBlock: KUMJIN_clean_sbu_1, # of connection points: 6
#     Node 7, Type 0, BuildingBlock: KUMJIN_clean_sbu_1, # of connection points: 6
#     Node 8, Type 0, BuildingBlock: KUMJIN_clean_sbu_1, # of connection points: 6
#     Node 9, Type 0, BuildingBlock: KUMJIN_clean_sbu_1, # of connection points: 6
#     Node 10, Type 0, BuildingBlock: KUMJIN_clean_sbu_1, # of connection points: 6
#     Node 11, Type 0, BuildingBlock: KUMJIN_clean_sbu_1, # of connection points: 6
#     Node 12, Type 0, BuildingBlock: KUMJIN_clean_sbu_1, # of connection points: 6
#     Node 13, Type 0, BuildingBlock: KUMJIN_clean_sbu_1, # of connection points: 6
#     Node 14, Type 0, BuildingBlock: KUMJIN_clean_sbu_1, # of connection points: 6
#     Node 15, Type 0, BuildingBlock: KUMJIN_clean_sbu_1, # of connection points: 6
#     Node 16, Type 0, BuildingBlock: KUMJIN_clean_sbu_1, # of connection points: 6
#     Node 17, Type 0, BuildingBlock: KUMJIN_clean_sbu_1, # of connection points: 6
#     Node 18, Type 0, BuildingBlock: KUMJIN_clean_sbu_1, # of connection points: 6
#     Node 19, Type 0, BuildingBlock: KUMJIN_clean_sbu_1, # of connection points: 6
#     Node 20, Type 0, BuildingBlock: KUMJIN_clean_sbu_1, # of connection points: 6
#     Node 21, Type 0, BuildingBlock: KUMJIN_clean_sbu_1, # of connection points: 6
#     Node 22, Type 0, BuildingBlock: KUMJIN_clean_sbu_1, # of connection points: 6
#     Node 23, Type 0, BuildingBlock: KUMJIN_clean_sbu_1, # of connection points: 6
#     Node 24, Type 0, BuildingBlock: KUMJIN_clean_sbu_1, # of connection points: 6
#     Node 25, Type 0, BuildingBlock: KUMJIN_clean_sbu_1, # of connection points: 6
#     Node 26, Type 0, BuildingBlock: KUMJIN_clean_sbu_1, # of connection points: 6
#     Node 27, Type 0, BuildingBlock: KUMJIN_clean_sbu_1, # of connection points: 6
#     Node 28, Type 0, BuildingBlock: KUMJIN_clean_sbu_1, # of connection points: 6
#     Node 29, Type 0, BuildingBlock: KUMJIN_clean_sbu_1, # of connection points: 6
#     Node 30, Type 0, BuildingBlock: KUMJIN_clean_sbu_1, # of connection points: 6
#     Node 31, Type 0, BuildingBlock: KUMJIN_clean_sbu_1, # of connection points: 6
#     Edge 32, Type (0, 0), BuildingBlock: UVAHIK_clean_linker_0, # of connection points: 2
#     Edge 33, Type (0, 0), BuildingBlock: UVAHIK_clean_linker_0, # of connection points: 2
#     Edge 34, Type (0, 0), BuildingBlock: UVAHIK_clean_linker_0, # of connection points: 2
#     Edge 35, Type (0, 0), BuildingBlock: UVAHIK_clean_linker_0, # of connection points: 2
#     Edge 36, Type (0, 0), BuildingBlock: UVAHIK_clean_linker_0, # of connection points: 2
#     Edge 37, Type (0, 0), BuildingBlock: UVAHIK_clean_linker_0, # of connection points: 2
#     Edge 38, Type (0, 0), BuildingBlock: UVAHIK_clean_linker_0, # of connection points: 2
#     Edge 39, Type (0, 0), BuildingBlock: UVAHIK_clean_linker_0, # of connection points: 2
#     Edge 40, Type (0, 0), BuildingBlock: UVAHIK_clean_linker_0, # of connection points: 2
#     Edge 41, Type (0, 0), BuildingBlock: UVAHIK_clean_linker_0, # of connection points: 2
#     Edge 42, Type (0, 0), BuildingBlock: UVAHIK_clean_linker_0, # of connection points: 2
#     Edge 43, Type (0, 0), BuildingBlock: UVAHIK_clean_linker_0, # of connection points: 2
#     Edge 44, Type (0, 0), BuildingBlock: UVAHIK_clean_linker_0, # of connection points: 2
#     Edge 45, Type (0, 0), BuildingBlock: UVAHIK_clean_linker_0, # of connection points: 2
#     Edge 46, Type (0, 0), BuildingBlock: UVAHIK_clean_linker_0, # of connection points: 2
#     Edge 47, Type (0, 0), BuildingBlock: UVAHIK_clean_linker_0, # of connection points: 2
#     Edge 48, Type (0, 0), BuildingBlock: UVAHIK_clean_linker_0, # of connection points: 2
#     Edge 49, Type (0, 0), BuildingBlock: UVAHIK_clean_linker_0, # of connection points: 2
#     Edge 50, Type (0, 0), BuildingBlock: UVAHIK_clean_linker_0, # of connection points: 2
#     Edge 51, Type (0, 0), BuildingBlock: UVAHIK_clean_linker_0, # of connection points: 2
#     Edge 52, Type (0, 0), BuildingBlock: UVAHIK_clean_linker_0, # of connection points: 2
#     Edge 53, Type (0, 0), BuildingBlock: UVAHIK_clean_linker_0, # of connection points: 2
#     Edge 54, Type (0, 0), BuildingBlock: UVAHIK_clean_linker_0, # of connection points: 2
#     Edge 55, Type (0, 0), BuildingBlock: UVAHIK_clean_linker_0, # of connection points: 2
#     Edge 56, Type (0, 0), BuildingBlock: UVAHIK_clean_linker_0, # of connection points: 2
#     Edge 57, Type (0, 0), BuildingBlock: UVAHIK_clean_linker_0, # of connection points: 2
#     Edge 58, Type (0, 0), BuildingBlock: UVAHIK_clean_linker_0, # of connection points: 2
#     Edge 59, Type (0, 0), BuildingBlock: UVAHIK_clean_linker_0, # of connection points: 2
#     Edge 60, Type (0, 0), BuildingBlock: UVAHIK_clean_linker_0, # of connection points: 2
#     Edge 61, Type (0, 0), BuildingBlock: UVAHIK_clean_linker_0, # of connection points: 2
#     Edge 62, Type (0, 0), BuildingBlock: UVAHIK_clean_linker_0, # of connection points: 2
#     Edge 63, Type (0, 0), BuildingBlock: UVAHIK_clean_linker_0, # of connection points: 2
#     Edge 64, Type (0, 0), BuildingBlock: UVAHIK_clean_linker_0, # of connection points: 2
#     Edge 65, Type (0, 0), BuildingBlock: UVAHIK_clean_linker_0, # of connection points: 2
#     Edge 66, Type (0, 0), BuildingBlock: UVAHIK_clean_linker_0, # of connection points: 2
#     Edge 67, Type (0, 0), BuildingBlock: UVAHIK_clean_linker_0, # of connection points: 2
#     Edge 68, Type (0, 0), BuildingBlock: UVAHIK_clean_linker_0, # of connection points: 2
#     Edge 69, Type (0, 0), BuildingBlock: UVAHIK_clean_linker_0, # of connection points: 2
#     Edge 70, Type (0, 0), BuildingBlock: UVAHIK_clean_linker_0, # of connection points: 2
#     Edge 71, Type (0, 0), BuildingBlock: UVAHIK_clean_linker_0, # of connection points: 2
#     Edge 72, Type (0, 0), BuildingBlock: UVAHIK_clean_linker_0, # of connection points: 2
#     Edge 73, Type (0, 0), BuildingBlock: UVAHIK_clean_linker_0, # of connection points: 2
#     Edge 74, Type (0, 0), BuildingBlock: UVAHIK_clean_linker_0, # of connection points: 2
#     Edge 75, Type (0, 0), BuildingBlock: UVAHIK_clean_linker_0, # of connection points: 2
#     Edge 76, Type (0, 0), BuildingBlock: UVAHIK_clean_linker_0, # of connection points: 2
#     Edge 77, Type (0, 0), BuildingBlock: UVAHIK_clean_linker_0, # of connection points: 2
#     Edge 78, Type (0, 0), BuildingBlock: UVAHIK_clean_linker_0, # of connection points: 2
#     Edge 79, Type (0, 0), BuildingBlock: UVAHIK_clean_linker_0, # of connection points: 2
#     Edge 80, Type (0, 0), BuildingBlock: UVAHIK_clean_linker_0, # of connection points: 2
#     Edge 81, Type (0, 0), BuildingBlock: UVAHIK_clean_linker_0, # of connection points: 2
#     Edge 82, Type (0, 0), BuildingBlock: UVAHIK_clean_linker_0, # of connection points: 2
#     Edge 83, Type (0, 0), BuildingBlock: UVAHIK_clean_linker_0, # of connection points: 2
#     Edge 84, Type (0, 0), BuildingBlock: UVAHIK_clean_linker_0, # of connection points: 2
#     Edge 85, Type (0, 0), BuildingBlock: UVAHIK_clean_linker_0, # of connection points: 2
#     Edge 86, Type (0, 0), BuildingBlock: UVAHIK_clean_linker_0, # of connection points: 2
#     Edge 87, Type (0, 0), BuildingBlock: UVAHIK_clean_linker_0, # of connection points: 2
#     Edge 88, Type (0, 0), BuildingBlock: UVAHIK_clean_linker_0, # of connection points: 2
#     Edge 89, Type (0, 0), BuildingBlock: UVAHIK_clean_linker_0, # of connection points: 2
#     Edge 90, Type (0, 0), BuildingBlock: UVAHIK_clean_linker_0, # of connection points: 2
#     Edge 91, Type (0, 0), BuildingBlock: UVAHIK_clean_linker_0, # of connection points: 2
#     Edge 92, Type (0, 0), BuildingBlock: UVAHIK_clean_linker_0, # of connection points: 2
#     Edge 93, Type (0, 0), BuildingBlock: UVAHIK_clean_linker_0, # of connection points: 2
#     Edge 94, Type (0, 0), BuildingBlock: UVAHIK_clean_linker_0, # of connection points: 2
#     Edge 95, Type (0, 0), BuildingBlock: UVAHIK_clean_linker_0, # of connection points: 2
#     Edge 96, Type (0, 0), BuildingBlock: UVAHIK_clean_linker_0, # of connection points: 2
#     Edge 97, Type (0, 0), BuildingBlock: UVAHIK_clean_linker_0, # of connection points: 2
#     Edge 98, Type (0, 0), BuildingBlock: UVAHIK_clean_linker_0, # of connection points: 2
#     Edge 99, Type (0, 0), BuildingBlock: UVAHIK_clean_linker_0, # of connection points: 2
#     Edge 100, Type (0, 0), BuildingBlock: UVAHIK_clean_linker_0, # of connection points: 2
#     Edge 101, Type (0, 0), BuildingBlock: UVAHIK_clean_linker_0, # of connection points: 2
#     Edge 102, Type (0, 0), BuildingBlock: UVAHIK_clean_linker_0, # of connection points: 2
#     Edge 103, Type (0, 0), BuildingBlock: UVAHIK_clean_linker_0, # of connection points: 2
#     Edge 104, Type (0, 0), BuildingBlock: UVAHIK_clean_linker_0, # of connection points: 2
#     Edge 105, Type (0, 0), BuildingBlock: UVAHIK_clean_linker_0, # of connection points: 2
#     Edge 106, Type (0, 0), BuildingBlock: UVAHIK_clean_linker_0, # of connection points: 2
#     Edge 107, Type (0, 0), BuildingBlock: UVAHIK_clean_linker_0, # of connection points: 2
#     Edge 108, Type (0, 0), BuildingBlock: UVAHIK_clean_linker_0, # of connection points: 2
#     Edge 109, Type (0, 0), BuildingBlock: UVAHIK_clean_linker_0, # of connection points: 2
#     Edge 110, Type (0, 0), BuildingBlock: UVAHIK_clean_linker_0, # of connection points: 2
#     Edge 111, Type (0, 0), BuildingBlock: UVAHIK_clean_linker_0, # of connection points: 2
#     Edge 112, Type (0, 0), BuildingBlock: UVAHIK_clean_linker_0, # of connection points: 2
#     Edge 113, Type (0, 0), BuildingBlock: UVAHIK_clean_linker_0, # of connection points: 2
#     Edge 114, Type (0, 0), BuildingBlock: UVAHIK_clean_linker_0, # of connection points: 2
#     Edge 115, Type (0, 0), BuildingBlock: UVAHIK_clean_linker_0, # of connection points: 2
#     Edge 116, Type (0, 0), BuildingBlock: UVAHIK_clean_linker_0, # of connection points: 2
#     Edge 117, Type (0, 0), BuildingBlock: UVAHIK_clean_linker_0, # of connection points: 2
#     Edge 118, Type (0, 0), BuildingBlock: UVAHIK_clean_linker_0, # of connection points: 2
#     Edge 119, Type (0, 0), BuildingBlock: UVAHIK_clean_linker_0, # of connection points: 2
#     Edge 120, Type (0, 0), BuildingBlock: UVAHIK_clean_linker_0, # of connection points: 2
#     Edge 121, Type (0, 0), BuildingBlock: UVAHIK_clean_linker_0, # of connection points: 2
#     Edge 122, Type (0, 0), BuildingBlock: UVAHIK_clean_linker_0, # of connection points: 2
#     Edge 123, Type (0, 0), BuildingBlock: UVAHIK_clean_linker_0, # of connection points: 2
#     Edge 124, Type (0, 0), BuildingBlock: UVAHIK_clean_linker_0, # of connection points: 2
#     Edge 125, Type (0, 0), BuildingBlock: UVAHIK_clean_linker_0, # of connection points: 2
#     Edge 126, Type (0, 0), BuildingBlock: UVAHIK_clean_linker_0, # of connection points: 2
#     Edge 127, Type (0, 0), BuildingBlock: UVAHIK_clean_linker_0, # of connection points: 2
# Relax obj value: 0.288
# Max RMSD: 0.188
# Mean RMSD: 0.188
data_MOF--net-wir--node1-KUMJIN_clean_sbu_1--edge1-UVAHIK_clean_linker_0
_symmetry_space_group_name_H-M    P1
_symmetry_Int_Tables_number       1
_symmetry_cell_setting            triclinic
loop_
_symmetry_equiv_pos_as_xyz
'x, y, z'
_cell_length_a     52.472568
_cell_length_b     52.641661
_cell_length_c     122.39057
_cell_angle_alpha  89.820719
_cell_angle_beta   89.929038
_cell_angle_gamma 89.991394
loop_
_atom_site_label
_atom_site_type_symbol
_atom_site_fract_x
_atom_site_fract_y
_atom_site_fract_z
_atom_type_partial_charge
Eu0 Eu 0.21932 0.17808 0.35597 0.0
C1 C 0.2901 0.27314 0.36167 0.0
N2 N 0.28646 0.24946 0.36591 0.0
C3 C 0.33142 0.24142 0.36505 0.0
C4 C 0.31475 0.2818 0.35893 0.0
C5 C 0.30665 0.23356 0.36758 0.0
C6 C 0.33552 0.26569 0.36077 0.0
C7 C 0.27195 0.31208 0.35438 0.0
C8 C 0.26888 0.28805 0.35935 0.0
C9 C 0.29652 0.32105 0.35195 0.0
C10 C 0.31785 0.30594 0.35421 0.0
Eu11 Eu 0.24417 0.23953 0.37116 0.0
N12 N 0.24525 0.2786 0.36151 0.0
C13 C 0.25021 0.32631 0.35187 0.0
C14 C 0.224 0.29248 0.35909 0.0
C15 C 0.22615 0.31645 0.35423 0.0
H16 H 0.30395 0.21474 0.37083 0.0
H17 H 0.20922 0.32741 0.3524 0.0
H18 H 0.18929 0.2048 0.33434 0.0
H19 H 0.2059 0.08378 0.37362 0.0
H20 H 0.20527 0.28569 0.36113 0.0
H21 H 0.25178 0.34488 0.34809 0.0
H22 H 0.22746 0.12485 0.37049 0.0
H23 H 0.34735 0.22874 0.3664 0.0
H24 H 0.29921 0.3395 0.34817 0.0
H25 H 0.33665 0.31294 0.3521 0.0
H26 H 0.15234 0.1966 0.3226 0.0
H27 H 0.35473 0.27164 0.35877 0.0
H28 H 0.16648 0.07346 0.36349 0.0
N29 N 0.18479 0.17102 0.34379 0.0
C30 C 0.17111 0.14941 0.34524 0.0
C31 C 0.15738 0.18316 0.32895 0.0
C32 C 0.14976 0.14391 0.33866 0.0
C33 C 0.17847 0.18769 0.33564 0.0
C34 C 0.14284 0.16125 0.33051 0.0
N35 N 0.20023 0.1379 0.35893 0.0
C36 C 0.21023 0.12058 0.36606 0.0
C37 C 0.16621 0.10901 0.35453 0.0
C38 C 0.17911 0.13228 0.35307 0.0
C39 C 0.17581 0.09155 0.36213 0.0
C40 C 0.19807 0.09729 0.36785 0.0
H41 H 0.12656 0.15775 0.32528 0.0
H42 H 0.1198 0.11664 0.33535 0.0
H43 H 0.13428 0.08599 0.34925 0.0
O44 O 0.25834 0.18003 0.34969 0.0
O45 O 0.20515 0.17106 0.37335 0.0
O46 O 0.22072 0.20682 0.37072 0.0
O47 O 0.23267 0.14963 0.34458 0.0
O48 O 0.24999 0.1668 0.37014 0.0
O49 O 0.26479 0.2032 0.37913 0.0
O50 O 0.22463 0.26367 0.38273 0.0
O51 O 0.25832 0.23687 0.35326 0.0
O52 O 0.22525 0.2154 0.34528 0.0
O53 O 0.26222 0.24985 0.38674 0.0
O54 O 0.19943 0.24369 0.36708 0.0
O55 O 0.18515 0.20859 0.35696 0.0
C56 C 0.20972 0.19242 0.37788 0.0
C57 C 0.26312 0.16293 0.33184 0.0
C58 C 0.28792 0.14527 0.3167 0.0
C59 C 0.27362 0.16063 0.30945 0.0
C60 C 0.24893 0.17747 0.32446 0.0
C61 C 0.25467 0.17687 0.31335 0.0
C62 C 0.28308 0.14765 0.32802 0.0
C63 C 0.26515 0.17767 0.3778 0.0
C64 C 0.2549 0.16045 0.34325 0.0
C65 C 0.13631 0.12113 0.34029 0.0
C66 C 0.14454 0.10369 0.34821 0.0
C67 C 0.24543 0.23086 0.34436 0.0
C68 C 0.25145 0.29181 0.39222 0.0
C69 C 0.24256 0.33748 0.39135 0.0
C70 C 0.26072 0.34122 0.3997 0.0
C71 C 0.26937 0.29601 0.40048 0.0
C72 C 0.23916 0.31271 0.38736 0.0
C73 C 0.2743 0.32069 0.40404 0.0
C74 C 0.1805 0.23127 0.36174 0.0
C75 C 0.24409 0.2657 0.38924 0.0
H76 H 0.27593 0.15937 0.3007 0.0
H77 H 0.23285 0.18852 0.32723 0.0
H78 H 0.24351 0.18807 0.30767 0.0
H79 H 0.29386 0.13679 0.33393 0.0
H80 H 0.26381 0.35972 0.40327 0.0
H81 H 0.27916 0.28021 0.40431 0.0
H82 H 0.22608 0.30947 0.38072 0.0
H83 H 0.28797 0.32382 0.41052 0.0
Eu84 Eu 0.14231 0.96817 0.60432 0.0
C85 C 0.04624 0.04079 0.61096 0.0
N86 N 0.06637 1.03674 0.61776 0.0
C87 C 0.06699 0.0809 0.62249 0.0
C88 C 1.03634 0.06546 0.60939 0.0
C89 C 0.07629 0.05618 0.62376 0.0
C90 C 0.04711 0.08562 0.61521 0.0
C91 C 1.01535 1.02411 0.59806 0.0
C92 C 1.03562 1.02025 0.60545 0.0
C93 C 1.00565 0.04868 0.59643 0.0
C94 C 1.01606 0.06927 0.60209 0.0
Eu95 Eu 0.0802 0.99425 0.61944 0.0
N96 N 0.04572 0.99668 0.607 0.0
C97 C 1.00562 1.00319 0.59241 0.0
C98 C 1.03618 0.9762 0.60154 0.0
C99 C 1.01607 0.97916 0.59417 0.0
H100 H 0.09105 0.0528 0.6297 0.0
H101 H 1.00871 0.96289 0.5898 0.0
H102 H 0.11579 0.93892 0.58277 0.0
H103 H 0.23501 0.95175 0.62319 0.0
H104 H 0.04408 0.95753 0.60268 0.0
H105 H 0.99013 1.00541 0.58664 0.0
H106 H 0.19533 0.97536 0.61919 0.0
H107 H 0.07506 0.09629 0.62721 0.0
H108 H 0.99011 0.05197 0.59077 0.0
H109 H 1.0083 0.0881 0.60076 0.0
H110 H 0.12253 0.90032 0.57175 0.0
H111 H 1.03999 0.10482 0.61424 0.0
H112 H 0.24342 0.91069 0.61407 0.0
N113 N 0.14818 0.9326 0.59284 0.0
C114 C 0.16879 0.9178 0.5949 0.0
C115 C 0.13567 0.90499 0.57825 0.0
C116 C 0.17348 0.89563 0.58878 0.0
C117 C 0.13195 0.92689 0.58449 0.0
C118 C 0.15641 0.88916 0.58046 0.0
N119 N 0.18127 0.94758 0.60817 0.0
C120 C 0.19884 0.95741 0.6152 0.0
C121 C 0.20832 0.9115 0.60478 0.0
C122 C 0.18591 0.92555 0.60281 0.0
C123 C 0.22595 0.9209 0.61233 0.0
C124 C 0.2213 0.9441 0.61748 0.0
H125 H 0.15931 0.87226 0.57558 0.0
H126 H 0.19915 0.86383 0.58642 0.0
H127 H 0.22971 0.87778 0.60041 0.0
O128 O 0.14484 1.00631 0.59732 0.0
O129 O 0.14788 0.95315 0.62168 0.0
O130 O 0.1133 0.97164 0.61886 0.0
O131 O 0.17118 0.97674 0.59208 0.0
O132 O 0.15351 0.99995 0.61789 0.0
O133 O 0.11673 1.01675 0.62612 0.0
O134 O 0.04601 0.98407 0.62842 0.0
O135 O 0.08765 1.0114 0.6023 0.0
O136 O 0.10444 0.97596 0.59437 0.0
O137 O 0.07813 0.99953 0.63719 0.0
O138 O 0.07608 0.94931 0.61583 0.0
O139 O 0.11085 0.93502 0.60536 0.0
C140 C 0.12662 0.95935 0.62601 0.0
C141 C 0.1597 1.00746 0.57904 0.0
C142 C 0.17502 1.03049 0.56299 0.0
C143 C 0.1544 1.02072 0.55697 0.0
C144 C 0.14036 0.99666 0.57271 0.0
C145 C 0.13731 1.00378 0.5618 0.0
C146 C 0.1771 1.02422 0.57416 0.0
C147 C 0.14243 1.01637 0.625 0.0
C148 C 0.16304 0.99991 0.59051 0.0
C149 C 0.19529 0.88101 0.59099 0.0
C150 C 0.2127 0.88895 0.59896 0.0
C151 C 0.0918 0.99791 0.59336 0.0
C152 C 0.05485 0.96636 0.64569 0.0
C153 C 0.04235 0.9225 0.64964 0.0
C154 C 0.04857 0.92662 0.66071 0.0
C155 C 0.06063 0.97007 0.65673 0.0
C156 C 0.04673 0.94229 0.64215 0.0
C157 C 0.05797 0.95009 0.66416 0.0
C158 C 0.08836 0.93041 0.6104 0.0
C159 C 0.05637 0.98777 0.63793 0.0
H160 H 0.15195 1.02552 0.54842 0.0
H161 H 0.12796 0.98241 0.57614 0.0
H162 H 0.1221 0.99561 0.55699 0.0
H163 H 0.19298 1.03122 0.57894 0.0
H164 H 0.04517 0.91221 0.66686 0.0
H165 H 0.06714 0.9884 0.6596 0.0
H166 H 0.043 0.93924 0.63356 0.0
H167 H 0.06246 0.95303 0.67269 0.0
Eu168 Eu 0.36954 0.89873 0.85659 0.0
C169 C 0.29922 0.80301 0.86258 0.0
N170 N 0.30239 0.82632 0.86716 0.0
C171 C 0.25718 0.83294 0.86711 0.0
C172 C 0.27468 0.79386 0.86002 0.0
C173 C 0.28186 0.84131 0.86945 0.0
C174 C 0.25355 0.80909 0.86242 0.0
C175 C 0.31806 0.76532 0.85455 0.0
C176 C 0.32072 0.78898 0.85982 0.0
C177 C 0.29363 0.75587 0.85225 0.0
C178 C 0.27201 0.77011 0.85497 0.0
Eu179 Eu 0.34452 0.83737 0.87201 0.0
N180 N 0.34419 0.79886 0.86194 0.0
C181 C 0.34004 0.75193 0.85163 0.0
C182 C 0.36568 0.78573 0.85912 0.0
C183 C 0.36392 0.76222 0.8539 0.0
H184 H 0.28428 0.85971 0.87312 0.0
H185 H 0.38103 0.75189 0.85175 0.0
H186 H 0.39514 0.8752 0.8335 0.0
H187 H 0.38732 0.98976 0.87646 0.0
H188 H 0.38435 0.79273 0.86105 0.0
H189 H 0.33878 0.73367 0.8476 0.0
H190 H 0.36518 0.94919 0.87321 0.0
H191 H 0.24096 0.8449 0.86894 0.0
H192 H 0.29127 0.73771 0.84824 0.0
H193 H 0.25331 0.76273 0.85299 0.0
H194 H 0.4296 0.88527 0.82059 0.0
H195 H 0.2344 0.80272 0.86057 0.0
H196 H 0.42402 1.00207 0.86489 0.0
N197 N 0.40138 0.90775 0.84341 0.0
C198 C 0.41523 0.92922 0.84487 0.0
C199 C 0.42579 0.8978 0.82739 0.0
C200 C 0.43512 0.93582 0.83763 0.0
C201 C 0.40619 0.89215 0.83476 0.0
C202 C 0.44042 0.91967 0.82886 0.0
N203 N 0.38927 0.93835 0.86003 0.0
C204 C 0.38113 0.9543 0.86809 0.0
C205 C 0.42214 0.96811 0.85498 0.0
C206 C 0.40893 0.94506 0.85343 0.0
C207 C 0.41439 0.98419 0.86344 0.0
C208 C 0.39366 0.97732 0.86997 0.0
H209 H 0.45554 0.92404 0.82311 0.0
H210 H 0.46419 0.96375 0.83383 0.0
H211 H 0.45275 0.99211 0.84902 0.0
O212 O 0.32954 0.89757 0.85172 0.0
O213 O 0.3897 0.9023 0.87308 0.0
O214 O 0.36495 0.8716 0.87135 0.0
O215 O 0.35522 0.92669 0.8451 0.0
O216 O 0.33931 0.91087 0.87085 0.0
O217 O 0.32447 0.87428 0.87984 0.0
O218 O 0.36277 0.81289 0.88404 0.0
O219 O 0.32957 0.84099 0.85431 0.0
O220 O 0.36327 0.86125 0.84612 0.0
O221 O 0.32603 0.82951 0.88768 0.0
O222 O 0.38935 0.83327 0.86815 0.0
O223 O 0.4025 0.86712 0.8569 0.0
C224 C 0.38096 0.88249 0.87781 0.0
C225 C 0.3207 0.91466 0.8341 0.0
C226 C 0.29314 0.93308 0.82014 0.0
C227 C 0.30108 0.91409 0.81282 0.0
C228 C 0.32952 0.89687 0.82652 0.0
C229 C 0.31913 0.89604 0.81603 0.0
C230 C 0.30241 0.93257 0.83093 0.0
C231 C 0.32421 0.89988 0.87856 0.0
C232 C 0.33231 0.91683 0.84494 0.0
C233 C 0.44879 0.95842 0.83928 0.0
C234 C 0.44229 0.97455 0.84793 0.0
C235 C 0.3428 0.84609 0.84537 0.0
C236 C 0.33325 0.78782 0.89386 0.0
C237 C 0.3314 0.74185 0.89099 0.0
C238 C 0.31816 0.73961 0.90102 0.0
C239 C 0.32012 0.78511 0.90374 0.0
C240 C 0.33762 0.76643 0.88731 0.0
C241 C 0.3122 0.76111 0.90719 0.0
C242 C 0.40769 0.84513 0.8622 0.0
C243 C 0.34305 0.81282 0.89055 0.0
H244 H 0.29455 0.91406 0.80443 0.0
H245 H 0.34495 0.88427 0.82861 0.0
H246 H 0.32592 0.8821 0.81023 0.0
H247 H 0.29634 0.94691 0.83672 0.0
H248 H 0.31331 0.72134 0.90448 0.0
H249 H 0.31628 0.80148 0.90883 0.0
H250 H 0.34683 0.76908 0.87954 0.0
H251 H 0.30227 0.75903 0.9149 0.0
Eu252 Eu 0.43098 0.11892 0.10301 0.0
C253 C 0.52633 0.04925 0.10993 0.0
N254 N 0.50254 0.05226 0.1142 0.0
C255 C 0.49556 1.00727 0.11334 0.0
C256 C 0.53552 1.02495 0.10711 0.0
C257 C 0.48716 1.03172 0.11595 0.0
C258 C 0.51986 1.00385 0.10894 0.0
C259 C 0.56512 0.06831 0.10287 0.0
C260 C 0.54087 0.07076 0.10777 0.0
C261 C 0.57454 0.0441 0.10028 0.0
C262 C 0.55978 1.02248 0.10239 0.0
Eu263 Eu 0.49124 0.09406 0.11941 0.0
N264 N 0.53102 0.09405 0.11012 0.0
C265 C 0.57916 0.09029 0.10062 0.0
C266 C 0.54483 0.11552 0.10801 0.0
C267 C 0.56896 0.11397 0.10322 0.0
H268 H 0.46837 1.03392 0.11934 0.0
H269 H 0.57981 0.13108 0.10163 0.0
H270 H 0.45895 0.14848 0.08166 0.0
H271 H 0.33512 0.13234 0.11933 0.0
H272 H 0.53792 0.13398 0.11025 0.0
H273 H 0.59788 0.08919 0.09691 0.0
H274 H 0.37617 0.11031 0.11653 0.0
H275 H 0.48327 0.99107 0.11473 0.0
H276 H 0.59314 0.0419 0.09655 0.0
H277 H 0.56718 1.00396 0.10021 0.0
H278 H 0.45218 0.18619 0.0701 0.0
H279 H 0.52624 0.98488 0.10688 0.0
H280 H 0.3263 0.17266 0.10958 0.0
N281 N 0.42507 0.1538 0.09096 0.0
C282 C 0.40365 0.16786 0.09233 0.0
C283 C 0.4384 0.1813 0.07635 0.0
C284 C 0.3989 0.18954 0.08584 0.0
C285 C 0.44214 0.15986 0.08293 0.0
C286 C 0.41678 0.19635 0.07787 0.0
N287 N 0.39068 0.13821 0.10559 0.0
C288 C 0.37254 0.12793 0.11228 0.0
C289 C 0.36263 0.17294 0.10115 0.0
C290 C 0.38585 0.15977 0.09989 0.0
C291 C 0.34438 0.16312 0.10837 0.0
C292 C 0.34927 0.14035 0.11388 0.0
H293 H 0.41387 0.21288 0.07272 0.0
H294 H 0.37233 0.22012 0.08249 0.0
H295 H 0.34048 0.20552 0.09589 0.0
O296 O 0.43184 0.08012 0.09673 0.0
O297 O 0.42213 0.13282 0.1202 0.0
O298 O 0.4586 0.11798 0.11854 0.0
O299 O 0.40414 0.10741 0.09046 0.0
O300 O 0.41869 0.08789 0.11693 0.0
O301 O 0.45437 0.07334 0.12662 0.0
O302 O 0.51472 0.11268 0.13152 0.0
O303 O 0.48841 0.07897 0.10172 0.0
O304 O 0.46992 0.1133 0.09353 0.0
O305 O 0.49935 0.07555 0.13514 0.0
O306 O 0.49556 0.13865 0.11542 0.0
O307 O 0.4618 0.15265 0.10433 0.0
C308 C 0.44286 0.12832 0.12535 0.0
C309 C 0.4184 0.07598 0.07833 0.0
C310 C 0.40561 0.0499 0.06282 0.0
C311 C 0.42562 0.06057 0.05666 0.0
C312 C 0.43696 0.08764 0.07181 0.0
C313 C 0.44104 0.07945 0.06112 0.0
C314 C 0.40264 0.05726 0.07381 0.0
C315 C 0.429 0.07279 0.1248 0.0
C316 C 0.41383 0.08464 0.08955 0.0
C317 C 0.37625 0.20333 0.08734 0.0
C318 C 0.35812 0.19503 0.09498 0.0
C319 C 0.48427 0.0924 0.09277 0.0
C320 C 0.54116 0.08468 0.14137 0.0
C321 C 0.58739 0.09096 0.14072 0.0
C322 C 0.58983 0.07357 0.14946 0.0
C323 C 0.54406 0.0675 0.15003 0.0
C324 C 0.56293 0.09521 0.13643 0.0
C325 C 0.56837 0.06161 0.1539 0.0
C326 C 0.48392 0.15735 0.10962 0.0
C327 C 0.51553 0.09305 0.13799 0.0
H328 H 0.42876 0.055 0.04825 0.0
H329 H 0.4479 0.10336 0.07492 0.0
H330 H 0.45566 0.0883 0.05616 0.0
H331 H 0.38718 0.0496 0.07869 0.0
H332 H 0.60805 0.06989 0.15327 0.0
H333 H 0.52754 0.05903 0.15392 0.0
H334 H 0.56063 0.10764 0.12948 0.0
H335 H 0.57052 0.04853 0.16068 0.0
Eu336 Eu 0.21407 0.90186 0.22344 0.0
C337 C 0.28776 0.8092 0.21881 0.0
N338 N 0.2836 0.83261 0.21439 0.0
C339 C 0.32844 0.84132 0.21477 0.0
C340 C 0.31262 0.801 0.22139 0.0
C341 C 0.30346 0.8487 0.21237 0.0
C342 C 0.33307 0.81732 0.21923 0.0
C343 C 0.27045 0.77034 0.22655 0.0
C344 C 0.26685 0.79407 0.22139 0.0
C345 C 0.29525 0.7618 0.22881 0.0
C346 C 0.31627 0.77708 0.22624 0.0
Eu347 Eu 0.24127 0.84103 0.20887 0.0
N348 N 0.24301 0.80302 0.21925 0.0
C349 C 0.24901 0.75601 0.22941 0.0
C350 C 0.22205 0.78897 0.22197 0.0
C351 C 0.22473 0.76545 0.22718 0.0
H352 H 0.3003 0.86722 0.20887 0.0
H353 H 0.20804 0.75441 0.2293 0.0
H354 H 0.18726 0.87747 0.24625 0.0
H355 H 0.19515 0.99236 0.20306 0.0
H356 H 0.20314 0.79536 0.22 0.0
H357 H 0.25099 0.73769 0.23338 0.0
H358 H 0.21744 0.95195 0.20642 0.0
H359 H 0.34414 0.85413 0.21314 0.0
H360 H 0.29835 0.74354 0.2327 0.0
H361 H 0.33525 0.7704 0.22821 0.0
H362 H 0.15268 0.8874 0.25905 0.0
H363 H 0.35246 0.81171 0.22109 0.0
H364 H 0.15868 1.00474 0.21471 0.0
N365 N 0.18168 0.91051 0.23645 0.0
C366 C 0.16789 0.93204 0.23498 0.0
C367 C 0.15675 0.90015 0.25231 0.0
C368 C 0.14784 0.93849 0.24215 0.0
C369 C 0.17648 0.89462 0.24501 0.0
C370 C 0.1423 0.92215 0.25087 0.0
N371 N 0.19389 0.94127 0.21982 0.0
C372 C 0.20168 0.95708 0.21161 0.0
C373 C 0.16087 0.97091 0.22478 0.0
C374 C 0.17422 0.94794 0.22641 0.0
C375 C 0.16843 0.98693 0.21623 0.0
C376 C 0.18902 0.98003 0.20965 0.0
H377 H 0.12705 0.92641 0.25655 0.0
H378 H 0.11866 0.96633 0.24587 0.0
H379 H 0.13014 0.9948 0.23065 0.0
O380 O 0.25408 0.901 0.22838 0.0
O381 O 0.19357 0.90436 0.207 0.0
O382 O 0.21936 0.87457 0.20857 0.0
O383 O 0.22816 0.92996 0.23483 0.0
O384 O 0.24357 0.91444 0.20893 0.0
O385 O 0.26053 0.87795 0.20067 0.0
O386 O 0.22571 0.81308 0.19757 0.0
O387 O 0.25528 0.84554 0.22662 0.0
O388 O 0.22051 0.86476 0.23427 0.0
O389 O 0.26035 0.833 0.19338 0.0
O390 O 0.19643 0.8357 0.21234 0.0
O391 O 0.18204 0.86949 0.22324 0.0
C392 C 0.20253 0.8847 0.20224 0.0
C393 C 0.26122 0.91657 0.24634 0.0
C394 C 0.2895 0.93138 0.26082 0.0
C395 C 0.27762 0.9142 0.26808 0.0
C396 C 0.24896 0.90057 0.25384 0.0
C397 C 0.25762 0.89883 0.26457 0.0
C398 C 0.28164 0.93171 0.24981 0.0
C399 C 0.25956 0.90362 0.20155 0.0
C400 C 0.25096 0.91988 0.23527 0.0
C401 C 0.13415 0.96109 0.24046 0.0
C402 C 0.14067 0.97729 0.2318 0.0
C403 C 0.2414 0.85032 0.23537 0.0
C404 C 0.26039 0.78829 0.19153 0.0
C405 C 0.2597 0.74278 0.19555 0.0
C406 C 0.28646 0.74244 0.19544 0.0
C407 C 0.28721 0.78751 0.19135 0.0
C408 C 0.2469 0.76569 0.19337 0.0
C409 C 0.30008 0.76469 0.19328 0.0
C410 C 0.17759 0.84728 0.21808 0.0
C411 C 0.24654 0.8128 0.19173 0.0
H412 H 0.28267 0.91359 0.27665 0.0
H413 H 0.23223 0.89002 0.25149 0.0
H414 H 0.24806 0.88637 0.27031 0.0
H415 H 0.29056 0.94455 0.24402 0.0
H416 H 0.29682 0.72505 0.19708 0.0
H417 H 0.29829 0.80463 0.1901 0.0
H418 H 0.22624 0.76608 0.1933 0.0
H419 H 0.3207 0.76436 0.19328 0.0
Eu420 Eu 0.43832 0.9613 0.47582 0.0
C421 C 0.53209 1.02551 0.47361 0.0
N422 N 0.50892 1.02596 0.46859 0.0
C423 C 0.50521 0.07066 0.47203 0.0
C424 C 0.54211 0.04762 0.47848 0.0
C425 C 0.49588 0.0483 0.46739 0.0
C426 C 0.52827 0.07028 0.4777 0.0
C427 C 0.56989 1.00203 0.47899 0.0
C428 C 0.54581 1.00286 0.47386 0.0
C429 C 0.57942 1.02376 0.4842 0.0
C430 C 0.56561 0.04649 0.48393 0.0
Eu431 Eu 0.49508 0.98711 0.46087 0.0
N432 N 0.53631 0.9821 0.46862 0.0
C433 C 0.58411 0.97959 0.47845 0.0
C434 C 0.55105 0.96088 0.46739 0.0
C435 C 0.57484 0.95911 0.47246 0.0
H436 H 0.47804 0.04888 0.46304 0.0
H437 H 0.58621 0.94208 0.47156 0.0
H438 H 0.4637 0.93224 0.49788 0.0
H439 H 0.34868 0.93954 0.45508 0.0
H440 H 0.54507 0.94551 0.46223 0.0
H441 H 0.60268 0.97823 0.48227 0.0
H442 H 0.38542 0.96574 0.46027 0.0
H443 H 0.49458 0.08819 0.47125 0.0
H444 H 0.59776 1.02334 0.48826 0.0
H445 H 0.57344 0.06321 0.48783 0.0
H446 H 0.45853 0.89265 0.50833 0.0
H447 H 0.53536 0.08764 0.48133 0.0
H448 H 0.34249 0.89721 0.4635 0.0
N449 N 0.43316 0.92449 0.48692 0.0
C450 C 0.41395 0.90841 0.48434 0.0
C451 C 0.44588 0.89679 0.50158 0.0
C452 C 0.41025 0.88548 0.49013 0.0
C453 C 0.44868 0.91934 0.49563 0.0
C454 C 0.42674 0.87964 0.49875 0.0
N455 N 0.40084 0.93831 0.47125 0.0
C456 C 0.38331 0.94724 0.46394 0.0
C457 C 0.37625 0.89997 0.47359 0.0
C458 C 0.39726 0.91553 0.47621 0.0
C459 C 0.35887 0.90858 0.46575 0.0
C460 C 0.36228 0.93245 0.46099 0.0
H461 H 0.42457 0.86221 0.50339 0.0
H462 H 0.3869 0.85166 0.49159 0.0
H463 H 0.35705 0.86438 0.47707 0.0
O464 O 0.40879 0.96983 0.48782 0.0
O465 O 0.43498 0.95843 0.45761 0.0
O466 O 0.47662 0.95258 0.45362 0.0
O467 O 0.43636 0.99885 0.48332 0.0
O468 O 0.42383 0.99046 0.46181 0.0
O469 O 0.4592 1.01134 0.45507 0.0
O470 O 0.52801 0.99443 0.45048 0.0
O471 O 0.48655 1.00313 0.47813 0.0
O472 O 0.47604 0.96644 0.48585 0.0
O473 O 0.49032 1.00024 0.44399 0.0
O474 O 0.50113 0.9421 0.46471 0.0
O475 O 0.46634 0.92639 0.47424 0.0
C476 C 0.4528 0.95239 0.45064 0.0
C477 C 0.42074 0.99911 0.50141 0.0
C478 C 0.40613 1.02232 0.51746 0.0
C479 C 0.42644 1.01185 0.52349 0.0
C480 C 0.44002 0.98792 0.50769 0.0
C481 C 0.4432 0.99469 0.51861 0.0
C482 C 0.40377 1.01619 0.50631 0.0
C483 C 0.4338 1.00892 0.4554 0.0
C484 C 0.41763 0.99253 0.48983 0.0
C485 C 0.38994 0.86944 0.4873 0.0
C486 C 0.37295 0.87668 0.47903 0.0
C487 C 0.48755 0.9886 0.48686 0.0
C488 C 0.52024 0.9805 0.43256 0.0
C489 C 0.53968 0.94142 0.426 0.0
C490 C 0.52853 0.94536 0.41572 0.0
C491 C 0.50943 0.98452 0.42221 0.0
C492 C 0.53527 0.95887 0.43436 0.0
C493 C 0.51358 0.96695 0.41384 0.0
C494 C 0.48925 0.92239 0.46977 0.0
C495 C 0.51439 0.99756 0.44171 0.0
H496 H 0.42904 1.01649 0.53203 0.0
H497 H 0.45246 0.97384 0.50419 0.0
H498 H 0.45839 0.98625 0.52337 0.0
H499 H 0.38814 1.02382 0.50154 0.0
H500 H 0.53195 0.93217 0.4091 0.0
H501 H 0.49749 1.00093 0.42069 0.0
H502 H 0.54364 0.95537 0.44231 0.0
H503 H 0.50511 0.97003 0.40588 0.0
Eu504 Eu 0.35587 0.19011 0.7227 0.0
C505 C 0.28832 0.27998 0.72045 0.0
N506 N 0.29015 0.25762 0.71488 0.0
C507 C 0.24512 0.25099 0.71678 0.0
C508 C 0.26471 0.28813 0.72472 0.0
C509 C 0.2689 0.24344 0.71279 0.0
C510 C 0.24302 0.27334 0.72281 0.0
C511 C 0.309 0.31674 0.72849 0.0
C512 C 0.31038 0.29414 0.72232 0.0
C513 C 0.28553 0.3247 0.73281 0.0
C514 C 0.26347 0.31049 0.73091 0.0
Eu515 Eu 0.33109 0.2475 0.70798 0.0
N516 N 0.33305 0.28599 0.7181 0.0
C517 C 0.33122 0.3309 0.73008 0.0
C518 C 0.3545 0.30052 0.71922 0.0
C519 C 0.35397 0.32289 0.72533 0.0
H520 H 0.2701 0.22615 0.70814 0.0
H521 H 0.37109 0.33415 0.72624 0.0
H522 H 0.38384 0.21278 0.74539 0.0
H523 H 0.37766 0.10219 0.70087 0.0
H524 H 0.37201 0.29569 0.71518 0.0
H525 H 0.3309 0.34832 0.73477 0.0
H526 H 0.35125 0.13841 0.70657 0.0
H527 H 0.2284 0.23954 0.71521 0.0
H528 H 0.28422 0.34194 0.73759 0.0
H529 H 0.24551 0.31693 0.7343 0.0
H530 H 0.42346 0.20686 0.75583 0.0
H531 H 0.22457 0.279 0.72596 0.0
H532 H 0.42017 0.09554 0.70911 0.0
N533 N 0.39232 0.18379 0.73385 0.0
C534 C 0.40861 0.16501 0.73095 0.0
C535 C 0.41959 0.19502 0.74882 0.0
C536 C 0.43148 0.16083 0.73673 0.0
C537 C 0.39709 0.1983 0.74286 0.0
C538 C 0.43702 0.17639 0.74567 0.0
N539 N 0.37887 0.15307 0.71762 0.0
C540 C 0.36986 0.13605 0.71016 0.0
C541 C 0.41731 0.12841 0.71963 0.0
C542 C 0.40166 0.14913 0.72254 0.0
C543 C 0.40873 0.11167 0.71158 0.0
C544 C 0.38474 0.11535 0.70692 0.0
H545 H 0.45439 0.17381 0.75032 0.0
H546 H 0.46544 0.1375 0.73787 0.0
H547 H 0.45299 0.10903 0.72288 0.0
O548 O 0.31822 0.18779 0.73024 0.0
O549 O 0.35967 0.18727 0.70449 0.0
O550 O 0.36545 0.22889 0.70051 0.0
O551 O 0.34737 0.15998 0.7344 0.0
O552 O 0.32539 0.17647 0.70914 0.0
O553 O 0.3093 0.21197 0.70039 0.0
O554 O 0.32804 0.28336 0.69917 0.0
O555 O 0.31456 0.23779 0.72513 0.0
O556 O 0.35104 0.22718 0.73298 0.0
O557 O 0.31738 0.24866 0.69109 0.0
O558 O 0.376 0.25288 0.71168 0.0
O559 O 0.39093 0.21826 0.7215 0.0
C560 C 0.36585 0.20514 0.69757 0.0
C561 C 0.31701 0.16983 0.74795 0.0
C562 C 0.29431 0.15114 0.76339 0.0
C563 C 0.30279 0.17121 0.77002 0.0
C564 C 0.32617 0.1891 0.75476 0.0
C565 C 0.31863 0.19008 0.7657 0.0
C566 C 0.30109 0.15097 0.75226 0.0
C567 C 0.30936 0.18665 0.70169 0.0
C568 C 0.32445 0.16846 0.73641 0.0
C569 C 0.44769 0.1409 0.73359 0.0
C570 C 0.44061 0.1247 0.72505 0.0
C571 C 0.32886 0.23869 0.73393 0.0
C572 C 0.34097 0.27845 0.68101 0.0
C573 C 0.3836 0.29134 0.67517 0.0
C574 C 0.37544 0.28973 0.66422 0.0
C575 C 0.33325 0.27685 0.67009 0.0
C576 C 0.36627 0.28501 0.68347 0.0
C577 C 0.35054 0.28227 0.66173 0.0
C578 C 0.39533 0.24096 0.71692 0.0
C579 C 0.32311 0.27255 0.68989 0.0
H580 H 0.29809 0.17175 0.77863 0.0
H581 H 0.33934 0.20313 0.75167 0.0
H582 H 0.32561 0.20514 0.7709 0.0
H583 H 0.29441 0.13585 0.74699 0.0
H584 H 0.38794 0.29496 0.65754 0.0
H585 H 0.31392 0.27141 0.66806 0.0
H586 H 0.37245 0.28519 0.69191 0.0
H587 H 0.34449 0.28118 0.65329 0.0
Eu588 Eu 0.15083 0.11384 0.97607 0.0
C589 C 0.05789 0.04144 0.97099 0.0
N590 N 0.07921 0.04481 0.96476 0.0
C591 C 0.08383 0.99968 0.96296 0.0
C592 C 0.04927 1.01682 0.9737 0.0
C593 C 0.09188 1.02439 0.96056 0.0
C594 C 0.06252 0.99586 0.96958 0.0
C595 C 1.02423 0.05965 0.98216 0.0
C596 C 0.04536 0.06272 0.97513 0.0
C597 C 1.01554 1.03516 0.98477 0.0
C598 C 1.02797 1.01382 0.98053 0.0
Eu599 Eu 0.08995 0.08743 0.96064 0.0
N600 N 0.05458 0.0863 0.97272 0.0
C601 C 1.01267 0.0813 0.98653 0.0
C602 C 0.04321 0.10747 0.97693 0.0
C603 C 1.0222 0.10528 0.9839 0.0
H604 H 0.10803 1.02682 0.95524 0.0
H605 H 1.01336 0.12213 0.98725 0.0
H606 H 0.12327 0.14447 0.99709 0.0
H607 H 0.24537 0.12828 0.95852 0.0
H608 H 0.05002 0.1262 0.975 0.0
H609 H 0.99645 0.07971 0.99198 0.0
H610 H 0.20536 0.10507 0.96236 0.0
H611 H 0.09403 0.98357 0.95965 0.0
H612 H 0.99933 1.0325 0.99015 0.0
H613 H 1.02113 0.99505 0.9827 0.0
H614 H 0.12924 0.1839 1.00762 0.0
H615 H 0.05645 0.97666 0.97147 0.0
H616 H 0.25295 0.17029 0.96694 0.0
N617 N 0.15608 0.15025 0.98716 0.0
C618 C 0.17679 0.16495 0.98513 0.0
C619 C 0.14273 0.17883 1.00129 0.0
C620 C 0.18106 0.18758 0.99098 0.0
C621 C 0.13945 0.15645 0.99533 0.0
C622 C 0.16348 0.19462 0.99904 0.0
N623 N 0.19026 0.13403 0.97256 0.0
C624 C 0.2085 0.12344 0.96604 0.0
C625 C 0.21707 0.17038 0.97571 0.0
C626 C 0.19447 0.15654 0.97759 0.0
C627 C 0.23534 0.16025 0.9686 0.0
C628 C 0.23115 0.13652 0.96385 0.0
H629 H 0.16605 0.21188 1.00371 0.0
H630 H 0.20652 0.21959 0.99317 0.0
H631 H 0.23812 0.20448 0.9798 0.0
O632 O 0.15282 0.07579 0.98323 0.0
O633 O 0.15869 0.126 0.95853 0.0
O634 O 0.12171 0.11257 0.96104 0.0
O635 O 0.1785 0.10548 0.98882 0.0
O636 O 0.16247 0.08185 0.96259 0.0
O637 O 0.12666 0.0671 0.95304 0.0
O638 O 0.0547 0.09411 0.95192 0.0
O639 O 0.09788 0.07067 0.97786 0.0
O640 O 0.11249 0.10681 0.98572 0.0
O641 O 0.08686 0.07869 0.94314 0.0
O642 O 0.08554 0.13257 0.96371 0.0
O643 O 0.11928 0.14709 0.97471 0.0
C644 C 0.13727 0.12193 0.95388 0.0
C645 C 0.16564 0.07499 1.00175 0.0
C646 C 0.17817 0.05068 1.01789 0.0
C647 C 0.158 0.06191 1.02373 0.0
C648 C 0.14666 0.08703 1.0079 0.0
C649 C 0.14246 0.08007 1.01876 0.0
C650 C 0.18142 0.05692 1.00677 0.0
C651 C 0.15211 0.06674 0.95477 0.0
C652 C 0.17025 0.08233 0.99034 0.0
C653 C 0.203 0.20205 0.98882 0.0
C654 C 0.22099 0.19345 0.9812 0.0
C655 C 0.10029 0.0847 0.98675 0.0
C656 C 0.05771 0.1046 0.93325 0.0
C657 C 1.03943 0.14419 0.92631 0.0
C658 C 0.04333 0.13531 0.91557 0.0
C659 C 0.06144 0.09619 0.92252 0.0
C660 C 0.04708 0.12875 0.93508 0.0
C661 C 0.05447 0.11161 0.91373 0.0
C662 C 0.09712 0.15155 0.96938 0.0
C663 C 0.06374 0.08758 0.94245 0.0
H664 H 0.15473 0.05723 1.03224 0.0
H665 H 0.13534 0.10203 1.00435 0.0
H666 H 0.12756 0.08924 1.02343 0.0
H667 H 0.19703 0.04878 1.00214 0.0
H668 H 1.03715 0.14629 0.90857 0.0
H669 H 0.06957 0.07763 0.92094 0.0
H670 H 0.04467 0.1355 0.94337 0.0
H671 H 0.05727 0.10498 0.90545 0.0
Eu672 Eu 0.84666 0.83469 0.71012 0.0
C673 C 0.92266 0.92536 0.73463 0.0
N674 N 0.90841 0.90429 0.73648 0.0
C675 C 0.93447 0.89369 0.75194 0.0
C676 C 0.94357 0.93142 0.74137 0.0
C677 C 0.91387 0.88857 0.74506 0.0
C678 C 0.94947 0.91516 0.75007 0.0
C679 C 0.92962 0.96385 0.72414 0.0
C680 C 0.91587 0.94127 0.72613 0.0
C681 C 0.95073 0.96978 0.73071 0.0
C682 C 0.95771 0.95358 0.7393 0.0
Eu683 Eu 0.87474 0.89612 0.72408 0.0
N684 N 0.89532 0.93504 0.71999 0.0
C685 C 0.92151 0.97997 0.71572 0.0
C686 C 0.88695 0.95099 0.71194 0.0
C687 C 0.89997 0.97357 0.70964 0.0
H688 H 0.90264 0.8718 0.74659 0.0
H689 H 0.89339 0.98601 0.70317 0.0
H690 H 0.78723 0.85962 0.71011 0.0
H691 H 0.88182 0.74876 0.73055 0.0
H692 H 0.87042 0.94623 0.70716 0.0
H693 H 0.93154 0.99749 0.71394 0.0
H694 H 0.8858 0.78926 0.72087 0.0
H695 H 0.93879 0.88105 0.75868 0.0
H696 H 0.9616 0.98698 0.72928 0.0
H697 H 0.97388 0.95849 0.74436 0.0
H698 H 0.74375 0.84615 0.71484 0.0
H699 H 0.96539 0.91912 0.75543 0.0
H700 H 0.83929 0.73199 0.73538 0.0
N701 N 0.80467 0.82572 0.71599 0.0
C702 C 0.80103 0.8025 0.72065 0.0
C703 C 0.7597 0.83372 0.71653 0.0
C704 C 0.77638 0.79409 0.72351 0.0
C705 C 0.78448 0.84132 0.71388 0.0
C706 C 0.7556 0.80996 0.72132 0.0
N707 N 0.84585 0.79677 0.72063 0.0
C708 C 0.86707 0.78293 0.72315 0.0
C709 C 0.81915 0.76421 0.72854 0.0
C710 C 0.82223 0.78775 0.72315 0.0
C711 C 0.84087 0.75016 0.73125 0.0
C712 C 0.86491 0.75963 0.72858 0.0
H713 H 0.73637 0.80418 0.72338 0.0
H714 H 0.75445 0.76358 0.73083 0.0
H715 H 0.79189 0.73741 0.73523 0.0
O716 O 0.86054 0.80586 0.6988 0.0
O717 O 0.83239 0.84065 0.72772 0.0
O718 O 0.86773 0.85933 0.7351 0.0
O719 O 0.82771 0.82847 0.69448 0.0
O720 O 0.89182 0.82954 0.71333 0.0
O721 O 0.90649 0.86354 0.72402 0.0
O722 O 0.83518 0.89651 0.7297 0.0
O723 O 0.8937 0.89808 0.70721 0.0
O724 O 0.86898 0.86774 0.70987 0.0
O725 O 0.8623 0.92498 0.73551 0.0
O726 O 0.84467 0.90818 0.70974 0.0
O727 O 0.82692 0.87147 0.70202 0.0
C728 C 0.84652 0.84539 0.73638 0.0
C729 C 0.82418 0.78402 0.69242 0.0
C730 C 0.8206 0.73853 0.6962 0.0
C731 C 0.79395 0.74041 0.69553 0.0
C732 C 0.79744 0.78546 0.69168 0.0
C733 C 0.7825 0.76377 0.69322 0.0
C734 C 0.83551 0.76036 0.69447 0.0
C735 C 0.9108 0.84115 0.71899 0.0
C736 C 0.83997 0.80731 0.69283 0.0
C737 C 0.77326 0.7704 0.72863 0.0
C738 C 0.79458 0.75551 0.73115 0.0
C739 C 0.88445 0.87796 0.70296 0.0
C740 C 0.8302 0.91241 0.74772 0.0
C741 C 0.80323 0.92735 0.76267 0.0
C742 C 0.81578 0.91025 0.76974 0.0
C743 C 0.84299 0.89632 0.75501 0.0
C744 C 0.81017 0.92766 0.75153 0.0
C745 C 0.83537 0.89477 0.76589 0.0
C746 C 0.82822 0.89715 0.70263 0.0
C747 C 0.83936 0.91543 0.73645 0.0
H748 H 0.78203 0.72386 0.69678 0.0
H749 H 0.78798 0.80345 0.69024 0.0
H750 H 0.76195 0.76513 0.69276 0.0
H751 H 0.8561 0.759 0.69482 0.0
H752 H 0.81149 0.90969 0.77839 0.0
H753 H 0.85928 0.88546 0.75236 0.0
H754 H 0.80071 0.94043 0.74587 0.0
H755 H 0.84536 0.88226 0.77147 0.0
Eu756 Eu 0.99165 0.0913 0.45903 0.0
C757 C 0.9 0.16482 0.48477 0.0
N758 N 0.92148 0.15104 0.48646 0.0
C759 C 0.93202 0.17707 0.50187 0.0
C760 C 0.8937 0.18548 0.49157 0.0
C761 C 0.93737 0.15668 0.49494 0.0
C762 C 0.91014 0.19162 0.50016 0.0
C763 C 0.86088 0.17096 0.47461 0.0
C764 C 0.88389 0.15773 0.4764 0.0
C765 C 0.85471 0.19185 0.48122 0.0
C766 C 0.87111 0.19911 0.48968 0.0
Eu767 Eu 0.92989 0.11763 0.47405 0.0
N768 N 0.89033 0.13737 0.47022 0.0
C769 C 0.84458 0.16255 0.46634 0.0
C770 C 0.87421 0.1287 0.46232 0.0
C771 C 0.85122 0.14122 0.46021 0.0
H772 H 0.95439 0.14573 0.49636 0.0
H773 H 0.83864 0.1344 0.45386 0.0
H774 H 0.96779 1.03156 0.45831 0.0
H775 H 0.07871 0.12613 0.47872 0.0
H776 H 0.87915 0.11231 0.45751 0.0
H777 H 0.82672 0.17218 0.46471 0.0
H778 H 1.038 0.13012 0.46923 0.0
H779 H 0.94479 0.18155 0.50853 0.0
H780 H 0.83718 0.20232 0.47994 0.0
H781 H 0.86599 0.21509 0.4948 0.0
H782 H 0.98131 0.98834 0.46313 0.0
H783 H 0.906 0.20736 0.50556 0.0
H784 H 0.09536 0.08377 0.48369 0.0
N785 N 1.00166 0.04912 0.46419 0.0
C786 C 1.0248 0.04558 0.46898 0.0
C787 C 0.99372 1.00427 0.46482 0.0
C788 C 1.03317 1.02103 0.47194 0.0
C789 C 0.98611 1.02893 0.46209 0.0
C790 C 1.01737 1.00027 0.46972 0.0
N791 N 1.03036 0.09031 0.46905 0.0
C792 C 0.04428 0.11145 0.47153 0.0
C793 C 0.06302 0.0637 0.47695 0.0
C794 C 1.03948 0.06675 0.47153 0.0
C795 C 0.07717 0.08534 0.47957 0.0
C796 C 0.06776 0.10929 0.47683 0.0
H797 H 1.02313 0.98113 0.47187 0.0
H798 H 0.06351 0.99925 0.47947 0.0
H799 H 0.08969 1.03657 0.48381 0.0
O800 O 1.01384 0.11147 0.44681 0.0
O801 O 0.98767 0.07752 0.47685 0.0
O802 O 0.96777 0.11195 0.48441 0.0
O803 O 1.00335 0.07236 0.44391 0.0
O804 O 0.9966 0.13569 0.46302 0.0
O805 O 0.96201 0.15003 0.47355 0.0
O806 O 0.93019 0.0784 0.47994 0.0
O807 O 0.92682 0.13695 0.45737 0.0
O808 O 0.95732 0.11185 0.45937 0.0
O809 O 0.90187 0.10536 0.48603 0.0
O810 O 0.91774 0.08709 0.4599 0.0
O811 O 0.95453 0.07138 0.45125 0.0
C812 C 0.98244 0.09128 0.48555 0.0
C813 C 0.0443 0.08553 0.4381 0.0
C814 C 0.08968 0.09553 0.43986 0.0
C815 C 0.09484 0.07764 0.43157 0.0
C816 C 0.0499 0.06788 0.42992 0.0
C817 C 0.07513 0.06368 0.4268 0.0
C818 C 0.0643 0.09842 0.44332 0.0
C819 C 0.98461 0.15446 0.46858 0.0
C820 C 1.01761 0.09134 0.44086 0.0
C821 C 0.05675 1.01797 0.47718 0.0
C822 C 0.07164 0.03924 0.47967 0.0
C823 C 0.94676 0.12794 0.4528 0.0
C824 C 0.91544 0.07355 0.4982 0.0
C825 C 0.90191 0.04716 0.51361 0.0
C826 C 0.92184 0.05751 0.51987 0.0
C827 C 0.93361 0.0851 0.50491 0.0
C828 C 0.8994 0.05477 0.50259 0.0
C829 C 0.93734 0.07657 0.51557 0.0
C830 C 0.92878 0.07156 0.45239 0.0
C831 C 0.9116 0.08256 0.48693 0.0
H832 H 0.11388 0.07503 0.42837 0.0
H833 H 1.03476 0.05761 0.42585 0.0
H834 H 0.07937 0.05021 0.42039 0.0
H835 H 0.0599 0.1114 0.44986 0.0
H836 H 0.9248 0.05163 0.52826 0.0
H837 H 0.94454 0.10103 0.50197 0.0
H838 H 0.88411 0.04727 0.49761 0.0
H839 H 0.95172 0.0853 0.52065 0.0
Eu840 Eu 0.74302 0.23987 0.20923 0.0
C841 C 0.67216 0.14913 0.23619 0.0
N842 N 0.68516 0.17118 0.2375 0.0
C843 C 0.65725 0.18284 0.25223 0.0
C844 C 0.65092 0.14315 0.24279 0.0
C845 C 0.67828 0.18783 0.24553 0.0
C846 C 0.64338 0.16048 0.25081 0.0
C847 C 0.66874 0.1083 0.22724 0.0
C848 C 0.68083 0.13204 0.22851 0.0
C849 C 0.64714 0.1025 0.23356 0.0
C850 C 0.63822 0.11991 0.24132 0.0
Eu851 Eu 0.71942 0.17913 0.22526 0.0
N852 N 0.70187 0.13815 0.22264 0.0
C853 C 0.67908 0.0909 0.21984 0.0
C854 C 0.71265 0.12087 0.21574 0.0
C855 C 0.7013 0.09713 0.21414 0.0
H856 H 0.68865 0.20524 0.24672 0.0
H857 H 0.70971 0.08366 0.20853 0.0
H858 H 0.80246 0.21444 0.21 0.0
H859 H 0.70857 0.32873 0.22701 0.0
H860 H 0.72986 0.12548 0.21132 0.0
H861 H 0.67037 0.07246 0.21863 0.0
H862 H 0.70441 0.28659 0.21873 0.0
H863 H 0.65175 0.19626 0.25848 0.0
H864 H 0.63747 0.08444 0.23266 0.0
H865 H 0.62179 0.11504 0.24627 0.0
H866 H 0.84598 0.22822 0.21436 0.0
H867 H 0.62716 0.15661 0.25604 0.0
H868 H 0.75123 0.3461 0.23115 0.0
N869 N 0.78532 0.2496 0.21445 0.0
C870 C 0.78914 0.27345 0.21841 0.0
C871 C 0.83016 0.24113 0.21551 0.0
C872 C 0.81381 0.28199 0.22111 0.0
C873 C 0.80535 0.23339 0.21302 0.0
C874 C 0.83444 0.26557 0.2195 0.0
N875 N 0.74434 0.27931 0.21844 0.0
C876 C 0.72316 0.29341 0.22071 0.0
C877 C 0.77122 0.31288 0.22523 0.0
C878 C 0.76802 0.28867 0.22053 0.0
C879 C 0.74955 0.32738 0.22757 0.0
C880 C 0.72544 0.31758 0.22531 0.0
H881 H 0.85368 0.27143 0.22148 0.0
H882 H 0.8359 0.31325 0.22761 0.0
H883 H 0.79865 0.34033 0.23118 0.0
O884 O 0.72347 0.26396 0.19759 0.0
O885 O 0.75707 0.23816 0.22722 0.0
O886 O 0.7239 0.2172 0.23537 0.0
O887 O 0.76088 0.24967 0.19353 0.0
O888 O 0.69843 0.24393 0.21341 0.0
O889 O 0.6849 0.20932 0.22411 0.0
O890 O 0.75871 0.18198 0.23105 0.0
O891 O 0.7049 0.17061 0.20813 0.0
O892 O 0.71962 0.20695 0.20998 0.0
O893 O 0.73331 0.15251 0.23742 0.0
O894 O 0.75064 0.16787 0.21128 0.0
O895 O 0.76331 0.20368 0.20123 0.0
C896 C 0.744 0.2327 0.23617 0.0
C897 C 0.75054 0.29158 0.18779 0.0
C898 C 0.74215 0.33737 0.1882 0.0
C899 C 0.76064 0.34061 0.17992 0.0
C900 C 0.76879 0.2953 0.17958 0.0
C901 C 0.77413 0.31979 0.17583 0.0
C902 C 0.73832 0.31278 0.19239 0.0
C903 C 0.67984 0.23167 0.21905 0.0
C904 C 0.74287 0.26565 0.191 0.0
C905 C 0.81707 0.30633 0.22555 0.0
C906 C 0.79584 0.32174 0.2276 0.0
C907 C 0.70913 0.19152 0.20311 0.0
C908 C 0.76485 0.1676 0.24926 0.0
C909 C 0.7927 0.15436 0.2642 0.0
C910 C 0.77933 0.17089 0.27122 0.0
C911 C 0.75117 0.18302 0.25648 0.0
C912 C 0.78582 0.15369 0.25307 0.0
C913 C 0.75886 0.18523 0.26733 0.0
C914 C 0.76475 0.1784 0.20312 0.0
C915 C 0.75566 0.1634 0.23811 0.0
H916 H 0.76407 0.35894 0.17619 0.0
H917 H 0.77854 0.27926 0.17595 0.0
H918 H 0.78806 0.32255 0.1694 0.0
H919 H 0.72498 0.30989 0.19899 0.0
H920 H 0.78361 0.17174 0.27985 0.0
H921 H 0.73414 0.19272 0.2538 0.0
H922 H 0.79592 0.14142 0.24745 0.0
H923 H 0.74821 0.19721 0.27288 0.0
Eu924 Eu 0.58291 0.99431 0.96005 0.0
C925 C 0.67056 0.91497 0.98356 0.0
N926 N 0.65041 0.9303 0.98572 0.0
C927 C 0.63774 0.90303 1.0005 0.0
C928 C 0.67492 0.89271 0.98972 0.0
C929 C 0.63434 0.92499 0.99421 0.0
C930 C 0.658 0.88669 0.9982 0.0
C931 C 0.70946 0.90757 0.97336 0.0
C932 C 0.68753 0.92223 0.97549 0.0
C933 C 0.71351 0.88495 0.97923 0.0
C934 C 0.69625 0.87752 0.98739 0.0
Eu935 Eu 0.64504 0.96605 0.97419 0.0
N936 N 0.68323 0.94432 0.97007 0.0
C937 C 0.72696 0.91641 0.96559 0.0
C938 C 0.70066 0.95356 0.9628 0.0
C939 C 0.72265 0.93965 0.96036 0.0
H940 H 0.61853 0.93739 0.99602 0.0
H941 H 0.73626 0.94686 0.95447 0.0
H942 H 0.59631 0.05442 0.95229 0.0
H943 H 0.51129 0.95941 0.9892 0.0
H944 H 0.69741 0.97152 0.95875 0.0
H945 H 0.74406 0.90572 0.96372 0.0
H946 H 0.54613 0.95542 0.97606 0.0
H947 H 0.62473 0.89872 1.00712 0.0
H948 H 0.73015 0.87333 0.97767 0.0
H949 H 0.69984 0.86027 0.99199 0.0
H950 H 0.58155 0.0977 0.95625 0.0
H951 H 0.66066 0.86975 1.00311 0.0
H952 H 0.49378 1.00166 0.99369 0.0
N953 N 0.57058 1.03669 0.9634 0.0
C954 C 0.55041 0.03994 0.97027 0.0
C955 C 0.57281 0.08165 0.96033 0.0
C956 C 0.54129 0.06449 0.97273 0.0
C957 C 0.58137 0.057 0.95821 0.0
C958 C 0.55282 0.08544 0.96768 0.0
N959 N 0.54887 0.99519 0.97285 0.0
C960 C 0.5389 0.97407 0.97777 0.0
C961 C 0.51927 1.02169 0.98273 0.0
C962 C 0.53933 1.01867 0.97515 0.0
C963 C 0.50912 1.0001 0.9878 0.0
C964 C 0.51898 0.97622 0.9853 0.0
H965 H 0.54631 0.10458 0.96933 0.0
H966 H 0.51396 0.08616 0.98216 0.0
H967 H 0.49485 0.04875 0.99098 0.0
O968 O 0.54769 0.98787 0.95128 0.0
O969 O 0.59253 1.01115 0.97694 0.0
O970 O 0.60785 0.97477 0.98459 0.0
O971 O 0.58061 1.00158 0.94242 0.0
O972 O 0.5782 0.94902 0.96311 0.0
O973 O 0.61274 0.93373 0.97349 0.0
O974 O 0.64874 1.00423 0.98095 0.0
O975 O 0.64903 0.95149 0.95667 0.0
O976 O 0.61521 0.97072 0.96028 0.0
O977 O 0.67457 0.97414 0.98616 0.0
O978 O 0.65648 0.99721 0.96028 0.0
O979 O 0.61968 1.01588 0.9528 0.0
C980 C 0.59602 0.99712 0.98578 0.0
C981 C 0.55282 0.97332 0.93331 0.0
C982 C 0.53754 0.93118 0.92824 0.0
C983 C 0.53896 0.9385 0.91716 0.0
C984 C 0.55462 0.98002 0.92226 0.0
C985 C 0.54792 0.96255 0.91422 0.0
C986 C 0.54501 0.94868 0.93624 0.0
C987 C 0.59016 0.92969 0.96848 0.0
C988 C 0.55759 0.99251 0.94173 0.0
C989 C 0.52114 0.06744 0.98017 0.0
C990 C 0.51022 0.04612 0.98518 0.0
C991 C 0.62749 0.95846 0.95283 0.0
C992 C 0.66387 1.00514 0.99916 0.0
C993 C 0.6792 1.0287 1.01499 0.0
C994 C 0.65862 1.01907 1.02113 0.0
C995 C 0.64462 0.99445 1.00563 0.0
C996 C 0.68126 1.0221 1.00387 0.0
C997 C 0.6416 1.00189 1.01648 0.0
C998 C 0.64545 1.01431 0.95342 0.0
C999 C 0.66694 0.99749 0.98769 0.0
H1000 H 0.53259 0.92592 0.91074 0.0
H1001 H 0.56077 0.99888 0.91986 0.0
H1002 H 0.54902 0.96787 0.90568 0.0
H1003 H 0.54428 0.94328 0.94478 0.0
H1004 H 0.65612 1.02417 1.02962 0.0
H1005 H 0.63217 0.9801 1.00235 0.0
H1006 H 0.69706 1.02904 0.999 0.0
H1007 H 0.62642 0.99384 1.02138 0.0
Eu1008 Eu 0.83447 0.24567 0.86892 0.0
C1009 C 0.90685 0.15329 0.84304 0.0
N1010 N 0.89323 0.17489 0.84143 0.0
C1011 C 0.91834 0.18448 0.82552 0.0
C1012 C 0.92686 0.14642 0.83592 0.0
C1013 C 0.89864 0.19044 0.83278 0.0
C1014 C 0.93258 0.1624 0.82711 0.0
C1015 C 0.91356 0.11472 0.8535 0.0
C1016 C 0.90039 0.13774 0.85171 0.0
C1017 C 0.93371 0.10794 0.84653 0.0
C1018 C 0.94037 0.12377 0.83777 0.0
Eu1019 Eu 0.86089 0.18424 0.85441 0.0
N1020 N 0.88078 0.1448 0.85825 0.0
C1021 C 0.90587 0.09907 0.86215 0.0
C1022 C 0.87286 0.12934 0.86657 0.0
C1023 C 0.88534 0.10637 0.86868 0.0
H1024 H 0.88811 0.20768 0.83141 0.0
H1025 H 0.87911 0.09433 0.87536 0.0
H1026 H 0.77742 0.21545 0.8665 0.0
H1027 H 0.86356 0.33817 0.85308 0.0
H1028 H 0.85714 0.13479 0.87172 0.0
H1029 H 0.91549 0.08125 0.8638 0.0
H1030 H 0.87021 0.2953 0.8606 0.0
H1031 H 0.92256 0.19697 0.81871 0.0
H1032 H 0.94412 0.09039 0.8478 0.0
H1033 H 0.95584 0.11822 0.8324 0.0
H1034 H 0.73324 0.22655 0.86185 0.0
H1035 H 0.94781 0.15782 0.82146 0.0
H1036 H 0.82005 0.35292 0.84863 0.0
N1037 N 0.79205 0.25234 0.86304 0.0
C1038 C 0.78676 0.27621 0.85936 0.0
C1039 C 0.74811 0.24072 0.86117 0.0
C1040 C 0.7617 0.28329 0.85655 0.0
C1041 C 0.77326 0.23452 0.86385 0.0
C1042 C 0.74225 0.26526 0.85761 0.0
N1043 N 0.831 0.28515 0.85988 0.0
C1044 C 0.85122 0.30105 0.85835 0.0
C1045 C 0.80217 0.31756 0.85348 0.0
C1046 C 0.80685 0.29304 0.85769 0.0
C1047 C 0.82287 0.33388 0.85179 0.0
C1048 C 0.84748 0.32557 0.85422 0.0
H1049 H 0.72275 0.26995 0.85551 0.0
H1050 H 0.73775 0.31371 0.85044 0.0
H1051 H 0.77313 0.34379 0.84786 0.0
O1052 O 0.85345 0.27036 0.88062 0.0
O1053 O 0.82233 0.24383 0.85078 0.0
O1054 O 0.85458 0.22043 0.84299 0.0
O1055 O 0.81553 0.25668 0.88412 0.0
O1056 O 0.87881 0.25129 0.86458 0.0
O1057 O 0.89333 0.21628 0.85446 0.0
O1058 O 0.8212 0.18601 0.84897 0.0
O1059 O 0.88147 0.18206 0.87081 0.0
O1060 O 0.85587 0.21197 0.86905 0.0
O1061 O 0.84619 0.15483 0.84386 0.0
O1062 O 0.83121 0.17244 0.86901 0.0
O1063 O 0.81481 0.20914 0.87733 0.0
C1064 C 0.83493 0.23659 0.84197 0.0
C1065 C 0.82363 0.30065 0.88652 0.0
C1066 C 0.83423 0.34543 0.88368 0.0
C1067 C 0.80818 0.35093 0.88241 0.0
C1068 C 0.79763 0.30663 0.88539 0.0
C1069 C 0.79003 0.33165 0.8834 0.0
C1070 C 0.84163 0.32032 0.88601 0.0
C1071 C 0.89769 0.23908 0.85915 0.0
C1072 C 0.8326 0.27401 0.8862 0.0
C1073 C 0.75693 0.30787 0.85255 0.0
C1074 C 0.7771 0.32498 0.85105 0.0
C1075 C 0.87264 0.20193 0.87543 0.0
C1076 C 0.81452 0.16702 0.83153 0.0
C1077 C 0.79051 0.14626 0.81692 0.0
C1078 C 0.80289 0.16234 0.80932 0.0
C1079 C 0.82701 0.18211 0.82378 0.0
C1080 C 0.79575 0.14981 0.82814 0.0
C1081 C 0.82062 0.18036 0.81277 0.0
C1082 C 0.81548 0.18343 0.87645 0.0
C1083 C 0.82388 0.16573 0.84281 0.0
H1084 H 0.80185 0.37003 0.88056 0.0
H1085 H 0.78322 0.29191 0.88561 0.0
H1086 H 0.77002 0.336 0.88233 0.0
H1087 H 0.86162 0.31583 0.88711 0.0
H1088 H 0.80019 0.16029 0.80062 0.0
H1089 H 0.84245 0.1944 0.82616 0.0
H1090 H 0.78639 0.13835 0.8343 0.0
H1091 H 0.83049 0.19202 0.80682 0.0
Eu1092 Eu 0.59521 0.08489 0.62015 0.0
C1093 C 0.68152 0.16039 0.59339 0.0
N1094 N 0.6602 0.14622 0.59198 0.0
C1095 C 0.64618 0.17453 0.57779 0.0
C1096 C 0.68583 0.18257 0.58716 0.0
C1097 C 0.64286 0.1526 0.58412 0.0
C1098 C 0.66765 0.18972 0.57938 0.0
C1099 C 0.72277 0.16526 0.60199 0.0
C1100 C 0.69965 0.15194 0.60071 0.0
C1101 C 0.72683 0.18784 0.59609 0.0
C1102 C 0.70838 0.19649 0.58869 0.0
Eu1103 Eu 0.65506 0.11044 0.60363 0.0
N1104 N 0.69526 0.12991 0.60614 0.0
C1105 C 0.74136 0.15512 0.60894 0.0
C1106 C 0.71373 0.11934 0.61256 0.0
C1107 C 0.73691 0.1319 0.61416 0.0
H1108 H 0.62612 0.14115 0.58283 0.0
H1109 H 0.75133 0.12364 0.61939 0.0
H1110 H 0.61751 1.02475 0.61976 0.0
H1111 H 0.50657 0.12321 0.60298 0.0
H1112 H 0.71044 0.10137 0.61658 0.0
H1113 H 0.75938 0.16476 0.61015 0.0
H1114 H 0.54842 0.12547 0.61161 0.0
H1115 H 0.63216 0.1797 0.5717 0.0
H1116 H 0.74438 0.19846 0.59702 0.0
H1117 H 0.71196 0.21367 0.58403 0.0
H1118 H 0.60246 0.98213 0.61475 0.0
H1119 H 0.67023 0.20664 0.57444 0.0
H1120 H 0.48846 0.08169 0.59775 0.0
N1121 N 0.5836 0.04345 0.6146 0.0
C1122 C 0.55984 0.04077 0.6103 0.0
C1123 C 0.59031 0.99847 0.61345 0.0
C1124 C 0.55055 1.01666 0.60727 0.0
C1125 C 0.5988 1.02275 0.61627 0.0
C1126 C 0.56608 0.99539 0.60895 0.0
N1127 N 0.55534 0.08556 0.61095 0.0
C1128 C 0.54153 0.10718 0.60913 0.0
C1129 C 0.52118 0.06037 0.60343 0.0
C1130 C 0.54543 0.06246 0.60833 0.0
C1131 C 0.50718 0.08251 0.60146 0.0
C1132 C 0.51741 0.10599 0.60433 0.0
H1133 H 0.55962 0.97655 0.60673 0.0
H1134 H 0.51886 0.99618 0.60016 0.0
H1135 H 0.49308 1.03442 0.59686 0.0
O1136 O 0.57077 0.10156 0.63249 0.0
O1137 O 0.59841 0.06979 0.60245 0.0
O1138 O 0.61583 0.10473 0.59436 0.0
O1139 O 0.58924 0.06573 0.63592 0.0
O1140 O 0.59083 0.12977 0.61658 0.0
O1141 O 0.62417 0.14405 0.6053 0.0
O1142 O 0.6545 0.07213 0.59677 0.0
O1143 O 0.66431 0.12346 0.6209 0.0
O1144 O 0.62766 0.10906 0.61926 0.0
O1145 O 0.68179 0.10011 0.59079 0.0
O1146 O 0.66782 0.07915 0.61738 0.0
O1147 O 0.63232 0.06418 0.62711 0.0
C1148 C 0.60188 0.08358 0.59355 0.0
C1149 C 0.54739 0.07169 0.64273 0.0
C1150 C 0.50084 0.07368 0.64191 0.0
C1151 C 0.49985 0.05921 0.65164 0.0
C1152 C 0.54598 0.05742 0.65237 0.0
C1153 C 0.52224 0.05067 0.65665 0.0
C1154 C 0.52488 0.07815 0.63721 0.0
C1155 C 0.60223 0.14862 0.61076 0.0
C1156 C 0.572 0.08197 0.63899 0.0
C1157 C 0.52633 1.01455 0.60251 0.0
C1158 C 0.51167 1.03634 0.60061 0.0
C1159 C 0.64359 0.11899 0.62609 0.0
C1160 C 0.66682 0.07023 0.57814 0.0
C1161 C 0.67823 0.04614 0.56183 0.0
C1162 C 0.65797 0.05786 0.55621 0.0
C1163 C 0.64798 0.08293 0.57215 0.0
C1164 C 0.68205 0.05197 0.57295 0.0
C1165 C 0.64314 0.07629 0.56133 0.0
C1166 C 0.6577 0.0639 0.62527 0.0
C1167 C 0.67212 0.07745 0.5895 0.0
H1168 H 0.48204 0.05542 0.65578 0.0
H1169 H 0.56315 0.05205 0.65671 0.0
H1170 H 0.52119 0.03988 0.66418 0.0
H1171 H 0.52626 0.08804 0.62951 0.0
H1172 H 0.65417 0.05345 0.54773 0.0
H1173 H 0.63735 0.09827 0.57578 0.0
H1174 H 0.69771 0.04345 0.57741 0.0
H1175 H 0.62834 0.08598 0.55679 0.0
Eu1176 Eu 0.74373 0.83982 0.36675 0.0
C1177 C 0.6662 0.93117 0.34364 0.0
N1178 N 0.68084 0.91043 0.34171 0.0
C1179 C 0.65492 0.89996 0.3262 0.0
C1180 C 0.64511 0.93706 0.33696 0.0
C1181 C 0.6757 0.895 0.33303 0.0
C1182 C 0.63947 0.92101 0.3282 0.0
C1183 C 0.65883 0.96933 0.35418 0.0
C1184 C 0.67287 0.94699 0.35214 0.0
C1185 C 0.63748 0.97504 0.34772 0.0
C1186 C 0.63061 0.95891 0.33912 0.0
Eu1187 Eu 0.71481 0.90247 0.35404 0.0
N1188 N 0.6937 0.94102 0.35815 0.0
C1189 C 0.66696 0.98548 0.36255 0.0
C1190 C 0.70217 0.95706 0.3661 0.0
C1191 C 0.68885 0.97939 0.36848 0.0
H1192 H 0.6873 0.87858 0.33138 0.0
H1193 H 0.6955 0.99189 0.37487 0.0
H1194 H 0.8037 0.85909 0.37319 0.0
H1195 H 0.71335 0.7661 0.33804 0.0
H1196 H 0.71906 0.95254 0.37071 0.0
H1197 H 0.65671 1.00282 0.36438 0.0
H1198 H 0.70739 0.8013 0.35081 0.0
H1199 H 0.65084 0.88751 0.3194 0.0
H1200 H 0.62636 0.99204 0.3492 0.0
H1201 H 0.61429 0.96369 0.3341 0.0
H1202 H 0.84772 0.84686 0.36921 0.0
H1203 H 0.62343 0.92485 0.32288 0.0
H1204 H 0.75666 0.75055 0.3338 0.0
N1205 N 0.78713 0.83079 0.36299 0.0
C1206 C 0.79165 0.81041 0.35644 0.0
C1207 C 0.83212 0.83655 0.36551 0.0
C1208 C 0.81679 0.80274 0.35397 0.0
C1209 C 0.80694 0.8436 0.36766 0.0
C1210 C 0.83709 0.81609 0.35862 0.0
N1211 N 0.74706 0.8063 0.3539 0.0
C1212 C 0.72647 0.79503 0.34911 0.0
C1213 C 0.77525 0.7776 0.34443 0.0
C1214 C 0.77107 0.79785 0.35175 0.0
C1215 C 0.75421 0.7661 0.33949 0.0
C1216 C 0.72975 0.77488 0.34183 0.0
H1217 H 0.85665 0.81076 0.35694 0.0
H1218 H 0.84011 0.77617 0.34489 0.0
H1219 H 0.80377 0.75426 0.33649 0.0
O1220 O 0.73088 0.80566 0.37452 0.0
O1221 O 0.75906 0.84967 0.34964 0.0
O1222 O 0.72274 0.86683 0.34254 0.0
O1223 O 0.75572 0.83123 0.3838 0.0
O1224 O 0.6986 0.83469 0.36285 0.0
O1225 O 0.68197 0.87089 0.35417 0.0
O1226 O 0.75447 0.90344 0.3486 0.0
O1227 O 0.69986 0.90448 0.37165 0.0
O1228 O 0.71871 0.87108 0.36758 0.0
O1229 O 0.72741 0.93242 0.34311 0.0
O1230 O 0.74454 0.91316 0.36846 0.0
O1231 O 0.76299 0.87602 0.37555 0.0
C1232 C 0.74459 0.85409 0.34103 0.0
C1233 C 0.74087 0.79182 0.39266 0.0
C1234 C 0.72078 0.75368 0.3999 0.0
C1235 C 0.73519 0.75607 0.40951 0.0
C1236 C 0.755 0.79435 0.40231 0.0
C1237 C 0.7522 0.7764 0.4107 0.0
C1238 C 0.72397 0.77146 0.39154 0.0
C1239 C 0.67862 0.84729 0.35825 0.0
C1240 C 0.74298 0.80996 0.38359 0.0
C1241 C 0.82094 0.78228 0.34686 0.0
C1242 C 0.80024 0.76978 0.34209 0.0
C1243 C 0.70638 0.88258 0.37525 0.0
C1244 C 0.76031 0.92158 0.331 0.0
C1245 C 0.78809 0.93994 0.31697 0.0
C1246 C 0.77499 0.92534 0.30909 0.0
C1247 C 0.74746 0.90762 0.32301 0.0
C1248 C 0.78111 0.9368 0.32804 0.0
C1249 C 0.75524 0.909 0.31215 0.0
C1250 C 0.76128 0.90175 0.37532 0.0
C1251 C 0.75043 0.92304 0.34219 0.0
H1252 H 0.73302 0.74255 0.41613 0.0
H1253 H 0.76815 0.81001 0.40335 0.0
H1254 H 0.76313 0.7783 0.41814 0.0
H1255 H 0.71319 0.76924 0.38405 0.0
H1256 H 0.7789 0.92717 0.30046 0.0
H1257 H 0.731 0.89627 0.32512 0.0
H1258 H 0.79095 0.9469 0.33446 0.0
H1259 H 0.74514 0.89827 0.30599 0.0
Eu1260 Eu 0.99491 0.98865 0.11997 0.0
C1261 C 0.91156 0.91168 0.09716 0.0
N1262 N 0.93123 0.92703 0.09432 0.0
C1263 C 0.94302 0.8982 0.08 0.0
C1264 C 0.90715 0.88856 0.09168 0.0
C1265 C 0.9465 0.92099 0.08565 0.0
C1266 C 0.92342 0.88176 0.0831 0.0
C1267 C 0.87352 0.90514 0.108 0.0
C1268 C 0.89506 0.91983 0.10518 0.0
C1269 C 0.86954 0.88162 0.10289 0.0
C1270 C 0.88634 0.87333 0.09474 0.0
Eu1271 Eu 0.93744 0.96431 0.10487 0.0
N1272 N 0.89928 0.94282 0.1098 0.0
C1273 C 0.85629 0.91487 0.11565 0.0
C1274 C 0.88185 0.95291 0.11686 0.0
C1275 C 0.86033 0.939 0.12 0.0
H1276 H 0.96189 0.93336 0.08324 0.0
H1277 H 0.84683 0.94696 0.12574 0.0
H1278 H 0.9735 0.04955 0.11971 0.0
H1279 H 0.08192 0.94865 0.10168 0.0
H1280 H 0.88449 0.97166 0.1202 0.0
H1281 H 0.83952 0.90419 0.11804 0.0
H1282 H 0.04305 0.94767 0.11262 0.0
H1283 H 0.95549 0.89332 0.07328 0.0
H1284 H 0.85323 0.86997 0.10501 0.0
H1285 H 0.88275 0.85542 0.09069 0.0
H1286 H 0.98728 0.09111 0.11277 0.0
H1287 H 0.9207 0.86415 0.07869 0.0
H1288 H 0.09663 0.98886 0.09338 0.0
N1289 N 1.00528 1.02952 0.11312 0.0
C1290 C 1.02791 1.03134 0.10765 0.0
C1291 C 0.99879 0.07444 0.11124 0.0
C1292 C 1.03629 0.05492 0.10345 0.0
C1293 C 0.99101 0.05071 0.11515 0.0
C1294 C 1.02144 0.07655 0.10533 0.0
N1295 N 1.03369 0.98668 0.10989 0.0
C1296 C 0.04813 0.96522 0.10869 0.0
C1297 C 0.06492 1.01072 0.09967 0.0
C1298 C 0.04209 1.00933 0.10578 0.0
C1299 C 0.07904 0.98853 0.09803 0.0
C1300 C 0.07072 0.96577 0.10264 0.0
H1301 H 1.02727 0.09497 0.10223 0.0
H1302 H 0.06553 0.0741 0.09403 0.0
H1303 H 0.09057 1.03548 0.09072 0.0
O1304 O 1.0307 0.99078 0.12889 0.0
O1305 O 0.98585 1.00501 0.10274 0.0
O1306 O 0.97529 0.96859 0.09494 0.0
O1307 O 0.99597 1.00234 0.13685 0.0
O1308 O 1.00021 0.9439 0.11636 0.0
O1309 O 0.96558 0.92927 0.10647 0.0
O1310 O 0.93574 1.00148 0.0969 0.0
O1311 O 0.93332 0.9611 0.12305 0.0
O1312 O 0.97479 0.95479 0.12713 0.0
O1313 O 0.90845 0.9722 0.09256 0.0
O1314 O 0.9239 0.9955 0.11822 0.0
O1315 O 0.95927 1.01061 0.12741 0.0
C1316 C 0.98696 0.99064 0.09398 0.0
C1317 C 1.02536 0.97873 0.14718 0.0
C1318 C 1.03924 0.9369 0.15354 0.0
C1319 C 1.0364 0.94543 0.16439 0.0
C1320 C 1.02252 0.98676 0.158 0.0
C1321 C 1.02781 0.97004 0.16657 0.0
C1322 C 1.03296 0.95364 0.14501 0.0
C1323 C 0.98825 0.92474 0.1111 0.0
C1324 C 1.01979 0.99618 0.13812 0.0
C1325 C 0.05892 0.05618 0.09736 0.0
C1326 C 0.07314 1.03416 0.09545 0.0
C1327 C 0.95097 0.95533 0.13013 0.0
C1328 C 0.92102 1.00074 0.07869 0.0
C1329 C 0.90747 1.0233 0.06224 0.0
C1330 C 0.92792 1.01226 0.05651 0.0
C1331 C 0.9404 0.98895 0.07268 0.0
C1332 C 0.90452 1.0178 0.07345 0.0
C1333 C 0.94417 0.9951 0.06171 0.0
C1334 C 0.93399 1.01113 0.12584 0.0
C1335 C 0.91734 0.99479 0.09033 0.0
H1336 H 0.04157 0.9335 0.17126 0.0
H1337 H 1.01626 1.00591 0.1598 0.0
H1338 H 1.02577 0.97634 0.17493 0.0
H1339 H 1.03404 0.9472 0.13663 0.0
H1340 H 0.931 1.01643 0.04794 0.0
H1341 H 0.95247 0.97487 0.07644 0.0
H1342 H 0.88878 1.02588 0.07802 0.0
H1343 H 0.95943 0.98619 0.05716 0.0
Eu1344 Eu 0.72115 0.68406 0.856 0.0
C1345 C 0.79612 0.77566 0.85768 0.0
N1346 N 0.79278 0.75434 0.86389 0.0
C1347 C 0.83796 0.74719 0.86405 0.0
C1348 C 0.8207 0.78306 0.85419 0.0
C1349 C 0.81331 0.74038 0.86725 0.0
C1350 C 0.84168 0.76855 0.85748 0.0
C1351 C 0.77781 0.81081 0.84739 0.0
C1352 C 0.77475 0.78946 0.8543 0.0
C1353 C 0.80228 0.81813 0.84398 0.0
C1354 C 0.82364 0.80435 0.84739 0.0
Eu1355 Eu 0.75028 0.74591 0.86933 0.0
N1356 N 0.75107 0.7818 0.85755 0.0
C1357 C 0.75617 0.82424 0.84407 0.0
C1358 C 0.72999 0.7954 0.85455 0.0
C1359 C 0.73221 0.81658 0.84772 0.0
H1360 H 0.81109 0.72401 0.87243 0.0
H1361 H 0.7154 0.82714 0.84534 0.0
H1362 H 0.69406 0.70945 0.83348 0.0
H1363 H 0.70036 0.59392 0.8762 0.0
H1364 H 0.71131 0.79062 0.8575 0.0
H1365 H 0.75777 0.84069 0.83877 0.0
H1366 H 0.72511 0.63266 0.87202 0.0
H1367 H 0.85411 0.73596 0.86669 0.0
H1368 H 0.80489 0.83444 0.83867 0.0
H1369 H 0.84237 0.81021 0.84462 0.0
H1370 H 0.65667 0.70238 0.82179 0.0
H1371 H 0.86083 0.77364 0.85498 0.0
H1372 H 0.66037 0.58516 0.86619 0.0
N1373 N 0.68654 0.67777 0.84385 0.0
C1374 C 0.67118 0.65757 0.84586 0.0
C1375 C 0.6605 0.68964 0.82855 0.0
C1376 C 0.64958 0.65273 0.83934 0.0
C1377 C 0.68178 0.69354 0.8352 0.0
C1378 C 0.64421 0.66925 0.83066 0.0
N1379 N 0.69914 0.64595 0.86 0.0
C1380 C 0.70767 0.62905 0.86764 0.0
C1381 C 0.663 0.61917 0.85625 0.0
C1382 C 0.67771 0.64111 0.8542 0.0
C1383 C 0.67112 0.60223 0.86437 0.0
C1384 C 0.69369 0.60709 0.87002 0.0
H1385 H 0.62779 0.66621 0.82547 0.0
H1386 H 0.61761 0.62742 0.83667 0.0
H1387 H 0.62943 0.59795 0.85148 0.0
O1388 O 0.76035 0.68177 0.84998 0.0
O1389 O 0.70653 0.68081 0.87354 0.0
O1390 O 0.72419 0.71527 0.86985 0.0
O1391 O 0.73202 0.65376 0.84496 0.0
O1392 O 0.7509 0.67293 0.87039 0.0
O1393 O 0.77073 0.70946 0.87728 0.0
O1394 O 0.75066 0.78179 0.87791 0.0
O1395 O 0.76637 0.73523 0.8524 0.0
O1396 O 0.72971 0.72027 0.84494 0.0
O1397 O 0.75641 0.74736 0.8871 0.0
O1398 O 0.7051 0.75148 0.86547 0.0
O1399 O 0.68857 0.71601 0.85625 0.0
C1400 C 0.71247 0.70257 0.8774 0.0
C1401 C 0.76415 0.66357 0.83234 0.0
C1402 C 0.78832 0.64328 0.81764 0.0
C1403 C 0.77604 0.65965 0.81013 0.0
C1404 C 0.75203 0.67928 0.82471 0.0
C1405 C 0.75847 0.67776 0.81369 0.0
C1406 C 0.78286 0.64642 0.82886 0.0
C1407 C 0.76824 0.68384 0.8771 0.0
C1408 C 0.75522 0.66235 0.84368 0.0
C1409 C 0.63435 0.63137 0.84155 0.0
C1410 C 0.64107 0.6146 0.84999 0.0
C1411 C 0.75195 0.73234 0.84366 0.0
C1412 C 0.73478 0.78126 0.89583 0.0
C1413 C 0.69718 0.80626 0.90045 0.0
C1414 C 0.70094 0.80016 0.91154 0.0
C1415 C 0.73826 0.77533 0.9069 0.0
C1416 C 0.71409 0.79652 0.89267 0.0
C1417 C 0.72128 0.78466 0.91471 0.0
C1418 C 0.68517 0.7393 0.86062 0.0
C1419 C 0.75272 0.77177 0.88757 0.0
H1420 H 0.77888 0.65792 0.80142 0.0
H1421 H 0.73706 0.69211 0.82722 0.0
H1422 H 0.74891 0.68985 0.80781 0.0
H1423 H 0.79221 0.63489 0.83499 0.0
H1424 H 0.68847 0.8077 0.9178 0.0
H1425 H 0.75407 0.76352 0.90948 0.0
H1426 H 0.71086 0.80055 0.8841 0.0
H1427 H 0.72403 0.78008 0.92325 0.0
Eu1428 Eu 0.64805 0.46955 0.10312 0.0
C1429 C 0.55254 0.53928 0.10971 0.0
N1430 N 0.57617 0.53615 0.11411 0.0
C1431 C 0.58336 0.58111 0.11321 0.0
C1432 C 0.54355 0.56364 0.10681 0.0
C1433 C 0.59158 0.55661 0.11589 0.0
C1434 C 0.55922 0.58467 0.10869 0.0
C1435 C 0.51392 0.52044 0.10244 0.0
C1436 C 0.53797 0.51785 0.10748 0.0
C1437 C 0.5047 0.54472 0.09978 0.0
C1438 C 0.51947 0.56625 0.10195 0.0
Eu1439 Eu 0.58719 0.49419 0.11931 0.0
N1440 N 0.54765 0.49448 0.1099 0.0
C1441 C 0.49987 0.49854 0.10014 0.0
C1442 C 0.53381 0.4731 0.10775 0.0
C1443 C 0.50985 0.47479 0.10283 0.0
H1444 H 0.61027 0.55434 0.11935 0.0
H1445 H 0.49898 0.45774 0.1012 0.0
H1446 H 0.62081 0.43962 0.08179 0.0
H1447 H 0.7435 0.45654 0.11988 0.0
H1448 H 0.54057 0.45459 0.11006 0.0
H1449 H 0.4813 0.49975 0.09632 0.0
H1450 H 0.70258 0.47859 0.11672 0.0
H1451 H 0.59568 0.59726 0.11463 0.0
H1452 H 0.48625 0.54703 0.09593 0.0
H1453 H 0.51223 0.58482 0.0997 0.0
H1454 H 0.62782 0.40154 0.07058 0.0
H1455 H 0.55299 0.60368 0.10657 0.0
H1456 H 0.75245 0.41585 0.11055 0.0
N1457 N 0.65429 0.43437 0.09134 0.0
C1458 C 0.67561 0.42028 0.09294 0.0
C1459 C 0.64139 0.40654 0.07687 0.0
C1460 C 0.68049 0.3984 0.08665 0.0
C1461 C 0.6375 0.42819 0.08325 0.0
C1462 C 0.66286 0.39143 0.07864 0.0
N1463 N 0.68828 0.45033 0.10599 0.0
C1464 C 0.70628 0.46081 0.11265 0.0
C1465 C 0.71635 0.41538 0.10198 0.0
C1466 C 0.69321 0.42856 0.1005 0.0
C1467 C 0.73443 0.42539 0.10919 0.0
C1468 C 0.72947 0.44838 0.11445 0.0
H1469 H 0.66589 0.37474 0.07364 0.0
H1470 H 0.70706 0.36762 0.08369 0.0
H1471 H 0.73854 0.38255 0.09711 0.0
O1472 O 0.64718 0.50801 0.09636 0.0
O1473 O 0.6566 0.45582 0.12039 0.0
O1474 O 0.62025 0.47091 0.1185 0.0
O1475 O 0.67543 0.48069 0.09065 0.0
O1476 O 0.65981 0.50089 0.11691 0.0
O1477 O 0.62392 0.51489 0.12665 0.0
O1478 O 0.56492 0.47408 0.13142 0.0
O1479 O 0.58997 0.50886 0.10151 0.0
O1480 O 0.60919 0.47473 0.09352 0.0
O1481 O 0.57665 0.51253 0.1348 0.0
O1482 O 0.58293 0.44975 0.11521 0.0
O1483 O 0.61735 0.43573 0.10451 0.0
C1484 C 0.63567 0.46029 0.12538 0.0
C1485 C 0.66154 0.51129 0.07802 0.0
C1486 C 0.67599 0.53511 0.06203 0.0
C1487 C 0.65543 0.5251 0.05605 0.0
C1488 C 0.64236 0.50018 0.0717 0.0
C1489 C 0.63884 0.50763 0.06086 0.0
C1490 C 0.67842 0.52861 0.07316 0.0
C1491 C 0.64932 0.51575 0.12481 0.0
C1492 C 0.66558 0.50331 0.08939 0.0
C1493 C 0.70305 0.38458 0.08838 0.0
C1494 C 0.72096 0.39307 0.09603 0.0
C1495 C 0.59449 0.49538 0.09265 0.0
C1496 C 0.53559 0.49959 0.14092 0.0
C1497 C 0.49037 0.488 0.14054 0.0
C1498 C 0.48587 0.50605 0.14883 0.0
C1499 C 0.53065 0.51737 0.14913 0.0
C1500 C 0.51521 0.48597 0.13633 0.0
C1501 C 0.50578 0.5209 0.15291 0.0
C1502 C 0.59495 0.43104 0.10962 0.0
C1503 C 0.56204 0.4937 0.13772 0.0
H1504 H 0.65271 0.53008 0.04754 0.0
H1505 H 0.63056 0.48536 0.07507 0.0
H1506 H 0.62372 0.49924 0.05606 0.0
H1507 H 0.69428 0.53577 0.0779 0.0
H1508 H 0.46728 0.5081 0.15255 0.0
H1509 H 0.54604 0.52815 0.15275 0.0
H1510 H 0.51895 0.47294 0.12973 0.0
H1511 H 0.50208 0.53447 0.15934 0.0
Eu1512 Eu 0.86666 0.39383 0.35527 0.0
C1513 C 0.79466 0.29958 0.36034 0.0
N1514 N 0.79762 0.32074 0.36661 0.0
C1515 C 0.75231 0.3237 0.36894 0.0
C1516 C 0.77011 0.29023 0.35787 0.0
C1517 C 0.77693 0.33245 0.37112 0.0
C1518 C 0.74886 0.3026 0.36225 0.0
C1519 C 0.81344 0.26671 0.34897 0.0
C1520 C 0.8162 0.28779 0.35598 0.0
C1521 C 0.78903 0.25737 0.34658 0.0
C1522 C 0.76746 0.26904 0.35103 0.0
Eu1523 Eu 0.84021 0.33274 0.37028 0.0
N1524 N 0.83969 0.29756 0.3582 0.0
C1525 C 0.83528 0.25582 0.3444 0.0
C1526 C 0.86105 0.28685 0.35377 0.0
C1527 C 0.85915 0.26595 0.34681 0.0
H1528 H 0.77904 0.34833 0.37654 0.0
H1529 H 0.87616 0.25764 0.34331 0.0
H1530 H 0.89525 0.36659 0.33353 0.0
H1531 H 0.88387 0.48722 0.37296 0.0
H1532 H 0.87973 0.2941 0.35548 0.0
H1533 H 0.83391 0.23968 0.33896 0.0
H1534 H 0.8602 0.44742 0.36959 0.0
H1535 H 0.73598 0.33318 0.3725 0.0
H1536 H 0.78662 0.24121 0.34121 0.0
H1537 H 0.74875 0.26167 0.34905 0.0
H1538 H 0.93319 0.37298 0.32203 0.0
H1539 H 0.72973 0.29595 0.36056 0.0
H1540 H 0.92454 0.49534 0.36329 0.0
N1541 N 0.90178 0.3994 0.34326 0.0
C1542 C 0.91668 0.42008 0.34492 0.0
C1543 C 0.92881 0.38637 0.32846 0.0
C1544 C 0.93855 0.42457 0.33849 0.0
C1545 C 0.90722 0.38285 0.335 0.0
C1546 C 0.94468 0.40721 0.33026 0.0
N1547 N 0.88756 0.43293 0.35841 0.0
C1548 C 0.87798 0.45077 0.36538 0.0
C1549 C 0.92339 0.45993 0.35434 0.0
C1550 C 0.9093 0.43743 0.35275 0.0
C1551 C 0.91429 0.47781 0.36184 0.0
C1552 C 0.89133 0.47331 0.36729 0.0
H1553 H 0.96133 0.40995 0.32515 0.0
H1554 H 0.97019 0.45016 0.33549 0.0
H1555 H 0.95684 0.48121 0.34937 0.0
O1556 O 0.82773 0.39494 0.34887 0.0
O1557 O 0.88019 0.40061 0.37264 0.0
O1558 O 0.86565 0.36427 0.37017 0.0
O1559 O 0.85583 0.42301 0.34363 0.0
O1560 O 0.83593 0.40529 0.36937 0.0
O1561 O 0.8184 0.36891 0.3775 0.0
O1562 O 0.8461 0.29762 0.37921 0.0
O1563 O 0.8234 0.34034 0.35299 0.0
O1564 O 0.85893 0.35671 0.34494 0.0
O1565 O 0.83294 0.3307 0.38794 0.0
O1566 O 0.88553 0.32847 0.36712 0.0
O1567 O 0.90007 0.36235 0.35618 0.0
C1568 C 0.87577 0.37931 0.37731 0.0
C1569 C 0.82432 0.41212 0.33097 0.0
C1570 C 0.80028 0.43145 0.31597 0.0
C1571 C 0.81347 0.41538 0.30865 0.0
C1572 C 0.83735 0.39672 0.32354 0.0
C1573 C 0.83143 0.39787 0.31246 0.0
C1574 C 0.80523 0.42858 0.32725 0.0
C1575 C 0.81938 0.39448 0.37656 0.0
C1576 C 0.83282 0.41404 0.34234 0.0
C1577 C 0.95324 0.44646 0.34031 0.0
C1578 C 0.94565 0.46413 0.34821 0.0
C1579 C 0.8371 0.34386 0.34401 0.0
C1580 C 0.86033 0.30226 0.39728 0.0
C1581 C 0.90251 0.28701 0.40265 0.0
C1582 C 0.89534 0.28995 0.41369 0.0
C1583 C 0.85369 0.3052 0.40828 0.0
C1584 C 0.88486 0.29364 0.39451 0.0
C1585 C 0.87124 0.29923 0.41645 0.0
C1586 C 0.90457 0.3401 0.36143 0.0
C1587 C 0.84143 0.30752 0.38872 0.0
H1588 H 0.81104 0.4169 0.2999 0.0
H1589 H 0.85265 0.38451 0.32626 0.0
H1590 H 0.84169 0.38603 0.30672 0.0
H1591 H 0.7952 0.43987 0.33324 0.0
H1592 H 0.90798 0.28441 0.42026 0.0
H1593 H 0.83491 0.31193 0.41055 0.0
H1594 H 0.89018 0.29214 0.38599 0.0
H1595 H 0.86598 0.30135 0.42495 0.0
Eu1596 Eu 0.93194 0.61447 0.60318 0.0
C1597 C 1.02295 0.54787 0.60552 0.0
N1598 N 0.99983 0.54895 0.61061 0.0
C1599 C 0.99369 0.50433 0.60769 0.0
C1600 C 1.03175 0.52494 0.60092 0.0
C1601 C 0.98554 0.52747 0.61204 0.0
C1602 C 1.01678 0.50308 0.60204 0.0
C1603 C 0.0612 0.56934 0.59916 0.0
C1604 C 1.03752 0.56996 0.60466 0.0
C1605 C 0.06967 0.54664 0.59438 0.0
C1606 C 0.05504 0.52451 0.59528 0.0
Eu1607 Eu 0.98863 0.58879 0.61816 0.0
N1608 N 1.02898 0.59178 0.60941 0.0
C1609 C 0.07598 0.59143 0.5988 0.0
C1610 C 0.04414 0.61291 0.60962 0.0
C1611 C 0.06756 0.61318 0.60418 0.0
H1612 H 0.96768 0.52814 0.61637 0.0
H1613 H 0.07932 0.63006 0.6043 0.0
H1614 H 0.95721 0.6454 0.5816 0.0
H1615 H 0.8414 0.63298 0.62393 0.0
H1616 H 1.03888 0.6294 0.61427 0.0
H1617 H 0.09425 0.59168 0.59467 0.0
H1618 H 0.87886 0.60795 0.61861 0.0
H1619 H 0.98212 0.48746 0.60868 0.0
H1620 H 0.08773 0.54592 0.59008 0.0
H1621 H 0.06197 0.50712 0.59161 0.0
H1622 H 0.95124 0.68539 0.57149 0.0
H1623 H 1.02292 0.48513 0.59862 0.0
H1624 H 0.83434 0.67557 0.61589 0.0
N1625 N 0.92612 0.65174 0.59246 0.0
C1626 C 0.90646 0.66719 0.59514 0.0
C1627 C 0.93851 0.68054 0.57814 0.0
C1628 C 0.90232 0.69033 0.58957 0.0
C1629 C 0.94174 0.65776 0.58388 0.0
C1630 C 0.91885 0.69704 0.58106 0.0
N1631 N 0.89384 0.6363 0.60792 0.0
C1632 C 0.87638 0.62656 0.61509 0.0
C1633 C 0.86835 0.67414 0.60587 0.0
C1634 C 0.88979 0.65923 0.60316 0.0
C1635 C 0.85103 0.66472 0.61358 0.0
C1636 C 0.85494 0.64069 0.61812 0.0
H1637 H 0.91635 0.71466 0.57659 0.0
H1638 H 0.87816 0.72364 0.58837 0.0
H1639 H 0.84834 0.70942 0.60268 0.0
O1640 O 0.93012 0.57691 0.59568 0.0
O1641 O 0.92833 0.61766 0.6214 0.0
O1642 O 0.97001 0.62318 0.62545 0.0
O1643 O 0.9035 0.60636 0.59069 0.0
O1644 O 0.91743 0.58399 0.61667 0.0
O1645 O 0.95269 0.56649 0.62509 0.0
O1646 O 1.02282 0.58297 0.62787 0.0
O1647 O 0.9798 0.57315 0.60086 0.0
O1648 O 0.96977 0.60995 0.59319 0.0
O1649 O 0.98622 0.57445 0.63495 0.0
O1650 O 0.99482 0.63376 0.61456 0.0
O1651 O 0.96018 0.64927 0.60488 0.0
C1652 C 0.94615 0.62352 0.62838 0.0
C1653 C 0.91659 0.57689 0.57733 0.0
C1654 C 0.90544 0.55162 0.56135 0.0
C1655 C 0.92506 0.56371 0.55545 0.0
C1656 C 0.93514 0.58958 0.57114 0.0
C1657 C 0.93969 0.58266 0.56032 0.0
C1658 C 0.90171 0.55802 0.57241 0.0
C1659 C 0.92734 0.56728 0.62393 0.0
C1660 C 0.91222 0.58353 0.58883 0.0
C1661 C 0.88155 0.70571 0.5925 0.0
C1662 C 0.86458 0.69763 0.60064 0.0
C1663 C 0.98119 0.58778 0.59216 0.0
C1664 C 1.01613 0.59505 0.64613 0.0
C1665 C 1.03722 0.63275 0.65314 0.0
C1666 C 1.0246 0.62962 0.66316 0.0
C1667 C 1.0039 0.59173 0.65624 0.0
C1668 C 1.0328 0.61559 0.64469 0.0
C1669 C 1.00813 0.60901 0.66471 0.0
C1670 C 0.98298 0.65337 0.60944 0.0
C1671 C 1.01029 0.57841 0.63683 0.0
H1672 H 0.92869 0.55894 0.54699 0.0
H1673 H 0.94605 0.60485 0.57466 0.0
H1674 H 0.9543 0.59231 0.55564 0.0
H1675 H 0.88657 0.54915 0.57709 0.0
H1676 H 1.02801 0.64263 0.66984 0.0
H1677 H 0.99077 0.57611 0.65751 0.0
H1678 H 0.04245 0.61851 0.63695 0.0
H1679 H 0.99854 0.60649 0.67248 0.0
Eu1680 Eu 0.71217 0.39931 0.7232 0.0
C1681 C 0.78102 0.30363 0.71694 0.0
N1682 N 0.77795 0.32724 0.71256 0.0
C1683 C 0.82315 0.33389 0.71297 0.0
C1684 C 0.80547 0.29434 0.71957 0.0
C1685 C 0.79854 0.34239 0.71054 0.0
C1686 C 0.82666 0.30974 0.71745 0.0
C1687 C 0.76194 0.26549 0.72458 0.0
C1688 C 0.75944 0.28944 0.71948 0.0
C1689 C 0.78631 0.25591 0.72693 0.0
C1690 C 0.808 0.2703 0.72445 0.0
Eu1691 Eu 0.73589 0.3383 0.70746 0.0
N1692 N 0.73603 0.29949 0.71736 0.0
C1693 C 0.73987 0.25196 0.72728 0.0
C1694 C 0.71446 0.28627 0.71997 0.0
C1695 C 0.71605 0.26242 0.72498 0.0
H1696 H 0.79625 0.36104 0.70706 0.0
H1697 H 0.69887 0.25201 0.72697 0.0
H1698 H 0.68153 0.37262 0.74461 0.0
H1699 H 0.70106 0.49456 0.70618 0.0
H1700 H 0.69587 0.29351 0.71801 0.0
H1701 H 0.74101 0.23347 0.73117 0.0
H1702 H 0.72206 0.45314 0.70923 0.0
H1703 H 0.83942 0.34598 0.71136 0.0
H1704 H 0.78856 0.23751 0.73081 0.0
H1705 H 0.82665 0.26281 0.72648 0.0
H1706 H 0.64403 0.38081 0.75614 0.0
H1707 H 0.84575 0.30328 0.71936 0.0
H1708 H 0.66103 0.50481 0.71594 0.0
N1709 N 0.67732 0.40643 0.73519 0.0
C1710 C 0.66386 0.42816 0.7337 0.0
C1711 C 0.64936 0.39428 0.74984 0.0
C1712 C 0.64229 0.43369 0.74016 0.0
C1713 C 0.6707 0.38974 0.74328 0.0
C1714 C 0.63495 0.41626 0.74823 0.0
N1715 N 0.69382 0.43984 0.72032 0.0
C1716 C 0.70453 0.45739 0.71348 0.0
C1717 C 0.65984 0.46891 0.72461 0.0
C1718 C 0.6724 0.44544 0.72602 0.0
C1719 C 0.6701 0.48656 0.71725 0.0
C1720 C 0.69271 0.48086 0.71174 0.0
H1721 H 0.61849 0.41979 0.75335 0.0
H1722 H 0.61242 0.46115 0.74337 0.0
H1723 H 0.62786 0.49206 0.72976 0.0
O1724 O 0.75113 0.39773 0.72948 0.0
O1725 O 0.69863 0.40773 0.70585 0.0
O1726 O 0.71235 0.37112 0.70804 0.0
O1727 O 0.72463 0.42673 0.73526 0.0
O1728 O 0.74372 0.41038 0.70934 0.0
O1729 O 0.7565 0.37447 0.69948 0.0
O1730 O 0.71756 0.31267 0.69611 0.0
O1731 O 0.75131 0.34146 0.72517 0.0
O1732 O 0.71772 0.36132 0.7334 0.0
O1733 O 0.75354 0.32977 0.69162 0.0
O1734 O 0.69097 0.33486 0.71132 0.0
O1735 O 0.67751 0.36928 0.72205 0.0
C1736 C 0.70253 0.38661 0.70099 0.0
C1737 C 0.75553 0.41259 0.74765 0.0
C1738 C 0.78196 0.42637 0.76294 0.0
C1739 C 0.76849 0.40949 0.7698 0.0
C1740 C 0.74179 0.39671 0.75471 0.0
C1741 C 0.74869 0.39467 0.76567 0.0
C1742 C 0.77581 0.42705 0.75173 0.0
C1743 C 0.75798 0.39975 0.7013 0.0
C1744 C 0.74715 0.41641 0.73635 0.0
C1745 C 0.62911 0.45663 0.73853 0.0
C1746 C 0.63788 0.47422 0.73078 0.0
C1747 C 0.73831 0.34644 0.73417 0.0
C1748 C 0.74637 0.28707 0.68628 0.0
C1749 C 0.74272 0.24078 0.68768 0.0
C1750 C 0.75972 0.23867 0.67877 0.0
C1751 C 0.76317 0.28447 0.67747 0.0
C1752 C 0.73741 0.26521 0.69168 0.0
C1753 C 0.77021 0.26033 0.67389 0.0
C1754 C 0.67236 0.34709 0.71695 0.0
C1755 C 0.73674 0.31237 0.68935 0.0
H1756 H 0.7722 0.40864 0.77849 0.0
H1757 H 0.72533 0.38646 0.7518 0.0
H1758 H 0.73798 0.38235 0.77108 0.0
H1759 H 0.786 0.4396 0.74622 0.0
H1760 H 0.76417 0.22048 0.67516 0.0
H1761 H 0.77045 0.30107 0.67325 0.0
H1762 H 0.72534 0.26738 0.69876 0.0
H1763 H 0.783 0.2584 0.667 0.0
Eu1764 Eu 0.9355 0.46439 0.97518 0.0
C1765 C 1.03028 0.53535 0.96993 0.0
N1766 N 1.00919 0.53269 0.96353 0.0
C1767 C 1.00642 0.57794 0.96143 0.0
C1768 C 1.03963 0.55968 0.97261 0.0
C1769 C 0.99764 0.5535 0.95906 0.0
C1770 C 1.02739 0.58106 0.96828 0.0
C1771 C 0.06304 0.51607 0.98126 0.0
C1772 C 0.042 0.51367 0.97416 0.0
C1773 C 0.07234 0.54028 0.98391 0.0
C1774 C 0.06072 0.562 0.97958 0.0
Eu1775 Eu 0.99667 0.49049 0.95969 0.0
N1776 N 1.03227 0.49036 0.97168 0.0
C1777 C 0.07399 0.49408 0.98564 0.0
C1778 C 0.04313 0.46885 0.97588 0.0
C1779 C 0.06401 0.4704 0.98292 0.0
H1780 H 0.98186 0.5516 0.95353 0.0
H1781 H 0.07242 0.45327 0.98625 0.0
H1782 H 0.96305 0.43459 0.99648 0.0
H1783 H 0.84111 0.44904 0.95777 0.0
H1784 H 1.03607 0.4503 0.97391 0.0
H1785 H 0.09011 0.49517 0.99114 0.0
H1786 H 0.88107 0.47244 0.96138 0.0
H1787 H 0.99706 0.59436 0.95792 0.0
H1788 H 0.08846 0.54242 0.98935 0.0
H1789 H 0.06809 0.58055 0.98173 0.0
H1790 H 0.95711 0.39559 1.00739 0.0
H1791 H 1.03405 0.60005 0.97014 0.0
H1792 H 0.83353 0.40738 0.96663 0.0
N1793 N 0.93028 0.42839 0.98662 0.0
C1794 C 0.9096 0.41358 0.98474 0.0
C1795 C 0.94363 0.40038 1.00102 0.0
C1796 C 0.90534 0.39119 0.99083 0.0
C1797 C 0.9469 0.42252 0.99483 0.0
C1798 C 0.9229 0.38449 0.99894 0.0
N1799 N 0.89615 0.44396 0.97187 0.0
C1800 C 0.87793 0.45423 0.96524 0.0
C1801 C 0.86938 0.4077 0.97539 0.0
C1802 C 0.89194 0.42165 0.97713 0.0
C1803 C 0.85113 0.41751 0.96819 0.0
C1804 C 0.85531 0.44104 0.96318 0.0
H1805 H 0.92034 0.36741 1.00379 0.0
H1806 H 0.87992 0.35923 0.99335 0.0
H1807 H 0.84835 0.37375 0.97984 0.0
O1808 O 0.93369 0.50261 0.98206 0.0
O1809 O 0.9278 0.45187 0.95774 0.0
O1810 O 0.9647 0.46556 0.9601 0.0
O1811 O 0.90755 0.4733 0.98775 0.0
O1812 O 0.924 0.49594 0.9614 0.0
O1813 O 0.96035 0.51258 0.95278 0.0
O1814 O 1.0315 0.48475 0.95048 0.0
O1815 O 0.98881 0.50748 0.97681 0.0
O1816 O 0.97386 0.47141 0.98475 0.0
O1817 O 0.99788 0.49793 0.94203 0.0
O1818 O 1.00062 0.4453 0.96282 0.0
O1819 O 0.96694 0.43105 0.97399 0.0
C1820 C 0.94916 0.45595 0.95302 0.0
C1821 C 0.92012 0.50407 1.0005 0.0
C1822 C 0.90657 0.52832 1.01645 0.0
C1823 C 0.92685 0.51766 1.02243 0.0
C1824 C 0.9392 0.49257 1.00679 0.0
C1825 C 0.94296 0.49981 1.01762 0.0
C1826 C 0.90377 0.52184 1.00536 0.0
C1827 C 0.93478 0.51217 0.95406 0.0
C1828 C 0.91594 0.49642 0.98912 0.0
C1829 C 0.88343 0.3766 0.98882 0.0
C1830 C 0.86546 0.38486 0.98112 0.0
C1831 C 0.98616 0.49346 0.98572 0.0
C1832 C 1.02605 0.47088 0.93241 0.0
C1833 C 0.04111 0.42897 0.92678 0.0
C1834 C 1.03773 0.43639 0.91579 0.0
C1835 C 1.02265 0.47776 0.92145 0.0
C1836 C 1.03481 0.44636 0.93503 0.0
C1837 C 1.0283 0.46047 0.91318 0.0
C1838 C 0.98902 0.42644 0.96861 0.0
C1839 C 1.02112 0.48954 0.94106 0.0
H1840 H 0.92979 0.52255 1.03093 0.0
H1841 H 0.9509 0.47773 1.00337 0.0
H1842 H 0.95796 0.49108 1.02239 0.0
H1843 H 0.88809 0.52952 1.00062 0.0
H1844 H 0.043 0.42395 0.90914 0.0
H1845 H 1.0158 0.49653 0.9193 0.0
H1846 H 1.03668 0.44086 0.94352 0.0
H1847 H 1.02583 0.46592 0.90472 0.0
Eu1848 Eu 0.86389 0.68628 0.22256 0.0
C1849 C 0.79138 0.78068 0.21853 0.0
N1850 N 0.79501 0.75765 0.21374 0.0
C1851 C 0.7501 0.74936 0.21453 0.0
C1852 C 0.76678 0.78878 0.22162 0.0
C1853 C 0.77483 0.74203 0.21168 0.0
C1854 C 0.74603 0.77285 0.21949 0.0
C1855 C 0.80951 0.81881 0.22645 0.0
C1856 C 0.81257 0.79544 0.22098 0.0
C1857 C 0.785 0.82715 0.22932 0.0
C1858 C 0.7637 0.81218 0.22692 0.0
Eu1859 Eu 0.83713 0.74835 0.20809 0.0
N1860 N 0.83616 0.78664 0.21828 0.0
C1861 C 0.8312 0.83308 0.22894 0.0
C1862 C 0.85734 0.80074 0.22058 0.0
C1863 C 0.85519 0.824 0.22598 0.0
H1864 H 0.77756 0.72386 0.20784 0.0
H1865 H 0.87206 0.83509 0.22773 0.0
H1866 H 0.89185 0.71167 0.24483 0.0
H1867 H 0.88115 0.5943 0.20352 0.0
H1868 H 0.87599 0.79477 0.21803 0.0
H1869 H 0.82964 0.85115 0.2331 0.0
H1870 H 0.85823 0.63438 0.20704 0.0
H1871 H 0.73417 0.73688 0.2129 0.0
H1872 H 0.78233 0.84507 0.23351 0.0
H1873 H 0.74494 0.81873 0.22933 0.0
H1874 H 0.92845 0.70343 0.25682 0.0
H1875 H 0.72685 0.7784 0.22175 0.0
H1876 H 0.92021 0.58403 0.21395 0.0
N1877 N 0.89792 0.67899 0.23495 0.0
C1878 C 0.91229 0.65792 0.23331 0.0
C1879 C 0.92415 0.69047 0.25022 0.0
C1880 C 0.93343 0.65239 0.24003 0.0
C1881 C 0.9033 0.69504 0.24339 0.0
C1882 C 0.9394 0.66913 0.2485 0.0
N1883 N 0.88427 0.64697 0.21914 0.0
C1884 C 0.87526 0.63015 0.21161 0.0
C1885 C 0.91888 0.61863 0.22347 0.0
C1886 C 0.90521 0.64136 0.22515 0.0
C1887 C 0.91026 0.6017 0.21549 0.0
C1888 C 0.8882 0.60741 0.2096 0.0
H1889 H 0.95549 0.66558 0.25383 0.0
H1890 H 0.96398 0.62566 0.24323 0.0
H1891 H 0.95118 0.59601 0.22872 0.0
O1892 O 0.82458 0.68661 0.22849 0.0
O1893 O 0.87944 0.6817 0.20519 0.0
O1894 O 0.86092 0.71598 0.20813 0.0
O1895 O 0.8512 0.65731 0.23398 0.0
O1896 O 0.834 0.67492 0.20825 0.0
O1897 O 0.81734 0.71166 0.20004 0.0
O1898 O 0.85293 0.77585 0.19672 0.0
O1899 O 0.82219 0.74234 0.2256 0.0
O1900 O 0.85725 0.72358 0.23318 0.0
O1901 O 0.81875 0.75553 0.19228 0.0
O1902 O 0.88188 0.753 0.21241 0.0
O1903 O 0.89713 0.71739 0.222 0.0
C1904 C 0.87362 0.70319 0.20096 0.0
C1905 C 0.81956 0.66974 0.24637 0.0
C1906 C 0.79442 0.65265 0.26151 0.0
C1907 C 0.80595 0.67053 0.2685 0.0
C1908 C 0.83147 0.68661 0.25356 0.0
C1909 C 0.82417 0.68749 0.2645 0.0
C1910 C 0.80082 0.6531 0.25032 0.0
C1911 C 0.81811 0.68598 0.20092 0.0
C1912 C 0.82849 0.66726 0.23507 0.0
C1913 C 0.94762 0.63017 0.23819 0.0
C1914 C 0.94034 0.6133 0.22993 0.0
C1915 C 0.83619 0.73776 0.23433 0.0
C1916 C 0.82196 0.79861 0.18681 0.0
C1917 C 0.82036 0.84492 0.18888 0.0
C1918 C 0.80565 0.84606 0.17921 0.0
C1919 C 0.80752 0.80031 0.17725 0.0
C1920 C 0.82669 0.82065 0.19292 0.0
C1921 C 0.79884 0.82392 0.17364 0.0
C1922 C 0.90119 0.74047 0.2175 0.0
C1923 C 0.83391 0.77434 0.18994 0.0
H1924 H 0.80201 0.67062 0.27718 0.0
H1925 H 0.84692 0.69853 0.25079 0.0
H1926 H 0.83346 0.70061 0.27 0.0
H1927 H 0.79207 0.6398 0.24472 0.0
H1928 H 0.80024 0.86388 0.17549 0.0
H1929 H 0.8034 0.7835 0.17249 0.0
H1930 H 0.83657 0.81868 0.20057 0.0
H1931 H 0.78786 0.82521 0.16618 0.0
Eu1932 Eu 0.65125 0.60969 0.47583 0.0
C1933 C 0.55946 0.53575 0.47499 0.0
N1934 N 0.58081 0.53843 0.46873 0.0
C1935 C 0.5877 0.49339 0.46926 0.0
C1936 C 0.55195 0.51163 0.4789 0.0
C1937 C 0.59465 0.51765 0.46566 0.0
C1938 C 0.56632 0.49036 0.47592 0.0
C1939 C 0.52479 0.55525 0.48511 0.0
C1940 C 0.54598 0.55742 0.47804 0.0
C1941 C 0.51721 0.53123 0.48893 0.0
C1942 C 0.5307 0.5095 0.48582 0.0
Eu1943 Eu 0.58962 0.58003 0.46239 0.0
N1944 N 0.554 0.58061 0.4744 0.0
C1945 C 0.51188 0.5773 0.48823 0.0
C1946 C 0.54104 0.60211 0.47728 0.0
C1947 C 0.52 0.60079 0.48426 0.0
H1948 H 0.61103 0.5195 0.46043 0.0
H1949 H 0.50993 0.61793 0.48653 0.0
H1950 H 0.62526 0.63957 0.4974 0.0
H1951 H 0.74266 0.62746 0.45593 0.0
H1952 H 0.54632 0.62045 0.47416 0.0
H1953 H 0.49556 0.57639 0.49365 0.0
H1954 H 0.70392 0.60309 0.46064 0.0
H1955 H 0.59884 0.47701 0.46686 0.0
H1956 H 0.501 0.52927 0.49436 0.0
H1957 H 0.52472 0.49113 0.48891 0.0
H1958 H 0.63148 0.67891 0.50793 0.0
H1959 H 0.56113 0.47153 0.47875 0.0
H1960 H 0.75037 0.66932 0.46447 0.0
N1961 N 0.65688 0.64617 0.48687 0.0
C1962 C 0.67695 0.66141 0.48446 0.0
C1963 C 0.64439 0.67426 0.50133 0.0
C1964 C 0.68133 0.68405 0.4903 0.0
C1965 C 0.64098 0.65191 0.49536 0.0
C1966 C 0.66452 0.69054 0.49873 0.0
N1967 N 0.68956 0.63116 0.47146 0.0
C1968 C 0.70706 0.62137 0.46436 0.0
C1969 C 0.71578 0.66815 0.47413 0.0
C1970 C 0.69386 0.65363 0.4765 0.0
C1971 C 0.73329 0.65876 0.46651 0.0
C1972 C 0.72903 0.63512 0.46169 0.0
H1973 H 0.66719 0.70778 0.5034 0.0
H1974 H 0.7062 0.71667 0.49205 0.0
H1975 H 0.73644 0.7027 0.47789 0.0
O1976 O 0.65476 0.57149 0.48267 0.0
O1977 O 0.65568 0.62136 0.45796 0.0
O1978 O 0.61996 0.60646 0.46186 0.0
O1979 O 0.68028 0.60157 0.48805 0.0
O1980 O 0.66274 0.57851 0.46198 0.0
O1981 O 0.62615 0.55964 0.45456 0.0
O1982 O 0.55407 0.58192 0.45353 0.0
O1983 O 0.6008 0.56452 0.47932 0.0
O1984 O 0.61414 0.60192 0.48638 0.0
O1985 O 0.58754 0.56787 0.44525 0.0
O1986 O 0.58436 0.62578 0.46493 0.0
O1987 O 0.61884 0.642 0.47504 0.0
C1988 C 0.63363 0.61609 0.45412 0.0
C1989 C 0.66882 0.57047 0.50101 0.0
C1990 C 0.68183 0.54485 0.51669 0.0
C1991 C 0.66198 0.55578 0.52284 0.0
C1992 C 0.65033 0.58232 0.5075 0.0
C1993 C 0.64651 0.57454 0.51827 0.0
C1994 C 0.68466 0.5519 0.50564 0.0
C1995 C 0.65185 0.5615 0.45507 0.0
C1996 C 0.67257 0.57822 0.48957 0.0
C1997 C 0.7026 0.69912 0.48771 0.0
C1998 C 0.71982 0.69118 0.47964 0.0
C1999 C 0.60285 0.57945 0.4879 0.0
C2000 C 0.55556 0.58774 0.43444 0.0
C2001 C 0.52913 0.62001 0.42588 0.0
C2002 C 0.53652 0.61122 0.41554 0.0
C2003 C 0.56298 0.57908 0.42407 0.0
C2004 C 0.53892 0.6085 0.43526 0.0
C2005 C 0.55369 0.59101 0.41466 0.0
C2006 C 0.59602 0.64558 0.47014 0.0
C2007 C 0.56362 0.57407 0.44433 0.0
H2008 H 0.65891 0.55042 0.53129 0.0
H2009 H 0.639 0.59769 0.50427 0.0
H2010 H 0.63191 0.58348 0.52319 0.0
H2011 H 0.69993 0.54395 0.50075 0.0
H2012 H 0.52884 0.61981 0.40819 0.0
H2013 H 0.57575 0.56302 0.42326 0.0
H2014 H 0.53261 0.61517 0.44319 0.0
H2015 H 0.55942 0.58427 0.40668 0.0
Eu2016 Eu 0.3402 0.33316 0.20944 0.0
C2017 C 0.41415 0.42308 0.23491 0.0
N2018 N 0.40036 0.40159 0.23649 0.0
C2019 C 0.42763 0.3899 0.25145 0.0
C2020 C 0.43547 0.42874 0.24149 0.0
C2021 C 0.40656 0.38521 0.24476 0.0
C2022 C 0.44226 0.41168 0.24976 0.0
C2023 C 0.41928 0.46313 0.22537 0.0
C2024 C 0.40629 0.43995 0.22696 0.0
C2025 C 0.44092 0.46859 0.23168 0.0
C2026 C 0.44903 0.4514 0.23972 0.0
Eu2027 Eu 0.36595 0.39411 0.22427 0.0
N2028 N 0.38519 0.43419 0.22111 0.0
C2029 C 0.40978 0.48036 0.21765 0.0
C2030 C 0.37528 0.45132 0.21387 0.0
C2031 C 0.38753 0.47451 0.21195 0.0
H2032 H 0.39568 0.3682 0.24619 0.0
H2033 H 0.37978 0.48785 0.20609 0.0
H2034 H 0.28253 0.36265 0.21181 0.0
H2035 H 0.37058 0.24217 0.22653 0.0
H2036 H 0.35807 0.447 0.20945 0.0
H2037 H 0.41919 0.49837 0.21619 0.0
H2038 H 0.3767 0.28482 0.21871 0.0
H2039 H 0.43256 0.37667 0.2579 0.0
H2040 H 0.45126 0.48622 0.23053 0.0
H2041 H 0.46552 0.45601 0.24465 0.0
H2042 H 0.23845 0.35074 0.21619 0.0
H2043 H 0.45852 0.41531 0.25498 0.0
H2044 H 0.32713 0.22644 0.23048 0.0
N2045 N 0.29779 0.32604 0.21537 0.0
C2046 C 0.29278 0.30207 0.21901 0.0
C2047 C 0.25355 0.33685 0.21697 0.0
C2048 C 0.26774 0.29454 0.22167 0.0
C2049 C 0.27867 0.34351 0.21444 0.0
C2050 C 0.248 0.31221 0.22049 0.0
N2051 N 0.3372 0.29397 0.21878 0.0
C2052 C 0.35769 0.27867 0.22073 0.0
C2053 C 0.30874 0.26115 0.22515 0.0
C2054 C 0.31311 0.28563 0.22083 0.0
C2055 C 0.3297 0.24541 0.2272 0.0
C2056 C 0.35427 0.25428 0.22504 0.0
H2057 H 0.22851 0.30717 0.22246 0.0
H2058 H 0.24413 0.26373 0.22767 0.0
H2059 H 0.27999 0.23445 0.23064 0.0
O2060 O 0.35759 0.30611 0.1983 0.0
O2061 O 0.32705 0.33548 0.22749 0.0
O2062 O 0.35998 0.35741 0.23534 0.0
O2063 O 0.32193 0.32369 0.19389 0.0
O2064 O 0.38493 0.32809 0.21349 0.0
O2065 O 0.39966 0.36316 0.2235 0.0
O2066 O 0.32676 0.39226 0.23035 0.0
O2067 O 0.38019 0.40077 0.20688 0.0
O2068 O 0.36509 0.36489 0.20939 0.0
O2069 O 0.35231 0.42287 0.23543 0.0
O2070 O 0.33541 0.40541 0.21006 0.0
O2071 O 0.32005 0.36918 0.20117 0.0
C2072 C 0.33999 0.34175 0.23633 0.0
C2073 C 0.32567 0.27894 0.19186 0.0
C2074 C 0.3317 0.2334 0.19491 0.0
C2075 C 0.30517 0.23039 0.19579 0.0
C2076 C 0.29914 0.27551 0.19268 0.0
C2077 C 0.28903 0.25133 0.19457 0.0
C2078 C 0.34163 0.25764 0.19265 0.0
C2079 C 0.40401 0.34032 0.21882 0.0
C2080 C 0.33724 0.30455 0.19226 0.0
C2081 C 0.26328 0.26992 0.22568 0.0
C2082 C 0.28371 0.25326 0.2274 0.0
C2083 C 0.37545 0.37961 0.20219 0.0
C2084 C 0.32092 0.41063 0.24793 0.0
C2085 C 0.29608 0.43067 0.26248 0.0
C2086 C 0.30939 0.4155 0.27014 0.0
C2087 C 0.3342 0.3963 0.25569 0.0
C2088 C 0.30131 0.4269 0.25128 0.0
C2089 C 0.32789 0.39816 0.26672 0.0
C2090 C 0.32005 0.39469 0.20244 0.0
C2091 C 0.32996 0.4122 0.23662 0.0
H2092 H 0.29692 0.21196 0.19753 0.0
H2093 H 0.28626 0.29156 0.19228 0.0
H2094 H 0.26862 0.24891 0.19536 0.0
H2095 H 0.36205 0.26016 0.19183 0.0
H2096 H 0.30671 0.41773 0.27884 0.0
H2097 H 0.35007 0.38451 0.25327 0.0
H2098 H 0.29121 0.43751 0.24507 0.0
H2099 H 0.33833 0.38712 0.2727 0.0
Eu2100 Eu 0.48857 0.58825 0.95963 0.0
C2101 C 0.40726 0.66849 0.98227 0.0
N2102 N 0.42644 0.65241 0.98494 0.0
C2103 C 0.43904 0.68021 0.99951 0.0
C2104 C 0.4035 0.69144 0.98797 0.0
C2105 C 0.44192 0.65765 0.99363 0.0
C2106 C 0.41989 0.69732 0.9966 0.0
C2107 C 0.36982 0.67702 0.97134 0.0
C2108 C 0.39073 0.66139 0.9741 0.0
C2109 C 0.36642 0.7003 0.97673 0.0
C2110 C 0.38324 0.7075 0.98504 0.0
Eu2111 Eu 0.4317 0.61546 0.974 0.0
N2112 N 0.39442 0.63864 0.96918 0.0
C2113 C 0.35266 0.66853 0.96342 0.0
C2114 C 0.37713 0.62987 0.96175 0.0
C2115 C 0.35621 0.64472 0.95869 0.0
H2116 H 0.45701 0.64485 0.99593 0.0
H2117 H 0.3428 0.63774 0.95269 0.0
H2118 H 0.47114 0.52688 0.96271 0.0
H2119 H 0.58055 0.63286 0.96898 0.0
H2120 H 0.37932 0.61147 0.95808 0.0
H2121 H 0.33637 0.67995 0.96107 0.0
H2122 H 0.53906 0.62913 0.95989 0.0
H2123 H 0.45165 0.68441 1.00626 0.0
H2124 H 0.35059 0.71263 0.97467 0.0
H2125 H 0.38015 0.72529 0.98927 0.0
H2126 H 0.48742 0.48794 0.9715 0.0
H2127 H 0.41766 0.71477 1.00118 0.0
H2128 H 0.59676 0.59753 0.98036 0.0
N2129 N 0.50217 0.54987 0.96794 0.0
C2130 C 0.52538 0.55047 0.9729 0.0
C2131 C 0.49817 0.50544 0.97202 0.0
C2132 C 0.53527 0.52864 0.9781 0.0
C2133 C 0.48899 0.52756 0.96705 0.0
C2134 C 0.52125 0.50604 0.97768 0.0
N2135 N 0.53005 0.5933 0.96707 0.0
C2136 C 0.54504 0.61417 0.96533 0.0
C2137 C 0.56358 0.57391 0.97769 0.0
C2138 C 0.53937 0.57293 0.97269 0.0
C2139 C 0.57809 0.59607 0.97664 0.0
C2140 C 0.56897 0.61609 0.97026 0.0
H2141 H 0.52824 0.48888 0.98157 0.0
H2142 H 0.5666 0.51345 0.98761 0.0
H2143 H 0.59138 0.55305 0.98726 0.0
O2144 O 0.52106 0.5794 0.94924 0.0
O2145 O 0.47947 0.57309 0.97696 0.0
O2146 O 0.46925 0.61029 0.9842 0.0
O2147 O 0.48308 0.5745 0.94293 0.0
O2148 O 0.49528 0.6333 0.96335 0.0
O2149 O 0.4603 0.64977 0.97249 0.0
O2150 O 0.42945 0.57774 0.98142 0.0
O2151 O 0.42932 0.6183 0.95569 0.0
O2152 O 0.47133 0.6232 0.95224 0.0
O2153 O 0.4023 0.60692 0.98609 0.0
O2154 O 0.41718 0.58672 0.96 0.0
O2155 O 0.45231 0.56436 0.95402 0.0
C2156 C 0.4805 0.58805 0.9855 0.0
C2157 C 0.51372 0.59149 0.931 0.0
C2158 C 0.53434 0.629 0.92346 0.0
C2159 C 0.52362 0.62379 0.91322 0.0
C2160 C 0.50325 0.58618 0.92072 0.0
C2161 C 0.50822 0.60232 0.91186 0.0
C2162 C 0.52922 0.61293 0.93228 0.0
C2163 C 0.48348 0.65329 0.96823 0.0
C2164 C 0.50722 0.57587 0.94058 0.0
C2165 C 0.55887 0.52994 0.98346 0.0
C2166 C 0.57295 0.55252 0.98328 0.0
C2167 C 0.44778 0.62379 0.94892 0.0
C2168 C 0.41466 0.57741 0.99962 0.0
C2169 C 0.40192 0.55284 1.01567 0.0
C2170 C 0.42201 0.56399 1.02157 0.0
C2171 C 0.43354 0.58934 1.00584 0.0
C2172 C 0.39877 0.5593 1.00456 0.0
C2173 C 0.43757 0.58225 1.01669 0.0
C2174 C 0.42699 0.56765 0.95395 0.0
C2175 C 0.41102 0.58412 0.98806 0.0
H2176 H 0.52757 0.63596 0.90627 0.0
H2177 H 0.49098 0.56986 0.91959 0.0
H2178 H 0.50002 0.59827 0.90394 0.0
H2179 H 0.53731 0.61742 0.94018 0.0
H2180 H 0.42529 0.55908 1.03005 0.0
H2181 H 0.44512 0.60417 1.00234 0.0
H2182 H 0.38335 0.5511 0.99986 0.0
H2183 H 0.45249 0.59126 1.02138 0.0
Eu2184 Eu 0.25081 0.73958 0.71156 0.0
C2185 C 0.17702 0.64839 0.73721 0.0
N2186 N 0.19031 0.6702 0.7387 0.0
C2187 C 0.163 0.68122 0.75372 0.0
C2188 C 0.156 0.64217 0.7439 0.0
C2189 C 0.18377 0.68648 0.74691 0.0
C2190 C 0.14896 0.65902 0.75218 0.0
C2191 C 0.17236 0.6085 0.72761 0.0
C2192 C 0.18499 0.63187 0.72917 0.0
C2193 C 0.15109 0.60242 0.73408 0.0
C2194 C 0.14291 0.61924 0.74221 0.0
Eu2195 Eu 0.22433 0.6785 0.72636 0.0
N2196 N 0.20569 0.63824 0.72313 0.0
C2197 C 0.18177 0.59176 0.71971 0.0
C2198 C 0.21542 0.62166 0.71564 0.0
C2199 C 0.20352 0.59831 0.71376 0.0
H2200 H 0.19419 0.70381 0.74821 0.0
H2201 H 0.21116 0.58537 0.70773 0.0
H2202 H 0.30551 0.70599 0.71532 0.0
H2203 H 0.22686 0.83518 0.72493 0.0
H2204 H 0.23223 0.62646 0.711 0.0
H2205 H 0.17263 0.57363 0.71826 0.0
H2206 H 0.21792 0.79179 0.71839 0.0
H2207 H 0.15782 0.69432 0.76015 0.0
H2208 H 0.14106 0.58462 0.73297 0.0
H2209 H 0.12666 0.61419 0.74724 0.0
H2210 H 0.35013 0.7147 0.72024 0.0
H2211 H 0.13292 0.65496 0.75749 0.0
H2212 H 0.27101 0.84771 0.7295 0.0
N2213 N 0.2933 0.74412 0.71769 0.0
C2214 C 0.29994 0.76799 0.72088 0.0
C2215 C 0.33621 0.72987 0.72039 0.0
C2216 C 0.32523 0.77374 0.72384 0.0
C2217 C 0.31088 0.72503 0.71753 0.0
C2218 C 0.34349 0.75437 0.72344 0.0
N2219 N 0.25641 0.77961 0.7197 0.0
C2220 C 0.23712 0.7968 0.72067 0.0
C2221 C 0.28689 0.81081 0.72566 0.0
C2222 C 0.2809 0.78622 0.72195 0.0
C2223 C 0.26716 0.82855 0.72675 0.0
C2224 C 0.24218 0.8215 0.72424 0.0
H2225 H 0.36312 0.758 0.72568 0.0
H2226 H 0.35073 0.80319 0.72958 0.0
H2227 H 0.31723 0.83572 0.73105 0.0
O2228 O 0.2322 0.76417 0.69987 0.0
O2229 O 0.26262 0.73827 0.72969 0.0
O2230 O 0.22985 0.71539 0.73737 0.0
O2231 O 0.26997 0.75038 0.69629 0.0
O2232 O 0.20696 0.74628 0.71675 0.0
O2233 O 0.19102 0.70975 0.7255 0.0
O2234 O 0.26373 0.68061 0.73207 0.0
O2235 O 0.20762 0.67334 0.70919 0.0
O2236 O 0.22729 0.70708 0.7118 0.0
O2237 O 0.23833 0.65043 0.73786 0.0
O2238 O 0.25463 0.66696 0.71212 0.0
O2239 O 0.26946 0.70314 0.70288 0.0
C2240 C 0.24956 0.73145 0.73844 0.0
C2241 C 0.26013 0.79358 0.69224 0.0
C2242 C 0.24612 0.8377 0.69113 0.0
C2243 C 0.27134 0.84575 0.69279 0.0
C2244 C 0.28533 0.80183 0.69382 0.0
C2245 C 0.29085 0.82783 0.69403 0.0
C2246 C 0.24089 0.81163 0.69074 0.0
C2247 C 0.18732 0.73334 0.72141 0.0
C2248 C 0.2524 0.76692 0.69383 0.0
C2249 C 0.33135 0.79837 0.72735 0.0
C2250 C 0.31225 0.81687 0.72822 0.0
C2251 C 0.21367 0.69462 0.70485 0.0
C2252 C 0.26966 0.66441 0.75005 0.0
C2253 C 0.29647 0.64945 0.76505 0.0
C2254 C 0.28353 0.66619 0.77212 0.0
C2255 C 0.25633 0.67997 0.75734 0.0
C2256 C 0.28988 0.64943 0.75388 0.0
C2257 C 0.26373 0.68142 0.76825 0.0
C2258 C 0.2694 0.67759 0.70423 0.0
C2259 C 0.26067 0.66128 0.73878 0.0
H2260 H 0.276 0.86577 0.69306 0.0
H2261 H 0.30056 0.78834 0.69523 0.0
H2262 H 0.31024 0.83412 0.69536 0.0
H2263 H 0.22136 0.8052 0.68986 0.0
H2264 H 0.28758 0.66654 0.78079 0.0
H2265 H 0.23972 0.69036 0.75469 0.0
H2266 H 0.29964 0.63693 0.74824 0.0
H2267 H 0.25334 0.69352 0.77383 0.0
Eu2268 Eu 0.08741 0.49238 0.45847 0.0
C2269 C 0.1759 0.41827 0.48423 0.0
N2270 N 0.15459 0.43223 0.48603 0.0
C2271 C 0.14221 0.40386 0.50048 0.0
C2272 C 0.18102 0.39615 0.49039 0.0
C2273 C 0.1381 0.42575 0.49423 0.0
C2274 C 0.16363 0.38883 0.49848 0.0
C2275 C 0.21651 0.41395 0.47498 0.0
C2276 C 0.19332 0.42696 0.47662 0.0
C2277 C 0.2213 0.39138 0.48078 0.0
C2278 C 0.20357 0.38248 0.48846 0.0
Eu2279 Eu 0.14799 0.46785 0.47447 0.0
N2280 N 0.18825 0.44899 0.4713 0.0
C2281 C 0.23445 0.42442 0.46779 0.0
C2282 C 0.20616 0.45994 0.46469 0.0
C2283 C 0.22937 0.44768 0.46272 0.0
H2284 H 0.12147 0.43715 0.49586 0.0
H2285 H 0.24332 0.45621 0.45732 0.0
H2286 H 0.11356 0.55137 0.45921 0.0
H2287 H 0.99784 0.45881 0.47627 0.0
H2288 H 0.20236 0.47796 0.46077 0.0
H2289 H 0.2525 0.41503 0.4663 0.0
H2290 H 1.0402 0.45426 0.46802 0.0
H2291 H 0.12886 0.3986 0.50684 0.0
H2292 H 0.23891 0.381 0.47956 0.0
H2293 H 0.20775 0.36535 0.49305 0.0
H2294 H 0.10005 0.59489 0.46351 0.0
H2295 H 0.16685 0.37196 0.50338 0.0
H2296 H 0.98083 0.50147 0.48044 0.0
N2297 N 0.07832 0.53454 0.46392 0.0
C2298 C 0.05443 0.53855 0.46794 0.0
C2299 C 0.08703 0.57921 0.46478 0.0
C2300 C 0.04596 0.56323 0.47052 0.0
C2301 C 0.09464 0.5544 0.46234 0.0
C2302 C 0.06255 0.58368 0.46881 0.0
N2303 N 0.04818 0.49394 0.46801 0.0
C2304 C 1.03362 0.47299 0.4701 0.0
C2305 C 1.01458 0.52106 0.4747 0.0
C2306 C 1.039 0.51763 0.4701 0.0
C2307 C 0.99972 0.49962 0.47695 0.0
C2308 C 1.00932 0.4755 0.47467 0.0
H2309 H 0.05676 0.60293 0.4707 0.0
H2310 H 1.01458 0.58556 0.47686 0.0
H2311 H 0.98705 0.54867 0.48044 0.0
O2312 O 0.06153 0.47394 0.44715 0.0
O2313 O 0.09024 0.50694 0.47626 0.0
O2314 O 0.10937 0.47282 0.4843 0.0
O2315 O 0.07727 0.5105 0.44291 0.0
O2316 O 0.0829 0.44781 0.46254 0.0
O2317 O 0.11734 0.43383 0.47323 0.0
O2318 O 0.14754 0.50596 0.48151 0.0
O2319 O 0.15674 0.45455 0.45716 0.0
O2320 O 0.11996 0.46835 0.45903 0.0
O2321 O 0.17575 0.47821 0.48685 0.0
O2322 O 0.15923 0.49991 0.46077 0.0
O2323 O 0.12382 0.51215 0.45032 0.0
C2324 C 0.09465 0.49343 0.48515 0.0
C2325 C 1.03261 0.50435 0.44079 0.0
C2326 C 0.98752 0.4955 0.44417 0.0
C2327 C 0.98293 0.52169 0.44517 0.0
C2328 C 1.02761 0.53051 0.44174 0.0
C2329 C 1.00286 0.53905 0.44383 0.0
C2330 C 1.01225 0.48718 0.44162 0.0
C2331 C 0.09493 0.42907 0.46817 0.0
C2332 C 0.05892 0.49428 0.44118 0.0
C2333 C 1.02147 0.56671 0.4749 0.0
C2334 C 1.00581 0.54569 0.47696 0.0
C2335 C 0.13578 0.4586 0.45212 0.0
C2336 C 0.16244 0.5082 0.4998 0.0
C2337 C 0.1778 0.53041 0.516 0.0
C2338 C 0.15678 0.5209 0.52189 0.0
C2339 C 0.14285 0.49745 0.50604 0.0
C2340 C 0.18002 0.52451 0.5048 0.0
C2341 C 0.13956 0.50437 0.51694 0.0
C2342 C 0.14903 0.51384 0.45246 0.0
C2343 C 0.16611 0.5008 0.48834 0.0
H2344 H 0.96408 0.52872 0.44712 0.0
H2345 H 0.04291 0.54429 0.44131 0.0
H2346 H 0.99925 0.55918 0.44473 0.0
H2347 H 1.01597 0.46705 0.44069 0.0
H2348 H 0.15414 0.5255 0.53043 0.0
H2349 H 0.13053 0.48327 0.50256 0.0
H2350 H 0.19618 0.53134 0.50011 0.0
H2351 H 0.12409 0.4963 0.52167 0.0
Eu2352 Eu 0.33829 0.74606 0.36885 0.0
C2353 C 0.41261 0.6562 0.34342 0.0
N2354 N 0.39851 0.67744 0.34172 0.0
C2355 C 0.42566 0.68924 0.32674 0.0
C2356 C 0.43409 0.65075 0.33689 0.0
C2357 C 0.40443 0.69371 0.33338 0.0
C2358 C 0.44068 0.66775 0.32855 0.0
C2359 C 0.41814 0.61636 0.35309 0.0
C2360 C 0.40484 0.63933 0.35141 0.0
C2361 C 0.43998 0.61114 0.34684 0.0
C2362 C 0.44796 0.62832 0.33876 0.0
Eu2363 Eu 0.36393 0.68459 0.35383 0.0
N2364 N 0.38352 0.64484 0.3572 0.0
C2365 C 0.40872 0.59909 0.36081 0.0
C2366 C 0.37367 0.62765 0.36443 0.0
C2367 C 0.38624 0.60467 0.36644 0.0
H2368 H 0.39311 0.71044 0.33189 0.0
H2369 H 0.37855 0.59126 0.3723 0.0
H2370 H 0.27881 0.72151 0.36902 0.0
H2371 H 0.37331 0.83347 0.34961 0.0
H2372 H 0.35626 0.63177 0.36879 0.0
H2373 H 0.41836 0.58123 0.36234 0.0
H2374 H 0.37724 0.79238 0.35887 0.0
H2375 H 0.43041 0.70237 0.32023 0.0
H2376 H 0.45056 0.59368 0.34805 0.0
H2377 H 0.4646 0.62387 0.33387 0.0
H2378 H 0.23531 0.73498 0.36428 0.0
H2379 H 0.45706 0.66427 0.32336 0.0
H2380 H 0.33083 0.85022 0.34473 0.0
N2381 N 0.29616 0.75567 0.36339 0.0
C2382 C 0.29251 0.77903 0.35885 0.0
C2383 C 0.25124 0.74754 0.3627 0.0
C2384 C 0.26789 0.78741 0.35595 0.0
C2385 C 0.276 0.73995 0.36538 0.0
C2386 C 0.24714 0.77139 0.35801 0.0
N2387 N 0.33733 0.78476 0.3589 0.0
C2388 C 0.35855 0.79878 0.35656 0.0
C2389 C 0.31067 0.81759 0.3512 0.0
C2390 C 0.31372 0.79386 0.35644 0.0
C2391 C 0.33239 0.83188 0.34871 0.0
C2392 C 0.35641 0.82241 0.3514 0.0
H2393 H 0.22793 0.77714 0.3559 0.0
H2394 H 0.24602 0.81798 0.34866 0.0
H2395 H 0.28344 0.84445 0.34455 0.0
O2396 O 0.35428 0.77325 0.38022 0.0
O2397 O 0.32301 0.7412 0.35128 0.0
O2398 O 0.35751 0.72217 0.34336 0.0
O2399 O 0.32028 0.75258 0.38478 0.0
O2400 O 0.38321 0.75047 0.36476 0.0
O2401 O 0.39767 0.71556 0.35454 0.0
O2402 O 0.35178 0.65622 0.34212 0.0
O2403 O 0.37852 0.67841 0.37123 0.0
O2404 O 0.36195 0.71368 0.36828 0.0
O2405 O 0.32485 0.6851 0.34767 0.0
O2406 O 0.33305 0.67322 0.36787 0.0
O2407 O 0.31873 0.70944 0.37713 0.0
C2408 C 0.33655 0.73654 0.34241 0.0
C2409 C 0.32322 0.79555 0.39029 0.0
C2410 C 0.32183 0.84197 0.38865 0.0
C2411 C 0.30629 0.84249 0.39811 0.0
C2412 C 0.30801 0.79664 0.39965 0.0
C2413 C 0.29901 0.82 0.40336 0.0
C2414 C 0.32843 0.81798 0.38445 0.0
C2415 C 0.40222 0.73823 0.35934 0.0
C2416 C 0.33534 0.77146 0.38707 0.0
C2417 C 0.2648 0.81119 0.35091 0.0
C2418 C 0.28612 0.82625 0.34855 0.0
C2419 C 0.3735 0.69997 0.37549 0.0
C2420 C 0.32039 0.66901 0.32968 0.0
C2421 C 0.29506 0.6528 0.31449 0.0
C2422 C 0.30728 0.67038 0.30752 0.0
C2423 C 0.33292 0.68563 0.32252 0.0
C2424 C 0.30123 0.65299 0.3257 0.0
C2425 C 0.32589 0.68679 0.31155 0.0
C2426 C 0.31829 0.68393 0.37572 0.0
C2427 C 0.32905 0.66608 0.341 0.0
H2428 H 0.30056 0.86005 0.40191 0.0
H2429 H 0.3035 0.77952 0.4042 0.0
H2430 H 0.2874 0.8208 0.41067 0.0
H2431 H 0.33888 0.81649 0.37692 0.0
H2432 H 0.30354 0.67065 0.29883 0.0
H2433 H 0.3486 0.69712 0.32535 0.0
H2434 H 0.29195 0.63995 0.3313 0.0
H2435 H 0.33566 0.69969 0.30606 0.0
Eu2436 Eu 0.09059 0.58398 0.11903 0.0
C2437 C 0.1719 0.66433 0.09639 0.0
N2438 N 0.15271 0.6483 0.09371 0.0
C2439 C 0.1402 0.67627 0.07911 0.0
C2440 C 0.1757 0.68735 0.09066 0.0
C2441 C 0.13728 0.65365 0.085 0.0
C2442 C 0.15935 0.69333 0.08201 0.0
C2443 C 0.2093 0.67272 0.10733 0.0
C2444 C 0.18839 0.65714 0.10457 0.0
C2445 C 0.21273 0.69605 0.10193 0.0
C2446 C 0.19595 0.70336 0.0936 0.0
Eu2447 Eu 0.14738 0.61124 0.10467 0.0
N2448 N 0.18467 0.63434 0.1095 0.0
C2449 C 0.22643 0.66413 0.11527 0.0
C2450 C 0.20193 0.62547 0.11695 0.0
C2451 C 0.22284 0.64027 0.12002 0.0
H2452 H 0.12221 0.64089 0.08269 0.0
H2453 H 0.23623 0.63321 0.12602 0.0
H2454 H 0.10804 0.52261 0.11595 0.0
H2455 H 0.99854 0.62867 0.10977 0.0
H2456 H 0.19973 0.60702 0.12063 0.0
H2457 H 0.24271 0.67551 0.11762 0.0
H2458 H 1.04008 0.62482 0.11882 0.0
H2459 H 0.12763 0.68055 0.07234 0.0
H2460 H 0.22857 0.70834 0.10399 0.0
H2461 H 0.19907 0.72118 0.08936 0.0
H2462 H 0.09181 0.48385 0.10711 0.0
H2463 H 0.16161 0.71082 0.07742 0.0
H2464 H 0.98227 0.59349 0.09842 0.0
N2465 N 0.07692 0.54566 0.11079 0.0
C2466 C 0.05369 0.54633 0.10583 0.0
C2467 C 0.08101 0.50133 0.10663 0.0
C2468 C 0.04384 0.52459 0.1006 0.0
C2469 C 0.09016 0.52336 0.11163 0.0
C2470 C 0.05791 0.50202 0.10099 0.0
N2471 N 0.04902 0.58906 0.11167 0.0
C2472 C 1.03405 0.60992 0.1134 0.0
C2473 C 1.01547 0.56982 0.10106 0.0
C2474 C 1.03969 0.56878 0.10606 0.0
C2475 C 1.00095 0.59197 0.10213 0.0
C2476 C 1.0101 0.61191 0.10849 0.0
H2477 H 0.05095 0.48493 0.09708 0.0
H2478 H 1.01251 0.50955 0.09109 0.0
H2479 H 0.98767 0.54912 0.0915 0.0
O2480 O 0.05824 0.57502 0.12953 0.0
O2481 O 0.09952 0.56912 0.10168 0.0
O2482 O 0.10983 0.60643 0.09449 0.0
O2483 O 0.09634 0.57022 0.13575 0.0
O2484 O 0.08388 0.62898 0.1153 0.0
O2485 O 0.11885 0.6456 0.10618 0.0
O2486 O 0.14955 0.57364 0.09723 0.0
O2487 O 0.14958 0.61402 0.12296 0.0
O2488 O 0.10753 0.61886 0.12659 0.0
O2489 O 0.17693 0.60277 0.09267 0.0
O2490 O 0.16184 0.58249 0.11877 0.0
O2491 O 0.12671 0.55987 0.12459 0.0
C2492 C 0.09854 0.58426 0.09316 0.0
C2493 C 0.06625 0.58852 0.14751 0.0
C2494 C 0.04606 0.62691 0.15436 0.0
C2495 C 0.05844 0.62361 0.16442 0.0
C2496 C 0.07836 0.58513 0.15763 0.0
C2497 C 0.07439 0.60263 0.16606 0.0
C2498 C 0.05007 0.6094 0.146 0.0
C2499 C 0.09568 0.64903 0.11045 0.0
C2500 C 0.07227 0.572 0.13819 0.0
C2501 C 1.02023 0.52597 0.09526 0.0
C2502 C 1.00611 0.54853 0.09547 0.0
C2503 C 0.13123 0.61994 0.1297 0.0
C2504 C 0.16467 0.57364 0.07907 0.0
C2505 C 0.17796 0.54988 0.06294 0.0
C2506 C 0.15775 0.56094 0.05705 0.0
C2507 C 0.1457 0.58555 0.07285 0.0
C2508 C 0.18089 0.55595 0.07408 0.0
C2509 C 0.14187 0.57879 0.06198 0.0
C2510 C 0.152 0.56325 0.12476 0.0
C2511 C 0.16813 0.58005 0.09065 0.0
H2512 H 0.05541 0.63693 0.17102 0.0
H2513 H 0.09123 0.56931 0.15893 0.0
H2514 H 0.0839 0.60006 0.17382 0.0
H2515 H 1.04071 0.61247 0.13823 0.0
H2516 H 0.15462 0.5563 0.04854 0.0
H2517 H 0.13393 0.60013 0.07639 0.0
H2518 H 0.1964 0.54783 0.07877 0.0
H2519 H 0.12687 0.58777 0.05729 0.0
Eu2520 Eu 0.23708 0.33971 0.86902 0.0
C2521 C 0.16709 0.43474 0.84273 0.0
N2522 N 0.17964 0.41244 0.84138 0.0
C2523 C 0.15498 0.4039 0.82528 0.0
C2524 C 0.14798 0.44259 0.83535 0.0
C2525 C 0.1738 0.39697 0.8328 0.0
C2526 C 0.14199 0.42681 0.82655 0.0
C2527 C 0.16135 0.47348 0.85307 0.0
C2528 C 0.17358 0.44989 0.85147 0.0
C2529 C 0.14222 0.48134 0.84579 0.0
C2530 C 0.13552 0.4659 0.83695 0.0
Eu2531 Eu 0.21099 0.40172 0.85463 0.0
N2532 N 0.19215 0.44176 0.85832 0.0
C2533 C 0.16885 0.48855 0.86189 0.0
C2534 C 0.19977 0.45657 0.86686 0.0
C2535 C 0.18821 0.48007 0.8688 0.0
H2536 H 0.18329 0.37908 0.83168 0.0
H2537 H 0.19424 0.49161 0.87563 0.0
H2538 H 0.29457 0.36941 0.86682 0.0
H2539 H 0.2073 0.24881 0.85187 0.0
H2540 H 0.21454 0.45026 0.87233 0.0
H2541 H 0.15994 0.50678 0.8634 0.0
H2542 H 0.20096 0.29113 0.85985 0.0
H2543 H 0.15046 0.3915 0.81851 0.0
H2544 H 0.13257 0.49935 0.8469 0.0
H2545 H 0.12079 0.47222 0.83137 0.0
H2546 H 0.33864 0.35811 0.86218 0.0
H2547 H 0.12743 0.43213 0.82071 0.0
H2548 H 0.25081 0.23361 0.84769 0.0
N2549 N 0.27964 0.33267 0.86336 0.0
C2550 C 0.28477 0.3089 0.85958 0.0
C2551 C 0.32368 0.34405 0.86148 0.0
C2552 C 0.30979 0.30178 0.85669 0.0
C2553 C 0.29857 0.35035 0.86418 0.0
C2554 C 0.32937 0.31961 0.85783 0.0
N2555 N 0.24044 0.30039 0.85993 0.0
C2556 C 0.22001 0.28515 0.85783 0.0
C2557 C 0.26903 0.26814 0.85324 0.0
C2558 C 0.26456 0.29232 0.85779 0.0
C2559 C 0.24815 0.25236 0.85114 0.0
C2560 C 0.22355 0.26094 0.85342 0.0
H2561 H 0.34884 0.31487 0.85568 0.0
H2562 H 0.3335 0.27158 0.85027 0.0
H2563 H 0.29785 0.24209 0.84731 0.0
O2564 O 0.21697 0.31683 0.88104 0.0
O2565 O 0.24825 0.34109 0.85075 0.0
O2566 O 0.21658 0.36577 0.84309 0.0
O2567 O 0.25592 0.32803 0.88418 0.0
O2568 O 0.19276 0.33438 0.86465 0.0
O2569 O 0.1783 0.36988 0.85473 0.0
O2570 O 0.25106 0.39805 0.84991 0.0
O2571 O 0.19051 0.40343 0.8711 0.0
O2572 O 0.21617 0.37361 0.86896 0.0
O2573 O 0.22795 0.43014 0.84413 0.0
O2574 O 0.24045 0.41332 0.86925 0.0
O2575 O 0.25711 0.37622 0.87722 0.0
C2576 C 0.23563 0.34891 0.84201 0.0
C2577 C 0.24345 0.28694 0.88996 0.0
C2578 C 0.23379 0.24149 0.8888 0.0
C2579 C 0.25314 0.23689 0.89657 0.0
C2580 C 0.26256 0.28184 0.89763 0.0
C2581 C 0.26759 0.25687 0.90079 0.0
C2582 C 0.22985 0.26667 0.88533 0.0
C2583 C 0.17389 0.34688 0.85932 0.0
C2584 C 0.23709 0.31341 0.8871 0.0
C2585 C 0.31437 0.27743 0.85246 0.0
C2586 C 0.29406 0.26065 0.85076 0.0
C2587 C 0.19971 0.38347 0.87555 0.0
C2588 C 0.26038 0.41625 0.83249 0.0
C2589 C 0.28885 0.43404 0.81857 0.0
C2590 C 0.27536 0.42007 0.8106 0.0
C2591 C 0.24693 0.40331 0.82438 0.0
C2592 C 0.28175 0.43083 0.82963 0.0
C2593 C 0.2549 0.40455 0.81354 0.0
C2594 C 0.25637 0.40197 0.87653 0.0
C2595 C 0.24987 0.41826 0.84357 0.0
H2596 H 0.25662 0.21807 0.89981 0.0
H2597 H 0.27337 0.29718 0.90126 0.0
H2598 H 0.28221 0.25304 0.90681 0.0
H2599 H 0.21564 0.27074 0.87922 0.0
H2600 H 0.27941 0.42203 0.80198 0.0
H2601 H 0.22966 0.39315 0.82635 0.0
H2602 H 0.29179 0.44067 0.83607 0.0
H2603 H 0.2443 0.39456 0.8073 0.0
Eu2604 Eu 0.49897 0.48517 0.62181 0.0
C2605 C 0.4083 0.41257 0.59583 0.0
N2606 N 0.42966 0.42644 0.59395 0.0
C2607 C 0.44063 0.39949 0.5789 0.0
C2608 C 0.40234 0.39132 0.58932 0.0
C2609 C 0.44563 0.42048 0.58553 0.0
C2610 C 0.41897 0.38474 0.58084 0.0
C2611 C 0.36888 0.40706 0.6059 0.0
C2612 C 0.39187 0.42026 0.60402 0.0
C2613 C 0.36313 0.38551 0.59963 0.0
C2614 C 0.37984 0.37764 0.59136 0.0
Eu2615 Eu 0.43761 0.46055 0.60599 0.0
N2616 N 0.39788 0.44127 0.60986 0.0
C2617 C 0.35214 0.41622 0.61388 0.0
C2618 C 0.38127 0.45079 0.61741 0.0
C2619 C 0.35828 0.43831 0.6196 0.0
H2620 H 0.46248 0.43165 0.58398 0.0
H2621 H 0.34532 0.44574 0.62568 0.0
H2622 H 0.47684 0.54522 0.6241 0.0
H2623 H 0.58395 0.45048 0.6003 0.0
H2624 H 0.38585 0.46781 0.62188 0.0
H2625 H 0.33429 0.40664 0.61557 0.0
H2626 H 0.54346 0.44637 0.60997 0.0
H2627 H 0.4535 0.39469 0.5723 0.0
H2628 H 0.34564 0.37503 0.60099 0.0
H2629 H 0.375 0.36119 0.58648 0.0
H2630 H 0.49132 0.58864 0.62013 0.0
H2631 H 0.41509 0.36853 0.57566 0.0
H2632 H 0.60183 0.49293 0.59637 0.0
N2633 N 0.5099 0.52757 0.61746 0.0
C2634 C 0.53297 0.53108 0.61258 0.0
C2635 C 0.5032 0.57261 0.61796 0.0
C2636 C 0.54192 0.55573 0.61014 0.0
C2637 C 0.49501 0.54786 0.62018 0.0
C2638 C 0.52677 0.57659 0.61295 0.0
N2639 N 0.53729 0.4863 0.61145 0.0
C2640 C 0.55034 0.46514 0.60821 0.0
C2641 C 0.57041 0.51297 0.60392 0.0
C2642 C 0.547 0.50987 0.60947 0.0
C2643 C 0.58377 0.49133 0.60062 0.0
C2644 C 0.57367 0.46734 0.60277 0.0
H2645 H 0.53299 0.59581 0.61121 0.0
H2646 H 0.57262 0.5776 0.6029 0.0
H2647 H 0.59759 0.54019 0.59749 0.0
O2648 O 0.5214 0.46435 0.63376 0.0
O2649 O 0.49534 0.50026 0.60414 0.0
O2650 O 0.47608 0.4661 0.59613 0.0
O2651 O 0.51009 0.503 0.63724 0.0
O2652 O 0.50349 0.44098 0.61769 0.0
O2653 O 0.46949 0.42781 0.60658 0.0
O2654 O 0.4374 0.49919 0.59938 0.0
O2655 O 0.43301 0.44085 0.62248 0.0
O2656 O 0.46416 0.46533 0.62113 0.0
O2657 O 0.40972 0.47125 0.5937 0.0
O2658 O 0.4257 0.49194 0.61983 0.0
O2659 O 0.46184 0.50459 0.62975 0.0
C2660 C 0.49064 0.48686 0.59526 0.0
C2661 C 0.55127 0.49035 0.64275 0.0
C2662 C 0.59693 0.48335 0.63991 0.0
C2663 C 0.60178 0.49903 0.64903 0.0
C2664 C 0.55656 0.50585 0.65173 0.0
C2665 C 0.58176 0.51048 0.65473 0.0
C2666 C 0.57147 0.48016 0.63663 0.0
C2667 C 0.49166 0.42276 0.61179 0.0
C2668 C 0.52472 0.48409 0.64 0.0
C2669 C 0.56541 0.5588 0.6048 0.0
C2670 C 0.57962 0.5375 0.60171 0.0
C2671 C 0.45287 0.449 0.62737 0.0
C2672 C 0.42302 0.50197 0.581 0.0
C2673 C 0.40829 0.52503 0.56485 0.0
C2674 C 0.42902 0.5151 0.55893 0.0
C2675 C 0.44233 0.4909 0.57472 0.0
C2676 C 0.40589 0.51889 0.57604 0.0
C2677 C 0.44579 0.49801 0.56384 0.0
C2678 C 0.43637 0.50598 0.62795 0.0
C2679 C 0.41908 0.49407 0.59241 0.0
H2680 H 0.62085 0.50172 0.65214 0.0
H2681 H 0.54123 0.51409 0.65648 0.0
H2682 H 0.58579 0.52226 0.66175 0.0
H2683 H 0.56716 0.46898 0.62951 0.0
H2684 H 0.43175 0.51984 0.55039 0.0
H2685 H 0.4543 0.47633 0.57815 0.0
H2686 H 0.38991 0.52604 0.58073 0.0
H2687 H 0.46101 0.48963 0.55908 0.0
C2688 C 0.23166 0.38407 0.38926 0.0
C2689 C 0.22489 0.35841 0.38791 0.0
C2690 C 0.21305 0.40306 0.389 0.0
C2691 C 0.14626 0.40377 0.39698 0.0
H2692 H 0.16233 0.47518 0.39991 0.0
C2693 C 0.11244 0.45229 0.43455 0.0
C2694 C 0.13426 0.4602 0.44016 0.0
C2695 C 0.11305 0.44972 0.42316 0.0
C2696 C 0.15714 0.45539 0.39896 0.0
H2697 H 0.19326 0.33368 0.38328 0.0
H2698 H 0.16203 0.36673 0.38191 0.0
H2699 H 0.18537 0.44955 0.38658 0.0
H2700 H 0.17313 0.47345 0.43844 0.0
H2701 H 0.17448 0.46876 0.41881 0.0
H2702 H 0.11971 0.40888 0.40991 0.0
C2703 C 0.18143 0.37203 0.38388 0.0
C2704 C 0.17046 0.44065 0.39137 0.0
C2705 C 0.19976 0.35292 0.38454 0.0
C2706 C 0.15603 0.46728 0.43426 0.0
C2707 C 0.15662 0.46495 0.42295 0.0
C2708 C 0.13296 0.41847 0.40451 0.0
C2709 C 0.18732 0.39693 0.38707 0.0
C2710 C 0.16679 0.41418 0.39105 0.0
C2711 C 0.13562 0.45485 0.4173 0.0
C2712 C 0.14 0.44383 0.4063 0.0
H2713 H 0.25099 0.38946 0.39127 0.0
H2714 H 0.21864 0.42207 0.39134 0.0
H2715 H 0.14244 0.38357 0.39697 0.0
H2716 H 0.09574 0.44609 0.43898 0.0
H2717 H 0.09656 0.4419 0.41906 0.0
C2718 C 1.03004 0.8766 0.65225 0.0
C2719 C 1.02795 0.89931 0.64626 0.0
C2720 C 1.01097 0.85817 0.65162 0.0
C2721 C 0.94241 0.8649 0.64739 0.0
H2722 H 0.9462 0.80795 0.66738 0.0
C2723 C 0.87716 0.861 0.68417 0.0
C2724 C 0.89365 0.86608 0.69291 0.0
C2725 C 0.88682 0.85112 0.6744 0.0
C2726 C 0.94443 0.82335 0.66154 0.0
H2727 H 1.00674 0.91757 0.63308 0.0
H2728 H 0.97532 0.88462 0.63132 0.0
H2729 H 0.98009 0.81444 0.65404 0.0
H2730 H 0.9325 0.86389 0.69869 0.0
H2731 H 0.94933 0.84614 0.68182 0.0
H2732 H 0.90753 0.87459 0.65533 0.0
C2733 C 0.99052 0.88188 0.63718 0.0
C2734 C 0.96402 0.82733 0.65398 0.0
C2735 C 1.00902 0.9008 0.63811 0.0
C2736 C 0.91951 0.86005 0.69202 0.0
C2737 C 0.92901 0.84954 0.68243 0.0
C2738 C 0.9226 0.86057 0.65476 0.0
C2739 C 0.98966 0.86179 0.64476 0.0
C2740 C 0.96471 0.84991 0.64778 0.0
C2741 C 0.91293 0.84561 0.67342 0.0
C2742 C 0.9249 0.8414 0.66265 0.0
H2743 H 0.04516 0.87396 0.65815 0.0
H2744 H 1.01177 0.8427 0.65744 0.0
H2745 H 0.94148 0.88218 0.6426 0.0
H2746 H 0.85715 0.86581 0.68469 0.0
H2747 H 0.87419 0.84877 0.66748 0.0
C2748 C 0.36478 0.72073 0.87908 0.0
C2749 C 0.3423 0.71888 0.88541 0.0
C2750 C 0.38002 0.69945 0.87731 0.0
C2751 C 0.39001 0.63441 0.88962 0.0
H2752 H 0.44604 0.67126 0.90271 0.0
C2753 C 0.46095 0.63451 0.92979 0.0
C2754 C 0.44218 0.62629 0.93718 0.0
C2755 C 0.45549 0.63637 0.91865 0.0
C2756 C 0.43117 0.66011 0.89891 0.0
H2757 H 0.31515 0.69152 0.89195 0.0
H2758 H 0.3431 0.65549 0.89024 0.0
H2759 H 0.42199 0.6908 0.88846 0.0
H2760 H 0.40329 0.61266 0.93865 0.0
H2761 H 0.39352 0.61671 0.91944 0.0
H2762 H 0.3985 0.60439 0.90088 0.0
C2763 C 0.34918 0.67328 0.88663 0.0
C2764 C 0.41715 0.67143 0.89058 0.0
C2765 C 0.3333 0.69435 0.88794 0.0
C2766 C 0.41812 0.61931 0.93319 0.0
C2767 C 0.41269 0.62112 0.92209 0.0
C2768 C 0.40419 0.62299 0.89796 0.0
C2769 C 0.37397 0.67631 0.8824 0.0
C2770 C 0.39483 0.65976 0.88661 0.0
C2771 C 0.43116 0.63004 0.91467 0.0
C2772 C 0.42339 0.63677 0.90336 0.0
H2773 H 0.37255 0.73872 0.87646 0.0
H2774 H 0.39832 0.70209 0.87336 0.0
H2775 H 0.37365 0.6244 0.8864 0.0
H2776 H 0.47968 0.63996 0.93264 0.0
H2777 H 0.47013 0.6434 0.91319 0.0
C2778 C 0.70164 0.21483 0.18558 0.0
C2779 C 0.71028 0.19323 0.19115 0.0
C2780 C 0.69951 0.21459 0.17418 0.0
C2781 C 0.70735 0.17146 0.14983 0.0
H2782 H 0.63594 0.18777 0.14639 0.0
C2783 C 0.63467 0.09957 0.13905 0.0
C2784 C 0.60935 0.10727 0.1372 0.0
C2785 C 0.65445 0.11736 0.13892 0.0
C2786 C 0.65609 0.18352 0.14683 0.0
H2787 H 0.72448 0.15486 0.18934 0.0
H2788 H 0.72017 0.15396 0.1697 0.0
H2789 H 0.66025 0.20927 0.16002 0.0
H2790 H 0.58628 0.13942 0.13168 0.0
H2791 H 0.62073 0.16919 0.13061 0.0
H2792 H 0.70221 0.14384 0.13721 0.0
C2793 C 0.7158 0.17154 0.17387 0.0
C2794 C 0.67023 0.19609 0.15476 0.0
C2795 C 0.71791 0.17186 0.1852 0.0
C2796 C 0.60517 0.13226 0.13336 0.0
C2797 C 0.62508 0.14974 0.13286 0.0
C2798 C 0.69313 0.15877 0.14188 0.0
C2799 C 0.70546 0.19247 0.16824 0.0
C2800 C 0.69531 0.18847 0.15704 0.0
C2801 C 0.64943 0.14312 0.13664 0.0
C2802 C 0.66675 0.16307 0.141 0.0
H2803 H 0.69465 0.23107 0.19005 0.0
H2804 H 0.69149 0.23104 0.17011 0.0
H2805 H 0.727 0.16591 0.15111 0.0
H2806 H 0.6391 0.08025 0.14141 0.0
H2807 H 0.67304 0.11123 0.1417 0.0
C2808 C 0.25133 0.69701 0.19161 0.0
C2809 C 0.24471 0.71924 0.19723 0.0
C2810 C 0.23377 0.67726 0.19065 0.0
C2811 C 0.19184 0.63857 0.18809 0.0
H2812 H 0.1386 0.6773 0.17374 0.0
C2813 C 0.16156 0.61798 0.14524 0.0
C2814 C 0.1374 0.62461 0.14125 0.0
C2815 C 0.16779 0.62207 0.15612 0.0
C2816 C 0.15263 0.66579 0.17794 0.0
H2817 H 0.21625 0.73661 0.20768 0.0
H2818 H 0.18539 0.70229 0.20581 0.0
H2819 H 0.16397 0.69711 0.18777 0.0
H2820 H 0.10047 0.64004 0.14559 0.0
H2821 H 0.11153 0.64766 0.16473 0.0
H2822 H 0.18147 0.60775 0.17766 0.0
C2823 C 0.20398 0.70025 0.20206 0.0
C2824 C 0.16725 0.6772 0.18605 0.0
C2825 C 0.22159 0.71995 0.20305 0.0
C2826 C 0.11929 0.63487 0.14845 0.0
C2827 C 0.1256 0.63913 0.1594 0.0
C2828 C 0.17699 0.62703 0.18005 0.0
C2829 C 0.20929 0.67952 0.19525 0.0
C2830 C 0.18825 0.66434 0.19057 0.0
C2831 C 0.15003 0.633 0.16333 0.0
C2832 C 0.15865 0.64125 0.17429 0.0
H2833 H 0.26901 0.69583 0.18706 0.0
H2834 H 0.23843 0.66158 0.18529 0.0
H2835 H 0.2076 0.62809 0.19161 0.0
H2836 H 0.17588 0.60977 0.13993 0.0
H2837 H 0.18701 0.61772 0.15874 0.0
C2838 C 0.69626 0.84792 0.38853 0.0
C2839 C 0.70212 0.8735 0.38651 0.0
C2840 C 0.68652 0.84024 0.3986 0.0
C2841 C 0.63809 0.84432 0.41141 0.0
H2842 H 0.64335 0.87919 0.43909 0.0
C2843 C 0.55181 0.89532 0.42555 0.0
C2844 C 0.55796 0.92062 0.42789 0.0
C2845 C 0.57043 0.87638 0.42645 0.0
C2846 C 0.6415 0.86917 0.43142 0.0
H2847 H 0.70435 0.9109 0.39371 0.0
H2848 H 0.68625 0.89788 0.41122 0.0
H2849 H 0.68187 0.86998 0.42867 0.0
H2850 H 0.58739 0.94591 0.43377 0.0
H2851 H 0.61999 0.91391 0.43462 0.0
H2852 H 0.59801 0.84663 0.41314 0.0
C2853 C 0.68999 0.88343 0.40514 0.0
C2854 C 0.66365 0.86363 0.42554 0.0
C2855 C 0.69998 0.89102 0.39505 0.0
C2856 C 0.58228 0.92648 0.43184 0.0
C2857 C 0.60095 0.90783 0.4325 0.0
C2858 C 0.61599 0.85054 0.4171 0.0
C2859 C 0.68172 0.85825 0.40675 0.0
C2860 C 0.66184 0.8532 0.41504 0.0
C2861 C 0.5957 0.88266 0.42932 0.0
C2862 C 0.61738 0.86546 0.4266 0.0
H2863 H 0.69674 0.8341 0.38213 0.0
H2864 H 0.68024 0.82076 0.39959 0.0
H2865 H 0.63604 0.83588 0.4034 0.0
H2866 H 0.53287 0.89034 0.42278 0.0
H2867 H 0.56533 0.85713 0.42428 0.0
C2868 C 0.46719 0.41018 0.63674 0.0
C2869 C 0.4642 0.43657 0.63691 0.0
C2870 C 0.47683 0.39749 0.64581 0.0
C2871 C 0.4672 0.39976 0.67379 0.0
H2872 H 0.50156 0.33493 0.67109 0.0
C2873 C 0.41237 0.31758 0.68714 0.0
C2874 C 0.40917 0.30185 0.67794 0.0
C2875 C 0.43437 0.33223 0.68834 0.0
C2876 C 0.49213 0.35305 0.67216 0.0
H2877 H 0.46905 0.47073 0.64646 0.0
H2878 H 0.48458 0.44814 0.66281 0.0
H2879 H 0.51463 0.37052 0.65961 0.0
H2880 H 0.42864 0.28587 0.66392 0.0
H2881 H 0.46568 0.31275 0.6654 0.0
H2882 H 0.44239 0.3819 0.68513 0.0
C2883 C 0.48051 0.43748 0.65546 0.0
C2884 C 0.49984 0.37353 0.66566 0.0
C2885 C 0.47145 0.45032 0.64619 0.0
C2886 C 0.42987 0.29869 0.6708 0.0
C2887 C 0.45157 0.31381 0.67184 0.0
C2888 C 0.45926 0.37925 0.68017 0.0
C2889 C 0.48288 0.41086 0.65539 0.0
C2890 C 0.48555 0.39611 0.66562 0.0
C2891 C 0.45321 0.3322 0.68016 0.0
C2892 C 0.46976 0.35491 0.67847 0.0
H2893 H 0.46159 0.39926 0.62965 0.0
H2894 H 0.47772 0.37694 0.64557 0.0
H2895 H 0.45613 0.41712 0.67409 0.0
H2896 H 0.39712 0.32039 0.69297 0.0
H2897 H 0.43539 0.3454 0.6951 0.0
C2898 C 1.00784 0.17034 0.93696 0.0
C2899 C 1.0254 0.16836 0.92829 0.0
C2900 C 0.99054 0.1905 0.93736 0.0
C2901 C 0.96696 0.24552 0.92022 0.0
H2902 H 0.90489 0.20581 0.92163 0.0
C2903 C 0.91112 0.21765 0.88464 0.0
C2904 C 0.88469 0.21432 0.88478 0.0
C2905 C 0.92355 0.22766 0.89367 0.0
C2906 C 0.92164 0.21785 0.92148 0.0
H2907 H 0.04128 0.18834 0.91434 0.0
H2908 H 1.01017 0.22207 0.91446 0.0
H2909 H 0.94053 0.19404 0.9329 0.0
H2910 H 0.85013 0.21911 0.89421 0.0
H2911 H 0.87233 0.23514 0.91055 0.0
H2912 H 0.9487 0.26699 0.90755 0.0
C2913 C 1.00964 0.20844 0.92109 0.0
C2914 C 0.94236 0.21106 0.92799 0.0
C2915 C 1.02727 0.18862 0.92084 0.0
C2916 C 0.87059 0.22176 0.89398 0.0
C2917 C 0.88319 0.23108 0.90323 0.0
C2918 C 0.94632 0.25202 0.91356 0.0
C2919 C 0.98991 0.20868 0.92892 0.0
C2920 C 0.9661 0.2232 0.92658 0.0
C2921 C 0.90987 0.23368 0.90319 0.0
C2922 C 0.92447 0.23662 0.91343 0.0
H2923 H 1.00591 0.15536 0.94298 0.0
H2924 H 0.97624 0.19052 0.94374 0.0
H2925 H 0.98454 0.2561 0.91933 0.0
H2926 H 0.92232 0.21189 0.87763 0.0
H2927 H 0.94417 0.2288 0.89348 0.0
C2928 C 0.85572 0.71217 0.70416 0.0
C2929 C 0.8334 0.71375 0.69784 0.0
C2930 C 0.87227 0.69162 0.70294 0.0
C2931 C 0.90918 0.67029 0.68662 0.0
H2932 H 0.89276 0.60371 0.67525 0.0
C2933 C 0.95732 0.63486 0.64768 0.0
C2934 C 0.93935 0.62653 0.63999 0.0
C2935 C 0.95058 0.63707 0.65869 0.0
C2936 C 0.89783 0.62218 0.67846 0.0
H2937 H 0.80892 0.69334 0.68664 0.0
H2938 H 0.83763 0.65764 0.68449 0.0
H2939 H 0.8667 0.62185 0.68981 0.0
H2940 H 0.90056 0.61305 0.63786 0.0
H2941 H 0.8887 0.61756 0.65681 0.0
H2942 H 0.93838 0.67207 0.67454 0.0
C2943 C 0.84255 0.67216 0.69038 0.0
C2944 C 0.88305 0.63242 0.68686 0.0
C2945 C 0.82606 0.69275 0.69156 0.0
C2946 C 0.91481 0.61983 0.64354 0.0
C2947 C 0.90815 0.62191 0.6545 0.0
C2948 C 0.92374 0.66021 0.67815 0.0
C2949 C 0.86665 0.67238 0.6954 0.0
C2950 C 0.88746 0.65735 0.69042 0.0
C2951 C 0.92582 0.63081 0.66222 0.0
C2952 C 0.91695 0.6369 0.67343 0.0
H2953 H 0.86148 0.72784 0.70929 0.0
H2954 H 0.89053 0.69205 0.70705 0.0
H2955 H 0.91315 0.68957 0.68917 0.0
H2956 H 0.97644 0.63999 0.64517 0.0
H2957 H 0.9646 0.6441 0.66442 0.0
C2958 C 0.13586 0.10697 0.44297 0.0
C2959 C 0.1099 0.1134 0.44376 0.0
C2960 C 0.15454 0.12584 0.44331 0.0
C2961 C 0.15345 0.191 0.43372 0.0
H2962 H 0.22529 0.17578 0.43078 0.0
C2963 C 0.2182 0.1758 0.39645 0.0
C2964 C 0.21012 0.19587 0.38977 0.0
C2965 C 0.21533 0.17716 0.40774 0.0
C2966 C 0.20535 0.18069 0.43166 0.0
H2967 H 0.08411 0.14459 0.44782 0.0
H2968 H 0.11661 0.17641 0.44931 0.0
H2969 H 0.20047 0.15497 0.44509 0.0
H2970 H 0.1926 0.23297 0.38951 0.0
H2971 H 0.18839 0.23604 0.40934 0.0
H2972 H 0.1575 0.21481 0.4198 0.0
C2973 C 0.12243 0.15706 0.44765 0.0
C2974 C 0.19109 0.16871 0.43986 0.0
C2975 C 0.10364 0.13842 0.44691 0.0
C2976 C 0.20011 0.21783 0.39455 0.0
C2977 C 0.19734 0.21934 0.40589 0.0
C2978 C 0.16763 0.2029 0.42557 0.0
C2979 C 0.14771 0.1515 0.44475 0.0
C2980 C 0.16448 0.17186 0.44025 0.0
C2981 C 0.20383 0.1985 0.41259 0.0
C2982 C 0.19313 0.19594 0.42379 0.0
H2983 H 0.14175 0.08771 0.44122 0.0
H2984 H 0.17388 0.12047 0.44126 0.0
H2985 H 0.13312 0.19445 0.43377 0.0
H2986 H 0.22566 0.15848 0.3929 0.0
H2987 H 0.22009 0.16048 0.41251 0.0
C2988 C 0.65508 0.46924 0.14333 0.0
C2989 C 0.6339 0.46109 0.13734 0.0
C2990 C 0.65584 0.46607 0.15461 0.0
C2991 C 0.65707 0.45498 0.17851 0.0
H2992 H 0.64344 0.38297 0.18091 0.0
C2993 C 0.73149 0.38414 0.18966 0.0
C2994 C 0.72454 0.35859 0.19132 0.0
C2995 C 0.71295 0.40321 0.18951 0.0
C2996 C 0.64693 0.40323 0.18076 0.0
H2997 H 0.59686 0.44339 0.13833 0.0
H2998 H 0.59752 0.4386 0.15819 0.0
H2999 H 0.62105 0.40752 0.16757 0.0
H3000 H 0.69259 0.33431 0.19612 0.0
H3001 H 0.66148 0.36755 0.19677 0.0
H3002 H 0.68479 0.44984 0.19116 0.0
C3003 C 0.61349 0.44779 0.1542 0.0
C3004 C 0.63385 0.4175 0.173 0.0
C3005 C 0.61284 0.4509 0.14285 0.0
C3006 C 0.69926 0.35343 0.19462 0.0
C3007 C 0.68099 0.37263 0.19487 0.0
C3008 C 0.67027 0.44062 0.18631 0.0
C3009 C 0.63556 0.45416 0.16015 0.0
C3010 C 0.64041 0.44301 0.17113 0.0
C3011 C 0.68712 0.39726 0.19133 0.0
C3012 C 0.66686 0.41414 0.18685 0.0
H3013 H 0.67174 0.47682 0.13922 0.0
H3014 H 0.67338 0.47082 0.15878 0.0
H3015 H 0.66185 0.47487 0.17754 0.0
H3016 H 0.75092 0.38932 0.1877 0.0
H3017 H 0.71868 0.42204 0.18692 0.0
C3018 C 0.37633 0.8644 0.89662 0.0
C3019 C 0.39176 0.871 0.88768 0.0
C3020 C 0.38723 0.85373 0.906 0.0
C3021 C 0.44713 0.82639 0.91707 0.0
H3022 H 0.44277 0.88135 0.93786 0.0
C3023 C 0.52817 0.88524 0.92458 0.0
C3024 C 0.52575 0.90649 0.93139 0.0
C3025 C 0.51128 0.86493 0.92557 0.0
C3026 C 0.44415 0.86506 0.93253 0.0
H3027 H 0.43017 0.87139 0.88127 0.0
H3028 H 0.44922 0.85253 0.8975 0.0
H3029 H 0.40797 0.87399 0.92557 0.0
H3030 H 0.50701 0.92061 0.94603 0.0
H3031 H 0.47877 0.88461 0.94812 0.0
H3032 H 0.48412 0.81856 0.92353 0.0
C3033 C 0.42873 0.85509 0.89729 0.0
C3034 C 0.42388 0.86087 0.92541 0.0
C3035 C 0.41796 0.86628 0.88808 0.0
C3036 C 0.50914 0.90491 0.94041 0.0
C3037 C 0.49265 0.88424 0.94157 0.0
C3038 C 0.46723 0.83023 0.92436 0.0
C3039 C 0.41359 0.84912 0.90643 0.0
C3040 C 0.42658 0.84347 0.91685 0.0
C3041 C 0.4917 0.86535 0.93348 0.0
C3042 C 0.4673 0.85179 0.93114 0.0
H3043 H 0.35609 0.86826 0.8965 0.0
H3044 H 0.37529 0.84984 0.91304 0.0
H3045 H 0.44922 0.81226 0.91071 0.0
H3046 H 0.54161 0.88518 0.91788 0.0
H3047 H 0.51191 0.8506 0.91926 0.0
C3048 C 0.84952 0.38941 0.88785 0.0
C3049 C 0.85386 0.3657 0.88297 0.0
C3050 C 0.86959 0.40646 0.88926 0.0
C3051 C 0.91598 0.44019 0.89168 0.0
H3052 H 0.95834 0.39962 0.91089 0.0
C3053 C 0.93218 0.46701 0.93481 0.0
C3054 C 0.95178 0.45649 0.94112 0.0
C3055 C 0.93141 0.46308 0.92359 0.0
C3056 C 0.94761 0.41155 0.90534 0.0
H3057 H 0.88184 0.34277 0.87438 0.0
H3058 H 0.91714 0.37215 0.87734 0.0
H3059 H 0.93437 0.37912 0.89663 0.0
H3060 H 0.98561 0.43329 0.94086 0.0
H3061 H 0.98447 0.42613 0.9211 0.0
H3062 H 0.92812 0.47248 0.90086 0.0
C3063 C 0.89823 0.37746 0.88006 0.0
C3064 C 0.93373 0.39966 0.89711 0.0
C3065 C 0.87807 0.36054 0.87851 0.0
C3066 C 0.97104 0.44251 0.93602 0.0
C3067 C 0.97015 0.43823 0.92474 0.0
C3068 C 0.93026 0.45218 0.8998 0.0
C3069 C 0.8944 0.40002 0.88591 0.0
C3070 C 0.9162 0.41361 0.89084 0.0
C3071 C 0.94983 0.44778 0.91844 0.0
C3072 C 0.94435 0.43764 0.90735 0.0
H3073 H 0.83117 0.39402 0.89137 0.0
H3074 H 0.8661 0.42358 0.89392 0.0
H3075 H 0.90296 0.45141 0.88678 0.0
H3076 H 0.91651 0.47698 0.93864 0.0
H3077 H 0.91497 0.47014 0.91919 0.0
C3078 C 0.48059 0.11114 0.63226 0.0
C3079 C 0.47785 0.08764 0.63776 0.0
C3080 C 0.46009 0.12777 0.63126 0.0
C3081 C 0.39321 0.13848 0.64127 0.0
H3082 H 0.4263 0.19566 0.65521 0.0
C3083 C 0.38039 0.216 0.67858 0.0
C3084 C 0.37049 0.1983 0.68607 0.0
C3085 C 0.3853 0.20884 0.66778 0.0
C3086 C 0.41634 0.18046 0.65108 0.0
H3087 H 0.44959 0.06155 0.64436 0.0
H3088 H 0.41476 0.09153 0.64372 0.0
H3089 H 0.45035 0.16913 0.64311 0.0
H3090 H 0.35619 0.15983 0.68793 0.0
H3091 H 0.36576 0.14707 0.66946 0.0
H3092 H 0.35961 0.14908 0.65009 0.0
C3093 C 0.43273 0.09706 0.64007 0.0
C3094 C 0.43025 0.16504 0.64404 0.0
C3095 C 0.45307 0.07997 0.64072 0.0
C3096 C 0.36437 0.17379 0.68244 0.0
C3097 C 0.36933 0.16662 0.67172 0.0
C3098 C 0.37921 0.15404 0.64831 0.0
C3099 C 0.43662 0.12192 0.63614 0.0
C3100 C 0.41941 0.14274 0.63973 0.0
C3101 C 0.38051 0.1838 0.66433 0.0
C3102 C 0.39128 0.17396 0.65395 0.0
H3103 H 0.4989 0.11824 0.62962 0.0
H3104 H 0.46345 0.14639 0.62775 0.0
H3105 H 0.38406 0.12193 0.6378 0.0
H3106 H 0.38512 0.23506 0.68114 0.0
H3107 H 0.39376 0.22261 0.66227 0.0
C3108 C 0.70851 0.70786 0.40093 0.0
C3109 C 0.70213 0.73299 0.39835 0.0
C3110 C 0.69077 0.68847 0.3994 0.0
C3111 C 0.62421 0.68145 0.40265 0.0
H3112 H 0.64508 0.61108 0.40072 0.0
C3113 C 0.60437 0.624 0.4386 0.0
C3114 C 0.62786 0.61521 0.44245 0.0
C3115 C 0.60087 0.62849 0.42746 0.0
C3116 C 0.63855 0.63057 0.40116 0.0
H3117 H 0.67258 0.75759 0.3918 0.0
H3118 H 0.64154 0.72369 0.38924 0.0
H3119 H 0.66718 0.64316 0.3899 0.0
H3120 H 0.66539 0.60205 0.43787 0.0
H3121 H 0.65975 0.60999 0.4186 0.0
H3122 H 0.59812 0.67 0.41488 0.0
C3123 C 0.66031 0.71893 0.3923 0.0
C3124 C 0.65116 0.6489 0.39491 0.0
C3125 C 0.67803 0.7383 0.39384 0.0
C3126 C 0.64706 0.60887 0.43503 0.0
C3127 C 0.64355 0.61314 0.4239 0.0
C3128 C 0.61196 0.66324 0.40902 0.0
C3129 C 0.66628 0.6939 0.3953 0.0
C3130 C 0.64592 0.67475 0.39661 0.0
C3131 C 0.62091 0.62447 0.42003 0.0
C3132 C 0.62144 0.63822 0.40939 0.0
H3133 H 0.72708 0.70323 0.40424 0.0
H3134 H 0.69578 0.66947 0.40205 0.0
H3135 H 0.61918 0.70119 0.4039 0.0
H3136 H 0.58933 0.62918 0.44422 0.0
H3137 H 0.58312 0.63695 0.42482 0.0
C3138 C 0.16367 0.86976 0.19305 0.0
C3139 C 0.19022 0.87213 0.19299 0.0
C3140 C 0.15121 0.8582 0.18439 0.0
C3141 C 0.15305 0.8612 0.15648 0.0
H3142 H 0.0904 0.82334 0.16045 0.0
C3143 C 0.06738 0.90864 0.14207 0.0
C3144 C 0.05112 0.91174 0.15115 0.0
C3145 C 0.08346 0.88757 0.14134 0.0
C3146 C 0.10789 0.83377 0.15904 0.0
H3147 H 0.22484 0.86441 0.18399 0.0
H3148 H 0.20263 0.84561 0.1682 0.0
H3149 H 0.12673 0.81483 0.17228 0.0
H3150 H 1.03565 0.89251 0.16539 0.0
H3151 H 0.06502 0.85742 0.16475 0.0
H3152 H 0.13364 0.88283 0.14447 0.0
C3153 C 0.19171 0.85159 0.17526 0.0
C3154 C 0.12882 0.82859 0.16574 0.0
C3155 C 0.20432 0.86247 0.18419 0.0
C3156 C 0.04889 0.89154 0.15861 0.0
C3157 C 0.06549 0.87088 0.15806 0.0
C3158 C 0.13201 0.86674 0.14994 0.0
C3159 C 0.16499 0.84957 0.17527 0.0
C3160 C 0.15054 0.84413 0.16521 0.0
C3161 C 0.08443 0.86969 0.14989 0.0
C3162 C 0.1083 0.85505 0.15204 0.0
H3163 H 0.15248 0.87706 0.1998 0.0
H3164 H 0.13057 0.85757 0.1845 0.0
H3165 H 0.16976 0.87321 0.15579 0.0
H3166 H 0.06951 0.9234 0.13597 0.0
H3167 H 0.09691 0.88673 0.13464 0.0
C3168 C 0.62533 0.96974 0.93305 0.0
C3169 C 0.61877 0.95352 0.9417 0.0
C3170 C 0.62051 0.96251 0.92227 0.0
C3171 C 0.59492 0.90832 0.90558 0.0
H3172 H 0.66343 0.90993 0.89396 0.0
C3173 C 0.65281 0.82332 0.90233 0.0
C3174 C 0.67646 0.82368 0.89699 0.0
C3175 C 0.63532 0.84286 0.90061 0.0
C3176 C 0.64378 0.90959 0.89666 0.0
H3177 H 0.6014 0.91771 0.94611 0.0
H3178 H 0.59387 0.90451 0.92746 0.0
H3179 H 0.64956 0.94332 0.90582 0.0
H3180 H 0.69882 0.84292 0.88449 0.0
H3181 H 0.66803 0.87649 0.8813 0.0
H3182 H 0.59023 0.87304 0.89721 0.0
C3183 C 0.60178 0.92324 0.92881 0.0
C3184 C 0.63574 0.929 0.90357 0.0
C3185 C 0.60631 0.93063 0.93954 0.0
C3186 C 0.68089 0.84216 0.88886 0.0
C3187 C 0.66323 0.8615 0.88703 0.0
C3188 C 0.60291 0.88893 0.89863 0.0
C3189 C 0.60972 0.93863 0.92001 0.0
C3190 C 0.61227 0.927 0.90903 0.0
C3191 C 0.64113 0.86311 0.89347 0.0
C3192 C 0.62841 0.88798 0.89515 0.0
H3193 H 0.63521 0.9874 0.93454 0.0
H3194 H 0.62675 0.97485 0.91569 0.0
H3195 H 0.57638 0.90673 0.90934 0.0
H3196 H 0.64842 0.80879 0.90833 0.0
H3197 H 0.61848 0.84326 0.90573 0.0
C3198 C 0.36618 0.39861 0.18417 0.0
C3199 C 0.37342 0.37726 0.19028 0.0
C3200 C 0.36805 0.3985 0.17284 0.0
C3201 C 0.37634 0.39735 0.14878 0.0
H3202 H 0.44898 0.38576 0.14684 0.0
C3203 C 0.44429 0.4746 0.13872 0.0
C3204 C 0.47034 0.46915 0.13735 0.0
C3205 C 0.42622 0.4551 0.13859 0.0
C3206 C 0.42857 0.38867 0.14684 0.0
H3207 H 0.38747 0.33875 0.18946 0.0
H3208 H 0.39132 0.33852 0.16948 0.0
H3209 H 0.42446 0.36242 0.15996 0.0
H3210 H 0.49681 0.43882 0.13292 0.0
H3211 H 0.4653 0.40596 0.13178 0.0
H3212 H 0.38106 0.42531 0.13621 0.0
C3213 C 0.38348 0.35513 0.17345 0.0
C3214 C 0.41434 0.37502 0.15446 0.0
C3215 C 0.38119 0.35517 0.18486 0.0
C3216 C 0.47717 0.4443 0.13416 0.0
C3217 C 0.45898 0.42505 0.13364 0.0
C3218 C 0.3906 0.41099 0.14109 0.0
C3219 C 0.37801 0.37724 0.16737 0.0
C3220 C 0.38864 0.38109 0.15625 0.0
C3221 C 0.43368 0.42974 0.13678 0.0
C3222 C 0.41729 0.40853 0.1408 0.0
H3223 H 0.36025 0.41596 0.18818 0.0
H3224 H 0.36406 0.41604 0.16853 0.0
H3225 H 0.35631 0.40178 0.14975 0.0
H3226 H 0.4379 0.49362 0.14064 0.0
H3227 H 0.40688 0.45977 0.14091 0.0
C3228 C 0.96394 0.1648 0.44279 0.0
C3229 C 0.95878 0.13875 0.44305 0.0
C3230 C 0.97575 0.17561 0.43373 0.0
C3231 C 0.97113 0.17189 0.40557 0.0
H3232 H 1.01422 0.23128 0.40825 0.0
C3233 C 0.92883 0.25819 0.39067 0.0
C3234 C 0.92717 0.27468 0.3997 0.0
C3235 C 0.94933 0.24145 0.38965 0.0
C3236 C 1.00233 0.21466 0.40721 0.0
H3237 H 0.96139 0.10337 0.43417 0.0
H3238 H 0.98078 0.12275 0.41781 0.0
H3239 H 1.01964 0.19576 0.42084 0.0
H3240 H 0.94849 0.29007 0.41333 0.0
H3241 H 0.98253 0.25958 0.41225 0.0
H3242 H 0.9513 0.19159 0.39312 0.0
C3243 C 0.97676 0.1345 0.42486 0.0
C3244 C 1.00568 0.19418 0.41435 0.0
C3245 C 0.96547 0.12352 0.43412 0.0
C3246 C 0.94833 0.27661 0.40666 0.0
C3247 C 0.96838 0.25933 0.40584 0.0
C3248 C 0.96745 0.19251 0.39858 0.0
C3249 C 0.98189 0.1607 0.42459 0.0
C3250 C 0.98828 0.17391 0.41428 0.0
C3251 C 0.96791 0.23997 0.39789 0.0
C3252 C 0.98099 0.21534 0.40024 0.0
H3253 H 0.95871 0.17686 0.44959 0.0
H3254 H 0.97867 0.19599 0.43363 0.0
H3255 H 0.95776 0.15622 0.4052 0.0
H3256 H 0.91332 0.25635 0.38492 0.0
H3257 H 0.94899 0.22779 0.38305 0.0
C3258 C 0.08143 0.64496 0.64849 0.0
C3259 C 0.05686 0.65237 0.65161 0.0
C3260 C 0.10104 0.66265 0.64804 0.0
C3261 C 0.11652 0.71985 0.66302 0.0
H3262 H 0.18305 0.7 0.65218 0.0
C3263 C 0.1959 0.72667 0.69199 0.0
C3264 C 0.20662 0.70264 0.69373 0.0
C3265 C 0.18496 0.733 0.68202 0.0
C3266 C 0.16464 0.70622 0.65516 0.0
H3267 H 1.0325 0.68423 0.65549 0.0
H3268 H 0.06676 0.71572 0.6544 0.0
H3269 H 0.14501 0.68975 0.64163 0.0
H3270 H 0.21453 0.6662 0.68636 0.0
H3271 H 0.1931 0.67623 0.66916 0.0
H3272 H 0.13557 0.73499 0.67678 0.0
C3273 C 0.07118 0.69605 0.65268 0.0
C3274 C 0.1428 0.70029 0.64915 0.0
C3275 C 0.05158 0.67812 0.65336 0.0
C3276 C 0.20672 0.68506 0.68516 0.0
C3277 C 0.19481 0.69101 0.67525 0.0
C3278 C 0.13824 0.72616 0.66889 0.0
C3279 C 0.09647 0.6883 0.65061 0.0
C3280 C 0.11843 0.70472 0.65362 0.0
C3281 C 0.18265 0.71467 0.67381 0.0
C3282 C 0.1623 0.7174 0.66551 0.0
H3283 H 0.08583 0.62514 0.64701 0.0
H3284 H 0.12009 0.65559 0.64655 0.0
H3285 H 0.09828 0.72405 0.66673 0.0
H3286 H 0.19353 0.73992 0.69854 0.0
H3287 H 0.17583 0.75138 0.68119 0.0
C3288 C 0.66463 0.10993 0.64373 0.0
C3289 C 0.64258 0.11702 0.63805 0.0
C3290 C 0.6655 0.11149 0.65507 0.0
C3291 C 0.66657 0.11876 0.67919 0.0
H3292 H 0.64751 0.18901 0.68338 0.0
C3293 C 0.73633 0.19335 0.68978 0.0
C3294 C 0.72768 0.21829 0.69162 0.0
C3295 C 0.7193 0.17295 0.6901 0.0
C3296 C 0.65257 0.16914 0.68275 0.0
H3297 H 0.60407 0.13092 0.63963 0.0
H3298 H 0.6051 0.13309 0.65959 0.0
H3299 H 0.62624 0.16461 0.66974 0.0
H3300 H 0.69491 0.23996 0.69754 0.0
H3301 H 0.66656 0.20447 0.69896 0.0
H3302 H 0.69467 0.12435 0.69162 0.0
C3303 C 0.62169 0.12598 0.6553 0.0
C3304 C 0.64013 0.15495 0.6748 0.0
C3305 C 0.6209 0.12444 0.64389 0.0
C3306 C 0.70275 0.22145 0.69578 0.0
C3307 C 0.68607 0.2009 0.69649 0.0
C3308 C 0.67912 0.13303 0.68716 0.0
C3309 C 0.64443 0.12067 0.66098 0.0
C3310 C 0.64866 0.1304 0.67223 0.0
C3311 C 0.6934 0.17695 0.6926 0.0
C3312 C 0.67382 0.15909 0.6883 0.0
H3313 H 0.68169 0.10428 0.63938 0.0
H3314 H 0.68353 0.10765 0.65904 0.0
H3315 H 0.67286 0.09948 0.67769 0.0
H3316 H 0.75572 0.18968 0.68723 0.0
H3317 H 0.72602 0.15468 0.68726 0.0
C3318 C 0.20425 0.36448 0.89418 0.0
C3319 C 0.18898 0.37097 0.8852 0.0
C3320 C 0.19327 0.35332 0.90346 0.0
C3321 C 0.13312 0.32526 0.91417 0.0
H3322 H 0.13707 0.37965 0.93525 0.0
C3323 C 0.05114 0.38336 0.92252 0.0
C3324 C 0.05351 0.40427 0.92954 0.0
C3325 C 0.06843 0.36328 0.92313 0.0
C3326 C 0.13579 0.36351 0.92983 0.0
H3327 H 0.15077 0.37072 0.87861 0.0
H3328 H 0.13162 0.351 0.89461 0.0
H3329 H 0.17209 0.37263 0.92301 0.0
H3330 H 0.07266 0.41765 0.94422 0.0
H3331 H 0.1013 0.38194 0.94571 0.0
H3332 H 0.09599 0.31729 0.92049 0.0
C3333 C 0.15205 0.35396 0.89453 0.0
C3334 C 0.1562 0.3595 0.92274 0.0
C3335 C 0.16289 0.36561 0.88543 0.0
C3336 C 0.07048 0.40233 0.93842 0.0
C3337 C 0.08725 0.38181 0.93923 0.0
C3338 C 0.11285 0.32894 0.92141 0.0
C3339 C 0.16698 0.34818 0.90374 0.0
C3340 C 0.15371 0.34231 0.9141 0.0
C3341 C 0.08822 0.36346 0.93092 0.0
C3342 C 0.11269 0.35024 0.92834 0.0
H3343 H 0.22443 0.36875 0.89416 0.0
H3344 H 0.20505 0.34954 0.91055 0.0
H3345 H 0.13118 0.31127 0.90775 0.0
H3346 H 1.03732 0.38342 0.91596 0.0
H3347 H 0.0678 0.34931 0.91667 0.0
C3348 C 0.96208 0.94723 0.14979 0.0
C3349 C 0.94417 0.95431 0.14183 0.0
C3350 C 0.95527 0.94668 0.16085 0.0
C3351 C 0.90117 0.96138 0.18 0.0
H3352 H 0.91496 0.89305 0.19006 0.0
C3353 C 0.82551 0.89281 0.19004 0.0
C3354 C 0.83281 0.86833 0.19354 0.0
C3355 C 0.84263 0.91309 0.19066 0.0
C3356 C 0.9112 0.91257 0.18777 0.0
H3357 H 0.90544 0.96761 0.13927 0.0
H3358 H 0.89334 0.96565 0.15826 0.0
H3359 H 0.94214 0.91176 0.17653 0.0
H3360 H 0.86178 0.84877 0.20339 0.0
H3361 H 0.8897 0.88409 0.20512 0.0
H3362 H 0.86873 0.96111 0.19063 0.0
C3363 C 0.91285 0.96111 0.15614 0.0
C3364 C 0.92703 0.92338 0.1799 0.0
C3365 C 0.91966 0.96168 0.14516 0.0
C3366 C 0.85515 0.86645 0.19997 0.0
C3367 C 0.8717 0.88701 0.20097 0.0
C3368 C 0.88523 0.95052 0.1879 0.0
C3369 C 0.93035 0.95307 0.16412 0.0
C3370 C 0.92084 0.94696 0.17524 0.0
C3371 C 0.86701 0.90954 0.19519 0.0
C3372 C 0.88878 0.92511 0.19113 0.0
H3373 H 0.98112 0.94154 0.14747 0.0
H3374 H 0.96923 0.94043 0.16679 0.0
H3375 H 0.89653 0.98007 0.17685 0.0
H3376 H 0.80762 0.89611 0.18592 0.0
H3377 H 0.83769 0.93051 0.18644 0.0
C3378 C 0.5134 0.66172 0.43292 0.0
C3379 C 0.509 0.63914 0.42711 0.0
C3380 C 0.49355 0.67908 0.43452 0.0
C3381 C 0.45279 0.71413 0.42363 0.0
H3382 H 0.38445 0.68895 0.42885 0.0
C3383 C 0.37265 0.68633 0.39488 0.0
C3384 C 0.37603 0.70569 0.38716 0.0
C3385 C 0.38006 0.69004 0.40569 0.0
C3386 C 0.40331 0.69671 0.42749 0.0
H3387 H 0.48072 0.61607 0.41899 0.0
H3388 H 0.44606 0.64617 0.42179 0.0
H3389 H 0.42032 0.67004 0.43853 0.0
H3390 H 0.38896 0.74423 0.38473 0.0
H3391 H 0.39972 0.75167 0.40367 0.0
H3392 H 0.43691 0.73793 0.41142 0.0
C3393 C 0.46467 0.65055 0.42513 0.0
C3394 C 0.4238 0.68606 0.43315 0.0
C3395 C 0.48452 0.63362 0.4233 0.0
C3396 C 0.38493 0.72944 0.39057 0.0
C3397 C 0.3917 0.73345 0.40145 0.0
C3398 C 0.43241 0.72442 0.41782 0.0
C3399 C 0.46901 0.67351 0.43065 0.0
C3400 C 0.44882 0.69289 0.43032 0.0
C3401 C 0.39112 0.71324 0.40898 0.0
C3402 C 0.40793 0.71358 0.41877 0.0
H3403 H 0.53221 0.66601 0.43605 0.0
H3404 H 0.49738 0.69692 0.43858 0.0
H3405 H 0.47194 0.72 0.42146 0.0
H3406 H 0.36578 0.6678 0.39241 0.0
H3407 H 0.37939 0.67378 0.41112 0.0
C3408 C 0.34363 0.18843 0.1907 0.0
C3409 C 0.3493 0.21144 0.19591 0.0
C3410 C 0.36245 0.16993 0.18945 0.0
C3411 C 0.40605 0.13324 0.18671 0.0
H3412 H 0.45484 0.17291 0.17009 0.0
C3413 C 0.42187 0.11806 0.14286 0.0
C3414 C 0.44371 0.12634 0.13731 0.0
C3415 C 0.42075 0.1188 0.15419 0.0
C3416 C 0.44222 0.16113 0.17495 0.0
H3417 H 0.37798 0.23158 0.20528 0.0
H3418 H 0.41102 0.1995 0.20283 0.0
H3419 H 0.43106 0.19284 0.18461 0.0
H3420 H 0.48141 0.1422 0.13914 0.0
H3421 H 0.47963 0.14365 0.15917 0.0
H3422 H 0.41584 0.10206 0.17636 0.0
C3423 C 0.39212 0.19589 0.19963 0.0
C3424 C 0.42844 0.17266 0.18332 0.0
C3425 C 0.37325 0.21433 0.20093 0.0
C3426 C 0.46481 0.13475 0.14329 0.0
C3427 C 0.46364 0.1358 0.15473 0.0
C3428 C 0.42007 0.12161 0.17841 0.0
C3429 C 0.38731 0.17415 0.19336 0.0
C3430 C 0.40863 0.15942 0.18859 0.0
C3431 C 0.44123 0.12855 0.16027 0.0
C3432 C 0.43645 0.13617 0.17176 0.0
H3433 H 0.3254 0.18557 0.18675 0.0
H3434 H 0.35814 0.1535 0.18448 0.0
H3435 H 0.39132 0.12244 0.19085 0.0
H3436 H 0.40516 0.11188 0.13841 0.0
H3437 H 0.40292 0.11366 0.15807 0.0
C3438 C 0.57682 0.64451 0.92908 0.0
C3439 C 0.55252 0.64995 0.92498 0.0
C3440 C 0.59505 0.66354 0.92987 0.0
C3441 C 0.61013 0.72176 0.91512 0.0
H3442 H 0.67458 0.70707 0.92927 0.0
C3443 C 0.6968 0.73511 0.89044 0.0
C3444 C 0.70653 0.71073 0.8886 0.0
C3445 C 0.68295 0.74037 0.89987 0.0
C3446 C 0.65666 0.71198 0.92541 0.0
H3447 H 0.52707 0.67969 0.91953 0.0
H3448 H 0.55882 0.71355 0.9212 0.0
H3449 H 0.63482 0.69389 0.93795 0.0
H3450 H 0.71198 0.67343 0.89568 0.0
H3451 H 0.68801 0.68258 0.91228 0.0
H3452 H 0.63176 0.73877 0.90237 0.0
C3453 C 0.56418 0.69439 0.92345 0.0
C3454 C 0.63387 0.70426 0.93031 0.0
C3455 C 0.54601 0.67509 0.92244 0.0
C3456 C 0.70474 0.69248 0.89693 0.0
C3457 C 0.69117 0.69784 0.90648 0.0
C3458 C 0.63278 0.73001 0.91038 0.0
C3459 C 0.58932 0.68864 0.9267 0.0
C3460 C 0.61064 0.70669 0.92462 0.0
C3461 C 0.67872 0.72135 0.90768 0.0
C3462 C 0.65631 0.72308 0.91498 0.0
H3463 H 0.58214 0.62519 0.93116 0.0
H3464 H 0.61412 0.65795 0.93222 0.0
H3465 H 0.59278 0.72449 0.9105 0.0
H3466 H 0.69752 0.74956 0.88425 0.0
H3467 H 0.67333 0.75849 0.90053 0.0
C3468 C 0.22299 0.87772 0.69656 0.0
C3469 C 0.22476 0.85592 0.68998 0.0
C3470 C 0.2021 0.89414 0.69553 0.0
C3471 C 0.13767 0.89923 0.68314 0.0
H3472 H 0.16302 0.96221 0.67093 0.0
C3473 C 0.11488 0.93035 0.64105 0.0
C3474 C 0.1204 0.95506 0.63755 0.0
C3475 C 0.11567 0.92425 0.65215 0.0
C3476 C 0.15496 0.94528 0.6746 0.0
H3477 H 0.20621 0.83449 0.6771 0.0
H3478 H 0.17002 0.86257 0.67549 0.0
H3479 H 0.18929 0.93853 0.68348 0.0
H3480 H 0.12925 0.99313 0.64301 0.0
H3481 H 0.1294 0.98302 0.66223 0.0
H3482 H 0.10417 0.90495 0.67348 0.0
C3483 C 0.18428 0.86676 0.68163 0.0
C3484 C 0.1702 0.93166 0.68185 0.0
C3485 C 0.2052 0.85076 0.68249 0.0
C3486 C 0.12461 0.97403 0.64536 0.0
C3487 C 0.12492 0.96812 0.65645 0.0
C3488 C 0.12229 0.91296 0.67594 0.0
C3489 C 0.18254 0.88869 0.68806 0.0
C3490 C 0.16263 0.90745 0.68534 0.0
C3491 C 0.12214 0.94285 0.65994 0.0
C3492 C 0.13189 0.93487 0.6708 0.0
H3493 H 0.23763 0.88202 0.7025 0.0
H3494 H 0.20136 0.91122 0.70044 0.0
H3495 H 0.13123 0.88078 0.68596 0.0
H3496 H 0.11178 0.91536 0.63514 0.0
H3497 H 0.11357 0.90449 0.65445 0.0
C3498 C 0.97173 0.45281 0.45038 0.0
C3499 C 0.96678 0.47654 0.44547 0.0
C3500 C 0.95443 0.43284 0.44933 0.0
C3501 C 0.93165 0.39616 0.43299 0.0
H3502 H 0.85858 0.40184 0.42929 0.0
C3503 C 0.88852 0.35751 0.39448 0.0
C3504 C 0.87488 0.37678 0.38922 0.0
C3505 C 0.89257 0.35857 0.40578 0.0
C3506 C 0.87896 0.39966 0.43035 0.0
H3507 H 0.93842 0.49877 0.43682 0.0
H3508 H 0.90818 0.46408 0.43507 0.0
H3509 H 0.88007 0.42804 0.44287 0.0
H3510 H 0.855 0.4124 0.39144 0.0
H3511 H 0.86127 0.41419 0.41088 0.0
H3512 H 0.93136 0.37048 0.41962 0.0
C3513 C 0.92545 0.46085 0.43972 0.0
C3514 C 0.89118 0.41456 0.43819 0.0
C3515 C 0.94287 0.48076 0.44067 0.0
C3516 C 0.86451 0.39661 0.39538 0.0
C3517 C 0.86817 0.39756 0.40661 0.0
C3518 C 0.91953 0.38169 0.42502 0.0
C3519 C 0.93172 0.43635 0.44348 0.0
C3520 C 0.91786 0.41429 0.43897 0.0
C3521 C 0.88315 0.37913 0.41193 0.0
C3522 C 0.89335 0.38497 0.42299 0.0
H3523 H 0.98969 0.44918 0.45444 0.0
H3524 H 0.95961 0.4142 0.45238 0.0
H3525 H 0.95225 0.39543 0.43344 0.0
H3526 H 0.89775 0.34283 0.38974 0.0
H3527 H 0.90445 0.34424 0.40955 0.0
C3528 C 0.4218 0.95782 0.43548 0.0
C3529 C 0.446 0.94994 0.43901 0.0
C3530 C 0.41502 0.95616 0.42453 0.0
C3531 C 0.42835 0.91656 0.40113 0.0
H3532 H 0.37313 0.95715 0.38931 0.0
C3533 C 0.35782 0.86397 0.37837 0.0
C3534 C 0.33494 0.86561 0.38449 0.0
C3535 C 0.37495 0.88417 0.37809 0.0
C3536 C 0.38882 0.94579 0.39234 0.0
H3537 H 0.48235 0.9347 0.43378 0.0
H3538 H 0.47029 0.93127 0.41453 0.0
H3539 H 0.40022 0.97459 0.40363 0.0
H3540 H 0.30956 0.89309 0.39216 0.0
H3541 H 0.34046 0.92681 0.39279 0.0
H3542 H 0.41617 0.88711 0.3906 0.0
C3543 C 0.45667 0.939 0.42027 0.0
C3544 C 0.4043 0.95573 0.40058 0.0
C3545 C 0.46354 0.94083 0.43129 0.0
C3546 C 0.32778 0.88985 0.38828 0.0
C3547 C 0.34539 0.90976 0.38834 0.0
C3548 C 0.41305 0.90671 0.39289 0.0
C3549 C 0.4322 0.94642 0.41679 0.0
C3550 C 0.42283 0.94038 0.40566 0.0
C3551 C 0.37014 0.90608 0.38422 0.0
C3552 C 0.39178 0.92042 0.38904 0.0
H3553 H 0.40784 0.96513 0.44118 0.0
H3554 H 0.39578 0.96141 0.42226 0.0
H3555 H 0.44252 0.9042 0.40477 0.0
H3556 H 0.36438 0.84657 0.3747 0.0
H3557 H 0.39337 0.88128 0.37427 0.0
C3558 C 0.88844 0.73492 0.1872 0.0
C3559 C 0.87919 0.71055 0.1896 0.0
C3560 C 0.89992 0.7401 0.17717 0.0
C3561 C 0.92366 0.70958 0.15161 0.0
H3562 H 0.9888 0.72458 0.16498 0.0
C3563 C 1.00292 0.64153 0.14918 0.0
C3564 C 1.02765 0.64758 0.15257 0.0
C3565 C 0.98468 0.66045 0.14798 0.0
C3566 C 0.97104 0.72111 0.16076 0.0
H3567 H 0.87294 0.67288 0.18314 0.0
H3568 H 0.89431 0.68132 0.16582 0.0
H3569 H 0.95052 0.73978 0.17335 0.0
H3570 H 0.05372 0.67811 0.15635 0.0
H3571 H 1.02185 0.71173 0.15404 0.0
H3572 H 0.94448 0.68965 0.13931 0.0
C3573 C 0.89178 0.6969 0.17147 0.0
C3574 C 0.94879 0.72991 0.16564 0.0
C3575 C 0.87985 0.6919 0.18146 0.0
C3576 C 1.03447 0.67308 0.15402 0.0
C3577 C 1.01625 0.69223 0.15262 0.0
C3578 C 0.94605 0.70122 0.14658 0.0
C3579 C 0.90342 0.7206 0.16955 0.0
C3580 C 0.92488 0.72208 0.16171 0.0
C3581 C 0.9908 0.68604 0.15005 0.0
C3582 C 0.96975 0.70454 0.1518 0.0
H3583 H 0.88961 0.7493 0.19336 0.0
H3584 H 0.90872 0.75851 0.17593 0.0
H3585 H 0.90546 0.70394 0.14824 0.0
H3586 H 0.99735 0.62192 0.14793 0.0
H3587 H 0.96537 0.65457 0.14621 0.0
C3588 C 0.22267 0.19509 0.88643 0.0
C3589 C 0.21578 0.22084 0.88545 0.0
C3590 C 0.20398 0.1762 0.88669 0.0
C3591 C 0.13958 0.17753 0.8974 0.0
H3592 H 0.15535 0.10624 0.90122 0.0
C3593 C 0.11273 0.13204 0.93714 0.0
C3594 C 0.13422 0.12122 0.942 0.0
C3595 C 0.11188 0.1356 0.92583 0.0
C3596 C 0.15038 0.12605 0.90013 0.0
H3597 H 0.18367 0.24576 0.88155 0.0
H3598 H 0.15222 0.21288 0.88098 0.0
H3599 H 0.1752 0.12996 0.88633 0.0
H3600 H 0.17143 0.10485 0.93907 0.0
H3601 H 0.17014 0.11084 0.91944 0.0
H3602 H 0.11664 0.17453 0.91161 0.0
C3603 C 0.17185 0.20746 0.88242 0.0
C3604 C 0.16176 0.13966 0.89159 0.0
C3605 C 0.1903 0.2265 0.88263 0.0
C3606 C 0.15439 0.11284 0.93543 0.0
C3607 C 0.15347 0.11607 0.92414 0.0
C3608 C 0.1283 0.16401 0.90589 0.0
C3609 C 0.17804 0.18259 0.88561 0.0
C3610 C 0.15831 0.1661 0.89078 0.0
C3611 C 0.13262 0.12843 0.91922 0.0
C3612 C 0.13541 0.13873 0.90795 0.0
H3613 H 0.24223 0.18954 0.88788 0.0
H3614 H 0.20984 0.15716 0.8889 0.0
H3615 H 0.13595 0.19775 0.89707 0.0
H3616 H 0.09738 0.13932 0.94215 0.0
H3617 H 0.09568 0.1454 0.92237 0.0
C3618 C 0.61235 0.44349 0.63045 0.0
C3619 C 0.61771 0.46759 0.63494 0.0
C3620 C 0.6317 0.42562 0.62903 0.0
C3621 C 0.69913 0.41377 0.63867 0.0
H3622 H 0.6622 0.36452 0.65611 0.0
C3623 C 0.71262 0.40565 0.68298 0.0
C3624 C 0.70459 0.38453 0.68906 0.0
C3625 C 0.71298 0.4048 0.67162 0.0
C3626 C 0.67333 0.37736 0.65109 0.0
H3627 H 0.64875 0.49334 0.63883 0.0
H3628 H 0.68166 0.46162 0.63767 0.0
H3629 H 0.64105 0.38528 0.64134 0.0
H3630 H 0.69015 0.34624 0.68817 0.0
H3631 H 0.69113 0.34431 0.66819 0.0
H3632 H 0.73072 0.40723 0.64938 0.0
C3633 C 0.66265 0.45627 0.63516 0.0
C3634 C 0.66104 0.38953 0.64247 0.0
C3635 C 0.64345 0.4745 0.63615 0.0
C3636 C 0.6975 0.36228 0.68363 0.0
C3637 C 0.6978 0.36136 0.6722 0.0
C3638 C 0.71145 0.40158 0.64735 0.0
C3639 C 0.65655 0.43089 0.63263 0.0
C3640 C 0.67288 0.40996 0.63698 0.0
C3641 C 0.70472 0.38295 0.66605 0.0
C3642 C 0.69767 0.38533 0.65434 0.0
H3643 H 0.59309 0.43709 0.62902 0.0
H3644 H 0.6265 0.40669 0.62641 0.0
H3645 H 0.70933 0.42837 0.6342 0.0
H3646 H 0.71801 0.42315 0.687 0.0
H3647 H 0.71785 0.42204 0.66725 0.0
C3648 C 0.14569 0.26758 0.36532 0.0
C3649 C 0.15218 0.24273 0.36154 0.0
C3650 C 0.11993 0.27771 0.36523 0.0
C3651 C 0.04708 0.25937 0.36197 0.0
H3652 H 1.03554 0.33184 0.36077 0.0
C3653 C 0.9393 0.30413 0.36582 0.0
C3654 C 0.9328 0.32843 0.36137 0.0
C3655 C 0.96502 0.29386 0.36581 0.0
C3656 C 1.03775 0.31143 0.36109 0.0
H3657 H 0.13335 0.20977 0.35473 0.0
H3658 H 0.0897 0.22667 0.35478 0.0
H3659 H 0.07904 0.31493 0.36079 0.0
H3660 H 0.95149 0.36023 0.35345 0.0
H3661 H 0.99499 0.34311 0.35358 0.0
H3662 H 1.00578 0.25588 0.36242 0.0
C3663 C 0.10468 0.23883 0.35784 0.0
C3664 C 0.06354 0.30141 0.36118 0.0
C3665 C 0.13049 0.22887 0.35775 0.0
C3666 C 0.95438 0.34159 0.35701 0.0
C3667 C 0.98012 0.3315 0.35714 0.0
C3668 C 1.02129 0.2694 0.36208 0.0
C3669 C 0.09813 0.26378 0.36154 0.0
C3670 C 0.06949 0.27489 0.36157 0.0
C3671 C 0.98672 0.30711 0.36151 0.0
C3672 C 1.01534 0.29593 0.36157 0.0
H3673 H 0.16074 0.2796 0.36843 0.0
H3674 H 0.11718 0.29676 0.3683 0.0
H3675 H 0.04932 0.23896 0.36237 0.0
H3676 H 0.92428 0.29267 0.36936 0.0
H3677 H 0.96782 0.27529 0.36942 0.0
C3678 C 1.01884 0.68848 0.61381 0.0
C3679 C 0.99436 0.68173 0.60958 0.0
C3680 C 1.02868 0.71432 0.61389 0.0
C3681 C 1.00962 0.78684 0.60999 0.0
H3682 H 0.08216 0.79948 0.6105 0.0
C3683 C 0.0521 0.89532 0.61399 0.0
C3684 C 0.07706 0.90206 0.61028 0.0
C3685 C 0.04225 0.86949 0.61393 0.0
C3686 C 0.06171 0.79698 0.61033 0.0
H3687 H 0.96173 0.70028 0.60222 0.0
H3688 H 0.97811 0.74391 0.60252 0.0
H3689 H 0.06589 0.75585 0.61038 0.0
H3690 H 0.11049 0.88359 0.6036 0.0
H3691 H 0.09405 0.83996 0.60363 0.0
H3692 H 1.00542 0.82796 0.61008 0.0
C3693 C 0.99022 0.72912 0.60581 0.0
C3694 C 0.05206 0.77109 0.61034 0.0
C3695 C 0.98056 0.70328 0.60557 0.0
C3696 C 0.09128 0.88056 0.60657 0.0
C3697 C 0.08159 0.85472 0.60665 0.0
C3698 C 1.01926 0.81273 0.61018 0.0
C3699 C 1.0148 0.73595 0.60993 0.0
C3700 C 1.02554 0.76471 0.6101 0.0
C3701 C 0.05656 0.84787 0.6103 0.0
C3702 C 0.0458 0.81911 0.61028 0.0
H3703 H 1.03076 0.67364 0.61716 0.0
H3704 H 0.04744 0.71727 0.61731 0.0
H3705 H 0.98917 0.78432 0.6099 0.0
H3706 H 1.03975 0.91025 0.61695 0.0
H3707 H 1.02309 0.86655 0.61694 0.0
C3708 C 0.44335 0.80976 0.86621 0.0
C3709 C 0.43619 0.834 0.86189 0.0
C3710 C 0.46927 0.80001 0.86603 0.0
C3711 C 0.54167 0.81896 0.86124 0.0
H3712 H 0.5543 0.74664 0.86186 0.0
C3713 C 0.65059 0.77593 0.86458 0.0
C3714 C 0.65697 0.75115 0.86066 0.0
C3715 C 0.62474 0.78598 0.86471 0.0
C3716 C 0.5518 0.76703 0.86165 0.0
H3717 H 0.45407 0.86641 0.85409 0.0
H3718 H 0.49798 0.8502 0.85397 0.0
H3719 H 0.51056 0.76291 0.8621 0.0
H3720 H 0.63786 0.71827 0.85391 0.0
H3721 H 0.5943 0.73502 0.85429 0.0
H3722 H 0.58295 0.82307 0.86093 0.0
C3723 C 0.4834 0.83818 0.85751 0.0
C3724 C 0.52586 0.77668 0.86187 0.0
C3725 C 0.45742 0.84772 0.85752 0.0
C3726 C 0.63513 0.73733 0.85701 0.0
C3727 C 0.60932 0.7472 0.85729 0.0
C3728 C 0.56765 0.80932 0.86121 0.0
C3729 C 0.49062 0.8138 0.86172 0.0
C3730 C 0.51948 0.80312 0.86161 0.0
C3731 C 0.6028 0.77203 0.86112 0.0
C3732 C 0.574 0.78286 0.86134 0.0
H3733 H 0.4287 0.79792 0.86981 0.0
H3734 H 0.47253 0.78141 0.86953 0.0
H3735 H 0.53914 0.83935 0.8611 0.0
H3736 H 0.66575 0.78788 0.86764 0.0
H3737 H 0.62202 0.80495 0.86788 0.0
C3738 C 0.52 0.19185 0.11383 0.0
C3739 C 0.49564 0.18543 0.10942 0.0
C3740 C 0.53044 0.21738 0.11371 0.0
C3741 C 0.51327 0.2898 0.10922 0.0
H3742 H 0.58615 0.30062 0.1095 0.0
C3743 C 0.55868 0.39654 0.11366 0.0
C3744 C 0.58325 0.40295 0.10941 0.0
C3745 C 0.54826 0.371 0.11353 0.0
C3746 C 0.56564 0.29857 0.1094 0.0
H3747 H 0.46384 0.20406 0.10146 0.0
H3748 H 0.48123 0.2474 0.10146 0.0
H3749 H 0.56877 0.25738 0.10954 0.0
H3750 H 0.61543 0.3843 0.10177 0.0
H3751 H 0.59805 0.34096 0.10177 0.0
H3752 H 0.51014 0.33099 0.10922 0.0
C3753 C 0.49276 0.23252 0.10504 0.0
C3754 C 0.55535 0.27298 0.1095 0.0
C3755 C 0.48253 0.20692 0.10499 0.0
C3756 C 0.59657 0.38145 0.10515 0.0
C3757 C 0.58634 0.35585 0.10521 0.0
C3758 C 0.52355 0.31539 0.10932 0.0
C3759 C 0.51726 0.23898 0.10936 0.0
C3760 C 0.52867 0.26736 0.10936 0.0
C3761 C 0.56165 0.3494 0.10936 0.0
C3762 C 0.55024 0.32102 0.10936 0.0
H3763 H 0.53138 0.17695 0.11749 0.0
H3764 H 0.54906 0.22015 0.11729 0.0
H3765 H 0.49276 0.28776 0.10918 0.0
H3766 H 0.54712 0.41145 0.11718 0.0
H3767 H 0.52946 0.36825 0.11698 0.0
C3768 C 0.95104 0.73804 0.22153 0.0
C3769 C 0.92943 0.75205 0.21773 0.0
C3770 C 0.97685 0.74787 0.22149 0.0
C3771 C 1.01839 0.81018 0.21802 0.0
H3772 H 0.07574 0.76406 0.21744 0.0
C3773 C 0.12782 0.84928 0.22239 0.0
C3774 C 0.14934 0.83576 0.21821 0.0
C3775 C 0.10199 0.83949 0.22223 0.0
C3776 C 0.06036 0.77773 0.21758 0.0
H3777 H 0.921 0.78901 0.21081 0.0
H3778 H 0.96467 0.80598 0.21098 0.0
H3779 H 1.03208 0.74756 0.21737 0.0
H3780 H 0.15762 0.7998 0.21044 0.0
H3781 H 0.11392 0.78286 0.21039 0.0
H3782 H 0.04667 0.84034 0.21834 0.0
C3783 C 0.96181 0.78692 0.21406 0.0
C3784 C 1.03448 0.76796 0.21763 0.0
C3785 C 0.936 0.77692 0.21395 0.0
C3786 C 0.14267 0.81146 0.21389 0.0
C3787 C 0.11686 0.80148 0.21389 0.0
C3788 C 0.04427 0.81994 0.21817 0.0
C3789 C 0.98352 0.77282 0.21779 0.0
C3790 C 1.01222 0.7837 0.21781 0.0
C3791 C 0.09524 0.81507 0.21801 0.0
C3792 C 0.06653 0.80421 0.21791 0.0
H3793 H 0.94811 0.7189 0.22455 0.0
H3794 H 0.99174 0.7356 0.22458 0.0
H3795 H 1.00301 0.82385 0.21824 0.0
H3796 H 0.13083 0.86799 0.2258 0.0
H3797 H 0.08716 0.85135 0.22564 0.0
C3798 C 0.52529 0.88718 0.46558 0.0
C3799 C 0.50073 0.89403 0.46974 0.0
C3800 C 0.53516 0.86133 0.46562 0.0
C3801 C 0.51617 0.78881 0.46975 0.0
H3802 H 0.58874 0.77629 0.46943 0.0
C3803 C 0.55946 0.68029 0.46602 0.0
C3804 C 0.58423 0.67377 0.47002 0.0
C3805 C 0.54939 0.70609 0.46598 0.0
C3806 C 0.56828 0.77876 0.46955 0.0
H3807 H 0.46801 0.87556 0.4771 0.0
H3808 H 0.48443 0.83194 0.47698 0.0
H3809 H 0.57238 0.8199 0.46936 0.0
H3810 H 0.61703 0.69261 0.47705 0.0
H3811 H 0.60028 0.73605 0.4768 0.0
H3812 H 0.51208 0.74765 0.46979 0.0
C3813 C 0.49658 0.84667 0.47367 0.0
C3814 C 0.55858 0.80464 0.46943 0.0
C3815 C 0.4869 0.87252 0.47379 0.0
C3816 C 0.598 0.69544 0.47385 0.0
C3817 C 0.58813 0.72119 0.47366 0.0
C3818 C 0.52587 0.76292 0.46967 0.0
C3819 C 0.52125 0.83976 0.46962 0.0
C3820 C 0.53204 0.81098 0.46959 0.0
C3821 C 0.5633 0.72785 0.46975 0.0
C3822 C 0.55242 0.75659 0.46964 0.0
H3823 H 0.53728 0.90192 0.4622 0.0
H3824 H 0.55398 0.85833 0.46225 0.0
H3825 H 0.49571 0.7913 0.46979 0.0
H3826 H 0.54748 0.66527 0.46286 0.0
H3827 H 0.53041 0.7089 0.46275 0.0
C3828 C 0.62239 0.34987 0.72111 0.0
C3829 C 0.64388 0.336 0.71711 0.0
C3830 C 0.59646 0.3402 0.72099 0.0
C3831 C 0.55467 0.27823 0.71715 0.0
H3832 H 0.49732 0.32433 0.71641 0.0
C3833 C 0.44514 0.23893 0.72122 0.0
C3834 C 0.42367 0.25242 0.71696 0.0
C3835 C 0.47097 0.24878 0.72113 0.0
C3836 C 0.51271 0.31066 0.71661 0.0
H3837 H 0.65197 0.29946 0.70979 0.0
H3838 H 0.60824 0.28277 0.70987 0.0
H3839 H 0.54103 0.34085 0.71654 0.0
H3840 H 0.41559 0.28844 0.70909 0.0
H3841 H 0.45922 0.30545 0.70916 0.0
H3842 H 0.52639 0.24805 0.71735 0.0
C3843 C 0.61123 0.3016 0.71314 0.0
C3844 C 0.5386 0.32045 0.71675 0.0
C3845 C 0.63708 0.31146 0.71308 0.0
C3846 C 0.43042 0.27678 0.71263 0.0
C3847 C 0.45623 0.28681 0.71268 0.0
C3848 C 0.52879 0.26845 0.7172 0.0
C3849 C 0.58962 0.31554 0.71704 0.0
C3850 C 0.56086 0.30471 0.71698 0.0
C3851 C 0.4778 0.27325 0.7169 0.0
C3852 C 0.50652 0.28417 0.71689 0.0
H3853 H 0.62549 0.36875 0.72434 0.0
H3854 H 0.58164 0.35233 0.72422 0.0
H3855 H 0.57005 0.26456 0.71739 0.0
H3856 H 0.44209 0.22022 0.72467 0.0
H3857 H 0.48573 0.23693 0.72461 0.0
C3858 C 0.09902 0.20123 0.97344 0.0
C3859 C 0.08557 0.17971 0.96929 0.0
C3860 C 0.08905 0.22692 0.97319 0.0
C3861 C 1.02687 0.26799 0.96878 0.0
H3862 H 0.07285 0.3254 0.96834 0.0
C3863 C 0.98719 0.37687 0.97305 0.0
C3864 C 1.00052 0.39827 0.96866 0.0
C3865 C 0.99715 0.35118 0.97295 0.0
C3866 C 0.05922 0.30998 0.96845 0.0
H3867 H 0.0495 0.17118 0.96155 0.0
H3868 H 1.03228 0.21467 0.96135 0.0
H3869 H 0.08964 0.28192 0.96853 0.0
H3870 H 1.0364 0.40657 0.96065 0.0
H3871 H 0.0536 0.36308 0.96067 0.0
H3872 H 0.99645 0.29604 0.96885 0.0
C3873 C 0.05098 0.21184 0.96486 0.0
C3874 C 0.06916 0.28424 0.96864 0.0
C3875 C 0.06114 0.18617 0.96495 0.0
C3876 C 1.02484 0.39168 0.96422 0.0
C3877 C 1.03499 0.36601 0.96427 0.0
C3878 C 1.01693 0.29372 0.96881 0.0
C3879 C 0.06452 0.23347 0.96894 0.0
C3880 C 0.05347 0.262 0.96877 0.0
C3881 C 1.02157 0.3445 0.9686 0.0
C3882 C 1.03263 0.31597 0.96861 0.0
H3883 H 0.11778 0.19834 0.97689 0.0
H3884 H 0.10085 0.2418 0.97657 0.0
H3885 H 1.01325 0.25257 0.96894 0.0
H3886 H 0.96852 0.37987 0.9766 0.0
H3887 H 0.98544 0.3364 0.97651 0.0
C3888 C 0.15288 0.77021 0.71795 0.0
C3889 C 0.15908 0.74504 0.72148 0.0
C3890 C 0.12706 0.78026 0.71776 0.0
C3891 C 0.05394 0.76124 0.72 0.0
H3892 H 0.0418 0.83362 0.72086 0.0
C3893 C 0.94588 0.80503 0.71519 0.0
C3894 C 0.93904 0.82947 0.71933 0.0
C3895 C 0.97168 0.79495 0.71548 0.0
C3896 C 0.04416 0.81322 0.72064 0.0
H3897 H 0.13969 0.71143 0.72747 0.0
H3898 H 0.09611 0.72823 0.72702 0.0
H3899 H 0.0854 0.81704 0.72131 0.0
H3900 H 0.95726 0.86174 0.72699 0.0
H3901 H 1.00083 0.84494 0.72733 0.0
H3902 H 1.0127 0.75744 0.71923 0.0
C3903 C 0.11128 0.74072 0.72437 0.0
C3904 C 0.07004 0.8034 0.72082 0.0
C3905 C 0.13708 0.73081 0.7247 0.0
C3906 C 0.96039 0.84295 0.72367 0.0
C3907 C 0.98619 0.83306 0.72381 0.0
C3908 C 1.02807 0.77108 0.71965 0.0
C3909 C 0.10496 0.76595 0.7209 0.0
C3910 C 0.07623 0.77691 0.72057 0.0
C3911 C 0.99315 0.80853 0.71976 0.0
C3912 C 1.02188 0.79756 0.72001 0.0
H3913 H 0.16818 0.78249 0.71524 0.0
H3914 H 0.12454 0.79955 0.7149 0.0
H3915 H 0.05631 0.74085 0.71968 0.0
H3916 H 0.9311 0.79333 0.71165 0.0
H3917 H 0.97475 0.77624 0.7121 0.0
C3918 C 1.02104 0.18898 0.46459 0.0
C3919 C 0.99641 0.18256 0.46878 0.0
C3920 C 1.03139 0.21458 0.46465 0.0
C3921 C 1.01374 0.28718 0.46872 0.0
H3922 H 0.08656 0.29834 0.46852 0.0
C3923 C 0.05858 0.39445 0.46439 0.0
C3924 C 0.0833 0.40089 0.46843 0.0
C3925 C 0.04826 0.36884 0.46454 0.0
C3926 C 0.06605 0.29623 0.4686 0.0
H3927 H 0.96404 0.20134 0.47622 0.0
H3928 H 0.98131 0.2447 0.47613 0.0
H3929 H 0.06938 0.25503 0.46855 0.0
H3930 H 0.11582 0.38213 0.47577 0.0
H3931 H 0.09862 0.33873 0.47583 0.0
H3932 H 1.01041 0.32836 0.46865 0.0
C3933 C 0.99314 0.22979 0.47279 0.0
C3934 C 0.05588 0.27056 0.46854 0.0
C3935 C 0.98297 0.20415 0.4729 0.0
C3936 C 0.09685 0.3793 0.47254 0.0
C3937 C 0.08671 0.35363 0.47252 0.0
C3938 C 1.02392 0.31284 0.46859 0.0
C3939 C 1.01789 0.23627 0.4687 0.0
C3940 C 1.02921 0.26476 0.46865 0.0
C3941 C 0.06188 0.34714 0.46855 0.0
C3942 C 0.05058 0.31864 0.46858 0.0
H3943 H 1.03269 0.17402 0.46117 0.0
H3944 H 0.05024 0.2173 0.46125 0.0
H3945 H 0.99324 0.28507 0.46873 0.0
H3946 H 0.0468 0.40943 0.46103 0.0
H3947 H 1.02934 0.36612 0.46125 0.0
C3948 C 0.64484 0.26747 0.21504 0.0
C3949 C 0.6515 0.24303 0.21929 0.0
C3950 C 0.6191 0.27758 0.21513 0.0
C3951 C 0.54645 0.25962 0.21958 0.0
H3952 H 0.53492 0.33213 0.2187 0.0
C3953 C 0.43857 0.30371 0.21536 0.0
C3954 C 0.43222 0.32864 0.21908 0.0
C3955 C 0.46428 0.29346 0.2155 0.0
C3956 C 0.53713 0.31171 0.21898 0.0
H3957 H 0.63303 0.21077 0.22695 0.0
H3958 H 0.58936 0.22765 0.22693 0.0
H3959 H 0.57841 0.31522 0.21874 0.0
H3960 H 0.45115 0.36158 0.22584 0.0
H3961 H 0.49467 0.34448 0.2259 0.0
H3962 H 0.50515 0.25611 0.21971 0.0
C3963 C 0.6042 0.23949 0.22348 0.0
C3964 C 0.56291 0.30168 0.21892 0.0
C3965 C 0.63001 0.22954 0.22355 0.0
C3966 C 0.45393 0.34244 0.22286 0.0
C3967 C 0.47967 0.33236 0.22284 0.0
C3968 C 0.52066 0.26964 0.21945 0.0
C3969 C 0.59748 0.26403 0.2193 0.0
C3970 C 0.56885 0.27514 0.21927 0.0
C3971 C 0.48612 0.30735 0.21918 0.0
C3972 C 0.51473 0.29618 0.2192 0.0
H3973 H 0.65974 0.27917 0.21155 0.0
H3974 H 0.61621 0.29629 0.21166 0.0
H3975 H 0.54867 0.23919 0.21978 0.0
H3976 H 0.42346 0.29173 0.21227 0.0
H3977 H 0.46697 0.27437 0.21246 0.0
C3978 C 0.55402 0.89487 0.96434 0.0
C3979 C 0.57862 0.90145 0.96846 0.0
C3980 C 0.54407 0.86907 0.96427 0.0
C3981 C 0.56298 0.79649 0.96835 0.0
H3982 H 0.49044 0.78403 0.96744 0.0
C3983 C 0.5202 0.68809 0.96444 0.0
C3984 C 0.49521 0.6815 0.96817 0.0
C3985 C 0.53016 0.71389 0.96446 0.0
C3986 C 0.51089 0.78649 0.96773 0.0
H3987 H 0.61134 0.88279 0.97569 0.0
H3988 H 0.59475 0.83927 0.97546 0.0
H3989 H 0.5068 0.82762 0.96746 0.0
H3990 H 0.46186 0.70029 0.97478 0.0
H3991 H 0.47845 0.74379 0.97465 0.0
H3992 H 0.56707 0.75536 0.96849 0.0
C3993 C 0.58263 0.85409 0.97221 0.0
C3994 C 0.52059 0.81235 0.96767 0.0
C3995 C 0.59241 0.87987 0.97241 0.0
C3996 C 0.48108 0.70316 0.9718 0.0
C3997 C 0.49087 0.72893 0.97167 0.0
C3998 C 0.55329 0.77063 0.96823 0.0
C3999 C 0.55795 0.84738 0.96817 0.0
C4000 C 0.54713 0.81866 0.96805 0.0
C4001 C 0.51592 0.73561 0.96803 0.0
C4002 C 0.52675 0.76433 0.96798 0.0
H4003 H 0.54207 0.90988 0.96113 0.0
H4004 H 0.52521 0.86622 0.96094 0.0
H4005 H 0.58343 0.79894 0.96855 0.0
H4006 H 0.53247 0.67317 0.96144 0.0
H4007 H 0.54933 0.71673 0.96144 0.0
C4008 C 0.13911 0.31051 0.86289 0.0
C4009 C 0.14565 0.3353 0.859 0.0
C4010 C 0.11333 0.30043 0.86281 0.0
C4011 C 1.04057 0.31903 0.85903 0.0
H4012 H 1.0287 0.24657 0.85894 0.0
C4013 C 0.93244 0.27536 0.86285 0.0
C4014 C 0.92593 0.2507 0.85887 0.0
C4015 C 0.95822 0.28544 0.8628 0.0
C4016 C 1.031 0.26698 0.85893 0.0
H4017 H 0.12692 0.36829 0.85209 0.0
H4018 H 0.08331 0.35146 0.85208 0.0
H4019 H 0.07227 0.26325 0.85897 0.0
H4020 H 0.94469 0.21796 0.85182 0.0
H4021 H 0.9883 0.23479 0.85187 0.0
H4022 H 0.9993 0.32276 0.8591 0.0
C4023 C 0.09822 0.33928 0.85522 0.0
C4024 C 0.05684 0.27687 0.85904 0.0
C4025 C 0.12402 0.34919 0.85515 0.0
C4026 C 0.94757 0.23695 0.85496 0.0
C4027 C 0.97338 0.24686 0.85506 0.0
C4028 C 1.01474 0.30914 0.85911 0.0
C4029 C 0.09159 0.31438 0.85902 0.0
C4030 C 0.06291 0.30338 0.85903 0.0
C4031 C 0.97998 0.27162 0.85895 0.0
C4032 C 1.00867 0.28262 0.859 0.0
H4033 H 0.15412 0.29852 0.86609 0.0
H4034 H 0.11052 0.28144 0.86598 0.0
H4035 H 0.04288 0.33944 0.85912 0.0
H4036 H 0.91741 0.28723 0.8661 0.0
H4037 H 0.96102 0.30432 0.86604 0.0
C4038 C 0.52792 0.38811 0.61555 0.0
C4039 C 0.5033 0.39464 0.61142 0.0
C4040 C 0.53827 0.36254 0.61535 0.0
C4041 C 0.52066 0.29014 0.61123 0.0
H4042 H 0.5935 0.27915 0.61061 0.0
C4043 C 0.56625 0.18318 0.61527 0.0
C4044 C 0.59051 0.17675 0.61072 0.0
C4045 C 0.55584 0.20875 0.61524 0.0
C4046 C 0.573 0.28123 0.61076 0.0
H4047 H 0.47088 0.37613 0.60394 0.0
H4048 H 0.48814 0.33272 0.60381 0.0
H4049 H 0.57621 0.32242 0.61079 0.0
H4050 H 0.62214 0.19545 0.60263 0.0
H4051 H 0.60482 0.2388 0.6028 0.0
H4052 H 0.51745 0.24894 0.61135 0.0
C4053 C 0.49998 0.34755 0.6072 0.0
C4054 C 0.56276 0.30685 0.61095 0.0
C4055 C 0.48982 0.3732 0.60721 0.0
C4056 C 0.60353 0.19828 0.60626 0.0
C4057 C 0.59333 0.22391 0.60641 0.0
C4058 C 0.5309 0.26451 0.61125 0.0
C4059 C 0.52474 0.34099 0.61122 0.0
C4060 C 0.53609 0.31256 0.61113 0.0
C4061 C 0.56894 0.23038 0.61086 0.0
C4062 C 0.55757 0.2588 0.61096 0.0
H4063 H 0.53959 0.40299 0.61902 0.0
H4064 H 0.55713 0.35971 0.6187 0.0
H4065 H 0.50016 0.29222 0.61144 0.0
H4066 H 0.55492 0.16826 0.61895 0.0
H4067 H 0.53729 0.2115 0.61891 0.0
C4068 C 0.64441 0.80998 0.36157 0.0
C4069 C 0.65048 0.83528 0.35817 0.0
C4070 C 0.61866 0.79969 0.36162 0.0
C4071 C 0.54538 0.81825 0.35905 0.0
H4072 H 0.53362 0.74583 0.35802 0.0
C4073 C 0.43729 0.77428 0.36314 0.0
C4074 C 0.43057 0.74975 0.35906 0.0
C4075 C 0.46309 0.78436 0.36298 0.0
C4076 C 0.53588 0.76624 0.35829 0.0
H4077 H 0.63091 0.86881 0.35221 0.0
H4078 H 0.5875 0.85164 0.35243 0.0
H4079 H 0.57718 0.76263 0.35787 0.0
H4080 H 0.44909 0.71733 0.35162 0.0
H4081 H 0.49271 0.73415 0.35149 0.0
H4082 H 0.50411 0.82187 0.35956 0.0
C4083 C 0.6027 0.83923 0.35511 0.0
C4084 C 0.56173 0.77619 0.35828 0.0
C4085 C 0.62842 0.84936 0.35492 0.0
C4086 C 0.45209 0.73618 0.3549 0.0
C4087 C 0.47793 0.7461 0.35487 0.0
C4088 C 0.51955 0.80829 0.35923 0.0
C4089 C 0.59649 0.81387 0.35844 0.0
C4090 C 0.56779 0.80271 0.3586 0.0
C4091 C 0.48474 0.77073 0.35888 0.0
C4092 C 0.51348 0.78178 0.3588 0.0
H4093 H 0.65978 0.79775 0.36426 0.0
H4094 H 0.61623 0.78031 0.36438 0.0
H4095 H 0.54762 0.83865 0.35941 0.0
H4096 H 0.42239 0.78607 0.36656 0.0
H4097 H 0.46599 0.80314 0.36632 0.0
C4098 C 1.02387 0.88962 0.11554 0.0
C4099 C 0.99963 0.89646 0.11109 0.0
C4100 C 1.03388 0.86388 0.11549 0.0
C4101 C 1.01557 0.79167 0.11068 0.0
H4102 H 0.08818 0.77952 0.11173 0.0
C4103 C 0.05895 0.68355 0.11442 0.0
C4104 C 0.08388 0.67717 0.11057 0.0
C4105 C 0.04887 0.70928 0.11447 0.0
C4106 C 0.06772 0.78191 0.1114 0.0
H4107 H 0.96756 0.8783 0.10319 0.0
H4108 H 0.98425 0.83476 0.10324 0.0
H4109 H 0.07158 0.82304 0.11187 0.0
H4110 H 0.11702 0.69621 0.10385 0.0
H4111 H 0.1002 0.73965 0.10411 0.0
H4112 H 1.01171 0.75053 0.11035 0.0
C4113 C 0.99603 0.8494 0.10681 0.0
C4114 C 0.05788 0.8077 0.11156 0.0
C4115 C 0.9862 0.87516 0.10672 0.0
C4116 C 0.09785 0.69894 0.10691 0.0
C4117 C 0.08794 0.72466 0.10712 0.0
C4118 C 1.0254 0.76587 0.11071 0.0
C4119 C 1.0204 0.84249 0.11115 0.0
C4120 C 1.03133 0.81386 0.11114 0.0
C4121 C 0.06293 0.73111 0.11087 0.0
C4122 C 0.05196 0.75972 0.11101 0.0
H4123 H 1.03547 0.90433 0.11917 0.0
H4124 H 0.05243 0.86081 0.11911 0.0
H4125 H 0.99511 0.79406 0.11042 0.0
H4126 H 0.04683 0.66852 0.11746 0.0
H4127 H 1.02976 0.71197 0.11759 0.0
C4128 C 0.27853 0.25432 0.33201 0.0
C4129 C 0.25443 0.24227 0.33314 0.0
C4130 C 0.2875 0.26482 0.3219 0.0
C4131 C 0.27375 0.26801 0.29053 0.0
H4132 H 0.32644 0.3194 0.29071 0.0
C4133 C 0.30711 0.3182 0.24874 0.0
C4134 C 0.33109 0.3305 0.2476 0.0
C4135 C 0.2982 0.30778 0.25888 0.0
C4136 C 0.31192 0.30487 0.29026 0.0
H4137 H 0.22103 0.23306 0.32358 0.0
H4138 H 0.2363 0.25083 0.30622 0.0
H4139 H 0.3107 0.30179 0.30785 0.0
H4140 H 0.36426 0.34035 0.25717 0.0
H4141 H 0.34912 0.32263 0.27457 0.0
H4142 H 0.27497 0.27105 0.27295 0.0
C4143 C 0.24881 0.25202 0.31321 0.0
C4144 C 0.30262 0.29447 0.30038 0.0
C4145 C 0.23978 0.24161 0.32339 0.0
C4146 C 0.34564 0.33154 0.25737 0.0
C4147 C 0.33667 0.32117 0.26757 0.0
C4148 C 0.28305 0.27841 0.28042 0.0
C4149 C 0.27305 0.26408 0.31207 0.0
C4150 C 0.28316 0.2756 0.30093 0.0
C4151 C 0.31256 0.30882 0.26872 0.0
C4152 C 0.3025 0.29729 0.27987 0.0
H4153 H 0.29099 0.25547 0.33903 0.0
H4154 H 0.30629 0.27323 0.32185 0.0
H4155 H 0.25923 0.25348 0.29009 0.0
H4156 H 0.2947 0.3168 0.24173 0.0
H4157 H 0.27949 0.29918 0.25892 0.0
C4158 C 0.99661 0.09888 0.50594 0.0
C4159 C 0.99397 0.08273 0.49674 0.0
C4160 C 1.00693 0.09014 0.51615 0.0
C4161 C 0.04253 1.03301 0.52984 0.0
H4162 H 1.02601 0.06759 0.55675 0.0
C4163 C 0.07648 0.99098 0.57316 0.0
C4164 C 0.08006 1.00707 0.58231 0.0
C4165 C 0.06612 0.99999 0.56302 0.0
C4166 C 1.03134 0.05752 0.54941 0.0
H4167 H 1.00128 0.04397 0.49176 0.0
H4168 H 1.01856 1.02902 0.50907 0.0
H4169 H 1.00901 0.08316 0.53946 0.0
H4170 H 0.0739 0.04596 0.58738 0.0
H4171 H 0.05631 0.06139 0.57013 0.0
H4172 H 0.06483 1.00737 0.53977 0.0
C4173 C 1.01296 0.04875 0.50855 0.0
C4174 C 1.02133 0.0667 0.53923 0.0
C4175 C 1.00271 0.05748 0.49838 0.0
C4176 C 0.07194 1.03255 0.58074 0.0
C4177 C 0.0615 0.04154 0.57064 0.0
C4178 C 0.05249 1.02382 0.54001 0.0
C4179 C 1.01541 0.06467 0.51785 0.0
C4180 C 1.02652 0.05479 0.52904 0.0
C4181 C 0.05836 1.02566 0.56135 0.0
C4182 C 0.04729 1.0357 0.55019 0.0
H4183 H 0.99061 0.1185 0.50528 0.0
H4184 H 1.00841 0.10374 0.52272 0.0
H4185 H 0.04794 1.02294 0.52251 0.0
H4186 H 0.08179 0.97116 0.5738 0.0
H4187 H 0.06399 0.98641 0.55647 0.0
C4188 C 0.30937 0.8228 0.83324 0.0
C4189 C 0.3339 0.83397 0.83433 0.0
C4190 C 0.30044 0.81187 0.82325 0.0
C4191 C 0.31527 0.80611 0.79209 0.0
H4192 H 0.26101 0.75636 0.79265 0.0
C4193 C 0.28235 0.75447 0.75087 0.0
C4194 C 0.25804 0.74291 0.74967 0.0
C4195 C 0.29107 0.76515 0.76093 0.0
C4196 C 0.27599 0.77041 0.7921 0.0
H4197 H 0.36802 0.84117 0.82487 0.0
H4198 H 0.35286 0.82251 0.80773 0.0
H4199 H 0.27667 0.77452 0.80965 0.0
H4200 H 0.22402 0.73468 0.75904 0.0
H4201 H 0.23883 0.75301 0.77634 0.0
H4202 H 0.31457 0.80211 0.77456 0.0
C4203 C 0.34001 0.82238 0.81464 0.0
C4204 C 0.28523 0.78113 0.80212 0.0
C4205 C 0.34901 0.83323 0.82469 0.0
C4206 C 0.2429 0.74293 0.7593 0.0
C4207 C 0.25168 0.75362 0.76943 0.0
C4208 C 0.30602 0.79542 0.78208 0.0
C4209 C 0.31534 0.81127 0.81353 0.0
C4210 C 0.30526 0.7994 0.80252 0.0
C4211 C 0.27614 0.76521 0.77063 0.0
C4212 C 0.28604 0.77709 0.78167 0.0
H4213 H 0.29657 0.82277 0.84017 0.0
H4214 H 0.28131 0.80423 0.82319 0.0
H4215 H 0.33023 0.82018 0.79154 0.0
H4216 H 0.29519 0.75505 0.74395 0.0
H4217 H 0.31007 0.77307 0.76103 0.0
C4218 C 0.49991 0.0993 0.07254 0.0
C4219 C 0.49633 0.08331 0.08178 0.0
C4220 C 0.5105 0.09023 0.06246 0.0
C4221 C 0.54508 1.03213 0.04915 0.0
H4222 H 0.53095 0.06754 1.02211 0.0
C4223 C 0.58014 0.99003 1.00597 0.0
C4224 C 0.58441 1.00625 0.99686 0.0
C4225 C 0.56962 0.99906 1.01608 0.0
C4226 C 0.53563 0.05722 1.02949 0.0
H4227 H 0.5024 0.04445 0.08699 0.0
H4228 H 0.52019 1.0289 0.06986 0.0
H4229 H 0.51354 0.08334 1.03923 0.0
H4230 H 0.57967 0.04547 0.9919 0.0
H4231 H 0.56177 0.06088 1.00904 0.0
H4232 H 0.56712 1.00597 1.03938 0.0
C4233 C 0.51506 0.04876 0.07026 0.0
C4234 C 0.52537 0.06654 1.03958 0.0
C4235 C 0.50452 0.05783 0.08032 0.0
C4236 C 0.57702 1.03192 0.99847 0.0
C4237 C 0.56642 0.04091 1.00852 0.0
C4238 C 0.55531 1.02279 1.03905 0.0
C4239 C 0.51836 0.06455 0.06091 0.0
C4240 C 0.5297 0.05438 0.04981 0.0
C4241 C 0.56241 1.02488 1.01775 0.0
C4242 C 0.55101 1.03498 1.02883 0.0
H4243 H 0.49441 0.11908 0.07307 0.0
H4244 H 0.51267 0.10377 0.05586 0.0
H4245 H 0.54979 1.0218 0.05652 0.0
H4246 H 0.58497 0.97011 1.00531 0.0
H4247 H 0.56688 0.98538 1.02259 0.0
C4248 C 0.34285 0.74974 0.32176 0.0
C4249 C 0.32745 0.74815 0.33128 0.0
C4250 C 0.33375 0.76044 0.31166 0.0
C4251 C 0.27758 0.79961 0.29892 0.0
H4252 H 0.30894 0.78124 0.27147 0.0
C4253 C 0.23477 0.83725 0.25605 0.0
C4254 C 0.25025 0.83869 0.24654 0.0
C4255 C 0.24376 0.82652 0.26617 0.0
C4256 C 0.29979 0.78717 0.27896 0.0
H4257 H 0.28944 0.7575 0.33688 0.0
H4258 H 0.27397 0.77573 0.31984 0.0
H4259 H 0.32484 0.76323 0.28848 0.0
H4260 H 0.28827 0.82913 0.24101 0.0
H4261 H 0.30352 0.81094 0.25807 0.0
H4262 H 0.25252 0.82355 0.28939 0.0
C4263 C 0.29342 0.76896 0.32001 0.0
C4264 C 0.30918 0.77652 0.28899 0.0
C4265 C 0.30248 0.7582 0.33004 0.0
C4266 C 0.27516 0.82853 0.24783 0.0
C4267 C 0.2841 0.81778 0.25787 0.0
C4268 C 0.26819 0.81027 0.28888 0.0
C4269 C 0.30865 0.7705 0.31041 0.0
C4270 C 0.29845 0.78231 0.29937 0.0
C4271 C 0.26881 0.81633 0.26746 0.0
C4272 C 0.27893 0.8045 0.2785 0.0
H4273 H 0.36222 0.74272 0.32207 0.0
H4274 H 0.34684 0.76106 0.30484 0.0
H4275 H 0.26843 0.80552 0.30641 0.0
H4276 H 0.21546 0.84442 0.25572 0.0
H4277 H 0.23064 0.826 0.27298 0.0
C4278 C 0.58486 0.09095 0.57354 0.0
C4279 C 0.58958 0.07463 0.58257 0.0
C4280 C 0.57393 0.08205 0.56349 0.0
C4281 C 0.54142 1.02289 0.54987 0.0
H4282 H 0.54985 0.06167 0.52324 0.0
C4283 C 0.50577 0.9817 0.50663 0.0
C4284 C 0.49934 0.99815 0.49785 0.0
C4285 C 0.5164 0.99078 0.51671 0.0
C4286 C 0.54681 0.05036 0.53052 0.0
H4287 H 0.5852 1.03531 0.58744 0.0
H4288 H 0.56699 1.02004 0.57038 0.0
H4289 H 0.56786 0.07722 0.54028 0.0
H4290 H 0.49937 1.03804 0.4936 0.0
H4291 H 0.51784 0.0536 0.51063 0.0
H4292 H 0.52048 0.99597 0.54007 0.0
C4293 C 0.5714 0.04005 0.57091 0.0
C4294 C 0.55742 0.05953 0.54057 0.0
C4295 C 0.58221 0.04896 0.58093 0.0
C4296 C 0.50428 1.02425 0.49981 0.0
C4297 C 0.51505 1.03334 0.50983 0.0
C4298 C 0.5309 1.01368 0.53981 0.0
C4299 C 0.56689 0.05618 0.56174 0.0
C4300 C 0.55516 0.04618 0.55067 0.0
C4301 C 0.5215 1.01697 0.51869 0.0
C4302 C 0.53316 1.02705 0.52974 0.0
H4303 H 0.58968 0.11087 0.57421 0.0
H4304 H 0.57087 0.09588 0.55708 0.0
H4305 H 0.53826 1.01155 0.55712 0.0
H4306 H 0.50258 0.96149 0.50575 0.0
H4307 H 0.52092 0.97687 0.52293 0.0
C4308 C 0.29294 0.25468 0.74705 0.0
C4309 C 0.31916 0.25033 0.74492 0.0
C4310 C 0.28386 0.26518 0.75714 0.0
C4311 C 0.3057 0.28511 0.7866 0.0
H4312 H 0.23681 0.31058 0.78882 0.0
C4313 C 0.26658 0.32323 0.82958 0.0
C4314 C 0.2439 0.33776 0.83067 0.0
C4315 C 0.27511 0.31295 0.81941 0.0
C4316 C 0.25626 0.30386 0.78858 0.0
H4317 H 0.35606 0.25444 0.75253 0.0
H4318 H 0.3409 0.27271 0.76967 0.0
H4319 H 0.25221 0.29365 0.77163 0.0
H4320 H 0.21255 0.35176 0.82088 0.0
H4321 H 0.22737 0.33496 0.80338 0.0
H4322 H 0.31011 0.29599 0.8034 0.0
C4323 C 0.32673 0.26776 0.76365 0.0
C4324 C 0.2653 0.29355 0.77843 0.0
C4325 C 0.33575 0.25717 0.75356 0.0
C4326 C 0.23018 0.34112 0.82077 0.0
C4327 C 0.23886 0.33101 0.8105 0.0
C4328 C 0.29673 0.29554 0.79671 0.0
C4329 C 0.30038 0.27218 0.76587 0.0
C4330 C 0.29039 0.28368 0.77702 0.0
C4331 C 0.26176 0.31651 0.8094 0.0
C4332 C 0.2716 0.30528 0.79816 0.0
H4333 H 0.27906 0.2495 0.74092 0.0
H4334 H 0.2635 0.26738 0.75804 0.0
H4335 H 0.32498 0.27791 0.78645 0.0
H4336 H 0.27824 0.31976 0.83671 0.0
H4337 H 0.29245 0.3019 0.81957 0.0
C4338 C 0.08152 0.04981 0.99962 0.0
C4339 C 0.08815 0.07561 0.99776 0.0
C4340 C 0.07076 0.04099 1.0097 0.0
C4341 C 0.05631 0.06114 0.03983 0.0
H4342 H 1.01984 0.99734 0.04083 0.0
C4343 C 1.00368 1.02631 0.08091 0.0
C4344 C 0.99886 1.00022 0.083 0.0
C4345 C 1.01437 1.0353 0.07083 0.0
C4346 C 1.03015 1.01512 0.04095 0.0
H4347 H 0.08707 0.11216 1.00576 0.0
H4348 H 0.06848 0.0973 1.023 0.0
H4349 H 1.03745 1.01265 1.02363 0.0
H4350 H 1.0024 0.96345 0.07532 0.0
H4351 H 1.02065 0.97865 0.05805 0.0
H4352 H 0.04883 0.06361 0.05716 0.0
C4353 C 0.07204 0.08333 1.01673 0.0
C4354 C 1.04055 1.02417 1.03081 0.0
C4355 C 0.08283 0.09213 1.00661 0.0
C4356 C 1.00545 0.98366 0.07431 0.0
C4357 C 1.01602 0.99263 0.06419 0.0
C4358 C 0.04583 0.05212 0.04997 0.0
C4359 C 0.06569 0.05736 1.01869 0.0
C4360 C 0.05409 0.04753 1.02984 0.0
C4361 C 1.02088 1.01882 0.06205 0.0
C4362 C 1.03237 1.02874 0.05092 0.0
H4363 H 0.085 1.03603 0.99324 0.0
H4364 H 0.06685 1.0209 1.01042 0.0
H4365 H 0.06664 0.07891 0.03997 0.0
H4366 H 0.99873 0.04016 0.08707 0.0
H4367 H 1.01704 0.05556 0.06991 0.0
C4368 C 0.74517 0.74666 0.82321 0.0
C4369 C 0.76117 0.74347 0.83246 0.0
C4370 C 0.7542 0.75735 0.8131 0.0
C4371 C 0.81154 0.79396 0.79999 0.0
H4372 H 0.77785 0.77835 0.77277 0.0
C4373 C 0.85348 0.83212 0.757 0.0
C4374 C 0.83774 0.83406 0.74761 0.0
C4375 C 0.84457 0.82141 0.76714 0.0
C4376 C 0.78768 0.78353 0.78019 0.0
H4377 H 0.80031 0.74914 0.83744 0.0
H4378 H 0.81561 0.76765 0.8204 0.0
H4379 H 0.76205 0.76033 0.7898 0.0
H4380 H 0.79931 0.82558 0.74232 0.0
H4381 H 0.78416 0.80754 0.75942 0.0
H4382 H 0.83712 0.81723 0.7904 0.0
C4383 C 0.79573 0.76234 0.82084 0.0
C4384 C 0.77835 0.77286 0.79023 0.0
C4385 C 0.78676 0.7515 0.83087 0.0
C4386 C 0.81262 0.82454 0.74905 0.0
C4387 C 0.80374 0.81385 0.75912 0.0
C4388 C 0.82083 0.80469 0.78995 0.0
C4389 C 0.77983 0.76573 0.81155 0.0
C4390 C 0.78992 0.77762 0.80052 0.0
C4391 C 0.81932 0.8118 0.76858 0.0
C4392 C 0.80927 0.79992 0.77964 0.0
H4393 H 0.72538 0.74103 0.82378 0.0
H4394 H 0.74066 0.75939 0.8065 0.0
H4395 H 0.82135 0.79902 0.80743 0.0
H4396 H 0.87295 0.83881 0.75654 0.0
H4397 H 0.85792 0.82043 0.77385 0.0
C4398 C 0.84336 0.33113 0.32338 0.0
C4399 C 0.82783 0.33244 0.33288 0.0
C4400 C 0.83445 0.32075 0.31322 0.0
C4401 C 0.77869 0.28196 0.30002 0.0
H4402 H 0.81095 0.30124 0.27283 0.0
C4403 C 0.73729 0.24522 0.25685 0.0
C4404 C 0.75275 0.24447 0.24732 0.0
C4405 C 0.74606 0.25566 0.26703 0.0
C4406 C 0.80153 0.29506 0.28024 0.0
H4407 H 0.78978 0.32287 0.33835 0.0
H4408 H 0.77462 0.30503 0.32117 0.0
H4409 H 0.82625 0.31868 0.29 0.0
H4410 H 0.79039 0.25537 0.24177 0.0
H4411 H 0.80536 0.27303 0.25898 0.0
H4412 H 0.75399 0.2583 0.29026 0.0
C4413 C 0.79403 0.31189 0.32142 0.0
C4414 C 0.81057 0.30537 0.29037 0.0
C4415 C 0.80289 0.32241 0.33153 0.0
C4416 C 0.77737 0.25527 0.24863 0.0
C4417 C 0.78612 0.26572 0.25876 0.0
C4418 C 0.76966 0.27161 0.28989 0.0
C4419 C 0.80941 0.31069 0.31183 0.0
C4420 C 0.79952 0.29925 0.30068 0.0
C4421 C 0.77088 0.2663 0.2684 0.0
C4422 C 0.78071 0.27773 0.27957 0.0
H4423 H 0.86273 0.33811 0.32376 0.0
H4424 H 0.84769 0.32036 0.30645 0.0
H4425 H 0.76928 0.27582 0.30744 0.0
H4426 H 0.71814 0.23764 0.2565 0.0
H4427 H 0.73291 0.25555 0.27383 0.0
C4428 C 0.77238 0.32412 0.74642 0.0
C4429 C 0.74764 0.33479 0.74528 0.0
C4430 C 0.78162 0.31362 0.75649 0.0
C4431 C 0.76734 0.30871 0.78774 0.0
H4432 H 0.82186 0.25926 0.7875 0.0
C4433 C 0.80194 0.25975 0.82954 0.0
C4434 C 0.82599 0.24758 0.83067 0.0
C4435 C 0.79288 0.26996 0.81941 0.0
C4436 C 0.80681 0.27324 0.78797 0.0
H4437 H 0.71337 0.34133 0.75471 0.0
H4438 H 0.72909 0.32359 0.772 0.0
H4439 H 0.80581 0.27669 0.77038 0.0
H4440 H 0.85913 0.23772 0.82103 0.0
H4441 H 0.8438 0.25521 0.80364 0.0
H4442 H 0.76838 0.30548 0.8053 0.0
C4443 C 0.7419 0.32355 0.76507 0.0
C4444 C 0.79733 0.28352 0.77787 0.0
C4445 C 0.7326 0.33392 0.75494 0.0
C4446 C 0.84047 0.24647 0.82086 0.0
C4447 C 0.83138 0.2567 0.81066 0.0
C4448 C 0.77685 0.2985 0.79784 0.0
C4449 C 0.76681 0.31301 0.76624 0.0
C4450 C 0.77719 0.30165 0.77735 0.0
C4451 C 0.80719 0.26891 0.80953 0.0
C4452 C 0.79695 0.28029 0.79838 0.0
H4453 H 0.78511 0.32412 0.73946 0.0
H4454 H 0.80088 0.30633 0.75659 0.0
H4455 H 0.75228 0.32271 0.78819 0.0
H4456 H 0.78957 0.2612 0.83658 0.0
H4457 H 0.77412 0.27841 0.81941 0.0
C4458 C 0.77836 0.83355 0.32827 0.0
C4459 C 0.75323 0.84297 0.32978 0.0
C4460 C 0.78693 0.82246 0.31828 0.0
C4461 C 0.76962 0.81301 0.28762 0.0
H4462 H 0.82657 0.76632 0.28811 0.0
C4463 C 0.80253 0.75935 0.24684 0.0
C4464 C 0.82753 0.74948 0.24546 0.0
C4465 C 0.79384 0.77044 0.25682 0.0
C4466 C 0.81081 0.7795 0.28758 0.0
H4467 H 0.71779 0.84758 0.32098 0.0
H4468 H 0.73241 0.8287 0.30373 0.0
H4469 H 0.81118 0.78505 0.30504 0.0
H4470 H 0.86271 0.74451 0.25441 0.0
H4471 H 0.84795 0.76348 0.27159 0.0
H4472 H 0.76924 0.80747 0.27016 0.0
C4473 C 0.74591 0.82987 0.31038 0.0
C4474 C 0.80173 0.79056 0.29755 0.0
C4475 C 0.73726 0.84088 0.32047 0.0
C4476 C 0.84332 0.75145 0.25483 0.0
C4477 C 0.83458 0.76251 0.26489 0.0
C4478 C 0.7787 0.80196 0.27764 0.0
C4479 C 0.77107 0.8201 0.30893 0.0
C4480 C 0.7808 0.80779 0.29796 0.0
C4481 C 0.80948 0.7725 0.26626 0.0
C4482 C 0.79965 0.78475 0.27723 0.0
H4483 H 0.79187 0.83483 0.33492 0.0
H4484 H 0.80649 0.81607 0.31792 0.0
H4485 H 0.75384 0.82618 0.2871 0.0
H4486 H 0.78918 0.75824 0.24014 0.0
H4487 H 0.77434 0.77705 0.2571 0.0
C4488 C 0.57866 0.48785 0.07252 0.0
C4489 C 0.58231 0.5041 0.08161 0.0
C4490 C 0.56779 0.49657 0.06241 0.0
C4491 C 0.53389 0.55505 0.04869 0.0
H4492 H 0.54347 0.51652 1.02215 0.0
C4493 C 0.49898 0.59563 1.00515 0.0
C4494 C 0.49223 0.57889 0.99656 0.0
C4495 C 0.50962 0.58679 1.01528 0.0
C4496 C 0.54013 0.52774 1.02941 0.0
H4497 H 0.57616 0.54306 0.08654 0.0
H4498 H 0.55809 0.55808 0.0694 0.0
H4499 H 0.56156 0.50127 1.03927 0.0
H4500 H 0.49157 0.53884 0.99272 0.0
H4501 H 0.51015 0.52372 1.00983 0.0
H4502 H 0.51265 0.58164 1.03874 0.0
C4503 C 0.56326 0.53825 0.0699 0.0
C4504 C 0.55077 0.51874 1.0395 0.0
C4505 C 0.57399 0.52949 0.07998 0.0
C4506 C 0.49679 0.55281 0.99877 0.0
C4507 C 0.50761 0.54398 1.00882 0.0
C4508 C 0.5234 0.56411 1.03858 0.0
C4509 C 0.55977 0.52219 0.06068 0.0
C4510 C 0.54806 0.53202 0.04956 0.0
C4511 C 0.5144 0.56061 1.01748 0.0
C4512 C 0.52608 0.55078 1.02856 0.0
H4513 H 0.58428 0.46812 0.07317 0.0
H4514 H 0.56556 0.4828 0.05595 0.0
H4515 H 0.53035 0.56631 0.0559 0.0
H4516 H 0.49604 0.61583 1.00407 0.0
H4517 H 0.51442 0.60084 1.02137 0.0
C4518 C 0.99747 0.55209 0.57912 0.0
C4519 C 0.99298 0.57824 0.58118 0.0
C4520 C 1.00823 0.54304 0.56909 0.0
C4521 C 1.02413 0.56279 0.53918 0.0
H4522 H 0.06157 0.49953 0.53863 0.0
C4523 C 0.07431 0.52766 0.49777 0.0
C4524 C 0.08254 0.50223 0.4962 0.0
C4525 C 0.06365 0.5365 0.50784 0.0
C4526 C 0.05099 0.51714 0.53835 0.0
H4527 H 0.99701 0.61502 0.57344 0.0
H4528 H 1.0153 0.59966 0.55621 0.0
H4529 H 0.04361 0.515 0.55572 0.0
H4530 H 0.08442 0.46629 0.50477 0.0
H4531 H 0.06583 0.48111 0.52198 0.0
H4532 H 1.03114 0.56493 0.52185 0.0
C4533 C 1.01044 0.58572 0.56238 0.0
C4534 C 1.04043 0.52625 0.54844 0.0
C4535 C 0.99985 0.59478 0.57248 0.0
C4536 C 0.07887 0.48604 0.50537 0.0
C4537 C 0.06807 0.49485 0.51547 0.0
C4538 C 1.03454 0.55362 0.52908 0.0
C4539 C 1.01507 0.55949 0.56031 0.0
C4540 C 1.02663 0.54946 0.54924 0.0
C4541 C 0.06013 0.5205 0.51713 0.0
C4542 C 0.04847 0.53044 0.52825 0.0
H4543 H 0.9922 0.53826 0.58527 0.0
H4544 H 1.01069 0.52275 0.5682 0.0
H4545 H 1.01356 0.58043 0.53897 0.0
H4546 H 0.0765 0.54121 0.49116 0.0
H4547 H 0.05855 0.55635 0.50828 0.0
C4548 C 0.08026 0.59234 0.0735 0.0
C4549 C 0.08693 0.57537 0.08206 0.0
C4550 C 0.06981 0.58378 0.06332 0.0
C4551 C 1.04014 0.52482 0.0489 0.0
H4552 H 0.04896 0.5648 1.02262 0.0
C4553 C 1.00331 0.48574 1.00559 0.0
C4554 C 0.9983 0.50238 0.99671 0.0
C4555 C 1.01405 0.49436 1.0157 0.0
C4556 C 0.04574 0.55316 1.02978 0.0
H4557 H 0.08758 0.53522 0.08582 0.0
H4558 H 0.06944 0.52054 0.0686 0.0
H4559 H 0.06644 0.57971 0.03987 0.0
H4560 H 1.00197 0.54193 0.99211 0.0
H4561 H 1.02 0.55678 1.00931 0.0
H4562 H 1.0193 0.49835 1.03889 0.0
C4563 C 0.07187 0.54078 0.06966 0.0
C4564 C 0.05607 0.56196 0.03994 0.0
C4565 C 0.08245 0.54934 0.07978 0.0
C4566 C 1.00519 0.52809 0.99852 0.0
C4567 C 1.01588 0.53673 1.00861 0.0
C4568 C 1.02972 0.51606 1.03876 0.0
C4569 C 0.06517 0.55765 0.06103 0.0
C4570 C 0.0537 0.54811 0.04989 0.0
C4571 C 1.02063 0.52025 1.01764 0.0
C4572 C 1.03212 0.52986 1.02879 0.0
H4573 H 0.08314 0.61252 0.07464 0.0
H4574 H 0.06505 0.598 0.05726 0.0
H4575 H 1.03703 0.5132 0.05609 0.0
H4576 H 0.99886 0.46576 1.00476 0.0
H4577 H 1.01738 0.4803 1.02199 0.0
C4578 C 0.51113 0.52105 0.58266 0.0
C4579 C 0.50268 0.49569 0.58422 0.0
C4580 C 0.52171 0.52992 0.57256 0.0
C4581 C 0.53258 0.51123 0.54204 0.0
H4582 H 0.57298 0.5727 0.5414 0.0
C4583 C 0.5858 0.54472 0.50114 0.0
C4584 C 0.59141 0.57066 0.49906 0.0
C4585 C 0.5751 0.53602 0.51123 0.0
C4586 C 0.56156 0.5556 0.54121 0.0
H4587 H 0.50037 0.45984 0.5757 0.0
H4588 H 0.51882 0.47473 0.55843 0.0
H4589 H 0.55557 0.55721 0.55862 0.0
H4590 H 0.58928 0.60753 0.50675 0.0
H4591 H 0.57107 0.59269 0.52416 0.0
H4592 H 0.53882 0.50958 0.52461 0.0
C4593 C 0.51677 0.48839 0.56495 0.0
C4594 C 0.55127 0.54646 0.55134 0.0
C4595 C 0.50607 0.47955 0.57507 0.0
C4596 C 0.58564 0.58742 0.50777 0.0
C4597 C 0.57508 0.57868 0.51794 0.0
C4598 C 0.54298 0.5203 0.53192 0.0
C4599 C 0.52487 0.51398 0.56329 0.0
C4600 C 0.53634 0.52392 0.55216 0.0
C4601 C 0.56939 0.55263 0.52003 0.0
C4602 C 0.55786 0.54283 0.53112 0.0
H4603 H 0.50919 0.53452 0.58927 0.0
H4604 H 0.52701 0.54972 0.57208 0.0
H4605 H 0.52111 0.49418 0.54178 0.0
H4606 H 0.59003 0.53073 0.49494 0.0
H4607 H 0.57177 0.51585 0.51213 0.0
C4608 C 0.281 0.13304 0.38636 0.0
C4609 C 0.28255 0.16019 0.38576 0.0
C4610 C 0.29643 0.11738 0.39365 0.0
C4611 C 0.35624 0.11788 0.4139 0.0
H4612 H 0.33524 0.04963 0.42136 0.0
C4613 C 0.4253 0.04803 0.44165 0.0
C4614 C 0.41607 1.02642 0.4476 0.0
C4615 C 0.40959 0.06375 0.4345 0.0
C4616 C 0.34199 0.0686 0.41956 0.0
H4617 H 0.30399 0.19044 0.3934 0.0
H4618 H 0.33038 0.16409 0.40554 0.0
H4619 H 0.30906 0.07591 0.4092 0.0
H4620 H 0.38055 1.00598 0.44961 0.0
H4621 H 0.3541 1.03216 0.43742 0.0
H4622 H 0.38928 0.11051 0.42419 0.0
C4623 C 0.31693 0.1544 0.40032 0.0
C4624 C 0.32649 0.08419 0.41227 0.0
C4625 C 0.30123 0.17008 0.39314 0.0
C4626 C 0.38955 1.02194 0.44557 0.0
C4627 C 0.37391 1.03743 0.43829 0.0
C4628 C 0.37193 0.10216 0.42107 0.0
C4629 C 0.31532 0.1272 0.401 0.0
C4630 C 0.33271 0.10972 0.40907 0.0
C4631 C 0.38306 0.05925 0.43239 0.0
C4632 C 0.36562 0.0767 0.42433 0.0
H4633 H 0.26746 0.12348 0.38114 0.0
H4634 H 0.29354 0.09706 0.39336 0.0
H4635 H 0.36307 0.13679 0.41206 0.0
H4636 H 0.44518 0.05312 0.44252 0.0
H4637 H 0.41878 0.07957 0.43044 0.0
C4638 C 0.28394 0.14375 0.69657 0.0
C4639 C 0.29225 0.1689 0.69382 0.0
C4640 C 0.26816 0.12803 0.68948 0.0
C4641 C 0.24463 0.11796 0.65911 0.0
H4642 H 0.19376 0.0727 0.67118 0.0
C4643 C 0.18592 0.04049 0.6306 0.0
C4644 C 0.15981 1.03419 0.63275 0.0
C4645 C 0.20143 0.05657 0.63765 0.0
C4646 C 0.20776 0.08502 0.6674 0.0
H4647 H 0.28906 0.1952 0.68026 0.0
H4648 H 0.26346 0.16819 0.66806 0.0
H4649 H 0.22032 0.09893 0.68329 0.0
H4650 H 0.13142 0.04169 0.6452 0.0
H4651 H 0.15795 0.0678 0.65736 0.0
H4652 H 0.23269 0.10338 0.64324 0.0
C4653 C 0.26865 0.1605 0.67596 0.0
C4654 C 0.22356 0.10048 0.67458 0.0
C4655 C 0.28372 0.17652 0.68319 0.0
C4656 C 0.15092 0.04524 0.64275 0.0
C4657 C 0.16666 0.06064 0.64997 0.0
C4658 C 0.22939 0.1019 0.65195 0.0
C4659 C 0.25987 0.13552 0.67878 0.0
C4660 C 0.24265 0.11792 0.6708 0.0
C4661 C 0.19266 0.06728 0.64775 0.0
C4662 C 0.21 0.08477 0.65572 0.0
H4663 H 0.28938 0.13605 0.70444 0.0
H4664 H 0.26277 0.1094 0.69245 0.0
H4665 H 0.25855 0.13037 0.65534 0.0
H4666 H 0.19463 1.03308 0.62325 0.0
H4667 H 0.22089 0.06024 0.63517 0.0
C4668 C 0.1627 0.04099 0.93637 0.0
C4669 C 0.17009 0.04953 0.94701 0.0
C4670 C 0.17891 1.02587 0.92922 0.0
C4671 C 0.23981 0.98147 0.92808 0.0
H4672 H 0.23567 0.98858 0.89667 0.0
C4673 C 0.29696 0.90894 0.8968 0.0
C4674 C 0.3066 0.91721 0.88642 0.0
C4675 C 0.28133 0.92463 0.90397 0.0
C4676 C 0.23753 0.98585 0.9054 0.0
H4677 H 0.20276 0.04663 0.95773 0.0
H4678 H 0.22976 1.02003 0.94585 0.0
H4679 H 0.20841 1.01445 0.90866 0.0
H4680 H 0.30494 0.95079 0.87618 0.0
H4681 H 0.27758 0.97692 0.88808 0.0
H4682 H 0.26835 0.9523 0.92482 0.0
C4683 C 0.21115 1.0254 0.94283 0.0
C4684 C 0.22129 1.0011 0.9125 0.0
C4685 C 0.19522 0.04118 0.94985 0.0
C4686 C 0.29873 0.94261 0.88386 0.0
C4687 C 0.28248 0.95803 0.89089 0.0
C4688 C 0.25551 0.96569 0.92097 0.0
C4689 C 0.20389 1.01708 0.93212 0.0
C4690 C 0.22173 0.99985 0.92421 0.0
C4691 C 0.2731 0.94991 0.90135 0.0
C4692 C 0.25534 0.9672 0.90926 0.0
H4693 H 0.14406 0.04637 0.93337 0.0
H4694 H 0.17136 1.02066 0.92132 0.0
H4695 H 0.2417 0.97879 0.93681 0.0
H4696 H 0.3018 0.89 0.89957 0.0
H4697 H 0.27528 0.91643 0.91167 0.0
C4698 C 0.29705 0.91152 0.1869 0.0
C4699 C 0.27688 0.92114 0.19362 0.0
C4700 C 0.31287 0.92727 0.17981 0.0
C4701 C 0.31972 0.99608 0.16638 0.0
H4702 H 0.38666 0.97336 0.15754 0.0
C4703 C 0.38398 0.0571 0.13312 0.0
C4704 C 0.41118 0.05527 0.13253 0.0
C4705 C 0.36818 0.04158 0.14033 0.0
C4706 C 0.36811 0.98064 0.15978 0.0
H4707 H 0.25932 0.95741 0.1972 0.0
H4708 H 0.28555 0.98394 0.18505 0.0
H4709 H 0.36022 0.94689 0.16955 0.0
H4710 H 0.44139 1.03334 0.14005 0.0
H4711 H 0.41478 1.00673 0.152 0.0
H4712 H 0.3275 1.02969 0.1565 0.0
C4713 C 0.28951 0.96378 0.18524 0.0
C4714 C 0.35232 0.96482 0.16686 0.0
C4715 C 0.27398 0.94808 0.19247 0.0
C4716 C 0.42098 1.03627 0.1398 0.0
C4717 C 0.40518 1.02046 0.14686 0.0
C4718 C 0.33534 1.01169 0.15915 0.0
C4719 C 0.30986 0.95423 0.17856 0.0
C4720 C 0.32734 0.97175 0.17058 0.0
C4721 C 0.37795 1.02235 0.14754 0.0
C4722 C 0.36041 1.00485 0.15551 0.0
H4723 H 0.30094 0.89133 0.18714 0.0
H4724 H 0.32754 0.91785 0.17511 0.0
H4725 H 0.30112 1.00329 0.16858 0.0
H4726 H 0.37453 0.07096 0.12799 0.0
H4727 H 0.34781 0.04467 0.14008 0.0
C4728 C 0.81376 0.94131 0.69325 0.0
C4729 C 0.81075 0.91444 0.69466 0.0
C4730 C 0.79815 0.95677 0.68596 0.0
C4731 C 0.73504 0.95723 0.66776 0.0
H4732 H 0.75963 1.02186 0.65701 0.0
C4733 C 0.66603 1.02754 0.64031 0.0
C4734 C 0.67568 0.04659 0.63302 0.0
C4735 C 0.68193 1.01198 0.64743 0.0
C4736 C 0.75184 1.00392 0.65976 0.0
H4737 H 0.78638 0.88449 0.68855 0.0
H4738 H 0.75966 0.91059 0.67643 0.0
H4739 H 0.78613 0.99588 0.66918 0.0
H4740 H 0.71221 0.06267 0.62852 0.0
H4741 H 0.73908 1.03677 0.64068 0.0
H4742 H 0.70065 0.96539 0.65844 0.0
C4743 C 0.77448 0.92016 0.68097 0.0
C4744 C 0.76754 0.98854 0.66706 0.0
C4745 C 0.79037 0.90464 0.68812 0.0
C4746 C 0.70286 0.04873 0.63365 0.0
C4747 C 0.71875 1.03345 0.64091 0.0
C4748 C 0.71918 0.9728 0.66061 0.0
C4749 C 0.7776 0.94705 0.67946 0.0
C4750 C 0.76002 0.96432 0.67141 0.0
C4751 C 0.70913 1.01416 0.64815 0.0
C4752 C 0.72677 0.99693 0.65619 0.0
H4753 H 0.8286 0.95077 0.69781 0.0
H4754 H 0.80223 0.97689 0.68558 0.0
H4755 H 0.72719 0.93936 0.67055 0.0
H4756 H 0.64565 1.02438 0.64055 0.0
H4757 H 0.67241 0.9982 0.65258 0.0
C4758 C 0.92145 1.03461 0.43753 0.0
C4759 C 0.9114 0.05394 0.44454 0.0
C4760 C 0.90589 1.01863 0.43046 0.0
C4761 C 0.83623 1.00954 0.41791 0.0
H4762 H 0.86171 0.94504 0.40759 0.0
C4763 C 0.77516 0.94578 0.38478 0.0
C4764 C 0.77853 0.91896 0.38339 0.0
C4765 C 0.79056 0.96144 0.39202 0.0
C4766 C 0.85364 0.96288 0.41025 0.0
H4767 H 0.87455 0.06977 0.44868 0.0
H4768 H 0.84833 0.04325 0.43662 0.0
H4769 H 0.88785 0.97164 0.41957 0.0
H4770 H 0.80331 0.88932 0.38957 0.0
H4771 H 0.82971 0.91578 0.40162 0.0
H4772 H 0.80212 1.00091 0.4085 0.0
C4773 C 0.86869 0.04009 0.43653 0.0
C4774 C 0.86925 0.97879 0.41733 0.0
C4775 C 0.88422 0.0558 0.44372 0.0
C4776 C 0.79905 0.90941 0.38995 0.0
C4777 C 0.81474 0.92515 0.39707 0.0
C4778 C 0.82078 0.99382 0.4107 0.0
C4779 C 0.87868 1.02059 0.42954 0.0
C4780 C 0.86135 1.00293 0.42158 0.0
C4781 C 0.81127 0.95201 0.39852 0.0
C4782 C 0.8286 0.96959 0.40651 0.0
H4783 H 0.94184 1.03154 0.43749 0.0
H4784 H 0.91568 1.00469 0.42553 0.0
H4785 H 0.82819 1.02744 0.42053 0.0
H4786 H 0.76021 0.9551 0.38019 0.0
H4787 H 0.78618 0.9815 0.39235 0.0
C4788 C 0.89071 1.03611 0.13111 0.0
C4789 C 0.91614 1.02823 0.1337 0.0
C4790 C 0.87497 0.05184 0.13824 0.0
C4791 C 0.86679 0.07732 0.16855 0.0
H4792 H 0.81724 0.12403 0.15656 0.0
C4793 C 0.79121 0.13604 0.19803 0.0
C4794 C 0.78201 0.16083 0.19521 0.0
C4795 C 0.8071 0.12052 0.19089 0.0
C4796 C 0.83081 0.11126 0.16033 0.0
H4797 H 0.94292 1.03214 0.14704 0.0
H4798 H 0.91603 0.05779 0.15926 0.0
H4799 H 0.84344 0.09756 0.14441 0.0
H4800 H 0.78381 0.18673 0.18145 0.0
H4801 H 0.80976 0.16015 0.16921 0.0
H4802 H 0.85367 0.0905 0.18448 0.0
C4803 C 0.90805 0.05225 0.15147 0.0
C4804 C 0.84626 0.09547 0.15312 0.0
C4805 C 0.92403 1.03715 0.14422 0.0
C4806 C 0.78985 0.16833 0.18445 0.0
C4807 C 0.80512 0.15253 0.17719 0.0
C4808 C 0.85086 0.09261 0.17577 0.0
C4809 C 0.88277 0.06059 0.14883 0.0
C4810 C 0.86521 0.07782 0.15685 0.0
C4811 C 0.81475 0.12789 0.18006 0.0
C4812 C 0.83217 0.11053 0.17203 0.0
H4813 H 0.88277 1.03033 0.12335 0.0
H4814 H 0.8561 0.05683 0.13541 0.0
H4815 H 0.88039 0.06457 0.17232 0.0
H4816 H 0.78635 0.12845 0.206 0.0
H4817 H 0.81312 0.10215 0.19391 0.0
C4818 C 0.65345 0.05227 0.93894 0.0
C4819 C 0.66303 1.03193 0.94558 0.0
C4820 C 0.66927 0.06809 0.93186 0.0
C4821 C 0.73845 0.07502 0.91847 0.0
H4822 H 0.71532 0.14143 0.90929 0.0
C4823 C 0.80036 0.13896 0.88538 0.0
C4824 C 0.79803 0.16601 0.88441 0.0
C4825 C 0.78472 0.12331 0.89261 0.0
C4826 C 0.72274 0.12303 0.91162 0.0
H4827 H 0.69933 1.01395 0.94893 0.0
H4828 H 0.72596 0.04025 0.93686 0.0
H4829 H 0.68876 0.11505 0.92129 0.0
H4830 H 0.7748 0.19605 0.89124 0.0
H4831 H 0.74806 0.16966 0.90327 0.0
H4832 H 0.7723 0.08289 0.90871 0.0
C4833 C 0.70578 0.0444 0.93711 0.0
C4834 C 0.70686 0.10726 0.9187 0.0
C4835 C 0.69001 1.02883 0.94432 0.0
C4836 C 0.77828 0.17578 0.89132 0.0
C4837 C 0.76236 0.16009 0.89842 0.0
C4838 C 0.75414 0.09062 0.91124 0.0
C4839 C 0.69628 0.06495 0.93053 0.0
C4840 C 0.7139 0.08245 0.92255 0.0
C4841 C 0.7648 0.13301 0.89948 0.0
C4842 C 0.74719 0.11552 0.90747 0.0
H4843 H 0.63323 0.05624 0.93919 0.0
H4844 H 0.65983 0.08288 0.92724 0.0
H4845 H 0.74581 0.05657 0.92075 0.0
H4846 H 0.81466 0.12949 0.88049 0.0
H4847 H 0.78827 0.10308 0.89262 0.0
C4848 C 0.78125 0.63961 0.88672 0.0
C4849 C 0.7854 0.66626 0.88508 0.0
C4850 C 0.79652 0.62373 0.89396 0.0
C4851 C 0.86023 0.62125 0.91177 0.0
H4852 H 0.83375 0.55748 0.92263 0.0
C4853 C 0.92738 0.54914 0.93917 0.0
C4854 C 0.91729 0.53005 0.94634 0.0
C4855 C 0.91187 0.56519 0.9321 0.0
C4856 C 0.84207 0.57515 0.91985 0.0
H4857 H 0.81135 0.69533 0.89076 0.0
H4858 H 0.83747 0.66851 0.90283 0.0
H4859 H 0.80788 0.58429 0.91056 0.0
H4860 H 0.88041 0.51449 0.95065 0.0
H4861 H 0.85418 0.54126 0.93859 0.0
H4862 H 0.8945 0.61202 0.92097 0.0
C4863 C 0.82203 0.65944 0.89849 0.0
C4864 C 0.82674 0.59103 0.91261 0.0
C4865 C 0.8065 0.6754 0.89136 0.0
C4866 C 0.89008 0.52841 0.94562 0.0
C4867 C 0.87457 0.54422 0.93842 0.0
C4868 C 0.8757 0.6052 0.91887 0.0
C4869 C 0.8178 0.63276 0.9002 0.0
C4870 C 0.83496 0.61498 0.90821 0.0
C4871 C 0.88464 0.56354 0.93131 0.0
C4872 C 0.86742 0.58134 0.92333 0.0
H4873 H 0.76577 0.63065 0.88236 0.0
H4874 H 0.79155 0.60383 0.89451 0.0
H4875 H 0.86861 0.63885 0.90893 0.0
H4876 H 0.94781 0.55191 0.93897 0.0
H4877 H 0.92172 0.57892 0.92704 0.0
C4878 C 0.69423 0.53182 0.13303 0.0
C4879 C 0.66701 0.5334 0.13249 0.0
C4880 C 0.70994 0.54748 0.14017 0.0
C4881 C 0.70964 0.60841 0.1595 0.0
H4882 H 0.77695 0.58639 0.16813 0.0
C4883 C 0.78041 0.67805 0.18637 0.0
C4884 C 0.80076 0.66853 0.19302 0.0
C4885 C 0.76463 0.66223 0.17933 0.0
C4886 C 0.75825 0.59343 0.16598 0.0
H4887 H 0.63666 0.5551 0.14001 0.0
H4888 H 0.66311 0.58193 0.15184 0.0
H4889 H 0.7507 0.55979 0.15617 0.0
H4890 H 0.81872 0.63236 0.19651 0.0
H4891 H 0.79258 0.60576 0.18448 0.0
H4892 H 0.71732 0.6422 0.16919 0.0
C4893 C 0.6728 0.56828 0.14672 0.0
C4894 C 0.74271 0.57769 0.15881 0.0
C4895 C 0.65709 0.55233 0.13973 0.0
C4896 C 0.80388 0.64163 0.19185 0.0
C4897 C 0.78841 0.62587 0.18467 0.0
C4898 C 0.72536 0.62436 0.16651 0.0
C4899 C 0.70006 0.56664 0.14735 0.0
C4900 C 0.71752 0.58429 0.15524 0.0
C4901 C 0.76787 0.6353 0.17807 0.0
C4902 C 0.75046 0.61766 0.17017 0.0
H4903 H 0.70378 0.51806 0.12792 0.0
H4904 H 0.73033 0.54456 0.13989 0.0
H4905 H 0.69099 0.61552 0.15731 0.0
H4906 H 0.77634 0.6982 0.18662 0.0
H4907 H 0.74979 0.67157 0.17469 0.0
C4908 C 0.78251 0.40207 0.39156 0.0
C4909 C 0.80195 0.41194 0.38449 0.0
C4910 C 0.76691 0.41762 0.3988 0.0
C4911 C 0.75903 0.48687 0.41174 0.0
H4912 H 0.69452 0.46173 0.42251 0.0
C4913 C 0.69611 0.54787 0.44542 0.0
C4914 C 0.6693 0.54426 0.44707 0.0
C4915 C 0.71163 0.53257 0.43804 0.0
C4916 C 0.71237 0.46973 0.41973 0.0
H4917 H 0.81862 0.44847 0.38056 0.0
H4918 H 0.79266 0.4747 0.39289 0.0
H4919 H 0.72057 0.43576 0.41023 0.0
H4920 H 0.63953 0.51931 0.4412 0.0
H4921 H 0.66571 0.49318 0.42895 0.0
H4922 H 0.75094 0.52075 0.42132 0.0
C4923 C 0.78905 0.45448 0.39286 0.0
C4924 C 0.72797 0.45419 0.41247 0.0
C4925 C 0.8044 0.43895 0.38549 0.0
C4926 C 0.65964 0.5237 0.44064 0.0
C4927 C 0.67522 0.50816 0.43339 0.0
C4928 C 0.74361 0.50226 0.41913 0.0
C4929 C 0.76939 0.44466 0.39988 0.0
C4930 C 0.7521 0.46195 0.40804 0.0
C4931 C 0.70205 0.5118 0.43166 0.0
C4932 C 0.71939 0.49457 0.42349 0.0
H4933 H 0.7791 0.3818 0.39155 0.0
H4934 H 0.75285 0.40793 0.40376 0.0
H4935 H 0.77696 0.4948 0.409 0.0
H4936 H 0.70546 0.56296 0.44985 0.0
H4937 H 0.73169 0.53711 0.43749 0.0
C4938 C 0.78479 0.4419 0.69622 0.0
C4939 C 0.77532 0.41727 0.69337 0.0
C4940 C 0.8007 0.45743 0.68905 0.0
C4941 C 0.82353 0.46761 0.65846 0.0
H4942 H 0.87469 0.5125 0.67037 0.0
C4943 C 0.88357 0.54341 0.62943 0.0
C4944 C 0.90942 0.55019 0.63178 0.0
C4945 C 0.8678 0.52762 0.63656 0.0
C4946 C 0.86064 0.50026 0.66663 0.0
H4947 H 0.7766 0.3917 0.67956 0.0
H4948 H 0.80255 0.41837 0.66728 0.0
H4949 H 0.84794 0.4865 0.68257 0.0
H4950 H 0.93699 0.54422 0.64469 0.0
H4951 H 0.91006 0.5185 0.65694 0.0
H4952 H 0.83571 0.48194 0.64254 0.0
C4953 C 0.79814 0.4258 0.67529 0.0
C4954 C 0.8447 0.48495 0.67387 0.0
C4955 C 0.78288 0.40996 0.68257 0.0
C4956 C 0.91774 0.54011 0.64207 0.0
C4957 C 0.90176 0.52497 0.64933 0.0
C4958 C 0.83898 0.48346 0.65124 0.0
C4959 C 0.80806 0.45026 0.67819 0.0
C4960 C 0.82547 0.46766 0.67015 0.0
C4961 C 0.87604 0.51773 0.64692 0.0
C4962 C 0.85848 0.50046 0.65495 0.0
H4963 H 0.78014 0.44933 0.70421 0.0
H4964 H 0.80697 0.47567 0.6921 0.0
H4965 H 0.80951 0.45533 0.65472 0.0
H4966 H 0.87531 0.55012 0.62185 0.0
H4967 H 0.84858 0.5235 0.63392 0.0
C4968 C 0.30424 0.43937 0.19395 0.0
C4969 C 0.30279 0.41222 0.19447 0.0
C4970 C 0.28885 0.45504 0.18665 0.0
C4971 C 0.22965 0.45426 0.16609 0.0
H4972 H 0.24977 0.5231 0.15923 0.0
C4973 C 0.16068 0.52359 0.13816 0.0
C4974 C 0.16968 0.54581 0.13257 0.0
C4975 C 0.17636 0.50791 0.14532 0.0
C4976 C 0.24328 0.50396 0.16085 0.0
H4977 H 0.28167 0.38194 0.1867 0.0
H4978 H 0.25542 0.40828 0.17451 0.0
H4979 H 0.27591 0.49685 0.1714 0.0
H4980 H 0.20468 0.56737 0.13122 0.0
H4981 H 0.2311 0.54119 0.14341 0.0
H4982 H 0.19693 0.4614 0.1556 0.0
C4983 C 0.26869 0.41799 0.17981 0.0
C4984 C 0.25875 0.48838 0.16815 0.0
C4985 C 0.28432 0.40232 0.18701 0.0
C4986 C 0.1959 0.55092 0.13496 0.0
C4987 C 0.21151 0.53543 0.14225 0.0
C4988 C 0.214 0.46994 0.1589 0.0
C4989 C 0.27017 0.4452 0.17922 0.0
C4990 C 0.25283 0.46265 0.17114 0.0
C4991 C 0.2026 0.51302 0.14779 0.0
C4992 C 0.22 0.49561 0.15586 0.0
H4993 H 0.31762 0.44892 0.19925 0.0
H4994 H 0.29162 0.47537 0.18702 0.0
H4995 H 0.22305 0.43518 0.16776 0.0
H4996 H 0.14102 0.51801 0.13699 0.0
H4997 H 0.16736 0.49161 0.1491 0.0
C4998 C 0.38281 0.55543 0.94399 0.0
C4999 C 0.40916 0.5504 0.94615 0.0
C5000 C 0.36701 0.54017 0.93674 0.0
C5001 C 0.36426 0.4755 0.91965 0.0
H5002 H 0.30141 0.5025 0.908 0.0
C5003 C 0.29306 0.40885 0.89164 0.0
C5004 C 0.27389 0.41903 0.88454 0.0
C5005 C 0.30898 0.42422 0.8988 0.0
C5006 C 0.31883 0.49401 0.911 0.0
H5007 H 0.43783 0.52301 0.94136 0.0
H5008 H 0.41116 0.49699 0.9293 0.0
H5009 H 0.32796 0.52831 0.92009 0.0
H5010 H 0.25833 0.45589 0.88033 0.0
H5011 H 0.28481 0.48178 0.8925 0.0
H5012 H 0.35506 0.44116 0.91062 0.0
C5013 C 0.40222 0.51305 0.93323 0.0
C5014 C 0.33456 0.50933 0.91826 0.0
C5015 C 0.41809 0.52851 0.94037 0.0
C5016 C 0.27216 0.44612 0.88537 0.0
C5017 C 0.28786 0.46147 0.89263 0.0
C5018 C 0.34837 0.46007 0.9125 0.0
C5019 C 0.37583 0.51809 0.931 0.0
C5020 C 0.35818 0.50094 0.92296 0.0
C5021 C 0.30718 0.45136 0.89971 0.0
C5022 C 0.32483 0.46851 0.90776 0.0
H5023 H 0.37405 0.57164 0.9479 0.0
H5024 H 0.34734 0.54586 0.93577 0.0
H5025 H 0.38159 0.46695 0.92272 0.0
H5026 H 0.29603 0.3885 0.89168 0.0
H5027 H 0.32277 0.41433 0.90381 0.0
C5028 C 0.39393 0.53251 0.63293 0.0
C5029 C 0.41887 0.52356 0.63575 0.0
C5030 C 0.37846 0.54875 0.63995 0.0
C5031 C 0.36941 0.57378 0.67022 0.0
H5032 H 0.32305 0.62323 0.6579 0.0
C5033 C 0.29397 0.63436 0.69897 0.0
C5034 C 0.28644 0.65981 0.69633 0.0
C5035 C 0.30971 0.61849 0.69192 0.0
C5036 C 0.33571 0.60967 0.66175 0.0
H5037 H 0.44519 0.52641 0.6493 0.0
H5038 H 0.41866 0.55292 0.66134 0.0
H5039 H 0.34891 0.59598 0.64591 0.0
H5040 H 0.29124 0.68661 0.68303 0.0
H5041 H 0.31693 0.65943 0.6709 0.0
H5042 H 0.35565 0.58692 0.68606 0.0
C5043 C 0.41087 0.54774 0.65348 0.0
C5044 C 0.35095 0.59345 0.65464 0.0
C5045 C 0.42661 0.53211 0.64634 0.0
C5046 C 0.29585 0.66766 0.68585 0.0
C5047 C 0.31099 0.65154 0.67867 0.0
C5048 C 0.35364 0.5895 0.67732 0.0
C5049 C 0.38606 0.55705 0.65062 0.0
C5050 C 0.36874 0.5748 0.65851 0.0
C5051 C 0.31889 0.62619 0.68137 0.0
C5052 C 0.33612 0.60841 0.67346 0.0
H5053 H 0.38617 0.52717 0.62508 0.0
H5054 H 0.35995 0.55453 0.63695 0.0
H5055 H 0.38211 0.56027 0.67407 0.0
H5056 H 0.28787 0.62648 0.70672 0.0
H5057 H 0.31438 0.5996 0.6948 0.0
C5058 C 0.15983 0.53886 0.43382 0.0
C5059 C 0.16689 0.53121 0.44466 0.0
C5060 C 0.17579 0.55429 0.42665 0.0
C5061 C 0.23529 0.6008 0.42553 0.0
H5062 H 0.23181 0.59316 0.39416 0.0
C5063 C 0.29159 0.67419 0.3941 0.0
C5064 C 0.30099 0.66628 0.38365 0.0
C5065 C 0.27628 0.65819 0.40132 0.0
C5066 C 0.23349 0.59606 0.40288 0.0
H5067 H 0.19876 0.53612 0.45567 0.0
H5068 H 0.22534 0.56314 0.44373 0.0
H5069 H 0.20512 0.56673 0.4062 0.0
H5070 H 0.29936 0.63292 0.37337 0.0
H5071 H 0.27261 0.60626 0.38536 0.0
H5072 H 0.26313 0.63063 0.42219 0.0
C5073 C 0.20716 0.55683 0.44057 0.0
C5074 C 0.21756 0.58047 0.41002 0.0
C5075 C 0.19148 0.54079 0.44764 0.0
C5076 C 0.29328 0.64087 0.38109 0.0
C5077 C 0.27738 0.62512 0.38818 0.0
C5078 C 0.2507 0.61687 0.41838 0.0
C5079 C 0.20021 0.56429 0.42968 0.0
C5080 C 0.21775 0.58188 0.42173 0.0
C5081 C 0.26818 0.63289 0.39871 0.0
C5082 C 0.25075 0.61523 0.40667 0.0
H5083 H 0.14161 0.53255 0.43069 0.0
H5084 H 0.16848 0.55874 0.41861 0.0
H5085 H 0.23698 0.60367 0.43425 0.0
H5086 H 0.29636 0.69309 0.39688 0.0
H5087 H 0.27038 0.66617 0.40906 0.0
C5088 C 0.30971 0.10251 0.31854 0.0
C5089 C 0.30514 0.12477 0.3124 0.0
C5090 C 0.3216 0.0815 0.31385 0.0
C5091 C 0.34772 0.05654 0.28705 0.0
H5092 H 0.31382 0.99547 0.29723 0.0
C5093 C 0.32274 0.94608 0.27426 0.0
C5094 C 0.30716 0.95113 0.26514 0.0
C5095 C 0.33415 0.96598 0.28 0.0
C5096 C 0.32399 1.01218 0.29441 0.0
H5097 H 0.31327 0.14284 0.29676 0.0
H5098 H 0.33073 0.10554 0.28827 0.0
H5099 H 0.31153 1.03342 0.30807 0.0
H5100 H 0.29384 0.98111 0.25429 0.0
H5101 H 0.31445 1.01538 0.26406 0.0
H5102 H 0.35747 1.03519 0.2727 0.0
C5103 C 0.32577 0.10436 0.29683 0.0
C5104 C 0.32283 1.03417 0.30068 0.0
C5105 C 0.31495 0.12584 0.30168 0.0
C5106 C 0.30578 0.97626 0.26119 0.0
C5107 C 0.31761 0.99604 0.26681 0.0
C5108 C 0.34822 1.03459 0.28061 0.0
C5109 C 0.32817 0.08144 0.3027 0.0
C5110 C 0.33394 0.05702 0.29696 0.0
C5111 C 0.33073 0.99121 0.27657 0.0
C5112 C 0.33573 1.01246 0.28413 0.0
H5113 H 0.30284 0.10031 0.32681 0.0
H5114 H 0.32427 0.06478 0.31888 0.0
H5115 H 0.35723 0.07336 0.284 0.0
H5116 H 0.3249 0.92692 0.27736 0.0
H5117 H 0.34433 0.96181 0.28749 0.0
C5118 C 0.20447 1.03616 0.5471 0.0
C5119 C 0.19591 0.04445 0.55737 0.0
C5120 C 0.22653 0.04623 0.54247 0.0
C5121 C 0.28723 0.07175 0.55141 0.0
H5122 H 0.30009 0.07039 0.52023 0.0
C5123 C 0.37687 1.02957 0.53328 0.0
C5124 C 0.38602 1.0374 0.52302 0.0
C5125 C 0.35554 0.04111 0.53789 0.0
C5126 C 0.29695 0.07154 0.52896 0.0
H5127 H 0.20283 0.07132 0.57044 0.0
H5128 H 0.24173 0.08882 0.56235 0.0
H5129 H 0.2565 0.07289 0.52689 0.0
H5130 H 0.38107 0.06482 0.50993 0.0
H5131 H 0.34352 0.08497 0.51799 0.0
H5132 H 0.32765 0.06962 0.55348 0.0
C5133 C 0.23138 0.07429 0.55796 0.0
C5134 C 0.27189 0.07268 0.53278 0.0
C5135 C 0.20916 0.06421 0.5626 0.0
C5136 C 0.3742 0.05807 0.51776 0.0
C5137 C 0.35276 0.06965 0.52239 0.0
C5138 C 0.31229 0.07081 0.54759 0.0
C5139 C 0.24072 0.06483 0.54799 0.0
C5140 C 0.26671 0.07128 0.54404 0.0
C5141 C 0.34275 0.06078 0.53236 0.0
C5142 C 0.31734 0.06919 0.53633 0.0
H5143 H 0.19507 1.02069 0.54291 0.0
H5144 H 0.23336 1.03809 0.53489 0.0
H5145 H 0.28398 0.0707 0.56014 0.0
H5146 H 0.38522 1.01347 0.53748 0.0
H5147 H 0.34814 1.0334 0.54547 0.0
C5148 C 0.28785 0.1044 0.76544 0.0
C5149 C 0.28056 0.1292 0.76824 0.0
C5150 C 0.2772 0.08353 0.77076 0.0
C5151 C 0.24941 0.06697 0.79724 0.0
H5152 H 0.24923 1.00035 0.78384 0.0
C5153 C 0.28592 0.97989 0.81919 0.0
C5154 C 0.2784 0.95531 0.81613 0.0
C5155 C 0.27528 1.00116 0.81418 0.0
C5156 C 0.24846 1.01875 0.78775 0.0
H5157 H 0.25528 0.15155 0.77841 0.0
H5158 H 0.2364 0.1149 0.78773 0.0
H5159 H 0.24929 1.03803 0.77236 0.0
H5160 H 0.25235 0.93386 0.80598 0.0
H5161 H 0.23354 0.97124 0.79721 0.0
H5162 H 0.24886 0.04768 0.81263 0.0
C5163 C 0.25068 0.11166 0.7815 0.0
C5164 C 0.24888 0.04042 0.78115 0.0
C5165 C 0.2615 0.13264 0.77618 0.0
C5166 C 0.25879 0.95256 0.8084 0.0
C5167 C 0.24802 0.97396 0.80339 0.0
C5168 C 0.2486 0.04531 0.80385 0.0
C5169 C 0.25885 0.08686 0.77903 0.0
C5170 C 0.25099 0.06471 0.78582 0.0
C5171 C 0.25676 0.9985 0.80597 0.0
C5172 C 0.24975 1.02094 0.79919 0.0
H5173 H 0.30281 0.10108 0.7595 0.0
H5174 H 0.28449 0.06485 0.7688 0.0
H5175 H 0.25086 0.08533 0.80115 0.0
H5176 H 0.30129 0.98278 0.82495 0.0
H5177 H 0.28296 1.01962 0.81625 0.0
C5178 C 0.20646 0.04275 1.03394 0.0
C5179 C 0.19756 1.03505 1.02365 0.0
C5180 C 0.22754 1.03102 1.03868 0.0
C5181 C 0.28613 1.00046 1.02984 0.0
H5182 H 0.29945 1.00362 0.06095 0.0
C5183 C 0.37714 0.04056 0.04697 0.0
C5184 C 0.3859 1.03395 0.05745 0.0
C5185 C 0.35569 1.02888 0.04257 0.0
C5186 C 0.29615 1.00188 0.05225 0.0
H5187 H 0.20255 1.00751 1.01069 0.0
H5188 H 0.23961 0.98694 1.01899 0.0
H5189 H 0.25573 1.00328 0.05444 0.0
H5190 H 0.38019 1.00821 0.07111 0.0
H5191 H 0.34237 0.98786 0.06342 0.0
H5192 H 0.32657 0.9998 1.02764 0.0
C5193 C 0.23041 1.00236 1.0233 0.0
C5194 C 0.27101 1.00202 0.04851 0.0
C5195 C 0.20924 1.01417 1.01854 0.0
C5196 C 0.37365 1.01407 0.0631 0.0
C5197 C 0.35205 1.00237 0.05869 0.0
C5198 C 0.31126 1.00005 1.03359 0.0
C5199 C 0.24033 1.01124 1.03326 0.0
C5200 C 0.26579 1.00298 1.03725 0.0
C5201 C 0.34233 1.01027 0.04852 0.0
C5202 C 0.31655 1.00243 0.0448 0.0
H5203 H 0.19823 0.05901 1.03805 0.0
H5204 H 0.23483 1.03876 0.04624 0.0
H5205 H 0.2829 1.00106 1.02111 0.0
H5206 H 0.38575 0.05604 0.04244 0.0
H5207 H 0.34857 1.03586 1.03482 0.0
C5208 C 0.7858 0.97185 0.76316 0.0
C5209 C 0.7855 0.9468 0.76724 0.0
C5210 C 0.77346 0.99135 0.76878 0.0
C5211 C 0.76736 1.00907 0.79611 0.0
H5212 H 0.72725 0.06603 0.78574 0.0
C5213 C 0.77355 0.10158 0.8194 0.0
C5214 C 0.77519 0.12392 0.81306 0.0
C5215 C 0.76377 0.07918 0.81501 0.0
C5216 C 0.73869 0.05044 0.78877 0.0
H5217 H 0.76936 0.92235 0.7798 0.0
H5218 H 0.74916 0.95682 0.78994 0.0
H5219 H 0.73008 1.02744 0.77477 0.0
H5220 H 0.76403 0.14035 0.79744 0.0
H5221 H 0.75024 0.10102 0.78944 0.0
H5222 H 0.7786 1.03218 0.80939 0.0
C5223 C 0.75883 0.96112 0.78233 0.0
C5224 C 0.73996 1.02822 0.78253 0.0
C5225 C 0.77069 0.94149 0.77658 0.0
C5226 C 0.76456 0.12347 0.80249 0.0
C5227 C 0.75588 0.10074 0.79793 0.0
C5228 C 0.76675 1.0314 0.80218 0.0
C5229 C 0.76092 0.98631 0.77867 0.0
C5230 C 0.75481 1.00762 0.78605 0.0
C5231 C 0.75649 0.07793 0.80397 0.0
C5232 C 0.75303 0.05279 0.79847 0.0
H5233 H 0.79716 0.97693 0.75609 0.0
H5234 H 0.7756 1.01071 0.76588 0.0
H5235 H 0.7793 0.99356 0.79891 0.0
H5236 H 0.7812 0.10053 0.82758 0.0
H5237 H 0.76334 0.06248 0.82019 0.0
C5238 C 0.7092 1.00953 0.56065 0.0
C5239 C 0.69719 1.03058 0.55577 0.0
C5240 C 0.72984 0.99765 0.55549 0.0
C5241 C 0.76797 0.99771 0.52951 0.0
H5242 H 0.82549 0.99488 0.54929 0.0
C5243 C 0.86945 1.01167 0.51329 0.0
C5244 C 0.88198 1.03126 0.51894 0.0
C5245 C 0.84816 0.99959 0.51789 0.0
C5246 C 0.80961 0.99529 0.54364 0.0
H5247 H 0.69684 0.05487 0.5414 0.0
H5248 H 0.7324 1.03451 0.53254 0.0
H5249 H 0.7825 0.99565 0.55665 0.0
H5250 H 0.88232 0.05276 0.53407 0.0
H5251 H 0.84586 1.03193 0.54198 0.0
H5252 H 0.79519 1.00004 0.51655 0.0
C5253 C 0.72576 1.02665 0.54021 0.0
C5254 C 0.78488 0.99542 0.54787 0.0
C5255 C 0.70526 1.03846 0.54534 0.0
C5256 C 0.87362 1.03743 0.52953 0.0
C5257 C 0.85256 1.02537 0.53411 0.0
C5258 C 0.79273 0.99788 0.52529 0.0
C5259 C 0.73886 1.00662 0.54536 0.0
C5260 C 0.76383 0.99826 0.54087 0.0
C5261 C 0.83908 1.00683 0.52824 0.0
C5262 C 0.81381 0.99831 0.53236 0.0
H5263 H 0.70318 1.00273 0.56861 0.0
H5264 H 0.73931 0.98207 0.55962 0.0
H5265 H 0.75212 0.99916 0.52388 0.0
H5266 H 0.87561 1.00616 0.50519 0.0
H5267 H 0.83832 0.98522 0.5132 0.0
C5268 C 0.81782 0.96034 0.30309 0.0
C5269 C 0.80645 0.96043 0.31354 0.0
C5270 C 0.82978 0.98207 0.29895 0.0
C5271 C 0.82693 0.05168 0.30402 0.0
H5272 H 0.86407 0.05319 0.27664 0.0
C5273 C 0.82531 0.14088 0.27822 0.0
C5274 C 0.81094 0.13541 0.2688 0.0
C5275 C 0.83731 0.12138 0.28404 0.0
C5276 C 0.85416 0.05311 0.28441 0.0
H5277 H 0.80279 0.98329 0.32833 0.0
H5278 H 0.8261 1.01905 0.32167 0.0
H5279 H 0.86316 1.01413 0.28745 0.0
H5280 H 0.8004 0.10519 0.25758 0.0
H5281 H 0.822 0.07176 0.26749 0.0
H5282 H 0.81777 0.09052 0.30088 0.0
C5283 C 0.82377 1.00301 0.31626 0.0
C5284 C 0.85327 1.03064 0.29056 0.0
C5285 C 0.81072 0.98181 0.32022 0.0
C5286 C 0.81139 0.11043 0.2647 0.0
C5287 C 0.82382 0.09109 0.2704 0.0
C5288 C 0.82845 0.07419 0.29805 0.0
C5289 C 0.8318 1.00423 0.30531 0.0
C5290 C 0.83846 1.02921 0.30017 0.0
C5291 C 0.8357 0.09616 0.28041 0.0
C5292 C 0.84098 0.07479 0.28794 0.0
H5293 H 0.81651 0.94398 0.29781 0.0
H5294 H 0.83589 0.98177 0.29051 0.0
H5295 H 0.81493 0.05174 0.3112 0.0
H5296 H 0.82607 0.15998 0.28146 0.0
H5297 H 0.84651 0.12574 0.29173 0.0
C5298 C 0.87591 0.05934 0.06123 0.0
C5299 C 0.88782 1.0383 0.05634 0.0
C5300 C 0.85485 0.07089 0.05627 0.0
C5301 C 0.81571 0.07097 1.0307 0.0
H5302 H 0.75887 0.07404 0.05091 0.0
C5303 C 0.71323 0.06259 1.01506 0.0
C5304 C 0.69998 0.04301 1.02047 0.0
C5305 C 0.73519 0.07315 1.01968 0.0
C5306 C 0.77456 0.07357 0.04515 0.0
H5307 H 0.8876 1.0137 0.04214 0.0
H5308 H 0.8512 1.03357 1.03358 0.0
H5309 H 0.80211 0.07211 0.05796 0.0
H5310 H 0.69896 1.01999 1.03523 0.0
H5311 H 0.73674 1.03826 0.04321 0.0
H5312 H 0.78803 0.06998 1.01793 0.0
C5313 C 0.85825 0.04159 0.04113 0.0
C5314 C 0.79942 0.07275 0.04919 0.0
C5315 C 0.87919 1.03008 0.04608 0.0
C5316 C 0.70832 1.03533 1.03088 0.0
C5317 C 0.73009 0.0459 1.0355 0.0
C5318 C 0.79083 0.07158 1.02666 0.0
C5319 C 0.84533 0.06163 0.04631 0.0
C5320 C 0.82019 0.06998 0.04202 0.0
C5321 C 0.74424 0.06439 1.02983 0.0
C5322 C 0.76996 0.07142 1.03388 0.0
H5323 H 0.88239 0.0664 0.06905 0.0
H5324 H 0.8455 0.08649 0.0604 0.0
H5325 H 0.83135 0.06946 1.02496 0.0
H5326 H 0.70707 0.06924 1.00711 0.0
H5327 H 0.74554 0.08755 1.01516 0.0
C5328 C 0.81482 0.62113 0.80315 0.0
C5329 C 0.80413 0.62129 0.81372 0.0
C5330 C 0.82453 0.59873 0.79865 0.0
C5331 C 0.81659 0.52912 0.80303 0.0
H5332 H 0.85417 0.52638 0.77578 0.0
C5333 C 0.81375 0.43983 0.77726 0.0
C5334 C 0.79974 0.44542 0.76774 0.0
C5335 C 0.82557 0.45925 0.78314 0.0
C5336 C 0.84407 0.52681 0.7835 0.0
H5337 H 0.79886 0.59769 0.82826 0.0
H5338 H 0.81842 0.56045 0.82098 0.0
H5339 H 0.85523 0.5651 0.78673 0.0
H5340 H 0.7895 0.47578 0.75646 0.0
H5341 H 0.81086 0.50911 0.76649 0.0
H5342 H 0.80542 0.4909 0.79974 0.0
C5343 C 0.81735 0.57705 0.81577 0.0
C5344 C 0.84433 0.54909 0.78973 0.0
C5345 C 0.80655 0.59904 0.82009 0.0
C5346 C 0.80023 0.47047 0.76365 0.0
C5347 C 0.8125 0.48973 0.76942 0.0
C5348 C 0.81696 0.50676 0.79699 0.0
C5349 C 0.82488 0.57601 0.80475 0.0
C5350 C 0.82958 0.55098 0.79934 0.0
C5351 C 0.82416 0.4845 0.77947 0.0
C5352 C 0.82978 0.50573 0.78696 0.0
H5353 H 0.81477 0.63796 0.79806 0.0
H5354 H 0.83029 0.59912 0.79016 0.0
H5355 H 0.8045 0.52951 0.81019 0.0
H5356 H 0.81446 0.42068 0.78049 0.0
H5357 H 0.83458 0.45478 0.79087 0.0
C5358 C 0.87471 0.56417 1.01676 0.0
C5359 C 0.88669 0.54364 1.02205 0.0
C5360 C 0.85327 0.57574 1.0214 0.0
C5361 C 0.81282 0.57681 0.04664 0.0
H5362 H 0.75704 0.57844 1.02592 0.0
C5363 C 0.70976 0.56923 0.06165 0.0
C5364 C 0.69661 0.54945 0.05639 0.0
C5365 C 0.73189 0.57951 0.05702 0.0
C5366 C 0.77242 0.57834 1.03182 0.0
H5367 H 0.88618 0.52001 1.03661 0.0
H5368 H 0.84912 0.5399 0.04461 0.0
H5369 H 0.80065 0.57626 1.01927 0.0
H5370 H 0.69584 0.52592 0.04186 0.0
H5371 H 0.73398 0.54367 1.03386 0.0
H5372 H 0.7845 0.57646 0.05918 0.0
C5373 C 0.85639 0.54752 1.03699 0.0
C5374 C 0.7975 0.5774 1.028 0.0
C5375 C 0.87773 0.53601 1.03237 0.0
C5376 C 0.70515 0.54139 0.04608 0.0
C5377 C 0.72714 0.55166 0.04146 0.0
C5378 C 0.78774 0.57753 0.05045 0.0
C5379 C 0.8434 0.56699 1.03141 0.0
C5380 C 0.81791 0.57522 1.03538 0.0
C5381 C 0.74126 0.57025 0.04702 0.0
C5382 C 0.76723 0.57689 0.04308 0.0
H5383 H 0.88142 0.57077 1.00887 0.0
H5384 H 0.8439 0.59091 1.01696 0.0
H5385 H 0.82817 0.57577 0.05253 0.0
H5386 H 0.70344 0.57616 0.06952 0.0
H5387 H 0.74216 0.59405 0.06144 0.0
C5388 C 0.774 0.45277 0.30112 0.0
C5389 C 0.78405 0.45294 0.3118 0.0
C5390 C 0.76371 0.47483 0.29649 0.0
C5391 C 0.76805 0.54476 0.30086 0.0
H5392 H 0.73088 0.5462 0.27352 0.0
C5393 C 0.76387 0.63548 0.27566 0.0
C5394 C 0.77856 0.63171 0.26616 0.0
C5395 C 0.75383 0.61474 0.28139 0.0
C5396 C 0.74086 0.54609 0.28127 0.0
H5397 H 0.78765 0.4767 0.32632 0.0
H5398 H 0.76708 0.51318 0.3188 0.0
H5399 H 0.73196 0.50709 0.28432 0.0
H5400 H 0.79199 0.603 0.25476 0.0
H5401 H 0.77362 0.5673 0.26451 0.0
H5402 H 0.77686 0.58372 0.29776 0.0
C5403 C 0.7691 0.49666 0.31363 0.0
C5404 C 0.74184 0.52361 0.28741 0.0
C5405 C 0.78048 0.47508 0.31809 0.0
C5406 C 0.78061 0.60692 0.26194 0.0
C5407 C 0.77009 0.5863 0.26755 0.0
C5408 C 0.76642 0.56727 0.29491 0.0
C5409 C 0.76209 0.49747 0.30255 0.0
C5410 C 0.75639 0.5223 0.29708 0.0
C5411 C 0.75769 0.58993 0.27757 0.0
C5412 C 0.75367 0.5679 0.28487 0.0
H5413 H 0.77497 0.43599 0.29607 0.0
H5414 H 0.75841 0.47426 0.28796 0.0
H5415 H 0.77998 0.54483 0.30806 0.0
H5416 H 0.76122 0.65431 0.279 0.0
H5417 H 0.74422 0.61796 0.2891 0.0
C5418 C 0.71331 0.50859 0.51657 0.0
C5419 C 0.70137 0.52872 0.52212 0.0
C5420 C 0.73471 0.49659 0.52105 0.0
C5421 C 0.77563 0.49438 0.54613 0.0
H5422 H 0.831 0.49819 0.52522 0.0
C5423 C 0.87665 0.5133 0.56103 0.0
C5424 C 0.88714 0.53461 0.55571 0.0
C5425 C 0.85628 0.50006 0.55636 0.0
C5426 C 0.81577 0.49672 0.53116 0.0
H5427 H 0.70183 0.55097 0.53703 0.0
H5428 H 0.73864 0.53031 0.54475 0.0
H5429 H 0.78727 0.49747 0.51874 0.0
H5430 H 0.88536 0.55775 0.54103 0.0
H5431 H 0.85016 0.53504 0.53299 0.0
H5432 H 0.80398 0.49641 0.55858 0.0
C5433 C 0.73142 0.52333 0.53704 0.0
C5434 C 0.79063 0.49598 0.52744 0.0
C5435 C 0.71019 0.53531 0.53257 0.0
C5436 C 0.87803 0.54125 0.5453 0.0
C5437 C 0.85777 0.52808 0.54065 0.0
C5438 C 0.80074 0.49542 0.54985 0.0
C5439 C 0.74452 0.50446 0.53118 0.0
C5440 C 0.77026 0.4965 0.53491 0.0
C5441 C 0.84603 0.50789 0.54628 0.0
C5442 C 0.82098 0.49829 0.54241 0.0
H5443 H 0.70669 0.50272 0.50859 0.0
H5444 H 0.7442 0.48191 0.51639 0.0
H5445 H 0.76034 0.49407 0.55209 0.0
H5446 H 0.88358 0.50742 0.56897 0.0
H5447 H 0.84789 0.48438 0.56084 0.0
C5448 C 0.26435 0.63653 0.30026 0.0
C5449 C 0.27865 0.63236 0.30984 0.0
C5450 C 0.25359 0.6161 0.29463 0.0
C5451 C 0.23782 0.54796 0.29532 0.0
H5452 H 0.27685 0.54434 0.26851 0.0
C5453 C 0.26934 0.45304 0.27684 0.0
C5454 C 0.27963 0.45238 0.2662 0.0
C5455 C 0.25916 0.47549 0.28109 0.0
C5456 C 0.26493 0.54495 0.27572 0.0
H5457 H 0.2907 0.60331 0.32143 0.0
H5458 H 0.27107 0.56824 0.31186 0.0
H5459 H 0.27497 0.58375 0.27841 0.0
H5460 H 0.28364 0.47502 0.2513 0.0
H5461 H 0.26331 0.51224 0.25821 0.0
H5462 H 0.22778 0.50911 0.29271 0.0
C5463 C 0.2684 0.5873 0.3087 0.0
C5464 C 0.26401 0.56776 0.28144 0.0
C5465 C 0.27964 0.60757 0.3142 0.0
C5466 C 0.2763 0.47406 0.25954 0.0
C5467 C 0.26505 0.49606 0.26363 0.0
C5468 C 0.23812 0.5252 0.28943 0.0
C5469 C 0.25631 0.59123 0.29863 0.0
C5470 C 0.25136 0.56919 0.2915 0.0
C5471 C 0.25792 0.49773 0.27468 0.0
C5472 C 0.25268 0.52301 0.27978 0.0
H5473 H 0.26251 0.65539 0.29681 0.0
H5474 H 0.24426 0.61956 0.28688 0.0
H5475 H 0.22788 0.5487 0.30308 0.0
H5476 H 0.27014 0.43662 0.28215 0.0
H5477 H 0.25374 0.47559 0.28962 0.0
C5478 C 0.37109 0.51607 1.01608 0.0
C5479 C 0.38273 0.53676 1.02135 0.0
C5480 C 0.35026 0.5037 1.02088 0.0
C5481 C 0.31103 0.50097 0.04645 0.0
H5482 H 0.25424 0.50137 1.02624 0.0
C5483 C 0.20952 0.51374 0.0624 0.0
C5484 C 0.1975 0.53439 0.05721 0.0
C5485 C 0.2306 0.50194 0.05757 0.0
C5486 C 0.2699 0.50083 1.032 0.0
H5487 H 0.38231 0.55977 1.03604 0.0
H5488 H 0.34641 0.53846 0.04431 0.0
H5489 H 0.29754 0.50265 1.0192 0.0
H5490 H 0.19756 0.55797 0.04262 0.0
H5491 H 0.23388 0.53764 1.03429 0.0
H5492 H 0.28336 0.50182 0.05925 0.0
C5493 C 0.35347 0.53134 1.03658 0.0
C5494 C 0.2948 0.50126 1.02796 0.0
C5495 C 0.37415 0.54369 1.0318 0.0
C5496 C 0.206 0.54188 0.0468 0.0
C5497 C 0.22692 0.5301 0.04198 0.0
C5498 C 0.28613 0.50079 0.05049 0.0
C5499 C 0.34073 0.51175 1.03104 0.0
C5500 C 0.31557 0.50296 1.03516 0.0
C5501 C 0.24001 0.51054 0.04744 0.0
C5502 C 0.26532 0.50236 0.0433 0.0
H5503 H 0.37756 0.50997 1.00811 0.0
H5504 H 0.34103 0.48849 1.01645 0.0
H5505 H 0.32668 0.50159 0.05221 0.0
H5506 H 0.20314 0.50721 0.07034 0.0
H5507 H 0.24011 0.48673 0.06193 0.0
C5508 C 0.31345 0.60482 0.76557 0.0
C5509 C 0.31394 0.6298 0.76966 0.0
C5510 C 0.325 0.585 0.77132 0.0
C5511 C 0.32872 0.56776 0.79895 0.0
H5512 H 0.36383 0.50752 0.7888 0.0
C5513 C 0.31137 0.47595 0.82173 0.0
C5514 C 0.30747 0.45429 0.81518 0.0
C5515 C 0.32421 0.49716 0.81764 0.0
C5516 C 0.3538 0.52407 0.79178 0.0
H5517 H 0.32985 0.65379 0.78235 0.0
H5518 H 0.34876 0.61881 0.7927 0.0
H5519 H 0.36484 0.54628 0.77779 0.0
H5520 H 0.31806 0.43726 0.79964 0.0
H5521 H 0.33721 0.47494 0.79212 0.0
H5522 H 0.31502 0.54565 0.81218 0.0
C5523 C 0.3395 0.61478 0.78499 0.0
C5524 C 0.35473 0.54636 0.78551 0.0
C5525 C 0.32838 0.63472 0.77912 0.0
C5526 C 0.31913 0.45386 0.8048 0.0
C5527 C 0.33091 0.47555 0.80053 0.0
C5528 C 0.32715 0.54542 0.80504 0.0
C5529 C 0.33695 0.58964 0.78136 0.0
C5530 C 0.34154 0.56814 0.78891 0.0
C5531 C 0.33245 0.49803 0.80671 0.0
C5532 C 0.33888 0.52288 0.80137 0.0
H5533 H 0.30238 0.60005 0.75841 0.0
H5534 H 0.32251 0.56574 0.76842 0.0
H5535 H 0.31804 0.58419 0.80168 0.0
H5536 H 0.30319 0.47758 0.82979 0.0
H5537 H 0.3262 0.51346 0.82294 0.0
C5538 C 0.20667 0.53499 0.53212 0.0
C5539 C 0.19885 0.54368 0.52178 0.0
C5540 C 0.22857 0.54461 0.53701 0.0
C5541 C 0.29021 0.57022 0.52906 0.0
H5542 H 0.30002 0.56914 0.56045 0.0
C5543 C 0.37946 0.5307 0.54878 0.0
C5544 C 0.38768 0.53906 0.55909 0.0
C5545 C 0.35802 0.54131 0.54386 0.0
C5546 C 0.29772 0.57019 0.55167 0.0
H5547 H 0.20714 0.57064 0.50881 0.0
H5548 H 0.24578 0.58733 0.51735 0.0
H5549 H 0.25708 0.57097 0.55304 0.0
H5550 H 0.38062 0.56633 0.57199 0.0
H5551 H 0.34285 0.58486 0.56337 0.0
H5552 H 0.33084 0.56876 0.5277 0.0
C5553 C 0.23492 0.57286 0.52161 0.0
C5554 C 0.27304 0.57093 0.54742 0.0
C5555 C 0.21285 0.56324 0.51671 0.0
C5556 C 0.37457 0.55921 0.56411 0.0
C5557 C 0.35299 0.56986 0.55917 0.0
C5558 C 0.3149 0.56967 0.53332 0.0
C5559 C 0.24338 0.56315 0.53169 0.0
C5560 C 0.26899 0.56953 0.53608 0.0
C5561 C 0.34411 0.56057 0.5491 0.0
C5562 C 0.31887 0.56822 0.54467 0.0
H5563 H 0.19674 0.51961 0.5362 0.0
H5564 H 0.23474 0.53626 0.54466 0.0
H5565 H 0.28785 0.56917 0.52029 0.0
H5566 H 0.38871 0.5149 0.54474 0.0
H5567 H 0.35149 0.53324 0.53623 0.0
loop_
_geom_bond_atom_site_label_1
_geom_bond_atom_site_label_2
_geom_bond_distance
_geom_bond_site_symmetry_2
_ccdc_geom_bond_type
Eu0 N29 2.600 . S
Eu0 N35 2.562 . S
Eu0 O44 2.462 . S
Eu0 O45 2.373 . S
Eu0 O47 2.432 . S
Eu0 O48 2.291 . S
Eu0 O52 2.335 . S
Eu0 O55 2.372 . S
Eu0 C64 2.787 . S
C1 N2 1.365 . S
C1 C4 1.405 . S
C1 C8 1.448 . S
N2 C1 1.365 . S
N2 C5 1.319 . S
N2 Eu11 2.600 . S
C3 C5 1.397 . S
C3 C6 1.367 . S
C3 H23 0.931 . S
C4 C1 1.405 . S
C4 C6 1.403 . S
C4 C10 1.439 . S
C5 N2 1.319 . S
C5 C3 1.397 . S
C5 H16 0.930 . S
C6 C3 1.367 . S
C6 C4 1.403 . S
C6 H27 0.929 . S
C7 C8 1.430 . S
C7 C9 1.387 . S
C7 C13 1.404 . S
C8 C1 1.448 . S
C8 C7 1.430 . S
C8 N12 1.351 . S
C9 C7 1.387 . S
C9 C10 1.374 . S
C9 H24 0.931 . S
C10 C4 1.439 . S
C10 C9 1.374 . S
C10 H25 0.931 . S
Eu11 N2 2.600 . S
Eu11 N12 2.562 . S
Eu11 O46 2.335 . S
Eu11 O49 2.372 . S
Eu11 O50 2.462 . S
Eu11 O51 2.373 . S
Eu11 O53 2.432 . S
Eu11 O54 2.291 . S
Eu11 C75 2.787 . S
N12 C8 1.351 . S
N12 Eu11 2.562 . S
N12 C14 1.325 . S
C13 C7 1.404 . S
C13 C15 1.366 . S
C13 H21 0.930 . S
C14 N12 1.325 . S
C14 C15 1.416 . S
C14 H20 0.929 . S
C15 C13 1.366 . S
C15 C14 1.416 . S
C15 H17 0.930 . S
H16 C5 0.930 . S
H17 C15 0.930 . S
H18 C33 0.930 . S
H19 C40 0.930 . S
H20 C14 0.929 . S
H21 C13 0.930 . S
H22 C36 0.929 . S
H23 C3 0.931 . S
H24 C9 0.931 . S
H25 C10 0.931 . S
H26 C31 0.931 . S
H27 C6 0.929 . S
H28 C39 0.930 . S
N29 Eu0 2.600 . S
N29 C30 1.365 . S
N29 C33 1.319 . S
C30 N29 1.365 . S
C30 C32 1.405 . S
C30 C38 1.448 . S
C31 H26 0.931 . S
C31 C33 1.397 . S
C31 C34 1.367 . S
C32 C30 1.405 . S
C32 C34 1.403 . S
C32 C65 1.439 . S
C33 H18 0.930 . S
C33 N29 1.319 . S
C33 C31 1.397 . S
C34 C31 1.367 . S
C34 C32 1.403 . S
C34 H41 0.929 . S
N35 Eu0 2.562 . S
N35 C36 1.325 . S
N35 C38 1.351 . S
C36 H22 0.929 . S
C36 N35 1.325 . S
C36 C40 1.416 . S
C37 C38 1.430 . S
C37 C39 1.404 . S
C37 C66 1.387 . S
C38 C30 1.448 . S
C38 N35 1.351 . S
C38 C37 1.430 . S
C39 H28 0.930 . S
C39 C37 1.404 . S
C39 C40 1.366 . S
C40 H19 0.930 . S
C40 C36 1.416 . S
C40 C39 1.366 . S
H41 C34 0.929 . S
H42 C65 0.931 . S
H43 C66 0.931 . S
O44 Eu0 2.462 . S
O44 C64 1.252 . S
O45 Eu0 2.373 . S
O45 C56 1.249 . S
O46 Eu11 2.335 . S
O46 C56 1.264 . S
O47 Eu0 2.432 . S
O47 C64 1.268 . S
O48 Eu0 2.291 . S
O48 C63 1.255 . S
O49 Eu11 2.372 . S
O49 C63 1.257 . S
O50 Eu11 2.462 . S
O50 C75 1.252 . S
O51 Eu11 2.373 . S
O51 C67 1.249 . S
O52 Eu0 2.335 . S
O52 C67 1.264 . S
O53 Eu11 2.432 . S
O53 C75 1.268 . S
O54 Eu11 2.291 . S
O54 C74 1.255 . S
O55 Eu0 2.372 . S
O55 C74 1.257 . S
C56 O45 1.249 . S
C56 O46 1.264 . S
C57 C60 1.382 . S
C57 C62 1.390 . S
C57 C64 1.506 . S
C58 C59 1.398 . S
C58 C62 1.392 . S
C59 C58 1.398 . S
C59 C61 1.372 . S
C59 H76 0.931 . S
C60 C57 1.382 . S
C60 C61 1.390 . S
C60 H77 0.931 . S
C61 C59 1.372 . S
C61 C60 1.390 . S
C61 H78 0.929 . S
C62 C57 1.390 . S
C62 C58 1.392 . S
C62 H79 0.930 . S
C63 O48 1.255 . S
C63 O49 1.257 . S
C64 Eu0 2.787 . S
C64 O44 1.252 . S
C64 O47 1.268 . S
C64 C57 1.506 . S
C65 C32 1.439 . S
C65 H42 0.931 . S
C65 C66 1.374 . S
C66 C37 1.387 . S
C66 H43 0.931 . S
C66 C65 1.374 . S
C67 O51 1.249 . S
C67 O52 1.264 . S
C68 C71 1.382 . S
C68 C72 1.390 . S
C68 C75 1.506 . S
C69 C70 1.398 . S
C69 C72 1.392 . S
C70 C69 1.398 . S
C70 C73 1.372 . S
C70 H80 0.931 . S
C71 C68 1.382 . S
C71 C73 1.390 . S
C71 H81 0.931 . S
C72 C68 1.390 . S
C72 C69 1.392 . S
C72 H82 0.930 . S
C73 C70 1.372 . S
C73 C71 1.390 . S
C73 H83 0.929 . S
C74 O54 1.255 . S
C74 O55 1.257 . S
C75 Eu11 2.787 . S
C75 O50 1.252 . S
C75 O53 1.268 . S
C75 C68 1.506 . S
H76 C59 0.931 . S
H77 C60 0.931 . S
H78 C61 0.929 . S
H79 C62 0.930 . S
H80 C70 0.931 . S
H81 C71 0.931 . S
H82 C72 0.930 . S
H83 C73 0.929 . S
Eu84 N113 2.600 . S
Eu84 N119 2.562 . S
Eu84 O128 2.462 . S
Eu84 O129 2.373 . S
Eu84 O131 2.432 . S
Eu84 O132 2.291 . S
Eu84 O136 2.335 . S
Eu84 O139 2.372 . S
Eu84 C148 2.787 . S
C85 N86 1.376 1_655 S
C85 C88 1.366 1_565 S
C85 C92 1.478 . S
N86 C85 1.376 1_455 S
N86 C89 1.319 1_565 S
N86 Eu95 2.600 . S
C87 C89 1.397 . S
C87 C90 1.367 . S
C87 H107 0.931 . S
C88 C85 1.366 1_545 S
C88 C90 1.403 1_655 S
C88 C94 1.439 . S
C89 N86 1.319 1_545 S
C89 C87 1.397 . S
C89 H100 0.930 . S
C90 C87 1.367 . S
C90 C88 1.403 1_455 S
C90 H111 0.929 1_455 S
C91 C92 1.430 . S
C91 C93 1.387 1_565 S
C91 C97 1.404 . S
C92 C85 1.478 . S
C92 C91 1.430 . S
C92 N96 1.351 . S
C93 C91 1.387 1_545 S
C93 C94 1.374 . S
C93 H108 0.931 . S
C94 C88 1.439 . S
C94 C93 1.374 . S
C94 H109 0.931 . S
Eu95 N86 2.600 . S
Eu95 N96 2.562 1_455 S
Eu95 O130 2.335 . S
Eu95 O133 2.372 . S
Eu95 O134 2.462 . S
Eu95 O135 2.373 . S
Eu95 O137 2.432 . S
Eu95 O138 2.291 . S
Eu95 C159 2.787 . S
N96 C92 1.351 . S
N96 Eu95 2.562 1_655 S
N96 C98 1.325 . S
C97 C91 1.404 . S
C97 C99 1.366 . S
C97 H105 0.930 . S
C98 N96 1.325 . S
C98 C99 1.416 . S
C98 H104 0.929 . S
C99 C97 1.366 . S
C99 C98 1.416 . S
C99 H101 0.930 . S
H100 C89 0.930 . S
H101 C99 0.930 . S
H102 C117 0.930 . S
H103 C124 0.930 . S
H104 C98 0.929 . S
H105 C97 0.930 . S
H106 C120 0.929 . S
H107 C87 0.931 . S
H108 C93 0.931 . S
H109 C94 0.931 . S
H110 C115 0.931 . S
H111 C90 0.929 1_655 S
H112 C123 0.930 . S
N113 Eu84 2.600 . S
N113 C114 1.365 . S
N113 C117 1.319 . S
C114 N113 1.365 . S
C114 C116 1.405 . S
C114 C122 1.448 . S
C115 H110 0.931 . S
C115 C117 1.397 . S
C115 C118 1.367 . S
C116 C114 1.405 . S
C116 C118 1.403 . S
C116 C149 1.439 . S
C117 H102 0.930 . S
C117 N113 1.319 . S
C117 C115 1.397 . S
C118 C115 1.367 . S
C118 C116 1.403 . S
C118 H125 0.929 . S
N119 Eu84 2.562 . S
N119 C120 1.325 . S
N119 C122 1.351 . S
C120 H106 0.929 . S
C120 N119 1.325 . S
C120 C124 1.416 . S
C121 C122 1.430 . S
C121 C123 1.404 . S
C121 C150 1.387 . S
C122 C114 1.448 . S
C122 N119 1.351 . S
C122 C121 1.430 . S
C123 H112 0.930 . S
C123 C121 1.404 . S
C123 C124 1.366 . S
C124 H103 0.930 . S
C124 C120 1.416 . S
C124 C123 1.366 . S
H125 C118 0.929 . S
H126 C149 0.931 . S
H127 C150 0.931 . S
O128 Eu84 2.462 . S
O128 C148 1.252 . S
O129 Eu84 2.373 . S
O129 C140 1.249 . S
O130 Eu95 2.335 . S
O130 C140 1.264 . S
O131 Eu84 2.432 . S
O131 C148 1.268 . S
O132 Eu84 2.291 . S
O132 C147 1.255 . S
O133 Eu95 2.372 . S
O133 C147 1.257 . S
O134 Eu95 2.462 . S
O134 C159 1.252 . S
O135 Eu95 2.373 . S
O135 C151 1.249 . S
O136 Eu84 2.335 . S
O136 C151 1.264 . S
O137 Eu95 2.432 . S
O137 C159 1.268 . S
O138 Eu95 2.291 . S
O138 C158 1.255 . S
O139 Eu84 2.372 . S
O139 C158 1.257 . S
C140 O129 1.249 . S
C140 O130 1.264 . S
C141 C144 1.382 . S
C141 C146 1.390 . S
C141 C148 1.506 . S
C142 C143 1.398 . S
C142 C146 1.392 . S
C143 C142 1.398 . S
C143 C145 1.372 . S
C143 H160 0.931 . S
C144 C141 1.382 . S
C144 C145 1.390 . S
C144 H161 0.931 . S
C145 C143 1.372 . S
C145 C144 1.390 . S
C145 H162 0.929 . S
C146 C141 1.390 . S
C146 C142 1.392 . S
C146 H163 0.930 . S
C147 O132 1.255 . S
C147 O133 1.257 . S
C148 Eu84 2.787 . S
C148 O128 1.252 . S
C148 O131 1.268 . S
C148 C141 1.506 . S
C149 C116 1.439 . S
C149 H126 0.931 . S
C149 C150 1.374 . S
C150 C121 1.387 . S
C150 H127 0.931 . S
C150 C149 1.374 . S
C151 O135 1.249 . S
C151 O136 1.264 . S
C152 C155 1.382 . S
C152 C156 1.390 . S
C152 C159 1.506 1_655 S
C153 C154 1.398 . S
C153 C156 1.392 . S
C154 C153 1.398 . S
C154 C157 1.372 . S
C154 H164 0.931 . S
C155 C152 1.382 . S
C155 C157 1.390 . S
C155 H165 0.931 . S
C156 C152 1.390 . S
C156 C153 1.392 . S
C156 H166 0.930 . S
C157 C154 1.372 . S
C157 C155 1.390 . S
C157 H167 0.929 . S
C158 O138 1.255 . S
C158 O139 1.257 . S
C159 Eu95 2.787 . S
C159 O134 1.252 . S
C159 O137 1.268 . S
C159 C152 1.506 1_455 S
H160 C143 0.931 . S
H161 C144 0.931 . S
H162 C145 0.929 . S
H163 C146 0.930 . S
H164 C154 0.931 . S
H165 C155 0.931 . S
H166 C156 0.930 . S
H167 C157 0.929 . S
Eu168 N197 2.600 . S
Eu168 N203 2.562 . S
Eu168 O212 2.462 . S
Eu168 O213 2.373 . S
Eu168 O215 2.432 . S
Eu168 O216 2.291 . S
Eu168 O220 2.335 . S
Eu168 O223 2.372 . S
Eu168 C232 2.787 . S
C169 N170 1.365 . S
C169 C172 1.405 . S
C169 C176 1.448 . S
N170 C169 1.365 . S
N170 C173 1.319 . S
N170 Eu179 2.600 . S
C171 C173 1.397 . S
C171 C174 1.367 . S
C171 H191 0.931 . S
C172 C169 1.405 . S
C172 C174 1.403 . S
C172 C178 1.439 . S
C173 N170 1.319 . S
C173 C171 1.397 . S
C173 H184 0.930 . S
C174 C171 1.367 . S
C174 C172 1.403 . S
C174 H195 0.929 . S
C175 C176 1.430 . S
C175 C177 1.387 . S
C175 C181 1.404 . S
C176 C169 1.448 . S
C176 C175 1.430 . S
C176 N180 1.351 . S
C177 C175 1.387 . S
C177 C178 1.374 . S
C177 H192 0.931 . S
C178 C172 1.439 . S
C178 C177 1.374 . S
C178 H193 0.931 . S
Eu179 N170 2.600 . S
Eu179 N180 2.562 . S
Eu179 O214 2.335 . S
Eu179 O217 2.372 . S
Eu179 O218 2.462 . S
Eu179 O219 2.373 . S
Eu179 O221 2.432 . S
Eu179 O222 2.291 . S
Eu179 C243 2.787 . S
N180 C176 1.351 . S
N180 Eu179 2.562 . S
N180 C182 1.325 . S
C181 C175 1.404 . S
C181 C183 1.366 . S
C181 H189 0.930 . S
C182 N180 1.325 . S
C182 C183 1.416 . S
C182 H188 0.929 . S
C183 C181 1.366 . S
C183 C182 1.416 . S
C183 H185 0.930 . S
H184 C173 0.930 . S
H185 C183 0.930 . S
H186 C201 0.930 . S
H187 C208 0.930 . S
H188 C182 0.929 . S
H189 C181 0.930 . S
H190 C204 0.929 . S
H191 C171 0.931 . S
H192 C177 0.931 . S
H193 C178 0.931 . S
H194 C199 0.931 . S
H195 C174 0.929 . S
H196 C207 0.930 . S
N197 Eu168 2.600 . S
N197 C198 1.365 . S
N197 C201 1.319 . S
C198 N197 1.365 . S
C198 C200 1.405 . S
C198 C206 1.448 . S
C199 H194 0.931 . S
C199 C201 1.397 . S
C199 C202 1.367 . S
C200 C198 1.405 . S
C200 C202 1.403 . S
C200 C233 1.439 . S
C201 H186 0.930 . S
C201 N197 1.319 . S
C201 C199 1.397 . S
C202 C199 1.367 . S
C202 C200 1.403 . S
C202 H209 0.929 . S
N203 Eu168 2.562 . S
N203 C204 1.325 . S
N203 C206 1.351 . S
C204 H190 0.929 . S
C204 N203 1.325 . S
C204 C208 1.416 . S
C205 C206 1.430 . S
C205 C207 1.404 . S
C205 C234 1.387 . S
C206 C198 1.448 . S
C206 N203 1.351 . S
C206 C205 1.430 . S
C207 H196 0.930 . S
C207 C205 1.404 . S
C207 C208 1.366 . S
C208 H187 0.930 . S
C208 C204 1.416 . S
C208 C207 1.366 . S
H209 C202 0.929 . S
H210 C233 0.931 . S
H211 C234 0.931 . S
O212 Eu168 2.462 . S
O212 C232 1.252 . S
O213 Eu168 2.373 . S
O213 C224 1.249 . S
O214 Eu179 2.335 . S
O214 C224 1.264 . S
O215 Eu168 2.432 . S
O215 C232 1.268 . S
O216 Eu168 2.291 . S
O216 C231 1.255 . S
O217 Eu179 2.372 . S
O217 C231 1.257 . S
O218 Eu179 2.462 . S
O218 C243 1.252 . S
O219 Eu179 2.373 . S
O219 C235 1.249 . S
O220 Eu168 2.335 . S
O220 C235 1.264 . S
O221 Eu179 2.432 . S
O221 C243 1.268 . S
O222 Eu179 2.291 . S
O222 C242 1.255 . S
O223 Eu168 2.372 . S
O223 C242 1.257 . S
C224 O213 1.249 . S
C224 O214 1.264 . S
C225 C228 1.382 . S
C225 C230 1.390 . S
C225 C232 1.506 . S
C226 C227 1.398 . S
C226 C230 1.392 . S
C227 C226 1.398 . S
C227 C229 1.372 . S
C227 H244 0.931 . S
C228 C225 1.382 . S
C228 C229 1.390 . S
C228 H245 0.931 . S
C229 C227 1.372 . S
C229 C228 1.390 . S
C229 H246 0.929 . S
C230 C225 1.390 . S
C230 C226 1.392 . S
C230 H247 0.930 . S
C231 O216 1.255 . S
C231 O217 1.257 . S
C232 Eu168 2.787 . S
C232 O212 1.252 . S
C232 O215 1.268 . S
C232 C225 1.506 . S
C233 C200 1.439 . S
C233 H210 0.931 . S
C233 C234 1.374 . S
C234 C205 1.387 . S
C234 H211 0.931 . S
C234 C233 1.374 . S
C235 O219 1.249 . S
C235 O220 1.264 . S
C236 C239 1.382 . S
C236 C240 1.390 . S
C236 C243 1.506 . S
C237 C238 1.398 . S
C237 C240 1.392 . S
C238 C237 1.398 . S
C238 C241 1.372 . S
C238 H248 0.931 . S
C239 C236 1.382 . S
C239 C241 1.390 . S
C239 H249 0.931 . S
C240 C236 1.390 . S
C240 C237 1.392 . S
C240 H250 0.930 . S
C241 C238 1.372 . S
C241 C239 1.390 . S
C241 H251 0.929 . S
C242 O222 1.255 . S
C242 O223 1.257 . S
C243 Eu179 2.787 . S
C243 O218 1.252 . S
C243 O221 1.268 . S
C243 C236 1.506 . S
H244 C227 0.931 . S
H245 C228 0.931 . S
H246 C229 0.929 . S
H247 C230 0.930 . S
H248 C238 0.931 . S
H249 C239 0.931 . S
H250 C240 0.930 . S
H251 C241 0.929 . S
Eu252 N281 2.600 . S
Eu252 N287 2.562 . S
Eu252 O296 2.462 . S
Eu252 O297 2.373 . S
Eu252 O299 2.432 . S
Eu252 O300 2.291 . S
Eu252 O304 2.335 . S
Eu252 O307 2.372 . S
Eu252 C316 2.787 . S
C253 N254 1.377 . S
C253 C256 1.366 1_545 S
C253 C260 1.478 . S
N254 C253 1.377 . S
N254 C257 1.319 1_545 S
N254 Eu263 2.600 . S
C255 C257 1.397 . S
C255 C258 1.367 . S
C255 H275 0.931 . S
C256 C253 1.366 1_565 S
C256 C258 1.403 . S
C256 C262 1.439 . S
C257 N254 1.319 1_565 S
C257 C255 1.397 . S
C257 H268 0.930 . S
C258 C255 1.367 . S
C258 C256 1.403 . S
C258 H279 0.929 . S
C259 C260 1.430 . S
C259 C261 1.387 1_545 S
C259 C265 1.404 . S
C260 C253 1.478 . S
C260 C259 1.430 . S
C260 N264 1.351 . S
C261 C259 1.387 1_565 S
C261 C262 1.374 . S
C261 H276 0.931 . S
C262 C256 1.439 . S
C262 C261 1.374 . S
C262 H277 0.931 . S
Eu263 N254 2.600 . S
Eu263 N264 2.562 . S
Eu263 O298 2.335 . S
Eu263 O301 2.372 . S
Eu263 O302 2.462 . S
Eu263 O303 2.373 . S
Eu263 O305 2.432 . S
Eu263 O306 2.291 . S
Eu263 C327 2.787 . S
N264 C260 1.351 . S
N264 Eu263 2.562 . S
N264 C266 1.325 . S
C265 C259 1.404 . S
C265 C267 1.366 . S
C265 H273 0.930 . S
C266 N264 1.325 . S
C266 C267 1.416 . S
C266 H272 0.929 . S
C267 C265 1.366 . S
C267 C266 1.416 . S
C267 H269 0.930 . S
H268 C257 0.930 . S
H269 C267 0.930 . S
H270 C285 0.930 . S
H271 C292 0.930 . S
H272 C266 0.929 . S
H273 C265 0.930 . S
H274 C288 0.929 . S
H275 C255 0.931 . S
H276 C261 0.931 . S
H277 C262 0.931 . S
H278 C283 0.931 . S
H279 C258 0.929 . S
H280 C291 0.930 . S
N281 Eu252 2.600 . S
N281 C282 1.365 . S
N281 C285 1.319 . S
C282 N281 1.365 . S
C282 C284 1.405 . S
C282 C290 1.448 . S
C283 H278 0.931 . S
C283 C285 1.397 . S
C283 C286 1.367 . S
C284 C282 1.405 . S
C284 C286 1.403 . S
C284 C317 1.439 . S
C285 H270 0.930 . S
C285 N281 1.319 . S
C285 C283 1.397 . S
C286 C283 1.367 . S
C286 C284 1.403 . S
C286 H293 0.929 . S
N287 Eu252 2.562 . S
N287 C288 1.325 . S
N287 C290 1.351 . S
C288 H274 0.929 . S
C288 N287 1.325 . S
C288 C292 1.416 . S
C289 C290 1.430 . S
C289 C291 1.404 . S
C289 C318 1.387 . S
C290 C282 1.448 . S
C290 N287 1.351 . S
C290 C289 1.430 . S
C291 H280 0.930 . S
C291 C289 1.404 . S
C291 C292 1.366 . S
C292 H271 0.930 . S
C292 C288 1.416 . S
C292 C291 1.366 . S
H293 C286 0.929 . S
H294 C317 0.931 . S
H295 C318 0.931 . S
O296 Eu252 2.462 . S
O296 C316 1.252 . S
O297 Eu252 2.373 . S
O297 C308 1.249 . S
O298 Eu263 2.335 . S
O298 C308 1.264 . S
O299 Eu252 2.432 . S
O299 C316 1.268 . S
O300 Eu252 2.291 . S
O300 C315 1.255 . S
O301 Eu263 2.372 . S
O301 C315 1.257 . S
O302 Eu263 2.462 . S
O302 C327 1.252 . S
O303 Eu263 2.373 . S
O303 C319 1.249 . S
O304 Eu252 2.335 . S
O304 C319 1.264 . S
O305 Eu263 2.432 . S
O305 C327 1.268 . S
O306 Eu263 2.291 . S
O306 C326 1.255 . S
O307 Eu252 2.372 . S
O307 C326 1.257 . S
C308 O297 1.249 . S
C308 O298 1.264 . S
C309 C312 1.382 . S
C309 C314 1.390 . S
C309 C316 1.506 . S
C310 C311 1.398 . S
C310 C314 1.392 . S
C311 C310 1.398 . S
C311 C313 1.372 . S
C311 H328 0.931 . S
C312 C309 1.382 . S
C312 C313 1.390 . S
C312 H329 0.931 . S
C313 C311 1.372 . S
C313 C312 1.390 . S
C313 H330 0.929 . S
C314 C309 1.390 . S
C314 C310 1.392 . S
C314 H331 0.930 . S
C315 O300 1.255 . S
C315 O301 1.257 . S
C316 Eu252 2.787 . S
C316 O296 1.252 . S
C316 O299 1.268 . S
C316 C309 1.506 . S
C317 C284 1.439 . S
C317 H294 0.931 . S
C317 C318 1.374 . S
C318 C289 1.387 . S
C318 H295 0.931 . S
C318 C317 1.374 . S
C319 O303 1.249 . S
C319 O304 1.264 . S
C320 C323 1.382 . S
C320 C324 1.390 . S
C320 C327 1.506 . S
C321 C322 1.398 . S
C321 C324 1.392 . S
C322 C321 1.398 . S
C322 C325 1.372 . S
C322 H332 0.931 . S
C323 C320 1.382 . S
C323 C325 1.390 . S
C323 H333 0.931 . S
C324 C320 1.390 . S
C324 C321 1.392 . S
C324 H334 0.930 . S
C325 C322 1.372 . S
C325 C323 1.390 . S
C325 H335 0.929 . S
C326 O306 1.255 . S
C326 O307 1.257 . S
C327 Eu263 2.787 . S
C327 O302 1.252 . S
C327 O305 1.268 . S
C327 C320 1.506 . S
H328 C311 0.931 . S
H329 C312 0.931 . S
H330 C313 0.929 . S
H331 C314 0.930 . S
H332 C322 0.931 . S
H333 C323 0.931 . S
H334 C324 0.930 . S
H335 C325 0.929 . S
Eu336 N365 2.600 . S
Eu336 N371 2.562 . S
Eu336 O380 2.462 . S
Eu336 O381 2.373 . S
Eu336 O383 2.432 . S
Eu336 O384 2.291 . S
Eu336 O388 2.335 . S
Eu336 O391 2.372 . S
Eu336 C400 2.787 . S
C337 N338 1.365 . S
C337 C340 1.405 . S
C337 C344 1.448 . S
N338 C337 1.365 . S
N338 C341 1.319 . S
N338 Eu347 2.600 . S
C339 C341 1.397 . S
C339 C342 1.367 . S
C339 H359 0.931 . S
C340 C337 1.405 . S
C340 C342 1.403 . S
C340 C346 1.439 . S
C341 N338 1.319 . S
C341 C339 1.397 . S
C341 H352 0.930 . S
C342 C339 1.367 . S
C342 C340 1.403 . S
C342 H363 0.929 . S
C343 C344 1.430 . S
C343 C345 1.387 . S
C343 C349 1.404 . S
C344 C337 1.448 . S
C344 C343 1.430 . S
C344 N348 1.351 . S
C345 C343 1.387 . S
C345 C346 1.374 . S
C345 H360 0.931 . S
C346 C340 1.439 . S
C346 C345 1.374 . S
C346 H361 0.931 . S
Eu347 N338 2.600 . S
Eu347 N348 2.562 . S
Eu347 O382 2.335 . S
Eu347 O385 2.372 . S
Eu347 O386 2.462 . S
Eu347 O387 2.373 . S
Eu347 O389 2.432 . S
Eu347 O390 2.291 . S
Eu347 C411 2.787 . S
N348 C344 1.351 . S
N348 Eu347 2.562 . S
N348 C350 1.325 . S
C349 C343 1.404 . S
C349 C351 1.366 . S
C349 H357 0.930 . S
C350 N348 1.325 . S
C350 C351 1.416 . S
C350 H356 0.929 . S
C351 C349 1.366 . S
C351 C350 1.416 . S
C351 H353 0.930 . S
H352 C341 0.930 . S
H353 C351 0.930 . S
H354 C369 0.930 . S
H355 C376 0.930 . S
H356 C350 0.929 . S
H357 C349 0.930 . S
H358 C372 0.929 . S
H359 C339 0.931 . S
H360 C345 0.931 . S
H361 C346 0.931 . S
H362 C367 0.931 . S
H363 C342 0.929 . S
H364 C375 0.930 . S
N365 Eu336 2.600 . S
N365 C366 1.365 . S
N365 C369 1.319 . S
C366 N365 1.365 . S
C366 C368 1.405 . S
C366 C374 1.448 . S
C367 H362 0.931 . S
C367 C369 1.397 . S
C367 C370 1.367 . S
C368 C366 1.405 . S
C368 C370 1.403 . S
C368 C401 1.439 . S
C369 H354 0.930 . S
C369 N365 1.319 . S
C369 C367 1.397 . S
C370 C367 1.367 . S
C370 C368 1.403 . S
C370 H377 0.929 . S
N371 Eu336 2.562 . S
N371 C372 1.325 . S
N371 C374 1.351 . S
C372 H358 0.929 . S
C372 N371 1.325 . S
C372 C376 1.416 . S
C373 C374 1.430 . S
C373 C375 1.404 . S
C373 C402 1.387 . S
C374 C366 1.448 . S
C374 N371 1.351 . S
C374 C373 1.430 . S
C375 H364 0.930 . S
C375 C373 1.404 . S
C375 C376 1.366 . S
C376 H355 0.930 . S
C376 C372 1.416 . S
C376 C375 1.366 . S
H377 C370 0.929 . S
H378 C401 0.931 . S
H379 C402 0.931 . S
O380 Eu336 2.462 . S
O380 C400 1.252 . S
O381 Eu336 2.373 . S
O381 C392 1.249 . S
O382 Eu347 2.335 . S
O382 C392 1.264 . S
O383 Eu336 2.432 . S
O383 C400 1.268 . S
O384 Eu336 2.291 . S
O384 C399 1.255 . S
O385 Eu347 2.372 . S
O385 C399 1.257 . S
O386 Eu347 2.462 . S
O386 C411 1.252 . S
O387 Eu347 2.373 . S
O387 C403 1.249 . S
O388 Eu336 2.335 . S
O388 C403 1.264 . S
O389 Eu347 2.432 . S
O389 C411 1.268 . S
O390 Eu347 2.291 . S
O390 C410 1.255 . S
O391 Eu336 2.372 . S
O391 C410 1.257 . S
C392 O381 1.249 . S
C392 O382 1.264 . S
C393 C396 1.382 . S
C393 C398 1.390 . S
C393 C400 1.506 . S
C394 C395 1.398 . S
C394 C398 1.392 . S
C395 C394 1.398 . S
C395 C397 1.372 . S
C395 H412 0.931 . S
C396 C393 1.382 . S
C396 C397 1.390 . S
C396 H413 0.931 . S
C397 C395 1.372 . S
C397 C396 1.390 . S
C397 H414 0.929 . S
C398 C393 1.390 . S
C398 C394 1.392 . S
C398 H415 0.930 . S
C399 O384 1.255 . S
C399 O385 1.257 . S
C400 Eu336 2.787 . S
C400 O380 1.252 . S
C400 O383 1.268 . S
C400 C393 1.506 . S
C401 C368 1.439 . S
C401 H378 0.931 . S
C401 C402 1.374 . S
C402 C373 1.387 . S
C402 H379 0.931 . S
C402 C401 1.374 . S
C403 O387 1.249 . S
C403 O388 1.264 . S
C404 C407 1.382 . S
C404 C408 1.390 . S
C404 C411 1.506 . S
C405 C406 1.398 . S
C405 C408 1.392 . S
C406 C405 1.398 . S
C406 C409 1.372 . S
C406 H416 0.931 . S
C407 C404 1.382 . S
C407 C409 1.390 . S
C407 H417 0.931 . S
C408 C404 1.390 . S
C408 C405 1.392 . S
C408 H418 0.930 . S
C409 C406 1.372 . S
C409 C407 1.390 . S
C409 H419 0.929 . S
C410 O390 1.255 . S
C410 O391 1.257 . S
C411 Eu347 2.787 . S
C411 O386 1.252 . S
C411 O389 1.268 . S
C411 C404 1.506 . S
H412 C395 0.931 . S
H413 C396 0.931 . S
H414 C397 0.929 . S
H415 C398 0.930 . S
H416 C406 0.931 . S
H417 C407 0.931 . S
H418 C408 0.930 . S
H419 C409 0.929 . S
Eu420 N449 2.600 . S
Eu420 N455 2.562 . S
Eu420 O464 2.462 . S
Eu420 O465 2.373 . S
Eu420 O467 2.432 . S
Eu420 O468 2.291 . S
Eu420 O472 2.335 . S
Eu420 O475 2.372 . S
Eu420 C484 2.787 . S
C421 N422 1.377 . S
C421 C424 1.366 1_565 S
C421 C428 1.478 . S
N422 C421 1.377 . S
N422 C425 1.319 1_565 S
N422 Eu431 2.600 . S
C423 C425 1.397 . S
C423 C426 1.367 . S
C423 H443 0.931 . S
C424 C421 1.366 1_545 S
C424 C426 1.403 . S
C424 C430 1.439 . S
C425 N422 1.319 1_545 S
C425 C423 1.397 . S
C425 H436 0.930 . S
C426 C423 1.367 . S
C426 C424 1.403 . S
C426 H447 0.929 . S
C427 C428 1.430 . S
C427 C429 1.387 1_565 S
C427 C433 1.404 . S
C428 C421 1.478 . S
C428 C427 1.430 . S
C428 N432 1.351 . S
C429 C427 1.387 1_545 S
C429 C430 1.374 . S
C429 H444 0.931 . S
C430 C424 1.439 . S
C430 C429 1.374 . S
C430 H445 0.931 . S
Eu431 N422 2.600 . S
Eu431 N432 2.562 . S
Eu431 O466 2.335 . S
Eu431 O469 2.372 . S
Eu431 O470 2.462 . S
Eu431 O471 2.373 . S
Eu431 O473 2.432 . S
Eu431 O474 2.291 . S
Eu431 C495 2.787 . S
N432 C428 1.351 . S
N432 Eu431 2.562 . S
N432 C434 1.325 . S
C433 C427 1.404 . S
C433 C435 1.366 . S
C433 H441 0.930 . S
C434 N432 1.325 . S
C434 C435 1.416 . S
C434 H440 0.929 . S
C435 C433 1.366 . S
C435 C434 1.416 . S
C435 H437 0.930 . S
H436 C425 0.930 . S
H437 C435 0.930 . S
H438 C453 0.930 . S
H439 C460 0.930 . S
H440 C434 0.929 . S
H441 C433 0.930 . S
H442 C456 0.929 . S
H443 C423 0.931 . S
H444 C429 0.931 . S
H445 C430 0.931 . S
H446 C451 0.931 . S
H447 C426 0.929 . S
H448 C459 0.930 . S
N449 Eu420 2.600 . S
N449 C450 1.365 . S
N449 C453 1.319 . S
C450 N449 1.365 . S
C450 C452 1.405 . S
C450 C458 1.448 . S
C451 H446 0.931 . S
C451 C453 1.397 . S
C451 C454 1.367 . S
C452 C450 1.405 . S
C452 C454 1.403 . S
C452 C485 1.439 . S
C453 H438 0.930 . S
C453 N449 1.319 . S
C453 C451 1.397 . S
C454 C451 1.367 . S
C454 C452 1.403 . S
C454 H461 0.929 . S
N455 Eu420 2.562 . S
N455 C456 1.325 . S
N455 C458 1.351 . S
C456 H442 0.929 . S
C456 N455 1.325 . S
C456 C460 1.416 . S
C457 C458 1.430 . S
C457 C459 1.404 . S
C457 C486 1.387 . S
C458 C450 1.448 . S
C458 N455 1.351 . S
C458 C457 1.430 . S
C459 H448 0.930 . S
C459 C457 1.404 . S
C459 C460 1.366 . S
C460 H439 0.930 . S
C460 C456 1.416 . S
C460 C459 1.366 . S
H461 C454 0.929 . S
H462 C485 0.931 . S
H463 C486 0.931 . S
O464 Eu420 2.462 . S
O464 C484 1.252 . S
O465 Eu420 2.373 . S
O465 C476 1.249 . S
O466 Eu431 2.335 . S
O466 C476 1.264 . S
O467 Eu420 2.432 . S
O467 C484 1.268 . S
O468 Eu420 2.291 . S
O468 C483 1.255 . S
O469 Eu431 2.372 . S
O469 C483 1.257 . S
O470 Eu431 2.462 . S
O470 C495 1.252 . S
O471 Eu431 2.373 . S
O471 C487 1.249 . S
O472 Eu420 2.335 . S
O472 C487 1.264 . S
O473 Eu431 2.432 . S
O473 C495 1.268 . S
O474 Eu431 2.291 . S
O474 C494 1.255 . S
O475 Eu420 2.372 . S
O475 C494 1.257 . S
C476 O465 1.249 . S
C476 O466 1.264 . S
C477 C480 1.382 . S
C477 C482 1.390 . S
C477 C484 1.506 . S
C478 C479 1.398 . S
C478 C482 1.392 . S
C479 C478 1.398 . S
C479 C481 1.372 . S
C479 H496 0.931 . S
C480 C477 1.382 . S
C480 C481 1.390 . S
C480 H497 0.931 . S
C481 C479 1.372 . S
C481 C480 1.390 . S
C481 H498 0.929 . S
C482 C477 1.390 . S
C482 C478 1.392 . S
C482 H499 0.930 . S
C483 O468 1.255 . S
C483 O469 1.257 . S
C484 Eu420 2.787 . S
C484 O464 1.252 . S
C484 O467 1.268 . S
C484 C477 1.506 . S
C485 C452 1.439 . S
C485 H462 0.931 . S
C485 C486 1.374 . S
C486 C457 1.387 . S
C486 H463 0.931 . S
C486 C485 1.374 . S
C487 O471 1.249 . S
C487 O472 1.264 . S
C488 C491 1.382 . S
C488 C492 1.390 . S
C488 C495 1.506 . S
C489 C490 1.398 . S
C489 C492 1.392 . S
C490 C489 1.398 . S
C490 C493 1.372 . S
C490 H500 0.931 . S
C491 C488 1.382 . S
C491 C493 1.390 . S
C491 H501 0.931 . S
C492 C488 1.390 . S
C492 C489 1.392 . S
C492 H502 0.930 . S
C493 C490 1.372 . S
C493 C491 1.390 . S
C493 H503 0.929 . S
C494 O474 1.255 . S
C494 O475 1.257 . S
C495 Eu431 2.787 . S
C495 O470 1.252 . S
C495 O473 1.268 . S
C495 C488 1.506 . S
H496 C479 0.931 . S
H497 C480 0.931 . S
H498 C481 0.929 . S
H499 C482 0.930 . S
H500 C490 0.931 . S
H501 C491 0.931 . S
H502 C492 0.930 . S
H503 C493 0.929 . S
Eu504 N533 2.600 . S
Eu504 N539 2.562 . S
Eu504 O548 2.462 . S
Eu504 O549 2.373 . S
Eu504 O551 2.432 . S
Eu504 O552 2.291 . S
Eu504 O556 2.335 . S
Eu504 O559 2.372 . S
Eu504 C568 2.787 . S
C505 N506 1.365 . S
C505 C508 1.405 . S
C505 C512 1.448 . S
N506 C505 1.365 . S
N506 C509 1.319 . S
N506 Eu515 2.600 . S
C507 C509 1.397 . S
C507 C510 1.367 . S
C507 H527 0.931 . S
C508 C505 1.405 . S
C508 C510 1.403 . S
C508 C514 1.439 . S
C509 N506 1.319 . S
C509 C507 1.397 . S
C509 H520 0.930 . S
C510 C507 1.367 . S
C510 C508 1.403 . S
C510 H531 0.929 . S
C511 C512 1.430 . S
C511 C513 1.387 . S
C511 C517 1.404 . S
C512 C505 1.448 . S
C512 C511 1.430 . S
C512 N516 1.351 . S
C513 C511 1.387 . S
C513 C514 1.374 . S
C513 H528 0.931 . S
C514 C508 1.439 . S
C514 C513 1.374 . S
C514 H529 0.931 . S
Eu515 N506 2.600 . S
Eu515 N516 2.562 . S
Eu515 O550 2.335 . S
Eu515 O553 2.372 . S
Eu515 O554 2.462 . S
Eu515 O555 2.373 . S
Eu515 O557 2.432 . S
Eu515 O558 2.291 . S
Eu515 C579 2.787 . S
N516 C512 1.351 . S
N516 Eu515 2.562 . S
N516 C518 1.325 . S
C517 C511 1.404 . S
C517 C519 1.366 . S
C517 H525 0.930 . S
C518 N516 1.325 . S
C518 C519 1.416 . S
C518 H524 0.929 . S
C519 C517 1.366 . S
C519 C518 1.416 . S
C519 H521 0.930 . S
H520 C509 0.930 . S
H521 C519 0.930 . S
H522 C537 0.930 . S
H523 C544 0.930 . S
H524 C518 0.929 . S
H525 C517 0.930 . S
H526 C540 0.929 . S
H527 C507 0.931 . S
H528 C513 0.931 . S
H529 C514 0.931 . S
H530 C535 0.931 . S
H531 C510 0.929 . S
H532 C543 0.930 . S
N533 Eu504 2.600 . S
N533 C534 1.365 . S
N533 C537 1.319 . S
C534 N533 1.365 . S
C534 C536 1.405 . S
C534 C542 1.448 . S
C535 H530 0.931 . S
C535 C537 1.397 . S
C535 C538 1.367 . S
C536 C534 1.405 . S
C536 C538 1.403 . S
C536 C569 1.439 . S
C537 H522 0.930 . S
C537 N533 1.319 . S
C537 C535 1.397 . S
C538 C535 1.367 . S
C538 C536 1.403 . S
C538 H545 0.929 . S
N539 Eu504 2.562 . S
N539 C540 1.325 . S
N539 C542 1.351 . S
C540 H526 0.929 . S
C540 N539 1.325 . S
C540 C544 1.416 . S
C541 C542 1.430 . S
C541 C543 1.404 . S
C541 C570 1.387 . S
C542 C534 1.448 . S
C542 N539 1.351 . S
C542 C541 1.430 . S
C543 H532 0.930 . S
C543 C541 1.404 . S
C543 C544 1.366 . S
C544 H523 0.930 . S
C544 C540 1.416 . S
C544 C543 1.366 . S
H545 C538 0.929 . S
H546 C569 0.931 . S
H547 C570 0.931 . S
O548 Eu504 2.462 . S
O548 C568 1.252 . S
O549 Eu504 2.373 . S
O549 C560 1.249 . S
O550 Eu515 2.335 . S
O550 C560 1.264 . S
O551 Eu504 2.432 . S
O551 C568 1.268 . S
O552 Eu504 2.291 . S
O552 C567 1.255 . S
O553 Eu515 2.372 . S
O553 C567 1.257 . S
O554 Eu515 2.462 . S
O554 C579 1.252 . S
O555 Eu515 2.373 . S
O555 C571 1.249 . S
O556 Eu504 2.335 . S
O556 C571 1.264 . S
O557 Eu515 2.432 . S
O557 C579 1.268 . S
O558 Eu515 2.291 . S
O558 C578 1.255 . S
O559 Eu504 2.372 . S
O559 C578 1.257 . S
C560 O549 1.249 . S
C560 O550 1.264 . S
C561 C564 1.382 . S
C561 C566 1.390 . S
C561 C568 1.506 . S
C562 C563 1.398 . S
C562 C566 1.392 . S
C563 C562 1.398 . S
C563 C565 1.372 . S
C563 H580 0.931 . S
C564 C561 1.382 . S
C564 C565 1.390 . S
C564 H581 0.931 . S
C565 C563 1.372 . S
C565 C564 1.390 . S
C565 H582 0.929 . S
C566 C561 1.390 . S
C566 C562 1.392 . S
C566 H583 0.930 . S
C567 O552 1.255 . S
C567 O553 1.257 . S
C568 Eu504 2.787 . S
C568 O548 1.252 . S
C568 O551 1.268 . S
C568 C561 1.506 . S
C569 C536 1.439 . S
C569 H546 0.931 . S
C569 C570 1.374 . S
C570 C541 1.387 . S
C570 H547 0.931 . S
C570 C569 1.374 . S
C571 O555 1.249 . S
C571 O556 1.264 . S
C572 C575 1.382 . S
C572 C576 1.390 . S
C572 C579 1.506 . S
C573 C574 1.398 . S
C573 C576 1.392 . S
C574 C573 1.398 . S
C574 C577 1.372 . S
C574 H584 0.931 . S
C575 C572 1.382 . S
C575 C577 1.390 . S
C575 H585 0.931 . S
C576 C572 1.390 . S
C576 C573 1.392 . S
C576 H586 0.930 . S
C577 C574 1.372 . S
C577 C575 1.390 . S
C577 H587 0.929 . S
C578 O558 1.255 . S
C578 O559 1.257 . S
C579 Eu515 2.787 . S
C579 O554 1.252 . S
C579 O557 1.268 . S
C579 C572 1.506 . S
H580 C563 0.931 . S
H581 C564 0.931 . S
H582 C565 0.929 . S
H583 C566 0.930 . S
H584 C574 0.931 . S
H585 C575 0.931 . S
H586 C576 0.930 . S
H587 C577 0.929 . S
Eu588 N617 2.600 . S
Eu588 N623 2.562 . S
Eu588 O632 2.462 . S
Eu588 O633 2.373 . S
Eu588 O635 2.432 . S
Eu588 O636 2.291 . S
Eu588 O640 2.335 . S
Eu588 O643 2.372 . S
Eu588 C652 2.787 . S
C589 N590 1.376 1_655 S
C589 C592 1.366 1_545 S
C589 C596 1.478 . S
N590 C589 1.376 1_455 S
N590 C593 1.319 1_545 S
N590 Eu599 2.600 . S
C591 C593 1.397 . S
C591 C594 1.367 . S
C591 H611 0.931 . S
C592 C589 1.366 1_565 S
C592 C594 1.403 1_655 S
C592 C598 1.439 . S
C593 N590 1.319 1_565 S
C593 C591 1.397 . S
C593 H604 0.930 . S
C594 C591 1.367 . S
C594 C592 1.403 1_455 S
C594 H615 0.929 1_455 S
C595 C596 1.430 . S
C595 C597 1.387 1_545 S
C595 C601 1.404 . S
C596 C589 1.478 . S
C596 C595 1.430 . S
C596 N600 1.351 . S
C597 C595 1.387 1_565 S
C597 C598 1.374 . S
C597 H612 0.931 . S
C598 C592 1.439 . S
C598 C597 1.374 . S
C598 H613 0.931 . S
Eu599 N590 2.600 . S
Eu599 N600 2.562 1_455 S
Eu599 O634 2.335 . S
Eu599 O637 2.372 . S
Eu599 O638 2.462 . S
Eu599 O639 2.373 . S
Eu599 O641 2.432 . S
Eu599 O642 2.291 . S
Eu599 C663 2.787 . S
N600 C596 1.351 . S
N600 Eu599 2.562 1_655 S
N600 C602 1.325 . S
C601 C595 1.404 . S
C601 C603 1.366 . S
C601 H609 0.930 . S
C602 N600 1.325 . S
C602 C603 1.416 . S
C602 H608 0.929 . S
C603 C601 1.366 . S
C603 C602 1.416 . S
C603 H605 0.930 . S
H604 C593 0.930 . S
H605 C603 0.930 . S
H606 C621 0.930 . S
H607 C628 0.930 . S
H608 C602 0.929 . S
H609 C601 0.930 . S
H610 C624 0.929 . S
H611 C591 0.931 . S
H612 C597 0.931 . S
H613 C598 0.931 . S
H614 C619 0.931 . S
H615 C594 0.929 1_655 S
H616 C627 0.930 . S
N617 Eu588 2.600 . S
N617 C618 1.365 . S
N617 C621 1.319 . S
C618 N617 1.365 . S
C618 C620 1.405 . S
C618 C626 1.448 . S
C619 H614 0.931 . S
C619 C621 1.397 . S
C619 C622 1.367 . S
C620 C618 1.405 . S
C620 C622 1.403 . S
C620 C653 1.439 . S
C621 H606 0.930 . S
C621 N617 1.319 . S
C621 C619 1.397 . S
C622 C619 1.367 . S
C622 C620 1.403 . S
C622 H629 0.929 . S
N623 Eu588 2.562 . S
N623 C624 1.325 . S
N623 C626 1.351 . S
C624 H610 0.929 . S
C624 N623 1.325 . S
C624 C628 1.416 . S
C625 C626 1.430 . S
C625 C627 1.404 . S
C625 C654 1.387 . S
C626 C618 1.448 . S
C626 N623 1.351 . S
C626 C625 1.430 . S
C627 H616 0.930 . S
C627 C625 1.404 . S
C627 C628 1.366 . S
C628 H607 0.930 . S
C628 C624 1.416 . S
C628 C627 1.366 . S
H629 C622 0.929 . S
H630 C653 0.931 . S
H631 C654 0.931 . S
O632 Eu588 2.462 . S
O632 C652 1.252 . S
O633 Eu588 2.373 . S
O633 C644 1.249 . S
O634 Eu599 2.335 . S
O634 C644 1.264 . S
O635 Eu588 2.432 . S
O635 C652 1.268 . S
O636 Eu588 2.291 . S
O636 C651 1.255 . S
O637 Eu599 2.372 . S
O637 C651 1.257 . S
O638 Eu599 2.462 . S
O638 C663 1.252 . S
O639 Eu599 2.373 . S
O639 C655 1.249 . S
O640 Eu588 2.335 . S
O640 C655 1.264 . S
O641 Eu599 2.432 . S
O641 C663 1.268 . S
O642 Eu599 2.291 . S
O642 C662 1.255 . S
O643 Eu588 2.372 . S
O643 C662 1.257 . S
C644 O633 1.249 . S
C644 O634 1.264 . S
C645 C648 1.382 . S
C645 C650 1.390 . S
C645 C652 1.506 . S
C646 C647 1.398 . S
C646 C650 1.392 . S
C647 C646 1.398 . S
C647 C649 1.372 . S
C647 H664 0.931 . S
C648 C645 1.382 . S
C648 C649 1.390 . S
C648 H665 0.931 . S
C649 C647 1.372 . S
C649 C648 1.390 . S
C649 H666 0.929 . S
C650 C645 1.390 . S
C650 C646 1.392 . S
C650 H667 0.930 . S
C651 O636 1.255 . S
C651 O637 1.257 . S
C652 Eu588 2.787 . S
C652 O632 1.252 . S
C652 O635 1.268 . S
C652 C645 1.506 . S
C653 C620 1.439 . S
C653 H630 0.931 . S
C653 C654 1.374 . S
C654 C625 1.387 . S
C654 H631 0.931 . S
C654 C653 1.374 . S
C655 O639 1.249 . S
C655 O640 1.264 . S
C656 C659 1.382 . S
C656 C660 1.390 . S
C656 C663 1.506 1_655 S
C657 C658 1.398 . S
C657 C660 1.392 . S
C658 C657 1.398 . S
C658 C661 1.372 . S
C658 H668 0.931 . S
C659 C656 1.382 . S
C659 C661 1.390 . S
C659 H669 0.931 . S
C660 C656 1.390 . S
C660 C657 1.392 . S
C660 H670 0.930 . S
C661 C658 1.372 . S
C661 C659 1.390 . S
C661 H671 0.929 . S
C662 O642 1.255 . S
C662 O643 1.257 . S
C663 Eu599 2.787 . S
C663 O638 1.252 . S
C663 O641 1.268 . S
C663 C656 1.506 1_455 S
H664 C647 0.931 . S
H665 C648 0.931 . S
H666 C649 0.929 . S
H667 C650 0.930 . S
H668 C658 0.931 . S
H669 C659 0.931 . S
H670 C660 0.930 . S
H671 C661 0.929 . S
Eu672 N701 2.600 . S
Eu672 N707 2.562 . S
Eu672 O716 2.462 . S
Eu672 O717 2.373 . S
Eu672 O719 2.432 . S
Eu672 O720 2.291 . S
Eu672 O724 2.335 . S
Eu672 O727 2.372 . S
Eu672 C736 2.787 . S
C673 N674 1.365 . S
C673 C676 1.405 . S
C673 C680 1.448 . S
N674 C673 1.365 . S
N674 C677 1.319 . S
N674 Eu683 2.600 . S
C675 C677 1.397 . S
C675 C678 1.367 . S
C675 H695 0.931 . S
C676 C673 1.405 . S
C676 C678 1.403 . S
C676 C682 1.439 . S
C677 N674 1.319 . S
C677 C675 1.397 . S
C677 H688 0.930 . S
C678 C675 1.367 . S
C678 C676 1.403 . S
C678 H699 0.929 . S
C679 C680 1.430 . S
C679 C681 1.387 . S
C679 C685 1.404 . S
C680 C673 1.448 . S
C680 C679 1.430 . S
C680 N684 1.351 . S
C681 C679 1.387 . S
C681 C682 1.374 . S
C681 H696 0.931 . S
C682 C676 1.439 . S
C682 C681 1.374 . S
C682 H697 0.931 . S
Eu683 N674 2.600 . S
Eu683 N684 2.562 . S
Eu683 O718 2.335 . S
Eu683 O721 2.372 . S
Eu683 O722 2.462 . S
Eu683 O723 2.373 . S
Eu683 O725 2.432 . S
Eu683 O726 2.291 . S
Eu683 C747 2.787 . S
N684 C680 1.351 . S
N684 Eu683 2.562 . S
N684 C686 1.325 . S
C685 C679 1.404 . S
C685 C687 1.366 . S
C685 H693 0.930 . S
C686 N684 1.325 . S
C686 C687 1.416 . S
C686 H692 0.929 . S
C687 C685 1.366 . S
C687 C686 1.416 . S
C687 H689 0.930 . S
H688 C677 0.930 . S
H689 C687 0.930 . S
H690 C705 0.930 . S
H691 C712 0.930 . S
H692 C686 0.929 . S
H693 C685 0.930 . S
H694 C708 0.929 . S
H695 C675 0.931 . S
H696 C681 0.931 . S
H697 C682 0.931 . S
H698 C703 0.931 . S
H699 C678 0.929 . S
H700 C711 0.930 . S
N701 Eu672 2.600 . S
N701 C702 1.365 . S
N701 C705 1.319 . S
C702 N701 1.365 . S
C702 C704 1.405 . S
C702 C710 1.448 . S
C703 H698 0.931 . S
C703 C705 1.397 . S
C703 C706 1.367 . S
C704 C702 1.405 . S
C704 C706 1.403 . S
C704 C737 1.439 . S
C705 H690 0.930 . S
C705 N701 1.319 . S
C705 C703 1.397 . S
C706 C703 1.367 . S
C706 C704 1.403 . S
C706 H713 0.929 . S
N707 Eu672 2.562 . S
N707 C708 1.325 . S
N707 C710 1.351 . S
C708 H694 0.929 . S
C708 N707 1.325 . S
C708 C712 1.416 . S
C709 C710 1.430 . S
C709 C711 1.404 . S
C709 C738 1.387 . S
C710 C702 1.448 . S
C710 N707 1.351 . S
C710 C709 1.430 . S
C711 H700 0.930 . S
C711 C709 1.404 . S
C711 C712 1.366 . S
C712 H691 0.930 . S
C712 C708 1.416 . S
C712 C711 1.366 . S
H713 C706 0.929 . S
H714 C737 0.931 . S
H715 C738 0.931 . S
O716 Eu672 2.462 . S
O716 C736 1.252 . S
O717 Eu672 2.373 . S
O717 C728 1.249 . S
O718 Eu683 2.335 . S
O718 C728 1.264 . S
O719 Eu672 2.432 . S
O719 C736 1.268 . S
O720 Eu672 2.291 . S
O720 C735 1.255 . S
O721 Eu683 2.372 . S
O721 C735 1.257 . S
O722 Eu683 2.462 . S
O722 C747 1.252 . S
O723 Eu683 2.373 . S
O723 C739 1.249 . S
O724 Eu672 2.335 . S
O724 C739 1.264 . S
O725 Eu683 2.432 . S
O725 C747 1.268 . S
O726 Eu683 2.291 . S
O726 C746 1.255 . S
O727 Eu672 2.372 . S
O727 C746 1.257 . S
C728 O717 1.249 . S
C728 O718 1.264 . S
C729 C732 1.382 . S
C729 C734 1.390 . S
C729 C736 1.506 . S
C730 C731 1.398 . S
C730 C734 1.392 . S
C731 C730 1.398 . S
C731 C733 1.372 . S
C731 H748 0.931 . S
C732 C729 1.382 . S
C732 C733 1.390 . S
C732 H749 0.931 . S
C733 C731 1.372 . S
C733 C732 1.390 . S
C733 H750 0.929 . S
C734 C729 1.390 . S
C734 C730 1.392 . S
C734 H751 0.930 . S
C735 O720 1.255 . S
C735 O721 1.257 . S
C736 Eu672 2.787 . S
C736 O716 1.252 . S
C736 O719 1.268 . S
C736 C729 1.506 . S
C737 C704 1.439 . S
C737 H714 0.931 . S
C737 C738 1.374 . S
C738 C709 1.387 . S
C738 H715 0.931 . S
C738 C737 1.374 . S
C739 O723 1.249 . S
C739 O724 1.264 . S
C740 C743 1.382 . S
C740 C744 1.390 . S
C740 C747 1.506 . S
C741 C742 1.398 . S
C741 C744 1.392 . S
C742 C741 1.398 . S
C742 C745 1.372 . S
C742 H752 0.931 . S
C743 C740 1.382 . S
C743 C745 1.390 . S
C743 H753 0.931 . S
C744 C740 1.390 . S
C744 C741 1.392 . S
C744 H754 0.930 . S
C745 C742 1.372 . S
C745 C743 1.390 . S
C745 H755 0.929 . S
C746 O726 1.255 . S
C746 O727 1.257 . S
C747 Eu683 2.787 . S
C747 O722 1.252 . S
C747 O725 1.268 . S
C747 C740 1.506 . S
H748 C731 0.931 . S
H749 C732 0.931 . S
H750 C733 0.929 . S
H751 C734 0.930 . S
H752 C742 0.931 . S
H753 C743 0.931 . S
H754 C744 0.930 . S
H755 C745 0.929 . S
Eu756 N785 2.600 . S
Eu756 N791 2.562 1_655 S
Eu756 O800 2.462 . S
Eu756 O801 2.373 . S
Eu756 O803 2.432 . S
Eu756 O804 2.291 . S
Eu756 O808 2.335 . S
Eu756 O811 2.372 . S
Eu756 C820 2.787 . S
C757 N758 1.365 . S
C757 C760 1.405 . S
C757 C764 1.448 . S
N758 C757 1.365 . S
N758 C761 1.319 . S
N758 Eu767 2.600 . S
C759 C761 1.397 . S
C759 C762 1.367 . S
C759 H779 0.931 . S
C760 C757 1.405 . S
C760 C762 1.403 . S
C760 C766 1.439 . S
C761 N758 1.319 . S
C761 C759 1.397 . S
C761 H772 0.930 . S
C762 C759 1.367 . S
C762 C760 1.403 . S
C762 H783 0.929 . S
C763 C764 1.430 . S
C763 C765 1.387 . S
C763 C769 1.404 . S
C764 C757 1.448 . S
C764 C763 1.430 . S
C764 N768 1.351 . S
C765 C763 1.387 . S
C765 C766 1.374 . S
C765 H780 0.931 . S
C766 C760 1.439 . S
C766 C765 1.374 . S
C766 H781 0.931 . S
Eu767 N758 2.600 . S
Eu767 N768 2.562 . S
Eu767 O802 2.335 . S
Eu767 O805 2.372 . S
Eu767 O806 2.462 . S
Eu767 O807 2.373 . S
Eu767 O809 2.432 . S
Eu767 O810 2.291 . S
Eu767 C831 2.787 . S
N768 C764 1.351 . S
N768 Eu767 2.562 . S
N768 C770 1.325 . S
C769 C763 1.404 . S
C769 C771 1.366 . S
C769 H777 0.930 . S
C770 N768 1.325 . S
C770 C771 1.416 . S
C770 H776 0.929 . S
C771 C769 1.366 . S
C771 C770 1.416 . S
C771 H773 0.930 . S
H772 C761 0.930 . S
H773 C771 0.930 . S
H774 C789 0.930 . S
H775 C796 0.930 . S
H776 C770 0.929 . S
H777 C769 0.930 . S
H778 C792 0.929 . S
H779 C759 0.931 . S
H780 C765 0.931 . S
H781 C766 0.931 . S
H782 C787 0.931 . S
H783 C762 0.929 . S
H784 C795 0.930 . S
N785 Eu756 2.600 . S
N785 C786 1.376 1_655 S
N785 C789 1.319 1_545 S
C786 N785 1.376 1_455 S
C786 C788 1.366 1_545 S
C786 C794 1.478 . S
C787 H782 0.931 . S
C787 C789 1.397 . S
C787 C790 1.367 . S
C788 C786 1.366 1_565 S
C788 C790 1.403 1_455 S
C788 C821 1.439 . S
C789 H774 0.930 . S
C789 N785 1.319 1_565 S
C789 C787 1.397 . S
C790 C787 1.367 . S
C790 C788 1.403 1_655 S
C790 H797 0.929 1_655 S
N791 Eu756 2.562 1_455 S
N791 C792 1.325 . S
N791 C794 1.351 . S
C792 H778 0.929 . S
C792 N791 1.325 . S
C792 C796 1.416 . S
C793 C794 1.430 . S
C793 C795 1.404 . S
C793 C822 1.387 1_545 S
C794 C786 1.478 . S
C794 N791 1.351 . S
C794 C793 1.430 . S
C795 H784 0.930 . S
C795 C793 1.404 . S
C795 C796 1.366 . S
C796 H775 0.930 . S
C796 C792 1.416 . S
C796 C795 1.366 . S
H797 C790 0.929 1_455 S
H798 C821 0.931 . S
H799 C822 0.931 . S
O800 Eu756 2.462 . S
O800 C820 1.252 . S
O801 Eu756 2.373 . S
O801 C812 1.249 . S
O802 Eu767 2.335 . S
O802 C812 1.264 . S
O803 Eu756 2.432 . S
O803 C820 1.268 . S
O804 Eu756 2.291 . S
O804 C819 1.255 . S
O805 Eu767 2.372 . S
O805 C819 1.257 . S
O806 Eu767 2.462 . S
O806 C831 1.252 . S
O807 Eu767 2.373 . S
O807 C823 1.249 . S
O808 Eu756 2.335 . S
O808 C823 1.264 . S
O809 Eu767 2.432 . S
O809 C831 1.268 . S
O810 Eu767 2.291 . S
O810 C830 1.255 . S
O811 Eu756 2.372 . S
O811 C830 1.257 . S
C812 O801 1.249 . S
C812 O802 1.264 . S
C813 C816 1.382 . S
C813 C818 1.390 . S
C813 C820 1.506 1_455 S
C814 C815 1.398 . S
C814 C818 1.392 . S
C815 C814 1.398 . S
C815 C817 1.372 . S
C815 H832 0.931 . S
C816 C813 1.382 . S
C816 C817 1.390 . S
C816 H833 0.931 . S
C817 C815 1.372 . S
C817 C816 1.390 . S
C817 H834 0.929 . S
C818 C813 1.390 . S
C818 C814 1.392 . S
C818 H835 0.930 . S
C819 O804 1.255 . S
C819 O805 1.257 . S
C820 Eu756 2.787 . S
C820 O800 1.252 . S
C820 O803 1.268 . S
C820 C813 1.506 1_655 S
C821 C788 1.439 . S
C821 H798 0.931 . S
C821 C822 1.374 . S
C822 C793 1.387 1_565 S
C822 H799 0.931 . S
C822 C821 1.374 . S
C823 O807 1.249 . S
C823 O808 1.264 . S
C824 C827 1.382 . S
C824 C828 1.390 . S
C824 C831 1.506 . S
C825 C826 1.398 . S
C825 C828 1.392 . S
C826 C825 1.398 . S
C826 C829 1.372 . S
C826 H836 0.931 . S
C827 C824 1.382 . S
C827 C829 1.390 . S
C827 H837 0.931 . S
C828 C824 1.390 . S
C828 C825 1.392 . S
C828 H838 0.930 . S
C829 C826 1.372 . S
C829 C827 1.390 . S
C829 H839 0.929 . S
C830 O810 1.255 . S
C830 O811 1.257 . S
C831 Eu767 2.787 . S
C831 O806 1.252 . S
C831 O809 1.268 . S
C831 C824 1.506 . S
H832 C815 0.931 . S
H833 C816 0.931 . S
H834 C817 0.929 . S
H835 C818 0.930 . S
H836 C826 0.931 . S
H837 C827 0.931 . S
H838 C828 0.930 . S
H839 C829 0.929 . S
Eu840 N869 2.600 . S
Eu840 N875 2.562 . S
Eu840 O884 2.462 . S
Eu840 O885 2.373 . S
Eu840 O887 2.432 . S
Eu840 O888 2.291 . S
Eu840 O892 2.335 . S
Eu840 O895 2.372 . S
Eu840 C904 2.787 . S
C841 N842 1.365 . S
C841 C844 1.405 . S
C841 C848 1.448 . S
N842 C841 1.365 . S
N842 C845 1.319 . S
N842 Eu851 2.600 . S
C843 C845 1.397 . S
C843 C846 1.367 . S
C843 H863 0.931 . S
C844 C841 1.405 . S
C844 C846 1.403 . S
C844 C850 1.439 . S
C845 N842 1.319 . S
C845 C843 1.397 . S
C845 H856 0.930 . S
C846 C843 1.367 . S
C846 C844 1.403 . S
C846 H867 0.929 . S
C847 C848 1.430 . S
C847 C849 1.387 . S
C847 C853 1.404 . S
C848 C841 1.448 . S
C848 C847 1.430 . S
C848 N852 1.351 . S
C849 C847 1.387 . S
C849 C850 1.374 . S
C849 H864 0.931 . S
C850 C844 1.439 . S
C850 C849 1.374 . S
C850 H865 0.931 . S
Eu851 N842 2.600 . S
Eu851 N852 2.562 . S
Eu851 O886 2.335 . S
Eu851 O889 2.372 . S
Eu851 O890 2.462 . S
Eu851 O891 2.373 . S
Eu851 O893 2.432 . S
Eu851 O894 2.291 . S
Eu851 C915 2.787 . S
N852 C848 1.351 . S
N852 Eu851 2.562 . S
N852 C854 1.325 . S
C853 C847 1.404 . S
C853 C855 1.366 . S
C853 H861 0.930 . S
C854 N852 1.325 . S
C854 C855 1.416 . S
C854 H860 0.929 . S
C855 C853 1.366 . S
C855 C854 1.416 . S
C855 H857 0.930 . S
H856 C845 0.930 . S
H857 C855 0.930 . S
H858 C873 0.930 . S
H859 C880 0.930 . S
H860 C854 0.929 . S
H861 C853 0.930 . S
H862 C876 0.929 . S
H863 C843 0.931 . S
H864 C849 0.931 . S
H865 C850 0.931 . S
H866 C871 0.931 . S
H867 C846 0.929 . S
H868 C879 0.930 . S
N869 Eu840 2.600 . S
N869 C870 1.365 . S
N869 C873 1.319 . S
C870 N869 1.365 . S
C870 C872 1.405 . S
C870 C878 1.448 . S
C871 H866 0.931 . S
C871 C873 1.397 . S
C871 C874 1.367 . S
C872 C870 1.405 . S
C872 C874 1.403 . S
C872 C905 1.439 . S
C873 H858 0.930 . S
C873 N869 1.319 . S
C873 C871 1.397 . S
C874 C871 1.367 . S
C874 C872 1.403 . S
C874 H881 0.929 . S
N875 Eu840 2.562 . S
N875 C876 1.325 . S
N875 C878 1.351 . S
C876 H862 0.929 . S
C876 N875 1.325 . S
C876 C880 1.416 . S
C877 C878 1.430 . S
C877 C879 1.404 . S
C877 C906 1.387 . S
C878 C870 1.448 . S
C878 N875 1.351 . S
C878 C877 1.430 . S
C879 H868 0.930 . S
C879 C877 1.404 . S
C879 C880 1.366 . S
C880 H859 0.930 . S
C880 C876 1.416 . S
C880 C879 1.366 . S
H881 C874 0.929 . S
H882 C905 0.931 . S
H883 C906 0.931 . S
O884 Eu840 2.462 . S
O884 C904 1.252 . S
O885 Eu840 2.373 . S
O885 C896 1.249 . S
O886 Eu851 2.335 . S
O886 C896 1.264 . S
O887 Eu840 2.432 . S
O887 C904 1.268 . S
O888 Eu840 2.291 . S
O888 C903 1.255 . S
O889 Eu851 2.372 . S
O889 C903 1.257 . S
O890 Eu851 2.462 . S
O890 C915 1.252 . S
O891 Eu851 2.373 . S
O891 C907 1.249 . S
O892 Eu840 2.335 . S
O892 C907 1.264 . S
O893 Eu851 2.432 . S
O893 C915 1.268 . S
O894 Eu851 2.291 . S
O894 C914 1.255 . S
O895 Eu840 2.372 . S
O895 C914 1.257 . S
C896 O885 1.249 . S
C896 O886 1.264 . S
C897 C900 1.382 . S
C897 C902 1.390 . S
C897 C904 1.506 . S
C898 C899 1.398 . S
C898 C902 1.392 . S
C899 C898 1.398 . S
C899 C901 1.372 . S
C899 H916 0.931 . S
C900 C897 1.382 . S
C900 C901 1.390 . S
C900 H917 0.931 . S
C901 C899 1.372 . S
C901 C900 1.390 . S
C901 H918 0.929 . S
C902 C897 1.390 . S
C902 C898 1.392 . S
C902 H919 0.930 . S
C903 O888 1.255 . S
C903 O889 1.257 . S
C904 Eu840 2.787 . S
C904 O884 1.252 . S
C904 O887 1.268 . S
C904 C897 1.506 . S
C905 C872 1.439 . S
C905 H882 0.931 . S
C905 C906 1.374 . S
C906 C877 1.387 . S
C906 H883 0.931 . S
C906 C905 1.374 . S
C907 O891 1.249 . S
C907 O892 1.264 . S
C908 C911 1.382 . S
C908 C912 1.390 . S
C908 C915 1.506 . S
C909 C910 1.398 . S
C909 C912 1.392 . S
C910 C909 1.398 . S
C910 C913 1.372 . S
C910 H920 0.931 . S
C911 C908 1.382 . S
C911 C913 1.390 . S
C911 H921 0.931 . S
C912 C908 1.390 . S
C912 C909 1.392 . S
C912 H922 0.930 . S
C913 C910 1.372 . S
C913 C911 1.390 . S
C913 H923 0.929 . S
C914 O894 1.255 . S
C914 O895 1.257 . S
C915 Eu851 2.787 . S
C915 O890 1.252 . S
C915 O893 1.268 . S
C915 C908 1.506 . S
H916 C899 0.931 . S
H917 C900 0.931 . S
H918 C901 0.929 . S
H919 C902 0.930 . S
H920 C910 0.931 . S
H921 C911 0.931 . S
H922 C912 0.930 . S
H923 C913 0.929 . S
Eu924 N953 2.600 . S
Eu924 N959 2.562 . S
Eu924 O968 2.462 . S
Eu924 O969 2.373 . S
Eu924 O971 2.432 . S
Eu924 O972 2.291 . S
Eu924 O976 2.335 . S
Eu924 O979 2.372 . S
Eu924 C988 2.787 . S
C925 N926 1.365 . S
C925 C928 1.405 . S
C925 C932 1.448 . S
N926 C925 1.365 . S
N926 C929 1.319 . S
N926 Eu935 2.600 . S
C927 C929 1.397 . S
C927 C930 1.367 . S
C927 H947 0.931 . S
C928 C925 1.405 . S
C928 C930 1.403 . S
C928 C934 1.439 . S
C929 N926 1.319 . S
C929 C927 1.397 . S
C929 H940 0.930 . S
C930 C927 1.367 . S
C930 C928 1.403 . S
C930 H951 0.929 . S
C931 C932 1.430 . S
C931 C933 1.387 . S
C931 C937 1.404 . S
C932 C925 1.448 . S
C932 C931 1.430 . S
C932 N936 1.351 . S
C933 C931 1.387 . S
C933 C934 1.374 . S
C933 H948 0.931 . S
C934 C928 1.439 . S
C934 C933 1.374 . S
C934 H949 0.931 . S
Eu935 N926 2.600 . S
Eu935 N936 2.562 . S
Eu935 O970 2.335 . S
Eu935 O973 2.372 . S
Eu935 O974 2.462 . S
Eu935 O975 2.373 . S
Eu935 O977 2.432 . S
Eu935 O978 2.291 . S
Eu935 C999 2.787 . S
N936 C932 1.351 . S
N936 Eu935 2.562 . S
N936 C938 1.325 . S
C937 C931 1.404 . S
C937 C939 1.366 . S
C937 H945 0.930 . S
C938 N936 1.325 . S
C938 C939 1.416 . S
C938 H944 0.929 . S
C939 C937 1.366 . S
C939 C938 1.416 . S
C939 H941 0.930 . S
H940 C929 0.930 . S
H941 C939 0.930 . S
H942 C957 0.930 . S
H943 C964 0.930 . S
H944 C938 0.929 . S
H945 C937 0.930 . S
H946 C960 0.929 . S
H947 C927 0.931 . S
H948 C933 0.931 . S
H949 C934 0.931 . S
H950 C955 0.931 . S
H951 C930 0.929 . S
H952 C963 0.930 . S
N953 Eu924 2.600 . S
N953 C954 1.377 . S
N953 C957 1.319 1_565 S
C954 N953 1.377 . S
C954 C956 1.366 1_565 S
C954 C962 1.478 . S
C955 H950 0.931 . S
C955 C957 1.397 . S
C955 C958 1.367 . S
C956 C954 1.366 1_545 S
C956 C958 1.403 . S
C956 C989 1.439 . S
C957 H942 0.930 . S
C957 N953 1.319 1_545 S
C957 C955 1.397 . S
C958 C955 1.367 . S
C958 C956 1.403 . S
C958 H965 0.929 . S
N959 Eu924 2.562 . S
N959 C960 1.325 . S
N959 C962 1.351 . S
C960 H946 0.929 . S
C960 N959 1.325 . S
C960 C964 1.416 . S
C961 C962 1.430 . S
C961 C963 1.404 . S
C961 C990 1.387 1_565 S
C962 C954 1.478 . S
C962 N959 1.351 . S
C962 C961 1.430 . S
C963 H952 0.930 . S
C963 C961 1.404 . S
C963 C964 1.366 . S
C964 H943 0.930 . S
C964 C960 1.416 . S
C964 C963 1.366 . S
H965 C958 0.929 . S
H966 C989 0.931 . S
H967 C990 0.931 . S
O968 Eu924 2.462 . S
O968 C988 1.252 . S
O969 Eu924 2.373 . S
O969 C980 1.249 . S
O970 Eu935 2.335 . S
O970 C980 1.264 . S
O971 Eu924 2.432 . S
O971 C988 1.268 . S
O972 Eu924 2.291 . S
O972 C987 1.255 . S
O973 Eu935 2.372 . S
O973 C987 1.257 . S
O974 Eu935 2.462 . S
O974 C999 1.252 . S
O975 Eu935 2.373 . S
O975 C991 1.249 . S
O976 Eu924 2.335 . S
O976 C991 1.264 . S
O977 Eu935 2.432 . S
O977 C999 1.268 . S
O978 Eu935 2.291 . S
O978 C998 1.255 . S
O979 Eu924 2.372 . S
O979 C998 1.257 . S
C980 O969 1.249 . S
C980 O970 1.264 . S
C981 C984 1.382 . S
C981 C986 1.390 . S
C981 C988 1.506 . S
C982 C983 1.398 . S
C982 C986 1.392 . S
C983 C982 1.398 . S
C983 C985 1.372 . S
C983 H1000 0.931 . S
C984 C981 1.382 . S
C984 C985 1.390 . S
C984 H1001 0.931 . S
C985 C983 1.372 . S
C985 C984 1.390 . S
C985 H1002 0.929 . S
C986 C981 1.390 . S
C986 C982 1.392 . S
C986 H1003 0.930 . S
C987 O972 1.255 . S
C987 O973 1.257 . S
C988 Eu924 2.787 . S
C988 O968 1.252 . S
C988 O971 1.268 . S
C988 C981 1.506 . S
C989 C956 1.439 . S
C989 H966 0.931 . S
C989 C990 1.374 . S
C990 C961 1.387 1_545 S
C990 H967 0.931 . S
C990 C989 1.374 . S
C991 O975 1.249 . S
C991 O976 1.264 . S
C992 C995 1.382 . S
C992 C996 1.390 . S
C992 C999 1.506 . S
C993 C994 1.398 . S
C993 C996 1.392 . S
C994 C993 1.398 . S
C994 C997 1.372 . S
C994 H1004 0.931 . S
C995 C992 1.382 . S
C995 C997 1.390 . S
C995 H1005 0.931 . S
C996 C992 1.390 . S
C996 C993 1.392 . S
C996 H1006 0.930 . S
C997 C994 1.372 . S
C997 C995 1.390 . S
C997 H1007 0.929 . S
C998 O978 1.255 . S
C998 O979 1.257 . S
C999 Eu935 2.787 . S
C999 O974 1.252 . S
C999 O977 1.268 . S
C999 C992 1.506 . S
H1000 C983 0.931 . S
H1001 C984 0.931 . S
H1002 C985 0.929 . S
H1003 C986 0.930 . S
H1004 C994 0.931 . S
H1005 C995 0.931 . S
H1006 C996 0.930 . S
H1007 C997 0.929 . S
Eu1008 N1037 2.600 . S
Eu1008 N1043 2.562 . S
Eu1008 O1052 2.462 . S
Eu1008 O1053 2.373 . S
Eu1008 O1055 2.432 . S
Eu1008 O1056 2.291 . S
Eu1008 O1060 2.335 . S
Eu1008 O1063 2.372 . S
Eu1008 C1072 2.787 . S
C1009 N1010 1.365 . S
C1009 C1012 1.405 . S
C1009 C1016 1.448 . S
N1010 C1009 1.365 . S
N1010 C1013 1.319 . S
N1010 Eu1019 2.600 . S
C1011 C1013 1.397 . S
C1011 C1014 1.367 . S
C1011 H1031 0.931 . S
C1012 C1009 1.405 . S
C1012 C1014 1.403 . S
C1012 C1018 1.439 . S
C1013 N1010 1.319 . S
C1013 C1011 1.397 . S
C1013 H1024 0.930 . S
C1014 C1011 1.367 . S
C1014 C1012 1.403 . S
C1014 H1035 0.929 . S
C1015 C1016 1.430 . S
C1015 C1017 1.387 . S
C1015 C1021 1.404 . S
C1016 C1009 1.448 . S
C1016 C1015 1.430 . S
C1016 N1020 1.351 . S
C1017 C1015 1.387 . S
C1017 C1018 1.374 . S
C1017 H1032 0.931 . S
C1018 C1012 1.439 . S
C1018 C1017 1.374 . S
C1018 H1033 0.931 . S
Eu1019 N1010 2.600 . S
Eu1019 N1020 2.562 . S
Eu1019 O1054 2.335 . S
Eu1019 O1057 2.372 . S
Eu1019 O1058 2.462 . S
Eu1019 O1059 2.373 . S
Eu1019 O1061 2.432 . S
Eu1019 O1062 2.291 . S
Eu1019 C1083 2.787 . S
N1020 C1016 1.351 . S
N1020 Eu1019 2.562 . S
N1020 C1022 1.325 . S
C1021 C1015 1.404 . S
C1021 C1023 1.366 . S
C1021 H1029 0.930 . S
C1022 N1020 1.325 . S
C1022 C1023 1.416 . S
C1022 H1028 0.929 . S
C1023 C1021 1.366 . S
C1023 C1022 1.416 . S
C1023 H1025 0.930 . S
H1024 C1013 0.930 . S
H1025 C1023 0.930 . S
H1026 C1041 0.930 . S
H1027 C1048 0.930 . S
H1028 C1022 0.929 . S
H1029 C1021 0.930 . S
H1030 C1044 0.929 . S
H1031 C1011 0.931 . S
H1032 C1017 0.931 . S
H1033 C1018 0.931 . S
H1034 C1039 0.931 . S
H1035 C1014 0.929 . S
H1036 C1047 0.930 . S
N1037 Eu1008 2.600 . S
N1037 C1038 1.365 . S
N1037 C1041 1.319 . S
C1038 N1037 1.365 . S
C1038 C1040 1.405 . S
C1038 C1046 1.448 . S
C1039 H1034 0.931 . S
C1039 C1041 1.397 . S
C1039 C1042 1.367 . S
C1040 C1038 1.405 . S
C1040 C1042 1.403 . S
C1040 C1073 1.439 . S
C1041 H1026 0.930 . S
C1041 N1037 1.319 . S
C1041 C1039 1.397 . S
C1042 C1039 1.367 . S
C1042 C1040 1.403 . S
C1042 H1049 0.929 . S
N1043 Eu1008 2.562 . S
N1043 C1044 1.325 . S
N1043 C1046 1.351 . S
C1044 H1030 0.929 . S
C1044 N1043 1.325 . S
C1044 C1048 1.416 . S
C1045 C1046 1.430 . S
C1045 C1047 1.404 . S
C1045 C1074 1.387 . S
C1046 C1038 1.448 . S
C1046 N1043 1.351 . S
C1046 C1045 1.430 . S
C1047 H1036 0.930 . S
C1047 C1045 1.404 . S
C1047 C1048 1.366 . S
C1048 H1027 0.930 . S
C1048 C1044 1.416 . S
C1048 C1047 1.366 . S
H1049 C1042 0.929 . S
H1050 C1073 0.931 . S
H1051 C1074 0.931 . S
O1052 Eu1008 2.462 . S
O1052 C1072 1.252 . S
O1053 Eu1008 2.373 . S
O1053 C1064 1.249 . S
O1054 Eu1019 2.335 . S
O1054 C1064 1.264 . S
O1055 Eu1008 2.432 . S
O1055 C1072 1.268 . S
O1056 Eu1008 2.291 . S
O1056 C1071 1.255 . S
O1057 Eu1019 2.372 . S
O1057 C1071 1.257 . S
O1058 Eu1019 2.462 . S
O1058 C1083 1.252 . S
O1059 Eu1019 2.373 . S
O1059 C1075 1.249 . S
O1060 Eu1008 2.335 . S
O1060 C1075 1.264 . S
O1061 Eu1019 2.432 . S
O1061 C1083 1.268 . S
O1062 Eu1019 2.291 . S
O1062 C1082 1.255 . S
O1063 Eu1008 2.372 . S
O1063 C1082 1.257 . S
C1064 O1053 1.249 . S
C1064 O1054 1.264 . S
C1065 C1068 1.382 . S
C1065 C1070 1.390 . S
C1065 C1072 1.506 . S
C1066 C1067 1.398 . S
C1066 C1070 1.392 . S
C1067 C1066 1.398 . S
C1067 C1069 1.372 . S
C1067 H1084 0.931 . S
C1068 C1065 1.382 . S
C1068 C1069 1.390 . S
C1068 H1085 0.931 . S
C1069 C1067 1.372 . S
C1069 C1068 1.390 . S
C1069 H1086 0.929 . S
C1070 C1065 1.390 . S
C1070 C1066 1.392 . S
C1070 H1087 0.930 . S
C1071 O1056 1.255 . S
C1071 O1057 1.257 . S
C1072 Eu1008 2.787 . S
C1072 O1052 1.252 . S
C1072 O1055 1.268 . S
C1072 C1065 1.506 . S
C1073 C1040 1.439 . S
C1073 H1050 0.931 . S
C1073 C1074 1.374 . S
C1074 C1045 1.387 . S
C1074 H1051 0.931 . S
C1074 C1073 1.374 . S
C1075 O1059 1.249 . S
C1075 O1060 1.264 . S
C1076 C1079 1.382 . S
C1076 C1080 1.390 . S
C1076 C1083 1.506 . S
C1077 C1078 1.398 . S
C1077 C1080 1.392 . S
C1078 C1077 1.398 . S
C1078 C1081 1.372 . S
C1078 H1088 0.931 . S
C1079 C1076 1.382 . S
C1079 C1081 1.390 . S
C1079 H1089 0.931 . S
C1080 C1076 1.390 . S
C1080 C1077 1.392 . S
C1080 H1090 0.930 . S
C1081 C1078 1.372 . S
C1081 C1079 1.390 . S
C1081 H1091 0.929 . S
C1082 O1062 1.255 . S
C1082 O1063 1.257 . S
C1083 Eu1019 2.787 . S
C1083 O1058 1.252 . S
C1083 O1061 1.268 . S
C1083 C1076 1.506 . S
H1084 C1067 0.931 . S
H1085 C1068 0.931 . S
H1086 C1069 0.929 . S
H1087 C1070 0.930 . S
H1088 C1078 0.931 . S
H1089 C1079 0.931 . S
H1090 C1080 0.930 . S
H1091 C1081 0.929 . S
Eu1092 N1121 2.600 . S
Eu1092 N1127 2.562 . S
Eu1092 O1136 2.462 . S
Eu1092 O1137 2.373 . S
Eu1092 O1139 2.432 . S
Eu1092 O1140 2.291 . S
Eu1092 O1144 2.335 . S
Eu1092 O1147 2.372 . S
Eu1092 C1156 2.787 . S
C1093 N1094 1.365 . S
C1093 C1096 1.405 . S
C1093 C1100 1.448 . S
N1094 C1093 1.365 . S
N1094 C1097 1.319 . S
N1094 Eu1103 2.600 . S
C1095 C1097 1.397 . S
C1095 C1098 1.367 . S
C1095 H1115 0.931 . S
C1096 C1093 1.405 . S
C1096 C1098 1.403 . S
C1096 C1102 1.439 . S
C1097 N1094 1.319 . S
C1097 C1095 1.397 . S
C1097 H1108 0.930 . S
C1098 C1095 1.367 . S
C1098 C1096 1.403 . S
C1098 H1119 0.929 . S
C1099 C1100 1.430 . S
C1099 C1101 1.387 . S
C1099 C1105 1.404 . S
C1100 C1093 1.448 . S
C1100 C1099 1.430 . S
C1100 N1104 1.351 . S
C1101 C1099 1.387 . S
C1101 C1102 1.374 . S
C1101 H1116 0.931 . S
C1102 C1096 1.439 . S
C1102 C1101 1.374 . S
C1102 H1117 0.931 . S
Eu1103 N1094 2.600 . S
Eu1103 N1104 2.562 . S
Eu1103 O1138 2.335 . S
Eu1103 O1141 2.372 . S
Eu1103 O1142 2.462 . S
Eu1103 O1143 2.373 . S
Eu1103 O1145 2.432 . S
Eu1103 O1146 2.291 . S
Eu1103 C1167 2.787 . S
N1104 C1100 1.351 . S
N1104 Eu1103 2.562 . S
N1104 C1106 1.325 . S
C1105 C1099 1.404 . S
C1105 C1107 1.366 . S
C1105 H1113 0.930 . S
C1106 N1104 1.325 . S
C1106 C1107 1.416 . S
C1106 H1112 0.929 . S
C1107 C1105 1.366 . S
C1107 C1106 1.416 . S
C1107 H1109 0.930 . S
H1108 C1097 0.930 . S
H1109 C1107 0.930 . S
H1110 C1125 0.930 . S
H1111 C1132 0.930 . S
H1112 C1106 0.929 . S
H1113 C1105 0.930 . S
H1114 C1128 0.929 . S
H1115 C1095 0.931 . S
H1116 C1101 0.931 . S
H1117 C1102 0.931 . S
H1118 C1123 0.931 . S
H1119 C1098 0.929 . S
H1120 C1131 0.930 . S
N1121 Eu1092 2.600 . S
N1121 C1122 1.377 . S
N1121 C1125 1.319 1_545 S
C1122 N1121 1.377 . S
C1122 C1124 1.366 1_545 S
C1122 C1130 1.478 . S
C1123 H1118 0.931 . S
C1123 C1125 1.397 . S
C1123 C1126 1.367 . S
C1124 C1122 1.366 1_565 S
C1124 C1126 1.403 . S
C1124 C1157 1.439 . S
C1125 H1110 0.930 . S
C1125 N1121 1.319 1_565 S
C1125 C1123 1.397 . S
C1126 C1123 1.367 . S
C1126 C1124 1.403 . S
C1126 H1133 0.929 . S
N1127 Eu1092 2.562 . S
N1127 C1128 1.325 . S
N1127 C1130 1.351 . S
C1128 H1114 0.929 . S
C1128 N1127 1.325 . S
C1128 C1132 1.416 . S
C1129 C1130 1.430 . S
C1129 C1131 1.404 . S
C1129 C1158 1.387 1_545 S
C1130 C1122 1.478 . S
C1130 N1127 1.351 . S
C1130 C1129 1.430 . S
C1131 H1120 0.930 . S
C1131 C1129 1.404 . S
C1131 C1132 1.366 . S
C1132 H1111 0.930 . S
C1132 C1128 1.416 . S
C1132 C1131 1.366 . S
H1133 C1126 0.929 . S
H1134 C1157 0.931 . S
H1135 C1158 0.931 . S
O1136 Eu1092 2.462 . S
O1136 C1156 1.252 . S
O1137 Eu1092 2.373 . S
O1137 C1148 1.249 . S
O1138 Eu1103 2.335 . S
O1138 C1148 1.264 . S
O1139 Eu1092 2.432 . S
O1139 C1156 1.268 . S
O1140 Eu1092 2.291 . S
O1140 C1155 1.255 . S
O1141 Eu1103 2.372 . S
O1141 C1155 1.257 . S
O1142 Eu1103 2.462 . S
O1142 C1167 1.252 . S
O1143 Eu1103 2.373 . S
O1143 C1159 1.249 . S
O1144 Eu1092 2.335 . S
O1144 C1159 1.264 . S
O1145 Eu1103 2.432 . S
O1145 C1167 1.268 . S
O1146 Eu1103 2.291 . S
O1146 C1166 1.255 . S
O1147 Eu1092 2.372 . S
O1147 C1166 1.257 . S
C1148 O1137 1.249 . S
C1148 O1138 1.264 . S
C1149 C1152 1.382 . S
C1149 C1154 1.390 . S
C1149 C1156 1.506 . S
C1150 C1151 1.398 . S
C1150 C1154 1.392 . S
C1151 C1150 1.398 . S
C1151 C1153 1.372 . S
C1151 H1168 0.931 . S
C1152 C1149 1.382 . S
C1152 C1153 1.390 . S
C1152 H1169 0.931 . S
C1153 C1151 1.372 . S
C1153 C1152 1.390 . S
C1153 H1170 0.929 . S
C1154 C1149 1.390 . S
C1154 C1150 1.392 . S
C1154 H1171 0.930 . S
C1155 O1140 1.255 . S
C1155 O1141 1.257 . S
C1156 Eu1092 2.787 . S
C1156 O1136 1.252 . S
C1156 O1139 1.268 . S
C1156 C1149 1.506 . S
C1157 C1124 1.439 . S
C1157 H1134 0.931 . S
C1157 C1158 1.374 . S
C1158 C1129 1.387 1_565 S
C1158 H1135 0.931 . S
C1158 C1157 1.374 . S
C1159 O1143 1.249 . S
C1159 O1144 1.264 . S
C1160 C1163 1.382 . S
C1160 C1164 1.390 . S
C1160 C1167 1.506 . S
C1161 C1162 1.398 . S
C1161 C1164 1.392 . S
C1162 C1161 1.398 . S
C1162 C1165 1.372 . S
C1162 H1172 0.931 . S
C1163 C1160 1.382 . S
C1163 C1165 1.390 . S
C1163 H1173 0.931 . S
C1164 C1160 1.390 . S
C1164 C1161 1.392 . S
C1164 H1174 0.930 . S
C1165 C1162 1.372 . S
C1165 C1163 1.390 . S
C1165 H1175 0.929 . S
C1166 O1146 1.255 . S
C1166 O1147 1.257 . S
C1167 Eu1103 2.787 . S
C1167 O1142 1.252 . S
C1167 O1145 1.268 . S
C1167 C1160 1.506 . S
H1168 C1151 0.931 . S
H1169 C1152 0.931 . S
H1170 C1153 0.929 . S
H1171 C1154 0.930 . S
H1172 C1162 0.931 . S
H1173 C1163 0.931 . S
H1174 C1164 0.930 . S
H1175 C1165 0.929 . S
Eu1176 N1205 2.600 . S
Eu1176 N1211 2.562 . S
Eu1176 O1220 2.462 . S
Eu1176 O1221 2.373 . S
Eu1176 O1223 2.432 . S
Eu1176 O1224 2.291 . S
Eu1176 O1228 2.335 . S
Eu1176 O1231 2.372 . S
Eu1176 C1240 2.787 . S
C1177 N1178 1.365 . S
C1177 C1180 1.405 . S
C1177 C1184 1.448 . S
N1178 C1177 1.365 . S
N1178 C1181 1.319 . S
N1178 Eu1187 2.600 . S
C1179 C1181 1.397 . S
C1179 C1182 1.367 . S
C1179 H1199 0.931 . S
C1180 C1177 1.405 . S
C1180 C1182 1.403 . S
C1180 C1186 1.439 . S
C1181 N1178 1.319 . S
C1181 C1179 1.397 . S
C1181 H1192 0.930 . S
C1182 C1179 1.367 . S
C1182 C1180 1.403 . S
C1182 H1203 0.929 . S
C1183 C1184 1.430 . S
C1183 C1185 1.387 . S
C1183 C1189 1.404 . S
C1184 C1177 1.448 . S
C1184 C1183 1.430 . S
C1184 N1188 1.351 . S
C1185 C1183 1.387 . S
C1185 C1186 1.374 . S
C1185 H1200 0.931 . S
C1186 C1180 1.439 . S
C1186 C1185 1.374 . S
C1186 H1201 0.931 . S
Eu1187 N1178 2.600 . S
Eu1187 N1188 2.562 . S
Eu1187 O1222 2.335 . S
Eu1187 O1225 2.372 . S
Eu1187 O1226 2.462 . S
Eu1187 O1227 2.373 . S
Eu1187 O1229 2.432 . S
Eu1187 O1230 2.291 . S
Eu1187 C1251 2.787 . S
N1188 C1184 1.351 . S
N1188 Eu1187 2.562 . S
N1188 C1190 1.325 . S
C1189 C1183 1.404 . S
C1189 C1191 1.366 . S
C1189 H1197 0.930 . S
C1190 N1188 1.325 . S
C1190 C1191 1.416 . S
C1190 H1196 0.929 . S
C1191 C1189 1.366 . S
C1191 C1190 1.416 . S
C1191 H1193 0.930 . S
H1192 C1181 0.930 . S
H1193 C1191 0.930 . S
H1194 C1209 0.930 . S
H1195 C1216 0.930 . S
H1196 C1190 0.929 . S
H1197 C1189 0.930 . S
H1198 C1212 0.929 . S
H1199 C1179 0.931 . S
H1200 C1185 0.931 . S
H1201 C1186 0.931 . S
H1202 C1207 0.931 . S
H1203 C1182 0.929 . S
H1204 C1215 0.930 . S
N1205 Eu1176 2.600 . S
N1205 C1206 1.365 . S
N1205 C1209 1.319 . S
C1206 N1205 1.365 . S
C1206 C1208 1.405 . S
C1206 C1214 1.448 . S
C1207 H1202 0.931 . S
C1207 C1209 1.397 . S
C1207 C1210 1.367 . S
C1208 C1206 1.405 . S
C1208 C1210 1.403 . S
C1208 C1241 1.439 . S
C1209 H1194 0.930 . S
C1209 N1205 1.319 . S
C1209 C1207 1.397 . S
C1210 C1207 1.367 . S
C1210 C1208 1.403 . S
C1210 H1217 0.929 . S
N1211 Eu1176 2.562 . S
N1211 C1212 1.325 . S
N1211 C1214 1.351 . S
C1212 H1198 0.929 . S
C1212 N1211 1.325 . S
C1212 C1216 1.416 . S
C1213 C1214 1.430 . S
C1213 C1215 1.404 . S
C1213 C1242 1.387 . S
C1214 C1206 1.448 . S
C1214 N1211 1.351 . S
C1214 C1213 1.430 . S
C1215 H1204 0.930 . S
C1215 C1213 1.404 . S
C1215 C1216 1.366 . S
C1216 H1195 0.930 . S
C1216 C1212 1.416 . S
C1216 C1215 1.366 . S
H1217 C1210 0.929 . S
H1218 C1241 0.931 . S
H1219 C1242 0.931 . S
O1220 Eu1176 2.462 . S
O1220 C1240 1.252 . S
O1221 Eu1176 2.373 . S
O1221 C1232 1.249 . S
O1222 Eu1187 2.335 . S
O1222 C1232 1.264 . S
O1223 Eu1176 2.432 . S
O1223 C1240 1.268 . S
O1224 Eu1176 2.291 . S
O1224 C1239 1.255 . S
O1225 Eu1187 2.372 . S
O1225 C1239 1.257 . S
O1226 Eu1187 2.462 . S
O1226 C1251 1.252 . S
O1227 Eu1187 2.373 . S
O1227 C1243 1.249 . S
O1228 Eu1176 2.335 . S
O1228 C1243 1.264 . S
O1229 Eu1187 2.432 . S
O1229 C1251 1.268 . S
O1230 Eu1187 2.291 . S
O1230 C1250 1.255 . S
O1231 Eu1176 2.372 . S
O1231 C1250 1.257 . S
C1232 O1221 1.249 . S
C1232 O1222 1.264 . S
C1233 C1236 1.382 . S
C1233 C1238 1.390 . S
C1233 C1240 1.506 . S
C1234 C1235 1.398 . S
C1234 C1238 1.392 . S
C1235 C1234 1.398 . S
C1235 C1237 1.372 . S
C1235 H1252 0.931 . S
C1236 C1233 1.382 . S
C1236 C1237 1.390 . S
C1236 H1253 0.931 . S
C1237 C1235 1.372 . S
C1237 C1236 1.390 . S
C1237 H1254 0.929 . S
C1238 C1233 1.390 . S
C1238 C1234 1.392 . S
C1238 H1255 0.930 . S
C1239 O1224 1.255 . S
C1239 O1225 1.257 . S
C1240 Eu1176 2.787 . S
C1240 O1220 1.252 . S
C1240 O1223 1.268 . S
C1240 C1233 1.506 . S
C1241 C1208 1.439 . S
C1241 H1218 0.931 . S
C1241 C1242 1.374 . S
C1242 C1213 1.387 . S
C1242 H1219 0.931 . S
C1242 C1241 1.374 . S
C1243 O1227 1.249 . S
C1243 O1228 1.264 . S
C1244 C1247 1.382 . S
C1244 C1248 1.390 . S
C1244 C1251 1.506 . S
C1245 C1246 1.398 . S
C1245 C1248 1.392 . S
C1246 C1245 1.398 . S
C1246 C1249 1.372 . S
C1246 H1256 0.931 . S
C1247 C1244 1.382 . S
C1247 C1249 1.390 . S
C1247 H1257 0.931 . S
C1248 C1244 1.390 . S
C1248 C1245 1.392 . S
C1248 H1258 0.930 . S
C1249 C1246 1.372 . S
C1249 C1247 1.390 . S
C1249 H1259 0.929 . S
C1250 O1230 1.255 . S
C1250 O1231 1.257 . S
C1251 Eu1187 2.787 . S
C1251 O1226 1.252 . S
C1251 O1229 1.268 . S
C1251 C1244 1.506 . S
H1252 C1235 0.931 . S
H1253 C1236 0.931 . S
H1254 C1237 0.929 . S
H1255 C1238 0.930 . S
H1256 C1246 0.931 . S
H1257 C1247 0.931 . S
H1258 C1248 0.930 . S
H1259 C1249 0.929 . S
Eu1260 N1289 2.600 . S
Eu1260 N1295 2.562 1_655 S
Eu1260 O1304 2.462 . S
Eu1260 O1305 2.373 . S
Eu1260 O1307 2.432 . S
Eu1260 O1308 2.291 . S
Eu1260 O1312 2.335 . S
Eu1260 O1315 2.372 . S
Eu1260 C1324 2.787 . S
C1261 N1262 1.365 . S
C1261 C1264 1.405 . S
C1261 C1268 1.448 . S
N1262 C1261 1.365 . S
N1262 C1265 1.319 . S
N1262 Eu1271 2.600 . S
C1263 C1265 1.397 . S
C1263 C1266 1.367 . S
C1263 H1283 0.931 . S
C1264 C1261 1.405 . S
C1264 C1266 1.403 . S
C1264 C1270 1.439 . S
C1265 N1262 1.319 . S
C1265 C1263 1.397 . S
C1265 H1276 0.930 . S
C1266 C1263 1.367 . S
C1266 C1264 1.403 . S
C1266 H1287 0.929 . S
C1267 C1268 1.430 . S
C1267 C1269 1.387 . S
C1267 C1273 1.404 . S
C1268 C1261 1.448 . S
C1268 C1267 1.430 . S
C1268 N1272 1.351 . S
C1269 C1267 1.387 . S
C1269 C1270 1.374 . S
C1269 H1284 0.931 . S
C1270 C1264 1.439 . S
C1270 C1269 1.374 . S
C1270 H1285 0.931 . S
Eu1271 N1262 2.600 . S
Eu1271 N1272 2.562 . S
Eu1271 O1306 2.335 . S
Eu1271 O1309 2.372 . S
Eu1271 O1310 2.462 . S
Eu1271 O1311 2.373 . S
Eu1271 O1313 2.432 . S
Eu1271 O1314 2.291 . S
Eu1271 C1335 2.787 . S
N1272 C1268 1.351 . S
N1272 Eu1271 2.562 . S
N1272 C1274 1.325 . S
C1273 C1267 1.404 . S
C1273 C1275 1.366 . S
C1273 H1281 0.930 . S
C1274 N1272 1.325 . S
C1274 C1275 1.416 . S
C1274 H1280 0.929 . S
C1275 C1273 1.366 . S
C1275 C1274 1.416 . S
C1275 H1277 0.930 . S
H1276 C1265 0.930 . S
H1277 C1275 0.930 . S
H1278 C1293 0.930 . S
H1279 C1300 0.930 . S
H1280 C1274 0.929 . S
H1281 C1273 0.930 . S
H1282 C1296 0.929 . S
H1283 C1263 0.931 . S
H1284 C1269 0.931 . S
H1285 C1270 0.931 . S
H1286 C1291 0.931 . S
H1287 C1266 0.929 . S
H1288 C1299 0.930 . S
N1289 Eu1260 2.600 . S
N1289 C1290 1.376 1_655 S
N1289 C1293 1.319 1_565 S
C1290 N1289 1.376 1_455 S
C1290 C1292 1.366 1_565 S
C1290 C1298 1.478 . S
C1291 H1286 0.931 . S
C1291 C1293 1.397 . S
C1291 C1294 1.367 . S
C1292 C1290 1.366 1_545 S
C1292 C1294 1.403 1_455 S
C1292 C1325 1.439 . S
C1293 H1278 0.930 . S
C1293 N1289 1.319 1_545 S
C1293 C1291 1.397 . S
C1294 C1291 1.367 . S
C1294 C1292 1.403 1_655 S
C1294 H1301 0.929 1_655 S
N1295 Eu1260 2.562 1_455 S
N1295 C1296 1.325 . S
N1295 C1298 1.351 . S
C1296 H1282 0.929 . S
C1296 N1295 1.325 . S
C1296 C1300 1.416 . S
C1297 C1298 1.430 . S
C1297 C1299 1.404 . S
C1297 C1326 1.387 1_565 S
C1298 C1290 1.478 . S
C1298 N1295 1.351 . S
C1298 C1297 1.430 . S
C1299 H1288 0.930 . S
C1299 C1297 1.404 . S
C1299 C1300 1.366 . S
C1300 H1279 0.930 . S
C1300 C1296 1.416 . S
C1300 C1299 1.366 . S
H1301 C1294 0.929 1_455 S
H1302 C1325 0.931 . S
H1303 C1326 0.931 . S
O1304 Eu1260 2.462 . S
O1304 C1324 1.252 . S
O1305 Eu1260 2.373 . S
O1305 C1316 1.249 . S
O1306 Eu1271 2.335 . S
O1306 C1316 1.264 . S
O1307 Eu1260 2.432 . S
O1307 C1324 1.268 . S
O1308 Eu1260 2.291 . S
O1308 C1323 1.255 . S
O1309 Eu1271 2.372 . S
O1309 C1323 1.257 . S
O1310 Eu1271 2.462 . S
O1310 C1335 1.252 . S
O1311 Eu1271 2.373 . S
O1311 C1327 1.249 . S
O1312 Eu1260 2.335 . S
O1312 C1327 1.264 . S
O1313 Eu1271 2.432 . S
O1313 C1335 1.268 . S
O1314 Eu1271 2.291 . S
O1314 C1334 1.255 . S
O1315 Eu1260 2.372 . S
O1315 C1334 1.257 . S
C1316 O1305 1.249 . S
C1316 O1306 1.264 . S
C1317 C1320 1.382 . S
C1317 C1322 1.390 . S
C1317 C1324 1.506 1_455 S
C1318 C1319 1.398 . S
C1318 C1322 1.392 . S
C1319 C1318 1.398 . S
C1319 C1321 1.372 . S
C1319 H1336 0.931 . S
C1320 C1317 1.382 . S
C1320 C1321 1.390 . S
C1320 H1337 0.931 . S
C1321 C1319 1.372 . S
C1321 C1320 1.390 . S
C1321 H1338 0.929 . S
C1322 C1317 1.390 . S
C1322 C1318 1.392 . S
C1322 H1339 0.930 . S
C1323 O1308 1.255 . S
C1323 O1309 1.257 . S
C1324 Eu1260 2.787 . S
C1324 O1304 1.252 . S
C1324 O1307 1.268 . S
C1324 C1317 1.506 1_655 S
C1325 C1292 1.439 . S
C1325 H1302 0.931 . S
C1325 C1326 1.374 . S
C1326 C1297 1.387 1_545 S
C1326 H1303 0.931 . S
C1326 C1325 1.374 . S
C1327 O1311 1.249 . S
C1327 O1312 1.264 . S
C1328 C1331 1.382 . S
C1328 C1332 1.390 . S
C1328 C1335 1.506 . S
C1329 C1330 1.398 . S
C1329 C1332 1.392 . S
C1330 C1329 1.398 . S
C1330 C1333 1.372 . S
C1330 H1340 0.931 . S
C1331 C1328 1.382 . S
C1331 C1333 1.390 . S
C1331 H1341 0.931 . S
C1332 C1328 1.390 . S
C1332 C1329 1.392 . S
C1332 H1342 0.930 . S
C1333 C1330 1.372 . S
C1333 C1331 1.390 . S
C1333 H1343 0.929 . S
C1334 O1314 1.255 . S
C1334 O1315 1.257 . S
C1335 Eu1271 2.787 . S
C1335 O1310 1.252 . S
C1335 O1313 1.268 . S
C1335 C1328 1.506 . S
H1336 C1319 0.931 . S
H1337 C1320 0.931 . S
H1338 C1321 0.929 . S
H1339 C1322 0.930 . S
H1340 C1330 0.931 . S
H1341 C1331 0.931 . S
H1342 C1332 0.930 . S
H1343 C1333 0.929 . S
Eu1344 N1373 2.600 . S
Eu1344 N1379 2.562 . S
Eu1344 O1388 2.462 . S
Eu1344 O1389 2.373 . S
Eu1344 O1391 2.432 . S
Eu1344 O1392 2.291 . S
Eu1344 O1396 2.335 . S
Eu1344 O1399 2.372 . S
Eu1344 C1408 2.787 . S
C1345 N1346 1.365 . S
C1345 C1348 1.405 . S
C1345 C1352 1.448 . S
N1346 C1345 1.365 . S
N1346 C1349 1.319 . S
N1346 Eu1355 2.600 . S
C1347 C1349 1.397 . S
C1347 C1350 1.367 . S
C1347 H1367 0.931 . S
C1348 C1345 1.405 . S
C1348 C1350 1.403 . S
C1348 C1354 1.439 . S
C1349 N1346 1.319 . S
C1349 C1347 1.397 . S
C1349 H1360 0.930 . S
C1350 C1347 1.367 . S
C1350 C1348 1.403 . S
C1350 H1371 0.929 . S
C1351 C1352 1.430 . S
C1351 C1353 1.387 . S
C1351 C1357 1.404 . S
C1352 C1345 1.448 . S
C1352 C1351 1.430 . S
C1352 N1356 1.351 . S
C1353 C1351 1.387 . S
C1353 C1354 1.374 . S
C1353 H1368 0.931 . S
C1354 C1348 1.439 . S
C1354 C1353 1.374 . S
C1354 H1369 0.931 . S
Eu1355 N1346 2.600 . S
Eu1355 N1356 2.562 . S
Eu1355 O1390 2.335 . S
Eu1355 O1393 2.372 . S
Eu1355 O1394 2.462 . S
Eu1355 O1395 2.373 . S
Eu1355 O1397 2.432 . S
Eu1355 O1398 2.291 . S
Eu1355 C1419 2.787 . S
N1356 C1352 1.351 . S
N1356 Eu1355 2.562 . S
N1356 C1358 1.325 . S
C1357 C1351 1.404 . S
C1357 C1359 1.366 . S
C1357 H1365 0.930 . S
C1358 N1356 1.325 . S
C1358 C1359 1.416 . S
C1358 H1364 0.929 . S
C1359 C1357 1.366 . S
C1359 C1358 1.416 . S
C1359 H1361 0.930 . S
H1360 C1349 0.930 . S
H1361 C1359 0.930 . S
H1362 C1377 0.930 . S
H1363 C1384 0.930 . S
H1364 C1358 0.929 . S
H1365 C1357 0.930 . S
H1366 C1380 0.929 . S
H1367 C1347 0.931 . S
H1368 C1353 0.931 . S
H1369 C1354 0.931 . S
H1370 C1375 0.931 . S
H1371 C1350 0.929 . S
H1372 C1383 0.930 . S
N1373 Eu1344 2.600 . S
N1373 C1374 1.365 . S
N1373 C1377 1.319 . S
C1374 N1373 1.365 . S
C1374 C1376 1.405 . S
C1374 C1382 1.448 . S
C1375 H1370 0.931 . S
C1375 C1377 1.397 . S
C1375 C1378 1.367 . S
C1376 C1374 1.405 . S
C1376 C1378 1.403 . S
C1376 C1409 1.439 . S
C1377 H1362 0.930 . S
C1377 N1373 1.319 . S
C1377 C1375 1.397 . S
C1378 C1375 1.367 . S
C1378 C1376 1.403 . S
C1378 H1385 0.929 . S
N1379 Eu1344 2.562 . S
N1379 C1380 1.325 . S
N1379 C1382 1.351 . S
C1380 H1366 0.929 . S
C1380 N1379 1.325 . S
C1380 C1384 1.416 . S
C1381 C1382 1.430 . S
C1381 C1383 1.404 . S
C1381 C1410 1.387 . S
C1382 C1374 1.448 . S
C1382 N1379 1.351 . S
C1382 C1381 1.430 . S
C1383 H1372 0.930 . S
C1383 C1381 1.404 . S
C1383 C1384 1.366 . S
C1384 H1363 0.930 . S
C1384 C1380 1.416 . S
C1384 C1383 1.366 . S
H1385 C1378 0.929 . S
H1386 C1409 0.931 . S
H1387 C1410 0.931 . S
O1388 Eu1344 2.462 . S
O1388 C1408 1.252 . S
O1389 Eu1344 2.373 . S
O1389 C1400 1.249 . S
O1390 Eu1355 2.335 . S
O1390 C1400 1.264 . S
O1391 Eu1344 2.432 . S
O1391 C1408 1.268 . S
O1392 Eu1344 2.291 . S
O1392 C1407 1.255 . S
O1393 Eu1355 2.372 . S
O1393 C1407 1.257 . S
O1394 Eu1355 2.462 . S
O1394 C1419 1.252 . S
O1395 Eu1355 2.373 . S
O1395 C1411 1.249 . S
O1396 Eu1344 2.335 . S
O1396 C1411 1.264 . S
O1397 Eu1355 2.432 . S
O1397 C1419 1.268 . S
O1398 Eu1355 2.291 . S
O1398 C1418 1.255 . S
O1399 Eu1344 2.372 . S
O1399 C1418 1.257 . S
C1400 O1389 1.249 . S
C1400 O1390 1.264 . S
C1401 C1404 1.382 . S
C1401 C1406 1.390 . S
C1401 C1408 1.506 . S
C1402 C1403 1.398 . S
C1402 C1406 1.392 . S
C1403 C1402 1.398 . S
C1403 C1405 1.372 . S
C1403 H1420 0.931 . S
C1404 C1401 1.382 . S
C1404 C1405 1.390 . S
C1404 H1421 0.931 . S
C1405 C1403 1.372 . S
C1405 C1404 1.390 . S
C1405 H1422 0.929 . S
C1406 C1401 1.390 . S
C1406 C1402 1.392 . S
C1406 H1423 0.930 . S
C1407 O1392 1.255 . S
C1407 O1393 1.257 . S
C1408 Eu1344 2.787 . S
C1408 O1388 1.252 . S
C1408 O1391 1.268 . S
C1408 C1401 1.506 . S
C1409 C1376 1.439 . S
C1409 H1386 0.931 . S
C1409 C1410 1.374 . S
C1410 C1381 1.387 . S
C1410 H1387 0.931 . S
C1410 C1409 1.374 . S
C1411 O1395 1.249 . S
C1411 O1396 1.264 . S
C1412 C1415 1.382 . S
C1412 C1416 1.390 . S
C1412 C1419 1.506 . S
C1413 C1414 1.398 . S
C1413 C1416 1.392 . S
C1414 C1413 1.398 . S
C1414 C1417 1.372 . S
C1414 H1424 0.931 . S
C1415 C1412 1.382 . S
C1415 C1417 1.390 . S
C1415 H1425 0.931 . S
C1416 C1412 1.390 . S
C1416 C1413 1.392 . S
C1416 H1426 0.930 . S
C1417 C1414 1.372 . S
C1417 C1415 1.390 . S
C1417 H1427 0.929 . S
C1418 O1398 1.255 . S
C1418 O1399 1.257 . S
C1419 Eu1355 2.787 . S
C1419 O1394 1.252 . S
C1419 O1397 1.268 . S
C1419 C1412 1.506 . S
H1420 C1403 0.931 . S
H1421 C1404 0.931 . S
H1422 C1405 0.929 . S
H1423 C1406 0.930 . S
H1424 C1414 0.931 . S
H1425 C1415 0.931 . S
H1426 C1416 0.930 . S
H1427 C1417 0.929 . S
Eu1428 N1457 2.600 . S
Eu1428 N1463 2.562 . S
Eu1428 O1472 2.462 . S
Eu1428 O1473 2.373 . S
Eu1428 O1475 2.432 . S
Eu1428 O1476 2.291 . S
Eu1428 O1480 2.335 . S
Eu1428 O1483 2.372 . S
Eu1428 C1492 2.787 . S
C1429 N1430 1.365 . S
C1429 C1432 1.405 . S
C1429 C1436 1.448 . S
N1430 C1429 1.365 . S
N1430 C1433 1.319 . S
N1430 Eu1439 2.600 . S
C1431 C1433 1.397 . S
C1431 C1434 1.367 . S
C1431 H1451 0.931 . S
C1432 C1429 1.405 . S
C1432 C1434 1.403 . S
C1432 C1438 1.439 . S
C1433 N1430 1.319 . S
C1433 C1431 1.397 . S
C1433 H1444 0.930 . S
C1434 C1431 1.367 . S
C1434 C1432 1.403 . S
C1434 H1455 0.929 . S
C1435 C1436 1.430 . S
C1435 C1437 1.387 . S
C1435 C1441 1.404 . S
C1436 C1429 1.448 . S
C1436 C1435 1.430 . S
C1436 N1440 1.351 . S
C1437 C1435 1.387 . S
C1437 C1438 1.374 . S
C1437 H1452 0.931 . S
C1438 C1432 1.439 . S
C1438 C1437 1.374 . S
C1438 H1453 0.931 . S
Eu1439 N1430 2.600 . S
Eu1439 N1440 2.562 . S
Eu1439 O1474 2.335 . S
Eu1439 O1477 2.372 . S
Eu1439 O1478 2.462 . S
Eu1439 O1479 2.373 . S
Eu1439 O1481 2.432 . S
Eu1439 O1482 2.291 . S
Eu1439 C1503 2.787 . S
N1440 C1436 1.351 . S
N1440 Eu1439 2.562 . S
N1440 C1442 1.325 . S
C1441 C1435 1.404 . S
C1441 C1443 1.366 . S
C1441 H1449 0.930 . S
C1442 N1440 1.325 . S
C1442 C1443 1.416 . S
C1442 H1448 0.929 . S
C1443 C1441 1.366 . S
C1443 C1442 1.416 . S
C1443 H1445 0.930 . S
H1444 C1433 0.930 . S
H1445 C1443 0.930 . S
H1446 C1461 0.930 . S
H1447 C1468 0.930 . S
H1448 C1442 0.929 . S
H1449 C1441 0.930 . S
H1450 C1464 0.929 . S
H1451 C1431 0.931 . S
H1452 C1437 0.931 . S
H1453 C1438 0.931 . S
H1454 C1459 0.931 . S
H1455 C1434 0.929 . S
H1456 C1467 0.930 . S
N1457 Eu1428 2.600 . S
N1457 C1458 1.365 . S
N1457 C1461 1.319 . S
C1458 N1457 1.365 . S
C1458 C1460 1.405 . S
C1458 C1466 1.448 . S
C1459 H1454 0.931 . S
C1459 C1461 1.397 . S
C1459 C1462 1.367 . S
C1460 C1458 1.405 . S
C1460 C1462 1.403 . S
C1460 C1493 1.439 . S
C1461 H1446 0.930 . S
C1461 N1457 1.319 . S
C1461 C1459 1.397 . S
C1462 C1459 1.367 . S
C1462 C1460 1.403 . S
C1462 H1469 0.929 . S
N1463 Eu1428 2.562 . S
N1463 C1464 1.325 . S
N1463 C1466 1.351 . S
C1464 H1450 0.929 . S
C1464 N1463 1.325 . S
C1464 C1468 1.416 . S
C1465 C1466 1.430 . S
C1465 C1467 1.404 . S
C1465 C1494 1.387 . S
C1466 C1458 1.448 . S
C1466 N1463 1.351 . S
C1466 C1465 1.430 . S
C1467 H1456 0.930 . S
C1467 C1465 1.404 . S
C1467 C1468 1.366 . S
C1468 H1447 0.930 . S
C1468 C1464 1.416 . S
C1468 C1467 1.366 . S
H1469 C1462 0.929 . S
H1470 C1493 0.931 . S
H1471 C1494 0.931 . S
O1472 Eu1428 2.462 . S
O1472 C1492 1.252 . S
O1473 Eu1428 2.373 . S
O1473 C1484 1.249 . S
O1474 Eu1439 2.335 . S
O1474 C1484 1.264 . S
O1475 Eu1428 2.432 . S
O1475 C1492 1.268 . S
O1476 Eu1428 2.291 . S
O1476 C1491 1.255 . S
O1477 Eu1439 2.372 . S
O1477 C1491 1.257 . S
O1478 Eu1439 2.462 . S
O1478 C1503 1.252 . S
O1479 Eu1439 2.373 . S
O1479 C1495 1.249 . S
O1480 Eu1428 2.335 . S
O1480 C1495 1.264 . S
O1481 Eu1439 2.432 . S
O1481 C1503 1.268 . S
O1482 Eu1439 2.291 . S
O1482 C1502 1.255 . S
O1483 Eu1428 2.372 . S
O1483 C1502 1.257 . S
C1484 O1473 1.249 . S
C1484 O1474 1.264 . S
C1485 C1488 1.382 . S
C1485 C1490 1.390 . S
C1485 C1492 1.506 . S
C1486 C1487 1.398 . S
C1486 C1490 1.392 . S
C1487 C1486 1.398 . S
C1487 C1489 1.372 . S
C1487 H1504 0.931 . S
C1488 C1485 1.382 . S
C1488 C1489 1.390 . S
C1488 H1505 0.931 . S
C1489 C1487 1.372 . S
C1489 C1488 1.390 . S
C1489 H1506 0.929 . S
C1490 C1485 1.390 . S
C1490 C1486 1.392 . S
C1490 H1507 0.930 . S
C1491 O1476 1.255 . S
C1491 O1477 1.257 . S
C1492 Eu1428 2.787 . S
C1492 O1472 1.252 . S
C1492 O1475 1.268 . S
C1492 C1485 1.506 . S
C1493 C1460 1.439 . S
C1493 H1470 0.931 . S
C1493 C1494 1.374 . S
C1494 C1465 1.387 . S
C1494 H1471 0.931 . S
C1494 C1493 1.374 . S
C1495 O1479 1.249 . S
C1495 O1480 1.264 . S
C1496 C1499 1.382 . S
C1496 C1500 1.390 . S
C1496 C1503 1.506 . S
C1497 C1498 1.398 . S
C1497 C1500 1.392 . S
C1498 C1497 1.398 . S
C1498 C1501 1.372 . S
C1498 H1508 0.931 . S
C1499 C1496 1.382 . S
C1499 C1501 1.390 . S
C1499 H1509 0.931 . S
C1500 C1496 1.390 . S
C1500 C1497 1.392 . S
C1500 H1510 0.930 . S
C1501 C1498 1.372 . S
C1501 C1499 1.390 . S
C1501 H1511 0.929 . S
C1502 O1482 1.255 . S
C1502 O1483 1.257 . S
C1503 Eu1439 2.787 . S
C1503 O1478 1.252 . S
C1503 O1481 1.268 . S
C1503 C1496 1.506 . S
H1504 C1487 0.931 . S
H1505 C1488 0.931 . S
H1506 C1489 0.929 . S
H1507 C1490 0.930 . S
H1508 C1498 0.931 . S
H1509 C1499 0.931 . S
H1510 C1500 0.930 . S
H1511 C1501 0.929 . S
Eu1512 N1541 2.600 . S
Eu1512 N1547 2.562 . S
Eu1512 O1556 2.462 . S
Eu1512 O1557 2.373 . S
Eu1512 O1559 2.432 . S
Eu1512 O1560 2.291 . S
Eu1512 O1564 2.335 . S
Eu1512 O1567 2.372 . S
Eu1512 C1576 2.787 . S
C1513 N1514 1.365 . S
C1513 C1516 1.405 . S
C1513 C1520 1.448 . S
N1514 C1513 1.365 . S
N1514 C1517 1.319 . S
N1514 Eu1523 2.600 . S
C1515 C1517 1.397 . S
C1515 C1518 1.367 . S
C1515 H1535 0.931 . S
C1516 C1513 1.405 . S
C1516 C1518 1.403 . S
C1516 C1522 1.439 . S
C1517 N1514 1.319 . S
C1517 C1515 1.397 . S
C1517 H1528 0.930 . S
C1518 C1515 1.367 . S
C1518 C1516 1.403 . S
C1518 H1539 0.929 . S
C1519 C1520 1.430 . S
C1519 C1521 1.387 . S
C1519 C1525 1.404 . S
C1520 C1513 1.448 . S
C1520 C1519 1.430 . S
C1520 N1524 1.351 . S
C1521 C1519 1.387 . S
C1521 C1522 1.374 . S
C1521 H1536 0.931 . S
C1522 C1516 1.439 . S
C1522 C1521 1.374 . S
C1522 H1537 0.931 . S
Eu1523 N1514 2.600 . S
Eu1523 N1524 2.562 . S
Eu1523 O1558 2.335 . S
Eu1523 O1561 2.372 . S
Eu1523 O1562 2.462 . S
Eu1523 O1563 2.373 . S
Eu1523 O1565 2.432 . S
Eu1523 O1566 2.291 . S
Eu1523 C1587 2.787 . S
N1524 C1520 1.351 . S
N1524 Eu1523 2.562 . S
N1524 C1526 1.325 . S
C1525 C1519 1.404 . S
C1525 C1527 1.366 . S
C1525 H1533 0.930 . S
C1526 N1524 1.325 . S
C1526 C1527 1.416 . S
C1526 H1532 0.929 . S
C1527 C1525 1.366 . S
C1527 C1526 1.416 . S
C1527 H1529 0.930 . S
H1528 C1517 0.930 . S
H1529 C1527 0.930 . S
H1530 C1545 0.930 . S
H1531 C1552 0.930 . S
H1532 C1526 0.929 . S
H1533 C1525 0.930 . S
H1534 C1548 0.929 . S
H1535 C1515 0.931 . S
H1536 C1521 0.931 . S
H1537 C1522 0.931 . S
H1538 C1543 0.931 . S
H1539 C1518 0.929 . S
H1540 C1551 0.930 . S
N1541 Eu1512 2.600 . S
N1541 C1542 1.365 . S
N1541 C1545 1.319 . S
C1542 N1541 1.365 . S
C1542 C1544 1.405 . S
C1542 C1550 1.448 . S
C1543 H1538 0.931 . S
C1543 C1545 1.397 . S
C1543 C1546 1.367 . S
C1544 C1542 1.405 . S
C1544 C1546 1.403 . S
C1544 C1577 1.439 . S
C1545 H1530 0.930 . S
C1545 N1541 1.319 . S
C1545 C1543 1.397 . S
C1546 C1543 1.367 . S
C1546 C1544 1.403 . S
C1546 H1553 0.929 . S
N1547 Eu1512 2.562 . S
N1547 C1548 1.325 . S
N1547 C1550 1.351 . S
C1548 H1534 0.929 . S
C1548 N1547 1.325 . S
C1548 C1552 1.416 . S
C1549 C1550 1.430 . S
C1549 C1551 1.404 . S
C1549 C1578 1.387 . S
C1550 C1542 1.448 . S
C1550 N1547 1.351 . S
C1550 C1549 1.430 . S
C1551 H1540 0.930 . S
C1551 C1549 1.404 . S
C1551 C1552 1.366 . S
C1552 H1531 0.930 . S
C1552 C1548 1.416 . S
C1552 C1551 1.366 . S
H1553 C1546 0.929 . S
H1554 C1577 0.931 . S
H1555 C1578 0.931 . S
O1556 Eu1512 2.462 . S
O1556 C1576 1.252 . S
O1557 Eu1512 2.373 . S
O1557 C1568 1.249 . S
O1558 Eu1523 2.335 . S
O1558 C1568 1.264 . S
O1559 Eu1512 2.432 . S
O1559 C1576 1.268 . S
O1560 Eu1512 2.291 . S
O1560 C1575 1.255 . S
O1561 Eu1523 2.372 . S
O1561 C1575 1.257 . S
O1562 Eu1523 2.462 . S
O1562 C1587 1.252 . S
O1563 Eu1523 2.373 . S
O1563 C1579 1.249 . S
O1564 Eu1512 2.335 . S
O1564 C1579 1.264 . S
O1565 Eu1523 2.432 . S
O1565 C1587 1.268 . S
O1566 Eu1523 2.291 . S
O1566 C1586 1.255 . S
O1567 Eu1512 2.372 . S
O1567 C1586 1.257 . S
C1568 O1557 1.249 . S
C1568 O1558 1.264 . S
C1569 C1572 1.382 . S
C1569 C1574 1.390 . S
C1569 C1576 1.506 . S
C1570 C1571 1.398 . S
C1570 C1574 1.392 . S
C1571 C1570 1.398 . S
C1571 C1573 1.372 . S
C1571 H1588 0.931 . S
C1572 C1569 1.382 . S
C1572 C1573 1.390 . S
C1572 H1589 0.931 . S
C1573 C1571 1.372 . S
C1573 C1572 1.390 . S
C1573 H1590 0.929 . S
C1574 C1569 1.390 . S
C1574 C1570 1.392 . S
C1574 H1591 0.930 . S
C1575 O1560 1.255 . S
C1575 O1561 1.257 . S
C1576 Eu1512 2.787 . S
C1576 O1556 1.252 . S
C1576 O1559 1.268 . S
C1576 C1569 1.506 . S
C1577 C1544 1.439 . S
C1577 H1554 0.931 . S
C1577 C1578 1.374 . S
C1578 C1549 1.387 . S
C1578 H1555 0.931 . S
C1578 C1577 1.374 . S
C1579 O1563 1.249 . S
C1579 O1564 1.264 . S
C1580 C1583 1.382 . S
C1580 C1584 1.390 . S
C1580 C1587 1.506 . S
C1581 C1582 1.398 . S
C1581 C1584 1.392 . S
C1582 C1581 1.398 . S
C1582 C1585 1.372 . S
C1582 H1592 0.931 . S
C1583 C1580 1.382 . S
C1583 C1585 1.390 . S
C1583 H1593 0.931 . S
C1584 C1580 1.390 . S
C1584 C1581 1.392 . S
C1584 H1594 0.930 . S
C1585 C1582 1.372 . S
C1585 C1583 1.390 . S
C1585 H1595 0.929 . S
C1586 O1566 1.255 . S
C1586 O1567 1.257 . S
C1587 Eu1523 2.787 . S
C1587 O1562 1.252 . S
C1587 O1565 1.268 . S
C1587 C1580 1.506 . S
H1588 C1571 0.931 . S
H1589 C1572 0.931 . S
H1590 C1573 0.929 . S
H1591 C1574 0.930 . S
H1592 C1582 0.931 . S
H1593 C1583 0.931 . S
H1594 C1584 0.930 . S
H1595 C1585 0.929 . S
Eu1596 N1625 2.600 . S
Eu1596 N1631 2.562 . S
Eu1596 O1640 2.462 . S
Eu1596 O1641 2.373 . S
Eu1596 O1643 2.432 . S
Eu1596 O1644 2.291 . S
Eu1596 O1648 2.335 . S
Eu1596 O1651 2.372 . S
Eu1596 C1660 2.787 . S
C1597 N1598 1.365 1_455 S
C1597 C1600 1.405 . S
C1597 C1604 1.448 . S
N1598 C1597 1.365 1_655 S
N1598 C1601 1.319 . S
N1598 Eu1607 2.600 . S
C1599 C1601 1.397 . S
C1599 C1602 1.367 . S
C1599 H1619 0.931 . S
C1600 C1597 1.405 . S
C1600 C1602 1.403 1_455 S
C1600 C1606 1.439 . S
C1601 N1598 1.319 . S
C1601 C1599 1.397 . S
C1601 H1612 0.930 . S
C1602 C1599 1.367 . S
C1602 C1600 1.403 1_655 S
C1602 H1623 0.929 1_655 S
C1603 C1604 1.430 . S
C1603 C1605 1.387 . S
C1603 C1609 1.404 . S
C1604 C1597 1.448 . S
C1604 C1603 1.430 . S
C1604 N1608 1.351 . S
C1605 C1603 1.387 . S
C1605 C1606 1.374 . S
C1605 H1620 0.931 . S
C1606 C1600 1.439 . S
C1606 C1605 1.374 . S
C1606 H1621 0.931 . S
Eu1607 N1598 2.600 . S
Eu1607 N1608 2.562 1_655 S
Eu1607 O1642 2.335 . S
Eu1607 O1645 2.372 . S
Eu1607 O1646 2.462 . S
Eu1607 O1647 2.373 . S
Eu1607 O1649 2.432 . S
Eu1607 O1650 2.291 . S
Eu1607 C1671 2.787 . S
N1608 C1604 1.351 . S
N1608 Eu1607 2.562 1_455 S
N1608 C1610 1.325 . S
C1609 C1603 1.404 . S
C1609 C1611 1.366 . S
C1609 H1617 0.930 . S
C1610 N1608 1.325 . S
C1610 C1611 1.416 . S
C1610 H1616 0.929 . S
C1611 C1609 1.366 . S
C1611 C1610 1.416 . S
C1611 H1613 0.930 . S
H1612 C1601 0.930 . S
H1613 C1611 0.930 . S
H1614 C1629 0.930 . S
H1615 C1636 0.930 . S
H1616 C1610 0.929 . S
H1617 C1609 0.930 . S
H1618 C1632 0.929 . S
H1619 C1599 0.931 . S
H1620 C1605 0.931 . S
H1621 C1606 0.931 . S
H1622 C1627 0.931 . S
H1623 C1602 0.929 1_455 S
H1624 C1635 0.930 . S
N1625 Eu1596 2.600 . S
N1625 C1626 1.365 . S
N1625 C1629 1.319 . S
C1626 N1625 1.365 . S
C1626 C1628 1.405 . S
C1626 C1634 1.448 . S
C1627 H1622 0.931 . S
C1627 C1629 1.397 . S
C1627 C1630 1.367 . S
C1628 C1626 1.405 . S
C1628 C1630 1.403 . S
C1628 C1661 1.439 . S
C1629 H1614 0.930 . S
C1629 N1625 1.319 . S
C1629 C1627 1.397 . S
C1630 C1627 1.367 . S
C1630 C1628 1.403 . S
C1630 H1637 0.929 . S
N1631 Eu1596 2.562 . S
N1631 C1632 1.325 . S
N1631 C1634 1.351 . S
C1632 H1618 0.929 . S
C1632 N1631 1.325 . S
C1632 C1636 1.416 . S
C1633 C1634 1.430 . S
C1633 C1635 1.404 . S
C1633 C1662 1.387 . S
C1634 C1626 1.448 . S
C1634 N1631 1.351 . S
C1634 C1633 1.430 . S
C1635 H1624 0.930 . S
C1635 C1633 1.404 . S
C1635 C1636 1.366 . S
C1636 H1615 0.930 . S
C1636 C1632 1.416 . S
C1636 C1635 1.366 . S
H1637 C1630 0.929 . S
H1638 C1661 0.931 . S
H1639 C1662 0.931 . S
O1640 Eu1596 2.462 . S
O1640 C1660 1.252 . S
O1641 Eu1596 2.373 . S
O1641 C1652 1.249 . S
O1642 Eu1607 2.335 . S
O1642 C1652 1.264 . S
O1643 Eu1596 2.432 . S
O1643 C1660 1.268 . S
O1644 Eu1596 2.291 . S
O1644 C1659 1.255 . S
O1645 Eu1607 2.372 . S
O1645 C1659 1.257 . S
O1646 Eu1607 2.462 . S
O1646 C1671 1.252 . S
O1647 Eu1607 2.373 . S
O1647 C1663 1.249 . S
O1648 Eu1596 2.335 . S
O1648 C1663 1.264 . S
O1649 Eu1607 2.432 . S
O1649 C1671 1.268 . S
O1650 Eu1607 2.291 . S
O1650 C1670 1.255 . S
O1651 Eu1596 2.372 . S
O1651 C1670 1.257 . S
C1652 O1641 1.249 . S
C1652 O1642 1.264 . S
C1653 C1656 1.382 . S
C1653 C1658 1.390 . S
C1653 C1660 1.506 . S
C1654 C1655 1.398 . S
C1654 C1658 1.392 . S
C1655 C1654 1.398 . S
C1655 C1657 1.372 . S
C1655 H1672 0.931 . S
C1656 C1653 1.382 . S
C1656 C1657 1.390 . S
C1656 H1673 0.931 . S
C1657 C1655 1.372 . S
C1657 C1656 1.390 . S
C1657 H1674 0.929 . S
C1658 C1653 1.390 . S
C1658 C1654 1.392 . S
C1658 H1675 0.930 . S
C1659 O1644 1.255 . S
C1659 O1645 1.257 . S
C1660 Eu1596 2.787 . S
C1660 O1640 1.252 . S
C1660 O1643 1.268 . S
C1660 C1653 1.506 . S
C1661 C1628 1.439 . S
C1661 H1638 0.931 . S
C1661 C1662 1.374 . S
C1662 C1633 1.387 . S
C1662 H1639 0.931 . S
C1662 C1661 1.374 . S
C1663 O1647 1.249 . S
C1663 O1648 1.264 . S
C1664 C1667 1.382 . S
C1664 C1668 1.390 . S
C1664 C1671 1.506 1_455 S
C1665 C1666 1.398 . S
C1665 C1668 1.392 . S
C1666 C1665 1.398 . S
C1666 C1669 1.372 . S
C1666 H1676 0.931 . S
C1667 C1664 1.382 . S
C1667 C1669 1.390 . S
C1667 H1677 0.931 . S
C1668 C1664 1.390 . S
C1668 C1665 1.392 . S
C1668 H1678 0.930 . S
C1669 C1666 1.372 . S
C1669 C1667 1.390 . S
C1669 H1679 0.929 . S
C1670 O1650 1.255 . S
C1670 O1651 1.257 . S
C1671 Eu1607 2.787 . S
C1671 O1646 1.252 . S
C1671 O1649 1.268 . S
C1671 C1664 1.506 1_655 S
H1672 C1655 0.931 . S
H1673 C1656 0.931 . S
H1674 C1657 0.929 . S
H1675 C1658 0.930 . S
H1676 C1666 0.931 . S
H1677 C1667 0.931 . S
H1678 C1668 0.930 . S
H1679 C1669 0.929 . S
Eu1680 N1709 2.600 . S
Eu1680 N1715 2.562 . S
Eu1680 O1724 2.462 . S
Eu1680 O1725 2.373 . S
Eu1680 O1727 2.432 . S
Eu1680 O1728 2.291 . S
Eu1680 O1732 2.335 . S
Eu1680 O1735 2.372 . S
Eu1680 C1744 2.787 . S
C1681 N1682 1.365 . S
C1681 C1684 1.405 . S
C1681 C1688 1.448 . S
N1682 C1681 1.365 . S
N1682 C1685 1.319 . S
N1682 Eu1691 2.600 . S
C1683 C1685 1.397 . S
C1683 C1686 1.367 . S
C1683 H1703 0.931 . S
C1684 C1681 1.405 . S
C1684 C1686 1.403 . S
C1684 C1690 1.439 . S
C1685 N1682 1.319 . S
C1685 C1683 1.397 . S
C1685 H1696 0.930 . S
C1686 C1683 1.367 . S
C1686 C1684 1.403 . S
C1686 H1707 0.929 . S
C1687 C1688 1.430 . S
C1687 C1689 1.387 . S
C1687 C1693 1.404 . S
C1688 C1681 1.448 . S
C1688 C1687 1.430 . S
C1688 N1692 1.351 . S
C1689 C1687 1.387 . S
C1689 C1690 1.374 . S
C1689 H1704 0.931 . S
C1690 C1684 1.439 . S
C1690 C1689 1.374 . S
C1690 H1705 0.931 . S
Eu1691 N1682 2.600 . S
Eu1691 N1692 2.562 . S
Eu1691 O1726 2.335 . S
Eu1691 O1729 2.372 . S
Eu1691 O1730 2.462 . S
Eu1691 O1731 2.373 . S
Eu1691 O1733 2.432 . S
Eu1691 O1734 2.291 . S
Eu1691 C1755 2.787 . S
N1692 C1688 1.351 . S
N1692 Eu1691 2.562 . S
N1692 C1694 1.325 . S
C1693 C1687 1.404 . S
C1693 C1695 1.366 . S
C1693 H1701 0.930 . S
C1694 N1692 1.325 . S
C1694 C1695 1.416 . S
C1694 H1700 0.929 . S
C1695 C1693 1.366 . S
C1695 C1694 1.416 . S
C1695 H1697 0.930 . S
H1696 C1685 0.930 . S
H1697 C1695 0.930 . S
H1698 C1713 0.930 . S
H1699 C1720 0.930 . S
H1700 C1694 0.929 . S
H1701 C1693 0.930 . S
H1702 C1716 0.929 . S
H1703 C1683 0.931 . S
H1704 C1689 0.931 . S
H1705 C1690 0.931 . S
H1706 C1711 0.931 . S
H1707 C1686 0.929 . S
H1708 C1719 0.930 . S
N1709 Eu1680 2.600 . S
N1709 C1710 1.365 . S
N1709 C1713 1.319 . S
C1710 N1709 1.365 . S
C1710 C1712 1.405 . S
C1710 C1718 1.448 . S
C1711 H1706 0.931 . S
C1711 C1713 1.397 . S
C1711 C1714 1.367 . S
C1712 C1710 1.405 . S
C1712 C1714 1.403 . S
C1712 C1745 1.439 . S
C1713 H1698 0.930 . S
C1713 N1709 1.319 . S
C1713 C1711 1.397 . S
C1714 C1711 1.367 . S
C1714 C1712 1.403 . S
C1714 H1721 0.929 . S
N1715 Eu1680 2.562 . S
N1715 C1716 1.325 . S
N1715 C1718 1.351 . S
C1716 H1702 0.929 . S
C1716 N1715 1.325 . S
C1716 C1720 1.416 . S
C1717 C1718 1.430 . S
C1717 C1719 1.404 . S
C1717 C1746 1.387 . S
C1718 C1710 1.448 . S
C1718 N1715 1.351 . S
C1718 C1717 1.430 . S
C1719 H1708 0.930 . S
C1719 C1717 1.404 . S
C1719 C1720 1.366 . S
C1720 H1699 0.930 . S
C1720 C1716 1.416 . S
C1720 C1719 1.366 . S
H1721 C1714 0.929 . S
H1722 C1745 0.931 . S
H1723 C1746 0.931 . S
O1724 Eu1680 2.462 . S
O1724 C1744 1.252 . S
O1725 Eu1680 2.373 . S
O1725 C1736 1.249 . S
O1726 Eu1691 2.335 . S
O1726 C1736 1.264 . S
O1727 Eu1680 2.432 . S
O1727 C1744 1.268 . S
O1728 Eu1680 2.291 . S
O1728 C1743 1.255 . S
O1729 Eu1691 2.372 . S
O1729 C1743 1.257 . S
O1730 Eu1691 2.462 . S
O1730 C1755 1.252 . S
O1731 Eu1691 2.373 . S
O1731 C1747 1.249 . S
O1732 Eu1680 2.335 . S
O1732 C1747 1.264 . S
O1733 Eu1691 2.432 . S
O1733 C1755 1.268 . S
O1734 Eu1691 2.291 . S
O1734 C1754 1.255 . S
O1735 Eu1680 2.372 . S
O1735 C1754 1.257 . S
C1736 O1725 1.249 . S
C1736 O1726 1.264 . S
C1737 C1740 1.382 . S
C1737 C1742 1.390 . S
C1737 C1744 1.506 . S
C1738 C1739 1.398 . S
C1738 C1742 1.392 . S
C1739 C1738 1.398 . S
C1739 C1741 1.372 . S
C1739 H1756 0.931 . S
C1740 C1737 1.382 . S
C1740 C1741 1.390 . S
C1740 H1757 0.931 . S
C1741 C1739 1.372 . S
C1741 C1740 1.390 . S
C1741 H1758 0.929 . S
C1742 C1737 1.390 . S
C1742 C1738 1.392 . S
C1742 H1759 0.930 . S
C1743 O1728 1.255 . S
C1743 O1729 1.257 . S
C1744 Eu1680 2.787 . S
C1744 O1724 1.252 . S
C1744 O1727 1.268 . S
C1744 C1737 1.506 . S
C1745 C1712 1.439 . S
C1745 H1722 0.931 . S
C1745 C1746 1.374 . S
C1746 C1717 1.387 . S
C1746 H1723 0.931 . S
C1746 C1745 1.374 . S
C1747 O1731 1.249 . S
C1747 O1732 1.264 . S
C1748 C1751 1.382 . S
C1748 C1752 1.390 . S
C1748 C1755 1.506 . S
C1749 C1750 1.398 . S
C1749 C1752 1.392 . S
C1750 C1749 1.398 . S
C1750 C1753 1.372 . S
C1750 H1760 0.931 . S
C1751 C1748 1.382 . S
C1751 C1753 1.390 . S
C1751 H1761 0.931 . S
C1752 C1748 1.390 . S
C1752 C1749 1.392 . S
C1752 H1762 0.930 . S
C1753 C1750 1.372 . S
C1753 C1751 1.390 . S
C1753 H1763 0.929 . S
C1754 O1734 1.255 . S
C1754 O1735 1.257 . S
C1755 Eu1691 2.787 . S
C1755 O1730 1.252 . S
C1755 O1733 1.268 . S
C1755 C1748 1.506 . S
H1756 C1739 0.931 . S
H1757 C1740 0.931 . S
H1758 C1741 0.929 . S
H1759 C1742 0.930 . S
H1760 C1750 0.931 . S
H1761 C1751 0.931 . S
H1762 C1752 0.930 . S
H1763 C1753 0.929 . S
Eu1764 N1793 2.600 . S
Eu1764 N1799 2.562 . S
Eu1764 O1808 2.462 . S
Eu1764 O1809 2.373 . S
Eu1764 O1811 2.432 . S
Eu1764 O1812 2.291 . S
Eu1764 O1816 2.335 . S
Eu1764 O1819 2.372 . S
Eu1764 C1828 2.787 . S
C1765 N1766 1.365 1_455 S
C1765 C1768 1.405 . S
C1765 C1772 1.448 . S
N1766 C1765 1.365 1_655 S
N1766 C1769 1.319 . S
N1766 Eu1775 2.600 . S
C1767 C1769 1.397 . S
C1767 C1770 1.367 . S
C1767 H1787 0.931 . S
C1768 C1765 1.405 . S
C1768 C1770 1.403 1_455 S
C1768 C1774 1.439 . S
C1769 N1766 1.319 . S
C1769 C1767 1.397 . S
C1769 H1780 0.930 . S
C1770 C1767 1.367 . S
C1770 C1768 1.403 1_655 S
C1770 H1791 0.929 1_655 S
C1771 C1772 1.430 . S
C1771 C1773 1.387 . S
C1771 C1777 1.404 . S
C1772 C1765 1.448 . S
C1772 C1771 1.430 . S
C1772 N1776 1.351 . S
C1773 C1771 1.387 . S
C1773 C1774 1.374 . S
C1773 H1788 0.931 . S
C1774 C1768 1.439 . S
C1774 C1773 1.374 . S
C1774 H1789 0.931 . S
Eu1775 N1766 2.600 . S
Eu1775 N1776 2.562 1_655 S
Eu1775 O1810 2.335 . S
Eu1775 O1813 2.372 . S
Eu1775 O1814 2.462 . S
Eu1775 O1815 2.373 . S
Eu1775 O1817 2.432 . S
Eu1775 O1818 2.291 . S
Eu1775 C1839 2.787 . S
N1776 C1772 1.351 . S
N1776 Eu1775 2.562 1_455 S
N1776 C1778 1.325 . S
C1777 C1771 1.404 . S
C1777 C1779 1.366 . S
C1777 H1785 0.930 . S
C1778 N1776 1.325 . S
C1778 C1779 1.416 . S
C1778 H1784 0.929 . S
C1779 C1777 1.366 . S
C1779 C1778 1.416 . S
C1779 H1781 0.930 . S
H1780 C1769 0.930 . S
H1781 C1779 0.930 . S
H1782 C1797 0.930 . S
H1783 C1804 0.930 . S
H1784 C1778 0.929 . S
H1785 C1777 0.930 . S
H1786 C1800 0.929 . S
H1787 C1767 0.931 . S
H1788 C1773 0.931 . S
H1789 C1774 0.931 . S
H1790 C1795 0.931 . S
H1791 C1770 0.929 1_455 S
H1792 C1803 0.930 . S
N1793 Eu1764 2.600 . S
N1793 C1794 1.365 . S
N1793 C1797 1.319 . S
C1794 N1793 1.365 . S
C1794 C1796 1.405 . S
C1794 C1802 1.448 . S
C1795 H1790 0.931 . S
C1795 C1797 1.397 . S
C1795 C1798 1.367 . S
C1796 C1794 1.405 . S
C1796 C1798 1.403 . S
C1796 C1829 1.439 . S
C1797 H1782 0.930 . S
C1797 N1793 1.319 . S
C1797 C1795 1.397 . S
C1798 C1795 1.367 . S
C1798 C1796 1.403 . S
C1798 H1805 0.929 . S
N1799 Eu1764 2.562 . S
N1799 C1800 1.325 . S
N1799 C1802 1.351 . S
C1800 H1786 0.929 . S
C1800 N1799 1.325 . S
C1800 C1804 1.416 . S
C1801 C1802 1.430 . S
C1801 C1803 1.404 . S
C1801 C1830 1.387 . S
C1802 C1794 1.448 . S
C1802 N1799 1.351 . S
C1802 C1801 1.430 . S
C1803 H1792 0.930 . S
C1803 C1801 1.404 . S
C1803 C1804 1.366 . S
C1804 H1783 0.930 . S
C1804 C1800 1.416 . S
C1804 C1803 1.366 . S
H1805 C1798 0.929 . S
H1806 C1829 0.931 . S
H1807 C1830 0.931 . S
O1808 Eu1764 2.462 . S
O1808 C1828 1.252 . S
O1809 Eu1764 2.373 . S
O1809 C1820 1.249 . S
O1810 Eu1775 2.335 . S
O1810 C1820 1.264 . S
O1811 Eu1764 2.432 . S
O1811 C1828 1.268 . S
O1812 Eu1764 2.291 . S
O1812 C1827 1.255 . S
O1813 Eu1775 2.372 . S
O1813 C1827 1.257 . S
O1814 Eu1775 2.462 . S
O1814 C1839 1.252 . S
O1815 Eu1775 2.373 . S
O1815 C1831 1.249 . S
O1816 Eu1764 2.335 . S
O1816 C1831 1.264 . S
O1817 Eu1775 2.432 . S
O1817 C1839 1.268 . S
O1818 Eu1775 2.291 . S
O1818 C1838 1.255 . S
O1819 Eu1764 2.372 . S
O1819 C1838 1.257 . S
C1820 O1809 1.249 . S
C1820 O1810 1.264 . S
C1821 C1824 1.382 . S
C1821 C1826 1.390 . S
C1821 C1828 1.506 . S
C1822 C1823 1.398 . S
C1822 C1826 1.392 . S
C1823 C1822 1.398 . S
C1823 C1825 1.372 . S
C1823 H1840 0.931 . S
C1824 C1821 1.382 . S
C1824 C1825 1.390 . S
C1824 H1841 0.931 . S
C1825 C1823 1.372 . S
C1825 C1824 1.390 . S
C1825 H1842 0.929 . S
C1826 C1821 1.390 . S
C1826 C1822 1.392 . S
C1826 H1843 0.930 . S
C1827 O1812 1.255 . S
C1827 O1813 1.257 . S
C1828 Eu1764 2.787 . S
C1828 O1808 1.252 . S
C1828 O1811 1.268 . S
C1828 C1821 1.506 . S
C1829 C1796 1.439 . S
C1829 H1806 0.931 . S
C1829 C1830 1.374 . S
C1830 C1801 1.387 . S
C1830 H1807 0.931 . S
C1830 C1829 1.374 . S
C1831 O1815 1.249 . S
C1831 O1816 1.264 . S
C1832 C1835 1.382 . S
C1832 C1836 1.390 . S
C1832 C1839 1.506 1_455 S
C1833 C1834 1.398 . S
C1833 C1836 1.392 . S
C1834 C1833 1.398 . S
C1834 C1837 1.372 . S
C1834 H1844 0.931 . S
C1835 C1832 1.382 . S
C1835 C1837 1.390 . S
C1835 H1845 0.931 . S
C1836 C1832 1.390 . S
C1836 C1833 1.392 . S
C1836 H1846 0.930 . S
C1837 C1834 1.372 . S
C1837 C1835 1.390 . S
C1837 H1847 0.929 . S
C1838 O1818 1.255 . S
C1838 O1819 1.257 . S
C1839 Eu1775 2.787 . S
C1839 O1814 1.252 . S
C1839 O1817 1.268 . S
C1839 C1832 1.506 1_655 S
H1840 C1823 0.931 . S
H1841 C1824 0.931 . S
H1842 C1825 0.929 . S
H1843 C1826 0.930 . S
H1844 C1834 0.931 . S
H1845 C1835 0.931 . S
H1846 C1836 0.930 . S
H1847 C1837 0.929 . S
Eu1848 N1877 2.600 . S
Eu1848 N1883 2.562 . S
Eu1848 O1892 2.462 . S
Eu1848 O1893 2.373 . S
Eu1848 O1895 2.432 . S
Eu1848 O1896 2.291 . S
Eu1848 O1900 2.335 . S
Eu1848 O1903 2.372 . S
Eu1848 C1912 2.787 . S
C1849 N1850 1.365 . S
C1849 C1852 1.405 . S
C1849 C1856 1.448 . S
N1850 C1849 1.365 . S
N1850 C1853 1.319 . S
N1850 Eu1859 2.600 . S
C1851 C1853 1.397 . S
C1851 C1854 1.367 . S
C1851 H1871 0.931 . S
C1852 C1849 1.405 . S
C1852 C1854 1.403 . S
C1852 C1858 1.439 . S
C1853 N1850 1.319 . S
C1853 C1851 1.397 . S
C1853 H1864 0.930 . S
C1854 C1851 1.367 . S
C1854 C1852 1.403 . S
C1854 H1875 0.929 . S
C1855 C1856 1.430 . S
C1855 C1857 1.387 . S
C1855 C1861 1.404 . S
C1856 C1849 1.448 . S
C1856 C1855 1.430 . S
C1856 N1860 1.351 . S
C1857 C1855 1.387 . S
C1857 C1858 1.374 . S
C1857 H1872 0.931 . S
C1858 C1852 1.439 . S
C1858 C1857 1.374 . S
C1858 H1873 0.931 . S
Eu1859 N1850 2.600 . S
Eu1859 N1860 2.562 . S
Eu1859 O1894 2.335 . S
Eu1859 O1897 2.372 . S
Eu1859 O1898 2.462 . S
Eu1859 O1899 2.373 . S
Eu1859 O1901 2.432 . S
Eu1859 O1902 2.291 . S
Eu1859 C1923 2.787 . S
N1860 C1856 1.351 . S
N1860 Eu1859 2.562 . S
N1860 C1862 1.325 . S
C1861 C1855 1.404 . S
C1861 C1863 1.366 . S
C1861 H1869 0.930 . S
C1862 N1860 1.325 . S
C1862 C1863 1.416 . S
C1862 H1868 0.929 . S
C1863 C1861 1.366 . S
C1863 C1862 1.416 . S
C1863 H1865 0.930 . S
H1864 C1853 0.930 . S
H1865 C1863 0.930 . S
H1866 C1881 0.930 . S
H1867 C1888 0.930 . S
H1868 C1862 0.929 . S
H1869 C1861 0.930 . S
H1870 C1884 0.929 . S
H1871 C1851 0.931 . S
H1872 C1857 0.931 . S
H1873 C1858 0.931 . S
H1874 C1879 0.931 . S
H1875 C1854 0.929 . S
H1876 C1887 0.930 . S
N1877 Eu1848 2.600 . S
N1877 C1878 1.365 . S
N1877 C1881 1.319 . S
C1878 N1877 1.365 . S
C1878 C1880 1.405 . S
C1878 C1886 1.448 . S
C1879 H1874 0.931 . S
C1879 C1881 1.397 . S
C1879 C1882 1.367 . S
C1880 C1878 1.405 . S
C1880 C1882 1.403 . S
C1880 C1913 1.439 . S
C1881 H1866 0.930 . S
C1881 N1877 1.319 . S
C1881 C1879 1.397 . S
C1882 C1879 1.367 . S
C1882 C1880 1.403 . S
C1882 H1889 0.929 . S
N1883 Eu1848 2.562 . S
N1883 C1884 1.325 . S
N1883 C1886 1.351 . S
C1884 H1870 0.929 . S
C1884 N1883 1.325 . S
C1884 C1888 1.416 . S
C1885 C1886 1.430 . S
C1885 C1887 1.404 . S
C1885 C1914 1.387 . S
C1886 C1878 1.448 . S
C1886 N1883 1.351 . S
C1886 C1885 1.430 . S
C1887 H1876 0.930 . S
C1887 C1885 1.404 . S
C1887 C1888 1.366 . S
C1888 H1867 0.930 . S
C1888 C1884 1.416 . S
C1888 C1887 1.366 . S
H1889 C1882 0.929 . S
H1890 C1913 0.931 . S
H1891 C1914 0.931 . S
O1892 Eu1848 2.462 . S
O1892 C1912 1.252 . S
O1893 Eu1848 2.373 . S
O1893 C1904 1.249 . S
O1894 Eu1859 2.335 . S
O1894 C1904 1.264 . S
O1895 Eu1848 2.432 . S
O1895 C1912 1.268 . S
O1896 Eu1848 2.291 . S
O1896 C1911 1.255 . S
O1897 Eu1859 2.372 . S
O1897 C1911 1.257 . S
O1898 Eu1859 2.462 . S
O1898 C1923 1.252 . S
O1899 Eu1859 2.373 . S
O1899 C1915 1.249 . S
O1900 Eu1848 2.335 . S
O1900 C1915 1.264 . S
O1901 Eu1859 2.432 . S
O1901 C1923 1.268 . S
O1902 Eu1859 2.291 . S
O1902 C1922 1.255 . S
O1903 Eu1848 2.372 . S
O1903 C1922 1.257 . S
C1904 O1893 1.249 . S
C1904 O1894 1.264 . S
C1905 C1908 1.382 . S
C1905 C1910 1.390 . S
C1905 C1912 1.506 . S
C1906 C1907 1.398 . S
C1906 C1910 1.392 . S
C1907 C1906 1.398 . S
C1907 C1909 1.372 . S
C1907 H1924 0.931 . S
C1908 C1905 1.382 . S
C1908 C1909 1.390 . S
C1908 H1925 0.931 . S
C1909 C1907 1.372 . S
C1909 C1908 1.390 . S
C1909 H1926 0.929 . S
C1910 C1905 1.390 . S
C1910 C1906 1.392 . S
C1910 H1927 0.930 . S
C1911 O1896 1.255 . S
C1911 O1897 1.257 . S
C1912 Eu1848 2.787 . S
C1912 O1892 1.252 . S
C1912 O1895 1.268 . S
C1912 C1905 1.506 . S
C1913 C1880 1.439 . S
C1913 H1890 0.931 . S
C1913 C1914 1.374 . S
C1914 C1885 1.387 . S
C1914 H1891 0.931 . S
C1914 C1913 1.374 . S
C1915 O1899 1.249 . S
C1915 O1900 1.264 . S
C1916 C1919 1.382 . S
C1916 C1920 1.390 . S
C1916 C1923 1.506 . S
C1917 C1918 1.398 . S
C1917 C1920 1.392 . S
C1918 C1917 1.398 . S
C1918 C1921 1.372 . S
C1918 H1928 0.931 . S
C1919 C1916 1.382 . S
C1919 C1921 1.390 . S
C1919 H1929 0.931 . S
C1920 C1916 1.390 . S
C1920 C1917 1.392 . S
C1920 H1930 0.930 . S
C1921 C1918 1.372 . S
C1921 C1919 1.390 . S
C1921 H1931 0.929 . S
C1922 O1902 1.255 . S
C1922 O1903 1.257 . S
C1923 Eu1859 2.787 . S
C1923 O1898 1.252 . S
C1923 O1901 1.268 . S
C1923 C1916 1.506 . S
H1924 C1907 0.931 . S
H1925 C1908 0.931 . S
H1926 C1909 0.929 . S
H1927 C1910 0.930 . S
H1928 C1918 0.931 . S
H1929 C1919 0.931 . S
H1930 C1920 0.930 . S
H1931 C1921 0.929 . S
Eu1932 N1961 2.600 . S
Eu1932 N1967 2.562 . S
Eu1932 O1976 2.462 . S
Eu1932 O1977 2.373 . S
Eu1932 O1979 2.432 . S
Eu1932 O1980 2.291 . S
Eu1932 O1984 2.335 . S
Eu1932 O1987 2.372 . S
Eu1932 C1996 2.787 . S
C1933 N1934 1.365 . S
C1933 C1936 1.405 . S
C1933 C1940 1.448 . S
N1934 C1933 1.365 . S
N1934 C1937 1.319 . S
N1934 Eu1943 2.600 . S
C1935 C1937 1.397 . S
C1935 C1938 1.367 . S
C1935 H1955 0.931 . S
C1936 C1933 1.405 . S
C1936 C1938 1.403 . S
C1936 C1942 1.439 . S
C1937 N1934 1.319 . S
C1937 C1935 1.397 . S
C1937 H1948 0.930 . S
C1938 C1935 1.367 . S
C1938 C1936 1.403 . S
C1938 H1959 0.929 . S
C1939 C1940 1.430 . S
C1939 C1941 1.387 . S
C1939 C1945 1.404 . S
C1940 C1933 1.448 . S
C1940 C1939 1.430 . S
C1940 N1944 1.351 . S
C1941 C1939 1.387 . S
C1941 C1942 1.374 . S
C1941 H1956 0.931 . S
C1942 C1936 1.439 . S
C1942 C1941 1.374 . S
C1942 H1957 0.931 . S
Eu1943 N1934 2.600 . S
Eu1943 N1944 2.562 . S
Eu1943 O1978 2.335 . S
Eu1943 O1981 2.372 . S
Eu1943 O1982 2.462 . S
Eu1943 O1983 2.373 . S
Eu1943 O1985 2.432 . S
Eu1943 O1986 2.291 . S
Eu1943 C2007 2.787 . S
N1944 C1940 1.351 . S
N1944 Eu1943 2.562 . S
N1944 C1946 1.325 . S
C1945 C1939 1.404 . S
C1945 C1947 1.366 . S
C1945 H1953 0.930 . S
C1946 N1944 1.325 . S
C1946 C1947 1.416 . S
C1946 H1952 0.929 . S
C1947 C1945 1.366 . S
C1947 C1946 1.416 . S
C1947 H1949 0.930 . S
H1948 C1937 0.930 . S
H1949 C1947 0.930 . S
H1950 C1965 0.930 . S
H1951 C1972 0.930 . S
H1952 C1946 0.929 . S
H1953 C1945 0.930 . S
H1954 C1968 0.929 . S
H1955 C1935 0.931 . S
H1956 C1941 0.931 . S
H1957 C1942 0.931 . S
H1958 C1963 0.931 . S
H1959 C1938 0.929 . S
H1960 C1971 0.930 . S
N1961 Eu1932 2.600 . S
N1961 C1962 1.365 . S
N1961 C1965 1.319 . S
C1962 N1961 1.365 . S
C1962 C1964 1.405 . S
C1962 C1970 1.448 . S
C1963 H1958 0.931 . S
C1963 C1965 1.397 . S
C1963 C1966 1.367 . S
C1964 C1962 1.405 . S
C1964 C1966 1.403 . S
C1964 C1997 1.439 . S
C1965 H1950 0.930 . S
C1965 N1961 1.319 . S
C1965 C1963 1.397 . S
C1966 C1963 1.367 . S
C1966 C1964 1.403 . S
C1966 H1973 0.929 . S
N1967 Eu1932 2.562 . S
N1967 C1968 1.325 . S
N1967 C1970 1.351 . S
C1968 H1954 0.929 . S
C1968 N1967 1.325 . S
C1968 C1972 1.416 . S
C1969 C1970 1.430 . S
C1969 C1971 1.404 . S
C1969 C1998 1.387 . S
C1970 C1962 1.448 . S
C1970 N1967 1.351 . S
C1970 C1969 1.430 . S
C1971 H1960 0.930 . S
C1971 C1969 1.404 . S
C1971 C1972 1.366 . S
C1972 H1951 0.930 . S
C1972 C1968 1.416 . S
C1972 C1971 1.366 . S
H1973 C1966 0.929 . S
H1974 C1997 0.931 . S
H1975 C1998 0.931 . S
O1976 Eu1932 2.462 . S
O1976 C1996 1.252 . S
O1977 Eu1932 2.373 . S
O1977 C1988 1.249 . S
O1978 Eu1943 2.335 . S
O1978 C1988 1.264 . S
O1979 Eu1932 2.432 . S
O1979 C1996 1.268 . S
O1980 Eu1932 2.291 . S
O1980 C1995 1.255 . S
O1981 Eu1943 2.372 . S
O1981 C1995 1.257 . S
O1982 Eu1943 2.462 . S
O1982 C2007 1.252 . S
O1983 Eu1943 2.373 . S
O1983 C1999 1.249 . S
O1984 Eu1932 2.335 . S
O1984 C1999 1.264 . S
O1985 Eu1943 2.432 . S
O1985 C2007 1.268 . S
O1986 Eu1943 2.291 . S
O1986 C2006 1.255 . S
O1987 Eu1932 2.372 . S
O1987 C2006 1.257 . S
C1988 O1977 1.249 . S
C1988 O1978 1.264 . S
C1989 C1992 1.382 . S
C1989 C1994 1.390 . S
C1989 C1996 1.506 . S
C1990 C1991 1.398 . S
C1990 C1994 1.392 . S
C1991 C1990 1.398 . S
C1991 C1993 1.372 . S
C1991 H2008 0.931 . S
C1992 C1989 1.382 . S
C1992 C1993 1.390 . S
C1992 H2009 0.931 . S
C1993 C1991 1.372 . S
C1993 C1992 1.390 . S
C1993 H2010 0.929 . S
C1994 C1989 1.390 . S
C1994 C1990 1.392 . S
C1994 H2011 0.930 . S
C1995 O1980 1.255 . S
C1995 O1981 1.257 . S
C1996 Eu1932 2.787 . S
C1996 O1976 1.252 . S
C1996 O1979 1.268 . S
C1996 C1989 1.506 . S
C1997 C1964 1.439 . S
C1997 H1974 0.931 . S
C1997 C1998 1.374 . S
C1998 C1969 1.387 . S
C1998 H1975 0.931 . S
C1998 C1997 1.374 . S
C1999 O1983 1.249 . S
C1999 O1984 1.264 . S
C2000 C2003 1.382 . S
C2000 C2004 1.390 . S
C2000 C2007 1.506 . S
C2001 C2002 1.398 . S
C2001 C2004 1.392 . S
C2002 C2001 1.398 . S
C2002 C2005 1.372 . S
C2002 H2012 0.931 . S
C2003 C2000 1.382 . S
C2003 C2005 1.390 . S
C2003 H2013 0.931 . S
C2004 C2000 1.390 . S
C2004 C2001 1.392 . S
C2004 H2014 0.930 . S
C2005 C2002 1.372 . S
C2005 C2003 1.390 . S
C2005 H2015 0.929 . S
C2006 O1986 1.255 . S
C2006 O1987 1.257 . S
C2007 Eu1943 2.787 . S
C2007 O1982 1.252 . S
C2007 O1985 1.268 . S
C2007 C2000 1.506 . S
H2008 C1991 0.931 . S
H2009 C1992 0.931 . S
H2010 C1993 0.929 . S
H2011 C1994 0.930 . S
H2012 C2002 0.931 . S
H2013 C2003 0.931 . S
H2014 C2004 0.930 . S
H2015 C2005 0.929 . S
Eu2016 N2045 2.600 . S
Eu2016 N2051 2.562 . S
Eu2016 O2060 2.462 . S
Eu2016 O2061 2.373 . S
Eu2016 O2063 2.432 . S
Eu2016 O2064 2.291 . S
Eu2016 O2068 2.335 . S
Eu2016 O2071 2.372 . S
Eu2016 C2080 2.787 . S
C2017 N2018 1.365 . S
C2017 C2020 1.405 . S
C2017 C2024 1.448 . S
N2018 C2017 1.365 . S
N2018 C2021 1.319 . S
N2018 Eu2027 2.600 . S
C2019 C2021 1.397 . S
C2019 C2022 1.367 . S
C2019 H2039 0.931 . S
C2020 C2017 1.405 . S
C2020 C2022 1.403 . S
C2020 C2026 1.439 . S
C2021 N2018 1.319 . S
C2021 C2019 1.397 . S
C2021 H2032 0.930 . S
C2022 C2019 1.367 . S
C2022 C2020 1.403 . S
C2022 H2043 0.929 . S
C2023 C2024 1.430 . S
C2023 C2025 1.387 . S
C2023 C2029 1.404 . S
C2024 C2017 1.448 . S
C2024 C2023 1.430 . S
C2024 N2028 1.351 . S
C2025 C2023 1.387 . S
C2025 C2026 1.374 . S
C2025 H2040 0.931 . S
C2026 C2020 1.439 . S
C2026 C2025 1.374 . S
C2026 H2041 0.931 . S
Eu2027 N2018 2.600 . S
Eu2027 N2028 2.562 . S
Eu2027 O2062 2.335 . S
Eu2027 O2065 2.372 . S
Eu2027 O2066 2.462 . S
Eu2027 O2067 2.373 . S
Eu2027 O2069 2.432 . S
Eu2027 O2070 2.291 . S
Eu2027 C2091 2.787 . S
N2028 C2024 1.351 . S
N2028 Eu2027 2.562 . S
N2028 C2030 1.325 . S
C2029 C2023 1.404 . S
C2029 C2031 1.366 . S
C2029 H2037 0.930 . S
C2030 N2028 1.325 . S
C2030 C2031 1.416 . S
C2030 H2036 0.929 . S
C2031 C2029 1.366 . S
C2031 C2030 1.416 . S
C2031 H2033 0.930 . S
H2032 C2021 0.930 . S
H2033 C2031 0.930 . S
H2034 C2049 0.930 . S
H2035 C2056 0.930 . S
H2036 C2030 0.929 . S
H2037 C2029 0.930 . S
H2038 C2052 0.929 . S
H2039 C2019 0.931 . S
H2040 C2025 0.931 . S
H2041 C2026 0.931 . S
H2042 C2047 0.931 . S
H2043 C2022 0.929 . S
H2044 C2055 0.930 . S
N2045 Eu2016 2.600 . S
N2045 C2046 1.365 . S
N2045 C2049 1.319 . S
C2046 N2045 1.365 . S
C2046 C2048 1.405 . S
C2046 C2054 1.448 . S
C2047 H2042 0.931 . S
C2047 C2049 1.397 . S
C2047 C2050 1.367 . S
C2048 C2046 1.405 . S
C2048 C2050 1.403 . S
C2048 C2081 1.439 . S
C2049 H2034 0.930 . S
C2049 N2045 1.319 . S
C2049 C2047 1.397 . S
C2050 C2047 1.367 . S
C2050 C2048 1.403 . S
C2050 H2057 0.929 . S
N2051 Eu2016 2.562 . S
N2051 C2052 1.325 . S
N2051 C2054 1.351 . S
C2052 H2038 0.929 . S
C2052 N2051 1.325 . S
C2052 C2056 1.416 . S
C2053 C2054 1.430 . S
C2053 C2055 1.404 . S
C2053 C2082 1.387 . S
C2054 C2046 1.448 . S
C2054 N2051 1.351 . S
C2054 C2053 1.430 . S
C2055 H2044 0.930 . S
C2055 C2053 1.404 . S
C2055 C2056 1.366 . S
C2056 H2035 0.930 . S
C2056 C2052 1.416 . S
C2056 C2055 1.366 . S
H2057 C2050 0.929 . S
H2058 C2081 0.931 . S
H2059 C2082 0.931 . S
O2060 Eu2016 2.462 . S
O2060 C2080 1.252 . S
O2061 Eu2016 2.373 . S
O2061 C2072 1.249 . S
O2062 Eu2027 2.335 . S
O2062 C2072 1.264 . S
O2063 Eu2016 2.432 . S
O2063 C2080 1.268 . S
O2064 Eu2016 2.291 . S
O2064 C2079 1.255 . S
O2065 Eu2027 2.372 . S
O2065 C2079 1.257 . S
O2066 Eu2027 2.462 . S
O2066 C2091 1.252 . S
O2067 Eu2027 2.373 . S
O2067 C2083 1.249 . S
O2068 Eu2016 2.335 . S
O2068 C2083 1.264 . S
O2069 Eu2027 2.432 . S
O2069 C2091 1.268 . S
O2070 Eu2027 2.291 . S
O2070 C2090 1.255 . S
O2071 Eu2016 2.372 . S
O2071 C2090 1.257 . S
C2072 O2061 1.249 . S
C2072 O2062 1.264 . S
C2073 C2076 1.382 . S
C2073 C2078 1.390 . S
C2073 C2080 1.506 . S
C2074 C2075 1.398 . S
C2074 C2078 1.392 . S
C2075 C2074 1.398 . S
C2075 C2077 1.372 . S
C2075 H2092 0.931 . S
C2076 C2073 1.382 . S
C2076 C2077 1.390 . S
C2076 H2093 0.931 . S
C2077 C2075 1.372 . S
C2077 C2076 1.390 . S
C2077 H2094 0.929 . S
C2078 C2073 1.390 . S
C2078 C2074 1.392 . S
C2078 H2095 0.930 . S
C2079 O2064 1.255 . S
C2079 O2065 1.257 . S
C2080 Eu2016 2.787 . S
C2080 O2060 1.252 . S
C2080 O2063 1.268 . S
C2080 C2073 1.506 . S
C2081 C2048 1.439 . S
C2081 H2058 0.931 . S
C2081 C2082 1.374 . S
C2082 C2053 1.387 . S
C2082 H2059 0.931 . S
C2082 C2081 1.374 . S
C2083 O2067 1.249 . S
C2083 O2068 1.264 . S
C2084 C2087 1.382 . S
C2084 C2088 1.390 . S
C2084 C2091 1.506 . S
C2085 C2086 1.398 . S
C2085 C2088 1.392 . S
C2086 C2085 1.398 . S
C2086 C2089 1.372 . S
C2086 H2096 0.931 . S
C2087 C2084 1.382 . S
C2087 C2089 1.390 . S
C2087 H2097 0.931 . S
C2088 C2084 1.390 . S
C2088 C2085 1.392 . S
C2088 H2098 0.930 . S
C2089 C2086 1.372 . S
C2089 C2087 1.390 . S
C2089 H2099 0.929 . S
C2090 O2070 1.255 . S
C2090 O2071 1.257 . S
C2091 Eu2027 2.787 . S
C2091 O2066 1.252 . S
C2091 O2069 1.268 . S
C2091 C2084 1.506 . S
H2092 C2075 0.931 . S
H2093 C2076 0.931 . S
H2094 C2077 0.929 . S
H2095 C2078 0.930 . S
H2096 C2086 0.931 . S
H2097 C2087 0.931 . S
H2098 C2088 0.930 . S
H2099 C2089 0.929 . S
Eu2100 N2129 2.600 . S
Eu2100 N2135 2.562 . S
Eu2100 O2144 2.462 . S
Eu2100 O2145 2.373 . S
Eu2100 O2147 2.432 . S
Eu2100 O2148 2.291 . S
Eu2100 O2152 2.335 . S
Eu2100 O2155 2.372 . S
Eu2100 C2164 2.787 . S
C2101 N2102 1.365 . S
C2101 C2104 1.405 . S
C2101 C2108 1.448 . S
N2102 C2101 1.365 . S
N2102 C2105 1.319 . S
N2102 Eu2111 2.600 . S
C2103 C2105 1.397 . S
C2103 C2106 1.367 . S
C2103 H2123 0.931 . S
C2104 C2101 1.405 . S
C2104 C2106 1.403 . S
C2104 C2110 1.439 . S
C2105 N2102 1.319 . S
C2105 C2103 1.397 . S
C2105 H2116 0.930 . S
C2106 C2103 1.367 . S
C2106 C2104 1.403 . S
C2106 H2127 0.929 . S
C2107 C2108 1.430 . S
C2107 C2109 1.387 . S
C2107 C2113 1.404 . S
C2108 C2101 1.448 . S
C2108 C2107 1.430 . S
C2108 N2112 1.351 . S
C2109 C2107 1.387 . S
C2109 C2110 1.374 . S
C2109 H2124 0.931 . S
C2110 C2104 1.439 . S
C2110 C2109 1.374 . S
C2110 H2125 0.931 . S
Eu2111 N2102 2.600 . S
Eu2111 N2112 2.562 . S
Eu2111 O2146 2.335 . S
Eu2111 O2149 2.372 . S
Eu2111 O2150 2.462 . S
Eu2111 O2151 2.373 . S
Eu2111 O2153 2.432 . S
Eu2111 O2154 2.291 . S
Eu2111 C2175 2.787 . S
N2112 C2108 1.351 . S
N2112 Eu2111 2.562 . S
N2112 C2114 1.325 . S
C2113 C2107 1.404 . S
C2113 C2115 1.366 . S
C2113 H2121 0.930 . S
C2114 N2112 1.325 . S
C2114 C2115 1.416 . S
C2114 H2120 0.929 . S
C2115 C2113 1.366 . S
C2115 C2114 1.416 . S
C2115 H2117 0.930 . S
H2116 C2105 0.930 . S
H2117 C2115 0.930 . S
H2118 C2133 0.930 . S
H2119 C2140 0.930 . S
H2120 C2114 0.929 . S
H2121 C2113 0.930 . S
H2122 C2136 0.929 . S
H2123 C2103 0.931 . S
H2124 C2109 0.931 . S
H2125 C2110 0.931 . S
H2126 C2131 0.931 . S
H2127 C2106 0.929 . S
H2128 C2139 0.930 . S
N2129 Eu2100 2.600 . S
N2129 C2130 1.365 . S
N2129 C2133 1.319 . S
C2130 N2129 1.365 . S
C2130 C2132 1.405 . S
C2130 C2138 1.448 . S
C2131 H2126 0.931 . S
C2131 C2133 1.397 . S
C2131 C2134 1.367 . S
C2132 C2130 1.405 . S
C2132 C2134 1.403 . S
C2132 C2165 1.439 . S
C2133 H2118 0.930 . S
C2133 N2129 1.319 . S
C2133 C2131 1.397 . S
C2134 C2131 1.367 . S
C2134 C2132 1.403 . S
C2134 H2141 0.929 . S
N2135 Eu2100 2.562 . S
N2135 C2136 1.325 . S
N2135 C2138 1.351 . S
C2136 H2122 0.929 . S
C2136 N2135 1.325 . S
C2136 C2140 1.416 . S
C2137 C2138 1.430 . S
C2137 C2139 1.404 . S
C2137 C2166 1.387 . S
C2138 C2130 1.448 . S
C2138 N2135 1.351 . S
C2138 C2137 1.430 . S
C2139 H2128 0.930 . S
C2139 C2137 1.404 . S
C2139 C2140 1.366 . S
C2140 H2119 0.930 . S
C2140 C2136 1.416 . S
C2140 C2139 1.366 . S
H2141 C2134 0.929 . S
H2142 C2165 0.931 . S
H2143 C2166 0.931 . S
O2144 Eu2100 2.462 . S
O2144 C2164 1.252 . S
O2145 Eu2100 2.373 . S
O2145 C2156 1.249 . S
O2146 Eu2111 2.335 . S
O2146 C2156 1.264 . S
O2147 Eu2100 2.432 . S
O2147 C2164 1.268 . S
O2148 Eu2100 2.291 . S
O2148 C2163 1.255 . S
O2149 Eu2111 2.372 . S
O2149 C2163 1.257 . S
O2150 Eu2111 2.462 . S
O2150 C2175 1.252 . S
O2151 Eu2111 2.373 . S
O2151 C2167 1.249 . S
O2152 Eu2100 2.335 . S
O2152 C2167 1.264 . S
O2153 Eu2111 2.432 . S
O2153 C2175 1.268 . S
O2154 Eu2111 2.291 . S
O2154 C2174 1.255 . S
O2155 Eu2100 2.372 . S
O2155 C2174 1.257 . S
C2156 O2145 1.249 . S
C2156 O2146 1.264 . S
C2157 C2160 1.382 . S
C2157 C2162 1.390 . S
C2157 C2164 1.506 . S
C2158 C2159 1.398 . S
C2158 C2162 1.392 . S
C2159 C2158 1.398 . S
C2159 C2161 1.372 . S
C2159 H2176 0.931 . S
C2160 C2157 1.382 . S
C2160 C2161 1.390 . S
C2160 H2177 0.931 . S
C2161 C2159 1.372 . S
C2161 C2160 1.390 . S
C2161 H2178 0.929 . S
C2162 C2157 1.390 . S
C2162 C2158 1.392 . S
C2162 H2179 0.930 . S
C2163 O2148 1.255 . S
C2163 O2149 1.257 . S
C2164 Eu2100 2.787 . S
C2164 O2144 1.252 . S
C2164 O2147 1.268 . S
C2164 C2157 1.506 . S
C2165 C2132 1.439 . S
C2165 H2142 0.931 . S
C2165 C2166 1.374 . S
C2166 C2137 1.387 . S
C2166 H2143 0.931 . S
C2166 C2165 1.374 . S
C2167 O2151 1.249 . S
C2167 O2152 1.264 . S
C2168 C2171 1.382 . S
C2168 C2172 1.390 . S
C2168 C2175 1.506 . S
C2169 C2170 1.398 . S
C2169 C2172 1.392 . S
C2170 C2169 1.398 . S
C2170 C2173 1.372 . S
C2170 H2180 0.931 . S
C2171 C2168 1.382 . S
C2171 C2173 1.390 . S
C2171 H2181 0.931 . S
C2172 C2168 1.390 . S
C2172 C2169 1.392 . S
C2172 H2182 0.930 . S
C2173 C2170 1.372 . S
C2173 C2171 1.390 . S
C2173 H2183 0.929 . S
C2174 O2154 1.255 . S
C2174 O2155 1.257 . S
C2175 Eu2111 2.787 . S
C2175 O2150 1.252 . S
C2175 O2153 1.268 . S
C2175 C2168 1.506 . S
H2176 C2159 0.931 . S
H2177 C2160 0.931 . S
H2178 C2161 0.929 . S
H2179 C2162 0.930 . S
H2180 C2170 0.931 . S
H2181 C2171 0.931 . S
H2182 C2172 0.930 . S
H2183 C2173 0.929 . S
Eu2184 N2213 2.600 . S
Eu2184 N2219 2.562 . S
Eu2184 O2228 2.462 . S
Eu2184 O2229 2.373 . S
Eu2184 O2231 2.432 . S
Eu2184 O2232 2.291 . S
Eu2184 O2236 2.335 . S
Eu2184 O2239 2.372 . S
Eu2184 C2248 2.787 . S
C2185 N2186 1.365 . S
C2185 C2188 1.405 . S
C2185 C2192 1.448 . S
N2186 C2185 1.365 . S
N2186 C2189 1.319 . S
N2186 Eu2195 2.600 . S
C2187 C2189 1.397 . S
C2187 C2190 1.367 . S
C2187 H2207 0.931 . S
C2188 C2185 1.405 . S
C2188 C2190 1.403 . S
C2188 C2194 1.439 . S
C2189 N2186 1.319 . S
C2189 C2187 1.397 . S
C2189 H2200 0.930 . S
C2190 C2187 1.367 . S
C2190 C2188 1.403 . S
C2190 H2211 0.929 . S
C2191 C2192 1.430 . S
C2191 C2193 1.387 . S
C2191 C2197 1.404 . S
C2192 C2185 1.448 . S
C2192 C2191 1.430 . S
C2192 N2196 1.351 . S
C2193 C2191 1.387 . S
C2193 C2194 1.374 . S
C2193 H2208 0.931 . S
C2194 C2188 1.439 . S
C2194 C2193 1.374 . S
C2194 H2209 0.931 . S
Eu2195 N2186 2.600 . S
Eu2195 N2196 2.562 . S
Eu2195 O2230 2.335 . S
Eu2195 O2233 2.372 . S
Eu2195 O2234 2.462 . S
Eu2195 O2235 2.373 . S
Eu2195 O2237 2.432 . S
Eu2195 O2238 2.291 . S
Eu2195 C2259 2.787 . S
N2196 C2192 1.351 . S
N2196 Eu2195 2.562 . S
N2196 C2198 1.325 . S
C2197 C2191 1.404 . S
C2197 C2199 1.366 . S
C2197 H2205 0.930 . S
C2198 N2196 1.325 . S
C2198 C2199 1.416 . S
C2198 H2204 0.929 . S
C2199 C2197 1.366 . S
C2199 C2198 1.416 . S
C2199 H2201 0.930 . S
H2200 C2189 0.930 . S
H2201 C2199 0.930 . S
H2202 C2217 0.930 . S
H2203 C2224 0.930 . S
H2204 C2198 0.929 . S
H2205 C2197 0.930 . S
H2206 C2220 0.929 . S
H2207 C2187 0.931 . S
H2208 C2193 0.931 . S
H2209 C2194 0.931 . S
H2210 C2215 0.931 . S
H2211 C2190 0.929 . S
H2212 C2223 0.930 . S
N2213 Eu2184 2.600 . S
N2213 C2214 1.365 . S
N2213 C2217 1.319 . S
C2214 N2213 1.365 . S
C2214 C2216 1.405 . S
C2214 C2222 1.448 . S
C2215 H2210 0.931 . S
C2215 C2217 1.397 . S
C2215 C2218 1.367 . S
C2216 C2214 1.405 . S
C2216 C2218 1.403 . S
C2216 C2249 1.439 . S
C2217 H2202 0.930 . S
C2217 N2213 1.319 . S
C2217 C2215 1.397 . S
C2218 C2215 1.367 . S
C2218 C2216 1.403 . S
C2218 H2225 0.929 . S
N2219 Eu2184 2.562 . S
N2219 C2220 1.325 . S
N2219 C2222 1.351 . S
C2220 H2206 0.929 . S
C2220 N2219 1.325 . S
C2220 C2224 1.416 . S
C2221 C2222 1.430 . S
C2221 C2223 1.404 . S
C2221 C2250 1.387 . S
C2222 C2214 1.448 . S
C2222 N2219 1.351 . S
C2222 C2221 1.430 . S
C2223 H2212 0.930 . S
C2223 C2221 1.404 . S
C2223 C2224 1.366 . S
C2224 H2203 0.930 . S
C2224 C2220 1.416 . S
C2224 C2223 1.366 . S
H2225 C2218 0.929 . S
H2226 C2249 0.931 . S
H2227 C2250 0.931 . S
O2228 Eu2184 2.462 . S
O2228 C2248 1.252 . S
O2229 Eu2184 2.373 . S
O2229 C2240 1.249 . S
O2230 Eu2195 2.335 . S
O2230 C2240 1.264 . S
O2231 Eu2184 2.432 . S
O2231 C2248 1.268 . S
O2232 Eu2184 2.291 . S
O2232 C2247 1.255 . S
O2233 Eu2195 2.372 . S
O2233 C2247 1.257 . S
O2234 Eu2195 2.462 . S
O2234 C2259 1.252 . S
O2235 Eu2195 2.373 . S
O2235 C2251 1.249 . S
O2236 Eu2184 2.335 . S
O2236 C2251 1.264 . S
O2237 Eu2195 2.432 . S
O2237 C2259 1.268 . S
O2238 Eu2195 2.291 . S
O2238 C2258 1.255 . S
O2239 Eu2184 2.372 . S
O2239 C2258 1.257 . S
C2240 O2229 1.249 . S
C2240 O2230 1.264 . S
C2241 C2244 1.382 . S
C2241 C2246 1.390 . S
C2241 C2248 1.506 . S
C2242 C2243 1.398 . S
C2242 C2246 1.392 . S
C2243 C2242 1.398 . S
C2243 C2245 1.372 . S
C2243 H2260 0.931 . S
C2244 C2241 1.382 . S
C2244 C2245 1.390 . S
C2244 H2261 0.931 . S
C2245 C2243 1.372 . S
C2245 C2244 1.390 . S
C2245 H2262 0.929 . S
C2246 C2241 1.390 . S
C2246 C2242 1.392 . S
C2246 H2263 0.930 . S
C2247 O2232 1.255 . S
C2247 O2233 1.257 . S
C2248 Eu2184 2.787 . S
C2248 O2228 1.252 . S
C2248 O2231 1.268 . S
C2248 C2241 1.506 . S
C2249 C2216 1.439 . S
C2249 H2226 0.931 . S
C2249 C2250 1.374 . S
C2250 C2221 1.387 . S
C2250 H2227 0.931 . S
C2250 C2249 1.374 . S
C2251 O2235 1.249 . S
C2251 O2236 1.264 . S
C2252 C2255 1.382 . S
C2252 C2256 1.390 . S
C2252 C2259 1.506 . S
C2253 C2254 1.398 . S
C2253 C2256 1.392 . S
C2254 C2253 1.398 . S
C2254 C2257 1.372 . S
C2254 H2264 0.931 . S
C2255 C2252 1.382 . S
C2255 C2257 1.390 . S
C2255 H2265 0.931 . S
C2256 C2252 1.390 . S
C2256 C2253 1.392 . S
C2256 H2266 0.930 . S
C2257 C2254 1.372 . S
C2257 C2255 1.390 . S
C2257 H2267 0.929 . S
C2258 O2238 1.255 . S
C2258 O2239 1.257 . S
C2259 Eu2195 2.787 . S
C2259 O2234 1.252 . S
C2259 O2237 1.268 . S
C2259 C2252 1.506 . S
H2260 C2243 0.931 . S
H2261 C2244 0.931 . S
H2262 C2245 0.929 . S
H2263 C2246 0.930 . S
H2264 C2254 0.931 . S
H2265 C2255 0.931 . S
H2266 C2256 0.930 . S
H2267 C2257 0.929 . S
Eu2268 N2297 2.600 . S
Eu2268 N2303 2.562 1_455 S
Eu2268 O2312 2.462 . S
Eu2268 O2313 2.373 . S
Eu2268 O2315 2.432 . S
Eu2268 O2316 2.291 . S
Eu2268 O2320 2.335 . S
Eu2268 O2323 2.372 . S
Eu2268 C2332 2.787 . S
C2269 N2270 1.365 . S
C2269 C2272 1.405 . S
C2269 C2276 1.448 . S
N2270 C2269 1.365 . S
N2270 C2273 1.319 . S
N2270 Eu2279 2.600 . S
C2271 C2273 1.397 . S
C2271 C2274 1.367 . S
C2271 H2291 0.931 . S
C2272 C2269 1.405 . S
C2272 C2274 1.403 . S
C2272 C2278 1.439 . S
C2273 N2270 1.319 . S
C2273 C2271 1.397 . S
C2273 H2284 0.930 . S
C2274 C2271 1.367 . S
C2274 C2272 1.403 . S
C2274 H2295 0.929 . S
C2275 C2276 1.430 . S
C2275 C2277 1.387 . S
C2275 C2281 1.404 . S
C2276 C2269 1.448 . S
C2276 C2275 1.430 . S
C2276 N2280 1.351 . S
C2277 C2275 1.387 . S
C2277 C2278 1.374 . S
C2277 H2292 0.931 . S
C2278 C2272 1.439 . S
C2278 C2277 1.374 . S
C2278 H2293 0.931 . S
Eu2279 N2270 2.600 . S
Eu2279 N2280 2.562 . S
Eu2279 O2314 2.335 . S
Eu2279 O2317 2.372 . S
Eu2279 O2318 2.462 . S
Eu2279 O2319 2.373 . S
Eu2279 O2321 2.432 . S
Eu2279 O2322 2.291 . S
Eu2279 C2343 2.787 . S
N2280 C2276 1.351 . S
N2280 Eu2279 2.562 . S
N2280 C2282 1.325 . S
C2281 C2275 1.404 . S
C2281 C2283 1.366 . S
C2281 H2289 0.930 . S
C2282 N2280 1.325 . S
C2282 C2283 1.416 . S
C2282 H2288 0.929 . S
C2283 C2281 1.366 . S
C2283 C2282 1.416 . S
C2283 H2285 0.930 . S
H2284 C2273 0.930 . S
H2285 C2283 0.930 . S
H2286 C2301 0.930 . S
H2287 C2308 0.930 . S
H2288 C2282 0.929 . S
H2289 C2281 0.930 . S
H2290 C2304 0.929 . S
H2291 C2271 0.931 . S
H2292 C2277 0.931 . S
H2293 C2278 0.931 . S
H2294 C2299 0.931 . S
H2295 C2274 0.929 . S
H2296 C2307 0.930 . S
N2297 Eu2268 2.600 . S
N2297 C2298 1.365 1_455 S
N2297 C2301 1.319 . S
C2298 N2297 1.365 1_655 S
C2298 C2300 1.405 . S
C2298 C2306 1.448 . S
C2299 H2294 0.931 . S
C2299 C2301 1.397 . S
C2299 C2302 1.367 . S
C2300 C2298 1.405 . S
C2300 C2302 1.403 1_655 S
C2300 C2333 1.439 . S
C2301 H2286 0.930 . S
C2301 N2297 1.319 . S
C2301 C2299 1.397 . S
C2302 C2299 1.367 . S
C2302 C2300 1.403 1_455 S
C2302 H2309 0.929 1_455 S
N2303 Eu2268 2.562 1_655 S
N2303 C2304 1.325 . S
N2303 C2306 1.351 . S
C2304 H2290 0.929 . S
C2304 N2303 1.325 . S
C2304 C2308 1.416 . S
C2305 C2306 1.430 . S
C2305 C2307 1.404 . S
C2305 C2334 1.387 . S
C2306 C2298 1.448 . S
C2306 N2303 1.351 . S
C2306 C2305 1.430 . S
C2307 H2296 0.930 . S
C2307 C2305 1.404 . S
C2307 C2308 1.366 . S
C2308 H2287 0.930 . S
C2308 C2304 1.416 . S
C2308 C2307 1.366 . S
H2309 C2302 0.929 1_655 S
H2310 C2333 0.931 . S
H2311 C2334 0.931 . S
O2312 Eu2268 2.462 . S
O2312 C2332 1.252 . S
O2313 Eu2268 2.373 . S
O2313 C2324 1.249 . S
O2314 Eu2279 2.335 . S
O2314 C2324 1.264 . S
O2315 Eu2268 2.432 . S
O2315 C2332 1.268 . S
O2316 Eu2268 2.291 . S
O2316 C2331 1.255 . S
O2317 Eu2279 2.372 . S
O2317 C2331 1.257 . S
O2318 Eu2279 2.462 . S
O2318 C2343 1.252 . S
O2319 Eu2279 2.373 . S
O2319 C2335 1.249 . S
O2320 Eu2268 2.335 . S
O2320 C2335 1.264 . S
O2321 Eu2279 2.432 . S
O2321 C2343 1.268 . S
O2322 Eu2279 2.291 . S
O2322 C2342 1.255 . S
O2323 Eu2268 2.372 . S
O2323 C2342 1.257 . S
C2324 O2313 1.249 . S
C2324 O2314 1.264 . S
C2325 C2328 1.382 . S
C2325 C2330 1.390 . S
C2325 C2332 1.506 1_655 S
C2326 C2327 1.398 . S
C2326 C2330 1.392 . S
C2327 C2326 1.398 . S
C2327 C2329 1.372 . S
C2327 H2344 0.931 . S
C2328 C2325 1.382 . S
C2328 C2329 1.390 . S
C2328 H2345 0.931 . S
C2329 C2327 1.372 . S
C2329 C2328 1.390 . S
C2329 H2346 0.929 . S
C2330 C2325 1.390 . S
C2330 C2326 1.392 . S
C2330 H2347 0.930 . S
C2331 O2316 1.255 . S
C2331 O2317 1.257 . S
C2332 Eu2268 2.787 . S
C2332 O2312 1.252 . S
C2332 O2315 1.268 . S
C2332 C2325 1.506 1_455 S
C2333 C2300 1.439 . S
C2333 H2310 0.931 . S
C2333 C2334 1.374 . S
C2334 C2305 1.387 . S
C2334 H2311 0.931 . S
C2334 C2333 1.374 . S
C2335 O2319 1.249 . S
C2335 O2320 1.264 . S
C2336 C2339 1.382 . S
C2336 C2340 1.390 . S
C2336 C2343 1.506 . S
C2337 C2338 1.398 . S
C2337 C2340 1.392 . S
C2338 C2337 1.398 . S
C2338 C2341 1.372 . S
C2338 H2348 0.931 . S
C2339 C2336 1.382 . S
C2339 C2341 1.390 . S
C2339 H2349 0.931 . S
C2340 C2336 1.390 . S
C2340 C2337 1.392 . S
C2340 H2350 0.930 . S
C2341 C2338 1.372 . S
C2341 C2339 1.390 . S
C2341 H2351 0.929 . S
C2342 O2322 1.255 . S
C2342 O2323 1.257 . S
C2343 Eu2279 2.787 . S
C2343 O2318 1.252 . S
C2343 O2321 1.268 . S
C2343 C2336 1.506 . S
H2344 C2327 0.931 . S
H2345 C2328 0.931 . S
H2346 C2329 0.929 . S
H2347 C2330 0.930 . S
H2348 C2338 0.931 . S
H2349 C2339 0.931 . S
H2350 C2340 0.930 . S
H2351 C2341 0.929 . S
Eu2352 N2381 2.600 . S
Eu2352 N2387 2.562 . S
Eu2352 O2396 2.462 . S
Eu2352 O2397 2.373 . S
Eu2352 O2399 2.432 . S
Eu2352 O2400 2.291 . S
Eu2352 O2404 2.335 . S
Eu2352 O2407 2.372 . S
Eu2352 C2416 2.787 . S
C2353 N2354 1.365 . S
C2353 C2356 1.405 . S
C2353 C2360 1.448 . S
N2354 C2353 1.365 . S
N2354 C2357 1.319 . S
N2354 Eu2363 2.600 . S
C2355 C2357 1.397 . S
C2355 C2358 1.367 . S
C2355 H2375 0.931 . S
C2356 C2353 1.405 . S
C2356 C2358 1.403 . S
C2356 C2362 1.439 . S
C2357 N2354 1.319 . S
C2357 C2355 1.397 . S
C2357 H2368 0.930 . S
C2358 C2355 1.367 . S
C2358 C2356 1.403 . S
C2358 H2379 0.929 . S
C2359 C2360 1.430 . S
C2359 C2361 1.387 . S
C2359 C2365 1.404 . S
C2360 C2353 1.448 . S
C2360 C2359 1.430 . S
C2360 N2364 1.351 . S
C2361 C2359 1.387 . S
C2361 C2362 1.374 . S
C2361 H2376 0.931 . S
C2362 C2356 1.439 . S
C2362 C2361 1.374 . S
C2362 H2377 0.931 . S
Eu2363 N2354 2.600 . S
Eu2363 N2364 2.562 . S
Eu2363 O2398 2.335 . S
Eu2363 O2401 2.372 . S
Eu2363 O2402 2.462 . S
Eu2363 O2403 2.373 . S
Eu2363 O2405 2.432 . S
Eu2363 O2406 2.291 . S
Eu2363 C2427 2.787 . S
N2364 C2360 1.351 . S
N2364 Eu2363 2.562 . S
N2364 C2366 1.325 . S
C2365 C2359 1.404 . S
C2365 C2367 1.366 . S
C2365 H2373 0.930 . S
C2366 N2364 1.325 . S
C2366 C2367 1.416 . S
C2366 H2372 0.929 . S
C2367 C2365 1.366 . S
C2367 C2366 1.416 . S
C2367 H2369 0.930 . S
H2368 C2357 0.930 . S
H2369 C2367 0.930 . S
H2370 C2385 0.930 . S
H2371 C2392 0.930 . S
H2372 C2366 0.929 . S
H2373 C2365 0.930 . S
H2374 C2388 0.929 . S
H2375 C2355 0.931 . S
H2376 C2361 0.931 . S
H2377 C2362 0.931 . S
H2378 C2383 0.931 . S
H2379 C2358 0.929 . S
H2380 C2391 0.930 . S
N2381 Eu2352 2.600 . S
N2381 C2382 1.365 . S
N2381 C2385 1.319 . S
C2382 N2381 1.365 . S
C2382 C2384 1.405 . S
C2382 C2390 1.448 . S
C2383 H2378 0.931 . S
C2383 C2385 1.397 . S
C2383 C2386 1.367 . S
C2384 C2382 1.405 . S
C2384 C2386 1.403 . S
C2384 C2417 1.439 . S
C2385 H2370 0.930 . S
C2385 N2381 1.319 . S
C2385 C2383 1.397 . S
C2386 C2383 1.367 . S
C2386 C2384 1.403 . S
C2386 H2393 0.929 . S
N2387 Eu2352 2.562 . S
N2387 C2388 1.325 . S
N2387 C2390 1.351 . S
C2388 H2374 0.929 . S
C2388 N2387 1.325 . S
C2388 C2392 1.416 . S
C2389 C2390 1.430 . S
C2389 C2391 1.404 . S
C2389 C2418 1.387 . S
C2390 C2382 1.448 . S
C2390 N2387 1.351 . S
C2390 C2389 1.430 . S
C2391 H2380 0.930 . S
C2391 C2389 1.404 . S
C2391 C2392 1.366 . S
C2392 H2371 0.930 . S
C2392 C2388 1.416 . S
C2392 C2391 1.366 . S
H2393 C2386 0.929 . S
H2394 C2417 0.931 . S
H2395 C2418 0.931 . S
O2396 Eu2352 2.462 . S
O2396 C2416 1.252 . S
O2397 Eu2352 2.373 . S
O2397 C2408 1.249 . S
O2398 Eu2363 2.335 . S
O2398 C2408 1.264 . S
O2399 Eu2352 2.432 . S
O2399 C2416 1.268 . S
O2400 Eu2352 2.291 . S
O2400 C2415 1.255 . S
O2401 Eu2363 2.372 . S
O2401 C2415 1.257 . S
O2402 Eu2363 2.462 . S
O2402 C2427 1.252 . S
O2403 Eu2363 2.373 . S
O2403 C2419 1.249 . S
O2404 Eu2352 2.335 . S
O2404 C2419 1.264 . S
O2405 Eu2363 2.432 . S
O2405 C2427 1.268 . S
O2406 Eu2363 2.291 . S
O2406 C2426 1.255 . S
O2407 Eu2352 2.372 . S
O2407 C2426 1.257 . S
C2408 O2397 1.249 . S
C2408 O2398 1.264 . S
C2409 C2412 1.382 . S
C2409 C2414 1.390 . S
C2409 C2416 1.506 . S
C2410 C2411 1.398 . S
C2410 C2414 1.392 . S
C2411 C2410 1.398 . S
C2411 C2413 1.372 . S
C2411 H2428 0.931 . S
C2412 C2409 1.382 . S
C2412 C2413 1.390 . S
C2412 H2429 0.931 . S
C2413 C2411 1.372 . S
C2413 C2412 1.390 . S
C2413 H2430 0.929 . S
C2414 C2409 1.390 . S
C2414 C2410 1.392 . S
C2414 H2431 0.930 . S
C2415 O2400 1.255 . S
C2415 O2401 1.257 . S
C2416 Eu2352 2.787 . S
C2416 O2396 1.252 . S
C2416 O2399 1.268 . S
C2416 C2409 1.506 . S
C2417 C2384 1.439 . S
C2417 H2394 0.931 . S
C2417 C2418 1.374 . S
C2418 C2389 1.387 . S
C2418 H2395 0.931 . S
C2418 C2417 1.374 . S
C2419 O2403 1.249 . S
C2419 O2404 1.264 . S
C2420 C2423 1.382 . S
C2420 C2424 1.390 . S
C2420 C2427 1.506 . S
C2421 C2422 1.398 . S
C2421 C2424 1.392 . S
C2422 C2421 1.398 . S
C2422 C2425 1.372 . S
C2422 H2432 0.931 . S
C2423 C2420 1.382 . S
C2423 C2425 1.390 . S
C2423 H2433 0.931 . S
C2424 C2420 1.390 . S
C2424 C2421 1.392 . S
C2424 H2434 0.930 . S
C2425 C2422 1.372 . S
C2425 C2423 1.390 . S
C2425 H2435 0.929 . S
C2426 O2406 1.255 . S
C2426 O2407 1.257 . S
C2427 Eu2363 2.787 . S
C2427 O2402 1.252 . S
C2427 O2405 1.268 . S
C2427 C2420 1.506 . S
H2428 C2411 0.931 . S
H2429 C2412 0.931 . S
H2430 C2413 0.929 . S
H2431 C2414 0.930 . S
H2432 C2422 0.931 . S
H2433 C2423 0.931 . S
H2434 C2424 0.930 . S
H2435 C2425 0.929 . S
Eu2436 N2465 2.600 . S
Eu2436 N2471 2.562 1_455 S
Eu2436 O2480 2.462 . S
Eu2436 O2481 2.373 . S
Eu2436 O2483 2.432 . S
Eu2436 O2484 2.291 . S
Eu2436 O2488 2.335 . S
Eu2436 O2491 2.372 . S
Eu2436 C2500 2.787 . S
C2437 N2438 1.365 . S
C2437 C2440 1.405 . S
C2437 C2444 1.448 . S
N2438 C2437 1.365 . S
N2438 C2441 1.319 . S
N2438 Eu2447 2.600 . S
C2439 C2441 1.397 . S
C2439 C2442 1.367 . S
C2439 H2459 0.931 . S
C2440 C2437 1.405 . S
C2440 C2442 1.403 . S
C2440 C2446 1.439 . S
C2441 N2438 1.319 . S
C2441 C2439 1.397 . S
C2441 H2452 0.930 . S
C2442 C2439 1.367 . S
C2442 C2440 1.403 . S
C2442 H2463 0.929 . S
C2443 C2444 1.430 . S
C2443 C2445 1.387 . S
C2443 C2449 1.404 . S
C2444 C2437 1.448 . S
C2444 C2443 1.430 . S
C2444 N2448 1.351 . S
C2445 C2443 1.387 . S
C2445 C2446 1.374 . S
C2445 H2460 0.931 . S
C2446 C2440 1.439 . S
C2446 C2445 1.374 . S
C2446 H2461 0.931 . S
Eu2447 N2438 2.600 . S
Eu2447 N2448 2.562 . S
Eu2447 O2482 2.335 . S
Eu2447 O2485 2.372 . S
Eu2447 O2486 2.462 . S
Eu2447 O2487 2.373 . S
Eu2447 O2489 2.432 . S
Eu2447 O2490 2.291 . S
Eu2447 C2511 2.787 . S
N2448 C2444 1.351 . S
N2448 Eu2447 2.562 . S
N2448 C2450 1.325 . S
C2449 C2443 1.404 . S
C2449 C2451 1.366 . S
C2449 H2457 0.930 . S
C2450 N2448 1.325 . S
C2450 C2451 1.416 . S
C2450 H2456 0.929 . S
C2451 C2449 1.366 . S
C2451 C2450 1.416 . S
C2451 H2453 0.930 . S
H2452 C2441 0.930 . S
H2453 C2451 0.930 . S
H2454 C2469 0.930 . S
H2455 C2476 0.930 . S
H2456 C2450 0.929 . S
H2457 C2449 0.930 . S
H2458 C2472 0.929 . S
H2459 C2439 0.931 . S
H2460 C2445 0.931 . S
H2461 C2446 0.931 . S
H2462 C2467 0.931 . S
H2463 C2442 0.929 . S
H2464 C2475 0.930 . S
N2465 Eu2436 2.600 . S
N2465 C2466 1.365 1_455 S
N2465 C2469 1.319 . S
C2466 N2465 1.365 1_655 S
C2466 C2468 1.405 . S
C2466 C2474 1.448 . S
C2467 H2462 0.931 . S
C2467 C2469 1.397 . S
C2467 C2470 1.367 . S
C2468 C2466 1.405 . S
C2468 C2470 1.403 1_655 S
C2468 C2501 1.439 . S
C2469 H2454 0.930 . S
C2469 N2465 1.319 . S
C2469 C2467 1.397 . S
C2470 C2467 1.367 . S
C2470 C2468 1.403 1_455 S
C2470 H2477 0.929 1_455 S
N2471 Eu2436 2.562 1_655 S
N2471 C2472 1.325 . S
N2471 C2474 1.351 . S
C2472 H2458 0.929 . S
C2472 N2471 1.325 . S
C2472 C2476 1.416 . S
C2473 C2474 1.430 . S
C2473 C2475 1.404 . S
C2473 C2502 1.387 . S
C2474 C2466 1.448 . S
C2474 N2471 1.351 . S
C2474 C2473 1.430 . S
C2475 H2464 0.930 . S
C2475 C2473 1.404 . S
C2475 C2476 1.366 . S
C2476 H2455 0.930 . S
C2476 C2472 1.416 . S
C2476 C2475 1.366 . S
H2477 C2470 0.929 1_655 S
H2478 C2501 0.931 . S
H2479 C2502 0.931 . S
O2480 Eu2436 2.462 . S
O2480 C2500 1.252 . S
O2481 Eu2436 2.373 . S
O2481 C2492 1.249 . S
O2482 Eu2447 2.335 . S
O2482 C2492 1.264 . S
O2483 Eu2436 2.432 . S
O2483 C2500 1.268 . S
O2484 Eu2436 2.291 . S
O2484 C2499 1.255 . S
O2485 Eu2447 2.372 . S
O2485 C2499 1.257 . S
O2486 Eu2447 2.462 . S
O2486 C2511 1.252 . S
O2487 Eu2447 2.373 . S
O2487 C2503 1.249 . S
O2488 Eu2436 2.335 . S
O2488 C2503 1.264 . S
O2489 Eu2447 2.432 . S
O2489 C2511 1.268 . S
O2490 Eu2447 2.291 . S
O2490 C2510 1.255 . S
O2491 Eu2436 2.372 . S
O2491 C2510 1.257 . S
C2492 O2481 1.249 . S
C2492 O2482 1.264 . S
C2493 C2496 1.382 . S
C2493 C2498 1.390 . S
C2493 C2500 1.506 1_655 S
C2494 C2495 1.398 . S
C2494 C2498 1.392 . S
C2495 C2494 1.398 . S
C2495 C2497 1.372 . S
C2495 H2512 0.931 . S
C2496 C2493 1.382 . S
C2496 C2497 1.390 . S
C2496 H2513 0.931 . S
C2497 C2495 1.372 . S
C2497 C2496 1.390 . S
C2497 H2514 0.929 . S
C2498 C2493 1.390 . S
C2498 C2494 1.392 . S
C2498 H2515 0.930 . S
C2499 O2484 1.255 . S
C2499 O2485 1.257 . S
C2500 Eu2436 2.787 . S
C2500 O2480 1.252 . S
C2500 O2483 1.268 . S
C2500 C2493 1.506 1_455 S
C2501 C2468 1.439 . S
C2501 H2478 0.931 . S
C2501 C2502 1.374 . S
C2502 C2473 1.387 . S
C2502 H2479 0.931 . S
C2502 C2501 1.374 . S
C2503 O2487 1.249 . S
C2503 O2488 1.264 . S
C2504 C2507 1.382 . S
C2504 C2508 1.390 . S
C2504 C2511 1.506 . S
C2505 C2506 1.398 . S
C2505 C2508 1.392 . S
C2506 C2505 1.398 . S
C2506 C2509 1.372 . S
C2506 H2516 0.931 . S
C2507 C2504 1.382 . S
C2507 C2509 1.390 . S
C2507 H2517 0.931 . S
C2508 C2504 1.390 . S
C2508 C2505 1.392 . S
C2508 H2518 0.930 . S
C2509 C2506 1.372 . S
C2509 C2507 1.390 . S
C2509 H2519 0.929 . S
C2510 O2490 1.255 . S
C2510 O2491 1.257 . S
C2511 Eu2447 2.787 . S
C2511 O2486 1.252 . S
C2511 O2489 1.268 . S
C2511 C2504 1.506 . S
H2512 C2495 0.931 . S
H2513 C2496 0.931 . S
H2514 C2497 0.929 . S
H2515 C2498 0.930 . S
H2516 C2506 0.931 . S
H2517 C2507 0.931 . S
H2518 C2508 0.930 . S
H2519 C2509 0.929 . S
Eu2520 N2549 2.600 . S
Eu2520 N2555 2.562 . S
Eu2520 O2564 2.462 . S
Eu2520 O2565 2.373 . S
Eu2520 O2567 2.432 . S
Eu2520 O2568 2.291 . S
Eu2520 O2572 2.335 . S
Eu2520 O2575 2.372 . S
Eu2520 C2584 2.787 . S
C2521 N2522 1.365 . S
C2521 C2524 1.405 . S
C2521 C2528 1.448 . S
N2522 C2521 1.365 . S
N2522 C2525 1.319 . S
N2522 Eu2531 2.600 . S
C2523 C2525 1.397 . S
C2523 C2526 1.367 . S
C2523 H2543 0.931 . S
C2524 C2521 1.405 . S
C2524 C2526 1.403 . S
C2524 C2530 1.439 . S
C2525 N2522 1.319 . S
C2525 C2523 1.397 . S
C2525 H2536 0.930 . S
C2526 C2523 1.367 . S
C2526 C2524 1.403 . S
C2526 H2547 0.929 . S
C2527 C2528 1.430 . S
C2527 C2529 1.387 . S
C2527 C2533 1.404 . S
C2528 C2521 1.448 . S
C2528 C2527 1.430 . S
C2528 N2532 1.351 . S
C2529 C2527 1.387 . S
C2529 C2530 1.374 . S
C2529 H2544 0.931 . S
C2530 C2524 1.439 . S
C2530 C2529 1.374 . S
C2530 H2545 0.931 . S
Eu2531 N2522 2.600 . S
Eu2531 N2532 2.562 . S
Eu2531 O2566 2.335 . S
Eu2531 O2569 2.372 . S
Eu2531 O2570 2.462 . S
Eu2531 O2571 2.373 . S
Eu2531 O2573 2.432 . S
Eu2531 O2574 2.291 . S
Eu2531 C2595 2.787 . S
N2532 C2528 1.351 . S
N2532 Eu2531 2.562 . S
N2532 C2534 1.325 . S
C2533 C2527 1.404 . S
C2533 C2535 1.366 . S
C2533 H2541 0.930 . S
C2534 N2532 1.325 . S
C2534 C2535 1.416 . S
C2534 H2540 0.929 . S
C2535 C2533 1.366 . S
C2535 C2534 1.416 . S
C2535 H2537 0.930 . S
H2536 C2525 0.930 . S
H2537 C2535 0.930 . S
H2538 C2553 0.930 . S
H2539 C2560 0.930 . S
H2540 C2534 0.929 . S
H2541 C2533 0.930 . S
H2542 C2556 0.929 . S
H2543 C2523 0.931 . S
H2544 C2529 0.931 . S
H2545 C2530 0.931 . S
H2546 C2551 0.931 . S
H2547 C2526 0.929 . S
H2548 C2559 0.930 . S
N2549 Eu2520 2.600 . S
N2549 C2550 1.365 . S
N2549 C2553 1.319 . S
C2550 N2549 1.365 . S
C2550 C2552 1.405 . S
C2550 C2558 1.448 . S
C2551 H2546 0.931 . S
C2551 C2553 1.397 . S
C2551 C2554 1.367 . S
C2552 C2550 1.405 . S
C2552 C2554 1.403 . S
C2552 C2585 1.439 . S
C2553 H2538 0.930 . S
C2553 N2549 1.319 . S
C2553 C2551 1.397 . S
C2554 C2551 1.367 . S
C2554 C2552 1.403 . S
C2554 H2561 0.929 . S
N2555 Eu2520 2.562 . S
N2555 C2556 1.325 . S
N2555 C2558 1.351 . S
C2556 H2542 0.929 . S
C2556 N2555 1.325 . S
C2556 C2560 1.416 . S
C2557 C2558 1.430 . S
C2557 C2559 1.404 . S
C2557 C2586 1.387 . S
C2558 C2550 1.448 . S
C2558 N2555 1.351 . S
C2558 C2557 1.430 . S
C2559 H2548 0.930 . S
C2559 C2557 1.404 . S
C2559 C2560 1.366 . S
C2560 H2539 0.930 . S
C2560 C2556 1.416 . S
C2560 C2559 1.366 . S
H2561 C2554 0.929 . S
H2562 C2585 0.931 . S
H2563 C2586 0.931 . S
O2564 Eu2520 2.462 . S
O2564 C2584 1.252 . S
O2565 Eu2520 2.373 . S
O2565 C2576 1.249 . S
O2566 Eu2531 2.335 . S
O2566 C2576 1.264 . S
O2567 Eu2520 2.432 . S
O2567 C2584 1.268 . S
O2568 Eu2520 2.291 . S
O2568 C2583 1.255 . S
O2569 Eu2531 2.372 . S
O2569 C2583 1.257 . S
O2570 Eu2531 2.462 . S
O2570 C2595 1.252 . S
O2571 Eu2531 2.373 . S
O2571 C2587 1.249 . S
O2572 Eu2520 2.335 . S
O2572 C2587 1.264 . S
O2573 Eu2531 2.432 . S
O2573 C2595 1.268 . S
O2574 Eu2531 2.291 . S
O2574 C2594 1.255 . S
O2575 Eu2520 2.372 . S
O2575 C2594 1.257 . S
C2576 O2565 1.249 . S
C2576 O2566 1.264 . S
C2577 C2580 1.382 . S
C2577 C2582 1.390 . S
C2577 C2584 1.506 . S
C2578 C2579 1.398 . S
C2578 C2582 1.392 . S
C2579 C2578 1.398 . S
C2579 C2581 1.372 . S
C2579 H2596 0.931 . S
C2580 C2577 1.382 . S
C2580 C2581 1.390 . S
C2580 H2597 0.931 . S
C2581 C2579 1.372 . S
C2581 C2580 1.390 . S
C2581 H2598 0.929 . S
C2582 C2577 1.390 . S
C2582 C2578 1.392 . S
C2582 H2599 0.930 . S
C2583 O2568 1.255 . S
C2583 O2569 1.257 . S
C2584 Eu2520 2.787 . S
C2584 O2564 1.252 . S
C2584 O2567 1.268 . S
C2584 C2577 1.506 . S
C2585 C2552 1.439 . S
C2585 H2562 0.931 . S
C2585 C2586 1.374 . S
C2586 C2557 1.387 . S
C2586 H2563 0.931 . S
C2586 C2585 1.374 . S
C2587 O2571 1.249 . S
C2587 O2572 1.264 . S
C2588 C2591 1.382 . S
C2588 C2592 1.390 . S
C2588 C2595 1.506 . S
C2589 C2590 1.398 . S
C2589 C2592 1.392 . S
C2590 C2589 1.398 . S
C2590 C2593 1.372 . S
C2590 H2600 0.931 . S
C2591 C2588 1.382 . S
C2591 C2593 1.390 . S
C2591 H2601 0.931 . S
C2592 C2588 1.390 . S
C2592 C2589 1.392 . S
C2592 H2602 0.930 . S
C2593 C2590 1.372 . S
C2593 C2591 1.390 . S
C2593 H2603 0.929 . S
C2594 O2574 1.255 . S
C2594 O2575 1.257 . S
C2595 Eu2531 2.787 . S
C2595 O2570 1.252 . S
C2595 O2573 1.268 . S
C2595 C2588 1.506 . S
H2596 C2579 0.931 . S
H2597 C2580 0.931 . S
H2598 C2581 0.929 . S
H2599 C2582 0.930 . S
H2600 C2590 0.931 . S
H2601 C2591 0.931 . S
H2602 C2592 0.930 . S
H2603 C2593 0.929 . S
Eu2604 N2633 2.600 . S
Eu2604 N2639 2.562 . S
Eu2604 O2648 2.462 . S
Eu2604 O2649 2.373 . S
Eu2604 O2651 2.432 . S
Eu2604 O2652 2.291 . S
Eu2604 O2656 2.335 . S
Eu2604 O2659 2.372 . S
Eu2604 C2668 2.787 . S
C2605 N2606 1.365 . S
C2605 C2608 1.405 . S
C2605 C2612 1.448 . S
N2606 C2605 1.365 . S
N2606 C2609 1.319 . S
N2606 Eu2615 2.600 . S
C2607 C2609 1.397 . S
C2607 C2610 1.367 . S
C2607 H2627 0.931 . S
C2608 C2605 1.405 . S
C2608 C2610 1.403 . S
C2608 C2614 1.439 . S
C2609 N2606 1.319 . S
C2609 C2607 1.397 . S
C2609 H2620 0.930 . S
C2610 C2607 1.367 . S
C2610 C2608 1.403 . S
C2610 H2631 0.929 . S
C2611 C2612 1.430 . S
C2611 C2613 1.387 . S
C2611 C2617 1.404 . S
C2612 C2605 1.448 . S
C2612 C2611 1.430 . S
C2612 N2616 1.351 . S
C2613 C2611 1.387 . S
C2613 C2614 1.374 . S
C2613 H2628 0.931 . S
C2614 C2608 1.439 . S
C2614 C2613 1.374 . S
C2614 H2629 0.931 . S
Eu2615 N2606 2.600 . S
Eu2615 N2616 2.562 . S
Eu2615 O2650 2.335 . S
Eu2615 O2653 2.372 . S
Eu2615 O2654 2.462 . S
Eu2615 O2655 2.373 . S
Eu2615 O2657 2.432 . S
Eu2615 O2658 2.291 . S
Eu2615 C2679 2.787 . S
N2616 C2612 1.351 . S
N2616 Eu2615 2.562 . S
N2616 C2618 1.325 . S
C2617 C2611 1.404 . S
C2617 C2619 1.366 . S
C2617 H2625 0.930 . S
C2618 N2616 1.325 . S
C2618 C2619 1.416 . S
C2618 H2624 0.929 . S
C2619 C2617 1.366 . S
C2619 C2618 1.416 . S
C2619 H2621 0.930 . S
H2620 C2609 0.930 . S
H2621 C2619 0.930 . S
H2622 C2637 0.930 . S
H2623 C2644 0.930 . S
H2624 C2618 0.929 . S
H2625 C2617 0.930 . S
H2626 C2640 0.929 . S
H2627 C2607 0.931 . S
H2628 C2613 0.931 . S
H2629 C2614 0.931 . S
H2630 C2635 0.931 . S
H2631 C2610 0.929 . S
H2632 C2643 0.930 . S
N2633 Eu2604 2.600 . S
N2633 C2634 1.365 . S
N2633 C2637 1.319 . S
C2634 N2633 1.365 . S
C2634 C2636 1.405 . S
C2634 C2642 1.448 . S
C2635 H2630 0.931 . S
C2635 C2637 1.397 . S
C2635 C2638 1.367 . S
C2636 C2634 1.405 . S
C2636 C2638 1.403 . S
C2636 C2669 1.439 . S
C2637 H2622 0.930 . S
C2637 N2633 1.319 . S
C2637 C2635 1.397 . S
C2638 C2635 1.367 . S
C2638 C2636 1.403 . S
C2638 H2645 0.929 . S
N2639 Eu2604 2.562 . S
N2639 C2640 1.325 . S
N2639 C2642 1.351 . S
C2640 H2626 0.929 . S
C2640 N2639 1.325 . S
C2640 C2644 1.416 . S
C2641 C2642 1.430 . S
C2641 C2643 1.404 . S
C2641 C2670 1.387 . S
C2642 C2634 1.448 . S
C2642 N2639 1.351 . S
C2642 C2641 1.430 . S
C2643 H2632 0.930 . S
C2643 C2641 1.404 . S
C2643 C2644 1.366 . S
C2644 H2623 0.930 . S
C2644 C2640 1.416 . S
C2644 C2643 1.366 . S
H2645 C2638 0.929 . S
H2646 C2669 0.931 . S
H2647 C2670 0.931 . S
O2648 Eu2604 2.462 . S
O2648 C2668 1.252 . S
O2649 Eu2604 2.373 . S
O2649 C2660 1.249 . S
O2650 Eu2615 2.335 . S
O2650 C2660 1.264 . S
O2651 Eu2604 2.432 . S
O2651 C2668 1.268 . S
O2652 Eu2604 2.291 . S
O2652 C2667 1.255 . S
O2653 Eu2615 2.372 . S
O2653 C2667 1.257 . S
O2654 Eu2615 2.462 . S
O2654 C2679 1.252 . S
O2655 Eu2615 2.373 . S
O2655 C2671 1.249 . S
O2656 Eu2604 2.335 . S
O2656 C2671 1.264 . S
O2657 Eu2615 2.432 . S
O2657 C2679 1.268 . S
O2658 Eu2615 2.291 . S
O2658 C2678 1.255 . S
O2659 Eu2604 2.372 . S
O2659 C2678 1.257 . S
C2660 O2649 1.249 . S
C2660 O2650 1.264 . S
C2661 C2664 1.382 . S
C2661 C2666 1.390 . S
C2661 C2668 1.506 . S
C2662 C2663 1.398 . S
C2662 C2666 1.392 . S
C2663 C2662 1.398 . S
C2663 C2665 1.372 . S
C2663 H2680 0.931 . S
C2664 C2661 1.382 . S
C2664 C2665 1.390 . S
C2664 H2681 0.931 . S
C2665 C2663 1.372 . S
C2665 C2664 1.390 . S
C2665 H2682 0.929 . S
C2666 C2661 1.390 . S
C2666 C2662 1.392 . S
C2666 H2683 0.930 . S
C2667 O2652 1.255 . S
C2667 O2653 1.257 . S
C2668 Eu2604 2.787 . S
C2668 O2648 1.252 . S
C2668 O2651 1.268 . S
C2668 C2661 1.506 . S
C2669 C2636 1.439 . S
C2669 H2646 0.931 . S
C2669 C2670 1.374 . S
C2670 C2641 1.387 . S
C2670 H2647 0.931 . S
C2670 C2669 1.374 . S
C2671 O2655 1.249 . S
C2671 O2656 1.264 . S
C2672 C2675 1.382 . S
C2672 C2676 1.390 . S
C2672 C2679 1.506 . S
C2673 C2674 1.398 . S
C2673 C2676 1.392 . S
C2674 C2673 1.398 . S
C2674 C2677 1.372 . S
C2674 H2684 0.931 . S
C2675 C2672 1.382 . S
C2675 C2677 1.390 . S
C2675 H2685 0.931 . S
C2676 C2672 1.390 . S
C2676 C2673 1.392 . S
C2676 H2686 0.930 . S
C2677 C2674 1.372 . S
C2677 C2675 1.390 . S
C2677 H2687 0.929 . S
C2678 O2658 1.255 . S
C2678 O2659 1.257 . S
C2679 Eu2615 2.787 . S
C2679 O2654 1.252 . S
C2679 O2657 1.268 . S
C2679 C2672 1.506 . S
H2680 C2663 0.931 . S
H2681 C2664 0.931 . S
H2682 C2665 0.929 . S
H2683 C2666 0.930 . S
H2684 C2674 0.931 . S
H2685 C2675 0.931 . S
H2686 C2676 0.930 . S
H2687 C2677 0.929 . S
C2688 C2689 1.349 . S
C2688 C2690 1.327 . S
C2688 H2713 0.950 . S
C2689 C2688 1.349 . S
C2689 C2705 1.349 . S
C2690 C2688 1.327 . S
C2690 C2709 1.429 . S
C2690 H2714 0.950 . S
C2691 C2708 1.574 . S
C2691 C2710 1.368 . S
C2691 H2715 0.949 . S
H2692 C2696 0.949 . S
C2693 C2694 1.349 . S
C2693 C2695 1.327 . S
C2693 H2716 0.950 . S
C2694 C2693 1.349 . S
C2694 C2706 1.349 . S
C2695 C2693 1.327 . S
C2695 C2711 1.429 . S
C2695 H2717 0.950 . S
C2696 H2692 0.949 . S
C2696 C2704 1.574 . S
C2696 C2712 1.368 . S
H2697 C2705 0.950 . S
H2698 C2703 0.950 . S
H2699 C2704 0.949 . S
H2700 C2706 0.950 . S
H2701 C2707 0.950 . S
H2702 C2708 0.949 . S
C2703 H2698 0.950 . S
C2703 C2705 1.327 . S
C2703 C2709 1.429 . S
C2704 C2696 1.574 . S
C2704 H2699 0.949 . S
C2704 C2710 1.368 . S
C2705 C2689 1.349 . S
C2705 H2697 0.950 . S
C2705 C2703 1.327 . S
C2706 C2694 1.349 . S
C2706 H2700 0.950 . S
C2706 C2707 1.327 . S
C2707 H2701 0.950 . S
C2707 C2706 1.327 . S
C2707 C2711 1.429 . S
C2708 C2691 1.574 . S
C2708 H2702 0.949 . S
C2708 C2712 1.368 . S
C2709 C2690 1.429 . S
C2709 C2703 1.429 . S
C2709 C2710 1.523 . S
C2710 C2691 1.368 . S
C2710 C2704 1.368 . S
C2710 C2709 1.523 . S
C2711 C2695 1.429 . S
C2711 C2707 1.429 . S
C2711 C2712 1.523 . S
C2712 C2696 1.368 . S
C2712 C2708 1.368 . S
C2712 C2711 1.523 . S
H2713 C2688 0.950 . S
H2714 C2690 0.950 . S
H2715 C2691 0.949 . S
H2716 C2693 0.950 . S
H2717 C2695 0.950 . S
C2718 C2719 1.349 . S
C2718 C2720 1.327 . S
C2718 H2743 0.950 . S
C2719 C2718 1.349 . S
C2719 C2735 1.349 . S
C2720 C2718 1.327 . S
C2720 C2739 1.429 . S
C2720 H2744 0.950 . S
C2721 C2738 1.574 . S
C2721 C2740 1.368 . S
C2721 H2745 0.949 . S
H2722 C2726 0.949 . S
C2723 C2724 1.349 . S
C2723 C2725 1.327 . S
C2723 H2746 0.950 . S
C2724 C2723 1.349 . S
C2724 C2736 1.349 . S
C2725 C2723 1.327 . S
C2725 C2741 1.429 . S
C2725 H2747 0.950 . S
C2726 H2722 0.949 . S
C2726 C2734 1.574 . S
C2726 C2742 1.368 . S
H2727 C2735 0.950 . S
H2728 C2733 0.950 . S
H2729 C2734 0.949 . S
H2730 C2736 0.950 . S
H2731 C2737 0.950 . S
H2732 C2738 0.949 . S
C2733 H2728 0.950 . S
C2733 C2735 1.327 . S
C2733 C2739 1.429 . S
C2734 C2726 1.574 . S
C2734 H2729 0.949 . S
C2734 C2740 1.368 . S
C2735 C2719 1.349 . S
C2735 H2727 0.950 . S
C2735 C2733 1.327 . S
C2736 C2724 1.349 . S
C2736 H2730 0.950 . S
C2736 C2737 1.327 . S
C2737 H2731 0.950 . S
C2737 C2736 1.327 . S
C2737 C2741 1.429 . S
C2738 C2721 1.574 . S
C2738 H2732 0.949 . S
C2738 C2742 1.368 . S
C2739 C2720 1.429 . S
C2739 C2733 1.429 . S
C2739 C2740 1.523 . S
C2740 C2721 1.368 . S
C2740 C2734 1.368 . S
C2740 C2739 1.523 . S
C2741 C2725 1.429 . S
C2741 C2737 1.429 . S
C2741 C2742 1.523 . S
C2742 C2726 1.368 . S
C2742 C2738 1.368 . S
C2742 C2741 1.523 . S
H2743 C2718 0.950 . S
H2744 C2720 0.950 . S
H2745 C2721 0.949 . S
H2746 C2723 0.950 . S
H2747 C2725 0.950 . S
C2748 C2749 1.349 . S
C2748 C2750 1.327 . S
C2748 H2773 0.950 . S
C2749 C2748 1.349 . S
C2749 C2765 1.349 . S
C2750 C2748 1.327 . S
C2750 C2769 1.429 . S
C2750 H2774 0.950 . S
C2751 C2768 1.574 . S
C2751 C2770 1.368 . S
C2751 H2775 0.949 . S
H2752 C2756 0.949 . S
C2753 C2754 1.349 . S
C2753 C2755 1.327 . S
C2753 H2776 0.950 . S
C2754 C2753 1.349 . S
C2754 C2766 1.349 . S
C2755 C2753 1.327 . S
C2755 C2771 1.429 . S
C2755 H2777 0.950 . S
C2756 H2752 0.949 . S
C2756 C2764 1.574 . S
C2756 C2772 1.368 . S
H2757 C2765 0.950 . S
H2758 C2763 0.950 . S
H2759 C2764 0.949 . S
H2760 C2766 0.950 . S
H2761 C2767 0.950 . S
H2762 C2768 0.949 . S
C2763 H2758 0.950 . S
C2763 C2765 1.327 . S
C2763 C2769 1.429 . S
C2764 C2756 1.574 . S
C2764 H2759 0.949 . S
C2764 C2770 1.368 . S
C2765 C2749 1.349 . S
C2765 H2757 0.950 . S
C2765 C2763 1.327 . S
C2766 C2754 1.349 . S
C2766 H2760 0.950 . S
C2766 C2767 1.327 . S
C2767 H2761 0.950 . S
C2767 C2766 1.327 . S
C2767 C2771 1.429 . S
C2768 C2751 1.574 . S
C2768 H2762 0.949 . S
C2768 C2772 1.368 . S
C2769 C2750 1.429 . S
C2769 C2763 1.429 . S
C2769 C2770 1.523 . S
C2770 C2751 1.368 . S
C2770 C2764 1.368 . S
C2770 C2769 1.523 . S
C2771 C2755 1.429 . S
C2771 C2767 1.429 . S
C2771 C2772 1.523 . S
C2772 C2756 1.368 . S
C2772 C2768 1.368 . S
C2772 C2771 1.523 . S
H2773 C2748 0.950 . S
H2774 C2750 0.950 . S
H2775 C2751 0.949 . S
H2776 C2753 0.950 . S
H2777 C2755 0.950 . S
C2778 C2779 1.349 . S
C2778 C2780 1.327 . S
C2778 H2803 0.950 . S
C2779 C2778 1.349 . S
C2779 C2795 1.349 . S
C2780 C2778 1.327 . S
C2780 C2799 1.429 . S
C2780 H2804 0.950 . S
C2781 C2798 1.574 . S
C2781 C2800 1.368 . S
C2781 H2805 0.949 . S
H2782 C2786 0.949 . S
C2783 C2784 1.349 . S
C2783 C2785 1.327 . S
C2783 H2806 0.950 . S
C2784 C2783 1.349 . S
C2784 C2796 1.349 . S
C2785 C2783 1.327 . S
C2785 C2801 1.429 . S
C2785 H2807 0.950 . S
C2786 H2782 0.949 . S
C2786 C2794 1.574 . S
C2786 C2802 1.368 . S
H2787 C2795 0.950 . S
H2788 C2793 0.950 . S
H2789 C2794 0.949 . S
H2790 C2796 0.950 . S
H2791 C2797 0.950 . S
H2792 C2798 0.949 . S
C2793 H2788 0.950 . S
C2793 C2795 1.327 . S
C2793 C2799 1.429 . S
C2794 C2786 1.574 . S
C2794 H2789 0.949 . S
C2794 C2800 1.368 . S
C2795 C2779 1.349 . S
C2795 H2787 0.950 . S
C2795 C2793 1.327 . S
C2796 C2784 1.349 . S
C2796 H2790 0.950 . S
C2796 C2797 1.327 . S
C2797 H2791 0.950 . S
C2797 C2796 1.327 . S
C2797 C2801 1.429 . S
C2798 C2781 1.574 . S
C2798 H2792 0.949 . S
C2798 C2802 1.368 . S
C2799 C2780 1.429 . S
C2799 C2793 1.429 . S
C2799 C2800 1.523 . S
C2800 C2781 1.368 . S
C2800 C2794 1.368 . S
C2800 C2799 1.523 . S
C2801 C2785 1.429 . S
C2801 C2797 1.429 . S
C2801 C2802 1.523 . S
C2802 C2786 1.368 . S
C2802 C2798 1.368 . S
C2802 C2801 1.523 . S
H2803 C2778 0.950 . S
H2804 C2780 0.950 . S
H2805 C2781 0.949 . S
H2806 C2783 0.950 . S
H2807 C2785 0.950 . S
C2808 C2809 1.349 . S
C2808 C2810 1.327 . S
C2808 H2833 0.950 . S
C2809 C2808 1.349 . S
C2809 C2825 1.349 . S
C2810 C2808 1.327 . S
C2810 C2829 1.429 . S
C2810 H2834 0.950 . S
C2811 C2828 1.574 . S
C2811 C2830 1.368 . S
C2811 H2835 0.949 . S
H2812 C2816 0.949 . S
C2813 C2814 1.349 . S
C2813 C2815 1.327 . S
C2813 H2836 0.950 . S
C2814 C2813 1.349 . S
C2814 C2826 1.349 . S
C2815 C2813 1.327 . S
C2815 C2831 1.429 . S
C2815 H2837 0.950 . S
C2816 H2812 0.949 . S
C2816 C2824 1.574 . S
C2816 C2832 1.368 . S
H2817 C2825 0.950 . S
H2818 C2823 0.950 . S
H2819 C2824 0.949 . S
H2820 C2826 0.950 . S
H2821 C2827 0.950 . S
H2822 C2828 0.949 . S
C2823 H2818 0.950 . S
C2823 C2825 1.327 . S
C2823 C2829 1.429 . S
C2824 C2816 1.574 . S
C2824 H2819 0.949 . S
C2824 C2830 1.368 . S
C2825 C2809 1.349 . S
C2825 H2817 0.950 . S
C2825 C2823 1.327 . S
C2826 C2814 1.349 . S
C2826 H2820 0.950 . S
C2826 C2827 1.327 . S
C2827 H2821 0.950 . S
C2827 C2826 1.327 . S
C2827 C2831 1.429 . S
C2828 C2811 1.574 . S
C2828 H2822 0.949 . S
C2828 C2832 1.368 . S
C2829 C2810 1.429 . S
C2829 C2823 1.429 . S
C2829 C2830 1.523 . S
C2830 C2811 1.368 . S
C2830 C2824 1.368 . S
C2830 C2829 1.523 . S
C2831 C2815 1.429 . S
C2831 C2827 1.429 . S
C2831 C2832 1.523 . S
C2832 C2816 1.368 . S
C2832 C2828 1.368 . S
C2832 C2831 1.523 . S
H2833 C2808 0.950 . S
H2834 C2810 0.950 . S
H2835 C2811 0.949 . S
H2836 C2813 0.950 . S
H2837 C2815 0.950 . S
C2838 C2839 1.349 . S
C2838 C2840 1.327 . S
C2838 H2863 0.950 . S
C2839 C2838 1.349 . S
C2839 C2855 1.349 . S
C2840 C2838 1.327 . S
C2840 C2859 1.429 . S
C2840 H2864 0.950 . S
C2841 C2858 1.574 . S
C2841 C2860 1.368 . S
C2841 H2865 0.949 . S
H2842 C2846 0.949 . S
C2843 C2844 1.349 . S
C2843 C2845 1.327 . S
C2843 H2866 0.950 . S
C2844 C2843 1.349 . S
C2844 C2856 1.349 . S
C2845 C2843 1.327 . S
C2845 C2861 1.429 . S
C2845 H2867 0.950 . S
C2846 H2842 0.949 . S
C2846 C2854 1.574 . S
C2846 C2862 1.368 . S
H2847 C2855 0.950 . S
H2848 C2853 0.950 . S
H2849 C2854 0.949 . S
H2850 C2856 0.950 . S
H2851 C2857 0.950 . S
H2852 C2858 0.949 . S
C2853 H2848 0.950 . S
C2853 C2855 1.327 . S
C2853 C2859 1.429 . S
C2854 C2846 1.574 . S
C2854 H2849 0.949 . S
C2854 C2860 1.368 . S
C2855 C2839 1.349 . S
C2855 H2847 0.950 . S
C2855 C2853 1.327 . S
C2856 C2844 1.349 . S
C2856 H2850 0.950 . S
C2856 C2857 1.327 . S
C2857 H2851 0.950 . S
C2857 C2856 1.327 . S
C2857 C2861 1.429 . S
C2858 C2841 1.574 . S
C2858 H2852 0.949 . S
C2858 C2862 1.368 . S
C2859 C2840 1.429 . S
C2859 C2853 1.429 . S
C2859 C2860 1.523 . S
C2860 C2841 1.368 . S
C2860 C2854 1.368 . S
C2860 C2859 1.523 . S
C2861 C2845 1.429 . S
C2861 C2857 1.429 . S
C2861 C2862 1.523 . S
C2862 C2846 1.368 . S
C2862 C2858 1.368 . S
C2862 C2861 1.523 . S
H2863 C2838 0.950 . S
H2864 C2840 0.950 . S
H2865 C2841 0.949 . S
H2866 C2843 0.950 . S
H2867 C2845 0.950 . S
C2868 C2869 1.349 . S
C2868 C2870 1.327 . S
C2868 H2893 0.950 . S
C2869 C2868 1.349 . S
C2869 C2885 1.349 . S
C2870 C2868 1.327 . S
C2870 C2889 1.429 . S
C2870 H2894 0.950 . S
C2871 C2888 1.574 . S
C2871 C2890 1.368 . S
C2871 H2895 0.949 . S
H2872 C2876 0.949 . S
C2873 C2874 1.349 . S
C2873 C2875 1.327 . S
C2873 H2896 0.950 . S
C2874 C2873 1.349 . S
C2874 C2886 1.349 . S
C2875 C2873 1.327 . S
C2875 C2891 1.429 . S
C2875 H2897 0.950 . S
C2876 H2872 0.949 . S
C2876 C2884 1.574 . S
C2876 C2892 1.368 . S
H2877 C2885 0.950 . S
H2878 C2883 0.950 . S
H2879 C2884 0.949 . S
H2880 C2886 0.950 . S
H2881 C2887 0.950 . S
H2882 C2888 0.949 . S
C2883 H2878 0.950 . S
C2883 C2885 1.327 . S
C2883 C2889 1.429 . S
C2884 C2876 1.574 . S
C2884 H2879 0.949 . S
C2884 C2890 1.368 . S
C2885 C2869 1.349 . S
C2885 H2877 0.950 . S
C2885 C2883 1.327 . S
C2886 C2874 1.349 . S
C2886 H2880 0.950 . S
C2886 C2887 1.327 . S
C2887 H2881 0.950 . S
C2887 C2886 1.327 . S
C2887 C2891 1.429 . S
C2888 C2871 1.574 . S
C2888 H2882 0.949 . S
C2888 C2892 1.368 . S
C2889 C2870 1.429 . S
C2889 C2883 1.429 . S
C2889 C2890 1.523 . S
C2890 C2871 1.368 . S
C2890 C2884 1.368 . S
C2890 C2889 1.523 . S
C2891 C2875 1.429 . S
C2891 C2887 1.429 . S
C2891 C2892 1.523 . S
C2892 C2876 1.368 . S
C2892 C2888 1.368 . S
C2892 C2891 1.523 . S
H2893 C2868 0.950 . S
H2894 C2870 0.950 . S
H2895 C2871 0.949 . S
H2896 C2873 0.950 . S
H2897 C2875 0.950 . S
C2898 C2899 1.349 . S
C2898 C2900 1.327 . S
C2898 H2923 0.950 . S
C2899 C2898 1.349 . S
C2899 C2915 1.349 . S
C2900 C2898 1.327 . S
C2900 C2919 1.429 . S
C2900 H2924 0.950 . S
C2901 C2918 1.574 . S
C2901 C2920 1.368 . S
C2901 H2925 0.949 . S
H2902 C2906 0.949 . S
C2903 C2904 1.349 . S
C2903 C2905 1.327 . S
C2903 H2926 0.950 . S
C2904 C2903 1.349 . S
C2904 C2916 1.349 . S
C2905 C2903 1.327 . S
C2905 C2921 1.429 . S
C2905 H2927 0.950 . S
C2906 H2902 0.949 . S
C2906 C2914 1.574 . S
C2906 C2922 1.368 . S
H2907 C2915 0.950 . S
H2908 C2913 0.950 . S
H2909 C2914 0.949 . S
H2910 C2916 0.950 . S
H2911 C2917 0.950 . S
H2912 C2918 0.949 . S
C2913 H2908 0.950 . S
C2913 C2915 1.327 . S
C2913 C2919 1.429 . S
C2914 C2906 1.574 . S
C2914 H2909 0.949 . S
C2914 C2920 1.368 . S
C2915 C2899 1.349 . S
C2915 H2907 0.950 . S
C2915 C2913 1.327 . S
C2916 C2904 1.349 . S
C2916 H2910 0.950 . S
C2916 C2917 1.327 . S
C2917 H2911 0.950 . S
C2917 C2916 1.327 . S
C2917 C2921 1.429 . S
C2918 C2901 1.574 . S
C2918 H2912 0.949 . S
C2918 C2922 1.368 . S
C2919 C2900 1.429 . S
C2919 C2913 1.429 . S
C2919 C2920 1.523 . S
C2920 C2901 1.368 . S
C2920 C2914 1.368 . S
C2920 C2919 1.523 . S
C2921 C2905 1.429 . S
C2921 C2917 1.429 . S
C2921 C2922 1.523 . S
C2922 C2906 1.368 . S
C2922 C2918 1.368 . S
C2922 C2921 1.523 . S
H2923 C2898 0.950 . S
H2924 C2900 0.950 . S
H2925 C2901 0.949 . S
H2926 C2903 0.950 . S
H2927 C2905 0.950 . S
C2928 C2929 1.349 . S
C2928 C2930 1.327 . S
C2928 H2953 0.950 . S
C2929 C2928 1.349 . S
C2929 C2945 1.349 . S
C2930 C2928 1.327 . S
C2930 C2949 1.429 . S
C2930 H2954 0.950 . S
C2931 C2948 1.574 . S
C2931 C2950 1.368 . S
C2931 H2955 0.949 . S
H2932 C2936 0.949 . S
C2933 C2934 1.349 . S
C2933 C2935 1.327 . S
C2933 H2956 0.950 . S
C2934 C2933 1.349 . S
C2934 C2946 1.349 . S
C2935 C2933 1.327 . S
C2935 C2951 1.429 . S
C2935 H2957 0.950 . S
C2936 H2932 0.949 . S
C2936 C2944 1.574 . S
C2936 C2952 1.368 . S
H2937 C2945 0.950 . S
H2938 C2943 0.950 . S
H2939 C2944 0.949 . S
H2940 C2946 0.950 . S
H2941 C2947 0.950 . S
H2942 C2948 0.949 . S
C2943 H2938 0.950 . S
C2943 C2945 1.327 . S
C2943 C2949 1.429 . S
C2944 C2936 1.574 . S
C2944 H2939 0.949 . S
C2944 C2950 1.368 . S
C2945 C2929 1.349 . S
C2945 H2937 0.950 . S
C2945 C2943 1.327 . S
C2946 C2934 1.349 . S
C2946 H2940 0.950 . S
C2946 C2947 1.327 . S
C2947 H2941 0.950 . S
C2947 C2946 1.327 . S
C2947 C2951 1.429 . S
C2948 C2931 1.574 . S
C2948 H2942 0.949 . S
C2948 C2952 1.368 . S
C2949 C2930 1.429 . S
C2949 C2943 1.429 . S
C2949 C2950 1.523 . S
C2950 C2931 1.368 . S
C2950 C2944 1.368 . S
C2950 C2949 1.523 . S
C2951 C2935 1.429 . S
C2951 C2947 1.429 . S
C2951 C2952 1.523 . S
C2952 C2936 1.368 . S
C2952 C2948 1.368 . S
C2952 C2951 1.523 . S
H2953 C2928 0.950 . S
H2954 C2930 0.950 . S
H2955 C2931 0.949 . S
H2956 C2933 0.950 . S
H2957 C2935 0.950 . S
C2958 C2959 1.349 . S
C2958 C2960 1.327 . S
C2958 H2983 0.950 . S
C2959 C2958 1.349 . S
C2959 C2975 1.349 . S
C2960 C2958 1.327 . S
C2960 C2979 1.429 . S
C2960 H2984 0.950 . S
C2961 C2978 1.574 . S
C2961 C2980 1.368 . S
C2961 H2985 0.949 . S
H2962 C2966 0.949 . S
C2963 C2964 1.349 . S
C2963 C2965 1.327 . S
C2963 H2986 0.950 . S
C2964 C2963 1.349 . S
C2964 C2976 1.349 . S
C2965 C2963 1.327 . S
C2965 C2981 1.429 . S
C2965 H2987 0.950 . S
C2966 H2962 0.949 . S
C2966 C2974 1.574 . S
C2966 C2982 1.368 . S
H2967 C2975 0.950 . S
H2968 C2973 0.950 . S
H2969 C2974 0.949 . S
H2970 C2976 0.950 . S
H2971 C2977 0.950 . S
H2972 C2978 0.949 . S
C2973 H2968 0.950 . S
C2973 C2975 1.327 . S
C2973 C2979 1.429 . S
C2974 C2966 1.574 . S
C2974 H2969 0.949 . S
C2974 C2980 1.368 . S
C2975 C2959 1.349 . S
C2975 H2967 0.950 . S
C2975 C2973 1.327 . S
C2976 C2964 1.349 . S
C2976 H2970 0.950 . S
C2976 C2977 1.327 . S
C2977 H2971 0.950 . S
C2977 C2976 1.327 . S
C2977 C2981 1.429 . S
C2978 C2961 1.574 . S
C2978 H2972 0.949 . S
C2978 C2982 1.368 . S
C2979 C2960 1.429 . S
C2979 C2973 1.429 . S
C2979 C2980 1.523 . S
C2980 C2961 1.368 . S
C2980 C2974 1.368 . S
C2980 C2979 1.523 . S
C2981 C2965 1.429 . S
C2981 C2977 1.429 . S
C2981 C2982 1.523 . S
C2982 C2966 1.368 . S
C2982 C2978 1.368 . S
C2982 C2981 1.523 . S
H2983 C2958 0.950 . S
H2984 C2960 0.950 . S
H2985 C2961 0.949 . S
H2986 C2963 0.950 . S
H2987 C2965 0.950 . S
C2988 C2989 1.349 . S
C2988 C2990 1.327 . S
C2988 H3013 0.950 . S
C2989 C2988 1.349 . S
C2989 C3005 1.349 . S
C2990 C2988 1.327 . S
C2990 C3009 1.429 . S
C2990 H3014 0.950 . S
C2991 C3008 1.574 . S
C2991 C3010 1.368 . S
C2991 H3015 0.949 . S
H2992 C2996 0.949 . S
C2993 C2994 1.349 . S
C2993 C2995 1.327 . S
C2993 H3016 0.950 . S
C2994 C2993 1.349 . S
C2994 C3006 1.349 . S
C2995 C2993 1.327 . S
C2995 C3011 1.429 . S
C2995 H3017 0.950 . S
C2996 H2992 0.949 . S
C2996 C3004 1.574 . S
C2996 C3012 1.368 . S
H2997 C3005 0.950 . S
H2998 C3003 0.950 . S
H2999 C3004 0.949 . S
H3000 C3006 0.950 . S
H3001 C3007 0.950 . S
H3002 C3008 0.949 . S
C3003 H2998 0.950 . S
C3003 C3005 1.327 . S
C3003 C3009 1.429 . S
C3004 C2996 1.574 . S
C3004 H2999 0.949 . S
C3004 C3010 1.368 . S
C3005 C2989 1.349 . S
C3005 H2997 0.950 . S
C3005 C3003 1.327 . S
C3006 C2994 1.349 . S
C3006 H3000 0.950 . S
C3006 C3007 1.327 . S
C3007 H3001 0.950 . S
C3007 C3006 1.327 . S
C3007 C3011 1.429 . S
C3008 C2991 1.574 . S
C3008 H3002 0.949 . S
C3008 C3012 1.368 . S
C3009 C2990 1.429 . S
C3009 C3003 1.429 . S
C3009 C3010 1.523 . S
C3010 C2991 1.368 . S
C3010 C3004 1.368 . S
C3010 C3009 1.523 . S
C3011 C2995 1.429 . S
C3011 C3007 1.429 . S
C3011 C3012 1.523 . S
C3012 C2996 1.368 . S
C3012 C3008 1.368 . S
C3012 C3011 1.523 . S
H3013 C2988 0.950 . S
H3014 C2990 0.950 . S
H3015 C2991 0.949 . S
H3016 C2993 0.950 . S
H3017 C2995 0.950 . S
C3018 C3019 1.349 . S
C3018 C3020 1.327 . S
C3018 H3043 0.950 . S
C3019 C3018 1.349 . S
C3019 C3035 1.349 . S
C3020 C3018 1.327 . S
C3020 C3039 1.429 . S
C3020 H3044 0.950 . S
C3021 C3038 1.574 . S
C3021 C3040 1.368 . S
C3021 H3045 0.949 . S
H3022 C3026 0.949 . S
C3023 C3024 1.349 . S
C3023 C3025 1.327 . S
C3023 H3046 0.950 . S
C3024 C3023 1.349 . S
C3024 C3036 1.349 . S
C3025 C3023 1.327 . S
C3025 C3041 1.429 . S
C3025 H3047 0.950 . S
C3026 H3022 0.949 . S
C3026 C3034 1.574 . S
C3026 C3042 1.368 . S
H3027 C3035 0.950 . S
H3028 C3033 0.950 . S
H3029 C3034 0.949 . S
H3030 C3036 0.950 . S
H3031 C3037 0.950 . S
H3032 C3038 0.949 . S
C3033 H3028 0.950 . S
C3033 C3035 1.327 . S
C3033 C3039 1.429 . S
C3034 C3026 1.574 . S
C3034 H3029 0.949 . S
C3034 C3040 1.368 . S
C3035 C3019 1.349 . S
C3035 H3027 0.950 . S
C3035 C3033 1.327 . S
C3036 C3024 1.349 . S
C3036 H3030 0.950 . S
C3036 C3037 1.327 . S
C3037 H3031 0.950 . S
C3037 C3036 1.327 . S
C3037 C3041 1.429 . S
C3038 C3021 1.574 . S
C3038 H3032 0.949 . S
C3038 C3042 1.368 . S
C3039 C3020 1.429 . S
C3039 C3033 1.429 . S
C3039 C3040 1.523 . S
C3040 C3021 1.368 . S
C3040 C3034 1.368 . S
C3040 C3039 1.523 . S
C3041 C3025 1.429 . S
C3041 C3037 1.429 . S
C3041 C3042 1.523 . S
C3042 C3026 1.368 . S
C3042 C3038 1.368 . S
C3042 C3041 1.523 . S
H3043 C3018 0.950 . S
H3044 C3020 0.950 . S
H3045 C3021 0.949 . S
H3046 C3023 0.950 . S
H3047 C3025 0.950 . S
C3048 C3049 1.349 . S
C3048 C3050 1.327 . S
C3048 H3073 0.950 . S
C3049 C3048 1.349 . S
C3049 C3065 1.349 . S
C3050 C3048 1.327 . S
C3050 C3069 1.429 . S
C3050 H3074 0.950 . S
C3051 C3068 1.574 . S
C3051 C3070 1.368 . S
C3051 H3075 0.949 . S
H3052 C3056 0.949 . S
C3053 C3054 1.349 . S
C3053 C3055 1.327 . S
C3053 H3076 0.950 . S
C3054 C3053 1.349 . S
C3054 C3066 1.349 . S
C3055 C3053 1.327 . S
C3055 C3071 1.429 . S
C3055 H3077 0.950 . S
C3056 H3052 0.949 . S
C3056 C3064 1.574 . S
C3056 C3072 1.368 . S
H3057 C3065 0.950 . S
H3058 C3063 0.950 . S
H3059 C3064 0.949 . S
H3060 C3066 0.950 . S
H3061 C3067 0.950 . S
H3062 C3068 0.949 . S
C3063 H3058 0.950 . S
C3063 C3065 1.327 . S
C3063 C3069 1.429 . S
C3064 C3056 1.574 . S
C3064 H3059 0.949 . S
C3064 C3070 1.368 . S
C3065 C3049 1.349 . S
C3065 H3057 0.950 . S
C3065 C3063 1.327 . S
C3066 C3054 1.349 . S
C3066 H3060 0.950 . S
C3066 C3067 1.327 . S
C3067 H3061 0.950 . S
C3067 C3066 1.327 . S
C3067 C3071 1.429 . S
C3068 C3051 1.574 . S
C3068 H3062 0.949 . S
C3068 C3072 1.368 . S
C3069 C3050 1.429 . S
C3069 C3063 1.429 . S
C3069 C3070 1.523 . S
C3070 C3051 1.368 . S
C3070 C3064 1.368 . S
C3070 C3069 1.523 . S
C3071 C3055 1.429 . S
C3071 C3067 1.429 . S
C3071 C3072 1.523 . S
C3072 C3056 1.368 . S
C3072 C3068 1.368 . S
C3072 C3071 1.523 . S
H3073 C3048 0.950 . S
H3074 C3050 0.950 . S
H3075 C3051 0.949 . S
H3076 C3053 0.950 . S
H3077 C3055 0.950 . S
C3078 C3079 1.349 . S
C3078 C3080 1.327 . S
C3078 H3103 0.950 . S
C3079 C3078 1.349 . S
C3079 C3095 1.349 . S
C3080 C3078 1.327 . S
C3080 C3099 1.429 . S
C3080 H3104 0.950 . S
C3081 C3098 1.574 . S
C3081 C3100 1.368 . S
C3081 H3105 0.949 . S
H3082 C3086 0.949 . S
C3083 C3084 1.349 . S
C3083 C3085 1.327 . S
C3083 H3106 0.950 . S
C3084 C3083 1.349 . S
C3084 C3096 1.349 . S
C3085 C3083 1.327 . S
C3085 C3101 1.429 . S
C3085 H3107 0.950 . S
C3086 H3082 0.949 . S
C3086 C3094 1.574 . S
C3086 C3102 1.368 . S
H3087 C3095 0.950 . S
H3088 C3093 0.950 . S
H3089 C3094 0.949 . S
H3090 C3096 0.950 . S
H3091 C3097 0.950 . S
H3092 C3098 0.949 . S
C3093 H3088 0.950 . S
C3093 C3095 1.327 . S
C3093 C3099 1.429 . S
C3094 C3086 1.574 . S
C3094 H3089 0.949 . S
C3094 C3100 1.368 . S
C3095 C3079 1.349 . S
C3095 H3087 0.950 . S
C3095 C3093 1.327 . S
C3096 C3084 1.349 . S
C3096 H3090 0.950 . S
C3096 C3097 1.327 . S
C3097 H3091 0.950 . S
C3097 C3096 1.327 . S
C3097 C3101 1.429 . S
C3098 C3081 1.574 . S
C3098 H3092 0.949 . S
C3098 C3102 1.368 . S
C3099 C3080 1.429 . S
C3099 C3093 1.429 . S
C3099 C3100 1.523 . S
C3100 C3081 1.368 . S
C3100 C3094 1.368 . S
C3100 C3099 1.523 . S
C3101 C3085 1.429 . S
C3101 C3097 1.429 . S
C3101 C3102 1.523 . S
C3102 C3086 1.368 . S
C3102 C3098 1.368 . S
C3102 C3101 1.523 . S
H3103 C3078 0.950 . S
H3104 C3080 0.950 . S
H3105 C3081 0.949 . S
H3106 C3083 0.950 . S
H3107 C3085 0.950 . S
C3108 C3109 1.349 . S
C3108 C3110 1.327 . S
C3108 H3133 0.950 . S
C3109 C3108 1.349 . S
C3109 C3125 1.349 . S
C3110 C3108 1.327 . S
C3110 C3129 1.429 . S
C3110 H3134 0.950 . S
C3111 C3128 1.574 . S
C3111 C3130 1.368 . S
C3111 H3135 0.949 . S
H3112 C3116 0.949 . S
C3113 C3114 1.349 . S
C3113 C3115 1.327 . S
C3113 H3136 0.950 . S
C3114 C3113 1.349 . S
C3114 C3126 1.349 . S
C3115 C3113 1.327 . S
C3115 C3131 1.429 . S
C3115 H3137 0.950 . S
C3116 H3112 0.949 . S
C3116 C3124 1.574 . S
C3116 C3132 1.368 . S
H3117 C3125 0.950 . S
H3118 C3123 0.950 . S
H3119 C3124 0.949 . S
H3120 C3126 0.950 . S
H3121 C3127 0.950 . S
H3122 C3128 0.949 . S
C3123 H3118 0.950 . S
C3123 C3125 1.327 . S
C3123 C3129 1.429 . S
C3124 C3116 1.574 . S
C3124 H3119 0.949 . S
C3124 C3130 1.368 . S
C3125 C3109 1.349 . S
C3125 H3117 0.950 . S
C3125 C3123 1.327 . S
C3126 C3114 1.349 . S
C3126 H3120 0.950 . S
C3126 C3127 1.327 . S
C3127 H3121 0.950 . S
C3127 C3126 1.327 . S
C3127 C3131 1.429 . S
C3128 C3111 1.574 . S
C3128 H3122 0.949 . S
C3128 C3132 1.368 . S
C3129 C3110 1.429 . S
C3129 C3123 1.429 . S
C3129 C3130 1.523 . S
C3130 C3111 1.368 . S
C3130 C3124 1.368 . S
C3130 C3129 1.523 . S
C3131 C3115 1.429 . S
C3131 C3127 1.429 . S
C3131 C3132 1.523 . S
C3132 C3116 1.368 . S
C3132 C3128 1.368 . S
C3132 C3131 1.523 . S
H3133 C3108 0.950 . S
H3134 C3110 0.950 . S
H3135 C3111 0.949 . S
H3136 C3113 0.950 . S
H3137 C3115 0.950 . S
C3138 C3139 1.349 . S
C3138 C3140 1.327 . S
C3138 H3163 0.950 . S
C3139 C3138 1.349 . S
C3139 C3155 1.349 . S
C3140 C3138 1.327 . S
C3140 C3159 1.429 . S
C3140 H3164 0.950 . S
C3141 C3158 1.574 . S
C3141 C3160 1.368 . S
C3141 H3165 0.949 . S
H3142 C3146 0.949 . S
C3143 C3144 1.349 . S
C3143 C3145 1.327 . S
C3143 H3166 0.950 . S
C3144 C3143 1.349 . S
C3144 C3156 1.349 . S
C3145 C3143 1.327 . S
C3145 C3161 1.429 . S
C3145 H3167 0.950 . S
C3146 H3142 0.949 . S
C3146 C3154 1.574 . S
C3146 C3162 1.368 . S
H3147 C3155 0.950 . S
H3148 C3153 0.950 . S
H3149 C3154 0.949 . S
H3150 C3156 0.950 . S
H3151 C3157 0.950 . S
H3152 C3158 0.949 . S
C3153 H3148 0.950 . S
C3153 C3155 1.327 . S
C3153 C3159 1.429 . S
C3154 C3146 1.574 . S
C3154 H3149 0.949 . S
C3154 C3160 1.368 . S
C3155 C3139 1.349 . S
C3155 H3147 0.950 . S
C3155 C3153 1.327 . S
C3156 C3144 1.349 . S
C3156 H3150 0.950 . S
C3156 C3157 1.327 . S
C3157 H3151 0.950 . S
C3157 C3156 1.327 . S
C3157 C3161 1.429 . S
C3158 C3141 1.574 . S
C3158 H3152 0.949 . S
C3158 C3162 1.368 . S
C3159 C3140 1.429 . S
C3159 C3153 1.429 . S
C3159 C3160 1.523 . S
C3160 C3141 1.368 . S
C3160 C3154 1.368 . S
C3160 C3159 1.523 . S
C3161 C3145 1.429 . S
C3161 C3157 1.429 . S
C3161 C3162 1.523 . S
C3162 C3146 1.368 . S
C3162 C3158 1.368 . S
C3162 C3161 1.523 . S
H3163 C3138 0.950 . S
H3164 C3140 0.950 . S
H3165 C3141 0.949 . S
H3166 C3143 0.950 . S
H3167 C3145 0.950 . S
C3168 C3169 1.349 . S
C3168 C3170 1.327 . S
C3168 H3193 0.950 . S
C3169 C3168 1.349 . S
C3169 C3185 1.349 . S
C3170 C3168 1.327 . S
C3170 C3189 1.429 . S
C3170 H3194 0.950 . S
C3171 C3188 1.574 . S
C3171 C3190 1.368 . S
C3171 H3195 0.949 . S
H3172 C3176 0.949 . S
C3173 C3174 1.349 . S
C3173 C3175 1.327 . S
C3173 H3196 0.950 . S
C3174 C3173 1.349 . S
C3174 C3186 1.349 . S
C3175 C3173 1.327 . S
C3175 C3191 1.429 . S
C3175 H3197 0.950 . S
C3176 H3172 0.949 . S
C3176 C3184 1.574 . S
C3176 C3192 1.368 . S
H3177 C3185 0.950 . S
H3178 C3183 0.950 . S
H3179 C3184 0.949 . S
H3180 C3186 0.950 . S
H3181 C3187 0.950 . S
H3182 C3188 0.949 . S
C3183 H3178 0.950 . S
C3183 C3185 1.327 . S
C3183 C3189 1.429 . S
C3184 C3176 1.574 . S
C3184 H3179 0.949 . S
C3184 C3190 1.368 . S
C3185 C3169 1.349 . S
C3185 H3177 0.950 . S
C3185 C3183 1.327 . S
C3186 C3174 1.349 . S
C3186 H3180 0.950 . S
C3186 C3187 1.327 . S
C3187 H3181 0.950 . S
C3187 C3186 1.327 . S
C3187 C3191 1.429 . S
C3188 C3171 1.574 . S
C3188 H3182 0.949 . S
C3188 C3192 1.368 . S
C3189 C3170 1.429 . S
C3189 C3183 1.429 . S
C3189 C3190 1.523 . S
C3190 C3171 1.368 . S
C3190 C3184 1.368 . S
C3190 C3189 1.523 . S
C3191 C3175 1.429 . S
C3191 C3187 1.429 . S
C3191 C3192 1.523 . S
C3192 C3176 1.368 . S
C3192 C3188 1.368 . S
C3192 C3191 1.523 . S
H3193 C3168 0.950 . S
H3194 C3170 0.950 . S
H3195 C3171 0.949 . S
H3196 C3173 0.950 . S
H3197 C3175 0.950 . S
C3198 C3199 1.349 . S
C3198 C3200 1.327 . S
C3198 H3223 0.950 . S
C3199 C3198 1.349 . S
C3199 C3215 1.349 . S
C3200 C3198 1.327 . S
C3200 C3219 1.429 . S
C3200 H3224 0.950 . S
C3201 C3218 1.574 . S
C3201 C3220 1.368 . S
C3201 H3225 0.949 . S
H3202 C3206 0.949 . S
C3203 C3204 1.349 . S
C3203 C3205 1.327 . S
C3203 H3226 0.950 . S
C3204 C3203 1.349 . S
C3204 C3216 1.349 . S
C3205 C3203 1.327 . S
C3205 C3221 1.429 . S
C3205 H3227 0.950 . S
C3206 H3202 0.949 . S
C3206 C3214 1.574 . S
C3206 C3222 1.368 . S
H3207 C3215 0.950 . S
H3208 C3213 0.950 . S
H3209 C3214 0.949 . S
H3210 C3216 0.950 . S
H3211 C3217 0.950 . S
H3212 C3218 0.949 . S
C3213 H3208 0.950 . S
C3213 C3215 1.327 . S
C3213 C3219 1.429 . S
C3214 C3206 1.574 . S
C3214 H3209 0.949 . S
C3214 C3220 1.368 . S
C3215 C3199 1.349 . S
C3215 H3207 0.950 . S
C3215 C3213 1.327 . S
C3216 C3204 1.349 . S
C3216 H3210 0.950 . S
C3216 C3217 1.327 . S
C3217 H3211 0.950 . S
C3217 C3216 1.327 . S
C3217 C3221 1.429 . S
C3218 C3201 1.574 . S
C3218 H3212 0.949 . S
C3218 C3222 1.368 . S
C3219 C3200 1.429 . S
C3219 C3213 1.429 . S
C3219 C3220 1.523 . S
C3220 C3201 1.368 . S
C3220 C3214 1.368 . S
C3220 C3219 1.523 . S
C3221 C3205 1.429 . S
C3221 C3217 1.429 . S
C3221 C3222 1.523 . S
C3222 C3206 1.368 . S
C3222 C3218 1.368 . S
C3222 C3221 1.523 . S
H3223 C3198 0.950 . S
H3224 C3200 0.950 . S
H3225 C3201 0.949 . S
H3226 C3203 0.950 . S
H3227 C3205 0.950 . S
C3228 C3229 1.349 . S
C3228 C3230 1.327 . S
C3228 H3253 0.950 . S
C3229 C3228 1.349 . S
C3229 C3245 1.349 . S
C3230 C3228 1.327 . S
C3230 C3249 1.429 . S
C3230 H3254 0.950 . S
C3231 C3248 1.574 . S
C3231 C3250 1.368 . S
C3231 H3255 0.949 . S
H3232 C3236 0.949 . S
C3233 C3234 1.349 . S
C3233 C3235 1.327 . S
C3233 H3256 0.950 . S
C3234 C3233 1.349 . S
C3234 C3246 1.349 . S
C3235 C3233 1.327 . S
C3235 C3251 1.429 . S
C3235 H3257 0.950 . S
C3236 H3232 0.949 . S
C3236 C3244 1.574 . S
C3236 C3252 1.368 . S
H3237 C3245 0.950 . S
H3238 C3243 0.950 . S
H3239 C3244 0.949 . S
H3240 C3246 0.950 . S
H3241 C3247 0.950 . S
H3242 C3248 0.949 . S
C3243 H3238 0.950 . S
C3243 C3245 1.327 . S
C3243 C3249 1.429 . S
C3244 C3236 1.574 . S
C3244 H3239 0.949 . S
C3244 C3250 1.368 . S
C3245 C3229 1.349 . S
C3245 H3237 0.950 . S
C3245 C3243 1.327 . S
C3246 C3234 1.349 . S
C3246 H3240 0.950 . S
C3246 C3247 1.327 . S
C3247 H3241 0.950 . S
C3247 C3246 1.327 . S
C3247 C3251 1.429 . S
C3248 C3231 1.574 . S
C3248 H3242 0.949 . S
C3248 C3252 1.368 . S
C3249 C3230 1.429 . S
C3249 C3243 1.429 . S
C3249 C3250 1.523 . S
C3250 C3231 1.368 . S
C3250 C3244 1.368 . S
C3250 C3249 1.523 . S
C3251 C3235 1.429 . S
C3251 C3247 1.429 . S
C3251 C3252 1.523 . S
C3252 C3236 1.368 . S
C3252 C3248 1.368 . S
C3252 C3251 1.523 . S
H3253 C3228 0.950 . S
H3254 C3230 0.950 . S
H3255 C3231 0.949 . S
H3256 C3233 0.950 . S
H3257 C3235 0.950 . S
C3258 C3259 1.349 . S
C3258 C3260 1.327 . S
C3258 H3283 0.950 . S
C3259 C3258 1.349 . S
C3259 C3275 1.349 . S
C3260 C3258 1.327 . S
C3260 C3279 1.429 . S
C3260 H3284 0.950 . S
C3261 C3278 1.574 . S
C3261 C3280 1.368 . S
C3261 H3285 0.949 . S
H3262 C3266 0.949 . S
C3263 C3264 1.349 . S
C3263 C3265 1.327 . S
C3263 H3286 0.950 . S
C3264 C3263 1.349 . S
C3264 C3276 1.349 . S
C3265 C3263 1.327 . S
C3265 C3281 1.429 . S
C3265 H3287 0.950 . S
C3266 H3262 0.949 . S
C3266 C3274 1.574 . S
C3266 C3282 1.368 . S
H3267 C3275 0.950 . S
H3268 C3273 0.950 . S
H3269 C3274 0.949 . S
H3270 C3276 0.950 . S
H3271 C3277 0.950 . S
H3272 C3278 0.949 . S
C3273 H3268 0.950 . S
C3273 C3275 1.327 . S
C3273 C3279 1.429 . S
C3274 C3266 1.574 . S
C3274 H3269 0.949 . S
C3274 C3280 1.368 . S
C3275 C3259 1.349 . S
C3275 H3267 0.950 . S
C3275 C3273 1.327 . S
C3276 C3264 1.349 . S
C3276 H3270 0.950 . S
C3276 C3277 1.327 . S
C3277 H3271 0.950 . S
C3277 C3276 1.327 . S
C3277 C3281 1.429 . S
C3278 C3261 1.574 . S
C3278 H3272 0.949 . S
C3278 C3282 1.368 . S
C3279 C3260 1.429 . S
C3279 C3273 1.429 . S
C3279 C3280 1.523 . S
C3280 C3261 1.368 . S
C3280 C3274 1.368 . S
C3280 C3279 1.523 . S
C3281 C3265 1.429 . S
C3281 C3277 1.429 . S
C3281 C3282 1.523 . S
C3282 C3266 1.368 . S
C3282 C3278 1.368 . S
C3282 C3281 1.523 . S
H3283 C3258 0.950 . S
H3284 C3260 0.950 . S
H3285 C3261 0.949 . S
H3286 C3263 0.950 . S
H3287 C3265 0.950 . S
C3288 C3289 1.349 . S
C3288 C3290 1.327 . S
C3288 H3313 0.950 . S
C3289 C3288 1.349 . S
C3289 C3305 1.349 . S
C3290 C3288 1.327 . S
C3290 C3309 1.429 . S
C3290 H3314 0.950 . S
C3291 C3308 1.574 . S
C3291 C3310 1.368 . S
C3291 H3315 0.949 . S
H3292 C3296 0.949 . S
C3293 C3294 1.349 . S
C3293 C3295 1.327 . S
C3293 H3316 0.950 . S
C3294 C3293 1.349 . S
C3294 C3306 1.349 . S
C3295 C3293 1.327 . S
C3295 C3311 1.429 . S
C3295 H3317 0.950 . S
C3296 H3292 0.949 . S
C3296 C3304 1.574 . S
C3296 C3312 1.368 . S
H3297 C3305 0.950 . S
H3298 C3303 0.950 . S
H3299 C3304 0.949 . S
H3300 C3306 0.950 . S
H3301 C3307 0.950 . S
H3302 C3308 0.949 . S
C3303 H3298 0.950 . S
C3303 C3305 1.327 . S
C3303 C3309 1.429 . S
C3304 C3296 1.574 . S
C3304 H3299 0.949 . S
C3304 C3310 1.368 . S
C3305 C3289 1.349 . S
C3305 H3297 0.950 . S
C3305 C3303 1.327 . S
C3306 C3294 1.349 . S
C3306 H3300 0.950 . S
C3306 C3307 1.327 . S
C3307 H3301 0.950 . S
C3307 C3306 1.327 . S
C3307 C3311 1.429 . S
C3308 C3291 1.574 . S
C3308 H3302 0.949 . S
C3308 C3312 1.368 . S
C3309 C3290 1.429 . S
C3309 C3303 1.429 . S
C3309 C3310 1.523 . S
C3310 C3291 1.368 . S
C3310 C3304 1.368 . S
C3310 C3309 1.523 . S
C3311 C3295 1.429 . S
C3311 C3307 1.429 . S
C3311 C3312 1.523 . S
C3312 C3296 1.368 . S
C3312 C3308 1.368 . S
C3312 C3311 1.523 . S
H3313 C3288 0.950 . S
H3314 C3290 0.950 . S
H3315 C3291 0.949 . S
H3316 C3293 0.950 . S
H3317 C3295 0.950 . S
C3318 C3319 1.349 . S
C3318 C3320 1.327 . S
C3318 H3343 0.950 . S
C3319 C3318 1.349 . S
C3319 C3335 1.349 . S
C3320 C3318 1.327 . S
C3320 C3339 1.429 . S
C3320 H3344 0.950 . S
C3321 C3338 1.574 . S
C3321 C3340 1.368 . S
C3321 H3345 0.949 . S
H3322 C3326 0.949 . S
C3323 C3324 1.349 . S
C3323 C3325 1.327 . S
C3323 H3346 0.950 . S
C3324 C3323 1.349 . S
C3324 C3336 1.349 . S
C3325 C3323 1.327 . S
C3325 C3341 1.429 . S
C3325 H3347 0.950 . S
C3326 H3322 0.949 . S
C3326 C3334 1.574 . S
C3326 C3342 1.368 . S
H3327 C3335 0.950 . S
H3328 C3333 0.950 . S
H3329 C3334 0.949 . S
H3330 C3336 0.950 . S
H3331 C3337 0.950 . S
H3332 C3338 0.949 . S
C3333 H3328 0.950 . S
C3333 C3335 1.327 . S
C3333 C3339 1.429 . S
C3334 C3326 1.574 . S
C3334 H3329 0.949 . S
C3334 C3340 1.368 . S
C3335 C3319 1.349 . S
C3335 H3327 0.950 . S
C3335 C3333 1.327 . S
C3336 C3324 1.349 . S
C3336 H3330 0.950 . S
C3336 C3337 1.327 . S
C3337 H3331 0.950 . S
C3337 C3336 1.327 . S
C3337 C3341 1.429 . S
C3338 C3321 1.574 . S
C3338 H3332 0.949 . S
C3338 C3342 1.368 . S
C3339 C3320 1.429 . S
C3339 C3333 1.429 . S
C3339 C3340 1.523 . S
C3340 C3321 1.368 . S
C3340 C3334 1.368 . S
C3340 C3339 1.523 . S
C3341 C3325 1.429 . S
C3341 C3337 1.429 . S
C3341 C3342 1.523 . S
C3342 C3326 1.368 . S
C3342 C3338 1.368 . S
C3342 C3341 1.523 . S
H3343 C3318 0.950 . S
H3344 C3320 0.950 . S
H3345 C3321 0.949 . S
H3346 C3323 0.950 . S
H3347 C3325 0.950 . S
C3348 C3349 1.349 . S
C3348 C3350 1.327 . S
C3348 H3373 0.950 . S
C3349 C3348 1.349 . S
C3349 C3365 1.349 . S
C3350 C3348 1.327 . S
C3350 C3369 1.429 . S
C3350 H3374 0.950 . S
C3351 C3368 1.574 . S
C3351 C3370 1.368 . S
C3351 H3375 0.949 . S
H3352 C3356 0.949 . S
C3353 C3354 1.349 . S
C3353 C3355 1.327 . S
C3353 H3376 0.950 . S
C3354 C3353 1.349 . S
C3354 C3366 1.349 . S
C3355 C3353 1.327 . S
C3355 C3371 1.429 . S
C3355 H3377 0.950 . S
C3356 H3352 0.949 . S
C3356 C3364 1.574 . S
C3356 C3372 1.368 . S
H3357 C3365 0.950 . S
H3358 C3363 0.950 . S
H3359 C3364 0.949 . S
H3360 C3366 0.950 . S
H3361 C3367 0.950 . S
H3362 C3368 0.949 . S
C3363 H3358 0.950 . S
C3363 C3365 1.327 . S
C3363 C3369 1.429 . S
C3364 C3356 1.574 . S
C3364 H3359 0.949 . S
C3364 C3370 1.368 . S
C3365 C3349 1.349 . S
C3365 H3357 0.950 . S
C3365 C3363 1.327 . S
C3366 C3354 1.349 . S
C3366 H3360 0.950 . S
C3366 C3367 1.327 . S
C3367 H3361 0.950 . S
C3367 C3366 1.327 . S
C3367 C3371 1.429 . S
C3368 C3351 1.574 . S
C3368 H3362 0.949 . S
C3368 C3372 1.368 . S
C3369 C3350 1.429 . S
C3369 C3363 1.429 . S
C3369 C3370 1.523 . S
C3370 C3351 1.368 . S
C3370 C3364 1.368 . S
C3370 C3369 1.523 . S
C3371 C3355 1.429 . S
C3371 C3367 1.429 . S
C3371 C3372 1.523 . S
C3372 C3356 1.368 . S
C3372 C3368 1.368 . S
C3372 C3371 1.523 . S
H3373 C3348 0.950 . S
H3374 C3350 0.950 . S
H3375 C3351 0.949 . S
H3376 C3353 0.950 . S
H3377 C3355 0.950 . S
C3378 C3379 1.349 . S
C3378 C3380 1.327 . S
C3378 H3403 0.950 . S
C3379 C3378 1.349 . S
C3379 C3395 1.349 . S
C3380 C3378 1.327 . S
C3380 C3399 1.429 . S
C3380 H3404 0.950 . S
C3381 C3398 1.574 . S
C3381 C3400 1.368 . S
C3381 H3405 0.949 . S
H3382 C3386 0.949 . S
C3383 C3384 1.349 . S
C3383 C3385 1.327 . S
C3383 H3406 0.950 . S
C3384 C3383 1.349 . S
C3384 C3396 1.349 . S
C3385 C3383 1.327 . S
C3385 C3401 1.429 . S
C3385 H3407 0.950 . S
C3386 H3382 0.949 . S
C3386 C3394 1.574 . S
C3386 C3402 1.368 . S
H3387 C3395 0.950 . S
H3388 C3393 0.950 . S
H3389 C3394 0.949 . S
H3390 C3396 0.950 . S
H3391 C3397 0.950 . S
H3392 C3398 0.949 . S
C3393 H3388 0.950 . S
C3393 C3395 1.327 . S
C3393 C3399 1.429 . S
C3394 C3386 1.574 . S
C3394 H3389 0.949 . S
C3394 C3400 1.368 . S
C3395 C3379 1.349 . S
C3395 H3387 0.950 . S
C3395 C3393 1.327 . S
C3396 C3384 1.349 . S
C3396 H3390 0.950 . S
C3396 C3397 1.327 . S
C3397 H3391 0.950 . S
C3397 C3396 1.327 . S
C3397 C3401 1.429 . S
C3398 C3381 1.574 . S
C3398 H3392 0.949 . S
C3398 C3402 1.368 . S
C3399 C3380 1.429 . S
C3399 C3393 1.429 . S
C3399 C3400 1.523 . S
C3400 C3381 1.368 . S
C3400 C3394 1.368 . S
C3400 C3399 1.523 . S
C3401 C3385 1.429 . S
C3401 C3397 1.429 . S
C3401 C3402 1.523 . S
C3402 C3386 1.368 . S
C3402 C3398 1.368 . S
C3402 C3401 1.523 . S
H3403 C3378 0.950 . S
H3404 C3380 0.950 . S
H3405 C3381 0.949 . S
H3406 C3383 0.950 . S
H3407 C3385 0.950 . S
C3408 C3409 1.349 . S
C3408 C3410 1.327 . S
C3408 H3433 0.950 . S
C3409 C3408 1.349 . S
C3409 C3425 1.349 . S
C3410 C3408 1.327 . S
C3410 C3429 1.429 . S
C3410 H3434 0.950 . S
C3411 C3428 1.574 . S
C3411 C3430 1.368 . S
C3411 H3435 0.949 . S
H3412 C3416 0.949 . S
C3413 C3414 1.349 . S
C3413 C3415 1.327 . S
C3413 H3436 0.950 . S
C3414 C3413 1.349 . S
C3414 C3426 1.349 . S
C3415 C3413 1.327 . S
C3415 C3431 1.429 . S
C3415 H3437 0.950 . S
C3416 H3412 0.949 . S
C3416 C3424 1.574 . S
C3416 C3432 1.368 . S
H3417 C3425 0.950 . S
H3418 C3423 0.950 . S
H3419 C3424 0.949 . S
H3420 C3426 0.950 . S
H3421 C3427 0.950 . S
H3422 C3428 0.949 . S
C3423 H3418 0.950 . S
C3423 C3425 1.327 . S
C3423 C3429 1.429 . S
C3424 C3416 1.574 . S
C3424 H3419 0.949 . S
C3424 C3430 1.368 . S
C3425 C3409 1.349 . S
C3425 H3417 0.950 . S
C3425 C3423 1.327 . S
C3426 C3414 1.349 . S
C3426 H3420 0.950 . S
C3426 C3427 1.327 . S
C3427 H3421 0.950 . S
C3427 C3426 1.327 . S
C3427 C3431 1.429 . S
C3428 C3411 1.574 . S
C3428 H3422 0.949 . S
C3428 C3432 1.368 . S
C3429 C3410 1.429 . S
C3429 C3423 1.429 . S
C3429 C3430 1.523 . S
C3430 C3411 1.368 . S
C3430 C3424 1.368 . S
C3430 C3429 1.523 . S
C3431 C3415 1.429 . S
C3431 C3427 1.429 . S
C3431 C3432 1.523 . S
C3432 C3416 1.368 . S
C3432 C3428 1.368 . S
C3432 C3431 1.523 . S
H3433 C3408 0.950 . S
H3434 C3410 0.950 . S
H3435 C3411 0.949 . S
H3436 C3413 0.950 . S
H3437 C3415 0.950 . S
C3438 C3439 1.349 . S
C3438 C3440 1.327 . S
C3438 H3463 0.950 . S
C3439 C3438 1.349 . S
C3439 C3455 1.349 . S
C3440 C3438 1.327 . S
C3440 C3459 1.429 . S
C3440 H3464 0.950 . S
C3441 C3458 1.574 . S
C3441 C3460 1.368 . S
C3441 H3465 0.949 . S
H3442 C3446 0.949 . S
C3443 C3444 1.349 . S
C3443 C3445 1.327 . S
C3443 H3466 0.950 . S
C3444 C3443 1.349 . S
C3444 C3456 1.349 . S
C3445 C3443 1.327 . S
C3445 C3461 1.429 . S
C3445 H3467 0.950 . S
C3446 H3442 0.949 . S
C3446 C3454 1.574 . S
C3446 C3462 1.368 . S
H3447 C3455 0.950 . S
H3448 C3453 0.950 . S
H3449 C3454 0.949 . S
H3450 C3456 0.950 . S
H3451 C3457 0.950 . S
H3452 C3458 0.949 . S
C3453 H3448 0.950 . S
C3453 C3455 1.327 . S
C3453 C3459 1.429 . S
C3454 C3446 1.574 . S
C3454 H3449 0.949 . S
C3454 C3460 1.368 . S
C3455 C3439 1.349 . S
C3455 H3447 0.950 . S
C3455 C3453 1.327 . S
C3456 C3444 1.349 . S
C3456 H3450 0.950 . S
C3456 C3457 1.327 . S
C3457 H3451 0.950 . S
C3457 C3456 1.327 . S
C3457 C3461 1.429 . S
C3458 C3441 1.574 . S
C3458 H3452 0.949 . S
C3458 C3462 1.368 . S
C3459 C3440 1.429 . S
C3459 C3453 1.429 . S
C3459 C3460 1.523 . S
C3460 C3441 1.368 . S
C3460 C3454 1.368 . S
C3460 C3459 1.523 . S
C3461 C3445 1.429 . S
C3461 C3457 1.429 . S
C3461 C3462 1.523 . S
C3462 C3446 1.368 . S
C3462 C3458 1.368 . S
C3462 C3461 1.523 . S
H3463 C3438 0.950 . S
H3464 C3440 0.950 . S
H3465 C3441 0.949 . S
H3466 C3443 0.950 . S
H3467 C3445 0.950 . S
C3468 C3469 1.349 . S
C3468 C3470 1.327 . S
C3468 H3493 0.950 . S
C3469 C3468 1.349 . S
C3469 C3485 1.349 . S
C3470 C3468 1.327 . S
C3470 C3489 1.429 . S
C3470 H3494 0.950 . S
C3471 C3488 1.574 . S
C3471 C3490 1.368 . S
C3471 H3495 0.949 . S
H3472 C3476 0.949 . S
C3473 C3474 1.349 . S
C3473 C3475 1.327 . S
C3473 H3496 0.950 . S
C3474 C3473 1.349 . S
C3474 C3486 1.349 . S
C3475 C3473 1.327 . S
C3475 C3491 1.429 . S
C3475 H3497 0.950 . S
C3476 H3472 0.949 . S
C3476 C3484 1.574 . S
C3476 C3492 1.368 . S
H3477 C3485 0.950 . S
H3478 C3483 0.950 . S
H3479 C3484 0.949 . S
H3480 C3486 0.950 . S
H3481 C3487 0.950 . S
H3482 C3488 0.949 . S
C3483 H3478 0.950 . S
C3483 C3485 1.327 . S
C3483 C3489 1.429 . S
C3484 C3476 1.574 . S
C3484 H3479 0.949 . S
C3484 C3490 1.368 . S
C3485 C3469 1.349 . S
C3485 H3477 0.950 . S
C3485 C3483 1.327 . S
C3486 C3474 1.349 . S
C3486 H3480 0.950 . S
C3486 C3487 1.327 . S
C3487 H3481 0.950 . S
C3487 C3486 1.327 . S
C3487 C3491 1.429 . S
C3488 C3471 1.574 . S
C3488 H3482 0.949 . S
C3488 C3492 1.368 . S
C3489 C3470 1.429 . S
C3489 C3483 1.429 . S
C3489 C3490 1.523 . S
C3490 C3471 1.368 . S
C3490 C3484 1.368 . S
C3490 C3489 1.523 . S
C3491 C3475 1.429 . S
C3491 C3487 1.429 . S
C3491 C3492 1.523 . S
C3492 C3476 1.368 . S
C3492 C3488 1.368 . S
C3492 C3491 1.523 . S
H3493 C3468 0.950 . S
H3494 C3470 0.950 . S
H3495 C3471 0.949 . S
H3496 C3473 0.950 . S
H3497 C3475 0.950 . S
C3498 C3499 1.349 . S
C3498 C3500 1.327 . S
C3498 H3523 0.950 . S
C3499 C3498 1.349 . S
C3499 C3515 1.349 . S
C3500 C3498 1.327 . S
C3500 C3519 1.429 . S
C3500 H3524 0.950 . S
C3501 C3518 1.574 . S
C3501 C3520 1.368 . S
C3501 H3525 0.949 . S
H3502 C3506 0.949 . S
C3503 C3504 1.349 . S
C3503 C3505 1.327 . S
C3503 H3526 0.950 . S
C3504 C3503 1.349 . S
C3504 C3516 1.349 . S
C3505 C3503 1.327 . S
C3505 C3521 1.429 . S
C3505 H3527 0.950 . S
C3506 H3502 0.949 . S
C3506 C3514 1.574 . S
C3506 C3522 1.368 . S
H3507 C3515 0.950 . S
H3508 C3513 0.950 . S
H3509 C3514 0.949 . S
H3510 C3516 0.950 . S
H3511 C3517 0.950 . S
H3512 C3518 0.949 . S
C3513 H3508 0.950 . S
C3513 C3515 1.327 . S
C3513 C3519 1.429 . S
C3514 C3506 1.574 . S
C3514 H3509 0.949 . S
C3514 C3520 1.368 . S
C3515 C3499 1.349 . S
C3515 H3507 0.950 . S
C3515 C3513 1.327 . S
C3516 C3504 1.349 . S
C3516 H3510 0.950 . S
C3516 C3517 1.327 . S
C3517 H3511 0.950 . S
C3517 C3516 1.327 . S
C3517 C3521 1.429 . S
C3518 C3501 1.574 . S
C3518 H3512 0.949 . S
C3518 C3522 1.368 . S
C3519 C3500 1.429 . S
C3519 C3513 1.429 . S
C3519 C3520 1.523 . S
C3520 C3501 1.368 . S
C3520 C3514 1.368 . S
C3520 C3519 1.523 . S
C3521 C3505 1.429 . S
C3521 C3517 1.429 . S
C3521 C3522 1.523 . S
C3522 C3506 1.368 . S
C3522 C3518 1.368 . S
C3522 C3521 1.523 . S
H3523 C3498 0.950 . S
H3524 C3500 0.950 . S
H3525 C3501 0.949 . S
H3526 C3503 0.950 . S
H3527 C3505 0.950 . S
C3528 C3529 1.349 . S
C3528 C3530 1.327 . S
C3528 H3553 0.950 . S
C3529 C3528 1.349 . S
C3529 C3545 1.349 . S
C3530 C3528 1.327 . S
C3530 C3549 1.429 . S
C3530 H3554 0.950 . S
C3531 C3548 1.574 . S
C3531 C3550 1.368 . S
C3531 H3555 0.949 . S
H3532 C3536 0.949 . S
C3533 C3534 1.349 . S
C3533 C3535 1.327 . S
C3533 H3556 0.950 . S
C3534 C3533 1.349 . S
C3534 C3546 1.349 . S
C3535 C3533 1.327 . S
C3535 C3551 1.429 . S
C3535 H3557 0.950 . S
C3536 H3532 0.949 . S
C3536 C3544 1.574 . S
C3536 C3552 1.368 . S
H3537 C3545 0.950 . S
H3538 C3543 0.950 . S
H3539 C3544 0.949 . S
H3540 C3546 0.950 . S
H3541 C3547 0.950 . S
H3542 C3548 0.949 . S
C3543 H3538 0.950 . S
C3543 C3545 1.327 . S
C3543 C3549 1.429 . S
C3544 C3536 1.574 . S
C3544 H3539 0.949 . S
C3544 C3550 1.368 . S
C3545 C3529 1.349 . S
C3545 H3537 0.950 . S
C3545 C3543 1.327 . S
C3546 C3534 1.349 . S
C3546 H3540 0.950 . S
C3546 C3547 1.327 . S
C3547 H3541 0.950 . S
C3547 C3546 1.327 . S
C3547 C3551 1.429 . S
C3548 C3531 1.574 . S
C3548 H3542 0.949 . S
C3548 C3552 1.368 . S
C3549 C3530 1.429 . S
C3549 C3543 1.429 . S
C3549 C3550 1.523 . S
C3550 C3531 1.368 . S
C3550 C3544 1.368 . S
C3550 C3549 1.523 . S
C3551 C3535 1.429 . S
C3551 C3547 1.429 . S
C3551 C3552 1.523 . S
C3552 C3536 1.368 . S
C3552 C3548 1.368 . S
C3552 C3551 1.523 . S
H3553 C3528 0.950 . S
H3554 C3530 0.950 . S
H3555 C3531 0.949 . S
H3556 C3533 0.950 . S
H3557 C3535 0.950 . S
C3558 C3559 1.349 . S
C3558 C3560 1.327 . S
C3558 H3583 0.950 . S
C3559 C3558 1.349 . S
C3559 C3575 1.349 . S
C3560 C3558 1.327 . S
C3560 C3579 1.429 . S
C3560 H3584 0.950 . S
C3561 C3578 1.574 . S
C3561 C3580 1.368 . S
C3561 H3585 0.949 . S
H3562 C3566 0.949 . S
C3563 C3564 1.349 . S
C3563 C3565 1.327 . S
C3563 H3586 0.950 . S
C3564 C3563 1.349 . S
C3564 C3576 1.349 . S
C3565 C3563 1.327 . S
C3565 C3581 1.429 . S
C3565 H3587 0.950 . S
C3566 H3562 0.949 . S
C3566 C3574 1.574 . S
C3566 C3582 1.368 . S
H3567 C3575 0.950 . S
H3568 C3573 0.950 . S
H3569 C3574 0.949 . S
H3570 C3576 0.950 . S
H3571 C3577 0.950 . S
H3572 C3578 0.949 . S
C3573 H3568 0.950 . S
C3573 C3575 1.327 . S
C3573 C3579 1.429 . S
C3574 C3566 1.574 . S
C3574 H3569 0.949 . S
C3574 C3580 1.368 . S
C3575 C3559 1.349 . S
C3575 H3567 0.950 . S
C3575 C3573 1.327 . S
C3576 C3564 1.349 . S
C3576 H3570 0.950 . S
C3576 C3577 1.327 . S
C3577 H3571 0.950 . S
C3577 C3576 1.327 . S
C3577 C3581 1.429 . S
C3578 C3561 1.574 . S
C3578 H3572 0.949 . S
C3578 C3582 1.368 . S
C3579 C3560 1.429 . S
C3579 C3573 1.429 . S
C3579 C3580 1.523 . S
C3580 C3561 1.368 . S
C3580 C3574 1.368 . S
C3580 C3579 1.523 . S
C3581 C3565 1.429 . S
C3581 C3577 1.429 . S
C3581 C3582 1.523 . S
C3582 C3566 1.368 . S
C3582 C3578 1.368 . S
C3582 C3581 1.523 . S
H3583 C3558 0.950 . S
H3584 C3560 0.950 . S
H3585 C3561 0.949 . S
H3586 C3563 0.950 . S
H3587 C3565 0.950 . S
C3588 C3589 1.349 . S
C3588 C3590 1.327 . S
C3588 H3613 0.950 . S
C3589 C3588 1.349 . S
C3589 C3605 1.349 . S
C3590 C3588 1.327 . S
C3590 C3609 1.429 . S
C3590 H3614 0.950 . S
C3591 C3608 1.574 . S
C3591 C3610 1.368 . S
C3591 H3615 0.949 . S
H3592 C3596 0.949 . S
C3593 C3594 1.349 . S
C3593 C3595 1.327 . S
C3593 H3616 0.950 . S
C3594 C3593 1.349 . S
C3594 C3606 1.349 . S
C3595 C3593 1.327 . S
C3595 C3611 1.429 . S
C3595 H3617 0.950 . S
C3596 H3592 0.949 . S
C3596 C3604 1.574 . S
C3596 C3612 1.368 . S
H3597 C3605 0.950 . S
H3598 C3603 0.950 . S
H3599 C3604 0.949 . S
H3600 C3606 0.950 . S
H3601 C3607 0.950 . S
H3602 C3608 0.949 . S
C3603 H3598 0.950 . S
C3603 C3605 1.327 . S
C3603 C3609 1.429 . S
C3604 C3596 1.574 . S
C3604 H3599 0.949 . S
C3604 C3610 1.368 . S
C3605 C3589 1.349 . S
C3605 H3597 0.950 . S
C3605 C3603 1.327 . S
C3606 C3594 1.349 . S
C3606 H3600 0.950 . S
C3606 C3607 1.327 . S
C3607 H3601 0.950 . S
C3607 C3606 1.327 . S
C3607 C3611 1.429 . S
C3608 C3591 1.574 . S
C3608 H3602 0.949 . S
C3608 C3612 1.368 . S
C3609 C3590 1.429 . S
C3609 C3603 1.429 . S
C3609 C3610 1.523 . S
C3610 C3591 1.368 . S
C3610 C3604 1.368 . S
C3610 C3609 1.523 . S
C3611 C3595 1.429 . S
C3611 C3607 1.429 . S
C3611 C3612 1.523 . S
C3612 C3596 1.368 . S
C3612 C3608 1.368 . S
C3612 C3611 1.523 . S
H3613 C3588 0.950 . S
H3614 C3590 0.950 . S
H3615 C3591 0.949 . S
H3616 C3593 0.950 . S
H3617 C3595 0.950 . S
C3618 C3619 1.349 . S
C3618 C3620 1.327 . S
C3618 H3643 0.950 . S
C3619 C3618 1.349 . S
C3619 C3635 1.349 . S
C3620 C3618 1.327 . S
C3620 C3639 1.429 . S
C3620 H3644 0.950 . S
C3621 C3638 1.574 . S
C3621 C3640 1.368 . S
C3621 H3645 0.949 . S
H3622 C3626 0.949 . S
C3623 C3624 1.349 . S
C3623 C3625 1.327 . S
C3623 H3646 0.950 . S
C3624 C3623 1.349 . S
C3624 C3636 1.349 . S
C3625 C3623 1.327 . S
C3625 C3641 1.429 . S
C3625 H3647 0.950 . S
C3626 H3622 0.949 . S
C3626 C3634 1.574 . S
C3626 C3642 1.368 . S
H3627 C3635 0.950 . S
H3628 C3633 0.950 . S
H3629 C3634 0.949 . S
H3630 C3636 0.950 . S
H3631 C3637 0.950 . S
H3632 C3638 0.949 . S
C3633 H3628 0.950 . S
C3633 C3635 1.327 . S
C3633 C3639 1.429 . S
C3634 C3626 1.574 . S
C3634 H3629 0.949 . S
C3634 C3640 1.368 . S
C3635 C3619 1.349 . S
C3635 H3627 0.950 . S
C3635 C3633 1.327 . S
C3636 C3624 1.349 . S
C3636 H3630 0.950 . S
C3636 C3637 1.327 . S
C3637 H3631 0.950 . S
C3637 C3636 1.327 . S
C3637 C3641 1.429 . S
C3638 C3621 1.574 . S
C3638 H3632 0.949 . S
C3638 C3642 1.368 . S
C3639 C3620 1.429 . S
C3639 C3633 1.429 . S
C3639 C3640 1.523 . S
C3640 C3621 1.368 . S
C3640 C3634 1.368 . S
C3640 C3639 1.523 . S
C3641 C3625 1.429 . S
C3641 C3637 1.429 . S
C3641 C3642 1.523 . S
C3642 C3626 1.368 . S
C3642 C3638 1.368 . S
C3642 C3641 1.523 . S
H3643 C3618 0.950 . S
H3644 C3620 0.950 . S
H3645 C3621 0.949 . S
H3646 C3623 0.950 . S
H3647 C3625 0.950 . S
C3648 C3649 1.349 . S
C3648 C3650 1.327 . S
C3648 H3673 0.950 . S
C3649 C3648 1.349 . S
C3649 C3665 1.349 . S
C3650 C3648 1.327 . S
C3650 C3669 1.429 . S
C3650 H3674 0.950 . S
C3651 C3668 1.574 1_455 S
C3651 C3670 1.368 . S
C3651 H3675 0.949 . S
H3652 C3656 0.949 . S
C3653 C3654 1.349 . S
C3653 C3655 1.327 . S
C3653 H3676 0.950 . S
C3654 C3653 1.349 . S
C3654 C3666 1.349 . S
C3655 C3653 1.327 . S
C3655 C3671 1.429 . S
C3655 H3677 0.950 . S
C3656 H3652 0.949 . S
C3656 C3664 1.574 1_655 S
C3656 C3672 1.368 . S
H3657 C3665 0.950 . S
H3658 C3663 0.950 . S
H3659 C3664 0.949 . S
H3660 C3666 0.950 . S
H3661 C3667 0.950 . S
H3662 C3668 0.949 . S
C3663 H3658 0.950 . S
C3663 C3665 1.327 . S
C3663 C3669 1.429 . S
C3664 C3656 1.574 1_455 S
C3664 H3659 0.949 . S
C3664 C3670 1.368 . S
C3665 C3649 1.349 . S
C3665 H3657 0.950 . S
C3665 C3663 1.327 . S
C3666 C3654 1.349 . S
C3666 H3660 0.950 . S
C3666 C3667 1.327 . S
C3667 H3661 0.950 . S
C3667 C3666 1.327 . S
C3667 C3671 1.429 . S
C3668 C3651 1.574 1_655 S
C3668 H3662 0.949 . S
C3668 C3672 1.368 . S
C3669 C3650 1.429 . S
C3669 C3663 1.429 . S
C3669 C3670 1.523 . S
C3670 C3651 1.368 . S
C3670 C3664 1.368 . S
C3670 C3669 1.523 . S
C3671 C3655 1.429 . S
C3671 C3667 1.429 . S
C3671 C3672 1.523 . S
C3672 C3656 1.368 . S
C3672 C3668 1.368 . S
C3672 C3671 1.523 . S
H3673 C3648 0.950 . S
H3674 C3650 0.950 . S
H3675 C3651 0.949 . S
H3676 C3653 0.950 . S
H3677 C3655 0.950 . S
C3678 C3679 1.349 . S
C3678 C3680 1.332 . S
C3678 H3703 0.950 1_655 S
C3679 C3678 1.349 . S
C3679 C3695 1.349 . S
C3680 C3678 1.332 . S
C3680 C3699 1.437 . S
C3680 H3704 0.936 1_655 S
C3681 C3698 1.574 . S
C3681 C3700 1.368 . S
C3681 H3705 0.949 . S
H3682 C3686 0.949 . S
C3683 C3684 1.349 . S
C3683 C3685 1.332 . S
C3683 H3706 0.950 1_455 S
C3684 C3683 1.349 . S
C3684 C3696 1.349 . S
C3685 C3683 1.332 . S
C3685 C3701 1.437 . S
C3685 H3707 0.936 1_455 S
C3686 H3682 0.949 . S
C3686 C3694 1.574 . S
C3686 C3702 1.368 . S
H3687 C3695 0.950 . S
H3688 C3693 0.950 . S
H3689 C3694 0.949 . S
H3690 C3696 0.950 . S
H3691 C3697 0.950 . S
H3692 C3698 0.949 . S
C3693 H3688 0.950 . S
C3693 C3695 1.327 . S
C3693 C3699 1.429 . S
C3694 C3686 1.574 . S
C3694 H3689 0.949 . S
C3694 C3700 1.368 1_455 S
C3695 C3679 1.349 . S
C3695 H3687 0.950 . S
C3695 C3693 1.327 . S
C3696 C3684 1.349 . S
C3696 H3690 0.950 . S
C3696 C3697 1.327 . S
C3697 H3691 0.950 . S
C3697 C3696 1.327 . S
C3697 C3701 1.429 . S
C3698 C3681 1.574 . S
C3698 H3692 0.949 . S
C3698 C3702 1.368 1_655 S
C3699 C3680 1.437 . S
C3699 C3693 1.429 . S
C3699 C3700 1.523 . S
C3700 C3681 1.368 . S
C3700 C3694 1.368 1_655 S
C3700 C3699 1.523 . S
C3701 C3685 1.437 . S
C3701 C3697 1.429 . S
C3701 C3702 1.523 . S
C3702 C3686 1.368 . S
C3702 C3698 1.368 1_455 S
C3702 C3701 1.523 . S
H3703 C3678 0.950 1_455 S
H3704 C3680 0.936 1_455 S
H3705 C3681 0.949 . S
H3706 C3683 0.950 1_655 S
H3707 C3685 0.936 1_655 S
C3708 C3709 1.349 . S
C3708 C3710 1.327 . S
C3708 H3733 0.950 . S
C3709 C3708 1.349 . S
C3709 C3725 1.349 . S
C3710 C3708 1.327 . S
C3710 C3729 1.429 . S
C3710 H3734 0.950 . S
C3711 C3728 1.574 . S
C3711 C3730 1.368 . S
C3711 H3735 0.949 . S
H3712 C3716 0.949 . S
C3713 C3714 1.349 . S
C3713 C3715 1.327 . S
C3713 H3736 0.950 . S
C3714 C3713 1.349 . S
C3714 C3726 1.349 . S
C3715 C3713 1.327 . S
C3715 C3731 1.429 . S
C3715 H3737 0.950 . S
C3716 H3712 0.949 . S
C3716 C3724 1.574 . S
C3716 C3732 1.368 . S
H3717 C3725 0.950 . S
H3718 C3723 0.950 . S
H3719 C3724 0.949 . S
H3720 C3726 0.950 . S
H3721 C3727 0.950 . S
H3722 C3728 0.949 . S
C3723 H3718 0.950 . S
C3723 C3725 1.327 . S
C3723 C3729 1.429 . S
C3724 C3716 1.574 . S
C3724 H3719 0.949 . S
C3724 C3730 1.368 . S
C3725 C3709 1.349 . S
C3725 H3717 0.950 . S
C3725 C3723 1.327 . S
C3726 C3714 1.349 . S
C3726 H3720 0.950 . S
C3726 C3727 1.327 . S
C3727 H3721 0.950 . S
C3727 C3726 1.327 . S
C3727 C3731 1.429 . S
C3728 C3711 1.574 . S
C3728 H3722 0.949 . S
C3728 C3732 1.368 . S
C3729 C3710 1.429 . S
C3729 C3723 1.429 . S
C3729 C3730 1.523 . S
C3730 C3711 1.368 . S
C3730 C3724 1.368 . S
C3730 C3729 1.523 . S
C3731 C3715 1.429 . S
C3731 C3727 1.429 . S
C3731 C3732 1.523 . S
C3732 C3716 1.368 . S
C3732 C3728 1.368 . S
C3732 C3731 1.523 . S
H3733 C3708 0.950 . S
H3734 C3710 0.950 . S
H3735 C3711 0.949 . S
H3736 C3713 0.950 . S
H3737 C3715 0.950 . S
C3738 C3739 1.349 . S
C3738 C3740 1.327 . S
C3738 H3763 0.950 . S
C3739 C3738 1.349 . S
C3739 C3755 1.349 . S
C3740 C3738 1.327 . S
C3740 C3759 1.429 . S
C3740 H3764 0.950 . S
C3741 C3758 1.574 . S
C3741 C3760 1.368 . S
C3741 H3765 0.949 . S
H3742 C3746 0.949 . S
C3743 C3744 1.349 . S
C3743 C3745 1.327 . S
C3743 H3766 0.950 . S
C3744 C3743 1.349 . S
C3744 C3756 1.349 . S
C3745 C3743 1.327 . S
C3745 C3761 1.429 . S
C3745 H3767 0.950 . S
C3746 H3742 0.949 . S
C3746 C3754 1.574 . S
C3746 C3762 1.368 . S
H3747 C3755 0.950 . S
H3748 C3753 0.950 . S
H3749 C3754 0.949 . S
H3750 C3756 0.950 . S
H3751 C3757 0.950 . S
H3752 C3758 0.949 . S
C3753 H3748 0.950 . S
C3753 C3755 1.327 . S
C3753 C3759 1.429 . S
C3754 C3746 1.574 . S
C3754 H3749 0.949 . S
C3754 C3760 1.368 . S
C3755 C3739 1.349 . S
C3755 H3747 0.950 . S
C3755 C3753 1.327 . S
C3756 C3744 1.349 . S
C3756 H3750 0.950 . S
C3756 C3757 1.327 . S
C3757 H3751 0.950 . S
C3757 C3756 1.327 . S
C3757 C3761 1.429 . S
C3758 C3741 1.574 . S
C3758 H3752 0.949 . S
C3758 C3762 1.368 . S
C3759 C3740 1.429 . S
C3759 C3753 1.429 . S
C3759 C3760 1.523 . S
C3760 C3741 1.368 . S
C3760 C3754 1.368 . S
C3760 C3759 1.523 . S
C3761 C3745 1.429 . S
C3761 C3757 1.429 . S
C3761 C3762 1.523 . S
C3762 C3746 1.368 . S
C3762 C3758 1.368 . S
C3762 C3761 1.523 . S
H3763 C3738 0.950 . S
H3764 C3740 0.950 . S
H3765 C3741 0.949 . S
H3766 C3743 0.950 . S
H3767 C3745 0.950 . S
C3768 C3769 1.349 . S
C3768 C3770 1.327 . S
C3768 H3793 0.950 . S
C3769 C3768 1.349 . S
C3769 C3785 1.349 . S
C3770 C3768 1.327 . S
C3770 C3789 1.429 . S
C3770 H3794 0.950 . S
C3771 C3788 1.574 1_655 S
C3771 C3790 1.368 . S
C3771 H3795 0.949 . S
H3772 C3776 0.949 . S
C3773 C3774 1.349 . S
C3773 C3775 1.327 . S
C3773 H3796 0.950 . S
C3774 C3773 1.349 . S
C3774 C3786 1.349 . S
C3775 C3773 1.327 . S
C3775 C3791 1.429 . S
C3775 H3797 0.950 . S
C3776 H3772 0.949 . S
C3776 C3784 1.574 1_455 S
C3776 C3792 1.368 . S
H3777 C3785 0.950 . S
H3778 C3783 0.950 . S
H3779 C3784 0.949 . S
H3780 C3786 0.950 . S
H3781 C3787 0.950 . S
H3782 C3788 0.949 . S
C3783 H3778 0.950 . S
C3783 C3785 1.327 . S
C3783 C3789 1.429 . S
C3784 C3776 1.574 1_655 S
C3784 H3779 0.949 . S
C3784 C3790 1.368 . S
C3785 C3769 1.349 . S
C3785 H3777 0.950 . S
C3785 C3783 1.327 . S
C3786 C3774 1.349 . S
C3786 H3780 0.950 . S
C3786 C3787 1.327 . S
C3787 H3781 0.950 . S
C3787 C3786 1.327 . S
C3787 C3791 1.429 . S
C3788 C3771 1.574 1_455 S
C3788 H3782 0.949 . S
C3788 C3792 1.368 . S
C3789 C3770 1.429 . S
C3789 C3783 1.429 . S
C3789 C3790 1.523 . S
C3790 C3771 1.368 . S
C3790 C3784 1.368 . S
C3790 C3789 1.523 . S
C3791 C3775 1.429 . S
C3791 C3787 1.429 . S
C3791 C3792 1.523 . S
C3792 C3776 1.368 . S
C3792 C3788 1.368 . S
C3792 C3791 1.523 . S
H3793 C3768 0.950 . S
H3794 C3770 0.950 . S
H3795 C3771 0.949 . S
H3796 C3773 0.950 . S
H3797 C3775 0.950 . S
C3798 C3799 1.349 . S
C3798 C3800 1.327 . S
C3798 H3823 0.950 . S
C3799 C3798 1.349 . S
C3799 C3815 1.349 . S
C3800 C3798 1.327 . S
C3800 C3819 1.429 . S
C3800 H3824 0.950 . S
C3801 C3818 1.574 . S
C3801 C3820 1.368 . S
C3801 H3825 0.949 . S
H3802 C3806 0.949 . S
C3803 C3804 1.349 . S
C3803 C3805 1.327 . S
C3803 H3826 0.950 . S
C3804 C3803 1.349 . S
C3804 C3816 1.349 . S
C3805 C3803 1.327 . S
C3805 C3821 1.429 . S
C3805 H3827 0.950 . S
C3806 H3802 0.949 . S
C3806 C3814 1.574 . S
C3806 C3822 1.368 . S
H3807 C3815 0.950 . S
H3808 C3813 0.950 . S
H3809 C3814 0.949 . S
H3810 C3816 0.950 . S
H3811 C3817 0.950 . S
H3812 C3818 0.949 . S
C3813 H3808 0.950 . S
C3813 C3815 1.327 . S
C3813 C3819 1.429 . S
C3814 C3806 1.574 . S
C3814 H3809 0.949 . S
C3814 C3820 1.368 . S
C3815 C3799 1.349 . S
C3815 H3807 0.950 . S
C3815 C3813 1.327 . S
C3816 C3804 1.349 . S
C3816 H3810 0.950 . S
C3816 C3817 1.327 . S
C3817 H3811 0.950 . S
C3817 C3816 1.327 . S
C3817 C3821 1.429 . S
C3818 C3801 1.574 . S
C3818 H3812 0.949 . S
C3818 C3822 1.368 . S
C3819 C3800 1.429 . S
C3819 C3813 1.429 . S
C3819 C3820 1.523 . S
C3820 C3801 1.368 . S
C3820 C3814 1.368 . S
C3820 C3819 1.523 . S
C3821 C3805 1.429 . S
C3821 C3817 1.429 . S
C3821 C3822 1.523 . S
C3822 C3806 1.368 . S
C3822 C3818 1.368 . S
C3822 C3821 1.523 . S
H3823 C3798 0.950 . S
H3824 C3800 0.950 . S
H3825 C3801 0.949 . S
H3826 C3803 0.950 . S
H3827 C3805 0.950 . S
C3828 C3829 1.349 . S
C3828 C3830 1.327 . S
C3828 H3853 0.950 . S
C3829 C3828 1.349 . S
C3829 C3845 1.349 . S
C3830 C3828 1.327 . S
C3830 C3849 1.429 . S
C3830 H3854 0.950 . S
C3831 C3848 1.574 . S
C3831 C3850 1.368 . S
C3831 H3855 0.949 . S
H3832 C3836 0.949 . S
C3833 C3834 1.349 . S
C3833 C3835 1.327 . S
C3833 H3856 0.950 . S
C3834 C3833 1.349 . S
C3834 C3846 1.349 . S
C3835 C3833 1.327 . S
C3835 C3851 1.429 . S
C3835 H3857 0.950 . S
C3836 H3832 0.949 . S
C3836 C3844 1.574 . S
C3836 C3852 1.368 . S
H3837 C3845 0.950 . S
H3838 C3843 0.950 . S
H3839 C3844 0.949 . S
H3840 C3846 0.950 . S
H3841 C3847 0.950 . S
H3842 C3848 0.949 . S
C3843 H3838 0.950 . S
C3843 C3845 1.327 . S
C3843 C3849 1.429 . S
C3844 C3836 1.574 . S
C3844 H3839 0.949 . S
C3844 C3850 1.368 . S
C3845 C3829 1.349 . S
C3845 H3837 0.950 . S
C3845 C3843 1.327 . S
C3846 C3834 1.349 . S
C3846 H3840 0.950 . S
C3846 C3847 1.327 . S
C3847 H3841 0.950 . S
C3847 C3846 1.327 . S
C3847 C3851 1.429 . S
C3848 C3831 1.574 . S
C3848 H3842 0.949 . S
C3848 C3852 1.368 . S
C3849 C3830 1.429 . S
C3849 C3843 1.429 . S
C3849 C3850 1.523 . S
C3850 C3831 1.368 . S
C3850 C3844 1.368 . S
C3850 C3849 1.523 . S
C3851 C3835 1.429 . S
C3851 C3847 1.429 . S
C3851 C3852 1.523 . S
C3852 C3836 1.368 . S
C3852 C3848 1.368 . S
C3852 C3851 1.523 . S
H3853 C3828 0.950 . S
H3854 C3830 0.950 . S
H3855 C3831 0.949 . S
H3856 C3833 0.950 . S
H3857 C3835 0.950 . S
C3858 C3859 1.349 . S
C3858 C3860 1.327 . S
C3858 H3883 0.950 . S
C3859 C3858 1.349 . S
C3859 C3875 1.349 . S
C3860 C3858 1.327 . S
C3860 C3879 1.429 . S
C3860 H3884 0.950 . S
C3861 C3878 1.574 . S
C3861 C3880 1.368 1_655 S
C3861 H3885 0.949 . S
H3862 C3866 0.949 . S
C3863 C3864 1.349 . S
C3863 C3865 1.327 . S
C3863 H3886 0.950 . S
C3864 C3863 1.349 . S
C3864 C3876 1.349 . S
C3865 C3863 1.327 . S
C3865 C3881 1.429 . S
C3865 H3887 0.950 . S
C3866 H3862 0.949 . S
C3866 C3874 1.574 . S
C3866 C3882 1.368 1_455 S
H3867 C3875 0.950 1_655 S
H3868 C3873 0.936 1_655 S
H3869 C3874 0.949 . S
H3870 C3876 0.950 1_455 S
H3871 C3877 0.936 1_455 S
H3872 C3878 0.949 . S
C3873 H3868 0.936 1_455 S
C3873 C3875 1.332 . S
C3873 C3879 1.437 . S
C3874 C3866 1.574 . S
C3874 H3869 0.949 . S
C3874 C3880 1.368 . S
C3875 C3859 1.349 . S
C3875 H3867 0.950 1_455 S
C3875 C3873 1.332 . S
C3876 C3864 1.349 . S
C3876 H3870 0.950 1_655 S
C3876 C3877 1.332 . S
C3877 H3871 0.936 1_655 S
C3877 C3876 1.332 . S
C3877 C3881 1.437 . S
C3878 C3861 1.574 . S
C3878 H3872 0.949 . S
C3878 C3882 1.368 . S
C3879 C3860 1.429 . S
C3879 C3873 1.437 . S
C3879 C3880 1.523 . S
C3880 C3861 1.368 1_455 S
C3880 C3874 1.368 . S
C3880 C3879 1.523 . S
C3881 C3865 1.429 . S
C3881 C3877 1.437 . S
C3881 C3882 1.523 . S
C3882 C3866 1.368 1_655 S
C3882 C3878 1.368 . S
C3882 C3881 1.523 . S
H3883 C3858 0.950 . S
H3884 C3860 0.950 . S
H3885 C3861 0.949 . S
H3886 C3863 0.950 . S
H3887 C3865 0.950 . S
C3888 C3889 1.349 . S
C3888 C3890 1.327 . S
C3888 H3913 0.950 . S
C3889 C3888 1.349 . S
C3889 C3905 1.349 . S
C3890 C3888 1.327 . S
C3890 C3909 1.429 . S
C3890 H3914 0.950 . S
C3891 C3908 1.574 1_455 S
C3891 C3910 1.368 . S
C3891 H3915 0.949 . S
H3892 C3896 0.949 . S
C3893 C3894 1.349 . S
C3893 C3895 1.327 . S
C3893 H3916 0.950 . S
C3894 C3893 1.349 . S
C3894 C3906 1.349 . S
C3895 C3893 1.327 . S
C3895 C3911 1.429 . S
C3895 H3917 0.950 . S
C3896 H3892 0.949 . S
C3896 C3904 1.574 1_655 S
C3896 C3912 1.368 . S
H3897 C3905 0.950 . S
H3898 C3903 0.950 . S
H3899 C3904 0.949 . S
H3900 C3906 0.950 . S
H3901 C3907 0.950 . S
H3902 C3908 0.949 . S
C3903 H3898 0.950 . S
C3903 C3905 1.327 . S
C3903 C3909 1.429 . S
C3904 C3896 1.574 1_455 S
C3904 H3899 0.949 . S
C3904 C3910 1.368 . S
C3905 C3889 1.349 . S
C3905 H3897 0.950 . S
C3905 C3903 1.327 . S
C3906 C3894 1.349 . S
C3906 H3900 0.950 . S
C3906 C3907 1.327 . S
C3907 H3901 0.950 . S
C3907 C3906 1.327 . S
C3907 C3911 1.429 . S
C3908 C3891 1.574 1_655 S
C3908 H3902 0.949 . S
C3908 C3912 1.368 . S
C3909 C3890 1.429 . S
C3909 C3903 1.429 . S
C3909 C3910 1.523 . S
C3910 C3891 1.368 . S
C3910 C3904 1.368 . S
C3910 C3909 1.523 . S
C3911 C3895 1.429 . S
C3911 C3907 1.429 . S
C3911 C3912 1.523 . S
C3912 C3896 1.368 . S
C3912 C3908 1.368 . S
C3912 C3911 1.523 . S
H3913 C3888 0.950 . S
H3914 C3890 0.950 . S
H3915 C3891 0.949 . S
H3916 C3893 0.950 . S
H3917 C3895 0.950 . S
C3918 C3919 1.349 . S
C3918 C3920 1.332 . S
C3918 H3943 0.950 1_655 S
C3919 C3918 1.349 . S
C3919 C3935 1.349 . S
C3920 C3918 1.332 . S
C3920 C3939 1.437 . S
C3920 H3944 0.936 1_655 S
C3921 C3938 1.574 . S
C3921 C3940 1.368 . S
C3921 H3945 0.949 . S
H3922 C3926 0.949 . S
C3923 C3924 1.349 . S
C3923 C3925 1.332 . S
C3923 H3946 0.950 1_455 S
C3924 C3923 1.349 . S
C3924 C3936 1.349 . S
C3925 C3923 1.332 . S
C3925 C3941 1.437 . S
C3925 H3947 0.936 1_455 S
C3926 H3922 0.949 . S
C3926 C3934 1.574 . S
C3926 C3942 1.368 . S
H3927 C3935 0.950 . S
H3928 C3933 0.950 . S
H3929 C3934 0.949 . S
H3930 C3936 0.950 . S
H3931 C3937 0.950 . S
H3932 C3938 0.949 . S
C3933 H3928 0.950 . S
C3933 C3935 1.327 . S
C3933 C3939 1.429 . S
C3934 C3926 1.574 . S
C3934 H3929 0.949 . S
C3934 C3940 1.368 1_455 S
C3935 C3919 1.349 . S
C3935 H3927 0.950 . S
C3935 C3933 1.327 . S
C3936 C3924 1.349 . S
C3936 H3930 0.950 . S
C3936 C3937 1.327 . S
C3937 H3931 0.950 . S
C3937 C3936 1.327 . S
C3937 C3941 1.429 . S
C3938 C3921 1.574 . S
C3938 H3932 0.949 . S
C3938 C3942 1.368 1_655 S
C3939 C3920 1.437 . S
C3939 C3933 1.429 . S
C3939 C3940 1.523 . S
C3940 C3921 1.368 . S
C3940 C3934 1.368 1_655 S
C3940 C3939 1.523 . S
C3941 C3925 1.437 . S
C3941 C3937 1.429 . S
C3941 C3942 1.523 . S
C3942 C3926 1.368 . S
C3942 C3938 1.368 1_455 S
C3942 C3941 1.523 . S
H3943 C3918 0.950 1_455 S
H3944 C3920 0.936 1_455 S
H3945 C3921 0.949 . S
H3946 C3923 0.950 1_655 S
H3947 C3925 0.936 1_655 S
C3948 C3949 1.349 . S
C3948 C3950 1.327 . S
C3948 H3973 0.950 . S
C3949 C3948 1.349 . S
C3949 C3965 1.349 . S
C3950 C3948 1.327 . S
C3950 C3969 1.429 . S
C3950 H3974 0.950 . S
C3951 C3968 1.574 . S
C3951 C3970 1.368 . S
C3951 H3975 0.949 . S
H3952 C3956 0.949 . S
C3953 C3954 1.349 . S
C3953 C3955 1.327 . S
C3953 H3976 0.950 . S
C3954 C3953 1.349 . S
C3954 C3966 1.349 . S
C3955 C3953 1.327 . S
C3955 C3971 1.429 . S
C3955 H3977 0.950 . S
C3956 H3952 0.949 . S
C3956 C3964 1.574 . S
C3956 C3972 1.368 . S
H3957 C3965 0.950 . S
H3958 C3963 0.950 . S
H3959 C3964 0.949 . S
H3960 C3966 0.950 . S
H3961 C3967 0.950 . S
H3962 C3968 0.949 . S
C3963 H3958 0.950 . S
C3963 C3965 1.327 . S
C3963 C3969 1.429 . S
C3964 C3956 1.574 . S
C3964 H3959 0.949 . S
C3964 C3970 1.368 . S
C3965 C3949 1.349 . S
C3965 H3957 0.950 . S
C3965 C3963 1.327 . S
C3966 C3954 1.349 . S
C3966 H3960 0.950 . S
C3966 C3967 1.327 . S
C3967 H3961 0.950 . S
C3967 C3966 1.327 . S
C3967 C3971 1.429 . S
C3968 C3951 1.574 . S
C3968 H3962 0.949 . S
C3968 C3972 1.368 . S
C3969 C3950 1.429 . S
C3969 C3963 1.429 . S
C3969 C3970 1.523 . S
C3970 C3951 1.368 . S
C3970 C3964 1.368 . S
C3970 C3969 1.523 . S
C3971 C3955 1.429 . S
C3971 C3967 1.429 . S
C3971 C3972 1.523 . S
C3972 C3956 1.368 . S
C3972 C3968 1.368 . S
C3972 C3971 1.523 . S
H3973 C3948 0.950 . S
H3974 C3950 0.950 . S
H3975 C3951 0.949 . S
H3976 C3953 0.950 . S
H3977 C3955 0.950 . S
C3978 C3979 1.349 . S
C3978 C3980 1.327 . S
C3978 H4003 0.950 . S
C3979 C3978 1.349 . S
C3979 C3995 1.349 . S
C3980 C3978 1.327 . S
C3980 C3999 1.429 . S
C3980 H4004 0.950 . S
C3981 C3998 1.574 . S
C3981 C4000 1.368 . S
C3981 H4005 0.949 . S
H3982 C3986 0.949 . S
C3983 C3984 1.349 . S
C3983 C3985 1.327 . S
C3983 H4006 0.950 . S
C3984 C3983 1.349 . S
C3984 C3996 1.349 . S
C3985 C3983 1.327 . S
C3985 C4001 1.429 . S
C3985 H4007 0.950 . S
C3986 H3982 0.949 . S
C3986 C3994 1.574 . S
C3986 C4002 1.368 . S
H3987 C3995 0.950 . S
H3988 C3993 0.950 . S
H3989 C3994 0.949 . S
H3990 C3996 0.950 . S
H3991 C3997 0.950 . S
H3992 C3998 0.949 . S
C3993 H3988 0.950 . S
C3993 C3995 1.327 . S
C3993 C3999 1.429 . S
C3994 C3986 1.574 . S
C3994 H3989 0.949 . S
C3994 C4000 1.368 . S
C3995 C3979 1.349 . S
C3995 H3987 0.950 . S
C3995 C3993 1.327 . S
C3996 C3984 1.349 . S
C3996 H3990 0.950 . S
C3996 C3997 1.327 . S
C3997 H3991 0.950 . S
C3997 C3996 1.327 . S
C3997 C4001 1.429 . S
C3998 C3981 1.574 . S
C3998 H3992 0.949 . S
C3998 C4002 1.368 . S
C3999 C3980 1.429 . S
C3999 C3993 1.429 . S
C3999 C4000 1.523 . S
C4000 C3981 1.368 . S
C4000 C3994 1.368 . S
C4000 C3999 1.523 . S
C4001 C3985 1.429 . S
C4001 C3997 1.429 . S
C4001 C4002 1.523 . S
C4002 C3986 1.368 . S
C4002 C3998 1.368 . S
C4002 C4001 1.523 . S
H4003 C3978 0.950 . S
H4004 C3980 0.950 . S
H4005 C3981 0.949 . S
H4006 C3983 0.950 . S
H4007 C3985 0.950 . S
C4008 C4009 1.349 . S
C4008 C4010 1.327 . S
C4008 H4033 0.950 . S
C4009 C4008 1.349 . S
C4009 C4025 1.349 . S
C4010 C4008 1.327 . S
C4010 C4029 1.429 . S
C4010 H4034 0.950 . S
C4011 C4028 1.574 1_455 S
C4011 C4030 1.368 . S
C4011 H4035 0.949 . S
H4012 C4016 0.949 . S
C4013 C4014 1.349 . S
C4013 C4015 1.327 . S
C4013 H4036 0.950 . S
C4014 C4013 1.349 . S
C4014 C4026 1.349 . S
C4015 C4013 1.327 . S
C4015 C4031 1.429 . S
C4015 H4037 0.950 . S
C4016 H4012 0.949 . S
C4016 C4024 1.574 1_655 S
C4016 C4032 1.368 . S
H4017 C4025 0.950 . S
H4018 C4023 0.950 . S
H4019 C4024 0.949 . S
H4020 C4026 0.950 . S
H4021 C4027 0.950 . S
H4022 C4028 0.949 . S
C4023 H4018 0.950 . S
C4023 C4025 1.327 . S
C4023 C4029 1.429 . S
C4024 C4016 1.574 1_455 S
C4024 H4019 0.949 . S
C4024 C4030 1.368 . S
C4025 C4009 1.349 . S
C4025 H4017 0.950 . S
C4025 C4023 1.327 . S
C4026 C4014 1.349 . S
C4026 H4020 0.950 . S
C4026 C4027 1.327 . S
C4027 H4021 0.950 . S
C4027 C4026 1.327 . S
C4027 C4031 1.429 . S
C4028 C4011 1.574 1_655 S
C4028 H4022 0.949 . S
C4028 C4032 1.368 . S
C4029 C4010 1.429 . S
C4029 C4023 1.429 . S
C4029 C4030 1.523 . S
C4030 C4011 1.368 . S
C4030 C4024 1.368 . S
C4030 C4029 1.523 . S
C4031 C4015 1.429 . S
C4031 C4027 1.429 . S
C4031 C4032 1.523 . S
C4032 C4016 1.368 . S
C4032 C4028 1.368 . S
C4032 C4031 1.523 . S
H4033 C4008 0.950 . S
H4034 C4010 0.950 . S
H4035 C4011 0.949 . S
H4036 C4013 0.950 . S
H4037 C4015 0.950 . S
C4038 C4039 1.349 . S
C4038 C4040 1.327 . S
C4038 H4063 0.950 . S
C4039 C4038 1.349 . S
C4039 C4055 1.349 . S
C4040 C4038 1.327 . S
C4040 C4059 1.429 . S
C4040 H4064 0.950 . S
C4041 C4058 1.574 . S
C4041 C4060 1.368 . S
C4041 H4065 0.949 . S
H4042 C4046 0.949 . S
C4043 C4044 1.349 . S
C4043 C4045 1.327 . S
C4043 H4066 0.950 . S
C4044 C4043 1.349 . S
C4044 C4056 1.349 . S
C4045 C4043 1.327 . S
C4045 C4061 1.429 . S
C4045 H4067 0.950 . S
C4046 H4042 0.949 . S
C4046 C4054 1.574 . S
C4046 C4062 1.368 . S
H4047 C4055 0.950 . S
H4048 C4053 0.950 . S
H4049 C4054 0.949 . S
H4050 C4056 0.950 . S
H4051 C4057 0.950 . S
H4052 C4058 0.949 . S
C4053 H4048 0.950 . S
C4053 C4055 1.327 . S
C4053 C4059 1.429 . S
C4054 C4046 1.574 . S
C4054 H4049 0.949 . S
C4054 C4060 1.368 . S
C4055 C4039 1.349 . S
C4055 H4047 0.950 . S
C4055 C4053 1.327 . S
C4056 C4044 1.349 . S
C4056 H4050 0.950 . S
C4056 C4057 1.327 . S
C4057 H4051 0.950 . S
C4057 C4056 1.327 . S
C4057 C4061 1.429 . S
C4058 C4041 1.574 . S
C4058 H4052 0.949 . S
C4058 C4062 1.368 . S
C4059 C4040 1.429 . S
C4059 C4053 1.429 . S
C4059 C4060 1.523 . S
C4060 C4041 1.368 . S
C4060 C4054 1.368 . S
C4060 C4059 1.523 . S
C4061 C4045 1.429 . S
C4061 C4057 1.429 . S
C4061 C4062 1.523 . S
C4062 C4046 1.368 . S
C4062 C4058 1.368 . S
C4062 C4061 1.523 . S
H4063 C4038 0.950 . S
H4064 C4040 0.950 . S
H4065 C4041 0.949 . S
H4066 C4043 0.950 . S
H4067 C4045 0.950 . S
C4068 C4069 1.349 . S
C4068 C4070 1.327 . S
C4068 H4093 0.950 . S
C4069 C4068 1.349 . S
C4069 C4085 1.349 . S
C4070 C4068 1.327 . S
C4070 C4089 1.429 . S
C4070 H4094 0.950 . S
C4071 C4088 1.574 . S
C4071 C4090 1.368 . S
C4071 H4095 0.949 . S
H4072 C4076 0.949 . S
C4073 C4074 1.349 . S
C4073 C4075 1.327 . S
C4073 H4096 0.950 . S
C4074 C4073 1.349 . S
C4074 C4086 1.349 . S
C4075 C4073 1.327 . S
C4075 C4091 1.429 . S
C4075 H4097 0.950 . S
C4076 H4072 0.949 . S
C4076 C4084 1.574 . S
C4076 C4092 1.368 . S
H4077 C4085 0.950 . S
H4078 C4083 0.950 . S
H4079 C4084 0.949 . S
H4080 C4086 0.950 . S
H4081 C4087 0.950 . S
H4082 C4088 0.949 . S
C4083 H4078 0.950 . S
C4083 C4085 1.327 . S
C4083 C4089 1.429 . S
C4084 C4076 1.574 . S
C4084 H4079 0.949 . S
C4084 C4090 1.368 . S
C4085 C4069 1.349 . S
C4085 H4077 0.950 . S
C4085 C4083 1.327 . S
C4086 C4074 1.349 . S
C4086 H4080 0.950 . S
C4086 C4087 1.327 . S
C4087 H4081 0.950 . S
C4087 C4086 1.327 . S
C4087 C4091 1.429 . S
C4088 C4071 1.574 . S
C4088 H4082 0.949 . S
C4088 C4092 1.368 . S
C4089 C4070 1.429 . S
C4089 C4083 1.429 . S
C4089 C4090 1.523 . S
C4090 C4071 1.368 . S
C4090 C4084 1.368 . S
C4090 C4089 1.523 . S
C4091 C4075 1.429 . S
C4091 C4087 1.429 . S
C4091 C4092 1.523 . S
C4092 C4076 1.368 . S
C4092 C4088 1.368 . S
C4092 C4091 1.523 . S
H4093 C4068 0.950 . S
H4094 C4070 0.950 . S
H4095 C4071 0.949 . S
H4096 C4073 0.950 . S
H4097 C4075 0.950 . S
C4098 C4099 1.349 . S
C4098 C4100 1.332 . S
C4098 H4123 0.950 1_655 S
C4099 C4098 1.349 . S
C4099 C4115 1.349 . S
C4100 C4098 1.332 . S
C4100 C4119 1.437 . S
C4100 H4124 0.936 1_655 S
C4101 C4118 1.574 . S
C4101 C4120 1.368 . S
C4101 H4125 0.949 . S
H4102 C4106 0.949 . S
C4103 C4104 1.349 . S
C4103 C4105 1.332 . S
C4103 H4126 0.950 1_455 S
C4104 C4103 1.349 . S
C4104 C4116 1.349 . S
C4105 C4103 1.332 . S
C4105 C4121 1.437 . S
C4105 H4127 0.936 1_455 S
C4106 H4102 0.949 . S
C4106 C4114 1.574 . S
C4106 C4122 1.368 . S
H4107 C4115 0.950 . S
H4108 C4113 0.950 . S
H4109 C4114 0.949 . S
H4110 C4116 0.950 . S
H4111 C4117 0.950 . S
H4112 C4118 0.949 . S
C4113 H4108 0.950 . S
C4113 C4115 1.327 . S
C4113 C4119 1.429 . S
C4114 C4106 1.574 . S
C4114 H4109 0.949 . S
C4114 C4120 1.368 1_455 S
C4115 C4099 1.349 . S
C4115 H4107 0.950 . S
C4115 C4113 1.327 . S
C4116 C4104 1.349 . S
C4116 H4110 0.950 . S
C4116 C4117 1.327 . S
C4117 H4111 0.950 . S
C4117 C4116 1.327 . S
C4117 C4121 1.429 . S
C4118 C4101 1.574 . S
C4118 H4112 0.949 . S
C4118 C4122 1.368 1_655 S
C4119 C4100 1.437 . S
C4119 C4113 1.429 . S
C4119 C4120 1.523 . S
C4120 C4101 1.368 . S
C4120 C4114 1.368 1_655 S
C4120 C4119 1.523 . S
C4121 C4105 1.437 . S
C4121 C4117 1.429 . S
C4121 C4122 1.523 . S
C4122 C4106 1.368 . S
C4122 C4118 1.368 1_455 S
C4122 C4121 1.523 . S
H4123 C4098 0.950 1_455 S
H4124 C4100 0.936 1_455 S
H4125 C4101 0.949 . S
H4126 C4103 0.950 1_655 S
H4127 C4105 0.936 1_655 S
C4128 C4129 1.349 . S
C4128 C4130 1.327 . S
C4128 H4153 0.950 . S
C4129 C4128 1.349 . S
C4129 C4145 1.349 . S
C4130 C4128 1.327 . S
C4130 C4149 1.429 . S
C4130 H4154 0.950 . S
C4131 C4148 1.574 . S
C4131 C4150 1.368 . S
C4131 H4155 0.949 . S
H4132 C4136 0.949 . S
C4133 C4134 1.349 . S
C4133 C4135 1.327 . S
C4133 H4156 0.950 . S
C4134 C4133 1.349 . S
C4134 C4146 1.349 . S
C4135 C4133 1.327 . S
C4135 C4151 1.429 . S
C4135 H4157 0.950 . S
C4136 H4132 0.949 . S
C4136 C4144 1.574 . S
C4136 C4152 1.368 . S
H4137 C4145 0.950 . S
H4138 C4143 0.950 . S
H4139 C4144 0.949 . S
H4140 C4146 0.950 . S
H4141 C4147 0.950 . S
H4142 C4148 0.949 . S
C4143 H4138 0.950 . S
C4143 C4145 1.327 . S
C4143 C4149 1.429 . S
C4144 C4136 1.574 . S
C4144 H4139 0.949 . S
C4144 C4150 1.368 . S
C4145 C4129 1.349 . S
C4145 H4137 0.950 . S
C4145 C4143 1.327 . S
C4146 C4134 1.349 . S
C4146 H4140 0.950 . S
C4146 C4147 1.327 . S
C4147 H4141 0.950 . S
C4147 C4146 1.327 . S
C4147 C4151 1.429 . S
C4148 C4131 1.574 . S
C4148 H4142 0.949 . S
C4148 C4152 1.368 . S
C4149 C4130 1.429 . S
C4149 C4143 1.429 . S
C4149 C4150 1.523 . S
C4150 C4131 1.368 . S
C4150 C4144 1.368 . S
C4150 C4149 1.523 . S
C4151 C4135 1.429 . S
C4151 C4147 1.429 . S
C4151 C4152 1.523 . S
C4152 C4136 1.368 . S
C4152 C4148 1.368 . S
C4152 C4151 1.523 . S
H4153 C4128 0.950 . S
H4154 C4130 0.950 . S
H4155 C4131 0.949 . S
H4156 C4133 0.950 . S
H4157 C4135 0.950 . S
C4158 C4159 1.349 . S
C4158 C4160 1.327 . S
C4158 H4183 0.950 . S
C4159 C4158 1.349 . S
C4159 C4175 1.349 . S
C4160 C4158 1.327 . S
C4160 C4179 1.429 . S
C4160 H4184 0.950 . S
C4161 C4178 1.574 . S
C4161 C4180 1.368 1_465 S
C4161 H4185 0.949 . S
H4162 C4166 0.949 . S
C4163 C4164 1.349 . S
C4163 C4165 1.327 . S
C4163 H4186 0.950 . S
C4164 C4163 1.349 . S
C4164 C4176 1.349 . S
C4165 C4163 1.327 . S
C4165 C4181 1.429 . S
C4165 H4187 0.950 . S
C4166 H4162 0.949 . S
C4166 C4174 1.574 . S
C4166 C4182 1.368 1_645 S
H4167 C4175 0.950 . S
H4168 C4173 0.950 1_465 S
H4169 C4174 0.949 . S
H4170 C4176 0.950 . S
H4171 C4177 0.950 1_645 S
H4172 C4178 0.949 . S
C4173 H4168 0.950 1_645 S
C4173 C4175 1.327 . S
C4173 C4179 1.429 . S
C4174 C4166 1.574 . S
C4174 H4169 0.949 . S
C4174 C4180 1.368 . S
C4175 C4159 1.349 . S
C4175 H4167 0.950 . S
C4175 C4173 1.327 . S
C4176 C4164 1.349 . S
C4176 H4170 0.950 . S
C4176 C4177 1.327 . S
C4177 H4171 0.950 1_465 S
C4177 C4176 1.327 . S
C4177 C4181 1.429 . S
C4178 C4161 1.574 . S
C4178 H4172 0.949 . S
C4178 C4182 1.368 . S
C4179 C4160 1.429 . S
C4179 C4173 1.429 . S
C4179 C4180 1.523 . S
C4180 C4161 1.368 1_645 S
C4180 C4174 1.368 . S
C4180 C4179 1.523 . S
C4181 C4165 1.429 . S
C4181 C4177 1.429 . S
C4181 C4182 1.523 . S
C4182 C4166 1.368 1_465 S
C4182 C4178 1.368 . S
C4182 C4181 1.523 . S
H4183 C4158 0.950 . S
H4184 C4160 0.950 . S
H4185 C4161 0.949 . S
H4186 C4163 0.950 . S
H4187 C4165 0.950 . S
C4188 C4189 1.349 . S
C4188 C4190 1.327 . S
C4188 H4213 0.950 . S
C4189 C4188 1.349 . S
C4189 C4205 1.349 . S
C4190 C4188 1.327 . S
C4190 C4209 1.429 . S
C4190 H4214 0.950 . S
C4191 C4208 1.574 . S
C4191 C4210 1.368 . S
C4191 H4215 0.949 . S
H4192 C4196 0.949 . S
C4193 C4194 1.349 . S
C4193 C4195 1.327 . S
C4193 H4216 0.950 . S
C4194 C4193 1.349 . S
C4194 C4206 1.349 . S
C4195 C4193 1.327 . S
C4195 C4211 1.429 . S
C4195 H4217 0.950 . S
C4196 H4192 0.949 . S
C4196 C4204 1.574 . S
C4196 C4212 1.368 . S
H4197 C4205 0.950 . S
H4198 C4203 0.950 . S
H4199 C4204 0.949 . S
H4200 C4206 0.950 . S
H4201 C4207 0.950 . S
H4202 C4208 0.949 . S
C4203 H4198 0.950 . S
C4203 C4205 1.327 . S
C4203 C4209 1.429 . S
C4204 C4196 1.574 . S
C4204 H4199 0.949 . S
C4204 C4210 1.368 . S
C4205 C4189 1.349 . S
C4205 H4197 0.950 . S
C4205 C4203 1.327 . S
C4206 C4194 1.349 . S
C4206 H4200 0.950 . S
C4206 C4207 1.327 . S
C4207 H4201 0.950 . S
C4207 C4206 1.327 . S
C4207 C4211 1.429 . S
C4208 C4191 1.574 . S
C4208 H4202 0.949 . S
C4208 C4212 1.368 . S
C4209 C4190 1.429 . S
C4209 C4203 1.429 . S
C4209 C4210 1.523 . S
C4210 C4191 1.368 . S
C4210 C4204 1.368 . S
C4210 C4209 1.523 . S
C4211 C4195 1.429 . S
C4211 C4207 1.429 . S
C4211 C4212 1.523 . S
C4212 C4196 1.368 . S
C4212 C4208 1.368 . S
C4212 C4211 1.523 . S
H4213 C4188 0.950 . S
H4214 C4190 0.950 . S
H4215 C4191 0.949 . S
H4216 C4193 0.950 . S
H4217 C4195 0.950 . S
C4218 C4219 1.349 . S
C4218 C4220 1.327 . S
C4218 H4243 0.950 . S
C4219 C4218 1.349 . S
C4219 C4235 1.349 . S
C4220 C4218 1.327 . S
C4220 C4239 1.429 . S
C4220 H4244 0.950 . S
C4221 C4238 1.574 1_554 S
C4221 C4240 1.368 1_565 S
C4221 H4245 0.949 . S
H4222 C4226 0.949 . S
C4223 C4224 1.349 . S
C4223 C4225 1.327 . S
C4223 H4246 0.950 . S
C4224 C4223 1.349 . S
C4224 C4236 1.349 . S
C4225 C4223 1.327 . S
C4225 C4241 1.429 . S
C4225 H4247 0.950 . S
C4226 H4222 0.949 . S
C4226 C4234 1.574 1_556 S
C4226 C4242 1.368 1_545 S
H4227 C4235 0.950 1_565 S
H4228 C4233 0.950 . S
H4229 C4234 0.949 . S
H4230 C4236 0.950 1_545 S
H4231 C4237 0.950 . S
H4232 C4238 0.949 . S
C4233 H4228 0.950 . S
C4233 C4235 1.327 1_565 S
C4233 C4239 1.429 1_565 S
C4234 C4226 1.574 1_554 S
C4234 H4229 0.949 . S
C4234 C4240 1.368 . S
C4235 C4219 1.349 . S
C4235 H4227 0.950 1_545 S
C4235 C4233 1.327 1_545 S
C4236 C4224 1.349 . S
C4236 H4230 0.950 1_565 S
C4236 C4237 1.327 1_565 S
C4237 H4231 0.950 . S
C4237 C4236 1.327 1_545 S
C4237 C4241 1.429 1_545 S
C4238 C4221 1.574 1_556 S
C4238 H4232 0.949 . S
C4238 C4242 1.368 . S
C4239 C4220 1.429 . S
C4239 C4233 1.429 1_545 S
C4239 C4240 1.523 . S
C4240 C4221 1.368 1_545 S
C4240 C4234 1.368 . S
C4240 C4239 1.523 . S
C4241 C4225 1.429 . S
C4241 C4237 1.429 1_565 S
C4241 C4242 1.523 . S
C4242 C4226 1.368 1_565 S
C4242 C4238 1.368 . S
C4242 C4241 1.523 . S
H4243 C4218 0.950 . S
H4244 C4220 0.950 . S
H4245 C4221 0.949 . S
H4246 C4223 0.950 . S
H4247 C4225 0.950 . S
C4248 C4249 1.349 . S
C4248 C4250 1.327 . S
C4248 H4273 0.950 . S
C4249 C4248 1.349 . S
C4249 C4265 1.349 . S
C4250 C4248 1.327 . S
C4250 C4269 1.429 . S
C4250 H4274 0.950 . S
C4251 C4268 1.574 . S
C4251 C4270 1.368 . S
C4251 H4275 0.949 . S
H4252 C4256 0.949 . S
C4253 C4254 1.349 . S
C4253 C4255 1.327 . S
C4253 H4276 0.950 . S
C4254 C4253 1.349 . S
C4254 C4266 1.349 . S
C4255 C4253 1.327 . S
C4255 C4271 1.429 . S
C4255 H4277 0.950 . S
C4256 H4252 0.949 . S
C4256 C4264 1.574 . S
C4256 C4272 1.368 . S
H4257 C4265 0.950 . S
H4258 C4263 0.950 . S
H4259 C4264 0.949 . S
H4260 C4266 0.950 . S
H4261 C4267 0.950 . S
H4262 C4268 0.949 . S
C4263 H4258 0.950 . S
C4263 C4265 1.327 . S
C4263 C4269 1.429 . S
C4264 C4256 1.574 . S
C4264 H4259 0.949 . S
C4264 C4270 1.368 . S
C4265 C4249 1.349 . S
C4265 H4257 0.950 . S
C4265 C4263 1.327 . S
C4266 C4254 1.349 . S
C4266 H4260 0.950 . S
C4266 C4267 1.327 . S
C4267 H4261 0.950 . S
C4267 C4266 1.327 . S
C4267 C4271 1.429 . S
C4268 C4251 1.574 . S
C4268 H4262 0.949 . S
C4268 C4272 1.368 . S
C4269 C4250 1.429 . S
C4269 C4263 1.429 . S
C4269 C4270 1.523 . S
C4270 C4251 1.368 . S
C4270 C4264 1.368 . S
C4270 C4269 1.523 . S
C4271 C4255 1.429 . S
C4271 C4267 1.429 . S
C4271 C4272 1.523 . S
C4272 C4256 1.368 . S
C4272 C4268 1.368 . S
C4272 C4271 1.523 . S
H4273 C4248 0.950 . S
H4274 C4250 0.950 . S
H4275 C4251 0.949 . S
H4276 C4253 0.950 . S
H4277 C4255 0.950 . S
C4278 C4279 1.349 . S
C4278 C4280 1.327 . S
C4278 H4303 0.950 . S
C4279 C4278 1.349 . S
C4279 C4295 1.349 . S
C4280 C4278 1.327 . S
C4280 C4299 1.429 . S
C4280 H4304 0.950 . S
C4281 C4298 1.574 . S
C4281 C4300 1.368 1_565 S
C4281 H4305 0.949 . S
H4282 C4286 0.949 . S
C4283 C4284 1.349 . S
C4283 C4285 1.327 . S
C4283 H4306 0.950 . S
C4284 C4283 1.349 . S
C4284 C4296 1.349 . S
C4285 C4283 1.327 . S
C4285 C4301 1.429 . S
C4285 H4307 0.950 . S
C4286 H4282 0.949 . S
C4286 C4294 1.574 . S
C4286 C4302 1.368 1_545 S
H4287 C4295 0.950 . S
H4288 C4293 0.950 . S
H4289 C4294 0.949 . S
H4290 C4296 0.950 . S
H4291 C4297 0.950 . S
H4292 C4298 0.949 . S
C4293 H4288 0.950 . S
C4293 C4295 1.327 . S
C4293 C4299 1.429 . S
C4294 C4286 1.574 . S
C4294 H4289 0.949 . S
C4294 C4300 1.368 . S
C4295 C4279 1.349 . S
C4295 H4287 0.950 . S
C4295 C4293 1.327 . S
C4296 C4284 1.349 . S
C4296 H4290 0.950 . S
C4296 C4297 1.327 . S
C4297 H4291 0.950 . S
C4297 C4296 1.327 . S
C4297 C4301 1.429 . S
C4298 C4281 1.574 . S
C4298 H4292 0.949 . S
C4298 C4302 1.368 . S
C4299 C4280 1.429 . S
C4299 C4293 1.429 . S
C4299 C4300 1.523 . S
C4300 C4281 1.368 1_545 S
C4300 C4294 1.368 . S
C4300 C4299 1.523 . S
C4301 C4285 1.429 . S
C4301 C4297 1.429 . S
C4301 C4302 1.523 . S
C4302 C4286 1.368 1_565 S
C4302 C4298 1.368 . S
C4302 C4301 1.523 . S
H4303 C4278 0.950 . S
H4304 C4280 0.950 . S
H4305 C4281 0.949 . S
H4306 C4283 0.950 . S
H4307 C4285 0.950 . S
C4308 C4309 1.349 . S
C4308 C4310 1.327 . S
C4308 H4333 0.950 . S
C4309 C4308 1.349 . S
C4309 C4325 1.349 . S
C4310 C4308 1.327 . S
C4310 C4329 1.429 . S
C4310 H4334 0.950 . S
C4311 C4328 1.574 . S
C4311 C4330 1.368 . S
C4311 H4335 0.949 . S
H4312 C4316 0.949 . S
C4313 C4314 1.349 . S
C4313 C4315 1.327 . S
C4313 H4336 0.950 . S
C4314 C4313 1.349 . S
C4314 C4326 1.349 . S
C4315 C4313 1.327 . S
C4315 C4331 1.429 . S
C4315 H4337 0.950 . S
C4316 H4312 0.949 . S
C4316 C4324 1.574 . S
C4316 C4332 1.368 . S
H4317 C4325 0.950 . S
H4318 C4323 0.950 . S
H4319 C4324 0.949 . S
H4320 C4326 0.950 . S
H4321 C4327 0.950 . S
H4322 C4328 0.949 . S
C4323 H4318 0.950 . S
C4323 C4325 1.327 . S
C4323 C4329 1.429 . S
C4324 C4316 1.574 . S
C4324 H4319 0.949 . S
C4324 C4330 1.368 . S
C4325 C4309 1.349 . S
C4325 H4317 0.950 . S
C4325 C4323 1.327 . S
C4326 C4314 1.349 . S
C4326 H4320 0.950 . S
C4326 C4327 1.327 . S
C4327 H4321 0.950 . S
C4327 C4326 1.327 . S
C4327 C4331 1.429 . S
C4328 C4311 1.574 . S
C4328 H4322 0.949 . S
C4328 C4332 1.368 . S
C4329 C4310 1.429 . S
C4329 C4323 1.429 . S
C4329 C4330 1.523 . S
C4330 C4311 1.368 . S
C4330 C4324 1.368 . S
C4330 C4329 1.523 . S
C4331 C4315 1.429 . S
C4331 C4327 1.429 . S
C4331 C4332 1.523 . S
C4332 C4316 1.368 . S
C4332 C4328 1.368 . S
C4332 C4331 1.523 . S
H4333 C4308 0.950 . S
H4334 C4310 0.950 . S
H4335 C4311 0.949 . S
H4336 C4313 0.950 . S
H4337 C4315 0.950 . S
C4338 C4339 1.349 . S
C4338 C4340 1.327 1_545 S
C4338 H4363 0.950 1_545 S
C4339 C4338 1.349 . S
C4339 C4355 1.349 . S
C4340 C4338 1.327 1_565 S
C4340 C4359 1.429 1_565 S
C4340 H4364 0.950 . S
C4341 C4358 1.574 1_456 S
C4341 C4360 1.368 . S
C4341 H4365 0.949 . S
H4342 C4346 0.949 . S
C4343 C4344 1.349 . S
C4343 C4345 1.327 1_565 S
C4343 H4366 0.950 1_565 S
C4344 C4343 1.349 . S
C4344 C4356 1.349 . S
C4345 C4343 1.327 1_545 S
C4345 C4361 1.429 1_545 S
C4345 H4367 0.950 . S
C4346 H4342 0.949 . S
C4346 C4354 1.574 1_654 S
C4346 C4362 1.368 . S
H4347 C4355 0.950 . S
H4348 C4353 0.950 . S
H4349 C4354 0.949 . S
H4350 C4356 0.950 . S
H4351 C4357 0.950 . S
H4352 C4358 0.949 . S
C4353 H4348 0.950 . S
C4353 C4355 1.327 . S
C4353 C4359 1.429 . S
C4354 C4346 1.574 1_456 S
C4354 H4349 0.949 . S
C4354 C4360 1.368 1_565 S
C4355 C4339 1.349 . S
C4355 H4347 0.950 . S
C4355 C4353 1.327 . S
C4356 C4344 1.349 . S
C4356 H4350 0.950 . S
C4356 C4357 1.327 . S
C4357 H4351 0.950 . S
C4357 C4356 1.327 . S
C4357 C4361 1.429 . S
C4358 C4341 1.574 1_654 S
C4358 H4352 0.949 . S
C4358 C4362 1.368 1_545 S
C4359 C4340 1.429 1_545 S
C4359 C4353 1.429 . S
C4359 C4360 1.523 . S
C4360 C4341 1.368 . S
C4360 C4354 1.368 1_545 S
C4360 C4359 1.523 . S
C4361 C4345 1.429 1_565 S
C4361 C4357 1.429 . S
C4361 C4362 1.523 . S
C4362 C4346 1.368 . S
C4362 C4358 1.368 1_565 S
C4362 C4361 1.523 . S
H4363 C4338 0.950 1_565 S
H4364 C4340 0.950 . S
H4365 C4341 0.949 . S
H4366 C4343 0.950 1_545 S
H4367 C4345 0.950 . S
C4368 C4369 1.349 . S
C4368 C4370 1.327 . S
C4368 H4393 0.950 . S
C4369 C4368 1.349 . S
C4369 C4385 1.349 . S
C4370 C4368 1.327 . S
C4370 C4389 1.429 . S
C4370 H4394 0.950 . S
C4371 C4388 1.574 . S
C4371 C4390 1.368 . S
C4371 H4395 0.949 . S
H4372 C4376 0.949 . S
C4373 C4374 1.349 . S
C4373 C4375 1.327 . S
C4373 H4396 0.950 . S
C4374 C4373 1.349 . S
C4374 C4386 1.349 . S
C4375 C4373 1.327 . S
C4375 C4391 1.429 . S
C4375 H4397 0.950 . S
C4376 H4372 0.949 . S
C4376 C4384 1.574 . S
C4376 C4392 1.368 . S
H4377 C4385 0.950 . S
H4378 C4383 0.950 . S
H4379 C4384 0.949 . S
H4380 C4386 0.950 . S
H4381 C4387 0.950 . S
H4382 C4388 0.949 . S
C4383 H4378 0.950 . S
C4383 C4385 1.327 . S
C4383 C4389 1.429 . S
C4384 C4376 1.574 . S
C4384 H4379 0.949 . S
C4384 C4390 1.368 . S
C4385 C4369 1.349 . S
C4385 H4377 0.950 . S
C4385 C4383 1.327 . S
C4386 C4374 1.349 . S
C4386 H4380 0.950 . S
C4386 C4387 1.327 . S
C4387 H4381 0.950 . S
C4387 C4386 1.327 . S
C4387 C4391 1.429 . S
C4388 C4371 1.574 . S
C4388 H4382 0.949 . S
C4388 C4392 1.368 . S
C4389 C4370 1.429 . S
C4389 C4383 1.429 . S
C4389 C4390 1.523 . S
C4390 C4371 1.368 . S
C4390 C4384 1.368 . S
C4390 C4389 1.523 . S
C4391 C4375 1.429 . S
C4391 C4387 1.429 . S
C4391 C4392 1.523 . S
C4392 C4376 1.368 . S
C4392 C4388 1.368 . S
C4392 C4391 1.523 . S
H4393 C4368 0.950 . S
H4394 C4370 0.950 . S
H4395 C4371 0.949 . S
H4396 C4373 0.950 . S
H4397 C4375 0.950 . S
C4398 C4399 1.349 . S
C4398 C4400 1.327 . S
C4398 H4423 0.950 . S
C4399 C4398 1.349 . S
C4399 C4415 1.349 . S
C4400 C4398 1.327 . S
C4400 C4419 1.429 . S
C4400 H4424 0.950 . S
C4401 C4418 1.574 . S
C4401 C4420 1.368 . S
C4401 H4425 0.949 . S
H4402 C4406 0.949 . S
C4403 C4404 1.349 . S
C4403 C4405 1.327 . S
C4403 H4426 0.950 . S
C4404 C4403 1.349 . S
C4404 C4416 1.349 . S
C4405 C4403 1.327 . S
C4405 C4421 1.429 . S
C4405 H4427 0.950 . S
C4406 H4402 0.949 . S
C4406 C4414 1.574 . S
C4406 C4422 1.368 . S
H4407 C4415 0.950 . S
H4408 C4413 0.950 . S
H4409 C4414 0.949 . S
H4410 C4416 0.950 . S
H4411 C4417 0.950 . S
H4412 C4418 0.949 . S
C4413 H4408 0.950 . S
C4413 C4415 1.327 . S
C4413 C4419 1.429 . S
C4414 C4406 1.574 . S
C4414 H4409 0.949 . S
C4414 C4420 1.368 . S
C4415 C4399 1.349 . S
C4415 H4407 0.950 . S
C4415 C4413 1.327 . S
C4416 C4404 1.349 . S
C4416 H4410 0.950 . S
C4416 C4417 1.327 . S
C4417 H4411 0.950 . S
C4417 C4416 1.327 . S
C4417 C4421 1.429 . S
C4418 C4401 1.574 . S
C4418 H4412 0.949 . S
C4418 C4422 1.368 . S
C4419 C4400 1.429 . S
C4419 C4413 1.429 . S
C4419 C4420 1.523 . S
C4420 C4401 1.368 . S
C4420 C4414 1.368 . S
C4420 C4419 1.523 . S
C4421 C4405 1.429 . S
C4421 C4417 1.429 . S
C4421 C4422 1.523 . S
C4422 C4406 1.368 . S
C4422 C4418 1.368 . S
C4422 C4421 1.523 . S
H4423 C4398 0.950 . S
H4424 C4400 0.950 . S
H4425 C4401 0.949 . S
H4426 C4403 0.950 . S
H4427 C4405 0.950 . S
C4428 C4429 1.349 . S
C4428 C4430 1.327 . S
C4428 H4453 0.950 . S
C4429 C4428 1.349 . S
C4429 C4445 1.349 . S
C4430 C4428 1.327 . S
C4430 C4449 1.429 . S
C4430 H4454 0.950 . S
C4431 C4448 1.574 . S
C4431 C4450 1.368 . S
C4431 H4455 0.949 . S
H4432 C4436 0.949 . S
C4433 C4434 1.349 . S
C4433 C4435 1.327 . S
C4433 H4456 0.950 . S
C4434 C4433 1.349 . S
C4434 C4446 1.349 . S
C4435 C4433 1.327 . S
C4435 C4451 1.429 . S
C4435 H4457 0.950 . S
C4436 H4432 0.949 . S
C4436 C4444 1.574 . S
C4436 C4452 1.368 . S
H4437 C4445 0.950 . S
H4438 C4443 0.950 . S
H4439 C4444 0.949 . S
H4440 C4446 0.950 . S
H4441 C4447 0.950 . S
H4442 C4448 0.949 . S
C4443 H4438 0.950 . S
C4443 C4445 1.327 . S
C4443 C4449 1.429 . S
C4444 C4436 1.574 . S
C4444 H4439 0.949 . S
C4444 C4450 1.368 . S
C4445 C4429 1.349 . S
C4445 H4437 0.950 . S
C4445 C4443 1.327 . S
C4446 C4434 1.349 . S
C4446 H4440 0.950 . S
C4446 C4447 1.327 . S
C4447 H4441 0.950 . S
C4447 C4446 1.327 . S
C4447 C4451 1.429 . S
C4448 C4431 1.574 . S
C4448 H4442 0.949 . S
C4448 C4452 1.368 . S
C4449 C4430 1.429 . S
C4449 C4443 1.429 . S
C4449 C4450 1.523 . S
C4450 C4431 1.368 . S
C4450 C4444 1.368 . S
C4450 C4449 1.523 . S
C4451 C4435 1.429 . S
C4451 C4447 1.429 . S
C4451 C4452 1.523 . S
C4452 C4436 1.368 . S
C4452 C4448 1.368 . S
C4452 C4451 1.523 . S
H4453 C4428 0.950 . S
H4454 C4430 0.950 . S
H4455 C4431 0.949 . S
H4456 C4433 0.950 . S
H4457 C4435 0.950 . S
C4458 C4459 1.349 . S
C4458 C4460 1.327 . S
C4458 H4483 0.950 . S
C4459 C4458 1.349 . S
C4459 C4475 1.349 . S
C4460 C4458 1.327 . S
C4460 C4479 1.429 . S
C4460 H4484 0.950 . S
C4461 C4478 1.574 . S
C4461 C4480 1.368 . S
C4461 H4485 0.949 . S
H4462 C4466 0.949 . S
C4463 C4464 1.349 . S
C4463 C4465 1.327 . S
C4463 H4486 0.950 . S
C4464 C4463 1.349 . S
C4464 C4476 1.349 . S
C4465 C4463 1.327 . S
C4465 C4481 1.429 . S
C4465 H4487 0.950 . S
C4466 H4462 0.949 . S
C4466 C4474 1.574 . S
C4466 C4482 1.368 . S
H4467 C4475 0.950 . S
H4468 C4473 0.950 . S
H4469 C4474 0.949 . S
H4470 C4476 0.950 . S
H4471 C4477 0.950 . S
H4472 C4478 0.949 . S
C4473 H4468 0.950 . S
C4473 C4475 1.327 . S
C4473 C4479 1.429 . S
C4474 C4466 1.574 . S
C4474 H4469 0.949 . S
C4474 C4480 1.368 . S
C4475 C4459 1.349 . S
C4475 H4467 0.950 . S
C4475 C4473 1.327 . S
C4476 C4464 1.349 . S
C4476 H4470 0.950 . S
C4476 C4477 1.327 . S
C4477 H4471 0.950 . S
C4477 C4476 1.327 . S
C4477 C4481 1.429 . S
C4478 C4461 1.574 . S
C4478 H4472 0.949 . S
C4478 C4482 1.368 . S
C4479 C4460 1.429 . S
C4479 C4473 1.429 . S
C4479 C4480 1.523 . S
C4480 C4461 1.368 . S
C4480 C4474 1.368 . S
C4480 C4479 1.523 . S
C4481 C4465 1.429 . S
C4481 C4477 1.429 . S
C4481 C4482 1.523 . S
C4482 C4466 1.368 . S
C4482 C4478 1.368 . S
C4482 C4481 1.523 . S
H4483 C4458 0.950 . S
H4484 C4460 0.950 . S
H4485 C4461 0.949 . S
H4486 C4463 0.950 . S
H4487 C4465 0.950 . S
C4488 C4489 1.349 . S
C4488 C4490 1.327 . S
C4488 H4513 0.950 . S
C4489 C4488 1.349 . S
C4489 C4505 1.349 . S
C4490 C4488 1.327 . S
C4490 C4509 1.429 . S
C4490 H4514 0.950 . S
C4491 C4508 1.574 1_554 S
C4491 C4510 1.368 . S
C4491 H4515 0.949 . S
H4492 C4496 0.949 . S
C4493 C4494 1.349 . S
C4493 C4495 1.327 . S
C4493 H4516 0.950 . S
C4494 C4493 1.349 . S
C4494 C4506 1.349 . S
C4495 C4493 1.327 . S
C4495 C4511 1.429 . S
C4495 H4517 0.950 . S
C4496 H4492 0.949 . S
C4496 C4504 1.574 1_556 S
C4496 C4512 1.368 . S
H4497 C4505 0.950 . S
H4498 C4503 0.950 . S
H4499 C4504 0.949 . S
H4500 C4506 0.950 . S
H4501 C4507 0.950 . S
H4502 C4508 0.949 . S
C4503 H4498 0.950 . S
C4503 C4505 1.327 . S
C4503 C4509 1.429 . S
C4504 C4496 1.574 1_554 S
C4504 H4499 0.949 . S
C4504 C4510 1.368 . S
C4505 C4489 1.349 . S
C4505 H4497 0.950 . S
C4505 C4503 1.327 . S
C4506 C4494 1.349 . S
C4506 H4500 0.950 . S
C4506 C4507 1.327 . S
C4507 H4501 0.950 . S
C4507 C4506 1.327 . S
C4507 C4511 1.429 . S
C4508 C4491 1.574 1_556 S
C4508 H4502 0.949 . S
C4508 C4512 1.368 . S
C4509 C4490 1.429 . S
C4509 C4503 1.429 . S
C4509 C4510 1.523 . S
C4510 C4491 1.368 . S
C4510 C4504 1.368 . S
C4510 C4509 1.523 . S
C4511 C4495 1.429 . S
C4511 C4507 1.429 . S
C4511 C4512 1.523 . S
C4512 C4496 1.368 . S
C4512 C4508 1.368 . S
C4512 C4511 1.523 . S
H4513 C4488 0.950 . S
H4514 C4490 0.950 . S
H4515 C4491 0.949 . S
H4516 C4493 0.950 . S
H4517 C4495 0.950 . S
C4518 C4519 1.349 . S
C4518 C4520 1.341 . S
C4518 H4543 0.950 1_655 S
C4519 C4518 1.349 . S
C4519 C4535 1.349 . S
C4520 C4518 1.341 . S
C4520 C4539 1.453 . S
C4520 H4544 0.911 1_655 S
C4521 C4538 1.574 . S
C4521 C4540 1.368 . S
C4521 H4545 0.949 . S
H4522 C4526 0.949 . S
C4523 C4524 1.349 . S
C4523 C4525 1.341 . S
C4523 H4546 0.950 1_455 S
C4524 C4523 1.349 . S
C4524 C4536 1.349 . S
C4525 C4523 1.341 . S
C4525 C4541 1.453 . S
C4525 H4547 0.911 1_455 S
C4526 H4522 0.949 . S
C4526 C4534 1.574 . S
C4526 C4542 1.368 . S
H4527 C4535 0.950 . S
H4528 C4533 0.950 . S
H4529 C4534 0.949 . S
H4530 C4536 0.950 . S
H4531 C4537 0.950 . S
H4532 C4538 0.949 . S
C4533 H4528 0.950 . S
C4533 C4535 1.327 . S
C4533 C4539 1.429 . S
C4534 C4526 1.574 . S
C4534 H4529 0.949 . S
C4534 C4540 1.368 1_455 S
C4535 C4519 1.349 . S
C4535 H4527 0.950 . S
C4535 C4533 1.327 . S
C4536 C4524 1.349 . S
C4536 H4530 0.950 . S
C4536 C4537 1.327 . S
C4537 H4531 0.950 . S
C4537 C4536 1.327 . S
C4537 C4541 1.429 . S
C4538 C4521 1.574 . S
C4538 H4532 0.949 . S
C4538 C4542 1.368 1_655 S
C4539 C4520 1.453 . S
C4539 C4533 1.429 . S
C4539 C4540 1.523 . S
C4540 C4521 1.368 . S
C4540 C4534 1.368 1_655 S
C4540 C4539 1.523 . S
C4541 C4525 1.453 . S
C4541 C4537 1.429 . S
C4541 C4542 1.523 . S
C4542 C4526 1.368 . S
C4542 C4538 1.368 1_455 S
C4542 C4541 1.523 . S
H4543 C4518 0.950 1_455 S
H4544 C4520 0.911 1_455 S
H4545 C4521 0.949 . S
H4546 C4523 0.950 1_655 S
H4547 C4525 0.911 1_655 S
C4548 C4549 1.349 . S
C4548 C4550 1.327 . S
C4548 H4573 0.950 . S
C4549 C4548 1.349 . S
C4549 C4565 1.349 . S
C4550 C4548 1.327 . S
C4550 C4569 1.429 . S
C4550 H4574 0.950 . S
C4551 C4568 1.574 1_554 S
C4551 C4570 1.368 1_655 S
C4551 H4575 0.949 . S
H4552 C4556 0.949 . S
C4553 C4554 1.349 . S
C4553 C4555 1.327 . S
C4553 H4576 0.950 . S
C4554 C4553 1.349 . S
C4554 C4566 1.349 . S
C4555 C4553 1.327 . S
C4555 C4571 1.429 . S
C4555 H4577 0.950 . S
C4556 H4552 0.949 . S
C4556 C4564 1.574 1_556 S
C4556 C4572 1.368 1_455 S
H4557 C4565 0.950 . S
H4558 C4563 0.950 1_655 S
H4559 C4564 0.949 . S
H4560 C4566 0.950 . S
H4561 C4567 0.950 1_455 S
H4562 C4568 0.949 . S
C4563 H4558 0.950 1_455 S
C4563 C4565 1.327 . S
C4563 C4569 1.429 . S
C4564 C4556 1.574 1_554 S
C4564 H4559 0.949 . S
C4564 C4570 1.368 . S
C4565 C4549 1.349 . S
C4565 H4557 0.950 . S
C4565 C4563 1.327 . S
C4566 C4554 1.349 . S
C4566 H4560 0.950 . S
C4566 C4567 1.327 . S
C4567 H4561 0.950 1_655 S
C4567 C4566 1.327 . S
C4567 C4571 1.429 . S
C4568 C4551 1.574 1_556 S
C4568 H4562 0.949 . S
C4568 C4572 1.368 . S
C4569 C4550 1.429 . S
C4569 C4563 1.429 . S
C4569 C4570 1.523 . S
C4570 C4551 1.368 1_455 S
C4570 C4564 1.368 . S
C4570 C4569 1.523 . S
C4571 C4555 1.429 . S
C4571 C4567 1.429 . S
C4571 C4572 1.523 . S
C4572 C4556 1.368 1_655 S
C4572 C4568 1.368 . S
C4572 C4571 1.523 . S
H4573 C4548 0.950 . S
H4574 C4550 0.950 . S
H4575 C4551 0.949 . S
H4576 C4553 0.950 . S
H4577 C4555 0.950 . S
C4578 C4579 1.349 . S
C4578 C4580 1.327 . S
C4578 H4603 0.950 . S
C4579 C4578 1.349 . S
C4579 C4595 1.349 . S
C4580 C4578 1.327 . S
C4580 C4599 1.429 . S
C4580 H4604 0.950 . S
C4581 C4598 1.574 . S
C4581 C4600 1.368 . S
C4581 H4605 0.949 . S
H4582 C4586 0.949 . S
C4583 C4584 1.349 . S
C4583 C4585 1.327 . S
C4583 H4606 0.950 . S
C4584 C4583 1.349 . S
C4584 C4596 1.349 . S
C4585 C4583 1.327 . S
C4585 C4601 1.429 . S
C4585 H4607 0.950 . S
C4586 H4582 0.949 . S
C4586 C4594 1.574 . S
C4586 C4602 1.368 . S
H4587 C4595 0.950 . S
H4588 C4593 0.950 . S
H4589 C4594 0.949 . S
H4590 C4596 0.950 . S
H4591 C4597 0.950 . S
H4592 C4598 0.949 . S
C4593 H4588 0.950 . S
C4593 C4595 1.327 . S
C4593 C4599 1.429 . S
C4594 C4586 1.574 . S
C4594 H4589 0.949 . S
C4594 C4600 1.368 . S
C4595 C4579 1.349 . S
C4595 H4587 0.950 . S
C4595 C4593 1.327 . S
C4596 C4584 1.349 . S
C4596 H4590 0.950 . S
C4596 C4597 1.327 . S
C4597 H4591 0.950 . S
C4597 C4596 1.327 . S
C4597 C4601 1.429 . S
C4598 C4581 1.574 . S
C4598 H4592 0.949 . S
C4598 C4602 1.368 . S
C4599 C4580 1.429 . S
C4599 C4593 1.429 . S
C4599 C4600 1.523 . S
C4600 C4581 1.368 . S
C4600 C4594 1.368 . S
C4600 C4599 1.523 . S
C4601 C4585 1.429 . S
C4601 C4597 1.429 . S
C4601 C4602 1.523 . S
C4602 C4586 1.368 . S
C4602 C4598 1.368 . S
C4602 C4601 1.523 . S
H4603 C4578 0.950 . S
H4604 C4580 0.950 . S
H4605 C4581 0.949 . S
H4606 C4583 0.950 . S
H4607 C4585 0.950 . S
C4608 C4609 1.349 . S
C4608 C4610 1.327 . S
C4608 H4633 0.950 . S
C4609 C4608 1.349 . S
C4609 C4625 1.349 . S
C4610 C4608 1.327 . S
C4610 C4629 1.429 . S
C4610 H4634 0.950 . S
C4611 C4628 1.574 . S
C4611 C4630 1.368 . S
C4611 H4635 0.949 . S
H4612 C4616 0.949 . S
C4613 C4614 1.349 . S
C4613 C4615 1.327 . S
C4613 H4636 0.950 . S
C4614 C4613 1.349 . S
C4614 C4626 1.349 . S
C4615 C4613 1.327 . S
C4615 C4631 1.429 . S
C4615 H4637 0.950 . S
C4616 H4612 0.949 . S
C4616 C4624 1.574 . S
C4616 C4632 1.368 . S
H4617 C4625 0.950 . S
H4618 C4623 0.950 . S
H4619 C4624 0.949 . S
H4620 C4626 0.950 1_565 S
H4621 C4627 0.950 . S
H4622 C4628 0.949 . S
C4623 H4618 0.950 . S
C4623 C4625 1.327 . S
C4623 C4629 1.429 . S
C4624 C4616 1.574 . S
C4624 H4619 0.949 . S
C4624 C4630 1.368 . S
C4625 C4609 1.349 . S
C4625 H4617 0.950 . S
C4625 C4623 1.327 . S
C4626 C4614 1.349 . S
C4626 H4620 0.950 1_545 S
C4626 C4627 1.327 . S
C4627 H4621 0.950 . S
C4627 C4626 1.327 . S
C4627 C4631 1.429 . S
C4628 C4611 1.574 . S
C4628 H4622 0.949 . S
C4628 C4632 1.368 . S
C4629 C4610 1.429 . S
C4629 C4623 1.429 . S
C4629 C4630 1.523 . S
C4630 C4611 1.368 . S
C4630 C4624 1.368 . S
C4630 C4629 1.523 . S
C4631 C4615 1.429 . S
C4631 C4627 1.429 . S
C4631 C4632 1.523 . S
C4632 C4616 1.368 . S
C4632 C4628 1.368 . S
C4632 C4631 1.523 . S
H4633 C4608 0.950 . S
H4634 C4610 0.950 . S
H4635 C4611 0.949 . S
H4636 C4613 0.950 . S
H4637 C4615 0.950 . S
C4638 C4639 1.349 . S
C4638 C4640 1.327 . S
C4638 H4663 0.950 . S
C4639 C4638 1.349 . S
C4639 C4655 1.349 . S
C4640 C4638 1.327 . S
C4640 C4659 1.429 . S
C4640 H4664 0.950 . S
C4641 C4658 1.574 . S
C4641 C4660 1.368 . S
C4641 H4665 0.949 . S
H4642 C4646 0.949 . S
C4643 C4644 1.349 . S
C4643 C4645 1.327 . S
C4643 H4666 0.950 . S
C4644 C4643 1.349 . S
C4644 C4656 1.349 . S
C4645 C4643 1.327 . S
C4645 C4661 1.429 . S
C4645 H4667 0.950 . S
C4646 H4642 0.949 . S
C4646 C4654 1.574 . S
C4646 C4662 1.368 . S
H4647 C4655 0.950 . S
H4648 C4653 0.950 . S
H4649 C4654 0.949 . S
H4650 C4656 0.950 1_565 S
H4651 C4657 0.950 . S
H4652 C4658 0.949 . S
C4653 H4648 0.950 . S
C4653 C4655 1.327 . S
C4653 C4659 1.429 . S
C4654 C4646 1.574 . S
C4654 H4649 0.949 . S
C4654 C4660 1.368 . S
C4655 C4639 1.349 . S
C4655 H4647 0.950 . S
C4655 C4653 1.327 . S
C4656 C4644 1.349 . S
C4656 H4650 0.950 1_545 S
C4656 C4657 1.327 . S
C4657 H4651 0.950 . S
C4657 C4656 1.327 . S
C4657 C4661 1.429 . S
C4658 C4641 1.574 . S
C4658 H4652 0.949 . S
C4658 C4662 1.368 . S
C4659 C4640 1.429 . S
C4659 C4653 1.429 . S
C4659 C4660 1.523 . S
C4660 C4641 1.368 . S
C4660 C4654 1.368 . S
C4660 C4659 1.523 . S
C4661 C4645 1.429 . S
C4661 C4657 1.429 . S
C4661 C4662 1.523 . S
C4662 C4646 1.368 . S
C4662 C4658 1.368 . S
C4662 C4661 1.523 . S
H4663 C4638 0.950 . S
H4664 C4640 0.950 . S
H4665 C4641 0.949 . S
H4666 C4643 0.950 . S
H4667 C4645 0.950 . S
C4668 C4669 1.349 . S
C4668 C4670 1.327 . S
C4668 H4693 0.950 . S
C4669 C4668 1.349 . S
C4669 C4685 1.349 . S
C4670 C4668 1.327 . S
C4670 C4689 1.429 . S
C4670 H4694 0.950 . S
C4671 C4688 1.574 . S
C4671 C4690 1.368 . S
C4671 H4695 0.949 . S
H4672 C4676 0.949 . S
C4673 C4674 1.349 . S
C4673 C4675 1.327 . S
C4673 H4696 0.950 . S
C4674 C4673 1.349 . S
C4674 C4686 1.349 . S
C4675 C4673 1.327 . S
C4675 C4691 1.429 . S
C4675 H4697 0.950 . S
C4676 H4672 0.949 . S
C4676 C4684 1.574 . S
C4676 C4692 1.368 . S
H4677 C4685 0.950 . S
H4678 C4683 0.950 . S
H4679 C4684 0.949 . S
H4680 C4686 0.950 . S
H4681 C4687 0.950 . S
H4682 C4688 0.949 . S
C4683 H4678 0.950 . S
C4683 C4685 1.327 . S
C4683 C4689 1.429 . S
C4684 C4676 1.574 . S
C4684 H4679 0.949 . S
C4684 C4690 1.368 . S
C4685 C4669 1.349 . S
C4685 H4677 0.950 . S
C4685 C4683 1.327 . S
C4686 C4674 1.349 . S
C4686 H4680 0.950 . S
C4686 C4687 1.327 . S
C4687 H4681 0.950 . S
C4687 C4686 1.327 . S
C4687 C4691 1.429 . S
C4688 C4671 1.574 . S
C4688 H4682 0.949 . S
C4688 C4692 1.368 . S
C4689 C4670 1.429 . S
C4689 C4683 1.429 . S
C4689 C4690 1.523 . S
C4690 C4671 1.368 . S
C4690 C4684 1.368 . S
C4690 C4689 1.523 . S
C4691 C4675 1.429 . S
C4691 C4687 1.429 . S
C4691 C4692 1.523 . S
C4692 C4676 1.368 . S
C4692 C4688 1.368 . S
C4692 C4691 1.523 . S
H4693 C4668 0.950 . S
H4694 C4670 0.950 . S
H4695 C4671 0.949 . S
H4696 C4673 0.950 . S
H4697 C4675 0.950 . S
C4698 C4699 1.349 . S
C4698 C4700 1.327 . S
C4698 H4723 0.950 . S
C4699 C4698 1.349 . S
C4699 C4715 1.349 . S
C4700 C4698 1.327 . S
C4700 C4719 1.429 . S
C4700 H4724 0.950 . S
C4701 C4718 1.574 . S
C4701 C4720 1.368 . S
C4701 H4725 0.949 . S
H4702 C4706 0.949 . S
C4703 C4704 1.349 . S
C4703 C4705 1.327 . S
C4703 H4726 0.950 1_565 S
C4704 C4703 1.349 . S
C4704 C4716 1.349 . S
C4705 C4703 1.327 . S
C4705 C4721 1.429 . S
C4705 H4727 0.950 . S
C4706 H4702 0.949 . S
C4706 C4714 1.574 . S
C4706 C4722 1.368 . S
H4707 C4715 0.950 . S
H4708 C4713 0.950 . S
H4709 C4714 0.949 . S
H4710 C4716 0.950 . S
H4711 C4717 0.950 . S
H4712 C4718 0.949 . S
C4713 H4708 0.950 . S
C4713 C4715 1.327 . S
C4713 C4719 1.429 . S
C4714 C4706 1.574 . S
C4714 H4709 0.949 . S
C4714 C4720 1.368 . S
C4715 C4699 1.349 . S
C4715 H4707 0.950 . S
C4715 C4713 1.327 . S
C4716 C4704 1.349 . S
C4716 H4710 0.950 . S
C4716 C4717 1.327 . S
C4717 H4711 0.950 . S
C4717 C4716 1.327 . S
C4717 C4721 1.429 . S
C4718 C4701 1.574 . S
C4718 H4712 0.949 . S
C4718 C4722 1.368 . S
C4719 C4700 1.429 . S
C4719 C4713 1.429 . S
C4719 C4720 1.523 . S
C4720 C4701 1.368 . S
C4720 C4714 1.368 . S
C4720 C4719 1.523 . S
C4721 C4705 1.429 . S
C4721 C4717 1.429 . S
C4721 C4722 1.523 . S
C4722 C4706 1.368 . S
C4722 C4718 1.368 . S
C4722 C4721 1.523 . S
H4723 C4698 0.950 . S
H4724 C4700 0.950 . S
H4725 C4701 0.949 . S
H4726 C4703 0.950 1_545 S
H4727 C4705 0.950 . S
C4728 C4729 1.349 . S
C4728 C4730 1.327 . S
C4728 H4753 0.950 . S
C4729 C4728 1.349 . S
C4729 C4745 1.349 . S
C4730 C4728 1.327 . S
C4730 C4749 1.429 . S
C4730 H4754 0.950 . S
C4731 C4748 1.574 . S
C4731 C4750 1.368 . S
C4731 H4755 0.949 . S
H4732 C4736 0.949 . S
C4733 C4734 1.349 . S
C4733 C4735 1.327 . S
C4733 H4756 0.950 . S
C4734 C4733 1.349 . S
C4734 C4746 1.349 . S
C4735 C4733 1.327 . S
C4735 C4751 1.429 . S
C4735 H4757 0.950 . S
C4736 H4732 0.949 . S
C4736 C4744 1.574 . S
C4736 C4752 1.368 . S
H4737 C4745 0.950 . S
H4738 C4743 0.950 . S
H4739 C4744 0.949 . S
H4740 C4746 0.950 1_545 S
H4741 C4747 0.950 . S
H4742 C4748 0.949 . S
C4743 H4738 0.950 . S
C4743 C4745 1.327 . S
C4743 C4749 1.429 . S
C4744 C4736 1.574 . S
C4744 H4739 0.949 . S
C4744 C4750 1.368 . S
C4745 C4729 1.349 . S
C4745 H4737 0.950 . S
C4745 C4743 1.327 . S
C4746 C4734 1.349 . S
C4746 H4740 0.950 1_565 S
C4746 C4747 1.327 . S
C4747 H4741 0.950 . S
C4747 C4746 1.327 . S
C4747 C4751 1.429 . S
C4748 C4731 1.574 . S
C4748 H4742 0.949 . S
C4748 C4752 1.368 . S
C4749 C4730 1.429 . S
C4749 C4743 1.429 . S
C4749 C4750 1.523 . S
C4750 C4731 1.368 . S
C4750 C4744 1.368 . S
C4750 C4749 1.523 . S
C4751 C4735 1.429 . S
C4751 C4747 1.429 . S
C4751 C4752 1.523 . S
C4752 C4736 1.368 . S
C4752 C4748 1.368 . S
C4752 C4751 1.523 . S
H4753 C4728 0.950 . S
H4754 C4730 0.950 . S
H4755 C4731 0.949 . S
H4756 C4733 0.950 . S
H4757 C4735 0.950 . S
C4758 C4759 1.349 . S
C4758 C4760 1.327 . S
C4758 H4783 0.950 . S
C4759 C4758 1.349 . S
C4759 C4775 1.349 . S
C4760 C4758 1.327 . S
C4760 C4779 1.429 . S
C4760 H4784 0.950 . S
C4761 C4778 1.574 . S
C4761 C4780 1.368 . S
C4761 H4785 0.949 . S
H4762 C4766 0.949 . S
C4763 C4764 1.349 . S
C4763 C4765 1.327 . S
C4763 H4786 0.950 . S
C4764 C4763 1.349 . S
C4764 C4776 1.349 . S
C4765 C4763 1.327 . S
C4765 C4781 1.429 . S
C4765 H4787 0.950 . S
C4766 H4762 0.949 . S
C4766 C4774 1.574 . S
C4766 C4782 1.368 . S
H4767 C4775 0.965 . S
H4768 C4773 0.950 . S
H4769 C4774 0.949 . S
H4770 C4776 0.950 . S
H4771 C4777 0.950 . S
H4772 C4778 0.949 . S
C4773 H4768 0.950 . S
C4773 C4775 1.327 . S
C4773 C4779 1.429 . S
C4774 C4766 1.574 . S
C4774 H4769 0.949 . S
C4774 C4780 1.368 . S
C4775 C4759 1.349 . S
C4775 H4767 0.965 . S
C4775 C4773 1.327 . S
C4776 C4764 1.349 . S
C4776 H4770 0.950 . S
C4776 C4777 1.327 . S
C4777 H4771 0.950 . S
C4777 C4776 1.327 . S
C4777 C4781 1.429 . S
C4778 C4761 1.574 . S
C4778 H4772 0.949 . S
C4778 C4782 1.368 . S
C4779 C4760 1.429 . S
C4779 C4773 1.429 . S
C4779 C4780 1.523 . S
C4780 C4761 1.368 . S
C4780 C4774 1.368 . S
C4780 C4779 1.523 . S
C4781 C4765 1.429 . S
C4781 C4777 1.429 . S
C4781 C4782 1.523 . S
C4782 C4766 1.368 . S
C4782 C4778 1.368 . S
C4782 C4781 1.523 . S
H4783 C4758 0.950 . S
H4784 C4760 0.950 . S
H4785 C4761 0.949 . S
H4786 C4763 0.950 . S
H4787 C4765 0.950 . S
C4788 C4789 1.349 . S
C4788 C4790 1.327 . S
C4788 H4813 0.950 . S
C4789 C4788 1.349 . S
C4789 C4805 1.349 . S
C4790 C4788 1.327 . S
C4790 C4809 1.429 . S
C4790 H4814 0.950 . S
C4791 C4808 1.574 . S
C4791 C4810 1.368 . S
C4791 H4815 0.949 . S
H4792 C4796 0.949 . S
C4793 C4794 1.349 . S
C4793 C4795 1.327 . S
C4793 H4816 0.950 . S
C4794 C4793 1.349 . S
C4794 C4806 1.349 . S
C4795 C4793 1.327 . S
C4795 C4811 1.429 . S
C4795 H4817 0.950 . S
C4796 H4792 0.949 . S
C4796 C4804 1.574 . S
C4796 C4812 1.368 . S
H4797 C4805 0.950 . S
H4798 C4803 0.950 . S
H4799 C4804 0.949 . S
H4800 C4806 0.950 . S
H4801 C4807 0.950 . S
H4802 C4808 0.949 . S
C4803 H4798 0.950 . S
C4803 C4805 1.327 . S
C4803 C4809 1.429 . S
C4804 C4796 1.574 . S
C4804 H4799 0.949 . S
C4804 C4810 1.368 . S
C4805 C4789 1.349 . S
C4805 H4797 0.950 . S
C4805 C4803 1.327 . S
C4806 C4794 1.349 . S
C4806 H4800 0.950 . S
C4806 C4807 1.327 . S
C4807 H4801 0.950 . S
C4807 C4806 1.327 . S
C4807 C4811 1.429 . S
C4808 C4791 1.574 . S
C4808 H4802 0.949 . S
C4808 C4812 1.368 . S
C4809 C4790 1.429 . S
C4809 C4803 1.429 . S
C4809 C4810 1.523 . S
C4810 C4791 1.368 . S
C4810 C4804 1.368 . S
C4810 C4809 1.523 . S
C4811 C4795 1.429 . S
C4811 C4807 1.429 . S
C4811 C4812 1.523 . S
C4812 C4796 1.368 . S
C4812 C4808 1.368 . S
C4812 C4811 1.523 . S
H4813 C4788 0.950 . S
H4814 C4790 0.950 . S
H4815 C4791 0.949 . S
H4816 C4793 0.950 . S
H4817 C4795 0.950 . S
C4818 C4819 1.349 . S
C4818 C4820 1.327 . S
C4818 H4843 0.950 . S
C4819 C4818 1.349 . S
C4819 C4835 1.349 . S
C4820 C4818 1.327 . S
C4820 C4839 1.429 . S
C4820 H4844 0.950 . S
C4821 C4838 1.574 . S
C4821 C4840 1.368 . S
C4821 H4845 0.949 . S
H4822 C4826 0.949 . S
C4823 C4824 1.349 . S
C4823 C4825 1.327 . S
C4823 H4846 0.950 . S
C4824 C4823 1.349 . S
C4824 C4836 1.349 . S
C4825 C4823 1.327 . S
C4825 C4841 1.429 . S
C4825 H4847 0.950 . S
C4826 H4822 0.949 . S
C4826 C4834 1.574 . S
C4826 C4842 1.368 . S
H4827 C4835 0.950 1_565 S
H4828 C4833 0.950 . S
H4829 C4834 0.949 . S
H4830 C4836 0.950 . S
H4831 C4837 0.950 . S
H4832 C4838 0.949 . S
C4833 H4828 0.950 . S
C4833 C4835 1.327 . S
C4833 C4839 1.429 . S
C4834 C4826 1.574 . S
C4834 H4829 0.949 . S
C4834 C4840 1.368 . S
C4835 C4819 1.349 . S
C4835 H4827 0.950 1_545 S
C4835 C4833 1.327 . S
C4836 C4824 1.349 . S
C4836 H4830 0.950 . S
C4836 C4837 1.327 . S
C4837 H4831 0.950 . S
C4837 C4836 1.327 . S
C4837 C4841 1.429 . S
C4838 C4821 1.574 . S
C4838 H4832 0.949 . S
C4838 C4842 1.368 . S
C4839 C4820 1.429 . S
C4839 C4833 1.429 . S
C4839 C4840 1.523 . S
C4840 C4821 1.368 . S
C4840 C4834 1.368 . S
C4840 C4839 1.523 . S
C4841 C4825 1.429 . S
C4841 C4837 1.429 . S
C4841 C4842 1.523 . S
C4842 C4826 1.368 . S
C4842 C4838 1.368 . S
C4842 C4841 1.523 . S
H4843 C4818 0.950 . S
H4844 C4820 0.950 . S
H4845 C4821 0.949 . S
H4846 C4823 0.950 . S
H4847 C4825 0.950 . S
C4848 C4849 1.349 . S
C4848 C4850 1.327 . S
C4848 H4873 0.950 . S
C4849 C4848 1.349 . S
C4849 C4865 1.349 . S
C4850 C4848 1.327 . S
C4850 C4869 1.429 . S
C4850 H4874 0.950 . S
C4851 C4868 1.574 . S
C4851 C4870 1.368 . S
C4851 H4875 0.949 . S
H4852 C4856 0.949 . S
C4853 C4854 1.349 . S
C4853 C4855 1.327 . S
C4853 H4876 0.950 . S
C4854 C4853 1.349 . S
C4854 C4866 1.349 . S
C4855 C4853 1.327 . S
C4855 C4871 1.429 . S
C4855 H4877 0.950 . S
C4856 H4852 0.949 . S
C4856 C4864 1.574 . S
C4856 C4872 1.368 . S
H4857 C4865 0.950 . S
H4858 C4863 0.950 . S
H4859 C4864 0.949 . S
H4860 C4866 0.950 . S
H4861 C4867 0.950 . S
H4862 C4868 0.949 . S
C4863 H4858 0.950 . S
C4863 C4865 1.327 . S
C4863 C4869 1.429 . S
C4864 C4856 1.574 . S
C4864 H4859 0.949 . S
C4864 C4870 1.368 . S
C4865 C4849 1.349 . S
C4865 H4857 0.950 . S
C4865 C4863 1.327 . S
C4866 C4854 1.349 . S
C4866 H4860 0.950 . S
C4866 C4867 1.327 . S
C4867 H4861 0.950 . S
C4867 C4866 1.327 . S
C4867 C4871 1.429 . S
C4868 C4851 1.574 . S
C4868 H4862 0.949 . S
C4868 C4872 1.368 . S
C4869 C4850 1.429 . S
C4869 C4863 1.429 . S
C4869 C4870 1.523 . S
C4870 C4851 1.368 . S
C4870 C4864 1.368 . S
C4870 C4869 1.523 . S
C4871 C4855 1.429 . S
C4871 C4867 1.429 . S
C4871 C4872 1.523 . S
C4872 C4856 1.368 . S
C4872 C4868 1.368 . S
C4872 C4871 1.523 . S
H4873 C4848 0.950 . S
H4874 C4850 0.950 . S
H4875 C4851 0.949 . S
H4876 C4853 0.950 . S
H4877 C4855 0.950 . S
C4878 C4879 1.349 . S
C4878 C4880 1.327 . S
C4878 H4903 0.950 . S
C4879 C4878 1.349 . S
C4879 C4895 1.349 . S
C4880 C4878 1.327 . S
C4880 C4899 1.429 . S
C4880 H4904 0.950 . S
C4881 C4898 1.574 . S
C4881 C4900 1.368 . S
C4881 H4905 0.949 . S
H4882 C4886 0.949 . S
C4883 C4884 1.349 . S
C4883 C4885 1.327 . S
C4883 H4906 0.950 . S
C4884 C4883 1.349 . S
C4884 C4896 1.349 . S
C4885 C4883 1.327 . S
C4885 C4901 1.429 . S
C4885 H4907 0.950 . S
C4886 H4882 0.949 . S
C4886 C4894 1.574 . S
C4886 C4902 1.368 . S
H4887 C4895 0.950 . S
H4888 C4893 0.950 . S
H4889 C4894 0.949 . S
H4890 C4896 0.950 . S
H4891 C4897 0.950 . S
H4892 C4898 0.949 . S
C4893 H4888 0.950 . S
C4893 C4895 1.327 . S
C4893 C4899 1.429 . S
C4894 C4886 1.574 . S
C4894 H4889 0.949 . S
C4894 C4900 1.368 . S
C4895 C4879 1.349 . S
C4895 H4887 0.950 . S
C4895 C4893 1.327 . S
C4896 C4884 1.349 . S
C4896 H4890 0.950 . S
C4896 C4897 1.327 . S
C4897 H4891 0.950 . S
C4897 C4896 1.327 . S
C4897 C4901 1.429 . S
C4898 C4881 1.574 . S
C4898 H4892 0.949 . S
C4898 C4902 1.368 . S
C4899 C4880 1.429 . S
C4899 C4893 1.429 . S
C4899 C4900 1.523 . S
C4900 C4881 1.368 . S
C4900 C4894 1.368 . S
C4900 C4899 1.523 . S
C4901 C4885 1.429 . S
C4901 C4897 1.429 . S
C4901 C4902 1.523 . S
C4902 C4886 1.368 . S
C4902 C4898 1.368 . S
C4902 C4901 1.523 . S
H4903 C4878 0.950 . S
H4904 C4880 0.950 . S
H4905 C4881 0.949 . S
H4906 C4883 0.950 . S
H4907 C4885 0.950 . S
C4908 C4909 1.349 . S
C4908 C4910 1.327 . S
C4908 H4933 0.950 . S
C4909 C4908 1.349 . S
C4909 C4925 1.349 . S
C4910 C4908 1.327 . S
C4910 C4929 1.429 . S
C4910 H4934 0.950 . S
C4911 C4928 1.574 . S
C4911 C4930 1.368 . S
C4911 H4935 0.949 . S
H4912 C4916 0.949 . S
C4913 C4914 1.349 . S
C4913 C4915 1.327 . S
C4913 H4936 0.950 . S
C4914 C4913 1.349 . S
C4914 C4926 1.349 . S
C4915 C4913 1.327 . S
C4915 C4931 1.429 . S
C4915 H4937 0.950 . S
C4916 H4912 0.949 . S
C4916 C4924 1.574 . S
C4916 C4932 1.368 . S
H4917 C4925 0.950 . S
H4918 C4923 0.950 . S
H4919 C4924 0.949 . S
H4920 C4926 0.950 . S
H4921 C4927 0.950 . S
H4922 C4928 0.949 . S
C4923 H4918 0.950 . S
C4923 C4925 1.327 . S
C4923 C4929 1.429 . S
C4924 C4916 1.574 . S
C4924 H4919 0.949 . S
C4924 C4930 1.368 . S
C4925 C4909 1.349 . S
C4925 H4917 0.950 . S
C4925 C4923 1.327 . S
C4926 C4914 1.349 . S
C4926 H4920 0.950 . S
C4926 C4927 1.327 . S
C4927 H4921 0.950 . S
C4927 C4926 1.327 . S
C4927 C4931 1.429 . S
C4928 C4911 1.574 . S
C4928 H4922 0.949 . S
C4928 C4932 1.368 . S
C4929 C4910 1.429 . S
C4929 C4923 1.429 . S
C4929 C4930 1.523 . S
C4930 C4911 1.368 . S
C4930 C4924 1.368 . S
C4930 C4929 1.523 . S
C4931 C4915 1.429 . S
C4931 C4927 1.429 . S
C4931 C4932 1.523 . S
C4932 C4916 1.368 . S
C4932 C4928 1.368 . S
C4932 C4931 1.523 . S
H4933 C4908 0.950 . S
H4934 C4910 0.950 . S
H4935 C4911 0.949 . S
H4936 C4913 0.950 . S
H4937 C4915 0.950 . S
C4938 C4939 1.349 . S
C4938 C4940 1.327 . S
C4938 H4963 0.950 . S
C4939 C4938 1.349 . S
C4939 C4955 1.349 . S
C4940 C4938 1.327 . S
C4940 C4959 1.429 . S
C4940 H4964 0.950 . S
C4941 C4958 1.574 . S
C4941 C4960 1.368 . S
C4941 H4965 0.949 . S
H4942 C4946 0.949 . S
C4943 C4944 1.349 . S
C4943 C4945 1.327 . S
C4943 H4966 0.950 . S
C4944 C4943 1.349 . S
C4944 C4956 1.349 . S
C4945 C4943 1.327 . S
C4945 C4961 1.429 . S
C4945 H4967 0.950 . S
C4946 H4942 0.949 . S
C4946 C4954 1.574 . S
C4946 C4962 1.368 . S
H4947 C4955 0.950 . S
H4948 C4953 0.950 . S
H4949 C4954 0.949 . S
H4950 C4956 0.950 . S
H4951 C4957 0.950 . S
H4952 C4958 0.949 . S
C4953 H4948 0.950 . S
C4953 C4955 1.327 . S
C4953 C4959 1.429 . S
C4954 C4946 1.574 . S
C4954 H4949 0.949 . S
C4954 C4960 1.368 . S
C4955 C4939 1.349 . S
C4955 H4947 0.950 . S
C4955 C4953 1.327 . S
C4956 C4944 1.349 . S
C4956 H4950 0.950 . S
C4956 C4957 1.327 . S
C4957 H4951 0.950 . S
C4957 C4956 1.327 . S
C4957 C4961 1.429 . S
C4958 C4941 1.574 . S
C4958 H4952 0.949 . S
C4958 C4962 1.368 . S
C4959 C4940 1.429 . S
C4959 C4953 1.429 . S
C4959 C4960 1.523 . S
C4960 C4941 1.368 . S
C4960 C4954 1.368 . S
C4960 C4959 1.523 . S
C4961 C4945 1.429 . S
C4961 C4957 1.429 . S
C4961 C4962 1.523 . S
C4962 C4946 1.368 . S
C4962 C4958 1.368 . S
C4962 C4961 1.523 . S
H4963 C4938 0.950 . S
H4964 C4940 0.950 . S
H4965 C4941 0.949 . S
H4966 C4943 0.950 . S
H4967 C4945 0.950 . S
C4968 C4969 1.349 . S
C4968 C4970 1.327 . S
C4968 H4993 0.950 . S
C4969 C4968 1.349 . S
C4969 C4985 1.349 . S
C4970 C4968 1.327 . S
C4970 C4989 1.429 . S
C4970 H4994 0.950 . S
C4971 C4988 1.574 . S
C4971 C4990 1.368 . S
C4971 H4995 0.949 . S
H4972 C4976 0.949 . S
C4973 C4974 1.349 . S
C4973 C4975 1.327 . S
C4973 H4996 0.950 . S
C4974 C4973 1.349 . S
C4974 C4986 1.349 . S
C4975 C4973 1.327 . S
C4975 C4991 1.429 . S
C4975 H4997 0.950 . S
C4976 H4972 0.949 . S
C4976 C4984 1.574 . S
C4976 C4992 1.368 . S
H4977 C4985 0.950 . S
H4978 C4983 0.950 . S
H4979 C4984 0.949 . S
H4980 C4986 0.950 . S
H4981 C4987 0.950 . S
H4982 C4988 0.949 . S
C4983 H4978 0.950 . S
C4983 C4985 1.327 . S
C4983 C4989 1.429 . S
C4984 C4976 1.574 . S
C4984 H4979 0.949 . S
C4984 C4990 1.368 . S
C4985 C4969 1.349 . S
C4985 H4977 0.950 . S
C4985 C4983 1.327 . S
C4986 C4974 1.349 . S
C4986 H4980 0.950 . S
C4986 C4987 1.327 . S
C4987 H4981 0.950 . S
C4987 C4986 1.327 . S
C4987 C4991 1.429 . S
C4988 C4971 1.574 . S
C4988 H4982 0.949 . S
C4988 C4992 1.368 . S
C4989 C4970 1.429 . S
C4989 C4983 1.429 . S
C4989 C4990 1.523 . S
C4990 C4971 1.368 . S
C4990 C4984 1.368 . S
C4990 C4989 1.523 . S
C4991 C4975 1.429 . S
C4991 C4987 1.429 . S
C4991 C4992 1.523 . S
C4992 C4976 1.368 . S
C4992 C4988 1.368 . S
C4992 C4991 1.523 . S
H4993 C4968 0.950 . S
H4994 C4970 0.950 . S
H4995 C4971 0.949 . S
H4996 C4973 0.950 . S
H4997 C4975 0.950 . S
C4998 C4999 1.349 . S
C4998 C5000 1.327 . S
C4998 H5023 0.950 . S
C4999 C4998 1.349 . S
C4999 C5015 1.349 . S
C5000 C4998 1.327 . S
C5000 C5019 1.429 . S
C5000 H5024 0.950 . S
C5001 C5018 1.574 . S
C5001 C5020 1.368 . S
C5001 H5025 0.949 . S
H5002 C5006 0.949 . S
C5003 C5004 1.349 . S
C5003 C5005 1.327 . S
C5003 H5026 0.950 . S
C5004 C5003 1.349 . S
C5004 C5016 1.349 . S
C5005 C5003 1.327 . S
C5005 C5021 1.429 . S
C5005 H5027 0.950 . S
C5006 H5002 0.949 . S
C5006 C5014 1.574 . S
C5006 C5022 1.368 . S
H5007 C5015 0.950 . S
H5008 C5013 0.950 . S
H5009 C5014 0.949 . S
H5010 C5016 0.950 . S
H5011 C5017 0.950 . S
H5012 C5018 0.949 . S
C5013 H5008 0.950 . S
C5013 C5015 1.327 . S
C5013 C5019 1.429 . S
C5014 C5006 1.574 . S
C5014 H5009 0.949 . S
C5014 C5020 1.368 . S
C5015 C4999 1.349 . S
C5015 H5007 0.950 . S
C5015 C5013 1.327 . S
C5016 C5004 1.349 . S
C5016 H5010 0.950 . S
C5016 C5017 1.327 . S
C5017 H5011 0.950 . S
C5017 C5016 1.327 . S
C5017 C5021 1.429 . S
C5018 C5001 1.574 . S
C5018 H5012 0.949 . S
C5018 C5022 1.368 . S
C5019 C5000 1.429 . S
C5019 C5013 1.429 . S
C5019 C5020 1.523 . S
C5020 C5001 1.368 . S
C5020 C5014 1.368 . S
C5020 C5019 1.523 . S
C5021 C5005 1.429 . S
C5021 C5017 1.429 . S
C5021 C5022 1.523 . S
C5022 C5006 1.368 . S
C5022 C5018 1.368 . S
C5022 C5021 1.523 . S
H5023 C4998 0.950 . S
H5024 C5000 0.950 . S
H5025 C5001 0.949 . S
H5026 C5003 0.950 . S
H5027 C5005 0.950 . S
C5028 C5029 1.349 . S
C5028 C5030 1.327 . S
C5028 H5053 0.950 . S
C5029 C5028 1.349 . S
C5029 C5045 1.349 . S
C5030 C5028 1.327 . S
C5030 C5049 1.429 . S
C5030 H5054 0.950 . S
C5031 C5048 1.574 . S
C5031 C5050 1.368 . S
C5031 H5055 0.949 . S
H5032 C5036 0.949 . S
C5033 C5034 1.349 . S
C5033 C5035 1.327 . S
C5033 H5056 0.950 . S
C5034 C5033 1.349 . S
C5034 C5046 1.349 . S
C5035 C5033 1.327 . S
C5035 C5051 1.429 . S
C5035 H5057 0.950 . S
C5036 H5032 0.949 . S
C5036 C5044 1.574 . S
C5036 C5052 1.368 . S
H5037 C5045 0.950 . S
H5038 C5043 0.950 . S
H5039 C5044 0.949 . S
H5040 C5046 0.950 . S
H5041 C5047 0.950 . S
H5042 C5048 0.949 . S
C5043 H5038 0.950 . S
C5043 C5045 1.327 . S
C5043 C5049 1.429 . S
C5044 C5036 1.574 . S
C5044 H5039 0.949 . S
C5044 C5050 1.368 . S
C5045 C5029 1.349 . S
C5045 H5037 0.950 . S
C5045 C5043 1.327 . S
C5046 C5034 1.349 . S
C5046 H5040 0.950 . S
C5046 C5047 1.327 . S
C5047 H5041 0.950 . S
C5047 C5046 1.327 . S
C5047 C5051 1.429 . S
C5048 C5031 1.574 . S
C5048 H5042 0.949 . S
C5048 C5052 1.368 . S
C5049 C5030 1.429 . S
C5049 C5043 1.429 . S
C5049 C5050 1.523 . S
C5050 C5031 1.368 . S
C5050 C5044 1.368 . S
C5050 C5049 1.523 . S
C5051 C5035 1.429 . S
C5051 C5047 1.429 . S
C5051 C5052 1.523 . S
C5052 C5036 1.368 . S
C5052 C5048 1.368 . S
C5052 C5051 1.523 . S
H5053 C5028 0.950 . S
H5054 C5030 0.950 . S
H5055 C5031 0.949 . S
H5056 C5033 0.950 . S
H5057 C5035 0.950 . S
C5058 C5059 1.349 . S
C5058 C5060 1.327 . S
C5058 H5083 0.950 . S
C5059 C5058 1.349 . S
C5059 C5075 1.349 . S
C5060 C5058 1.327 . S
C5060 C5079 1.429 . S
C5060 H5084 0.950 . S
C5061 C5078 1.574 . S
C5061 C5080 1.368 . S
C5061 H5085 0.949 . S
H5062 C5066 0.949 . S
C5063 C5064 1.349 . S
C5063 C5065 1.327 . S
C5063 H5086 0.950 . S
C5064 C5063 1.349 . S
C5064 C5076 1.349 . S
C5065 C5063 1.327 . S
C5065 C5081 1.429 . S
C5065 H5087 0.950 . S
C5066 H5062 0.949 . S
C5066 C5074 1.574 . S
C5066 C5082 1.368 . S
H5067 C5075 0.950 . S
H5068 C5073 0.950 . S
H5069 C5074 0.949 . S
H5070 C5076 0.950 . S
H5071 C5077 0.950 . S
H5072 C5078 0.949 . S
C5073 H5068 0.950 . S
C5073 C5075 1.327 . S
C5073 C5079 1.429 . S
C5074 C5066 1.574 . S
C5074 H5069 0.949 . S
C5074 C5080 1.368 . S
C5075 C5059 1.349 . S
C5075 H5067 0.950 . S
C5075 C5073 1.327 . S
C5076 C5064 1.349 . S
C5076 H5070 0.950 . S
C5076 C5077 1.327 . S
C5077 H5071 0.950 . S
C5077 C5076 1.327 . S
C5077 C5081 1.429 . S
C5078 C5061 1.574 . S
C5078 H5072 0.949 . S
C5078 C5082 1.368 . S
C5079 C5060 1.429 . S
C5079 C5073 1.429 . S
C5079 C5080 1.523 . S
C5080 C5061 1.368 . S
C5080 C5074 1.368 . S
C5080 C5079 1.523 . S
C5081 C5065 1.429 . S
C5081 C5077 1.429 . S
C5081 C5082 1.523 . S
C5082 C5066 1.368 . S
C5082 C5078 1.368 . S
C5082 C5081 1.523 . S
H5083 C5058 0.950 . S
H5084 C5060 0.950 . S
H5085 C5061 0.949 . S
H5086 C5063 0.950 . S
H5087 C5065 0.950 . S
C5088 C5089 1.349 . S
C5088 C5090 1.327 . S
C5088 H5113 0.950 . S
C5089 C5088 1.349 . S
C5089 C5105 1.349 . S
C5090 C5088 1.327 . S
C5090 C5109 1.429 . S
C5090 H5114 0.950 . S
C5091 C5108 1.574 1_545 S
C5091 C5110 1.368 . S
C5091 H5115 0.949 . S
H5092 C5096 0.949 . S
C5093 C5094 1.349 . S
C5093 C5095 1.327 . S
C5093 H5116 0.950 . S
C5094 C5093 1.349 . S
C5094 C5106 1.349 . S
C5095 C5093 1.327 . S
C5095 C5111 1.429 . S
C5095 H5117 0.950 . S
C5096 H5092 0.949 . S
C5096 C5104 1.574 1_565 S
C5096 C5112 1.368 . S
H5097 C5105 0.950 . S
H5098 C5103 0.950 . S
H5099 C5104 0.949 . S
H5100 C5106 0.950 . S
H5101 C5107 0.950 . S
H5102 C5108 0.949 . S
C5103 H5098 0.950 . S
C5103 C5105 1.327 . S
C5103 C5109 1.429 . S
C5104 C5096 1.574 1_545 S
C5104 H5099 0.949 . S
C5104 C5110 1.368 . S
C5105 C5089 1.349 . S
C5105 H5097 0.950 . S
C5105 C5103 1.327 . S
C5106 C5094 1.349 . S
C5106 H5100 0.950 . S
C5106 C5107 1.327 . S
C5107 H5101 0.950 . S
C5107 C5106 1.327 . S
C5107 C5111 1.429 . S
C5108 C5091 1.574 1_565 S
C5108 H5102 0.949 . S
C5108 C5112 1.368 . S
C5109 C5090 1.429 . S
C5109 C5103 1.429 . S
C5109 C5110 1.523 . S
C5110 C5091 1.368 . S
C5110 C5104 1.368 . S
C5110 C5109 1.523 . S
C5111 C5095 1.429 . S
C5111 C5107 1.429 . S
C5111 C5112 1.523 . S
C5112 C5096 1.368 . S
C5112 C5108 1.368 . S
C5112 C5111 1.523 . S
H5113 C5088 0.950 . S
H5114 C5090 0.950 . S
H5115 C5091 0.949 . S
H5116 C5093 0.950 . S
H5117 C5095 0.950 . S
C5118 C5119 1.349 . S
C5118 C5120 1.327 . S
C5118 H5143 0.950 . S
C5119 C5118 1.349 . S
C5119 C5135 1.349 . S
C5120 C5118 1.327 . S
C5120 C5139 1.429 . S
C5120 H5144 0.950 . S
C5121 C5138 1.574 . S
C5121 C5140 1.368 . S
C5121 H5145 0.948 . S
H5122 C5126 0.949 . S
C5123 C5124 1.349 . S
C5123 C5125 1.327 . S
C5123 H5146 0.950 . S
C5124 C5123 1.349 . S
C5124 C5136 1.349 . S
C5125 C5123 1.327 . S
C5125 C5141 1.429 . S
C5125 H5147 0.956 . S
C5126 H5122 0.949 . S
C5126 C5134 1.574 . S
C5126 C5142 1.368 . S
H5127 C5135 0.950 . S
H5128 C5133 0.956 . S
H5129 C5134 0.949 . S
H5130 C5136 0.950 . S
H5131 C5137 0.950 . S
H5132 C5138 0.948 . S
C5133 H5128 0.956 . S
C5133 C5135 1.327 . S
C5133 C5139 1.429 . S
C5134 C5126 1.574 . S
C5134 H5129 0.949 . S
C5134 C5140 1.368 . S
C5135 C5119 1.349 . S
C5135 H5127 0.950 . S
C5135 C5133 1.327 . S
C5136 C5124 1.349 . S
C5136 H5130 0.950 . S
C5136 C5137 1.327 . S
C5137 H5131 0.950 . S
C5137 C5136 1.327 . S
C5137 C5141 1.429 . S
C5138 C5121 1.574 . S
C5138 H5132 0.948 . S
C5138 C5142 1.368 . S
C5139 C5120 1.429 . S
C5139 C5133 1.429 . S
C5139 C5140 1.523 . S
C5140 C5121 1.368 . S
C5140 C5134 1.368 . S
C5140 C5139 1.523 . S
C5141 C5125 1.429 . S
C5141 C5137 1.429 . S
C5141 C5142 1.523 . S
C5142 C5126 1.368 . S
C5142 C5138 1.368 . S
C5142 C5141 1.523 . S
H5143 C5118 0.950 . S
H5144 C5120 0.950 . S
H5145 C5121 0.948 . S
H5146 C5123 0.950 . S
H5147 C5125 0.956 . S
C5148 C5149 1.349 . S
C5148 C5150 1.327 . S
C5148 H5173 0.950 . S
C5149 C5148 1.349 . S
C5149 C5165 1.349 . S
C5150 C5148 1.327 . S
C5150 C5169 1.429 . S
C5150 H5174 0.950 . S
C5151 C5168 1.574 . S
C5151 C5170 1.368 . S
C5151 H5175 0.949 . S
H5152 C5156 0.949 . S
C5153 C5154 1.349 . S
C5153 C5155 1.327 . S
C5153 H5176 0.950 . S
C5154 C5153 1.349 . S
C5154 C5166 1.349 . S
C5155 C5153 1.327 . S
C5155 C5171 1.429 . S
C5155 H5177 0.950 . S
C5156 H5152 0.949 . S
C5156 C5164 1.574 . S
C5156 C5172 1.368 . S
H5157 C5165 0.950 . S
H5158 C5163 0.950 . S
H5159 C5164 0.949 . S
H5160 C5166 0.950 . S
H5161 C5167 0.950 . S
H5162 C5168 0.949 . S
C5163 H5158 0.950 . S
C5163 C5165 1.327 . S
C5163 C5169 1.429 . S
C5164 C5156 1.574 . S
C5164 H5159 0.949 . S
C5164 C5170 1.368 1_565 S
C5165 C5149 1.349 . S
C5165 H5157 0.950 . S
C5165 C5163 1.327 . S
C5166 C5154 1.349 . S
C5166 H5160 0.950 . S
C5166 C5167 1.327 . S
C5167 H5161 0.950 . S
C5167 C5166 1.327 . S
C5167 C5171 1.429 . S
C5168 C5151 1.574 . S
C5168 H5162 0.949 . S
C5168 C5172 1.368 1_545 S
C5169 C5150 1.429 . S
C5169 C5163 1.429 . S
C5169 C5170 1.523 . S
C5170 C5151 1.368 . S
C5170 C5164 1.368 1_545 S
C5170 C5169 1.523 . S
C5171 C5155 1.429 . S
C5171 C5167 1.429 . S
C5171 C5172 1.523 . S
C5172 C5156 1.368 . S
C5172 C5168 1.368 1_565 S
C5172 C5171 1.523 . S
H5173 C5148 0.950 . S
H5174 C5150 0.950 . S
H5175 C5151 0.949 . S
H5176 C5153 0.950 . S
H5177 C5155 0.950 . S
C5178 C5179 1.349 . S
C5178 C5180 1.327 . S
C5178 H5203 0.950 . S
C5179 C5178 1.349 . S
C5179 C5195 1.349 . S
C5180 C5178 1.327 . S
C5180 C5199 1.429 . S
C5180 H5204 0.950 . S
C5181 C5198 1.592 . S
C5181 C5200 1.368 . S
C5181 H5205 0.948 . S
H5182 C5186 0.949 . S
C5183 C5184 1.349 . S
C5183 C5185 1.327 . S
C5183 H5206 0.950 . S
C5184 C5183 1.349 . S
C5184 C5196 1.349 . S
C5185 C5183 1.327 . S
C5185 C5201 1.429 . S
C5185 H5207 0.956 . S
C5186 H5182 0.949 . S
C5186 C5194 1.591 . S
C5186 C5202 1.368 . S
H5187 C5195 0.950 . S
H5188 C5193 0.956 . S
H5189 C5194 0.949 . S
H5190 C5196 0.950 . S
H5191 C5197 0.950 . S
H5192 C5198 0.948 . S
C5193 H5188 0.956 . S
C5193 C5195 1.327 . S
C5193 C5199 1.429 . S
C5194 C5186 1.591 . S
C5194 H5189 0.949 . S
C5194 C5200 1.351 1_554 S
C5195 C5179 1.349 . S
C5195 H5187 0.950 . S
C5195 C5193 1.327 . S
C5196 C5184 1.349 . S
C5196 H5190 0.950 . S
C5196 C5197 1.327 . S
C5197 H5191 0.950 . S
C5197 C5196 1.327 . S
C5197 C5201 1.429 . S
C5198 C5181 1.592 . S
C5198 H5192 0.948 . S
C5198 C5202 1.351 1_556 S
C5199 C5180 1.429 . S
C5199 C5193 1.429 . S
C5199 C5200 1.523 . S
C5200 C5181 1.368 . S
C5200 C5194 1.351 1_556 S
C5200 C5199 1.523 . S
C5201 C5185 1.429 . S
C5201 C5197 1.429 . S
C5201 C5202 1.523 . S
C5202 C5186 1.368 . S
C5202 C5198 1.351 1_554 S
C5202 C5201 1.523 . S
H5203 C5178 0.950 . S
H5204 C5180 0.950 . S
H5205 C5181 0.948 . S
H5206 C5183 0.950 . S
H5207 C5185 0.956 . S
C5208 C5209 1.349 . S
C5208 C5210 1.327 . S
C5208 H5233 0.950 . S
C5209 C5208 1.349 . S
C5209 C5225 1.349 . S
C5210 C5208 1.327 . S
C5210 C5229 1.429 . S
C5210 H5234 0.950 . S
C5211 C5228 1.574 . S
C5211 C5230 1.368 . S
C5211 H5235 0.949 . S
H5212 C5216 0.949 . S
C5213 C5214 1.349 . S
C5213 C5215 1.327 . S
C5213 H5236 0.950 . S
C5214 C5213 1.349 . S
C5214 C5226 1.349 . S
C5215 C5213 1.327 . S
C5215 C5231 1.429 . S
C5215 H5237 0.950 . S
C5216 H5212 0.949 . S
C5216 C5224 1.574 . S
C5216 C5232 1.368 . S
H5217 C5225 0.950 . S
H5218 C5223 0.950 . S
H5219 C5224 0.949 . S
H5220 C5226 0.950 . S
H5221 C5227 0.950 . S
H5222 C5228 0.949 . S
C5223 H5218 0.950 . S
C5223 C5225 1.327 . S
C5223 C5229 1.429 . S
C5224 C5216 1.574 . S
C5224 H5219 0.949 . S
C5224 C5230 1.368 1_545 S
C5225 C5209 1.349 . S
C5225 H5217 0.950 . S
C5225 C5223 1.327 . S
C5226 C5214 1.349 . S
C5226 H5220 0.950 . S
C5226 C5227 1.327 . S
C5227 H5221 0.950 . S
C5227 C5226 1.327 . S
C5227 C5231 1.429 . S
C5228 C5211 1.574 . S
C5228 H5222 0.949 . S
C5228 C5232 1.368 1_565 S
C5229 C5210 1.429 . S
C5229 C5223 1.429 . S
C5229 C5230 1.523 . S
C5230 C5211 1.368 . S
C5230 C5224 1.368 1_565 S
C5230 C5229 1.523 . S
C5231 C5215 1.429 . S
C5231 C5227 1.429 . S
C5231 C5232 1.523 . S
C5232 C5216 1.368 . S
C5232 C5228 1.368 1_545 S
C5232 C5231 1.523 . S
H5233 C5208 0.950 . S
H5234 C5210 0.950 . S
H5235 C5211 0.949 . S
H5236 C5213 0.950 . S
H5237 C5215 0.950 . S
C5238 C5239 1.349 . S
C5238 C5240 1.327 . S
C5238 H5263 0.950 . S
C5239 C5238 1.349 . S
C5239 C5255 1.349 . S
C5240 C5238 1.327 . S
C5240 C5259 1.429 . S
C5240 H5264 0.950 . S
C5241 C5258 1.574 . S
C5241 C5260 1.368 . S
C5241 H5265 0.949 . S
H5242 C5246 0.949 . S
C5243 C5244 1.349 . S
C5243 C5245 1.327 . S
C5243 H5266 0.950 . S
C5244 C5243 1.349 . S
C5244 C5256 1.349 . S
C5245 C5243 1.327 . S
C5245 C5261 1.429 . S
C5245 H5267 0.957 . S
C5246 H5242 0.949 . S
C5246 C5254 1.574 . S
C5246 C5262 1.368 . S
H5247 C5255 0.950 . S
H5248 C5253 0.957 . S
H5249 C5254 0.949 . S
H5250 C5256 0.950 . S
H5251 C5257 0.950 . S
H5252 C5258 0.949 . S
C5253 H5248 0.957 . S
C5253 C5255 1.327 . S
C5253 C5259 1.429 . S
C5254 C5246 1.574 . S
C5254 H5249 0.949 . S
C5254 C5260 1.368 . S
C5255 C5239 1.349 . S
C5255 H5247 0.950 . S
C5255 C5253 1.327 . S
C5256 C5244 1.349 . S
C5256 H5250 0.950 . S
C5256 C5257 1.327 . S
C5257 H5251 0.950 . S
C5257 C5256 1.327 . S
C5257 C5261 1.429 . S
C5258 C5241 1.574 . S
C5258 H5252 0.949 . S
C5258 C5262 1.368 . S
C5259 C5240 1.429 . S
C5259 C5253 1.429 . S
C5259 C5260 1.523 . S
C5260 C5241 1.368 . S
C5260 C5254 1.368 . S
C5260 C5259 1.523 . S
C5261 C5245 1.429 . S
C5261 C5257 1.429 . S
C5261 C5262 1.523 . S
C5262 C5246 1.368 . S
C5262 C5258 1.368 . S
C5262 C5261 1.523 . S
H5263 C5238 0.950 . S
H5264 C5240 0.950 . S
H5265 C5241 0.949 . S
H5266 C5243 0.950 . S
H5267 C5245 0.957 . S
C5268 C5269 1.349 . S
C5268 C5270 1.327 . S
C5268 H5293 0.950 . S
C5269 C5268 1.349 . S
C5269 C5285 1.349 . S
C5270 C5268 1.327 . S
C5270 C5289 1.429 . S
C5270 H5294 0.950 . S
C5271 C5288 1.575 . S
C5271 C5290 1.367 1_545 S
C5271 H5295 0.949 1_545 S
H5272 C5276 0.949 1_545 S
C5273 C5274 1.349 . S
C5273 C5275 1.327 . S
C5273 H5296 0.950 . S
C5274 C5273 1.349 . S
C5274 C5286 1.349 . S
C5275 C5273 1.327 . S
C5275 C5291 1.429 . S
C5275 H5297 0.950 . S
C5276 H5272 0.949 1_565 S
C5276 C5284 1.575 . S
C5276 C5292 1.367 1_565 S
H5277 C5285 0.950 . S
H5278 C5283 0.950 . S
H5279 C5284 0.949 . S
H5280 C5286 0.950 . S
H5281 C5287 0.950 . S
H5282 C5288 0.949 . S
C5283 H5278 0.950 . S
C5283 C5285 1.327 . S
C5283 C5289 1.429 . S
C5284 C5276 1.575 . S
C5284 H5279 0.949 . S
C5284 C5290 1.368 . S
C5285 C5269 1.349 . S
C5285 H5277 0.950 . S
C5285 C5283 1.327 . S
C5286 C5274 1.349 . S
C5286 H5280 0.950 . S
C5286 C5287 1.327 . S
C5287 H5281 0.950 . S
C5287 C5286 1.327 . S
C5287 C5291 1.429 . S
C5288 C5271 1.575 . S
C5288 H5282 0.949 . S
C5288 C5292 1.368 . S
C5289 C5270 1.429 . S
C5289 C5283 1.429 . S
C5289 C5290 1.523 . S
C5290 C5271 1.367 1_565 S
C5290 C5284 1.368 . S
C5290 C5289 1.523 . S
C5291 C5275 1.429 . S
C5291 C5287 1.429 . S
C5291 C5292 1.523 . S
C5292 C5276 1.367 1_545 S
C5292 C5288 1.368 . S
C5292 C5291 1.523 . S
H5293 C5268 0.950 . S
H5294 C5270 0.950 . S
H5295 C5271 0.949 1_565 S
H5296 C5273 0.950 . S
H5297 C5275 0.950 . S
C5298 C5299 1.349 . S
C5298 C5300 1.327 . S
C5298 H5323 0.950 . S
C5299 C5298 1.349 . S
C5299 C5315 1.349 . S
C5300 C5298 1.327 . S
C5300 C5319 1.429 . S
C5300 H5324 0.950 . S
C5301 C5318 1.591 . S
C5301 C5320 1.351 1_556 S
C5301 H5325 0.948 . S
H5302 C5306 0.949 . S
C5303 C5304 1.349 . S
C5303 C5305 1.327 . S
C5303 H5326 0.950 . S
C5304 C5303 1.349 . S
C5304 C5316 1.349 . S
C5305 C5303 1.327 . S
C5305 C5321 1.429 . S
C5305 H5327 0.956 . S
C5306 H5302 0.949 . S
C5306 C5314 1.592 . S
C5306 C5322 1.351 1_554 S
H5307 C5315 0.950 . S
H5308 C5313 0.956 . S
H5309 C5314 0.949 . S
H5310 C5316 0.950 . S
H5311 C5317 0.950 . S
H5312 C5318 0.948 . S
C5313 H5308 0.956 . S
C5313 C5315 1.327 . S
C5313 C5319 1.429 . S
C5314 C5306 1.592 . S
C5314 H5309 0.949 . S
C5314 C5320 1.368 . S
C5315 C5299 1.349 . S
C5315 H5307 0.950 . S
C5315 C5313 1.327 . S
C5316 C5304 1.349 . S
C5316 H5310 0.950 . S
C5316 C5317 1.327 . S
C5317 H5311 0.950 . S
C5317 C5316 1.327 . S
C5317 C5321 1.429 . S
C5318 C5301 1.591 . S
C5318 H5312 0.948 . S
C5318 C5322 1.368 . S
C5319 C5300 1.429 . S
C5319 C5313 1.429 . S
C5319 C5320 1.523 . S
C5320 C5301 1.351 1_554 S
C5320 C5314 1.368 . S
C5320 C5319 1.523 . S
C5321 C5305 1.429 . S
C5321 C5317 1.429 . S
C5321 C5322 1.523 . S
C5322 C5306 1.351 1_556 S
C5322 C5318 1.368 . S
C5322 C5321 1.523 . S
H5323 C5298 0.950 . S
H5324 C5300 0.950 . S
H5325 C5301 0.948 . S
H5326 C5303 0.950 . S
H5327 C5305 0.956 . S
C5328 C5329 1.349 . S
C5328 C5330 1.327 . S
C5328 H5353 0.950 . S
C5329 C5328 1.349 . S
C5329 C5345 1.349 . S
C5330 C5328 1.327 . S
C5330 C5349 1.429 . S
C5330 H5354 0.950 . S
C5331 C5348 1.574 . S
C5331 C5350 1.368 . S
C5331 H5355 0.949 . S
H5332 C5336 0.949 . S
C5333 C5334 1.349 . S
C5333 C5335 1.327 . S
C5333 H5356 0.950 . S
C5334 C5333 1.349 . S
C5334 C5346 1.349 . S
C5335 C5333 1.327 . S
C5335 C5351 1.429 . S
C5335 H5357 0.950 . S
C5336 H5332 0.949 . S
C5336 C5344 1.574 . S
C5336 C5352 1.368 . S
H5337 C5345 0.950 . S
H5338 C5343 0.950 . S
H5339 C5344 0.949 . S
H5340 C5346 0.950 . S
H5341 C5347 0.950 . S
H5342 C5348 0.949 . S
C5343 H5338 0.950 . S
C5343 C5345 1.327 . S
C5343 C5349 1.429 . S
C5344 C5336 1.574 . S
C5344 H5339 0.949 . S
C5344 C5350 1.368 . S
C5345 C5329 1.349 . S
C5345 H5337 0.950 . S
C5345 C5343 1.327 . S
C5346 C5334 1.349 . S
C5346 H5340 0.950 . S
C5346 C5347 1.327 . S
C5347 H5341 0.950 . S
C5347 C5346 1.327 . S
C5347 C5351 1.429 . S
C5348 C5331 1.574 . S
C5348 H5342 0.949 . S
C5348 C5352 1.368 . S
C5349 C5330 1.429 . S
C5349 C5343 1.429 . S
C5349 C5350 1.523 . S
C5350 C5331 1.368 . S
C5350 C5344 1.368 . S
C5350 C5349 1.523 . S
C5351 C5335 1.429 . S
C5351 C5347 1.429 . S
C5351 C5352 1.523 . S
C5352 C5336 1.368 . S
C5352 C5348 1.368 . S
C5352 C5351 1.523 . S
H5353 C5328 0.950 . S
H5354 C5330 0.950 . S
H5355 C5331 0.949 . S
H5356 C5333 0.950 . S
H5357 C5335 0.950 . S
C5358 C5359 1.349 . S
C5358 C5360 1.327 . S
C5358 H5383 0.950 . S
C5359 C5358 1.349 . S
C5359 C5375 1.349 . S
C5360 C5358 1.327 . S
C5360 C5379 1.429 . S
C5360 H5384 0.950 . S
C5361 C5378 1.592 . S
C5361 C5380 1.351 1_554 S
C5361 H5385 0.949 . S
H5362 C5366 0.949 . S
C5363 C5364 1.349 . S
C5363 C5365 1.327 . S
C5363 H5386 0.950 . S
C5364 C5363 1.349 . S
C5364 C5376 1.349 . S
C5365 C5363 1.327 . S
C5365 C5381 1.429 . S
C5365 H5387 0.950 . S
C5366 H5362 0.949 . S
C5366 C5374 1.591 . S
C5366 C5382 1.351 1_556 S
H5367 C5375 0.950 . S
H5368 C5373 0.950 . S
H5369 C5374 0.949 . S
H5370 C5376 0.950 . S
H5371 C5377 0.950 . S
H5372 C5378 0.949 . S
C5373 H5368 0.950 . S
C5373 C5375 1.327 . S
C5373 C5379 1.429 . S
C5374 C5366 1.591 . S
C5374 H5369 0.949 . S
C5374 C5380 1.368 . S
C5375 C5359 1.349 . S
C5375 H5367 0.950 . S
C5375 C5373 1.327 . S
C5376 C5364 1.349 . S
C5376 H5370 0.950 . S
C5376 C5377 1.327 . S
C5377 H5371 0.950 . S
C5377 C5376 1.327 . S
C5377 C5381 1.429 . S
C5378 C5361 1.592 . S
C5378 H5372 0.949 . S
C5378 C5382 1.368 . S
C5379 C5360 1.429 . S
C5379 C5373 1.429 . S
C5379 C5380 1.523 . S
C5380 C5361 1.351 1_556 S
C5380 C5374 1.368 . S
C5380 C5379 1.523 . S
C5381 C5365 1.429 . S
C5381 C5377 1.429 . S
C5381 C5382 1.523 . S
C5382 C5366 1.351 1_554 S
C5382 C5378 1.368 . S
C5382 C5381 1.523 . S
H5383 C5358 0.950 . S
H5384 C5360 0.950 . S
H5385 C5361 0.949 . S
H5386 C5363 0.950 . S
H5387 C5365 0.950 . S
C5388 C5389 1.349 . S
C5388 C5390 1.327 . S
C5388 H5413 0.950 . S
C5389 C5388 1.349 . S
C5389 C5405 1.349 . S
C5390 C5388 1.327 . S
C5390 C5409 1.429 . S
C5390 H5414 0.950 . S
C5391 C5408 1.574 . S
C5391 C5410 1.368 . S
C5391 H5415 0.949 . S
H5392 C5396 0.949 . S
C5393 C5394 1.349 . S
C5393 C5395 1.327 . S
C5393 H5416 0.950 . S
C5394 C5393 1.349 . S
C5394 C5406 1.349 . S
C5395 C5393 1.327 . S
C5395 C5411 1.429 . S
C5395 H5417 0.950 . S
C5396 H5392 0.949 . S
C5396 C5404 1.574 . S
C5396 C5412 1.368 . S
H5397 C5405 0.950 . S
H5398 C5403 0.950 . S
H5399 C5404 0.949 . S
H5400 C5406 0.950 . S
H5401 C5407 0.950 . S
H5402 C5408 0.949 . S
C5403 H5398 0.950 . S
C5403 C5405 1.327 . S
C5403 C5409 1.429 . S
C5404 C5396 1.574 . S
C5404 H5399 0.949 . S
C5404 C5410 1.368 . S
C5405 C5389 1.349 . S
C5405 H5397 0.950 . S
C5405 C5403 1.327 . S
C5406 C5394 1.349 . S
C5406 H5400 0.950 . S
C5406 C5407 1.327 . S
C5407 H5401 0.950 . S
C5407 C5406 1.327 . S
C5407 C5411 1.429 . S
C5408 C5391 1.574 . S
C5408 H5402 0.949 . S
C5408 C5412 1.368 . S
C5409 C5390 1.429 . S
C5409 C5403 1.429 . S
C5409 C5410 1.523 . S
C5410 C5391 1.368 . S
C5410 C5404 1.368 . S
C5410 C5409 1.523 . S
C5411 C5395 1.429 . S
C5411 C5407 1.429 . S
C5411 C5412 1.523 . S
C5412 C5396 1.368 . S
C5412 C5408 1.368 . S
C5412 C5411 1.523 . S
H5413 C5388 0.950 . S
H5414 C5390 0.950 . S
H5415 C5391 0.949 . S
H5416 C5393 0.950 . S
H5417 C5395 0.950 . S
C5418 C5419 1.349 . S
C5418 C5420 1.327 . S
C5418 H5443 0.950 . S
C5419 C5418 1.349 . S
C5419 C5435 1.349 . S
C5420 C5418 1.327 . S
C5420 C5439 1.429 . S
C5420 H5444 0.950 . S
C5421 C5438 1.574 . S
C5421 C5440 1.368 . S
C5421 H5445 0.949 . S
H5422 C5426 0.949 . S
C5423 C5424 1.349 . S
C5423 C5425 1.327 . S
C5423 H5446 0.950 . S
C5424 C5423 1.349 . S
C5424 C5436 1.349 . S
C5425 C5423 1.327 . S
C5425 C5441 1.429 . S
C5425 H5447 0.950 . S
C5426 H5422 0.949 . S
C5426 C5434 1.574 . S
C5426 C5442 1.368 . S
H5427 C5435 0.950 . S
H5428 C5433 0.950 . S
H5429 C5434 0.949 . S
H5430 C5436 0.950 . S
H5431 C5437 0.950 . S
H5432 C5438 0.949 . S
C5433 H5428 0.950 . S
C5433 C5435 1.327 . S
C5433 C5439 1.429 . S
C5434 C5426 1.574 . S
C5434 H5429 0.949 . S
C5434 C5440 1.368 . S
C5435 C5419 1.349 . S
C5435 H5427 0.950 . S
C5435 C5433 1.327 . S
C5436 C5424 1.349 . S
C5436 H5430 0.950 . S
C5436 C5437 1.327 . S
C5437 H5431 0.950 . S
C5437 C5436 1.327 . S
C5437 C5441 1.429 . S
C5438 C5421 1.574 . S
C5438 H5432 0.949 . S
C5438 C5442 1.368 . S
C5439 C5420 1.429 . S
C5439 C5433 1.429 . S
C5439 C5440 1.523 . S
C5440 C5421 1.368 . S
C5440 C5434 1.368 . S
C5440 C5439 1.523 . S
C5441 C5425 1.429 . S
C5441 C5437 1.429 . S
C5441 C5442 1.523 . S
C5442 C5426 1.368 . S
C5442 C5438 1.368 . S
C5442 C5441 1.523 . S
H5443 C5418 0.950 . S
H5444 C5420 0.950 . S
H5445 C5421 0.949 . S
H5446 C5423 0.950 . S
H5447 C5425 0.950 . S
C5448 C5449 1.349 . S
C5448 C5450 1.327 . S
C5448 H5473 0.950 . S
C5449 C5448 1.349 . S
C5449 C5465 1.349 . S
C5450 C5448 1.327 . S
C5450 C5469 1.429 . S
C5450 H5474 0.950 . S
C5451 C5468 1.574 . S
C5451 C5470 1.368 . S
C5451 H5475 0.949 . S
H5452 C5456 0.949 . S
C5453 C5454 1.349 . S
C5453 C5455 1.327 . S
C5453 H5476 0.950 . S
C5454 C5453 1.349 . S
C5454 C5466 1.349 . S
C5455 C5453 1.327 . S
C5455 C5471 1.429 . S
C5455 H5477 0.950 . S
C5456 H5452 0.949 . S
C5456 C5464 1.574 . S
C5456 C5472 1.368 . S
H5457 C5465 0.950 . S
H5458 C5463 0.950 . S
H5459 C5464 0.949 . S
H5460 C5466 0.950 . S
H5461 C5467 0.950 . S
H5462 C5468 0.949 . S
C5463 H5458 0.950 . S
C5463 C5465 1.327 . S
C5463 C5469 1.429 . S
C5464 C5456 1.574 . S
C5464 H5459 0.949 . S
C5464 C5470 1.368 . S
C5465 C5449 1.349 . S
C5465 H5457 0.950 . S
C5465 C5463 1.327 . S
C5466 C5454 1.349 . S
C5466 H5460 0.950 . S
C5466 C5467 1.327 . S
C5467 H5461 0.950 . S
C5467 C5466 1.327 . S
C5467 C5471 1.429 . S
C5468 C5451 1.574 . S
C5468 H5462 0.949 . S
C5468 C5472 1.368 . S
C5469 C5450 1.429 . S
C5469 C5463 1.429 . S
C5469 C5470 1.523 . S
C5470 C5451 1.368 . S
C5470 C5464 1.368 . S
C5470 C5469 1.523 . S
C5471 C5455 1.429 . S
C5471 C5467 1.429 . S
C5471 C5472 1.523 . S
C5472 C5456 1.368 . S
C5472 C5468 1.368 . S
C5472 C5471 1.523 . S
H5473 C5448 0.950 . S
H5474 C5450 0.950 . S
H5475 C5451 0.949 . S
H5476 C5453 0.950 . S
H5477 C5455 0.950 . S
C5478 C5479 1.349 . S
C5478 C5480 1.327 . S
C5478 H5503 0.950 . S
C5479 C5478 1.349 . S
C5479 C5495 1.349 . S
C5480 C5478 1.327 . S
C5480 C5499 1.429 . S
C5480 H5504 0.950 . S
C5481 C5498 1.591 . S
C5481 C5500 1.351 1_554 S
C5481 H5505 0.949 . S
H5482 C5486 0.949 . S
C5483 C5484 1.349 . S
C5483 C5485 1.327 . S
C5483 H5506 0.950 . S
C5484 C5483 1.349 . S
C5484 C5496 1.349 . S
C5485 C5483 1.327 . S
C5485 C5501 1.429 . S
C5485 H5507 0.950 . S
C5486 H5482 0.949 . S
C5486 C5494 1.592 . S
C5486 C5502 1.351 1_556 S
H5487 C5495 0.950 . S
H5488 C5493 0.950 . S
H5489 C5494 0.949 . S
H5490 C5496 0.950 . S
H5491 C5497 0.950 . S
H5492 C5498 0.949 . S
C5493 H5488 0.950 . S
C5493 C5495 1.327 . S
C5493 C5499 1.429 . S
C5494 C5486 1.592 . S
C5494 H5489 0.949 . S
C5494 C5500 1.368 . S
C5495 C5479 1.349 . S
C5495 H5487 0.950 . S
C5495 C5493 1.327 . S
C5496 C5484 1.349 . S
C5496 H5490 0.950 . S
C5496 C5497 1.327 . S
C5497 H5491 0.950 . S
C5497 C5496 1.327 . S
C5497 C5501 1.429 . S
C5498 C5481 1.591 . S
C5498 H5492 0.949 . S
C5498 C5502 1.368 . S
C5499 C5480 1.429 . S
C5499 C5493 1.429 . S
C5499 C5500 1.523 . S
C5500 C5481 1.351 1_556 S
C5500 C5494 1.368 . S
C5500 C5499 1.523 . S
C5501 C5485 1.429 . S
C5501 C5497 1.429 . S
C5501 C5502 1.523 . S
C5502 C5486 1.351 1_554 S
C5502 C5498 1.368 . S
C5502 C5501 1.523 . S
H5503 C5478 0.950 . S
H5504 C5480 0.950 . S
H5505 C5481 0.949 . S
H5506 C5483 0.950 . S
H5507 C5485 0.950 . S
C5508 C5509 1.349 . S
C5508 C5510 1.327 . S
C5508 H5533 0.950 . S
C5509 C5508 1.349 . S
C5509 C5525 1.349 . S
C5510 C5508 1.327 . S
C5510 C5529 1.429 . S
C5510 H5534 0.950 . S
C5511 C5528 1.574 . S
C5511 C5530 1.368 . S
C5511 H5535 0.949 . S
H5512 C5516 0.949 . S
C5513 C5514 1.349 . S
C5513 C5515 1.327 . S
C5513 H5536 0.950 . S
C5514 C5513 1.349 . S
C5514 C5526 1.349 . S
C5515 C5513 1.327 . S
C5515 C5531 1.429 . S
C5515 H5537 0.950 . S
C5516 H5512 0.949 . S
C5516 C5524 1.574 . S
C5516 C5532 1.368 . S
H5517 C5525 0.950 . S
H5518 C5523 0.950 . S
H5519 C5524 0.949 . S
H5520 C5526 0.950 . S
H5521 C5527 0.950 . S
H5522 C5528 0.949 . S
C5523 H5518 0.950 . S
C5523 C5525 1.327 . S
C5523 C5529 1.429 . S
C5524 C5516 1.574 . S
C5524 H5519 0.949 . S
C5524 C5530 1.368 . S
C5525 C5509 1.349 . S
C5525 H5517 0.950 . S
C5525 C5523 1.327 . S
C5526 C5514 1.349 . S
C5526 H5520 0.950 . S
C5526 C5527 1.327 . S
C5527 H5521 0.950 . S
C5527 C5526 1.327 . S
C5527 C5531 1.429 . S
C5528 C5511 1.574 . S
C5528 H5522 0.949 . S
C5528 C5532 1.368 . S
C5529 C5510 1.429 . S
C5529 C5523 1.429 . S
C5529 C5530 1.523 . S
C5530 C5511 1.368 . S
C5530 C5524 1.368 . S
C5530 C5529 1.523 . S
C5531 C5515 1.429 . S
C5531 C5527 1.429 . S
C5531 C5532 1.523 . S
C5532 C5516 1.368 . S
C5532 C5528 1.368 . S
C5532 C5531 1.523 . S
H5533 C5508 0.950 . S
H5534 C5510 0.950 . S
H5535 C5511 0.949 . S
H5536 C5513 0.950 . S
H5537 C5515 0.950 . S
C5538 C5539 1.349 . S
C5538 C5540 1.327 . S
C5538 H5563 0.950 . S
C5539 C5538 1.349 . S
C5539 C5555 1.349 . S
C5540 C5538 1.327 . S
C5540 C5559 1.429 . S
C5540 H5564 0.950 . S
C5541 C5558 1.574 . S
C5541 C5560 1.368 . S
C5541 H5565 0.949 . S
H5542 C5546 0.949 . S
C5543 C5544 1.349 . S
C5543 C5545 1.327 . S
C5543 H5566 0.950 . S
C5544 C5543 1.349 . S
C5544 C5556 1.349 . S
C5545 C5543 1.327 . S
C5545 C5561 1.429 . S
C5545 H5567 0.950 . S
C5546 H5542 0.949 . S
C5546 C5554 1.574 . S
C5546 C5562 1.368 . S
H5547 C5555 0.950 . S
H5548 C5553 0.950 . S
H5549 C5554 0.949 . S
H5550 C5556 0.950 . S
H5551 C5557 0.950 . S
H5552 C5558 0.949 . S
C5553 H5548 0.950 . S
C5553 C5555 1.327 . S
C5553 C5559 1.429 . S
C5554 C5546 1.574 . S
C5554 H5549 0.949 . S
C5554 C5560 1.368 . S
C5555 C5539 1.349 . S
C5555 H5547 0.950 . S
C5555 C5553 1.327 . S
C5556 C5544 1.349 . S
C5556 H5550 0.950 . S
C5556 C5557 1.327 . S
C5557 H5551 0.950 . S
C5557 C5556 1.327 . S
C5557 C5561 1.429 . S
C5558 C5541 1.574 . S
C5558 H5552 0.949 . S
C5558 C5562 1.368 . S
C5559 C5540 1.429 . S
C5559 C5553 1.429 . S
C5559 C5560 1.523 . S
C5560 C5541 1.368 . S
C5560 C5554 1.368 . S
C5560 C5559 1.523 . S
C5561 C5545 1.429 . S
C5561 C5557 1.429 . S
C5561 C5562 1.523 . S
C5562 C5546 1.368 . S
C5562 C5558 1.368 . S
C5562 C5561 1.523 . S
H5563 C5538 0.950 . S
H5564 C5540 0.950 . S
H5565 C5541 0.949 . S
H5566 C5543 0.950 . S
H5567 C5545 0.950 . S
C2689 C69 0.702 . S
C2694 C2335 0.514 . S
C2719 C153 0.702 . S
C2724 C739 0.514 . S
C2749 C237 0.702 . S
C2754 C2167 0.514 . S
C2779 C907 0.514 . S
C2784 C321 0.702 . S
C2809 C405 0.702 . S
C2814 C2503 0.514 . S
C2839 C1243 0.514 . S
C2844 C489 0.702 . S
C2869 C2671 0.514 . S
C2874 C573 0.702 . S
C2899 C657 0.702 . S
C2904 C1075 0.514 . S
C2929 C730 0.702 . S
C2934 C1652 0.514 . S
C2959 C814 0.702 . S
C2964 C56 0.514 . S
C2989 C1484 0.514 . S
C2994 C898 0.702 . S
C3019 C224 0.514 . S
C3024 C982 0.702 . S
C3049 C1066 0.702 . S
C3054 C1820 0.514 . S
C3079 C1150 0.702 . S
C3084 C560 0.514 . S
C3109 C1234 0.702 . S
C3114 C1988 0.514 . S
C3139 C392 0.514 . S
C3144 C1318 0.702 . S
C3169 C991 0.514 . S
C3174 C1413 0.702 . S
C3199 C2083 0.514 . S
C3204 C1497 0.702 . S
C3229 C823 0.514 . S
C3234 C1581 0.702 . S
C3259 C1665 0.702 . S
C3264 C2251 0.514 . S
C3289 C1159 0.514 . S
C3294 C1749 0.702 . S
C3319 C2587 0.514 . S
C3324 C1833 0.702 . S
C3349 C1327 0.514 . S
C3354 C1917 0.702 . S
C3379 C2001 0.702 . S
C3384 C2419 0.514 . S
C3409 C2074 0.702 . S
C3414 C308 0.514 . S
C3439 C2158 0.702 . S
C3444 C1400 0.514 . S
C3469 C2242 0.702 . S
C3474 C140 0.514 . S
C3499 C2326 0.702 . S
C3504 C1568 0.514 . S
C3529 C476 0.514 . S
C3534 C2410 0.702 . S
C3559 C1904 0.514 . S
C3564 C2494 0.702 . S
C3589 C2578 0.702 . S
C3594 C644 0.514 . S
C3619 C2662 0.702 . S
C3624 C1736 0.514 . S
C3649 C74 3.066 . S
C3654 C1586 3.066 . S
C3679 C1670 3.066 . S
C3684 C158 3.066 . S
C3709 C242 3.066 . S
C3714 C1418 3.066 . S
C3739 C326 3.066 . S
C3744 C1502 3.066 . S
C3769 C1922 3.066 . S
C3774 C410 3.066 . S
C3799 C494 3.066 . S
C3804 C2006 3.066 . S
C3829 C1754 3.066 . S
C3834 C578 3.066 . S
C3859 C662 3.066 . S
C3864 C1838 3.066 . S
C3889 C2247 3.066 . S
C3894 C735 3.066 . S
C3919 C819 3.066 . S
C3924 C2331 3.066 . S
C3949 C903 3.066 . S
C3954 C2079 3.066 . S
C3979 C987 3.066 . S
C3984 C2163 3.066 . S
C4009 C2583 3.066 . S
C4014 C1071 3.066 . S
C4039 C2667 3.066 . S
C4044 C1155 3.066 . S
C4069 C1239 3.066 . S
C4074 C2415 3.066 . S
C4099 C1323 3.066 . S
C4104 C2499 3.066 . S
C4129 C67 2.645 . S
C4134 C2072 2.645 . S
C4159 C812 2.645 . S
C4164 C151 2.645 . S
C4189 C235 2.645 . S
C4194 C2240 2.645 . S
C4219 C319 2.645 . S
C4224 C980 2.645 . S
C4249 C2408 2.645 . S
C4254 C403 2.645 . S
C4279 C1148 2.645 . S
C4284 C487 2.645 . S
C4309 C571 2.645 . S
C4314 C2576 2.645 . S
C4339 C655 2.645 . S
C4344 C1316 2.645 . S
C4369 C1411 2.645 . S
C4374 C728 2.645 . S
C4399 C1579 2.645 . S
C4404 C896 2.645 . S
C4429 C1747 2.645 . S
C4434 C1064 2.645 . S
C4459 C1232 2.645 . S
C4464 C1915 2.645 . S
C4489 C1495 2.645 . S
C4494 C2156 2.645 . S
C4519 C1663 2.645 . S
C4524 C2324 2.645 . S
C4549 C2492 2.645 . S
C4554 C1831 2.645 . S
C4579 C2660 2.645 . S
C4584 C1999 2.645 . S
C4609 C63 4.324 . S
C4614 C483 4.324 1_545 S
C4639 C567 4.324 . S
C4644 C147 4.324 1_545 S
C4669 C651 4.324 1_565 S
C4674 C231 4.324 . S
C4699 C399 4.324 . S
C4704 C315 4.324 1_565 S
C4729 C746 4.324 . S
C4734 C1166 4.324 1_565 S
C4759 C830 4.324 1_565 S
C4764 C1250 4.324 . S
C4789 C1334 4.324 1_545 S
C4794 C914 4.324 . S
C4819 C998 4.324 1_545 S
C4824 C1082 4.324 . S
C4849 C1407 4.324 . S
C4854 C1827 4.324 . S
C4879 C1491 4.324 . S
C4884 C1911 4.324 . S
C4909 C1575 4.324 . S
C4914 C1995 4.324 . S
C4939 C1743 4.324 . S
C4944 C1659 4.324 . S
C4969 C2090 4.324 . S
C4974 C2510 4.324 . S
C4999 C2174 4.324 . S
C5004 C2594 4.324 . S
C5029 C2678 4.324 . S
C5034 C2258 4.324 . S
C5059 C2342 4.324 . S
C5064 C2426 4.324 . S
C5089 C58 1.095 . S
C5094 C394 1.095 . S
C5119 C142 1.095 . S
C5124 C478 1.095 . S
C5149 C562 1.095 . S
C5154 C226 1.095 . S
C5179 C646 1.095 . S
C5184 C310 1.095 . S
C5209 C741 1.095 . S
C5214 C1077 1.095 . S
C5239 C1161 1.095 . S
C5244 C825 1.095 . S
C5269 C1245 1.095 . S
C5274 C909 1.095 . S
C5299 C1329 1.095 . S
C5304 C993 1.095 . S
C5329 C1402 1.095 . S
C5334 C1738 1.095 . S
C5359 C1822 1.094 . S
C5364 C1486 1.094 . S
C5389 C1570 1.095 . S
C5394 C1906 1.095 . S
C5419 C1990 1.094 . S
C5424 C1654 1.094 . S
C5449 C2421 1.095 . S
C5454 C2085 1.095 . S
C5479 C2169 1.094 . S
C5484 C2505 1.094 . S
C5509 C2253 1.095 . S
C5514 C2589 1.095 . S
C5539 C2337 1.094 . S
C5544 C2673 1.094 . S
