# Generated by pormake.
# Topology snp, (6)-cn, num edge types: 1
# Building blocks:
#     Node 0, Type 0, BuildingBlock: KUMBUR_clean_sbu_1, # of connection points: 6
#     Node 1, Type 0, BuildingBlock: KUMBUR_clean_sbu_1, # of connection points: 6
#     Node 2, Type 0, BuildingBlock: KUMBUR_clean_sbu_1, # of connection points: 6
#     Node 3, Type 0, BuildingBlock: KUMBUR_clean_sbu_1, # of connection points: 6
#     Edge 4, Type (0, 0), BuildingBlock: MIFKUJ_clean_linker_0, # of connection points: 2
#     Edge 5, Type (0, 0), BuildingBlock: MIFKUJ_clean_linker_0, # of connection points: 2
#     Edge 6, Type (0, 0), BuildingBlock: MIFKUJ_clean_linker_0, # of connection points: 2
#     Edge 7, Type (0, 0), BuildingBlock: MIFKUJ_clean_linker_0, # of connection points: 2
#     Edge 8, Type (0, 0), BuildingBlock: MIFKUJ_clean_linker_0, # of connection points: 2
#     Edge 9, Type (0, 0), BuildingBlock: MIFKUJ_clean_linker_0, # of connection points: 2
#     Edge 10, Type (0, 0), BuildingBlock: MIFKUJ_clean_linker_0, # of connection points: 2
#     Edge 11, Type (0, 0), BuildingBlock: MIFKUJ_clean_linker_0, # of connection points: 2
#     Edge 12, Type (0, 0), BuildingBlock: MIFKUJ_clean_linker_0, # of connection points: 2
#     Edge 13, Type (0, 0), BuildingBlock: MIFKUJ_clean_linker_0, # of connection points: 2
#     Edge 14, Type (0, 0), BuildingBlock: MIFKUJ_clean_linker_0, # of connection points: 2
#     Edge 15, Type (0, 0), BuildingBlock: MIFKUJ_clean_linker_0, # of connection points: 2
# Relax obj value: 0.339
# Max RMSD: 0.293
# Mean RMSD: 0.251
data_MOF--net-snp--node1-KUMBUR_clean_sbu_1--edge1-MIFKUJ_clean_linker_0
_symmetry_space_group_name_H-M    P1
_symmetry_Int_Tables_number       1
_symmetry_cell_setting            triclinic
loop_
_symmetry_equiv_pos_as_xyz
'x, y, z'
_cell_length_a     31.48547
_cell_length_b     31.679296
_cell_length_c     40.185055
_cell_angle_alpha  96.672053
_cell_angle_beta   78.674984
_cell_angle_gamma 154.83342
loop_
_atom_site_label
_atom_site_type_symbol
_atom_site_fract_x
_atom_site_fract_y
_atom_site_fract_z
_atom_type_partial_charge
Tb0 Tb 0.82534 0.61073 0.03346 0.0
C1 C 0.38995 0.20175 0.12904 0.0
N2 N 0.46459 0.29682 0.13428 0.0
C3 C 0.33588 0.23675 0.15474 0.0
C4 C 0.2866 0.12265 0.13438 0.0
C5 C 0.43679 0.31254 0.14934 0.0
C6 C 0.26084 0.14201 0.14655 0.0
C7 C 0.33513 0.07905 0.12401 0.0
C8 C 0.41277 0.17882 0.12528 0.0
C9 C 0.23468 0.00279 0.12571 0.0
C10 C 0.21028 0.02436 0.13117 0.0
Tb11 Tb 0.62244 0.40762 0.13128 0.0
N12 N 0.50938 0.2529 0.12598 0.0
C13 C 0.35922 0.0576 0.12336 0.0
C14 C 0.53089 0.23058 0.12814 0.0
C15 C 0.45692 0.13325 0.12618 0.0
H16 H 0.49114 0.38239 0.15861 0.0
H17 H 0.47529 0.11667 0.12694 0.0
H18 H 0.85951 0.54886 0.98156 0.0
H19 H 0.13144 -0.00851 0.05514 0.0
H20 H 0.60565 0.28837 0.13082 0.0
H21 H 0.30171 0.98198 0.12224 0.0
H22 H 0.96108 0.8211 0.04346 0.0
H23 H 0.31561 0.25081 0.1662 0.0
H24 H 0.17421 0.92588 0.12458 0.0
H25 H 0.13112 0.96346 0.13461 0.0
H26 H 0.98022 0.59556 0.97235 0.0
H27 H 0.18197 0.0824 0.15205 0.0
H28 H 0.25414 0.04366 0.05616 0.0
N29 N 0.94392 0.66312 1.01236 0.0
C30 C 0.03231 0.74678 1.0236 0.0
C31 C -0.00465 0.63837 0.98682 0.0
C32 C 0.10377 0.77708 1.01842 0.0
C33 C 0.92848 0.61349 0.99154 0.0
C34 C 0.08235 0.7193 1.00088 0.0
N35 N -0.01535 0.77542 0.04043 0.0
C36 C 0.01414 0.84338 0.04395 0.0
C37 C 0.15209 0.90213 0.04438 0.0
C38 C 0.05447 0.80639 0.0376 0.0
C39 C 0.17912 0.96867 0.05146 0.0
C40 C 0.11048 0.93982 0.05058 0.0
H41 H 0.13468 0.73923 0.99662 0.0
H42 H 0.25053 0.88934 1.02686 0.0
H43 H 0.29517 0.00168 0.04819 0.0
O44 O 0.81802 0.66084 1.01066 0.0
O45 O 0.84644 0.66769 0.08106 0.0
O46 O 0.78711 0.57073 0.12271 0.0
O47 O 0.84092 0.62249 0.97942 0.0
O48 O 0.67234 0.49402 0.06045 0.0
O49 O 0.63073 0.47925 0.11662 0.0
O50 O 0.61653 0.36658 0.17316 0.0
O51 O 0.59636 0.34696 0.08297 0.0
O52 O 0.68744 0.4505 0.03007 0.0
O53 O 0.59312 0.41246 0.18204 0.0
O54 O 0.77236 0.51094 0.10975 0.0
O55 O 0.81531 0.53683 0.05075 0.0
C56 C 0.83057 0.64517 0.11322 0.0
C57 C 0.74762 0.59304 0.96073 0.0
C58 C 0.68613 0.58442 0.92306 0.0
C59 C 0.58998 0.47968 0.93106 0.0
C60 C 0.65074 0.48806 0.96686 0.0
C61 C 0.57313 0.43225 0.95223 0.0
C62 C 0.76614 0.64163 0.9378 0.0
C63 C 0.65341 0.50845 0.08489 0.0
C64 C 0.82538 0.64908 0.97969 0.0
C65 C 0.19552 0.86584 1.02978 0.0
C66 C 0.22083 0.92967 0.04204 0.0
C67 C 0.61736 0.36504 0.04885 0.0
C68 C 0.49277 0.28204 0.22298 0.0
C69 C 0.40147 0.1822 0.27948 0.0
C70 C 0.30837 0.10297 0.26931 0.0
C71 C 0.39742 0.20224 0.21491 0.0
C72 C 0.4946 0.27254 0.25608 0.0
C73 C 0.30649 0.11353 0.23747 0.0
C74 C 0.79616 0.50577 0.08137 0.0
C75 C 0.58779 0.37282 0.19646 0.0
H76 H 0.52811 0.43369 0.91987 0.0
H77 H 0.63388 0.44941 0.98445 0.0
H78 H 0.49906 0.35135 0.9573 0.0
H79 H 0.84127 0.72269 0.93192 0.0
H80 H 0.23612 0.03331 0.28658 0.0
H81 H 0.39238 0.20818 0.19122 0.0
H82 H 0.56703 0.33384 0.26342 0.0
H83 H 0.23408 0.05297 0.23031 0.0
Tb84 Tb 0.30434 0.52296 0.60383 0.0
C85 C 0.80239 0.96871 0.53459 0.0
N86 N 0.71504 0.91342 0.53703 0.0
C87 C 0.81575 0.06442 0.52144 0.0
C88 C 0.89977 0.07409 0.52545 0.0
C89 C 0.72088 0.96043 0.53118 0.0
C90 C 0.90556 0.12127 0.51786 0.0
C91 C 0.88336 0.97377 0.53716 0.0
C92 C 0.79478 0.91909 0.53878 0.0
C93 C 0.97997 0.07899 0.53002 0.0
C94 C -0.01172 0.12888 0.5234 0.0
Tb95 Tb 0.57336 0.74586 0.53549 0.0
N96 N 0.70124 0.81731 0.5424 0.0
C97 C 0.87254 0.92091 0.54126 0.0
C98 C 0.69085 0.76552 0.54514 0.0
C99 C 0.77572 0.81624 0.54535 0.0
H100 H 0.65393 0.91886 0.53096 0.0
H101 H 0.7668 0.77463 0.54759 0.0
H102 H 0.21788 0.34931 0.6235 0.0
H103 H 0.11744 0.49043 0.57284 0.0
H104 H 0.6182 0.68551 0.54623 0.0
H105 H 0.93867 0.96019 0.54022 0.0
H106 H 0.25924 0.57803 0.5858 0.0
H107 H 0.81948 0.10041 0.51581 0.0
H108 H 0.04887 0.12227 0.52848 0.0
H109 H 0.06351 0.20991 0.51681 0.0
H110 H 0.05933 0.16743 0.62427 0.0
H111 H 0.97887 0.20173 0.51002 0.0
H112 H 0.95436 0.30815 0.57076 0.0
N113 N 0.16847 0.35724 0.60144 0.0
C114 C 0.08743 0.30309 0.59287 0.0
C115 C 0.06671 0.20502 0.61542 0.0
C116 C -0.00883 0.19708 0.59746 0.0
C117 C 0.15795 0.30901 0.61366 0.0
C118 C 0.98263 0.14867 0.60767 0.0
N119 N 0.18649 0.45345 0.58416 0.0
C120 C 0.19239 0.50145 0.58188 0.0
C121 C 0.00975 0.2971 0.57998 0.0
C122 C 0.09656 0.35261 0.58408 0.0
C123 C 0.01916 0.34821 0.57418 0.0
C124 C 0.11091 0.45096 0.57537 0.0
H125 H 0.91052 0.06758 0.61078 0.0
H126 H 0.83005 0.06086 0.59848 0.0
H127 H 0.84644 0.14836 0.58305 0.0
O128 O 0.28939 0.56294 0.64105 0.0
O129 O 0.31086 0.54163 0.5494 0.0
O130 O 0.43059 0.60023 0.51903 0.0
O131 O 0.20199 0.42881 0.65144 0.0
O132 O 0.43991 0.68212 0.60419 0.0
O133 O 0.50559 0.74965 0.54976 0.0
O134 O 0.65656 0.78723 0.48911 0.0
O135 O 0.58259 0.74345 0.59069 0.0
O136 O 0.41647 0.59003 0.62528 0.0
O137 O 0.5875 0.78688 0.49013 0.0
O138 O 0.47931 0.60538 0.53875 0.0
O139 O 0.36051 0.50768 0.59132 0.0
C140 C 0.352 0.5549 0.52029 0.0
C141 C 0.1219 0.42416 0.67376 0.0
C142 C 0.03973 0.41617 0.70552 0.0
C143 C 0.95213 0.32785 0.69227 0.0
C144 C 0.02912 0.32967 0.66456 0.0
C145 C 0.94653 0.28421 0.67236 0.0
C146 C 0.12646 0.46668 0.69454 0.0
C147 C 0.47015 0.73473 0.58125 0.0
C148 C 0.2146 0.47985 0.66179 0.0
C149 C 0.90485 0.14221 0.59404 0.0
C150 C 0.91425 0.19202 0.58507 0.0
C151 C 0.51792 0.67691 0.62002 0.0
C152 C 0.73164 0.89656 0.44457 0.0
C153 C 0.84342 0.97778 0.38789 0.0
C154 C 0.8791 0.05155 0.38867 0.0
C155 C 0.76578 0.96919 0.44391 0.0
C156 C 0.77242 0.90266 0.41666 0.0
C157 C 0.84117 0.0477 0.41662 0.0
C158 C 0.41824 0.53619 0.56494 0.0
C159 C 0.64406 0.80661 0.47129 0.0
H160 H 0.88539 0.28892 0.69918 0.0
H161 H 0.01976 0.29039 0.65152 0.0
H162 H 0.87665 0.21308 0.66398 0.0
H163 H 0.19573 0.53588 0.70376 0.0
H164 H 0.93551 0.11161 0.36752 0.0
H165 H 0.73219 0.9639 0.46377 0.0
H166 H 0.74487 0.84584 0.41663 0.0
H167 H 0.86782 0.10393 0.41659 0.0
Tb168 Tb 0.00353 0.20929 0.11592 0.0
C169 C 0.49627 0.74647 0.20272 0.0
N170 N 0.58824 0.8426 0.2081 0.0
C171 C 0.50551 0.8257 0.24903 0.0
C172 C 0.40479 0.68615 0.22007 0.0
C173 C 0.59355 0.88097 0.23235 0.0
C174 C 0.41067 0.72808 0.24257 0.0
C175 C 0.39858 0.60189 0.18067 0.0
C176 C 0.49319 0.70557 0.18237 0.0
C177 C 0.30755 0.54226 0.19695 0.0
C178 C 0.31047 0.58462 0.21601 0.0
Tb179 Tb 0.72494 0.92162 0.1825 0.0
N180 N 0.58257 0.76482 0.16749 0.0
C181 C 0.39812 0.56034 0.1638 0.0
C182 C 0.58215 0.7238 0.15157 0.0
C183 C 0.4903 0.62165 0.14894 0.0
H184 H 0.66643 0.95508 0.23841 0.0
H185 H 0.49057 0.58971 0.13645 0.0
H186 H 0.18196 0.29026 0.08611 0.0
H187 H 0.0262 0.38822 0.17947 0.0
H188 H 0.65251 0.76857 0.14285 0.0
H189 H 0.32709 0.48106 0.1621 0.0
H190 H 0.93698 0.24201 0.16653 0.0
H191 H 0.51056 0.85751 0.26744 0.0
H192 H 0.23485 0.4633 0.19494 0.0
H193 H 0.23944 0.53744 0.22864 0.0
H194 H 0.36908 0.45585 0.06713 0.0
H195 H 0.34215 0.68428 0.25625 0.0
H196 H 0.21358 0.5599 0.15866 0.0
N197 N 0.17459 0.34889 0.10761 0.0
C198 C 0.22823 0.43301 0.11261 0.0
C199 C 0.33034 0.45034 0.07992 0.0
C200 C 0.33487 0.5293 0.09977 0.0
C201 C 0.22415 0.35624 0.09175 0.0
C202 C 0.38561 0.5371 0.08321 0.0
N203 N 0.07201 0.32911 0.14012 0.0
C204 C 0.01828 0.31606 0.1577 0.0
C205 C 0.22934 0.5087 0.13509 0.0
C206 C 0.17561 0.42281 0.12958 0.0
C207 C 0.17477 0.49575 0.15343 0.0
C208 C 0.06899 0.39898 0.16518 0.0
H209 H 0.46762 0.60982 0.0733 0.0
H210 H 0.4698 0.68926 0.09463 0.0
H211 H 0.37782 0.6713 0.12592 0.0
O212 O 0.00033 0.25675 0.08619 0.0
O213 O -0.00049 0.21759 0.1733 0.0
O214 O 0.8421 0.05746 0.2087 0.0
O215 O 0.09028 0.28002 0.06581 0.0
O216 O 0.84107 0.07947 0.12332 0.0
O217 O 0.72571 -0.0104 0.17275 0.0
O218 O 0.72991 0.86391 0.19563 0.0
O219 O 0.74672 0.9159 0.12554 0.0
O220 O 0.9033 0.07571 0.08968 0.0
O221 O 0.70236 0.89211 0.23483 0.0
O222 O 0.87553 0.05059 0.15558 0.0
O223 O 0.02119 0.15974 0.12555 0.0
C224 C 0.9372 0.15788 0.20399 0.0
C225 C 0.02817 0.26032 1.02625 0.0
C226 C -0.00672 0.26882 0.98172 0.0
C227 C 0.98369 0.22179 0.96138 0.0
C228 C 0.02224 0.21684 1.00508 0.0
C229 C -0.00178 0.19608 0.97308 0.0
C230 C 0.01387 0.28633 1.01438 0.0
C231 C 0.7881 0.0599 0.14671 0.0
C232 C 0.05875 0.28799 0.05922 0.0
C233 C 0.38782 0.61475 0.10421 0.0
C234 C 0.33541 0.60453 0.12206 0.0
C235 C 0.81316 0.97501 0.09485 0.0
C236 C 0.63104 0.76243 0.2497 0.0
C237 C 0.58974 0.68094 0.29622 0.0
C238 C 0.50245 0.58865 0.28454 0.0
C239 C 0.54057 0.66857 0.2395 0.0
C240 C 0.65209 0.76708 0.2793 0.0
C241 C 0.47665 0.58224 0.25687 0.0
C242 C 0.94144 0.0787 0.1475 0.0
C243 C 0.70868 0.85669 0.22843 0.0
H244 H 0.96919 0.20867 0.93587 0.0
H245 H 0.0356 0.19833 1.01323 0.0
H246 H -0.00691 0.16202 0.95699 0.0
H247 H 0.02153 0.3227 0.0302 0.0
H248 H 0.45461 0.52182 0.2968 0.0
H249 H 0.52027 0.66174 0.21773 0.0
H250 H 0.71944 0.83826 0.2881 0.0
H251 H 0.40884 0.51089 0.24811 0.0
Tb252 Tb 0.10324 0.89504 0.71431 0.0
C253 C 0.66254 0.43065 0.73444 0.0
N254 N 0.74228 0.49868 0.70678 0.0
C255 C 0.71169 0.39621 0.69687 0.0
C256 C 0.60781 0.34556 0.74538 0.0
C257 C 0.76039 0.47672 0.68628 0.0
C258 C 0.63684 0.33173 0.7271 0.0
C259 C 0.53215 0.35952 0.77264 0.0
C260 C 0.62555 0.43776 0.74826 0.0
C261 C 0.48224 0.27912 0.78564 0.0
C262 C 0.52045 0.27248 0.77217 0.0
Tb263 Tb 0.81734 0.62947 0.6927 0.0
N264 N 0.67364 0.51447 0.7343 0.0
C265 C 0.48751 0.36021 0.78103 0.0
C266 C 0.62739 0.51226 0.74055 0.0
C267 C 0.53347 0.4349 0.764 0.0
H268 H 0.81113 0.51965 0.66126 0.0
H269 H 0.49541 0.43148 0.76858 0.0
H270 H 0.15404 0.0243 0.76509 0.0
H271 H 0.3296 0.0152 0.59728 0.0
H272 H 0.6631 0.5701 0.72723 0.0
H273 H 0.4148 0.30043 0.79912 0.0
H274 H 0.18557 0.89534 0.64771 0.0
H275 H 0.72945 0.38196 0.68104 0.0
H276 H 0.41103 0.21888 0.80468 0.0
H277 H 0.47804 0.20715 0.78103 0.0
H278 H 0.27899 0.19431 0.76175 0.0
H279 H 0.59674 0.2674 0.73461 0.0
H280 H 0.45756 0.18678 0.58794 0.0
N281 N 0.21813 0.05121 0.71545 0.0
C282 C 0.29541 0.1195 0.68734 0.0
C283 C 0.28419 0.1741 0.74055 0.0
C284 C 0.36936 0.21776 0.68441 0.0
C285 C 0.21311 0.07773 0.74234 0.0
C286 C 0.36245 0.24434 0.71134 0.0
N287 N 0.23015 -0.00344 0.66596 0.0
C288 C 0.24105 0.9697 0.64375 0.0
C289 C 0.38544 0.16254 0.63346 0.0
C290 C 0.30268 0.09191 0.66203 0.0
C291 C 0.3943 0.13398 0.60984 0.0
C292 C 0.32247 0.03749 0.61516 0.0
H293 H 0.41858 0.31946 0.71016 0.0
H294 H 0.50385 0.36124 0.6521 0.0
H295 H 0.52043 0.31435 0.60757 0.0
O296 O 0.18091 0.90855 0.7167 0.0
O297 O 0.08816 0.89398 0.6626 0.0
O298 O 0.94878 0.732 0.64947 0.0
O299 O 0.17897 0.961 0.75488 0.0
O300 O -0.00659 0.74564 0.72083 0.0
O301 O 0.92455 0.67214 0.6754 0.0
O302 O 0.79075 0.64562 0.65691 0.0
O303 O 0.82421 0.66191 0.74685 0.0
O304 O -0.01195 0.81705 0.75951 0.0
O305 O 0.6909 0.50481 0.6701 0.0
O306 O 0.87473 0.74539 0.70049 0.0
O307 O 0.0301 0.89168 0.71954 0.0
C308 C 0.03439 0.82953 0.64043 0.0
C309 C 0.17261 0.88685 0.77249 0.0
C310 C 0.21799 0.87077 0.80268 0.0
C311 C 0.11424 0.77531 0.81914 0.0
C312 C 0.07049 0.79389 0.79029 0.0
C313 C 0.04125 0.73748 0.81298 0.0
C314 C 0.24532 0.92392 0.77818 0.0
C315 C 0.98068 0.70844 0.69452 0.0
C316 C 0.20283 0.94221 0.74598 0.0
C317 C 0.44855 0.28665 0.65505 0.0
C318 C 0.45732 0.25957 0.62971 0.0
C319 C 0.88714 0.73086 0.76781 0.0
C320 C 0.71649 0.54379 0.61374 0.0
C321 C 0.66696 0.51194 0.56066 0.0
C322 C 0.72434 0.52678 0.54406 0.0
C323 C 0.76937 0.55403 0.59708 0.0
C324 C 0.66396 0.52092 0.59577 0.0
C325 C 0.77372 0.54616 0.5623 0.0
C326 C 0.94795 0.83339 0.71132 0.0
C327 C 0.71387 0.55479 0.65005 0.0
H328 H 0.08979 0.7318 0.83814 0.0
H329 H 0.01313 0.76386 0.786 0.0
H330 H 0.96219 0.66515 0.82637 0.0
H331 H 0.32384 -0.00435 0.76411 0.0
H332 H 0.73329 0.52563 0.51679 0.0
H333 H 0.80768 0.56867 0.61097 0.0
H334 H 0.62018 0.50932 0.60948 0.0
H335 H 0.81661 0.55637 0.54931 0.0
H336 H 0.94707 0.05553 0.20874 0.0
H337 H 0.04173 0.07428 0.20733 0.0
H338 H 0.00029 -0.00118 0.10519 0.0
H339 H 0.9008 0.97282 0.10726 0.0
H340 H 0.1446 0.09013 0.10392 0.0
H341 H 0.16873 0.28453 0.15741 0.0
H342 H 0.16637 0.3315 0.20953 0.0
H343 H 0.25307 0.30758 0.2596 0.0
H344 H 0.257 0.26111 0.20725 0.0
H345 H 0.61031 0.49449 1.02639 0.0
H346 H 0.4746 0.42448 1.02965 0.0
H347 H 0.50353 0.49614 0.13241 0.0
H348 H 0.64365 0.57334 0.12757 0.0
H349 H 0.36482 0.4081 0.12887 0.0
H350 H 0.4176 0.295 0.08344 0.0
H351 H 0.44166 0.25466 0.03962 0.0
H352 H 0.24872 0.14067 0.98508 0.0
H353 H 0.22145 0.17817 1.02966 0.0
C354 C 0.95265 0.03648 0.1869 0.0
C355 C 0.92501 0.02118 0.15684 0.0
C356 C 0.0085 0.04913 0.18575 0.0
C357 C 0.04569 0.05935 0.15351 0.0
C358 C -0.01561 0.00536 0.12912 0.0
C359 C 0.92661 -0.00991 0.13009 0.0
C360 C 0.15834 0.15802 0.13884 0.0
C361 C 0.19359 0.15999 0.10997 0.0
C362 C 0.22469 0.25104 0.1462 0.0
C363 C 0.20879 0.2652 0.17886 0.0
C364 C 0.18413 0.28618 0.1798 0.0
C365 C 0.18236 0.31253 0.20945 0.0
C366 C 0.20557 0.31867 0.23837 0.0
C367 C 0.23196 0.29963 0.2375 0.0
C368 C 0.234 0.2733 0.20784 0.0
C369 C 0.59256 0.50179 0.04853 0.0
C370 C 0.62951 0.52977 0.07793 0.0
C371 C 0.51302 0.45963 0.05082 0.0
C372 C 0.46861 0.44102 0.08316 0.0
C373 C 0.52919 0.50014 0.10803 0.0
C374 C 0.61026 0.54477 0.1054 0.0
C375 C 0.35542 0.34186 0.0959 0.0
C376 C 0.31718 0.33877 0.12325 0.0
C377 C 0.29045 0.24947 0.0887 0.0
C378 C 0.31781 0.23959 0.0599 0.0
C379 C 0.38001 0.26093 0.06231 0.0
C380 C 0.39452 0.23889 0.03723 0.0
C381 C 0.34669 0.19491 1.00952 0.0
C382 C 0.2857 0.17464 1.00658 0.0
C383 C 0.27079 0.19638 0.03177 0.0
H384 H 0.35722 0.17691 0.99028 0.0
H385 H 0.20581 0.34078 0.2611 0.0
H386 H 0.05118 -0.01458 0.74545 0.0
H387 H 0.09292 0.09157 0.72601 0.0
H388 H 0.85167 0.86388 0.67033 0.0
H389 H 0.81238 0.75881 0.68806 0.0
H390 H 0.03294 -0.00762 0.63336 0.0
H391 H 0.90966 0.0085 0.69198 0.0
H392 H 0.85161 0.02071 0.73168 0.0
H393 H 0.15724 0.31555 0.74616 0.0
H394 H 0.21774 0.30578 0.70659 0.0
H395 H 0.2872 0.37486 0.53332 0.0
H396 H 0.19931 0.23426 0.55529 0.0
H397 H 0.42243 0.42196 0.61673 0.0
H398 H 0.5071 0.56098 0.5962 0.0
H399 H 0.23933 0.3054 0.64732 0.0
H400 H 0.34471 0.2679 0.57738 0.0
H401 H 0.37779 0.24727 0.52448 0.0
H402 H 0.06198 0.9706 0.5195 0.0
H403 H 0.02647 -0.00996 0.57171 0.0
C404 C 0.00489 0.95651 0.72985 0.0
C405 C 0.93607 0.86917 0.71517 0.0
C406 C 0.0266 0.01601 0.71965 0.0
C407 C 0.97877 -0.01302 0.69501 0.0
C408 C 0.8896 0.88706 0.68902 0.0
C409 C 0.8694 0.82835 0.69841 0.0
C410 C 0.04817 0.06441 0.66564 0.0
C411 C 0.07563 0.05965 0.63588 0.0
C412 C 0.10547 0.15263 0.66955 0.0
C413 C 0.06825 0.15535 0.69662 0.0
C414 C 0.9645 0.07517 0.70418 0.0
C415 C 0.93127 0.08227 0.72634 0.0
C416 C 0.00079 0.16903 0.74132 0.0
C417 C 0.10346 0.24841 0.73449 0.0
C418 C 0.13728 0.24203 0.71216 0.0
C419 C 0.32124 0.38756 0.54965 0.0
C420 C 0.40254 0.47697 0.56343 0.0
C421 C 0.27177 0.30765 0.56192 0.0
C422 C 0.30351 0.318 0.58819 0.0
C423 C 0.39713 0.41331 0.59657 0.0
C424 C 0.44501 0.49239 0.58503 0.0
C425 C 0.2228 0.23258 0.61544 0.0
C426 C 0.19485 0.23706 0.64496 0.0
C427 C 0.16094 0.14208 0.61014 0.0
C428 C 0.18313 0.13132 0.57838 0.0
C429 C 0.28247 0.20358 0.56473 0.0
C430 C 0.30184 0.19237 0.53476 0.0
C431 C 0.22258 0.1087 0.51848 0.0
C432 C 0.1234 0.03557 0.53213 0.0
C433 C 0.10368 0.0469 0.56182 0.0
H434 H 0.23815 0.10062 0.49525 0.0
H435 H 0.97497 0.17457 0.75834 0.0
H436 H 0.72858 0.07864 0.19128 0.0
H437 H 0.72784 0.1514 0.17745 0.0
H438 H 0.81664 0.18603 0.06952 0.0
H439 H 0.81731 0.11361 0.08325 0.0
H440 H 0.92803 0.35133 0.08248 0.0
H441 H 0.57155 0.00386 0.10776 0.0
H442 H 0.40848 0.83444 0.14147 0.0
H443 H 0.42396 0.94674 0.22312 0.0
H444 H 0.58805 0.11728 0.19011 0.0
H445 H 0.79346 0.43512 0.03215 0.0
H446 H 0.79061 0.35671 0.04001 0.0
H447 H 0.8043 0.40127 0.14606 0.0
H448 H 0.81209 0.48351 0.13817 0.0
H449 H 0.63784 0.19252 0.13007 0.0
H450 H -0.00028 0.54449 0.10082 0.0
H451 H 0.15346 0.7066 0.06276 0.0
H452 H 0.12194 0.57876 0.98391 0.0
H453 H 0.96671 0.41495 1.02138 0.0
C454 C 0.74663 0.10065 0.16462 0.0
C455 C 0.77551 0.09266 0.13847 0.0
C456 C 0.74644 0.14248 0.15667 0.0
C457 C 0.77253 0.17482 0.12234 0.0
C458 C 0.79761 0.16323 0.0962 0.0
C459 C 0.7983 0.122 0.10414 0.0
C460 C 0.77505 0.22184 0.11365 0.0
C461 C 0.8639 0.31575 0.09256 0.0
C462 C 0.69183 0.17619 0.12676 0.0
C463 C 0.59264 0.07358 0.14659 0.0
C464 C 0.54056 -0.00741 0.13301 0.0
C465 C 0.4479 0.89633 0.15197 0.0
C466 C 0.40602 0.87989 0.18445 0.0
C467 C 0.45658 0.95964 0.19798 0.0
C468 C 0.54939 0.05611 0.17913 0.0
C469 C 0.79846 0.43051 0.0569 0.0
C470 C 0.8034 0.46608 0.08448 0.0
C471 C 0.79566 0.38465 0.06144 0.0
C472 C 0.79652 0.37257 0.09371 0.0
C473 C 0.80284 0.40919 0.12103 0.0
C474 C 0.80789 0.45677 0.11636 0.0
C475 C 0.79088 0.32188 0.09942 0.0
C476 C 0.7015 0.22744 0.11991 0.0
C477 C 0.87304 0.36648 0.08537 0.0
C478 C 0.96951 0.46637 0.06355 0.0
C479 C 0.0245 0.55029 0.0752 0.0
C480 C 0.11231 0.64271 0.05379 0.0
C481 C 0.14703 0.65273 1.02084 0.0
C482 C 0.09466 0.57065 1.0094 0.0
C483 C 0.00669 0.47798 0.0307 0.0
H484 H 0.2148 0.72423 1.00425 0.0
H485 H 0.3343 0.80532 0.19911 0.0
H486 H 0.44079 0.76836 0.53947 0.0
H487 H 0.36514 0.77184 0.558 0.0
H488 H 0.37568 0.76695 0.66274 0.0
H489 H 0.44563 0.75789 0.64449 0.0
H490 H 0.20312 0.64266 0.66534 0.0
H491 H 0.53688 0.98199 0.60659 0.0
H492 H 0.68498 0.11504 0.55796 0.0
H493 H 0.49275 -0.01064 0.49693 0.0
H494 H 0.34324 0.85476 0.54503 0.0
H495 H 0.07085 0.74003 0.73249 0.0
H496 H 0.17037 0.76338 0.71261 0.0
H497 H 0.10435 0.70498 0.61228 0.0
H498 H 0.01197 0.68993 0.63142 0.0
H499 H 0.30488 0.86276 0.60797 0.0
H500 H 0.97169 0.49799 0.66303 0.0
H501 H 0.82361 0.36949 0.71223 0.0
H502 H 0.02662 0.56296 0.78209 0.0
H503 H 0.17569 0.69106 0.73321 0.0
C504 C 0.42921 0.77048 0.5663 0.0
C505 C 0.44735 0.76074 0.59056 0.0
C506 C 0.38561 0.77234 0.57701 0.0
C507 C 0.36394 0.76961 0.612 0.0
C508 C 0.38956 0.76752 0.63573 0.0
C509 C 0.43048 0.76308 0.62519 0.0
C510 C 0.31052 0.7641 0.6244 0.0
C511 C 0.22744 0.6926 0.65299 0.0
C512 C 0.3388 0.82662 0.60819 0.0
C513 C 0.42873 0.90779 0.57931 0.0
C514 C 0.52611 0.98239 0.58272 0.0
C515 C 0.6103 0.05811 0.55526 0.0
C516 C 0.59823 0.06051 0.52435 0.0
C517 C 0.50197 -0.01265 0.52087 0.0
C518 C 0.41751 0.91138 0.54822 0.0
C519 C 0.07948 0.73451 0.70608 0.0
C520 C 0.0359 0.7162 0.68348 0.0
C521 C 0.13453 0.7455 0.69482 0.0
C522 C 0.14386 0.73436 0.66097 0.0
C523 C 0.09863 0.71408 0.63849 0.0
C524 C 0.04499 0.70468 0.64961 0.0
C525 C 0.2003 0.74348 0.64894 0.0
C526 C 0.28255 0.81443 0.62035 0.0
C527 C 0.17287 0.68212 0.66537 0.0
C528 C 0.08427 0.60336 0.69462 0.0
C529 C -0.01556 0.51234 0.68892 0.0
C530 C 0.9005 0.43964 0.7167 0.0
C531 C 0.91574 0.45786 0.75027 0.0
C532 C 0.01494 0.54868 0.75609 0.0
C533 C 0.09914 0.6209 0.72837 0.0
H534 H 0.85073 0.40177 0.77176 0.0
H535 H 0.66349 0.11917 0.50312 0.0
H536 H 0.89819 0.94452 0.38413 0.0
H537 H 0.9339 0.92271 0.33374 0.0
H538 H 0.90663 -0.00448 0.26961 0.0
H539 H 0.85341 -0.00109 0.32092 0.0
H540 H 0.79438 0.8333 0.2568 0.0
H541 H 0.13839 0.14673 0.26925 0.0
H542 H 0.27934 0.27229 0.2999 0.0
H543 H 0.20724 0.07988 0.32069 0.0
H544 H 0.06662 0.95373 0.28972 0.0
H545 H 0.88252 0.77415 0.10623 0.0
H546 H 0.92169 0.86322 0.14967 0.0
H547 H 0.88771 0.74075 0.22219 0.0
H548 H 0.84843 0.65081 0.1786 0.0
H549 H 0.05402 0.94954 0.22638 0.0
H550 H 0.69474 0.6257 0.23634 0.0
H551 H 0.52496 0.47368 0.22176 0.0
H552 H 0.59753 0.65298 0.17449 0.0
H553 H 0.7674 0.80611 0.18916 0.0
C554 C 0.90016 0.95561 0.3593 0.0
C555 C 0.87628 0.97631 0.35654 0.0
C556 C 0.9227 0.94554 0.33041 0.0
C557 C 0.92544 0.95968 0.29765 0.0
C558 C 0.90654 -0.01447 0.29452 0.0
C559 C 0.8789 -0.00961 0.32376 0.0
C560 C 0.93162 0.93198 0.26777 0.0
C561 C 0.85259 0.86074 0.24989 0.0
C562 C 0.0053 0.96429 0.25946 0.0
C563 C 0.09214 0.04108 0.27702 0.0
C564 C 0.15324 0.13174 0.28012 0.0
C565 C 0.23296 0.20285 0.29755 0.0
C566 C 0.25237 0.18406 0.31212 0.0
C567 C 0.19243 0.09441 0.3091 0.0
C568 C 0.11299 0.0233 0.29146 0.0
C569 C 0.88541 0.76755 0.13113 0.0
C570 C 0.86221 0.70517 0.13894 0.0
C571 C 0.90779 0.81861 0.15596 0.0
C572 C 0.90773 0.80866 0.18909 0.0
C573 C 0.88898 0.75001 0.19665 0.0
C574 C 0.86569 0.69805 0.17183 0.0
C575 C 0.91522 0.84997 0.21655 0.0
C576 C -0.00324 0.92358 0.23352 0.0
C577 C 0.84115 0.81668 0.22554 0.0
C578 C 0.74408 0.72731 0.21343 0.0
C579 C 0.67508 0.63285 0.2223 0.0
C580 C 0.5785 0.54643 0.21436 0.0
C581 C 0.55021 0.55367 0.19749 0.0
C582 C 0.61939 0.64757 0.18776 0.0
C583 C 0.7157 0.73417 0.19597 0.0
H584 H 0.47444 0.48642 0.19216 0.0
H585 H 0.31366 0.23882 0.32582 0.0
H586 H 0.19012 0.60433 0.72294 0.0
H587 H 0.19412 0.63829 0.78139 0.0
H588 H 0.8804 0.32094 0.81535 0.0
H589 H 0.87447 0.28747 0.7579 0.0
H590 H 0.91433 0.40325 0.86201 0.0
H591 H 0.09938 0.44039 0.79921 0.0
H592 H 0.22832 0.51706 0.75272 0.0
H593 H 0.4639 0.80796 0.78157 0.0
H594 H 0.33587 0.73263 0.82821 0.0
H595 H 0.85736 0.17362 0.9467 0.0
H596 H 0.87656 0.25064 0.91296 0.0
H597 H 0.14701 0.53126 0.94998 0.0
H598 H 0.12905 0.45478 0.98342 0.0
H599 H 0.17978 0.54407 0.88115 0.0
H600 H 0.93725 0.40833 0.96732 0.0
H601 H 0.77668 0.26811 1.01135 0.0
H602 H 0.60479 0.09196 0.93248 0.0
H603 H 0.76436 0.2293 0.8882 0.0
C604 C 0.12092 0.54232 0.7427 0.0
C605 C 0.03334 0.44276 0.73586 0.0
C606 C 0.12324 0.56185 0.77615 0.0
C607 C 0.03949 0.48174 0.8032 0.0
C608 C 0.94708 0.38451 0.79526 0.0
C609 C 0.94392 0.36522 0.76192 0.0
C610 C 0.05322 0.49198 0.83873 0.0
C611 C 0.97331 0.43555 0.86644 0.0
C612 C 0.13098 0.5352 0.84481 0.0
C613 C 0.20822 0.58136 0.81672 0.0
C614 C 0.17871 0.52076 0.79549 0.0
C615 C 0.2515 0.56389 0.76917 0.0
C616 C 0.35416 0.6674 0.76408 0.0
C617 C 0.38426 0.72787 0.78544 0.0
C618 C 0.31167 0.68507 0.81182 0.0
C619 C 0.9193 0.25096 0.94831 0.0
C620 C -0.00788 0.3085 0.96735 0.0
C621 C 0.92956 0.29465 0.92942 0.0
C622 C 0.01228 0.39633 0.92949 0.0
C623 C 0.08159 0.45228 0.95018 0.0
C624 C 0.07119 0.40845 0.9692 0.0
C625 C 0.03552 0.44673 0.90313 0.0
C626 C 0.12384 0.51662 0.87748 0.0
C627 C 0.96068 0.40821 0.89826 0.0
C628 C 0.8635 0.32957 0.92442 0.0
C629 C 0.86525 0.33946 0.95945 0.0
C630 C 0.77438 0.26016 0.98446 0.0
C631 C 0.6806 0.17073 0.97473 0.0
C632 C 0.67757 0.16101 0.93999 0.0
C633 C 0.7684 0.23986 0.9149 0.0
H634 H 0.61023 0.1095 0.9941 0.0
H635 H 0.41043 0.70068 0.74368 0.0
H636 H 0.63195 0.56741 0.57207 0.0
H637 H 0.58264 0.56796 0.53344 0.0
H638 H 0.54421 0.4232 0.46424 0.0
H639 H 0.58751 0.41637 0.50373 0.0
H640 H 0.71958 0.68461 0.47651 0.0
H641 H 0.45607 0.35661 0.41236 0.0
H642 H 0.2862 0.17156 0.41815 0.0
H643 H 0.15646 0.15679 0.49526 0.0
H644 H 0.32586 0.34216 0.48926 0.0
H645 H 0.66611 0.67014 0.29461 0.0
H646 H 0.68629 0.65221 0.34362 0.0
H647 H 0.58144 0.67192 0.41171 0.0
H648 H 0.56822 0.69716 0.36236 0.0
H649 H 0.47336 0.47217 0.40147 0.0
H650 H 0.77327 0.82098 0.46852 0.0
H651 H 0.95679 0.00109 0.46289 0.0
H652 H 0.03201 0.9723 0.37673 0.0
H653 H 0.84859 0.79163 0.38185 0.0
C654 C 0.60787 0.53048 0.54969 0.0
C655 C 0.61648 0.49384 0.54084 0.0
C656 C 0.57845 0.53008 0.52766 0.0
C657 C 0.55835 0.49458 0.49612 0.0
C658 C 0.55729 0.44935 0.48866 0.0
C659 C 0.58526 0.44829 0.51096 0.0
C660 C 0.57128 0.53313 0.4679 0.0
C661 C 0.66411 0.63766 0.4607 0.0
C662 C 0.50248 0.47278 0.44591 0.0
C663 C 0.40361 0.36232 0.45147 0.0
C664 C 0.39147 0.31359 0.43092 0.0
C665 C 0.29531 0.2089 0.43394 0.0
C666 C 0.21071 0.15249 0.4571 0.0
C667 C 0.22222 0.20059 0.47751 0.0
C668 C 0.31834 0.30529 0.47456 0.0
C669 C 0.65256 0.67585 0.31987 0.0
C670 C 0.61753 0.68683 0.32485 0.0
C671 C 0.66433 0.66589 0.34778 0.0
C672 C 0.63909 0.66461 0.38113 0.0
C673 C 0.6062 0.67782 0.38601 0.0
C674 C 0.5973 0.69079 0.35796 0.0
C675 C 0.62105 0.62363 0.41064 0.0
C676 C 0.52737 0.51869 0.41791 0.0
C677 C 0.69101 0.68387 0.43212 0.0
C678 C 0.79699 0.79411 0.42454 0.0
C679 C 0.8288 0.85377 0.44782 0.0
C680 C 0.93278 0.95538 0.44509 0.0
C681 C 0.00581 -0.00221 0.41946 0.0
C682 C 0.97508 0.93879 0.39659 0.0
C683 C 0.87105 0.83713 0.39911 0.0
H684 H 0.08608 0.07644 0.41712 0.0
H685 H 0.13629 0.07146 0.45929 0.0
H686 H 0.21516 0.78972 0.82689 0.0
H687 H 0.31076 0.85852 0.86934 0.0
H688 H 0.49833 0.136 0.85013 0.0
H689 H 0.40418 0.06925 0.80892 0.0
H690 H 0.58305 0.14194 0.88188 0.0
H691 H 0.29279 0.0053 0.91916 0.0
H692 H 0.1275 0.88007 0.90889 0.0
H693 H 0.02393 0.65877 0.90717 0.0
H694 H 0.18653 0.78108 0.91943 0.0
H695 H 0.5655 0.32596 0.98815 0.0
H696 H 0.51949 0.2285 0.94821 0.0
H697 H 0.50818 0.12987 1.0226 0.0
H698 H 0.56672 0.23795 0.06132 0.0
H699 H 0.32952 -0.00191 0.97306 0.0
H700 H 0.66812 0.25057 0.98109 0.0
H701 H 0.8528 0.42335 0.97646 0.0
H702 H 0.8924 0.47915 0.87077 0.0
H703 H 0.70675 0.3087 0.87527 0.0
C704 C 0.27928 0.86674 0.83081 0.0
C705 C 0.29832 0.92191 0.81578 0.0
C706 C 0.33457 0.90625 0.85475 0.0
C707 C 0.4082 0.00042 0.86373 0.0
C708 C 0.44052 0.06239 0.84382 0.0
C709 C 0.38562 0.02333 0.82014 0.0
C710 C 0.42628 0.02198 0.89884 0.0
C711 C 0.52708 0.1083 0.90284 0.0
C712 C 0.35307 0.97952 0.92524 0.0
C713 C 0.25242 0.90275 0.91968 0.0
C714 C 0.23427 0.92952 0.91696 0.0
C715 C 0.1409 0.85895 0.911 0.0
C716 C 0.0652 0.76142 0.90746 0.0
C717 C 0.08267 0.73428 0.91004 0.0
C718 C 0.17519 0.80403 0.9167 0.0
C719 C 0.554 0.2844 0.99614 0.0
C720 C 0.56848 0.28895 1.02833 0.0
C721 C 0.52799 0.2289 0.97318 0.0
C722 C 0.51414 0.1752 0.98213 0.0
C723 C 0.52122 0.17322 1.01506 0.0
C724 C 0.55114 0.23217 0.03767 0.0
C725 C 0.48561 0.11665 0.95713 0.0
C726 C 0.38331 0.02554 0.95451 0.0
C727 C 0.55968 0.16022 0.93073 0.0
C728 C 0.67183 0.26532 0.92868 0.0
C729 C 0.71493 0.29996 0.95715 0.0
C730 C 0.82037 0.39794 0.9545 0.0
C731 C 0.88439 0.46184 0.92326 0.0
C732 C 0.84278 0.42919 0.89491 0.0
C733 C 0.7372 0.33188 0.89759 0.0
H734 H 0.96633 0.53645 0.92096 0.0
H735 H -0.00686 0.70693 0.90262 0.0
H736 H 0.72296 0.81446 0.08589 0.0
H737 H 0.70067 0.75374 0.03252 0.0
H738 H 0.83096 0.97245 0.97588 0.0
H739 H 0.84141 0.0243 0.03013 0.0
H740 H 0.7197 0.83726 0.93868 0.0
H741 H 0.97731 0.00573 0.98359 0.0
H742 H 0.04555 0.04049 1.02979 0.0
H743 H 0.81601 0.73904 0.04018 0.0
H744 H 0.74668 0.70249 0.9938 0.0
H745 H 0.01011 0.9011 0.80286 0.0
H746 H 0.96792 0.9287 0.85312 0.0
H747 H 0.5701 0.51237 0.85143 0.0
H748 H 0.67259 0.54596 0.80216 0.0
H749 H 0.84484 0.80071 0.92466 0.0
H750 H 0.55872 0.66068 0.8849 0.0
H751 H 0.52111 0.68156 0.8441 0.0
H752 H 0.86452 0.02604 0.79798 0.0
H753 H 0.92252 -0.00909 0.85876 0.0
C754 C 0.74452 0.84819 0.06237 0.0
C755 C 0.78746 0.92749 0.06275 0.0
C756 C 0.73375 0.81457 0.03123 0.0
C757 C 0.76835 0.86072 0.99887 0.0
C758 C 0.8053 0.9357 0.99963 0.0
C759 C 0.81367 0.96743 0.03086 0.0
C760 C 0.77221 0.83571 0.96474 0.0
C761 C 0.74329 0.82534 0.9363 0.0
C762 C 0.81108 0.82808 0.95932 0.0
C763 C 0.85683 0.85144 0.98532 0.0
C764 C 0.94212 0.9472 0.99551 0.0
C765 C 0.98106 0.96723 1.02166 0.0
C766 C 0.93581 0.89229 0.03767 0.0
C767 C 0.85175 0.79728 1.02742 0.0
C768 C 0.81282 0.77694 1.00111 0.0
C769 C 0.93044 0.83526 0.81425 0.0
C770 C 0.84519 0.72449 0.79885 0.0
C771 C 0.90474 0.85458 0.84583 0.0
C772 C 0.78064 0.75729 0.86755 0.0
C773 C 0.65299 0.59043 0.84384 0.0
C774 C 0.7161 0.60987 0.81241 0.0
C775 C 0.77789 0.78699 0.90039 0.0
C776 C 0.81284 0.80388 0.92794 0.0
C777 C 0.74796 0.80372 0.90426 0.0
C778 C 0.74082 0.81918 0.8742 0.0
C779 C 0.62558 0.73241 0.86862 0.0
C780 C 0.60094 0.74686 0.84328 0.0
C781 C 0.68618 0.85178 0.81761 0.0
C782 C 0.81456 0.96109 0.81426 0.0
C783 C 0.85143 0.93815 0.85298 0.0
H784 H 0.65853 0.84953 0.80327 0.0
H785 H 0.96561 0.90774 0.0581 0.0
H786 H 0.30505 0.02949 0.30923 0.0
H787 H 0.25387 0.97721 0.3706 0.0
H788 H 0.42765 0.24394 0.39252 0.0
H789 H 0.47778 0.29584 0.33077 0.0
H790 H 0.44141 0.1897 0.43328 0.0
H791 H 0.17646 0.02398 0.39381 0.0
H792 H 0.04864 0.91408 0.35843 0.0
H793 H 0.88878 0.66553 0.40173 0.0
H794 H 0.01801 0.77437 0.43611 0.0
H795 H 0.19876 0.02202 0.6102 0.0
H796 H 0.28257 0.09248 0.54968 0.0
H797 H 0.06001 0.80256 0.52479 0.0
H798 H 0.98301 0.73448 0.58572 0.0
H799 H 0.07025 0.86967 0.4849 0.0
H800 H 0.31829 0.00643 0.51268 0.0
H801 H 0.45529 0.10049 0.53635 0.0
H802 H 0.64133 0.37448 0.51027 0.0
H803 H 0.5054 0.28184 0.48618 0.0
C804 C 0.33434 0.07822 0.32708 0.0
C805 C 0.3956 0.16691 0.31516 0.0
C806 C 0.30412 0.04769 0.36219 0.0
C807 C 0.33428 0.105 0.3863 0.0
C808 C 0.40205 0.19763 0.37441 0.0
C809 C 0.43191 0.22804 0.33912 0.0
C810 C 0.29238 0.06638 0.42376 0.0
C811 C 0.3604 0.12068 0.4448 0.0
C812 C 0.18582 0.97315 0.43834 0.0
C813 C 0.10795 0.90807 0.4175 0.0
C814 C 0.11488 0.94632 0.39563 0.0
C815 C 0.04204 0.88412 0.37572 0.0
C816 C 0.9605 0.78304 0.378 0.0
C817 C 0.95194 0.74389 0.4 0.0
C818 C 0.02527 0.80593 0.41959 0.0
C819 C 0.16832 0.97331 0.59199 0.0
C820 C 0.08269 0.87164 0.60312 0.0
C821 C 0.21613 0.01382 0.55715 0.0
C822 C 0.17684 0.95288 0.53221 0.0
C823 C 0.0915 0.8514 0.54327 0.0
C824 C 0.04618 0.81183 0.57824 0.0
C825 C 0.21936 -0.00744 0.49468 0.0
C826 C 0.15141 0.93894 0.47361 0.0
C827 C 0.32542 0.08376 0.47968 0.0
C828 C 0.40103 0.13708 0.49819 0.0
C829 C 0.3875 0.08641 0.51264 0.0
C830 C 0.46554 0.13965 0.52568 0.0
C831 C 0.55715 0.24352 0.52469 0.0
C832 C 0.57036 0.29412 0.51106 0.0
C833 C 0.49294 0.24134 0.4977 0.0
H834 H 0.61753 0.28463 0.53475 0.0
H835 H 0.90404 0.7351 0.36267 0.0
H836 H 0.65456 0.73218 0.62086 0.0
H837 H 0.68768 0.73028 0.6706 0.0
H838 H 0.49793 0.65636 0.73896 0.0
H839 H 0.46029 0.65297 0.68931 0.0
H840 H 0.7013 0.81857 0.7589 0.0
H841 H 0.36986 0.42327 0.76486 0.0
H842 H 0.26223 0.28317 0.73194 0.0
H843 H 0.52898 0.4795 0.65548 0.0
H844 H 0.63827 0.61906 0.68886 0.0
H845 H 0.55829 0.54305 0.92861 0.0
H846 H 0.60444 0.60096 0.88692 0.0
H847 H 0.81783 0.77229 0.78765 0.0
H848 H 0.8405 0.7145 0.85906 0.0
H849 H 0.56808 0.55786 0.78293 0.0
H850 H 0.89565 0.94209 0.76995 0.0
H851 H 0.04942 0.12693 0.78693 0.0
H852 H 0.87123 0.05569 0.8869 0.0
H853 H 0.681 0.85334 0.88731 0.0
C854 C 0.62113 0.71733 0.64635 0.0
C855 C 0.55571 0.69461 0.65016 0.0
C856 C 0.63983 0.71556 0.67535 0.0
C857 C 0.59645 0.69354 0.70977 0.0
C858 C 0.53371 0.67399 0.71345 0.0
C859 C 0.5125 0.67271 0.68457 0.0
C860 C 0.61413 0.68889 0.74153 0.0
C861 C 0.66772 0.75848 0.76522 0.0
C862 C 0.57619 0.61437 0.74941 0.0
C863 C 0.51177 0.53232 0.72867 0.0
C864 C 0.4053 0.43658 0.74085 0.0
C865 C 0.34409 0.35713 0.72225 0.0
C866 C 0.38845 0.37305 0.69118 0.0
C867 C 0.49452 0.46774 0.6792 0.0
C868 C 0.55619 0.54693 0.69804 0.0
C869 C 0.61237 0.59078 0.90089 0.0
C870 C 0.7003 0.62821 0.89686 0.0
C871 C 0.60361 0.61756 0.86882 0.0
C872 C 0.67931 0.68433 0.82847 0.0
C873 C 0.77585 0.73413 0.81416 0.0
C874 C 0.79041 0.69706 0.85998 0.0
C875 C 0.65013 0.68384 0.80171 0.0
C876 C 0.59544 0.61382 0.77848 0.0
C877 C 0.68327 0.75555 0.79576 0.0
C878 C 0.75505 0.84408 0.81584 0.0
C879 C 0.87908 0.94967 0.79275 0.0
C880 C 0.97463 0.06579 0.80356 0.0
C881 C 0.9673 0.09842 0.837 0.0
C882 C 0.86297 0.02272 0.86743 0.0
C883 C 0.74496 0.89604 0.86772 0.0
H884 H 0.03824 0.17761 0.83898 0.0
H885 H 0.34086 0.3116 0.6767 0.0
H886 H 0.90099 0.07989 0.2591 0.0
H887 H 0.97418 0.15305 0.30988 0.0
H888 H 0.14937 0.41589 0.27398 0.0
H889 H 0.07177 0.34054 0.22329 0.0
H890 H 0.12886 0.28022 0.32735 0.0
H891 H 0.24807 0.55977 0.3345 0.0
H892 H 0.20183 0.58654 0.31718 0.0
H893 H 0.88967 0.26779 0.32783 0.0
H894 H 0.93417 0.23931 0.34537 0.0
H895 H 0.42453 0.57639 0.45603 0.0
H896 H 0.3582 0.51512 0.40395 0.0
H897 H 0.11064 0.37787 0.45783 0.0
H898 H 0.17883 0.44173 0.51019 0.0
H899 H 0.16871 0.45287 0.39599 0.0
H900 H 0.08245 0.23851 0.43357 0.0
H901 H 0.11575 0.19901 0.4519 0.0
H902 H 0.33078 0.35813 0.35661 0.0
H903 H 0.29852 0.3983 0.33775 0.0
C904 C 0.95352 0.15262 0.26205 0.0
C905 C 0.98018 0.20392 0.23636 0.0
C906 C -0.00381 0.19488 0.29145 0.0
C907 C 0.06681 0.28985 0.29729 0.0
C908 C 0.09365 0.3416 0.27155 0.0
C909 C 0.05024 0.29894 0.24192 0.0
C910 C 0.11076 0.33198 0.32999 0.0
C911 C 0.13718 0.31792 0.34206 0.0
C912 C 0.12273 0.38152 0.35047 0.0
C913 C 0.09449 0.39754 0.34109 0.0
C914 C 0.16947 0.4955 0.33338 0.0
C915 C 0.14364 0.51095 0.32342 0.0
C916 C 0.04289 0.42891 0.32137 0.0
C917 C 0.96768 0.33124 0.32938 0.0
C918 C -0.00687 0.31538 0.33931 0.0
C919 C 0.35569 0.53302 0.45716 0.0
C920 C 0.3077 0.51455 0.48815 0.0
C921 C 0.31692 0.49695 0.42695 0.0
C922 C 0.22736 0.43946 0.42615 0.0
C923 C 0.17957 0.42153 0.457 0.0
C924 C 0.21873 0.45808 0.48734 0.0
C925 C 0.18503 0.39957 0.39333 0.0
C926 C 0.15977 0.41473 0.38121 0.0
C927 C 0.17168 0.34872 0.37318 0.0
C928 C 0.18957 0.32302 0.38445 0.0
C929 C 0.13733 0.26563 0.41663 0.0
C930 C 0.15572 0.24281 0.42708 0.0
C931 C 0.22579 0.27661 0.4055 0.0
C932 C 0.2768 0.33231 0.37332 0.0
C933 C 0.2584 0.35498 0.36272 0.0
H934 H 0.24049 0.25949 0.41362 0.0
H935 H 0.02309 0.44103 0.31359 0.0
loop_
_geom_bond_atom_site_label_1
_geom_bond_atom_site_label_2
_geom_bond_distance
_geom_bond_site_symmetry_2
_ccdc_geom_bond_type
Tb0 N29 2.617 1_655 S
Tb0 N35 2.572 . S
Tb0 O44 2.465 1_554 S
Tb0 O45 2.387 . S
Tb0 O47 2.428 1_554 S
Tb0 O48 2.308 . S
Tb0 O52 2.349 . S
Tb0 O55 2.393 . S
Tb0 C64 2.802 1_554 S
C1 N2 1.379 . S
C1 C4 1.416 . S
C1 C8 1.424 . S
N2 C1 1.379 . S
N2 C5 1.334 . S
N2 Tb11 2.617 . S
C3 C5 1.390 . S
C3 C6 1.338 . S
C3 H23 0.930 . S
C4 C1 1.416 . S
C4 C6 1.418 . S
C4 C10 1.448 1_545 S
C5 N2 1.334 . S
C5 C3 1.390 . S
C5 H16 0.930 . S
C6 C3 1.338 . S
C6 C4 1.418 . S
C6 H27 0.930 1_545 S
C7 C8 1.413 . S
C7 C9 1.427 1_545 S
C7 C13 1.416 . S
C8 C1 1.424 . S
C8 C7 1.413 . S
C8 N12 1.361 . S
C9 C7 1.427 1_565 S
C9 C10 1.328 . S
C9 H24 0.929 . S
C10 C4 1.448 1_565 S
C10 C9 1.328 . S
C10 H25 0.930 . S
Tb11 N2 2.617 . S
Tb11 N12 2.572 . S
Tb11 O46 2.349 . S
Tb11 O49 2.393 . S
Tb11 O50 2.465 . S
Tb11 O51 2.387 . S
Tb11 O53 2.428 . S
Tb11 O54 2.308 . S
Tb11 C75 2.802 . S
N12 C8 1.361 . S
N12 Tb11 2.572 . S
N12 C14 1.340 . S
C13 C7 1.416 . S
C13 C15 1.332 . S
C13 H21 0.931 1_545 S
C14 N12 1.340 . S
C14 C15 1.407 . S
C14 H20 0.930 . S
C15 C13 1.332 . S
C15 C14 1.407 . S
C15 H17 0.929 . S
H16 C5 0.930 . S
H17 C15 0.929 . S
H18 C33 0.930 . S
H19 C40 0.929 . S
H20 C14 0.930 . S
H21 C13 0.931 1_565 S
H22 C36 0.930 . S
H23 C3 0.930 . S
H24 C9 0.929 . S
H25 C10 0.930 . S
H26 C31 0.930 . S
H27 C6 0.930 1_565 S
H28 C39 0.934 1_455 S
N29 Tb0 2.617 1_455 S
N29 C30 1.379 . S
N29 C33 1.334 . S
C30 N29 1.379 . S
C30 C32 1.416 . S
C30 C38 1.424 . S
C31 H26 0.930 . S
C31 C33 1.390 . S
C31 C34 1.339 . S
C32 C30 1.416 . S
C32 C34 1.416 . S
C32 C65 1.448 1_565 S
C33 H18 0.930 . S
C33 N29 1.334 . S
C33 C31 1.390 . S
C34 C31 1.339 . S
C34 C32 1.416 . S
C34 H41 0.930 1_565 S
N35 Tb0 2.572 . S
N35 C36 1.340 . S
N35 C38 1.361 1_655 S
C36 H22 0.930 . S
C36 N35 1.340 . S
C36 C40 1.407 . S
C37 C38 1.413 . S
C37 C39 1.410 1_455 S
C37 C66 1.427 1_565 S
C38 C30 1.424 . S
C38 N35 1.361 1_455 S
C38 C37 1.413 . S
C39 H28 0.934 1_655 S
C39 C37 1.410 1_655 S
C39 C40 1.335 . S
C40 H19 0.929 . S
C40 C36 1.407 . S
C40 C39 1.335 . S
H41 C34 0.930 1_545 S
H42 C65 0.930 . S
H43 C66 0.929 . S
O44 Tb0 2.465 1_556 S
O44 C64 1.264 . S
O45 Tb0 2.387 . S
O45 C56 1.264 . S
O46 Tb11 2.349 . S
O46 C56 1.243 . S
O47 Tb0 2.428 1_556 S
O47 C64 1.256 . S
O48 Tb0 2.308 . S
O48 C63 1.266 . S
O49 Tb11 2.393 . S
O49 C63 1.248 . S
O50 Tb11 2.465 . S
O50 C75 1.264 . S
O51 Tb11 2.387 . S
O51 C67 1.264 . S
O52 Tb0 2.349 . S
O52 C67 1.243 . S
O53 Tb11 2.428 . S
O53 C75 1.256 . S
O54 Tb11 2.308 . S
O54 C74 1.266 . S
O55 Tb0 2.393 . S
O55 C74 1.248 . S
C56 O45 1.264 . S
C56 O46 1.243 . S
C57 C60 1.399 1_655 S
C57 C62 1.383 . S
C57 C64 1.496 . S
C58 C59 1.399 . S
C58 C62 1.389 . S
C59 C58 1.399 . S
C59 C61 1.380 1_655 S
C59 H76 0.929 1_655 S
C60 C57 1.399 1_455 S
C60 C61 1.392 . S
C60 H77 0.929 . S
C61 C59 1.380 1_455 S
C61 C60 1.392 . S
C61 H78 0.929 . S
C62 C57 1.383 . S
C62 C58 1.389 . S
C62 H79 0.931 . S
C63 O48 1.266 . S
C63 O49 1.248 . S
C64 Tb0 2.802 1_556 S
C64 O44 1.264 . S
C64 O47 1.256 . S
C64 C57 1.496 . S
C65 C32 1.448 1_545 S
C65 H42 0.930 . S
C65 C66 1.328 . S
C66 C37 1.427 1_545 S
C66 H43 0.929 . S
C66 C65 1.328 . S
C67 O51 1.264 . S
C67 O52 1.243 . S
C68 C71 1.399 . S
C68 C72 1.383 . S
C68 C75 1.496 . S
C69 C70 1.399 . S
C69 C72 1.389 . S
C70 C69 1.399 . S
C70 C73 1.380 . S
C70 H80 0.929 . S
C71 C68 1.399 . S
C71 C73 1.392 . S
C71 H81 0.929 . S
C72 C68 1.383 . S
C72 C69 1.389 . S
C72 H82 0.931 . S
C73 C70 1.380 . S
C73 C71 1.392 . S
C73 H83 0.929 . S
C74 O54 1.266 . S
C74 O55 1.248 . S
C75 Tb11 2.802 . S
C75 O50 1.264 . S
C75 O53 1.256 . S
C75 C68 1.496 . S
H76 C59 0.929 1_455 S
H77 C60 0.929 . S
H78 C61 0.929 . S
H79 C62 0.931 . S
H80 C70 0.929 . S
H81 C71 0.929 . S
H82 C72 0.931 . S
H83 C73 0.929 . S
Tb84 N113 2.617 . S
Tb84 N119 2.572 . S
Tb84 O128 2.465 . S
Tb84 O129 2.387 . S
Tb84 O131 2.428 . S
Tb84 O132 2.308 . S
Tb84 O136 2.349 . S
Tb84 O139 2.393 . S
Tb84 C148 2.802 . S
C85 N86 1.379 . S
C85 C88 1.416 . S
C85 C92 1.424 . S
N86 C85 1.379 . S
N86 C89 1.334 . S
N86 Tb95 2.617 1_545 S
C87 C89 1.390 . S
C87 C90 1.339 . S
C87 H107 0.930 . S
C88 C85 1.416 . S
C88 C90 1.416 . S
C88 C94 1.448 1_655 S
C89 N86 1.334 . S
C89 C87 1.390 . S
C89 H100 0.930 . S
C90 C87 1.339 . S
C90 C88 1.416 . S
C90 H111 0.930 1_655 S
C91 C92 1.413 . S
C91 C93 1.427 1_655 S
C91 C97 1.416 1_545 S
C92 C85 1.424 . S
C92 C91 1.413 . S
C92 N96 1.361 1_545 S
C93 C91 1.427 1_455 S
C93 C94 1.328 . S
C93 H108 0.929 . S
C94 C88 1.448 1_455 S
C94 C93 1.328 . S
C94 H109 0.930 . S
Tb95 N86 2.617 1_565 S
Tb95 N96 2.572 . S
Tb95 O130 2.349 . S
Tb95 O133 2.393 . S
Tb95 O134 2.465 . S
Tb95 O135 2.387 . S
Tb95 O137 2.428 . S
Tb95 O138 2.308 . S
Tb95 C159 2.802 . S
N96 C92 1.361 1_565 S
N96 Tb95 2.572 . S
N96 C98 1.340 . S
C97 C91 1.416 1_565 S
C97 C99 1.332 . S
C97 H105 0.931 1_565 S
C98 N96 1.340 . S
C98 C99 1.407 . S
C98 H104 0.930 . S
C99 C97 1.332 . S
C99 C98 1.407 . S
C99 H101 0.929 . S
H100 C89 0.930 . S
H101 C99 0.929 . S
H102 C117 0.930 . S
H103 C124 0.929 . S
H104 C98 0.930 . S
H105 C97 0.931 1_545 S
H106 C120 0.930 . S
H107 C87 0.930 . S
H108 C93 0.929 . S
H109 C94 0.930 . S
H110 C115 0.930 . S
H111 C90 0.930 1_455 S
H112 C123 0.931 . S
N113 Tb84 2.617 . S
N113 C114 1.379 . S
N113 C117 1.334 . S
C114 N113 1.379 . S
C114 C116 1.416 . S
C114 C122 1.424 . S
C115 H110 0.930 . S
C115 C117 1.390 . S
C115 C118 1.339 . S
C116 C114 1.416 . S
C116 C118 1.416 . S
C116 C149 1.448 1_455 S
C117 H102 0.930 . S
C117 N113 1.334 . S
C117 C115 1.390 . S
C118 C115 1.339 . S
C118 C116 1.416 . S
C118 H125 0.930 1_455 S
N119 Tb84 2.572 . S
N119 C120 1.340 . S
N119 C122 1.361 . S
C120 H106 0.930 . S
C120 N119 1.340 . S
C120 C124 1.407 . S
C121 C122 1.413 . S
C121 C123 1.416 . S
C121 C150 1.427 1_455 S
C122 C114 1.424 . S
C122 N119 1.361 . S
C122 C121 1.413 . S
C123 H112 0.931 . S
C123 C121 1.416 . S
C123 C124 1.332 . S
C124 H103 0.929 . S
C124 C120 1.407 . S
C124 C123 1.332 . S
H125 C118 0.930 1_655 S
H126 C149 0.930 . S
H127 C150 0.929 . S
O128 Tb84 2.465 . S
O128 C148 1.264 . S
O129 Tb84 2.387 . S
O129 C140 1.264 . S
O130 Tb95 2.349 . S
O130 C140 1.243 . S
O131 Tb84 2.428 . S
O131 C148 1.256 . S
O132 Tb84 2.308 . S
O132 C147 1.266 . S
O133 Tb95 2.393 . S
O133 C147 1.248 . S
O134 Tb95 2.465 . S
O134 C159 1.264 . S
O135 Tb95 2.387 . S
O135 C151 1.264 . S
O136 Tb84 2.349 . S
O136 C151 1.243 . S
O137 Tb95 2.428 . S
O137 C159 1.256 . S
O138 Tb95 2.308 . S
O138 C158 1.266 . S
O139 Tb84 2.393 . S
O139 C158 1.248 . S
C140 O129 1.264 . S
C140 O130 1.243 . S
C141 C144 1.399 . S
C141 C146 1.383 . S
C141 C148 1.496 . S
C142 C143 1.399 . S
C142 C146 1.389 . S
C143 C142 1.399 . S
C143 C145 1.380 . S
C143 H160 0.929 . S
C144 C141 1.399 . S
C144 C145 1.392 . S
C144 H161 0.929 . S
C145 C143 1.380 . S
C145 C144 1.392 . S
C145 H162 0.929 . S
C146 C141 1.383 . S
C146 C142 1.389 . S
C146 H163 0.931 . S
C147 O132 1.266 . S
C147 O133 1.248 . S
C148 Tb84 2.802 . S
C148 O128 1.264 . S
C148 O131 1.256 . S
C148 C141 1.496 . S
C149 C116 1.448 1_655 S
C149 H126 0.930 . S
C149 C150 1.328 . S
C150 C121 1.427 1_655 S
C150 H127 0.929 . S
C150 C149 1.328 . S
C151 O135 1.264 . S
C151 O136 1.243 . S
C152 C155 1.399 . S
C152 C156 1.383 . S
C152 C159 1.496 . S
C153 C154 1.399 . S
C153 C156 1.389 . S
C154 C153 1.399 . S
C154 C157 1.380 1_565 S
C154 H164 0.929 . S
C155 C152 1.399 . S
C155 C157 1.392 1_565 S
C155 H165 0.929 1_565 S
C156 C152 1.383 . S
C156 C153 1.389 . S
C156 H166 0.931 . S
C157 C154 1.380 1_545 S
C157 C155 1.392 1_545 S
C157 H167 0.929 . S
C158 O138 1.266 . S
C158 O139 1.248 . S
C159 Tb95 2.802 . S
C159 O134 1.264 . S
C159 O137 1.256 . S
C159 C152 1.496 . S
H160 C143 0.929 . S
H161 C144 0.929 . S
H162 C145 0.929 . S
H163 C146 0.931 . S
H164 C154 0.929 . S
H165 C155 0.929 1_545 S
H166 C156 0.931 . S
H167 C157 0.929 . S
Tb168 N197 2.617 1_655 S
Tb168 N203 2.572 1_655 S
Tb168 O212 2.465 . S
Tb168 O213 2.387 . S
Tb168 O215 2.428 1_655 S
Tb168 O216 2.308 . S
Tb168 O220 2.349 1_545 S
Tb168 O223 2.393 . S
Tb168 C232 2.802 . S
C169 N170 1.379 . S
C169 C172 1.416 . S
C169 C176 1.424 . S
N170 C169 1.379 . S
N170 C173 1.334 . S
N170 Tb179 2.617 . S
C171 C173 1.390 . S
C171 C174 1.339 . S
C171 H191 0.930 . S
C172 C169 1.416 . S
C172 C174 1.416 . S
C172 C178 1.448 . S
C173 N170 1.334 . S
C173 C171 1.390 . S
C173 H184 0.930 . S
C174 C171 1.339 . S
C174 C172 1.416 . S
C174 H195 0.930 . S
C175 C176 1.413 . S
C175 C177 1.427 . S
C175 C181 1.416 . S
C176 C169 1.424 . S
C176 C175 1.413 . S
C176 N180 1.361 . S
C177 C175 1.427 . S
C177 C178 1.328 . S
C177 H192 0.929 . S
C178 C172 1.448 . S
C178 C177 1.328 . S
C178 H193 0.930 . S
Tb179 N170 2.617 . S
Tb179 N180 2.572 . S
Tb179 O214 2.349 1_565 S
Tb179 O217 2.393 . S
Tb179 O218 2.465 . S
Tb179 O219 2.387 . S
Tb179 O221 2.428 . S
Tb179 O222 2.308 . S
Tb179 C243 2.802 . S
N180 C176 1.361 . S
N180 Tb179 2.572 . S
N180 C182 1.340 . S
C181 C175 1.416 . S
C181 C183 1.332 . S
C181 H189 0.931 . S
C182 N180 1.340 . S
C182 C183 1.407 . S
C182 H188 0.930 . S
C183 C181 1.332 . S
C183 C182 1.407 . S
C183 H185 0.929 . S
H184 C173 0.930 . S
H185 C183 0.929 . S
H186 C201 0.930 . S
H187 C208 0.929 . S
H188 C182 0.930 . S
H189 C181 0.931 . S
H190 C204 0.930 . S
H191 C171 0.930 . S
H192 C177 0.929 . S
H193 C178 0.930 . S
H194 C199 0.930 . S
H195 C174 0.930 . S
H196 C207 0.931 . S
N197 Tb168 2.617 1_455 S
N197 C198 1.379 . S
N197 C201 1.334 . S
C198 N197 1.379 . S
C198 C200 1.416 . S
C198 C206 1.424 . S
C199 H194 0.930 . S
C199 C201 1.390 . S
C199 C202 1.339 . S
C200 C198 1.416 . S
C200 C202 1.416 . S
C200 C233 1.448 . S
C201 H186 0.930 . S
C201 N197 1.334 . S
C201 C199 1.390 . S
C202 C199 1.339 . S
C202 C200 1.416 . S
C202 H209 0.930 . S
N203 Tb168 2.572 1_455 S
N203 C204 1.340 1_455 S
N203 C206 1.361 . S
C204 H190 0.930 . S
C204 N203 1.340 1_655 S
C204 C208 1.407 . S
C205 C206 1.413 . S
C205 C207 1.416 . S
C205 C234 1.427 . S
C206 C198 1.424 . S
C206 N203 1.361 . S
C206 C205 1.413 . S
C207 H196 0.931 . S
C207 C205 1.416 . S
C207 C208 1.332 1_455 S
C208 H187 0.929 . S
C208 C204 1.407 . S
C208 C207 1.332 1_655 S
H209 C202 0.930 . S
H210 C233 0.930 . S
H211 C234 0.929 . S
O212 Tb168 2.465 . S
O212 C232 1.264 . S
O213 Tb168 2.387 . S
O213 C224 1.264 . S
O214 Tb179 2.349 1_545 S
O214 C224 1.243 . S
O215 Tb168 2.428 1_455 S
O215 C232 1.256 1_455 S
O216 Tb168 2.308 . S
O216 C231 1.266 1_545 S
O217 Tb179 2.393 . S
O217 C231 1.248 . S
O218 Tb179 2.465 . S
O218 C243 1.264 . S
O219 Tb179 2.387 . S
O219 C235 1.264 . S
O220 Tb168 2.349 1_565 S
O220 C235 1.243 . S
O221 Tb179 2.428 . S
O221 C243 1.256 . S
O222 Tb179 2.308 . S
O222 C242 1.266 1_565 S
O223 Tb168 2.393 . S
O223 C242 1.248 . S
C224 O213 1.264 . S
C224 O214 1.243 . S
C225 C228 1.400 1_554 S
C225 C230 1.384 1_454 S
C225 C232 1.495 1_455 S
C226 C227 1.399 1_655 S
C226 C230 1.389 . S
C227 C226 1.399 1_455 S
C227 C229 1.380 . S
C227 H244 0.929 . S
C228 C225 1.400 1_556 S
C228 C229 1.392 . S
C228 H245 0.929 . S
C229 C227 1.380 . S
C229 C228 1.392 . S
C229 H246 0.929 . S
C230 C225 1.384 1_656 S
C230 C226 1.389 . S
C230 H247 0.931 1_556 S
C231 O216 1.266 1_565 S
C231 O217 1.248 . S
C232 Tb168 2.802 . S
C232 O212 1.264 . S
C232 O215 1.256 1_655 S
C232 C225 1.495 1_655 S
C233 C200 1.448 . S
C233 H210 0.930 . S
C233 C234 1.328 . S
C234 C205 1.427 . S
C234 H211 0.929 . S
C234 C233 1.328 . S
C235 O219 1.264 . S
C235 O220 1.243 . S
C236 C239 1.399 . S
C236 C240 1.383 . S
C236 C243 1.496 . S
C237 C238 1.399 . S
C237 C240 1.389 . S
C238 C237 1.399 . S
C238 C241 1.380 . S
C238 H248 0.929 . S
C239 C236 1.399 . S
C239 C241 1.392 . S
C239 H249 0.929 . S
C240 C236 1.383 . S
C240 C237 1.389 . S
C240 H250 0.931 . S
C241 C238 1.380 . S
C241 C239 1.392 . S
C241 H251 0.929 . S
C242 O222 1.266 1_545 S
C242 O223 1.248 . S
C243 Tb179 2.802 . S
C243 O218 1.264 . S
C243 O221 1.256 . S
C243 C236 1.496 . S
H244 C227 0.929 . S
H245 C228 0.929 . S
H246 C229 0.929 . S
H247 C230 0.931 1_554 S
H248 C238 0.929 . S
H249 C239 0.929 . S
H250 C240 0.931 . S
H251 C241 0.929 . S
Tb252 N281 2.617 1_565 S
Tb252 N287 2.572 1_565 S
Tb252 O296 2.465 . S
Tb252 O297 2.387 . S
Tb252 O299 2.428 1_565 S
Tb252 O300 2.308 . S
Tb252 O304 2.349 . S
Tb252 O307 2.393 . S
Tb252 C316 2.802 . S
C253 N254 1.379 . S
C253 C256 1.416 . S
C253 C260 1.424 . S
N254 C253 1.379 . S
N254 C257 1.334 . S
N254 Tb263 2.617 . S
C255 C257 1.390 . S
C255 C258 1.339 . S
C255 H275 0.930 . S
C256 C253 1.416 . S
C256 C258 1.416 . S
C256 C262 1.448 . S
C257 N254 1.334 . S
C257 C255 1.390 . S
C257 H268 0.930 . S
C258 C255 1.339 . S
C258 C256 1.416 . S
C258 H279 0.930 . S
C259 C260 1.413 . S
C259 C261 1.427 . S
C259 C265 1.416 . S
C260 C253 1.424 . S
C260 C259 1.413 . S
C260 N264 1.361 . S
C261 C259 1.427 . S
C261 C262 1.328 . S
C261 H276 0.929 . S
C262 C256 1.448 . S
C262 C261 1.328 . S
C262 H277 0.930 . S
Tb263 N254 2.617 . S
Tb263 N264 2.572 . S
Tb263 O298 2.340 1_655 S
Tb263 O301 2.393 . S
Tb263 O302 2.465 . S
Tb263 O303 2.387 . S
Tb263 O305 2.428 . S
Tb263 O306 2.308 . S
Tb263 C327 2.802 . S
N264 C260 1.361 . S
N264 Tb263 2.572 . S
N264 C266 1.340 . S
C265 C259 1.416 . S
C265 C267 1.332 . S
C265 H273 0.931 . S
C266 N264 1.340 . S
C266 C267 1.407 . S
C266 H272 0.930 . S
C267 C265 1.332 . S
C267 C266 1.407 . S
C267 H269 0.929 . S
H268 C257 0.930 . S
H269 C267 0.929 . S
H270 C285 0.930 . S
H271 C292 0.929 1_565 S
H272 C266 0.930 . S
H273 C265 0.931 . S
H274 C288 0.930 . S
H275 C255 0.930 . S
H276 C261 0.929 . S
H277 C262 0.930 . S
H278 C283 0.930 . S
H279 C258 0.930 . S
H280 C291 0.931 . S
N281 Tb252 2.617 1_545 S
N281 C282 1.379 . S
N281 C285 1.334 . S
C282 N281 1.379 . S
C282 C284 1.416 . S
C282 C290 1.424 . S
C283 H278 0.930 . S
C283 C285 1.390 . S
C283 C286 1.339 . S
C284 C282 1.416 . S
C284 C286 1.416 . S
C284 C317 1.448 . S
C285 H270 0.930 . S
C285 N281 1.334 . S
C285 C283 1.390 . S
C286 C283 1.339 . S
C286 C284 1.416 . S
C286 H293 0.930 . S
N287 Tb252 2.572 1_545 S
N287 C288 1.340 1_545 S
N287 C290 1.361 . S
C288 H274 0.930 . S
C288 N287 1.340 1_565 S
C288 C292 1.407 1_565 S
C289 C290 1.413 . S
C289 C291 1.416 . S
C289 C318 1.427 . S
C290 C282 1.424 . S
C290 N287 1.361 . S
C290 C289 1.413 . S
C291 H280 0.931 . S
C291 C289 1.416 . S
C291 C292 1.332 . S
C292 H271 0.929 1_545 S
C292 C288 1.407 1_545 S
C292 C291 1.332 . S
H293 C286 0.930 . S
H294 C317 0.930 . S
H295 C318 0.929 . S
O296 Tb252 2.465 . S
O296 C316 1.264 . S
O297 Tb252 2.387 . S
O297 C308 1.264 . S
O298 Tb263 2.340 1_455 S
O298 C308 1.254 . S
O299 Tb252 2.428 1_545 S
O299 C316 1.256 1_545 S
O300 Tb252 2.308 . S
O300 C315 1.266 1_455 S
O301 Tb263 2.393 . S
O301 C315 1.248 . S
O302 Tb263 2.465 . S
O302 C327 1.264 . S
O303 Tb263 2.387 . S
O303 C319 1.264 . S
O304 Tb252 2.349 . S
O304 C319 1.243 1_455 S
O305 Tb263 2.428 . S
O305 C327 1.256 . S
O306 Tb263 2.308 . S
O306 C326 1.266 1_655 S
O307 Tb252 2.393 . S
O307 C326 1.248 . S
C308 O297 1.264 . S
C308 O298 1.254 . S
C309 C312 1.399 . S
C309 C314 1.383 1_545 S
C309 C316 1.496 1_545 S
C310 C311 1.399 . S
C310 C314 1.389 1_545 S
C311 C310 1.399 . S
C311 C313 1.380 . S
C311 H328 0.929 . S
C312 C309 1.399 . S
C312 C313 1.392 . S
C312 H329 0.929 . S
C313 C311 1.380 . S
C313 C312 1.392 . S
C313 H330 0.929 . S
C314 C309 1.383 1_565 S
C314 C310 1.389 1_565 S
C314 H331 0.931 . S
C315 O300 1.266 1_655 S
C315 O301 1.248 . S
C316 Tb252 2.802 . S
C316 O296 1.264 . S
C316 O299 1.256 1_565 S
C316 C309 1.496 1_565 S
C317 C284 1.448 . S
C317 H294 0.930 . S
C317 C318 1.328 . S
C318 C289 1.427 . S
C318 H295 0.929 . S
C318 C317 1.328 . S
C319 O303 1.264 . S
C319 O304 1.243 1_655 S
C320 C323 1.399 . S
C320 C324 1.383 . S
C320 C327 1.496 . S
C321 C322 1.399 . S
C321 C324 1.389 . S
C322 C321 1.399 . S
C322 C325 1.380 . S
C322 H332 0.929 . S
C323 C320 1.399 . S
C323 C325 1.392 . S
C323 H333 0.929 . S
C324 C320 1.383 . S
C324 C321 1.389 . S
C324 H334 0.931 . S
C325 C322 1.380 . S
C325 C323 1.392 . S
C325 H335 0.929 . S
C326 O306 1.266 1_455 S
C326 O307 1.248 . S
C327 Tb263 2.802 . S
C327 O302 1.264 . S
C327 O305 1.256 . S
C327 C320 1.496 . S
H328 C311 0.929 . S
H329 C312 0.929 . S
H330 C313 0.929 . S
H331 C314 0.931 . S
H332 C322 0.929 . S
H333 C323 0.929 . S
H334 C324 0.931 . S
H335 C325 0.929 . S
H336 C354 0.951 . S
H337 C356 0.951 . S
H338 C358 0.950 . S
H339 C359 0.950 . S
H340 C361 0.950 . S
H341 C364 0.950 . S
H342 C365 0.950 . S
H343 C367 0.950 . S
H344 C368 0.950 . S
H345 C369 0.951 . S
H346 C371 0.951 . S
H347 C373 0.950 . S
H348 C374 0.950 . S
H349 C376 0.950 . S
H350 C379 0.950 . S
H351 C380 0.951 1_556 S
H352 C382 0.950 . S
H353 C383 0.950 . S
C354 H336 0.951 . S
C354 C355 1.366 . S
C354 C356 1.388 1_565 S
C355 C354 1.366 . S
C355 C359 1.385 1_565 S
C356 H337 0.951 . S
C356 C354 1.388 1_545 S
C356 C357 1.366 1_655 S
C357 C356 1.366 1_455 S
C357 C358 1.414 . S
C357 C360 1.499 . S
C358 H338 0.950 . S
C358 C357 1.414 . S
C358 C359 1.374 1_455 S
C359 H339 0.950 . S
C359 C355 1.385 1_545 S
C359 C358 1.374 1_655 S
C360 C357 1.499 . S
C360 C361 1.373 . S
C360 C362 1.389 . S
C361 H340 0.950 . S
C361 C360 1.373 . S
C361 C377 1.377 . S
C362 C360 1.389 . S
C362 C363 1.524 . S
C362 C376 1.377 . S
C363 C362 1.524 . S
C363 C364 1.397 . S
C363 C368 1.363 . S
C364 H341 0.950 . S
C364 C363 1.397 . S
C364 C365 1.334 . S
C365 H342 0.950 . S
C365 C364 1.334 . S
C365 C366 1.287 . S
C366 C365 1.287 . S
C366 C367 1.524 . S
C366 H385 0.913 . S
C367 H343 0.950 . S
C367 C366 1.524 . S
C367 C368 1.415 . S
C368 H344 0.950 . S
C368 C363 1.363 . S
C368 C367 1.415 . S
C369 H345 0.951 . S
C369 C370 1.366 . S
C369 C371 1.388 . S
C370 C369 1.366 . S
C370 C374 1.385 . S
C371 H346 0.951 . S
C371 C369 1.388 . S
C371 C372 1.366 . S
C372 C371 1.366 . S
C372 C373 1.414 . S
C372 C375 1.499 . S
C373 H347 0.950 . S
C373 C372 1.414 . S
C373 C374 1.374 . S
C374 H348 0.950 . S
C374 C370 1.385 . S
C374 C373 1.374 . S
C375 C372 1.499 . S
C375 C376 1.373 . S
C375 C377 1.389 . S
C376 H349 0.950 . S
C376 C362 1.377 . S
C376 C375 1.373 . S
C377 C361 1.377 . S
C377 C375 1.389 . S
C377 C378 1.524 . S
C378 C377 1.524 . S
C378 C379 1.397 . S
C378 C383 1.363 . S
C379 H350 0.950 . S
C379 C378 1.397 . S
C379 C380 1.336 . S
C380 H351 0.951 1_554 S
C380 C379 1.336 . S
C380 C381 1.284 1_554 S
C381 C380 1.284 1_556 S
C381 C382 1.524 . S
C381 H384 0.999 . S
C382 H352 0.950 . S
C382 C381 1.524 . S
C382 C383 1.415 1_556 S
C383 H353 0.950 . S
C383 C378 1.363 . S
C383 C382 1.415 1_554 S
H384 C381 0.999 . S
H385 C366 0.913 . S
H386 C404 0.951 . S
H387 C406 0.951 . S
H388 C408 0.950 . S
H389 C409 0.950 . S
H390 C411 0.950 . S
H391 C414 0.950 . S
H392 C415 0.950 . S
H393 C417 0.950 . S
H394 C418 0.950 . S
H395 C419 0.951 . S
H396 C421 0.951 . S
H397 C423 0.950 . S
H398 C424 0.950 . S
H399 C426 0.950 . S
H400 C429 0.950 . S
H401 C430 0.950 . S
H402 C432 0.950 . S
H403 C433 0.950 . S
C404 H386 0.951 . S
C404 C405 1.366 . S
C404 C406 1.388 1_565 S
C405 C404 1.366 . S
C405 C409 1.385 1_455 S
C406 H387 0.951 . S
C406 C404 1.388 1_545 S
C406 C407 1.366 . S
C407 C406 1.366 . S
C407 C408 1.414 1_545 S
C407 C410 1.499 . S
C408 H388 0.950 . S
C408 C407 1.414 1_565 S
C408 C409 1.374 1_455 S
C409 H389 0.950 . S
C409 C405 1.385 1_655 S
C409 C408 1.374 1_655 S
C410 C407 1.499 . S
C410 C411 1.373 . S
C410 C412 1.389 . S
C411 H390 0.950 . S
C411 C410 1.373 . S
C411 C427 1.377 . S
C412 C410 1.389 . S
C412 C413 1.524 . S
C412 C426 1.377 . S
C413 C412 1.524 . S
C413 C414 1.397 . S
C413 C418 1.363 . S
C414 H391 0.950 . S
C414 C413 1.397 . S
C414 C415 1.334 . S
C415 H392 0.950 . S
C415 C414 1.334 . S
C415 C416 1.287 . S
C416 C415 1.287 . S
C416 C417 1.524 . S
C416 H435 0.913 . S
C417 H393 0.950 . S
C417 C416 1.524 . S
C417 C418 1.415 . S
C418 H394 0.950 . S
C418 C413 1.363 . S
C418 C417 1.415 . S
C419 H395 0.951 . S
C419 C420 1.366 . S
C419 C421 1.388 . S
C420 C419 1.366 . S
C420 C424 1.385 . S
C421 H396 0.951 . S
C421 C419 1.388 . S
C421 C422 1.366 . S
C422 C421 1.366 . S
C422 C423 1.414 . S
C422 C425 1.499 . S
C423 H397 0.950 . S
C423 C422 1.414 . S
C423 C424 1.374 . S
C424 H398 0.950 . S
C424 C420 1.385 . S
C424 C423 1.374 . S
C425 C422 1.499 . S
C425 C426 1.373 . S
C425 C427 1.389 . S
C426 H399 0.950 . S
C426 C412 1.377 . S
C426 C425 1.373 . S
C427 C411 1.377 . S
C427 C425 1.389 . S
C427 C428 1.524 . S
C428 C427 1.524 . S
C428 C429 1.397 . S
C428 C433 1.363 . S
C429 H400 0.950 . S
C429 C428 1.397 . S
C429 C430 1.334 . S
C430 H401 0.950 . S
C430 C429 1.334 . S
C430 C431 1.287 . S
C431 C430 1.287 . S
C431 C432 1.524 . S
C431 H434 0.999 . S
C432 H402 0.950 . S
C432 C431 1.524 . S
C432 C433 1.415 . S
C433 H403 0.950 . S
C433 C428 1.363 . S
C433 C432 1.415 . S
H434 C431 0.999 . S
H435 C416 0.913 . S
H436 C454 0.951 . S
H437 C456 0.951 . S
H438 C458 0.950 . S
H439 C459 0.950 . S
H440 C461 0.950 . S
H441 C464 0.950 . S
H442 C465 0.950 . S
H443 C467 0.950 . S
H444 C468 0.950 . S
H445 C469 0.951 . S
H446 C471 0.951 . S
H447 C473 0.950 . S
H448 C474 0.950 . S
H449 C476 0.950 . S
H450 C479 0.952 . S
H451 C480 0.950 . S
H452 C482 0.950 1_556 S
H453 C483 0.950 . S
C454 H436 0.951 . S
C454 C455 1.366 . S
C454 C456 1.388 . S
C455 C454 1.366 . S
C455 C459 1.385 . S
C456 H437 0.951 . S
C456 C454 1.388 . S
C456 C457 1.366 . S
C457 C456 1.366 . S
C457 C458 1.414 . S
C457 C460 1.499 . S
C458 H438 0.950 . S
C458 C457 1.414 . S
C458 C459 1.374 . S
C459 H439 0.950 . S
C459 C455 1.385 . S
C459 C458 1.374 . S
C460 C457 1.499 . S
C460 C461 1.373 . S
C460 C462 1.389 . S
C461 H440 0.950 . S
C461 C460 1.373 . S
C461 C477 1.377 . S
C462 C460 1.389 . S
C462 C463 1.524 . S
C462 C476 1.377 . S
C463 C462 1.524 . S
C463 C464 1.397 1_545 S
C463 C468 1.363 . S
C464 H441 0.950 . S
C464 C463 1.397 1_565 S
C464 C465 1.334 . S
C465 H442 0.950 . S
C465 C464 1.334 . S
C465 C466 1.287 . S
C466 C465 1.287 . S
C466 C467 1.524 . S
C466 H485 0.913 . S
C467 H443 0.950 . S
C467 C466 1.524 . S
C467 C468 1.415 1_565 S
C468 H444 0.950 . S
C468 C463 1.363 . S
C468 C467 1.415 1_545 S
C469 H445 0.951 . S
C469 C470 1.366 . S
C469 C471 1.388 . S
C470 C469 1.366 . S
C470 C474 1.385 . S
C471 H446 0.951 . S
C471 C469 1.388 . S
C471 C472 1.366 . S
C472 C471 1.366 . S
C472 C473 1.414 . S
C472 C475 1.499 . S
C473 H447 0.950 . S
C473 C472 1.414 . S
C473 C474 1.374 . S
C474 H448 0.950 . S
C474 C470 1.385 . S
C474 C473 1.374 . S
C475 C472 1.499 . S
C475 C476 1.373 . S
C475 C477 1.389 . S
C476 H449 0.950 . S
C476 C462 1.377 . S
C476 C475 1.373 . S
C477 C461 1.377 . S
C477 C475 1.389 . S
C477 C478 1.524 . S
C478 C477 1.524 . S
C478 C479 1.395 . S
C478 C483 1.363 . S
C479 H450 0.952 . S
C479 C478 1.395 . S
C479 C480 1.333 1_655 S
C480 H451 0.950 . S
C480 C479 1.333 1_455 S
C480 C481 1.287 . S
C481 C480 1.287 . S
C481 C482 1.524 . S
C481 H484 0.999 . S
C482 H452 0.950 1_554 S
C482 C481 1.524 . S
C482 C483 1.415 1_455 S
C483 H453 0.950 . S
C483 C478 1.363 . S
C483 C482 1.415 1_655 S
H484 C481 0.999 . S
H485 C466 0.913 . S
H486 C504 0.951 . S
H487 C506 0.951 . S
H488 C508 0.950 . S
H489 C509 0.950 . S
H490 C511 0.950 . S
H491 C514 0.950 . S
H492 C515 0.950 . S
H493 C517 0.950 . S
H494 C518 0.950 . S
H495 C519 0.951 . S
H496 C521 0.951 . S
H497 C523 0.950 1_655 S
H498 C524 0.950 . S
H499 C526 0.950 . S
H500 C529 0.950 . S
H501 C530 0.950 . S
H502 C532 0.950 . S
H503 C533 0.950 . S
C504 H486 0.951 . S
C504 C505 1.366 . S
C504 C506 1.388 . S
C505 C504 1.366 . S
C505 C509 1.385 . S
C506 H487 0.951 . S
C506 C504 1.388 . S
C506 C507 1.366 . S
C507 C506 1.366 . S
C507 C508 1.414 . S
C507 C510 1.499 . S
C508 H488 0.950 . S
C508 C507 1.414 . S
C508 C509 1.374 . S
C509 H489 0.950 . S
C509 C505 1.385 . S
C509 C508 1.374 . S
C510 C507 1.499 . S
C510 C511 1.373 . S
C510 C512 1.389 . S
C511 H490 0.950 . S
C511 C510 1.373 . S
C511 C527 1.377 . S
C512 C510 1.389 . S
C512 C513 1.524 . S
C512 C526 1.377 . S
C513 C512 1.524 . S
C513 C514 1.397 . S
C513 C518 1.363 . S
C514 H491 0.950 . S
C514 C513 1.397 . S
C514 C515 1.334 . S
C515 H492 0.950 . S
C515 C514 1.334 . S
C515 C516 1.287 . S
C516 C515 1.287 . S
C516 C517 1.524 . S
C516 H535 0.913 . S
C517 H493 0.950 . S
C517 C516 1.524 . S
C517 C518 1.415 . S
C518 H494 0.950 . S
C518 C513 1.363 . S
C518 C517 1.415 . S
C519 H495 0.951 . S
C519 C520 1.366 . S
C519 C521 1.388 . S
C520 C519 1.366 . S
C520 C524 1.385 1_455 S
C521 H496 0.951 . S
C521 C519 1.388 . S
C521 C522 1.366 . S
C522 C521 1.366 . S
C522 C523 1.414 . S
C522 C525 1.499 . S
C523 H497 0.950 1_455 S
C523 C522 1.414 . S
C523 C524 1.374 1_455 S
C524 H498 0.950 . S
C524 C520 1.385 1_655 S
C524 C523 1.374 1_655 S
C525 C522 1.499 . S
C525 C526 1.373 . S
C525 C527 1.389 . S
C526 H499 0.950 . S
C526 C512 1.377 . S
C526 C525 1.373 . S
C527 C511 1.377 . S
C527 C525 1.389 . S
C527 C528 1.524 . S
C528 C527 1.524 . S
C528 C529 1.397 . S
C528 C533 1.363 . S
C529 H500 0.950 . S
C529 C528 1.397 . S
C529 C530 1.334 . S
C530 H501 0.950 . S
C530 C529 1.334 . S
C530 C531 1.287 . S
C531 C530 1.287 . S
C531 C532 1.524 . S
C531 H534 0.999 . S
C532 H502 0.950 . S
C532 C531 1.524 . S
C532 C533 1.415 . S
C533 H503 0.950 . S
C533 C528 1.363 . S
C533 C532 1.415 . S
H534 C531 0.999 . S
H535 C516 0.913 . S
H536 C554 0.951 . S
H537 C556 0.951 . S
H538 C558 0.950 . S
H539 C559 0.950 . S
H540 C561 0.950 . S
H541 C564 0.950 . S
H542 C565 0.950 1_545 S
H543 C567 0.950 . S
H544 C568 0.950 . S
H545 C569 0.951 . S
H546 C571 0.951 . S
H547 C573 0.950 . S
H548 C574 0.950 . S
H549 C576 0.950 . S
H550 C579 0.950 . S
H551 C580 0.950 . S
H552 C582 0.950 . S
H553 C583 0.950 . S
C554 H536 0.951 . S
C554 C555 1.366 . S
C554 C556 1.388 . S
C555 C554 1.366 . S
C555 C559 1.385 . S
C556 H537 0.951 . S
C556 C554 1.388 . S
C556 C557 1.366 . S
C557 C556 1.366 . S
C557 C558 1.414 . S
C557 C560 1.499 . S
C558 H538 0.950 . S
C558 C557 1.414 . S
C558 C559 1.374 . S
C559 H539 0.950 . S
C559 C555 1.385 . S
C559 C558 1.374 . S
C560 C557 1.499 . S
C560 C561 1.373 . S
C560 C562 1.389 . S
C561 H540 0.950 . S
C561 C560 1.373 . S
C561 C577 1.377 . S
C562 C560 1.389 . S
C562 C563 1.524 . S
C562 C576 1.377 . S
C563 C562 1.524 . S
C563 C564 1.397 1_655 S
C563 C568 1.363 . S
C564 H541 0.950 . S
C564 C563 1.397 1_455 S
C564 C565 1.334 . S
C565 H542 0.950 1_565 S
C565 C564 1.334 . S
C565 C566 1.287 . S
C566 C565 1.287 . S
C566 C567 1.524 . S
C566 H585 0.913 1_565 S
C567 H543 0.950 . S
C567 C566 1.524 . S
C567 C568 1.415 1_455 S
C568 H544 0.950 . S
C568 C563 1.363 . S
C568 C567 1.415 1_655 S
C569 H545 0.951 . S
C569 C570 1.366 . S
C569 C571 1.388 . S
C570 C569 1.366 . S
C570 C574 1.385 . S
C571 H546 0.951 . S
C571 C569 1.388 . S
C571 C572 1.366 . S
C572 C571 1.366 . S
C572 C573 1.414 . S
C572 C575 1.499 . S
C573 H547 0.950 . S
C573 C572 1.414 . S
C573 C574 1.374 . S
C574 H548 0.950 . S
C574 C570 1.385 . S
C574 C573 1.374 . S
C575 C572 1.499 . S
C575 C576 1.373 . S
C575 C577 1.389 . S
C576 H549 0.950 . S
C576 C562 1.377 . S
C576 C575 1.373 . S
C577 C561 1.377 . S
C577 C575 1.389 . S
C577 C578 1.524 . S
C578 C577 1.524 . S
C578 C579 1.397 . S
C578 C583 1.363 . S
C579 H550 0.950 . S
C579 C578 1.397 . S
C579 C580 1.334 . S
C580 H551 0.950 . S
C580 C579 1.334 . S
C580 C581 1.287 . S
C581 C580 1.287 . S
C581 C582 1.524 . S
C581 H584 0.999 . S
C582 H552 0.950 . S
C582 C581 1.524 . S
C582 C583 1.415 . S
C583 H553 0.950 . S
C583 C578 1.363 . S
C583 C582 1.415 . S
H584 C581 0.999 . S
H585 C566 0.913 1_545 S
H586 C604 0.951 . S
H587 C606 0.951 . S
H588 C608 0.950 . S
H589 C609 0.950 . S
H590 C611 0.950 . S
H591 C614 0.950 . S
H592 C615 0.950 . S
H593 C617 0.950 . S
H594 C618 0.950 . S
H595 C619 0.951 . S
H596 C621 0.951 . S
H597 C623 0.950 . S
H598 C624 0.950 . S
H599 C626 0.950 . S
H600 C629 0.950 . S
H601 C630 0.950 . S
H602 C632 0.950 . S
H603 C633 0.950 . S
C604 H586 0.951 . S
C604 C605 1.366 . S
C604 C606 1.388 . S
C605 C604 1.366 . S
C605 C609 1.385 . S
C606 H587 0.951 . S
C606 C604 1.388 . S
C606 C607 1.366 . S
C607 C606 1.366 . S
C607 C608 1.414 . S
C607 C610 1.499 . S
C608 H588 0.950 . S
C608 C607 1.414 . S
C608 C609 1.374 . S
C609 H589 0.950 . S
C609 C605 1.385 . S
C609 C608 1.374 . S
C610 C607 1.499 . S
C610 C611 1.373 . S
C610 C612 1.389 . S
C611 H590 0.950 . S
C611 C610 1.373 . S
C611 C627 1.377 . S
C612 C610 1.389 . S
C612 C613 1.524 . S
C612 C626 1.377 . S
C613 C612 1.524 . S
C613 C614 1.397 . S
C613 C618 1.363 . S
C614 H591 0.950 . S
C614 C613 1.397 . S
C614 C615 1.334 . S
C615 H592 0.950 . S
C615 C614 1.334 . S
C615 C616 1.287 . S
C616 C615 1.287 . S
C616 C617 1.524 . S
C616 H635 0.913 . S
C617 H593 0.950 . S
C617 C616 1.524 . S
C617 C618 1.415 . S
C618 H594 0.950 . S
C618 C613 1.363 . S
C618 C617 1.415 . S
C619 H595 0.951 . S
C619 C620 1.366 . S
C619 C621 1.388 . S
C620 C619 1.366 . S
C620 C624 1.385 1_655 S
C621 H596 0.951 . S
C621 C619 1.388 . S
C621 C622 1.366 1_655 S
C622 C621 1.366 1_455 S
C622 C623 1.414 . S
C622 C625 1.499 . S
C623 H597 0.950 . S
C623 C622 1.414 . S
C623 C624 1.374 . S
C624 H598 0.950 . S
C624 C620 1.385 1_455 S
C624 C623 1.374 . S
C625 C622 1.499 . S
C625 C626 1.373 . S
C625 C627 1.389 . S
C626 H599 0.950 . S
C626 C612 1.377 . S
C626 C625 1.373 . S
C627 C611 1.377 . S
C627 C625 1.389 . S
C627 C628 1.547 . S
C628 C627 1.547 . S
C628 C629 1.400 . S
C628 C633 1.339 1_455 S
C629 H600 0.950 . S
C629 C628 1.400 . S
C629 C630 1.334 . S
C630 H601 0.950 . S
C630 C629 1.334 . S
C630 C631 1.287 1_455 S
C631 C630 1.287 1_655 S
C631 C632 1.524 . S
C631 H634 0.999 . S
C632 H602 0.950 . S
C632 C631 1.524 . S
C632 C633 1.415 . S
C633 H603 0.950 . S
C633 C628 1.339 1_655 S
C633 C632 1.415 . S
H634 C631 0.999 . S
H635 C616 0.913 . S
H636 C654 0.951 . S
H637 C656 0.951 . S
H638 C658 0.950 . S
H639 C659 0.950 . S
H640 C661 0.950 . S
H641 C664 0.950 . S
H642 C665 0.950 . S
H643 C667 0.950 . S
H644 C668 0.950 . S
H645 C669 0.951 . S
H646 C671 0.951 . S
H647 C673 0.950 . S
H648 C674 0.950 . S
H649 C676 0.950 . S
H650 C679 0.950 . S
H651 C680 0.950 . S
H652 C682 0.950 1_445 S
H653 C683 0.950 . S
C654 H636 0.951 . S
C654 C655 1.366 . S
C654 C656 1.388 . S
C655 C654 1.366 . S
C655 C659 1.385 . S
C656 H637 0.951 . S
C656 C654 1.388 . S
C656 C657 1.366 . S
C657 C656 1.366 . S
C657 C658 1.414 . S
C657 C660 1.499 . S
C658 H638 0.950 . S
C658 C657 1.414 . S
C658 C659 1.374 . S
C659 H639 0.950 . S
C659 C655 1.385 . S
C659 C658 1.374 . S
C660 C657 1.499 . S
C660 C661 1.373 . S
C660 C662 1.389 . S
C661 H640 0.950 . S
C661 C660 1.373 . S
C661 C677 1.377 . S
C662 C660 1.389 . S
C662 C663 1.524 . S
C662 C676 1.377 . S
C663 C662 1.524 . S
C663 C664 1.397 . S
C663 C668 1.363 . S
C664 H641 0.950 . S
C664 C663 1.397 . S
C664 C665 1.334 . S
C665 H642 0.950 . S
C665 C664 1.334 . S
C665 C666 1.287 . S
C666 C665 1.287 . S
C666 C667 1.524 . S
C666 H685 0.913 . S
C667 H643 0.950 . S
C667 C666 1.524 . S
C667 C668 1.415 . S
C668 H644 0.950 . S
C668 C663 1.363 . S
C668 C667 1.415 . S
C669 H645 0.951 . S
C669 C670 1.366 . S
C669 C671 1.388 . S
C670 C669 1.366 . S
C670 C674 1.385 . S
C671 H646 0.951 . S
C671 C669 1.388 . S
C671 C672 1.366 . S
C672 C671 1.366 . S
C672 C673 1.414 . S
C672 C675 1.499 . S
C673 H647 0.950 . S
C673 C672 1.414 . S
C673 C674 1.374 . S
C674 H648 0.950 . S
C674 C670 1.385 . S
C674 C673 1.374 . S
C675 C672 1.499 . S
C675 C676 1.373 . S
C675 C677 1.389 . S
C676 H649 0.950 . S
C676 C662 1.377 . S
C676 C675 1.373 . S
C677 C661 1.377 . S
C677 C675 1.389 . S
C677 C678 1.524 . S
C678 C677 1.524 . S
C678 C679 1.397 . S
C678 C683 1.363 . S
C679 H650 0.950 . S
C679 C678 1.397 . S
C679 C680 1.334 1_565 S
C680 H651 0.950 . S
C680 C679 1.334 1_545 S
C680 C681 1.287 1_655 S
C681 C680 1.287 1_455 S
C681 C682 1.524 1_445 S
C681 H684 0.999 . S
C682 H652 0.950 1_665 S
C682 C681 1.524 1_665 S
C682 C683 1.415 . S
C683 H653 0.950 . S
C683 C678 1.363 . S
C683 C682 1.415 . S
H684 C681 0.999 . S
H685 C666 0.913 . S
H686 C704 0.951 . S
H687 C706 0.951 . S
H688 C708 0.950 . S
H689 C709 0.950 . S
H690 C711 0.950 . S
H691 C714 0.950 1_545 S
H692 C715 0.950 . S
H693 C717 0.950 . S
H694 C718 0.950 . S
H695 C719 0.951 . S
H696 C721 0.951 . S
H697 C723 0.950 . S
H698 C724 0.950 1_554 S
H699 C726 0.950 . S
H700 C729 0.950 . S
H701 C730 0.950 . S
H702 C732 0.950 . S
H703 C733 0.950 . S
C704 H686 0.951 . S
C704 C705 1.366 . S
C704 C706 1.388 . S
C705 C704 1.366 . S
C705 C709 1.385 1_565 S
C706 H687 0.951 . S
C706 C704 1.388 . S
C706 C707 1.366 1_565 S
C707 C706 1.366 1_545 S
C707 C708 1.414 . S
C707 C710 1.499 . S
C708 H688 0.950 . S
C708 C707 1.414 . S
C708 C709 1.374 . S
C709 H689 0.950 . S
C709 C705 1.385 1_545 S
C709 C708 1.374 . S
C710 C707 1.499 . S
C710 C711 1.373 . S
C710 C712 1.389 . S
C711 H690 0.950 . S
C711 C710 1.373 . S
C711 C727 1.377 . S
C712 C710 1.389 . S
C712 C713 1.524 1_545 S
C712 C726 1.377 . S
C713 C712 1.524 1_565 S
C713 C714 1.397 . S
C713 C718 1.363 . S
C714 H691 0.950 1_565 S
C714 C713 1.397 . S
C714 C715 1.334 . S
C715 H692 0.950 . S
C715 C714 1.334 . S
C715 C716 1.287 . S
C716 C715 1.287 . S
C716 C717 1.524 . S
C716 H735 0.913 1_455 S
C717 H693 0.950 . S
C717 C716 1.524 . S
C717 C718 1.415 . S
C718 H694 0.950 . S
C718 C713 1.363 . S
C718 C717 1.415 . S
C719 H695 0.951 . S
C719 C720 1.366 . S
C719 C721 1.388 . S
C720 C719 1.366 . S
C720 C724 1.385 . S
C721 H696 0.951 . S
C721 C719 1.388 . S
C721 C722 1.366 . S
C722 C721 1.366 . S
C722 C723 1.414 . S
C722 C725 1.499 . S
C723 H697 0.950 . S
C723 C722 1.414 . S
C723 C724 1.374 . S
C724 H698 0.950 1_556 S
C724 C720 1.385 . S
C724 C723 1.374 . S
C725 C722 1.499 . S
C725 C726 1.373 . S
C725 C727 1.389 . S
C726 H699 0.950 . S
C726 C712 1.377 . S
C726 C725 1.373 . S
C727 C711 1.377 . S
C727 C725 1.389 . S
C727 C728 1.524 . S
C728 C727 1.524 . S
C728 C729 1.397 . S
C728 C733 1.363 . S
C729 H700 0.950 . S
C729 C728 1.397 . S
C729 C730 1.334 . S
C730 H701 0.950 . S
C730 C729 1.334 . S
C730 C731 1.287 . S
C731 C730 1.287 . S
C731 C732 1.524 . S
C731 H734 0.999 . S
C732 H702 0.950 . S
C732 C731 1.524 . S
C732 C733 1.415 . S
C733 H703 0.950 . S
C733 C728 1.363 . S
C733 C732 1.415 . S
H734 C731 0.999 . S
H735 C716 0.913 1_655 S
H736 C754 0.951 . S
H737 C756 0.951 . S
H738 C758 0.950 . S
H739 C759 0.950 . S
H740 C761 0.950 . S
H741 C764 0.950 . S
H742 C765 0.930 1_554 S
H743 C767 0.950 . S
H744 C768 0.950 . S
H745 C769 0.951 . S
H746 C771 0.951 . S
H747 C773 0.950 . S
H748 C774 0.950 . S
H749 C776 0.950 . S
H750 C779 0.950 . S
H751 C780 0.950 . S
H752 C782 0.950 . S
H753 C783 0.950 . S
C754 H736 0.951 . S
C754 C755 1.366 . S
C754 C756 1.388 1_554 S
C755 C754 1.366 . S
C755 C759 1.385 1_554 S
C756 H737 0.951 . S
C756 C754 1.388 1_556 S
C756 C757 1.366 . S
C757 C756 1.366 . S
C757 C758 1.414 . S
C757 C760 1.499 . S
C758 H738 0.950 . S
C758 C757 1.414 . S
C758 C759 1.374 . S
C759 H739 0.950 . S
C759 C755 1.385 1_556 S
C759 C758 1.374 . S
C760 C757 1.499 . S
C760 C761 1.373 . S
C760 C762 1.389 . S
C761 H740 0.950 . S
C761 C760 1.373 . S
C761 C777 1.377 . S
C762 C760 1.389 . S
C762 C763 1.524 . S
C762 C776 1.377 . S
C763 C762 1.524 . S
C763 C764 1.397 . S
C763 C768 1.363 . S
C764 H741 0.950 . S
C764 C763 1.397 . S
C764 C765 1.334 . S
C765 H742 0.930 1_556 S
C765 C764 1.334 . S
C765 C766 1.287 . S
C766 C765 1.287 . S
C766 C767 1.524 . S
C766 H785 0.913 1_556 S
C767 H743 0.950 . S
C767 C766 1.524 . S
C767 C768 1.415 . S
C768 H744 0.950 . S
C768 C763 1.363 . S
C768 C767 1.415 . S
C769 H745 0.951 . S
C769 C770 1.366 . S
C769 C771 1.388 . S
C770 C769 1.366 . S
C770 C774 1.385 . S
C771 H746 0.951 . S
C771 C769 1.388 . S
C771 C772 1.366 . S
C772 C771 1.366 . S
C772 C773 1.414 . S
C772 C775 1.499 . S
C773 H747 0.950 . S
C773 C772 1.414 . S
C773 C774 1.374 . S
C774 H748 0.950 . S
C774 C770 1.385 . S
C774 C773 1.374 . S
C775 C772 1.499 . S
C775 C776 1.373 . S
C775 C777 1.389 . S
C776 H749 0.950 . S
C776 C762 1.377 . S
C776 C775 1.373 . S
C777 C761 1.377 . S
C777 C775 1.389 . S
C777 C778 1.524 . S
C778 C777 1.524 . S
C778 C779 1.397 . S
C778 C783 1.363 . S
C779 H750 0.950 . S
C779 C778 1.397 . S
C779 C780 1.334 . S
C780 H751 0.950 . S
C780 C779 1.334 . S
C780 C781 1.287 . S
C781 C780 1.287 . S
C781 C782 1.524 . S
C781 H784 0.999 . S
C782 H752 0.950 . S
C782 C781 1.524 . S
C782 C783 1.415 . S
C783 H753 0.950 . S
C783 C778 1.363 . S
C783 C782 1.415 . S
H784 C781 0.999 . S
H785 C766 0.913 1_554 S
H786 C804 0.951 . S
H787 C806 0.951 . S
H788 C808 0.950 . S
H789 C809 0.950 . S
H790 C811 0.950 . S
H791 C814 0.950 . S
H792 C815 0.950 . S
H793 C817 0.950 . S
H794 C818 0.950 . S
H795 C819 0.951 . S
H796 C821 0.951 1_545 S
H797 C823 0.950 . S
H798 C824 0.950 . S
H799 C826 0.950 . S
H800 C829 0.950 . S
H801 C830 0.950 . S
H802 C832 0.950 . S
H803 C833 0.950 . S
C804 H786 0.951 . S
C804 C805 1.366 . S
C804 C806 1.388 . S
C805 C804 1.366 . S
C805 C809 1.385 . S
C806 H787 0.951 . S
C806 C804 1.388 . S
C806 C807 1.366 . S
C807 C806 1.366 . S
C807 C808 1.414 . S
C807 C810 1.499 . S
C808 H788 0.950 . S
C808 C807 1.414 . S
C808 C809 1.374 . S
C809 H789 0.950 . S
C809 C805 1.385 . S
C809 C808 1.374 . S
C810 C807 1.499 . S
C810 C811 1.373 . S
C810 C812 1.389 1_545 S
C811 H790 0.950 . S
C811 C810 1.373 . S
C811 C827 1.377 . S
C812 C810 1.389 1_565 S
C812 C813 1.524 . S
C812 C826 1.377 . S
C813 C812 1.524 . S
C813 C814 1.397 . S
C813 C818 1.363 . S
C814 H791 0.950 . S
C814 C813 1.397 . S
C814 C815 1.334 . S
C815 H792 0.950 . S
C815 C814 1.334 . S
C815 C816 1.287 . S
C816 C815 1.287 . S
C816 C817 1.524 . S
C816 H835 0.913 . S
C817 H793 0.950 . S
C817 C816 1.524 . S
C817 C818 1.415 . S
C818 H794 0.950 . S
C818 C813 1.363 . S
C818 C817 1.415 . S
C819 H795 0.951 . S
C819 C820 1.366 . S
C819 C821 1.388 . S
C820 C819 1.366 . S
C820 C824 1.385 . S
C821 H796 0.951 1_565 S
C821 C819 1.388 . S
C821 C822 1.366 . S
C822 C821 1.366 . S
C822 C823 1.414 . S
C822 C825 1.499 1_565 S
C823 H797 0.950 . S
C823 C822 1.414 . S
C823 C824 1.374 . S
C824 H798 0.950 . S
C824 C820 1.385 . S
C824 C823 1.374 . S
C825 C822 1.499 1_545 S
C825 C826 1.373 1_545 S
C825 C827 1.389 . S
C826 H799 0.950 . S
C826 C812 1.377 . S
C826 C825 1.373 1_565 S
C827 C811 1.377 . S
C827 C825 1.389 . S
C827 C828 1.524 . S
C828 C827 1.524 . S
C828 C829 1.397 . S
C828 C833 1.363 . S
C829 H800 0.950 . S
C829 C828 1.397 . S
C829 C830 1.334 . S
C830 H801 0.950 . S
C830 C829 1.334 . S
C830 C831 1.287 . S
C831 C830 1.287 . S
C831 C832 1.524 . S
C831 H834 0.999 . S
C832 H802 0.950 . S
C832 C831 1.524 . S
C832 C833 1.415 . S
C833 H803 0.950 . S
C833 C828 1.363 . S
C833 C832 1.415 . S
H834 C831 0.999 . S
H835 C816 0.913 . S
H836 C854 0.951 . S
H837 C856 0.951 . S
H838 C858 0.950 . S
H839 C859 0.950 . S
H840 C861 0.950 . S
H841 C864 0.950 . S
H842 C865 0.950 . S
H843 C867 0.950 . S
H844 C868 0.950 . S
H845 C869 0.951 . S
H846 C871 0.951 . S
H847 C873 0.950 . S
H848 C874 0.950 . S
H849 C876 0.950 . S
H850 C879 0.950 . S
H851 C880 0.950 . S
H852 C882 0.950 . S
H853 C883 0.950 . S
C854 H836 0.951 . S
C854 C855 1.366 . S
C854 C856 1.388 . S
C855 C854 1.366 . S
C855 C859 1.385 . S
C856 H837 0.951 . S
C856 C854 1.388 . S
C856 C857 1.366 . S
C857 C856 1.366 . S
C857 C858 1.414 . S
C857 C860 1.499 . S
C858 H838 0.950 . S
C858 C857 1.414 . S
C858 C859 1.374 . S
C859 H839 0.950 . S
C859 C855 1.385 . S
C859 C858 1.374 . S
C860 C857 1.499 . S
C860 C861 1.373 . S
C860 C862 1.389 . S
C861 H840 0.950 . S
C861 C860 1.373 . S
C861 C877 1.377 . S
C862 C860 1.389 . S
C862 C863 1.524 . S
C862 C876 1.377 . S
C863 C862 1.524 . S
C863 C864 1.397 . S
C863 C868 1.363 . S
C864 H841 0.950 . S
C864 C863 1.397 . S
C864 C865 1.334 . S
C865 H842 0.950 . S
C865 C864 1.334 . S
C865 C866 1.287 . S
C866 C865 1.287 . S
C866 C867 1.524 . S
C866 H885 0.913 . S
C867 H843 0.950 . S
C867 C866 1.524 . S
C867 C868 1.415 . S
C868 H844 0.950 . S
C868 C863 1.363 . S
C868 C867 1.415 . S
C869 H845 0.951 . S
C869 C870 1.366 . S
C869 C871 1.388 . S
C870 C869 1.366 . S
C870 C874 1.385 . S
C871 H846 0.951 . S
C871 C869 1.388 . S
C871 C872 1.366 . S
C872 C871 1.366 . S
C872 C873 1.414 . S
C872 C875 1.499 . S
C873 H847 0.950 . S
C873 C872 1.414 . S
C873 C874 1.374 . S
C874 H848 0.950 . S
C874 C870 1.385 . S
C874 C873 1.374 . S
C875 C872 1.499 . S
C875 C876 1.373 . S
C875 C877 1.389 . S
C876 H849 0.950 . S
C876 C862 1.377 . S
C876 C875 1.373 . S
C877 C861 1.377 . S
C877 C875 1.389 . S
C877 C878 1.524 . S
C878 C877 1.524 . S
C878 C879 1.397 . S
C878 C883 1.363 . S
C879 H850 0.950 . S
C879 C878 1.397 . S
C879 C880 1.334 . S
C880 H851 0.950 . S
C880 C879 1.334 . S
C880 C881 1.287 . S
C881 C880 1.287 . S
C881 C882 1.524 . S
C881 H884 0.999 . S
C882 H852 0.950 . S
C882 C881 1.524 . S
C882 C883 1.415 . S
C883 H853 0.950 . S
C883 C878 1.363 . S
C883 C882 1.415 . S
H884 C881 0.999 . S
H885 C866 0.913 . S
H886 C904 0.951 . S
H887 C906 0.951 . S
H888 C908 0.950 . S
H889 C909 0.950 . S
H890 C911 0.950 . S
H891 C914 0.950 1_455 S
H892 C915 0.950 . S
H893 C917 0.950 . S
H894 C918 0.950 . S
H895 C919 0.951 . S
H896 C921 0.951 . S
H897 C923 0.950 . S
H898 C924 0.950 . S
H899 C926 0.950 . S
H900 C929 0.950 . S
H901 C930 0.950 . S
H902 C932 0.950 . S
H903 C933 0.950 . S
C904 H886 0.951 . S
C904 C905 1.366 . S
C904 C906 1.388 . S
C905 C904 1.366 . S
C905 C909 1.385 1_655 S
C906 H887 0.951 . S
C906 C904 1.388 . S
C906 C907 1.366 1_655 S
C907 C906 1.366 1_455 S
C907 C908 1.414 . S
C907 C910 1.499 . S
C908 H888 0.950 . S
C908 C907 1.414 . S
C908 C909 1.374 . S
C909 H889 0.950 . S
C909 C905 1.385 1_455 S
C909 C908 1.374 . S
C910 C907 1.499 . S
C910 C911 1.373 . S
C910 C912 1.389 . S
C911 H890 0.950 . S
C911 C910 1.373 . S
C911 C927 1.377 . S
C912 C910 1.389 . S
C912 C913 1.524 1_455 S
C912 C926 1.377 . S
C913 C912 1.524 1_655 S
C913 C914 1.397 . S
C913 C918 1.363 . S
C914 H891 0.950 1_655 S
C914 C913 1.397 . S
C914 C915 1.334 . S
C915 H892 0.950 . S
C915 C914 1.334 . S
C915 C916 1.287 . S
C916 C915 1.287 . S
C916 C917 1.524 . S
C916 H935 0.913 . S
C917 H893 0.950 . S
C917 C916 1.524 . S
C917 C918 1.415 . S
C918 H894 0.950 . S
C918 C913 1.363 . S
C918 C917 1.415 . S
C919 H895 0.951 . S
C919 C920 1.366 . S
C919 C921 1.388 . S
C920 C919 1.366 . S
C920 C924 1.385 . S
C921 H896 0.951 . S
C921 C919 1.388 . S
C921 C922 1.366 . S
C922 C921 1.366 . S
C922 C923 1.414 . S
C922 C925 1.499 . S
C923 H897 0.950 . S
C923 C922 1.414 . S
C923 C924 1.374 . S
C924 H898 0.950 . S
C924 C920 1.385 . S
C924 C923 1.374 . S
C925 C922 1.499 . S
C925 C926 1.373 . S
C925 C927 1.389 . S
C926 H899 0.950 . S
C926 C912 1.377 . S
C926 C925 1.373 . S
C927 C911 1.377 . S
C927 C925 1.389 . S
C927 C928 1.524 . S
C928 C927 1.524 . S
C928 C929 1.397 . S
C928 C933 1.363 . S
C929 H900 0.950 . S
C929 C928 1.397 . S
C929 C930 1.334 . S
C930 H901 0.950 . S
C930 C929 1.334 . S
C930 C931 1.287 . S
C931 C930 1.287 . S
C931 C932 1.524 . S
C931 H934 0.999 . S
C932 H902 0.950 . S
C932 C931 1.524 . S
C932 C933 1.415 . S
C933 H903 0.950 . S
C933 C928 1.363 . S
C933 C932 1.415 . S
H934 C931 0.999 . S
H935 C916 0.913 . S
C355 C242 0.614 1_565 S
C370 C63 0.614 . S
C405 C326 0.408 . S
C420 C158 0.665 . S
C455 C231 1.577 1_545 S
C470 C74 1.577 . S
C505 C147 1.654 . S
C520 C315 1.616 1_455 S
C555 C153 0.789 . S
C570 C56 0.793 . S
C605 C142 1.206 . S
C620 C226 1.026 . S
C655 C321 0.809 . S
C670 C237 0.809 . S
C705 C310 0.742 1_565 S
C720 C67 0.684 1_556 S
C755 C235 3.334 . S
C770 C319 3.337 . S
C805 C69 1.467 . S
C820 C308 1.792 . S
C855 C151 3.186 . S
C870 C58 3.150 . S
C905 C224 2.837 . S
C920 C140 2.896 . S
