# Generated by pormake.
# Topology smc, (6)-cn, num edge types: 1
# Building blocks:
#     Node 0, Type 0, BuildingBlock: LEVNOQ01_clean_sbu_1, # of connection points: 6
#     Node 1, Type 0, BuildingBlock: LEVNOQ01_clean_sbu_1, # of connection points: 6
#     Node 2, Type 0, BuildingBlock: LEVNOQ01_clean_sbu_1, # of connection points: 6
#     Node 3, Type 0, BuildingBlock: LEVNOQ01_clean_sbu_1, # of connection points: 6
#     Node 4, Type 0, BuildingBlock: LEVNOQ01_clean_sbu_1, # of connection points: 6
#     Node 5, Type 0, BuildingBlock: LEVNOQ01_clean_sbu_1, # of connection points: 6
#     Node 6, Type 0, BuildingBlock: LEVNOQ01_clean_sbu_1, # of connection points: 6
#     Node 7, Type 0, BuildingBlock: LEVNOQ01_clean_sbu_1, # of connection points: 6
#     Node 8, Type 0, BuildingBlock: LEVNOQ01_clean_sbu_1, # of connection points: 6
#     Edge 9, Type (0, 0), BuildingBlock: EYOCIG_clean_linker_4, # of connection points: 2
#     Edge 10, Type (0, 0), BuildingBlock: EYOCIG_clean_linker_4, # of connection points: 2
#     Edge 11, Type (0, 0), BuildingBlock: EYOCIG_clean_linker_4, # of connection points: 2
#     Edge 12, Type (0, 0), BuildingBlock: EYOCIG_clean_linker_4, # of connection points: 2
#     Edge 13, Type (0, 0), BuildingBlock: EYOCIG_clean_linker_4, # of connection points: 2
#     Edge 14, Type (0, 0), BuildingBlock: EYOCIG_clean_linker_4, # of connection points: 2
#     Edge 15, Type (0, 0), BuildingBlock: EYOCIG_clean_linker_4, # of connection points: 2
#     Edge 16, Type (0, 0), BuildingBlock: EYOCIG_clean_linker_4, # of connection points: 2
#     Edge 17, Type (0, 0), BuildingBlock: EYOCIG_clean_linker_4, # of connection points: 2
#     Edge 18, Type (0, 0), BuildingBlock: EYOCIG_clean_linker_4, # of connection points: 2
#     Edge 19, Type (0, 0), BuildingBlock: EYOCIG_clean_linker_4, # of connection points: 2
#     Edge 20, Type (0, 0), BuildingBlock: EYOCIG_clean_linker_4, # of connection points: 2
#     Edge 21, Type (0, 0), BuildingBlock: EYOCIG_clean_linker_4, # of connection points: 2
#     Edge 22, Type (0, 0), BuildingBlock: EYOCIG_clean_linker_4, # of connection points: 2
#     Edge 23, Type (0, 0), BuildingBlock: EYOCIG_clean_linker_4, # of connection points: 2
#     Edge 24, Type (0, 0), BuildingBlock: EYOCIG_clean_linker_4, # of connection points: 2
#     Edge 25, Type (0, 0), BuildingBlock: EYOCIG_clean_linker_4, # of connection points: 2
#     Edge 26, Type (0, 0), BuildingBlock: EYOCIG_clean_linker_4, # of connection points: 2
#     Edge 27, Type (0, 0), BuildingBlock: EYOCIG_clean_linker_4, # of connection points: 2
#     Edge 28, Type (0, 0), BuildingBlock: EYOCIG_clean_linker_4, # of connection points: 2
#     Edge 29, Type (0, 0), BuildingBlock: EYOCIG_clean_linker_4, # of connection points: 2
#     Edge 30, Type (0, 0), BuildingBlock: EYOCIG_clean_linker_4, # of connection points: 2
#     Edge 31, Type (0, 0), BuildingBlock: EYOCIG_clean_linker_4, # of connection points: 2
#     Edge 32, Type (0, 0), BuildingBlock: EYOCIG_clean_linker_4, # of connection points: 2
#     Edge 33, Type (0, 0), BuildingBlock: EYOCIG_clean_linker_4, # of connection points: 2
#     Edge 34, Type (0, 0), BuildingBlock: EYOCIG_clean_linker_4, # of connection points: 2
#     Edge 35, Type (0, 0), BuildingBlock: EYOCIG_clean_linker_4, # of connection points: 2
# Relax obj value: 0.149
# Max RMSD: 0.230
# Mean RMSD: 0.230
data_MOF--net-smc--node1-LEVNOQ01_clean_sbu_1--edge1-EYOCIG_clean_linker_4
_symmetry_space_group_name_H-M    P1
_symmetry_Int_Tables_number       1
_symmetry_cell_setting            triclinic
loop_
_symmetry_equiv_pos_as_xyz
'x, y, z'
_cell_length_a     25.090065
_cell_length_b     25.118505
_cell_length_c     32.527002
_cell_angle_alpha  89.961215
_cell_angle_beta   90.006065
_cell_angle_gamma 119.9497
loop_
_atom_site_label
_atom_site_type_symbol
_atom_site_fract_x
_atom_site_fract_y
_atom_site_fract_z
_atom_type_partial_charge
O0 O 0.82464 0.31988 0.08556 0.0
Mg1 Mg 0.86947 0.40512 0.11814 0.0
O2 O 0.89263 0.33755 1.03544 0.0
Mg3 Mg -0.03154 0.43969 0.0426 0.0
O4 O -0.04029 0.43245 0.11241 0.0
O5 O 0.91639 0.41511 0.17363 0.0
O6 O 0.03983 0.54413 0.05162 0.0
O7 O 0.04404 0.41296 0.05035 0.0
Mg8 Mg 0.06739 0.50273 0.96708 0.0
O9 O -0.0229 0.44012 0.97279 0.0
O10 O 0.08199 0.58669 0.99154 0.0
O11 O 0.11212 0.46252 1.00016 0.0
O12 O 0.02075 0.46559 0.91161 0.0
C13 C 0.86524 0.48849 0.0552 0.0
C14 C 0.84209 0.30265 0.05405 0.0
C15 C -0.03573 0.42881 0.15174 0.0
C16 C 0.07196 0.59126 1.02919 0.0
C17 C 0.09458 0.4282 1.03185 0.0
C18 C -0.02729 0.43182 0.93347 0.0
O19 O 0.85511 0.4743 0.09291 0.0
O20 O 0.89733 0.47309 1.03302 0.0
O21 O 0.48712 0.64484 0.99967 0.0
Mg22 Mg 0.44671 0.55966 0.96702 0.0
O23 O 0.53737 0.62703 0.04978 0.0
Mg24 Mg 0.51106 0.5249 0.04253 0.0
O25 O 0.50957 0.53225 0.97274 0.0
O26 O 0.48366 0.54972 0.91152 0.0
O27 O 0.47799 0.42048 1.03341 0.0
O28 O 0.61334 0.55161 1.03479 0.0
Mg29 Mg 0.5469 0.46167 0.11797 0.0
O30 O 0.51925 0.52434 0.11235 0.0
O31 O 0.47755 0.37777 0.09344 0.0
O32 O 0.63185 0.50193 0.08492 0.0
O33 O 0.5374 0.49871 0.17349 0.0
C34 C 0.35908 0.47619 1.02991 0.0
C35 C 0.52178 0.66199 1.0312 0.0
C36 C 0.5178 0.53595 0.93342 0.0
C37 C 0.46298 0.37329 0.05579 0.0
C38 C 0.64863 0.53631 0.05325 0.0
C39 C 0.52315 0.53255 0.15168 0.0
O40 O 0.36315 0.49047 0.99221 0.0
O41 O 0.40654 0.49152 0.0521 0.0
O42 O 0.30585 0.83898 0.99937 0.0
Mg43 Mg 0.39114 0.88412 0.96673 0.0
O44 O 0.3234 0.90655 0.04966 0.0
Mg45 Mg 0.42569 -0.01768 0.04253 0.0
O46 O 0.41838 -0.0258 0.97267 0.0
O47 O 0.40102 0.93121 0.91136 0.0
O48 O 0.53027 0.05361 1.03348 0.0
O49 O 0.3991 0.05803 1.03521 0.0
Mg50 Mg 0.48905 0.08045 0.11823 0.0
O51 O 0.4261 -0.00963 0.11241 0.0
O52 O 0.57301 0.09499 0.09363 0.0
O53 O 0.44904 0.12566 0.08548 0.0
O54 O 0.4519 0.03366 0.17365 0.0
C55 C 0.4745 0.87924 1.02933 0.0
C56 C 0.28853 0.85616 1.03097 0.0
C57 C 0.4147 -0.02108 0.93336 0.0
C58 C 0.57751 0.08538 0.0559 0.0
C59 C 0.41459 0.10845 0.05385 0.0
C60 C 0.4179 -0.01417 0.15175 0.0
O61 O 0.46045 0.86958 0.99159 0.0
O62 O 0.45901 0.91105 0.0517 0.0
O63 O 0.77865 0.79604 0.33317 0.0
Mg64 Mg 0.73393 0.83637 0.30019 0.0
O65 O 0.7106 0.74634 0.38335 0.0
Mg66 Mg 0.63501 0.77307 0.37578 0.0
O67 O 0.64364 0.77383 0.30598 0.0
O68 O 0.6871 0.79923 0.24476 0.0
O69 O 0.56388 0.8065 0.36636 0.0
O70 O 0.55917 0.67095 0.36851 0.0
Mg71 Mg 0.5362 0.73841 0.45132 0.0
O72 O 0.6264 0.76554 0.44561 0.0
O73 O 0.52188 0.80775 0.42633 0.0
O74 O 0.49123 0.65327 0.41866 0.0
O75 O 0.58298 0.74818 0.50682 0.0
C76 C 0.7385 0.92469 0.36252 0.0
C77 C 0.76112 0.76163 0.36482 0.0
C78 C 0.63915 0.76539 0.26668 0.0
C79 C 0.5319 0.82195 0.38862 0.0
C80 C 0.50863 0.63605 0.38711 0.0
C81 C 0.6309 0.76194 0.48495 0.0
O82 O 0.74851 0.92023 0.32485 0.0
O83 O 0.70639 0.8775 0.38491 0.0
O84 O 0.15386 -0.02163 0.33299 0.0
Mg85 Mg 0.1135 0.89324 0.30029 0.0
O86 O 0.20394 0.96045 0.38316 0.0
Mg87 Mg 0.17764 0.85832 0.37587 0.0
O88 O 0.17629 0.86576 0.30608 0.0
O89 O 0.15057 0.88333 0.24483 0.0
O90 O 0.14458 0.7539 0.36671 0.0
O91 O 0.27993 0.88504 0.36822 0.0
Mg92 Mg 0.21331 0.79498 0.45132 0.0
O93 O 0.18571 0.85769 0.44569 0.0
O94 O 0.14398 0.71112 0.42674 0.0
O95 O 0.29832 0.83526 0.41834 0.0
O96 O 0.20374 0.83197 0.50684 0.0
C97 C 0.02571 0.80967 0.36308 0.0
C98 C 0.18842 -0.00454 0.36457 0.0
C99 C 0.18462 0.86948 0.26677 0.0
C100 C 0.1295 0.70669 0.38908 0.0
C101 C 0.31518 0.86971 0.38671 0.0
C102 C 0.18956 0.86586 0.48502 0.0
O103 O 0.02988 0.82404 0.3254 0.0
O104 O 0.0731 0.82493 0.38532 0.0
O105 O -0.02766 0.17232 0.3328 0.0
Mg106 Mg 0.05761 0.21743 0.30015 0.0
O107 O -0.01007 0.23994 0.38307 0.0
Mg108 Mg 0.09221 0.31571 0.37589 0.0
O109 O 0.08487 0.30752 0.30603 0.0
O110 O 0.06747 0.26443 0.24475 0.0
O111 O 0.19677 0.38701 0.3668 0.0
O112 O 0.06561 0.39142 0.36855 0.0
Mg113 Mg 0.15561 0.41393 0.45155 0.0
O114 O 0.0927 0.32384 0.44576 0.0
O115 O 0.23957 0.4285 0.42692 0.0
O116 O 0.11556 0.45908 0.4188 0.0
O117 O 0.1185 0.36714 0.50699 0.0
C118 C 0.14101 0.21261 0.36273 0.0
C119 C 0.95504 0.18953 0.36441 0.0
C120 C 0.08118 0.31218 0.26671 0.0
C121 C 0.24403 0.41884 0.38919 0.0
C122 C 0.0811 0.44185 0.38717 0.0
C123 C 0.08451 0.3193 0.4851 0.0
O124 O 0.12692 0.20289 0.325 0.0
O125 O 0.12556 0.24446 0.38509 0.0
O126 O 0.44532 0.12918 0.66658 0.0
Mg127 Mg 0.40067 0.16959 0.63361 0.0
O128 O 0.37721 0.07945 0.71673 0.0
Mg129 Mg 0.30163 0.1062 0.70915 0.0
O130 O 0.31038 0.10708 0.63936 0.0
O131 O 0.35385 0.1325 0.57815 0.0
O132 O 0.23052 0.13965 0.69971 0.0
O133 O 0.2258 0.00409 0.70179 0.0
Mg134 Mg 0.20269 0.07139 0.78462 0.0
O135 O 0.29292 0.09859 0.77897 0.0
O136 O 0.18835 0.14072 0.75965 0.0
O137 O 0.15779 -0.01372 0.75192 0.0
O138 O 0.2494 0.08112 0.84015 0.0
C139 C 0.4052 0.25782 0.696 0.0
C140 C 0.42776 0.09474 0.69822 0.0
C141 C 0.30589 0.09867 0.60006 0.0
C142 C 0.19847 0.15501 0.72195 0.0
C143 C 0.17524 0.96914 0.72036 0.0
C144 C 0.29737 0.09497 0.81832 0.0
O145 O 0.41528 0.25342 0.65834 0.0
O146 O 0.37302 0.21061 0.71835 0.0
O147 O 0.82037 0.31136 0.66624 0.0
Mg148 Mg 0.78001 0.22615 0.63362 0.0
O149 O 0.87057 0.2936 0.71641 0.0
Mg150 Mg 0.84426 0.19146 0.70923 0.0
O151 O 0.84288 0.19877 0.63943 0.0
O152 O 0.81706 0.21619 0.57817 0.0
O153 O 0.8112 0.08702 0.70019 0.0
O154 O 0.94656 0.21817 0.70156 0.0
Mg155 Mg 0.88004 0.12832 0.78476 0.0
O156 O 0.8524 0.19098 0.77906 0.0
O157 O 0.81069 0.0444 0.76027 0.0
O158 O -0.03499 0.16853 0.75175 0.0
O159 O 0.8705 0.16543 0.84023 0.0
C160 C 0.6923 0.14271 0.69647 0.0
C161 C 0.855 0.32854 0.69778 0.0
C162 C 0.85118 0.20245 0.60011 0.0
C163 C 0.79615 0.03987 0.72261 0.0
C164 C -0.01817 0.2029 0.72008 0.0
C165 C 0.85627 0.19925 0.81838 0.0
O166 O 0.69644 0.15695 0.65877 0.0
O167 O 0.73973 0.15808 0.71872 0.0
O168 O 0.78234 0.7922 0.75242 0.0
Mg169 Mg 0.82254 0.74707 0.78506 0.0
O170 O 0.73224 0.72457 0.70218 0.0
Mg171 Mg 0.75885 0.64885 0.70932 0.0
O172 O 0.75971 0.65699 0.77918 0.0
O173 O 0.78544 0.70007 0.84046 0.0
O174 O 0.7922 0.57759 0.71835 0.0
O175 O 0.65658 0.57308 0.71665 0.0
Mg176 Mg 0.72407 0.5507 0.63359 0.0
O177 O 0.75118 0.64078 0.63945 0.0
O178 O 0.79351 0.53618 0.65819 0.0
O179 O 0.63889 0.50549 0.66635 0.0
O180 O 0.73368 0.59756 0.57819 0.0
C181 C 0.91071 0.75197 0.72244 0.0
C182 C 0.74778 0.77498 0.72084 0.0
C183 C 0.75138 0.65233 0.8185 0.0
C184 C 0.80766 0.54582 0.69592 0.0
C185 C 0.62167 0.52267 0.698 0.0
C186 C 0.74751 0.64537 0.60011 0.0
O187 O 0.90638 0.76162 0.76019 0.0
O188 O 0.86339 0.72015 0.7001 0.0
C189 C 0.245 0.42366 0.05549 0.0
C190 C 0.29908 0.44667 0.04811 0.0
C191 C 0.18331 0.40999 0.05579 0.0
C192 C 0.13752 0.41273 0.04927 0.0
C193 C 0.52661 0.81712 0.05458 0.0
C194 C 0.50377 0.84838 0.04735 0.0
C195 C 0.54008 0.76898 0.0548 0.0
C196 C 0.53726 0.72046 0.04836 0.0
C197 C 0.1816 0.76711 0.05448 0.0
C198 C 0.23006 0.81295 0.04811 0.0
C199 C 0.13367 0.70547 0.05422 0.0
C200 C 0.10259 0.65141 0.04705 0.0
C201 C 0.39672 0.1975 1.0303 0.0
C202 C 0.39931 0.15164 1.03667 0.0
C203 C 0.41046 0.25915 1.03062 0.0
C204 C 0.43345 0.31319 0.03787 0.0
C205 C 0.69178 0.14752 1.03075 0.0
C206 C 0.63767 0.11627 0.03795 0.0
C207 C 0.75337 0.19564 1.03053 0.0
C208 C 0.79908 0.24416 1.03693 0.0
C209 C 0.80364 0.54097 1.0296 0.0
C210 C 0.83473 0.51798 1.03698 0.0
C211 C 0.75558 0.5546 1.02932 0.0
C212 C 0.70704 0.55182 1.03585 0.0
C213 C 0.84986 0.74339 0.38871 0.0
C214 C 0.80409 0.74616 0.38218 0.0
C215 C 0.91155 0.75705 0.38849 0.0
C216 C -0.03435 0.78009 0.38119 0.0
C217 C 0.19316 0.15053 0.388 0.0
C218 C 0.17032 0.18178 0.38077 0.0
C219 C 0.20665 0.1024 0.38821 0.0
C220 C 0.20385 0.0539 0.38176 0.0
C221 C 0.84813 0.10048 0.38794 0.0
C222 C 0.89658 0.14633 0.38156 0.0
C223 C 0.80021 0.03884 0.38766 0.0
C224 C 0.76913 -0.01521 0.38044 0.0
C225 C 0.077 0.59255 0.36388 0.0
C226 C 0.09999 0.6466 0.37113 0.0
C227 C 0.06325 0.53089 0.36358 0.0
C228 C 0.06583 0.48503 0.36997 0.0
C229 C 0.35825 0.48097 0.36393 0.0
C230 C 0.30417 0.44972 0.37119 0.0
C231 C 0.41985 0.52908 0.36363 0.0
C232 C 0.46559 0.57758 0.37 0.0
C233 C 0.42218 0.88806 0.36285 0.0
C234 C 0.37363 0.88525 0.36935 0.0
C235 C 0.47026 0.87445 0.36313 0.0
C236 C 0.50134 0.85144 0.37047 0.0
C237 C 0.57816 0.09015 0.72192 0.0
C238 C 0.63226 0.11317 0.71461 0.0
C239 C 0.51647 0.07649 0.72214 0.0
C240 C 0.4707 0.07926 0.7156 0.0
C241 C 0.8733 0.43556 0.72131 0.0
C242 C 0.87047 0.38703 0.7149 0.0
C243 C 0.85983 0.48369 0.72108 0.0
C244 C 0.83697 0.51494 0.71387 0.0
C245 C 0.51481 0.43358 0.72156 0.0
C246 C 0.56324 0.47945 0.71519 0.0
C247 C 0.4669 0.37193 0.72124 0.0
C248 C 0.43581 0.3179 0.71397 0.0
C249 C 0.72987 0.86402 0.69732 0.0
C250 C 0.73248 0.81817 0.7037 0.0
C251 C 0.7436 0.92567 0.69757 0.0
C252 C 0.7666 -0.02027 0.70474 0.0
C253 C 0.02488 0.8141 0.69708 0.0
C254 C -0.02919 0.78285 0.70438 0.0
C255 C 0.08648 0.86221 0.69678 0.0
C256 C 0.13222 0.9107 0.70319 0.0
C257 C 0.13687 0.20756 0.69647 0.0
C258 C 0.16794 0.18454 0.70381 0.0
C259 C 0.08881 0.22119 0.69619 0.0
C260 C 0.04026 0.2184 0.7027 0.0
C261 C 0.07243 0.39643 0.22419 0.0
C262 C 0.07904 0.3629 0.24774 0.0
C263 C 0.04858 0.42019 0.19437 0.0
C264 C 0.01501 0.42671 0.17079 0.0
C265 C 0.55489 0.67255 0.22418 0.0
C266 C 0.58839 0.71263 0.24772 0.0
C267 C 0.53122 0.62502 0.19438 0.0
C268 C 0.52487 0.58509 0.17078 0.0
C269 C 0.32511 0.90162 0.1944 0.0
C270 C 0.36516 0.93512 0.1708 0.0
C271 C 0.27752 0.87792 0.22423 0.0
C272 C 0.23742 0.87145 0.24778 0.0
C273 C 0.40578 0.0631 0.89089 0.0
C274 C 0.41247 0.02962 0.91444 0.0
C275 C 0.38182 0.08675 0.86107 0.0
C276 C 0.34817 0.0931 0.83745 0.0
C277 C 0.88826 0.33931 0.89084 0.0
C278 C 0.92185 0.37926 0.91443 0.0
C279 C 0.86447 0.29182 0.86101 0.0
C280 C 0.85805 0.25185 0.83742 0.0
C281 C 0.65834 0.56819 0.86101 0.0
C282 C 0.69849 0.60167 0.83746 0.0
C283 C 0.61071 0.54448 0.89081 0.0
C284 C 0.57061 0.53799 0.91438 0.0
C285 C 0.71525 0.75349 0.52766 0.0
C286 C 0.68167 0.75995 0.50405 0.0
C287 C 0.73905 0.72971 0.55751 0.0
C288 C 0.74554 0.69615 0.5811 0.0
C289 C 0.19779 0.9584 0.52773 0.0
C290 C 0.19137 0.91845 0.50412 0.0
C291 C 0.22154 0.00592 0.55754 0.0
C292 C 0.25509 0.04597 0.58109 0.0
C293 C 0.9442 0.21115 0.55758 0.0
C294 C 0.90406 0.20457 0.58113 0.0
C295 C -0.0082 0.23498 0.52776 0.0
C296 C 0.03182 0.26855 0.50416 0.0
loop_
_geom_bond_atom_site_label_1
_geom_bond_atom_site_label_2
_geom_bond_distance
_geom_bond_site_symmetry_2
_ccdc_geom_bond_type
O0 Mg1 1.990 . S
O0 C14 1.253 . S
Mg1 O0 1.990 . S
Mg1 O4 2.180 . S
Mg1 O5 2.117 . S
Mg1 O19 2.030 . S
O2 Mg3 2.072 1_656 S
O2 C14 1.260 1_556 S
Mg3 O2 2.072 1_454 S
Mg3 O4 2.099 1_455 S
Mg3 O6 2.079 . S
Mg3 O7 2.072 . S
Mg3 O9 2.099 1_554 S
Mg3 O20 2.079 1_455 S
O4 Mg1 2.180 . S
O4 Mg3 2.099 1_655 S
O4 C15 1.279 1_655 S
O5 Mg1 2.117 . S
O5 C15 1.250 1_655 S
O6 Mg3 2.079 . S
O6 C16 1.264 1_554 S
O7 Mg3 2.072 . S
O7 C17 1.260 1_554 S
Mg8 O9 2.180 . S
Mg8 O10 2.030 . S
Mg8 O11 1.990 . S
Mg8 O12 2.117 . S
O9 Mg3 2.099 1_556 S
O9 Mg8 2.180 . S
O9 C18 1.279 . S
O10 Mg8 2.030 . S
O10 C16 1.248 . S
O11 Mg8 1.990 . S
O11 C17 1.253 . S
O12 Mg8 2.117 . S
O12 C18 1.250 . S
C13 O19 1.248 . S
C13 O20 1.264 . S
C14 O0 1.253 . S
C14 O2 1.260 1_554 S
C15 O4 1.279 1_455 S
C15 O5 1.250 1_455 S
C16 O6 1.264 1_556 S
C16 O10 1.248 . S
C17 O7 1.260 1_556 S
C17 O11 1.253 . S
C18 O9 1.279 . S
C18 O12 1.250 . S
O19 Mg1 2.030 . S
O19 C13 1.248 . S
O20 Mg3 2.079 1_655 S
O20 C13 1.264 . S
O21 Mg22 1.990 . S
O21 C35 1.253 . S
Mg22 O21 1.990 . S
Mg22 O25 2.180 . S
Mg22 O26 2.117 . S
Mg22 O40 2.030 . S
O23 Mg24 2.072 . S
O23 C35 1.260 1_554 S
Mg24 O23 2.072 . S
Mg24 O25 2.099 1_554 S
Mg24 O27 2.079 . S
Mg24 O28 2.072 1_554 S
Mg24 O30 2.099 . S
Mg24 O41 2.079 . S
O25 Mg22 2.180 . S
O25 Mg24 2.099 1_556 S
O25 C36 1.279 . S
O26 Mg22 2.117 . S
O26 C36 1.250 . S
O27 Mg24 2.079 . S
O27 C37 1.264 . S
O28 Mg24 2.072 1_556 S
O28 C38 1.260 1_556 S
Mg29 O30 2.180 . S
Mg29 O31 2.030 . S
Mg29 O32 1.990 . S
Mg29 O33 2.117 . S
O30 Mg24 2.099 . S
O30 Mg29 2.180 . S
O30 C39 1.279 . S
O31 Mg29 2.030 . S
O31 C37 1.248 . S
O32 Mg29 1.990 . S
O32 C38 1.253 . S
O33 Mg29 2.117 . S
O33 C39 1.250 . S
C34 O40 1.248 . S
C34 O41 1.264 1_556 S
C35 O21 1.253 . S
C35 O23 1.260 1_556 S
C36 O25 1.279 . S
C36 O26 1.250 . S
C37 O27 1.264 . S
C37 O31 1.248 . S
C38 O28 1.260 1_554 S
C38 O32 1.253 . S
C39 O30 1.279 . S
C39 O33 1.250 . S
O40 Mg22 2.030 . S
O40 C34 1.248 . S
O41 Mg24 2.079 . S
O41 C34 1.264 1_554 S
O42 Mg43 1.990 . S
O42 C56 1.253 . S
Mg43 O42 1.990 . S
Mg43 O46 2.180 . S
Mg43 O47 2.117 . S
Mg43 O61 2.030 . S
O44 Mg45 2.072 1_565 S
O44 C56 1.260 1_554 S
Mg45 O44 2.072 1_545 S
Mg45 O46 2.099 1_544 S
Mg45 O48 2.079 . S
Mg45 O49 2.072 1_554 S
Mg45 O51 2.099 . S
Mg45 O62 2.079 1_545 S
O46 Mg43 2.180 . S
O46 Mg45 2.099 1_566 S
O46 C57 1.279 1_565 S
O47 Mg43 2.117 . S
O47 C57 1.250 1_565 S
O48 Mg45 2.079 . S
O48 C58 1.264 . S
O49 Mg45 2.072 1_556 S
O49 C59 1.260 1_556 S
Mg50 O51 2.180 . S
Mg50 O52 2.030 . S
Mg50 O53 1.990 . S
Mg50 O54 2.117 . S
O51 Mg45 2.099 . S
O51 Mg50 2.180 . S
O51 C60 1.279 . S
O52 Mg50 2.030 . S
O52 C58 1.248 . S
O53 Mg50 1.990 . S
O53 C59 1.253 . S
O54 Mg50 2.117 . S
O54 C60 1.250 . S
C55 O61 1.248 . S
C55 O62 1.264 1_556 S
C56 O42 1.253 . S
C56 O44 1.260 1_556 S
C57 O46 1.279 1_545 S
C57 O47 1.250 1_545 S
C58 O48 1.264 . S
C58 O52 1.248 . S
C59 O49 1.260 1_554 S
C59 O53 1.253 . S
C60 O51 1.279 . S
C60 O54 1.250 . S
O61 Mg43 2.030 . S
O61 C55 1.248 . S
O62 Mg45 2.079 1_565 S
O62 C55 1.264 1_554 S
O63 Mg64 1.990 . S
O63 C77 1.253 . S
Mg64 O63 1.990 . S
Mg64 O67 2.180 . S
Mg64 O68 2.117 . S
Mg64 O82 2.030 . S
O65 Mg66 2.072 . S
O65 C77 1.260 . S
Mg66 O65 2.072 . S
Mg66 O67 2.099 . S
Mg66 O69 2.079 . S
Mg66 O70 2.072 . S
Mg66 O72 2.099 . S
Mg66 O83 2.079 . S
O67 Mg64 2.180 . S
O67 Mg66 2.099 . S
O67 C78 1.279 . S
O68 Mg64 2.117 . S
O68 C78 1.250 . S
O69 Mg66 2.079 . S
O69 C79 1.264 . S
O70 Mg66 2.072 . S
O70 C80 1.260 . S
Mg71 O72 2.180 . S
Mg71 O73 2.030 . S
Mg71 O74 1.990 . S
Mg71 O75 2.117 . S
O72 Mg66 2.099 . S
O72 Mg71 2.180 . S
O72 C81 1.279 . S
O73 Mg71 2.030 . S
O73 C79 1.248 . S
O74 Mg71 1.990 . S
O74 C80 1.253 . S
O75 Mg71 2.117 . S
O75 C81 1.250 . S
C76 O82 1.248 . S
C76 O83 1.264 . S
C77 O63 1.253 . S
C77 O65 1.260 . S
C78 O67 1.279 . S
C78 O68 1.250 . S
C79 O69 1.264 . S
C79 O73 1.248 . S
C80 O70 1.260 . S
C80 O74 1.253 . S
C81 O72 1.279 . S
C81 O75 1.250 . S
O82 Mg64 2.030 . S
O82 C76 1.248 . S
O83 Mg66 2.079 . S
O83 C76 1.264 . S
O84 Mg85 1.990 1_545 S
O84 C98 1.253 . S
Mg85 O84 1.990 1_565 S
Mg85 O88 2.180 . S
Mg85 O89 2.117 . S
Mg85 O103 2.030 . S
O86 Mg87 2.072 . S
O86 C98 1.260 1_565 S
Mg87 O86 2.072 . S
Mg87 O88 2.099 . S
Mg87 O90 2.079 . S
Mg87 O91 2.072 . S
Mg87 O93 2.099 . S
Mg87 O104 2.079 . S
O88 Mg85 2.180 . S
O88 Mg87 2.099 . S
O88 C99 1.279 . S
O89 Mg85 2.117 . S
O89 C99 1.250 . S
O90 Mg87 2.079 . S
O90 C100 1.264 . S
O91 Mg87 2.072 . S
O91 C101 1.260 . S
Mg92 O93 2.180 . S
Mg92 O94 2.030 . S
Mg92 O95 1.990 . S
Mg92 O96 2.117 . S
O93 Mg87 2.099 . S
O93 Mg92 2.180 . S
O93 C102 1.279 . S
O94 Mg92 2.030 . S
O94 C100 1.248 . S
O95 Mg92 1.990 . S
O95 C101 1.253 . S
O96 Mg92 2.117 . S
O96 C102 1.250 . S
C97 O103 1.248 . S
C97 O104 1.264 . S
C98 O84 1.253 . S
C98 O86 1.260 1_545 S
C99 O88 1.279 . S
C99 O89 1.250 . S
C100 O90 1.264 . S
C100 O94 1.248 . S
C101 O91 1.260 . S
C101 O95 1.253 . S
C102 O93 1.279 . S
C102 O96 1.250 . S
O103 Mg85 2.030 . S
O103 C97 1.248 . S
O104 Mg87 2.079 . S
O104 C97 1.264 . S
O105 Mg106 1.990 . S
O105 C119 1.253 . S
Mg106 O105 1.990 . S
Mg106 O109 2.180 . S
Mg106 O110 2.117 . S
Mg106 O124 2.030 . S
O107 Mg108 2.072 . S
O107 C119 1.260 . S
Mg108 O107 2.072 . S
Mg108 O109 2.099 . S
Mg108 O111 2.079 . S
Mg108 O112 2.072 . S
Mg108 O114 2.099 . S
Mg108 O125 2.079 . S
O109 Mg106 2.180 . S
O109 Mg108 2.099 . S
O109 C120 1.279 . S
O110 Mg106 2.117 . S
O110 C120 1.250 . S
O111 Mg108 2.079 . S
O111 C121 1.264 . S
O112 Mg108 2.072 . S
O112 C122 1.260 . S
Mg113 O114 2.180 . S
Mg113 O115 2.030 . S
Mg113 O116 1.990 . S
Mg113 O117 2.117 . S
O114 Mg108 2.099 . S
O114 Mg113 2.180 . S
O114 C123 1.279 . S
O115 Mg113 2.030 . S
O115 C121 1.248 . S
O116 Mg113 1.990 . S
O116 C122 1.253 . S
O117 Mg113 2.117 . S
O117 C123 1.250 . S
C118 O124 1.248 . S
C118 O125 1.264 . S
C119 O105 1.253 . S
C119 O107 1.260 . S
C120 O109 1.279 . S
C120 O110 1.250 . S
C121 O111 1.264 . S
C121 O115 1.248 . S
C122 O112 1.260 . S
C122 O116 1.253 . S
C123 O114 1.279 . S
C123 O117 1.250 . S
O124 Mg106 2.030 . S
O124 C118 1.248 . S
O125 Mg108 2.079 . S
O125 C118 1.264 . S
O126 Mg127 1.990 . S
O126 C140 1.253 . S
Mg127 O126 1.990 . S
Mg127 O130 2.180 . S
Mg127 O131 2.117 . S
Mg127 O145 2.030 . S
O128 Mg129 2.072 . S
O128 C140 1.260 . S
Mg129 O128 2.072 . S
Mg129 O130 2.099 . S
Mg129 O132 2.079 . S
Mg129 O133 2.072 . S
Mg129 O135 2.099 . S
Mg129 O146 2.079 . S
O130 Mg127 2.180 . S
O130 Mg129 2.099 . S
O130 C141 1.279 . S
O131 Mg127 2.117 . S
O131 C141 1.250 . S
O132 Mg129 2.079 . S
O132 C142 1.264 . S
O133 Mg129 2.072 . S
O133 C143 1.260 . S
Mg134 O135 2.180 . S
Mg134 O136 2.030 . S
Mg134 O137 1.990 . S
Mg134 O138 2.117 . S
O135 Mg129 2.099 . S
O135 Mg134 2.180 . S
O135 C144 1.279 . S
O136 Mg134 2.030 . S
O136 C142 1.248 . S
O137 Mg134 1.990 . S
O137 C143 1.253 . S
O138 Mg134 2.117 . S
O138 C144 1.250 . S
C139 O145 1.248 . S
C139 O146 1.264 . S
C140 O126 1.253 . S
C140 O128 1.260 . S
C141 O130 1.279 . S
C141 O131 1.250 . S
C142 O132 1.264 . S
C142 O136 1.248 . S
C143 O133 1.260 . S
C143 O137 1.253 . S
C144 O135 1.279 . S
C144 O138 1.250 . S
O145 Mg127 2.030 . S
O145 C139 1.248 . S
O146 Mg129 2.079 . S
O146 C139 1.264 . S
O147 Mg148 1.990 . S
O147 C161 1.253 . S
Mg148 O147 1.990 . S
Mg148 O151 2.180 . S
Mg148 O152 2.117 . S
Mg148 O166 2.030 . S
O149 Mg150 2.072 . S
O149 C161 1.260 . S
Mg150 O149 2.072 . S
Mg150 O151 2.099 . S
Mg150 O153 2.079 . S
Mg150 O154 2.072 . S
Mg150 O156 2.099 . S
Mg150 O167 2.079 . S
O151 Mg148 2.180 . S
O151 Mg150 2.099 . S
O151 C162 1.279 . S
O152 Mg148 2.117 . S
O152 C162 1.250 . S
O153 Mg150 2.079 . S
O153 C163 1.264 . S
O154 Mg150 2.072 . S
O154 C164 1.260 1_655 S
Mg155 O156 2.180 . S
Mg155 O157 2.030 . S
Mg155 O158 1.990 1_655 S
Mg155 O159 2.117 . S
O156 Mg150 2.099 . S
O156 Mg155 2.180 . S
O156 C165 1.279 . S
O157 Mg155 2.030 . S
O157 C163 1.248 . S
O158 Mg155 1.990 1_455 S
O158 C164 1.253 . S
O159 Mg155 2.117 . S
O159 C165 1.250 . S
C160 O166 1.248 . S
C160 O167 1.264 . S
C161 O147 1.253 . S
C161 O149 1.260 . S
C162 O151 1.279 . S
C162 O152 1.250 . S
C163 O153 1.264 . S
C163 O157 1.248 . S
C164 O154 1.260 1_455 S
C164 O158 1.253 . S
C165 O156 1.279 . S
C165 O159 1.250 . S
O166 Mg148 2.030 . S
O166 C160 1.248 . S
O167 Mg150 2.079 . S
O167 C160 1.264 . S
O168 Mg169 1.990 . S
O168 C182 1.253 . S
Mg169 O168 1.990 . S
Mg169 O172 2.180 . S
Mg169 O173 2.117 . S
Mg169 O187 2.030 . S
O170 Mg171 2.072 . S
O170 C182 1.260 . S
Mg171 O170 2.072 . S
Mg171 O172 2.099 . S
Mg171 O174 2.079 . S
Mg171 O175 2.072 . S
Mg171 O177 2.099 . S
Mg171 O188 2.079 . S
O172 Mg169 2.180 . S
O172 Mg171 2.099 . S
O172 C183 1.279 . S
O173 Mg169 2.117 . S
O173 C183 1.250 . S
O174 Mg171 2.079 . S
O174 C184 1.264 . S
O175 Mg171 2.072 . S
O175 C185 1.260 . S
Mg176 O177 2.180 . S
Mg176 O178 2.030 . S
Mg176 O179 1.990 . S
Mg176 O180 2.117 . S
O177 Mg171 2.099 . S
O177 Mg176 2.180 . S
O177 C186 1.279 . S
O178 Mg176 2.030 . S
O178 C184 1.248 . S
O179 Mg176 1.990 . S
O179 C185 1.253 . S
O180 Mg176 2.117 . S
O180 C186 1.250 . S
C181 O187 1.248 . S
C181 O188 1.264 . S
C182 O168 1.253 . S
C182 O170 1.260 . S
C183 O172 1.279 . S
C183 O173 1.250 . S
C184 O174 1.264 . S
C184 O178 1.248 . S
C185 O175 1.260 . S
C185 O179 1.253 . S
C186 O177 1.279 . S
C186 O180 1.250 . S
O187 Mg169 2.030 . S
O187 C181 1.248 . S
O188 Mg171 2.079 . S
O188 C181 1.264 . S
C189 C190 1.170 . S
C189 C191 1.380 . S
C190 C189 1.170 . S
C191 C189 1.380 . S
C191 C192 1.170 . S
C192 C191 1.170 . S
C193 C194 1.171 . S
C193 C195 1.381 . S
C194 C193 1.171 . S
C195 C193 1.381 . S
C195 C196 1.170 . S
C196 C195 1.170 . S
C197 C198 1.170 . S
C197 C199 1.380 . S
C198 C197 1.170 . S
C199 C197 1.380 . S
C199 C200 1.170 . S
C200 C199 1.170 . S
C201 C202 1.170 . S
C201 C203 1.380 . S
C202 C201 1.170 . S
C203 C201 1.380 . S
C203 C204 1.170 . S
C204 C203 1.170 . S
C205 C206 1.170 . S
C205 C207 1.380 . S
C206 C205 1.170 . S
C207 C205 1.380 . S
C207 C208 1.170 . S
C208 C207 1.170 . S
C209 C210 1.170 . S
C209 C211 1.380 . S
C210 C209 1.170 . S
C211 C209 1.380 . S
C211 C212 1.170 . S
C212 C211 1.170 . S
C213 C214 1.170 . S
C213 C215 1.380 . S
C214 C213 1.170 . S
C215 C213 1.380 . S
C215 C216 1.170 1_655 S
C216 C215 1.170 1_455 S
C217 C218 1.170 . S
C217 C219 1.380 . S
C218 C217 1.170 . S
C219 C217 1.380 . S
C219 C220 1.170 . S
C220 C219 1.170 . S
C221 C222 1.170 . S
C221 C223 1.380 . S
C222 C221 1.170 . S
C223 C221 1.380 . S
C223 C224 1.170 . S
C224 C223 1.170 . S
C225 C226 1.170 . S
C225 C227 1.380 . S
C226 C225 1.170 . S
C227 C225 1.380 . S
C227 C228 1.170 . S
C228 C227 1.170 . S
C229 C230 1.170 . S
C229 C231 1.380 . S
C230 C229 1.170 . S
C231 C229 1.380 . S
C231 C232 1.170 . S
C232 C231 1.170 . S
C233 C234 1.170 . S
C233 C235 1.380 . S
C234 C233 1.170 . S
C235 C233 1.380 . S
C235 C236 1.170 . S
C236 C235 1.170 . S
C237 C238 1.170 . S
C237 C239 1.380 . S
C238 C237 1.170 . S
C239 C237 1.380 . S
C239 C240 1.170 . S
C240 C239 1.170 . S
C241 C242 1.170 . S
C241 C243 1.380 . S
C242 C241 1.170 . S
C243 C241 1.380 . S
C243 C244 1.170 . S
C244 C243 1.170 . S
C245 C246 1.170 . S
C245 C247 1.380 . S
C246 C245 1.170 . S
C247 C245 1.380 . S
C247 C248 1.170 . S
C248 C247 1.170 . S
C249 C250 1.170 . S
C249 C251 1.380 . S
C250 C249 1.170 . S
C251 C249 1.380 . S
C251 C252 1.170 1_565 S
C252 C251 1.170 1_545 S
C253 C254 1.170 . S
C253 C255 1.380 . S
C254 C253 1.170 . S
C255 C253 1.380 . S
C255 C256 1.170 . S
C256 C255 1.170 . S
C257 C258 1.170 . S
C257 C259 1.380 . S
C258 C257 1.170 . S
C259 C257 1.380 . S
C259 C260 1.170 . S
C260 C259 1.170 . S
C261 C262 1.170 . S
C261 C263 1.380 . S
C262 C261 1.170 . S
C263 C261 1.380 . S
C263 C264 1.170 . S
C264 C263 1.170 . S
C265 C266 1.170 . S
C265 C267 1.380 . S
C266 C265 1.170 . S
C267 C265 1.380 . S
C267 C268 1.170 . S
C268 C267 1.170 . S
C269 C270 1.170 . S
C269 C271 1.380 . S
C270 C269 1.170 . S
C271 C269 1.380 . S
C271 C272 1.170 . S
C272 C271 1.170 . S
C273 C274 1.170 . S
C273 C275 1.380 . S
C274 C273 1.170 . S
C275 C273 1.380 . S
C275 C276 1.170 . S
C276 C275 1.170 . S
C277 C278 1.170 . S
C277 C279 1.380 . S
C278 C277 1.170 . S
C279 C277 1.380 . S
C279 C280 1.170 . S
C280 C279 1.170 . S
C281 C282 1.170 . S
C281 C283 1.380 . S
C282 C281 1.170 . S
C283 C281 1.380 . S
C283 C284 1.170 . S
C284 C283 1.170 . S
C285 C286 1.170 . S
C285 C287 1.380 . S
C286 C285 1.170 . S
C287 C285 1.380 . S
C287 C288 1.170 . S
C288 C287 1.170 . S
C289 C290 1.170 . S
C289 C291 1.380 1_565 S
C290 C289 1.170 . S
C291 C289 1.380 1_545 S
C291 C292 1.170 . S
C292 C291 1.170 . S
C293 C294 1.170 . S
C293 C295 1.380 1_655 S
C294 C293 1.170 . S
C295 C293 1.380 1_455 S
C295 C296 1.170 . S
C296 C295 1.170 . S
C190 C34 1.215 1_554 S
C192 C17 1.165 1_554 S
C194 C55 1.179 1_554 S
C196 C35 1.098 1_554 S
C198 C56 1.162 1_554 S
C200 C16 1.210 1_554 S
C202 C59 1.119 . S
C204 C37 1.186 . S
C206 C58 1.208 . S
C208 C14 1.159 . S
C210 C13 1.203 . S
C212 C38 1.140 . S
C214 C77 1.103 . S
C216 C97 1.182 . S
C218 C118 1.214 . S
C220 C98 1.167 . S
C222 C119 1.145 1_655 S
C224 C76 1.200 1_545 S
C226 C100 1.215 . S
C228 C122 1.169 . S
C230 C121 1.184 . S
C232 C80 1.114 . S
C234 C101 1.138 . S
C236 C79 1.202 . S
C238 C160 1.211 . S
C240 C140 1.156 . S
C242 C161 1.140 . S
C244 C184 1.203 . S
C246 C185 1.155 . S
C248 C139 1.206 . S
C250 C182 1.163 . S
C252 C163 1.211 . S
C254 C181 1.215 1_455 S
C256 C143 1.167 1_565 S
C258 C142 1.178 . S
C260 C164 1.100 . S
C262 C120 1.790 . S
C264 C15 1.765 . S
C266 C78 1.758 . S
C268 C39 1.747 . S
C270 C60 1.795 1_565 S
C272 C99 1.773 . S
C274 C57 1.791 . S
C276 C144 1.799 . S
C278 C18 1.798 1_655 S
C280 C165 1.778 . S
C282 C183 1.759 . S
C284 C36 1.784 . S
C286 C81 1.762 . S
C288 C186 1.788 . S
C290 C102 1.781 . S
C292 C141 1.756 . S
C294 C162 1.795 . S
C296 C123 1.772 . S
