# Generated by pormake.
# Topology ure, (4)-cn, num edge types: 1
# Building blocks:
#     Node 0, Type 0, BuildingBlock: GALJAG_clean_sbu_0, # of connection points: 4
#     Node 1, Type 0, BuildingBlock: GALJAG_clean_sbu_0, # of connection points: 4
#     Node 2, Type 0, BuildingBlock: GALJAG_clean_sbu_0, # of connection points: 4
#     Node 3, Type 0, BuildingBlock: GALJAG_clean_sbu_0, # of connection points: 4
#     Node 4, Type 0, BuildingBlock: GALJAG_clean_sbu_0, # of connection points: 4
#     Node 5, Type 0, BuildingBlock: GALJAG_clean_sbu_0, # of connection points: 4
#     Node 6, Type 0, BuildingBlock: GALJAG_clean_sbu_0, # of connection points: 4
#     Node 7, Type 0, BuildingBlock: GALJAG_clean_sbu_0, # of connection points: 4
#     Node 8, Type 0, BuildingBlock: GALJAG_clean_sbu_0, # of connection points: 4
#     Node 9, Type 0, BuildingBlock: GALJAG_clean_sbu_0, # of connection points: 4
#     Node 10, Type 0, BuildingBlock: GALJAG_clean_sbu_0, # of connection points: 4
#     Node 11, Type 0, BuildingBlock: GALJAG_clean_sbu_0, # of connection points: 4
#     Node 12, Type 0, BuildingBlock: GALJAG_clean_sbu_0, # of connection points: 4
#     Node 13, Type 0, BuildingBlock: GALJAG_clean_sbu_0, # of connection points: 4
#     Node 14, Type 0, BuildingBlock: GALJAG_clean_sbu_0, # of connection points: 4
#     Node 15, Type 0, BuildingBlock: GALJAG_clean_sbu_0, # of connection points: 4
#     Edge 16, Type (0, 0), BuildingBlock: EZIPEK_clean_linker_0, # of connection points: 2
#     Edge 17, Type (0, 0), BuildingBlock: EZIPEK_clean_linker_0, # of connection points: 2
#     Edge 18, Type (0, 0), BuildingBlock: EZIPEK_clean_linker_0, # of connection points: 2
#     Edge 19, Type (0, 0), BuildingBlock: EZIPEK_clean_linker_0, # of connection points: 2
#     Edge 20, Type (0, 0), BuildingBlock: EZIPEK_clean_linker_0, # of connection points: 2
#     Edge 21, Type (0, 0), BuildingBlock: EZIPEK_clean_linker_0, # of connection points: 2
#     Edge 22, Type (0, 0), BuildingBlock: EZIPEK_clean_linker_0, # of connection points: 2
#     Edge 23, Type (0, 0), BuildingBlock: EZIPEK_clean_linker_0, # of connection points: 2
#     Edge 24, Type (0, 0), BuildingBlock: EZIPEK_clean_linker_0, # of connection points: 2
#     Edge 25, Type (0, 0), BuildingBlock: EZIPEK_clean_linker_0, # of connection points: 2
#     Edge 26, Type (0, 0), BuildingBlock: EZIPEK_clean_linker_0, # of connection points: 2
#     Edge 27, Type (0, 0), BuildingBlock: EZIPEK_clean_linker_0, # of connection points: 2
#     Edge 28, Type (0, 0), BuildingBlock: EZIPEK_clean_linker_0, # of connection points: 2
#     Edge 29, Type (0, 0), BuildingBlock: EZIPEK_clean_linker_0, # of connection points: 2
#     Edge 30, Type (0, 0), BuildingBlock: EZIPEK_clean_linker_0, # of connection points: 2
#     Edge 31, Type (0, 0), BuildingBlock: EZIPEK_clean_linker_0, # of connection points: 2
#     Edge 32, Type (0, 0), BuildingBlock: EZIPEK_clean_linker_0, # of connection points: 2
#     Edge 33, Type (0, 0), BuildingBlock: EZIPEK_clean_linker_0, # of connection points: 2
#     Edge 34, Type (0, 0), BuildingBlock: EZIPEK_clean_linker_0, # of connection points: 2
#     Edge 35, Type (0, 0), BuildingBlock: EZIPEK_clean_linker_0, # of connection points: 2
#     Edge 36, Type (0, 0), BuildingBlock: EZIPEK_clean_linker_0, # of connection points: 2
#     Edge 37, Type (0, 0), BuildingBlock: EZIPEK_clean_linker_0, # of connection points: 2
#     Edge 38, Type (0, 0), BuildingBlock: EZIPEK_clean_linker_0, # of connection points: 2
#     Edge 39, Type (0, 0), BuildingBlock: EZIPEK_clean_linker_0, # of connection points: 2
#     Edge 40, Type (0, 0), BuildingBlock: EZIPEK_clean_linker_0, # of connection points: 2
#     Edge 41, Type (0, 0), BuildingBlock: EZIPEK_clean_linker_0, # of connection points: 2
#     Edge 42, Type (0, 0), BuildingBlock: EZIPEK_clean_linker_0, # of connection points: 2
#     Edge 43, Type (0, 0), BuildingBlock: EZIPEK_clean_linker_0, # of connection points: 2
#     Edge 44, Type (0, 0), BuildingBlock: EZIPEK_clean_linker_0, # of connection points: 2
#     Edge 45, Type (0, 0), BuildingBlock: EZIPEK_clean_linker_0, # of connection points: 2
#     Edge 46, Type (0, 0), BuildingBlock: EZIPEK_clean_linker_0, # of connection points: 2
#     Edge 47, Type (0, 0), BuildingBlock: EZIPEK_clean_linker_0, # of connection points: 2
# Relax obj value: 0.290
# Max RMSD: 0.221
# Mean RMSD: 0.173
data_MOF--net-ure--node1-GALJAG_clean_sbu_0--edge1-EZIPEK_clean_linker_0
_symmetry_space_group_name_H-M    P1
_symmetry_Int_Tables_number       1
_symmetry_cell_setting            triclinic
loop_
_symmetry_equiv_pos_as_xyz
'x, y, z'
_cell_length_a     20.357657
_cell_length_b     23.777506
_cell_length_c     23.745521
_cell_angle_alpha  99.745701
_cell_angle_beta   95.803656
_cell_angle_gamma 95.833214
loop_
_atom_site_label
_atom_site_type_symbol
_atom_site_fract_x
_atom_site_fract_y
_atom_site_fract_z
_atom_type_partial_charge
In0 In 0.28572 0.29754 0.31577 0.0
O1 O 0.19786 0.2505 0.2526 0.0
O2 O 0.26285 0.20078 0.29369 0.0
C3 C 0.28346 0.29733 0.42875 0.0
C4 C 0.39441 0.27515 0.26352 0.0
C5 C 0.26042 0.40394 0.3009 0.0
O6 O 0.23163 0.28218 0.39336 0.0
O7 O 0.33438 0.31445 0.40764 0.0
O8 O 0.31641 0.39353 0.32184 0.0
O9 O 0.21632 0.36101 0.2887 0.0
C10 C 0.21307 0.20135 0.2579 0.0
O11 O 0.34677 0.29607 0.2398 0.0
O12 O 0.38829 0.26749 0.31406 0.0
In13 In 0.07968 0.05749 0.57374 0.0
O14 O 0.14068 0.09134 0.66191 0.0
O15 O 0.09316 0.0054 0.64467 0.0
C16 C 0.0986 0.16289 0.54701 0.0
C17 C 0.12648 0.9785 0.499 0.0
C18 C 0.94624 0.04275 0.55906 0.0
O19 O 0.06084 0.15086 0.58324 0.0
O20 O 0.13005 0.12278 0.52645 0.0
O21 O 0.98028 0.04484 0.51778 0.0
O22 O 0.9792 0.04743 0.60786 0.0
C23 C 0.1271 0.04542 0.68056 0.0
O24 O 0.06676 0.97422 0.50908 0.0
O25 O 0.16349 0.02182 0.5277 0.0
In26 In 0.33195 0.7813 0.80974 0.0
O27 O 0.2358 0.73552 0.75787 0.0
O28 O 0.24064 0.82454 0.79402 0.0
C29 C 0.36516 0.67299 0.79579 0.0
C30 C 0.3986 0.84374 0.74473 0.0
C31 C 0.32162 0.812 0.92349 0.0
O32 O 0.31267 0.68726 0.81504 0.0
O33 O 0.40211 0.71385 0.78314 0.0
O34 O 0.36375 0.78025 0.90491 0.0
O35 O 0.29065 0.83353 0.88556 0.0
C36 C 0.20629 0.77989 0.76565 0.0
O37 O 0.41677 0.84949 0.79831 0.0
O38 O 0.34941 0.80672 0.72556 0.0
In39 In 0.52551 0.99113 0.02306 0.0
O40 O 0.46039 0.01647 0.94878 0.0
O41 O 0.48647 0.07787 0.02598 0.0
C42 C 0.52196 0.87672 0.99347 0.0
C43 C 0.64621 0.02678 0.99506 0.0
C44 C 0.49787 0.98566 0.13087 0.0
O45 O 0.47297 0.90236 0.97915 0.0
O46 O 0.57233 0.90877 0.02061 0.0
O47 O 0.55094 0.0122 0.1204 0.0
O48 O 0.45675 0.9649 0.08705 0.0
C49 C 0.45946 0.06734 0.97457 0.0
O50 O 0.62895 0.04167 0.04453 0.0
O51 O 0.60256 0.99268 0.96093 0.0
In52 In 0.27306 0.74523 0.24753 0.0
O53 O 0.23296 0.65097 0.21013 0.0
O54 O 0.26337 0.67331 0.2999 0.0
C55 C 0.25449 0.78388 0.14726 0.0
C56 C 0.22023 0.81835 0.32395 0.0
C57 C 0.40475 0.74305 0.25876 0.0
O58 O 0.21034 0.75047 0.16283 0.0
O59 O 0.30414 0.8013 0.18426 0.0
O60 O 0.37629 0.76878 0.29861 0.0
O61 O 0.36709 0.71932 0.21381 0.0
C62 C 0.24217 0.63407 0.2575 0.0
O63 O 0.28176 0.82046 0.32108 0.0
O64 O 0.18422 0.77962 0.28762 0.0
In65 In 0.52989 0.0179 0.48528 0.0
O66 O 0.46257 0.00739 0.556 0.0
O67 O 0.52557 0.9436 0.5346 0.0
C68 C 0.49561 0.12386 0.48606 0.0
C69 C 0.66094 0.02423 0.51406 0.0
C70 C 0.50337 0.97982 0.37042 0.0
O71 O 0.45466 0.07954 0.46709 0.0
O72 O 0.55197 0.11475 0.50725 0.0
O73 O 0.5563 0.00999 0.39428 0.0
O74 O 0.46399 0.9651 0.40467 0.0
C75 C 0.48411 0.96205 0.56679 0.0
O76 O 0.62826 0.98137 0.4805 0.0
O77 O 0.62758 0.06367 0.53329 0.0
In78 In 0.33632 0.32247 0.78871 0.0
O79 O 0.37522 0.23658 0.7973 0.0
O80 O 0.38087 0.29818 0.8734 0.0
C81 C 0.32298 0.30196 0.67294 0.0
C82 C 0.20932 0.31905 0.8085 0.0
C83 C 0.38304 0.43509 0.79955 0.0
O84 O 0.3796 0.31086 0.70249 0.0
O85 O 0.27414 0.30101 0.70147 0.0
O86 O 0.33759 0.41671 0.82629 0.0
O87 O 0.41032 0.3961 0.77112 0.0
C88 C 0.38896 0.24785 0.85111 0.0
O89 O 0.25331 0.35788 0.83579 0.0
O90 O 0.22983 0.28072 0.77334 0.0
In91 In 0.03299 0.95452 0.98324 0.0
O92 O 0.95178 0.99809 0.94072 0.0
O93 O 0.93601 0.97081 0.01946 0.0
C94 C 0.0957 0.97753 0.8935 0.0
C95 C 0.09108 0.01788 0.08238 0.0
C96 C 0.02249 0.84073 0.98182 0.0
O97 O 0.03858 0.94959 0.88756 0.0
O98 O 0.12314 0.9915 0.94473 0.0
O99 O 0.07829 0.87085 0.98769 0.0
O100 O 0.97284 0.86743 0.97456 0.0
C101 C 0.91392 0.9945 0.97904 0.0
O102 O 0.08188 0.96387 0.07568 0.0
O103 O 0.07273 0.03926 0.03931 0.0
In104 In 0.80548 0.24964 0.70184 0.0
O105 O 0.77763 0.27504 0.79121 0.0
O106 O 0.723 0.30483 0.72279 0.0
C107 C 0.93184 0.28374 0.74788 0.0
C108 C 0.77507 0.13899 0.70692 0.0
C109 C 0.79528 0.26594 0.59184 0.0
O110 O 0.88918 0.31833 0.74619 0.0
O111 O 0.9112 0.23223 0.72597 0.0
O112 O 0.76976 0.22081 0.60623 0.0
O113 O 0.82232 0.30416 0.63316 0.0
C114 C 0.73321 0.30454 0.77618 0.0
O115 O 0.82858 0.15845 0.69064 0.0
O116 O 0.73482 0.17513 0.71861 0.0
In117 In -0.0026 0.48204 0.93851 0.0
O118 O 0.0778 0.42547 0.91325 0.0
O119 O 0.10594 0.50764 0.96763 0.0
C120 C 0.95744 0.47635 0.82491 0.0
C121 C 0.94541 0.41672 0.01004 0.0
C122 C 0.99425 0.59574 0.97066 0.0
O123 O 0.00567 0.45264 0.84335 0.0
O124 O 0.92528 0.49878 0.86359 0.0
O125 O 0.94285 0.56007 0.96708 0.0
O126 O 0.04665 0.57396 0.96084 0.0
C127 C 0.12401 0.46248 0.94079 0.0
O128 O 0.92394 0.40957 0.95736 0.0
O129 O 0.99232 0.45658 0.02645 0.0
In130 In 0.80313 0.74904 0.20926 0.0
O131 O 0.82934 0.66066 0.22027 0.0
O132 O 0.8714 0.73178 0.28533 0.0
C133 C 0.81559 0.73476 0.09654 0.0
C134 C 0.68073 0.7303 0.23772 0.0
C135 C 0.82173 0.86537 0.22484 0.0
O136 O 0.86554 0.74191 0.13422 0.0
O137 O 0.76007 0.73078 0.11548 0.0
O138 O 0.76623 0.83624 0.2228 0.0
O139 O 0.87044 0.83627 0.22261 0.0
C140 C 0.86464 0.67805 0.26789 0.0
O141 O 0.72642 0.76337 0.27078 0.0
O142 O 0.69786 0.70376 0.19174 0.0
In143 In 0.04598 0.49163 0.49585 0.0
O144 O 0.12891 0.56086 0.54245 0.0
O145 O 0.14378 0.50923 0.46314 0.0
C146 C -0.00192 0.50275 0.59781 0.0
C147 C 0.97521 0.53489 0.41508 0.0
C148 C 0.06529 0.38012 0.48249 0.0
O149 O 0.05726 0.49453 0.5915 0.0
O150 O 0.96286 0.50846 0.5527 0.0
O151 O 0.01361 0.39826 0.50008 0.0
O152 O 0.10472 0.4171 0.46689 0.0
C153 C 0.16757 0.54822 0.50508 0.0
O154 O 0.97231 0.4813 0.41355 0.0
O155 O 0.01201 0.56543 0.4572 0.0
In156 In 0.53501 0.52405 0.99845 0.0
O157 O 0.61487 0.50402 0.94052 0.0
O158 O 0.55683 0.43407 0.96452 0.0
C159 C 0.4052 0.49159 0.96846 0.0
C160 C 0.57568 0.51207 0.10551 0.0
C161 C 0.53946 0.63577 0.98819 0.0
O162 O 0.44614 0.48848 0.9321 0.0
O163 O 0.42924 0.51155 0.01971 0.0
O164 O 0.54854 0.61999 0.03606 0.0
O165 O 0.53015 0.59559 0.94529 0.0
C166 C 0.6009 0.45029 0.9353 0.0
O167 O 0.61425 0.53762 0.0768 0.0
O168 O 0.51846 0.49289 0.08005 0.0
In169 In 0.80489 0.80498 0.76031 0.0
O170 O 0.91566 0.83008 0.78311 0.0
O171 O 0.88185 0.77225 0.7044 0.0
C172 C 0.77132 0.90596 0.73947 0.0
C173 C 0.73814 0.71448 0.69039 0.0
C174 C 0.79767 0.78536 0.86772 0.0
O175 O 0.80994 0.878 0.71108 0.0
O176 O 0.74666 0.88201 0.77734 0.0
O177 O 0.75144 0.76571 0.82756 0.0
O178 O 0.8438 0.81843 0.85466 0.0
C179 C 0.93025 0.79931 0.73862 0.0
O180 O 0.78078 0.70944 0.73097 0.0
O181 O 0.72679 0.76518 0.68709 0.0
In182 In 0.77477 0.21618 0.2332 0.0
O183 O 0.67232 0.17978 0.18331 0.0
O184 O 0.68259 0.26079 0.23947 0.0
C185 C 0.79999 0.10578 0.22581 0.0
C186 C 0.83897 0.27832 0.1656 0.0
C187 C 0.79407 0.25417 0.34786 0.0
O188 O 0.74682 0.12284 0.24131 0.0
O189 O 0.84038 0.14401 0.21268 0.0
O190 O 0.7546 0.2744 0.31457 0.0
O191 O 0.82718 0.21734 0.32333 0.0
C192 C 0.64436 0.22169 0.20575 0.0
O193 O 0.85773 0.28338 0.21865 0.0
O194 O 0.78964 0.24134 0.14665 0.0
In195 In 0.52032 0.46435 0.43424 0.0
O196 O 0.58383 0.4873 0.52016 0.0
O197 O 0.58804 0.54721 0.46233 0.0
C198 C 0.50368 0.35364 0.44295 0.0
C199 C 0.42067 0.52351 0.46866 0.0
C200 C 0.55797 0.46928 0.33025 0.0
O201 O 0.56014 0.38289 0.45289 0.0
O202 O 0.45627 0.3793 0.42624 0.0
O203 O 0.49806 0.45625 0.33762 0.0
O204 O 0.5993 0.4766 0.37486 0.0
C205 C 0.60589 0.53612 0.51121 0.0
O206 O 0.43636 0.51873 0.41819 0.0
O207 O 0.45045 0.49307 0.49884 0.0
C208 C 0.21812 0.1296 0.16977 0.0
C209 C 0.18386 0.14928 0.21712 0.0
C210 C 0.09125 0.07392 0.18107 0.0
C211 C 0.12644 0.0543 0.13453 0.0
N212 N 0.22918 0.05143 0.09288 0.0
N213 N 0.09522 0.13446 0.27495 0.0
C214 C 0.1921 0.07808 0.13192 0.0
C215 C 0.12268 0.11945 0.2252 0.0
N216 N 0.2731 0.16196 0.15875 0.0
N217 N 0.02712 0.05073 0.1816 0.0
H218 H 0.11692 0.16834 0.3075 0.0
H219 H 0.05395 0.11085 0.28578 0.0
H220 H 0.00391 0.01579 0.15092 0.0
H221 H -0.00396 0.06767 0.21061 0.0
H222 H 0.29583 0.15266 0.12145 0.0
H223 H 0.29249 0.2012 0.18428 0.0
H224 H 0.27969 0.06386 0.09254 0.0
H225 H 0.21094 0.01319 0.06458 0.0
C226 C 0.1266 0.93567 0.39541 0.0
C227 C 0.15015 0.93735 0.45418 0.0
C228 C 0.2129 0.85649 0.42728 0.0
C229 C 0.19334 0.85756 0.36839 0.0
N230 N 0.14021 0.90263 0.29531 0.0
N231 N 0.22121 0.9049 0.52665 0.0
C232 C 0.15205 0.89805 0.35204 0.0
C233 C 0.19522 0.89955 0.47029 0.0
N234 N 0.08027 0.97033 0.38106 0.0
N235 N 0.2458 0.81269 0.44205 0.0
H236 H 0.20654 0.93365 0.55996 0.0
H237 H 0.26044 0.88356 0.54017 0.0
H238 H 0.25832 0.77957 0.41176 0.0
H239 H 0.25566 0.80608 0.48414 0.0
H240 H 0.05516 0.96619 0.33988 0.0
H241 H 0.06399 0.00165 0.41097 0.0
H242 H 0.117 0.93554 0.28104 0.0
H243 H 0.15816 0.87594 0.26228 0.0
C244 C 0.46126 0.96538 0.67018 0.0
C245 C 0.46431 0.93307 0.61436 0.0
C246 C 0.44556 0.84419 0.65241 0.0
C247 C 0.4314 0.87595 0.70494 0.0
N248 N 0.41609 0.96744 0.76094 0.0
N249 N 0.44386 0.84087 0.55021 0.0
C250 C 0.43691 0.93683 0.71335 0.0
C251 C 0.45253 0.87216 0.60487 0.0
N252 N 0.48423 0.02265 0.68311 0.0
N253 N 0.45294 0.78718 0.64807 0.0
H254 H 0.44345 0.85963 0.51356 0.0
H255 H 0.42907 0.7967 0.54105 0.0
H256 H 0.45026 0.76571 0.6828 0.0
H257 H 0.46903 0.76323 0.61222 0.0
H258 H 0.48922 0.04641 0.72475 0.0
H259 H 0.50504 0.04519 0.65396 0.0
H260 H 0.41176 0.01124 0.76559 0.0
H261 H 0.39801 0.94847 0.79367 0.0
C262 C 0.48752 0.16174 0.94357 0.0
C263 C 0.43977 0.11385 0.94409 0.0
C264 C 0.35857 0.15344 0.88269 0.0
C265 C 0.40524 0.20314 0.88554 0.0
N266 N 0.50834 0.26002 0.9295 0.0
N267 N 0.32716 0.06751 0.9215 0.0
C268 C 0.46771 0.2091 0.91963 0.0
C269 C 0.37454 0.11043 0.91538 0.0
N270 N 0.55303 0.16057 0.96261 0.0
N271 N 0.29859 0.14764 0.84929 0.0
H272 H 0.33716 0.03563 0.9453 0.0
H273 H 0.27687 0.06578 0.90705 0.0
H274 H 0.28186 0.18034 0.82948 0.0
H275 H 0.26617 0.10963 0.8393 0.0
H276 H 0.59103 0.1913 0.95726 0.0
H277 H 0.57086 0.12588 0.97814 0.0
H278 H 0.55098 0.26887 0.95925 0.0
H279 H 0.49635 0.29549 0.91216 0.0
C280 C 0.73665 0.3804 0.86366 0.0
C281 C 0.69883 0.33902 0.81885 0.0
C282 C 0.59589 0.36889 0.85167 0.0
C283 C 0.63371 0.40941 0.89735 0.0
N284 N 0.73885 0.4432 0.95552 0.0
N285 N 0.59206 0.2897 0.77325 0.0
C286 C 0.70377 0.41223 0.9058 0.0
C287 C 0.62853 0.33196 0.81396 0.0
N288 N 0.80376 0.39216 0.8643 0.0
N289 N 0.52834 0.36437 0.84233 0.0
H290 H 0.61355 0.25968 0.74585 0.0
H291 H 0.54012 0.28354 0.76846 0.0
H292 H 0.49891 0.38912 0.86749 0.0
H293 H 0.49891 0.38912 0.86749 0.0
H294 H 0.83064 0.42899 0.88934 0.0
H295 H 0.83143 0.36936 0.83584 0.0
H296 H 0.78929 0.44148 0.96698 0.0
H297 H 0.71636 0.4661 0.98823 0.0
C298 C 0.89317 0.40857 0.10012 0.0
C299 C 0.9182 0.38127 0.05 0.0
C300 C 0.89922 0.28776 0.08037 0.0
C301 C 0.87009 0.31444 0.12819 0.0
N302 N 0.83267 0.39838 0.18158 0.0
N303 N 0.94236 0.29495 0.98995 0.0
C304 C 0.86597 0.37449 0.13798 0.0
C305 C 0.92005 0.32079 0.03922 0.0
N306 N 0.89449 0.4671 0.11112 0.0
N307 N 0.90996 0.23136 0.07607 0.0
H308 H 0.9642 0.31767 0.96139 0.0
H309 H 0.93668 0.25069 0.97565 0.0
H310 H 0.897 0.20647 0.10635 0.0
H311 H 0.9366 0.21022 0.04559 0.0
H312 H 0.88644 0.49051 0.15046 0.0
H313 H 0.90628 0.4932 0.08157 0.0
H314 H 0.82174 0.44061 0.18781 0.0
H315 H 0.8115 0.37498 0.20996 0.0
C316 C 0.95215 0.55707 0.316 0.0
C317 C 0.93635 0.5619 0.37329 0.0
C318 C 0.86454 0.63584 0.35738 0.0
C319 C 0.88888 0.63749 0.30365 0.0
N320 N 0.95896 0.60286 0.23255 0.0
N321 N 0.87636 0.60385 0.44913 0.0
C322 C 0.93287 0.59842 0.28272 0.0
C323 C 0.89189 0.60058 0.39402 0.0
N324 N 0.98549 0.51313 0.29347 0.0
N325 N 0.8133 0.66612 0.3723 0.0
H326 H 0.89005 0.57481 0.47528 0.0
H327 H 0.85198 0.6364 0.46975 0.0
H328 H 0.79153 0.69224 0.34656 0.0
H329 H 0.78833 0.66176 0.40776 0.0
H330 H 0.99293 0.50403 0.25029 0.0
H331 H 0.00029 0.48219 0.31666 0.0
H332 H -0.00309 0.58001 0.21821 0.0
H333 H 0.94654 0.63298 0.2073 0.0
C334 C 0.60561 0.62509 0.5825 0.0
C335 C 0.64068 0.58046 0.55765 0.0
C336 C 0.74178 0.62353 0.62002 0.0
C337 C 0.70465 0.66498 0.64847 0.0
N338 N 0.59766 0.69399 0.66782 0.0
N339 N 0.73819 0.53066 0.55853 0.0
C340 C 0.63542 0.66241 0.63306 0.0
C341 C 0.70741 0.57723 0.57867 0.0
N342 N 0.5445 0.63281 0.55754 0.0
N343 N 0.80975 0.6302 0.62922 0.0
H344 H 0.71546 0.49727 0.52592 0.0
H345 H 0.7844 0.52323 0.57705 0.0
H346 H 0.83777 0.6647 0.65704 0.0
H347 H 0.83892 0.60435 0.60496 0.0
H348 H 0.52052 0.6685 0.57113 0.0
H349 H 0.52021 0.6066 0.52023 0.0
H350 H 0.54585 0.68918 0.66106 0.0
H351 H 0.61742 0.7199 0.70706 0.0
C352 C 0.30024 0.35051 0.52914 0.0
C353 C 0.2854 0.2973 0.49097 0.0
C354 C 0.29113 0.24625 0.57256 0.0
C355 C 0.31337 0.2994 0.61 0.0
N356 N 0.34963 0.40117 0.62304 0.0
N357 N 0.27147 0.19371 0.47409 0.0
C358 C 0.32069 0.35132 0.5881 0.0
C359 C 0.28154 0.24478 0.51201 0.0
N360 N 0.29302 0.40041 0.50914 0.0
N361 N 0.27951 0.19737 0.595 0.0
H362 H 0.26282 0.19116 0.42963 0.0
H363 H 0.27544 0.154 0.48615 0.0
H364 H 0.28875 0.19667 0.63889 0.0
H365 H 0.25764 0.15811 0.57084 0.0
H366 H 0.29568 0.43995 0.53619 0.0
H367 H 0.27737 0.40151 0.46614 0.0
H368 H 0.36342 0.43867 0.6078 0.0
H369 H 0.36616 0.40368 0.66637 0.0
C370 C 0.1695 0.98561 0.81547 0.0
C371 C 0.11842 0.00572 0.84685 0.0
C372 C 0.09038 0.0676 0.7778 0.0
C373 C 0.13545 0.04203 0.74234 0.0
N374 N 0.22553 0.98512 0.72923 0.0
N375 N 0.04841 0.07982 0.87059 0.0
C376 C 0.17831 0.00423 0.76234 0.0
C377 C 0.08473 0.05139 0.83201 0.0
N378 N 0.20925 0.94934 0.83693 0.0
N379 N 0.0499 0.10445 0.75803 0.0
H380 H 0.04565 0.07027 0.91161 0.0
H381 H 0.02641 0.11631 0.86468 0.0
H382 H 0.05391 0.11937 0.7196 0.0
H383 H 0.01011 0.11868 0.77829 0.0
H384 H 0.25074 0.93595 0.81895 0.0
H385 H 0.20283 0.93518 0.87552 0.0
H386 H 0.25687 0.95526 0.73879 0.0
H387 H 0.23369 4e-05 0.69132 0.0
C388 C 0.29507 0.85602 0.02236 0.0
C389 C 0.29449 0.80747 0.97849 0.0
C390 C 0.2536 0.7441 0.04213 0.0
C391 C 0.25644 0.79259 0.08702 0.0
N392 N 0.2722 0.89678 0.11562 0.0
N393 N 0.24637 0.70983 0.93988 0.0
C394 C 0.27388 0.84875 0.07568 0.0
C395 C 0.26545 0.75289 0.98631 0.0
N396 N 0.31632 0.91021 0.01517 0.0
N397 N 0.24519 0.6893 0.05307 0.0
H398 H 0.25044 0.71571 0.89794 0.0
H399 H 0.2187 0.67111 0.94225 0.0
H400 H 0.23813 0.67917 0.09309 0.0
H401 H 0.25173 0.65339 0.02321 0.0
H402 H 0.33322 0.91985 0.97743 0.0
H403 H 0.33322 0.91985 0.97743 0.0
H404 H 0.25578 0.89607 0.15578 0.0
H405 H 0.25578 0.89607 0.15578 0.0
C406 C 0.4368 0.98969 0.27779 0.0
C407 C 0.48931 0.96645 0.30674 0.0
C408 C 0.54008 0.94634 0.21738 0.0
C409 C 0.48979 0.97268 0.18908 0.0
N410 N 0.38044 0.00392 0.18713 0.0
N411 N 0.57862 0.90789 0.30174 0.0
C412 C 0.43446 0.9886 0.21739 0.0
C413 C 0.53715 0.94011 0.27559 0.0
N414 N 0.39217 0.01685 0.30854 0.0
N415 N 0.59037 0.92676 0.18834 0.0
H416 H 0.57569 0.90137 0.34385 0.0
H417 H 0.61143 0.88342 0.28071 0.0
H418 H 0.58938 0.92284 0.14386 0.0
H419 H 0.63341 0.91477 0.20814 0.0
H420 H 0.35848 0.04144 0.29139 0.0
H421 H 0.39116 0.01786 0.35245 0.0
H422 H 0.3357 0.00945 0.20387 0.0
H423 H 0.37833 0.00753 0.14392 0.0
C424 C 0.46397 0.19795 0.23005 0.0
C425 C 0.45044 0.25584 0.23301 0.0
C426 C 0.5508 0.27695 0.1882 0.0
C427 C 0.57173 0.22469 0.19874 0.0
N428 N 0.54595 0.13043 0.22142 0.0
N429 N 0.4782 0.35041 0.21139 0.0
C430 C 0.52694 0.18288 0.21567 0.0
C431 C 0.49203 0.29509 0.20943 0.0
N432 N 0.41654 0.15765 0.24107 0.0
N433 N 0.5892 0.3081 0.15793 0.0
H434 H 0.43747 0.36595 0.22917 0.0
H435 H 0.50878 0.3823 0.19849 0.0
H436 H 0.57652 0.34504 0.14351 0.0
H437 H 0.57652 0.34504 0.14351 0.0
H438 H 0.42077 0.11397 0.23523 0.0
H439 H 0.3702 0.16724 0.25205 0.0
H440 H 0.51903 0.10036 0.23993 0.0
H441 H 0.58995 0.11673 0.20868 0.0
C442 C 0.11549 0.32406 0.55146 0.0
C443 C 0.08617 0.32555 0.495 0.0
C444 C 0.07913 0.22103 0.46952 0.0
C445 C 0.10166 0.21883 0.5277 0.0
N446 N 0.13938 0.26729 0.62506 0.0
N447 N 0.05139 0.2761 0.39715 0.0
C448 C 0.11987 0.27017 0.56889 0.0
C449 C 0.07211 0.27472 0.4532 0.0
N450 N 0.14136 0.37425 0.58761 0.0
N451 N 0.06045 0.17175 0.42983 0.0
H452 H 0.04623 0.31393 0.3812 0.0
H453 H 0.04623 0.31393 0.3812 0.0
H454 H 0.06185 0.13063 0.43923 0.0
H455 H 0.04181 0.17226 0.38735 0.0
H456 H 0.1693 0.37616 0.62725 0.0
H457 H 0.14059 0.41438 0.5756 0.0
H458 H 0.14335 0.30221 0.65871 0.0
H459 H 0.14895 0.22913 0.63865 0.0
C460 C 0.02061 0.7397 0.75175 0.0
C461 C -0.00129 0.78845 0.73258 0.0
C462 C 0.11226 0.822 0.71947 0.0
C463 C 0.13489 0.77906 0.74886 0.0
N464 N 0.10968 0.70659 0.80653 0.0
N465 N 0.02267 0.87887 0.70146 0.0
C466 C 0.08902 0.73984 0.76814 0.0
C467 C 0.04419 0.8305 0.71706 0.0
N468 N 0.97626 0.69382 0.75562 0.0
N469 N 0.15543 0.85369 0.69317 0.0
H470 H 0.97249 0.88502 0.69692 0.0
H471 H 0.05493 0.91405 0.69637 0.0
H472 H 0.20543 0.84743 0.69317 0.0
H473 H 0.14028 0.88208 0.6669 0.0
H474 H 0.991 0.65592 0.76632 0.0
H475 H 0.92521 0.692 0.74413 0.0
H476 H 0.0765 0.68435 0.82809 0.0
H477 H 0.15936 0.70587 0.82156 0.0
C478 C 0.57432 0.72779 0.95461 0.0
C479 C 0.53076 0.69584 0.98367 0.0
C480 C 0.47636 0.78134 0.01409 0.0
C481 C 0.51966 0.81342 0.98458 0.0
N482 N 0.60707 0.81479 0.92208 0.0
N483 N 0.4291 0.6874 0.02727 0.0
C484 C 0.56703 0.78604 0.95319 0.0
C485 C 0.47828 0.72119 0.00921 0.0
N486 N 0.62363 0.70298 0.92845 0.0
N487 N 0.43654 0.80877 0.04994 0.0
H488 H 0.42796 0.64294 0.02335 0.0
H489 H 0.38602 0.70234 0.04091 0.0
H490 H 0.43469 0.85293 0.05623 0.0
H491 H 0.40902 0.78857 0.07708 0.0
H492 H 0.65542 0.72505 0.90556 0.0
H493 H 0.63272 0.6608 0.92975 0.0
H494 H 0.60464 0.85745 0.91746 0.0
H495 H 0.60464 0.85745 0.91746 0.0
C496 C 0.57234 0.76203 0.20746 0.0
C497 C 0.61052 0.7343 0.24548 0.0
C498 C 0.51557 0.7202 0.29977 0.0
C499 C 0.47747 0.74637 0.2604 0.0
N500 N 0.47372 0.80814 0.19017 0.0
N501 N 0.62273 0.69007 0.32939 0.0
C502 C 0.50698 0.77159 0.21786 0.0
C503 C 0.5836 0.71497 0.29276 0.0
N504 N 0.59855 0.77976 0.16159 0.0
N505 N 0.48597 0.69916 0.34242 0.0
H506 H 0.6713 0.68276 0.32306 0.0
H507 H 0.60824 0.67669 0.36619 0.0
H508 H 0.43615 0.70182 0.34788 0.0
H509 H 0.50949 0.6782 0.37224 0.0
H510 H 0.57008 0.79198 0.12778 0.0
H511 H 0.6484 0.77996 0.15523 0.0
H512 H 0.49419 0.83187 0.16192 0.0
H513 H 0.42805 0.82013 0.20059 0.0
C514 C 0.50042 0.19197 0.41767 0.0
C515 C 0.48532 0.18045 0.47194 0.0
C516 C 0.47349 0.28144 0.5041 0.0
C517 C 0.49376 0.29386 0.45159 0.0
N518 N 0.53587 0.26341 0.36169 0.0
N519 N 0.45403 0.2128 0.56615 0.0
C520 C 0.50926 0.24971 0.40897 0.0
C521 C 0.47055 0.22467 0.51472 0.0
N522 N 0.50617 0.14758 0.37441 0.0
N523 N 0.45922 0.3234 0.54608 0.0
H524 H 0.44978 0.17122 0.57524 0.0
H525 H 0.44387 0.24457 0.5991 0.0
H526 H 0.46055 0.36668 0.54259 0.0
H527 H 0.46055 0.36668 0.54259 0.0
H528 H 0.512 0.15283 0.33266 0.0
H529 H 0.50009 0.10466 0.37894 0.0
H530 H 0.55815 0.23467 0.33384 0.0
H531 H 0.54028 0.30488 0.3524 0.0
C532 C 0.0989 0.27886 0.82982 0.0
C533 C 0.13787 0.32214 0.80969 0.0
C534 C 0.04043 0.34526 0.75396 0.0
C535 C 0.00103 0.30171 0.77374 0.0
N536 N 0.98826 0.24032 0.84406 0.0
N537 N 0.14292 0.40958 0.77081 0.0
C538 C 0.02886 0.27261 0.81613 0.0
C539 C 0.10752 0.36006 0.77821 0.0
N540 N 0.12907 0.24307 0.8607 0.0
N541 N 0.01571 0.36949 0.70926 0.0
H542 H 0.19165 0.42231 0.78983 0.0
H543 H 0.12148 0.44103 0.75209 0.0
H544 H 0.96736 0.35857 0.68858 0.0
H545 H 0.04508 0.39673 0.68925 0.0
H546 H 0.10401 0.20639 0.87083 0.0
H547 H 0.18015 0.24905 0.8741 0.0
H548 H 0.00556 0.22198 0.87869 0.0
H549 H 0.93652 0.23714 0.83657 0.0
C550 C 0.03751 0.75545 0.0293 0.0
C551 C 0.01503 0.77798 0.98012 0.0
C552 C 0.96619 0.68171 0.93014 0.0
C553 C 0.99306 0.65858 0.97763 0.0
N554 N 0.05807 0.67112 0.07038 0.0
N555 N 0.96233 0.76451 0.88292 0.0
C556 C 0.02971 0.69489 0.02673 0.0
C557 C 0.98025 0.74155 0.93039 0.0
N558 N 0.06357 0.79207 0.07917 0.0
N559 N 0.93018 0.6458 0.88372 0.0
H560 H 0.97934 0.80635 0.87892 0.0
H561 H 0.93116 0.74287 0.84697 0.0
H562 H 0.91701 0.60233 0.8828 0.0
H563 H 0.91032 0.65821 0.84641 0.0
H564 H 0.07444 0.77891 0.11833 0.0
H565 H 0.07004 0.83665 0.0827 0.0
H566 H 0.09227 0.69402 0.104 0.0
H567 H 0.04955 0.62736 0.07169 0.0
C568 C 0.29306 0.48343 0.24847 0.0
C569 C 0.25041 0.46052 0.28496 0.0
C570 C 0.19257 0.54654 0.29189 0.0
C571 C 0.24055 0.5725 0.26182 0.0
N572 N 0.34057 0.56754 0.21524 0.0
N573 N 0.15569 0.46867 0.33829 0.0
C574 C 0.29164 0.54128 0.2407 0.0
C575 C 0.1989 0.49139 0.30535 0.0
N576 N 0.3324 0.44879 0.21867 0.0
N577 N 0.14034 0.57378 0.30907 0.0
H578 H 0.15937 0.42941 0.35161 0.0
H579 H 0.11662 0.48997 0.3529 0.0
H580 H 0.13111 0.61408 0.30047 0.0
H581 H 0.13111 0.61408 0.30047 0.0
H582 H 0.35973 0.46097 0.18703 0.0
H583 H 0.33204 0.40535 0.22075 0.0
H584 H 0.38317 0.54929 0.20501 0.0
H585 H 0.34113 0.60936 0.20752 0.0
C586 C 0.82058 0.06544 0.75624 0.0
C587 C 0.76726 0.08114 0.72159 0.0
C588 C 0.70851 0.98424 0.71142 0.0
C589 C 0.76741 0.96665 0.73649 0.0
N590 N 0.88331 0.98944 0.77686 0.0
N591 N 0.66059 0.0557 0.66368 0.0
C592 C 0.8246 0.00687 0.75717 0.0
C593 C 0.71052 0.04091 0.69911 0.0
N594 N 0.86577 0.10677 0.79054 0.0
N595 N 0.65149 0.94659 0.69838 0.0
H596 H 0.66057 0.09671 0.65365 0.0
H597 H 0.62174 0.02624 0.64079 0.0
H598 H 0.64929 0.90422 0.70506 0.0
H599 H 0.60552 0.95842 0.68477 0.0
H600 H 0.90152 0.09752 0.82115 0.0
H601 H 0.8621 0.15058 0.79364 0.0
H602 H 0.92801 0.01666 0.78571 0.0
H603 H 0.88883 0.94714 0.78076 0.0
C604 C 0.29825 0.51425 0.92326 0.0
C605 C 0.33356 0.47701 0.95197 0.0
C606 C 0.2297 0.42066 0.96275 0.0
C607 C 0.19469 0.45889 0.93523 0.0
N608 N 0.19398 0.52842 0.87259 0.0
N609 N 0.33631 0.38728 0.98599 0.0
C610 C 0.22866 0.50131 0.90999 0.0
C611 C 0.3003 0.42759 0.96752 0.0
N612 N 0.33055 0.56342 0.91137 0.0
N613 N 0.19572 0.37974 0.98637 0.0
H614 H 0.38819 0.39142 0.98967 0.0
H615 H 0.31498 0.34773 0.9929 0.0
H616 H 0.14388 0.37256 0.98168 0.0
H617 H 0.21862 0.3547 0.01262 0.0
H618 H 0.30595 0.59541 0.89661 0.0
H619 H 0.38194 0.5744 0.92001 0.0
H620 H 0.21636 0.55631 0.84876 0.0
H621 H 0.14306 0.5174 0.86063 0.0
C622 C 0.86229 0.02932 0.26073 0.0
C623 C 0.8124 0.04483 0.22178 0.0
C624 C 0.78292 0.94359 0.17686 0.0
C625 C 0.82571 0.92732 0.22082 0.0
N626 N 0.9033 0.95397 0.30722 0.0
N627 N 0.72017 0.01639 0.14663 0.0
C628 C 0.86558 0.96999 0.26302 0.0
C629 C 0.77149 0.00188 0.18084 0.0
N630 N 0.90561 0.07123 0.29628 0.0
N631 N 0.75433 0.90339 0.13029 0.0
H632 H 0.71068 0.05862 0.14677 0.0
H633 H 0.68396 0.98619 0.12105 0.0
H634 H 0.76142 0.86012 0.12533 0.0
H635 H 0.72917 0.91369 0.0937 0.0
H636 H 0.94728 0.06287 0.32127 0.0
H637 H 0.90268 0.11499 0.29797 0.0
H638 H 0.92717 0.98276 0.34315 0.0
H639 H 0.90723 0.91116 0.3101 0.0
C640 C 0.83221 0.05436 0.02447 0.0
C641 C 0.84804 0.01562 0.9767 0.0
C642 C 0.73452 0.0105 0.9294 0.0
C643 C 0.71582 0.0388 0.98156 0.0
N644 N 0.75088 0.11284 0.06413 0.0
N645 N 0.81163 0.95764 0.88165 0.0
C646 C 0.76597 0.06853 0.02503 0.0
C647 C 0.79947 0.99525 0.92821 0.0
N648 N 0.88012 0.0767 0.06951 0.0
N649 N 0.6903 0.99782 0.88055 0.0
H650 H 0.85618 0.94009 0.87767 0.0
H651 H 0.85618 0.94009 0.87767 0.0
H652 H 0.6451 0.01487 0.8776 0.0
H653 H 0.70193 0.97547 0.84183 0.0
H654 H 0.86997 0.09835 0.10892 0.0
H655 H 0.93034 0.0719 0.06822 0.0
H656 H 0.78574 0.13834 0.09544 0.0
H657 H 0.70456 0.12802 0.06088 0.0
C658 C 0.43933 0.5943 0.80508 0.0
C659 C 0.37754 0.61163 0.78477 0.0
C660 C 0.32803 0.51081 0.75937 0.0
C661 C 0.38615 0.49441 0.78722 0.0
N662 N 0.50267 0.51526 0.82096 0.0
N663 N 0.26637 0.58685 0.73484 0.0
C664 C 0.44398 0.53456 0.80462 0.0
C665 C 0.32318 0.56979 0.75907 0.0
N666 N 0.4921 0.63492 0.82754 0.0
N667 N 0.27897 0.46932 0.73039 0.0
H668 H 0.26483 0.62748 0.72412 0.0
H669 H 0.22069 0.56123 0.72539 0.0
H670 H 0.28199 0.42548 0.72748 0.0
H671 H 0.23725 0.47724 0.70527 0.0
H672 H 0.53848 0.6259 0.84342 0.0
H673 H 0.49007 0.67891 0.83166 0.0
H674 H 0.54822 0.54075 0.83209 0.0
H675 H 0.50673 0.47186 0.81996 0.0
C676 C 0.28292 0.55719 0.55484 0.0
C677 C 0.23817 0.57124 0.51126 0.0
C678 C 0.32838 0.58531 0.45274 0.0
C679 C 0.36806 0.55807 0.49004 0.0
N680 N 0.39809 0.55523 0.59042 0.0
N681 N 0.22148 0.62012 0.43174 0.0
C682 C 0.35048 0.55648 0.54599 0.0
C683 C 0.26234 0.59288 0.46441 0.0
N684 N 0.26038 0.53928 0.60181 0.0
N685 N 0.35386 0.60371 0.40712 0.0
H686 H 0.17331 0.62601 0.44107 0.0
H687 H 0.23613 0.64019 0.39866 0.0
H688 H 0.40471 0.60737 0.40365 0.0
H689 H 0.32591 0.61821 0.37465 0.0
H690 H 0.28963 0.51995 0.62971 0.0
H691 H 0.21177 0.54108 0.61138 0.0
H692 H 0.38823 0.55823 0.63299 0.0
H693 H 0.44861 0.5588 0.58573 0.0
C694 C 0.79259 0.71104 0.93293 0.0
C695 C 0.80072 0.76932 0.92541 0.0
C696 C 0.83596 0.80065 0.02806 0.0
C697 C 0.82012 0.74374 0.0371 0.0
N698 N 0.77652 0.64498 -0.00055 0.0
N699 N 0.80959 0.86828 0.96609 0.0
C700 C 0.79614 0.69888 0.98984 0.0
C701 C 0.81713 0.81375 0.97337 0.0
N702 N 0.78365 0.6675 0.88625 0.0
N703 N 0.86958 0.8422 0.07105 0.0
H704 H 0.81198 0.90273 0.00017 0.0
H705 H 0.81198 0.90273 0.00017 0.0
H706 H 0.88507 0.83492 0.11198 0.0
H707 H 0.88774 0.88277 0.06435 0.0
H708 H 0.78335 0.62434 0.88944 0.0
H709 H 0.78262 0.67453 0.84408 0.0
H710 H 0.7513 0.61213 0.96763 0.0
H711 H 0.78241 0.6341 0.04029 0.0
C712 C 0.54432 0.53391 0.25906 0.0
C713 C 0.57566 0.48809 0.27701 0.0
C714 C 0.6281 0.47281 0.18798 0.0
C715 C 0.5898 0.51329 0.16764 0.0
N716 N 0.52573 0.59237 0.18556 0.0
N717 N 0.65474 0.41936 0.26464 0.0
C718 C 0.55252 0.54719 0.20408 0.0
C719 C 0.62114 0.45995 0.2438 0.0
N720 N 0.50639 0.56423 0.29472 0.0
N721 N 0.66849 0.44538 0.15263 0.0
H722 H 0.64831 0.40747 0.30419 0.0
H723 H 0.68954 0.39747 0.24368 0.0
H724 H 0.67508 0.45567 0.1124 0.0
H725 H 0.69569 0.41291 0.16241 0.0
H726 H 0.47433 0.59221 0.28195 0.0
H727 H 0.50645 0.56124 0.33801 0.0
H728 H 0.49808 0.61997 0.20923 0.0
H729 H 0.5344 0.60452 0.1465 0.0
C730 C 0.73407 0.24708 0.43363 0.0
C731 C 0.79292 0.26496 0.41075 0.0
C732 C 0.85349 0.28819 0.50749 0.0
C733 C 0.79403 0.27227 0.53085 0.0
N734 N 0.67432 0.25256 0.51701 0.0
N735 N 0.90812 0.30803 0.42819 0.0
C736 C 0.73323 0.2567 0.49413 0.0
C737 C 0.85167 0.2877 0.4481 0.0
N738 N 0.6806 0.21661 0.39812 0.0
N739 N 0.91396 0.3021 0.53988 0.0
H740 H 0.91155 0.31044 0.38507 0.0
H741 H 0.91155 0.31044 0.38507 0.0
H742 H 0.9225 0.30162 0.58381 0.0
H743 H 0.9225 0.30162 0.58381 0.0
H744 H 0.64097 0.19526 0.4136 0.0
H745 H 0.67866 0.20726 0.35345 0.0
H746 H 0.62821 0.24671 0.49209 0.0
H747 H 0.67142 0.26133 0.56119 0.0
C748 C 0.91763 0.47197 0.66463 0.0
C749 C 0.97466 0.50744 0.6552 0.0
C750 C 0.0088 0.53371 0.75875 0.0
C751 C 0.9556 0.49425 0.768 0.0
N752 N 0.84846 0.44081 0.73428 0.0
N753 N 0.06235 0.58447 0.69187 0.0
C754 C 0.90597 0.46858 0.72228 0.0
C755 C 0.01642 0.5423 0.70207 0.0
N756 N 0.87724 0.43899 0.61894 0.0
N757 N 0.052 0.56291 0.80453 0.0
H758 H 0.06525 0.59459 0.65104 0.0
H759 H 0.09423 0.61255 0.7236 0.0
H760 H 0.0428 0.56374 0.84701 0.0
H761 H 0.09765 0.58503 0.80084 0.0
H762 H 0.83723 0.40973 0.62283 0.0
H763 H 0.88474 0.43888 0.57624 0.0
H764 H 0.80784 0.42394 0.7038 0.0
H765 H 0.83919 0.43949 0.77637 0.0
C766 C 0.83383 0.99114 0.56404 0.0
C767 C 0.8731 0.03899 0.55099 0.0
C768 C 0.77353 0.07485 0.51098 0.0
C769 C 0.73379 0.02936 0.5275 0.0
N770 N 0.72388 0.9479 0.57567 0.0
N771 N 0.88063 0.13249 0.52371 0.0
C772 C 0.7633 0.98846 0.55578 0.0
C773 C 0.84304 0.08263 0.52782 0.0
N774 N 0.86393 0.94735 0.58215 0.0
N775 N 0.74546 0.10881 0.47651 0.0
H776 H 0.93165 0.14061 0.5368 0.0
H777 H 0.86035 0.16802 0.51239 0.0
H778 H 0.69465 0.10452 0.46259 0.0
H779 H 0.77339 0.1374 0.45691 0.0
H780 H 0.83836 0.90855 0.58677 0.0
H781 H 0.91543 0.94788 0.58878 0.0
H782 H 0.74209 0.91996 0.60104 0.0
H783 H 0.67209 0.94492 0.57071 0.0
loop_
_geom_bond_atom_site_label_1
_geom_bond_atom_site_label_2
_geom_bond_distance
_geom_bond_site_symmetry_2
_ccdc_geom_bond_type
In0 O1 2.294 . S
In0 O2 2.326 . S
In0 O6 2.266 . S
In0 O7 2.326 . S
In0 O8 2.266 . S
In0 O9 2.326 . S
In0 O11 2.294 . S
In0 O12 2.326 . S
O1 In0 2.294 . S
O1 C10 1.240 . S
O2 In0 2.326 . S
O2 C10 1.252 . S
C3 O6 1.252 . S
C3 O7 1.260 . S
C4 O11 1.240 . S
C4 O12 1.252 . S
C5 O8 1.252 . S
C5 O9 1.260 . S
O6 In0 2.266 . S
O6 C3 1.252 . S
O7 In0 2.326 . S
O7 C3 1.260 . S
O8 In0 2.266 . S
O8 C5 1.252 . S
O9 In0 2.326 . S
O9 C5 1.260 . S
C10 O1 1.240 . S
C10 O2 1.252 . S
O11 In0 2.294 . S
O11 C4 1.240 . S
O12 In0 2.326 . S
O12 C4 1.252 . S
In13 O14 2.294 1_665 S
In13 O15 2.325 . S
In13 O19 2.268 1_665 S
In13 O20 2.327 1_565 S
In13 O21 2.266 . S
In13 O22 2.326 1_565 S
In13 O24 2.293 1_655 S
In13 O25 2.326 1_655 S
O14 In13 2.294 1_445 S
O14 C23 1.240 1_545 S
O15 In13 2.325 . S
O15 C23 1.252 1_655 S
C16 O19 1.252 . S
C16 O20 1.260 1_455 S
C17 O24 1.240 . S
C17 O25 1.252 . S
C18 O21 1.245 1_545 S
C18 O22 1.266 . S
O19 In13 2.268 1_445 S
O19 C16 1.252 . S
O20 In13 2.327 1_545 S
O20 C16 1.260 1_655 S
O21 In13 2.266 . S
O21 C18 1.245 1_565 S
O22 In13 2.326 1_545 S
O22 C18 1.266 . S
C23 O14 1.240 1_565 S
C23 O15 1.252 1_455 S
O24 In13 2.293 1_455 S
O24 C17 1.240 . S
O25 In13 2.326 1_455 S
O25 C17 1.252 . S
In26 O27 2.294 . S
In26 O28 2.326 . S
In26 O32 2.266 . S
In26 O33 2.326 . S
In26 O34 2.266 . S
In26 O35 2.326 . S
In26 O37 2.294 . S
In26 O38 2.326 . S
O27 In26 2.294 . S
O27 C36 1.240 . S
O28 In26 2.326 . S
O28 C36 1.252 . S
C29 O32 1.252 . S
C29 O33 1.260 . S
C30 O37 1.240 . S
C30 O38 1.252 . S
C31 O34 1.252 . S
C31 O35 1.260 . S
O32 In26 2.266 . S
O32 C29 1.252 . S
O33 In26 2.326 . S
O33 C29 1.260 . S
O34 In26 2.266 . S
O34 C31 1.252 . S
O35 In26 2.326 . S
O35 C31 1.260 . S
C36 O27 1.240 . S
C36 O28 1.252 . S
O37 In26 2.294 . S
O37 C30 1.240 . S
O38 In26 2.326 . S
O38 C30 1.252 . S
In39 O40 2.294 1_554 S
In39 O41 2.326 1_564 S
In39 O45 2.266 1_554 S
In39 O46 2.326 . S
In39 O47 2.266 . S
In39 O48 2.326 . S
In39 O50 2.294 1_565 S
In39 O51 2.326 1_554 S
O40 In39 2.294 1_556 S
O40 C49 1.240 1_565 S
O41 In39 2.326 1_546 S
O41 C49 1.252 . S
C42 O45 1.252 1_554 S
C42 O46 1.260 . S
C43 O50 1.240 1_566 S
C43 O51 1.252 . S
C44 O47 1.252 . S
C44 O48 1.260 . S
O45 In39 2.266 1_556 S
O45 C42 1.252 1_556 S
O46 In39 2.326 . S
O46 C42 1.260 . S
O47 In39 2.266 . S
O47 C44 1.252 . S
O48 In39 2.326 . S
O48 C44 1.260 . S
C49 O40 1.240 1_545 S
C49 O41 1.252 . S
O50 In39 2.294 1_545 S
O50 C43 1.240 1_544 S
O51 In39 2.326 1_556 S
O51 C43 1.252 . S
In52 O53 2.294 . S
In52 O54 2.326 . S
In52 O58 2.266 . S
In52 O59 2.326 . S
In52 O60 2.266 . S
In52 O61 2.326 . S
In52 O63 2.294 . S
In52 O64 2.326 . S
O53 In52 2.294 . S
O53 C62 1.240 . S
O54 In52 2.326 . S
O54 C62 1.252 . S
C55 O58 1.252 . S
C55 O59 1.260 . S
C56 O63 1.240 . S
C56 O64 1.252 . S
C57 O60 1.252 . S
C57 O61 1.260 . S
O58 In52 2.266 . S
O58 C55 1.252 . S
O59 In52 2.326 . S
O59 C55 1.260 . S
O60 In52 2.266 . S
O60 C57 1.252 . S
O61 In52 2.326 . S
O61 C57 1.260 . S
C62 O53 1.240 . S
C62 O54 1.252 . S
O63 In52 2.294 . S
O63 C56 1.240 . S
O64 In52 2.326 . S
O64 C56 1.252 . S
In65 O66 2.294 1_545 S
In65 O67 2.326 1_545 S
In65 O71 2.266 . S
In65 O72 2.326 . S
In65 O73 2.266 1_545 S
In65 O74 2.326 . S
In65 O76 2.294 1_545 S
In65 O77 2.326 . S
O66 In65 2.294 1_565 S
O66 C75 1.240 . S
O67 In65 2.326 1_565 S
O67 C75 1.252 . S
C68 O71 1.252 . S
C68 O72 1.260 . S
C69 O76 1.240 1_545 S
C69 O77 1.252 . S
C70 O73 1.252 . S
C70 O74 1.260 1_565 S
O71 In65 2.266 . S
O71 C68 1.252 . S
O72 In65 2.326 . S
O72 C68 1.260 . S
O73 In65 2.266 1_565 S
O73 C70 1.252 . S
O74 In65 2.326 . S
O74 C70 1.260 1_545 S
C75 O66 1.240 . S
C75 O67 1.252 . S
O76 In65 2.294 1_565 S
O76 C69 1.240 1_565 S
O77 In65 2.326 . S
O77 C69 1.252 . S
In78 O79 2.294 . S
In78 O80 2.326 . S
In78 O84 2.266 . S
In78 O85 2.326 . S
In78 O86 2.266 . S
In78 O87 2.326 . S
In78 O89 2.294 . S
In78 O90 2.326 . S
O79 In78 2.294 . S
O79 C88 1.240 . S
O80 In78 2.326 . S
O80 C88 1.252 . S
C81 O84 1.252 . S
C81 O85 1.260 . S
C82 O89 1.240 . S
C82 O90 1.252 . S
C83 O86 1.252 . S
C83 O87 1.260 . S
O84 In78 2.266 . S
O84 C81 1.252 . S
O85 In78 2.326 . S
O85 C81 1.260 . S
O86 In78 2.266 . S
O86 C83 1.252 . S
O87 In78 2.326 . S
O87 C83 1.260 . S
C88 O79 1.240 . S
C88 O80 1.252 . S
O89 In78 2.294 . S
O89 C82 1.240 . S
O90 In78 2.326 . S
O90 C82 1.252 . S
In91 O92 2.295 . S
In91 O93 2.327 1_556 S
In91 O97 2.266 . S
In91 O98 2.325 1_655 S
In91 O99 2.266 1_655 S
In91 O100 2.326 . S
In91 O102 2.293 1_666 S
In91 O103 2.326 1_665 S
O92 In91 2.295 . S
O92 C101 1.240 . S
O93 In91 2.327 1_554 S
O93 C101 1.252 1_554 S
C94 O97 1.252 1_455 S
C94 O98 1.260 . S
C95 O102 1.240 . S
C95 O103 1.252 1_554 S
C96 O99 1.252 . S
C96 O100 1.260 1_455 S
O97 In91 2.266 . S
O97 C94 1.252 1_655 S
O98 In91 2.325 1_455 S
O98 C94 1.260 . S
O99 In91 2.266 1_455 S
O99 C96 1.252 . S
O100 In91 2.326 . S
O100 C96 1.260 1_655 S
C101 O92 1.240 . S
C101 O93 1.252 1_556 S
O102 In91 2.293 1_444 S
O102 C95 1.240 . S
O103 In91 2.326 1_445 S
O103 C95 1.252 1_556 S
In104 O105 2.294 . S
In104 O106 2.326 . S
In104 O110 2.266 . S
In104 O111 2.326 . S
In104 O112 2.266 . S
In104 O113 2.326 . S
In104 O115 2.294 . S
In104 O116 2.326 . S
O105 In104 2.294 . S
O105 C114 1.240 . S
O106 In104 2.326 . S
O106 C114 1.252 . S
C107 O110 1.252 . S
C107 O111 1.260 . S
C108 O115 1.240 . S
C108 O116 1.252 . S
C109 O112 1.252 . S
C109 O113 1.260 . S
O110 In104 2.266 . S
O110 C107 1.252 . S
O111 In104 2.326 . S
O111 C107 1.260 . S
O112 In104 2.266 . S
O112 C109 1.252 . S
O113 In104 2.326 . S
O113 C109 1.260 . S
C114 O105 1.240 . S
C114 O106 1.252 . S
O115 In104 2.294 . S
O115 C108 1.240 . S
O116 In104 2.326 . S
O116 C108 1.252 . S
In117 O118 2.296 . S
In117 O119 2.327 1_556 S
In117 O123 2.266 . S
In117 O124 2.324 1_455 S
In117 O125 2.265 1_455 S
In117 O126 2.326 . S
In117 O128 2.293 1_456 S
In117 O129 2.326 1_455 S
O118 In117 2.296 . S
O118 C127 1.223 1_556 S
O119 In117 2.327 1_554 S
O119 C127 1.262 . S
C120 O123 1.252 1_655 S
C120 O124 1.260 . S
C121 O128 1.240 . S
C121 O129 1.252 1_554 S
C122 O125 1.252 . S
C122 O126 1.260 1_655 S
O123 In117 2.266 . S
O123 C120 1.252 1_455 S
O124 In117 2.324 1_655 S
O124 C120 1.260 . S
O125 In117 2.265 1_655 S
O125 C122 1.252 . S
O126 In117 2.326 . S
O126 C122 1.260 1_455 S
C127 O118 1.223 1_554 S
C127 O119 1.262 . S
O128 In117 2.293 1_654 S
O128 C121 1.240 . S
O129 In117 2.326 1_655 S
O129 C121 1.252 1_556 S
In130 O131 2.294 . S
In130 O132 2.326 . S
In130 O136 2.266 . S
In130 O137 2.326 . S
In130 O138 2.266 . S
In130 O139 2.326 . S
In130 O141 2.294 . S
In130 O142 2.326 . S
O131 In130 2.294 . S
O131 C140 1.240 . S
O132 In130 2.326 . S
O132 C140 1.252 . S
C133 O136 1.252 . S
C133 O137 1.260 . S
C134 O141 1.240 . S
C134 O142 1.252 . S
C135 O138 1.252 . S
C135 O139 1.260 . S
O136 In130 2.266 . S
O136 C133 1.252 . S
O137 In130 2.326 . S
O137 C133 1.260 . S
O138 In130 2.266 . S
O138 C135 1.252 . S
O139 In130 2.326 . S
O139 C135 1.260 . S
C140 O131 1.240 . S
C140 O132 1.252 . S
O141 In130 2.294 . S
O141 C134 1.240 . S
O142 In130 2.326 . S
O142 C134 1.252 . S
In143 O144 2.294 . S
In143 O145 2.326 . S
In143 O149 2.266 . S
In143 O150 2.326 1_455 S
In143 O151 2.266 1_455 S
In143 O152 2.326 . S
In143 O154 2.294 1_455 S
In143 O155 2.326 . S
O144 In143 2.294 . S
O144 C153 1.240 . S
O145 In143 2.326 . S
O145 C153 1.252 . S
C146 O149 1.252 1_655 S
C146 O150 1.260 . S
C147 O154 1.240 . S
C147 O155 1.252 1_655 S
C148 O151 1.252 . S
C148 O152 1.260 1_655 S
O149 In143 2.266 . S
O149 C146 1.252 1_455 S
O150 In143 2.326 1_655 S
O150 C146 1.260 . S
O151 In143 2.266 1_655 S
O151 C148 1.252 . S
O152 In143 2.326 . S
O152 C148 1.260 1_455 S
C153 O144 1.240 . S
C153 O145 1.252 . S
O154 In143 2.294 1_655 S
O154 C147 1.240 . S
O155 In143 2.326 . S
O155 C147 1.252 1_455 S
In156 O157 2.294 1_554 S
In156 O158 2.326 . S
In156 O162 2.266 1_554 S
In156 O163 2.326 . S
In156 O164 2.266 . S
In156 O165 2.326 1_554 S
In156 O167 2.294 . S
In156 O168 2.326 . S
O157 In156 2.294 1_556 S
O157 C166 1.240 . S
O158 In156 2.326 . S
O158 C166 1.252 1_554 S
C159 O162 1.252 1_554 S
C159 O163 1.260 . S
C160 O167 1.240 . S
C160 O168 1.252 . S
C161 O164 1.252 . S
C161 O165 1.260 1_554 S
O162 In156 2.266 1_556 S
O162 C159 1.252 1_556 S
O163 In156 2.326 . S
O163 C159 1.260 . S
O164 In156 2.266 . S
O164 C161 1.252 . S
O165 In156 2.326 1_556 S
O165 C161 1.260 1_556 S
C166 O157 1.240 . S
C166 O158 1.252 1_556 S
O167 In156 2.294 . S
O167 C160 1.240 . S
O168 In156 2.326 . S
O168 C160 1.252 . S
In169 O170 2.294 . S
In169 O171 2.326 . S
In169 O175 2.266 . S
In169 O176 2.326 . S
In169 O177 2.266 . S
In169 O178 2.326 . S
In169 O180 2.294 . S
In169 O181 2.326 . S
O170 In169 2.294 . S
O170 C179 1.240 . S
O171 In169 2.326 . S
O171 C179 1.252 . S
C172 O175 1.252 . S
C172 O176 1.260 . S
C173 O180 1.240 . S
C173 O181 1.252 . S
C174 O177 1.252 . S
C174 O178 1.260 . S
O175 In169 2.266 . S
O175 C172 1.252 . S
O176 In169 2.326 . S
O176 C172 1.260 . S
O177 In169 2.266 . S
O177 C174 1.252 . S
O178 In169 2.326 . S
O178 C174 1.260 . S
C179 O170 1.240 . S
C179 O171 1.252 . S
O180 In169 2.294 . S
O180 C173 1.240 . S
O181 In169 2.326 . S
O181 C173 1.252 . S
In182 O183 2.294 . S
In182 O184 2.326 . S
In182 O188 2.266 . S
In182 O189 2.326 . S
In182 O190 2.266 . S
In182 O191 2.326 . S
In182 O193 2.294 . S
In182 O194 2.326 . S
O183 In182 2.294 . S
O183 C192 1.240 . S
O184 In182 2.326 . S
O184 C192 1.252 . S
C185 O188 1.252 . S
C185 O189 1.260 . S
C186 O193 1.240 . S
C186 O194 1.252 . S
C187 O190 1.252 . S
C187 O191 1.260 . S
O188 In182 2.266 . S
O188 C185 1.252 . S
O189 In182 2.326 . S
O189 C185 1.260 . S
O190 In182 2.266 . S
O190 C187 1.252 . S
O191 In182 2.326 . S
O191 C187 1.260 . S
C192 O183 1.240 . S
C192 O184 1.252 . S
O193 In182 2.294 . S
O193 C186 1.240 . S
O194 In182 2.326 . S
O194 C186 1.252 . S
In195 O196 2.294 . S
In195 O197 2.326 . S
In195 O201 2.266 . S
In195 O202 2.326 . S
In195 O203 2.266 . S
In195 O204 2.326 . S
In195 O206 2.294 . S
In195 O207 2.326 . S
O196 In195 2.294 . S
O196 C205 1.240 . S
O197 In195 2.326 . S
O197 C205 1.252 . S
C198 O201 1.252 . S
C198 O202 1.260 . S
C199 O206 1.240 . S
C199 O207 1.252 . S
C200 O203 1.252 . S
C200 O204 1.260 . S
O201 In195 2.266 . S
O201 C198 1.252 . S
O202 In195 2.326 . S
O202 C198 1.260 . S
O203 In195 2.266 . S
O203 C200 1.252 . S
O204 In195 2.326 . S
O204 C200 1.260 . S
C205 O196 1.240 . S
C205 O197 1.252 . S
O206 In195 2.294 . S
O206 C199 1.240 . S
O207 In195 2.326 . S
O207 C199 1.252 . S
C208 C209 1.363 . S
C208 C214 1.379 . S
C208 N216 1.356 . S
C209 C208 1.363 . S
C209 C215 1.363 . S
C210 C211 1.363 . S
C210 C215 1.379 . S
C210 N217 1.356 . S
C211 C210 1.363 . S
C211 C214 1.363 . S
N212 C214 1.356 1_556 S
N212 H224 0.984 . S
N212 H225 0.985 . S
N213 C215 1.356 . S
N213 H218 0.984 . S
N213 H219 0.985 . S
C214 C208 1.379 . S
C214 C211 1.363 . S
C214 N212 1.356 1_554 S
C215 C209 1.363 . S
C215 C210 1.379 . S
C215 N213 1.356 . S
N216 C208 1.356 . S
N216 H222 0.984 . S
N216 H223 0.984 . S
N217 C210 1.356 . S
N217 H220 0.984 . S
N217 H221 0.985 . S
H218 N213 0.984 . S
H219 N213 0.985 . S
H220 N217 0.984 . S
H221 N217 0.985 . S
H222 N216 0.984 . S
H223 N216 0.984 . S
H224 N212 0.984 . S
H225 N212 0.985 . S
C226 C227 1.363 . S
C226 C232 1.379 . S
C226 N234 1.356 . S
C227 C226 1.363 . S
C227 C233 1.363 . S
C228 C229 1.363 . S
C228 C233 1.379 . S
C228 N235 1.356 . S
C229 C228 1.363 . S
C229 C232 1.363 . S
N230 C232 1.356 . S
N230 H242 0.984 . S
N230 H243 0.985 . S
N231 C233 1.356 . S
N231 H236 0.984 . S
N231 H237 0.985 . S
C232 C226 1.379 . S
C232 C229 1.363 . S
C232 N230 1.356 . S
C233 C227 1.363 . S
C233 C228 1.379 . S
C233 N231 1.356 . S
N234 C226 1.356 . S
N234 H240 0.984 . S
N234 H241 0.984 . S
N235 C228 1.356 . S
N235 H238 0.984 . S
N235 H239 0.985 . S
H236 N231 0.984 . S
H237 N231 0.985 . S
H238 N235 0.984 . S
H239 N235 0.985 . S
H240 N234 0.984 . S
H241 N234 0.984 . S
H242 N230 0.984 . S
H243 N230 0.985 . S
C244 C245 1.363 . S
C244 C250 1.379 . S
C244 N252 1.356 . S
C245 C244 1.363 . S
C245 C251 1.363 . S
C246 C247 1.363 . S
C246 C251 1.379 . S
C246 N253 1.356 . S
C247 C246 1.363 . S
C247 C250 1.363 . S
N248 C250 1.356 . S
N248 H260 0.984 . S
N248 H261 0.985 . S
N249 C251 1.356 . S
N249 H254 0.984 . S
N249 H255 0.985 . S
C250 C244 1.379 . S
C250 C247 1.363 . S
C250 N248 1.356 . S
C251 C245 1.363 . S
C251 C246 1.379 . S
C251 N249 1.356 . S
N252 C244 1.356 . S
N252 H258 0.984 1_565 S
N252 H259 0.984 . S
N253 C246 1.356 . S
N253 H256 0.984 . S
N253 H257 0.985 . S
H254 N249 0.984 . S
H255 N249 0.985 . S
H256 N253 0.984 . S
H257 N253 0.985 . S
H258 N252 0.984 1_545 S
H259 N252 0.984 . S
H260 N248 0.984 . S
H261 N248 0.985 . S
C262 C263 1.363 . S
C262 C268 1.379 . S
C262 N270 1.356 . S
C263 C262 1.363 . S
C263 C269 1.363 . S
C264 C265 1.363 . S
C264 C269 1.379 . S
C264 N271 1.356 . S
C265 C264 1.363 . S
C265 C268 1.363 . S
N266 C268 1.356 . S
N266 H278 0.984 . S
N266 H279 0.985 . S
N267 C269 1.356 . S
N267 H272 0.984 . S
N267 H273 0.985 . S
C268 C262 1.379 . S
C268 C265 1.363 . S
C268 N266 1.356 . S
C269 C263 1.363 . S
C269 C264 1.379 . S
C269 N267 1.356 . S
N270 C262 1.356 . S
N270 H276 0.984 . S
N270 H277 0.984 . S
N271 C264 1.356 . S
N271 H274 0.984 . S
N271 H275 0.985 . S
H272 N267 0.984 . S
H273 N267 0.985 . S
H274 N271 0.984 . S
H275 N271 0.985 . S
H276 N270 0.984 . S
H277 N270 0.984 . S
H278 N266 0.984 . S
H279 N266 0.985 . S
C280 C281 1.363 . S
C280 C286 1.379 . S
C280 N288 1.356 . S
C281 C280 1.363 . S
C281 C287 1.363 . S
C282 C283 1.363 . S
C282 C287 1.379 . S
C282 N289 1.356 . S
C283 C282 1.363 . S
C283 C286 1.363 . S
N284 C286 1.356 . S
N284 H296 0.984 . S
N284 H297 0.985 . S
N285 C287 1.356 . S
N285 H290 0.984 . S
N285 H291 0.985 . S
C286 C280 1.379 . S
C286 C283 1.363 . S
C286 N284 1.356 . S
C287 C281 1.363 . S
C287 C282 1.379 . S
C287 N285 1.356 . S
N288 C280 1.356 . S
N288 H294 0.984 . S
N288 H295 0.984 . S
N289 C282 1.356 . S
N289 H292 0.984 . S
N289 H293 0.985 . S
H290 N285 0.984 . S
H291 N285 0.985 . S
H292 N289 0.984 . S
H293 N289 0.985 . S
H294 N288 0.984 . S
H295 N288 0.984 . S
H296 N284 0.984 . S
H297 N284 0.985 . S
C298 C299 1.363 . S
C298 C304 1.379 . S
C298 N306 1.356 . S
C299 C298 1.363 . S
C299 C305 1.363 . S
C300 C301 1.363 . S
C300 C305 1.379 . S
C300 N307 1.356 . S
C301 C300 1.363 . S
C301 C304 1.363 . S
N302 C304 1.356 . S
N302 H314 0.984 . S
N302 H315 0.985 . S
N303 C305 1.356 1_556 S
N303 H308 0.984 . S
N303 H309 0.985 . S
C304 C298 1.379 . S
C304 C301 1.363 . S
C304 N302 1.356 . S
C305 C299 1.363 . S
C305 C300 1.379 . S
C305 N303 1.356 1_554 S
N306 C298 1.356 . S
N306 H312 0.984 . S
N306 H313 0.984 . S
N307 C300 1.356 . S
N307 H310 0.984 . S
N307 H311 0.985 . S
H308 N303 0.984 . S
H309 N303 0.985 . S
H310 N307 0.984 . S
H311 N307 0.985 . S
H312 N306 0.984 . S
H313 N306 0.984 . S
H314 N302 0.984 . S
H315 N302 0.985 . S
C316 C317 1.363 . S
C316 C322 1.379 . S
C316 N324 1.356 1_655 S
C317 C316 1.363 . S
C317 C323 1.363 . S
C318 C319 1.363 . S
C318 C323 1.379 . S
C318 N325 1.356 . S
C319 C318 1.363 . S
C319 C322 1.363 . S
N320 C322 1.356 1_455 S
N320 H332 0.984 . S
N320 H333 0.985 . S
N321 C323 1.356 . S
N321 H326 0.984 . S
N321 H327 0.985 . S
C322 C316 1.379 . S
C322 C319 1.363 . S
C322 N320 1.356 1_655 S
C323 C317 1.363 . S
C323 C318 1.379 . S
C323 N321 1.356 . S
N324 C316 1.356 1_455 S
N324 H330 0.984 . S
N324 H331 0.984 . S
N325 C318 1.356 . S
N325 H328 0.984 . S
N325 H329 0.985 . S
H326 N321 0.984 . S
H327 N321 0.985 . S
H328 N325 0.984 . S
H329 N325 0.985 . S
H330 N324 0.984 . S
H331 N324 0.984 . S
H332 N320 0.984 . S
H333 N320 0.985 . S
C334 C335 1.363 . S
C334 C340 1.379 . S
C334 N342 1.356 . S
C335 C334 1.363 . S
C335 C341 1.363 . S
C336 C337 1.363 . S
C336 C341 1.379 . S
C336 N343 1.356 . S
C337 C336 1.363 . S
C337 C340 1.363 . S
N338 C340 1.356 . S
N338 H350 0.984 . S
N338 H351 0.985 . S
N339 C341 1.356 . S
N339 H344 0.984 . S
N339 H345 0.985 . S
C340 C334 1.379 . S
C340 C337 1.363 . S
C340 N338 1.356 . S
C341 C335 1.363 . S
C341 C336 1.379 . S
C341 N339 1.356 . S
N342 C334 1.356 . S
N342 H348 0.984 . S
N342 H349 0.984 . S
N343 C336 1.356 . S
N343 H346 0.984 . S
N343 H347 0.985 . S
H344 N339 0.984 . S
H345 N339 0.985 . S
H346 N343 0.984 . S
H347 N343 0.985 . S
H348 N342 0.984 . S
H349 N342 0.984 . S
H350 N338 0.984 . S
H351 N338 0.985 . S
C352 C353 1.363 . S
C352 C358 1.379 . S
C352 N360 1.356 . S
C353 C352 1.363 . S
C353 C359 1.363 . S
C354 C355 1.363 . S
C354 C359 1.379 . S
C354 N361 1.356 . S
C355 C354 1.363 . S
C355 C358 1.363 . S
N356 C358 1.356 . S
N356 H368 0.984 . S
N356 H369 0.985 . S
N357 C359 1.356 . S
N357 H362 0.984 . S
N357 H363 0.985 . S
C358 C352 1.379 . S
C358 C355 1.363 . S
C358 N356 1.356 . S
C359 C353 1.363 . S
C359 C354 1.379 . S
C359 N357 1.356 . S
N360 C352 1.356 . S
N360 H366 0.984 . S
N360 H367 0.984 . S
N361 C354 1.356 . S
N361 H364 0.984 . S
N361 H365 0.985 . S
H362 N357 0.984 . S
H363 N357 0.985 . S
H364 N361 0.984 . S
H365 N361 0.985 . S
H366 N360 0.984 . S
H367 N360 0.984 . S
H368 N356 0.984 . S
H369 N356 0.985 . S
C370 C371 1.363 . S
C370 C376 1.379 . S
C370 N378 1.356 . S
C371 C370 1.363 . S
C371 C377 1.363 1_455 S
C372 C373 1.363 1_655 S
C372 C377 1.379 . S
C372 N379 1.356 . S
C373 C372 1.363 1_455 S
C373 C376 1.363 . S
N374 C376 1.356 . S
N374 H386 0.984 . S
N374 H387 0.985 . S
N375 C377 1.356 1_545 S
N375 H380 0.984 . S
N375 H381 0.985 . S
C376 C370 1.379 . S
C376 C373 1.363 . S
C376 N374 1.356 . S
C377 C371 1.363 1_655 S
C377 C372 1.379 . S
C377 N375 1.356 1_565 S
N378 C370 1.356 . S
N378 H384 0.984 . S
N378 H385 0.984 . S
N379 C372 1.356 . S
N379 H382 0.984 . S
N379 H383 0.985 1_565 S
H380 N375 0.984 . S
H381 N375 0.985 . S
H382 N379 0.984 . S
H383 N379 0.985 1_545 S
H384 N378 0.984 . S
H385 N378 0.984 . S
H386 N374 0.984 . S
H387 N374 0.985 . S
C388 C389 1.363 1_554 S
C388 C394 1.379 . S
C388 N396 1.356 1_554 S
C389 C388 1.363 1_556 S
C389 C395 1.363 . S
C390 C391 1.363 . S
C390 C395 1.379 1_554 S
C390 N397 1.356 . S
C391 C390 1.363 . S
C391 C394 1.363 . S
N392 C394 1.356 . S
N392 H404 0.984 . S
N392 H405 0.985 . S
N393 C395 1.356 . S
N393 H398 0.984 . S
N393 H399 0.985 . S
C394 C388 1.379 . S
C394 C391 1.363 . S
C394 N392 1.356 . S
C395 C389 1.363 . S
C395 C390 1.379 1_556 S
C395 N393 1.356 . S
N396 C388 1.356 1_556 S
N396 H402 0.984 1_556 S
N396 H403 0.984 . S
N397 C390 1.356 . S
N397 H400 0.984 . S
N397 H401 0.985 . S
H398 N393 0.984 . S
H399 N393 0.985 . S
H400 N397 0.984 . S
H401 N397 0.985 . S
H402 N396 0.984 1_554 S
H403 N396 0.984 . S
H404 N392 0.984 . S
H405 N392 0.985 . S
C406 C407 1.363 1_545 S
C406 C412 1.379 . S
C406 N414 1.356 . S
C407 C406 1.363 1_565 S
C407 C413 1.363 . S
C408 C409 1.363 . S
C408 C413 1.379 . S
C408 N415 1.356 . S
C409 C408 1.363 . S
C409 C412 1.363 1_565 S
N410 C412 1.356 . S
N410 H422 0.984 . S
N410 H423 0.985 . S
N411 C413 1.356 . S
N411 H416 0.984 . S
N411 H417 0.985 . S
C412 C406 1.379 . S
C412 C409 1.363 1_545 S
C412 N410 1.356 . S
C413 C407 1.363 . S
C413 C408 1.379 . S
C413 N411 1.356 . S
N414 C406 1.356 . S
N414 H420 0.984 . S
N414 H421 0.984 . S
N415 C408 1.356 . S
N415 H418 0.984 . S
N415 H419 0.985 . S
H416 N411 0.984 . S
H417 N411 0.985 . S
H418 N415 0.984 . S
H419 N415 0.985 . S
H420 N414 0.984 . S
H421 N414 0.984 . S
H422 N410 0.984 . S
H423 N410 0.985 . S
C424 C425 1.363 . S
C424 C430 1.379 . S
C424 N432 1.356 . S
C425 C424 1.363 . S
C425 C431 1.363 . S
C426 C427 1.363 . S
C426 C431 1.379 . S
C426 N433 1.356 . S
C427 C426 1.363 . S
C427 C430 1.363 . S
N428 C430 1.356 . S
N428 H440 0.984 . S
N428 H441 0.985 . S
N429 C431 1.356 . S
N429 H434 0.984 . S
N429 H435 0.985 . S
C430 C424 1.379 . S
C430 C427 1.363 . S
C430 N428 1.356 . S
C431 C425 1.363 . S
C431 C426 1.379 . S
C431 N429 1.356 . S
N432 C424 1.356 . S
N432 H438 0.984 . S
N432 H439 0.984 . S
N433 C426 1.356 . S
N433 H436 0.984 . S
N433 H437 0.985 . S
H434 N429 0.984 . S
H435 N429 0.985 . S
H436 N433 0.984 . S
H437 N433 0.985 . S
H438 N432 0.984 . S
H439 N432 0.984 . S
H440 N428 0.984 . S
H441 N428 0.985 . S
C442 C443 1.363 1_455 S
C442 C448 1.379 . S
C442 N450 1.356 . S
C443 C442 1.363 1_655 S
C443 C449 1.363 . S
C444 C445 1.369 . S
C444 C449 1.379 . S
C444 N451 1.356 . S
C445 C444 1.369 . S
C445 C448 1.360 1_655 S
N446 C448 1.356 . S
N446 H458 0.984 . S
N446 H459 0.985 . S
N447 C449 1.356 . S
N447 H452 0.984 . S
N447 H453 0.985 . S
C448 C442 1.379 . S
C448 C445 1.360 1_455 S
C448 N446 1.356 . S
C449 C443 1.363 . S
C449 C444 1.379 . S
C449 N447 1.356 . S
N450 C442 1.356 . S
N450 H456 0.984 . S
N450 H457 0.984 . S
N451 C444 1.356 . S
N451 H454 0.984 . S
N451 H455 0.985 . S
H452 N447 0.984 . S
H453 N447 0.985 . S
H454 N451 0.984 . S
H455 N451 0.985 . S
H456 N450 0.984 . S
H457 N450 0.984 . S
H458 N446 0.984 . S
H459 N446 0.985 . S
C460 C461 1.363 . S
C460 C466 1.379 . S
C460 N468 1.356 . S
C461 C460 1.363 . S
C461 C467 1.363 . S
C462 C463 1.363 . S
C462 C467 1.379 . S
C462 N469 1.356 . S
C463 C462 1.363 . S
C463 C466 1.363 . S
N464 C466 1.356 . S
N464 H476 0.984 . S
N464 H477 0.985 . S
N465 C467 1.356 1_655 S
N465 H470 0.984 . S
N465 H471 0.985 . S
C466 C460 1.379 . S
C466 C463 1.363 . S
C466 N464 1.356 . S
C467 C461 1.363 . S
C467 C462 1.379 . S
C467 N465 1.356 1_455 S
N468 C460 1.356 . S
N468 H474 0.984 . S
N468 H475 0.984 1_455 S
N469 C462 1.356 . S
N469 H472 0.984 . S
N469 H473 0.985 . S
H470 N465 0.984 . S
H471 N465 0.985 . S
H472 N469 0.984 . S
H473 N469 0.985 . S
H474 N468 0.984 . S
H475 N468 0.984 1_655 S
H476 N464 0.984 . S
H477 N464 0.985 . S
C478 C479 1.363 . S
C478 C484 1.379 . S
C478 N486 1.356 . S
C479 C478 1.363 . S
C479 C485 1.363 1_556 S
C480 C481 1.363 . S
C480 C485 1.379 . S
C480 N487 1.356 . S
C481 C480 1.363 . S
C481 C484 1.363 1_554 S
N482 C484 1.356 . S
N482 H494 0.984 . S
N482 H495 0.985 . S
N483 C485 1.356 . S
N483 H488 0.984 . S
N483 H489 0.985 . S
C484 C478 1.379 . S
C484 C481 1.363 1_556 S
C484 N482 1.356 . S
C485 C479 1.363 1_554 S
C485 C480 1.379 . S
C485 N483 1.356 . S
N486 C478 1.356 . S
N486 H492 0.984 . S
N486 H493 0.984 . S
N487 C480 1.356 . S
N487 H490 0.984 . S
N487 H491 0.985 . S
H488 N483 0.984 . S
H489 N483 0.985 . S
H490 N487 0.984 . S
H491 N487 0.985 . S
H492 N486 0.984 . S
H493 N486 0.984 . S
H494 N482 0.984 . S
H495 N482 0.985 . S
C496 C497 1.363 . S
C496 C502 1.379 . S
C496 N504 1.356 . S
C497 C496 1.363 . S
C497 C503 1.363 . S
C498 C499 1.363 . S
C498 C503 1.379 . S
C498 N505 1.356 . S
C499 C498 1.363 . S
C499 C502 1.363 . S
N500 C502 1.356 . S
N500 H512 0.984 . S
N500 H513 0.985 . S
N501 C503 1.356 . S
N501 H506 0.984 . S
N501 H507 0.985 . S
C502 C496 1.379 . S
C502 C499 1.363 . S
C502 N500 1.356 . S
C503 C497 1.363 . S
C503 C498 1.379 . S
C503 N501 1.356 . S
N504 C496 1.356 . S
N504 H510 0.984 . S
N504 H511 0.984 . S
N505 C498 1.356 . S
N505 H508 0.984 . S
N505 H509 0.985 . S
H506 N501 0.984 . S
H507 N501 0.985 . S
H508 N505 0.984 . S
H509 N505 0.985 . S
H510 N504 0.984 . S
H511 N504 0.984 . S
H512 N500 0.984 . S
H513 N500 0.985 . S
C514 C515 1.363 . S
C514 C520 1.379 . S
C514 N522 1.356 . S
C515 C514 1.363 . S
C515 C521 1.363 . S
C516 C517 1.363 . S
C516 C521 1.379 . S
C516 N523 1.356 . S
C517 C516 1.363 . S
C517 C520 1.363 . S
N518 C520 1.356 . S
N518 H530 0.984 . S
N518 H531 0.985 . S
N519 C521 1.356 . S
N519 H524 0.984 . S
N519 H525 0.985 . S
C520 C514 1.379 . S
C520 C517 1.363 . S
C520 N518 1.356 . S
C521 C515 1.363 . S
C521 C516 1.379 . S
C521 N519 1.356 . S
N522 C514 1.356 . S
N522 H528 0.984 . S
N522 H529 0.984 . S
N523 C516 1.356 . S
N523 H526 0.984 . S
N523 H527 0.985 . S
H524 N519 0.984 . S
H525 N519 0.985 . S
H526 N523 0.984 . S
H527 N523 0.985 . S
H528 N522 0.984 . S
H529 N522 0.984 . S
H530 N518 0.984 . S
H531 N518 0.985 . S
C532 C533 1.363 . S
C532 C538 1.379 . S
C532 N540 1.356 . S
C533 C532 1.363 . S
C533 C539 1.363 . S
C534 C535 1.363 . S
C534 C539 1.379 . S
C534 N541 1.356 . S
C535 C534 1.363 . S
C535 C538 1.363 . S
N536 C538 1.356 . S
N536 H548 0.984 . S
N536 H549 0.985 1_455 S
N537 C539 1.356 . S
N537 H542 0.984 . S
N537 H543 0.985 . S
C538 C532 1.379 . S
C538 C535 1.363 . S
C538 N536 1.356 . S
C539 C533 1.363 . S
C539 C534 1.379 . S
C539 N537 1.356 . S
N540 C532 1.356 . S
N540 H546 0.984 . S
N540 H547 0.984 . S
N541 C534 1.356 . S
N541 H544 0.984 . S
N541 H545 0.985 . S
H542 N537 0.984 . S
H543 N537 0.985 . S
H544 N541 0.984 . S
H545 N541 0.985 . S
H546 N540 0.984 . S
H547 N540 0.984 . S
H548 N536 0.984 . S
H549 N536 0.985 1_655 S
C550 C551 1.363 . S
C550 C556 1.379 . S
C550 N558 1.356 . S
C551 C550 1.363 . S
C551 C557 1.363 1_455 S
C552 C553 1.363 . S
C552 C557 1.379 . S
C552 N559 1.356 . S
C553 C552 1.363 . S
C553 C556 1.363 1_655 S
N554 C556 1.356 1_554 S
N554 H566 0.984 . S
N554 H567 0.985 . S
N555 C557 1.356 . S
N555 H560 0.984 . S
N555 H561 0.985 . S
C556 C550 1.379 . S
C556 C553 1.363 1_455 S
C556 N554 1.356 1_556 S
C557 C551 1.363 1_655 S
C557 C552 1.379 . S
C557 N555 1.356 . S
N558 C550 1.356 . S
N558 H564 0.984 1_556 S
N558 H565 0.984 . S
N559 C552 1.356 . S
N559 H562 0.984 . S
N559 H563 0.985 . S
H560 N555 0.984 . S
H561 N555 0.985 . S
H562 N559 0.984 . S
H563 N559 0.985 . S
H564 N558 0.984 1_554 S
H565 N558 0.984 . S
H566 N554 0.984 . S
H567 N554 0.985 . S
C568 C569 1.363 . S
C568 C574 1.379 . S
C568 N576 1.356 . S
C569 C568 1.363 . S
C569 C575 1.363 . S
C570 C571 1.363 . S
C570 C575 1.379 . S
C570 N577 1.356 . S
C571 C570 1.363 . S
C571 C574 1.363 . S
N572 C574 1.356 . S
N572 H584 0.984 . S
N572 H585 0.985 . S
N573 C575 1.356 . S
N573 H578 0.984 . S
N573 H579 0.985 . S
C574 C568 1.379 . S
C574 C571 1.363 . S
C574 N572 1.356 . S
C575 C569 1.363 . S
C575 C570 1.379 . S
C575 N573 1.356 . S
N576 C568 1.356 . S
N576 H582 0.984 . S
N576 H583 0.984 . S
N577 C570 1.356 . S
N577 H580 0.984 . S
N577 H581 0.985 . S
H578 N573 0.984 . S
H579 N573 0.985 . S
H580 N577 0.984 . S
H581 N577 0.985 . S
H582 N576 0.984 . S
H583 N576 0.984 . S
H584 N572 0.984 . S
H585 N572 0.985 . S
C586 C587 1.363 . S
C586 C592 1.379 . S
C586 N594 1.356 . S
C587 C586 1.363 . S
C587 C593 1.363 . S
C588 C589 1.363 1_545 S
C588 C593 1.379 . S
C588 N595 1.356 1_545 S
C589 C588 1.363 1_565 S
C589 C592 1.363 1_565 S
N590 C592 1.356 1_565 S
N590 H602 0.984 . S
N590 H603 0.985 . S
N591 C593 1.356 . S
N591 H596 0.984 . S
N591 H597 0.985 . S
C592 C586 1.379 . S
C592 C589 1.363 1_545 S
C592 N590 1.356 1_545 S
C593 C587 1.363 . S
C593 C588 1.379 . S
C593 N591 1.356 . S
N594 C586 1.356 . S
N594 H600 0.984 . S
N594 H601 0.984 . S
N595 C588 1.356 1_565 S
N595 H598 0.984 . S
N595 H599 0.985 . S
H596 N591 0.984 . S
H597 N591 0.985 . S
H598 N595 0.984 . S
H599 N595 0.985 . S
H600 N594 0.984 . S
H601 N594 0.984 . S
H602 N590 0.984 . S
H603 N590 0.985 . S
C604 C605 1.363 . S
C604 C610 1.379 . S
C604 N612 1.356 . S
C605 C604 1.363 . S
C605 C611 1.363 1_554 S
C606 C607 1.363 . S
C606 C611 1.379 1_554 S
C606 N613 1.356 1_554 S
C607 C606 1.363 . S
C607 C610 1.363 . S
N608 C610 1.356 . S
N608 H620 0.984 . S
N608 H621 0.985 . S
N609 C611 1.356 . S
N609 H614 0.984 . S
N609 H615 0.985 . S
C610 C604 1.379 . S
C610 C607 1.363 . S
C610 N608 1.356 . S
C611 C605 1.363 1_556 S
C611 C606 1.379 1_556 S
C611 N609 1.356 . S
N612 C604 1.356 . S
N612 H618 0.984 . S
N612 H619 0.984 . S
N613 C606 1.356 1_556 S
N613 H616 0.984 1_556 S
N613 H617 0.985 . S
H614 N609 0.984 . S
H615 N609 0.985 . S
H616 N613 0.984 1_554 S
H617 N613 0.985 . S
H618 N612 0.984 . S
H619 N612 0.984 . S
H620 N608 0.984 . S
H621 N608 0.985 . S
C622 C623 1.363 . S
C622 C628 1.379 . S
C622 N630 1.356 . S
C623 C622 1.363 . S
C623 C629 1.363 . S
C624 C625 1.363 . S
C624 C629 1.379 1_565 S
C624 N631 1.356 . S
C625 C624 1.363 . S
C625 C628 1.363 1_565 S
N626 C628 1.356 1_455 S
N626 H638 0.984 . S
N626 H639 0.985 1_545 S
N627 C629 1.356 . S
N627 H632 0.984 . S
N627 H633 0.985 . S
C628 C622 1.379 . S
C628 C625 1.363 1_545 S
C628 N626 1.356 1_655 S
C629 C623 1.363 . S
C629 C624 1.379 1_545 S
C629 N627 1.356 . S
N630 C622 1.356 . S
N630 H636 0.984 . S
N630 H637 0.984 . S
N631 C624 1.356 . S
N631 H634 0.984 . S
N631 H635 0.985 . S
H632 N627 0.984 . S
H633 N627 0.985 . S
H634 N631 0.984 . S
H635 N631 0.985 . S
H636 N630 0.984 . S
H637 N630 0.984 . S
H638 N626 0.984 . S
H639 N626 0.985 1_565 S
C640 C641 1.363 1_544 S
C640 C646 1.379 . S
C640 N648 1.356 . S
C641 C640 1.363 1_566 S
C641 C647 1.363 . S
C642 C643 1.363 . S
C642 C647 1.379 . S
C642 N649 1.356 . S
C643 C642 1.363 . S
C643 C646 1.363 1_566 S
N644 C646 1.356 . S
N644 H656 0.984 . S
N644 H657 0.985 . S
N645 C647 1.356 . S
N645 H650 0.984 . S
N645 H651 0.985 . S
C646 C640 1.379 . S
C646 C643 1.363 1_544 S
C646 N644 1.356 . S
C647 C641 1.363 . S
C647 C642 1.379 . S
C647 N645 1.356 . S
N648 C640 1.356 . S
N648 H654 0.984 . S
N648 H655 0.984 . S
N649 C642 1.356 . S
N649 H652 0.984 . S
N649 H653 0.985 . S
H650 N645 0.984 . S
H651 N645 0.985 . S
H652 N649 0.984 . S
H653 N649 0.985 . S
H654 N648 0.984 . S
H655 N648 0.984 . S
H656 N644 0.984 . S
H657 N644 0.985 . S
C658 C659 1.363 . S
C658 C664 1.379 . S
C658 N666 1.356 . S
C659 C658 1.363 . S
C659 C665 1.363 . S
C660 C661 1.363 . S
C660 C665 1.379 . S
C660 N667 1.356 . S
C661 C660 1.363 . S
C661 C664 1.363 . S
N662 C664 1.356 . S
N662 H674 0.984 . S
N662 H675 0.985 . S
N663 C665 1.356 . S
N663 H668 0.984 . S
N663 H669 0.985 . S
C664 C658 1.379 . S
C664 C661 1.363 . S
C664 N662 1.356 . S
C665 C659 1.363 . S
C665 C660 1.379 . S
C665 N663 1.356 . S
N666 C658 1.356 . S
N666 H672 0.984 . S
N666 H673 0.984 . S
N667 C660 1.356 . S
N667 H670 0.984 . S
N667 H671 0.985 . S
H668 N663 0.984 . S
H669 N663 0.985 . S
H670 N667 0.984 . S
H671 N667 0.985 . S
H672 N666 0.984 . S
H673 N666 0.984 . S
H674 N662 0.984 . S
H675 N662 0.985 . S
C676 C677 1.363 . S
C676 C682 1.379 . S
C676 N684 1.356 . S
C677 C676 1.363 . S
C677 C683 1.363 . S
C678 C679 1.363 . S
C678 C683 1.379 . S
C678 N685 1.356 . S
C679 C678 1.363 . S
C679 C682 1.363 . S
N680 C682 1.356 . S
N680 H692 0.984 . S
N680 H693 0.985 . S
N681 C683 1.356 . S
N681 H686 0.984 . S
N681 H687 0.985 . S
C682 C676 1.379 . S
C682 C679 1.363 . S
C682 N680 1.356 . S
C683 C677 1.363 . S
C683 C678 1.379 . S
C683 N681 1.356 . S
N684 C676 1.356 . S
N684 H690 0.984 . S
N684 H691 0.984 . S
N685 C678 1.356 . S
N685 H688 0.984 . S
N685 H689 0.985 . S
H686 N681 0.984 . S
H687 N681 0.985 . S
H688 N685 0.984 . S
H689 N685 0.985 . S
H690 N684 0.984 . S
H691 N684 0.984 . S
H692 N680 0.984 . S
H693 N680 0.985 . S
C694 C695 1.363 . S
C694 C700 1.379 1_556 S
C694 N702 1.356 . S
C695 C694 1.363 . S
C695 C701 1.363 1_556 S
C696 C697 1.363 . S
C696 C701 1.379 . S
C696 N703 1.356 . S
C697 C696 1.363 . S
C697 C700 1.363 . S
N698 C700 1.356 . S
N698 H710 0.984 . S
N698 H711 0.985 . S
N699 C701 1.356 1_556 S
N699 H704 0.984 . S
N699 H705 0.985 . S
C700 C694 1.379 1_554 S
C700 C697 1.363 . S
C700 N698 1.356 . S
C701 C695 1.363 1_554 S
C701 C696 1.379 . S
C701 N699 1.356 1_554 S
N702 C694 1.356 . S
N702 H708 0.984 . S
N702 H709 0.984 . S
N703 C696 1.356 . S
N703 H706 0.984 . S
N703 H707 0.985 . S
H704 N699 0.984 . S
H705 N699 0.985 . S
H706 N703 0.984 . S
H707 N703 0.985 . S
H708 N702 0.984 . S
H709 N702 0.984 . S
H710 N698 0.984 . S
H711 N698 0.985 . S
C712 C713 1.363 . S
C712 C718 1.379 . S
C712 N720 1.356 . S
C713 C712 1.363 . S
C713 C719 1.363 . S
C714 C715 1.363 . S
C714 C719 1.379 . S
C714 N721 1.356 . S
C715 C714 1.363 . S
C715 C718 1.363 . S
N716 C718 1.356 . S
N716 H728 0.984 . S
N716 H729 0.985 . S
N717 C719 1.356 . S
N717 H722 0.984 . S
N717 H723 0.985 . S
C718 C712 1.379 . S
C718 C715 1.363 . S
C718 N716 1.356 . S
C719 C713 1.363 . S
C719 C714 1.379 . S
C719 N717 1.356 . S
N720 C712 1.356 . S
N720 H726 0.984 . S
N720 H727 0.984 . S
N721 C714 1.356 . S
N721 H724 0.984 . S
N721 H725 0.985 . S
H722 N717 0.984 . S
H723 N717 0.985 . S
H724 N721 0.984 . S
H725 N721 0.985 . S
H726 N720 0.984 . S
H727 N720 0.984 . S
H728 N716 0.984 . S
H729 N716 0.985 . S
C730 C731 1.363 . S
C730 C736 1.379 . S
C730 N738 1.356 . S
C731 C730 1.363 . S
C731 C737 1.363 . S
C732 C733 1.363 . S
C732 C737 1.379 . S
C732 N739 1.356 . S
C733 C732 1.363 . S
C733 C736 1.363 . S
N734 C736 1.356 . S
N734 H746 0.984 . S
N734 H747 0.985 . S
N735 C737 1.356 . S
N735 H740 0.984 . S
N735 H741 0.985 1_655 S
C736 C730 1.379 . S
C736 C733 1.363 . S
C736 N734 1.356 . S
C737 C731 1.363 . S
C737 C732 1.379 . S
C737 N735 1.356 . S
N738 C730 1.356 . S
N738 H744 0.984 . S
N738 H745 0.984 . S
N739 C732 1.356 . S
N739 H742 0.984 . S
N739 H743 0.985 . S
H740 N735 0.984 . S
H741 N735 0.985 1_455 S
H742 N739 0.984 . S
H743 N739 0.985 . S
H744 N738 0.984 . S
H745 N738 0.984 . S
H746 N734 0.984 . S
H747 N734 0.985 . S
C748 C749 1.363 . S
C748 C754 1.379 . S
C748 N756 1.356 . S
C749 C748 1.363 . S
C749 C755 1.363 . S
C750 C751 1.363 . S
C750 C755 1.379 . S
C750 N757 1.356 . S
C751 C750 1.363 . S
C751 C754 1.363 . S
N752 C754 1.356 . S
N752 H764 0.984 . S
N752 H765 0.985 . S
N753 C755 1.356 1_455 S
N753 H758 0.984 . S
N753 H759 0.985 . S
C754 C748 1.379 . S
C754 C751 1.363 . S
C754 N752 1.356 . S
C755 C749 1.363 . S
C755 C750 1.379 . S
C755 N753 1.356 1_655 S
N756 C748 1.356 . S
N756 H762 0.984 . S
N756 H763 0.984 . S
N757 C750 1.356 . S
N757 H760 0.984 . S
N757 H761 0.985 1_655 S
H758 N753 0.984 . S
H759 N753 0.985 . S
H760 N757 0.984 . S
H761 N757 0.985 1_455 S
H762 N756 0.984 . S
H763 N756 0.984 . S
H764 N752 0.984 . S
H765 N752 0.985 . S
C766 C767 1.362 1_565 S
C766 C772 1.379 . S
C766 N774 1.356 . S
C767 C766 1.362 1_545 S
C767 C773 1.364 . S
C768 C769 1.363 . S
C768 C773 1.379 . S
C768 N775 1.356 . S
C769 C768 1.363 . S
C769 C772 1.363 1_545 S
N770 C772 1.356 . S
N770 H782 0.984 . S
N770 H783 0.985 . S
N771 C773 1.356 . S
N771 H776 0.984 . S
N771 H777 0.985 . S
C772 C766 1.379 . S
C772 C769 1.363 1_565 S
C772 N770 1.356 . S
C773 C767 1.364 . S
C773 C768 1.379 . S
C773 N771 1.356 . S
N774 C766 1.356 . S
N774 H780 0.984 . S
N774 H781 0.984 . S
N775 C768 1.356 . S
N775 H778 0.984 . S
N775 H779 0.985 . S
H776 N771 0.984 . S
H777 N771 0.985 . S
H778 N775 0.984 . S
H779 N775 0.985 . S
H780 N774 0.984 . S
H781 N774 0.984 . S
H782 N770 0.984 . S
H783 N770 0.985 . S
C209 C10 1.830 . S
C211 C95 1.829 . S
C227 C17 1.826 . S
C229 C56 1.827 . S
C245 C75 1.849 . S
C247 C30 1.880 . S
C263 C49 1.879 . S
C265 C88 1.848 . S
C281 C114 1.811 . S
C283 C166 1.809 . S
C299 C121 1.849 . S
C301 C186 1.874 . S
C317 C147 1.871 . S
C319 C140 1.838 . S
C335 C205 1.751 . S
C337 C173 1.750 . S
C353 C3 1.429 . S
C355 C81 1.441 . S
C371 C94 1.079 . S
C373 C23 1.073 . S
C389 C31 1.705 . S
C391 C55 1.707 . S
C407 C70 1.237 . S
C409 C44 1.307 . S
C425 C4 1.655 . S
C427 C192 1.664 . S
C443 C148 1.705 . S
C445 C16 1.701 1_655 S
C461 C179 1.584 1_455 S
C463 C36 1.591 . S
C479 C161 1.697 1_556 S
C481 C42 1.689 . S
C497 C134 1.321 . S
C499 C57 1.355 . S
C515 C68 1.433 . S
C517 C198 1.417 . S
C533 C82 1.262 . S
C535 C107 1.293 1_455 S
C551 C96 1.382 . S
C553 C122 1.396 . S
C569 C5 1.105 . S
C571 C62 1.113 . S
C587 C108 1.131 . S
C589 C172 1.120 . S
C605 C159 1.199 . S
C607 C127 1.169 . S
C623 C185 1.318 . S
C625 C135 1.233 . S
C641 C101 1.476 . S
C643 C43 1.478 . S
C659 C29 1.351 . S
C661 C83 1.267 . S
C677 C153 1.606 . S
C679 C199 1.603 . S
C695 C174 1.409 . S
C697 C133 1.424 . S
C713 C200 1.067 . S
C715 C160 1.075 . S
C731 C187 1.703 . S
C733 C109 1.698 . S
C749 C146 1.289 . S
C751 C120 1.235 . S
C767 C18 1.322 . S
C769 C69 1.291 . S
