# Generated by pormake.
# Topology kag, (6)-cn, num edge types: 1
# Building blocks:
#     Node 0, Type 0, BuildingBlock: BETGAK_clean_sbu_0, # of connection points: 6
#     Node 1, Type 0, BuildingBlock: BETGAK_clean_sbu_0, # of connection points: 6
#     Node 2, Type 0, BuildingBlock: BETGAK_clean_sbu_0, # of connection points: 6
#     Edge 3, Type (0, 0), BuildingBlock: TEMPAE_clean_linker_10, # of connection points: 2
#     Edge 4, Type (0, 0), BuildingBlock: TEMPAE_clean_linker_10, # of connection points: 2
#     Edge 5, Type (0, 0), BuildingBlock: TEMPAE_clean_linker_10, # of connection points: 2
#     Edge 6, Type (0, 0), BuildingBlock: TEMPAE_clean_linker_10, # of connection points: 2
#     Edge 7, Type (0, 0), BuildingBlock: TEMPAE_clean_linker_10, # of connection points: 2
#     Edge 8, Type (0, 0), BuildingBlock: TEMPAE_clean_linker_10, # of connection points: 2
#     Edge 9, Type (0, 0), BuildingBlock: TEMPAE_clean_linker_10, # of connection points: 2
#     Edge 10, Type (0, 0), BuildingBlock: TEMPAE_clean_linker_10, # of connection points: 2
#     Edge 11, Type (0, 0), BuildingBlock: TEMPAE_clean_linker_10, # of connection points: 2
# Relax obj value: 0.077
# Max RMSD: 0.193
# Mean RMSD: 0.102
data_MOF--net-kag--node1-BETGAK_clean_sbu_0--edge1-TEMPAE_clean_linker_10
_symmetry_space_group_name_H-M    P1
_symmetry_Int_Tables_number       1
_symmetry_cell_setting            triclinic
loop_
_symmetry_equiv_pos_as_xyz
'x, y, z'
_cell_length_a     32.605158
_cell_length_b     42.814907
_cell_length_c     15.031472
_cell_angle_alpha  94.950119
_cell_angle_beta   91.26443
_cell_angle_gamma 98.040765
loop_
_atom_site_label
_atom_site_type_symbol
_atom_site_fract_x
_atom_site_fract_y
_atom_site_fract_z
_atom_type_partial_charge
La0 La 1.04229 0.48296 0.00848 0.0
La1 La 0.0524 0.54984 0.01262 0.0
C2 C 1.02155 0.42552 0.03679 0.0
C3 C 0.98502 0.4004 0.02674 0.0
C4 C 0.97748 0.38023 0.9474 0.0
C5 C 0.94574 0.35443 0.94148 0.0
C6 C 0.9209 0.34801 0.01492 0.0
C7 C 0.92781 0.36864 0.09352 0.0
C8 C 0.95956 0.39444 0.09946 0.0
C9 C 0.05188 0.50349 0.84707 0.0
C10 C 0.95878 0.5171 1.00288 0.0
C11 C 0.07256 0.60698 0.98085 0.0
C12 C 0.10778 0.63304 0.99266 0.0
C13 C 0.10298 0.66062 0.04664 0.0
C14 C 0.13388 0.68689 0.05305 0.0
C15 C 0.1703 0.68642 0.00483 0.0
C16 C 0.17569 0.65845 0.95264 0.0
C17 C 0.14471 0.63201 0.94648 0.0
C18 C 1.04384 0.5299 0.17581 0.0
C19 C 0.13566 0.51572 0.01966 0.0
O20 O 1.03881 0.4347 0.96404 0.0
O21 O 1.02003 0.4494 0.0964 0.0
O22 O 0.06877 0.48057 0.87607 0.0
O23 O 1.02962 0.51403 0.90771 0.0
O24 O 0.97537 0.49084 0.01352 0.0
O25 O 0.98395 0.54358 0.99203 0.0
O26 O 0.05461 0.59827 0.0532 0.0
O27 O 0.07574 0.58275 0.92349 0.0
O28 O 1.02999 0.55436 0.14849 0.0
O29 O 0.06477 0.51863 0.11375 0.0
O30 O 0.11896 0.54134 1.00224 0.0
O31 O 0.11043 0.48992 0.03667 0.0
H32 H 0.99685 0.38381 0.8905 0.0
H33 H 0.94173 0.33881 0.88036 0.0
H34 H 0.90898 0.36462 0.15102 0.0
H35 H 0.96477 0.4093 0.1619 0.0
H36 H 0.07481 0.66211 0.08273 0.0
H37 H 0.12898 0.70777 0.09526 0.0
H38 H 0.20322 0.65731 0.91417 0.0
H39 H 0.14933 0.61112 0.90403 0.0
La40 La 0.592 0.02132 1.00048 0.0
La41 La 0.50374 1.01021 0.00423 0.0
C42 C 0.66485 0.04337 0.96261 0.0
C43 C 0.68853 0.07552 0.96778 0.0
C44 C 0.68322 0.09845 0.03766 0.0
C45 C 0.7059 0.12885 0.04125 0.0
C46 C 0.73416 0.13704 0.97466 0.0
C47 C 0.73864 0.11409 0.90388 0.0
C48 C 0.71615 0.08367 0.9007 0.0
C49 C 0.56574 1.01253 0.16434 0.0
C50 C 0.54121 0.08105 0.02154 0.0
C51 C 0.42958 0.98793 0.03089 0.0
C52 C 0.40692 0.95544 0.03074 0.0
C53 C 0.37263 0.94586 0.9718 0.0
C54 C 0.35148 0.915 0.96806 0.0
C55 C 0.36398 0.89306 0.02378 0.0
C56 C 0.3982 0.90268 0.08324 0.0
C57 C 0.4196 0.93351 0.08645 0.0
C58 C 0.53193 0.01963 0.8424 0.0
C59 C 0.5544 0.95061 0.98881 0.0
O60 O 0.65515 0.03192 0.0384 0.0
O61 O 0.63379 0.03774 0.90439 0.0
O62 O 0.59863 1.00322 0.1305 0.0
O63 O 0.54959 0.02809 0.1078 0.0
O64 O 0.57602 0.06992 1.00065 0.0
O65 O 0.5077 0.06132 0.03689 0.0
O66 O 0.44264 0.99616 0.9537 0.0
O67 O 0.45749 0.99743 0.09488 0.0
O68 O 0.50104 0.03159 0.87735 0.0
O69 O 0.54602 1.00276 0.89796 0.0
O70 O 0.51996 0.96197 0.01131 0.0
O71 O 0.58755 0.97009 0.97 0.0
H72 H 0.66165 0.09286 0.08973 0.0
H73 H 0.70179 0.14571 0.09714 0.0
H74 H 0.75935 0.11967 0.85036 0.0
H75 H 0.72027 0.06647 0.84557 0.0
H76 H 0.36225 0.96228 0.9282 0.0
H77 H 0.32491 0.90842 0.92239 0.0
H78 H 0.40875 0.88622 0.12643 0.0
H79 H 0.44619 0.94004 0.13208 0.0
La80 La 0.55497 0.55059 0.0175 0.0
La81 La 0.54076 0.48165 0.00373 0.0
C82 C 0.55606 0.60918 1.00064 0.0
C83 C 0.55765 0.64412 0.99339 0.0
C84 C 0.58117 0.66625 0.05605 0.0
C85 C 0.58132 0.69902 0.05289 0.0
C86 C 0.55777 0.71097 0.98716 0.0
C87 C 0.5346 0.68873 0.92368 0.0
C88 C 0.53456 0.65587 0.92675 0.0
C89 C 0.56017 0.52703 0.17612 0.0
C90 C 0.459 0.51443 0.0156 0.0
C91 C 0.5399 0.42275 0.01527 0.0
C92 C 0.53983 0.38779 0.01954 0.0
C93 C 0.55243 0.36904 0.94634 0.0
C94 C 0.55199 0.33622 0.94893 0.0
C95 C 0.53887 0.32084 0.02485 0.0
C96 C 0.52647 0.33972 0.0984 0.0
C97 C 0.52692 0.37264 0.09574 0.0
C98 C 0.53465 0.50616 0.84722 0.0
C99 C 0.63534 0.51755 0.00648 0.0
O100 O 0.57455 0.5981 0.06651 0.0
O101 O 0.53741 0.58698 0.94211 0.0
O102 O 0.58229 0.55211 0.15188 0.0
O103 O 0.53426 0.51653 0.1126 0.0
O104 O 0.48505 0.54148 0.01507 0.0
O105 O 0.47423 0.48715 0.0156 0.0
O106 O 0.55103 0.43702 0.94443 0.0
O107 O 0.5294 0.44193 0.08081 0.0
O108 O 0.51043 0.48223 0.87261 0.0
O109 O 0.56175 0.51562 0.90911 0.0
O110 O 0.60984 0.49281 0.03091 0.0
O111 O 0.61887 0.54245 0.98263 0.0
H112 H 0.59946 0.65825 0.10833 0.0
H113 H 0.60028 0.71501 0.10208 0.0
H114 H 0.51561 0.69662 0.8725 0.0
H115 H 0.51586 0.63963 0.87766 0.0
H116 H 0.56275 0.37975 0.88653 0.0
H117 H 0.56251 0.32295 0.89136 0.0
H118 H 0.51568 0.32901 0.15784 0.0
H119 H 0.5169 0.3862 0.15337 0.0
C120 C 1.01691 0.51912 0.70783 0.0
C121 C 0.05144 0.5098 0.7503 0.0
C122 C 1.01557 0.52195 0.61443 0.0
C123 C 0.05009 0.51635 0.56198 0.0
C124 C 0.08547 0.50793 0.6056 0.0
C125 C 0.08539 0.50425 0.69818 0.0
C126 C 0.97672 0.53017 0.57141 0.0
C127 C 0.12364 0.50279 0.55443 0.0
C128 C 1.03789 0.49592 0.30644 0.0
C129 C 0.04844 0.52557 0.27346 0.0
C130 C 1.03764 0.49263 0.39955 0.0
C131 C 0.04948 0.51946 0.46205 0.0
C132 C 0.06134 0.5493 0.42855 0.0
C133 C 0.05988 0.55205 0.33545 0.0
C134 C 1.02363 0.46047 0.43112 0.0
C135 C 0.07568 0.57846 0.49117 0.0
H136 H 0.99032 0.52312 0.74704 0.0
H137 H 0.11228 0.49711 0.73023 0.0
H138 H 0.98385 0.55251 0.53901 0.0
H139 H 0.96448 0.51133 0.51831 0.0
H140 H 0.95216 0.53299 0.62033 0.0
H141 H 0.14942 0.49807 0.59857 0.0
H142 H 0.11615 0.48245 0.50307 0.0
H143 H 0.13441 0.52395 0.51892 0.0
H144 H 1.02825 0.47542 0.25965 0.0
H145 H 0.06795 0.57511 0.31089 0.0
H146 H 0.99712 0.46178 0.47572 0.0
H147 H 0.04897 0.45287 0.47067 0.0
H148 H 1.01406 0.44216 0.37478 0.0
H149 H 0.05021 0.58383 0.53508 0.0
H150 H 0.08593 0.59954 0.45482 0.0
H151 H 0.10177 0.57416 0.53502 0.0
C152 C 0.52092 1.00945 0.30056 0.0
C153 C 0.56008 0.01556 0.26359 0.0
C154 C 0.51645 1.00945 0.39431 0.0
C155 C 0.55182 0.01678 0.45357 0.0
C156 C 0.59128 0.02385 0.41619 0.0
C157 C 0.59495 0.02255 0.3224 0.0
C158 C 0.47385 1.00084 0.42989 0.0
C159 C 0.62984 0.03298 0.47541 0.0
C160 C 0.5346 0.04546 0.6982 0.0
C161 C 0.53998 0.01905 0.7443 0.0
C162 C 0.53915 0.04524 0.60477 0.0
C163 C 0.54772 0.01746 0.55424 0.0
C164 C 0.55295 0.99058 0.60062 0.0
C165 C 0.54978 0.99188 0.69486 0.0
C166 C 0.53489 0.07494 0.56017 0.0
C167 C 0.5609 0.9601 0.55031 0.0
H168 H 0.49385 1.00355 0.25612 0.0
H169 H 0.6254 0.02734 0.29486 0.0
H170 H 0.47371 0.98046 0.47088 0.0
H171 H 0.46555 0.02093 0.47407 0.0
H172 H 0.44968 0.99453 0.37559 0.0
H173 H 0.65789 0.03944 0.43659 0.0
H174 H 0.62593 0.05337 0.52372 0.0
H175 H 0.635 1.01304 0.51474 0.0
H176 H 0.52703 0.06657 0.73567 0.0
H177 H 0.55343 0.9712 0.72945 0.0
H178 H 0.50805 0.07049 0.51195 0.0
H179 H 0.56292 0.08186 0.52184 0.0
H180 H 0.53052 0.09509 0.60904 0.0
H181 H 0.53577 0.95203 0.49902 0.0
H182 H 0.56272 0.94097 0.59508 0.0
H183 H 0.59034 0.96403 0.51472 0.0
C184 C 0.5029 0.50652 0.69347 0.0
C185 C 0.53847 0.51167 0.75027 0.0
C186 C 0.50532 0.50895 0.60046 0.0
C187 C 0.54448 0.51565 0.56147 0.0
C188 C 0.58061 0.52078 0.6187 0.0
C189 C 0.57715 0.51922 0.71218 0.0
C190 C 0.46577 0.50441 0.54385 0.0
C191 C 0.62312 0.52722 0.58086 0.0
C192 C 0.55091 0.49354 0.30771 0.0
C193 C 0.55335 0.52314 0.27321 0.0
C194 C 0.54859 0.49073 0.40097 0.0
C195 C 0.54743 0.51804 0.46155 0.0
C196 C 0.54866 0.54782 0.42618 0.0
C197 C 0.5523 0.55003 0.33338 0.0
C198 C 0.5484 0.45858 0.43491 0.0
C199 C 0.54607 0.57751 0.48647 0.0
H200 H 0.47288 0.50061 0.72212 0.0
H201 H 0.60488 0.52278 0.75506 0.0
H202 H 0.46425 0.52544 0.50621 0.0
H203 H 0.46526 0.48367 0.49405 0.0
H204 H 0.43772 0.5007 0.58442 0.0
H205 H 0.64822 0.5296 0.63323 0.0
H206 H 0.62765 0.5077 0.53012 0.0
H207 H 0.626 0.54932 0.54663 0.0
H208 H 0.55226 0.4727 0.2621 0.0
H209 H 0.5541 0.57304 0.30756 0.0
H210 H 0.51974 0.45216 0.47157 0.0
H211 H 0.57499 0.45923 0.48277 0.0
H212 H 0.55034 0.43978 0.38005 0.0
H213 H 0.51778 0.57428 0.52631 0.0
H214 H 0.54538 0.59858 0.44848 0.0
H215 H 0.57307 0.58227 0.53429 0.0
C216 C 0.20947 0.53675 0.97113 0.0
C217 C 0.18321 0.51603 0.0204 0.0
C218 C 0.25335 0.53642 0.96817 0.0
C219 C 0.27352 0.51588 0.01925 0.0
C220 C 0.24707 0.49552 0.0712 0.0
C221 C 0.20304 0.49531 0.0693 0.0
C222 C 0.27762 0.55832 0.9087 0.0
C223 C 0.26477 0.47362 0.13028 0.0
C224 C 0.38309 0.48969 0.97498 0.0
C225 C 0.41163 0.51483 0.01677 0.0
C226 C 0.33918 0.49011 0.97301 0.0
C227 C 0.32145 0.51558 0.01821 0.0
C228 C 0.3503 0.54069 0.06252 0.0
C229 C 0.39418 0.54039 0.05916 0.0
C230 C 0.31219 0.46287 0.92087 0.0
C231 C 0.33542 0.56833 0.11494 0.0
H232 H 0.19554 0.55295 0.93226 0.0
H233 H 0.18409 0.47909 0.10833 0.0
H234 H 0.2858 0.582 0.9458 0.0
H235 H 0.30655 0.54965 0.88639 0.0
H236 H 0.25863 0.56142 0.84865 0.0
H237 H 0.24575 0.47006 0.18996 0.0
H238 H 0.26416 0.45013 0.09254 0.0
H239 H 0.29719 0.48265 0.15315 0.0
H240 H 0.39518 0.46972 0.94105 0.0
H241 H 0.41497 0.56013 0.09234 0.0
H242 H 0.28231 0.46947 0.89754 0.0
H243 H 0.30567 0.4431 0.96387 0.0
H244 H 0.32843 0.45391 0.86179 0.0
H245 H 0.33465 0.58781 0.07114 0.0
H246 H 0.35704 0.57753 0.17238 0.0
H247 H 0.30398 0.56202 0.14067 0.0
C248 C 0.7425 0.1963 0.01062 0.0
C249 C 0.75944 0.16911 0.97973 0.0
C250 C 0.76634 0.22648 0.01688 0.0
C251 C 0.80817 0.22966 0.99144 0.0
C252 C 0.82538 0.2024 0.95957 0.0
C253 C 0.80094 0.17253 0.95451 0.0
C254 C 0.74684 0.25494 0.05138 0.0
C255 C 0.86984 0.20473 0.93164 0.0
C256 C 0.86484 0.30885 0.93347 0.0
C257 C 0.8896 0.31892 0.01104 0.0
C258 C 0.83734 0.2803 0.927 0.0
C259 C 0.83446 0.2613 0.99985 0.0
C260 C 0.85849 0.27175 0.0792 0.0
C261 C 0.88576 0.30035 0.08377 0.0
C262 C 0.81216 0.27006 0.84136 0.0
C263 C 0.85634 0.25223 0.15842 0.0
H264 H 0.71044 0.19408 0.0295 0.0
H265 H 0.8147 0.15173 0.93221 0.0
H266 H 0.76373 0.2664 0.11321 0.0
H267 H 0.74931 0.27271 1.00155 0.0
H268 H 0.71365 0.24858 0.06632 0.0
H269 H 0.87819 0.18142 0.90585 0.0
H270 H 0.87529 0.2213 0.87893 0.0
H271 H 0.89098 0.2144 0.98936 0.0
H272 H 0.86715 0.32325 0.87742 0.0
H273 H 0.90512 0.30765 0.14354 0.0
H274 H 0.77877 0.26501 0.85563 0.0
H275 H 0.82144 0.24782 0.80987 0.0
H276 H 0.81628 0.28827 0.79271 0.0
H277 H 0.82374 0.24656 0.17816 0.0
H278 H 0.87507 0.26456 0.21706 0.0
H279 H 0.86784 0.22942 0.13999 0.0
C280 C 0.59261 0.90271 0.98021 0.0
C281 C 0.55517 0.91545 0.98522 0.0
C282 C 0.59349 0.86972 0.97971 0.0
C283 C 0.55601 0.84853 0.98307 0.0
C284 C 0.51808 0.86125 0.98689 0.0
C285 C 0.51816 0.89432 0.98851 0.0
C286 C 0.63474 0.85755 0.9767 0.0
C287 C 0.47722 0.83992 0.9897 0.0
C288 C 0.55479 0.76031 0.90474 0.0
C289 C 0.55717 0.74628 0.98574 0.0
C290 C 0.55432 0.79327 0.90287 0.0
C291 C 0.55649 0.81322 0.98385 0.0
C292 C 0.55891 0.79928 0.06575 0.0
C293 C 0.55907 0.76627 0.06572 0.0
C294 C 0.55153 0.80678 0.81384 0.0
C295 C 0.56127 0.81931 0.15391 0.0
H296 H 0.62145 0.91859 0.97809 0.0
H297 H 0.48893 0.90362 0.99194 0.0
H298 H 0.63932 0.84489 0.03673 0.0
H299 H 0.63526 0.84028 0.91747 0.0
H300 H 0.6611 0.87688 0.97386 0.0
H301 H 0.4503 0.85318 0.98763 0.0
H302 H 0.47397 0.82146 0.93246 0.0
H303 H 0.47622 0.82756 0.05168 0.0
H304 H 0.55386 0.74559 0.84221 0.0
H305 H 0.56014 0.75606 0.12906 0.0
H306 H 0.57908 0.82462 0.80627 0.0
H307 H 0.52385 0.81911 0.81059 0.0
H308 H 0.54954 0.78826 0.7568 0.0
H309 H 0.5884 0.8382 0.1562 0.0
H310 H 0.56391 0.80517 0.21182 0.0
H311 H 0.53321 0.83117 0.16091 0.0
C312 C 0.89343 0.5439 0.0326 0.0
C313 C 0.91127 0.51683 1.00242 0.0
C314 C 0.84953 0.54392 0.03562 0.0
C315 C 0.82091 0.51664 1.00311 0.0
C316 C 0.83898 0.48943 0.97036 0.0
C317 C 0.88303 0.48963 0.97271 0.0
C318 C 0.83438 0.57364 0.0751 0.0
C319 C 0.81223 0.45956 0.93154 0.0
C320 C 0.70322 0.49973 0.06351 0.0
C321 C 0.68272 0.51721 0.0054 0.0
C322 C 0.74725 0.4999 0.06498 0.0
C323 C 0.77293 0.51666 0.0035 0.0
C324 C 0.752 0.53363 0.94284 0.0
C325 C 0.70821 0.53433 0.94616 0.0
C326 C 0.76579 0.48196 0.13404 0.0
C327 C 0.77534 0.55124 0.87264 0.0
H328 H 0.91399 0.56522 0.05666 0.0
H329 H 0.89541 0.46835 0.94873 0.0
H330 H 0.83285 0.59001 0.02222 0.0
H331 H 0.80324 0.56875 0.10344 0.0
H332 H 0.85627 0.58608 0.12861 0.0
H333 H 0.82797 0.4477 0.8761 0.0
H334 H 0.80726 0.44284 0.98395 0.0
H335 H 0.78162 0.46406 0.90595 0.0
H336 H 0.68484 0.48633 0.1103 0.0
H337 H 0.69371 0.5479 0.89996 0.0
H338 H 0.79837 0.49203 0.15281 0.0
H339 H 0.765 0.45696 0.10685 0.0
H340 H 0.74746 0.48188 0.19547 0.0
H341 H 0.78372 0.57646 0.89823 0.0
H342 H 0.75559 0.55058 0.81112 0.0
H343 H 0.80408 0.54144 0.8544 0.0
C344 C 0.1884 0.7453 0.00404 0.0
C345 C 0.20153 0.71551 0.00662 0.0
C346 C 0.21699 0.77311 0.00683 0.0
C347 C 0.25998 0.77125 0.0116 0.0
C348 C 0.27359 0.74129 0.01319 0.0
C349 C 0.24421 0.71377 0.01077 0.0
C350 C 0.20112 0.80455 0.00472 0.0
C351 C 0.31916 0.73833 0.01789 0.0
C352 C 0.32872 0.84316 0.93879 0.0
C353 C 0.34059 0.86054 0.02094 0.0
C354 C 0.30397 0.81342 0.93487 0.0
C355 C 0.29038 0.80086 0.01503 0.0
C356 C 0.30339 0.81784 0.09828 0.0
C357 C 0.32848 0.84741 0.10023 0.0
C358 C 0.29126 0.79592 0.8448 0.0
C359 C 0.28936 0.80541 0.18523 0.0
H360 H 0.15556 0.74689 0.99889 0.0
H361 H 0.25466 0.69092 0.01346 0.0
H362 H 0.21274 0.82037 0.06504 0.0
H363 H 0.21291 0.81641 0.94571 0.0
H364 H 0.16672 0.80197 1.00188 0.0
H365 H 0.32471 0.71329 0.01689 0.0
H366 H 0.33488 0.74903 0.96079 0.0
H367 H 0.33379 0.75155 0.0799 0.0
H368 H 0.33853 0.85301 0.87735 0.0
H369 H 0.33734 0.86082 0.16388 0.0
H370 H 0.25731 0.7946 0.8333 0.0
H371 H 0.29828 0.77125 0.84286 0.0
H372 H 0.30717 0.80762 0.78931 0.0
H373 H 0.25531 0.80469 0.18942 0.0
H374 H 0.30454 0.82031 0.24428 0.0
H375 H 0.29613 0.78084 0.18821 0.0
C376 C 0.54868 0.27222 0.10534 0.0
C377 C 0.53814 0.28543 0.02679 0.0
C378 C 0.54877 0.23923 0.10732 0.0
C379 C 0.53808 0.21844 0.02895 0.0
C380 C 0.52716 0.23154 0.94966 0.0
C381 C 0.52726 0.26458 0.94956 0.0
C382 C 0.56078 0.22662 0.19341 0.0
C383 C 0.5156 0.21059 0.8643 0.0
C384 C 0.57583 0.13702 0.00719 0.0
C385 C 0.54032 0.11625 0.02604 0.0
C386 C 0.57556 0.17003 0.00819 0.0
C387 C 0.53895 0.18315 0.02925 0.0
C388 C 0.50307 0.16237 0.04912 0.0
C389 C 0.50415 0.12936 0.04715 0.0
C390 C 0.6147 0.19085 0.98655 0.0
C391 C 0.46329 0.17502 0.0719 0.0
H392 H 0.5577 0.28776 0.16536 0.0
H393 H 0.51834 0.27404 0.88861 0.0
H394 H 0.53573 0.20833 0.21231 0.0
H395 H 0.58899 0.21507 0.18406 0.0
H396 H 0.56699 0.24555 0.24936 0.0
H397 H 0.50753 0.22421 0.80835 0.0
H398 H 0.54179 0.1978 0.84447 0.0
H399 H 0.48878 0.19247 0.875 0.0
H400 H 0.60408 0.12748 0.99077 0.0
H401 H 0.47645 0.1138 0.06181 0.0
H402 H 0.62687 0.20636 0.04702 0.0
H403 H 0.60815 0.20646 0.93434 0.0
H404 H 0.63917 0.17682 0.96284 0.0
H405 H 0.46875 0.19292 0.13041 0.0
H406 H 0.43829 0.15604 0.08731 0.0
H407 H 0.45248 0.18707 0.01518 0.0
loop_
_geom_bond_atom_site_label_1
_geom_bond_atom_site_label_2
_geom_bond_distance
_geom_bond_site_symmetry_2
_ccdc_geom_bond_type
La0 C2 2.928 . S
La0 O20 2.521 . S
La0 O21 2.628 1_556 S
La0 O22 2.554 . S
La0 O23 2.757 1_655 S
La0 O24 2.470 . S
La0 O29 2.482 1_556 S
La0 O31 2.503 1_655 S
La1 C11 2.928 . S
La1 O23 2.482 1_554 S
La1 O25 2.503 1_455 S
La1 O26 2.521 . S
La1 O27 2.628 1_554 S
La1 O28 2.554 . S
La1 O29 2.757 1_455 S
La1 O30 2.470 . S
C2 La0 2.928 . S
C2 C3 1.503 . S
C2 O20 1.261 . S
C2 O21 1.243 1_556 S
C3 C2 1.503 . S
C3 C4 1.394 . S
C3 C8 1.373 1_556 S
C4 C3 1.394 . S
C4 C5 1.380 . S
C4 H32 0.930 . S
C5 C4 1.380 . S
C5 C6 1.376 . S
C5 H33 0.930 . S
C6 C5 1.376 . S
C6 C7 1.370 1_556 S
C7 C6 1.370 1_554 S
C7 C8 1.396 . S
C7 H34 0.929 . S
C8 C3 1.373 1_554 S
C8 C7 1.396 . S
C8 H35 0.929 . S
C9 O22 1.240 1_455 S
C9 O23 1.289 . S
C10 O24 1.258 . S
C10 O25 1.256 1_556 S
C11 La1 2.928 . S
C11 C12 1.503 . S
C11 O26 1.261 . S
C11 O27 1.243 1_554 S
C12 C11 1.503 . S
C12 C13 1.394 . S
C12 C17 1.373 1_554 S
C13 C12 1.394 . S
C13 C14 1.380 . S
C13 H36 0.930 . S
C14 C13 1.380 . S
C14 C15 1.376 . S
C14 H37 0.930 . S
C15 C14 1.376 . S
C15 C16 1.370 1_554 S
C16 C15 1.370 1_556 S
C16 C17 1.396 . S
C16 H38 0.929 . S
C17 C12 1.373 1_556 S
C17 C16 1.396 . S
C17 H39 0.929 . S
C18 O28 1.240 . S
C18 O29 1.289 1_455 S
C19 O30 1.258 . S
C19 O31 1.256 1_554 S
O20 La0 2.521 . S
O20 C2 1.261 . S
O21 La0 2.628 1_554 S
O21 C2 1.243 1_554 S
O22 La0 2.554 . S
O22 C9 1.240 1_655 S
O23 La0 2.757 1_455 S
O23 La1 2.482 1_556 S
O23 C9 1.289 . S
O24 La0 2.470 . S
O24 C10 1.258 . S
O25 La1 2.503 1_655 S
O25 C10 1.256 1_554 S
O26 La1 2.521 . S
O26 C11 1.261 . S
O27 La1 2.628 1_556 S
O27 C11 1.243 1_556 S
O28 La1 2.554 . S
O28 C18 1.240 . S
O29 La0 2.482 1_554 S
O29 La1 2.757 1_655 S
O29 C18 1.289 1_655 S
O30 La1 2.470 . S
O30 C19 1.258 . S
O31 La0 2.503 1_455 S
O31 C19 1.256 1_556 S
H32 C4 0.930 . S
H33 C5 0.930 . S
H34 C7 0.929 . S
H35 C8 0.929 . S
H36 C13 0.930 . S
H37 C14 0.930 . S
H38 C16 0.929 . S
H39 C17 0.929 . S
La40 C42 2.926 1_554 S
La40 O60 2.521 . S
La40 O61 2.628 1_554 S
La40 O62 2.554 . S
La40 O63 2.757 1_545 S
La40 O64 2.470 . S
La40 O69 2.482 1_554 S
La40 O71 2.503 1_544 S
La41 C51 2.928 1_556 S
La41 O63 2.482 1_556 S
La41 O65 2.503 1_566 S
La41 O66 2.521 . S
La41 O67 2.628 1_556 S
La41 O68 2.554 . S
La41 O69 2.757 1_565 S
La41 O70 2.470 . S
C42 La40 2.926 1_556 S
C42 C43 1.504 . S
C42 O60 1.252 1_556 S
C42 O61 1.251 . S
C43 C42 1.504 . S
C43 C44 1.394 1_556 S
C43 C48 1.373 . S
C44 C43 1.394 1_554 S
C44 C45 1.380 . S
C44 H72 0.930 . S
C45 C44 1.380 . S
C45 C46 1.376 1_554 S
C45 H73 0.930 . S
C46 C45 1.376 1_556 S
C46 C47 1.370 . S
C47 C46 1.370 . S
C47 C48 1.396 . S
C47 H74 0.929 . S
C48 C43 1.373 . S
C48 C47 1.396 . S
C48 H75 0.929 . S
C49 O62 1.240 . S
C49 O63 1.289 1_545 S
C50 O64 1.258 . S
C50 O65 1.256 . S
C51 La41 2.928 1_554 S
C51 C52 1.503 . S
C51 O66 1.261 1_554 S
C51 O67 1.243 . S
C52 C51 1.503 . S
C52 C53 1.394 1_554 S
C52 C57 1.373 . S
C53 C52 1.394 1_556 S
C53 C54 1.380 . S
C53 H76 0.930 . S
C54 C53 1.380 . S
C54 C55 1.376 1_556 S
C54 H77 0.930 . S
C55 C54 1.376 1_554 S
C55 C56 1.370 . S
C56 C55 1.370 . S
C56 C57 1.396 . S
C56 H78 0.929 . S
C57 C52 1.373 . S
C57 C56 1.396 . S
C57 H79 0.929 . S
C58 O68 1.240 . S
C58 O69 1.289 1_565 S
C59 O70 1.258 . S
C59 O71 1.256 . S
O60 La40 2.521 . S
O60 C42 1.252 1_554 S
O61 La40 2.628 1_556 S
O61 C42 1.251 . S
O62 La40 2.554 . S
O62 C49 1.240 . S
O63 La40 2.757 1_565 S
O63 La41 2.482 1_554 S
O63 C49 1.289 1_565 S
O64 La40 2.470 . S
O64 C50 1.258 . S
O65 La41 2.503 1_544 S
O65 C50 1.256 . S
O66 La41 2.521 . S
O66 C51 1.261 1_556 S
O67 La41 2.628 1_554 S
O67 C51 1.243 . S
O68 La41 2.554 . S
O68 C58 1.240 . S
O69 La40 2.482 1_556 S
O69 La41 2.757 1_545 S
O69 C58 1.289 1_545 S
O70 La41 2.470 . S
O70 C59 1.258 . S
O71 La40 2.503 1_566 S
O71 C59 1.256 . S
H72 C44 0.930 . S
H73 C45 0.930 . S
H74 C47 0.929 . S
H75 C48 0.929 . S
H76 C53 0.930 . S
H77 C54 0.930 . S
H78 C56 0.929 . S
H79 C57 0.929 . S
La80 C82 2.928 . S
La80 O100 2.521 . S
La80 O101 2.628 1_554 S
La80 O102 2.554 . S
La80 O103 2.757 . S
La80 O104 2.470 . S
La80 O109 2.482 1_554 S
La80 O111 2.503 . S
La81 C91 2.928 . S
La81 O103 2.482 1_556 S
La81 O105 2.503 . S
La81 O106 2.521 . S
La81 O107 2.628 1_556 S
La81 O108 2.554 . S
La81 O109 2.757 . S
La81 O110 2.470 . S
C82 La80 2.928 . S
C82 C83 1.503 . S
C82 O100 1.261 . S
C82 O101 1.243 1_554 S
C83 C82 1.503 . S
C83 C84 1.394 . S
C83 C88 1.373 1_554 S
C84 C83 1.394 . S
C84 C85 1.380 . S
C84 H112 0.930 . S
C85 C84 1.380 . S
C85 C86 1.381 . S
C85 H113 0.930 . S
C86 C85 1.381 . S
C86 C87 1.366 1_554 S
C87 C86 1.366 1_556 S
C87 C88 1.396 . S
C87 H114 0.929 . S
C88 C83 1.373 1_556 S
C88 C87 1.396 . S
C88 H115 0.929 . S
C89 O102 1.240 . S
C89 O103 1.289 . S
C90 O104 1.258 . S
C90 O105 1.256 1_554 S
C91 La81 2.928 . S
C91 C92 1.503 . S
C91 O106 1.261 . S
C91 O107 1.243 1_556 S
C92 C91 1.503 . S
C92 C93 1.394 . S
C92 C97 1.373 1_556 S
C93 C92 1.394 . S
C93 C94 1.380 . S
C93 H116 0.930 . S
C94 C93 1.380 . S
C94 C95 1.376 . S
C94 H117 0.930 . S
C95 C94 1.376 . S
C95 C96 1.371 1_556 S
C96 C95 1.371 1_554 S
C96 C97 1.396 . S
C96 H118 0.929 . S
C97 C92 1.373 1_554 S
C97 C96 1.396 . S
C97 H119 0.929 . S
C98 O108 1.240 . S
C98 O109 1.289 . S
C99 O110 1.258 . S
C99 O111 1.256 1_556 S
O100 La80 2.521 . S
O100 C82 1.261 . S
O101 La80 2.628 1_556 S
O101 C82 1.243 1_556 S
O102 La80 2.554 . S
O102 C89 1.240 . S
O103 La80 2.757 . S
O103 La81 2.482 1_554 S
O103 C89 1.289 . S
O104 La80 2.470 . S
O104 C90 1.258 . S
O105 La81 2.503 . S
O105 C90 1.256 1_556 S
O106 La81 2.521 . S
O106 C91 1.261 . S
O107 La81 2.628 1_554 S
O107 C91 1.243 1_554 S
O108 La81 2.554 . S
O108 C98 1.240 . S
O109 La80 2.482 1_556 S
O109 La81 2.757 . S
O109 C98 1.289 . S
O110 La81 2.470 . S
O110 C99 1.258 . S
O111 La80 2.503 . S
O111 C99 1.256 1_554 S
H112 C84 0.930 . S
H113 C85 0.930 . S
H114 C87 0.929 . S
H115 C88 0.929 . S
H116 C93 0.930 . S
H117 C94 0.930 . S
H118 C96 0.929 . S
H119 C97 0.929 . S
C120 C121 1.391 1_655 S
C120 C122 1.394 . S
C120 H136 0.931 . S
C121 C120 1.391 1_455 S
C121 C125 1.376 . S
C122 C120 1.394 . S
C122 C123 1.369 1_655 S
C122 C126 1.531 . S
C123 C122 1.369 1_455 S
C123 C124 1.410 . S
C123 C131 1.503 . S
C124 C123 1.410 . S
C124 C125 1.392 . S
C124 C127 1.511 . S
C125 C121 1.376 . S
C125 C124 1.392 . S
C125 H137 0.929 . S
C126 C122 1.531 . S
C126 H138 0.960 . S
C126 H139 0.962 . S
C126 H140 0.960 . S
C127 C124 1.511 . S
C127 H141 0.961 . S
C127 H142 0.961 . S
C127 H143 0.961 . S
C128 C129 1.370 1_655 S
C128 C130 1.363 . S
C128 H144 0.931 . S
C129 C128 1.370 1_455 S
C129 C133 1.408 . S
C130 C128 1.363 . S
C130 C131 1.370 1_655 S
C130 C134 1.524 . S
C131 C123 1.503 . S
C131 C130 1.370 1_455 S
C131 C132 1.403 . S
C132 C131 1.403 . S
C132 C133 1.404 . S
C132 C135 1.539 . S
C133 C129 1.408 . S
C133 C132 1.404 . S
C133 H145 0.930 . S
C134 C130 1.524 . S
C134 H146 0.956 . S
C134 H147 0.961 . S
C134 H148 0.961 . S
C135 C132 1.539 . S
C135 H149 0.958 . S
C135 H150 0.961 . S
C135 H151 0.960 . S
H136 C120 0.931 . S
H137 C125 0.929 . S
H138 C126 0.960 . S
H139 C126 0.962 . S
H140 C126 0.960 . S
H141 C127 0.961 . S
H142 C127 0.961 . S
H143 C127 0.961 . S
H144 C128 0.931 . S
H145 C133 0.930 . S
H146 C134 0.956 . S
H147 C134 0.961 . S
H148 C134 0.961 . S
H149 C135 0.958 . S
H150 C135 0.961 . S
H151 C135 0.960 . S
C152 C153 1.391 . S
C152 C154 1.394 . S
C152 H168 0.931 . S
C153 C152 1.391 . S
C153 C157 1.373 . S
C154 C152 1.394 . S
C154 C155 1.369 . S
C154 C158 1.531 . S
C155 C154 1.369 . S
C155 C156 1.410 . S
C155 C163 1.503 . S
C156 C155 1.410 . S
C156 C157 1.396 . S
C156 C159 1.511 . S
C157 C153 1.373 . S
C157 C156 1.396 . S
C157 H169 0.928 1_565 S
C158 C154 1.531 . S
C158 H170 0.960 . S
C158 H171 0.962 1_565 S
C158 H172 0.960 . S
C159 C156 1.511 . S
C159 H173 0.961 1_565 S
C159 H174 0.961 1_565 S
C159 H175 0.961 . S
C160 C161 1.370 1_545 S
C160 C162 1.363 . S
C160 H176 0.931 . S
C161 C160 1.370 1_565 S
C161 C165 1.408 . S
C162 C160 1.363 . S
C162 C163 1.370 1_545 S
C162 C166 1.524 . S
C163 C155 1.503 . S
C163 C162 1.370 1_565 S
C163 C164 1.403 . S
C164 C163 1.403 . S
C164 C165 1.404 . S
C164 C167 1.539 . S
C165 C161 1.408 . S
C165 C164 1.404 . S
C165 H177 0.930 . S
C166 C162 1.524 . S
C166 H178 0.956 . S
C166 H179 0.961 . S
C166 H180 0.961 . S
C167 C164 1.539 . S
C167 H181 0.958 . S
C167 H182 0.961 . S
C167 H183 0.960 . S
H168 C152 0.931 . S
H169 C157 0.928 1_545 S
H170 C158 0.960 . S
H171 C158 0.962 1_545 S
H172 C158 0.960 . S
H173 C159 0.961 1_545 S
H174 C159 0.961 1_545 S
H175 C159 0.961 . S
H176 C160 0.931 . S
H177 C165 0.930 . S
H178 C166 0.956 . S
H179 C166 0.961 . S
H180 C166 0.961 . S
H181 C167 0.958 . S
H182 C167 0.961 . S
H183 C167 0.960 . S
C184 C185 1.391 . S
C184 C186 1.394 . S
C184 H200 0.931 . S
C185 C184 1.391 . S
C185 C189 1.376 . S
C186 C184 1.394 . S
C186 C187 1.369 . S
C186 C190 1.531 . S
C187 C186 1.369 . S
C187 C188 1.410 . S
C187 C195 1.503 . S
C188 C187 1.410 . S
C188 C189 1.392 . S
C188 C191 1.511 . S
C189 C185 1.376 . S
C189 C188 1.392 . S
C189 H201 0.929 . S
C190 C186 1.531 . S
C190 H202 0.960 . S
C190 H203 0.962 . S
C190 H204 0.960 . S
C191 C188 1.511 . S
C191 H205 0.961 . S
C191 H206 0.961 . S
C191 H207 0.961 . S
C192 C193 1.370 . S
C192 C194 1.363 . S
C192 H208 0.931 . S
C193 C192 1.370 . S
C193 C197 1.408 . S
C194 C192 1.363 . S
C194 C195 1.370 . S
C194 C198 1.524 . S
C195 C187 1.503 . S
C195 C194 1.370 . S
C195 C196 1.403 . S
C196 C195 1.403 . S
C196 C197 1.404 . S
C196 C199 1.539 . S
C197 C193 1.408 . S
C197 C196 1.404 . S
C197 H209 0.930 . S
C198 C194 1.524 . S
C198 H210 0.956 . S
C198 H211 0.961 . S
C198 H212 0.961 . S
C199 C196 1.539 . S
C199 H213 0.958 . S
C199 H214 0.961 . S
C199 H215 0.960 . S
H200 C184 0.931 . S
H201 C189 0.929 . S
H202 C190 0.960 . S
H203 C190 0.962 . S
H204 C190 0.960 . S
H205 C191 0.961 . S
H206 C191 0.961 . S
H207 C191 0.961 . S
H208 C192 0.931 . S
H209 C197 0.930 . S
H210 C198 0.956 . S
H211 C198 0.961 . S
H212 C198 0.961 . S
H213 C199 0.958 . S
H214 C199 0.961 . S
H215 C199 0.960 . S
C216 C217 1.391 1_556 S
C216 C218 1.394 . S
C216 H232 0.931 . S
C217 C216 1.391 1_554 S
C217 C221 1.376 . S
C218 C216 1.394 . S
C218 C219 1.369 1_556 S
C218 C222 1.531 . S
C219 C218 1.369 1_554 S
C219 C220 1.410 . S
C219 C227 1.503 . S
C220 C219 1.410 . S
C220 C221 1.392 . S
C220 C223 1.511 . S
C221 C217 1.376 . S
C221 C220 1.392 . S
C221 H233 0.929 . S
C222 C218 1.531 . S
C222 H234 0.960 . S
C222 H235 0.962 . S
C222 H236 0.960 . S
C223 C220 1.511 . S
C223 H237 0.961 . S
C223 H238 0.961 . S
C223 H239 0.961 . S
C224 C225 1.370 . S
C224 C226 1.363 . S
C224 H240 0.931 . S
C225 C224 1.370 . S
C225 C229 1.408 1_556 S
C226 C224 1.363 . S
C226 C227 1.370 1_556 S
C226 C230 1.524 . S
C227 C219 1.503 . S
C227 C226 1.370 1_554 S
C227 C228 1.403 . S
C228 C227 1.403 . S
C228 C229 1.404 . S
C228 C231 1.539 . S
C229 C225 1.408 1_554 S
C229 C228 1.404 . S
C229 H241 0.930 . S
C230 C226 1.524 . S
C230 H242 0.956 . S
C230 H243 0.961 . S
C230 H244 0.961 . S
C231 C228 1.539 . S
C231 H245 0.958 . S
C231 H246 0.961 . S
C231 H247 0.960 . S
H232 C216 0.931 . S
H233 C221 0.929 . S
H234 C222 0.960 . S
H235 C222 0.962 . S
H236 C222 0.960 . S
H237 C223 0.961 . S
H238 C223 0.961 . S
H239 C223 0.961 . S
H240 C224 0.931 . S
H241 C229 0.930 . S
H242 C230 0.956 . S
H243 C230 0.961 . S
H244 C230 0.961 . S
H245 C231 0.958 . S
H246 C231 0.961 . S
H247 C231 0.960 . S
C248 C249 1.391 . S
C248 C250 1.394 . S
C248 H264 0.931 . S
C249 C248 1.391 . S
C249 C253 1.375 1_554 S
C250 C248 1.394 . S
C250 C251 1.369 . S
C250 C254 1.531 . S
C251 C250 1.369 . S
C251 C252 1.410 1_554 S
C251 C259 1.503 . S
C252 C251 1.410 1_556 S
C252 C253 1.392 . S
C252 C255 1.511 . S
C253 C249 1.375 1_556 S
C253 C252 1.392 . S
C253 H265 0.929 . S
C254 C250 1.531 . S
C254 H266 0.960 . S
C254 H267 0.962 . S
C254 H268 0.960 . S
C255 C252 1.511 . S
C255 H269 0.961 . S
C255 H270 0.961 . S
C255 H271 0.961 . S
C256 C257 1.365 1_556 S
C256 C258 1.363 . S
C256 H272 0.931 . S
C257 C256 1.365 1_554 S
C257 C261 1.415 . S
C258 C256 1.363 . S
C258 C259 1.370 1_556 S
C258 C262 1.524 . S
C259 C251 1.503 . S
C259 C258 1.370 1_554 S
C259 C260 1.403 . S
C260 C259 1.403 . S
C260 C261 1.404 . S
C260 C263 1.539 . S
C261 C257 1.415 . S
C261 C260 1.404 . S
C261 H273 0.930 . S
C262 C258 1.524 . S
C262 H274 0.956 . S
C262 H275 0.961 . S
C262 H276 0.961 . S
C263 C260 1.539 . S
C263 H277 0.958 . S
C263 H278 0.961 . S
C263 H279 0.960 . S
H264 C248 0.931 . S
H265 C253 0.929 . S
H266 C254 0.960 . S
H267 C254 0.962 . S
H268 C254 0.960 . S
H269 C255 0.961 . S
H270 C255 0.961 . S
H271 C255 0.961 . S
H272 C256 0.931 . S
H273 C261 0.930 . S
H274 C262 0.956 . S
H275 C262 0.961 . S
H276 C262 0.961 . S
H277 C263 0.958 . S
H278 C263 0.961 . S
H279 C263 0.960 . S
C280 C281 1.391 . S
C280 C282 1.394 . S
C280 H296 0.931 . S
C281 C280 1.391 . S
C281 C285 1.376 1_554 S
C282 C280 1.394 . S
C282 C283 1.369 . S
C282 C286 1.531 . S
C283 C282 1.369 . S
C283 C284 1.410 1_554 S
C283 C291 1.503 . S
C284 C283 1.410 1_556 S
C284 C285 1.392 . S
C284 C287 1.511 . S
C285 C281 1.376 1_556 S
C285 C284 1.392 . S
C285 H297 0.929 . S
C286 C282 1.531 . S
C286 H298 0.960 . S
C286 H299 0.962 . S
C286 H300 0.960 . S
C287 C284 1.511 . S
C287 H301 0.961 . S
C287 H302 0.961 . S
C287 H303 0.961 . S
C288 C289 1.364 1_556 S
C288 C290 1.363 . S
C288 H304 0.931 . S
C289 C288 1.364 1_554 S
C289 C293 1.415 . S
C290 C288 1.363 . S
C290 C291 1.370 1_556 S
C290 C294 1.524 . S
C291 C283 1.503 . S
C291 C290 1.370 1_554 S
C291 C292 1.403 . S
C292 C291 1.403 . S
C292 C293 1.404 . S
C292 C295 1.539 . S
C293 C289 1.415 . S
C293 C292 1.404 . S
C293 H305 0.930 . S
C294 C290 1.524 . S
C294 H306 0.956 . S
C294 H307 0.961 . S
C294 H308 0.961 . S
C295 C292 1.539 . S
C295 H309 0.958 . S
C295 H310 0.961 . S
C295 H311 0.960 . S
H296 C280 0.931 . S
H297 C285 0.929 . S
H298 C286 0.960 . S
H299 C286 0.962 . S
H300 C286 0.960 . S
H301 C287 0.961 . S
H302 C287 0.961 . S
H303 C287 0.961 . S
H304 C288 0.931 . S
H305 C293 0.930 . S
H306 C294 0.956 . S
H307 C294 0.961 . S
H308 C294 0.961 . S
H309 C295 0.958 . S
H310 C295 0.961 . S
H311 C295 0.960 . S
C312 C313 1.391 1_554 S
C312 C314 1.394 . S
C312 H328 0.931 . S
C313 C312 1.391 1_556 S
C313 C317 1.376 . S
C314 C312 1.394 . S
C314 C315 1.369 1_554 S
C314 C318 1.531 . S
C315 C314 1.369 1_556 S
C315 C316 1.410 . S
C315 C323 1.503 . S
C316 C315 1.410 . S
C316 C317 1.392 . S
C316 C319 1.511 . S
C317 C313 1.376 . S
C317 C316 1.392 . S
C317 H329 0.929 . S
C318 C314 1.531 . S
C318 H330 0.960 . S
C318 H331 0.962 . S
C318 H332 0.960 . S
C319 C316 1.511 . S
C319 H333 0.961 . S
C319 H334 0.961 . S
C319 H335 0.961 . S
C320 C321 1.370 . S
C320 C322 1.363 . S
C320 H336 0.931 . S
C321 C320 1.370 . S
C321 C325 1.408 1_554 S
C322 C320 1.363 . S
C322 C323 1.370 1_554 S
C322 C326 1.524 . S
C323 C315 1.503 . S
C323 C322 1.370 1_556 S
C323 C324 1.403 . S
C324 C323 1.403 . S
C324 C325 1.404 . S
C324 C327 1.539 . S
C325 C321 1.408 1_556 S
C325 C324 1.404 . S
C325 H337 0.930 . S
C326 C322 1.524 . S
C326 H338 0.956 . S
C326 H339 0.961 . S
C326 H340 0.961 . S
C327 C324 1.539 . S
C327 H341 0.958 . S
C327 H342 0.961 . S
C327 H343 0.960 . S
H328 C312 0.931 . S
H329 C317 0.929 . S
H330 C318 0.960 . S
H331 C318 0.962 . S
H332 C318 0.960 . S
H333 C319 0.961 . S
H334 C319 0.961 . S
H335 C319 0.961 . S
H336 C320 0.931 . S
H337 C325 0.930 . S
H338 C326 0.956 . S
H339 C326 0.961 . S
H340 C326 0.961 . S
H341 C327 0.958 . S
H342 C327 0.961 . S
H343 C327 0.960 . S
C344 C345 1.391 1_556 S
C344 C346 1.394 . S
C344 H360 0.931 . S
C345 C344 1.391 1_554 S
C345 C349 1.376 . S
C346 C344 1.394 . S
C346 C347 1.369 1_556 S
C346 C350 1.531 . S
C347 C346 1.369 1_554 S
C347 C348 1.410 . S
C347 C355 1.503 . S
C348 C347 1.410 . S
C348 C349 1.392 . S
C348 C351 1.511 . S
C349 C345 1.376 . S
C349 C348 1.392 . S
C349 H361 0.929 . S
C350 C346 1.531 . S
C350 H362 0.960 1_556 S
C350 H363 0.962 . S
C350 H364 0.960 . S
C351 C348 1.511 . S
C351 H365 0.961 . S
C351 H366 0.961 . S
C351 H367 0.961 . S
C352 C353 1.370 1_556 S
C352 C354 1.363 . S
C352 H368 0.931 . S
C353 C352 1.370 1_554 S
C353 C357 1.408 . S
C354 C352 1.363 . S
C354 C355 1.370 1_556 S
C354 C358 1.524 . S
C355 C347 1.503 . S
C355 C354 1.370 1_554 S
C355 C356 1.403 . S
C356 C355 1.403 . S
C356 C357 1.404 . S
C356 C359 1.539 . S
C357 C353 1.408 . S
C357 C356 1.404 . S
C357 H369 0.930 . S
C358 C354 1.524 . S
C358 H370 0.956 . S
C358 H371 0.961 . S
C358 H372 0.961 . S
C359 C356 1.539 . S
C359 H373 0.958 . S
C359 H374 0.961 . S
C359 H375 0.960 . S
H360 C344 0.931 . S
H361 C349 0.929 . S
H362 C350 0.960 1_554 S
H363 C350 0.962 . S
H364 C350 0.960 . S
H365 C351 0.961 . S
H366 C351 0.961 . S
H367 C351 0.961 . S
H368 C352 0.931 . S
H369 C357 0.930 . S
H370 C358 0.956 . S
H371 C358 0.961 . S
H372 C358 0.961 . S
H373 C359 0.958 . S
H374 C359 0.961 . S
H375 C359 0.960 . S
C376 C377 1.391 . S
C376 C378 1.394 . S
C376 H392 0.931 . S
C377 C376 1.391 . S
C377 C381 1.376 1_554 S
C378 C376 1.394 . S
C378 C379 1.369 . S
C378 C382 1.531 . S
C379 C378 1.369 . S
C379 C380 1.410 1_554 S
C379 C387 1.503 . S
C380 C379 1.410 1_556 S
C380 C381 1.392 . S
C380 C383 1.511 . S
C381 C377 1.376 1_556 S
C381 C380 1.392 . S
C381 H393 0.929 . S
C382 C378 1.531 . S
C382 H394 0.960 . S
C382 H395 0.962 . S
C382 H396 0.960 . S
C383 C380 1.511 . S
C383 H397 0.961 . S
C383 H398 0.961 . S
C383 H399 0.961 . S
C384 C385 1.370 1_556 S
C384 C386 1.363 . S
C384 H400 0.931 . S
C385 C384 1.370 1_554 S
C385 C389 1.408 . S
C386 C384 1.363 . S
C386 C387 1.370 1_556 S
C386 C390 1.524 . S
C387 C379 1.503 . S
C387 C386 1.370 1_554 S
C387 C388 1.403 . S
C388 C387 1.403 . S
C388 C389 1.404 . S
C388 C391 1.539 . S
C389 C385 1.408 . S
C389 C388 1.404 . S
C389 H401 0.930 . S
C390 C386 1.524 . S
C390 H402 0.956 . S
C390 H403 0.961 . S
C390 H404 0.961 . S
C391 C388 1.539 . S
C391 H405 0.958 . S
C391 H406 0.961 . S
C391 H407 0.960 . S
H392 C376 0.931 . S
H393 C381 0.929 . S
H394 C382 0.960 . S
H395 C382 0.962 . S
H396 C382 0.960 . S
H397 C383 0.961 . S
H398 C383 0.961 . S
H399 C383 0.961 . S
H400 C384 0.931 . S
H401 C389 0.930 . S
H402 C390 0.956 . S
H403 C390 0.961 . S
H404 C390 0.961 . S
H405 C391 0.958 . S
H406 C391 0.961 . S
H407 C391 0.960 . S
C121 C9 1.477 . S
C129 C18 1.439 . S
C153 C49 1.447 1_565 S
C161 C58 1.448 . S
C185 C98 1.478 . S
C193 C89 1.440 . S
C217 C19 2.600 . S
C225 C90 2.559 1_556 S
C249 C46 0.872 1_554 S
C257 C6 0.857 1_554 S
C281 C59 2.017 1_554 S
C289 C86 1.987 . S
C313 C10 2.597 . S
C321 C99 2.556 1_554 S
C345 C15 0.854 . S
C353 C55 0.866 . S
C377 C95 1.953 1_554 S
C385 C50 2.025 . S
