# Generated by pormake.
# Topology sxb, (6)-cn, num edge types: 1
# Building blocks:
#     Node 0, Type 0, BuildingBlock: INOVEN_clean_sbu_0, # of connection points: 6
#     Node 1, Type 0, BuildingBlock: INOVEN_clean_sbu_0, # of connection points: 6
#     Node 2, Type 0, BuildingBlock: INOVEN_clean_sbu_0, # of connection points: 6
#     Node 3, Type 0, BuildingBlock: INOVEN_clean_sbu_0, # of connection points: 6
#     Edge 4, Type (0, 0), BuildingBlock: ZUJKAS_clean_linker_0, # of connection points: 2
#     Edge 5, Type (0, 0), BuildingBlock: ZUJKAS_clean_linker_0, # of connection points: 2
#     Edge 6, Type (0, 0), BuildingBlock: ZUJKAS_clean_linker_0, # of connection points: 2
#     Edge 7, Type (0, 0), BuildingBlock: ZUJKAS_clean_linker_0, # of connection points: 2
#     Edge 8, Type (0, 0), BuildingBlock: ZUJKAS_clean_linker_0, # of connection points: 2
#     Edge 9, Type (0, 0), BuildingBlock: ZUJKAS_clean_linker_0, # of connection points: 2
#     Edge 10, Type (0, 0), BuildingBlock: ZUJKAS_clean_linker_0, # of connection points: 2
#     Edge 11, Type (0, 0), BuildingBlock: ZUJKAS_clean_linker_0, # of connection points: 2
#     Edge 12, Type (0, 0), BuildingBlock: ZUJKAS_clean_linker_0, # of connection points: 2
#     Edge 13, Type (0, 0), BuildingBlock: ZUJKAS_clean_linker_0, # of connection points: 2
#     Edge 14, Type (0, 0), BuildingBlock: ZUJKAS_clean_linker_0, # of connection points: 2
#     Edge 15, Type (0, 0), BuildingBlock: ZUJKAS_clean_linker_0, # of connection points: 2
# Relax obj value: 0.265
# Max RMSD: 0.113
# Mean RMSD: 0.073
data_MOF--net-sxb--node1-INOVEN_clean_sbu_0--edge1-ZUJKAS_clean_linker_0
_symmetry_space_group_name_H-M    P1
_symmetry_Int_Tables_number       1
_symmetry_cell_setting            triclinic
loop_
_symmetry_equiv_pos_as_xyz
'x, y, z'
_cell_length_a     21.107385
_cell_length_b     43.718781
_cell_length_c     38.660348
_cell_angle_alpha  94.317905
_cell_angle_beta   95.577952
_cell_angle_gamma 69.44148
loop_
_atom_site_label
_atom_site_type_symbol
_atom_site_fract_x
_atom_site_fract_y
_atom_site_fract_z
_atom_type_partial_charge
Gd0 Gd 1.03401 1.04249 0.9964 0.0
Gd1 Gd 0.16097 0.05123 -0.00211 0.0
C2 C 1.02409 0.11725 0.99599 0.0
C3 C 0.93782 1.02274 0.00958 0.0
C4 C 0.93847 0.99531 0.03 0.0
C5 C 0.94608 0.99701 0.06659 0.0
C6 C 0.93274 0.9668 0.01289 0.0
C7 C 0.93675 0.94333 0.0685 0.0
C8 C 0.93216 0.94101 0.03195 0.0
C9 C 0.9452 0.97128 0.08562 0.0
C10 C 1.06084 0.0531 0.93178 0.0
C11 C 0.17123 0.97663 0.99682 0.0
C12 C 0.27529 0.05883 0.99591 0.0
C13 C 0.33964 1.03616 0.01201 0.0
C14 C 0.37649 1.00737 0.99365 0.0
C15 C 0.35666 1.03956 0.04786 0.0
C16 C 0.43894 0.98424 0.04739 0.0
C17 C 0.40546 1.01384 0.06537 0.0
C18 C 0.42545 0.98169 0.01116 0.0
C19 C 0.13347 1.03892 0.06189 0.0
O20 O 0.9915 0.09792 0.00342 0.0
O21 O 1.08863 0.10401 0.9886 0.0
O22 O 0.95053 0.04699 0.02705 0.0
O23 O 0.96792 1.01474 0.98056 0.0
O24 O 1.00163 0.06484 0.94408 0.0
O25 O 0.1034 1.03523 0.95386 0.0
O26 O 0.20263 0.99603 0.98845 0.0
O27 O 0.1077 0.98996 0.00539 0.0
O28 O 0.23085 0.07589 0.01767 0.0
O29 O 0.2474 0.04674 0.96913 0.0
O30 O 0.19165 1.02635 0.04897 0.0
O31 O 1.09194 0.05786 0.04042 0.0
H32 H 0.95127 1.01845 0.08068 0.0
H33 H 0.92715 0.96473 0.98475 0.0
H34 H 0.92421 0.92004 0.01804 0.0
H35 H 0.94864 0.97372 0.11377 0.0
H36 H 0.36503 1.00393 0.96602 0.0
H37 H 0.32941 0.06136 0.06289 0.0
H38 H 0.41483 1.0167 0.09325 0.0
H39 H 0.45194 0.95959 0.99636 0.0
Gd40 Gd 0.12101 1.00316 0.50231 0.0
Gd41 Gd 1.06683 0.07721 0.49286 0.0
C42 C 0.9538 1.03908 0.49448 0.0
C43 C 0.16274 0.9482 0.53248 0.0
C44 C 0.12745 0.93218 0.55155 0.0
C45 C 0.15486 0.89834 0.55522 0.0
C46 C 1.06091 0.94949 0.56025 0.0
C47 C 1.04556 0.8985 0.57052 0.0
C48 C 1.0202 0.9328 0.56965 0.0
C49 C 0.11431 0.8816 0.56489 0.0
C50 C 0.11001 1.01416 0.43279 0.0
C51 C 0.23368 1.04059 0.49669 0.0
C52 C 1.01396 0.13671 0.47394 0.0
C53 C 1.03835 0.16437 0.47937 0.0
C54 C 1.08038 0.16654 0.50918 0.0
C55 C 1.02521 0.18696 0.45339 0.0
C56 C 0.09883 0.21266 0.48626 0.0
C57 C 1.05535 0.21097 0.45677 0.0
C58 C 0.11007 0.19056 0.51267 0.0
C59 C 0.10252 0.059 0.55957 0.0
O60 O 1.00616 1.01205 0.50246 0.0
O61 O 0.96573 0.06605 0.48742 0.0
O62 O 0.14201 0.95115 0.49949 0.0
O63 O 0.17036 0.97481 0.5473 0.0
O64 O 0.13006 0.98532 0.44528 0.0
O65 O 1.09649 1.03477 0.45794 0.0
O66 O 0.18108 0.06742 0.48819 0.0
O67 O 0.22209 1.01405 0.50547 0.0
O68 O 0.99831 0.12662 0.5019 0.0
O69 O 1.04932 0.11272 0.45361 0.0
O70 O 0.11366 0.08315 0.54686 0.0
O71 O 1.07162 0.04629 0.5364 0.0
H72 H 0.20612 0.88463 0.54845 0.0
H73 H 1.03879 0.97561 0.5573 0.0
H74 H 0.96743 0.94659 0.57347 0.0
H75 H 0.13562 0.85522 0.56596 0.0
H76 H 1.09214 0.14899 0.52929 0.0
H77 H 0.99335 0.1854 0.43009 0.0
H78 H 1.04572 0.22779 0.43609 0.0
H79 H 0.14433 0.19085 0.53535 0.0
Gd80 Gd 0.53859 0.543 0.99507 0.0
Gd81 Gd 0.66444 0.55134 -0.00015 0.0
C82 C 0.52796 0.61736 -0.00172 0.0
C83 C 0.42641 0.53178 0.99071 0.0
C84 C 0.3654 0.54767 0.96737 0.0
C85 C 0.35688 0.5333 0.93424 0.0
C86 C 0.32097 0.57935 0.97564 0.0
C87 C 0.26515 0.58292 0.91723 0.0
C88 C 0.27132 0.59676 0.95083 0.0
C89 C 0.30761 0.55083 0.90937 0.0
C90 C 0.57191 0.55534 0.93209 0.0
C91 C 0.67237 0.47713 -0.00145 0.0
C92 C 0.76533 0.56786 0.98677 0.0
C93 C 0.77754 0.58005 0.95471 0.0
C94 C 0.84373 0.57635 0.9481 0.0
C95 C 0.7242 0.59233 0.92902 0.0
C96 C 0.80406 0.59582 0.88975 0.0
C97 C 0.73731 0.60036 0.89675 0.0
C98 C 0.8569 0.58426 0.91594 0.0
C99 C 0.63496 0.54109 0.06423 0.0
O100 O 0.49625 0.59793 0.00619 0.0
O101 O 0.59157 0.60389 0.98982 0.0
O102 O 0.47948 0.51299 0.97507 0.0
O103 O 0.4421 0.55026 0.01583 0.0
O104 O 0.51284 0.56835 0.9439 0.0
O105 O 0.61102 0.53619 0.954 0.0
O106 O 0.7034 0.49626 0.98898 0.0
O107 O 0.60946 0.49092 0.00797 0.0
O108 O 0.76664 0.53778 0.984 0.0
O109 O 0.7145 0.58727 0.00348 0.0
O110 O 0.69495 0.53119 0.05308 0.0
O111 O 0.59264 0.55826 0.0416 0.0
H112 H 0.39006 0.50891 0.92706 0.0
H113 H 0.32607 0.59125 0.00082 0.0
H114 H 0.23899 0.62143 0.95764 0.0
H115 H 0.30282 0.53929 0.88393 0.0
H116 H 0.88541 0.56671 0.96752 0.0
H117 H 0.67272 0.59494 0.93362 0.0
H118 H 0.6958 0.60925 0.87706 0.0
H119 H 0.9087 0.58122 0.9115 0.0
Gd120 Gd 0.62283 0.51314 0.50497 0.0
Gd121 Gd 0.56983 0.58719 0.49566 0.0
C122 C 0.45601 0.54892 0.4973 0.0
C123 C 0.66206 0.45686 0.53234 0.0
C124 C 0.63472 0.43026 0.52686 0.0
C125 C 0.59229 0.42913 0.49692 0.0
C126 C 0.64463 0.40812 0.55293 0.0
C127 C 0.56676 0.38496 0.5199 0.0
C128 C 0.61084 0.38555 0.54948 0.0
C129 C 0.55882 0.4066 0.49339 0.0
C130 C 0.60126 0.52397 0.43528 0.0
C131 C 0.73548 0.55061 0.4995 0.0
C132 C 0.51606 0.64665 0.47668 0.0
C133 C 0.54154 0.67402 0.47895 0.0
C134 C 0.49937 0.70548 0.48916 0.0
C135 C 0.60978 0.66838 0.47395 0.0
C136 C 0.59432 0.725 0.49099 0.0
C137 C 0.6358 0.69366 0.47975 0.0
C138 C 0.52562 0.73082 0.49526 0.0
C139 C 0.61257 0.56867 0.562 0.0
O140 O 0.50822 0.52099 0.50188 0.0
O141 O 0.46807 0.57663 0.49356 0.0
O142 O 0.68979 0.4626 0.50585 0.0
O143 O 0.62173 0.48353 0.54714 0.0
O144 O 0.61992 0.49527 0.44799 0.0
O145 O 0.59221 0.5447 0.4604 0.0
O146 O 0.68328 0.57661 0.48862 0.0
O147 O 0.7231 0.52512 0.51076 0.0
O148 O 0.50633 0.63739 0.50654 0.0
O149 O 0.54557 0.62206 0.45535 0.0
O150 O 0.62184 0.59302 0.54866 0.0
O151 O 0.57943 0.55637 0.53979 0.0
H152 H 0.58306 0.44649 0.4768 0.0
H153 H 0.67672 0.40896 0.57636 0.0
H154 H 0.61808 0.36903 0.57022 0.0
H155 H 0.52426 0.40718 0.47062 0.0
H156 H 0.44671 0.71018 0.49339 0.0
H157 H 0.64367 0.64418 0.46662 0.0
H158 H 0.68924 0.68828 0.47689 0.0
H159 H 0.49258 0.75478 0.50384 0.0
H160 H 0.39488 0.65392 0.01182 0.0
H161 H 0.33652 0.71335 0.01116 0.0
H162 H 0.51973 0.72516 0.98447 0.0
H163 H 0.57776 0.66577 0.98439 0.0
H164 H 0.35073 0.76465 0.04785 0.0
H165 H 0.39305 0.78092 0.91271 0.0
H166 H 0.41148 0.74103 0.92934 0.0
H167 H 0.47097 0.76228 0.93831 0.0
C168 C 0.42296 0.66903 0.00559 0.0
C169 C 0.49161 0.65434 -0.00205 0.0
C170 C 0.38922 0.70339 0.00528 0.0
C171 C 0.42233 0.72467 -0.00293 0.0
C172 C 0.49126 0.71 0.9899 0.0
H173 H 0.30509 0.94035 0.98448 0.0
H174 H 0.36389 0.88096 0.9854 0.0
C175 C 0.525 0.67564 0.99016 0.0
C176 C 0.38542 0.76183 0.99681 0.0
H177 H 0.34952 0.82952 0.94791 0.0
C178 C 0.35038 0.77861 0.02577 0.0
C179 C 0.38398 0.78103 0.96833 0.0
C180 C 0.41626 0.7654 0.93528 0.0
C181 C 0.3162 0.81312 0.0274 0.0
C182 C 0.31481 0.8323 -0.00107 0.0
C183 C 0.34988 0.81554 0.96998 0.0
C184 C 0.27774 0.86944 -0.00137 0.0
C185 C 0.28365 0.82877 0.06037 0.0
C186 C 0.20854 0.88397 0.00531 0.0
C187 C 0.17452 0.9183 0.00488 0.0
C188 C 0.20792 0.93969 -0.00259 0.0
C189 C 0.27693 0.92515 0.99036 0.0
C190 C 0.31094 0.89081 0.99084 0.0
H191 H 0.30656 0.81324 0.08297 0.0
H192 H 0.28856 0.85311 0.06637 0.0
H193 H 0.22891 0.83199 0.05718 0.0
H194 H 0.18008 0.86871 0.01047 0.0
H195 H 0.1215 0.92805 0.01022 0.0
H196 H 0.80381 0.44061 0.98277 0.0
H197 H 0.86213 0.38132 0.98251 0.0
H198 H 0.68251 0.36903 0.01378 0.0
H199 H 0.62429 0.4286 0.01479 0.0
H200 H 0.78971 0.32794 0.0484 0.0
H201 H 0.85242 0.31245 0.9113 0.0
H202 H 0.88648 0.34035 0.93583 0.0
H203 H 0.79589 0.35048 0.929 0.0
C204 C 0.77624 0.42545 0.98952 0.0
C205 C 0.70849 0.4401 -0.00138 0.0
C206 C 0.80985 0.39109 0.98905 0.0
C207 C 0.77716 0.36965 -0.00271 0.0
C208 C 0.70978 0.38431 0.00697 0.0
H209 H 0.89147 0.15348 0.01029 0.0
H210 H 0.83282 0.21277 0.01063 0.0
C211 C 0.67612 0.41873 0.00751 0.0
C212 C 0.81324 0.3324 0.99654 0.0
H213 H 0.90563 0.26631 0.94602 0.0
C214 C 0.81454 0.31463 0.02579 0.0
C215 C 0.84658 0.31407 0.96735 0.0
C216 C 0.84481 0.33022 0.93397 0.0
C217 C 0.84858 0.28018 0.02701 0.0
C218 C 0.88207 0.26188 -0.00213 0.0
C219 C 0.88075 0.27963 0.96861 0.0
C220 C 0.91839 0.22467 -0.00283 0.0
C221 C 0.85 0.26392 0.06027 0.0
C222 C 0.98632 0.21019 0.98831 0.0
C223 C 1.02027 0.17579 0.98784 0.0
C224 C 0.98759 0.15426 0.99589 0.0
C225 C 0.91927 0.16875 0.00415 0.0
C226 C 0.88544 0.2031 0.00466 0.0
H227 H 0.84146 0.28167 0.08296 0.0
H228 H 0.80883 0.25345 0.05803 0.0
H229 H 0.89916 0.24386 0.06544 0.0
H230 H 1.01379 0.22559 0.98211 0.0
H231 H 1.07253 0.16609 0.98122 0.0
H232 H 0.16503 0.22558 0.43511 0.0
H233 H 0.2424 0.25656 0.44129 0.0
H234 H 0.1984 0.28113 0.54858 0.0
H235 H 0.12059 0.25034 0.5426 0.0
H236 H 0.22427 0.32308 0.46405 0.0
H237 H 0.40643 0.23201 0.55197 0.0
H238 H 0.33807 0.2239 0.52571 0.0
H239 H 0.32115 0.24902 0.56506 0.0
C240 C 0.17064 0.2382 0.45979 0.0
C241 C 0.13729 0.23534 0.48848 0.0
C242 C 0.21511 0.25568 0.46332 0.0
C243 C 0.22693 0.27046 0.49556 0.0
C244 C 0.19086 0.26924 0.5237 0.0
H245 H 0.49764 0.37424 0.57108 0.0
H246 H 0.41663 0.34524 0.5652 0.0
C247 C 0.14647 0.25174 0.52023 0.0
C248 C 0.27922 0.28592 0.50011 0.0
H249 H 0.43264 0.27898 0.54277 0.0
C250 C 0.26991 0.31347 0.48118 0.0
C251 C 0.33863 0.27312 0.52244 0.0
C252 C 0.35225 0.24272 0.54228 0.0
C253 C 0.31824 0.32899 0.48444 0.0
C254 C 0.3777 0.31614 0.50672 0.0
C255 C 0.38692 0.28864 0.52571 0.0
C256 C 0.43066 0.33118 0.51085 0.0
C257 C 0.30479 0.35932 0.46453 0.0
C258 C 0.46689 0.33174 0.48252 0.0
C259 C 0.51346 0.34805 0.48585 0.0
C260 C 0.52466 0.36393 0.51761 0.0
C261 C 0.49057 0.36196 0.54639 0.0
C262 C 0.44399 0.34563 0.54303 0.0
H263 H 0.25052 0.3702 0.45506 0.0
H264 H 0.31958 0.37804 0.48097 0.0
H265 H 0.33551 0.35288 0.4416 0.0
H266 H 0.45822 0.32005 0.4577 0.0
H267 H 0.5398 0.34876 0.4634 0.0
H268 H 1.04439 0.84413 0.53165 0.0
H269 H 0.95743 0.8191 0.52675 0.0
H270 H 0.8497 0.88763 0.60546 0.0
H271 H 0.93763 0.91279 0.61102 0.0
H272 H 0.90693 0.79119 0.57703 0.0
H273 H 0.711 0.901 0.51882 0.0
H274 H 0.80028 0.89538 0.52239 0.0
H275 H 0.75281 0.90704 0.56023 0.0
C276 C 1.00337 0.8534 0.5487 0.0
C277 C 0.99804 0.88048 0.57179 0.0
C278 C 0.95334 0.83922 0.5456 0.0
C279 C 0.89681 0.85189 0.56534 0.0
C280 C 0.89251 0.87793 0.58957 0.0
H281 H 0.57693 0.76533 0.54945 0.0
H282 H 0.64232 0.80062 0.5701 0.0
C283 C 0.94278 0.89218 0.59276 0.0
C284 C 0.84178 0.83819 0.55919 0.0
H285 H 0.68101 0.85421 0.52123 0.0
C286 C 0.85715 0.80508 0.56539 0.0
C287 C 0.77717 0.85645 0.54369 0.0
C288 C 0.75903 0.89189 0.5356 0.0
C289 C 0.81019 0.78943 0.55555 0.0
C290 C 0.74658 0.80738 0.53912 0.0
C291 C 0.73 0.84075 0.534 0.0
C292 C 0.69953 0.7908 0.52461 0.0
C293 C 0.82954 0.75346 0.56147 0.0
C294 C 0.70911 0.77462 0.49184 0.0
C295 C 0.67199 0.75459 0.47997 0.0
C296 C 0.62479 0.75047 0.50076 0.0
C297 C 0.61253 0.7683 0.53275 0.0
C298 C 0.64987 0.78832 0.54465 0.0
H299 H 0.87839 0.74373 0.57748 0.0
H300 H 0.7892 0.74905 0.57458 0.0
H301 H 0.83434 0.73961 0.536 0.0
H302 H 0.7474 0.77639 0.47613 0.0
H303 H 0.68187 0.74141 0.45506 0.0
H304 H 0.45712 0.91892 0.03726 0.0
H305 H 0.55098 0.87292 0.0619 0.0
H306 H 0.62582 0.9408 0.12453 0.0
H307 H 0.53361 0.98635 0.09995 0.0
H308 H 0.6728 0.86532 0.04751 0.0
H309 H 0.68757 0.86648 0.18877 0.0
H310 H 0.6074 0.88346 0.16342 0.0
H311 H 0.6582 0.90846 0.17776 0.0
C312 C 0.49306 0.92392 0.05678 0.0
C313 C 0.48874 0.95632 0.06616 0.0
C314 C 0.54593 0.89759 0.07127 0.0
C315 C 0.59503 0.90321 0.09556 0.0
C316 C 0.58757 0.93556 0.10678 0.0
H317 H 0.8472 0.95771 0.11779 0.0
H318 H 0.79054 0.92277 0.135 0.0
C319 C 0.53503 0.96179 0.09231 0.0
C320 C 0.66235 0.87749 0.10213 0.0
H321 H 0.79372 0.86884 0.16318 0.0
C322 C 0.6995 0.86463 0.07303 0.0
C323 C 0.69733 0.87439 0.13544 0.0
C324 C 0.66004 0.88362 0.16807 0.0
C325 C 0.76996 0.85712 0.07536 0.0
C326 C 0.80288 0.86265 0.10779 0.0
C327 C 0.76803 0.86644 0.13797 0.0
C328 C 0.85465 0.8787 0.1086 0.0
C329 C 0.80546 0.84879 0.04205 0.0
C330 C 0.91367 0.86537 0.09055 0.0
C331 C 0.9452 0.88596 0.07961 0.0
C332 C 0.91974 0.91974 0.08799 0.0
C333 C 0.86789 0.93184 0.11077 0.0
C334 C 0.83548 0.91159 0.12081 0.0
H335 H 0.77308 0.84309 0.01992 0.0
H336 H 0.81913 0.86973 0.03506 0.0
H337 H 0.85239 0.82713 0.04535 0.0
H338 H 0.93169 0.83979 0.08222 0.0
H339 H 0.98633 0.87593 0.06269 0.0
H340 H 0.28217 0.08943 0.47924 0.0
H341 H 0.39916 0.08857 0.47859 0.0
H342 H 0.47458 0.9905 0.51435 0.0
H343 H 0.35801 0.99105 0.51417 0.0
H344 H 0.50311 0.08615 0.52118 0.0
H345 H 0.6029 0.97143 0.44257 0.0
H346 H 0.51369 0.99027 0.44857 0.0
H347 H 0.57042 0.96503 0.48146 0.0
C348 C 0.32333 0.06741 0.48678 0.0
C349 C 0.308 1.0402 0.49646 0.0
C350 C 0.3916 0.06694 0.48648 0.0
C351 C 0.44924 1.03916 0.49556 0.0
C352 C 0.43371 1.01219 0.50584 0.0
H353 H 0.9056 0.99005 0.51139 0.0
H354 H 0.78875 0.99076 0.512 0.0
C355 C 0.36552 1.01263 0.50609 0.0
C356 C 0.52391 1.03886 0.49505 0.0
H357 H 0.68472 0.99313 0.46968 0.0
C358 C 0.54215 0.06568 0.50957 0.0
C359 C 0.57804 1.01258 0.48031 0.0
C360 C 0.56531 0.98336 0.46204 0.0
C361 C 0.60979 0.06669 0.51055 0.0
C362 C 0.66387 1.04045 0.49574 0.0
C363 C 0.64566 1.0136 0.48126 0.0
C364 C 0.73846 1.0402 0.49514 0.0
C365 C 0.62264 0.09581 0.52901 0.0
C366 C 0.75383 0.06726 0.48494 0.0
C367 C 0.82197 0.06691 0.4847 0.0
C368 C 0.87954 1.03932 0.49421 0.0
C369 C 0.86437 1.01204 0.50381 0.0
C370 C 0.79619 1.01243 0.50413 0.0
H371 H 0.58511 0.10765 0.54853 0.0
H372 H 0.67429 0.0888 0.54247 0.0
H373 H 0.61758 0.11423 0.50972 0.0
H374 H 0.71289 0.08896 0.47653 0.0
H375 H 0.82939 0.08856 0.47678 0.0
H376 H 0.74103 0.65092 0.85234 0.0
H377 H 0.791 0.66921 0.80699 0.0
H378 H 0.95566 0.57595 0.80778 0.0
H379 H 0.90345 0.55759 0.85031 0.0
H380 H 0.88501 0.68585 0.82005 0.0
H381 H 0.99962 0.59809 0.72224 0.0
H382 H 0.92462 0.5957 0.73904 0.0
H383 H 1.00886 0.56947 0.75454 0.0
C384 C 0.78615 0.63396 0.84134 0.0
C385 C 0.82021 0.60337 0.85571 0.0
C386 C 0.81494 0.64442 0.8154 0.0
C387 C 0.8787 0.62463 0.80412 0.0
C388 C 0.90662 0.59223 0.8151 0.0
H389 H 0.13297 0.61754 0.92623 0.0
H390 H 1.04381 0.6431 0.88247 0.0
C391 C 0.87739 0.58171 0.84035 0.0
C392 C 0.92522 0.63955 0.79111 0.0
H393 H 1.09156 0.6013 0.7779 0.0
C394 C 0.92941 0.66801 0.80929 0.0
C395 C 0.98252 0.61964 0.77372 0.0
C396 C 0.97787 0.59432 0.74591 0.0
C397 C 0.99295 0.67038 0.81995 0.0
C398 C 1.05181 0.64335 0.81301 0.0
C399 C 1.04653 0.62068 0.78611 0.0
C400 C 0.10958 0.63278 0.83992 0.0
C401 C 0.99629 0.69959 0.84235 0.0
C402 C 0.17676 0.61737 0.83094 0.0
C403 C 0.22801 0.6018 0.8562 0.0
C404 C 0.2129 0.6015 0.89083 0.0
C405 C 0.14638 0.61786 0.89995 0.0
C406 C 1.09534 0.63296 0.8748 0.0
H407 H 0.96192 0.72241 0.83033 0.0
H408 H 0.97803 0.69901 0.86819 0.0
H409 H 1.04859 0.70034 0.84586 0.0
H410 H 0.18913 0.61642 0.80425 0.0
H411 H 0.2792 0.58952 0.84857 0.0
H412 H 0.40767 0.49811 0.50747 0.0
H413 H 0.29076 0.49869 0.50756 0.0
H414 H 0.21468 0.6012 0.48745 0.0
H415 H 0.33133 0.60058 0.48696 0.0
H416 H 0.18469 0.52548 0.54501 0.0
H417 H 1.0906 0.57715 0.41641 0.0
H418 H 0.17943 0.56391 0.43098 0.0
H419 H 0.12269 0.60345 0.445 0.0
C420 C 0.36642 0.52092 0.50278 0.0
C421 C 0.38161 0.54924 0.4969 0.0
C422 C 0.29823 0.52127 0.50293 0.0
C423 C 0.2405 0.54983 0.49678 0.0
C424 C 0.25578 0.57821 0.49127 0.0
H425 H 0.78402 0.59999 0.48401 0.0
H426 H 0.9009 0.59942 0.48426 0.0
C427 C 0.32395 0.57792 0.49128 0.0
C428 C 0.16594 0.54994 0.49692 0.0
H429 H 1.00737 0.57379 0.45149 0.0
C430 C 0.14653 0.53598 0.52424 0.0
C431 C 0.11306 0.56354 0.47042 0.0
C432 C 0.12742 0.57757 0.43887 0.0
C433 C 1.07875 0.53596 0.5263 0.0
C434 C 1.02585 0.54938 0.49967 0.0
C435 C 1.04539 0.56332 0.47232 0.0
C436 C 0.95114 0.5495 0.4997 0.0
C437 C 1.06446 0.52253 0.5583 0.0
C438 C 0.93561 0.52178 0.50767 0.0
C439 C 0.8674 0.52219 0.50783 0.0
C440 C 0.80986 0.55019 0.49946 0.0
C441 C 0.82519 0.57772 0.49081 0.0
C442 C 0.89345 0.57736 0.49087 0.0
H443 H 0.10057 0.52393 0.58076 0.0
H444 H 1.01212 0.53598 0.56583 0.0
H445 H 1.0707 0.49638 0.55302 0.0
H446 H 0.97652 0.49915 0.51336 0.0
H447 H 0.85991 0.5001 0.51429 0.0
H448 H 1.08547 0.97538 0.37908 0.0
H449 H 1.08072 0.9826 0.31678 0.0
H450 H 0.11808 0.0733 0.33828 0.0
H451 H 0.1185 0.06699 0.40108 0.0
H452 H 1.03467 0.07984 0.28313 0.0
H453 H 0.24043 0.96167 0.26319 0.0
H454 H 0.17006 0.95562 0.28024 0.0
H455 H 0.21631 0.97822 0.30595 0.0
C456 C 1.09219 0.99702 0.37054 0.0
C457 C 0.10279 1.02051 0.39504 0.0
C458 C 1.09022 1.00097 0.33477 0.0
C459 C 0.10155 1.02791 0.32236 0.0
C460 C 0.10987 0.05207 0.34688 0.0
H461 H 0.23315 1.0188 0.11392 0.0
H462 H 0.2224 1.01872 0.17606 0.0
C463 C 0.11005 0.04851 0.38284 0.0
C464 C 0.10549 1.03043 0.28403 0.0
H465 H 0.17807 0.9868 0.21198 0.0
C466 C 1.06648 0.05954 0.26766 0.0
C467 C 0.14783 1.00432 0.2635 0.0
C468 C 0.19654 0.97339 0.27922 0.0
C469 C 1.06792 0.06307 0.2317 0.0
C470 C 0.10758 1.0363 0.21088 0.0
C471 C 0.14685 1.00734 0.22741 0.0
C472 C 0.11247 1.03795 0.17246 0.0
C473 C 1.02855 0.09591 0.21682 0.0
C474 C 1.05448 0.04879 0.1489 0.0
C475 C 1.06073 0.04964 0.11304 0.0
C476 C 0.12504 1.03872 0.09974 0.0
C477 C 0.18275 1.02734 0.12316 0.0
C478 C 0.17659 1.02723 0.1589 0.0
H479 H 1.0194 0.11591 0.23729 0.0
H480 H 1.05565 0.10143 0.19625 0.0
H481 H 0.97836 0.09582 0.20533 0.0
H482 H 1.00422 0.05621 0.15807 0.0
H483 H 1.0153 0.05837 0.09567 0.0
H484 H 0.17831 1.02482 0.89792 0.0
H485 H 0.19193 1.02446 0.83535 0.0
H486 H 0.97856 0.07959 0.81764 0.0
H487 H 0.96524 0.08076 0.87981 0.0
H488 H 0.13758 0.99984 0.77839 0.0
H489 H 1.05692 0.13379 0.76827 0.0
H490 H 1.07512 0.11476 0.80962 0.0
H491 H 0.99382 0.122 0.78585 0.0
C492 C 0.13448 1.03708 0.88067 0.0
C493 C 1.07077 0.05301 0.89401 0.0
C494 C 0.14223 1.03678 0.84483 0.0
C495 C 1.08655 0.05251 0.8215 0.0
C496 C 1.02285 0.06802 0.83489 0.0
H497 H 1.04917 1.0218 0.59407 0.0
H498 H 1.04877 1.0185 0.65714 0.0
C499 C 1.01519 0.06849 0.87059 0.0
C500 C 1.09434 0.05234 0.78321 0.0
H501 H 1.06193 0.10241 0.71473 0.0
C502 C 0.1214 1.02231 0.76455 0.0
C503 C 1.07429 0.08158 0.76487 0.0
C504 C 1.0491 0.11485 0.78323 0.0
C505 C 0.12735 1.02069 0.72829 0.0
C506 C 0.10442 0.04988 0.70974 0.0
C507 C 1.07883 0.07991 0.72857 0.0
C508 C 0.10745 0.05012 0.67103 0.0
C509 C 0.15942 0.98769 0.71037 0.0
C510 C 0.13963 0.06926 0.6573 0.0
C511 C 0.1394 0.07132 0.62122 0.0
C512 C 0.10686 0.05437 0.59774 0.0
C513 C 1.07546 1.03481 0.61135 0.0
C514 C 1.07546 1.03284 0.64754 0.0
H515 H 0.192 0.96943 0.72902 0.0
H516 H 0.11889 0.97869 0.69847 0.0
H517 H 0.19065 0.98918 0.68948 0.0
H518 H 0.1646 0.08293 0.67457 0.0
H519 H 0.16399 0.08666 0.6117 0.0
H520 H 0.57699 0.48428 0.38236 0.0
H521 H 0.57285 0.49039 0.31983 0.0
H522 H 0.60587 0.58227 0.33937 0.0
H523 H 0.60668 0.57685 0.40238 0.0
H524 H 0.52111 0.58625 0.28327 0.0
H525 H 0.73668 0.47064 0.26832 0.0
H526 H 0.66722 0.46384 0.28554 0.0
H527 H 0.71012 0.4884 0.31038 0.0
C528 C 0.5827 0.50598 0.37336 0.0
C529 C 0.59246 0.53001 0.39738 0.0
C530 C 0.58102 0.50931 0.33747 0.0
C531 C 0.59133 0.53626 0.32448 0.0
C532 C 0.5984 0.56103 0.34847 0.0
H533 H 0.73171 0.52635 0.11828 0.0
H534 H 0.71742 0.52776 0.18017 0.0
C535 C 0.59871 0.558 0.38455 0.0
C536 C 0.5963 0.53798 0.28613 0.0
H537 H 0.6761 0.49386 0.21603 0.0
C538 C 0.55532 0.5661 0.26862 0.0
C539 C 0.64171 0.51204 0.26673 0.0
C540 C 0.69191 0.48222 0.28378 0.0
C541 C 0.55783 0.56878 0.23257 0.0
C542 C 0.60104 0.54218 0.21291 0.0
C543 C 0.64225 0.51423 0.23059 0.0
C544 C 0.60774 0.5431 0.17455 0.0
C545 C 0.51558 0.60057 0.2163 0.0
C546 C 0.55104 0.55127 0.14996 0.0
C547 C 0.55919 0.55113 0.11414 0.0
C548 C 0.6243 0.54205 0.10201 0.0
C549 C 0.68074 0.53347 0.12655 0.0
C550 C 0.67258 0.53421 0.16217 0.0
H551 H 0.50233 0.62119 0.23605 0.0
H552 H 0.54257 0.60661 0.19602 0.0
H553 H 0.46747 0.59844 0.20404 0.0
H554 H 0.50045 0.55726 0.15829 0.0
H555 H 0.5147 0.55756 0.09592 0.0
H556 H 0.68393 0.5928 0.61286 0.0
H557 H 0.68946 0.58803 0.67594 0.0
H558 H 0.55865 0.5306 0.66083 0.0
H559 H 0.55516 0.53435 0.59776 0.0
H560 H 0.59705 0.6098 0.71976 0.0
H561 H 0.69745 0.47555 0.72851 0.0
H562 H 0.6959 0.49513 0.68886 0.0
H563 H 0.62123 0.48836 0.70029 0.0
C564 C 0.65723 0.57871 0.62298 0.0
C565 C 0.61956 0.56375 0.60018 0.0
C566 C 0.66021 0.57607 0.65916 0.0
C567 C 0.6254 0.55849 0.67361 0.0
C568 C 0.58779 0.54348 0.65071 0.0
H569 H 0.48353 0.58953 0.88078 0.0
H570 H 0.50174 0.59044 0.81947 0.0
C571 C 0.58545 0.5458 0.61449 0.0
C572 C 0.62542 0.55748 0.71246 0.0
H573 H 0.64631 0.5063 0.77894 0.0
C574 C 0.60845 0.58705 0.73259 0.0
C575 C 0.6416 0.5279 0.72985 0.0
C576 C 0.6658 0.49494 0.71079 0.0
C577 C 0.60492 0.58797 0.76893 0.0
C578 C 0.61669 0.55862 0.7859 0.0
C579 C 0.63612 0.52893 0.76608 0.0
C580 C 0.60673 0.5584 0.82381 0.0
C581 C 0.5894 0.62046 0.78887 0.0
C582 C 0.65909 0.53954 0.84701 0.0
C583 C 0.64849 0.53874 0.88229 0.0
C584 C 0.58514 0.55666 0.89511 0.0
C585 C 0.53304 0.57555 0.87189 0.0
C586 C 0.54356 0.57627 0.83674 0.0
H587 H 0.60336 0.63813 0.77477 0.0
H588 H 0.53413 0.63105 0.79208 0.0
H589 H 0.61689 0.61767 0.81509 0.0
H590 H 0.70829 0.52544 0.83784 0.0
H591 H 0.68973 0.52399 0.89949 0.0
loop_
_geom_bond_atom_site_label_1
_geom_bond_atom_site_label_2
_geom_bond_distance
_geom_bond_site_symmetry_2
_ccdc_geom_bond_type
Gd0 C3 2.818 . S
Gd0 O20 2.377 1_565 S
Gd0 O22 2.448 . S
Gd0 O23 2.506 1_556 S
Gd0 O24 2.435 . S
Gd0 O25 2.717 1_665 S
Gd0 O27 2.395 1_655 S
Gd0 O31 2.327 1_566 S
Gd1 C12 2.818 . S
Gd1 O21 2.395 1_455 S
Gd1 O25 2.327 1_554 S
Gd1 O26 2.377 1_545 S
Gd1 O28 2.448 . S
Gd1 O29 2.506 1_554 S
Gd1 O30 2.435 . S
Gd1 O31 2.717 1_455 S
C2 O20 1.249 . S
C2 O21 1.237 1_556 S
C3 Gd0 2.818 . S
C3 C4 1.510 1_565 S
C3 O22 1.249 . S
C3 O23 1.252 1_556 S
C4 C3 1.510 1_545 S
C4 C5 1.404 . S
C4 C6 1.352 1_556 S
C5 C4 1.404 . S
C5 C9 1.389 . S
C5 H32 0.930 1_545 S
C6 C4 1.352 1_554 S
C6 C8 1.374 . S
C6 H33 0.931 . S
C7 C8 1.354 1_556 S
C7 C9 1.370 . S
C8 C6 1.374 . S
C8 C7 1.354 1_554 S
C8 H34 0.931 . S
C9 C5 1.389 . S
C9 C7 1.370 . S
C9 H35 0.931 . S
C10 O24 1.256 . S
C10 O25 1.257 1_665 S
C11 O26 1.252 . S
C11 O27 1.236 1_554 S
C12 Gd1 2.818 . S
C12 C13 1.510 1_545 S
C12 O28 1.249 . S
C12 O29 1.252 1_554 S
C13 C12 1.510 1_565 S
C13 C14 1.404 . S
C13 C15 1.352 1_554 S
C14 C13 1.404 . S
C14 C18 1.389 . S
C14 H36 0.930 1_565 S
C15 C13 1.352 1_556 S
C15 C17 1.374 . S
C15 H37 0.931 . S
C16 C17 1.349 1_554 S
C16 C18 1.376 . S
C17 C15 1.374 . S
C17 C16 1.349 1_556 S
C17 H38 0.931 . S
C18 C14 1.389 . S
C18 C16 1.376 . S
C18 H39 0.931 . S
C19 O30 1.256 . S
C19 O31 1.257 1_455 S
O20 Gd0 2.377 1_545 S
O20 C2 1.249 . S
O21 Gd1 2.395 1_655 S
O21 C2 1.237 1_554 S
O22 Gd0 2.448 . S
O22 C3 1.249 . S
O23 Gd0 2.506 1_554 S
O23 C3 1.252 1_554 S
O24 Gd0 2.435 . S
O24 C10 1.256 . S
O25 Gd0 2.717 1_445 S
O25 Gd1 2.327 1_556 S
O25 C10 1.257 1_445 S
O26 Gd1 2.377 1_565 S
O26 C11 1.252 . S
O27 Gd0 2.395 1_455 S
O27 C11 1.236 1_556 S
O28 Gd1 2.448 . S
O28 C12 1.249 . S
O29 Gd1 2.506 1_556 S
O29 C12 1.252 1_556 S
O30 Gd1 2.435 . S
O30 C19 1.256 . S
O31 Gd0 2.327 1_544 S
O31 Gd1 2.717 1_655 S
O31 C19 1.257 1_655 S
H32 C5 0.930 1_565 S
H33 C6 0.931 . S
H34 C8 0.931 . S
H35 C9 0.931 . S
H36 C14 0.930 1_545 S
H37 C15 0.931 . S
H38 C17 0.931 . S
H39 C18 0.931 . S
Gd40 C43 2.818 1_455 S
Gd40 O60 2.377 1_455 S
Gd40 O62 2.448 1_455 S
Gd40 O63 2.506 1_455 S
Gd40 O64 2.436 1_455 S
Gd40 O65 2.717 1_565 S
Gd40 O67 2.395 . S
Gd40 O71 2.327 1_455 S
Gd41 C52 2.818 1_655 S
Gd41 O61 2.395 . S
Gd41 O65 2.327 1_655 S
Gd41 O66 2.377 1_655 S
Gd41 O68 2.448 1_655 S
Gd41 O69 2.506 1_655 S
Gd41 O70 2.436 1_655 S
Gd41 O71 2.717 1_545 S
C42 O60 1.240 1_545 S
C42 O61 1.240 . S
C43 Gd40 2.818 1_655 S
C43 C44 1.510 . S
C43 O62 1.249 . S
C43 O63 1.252 . S
C44 C43 1.510 . S
C44 C45 1.404 . S
C44 C46 1.352 . S
C45 C44 1.404 . S
C45 C49 1.389 . S
C45 H72 0.930 . S
C46 C44 1.352 . S
C46 C48 1.374 . S
C46 H73 0.931 . S
C47 C48 1.359 . S
C47 C49 1.364 . S
C48 C46 1.374 . S
C48 C47 1.359 . S
C48 H74 0.931 . S
C49 C45 1.389 . S
C49 C47 1.364 . S
C49 H75 0.931 . S
C50 O64 1.257 . S
C50 O65 1.257 1_665 S
C51 O66 1.240 1_565 S
C51 O67 1.240 . S
C52 Gd41 2.818 1_455 S
C52 C53 1.510 . S
C52 O68 1.249 . S
C52 O69 1.252 . S
C53 C52 1.510 . S
C53 C54 1.404 . S
C53 C55 1.352 . S
C54 C53 1.404 . S
C54 C58 1.389 . S
C54 H76 0.930 . S
C55 C53 1.352 . S
C55 C57 1.374 . S
C55 H77 0.931 . S
C56 C57 1.359 . S
C56 C58 1.364 . S
C57 C55 1.374 . S
C57 C56 1.359 . S
C57 H78 0.931 . S
C58 C54 1.389 . S
C58 C56 1.364 . S
C58 H79 0.931 . S
C59 O70 1.257 . S
C59 O71 1.256 1_445 S
O60 Gd40 2.377 1_655 S
O60 C42 1.240 1_565 S
O61 Gd41 2.395 . S
O61 C42 1.240 . S
O62 Gd40 2.448 1_655 S
O62 C43 1.249 . S
O63 Gd40 2.506 1_655 S
O63 C43 1.252 . S
O64 Gd40 2.436 1_655 S
O64 C50 1.257 . S
O65 Gd40 2.717 1_545 S
O65 Gd41 2.327 1_455 S
O65 C50 1.257 1_445 S
O66 Gd41 2.377 1_455 S
O66 C51 1.240 1_545 S
O67 Gd40 2.395 . S
O67 C51 1.240 . S
O68 Gd41 2.448 1_455 S
O68 C52 1.249 . S
O69 Gd41 2.506 1_455 S
O69 C52 1.252 . S
O70 Gd41 2.436 1_455 S
O70 C59 1.257 . S
O71 Gd40 2.327 1_655 S
O71 Gd41 2.717 1_565 S
O71 C59 1.256 1_665 S
H72 C45 0.930 . S
H73 C46 0.931 . S
H74 C48 0.931 . S
H75 C49 0.931 . S
H76 C54 0.930 . S
H77 C55 0.931 . S
H78 C57 0.931 . S
H79 C58 0.931 . S
Gd80 C83 2.818 . S
Gd80 O100 2.377 . S
Gd80 O102 2.448 . S
Gd80 O103 2.506 1_556 S
Gd80 O104 2.435 . S
Gd80 O105 2.717 . S
Gd80 O107 2.395 . S
Gd80 O111 2.327 1_556 S
Gd81 C92 2.818 . S
Gd81 O101 2.395 . S
Gd81 O105 2.327 1_554 S
Gd81 O106 2.377 . S
Gd81 O108 2.448 . S
Gd81 O109 2.506 1_554 S
Gd81 O110 2.435 . S
Gd81 O111 2.717 . S
C82 O100 1.249 . S
C82 O101 1.237 1_556 S
C83 Gd80 2.818 . S
C83 C84 1.510 . S
C83 O102 1.249 . S
C83 O103 1.252 1_556 S
C84 C83 1.510 . S
C84 C85 1.404 . S
C84 C86 1.352 1_556 S
C85 C84 1.404 . S
C85 C89 1.389 . S
C85 H112 0.930 . S
C86 C84 1.352 1_554 S
C86 C88 1.374 . S
C86 H113 0.931 . S
C87 C88 1.354 1_556 S
C87 C89 1.370 . S
C88 C86 1.374 . S
C88 C87 1.354 1_554 S
C88 H114 0.931 . S
C89 C85 1.389 . S
C89 C87 1.370 . S
C89 H115 0.931 . S
C90 O104 1.256 . S
C90 O105 1.257 . S
C91 O106 1.252 . S
C91 O107 1.236 1_554 S
C92 Gd81 2.818 . S
C92 C93 1.510 . S
C92 O108 1.249 . S
C92 O109 1.252 1_554 S
C93 C92 1.510 . S
C93 C94 1.404 . S
C93 C95 1.352 1_554 S
C94 C93 1.404 . S
C94 C98 1.389 . S
C94 H116 0.930 . S
C95 C93 1.352 1_556 S
C95 C97 1.374 . S
C95 H117 0.931 . S
C96 C97 1.349 1_554 S
C96 C98 1.376 . S
C97 C95 1.374 . S
C97 C96 1.349 1_556 S
C97 H118 0.931 . S
C98 C94 1.389 . S
C98 C96 1.376 . S
C98 H119 0.931 . S
C99 O110 1.256 . S
C99 O111 1.257 . S
O100 Gd80 2.377 . S
O100 C82 1.249 . S
O101 Gd81 2.395 . S
O101 C82 1.237 1_554 S
O102 Gd80 2.448 . S
O102 C83 1.249 . S
O103 Gd80 2.506 1_554 S
O103 C83 1.252 1_554 S
O104 Gd80 2.435 . S
O104 C90 1.256 . S
O105 Gd80 2.717 . S
O105 Gd81 2.327 1_556 S
O105 C90 1.257 . S
O106 Gd81 2.377 . S
O106 C91 1.252 . S
O107 Gd80 2.395 . S
O107 C91 1.236 1_556 S
O108 Gd81 2.448 . S
O108 C92 1.249 . S
O109 Gd81 2.506 1_556 S
O109 C92 1.252 1_556 S
O110 Gd81 2.435 . S
O110 C99 1.256 . S
O111 Gd80 2.327 1_554 S
O111 Gd81 2.717 . S
O111 C99 1.257 . S
H112 C85 0.930 . S
H113 C86 0.931 . S
H114 C88 0.931 . S
H115 C89 0.931 . S
H116 C94 0.930 . S
H117 C95 0.931 . S
H118 C97 0.931 . S
H119 C98 0.931 . S
Gd120 C123 2.818 . S
Gd120 O140 2.377 . S
Gd120 O142 2.448 . S
Gd120 O143 2.506 . S
Gd120 O144 2.435 . S
Gd120 O145 2.717 . S
Gd120 O147 2.395 . S
Gd120 O151 2.327 . S
Gd121 C132 2.818 . S
Gd121 O141 2.395 . S
Gd121 O145 2.327 . S
Gd121 O146 2.377 . S
Gd121 O148 2.448 . S
Gd121 O149 2.506 . S
Gd121 O150 2.435 . S
Gd121 O151 2.717 . S
C122 O140 1.240 . S
C122 O141 1.240 . S
C123 Gd120 2.818 . S
C123 C124 1.510 . S
C123 O142 1.249 . S
C123 O143 1.252 . S
C124 C123 1.510 . S
C124 C125 1.404 . S
C124 C126 1.352 . S
C125 C124 1.404 . S
C125 C129 1.389 . S
C125 H152 0.930 . S
C126 C124 1.352 . S
C126 C128 1.374 . S
C126 H153 0.931 . S
C127 C128 1.359 . S
C127 C129 1.364 . S
C128 C126 1.374 . S
C128 C127 1.359 . S
C128 H154 0.931 . S
C129 C125 1.389 . S
C129 C127 1.364 . S
C129 H155 0.931 . S
C130 O144 1.256 . S
C130 O145 1.257 . S
C131 O146 1.240 . S
C131 O147 1.240 . S
C132 Gd121 2.818 . S
C132 C133 1.510 . S
C132 O148 1.249 . S
C132 O149 1.252 . S
C133 C132 1.510 . S
C133 C134 1.404 . S
C133 C135 1.352 . S
C134 C133 1.404 . S
C134 C138 1.389 . S
C134 H156 0.930 . S
C135 C133 1.352 . S
C135 C137 1.374 . S
C135 H157 0.931 . S
C136 C137 1.359 . S
C136 C138 1.364 . S
C137 C135 1.374 . S
C137 C136 1.359 . S
C137 H158 0.931 . S
C138 C134 1.389 . S
C138 C136 1.364 . S
C138 H159 0.931 . S
C139 O150 1.256 . S
C139 O151 1.257 . S
O140 Gd120 2.377 . S
O140 C122 1.240 . S
O141 Gd121 2.395 . S
O141 C122 1.240 . S
O142 Gd120 2.448 . S
O142 C123 1.249 . S
O143 Gd120 2.506 . S
O143 C123 1.252 . S
O144 Gd120 2.435 . S
O144 C130 1.256 . S
O145 Gd120 2.717 . S
O145 Gd121 2.327 . S
O145 C130 1.257 . S
O146 Gd121 2.377 . S
O146 C131 1.240 . S
O147 Gd120 2.395 . S
O147 C131 1.240 . S
O148 Gd121 2.448 . S
O148 C132 1.249 . S
O149 Gd121 2.506 . S
O149 C132 1.252 . S
O150 Gd121 2.435 . S
O150 C139 1.256 . S
O151 Gd120 2.327 . S
O151 Gd121 2.717 . S
O151 C139 1.257 . S
H152 C125 0.930 . S
H153 C126 0.931 . S
H154 C128 0.931 . S
H155 C129 0.931 . S
H156 C134 0.930 . S
H157 C135 0.931 . S
H158 C137 0.931 . S
H159 C138 0.931 . S
H160 C168 0.929 . S
H161 C170 0.930 . S
H162 C172 0.930 . S
H163 C175 0.929 . S
H164 C178 0.930 . S
H165 C180 0.960 . S
H166 C180 0.960 . S
H167 C180 0.960 . S
C168 H160 0.929 . S
C168 C169 1.377 1_556 S
C168 C170 1.384 . S
C169 C168 1.377 1_554 S
C169 C175 1.390 . S
C170 H161 0.930 . S
C170 C168 1.384 . S
C170 C171 1.372 . S
C171 C170 1.372 . S
C171 C172 1.400 1_556 S
C171 C176 1.490 . S
C172 H162 0.930 . S
C172 C171 1.400 1_554 S
C172 C175 1.386 . S
H173 C189 0.930 . S
H174 C190 0.931 . S
C175 H163 0.929 . S
C175 C169 1.390 . S
C175 C172 1.386 . S
C176 C171 1.490 . S
C176 C178 1.395 . S
C176 C179 1.403 1_556 S
H177 C183 0.930 . S
C178 H164 0.930 . S
C178 C176 1.395 . S
C178 C181 1.403 . S
C179 C176 1.403 1_554 S
C179 C180 1.524 . S
C179 C183 1.400 . S
C180 H165 0.960 . S
C180 H166 0.960 . S
C180 H167 0.960 . S
C180 C179 1.524 . S
C181 C178 1.403 . S
C181 C182 1.392 . S
C181 C185 1.495 . S
C182 C181 1.392 . S
C182 C183 1.385 1_556 S
C182 C184 1.478 . S
C183 H177 0.930 . S
C183 C179 1.400 . S
C183 C182 1.385 1_554 S
C184 C182 1.478 . S
C184 C186 1.381 . S
C184 C190 1.383 1_556 S
C185 C181 1.495 . S
C185 H191 0.959 . S
C185 H192 0.961 . S
C185 H193 0.960 . S
C186 C184 1.381 . S
C186 C187 1.394 . S
C186 H194 0.930 . S
C187 C186 1.394 . S
C187 C188 1.383 . S
C187 H195 0.929 . S
C188 C187 1.383 . S
C188 C189 1.377 1_556 S
C189 H173 0.930 . S
C189 C188 1.377 1_554 S
C189 C190 1.379 . S
C190 H174 0.931 . S
C190 C184 1.383 1_554 S
C190 C189 1.379 . S
H191 C185 0.959 . S
H192 C185 0.961 . S
H193 C185 0.960 . S
H194 C186 0.930 . S
H195 C187 0.929 . S
H196 C204 0.929 . S
H197 C206 0.930 . S
H198 C208 0.930 . S
H199 C211 0.929 . S
H200 C214 0.930 . S
H201 C216 0.960 . S
H202 C216 0.960 . S
H203 C216 0.960 . S
C204 H196 0.929 . S
C204 C205 1.377 1_554 S
C204 C206 1.384 . S
C205 C204 1.377 1_556 S
C205 C211 1.390 . S
C206 H197 0.930 . S
C206 C204 1.384 . S
C206 C207 1.391 . S
C207 C206 1.391 . S
C207 C208 1.380 1_554 S
C207 C212 1.491 . S
C208 H198 0.930 . S
C208 C207 1.380 1_556 S
C208 C211 1.386 . S
H209 C225 0.930 . S
H210 C226 0.931 . S
C211 H199 0.929 . S
C211 C205 1.390 . S
C211 C208 1.386 . S
C212 C207 1.491 . S
C212 C214 1.395 . S
C212 C215 1.403 1_554 S
H213 C219 0.930 . S
C214 H200 0.930 . S
C214 C212 1.395 . S
C214 C217 1.403 . S
C215 C212 1.403 1_556 S
C215 C216 1.524 . S
C215 C219 1.400 . S
C216 H201 0.960 . S
C216 H202 0.960 . S
C216 H203 0.960 . S
C216 C215 1.524 . S
C217 C214 1.403 . S
C217 C218 1.392 . S
C217 C221 1.495 . S
C218 C217 1.392 . S
C218 C219 1.385 1_554 S
C218 C220 1.478 . S
C219 H213 0.930 . S
C219 C215 1.400 . S
C219 C218 1.385 1_556 S
C220 C218 1.478 . S
C220 C222 1.381 . S
C220 C226 1.383 1_554 S
C221 C217 1.495 . S
C221 H227 0.959 . S
C221 H228 0.961 . S
C221 H229 0.960 . S
C222 C220 1.381 . S
C222 C223 1.394 . S
C222 H230 0.930 . S
C223 C222 1.394 . S
C223 C224 1.383 . S
C223 H231 0.929 . S
C224 C223 1.383 . S
C224 C225 1.377 1_554 S
C225 H209 0.930 . S
C225 C224 1.377 1_556 S
C225 C226 1.379 . S
C226 H210 0.931 . S
C226 C220 1.383 1_556 S
C226 C225 1.379 . S
H227 C221 0.959 . S
H228 C221 0.961 . S
H229 C221 0.960 . S
H230 C222 0.930 . S
H231 C223 0.929 . S
H232 C240 0.929 . S
H233 C242 0.930 . S
H234 C244 0.930 . S
H235 C247 0.929 . S
H236 C250 0.930 . S
H237 C252 0.960 . S
H238 C252 0.960 . S
H239 C252 0.960 . S
C240 H232 0.929 . S
C240 C241 1.377 . S
C240 C242 1.384 . S
C241 C240 1.377 . S
C241 C247 1.390 . S
C242 H233 0.930 . S
C242 C240 1.384 . S
C242 C243 1.372 . S
C243 C242 1.372 . S
C243 C244 1.400 . S
C243 C248 1.490 . S
C244 H234 0.930 . S
C244 C243 1.400 . S
C244 C247 1.386 . S
H245 C261 0.930 . S
H246 C262 0.931 . S
C247 H235 0.929 . S
C247 C241 1.390 . S
C247 C244 1.386 . S
C248 C243 1.490 . S
C248 C250 1.395 . S
C248 C251 1.403 . S
H249 C255 0.930 . S
C250 H236 0.930 . S
C250 C248 1.395 . S
C250 C253 1.403 . S
C251 C248 1.403 . S
C251 C252 1.524 . S
C251 C255 1.400 . S
C252 H237 0.960 . S
C252 H238 0.960 . S
C252 H239 0.960 . S
C252 C251 1.524 . S
C253 C250 1.403 . S
C253 C254 1.392 . S
C253 C257 1.495 . S
C254 C253 1.392 . S
C254 C255 1.385 . S
C254 C256 1.478 . S
C255 H249 0.930 . S
C255 C251 1.400 . S
C255 C254 1.385 . S
C256 C254 1.478 . S
C256 C258 1.381 . S
C256 C262 1.383 . S
C257 C253 1.495 . S
C257 H263 0.959 . S
C257 H264 0.961 . S
C257 H265 0.960 . S
C258 C256 1.381 . S
C258 C259 1.394 . S
C258 H266 0.930 . S
C259 C258 1.394 . S
C259 C260 1.383 . S
C259 H267 0.929 . S
C260 C259 1.383 . S
C260 C261 1.377 . S
C261 H245 0.930 . S
C261 C260 1.377 . S
C261 C262 1.379 . S
C262 H246 0.931 . S
C262 C256 1.383 . S
C262 C261 1.379 . S
H263 C257 0.959 . S
H264 C257 0.961 . S
H265 C257 0.960 . S
H266 C258 0.930 . S
H267 C259 0.929 . S
H268 C276 0.929 . S
H269 C278 0.930 . S
H270 C280 0.930 . S
H271 C283 0.929 . S
H272 C286 0.930 . S
H273 C288 0.960 . S
H274 C288 0.960 . S
H275 C288 0.960 . S
C276 H268 0.929 . S
C276 C277 1.377 . S
C276 C278 1.384 . S
C277 C276 1.377 . S
C277 C283 1.390 . S
C278 H269 0.930 . S
C278 C276 1.384 . S
C278 C279 1.372 . S
C279 C278 1.372 . S
C279 C280 1.400 . S
C279 C284 1.490 . S
C280 H270 0.930 . S
C280 C279 1.400 . S
C280 C283 1.386 . S
H281 C297 0.930 . S
H282 C298 0.931 . S
C283 H271 0.929 . S
C283 C277 1.390 . S
C283 C280 1.386 . S
C284 C279 1.490 . S
C284 C286 1.395 . S
C284 C287 1.403 . S
H285 C291 0.930 . S
C286 H272 0.930 . S
C286 C284 1.395 . S
C286 C289 1.403 . S
C287 C284 1.403 . S
C287 C288 1.524 . S
C287 C291 1.400 . S
C288 H273 0.960 . S
C288 H274 0.960 . S
C288 H275 0.960 . S
C288 C287 1.524 . S
C289 C286 1.403 . S
C289 C290 1.392 . S
C289 C293 1.495 . S
C290 C289 1.392 . S
C290 C291 1.385 . S
C290 C292 1.478 . S
C291 H285 0.930 . S
C291 C287 1.400 . S
C291 C290 1.385 . S
C292 C290 1.478 . S
C292 C294 1.381 . S
C292 C298 1.383 . S
C293 C289 1.495 . S
C293 H299 0.959 . S
C293 H300 0.961 . S
C293 H301 0.960 . S
C294 C292 1.381 . S
C294 C295 1.394 . S
C294 H302 0.930 . S
C295 C294 1.394 . S
C295 C296 1.383 . S
C295 H303 0.929 . S
C296 C295 1.383 . S
C296 C297 1.377 . S
C297 H281 0.930 . S
C297 C296 1.377 . S
C297 C298 1.379 . S
C298 H282 0.931 . S
C298 C292 1.383 . S
C298 C297 1.379 . S
H299 C293 0.959 . S
H300 C293 0.961 . S
H301 C293 0.960 . S
H302 C294 0.930 . S
H303 C295 0.929 . S
H304 C312 0.929 . S
H305 C314 0.930 . S
H306 C316 0.930 1_545 S
H307 C319 0.929 . S
H308 C322 0.930 . S
H309 C324 0.960 . S
H310 C324 0.960 . S
H311 C324 0.960 . S
C312 H304 0.929 . S
C312 C313 1.377 . S
C312 C314 1.384 . S
C313 C312 1.377 . S
C313 C319 1.390 1_554 S
C314 H305 0.930 . S
C314 C312 1.384 . S
C314 C315 1.372 . S
C315 C314 1.372 . S
C315 C316 1.400 1_554 S
C315 C320 1.490 . S
C316 H306 0.930 1_565 S
C316 C315 1.400 1_556 S
C316 C319 1.386 . S
H317 C333 0.930 . S
H318 C334 0.931 . S
C319 H307 0.929 . S
C319 C313 1.390 1_556 S
C319 C316 1.386 . S
C320 C315 1.490 . S
C320 C322 1.395 1_554 S
C320 C323 1.403 1_565 S
H321 C327 0.930 . S
C322 H308 0.930 . S
C322 C320 1.395 1_556 S
C322 C325 1.403 . S
C323 C320 1.403 1_545 S
C323 C324 1.524 . S
C323 C327 1.400 . S
C324 H309 0.960 . S
C324 H310 0.960 . S
C324 H311 0.960 . S
C324 C323 1.524 . S
C325 C322 1.403 . S
C325 C326 1.392 1_565 S
C325 C329 1.495 . S
C326 C325 1.392 1_545 S
C326 C327 1.385 1_556 S
C326 C328 1.478 . S
C327 H321 0.930 . S
C327 C323 1.400 . S
C327 C326 1.385 1_554 S
C328 C326 1.478 . S
C328 C330 1.381 1_556 S
C328 C334 1.383 . S
C329 C325 1.495 . S
C329 H335 0.959 . S
C329 H336 0.961 . S
C329 H337 0.960 . S
C330 C328 1.381 1_554 S
C330 C331 1.394 . S
C330 H338 0.930 1_545 S
C331 C330 1.394 . S
C331 C332 1.383 1_554 S
C331 H339 0.929 . S
C332 C331 1.383 1_556 S
C332 C333 1.377 . S
C333 H317 0.930 . S
C333 C332 1.377 . S
C333 C334 1.379 . S
C334 H318 0.931 . S
C334 C328 1.383 . S
C334 C333 1.379 . S
H335 C329 0.959 . S
H336 C329 0.961 . S
H337 C329 0.960 . S
H338 C330 0.930 1_565 S
H339 C331 0.929 . S
H340 C348 0.929 . S
H341 C350 0.930 . S
H342 C352 0.930 . S
H343 C355 0.929 . S
H344 C358 0.930 . S
H345 C360 0.960 . S
H346 C360 0.960 . S
H347 C360 0.960 . S
C348 H340 0.929 . S
C348 C349 1.377 1_545 S
C348 C350 1.384 . S
C349 C348 1.377 1_565 S
C349 C355 1.390 . S
C350 H341 0.930 . S
C350 C348 1.384 . S
C350 C351 1.371 1_545 S
C351 C350 1.371 1_565 S
C351 C352 1.404 . S
C351 C356 1.477 1_565 S
C352 H342 0.930 . S
C352 C351 1.404 . S
C352 C355 1.386 . S
H353 C369 0.928 1_565 S
H354 C370 0.935 . S
C355 H343 0.929 . S
C355 C349 1.390 . S
C355 C352 1.386 . S
C356 C351 1.477 1_545 S
C356 C358 1.433 . S
C356 C359 1.376 1_545 S
H357 C363 0.930 . S
C358 H344 0.930 . S
C358 C356 1.433 . S
C358 C361 1.403 . S
C359 C356 1.376 1_565 S
C359 C360 1.524 . S
C359 C363 1.400 . S
C360 H345 0.960 . S
C360 H346 0.960 . S
C360 H347 0.960 . S
C360 C359 1.524 . S
C361 C358 1.403 . S
C361 C362 1.392 . S
C361 C365 1.495 . S
C362 C361 1.392 . S
C362 C363 1.385 1_545 S
C362 C364 1.478 . S
C363 H357 0.930 . S
C363 C359 1.400 . S
C363 C362 1.385 1_565 S
C364 C362 1.478 . S
C364 C366 1.381 . S
C364 C370 1.383 . S
C365 C361 1.495 . S
C365 H371 0.959 . S
C365 H372 0.961 . S
C365 H373 0.960 . S
C366 C364 1.381 . S
C366 C367 1.394 . S
C366 H374 0.930 . S
C367 C366 1.394 . S
C367 C368 1.383 . S
C367 H375 0.929 . S
C368 C367 1.383 . S
C368 C369 1.383 . S
C369 H353 0.928 1_545 S
C369 C368 1.383 . S
C369 C370 1.376 . S
C370 H354 0.935 . S
C370 C364 1.383 . S
C370 C369 1.376 . S
H371 C365 0.959 . S
H372 C365 0.961 . S
H373 C365 0.960 . S
H374 C366 0.930 . S
H375 C367 0.929 . S
H376 C384 0.929 . S
H377 C386 0.930 . S
H378 C388 0.930 . S
H379 C391 0.929 . S
H380 C394 0.930 . S
H381 C396 0.960 . S
H382 C396 0.960 1_655 S
H383 C396 0.960 1_654 S
C384 H376 0.929 . S
C384 C385 1.377 1_556 S
C384 C386 1.384 . S
C385 C384 1.377 1_554 S
C385 C391 1.390 . S
C386 H377 0.930 . S
C386 C384 1.384 . S
C386 C387 1.387 . S
C387 C386 1.387 . S
C387 C388 1.381 1_556 S
C387 C392 1.489 . S
C388 H378 0.930 . S
C388 C387 1.381 1_554 S
C388 C391 1.386 . S
H389 C405 0.930 . S
H390 C406 0.931 . S
C391 H379 0.929 . S
C391 C385 1.390 . S
C391 C388 1.386 . S
C392 C387 1.489 . S
C392 C394 1.391 1_556 S
C392 C395 1.412 . S
H393 C399 0.930 . S
C394 H380 0.930 . S
C394 C392 1.391 1_554 S
C394 C397 1.403 . S
C395 C392 1.412 . S
C395 C396 1.524 1_655 S
C395 C399 1.400 1_655 S
C396 H381 0.960 . S
C396 H382 0.960 1_455 S
C396 H383 0.960 1_456 S
C396 C395 1.524 1_455 S
C397 C394 1.403 . S
C397 C398 1.393 1_655 S
C397 C401 1.495 . S
C398 C397 1.393 1_455 S
C398 C399 1.385 1_554 S
C398 C400 1.480 . S
C399 H393 0.930 . S
C399 C395 1.400 1_455 S
C399 C398 1.385 1_556 S
C400 C398 1.480 . S
C400 C402 1.363 1_554 S
C400 C406 1.398 . S
C401 C397 1.495 . S
C401 H407 0.959 . S
C401 H408 0.961 1_655 S
C401 H409 0.960 1_654 S
C402 C400 1.363 1_556 S
C402 C403 1.394 . S
C402 H410 0.930 . S
C403 C402 1.394 . S
C403 C404 1.397 . S
C403 H411 0.929 . S
C404 C403 1.397 . S
C404 C405 1.360 1_556 S
C405 H389 0.930 . S
C405 C404 1.360 1_554 S
C405 C406 1.379 . S
C406 H390 0.931 . S
C406 C400 1.398 . S
C406 C405 1.379 . S
H407 C401 0.959 . S
H408 C401 0.961 1_455 S
H409 C401 0.960 1_456 S
H410 C402 0.930 . S
H411 C403 0.929 . S
H412 C420 0.929 . S
H413 C422 0.930 . S
H414 C424 0.930 . S
H415 C427 0.929 . S
H416 C430 0.930 . S
H417 C432 0.960 . S
H418 C432 0.960 . S
H419 C432 0.960 . S
C420 H412 0.929 . S
C420 C421 1.377 . S
C420 C422 1.384 . S
C421 C420 1.377 . S
C421 C427 1.390 . S
C422 H413 0.930 . S
C422 C420 1.384 . S
C422 C423 1.372 . S
C423 C422 1.372 . S
C423 C424 1.400 . S
C423 C428 1.490 . S
C424 H414 0.930 . S
C424 C423 1.400 . S
C424 C427 1.386 . S
H425 C441 0.930 . S
H426 C442 0.931 . S
C427 H415 0.929 . S
C427 C421 1.390 . S
C427 C424 1.386 . S
C428 C423 1.490 . S
C428 C430 1.395 . S
C428 C431 1.403 . S
H429 C435 0.930 . S
C430 H416 0.930 . S
C430 C428 1.395 . S
C430 C433 1.403 1_455 S
C431 C428 1.403 . S
C431 C432 1.524 . S
C431 C435 1.400 1_455 S
C432 H417 0.960 . S
C432 H418 0.960 . S
C432 H419 0.960 . S
C432 C431 1.524 . S
C433 C430 1.403 1_655 S
C433 C434 1.392 . S
C433 C437 1.495 . S
C434 C433 1.392 . S
C434 C435 1.385 . S
C434 C436 1.478 . S
C435 H429 0.930 . S
C435 C431 1.400 1_655 S
C435 C434 1.385 . S
C436 C434 1.478 . S
C436 C438 1.381 . S
C436 C442 1.383 . S
C437 C433 1.495 . S
C437 H443 0.959 . S
C437 H444 0.961 . S
C437 H445 0.960 . S
C438 C436 1.381 . S
C438 C439 1.394 . S
C438 H446 0.930 . S
C439 C438 1.394 . S
C439 C440 1.383 . S
C439 H447 0.929 . S
C440 C439 1.383 . S
C440 C441 1.377 . S
C441 H425 0.930 . S
C441 C440 1.377 . S
C441 C442 1.379 . S
C442 H426 0.931 . S
C442 C436 1.383 . S
C442 C441 1.379 . S
H443 C437 0.959 . S
H444 C437 0.961 . S
H445 C437 0.960 . S
H446 C438 0.930 . S
H447 C439 0.929 . S
H448 C456 0.929 . S
H449 C458 0.930 . S
H450 C460 0.930 . S
H451 C463 0.929 . S
H452 C466 0.930 . S
H453 C468 0.960 . S
H454 C468 0.960 . S
H455 C468 0.960 . S
C456 H448 0.929 . S
C456 C457 1.377 1_565 S
C456 C458 1.384 . S
C457 C456 1.377 1_545 S
C457 C463 1.390 1_655 S
C458 H449 0.930 . S
C458 C456 1.384 . S
C458 C459 1.359 1_565 S
C459 C458 1.359 1_545 S
C459 C460 1.411 1_655 S
C459 C464 1.492 . S
C460 H450 0.930 . S
C460 C459 1.411 1_455 S
C460 C463 1.386 . S
H461 C477 0.930 . S
H462 C478 0.931 . S
C463 H451 0.929 . S
C463 C457 1.390 1_455 S
C463 C460 1.386 . S
C464 C459 1.492 . S
C464 C466 1.395 . S
C464 C467 1.403 1_645 S
H465 C471 0.930 . S
C466 H452 0.930 . S
C466 C464 1.395 . S
C466 C469 1.403 . S
C467 C464 1.403 1_465 S
C467 C468 1.524 . S
C467 C471 1.400 . S
C468 H453 0.960 . S
C468 H454 0.960 . S
C468 H455 0.960 . S
C468 C467 1.524 . S
C469 C466 1.403 . S
C469 C470 1.392 . S
C469 C473 1.495 . S
C470 C469 1.392 . S
C470 C471 1.385 1_645 S
C470 C472 1.478 . S
C471 H465 0.930 . S
C471 C467 1.400 . S
C471 C470 1.385 1_465 S
C472 C470 1.478 . S
C472 C474 1.381 1_545 S
C472 C478 1.383 1_655 S
C473 C469 1.495 . S
C473 H479 0.959 . S
C473 H480 0.961 . S
C473 H481 0.960 . S
C474 C472 1.381 1_565 S
C474 C475 1.394 . S
C474 H482 0.930 . S
C475 C474 1.394 . S
C475 C476 1.383 1_565 S
C475 H483 0.929 . S
C476 C475 1.383 1_545 S
C476 C477 1.377 1_655 S
C477 H461 0.930 . S
C477 C476 1.377 1_455 S
C477 C478 1.379 . S
C478 H462 0.931 . S
C478 C472 1.383 1_455 S
C478 C477 1.379 . S
H479 C473 0.959 . S
H480 C473 0.961 . S
H481 C473 0.960 . S
H482 C474 0.930 . S
H483 C475 0.929 . S
H484 C492 0.925 . S
H485 C494 0.929 . S
H486 C496 0.926 . S
H487 C499 0.929 . S
H488 C502 0.930 . S
H489 C504 0.960 . S
H490 C504 0.960 . S
H491 C504 0.960 . S
C492 H484 0.925 . S
C492 C493 1.383 . S
C492 C494 1.384 . S
C493 C492 1.383 . S
C493 C499 1.390 1_455 S
C494 H485 0.929 . S
C494 C492 1.384 . S
C494 C495 1.378 . S
C495 C494 1.378 . S
C495 C496 1.400 1_455 S
C495 C500 1.490 . S
C496 H486 0.926 . S
C496 C495 1.400 1_655 S
C496 C499 1.386 . S
H497 C513 0.930 . S
H498 C514 0.931 . S
C499 H487 0.929 . S
C499 C493 1.390 1_655 S
C499 C496 1.386 . S
C500 C495 1.490 . S
C500 C502 1.395 . S
C500 C503 1.403 1_465 S
H501 C507 0.930 . S
C502 H488 0.930 . S
C502 C500 1.395 . S
C502 C505 1.403 . S
C503 C500 1.403 1_645 S
C503 C504 1.524 . S
C503 C507 1.400 . S
C504 H489 0.960 . S
C504 H490 0.960 . S
C504 H491 0.960 . S
C504 C503 1.524 . S
C505 C502 1.403 . S
C505 C506 1.392 . S
C505 C509 1.495 . S
C506 C505 1.392 . S
C506 C507 1.385 1_465 S
C506 C508 1.478 . S
C507 H501 0.930 . S
C507 C503 1.400 . S
C507 C506 1.385 1_645 S
C508 C506 1.478 . S
C508 C510 1.381 . S
C508 C514 1.383 1_455 S
C509 C505 1.495 . S
C509 H515 0.959 . S
C509 H516 0.961 . S
C509 H517 0.960 . S
C510 C508 1.381 . S
C510 C511 1.398 . S
C510 H518 0.930 . S
C511 C510 1.398 . S
C511 C512 1.391 . S
C511 H519 0.919 1_565 S
C512 C511 1.391 . S
C512 C513 1.377 1_455 S
C513 H497 0.930 . S
C513 C512 1.377 1_655 S
C513 C514 1.379 . S
C514 H498 0.931 . S
C514 C508 1.383 1_655 S
C514 C513 1.379 . S
H515 C509 0.959 . S
H516 C509 0.961 . S
H517 C509 0.960 . S
H518 C510 0.930 . S
H519 C511 0.919 1_545 S
H520 C528 0.929 . S
H521 C530 0.930 . S
H522 C532 0.930 . S
H523 C535 0.929 . S
H524 C538 0.930 . S
H525 C540 0.960 . S
H526 C540 0.960 . S
H527 C540 0.960 . S
C528 H520 0.929 . S
C528 C529 1.377 . S
C528 C530 1.384 . S
C529 C528 1.377 . S
C529 C535 1.390 . S
C530 H521 0.930 . S
C530 C528 1.384 . S
C530 C531 1.372 . S
C531 C530 1.372 . S
C531 C532 1.400 . S
C531 C536 1.490 . S
C532 H522 0.930 . S
C532 C531 1.400 . S
C532 C535 1.386 . S
H533 C549 0.930 . S
H534 C550 0.931 . S
C535 H523 0.929 . S
C535 C529 1.390 . S
C535 C532 1.386 . S
C536 C531 1.490 . S
C536 C538 1.395 . S
C536 C539 1.403 . S
H537 C543 0.930 . S
C538 H524 0.930 . S
C538 C536 1.395 . S
C538 C541 1.403 . S
C539 C536 1.403 . S
C539 C540 1.524 . S
C539 C543 1.400 . S
C540 H525 0.960 . S
C540 H526 0.960 . S
C540 H527 0.960 . S
C540 C539 1.524 . S
C541 C538 1.403 . S
C541 C542 1.392 . S
C541 C545 1.495 . S
C542 C541 1.392 . S
C542 C543 1.385 . S
C542 C544 1.478 . S
C543 H537 0.930 . S
C543 C539 1.400 . S
C543 C542 1.385 . S
C544 C542 1.478 . S
C544 C546 1.381 . S
C544 C550 1.383 . S
C545 C541 1.495 . S
C545 H551 0.959 . S
C545 H552 0.961 . S
C545 H553 0.960 . S
C546 C544 1.381 . S
C546 C547 1.394 . S
C546 H554 0.930 . S
C547 C546 1.394 . S
C547 C548 1.383 . S
C547 H555 0.929 . S
C548 C547 1.383 . S
C548 C549 1.377 . S
C549 H533 0.930 . S
C549 C548 1.377 . S
C549 C550 1.379 . S
C550 H534 0.931 . S
C550 C544 1.383 . S
C550 C549 1.379 . S
H551 C545 0.959 . S
H552 C545 0.961 . S
H553 C545 0.960 . S
H554 C546 0.930 . S
H555 C547 0.929 . S
H556 C564 0.929 . S
H557 C566 0.930 . S
H558 C568 0.930 . S
H559 C571 0.929 . S
H560 C574 0.930 . S
H561 C576 0.960 . S
H562 C576 0.960 . S
H563 C576 0.960 . S
C564 H556 0.929 . S
C564 C565 1.377 . S
C564 C566 1.384 . S
C565 C564 1.377 . S
C565 C571 1.390 . S
C566 H557 0.930 . S
C566 C564 1.384 . S
C566 C567 1.372 . S
C567 C566 1.372 . S
C567 C568 1.400 . S
C567 C572 1.490 . S
C568 H558 0.930 . S
C568 C567 1.400 . S
C568 C571 1.386 . S
H569 C585 0.930 . S
H570 C586 0.931 . S
C571 H559 0.929 . S
C571 C565 1.390 . S
C571 C568 1.386 . S
C572 C567 1.490 . S
C572 C574 1.395 . S
C572 C575 1.403 . S
H573 C579 0.930 . S
C574 H560 0.930 . S
C574 C572 1.395 . S
C574 C577 1.403 . S
C575 C572 1.403 . S
C575 C576 1.524 . S
C575 C579 1.400 . S
C576 H561 0.960 . S
C576 H562 0.960 . S
C576 H563 0.960 . S
C576 C575 1.524 . S
C577 C574 1.403 . S
C577 C578 1.392 . S
C577 C581 1.495 . S
C578 C577 1.392 . S
C578 C579 1.385 . S
C578 C580 1.478 . S
C579 H573 0.930 . S
C579 C575 1.400 . S
C579 C578 1.385 . S
C580 C578 1.478 . S
C580 C582 1.381 . S
C580 C586 1.383 . S
C581 C577 1.495 . S
C581 H587 0.959 . S
C581 H588 0.961 . S
C581 H589 0.960 . S
C582 C580 1.381 . S
C582 C583 1.394 . S
C582 H590 0.930 . S
C583 C582 1.394 . S
C583 C584 1.383 . S
C583 H591 0.929 . S
C584 C583 1.383 . S
C584 C585 1.377 . S
C585 H569 0.930 . S
C585 C584 1.377 . S
C585 C586 1.379 . S
C586 H570 0.931 . S
C586 C580 1.383 . S
C586 C585 1.379 . S
H587 C581 0.959 . S
H588 C581 0.961 . S
H589 C581 0.960 . S
H590 C582 0.930 . S
H591 C583 0.929 . S
C169 C82 3.496 1_554 S
C188 C11 3.489 1_556 S
C205 C91 3.498 1_556 S
C224 C2 3.496 1_554 S
C241 C56 0.087 . S
C260 C127 0.109 . S
C277 C47 0.083 . S
C296 C136 0.130 . S
C313 C16 0.901 . S
C332 C7 0.876 . S
C349 C51 4.881 . S
C368 C42 4.874 . S
C385 C96 0.900 . S
C404 C87 0.943 . S
C421 C122 4.881 . S
C440 C131 4.874 . S
C457 C50 1.450 1_545 S
C476 C19 1.465 1_655 S
C493 C10 1.465 1_455 S
C512 C59 1.474 1_565 S
C529 C130 1.453 . S
C548 C99 1.462 . S
C565 C139 1.456 . S
C584 C90 1.453 . S
