# Generated by pormake.
# Topology qtz-e, (6)-cn, num edge types: 1
# Building blocks:
#     Node 0, Type 0, BuildingBlock: CIFDUS_clean_sbu_1, # of connection points: 6
#     Node 1, Type 0, BuildingBlock: CIFDUS_clean_sbu_1, # of connection points: 6
#     Node 2, Type 0, BuildingBlock: CIFDUS_clean_sbu_1, # of connection points: 6
#     Node 3, Type 0, BuildingBlock: CIFDUS_clean_sbu_1, # of connection points: 6
#     Node 4, Type 0, BuildingBlock: CIFDUS_clean_sbu_1, # of connection points: 6
#     Node 5, Type 0, BuildingBlock: CIFDUS_clean_sbu_1, # of connection points: 6
#     Edge 6, Type (0, 0), BuildingBlock: XUDNAN_clean_linker_2, # of connection points: 2
#     Edge 7, Type (0, 0), BuildingBlock: XUDNAN_clean_linker_2, # of connection points: 2
#     Edge 8, Type (0, 0), BuildingBlock: XUDNAN_clean_linker_2, # of connection points: 2
#     Edge 9, Type (0, 0), BuildingBlock: XUDNAN_clean_linker_2, # of connection points: 2
#     Edge 10, Type (0, 0), BuildingBlock: XUDNAN_clean_linker_2, # of connection points: 2
#     Edge 11, Type (0, 0), BuildingBlock: XUDNAN_clean_linker_2, # of connection points: 2
#     Edge 12, Type (0, 0), BuildingBlock: XUDNAN_clean_linker_2, # of connection points: 2
#     Edge 13, Type (0, 0), BuildingBlock: XUDNAN_clean_linker_2, # of connection points: 2
#     Edge 14, Type (0, 0), BuildingBlock: XUDNAN_clean_linker_2, # of connection points: 2
#     Edge 15, Type (0, 0), BuildingBlock: XUDNAN_clean_linker_2, # of connection points: 2
#     Edge 16, Type (0, 0), BuildingBlock: XUDNAN_clean_linker_2, # of connection points: 2
#     Edge 17, Type (0, 0), BuildingBlock: XUDNAN_clean_linker_2, # of connection points: 2
#     Edge 18, Type (0, 0), BuildingBlock: XUDNAN_clean_linker_2, # of connection points: 2
#     Edge 19, Type (0, 0), BuildingBlock: XUDNAN_clean_linker_2, # of connection points: 2
#     Edge 20, Type (0, 0), BuildingBlock: XUDNAN_clean_linker_2, # of connection points: 2
#     Edge 21, Type (0, 0), BuildingBlock: XUDNAN_clean_linker_2, # of connection points: 2
#     Edge 22, Type (0, 0), BuildingBlock: XUDNAN_clean_linker_2, # of connection points: 2
#     Edge 23, Type (0, 0), BuildingBlock: XUDNAN_clean_linker_2, # of connection points: 2
# Relax obj value: 0.337
# Max RMSD: 0.227
# Mean RMSD: 0.227
data_MOF--net-qtz-e--node1-CIFDUS_clean_sbu_1--edge1-XUDNAN_clean_linker_2
_symmetry_space_group_name_H-M    P1
_symmetry_Int_Tables_number       1
_symmetry_cell_setting            triclinic
loop_
_symmetry_equiv_pos_as_xyz
'x, y, z'
_cell_length_a     28.201754
_cell_length_b     28.052568
_cell_length_c     31.127424
_cell_angle_alpha  90.453677
_cell_angle_beta   89.789054
_cell_angle_gamma 120.40957
loop_
_atom_site_label
_atom_site_type_symbol
_atom_site_fract_x
_atom_site_fract_y
_atom_site_fract_z
_atom_type_partial_charge
O0 O 0.28928 0.42964 0.03934 0.0
Mn1 Mn 0.2174 0.42399 0.01432 0.0
O2 O 0.3302 0.50799 0.07579 0.0
Mn3 Mn 0.3121 0.53999 0.03242 0.0
O4 O 0.14661 0.41726 0.98788 0.0
O5 O 0.19512 0.34595 0.9949 0.0
Mn6 Mn 0.12574 0.3017 0.01027 0.0
O7 O 0.17685 0.39713 0.07356 0.0
O8 O 0.08432 0.32659 0.98191 0.0
O9 O 0.25878 0.45368 0.95701 0.0
O10 O 0.33492 0.53273 0.97758 0.0
O11 O 0.14785 0.25763 0.98282 0.0
O12 O 0.12227 0.30488 0.06967 0.0
C13 C 0.24244 0.54887 0.04104 0.0
C14 C 0.32802 0.46365 0.06434 0.0
C15 C 0.09891 0.37739 0.97696 0.0
C16 C 0.1943 0.30306 0.97776 0.0
C17 C 0.14332 0.35029 0.09055 0.0
C18 C 0.30713 0.4948 0.94983 0.0
O19 O 0.23959 0.50254 0.03106 0.0
O20 O 0.29175 0.59086 0.04488 0.0
O21 O 0.87191 0.28476 0.37077 0.0
Mn22 Mn 0.79073 0.23856 0.3464 0.0
O23 O 0.86967 0.34381 0.41879 0.0
Mn24 Mn 0.81785 0.3512 0.38843 0.0
O25 O 0.71094 0.19599 0.32141 0.0
O26 O 0.81397 0.19762 0.30817 0.0
Mn27 Mn 0.7643 0.12767 0.30165 0.0
O28 O 0.76669 0.17697 0.39389 0.0
O29 O 0.70251 0.12673 0.2793 0.0
O30 O 0.81359 0.29706 0.299 0.0
O31 O 0.83931 0.37802 0.33255 0.0
O32 O 0.8261 0.14167 0.26901 0.0
O33 O 0.75386 0.10114 0.35744 0.0
C34 C 0.73127 0.29182 0.39684 0.0
C35 C 0.89495 0.32251 0.40016 0.0
C36 C 0.68341 0.15592 0.29492 0.0
C37 C 0.84696 0.19156 0.28355 0.0
C38 C 0.75343 0.12552 0.39232 0.0
C39 C 0.83378 0.34952 0.29867 0.0
O40 O 0.76767 0.28125 0.3829 0.0
O41 O 0.75199 0.34248 0.40958 0.0
O42 O 0.55309 0.83961 0.69426 0.0
Mn43 Mn 0.53204 0.76235 0.66631 0.0
O44 O 0.47423 0.82434 0.72647 0.0
Mn45 Mn 0.42521 0.75888 0.69956 0.0
O46 O 0.50398 0.68455 0.64016 0.0
O47 O 0.59843 0.79589 0.62747 0.0
Mn48 Mn 0.6239 0.74961 0.62388 0.0
O49 O 0.57636 0.74768 0.71421 0.0
O50 O 0.56928 0.68158 0.60188 0.0
O51 O 0.49251 0.77878 0.61812 0.0
O52 O 0.41197 0.76647 0.64216 0.0
O53 O 0.66679 0.80763 0.58778 0.0
O54 O 0.64563 0.74605 0.67905 0.0
C55 C 0.42279 0.68407 0.71942 0.0
C56 C 0.5252 0.85563 0.71742 0.0
C57 C 0.51994 0.65893 0.61541 0.0
C58 C 0.63523 0.8265 0.59947 0.0
C59 C 0.61947 0.74253 0.71358 0.0
C60 C 0.4475 0.77852 0.61255 0.0
O61 O 0.46325 0.72544 0.70085 0.0
O62 O 0.38228 0.692 0.72747 0.0
O63 O 0.74644 0.60604 0.0172 0.0
Mn64 Mn 0.79789 0.57723 -0.00475 0.0
O65 O 0.69316 0.54525 0.06725 0.0
Mn66 Mn 0.69261 0.48546 0.04142 0.0
O67 O 0.84507 0.54482 0.9728 0.0
O68 O 0.83128 0.63837 0.95223 0.0
Mn69 Mn 0.90279 0.6655 0.94765 0.0
O70 O 0.86024 0.62712 0.04072 0.0
O71 O 0.91412 0.60761 0.93236 0.0
O72 O 0.73747 0.53098 0.95021 0.0
O73 O 0.66279 0.46698 0.98624 0.0
O74 O 0.88357 0.70098 0.90703 0.0
O75 O 0.92871 0.69491 0.00163 0.0
C76 C 0.75911 0.47257 0.05778 0.0
C77 C 0.70827 0.58913 0.04586 0.0
C78 C 0.88679 0.55937 0.94841 0.0
C79 C 0.83414 0.67018 0.92143 0.0
C80 C 0.90759 0.67221 0.03757 0.0
C81 C 0.68731 0.49118 0.95162 0.0
O82 O 0.76332 0.5126 0.03507 0.0
O83 O 0.70969 0.43916 0.07107 0.0
O84 O 0.18263 0.72261 0.33916 0.0
Mn85 Mn 0.22942 0.80358 0.3162 0.0
O86 O 0.22124 0.67821 0.30514 0.0
Mn87 Mn 0.28282 0.73747 0.27959 0.0
O88 O 0.27979 0.88166 0.29252 0.0
O89 O 0.16662 0.81741 0.31847 0.0
Mn90 Mn 0.18561 0.87997 0.34599 0.0
O91 O 0.25339 0.83612 0.37994 0.0
O92 O 0.25295 0.93644 0.32359 0.0
O93 O 0.20375 0.77157 0.25395 0.0
O94 O 0.26897 0.75729 0.22666 0.0
O95 O 0.1224 0.86095 0.31491 0.0
O96 O 0.19271 0.86126 0.40103 0.0
C97 C 0.3378 0.7975 0.3264 0.0
C98 C 0.18496 0.67871 0.32988 0.0
C99 C 0.28734 0.92959 0.30137 0.0
C100 C 0.12938 0.82241 0.29855 0.0
C101 C 0.23197 0.8526 0.40925 0.0
C102 C 0.22565 0.7602 0.22225 0.0
O103 O 0.29289 0.79226 0.31257 0.0
O104 O 0.35152 0.76588 0.30623 0.0
O105 O 0.4698 0.1782 0.68294 0.0
Mn106 Mn 0.43138 0.22073 0.66115 0.0
O107 O 0.55596 0.23024 0.65539 0.0
Mn108 Mn 0.55289 0.28994 0.63272 0.0
O109 O 0.40124 0.2681 0.63727 0.0
O110 O 0.35697 0.15076 0.65455 0.0
Mn111 Mn 0.30655 0.16654 0.67328 0.0
O112 O 0.41273 0.23535 0.72442 0.0
O113 O 0.3098 0.22427 0.64078 0.0
O114 O 0.44669 0.20566 0.59816 0.0
O115 O 0.52485 0.27986 0.57765 0.0
O116 O 0.2688 0.09422 0.65456 0.0
O117 O 0.32063 0.1833 0.73101 0.0
C118 C 0.54014 0.33839 0.68003 0.0
C119 C 0.51942 0.18814 0.67617 0.0
C120 C 0.35576 0.26597 0.63009 0.0
C121 C 0.31674 0.10172 0.6446 0.0
C122 C 0.36791 0.21698 0.74648 0.0
C123 C 0.48065 0.23521 0.56884 0.0
O124 O 0.50333 0.29082 0.66581 0.0
O125 O 0.58714 0.35775 0.6611 0.0
H126 H 0.158 0.65193 0.2214 0.0
H127 H 0.2213 0.79658 0.14168 0.0
H128 H 0.19023 0.73711 0.07689 0.0
H129 H 0.21368 0.59548 0.17557 0.0
H130 H 0.1609 0.52341 0.17749 0.0
H131 H 0.15979 0.57078 0.21536 0.0
H132 H 0.06098 0.54232 0.19176 0.0
H133 H 0.0625 0.49441 0.15356 0.0
H134 H 0.04628 0.54551 0.13593 0.0
H135 H 0.18612 0.67144 0.0245 0.0
H136 H 0.22141 0.61497 0.99349 0.0
H137 H 0.16669 0.50967 0.10468 0.0
C138 C 0.16174 0.67028 0.19018 0.0
C139 C 0.19047 0.72824 0.18607 0.0
C140 C 0.19777 0.7521 0.14522 0.0
C141 C 0.1801 0.71835 0.10833 0.0
C142 C 0.156 0.66103 0.11301 0.0
C143 C 0.14618 0.63704 0.15324 0.0
C144 C 0.13358 0.57771 0.15027 0.0
C145 C 0.16923 0.56636 0.18142 0.0
C146 C 0.07214 0.53763 0.15836 0.0
C147 C 0.14767 0.57532 0.10351 0.0
C148 C 0.15577 0.622 0.08185 0.0
C149 C 0.17824 0.63413 0.0407 0.0
C150 C 0.19795 0.60149 0.02305 0.0
C151 C 0.19572 0.55762 0.04659 0.0
C152 C 0.16649 0.54166 0.0856 0.0
H153 H 0.49178 0.28191 0.49137 0.0
H154 H 0.47286 0.137 0.55394 0.0
H155 H 0.50746 0.11311 0.49023 0.0
H156 H 0.48665 0.22085 0.3684 0.0
H157 H 0.53679 0.29031 0.35303 0.0
H158 H 0.48166 0.27831 0.38914 0.0
H159 H 0.55272 0.34553 0.44422 0.0
H160 H 0.60733 0.35757 0.40887 0.0
H161 H 0.60639 0.33342 0.46264 0.0
H162 H 0.58077 0.12926 0.44202 0.0
H163 H 0.67658 0.18157 0.41664 0.0
H164 H 0.65372 0.31705 0.38124 0.0
C165 C 0.49125 0.24309 0.48974 0.0
C166 C 0.47815 0.21029 0.52665 0.0
C167 C 0.47978 0.16089 0.52515 0.0
C168 C 0.50017 0.14741 0.48891 0.0
C169 C 0.51879 0.18382 0.45433 0.0
C170 C 0.51231 0.2298 0.45364 0.0
C171 C 0.54704 0.26934 0.41857 0.0
C172 C 0.51087 0.26436 0.38 0.0
C173 C 0.58039 0.32989 0.43465 0.0
C174 C 0.58306 0.2454 0.40726 0.0
C175 C 0.56332 0.19368 0.42528 0.0
C176 C 0.59545 0.1686 0.42638 0.0
C177 C 0.65007 0.19859 0.41204 0.0
C178 C 0.67179 0.25314 0.39743 0.0
C179 C 0.63703 0.27502 0.39222 0.0
H180 H 0.25892 0.46652 0.87107 0.0
H181 H 0.41507 0.53179 0.93601 0.0
H182 H 0.46284 0.55373 0.86677 0.0
H183 H 0.31102 0.43224 0.75908 0.0
H184 H 0.26956 0.45358 0.7304 0.0
H185 H 0.24499 0.41621 0.78014 0.0
H186 H 0.23116 0.49416 0.81111 0.0
H187 H 0.25484 0.53087 0.76189 0.0
H188 H 0.28837 0.56429 0.81162 0.0
H189 H 0.49514 0.60123 0.80097 0.0
H190 H 0.50625 0.67356 0.75244 0.0
H191 H 0.33355 0.58263 0.72222 0.0
C192 C 0.30288 0.48298 0.87006 0.0
C193 C 0.33353 0.49789 0.90835 0.0
C194 C 0.391 0.52043 0.90676 0.0
C195 C 0.41837 0.53223 0.86741 0.0
C196 C 0.38782 0.52175 0.82979 0.0
C197 C 0.33088 0.49662 0.83068 0.0
C198 C 0.30911 0.50294 0.78799 0.0
C199 C 0.28209 0.44798 0.76292 0.0
C200 C 0.26867 0.52447 0.79356 0.0
C201 C 0.36258 0.54468 0.76673 0.0
C202 C 0.40758 0.55107 0.7896 0.0
C203 C 0.46055 0.59502 0.78173 0.0
C204 C 0.46704 0.63627 0.75339 0.0
C205 C 0.4211 0.63318 0.73307 0.0
C206 C 0.36927 0.5849 0.73712 0.0
H207 H 0.80104 0.30313 0.21915 0.0
H208 H 0.89946 0.46042 0.28417 0.0
H209 H 0.91868 0.50838 0.21494 0.0
H210 H 0.87449 0.34428 0.10924 0.0
H211 H 0.80972 0.3069 0.08137 0.0
H212 H 0.819 0.2816 0.13184 0.0
H213 H 0.7346 0.281 0.16453 0.0
H214 H 0.72303 0.30338 0.11407 0.0
H215 H 0.73016 0.34285 0.16213 0.0
H216 H 0.90585 0.54018 0.14653 0.0
H217 H 0.85381 0.55338 0.08931 0.0
H218 H 0.76086 0.37816 0.06663 0.0
C219 C 0.82833 0.3475 0.21851 0.0
C220 C 0.84979 0.37798 0.25688 0.0
C221 C 0.88361 0.43612 0.25506 0.0
C222 C 0.89507 0.46367 0.21573 0.0
C223 C 0.87162 0.43262 0.1785 0.0
C224 C 0.83852 0.37566 0.17964 0.0
C225 C 0.808 0.35304 0.1377 0.0
C226 C 0.82915 0.3195 0.11362 0.0
C227 C 0.74531 0.31815 0.14509 0.0
C228 C 0.82448 0.40648 0.11456 0.0
C229 C 0.8637 0.45178 0.13758 0.0
C230 C 0.87779 0.50552 0.12684 0.0
C231 C 0.84854 0.51305 0.09399 0.0
C232 C 0.80504 0.46724 0.07331 0.0
C233 C 0.7955 0.41379 0.08141 0.0
H234 H 0.35025 0.74371 0.57024 0.0
H235 H 0.52629 0.85543 0.56101 0.0
H236 H 0.51426 0.8867 0.49035 0.0
H237 H 0.33435 0.69962 0.46302 0.0
H238 H 0.26745 0.69232 0.45667 0.0
H239 H 0.29009 0.68541 0.50891 0.0
H240 H 0.27039 0.75967 0.53688 0.0
H241 H 0.25193 0.77191 0.48447 0.0
H242 H 0.30617 0.82805 0.51492 0.0
H243 H 0.4859 0.89469 0.41732 0.0
H244 H 0.4428 0.87568 0.34544 0.0
H245 H 0.28501 0.76195 0.40153 0.0
C246 C 0.38597 0.77551 0.55358 0.0
C247 C 0.43911 0.79734 0.57089 0.0
C248 C 0.48525 0.83798 0.54799 0.0
C249 C 0.47876 0.85644 0.50808 0.0
C250 C 0.42586 0.83368 0.4915 0.0
C251 C 0.38028 0.79373 0.5133 0.0
C252 C 0.32898 0.77096 0.48607 0.0
C253 C 0.3038 0.70841 0.47819 0.0
C254 C 0.28687 0.78347 0.50673 0.0
C255 C 0.3531 0.80355 0.44523 0.0
C256 C 0.40902 0.83994 0.44922 0.0
C257 C 0.44186 0.86811 0.41404 0.0
C258 C 0.41722 0.85743 0.37343 0.0
C259 C 0.36046 0.81988 0.36875 0.0
C260 C 0.3279 0.79352 0.40505 0.0
H261 H 0.6177 0.38713 0.92054 0.0
H262 H 0.68449 0.56076 0.89341 0.0
H263 H 0.63089 0.53646 0.82624 0.0
H264 H 0.63216 0.35072 0.81748 0.0
H265 H 0.57061 0.28356 0.81776 0.0
H266 H 0.60479 0.31489 0.86739 0.0
H267 H 0.51374 0.30255 0.8963 0.0
H268 H 0.47889 0.2748 0.84587 0.0
H269 H 0.48102 0.33482 0.86947 0.0
H270 H 0.5865 0.49591 0.75728 0.0
H271 H 0.5602 0.44251 0.68958 0.0
H272 H 0.52003 0.29405 0.75919 0.0
C273 C 0.62006 0.41975 0.90062 0.0
C274 C 0.65496 0.47575 0.91181 0.0
C275 C 0.65824 0.51767 0.88494 0.0
C276 C 0.6275 0.50419 0.84702 0.0
C277 C 0.59417 0.44855 0.83622 0.0
C278 C 0.59061 0.40692 0.86202 0.0
C279 C 0.55847 0.35107 0.84006 0.0
C280 C 0.59362 0.3235 0.83537 0.0
C281 C 0.5048 0.31356 0.86433 0.0
C282 C 0.54725 0.3682 0.79693 0.0
C283 C 0.56679 0.4245 0.79594 0.0
C284 C 0.56904 0.45155 0.75795 0.0
C285 C 0.55361 0.42094 0.71965 0.0
C286 C 0.53564 0.36399 0.71975 0.0
C287 C 0.53055 0.33692 0.75892 0.0
H288 H 0.41374 0.50636 0.12211 0.0
H289 H 0.36661 0.43709 0.99373 0.0
H290 H 0.46347 0.48199 0.97279 0.0
H291 H 0.52703 0.6343 0.09627 0.0
H292 H 0.57155 0.63715 0.13886 0.0
H293 H 0.49802 0.59822 0.14584 0.0
H294 H 0.50043 0.50891 0.16224 0.0
H295 H 0.57417 0.54859 0.15803 0.0
H296 H 0.53568 0.48709 0.12573 0.0
H297 H 0.56308 0.54596 0.96211 0.0
H298 H 0.66239 0.58668 0.97009 0.0
H299 H 0.64862 0.60681 0.10695 0.0
C300 C 0.42397 0.49883 0.09016 0.0
C301 C 0.38233 0.46854 0.05943 0.0
C302 C 0.39737 0.45966 0.01794 0.0
C303 C 0.45246 0.48625 0.00536 0.0
C304 C 0.49211 0.52011 0.03512 0.0
C305 C 0.47908 0.52366 0.07737 0.0
C306 C 0.53058 0.5585 0.10377 0.0
C307 C 0.53182 0.6101 0.12227 0.0
C308 C 0.53553 0.5237 0.13953 0.0
C309 C 0.57435 0.57407 0.06951 0.0
C310 C 0.55079 0.55348 0.02982 0.0
C311 C 0.58217 0.56186 0.99308 0.0
C312 C 0.63907 0.5867 -0.00223 0.0
C313 C 0.6634 0.60036 0.03912 0.0
C314 C 0.6312 0.59783 0.07492 0.0
H315 H 0.12591 0.57956 0.28912 0.0
H316 H 0.15777 0.65735 0.41476 0.0
H317 H 0.10233 0.56513 0.44823 0.0
H318 H 0.98783 0.48391 0.30933 0.0
H319 H 0.98548 0.42854 0.27767 0.0
H320 H 0.03383 0.49919 0.26454 0.0
H321 H 0.11357 0.47963 0.27063 0.0
H322 H 0.06584 0.40876 0.28441 0.0
H323 H 0.12275 0.45125 0.31958 0.0
H324 H 0.04086 0.4658 0.46744 0.0
H325 H 0.95897 0.37261 0.47002 0.0
H326 H 0.96405 0.35893 0.33162 0.0
C327 C 0.12127 0.57695 0.32372 0.0
C328 C 0.14589 0.62525 0.34954 0.0
C329 C 0.13853 0.62073 0.39454 0.0
C330 C 0.1081 0.56851 0.41376 0.0
C331 C 0.0853 0.52143 0.38746 0.0
C332 C 0.09045 0.52531 0.34328 0.0
C333 C 0.05568 0.46934 0.32181 0.0
C334 C 0.01314 0.47025 0.29154 0.0
C335 C 0.09165 0.4512 0.2977 0.0
C336 C 0.02867 0.43342 0.36081 0.0
C337 C 0.04797 0.464 0.39841 0.0
C338 C 0.02585 0.44135 0.43831 0.0
C339 C 0.97976 0.38792 0.43957 0.0
C340 C 0.95538 0.35836 0.4011 0.0
C341 C 0.9827 0.37977 0.36162 0.0
H342 H 0.45931 0.09205 0.72261 0.0
H343 H 0.61889 0.1954 0.66332 0.0
H344 H 0.64606 0.12791 0.68186 0.0
H345 H 0.51026 0.03712 0.81058 0.0
H346 H 0.44939 0.96967 0.80701 0.0
H347 H 0.44547 0.03053 0.79568 0.0
H348 H 0.40349 0.99042 0.72075 0.0
H349 H 0.40663 0.92948 0.73215 0.0
H350 H 0.43956 0.96907 0.68469 0.0
H351 H 0.65048 0.04237 0.69493 0.0
H352 H 0.62885 0.94541 0.70033 0.0
H353 H 0.47051 0.90124 0.75598 0.0
C354 C 0.50043 0.10116 0.71453 0.0
C355 C 0.53661 0.14916 0.69149 0.0
C356 C 0.59 0.15905 0.68103 0.0
C357 C 0.60625 0.12107 0.69169 0.0
C358 C 0.56928 0.07365 0.7136 0.0
C359 C 0.51767 0.06385 0.72536 0.0
C360 C 0.48372 0.00717 0.74476 0.0
C361 C 0.47151 0.0114 0.79234 0.0
C362 C 0.43026 0.97199 0.71904 0.0
C363 C 0.52313 0.98569 0.73978 0.0
C364 C 0.57263 0.02477 0.72232 0.0
C365 C 0.61225 0.01163 0.70942 0.0
C366 C 0.59959 0.95637 0.71233 0.0
C367 C 0.54754 0.91514 0.72745 0.0
C368 C 0.51082 0.93129 0.74409 0.0
H369 H 0.54103 0.58086 0.5808 0.0
H370 H 0.40927 0.60205 0.63154 0.0
H371 H 0.34615 0.50148 0.62791 0.0
H372 H 0.45288 0.45694 0.50976 0.0
H373 H 0.49353 0.42602 0.5229 0.0
H374 H 0.52519 0.50021 0.52113 0.0
H375 H 0.56059 0.50693 0.59874 0.0
H376 H 0.52846 0.43306 0.60161 0.0
H377 H 0.51203 0.47003 0.64097 0.0
H378 H 0.30134 0.39777 0.63005 0.0
H379 H 0.28156 0.3019 0.64013 0.0
H380 H 0.44128 0.34827 0.58655 0.0
C381 C 0.4984 0.56459 0.58956 0.0
C382 C 0.48026 0.59966 0.6061 0.0
C383 C 0.42436 0.57629 0.61851 0.0
C384 C 0.38791 0.51904 0.61636 0.0
C385 C 0.40752 0.4854 0.60117 0.0
C386 C 0.46141 0.50742 0.58761 0.0
C387 C 0.47428 0.46219 0.57798 0.0
C388 C 0.48722 0.4613 0.53008 0.0
C389 C 0.52163 0.4684 0.60651 0.0
C390 C 0.42011 0.41161 0.58992 0.0
C391 C 0.38164 0.42554 0.60249 0.0
C392 C 0.33064 0.38615 0.61925 0.0
C393 C 0.31955 0.33165 0.62468 0.0
C394 C 0.35962 0.31741 0.61387 0.0
C395 C 0.40945 0.35761 0.59467 0.0
H396 H 0.11612 0.47646 0.94592 0.0
H397 H 0.98727 0.30946 0.97627 0.0
H398 H 0.91734 0.33538 0.96255 0.0
H399 H 0.06246 0.54482 -0.00428 0.0
H400 H 0.079 0.59813 0.95659 0.0
H401 H 0.11987 0.56585 0.95966 0.0
H402 H 0.10377 0.53689 0.88065 0.0
H403 H 0.06443 0.57096 0.87512 0.0
H404 H 0.03462 0.4993 0.85989 0.0
H405 H 0.86298 0.3828 0.95799 0.0
H406 H 0.82766 0.44722 0.95825 0.0
H407 H 0.99059 0.58242 0.92686 0.0
C408 C 0.07314 0.44492 0.94846 0.0
C409 C 0.05725 0.39086 0.96202 0.0
C410 C 0.00056 0.35097 0.96547 0.0
C411 C 0.96043 0.36529 0.95775 0.0
C412 C 0.9775 0.41929 0.94559 0.0
C413 C 0.03244 0.45823 0.94005 0.0
C414 C 0.03989 0.51426 0.92947 0.0
C415 C 0.07742 0.55833 0.96242 0.0
C416 C 0.06197 0.53135 0.88354 0.0
C417 C 0.98108 0.50162 0.93287 0.0
C418 C 0.9456 0.44637 0.94152 0.0
C419 C 0.89008 0.42582 0.95007 0.0
C420 C 0.87044 0.46281 0.9503 0.0
C421 C 0.90622 0.51974 0.94198 0.0
C422 C 0.96197 0.53895 0.93224 0.0
H423 H 0.37219 0.92856 0.25932 0.0
H424 H 0.32812 0.03977 0.32157 0.0
H425 H 0.42495 0.11543 0.31654 0.0
H426 H 0.49039 0.9714 0.31541 0.0
H427 H 0.52848 0.96384 0.27192 0.0
H428 H 0.45478 0.9225 0.27253 0.0
H429 H 0.45074 0.95891 0.19711 0.0
H430 H 0.52472 0.00051 0.19637 0.0
H431 H 0.4837 0.03236 0.18842 0.0
H432 H 0.5293 0.17526 0.31378 0.0
H433 H 0.62951 0.2121 0.31458 0.0
H434 H 0.604 0.05949 0.25727 0.0
C435 C 0.38218 0.96922 0.2706 0.0
C436 C 0.34201 0.97808 0.29049 0.0
C437 C 0.35771 0.03188 0.30566 0.0
C438 C 0.41276 0.07518 0.30298 0.0
C439 C 0.45161 0.06422 0.28474 0.0
C440 C 0.43675 0.01253 0.26848 0.0
C441 C 0.48666 0.00915 0.25505 0.0
C442 C 0.49026 0.96406 0.28024 0.0
C443 C 0.48643 0.99969 0.20633 0.0
C444 C 0.53226 0.06633 0.26773 0.0
C445 C 0.51136 0.09795 0.28409 0.0
C446 C 0.54588 0.15092 0.30057 0.0
C447 C 0.60284 0.17138 0.30125 0.0
C448 C 0.62487 0.13859 0.28651 0.0
C449 C 0.58888 0.08602 0.26839 0.0
H450 H 0.30276 0.1622 0.81427 0.0
H451 H 0.42587 0.32563 0.77245 0.0
H452 H 0.40401 0.36664 0.8347 0.0
H453 H 0.20576 0.19507 0.83698 0.0
H454 H 0.17632 0.15063 0.8828 0.0
H455 H 0.21075 0.13376 0.84201 0.0
H456 H 0.27628 0.13146 0.89897 0.0
H457 H 0.24143 0.14749 0.94029 0.0
H458 H 0.3148 0.19035 0.93382 0.0
H459 H 0.3579 0.38981 0.8968 0.0
H460 H 0.29264 0.39148 0.94919 0.0
H461 H 0.19629 0.21335 0.94577 0.0
C462 C 0.32704 0.20647 0.81944 0.0
C463 C 0.36761 0.24054 0.78936 0.0
C464 C 0.39665 0.2985 0.79611 0.0
C465 C 0.38377 0.32217 0.83115 0.0
C466 C 0.3419 0.28732 0.85932 0.0
C467 C 0.31436 0.23052 0.85389 0.0
C468 C 0.26627 0.20214 0.88461 0.0
C469 C 0.21159 0.16846 0.86012 0.0
C470 C 0.27525 0.16571 0.91631 0.0
C471 C 0.2695 0.2517 0.90717 0.0
C472 C 0.31395 0.30051 0.89297 0.0
C473 C 0.32327 0.35157 0.90813 0.0
C474 C 0.28573 0.35247 0.93775 0.0
C475 C 0.23878 0.30319 0.9513 0.0
C476 C 0.23167 0.25218 0.93626 0.0
H477 H 0.87614 0.26574 0.21924 0.0
H478 H 0.9424 0.2104 0.31937 0.0
H479 H 0.03534 0.26492 0.28765 0.0
H480 H 0.94486 0.24754 0.1379 0.0
H481 H 0.9546 0.30571 0.10669 0.0
H482 H 0.89869 0.27368 0.14409 0.0
H483 H 0.93562 0.37056 0.18232 0.0
H484 H 0.9898 0.39961 0.14301 0.0
H485 H 0.00616 0.40842 0.19963 0.0
H486 H 0.11384 0.3044 0.2354 0.0
H487 H 0.17105 0.32902 0.16948 0.0
H488 H 0.05559 0.36164 0.10398 0.0
C489 C 0.91095 0.26775 0.23559 0.0
C490 C 0.90289 0.23539 0.27223 0.0
C491 C 0.94841 0.23629 0.29186 0.0
C492 C 0.00125 0.26706 0.27398 0.0
C493 C 0.00773 0.29668 0.23644 0.0
C494 C 0.96383 0.29795 0.21785 0.0
C495 C 0.97936 0.32543 0.17432 0.0
C496 C 0.94221 0.28577 0.13867 0.0
C497 C 0.97772 0.37929 0.17486 0.0
C498 C 0.03774 0.3369 0.1702 0.0
C499 C 0.05381 0.32072 0.20659 0.0
C500 C 0.10264 0.31924 0.20745 0.0
C501 C 0.13496 0.33328 0.16999 0.0
C502 C 0.11843 0.34895 0.13248 0.0
C503 C 0.07012 0.35214 0.13305 0.0
H504 H 0.648 0.84304 0.51467 0.0
H505 H 0.6319 0.91709 0.63183 0.0
H506 H 0.65704 0.00366 0.5921 0.0
H507 H 0.76343 0.95494 0.47612 0.0
H508 H 0.74351 0.94296 0.42036 0.0
H509 H 0.71661 0.88588 0.45692 0.0
H510 H 0.61649 0.85864 0.43713 0.0
H511 H 0.64339 0.91471 0.39938 0.0
H512 H 0.59613 0.90997 0.44053 0.0
H513 H 0.69594 0.08703 0.53728 0.0
H514 H 0.73476 0.15135 0.47539 0.0
H515 H 0.72448 0.01732 0.39759 0.0
C516 C 0.64838 0.87701 0.53181 0.0
C517 C 0.63798 0.87369 0.57628 0.0
C518 C 0.63917 0.91892 0.59767 0.0
C519 C 0.65374 0.96819 0.57527 0.0
C520 C 0.66615 0.97087 0.5314 0.0
C521 C 0.66227 0.92559 0.50999 0.0
C522 C 0.67978 0.93827 0.46367 0.0
C523 C 0.72873 0.93004 0.45373 0.0
C524 C 0.63105 0.90333 0.43341 0.0
C525 C 0.69645 0.99849 0.46231 0.0
C526 C 0.688 0.01708 0.5012 0.0
C527 C 0.70214 0.07237 0.5067 0.0
C528 C 0.72461 0.10882 0.47146 0.0
C529 C 0.73321 0.08992 0.43137 0.0
C530 C 0.71887 0.0339 0.42746 0.0
H531 H 0.69831 0.71421 0.71768 0.0
H532 H 0.58671 0.738 0.7993 0.0
H533 H 0.62276 0.71288 0.86281 0.0
H534 H 0.68913 0.59843 0.7719 0.0
H535 H 0.76076 0.62067 0.76448 0.0
H536 H 0.72531 0.63872 0.72568 0.0
H537 H 0.79615 0.74258 0.73444 0.0
H538 H 0.83375 0.7258 0.77191 0.0
H539 H 0.81142 0.7734 0.78733 0.0
H540 H 0.67891 0.69051 0.91852 0.0
H541 H 0.74813 0.67708 0.95764 0.0
H542 H 0.81767 0.66651 0.83641 0.0
C543 C 0.6809 0.71429 0.74872 0.0
C544 C 0.63955 0.72845 0.7532 0.0
C545 C 0.61835 0.72738 0.7948 0.0
C546 C 0.63854 0.71298 0.83105 0.0
C547 C 0.67959 0.69938 0.82508 0.0
C548 C 0.70021 0.70005 0.78464 0.0
C549 C 0.74553 0.68636 0.78574 0.0
C550 C 0.72919 0.63286 0.76049 0.0
C551 C 0.7999 0.73492 0.76889 0.0
C552 C 0.74829 0.67851 0.83334 0.0
C553 C 0.70997 0.68575 0.85591 0.0
C554 C 0.70821 0.68385 0.90086 0.0
C555 C 0.7472 0.67559 0.9229 0.0
C556 C 0.78699 0.66915 0.89992 0.0
C557 C 0.78684 0.67009 0.85471 0.0
H558 H 0.06212 0.71632 0.26534 0.0
H559 H 0.15387 0.89001 0.23208 0.0
H560 H 0.1069 0.86907 0.16223 0.0
H561 H 0.06188 0.66859 0.14979 0.0
H562 H 0.99514 0.6084 0.15548 0.0
H563 H 0.04017 0.63517 0.20127 0.0
H564 H 0.9652 0.64242 0.24384 0.0
H565 H 0.91945 0.61696 0.19842 0.0
H566 H 0.93719 0.68258 0.22247 0.0
H567 H 0.04126 0.83381 0.1028 0.0
H568 H 0.97179 0.78245 0.04739 0.0
H569 H 0.92343 0.62925 0.11409 0.0
C570 C 0.07356 0.74934 0.24253 0.0
C571 C 0.11169 0.80483 0.25385 0.0
C572 C 0.125 0.84729 0.22375 0.0
C573 C 0.09832 0.83586 0.18411 0.0
C574 C 0.05878 0.78149 0.17466 0.0
C575 C 0.04747 0.73847 0.20211 0.0
C576 C 0.00253 0.68395 0.18324 0.0
C577 C 0.02627 0.64676 0.17184 0.0
C578 C 0.95318 0.65478 0.21383 0.0
C579 C 0.98776 0.70401 0.14284 0.0
C580 C 0.02137 0.76043 0.13867 0.0
C581 C 0.01537 0.7894 0.10516 0.0
C582 C 0.97538 0.75976 0.07397 0.0
C583 C 0.94155 0.70144 0.07604 0.0
C584 C 0.94743 0.67343 0.11154 0.0
H585 H 0.23237 0.00218 0.61929 0.0
H586 H 0.40947 0.10329 0.61107 0.0
H587 H 0.40986 0.0384 0.55599 0.0
H588 H 0.22514 0.86574 0.60144 0.0
H589 H 0.16169 0.83953 0.57205 0.0
H590 H 0.17769 0.8887 0.61515 0.0
H591 H 0.16502 0.95334 0.56327 0.0
H592 H 0.14899 0.90455 0.52031 0.0
H593 H 0.2043 0.97486 0.51418 0.0
H594 H 0.38646 0.97207 0.49033 0.0
H595 H 0.34311 0.91074 0.42713 0.0
H596 H 0.18281 0.85038 0.48445 0.0
C597 C 0.27165 0.01046 0.60673 0.0
C598 C 0.3209 0.05917 0.61837 0.0
C599 C 0.37113 0.06756 0.60138 0.0
C600 C 0.37166 0.03055 0.57045 0.0
C601 C 0.3217 0.98459 0.55779 0.0
C602 C 0.27279 0.97392 0.57648 0.0
C603 C 0.22397 0.92446 0.55594 0.0
C604 C 0.19545 0.87679 0.58807 0.0
C605 C 0.18325 0.94029 0.53732 0.0
C606 C 0.25235 0.91059 0.52086 0.0
C607 C 0.30886 0.94498 0.52249 0.0
C608 C 0.34247 0.94392 0.48972 0.0
C609 C 0.31755 0.90852 0.45399 0.0
C610 C 0.25957 0.87476 0.45129 0.0
C611 C 0.22726 0.87452 0.48614 0.0
loop_
_geom_bond_atom_site_label_1
_geom_bond_atom_site_label_2
_geom_bond_distance
_geom_bond_site_symmetry_2
_ccdc_geom_bond_type
O0 Mn1 2.163 1_554 S
O0 C14 1.244 . S
Mn1 O0 2.163 1_556 S
Mn1 O4 2.160 . S
Mn1 O5 2.221 . S
Mn1 O7 2.163 1_556 S
Mn1 O9 2.160 . S
Mn1 O19 2.221 1_556 S
O2 Mn3 2.087 . S
O2 C14 1.256 . S
Mn3 O2 2.087 . S
Mn3 O10 2.089 1_554 S
Mn3 O19 2.290 . S
Mn3 O20 2.251 . S
O4 Mn1 2.160 . S
O4 C15 1.239 . S
O5 Mn1 2.221 . S
O5 Mn6 2.290 . S
O5 C16 1.278 . S
Mn6 O5 2.290 . S
Mn6 O8 2.089 . S
Mn6 O11 2.251 . S
Mn6 O12 2.087 1_556 S
O7 Mn1 2.163 1_554 S
O7 C17 1.244 . S
O8 Mn6 2.089 . S
O8 C15 1.256 . S
O9 Mn1 2.160 . S
O9 C18 1.239 . S
O10 Mn3 2.089 1_556 S
O10 C18 1.256 . S
O11 Mn6 2.251 . S
O11 C16 1.241 . S
O12 Mn6 2.087 1_554 S
O12 C17 1.256 . S
C13 O19 1.278 . S
C13 O20 1.241 . S
C14 O0 1.244 . S
C14 O2 1.256 . S
C15 O4 1.239 . S
C15 O8 1.256 . S
C16 O5 1.278 . S
C16 O11 1.241 . S
C17 O7 1.244 . S
C17 O12 1.256 . S
C18 O9 1.239 . S
C18 O10 1.256 . S
O19 Mn1 2.221 1_554 S
O19 Mn3 2.290 . S
O19 C13 1.278 . S
O20 Mn3 2.251 . S
O20 C13 1.241 . S
O21 Mn22 2.163 . S
O21 C35 1.244 . S
Mn22 O21 2.163 . S
Mn22 O25 2.160 . S
Mn22 O26 2.221 . S
Mn22 O28 2.163 . S
Mn22 O30 2.160 . S
Mn22 O40 2.221 . S
O23 Mn24 2.087 . S
O23 C35 1.256 . S
Mn24 O23 2.087 . S
Mn24 O31 2.089 . S
Mn24 O40 2.290 . S
Mn24 O41 2.251 . S
O25 Mn22 2.160 . S
O25 C36 1.239 . S
O26 Mn22 2.221 . S
O26 Mn27 2.290 . S
O26 C37 1.278 . S
Mn27 O26 2.290 . S
Mn27 O29 2.089 . S
Mn27 O32 2.251 . S
Mn27 O33 2.087 . S
O28 Mn22 2.163 . S
O28 C38 1.244 . S
O29 Mn27 2.089 . S
O29 C36 1.256 . S
O30 Mn22 2.160 . S
O30 C39 1.239 . S
O31 Mn24 2.089 . S
O31 C39 1.256 . S
O32 Mn27 2.251 . S
O32 C37 1.241 . S
O33 Mn27 2.087 . S
O33 C38 1.256 . S
C34 O40 1.278 . S
C34 O41 1.241 . S
C35 O21 1.244 . S
C35 O23 1.256 . S
C36 O25 1.239 . S
C36 O29 1.256 . S
C37 O26 1.278 . S
C37 O32 1.241 . S
C38 O28 1.244 . S
C38 O33 1.256 . S
C39 O30 1.239 . S
C39 O31 1.256 . S
O40 Mn22 2.221 . S
O40 Mn24 2.290 . S
O40 C34 1.278 . S
O41 Mn24 2.251 . S
O41 C34 1.241 . S
O42 Mn43 2.163 . S
O42 C56 1.244 . S
Mn43 O42 2.163 . S
Mn43 O46 2.160 . S
Mn43 O47 2.221 . S
Mn43 O49 2.163 . S
Mn43 O51 2.160 . S
Mn43 O61 2.221 . S
O44 Mn45 2.087 . S
O44 C56 1.256 . S
Mn45 O44 2.087 . S
Mn45 O52 2.089 . S
Mn45 O61 2.290 . S
Mn45 O62 2.251 . S
O46 Mn43 2.160 . S
O46 C57 1.239 . S
O47 Mn43 2.221 . S
O47 Mn48 2.290 . S
O47 C58 1.278 . S
Mn48 O47 2.290 . S
Mn48 O50 2.089 . S
Mn48 O53 2.251 . S
Mn48 O54 2.087 . S
O49 Mn43 2.163 . S
O49 C59 1.244 . S
O50 Mn48 2.089 . S
O50 C57 1.256 . S
O51 Mn43 2.160 . S
O51 C60 1.239 . S
O52 Mn45 2.089 . S
O52 C60 1.256 . S
O53 Mn48 2.251 . S
O53 C58 1.241 . S
O54 Mn48 2.087 . S
O54 C59 1.256 . S
C55 O61 1.278 . S
C55 O62 1.241 . S
C56 O42 1.244 . S
C56 O44 1.256 . S
C57 O46 1.239 . S
C57 O50 1.256 . S
C58 O47 1.278 . S
C58 O53 1.241 . S
C59 O49 1.244 . S
C59 O54 1.256 . S
C60 O51 1.239 . S
C60 O52 1.256 . S
O61 Mn43 2.221 . S
O61 Mn45 2.290 . S
O61 C55 1.278 . S
O62 Mn45 2.251 . S
O62 C55 1.241 . S
O63 Mn64 2.163 1_554 S
O63 C77 1.244 . S
Mn64 O63 2.163 1_556 S
Mn64 O67 2.160 . S
Mn64 O68 2.221 . S
Mn64 O70 2.163 1_556 S
Mn64 O72 2.160 . S
Mn64 O82 2.221 1_556 S
O65 Mn66 2.087 . S
O65 C77 1.256 . S
Mn66 O65 2.087 . S
Mn66 O73 2.089 1_554 S
Mn66 O82 2.290 . S
Mn66 O83 2.251 . S
O67 Mn64 2.160 . S
O67 C78 1.239 . S
O68 Mn64 2.221 . S
O68 Mn69 2.290 . S
O68 C79 1.278 . S
Mn69 O68 2.290 . S
Mn69 O71 2.089 . S
Mn69 O74 2.251 . S
Mn69 O75 2.087 1_556 S
O70 Mn64 2.163 1_554 S
O70 C80 1.244 . S
O71 Mn69 2.089 . S
O71 C78 1.256 . S
O72 Mn64 2.160 . S
O72 C81 1.239 . S
O73 Mn66 2.089 1_556 S
O73 C81 1.256 . S
O74 Mn69 2.251 . S
O74 C79 1.241 . S
O75 Mn69 2.087 1_554 S
O75 C80 1.256 . S
C76 O82 1.278 . S
C76 O83 1.241 . S
C77 O63 1.244 . S
C77 O65 1.256 . S
C78 O67 1.239 . S
C78 O71 1.256 . S
C79 O68 1.278 . S
C79 O74 1.241 . S
C80 O70 1.244 . S
C80 O75 1.256 . S
C81 O72 1.239 . S
C81 O73 1.256 . S
O82 Mn64 2.221 1_554 S
O82 Mn66 2.290 . S
O82 C76 1.278 . S
O83 Mn66 2.251 . S
O83 C76 1.241 . S
O84 Mn85 2.163 . S
O84 C98 1.244 . S
Mn85 O84 2.163 . S
Mn85 O88 2.160 . S
Mn85 O89 2.221 . S
Mn85 O91 2.163 . S
Mn85 O93 2.160 . S
Mn85 O103 2.221 . S
O86 Mn87 2.087 . S
O86 C98 1.256 . S
Mn87 O86 2.087 . S
Mn87 O94 2.089 . S
Mn87 O103 2.290 . S
Mn87 O104 2.251 . S
O88 Mn85 2.160 . S
O88 C99 1.239 . S
O89 Mn85 2.221 . S
O89 Mn90 2.290 . S
O89 C100 1.278 . S
Mn90 O89 2.290 . S
Mn90 O92 2.089 . S
Mn90 O95 2.251 . S
Mn90 O96 2.087 . S
O91 Mn85 2.163 . S
O91 C101 1.244 . S
O92 Mn90 2.089 . S
O92 C99 1.256 . S
O93 Mn85 2.160 . S
O93 C102 1.239 . S
O94 Mn87 2.089 . S
O94 C102 1.256 . S
O95 Mn90 2.251 . S
O95 C100 1.241 . S
O96 Mn90 2.087 . S
O96 C101 1.256 . S
C97 O103 1.278 . S
C97 O104 1.241 . S
C98 O84 1.244 . S
C98 O86 1.256 . S
C99 O88 1.239 . S
C99 O92 1.256 . S
C100 O89 1.278 . S
C100 O95 1.241 . S
C101 O91 1.244 . S
C101 O96 1.256 . S
C102 O93 1.239 . S
C102 O94 1.256 . S
O103 Mn85 2.221 . S
O103 Mn87 2.290 . S
O103 C97 1.278 . S
O104 Mn87 2.251 . S
O104 C97 1.241 . S
O105 Mn106 2.163 . S
O105 C119 1.244 . S
Mn106 O105 2.163 . S
Mn106 O109 2.160 . S
Mn106 O110 2.221 . S
Mn106 O112 2.163 . S
Mn106 O114 2.160 . S
Mn106 O124 2.221 . S
O107 Mn108 2.087 . S
O107 C119 1.256 . S
Mn108 O107 2.087 . S
Mn108 O115 2.089 . S
Mn108 O124 2.290 . S
Mn108 O125 2.251 . S
O109 Mn106 2.160 . S
O109 C120 1.239 . S
O110 Mn106 2.221 . S
O110 Mn111 2.290 . S
O110 C121 1.278 . S
Mn111 O110 2.290 . S
Mn111 O113 2.089 . S
Mn111 O116 2.251 . S
Mn111 O117 2.087 . S
O112 Mn106 2.163 . S
O112 C122 1.244 . S
O113 Mn111 2.089 . S
O113 C120 1.256 . S
O114 Mn106 2.160 . S
O114 C123 1.239 . S
O115 Mn108 2.089 . S
O115 C123 1.256 . S
O116 Mn111 2.251 . S
O116 C121 1.241 . S
O117 Mn111 2.087 . S
O117 C122 1.256 . S
C118 O124 1.278 . S
C118 O125 1.241 . S
C119 O105 1.244 . S
C119 O107 1.256 . S
C120 O109 1.239 . S
C120 O113 1.256 . S
C121 O110 1.278 . S
C121 O116 1.241 . S
C122 O112 1.244 . S
C122 O117 1.256 . S
C123 O114 1.239 . S
C123 O115 1.256 . S
O124 Mn106 2.221 . S
O124 Mn108 2.290 . S
O124 C118 1.278 . S
O125 Mn108 2.251 . S
O125 C118 1.241 . S
H126 C138 0.930 . S
H127 C140 0.930 . S
H128 C141 0.930 . S
H129 C145 0.959 . S
H130 C145 0.959 . S
H131 C145 0.961 . S
H132 C146 0.960 . S
H133 C146 0.961 . S
H134 C146 0.959 . S
H135 C149 0.929 . S
H136 C150 0.931 . S
H137 C152 0.930 . S
C138 H126 0.930 . S
C138 C139 1.399 . S
C138 C143 1.399 . S
C139 C138 1.399 . S
C139 C140 1.376 . S
C140 H127 0.930 . S
C140 C139 1.376 . S
C140 C141 1.388 . S
C141 H128 0.930 . S
C141 C140 1.388 . S
C141 C142 1.390 . S
C142 C141 1.390 . S
C142 C143 1.394 . S
C142 C148 1.465 . S
C143 C138 1.399 . S
C143 C142 1.394 . S
C143 C144 1.516 . S
C144 C143 1.516 . S
C144 C145 1.502 . S
C144 C146 1.561 . S
C144 C147 1.526 . S
C145 H129 0.959 . S
C145 H130 0.959 . S
C145 H131 0.961 . S
C145 C144 1.502 . S
C146 H132 0.960 . S
C146 H133 0.961 . S
C146 H134 0.959 . S
C146 C144 1.561 . S
C147 C144 1.526 . S
C147 C148 1.396 . S
C147 C152 1.390 . S
C148 C142 1.465 . S
C148 C147 1.396 . S
C148 C149 1.399 . S
C149 H135 0.929 . S
C149 C148 1.399 . S
C149 C150 1.385 . S
C150 H136 0.931 . S
C150 C149 1.385 . S
C150 C151 1.389 . S
C151 C150 1.389 . S
C151 C152 1.387 . S
C152 H137 0.930 . S
C152 C147 1.390 . S
C152 C151 1.387 . S
H153 C165 0.930 . S
H154 C167 0.930 . S
H155 C168 0.930 . S
H156 C172 0.959 . S
H157 C172 0.959 . S
H158 C172 0.961 . S
H159 C173 0.960 . S
H160 C173 0.961 . S
H161 C173 0.959 . S
H162 C176 0.929 . S
H163 C177 0.931 . S
H164 C179 0.930 . S
C165 H153 0.930 . S
C165 C166 1.399 . S
C165 C170 1.399 . S
C166 C165 1.399 . S
C166 C167 1.376 . S
C167 H154 0.930 . S
C167 C166 1.376 . S
C167 C168 1.388 . S
C168 H155 0.930 . S
C168 C167 1.388 . S
C168 C169 1.390 . S
C169 C168 1.390 . S
C169 C170 1.394 . S
C169 C175 1.465 . S
C170 C165 1.399 . S
C170 C169 1.394 . S
C170 C171 1.516 . S
C171 C170 1.516 . S
C171 C172 1.502 . S
C171 C173 1.561 . S
C171 C174 1.526 . S
C172 H156 0.959 . S
C172 H157 0.959 . S
C172 H158 0.961 . S
C172 C171 1.502 . S
C173 H159 0.960 . S
C173 H160 0.961 . S
C173 H161 0.959 . S
C173 C171 1.561 . S
C174 C171 1.526 . S
C174 C175 1.396 . S
C174 C179 1.390 . S
C175 C169 1.465 . S
C175 C174 1.396 . S
C175 C176 1.399 . S
C176 H162 0.929 . S
C176 C175 1.399 . S
C176 C177 1.385 . S
C177 H163 0.931 . S
C177 C176 1.385 . S
C177 C178 1.389 . S
C178 C177 1.389 . S
C178 C179 1.387 . S
C179 H164 0.930 . S
C179 C174 1.390 . S
C179 C178 1.387 . S
H180 C192 0.930 . S
H181 C194 0.930 . S
H182 C195 0.930 . S
H183 C199 0.959 . S
H184 C199 0.959 . S
H185 C199 0.961 . S
H186 C200 0.960 . S
H187 C200 0.961 . S
H188 C200 0.959 . S
H189 C203 0.929 . S
H190 C204 0.931 . S
H191 C206 0.930 . S
C192 H180 0.930 . S
C192 C193 1.399 . S
C192 C197 1.399 . S
C193 C192 1.399 . S
C193 C194 1.376 . S
C194 H181 0.930 . S
C194 C193 1.376 . S
C194 C195 1.388 . S
C195 H182 0.930 . S
C195 C194 1.388 . S
C195 C196 1.390 . S
C196 C195 1.390 . S
C196 C197 1.394 . S
C196 C202 1.465 . S
C197 C192 1.399 . S
C197 C196 1.394 . S
C197 C198 1.516 . S
C198 C197 1.516 . S
C198 C199 1.502 . S
C198 C200 1.561 . S
C198 C201 1.526 . S
C199 H183 0.959 . S
C199 H184 0.959 . S
C199 H185 0.961 . S
C199 C198 1.502 . S
C200 H186 0.960 . S
C200 H187 0.961 . S
C200 H188 0.959 . S
C200 C198 1.561 . S
C201 C198 1.526 . S
C201 C202 1.396 . S
C201 C206 1.390 . S
C202 C196 1.465 . S
C202 C201 1.396 . S
C202 C203 1.399 . S
C203 H189 0.929 . S
C203 C202 1.399 . S
C203 C204 1.385 . S
C204 H190 0.931 . S
C204 C203 1.385 . S
C204 C205 1.389 . S
C205 C204 1.389 . S
C205 C206 1.387 . S
C206 H191 0.930 . S
C206 C201 1.390 . S
C206 C205 1.387 . S
H207 C219 0.930 . S
H208 C221 0.930 . S
H209 C222 0.930 . S
H210 C226 0.959 . S
H211 C226 0.959 . S
H212 C226 0.961 . S
H213 C227 0.960 . S
H214 C227 0.961 . S
H215 C227 0.959 . S
H216 C230 0.929 . S
H217 C231 0.931 . S
H218 C233 0.930 . S
C219 H207 0.930 . S
C219 C220 1.399 . S
C219 C224 1.399 . S
C220 C219 1.399 . S
C220 C221 1.376 . S
C221 H208 0.930 . S
C221 C220 1.376 . S
C221 C222 1.388 . S
C222 H209 0.930 . S
C222 C221 1.388 . S
C222 C223 1.390 . S
C223 C222 1.390 . S
C223 C224 1.394 . S
C223 C229 1.465 . S
C224 C219 1.399 . S
C224 C223 1.394 . S
C224 C225 1.516 . S
C225 C224 1.516 . S
C225 C226 1.502 . S
C225 C227 1.561 . S
C225 C228 1.526 . S
C226 H210 0.959 . S
C226 H211 0.959 . S
C226 H212 0.961 . S
C226 C225 1.502 . S
C227 H213 0.960 . S
C227 H214 0.961 . S
C227 H215 0.959 . S
C227 C225 1.561 . S
C228 C225 1.526 . S
C228 C229 1.396 . S
C228 C233 1.390 . S
C229 C223 1.465 . S
C229 C228 1.396 . S
C229 C230 1.399 . S
C230 H216 0.929 . S
C230 C229 1.399 . S
C230 C231 1.385 . S
C231 H217 0.931 . S
C231 C230 1.385 . S
C231 C232 1.389 . S
C232 C231 1.389 . S
C232 C233 1.387 . S
C233 H218 0.930 . S
C233 C228 1.390 . S
C233 C232 1.387 . S
H234 C246 0.930 . S
H235 C248 0.930 . S
H236 C249 0.930 . S
H237 C253 0.959 . S
H238 C253 0.959 . S
H239 C253 0.961 . S
H240 C254 0.960 . S
H241 C254 0.961 . S
H242 C254 0.959 . S
H243 C257 0.929 . S
H244 C258 0.931 . S
H245 C260 0.930 . S
C246 H234 0.930 . S
C246 C247 1.399 . S
C246 C251 1.399 . S
C247 C246 1.399 . S
C247 C248 1.376 . S
C248 H235 0.930 . S
C248 C247 1.376 . S
C248 C249 1.388 . S
C249 H236 0.930 . S
C249 C248 1.388 . S
C249 C250 1.390 . S
C250 C249 1.390 . S
C250 C251 1.394 . S
C250 C256 1.465 . S
C251 C246 1.399 . S
C251 C250 1.394 . S
C251 C252 1.516 . S
C252 C251 1.516 . S
C252 C253 1.502 . S
C252 C254 1.561 . S
C252 C255 1.526 . S
C253 H237 0.959 . S
C253 H238 0.959 . S
C253 H239 0.961 . S
C253 C252 1.502 . S
C254 H240 0.960 . S
C254 H241 0.961 . S
C254 H242 0.959 . S
C254 C252 1.561 . S
C255 C252 1.526 . S
C255 C256 1.396 . S
C255 C260 1.390 . S
C256 C250 1.465 . S
C256 C255 1.396 . S
C256 C257 1.399 . S
C257 H243 0.929 . S
C257 C256 1.399 . S
C257 C258 1.385 . S
C258 H244 0.931 . S
C258 C257 1.385 . S
C258 C259 1.389 . S
C259 C258 1.389 . S
C259 C260 1.387 . S
C260 H245 0.930 . S
C260 C255 1.390 . S
C260 C259 1.387 . S
H261 C273 0.930 . S
H262 C275 0.930 . S
H263 C276 0.930 . S
H264 C280 0.959 . S
H265 C280 0.959 . S
H266 C280 0.961 . S
H267 C281 0.960 . S
H268 C281 0.961 . S
H269 C281 0.959 . S
H270 C284 0.929 . S
H271 C285 0.931 . S
H272 C287 0.930 . S
C273 H261 0.930 . S
C273 C274 1.399 . S
C273 C278 1.399 . S
C274 C273 1.399 . S
C274 C275 1.376 . S
C275 H262 0.930 . S
C275 C274 1.376 . S
C275 C276 1.388 . S
C276 H263 0.930 . S
C276 C275 1.388 . S
C276 C277 1.390 . S
C277 C276 1.390 . S
C277 C278 1.394 . S
C277 C283 1.465 . S
C278 C273 1.399 . S
C278 C277 1.394 . S
C278 C279 1.516 . S
C279 C278 1.516 . S
C279 C280 1.502 . S
C279 C281 1.561 . S
C279 C282 1.526 . S
C280 H264 0.959 . S
C280 H265 0.959 . S
C280 H266 0.961 . S
C280 C279 1.502 . S
C281 H267 0.960 . S
C281 H268 0.961 . S
C281 H269 0.959 . S
C281 C279 1.561 . S
C282 C279 1.526 . S
C282 C283 1.396 . S
C282 C287 1.390 . S
C283 C277 1.465 . S
C283 C282 1.396 . S
C283 C284 1.399 . S
C284 H270 0.929 . S
C284 C283 1.399 . S
C284 C285 1.385 . S
C285 H271 0.931 . S
C285 C284 1.385 . S
C285 C286 1.389 . S
C286 C285 1.389 . S
C286 C287 1.387 . S
C287 H272 0.930 . S
C287 C282 1.390 . S
C287 C286 1.387 . S
H288 C300 0.930 . S
H289 C302 0.930 . S
H290 C303 0.930 . S
H291 C307 0.959 . S
H292 C307 0.959 . S
H293 C307 0.961 . S
H294 C308 0.960 . S
H295 C308 0.961 . S
H296 C308 0.959 . S
H297 C311 0.929 . S
H298 C312 0.931 . S
H299 C314 0.930 . S
C300 H288 0.930 . S
C300 C301 1.399 . S
C300 C305 1.399 . S
C301 C300 1.399 . S
C301 C302 1.376 1_554 S
C302 H289 0.930 . S
C302 C301 1.376 1_556 S
C302 C303 1.388 . S
C303 H290 0.930 . S
C303 C302 1.388 . S
C303 C304 1.390 1_556 S
C304 C303 1.390 1_554 S
C304 C305 1.394 . S
C304 C310 1.465 . S
C305 C300 1.399 . S
C305 C304 1.394 . S
C305 C306 1.516 . S
C306 C305 1.516 . S
C306 C307 1.502 . S
C306 C308 1.561 . S
C306 C309 1.526 . S
C307 H291 0.959 . S
C307 H292 0.959 . S
C307 H293 0.961 . S
C307 C306 1.502 . S
C308 H294 0.960 . S
C308 H295 0.961 . S
C308 H296 0.959 . S
C308 C306 1.561 . S
C309 C306 1.526 . S
C309 C310 1.396 . S
C309 C314 1.390 . S
C310 C304 1.465 . S
C310 C309 1.396 . S
C310 C311 1.399 1_554 S
C311 H297 0.929 . S
C311 C310 1.399 1_556 S
C311 C312 1.385 . S
C312 H298 0.931 . S
C312 C311 1.385 . S
C312 C313 1.389 1_556 S
C313 C312 1.389 1_554 S
C313 C314 1.387 . S
C314 H299 0.930 . S
C314 C309 1.390 . S
C314 C313 1.387 . S
H315 C327 0.930 . S
H316 C329 0.930 . S
H317 C330 0.930 . S
H318 C334 0.959 . S
H319 C334 0.959 . S
H320 C334 0.961 . S
H321 C335 0.960 . S
H322 C335 0.961 . S
H323 C335 0.959 1_455 S
H324 C338 0.929 . S
H325 C339 0.931 . S
H326 C341 0.930 . S
C327 H315 0.930 . S
C327 C328 1.399 . S
C327 C332 1.399 . S
C328 C327 1.399 . S
C328 C329 1.376 . S
C329 H316 0.930 . S
C329 C328 1.376 . S
C329 C330 1.388 . S
C330 H317 0.930 . S
C330 C329 1.388 . S
C330 C331 1.390 . S
C331 C330 1.390 . S
C331 C332 1.394 . S
C331 C337 1.465 . S
C332 C327 1.399 . S
C332 C331 1.394 . S
C332 C333 1.516 1_455 S
C333 C332 1.516 1_655 S
C333 C334 1.502 . S
C333 C335 1.561 . S
C333 C336 1.526 . S
C334 H318 0.959 . S
C334 H319 0.959 . S
C334 H320 0.961 . S
C334 C333 1.502 . S
C335 H321 0.960 . S
C335 H322 0.961 . S
C335 H323 0.959 1_655 S
C335 C333 1.561 . S
C336 C333 1.526 . S
C336 C337 1.396 1_655 S
C336 C341 1.390 . S
C337 C331 1.465 . S
C337 C336 1.396 1_455 S
C337 C338 1.399 . S
C338 H324 0.929 . S
C338 C337 1.399 . S
C338 C339 1.385 1_455 S
C339 H325 0.931 . S
C339 C338 1.385 1_655 S
C339 C340 1.389 . S
C340 C339 1.389 . S
C340 C341 1.387 . S
C341 H326 0.930 . S
C341 C336 1.390 . S
C341 C340 1.387 . S
H342 C354 0.930 . S
H343 C356 0.930 . S
H344 C357 0.930 . S
H345 C361 0.959 . S
H346 C361 0.959 . S
H347 C361 0.961 . S
H348 C362 0.960 1_545 S
H349 C362 0.961 . S
H350 C362 0.959 . S
H351 C365 0.929 . S
H352 C366 0.931 . S
H353 C368 0.930 . S
C354 H342 0.930 . S
C354 C355 1.399 . S
C354 C359 1.399 . S
C355 C354 1.399 . S
C355 C356 1.376 . S
C356 H343 0.930 . S
C356 C355 1.376 . S
C356 C357 1.388 1_545 S
C357 H344 0.930 . S
C357 C356 1.388 1_565 S
C357 C358 1.390 . S
C358 C357 1.390 . S
C358 C359 1.394 1_565 S
C358 C364 1.465 . S
C359 C354 1.399 . S
C359 C358 1.394 1_545 S
C359 C360 1.516 . S
C360 C359 1.516 . S
C360 C361 1.502 . S
C360 C362 1.561 1_545 S
C360 C363 1.526 1_545 S
C361 H345 0.959 . S
C361 H346 0.959 . S
C361 H347 0.961 . S
C361 C360 1.502 . S
C362 H348 0.960 1_565 S
C362 H349 0.961 . S
C362 H350 0.959 . S
C362 C360 1.561 1_565 S
C363 C360 1.526 1_565 S
C363 C364 1.396 . S
C363 C368 1.390 . S
C364 C358 1.465 . S
C364 C363 1.396 . S
C364 C365 1.399 . S
C365 H351 0.929 . S
C365 C364 1.399 . S
C365 C366 1.385 . S
C366 H352 0.931 . S
C366 C365 1.385 . S
C366 C367 1.389 . S
C367 C366 1.389 . S
C367 C368 1.387 . S
C368 H353 0.930 . S
C368 C363 1.390 . S
C368 C367 1.387 . S
H369 C381 0.930 . S
H370 C383 0.930 . S
H371 C384 0.930 . S
H372 C388 0.959 . S
H373 C388 0.959 . S
H374 C388 0.961 . S
H375 C389 0.960 . S
H376 C389 0.961 . S
H377 C389 0.959 . S
H378 C392 0.929 . S
H379 C393 0.931 . S
H380 C395 0.930 . S
C381 H369 0.930 . S
C381 C382 1.399 . S
C381 C386 1.399 . S
C382 C381 1.399 . S
C382 C383 1.376 . S
C383 H370 0.930 . S
C383 C382 1.376 . S
C383 C384 1.388 . S
C384 H371 0.930 . S
C384 C383 1.388 . S
C384 C385 1.390 . S
C385 C384 1.390 . S
C385 C386 1.394 . S
C385 C391 1.465 . S
C386 C381 1.399 . S
C386 C385 1.394 . S
C386 C387 1.516 . S
C387 C386 1.516 . S
C387 C388 1.502 . S
C387 C389 1.561 . S
C387 C390 1.526 . S
C388 H372 0.959 . S
C388 H373 0.959 . S
C388 H374 0.961 . S
C388 C387 1.502 . S
C389 H375 0.960 . S
C389 H376 0.961 . S
C389 H377 0.959 . S
C389 C387 1.561 . S
C390 C387 1.526 . S
C390 C391 1.396 . S
C390 C395 1.390 . S
C391 C385 1.465 . S
C391 C390 1.396 . S
C391 C392 1.399 . S
C392 H378 0.929 . S
C392 C391 1.399 . S
C392 C393 1.385 . S
C393 H379 0.931 . S
C393 C392 1.385 . S
C393 C394 1.389 . S
C394 C393 1.389 . S
C394 C395 1.387 . S
C395 H380 0.930 . S
C395 C390 1.390 . S
C395 C394 1.387 . S
H396 C408 0.930 . S
H397 C410 0.930 . S
H398 C411 0.930 . S
H399 C415 0.959 . S
H400 C415 0.959 . S
H401 C415 0.961 . S
H402 C416 0.960 1_455 S
H403 C416 0.961 . S
H404 C416 0.959 . S
H405 C419 0.929 . S
H406 C420 0.931 . S
H407 C422 0.930 . S
C408 H396 0.930 . S
C408 C409 1.399 . S
C408 C413 1.399 . S
C409 C408 1.399 . S
C409 C410 1.376 1_556 S
C410 H397 0.930 . S
C410 C409 1.376 1_554 S
C410 C411 1.388 1_455 S
C411 H398 0.930 . S
C411 C410 1.388 1_655 S
C411 C412 1.390 1_554 S
C412 C411 1.390 1_556 S
C412 C413 1.394 1_655 S
C412 C418 1.465 . S
C413 C408 1.399 . S
C413 C412 1.394 1_455 S
C413 C414 1.516 . S
C414 C413 1.516 . S
C414 C415 1.502 . S
C414 C416 1.561 1_455 S
C414 C417 1.526 1_455 S
C415 H399 0.959 . S
C415 H400 0.959 . S
C415 H401 0.961 . S
C415 C414 1.502 . S
C416 H402 0.960 1_655 S
C416 H403 0.961 . S
C416 H404 0.959 . S
C416 C414 1.561 1_655 S
C417 C414 1.526 1_655 S
C417 C418 1.396 . S
C417 C422 1.390 . S
C418 C412 1.465 . S
C418 C417 1.396 . S
C418 C419 1.399 1_556 S
C419 H405 0.929 . S
C419 C418 1.399 1_554 S
C419 C420 1.385 . S
C420 H406 0.931 . S
C420 C419 1.385 . S
C420 C421 1.389 1_554 S
C421 C420 1.389 1_556 S
C421 C422 1.387 . S
C422 H407 0.930 . S
C422 C417 1.390 . S
C422 C421 1.387 . S
H423 C435 0.930 . S
H424 C437 0.930 . S
H425 C438 0.930 1_545 S
H426 C442 0.959 . S
H427 C442 0.959 . S
H428 C442 0.961 . S
H429 C443 0.960 . S
H430 C443 0.961 . S
H431 C443 0.959 . S
H432 C446 0.929 . S
H433 C447 0.931 . S
H434 C449 0.930 . S
C435 H423 0.930 . S
C435 C436 1.399 . S
C435 C440 1.399 . S
C436 C435 1.399 . S
C436 C437 1.376 . S
C437 H424 0.930 . S
C437 C436 1.376 . S
C437 C438 1.388 . S
C438 H425 0.930 1_565 S
C438 C437 1.388 . S
C438 C439 1.387 . S
C439 C438 1.387 . S
C439 C440 1.397 . S
C439 C445 1.466 1_565 S
C440 C435 1.399 . S
C440 C439 1.397 . S
C440 C441 1.516 . S
C441 C440 1.516 . S
C441 C442 1.502 . S
C441 C443 1.561 1_565 S
C441 C444 1.526 1_565 S
C442 H426 0.959 . S
C442 H427 0.959 . S
C442 H428 0.961 . S
C442 C441 1.502 . S
C443 H429 0.960 . S
C443 H430 0.961 . S
C443 H431 0.959 . S
C443 C441 1.561 1_545 S
C444 C441 1.526 1_545 S
C444 C445 1.396 . S
C444 C449 1.390 . S
C445 C439 1.466 1_545 S
C445 C444 1.396 . S
C445 C446 1.399 . S
C446 H432 0.929 . S
C446 C445 1.399 . S
C446 C447 1.385 . S
C447 H433 0.931 . S
C447 C446 1.385 . S
C447 C448 1.389 . S
C448 C447 1.389 . S
C448 C449 1.387 . S
C449 H434 0.930 . S
C449 C444 1.390 . S
C449 C448 1.387 . S
H450 C462 0.930 . S
H451 C464 0.930 . S
H452 C465 0.930 . S
H453 C469 0.959 . S
H454 C469 0.959 . S
H455 C469 0.961 . S
H456 C470 0.960 . S
H457 C470 0.961 . S
H458 C470 0.959 . S
H459 C473 0.929 . S
H460 C474 0.931 . S
H461 C476 0.930 . S
C462 H450 0.930 . S
C462 C463 1.399 . S
C462 C467 1.399 . S
C463 C462 1.399 . S
C463 C464 1.376 . S
C464 H451 0.930 . S
C464 C463 1.376 . S
C464 C465 1.388 . S
C465 H452 0.930 . S
C465 C464 1.388 . S
C465 C466 1.390 . S
C466 C465 1.390 . S
C466 C467 1.394 . S
C466 C472 1.465 . S
C467 C462 1.399 . S
C467 C466 1.394 . S
C467 C468 1.516 . S
C468 C467 1.516 . S
C468 C469 1.502 . S
C468 C470 1.561 . S
C468 C471 1.526 . S
C469 H453 0.959 . S
C469 H454 0.959 . S
C469 H455 0.961 . S
C469 C468 1.502 . S
C470 H456 0.960 . S
C470 H457 0.961 . S
C470 H458 0.959 . S
C470 C468 1.561 . S
C471 C468 1.526 . S
C471 C472 1.396 . S
C471 C476 1.390 . S
C472 C466 1.465 . S
C472 C471 1.396 . S
C472 C473 1.399 . S
C473 H459 0.929 . S
C473 C472 1.399 . S
C473 C474 1.385 . S
C474 H460 0.931 . S
C474 C473 1.385 . S
C474 C475 1.389 . S
C475 C474 1.389 . S
C475 C476 1.387 . S
C476 H461 0.930 . S
C476 C471 1.390 . S
C476 C475 1.387 . S
H477 C489 0.930 . S
H478 C491 0.930 . S
H479 C492 0.930 . S
H480 C496 0.959 1_655 S
H481 C496 0.959 . S
H482 C496 0.961 1_655 S
H483 C497 0.960 . S
H484 C497 0.961 . S
H485 C497 0.959 . S
H486 C500 0.929 . S
H487 C501 0.931 . S
H488 C503 0.930 . S
C489 H477 0.930 . S
C489 C490 1.399 . S
C489 C494 1.399 . S
C490 C489 1.399 . S
C490 C491 1.376 . S
C491 H478 0.930 . S
C491 C490 1.376 . S
C491 C492 1.388 . S
C492 H479 0.930 . S
C492 C491 1.388 . S
C492 C493 1.390 . S
C493 C492 1.390 . S
C493 C494 1.394 . S
C493 C499 1.465 1_655 S
C494 C489 1.399 . S
C494 C493 1.394 . S
C494 C495 1.516 1_655 S
C495 C494 1.516 1_455 S
C495 C496 1.502 . S
C495 C497 1.561 . S
C495 C498 1.526 . S
C496 H480 0.959 1_455 S
C496 H481 0.959 . S
C496 H482 0.961 1_455 S
C496 C495 1.502 . S
C497 H483 0.960 . S
C497 H484 0.961 . S
C497 H485 0.959 . S
C497 C495 1.561 . S
C498 C495 1.526 . S
C498 C499 1.396 . S
C498 C503 1.390 . S
C499 C493 1.465 1_455 S
C499 C498 1.396 . S
C499 C500 1.399 . S
C500 H486 0.929 . S
C500 C499 1.399 . S
C500 C501 1.385 . S
C501 H487 0.931 . S
C501 C500 1.385 . S
C501 C502 1.389 . S
C502 C501 1.389 . S
C502 C503 1.387 . S
C503 H488 0.930 . S
C503 C498 1.390 . S
C503 C502 1.387 . S
H504 C516 0.930 . S
H505 C518 0.930 . S
H506 C519 0.930 1_545 S
H507 C523 0.959 . S
H508 C523 0.959 . S
H509 C523 0.961 . S
H510 C524 0.960 . S
H511 C524 0.961 . S
H512 C524 0.959 . S
H513 C527 0.929 . S
H514 C528 0.931 . S
H515 C530 0.930 . S
C516 H504 0.930 . S
C516 C517 1.399 . S
C516 C521 1.399 . S
C517 C516 1.399 . S
C517 C518 1.376 . S
C518 H505 0.930 . S
C518 C517 1.376 . S
C518 C519 1.388 . S
C519 H506 0.930 1_565 S
C519 C518 1.388 . S
C519 C520 1.390 . S
C520 C519 1.390 . S
C520 C521 1.394 . S
C520 C526 1.465 1_565 S
C521 C516 1.399 . S
C521 C520 1.394 . S
C521 C522 1.516 . S
C522 C521 1.516 . S
C522 C523 1.502 . S
C522 C524 1.561 . S
C522 C525 1.526 1_565 S
C523 H507 0.959 . S
C523 H508 0.959 . S
C523 H509 0.961 . S
C523 C522 1.502 . S
C524 H510 0.960 . S
C524 H511 0.961 . S
C524 H512 0.959 . S
C524 C522 1.561 . S
C525 C522 1.526 1_545 S
C525 C526 1.396 . S
C525 C530 1.390 . S
C526 C520 1.465 1_545 S
C526 C525 1.396 . S
C526 C527 1.399 . S
C527 H513 0.929 . S
C527 C526 1.399 . S
C527 C528 1.385 . S
C528 H514 0.931 . S
C528 C527 1.385 . S
C528 C529 1.389 . S
C529 C528 1.389 . S
C529 C530 1.387 . S
C530 H515 0.930 . S
C530 C525 1.390 . S
C530 C529 1.387 . S
H531 C543 0.930 . S
H532 C545 0.930 . S
H533 C546 0.930 . S
H534 C550 0.959 . S
H535 C550 0.959 . S
H536 C550 0.961 . S
H537 C551 0.960 . S
H538 C551 0.961 . S
H539 C551 0.959 . S
H540 C554 0.929 . S
H541 C555 0.931 . S
H542 C557 0.930 . S
C543 H531 0.930 . S
C543 C544 1.399 . S
C543 C548 1.399 . S
C544 C543 1.399 . S
C544 C545 1.376 . S
C545 H532 0.930 . S
C545 C544 1.376 . S
C545 C546 1.388 . S
C546 H533 0.930 . S
C546 C545 1.388 . S
C546 C547 1.390 . S
C547 C546 1.390 . S
C547 C548 1.394 . S
C547 C553 1.465 . S
C548 C543 1.399 . S
C548 C547 1.394 . S
C548 C549 1.516 . S
C549 C548 1.516 . S
C549 C550 1.502 . S
C549 C551 1.561 . S
C549 C552 1.526 . S
C550 H534 0.959 . S
C550 H535 0.959 . S
C550 H536 0.961 . S
C550 C549 1.502 . S
C551 H537 0.960 . S
C551 H538 0.961 . S
C551 H539 0.959 . S
C551 C549 1.561 . S
C552 C549 1.526 . S
C552 C553 1.396 . S
C552 C557 1.390 . S
C553 C547 1.465 . S
C553 C552 1.396 . S
C553 C554 1.399 . S
C554 H540 0.929 . S
C554 C553 1.399 . S
C554 C555 1.385 . S
C555 H541 0.931 . S
C555 C554 1.385 . S
C555 C556 1.389 . S
C556 C555 1.389 . S
C556 C557 1.387 . S
C557 H542 0.930 . S
C557 C552 1.390 . S
C557 C556 1.387 . S
H558 C570 0.930 . S
H559 C572 0.930 . S
H560 C573 0.930 . S
H561 C577 0.959 . S
H562 C577 0.959 . S
H563 C577 0.961 . S
H564 C578 0.960 . S
H565 C578 0.961 . S
H566 C578 0.959 . S
H567 C581 0.931 . S
H568 C582 0.931 . S
H569 C584 0.930 . S
C570 H558 0.930 . S
C570 C571 1.399 . S
C570 C575 1.399 . S
C571 C570 1.399 . S
C571 C572 1.376 . S
C572 H559 0.930 . S
C572 C571 1.376 . S
C572 C573 1.388 . S
C573 H560 0.930 . S
C573 C572 1.388 . S
C573 C574 1.390 . S
C574 C573 1.390 . S
C574 C575 1.394 . S
C574 C580 1.465 1_455 S
C575 C570 1.399 . S
C575 C574 1.394 . S
C575 C576 1.516 1_455 S
C576 C575 1.516 1_655 S
C576 C577 1.502 . S
C576 C578 1.561 . S
C576 C579 1.526 . S
C577 H561 0.959 . S
C577 H562 0.959 . S
C577 H563 0.961 . S
C577 C576 1.502 . S
C578 H564 0.960 . S
C578 H565 0.961 . S
C578 H566 0.959 . S
C578 C576 1.561 . S
C579 C576 1.526 . S
C579 C580 1.396 . S
C579 C584 1.390 . S
C580 C574 1.465 1_655 S
C580 C579 1.396 . S
C580 C581 1.399 . S
C581 H567 0.931 . S
C581 C580 1.399 . S
C581 C582 1.385 . S
C582 H568 0.931 . S
C582 C581 1.385 . S
C582 C583 1.389 . S
C583 C582 1.389 . S
C583 C584 1.387 . S
C584 H569 0.930 . S
C584 C579 1.390 . S
C584 C583 1.387 . S
H585 C597 0.930 . S
H586 C599 0.930 . S
H587 C600 0.930 . S
H588 C604 0.959 . S
H589 C604 0.959 . S
H590 C604 0.961 . S
H591 C605 0.960 . S
H592 C605 0.961 . S
H593 C605 0.959 . S
H594 C608 0.929 1_545 S
H595 C609 0.931 . S
H596 C611 0.930 . S
C597 H585 0.930 . S
C597 C598 1.399 . S
C597 C602 1.399 . S
C598 C597 1.399 . S
C598 C599 1.376 . S
C599 H586 0.930 . S
C599 C598 1.376 . S
C599 C600 1.388 . S
C600 H587 0.930 . S
C600 C599 1.388 . S
C600 C601 1.390 . S
C601 C600 1.390 . S
C601 C602 1.394 . S
C601 C607 1.465 1_545 S
C602 C597 1.399 . S
C602 C601 1.394 . S
C602 C603 1.516 1_545 S
C603 C602 1.516 1_565 S
C603 C604 1.502 . S
C603 C605 1.561 . S
C603 C606 1.526 . S
C604 H588 0.959 . S
C604 H589 0.959 . S
C604 H590 0.961 . S
C604 C603 1.502 . S
C605 H591 0.960 . S
C605 H592 0.961 . S
C605 H593 0.959 . S
C605 C603 1.561 . S
C606 C603 1.526 . S
C606 C607 1.396 . S
C606 C611 1.390 . S
C607 C601 1.465 1_565 S
C607 C606 1.396 . S
C607 C608 1.399 . S
C608 H594 0.929 1_565 S
C608 C607 1.399 . S
C608 C609 1.385 . S
C609 H595 0.931 . S
C609 C608 1.385 . S
C609 C610 1.389 . S
C610 C609 1.389 . S
C610 C611 1.387 . S
C611 H596 0.930 . S
C611 C606 1.390 . S
C611 C610 1.387 . S
C139 C102 0.955 . S
C151 C13 0.864 . S
C166 C123 0.851 . S
C178 C34 0.955 . S
C193 C18 0.875 . S
C205 C55 0.822 . S
C220 C39 0.865 . S
C232 C76 0.841 . S
C247 C60 0.958 . S
C259 C97 0.765 . S
C274 C81 0.900 . S
C286 C118 0.950 . S
C301 C14 1.118 . S
C313 C77 1.016 . S
C328 C98 0.969 . S
C340 C35 1.108 . S
C355 C119 1.123 . S
C367 C56 1.006 . S
C382 C57 1.138 . S
C394 C120 1.125 . S
C409 C15 1.140 . S
C421 C78 1.123 . S
C436 C99 1.137 . S
C448 C36 1.125 . S
C463 C122 1.121 . S
C475 C16 1.143 . S
C490 C37 1.034 . S
C502 C17 1.106 . S
C517 C58 1.143 . S
C529 C38 1.134 . S
C544 C59 1.139 . S
C556 C79 1.070 . S
C571 C100 1.031 . S
C583 C80 1.094 . S
C598 C121 1.035 . S
C610 C101 1.080 . S
