# Generated by pormake.
# Topology gis, (4)-cn, num edge types: 1
# Building blocks:
#     Node 0, Type 0, BuildingBlock: CEKHIL_clean_sbu_0, # of connection points: 4
#     Node 1, Type 0, BuildingBlock: CEKHIL_clean_sbu_0, # of connection points: 4
#     Node 2, Type 0, BuildingBlock: CEKHIL_clean_sbu_0, # of connection points: 4
#     Node 3, Type 0, BuildingBlock: CEKHIL_clean_sbu_0, # of connection points: 4
#     Node 4, Type 0, BuildingBlock: CEKHIL_clean_sbu_0, # of connection points: 4
#     Node 5, Type 0, BuildingBlock: CEKHIL_clean_sbu_0, # of connection points: 4
#     Node 6, Type 0, BuildingBlock: CEKHIL_clean_sbu_0, # of connection points: 4
#     Node 7, Type 0, BuildingBlock: CEKHIL_clean_sbu_0, # of connection points: 4
#     Node 8, Type 0, BuildingBlock: CEKHIL_clean_sbu_0, # of connection points: 4
#     Node 9, Type 0, BuildingBlock: CEKHIL_clean_sbu_0, # of connection points: 4
#     Node 10, Type 0, BuildingBlock: CEKHIL_clean_sbu_0, # of connection points: 4
#     Node 11, Type 0, BuildingBlock: CEKHIL_clean_sbu_0, # of connection points: 4
#     Node 12, Type 0, BuildingBlock: CEKHIL_clean_sbu_0, # of connection points: 4
#     Node 13, Type 0, BuildingBlock: CEKHIL_clean_sbu_0, # of connection points: 4
#     Node 14, Type 0, BuildingBlock: CEKHIL_clean_sbu_0, # of connection points: 4
#     Node 15, Type 0, BuildingBlock: CEKHIL_clean_sbu_0, # of connection points: 4
#     Edge 16, Type (0, 0), BuildingBlock: MIFKUJ_clean_linker_0, # of connection points: 2
#     Edge 17, Type (0, 0), BuildingBlock: MIFKUJ_clean_linker_0, # of connection points: 2
#     Edge 18, Type (0, 0), BuildingBlock: MIFKUJ_clean_linker_0, # of connection points: 2
#     Edge 19, Type (0, 0), BuildingBlock: MIFKUJ_clean_linker_0, # of connection points: 2
#     Edge 20, Type (0, 0), BuildingBlock: MIFKUJ_clean_linker_0, # of connection points: 2
#     Edge 21, Type (0, 0), BuildingBlock: MIFKUJ_clean_linker_0, # of connection points: 2
#     Edge 22, Type (0, 0), BuildingBlock: MIFKUJ_clean_linker_0, # of connection points: 2
#     Edge 23, Type (0, 0), BuildingBlock: MIFKUJ_clean_linker_0, # of connection points: 2
#     Edge 24, Type (0, 0), BuildingBlock: MIFKUJ_clean_linker_0, # of connection points: 2
#     Edge 25, Type (0, 0), BuildingBlock: MIFKUJ_clean_linker_0, # of connection points: 2
#     Edge 26, Type (0, 0), BuildingBlock: MIFKUJ_clean_linker_0, # of connection points: 2
#     Edge 27, Type (0, 0), BuildingBlock: MIFKUJ_clean_linker_0, # of connection points: 2
#     Edge 28, Type (0, 0), BuildingBlock: MIFKUJ_clean_linker_0, # of connection points: 2
#     Edge 29, Type (0, 0), BuildingBlock: MIFKUJ_clean_linker_0, # of connection points: 2
#     Edge 30, Type (0, 0), BuildingBlock: MIFKUJ_clean_linker_0, # of connection points: 2
#     Edge 31, Type (0, 0), BuildingBlock: MIFKUJ_clean_linker_0, # of connection points: 2
#     Edge 32, Type (0, 0), BuildingBlock: MIFKUJ_clean_linker_0, # of connection points: 2
#     Edge 33, Type (0, 0), BuildingBlock: MIFKUJ_clean_linker_0, # of connection points: 2
#     Edge 34, Type (0, 0), BuildingBlock: MIFKUJ_clean_linker_0, # of connection points: 2
#     Edge 35, Type (0, 0), BuildingBlock: MIFKUJ_clean_linker_0, # of connection points: 2
#     Edge 36, Type (0, 0), BuildingBlock: MIFKUJ_clean_linker_0, # of connection points: 2
#     Edge 37, Type (0, 0), BuildingBlock: MIFKUJ_clean_linker_0, # of connection points: 2
#     Edge 38, Type (0, 0), BuildingBlock: MIFKUJ_clean_linker_0, # of connection points: 2
#     Edge 39, Type (0, 0), BuildingBlock: MIFKUJ_clean_linker_0, # of connection points: 2
#     Edge 40, Type (0, 0), BuildingBlock: MIFKUJ_clean_linker_0, # of connection points: 2
#     Edge 41, Type (0, 0), BuildingBlock: MIFKUJ_clean_linker_0, # of connection points: 2
#     Edge 42, Type (0, 0), BuildingBlock: MIFKUJ_clean_linker_0, # of connection points: 2
#     Edge 43, Type (0, 0), BuildingBlock: MIFKUJ_clean_linker_0, # of connection points: 2
#     Edge 44, Type (0, 0), BuildingBlock: MIFKUJ_clean_linker_0, # of connection points: 2
#     Edge 45, Type (0, 0), BuildingBlock: MIFKUJ_clean_linker_0, # of connection points: 2
#     Edge 46, Type (0, 0), BuildingBlock: MIFKUJ_clean_linker_0, # of connection points: 2
#     Edge 47, Type (0, 0), BuildingBlock: MIFKUJ_clean_linker_0, # of connection points: 2
# Relax obj value: 0.062
# Max RMSD: 0.132
# Mean RMSD: 0.126
data_MOF--net-gis--node1-CEKHIL_clean_sbu_0--edge1-MIFKUJ_clean_linker_0
_symmetry_space_group_name_H-M    P1
_symmetry_Int_Tables_number       1
_symmetry_cell_setting            triclinic
loop_
_symmetry_equiv_pos_as_xyz
'x, y, z'
_cell_length_a     71.110585
_cell_length_b     66.596128
_cell_length_c     45.492573
_cell_angle_alpha  90.361335
_cell_angle_beta   90.40969
_cell_angle_gamma 90.048827
loop_
_atom_site_label
_atom_site_type_symbol
_atom_site_fract_x
_atom_site_fract_y
_atom_site_fract_z
_atom_type_partial_charge
Co0 Co 0.14302 0.60494 0.1357 0.0
O1 O 0.1699 0.60781 0.13592 0.0
O2 O 0.15215 0.6071 0.17576 0.0
C3 C 0.14181 0.57947 0.1031 0.0
O4 O 0.11503 0.60151 0.14402 0.0
Co5 Co 0.11979 0.6123 0.07879 0.0
O6 O 0.10031 0.59714 0.1005 0.0
C7 C 0.13424 0.64691 0.11306 0.0
C8 C 0.16884 0.60844 0.16437 0.0
C9 C 0.1006 0.59639 0.12846 0.0
O10 O 0.14019 0.63495 0.13319 0.0
O11 O 0.12665 0.64079 0.08899 0.0
O12 O 0.14521 0.57595 0.1307 0.0
O13 O 0.14094 0.59816 0.0958 0.0
Co14 Co 0.63815 0.88898 0.37339 0.0
O15 O 0.66508 0.88834 0.37202 0.0
O16 O 0.64639 0.88733 0.3329 0.0
C17 C 0.63608 0.91447 0.40581 0.0
O18 O 0.60973 0.89025 0.36667 0.0
Co19 Co 0.61809 0.87928 0.43196 0.0
O20 O 0.59565 0.8895 0.41078 0.0
C21 C 0.6339 0.8463 0.39664 0.0
C22 C 0.66342 0.88747 0.34365 0.0
C23 C 0.59502 0.89162 0.38295 0.0
O24 O 0.63749 0.85879 0.37597 0.0
O25 O 0.62738 0.85169 0.42164 0.0
O26 O 0.63848 0.91806 0.37805 0.0
O27 O 0.63689 0.89581 0.41331 0.0
Co28 Co 0.35902 0.39202 0.63756 0.0
O29 O 0.33209 0.39128 0.63855 0.0
O30 O 0.35057 0.38909 0.67777 0.0
C31 C 0.36116 0.41842 0.6072 0.0
O32 O 0.38741 0.39305 0.6446 0.0
Co33 Co 0.3795 0.38433 0.57849 0.0
O34 O 0.40128 0.39571 0.60047 0.0
C35 C 0.36256 0.35043 0.61014 0.0
C36 C 0.3336 0.38945 0.66681 0.0
C37 C 0.40192 0.39633 0.62848 0.0
O38 O 0.35963 0.36199 0.63238 0.0
O39 O 0.36896 0.35679 0.58565 0.0
O40 O 0.35869 0.42126 0.63519 0.0
O41 O 0.36047 0.39998 0.59833 0.0
Co42 Co 0.8651 0.09926 0.85529 0.0
O43 O 0.83819 0.10031 0.85421 0.0
O44 O 0.85628 0.10099 0.81484 0.0
C45 C 0.86729 0.07405 0.88768 0.0
O46 O 0.89353 0.09763 0.84881 0.0
Co47 Co 0.88541 0.10924 0.91456 0.0
O48 O 0.90703 0.09705 0.89379 0.0
C49 C 0.86814 0.14159 0.88003 0.0
C50 C 0.83941 0.10135 0.82587 0.0
C51 C 0.90788 0.09505 0.86592 0.0
O52 O 0.86599 0.12939 0.85825 0.0
O53 O 0.87413 0.13609 0.90533 0.0
O54 O 0.86444 0.07014 0.85997 0.0
O55 O 0.86675 0.09278 0.89497 0.0
Co56 Co 0.13604 0.39382 0.85999 0.0
O57 O 0.16294 0.39145 0.86168 0.0
O58 O 0.14594 0.3904 0.82073 0.0
C59 C 0.13425 0.42027 0.8909 0.0
O60 O 0.10811 0.3965 0.84979 0.0
Co61 Co 0.11204 0.3881 0.91615 0.0
O62 O 0.09255 0.40168 0.89205 0.0
C63 C 0.12812 0.3527 0.8859 0.0
C64 C 0.16245 0.38985 0.83326 0.0
C65 C 0.09323 0.40152 0.86406 0.0
O66 O 0.13351 0.36387 0.86454 0.0
O67 O 0.1205 0.35971 0.90923 0.0
O68 O 0.13802 0.42303 0.8633 0.0
O69 O 0.13325 0.4018 0.89913 0.0
Co70 Co 0.85572 0.89704 0.13835 0.0
O71 O 0.82886 0.89566 0.14014 0.0
O72 O 0.84782 0.89504 0.17895 0.0
C73 C 0.8567 0.92246 0.10625 0.0
O74 O 0.88418 0.89904 0.14443 0.0
Co75 Co 0.876 0.88899 0.07894 0.0
O76 O 0.89715 0.90257 0.09973 0.0
C77 C 0.86016 0.85519 0.11261 0.0
C78 C 0.83072 0.89478 0.16845 0.0
C79 C 0.89818 0.90332 0.12771 0.0
O80 O 0.85705 0.8669 0.13466 0.0
O81 O 0.86621 0.86144 0.08783 0.0
O82 O 0.85462 0.92623 0.13411 0.0
O83 O 0.8565 0.90378 0.09878 0.0
Co84 Co 0.36421 0.60397 0.36725 0.0
O85 O 0.33727 0.60461 0.36539 0.0
O86 O 0.35595 0.60563 0.32665 0.0
C87 C 0.36622 0.5787 0.39959 0.0
O88 O 0.39262 0.60249 0.36091 0.0
Co89 Co 0.38476 0.61403 0.4258 0.0
O90 O 0.40664 0.60214 0.40535 0.0
C91 C 0.36858 0.64679 0.39082 0.0
C92 C 0.33894 0.6055 0.33707 0.0
C93 C 0.40723 0.60014 0.37749 0.0
O94 O 0.36486 0.63414 0.37011 0.0
O95 O 0.37551 0.64165 0.4157 0.0
O96 O 0.36372 0.57494 0.37177 0.0
O97 O 0.36565 0.59744 0.40715 0.0
Co98 Co 0.63934 0.10747 0.6355 0.0
O99 O 0.66624 0.10921 0.63453 0.0
O100 O 0.64928 0.11143 0.67501 0.0
C101 C 0.63695 0.08032 0.60609 0.0
O102 O 0.61123 0.10545 0.64445 0.0
Co103 Co 0.61673 0.11338 0.57759 0.0
O104 O 0.59646 0.10087 0.60098 0.0
C105 C 0.63289 0.14861 0.60792 0.0
C106 C 0.66581 0.11131 0.66284 0.0
C107 C 0.59653 0.10087 0.62902 0.0
O108 O 0.63747 0.13737 0.62972 0.0
O109 O 0.62568 0.14172 0.58403 0.0
O110 O 0.64062 0.07827 0.63391 0.0
O111 O 0.63672 0.09857 0.5966 0.0
Co112 Co 0.86047 0.39535 0.85952 0.0
O113 O 0.8336 0.39523 0.85722 0.0
O114 O 0.85241 0.39439 0.81866 0.0
C115 C 0.8626 0.42015 0.89308 0.0
O116 O 0.88897 0.39606 0.85412 0.0
Co117 Co 0.87983 0.38478 0.91917 0.0
O118 O 0.90245 0.39508 0.89901 0.0
C119 C 0.86228 0.35291 0.88308 0.0
C120 C 0.83535 0.39462 0.82891 0.0
C121 C 0.90348 0.39726 0.87123 0.0
O122 O 0.86048 0.36517 0.8615 0.0
O123 O 0.8681 0.35829 0.90865 0.0
O124 O 0.86058 0.42448 0.86541 0.0
O125 O 0.86153 0.40138 0.89946 0.0
Co126 Co 0.36206 0.0962 0.63484 0.0
O127 O 0.33527 0.09349 0.63642 0.0
O128 O 0.3536 0.09897 0.67518 0.0
C129 C 0.36691 0.06967 0.60485 0.0
O130 O 0.39045 0.09909 0.64102 0.0
Co131 Co 0.3801 0.10563 0.57433 0.0
O132 O 0.40388 0.10151 0.59644 0.0
C133 C 0.36037 0.13756 0.60652 0.0
C134 C 0.3367 0.09635 0.66454 0.0
C135 C 0.40501 0.10028 0.62438 0.0
O136 O 0.3593 0.12606 0.62906 0.0
O137 O 0.36659 0.13159 0.58162 0.0
O138 O 0.36505 0.06699 0.63296 0.0
O139 O 0.36395 0.08772 0.59584 0.0
Co140 Co 0.6359 0.59249 0.34822 0.0
O141 O 0.63551 0.56469 0.3593 0.0
O142 O 0.62788 0.59014 0.38848 0.0
C143 C 0.66416 0.59251 0.32656 0.0
O144 O 0.63536 0.62293 0.34506 0.0
Co145 Co 0.63552 0.60455 0.28285 0.0
O146 O 0.64222 0.63152 0.29868 0.0
C147 C 0.60034 0.59111 0.30971 0.0
C148 C 0.62989 0.57086 0.38491 0.0
C149 C 0.63951 0.6361 0.32557 0.0
O150 O 0.60904 0.59052 0.33454 0.0
O151 O 0.60862 0.59517 0.28555 0.0
O152 O 0.66283 0.59391 0.35496 0.0
O153 O 0.64861 0.58879 0.31249 0.0
Co154 Co 0.13114 0.90126 0.15315 0.0
O155 O 0.13112 0.92877 0.14054 0.0
O156 O 0.1243 0.90257 0.11211 0.0
C157 C 0.15875 0.9023 0.17715 0.0
O158 O 0.13043 0.8709 0.15743 0.0
Co159 Co 0.12967 0.88964 0.21847 0.0
O160 O 0.13775 0.86286 0.20394 0.0
C161 C 0.09485 0.90257 0.18881 0.0
C162 C 0.12635 0.9219 0.11476 0.0
C163 C 0.13502 0.85801 0.17714 0.0
O164 O 0.10395 0.90366 0.16456 0.0
O165 O 0.10262 0.89799 0.21334 0.0
O166 O 0.15825 0.89978 0.14884 0.0
O167 O 0.14286 0.90594 0.18984 0.0
Co168 Co 0.86464 0.6 0.14383 0.0
O169 O 0.83776 0.60123 0.14419 0.0
O170 O 0.85589 0.60309 0.18391 0.0
C171 C 0.86632 0.57369 0.11281 0.0
O172 O 0.89296 0.59828 0.15139 0.0
Co173 Co 0.88594 0.60683 0.08507 0.0
O174 O 0.90653 0.59356 0.10726 0.0
C175 C 0.86942 0.64126 0.1169 0.0
C176 C 0.83902 0.60283 0.17253 0.0
C177 C 0.90711 0.59348 0.13527 0.0
O178 O 0.86599 0.62999 0.1391 0.0
O179 O 0.87595 0.63455 0.09257 0.0
O180 O 0.8636 0.57073 0.14067 0.0
O181 O 0.86628 0.59218 0.10458 0.0
Co182 Co 0.14139 0.09695 0.86261 0.0
O183 O 0.16824 0.09954 0.86184 0.0
O184 O 0.14976 0.10061 0.82251 0.0
C185 C 0.14059 0.07023 0.89261 0.0
O186 O 0.11307 0.09403 0.85542 0.0
Co187 Co 0.12049 0.10275 0.92197 0.0
O188 O 0.09953 0.09014 0.89961 0.0
C189 C 0.13463 0.13813 0.8903 0.0
C190 C 0.1667 0.1013 0.83358 0.0
C191 C 0.09881 0.08971 0.87159 0.0
O192 O 0.13894 0.1269 0.86822 0.0
O193 O 0.12839 0.13117 0.91454 0.0
O194 O 0.14345 0.06773 0.86465 0.0
O195 O 0.14027 0.08863 0.90166 0.0
Co196 Co 0.63179 0.40354 0.64986 0.0
O197 O 0.62928 0.43156 0.64077 0.0
O198 O 0.62328 0.40654 0.60972 0.0
C199 C 0.66027 0.40549 0.67141 0.0
O200 O 0.63354 0.37301 0.6509 0.0
Co201 Co 0.63357 0.38936 0.71439 0.0
O202 O 0.64166 0.36355 0.69657 0.0
C203 C 0.59702 0.40081 0.68898 0.0
C204 C 0.62409 0.42579 0.61463 0.0
C205 C 0.63885 0.35959 0.66945 0.0
O206 O 0.60501 0.40294 0.66392 0.0
O207 O 0.60609 0.39648 0.71252 0.0
O208 O 0.65868 0.40473 0.64297 0.0
O209 O 0.64467 0.40723 0.68571 0.0
Co210 Co 0.36715 0.89925 0.34383 0.0
O211 O 0.37062 0.92701 0.35429 0.0
O212 O 0.3757 0.90141 0.38416 0.0
C213 C 0.33888 0.90239 0.32199 0.0
O214 O 0.36441 0.86893 0.3413 0.0
Co215 Co 0.36556 0.88607 0.27858 0.0
O216 O 0.35611 0.8604 0.29512 0.0
C217 C 0.40215 0.89538 0.30545 0.0
C218 C 0.37559 0.92074 0.38017 0.0
C219 C 0.35869 0.85601 0.32209 0.0
O220 O 0.39386 0.89741 0.33028 0.0
O221 O 0.3933 0.89239 0.2812 0.0
O222 O 0.34031 0.90137 0.35042 0.0
O223 O 0.35461 0.90383 0.30793 0.0
H224 H 0.15522 0.82858 0.20443 0.0
H225 H 0.15664 0.79291 0.19115 0.0
H226 H 0.11922 0.8034 0.11786 0.0
H227 H 0.11796 0.83915 0.13064 0.0
H228 H 0.10876 0.77087 0.15622 0.0
H229 H 0.1612 0.79526 0.10136 0.0
H230 H 0.19102 0.81333 0.09384 0.0
H231 H 0.2187 0.77473 0.15577 0.0
H232 H 0.18893 0.75662 0.16402 0.0
H233 H 0.11596 0.67696 0.08385 0.0
H234 H 0.1175 0.713 0.09387 0.0
H235 H 0.15747 0.70263 0.16385 0.0
H236 H 0.156 0.66645 0.15414 0.0
H237 H 0.16703 0.73517 0.12699 0.0
H238 H 0.11491 0.71117 0.18268 0.0
H239 H 0.08521 0.69301 0.19089 0.0
H240 H 0.05706 0.73089 0.12853 0.0
H241 H 0.08669 0.7491 0.1196 0.0
C242 C 0.14735 0.8233 0.18543 0.0
C243 C 0.13643 0.83663 0.16862 0.0
C244 C 0.14825 0.80297 0.17781 0.0
C245 C 0.13805 0.79561 0.15353 0.0
C246 C 0.12719 0.80886 0.13666 0.0
C247 C 0.12654 0.82925 0.14394 0.0
C248 C 0.1382 0.77394 0.14642 0.0
C249 C 0.12142 0.76309 0.1494 0.0
C250 C 0.15487 0.76382 0.13835 0.0
C251 C 0.17277 0.77474 0.13359 0.0
C252 C 0.17358 0.79077 0.11364 0.0
C253 C 0.19049 0.80099 0.10918 0.0
C254 C 0.20673 0.79523 0.12439 0.0
C255 C 0.2061 0.77921 0.14405 0.0
C256 C 0.18921 0.76895 0.14862 0.0
C257 C 0.12519 0.68231 0.10126 0.0
C258 C 0.13579 0.66881 0.1183 0.0
C259 C 0.12599 0.7029 0.10699 0.0
C260 C 0.13749 0.7104 0.12971 0.0
C261 C 0.1485 0.69708 0.14624 0.0
C262 C 0.14756 0.67643 0.14074 0.0
C263 C 0.13756 0.73212 0.13667 0.0
C264 C 0.15437 0.74296 0.13375 0.0
C265 C 0.12093 0.74225 0.14494 0.0
C266 C 0.10308 0.73135 0.15022 0.0
C267 C 0.10243 0.7155 0.17049 0.0
C268 C 0.0856 0.70522 0.17532 0.0
C269 C 0.06927 0.71075 0.16017 0.0
C270 C 0.06973 0.7266 0.14021 0.0
C271 C 0.08654 0.73692 0.13526 0.0
H272 H 0.05624 0.70279 0.16396 0.0
H273 H 0.21982 0.80315 0.12088 0.0
H274 H 0.42482 0.88399 0.35018 0.0
H275 H 0.45886 0.88641 0.35355 0.0
H276 H 0.46092 0.9101 0.2656 0.0
H277 H 0.42641 0.90706 0.26165 0.0
H278 H 0.491 0.88266 0.27984 0.0
H279 H 0.46405 0.94309 0.31886 0.0
H280 H 0.43941 0.96015 0.34757 0.0
H281 H 0.4586 0.93068 0.4259 0.0
H282 H 0.48325 0.91331 0.39761 0.0
H283 H 0.58672 0.90299 0.32607 0.0
H284 H 0.55541 0.90818 0.30431 0.0
H285 H 0.52994 0.89262 0.38694 0.0
H286 H 0.5608 0.88803 0.40882 0.0
H287 H 0.51265 0.92357 0.3652 0.0
H288 H 0.53421 0.85893 0.32628 0.0
H289 H 0.55583 0.83727 0.29815 0.0
H290 H 0.54575 0.87235 0.22074 0.0
H291 H 0.52421 0.89433 0.24854 0.0
C292 C 0.43246 0.88963 0.33142 0.0
C293 C 0.42293 0.8957 0.30583 0.0
C294 C 0.45193 0.89095 0.33336 0.0
C295 C 0.46236 0.89886 0.31008 0.0
C296 C 0.45307 0.90407 0.28386 0.0
C297 C 0.43342 0.90241 0.28169 0.0
C298 C 0.4827 0.90274 0.31463 0.0
C299 C 0.49586 0.89201 0.29797 0.0
C300 C 0.48895 0.91488 0.3384 0.0
C301 C 0.4755 0.9269 0.35609 0.0
C302 C 0.46311 0.94038 0.34226 0.0
C303 C 0.4491 0.95004 0.35843 0.0
C304 C 0.4474 0.94644 0.3885 0.0
C305 C 0.45994 0.93347 0.4026 0.0
C306 C 0.47399 0.92376 0.38652 0.0
C307 C 0.57442 0.90075 0.33956 0.0
C308 C 0.57632 0.89507 0.3692 0.0
C309 C 0.55654 0.90368 0.32709 0.0
C310 C 0.54027 0.90068 0.34393 0.0
C311 C 0.54223 0.89518 0.3735 0.0
C312 C 0.55997 0.89248 0.38599 0.0
C313 C 0.52104 0.90273 0.33125 0.0
C314 C 0.50801 0.91472 0.3464 0.0
C315 C 0.51496 0.89166 0.3062 0.0
C316 C 0.52781 0.87839 0.28954 0.0
C317 C 0.53671 0.86209 0.30331 0.0
C318 C 0.54893 0.84975 0.28743 0.0
C319 C 0.55221 0.85347 0.2577 0.0
C320 C 0.54323 0.86951 0.24378 0.0
C321 C 0.53101 0.8819 0.25958 0.0
H322 H 0.56167 0.84391 0.24544 0.0
H323 H 0.4363 0.95365 0.40081 0.0
H324 H 0.36063 0.32214 0.56641 0.0
H325 H 0.35513 0.28618 0.57141 0.0
H326 H 0.35026 0.29329 0.66533 0.0
H327 H 0.35572 0.32943 0.66062 0.0
H328 H 0.37421 0.26233 0.6491 0.0
H329 H 0.31184 0.28348 0.62798 0.0
H330 H 0.28674 0.3016 0.6016 0.0
H331 H 0.29884 0.26833 0.52284 0.0
H332 H 0.32423 0.25021 0.54862 0.0
H333 H 0.35251 0.15817 0.65741 0.0
H334 H 0.3478 0.19437 0.66312 0.0
H335 H 0.35241 0.20176 0.56933 0.0
H336 H 0.35701 0.16571 0.56331 0.0
H337 H 0.32474 0.22565 0.593 0.0
H338 H 0.39002 0.20889 0.61219 0.0
H339 H 0.41571 0.19117 0.63783 0.0
H340 H 0.39815 0.21668 0.7201 0.0
H341 H 0.37217 0.23434 0.69495 0.0
C342 C 0.35832 0.31613 0.58815 0.0
C343 C 0.35865 0.32869 0.61312 0.0
C344 C 0.35506 0.29558 0.59094 0.0
C345 C 0.35213 0.28714 0.61871 0.0
C346 C 0.35242 0.29957 0.6437 0.0
C347 C 0.35551 0.3202 0.64093 0.0
C348 C 0.34964 0.26517 0.62146 0.0
C349 C 0.36313 0.25432 0.63742 0.0
C350 C 0.33534 0.25477 0.60585 0.0
C351 C 0.32004 0.26557 0.59021 0.0
C352 C 0.30926 0.28013 0.60497 0.0
C353 C 0.29496 0.29039 0.59013 0.0
C354 C 0.29122 0.28615 0.56055 0.0
C355 C 0.30176 0.27161 0.54575 0.0
C356 C 0.3161 0.26131 0.56048 0.0
C357 C 0.35227 0.16744 0.63793 0.0
C358 C 0.35538 0.15904 0.60991 0.0
C359 C 0.34961 0.18813 0.64128 0.0
C360 C 0.34999 0.20073 0.61667 0.0
C361 C 0.3521 0.19228 0.58859 0.0
C362 C 0.35483 0.17166 0.58523 0.0
C363 C 0.34954 0.22284 0.62007 0.0
C364 C 0.33555 0.2337 0.60521 0.0
C365 C 0.36339 0.23327 0.63666 0.0
C366 C 0.37902 0.22271 0.65176 0.0
C367 C 0.39154 0.21058 0.63578 0.0
C368 C 0.40617 0.20057 0.65022 0.0
C369 C 0.40852 0.20274 0.68059 0.0
C370 C 0.39628 0.21497 0.69658 0.0
C371 C 0.38161 0.22498 0.68225 0.0
H372 H 0.41986 0.19498 0.69173 0.0
H373 H 0.28014 0.2941 0.5491 0.0
H374 H 0.08644 0.09799 0.81528 0.0
H375 H 0.05425 0.09403 0.79597 0.0
H376 H 0.03738 0.06759 0.87804 0.0
H377 H 0.06917 0.07107 0.89702 0.0
H378 H 0.02039 0.04896 0.83323 0.0
H379 H 0.03295 0.11939 0.86283 0.0
H380 H 0.04978 0.15158 0.8574 0.0
H381 H 0.03253 0.15444 0.76686 0.0
H382 H 0.01576 0.12214 0.77173 0.0
H383 H 0.93669 0.07661 0.89401 0.0
H384 H 0.96847 0.07119 0.87679 0.0
H385 H 0.95367 0.09646 0.79267 0.0
H386 H 0.92136 0.10218 0.81011 0.0
H387 H 0.98628 0.11284 0.81622 0.0
H388 H 0.96442 0.04729 0.79506 0.0
H389 H 0.94699 0.01585 0.80338 0.0
H390 H 0.98132 0.00361 0.87917 0.0
H391 H 0.99878 0.03511 0.87162 0.0
C392 C 0.07592 0.09098 0.82892 0.0
C393 C 0.08032 0.08512 0.85784 0.0
C394 C 0.05752 0.08881 0.81791 0.0
C395 C 0.04332 0.08074 0.83569 0.0
C396 C 0.04804 0.07385 0.86386 0.0
C397 C 0.06626 0.07602 0.8748 0.0
C398 C 0.02317 0.08081 0.82676 0.0
C399 C 0.01292 0.06288 0.82919 0.0
C400 C 0.01345 0.09882 0.82028 0.0
C401 C 0.02333 0.11829 0.81753 0.0
C402 C 0.03284 0.12686 0.84174 0.0
C403 C 0.04235 0.14511 0.83877 0.0
C404 C 0.04228 0.15501 0.81177 0.0
C405 C 0.03262 0.14672 0.78773 0.0
C406 C 0.02311 0.12846 0.79058 0.0
C407 C 0.94004 0.08086 0.8717 0.0
C408 C 0.92649 0.08994 0.85348 0.0
C409 C 0.95823 0.07757 0.86177 0.0
C410 C 0.96343 0.08316 0.8333 0.0
C411 C 0.9499 0.09188 0.81466 0.0
C412 C 0.93147 0.09507 0.82459 0.0
C413 C 0.98346 0.08119 0.8247 0.0
C414 C 0.99371 0.09874 0.81894 0.0
C415 C 0.99318 0.06281 0.82828 0.0
C416 C 0.98295 0.0436 0.8327 0.0
C417 C 0.96822 0.03793 0.81356 0.0
C418 C 0.95833 0.02009 0.81815 0.0
C419 C 0.96305 0.00773 0.84177 0.0
C420 C 0.97771 0.01317 0.86083 0.0
C421 C 0.98765 0.031 0.85635 0.0
H422 H 0.95535 0.99394 0.84531 0.0
H423 H 0.04967 0.16913 0.8095 0.0
H424 H 0.1176 0.32408 0.92531 0.0
H425 H 0.12219 0.28795 0.92191 0.0
H426 H 0.14928 0.29491 0.83808 0.0
H427 H 0.14458 0.33131 0.84104 0.0
H428 H 0.12394 0.26368 0.83794 0.0
H429 H 0.17578 0.28544 0.89728 0.0
H430 H 0.19146 0.30385 0.93777 0.0
H431 H 0.15967 0.27051 0.00085 0.0
H432 H 0.1436 0.25209 0.96072 0.0
H433 H 0.14937 0.15947 0.84432 0.0
H434 H 0.15171 0.196 0.83986 0.0
H435 H 0.12622 0.20316 0.92505 0.0
H436 H 0.12412 0.16689 0.92997 0.0
H437 H 0.15558 0.22763 0.91959 0.0
H438 H 0.10102 0.20931 0.86068 0.0
H439 H 0.08449 0.19123 0.82067 0.0
H440 H 0.12097 0.2182 0.75726 0.0
H441 H 0.13787 0.23625 0.79697 0.0
C442 C 0.12457 0.31803 0.9061 0.0
C443 C 0.13081 0.33068 0.88351 0.0
C444 C 0.12723 0.29733 0.90427 0.0
C445 C 0.13633 0.2888 0.87996 0.0
C446 C 0.14231 0.30125 0.85709 0.0
C447 C 0.13964 0.32203 0.85888 0.0
C448 C 0.13935 0.26681 0.87866 0.0
C449 C 0.1312 0.25579 0.85546 0.0
C450 C 0.14862 0.25655 0.90172 0.0
C451 C 0.15841 0.26746 0.92596 0.0
C452 C 0.17205 0.28211 0.91978 0.0
C453 C 0.18102 0.29254 0.94267 0.0
C454 C 0.17655 0.28837 0.97186 0.0
C455 C 0.16312 0.27373 0.97822 0.0
C456 C 0.1541 0.26326 0.95541 0.0
C457 C 0.1443 0.16882 0.86214 0.0
C458 C 0.13651 0.1602 0.88748 0.0
C459 C 0.1456 0.18969 0.8595 0.0
C460 C 0.13899 0.20229 0.88202 0.0
C461 C 0.13145 0.19372 0.90743 0.0
C462 C 0.13022 0.17293 0.91016 0.0
C463 C 0.13967 0.22445 0.87937 0.0
C464 C 0.14859 0.23552 0.90181 0.0
C465 C 0.13105 0.23471 0.85567 0.0
C466 C 0.12084 0.22394 0.83181 0.0
C467 C 0.1056 0.21126 0.83822 0.0
C468 C 0.09615 0.20104 0.8156 0.0
C469 C 0.10171 0.20351 0.78645 0.0
C470 C 0.1167 0.21626 0.77985 0.0
C471 C 0.12621 0.2265 0.8024 0.0
H472 H 0.09438 0.19559 0.76896 0.0
H473 H 0.1835 0.29647 0.98955 0.0
H474 H 0.92425 0.92934 0.10719 0.0
H475 H 0.95683 0.93306 0.12365 0.0
H476 H 0.94703 0.89063 0.1932 0.0
H477 H 0.91403 0.88753 0.17748 0.0
H478 H 0.9719 0.91917 0.21076 0.0
H479 H 0.96493 0.8751 0.12669 0.0
H480 H 0.95413 0.86625 0.0766 0.0
H481 H 0.9866 0.91473 0.0413 0.0
H482 H 0.99742 0.92401 0.09123 0.0
H483 H 0.06789 0.88756 0.22539 0.0
H484 H 0.03375 0.89069 0.22008 0.0
H485 H 0.04138 0.92919 0.14509 0.0
H486 H 0.0754 0.92534 0.14952 0.0
H487 H 0.01716 0.90243 0.13185 0.0
H488 H 0.0252 0.94605 0.21583 0.0
H489 H 0.0358 0.95508 0.26594 0.0
H490 H 0.00175 0.90799 0.30158 0.0
H491 H 0.99112 0.89851 0.25164 0.0
C492 C 0.92896 0.9211 0.12635 0.0
C493 C 0.91674 0.90793 0.14084 0.0
C494 C 0.94758 0.92319 0.13569 0.0
C495 C 0.95452 0.91167 0.15913 0.0
C496 C 0.94201 0.89955 0.17493 0.0
C497 C 0.92319 0.89778 0.16594 0.0
C498 C 0.97507 0.91093 0.16524 0.0
C499 C 0.98182 0.91535 0.19363 0.0
C500 C 0.98805 0.90617 0.14278 0.0
C501 C 0.98188 0.90032 0.11269 0.0
C502 C 0.96971 0.88391 0.10824 0.0
C503 C 0.96358 0.87882 0.07989 0.0
C504 C 0.96965 0.88994 0.05579 0.0
C505 C 0.98191 0.90613 0.05999 0.0
C506 C 0.98807 0.9113 0.0883 0.0
C507 C 0.06226 0.8969 0.20803 0.0
C508 C 0.07431 0.90613 0.18779 0.0
C509 C 0.04273 0.89877 0.20509 0.0
C510 C 0.03491 0.91033 0.18231 0.0
C511 C 0.04702 0.92011 0.16276 0.0
C512 C 0.06648 0.91793 0.16533 0.0
C513 C 0.0142 0.91111 0.17731 0.0
C514 C 0.00735 0.90645 0.14907 0.0
C515 C 0.00123 0.91568 0.19992 0.0
C516 C 0.00749 0.92147 0.22997 0.0
C517 C 0.02007 0.93754 0.23434 0.0
C518 C 0.02607 0.94275 0.26271 0.0
C519 C 0.01949 0.93209 0.28692 0.0
C520 C 0.00684 0.91622 0.28281 0.0
C521 C 0.00081 0.91094 0.25448 0.0
H522 H 0.02416 0.93613 0.30886 0.0
H523 H 0.96487 0.886 0.03386 0.0
H524 H 0.38282 0.67921 0.42082 0.0
H525 H 0.37774 0.71469 0.41031 0.0
H526 H 0.34063 0.69863 0.33843 0.0
H527 H 0.34614 0.66309 0.3482 0.0
H528 H 0.3637 0.72636 0.32159 0.0
H529 H 0.32418 0.7183 0.40561 0.0
H530 H 0.31645 0.70839 0.45626 0.0
H531 H 0.35804 0.74936 0.49017 0.0
H532 H 0.3662 0.75932 0.43971 0.0
H533 H 0.33733 0.82697 0.29523 0.0
H534 H 0.33502 0.79154 0.30856 0.0
H535 H 0.37255 0.8019 0.3821 0.0
H536 H 0.37428 0.83744 0.36963 0.0
H537 H 0.34634 0.77671 0.39748 0.0
H538 H 0.38767 0.78233 0.31356 0.0
H539 H 0.3957 0.79213 0.26296 0.0
H540 H 0.3507 0.75547 0.22909 0.0
H541 H 0.34228 0.74563 0.27953 0.0
C542 C 0.37347 0.68322 0.40291 0.0
C543 C 0.36491 0.66832 0.38533 0.0
C544 C 0.37048 0.70353 0.39702 0.0
C545 C 0.35857 0.70936 0.37384 0.0
C546 C 0.34986 0.6945 0.35644 0.0
C547 C 0.35304 0.67419 0.36207 0.0
C548 C 0.3559 0.73092 0.36683 0.0
C549 C 0.35957 0.7373 0.33809 0.0
C550 C 0.35088 0.7453 0.38846 0.0
C551 C 0.34589 0.73945 0.41885 0.0
C552 C 0.33176 0.72511 0.42386 0.0
C553 C 0.32729 0.71949 0.45254 0.0
C554 C 0.33678 0.72821 0.47641 0.0
C555 C 0.35071 0.74261 0.47166 0.0
C556 C 0.35524 0.74827 0.44303 0.0
C557 C 0.34497 0.8217 0.31437 0.0
C558 C 0.35614 0.83494 0.33122 0.0
C559 C 0.34369 0.80144 0.32191 0.0
C560 C 0.35395 0.79395 0.34596 0.0
C561 C 0.36455 0.80731 0.36341 0.0
C562 C 0.36556 0.82762 0.35621 0.0
C563 C 0.35434 0.77212 0.35235 0.0
C564 C 0.35028 0.7657 0.38096 0.0
C565 C 0.35902 0.75768 0.33062 0.0
C566 C 0.36424 0.7634 0.3003 0.0
C567 C 0.37943 0.77644 0.29532 0.0
C568 C 0.38406 0.782 0.26668 0.0
C569 C 0.37369 0.77447 0.24283 0.0
C570 C 0.35871 0.76131 0.24758 0.0
C571 C 0.35401 0.75573 0.27618 0.0
H572 H 0.37728 0.7788 0.22068 0.0
H573 H 0.3333 0.72384 0.4986 0.0
H574 H 0.56803 0.07785 0.60784 0.0
H575 H 0.53605 0.07584 0.62606 0.0
H576 H 0.5516 0.1122 0.70123 0.0
H577 H 0.58395 0.11444 0.68273 0.0
H578 H 0.51671 0.06413 0.67379 0.0
H579 H 0.51481 0.14539 0.71082 0.0
H580 H 0.53283 0.17694 0.7062 0.0
H581 H 0.55093 0.15899 0.6201 0.0
H582 H 0.53286 0.12747 0.62414 0.0
H583 H 0.41681 0.08651 0.67865 0.0
H584 H 0.44932 0.08593 0.69783 0.0
H585 H 0.46847 0.11492 0.61896 0.0
H586 H 0.43653 0.11554 0.59991 0.0
H587 H 0.48555 0.13061 0.6679 0.0
H588 H 0.47016 0.06439 0.62527 0.0
H589 H 0.45204 0.03277 0.62376 0.0
H590 H 0.46844 0.02037 0.71285 0.0
H591 H 0.48649 0.05207 0.71495 0.0
C592 C 0.56478 0.08513 0.62856 0.0
C593 C 0.57842 0.09661 0.64359 0.0
C594 C 0.54649 0.0838 0.63912 0.0
C595 C 0.54133 0.09405 0.66485 0.0
C596 C 0.55525 0.10429 0.6812 0.0
C597 C 0.57372 0.10552 0.67066 0.0
C598 C 0.52098 0.09612 0.67147 0.0
C599 C 0.5099 0.0787 0.67332 0.0
C600 C 0.51202 0.11509 0.67083 0.0
C601 C 0.52272 0.13403 0.66797 0.0
C602 C 0.52263 0.14823 0.69092 0.0
C603 C 0.53284 0.16609 0.68839 0.0
C604 C 0.54308 0.16993 0.66292 0.0
C605 C 0.54305 0.15596 0.63985 0.0
C606 C 0.53284 0.13811 0.64225 0.0
C607 C 0.42797 0.09294 0.66564 0.0
C608 C 0.42412 0.10087 0.63762 0.0
C609 C 0.4465 0.09259 0.6766 0.0
C610 C 0.46131 0.10039 0.6598 0.0
C611 C 0.45728 0.10893 0.6324 0.0
C612 C 0.43898 0.1091 0.6214 0.0
C613 C 0.48131 0.09859 0.66897 0.0
C614 C 0.49233 0.11609 0.67003 0.0
C615 C 0.49019 0.07969 0.67174 0.0
C616 C 0.47944 0.06067 0.6704 0.0
C617 C 0.46977 0.05497 0.64459 0.0
C618 C 0.45954 0.03704 0.64362 0.0
C619 C 0.45903 0.02461 0.66823 0.0
C620 C 0.46881 0.03005 0.69383 0.0
C621 C 0.47903 0.04799 0.69493 0.0
H622 H 0.45111 0.01073 0.66743 0.0
H623 H 0.55099 0.18374 0.66103 0.0
H624 H 0.86539 0.17093 0.92196 0.0
H625 H 0.85869 0.20643 0.91471 0.0
H626 H 0.85395 0.19656 0.82117 0.0
H627 H 0.86065 0.16083 0.82812 0.0
H628 H 0.87732 0.22874 0.83681 0.0
H629 H 0.81545 0.20568 0.85731 0.0
H630 H 0.79115 0.18711 0.88438 0.0
H631 H 0.80179 0.22326 0.96115 0.0
H632 H 0.82652 0.24171 0.93488 0.0
H633 H 0.85588 0.33347 0.83055 0.0
H634 H 0.85131 0.29737 0.82271 0.0
H635 H 0.85469 0.28779 0.91629 0.0
H636 H 0.85914 0.32363 0.9244 0.0
H637 H 0.82704 0.26503 0.89038 0.0
H638 H 0.89276 0.28148 0.87513 0.0
H639 H 0.91889 0.29937 0.85131 0.0
H640 H 0.90196 0.27528 0.76743 0.0
H641 H 0.87556 0.25745 0.79074 0.0
C642 C 0.86287 0.17623 0.89982 0.0
C643 C 0.86364 0.16304 0.87561 0.0
C644 C 0.85891 0.1965 0.89575 0.0
C645 C 0.85564 0.20401 0.86744 0.0
C646 C 0.85634 0.19096 0.84318 0.0
C647 C 0.86016 0.17058 0.84724 0.0
C648 C 0.85255 0.22574 0.86344 0.0
C649 C 0.86603 0.23666 0.84783 0.0
C650 C 0.83798 0.23599 0.87829 0.0
C651 C 0.82294 0.22505 0.89411 0.0
C652 C 0.81272 0.20959 0.88003 0.0
C653 C 0.79885 0.19909 0.89523 0.0
C654 C 0.79491 0.20403 0.92443 0.0
C655 C 0.80485 0.21947 0.93852 0.0
C656 C 0.8188 0.22996 0.92348 0.0
C657 C 0.85545 0.3237 0.84948 0.0
C658 C 0.85809 0.33141 0.87809 0.0
C659 C 0.85285 0.3031 0.84493 0.0
C660 C 0.8528 0.28996 0.86892 0.0
C661 C 0.85465 0.29771 0.8975 0.0
C662 C 0.85733 0.31821 0.90206 0.0
C663 C 0.85213 0.26798 0.86456 0.0
C664 C 0.83797 0.25704 0.87862 0.0
C665 C 0.86619 0.25769 0.8486 0.0
C666 C 0.88205 0.26837 0.83459 0.0
C667 C 0.89452 0.28015 0.85157 0.0
C668 C 0.90939 0.29025 0.83818 0.0
C669 C 0.91204 0.28853 0.80786 0.0
C670 C 0.89985 0.27665 0.79089 0.0
C671 C 0.88494 0.26654 0.80418 0.0
H672 H 0.92356 0.29635 0.79754 0.0
H673 H 0.78415 0.19589 0.93614 0.0
H674 H 0.65402 0.66738 0.29426 0.0
H675 H 0.65484 0.70285 0.30822 0.0
H676 H 0.62832 0.6889 0.39056 0.0
H677 H 0.62743 0.65333 0.37686 0.0
H678 H 0.61146 0.72071 0.36126 0.0
H679 H 0.67341 0.70011 0.39064 0.0
H680 H 0.70452 0.68451 0.38389 0.0
H681 H 0.71702 0.72642 0.31538 0.0
H682 H 0.68585 0.74209 0.32143 0.0
H683 H 0.62327 0.81472 0.43102 0.0
H684 H 0.62598 0.77896 0.41988 0.0
H685 H 0.65328 0.7927 0.3381 0.0
H686 H 0.65073 0.8286 0.34902 0.0
H687 H 0.67016 0.76096 0.36739 0.0
H688 H 0.6086 0.7809 0.33625 0.0
H689 H 0.57738 0.79656 0.34134 0.0
H690 H 0.564 0.75591 0.41105 0.0
H691 H 0.59529 0.74019 0.40667 0.0
C692 C 0.64841 0.67181 0.3154 0.0
C693 C 0.64062 0.6575 0.33443 0.0
C694 C 0.64898 0.69208 0.32338 0.0
C695 C 0.64173 0.69844 0.35047 0.0
C696 C 0.634 0.68424 0.36957 0.0
C697 C 0.63357 0.66393 0.36173 0.0
C698 C 0.64167 0.72002 0.35844 0.0
C699 C 0.62431 0.72945 0.36308 0.0
C700 C 0.65842 0.73149 0.3599 0.0
C701 C 0.67721 0.72215 0.35629 0.0
C702 C 0.68272 0.70589 0.37396 0.0
C703 C 0.70038 0.69705 0.37029 0.0
C704 C 0.71272 0.70443 0.34916 0.0
C705 C 0.70744 0.7207 0.33171 0.0
C706 C 0.68978 0.72958 0.33527 0.0
C707 C 0.62999 0.8102 0.41075 0.0
C708 C 0.63665 0.82458 0.39081 0.0
C709 C 0.63147 0.78973 0.4044 0.0
C710 C 0.63963 0.78322 0.37803 0.0
C711 C 0.6469 0.79745 0.35854 0.0
C712 C 0.64535 0.81795 0.36479 0.0
C713 C 0.63995 0.76158 0.3704 0.0
C714 C 0.65733 0.75218 0.36571 0.0
C715 C 0.62321 0.75013 0.36867 0.0
C716 C 0.60437 0.75952 0.37135 0.0
C717 C 0.59907 0.77542 0.35285 0.0
C718 C 0.58135 0.78428 0.35557 0.0
C719 C 0.56874 0.77727 0.37656 0.0
C720 C 0.5738 0.76135 0.39483 0.0
C721 C 0.59152 0.75245 0.39223 0.0
H722 H 0.55502 0.78415 0.37862 0.0
H723 H 0.72639 0.69757 0.34636 0.0
H724 H 0.86891 0.66888 0.0729 0.0
H725 H 0.86524 0.70508 0.07736 0.0
H726 H 0.85903 0.69965 0.17123 0.0
H727 H 0.86232 0.66313 0.16696 0.0
H728 H 0.83463 0.72708 0.14824 0.0
H729 H 0.90058 0.71422 0.14403 0.0
H730 H 0.92965 0.69925 0.12446 0.0
H731 H 0.92099 0.72969 0.04256 0.0
H732 H 0.89172 0.74463 0.06148 0.0
H733 H 0.8538 0.83414 0.16345 0.0
H734 H 0.85272 0.79756 0.16895 0.0
H735 H 0.85909 0.79035 0.07525 0.0
H736 H 0.86037 0.82658 0.06953 0.0
H737 H 0.8849 0.7693 0.10554 0.0
H738 H 0.81766 0.78044 0.10936 0.0
H739 H 0.78779 0.79372 0.12862 0.0
H740 H 0.79903 0.76638 0.21214 0.0
H741 H 0.82911 0.75317 0.19351 0.0
C742 C 0.86672 0.6753 0.09454 0.0
C743 C 0.86616 0.66311 0.11963 0.0
C744 C 0.86465 0.69603 0.09704 0.0
C745 C 0.86226 0.70505 0.12469 0.0
C746 C 0.86098 0.69295 0.14972 0.0
C747 C 0.86291 0.67211 0.14722 0.0
C748 C 0.86167 0.7272 0.12722 0.0
C749 C 0.84575 0.73638 0.1394 0.0
C750 C 0.87615 0.73923 0.11549 0.0
C751 C 0.89388 0.73045 0.10413 0.0
C752 C 0.90481 0.71763 0.12179 0.0
C753 C 0.92134 0.70916 0.11082 0.0
C754 C 0.92715 0.71349 0.08227 0.0
C755 C 0.91647 0.72635 0.06467 0.0
C756 C 0.89993 0.73484 0.07552 0.0
C757 C 0.85473 0.82476 0.14398 0.0
C758 C 0.85744 0.8333 0.11609 0.0
C759 C 0.85404 0.80387 0.14717 0.0
C760 C 0.8559 0.79129 0.12251 0.0
C761 C 0.85777 0.79982 0.09459 0.0
C762 C 0.85852 0.82057 0.09139 0.0
C763 C 0.85753 0.76926 0.12557 0.0
C764 C 0.87382 0.76007 0.11466 0.0
C765 C 0.84343 0.75732 0.13861 0.0
C766 C 0.82574 0.76601 0.15014 0.0
C767 C 0.8139 0.7775 0.13196 0.0
C768 C 0.79689 0.78495 0.14273 0.0
C769 C 0.79152 0.78087 0.17157 0.0
C770 C 0.80321 0.76951 0.1898 0.0
C771 C 0.82024 0.76205 0.17915 0.0
H772 H 0.77825 0.78642 0.17979 0.0
H773 H 0.93994 0.7069 0.07381 0.0
H774 H 0.63323 0.34408 0.61394 0.0
H775 H 0.63499 0.30885 0.59865 0.0
H776 H 0.65079 0.29213 0.68688 0.0
H777 H 0.64944 0.32718 0.70224 0.0
H778 H 0.67085 0.27149 0.64767 0.0
H779 H 0.60524 0.2877 0.66193 0.0
H780 H 0.57607 0.30685 0.65326 0.0
H781 H 0.57741 0.29083 0.56171 0.0
H782 H 0.60674 0.2718 0.56979 0.0
H783 H 0.64464 0.16957 0.65667 0.0
H784 H 0.64812 0.2058 0.6622 0.0
H785 H 0.63128 0.21387 0.57175 0.0
H786 H 0.62735 0.17759 0.56612 0.0
H787 H 0.61333 0.23949 0.60642 0.0
H788 H 0.67747 0.21993 0.59389 0.0
H789 H 0.70617 0.20026 0.60369 0.0
H790 H 0.70749 0.22211 0.69268 0.0
H791 H 0.67864 0.2417 0.68354 0.0
C792 C 0.63721 0.33294 0.63006 0.0
C793 C 0.64099 0.33849 0.65941 0.0
C794 C 0.63816 0.31279 0.62128 0.0
C795 C 0.64276 0.29783 0.64173 0.0
C796 C 0.64718 0.30341 0.67074 0.0
C797 C 0.64631 0.3235 0.6795 0.0
C798 C 0.64225 0.27625 0.63347 0.0
C799 C 0.65825 0.26445 0.63879 0.0
C800 C 0.62595 0.26717 0.62124 0.0
C801 C 0.60829 0.27853 0.6164 0.0
C802 C 0.59939 0.28839 0.63991 0.0
C803 C 0.58281 0.2992 0.63512 0.0
C804 C 0.57492 0.30011 0.60694 0.0
C805 C 0.58356 0.29015 0.58352 0.0
C806 C 0.60015 0.27935 0.58819 0.0
C807 C 0.64177 0.17899 0.63785 0.0
C808 C 0.6357 0.17061 0.61093 0.0
C809 C 0.64387 0.19973 0.64102 0.0
C810 C 0.64021 0.21254 0.61727 0.0
C811 C 0.63423 0.20426 0.59035 0.0
C812 C 0.63202 0.1835 0.58718 0.0
C813 C 0.64185 0.23463 0.62101 0.0
C814 C 0.62605 0.24653 0.61487 0.0
C815 C 0.65832 0.24378 0.63258 0.0
C816 C 0.6758 0.23218 0.63807 0.0
C817 C 0.68381 0.22044 0.6156 0.0
C818 C 0.70012 0.20932 0.62103 0.0
C819 C 0.70863 0.2099 0.6488 0.0
C820 C 0.70088 0.22167 0.67118 0.0
C821 C 0.68456 0.23281 0.66587 0.0
H822 H 0.72125 0.20127 0.65297 0.0
H823 H 0.56209 0.30848 0.60326 0.0
H824 H 0.07986 0.38233 0.81487 0.0
H825 H 0.04742 0.38345 0.79589 0.0
H826 H 0.03421 0.42997 0.85882 0.0
H827 H 0.0663 0.42861 0.8781 0.0
H828 H 0.01821 0.3736 0.83271 0.0
H829 H 0.99943 0.45923 0.83211 0.0
H830 H 0.01359 0.49088 0.81522 0.0
H831 H 0.047 0.45832 0.75282 0.0
H832 H 0.03286 0.42649 0.76899 0.0
H833 H 0.93666 0.40086 0.90109 0.0
H834 H 0.96817 0.40281 0.88121 0.0
H835 H 0.94559 0.4027 0.79305 0.0
H836 H 0.91351 0.40048 0.81282 0.0
H837 H 0.97822 0.4327 0.81035 0.0
H838 H 0.96176 0.36301 0.80394 0.0
H839 H 0.94724 0.3319 0.82227 0.0
H840 H 0.98471 0.33247 0.8967 0.0
H841 H 0.99925 0.36375 0.87907 0.0
C842 C 0.07016 0.39322 0.82394 0.0
C843 C 0.07548 0.40529 0.84806 0.0
C844 C 0.05166 0.39381 0.81315 0.0
C845 C 0.03843 0.40684 0.82585 0.0
C846 C 0.04422 0.41998 0.84841 0.0
C847 C 0.06252 0.41912 0.85954 0.0
C848 C 0.01804 0.40462 0.81953 0.0
C849 C 0.00949 0.38638 0.82703 0.0
C850 C 0.00666 0.42124 0.81185 0.0
C851 C 0.0151 0.44042 0.80187 0.0
C852 C 0.00969 0.45881 0.81464 0.0
C853 C 0.01775 0.47679 0.80522 0.0
C854 C 0.0312 0.47661 0.78299 0.0
C855 C 0.03662 0.45844 0.7701 0.0
C856 C 0.02861 0.44042 0.77942 0.0
C857 C 0.9382 0.40136 0.87744 0.0
C858 C 0.92245 0.40027 0.85856 0.0
C859 C 0.95629 0.40252 0.86614 0.0
C860 C 0.95915 0.40274 0.83574 0.0
C861 C 0.94358 0.40253 0.81663 0.0
C862 C 0.92531 0.40122 0.82797 0.0
C863 C 0.97867 0.40202 0.8248 0.0
C864 C 0.98701 0.41972 0.81461 0.0
C865 C 0.98993 0.38489 0.82983 0.0
C866 C 0.98157 0.36576 0.84017 0.0
C867 C 0.96685 0.35655 0.82427 0.0
C868 C 0.95861 0.33888 0.83454 0.0
C869 C 0.96504 0.33022 0.86063 0.0
C870 C 0.97976 0.33918 0.87647 0.0
C871 C 0.98803 0.35686 0.86631 0.0
H872 H 0.95863 0.31656 0.86857 0.0
H873 H 0.03742 0.49055 0.77574 0.0
H874 H 0.57553 0.59095 0.26272 0.0
H875 H 0.5412 0.58751 0.26445 0.0
H876 H 0.54424 0.58115 0.3587 0.0
H877 H 0.57819 0.58395 0.35716 0.0
H878 H 0.51995 0.55563 0.3373 0.0
H879 H 0.53327 0.62683 0.32289 0.0
H880 H 0.54605 0.65558 0.29551 0.0
H881 H 0.51158 0.64 0.22088 0.0
H882 H 0.49876 0.61101 0.24775 0.0
H883 H 0.44032 0.5927 0.40605 0.0
H884 H 0.47097 0.58624 0.38501 0.0
H885 H 0.44731 0.59011 0.29768 0.0
H886 H 0.41624 0.597 0.31871 0.0
H887 H 0.47959 0.61156 0.30283 0.0
H888 H 0.46101 0.54455 0.32558 0.0
H889 H 0.44885 0.5168 0.35566 0.0
H890 H 0.49384 0.52548 0.41791 0.0
H891 H 0.50608 0.55349 0.38854 0.0
C892 C 0.56888 0.58864 0.28376 0.0
C893 C 0.57968 0.58785 0.3098 0.0
C894 C 0.54924 0.58676 0.28472 0.0
C895 C 0.54009 0.58429 0.31175 0.0
C896 C 0.55093 0.58299 0.33756 0.0
C897 C 0.57043 0.5847 0.33662 0.0
C898 C 0.51925 0.58364 0.31399 0.0
C899 C 0.51111 0.56787 0.32977 0.0
C900 C 0.50758 0.59921 0.30323 0.0
C901 C 0.51525 0.61663 0.28716 0.0
C902 C 0.52853 0.62946 0.30056 0.0
C903 C 0.53576 0.64581 0.28516 0.0
C904 C 0.52968 0.64958 0.25644 0.0
C905 C 0.51631 0.63704 0.2431 0.0
C906 C 0.50906 0.62065 0.2584 0.0
C907 C 0.44147 0.59209 0.38234 0.0
C908 C 0.42571 0.5954 0.3641 0.0
C909 C 0.45907 0.58822 0.37032 0.0
C910 C 0.46141 0.58732 0.33976 0.0
C911 C 0.44578 0.59057 0.32135 0.0
C912 C 0.42804 0.59449 0.33341 0.0
C913 C 0.48051 0.5841 0.32758 0.0
C914 C 0.4883 0.59906 0.30976 0.0
C915 C 0.49196 0.56791 0.3369 0.0
C916 C 0.48445 0.55117 0.35481 0.0
C917 C 0.46823 0.54065 0.34579 0.0
C918 C 0.46133 0.52485 0.36272 0.0
C919 C 0.4706 0.51936 0.38865 0.0
C920 C 0.48671 0.52972 0.39779 0.0
C921 C 0.49364 0.54554 0.38098 0.0
H922 H 0.46535 0.50706 0.40166 0.0
H923 H 0.53529 0.66224 0.24455 0.0
H924 H 0.57402 0.419 0.64898 0.0
H925 H 0.53976 0.42075 0.64918 0.0
H926 H 0.5386 0.38895 0.73143 0.0
H927 H 0.57306 0.38719 0.73153 0.0
H928 H 0.51428 0.3729 0.68914 0.0
H929 H 0.52696 0.43648 0.73256 0.0
H930 H 0.54234 0.46946 0.7383 0.0
H931 H 0.51979 0.48803 0.655 0.0
H932 H 0.50449 0.45503 0.64853 0.0
H933 H 0.41409 0.38492 0.68333 0.0
H934 H 0.4461 0.38811 0.70357 0.0
H935 H 0.46338 0.41931 0.62548 0.0
H936 H 0.43169 0.41608 0.60514 0.0
H937 H 0.47837 0.4362 0.67677 0.0
H938 H 0.47116 0.37099 0.62988 0.0
H939 H 0.45643 0.33778 0.62258 0.0
H940 H 0.46923 0.32238 0.71203 0.0
H941 H 0.48382 0.35566 0.71996 0.0
C942 C 0.56653 0.4125 0.66727 0.0
C943 C 0.57629 0.40292 0.69023 0.0
C944 C 0.54694 0.41361 0.66742 0.0
C945 C 0.53666 0.40511 0.69044 0.0
C946 C 0.5463 0.39568 0.71355 0.0
C947 C 0.56598 0.39475 0.7136 0.0
C948 C 0.51581 0.40521 0.68918 0.0
C949 C 0.50635 0.38675 0.68723 0.0
C950 C 0.50554 0.42328 0.68621 0.0
C951 C 0.51466 0.44321 0.68998 0.0
C952 C 0.52539 0.44753 0.71535 0.0
C953 C 0.53408 0.46625 0.71875 0.0
C954 C 0.53207 0.48082 0.69701 0.0
C955 C 0.52133 0.47672 0.67183 0.0
C956 C 0.51263 0.45802 0.6683 0.0
C957 C 0.42466 0.39272 0.67072 0.0
C958 C 0.42044 0.40007 0.64253 0.0
C959 C 0.44292 0.39448 0.68226 0.0
C960 C 0.45711 0.40383 0.66591 0.0
C961 C 0.45264 0.41206 0.63846 0.0
C962 C 0.43454 0.41008 0.62679 0.0
C963 C 0.47696 0.40391 0.67607 0.0
C964 C 0.48624 0.42238 0.67953 0.0
C965 C 0.48709 0.38586 0.68035 0.0
C966 C 0.47833 0.36589 0.67563 0.0
C967 C 0.47067 0.36059 0.64807 0.0
C968 C 0.46238 0.34175 0.6438 0.0
C969 C 0.46182 0.32801 0.66687 0.0
C970 C 0.46962 0.33307 0.69422 0.0
C971 C 0.4779 0.35191 0.69861 0.0
H972 H 0.45541 0.31342 0.66352 0.0
H973 H 0.5388 0.49531 0.69969 0.0
H974 H 0.08107 0.56173 0.12278 0.0
H975 H 0.04848 0.5559 0.13754 0.0
H976 H 0.04714 0.61441 0.17884 0.0
H977 H 0.08019 0.61966 0.16563 0.0
H978 H 0.02358 0.58945 0.20661 0.0
H979 H 0.03507 0.60798 0.10571 0.0
H980 H 0.04977 0.60422 0.05702 0.0
H981 H 0.02526 0.54557 0.04738 0.0
H982 H 0.01063 0.54889 0.0962 0.0
H983 H 0.92792 0.6168 0.17267 0.0
H984 H 0.96146 0.61252 0.18389 0.0
H985 H 0.9607 0.55506 0.13935 0.0
H986 H 0.92753 0.55991 0.1269 0.0
H987 H 0.98559 0.57753 0.11632 0.0
H988 H 0.97041 0.56143 0.21609 0.0
H989 H 0.95552 0.56661 0.26434 0.0
H990 H 0.98587 0.62189 0.2759 0.0
H991 H 0.00076 0.61719 0.22755 0.0
C992 C 0.07396 0.57298 0.13594 0.0
C993 C 0.08294 0.59114 0.14303 0.0
C994 C 0.05536 0.56973 0.14424 0.0
C995 C 0.04519 0.58498 0.15852 0.0
C996 C 0.05466 0.60247 0.16772 0.0
C997 C 0.0735 0.60549 0.16015 0.0
C998 C 0.02433 0.58391 0.15995 0.0
C999 C 0.01521 0.58689 0.18692 0.0
C1000 C 0.0134 0.58046 0.13427 0.0
C1001 C 0.02191 0.57861 0.10468 0.0
C1002 C 0.03289 0.59426 0.09324 0.0
C1003 C 0.04121 0.5922 0.06563 0.0
C1004 C 0.03849 0.57465 0.04915 0.0
C1005 C 0.02738 0.55914 0.06019 0.0
C1006 C 0.01906 0.56111 0.08781 0.0
C1007 C 0.93484 0.60299 0.16622 0.0
C1008 C 0.92531 0.58867 0.14895 0.0
C1009 C 0.954 0.6005 0.17268 0.0
C1010 C 0.96369 0.58344 0.16245 0.0
C1011 C 0.9536 0.56839 0.14735 0.0
C1012 C 0.93466 0.5711 0.14034 0.0
C1013 C 0.9846 0.58265 0.16315 0.0
C1014 C 0.99381 0.57964 0.13629 0.0
C1015 C 0.99545 0.58624 0.1889 0.0
C1016 C 0.9866 0.58902 0.21807 0.0
C1017 C 0.97381 0.57477 0.22882 0.0
C1018 C 0.96539 0.5776 0.25621 0.0
C1019 C 0.96972 0.59458 0.27315 0.0
C1020 C 0.98253 0.60874 0.26276 0.0
C1021 C 0.99098 0.60599 0.23538 0.0
H1022 H 0.96318 0.59675 0.29434 0.0
H1023 H 0.04496 0.57307 0.02779 0.0
H1024 H 0.1321 0.54063 0.11416 0.0
H1025 H 0.12708 0.51362 0.07825 0.0
H1026 H 0.13935 0.55465 0.00781 0.0
H1027 H 0.14347 0.58187 0.04357 0.0
H1028 H 0.11195 0.53135 0.99152 0.0
H1029 H 0.17274 0.52024 0.03677 0.0
H1030 H 0.19469 0.51502 0.07826 0.0
H1031 H 0.1643 0.46212 0.10318 0.0
H1032 H 0.14203 0.46716 0.06203 0.0
H1033 H 0.13912 0.46043 0.88124 0.0
H1034 H 0.13696 0.48767 0.91749 0.0
H1035 H 0.12084 0.44503 0.98378 0.0
H1036 H 0.12331 0.41778 0.94791 0.0
H1037 H 0.14851 0.46846 0.003 0.0
H1038 H 0.08912 0.47842 0.95467 0.0
H1039 H 0.06794 0.48356 0.91224 0.0
H1040 H 0.09641 0.53859 0.89195 0.0
H1041 H 0.11796 0.53362 0.93401 0.0
C1042 C 0.13366 0.54386 0.091 0.0
C1043 C 0.13837 0.56324 0.0816 0.0
C1044 C 0.13085 0.52842 0.0705 0.0
C1045 C 0.13323 0.53199 0.04033 0.0
C1046 C 0.13748 0.55151 0.03094 0.0
C1047 C 0.13991 0.56703 0.05139 0.0
C1048 C 0.13186 0.51535 0.01856 0.0
C1049 C 0.12009 0.51767 0.99388 0.0
C1050 C 0.14216 0.4973 0.02191 0.0
C1051 C 0.15563 0.49419 0.04651 0.0
C1052 C 0.17068 0.50756 0.05121 0.0
C1053 C 0.18318 0.50463 0.07465 0.0
C1054 C 0.18086 0.48828 0.09339 0.0
C1055 C 0.16606 0.47479 0.08867 0.0
C1056 C 0.15351 0.47767 0.06529 0.0
C1057 C 0.13492 0.45692 0.90347 0.0
C1058 C 0.13147 0.43699 0.91181 0.0
C1059 C 0.13361 0.47249 0.92412 0.0
C1060 C 0.12863 0.46838 0.9533 0.0
C1061 C 0.12473 0.44853 0.9614 0.0
C1062 C 0.12612 0.43298 0.94086 0.0
C1063 C 0.1287 0.4845 0.9759 0.0
C1064 C 0.14027 0.48207 0.00072 0.0
C1065 C 0.11831 0.50245 0.97254 0.0
C1066 C 0.10526 0.50555 0.94736 0.0
C1067 C 0.09096 0.49154 0.94104 0.0
C1068 C 0.07887 0.49444 0.91707 0.0
C1069 C 0.08085 0.51137 0.89937 0.0
C1070 C 0.0949 0.52547 0.90566 0.0
C1071 C 0.10704 0.52263 0.92958 0.0
H1072 H 0.07148 0.51359 0.88082 0.0
H1073 H 0.19055 0.48603 0.11152 0.0
H1074 H 0.69986 0.88608 0.36182 0.0
H1075 H 0.72806 0.88689 0.33182 0.0
H1076 H 0.69383 0.8891 0.25325 0.0
H1077 H 0.6653 0.88804 0.28333 0.0
H1078 H 0.72335 0.86335 0.24724 0.0
H1079 H 0.71452 0.93122 0.27909 0.0
H1080 H 0.70924 0.95861 0.31478 0.0
H1081 H 0.76101 0.94409 0.35888 0.0
H1082 H 0.76647 0.9164 0.32368 0.0
H1083 H 0.79419 0.8953 0.15071 0.0
H1084 H 0.76616 0.8937 0.18096 0.0
H1085 H 0.80076 0.89025 0.25904 0.0
H1086 H 0.82915 0.89216 0.22869 0.0
H1087 H 0.77113 0.91648 0.26536 0.0
H1088 H 0.78018 0.84898 0.23134 0.0
H1089 H 0.78566 0.82308 0.19352 0.0
H1090 H 0.73299 0.8376 0.15209 0.0
H1091 H 0.72745 0.86404 0.18923 0.0
C1092 C 0.69826 0.88669 0.33815 0.0
C1093 C 0.68033 0.88713 0.32493 0.0
C1094 C 0.71443 0.88723 0.32104 0.0
C1095 C 0.71305 0.88839 0.29034 0.0
C1096 C 0.69518 0.8883 0.27694 0.0
C1097 C 0.67892 0.88773 0.29412 0.0
C1098 C 0.73035 0.88982 0.27246 0.0
C1099 C 0.73368 0.87511 0.25091 0.0
C1100 C 0.74402 0.90493 0.27773 0.0
C1101 C 0.74081 0.9216 0.29891 0.0
C1102 C 0.7247 0.93376 0.29654 0.0
C1103 C 0.72169 0.94936 0.31666 0.0
C1104 C 0.73476 0.95306 0.33913 0.0
C1105 C 0.75089 0.94119 0.34149 0.0
C1106 C 0.75396 0.92555 0.32144 0.0
C1107 C 0.79592 0.89417 0.17432 0.0
C1108 C 0.81392 0.89373 0.18733 0.0
C1109 C 0.77984 0.89321 0.19157 0.0
C1110 C 0.78137 0.89157 0.22219 0.0
C1111 C 0.7993 0.89144 0.23539 0.0
C1112 C 0.81548 0.89245 0.21807 0.0
C1113 C 0.76415 0.88999 0.24021 0.0
C1114 C 0.76083 0.90467 0.26177 0.0
C1115 C 0.75045 0.87492 0.23482 0.0
C1116 C 0.75348 0.85862 0.21295 0.0
C1117 C 0.76981 0.84675 0.21407 0.0
C1118 C 0.77293 0.83196 0.19273 0.0
C1119 C 0.75967 0.82868 0.17039 0.0
C1120 C 0.74325 0.84017 0.16939 0.0
C1121 C 0.74012 0.85507 0.19057 0.0
H1122 H 0.76211 0.81725 0.15385 0.0
H1123 H 0.73241 0.96515 0.35468 0.0
H1124 H 0.36767 0.4578 0.62084 0.0
H1125 H 0.37178 0.48564 0.58664 0.0
H1126 H 0.36572 0.44459 0.51337 0.0
H1127 H 0.3622 0.41666 0.54744 0.0
H1128 H 0.3922 0.47057 0.50203 0.0
H1129 H 0.32893 0.47441 0.53726 0.0
H1130 H 0.3039 0.4764 0.5744 0.0
H1131 H 0.32659 0.5322 0.60655 0.0
H1132 H 0.35193 0.5304 0.56982 0.0
H1133 H 0.36436 0.53833 0.38995 0.0
H1134 H 0.36651 0.51168 0.42645 0.0
H1135 H 0.3762 0.55592 0.49463 0.0
H1136 H 0.37363 0.58272 0.45826 0.0
H1137 H 0.34973 0.52939 0.5101 0.0
H1138 H 0.41183 0.52558 0.46818 0.0
H1139 H 0.43409 0.5227 0.42704 0.0
H1140 H 0.4108 0.46523 0.40361 0.0
H1141 H 0.38817 0.46793 0.44424 0.0
C1142 C 0.36732 0.45472 0.59744 0.0
C1143 C 0.36446 0.43512 0.58677 0.0
C1144 C 0.36961 0.47064 0.57792 0.0
C1145 C 0.36875 0.46724 0.54743 0.0
C1146 C 0.36641 0.44757 0.53679 0.0
C1147 C 0.36433 0.43163 0.55628 0.0
C1148 C 0.36971 0.48421 0.52655 0.0
C1149 C 0.38284 0.48338 0.50367 0.0
C1150 C 0.35764 0.50104 0.5289 0.0
C1151 C 0.34245 0.50215 0.55103 0.0
C1152 C 0.32867 0.48702 0.55241 0.0
C1153 C 0.31442 0.48813 0.57336 0.0
C1154 C 0.31369 0.50438 0.59289 0.0
C1155 C 0.3272 0.5196 0.59145 0.0
C1156 C 0.3415 0.51855 0.57057 0.0
C1157 C 0.36711 0.54237 0.41267 0.0
C1158 C 0.3688 0.56259 0.42129 0.0
C1159 C 0.36843 0.52713 0.43349 0.0
C1160 C 0.37173 0.53181 0.46321 0.0
C1161 C 0.37369 0.55199 0.47179 0.0
C1162 C 0.37225 0.56726 0.451 0.0
C1163 C 0.37219 0.51573 0.48554 0.0
C1164 C 0.35928 0.51672 0.50868 0.0
C1165 C 0.38421 0.49888 0.48306 0.0
C1166 C 0.39821 0.49703 0.45915 0.0
C1167 C 0.4114 0.51237 0.45417 0.0
C1168 C 0.42409 0.51077 0.43093 0.0
C1169 C 0.42382 0.49381 0.41269 0.0
C1170 C 0.41097 0.47837 0.41775 0.0
C1171 C 0.39823 0.47992 0.44089 0.0
H1172 H 0.43356 0.49259 0.39461 0.0
H1173 H 0.30264 0.50522 0.60908 0.0
H1174 H 0.70128 0.11319 0.64125 0.0
H1175 H 0.73087 0.11297 0.66851 0.0
H1176 H 0.70052 0.11195 0.75023 0.0
H1177 H 0.67058 0.11236 0.72291 0.0
H1178 H 0.73101 0.1378 0.75198 0.0
H1179 H 0.71889 0.06937 0.72357 0.0
H1180 H 0.7113 0.04193 0.68882 0.0
H1181 H 0.76129 0.05474 0.63997 0.0
H1182 H 0.76905 0.08246 0.67421 0.0
H1183 H 0.80346 0.10377 0.84523 0.0
H1184 H 0.77476 0.1072 0.81633 0.0
H1185 H 0.80715 0.10684 0.73653 0.0
H1186 H 0.83624 0.10323 0.76557 0.0
H1187 H 0.77614 0.08254 0.73256 0.0
H1188 H 0.78904 0.15009 0.76169 0.0
H1189 H 0.7965 0.17804 0.79563 0.0
H1190 H 0.74531 0.16736 0.8425 0.0
H1191 H 0.73768 0.13911 0.80915 0.0
C1192 C 0.70082 0.11303 0.66504 0.0
C1193 C 0.68356 0.11263 0.67994 0.0
C1194 C 0.71779 0.11284 0.68058 0.0
C1195 C 0.7179 0.1121 0.71136 0.0
C1196 C 0.70072 0.11242 0.72644 0.0
C1197 C 0.68365 0.11263 0.71084 0.0
C1198 C 0.73602 0.11056 0.72758 0.0
C1199 C 0.74078 0.12558 0.74807 0.0
C1200 C 0.74899 0.09492 0.72177 0.0
C1201 C 0.74445 0.07812 0.7013 0.0
C1202 C 0.72819 0.06644 0.7053 0.0
C1203 C 0.72387 0.05081 0.68571 0.0
C1204 C 0.73577 0.04663 0.66216 0.0
C1205 C 0.75207 0.05802 0.6582 0.0
C1206 C 0.75644 0.07368 0.67771 0.0
C1207 C 0.80458 0.10444 0.82153 0.0
C1208 C 0.82217 0.10327 0.80768 0.0
C1209 C 0.78811 0.10651 0.80504 0.0
C1210 C 0.78881 0.10757 0.77431 0.0
C1211 C 0.80632 0.10615 0.76027 0.0
C1212 C 0.82291 0.10411 0.77685 0.0
C1213 C 0.77113 0.10973 0.7571 0.0
C1214 C 0.76643 0.09481 0.73643 0.0
C1215 C 0.75823 0.12549 0.76272 0.0
C1216 C 0.76286 0.14236 0.78303 0.0
C1217 C 0.77946 0.15356 0.77941 0.0
C1218 C 0.7837 0.16948 0.79851 0.0
C1219 C 0.77139 0.17446 0.8212 0.0
C1220 C 0.75483 0.16348 0.8249 0.0
C1221 C 0.75053 0.14752 0.80589 0.0
H1222 H 0.77464 0.18688 0.83582 0.0
H1223 H 0.7324 0.03454 0.64701 0.0
H1224 H 0.86796 0.46052 0.88595 0.0
H1225 H 0.87204 0.48586 0.92484 0.0
H1226 H 0.86874 0.43956 0.99051 0.0
H1227 H 0.86469 0.41425 0.95197 0.0
H1228 H 0.84507 0.47141 0.00133 0.0
H1229 H 0.90976 0.46019 0.97713 0.0
H1230 H 0.93693 0.45756 0.94399 0.0
H1231 H 0.93021 0.51937 0.9198 0.0
H1232 H 0.90278 0.52228 0.95244 0.0
H1233 H 0.86651 0.53336 0.12361 0.0
H1234 H 0.86938 0.50616 0.0874 0.0
H1235 H 0.87573 0.54973 0.01836 0.0
H1236 H 0.87314 0.57689 0.05433 0.0
H1237 H 0.89917 0.5182 0.01051 0.0
H1238 H 0.83362 0.52904 0.0306 0.0
H1239 H 0.80561 0.53223 0.06193 0.0
H1240 H 0.8132 0.47175 0.0919 0.0
H1241 H 0.84143 0.46829 0.06103 0.0
C1242 C 0.86825 0.45577 0.90867 0.0
C1243 C 0.86596 0.43546 0.91598 0.0
C1244 C 0.87065 0.47021 0.93081 0.0
C1245 C 0.87075 0.46449 0.96047 0.0
C1246 C 0.86869 0.44421 0.96773 0.0
C1247 C 0.86641 0.4298 0.94568 0.0
C1248 C 0.87208 0.47974 0.98407 0.0
C1249 C 0.85704 0.48143 0.00367 0.0
C1250 C 0.88751 0.49306 0.98652 0.0
C1251 C 0.90409 0.4914 0.96704 0.0
C1252 C 0.91397 0.47318 0.96456 0.0
C1253 C 0.92944 0.47164 0.94589 0.0
C1254 C 0.93527 0.48827 0.92974 0.0
C1255 C 0.92567 0.50649 0.93229 0.0
C1256 C 0.91016 0.5081 0.95089 0.0
C1257 C 0.8687 0.5371 0.10076 0.0
C1258 C 0.8694 0.5572 0.09171 0.0
C1259 C 0.87032 0.52159 0.08013 0.0
C1260 C 0.87254 0.52599 0.05019 0.0
C1261 C 0.87402 0.54604 0.04135 0.0
C1262 C 0.87243 0.56152 0.06192 0.0
C1263 C 0.87216 0.50984 0.02779 0.0
C1264 C 0.88731 0.50804 0.00834 0.0
C1265 C 0.85675 0.49648 0.02526 0.0
C1266 C 0.83976 0.49849 0.04378 0.0
C1267 C 0.82941 0.51648 0.04406 0.0
C1268 C 0.81348 0.51833 0.0617 0.0
C1269 C 0.80766 0.50222 0.07897 0.0
C1270 C 0.81774 0.48422 0.07856 0.0
C1271 C 0.8337 0.48231 0.06099 0.0
H1272 H 0.79532 0.50368 0.0926 0.0
H1273 H 0.94725 0.48706 0.9153 0.0
H1274 H 0.16947 0.09859 0.7735 0.0
H1275 H 0.19839 0.09928 0.74435 0.0
H1276 H 0.23108 0.10908 0.82337 0.0
H1277 H 0.20242 0.10849 0.85247 0.0
H1278 H 0.24344 0.13239 0.778 0.0
H1279 H 0.22783 0.06298 0.79504 0.0
H1280 H 0.20727 0.03314 0.7939 0.0
H1281 H 0.20333 0.03676 0.69985 0.0
H1282 H 0.22367 0.06681 0.70048 0.0
H1283 H 0.33393 0.10406 0.72389 0.0
H1284 H 0.30499 0.10606 0.75293 0.0
H1285 H 0.27207 0.09271 0.6752 0.0
H1286 H 0.30068 0.09041 0.64638 0.0
H1287 H 0.25977 0.07154 0.72013 0.0
H1288 H 0.27558 0.14049 0.70242 0.0
H1289 H 0.29593 0.17048 0.70302 0.0
H1290 H 0.29924 0.16819 0.79722 0.0
H1291 H 0.27913 0.13798 0.79715 0.0
C1292 C 0.18281 0.1011 0.78457 0.0
C1293 C 0.18369 0.10332 0.81527 0.0
C1294 C 0.19931 0.10142 0.76794 0.0
C1295 C 0.2169 0.10402 0.78177 0.0
C1296 C 0.21768 0.10703 0.81226 0.0
C1297 C 0.20127 0.1066 0.82886 0.0
C1298 C 0.23461 0.1027 0.76484 0.0
C1299 C 0.24711 0.11903 0.76555 0.0
C1300 C 0.23925 0.08538 0.74827 0.0
C1301 C 0.22711 0.06726 0.74784 0.0
C1302 C 0.22246 0.0575 0.77414 0.0
C1303 C 0.21087 0.04054 0.77358 0.0
C1304 C 0.20395 0.0331 0.74683 0.0
C1305 C 0.20867 0.04257 0.72056 0.0
C1306 C 0.22024 0.05956 0.721 0.0
C1307 C 0.32052 0.10148 0.71309 0.0
C1308 C 0.3196 0.09711 0.68285 0.0
C1309 C 0.304 0.10273 0.72964 0.0
C1310 C 0.28634 0.09971 0.71616 0.0
C1311 C 0.2855 0.09508 0.68609 0.0
C1312 C 0.30192 0.09382 0.66962 0.0
C1313 C 0.26863 0.10128 0.73312 0.0
C1314 C 0.25612 0.08495 0.7325 0.0
C1315 C 0.26397 0.11864 0.74964 0.0
C1316 C 0.27602 0.13684 0.74976 0.0
C1317 C 0.28077 0.14628 0.72325 0.0
C1318 C 0.29225 0.16334 0.72349 0.0
C1319 C 0.29892 0.1712 0.75013 0.0
C1320 C 0.29409 0.16206 0.77659 0.0
C1321 C 0.28265 0.14497 0.77647 0.0
H1322 H 0.3078 0.18442 0.75028 0.0
H1323 H 0.19498 0.01996 0.74644 0.0
H1324 H 0.63048 0.53 0.38173 0.0
H1325 H 0.62552 0.50618 0.42151 0.0
H1326 H 0.61592 0.55527 0.48185 0.0
H1327 H 0.62095 0.57929 0.44207 0.0
H1328 H 0.64104 0.52789 0.50325 0.0
H1329 H 0.57962 0.52662 0.45944 0.0
H1330 H 0.55661 0.52351 0.41885 0.0
H1331 H 0.57527 0.46329 0.4017 0.0
H1332 H 0.59858 0.46614 0.44193 0.0
H1333 H 0.61748 0.46578 0.62144 0.0
H1334 H 0.61439 0.49097 0.58294 0.0
H1335 H 0.61981 0.44468 0.51674 0.0
H1336 H 0.62226 0.41927 0.55528 0.0
H1337 H 0.59496 0.47191 0.49939 0.0
H1338 H 0.65781 0.47369 0.53921 0.0
H1339 H 0.68182 0.47635 0.57843 0.0
H1340 H 0.66164 0.53511 0.60134 0.0
H1341 H 0.63733 0.53269 0.56248 0.0
C1342 C 0.62719 0.53575 0.40341 0.0
C1343 C 0.62614 0.55653 0.4088 0.0
C1344 C 0.62426 0.5221 0.42608 0.0
C1345 C 0.62017 0.52896 0.45455 0.0
C1346 C 0.61899 0.54969 0.45998 0.0
C1347 C 0.62185 0.56337 0.43726 0.0
C1348 C 0.61816 0.51446 0.47889 0.0
C1349 C 0.63072 0.51587 0.5027 0.0
C1350 C 0.60505 0.49846 0.47767 0.0
C1351 C 0.59096 0.49666 0.45357 0.0
C1352 C 0.57892 0.51277 0.44688 0.0
C1353 C 0.5658 0.51104 0.42396 0.0
C1354 C 0.56451 0.49323 0.40767 0.0
C1355 C 0.5763 0.47709 0.41432 0.0
C1356 C 0.58945 0.47874 0.43721 0.0
C1357 C 0.6178 0.46094 0.59868 0.0
C1358 C 0.62032 0.4406 0.59133 0.0
C1359 C 0.6161 0.47536 0.5767 0.0
C1360 C 0.61731 0.46977 0.54696 0.0
C1361 C 0.61893 0.44934 0.53954 0.0
C1362 C 0.62036 0.43485 0.56157 0.0
C1363 C 0.61789 0.48531 0.52373 0.0
C1364 C 0.60514 0.48405 0.50009 0.0
C1365 C 0.63095 0.50139 0.5249 0.0
C1366 C 0.64563 0.50292 0.54815 0.0
C1367 C 0.65841 0.48712 0.55275 0.0
C1368 C 0.67209 0.48859 0.57489 0.0
C1369 C 0.67322 0.50586 0.59242 0.0
C1370 C 0.66072 0.52173 0.58777 0.0
C1371 C 0.647 0.52032 0.56569 0.0
H1372 H 0.68382 0.50697 0.60955 0.0
H1373 H 0.55435 0.49193 0.38993 0.0
H1374 H 0.30516 0.89396 0.34678 0.0
H1375 H 0.27447 0.89189 0.32274 0.0
H1376 H 0.29991 0.90628 0.23962 0.0
H1377 H 0.33088 0.90778 0.26355 0.0
H1378 H 0.25413 0.91836 0.29704 0.0
H1379 H 0.27514 0.88433 0.18365 0.0
H1380 H 0.29896 0.86119 0.16353 0.0
H1381 H 0.30512 0.83345 0.24801 0.0
H1382 H 0.28112 0.85617 0.26848 0.0
H1383 H 0.1794 0.9335 0.19752 0.0
H1384 H 0.2101 0.93211 0.22223 0.0
H1385 H 0.20834 0.86728 0.21869 0.0
H1386 H 0.17811 0.86886 0.19239 0.0
H1387 H 0.24165 0.87806 0.20692 0.0
H1388 H 0.19954 0.89554 0.28385 0.0
H1389 H 0.1745 0.91468 0.30864 0.0
H1390 H 0.20828 0.96809 0.30558 0.0
H1391 H 0.23344 0.94932 0.28042 0.0
C1392 C 0.30426 0.89661 0.32335 0.0
C1393 C 0.32042 0.90105 0.30702 0.0
C1394 C 0.28668 0.89547 0.30964 0.0
C1395 C 0.28485 0.89881 0.27934 0.0
C1396 C 0.30099 0.90332 0.26295 0.0
C1397 C 0.31867 0.90428 0.27665 0.0
C1398 C 0.26596 0.898 0.26517 0.0
C1399 C 0.25142 0.90954 0.27734 0.0
C1400 C 0.26223 0.88607 0.23993 0.0
C1401 C 0.27647 0.87212 0.22766 0.0
C1402 C 0.28152 0.87324 0.19789 0.0
C1403 C 0.29506 0.86019 0.18643 0.0
C1404 C 0.30359 0.84591 0.2045 0.0
C1405 C 0.29855 0.84457 0.23405 0.0
C1406 C 0.28499 0.85754 0.2456 0.0
C1407 C 0.18561 0.91901 0.20226 0.0
C1408 C 0.17649 0.90128 0.19359 0.0
C1409 C 0.20308 0.91818 0.21645 0.0
C1410 C 0.21144 0.89957 0.2229 0.0
C1411 C 0.20221 0.88182 0.21406 0.0
C1412 C 0.18492 0.88269 0.19928 0.0
C1413 C 0.22987 0.89867 0.23856 0.0
C1414 C 0.24435 0.88685 0.22666 0.0
C1415 C 0.23336 0.90973 0.26475 0.0
C1416 C 0.21831 0.92105 0.28004 0.0
C1417 C 0.20158 0.91139 0.28831 0.0
C1418 C 0.18737 0.92217 0.30244 0.0
C1419 C 0.18978 0.9426 0.30862 0.0
C1420 C 0.20643 0.95227 0.30075 0.0
C1421 C 0.22068 0.94157 0.28659 0.0
H1422 H 0.17876 0.95092 0.31956 0.0
H1423 H 0.31408 0.83585 0.19559 0.0
H1424 H 0.63779 0.04075 0.62077 0.0
H1425 H 0.6344 0.01181 0.58787 0.0
H1426 H 0.62522 0.05149 0.51457 0.0
H1427 H 0.62845 0.08058 0.54745 0.0
H1428 H 0.6017 0.01846 0.5127 0.0
H1429 H 0.66755 0.0324 0.52504 0.0
H1430 H 0.69674 0.03866 0.55321 0.0
H1431 H 0.69249 0.98039 0.59249 0.0
H1432 H 0.66309 0.97389 0.56486 0.0
H1433 H 0.62913 0.95394 0.39474 0.0
H1434 H 0.62583 0.9812 0.43064 0.0
H1435 H 0.63299 0.93898 0.50136 0.0
H1436 H 0.63618 0.91159 0.46556 0.0
H1437 H 0.65638 0.97243 0.5059 0.0
H1438 H 0.59122 0.95784 0.49015 0.0
H1439 H 0.56245 0.95196 0.46077 0.0
H1440 H 0.56584 0.01173 0.42637 0.0
H1441 H 0.59482 0.01787 0.45519 0.0
C1442 C 0.6349 0.04332 0.5977 0.0
C1443 C 0.63358 0.06291 0.58659 0.0
C1444 C 0.63298 0.02678 0.57894 0.0
C1445 C 0.6298 0.02955 0.54876 0.0
C1446 C 0.62771 0.04907 0.5378 0.0
C1447 C 0.62964 0.06565 0.55657 0.0
C1448 C 0.6297 0.01212 0.52844 0.0
C1449 C 0.6137 0.00849 0.51097 0.0
C1450 C 0.64526 -0.00104 0.52664 0.0
C1451 C 0.66301 0.00275 0.54314 0.0
C1452 C 0.67275 0.02098 0.53987 0.0
C1453 C 0.68935 0.02457 0.55571 0.0
C1454 C 0.69644 0.00996 0.5747 0.0
C1455 C 0.68697 0.99171 0.57781 0.0
C1456 C 0.67034 0.98806 0.56206 0.0
C1457 C 0.62984 0.95045 0.41794 0.0
C1458 C 0.63298 0.93069 0.4274 0.0
C1459 C 0.62787 0.966 0.43839 0.0
C1460 C 0.62909 0.96204 0.4686 0.0
C1461 C 0.63199 0.94229 0.47811 0.0
C1462 C 0.63377 0.92669 0.45767 0.0
C1463 C 0.62838 0.97872 0.49015 0.0
C1464 C 0.6443 0.98228 0.50778 0.0
C1465 C 0.61279 0.99185 0.49191 0.0
C1466 C 0.59531 0.98825 0.47463 0.0
C1467 C 0.58593 0.96967 0.47612 0.0
C1468 C 0.56957 0.9663 0.4596 0.0
C1469 C 0.56235 0.98144 0.44166 0.0
C1470 C 0.57146 1e-05 0.44025 0.0
C1471 C 0.58785 0.00345 0.4567 0.0
H1472 H 0.54967 0.97881 0.42889 0.0
H1473 H 0.70929 0.01276 0.58696 0.0
H1474 H 0.33123 0.38823 0.7271 0.0
H1475 H 0.30246 0.38716 0.75659 0.0
H1476 H 0.26893 0.38628 0.67716 0.0
H1477 H 0.29737 0.38765 0.6478 0.0
H1478 H 0.2555 0.41293 0.71518 0.0
H1479 H 0.27563 0.34389 0.71843 0.0
H1480 H 0.29793 0.31635 0.72821 0.0
H1481 H 0.30048 0.33333 0.81937 0.0
H1482 H 0.27838 0.36116 0.81005 0.0
H1483 H 0.16652 0.38746 0.77343 0.0
H1484 H 0.196 0.38609 0.7459 0.0
H1485 H 0.2275 0.38718 0.82729 0.0
H1486 H 0.19822 0.38823 0.85486 0.0
H1487 H 0.24242 0.3607 0.78958 0.0
H1488 H 0.22238 0.4295 0.78666 0.0
H1489 H 0.20038 0.45736 0.7772 0.0
H1490 H 0.19803 0.44121 0.68572 0.0
H1491 H 0.21982 0.41307 0.69472 0.0
C1492 C 0.31772 0.38772 0.716 0.0
C1493 C 0.31657 0.38806 0.68515 0.0
C1494 C 0.3013 0.38705 0.73283 0.0
C1495 C 0.28354 0.38654 0.71905 0.0
C1496 C 0.28246 0.38673 0.68828 0.0
C1497 C 0.29877 0.38747 0.67152 0.0
C1498 C 0.26595 0.3863 0.7364 0.0
C1499 C 0.25255 0.40136 0.73119 0.0
C1500 C 0.26229 0.37151 0.75782 0.0
C1501 C 0.27551 0.35473 0.76348 0.0
C1502 C 0.28106 0.34185 0.74052 0.0
C1503 C 0.29365 0.32617 0.74598 0.0
C1504 C 0.30066 0.32313 0.77438 0.0
C1505 C 0.29506 0.33572 0.79738 0.0
C1506 C 0.2825 0.35144 0.79202 0.0
C1507 C 0.17973 0.38729 0.78543 0.0
C1508 C 0.18004 0.38807 0.81629 0.0
C1509 C 0.19656 0.38658 0.76969 0.0
C1510 C 0.21396 0.38678 0.78455 0.0
C1511 C 0.21426 0.38703 0.81537 0.0
C1512 C 0.19748 0.38771 0.83108 0.0
C1513 C 0.2319 0.3872 0.76808 0.0
C1514 C 0.24537 0.37225 0.77354 0.0
C1515 C 0.23567 0.40212 0.7469 0.0
C1516 C 0.22258 0.41905 0.74143 0.0
C1517 C 0.21705 0.43179 0.76457 0.0
C1518 C 0.20464 0.44765 0.75929 0.0
C1519 C 0.19777 0.45102 0.73089 0.0
C1520 C 0.20334 0.43856 0.70771 0.0
C1521 C 0.21573 0.42266 0.71289 0.0
H1522 H 0.18817 0.46331 0.72685 0.0
H1523 H 0.3104 0.31098 0.77857 0.0
H1524 H 0.86516 0.03354 0.87932 0.0
H1525 H 0.86715 0.00755 0.917 0.0
H1526 H 0.87868 0.05279 0.98297 0.0
H1527 H 0.8767 0.07888 0.94546 0.0
H1528 H 0.89981 0.01673 0.99059 0.0
H1529 H 0.83594 0.03881 0.97639 0.0
H1530 H 0.80756 0.04671 0.94726 0.0
H1531 H 0.80454 0.98557 0.91706 0.0
H1532 H 0.83311 0.97738 0.94569 0.0
H1533 H 0.8657 0.96195 0.11611 0.0
H1534 H 0.87109 0.98781 0.07879 0.0
H1535 H 0.86068 0.94412 0.01018 0.0
H1536 H 0.85552 0.91829 0.04705 0.0
H1537 H 0.83986 0.97988 0.00476 0.0
H1538 H 0.90307 0.95735 0.02099 0.0
H1539 H 0.93097 0.94938 0.05118 0.0
H1540 H 0.93511 0.01107 0.07849 0.0
H1541 H 0.90698 0.01935 0.0489 0.0
C1542 C 0.86838 0.03792 0.90177 0.0
C1543 C 0.87051 0.05822 0.90957 0.0
C1544 C 0.86955 0.02308 0.92322 0.0
C1545 C 0.87289 0.02834 0.95272 0.0
C1546 C 0.87611 0.04848 0.96029 0.0
C1547 C 0.87484 0.06335 0.93888 0.0
C1548 C 0.87111 0.01312 0.97597 0.0
C1549 C 0.88668 0.00878 0.99395 0.0
C1550 C 0.854 0.0027 0.98003 0.0
C1551 C 0.83677 0.00754 0.96292 0.0
C1552 C 0.82932 0.02709 0.96334 0.0
C1553 C 0.81318 0.03162 0.94695 0.0
C1554 C 0.80428 0.01667 0.93025 0.0
C1555 C 0.81147 0.99714 0.92996 0.0
C1556 C 0.82763 0.99255 0.94628 0.0
C1557 C 0.86461 0.95791 0.09306 0.0
C1558 C 0.86013 0.93819 0.0844 0.0
C1559 C 0.86778 0.97262 0.07185 0.0
C1560 C 0.86631 0.96776 0.04185 0.0
C1561 C 0.86187 0.94808 0.03326 0.0
C1562 C 0.85895 0.93338 0.05434 0.0
C1563 C 0.86859 0.98329 0.01923 0.0
C1564 C 0.85303 0.98777 0.00142 0.0
C1565 C 0.88569 0.99379 0.01547 0.0
C1566 C 0.90276 0.98893 0.03299 0.0
C1567 C 0.90981 0.96919 0.03366 0.0
C1568 C 0.92568 0.96462 0.05063 0.0
C1569 C 0.93477 0.9797 0.06682 0.0
C1570 C 0.92803 -0.0006 0.06598 0.0
C1571 C 0.91212 0.00404 0.04911 0.0
H1572 H 0.94706 0.97613 0.07995 0.0
H1573 H 0.79179 0.02019 0.91759 0.0
H1574 H 0.17327 0.59915 0.22249 0.0
H1575 H 0.20248 0.59986 0.2513 0.0
H1576 H 0.23221 0.62287 0.17624 0.0
H1577 H 0.20327 0.62134 0.14712 0.0
H1578 H 0.25194 0.59478 0.19972 0.0
H1579 H 0.21988 0.65275 0.23844 0.0
H1580 H 0.19342 0.67103 0.26094 0.0
H1581 H 0.1967 0.63317 0.33685 0.0
H1582 H 0.22303 0.6145 0.31465 0.0
H1583 H 0.33635 0.61751 0.27959 0.0
H1584 H 0.30773 0.61978 0.24937 0.0
H1585 H 0.27508 0.5968 0.32141 0.0
H1586 H 0.30335 0.59533 0.35185 0.0
H1587 H 0.2573 0.62648 0.29833 0.0
H1588 H 0.28827 0.56762 0.25887 0.0
H1589 H 0.31452 0.54898 0.23639 0.0
H1590 H 0.31314 0.58834 0.16199 0.0
H1591 H 0.28701 0.60735 0.1842 0.0
C1592 C 0.18602 0.60451 0.21227 0.0
C1593 C 0.18602 0.61019 0.18261 0.0
C1594 C 0.2027 0.605 0.22876 0.0
C1595 C 0.21955 0.61166 0.21607 0.0
C1596 C 0.21943 0.61763 0.18654 0.0
C1597 C 0.20287 0.61681 0.16994 0.0
C1598 C 0.23747 0.61177 0.23312 0.0
C1599 C 0.25317 0.60199 0.22111 0.0
C1600 C 0.23904 0.62078 0.26129 0.0
C1601 C 0.22333 0.63214 0.27477 0.0
C1602 C 0.21489 0.64826 0.25986 0.0
C1603 C 0.19993 0.6587 0.27257 0.0
C1604 C 0.19336 0.65324 0.30028 0.0
C1605 C 0.20179 0.63737 0.31538 0.0
C1606 C 0.21675 0.62687 0.30276 0.0
C1607 C 0.32305 0.6129 0.28885 0.0
C1608 C 0.32206 0.60625 0.31803 0.0
C1609 C 0.30672 0.61412 0.27156 0.0
C1610 C 0.28923 0.60825 0.28299 0.0
C1611 C 0.28835 0.60149 0.31209 0.0
C1612 C 0.30455 0.6006 0.32946 0.0
C1613 C 0.2717 0.60934 0.26505 0.0
C1614 C 0.25608 0.61936 0.27688 0.0
C1615 C 0.2702 0.60052 0.23674 0.0
C1616 C 0.28582 0.58902 0.22333 0.0
C1617 C 0.29365 0.57237 0.23781 0.0
C1618 C 0.30849 0.56173 0.2251 0.0
C1619 C 0.31553 0.5675 0.19782 0.0
C1620 C 0.30769 0.5839 0.18314 0.0
C1621 C 0.29286 0.5946 0.19576 0.0
H1622 H 0.32702 0.55925 0.18802 0.0
H1623 H 0.18177 0.66133 0.31007 0.0
H1624 H 0.36686 0.07127 0.54524 0.0
H1625 H 0.3715 0.04362 0.51063 0.0
H1626 H 0.38141 0.00312 0.58268 0.0
H1627 H 0.37658 0.03085 0.61776 0.0
H1628 H 0.40688 -0.00124 0.53226 0.0
H1629 H 0.3415 -0.00038 0.55532 0.0
H1630 H 0.31041 0.01497 0.5633 0.0
H1631 H 0.30884 0.03447 0.47353 0.0
H1632 H 0.34009 0.01951 0.46514 0.0
H1633 H 0.38702 0.91254 0.43659 0.0
H1634 H 0.38986 0.93648 0.47766 0.0
H1635 H 0.37605 0.9851 0.41922 0.0
H1636 H 0.37332 0.96147 0.37824 0.0
H1637 H 0.35239 0.98203 0.46785 0.0
H1638 H 0.41963 0.98667 0.44799 0.0
H1639 H 0.45188 0.97388 0.44094 0.0
H1640 H 0.44933 0.94349 0.52376 0.0
H1641 H 0.41726 0.95661 0.53168 0.0
C1642 C 0.37018 0.05653 0.55379 0.0
C1643 C 0.37121 0.05316 0.5842 0.0
C1644 C 0.37281 0.04077 0.53398 0.0
C1645 C 0.37663 0.02136 0.54417 0.0
C1646 C 0.37845 0.01803 0.57448 0.0
C1647 C 0.37562 0.03383 0.59442 0.0
C1648 C 0.37766 0.00455 0.52288 0.0
C1649 C 0.39489 0.99478 0.51853 0.0
C1650 C 0.36206 -0.00039 0.50481 0.0
C1651 C 0.34322 0.00859 0.50968 0.0
C1652 C 0.3346 0.00733 0.53735 0.0
C1653 C 0.31694 0.01594 0.54193 0.0
C1654 C 0.30767 0.02573 0.51895 0.0
C1655 C 0.31604 0.0269 0.49132 0.0
C1656 C 0.33373 0.01834 0.48663 0.0
C1657 C 0.38491 0.92838 0.43244 0.0
C1658 C 0.37971 0.9351 0.40428 0.0
C1659 C 0.38663 0.94202 0.45586 0.0
C1660 C 0.3831 0.96252 0.45142 0.0
C1661 C 0.37879 0.96932 0.42307 0.0
C1662 C 0.37721 0.95578 0.39969 0.0
C1663 C 0.38175 0.9766 0.4766 0.0
C1664 C 0.36434 0.9858 0.48178 0.0
C1665 C 0.39715 0.98092 0.49541 0.0
C1666 C 0.41603 0.97238 0.49024 0.0
C1667 C 0.42591 0.97711 0.46456 0.0
C1668 C 0.44417 0.9699 0.46048 0.0
C1669 C 0.45256 0.9577 0.48172 0.0
C1670 C 0.44278 0.95287 0.50726 0.0
C1671 C 0.42462 0.9603 0.51165 0.0
H1672 H 0.46667 0.95208 0.47845 0.0
H1673 H 0.29399 0.03238 0.52254 0.0
H1674 H 0.80357 0.59394 0.15468 0.0
H1675 H 0.77486 0.59499 0.18323 0.0
H1676 H 0.80635 0.6152 0.25931 0.0
H1677 H 0.83555 0.61346 0.23079 0.0
H1678 H 0.78173 0.58766 0.27453 0.0
H1679 H 0.77794 0.64783 0.21856 0.0
H1680 H 0.77911 0.66866 0.17398 0.0
H1681 H 0.73325 0.63512 0.13622 0.0
H1682 H 0.73196 0.6139 0.1804 0.0
H1683 H 0.69668 0.6068 0.35064 0.0
H1684 H 0.72689 0.61155 0.32651 0.0
H1685 H 0.70294 0.58995 0.2448 0.0
H1686 H 0.67243 0.58573 0.26872 0.0
H1687 H 0.72479 0.62171 0.23566 0.0
H1688 H 0.73086 0.55979 0.29032 0.0
H1689 H 0.72995 0.53908 0.33506 0.0
H1690 H 0.7718 0.5768 0.37575 0.0
H1691 H 0.77278 0.59788 0.33137 0.0
C1692 C 0.80445 0.59871 0.17746 0.0
C1693 C 0.82181 0.60377 0.19046 0.0
C1694 C 0.78795 0.59942 0.19374 0.0
C1695 C 0.78834 0.60565 0.22324 0.0
C1696 C 0.8057 0.6105 0.23649 0.0
C1697 C 0.82235 0.60952 0.22021 0.0
C1698 C 0.77057 0.60641 0.24018 0.0
C1699 C 0.76939 0.59545 0.26633 0.0
C1700 C 0.75434 0.6163 0.22925 0.0
C1701 C 0.75493 0.6292 0.20276 0.0
C1702 C 0.76817 0.64482 0.20069 0.0
C1703 C 0.76884 0.65671 0.17549 0.0
C1704 C 0.75628 0.6532 0.15227 0.0
C1705 C 0.74297 0.63782 0.15423 0.0
C1706 C 0.74225 0.62588 0.17936 0.0
C1707 C 0.69783 0.60308 0.32752 0.0
C1708 C 0.68225 0.59572 0.31159 0.0
C1709 C 0.71514 0.60574 0.31378 0.0
C1710 C 0.71729 0.60076 0.28398 0.0
C1711 C 0.70162 0.59382 0.26786 0.0
C1712 C 0.68422 0.59135 0.28154 0.0
C1713 C 0.73588 0.60261 0.26961 0.0
C1714 C 0.73721 0.61411 0.24399 0.0
C1715 C 0.75224 0.5933 0.28109 0.0
C1716 C 0.75176 0.58052 0.30765 0.0
C1717 C 0.73978 0.56374 0.30888 0.0
C1718 C 0.73926 0.55192 0.33416 0.0
C1719 C 0.75077 0.55665 0.35826 0.0
C1720 C 0.76287 0.57317 0.35708 0.0
C1721 C 0.76343 0.58504 0.33187 0.0
H1722 H 0.75035 0.5475 0.37781 0.0
H1723 H 0.75684 0.6624 0.13278 0.0
H1724 H 0.12227 0.91178 0.05668 0.0
H1725 H 0.12078 0.93465 0.01471 0.0
H1726 H 0.12362 0.98544 0.07389 0.0
H1727 H 0.12515 0.96276 0.11583 0.0
H1728 H 0.09748 0.99052 0.02825 0.0
H1729 H 0.16244 0.96964 0.04204 0.0
H1730 H 0.18789 0.94464 0.04593 0.0
H1731 H 0.17465 0.92264 0.95928 0.0
H1732 H 0.14894 0.94736 0.95506 0.0
H1733 H 0.13419 0.07213 0.95141 0.0
H1734 H 0.12796 0.04438 0.98465 0.0
H1735 H 0.13165 0.00245 0.91222 0.0
H1736 H 0.13823 0.03027 0.87874 0.0
H1737 H 0.15105 0.9894 0.95891 0.0
H1738 H 0.08936 0.01368 0.94167 0.0
H1739 H 0.06431 0.03904 0.93701 0.0
H1740 H 0.07054 0.0543 0.0284 0.0
H1741 H 0.09588 0.02928 0.03352 0.0
C1742 C 0.12239 0.92782 0.06074 0.0
C1743 C 0.12398 0.9355 0.0895 0.0
C1744 C 0.12156 0.94084 0.03676 0.0
C1745 C 0.12222 0.9617 0.04125 0.0
C1746 C 0.12306 0.96938 0.07 0.0
C1747 C 0.12404 0.9564 0.09392 0.0
C1748 C 0.12317 0.97565 0.01611 0.0
C1749 C 0.10919 0.99036 0.0131 0.0
C1750 C 0.13816 0.97497 0.99586 0.0
C1751 C 0.15363 0.96016 0.99839 0.0
C1752 C 0.16485 0.95935 0.02393 0.0
C1753 C 0.17934 0.94526 0.02617 0.0
C1754 C 0.18284 0.93201 0.00291 0.0
C1755 C 0.17189 0.93287 0.97731 0.0
C1756 C 0.15737 0.94692 0.97498 0.0
C1757 C 0.13362 0.05702 0.9425 0.0
C1758 C 0.13668 0.05335 0.91248 0.0
C1759 C 0.12993 0.04118 0.9615 0.0
C1760 C 0.12904 0.02138 0.95082 0.0
C1761 C 0.13218 0.01764 0.92086 0.0
C1762 C 0.13592 0.03352 0.90179 0.0
C1763 C 0.12558 0.00464 0.97139 0.0
C1764 C 0.13909 0.98939 0.97361 0.0
C1765 C 0.11008 0.00476 0.99076 0.0
C1766 C 0.09463 0.01966 0.98794 0.0
C1767 C 0.08548 0.02252 0.96075 0.0
C1768 C 0.07122 0.03684 0.95802 0.0
C1769 C 0.06585 0.04829 0.98239 0.0
C1770 C 0.07471 0.04541 0.00955 0.0
C1771 C 0.08902 0.03115 0.01238 0.0
H1772 H 0.05481 0.05937 0.98023 0.0
H1773 H 0.19407 0.92111 0.00468 0.0
H1774 H 0.69457 0.402 0.64561 0.0
H1775 H 0.72527 0.39961 0.66974 0.0
H1776 H 0.69855 0.40256 0.75452 0.0
H1777 H 0.66774 0.40523 0.73045 0.0
H1778 H 0.72843 0.42717 0.75212 0.0
H1779 H 0.71526 0.35841 0.72699 0.0
H1780 H 0.70689 0.33034 0.6938 0.0
H1781 H 0.75625 0.3415 0.64256 0.0
H1782 H 0.76476 0.36987 0.67519 0.0
H1783 H 0.79903 0.3937 0.84651 0.0
H1784 H 0.77076 0.39515 0.81628 0.0
H1785 H 0.80455 0.39676 0.73798 0.0
H1786 H 0.83329 0.39517 0.76839 0.0
H1787 H 0.77273 0.37102 0.7335 0.0
H1788 H 0.78646 0.43904 0.76079 0.0
H1789 H 0.79463 0.46662 0.79499 0.0
H1790 H 0.74382 0.45627 0.84305 0.0
H1791 H 0.73548 0.42842 0.80939 0.0
C1792 C 0.69521 0.4021 0.6694 0.0
C1793 C 0.67875 0.4038 0.68618 0.0
C1794 C 0.71277 0.40064 0.68315 0.0
C1795 C 0.71418 0.40071 0.71392 0.0
C1796 C 0.69776 0.40246 0.73073 0.0
C1797 C 0.68018 0.40395 0.71698 0.0
C1798 C 0.73282 0.39942 0.72862 0.0
C1799 C 0.73802 0.41478 0.74827 0.0
C1800 C 0.74557 0.38355 0.72289 0.0
C1801 C 0.74054 0.36641 0.70336 0.0
C1802 C 0.72425 0.35499 0.7085 0.0
C1803 C 0.71949 0.33901 0.68982 0.0
C1804 C 0.731 0.33417 0.66604 0.0
C1805 C 0.74733 0.34528 0.66096 0.0
C1806 C 0.75213 0.36131 0.67955 0.0
C1807 C 0.80056 0.3943 0.82285 0.0
C1808 C 0.81843 0.39452 0.80983 0.0
C1809 C 0.78434 0.39515 0.80561 0.0
C1810 C 0.78558 0.39637 0.77496 0.0
C1811 C 0.80335 0.39592 0.76166 0.0
C1812 C 0.81971 0.39508 0.77902 0.0
C1813 C 0.76814 0.39861 0.75728 0.0
C1814 C 0.76318 0.38348 0.73709 0.0
C1815 C 0.75554 0.41466 0.76255 0.0
C1816 C 0.76041 0.43155 0.78267 0.0
C1817 C 0.77709 0.44256 0.77877 0.0
C1818 C 0.78174 0.45825 0.79804 0.0
C1819 C 0.76976 0.46317 0.8212 0.0
C1820 C 0.75308 0.45243 0.8251 0.0
C1821 C 0.74838 0.43671 0.8059 0.0
H1822 H 0.77339 0.47532 0.83611 0.0
H1823 H 0.7273 0.32179 0.6516 0.0
loop_
_geom_bond_atom_site_label_1
_geom_bond_atom_site_label_2
_geom_bond_distance
_geom_bond_site_symmetry_2
_ccdc_geom_bond_type
Co0 O1 2.216 . S
Co0 O2 2.091 . S
Co0 O4 2.004 . S
Co0 O10 2.021 . S
Co0 O12 2.137 . S
Co0 O13 2.244 . S
O1 Co0 2.216 . S
O1 C8 1.247 . S
O2 Co0 2.091 . S
O2 C8 1.261 . S
C3 O12 1.247 . S
C3 O13 1.272 . S
O4 Co0 2.004 . S
O4 C9 1.259 . S
Co5 O6 2.061 . S
Co5 O11 2.052 . S
Co5 O13 2.135 . S
O6 Co5 2.061 . S
O6 C9 1.235 . S
C7 O10 1.238 . S
C7 O11 1.241 . S
C8 O1 1.247 . S
C8 O2 1.261 . S
C9 O4 1.259 . S
C9 O6 1.235 . S
O10 Co0 2.021 . S
O10 C7 1.238 . S
O11 Co5 2.052 . S
O11 C7 1.241 . S
O12 Co0 2.137 . S
O12 C3 1.247 . S
O13 Co0 2.244 . S
O13 C3 1.272 . S
O13 Co5 2.135 . S
Co14 O15 2.216 . S
Co14 O16 2.091 . S
Co14 O18 2.004 . S
Co14 O24 2.021 . S
Co14 O26 2.137 . S
Co14 O27 2.244 . S
O15 Co14 2.216 . S
O15 C22 1.247 . S
O16 Co14 2.091 . S
O16 C22 1.261 . S
C17 O26 1.247 . S
C17 O27 1.272 . S
O18 Co14 2.004 . S
O18 C23 1.259 . S
Co19 O20 2.061 . S
Co19 O25 2.052 . S
Co19 O27 2.135 . S
O20 Co19 2.061 . S
O20 C23 1.235 . S
C21 O24 1.238 . S
C21 O25 1.241 . S
C22 O15 1.247 . S
C22 O16 1.261 . S
C23 O18 1.259 . S
C23 O20 1.235 . S
O24 Co14 2.021 . S
O24 C21 1.238 . S
O25 Co19 2.052 . S
O25 C21 1.241 . S
O26 Co14 2.137 . S
O26 C17 1.247 . S
O27 Co14 2.244 . S
O27 C17 1.272 . S
O27 Co19 2.135 . S
Co28 O29 2.216 . S
Co28 O30 2.091 . S
Co28 O32 2.004 . S
Co28 O38 2.021 . S
Co28 O40 2.137 . S
Co28 O41 2.244 . S
O29 Co28 2.216 . S
O29 C36 1.247 . S
O30 Co28 2.091 . S
O30 C36 1.261 . S
C31 O40 1.247 . S
C31 O41 1.272 . S
O32 Co28 2.004 . S
O32 C37 1.259 . S
Co33 O34 2.061 . S
Co33 O39 2.052 . S
Co33 O41 2.135 . S
O34 Co33 2.061 . S
O34 C37 1.235 . S
C35 O38 1.238 . S
C35 O39 1.241 . S
C36 O29 1.247 . S
C36 O30 1.261 . S
C37 O32 1.259 . S
C37 O34 1.235 . S
O38 Co28 2.021 . S
O38 C35 1.238 . S
O39 Co33 2.052 . S
O39 C35 1.241 . S
O40 Co28 2.137 . S
O40 C31 1.247 . S
O41 Co28 2.244 . S
O41 C31 1.272 . S
O41 Co33 2.135 . S
Co42 O43 2.216 . S
Co42 O44 2.091 . S
Co42 O46 2.004 . S
Co42 O52 2.021 . S
Co42 O54 2.137 . S
Co42 O55 2.244 . S
O43 Co42 2.216 . S
O43 C50 1.247 . S
O44 Co42 2.091 . S
O44 C50 1.261 . S
C45 O54 1.247 . S
C45 O55 1.272 . S
O46 Co42 2.004 . S
O46 C51 1.259 . S
Co47 O48 2.061 . S
Co47 O53 2.052 . S
Co47 O55 2.135 . S
O48 Co47 2.061 . S
O48 C51 1.235 . S
C49 O52 1.238 . S
C49 O53 1.241 . S
C50 O43 1.247 . S
C50 O44 1.261 . S
C51 O46 1.259 . S
C51 O48 1.235 . S
O52 Co42 2.021 . S
O52 C49 1.238 . S
O53 Co47 2.052 . S
O53 C49 1.241 . S
O54 Co42 2.137 . S
O54 C45 1.247 . S
O55 Co42 2.244 . S
O55 C45 1.272 . S
O55 Co47 2.135 . S
Co56 O57 2.216 . S
Co56 O58 2.091 . S
Co56 O60 2.004 . S
Co56 O66 2.021 . S
Co56 O68 2.137 . S
Co56 O69 2.244 . S
O57 Co56 2.216 . S
O57 C64 1.247 . S
O58 Co56 2.091 . S
O58 C64 1.261 . S
C59 O68 1.247 . S
C59 O69 1.272 . S
O60 Co56 2.004 . S
O60 C65 1.259 . S
Co61 O62 2.061 . S
Co61 O67 2.052 . S
Co61 O69 2.135 . S
O62 Co61 2.061 . S
O62 C65 1.235 . S
C63 O66 1.238 . S
C63 O67 1.241 . S
C64 O57 1.247 . S
C64 O58 1.261 . S
C65 O60 1.259 . S
C65 O62 1.235 . S
O66 Co56 2.021 . S
O66 C63 1.238 . S
O67 Co61 2.052 . S
O67 C63 1.241 . S
O68 Co56 2.137 . S
O68 C59 1.247 . S
O69 Co56 2.244 . S
O69 C59 1.272 . S
O69 Co61 2.135 . S
Co70 O71 2.216 . S
Co70 O72 2.091 . S
Co70 O74 2.004 . S
Co70 O80 2.021 . S
Co70 O82 2.137 . S
Co70 O83 2.244 . S
O71 Co70 2.216 . S
O71 C78 1.247 . S
O72 Co70 2.091 . S
O72 C78 1.261 . S
C73 O82 1.247 . S
C73 O83 1.272 . S
O74 Co70 2.004 . S
O74 C79 1.259 . S
Co75 O76 2.061 . S
Co75 O81 2.052 . S
Co75 O83 2.135 . S
O76 Co75 2.061 . S
O76 C79 1.235 . S
C77 O80 1.238 . S
C77 O81 1.241 . S
C78 O71 1.247 . S
C78 O72 1.261 . S
C79 O74 1.259 . S
C79 O76 1.235 . S
O80 Co70 2.021 . S
O80 C77 1.238 . S
O81 Co75 2.052 . S
O81 C77 1.241 . S
O82 Co70 2.137 . S
O82 C73 1.247 . S
O83 Co70 2.244 . S
O83 C73 1.272 . S
O83 Co75 2.135 . S
Co84 O85 2.216 . S
Co84 O86 2.091 . S
Co84 O88 2.004 . S
Co84 O94 2.021 . S
Co84 O96 2.137 . S
Co84 O97 2.244 . S
O85 Co84 2.216 . S
O85 C92 1.247 . S
O86 Co84 2.091 . S
O86 C92 1.261 . S
C87 O96 1.247 . S
C87 O97 1.272 . S
O88 Co84 2.004 . S
O88 C93 1.259 . S
Co89 O90 2.061 . S
Co89 O95 2.052 . S
Co89 O97 2.135 . S
O90 Co89 2.061 . S
O90 C93 1.235 . S
C91 O94 1.238 . S
C91 O95 1.241 . S
C92 O85 1.247 . S
C92 O86 1.261 . S
C93 O88 1.259 . S
C93 O90 1.235 . S
O94 Co84 2.021 . S
O94 C91 1.238 . S
O95 Co89 2.052 . S
O95 C91 1.241 . S
O96 Co84 2.137 . S
O96 C87 1.247 . S
O97 Co84 2.244 . S
O97 C87 1.272 . S
O97 Co89 2.135 . S
Co98 O99 2.216 . S
Co98 O100 2.091 . S
Co98 O102 2.004 . S
Co98 O108 2.021 . S
Co98 O110 2.137 . S
Co98 O111 2.244 . S
O99 Co98 2.216 . S
O99 C106 1.247 . S
O100 Co98 2.091 . S
O100 C106 1.261 . S
C101 O110 1.247 . S
C101 O111 1.272 . S
O102 Co98 2.004 . S
O102 C107 1.259 . S
Co103 O104 2.061 . S
Co103 O109 2.052 . S
Co103 O111 2.135 . S
O104 Co103 2.061 . S
O104 C107 1.235 . S
C105 O108 1.238 . S
C105 O109 1.241 . S
C106 O99 1.247 . S
C106 O100 1.261 . S
C107 O102 1.259 . S
C107 O104 1.235 . S
O108 Co98 2.021 . S
O108 C105 1.238 . S
O109 Co103 2.052 . S
O109 C105 1.241 . S
O110 Co98 2.137 . S
O110 C101 1.247 . S
O111 Co98 2.244 . S
O111 C101 1.272 . S
O111 Co103 2.135 . S
Co112 O113 2.216 . S
Co112 O114 2.091 . S
Co112 O116 2.004 . S
Co112 O122 2.021 . S
Co112 O124 2.137 . S
Co112 O125 2.244 . S
O113 Co112 2.216 . S
O113 C120 1.247 . S
O114 Co112 2.091 . S
O114 C120 1.261 . S
C115 O124 1.247 . S
C115 O125 1.272 . S
O116 Co112 2.004 . S
O116 C121 1.259 . S
Co117 O118 2.061 . S
Co117 O123 2.052 . S
Co117 O125 2.135 . S
O118 Co117 2.061 . S
O118 C121 1.235 . S
C119 O122 1.238 . S
C119 O123 1.241 . S
C120 O113 1.247 . S
C120 O114 1.261 . S
C121 O116 1.259 . S
C121 O118 1.235 . S
O122 Co112 2.021 . S
O122 C119 1.238 . S
O123 Co117 2.052 . S
O123 C119 1.241 . S
O124 Co112 2.137 . S
O124 C115 1.247 . S
O125 Co112 2.244 . S
O125 C115 1.272 . S
O125 Co117 2.135 . S
Co126 O127 2.216 . S
Co126 O128 2.091 . S
Co126 O130 2.004 . S
Co126 O136 2.021 . S
Co126 O138 2.137 . S
Co126 O139 2.244 . S
O127 Co126 2.216 . S
O127 C134 1.247 . S
O128 Co126 2.091 . S
O128 C134 1.261 . S
C129 O138 1.247 . S
C129 O139 1.272 . S
O130 Co126 2.004 . S
O130 C135 1.259 . S
Co131 O132 2.061 . S
Co131 O137 2.052 . S
Co131 O139 2.135 . S
O132 Co131 2.061 . S
O132 C135 1.235 . S
C133 O136 1.238 . S
C133 O137 1.241 . S
C134 O127 1.247 . S
C134 O128 1.261 . S
C135 O130 1.259 . S
C135 O132 1.235 . S
O136 Co126 2.021 . S
O136 C133 1.238 . S
O137 Co131 2.052 . S
O137 C133 1.241 . S
O138 Co126 2.137 . S
O138 C129 1.247 . S
O139 Co126 2.244 . S
O139 C129 1.272 . S
O139 Co131 2.135 . S
Co140 O141 2.216 . S
Co140 O142 2.091 . S
Co140 O144 2.004 . S
Co140 O150 2.021 . S
Co140 O152 2.137 . S
Co140 O153 2.244 . S
O141 Co140 2.216 . S
O141 C148 1.247 . S
O142 Co140 2.091 . S
O142 C148 1.261 . S
C143 O152 1.247 . S
C143 O153 1.272 . S
O144 Co140 2.004 . S
O144 C149 1.259 . S
Co145 O146 2.061 . S
Co145 O151 2.052 . S
Co145 O153 2.135 . S
O146 Co145 2.061 . S
O146 C149 1.235 . S
C147 O150 1.238 . S
C147 O151 1.241 . S
C148 O141 1.247 . S
C148 O142 1.261 . S
C149 O144 1.259 . S
C149 O146 1.235 . S
O150 Co140 2.021 . S
O150 C147 1.238 . S
O151 Co145 2.052 . S
O151 C147 1.241 . S
O152 Co140 2.137 . S
O152 C143 1.247 . S
O153 Co140 2.244 . S
O153 C143 1.272 . S
O153 Co145 2.135 . S
Co154 O155 2.216 . S
Co154 O156 2.091 . S
Co154 O158 2.004 . S
Co154 O164 2.021 . S
Co154 O166 2.137 . S
Co154 O167 2.244 . S
O155 Co154 2.216 . S
O155 C162 1.247 . S
O156 Co154 2.091 . S
O156 C162 1.261 . S
C157 O166 1.247 . S
C157 O167 1.272 . S
O158 Co154 2.004 . S
O158 C163 1.259 . S
Co159 O160 2.061 . S
Co159 O165 2.052 . S
Co159 O167 2.135 . S
O160 Co159 2.061 . S
O160 C163 1.235 . S
C161 O164 1.238 . S
C161 O165 1.241 . S
C162 O155 1.247 . S
C162 O156 1.261 . S
C163 O158 1.259 . S
C163 O160 1.235 . S
O164 Co154 2.021 . S
O164 C161 1.238 . S
O165 Co159 2.052 . S
O165 C161 1.241 . S
O166 Co154 2.137 . S
O166 C157 1.247 . S
O167 Co154 2.244 . S
O167 C157 1.272 . S
O167 Co159 2.135 . S
Co168 O169 2.216 . S
Co168 O170 2.091 . S
Co168 O172 2.004 . S
Co168 O178 2.021 . S
Co168 O180 2.137 . S
Co168 O181 2.244 . S
O169 Co168 2.216 . S
O169 C176 1.247 . S
O170 Co168 2.091 . S
O170 C176 1.261 . S
C171 O180 1.247 . S
C171 O181 1.272 . S
O172 Co168 2.004 . S
O172 C177 1.259 . S
Co173 O174 2.061 . S
Co173 O179 2.052 . S
Co173 O181 2.135 . S
O174 Co173 2.061 . S
O174 C177 1.235 . S
C175 O178 1.238 . S
C175 O179 1.241 . S
C176 O169 1.247 . S
C176 O170 1.261 . S
C177 O172 1.259 . S
C177 O174 1.235 . S
O178 Co168 2.021 . S
O178 C175 1.238 . S
O179 Co173 2.052 . S
O179 C175 1.241 . S
O180 Co168 2.137 . S
O180 C171 1.247 . S
O181 Co168 2.244 . S
O181 C171 1.272 . S
O181 Co173 2.135 . S
Co182 O183 2.216 . S
Co182 O184 2.091 . S
Co182 O186 2.004 . S
Co182 O192 2.021 . S
Co182 O194 2.137 . S
Co182 O195 2.244 . S
O183 Co182 2.216 . S
O183 C190 1.247 . S
O184 Co182 2.091 . S
O184 C190 1.261 . S
C185 O194 1.247 . S
C185 O195 1.272 . S
O186 Co182 2.004 . S
O186 C191 1.259 . S
Co187 O188 2.061 . S
Co187 O193 2.052 . S
Co187 O195 2.135 . S
O188 Co187 2.061 . S
O188 C191 1.235 . S
C189 O192 1.238 . S
C189 O193 1.241 . S
C190 O183 1.247 . S
C190 O184 1.261 . S
C191 O186 1.259 . S
C191 O188 1.235 . S
O192 Co182 2.021 . S
O192 C189 1.238 . S
O193 Co187 2.052 . S
O193 C189 1.241 . S
O194 Co182 2.137 . S
O194 C185 1.247 . S
O195 Co182 2.244 . S
O195 C185 1.272 . S
O195 Co187 2.135 . S
Co196 O197 2.216 . S
Co196 O198 2.091 . S
Co196 O200 2.004 . S
Co196 O206 2.021 . S
Co196 O208 2.137 . S
Co196 O209 2.244 . S
O197 Co196 2.216 . S
O197 C204 1.247 . S
O198 Co196 2.091 . S
O198 C204 1.261 . S
C199 O208 1.247 . S
C199 O209 1.272 . S
O200 Co196 2.004 . S
O200 C205 1.259 . S
Co201 O202 2.061 . S
Co201 O207 2.052 . S
Co201 O209 2.135 . S
O202 Co201 2.061 . S
O202 C205 1.235 . S
C203 O206 1.238 . S
C203 O207 1.241 . S
C204 O197 1.247 . S
C204 O198 1.261 . S
C205 O200 1.259 . S
C205 O202 1.235 . S
O206 Co196 2.021 . S
O206 C203 1.238 . S
O207 Co201 2.052 . S
O207 C203 1.241 . S
O208 Co196 2.137 . S
O208 C199 1.247 . S
O209 Co196 2.244 . S
O209 C199 1.272 . S
O209 Co201 2.135 . S
Co210 O211 2.216 . S
Co210 O212 2.091 . S
Co210 O214 2.004 . S
Co210 O220 2.021 . S
Co210 O222 2.137 . S
Co210 O223 2.244 . S
O211 Co210 2.216 . S
O211 C218 1.247 . S
O212 Co210 2.091 . S
O212 C218 1.261 . S
C213 O222 1.247 . S
C213 O223 1.272 . S
O214 Co210 2.004 . S
O214 C219 1.259 . S
Co215 O216 2.061 . S
Co215 O221 2.052 . S
Co215 O223 2.135 . S
O216 Co215 2.061 . S
O216 C219 1.235 . S
C217 O220 1.238 . S
C217 O221 1.241 . S
C218 O211 1.247 . S
C218 O212 1.261 . S
C219 O214 1.259 . S
C219 O216 1.235 . S
O220 Co210 2.021 . S
O220 C217 1.238 . S
O221 Co215 2.052 . S
O221 C217 1.241 . S
O222 Co210 2.137 . S
O222 C213 1.247 . S
O223 Co210 2.244 . S
O223 C213 1.272 . S
O223 Co215 2.135 . S
H224 C242 0.951 . S
H225 C244 0.951 . S
H226 C246 0.950 . S
H227 C247 0.950 . S
H228 C249 0.950 . S
H229 C252 0.950 . S
H230 C253 0.950 . S
H231 C255 0.950 . S
H232 C256 0.950 . S
H233 C257 0.951 . S
H234 C259 0.951 . S
H235 C261 0.950 . S
H236 C262 0.950 . S
H237 C264 0.950 . S
H238 C267 0.950 . S
H239 C268 0.950 . S
H240 C270 0.950 . S
H241 C271 0.950 . S
C242 H224 0.951 . S
C242 C243 1.366 . S
C242 C244 1.388 . S
C243 C242 1.366 . S
C243 C247 1.385 . S
C244 H225 0.951 . S
C244 C242 1.388 . S
C244 C245 1.366 . S
C245 C244 1.366 . S
C245 C246 1.414 . S
C245 C248 1.499 . S
C246 H226 0.950 . S
C246 C245 1.414 . S
C246 C247 1.374 . S
C247 H227 0.950 . S
C247 C243 1.385 . S
C247 C246 1.374 . S
C248 C245 1.499 . S
C248 C249 1.373 . S
C248 C250 1.389 . S
C249 H228 0.950 . S
C249 C248 1.373 . S
C249 C265 1.377 . S
C250 C248 1.389 . S
C250 C251 1.524 . S
C250 C264 1.377 . S
C251 C250 1.524 . S
C251 C252 1.397 . S
C251 C256 1.363 . S
C252 H229 0.950 . S
C252 C251 1.397 . S
C252 C253 1.334 . S
C253 H230 0.950 . S
C253 C252 1.334 . S
C253 C254 1.287 . S
C254 C253 1.287 . S
C254 C255 1.524 . S
C254 H273 0.913 . S
C255 H231 0.950 . S
C255 C254 1.524 . S
C255 C256 1.415 . S
C256 H232 0.950 . S
C256 C251 1.363 . S
C256 C255 1.415 . S
C257 H233 0.951 . S
C257 C258 1.366 . S
C257 C259 1.388 . S
C258 C257 1.366 . S
C258 C262 1.385 . S
C259 H234 0.951 . S
C259 C257 1.388 . S
C259 C260 1.366 . S
C260 C259 1.366 . S
C260 C261 1.414 . S
C260 C263 1.499 . S
C261 H235 0.950 . S
C261 C260 1.414 . S
C261 C262 1.374 . S
C262 H236 0.950 . S
C262 C258 1.385 . S
C262 C261 1.374 . S
C263 C260 1.499 . S
C263 C264 1.373 . S
C263 C265 1.389 . S
C264 H237 0.950 . S
C264 C250 1.377 . S
C264 C263 1.373 . S
C265 C249 1.377 . S
C265 C263 1.389 . S
C265 C266 1.524 . S
C266 C265 1.524 . S
C266 C267 1.397 . S
C266 C271 1.363 . S
C267 H238 0.950 . S
C267 C266 1.397 . S
C267 C268 1.334 . S
C268 H239 0.950 . S
C268 C267 1.334 . S
C268 C269 1.287 . S
C269 C268 1.287 . S
C269 C270 1.524 . S
C269 H272 0.999 . S
C270 H240 0.950 . S
C270 C269 1.524 . S
C270 C271 1.415 . S
C271 H241 0.950 . S
C271 C266 1.363 . S
C271 C270 1.415 . S
H272 C269 0.999 . S
H273 C254 0.913 . S
H274 C292 0.951 . S
H275 C294 0.951 . S
H276 C296 0.950 . S
H277 C297 0.950 . S
H278 C299 0.950 . S
H279 C302 0.950 . S
H280 C303 0.950 . S
H281 C305 0.950 . S
H282 C306 0.950 . S
H283 C307 0.951 . S
H284 C309 0.951 . S
H285 C311 0.950 . S
H286 C312 0.950 . S
H287 C314 0.950 . S
H288 C317 0.950 . S
H289 C318 0.950 . S
H290 C320 0.950 . S
H291 C321 0.950 . S
C292 H274 0.951 . S
C292 C293 1.366 . S
C292 C294 1.388 . S
C293 C292 1.366 . S
C293 C297 1.385 . S
C294 H275 0.951 . S
C294 C292 1.388 . S
C294 C295 1.366 . S
C295 C294 1.366 . S
C295 C296 1.414 . S
C295 C298 1.499 . S
C296 H276 0.950 . S
C296 C295 1.414 . S
C296 C297 1.374 . S
C297 H277 0.950 . S
C297 C293 1.385 . S
C297 C296 1.374 . S
C298 C295 1.499 . S
C298 C299 1.373 . S
C298 C300 1.389 . S
C299 H278 0.950 . S
C299 C298 1.373 . S
C299 C315 1.377 . S
C300 C298 1.389 . S
C300 C301 1.524 . S
C300 C314 1.377 . S
C301 C300 1.524 . S
C301 C302 1.397 . S
C301 C306 1.363 . S
C302 H279 0.950 . S
C302 C301 1.397 . S
C302 C303 1.334 . S
C303 H280 0.950 . S
C303 C302 1.334 . S
C303 C304 1.287 . S
C304 C303 1.287 . S
C304 C305 1.524 . S
C304 H323 0.913 . S
C305 H281 0.950 . S
C305 C304 1.524 . S
C305 C306 1.415 . S
C306 H282 0.950 . S
C306 C301 1.363 . S
C306 C305 1.415 . S
C307 H283 0.951 . S
C307 C308 1.366 . S
C307 C309 1.388 . S
C308 C307 1.366 . S
C308 C312 1.385 . S
C309 H284 0.951 . S
C309 C307 1.388 . S
C309 C310 1.366 . S
C310 C309 1.366 . S
C310 C311 1.414 . S
C310 C313 1.499 . S
C311 H285 0.950 . S
C311 C310 1.414 . S
C311 C312 1.374 . S
C312 H286 0.950 . S
C312 C308 1.385 . S
C312 C311 1.374 . S
C313 C310 1.499 . S
C313 C314 1.373 . S
C313 C315 1.389 . S
C314 H287 0.950 . S
C314 C300 1.377 . S
C314 C313 1.373 . S
C315 C299 1.377 . S
C315 C313 1.389 . S
C315 C316 1.524 . S
C316 C315 1.524 . S
C316 C317 1.397 . S
C316 C321 1.363 . S
C317 H288 0.950 . S
C317 C316 1.397 . S
C317 C318 1.334 . S
C318 H289 0.950 . S
C318 C317 1.334 . S
C318 C319 1.287 . S
C319 C318 1.287 . S
C319 C320 1.524 . S
C319 H322 0.999 . S
C320 H290 0.950 . S
C320 C319 1.524 . S
C320 C321 1.415 . S
C321 H291 0.950 . S
C321 C316 1.363 . S
C321 C320 1.415 . S
H322 C319 0.999 . S
H323 C304 0.913 . S
H324 C342 0.951 . S
H325 C344 0.951 . S
H326 C346 0.950 . S
H327 C347 0.950 . S
H328 C349 0.950 . S
H329 C352 0.950 . S
H330 C353 0.950 . S
H331 C355 0.950 . S
H332 C356 0.950 . S
H333 C357 0.951 . S
H334 C359 0.951 . S
H335 C361 0.950 . S
H336 C362 0.950 . S
H337 C364 0.950 . S
H338 C367 0.950 . S
H339 C368 0.950 . S
H340 C370 0.950 . S
H341 C371 0.950 . S
C342 H324 0.951 . S
C342 C343 1.366 . S
C342 C344 1.388 . S
C343 C342 1.366 . S
C343 C347 1.385 . S
C344 H325 0.951 . S
C344 C342 1.388 . S
C344 C345 1.366 . S
C345 C344 1.366 . S
C345 C346 1.414 . S
C345 C348 1.499 . S
C346 H326 0.950 . S
C346 C345 1.414 . S
C346 C347 1.374 . S
C347 H327 0.950 . S
C347 C343 1.385 . S
C347 C346 1.374 . S
C348 C345 1.499 . S
C348 C349 1.373 . S
C348 C350 1.389 . S
C349 H328 0.950 . S
C349 C348 1.373 . S
C349 C365 1.377 . S
C350 C348 1.389 . S
C350 C351 1.524 . S
C350 C364 1.377 . S
C351 C350 1.524 . S
C351 C352 1.397 . S
C351 C356 1.363 . S
C352 H329 0.950 . S
C352 C351 1.397 . S
C352 C353 1.334 . S
C353 H330 0.950 . S
C353 C352 1.334 . S
C353 C354 1.287 . S
C354 C353 1.287 . S
C354 C355 1.524 . S
C354 H373 0.913 . S
C355 H331 0.950 . S
C355 C354 1.524 . S
C355 C356 1.415 . S
C356 H332 0.950 . S
C356 C351 1.363 . S
C356 C355 1.415 . S
C357 H333 0.951 . S
C357 C358 1.366 . S
C357 C359 1.388 . S
C358 C357 1.366 . S
C358 C362 1.385 . S
C359 H334 0.951 . S
C359 C357 1.388 . S
C359 C360 1.366 . S
C360 C359 1.366 . S
C360 C361 1.414 . S
C360 C363 1.499 . S
C361 H335 0.950 . S
C361 C360 1.414 . S
C361 C362 1.374 . S
C362 H336 0.950 . S
C362 C358 1.385 . S
C362 C361 1.374 . S
C363 C360 1.499 . S
C363 C364 1.373 . S
C363 C365 1.389 . S
C364 H337 0.950 . S
C364 C350 1.377 . S
C364 C363 1.373 . S
C365 C349 1.377 . S
C365 C363 1.389 . S
C365 C366 1.524 . S
C366 C365 1.524 . S
C366 C367 1.397 . S
C366 C371 1.363 . S
C367 H338 0.950 . S
C367 C366 1.397 . S
C367 C368 1.334 . S
C368 H339 0.950 . S
C368 C367 1.334 . S
C368 C369 1.287 . S
C369 C368 1.287 . S
C369 C370 1.524 . S
C369 H372 0.999 . S
C370 H340 0.950 . S
C370 C369 1.524 . S
C370 C371 1.415 . S
C371 H341 0.950 . S
C371 C366 1.363 . S
C371 C370 1.415 . S
H372 C369 0.999 . S
H373 C354 0.913 . S
H374 C392 0.951 . S
H375 C394 0.951 . S
H376 C396 0.950 . S
H377 C397 0.950 . S
H378 C399 0.950 . S
H379 C402 0.950 . S
H380 C403 0.950 . S
H381 C405 0.950 . S
H382 C406 0.950 . S
H383 C407 0.951 . S
H384 C409 0.951 . S
H385 C411 0.950 . S
H386 C412 0.950 . S
H387 C414 0.950 . S
H388 C417 0.950 . S
H389 C418 0.950 . S
H390 C420 0.950 . S
H391 C421 0.950 . S
C392 H374 0.951 . S
C392 C393 1.366 . S
C392 C394 1.388 . S
C393 C392 1.366 . S
C393 C397 1.385 . S
C394 H375 0.951 . S
C394 C392 1.388 . S
C394 C395 1.366 . S
C395 C394 1.366 . S
C395 C396 1.414 . S
C395 C398 1.499 . S
C396 H376 0.950 . S
C396 C395 1.414 . S
C396 C397 1.374 . S
C397 H377 0.950 . S
C397 C393 1.385 . S
C397 C396 1.374 . S
C398 C395 1.499 . S
C398 C399 1.373 . S
C398 C400 1.389 . S
C399 H378 0.950 . S
C399 C398 1.373 . S
C399 C415 1.377 1_455 S
C400 C398 1.389 . S
C400 C401 1.524 . S
C400 C414 1.377 1_455 S
C401 C400 1.524 . S
C401 C402 1.397 . S
C401 C406 1.363 . S
C402 H379 0.950 . S
C402 C401 1.397 . S
C402 C403 1.334 . S
C403 H380 0.950 . S
C403 C402 1.334 . S
C403 C404 1.287 . S
C404 C403 1.287 . S
C404 C405 1.524 . S
C404 H423 0.913 . S
C405 H381 0.950 . S
C405 C404 1.524 . S
C405 C406 1.415 . S
C406 H382 0.950 . S
C406 C401 1.363 . S
C406 C405 1.415 . S
C407 H383 0.951 . S
C407 C408 1.366 . S
C407 C409 1.388 . S
C408 C407 1.366 . S
C408 C412 1.385 . S
C409 H384 0.951 . S
C409 C407 1.388 . S
C409 C410 1.366 . S
C410 C409 1.366 . S
C410 C411 1.414 . S
C410 C413 1.499 . S
C411 H385 0.950 . S
C411 C410 1.414 . S
C411 C412 1.374 . S
C412 H386 0.950 . S
C412 C408 1.385 . S
C412 C411 1.374 . S
C413 C410 1.499 . S
C413 C414 1.373 . S
C413 C415 1.389 . S
C414 H387 0.950 . S
C414 C400 1.377 1_655 S
C414 C413 1.373 . S
C415 C399 1.377 1_655 S
C415 C413 1.389 . S
C415 C416 1.524 . S
C416 C415 1.524 . S
C416 C417 1.397 . S
C416 C421 1.363 . S
C417 H388 0.950 . S
C417 C416 1.397 . S
C417 C418 1.334 . S
C418 H389 0.950 . S
C418 C417 1.334 . S
C418 C419 1.287 . S
C419 C418 1.287 . S
C419 C420 1.524 . S
C419 H422 0.999 . S
C420 H390 0.950 . S
C420 C419 1.524 . S
C420 C421 1.415 . S
C421 H391 0.950 . S
C421 C416 1.363 . S
C421 C420 1.415 . S
H422 C419 0.999 . S
H423 C404 0.913 . S
H424 C442 0.951 . S
H425 C444 0.951 . S
H426 C446 0.950 . S
H427 C447 0.950 . S
H428 C449 0.950 . S
H429 C452 0.950 . S
H430 C453 0.950 . S
H431 C455 0.950 . S
H432 C456 0.950 . S
H433 C457 0.951 . S
H434 C459 0.951 . S
H435 C461 0.950 . S
H436 C462 0.950 . S
H437 C464 0.950 . S
H438 C467 0.950 . S
H439 C468 0.950 . S
H440 C470 0.950 . S
H441 C471 0.950 . S
C442 H424 0.951 . S
C442 C443 1.366 . S
C442 C444 1.388 . S
C443 C442 1.366 . S
C443 C447 1.385 . S
C444 H425 0.951 . S
C444 C442 1.388 . S
C444 C445 1.366 . S
C445 C444 1.366 . S
C445 C446 1.414 . S
C445 C448 1.499 . S
C446 H426 0.950 . S
C446 C445 1.414 . S
C446 C447 1.374 . S
C447 H427 0.950 . S
C447 C443 1.385 . S
C447 C446 1.374 . S
C448 C445 1.499 . S
C448 C449 1.373 . S
C448 C450 1.389 . S
C449 H428 0.950 . S
C449 C448 1.373 . S
C449 C465 1.377 . S
C450 C448 1.389 . S
C450 C451 1.524 . S
C450 C464 1.377 . S
C451 C450 1.524 . S
C451 C452 1.397 . S
C451 C456 1.363 . S
C452 H429 0.950 . S
C452 C451 1.397 . S
C452 C453 1.334 . S
C453 H430 0.950 . S
C453 C452 1.334 . S
C453 C454 1.287 . S
C454 C453 1.287 . S
C454 C455 1.524 . S
C454 H473 0.913 . S
C455 H431 0.950 . S
C455 C454 1.524 . S
C455 C456 1.415 . S
C456 H432 0.950 . S
C456 C451 1.363 . S
C456 C455 1.415 . S
C457 H433 0.951 . S
C457 C458 1.366 . S
C457 C459 1.388 . S
C458 C457 1.366 . S
C458 C462 1.385 . S
C459 H434 0.951 . S
C459 C457 1.388 . S
C459 C460 1.366 . S
C460 C459 1.366 . S
C460 C461 1.414 . S
C460 C463 1.499 . S
C461 H435 0.950 . S
C461 C460 1.414 . S
C461 C462 1.374 . S
C462 H436 0.950 . S
C462 C458 1.385 . S
C462 C461 1.374 . S
C463 C460 1.499 . S
C463 C464 1.373 . S
C463 C465 1.389 . S
C464 H437 0.950 . S
C464 C450 1.377 . S
C464 C463 1.373 . S
C465 C449 1.377 . S
C465 C463 1.389 . S
C465 C466 1.524 . S
C466 C465 1.524 . S
C466 C467 1.397 . S
C466 C471 1.363 . S
C467 H438 0.950 . S
C467 C466 1.397 . S
C467 C468 1.334 . S
C468 H439 0.950 . S
C468 C467 1.334 . S
C468 C469 1.287 . S
C469 C468 1.287 . S
C469 C470 1.524 . S
C469 H472 0.999 . S
C470 H440 0.950 . S
C470 C469 1.524 . S
C470 C471 1.415 . S
C471 H441 0.950 . S
C471 C466 1.363 . S
C471 C470 1.415 . S
H472 C469 0.999 . S
H473 C454 0.913 . S
H474 C492 0.951 . S
H475 C494 0.951 . S
H476 C496 0.950 . S
H477 C497 0.950 . S
H478 C499 0.950 . S
H479 C502 0.950 . S
H480 C503 0.950 . S
H481 C505 0.950 . S
H482 C506 0.973 . S
H483 C507 0.951 . S
H484 C509 0.951 . S
H485 C511 0.950 . S
H486 C512 0.950 . S
H487 C514 0.950 . S
H488 C517 0.950 . S
H489 C518 0.950 . S
H490 C520 0.950 . S
H491 C521 0.950 . S
C492 H474 0.951 . S
C492 C493 1.366 . S
C492 C494 1.388 . S
C493 C492 1.366 . S
C493 C497 1.385 . S
C494 H475 0.951 . S
C494 C492 1.388 . S
C494 C495 1.366 . S
C495 C494 1.366 . S
C495 C496 1.414 . S
C495 C498 1.499 . S
C496 H476 0.950 . S
C496 C495 1.414 . S
C496 C497 1.374 . S
C497 H477 0.950 . S
C497 C493 1.385 . S
C497 C496 1.374 . S
C498 C495 1.499 . S
C498 C499 1.373 . S
C498 C500 1.389 . S
C499 H478 0.950 . S
C499 C498 1.373 . S
C499 C515 1.377 1_655 S
C500 C498 1.389 . S
C500 C501 1.524 . S
C500 C514 1.377 1_655 S
C501 C500 1.524 . S
C501 C502 1.397 . S
C501 C506 1.363 . S
C502 H479 0.950 . S
C502 C501 1.397 . S
C502 C503 1.334 . S
C503 H480 0.950 . S
C503 C502 1.334 . S
C503 C504 1.287 . S
C504 C503 1.287 . S
C504 C505 1.524 . S
C504 H523 0.913 . S
C505 H481 0.950 . S
C505 C504 1.524 . S
C505 C506 1.415 . S
C506 H482 0.973 . S
C506 C501 1.363 . S
C506 C505 1.415 . S
C507 H483 0.951 . S
C507 C508 1.366 . S
C507 C509 1.388 . S
C508 C507 1.366 . S
C508 C512 1.385 . S
C509 H484 0.951 . S
C509 C507 1.388 . S
C509 C510 1.366 . S
C510 C509 1.366 . S
C510 C511 1.414 . S
C510 C513 1.499 . S
C511 H485 0.950 . S
C511 C510 1.414 . S
C511 C512 1.374 . S
C512 H486 0.950 . S
C512 C508 1.385 . S
C512 C511 1.374 . S
C513 C510 1.499 . S
C513 C514 1.373 . S
C513 C515 1.389 . S
C514 H487 0.950 . S
C514 C500 1.377 1_455 S
C514 C513 1.373 . S
C515 C499 1.377 1_455 S
C515 C513 1.389 . S
C515 C516 1.524 . S
C516 C515 1.524 . S
C516 C517 1.397 . S
C516 C521 1.363 . S
C517 H488 0.950 . S
C517 C516 1.397 . S
C517 C518 1.334 . S
C518 H489 0.950 . S
C518 C517 1.334 . S
C518 C519 1.287 . S
C519 C518 1.287 . S
C519 C520 1.524 . S
C519 H522 0.999 . S
C520 H490 0.950 . S
C520 C519 1.524 . S
C520 C521 1.415 . S
C521 H491 0.950 . S
C521 C516 1.363 . S
C521 C520 1.415 . S
H522 C519 0.999 . S
H523 C504 0.913 . S
H524 C542 0.951 . S
H525 C544 0.951 . S
H526 C546 0.950 . S
H527 C547 0.950 . S
H528 C549 0.950 . S
H529 C552 0.950 . S
H530 C553 0.950 . S
H531 C555 0.950 . S
H532 C556 0.950 . S
H533 C557 0.951 . S
H534 C559 0.951 . S
H535 C561 0.950 . S
H536 C562 0.950 . S
H537 C564 0.950 . S
H538 C567 0.950 . S
H539 C568 0.950 . S
H540 C570 0.950 . S
H541 C571 0.950 . S
C542 H524 0.951 . S
C542 C543 1.366 . S
C542 C544 1.388 . S
C543 C542 1.366 . S
C543 C547 1.385 . S
C544 H525 0.951 . S
C544 C542 1.388 . S
C544 C545 1.366 . S
C545 C544 1.366 . S
C545 C546 1.414 . S
C545 C548 1.499 . S
C546 H526 0.950 . S
C546 C545 1.414 . S
C546 C547 1.374 . S
C547 H527 0.950 . S
C547 C543 1.385 . S
C547 C546 1.374 . S
C548 C545 1.499 . S
C548 C549 1.373 . S
C548 C550 1.389 . S
C549 H528 0.950 . S
C549 C548 1.373 . S
C549 C565 1.377 . S
C550 C548 1.389 . S
C550 C551 1.524 . S
C550 C564 1.377 . S
C551 C550 1.524 . S
C551 C552 1.397 . S
C551 C556 1.363 . S
C552 H529 0.950 . S
C552 C551 1.397 . S
C552 C553 1.334 . S
C553 H530 0.950 . S
C553 C552 1.334 . S
C553 C554 1.287 . S
C554 C553 1.287 . S
C554 C555 1.524 . S
C554 H573 0.913 . S
C555 H531 0.950 . S
C555 C554 1.524 . S
C555 C556 1.415 . S
C556 H532 0.950 . S
C556 C551 1.363 . S
C556 C555 1.415 . S
C557 H533 0.951 . S
C557 C558 1.366 . S
C557 C559 1.388 . S
C558 C557 1.366 . S
C558 C562 1.385 . S
C559 H534 0.951 . S
C559 C557 1.388 . S
C559 C560 1.366 . S
C560 C559 1.366 . S
C560 C561 1.414 . S
C560 C563 1.499 . S
C561 H535 0.950 . S
C561 C560 1.414 . S
C561 C562 1.374 . S
C562 H536 0.950 . S
C562 C558 1.385 . S
C562 C561 1.374 . S
C563 C560 1.499 . S
C563 C564 1.373 . S
C563 C565 1.389 . S
C564 H537 0.950 . S
C564 C550 1.377 . S
C564 C563 1.373 . S
C565 C549 1.377 . S
C565 C563 1.389 . S
C565 C566 1.524 . S
C566 C565 1.524 . S
C566 C567 1.397 . S
C566 C571 1.363 . S
C567 H538 0.950 . S
C567 C566 1.397 . S
C567 C568 1.334 . S
C568 H539 0.950 . S
C568 C567 1.334 . S
C568 C569 1.287 . S
C569 C568 1.287 . S
C569 C570 1.524 . S
C569 H572 0.999 . S
C570 H540 0.950 . S
C570 C569 1.524 . S
C570 C571 1.415 . S
C571 H541 0.950 . S
C571 C566 1.363 . S
C571 C570 1.415 . S
H572 C569 0.999 . S
H573 C554 0.913 . S
H574 C592 0.951 . S
H575 C594 0.951 . S
H576 C596 0.950 . S
H577 C597 0.950 . S
H578 C599 0.950 . S
H579 C602 0.950 . S
H580 C603 0.950 . S
H581 C605 0.950 . S
H582 C606 0.950 . S
H583 C607 0.951 . S
H584 C609 0.951 . S
H585 C611 0.950 . S
H586 C612 0.950 . S
H587 C614 0.950 . S
H588 C617 0.950 . S
H589 C618 0.950 . S
H590 C620 0.950 . S
H591 C621 0.950 . S
C592 H574 0.951 . S
C592 C593 1.366 . S
C592 C594 1.388 . S
C593 C592 1.366 . S
C593 C597 1.385 . S
C594 H575 0.951 . S
C594 C592 1.388 . S
C594 C595 1.366 . S
C595 C594 1.366 . S
C595 C596 1.414 . S
C595 C598 1.499 . S
C596 H576 0.950 . S
C596 C595 1.414 . S
C596 C597 1.374 . S
C597 H577 0.950 . S
C597 C593 1.385 . S
C597 C596 1.374 . S
C598 C595 1.499 . S
C598 C599 1.373 . S
C598 C600 1.389 . S
C599 H578 0.950 . S
C599 C598 1.373 . S
C599 C615 1.377 . S
C600 C598 1.389 . S
C600 C601 1.524 . S
C600 C614 1.377 . S
C601 C600 1.524 . S
C601 C602 1.397 . S
C601 C606 1.363 . S
C602 H579 0.950 . S
C602 C601 1.397 . S
C602 C603 1.334 . S
C603 H580 0.950 . S
C603 C602 1.334 . S
C603 C604 1.287 . S
C604 C603 1.287 . S
C604 C605 1.524 . S
C604 H623 0.913 . S
C605 H581 0.950 . S
C605 C604 1.524 . S
C605 C606 1.415 . S
C606 H582 0.950 . S
C606 C601 1.363 . S
C606 C605 1.415 . S
C607 H583 0.951 . S
C607 C608 1.366 . S
C607 C609 1.388 . S
C608 C607 1.366 . S
C608 C612 1.385 . S
C609 H584 0.951 . S
C609 C607 1.388 . S
C609 C610 1.366 . S
C610 C609 1.366 . S
C610 C611 1.414 . S
C610 C613 1.499 . S
C611 H585 0.950 . S
C611 C610 1.414 . S
C611 C612 1.374 . S
C612 H586 0.950 . S
C612 C608 1.385 . S
C612 C611 1.374 . S
C613 C610 1.499 . S
C613 C614 1.373 . S
C613 C615 1.389 . S
C614 H587 0.950 . S
C614 C600 1.377 . S
C614 C613 1.373 . S
C615 C599 1.377 . S
C615 C613 1.389 . S
C615 C616 1.524 . S
C616 C615 1.524 . S
C616 C617 1.397 . S
C616 C621 1.363 . S
C617 H588 0.950 . S
C617 C616 1.397 . S
C617 C618 1.334 . S
C618 H589 0.950 . S
C618 C617 1.334 . S
C618 C619 1.287 . S
C619 C618 1.287 . S
C619 C620 1.524 . S
C619 H622 0.999 . S
C620 H590 0.950 . S
C620 C619 1.524 . S
C620 C621 1.415 . S
C621 H591 0.950 . S
C621 C616 1.363 . S
C621 C620 1.415 . S
H622 C619 0.999 . S
H623 C604 0.913 . S
H624 C642 0.951 . S
H625 C644 0.951 . S
H626 C646 0.950 . S
H627 C647 0.950 . S
H628 C649 0.950 . S
H629 C652 0.950 . S
H630 C653 0.950 . S
H631 C655 0.950 . S
H632 C656 0.950 . S
H633 C657 0.951 . S
H634 C659 0.951 . S
H635 C661 0.950 . S
H636 C662 0.950 . S
H637 C664 0.950 . S
H638 C667 0.950 . S
H639 C668 0.950 . S
H640 C670 0.950 . S
H641 C671 0.950 . S
C642 H624 0.951 . S
C642 C643 1.366 . S
C642 C644 1.388 . S
C643 C642 1.366 . S
C643 C647 1.385 . S
C644 H625 0.951 . S
C644 C642 1.388 . S
C644 C645 1.366 . S
C645 C644 1.366 . S
C645 C646 1.414 . S
C645 C648 1.499 . S
C646 H626 0.950 . S
C646 C645 1.414 . S
C646 C647 1.374 . S
C647 H627 0.950 . S
C647 C643 1.385 . S
C647 C646 1.374 . S
C648 C645 1.499 . S
C648 C649 1.373 . S
C648 C650 1.389 . S
C649 H628 0.950 . S
C649 C648 1.373 . S
C649 C665 1.377 . S
C650 C648 1.389 . S
C650 C651 1.524 . S
C650 C664 1.377 . S
C651 C650 1.524 . S
C651 C652 1.397 . S
C651 C656 1.363 . S
C652 H629 0.950 . S
C652 C651 1.397 . S
C652 C653 1.334 . S
C653 H630 0.950 . S
C653 C652 1.334 . S
C653 C654 1.287 . S
C654 C653 1.287 . S
C654 C655 1.524 . S
C654 H673 0.913 . S
C655 H631 0.950 . S
C655 C654 1.524 . S
C655 C656 1.415 . S
C656 H632 0.950 . S
C656 C651 1.363 . S
C656 C655 1.415 . S
C657 H633 0.951 . S
C657 C658 1.366 . S
C657 C659 1.388 . S
C658 C657 1.366 . S
C658 C662 1.385 . S
C659 H634 0.951 . S
C659 C657 1.388 . S
C659 C660 1.366 . S
C660 C659 1.366 . S
C660 C661 1.414 . S
C660 C663 1.499 . S
C661 H635 0.950 . S
C661 C660 1.414 . S
C661 C662 1.374 . S
C662 H636 0.950 . S
C662 C658 1.385 . S
C662 C661 1.374 . S
C663 C660 1.499 . S
C663 C664 1.373 . S
C663 C665 1.389 . S
C664 H637 0.950 . S
C664 C650 1.377 . S
C664 C663 1.373 . S
C665 C649 1.377 . S
C665 C663 1.389 . S
C665 C666 1.524 . S
C666 C665 1.524 . S
C666 C667 1.397 . S
C666 C671 1.363 . S
C667 H638 0.950 . S
C667 C666 1.397 . S
C667 C668 1.334 . S
C668 H639 0.950 . S
C668 C667 1.334 . S
C668 C669 1.287 . S
C669 C668 1.287 . S
C669 C670 1.524 . S
C669 H672 0.999 . S
C670 H640 0.950 . S
C670 C669 1.524 . S
C670 C671 1.415 . S
C671 H641 0.950 . S
C671 C666 1.363 . S
C671 C670 1.415 . S
H672 C669 0.999 . S
H673 C654 0.913 . S
H674 C692 0.951 . S
H675 C694 0.951 . S
H676 C696 0.950 . S
H677 C697 0.950 . S
H678 C699 0.950 . S
H679 C702 0.950 . S
H680 C703 0.950 . S
H681 C705 0.950 . S
H682 C706 0.950 . S
H683 C707 0.951 . S
H684 C709 0.951 . S
H685 C711 0.950 . S
H686 C712 0.950 . S
H687 C714 0.950 . S
H688 C717 0.950 . S
H689 C718 0.950 . S
H690 C720 0.950 . S
H691 C721 0.950 . S
C692 H674 0.951 . S
C692 C693 1.366 . S
C692 C694 1.388 . S
C693 C692 1.366 . S
C693 C697 1.385 . S
C694 H675 0.951 . S
C694 C692 1.388 . S
C694 C695 1.366 . S
C695 C694 1.366 . S
C695 C696 1.414 . S
C695 C698 1.499 . S
C696 H676 0.950 . S
C696 C695 1.414 . S
C696 C697 1.374 . S
C697 H677 0.950 . S
C697 C693 1.385 . S
C697 C696 1.374 . S
C698 C695 1.499 . S
C698 C699 1.373 . S
C698 C700 1.389 . S
C699 H678 0.950 . S
C699 C698 1.373 . S
C699 C715 1.377 . S
C700 C698 1.389 . S
C700 C701 1.524 . S
C700 C714 1.377 . S
C701 C700 1.524 . S
C701 C702 1.397 . S
C701 C706 1.363 . S
C702 H679 0.950 . S
C702 C701 1.397 . S
C702 C703 1.334 . S
C703 H680 0.950 . S
C703 C702 1.334 . S
C703 C704 1.287 . S
C704 C703 1.287 . S
C704 C705 1.524 . S
C704 H723 0.913 . S
C705 H681 0.950 . S
C705 C704 1.524 . S
C705 C706 1.415 . S
C706 H682 0.950 . S
C706 C701 1.363 . S
C706 C705 1.415 . S
C707 H683 0.951 . S
C707 C708 1.366 . S
C707 C709 1.388 . S
C708 C707 1.366 . S
C708 C712 1.385 . S
C709 H684 0.951 . S
C709 C707 1.388 . S
C709 C710 1.366 . S
C710 C709 1.366 . S
C710 C711 1.414 . S
C710 C713 1.499 . S
C711 H685 0.950 . S
C711 C710 1.414 . S
C711 C712 1.374 . S
C712 H686 0.950 . S
C712 C708 1.385 . S
C712 C711 1.374 . S
C713 C710 1.499 . S
C713 C714 1.373 . S
C713 C715 1.389 . S
C714 H687 0.950 . S
C714 C700 1.377 . S
C714 C713 1.373 . S
C715 C699 1.377 . S
C715 C713 1.389 . S
C715 C716 1.524 . S
C716 C715 1.524 . S
C716 C717 1.397 . S
C716 C721 1.363 . S
C717 H688 0.950 . S
C717 C716 1.397 . S
C717 C718 1.334 . S
C718 H689 0.950 . S
C718 C717 1.334 . S
C718 C719 1.287 . S
C719 C718 1.287 . S
C719 C720 1.524 . S
C719 H722 0.999 . S
C720 H690 0.950 . S
C720 C719 1.524 . S
C720 C721 1.415 . S
C721 H691 0.950 . S
C721 C716 1.363 . S
C721 C720 1.415 . S
H722 C719 0.999 . S
H723 C704 0.913 . S
H724 C742 0.951 . S
H725 C744 0.951 . S
H726 C746 0.950 . S
H727 C747 0.950 . S
H728 C749 0.950 . S
H729 C752 0.950 . S
H730 C753 0.950 . S
H731 C755 0.950 . S
H732 C756 0.950 . S
H733 C757 0.951 . S
H734 C759 0.951 . S
H735 C761 0.950 . S
H736 C762 0.950 . S
H737 C764 0.950 . S
H738 C767 0.950 . S
H739 C768 0.950 . S
H740 C770 0.950 . S
H741 C771 0.950 . S
C742 H724 0.951 . S
C742 C743 1.366 . S
C742 C744 1.388 . S
C743 C742 1.366 . S
C743 C747 1.385 . S
C744 H725 0.951 . S
C744 C742 1.388 . S
C744 C745 1.366 . S
C745 C744 1.366 . S
C745 C746 1.414 . S
C745 C748 1.499 . S
C746 H726 0.950 . S
C746 C745 1.414 . S
C746 C747 1.374 . S
C747 H727 0.950 . S
C747 C743 1.385 . S
C747 C746 1.374 . S
C748 C745 1.499 . S
C748 C749 1.373 . S
C748 C750 1.389 . S
C749 H728 0.950 . S
C749 C748 1.373 . S
C749 C765 1.377 . S
C750 C748 1.389 . S
C750 C751 1.524 . S
C750 C764 1.377 . S
C751 C750 1.524 . S
C751 C752 1.397 . S
C751 C756 1.363 . S
C752 H729 0.950 . S
C752 C751 1.397 . S
C752 C753 1.334 . S
C753 H730 0.950 . S
C753 C752 1.334 . S
C753 C754 1.287 . S
C754 C753 1.287 . S
C754 C755 1.524 . S
C754 H773 0.913 . S
C755 H731 0.950 . S
C755 C754 1.524 . S
C755 C756 1.415 . S
C756 H732 0.950 . S
C756 C751 1.363 . S
C756 C755 1.415 . S
C757 H733 0.951 . S
C757 C758 1.366 . S
C757 C759 1.388 . S
C758 C757 1.366 . S
C758 C762 1.385 . S
C759 H734 0.951 . S
C759 C757 1.388 . S
C759 C760 1.366 . S
C760 C759 1.366 . S
C760 C761 1.414 . S
C760 C763 1.499 . S
C761 H735 0.950 . S
C761 C760 1.414 . S
C761 C762 1.374 . S
C762 H736 0.950 . S
C762 C758 1.385 . S
C762 C761 1.374 . S
C763 C760 1.499 . S
C763 C764 1.373 . S
C763 C765 1.389 . S
C764 H737 0.950 . S
C764 C750 1.377 . S
C764 C763 1.373 . S
C765 C749 1.377 . S
C765 C763 1.389 . S
C765 C766 1.524 . S
C766 C765 1.524 . S
C766 C767 1.397 . S
C766 C771 1.363 . S
C767 H738 0.950 . S
C767 C766 1.397 . S
C767 C768 1.334 . S
C768 H739 0.950 . S
C768 C767 1.334 . S
C768 C769 1.287 . S
C769 C768 1.287 . S
C769 C770 1.524 . S
C769 H772 0.999 . S
C770 H740 0.950 . S
C770 C769 1.524 . S
C770 C771 1.415 . S
C771 H741 0.950 . S
C771 C766 1.363 . S
C771 C770 1.415 . S
H772 C769 0.999 . S
H773 C754 0.913 . S
H774 C792 0.951 . S
H775 C794 0.951 . S
H776 C796 0.950 . S
H777 C797 0.950 . S
H778 C799 0.950 . S
H779 C802 0.950 . S
H780 C803 0.950 . S
H781 C805 0.950 . S
H782 C806 0.950 . S
H783 C807 0.951 . S
H784 C809 0.951 . S
H785 C811 0.950 . S
H786 C812 0.950 . S
H787 C814 0.950 . S
H788 C817 0.950 . S
H789 C818 0.950 . S
H790 C820 0.950 . S
H791 C821 0.950 . S
C792 H774 0.951 . S
C792 C793 1.366 . S
C792 C794 1.388 . S
C793 C792 1.366 . S
C793 C797 1.385 . S
C794 H775 0.951 . S
C794 C792 1.388 . S
C794 C795 1.366 . S
C795 C794 1.366 . S
C795 C796 1.414 . S
C795 C798 1.499 . S
C796 H776 0.950 . S
C796 C795 1.414 . S
C796 C797 1.374 . S
C797 H777 0.950 . S
C797 C793 1.385 . S
C797 C796 1.374 . S
C798 C795 1.499 . S
C798 C799 1.373 . S
C798 C800 1.389 . S
C799 H778 0.950 . S
C799 C798 1.373 . S
C799 C815 1.377 . S
C800 C798 1.389 . S
C800 C801 1.524 . S
C800 C814 1.377 . S
C801 C800 1.524 . S
C801 C802 1.397 . S
C801 C806 1.363 . S
C802 H779 0.950 . S
C802 C801 1.397 . S
C802 C803 1.334 . S
C803 H780 0.950 . S
C803 C802 1.334 . S
C803 C804 1.287 . S
C804 C803 1.287 . S
C804 C805 1.524 . S
C804 H823 0.913 . S
C805 H781 0.950 . S
C805 C804 1.524 . S
C805 C806 1.415 . S
C806 H782 0.950 . S
C806 C801 1.363 . S
C806 C805 1.415 . S
C807 H783 0.951 . S
C807 C808 1.366 . S
C807 C809 1.388 . S
C808 C807 1.366 . S
C808 C812 1.385 . S
C809 H784 0.951 . S
C809 C807 1.388 . S
C809 C810 1.366 . S
C810 C809 1.366 . S
C810 C811 1.414 . S
C810 C813 1.499 . S
C811 H785 0.950 . S
C811 C810 1.414 . S
C811 C812 1.374 . S
C812 H786 0.950 . S
C812 C808 1.385 . S
C812 C811 1.374 . S
C813 C810 1.499 . S
C813 C814 1.373 . S
C813 C815 1.389 . S
C814 H787 0.950 . S
C814 C800 1.377 . S
C814 C813 1.373 . S
C815 C799 1.377 . S
C815 C813 1.389 . S
C815 C816 1.524 . S
C816 C815 1.524 . S
C816 C817 1.397 . S
C816 C821 1.363 . S
C817 H788 0.950 . S
C817 C816 1.397 . S
C817 C818 1.334 . S
C818 H789 0.950 . S
C818 C817 1.334 . S
C818 C819 1.287 . S
C819 C818 1.287 . S
C819 C820 1.524 . S
C819 H822 0.999 . S
C820 H790 0.950 . S
C820 C819 1.524 . S
C820 C821 1.415 . S
C821 H791 0.950 . S
C821 C816 1.363 . S
C821 C820 1.415 . S
H822 C819 0.999 . S
H823 C804 0.913 . S
H824 C842 0.951 . S
H825 C844 0.951 . S
H826 C846 0.950 . S
H827 C847 0.950 . S
H828 C849 0.950 . S
H829 C852 0.950 . S
H830 C853 0.950 . S
H831 C855 0.950 . S
H832 C856 0.950 . S
H833 C857 0.951 . S
H834 C859 0.951 . S
H835 C861 0.950 . S
H836 C862 0.950 . S
H837 C864 0.950 . S
H838 C867 0.950 . S
H839 C868 0.950 . S
H840 C870 0.950 . S
H841 C871 0.950 . S
C842 H824 0.951 . S
C842 C843 1.366 . S
C842 C844 1.388 . S
C843 C842 1.366 . S
C843 C847 1.385 . S
C844 H825 0.951 . S
C844 C842 1.388 . S
C844 C845 1.366 . S
C845 C844 1.366 . S
C845 C846 1.414 . S
C845 C848 1.499 . S
C846 H826 0.950 . S
C846 C845 1.414 . S
C846 C847 1.374 . S
C847 H827 0.950 . S
C847 C843 1.385 . S
C847 C846 1.374 . S
C848 C845 1.499 . S
C848 C849 1.373 . S
C848 C850 1.389 . S
C849 H828 0.950 . S
C849 C848 1.373 . S
C849 C865 1.377 1_455 S
C850 C848 1.389 . S
C850 C851 1.524 . S
C850 C864 1.377 1_455 S
C851 C850 1.524 . S
C851 C852 1.397 . S
C851 C856 1.363 . S
C852 H829 0.950 . S
C852 C851 1.397 . S
C852 C853 1.334 . S
C853 H830 0.950 . S
C853 C852 1.334 . S
C853 C854 1.287 . S
C854 C853 1.287 . S
C854 C855 1.524 . S
C854 H873 0.913 . S
C855 H831 0.950 . S
C855 C854 1.524 . S
C855 C856 1.415 . S
C856 H832 0.950 . S
C856 C851 1.363 . S
C856 C855 1.415 . S
C857 H833 0.951 . S
C857 C858 1.366 . S
C857 C859 1.388 . S
C858 C857 1.366 . S
C858 C862 1.385 . S
C859 H834 0.951 . S
C859 C857 1.388 . S
C859 C860 1.366 . S
C860 C859 1.366 . S
C860 C861 1.414 . S
C860 C863 1.499 . S
C861 H835 0.950 . S
C861 C860 1.414 . S
C861 C862 1.374 . S
C862 H836 0.950 . S
C862 C858 1.385 . S
C862 C861 1.374 . S
C863 C860 1.499 . S
C863 C864 1.373 . S
C863 C865 1.389 . S
C864 H837 0.950 . S
C864 C850 1.377 1_655 S
C864 C863 1.373 . S
C865 C849 1.377 1_655 S
C865 C863 1.389 . S
C865 C866 1.524 . S
C866 C865 1.524 . S
C866 C867 1.397 . S
C866 C871 1.363 . S
C867 H838 0.950 . S
C867 C866 1.397 . S
C867 C868 1.334 . S
C868 H839 0.950 . S
C868 C867 1.334 . S
C868 C869 1.287 . S
C869 C868 1.287 . S
C869 C870 1.524 . S
C869 H872 0.999 . S
C870 H840 0.950 . S
C870 C869 1.524 . S
C870 C871 1.415 . S
C871 H841 0.950 . S
C871 C866 1.363 . S
C871 C870 1.415 . S
H872 C869 0.999 . S
H873 C854 0.913 . S
H874 C892 0.951 . S
H875 C894 0.951 . S
H876 C896 0.950 . S
H877 C897 0.950 . S
H878 C899 0.950 . S
H879 C902 0.950 . S
H880 C903 0.950 . S
H881 C905 0.950 . S
H882 C906 0.950 . S
H883 C907 0.951 . S
H884 C909 0.951 . S
H885 C911 0.950 . S
H886 C912 0.950 . S
H887 C914 0.950 . S
H888 C917 0.950 . S
H889 C918 0.950 . S
H890 C920 0.950 . S
H891 C921 0.950 . S
C892 H874 0.951 . S
C892 C893 1.366 . S
C892 C894 1.388 . S
C893 C892 1.366 . S
C893 C897 1.385 . S
C894 H875 0.951 . S
C894 C892 1.388 . S
C894 C895 1.366 . S
C895 C894 1.366 . S
C895 C896 1.414 . S
C895 C898 1.499 . S
C896 H876 0.950 . S
C896 C895 1.414 . S
C896 C897 1.374 . S
C897 H877 0.950 . S
C897 C893 1.385 . S
C897 C896 1.374 . S
C898 C895 1.499 . S
C898 C899 1.373 . S
C898 C900 1.389 . S
C899 H878 0.950 . S
C899 C898 1.373 . S
C899 C915 1.377 . S
C900 C898 1.389 . S
C900 C901 1.524 . S
C900 C914 1.377 . S
C901 C900 1.524 . S
C901 C902 1.397 . S
C901 C906 1.363 . S
C902 H879 0.950 . S
C902 C901 1.397 . S
C902 C903 1.334 . S
C903 H880 0.950 . S
C903 C902 1.334 . S
C903 C904 1.287 . S
C904 C903 1.287 . S
C904 C905 1.524 . S
C904 H923 0.913 . S
C905 H881 0.950 . S
C905 C904 1.524 . S
C905 C906 1.415 . S
C906 H882 0.950 . S
C906 C901 1.363 . S
C906 C905 1.415 . S
C907 H883 0.951 . S
C907 C908 1.366 . S
C907 C909 1.388 . S
C908 C907 1.366 . S
C908 C912 1.385 . S
C909 H884 0.951 . S
C909 C907 1.388 . S
C909 C910 1.366 . S
C910 C909 1.366 . S
C910 C911 1.414 . S
C910 C913 1.499 . S
C911 H885 0.950 . S
C911 C910 1.414 . S
C911 C912 1.374 . S
C912 H886 0.950 . S
C912 C908 1.385 . S
C912 C911 1.374 . S
C913 C910 1.499 . S
C913 C914 1.373 . S
C913 C915 1.389 . S
C914 H887 0.950 . S
C914 C900 1.377 . S
C914 C913 1.373 . S
C915 C899 1.377 . S
C915 C913 1.389 . S
C915 C916 1.524 . S
C916 C915 1.524 . S
C916 C917 1.397 . S
C916 C921 1.363 . S
C917 H888 0.950 . S
C917 C916 1.397 . S
C917 C918 1.334 . S
C918 H889 0.950 . S
C918 C917 1.334 . S
C918 C919 1.287 . S
C919 C918 1.287 . S
C919 C920 1.524 . S
C919 H922 0.999 . S
C920 H890 0.950 . S
C920 C919 1.524 . S
C920 C921 1.415 . S
C921 H891 0.950 . S
C921 C916 1.363 . S
C921 C920 1.415 . S
H922 C919 0.999 . S
H923 C904 0.913 . S
H924 C942 0.951 . S
H925 C944 0.951 . S
H926 C946 0.950 . S
H927 C947 0.950 . S
H928 C949 0.950 . S
H929 C952 0.950 . S
H930 C953 0.950 . S
H931 C955 0.950 . S
H932 C956 0.950 . S
H933 C957 0.951 . S
H934 C959 0.951 . S
H935 C961 0.950 . S
H936 C962 0.950 . S
H937 C964 0.950 . S
H938 C967 0.950 . S
H939 C968 0.950 . S
H940 C970 0.950 . S
H941 C971 0.950 . S
C942 H924 0.951 . S
C942 C943 1.366 . S
C942 C944 1.388 . S
C943 C942 1.366 . S
C943 C947 1.385 . S
C944 H925 0.951 . S
C944 C942 1.388 . S
C944 C945 1.366 . S
C945 C944 1.366 . S
C945 C946 1.414 . S
C945 C948 1.499 . S
C946 H926 0.950 . S
C946 C945 1.414 . S
C946 C947 1.374 . S
C947 H927 0.950 . S
C947 C943 1.385 . S
C947 C946 1.374 . S
C948 C945 1.499 . S
C948 C949 1.373 . S
C948 C950 1.389 . S
C949 H928 0.950 . S
C949 C948 1.373 . S
C949 C965 1.377 . S
C950 C948 1.389 . S
C950 C951 1.524 . S
C950 C964 1.377 . S
C951 C950 1.524 . S
C951 C952 1.397 . S
C951 C956 1.363 . S
C952 H929 0.950 . S
C952 C951 1.397 . S
C952 C953 1.334 . S
C953 H930 0.950 . S
C953 C952 1.334 . S
C953 C954 1.287 . S
C954 C953 1.287 . S
C954 C955 1.524 . S
C954 H973 0.913 . S
C955 H931 0.950 . S
C955 C954 1.524 . S
C955 C956 1.415 . S
C956 H932 0.950 . S
C956 C951 1.363 . S
C956 C955 1.415 . S
C957 H933 0.951 . S
C957 C958 1.366 . S
C957 C959 1.388 . S
C958 C957 1.366 . S
C958 C962 1.385 . S
C959 H934 0.951 . S
C959 C957 1.388 . S
C959 C960 1.366 . S
C960 C959 1.366 . S
C960 C961 1.414 . S
C960 C963 1.499 . S
C961 H935 0.950 . S
C961 C960 1.414 . S
C961 C962 1.374 . S
C962 H936 0.950 . S
C962 C958 1.385 . S
C962 C961 1.374 . S
C963 C960 1.499 . S
C963 C964 1.373 . S
C963 C965 1.389 . S
C964 H937 0.950 . S
C964 C950 1.377 . S
C964 C963 1.373 . S
C965 C949 1.377 . S
C965 C963 1.389 . S
C965 C966 1.524 . S
C966 C965 1.524 . S
C966 C967 1.397 . S
C966 C971 1.363 . S
C967 H938 0.950 . S
C967 C966 1.397 . S
C967 C968 1.334 . S
C968 H939 0.950 . S
C968 C967 1.334 . S
C968 C969 1.287 . S
C969 C968 1.287 . S
C969 C970 1.524 . S
C969 H972 0.999 . S
C970 H940 0.950 . S
C970 C969 1.524 . S
C970 C971 1.415 . S
C971 H941 0.950 . S
C971 C966 1.363 . S
C971 C970 1.415 . S
H972 C969 0.999 . S
H973 C954 0.913 . S
H974 C992 0.951 . S
H975 C994 0.951 . S
H976 C996 0.950 . S
H977 C997 0.950 . S
H978 C999 0.950 . S
H979 C1002 0.950 . S
H980 C1003 0.950 . S
H981 C1005 0.950 . S
H982 C1006 0.950 . S
H983 C1007 0.951 . S
H984 C1009 0.951 . S
H985 C1011 0.950 . S
H986 C1012 0.950 . S
H987 C1014 0.950 . S
H988 C1017 0.950 . S
H989 C1018 0.950 . S
H990 C1020 0.950 . S
H991 C1021 0.950 . S
C992 H974 0.951 . S
C992 C993 1.366 . S
C992 C994 1.388 . S
C993 C992 1.366 . S
C993 C997 1.385 . S
C994 H975 0.951 . S
C994 C992 1.388 . S
C994 C995 1.366 . S
C995 C994 1.366 . S
C995 C996 1.414 . S
C995 C998 1.499 . S
C996 H976 0.950 . S
C996 C995 1.414 . S
C996 C997 1.374 . S
C997 H977 0.950 . S
C997 C993 1.385 . S
C997 C996 1.374 . S
C998 C995 1.499 . S
C998 C999 1.373 . S
C998 C1000 1.389 . S
C999 H978 0.950 . S
C999 C998 1.373 . S
C999 C1015 1.377 1_455 S
C1000 C998 1.389 . S
C1000 C1001 1.524 . S
C1000 C1014 1.377 1_455 S
C1001 C1000 1.524 . S
C1001 C1002 1.397 . S
C1001 C1006 1.363 . S
C1002 H979 0.950 . S
C1002 C1001 1.397 . S
C1002 C1003 1.334 . S
C1003 H980 0.950 . S
C1003 C1002 1.334 . S
C1003 C1004 1.287 . S
C1004 C1003 1.287 . S
C1004 C1005 1.524 . S
C1004 H1023 0.913 . S
C1005 H981 0.950 . S
C1005 C1004 1.524 . S
C1005 C1006 1.415 . S
C1006 H982 0.950 . S
C1006 C1001 1.363 . S
C1006 C1005 1.415 . S
C1007 H983 0.951 . S
C1007 C1008 1.366 . S
C1007 C1009 1.388 . S
C1008 C1007 1.366 . S
C1008 C1012 1.385 . S
C1009 H984 0.951 . S
C1009 C1007 1.388 . S
C1009 C1010 1.366 . S
C1010 C1009 1.366 . S
C1010 C1011 1.414 . S
C1010 C1013 1.499 . S
C1011 H985 0.950 . S
C1011 C1010 1.414 . S
C1011 C1012 1.374 . S
C1012 H986 0.950 . S
C1012 C1008 1.385 . S
C1012 C1011 1.374 . S
C1013 C1010 1.499 . S
C1013 C1014 1.373 . S
C1013 C1015 1.389 . S
C1014 H987 0.950 . S
C1014 C1000 1.377 1_655 S
C1014 C1013 1.373 . S
C1015 C999 1.377 1_655 S
C1015 C1013 1.389 . S
C1015 C1016 1.524 . S
C1016 C1015 1.524 . S
C1016 C1017 1.397 . S
C1016 C1021 1.363 . S
C1017 H988 0.950 . S
C1017 C1016 1.397 . S
C1017 C1018 1.334 . S
C1018 H989 0.950 . S
C1018 C1017 1.334 . S
C1018 C1019 1.287 . S
C1019 C1018 1.287 . S
C1019 C1020 1.524 . S
C1019 H1022 0.999 . S
C1020 H990 0.950 . S
C1020 C1019 1.524 . S
C1020 C1021 1.415 . S
C1021 H991 0.950 . S
C1021 C1016 1.363 . S
C1021 C1020 1.415 . S
H1022 C1019 0.999 . S
H1023 C1004 0.913 . S
H1024 C1042 0.951 . S
H1025 C1044 0.951 . S
H1026 C1046 0.950 . S
H1027 C1047 0.950 . S
H1028 C1049 0.950 . S
H1029 C1052 0.950 . S
H1030 C1053 0.950 . S
H1031 C1055 0.950 . S
H1032 C1056 0.950 . S
H1033 C1057 0.951 . S
H1034 C1059 0.951 . S
H1035 C1061 0.950 . S
H1036 C1062 0.950 . S
H1037 C1064 0.950 . S
H1038 C1067 0.950 . S
H1039 C1068 0.950 . S
H1040 C1070 0.950 . S
H1041 C1071 0.950 . S
C1042 H1024 0.951 . S
C1042 C1043 1.366 . S
C1042 C1044 1.388 . S
C1043 C1042 1.366 . S
C1043 C1047 1.385 . S
C1044 H1025 0.951 . S
C1044 C1042 1.388 . S
C1044 C1045 1.366 . S
C1045 C1044 1.366 . S
C1045 C1046 1.414 . S
C1045 C1048 1.499 . S
C1046 H1026 0.950 . S
C1046 C1045 1.414 . S
C1046 C1047 1.374 . S
C1047 H1027 0.950 . S
C1047 C1043 1.385 . S
C1047 C1046 1.374 . S
C1048 C1045 1.499 . S
C1048 C1049 1.373 1_554 S
C1048 C1050 1.389 . S
C1049 H1028 0.950 . S
C1049 C1048 1.373 1_556 S
C1049 C1065 1.377 . S
C1050 C1048 1.389 . S
C1050 C1051 1.524 . S
C1050 C1064 1.377 . S
C1051 C1050 1.524 . S
C1051 C1052 1.397 . S
C1051 C1056 1.363 . S
C1052 H1029 0.950 . S
C1052 C1051 1.397 . S
C1052 C1053 1.334 . S
C1053 H1030 0.950 . S
C1053 C1052 1.334 . S
C1053 C1054 1.287 . S
C1054 C1053 1.287 . S
C1054 C1055 1.524 . S
C1054 H1073 0.913 . S
C1055 H1031 0.950 . S
C1055 C1054 1.524 . S
C1055 C1056 1.415 . S
C1056 H1032 0.950 . S
C1056 C1051 1.363 . S
C1056 C1055 1.415 . S
C1057 H1033 0.951 . S
C1057 C1058 1.366 . S
C1057 C1059 1.388 . S
C1058 C1057 1.366 . S
C1058 C1062 1.385 . S
C1059 H1034 0.951 . S
C1059 C1057 1.388 . S
C1059 C1060 1.366 . S
C1060 C1059 1.366 . S
C1060 C1061 1.414 . S
C1060 C1063 1.499 . S
C1061 H1035 0.950 . S
C1061 C1060 1.414 . S
C1061 C1062 1.374 . S
C1062 H1036 0.950 . S
C1062 C1058 1.385 . S
C1062 C1061 1.374 . S
C1063 C1060 1.499 . S
C1063 C1064 1.373 1_556 S
C1063 C1065 1.389 . S
C1064 H1037 0.950 . S
C1064 C1050 1.377 . S
C1064 C1063 1.373 1_554 S
C1065 C1049 1.377 . S
C1065 C1063 1.389 . S
C1065 C1066 1.524 . S
C1066 C1065 1.524 . S
C1066 C1067 1.397 . S
C1066 C1071 1.363 . S
C1067 H1038 0.950 . S
C1067 C1066 1.397 . S
C1067 C1068 1.334 . S
C1068 H1039 0.950 . S
C1068 C1067 1.334 . S
C1068 C1069 1.287 . S
C1069 C1068 1.287 . S
C1069 C1070 1.524 . S
C1069 H1072 0.999 . S
C1070 H1040 0.950 . S
C1070 C1069 1.524 . S
C1070 C1071 1.415 . S
C1071 H1041 0.950 . S
C1071 C1066 1.363 . S
C1071 C1070 1.415 . S
H1072 C1069 0.999 . S
H1073 C1054 0.913 . S
H1074 C1092 0.951 . S
H1075 C1094 0.951 . S
H1076 C1096 0.950 . S
H1077 C1097 0.950 . S
H1078 C1099 0.950 . S
H1079 C1102 0.950 . S
H1080 C1103 0.950 . S
H1081 C1105 0.950 . S
H1082 C1106 0.950 . S
H1083 C1107 0.951 . S
H1084 C1109 0.951 . S
H1085 C1111 0.950 . S
H1086 C1112 0.950 . S
H1087 C1114 0.950 . S
H1088 C1117 0.950 . S
H1089 C1118 0.950 . S
H1090 C1120 0.950 . S
H1091 C1121 0.950 . S
C1092 H1074 0.951 . S
C1092 C1093 1.366 . S
C1092 C1094 1.388 . S
C1093 C1092 1.366 . S
C1093 C1097 1.385 . S
C1094 H1075 0.951 . S
C1094 C1092 1.388 . S
C1094 C1095 1.366 . S
C1095 C1094 1.366 . S
C1095 C1096 1.414 . S
C1095 C1098 1.499 . S
C1096 H1076 0.950 . S
C1096 C1095 1.414 . S
C1096 C1097 1.374 . S
C1097 H1077 0.950 . S
C1097 C1093 1.385 . S
C1097 C1096 1.374 . S
C1098 C1095 1.499 . S
C1098 C1099 1.373 . S
C1098 C1100 1.389 . S
C1099 H1078 0.950 . S
C1099 C1098 1.373 . S
C1099 C1115 1.377 . S
C1100 C1098 1.389 . S
C1100 C1101 1.524 . S
C1100 C1114 1.377 . S
C1101 C1100 1.524 . S
C1101 C1102 1.397 . S
C1101 C1106 1.363 . S
C1102 H1079 0.950 . S
C1102 C1101 1.397 . S
C1102 C1103 1.334 . S
C1103 H1080 0.950 . S
C1103 C1102 1.334 . S
C1103 C1104 1.287 . S
C1104 C1103 1.287 . S
C1104 C1105 1.524 . S
C1104 H1123 0.913 . S
C1105 H1081 0.950 . S
C1105 C1104 1.524 . S
C1105 C1106 1.415 . S
C1106 H1082 0.950 . S
C1106 C1101 1.363 . S
C1106 C1105 1.415 . S
C1107 H1083 0.951 . S
C1107 C1108 1.366 . S
C1107 C1109 1.388 . S
C1108 C1107 1.366 . S
C1108 C1112 1.385 . S
C1109 H1084 0.951 . S
C1109 C1107 1.388 . S
C1109 C1110 1.366 . S
C1110 C1109 1.366 . S
C1110 C1111 1.414 . S
C1110 C1113 1.499 . S
C1111 H1085 0.950 . S
C1111 C1110 1.414 . S
C1111 C1112 1.374 . S
C1112 H1086 0.950 . S
C1112 C1108 1.385 . S
C1112 C1111 1.374 . S
C1113 C1110 1.499 . S
C1113 C1114 1.373 . S
C1113 C1115 1.389 . S
C1114 H1087 0.950 . S
C1114 C1100 1.377 . S
C1114 C1113 1.373 . S
C1115 C1099 1.377 . S
C1115 C1113 1.389 . S
C1115 C1116 1.524 . S
C1116 C1115 1.524 . S
C1116 C1117 1.397 . S
C1116 C1121 1.363 . S
C1117 H1088 0.950 . S
C1117 C1116 1.397 . S
C1117 C1118 1.334 . S
C1118 H1089 0.950 . S
C1118 C1117 1.334 . S
C1118 C1119 1.287 . S
C1119 C1118 1.287 . S
C1119 C1120 1.524 . S
C1119 H1122 0.999 . S
C1120 H1090 0.950 . S
C1120 C1119 1.524 . S
C1120 C1121 1.415 . S
C1121 H1091 0.950 . S
C1121 C1116 1.363 . S
C1121 C1120 1.415 . S
H1122 C1119 0.999 . S
H1123 C1104 0.913 . S
H1124 C1142 0.951 . S
H1125 C1144 0.951 . S
H1126 C1146 0.950 . S
H1127 C1147 0.950 . S
H1128 C1149 0.950 . S
H1129 C1152 0.950 . S
H1130 C1153 0.950 . S
H1131 C1155 0.950 . S
H1132 C1156 0.950 . S
H1133 C1157 0.951 . S
H1134 C1159 0.951 . S
H1135 C1161 0.950 . S
H1136 C1162 0.950 . S
H1137 C1164 0.950 . S
H1138 C1167 0.950 . S
H1139 C1168 0.950 . S
H1140 C1170 0.950 . S
H1141 C1171 0.950 . S
C1142 H1124 0.951 . S
C1142 C1143 1.366 . S
C1142 C1144 1.388 . S
C1143 C1142 1.366 . S
C1143 C1147 1.385 . S
C1144 H1125 0.951 . S
C1144 C1142 1.388 . S
C1144 C1145 1.366 . S
C1145 C1144 1.366 . S
C1145 C1146 1.414 . S
C1145 C1148 1.499 . S
C1146 H1126 0.950 . S
C1146 C1145 1.414 . S
C1146 C1147 1.374 . S
C1147 H1127 0.950 . S
C1147 C1143 1.385 . S
C1147 C1146 1.374 . S
C1148 C1145 1.499 . S
C1148 C1149 1.373 . S
C1148 C1150 1.389 . S
C1149 H1128 0.950 . S
C1149 C1148 1.373 . S
C1149 C1165 1.377 . S
C1150 C1148 1.389 . S
C1150 C1151 1.524 . S
C1150 C1164 1.377 . S
C1151 C1150 1.524 . S
C1151 C1152 1.397 . S
C1151 C1156 1.363 . S
C1152 H1129 0.950 . S
C1152 C1151 1.397 . S
C1152 C1153 1.334 . S
C1153 H1130 0.950 . S
C1153 C1152 1.334 . S
C1153 C1154 1.287 . S
C1154 C1153 1.287 . S
C1154 C1155 1.524 . S
C1154 H1173 0.913 . S
C1155 H1131 0.950 . S
C1155 C1154 1.524 . S
C1155 C1156 1.415 . S
C1156 H1132 0.950 . S
C1156 C1151 1.363 . S
C1156 C1155 1.415 . S
C1157 H1133 0.951 . S
C1157 C1158 1.366 . S
C1157 C1159 1.388 . S
C1158 C1157 1.366 . S
C1158 C1162 1.385 . S
C1159 H1134 0.951 . S
C1159 C1157 1.388 . S
C1159 C1160 1.366 . S
C1160 C1159 1.366 . S
C1160 C1161 1.414 . S
C1160 C1163 1.499 . S
C1161 H1135 0.950 . S
C1161 C1160 1.414 . S
C1161 C1162 1.374 . S
C1162 H1136 0.950 . S
C1162 C1158 1.385 . S
C1162 C1161 1.374 . S
C1163 C1160 1.499 . S
C1163 C1164 1.373 . S
C1163 C1165 1.389 . S
C1164 H1137 0.950 . S
C1164 C1150 1.377 . S
C1164 C1163 1.373 . S
C1165 C1149 1.377 . S
C1165 C1163 1.389 . S
C1165 C1166 1.524 . S
C1166 C1165 1.524 . S
C1166 C1167 1.397 . S
C1166 C1171 1.363 . S
C1167 H1138 0.950 . S
C1167 C1166 1.397 . S
C1167 C1168 1.334 . S
C1168 H1139 0.950 . S
C1168 C1167 1.334 . S
C1168 C1169 1.287 . S
C1169 C1168 1.287 . S
C1169 C1170 1.524 . S
C1169 H1172 0.999 . S
C1170 H1140 0.950 . S
C1170 C1169 1.524 . S
C1170 C1171 1.415 . S
C1171 H1141 0.950 . S
C1171 C1166 1.363 . S
C1171 C1170 1.415 . S
H1172 C1169 0.999 . S
H1173 C1154 0.913 . S
H1174 C1192 0.951 . S
H1175 C1194 0.951 . S
H1176 C1196 0.950 . S
H1177 C1197 0.950 . S
H1178 C1199 0.950 . S
H1179 C1202 0.950 . S
H1180 C1203 0.950 . S
H1181 C1205 0.950 . S
H1182 C1206 0.950 . S
H1183 C1207 0.951 . S
H1184 C1209 0.951 . S
H1185 C1211 0.950 . S
H1186 C1212 0.950 . S
H1187 C1214 0.950 . S
H1188 C1217 0.950 . S
H1189 C1218 0.950 . S
H1190 C1220 0.950 . S
H1191 C1221 0.950 . S
C1192 H1174 0.951 . S
C1192 C1193 1.366 . S
C1192 C1194 1.388 . S
C1193 C1192 1.366 . S
C1193 C1197 1.385 . S
C1194 H1175 0.951 . S
C1194 C1192 1.388 . S
C1194 C1195 1.366 . S
C1195 C1194 1.366 . S
C1195 C1196 1.414 . S
C1195 C1198 1.499 . S
C1196 H1176 0.950 . S
C1196 C1195 1.414 . S
C1196 C1197 1.374 . S
C1197 H1177 0.950 . S
C1197 C1193 1.385 . S
C1197 C1196 1.374 . S
C1198 C1195 1.499 . S
C1198 C1199 1.373 . S
C1198 C1200 1.389 . S
C1199 H1178 0.950 . S
C1199 C1198 1.373 . S
C1199 C1215 1.377 . S
C1200 C1198 1.389 . S
C1200 C1201 1.524 . S
C1200 C1214 1.377 . S
C1201 C1200 1.524 . S
C1201 C1202 1.397 . S
C1201 C1206 1.363 . S
C1202 H1179 0.950 . S
C1202 C1201 1.397 . S
C1202 C1203 1.334 . S
C1203 H1180 0.950 . S
C1203 C1202 1.334 . S
C1203 C1204 1.287 . S
C1204 C1203 1.287 . S
C1204 C1205 1.524 . S
C1204 H1223 0.913 . S
C1205 H1181 0.950 . S
C1205 C1204 1.524 . S
C1205 C1206 1.415 . S
C1206 H1182 0.950 . S
C1206 C1201 1.363 . S
C1206 C1205 1.415 . S
C1207 H1183 0.951 . S
C1207 C1208 1.366 . S
C1207 C1209 1.388 . S
C1208 C1207 1.366 . S
C1208 C1212 1.385 . S
C1209 H1184 0.951 . S
C1209 C1207 1.388 . S
C1209 C1210 1.366 . S
C1210 C1209 1.366 . S
C1210 C1211 1.414 . S
C1210 C1213 1.499 . S
C1211 H1185 0.950 . S
C1211 C1210 1.414 . S
C1211 C1212 1.374 . S
C1212 H1186 0.950 . S
C1212 C1208 1.385 . S
C1212 C1211 1.374 . S
C1213 C1210 1.499 . S
C1213 C1214 1.373 . S
C1213 C1215 1.389 . S
C1214 H1187 0.950 . S
C1214 C1200 1.377 . S
C1214 C1213 1.373 . S
C1215 C1199 1.377 . S
C1215 C1213 1.389 . S
C1215 C1216 1.524 . S
C1216 C1215 1.524 . S
C1216 C1217 1.397 . S
C1216 C1221 1.363 . S
C1217 H1188 0.950 . S
C1217 C1216 1.397 . S
C1217 C1218 1.334 . S
C1218 H1189 0.950 . S
C1218 C1217 1.334 . S
C1218 C1219 1.287 . S
C1219 C1218 1.287 . S
C1219 C1220 1.524 . S
C1219 H1222 0.999 . S
C1220 H1190 0.950 . S
C1220 C1219 1.524 . S
C1220 C1221 1.415 . S
C1221 H1191 0.950 . S
C1221 C1216 1.363 . S
C1221 C1220 1.415 . S
H1222 C1219 0.999 . S
H1223 C1204 0.913 . S
H1224 C1242 0.951 . S
H1225 C1244 0.951 . S
H1226 C1246 0.950 . S
H1227 C1247 0.950 . S
H1228 C1249 0.952 . S
H1229 C1252 0.950 . S
H1230 C1253 0.950 . S
H1231 C1255 0.950 . S
H1232 C1256 0.950 . S
H1233 C1257 0.951 . S
H1234 C1259 0.951 . S
H1235 C1261 0.950 . S
H1236 C1262 0.950 . S
H1237 C1264 0.950 . S
H1238 C1267 0.950 . S
H1239 C1268 0.950 . S
H1240 C1270 0.950 . S
H1241 C1271 0.950 . S
C1242 H1224 0.951 . S
C1242 C1243 1.366 . S
C1242 C1244 1.388 . S
C1243 C1242 1.366 . S
C1243 C1247 1.385 . S
C1244 H1225 0.951 . S
C1244 C1242 1.388 . S
C1244 C1245 1.366 . S
C1245 C1244 1.366 . S
C1245 C1246 1.414 . S
C1245 C1248 1.499 . S
C1246 H1226 0.950 . S
C1246 C1245 1.414 . S
C1246 C1247 1.374 . S
C1247 H1227 0.950 . S
C1247 C1243 1.385 . S
C1247 C1246 1.374 . S
C1248 C1245 1.499 . S
C1248 C1249 1.392 . S
C1248 C1250 1.389 . S
C1249 H1228 0.952 . S
C1249 C1248 1.392 . S
C1249 C1265 1.357 1_556 S
C1250 C1248 1.389 . S
C1250 C1251 1.524 . S
C1250 C1264 1.377 1_556 S
C1251 C1250 1.524 . S
C1251 C1252 1.397 . S
C1251 C1256 1.363 . S
C1252 H1229 0.950 . S
C1252 C1251 1.397 . S
C1252 C1253 1.334 . S
C1253 H1230 0.950 . S
C1253 C1252 1.334 . S
C1253 C1254 1.287 . S
C1254 C1253 1.287 . S
C1254 C1255 1.524 . S
C1254 H1273 0.913 . S
C1255 H1231 0.950 . S
C1255 C1254 1.524 . S
C1255 C1256 1.415 . S
C1256 H1232 0.950 . S
C1256 C1251 1.363 . S
C1256 C1255 1.415 . S
C1257 H1233 0.951 . S
C1257 C1258 1.366 . S
C1257 C1259 1.388 . S
C1258 C1257 1.366 . S
C1258 C1262 1.385 . S
C1259 H1234 0.951 . S
C1259 C1257 1.388 . S
C1259 C1260 1.366 . S
C1260 C1259 1.366 . S
C1260 C1261 1.414 . S
C1260 C1263 1.499 . S
C1261 H1235 0.950 . S
C1261 C1260 1.414 . S
C1261 C1262 1.374 . S
C1262 H1236 0.950 . S
C1262 C1258 1.385 . S
C1262 C1261 1.374 . S
C1263 C1260 1.499 . S
C1263 C1264 1.373 . S
C1263 C1265 1.389 . S
C1264 H1237 0.950 . S
C1264 C1250 1.377 1_554 S
C1264 C1263 1.373 . S
C1265 C1249 1.357 1_554 S
C1265 C1263 1.389 . S
C1265 C1266 1.524 . S
C1266 C1265 1.524 . S
C1266 C1267 1.397 . S
C1266 C1271 1.363 . S
C1267 H1238 0.950 . S
C1267 C1266 1.397 . S
C1267 C1268 1.334 . S
C1268 H1239 0.950 . S
C1268 C1267 1.334 . S
C1268 C1269 1.287 . S
C1269 C1268 1.287 . S
C1269 C1270 1.524 . S
C1269 H1272 0.999 . S
C1270 H1240 0.950 . S
C1270 C1269 1.524 . S
C1270 C1271 1.415 . S
C1271 H1241 0.950 . S
C1271 C1266 1.363 . S
C1271 C1270 1.415 . S
H1272 C1269 0.999 . S
H1273 C1254 0.913 . S
H1274 C1292 0.951 . S
H1275 C1294 0.951 . S
H1276 C1296 0.950 . S
H1277 C1297 0.950 . S
H1278 C1299 0.950 . S
H1279 C1302 0.950 . S
H1280 C1303 0.950 . S
H1281 C1305 0.950 . S
H1282 C1306 0.950 . S
H1283 C1307 0.951 . S
H1284 C1309 0.951 . S
H1285 C1311 0.950 . S
H1286 C1312 0.950 . S
H1287 C1314 0.950 . S
H1288 C1317 0.950 . S
H1289 C1318 0.950 . S
H1290 C1320 0.950 . S
H1291 C1321 0.950 . S
C1292 H1274 0.951 . S
C1292 C1293 1.366 . S
C1292 C1294 1.388 . S
C1293 C1292 1.366 . S
C1293 C1297 1.385 . S
C1294 H1275 0.951 . S
C1294 C1292 1.388 . S
C1294 C1295 1.366 . S
C1295 C1294 1.366 . S
C1295 C1296 1.414 . S
C1295 C1298 1.499 . S
C1296 H1276 0.950 . S
C1296 C1295 1.414 . S
C1296 C1297 1.374 . S
C1297 H1277 0.950 . S
C1297 C1293 1.385 . S
C1297 C1296 1.374 . S
C1298 C1295 1.499 . S
C1298 C1299 1.373 . S
C1298 C1300 1.389 . S
C1299 H1278 0.950 . S
C1299 C1298 1.373 . S
C1299 C1315 1.377 . S
C1300 C1298 1.389 . S
C1300 C1301 1.524 . S
C1300 C1314 1.377 . S
C1301 C1300 1.524 . S
C1301 C1302 1.397 . S
C1301 C1306 1.363 . S
C1302 H1279 0.950 . S
C1302 C1301 1.397 . S
C1302 C1303 1.334 . S
C1303 H1280 0.950 . S
C1303 C1302 1.334 . S
C1303 C1304 1.287 . S
C1304 C1303 1.287 . S
C1304 C1305 1.524 . S
C1304 H1323 0.913 . S
C1305 H1281 0.950 . S
C1305 C1304 1.524 . S
C1305 C1306 1.415 . S
C1306 H1282 0.950 . S
C1306 C1301 1.363 . S
C1306 C1305 1.415 . S
C1307 H1283 0.951 . S
C1307 C1308 1.366 . S
C1307 C1309 1.388 . S
C1308 C1307 1.366 . S
C1308 C1312 1.385 . S
C1309 H1284 0.951 . S
C1309 C1307 1.388 . S
C1309 C1310 1.366 . S
C1310 C1309 1.366 . S
C1310 C1311 1.414 . S
C1310 C1313 1.499 . S
C1311 H1285 0.950 . S
C1311 C1310 1.414 . S
C1311 C1312 1.374 . S
C1312 H1286 0.950 . S
C1312 C1308 1.385 . S
C1312 C1311 1.374 . S
C1313 C1310 1.499 . S
C1313 C1314 1.373 . S
C1313 C1315 1.389 . S
C1314 H1287 0.950 . S
C1314 C1300 1.377 . S
C1314 C1313 1.373 . S
C1315 C1299 1.377 . S
C1315 C1313 1.389 . S
C1315 C1316 1.524 . S
C1316 C1315 1.524 . S
C1316 C1317 1.397 . S
C1316 C1321 1.363 . S
C1317 H1288 0.950 . S
C1317 C1316 1.397 . S
C1317 C1318 1.334 . S
C1318 H1289 0.950 . S
C1318 C1317 1.334 . S
C1318 C1319 1.287 . S
C1319 C1318 1.287 . S
C1319 C1320 1.524 . S
C1319 H1322 0.999 . S
C1320 H1290 0.950 . S
C1320 C1319 1.524 . S
C1320 C1321 1.415 . S
C1321 H1291 0.950 . S
C1321 C1316 1.363 . S
C1321 C1320 1.415 . S
H1322 C1319 0.999 . S
H1323 C1304 0.913 . S
H1324 C1342 0.951 . S
H1325 C1344 0.951 . S
H1326 C1346 0.950 . S
H1327 C1347 0.950 . S
H1328 C1349 0.950 . S
H1329 C1352 0.950 . S
H1330 C1353 0.950 . S
H1331 C1355 0.950 . S
H1332 C1356 0.950 . S
H1333 C1357 0.951 . S
H1334 C1359 0.951 . S
H1335 C1361 0.950 . S
H1336 C1362 0.950 . S
H1337 C1364 0.950 . S
H1338 C1367 0.950 . S
H1339 C1368 0.950 . S
H1340 C1370 0.950 . S
H1341 C1371 0.950 . S
C1342 H1324 0.951 . S
C1342 C1343 1.366 . S
C1342 C1344 1.388 . S
C1343 C1342 1.366 . S
C1343 C1347 1.385 . S
C1344 H1325 0.951 . S
C1344 C1342 1.388 . S
C1344 C1345 1.366 . S
C1345 C1344 1.366 . S
C1345 C1346 1.414 . S
C1345 C1348 1.499 . S
C1346 H1326 0.950 . S
C1346 C1345 1.414 . S
C1346 C1347 1.374 . S
C1347 H1327 0.950 . S
C1347 C1343 1.385 . S
C1347 C1346 1.374 . S
C1348 C1345 1.499 . S
C1348 C1349 1.373 . S
C1348 C1350 1.389 . S
C1349 H1328 0.950 . S
C1349 C1348 1.373 . S
C1349 C1365 1.377 . S
C1350 C1348 1.389 . S
C1350 C1351 1.524 . S
C1350 C1364 1.377 . S
C1351 C1350 1.524 . S
C1351 C1352 1.397 . S
C1351 C1356 1.363 . S
C1352 H1329 0.950 . S
C1352 C1351 1.397 . S
C1352 C1353 1.334 . S
C1353 H1330 0.950 . S
C1353 C1352 1.334 . S
C1353 C1354 1.287 . S
C1354 C1353 1.287 . S
C1354 C1355 1.524 . S
C1354 H1373 0.913 . S
C1355 H1331 0.950 . S
C1355 C1354 1.524 . S
C1355 C1356 1.415 . S
C1356 H1332 0.950 . S
C1356 C1351 1.363 . S
C1356 C1355 1.415 . S
C1357 H1333 0.951 . S
C1357 C1358 1.366 . S
C1357 C1359 1.388 . S
C1358 C1357 1.366 . S
C1358 C1362 1.385 . S
C1359 H1334 0.951 . S
C1359 C1357 1.388 . S
C1359 C1360 1.366 . S
C1360 C1359 1.366 . S
C1360 C1361 1.414 . S
C1360 C1363 1.499 . S
C1361 H1335 0.950 . S
C1361 C1360 1.414 . S
C1361 C1362 1.374 . S
C1362 H1336 0.950 . S
C1362 C1358 1.385 . S
C1362 C1361 1.374 . S
C1363 C1360 1.499 . S
C1363 C1364 1.373 . S
C1363 C1365 1.389 . S
C1364 H1337 0.950 . S
C1364 C1350 1.377 . S
C1364 C1363 1.373 . S
C1365 C1349 1.377 . S
C1365 C1363 1.389 . S
C1365 C1366 1.524 . S
C1366 C1365 1.524 . S
C1366 C1367 1.397 . S
C1366 C1371 1.363 . S
C1367 H1338 0.950 . S
C1367 C1366 1.397 . S
C1367 C1368 1.334 . S
C1368 H1339 0.950 . S
C1368 C1367 1.334 . S
C1368 C1369 1.287 . S
C1369 C1368 1.287 . S
C1369 C1370 1.524 . S
C1369 H1372 0.999 . S
C1370 H1340 0.950 . S
C1370 C1369 1.524 . S
C1370 C1371 1.415 . S
C1371 H1341 0.950 . S
C1371 C1366 1.363 . S
C1371 C1370 1.415 . S
H1372 C1369 0.999 . S
H1373 C1354 0.913 . S
H1374 C1392 0.951 . S
H1375 C1394 0.951 . S
H1376 C1396 0.950 . S
H1377 C1397 0.950 . S
H1378 C1399 0.950 . S
H1379 C1402 0.950 . S
H1380 C1403 0.950 . S
H1381 C1405 0.950 . S
H1382 C1406 0.950 . S
H1383 C1407 0.951 . S
H1384 C1409 0.951 . S
H1385 C1411 0.950 . S
H1386 C1412 0.950 . S
H1387 C1414 0.950 . S
H1388 C1417 0.950 . S
H1389 C1418 0.950 . S
H1390 C1420 0.950 . S
H1391 C1421 0.950 . S
C1392 H1374 0.951 . S
C1392 C1393 1.366 . S
C1392 C1394 1.388 . S
C1393 C1392 1.366 . S
C1393 C1397 1.385 . S
C1394 H1375 0.951 . S
C1394 C1392 1.388 . S
C1394 C1395 1.366 . S
C1395 C1394 1.366 . S
C1395 C1396 1.414 . S
C1395 C1398 1.499 . S
C1396 H1376 0.950 . S
C1396 C1395 1.414 . S
C1396 C1397 1.374 . S
C1397 H1377 0.950 . S
C1397 C1393 1.385 . S
C1397 C1396 1.374 . S
C1398 C1395 1.499 . S
C1398 C1399 1.373 . S
C1398 C1400 1.389 . S
C1399 H1378 0.950 . S
C1399 C1398 1.373 . S
C1399 C1415 1.377 . S
C1400 C1398 1.389 . S
C1400 C1401 1.524 . S
C1400 C1414 1.377 . S
C1401 C1400 1.524 . S
C1401 C1402 1.397 . S
C1401 C1406 1.363 . S
C1402 H1379 0.950 . S
C1402 C1401 1.397 . S
C1402 C1403 1.334 . S
C1403 H1380 0.950 . S
C1403 C1402 1.334 . S
C1403 C1404 1.287 . S
C1404 C1403 1.287 . S
C1404 C1405 1.524 . S
C1404 H1423 0.913 . S
C1405 H1381 0.950 . S
C1405 C1404 1.524 . S
C1405 C1406 1.415 . S
C1406 H1382 0.950 . S
C1406 C1401 1.363 . S
C1406 C1405 1.415 . S
C1407 H1383 0.951 . S
C1407 C1408 1.366 . S
C1407 C1409 1.388 . S
C1408 C1407 1.366 . S
C1408 C1412 1.385 . S
C1409 H1384 0.951 . S
C1409 C1407 1.388 . S
C1409 C1410 1.366 . S
C1410 C1409 1.366 . S
C1410 C1411 1.414 . S
C1410 C1413 1.499 . S
C1411 H1385 0.950 . S
C1411 C1410 1.414 . S
C1411 C1412 1.374 . S
C1412 H1386 0.950 . S
C1412 C1408 1.385 . S
C1412 C1411 1.374 . S
C1413 C1410 1.499 . S
C1413 C1414 1.373 . S
C1413 C1415 1.389 . S
C1414 H1387 0.950 . S
C1414 C1400 1.377 . S
C1414 C1413 1.373 . S
C1415 C1399 1.377 . S
C1415 C1413 1.389 . S
C1415 C1416 1.524 . S
C1416 C1415 1.524 . S
C1416 C1417 1.397 . S
C1416 C1421 1.363 . S
C1417 H1388 0.950 . S
C1417 C1416 1.397 . S
C1417 C1418 1.334 . S
C1418 H1389 0.950 . S
C1418 C1417 1.334 . S
C1418 C1419 1.287 . S
C1419 C1418 1.287 . S
C1419 C1420 1.524 . S
C1419 H1422 0.999 . S
C1420 H1390 0.950 . S
C1420 C1419 1.524 . S
C1420 C1421 1.415 . S
C1421 H1391 0.950 . S
C1421 C1416 1.363 . S
C1421 C1420 1.415 . S
H1422 C1419 0.999 . S
H1423 C1404 0.913 . S
H1424 C1442 0.951 . S
H1425 C1444 0.951 . S
H1426 C1446 0.950 . S
H1427 C1447 0.950 . S
H1428 C1449 0.950 . S
H1429 C1452 0.950 . S
H1430 C1453 0.950 . S
H1431 C1455 0.950 . S
H1432 C1456 0.950 1_565 S
H1433 C1457 0.951 . S
H1434 C1459 0.951 . S
H1435 C1461 0.950 . S
H1436 C1462 0.950 . S
H1437 C1464 0.950 . S
H1438 C1467 0.950 . S
H1439 C1468 0.950 . S
H1440 C1470 0.950 . S
H1441 C1471 0.950 1_545 S
C1442 H1424 0.951 . S
C1442 C1443 1.366 . S
C1442 C1444 1.388 . S
C1443 C1442 1.366 . S
C1443 C1447 1.385 . S
C1444 H1425 0.951 . S
C1444 C1442 1.388 . S
C1444 C1445 1.366 . S
C1445 C1444 1.366 . S
C1445 C1446 1.414 . S
C1445 C1448 1.499 . S
C1446 H1426 0.950 . S
C1446 C1445 1.414 . S
C1446 C1447 1.374 . S
C1447 H1427 0.950 . S
C1447 C1443 1.385 . S
C1447 C1446 1.374 . S
C1448 C1445 1.499 . S
C1448 C1449 1.373 . S
C1448 C1450 1.389 . S
C1449 H1428 0.950 . S
C1449 C1448 1.373 . S
C1449 C1465 1.377 1_545 S
C1450 C1448 1.389 . S
C1450 C1451 1.524 . S
C1450 C1464 1.377 1_545 S
C1451 C1450 1.524 . S
C1451 C1452 1.397 . S
C1451 C1456 1.363 . S
C1452 H1429 0.950 . S
C1452 C1451 1.397 . S
C1452 C1453 1.334 . S
C1453 H1430 0.950 . S
C1453 C1452 1.334 . S
C1453 C1454 1.287 . S
C1454 C1453 1.287 . S
C1454 C1455 1.524 . S
C1454 H1473 0.913 . S
C1455 H1431 0.950 . S
C1455 C1454 1.524 . S
C1455 C1456 1.415 . S
C1456 H1432 0.950 1_545 S
C1456 C1451 1.363 . S
C1456 C1455 1.415 . S
C1457 H1433 0.951 . S
C1457 C1458 1.366 . S
C1457 C1459 1.388 . S
C1458 C1457 1.366 . S
C1458 C1462 1.385 . S
C1459 H1434 0.951 . S
C1459 C1457 1.388 . S
C1459 C1460 1.366 . S
C1460 C1459 1.366 . S
C1460 C1461 1.414 . S
C1460 C1463 1.499 . S
C1461 H1435 0.950 . S
C1461 C1460 1.414 . S
C1461 C1462 1.374 . S
C1462 H1436 0.950 . S
C1462 C1458 1.385 . S
C1462 C1461 1.374 . S
C1463 C1460 1.499 . S
C1463 C1464 1.373 . S
C1463 C1465 1.389 . S
C1464 H1437 0.950 . S
C1464 C1450 1.377 1_565 S
C1464 C1463 1.373 . S
C1465 C1449 1.377 1_565 S
C1465 C1463 1.389 . S
C1465 C1466 1.524 . S
C1466 C1465 1.524 . S
C1466 C1467 1.397 . S
C1466 C1471 1.363 . S
C1467 H1438 0.950 . S
C1467 C1466 1.397 . S
C1467 C1468 1.334 . S
C1468 H1439 0.950 . S
C1468 C1467 1.334 . S
C1468 C1469 1.287 . S
C1469 C1468 1.287 . S
C1469 C1470 1.524 . S
C1469 H1472 0.999 . S
C1470 H1440 0.950 . S
C1470 C1469 1.524 . S
C1470 C1471 1.415 . S
C1471 H1441 0.950 1_565 S
C1471 C1466 1.363 . S
C1471 C1470 1.415 . S
H1472 C1469 0.999 . S
H1473 C1454 0.913 . S
H1474 C1492 0.951 . S
H1475 C1494 0.951 . S
H1476 C1496 0.950 . S
H1477 C1497 0.950 . S
H1478 C1499 0.950 . S
H1479 C1502 0.950 . S
H1480 C1503 0.950 . S
H1481 C1505 0.950 . S
H1482 C1506 0.950 . S
H1483 C1507 0.951 . S
H1484 C1509 0.951 . S
H1485 C1511 0.950 . S
H1486 C1512 0.950 . S
H1487 C1514 0.950 . S
H1488 C1517 0.950 . S
H1489 C1518 0.950 . S
H1490 C1520 0.950 . S
H1491 C1521 0.950 . S
C1492 H1474 0.951 . S
C1492 C1493 1.366 . S
C1492 C1494 1.388 . S
C1493 C1492 1.366 . S
C1493 C1497 1.385 . S
C1494 H1475 0.951 . S
C1494 C1492 1.388 . S
C1494 C1495 1.366 . S
C1495 C1494 1.366 . S
C1495 C1496 1.414 . S
C1495 C1498 1.499 . S
C1496 H1476 0.950 . S
C1496 C1495 1.414 . S
C1496 C1497 1.374 . S
C1497 H1477 0.950 . S
C1497 C1493 1.385 . S
C1497 C1496 1.374 . S
C1498 C1495 1.499 . S
C1498 C1499 1.373 . S
C1498 C1500 1.389 . S
C1499 H1478 0.950 . S
C1499 C1498 1.373 . S
C1499 C1515 1.377 . S
C1500 C1498 1.389 . S
C1500 C1501 1.524 . S
C1500 C1514 1.377 . S
C1501 C1500 1.524 . S
C1501 C1502 1.397 . S
C1501 C1506 1.363 . S
C1502 H1479 0.950 . S
C1502 C1501 1.397 . S
C1502 C1503 1.334 . S
C1503 H1480 0.950 . S
C1503 C1502 1.334 . S
C1503 C1504 1.287 . S
C1504 C1503 1.287 . S
C1504 C1505 1.524 . S
C1504 H1523 0.913 . S
C1505 H1481 0.950 . S
C1505 C1504 1.524 . S
C1505 C1506 1.415 . S
C1506 H1482 0.950 . S
C1506 C1501 1.363 . S
C1506 C1505 1.415 . S
C1507 H1483 0.951 . S
C1507 C1508 1.366 . S
C1507 C1509 1.388 . S
C1508 C1507 1.366 . S
C1508 C1512 1.385 . S
C1509 H1484 0.951 . S
C1509 C1507 1.388 . S
C1509 C1510 1.366 . S
C1510 C1509 1.366 . S
C1510 C1511 1.414 . S
C1510 C1513 1.499 . S
C1511 H1485 0.950 . S
C1511 C1510 1.414 . S
C1511 C1512 1.374 . S
C1512 H1486 0.950 . S
C1512 C1508 1.385 . S
C1512 C1511 1.374 . S
C1513 C1510 1.499 . S
C1513 C1514 1.373 . S
C1513 C1515 1.389 . S
C1514 H1487 0.950 . S
C1514 C1500 1.377 . S
C1514 C1513 1.373 . S
C1515 C1499 1.377 . S
C1515 C1513 1.389 . S
C1515 C1516 1.524 . S
C1516 C1515 1.524 . S
C1516 C1517 1.397 . S
C1516 C1521 1.363 . S
C1517 H1488 0.950 . S
C1517 C1516 1.397 . S
C1517 C1518 1.334 . S
C1518 H1489 0.950 . S
C1518 C1517 1.334 . S
C1518 C1519 1.287 . S
C1519 C1518 1.287 . S
C1519 C1520 1.524 . S
C1519 H1522 0.999 . S
C1520 H1490 0.950 . S
C1520 C1519 1.524 . S
C1520 C1521 1.415 . S
C1521 H1491 0.950 . S
C1521 C1516 1.363 . S
C1521 C1520 1.415 . S
H1522 C1519 0.999 . S
H1523 C1504 0.913 . S
H1524 C1542 0.951 . S
H1525 C1544 0.951 . S
H1526 C1546 0.950 . S
H1527 C1547 0.950 . S
H1528 C1549 0.950 . S
H1529 C1552 0.950 1_554 S
H1530 C1553 0.950 . S
H1531 C1555 0.950 . S
H1532 C1556 0.950 1_565 S
H1533 C1557 0.951 . S
H1534 C1559 0.951 . S
H1535 C1561 0.950 . S
H1536 C1562 0.950 . S
H1537 C1564 0.950 . S
H1538 C1567 0.950 . S
H1539 C1568 0.950 . S
H1540 C1570 0.950 . S
H1541 C1571 0.950 1_545 S
C1542 H1524 0.951 . S
C1542 C1543 1.366 . S
C1542 C1544 1.388 . S
C1543 C1542 1.366 . S
C1543 C1547 1.385 . S
C1544 H1525 0.951 . S
C1544 C1542 1.388 . S
C1544 C1545 1.366 . S
C1545 C1544 1.366 . S
C1545 C1546 1.414 . S
C1545 C1548 1.499 . S
C1546 H1526 0.950 . S
C1546 C1545 1.414 . S
C1546 C1547 1.374 . S
C1547 H1527 0.950 . S
C1547 C1543 1.385 . S
C1547 C1546 1.374 . S
C1548 C1545 1.499 . S
C1548 C1549 1.373 . S
C1548 C1550 1.389 . S
C1549 H1528 0.950 . S
C1549 C1548 1.373 . S
C1549 C1565 1.377 1_546 S
C1550 C1548 1.389 . S
C1550 C1551 1.524 . S
C1550 C1564 1.377 1_546 S
C1551 C1550 1.524 . S
C1551 C1552 1.397 . S
C1551 C1556 1.363 . S
C1552 H1529 0.950 1_556 S
C1552 C1551 1.397 . S
C1552 C1553 1.334 . S
C1553 H1530 0.950 . S
C1553 C1552 1.334 . S
C1553 C1554 1.287 . S
C1554 C1553 1.287 . S
C1554 C1555 1.524 . S
C1554 H1573 0.913 . S
C1555 H1531 0.950 . S
C1555 C1554 1.524 . S
C1555 C1556 1.415 . S
C1556 H1532 0.950 1_545 S
C1556 C1551 1.363 . S
C1556 C1555 1.415 . S
C1557 H1533 0.951 . S
C1557 C1558 1.366 . S
C1557 C1559 1.388 . S
C1558 C1557 1.366 . S
C1558 C1562 1.385 . S
C1559 H1534 0.951 . S
C1559 C1557 1.388 . S
C1559 C1560 1.366 . S
C1560 C1559 1.366 . S
C1560 C1561 1.414 . S
C1560 C1563 1.499 . S
C1561 H1535 0.950 . S
C1561 C1560 1.414 . S
C1561 C1562 1.374 . S
C1562 H1536 0.950 . S
C1562 C1558 1.385 . S
C1562 C1561 1.374 . S
C1563 C1560 1.499 . S
C1563 C1564 1.373 . S
C1563 C1565 1.389 . S
C1564 H1537 0.950 . S
C1564 C1550 1.377 1_564 S
C1564 C1563 1.373 . S
C1565 C1549 1.377 1_564 S
C1565 C1563 1.389 . S
C1565 C1566 1.524 . S
C1566 C1565 1.524 . S
C1566 C1567 1.397 . S
C1566 C1571 1.363 . S
C1567 H1538 0.950 . S
C1567 C1566 1.397 . S
C1567 C1568 1.334 . S
C1568 H1539 0.950 . S
C1568 C1567 1.334 . S
C1568 C1569 1.287 . S
C1569 C1568 1.287 . S
C1569 C1570 1.524 . S
C1569 H1572 0.999 . S
C1570 H1540 0.950 . S
C1570 C1569 1.524 . S
C1570 C1571 1.415 . S
C1571 H1541 0.950 1_565 S
C1571 C1566 1.363 . S
C1571 C1570 1.415 . S
H1572 C1569 0.999 . S
H1573 C1554 0.913 . S
H1574 C1592 0.951 . S
H1575 C1594 0.951 . S
H1576 C1596 0.950 . S
H1577 C1597 0.950 . S
H1578 C1599 0.950 . S
H1579 C1602 0.950 . S
H1580 C1603 0.950 . S
H1581 C1605 0.950 . S
H1582 C1606 0.950 . S
H1583 C1607 0.951 . S
H1584 C1609 0.951 . S
H1585 C1611 0.950 . S
H1586 C1612 0.950 . S
H1587 C1614 0.950 . S
H1588 C1617 0.950 . S
H1589 C1618 0.950 . S
H1590 C1620 0.950 . S
H1591 C1621 0.950 . S
C1592 H1574 0.951 . S
C1592 C1593 1.366 . S
C1592 C1594 1.388 . S
C1593 C1592 1.366 . S
C1593 C1597 1.385 . S
C1594 H1575 0.951 . S
C1594 C1592 1.388 . S
C1594 C1595 1.366 . S
C1595 C1594 1.366 . S
C1595 C1596 1.414 . S
C1595 C1598 1.499 . S
C1596 H1576 0.950 . S
C1596 C1595 1.414 . S
C1596 C1597 1.374 . S
C1597 H1577 0.950 . S
C1597 C1593 1.385 . S
C1597 C1596 1.374 . S
C1598 C1595 1.499 . S
C1598 C1599 1.373 . S
C1598 C1600 1.389 . S
C1599 H1578 0.950 . S
C1599 C1598 1.373 . S
C1599 C1615 1.377 . S
C1600 C1598 1.389 . S
C1600 C1601 1.524 . S
C1600 C1614 1.377 . S
C1601 C1600 1.524 . S
C1601 C1602 1.397 . S
C1601 C1606 1.363 . S
C1602 H1579 0.950 . S
C1602 C1601 1.397 . S
C1602 C1603 1.334 . S
C1603 H1580 0.950 . S
C1603 C1602 1.334 . S
C1603 C1604 1.287 . S
C1604 C1603 1.287 . S
C1604 C1605 1.524 . S
C1604 H1623 0.913 . S
C1605 H1581 0.950 . S
C1605 C1604 1.524 . S
C1605 C1606 1.415 . S
C1606 H1582 0.950 . S
C1606 C1601 1.363 . S
C1606 C1605 1.415 . S
C1607 H1583 0.951 . S
C1607 C1608 1.366 . S
C1607 C1609 1.388 . S
C1608 C1607 1.366 . S
C1608 C1612 1.385 . S
C1609 H1584 0.951 . S
C1609 C1607 1.388 . S
C1609 C1610 1.366 . S
C1610 C1609 1.366 . S
C1610 C1611 1.414 . S
C1610 C1613 1.499 . S
C1611 H1585 0.950 . S
C1611 C1610 1.414 . S
C1611 C1612 1.374 . S
C1612 H1586 0.950 . S
C1612 C1608 1.385 . S
C1612 C1611 1.374 . S
C1613 C1610 1.499 . S
C1613 C1614 1.373 . S
C1613 C1615 1.389 . S
C1614 H1587 0.950 . S
C1614 C1600 1.377 . S
C1614 C1613 1.373 . S
C1615 C1599 1.377 . S
C1615 C1613 1.389 . S
C1615 C1616 1.524 . S
C1616 C1615 1.524 . S
C1616 C1617 1.397 . S
C1616 C1621 1.363 . S
C1617 H1588 0.950 . S
C1617 C1616 1.397 . S
C1617 C1618 1.334 . S
C1618 H1589 0.950 . S
C1618 C1617 1.334 . S
C1618 C1619 1.287 . S
C1619 C1618 1.287 . S
C1619 C1620 1.524 . S
C1619 H1622 0.999 . S
C1620 H1590 0.950 . S
C1620 C1619 1.524 . S
C1620 C1621 1.415 . S
C1621 H1591 0.950 . S
C1621 C1616 1.363 . S
C1621 C1620 1.415 . S
H1622 C1619 0.999 . S
H1623 C1604 0.913 . S
H1624 C1642 0.951 . S
H1625 C1644 0.951 . S
H1626 C1646 0.950 . S
H1627 C1647 0.950 . S
H1628 C1649 0.950 . S
H1629 C1652 0.950 . S
H1630 C1653 0.950 . S
H1631 C1655 0.950 . S
H1632 C1656 0.950 . S
H1633 C1657 0.951 . S
H1634 C1659 0.951 . S
H1635 C1661 0.950 . S
H1636 C1662 0.950 . S
H1637 C1664 0.950 . S
H1638 C1667 0.950 . S
H1639 C1668 0.950 . S
H1640 C1670 0.950 . S
H1641 C1671 0.950 . S
C1642 H1624 0.951 . S
C1642 C1643 1.366 . S
C1642 C1644 1.388 . S
C1643 C1642 1.366 . S
C1643 C1647 1.385 . S
C1644 H1625 0.951 . S
C1644 C1642 1.388 . S
C1644 C1645 1.366 . S
C1645 C1644 1.366 . S
C1645 C1646 1.414 . S
C1645 C1648 1.499 . S
C1646 H1626 0.950 . S
C1646 C1645 1.414 . S
C1646 C1647 1.374 . S
C1647 H1627 0.950 . S
C1647 C1643 1.385 . S
C1647 C1646 1.374 . S
C1648 C1645 1.499 . S
C1648 C1649 1.373 . S
C1648 C1650 1.389 . S
C1649 H1628 0.950 . S
C1649 C1648 1.373 . S
C1649 C1665 1.377 1_545 S
C1650 C1648 1.389 . S
C1650 C1651 1.524 . S
C1650 C1664 1.377 1_545 S
C1651 C1650 1.524 . S
C1651 C1652 1.397 . S
C1651 C1656 1.363 . S
C1652 H1629 0.950 . S
C1652 C1651 1.397 . S
C1652 C1653 1.334 . S
C1653 H1630 0.950 . S
C1653 C1652 1.334 . S
C1653 C1654 1.287 . S
C1654 C1653 1.287 . S
C1654 C1655 1.524 . S
C1654 H1673 0.913 . S
C1655 H1631 0.950 . S
C1655 C1654 1.524 . S
C1655 C1656 1.415 . S
C1656 H1632 0.950 . S
C1656 C1651 1.363 . S
C1656 C1655 1.415 . S
C1657 H1633 0.951 . S
C1657 C1658 1.366 . S
C1657 C1659 1.388 . S
C1658 C1657 1.366 . S
C1658 C1662 1.385 . S
C1659 H1634 0.951 . S
C1659 C1657 1.388 . S
C1659 C1660 1.366 . S
C1660 C1659 1.366 . S
C1660 C1661 1.414 . S
C1660 C1663 1.499 . S
C1661 H1635 0.950 . S
C1661 C1660 1.414 . S
C1661 C1662 1.374 . S
C1662 H1636 0.950 . S
C1662 C1658 1.385 . S
C1662 C1661 1.374 . S
C1663 C1660 1.499 . S
C1663 C1664 1.373 . S
C1663 C1665 1.389 . S
C1664 H1637 0.950 . S
C1664 C1650 1.377 1_565 S
C1664 C1663 1.373 . S
C1665 C1649 1.377 1_565 S
C1665 C1663 1.389 . S
C1665 C1666 1.524 . S
C1666 C1665 1.524 . S
C1666 C1667 1.397 . S
C1666 C1671 1.363 . S
C1667 H1638 0.950 . S
C1667 C1666 1.397 . S
C1667 C1668 1.334 . S
C1668 H1639 0.950 . S
C1668 C1667 1.334 . S
C1668 C1669 1.287 . S
C1669 C1668 1.287 . S
C1669 C1670 1.524 . S
C1669 H1672 0.999 . S
C1670 H1640 0.950 . S
C1670 C1669 1.524 . S
C1670 C1671 1.415 . S
C1671 H1641 0.950 . S
C1671 C1666 1.363 . S
C1671 C1670 1.415 . S
H1672 C1669 0.999 . S
H1673 C1654 0.913 . S
H1674 C1692 0.951 . S
H1675 C1694 0.951 . S
H1676 C1696 0.950 . S
H1677 C1697 0.950 . S
H1678 C1699 0.950 . S
H1679 C1702 0.950 . S
H1680 C1703 0.950 . S
H1681 C1705 0.950 . S
H1682 C1706 0.950 . S
H1683 C1707 0.951 . S
H1684 C1709 0.951 . S
H1685 C1711 0.950 . S
H1686 C1712 0.950 . S
H1687 C1714 0.950 . S
H1688 C1717 0.950 . S
H1689 C1718 0.950 . S
H1690 C1720 0.950 . S
H1691 C1721 0.950 . S
C1692 H1674 0.951 . S
C1692 C1693 1.366 . S
C1692 C1694 1.388 . S
C1693 C1692 1.366 . S
C1693 C1697 1.385 . S
C1694 H1675 0.951 . S
C1694 C1692 1.388 . S
C1694 C1695 1.366 . S
C1695 C1694 1.366 . S
C1695 C1696 1.414 . S
C1695 C1698 1.499 . S
C1696 H1676 0.950 . S
C1696 C1695 1.414 . S
C1696 C1697 1.374 . S
C1697 H1677 0.950 . S
C1697 C1693 1.385 . S
C1697 C1696 1.374 . S
C1698 C1695 1.499 . S
C1698 C1699 1.373 . S
C1698 C1700 1.389 . S
C1699 H1678 0.950 . S
C1699 C1698 1.373 . S
C1699 C1715 1.377 . S
C1700 C1698 1.389 . S
C1700 C1701 1.524 . S
C1700 C1714 1.377 . S
C1701 C1700 1.524 . S
C1701 C1702 1.397 . S
C1701 C1706 1.363 . S
C1702 H1679 0.950 . S
C1702 C1701 1.397 . S
C1702 C1703 1.334 . S
C1703 H1680 0.950 . S
C1703 C1702 1.334 . S
C1703 C1704 1.287 . S
C1704 C1703 1.287 . S
C1704 C1705 1.524 . S
C1704 H1723 0.913 . S
C1705 H1681 0.950 . S
C1705 C1704 1.524 . S
C1705 C1706 1.415 . S
C1706 H1682 0.950 . S
C1706 C1701 1.363 . S
C1706 C1705 1.415 . S
C1707 H1683 0.951 . S
C1707 C1708 1.366 . S
C1707 C1709 1.388 . S
C1708 C1707 1.366 . S
C1708 C1712 1.385 . S
C1709 H1684 0.951 . S
C1709 C1707 1.388 . S
C1709 C1710 1.366 . S
C1710 C1709 1.366 . S
C1710 C1711 1.414 . S
C1710 C1713 1.499 . S
C1711 H1685 0.950 . S
C1711 C1710 1.414 . S
C1711 C1712 1.374 . S
C1712 H1686 0.950 . S
C1712 C1708 1.385 . S
C1712 C1711 1.374 . S
C1713 C1710 1.499 . S
C1713 C1714 1.373 . S
C1713 C1715 1.389 . S
C1714 H1687 0.950 . S
C1714 C1700 1.377 . S
C1714 C1713 1.373 . S
C1715 C1699 1.377 . S
C1715 C1713 1.389 . S
C1715 C1716 1.524 . S
C1716 C1715 1.524 . S
C1716 C1717 1.397 . S
C1716 C1721 1.363 . S
C1717 H1688 0.950 . S
C1717 C1716 1.397 . S
C1717 C1718 1.334 . S
C1718 H1689 0.950 . S
C1718 C1717 1.334 . S
C1718 C1719 1.287 . S
C1719 C1718 1.287 . S
C1719 C1720 1.524 . S
C1719 H1722 0.999 . S
C1720 H1690 0.950 . S
C1720 C1719 1.524 . S
C1720 C1721 1.415 . S
C1721 H1691 0.950 . S
C1721 C1716 1.363 . S
C1721 C1720 1.415 . S
H1722 C1719 0.999 . S
H1723 C1704 0.913 . S
H1724 C1742 0.951 . S
H1725 C1744 0.951 . S
H1726 C1746 0.950 . S
H1727 C1747 0.950 . S
H1728 C1749 0.950 . S
H1729 C1752 0.950 . S
H1730 C1753 0.950 . S
H1731 C1755 0.950 . S
H1732 C1756 0.950 . S
H1733 C1757 0.951 . S
H1734 C1759 0.951 . S
H1735 C1761 0.950 . S
H1736 C1762 0.950 . S
H1737 C1764 0.950 . S
H1738 C1767 0.950 . S
H1739 C1768 0.950 . S
H1740 C1770 0.950 . S
H1741 C1771 0.950 . S
C1742 H1724 0.951 . S
C1742 C1743 1.366 . S
C1742 C1744 1.388 . S
C1743 C1742 1.366 . S
C1743 C1747 1.385 . S
C1744 H1725 0.951 . S
C1744 C1742 1.388 . S
C1744 C1745 1.366 . S
C1745 C1744 1.366 . S
C1745 C1746 1.414 . S
C1745 C1748 1.499 . S
C1746 H1726 0.950 . S
C1746 C1745 1.414 . S
C1746 C1747 1.374 . S
C1747 H1727 0.950 . S
C1747 C1743 1.385 . S
C1747 C1746 1.374 . S
C1748 C1745 1.499 . S
C1748 C1749 1.373 1_565 S
C1748 C1750 1.389 1_554 S
C1749 H1728 0.950 . S
C1749 C1748 1.373 1_545 S
C1749 C1765 1.377 . S
C1750 C1748 1.389 1_556 S
C1750 C1751 1.524 . S
C1750 C1764 1.377 1_565 S
C1751 C1750 1.524 . S
C1751 C1752 1.397 1_556 S
C1751 C1756 1.363 . S
C1752 H1729 0.950 . S
C1752 C1751 1.397 1_554 S
C1752 C1753 1.334 . S
C1753 H1730 0.950 . S
C1753 C1752 1.334 . S
C1753 C1754 1.287 1_554 S
C1754 C1753 1.287 1_556 S
C1754 C1755 1.524 . S
C1754 H1773 0.913 . S
C1755 H1731 0.950 . S
C1755 C1754 1.524 . S
C1755 C1756 1.415 . S
C1756 H1732 0.950 . S
C1756 C1751 1.363 . S
C1756 C1755 1.415 . S
C1757 H1733 0.951 . S
C1757 C1758 1.366 . S
C1757 C1759 1.388 . S
C1758 C1757 1.366 . S
C1758 C1762 1.385 . S
C1759 H1734 0.951 . S
C1759 C1757 1.388 . S
C1759 C1760 1.366 . S
C1760 C1759 1.366 . S
C1760 C1761 1.414 . S
C1760 C1763 1.499 . S
C1761 H1735 0.950 . S
C1761 C1760 1.414 . S
C1761 C1762 1.374 . S
C1762 H1736 0.950 . S
C1762 C1758 1.385 . S
C1762 C1761 1.374 . S
C1763 C1760 1.499 . S
C1763 C1764 1.373 . S
C1763 C1765 1.389 1_556 S
C1764 H1737 0.950 . S
C1764 C1750 1.377 1_545 S
C1764 C1763 1.373 . S
C1765 C1749 1.377 . S
C1765 C1763 1.389 1_554 S
C1765 C1766 1.524 . S
C1766 C1765 1.524 . S
C1766 C1767 1.397 1_554 S
C1766 C1771 1.363 . S
C1767 H1738 0.950 . S
C1767 C1766 1.397 1_556 S
C1767 C1768 1.334 . S
C1768 H1739 0.950 . S
C1768 C1767 1.334 . S
C1768 C1769 1.287 1_556 S
C1769 C1768 1.287 1_554 S
C1769 C1770 1.524 . S
C1769 H1772 0.999 . S
C1770 H1740 0.950 . S
C1770 C1769 1.524 . S
C1770 C1771 1.415 . S
C1771 H1741 0.950 . S
C1771 C1766 1.363 . S
C1771 C1770 1.415 . S
H1772 C1769 0.999 . S
H1773 C1754 0.913 . S
H1774 C1792 0.951 . S
H1775 C1794 0.951 . S
H1776 C1796 0.950 . S
H1777 C1797 0.950 . S
H1778 C1799 0.950 . S
H1779 C1802 0.950 . S
H1780 C1803 0.950 . S
H1781 C1805 0.950 . S
H1782 C1806 0.950 . S
H1783 C1807 0.951 . S
H1784 C1809 0.951 . S
H1785 C1811 0.950 . S
H1786 C1812 0.950 . S
H1787 C1814 0.950 . S
H1788 C1817 0.950 . S
H1789 C1818 0.950 . S
H1790 C1820 0.950 . S
H1791 C1821 0.950 . S
C1792 H1774 0.951 . S
C1792 C1793 1.366 . S
C1792 C1794 1.388 . S
C1793 C1792 1.366 . S
C1793 C1797 1.385 . S
C1794 H1775 0.951 . S
C1794 C1792 1.388 . S
C1794 C1795 1.366 . S
C1795 C1794 1.366 . S
C1795 C1796 1.414 . S
C1795 C1798 1.499 . S
C1796 H1776 0.950 . S
C1796 C1795 1.414 . S
C1796 C1797 1.374 . S
C1797 H1777 0.950 . S
C1797 C1793 1.385 . S
C1797 C1796 1.374 . S
C1798 C1795 1.499 . S
C1798 C1799 1.373 . S
C1798 C1800 1.389 . S
C1799 H1778 0.950 . S
C1799 C1798 1.373 . S
C1799 C1815 1.377 . S
C1800 C1798 1.389 . S
C1800 C1801 1.524 . S
C1800 C1814 1.377 . S
C1801 C1800 1.524 . S
C1801 C1802 1.397 . S
C1801 C1806 1.363 . S
C1802 H1779 0.950 . S
C1802 C1801 1.397 . S
C1802 C1803 1.334 . S
C1803 H1780 0.950 . S
C1803 C1802 1.334 . S
C1803 C1804 1.287 . S
C1804 C1803 1.287 . S
C1804 C1805 1.524 . S
C1804 H1823 0.913 . S
C1805 H1781 0.950 . S
C1805 C1804 1.524 . S
C1805 C1806 1.415 . S
C1806 H1782 0.950 . S
C1806 C1801 1.363 . S
C1806 C1805 1.415 . S
C1807 H1783 0.951 . S
C1807 C1808 1.366 . S
C1807 C1809 1.388 . S
C1808 C1807 1.366 . S
C1808 C1812 1.385 . S
C1809 H1784 0.951 . S
C1809 C1807 1.388 . S
C1809 C1810 1.366 . S
C1810 C1809 1.366 . S
C1810 C1811 1.414 . S
C1810 C1813 1.499 . S
C1811 H1785 0.950 . S
C1811 C1810 1.414 . S
C1811 C1812 1.374 . S
C1812 H1786 0.950 . S
C1812 C1808 1.385 . S
C1812 C1811 1.374 . S
C1813 C1810 1.499 . S
C1813 C1814 1.373 . S
C1813 C1815 1.389 . S
C1814 H1787 0.950 . S
C1814 C1800 1.377 . S
C1814 C1813 1.373 . S
C1815 C1799 1.377 . S
C1815 C1813 1.389 . S
C1815 C1816 1.524 . S
C1816 C1815 1.524 . S
C1816 C1817 1.397 . S
C1816 C1821 1.363 . S
C1817 H1788 0.950 . S
C1817 C1816 1.397 . S
C1817 C1818 1.334 . S
C1818 H1789 0.950 . S
C1818 C1817 1.334 . S
C1818 C1819 1.287 . S
C1819 C1818 1.287 . S
C1819 C1820 1.524 . S
C1819 H1822 0.999 . S
C1820 H1790 0.950 . S
C1820 C1819 1.524 . S
C1820 C1821 1.415 . S
C1821 H1791 0.950 . S
C1821 C1816 1.363 . S
C1821 C1820 1.415 . S
H1822 C1819 0.999 . S
H1823 C1804 0.913 . S
C243 C163 1.383 . S
C258 C7 1.385 . S
C293 C217 1.306 . S
C308 C23 1.285 . S
C343 C35 1.377 . S
C358 C133 1.378 . S
C393 C191 1.206 . S
C408 C51 1.206 . S
C443 C63 1.364 . S
C458 C189 1.366 . S
C493 C79 1.306 . S
C508 C161 1.324 . S
C543 C91 1.399 . S
C558 C219 1.399 . S
C593 C107 1.185 . S
C608 C135 1.189 . S
C643 C49 1.410 . S
C658 C119 1.410 . S
C693 C149 1.352 . S
C708 C21 1.353 . S
C743 C175 1.433 . S
C758 C77 1.434 . S
C793 C205 1.330 . S
C808 C105 1.329 . S
C843 C65 1.259 . S
C858 C121 1.266 . S
C893 C147 1.247 . S
C908 C93 1.229 . S
C943 C203 1.256 . S
C958 C37 1.239 . S
C993 C9 1.251 . S
C1008 C177 1.254 . S
C1043 C3 1.276 . S
C1058 C59 1.276 . S
C1093 C22 1.200 . S
C1108 C78 1.201 . S
C1143 C31 1.398 . S
C1158 C87 1.399 . S
C1193 C106 1.134 . S
C1208 C50 1.135 . S
C1243 C115 1.323 . S
C1258 C171 1.323 . S
C1293 C190 1.118 . S
C1308 C134 1.119 . S
C1343 C148 1.210 . S
C1358 C204 1.210 . S
C1393 C213 1.256 . S
C1408 C157 1.255 . S
C1443 C101 1.331 . S
C1458 C17 1.332 . S
C1493 C36 1.227 . S
C1508 C64 1.227 . S
C1543 C45 1.342 . S
C1558 C73 1.343 . S
C1593 C8 1.106 . S
C1608 C92 1.105 . S
C1643 C129 1.254 . S
C1658 C218 1.259 . S
C1693 C176 1.203 . S
C1708 C143 1.191 . S
C1743 C162 1.279 . S
C1758 C185 1.273 . S
C1793 C199 1.172 . S
C1808 C120 1.182 . S
