# Generated by pormake.
# Topology uol, (4)-cn, num edge types: 1
# Building blocks:
#     Node 0, Type 0, BuildingBlock: NAWXER_clean_sbu_0, # of connection points: 4
#     Node 1, Type 0, BuildingBlock: NAWXER_clean_sbu_0, # of connection points: 4
#     Node 2, Type 0, BuildingBlock: NAWXER_clean_sbu_0, # of connection points: 4
#     Node 3, Type 0, BuildingBlock: NAWXER_clean_sbu_0, # of connection points: 4
#     Node 4, Type 0, BuildingBlock: NAWXER_clean_sbu_0, # of connection points: 4
#     Node 5, Type 0, BuildingBlock: NAWXER_clean_sbu_0, # of connection points: 4
#     Node 6, Type 0, BuildingBlock: NAWXER_clean_sbu_0, # of connection points: 4
#     Node 7, Type 0, BuildingBlock: NAWXER_clean_sbu_0, # of connection points: 4
#     Node 8, Type 0, BuildingBlock: NAWXER_clean_sbu_0, # of connection points: 4
#     Node 9, Type 0, BuildingBlock: NAWXER_clean_sbu_0, # of connection points: 4
#     Node 10, Type 0, BuildingBlock: NAWXER_clean_sbu_0, # of connection points: 4
#     Node 11, Type 0, BuildingBlock: NAWXER_clean_sbu_0, # of connection points: 4
#     Edge 12, Type (0, 0), BuildingBlock: XUDNAN_clean_linker_2, # of connection points: 2
#     Edge 13, Type (0, 0), BuildingBlock: XUDNAN_clean_linker_2, # of connection points: 2
#     Edge 14, Type (0, 0), BuildingBlock: XUDNAN_clean_linker_2, # of connection points: 2
#     Edge 15, Type (0, 0), BuildingBlock: XUDNAN_clean_linker_2, # of connection points: 2
#     Edge 16, Type (0, 0), BuildingBlock: XUDNAN_clean_linker_2, # of connection points: 2
#     Edge 17, Type (0, 0), BuildingBlock: XUDNAN_clean_linker_2, # of connection points: 2
#     Edge 18, Type (0, 0), BuildingBlock: XUDNAN_clean_linker_2, # of connection points: 2
#     Edge 19, Type (0, 0), BuildingBlock: XUDNAN_clean_linker_2, # of connection points: 2
#     Edge 20, Type (0, 0), BuildingBlock: XUDNAN_clean_linker_2, # of connection points: 2
#     Edge 21, Type (0, 0), BuildingBlock: XUDNAN_clean_linker_2, # of connection points: 2
#     Edge 22, Type (0, 0), BuildingBlock: XUDNAN_clean_linker_2, # of connection points: 2
#     Edge 23, Type (0, 0), BuildingBlock: XUDNAN_clean_linker_2, # of connection points: 2
#     Edge 24, Type (0, 0), BuildingBlock: XUDNAN_clean_linker_2, # of connection points: 2
#     Edge 25, Type (0, 0), BuildingBlock: XUDNAN_clean_linker_2, # of connection points: 2
#     Edge 26, Type (0, 0), BuildingBlock: XUDNAN_clean_linker_2, # of connection points: 2
#     Edge 27, Type (0, 0), BuildingBlock: XUDNAN_clean_linker_2, # of connection points: 2
#     Edge 28, Type (0, 0), BuildingBlock: XUDNAN_clean_linker_2, # of connection points: 2
#     Edge 29, Type (0, 0), BuildingBlock: XUDNAN_clean_linker_2, # of connection points: 2
#     Edge 30, Type (0, 0), BuildingBlock: XUDNAN_clean_linker_2, # of connection points: 2
#     Edge 31, Type (0, 0), BuildingBlock: XUDNAN_clean_linker_2, # of connection points: 2
#     Edge 32, Type (0, 0), BuildingBlock: XUDNAN_clean_linker_2, # of connection points: 2
#     Edge 33, Type (0, 0), BuildingBlock: XUDNAN_clean_linker_2, # of connection points: 2
#     Edge 34, Type (0, 0), BuildingBlock: XUDNAN_clean_linker_2, # of connection points: 2
#     Edge 35, Type (0, 0), BuildingBlock: XUDNAN_clean_linker_2, # of connection points: 2
# Relax obj value: 0.141
# Max RMSD: 0.284
# Mean RMSD: 0.284
data_MOF--net-uol--node1-NAWXER_clean_sbu_0--edge1-XUDNAN_clean_linker_2
_symmetry_space_group_name_H-M    P1
_symmetry_Int_Tables_number       1
_symmetry_cell_setting            triclinic
loop_
_symmetry_equiv_pos_as_xyz
'x, y, z'
_cell_length_a     33.547888
_cell_length_b     33.538459
_cell_length_c     65.317033
_cell_angle_alpha  90.034933
_cell_angle_beta   89.718463
_cell_angle_gamma 119.99474
loop_
_atom_site_label
_atom_site_type_symbol
_atom_site_fract_x
_atom_site_fract_y
_atom_site_fract_z
_atom_type_partial_charge
C0 C 0.1241 0.31314 0.07185 0.0
C1 C 0.03957 0.30071 0.13449 0.0
O2 O 0.15033 0.34195 0.08536 0.0
Zn3 Zn 0.14219 0.36282 0.11553 0.0
O4 O 0.08145 0.28795 0.07559 0.0
Zn5 Zn 0.08145 0.30878 0.10306 0.0
O6 O 0.08973 0.37614 0.09893 0.0
O7 O 0.15737 0.42601 0.1117 0.0
O8 O 0.02502 0.27707 0.11822 0.0
O9 O 0.08158 0.33364 0.13549 0.0
O10 O 0.1844 0.35155 0.13099 0.0
O11 O 0.12339 0.28825 0.12001 0.0
C12 C 0.12054 0.41786 0.10277 0.0
C13 C 0.16148 0.30789 0.12987 0.0
C14 C 0.85092 0.18842 0.31058 0.0
C15 C 0.70543 0.12613 0.27559 0.0
O16 O 0.84465 0.15468 0.29907 0.0
Zn17 Zn 0.78983 0.10618 0.27904 0.0
O18 O 0.81943 0.19867 0.31227 0.0
Zn19 Zn 0.77727 0.15402 0.29378 0.0
O20 O 0.75261 0.09036 0.31013 0.0
O21 O 0.7711 0.04701 0.29163 0.0
O22 O 0.72297 0.15709 0.28916 0.0
O23 O 0.72632 0.10444 0.27016 0.0
O24 O 0.82191 0.11887 0.25321 0.0
O25 O 0.81585 0.17719 0.2652 0.0
C26 C 0.75284 0.05256 0.30762 0.0
C27 C 0.83057 0.16019 0.25146 0.0
C28 C 0.69668 0.85565 0.47803 0.0
C29 C 0.58786 0.7092 0.44694 0.0
O30 O 0.71582 0.84075 0.46552 0.0
Zn31 Zn 0.69586 0.78386 0.44494 0.0
O32 O 0.65322 0.83352 0.48036 0.0
Zn33 Zn 0.64143 0.78406 0.46163 0.0
O34 O 0.67495 0.75125 0.47664 0.0
O35 O 0.73087 0.7578 0.45631 0.0
O36 O 0.57917 0.73444 0.45848 0.0
O37 O 0.62931 0.72341 0.44094 0.0
O38 O 0.71247 0.81335 0.41804 0.0
O39 O 0.6563 0.81869 0.43287 0.0
C40 C 0.70848 0.744 0.47305 0.0
C41 C 0.68395 0.8278 0.41772 0.0
C42 C 0.86345 0.67784 0.58283 0.0
C43 C 0.98712 0.7237 0.63162 0.0
O44 O 0.84893 0.65225 0.59889 0.0
Zn45 Zn 0.8804 0.64478 0.62667 0.0
O46 O 0.90581 0.70752 0.58125 0.0
Zn47 Zn 0.92503 0.69687 0.60712 0.0
O48 O 0.92446 0.63257 0.60307 0.0
O49 O 0.87219 0.58399 0.6247 0.0
O50 O 0.98738 0.73888 0.61382 0.0
O51 O 0.95017 0.68856 0.63838 0.0
O52 O 0.84545 0.65285 0.64772 0.0
O53 O 0.88791 0.71561 0.62929 0.0
C54 C 0.90176 0.59202 0.61082 0.0
C55 C 0.85905 0.69482 0.6439 0.0
C56 C 0.16278 0.84114 0.80333 0.0
C57 C 0.31243 0.87979 0.77379 0.0
O58 O 0.18147 0.879 0.79316 0.0
Zn59 Zn 0.24265 0.91895 0.7749 0.0
O60 O 0.18217 0.81684 0.80371 0.0
Zn61 Zn 0.23553 0.85788 0.78728 0.0
O62 O 0.26869 0.91896 0.80692 0.0
O63 O 0.26968 0.97575 0.78932 0.0
O64 O 0.28399 0.84267 0.7828 0.0
O65 O 0.30108 0.91032 0.77017 0.0
O66 O 0.22094 0.91921 0.74784 0.0
O67 O 0.20531 0.84984 0.75737 0.0
C68 C 0.27893 0.96133 0.80559 0.0
C69 C 0.20289 0.87661 0.74404 0.0
C70 C 0.29045 0.25795 0.9623 0.0
C71 C 0.34081 0.17744 0.91706 0.0
O72 O 0.32504 0.25698 0.97005 0.0
Zn73 Zn 0.37114 0.23293 0.96013 0.0
O74 O 0.27761 0.24255 0.94439 0.0
Zn75 Zn 0.3201 0.22136 0.93925 0.0
O76 O 0.30195 0.16729 0.96214 0.0
O77 O 0.36291 0.19171 0.98208 0.0
O78 O 0.31002 0.18839 0.91459 0.0
O79 O 0.36627 0.19111 0.93314 0.0
O80 O 0.43102 0.28774 0.95814 0.0
O81 O 0.38531 0.28196 0.93288 0.0
C82 C 0.32209 0.1613 0.97753 0.0
C83 C 0.42475 0.30331 0.94154 0.0
C84 C 0.71613 0.84973 0.71478 0.0
C85 C 0.60318 0.89169 0.73715 0.0
O86 O 0.73201 0.88031 0.72896 0.0
Zn87 Zn 0.7077 0.91982 0.74617 0.0
O88 O 0.67595 0.83565 0.70785 0.0
Zn89 Zn 0.66104 0.8719 0.72573 0.0
O90 O 0.70537 0.94084 0.71299 0.0
O91 O 0.74995 0.98147 0.73849 0.0
O92 O 0.59865 0.86114 0.72444 0.0
O93 O 0.64202 0.91638 0.74595 0.0
O94 O 0.7126 0.9051 0.77378 0.0
O95 O 0.66389 0.84444 0.75579 0.0
C96 C 0.73833 0.97902 0.7199 0.0
C97 C 0.68526 0.86211 0.77258 0.0
C98 C 0.81944 0.66482 0.93574 0.0
C99 C 0.74974 0.70319 0.88041 0.0
O100 O 0.81861 0.64217 0.91969 0.0
Zn101 Zn 0.79123 0.6359 0.88855 0.0
O102 O 0.80213 0.69074 0.93512 0.0
Zn103 Zn 0.78369 0.68085 0.90744 0.0
O104 O 0.72536 0.61144 0.90781 0.0
O105 O 0.74333 0.57288 0.88592 0.0
O106 O 0.75709 0.71614 0.89889 0.0
O107 O 0.76098 0.6738 0.87404 0.0
O108 O 0.84448 0.65262 0.87215 0.0
O109 O 0.84845 0.71045 0.88992 0.0
C110 C 0.71491 0.57387 0.89845 0.0
C111 C 0.86654 0.69478 0.87711 0.0
C112 C 0.1641 0.8574 0.04331 0.0
C113 C 0.12317 0.70384 0.06731 0.0
O114 O 0.13281 0.84239 0.05725 0.0
Zn115 Zn 0.09365 0.7801 0.07493 0.0
O116 O 0.1791 0.83169 0.03668 0.0
Zn117 Zn 0.143 0.78029 0.05482 0.0
O118 O 0.07463 0.75204 0.04205 0.0
O119 O 0.0316 0.75759 0.06623 0.0
O120 O 0.15438 0.72908 0.05457 0.0
O121 O 0.09841 0.71865 0.07568 0.0
O122 O 0.10898 0.80323 0.10247 0.0
O123 O 0.16845 0.81098 0.08462 0.0
C124 C 0.03543 0.74562 0.04821 0.0
C125 C 0.15185 0.81754 0.10122 0.0
C126 C 0.31032 0.04557 0.20785 0.0
C127 C 0.3425 0.16103 0.26059 0.0
O128 O 0.3422 0.08592 0.20253 0.0
Zn129 Zn 0.37736 0.15424 0.21542 0.0
O130 O 0.29152 0.03936 0.22539 0.0
Zn131 Zn 0.32785 0.10247 0.23458 0.0
O132 O 0.30243 0.13596 0.21446 0.0
O133 O 0.36171 0.18853 0.19675 0.0
O134 O 0.31524 0.11785 0.2615 0.0
O135 O 0.36761 0.17837 0.24456 0.0
O136 O 0.43985 0.16766 0.21509 0.0
O137 O 0.39657 0.11187 0.23678 0.0
C138 C 0.319 0.16809 0.20094 0.0
C139 C 0.43566 0.13781 0.22813 0.0
C140 C 0.30868 0.4321 0.40197 0.0
C141 C 0.16292 0.34692 0.36746 0.0
O142 O 0.29073 0.38894 0.40594 0.0
Zn143 Zn 0.22653 0.32692 0.39798 0.0
O144 O 0.28779 0.44575 0.39036 0.0
Zn145 Zn 0.23617 0.38741 0.38443 0.0
O146 O 0.19757 0.36884 0.41269 0.0
O147 O 0.19542 0.30606 0.4242 0.0
O148 O 0.19316 0.38922 0.36632 0.0
O149 O 0.17062 0.31955 0.37832 0.0
O150 O 0.24625 0.28846 0.38452 0.0
O151 O 0.26359 0.3514 0.36707 0.0
C152 C 0.18444 0.33702 0.42624 0.0
C153 C 0.26447 0.31372 0.36889 0.0
C154 C 0.89798 0.30548 0.57525 0.0
C155 C 0.85326 0.15176 0.55036 0.0
O156 O 0.92884 0.29459 0.57895 0.0
Zn157 Zn 0.93546 0.23427 0.5758 0.0
O158 O 0.86009 0.27595 0.56735 0.0
Zn159 Zn 0.87417 0.22704 0.56387 0.0
O160 O 0.86725 0.19907 0.59422 0.0
O161 O 0.93687 0.2154 0.60346 0.0
O162 O 0.83078 0.17292 0.549 0.0
O163 O 0.89182 0.17059 0.55986 0.0
O164 O 0.99088 0.25682 0.56003 0.0
O165 O 0.93366 0.25649 0.54319 0.0
C166 C 0.89432 0.19744 0.60754 0.0
C167 C 0.97555 0.26509 0.5438 0.0
H168 H 0.18561 0.67376 0.07023 0.0
H169 H 0.0403 0.62894 0.07587 0.0
H170 H 0.02384 0.55047 0.08459 0.0
H171 H 0.17388 0.56839 0.04919 0.0
H172 H 0.22077 0.57147 0.0638 0.0
H173 H 0.22101 0.62354 0.05681 0.0
H174 H 0.22957 0.64747 0.09497 0.0
H175 H 0.22933 0.59547 0.10208 0.0
H176 H 0.18825 0.60872 0.11344 0.0
H177 H 0.02274 0.47682 0.09177 0.0
H178 H 0.03773 0.41376 0.1002 0.0
H179 H 0.18444 0.5073 0.09295 0.0
C180 C 0.15035 0.64722 0.07312 0.0
C181 C 0.11409 0.65709 0.07221 0.0
C182 C 0.06848 0.62191 0.07649 0.0
C183 C 0.05879 0.57727 0.08138 0.0
C184 C 0.09524 0.56861 0.08227 0.0
C185 C 0.14018 0.60263 0.07853 0.0
C186 C 0.17316 0.58463 0.08168 0.0
C187 C 0.1987 0.58716 0.06168 0.0
C188 C 0.20707 0.61062 0.09908 0.0
C189 C 0.13968 0.53518 0.08767 0.0
C190 C 0.09486 0.52658 0.08761 0.0
C191 C 0.05769 0.48317 0.09201 0.0
C192 C 0.06652 0.44757 0.09672 0.0
C193 C 0.1122 0.4558 0.09734 0.0
C194 C 0.14922 0.50023 0.0928 0.0
H195 H 0.63555 0.13507 0.29221 0.0
H196 H 0.6796 0.09914 0.23606 0.0
H197 H 0.61292 0.09504 0.21798 0.0
H198 H 0.51064 0.05937 0.28341 0.0
H199 H 0.49671 0.09978 0.29493 0.0
H200 H 0.54619 0.09694 0.30355 0.0
H201 H 0.59791 0.18417 0.29627 0.0
H202 H 0.54879 0.18721 0.28742 0.0
H203 H 0.59841 0.20612 0.27102 0.0
H204 H 0.54793 0.10547 0.20525 0.0
H205 H 0.48251 0.11877 0.19967 0.0
H206 H 0.47639 0.1406 0.26472 0.0
C207 C 0.63067 0.12558 0.27618 0.0
C208 C 0.66264 0.11751 0.26546 0.0
C209 C 0.65523 0.1051 0.24454 0.0
C210 C 0.61764 0.10291 0.23416 0.0
C211 C 0.58733 0.11217 0.24508 0.0
C212 C 0.59281 0.12219 0.26574 0.0
C213 C 0.55559 0.13108 0.2739 0.0
C214 C 0.5255 0.09461 0.28989 0.0
C215 C 0.57644 0.18005 0.28266 0.0
C216 C 0.52905 0.1259 0.25446 0.0
C217 C 0.54818 0.11538 0.23797 0.0
C218 C 0.53205 0.11268 0.21811 0.0
C219 C 0.4952 0.12054 0.21506 0.0
C220 C 0.47448 0.13014 0.23181 0.0
C221 C 0.49133 0.13248 0.25176 0.0
H222 H 0.49747 0.6816 0.43977 0.0
H223 H 0.59527 0.63288 0.44057 0.0
H224 H 0.53326 0.55476 0.4312 0.0
H225 H 0.3984 0.57845 0.45917 0.0
H226 H 0.3586 0.58309 0.44227 0.0
H227 H 0.40996 0.63422 0.45041 0.0
H228 H 0.43338 0.65763 0.41253 0.0
H229 H 0.38201 0.60674 0.40429 0.0
H230 H 0.43754 0.6177 0.39538 0.0
H231 H 0.45958 0.48131 0.4224 0.0
H232 H 0.38249 0.42109 0.41058 0.0
H233 H 0.33541 0.52017 0.41277 0.0
C234 C 0.50565 0.65434 0.43812 0.0
C235 C 0.55089 0.66295 0.44104 0.0
C236 C 0.56069 0.62681 0.43836 0.0
C237 C 0.5257 0.58235 0.43318 0.0
C238 C 0.48133 0.5749 0.4304 0.0
C239 C 0.4714 0.61009 0.43246 0.0
C240 C 0.42174 0.59391 0.42723 0.0
C241 C 0.39565 0.59764 0.44589 0.0
C242 C 0.4185 0.62057 0.40876 0.0
C243 C 0.40529 0.54418 0.4219 0.0
C244 C 0.43984 0.53354 0.42418 0.0
C245 C 0.43233 0.48932 0.42044 0.0
C246 C 0.38852 0.45534 0.41384 0.0
C247 C 0.35337 0.46623 0.41066 0.0
C248 C 0.3619 0.51109 0.41492 0.0
H249 H 0.8398 0.49977 0.60924 0.0
H250 H 0.98239 0.60073 0.59651 0.0
H251 H 0.99714 0.53818 0.58617 0.0
H252 H 0.85741 0.41075 0.6291 0.0
H253 H 0.80737 0.36458 0.61703 0.0
H254 H 0.80826 0.41714 0.62366 0.0
H255 H 0.79015 0.42676 0.58607 0.0
H256 H 0.78903 0.37412 0.57933 0.0
H257 H 0.82674 0.42664 0.56579 0.0
H258 H 0.99719 0.46409 0.57951 0.0
H259 H 0.98081 0.38461 0.57311 0.0
H260 H 0.8366 0.3326 0.58715 0.0
C261 C 0.87412 0.50864 0.60428 0.0
C262 C 0.91014 0.55495 0.60382 0.0
C263 C 0.9544 0.56541 0.59694 0.0
C264 C 0.96309 0.53014 0.59113 0.0
C265 C 0.92688 0.48476 0.59189 0.0
C266 C 0.88309 0.47399 0.59794 0.0
C267 C 0.84984 0.42264 0.59669 0.0
C268 C 0.82954 0.40261 0.61788 0.0
C269 C 0.81169 0.41192 0.58103 0.0
C270 C 0.88192 0.40606 0.58928 0.0
C271 C 0.92632 0.44239 0.58685 0.0
C272 C 0.96246 0.43545 0.58111 0.0
C273 C 0.95288 0.39024 0.5776 0.0
C274 C 0.90743 0.35267 0.57948 0.0
C275 C 0.87154 0.36081 0.58533 0.0
H276 H 0.51131 0.82656 0.73945 0.0
H277 H 0.60727 0.9726 0.74655 0.0
H278 H 0.54287 0.98516 0.75582 0.0
H279 H 0.41528 0.83516 0.71917 0.0
H280 H 0.37241 0.7863 0.73339 0.0
H281 H 0.42554 0.78901 0.72603 0.0
H282 H 0.44092 0.77858 0.76393 0.0
H283 H 0.38791 0.77595 0.77141 0.0
H284 H 0.44136 0.81772 0.78298 0.0
H285 H 0.4686 0.98232 0.76353 0.0
H286 H 0.38951 0.96376 0.77214 0.0
H287 H 0.34144 0.81848 0.76317 0.0
C288 C 0.51855 0.86121 0.74273 0.0
C289 C 0.56412 0.89879 0.74206 0.0
C290 C 0.57255 0.94346 0.74692 0.0
C291 C 0.53622 0.95091 0.75214 0.0
C292 C 0.49173 0.91317 0.75281 0.0
C293 C 0.48272 0.8691 0.74849 0.0
C294 C 0.43201 0.83431 0.75153 0.0
C295 C 0.41002 0.80975 0.73132 0.0
C296 C 0.42516 0.7996 0.76847 0.0
C297 C 0.41395 0.86578 0.75813 0.0
C298 C 0.449 0.91118 0.75847 0.0
C299 C 0.44092 0.94689 0.76345 0.0
C300 C 0.39585 0.93599 0.76826 0.0
C301 C 0.35944 0.8897 0.76842 0.0
C302 C 0.36872 0.85412 0.76337 0.0
H303 H 0.49937 0.37634 0.95968 0.0
H304 H 0.4376 0.32093 0.90067 0.0
H305 H 0.50485 0.38471 0.88332 0.0
H306 H 0.54757 0.49746 0.94488 0.0
H307 H 0.59864 0.51659 0.96008 0.0
H308 H 0.54545 0.46676 0.96788 0.0
H309 H 0.58609 0.41834 0.96856 0.0
H310 H 0.6393 0.46791 0.96064 0.0
H311 H 0.6156 0.41554 0.94593 0.0
H312 H 0.58172 0.44972 0.87242 0.0
H313 H 0.65914 0.51827 0.86855 0.0
H314 H 0.66813 0.53674 0.9344 0.0
C315 C 0.49994 0.37793 0.94311 0.0
C316 C 0.46343 0.34366 0.93147 0.0
C317 C 0.46512 0.34697 0.90985 0.0
C318 C 0.50324 0.38293 0.89987 0.0
C319 C 0.53893 0.41586 0.91175 0.0
C320 C 0.53725 0.41431 0.93289 0.0
C321 C 0.57984 0.45472 0.94199 0.0
C322 C 0.5671 0.48572 0.95444 0.0
C323 C 0.60679 0.43812 0.95505 0.0
C324 C 0.6061 0.47868 0.92266 0.0
C325 C 0.58207 0.45527 0.9054 0.0
C326 C 0.6005 0.46881 0.88579 0.0
C327 C 0.64449 0.50755 0.88374 0.0
C328 C 0.66909 0.5328 0.90115 0.0
C329 C 0.64954 0.51834 0.92084 0.0
H330 H 0.34182 0.25053 0.18261 0.0
H331 H 0.22651 0.1144 0.19558 0.0
H332 H 0.17423 0.1351 0.17813 0.0
H333 H 0.28013 0.31081 0.19178 0.0
H334 H 0.30917 0.35266 0.17178 0.0
H335 H 0.33806 0.32657 0.18443 0.0
H336 H 0.35259 0.29966 0.14939 0.0
H337 H 0.32376 0.32568 0.13663 0.0
H338 H 0.30461 0.26555 0.13279 0.0
H339 H 0.13484 0.16972 0.1589 0.0
H340 H 0.10949 0.21787 0.14101 0.0
H341 H 0.24937 0.33331 0.14219 0.0
C342 C 0.30562 0.22502 0.18163 0.0
C343 C 0.28817 0.18076 0.19031 0.0
C344 C 0.24052 0.14851 0.18903 0.0
C345 C 0.21061 0.15988 0.17911 0.0
C346 C 0.22883 0.20383 0.17077 0.0
C347 C 0.27511 0.23607 0.17207 0.0
C348 C 0.28538 0.28147 0.16255 0.0
C349 C 0.30429 0.32015 0.1786 0.0
C350 C 0.31855 0.2938 0.14425 0.0
C351 C 0.23765 0.26961 0.15564 0.0
C352 C 0.20568 0.22448 0.16036 0.0
C353 C 0.15948 0.20517 0.15519 0.0
C354 C 0.14547 0.23277 0.14498 0.0
C355 C 0.17743 0.27935 0.14029 0.0
C356 C 0.22411 0.29793 0.14573 0.0
H357 H 0.91647 0.16597 0.32159 0.0
H358 H 0.88721 0.27829 0.32089 0.0
H359 H 0.96451 0.33076 0.33445 0.0
H360 H 0.98024 0.19989 0.36955 0.0
H361 H 0.02084 0.18264 0.36146 0.0
H362 H 0.96321 0.15366 0.35142 0.0
H363 H 0.99621 0.17214 0.3145 0.0
H364 H 0.05393 0.20154 0.32443 0.0
H365 H 0.03531 0.23107 0.30731 0.0
H366 H 0.04555 0.37206 0.34578 0.0
H367 H 0.12346 0.39849 0.35893 0.0
H368 H 0.09966 0.25897 0.35518 0.0
C369 C 0.92638 0.20156 0.32441 0.0
C370 C 0.89599 0.21817 0.32016 0.0
C371 C 0.90988 0.26482 0.32416 0.0
C372 C 0.95379 0.29496 0.33173 0.0
C373 C 0.98313 0.27774 0.33555 0.0
C374 C 0.96989 0.23203 0.33242 0.0
C375 C 1.00784 0.22238 0.33854 0.0
C376 C 0.99208 0.18759 0.3563 0.0
C377 C 0.02429 0.20581 0.32009 0.0
C378 C 0.04451 0.26995 0.34537 0.0
C379 C 0.02959 0.30137 0.3432 0.0
C380 C 0.05757 0.34778 0.34775 0.0
C381 C 0.10185 0.36248 0.35508 0.0
C382 C 0.11748 0.33075 0.3581 0.0
C383 C 0.08843 0.28388 0.35312 0.0
H384 H 0.76633 0.09247 0.53555 0.0
H385 H 0.90208 0.10828 0.54315 0.0
H386 H 0.87571 0.03363 0.5263 0.0
H387 H 0.70244 0.9689 0.54516 0.0
H388 H 0.65888 0.95794 0.52642 0.0
H389 H 0.68799 0.01267 0.53931 0.0
H390 H 0.71214 0.05458 0.50429 0.0
H391 H 0.68313 1.00001 0.49129 0.0
H392 H 0.74318 0.0395 0.48619 0.0
H393 H 0.83688 0.96014 0.50721 0.0
H394 H 0.78604 0.88906 0.48831 0.0
H395 H 0.67368 0.91752 0.49422 0.0
C396 C 0.79042 0.08012 0.5337 0.0
C397 C 0.83631 0.10628 0.54064 0.0
C398 C 0.86674 0.08885 0.53804 0.0
C399 C 0.85213 0.04648 0.52845 0.0
C400 C 0.80684 0.02166 0.52173 0.0
C401 C 0.77623 0.03748 0.52435 0.0
C402 C 0.72937 1.00363 0.51569 0.0
C403 C 0.69249 0.98466 0.53266 0.0
C404 C 0.7162 0.02576 0.49833 0.0
C405 C 0.73874 0.96669 0.50759 0.0
C406 C 0.78377 0.97805 0.51119 0.0
C407 C 0.80142 0.95059 0.50445 0.0
C408 C 0.77232 0.9104 0.49366 0.0
C409 C 0.72593 0.89774 0.4899 0.0
C410 C 0.70885 0.92611 0.49712 0.0
H411 H 0.80515 0.73176 0.63395 0.0
H412 H 0.87895 0.71355 0.68396 0.0
H413 H 0.85332 0.75475 0.70726 0.0
H414 H 0.82348 0.84465 0.64852 0.0
H415 H 0.76627 0.83144 0.64148 0.0
H416 H 0.79337 0.80384 0.62839 0.0
H417 H 0.72402 0.72388 0.63756 0.0
H418 H 0.69674 0.7512 0.65068 0.0
H419 H 0.70677 0.70997 0.66397 0.0
H420 H 0.8205 0.79842 0.72487 0.0
H421 H 0.7764 0.83516 0.73669 0.0
H422 H 0.71798 0.81891 0.67607 0.0
C423 C 0.81618 0.73706 0.64977 0.0
C424 C 0.84435 0.72028 0.65728 0.0
C425 C 0.85752 0.72662 0.67807 0.0
C426 C 0.84327 0.75 0.69133 0.0
C427 C 0.81524 0.76604 0.68357 0.0
C428 C 0.80131 0.7594 0.66334 0.0
C429 C 0.76862 0.77735 0.65929 0.0
C430 C 0.78918 0.81666 0.64348 0.0
C431 C 0.72123 0.73826 0.65248 0.0
C432 C 0.76625 0.79493 0.68038 0.0
C433 C 0.79406 0.78881 0.69405 0.0
C434 C 0.79845 0.80323 0.71434 0.0
C435 C 0.77344 0.82418 0.72089 0.0
C436 C 0.74376 0.8296 0.7073 0.0
C437 C 0.74017 0.81478 0.6868 0.0
H438 H 0.92416 0.66951 0.85877 0.0
H439 H 0.91245 0.789 0.87449 0.0
H440 H 0.98728 0.83941 0.85749 0.0
H441 H 0.04737 0.72386 0.86714 0.0
H442 H 0.05622 0.69394 0.84625 0.0
H443 H 1.00198 0.66754 0.85974 0.0
H444 H 0.95936 0.65772 0.82551 0.0
H445 H 0.01344 0.68425 0.81192 0.0
H446 H 0.97539 0.70739 0.80956 0.0
H447 H 0.061 0.87604 0.83699 0.0
H448 H 0.13148 0.89734 0.81699 0.0
H449 H 0.09742 0.75432 0.81629 0.0
C450 C 0.93737 0.70631 0.85869 0.0
C451 C 0.91236 0.72537 0.86787 0.0
C452 C 0.93105 0.7737 0.8676 0.0
C453 C 0.97344 0.80255 0.85793 0.0
C454 C 0.99696 0.78256 0.84886 0.0
C455 C 0.97988 0.7356 0.8494 0.0
C456 C 0.01223 0.72285 0.83875 0.0
C457 C 0.03054 0.70075 0.85388 0.0
C458 C 0.98869 0.69119 0.82034 0.0
C459 C 0.04999 0.76994 0.83189 0.0
C460 C 0.04031 0.80385 0.83775 0.0
C461 C 0.06913 0.84984 0.83249 0.0
C462 C 0.10898 0.86154 0.82104 0.0
C463 C 0.12005 0.82751 0.81515 0.0
C464 C 0.09012 0.78113 0.82075 0.0
H465 H 0.19946 0.89345 1.00525 0.0
H466 H 0.17579 0.93015 0.06599 0.0
H467 H 0.2136 0.01185 0.05567 0.0
H468 H 0.30941 0.99288 0.99589 0.0
H469 H 0.29858 0.99849 0.96934 0.0
H470 H 0.27009 0.94273 0.98145 0.0
H471 H 0.19084 0.93196 0.9711 0.0
H472 H 0.21913 0.98764 0.95889 0.0
H473 H 0.17607 0.97486 0.97835 0.0
H474 H 0.25879 0.0898 0.03972 0.0
H475 H 0.30089 0.15879 0.01767 0.0
H476 H 0.2887 0.07172 0.96627 0.0
C477 C 0.20222 0.91878 0.01631 0.0
C478 C 0.18493 0.90567 0.03643 0.0
C479 C 0.18864 0.93954 0.05047 0.0
C480 C 0.21022 0.98602 0.04478 0.0
C481 C 0.22709 0.99794 0.02488 0.0
C482 C 0.22265 0.96532 0.01071 0.0
C483 C 0.24249 0.9874 0.99012 0.0
C484 C 0.28252 0.97993 0.98384 0.0
C485 C 0.20488 0.96939 0.97364 0.0
C486 C 0.25936 0.03752 0.99504 0.0
C487 C 0.25063 0.04283 0.01527 0.0
C488 C 0.26522 0.08607 0.02378 0.0
C489 C 0.28915 0.12495 0.01123 0.0
C490 C 0.29729 0.1201 0.99039 0.0
C491 C 0.28209 0.07594 0.98215 0.0
H492 H 0.21071 0.32725 0.06512 0.0
H493 H 0.08119 0.28676 0.03486 0.0
H494 H 0.11309 0.27593 1.00247 0.0
H495 H 0.28771 0.38599 0.0216 0.0
H496 H 0.32553 0.364 0.02762 0.0
H497 H 0.29445 0.37359 0.0478 0.0
H498 H 0.2595 0.28875 0.05953 0.0
H499 H 0.29052 0.27896 0.03945 0.0
H500 H 0.22888 0.24312 0.04131 0.0
H501 H 0.15779 0.26675 0.97391 0.0
H502 H 0.20907 0.25247 0.95185 0.0
H503 H 0.30833 0.29455 1.00119 0.0
C504 C 0.18942 0.31693 0.05155 0.0
C505 C 0.14371 0.30838 0.05234 0.0
C506 C 0.11636 0.29365 0.0345 0.0
C507 C 0.13427 0.28767 0.01604 0.0
C508 C 0.17938 0.29604 0.01579 0.0
C509 C 0.20646 0.30989 0.03312 0.0
C510 C 0.25226 0.31243 0.02921 0.0
C511 C 0.29236 0.36196 0.0317 0.0
C512 C 0.2581 0.27881 0.0432 0.0
C513 C 0.24649 0.29732 1.00703 0.0
C514 C 0.20453 0.28884 0.99951 0.0
C515 C 0.19081 0.27344 0.9796 0.0
C516 C 0.2203 0.26551 0.96717 0.0
C517 C 0.2628 0.27237 0.97476 0.0
C518 C 0.27623 0.28921 0.99488 0.0
H519 H 0.84956 0.13301 0.21472 0.0
H520 H 0.8794 0.25411 0.25027 0.0
H521 H 0.93414 0.3037 0.22358 0.0
H522 H 0.96219 0.17178 0.19638 0.0
H523 H 0.94485 0.14737 0.17119 0.0
H524 H 0.90653 0.1214 0.19265 0.0
H525 H 0.84299 0.1293 0.17381 0.0
H526 H 0.88109 0.15512 0.15223 0.0
H527 H 0.85532 0.18495 0.16452 0.0
H528 H 0.99128 0.33954 0.19467 0.0
H529 H 0.0411 0.3594 0.1639 0.0
H530 H 0.96998 0.21574 0.14596 0.0
C531 C 0.86726 0.16998 0.21677 0.0
C532 C 0.86025 0.1897 0.23458 0.0
C533 C 0.88399 0.23824 0.23669 0.0
C534 C 0.91528 0.26671 0.22165 0.0
C535 C 0.92188 0.24617 0.20441 0.0
C536 C 0.898 0.19897 0.20173 0.0
C537 C 0.91155 0.18564 0.18181 0.0
C538 C 0.93253 0.15473 0.18575 0.0
C539 C 0.87028 0.16238 0.16723 0.0
C540 C 0.94743 0.23261 0.17392 0.0
C541 C 0.95314 0.26707 0.18726 0.0
C542 C 0.98655 0.31296 0.18393 0.0
C543 C 0.01477 0.3239 0.16649 0.0
C544 C 1.00887 0.28921 0.15247 0.0
C545 C 0.97453 0.24309 0.15621 0.0
H546 H 0.77834 0.98896 0.31803 0.0
H547 H 0.68247 0.03567 0.33352 0.0
H548 H 0.65061 0.97853 0.36149 0.0
H549 H 0.70273 0.86631 0.33059 0.0
H550 H 0.74866 0.86039 0.34162 0.0
H551 H 0.76091 0.90151 0.32138 0.0
H552 H 0.82103 0.96662 0.34435 0.0
H553 H 0.80897 0.92577 0.36464 0.0
H554 H 0.8039 0.97604 0.36927 0.0
H555 H 0.63131 0.91952 0.38843 0.0
H556 H 0.62853 0.86525 0.4144 0.0
H557 H 0.73942 0.85823 0.38306 0.0
C558 C 0.75005 0.98645 0.32709 0.0
C559 C 0.73244 0.01633 0.32351 0.0
C560 C 0.69629 0.01298 0.33599 0.0
C561 C 0.67786 0.98053 0.35185 0.0
C562 C 0.69628 0.95196 0.35517 0.0
C563 C 0.73175 0.9547 0.34328 0.0
C564 C 0.7476 0.92239 0.35124 0.0
C565 C 0.73948 0.88546 0.33525 0.0
C566 C 0.79838 0.94932 0.35777 0.0
C567 C 0.71585 0.90153 0.36959 0.0
C568 C 0.68614 0.9187 0.37133 0.0
C569 C 0.65425 0.90566 0.3872 0.0
C570 C 0.65299 0.87473 0.40191 0.0
C571 C 0.68377 0.85734 0.40084 0.0
C572 C 0.71528 0.87065 0.38428 0.0
H573 H 0.88478 0.71886 0.54503 0.0
H574 H 0.76906 0.63129 0.58448 0.0
H575 H 0.71578 0.63298 0.55894 0.0
H576 H 0.84427 0.79084 0.52872 0.0
H577 H 0.86541 0.79708 0.50283 0.0
H578 H 0.89388 0.78514 0.52317 0.0
H579 H 0.88313 0.71297 0.5038 0.0
H580 H 0.85468 0.72478 0.48331 0.0
H581 H 0.82631 0.66956 0.49595 0.0
H582 H 0.67632 0.65184 0.5311 0.0
H583 H 0.65314 0.68339 0.5023 0.0
H584 H 0.79421 0.75596 0.48028 0.0
C585 C 0.84817 0.69937 0.54818 0.0
C586 C 0.83107 0.67489 0.56677 0.0
C587 C 0.78294 0.65005 0.57031 0.0
C588 C 0.75243 0.65083 0.55589 0.0
C589 C 0.77055 0.67605 0.5379 0.0
C590 C 0.81728 0.69944 0.5339 0.0
C591 C 0.82819 0.72578 0.51389 0.0
C592 C 0.85979 0.77778 0.51737 0.0
C593 C 0.84932 0.70714 0.49832 0.0
C594 C 0.7804 0.71469 0.50752 0.0
C595 C 0.74761 0.68583 0.52155 0.0
C596 C 0.70154 0.67371 0.51982 0.0
C597 C 0.68874 0.69192 0.50346 0.0
C598 C 0.72181 0.72163 0.48895 0.0
C599 C 0.76805 0.73247 0.49087 0.0
H600 H 0.12711 0.79206 0.73682 0.0
H601 H 0.22437 0.92037 0.70721 0.0
H602 H 0.18339 0.89152 0.67445 0.0
H603 H 0.10688 0.71497 0.69321 0.0
H604 H 0.04615 0.68009 0.6985 0.0
H605 H 0.08586 0.70852 0.71915 0.0
H606 H 0.03965 0.74804 0.73008 0.0
H607 H 0.99982 0.71971 0.70952 0.0
H608 H 0.02908 0.78155 0.7116 0.0
H609 H 0.13102 0.85055 0.64545 0.0
H610 H 0.06658 0.80313 0.62246 0.0
H611 H 0.99966 0.70254 0.67108 0.0
C612 C 0.14015 0.81364 0.72332 0.0
C613 C 0.17918 0.8582 0.7244 0.0
C614 C 0.19461 0.88607 0.70662 0.0
C615 C 0.17172 0.86989 0.68796 0.0
C616 C 0.1331 0.82599 0.6874 0.0
C617 C 0.11705 0.79836 0.70462 0.0
C618 C 0.07237 0.75429 0.7002 0.0
C619 C 0.07818 0.71196 0.70292 0.0
C620 C 0.03291 0.75071 0.71365 0.0
C621 C 0.06564 0.76174 0.67787 0.0
C622 C 0.10153 0.80298 0.67075 0.0
C623 C 0.10277 0.8181 0.6508 0.0
C624 C 0.06593 0.7908 0.63785 0.0
C625 C 0.02792 0.74903 0.64493 0.0
C626 C 0.02824 0.73411 0.66516 0.0
H627 H 0.3155 0.16747 0.87712 0.0
H628 H 0.37402 0.11814 0.9228 0.0
H629 H 0.37041 0.06017 0.89813 0.0
H630 H 0.236 0.06155 0.85752 0.0
H631 H 0.24191 0.08033 0.83127 0.0
H632 H 0.25395 0.12073 0.85168 0.0
H633 H 0.33572 0.17383 0.83687 0.0
H634 H 0.32379 0.1337 0.81627 0.0
H635 H 0.37336 0.15082 0.83228 0.0
H636 H 0.35041 1.00114 0.86966 0.0
H637 H 0.32165 0.95055 0.83922 0.0
H638 H 0.27977 0.04196 0.81222 0.0
C639 C 0.3284 0.14506 0.88183 0.0
C640 C 0.34504 0.14718 0.90183 0.0
C641 C 0.36154 0.11728 0.90745 0.0
C642 C 0.35946 0.08421 0.89357 0.0
C643 C 0.34162 0.08224 0.87409 0.0
C644 C 0.32713 0.11248 0.86815 0.0
C645 C 0.30749 0.10228 0.84677 0.0
C646 C 0.25685 0.09051 0.84683 0.0
C647 C 0.33686 0.14255 0.83219 0.0
C648 C 0.3118 0.06062 0.84175 0.0
C649 C 0.33158 0.04947 0.85763 0.0
C650 C 0.33573 0.01012 0.85698 0.0
C651 C 0.31915 0.98151 0.83969 0.0
C652 C 0.29895 0.99261 0.82327 0.0
C653 C 0.29585 0.033 0.82433 0.0
H654 H 0.70132 0.78997 0.77434 0.0
H655 H 0.66146 0.87221 0.81096 0.0
H656 H 0.6645 0.83243 0.84224 0.0
H657 H 0.6439 0.68215 0.8064 0.0
H658 H 0.69132 0.67178 0.80303 0.0
H659 H 0.67751 0.70006 0.78313 0.0
H660 H 0.76111 0.76854 0.78397 0.0
H661 H 0.77509 0.74077 0.80396 0.0
H662 H 0.78447 0.79806 0.8078 0.0
H663 H 0.6803 0.79158 0.86943 0.0
H664 H 0.70969 0.75313 0.89163 0.0
H665 H 0.74344 0.69863 0.83809 0.0
C666 C 0.69154 0.79811 0.78891 0.0
C667 C 0.67998 0.83312 0.79038 0.0
C668 C 0.66952 0.84479 0.80965 0.0
C669 C 0.67112 0.82237 0.82743 0.0
C670 C 0.68383 0.7888 0.82564 0.0
C671 C 0.69391 0.7766 0.80691 0.0
C672 C 0.71206 0.74354 0.80963 0.0
C673 C 0.67923 0.69659 0.79998 0.0
C674 C 0.76108 0.76397 0.80082 0.0
C675 C 0.71183 0.7402 0.83281 0.0
C676 C 0.69465 0.76604 0.84163 0.0
C677 C 0.69328 0.77075 0.86273 0.0
C678 C 0.71033 0.74889 0.87521 0.0
C679 C 0.7289 0.72279 0.86663 0.0
C680 C 0.729 0.71788 0.84511 0.0
H681 H 0.90465 0.67365 0.94086 0.0
H682 H 0.78391 0.65467 0.97378 0.0
H683 H 0.8241 0.66516 1.00659 0.0
H684 H 0.94581 0.62091 0.9805 0.0
H685 H 1.00526 0.66352 0.97607 0.0
H686 H 0.96447 0.64606 0.95542 0.0
H687 H 0.98716 0.73118 0.94947 0.0
H688 H 0.02752 0.74886 0.97022 0.0
H689 H 0.98299 0.76401 0.97041 0.0
H690 H 0.87933 0.68738 0.03515 0.0
H691 H 0.94626 0.71877 0.0581 0.0
H692 H 0.03321 0.72601 1.00709 0.0
C693 C 0.88628 0.66989 0.95506 0.0
C694 C 0.84096 0.66242 0.95494 0.0
C695 C 0.81844 0.65972 0.97368 0.0
C696 C 0.84097 0.66562 0.99236 0.0
C697 C 0.88621 0.67456 0.99203 0.0
C698 C 0.90869 0.67648 0.97392 0.0
C699 C 0.95886 0.69163 0.97781 0.0
C700 C 0.9692 0.65323 0.97211 0.0
C701 C 0.991 0.73658 0.9663 0.0
C702 C 0.96123 0.69916 1.00079 0.0
C703 C 0.91876 0.68853 0.00867 0.0
C704 C 0.91266 0.69518 0.02924 0.0
C705 C 0.95099 0.71327 0.04214 0.0
C706 C 0.99503 0.72477 0.03445 0.0
C707 C 0.99995 0.71714 0.0135 0.0
H708 H 0.12935 0.8414 0.13809 0.0
H709 H 0.24563 0.85817 0.10183 0.0
H710 H 0.29882 0.91264 0.12734 0.0
H711 H 0.1759 0.95576 0.15195 0.0
H712 H 0.15306 0.94513 0.17766 0.0
H713 H 0.12373 0.90296 0.15801 0.0
H714 H 0.12819 0.84102 0.17997 0.0
H715 H 0.15738 0.88302 0.1998 0.0
H716 H 0.18324 0.85164 0.18916 0.0
H717 H 0.33915 0.97309 0.15375 0.0
H718 H 0.36412 0.03224 0.18077 0.0
H719 H 0.22268 0.97437 0.20123 0.0
C720 C 0.16597 0.85566 0.13576 0.0
C721 C 0.18324 0.84535 0.11794 0.0
C722 C 0.23147 0.86528 0.11536 0.0
C723 C 0.26203 0.89629 0.12979 0.0
C724 C 0.24392 0.90663 0.14688 0.0
C725 C 0.19704 0.8865 0.15011 0.0
C726 C 0.18668 0.90576 0.16914 0.0
C727 C 0.15817 0.92877 0.16386 0.0
C728 C 0.16244 0.86811 0.18549 0.0
C729 C 0.23502 0.94098 0.17568 0.0
C730 C 0.2675 0.94074 0.16264 0.0
C731 C 0.31417 0.97292 0.16435 0.0
C732 C 0.328 1.00646 0.17966 0.0
C733 C 0.29538 1.00728 0.19321 0.0
C734 C 0.24841 0.97364 0.1914 0.0
H735 H 0.29254 0.1369 0.29664 0.0
H736 H 0.3916 0.25511 0.26127 0.0
H737 H 0.38567 0.30696 0.28627 0.0
H738 H 0.22001 0.18026 0.30968 0.0
H739 H 0.2074 0.15702 0.33528 0.0
H740 H 0.22219 0.12891 0.31566 0.0
H741 H 0.28863 0.13513 0.33802 0.0
H742 H 0.27384 0.16302 0.35781 0.0
H743 H 0.33155 0.19059 0.34755 0.0
H744 H 0.36311 0.34579 0.31291 0.0
H745 H 0.32926 0.36911 0.34087 0.0
H746 H 0.2472 0.22643 0.35994 0.0
C747 C 0.31364 0.1737 0.29435 0.0
C748 C 0.34259 0.19184 0.27695 0.0
C749 C 0.36928 0.24026 0.27447 0.0
C750 C 0.36614 0.27008 0.28859 0.0
C751 C 0.33654 0.25109 0.30528 0.0
C752 C 0.31117 0.20405 0.3084 0.0
C753 C 0.28071 0.1926 0.32724 0.0
C754 C 0.22956 0.16295 0.32162 0.0
C755 C 0.29453 0.16894 0.34363 0.0
C756 C 0.29215 0.24046 0.33393 0.0
C757 C 0.32443 0.27368 0.32103 0.0
C758 C 0.33836 0.32017 0.3233 0.0
C759 C 0.3188 0.33306 0.33917 0.0
C760 C 0.28593 0.29967 0.35268 0.0
C761 C 0.27283 0.25282 0.35007 0.0
H762 H 0.16551 0.2892 0.46268 0.0
H763 H 0.13338 0.37952 0.42772 0.0
H764 H 0.07801 0.37254 0.45439 0.0
H765 H 0.05257 0.21331 0.48111 0.0
H766 H 0.07037 0.20646 0.50623 0.0
H767 H 0.10861 0.2194 0.48468 0.0
H768 H 0.17169 0.29114 0.50353 0.0
H769 H 0.13367 0.27831 0.52519 0.0
H770 H 0.1587 0.33392 0.51298 0.0
H771 H 0.02142 0.35069 0.48327 0.0
H772 H 0.97252 0.32099 0.51428 0.0
H773 H 0.04494 0.24954 0.53187 0.0
C774 C 0.14708 0.30778 0.46074 0.0
C775 C 0.15377 0.33488 0.44311 0.0
C776 C 0.12908 0.35878 0.44115 0.0
C777 C 0.0974 0.35492 0.45618 0.0
C778 C 0.09125 0.32761 0.47327 0.0
C779 C 0.11584 0.30498 0.47581 0.0
C780 C 0.10274 0.27801 0.49571 0.0
C781 C 0.08236 0.22623 0.49168 0.0
C782 C 0.14417 0.29646 0.51021 0.0
C783 C 0.06645 0.28844 0.50374 0.0
C784 C 0.06009 0.31681 0.49047 0.0
C785 C 0.02655 0.32903 0.49395 0.0
C786 C 0.99886 0.3119 0.51153 0.0
C787 C 1.0054 0.28352 0.52553 0.0
C788 C 0.03984 0.27193 0.5216 0.0
H789 H 0.71933 0.99142 0.68 0.0
H790 H 0.81847 0.0574 0.72884 0.0
H791 H 0.86693 0.122 0.70588 0.0
H792 H 0.79964 0.02191 0.63951 0.0
H793 H 0.76642 0.03282 0.62106 0.0
H794 H 0.73777 0.99248 0.64159 0.0
H795 H 0.69778 0.03805 0.6528 0.0
H796 H 0.72622 0.07849 0.63225 0.0
H797 H 0.73223 0.09868 0.65825 0.0
H798 H 0.90857 0.17551 0.67701 0.0
H799 H 0.9377 0.21804 0.64441 0.0
H800 H 0.81014 0.12122 0.61465 0.0
C801 C 0.75094 0.01972 0.68592 0.0
C802 C 0.76502 0.0192 0.70625 0.0
C803 C 0.80674 0.05693 0.71338 0.0
C804 C 0.83464 0.09387 0.70044 0.0
C805 C 0.82017 0.09305 0.68045 0.0
C806 C 0.77906 0.05736 0.67325 0.0
C807 C 0.77211 0.06489 0.65095 0.0
C808 C 0.7688 0.0257 0.63749 0.0
C809 C 0.72956 0.07036 0.64842 0.0
C810 C 0.81617 0.10982 0.64671 0.0
C811 C 0.84347 0.1253 0.66393 0.0
C812 C 0.8872 0.16426 0.6635 0.0
C813 C 0.90352 0.18808 0.64494 0.0
C814 C 0.87591 0.17324 0.62718 0.0
C815 C 0.83152 0.13386 0.62816 0.0
loop_
_geom_bond_atom_site_label_1
_geom_bond_atom_site_label_2
_geom_bond_distance
_geom_bond_site_symmetry_2
_ccdc_geom_bond_type
C0 O2 1.247 . S
C0 O4 1.258 . S
C1 O8 1.247 . S
C1 O9 1.258 . S
O2 C0 1.247 . S
O2 Zn3 2.028 . S
Zn3 O2 2.028 . S
Zn3 O7 2.035 . S
Zn3 O9 2.035 . S
Zn3 O10 2.028 . S
O4 C0 1.258 . S
O4 Zn5 2.035 . S
Zn5 O4 2.035 . S
Zn5 O6 2.028 . S
Zn5 O8 2.028 . S
Zn5 O11 2.035 . S
O6 Zn5 2.028 . S
O6 C12 1.247 . S
O7 Zn3 2.035 . S
O7 C12 1.258 . S
O8 C1 1.247 . S
O8 Zn5 2.028 . S
O9 C1 1.258 . S
O9 Zn3 2.035 . S
O10 Zn3 2.028 . S
O10 C13 1.247 . S
O11 Zn5 2.035 . S
O11 C13 1.258 . S
C12 O6 1.247 . S
C12 O7 1.258 . S
C13 O10 1.247 . S
C13 O11 1.258 . S
C14 O16 1.247 . S
C14 O18 1.258 . S
C15 O22 1.247 . S
C15 O23 1.258 . S
O16 C14 1.247 . S
O16 Zn17 2.028 . S
Zn17 O16 2.028 . S
Zn17 O21 2.035 . S
Zn17 O23 2.035 . S
Zn17 O24 2.028 . S
O18 C14 1.258 . S
O18 Zn19 2.035 . S
Zn19 O18 2.035 . S
Zn19 O20 2.028 . S
Zn19 O22 2.028 . S
Zn19 O25 2.035 . S
O20 Zn19 2.028 . S
O20 C26 1.247 . S
O21 Zn17 2.035 . S
O21 C26 1.258 . S
O22 C15 1.247 . S
O22 Zn19 2.028 . S
O23 C15 1.258 . S
O23 Zn17 2.035 . S
O24 Zn17 2.028 . S
O24 C27 1.247 . S
O25 Zn19 2.035 . S
O25 C27 1.258 . S
C26 O20 1.247 . S
C26 O21 1.258 . S
C27 O24 1.247 . S
C27 O25 1.258 . S
C28 O30 1.247 . S
C28 O32 1.258 . S
C29 O36 1.247 . S
C29 O37 1.258 . S
O30 C28 1.247 . S
O30 Zn31 2.028 . S
Zn31 O30 2.028 . S
Zn31 O35 2.035 . S
Zn31 O37 2.035 . S
Zn31 O38 2.028 . S
O32 C28 1.258 . S
O32 Zn33 2.035 . S
Zn33 O32 2.035 . S
Zn33 O34 2.028 . S
Zn33 O36 2.028 . S
Zn33 O39 2.035 . S
O34 Zn33 2.028 . S
O34 C40 1.247 . S
O35 Zn31 2.035 . S
O35 C40 1.258 . S
O36 C29 1.247 . S
O36 Zn33 2.028 . S
O37 C29 1.258 . S
O37 Zn31 2.035 . S
O38 Zn31 2.028 . S
O38 C41 1.247 . S
O39 Zn33 2.035 . S
O39 C41 1.258 . S
C40 O34 1.247 . S
C40 O35 1.258 . S
C41 O38 1.247 . S
C41 O39 1.258 . S
C42 O44 1.247 . S
C42 O46 1.258 . S
C43 O50 1.247 . S
C43 O51 1.258 . S
O44 C42 1.247 . S
O44 Zn45 2.028 . S
Zn45 O44 2.028 . S
Zn45 O49 2.035 . S
Zn45 O51 2.035 . S
Zn45 O52 2.028 . S
O46 C42 1.258 . S
O46 Zn47 2.035 . S
Zn47 O46 2.035 . S
Zn47 O48 2.028 . S
Zn47 O50 2.028 . S
Zn47 O53 2.035 . S
O48 Zn47 2.028 . S
O48 C54 1.247 . S
O49 Zn45 2.035 . S
O49 C54 1.258 . S
O50 C43 1.247 . S
O50 Zn47 2.028 . S
O51 C43 1.258 . S
O51 Zn45 2.035 . S
O52 Zn45 2.028 . S
O52 C55 1.247 . S
O53 Zn47 2.035 . S
O53 C55 1.258 . S
C54 O48 1.247 . S
C54 O49 1.258 . S
C55 O52 1.247 . S
C55 O53 1.258 . S
C56 O58 1.247 . S
C56 O60 1.258 . S
C57 O64 1.247 . S
C57 O65 1.258 . S
O58 C56 1.247 . S
O58 Zn59 2.028 . S
Zn59 O58 2.028 . S
Zn59 O63 2.035 . S
Zn59 O65 2.035 . S
Zn59 O66 2.028 . S
O60 C56 1.258 . S
O60 Zn61 2.035 . S
Zn61 O60 2.035 . S
Zn61 O62 2.028 . S
Zn61 O64 2.028 . S
Zn61 O67 2.035 . S
O62 Zn61 2.028 . S
O62 C68 1.247 . S
O63 Zn59 2.035 . S
O63 C68 1.258 . S
O64 C57 1.247 . S
O64 Zn61 2.028 . S
O65 C57 1.258 . S
O65 Zn59 2.035 . S
O66 Zn59 2.028 . S
O66 C69 1.247 . S
O67 Zn61 2.035 . S
O67 C69 1.258 . S
C68 O62 1.247 . S
C68 O63 1.258 . S
C69 O66 1.247 . S
C69 O67 1.258 . S
C70 O72 1.247 . S
C70 O74 1.258 . S
C71 O78 1.247 . S
C71 O79 1.258 . S
O72 C70 1.247 . S
O72 Zn73 2.028 . S
Zn73 O72 2.028 . S
Zn73 O77 2.035 . S
Zn73 O79 2.035 . S
Zn73 O80 2.028 . S
O74 C70 1.258 . S
O74 Zn75 2.035 . S
Zn75 O74 2.035 . S
Zn75 O76 2.028 . S
Zn75 O78 2.028 . S
Zn75 O81 2.035 . S
O76 Zn75 2.028 . S
O76 C82 1.247 . S
O77 Zn73 2.035 . S
O77 C82 1.258 . S
O78 C71 1.247 . S
O78 Zn75 2.028 . S
O79 C71 1.258 . S
O79 Zn73 2.035 . S
O80 Zn73 2.028 . S
O80 C83 1.247 . S
O81 Zn75 2.035 . S
O81 C83 1.258 . S
C82 O76 1.247 . S
C82 O77 1.258 . S
C83 O80 1.247 . S
C83 O81 1.258 . S
C84 O86 1.247 . S
C84 O88 1.258 . S
C85 O92 1.247 . S
C85 O93 1.258 . S
O86 C84 1.247 . S
O86 Zn87 2.028 . S
Zn87 O86 2.028 . S
Zn87 O91 2.035 . S
Zn87 O93 2.035 . S
Zn87 O94 2.028 . S
O88 C84 1.258 . S
O88 Zn89 2.035 . S
Zn89 O88 2.035 . S
Zn89 O90 2.028 . S
Zn89 O92 2.028 . S
Zn89 O95 2.035 . S
O90 Zn89 2.028 . S
O90 C96 1.247 . S
O91 Zn87 2.035 . S
O91 C96 1.258 . S
O92 C85 1.247 . S
O92 Zn89 2.028 . S
O93 C85 1.258 . S
O93 Zn87 2.035 . S
O94 Zn87 2.028 . S
O94 C97 1.247 . S
O95 Zn89 2.035 . S
O95 C97 1.258 . S
C96 O90 1.247 . S
C96 O91 1.258 . S
C97 O94 1.247 . S
C97 O95 1.258 . S
C98 O100 1.247 . S
C98 O102 1.258 . S
C99 O106 1.247 . S
C99 O107 1.258 . S
O100 C98 1.247 . S
O100 Zn101 2.028 . S
Zn101 O100 2.028 . S
Zn101 O105 2.035 . S
Zn101 O107 2.035 . S
Zn101 O108 2.028 . S
O102 C98 1.258 . S
O102 Zn103 2.035 . S
Zn103 O102 2.035 . S
Zn103 O104 2.028 . S
Zn103 O106 2.028 . S
Zn103 O109 2.035 . S
O104 Zn103 2.028 . S
O104 C110 1.247 . S
O105 Zn101 2.035 . S
O105 C110 1.258 . S
O106 C99 1.247 . S
O106 Zn103 2.028 . S
O107 C99 1.258 . S
O107 Zn101 2.035 . S
O108 Zn101 2.028 . S
O108 C111 1.247 . S
O109 Zn103 2.035 . S
O109 C111 1.258 . S
C110 O104 1.247 . S
C110 O105 1.258 . S
C111 O108 1.247 . S
C111 O109 1.258 . S
C112 O114 1.247 . S
C112 O116 1.258 . S
C113 O120 1.247 . S
C113 O121 1.258 . S
O114 C112 1.247 . S
O114 Zn115 2.028 . S
Zn115 O114 2.028 . S
Zn115 O119 2.035 . S
Zn115 O121 2.035 . S
Zn115 O122 2.028 . S
O116 C112 1.258 . S
O116 Zn117 2.035 . S
Zn117 O116 2.035 . S
Zn117 O118 2.028 . S
Zn117 O120 2.028 . S
Zn117 O123 2.035 . S
O118 Zn117 2.028 . S
O118 C124 1.247 . S
O119 Zn115 2.035 . S
O119 C124 1.258 . S
O120 C113 1.247 . S
O120 Zn117 2.028 . S
O121 C113 1.258 . S
O121 Zn115 2.035 . S
O122 Zn115 2.028 . S
O122 C125 1.247 . S
O123 Zn117 2.035 . S
O123 C125 1.258 . S
C124 O118 1.247 . S
C124 O119 1.258 . S
C125 O122 1.247 . S
C125 O123 1.258 . S
C126 O128 1.247 . S
C126 O130 1.258 . S
C127 O134 1.247 . S
C127 O135 1.258 . S
O128 C126 1.247 . S
O128 Zn129 2.028 . S
Zn129 O128 2.028 . S
Zn129 O133 2.035 . S
Zn129 O135 2.035 . S
Zn129 O136 2.028 . S
O130 C126 1.258 . S
O130 Zn131 2.035 . S
Zn131 O130 2.035 . S
Zn131 O132 2.028 . S
Zn131 O134 2.028 . S
Zn131 O137 2.035 . S
O132 Zn131 2.028 . S
O132 C138 1.247 . S
O133 Zn129 2.035 . S
O133 C138 1.258 . S
O134 C127 1.247 . S
O134 Zn131 2.028 . S
O135 C127 1.258 . S
O135 Zn129 2.035 . S
O136 Zn129 2.028 . S
O136 C139 1.247 . S
O137 Zn131 2.035 . S
O137 C139 1.258 . S
C138 O132 1.247 . S
C138 O133 1.258 . S
C139 O136 1.247 . S
C139 O137 1.258 . S
C140 O142 1.247 . S
C140 O144 1.258 . S
C141 O148 1.247 . S
C141 O149 1.258 . S
O142 C140 1.247 . S
O142 Zn143 2.028 . S
Zn143 O142 2.028 . S
Zn143 O147 2.035 . S
Zn143 O149 2.035 . S
Zn143 O150 2.028 . S
O144 C140 1.258 . S
O144 Zn145 2.035 . S
Zn145 O144 2.035 . S
Zn145 O146 2.028 . S
Zn145 O148 2.028 . S
Zn145 O151 2.035 . S
O146 Zn145 2.028 . S
O146 C152 1.247 . S
O147 Zn143 2.035 . S
O147 C152 1.258 . S
O148 C141 1.247 . S
O148 Zn145 2.028 . S
O149 C141 1.258 . S
O149 Zn143 2.035 . S
O150 Zn143 2.028 . S
O150 C153 1.247 . S
O151 Zn145 2.035 . S
O151 C153 1.258 . S
C152 O146 1.247 . S
C152 O147 1.258 . S
C153 O150 1.247 . S
C153 O151 1.258 . S
C154 O156 1.247 . S
C154 O158 1.258 . S
C155 O162 1.247 . S
C155 O163 1.258 . S
O156 C154 1.247 . S
O156 Zn157 2.028 . S
Zn157 O156 2.028 . S
Zn157 O161 2.035 . S
Zn157 O163 2.035 . S
Zn157 O164 2.028 . S
O158 C154 1.258 . S
O158 Zn159 2.035 . S
Zn159 O158 2.035 . S
Zn159 O160 2.028 . S
Zn159 O162 2.028 . S
Zn159 O165 2.035 . S
O160 Zn159 2.028 . S
O160 C166 1.247 . S
O161 Zn157 2.035 . S
O161 C166 1.258 . S
O162 C155 1.247 . S
O162 Zn159 2.028 . S
O163 C155 1.258 . S
O163 Zn157 2.035 . S
O164 Zn157 2.028 . S
O164 C167 1.247 . S
O165 Zn159 2.035 . S
O165 C167 1.258 . S
C166 O160 1.247 . S
C166 O161 1.258 . S
C167 O164 1.247 . S
C167 O165 1.258 . S
H168 C180 0.930 . S
H169 C182 0.930 . S
H170 C183 0.930 . S
H171 C187 0.959 . S
H172 C187 0.959 . S
H173 C187 0.961 . S
H174 C188 0.960 . S
H175 C188 0.961 . S
H176 C188 0.959 . S
H177 C191 0.929 . S
H178 C192 0.931 . S
H179 C194 0.930 . S
C180 H168 0.930 . S
C180 C181 1.399 . S
C180 C185 1.399 . S
C181 C180 1.399 . S
C181 C182 1.376 . S
C182 H169 0.930 . S
C182 C181 1.376 . S
C182 C183 1.388 . S
C183 H170 0.930 . S
C183 C182 1.388 . S
C183 C184 1.390 . S
C184 C183 1.390 . S
C184 C185 1.394 . S
C184 C190 1.465 . S
C185 C180 1.399 . S
C185 C184 1.394 . S
C185 C186 1.516 . S
C186 C185 1.516 . S
C186 C187 1.502 . S
C186 C188 1.561 . S
C186 C189 1.526 . S
C187 H171 0.959 . S
C187 H172 0.959 . S
C187 H173 0.961 . S
C187 C186 1.502 . S
C188 H174 0.960 . S
C188 H175 0.961 . S
C188 H176 0.959 . S
C188 C186 1.561 . S
C189 C186 1.526 . S
C189 C190 1.396 . S
C189 C194 1.390 . S
C190 C184 1.465 . S
C190 C189 1.396 . S
C190 C191 1.399 . S
C191 H177 0.929 . S
C191 C190 1.399 . S
C191 C192 1.385 . S
C192 H178 0.931 . S
C192 C191 1.385 . S
C192 C193 1.389 . S
C193 C192 1.389 . S
C193 C194 1.387 . S
C194 H179 0.930 . S
C194 C189 1.390 . S
C194 C193 1.387 . S
H195 C207 0.930 . S
H196 C209 0.930 . S
H197 C210 0.930 . S
H198 C214 0.959 . S
H199 C214 0.959 . S
H200 C214 0.961 . S
H201 C215 0.960 . S
H202 C215 0.961 . S
H203 C215 0.959 . S
H204 C218 0.929 . S
H205 C219 0.931 . S
H206 C221 0.930 . S
C207 H195 0.930 . S
C207 C208 1.399 . S
C207 C212 1.399 . S
C208 C207 1.399 . S
C208 C209 1.376 . S
C209 H196 0.930 . S
C209 C208 1.376 . S
C209 C210 1.388 . S
C210 H197 0.930 . S
C210 C209 1.388 . S
C210 C211 1.390 . S
C211 C210 1.390 . S
C211 C212 1.394 . S
C211 C217 1.465 . S
C212 C207 1.399 . S
C212 C211 1.394 . S
C212 C213 1.516 . S
C213 C212 1.516 . S
C213 C214 1.502 . S
C213 C215 1.561 . S
C213 C216 1.526 . S
C214 H198 0.959 . S
C214 H199 0.959 . S
C214 H200 0.961 . S
C214 C213 1.502 . S
C215 H201 0.960 . S
C215 H202 0.961 . S
C215 H203 0.959 . S
C215 C213 1.561 . S
C216 C213 1.526 . S
C216 C217 1.396 . S
C216 C221 1.390 . S
C217 C211 1.465 . S
C217 C216 1.396 . S
C217 C218 1.399 . S
C218 H204 0.929 . S
C218 C217 1.399 . S
C218 C219 1.385 . S
C219 H205 0.931 . S
C219 C218 1.385 . S
C219 C220 1.389 . S
C220 C219 1.389 . S
C220 C221 1.387 . S
C221 H206 0.930 . S
C221 C216 1.390 . S
C221 C220 1.387 . S
H222 C234 0.930 . S
H223 C236 0.930 . S
H224 C237 0.930 . S
H225 C241 0.959 . S
H226 C241 0.959 . S
H227 C241 0.961 . S
H228 C242 0.960 . S
H229 C242 0.961 . S
H230 C242 0.959 . S
H231 C245 0.929 . S
H232 C246 0.931 . S
H233 C248 0.930 . S
C234 H222 0.930 . S
C234 C235 1.399 . S
C234 C239 1.399 . S
C235 C234 1.399 . S
C235 C236 1.376 . S
C236 H223 0.930 . S
C236 C235 1.376 . S
C236 C237 1.388 . S
C237 H224 0.930 . S
C237 C236 1.388 . S
C237 C238 1.390 . S
C238 C237 1.390 . S
C238 C239 1.394 . S
C238 C244 1.465 . S
C239 C234 1.399 . S
C239 C238 1.394 . S
C239 C240 1.516 . S
C240 C239 1.516 . S
C240 C241 1.502 . S
C240 C242 1.561 . S
C240 C243 1.526 . S
C241 H225 0.959 . S
C241 H226 0.959 . S
C241 H227 0.961 . S
C241 C240 1.502 . S
C242 H228 0.960 . S
C242 H229 0.961 . S
C242 H230 0.959 . S
C242 C240 1.561 . S
C243 C240 1.526 . S
C243 C244 1.396 . S
C243 C248 1.390 . S
C244 C238 1.465 . S
C244 C243 1.396 . S
C244 C245 1.399 . S
C245 H231 0.929 . S
C245 C244 1.399 . S
C245 C246 1.385 . S
C246 H232 0.931 . S
C246 C245 1.385 . S
C246 C247 1.389 . S
C247 C246 1.389 . S
C247 C248 1.387 . S
C248 H233 0.930 . S
C248 C243 1.390 . S
C248 C247 1.387 . S
H249 C261 0.930 . S
H250 C263 0.930 . S
H251 C264 0.930 . S
H252 C268 0.959 . S
H253 C268 0.959 . S
H254 C268 0.961 . S
H255 C269 0.960 . S
H256 C269 0.961 . S
H257 C269 0.959 . S
H258 C272 0.929 . S
H259 C273 0.931 . S
H260 C275 0.930 . S
C261 H249 0.930 . S
C261 C262 1.399 . S
C261 C266 1.399 . S
C262 C261 1.399 . S
C262 C263 1.376 . S
C263 H250 0.930 . S
C263 C262 1.376 . S
C263 C264 1.388 . S
C264 H251 0.930 . S
C264 C263 1.388 . S
C264 C265 1.390 . S
C265 C264 1.390 . S
C265 C266 1.394 . S
C265 C271 1.465 . S
C266 C261 1.399 . S
C266 C265 1.394 . S
C266 C267 1.516 . S
C267 C266 1.516 . S
C267 C268 1.502 . S
C267 C269 1.561 . S
C267 C270 1.526 . S
C268 H252 0.959 . S
C268 H253 0.959 . S
C268 H254 0.961 . S
C268 C267 1.502 . S
C269 H255 0.960 . S
C269 H256 0.961 . S
C269 H257 0.959 . S
C269 C267 1.561 . S
C270 C267 1.526 . S
C270 C271 1.396 . S
C270 C275 1.390 . S
C271 C265 1.465 . S
C271 C270 1.396 . S
C271 C272 1.399 . S
C272 H258 0.929 . S
C272 C271 1.399 . S
C272 C273 1.385 . S
C273 H259 0.931 . S
C273 C272 1.385 . S
C273 C274 1.389 . S
C274 C273 1.389 . S
C274 C275 1.387 . S
C275 H260 0.930 . S
C275 C270 1.390 . S
C275 C274 1.387 . S
H276 C288 0.930 . S
H277 C290 0.930 . S
H278 C291 0.930 . S
H279 C295 0.959 . S
H280 C295 0.959 . S
H281 C295 0.961 . S
H282 C296 0.960 . S
H283 C296 0.961 . S
H284 C296 0.959 . S
H285 C299 0.929 . S
H286 C300 0.931 . S
H287 C302 0.930 . S
C288 H276 0.930 . S
C288 C289 1.399 . S
C288 C293 1.399 . S
C289 C288 1.399 . S
C289 C290 1.376 . S
C290 H277 0.930 . S
C290 C289 1.376 . S
C290 C291 1.388 . S
C291 H278 0.930 . S
C291 C290 1.388 . S
C291 C292 1.390 . S
C292 C291 1.390 . S
C292 C293 1.394 . S
C292 C298 1.465 . S
C293 C288 1.399 . S
C293 C292 1.394 . S
C293 C294 1.516 . S
C294 C293 1.516 . S
C294 C295 1.502 . S
C294 C296 1.561 . S
C294 C297 1.526 . S
C295 H279 0.959 . S
C295 H280 0.959 . S
C295 H281 0.961 . S
C295 C294 1.502 . S
C296 H282 0.960 . S
C296 H283 0.961 . S
C296 H284 0.959 . S
C296 C294 1.561 . S
C297 C294 1.526 . S
C297 C298 1.396 . S
C297 C302 1.390 . S
C298 C292 1.465 . S
C298 C297 1.396 . S
C298 C299 1.399 . S
C299 H285 0.929 . S
C299 C298 1.399 . S
C299 C300 1.385 . S
C300 H286 0.931 . S
C300 C299 1.385 . S
C300 C301 1.389 . S
C301 C300 1.389 . S
C301 C302 1.387 . S
C302 H287 0.930 . S
C302 C297 1.390 . S
C302 C301 1.387 . S
H303 C315 0.930 . S
H304 C317 0.930 . S
H305 C318 0.930 . S
H306 C322 0.959 . S
H307 C322 0.959 . S
H308 C322 0.961 . S
H309 C323 0.960 . S
H310 C323 0.961 . S
H311 C323 0.959 . S
H312 C326 0.929 . S
H313 C327 0.931 . S
H314 C329 0.930 . S
C315 H303 0.930 . S
C315 C316 1.399 . S
C315 C320 1.399 . S
C316 C315 1.399 . S
C316 C317 1.376 . S
C317 H304 0.930 . S
C317 C316 1.376 . S
C317 C318 1.388 . S
C318 H305 0.930 . S
C318 C317 1.388 . S
C318 C319 1.390 . S
C319 C318 1.390 . S
C319 C320 1.394 . S
C319 C325 1.465 . S
C320 C315 1.399 . S
C320 C319 1.394 . S
C320 C321 1.516 . S
C321 C320 1.516 . S
C321 C322 1.502 . S
C321 C323 1.561 . S
C321 C324 1.526 . S
C322 H306 0.959 . S
C322 H307 0.959 . S
C322 H308 0.961 . S
C322 C321 1.502 . S
C323 H309 0.960 . S
C323 H310 0.961 . S
C323 H311 0.959 . S
C323 C321 1.561 . S
C324 C321 1.526 . S
C324 C325 1.396 . S
C324 C329 1.390 . S
C325 C319 1.465 . S
C325 C324 1.396 . S
C325 C326 1.399 . S
C326 H312 0.929 . S
C326 C325 1.399 . S
C326 C327 1.385 . S
C327 H313 0.931 . S
C327 C326 1.385 . S
C327 C328 1.389 . S
C328 C327 1.389 . S
C328 C329 1.387 . S
C329 H314 0.930 . S
C329 C324 1.390 . S
C329 C328 1.387 . S
H330 C342 0.930 . S
H331 C344 0.930 . S
H332 C345 0.930 . S
H333 C349 0.959 . S
H334 C349 0.959 . S
H335 C349 0.961 . S
H336 C350 0.960 . S
H337 C350 0.961 . S
H338 C350 0.959 . S
H339 C353 0.929 . S
H340 C354 0.931 . S
H341 C356 0.930 . S
C342 H330 0.930 . S
C342 C343 1.399 . S
C342 C347 1.399 . S
C343 C342 1.399 . S
C343 C344 1.376 . S
C344 H331 0.930 . S
C344 C343 1.376 . S
C344 C345 1.388 . S
C345 H332 0.930 . S
C345 C344 1.388 . S
C345 C346 1.390 . S
C346 C345 1.390 . S
C346 C347 1.394 . S
C346 C352 1.465 . S
C347 C342 1.399 . S
C347 C346 1.394 . S
C347 C348 1.516 . S
C348 C347 1.516 . S
C348 C349 1.502 . S
C348 C350 1.561 . S
C348 C351 1.526 . S
C349 H333 0.959 . S
C349 H334 0.959 . S
C349 H335 0.961 . S
C349 C348 1.502 . S
C350 H336 0.960 . S
C350 H337 0.961 . S
C350 H338 0.959 . S
C350 C348 1.561 . S
C351 C348 1.526 . S
C351 C352 1.396 . S
C351 C356 1.390 . S
C352 C346 1.465 . S
C352 C351 1.396 . S
C352 C353 1.399 . S
C353 H339 0.929 . S
C353 C352 1.399 . S
C353 C354 1.385 . S
C354 H340 0.931 . S
C354 C353 1.385 . S
C354 C355 1.389 . S
C355 C354 1.389 . S
C355 C356 1.387 . S
C356 H341 0.930 . S
C356 C351 1.390 . S
C356 C355 1.387 . S
H357 C369 0.930 . S
H358 C371 0.930 . S
H359 C372 0.930 . S
H360 C376 0.959 . S
H361 C376 0.959 . S
H362 C376 0.961 . S
H363 C377 0.960 . S
H364 C377 0.961 . S
H365 C377 0.959 . S
H366 C380 0.929 1_655 S
H367 C381 0.931 . S
H368 C383 0.930 . S
C369 H357 0.930 . S
C369 C370 1.399 . S
C369 C374 1.399 . S
C370 C369 1.399 . S
C370 C371 1.376 . S
C371 H358 0.930 . S
C371 C370 1.376 . S
C371 C372 1.388 . S
C372 H359 0.930 . S
C372 C371 1.388 . S
C372 C373 1.390 . S
C373 C372 1.390 . S
C373 C374 1.394 . S
C373 C379 1.465 1_655 S
C374 C369 1.399 . S
C374 C373 1.394 . S
C374 C375 1.516 1_655 S
C375 C374 1.516 1_455 S
C375 C376 1.502 . S
C375 C377 1.561 . S
C375 C378 1.526 . S
C376 H360 0.959 . S
C376 H361 0.959 . S
C376 H362 0.961 . S
C376 C375 1.502 . S
C377 H363 0.960 . S
C377 H364 0.961 . S
C377 H365 0.959 . S
C377 C375 1.561 . S
C378 C375 1.526 . S
C378 C379 1.396 . S
C378 C383 1.390 . S
C379 C373 1.465 1_455 S
C379 C378 1.396 . S
C379 C380 1.399 . S
C380 H366 0.929 1_455 S
C380 C379 1.399 . S
C380 C381 1.385 . S
C381 H367 0.931 . S
C381 C380 1.385 . S
C381 C382 1.389 . S
C382 C381 1.389 . S
C382 C383 1.387 . S
C383 H368 0.930 . S
C383 C378 1.390 . S
C383 C382 1.387 . S
H384 C396 0.930 . S
H385 C398 0.930 . S
H386 C399 0.930 1_565 S
H387 C403 0.959 . S
H388 C403 0.959 . S
H389 C403 0.961 . S
H390 C404 0.960 . S
H391 C404 0.961 . S
H392 C404 0.959 . S
H393 C407 0.929 . S
H394 C408 0.931 . S
H395 C410 0.930 . S
C396 H384 0.930 . S
C396 C397 1.399 . S
C396 C401 1.399 . S
C397 C396 1.399 . S
C397 C398 1.376 . S
C398 H385 0.930 . S
C398 C397 1.376 . S
C398 C399 1.388 . S
C399 H386 0.930 1_545 S
C399 C398 1.388 . S
C399 C400 1.390 . S
C400 C399 1.390 . S
C400 C401 1.394 . S
C400 C406 1.465 1_545 S
C401 C396 1.399 . S
C401 C400 1.394 . S
C401 C402 1.516 . S
C402 C401 1.516 . S
C402 C403 1.502 . S
C402 C404 1.561 . S
C402 C405 1.526 1_545 S
C403 H387 0.959 . S
C403 H388 0.959 . S
C403 H389 0.961 . S
C403 C402 1.502 . S
C404 H390 0.960 . S
C404 H391 0.961 . S
C404 H392 0.959 . S
C404 C402 1.561 . S
C405 C402 1.526 1_565 S
C405 C406 1.396 . S
C405 C410 1.390 . S
C406 C400 1.465 1_565 S
C406 C405 1.396 . S
C406 C407 1.399 . S
C407 H393 0.929 . S
C407 C406 1.399 . S
C407 C408 1.385 . S
C408 H394 0.931 . S
C408 C407 1.385 . S
C408 C409 1.389 . S
C409 C408 1.389 . S
C409 C410 1.387 . S
C410 H395 0.930 . S
C410 C405 1.390 . S
C410 C409 1.387 . S
H411 C423 0.930 . S
H412 C425 0.930 . S
H413 C426 0.930 . S
H414 C430 0.959 . S
H415 C430 0.959 . S
H416 C430 0.961 . S
H417 C431 0.960 . S
H418 C431 0.961 . S
H419 C431 0.959 . S
H420 C434 0.929 . S
H421 C435 0.931 . S
H422 C437 0.930 . S
C423 H411 0.930 . S
C423 C424 1.399 . S
C423 C428 1.399 . S
C424 C423 1.399 . S
C424 C425 1.376 . S
C425 H412 0.930 . S
C425 C424 1.376 . S
C425 C426 1.388 . S
C426 H413 0.930 . S
C426 C425 1.388 . S
C426 C427 1.390 . S
C427 C426 1.390 . S
C427 C428 1.394 . S
C427 C433 1.465 . S
C428 C423 1.399 . S
C428 C427 1.394 . S
C428 C429 1.516 . S
C429 C428 1.516 . S
C429 C430 1.502 . S
C429 C431 1.561 . S
C429 C432 1.526 . S
C430 H414 0.959 . S
C430 H415 0.959 . S
C430 H416 0.961 . S
C430 C429 1.502 . S
C431 H417 0.960 . S
C431 H418 0.961 . S
C431 H419 0.959 . S
C431 C429 1.561 . S
C432 C429 1.526 . S
C432 C433 1.396 . S
C432 C437 1.390 . S
C433 C427 1.465 . S
C433 C432 1.396 . S
C433 C434 1.399 . S
C434 H420 0.929 . S
C434 C433 1.399 . S
C434 C435 1.385 . S
C435 H421 0.931 . S
C435 C434 1.385 . S
C435 C436 1.389 . S
C436 C435 1.389 . S
C436 C437 1.387 . S
C437 H422 0.930 . S
C437 C432 1.390 . S
C437 C436 1.387 . S
H438 C450 0.930 . S
H439 C452 0.930 . S
H440 C453 0.930 . S
H441 C457 0.959 . S
H442 C457 0.959 . S
H443 C457 0.961 . S
H444 C458 0.960 . S
H445 C458 0.961 1_455 S
H446 C458 0.959 . S
H447 C461 0.929 . S
H448 C462 0.931 . S
H449 C464 0.930 . S
C450 H438 0.930 . S
C450 C451 1.399 . S
C450 C455 1.399 . S
C451 C450 1.399 . S
C451 C452 1.376 . S
C452 H439 0.930 . S
C452 C451 1.376 . S
C452 C453 1.388 . S
C453 H440 0.930 . S
C453 C452 1.388 . S
C453 C454 1.390 . S
C454 C453 1.390 . S
C454 C455 1.394 . S
C454 C460 1.465 1_655 S
C455 C450 1.399 . S
C455 C454 1.394 . S
C455 C456 1.516 1_655 S
C456 C455 1.516 1_455 S
C456 C457 1.502 . S
C456 C458 1.561 1_455 S
C456 C459 1.526 . S
C457 H441 0.959 . S
C457 H442 0.959 . S
C457 H443 0.961 . S
C457 C456 1.502 . S
C458 H444 0.960 . S
C458 H445 0.961 1_655 S
C458 H446 0.959 . S
C458 C456 1.561 1_655 S
C459 C456 1.526 . S
C459 C460 1.396 . S
C459 C464 1.390 . S
C460 C454 1.465 1_455 S
C460 C459 1.396 . S
C460 C461 1.399 . S
C461 H447 0.929 . S
C461 C460 1.399 . S
C461 C462 1.385 . S
C462 H448 0.931 . S
C462 C461 1.385 . S
C462 C463 1.389 . S
C463 C462 1.389 . S
C463 C464 1.387 . S
C464 H449 0.930 . S
C464 C459 1.390 . S
C464 C463 1.387 . S
H465 C477 0.930 . S
H466 C479 0.930 . S
H467 C480 0.930 1_545 S
H468 C484 0.959 . S
H469 C484 0.959 . S
H470 C484 0.961 . S
H471 C485 0.960 . S
H472 C485 0.961 . S
H473 C485 0.959 . S
H474 C488 0.929 . S
H475 C489 0.931 . S
H476 C491 0.930 . S
C477 H465 0.930 . S
C477 C478 1.399 . S
C477 C482 1.399 . S
C478 C477 1.399 . S
C478 C479 1.376 . S
C479 H466 0.930 . S
C479 C478 1.376 . S
C479 C480 1.388 . S
C480 H467 0.930 1_565 S
C480 C479 1.388 . S
C480 C481 1.390 . S
C481 C480 1.390 . S
C481 C482 1.394 . S
C481 C487 1.465 1_565 S
C482 C477 1.399 . S
C482 C481 1.394 . S
C482 C483 1.516 1_554 S
C483 C482 1.516 1_556 S
C483 C484 1.502 . S
C483 C485 1.561 . S
C483 C486 1.526 1_565 S
C484 H468 0.959 . S
C484 H469 0.959 . S
C484 H470 0.961 . S
C484 C483 1.502 . S
C485 H471 0.960 . S
C485 H472 0.961 . S
C485 H473 0.959 . S
C485 C483 1.561 . S
C486 C483 1.526 1_545 S
C486 C487 1.396 1_556 S
C486 C491 1.390 . S
C487 C481 1.465 1_545 S
C487 C486 1.396 1_554 S
C487 C488 1.399 . S
C488 H474 0.929 . S
C488 C487 1.399 . S
C488 C489 1.385 1_554 S
C489 H475 0.931 . S
C489 C488 1.385 1_556 S
C489 C490 1.389 . S
C490 C489 1.389 . S
C490 C491 1.387 . S
C491 H476 0.930 . S
C491 C486 1.390 . S
C491 C490 1.387 . S
H492 C504 0.930 . S
H493 C506 0.930 . S
H494 C507 0.930 . S
H495 C511 0.959 . S
H496 C511 0.959 . S
H497 C511 0.961 . S
H498 C512 0.960 . S
H499 C512 0.961 . S
H500 C512 0.959 . S
H501 C515 0.929 . S
H502 C516 0.931 . S
H503 C518 0.930 . S
C504 H492 0.930 . S
C504 C505 1.399 . S
C504 C509 1.399 . S
C505 C504 1.399 . S
C505 C506 1.376 . S
C506 H493 0.930 . S
C506 C505 1.376 . S
C506 C507 1.388 . S
C507 H494 0.930 . S
C507 C506 1.388 . S
C507 C508 1.390 . S
C508 C507 1.390 . S
C508 C509 1.394 . S
C508 C514 1.465 . S
C509 C504 1.399 . S
C509 C508 1.394 . S
C509 C510 1.516 . S
C510 C509 1.516 . S
C510 C511 1.502 . S
C510 C512 1.561 . S
C510 C513 1.526 . S
C511 H495 0.959 . S
C511 H496 0.959 . S
C511 H497 0.961 . S
C511 C510 1.502 . S
C512 H498 0.960 . S
C512 H499 0.961 . S
C512 H500 0.959 . S
C512 C510 1.561 . S
C513 C510 1.526 . S
C513 C514 1.396 . S
C513 C518 1.390 . S
C514 C508 1.465 . S
C514 C513 1.396 . S
C514 C515 1.399 1_554 S
C515 H501 0.929 . S
C515 C514 1.399 1_556 S
C515 C516 1.385 . S
C516 H502 0.931 . S
C516 C515 1.385 . S
C516 C517 1.389 . S
C517 C516 1.389 . S
C517 C518 1.387 1_556 S
C518 H503 0.930 . S
C518 C513 1.390 . S
C518 C517 1.387 1_554 S
H519 C531 0.930 . S
H520 C533 0.930 . S
H521 C534 0.930 . S
H522 C538 0.959 . S
H523 C538 0.959 . S
H524 C538 0.961 . S
H525 C539 0.960 . S
H526 C539 0.961 . S
H527 C539 0.959 . S
H528 C542 0.929 . S
H529 C543 0.931 . S
H530 C545 0.930 . S
C531 H519 0.930 . S
C531 C532 1.399 . S
C531 C536 1.399 . S
C532 C531 1.399 . S
C532 C533 1.376 . S
C533 H520 0.930 . S
C533 C532 1.376 . S
C533 C534 1.388 . S
C534 H521 0.930 . S
C534 C533 1.388 . S
C534 C535 1.390 . S
C535 C534 1.390 . S
C535 C536 1.394 . S
C535 C541 1.457 1_655 S
C536 C531 1.399 . S
C536 C535 1.394 . S
C536 C537 1.516 . S
C537 C536 1.516 . S
C537 C538 1.502 . S
C537 C539 1.561 . S
C537 C540 1.526 . S
C538 H522 0.959 . S
C538 H523 0.959 . S
C538 H524 0.961 . S
C538 C537 1.502 . S
C539 H525 0.960 . S
C539 H526 0.961 . S
C539 H527 0.959 . S
C539 C537 1.561 . S
C540 C537 1.526 . S
C540 C541 1.393 1_655 S
C540 C545 1.390 1_655 S
C541 C535 1.457 1_455 S
C541 C540 1.393 1_455 S
C541 C542 1.409 . S
C542 H528 0.929 . S
C542 C541 1.409 . S
C542 C543 1.385 . S
C543 H529 0.931 . S
C543 C542 1.385 . S
C543 C544 1.389 . S
C544 C543 1.389 . S
C544 C545 1.387 . S
C545 H530 0.930 . S
C545 C540 1.390 1_455 S
C545 C544 1.387 . S
H546 C558 0.930 . S
H547 C560 0.930 . S
H548 C561 0.930 . S
H549 C565 0.959 . S
H550 C565 0.959 . S
H551 C565 0.961 . S
H552 C566 0.960 . S
H553 C566 0.961 . S
H554 C566 0.959 . S
H555 C569 0.929 . S
H556 C570 0.931 . S
H557 C572 0.930 . S
C558 H546 0.930 . S
C558 C559 1.399 . S
C558 C563 1.399 1_545 S
C559 C558 1.399 . S
C559 C560 1.376 . S
C560 H547 0.930 . S
C560 C559 1.376 . S
C560 C561 1.388 . S
C561 H548 0.930 . S
C561 C560 1.388 . S
C561 C562 1.371 1_545 S
C562 C561 1.371 1_565 S
C562 C563 1.395 . S
C562 C568 1.485 . S
C563 C558 1.399 1_565 S
C563 C562 1.395 . S
C563 C564 1.516 . S
C564 C563 1.516 . S
C564 C565 1.502 . S
C564 C566 1.561 . S
C564 C567 1.526 . S
C565 H549 0.959 . S
C565 H550 0.959 . S
C565 H551 0.961 . S
C565 C564 1.502 . S
C566 H552 0.960 . S
C566 H553 0.961 . S
C566 H554 0.959 . S
C566 C564 1.561 . S
C567 C564 1.526 . S
C567 C568 1.396 . S
C567 C572 1.390 . S
C568 C562 1.485 . S
C568 C567 1.396 . S
C568 C569 1.399 . S
C569 H555 0.929 . S
C569 C568 1.399 . S
C569 C570 1.385 . S
C570 H556 0.931 . S
C570 C569 1.385 . S
C570 C571 1.389 . S
C571 C570 1.389 . S
C571 C572 1.387 . S
C572 H557 0.930 . S
C572 C567 1.390 . S
C572 C571 1.387 . S
H573 C585 0.930 . S
H574 C587 0.930 . S
H575 C588 0.930 . S
H576 C592 0.959 . S
H577 C592 0.959 . S
H578 C592 0.961 . S
H579 C593 0.960 . S
H580 C593 0.961 . S
H581 C593 0.959 . S
H582 C596 0.929 . S
H583 C597 0.931 . S
H584 C599 0.930 . S
C585 H573 0.930 . S
C585 C586 1.399 . S
C585 C590 1.399 . S
C586 C585 1.399 . S
C586 C587 1.376 . S
C587 H574 0.930 . S
C587 C586 1.376 . S
C587 C588 1.388 . S
C588 H575 0.930 . S
C588 C587 1.388 . S
C588 C589 1.390 . S
C589 C588 1.390 . S
C589 C590 1.394 . S
C589 C595 1.465 . S
C590 C585 1.399 . S
C590 C589 1.394 . S
C590 C591 1.516 . S
C591 C590 1.516 . S
C591 C592 1.502 . S
C591 C593 1.561 . S
C591 C594 1.526 . S
C592 H576 0.959 . S
C592 H577 0.959 . S
C592 H578 0.961 . S
C592 C591 1.502 . S
C593 H579 0.960 . S
C593 H580 0.961 . S
C593 H581 0.959 . S
C593 C591 1.561 . S
C594 C591 1.526 . S
C594 C595 1.396 . S
C594 C599 1.390 . S
C595 C589 1.465 . S
C595 C594 1.396 . S
C595 C596 1.399 . S
C596 H582 0.929 . S
C596 C595 1.399 . S
C596 C597 1.385 . S
C597 H583 0.931 . S
C597 C596 1.385 . S
C597 C598 1.389 . S
C598 C597 1.389 . S
C598 C599 1.387 . S
C599 H584 0.930 . S
C599 C594 1.390 . S
C599 C598 1.387 . S
H600 C612 0.930 . S
H601 C614 0.930 . S
H602 C615 0.930 . S
H603 C619 0.959 . S
H604 C619 0.959 . S
H605 C619 0.961 . S
H606 C620 0.960 1_455 S
H607 C620 0.961 . S
H608 C620 0.959 . S
H609 C623 0.929 . S
H610 C624 0.931 . S
H611 C626 0.930 . S
C612 H600 0.930 . S
C612 C613 1.399 . S
C612 C617 1.399 . S
C613 C612 1.399 . S
C613 C614 1.376 . S
C614 H601 0.930 . S
C614 C613 1.376 . S
C614 C615 1.388 . S
C615 H602 0.930 . S
C615 C614 1.388 . S
C615 C616 1.390 . S
C616 C615 1.390 . S
C616 C617 1.394 . S
C616 C622 1.465 . S
C617 C612 1.399 . S
C617 C616 1.394 . S
C617 C618 1.516 . S
C618 C617 1.516 . S
C618 C619 1.502 . S
C618 C620 1.561 1_455 S
C618 C621 1.516 1_455 S
C619 H603 0.959 . S
C619 H604 0.959 . S
C619 H605 0.961 . S
C619 C618 1.502 . S
C620 H606 0.960 1_655 S
C620 H607 0.961 . S
C620 H608 0.959 . S
C620 C618 1.561 1_655 S
C621 C618 1.516 1_655 S
C621 C622 1.400 1_655 S
C621 C626 1.396 . S
C622 C616 1.465 . S
C622 C621 1.400 1_455 S
C622 C623 1.399 1_455 S
C623 H609 0.929 . S
C623 C622 1.399 1_655 S
C623 C624 1.385 . S
C624 H610 0.931 . S
C624 C623 1.385 . S
C624 C625 1.389 . S
C625 C624 1.389 . S
C625 C626 1.387 . S
C626 H611 0.930 . S
C626 C621 1.396 . S
C626 C625 1.387 . S
H627 C639 0.930 . S
H628 C641 0.930 . S
H629 C642 0.930 . S
H630 C646 0.959 . S
H631 C646 0.959 . S
H632 C646 0.961 . S
H633 C647 0.960 . S
H634 C647 0.961 . S
H635 C647 0.959 . S
H636 C650 0.929 . S
H637 C651 0.931 . S
H638 C653 0.930 . S
C639 H627 0.930 . S
C639 C640 1.399 . S
C639 C644 1.399 . S
C640 C639 1.399 . S
C640 C641 1.376 . S
C641 H628 0.930 . S
C641 C640 1.376 . S
C641 C642 1.388 . S
C642 H629 0.930 . S
C642 C641 1.388 . S
C642 C643 1.390 . S
C643 C642 1.390 . S
C643 C644 1.394 . S
C643 C649 1.465 . S
C644 C639 1.399 . S
C644 C643 1.394 . S
C644 C645 1.516 . S
C645 C644 1.516 . S
C645 C646 1.502 . S
C645 C647 1.561 . S
C645 C648 1.526 . S
C646 H630 0.959 . S
C646 H631 0.959 . S
C646 H632 0.961 . S
C646 C645 1.502 . S
C647 H633 0.960 . S
C647 H634 0.961 . S
C647 H635 0.959 . S
C647 C645 1.561 . S
C648 C645 1.526 . S
C648 C649 1.396 . S
C648 C653 1.390 1_545 S
C649 C643 1.465 . S
C649 C648 1.396 . S
C649 C650 1.399 1_545 S
C650 H636 0.929 . S
C650 C649 1.399 1_565 S
C650 C651 1.385 . S
C651 H637 0.931 . S
C651 C650 1.385 . S
C651 C652 1.389 . S
C652 C651 1.389 . S
C652 C653 1.387 . S
C653 H638 0.930 . S
C653 C648 1.390 1_565 S
C653 C652 1.387 . S
H654 C666 0.930 . S
H655 C668 0.930 . S
H656 C669 0.930 . S
H657 C673 0.959 . S
H658 C673 0.959 . S
H659 C673 0.961 . S
H660 C674 0.960 . S
H661 C674 0.961 . S
H662 C674 0.959 . S
H663 C677 0.929 . S
H664 C678 0.931 . S
H665 C680 0.930 . S
C666 H654 0.930 . S
C666 C667 1.399 . S
C666 C671 1.399 . S
C667 C666 1.399 . S
C667 C668 1.376 . S
C668 H655 0.930 . S
C668 C667 1.376 . S
C668 C669 1.388 . S
C669 H656 0.930 . S
C669 C668 1.388 . S
C669 C670 1.390 . S
C670 C669 1.390 . S
C670 C671 1.394 . S
C670 C676 1.465 . S
C671 C666 1.399 . S
C671 C670 1.394 . S
C671 C672 1.516 . S
C672 C671 1.516 . S
C672 C673 1.502 . S
C672 C674 1.561 . S
C672 C675 1.526 . S
C673 H657 0.959 . S
C673 H658 0.959 . S
C673 H659 0.961 . S
C673 C672 1.502 . S
C674 H660 0.960 . S
C674 H661 0.961 . S
C674 H662 0.959 . S
C674 C672 1.561 . S
C675 C672 1.526 . S
C675 C676 1.396 . S
C675 C680 1.390 . S
C676 C670 1.465 . S
C676 C675 1.396 . S
C676 C677 1.399 . S
C677 H663 0.929 . S
C677 C676 1.399 . S
C677 C678 1.385 . S
C678 H664 0.931 . S
C678 C677 1.385 . S
C678 C679 1.389 . S
C679 C678 1.389 . S
C679 C680 1.387 . S
C680 H665 0.930 . S
C680 C675 1.390 . S
C680 C679 1.387 . S
H681 C693 0.930 . S
H682 C695 0.930 . S
H683 C696 0.930 . S
H684 C700 0.959 . S
H685 C700 0.959 . S
H686 C700 0.961 . S
H687 C701 0.960 . S
H688 C701 0.961 1_455 S
H689 C701 0.959 . S
H690 C704 0.929 . S
H691 C705 0.931 . S
H692 C707 0.930 . S
C693 H681 0.930 . S
C693 C694 1.399 . S
C693 C698 1.399 . S
C694 C693 1.399 . S
C694 C695 1.376 . S
C695 H682 0.930 . S
C695 C694 1.376 . S
C695 C696 1.388 . S
C696 H683 0.930 . S
C696 C695 1.388 . S
C696 C697 1.390 . S
C697 C696 1.390 . S
C697 C698 1.394 . S
C697 C703 1.465 . S
C698 C693 1.399 . S
C698 C697 1.394 . S
C698 C699 1.516 . S
C699 C698 1.516 . S
C699 C700 1.502 1_655 S
C699 C701 1.561 . S
C699 C702 1.526 1_655 S
C700 H684 0.959 . S
C700 H685 0.959 . S
C700 H686 0.961 . S
C700 C699 1.502 1_455 S
C701 H687 0.960 . S
C701 H688 0.961 1_655 S
C701 H689 0.959 . S
C701 C699 1.561 . S
C702 C699 1.526 1_455 S
C702 C703 1.396 1_455 S
C702 C707 1.390 . S
C703 C697 1.465 . S
C703 C702 1.396 1_655 S
C703 C704 1.399 1_556 S
C704 H690 0.929 . S
C704 C703 1.399 1_554 S
C704 C705 1.385 1_655 S
C705 H691 0.931 . S
C705 C704 1.385 1_455 S
C705 C706 1.389 . S
C706 C705 1.389 . S
C706 C707 1.387 1_554 S
C707 H692 0.930 . S
C707 C702 1.390 . S
C707 C706 1.387 1_556 S
H708 C720 0.930 . S
H709 C722 0.930 . S
H710 C723 0.930 . S
H711 C727 0.959 . S
H712 C727 0.959 . S
H713 C727 0.961 . S
H714 C728 0.960 . S
H715 C728 0.961 . S
H716 C728 0.959 . S
H717 C731 0.929 . S
H718 C732 0.931 . S
H719 C734 0.930 . S
C720 H708 0.930 . S
C720 C721 1.399 . S
C720 C725 1.399 . S
C721 C720 1.399 . S
C721 C722 1.376 . S
C722 H709 0.930 . S
C722 C721 1.376 . S
C722 C723 1.388 . S
C723 H710 0.930 . S
C723 C722 1.388 . S
C723 C724 1.390 . S
C724 C723 1.390 . S
C724 C725 1.394 . S
C724 C730 1.465 . S
C725 C720 1.399 . S
C725 C724 1.394 . S
C725 C726 1.516 . S
C726 C725 1.516 . S
C726 C727 1.502 . S
C726 C728 1.561 . S
C726 C729 1.526 . S
C727 H711 0.959 . S
C727 H712 0.959 . S
C727 H713 0.961 . S
C727 C726 1.502 . S
C728 H714 0.960 . S
C728 H715 0.961 . S
C728 H716 0.959 . S
C728 C726 1.561 . S
C729 C726 1.526 . S
C729 C730 1.396 . S
C729 C734 1.390 1_565 S
C730 C724 1.465 . S
C730 C729 1.396 . S
C730 C731 1.399 1_565 S
C731 H717 0.929 . S
C731 C730 1.399 1_545 S
C731 C732 1.385 . S
C732 H718 0.931 . S
C732 C731 1.385 . S
C732 C733 1.389 . S
C733 C732 1.389 . S
C733 C734 1.387 . S
C734 H719 0.930 . S
C734 C729 1.390 1_545 S
C734 C733 1.387 . S
H735 C747 0.930 . S
H736 C749 0.930 . S
H737 C750 0.930 . S
H738 C754 0.959 . S
H739 C754 0.959 . S
H740 C754 0.961 . S
H741 C755 0.960 . S
H742 C755 0.961 . S
H743 C755 0.959 . S
H744 C758 0.929 . S
H745 C759 0.931 . S
H746 C761 0.930 . S
C747 H735 0.930 . S
C747 C748 1.399 . S
C747 C752 1.399 . S
C748 C747 1.399 . S
C748 C749 1.376 . S
C749 H736 0.930 . S
C749 C748 1.376 . S
C749 C750 1.388 . S
C750 H737 0.930 . S
C750 C749 1.388 . S
C750 C751 1.390 . S
C751 C750 1.390 . S
C751 C752 1.394 . S
C751 C757 1.465 . S
C752 C747 1.399 . S
C752 C751 1.394 . S
C752 C753 1.516 . S
C753 C752 1.516 . S
C753 C754 1.502 . S
C753 C755 1.561 . S
C753 C756 1.526 . S
C754 H738 0.959 . S
C754 H739 0.959 . S
C754 H740 0.961 . S
C754 C753 1.502 . S
C755 H741 0.960 . S
C755 H742 0.961 . S
C755 H743 0.959 . S
C755 C753 1.561 . S
C756 C753 1.526 . S
C756 C757 1.396 . S
C756 C761 1.390 . S
C757 C751 1.465 . S
C757 C756 1.396 . S
C757 C758 1.399 . S
C758 H744 0.929 . S
C758 C757 1.399 . S
C758 C759 1.385 . S
C759 H745 0.931 . S
C759 C758 1.385 . S
C759 C760 1.389 . S
C760 C759 1.389 . S
C760 C761 1.387 . S
C761 H746 0.930 . S
C761 C756 1.390 . S
C761 C760 1.387 . S
H762 C774 0.930 . S
H763 C776 0.930 . S
H764 C777 0.930 . S
H765 C781 0.959 . S
H766 C781 0.959 . S
H767 C781 0.961 . S
H768 C782 0.960 . S
H769 C782 0.961 1_655 S
H770 C782 0.959 . S
H771 C785 0.929 . S
H772 C786 0.931 . S
H773 C788 0.930 . S
C774 H762 0.930 . S
C774 C775 1.399 . S
C774 C779 1.399 . S
C775 C774 1.399 . S
C775 C776 1.376 . S
C776 H763 0.930 . S
C776 C775 1.376 . S
C776 C777 1.388 . S
C777 H764 0.930 . S
C777 C776 1.388 . S
C777 C778 1.390 . S
C778 C777 1.390 . S
C778 C779 1.394 . S
C778 C784 1.465 . S
C779 C774 1.399 . S
C779 C778 1.394 . S
C779 C780 1.516 . S
C780 C779 1.516 . S
C780 C781 1.502 1_455 S
C780 C782 1.561 . S
C780 C783 1.526 1_455 S
C781 H765 0.959 . S
C781 H766 0.959 . S
C781 H767 0.961 . S
C781 C780 1.502 1_655 S
C782 H768 0.960 . S
C782 H769 0.961 1_455 S
C782 H770 0.959 . S
C782 C780 1.561 . S
C783 C780 1.526 1_655 S
C783 C784 1.396 1_655 S
C783 C788 1.390 . S
C784 C778 1.465 . S
C784 C783 1.396 1_455 S
C784 C785 1.399 . S
C785 H771 0.929 . S
C785 C784 1.399 . S
C785 C786 1.385 1_455 S
C786 H772 0.931 . S
C786 C785 1.385 1_655 S
C786 C787 1.389 . S
C787 C786 1.389 . S
C787 C788 1.387 . S
C788 H773 0.930 . S
C788 C783 1.390 . S
C788 C787 1.387 . S
H789 C801 0.930 . S
H790 C803 0.930 . S
H791 C804 0.930 . S
H792 C808 0.959 1_545 S
H793 C808 0.959 . S
H794 C808 0.961 . S
H795 C809 0.960 . S
H796 C809 0.961 . S
H797 C809 0.959 . S
H798 C812 0.929 . S
H799 C813 0.931 . S
H800 C815 0.930 . S
C801 H789 0.930 . S
C801 C802 1.399 . S
C801 C806 1.399 . S
C802 C801 1.399 . S
C802 C803 1.376 . S
C803 H790 0.930 . S
C803 C802 1.376 . S
C803 C804 1.388 1_565 S
C804 H791 0.930 . S
C804 C803 1.388 1_545 S
C804 C805 1.390 . S
C805 C804 1.390 . S
C805 C806 1.394 1_545 S
C805 C811 1.465 . S
C806 C801 1.399 . S
C806 C805 1.394 1_565 S
C806 C807 1.516 . S
C807 C806 1.516 . S
C807 C808 1.502 . S
C807 C809 1.561 . S
C807 C810 1.526 1_565 S
C808 H792 0.959 1_565 S
C808 H793 0.959 . S
C808 H794 0.961 . S
C808 C807 1.502 . S
C809 H795 0.960 . S
C809 H796 0.961 . S
C809 H797 0.959 . S
C809 C807 1.561 . S
C810 C807 1.526 1_545 S
C810 C811 1.396 . S
C810 C815 1.390 . S
C811 C805 1.465 . S
C811 C810 1.396 . S
C811 C812 1.399 . S
C812 H798 0.929 . S
C812 C811 1.399 . S
C812 C813 1.385 . S
C813 H799 0.931 . S
C813 C812 1.385 . S
C813 C814 1.389 . S
C814 C813 1.389 . S
C814 C815 1.387 . S
C815 H800 0.930 . S
C815 C810 1.390 . S
C815 C814 1.387 . S
C181 C113 1.596 . S
C193 C12 1.603 . S
C208 C15 1.555 . S
C220 C139 1.550 . S
C235 C29 1.580 . S
C247 C140 1.597 . S
C262 C54 1.602 . S
C274 C154 1.593 . S
C289 C85 1.599 . S
C301 C57 1.586 . S
C316 C83 1.560 . S
C328 C110 1.554 . S
C343 C138 1.391 . S
C355 C13 1.363 . S
C370 C14 1.347 . S
C382 C141 1.375 . S
C397 C155 1.396 . S
C409 C28 1.354 . S
C424 C55 1.341 . S
C436 C84 1.384 . S
C451 C111 1.362 . S
C463 C56 1.391 . S
C478 C112 1.397 . S
C490 C82 1.348 . S
C505 C0 1.946 . S
C517 C70 1.905 . S
C532 C27 1.944 . S
C544 C1 1.921 . S
C559 C26 1.892 . S
C571 C41 1.927 . S
C586 C42 1.940 . S
C598 C40 1.917 . S
C613 C69 1.924 . S
C625 C43 1.881 . S
C640 C71 1.950 . S
C652 C68 1.931 . S
C667 C97 1.924 . S
C679 C99 1.881 . S
C694 C98 1.952 . S
C706 C124 1.917 . S
C721 C125 1.950 . S
C733 C126 1.930 . S
C748 C127 1.950 . S
C760 C153 1.929 . S
C775 C152 1.954 . S
C787 C167 1.919 . S
C802 C96 1.926 . S
C814 C166 1.956 . S
