# Generated by pormake.
# Topology uoj, (4)-cn, num edge types: 1
# Building blocks:
#     Node 0, Type 0, BuildingBlock: QUQFOY_clean_sbu_1, # of connection points: 4
#     Node 1, Type 0, BuildingBlock: QUQFOY_clean_sbu_1, # of connection points: 4
#     Node 2, Type 0, BuildingBlock: QUQFOY_clean_sbu_1, # of connection points: 4
#     Node 3, Type 0, BuildingBlock: QUQFOY_clean_sbu_1, # of connection points: 4
#     Node 4, Type 0, BuildingBlock: QUQFOY_clean_sbu_1, # of connection points: 4
#     Node 5, Type 0, BuildingBlock: QUQFOY_clean_sbu_1, # of connection points: 4
#     Node 6, Type 0, BuildingBlock: QUQFOY_clean_sbu_1, # of connection points: 4
#     Node 7, Type 0, BuildingBlock: QUQFOY_clean_sbu_1, # of connection points: 4
#     Edge 8, Type (0, 0), BuildingBlock: EZIPEK_clean_linker_0, # of connection points: 2
#     Edge 9, Type (0, 0), BuildingBlock: EZIPEK_clean_linker_0, # of connection points: 2
#     Edge 10, Type (0, 0), BuildingBlock: EZIPEK_clean_linker_0, # of connection points: 2
#     Edge 11, Type (0, 0), BuildingBlock: EZIPEK_clean_linker_0, # of connection points: 2
#     Edge 12, Type (0, 0), BuildingBlock: EZIPEK_clean_linker_0, # of connection points: 2
#     Edge 13, Type (0, 0), BuildingBlock: EZIPEK_clean_linker_0, # of connection points: 2
#     Edge 14, Type (0, 0), BuildingBlock: EZIPEK_clean_linker_0, # of connection points: 2
#     Edge 15, Type (0, 0), BuildingBlock: EZIPEK_clean_linker_0, # of connection points: 2
#     Edge 16, Type (0, 0), BuildingBlock: EZIPEK_clean_linker_0, # of connection points: 2
#     Edge 17, Type (0, 0), BuildingBlock: EZIPEK_clean_linker_0, # of connection points: 2
#     Edge 18, Type (0, 0), BuildingBlock: EZIPEK_clean_linker_0, # of connection points: 2
#     Edge 19, Type (0, 0), BuildingBlock: EZIPEK_clean_linker_0, # of connection points: 2
#     Edge 20, Type (0, 0), BuildingBlock: EZIPEK_clean_linker_0, # of connection points: 2
#     Edge 21, Type (0, 0), BuildingBlock: EZIPEK_clean_linker_0, # of connection points: 2
#     Edge 22, Type (0, 0), BuildingBlock: EZIPEK_clean_linker_0, # of connection points: 2
#     Edge 23, Type (0, 0), BuildingBlock: EZIPEK_clean_linker_0, # of connection points: 2
# Relax obj value: 0.060
# Max RMSD: 0.092
# Mean RMSD: 0.092
data_MOF--net-uoj--node1-QUQFOY_clean_sbu_1--edge1-EZIPEK_clean_linker_0
_symmetry_space_group_name_H-M    P1
_symmetry_Int_Tables_number       1
_symmetry_cell_setting            triclinic
loop_
_symmetry_equiv_pos_as_xyz
'x, y, z'
_cell_length_a     24.661102
_cell_length_b     24.559785
_cell_length_c     30.558081
_cell_angle_alpha  89.657955
_cell_angle_beta   89.93457
_cell_angle_gamma 90.125411
loop_
_atom_site_label
_atom_site_type_symbol
_atom_site_fract_x
_atom_site_fract_y
_atom_site_fract_z
_atom_type_partial_charge
O0 O 0.95822 0.21514 0.51024 0.0
Cd1 Cd 0.03579 0.24654 0.51347 0.0
Cd2 Cd 0.01087 0.2521 0.43188 0.0
O3 O 0.96243 0.18532 0.44237 0.0
O4 O 0.05971 0.22469 0.57313 0.0
O5 O 0.09568 0.1923 0.5118 0.0
C6 C 0.09223 0.19138 0.55401 0.0
C7 C 0.06878 0.27033 0.37313 0.0
C8 C 0.93945 0.18591 0.47962 0.0
C9 C 0.00672 0.35087 0.48466 0.0
O10 O -0.02055 0.32145 0.4588 0.0
O11 O 0.0452 0.32948 0.50615 0.0
O12 O 0.01677 0.27083 0.3684 0.0
O13 O 0.08814 0.25413 0.41031 0.0
O14 O 0.22824 -0.00992 0.58978 0.0
Cd15 Cd 0.2581 0.91334 0.58178 0.0
Cd16 Cd 0.26953 0.92895 0.67105 0.0
O17 O 0.20709 -0.0162 0.65997 0.0
O18 O 0.23136 0.89353 0.5227 0.0
O19 O 0.20464 0.85248 0.58418 0.0
C20 C 0.20019 0.85898 0.54233 0.0
C21 C 0.28623 0.88238 0.7372 0.0
C22 C 0.20386 0.00815 0.62317 0.0
C23 C 0.36664 0.93182 0.61021 0.0
O24 O 0.3433 0.95021 0.64414 0.0
O25 O 0.34036 0.90504 0.58192 0.0
O26 O 0.28499 0.93476 0.7352 0.0
O27 O 0.27128 0.85594 0.70284 0.0
O28 O 0.00343 0.71551 0.51 0.0
Cd29 Cd 0.92742 0.68442 0.51857 0.0
Cd30 Cd 0.93968 0.67645 0.43068 0.0
O31 O -0.00805 0.74136 0.4413 0.0
O32 O 0.90576 0.71205 0.57678 0.0
O33 O 0.86659 0.7371 0.51418 0.0
C34 C 0.87196 0.74271 0.556 0.0
C35 C 0.88957 0.66156 0.36658 0.0
C36 C 0.01847 0.74303 0.47696 0.0
C37 C 0.94703 0.57698 0.48939 0.0
O38 O 0.96399 0.60192 0.45541 0.0
O39 O 0.92026 0.60184 0.51847 0.0
O40 O 0.94175 0.66393 0.36604 0.0
O41 O 0.8652 0.67428 0.40253 0.0
O42 O 0.72699 0.9432 0.59033 0.0
Cd43 Cd 0.69538 0.02062 0.58604 0.0
Cd44 Cd 0.69043 -0.00159 0.66637 0.0
O45 O 0.75838 0.95175 0.65746 0.0
O46 O 0.71925 0.04619 0.5275 0.0
O47 O 0.74971 0.08017 0.59033 0.0
C48 C 0.75249 0.07748 0.54814 0.0
C49 C 0.6714 0.06198 0.72039 0.0
C50 C 0.75755 0.92688 0.62111 0.0
C51 C 0.59214 -0.00959 0.61414 0.0
O52 O 0.622 0.96385 0.64032 0.0
O53 O 0.61277 0.02936 0.59235 0.0
O54 O 0.6717 0.01042 0.72902 0.0
O55 O 0.68746 0.07778 0.68201 0.0
O56 O 0.4966 0.76332 1.03915 0.0
Cd57 Cd 0.41605 0.78183 1.0372 0.0
Cd58 Cd 0.43829 0.77653 0.95474 0.0
O59 O 0.49405 0.71916 0.9768 0.0
O60 O 0.38498 0.75025 0.09142 0.0
O61 O 0.36562 0.72096 1.02427 0.0
C62 C 0.36181 0.71504 0.0663 0.0
C63 C 0.39309 0.78153 0.88758 0.0
C64 C 0.51787 0.73007 1.01267 0.0
C65 C 0.42972 0.88444 0.99933 0.0
O66 O 0.45562 0.85567 0.97193 0.0
O67 O 0.39889 0.86215 1.02748 0.0
O68 O 0.44521 0.77862 0.88953 0.0
O69 O 0.36621 0.77257 0.92325 0.0
O70 O 0.72574 0.47251 0.06443 0.0
Cd71 Cd 0.76576 0.54477 0.07116 0.0
Cd72 Cd 0.76639 0.51367 0.15356 0.0
O73 O 0.70162 0.46581 0.13398 0.0
O74 O 0.737 0.59675 1.02715 0.0
O75 O 0.72379 0.60397 0.09836 0.0
C76 C 0.71475 0.62236 0.05934 0.0
C77 C 0.77888 0.55862 0.22004 0.0
C78 C 0.69828 0.44975 0.09454 0.0
C79 C 0.86946 0.50965 0.10171 0.0
O80 O 0.84113 0.48834 0.13208 0.0
O81 O 0.84841 0.54249 0.07447 0.0
O82 O 0.77173 0.50663 0.21868 0.0
O83 O 0.77094 0.58611 0.18446 0.0
O84 O 0.44417 0.24721 0.98362 0.0
Cd85 Cd 0.52056 0.21401 0.98599 0.0
Cd86 Cd 0.4907 0.2007 0.90687 0.0
O87 O 0.44123 0.26722 0.91319 0.0
O88 O 0.54727 0.24071 1.04322 0.0
O89 O 0.58239 0.26581 0.97913 0.0
C90 C 0.58026 0.271 1.02117 0.0
C91 C 0.55261 0.18057 0.85173 0.0
C92 C 0.42216 0.27181 0.95164 0.0
C93 C 0.48629 0.10744 0.96744 0.0
O94 O 0.4601 0.13346 0.93847 0.0
O95 O 0.52546 0.13054 0.98682 0.0
O96 O 0.50098 0.17723 0.84511 0.0
O97 O 0.56911 0.2003 0.88857 0.0
O98 O 0.23276 0.50079 0.09616 0.0
Cd99 Cd 0.19975 0.42413 0.08913 0.0
Cd100 Cd 0.19048 0.44664 0.17379 0.0
O101 O 0.25535 0.49809 0.16605 0.0
O102 O 0.21572 0.41145 1.02622 0.0
O103 O 0.25186 0.36302 0.08037 0.0
C104 C 0.24921 0.37465 1.03915 0.0
C105 C 0.17439 0.38602 0.23166 0.0
C106 C 0.25809 0.52054 0.12855 0.0
C107 C 0.09412 0.451 0.11739 0.0
O108 O 0.12107 0.47664 0.14594 0.0
O109 O 0.11728 0.41459 0.09497 0.0
O110 O 0.17082 0.438 0.23687 0.0
O111 O 0.19173 0.3684 0.19438 0.0
C112 C 0.11555 0.30782 0.2586 0.0
C113 C 0.15543 0.3484 0.26708 0.0
C114 C 0.14179 0.33511 0.34602 0.0
C115 C 0.10427 0.29232 0.33755 0.0
N116 N 0.06786 0.22817 0.28595 0.0
N117 N 0.21735 0.38859 0.31862 0.0
C118 C 0.09537 0.27543 0.29384 0.0
C119 C 0.17214 0.35794 0.31076 0.0
N120 N 0.09371 0.30258 0.21774 0.0
N121 N 0.14578 0.35712 0.38689 0.0
H122 H 0.24123 0.40477 0.29348 0.0
H123 H 0.23427 0.39274 0.34966 0.0
H124 H 0.1228 0.34405 0.41356 0.0
H125 H 0.16811 0.39224 0.39332 0.0
H126 H 0.06038 0.27777 0.21126 0.0
H127 H 0.10497 0.32669 0.1911 0.0
H128 H 0.06448 0.21125 0.25487 0.0
H129 H 0.05365 0.20294 0.31108 0.0
C130 C 0.28854 0.80964 0.79699 0.0
C131 C 0.31312 0.85456 0.77505 0.0
C132 C 0.38788 0.85283 0.8281 0.0
C133 C 0.36611 0.8048 0.84779 0.0
N134 N 0.30067 0.73184 0.84552 0.0
N135 N 0.39359 0.90964 0.76373 0.0
C136 C 0.31773 0.78159 0.8307 0.0
C137 C 0.36495 0.87328 0.78881 0.0
N138 N 0.23657 0.79509 0.78692 0.0
N139 N 0.42873 0.88128 0.84794 0.0
H140 H 0.37959 0.92586 0.73435 0.0
H141 H 0.43409 0.91927 0.76951 0.0
H142 H 0.44511 0.87129 0.87827 0.0
H143 H 0.4421 0.91923 0.83703 0.0
H144 H 0.21442 0.76645 0.8048 0.0
H145 H 0.2138 0.81517 0.76307 0.0
H146 H 0.26881 0.7103 0.83142 0.0
H147 H 0.32174 0.70965 0.86919 0.0
C148 C 0.81432 0.66146 0.30976 0.0
C149 C 0.8598 0.63577 0.32949 0.0
C150 C 0.85303 0.56104 0.27658 0.0
C151 C 0.80482 0.58432 0.25902 0.0
N152 N 0.73438 0.65185 0.26393 0.0
N153 N 0.91503 0.55487 0.33732 0.0
C154 C 0.78401 0.63329 0.27701 0.0
C155 C 0.87692 0.58381 0.31453 0.0
N156 N 0.80139 0.7136 0.32101 0.0
N157 N 0.87814 0.51865 0.25595 0.0
H158 H 0.93417 0.56892 0.36538 0.0
H159 H 0.92391 0.5142 0.33116 0.0
H160 H 0.86438 0.50093 0.22722 0.0
H161 H 0.91657 0.50463 0.26439 0.0
H162 H 0.77236 0.73672 0.30463 0.0
H163 H 0.82306 0.73558 0.3443 0.0
H164 H 0.71445 0.68417 0.27882 0.0
H165 H 0.71073 0.63168 0.24082 0.0
C166 C 0.631 0.11931 0.83053 0.0
C167 C 0.59108 0.15846 0.81857 0.0
C168 C 0.60643 0.1375 0.74113 0.0
C169 C 0.64867 0.10084 0.75296 0.0
N170 N 0.71118 0.06976 0.80821 0.0
N171 N 0.5533 0.21595 0.76224 0.0
C172 C 0.66429 0.09614 0.79747 0.0
C173 C 0.58306 0.17127 0.77374 0.0
N174 N 0.63475 0.10085 0.87271 0.0
N175 N 0.58535 0.13749 0.69977 0.0
H176 H 0.53683 0.24231 0.78537 0.0
H177 H 0.55024 0.22999 0.73009 0.0
H178 H 0.59853 0.1117 0.67506 0.0
H179 H 0.55071 0.1593 0.69122 0.0
H180 H 0.65918 0.06811 0.88178 0.0
H181 H 0.60977 0.11408 0.89795 0.0
H182 H 0.72705 0.06938 0.8398 0.0
H183 H 0.73713 0.05355 0.78466 0.0
C184 C 0.20002 0.10865 0.61242 0.0
C185 C 0.17207 0.05845 0.61765 0.0
C186 C 0.08977 0.09798 0.58636 0.0
C187 C 0.11845 0.14754 0.57939 0.0
N188 N 0.19554 0.2049 0.59356 0.0
N189 N 0.08882 0.00737 0.61894 0.0
C190 C 0.17196 0.15448 0.5951 0.0
C191 C 0.11617 0.054 0.60792 0.0
N192 N 0.25397 0.11154 0.62249 0.0
N193 N 0.0381 0.09239 0.57066 0.0
H194 H 0.10761 0.97442 0.63433 0.0
H195 H 0.04706 0.00258 0.61612 0.0
H196 H 0.01675 0.12428 0.55605 0.0
H197 H 0.01695 0.05572 0.57004 0.0
H198 H 0.27871 0.14459 0.61477 0.0
H199 H 0.27465 0.07949 0.63756 0.0
H200 H 0.23267 0.21414 0.60785 0.0
H201 H 0.17594 0.2389 0.58046 0.0
C202 C 0.10678 0.86071 0.51138 0.0
C203 C 0.15612 0.8321 0.51813 0.0
C204 C 0.11838 0.75158 0.4825 0.0
C205 C 0.06707 0.77736 0.48172 0.0
N206 N 0.01069 0.85554 0.49443 0.0
N207 N 0.21061 0.75152 0.51039 0.0
C208 C 0.06096 0.83211 0.49512 0.0
C209 C 0.16267 0.77799 0.50329 0.0
N210 N 0.10379 0.91501 0.52091 0.0
N211 N 0.12427 0.70186 0.4632 0.0
H212 H 0.24436 0.77054 0.52415 0.0
H213 H 0.21646 0.71023 0.50469 0.0
H214 H 0.09222 0.68216 0.44751 0.0
H215 H 0.16128 0.68219 0.4594 0.0
H216 H 0.07088 0.93954 0.5129 0.0
H217 H 0.13591 0.93686 0.53445 0.0
H218 H 0.00165 0.89276 0.50877 0.0
H219 H -0.02312 0.83633 0.48096 0.0
C220 C 0.76239 0.82698 0.61039 0.0
C221 C 0.78991 0.8775 0.61392 0.0
C222 C 0.87388 0.83577 0.58806 0.0
C223 C 0.84439 0.78738 0.57891 0.0
N224 N 0.76114 0.73597 0.5798 0.0
N225 N 0.8703 0.93223 0.60456 0.0
C226 C 0.78881 0.78252 0.58993 0.0
C227 C 0.84553 0.88238 0.60302 0.0
N228 N 0.71119 0.82171 0.62716 0.0
N229 N 0.92887 0.83722 0.58214 0.0
H230 H 0.85117 0.96688 0.61665 0.0
H231 H 0.90857 0.9402 0.5916 0.0
H232 H 0.9509 0.80477 0.5694 0.0
H233 H 0.95342 0.86914 0.59256 0.0
H234 H 0.69032 0.78492 0.62917 0.0
H235 H 0.6912 0.85367 0.64268 0.0
H236 H 0.71924 0.73194 0.58237 0.0
H237 H 0.77994 0.70184 0.56645 0.0
C238 C 0.84336 0.0724 0.51257 0.0
C239 C 0.79748 0.10406 0.52445 0.0
C240 C 0.84042 0.18585 0.49425 0.0
C241 C 0.88875 0.15573 0.48781 0.0
N242 N 0.93838 0.07153 0.49165 0.0
N243 N 0.75152 0.19027 0.52829 0.0
C244 C 0.89061 0.09907 0.49648 0.0
C245 C 0.79558 0.16062 0.51548 0.0
N246 N 0.84186 0.01694 0.5171 0.0
N247 N 0.83751 0.23841 0.47939 0.0
H248 H 0.71711 0.17251 0.5423 0.0
H249 H 0.74997 0.2326 0.52728 0.0
H250 H 0.8697 0.25759 0.46325 0.0
H251 H 0.80216 0.26146 0.4795 0.0
H252 H 0.87152 -0.00892 0.50483 0.0
H253 H 0.80911 -0.00402 0.53077 0.0
H254 H 0.94466 0.03187 0.50267 0.0
H255 H 0.97322 0.08948 0.47855 0.0
C256 C 0.33953 0.56715 0.0991 0.0
C257 C 0.28936 0.5709 0.12124 0.0
C258 C 0.28982 0.67019 0.11231 0.0
C259 C 0.33664 0.66567 0.08548 0.0
N260 N 0.4056 0.61006 0.05142 0.0
N261 N 0.21461 0.62393 0.14819 0.0
C262 C 0.3615 0.61419 0.07843 0.0
C263 C 0.26423 0.62198 0.12822 0.0
N264 N 0.36644 0.51849 0.09865 0.0
N265 N 0.26955 0.72045 0.12211 0.0
H266 H 0.19591 0.58963 0.16181 0.0
H267 H 0.19068 0.65872 0.14957 0.0
H268 H 0.28477 0.75643 0.10855 0.0
H269 H 0.23949 0.72698 0.14541 0.0
H270 H 0.4057 0.51361 0.0868 0.0
H271 H 0.35111 0.48348 0.11379 0.0
H272 H 0.42131 0.57319 1.04068 0.0
H273 H 0.42511 0.64352 1.03739 0.0
C274 C 0.66704 0.6885 1.00842 0.0
C275 C 0.67278 0.66509 0.05086 0.0
C276 C 0.57817 0.68442 0.06712 0.0
C277 C 0.57098 0.70595 1.02431 0.0
N278 N 0.61218 0.74284 0.9587 0.0
N279 N 0.64218 0.67193 0.12574 0.0
C280 C 0.61646 0.71207 0.996 0.0
C281 C 0.63105 0.6727 0.082 0.0
N282 N 0.71045 0.68962 0.98066 0.0
N283 N 0.53455 0.67355 0.0934 0.0
H284 H 0.68175 0.6719 0.13772 0.0
H285 H 0.61311 0.68056 0.1495 0.0
H286 H 0.49459 0.67975 0.08358 0.0
H287 H 0.53807 0.65305 0.12325 0.0
H288 H 0.70756 0.69824 0.94734 0.0
H289 H 0.74986 0.68213 0.99148 0.0
H290 H 0.64492 0.75304 0.93876 0.0
H291 H 0.5765 0.76226 0.94926 0.0
C292 C 0.68419 0.34944 0.08764 0.0
C293 C 0.66377 0.40311 0.08274 0.0
C294 C 0.58833 0.36978 1.03835 0.0
C295 C 0.60885 0.31601 1.04306 0.0
N296 N 0.66944 0.25243 0.07798 0.0
N297 N 0.59236 0.46424 0.06152 0.0
C298 C 0.65456 0.30511 0.06975 0.0
C299 C 0.61446 0.4132 0.06053 0.0
N300 N 0.73314 0.34132 0.10762 0.0
N301 N 0.54423 0.37927 1.01224 0.0
H302 H 0.61072 0.49667 0.07777 0.0
H303 H 0.55405 0.47378 0.04953 0.0
H304 H 0.52193 0.34828 0.9975 0.0
H305 H 0.53089 0.41792 1.00329 0.0
H306 H 0.75363 0.30432 0.10769 0.0
H307 H 0.75497 0.37261 0.12245 0.0
H308 H 0.69868 0.24134 0.10086 0.0
H309 H 0.65001 0.21913 0.06382 0.0
C310 C 0.37475 0.35802 0.96875 0.0
C311 C 0.37166 0.3016 0.96038 0.0
C312 C 0.28111 0.29718 0.99335 0.0
C313 C 0.28832 0.35119 1.00812 0.0
N314 N 0.34066 0.43439 1.01047 0.0
N315 N 0.32239 0.21692 0.96146 0.0
C316 C 0.3343 0.38246 0.99525 0.0
C317 C 0.32444 0.2712 0.97109 0.0
N318 N 0.41692 0.38765 0.95186 0.0
N319 N 0.23278 0.2712 1.00046 0.0
H320 H 0.35221 0.19778 0.94282 0.0
H321 H 0.29243 0.19051 0.97284 0.0
H322 H 0.20056 0.28948 1.01694 0.0
H323 H 0.22292 0.23342 0.98744 0.0
H324 H 0.41981 0.42984 0.95366 0.0
H325 H 0.4471 0.37013 0.93259 0.0
H326 H 0.37596 0.4572 1.0066 0.0
H327 H 0.3115 0.45409 1.02933 0.0
C328 C -0.01496 0.49479 0.52881 0.0
C329 C 0.95692 0.51804 0.49284 0.0
C330 C 0.9711 0.4361 0.45085 0.0
C331 C -0.0071 0.40939 0.4882 0.0
N332 N 0.00578 0.41103 0.56704 0.0
N333 N 0.90469 0.50157 0.42773 0.0
C334 C -0.00417 0.43791 0.52864 0.0
C335 C 0.94393 0.48571 0.45645 0.0
N336 N 0.0028 0.52665 0.56236 0.0
N337 N -0.02121 0.41626 0.40964 0.0
H338 H 0.88234 0.53723 0.43192 0.0
H339 H 0.89077 0.47602 0.40297 0.0
H340 H 0.00451 0.38368 0.40298 0.0
H341 H 0.96556 0.43707 0.38177 0.0
H342 H 0.0282 0.51204 0.587 0.0
H343 H -0.00401 0.56849 0.56357 0.0
H344 H 0.00367 0.43006 0.59739 0.0
H345 H 0.00962 0.36892 0.56935 0.0
C346 C 0.50755 0.95376 0.64809 0.0
C347 C 0.53407 0.97547 0.61058 0.0
C348 C 0.44895 0.96739 0.5698 0.0
C349 C 0.42557 0.93989 0.60615 0.0
N350 N 0.44127 0.88815 0.67207 0.0
N351 N 0.53253 -0.01259 0.53159 0.0
C352 C 0.45777 0.92682 0.64273 0.0
C353 C 0.50568 0.97795 0.57001 0.0
N354 N 0.52756 0.96167 0.68925 0.0
N355 N 0.41736 -0.01507 0.5359 0.0
H356 H 0.57452 -0.00901 0.52945 0.0
H357 H 0.51358 -0.01494 0.50119 0.0
H358 H 0.37567 0.97815 0.53456 0.0
H359 H 0.43213 0.01004 0.51094 0.0
H360 H 0.50694 0.9486 0.71724 0.0
H361 H 0.56012 -0.01246 0.69576 0.0
H362 H 0.46641 0.87421 0.69718 0.0
H363 H 0.4052 0.86632 0.66825 0.0
C364 C 0.45039 0.01718 0.94379 0.0
C365 C 0.47 0.05081 0.97796 0.0
C366 C 0.45867 0.97498 1.02965 0.0
C367 C 0.43479 0.94391 0.99583 0.0
N368 N 0.38924 0.94385 0.92628 0.0
N369 N 0.47618 0.06575 0.05627 0.0
C370 C 0.42433 0.96793 0.95474 0.0
C371 C 0.46941 0.03108 1.02191 0.0
N372 N 0.45962 0.03002 0.90083 0.0
N373 N 0.4727 0.95098 0.06842 0.0
H374 H 0.47995 0.10776 0.05252 0.0
H375 H 0.47149 0.05345 0.08876 0.0
H376 H 0.46488 0.91013 0.07549 0.0
H377 H 0.4956 0.97084 0.09215 0.0
H378 H 0.44836 0.00444 0.87531 0.0
H379 H 0.48452 0.06217 0.8909 0.0
H380 H 0.37656 0.96291 0.89747 0.0
H381 H 0.36878 0.90773 0.9339 0.0
C382 C 0.01177 0.46605 0.06891 0.0
C383 C 0.03616 0.46455 0.11121 0.0
C384 C 0.95639 0.50846 0.14135 0.0
C385 C 0.9282 0.4997 0.10193 0.0
N386 N 0.92713 0.46305 1.02879 0.0
N387 N 0.0224 0.46979 0.18979 0.0
C388 C 0.9552 0.4764 0.06568 0.0
C389 C 0.00586 0.48158 0.14814 0.0
N390 N 0.04233 0.46097 1.03186 0.0
N391 N 0.93689 0.54372 0.17183 0.0
H392 H 0.05522 0.44443 0.19664 0.0
H393 H -0.00098 0.47927 0.21717 0.0
H394 H 0.90126 0.5659 0.16713 0.0
H395 H 0.95954 0.55507 0.19913 0.0
H396 H 0.02637 0.46645 1.00058 0.0
H397 H 0.08441 0.45788 1.0321 0.0
H398 H 0.94428 0.44089 1.0033 0.0
H399 H 0.88569 0.47019 1.02526 0.0
loop_
_geom_bond_atom_site_label_1
_geom_bond_atom_site_label_2
_geom_bond_distance
_geom_bond_site_symmetry_2
_ccdc_geom_bond_type
O0 Cd1 2.223 . S
O0 C8 1.315 . S
Cd1 O0 2.223 . S
Cd1 O4 2.297 . S
Cd1 O5 2.439 . S
Cd1 O11 2.240 . S
Cd2 O3 2.240 . S
Cd2 O10 2.223 . S
Cd2 O12 2.297 . S
Cd2 O13 2.439 . S
O3 Cd2 2.240 . S
O3 C8 1.279 . S
O4 Cd1 2.297 . S
O4 C6 1.247 . S
O5 Cd1 2.439 . S
O5 C6 1.208 . S
C6 O4 1.247 . S
C6 O5 1.208 . S
C7 O12 1.247 . S
C7 O13 1.208 . S
C8 O0 1.315 . S
C8 O3 1.279 . S
C9 O10 1.315 . S
C9 O11 1.279 . S
O10 Cd2 2.223 . S
O10 C9 1.315 . S
O11 Cd1 2.240 . S
O11 C9 1.279 . S
O12 Cd2 2.297 . S
O12 C7 1.247 . S
O13 Cd2 2.439 . S
O13 C7 1.208 . S
O14 Cd15 2.223 . S
O14 C22 1.315 . S
Cd15 O14 2.223 . S
Cd15 O18 2.297 . S
Cd15 O19 2.439 . S
Cd15 O25 2.240 . S
Cd16 O17 2.240 . S
Cd16 O24 2.223 . S
Cd16 O26 2.297 . S
Cd16 O27 2.439 . S
O17 Cd16 2.240 . S
O17 C22 1.279 . S
O18 Cd15 2.297 . S
O18 C20 1.247 . S
O19 Cd15 2.439 . S
O19 C20 1.208 . S
C20 O18 1.247 . S
C20 O19 1.208 . S
C21 O26 1.247 . S
C21 O27 1.208 . S
C22 O14 1.315 . S
C22 O17 1.279 . S
C23 O24 1.315 . S
C23 O25 1.279 . S
O24 Cd16 2.223 . S
O24 C23 1.315 . S
O25 Cd15 2.240 . S
O25 C23 1.279 . S
O26 Cd16 2.297 . S
O26 C21 1.247 . S
O27 Cd16 2.439 . S
O27 C21 1.208 . S
O28 Cd29 2.223 . S
O28 C36 1.315 . S
Cd29 O28 2.223 . S
Cd29 O32 2.297 . S
Cd29 O33 2.439 . S
Cd29 O39 2.240 . S
Cd30 O31 2.240 . S
Cd30 O38 2.223 . S
Cd30 O40 2.297 . S
Cd30 O41 2.439 . S
O31 Cd30 2.240 . S
O31 C36 1.279 . S
O32 Cd29 2.297 . S
O32 C34 1.247 . S
O33 Cd29 2.439 . S
O33 C34 1.208 . S
C34 O32 1.247 . S
C34 O33 1.208 . S
C35 O40 1.247 . S
C35 O41 1.208 . S
C36 O28 1.315 . S
C36 O31 1.279 . S
C37 O38 1.315 . S
C37 O39 1.279 . S
O38 Cd30 2.223 . S
O38 C37 1.315 . S
O39 Cd29 2.240 . S
O39 C37 1.279 . S
O40 Cd30 2.297 . S
O40 C35 1.247 . S
O41 Cd30 2.439 . S
O41 C35 1.208 . S
O42 Cd43 2.223 . S
O42 C50 1.315 . S
Cd43 O42 2.223 . S
Cd43 O46 2.297 . S
Cd43 O47 2.439 . S
Cd43 O53 2.240 . S
Cd44 O45 2.240 . S
Cd44 O52 2.223 . S
Cd44 O54 2.297 . S
Cd44 O55 2.439 . S
O45 Cd44 2.240 . S
O45 C50 1.279 . S
O46 Cd43 2.297 . S
O46 C48 1.247 . S
O47 Cd43 2.439 . S
O47 C48 1.208 . S
C48 O46 1.247 . S
C48 O47 1.208 . S
C49 O54 1.247 . S
C49 O55 1.208 . S
C50 O42 1.315 . S
C50 O45 1.279 . S
C51 O52 1.315 . S
C51 O53 1.279 . S
O52 Cd44 2.223 . S
O52 C51 1.315 . S
O53 Cd43 2.240 . S
O53 C51 1.279 . S
O54 Cd44 2.297 . S
O54 C49 1.247 . S
O55 Cd44 2.439 . S
O55 C49 1.208 . S
O56 Cd57 2.223 1_554 S
O56 C64 1.315 1_554 S
Cd57 O56 2.223 1_556 S
Cd57 O60 2.297 1_556 S
Cd57 O61 2.439 . S
Cd57 O67 2.240 . S
Cd58 O59 2.240 . S
Cd58 O66 2.223 . S
Cd58 O68 2.297 . S
Cd58 O69 2.439 . S
O59 Cd58 2.240 . S
O59 C64 1.279 . S
O60 Cd57 2.297 1_554 S
O60 C62 1.247 1_554 S
O61 Cd57 2.439 . S
O61 C62 1.208 . S
C62 O60 1.247 1_556 S
C62 O61 1.208 . S
C63 O68 1.247 . S
C63 O69 1.208 . S
C64 O56 1.315 1_556 S
C64 O59 1.279 . S
C65 O66 1.315 . S
C65 O67 1.279 . S
O66 Cd58 2.223 . S
O66 C65 1.315 . S
O67 Cd57 2.240 . S
O67 C65 1.279 . S
O68 Cd58 2.297 . S
O68 C63 1.247 . S
O69 Cd58 2.439 . S
O69 C63 1.208 . S
O70 Cd71 2.223 1_556 S
O70 C78 1.315 1_556 S
Cd71 O70 2.223 1_554 S
Cd71 O74 2.297 1_554 S
Cd71 O75 2.439 . S
Cd71 O81 2.240 . S
Cd72 O73 2.240 . S
Cd72 O80 2.223 . S
Cd72 O82 2.297 . S
Cd72 O83 2.439 . S
O73 Cd72 2.240 . S
O73 C78 1.279 . S
O74 Cd71 2.297 1_556 S
O74 C76 1.247 1_556 S
O75 Cd71 2.439 . S
O75 C76 1.208 . S
C76 O74 1.247 1_554 S
C76 O75 1.208 . S
C77 O82 1.247 . S
C77 O83 1.208 . S
C78 O70 1.315 1_554 S
C78 O73 1.279 . S
C79 O80 1.315 . S
C79 O81 1.279 . S
O80 Cd72 2.223 . S
O80 C79 1.315 . S
O81 Cd71 2.240 . S
O81 C79 1.279 . S
O82 Cd72 2.297 . S
O82 C77 1.247 . S
O83 Cd72 2.439 . S
O83 C77 1.208 . S
O84 Cd85 2.223 1_554 S
O84 C92 1.315 1_554 S
Cd85 O84 2.223 1_556 S
Cd85 O88 2.297 1_556 S
Cd85 O89 2.439 . S
Cd85 O95 2.240 . S
Cd86 O87 2.240 . S
Cd86 O94 2.223 . S
Cd86 O96 2.297 . S
Cd86 O97 2.439 . S
O87 Cd86 2.240 . S
O87 C92 1.279 . S
O88 Cd85 2.297 1_554 S
O88 C90 1.247 1_554 S
O89 Cd85 2.439 . S
O89 C90 1.208 . S
C90 O88 1.247 1_556 S
C90 O89 1.208 . S
C91 O96 1.247 . S
C91 O97 1.208 . S
C92 O84 1.315 1_556 S
C92 O87 1.279 . S
C93 O94 1.315 . S
C93 O95 1.279 . S
O94 Cd86 2.223 . S
O94 C93 1.315 . S
O95 Cd85 2.240 . S
O95 C93 1.279 . S
O96 Cd86 2.297 . S
O96 C91 1.247 . S
O97 Cd86 2.439 . S
O97 C91 1.208 . S
O98 Cd99 2.223 1_556 S
O98 C106 1.315 1_556 S
Cd99 O98 2.223 1_554 S
Cd99 O102 2.297 1_554 S
Cd99 O103 2.439 . S
Cd99 O109 2.240 . S
Cd100 O101 2.240 . S
Cd100 O108 2.223 . S
Cd100 O110 2.297 . S
Cd100 O111 2.439 . S
O101 Cd100 2.240 . S
O101 C106 1.279 . S
O102 Cd99 2.297 1_556 S
O102 C104 1.247 1_556 S
O103 Cd99 2.439 . S
O103 C104 1.208 . S
C104 O102 1.247 1_554 S
C104 O103 1.208 . S
C105 O110 1.247 . S
C105 O111 1.208 . S
C106 O98 1.315 1_554 S
C106 O101 1.279 . S
C107 O108 1.315 . S
C107 O109 1.279 . S
O108 Cd100 2.223 . S
O108 C107 1.315 . S
O109 Cd99 2.240 . S
O109 C107 1.279 . S
O110 Cd100 2.297 . S
O110 C105 1.247 . S
O111 Cd100 2.439 . S
O111 C105 1.208 . S
C112 C113 1.363 . S
C112 C118 1.379 . S
C112 N120 1.356 . S
C113 C112 1.363 . S
C113 C119 1.363 . S
C114 C115 1.363 . S
C114 C119 1.379 . S
C114 N121 1.356 . S
C115 C114 1.363 . S
C115 C118 1.363 . S
N116 C118 1.356 . S
N116 H128 0.984 . S
N116 H129 0.985 . S
N117 C119 1.356 . S
N117 H122 0.984 . S
N117 H123 0.985 . S
C118 C112 1.379 . S
C118 C115 1.363 . S
C118 N116 1.356 . S
C119 C113 1.363 . S
C119 C114 1.379 . S
C119 N117 1.356 . S
N120 C112 1.356 . S
N120 H126 0.984 . S
N120 H127 0.984 . S
N121 C114 1.356 . S
N121 H124 0.984 . S
N121 H125 0.985 . S
H122 N117 0.984 . S
H123 N117 0.985 . S
H124 N121 0.984 . S
H125 N121 0.985 . S
H126 N120 0.984 . S
H127 N120 0.984 . S
H128 N116 0.984 . S
H129 N116 0.985 . S
C130 C131 1.363 . S
C130 C136 1.379 . S
C130 N138 1.356 . S
C131 C130 1.363 . S
C131 C137 1.363 . S
C132 C133 1.363 . S
C132 C137 1.379 . S
C132 N139 1.356 . S
C133 C132 1.363 . S
C133 C136 1.363 . S
N134 C136 1.356 . S
N134 H146 0.984 . S
N134 H147 0.985 . S
N135 C137 1.356 . S
N135 H140 0.984 . S
N135 H141 0.985 . S
C136 C130 1.379 . S
C136 C133 1.363 . S
C136 N134 1.356 . S
C137 C131 1.363 . S
C137 C132 1.379 . S
C137 N135 1.356 . S
N138 C130 1.356 . S
N138 H144 0.984 . S
N138 H145 0.984 . S
N139 C132 1.356 . S
N139 H142 0.984 . S
N139 H143 0.985 . S
H140 N135 0.984 . S
H141 N135 0.985 . S
H142 N139 0.984 . S
H143 N139 0.985 . S
H144 N138 0.984 . S
H145 N138 0.984 . S
H146 N134 0.984 . S
H147 N134 0.985 . S
C148 C149 1.363 . S
C148 C154 1.379 . S
C148 N156 1.356 . S
C149 C148 1.363 . S
C149 C155 1.363 . S
C150 C151 1.363 . S
C150 C155 1.379 . S
C150 N157 1.356 . S
C151 C150 1.363 . S
C151 C154 1.363 . S
N152 C154 1.356 . S
N152 H164 0.984 . S
N152 H165 0.985 . S
N153 C155 1.356 . S
N153 H158 0.984 . S
N153 H159 0.985 . S
C154 C148 1.379 . S
C154 C151 1.363 . S
C154 N152 1.356 . S
C155 C149 1.363 . S
C155 C150 1.379 . S
C155 N153 1.356 . S
N156 C148 1.356 . S
N156 H162 0.984 . S
N156 H163 0.984 . S
N157 C150 1.356 . S
N157 H160 0.984 . S
N157 H161 0.985 . S
H158 N153 0.984 . S
H159 N153 0.985 . S
H160 N157 0.984 . S
H161 N157 0.985 . S
H162 N156 0.984 . S
H163 N156 0.984 . S
H164 N152 0.984 . S
H165 N152 0.985 . S
C166 C167 1.363 . S
C166 C172 1.379 . S
C166 N174 1.356 . S
C167 C166 1.363 . S
C167 C173 1.363 . S
C168 C169 1.363 . S
C168 C173 1.379 . S
C168 N175 1.356 . S
C169 C168 1.363 . S
C169 C172 1.363 . S
N170 C172 1.356 . S
N170 H182 0.984 . S
N170 H183 0.985 . S
N171 C173 1.356 . S
N171 H176 0.984 . S
N171 H177 0.985 . S
C172 C166 1.379 . S
C172 C169 1.363 . S
C172 N170 1.356 . S
C173 C167 1.363 . S
C173 C168 1.379 . S
C173 N171 1.356 . S
N174 C166 1.356 . S
N174 H180 0.984 . S
N174 H181 0.984 . S
N175 C168 1.356 . S
N175 H178 0.984 . S
N175 H179 0.985 . S
H176 N171 0.984 . S
H177 N171 0.985 . S
H178 N175 0.984 . S
H179 N175 0.985 . S
H180 N174 0.984 . S
H181 N174 0.984 . S
H182 N170 0.984 . S
H183 N170 0.985 . S
C184 C185 1.363 . S
C184 C190 1.379 . S
C184 N192 1.356 . S
C185 C184 1.363 . S
C185 C191 1.363 . S
C186 C187 1.363 . S
C186 C191 1.379 . S
C186 N193 1.356 . S
C187 C186 1.363 . S
C187 C190 1.363 . S
N188 C190 1.356 . S
N188 H200 0.984 . S
N188 H201 0.985 . S
N189 C191 1.356 . S
N189 H194 0.984 1_545 S
N189 H195 0.985 . S
C190 C184 1.379 . S
C190 C187 1.363 . S
C190 N188 1.356 . S
C191 C185 1.363 . S
C191 C186 1.379 . S
C191 N189 1.356 . S
N192 C184 1.356 . S
N192 H198 0.984 . S
N192 H199 0.984 1_545 S
N193 C186 1.356 . S
N193 H196 0.984 . S
N193 H197 0.985 . S
H194 N189 0.984 1_565 S
H195 N189 0.985 . S
H196 N193 0.984 . S
H197 N193 0.985 . S
H198 N192 0.984 . S
H199 N192 0.984 1_565 S
H200 N188 0.984 . S
H201 N188 0.985 . S
C202 C203 1.363 . S
C202 C208 1.379 . S
C202 N210 1.356 . S
C203 C202 1.363 . S
C203 C209 1.363 . S
C204 C205 1.363 . S
C204 C209 1.379 . S
C204 N211 1.356 . S
C205 C204 1.363 . S
C205 C208 1.363 . S
N206 C208 1.356 . S
N206 H218 0.984 . S
N206 H219 0.985 1_455 S
N207 C209 1.356 . S
N207 H212 0.984 . S
N207 H213 0.985 . S
C208 C202 1.379 . S
C208 C205 1.363 . S
C208 N206 1.356 . S
C209 C203 1.363 . S
C209 C204 1.379 . S
C209 N207 1.356 . S
N210 C202 1.356 . S
N210 H216 0.984 . S
N210 H217 0.984 . S
N211 C204 1.356 . S
N211 H214 0.984 . S
N211 H215 0.985 . S
H212 N207 0.984 . S
H213 N207 0.985 . S
H214 N211 0.984 . S
H215 N211 0.985 . S
H216 N210 0.984 . S
H217 N210 0.984 . S
H218 N206 0.984 . S
H219 N206 0.985 1_655 S
C220 C221 1.363 . S
C220 C226 1.379 . S
C220 N228 1.356 . S
C221 C220 1.363 . S
C221 C227 1.363 . S
C222 C223 1.363 . S
C222 C227 1.379 . S
C222 N229 1.356 . S
C223 C222 1.363 . S
C223 C226 1.363 . S
N224 C226 1.356 . S
N224 H236 0.984 . S
N224 H237 0.985 . S
N225 C227 1.356 . S
N225 H230 0.984 1_565 S
N225 H231 0.985 . S
C226 C220 1.379 . S
C226 C223 1.363 . S
C226 N224 1.356 . S
C227 C221 1.363 . S
C227 C222 1.379 . S
C227 N225 1.356 . S
N228 C220 1.356 . S
N228 H234 0.984 . S
N228 H235 0.984 1_565 S
N229 C222 1.356 . S
N229 H232 0.984 . S
N229 H233 0.985 . S
H230 N225 0.984 1_545 S
H231 N225 0.985 . S
H232 N229 0.984 . S
H233 N229 0.985 . S
H234 N228 0.984 . S
H235 N228 0.984 1_545 S
H236 N224 0.984 . S
H237 N224 0.985 . S
C238 C239 1.363 . S
C238 C244 1.379 . S
C238 N246 1.356 . S
C239 C238 1.363 . S
C239 C245 1.363 . S
C240 C241 1.363 . S
C240 C245 1.379 . S
C240 N247 1.356 . S
C241 C240 1.363 . S
C241 C244 1.363 . S
N242 C244 1.356 . S
N242 H254 0.984 . S
N242 H255 0.985 1_655 S
N243 C245 1.356 . S
N243 H248 0.984 . S
N243 H249 0.985 . S
C244 C238 1.379 . S
C244 C241 1.363 . S
C244 N242 1.356 . S
C245 C239 1.363 . S
C245 C240 1.379 . S
C245 N243 1.356 . S
N246 C238 1.356 . S
N246 H252 0.984 . S
N246 H253 0.984 . S
N247 C240 1.356 . S
N247 H250 0.984 . S
N247 H251 0.985 . S
H248 N243 0.984 . S
H249 N243 0.985 . S
H250 N247 0.984 . S
H251 N247 0.985 . S
H252 N246 0.984 . S
H253 N246 0.984 . S
H254 N242 0.984 . S
H255 N242 0.985 1_455 S
C256 C257 1.363 1_556 S
C256 C262 1.379 . S
C256 N264 1.356 . S
C257 C256 1.363 1_554 S
C257 C263 1.363 . S
C258 C259 1.363 1_554 S
C258 C263 1.379 . S
C258 N265 1.356 . S
C259 C258 1.363 1_556 S
C259 C262 1.363 . S
N260 C262 1.356 . S
N260 H272 0.984 . S
N260 H273 0.985 . S
N261 C263 1.356 . S
N261 H266 0.984 . S
N261 H267 0.985 . S
C262 C256 1.379 . S
C262 C259 1.363 . S
C262 N260 1.356 . S
C263 C257 1.363 . S
C263 C258 1.379 . S
C263 N261 1.356 . S
N264 C256 1.356 . S
N264 H270 0.984 . S
N264 H271 0.984 . S
N265 C258 1.356 . S
N265 H268 0.984 . S
N265 H269 0.985 . S
H266 N261 0.984 . S
H267 N261 0.985 . S
H268 N265 0.984 . S
H269 N265 0.985 . S
H270 N264 0.984 . S
H271 N264 0.984 . S
H272 N260 0.984 . S
H273 N260 0.985 . S
C274 C275 1.363 1_556 S
C274 C280 1.379 . S
C274 N282 1.356 . S
C275 C274 1.363 1_554 S
C275 C281 1.363 . S
C276 C277 1.363 1_554 S
C276 C281 1.379 . S
C276 N283 1.356 . S
C277 C276 1.363 1_556 S
C277 C280 1.363 . S
N278 C280 1.356 . S
N278 H290 0.984 . S
N278 H291 0.985 . S
N279 C281 1.356 . S
N279 H284 0.984 . S
N279 H285 0.985 . S
C280 C274 1.379 . S
C280 C277 1.363 . S
C280 N278 1.356 . S
C281 C275 1.363 . S
C281 C276 1.379 . S
C281 N279 1.356 . S
N282 C274 1.356 . S
N282 H288 0.984 . S
N282 H289 0.984 . S
N283 C276 1.356 . S
N283 H286 0.984 . S
N283 H287 0.985 . S
H284 N279 0.984 . S
H285 N279 0.985 . S
H286 N283 0.984 . S
H287 N283 0.985 . S
H288 N282 0.984 . S
H289 N282 0.984 . S
H290 N278 0.984 . S
H291 N278 0.985 . S
C292 C293 1.363 . S
C292 C298 1.379 . S
C292 N300 1.356 . S
C293 C292 1.363 . S
C293 C299 1.363 1_554 S
C294 C295 1.363 . S
C294 C299 1.379 . S
C294 N301 1.356 . S
C295 C294 1.363 . S
C295 C298 1.363 1_556 S
N296 C298 1.356 . S
N296 H308 0.984 . S
N296 H309 0.985 . S
N297 C299 1.356 . S
N297 H302 0.984 . S
N297 H303 0.985 . S
C298 C292 1.379 . S
C298 C295 1.363 1_554 S
C298 N296 1.356 . S
C299 C293 1.363 1_556 S
C299 C294 1.379 . S
C299 N297 1.356 . S
N300 C292 1.356 . S
N300 H306 0.984 . S
N300 H307 0.984 . S
N301 C294 1.356 . S
N301 H304 0.984 . S
N301 H305 0.985 . S
H302 N297 0.984 . S
H303 N297 0.985 . S
H304 N301 0.984 . S
H305 N301 0.985 . S
H306 N300 0.984 . S
H307 N300 0.984 . S
H308 N296 0.984 . S
H309 N296 0.985 . S
C310 C311 1.363 1_554 S
C310 C316 1.379 . S
C310 N318 1.356 . S
C311 C310 1.363 1_556 S
C311 C317 1.363 . S
C312 C313 1.363 1_556 S
C312 C317 1.379 . S
C312 N319 1.356 . S
C313 C312 1.363 1_554 S
C313 C316 1.363 . S
N314 C316 1.356 . S
N314 H326 0.984 . S
N314 H327 0.985 . S
N315 C317 1.356 . S
N315 H320 0.984 . S
N315 H321 0.985 . S
C316 C310 1.379 . S
C316 C313 1.363 . S
C316 N314 1.356 . S
C317 C311 1.363 . S
C317 C312 1.379 . S
C317 N315 1.356 . S
N318 C310 1.356 . S
N318 H324 0.984 . S
N318 H325 0.984 . S
N319 C312 1.356 . S
N319 H322 0.984 . S
N319 H323 0.985 . S
H320 N315 0.984 . S
H321 N315 0.985 . S
H322 N319 0.984 . S
H323 N319 0.985 . S
H324 N318 0.984 . S
H325 N318 0.984 . S
H326 N314 0.984 . S
H327 N314 0.985 . S
C328 C329 1.363 1_455 S
C328 C334 1.379 . S
C328 N336 1.356 1_455 S
C329 C328 1.363 1_655 S
C329 C335 1.363 . S
C330 C331 1.363 1_655 S
C330 C335 1.379 . S
C330 N337 1.356 1_655 S
C331 C330 1.363 1_455 S
C331 C334 1.363 . S
N332 C334 1.356 . S
N332 H344 0.984 . S
N332 H345 0.985 . S
N333 C335 1.356 . S
N333 H338 0.984 . S
N333 H339 0.985 . S
C334 C328 1.379 . S
C334 C331 1.363 . S
C334 N332 1.356 . S
C335 C329 1.363 . S
C335 C330 1.379 . S
C335 N333 1.356 . S
N336 C328 1.356 1_655 S
N336 H342 0.984 1_655 S
N336 H343 0.984 . S
N337 C330 1.356 1_455 S
N337 H340 0.984 . S
N337 H341 0.985 1_455 S
H338 N333 0.984 . S
H339 N333 0.985 . S
H340 N337 0.984 . S
H341 N337 0.985 1_655 S
H342 N336 0.984 1_455 S
H343 N336 0.984 . S
H344 N332 0.984 . S
H345 N332 0.985 . S
C346 C347 1.363 1_565 S
C346 C352 1.379 . S
C346 N354 1.356 1_565 S
C347 C346 1.363 1_545 S
C347 C353 1.363 . S
C348 C349 1.363 1_545 S
C348 C353 1.379 . S
C348 N355 1.356 1_545 S
C349 C348 1.363 1_565 S
C349 C352 1.363 . S
N350 C352 1.356 . S
N350 H362 0.984 . S
N350 H363 0.985 . S
N351 C353 1.356 . S
N351 H356 0.984 . S
N351 H357 0.985 . S
C352 C346 1.379 . S
C352 C349 1.363 . S
C352 N350 1.356 . S
C353 C347 1.363 . S
C353 C348 1.379 . S
C353 N351 1.356 . S
N354 C346 1.356 1_545 S
N354 H360 0.984 1_545 S
N354 H361 0.984 . S
N355 C348 1.356 1_565 S
N355 H358 0.984 . S
N355 H359 0.985 1_565 S
H356 N351 0.984 . S
H357 N351 0.985 . S
H358 N355 0.984 . S
H359 N355 0.985 1_545 S
H360 N354 0.984 1_565 S
H361 N354 0.984 . S
H362 N350 0.984 . S
H363 N350 0.985 . S
C364 C365 1.363 . S
C364 C370 1.379 1_545 S
C364 N372 1.356 . S
C365 C364 1.363 . S
C365 C371 1.363 . S
C366 C367 1.363 . S
C366 C371 1.379 1_565 S
C366 N373 1.356 1_556 S
C367 C366 1.363 . S
C367 C370 1.363 . S
N368 C370 1.356 . S
N368 H380 0.984 1_565 S
N368 H381 0.985 . S
N369 C371 1.356 1_554 S
N369 H374 0.984 1_554 S
N369 H375 0.985 1_545 S
C370 C364 1.379 1_565 S
C370 C367 1.363 . S
C370 N368 1.356 . S
C371 C365 1.363 . S
C371 C366 1.379 1_545 S
C371 N369 1.356 1_556 S
N372 C364 1.356 . S
N372 H378 0.984 . S
N372 H379 0.984 . S
N373 C366 1.356 1_554 S
N373 H376 0.984 1_554 S
N373 H377 0.985 . S
H374 N369 0.984 1_556 S
H375 N369 0.985 1_565 S
H376 N373 0.984 1_556 S
H377 N373 0.985 . S
H378 N372 0.984 . S
H379 N372 0.984 . S
H380 N368 0.984 1_545 S
H381 N368 0.985 . S
C382 C383 1.363 . S
C382 C388 1.379 1_455 S
C382 N390 1.356 1_554 S
C383 C382 1.363 . S
C383 C389 1.363 . S
C384 C385 1.363 . S
C384 C389 1.379 1_655 S
C384 N391 1.356 . S
C385 C384 1.363 . S
C385 C388 1.363 . S
N386 C388 1.356 1_556 S
N386 H398 0.984 1_655 S
N386 H399 0.985 1_556 S
N387 C389 1.356 . S
N387 H392 0.984 . S
N387 H393 0.985 1_455 S
C388 C382 1.379 1_655 S
C388 C385 1.363 . S
C388 N386 1.356 1_554 S
C389 C383 1.363 . S
C389 C384 1.379 1_455 S
C389 N387 1.356 . S
N390 C382 1.356 1_556 S
N390 H396 0.984 . S
N390 H397 0.984 1_556 S
N391 C384 1.356 . S
N391 H394 0.984 . S
N391 H395 0.985 . S
H392 N387 0.984 . S
H393 N387 0.985 1_655 S
H394 N391 0.984 . S
H395 N391 0.985 . S
H396 N390 0.984 . S
H397 N390 0.984 1_554 S
H398 N386 0.984 1_455 S
H399 N386 0.985 1_554 S
C113 C105 1.544 . S
C115 C7 1.544 . S
C131 C21 1.544 . S
C133 C63 1.544 . S
C149 C35 1.544 . S
C151 C77 1.544 . S
C167 C91 1.544 . S
C169 C49 1.544 . S
C185 C22 1.558 1_545 S
C187 C6 1.539 . S
C203 C20 1.539 . S
C205 C36 1.558 1_455 S
C221 C50 1.558 1_565 S
C223 C34 1.539 . S
C239 C48 1.539 . S
C241 C8 1.558 1_655 S
C257 C106 1.558 . S
C259 C62 1.539 . S
C275 C76 1.539 . S
C277 C64 1.558 . S
C293 C78 1.558 . S
C295 C90 1.539 . S
C311 C92 1.558 . S
C313 C104 1.539 . S
C329 C37 1.351 . S
C331 C9 1.351 . S
C347 C51 1.351 . S
C349 C23 1.351 . S
C365 C93 1.351 . S
C367 C65 1.351 . S
C383 C107 1.351 . S
C385 C79 1.351 . S
