# Generated by pormake.
# Topology smn, (6)-cn, num edge types: 1
# Building blocks:
#     Node 0, Type 0, BuildingBlock: OJICUG_clean_sbu_0, # of connection points: 6
#     Node 1, Type 0, BuildingBlock: OJICUG_clean_sbu_0, # of connection points: 6
#     Node 2, Type 0, BuildingBlock: OJICUG_clean_sbu_0, # of connection points: 6
#     Node 3, Type 0, BuildingBlock: OJICUG_clean_sbu_0, # of connection points: 6
#     Node 4, Type 0, BuildingBlock: OJICUG_clean_sbu_0, # of connection points: 6
#     Node 5, Type 0, BuildingBlock: OJICUG_clean_sbu_0, # of connection points: 6
#     Node 6, Type 0, BuildingBlock: OJICUG_clean_sbu_0, # of connection points: 6
#     Node 7, Type 0, BuildingBlock: OJICUG_clean_sbu_0, # of connection points: 6
#     Node 8, Type 0, BuildingBlock: OJICUG_clean_sbu_0, # of connection points: 6
#     Node 9, Type 0, BuildingBlock: OJICUG_clean_sbu_0, # of connection points: 6
#     Node 10, Type 0, BuildingBlock: OJICUG_clean_sbu_0, # of connection points: 6
#     Node 11, Type 0, BuildingBlock: OJICUG_clean_sbu_0, # of connection points: 6
#     Node 12, Type 0, BuildingBlock: OJICUG_clean_sbu_0, # of connection points: 6
#     Node 13, Type 0, BuildingBlock: OJICUG_clean_sbu_0, # of connection points: 6
#     Node 14, Type 0, BuildingBlock: OJICUG_clean_sbu_0, # of connection points: 6
#     Node 15, Type 0, BuildingBlock: OJICUG_clean_sbu_0, # of connection points: 6
#     Node 16, Type 0, BuildingBlock: OJICUG_clean_sbu_0, # of connection points: 6
#     Node 17, Type 0, BuildingBlock: OJICUG_clean_sbu_0, # of connection points: 6
#     Edge 18, Type (0, 0), BuildingBlock: UVAHIK_clean_linker_0, # of connection points: 2
#     Edge 19, Type (0, 0), BuildingBlock: UVAHIK_clean_linker_0, # of connection points: 2
#     Edge 20, Type (0, 0), BuildingBlock: UVAHIK_clean_linker_0, # of connection points: 2
#     Edge 21, Type (0, 0), BuildingBlock: UVAHIK_clean_linker_0, # of connection points: 2
#     Edge 22, Type (0, 0), BuildingBlock: UVAHIK_clean_linker_0, # of connection points: 2
#     Edge 23, Type (0, 0), BuildingBlock: UVAHIK_clean_linker_0, # of connection points: 2
#     Edge 24, Type (0, 0), BuildingBlock: UVAHIK_clean_linker_0, # of connection points: 2
#     Edge 25, Type (0, 0), BuildingBlock: UVAHIK_clean_linker_0, # of connection points: 2
#     Edge 26, Type (0, 0), BuildingBlock: UVAHIK_clean_linker_0, # of connection points: 2
#     Edge 27, Type (0, 0), BuildingBlock: UVAHIK_clean_linker_0, # of connection points: 2
#     Edge 28, Type (0, 0), BuildingBlock: UVAHIK_clean_linker_0, # of connection points: 2
#     Edge 29, Type (0, 0), BuildingBlock: UVAHIK_clean_linker_0, # of connection points: 2
#     Edge 30, Type (0, 0), BuildingBlock: UVAHIK_clean_linker_0, # of connection points: 2
#     Edge 31, Type (0, 0), BuildingBlock: UVAHIK_clean_linker_0, # of connection points: 2
#     Edge 32, Type (0, 0), BuildingBlock: UVAHIK_clean_linker_0, # of connection points: 2
#     Edge 33, Type (0, 0), BuildingBlock: UVAHIK_clean_linker_0, # of connection points: 2
#     Edge 34, Type (0, 0), BuildingBlock: UVAHIK_clean_linker_0, # of connection points: 2
#     Edge 35, Type (0, 0), BuildingBlock: UVAHIK_clean_linker_0, # of connection points: 2
#     Edge 36, Type (0, 0), BuildingBlock: UVAHIK_clean_linker_0, # of connection points: 2
#     Edge 37, Type (0, 0), BuildingBlock: UVAHIK_clean_linker_0, # of connection points: 2
#     Edge 38, Type (0, 0), BuildingBlock: UVAHIK_clean_linker_0, # of connection points: 2
#     Edge 39, Type (0, 0), BuildingBlock: UVAHIK_clean_linker_0, # of connection points: 2
#     Edge 40, Type (0, 0), BuildingBlock: UVAHIK_clean_linker_0, # of connection points: 2
#     Edge 41, Type (0, 0), BuildingBlock: UVAHIK_clean_linker_0, # of connection points: 2
#     Edge 42, Type (0, 0), BuildingBlock: UVAHIK_clean_linker_0, # of connection points: 2
#     Edge 43, Type (0, 0), BuildingBlock: UVAHIK_clean_linker_0, # of connection points: 2
#     Edge 44, Type (0, 0), BuildingBlock: UVAHIK_clean_linker_0, # of connection points: 2
#     Edge 45, Type (0, 0), BuildingBlock: UVAHIK_clean_linker_0, # of connection points: 2
#     Edge 46, Type (0, 0), BuildingBlock: UVAHIK_clean_linker_0, # of connection points: 2
#     Edge 47, Type (0, 0), BuildingBlock: UVAHIK_clean_linker_0, # of connection points: 2
#     Edge 48, Type (0, 0), BuildingBlock: UVAHIK_clean_linker_0, # of connection points: 2
#     Edge 49, Type (0, 0), BuildingBlock: UVAHIK_clean_linker_0, # of connection points: 2
#     Edge 50, Type (0, 0), BuildingBlock: UVAHIK_clean_linker_0, # of connection points: 2
#     Edge 51, Type (0, 0), BuildingBlock: UVAHIK_clean_linker_0, # of connection points: 2
#     Edge 52, Type (0, 0), BuildingBlock: UVAHIK_clean_linker_0, # of connection points: 2
#     Edge 53, Type (0, 0), BuildingBlock: UVAHIK_clean_linker_0, # of connection points: 2
#     Edge 54, Type (0, 0), BuildingBlock: UVAHIK_clean_linker_0, # of connection points: 2
#     Edge 55, Type (0, 0), BuildingBlock: UVAHIK_clean_linker_0, # of connection points: 2
#     Edge 56, Type (0, 0), BuildingBlock: UVAHIK_clean_linker_0, # of connection points: 2
#     Edge 57, Type (0, 0), BuildingBlock: UVAHIK_clean_linker_0, # of connection points: 2
#     Edge 58, Type (0, 0), BuildingBlock: UVAHIK_clean_linker_0, # of connection points: 2
#     Edge 59, Type (0, 0), BuildingBlock: UVAHIK_clean_linker_0, # of connection points: 2
#     Edge 60, Type (0, 0), BuildingBlock: UVAHIK_clean_linker_0, # of connection points: 2
#     Edge 61, Type (0, 0), BuildingBlock: UVAHIK_clean_linker_0, # of connection points: 2
#     Edge 62, Type (0, 0), BuildingBlock: UVAHIK_clean_linker_0, # of connection points: 2
#     Edge 63, Type (0, 0), BuildingBlock: UVAHIK_clean_linker_0, # of connection points: 2
#     Edge 64, Type (0, 0), BuildingBlock: UVAHIK_clean_linker_0, # of connection points: 2
#     Edge 65, Type (0, 0), BuildingBlock: UVAHIK_clean_linker_0, # of connection points: 2
#     Edge 66, Type (0, 0), BuildingBlock: UVAHIK_clean_linker_0, # of connection points: 2
#     Edge 67, Type (0, 0), BuildingBlock: UVAHIK_clean_linker_0, # of connection points: 2
#     Edge 68, Type (0, 0), BuildingBlock: UVAHIK_clean_linker_0, # of connection points: 2
#     Edge 69, Type (0, 0), BuildingBlock: UVAHIK_clean_linker_0, # of connection points: 2
#     Edge 70, Type (0, 0), BuildingBlock: UVAHIK_clean_linker_0, # of connection points: 2
#     Edge 71, Type (0, 0), BuildingBlock: UVAHIK_clean_linker_0, # of connection points: 2
# Relax obj value: 0.148
# Max RMSD: 0.236
# Mean RMSD: 0.236
data_MOF--net-smn--node1-OJICUG_clean_sbu_0--edge1-UVAHIK_clean_linker_0
_symmetry_space_group_name_H-M    P1
_symmetry_Int_Tables_number       1
_symmetry_cell_setting            triclinic
loop_
_symmetry_equiv_pos_as_xyz
'x, y, z'
_cell_length_a     83.41701
_cell_length_b     83.43158
_cell_length_c     23.062127
_cell_angle_alpha  89.970183
_cell_angle_beta   90.005844
_cell_angle_gamma 120.01058
loop_
_atom_site_label
_atom_site_type_symbol
_atom_site_fract_x
_atom_site_fract_y
_atom_site_fract_z
_atom_type_partial_charge
Sc0 Sc -7e-05 0.17596 0.74688 0.0
Sc1 Sc 0.0137 0.21916 0.81147 0.0
Sc2 Sc 0.99032 0.20776 0.67698 0.0
O3 O 0.00133 0.20098 0.74509 0.0
C4 C 0.01139 0.18928 0.61586 0.0
C5 C 0.04005 0.20177 0.80066 0.0
C6 C 0.02741 0.2462 0.70291 0.0
C7 C 0.99005 0.1805 0.87712 0.0
C8 C 0.96085 0.16471 0.69086 0.0
C9 C 0.978 0.22288 0.78434 0.0
O10 O 0.00989 0.1791 0.65901 0.0
O11 O 0.03704 0.21462 0.8166 0.0
O12 O 0.01344 0.23545 0.67237 0.0
O13 O 0.98988 0.17068 0.83471 0.0
O14 O 0.96571 0.18074 0.67122 0.0
O15 O 0.99175 0.22547 0.81502 0.0
O16 O 0.97167 0.1612 0.71963 0.0
O17 O 0.99815 0.19808 0.87538 0.0
O18 O 0.97506 0.21615 0.73333 0.0
O19 O 0.02795 0.18729 0.77504 0.0
O20 O 0.00514 0.20043 0.61576 0.0
O21 O 0.02998 0.2422 0.75404 0.0
Sc22 Sc 0.78699 0.79923 0.81593 0.0
Sc23 Sc 0.8007 0.78861 0.68386 0.0
Sc24 Sc 0.83062 0.82993 0.75702 0.0
O25 O 0.80614 0.80592 0.7523 0.0
C26 C 0.80398 0.84307 0.80989 0.0
C27 C 0.76158 0.78656 0.70502 0.0
C28 C 0.81852 0.82844 0.62459 0.0
C29 C 0.78356 0.75999 0.7864 0.0
C30 C 0.82465 0.81392 0.88596 0.0
C31 C 0.84402 0.80384 0.70112 0.0
O32 O 0.79172 0.82705 0.82669 0.0
O33 O 0.77234 0.78244 0.67795 0.0
O34 O 0.8282 0.83686 0.66888 0.0
O35 O 0.77936 0.77049 0.81447 0.0
O36 O 0.83469 0.82486 0.84591 0.0
O37 O 0.82835 0.79244 0.67968 0.0
O38 O 0.80722 0.80326 0.88146 0.0
O39 O 0.79299 0.765 0.73975 0.0
O40 O 0.84657 0.81753 0.73168 0.0
O41 O 0.76552 0.79434 0.75451 0.0
O42 O 0.81832 0.8459 0.78254 0.0
O43 O 0.80768 0.81097 0.62316 0.0
Sc44 Sc 0.17745 0.00342 0.74931 0.0
Sc45 Sc 0.20802 0.99271 0.82171 0.0
Sc46 Sc 0.21927 0.01341 0.68242 0.0
O47 O 0.20161 0.00315 0.75113 0.0
C48 C 0.17946 0.9898 0.62228 0.0
C49 C 0.16455 0.96515 0.81496 0.0
C50 C 0.22127 0.97726 0.71703 0.0
C51 C 0.19234 0.01736 0.87701 0.0
C52 C 0.20427 0.0417 0.6856 0.0
C53 C 0.24709 0.02814 0.78964 0.0
O54 O 0.17042 0.99041 0.6658 0.0
O55 O 0.18067 0.9687 0.82978 0.0
O56 O 0.22354 0.99014 0.68272 0.0
O57 O 0.18298 0.01654 0.83245 0.0
O58 O 0.21684 0.0379 0.67314 0.0
O59 O 0.23593 0.01539 0.82338 0.0
O60 O 0.18949 0.03036 0.71148 0.0
O61 O 0.20153 0.00894 0.88054 0.0
O62 O 0.24322 0.0295 0.73711 0.0
O63 O 0.16168 0.97655 0.787 0.0
O64 O 0.19709 0.99792 0.62111 0.0
O65 O 0.21569 0.97604 0.76912 0.0
Sc66 Sc 0.00329 0.82767 0.25458 0.0
Sc67 Sc 0.98967 0.78509 0.18647 0.0
Sc68 Sc 0.01424 0.79602 0.31739 0.0
O69 O 0.00238 0.80297 0.25281 0.0
C70 C 0.0428 0.83947 0.30671 0.0
C71 C 0.01274 0.82378 0.12277 0.0
C72 C 0.02561 0.78127 0.20882 0.0
C73 C 0.9633 0.80252 0.20128 0.0
C74 C 0.99308 0.81296 0.38511 0.0
C75 C 0.97692 0.75769 0.29192 0.0
O76 O 0.03205 0.84278 0.27671 0.0
O77 O 0.00614 0.80633 0.12426 0.0
O78 O 0.03021 0.79001 0.2567 0.0
O79 O 0.97471 0.81601 0.2321 0.0
O80 O 0.99865 0.8013 0.38135 0.0
O81 O 0.97275 0.76276 0.24499 0.0
O82 O 0.995 0.82418 0.34459 0.0
O83 O 0.96707 0.79076 0.17985 0.0
O84 O 0.99222 0.76757 0.31804 0.0
O85 O 0.0116 0.83302 0.1649 0.0
O86 O 0.03792 0.82352 0.327 0.0
O87 O 0.0105 0.77697 0.18299 0.0
Sc88 Sc 0.22141 0.21434 0.1766 0.0
Sc89 Sc 0.20806 0.22172 0.31478 0.0
Sc90 Sc 0.18016 0.17987 0.24045 0.0
O91 O 0.2032 0.20533 0.24394 0.0
C92 C 0.18243 0.1955 0.11247 0.0
C93 C 0.22061 0.25107 0.2126 0.0
C94 C 0.16405 0.20291 0.30247 0.0
C95 C 0.24853 0.22844 0.28488 0.0
C96 C 0.20968 0.17154 0.18115 0.0
C97 C 0.19381 0.18193 0.37083 0.0
O98 O 0.1996 0.20738 0.11462 0.0
O99 O 0.21386 0.24567 0.26305 0.0
O100 O 0.16236 0.18957 0.27162 0.0
O101 O 0.2449 0.22255 0.23295 0.0
O102 O 0.19497 0.16674 0.20971 0.0
O103 O 0.20332 0.1995 0.37302 0.0
O104 O 0.22037 0.18811 0.16476 0.0
O105 O 0.23688 0.22964 0.31748 0.0
O106 O 0.18437 0.17308 0.32679 0.0
O107 O 0.22461 0.24151 0.179 0.0
O108 O 0.17373 0.18428 0.15352 0.0
O109 O 0.1796 0.21553 0.32161 0.0
Sc110 Sc 0.82764 0.00296 0.24973 0.0
Sc111 Sc 0.7975 0.01592 0.18558 0.0
Sc112 Sc 0.78551 0.99164 0.31753 0.0
O113 O 0.8036 0.00351 0.25091 0.0
C114 C 0.80092 0.96357 0.30606 0.0
C115 C 0.81295 0.99287 0.11964 0.0
C116 C 0.7582 0.97965 0.21119 0.0
C117 C 0.84131 0.04271 0.19466 0.0
C118 C 0.82462 0.01386 0.38066 0.0
C119 C 0.7834 0.02847 0.29359 0.0
O120 O 0.81503 0.97456 0.27664 0.0
O121 O 0.80257 0.0 0.12185 0.0
O122 O 0.76272 0.9756 0.25941 0.0
O123 O 0.84401 0.03113 0.22225 0.0
O124 O 0.80713 0.0071 0.37979 0.0
O125 O 0.79168 0.03238 0.24489 0.0
O126 O 0.83371 0.01271 0.33799 0.0
O127 O 0.82535 0.03915 0.17792 0.0
O128 O 0.7791 0.01361 0.32092 0.0
O129 O 0.82321 0.99342 0.16137 0.0
O130 O 0.78937 0.96803 0.32476 0.0
O131 O 0.76882 0.99442 0.1835 0.0
Sc132 Sc 0.66831 0.50877 0.0787 0.0
Sc133 Sc 0.68329 0.55219 0.14366 0.0
Sc134 Sc 0.65816 0.5406 0.0123 0.0
O135 O 0.66993 0.53387 0.07826 0.0
C136 C 0.6782 0.52176 0.94697 0.0
C137 C 0.70898 0.53413 0.12927 0.0
C138 C 0.69587 0.57887 0.03423 0.0
C139 C 0.65996 0.51367 0.21053 0.0
C140 C 0.62864 0.49769 0.02788 0.0
C141 C 0.64776 0.55676 0.12121 0.0
O142 O 0.6772 0.51164 0.98971 0.0
O143 O 0.7063 0.54709 0.14638 0.0
O144 O 0.68127 0.56813 0.00624 0.0
O145 O 0.65931 0.50387 0.1674 0.0
O146 O 0.63336 0.51372 0.00858 0.0
O147 O 0.66185 0.55928 0.14997 0.0
O148 O 0.63974 0.49412 0.05471 0.0
O149 O 0.66814 0.53129 0.20888 0.0
O150 O 0.64388 0.54945 0.07099 0.0
O151 O 0.6966 0.51981 0.10371 0.0
O152 O 0.67208 0.533 0.94846 0.0
O153 O 0.69931 0.57495 0.08443 0.0
Sc154 Sc 0.49756 0.16522 0.07522 0.0
Sc155 Sc 0.45502 0.13669 0.14467 0.0
Sc156 Sc 0.46519 0.12314 0.01069 0.0
O157 O 0.47255 0.14169 0.07681 0.0
C158 C 0.48349 0.16204 0.94473 0.0
C159 C 0.47295 0.18051 0.13124 0.0
C160 C 0.4273 0.12292 0.03791 0.0
C161 C 0.49427 0.15168 0.20637 0.0
C162 C 0.50816 0.1365 0.022 0.0
C163 C 0.44967 0.09643 0.11989 0.0
O164 O 0.49361 0.17117 0.98743 0.0
O165 O 0.46032 0.16486 0.14955 0.0
O166 O 0.43762 0.11898 0.0077 0.0
O167 O 0.50344 0.16105 0.16258 0.0
O168 O 0.49195 0.12502 0.00453 0.0
O169 O 0.44745 0.10803 0.14941 0.0
O170 O 0.51198 0.15133 0.04819 0.0
O171 O 0.47665 0.14213 0.20695 0.0
O172 O 0.45685 0.10003 0.06944 0.0
O173 O 0.48685 0.18246 0.103 0.0
O174 O 0.47255 0.1446 0.9463 0.0
O175 O 0.43184 0.13022 0.08809 0.0
Sc176 Sc 0.84422 0.33806 0.08186 0.0
Sc177 Sc 0.87286 0.32389 0.15054 0.0
Sc178 Sc 0.88602 0.34713 0.01626 0.0
O179 O 0.86768 0.33633 0.08288 0.0
C180 C 0.84683 0.32618 0.95221 0.0
C181 C 0.82908 0.2982 0.13892 0.0
C182 C 0.88639 0.30965 0.04411 0.0
C183 C 0.85824 0.3485 0.21233 0.0
C184 C 0.87288 0.37695 0.02555 0.0
C185 C 0.91295 0.35886 0.12476 0.0
O186 O 0.83771 0.32741 0.99461 0.0
O187 O 0.84483 0.30096 0.15493 0.0
O188 O 0.89012 0.32372 0.01333 0.0
O189 O 0.84905 0.34879 0.16868 0.0
O190 O 0.88428 0.37196 0.00946 0.0
O191 O 0.90145 0.34518 0.15506 0.0
O192 O 0.85799 0.36617 0.052 0.0
O193 O 0.8673 0.33993 0.21264 0.0
O194 O 0.90927 0.36209 0.07399 0.0
O195 O 0.82693 0.31033 0.11244 0.0
O196 O 0.86427 0.33273 0.95344 0.0
O197 O 0.87941 0.30715 0.09465 0.0
Sc198 Sc 0.65804 0.11995 0.51522 0.0
Sc199 Sc 0.68146 0.13386 0.64915 0.0
Sc200 Sc 0.66739 0.16221 0.57827 0.0
O201 O 0.66897 0.13868 0.58091 0.0
C202 C 0.67921 0.15884 0.44929 0.0
C203 C 0.69542 0.11947 0.54396 0.0
C204 C 0.70728 0.17752 0.6356 0.0
C205 C 0.64629 0.09369 0.62537 0.0
C206 C 0.62845 0.13346 0.52219 0.0
C207 C 0.65711 0.14906 0.70945 0.0
O208 O 0.67248 0.14137 0.45141 0.0
O209 O 0.69806 0.12685 0.59392 0.0
O210 O 0.69512 0.1796 0.60908 0.0
O211 O 0.6432 0.09692 0.57383 0.0
O212 O 0.63932 0.14845 0.54799 0.0
O213 O 0.66574 0.14006 0.71067 0.0
O214 O 0.63325 0.12181 0.50739 0.0
O215 O 0.65985 0.10542 0.65558 0.0
O216 O 0.65662 0.15783 0.66495 0.0
O217 O 0.6813 0.11565 0.51334 0.0
O218 O 0.67814 0.16823 0.49111 0.0
O219 O 0.70456 0.16181 0.6519 0.0
Sc220 Sc 0.88674 0.5422 0.513 0.0
Sc221 Sc 0.87286 0.55147 0.64766 0.0
Sc222 Sc 0.84477 0.50912 0.57644 0.0
O223 O 0.86813 0.53428 0.57907 0.0
C224 C 0.84808 0.52374 0.44662 0.0
C225 C 0.88635 0.57962 0.54219 0.0
C226 C 0.82898 0.53317 0.6331 0.0
C227 C 0.91337 0.55736 0.62207 0.0
C228 C 0.87392 0.49926 0.52282 0.0
C229 C 0.85795 0.51216 0.70809 0.0
O230 O 0.86535 0.53524 0.44921 0.0
O231 O 0.87885 0.5747 0.59197 0.0
O232 O 0.82722 0.51956 0.60364 0.0
O233 O 0.9098 0.55046 0.57129 0.0
O234 O 0.85917 0.49518 0.55003 0.0
O235 O 0.8676 0.52976 0.70903 0.0
O236 O 0.88505 0.51553 0.50483 0.0
O237 O 0.90173 0.55932 0.6524 0.0
O238 O 0.84863 0.50312 0.66407 0.0
O239 O 0.89073 0.56967 0.51188 0.0
O240 O 0.83895 0.51296 0.48813 0.0
O241 O 0.84451 0.54568 0.6526 0.0
Sc242 Sc 0.46765 0.35172 0.51635 0.0
Sc243 Sc 0.45543 0.32671 0.64763 0.0
Sc244 Sc 0.4984 0.33991 0.58192 0.0
O245 O 0.47383 0.33943 0.58196 0.0
C246 C 0.48509 0.33056 0.45021 0.0
C247 C 0.42867 0.31486 0.53937 0.0
C248 C 0.47178 0.29952 0.63224 0.0
C249 C 0.45229 0.36303 0.62504 0.0
C250 C 0.51104 0.37994 0.53105 0.0
C251 C 0.49401 0.34875 0.71394 0.0
O252 O 0.47406 0.33692 0.45236 0.0
O253 O 0.43263 0.31111 0.58898 0.0
O254 O 0.4861 0.31122 0.60498 0.0
O255 O 0.46021 0.36705 0.57568 0.0
O256 O 0.51407 0.36862 0.55898 0.0
O257 O 0.4765 0.34159 0.71196 0.0
O258 O 0.49515 0.37564 0.51145 0.0
O259 O 0.44887 0.3485 0.65286 0.0
O260 O 0.50355 0.3485 0.67124 0.0
O261 O 0.43953 0.32939 0.51117 0.0
O262 O 0.49533 0.33144 0.49243 0.0
O263 O 0.45974 0.30326 0.6515 0.0
Sc264 Sc 0.33996 0.84731 0.41752 0.0
Sc265 Sc 0.34963 0.88887 0.48595 0.0
Sc266 Sc 0.32537 0.87607 0.35303 0.0
O267 O 0.33832 0.87076 0.41882 0.0
C268 C 0.34943 0.86169 0.28693 0.0
C269 C 0.37929 0.87563 0.47169 0.0
C270 C 0.36038 0.91625 0.37887 0.0
C271 C 0.32907 0.84949 0.54894 0.0
C272 C 0.29976 0.83218 0.36369 0.0
C273 C 0.31177 0.88905 0.46221 0.0
O274 O 0.34965 0.8521 0.3295 0.0
O275 O 0.37445 0.88687 0.49074 0.0
O276 O 0.34633 0.90481 0.34975 0.0
O277 O 0.33024 0.84071 0.5055 0.0
O278 O 0.3026 0.84792 0.3471 0.0
O279 O 0.32628 0.89313 0.49121 0.0
O280 O 0.3119 0.8301 0.39025 0.0
O281 O 0.33548 0.86692 0.5487 0.0
O282 O 0.30877 0.88186 0.41187 0.0
O283 O 0.36836 0.86109 0.44396 0.0
O284 O 0.3413 0.87117 0.28863 0.0
O285 O 0.36432 0.91234 0.42836 0.0
Sc286 Sc 0.12076 0.46421 0.48162 0.0
Sc287 Sc 0.1331 0.45389 0.34669 0.0
Sc288 Sc 0.16212 0.4968 0.41371 0.0
O289 O 0.13869 0.47164 0.41403 0.0
C290 C 0.13415 0.5074 0.47145 0.0
C291 C 0.09322 0.44895 0.37538 0.0
C292 C 0.14748 0.49266 0.28345 0.0
C293 C 0.11998 0.42616 0.45255 0.0
C294 C 0.15995 0.48265 0.54398 0.0
C295 C 0.17703 0.47191 0.35769 0.0
O296 O 0.12344 0.49123 0.49097 0.0
O297 O 0.10431 0.44601 0.34555 0.0
O298 O 0.15772 0.50223 0.32538 0.0
O299 O 0.1158 0.43629 0.48275 0.0
O300 O 0.16853 0.49358 0.50212 0.0
O301 O 0.16133 0.45962 0.33858 0.0
O302 O 0.14273 0.47082 0.54271 0.0
O303 O 0.12756 0.43096 0.40289 0.0
O304 O 0.17922 0.48572 0.38697 0.0
O305 O 0.09743 0.45671 0.42493 0.0
O306 O 0.1482 0.51127 0.44058 0.0
O307 O 0.13752 0.47511 0.28496 0.0
Sc308 Sc 0.51033 0.66771 0.42162 0.0
Sc309 Sc 0.54335 0.65943 0.48873 0.0
Sc310 Sc 0.55351 0.68297 0.35467 0.0
O311 O 0.53575 0.67006 0.42164 0.0
C312 C 0.51485 0.65852 0.29034 0.0
C313 C 0.50054 0.62892 0.47651 0.0
C314 C 0.55908 0.6482 0.38076 0.0
C315 C 0.52408 0.67926 0.55228 0.0
C316 C 0.53454 0.70796 0.3671 0.0
C317 C 0.58113 0.69718 0.46141 0.0
O318 O 0.50515 0.65809 0.33352 0.0
O319 O 0.51668 0.63442 0.49633 0.0
O320 O 0.56132 0.66196 0.35064 0.0
O321 O 0.51336 0.67718 0.51007 0.0
O322 O 0.54759 0.70544 0.34965 0.0
O323 O 0.57093 0.6828 0.49122 0.0
O324 O 0.5206 0.69569 0.39452 0.0
O325 O 0.53593 0.6739 0.55097 0.0
O326 O 0.5764 0.70001 0.41168 0.0
O327 O 0.49649 0.63931 0.44749 0.0
O328 O 0.53246 0.66687 0.29129 0.0
O329 O 0.55191 0.6447 0.43121 0.0
Sc330 Sc 0.34086 0.5 0.91804 0.0
Sc331 Sc 0.32609 0.45629 0.85575 0.0
Sc332 Sc 0.35009 0.46821 0.98923 0.0
O333 O 0.33899 0.47481 0.92101 0.0
C334 C 0.38007 0.51089 0.973 0.0
C335 C 0.35051 0.49448 0.78839 0.0
C336 C 0.36092 0.4511 0.88361 0.0
C337 C 0.30071 0.47486 0.86385 0.0
C338 C 0.32977 0.48763 0.04984 0.0
C339 C 0.31208 0.43027 0.96645 0.0
O340 O 0.36918 0.51454 0.94525 0.0
O341 O 0.34213 0.47686 0.79073 0.0
O342 O 0.36459 0.45888 0.93313 0.0
O343 O 0.31293 0.48922 0.8896 0.0
O344 O 0.33625 0.47668 0.0508 0.0
O345 O 0.30937 0.43404 0.91515 0.0
O346 O 0.33086 0.49725 0.00557 0.0
O347 O 0.30338 0.46173 0.84875 0.0
O348 O 0.32643 0.44087 0.99584 0.0
O349 O 0.35084 0.50452 0.83039 0.0
O350 O 0.37514 0.49484 0.99254 0.0
O351 O 0.34705 0.44852 0.85359 0.0
Sc352 Sc 0.55119 0.87311 0.85436 0.0
Sc353 Sc 0.54062 0.88595 0.98859 0.0
Sc354 Sc 0.50795 0.84469 0.92052 0.0
O355 O 0.53327 0.86791 0.92113 0.0
C356 C 0.51251 0.85897 0.78986 0.0
C357 C 0.55648 0.91326 0.88139 0.0
C358 C 0.4978 0.87338 0.97597 0.0
C359 C 0.57855 0.88626 0.96185 0.0
C360 C 0.53253 0.82916 0.8654 0.0
C361 C 0.5216 0.84662 0.05113 0.0
O362 O 0.53013 0.8682 0.79092 0.0
O363 O 0.54926 0.90941 0.93174 0.0
O364 O 0.49385 0.85891 0.94738 0.0
O365 O 0.57406 0.87899 0.91167 0.0
O366 O 0.51844 0.82725 0.89239 0.0
O367 O 0.53313 0.86392 0.05037 0.0
O368 O 0.54556 0.84484 0.8487 0.0
O369 O 0.56818 0.89019 0.99166 0.0
O370 O 0.51108 0.83795 0.00859 0.0
O371 O 0.55881 0.90187 0.85096 0.0
O372 O 0.50279 0.84951 0.83277 0.0
O373 O 0.51393 0.8842 0.99544 0.0
Sc374 Sc 0.13464 0.68313 0.84533 0.0
Sc375 Sc 0.12192 0.65997 0.98025 0.0
Sc376 Sc 0.16501 0.67206 0.91784 0.0
O377 O 0.1405 0.67171 0.91448 0.0
C378 C 0.15192 0.6605 0.78667 0.0
C379 C 0.09524 0.64699 0.87101 0.0
C380 C 0.13805 0.63246 0.97313 0.0
C381 C 0.11935 0.69622 0.95044 0.0
C382 C 0.17802 0.71131 0.85959 0.0
C383 C 0.16051 0.68261 0.04704 0.0
O384 O 0.1415 0.66761 0.78498 0.0
O385 O 0.09896 0.64413 0.92218 0.0
O386 O 0.15276 0.64409 0.94748 0.0
O387 O 0.12682 0.69919 0.90043 0.0
O388 O 0.18088 0.70019 0.88923 0.0
O389 O 0.14298 0.67531 0.0447 0.0
O390 O 0.16214 0.70703 0.83984 0.0
O391 O 0.11616 0.6823 0.98124 0.0
O392 O 0.17025 0.68224 0.00523 0.0
O393 O 0.10648 0.66075 0.84049 0.0
O394 O 0.16157 0.66162 0.83087 0.0
O395 O 0.12548 0.63606 0.98769 0.0
C396 C 0.0236 0.17389 0.55109 0.0
C397 C 0.02296 0.18979 0.56679 0.0
C398 C 0.03683 0.17505 0.5116 0.0
C399 C 0.07464 0.20753 0.41052 0.0
H400 H 0.09469 0.17577 0.44894 0.0
C401 C 0.14746 0.21823 0.34652 0.0
C402 C 0.14689 0.20271 0.32048 0.0
C403 C 0.13125 0.21714 0.36826 0.0
C404 C 0.08913 0.18464 0.43755 0.0
H405 H 0.03516 0.21927 0.55219 0.0
H406 H 0.05884 0.22156 0.48576 0.0
H407 H 0.06801 0.17243 0.50158 0.0
H408 H 0.12868 0.17406 0.29523 0.0
H409 H 0.10071 0.17215 0.33451 0.0
H410 H 0.09679 0.22036 0.3485 0.0
C411 C 0.04881 0.20802 0.50202 0.0
C412 C 0.07368 0.18263 0.46726 0.0
C413 C 0.03524 0.20674 0.54033 0.0
C414 C 0.12969 0.18631 0.31497 0.0
C415 C 0.11365 0.18515 0.33751 0.0
C416 C 0.09041 0.2098 0.38161 0.0
C417 C 0.05015 0.19227 0.48838 0.0
C418 C 0.06614 0.194 0.45418 0.0
C419 C 0.11434 0.20044 0.36513 0.0
C420 C 0.09771 0.19831 0.39489 0.0
H421 H 0.01416 0.16062 0.57053 0.0
H422 H 0.03694 0.16249 0.50075 0.0
H423 H 0.06915 0.21639 0.39852 0.0
H424 H 0.16045 0.23108 0.35121 0.0
H425 H 0.13207 0.22908 0.38971 0.0
C426 C 0.81087 0.93973 0.30165 0.0
C427 C 0.79886 0.94553 0.32369 0.0
C428 C 0.81084 0.92421 0.32473 0.0
C429 C 0.80243 0.90087 0.46296 0.0
H430 H 0.80865 0.86389 0.37992 0.0
C431 C 0.82993 0.85929 0.57762 0.0
C432 C 0.81827 0.83995 0.5759 0.0
C433 C 0.82734 0.87067 0.53914 0.0
C434 C 0.80685 0.87412 0.40345 0.0
H435 H 0.77646 0.9387 0.38447 0.0
H436 H 0.77654 0.91175 0.42485 0.0
H437 H 0.80245 0.88564 0.32578 0.0
H438 H 0.79572 0.81741 0.52884 0.0
H439 H 0.79141 0.8375 0.46082 0.0
H440 H 0.80722 0.88978 0.54032 0.0
C441 C 0.78608 0.91934 0.39005 0.0
C442 C 0.80336 0.88654 0.37263 0.0
C443 C 0.78601 0.93475 0.36673 0.0
C444 C 0.80491 0.83223 0.53156 0.0
C445 C 0.80242 0.8437 0.49259 0.0
C446 C 0.80616 0.8887 0.49349 0.0
C447 C 0.79888 0.91426 0.37053 0.0
C448 C 0.8012 0.90009 0.40221 0.0
C449 C 0.81316 0.86303 0.49765 0.0
C450 C 0.8086 0.87534 0.46409 0.0
H451 H 0.82084 0.9476 0.26814 0.0
H452 H 0.8209 0.92066 0.309 0.0
H453 H 0.80107 0.9113 0.4869 0.0
H454 H 0.84052 0.86576 0.61061 0.0
H455 H 0.836 0.88555 0.54322 0.0
C456 C 0.17696 0.97126 0.53339 0.0
C457 C 0.16878 0.97788 0.57292 0.0
C458 C 0.16614 0.95801 0.49177 0.0
C459 C 0.12018 0.93597 0.41992 0.0
H460 H 0.1258 0.89261 0.41168 0.0
C461 C 0.07122 0.85418 0.36929 0.0
C462 C 0.0612 0.85528 0.32195 0.0
C463 C 0.08721 0.86995 0.38873 0.0
C464 C 0.12408 0.90464 0.4134 0.0
H465 H 0.143 0.97647 0.59775 0.0
H466 H 0.12426 0.95351 0.52563 0.0
H467 H 0.14823 0.91971 0.46616 0.0
H468 H 0.06098 0.87345 0.25494 0.0
H469 H 0.089 0.90079 0.28812 0.0
H470 H 0.09553 0.92067 0.37011 0.0
C471 C 0.13901 0.95854 0.52644 0.0
C472 C 0.13706 0.92025 0.44403 0.0
C473 C 0.14976 0.97164 0.56813 0.0
C474 C 0.0682 0.87218 0.29217 0.0
C475 C 0.08424 0.88789 0.3113 0.0
C476 C 0.10723 0.9204 0.38942 0.0
C477 C 0.14698 0.9513 0.48853 0.0
C478 C 0.13495 0.9359 0.44889 0.0
C479 C 0.0936 0.88711 0.36095 0.0
C480 C 0.10877 0.90438 0.38692 0.0
H481 H 0.19157 0.97573 0.53606 0.0
H482 H 0.17269 0.95279 0.46281 0.0
H483 H 0.11831 0.9479 0.42228 0.0
H484 H 0.06622 0.84137 0.39319 0.0
H485 H 0.09398 0.86887 0.42739 0.0
C486 C 0.20853 0.03658 0.96489 0.0
C487 C 0.19432 0.03056 0.92326 0.0
C488 C 0.21254 0.05165 0.00095 0.0
C489 C 0.20997 0.09382 0.99639 0.0
H490 H 0.21594 0.09637 0.16345 0.0
C491 C 0.20351 0.13899 0.18718 0.0
C492 C 0.21361 0.15682 0.163 0.0
C493 C 0.2051 0.12433 0.16455 0.0
C494 C 0.21446 0.09587 0.11672 0.0
H495 H 0.17225 0.03471 0.89035 0.0
H496 H 0.1793 0.06083 0.95287 0.0
H497 H 0.20954 0.06804 0.11177 0.0
H498 H 0.23434 0.1735 0.09883 0.0
H499 H 0.23703 0.14781 0.05913 0.0
H500 H 0.2143 0.12126 0.00084 0.0
C501 C 0.18752 0.05413 0.95689 0.0
C502 C 0.21086 0.07973 0.08728 0.0
C503 C 0.18344 0.03909 0.92128 0.0
C504 C 0.22626 0.15991 0.11817 0.0
C505 C 0.22776 0.1452 0.0953 0.0
C506 C 0.21373 0.10995 0.02558 0.0
C507 C 0.20247 0.06094 0.99562 0.0
C508 C 0.20809 0.07843 0.02703 0.0
C509 C 0.21675 0.12715 0.11709 0.0
C510 C 0.2156 0.11102 0.08618 0.0
H511 H 0.21719 0.03034 0.96754 0.0
H512 H 0.2241 0.05664 0.03071 0.0
H513 H 0.20815 0.09325 0.94976 0.0
H514 H 0.19379 0.13615 0.22221 0.0
H515 H 0.19635 0.11058 0.18206 0.0
C516 C 0.85603 0.07573 0.16038 0.0
C517 C 0.85772 0.06052 0.178 0.0
C518 C 0.87154 0.092 0.14091 0.0
C519 C 0.92343 0.11526 0.12907 0.0
H520 H 0.91576 0.13909 0.99612 0.0
C521 C 0.97557 0.15328 0.94392 0.0
C522 C 0.97856 0.17083 0.92809 0.0
C523 C 0.96249 0.14287 0.98629 0.0
C524 C 0.91806 0.13274 0.03381 0.0
H525 H 0.87709 0.05058 0.18971 0.0
H526 H 0.9037 0.07831 0.15359 0.0
H527 H 0.88911 0.11497 0.04762 0.0
H528 H 0.9706 0.19147 0.9451 0.0
H529 H 0.9472 0.17288 0.01794 0.0
H530 H 0.9525 0.1322 0.11169 0.0
C531 C 0.89067 0.07814 0.15654 0.0
C532 C 0.90279 0.11896 0.06364 0.0
C533 C 0.87529 0.06208 0.17691 0.0
C534 C 0.96871 0.17806 0.95692 0.0
C535 C 0.95528 0.16744 0.99827 0.0
C536 C 0.93868 0.12874 0.09835 0.0
C537 C 0.88903 0.0933 0.13763 0.0
C538 C 0.90524 0.10969 0.11091 0.0
C539 C 0.95188 0.14965 0.01251 0.0
C540 C 0.93608 0.13734 0.04991 0.0
H541 H 0.8427 0.07501 0.16122 0.0
H542 H 0.86975 0.10347 0.12782 0.0
H543 H 0.92595 0.10887 0.16617 0.0
H544 H 0.98296 0.14739 0.92229 0.0
H545 H 0.95997 0.12911 0.99634 0.0
C546 C 0.84898 0.82819 0.9619 0.0
C547 C 0.83424 0.8123 0.93723 0.0
C548 C 0.86033 0.82663 0.00331 0.0
C549 C 0.86693 0.79245 0.09191 0.0
H550 H 0.91859 0.82979 0.07304 0.0
C551 C 0.93162 0.78631 0.15559 0.0
C552 C 0.94556 0.80155 0.18596 0.0
C553 C 0.91594 0.78662 0.13536 0.0
C554 C 0.90419 0.81936 0.07918 0.0
H555 H 0.81924 0.78234 0.93764 0.0
H556 H 0.83961 0.77951 0.00743 0.0
H557 H 0.89515 0.83263 0.01952 0.0
H558 H 0.95339 0.82864 0.22143 0.0
H559 H 0.92633 0.82923 0.18497 0.0
H560 H 0.87656 0.77871 0.1492 0.0
C561 C 0.84214 0.79322 0.99681 0.0
C562 C 0.89066 0.82104 0.04891 0.0
C563 C 0.83045 0.7948 0.95661 0.0
C564 C 0.94303 0.81668 0.19798 0.0
C565 C 0.92754 0.81707 0.17711 0.0
C566 C 0.8806 0.79059 0.12138 0.0
C567 C 0.85762 0.80914 0.01932 0.0
C568 C 0.87179 0.80764 0.05476 0.0
C569 C 0.91409 0.80225 0.14454 0.0
C570 C 0.89933 0.80408 0.11523 0.0
H571 H 0.85204 0.84183 0.94786 0.0
H572 H 0.87164 0.83922 0.02112 0.0
H573 H 0.85258 0.78196 0.09822 0.0
H574 H 0.93307 0.7744 0.1459 0.0
H575 H 0.90575 0.77506 0.11006 0.0
C576 C 0.85881 0.78713 0.65434 0.0
C577 C 0.86049 0.80236 0.68573 0.0
C578 C 0.87461 0.78717 0.63359 0.0
C579 C 0.91831 0.81896 0.57447 0.0
H580 H 0.9345 0.78335 0.60047 0.0
C581 C 0.98248 0.82804 0.45688 0.0
C582 C 0.98182 0.81199 0.43558 0.0
C583 C 0.96959 0.82677 0.49788 0.0
C584 C 0.93007 0.79331 0.59215 0.0
H585 H 0.88021 0.82908 0.72261 0.0
H586 H 0.90751 0.82922 0.68503 0.0
H587 H 0.90727 0.77998 0.65178 0.0
H588 H 0.96769 0.78208 0.4417 0.0
H589 H 0.94457 0.77972 0.51066 0.0
H590 H 0.94003 0.83176 0.51261 0.0
C591 C 0.894 0.81727 0.67695 0.0
C592 C 0.91455 0.79139 0.6218 0.0
C593 C 0.87832 0.81714 0.69838 0.0
C594 C 0.9686 0.7947 0.45793 0.0
C595 C 0.95535 0.79338 0.49771 0.0
C596 C 0.9335 0.82067 0.54398 0.0
C597 C 0.89225 0.80251 0.64333 0.0
C598 C 0.90863 0.80425 0.61317 0.0
C599 C 0.95532 0.80938 0.51695 0.0
C600 C 0.93967 0.80791 0.55235 0.0
H601 H 0.84531 0.77549 0.64413 0.0
H602 H 0.87301 0.77568 0.60742 0.0
H603 H 0.9138 0.82891 0.56669 0.0
H604 H 0.99268 0.84154 0.44064 0.0
H605 H 0.97049 0.83947 0.51311 0.0
C606 C 0.19114 0.06263 0.67384 0.0
C607 C 0.20609 0.05947 0.66624 0.0
C608 C 0.19163 0.0782 0.65001 0.0
C609 C 0.21614 0.12428 0.60375 0.0
H610 H 0.18297 0.10972 0.47171 0.0
C611 C 0.21205 0.17662 0.44645 0.0
C612 C 0.19503 0.17101 0.41898 0.0
C613 C 0.2141 0.16449 0.48359 0.0
C614 C 0.19204 0.11406 0.50907 0.0
H615 H 0.23378 0.07093 0.63064 0.0
H616 H 0.2346 0.09847 0.5892 0.0
H617 H 0.18637 0.08642 0.52479 0.0
H618 H 0.16644 0.14918 0.41234 0.0
H619 H 0.16963 0.12845 0.47951 0.0
H620 H 0.22139 0.15188 0.58936 0.0
C621 C 0.22255 0.08865 0.61359 0.0
C622 C 0.19414 0.10072 0.53887 0.0
C623 C 0.22201 0.07288 0.63701 0.0
C624 C 0.17976 0.15371 0.43254 0.0
C625 C 0.18168 0.14179 0.47052 0.0
C626 C 0.21385 0.1377 0.57432 0.0
C627 C 0.20716 0.0911 0.61888 0.0
C628 C 0.20612 0.10571 0.5864 0.0
C629 C 0.19905 0.14668 0.49452 0.0
C630 C 0.20163 0.13269 0.52683 0.0
H631 H 0.17868 0.05271 0.69631 0.0
H632 H 0.17962 0.07988 0.65426 0.0
H633 H 0.22537 0.1283 0.64071 0.0
H634 H 0.22409 0.18987 0.43626 0.0
H635 H 0.22769 0.16872 0.50103 0.0
C636 C 0.82696 0.03182 0.47063 0.0
C637 C 0.8352 0.02528 0.43098 0.0
C638 C 0.83772 0.04501 0.51236 0.0
C639 C 0.86658 0.08305 0.55761 0.0
H640 H 0.90828 0.08352 0.63345 0.0
C641 C 0.93239 0.14977 0.62856 0.0
C642 C 0.94232 0.149 0.67665 0.0
C643 C 0.91636 0.13387 0.61001 0.0
C644 C 0.89653 0.08353 0.61356 0.0
H645 H 0.86097 0.0266 0.40665 0.0
H646 H 0.87963 0.0495 0.47914 0.0
H647 H 0.88566 0.05583 0.58266 0.0
H648 H 0.94233 0.13143 0.7461 0.0
H649 H 0.91426 0.10389 0.71442 0.0
H650 H 0.87766 0.1109 0.58779 0.0
C651 C 0.86488 0.04445 0.47814 0.0
C652 C 0.88367 0.0677 0.58391 0.0
C653 C 0.85418 0.03138 0.43628 0.0
C654 C 0.93518 0.1324 0.70821 0.0
C655 C 0.91912 0.11659 0.68998 0.0
C656 C 0.87947 0.09891 0.58732 0.0
C657 C 0.85687 0.05177 0.51562 0.0
C658 C 0.86883 0.06745 0.55434 0.0
C659 C 0.90989 0.11696 0.6395 0.0
C660 C 0.89483 0.09948 0.61447 0.0
H661 H 0.81238 0.02742 0.4678 0.0
H662 H 0.83114 0.05025 0.54113 0.0
H663 H 0.85536 0.08333 0.5349 0.0
H664 H 0.93753 0.16235 0.60335 0.0
H665 H 0.90965 0.13461 0.57071 0.0
C666 C 0.79425 0.96834 0.04765 0.0
C667 C 0.81165 0.98158 0.06907 0.0
C668 C 0.79271 0.95483 0.00858 0.0
C669 C 0.81965 0.93238 0.96588 0.0
H670 H 0.77935 0.90575 0.85721 0.0
C671 C 0.81735 0.87732 0.81492 0.0
C672 C 0.80243 0.85944 0.82601 0.0
C673 C 0.81721 0.89288 0.83597 0.0
C674 C 0.79062 0.91313 0.88752 0.0
H675 H 0.84117 0.99233 0.06302 0.0
H676 H 0.83872 0.9697 0.99171 0.0
H677 H 0.78257 0.93323 0.90667 0.0
H678 H 0.77508 0.84404 0.86456 0.0
H679 H 0.77484 0.87157 0.90094 0.0
H680 H 0.82791 0.91256 0.94558 0.0
C681 C 0.82611 0.96897 0.00711 0.0
C682 C 0.79248 0.9288 0.91601 0.0
C683 C 0.82759 0.98211 0.04738 0.0
C684 C 0.78684 0.85759 0.85564 0.0
C685 C 0.78663 0.87329 0.87614 0.0
C686 C 0.818 0.91704 0.93668 0.0
C687 C 0.80862 0.9546 0.98936 0.0
C688 C 0.80701 0.9386 0.95579 0.0
C689 C 0.80206 0.89097 0.86781 0.0
C690 C 0.80347 0.90726 0.89753 0.0
H691 H 0.78174 0.96759 0.06431 0.0
H692 H 0.779 0.94398 0.99638 0.0
H693 H 0.83065 0.93906 0.99746 0.0
H694 H 0.82955 0.87935 0.79192 0.0
H695 H 0.82922 0.90643 0.82893 0.0
C696 C 0.13036 0.94538 0.82731 0.0
C697 C 0.14816 0.94763 0.83382 0.0
C698 C 0.1149 0.92992 0.84998 0.0
C699 C 0.09377 0.88261 0.89505 0.0
H700 H 0.07 0.89637 0.01384 0.0
C701 C 0.03705 0.8297 0.04958 0.0
C702 C 0.02439 0.83433 0.07328 0.0
C703 C 0.05103 0.84199 0.01224 0.0
C704 C 0.07612 0.8922 0.9799 0.0
H705 H 0.16343 0.93475 0.86646 0.0
H706 H 0.13602 0.90735 0.90559 0.0
H707 H 0.09693 0.92027 0.96352 0.0
H708 H 0.01519 0.85441 0.07271 0.0
H709 H 0.03873 0.87528 0.00468 0.0
H710 H 0.07264 0.85451 0.91014 0.0
C711 C 0.13432 0.9178 0.8831 0.0
C712 C 0.0917 0.90594 0.95164 0.0
C713 C 0.14995 0.9335 0.86102 0.0
C714 C 0.02493 0.85064 0.05537 0.0
C715 C 0.03858 0.86268 0.01697 0.0
C716 C 0.07789 0.86878 0.9227 0.0
C717 C 0.11678 0.91619 0.87889 0.0
C718 C 0.10063 0.90127 0.90907 0.0
C719 C 0.05236 0.85896 0.99713 0.0
C720 C 0.06883 0.87343 0.96546 0.0
H721 H 0.12837 0.95589 0.80648 0.0
H722 H 0.10146 0.92888 0.84617 0.0
H723 H 0.10047 0.87878 0.86201 0.0
H724 H 0.03701 0.81725 0.06322 0.0
H725 H 0.06139 0.83864 0.99821 0.0
C726 C 0.0723 0.2187 0.84216 0.0
C727 C 0.05778 0.2028 0.8161 0.0
C728 C 0.08808 0.2186 0.86242 0.0
C729 C 0.09979 0.18703 0.92764 0.0
H730 H 0.1513 0.22234 0.89565 0.0
C731 C 0.15612 0.17962 0.04331 0.0
C732 C 0.17155 0.19595 0.06288 0.0
C733 C 0.14411 0.18035 0.00267 0.0
C734 C 0.137 0.21246 0.90556 0.0
H735 H 0.04902 0.1747 0.78814 0.0
H736 H 0.07625 0.17454 0.82465 0.0
H737 H 0.12691 0.22492 0.8448 0.0
H738 H 0.18704 0.2258 0.05401 0.0
H739 H 0.16561 0.22724 0.98554 0.0
H740 H 0.10937 0.17511 0.99051 0.0
C741 C 0.0754 0.18702 0.82915 0.0
C742 C 0.12309 0.21394 0.87621 0.0
C743 C 0.05981 0.18717 0.8083 0.0
C744 C 0.17528 0.21298 0.03919 0.0
C745 C 0.16299 0.21377 -0.00031 0.0
C746 C 0.11358 0.18576 0.95772 0.0
C747 C 0.08945 0.20256 0.85751 0.0
C748 C 0.1044 0.20119 0.88706 0.0
C749 C 0.14693 0.19749 0.98219 0.0
C750 C 0.1324 0.19843 0.94717 0.0
H751 H 0.07123 0.231 0.8485 0.0
H752 H 0.09877 0.23072 0.88445 0.0
H753 H 0.08542 0.17719 0.93727 0.0
H754 H 0.15309 0.16631 0.06053 0.0
H755 H 0.13227 0.16746 0.98878 0.0
C756 C 0.79451 0.51734 0.64142 0.0
C757 C 0.81188 0.53339 0.64918 0.0
C758 C 0.77846 0.51644 0.66278 0.0
C759 C 0.75584 0.54157 0.70881 0.0
H760 H 0.73241 0.50332 0.82575 0.0
C761 C 0.70162 0.53908 0.87032 0.0
C762 C 0.68916 0.52212 0.89634 0.0
C763 C 0.71482 0.54015 0.83078 0.0
C764 C 0.73836 0.51377 0.79222 0.0
H765 H 0.82574 0.5615 0.68234 0.0
H766 H 0.79737 0.55994 0.71885 0.0
H767 H 0.75891 0.50638 0.7728 0.0
H768 H 0.67953 0.49276 0.89794 0.0
H769 H 0.7016 0.49429 0.82592 0.0
H770 H 0.73505 0.54874 0.72695 0.0
C771 C 0.79642 0.54808 0.69655 0.0
C772 C 0.75371 0.51561 0.76233 0.0
C773 C 0.81262 0.54891 0.67594 0.0
C774 C 0.68913 0.50603 0.87883 0.0
C775 C 0.70197 0.507 0.83808 0.0
C776 C 0.74016 0.53948 0.73789 0.0
C777 C 0.77932 0.53165 0.69146 0.0
C778 C 0.76268 0.52961 0.72086 0.0
C779 C 0.71556 0.52419 0.81546 0.0
C780 C 0.73131 0.52565 0.78053 0.0
H781 H 0.79335 0.50512 0.62095 0.0
H782 H 0.76538 0.50366 0.65825 0.0
H783 H 0.76254 0.5524 0.67665 0.0
H784 H 0.70204 0.55175 0.88358 0.0
H785 H 0.72507 0.55368 0.81501 0.0
C786 C 0.46896 0.16453 0.8521 0.0
C787 C 0.48328 0.17261 0.89331 0.0
C788 C 0.46725 0.1754 0.80894 0.0
C789 C 0.49196 0.22194 0.73929 0.0
H790 H 0.44278 0.21554 0.72498 0.0
C791 C 0.458 0.2701 0.68997 0.0
C792 C 0.46983 0.28124 0.64544 0.0
C793 C 0.45807 0.2541 0.70759 0.0
C794 C 0.4566 0.21751 0.72842 0.0
H795 H 0.50771 0.19822 0.91903 0.0
H796 H 0.50463 0.21704 0.84469 0.0
H797 H 0.44712 0.19283 0.77869 0.0
H798 H 0.48997 0.28354 0.58148 0.0
H799 H 0.48976 0.25544 0.61131 0.0
H800 H 0.50166 0.2472 0.69246 0.0
C801 C 0.49476 0.20233 0.8452 0.0
C802 C 0.45906 0.20435 0.75856 0.0
C803 C 0.49644 0.19153 0.88826 0.0
C804 C 0.48089 0.27542 0.61657 0.0
C805 C 0.48083 0.25934 0.63382 0.0
C806 C 0.48953 0.23513 0.70947 0.0
C807 C 0.47989 0.19452 0.80593 0.0
C808 C 0.47685 0.20671 0.76581 0.0
C809 C 0.46984 0.24878 0.68071 0.0
C810 C 0.47189 0.23336 0.70502 0.0
H811 H 0.45858 0.15 0.85465 0.0
H812 H 0.45577 0.16892 0.77886 0.0
H813 H 0.50581 0.22403 0.7433 0.0
H814 H 0.44932 0.27418 0.71317 0.0
H815 H 0.44957 0.24644 0.74426 0.0
C816 C 0.84298 0.30486 0.87057 0.0
C817 C 0.83634 0.31482 0.90186 0.0
C818 C 0.83177 0.2917 0.82946 0.0
C819 C 0.7915 0.27569 0.73546 0.0
H820 H 0.78007 0.22609 0.77776 0.0
C821 C 0.7254 0.2114 0.65637 0.0
C822 C 0.7248 0.19432 0.65176 0.0
C823 C 0.74124 0.22701 0.67694 0.0
C824 C 0.78337 0.23981 0.76404 0.0
H825 H 0.81328 0.31968 0.91206 0.0
H826 H 0.7939 0.29704 0.83874 0.0
H827 H 0.8043 0.25255 0.82931 0.0
H828 H 0.74069 0.18043 0.66207 0.0
H829 H 0.76872 0.20789 0.69551 0.0
H830 H 0.7708 0.26315 0.66978 0.0
C831 C 0.80769 0.29931 0.84664 0.0
C832 C 0.79722 0.25498 0.79395 0.0
C833 C 0.81873 0.31219 0.88866 0.0
C834 C 0.74068 0.19337 0.66576 0.0
C835 C 0.75671 0.20911 0.6853 0.0
C836 C 0.7779 0.26055 0.70462 0.0
C837 C 0.81391 0.28859 0.81799 0.0
C838 C 0.80107 0.27298 0.78086 0.0
C839 C 0.75707 0.22607 0.69243 0.0
C840 C 0.77326 0.24234 0.71961 0.0
H841 H 0.85643 0.30648 0.88009 0.0
H842 H 0.83683 0.28358 0.8078 0.0
H843 H 0.79436 0.2895 0.72441 0.0
H844 H 0.71334 0.21259 0.64638 0.0
H845 H 0.74072 0.23961 0.68281 0.0
C846 C 0.88775 0.4848 0.45978 0.0
C847 C 0.87734 0.48394 0.50874 0.0
C848 C 0.8882 0.46905 0.44131 0.0
C849 C 0.85848 0.41864 0.44775 0.0
H850 H 0.89877 0.4188 0.36352 0.0
C851 C 0.87494 0.36672 0.30079 0.0
C852 C 0.85977 0.36017 0.26268 0.0
C853 C 0.87791 0.38011 0.34251 0.0
C854 C 0.88748 0.41844 0.3878 0.0
H855 H 0.86075 0.46651 0.57992 0.0
H856 H 0.86188 0.43927 0.54848 0.0
H857 H 0.90429 0.44647 0.41652 0.0
H858 H 0.83527 0.36169 0.24078 0.0
H859 H 0.84038 0.38484 0.31346 0.0
H860 H 0.84159 0.3908 0.41817 0.0
C861 C 0.8692 0.45187 0.52324 0.0
C862 C 0.89059 0.43435 0.41759 0.0
C863 C 0.8686 0.4675 0.54133 0.0
C864 C 0.84712 0.36649 0.26932 0.0
C865 C 0.84999 0.37969 0.31125 0.0
C866 C 0.85538 0.40279 0.41801 0.0
C867 C 0.87839 0.45223 0.47179 0.0
C868 C 0.876 0.43476 0.44674 0.0
C869 C 0.86565 0.38698 0.34734 0.0
C870 C 0.86971 0.40268 0.38641 0.0
H871 H 0.89463 0.49727 0.43382 0.0
H872 H 0.89533 0.46979 0.40128 0.0
H873 H 0.84686 0.4185 0.46918 0.0
H874 H 0.88499 0.36218 0.29663 0.0
H875 H 0.89001 0.38538 0.3701 0.0
C876 C 0.52632 0.40887 0.47084 0.0
C877 C 0.52709 0.39834 0.51722 0.0
C878 C 0.54231 0.42482 0.45234 0.0
C879 C 0.5774 0.4613 0.42848 0.0
H880 H 0.62013 0.45466 0.41902 0.0
C881 C 0.6432 0.51258 0.30237 0.0
C882 C 0.64917 0.50383 0.26276 0.0
C883 C 0.63052 0.50233 0.3461 0.0
C884 C 0.60836 0.45678 0.42157 0.0
H885 H 0.54492 0.39719 0.58366 0.0
H886 H 0.57264 0.4252 0.55228 0.0
H887 H 0.5928 0.43221 0.4715 0.0
H888 H 0.64741 0.47774 0.24034 0.0
H889 H 0.62543 0.45999 0.31596 0.0
H890 H 0.59267 0.48529 0.37524 0.0
C891 C 0.55983 0.42084 0.52901 0.0
C892 C 0.59272 0.44402 0.45228 0.0
C893 C 0.54391 0.40481 0.54714 0.0
C894 C 0.64304 0.4849 0.26992 0.0
C895 C 0.63051 0.47473 0.31366 0.0
C896 C 0.59306 0.47407 0.39754 0.0
C897 C 0.55938 0.4307 0.48017 0.0
C898 C 0.57684 0.44582 0.4548 0.0
C899 C 0.62373 0.4832 0.35137 0.0
C900 C 0.6085 0.47162 0.39229 0.0
H901 H 0.51359 0.40427 0.44683 0.0
H902 H 0.54144 0.43194 0.41424 0.0
H903 H 0.56552 0.46327 0.43031 0.0
H904 H 0.64762 0.52714 0.29795 0.0
H905 H 0.62568 0.50927 0.37487 0.0
C906 C 0.60339 0.14166 0.5268 0.0
C907 C 0.60998 0.13029 0.50483 0.0
C908 C 0.58736 0.14062 0.50424 0.0
C909 C 0.5494 0.13189 0.45718 0.0
H910 H 0.55261 0.13595 0.28954 0.0
C911 C 0.49643 0.13606 0.29719 0.0
C912 C 0.50495 0.15019 0.25542 0.0
C913 C 0.50721 0.13244 0.33587 0.0
C914 C 0.55148 0.13473 0.33635 0.0
H915 H 0.60411 0.10798 0.44482 0.0
H916 H 0.57619 0.10632 0.40515 0.0
H917 H 0.5741 0.12966 0.34255 0.0
H918 H 0.5314 0.17263 0.22525 0.0
H919 H 0.54997 0.16618 0.29204 0.0
H920 H 0.52689 0.1374 0.45028 0.0
C921 C 0.58355 0.1161 0.4396 0.0
C922 C 0.56364 0.13093 0.36665 0.0
C923 C 0.59951 0.11703 0.46246 0.0
C924 C 0.52434 0.16147 0.25615 0.0
C925 C 0.53502 0.15777 0.29429 0.0
C926 C 0.537 0.13546 0.42659 0.0
C927 C 0.57765 0.12829 0.459 0.0
C928 C 0.56299 0.12982 0.42744 0.0
C929 C 0.52661 0.14284 0.333 0.0
C930 C 0.53829 0.13736 0.36602 0.0
H931 H 0.61101 0.15189 0.55989 0.0
H932 H 0.58321 0.15026 0.51984 0.0
H933 H 0.54858 0.13105 0.50405 0.0
H934 H 0.48153 0.12712 0.29786 0.0
H935 H 0.50044 0.12089 0.3656 0.0
C936 C 0.52268 0.12215 0.96157 0.0
C937 C 0.52368 0.1333 0.00859 0.0
C938 C 0.53843 0.12162 0.94364 0.0
C939 C 0.58882 0.15178 0.94605 0.0
H940 H 0.58839 0.11036 0.86849 0.0
C941 C 0.6397 0.13351 0.80034 0.0
C942 C 0.64578 0.14809 0.76008 0.0
C943 C 0.62673 0.1311 0.84294 0.0
C944 C 0.58885 0.12198 0.89094 0.0
H945 H 0.54143 0.15124 0.07705 0.0
H946 H 0.5687 0.14999 0.04656 0.0
H947 H 0.56109 0.10548 0.92241 0.0
H948 H 0.64385 0.17214 0.7351 0.0
H949 H 0.62139 0.16797 0.80913 0.0
H950 H 0.61638 0.16835 0.91372 0.0
C951 C 0.55597 0.14212 0.02237 0.0
C952 C 0.57314 0.11923 0.92123 0.0
C953 C 0.54032 0.14279 0.03991 0.0
C954 C 0.6394 0.16074 0.76528 0.0
C955 C 0.6266 0.15842 0.80802 0.0
C956 C 0.60447 0.15452 0.91584 0.0
C957 C 0.55541 0.1321 0.97275 0.0
C958 C 0.57278 0.13421 0.94783 0.0
C959 C 0.6198 0.14334 0.84644 0.0
C960 C 0.60446 0.13978 0.88652 0.0
H961 H 0.51005 0.11467 0.93663 0.0
H962 H 0.53753 0.11385 0.90498 0.0
H963 H 0.58901 0.16369 0.96548 0.0
H964 H 0.64431 0.12349 0.79735 0.0
H965 H 0.62182 0.11944 0.87229 0.0
C966 C 0.89047 0.40661 0.96988 0.0
C967 C 0.87633 0.39558 0.00926 0.0
C968 C 0.8919 0.42288 0.9479 0.0
C969 C 0.87849 0.4434 0.87251 0.0
H970 H 0.86933 0.47866 0.95452 0.0
C971 C 0.84819 0.48198 0.757 0.0
C972 C 0.85918 0.50139 0.75726 0.0
C973 C 0.85165 0.47134 0.79599 0.0
C974 C 0.87205 0.46898 0.93134 0.0
H975 H 0.85363 0.39389 0.06027 0.0
H976 H 0.85608 0.42216 0.02146 0.0
H977 H 0.87517 0.45682 0.00957 0.0
H978 H 0.88143 0.52487 0.80216 0.0
H979 H 0.88725 0.50601 0.87131 0.0
H980 H 0.87473 0.45498 0.79453 0.0
C981 C 0.86605 0.41823 0.00763 0.0
C982 C 0.87533 0.45651 0.96263 0.0
C983 C 0.86455 0.40192 0.02941 0.0
C984 C 0.87275 0.50995 0.80065 0.0
C985 C 0.87611 0.49921 0.84018 0.0
C986 C 0.87501 0.45564 0.84148 0.0
C987 C 0.8793 0.4285 0.96512 0.0
C988 C 0.8783 0.44341 0.93339 0.0
C989 C 0.86604 0.47983 0.8365 0.0
C990 C 0.87139 0.46826 0.87055 0.0
H991 H 0.89991 0.40226 0.95386 0.0
H992 H 0.90241 0.43068 0.91566 0.0
H993 H 0.88048 0.43334 0.84872 0.0
H994 H 0.83746 0.47489 0.72481 0.0
H995 H 0.84352 0.45638 0.79307 0.0
C996 C 0.60297 0.4655 0.04697 0.0
C997 C 0.60993 0.48204 0.01518 0.0
C998 C 0.58676 0.44968 0.02965 0.0
C999 C 0.54672 0.43185 0.92807 0.0
H1000 H 0.55331 0.38903 0.92175 0.0
C1001 C 0.49536 0.36553 0.80571 0.0
C1002 C 0.50405 0.35957 0.76581 0.0
C1003 C 0.50568 0.3783 0.849 0.0
C1004 C 0.5512 0.40082 0.92351 0.0
H1005 H 0.60467 0.49531 0.94266 0.0
H1006 H 0.57658 0.46757 0.9115 0.0
H1007 H 0.5757 0.41658 0.97355 0.0
H1008 H 0.53013 0.36139 0.74263 0.0
H1009 H 0.54803 0.38356 0.81777 0.0
H1010 H 0.52278 0.41636 0.87489 0.0
C1011 C 0.5835 0.46686 0.95032 0.0
C1012 C 0.56392 0.41657 0.95377 0.0
C1013 C 0.59967 0.48277 0.968 0.0
C1014 C 0.52301 0.36575 0.77242 0.0
C1015 C 0.53326 0.37839 0.81581 0.0
C1016 C 0.53398 0.41606 0.89772 0.0
C1017 C 0.57722 0.44998 0.97983 0.0
C1018 C 0.56212 0.43246 0.9551 0.0
C1019 C 0.52483 0.38519 0.85357 0.0
C1020 C 0.53641 0.40059 0.89371 0.0
H1021 H 0.61039 0.46458 0.0842 0.0
H1022 H 0.58206 0.43702 0.05412 0.0
H1023 H 0.54482 0.44377 0.9289 0.0
H1024 H 0.48077 0.36105 0.80186 0.0
H1025 H 0.49878 0.38316 0.87791 0.0
C1026 C 0.45702 0.19654 0.17501 0.0
C1027 C 0.47252 0.19749 0.14743 0.0
C1028 C 0.45775 0.21264 0.19613 0.0
C1029 C 0.49023 0.25519 0.26206 0.0
H1030 H 0.45693 0.27387 0.22988 0.0
C1031 C 0.50039 0.31959 0.38063 0.0
C1032 C 0.4844 0.31956 0.39935 0.0
C1033 C 0.49919 0.30677 0.33944 0.0
C1034 C 0.46624 0.26874 0.23992 0.0
H1035 H 0.5006 0.21628 0.11794 0.0
H1036 H 0.50188 0.24405 0.15609 0.0
H1037 H 0.45313 0.24653 0.17824 0.0
H1038 H 0.45471 0.30671 0.38838 0.0
H1039 H 0.45239 0.28371 0.31899 0.0
H1040 H 0.50273 0.27631 0.32585 0.0
C1041 C 0.4892 0.2309 0.16094 0.0
C1042 C 0.46407 0.25315 0.21009 0.0
C1043 C 0.4884 0.21495 0.13913 0.0
C1044 C 0.46729 0.30712 0.37417 0.0
C1045 C 0.466 0.29394 0.33417 0.0
C1046 C 0.49216 0.27044 0.29268 0.0
C1047 C 0.47405 0.22983 0.19065 0.0
C1048 C 0.4761 0.24633 0.22095 0.0
C1049 C 0.48187 0.29321 0.31759 0.0
C1050 C 0.48023 0.27751 0.28208 0.0
H1051 H 0.44455 0.18335 0.18183 0.0
H1052 H 0.44593 0.21154 0.21922 0.0
H1053 H 0.49952 0.24998 0.27163 0.0
H1054 H 0.51377 0.32918 0.39909 0.0
H1055 H 0.51183 0.30715 0.3263 0.0
C1056 C 0.79512 0.27983 0.15822 0.0
C1057 C 0.81232 0.28062 0.15476 0.0
C1058 C 0.77946 0.26385 0.17769 0.0
C1059 C 0.7663 0.22158 0.2641 0.0
H1060 H 0.71686 0.21034 0.21996 0.0
C1061 C 0.70063 0.16218 0.36857 0.0
C1062 C 0.69063 0.16901 0.39869 0.0
C1063 C 0.71395 0.17319 0.32755 0.0
C1064 C 0.7306 0.21326 0.23222 0.0
H1065 H 0.82638 0.26493 0.16621 0.0
H1066 H 0.79883 0.23667 0.19795 0.0
H1067 H 0.74359 0.23403 0.16695 0.0
H1068 H 0.68582 0.19215 0.40677 0.0
H1069 H 0.70874 0.21118 0.33359 0.0
H1070 H 0.75311 0.20062 0.32908 0.0
C1071 C 0.79756 0.24863 0.18753 0.0
C1072 C 0.74594 0.22692 0.20233 0.0
C1073 C 0.81335 0.2648 0.16902 0.0
C1074 C 0.69335 0.18656 0.38428 0.0
C1075 C 0.70638 0.1974 0.34233 0.0
C1076 C 0.75093 0.20766 0.29309 0.0
C1077 C 0.78046 0.24807 0.19325 0.0
C1078 C 0.76405 0.23169 0.21908 0.0
C1079 C 0.71717 0.19102 0.31499 0.0
C1080 C 0.73301 0.20374 0.27841 0.0
H1081 H 0.79386 0.29183 0.148 0.0
H1082 H 0.76674 0.26421 0.18259 0.0
H1083 H 0.77993 0.22497 0.27907 0.0
H1084 H 0.69894 0.14876 0.37907 0.0
H1085 H 0.72214 0.16802 0.3069 0.0
C1086 C 0.84193 0.54139 0.37121 0.0
C1087 C 0.83759 0.52432 0.39603 0.0
C1088 C 0.82997 0.54247 0.33099 0.0
C1089 C 0.7805 0.51554 0.28782 0.0
H1090 H 0.79528 0.55478 0.17426 0.0
C1091 C 0.72812 0.5188 0.13606 0.0
C1092 C 0.72657 0.5347 0.14407 0.0
C1093 C 0.74341 0.51812 0.15723 0.0
C1094 C 0.79104 0.54377 0.20583 0.0
H1095 H 0.81834 0.49483 0.39493 0.0
H1096 H 0.79811 0.49643 0.32188 0.0
H1097 H 0.81899 0.55137 0.22633 0.0
H1098 H 0.74062 0.56284 0.17702 0.0
H1099 H 0.76763 0.56165 0.21333 0.0
H1100 H 0.7526 0.50775 0.26621 0.0
C1101 C 0.81017 0.50918 0.33544 0.0
C1102 C 0.80457 0.54183 0.23592 0.0
C1103 C 0.82186 0.50818 0.37682 0.0
C1104 C 0.74131 0.55035 0.17046 0.0
C1105 C 0.7568 0.54972 0.19097 0.0
C1106 C 0.76707 0.51725 0.25696 0.0
C1107 C 0.81362 0.52642 0.31381 0.0
C1108 C 0.79946 0.52778 0.27785 0.0
C1109 C 0.75765 0.53339 0.18604 0.0
C1110 C 0.77221 0.53145 0.21617 0.0
H1111 H 0.85392 0.55408 0.38575 0.0
H1112 H 0.83309 0.55603 0.31603 0.0
H1113 H 0.77588 0.5049 0.32078 0.0
H1114 H 0.71713 0.5065 0.1157 0.0
H1115 H 0.74386 0.50542 0.1527 0.0
C1116 C 0.36608 0.84982 0.22662 0.0
C1117 C 0.36058 0.86303 0.23537 0.0
C1118 C 0.37887 0.85238 0.18361 0.0
C1119 C 0.40159 0.85748 0.07639 0.0
H1120 H 0.44634 0.90553 0.07954 0.0
C1121 C 0.46619 0.86846 0.95655 0.0
C1122 C 0.48254 0.87694 0.98962 0.0
C1123 C 0.45073 0.86956 0.97369 0.0
C1124 C 0.43392 0.89206 0.078 0.0
H1125 H 0.36354 0.8889 0.20392 0.0
H1126 H 0.38604 0.89338 0.12842 0.0
H1127 H 0.41896 0.90087 0.13236 0.0
H1128 H 0.49586 0.89419 0.06459 0.0
H1129 H 0.46869 0.89568 0.09558 0.0
H1130 H 0.41673 0.84827 0.02529 0.0
C1131 C 0.38045 0.88108 0.15525 0.0
C1132 C 0.41816 0.88945 0.10765 0.0
C1133 C 0.36747 0.87843 0.19814 0.0
C1134 C 0.48346 0.8875 0.03826 0.0
C1135 C 0.46789 0.88842 0.0558 0.0
C1136 C 0.4173 0.86007 0.0469 0.0
C1137 C 0.38657 0.86826 0.14842 0.0
C1138 C 0.40202 0.87196 0.10863 0.0
C1139 C 0.45117 0.87897 0.02469 0.0
C1140 C 0.43383 0.87724 0.04869 0.0
H1141 H 0.36098 0.83776 0.25439 0.0
H1142 H 0.38344 0.84233 0.17995 0.0
H1143 H 0.38928 0.84391 0.07579 0.0
H1144 H 0.46515 0.86051 0.91819 0.0
H1145 H 0.43822 0.86249 0.94796 0.0
C1146 C 0.1602 0.52017 0.21777 0.0
C1147 C 0.14557 0.50265 0.23349 0.0
C1148 C 0.15751 0.53077 0.17615 0.0
C1149 C 0.12341 0.54145 0.13081 0.0
H1150 H 0.15486 0.56524 0.99781 0.0
C1151 C 0.11922 0.59938 0.0068 0.0
C1152 C 0.13628 0.61448 0.98968 0.0
C1153 C 0.11814 0.5829 0.02559 0.0
C1154 C 0.14603 0.55886 0.03508 0.0
H1155 H 0.11683 0.48225 0.21703 0.0
H1156 H 0.11202 0.50117 0.14555 0.0
H1157 H 0.15787 0.54159 0.05112 0.0
H1158 H 0.16553 0.624 0.97824 0.0
H1159 H 0.16384 0.59592 0.01302 0.0
H1160 H 0.11252 0.55953 0.11826 0.0
C1161 C 0.12559 0.50645 0.16475 0.0
C1162 C 0.14768 0.54521 0.06514 0.0
C1163 C 0.1284 0.49564 0.20533 0.0
C1164 C 0.15211 0.61262 0.99067 0.0
C1165 C 0.1511 0.59634 0.01024 0.0
C1166 C 0.12203 0.55539 0.10161 0.0
C1167 C 0.14005 0.5242 0.15059 0.0
C1168 C 0.13662 0.53667 0.11385 0.0
C1169 C 0.13415 0.58128 0.0285 0.0
C1170 C 0.13367 0.56463 0.05421 0.0
H1171 H 0.17356 0.52588 0.23883 0.0
H1172 H 0.16882 0.5445 0.16612 0.0
H1173 H 0.11485 0.53512 0.16869 0.0
H1174 H 0.10674 0.60033 0.00606 0.0
H1175 H 0.10478 0.57151 0.03836 0.0
C1176 C 0.40895 0.52544 0.03333 0.0
C1177 C 0.39881 0.5264 0.98614 0.0
C1178 C 0.42526 0.54116 0.05109 0.0
C1179 C 0.44573 0.59156 0.04782 0.0
H1180 H 0.48614 0.59074 0.12806 0.0
C1181 C 0.51378 0.64153 0.19929 0.0
C1182 C 0.50496 0.64748 0.23869 0.0
C1183 C 0.5036 0.62885 0.15558 0.0
C1184 C 0.47516 0.59132 0.10483 0.0
H1185 H 0.39873 0.54409 0.91725 0.0
H1186 H 0.42734 0.57133 0.94746 0.0
H1187 H 0.46397 0.56362 0.07309 0.0
H1188 H 0.47883 0.64567 0.26093 0.0
H1189 H 0.46119 0.6237 0.18508 0.0
H1190 H 0.45667 0.61907 0.08042 0.0
C1191 C 0.42241 0.55863 0.97188 0.0
C1192 C 0.46233 0.57571 0.07393 0.0
C1193 C 0.40604 0.54299 0.9545 0.0
C1194 C 0.48603 0.6413 0.23149 0.0
C1195 C 0.47593 0.62879 0.18767 0.0
C1196 C 0.45853 0.60713 0.07858 0.0
C1197 C 0.43185 0.55809 0.02165 0.0
C1198 C 0.44716 0.57546 0.04652 0.0
C1199 C 0.4845 0.62209 0.15009 0.0
C1200 C 0.47303 0.60696 0.10898 0.0
H1201 H 0.40376 0.51285 0.05856 0.0
H1202 H 0.43209 0.54027 0.08989 0.0
H1203 H 0.43414 0.59185 0.02772 0.0
H1204 H 0.52835 0.646 0.20378 0.0
H1205 H 0.51058 0.62402 0.12692 0.0
C1206 C 0.5487 0.81298 0.82448 0.0
C1207 C 0.53283 0.81213 0.8489 0.0
C1208 C 0.54806 0.79691 0.80356 0.0
C1209 C 0.51612 0.75437 0.73421 0.0
H1210 H 0.54955 0.73624 0.77151 0.0
C1211 C 0.5079 0.69014 0.61885 0.0
C1212 C 0.52418 0.69042 0.602 0.0
C1213 C 0.50854 0.70295 0.65908 0.0
C1214 C 0.54021 0.74121 0.76005 0.0
H1215 H 0.5041 0.79354 0.87261 0.0
H1216 H 0.50301 0.76581 0.8349 0.0
H1217 H 0.55254 0.76341 0.82197 0.0
H1218 H 0.55382 0.70377 0.61546 0.0
H1219 H 0.55516 0.72672 0.68324 0.0
H1220 H 0.5044 0.7332 0.67025 0.0
C1221 C 0.5159 0.77886 0.83233 0.0
C1222 C 0.54191 0.75671 0.7892 0.0
C1223 C 0.51659 0.79479 0.85398 0.0
C1224 C 0.54101 0.70316 0.62814 0.0
C1225 C 0.54174 0.7163 0.66724 0.0
C1226 C 0.51465 0.73918 0.70431 0.0
C1227 C 0.5315 0.77983 0.80598 0.0
C1228 C 0.52984 0.76336 0.77647 0.0
C1229 C 0.52558 0.71674 0.68195 0.0
C1230 C 0.52665 0.73233 0.71672 0.0
H1231 H 0.56144 0.82609 0.82019 0.0
H1232 H 0.56024 0.79795 0.78312 0.0
H1233 H 0.50681 0.75943 0.72314 0.0
H1234 H 0.49471 0.68032 0.59973 0.0
H1235 H 0.49569 0.70238 0.67075 0.0
C1236 C 0.3121 0.81955 0.60306 0.0
C1237 C 0.31793 0.83851 0.59929 0.0
C1238 C 0.29912 0.80839 0.64456 0.0
C1239 C 0.26042 0.80567 0.72727 0.0
H1240 H 0.25995 0.763 0.79576 0.0
C1241 C 0.21114 0.73581 0.87369 0.0
C1242 C 0.19422 0.72948 0.84446 0.0
C1243 C 0.22711 0.75167 0.85496 0.0
C1244 C 0.25993 0.775 0.77793 0.0
H1245 H 0.31544 0.86079 0.63864 0.0
H1246 H 0.29284 0.84125 0.71157 0.0
H1247 H 0.28754 0.78617 0.74576 0.0
H1248 H 0.18066 0.73548 0.77443 0.0
H1249 H 0.2086 0.76295 0.74095 0.0
H1250 H 0.23271 0.79439 0.75906 0.0
C1251 C 0.29818 0.83503 0.68174 0.0
C1252 C 0.27571 0.78819 0.74866 0.0
C1253 C 0.31125 0.84624 0.64026 0.0
C1254 C 0.19345 0.73996 0.79793 0.0
C1255 C 0.20948 0.75578 0.77891 0.0
C1256 C 0.24462 0.79248 0.75668 0.0
C1257 C 0.29162 0.81589 0.68337 0.0
C1258 C 0.27598 0.80342 0.72172 0.0
C1259 C 0.2266 0.76155 0.80628 0.0
C1260 C 0.24403 0.77676 0.78119 0.0
H1261 H 0.31699 0.81311 0.5724 0.0
H1262 H 0.29427 0.79368 0.64417 0.0
H1263 H 0.26011 0.81717 0.70664 0.0
H1264 H 0.21218 0.72823 0.91028 0.0
H1265 H 0.23996 0.75595 0.87784 0.0
C1266 C 0.18695 0.49869 0.61075 0.0
C1267 C 0.171 0.48242 0.59347 0.0
C1268 C 0.199 0.498 0.65137 0.0
C1269 C 0.20516 0.46634 0.75342 0.0
H1270 H 0.25695 0.49979 0.71853 0.0
C1271 C 0.26846 0.45837 0.82225 0.0
C1272 C 0.28331 0.47433 0.84685 0.0
C1273 C 0.25301 0.45882 0.80051 0.0
C1274 C 0.24253 0.49047 0.72902 0.0
H1275 H 0.1547 0.45276 0.60641 0.0
H1276 H 0.17612 0.45135 0.67493 0.0
H1277 H 0.23334 0.50208 0.66385 0.0
H1278 H 0.29309 0.50301 0.87034 0.0
H1279 H 0.26642 0.50377 0.83124 0.0
H1280 H 0.21479 0.45414 0.81665 0.0
C1281 C 0.17916 0.46477 0.65893 0.0
C1282 C 0.22893 0.49186 0.6981 0.0
C1283 C 0.16686 0.46555 0.61941 0.0
C1284 C 0.28199 0.49046 0.8515 0.0
C1285 C 0.26674 0.49096 0.82909 0.0
C1286 C 0.21884 0.46471 0.78364 0.0
C1287 C 0.19567 0.48093 0.67424 0.0
C1288 C 0.21003 0.47986 0.70982 0.0
C1289 C 0.25232 0.47529 0.80237 0.0
C1290 C 0.23762 0.47682 0.77167 0.0
H1291 H 0.19034 0.5119 0.5918 0.0
H1292 H 0.21122 0.51083 0.66348 0.0
H1293 H 0.1908 0.45699 0.7643 0.0
H1294 H 0.26898 0.44571 0.81831 0.0
H1295 H 0.24203 0.44659 0.77981 0.0
C1296 C 0.21064 0.48234 0.37092 0.0
C1297 C 0.19375 0.47086 0.3426 0.0
C1298 C 0.22692 0.48303 0.35255 0.0
C1299 C 0.24555 0.45995 0.2582 0.0
H1300 H 0.28724 0.50977 0.24217 0.0
C1301 C 0.31253 0.47383 0.14258 0.0
C1302 C 0.31864 0.48771 0.09983 0.0
C1303 C 0.29946 0.47203 0.18391 0.0
C1304 C 0.27575 0.49576 0.24652 0.0
H1305 H 0.18061 0.45044 0.27452 0.0
H1306 H 0.20908 0.45194 0.24164 0.0
H1307 H 0.25939 0.50485 0.29164 0.0
H1308 H 0.31667 0.51132 0.06958 0.0
H1309 H 0.29392 0.50811 0.14109 0.0
H1310 H 0.26161 0.45102 0.21011 0.0
C1311 C 0.20971 0.46022 0.27863 0.0
C1312 C 0.25984 0.4929 0.27548 0.0
C1313 C 0.19337 0.45942 0.29729 0.0
C1314 C 0.31224 0.50042 0.10165 0.0
C1315 C 0.29924 0.49865 0.14299 0.0
C1316 C 0.26148 0.46283 0.2291 0.0
C1317 C 0.22675 0.47237 0.30517 0.0
C1318 C 0.24438 0.475 0.28053 0.0
C1319 C 0.29231 0.48413 0.18358 0.0
C1320 C 0.27659 0.48082 0.22171 0.0
H1321 H 0.21139 0.49113 0.40658 0.0
H1322 H 0.23973 0.49225 0.37473 0.0
H1323 H 0.234 0.44597 0.26203 0.0
H1324 H 0.31717 0.46381 0.14255 0.0
H1325 H 0.29457 0.46086 0.21515 0.0
C1326 C 0.51813 0.72594 0.35624 0.0
C1327 C 0.53451 0.72512 0.35056 0.0
C1328 C 0.51702 0.7409 0.33404 0.0
C1329 C 0.54161 0.78875 0.28921 0.0
H1330 H 0.50441 0.7734 0.16859 0.0
C1331 C 0.53889 0.84032 0.1275 0.0
C1332 C 0.52199 0.83561 0.10058 0.0
C1333 C 0.54006 0.82814 0.16657 0.0
C1334 C 0.51455 0.77803 0.20308 0.0
H1335 H 0.56295 0.74002 0.3203 0.0
H1336 H 0.56102 0.7665 0.28236 0.0
H1337 H 0.50772 0.75023 0.2224 0.0
H1338 H 0.4928 0.81528 0.0968 0.0
H1339 H 0.49449 0.79455 0.1678 0.0
H1340 H 0.54819 0.81655 0.27122 0.0
C1341 C 0.54906 0.75535 0.30366 0.0
C1342 C 0.51655 0.76469 0.23347 0.0
C1343 C 0.55011 0.74018 0.32511 0.0
C1344 C 0.50603 0.81914 0.11654 0.0
C1345 C 0.50709 0.80718 0.15676 0.0
C1346 C 0.53936 0.80216 0.25959 0.0
C1347 C 0.53233 0.75553 0.3066 0.0
C1348 C 0.53017 0.76993 0.27636 0.0
C1349 C 0.52426 0.81113 0.18053 0.0
C1350 C 0.5259 0.79698 0.21564 0.0
H1351 H 0.50582 0.71466 0.37565 0.0
H1352 H 0.50401 0.74081 0.33694 0.0
H1353 H 0.55214 0.79305 0.32247 0.0
H1354 H 0.55147 0.85287 0.11552 0.0
H1355 H 0.55356 0.83168 0.18322 0.0
C1356 C 0.2676 0.81642 0.32125 0.0
C1357 C 0.28222 0.81529 0.3477 0.0
C1358 C 0.25204 0.80043 0.30046 0.0
C1359 C 0.24108 0.75715 0.23568 0.0
H1360 H 0.18934 0.74075 0.26413 0.0
C1361 C 0.18584 0.69297 0.11949 0.0
C1362 C 0.17046 0.69364 0.09816 0.0
C1363 C 0.19744 0.70581 0.16059 0.0
C1364 C 0.20371 0.74523 0.25521 0.0
H1365 H 0.29139 0.79628 0.37564 0.0
H1366 H 0.26452 0.76868 0.33829 0.0
H1367 H 0.21337 0.76788 0.3154 0.0
H1368 H 0.15457 0.70762 0.10434 0.0
H1369 H 0.17532 0.73072 0.17382 0.0
H1370 H 0.23194 0.73554 0.1734 0.0
C1371 C 0.26512 0.7819 0.33386 0.0
C1372 C 0.21742 0.76071 0.2848 0.0
C1373 C 0.2805 0.79775 0.35525 0.0
C1374 C 0.1663 0.70675 0.12068 0.0
C1375 C 0.17821 0.71997 0.16065 0.0
C1376 C 0.22749 0.74199 0.20539 0.0
C1377 C 0.25097 0.78314 0.30518 0.0
C1378 C 0.2362 0.76671 0.2753 0.0
C1379 C 0.1943 0.72004 0.17969 0.0
C1380 C 0.20858 0.73573 0.21473 0.0
H1381 H 0.26842 0.82968 0.31505 0.0
H1382 H 0.24128 0.8017 0.27821 0.0
H1383 H 0.25551 0.76172 0.22694 0.0
H1384 H 0.18921 0.68285 0.103 0.0
H1385 H 0.20927 0.70494 0.17571 0.0
C1386 C 0.16295 0.64087 0.73907 0.0
C1387 C 0.15115 0.64839 0.73844 0.0
C1388 C 0.15995 0.6266 0.70134 0.0
C1389 C 0.13731 0.60132 0.56901 0.0
H1390 H 0.13458 0.55969 0.6529 0.0
C1391 C 0.11915 0.52044 0.5355 0.0
C1392 C 0.13125 0.52281 0.48966 0.0
C1393 C 0.11878 0.53568 0.55906 0.0
C1394 C 0.13505 0.57107 0.62889 0.0
H1395 H 0.12788 0.64777 0.69412 0.0
H1396 H 0.12282 0.62283 0.62752 0.0
H1397 H 0.14097 0.58756 0.7053 0.0
H1398 H 0.15128 0.54284 0.42943 0.0
H1399 H 0.1506 0.56936 0.47073 0.0
H1400 H 0.13173 0.58479 0.49223 0.0
C1401 C 0.13428 0.628 0.65777 0.0
C1402 C 0.13894 0.58712 0.65879 0.0
C1403 C 0.1372 0.64228 0.6959 0.0
C1404 C 0.14193 0.54054 0.46516 0.0
C1405 C 0.14146 0.55574 0.4885 0.0
C1406 C 0.13362 0.58526 0.53879 0.0
C1407 C 0.14519 0.61957 0.66183 0.0
C1408 C 0.14035 0.60248 0.62915 0.0
C1409 C 0.13038 0.55356 0.537 0.0
C1410 C 0.13258 0.57003 0.5685 0.0
H1411 H 0.17399 0.64537 0.77064 0.0
H1412 H 0.1688 0.62056 0.70452 0.0
H1413 H 0.13829 0.61298 0.54527 0.0
H1414 H 0.11063 0.50698 0.55519 0.0
H1415 H 0.10991 0.53357 0.59599 0.0
C1416 C 0.36885 0.49524 0.70107 0.0
C1417 C 0.3619 0.50401 0.73691 0.0
C1418 C 0.3821 0.50534 0.65857 0.0
C1419 C 0.42018 0.53427 0.61199 0.0
H1420 H 0.41948 0.57371 0.52524 0.0
C1421 C 0.48606 0.60081 0.54043 0.0
C1422 C 0.48531 0.61011 0.49062 0.0
C1423 C 0.47038 0.58448 0.55859 0.0
C1424 C 0.41985 0.56257 0.54813 0.0
H1425 H 0.36249 0.52988 0.75378 0.0
H1426 H 0.3854 0.54735 0.67992 0.0
H1427 H 0.39175 0.55112 0.57579 0.0
H1428 H 0.46818 0.6087 0.4178 0.0
H1429 H 0.44108 0.58007 0.44865 0.0
H1430 H 0.44844 0.54598 0.58513 0.0
C1431 C 0.38069 0.53273 0.68441 0.0
C1432 C 0.40398 0.54972 0.57763 0.0
C1433 C 0.36762 0.52273 0.72707 0.0
C1434 C 0.46908 0.60204 0.45702 0.0
C1435 C 0.45352 0.58565 0.47479 0.0
C1436 C 0.43611 0.54714 0.58237 0.0
C1437 C 0.38843 0.52429 0.6507 0.0
C1438 C 0.40413 0.53578 0.61132 0.0
C1439 C 0.45375 0.57706 0.52694 0.0
C1440 C 0.43627 0.56174 0.55139 0.0
H1441 H 0.36476 0.48084 0.70773 0.0
H1442 H 0.38773 0.49844 0.63286 0.0
H1443 H 0.42076 0.52373 0.63787 0.0
H1444 H 0.49837 0.60669 0.56721 0.0
H1445 H 0.47103 0.57831 0.59921 0.0
C1446 C 0.40781 0.88938 0.53373 0.0
C1447 C 0.39789 0.8786 0.48576 0.0
C1448 C 0.42386 0.88957 0.55252 0.0
C1449 C 0.44369 0.85902 0.54962 0.0
H1450 H 0.48415 0.89955 0.632 0.0
C1451 C 0.48368 0.84792 0.73134 0.0
C1452 C 0.50265 0.86051 0.7387 0.0
C1453 C 0.4736 0.85075 0.68835 0.0
C1454 C 0.47314 0.88818 0.60824 0.0
H1455 H 0.39796 0.86099 0.41663 0.0
H1456 H 0.4261 0.86169 0.44857 0.0
H1457 H 0.46235 0.90512 0.57716 0.0
H1458 H 0.52611 0.88556 0.70487 0.0
H1459 H 0.50839 0.89047 0.62944 0.0
H1460 H 0.45425 0.84202 0.5814 0.0
C1461 C 0.4212 0.86951 0.47284 0.0
C1462 C 0.46053 0.89132 0.57739 0.0
C1463 C 0.4051 0.86917 0.45443 0.0
C1464 C 0.51151 0.87556 0.70023 0.0
C1465 C 0.50136 0.87847 0.65736 0.0
C1466 C 0.45627 0.8559 0.58033 0.0
C1467 C 0.43039 0.87914 0.52335 0.0
C1468 C 0.44536 0.87666 0.549 0.0
C1469 C 0.48222 0.86628 0.65176 0.0
C1470 C 0.47081 0.8703 0.6114 0.0
H1471 H 0.40262 0.8968 0.55878 0.0
H1472 H 0.43049 0.89704 0.59185 0.0
H1473 H 0.4321 0.84734 0.5288 0.0
H1474 H 0.47643 0.83616 0.76009 0.0
H1475 H 0.45884 0.8412 0.68566 0.0
C1476 C 0.05124 0.27991 0.71138 0.0
C1477 C 0.04104 0.26411 0.67694 0.0
C1478 C 0.06268 0.29715 0.68549 0.0
C1479 C 0.06869 0.32118 0.54471 0.0
H1480 H 0.11295 0.36002 0.61803 0.0
C1481 C 0.11218 0.39314 0.43966 0.0
C1482 C 0.11522 0.40783 0.47638 0.0
C1483 C 0.10579 0.37539 0.46233 0.0
C1484 C 0.10063 0.34926 0.59705 0.0
H1485 H 0.03579 0.25368 0.58881 0.0
H1486 H 0.05621 0.28342 0.54392 0.0
H1487 H 0.09691 0.32912 0.6612 0.0
H1488 H 0.11501 0.41569 0.56597 0.0
H1489 H 0.10407 0.38483 0.60534 0.0
H1490 H 0.07243 0.34134 0.48068 0.0
C1491 C 0.05487 0.2828 0.59069 0.0
C1492 C 0.09137 0.33159 0.62192 0.0
C1493 C 0.04322 0.26569 0.61644 0.0
C1494 C 0.11263 0.40462 0.53644 0.0
C1495 C 0.10651 0.38698 0.55911 0.0
C1496 C 0.07807 0.33874 0.51956 0.0
C1497 C 0.06438 0.29886 0.62467 0.0
C1498 C 0.07511 0.31737 0.59651 0.0
C1499 C 0.10263 0.3721 0.5222 0.0
C1500 C 0.09397 0.35304 0.54589 0.0
H1501 H 0.04977 0.27909 0.75813 0.0
H1502 H 0.06962 0.30921 0.71314 0.0
H1503 H 0.05602 0.31078 0.52441 0.0
H1504 H 0.11406 0.39518 0.39323 0.0
H1505 H 0.10302 0.36416 0.43297 0.0
C1506 C 0.73204 0.78778 0.70134 0.0
C1507 C 0.74364 0.78176 0.67754 0.0
C1508 C 0.71493 0.78273 0.67577 0.0
C1509 C 0.68726 0.76233 0.5409 0.0
H1510 H 0.64542 0.74619 0.64461 0.0
C1511 C 0.61197 0.72671 0.45497 0.0
C1512 C 0.5994 0.71081 0.48599 0.0
C1513 C 0.62952 0.73885 0.47786 0.0
C1514 C 0.65695 0.75064 0.61499 0.0
H1515 H 0.74637 0.76586 0.60756 0.0
H1516 H 0.71655 0.75671 0.56433 0.0
H1517 H 0.67656 0.76075 0.68431 0.0
H1518 H 0.59535 0.69557 0.56627 0.0
H1519 H 0.62575 0.71631 0.60502 0.0
H1520 H 0.66753 0.75112 0.47193 0.0
C1521 C 0.72076 0.76569 0.60187 0.0
C1522 C 0.67487 0.75923 0.63773 0.0
C1523 C 0.73786 0.77083 0.62711 0.0
C1524 C 0.60461 0.70763 0.54091 0.0
C1525 C 0.62207 0.71968 0.56358 0.0
C1526 C 0.66932 0.7536 0.51819 0.0
C1527 C 0.709 0.77146 0.62601 0.0
C1528 C 0.69022 0.76472 0.60113 0.0
C1529 C 0.63483 0.73536 0.53223 0.0
C1530 C 0.65392 0.74716 0.55515 0.0
H1531 H 0.73612 0.79635 0.73986 0.0
H1532 H 0.70633 0.78761 0.69513 0.0
H1533 H 0.69879 0.76675 0.51129 0.0
H1534 H 0.60839 0.72965 0.4127 0.0
H1535 H 0.63897 0.75091 0.45281 0.0
C1536 C 0.22239 0.95862 0.63478 0.0
C1537 C 0.22536 0.9632 0.69389 0.0
C1538 C 0.22804 0.94699 0.61023 0.0
C1539 C 0.25379 0.93532 0.56072 0.0
H1540 H 0.25499 0.8951 0.641 0.0
C1541 C 0.28486 0.89456 0.45423 0.0
C1542 C 0.29811 0.89328 0.48848 0.0
C1543 C 0.27309 0.90012 0.47891 0.0
C1544 C 0.25471 0.9063 0.61809 0.0
H1545 H 0.23579 0.95858 0.77439 0.0
H1546 H 0.24637 0.93871 0.73108 0.0
H1547 H 0.23932 0.91013 0.6857 0.0
H1548 H 0.30866 0.8958 0.57612 0.0
H1549 H 0.28817 0.90545 0.61884 0.0
H1550 H 0.26928 0.93162 0.49346 0.0
C1551 C 0.23931 0.9438 0.70383 0.0
C1552 C 0.24582 0.91496 0.64377 0.0
C1553 C 0.23333 0.95524 0.72869 0.0
C1554 C 0.29875 0.89684 0.54832 0.0
C1555 C 0.28688 0.9022 0.57301 0.0
C1556 C 0.2625 0.92657 0.53494 0.0
C1557 C 0.23714 0.93993 0.64393 0.0
C1558 C 0.24544 0.92974 0.61566 0.0
C1559 C 0.2742 0.90427 0.5384 0.0
C1560 C 0.26327 0.91214 0.56362 0.0
H1561 H 0.21593 0.96429 0.60714 0.0
H1562 H 0.22561 0.94388 0.56441 0.0
H1563 H 0.25419 0.94691 0.53823 0.0
H1564 H 0.28396 0.89185 0.40808 0.0
H1565 H 0.26331 0.90145 0.45131 0.0
C1566 C 0.26693 0.04555 0.87373 0.0
C1567 C 0.26524 0.04193 0.81387 0.0
C1568 C 0.28413 0.05744 0.89838 0.0
C1569 C 0.32239 0.07131 0.94536 0.0
H1570 H 0.36153 0.11405 0.8666 0.0
C1571 C 0.3943 0.11548 0.04932 0.0
C1572 C 0.40904 0.11816 0.01337 0.0
C1573 C 0.3766 0.10899 0.02606 0.0
C1574 C 0.3507 0.10216 0.8891 0.0
H1575 H 0.28017 0.04845 0.7325 0.0
H1576 H 0.31049 0.0688 0.77582 0.0
H1577 H 0.33069 0.09739 0.82322 0.0
H1578 H 0.41702 0.11724 0.92434 0.0
H1579 H 0.38628 0.10602 0.88407 0.0
H1580 H 0.3424 0.07598 0.01094 0.0
C1581 C 0.29841 0.06272 0.80365 0.0
C1582 C 0.33306 0.09255 0.86414 0.0
C1583 C 0.28107 0.05099 0.77877 0.0
C1584 C 0.40592 0.11514 0.95338 0.0
C1585 C 0.38833 0.10886 0.93014 0.0
C1586 C 0.33993 0.081 0.97048 0.0
C1587 C 0.30019 0.06581 0.86399 0.0
C1588 C 0.31873 0.07685 0.89163 0.0
C1589 C 0.37339 0.1053 0.96635 0.0
C1590 C 0.35434 0.09637 0.9423 0.0
H1591 H 0.2549 0.03906 0.90181 0.0
H1592 H 0.28484 0.05988 0.94466 0.0
H1593 H 0.31187 0.05908 0.96734 0.0
H1594 H 0.39626 0.11772 0.09566 0.0
H1595 H 0.36534 0.10651 0.05491 0.0
C1596 C 0.95456 0.23335 0.77711 0.0
C1597 C 0.96476 0.22759 0.81088 0.0
C1598 C 0.94321 0.23912 0.8038 0.0
C1599 C 0.93758 0.25675 0.94552 0.0
H1600 H 0.89251 0.25054 0.87598 0.0
C1601 C 0.89445 0.28457 0.05578 0.0
C1602 C 0.89088 0.29599 0.01963 0.0
C1603 C 0.9007 0.27323 0.03212 0.0
C1604 C 0.90506 0.25231 0.89591 0.0
H1605 H 0.97011 0.22208 0.89859 0.0
H1606 H 0.94993 0.23142 0.94474 0.0
H1607 H 0.90873 0.23622 0.83051 0.0
H1608 H 0.8899 0.30358 0.93018 0.0
H1609 H 0.90066 0.28376 0.88918 0.0
H1610 H 0.93396 0.2729 0.01065 0.0
C1611 C 0.95119 0.23227 0.89796 0.0
C1612 C 0.91442 0.24422 0.86972 0.0
C1613 C 0.96271 0.22683 0.87145 0.0
C1614 C 0.89273 0.29509 0.95927 0.0
C1615 C 0.89873 0.28361 0.93567 0.0
C1616 C 0.92814 0.26465 0.97192 0.0
C1617 C 0.94164 0.23894 0.86469 0.0
C1618 C 0.93094 0.24654 0.89383 0.0
C1619 C 0.9032 0.2729 0.9719 0.0
C1620 C 0.91193 0.26274 0.94701 0.0
H1621 H 0.95588 0.23405 0.73032 0.0
H1622 H 0.93619 0.24431 0.77678 0.0
H1623 H 0.95045 0.25921 0.96478 0.0
H1624 H 0.89312 0.28494 0.10241 0.0
H1625 H 0.90393 0.26498 0.06098 0.0
C1626 C 0.78516 0.73067 0.79452 0.0
C1627 C 0.77675 0.7411 0.80946 0.0
C1628 C 0.77857 0.71292 0.81785 0.0
C1629 C 0.73633 0.6738 0.87279 0.0
H1630 H 0.76711 0.65874 0.95577 0.0
C1631 C 0.70696 0.59926 0.94702 0.0
C1632 C 0.70893 0.59677 0.00642 0.0
C1633 C 0.7175 0.61651 0.92102 0.0
C1634 C 0.75841 0.66281 0.93264 0.0
H1635 H 0.75479 0.74102 0.86029 0.0
H1636 H 0.74318 0.71013 0.89954 0.0
H1637 H 0.78117 0.6899 0.91277 0.0
H1638 H 0.72449 0.61027 0.08412 0.0
H1639 H 0.74302 0.64071 0.03817 0.0
H1640 H 0.71359 0.64701 0.89252 0.0
C1641 C 0.75492 0.71569 0.87032 0.0
C1642 C 0.76644 0.68051 0.90774 0.0
C1643 C 0.76164 0.73342 0.84791 0.0
C1644 C 0.72257 0.61176 0.03839 0.0
C1645 C 0.73321 0.62914 0.0121 0.0
C1646 C 0.72839 0.65615 0.89682 0.0
C1647 C 0.76326 0.70525 0.85549 0.0
C1648 C 0.75538 0.68619 0.87822 0.0
C1649 C 0.73034 0.63175 0.95357 0.0
C1650 C 0.73929 0.65048 0.9273 0.0
H1651 H 0.7969 0.73626 0.76529 0.0
H1652 H 0.78516 0.70506 0.80564 0.0
H1653 H 0.72752 0.67784 0.85009 0.0
H1654 H 0.69688 0.58797 0.92061 0.0
H1655 H 0.71525 0.61805 0.87557 0.0
C1656 C 0.88725 0.61024 0.54932 0.0
C1657 C 0.89035 0.59766 0.51749 0.0
C1658 C 0.89192 0.62753 0.52583 0.0
C1659 C 0.90524 0.65422 0.38694 0.0
H1660 H 0.93368 0.69644 0.48699 0.0
C1661 C 0.94541 0.72902 0.29692 0.0
C1662 C 0.96352 0.73971 0.31855 0.0
C1663 C 0.9329 0.7122 0.3233 0.0
C1664 C 0.92575 0.68479 0.45845 0.0
H1665 H 0.90022 0.59327 0.43507 0.0
H1666 H 0.90864 0.62323 0.39527 0.0
H1667 H 0.91776 0.66547 0.5284 0.0
H1668 H 0.9826 0.74102 0.38502 0.0
H1669 H 0.96114 0.71176 0.42956 0.0
H1670 H 0.91429 0.67343 0.31642 0.0
C1671 C 0.90234 0.61975 0.43787 0.0
C1672 C 0.91639 0.66704 0.48235 0.0
C1673 C 0.89769 0.60257 0.46117 0.0
C1674 C 0.96877 0.73324 0.36718 0.0
C1675 C 0.95635 0.71649 0.39326 0.0
C1676 C 0.91471 0.67197 0.36297 0.0
C1677 C 0.89972 0.63255 0.47002 0.0
C1678 C 0.90659 0.65148 0.44656 0.0
C1679 C 0.93827 0.70574 0.37176 0.0
C1680 C 0.92564 0.68739 0.39818 0.0
H1681 H 0.88149 0.60686 0.59266 0.0
H1682 H 0.88959 0.63704 0.55155 0.0
H1683 H 0.89746 0.64255 0.35832 0.0
H1684 H 0.94086 0.73366 0.2598 0.0
H1685 H 0.91903 0.7043 0.30586 0.0
C1686 C 0.28219 0.23859 0.27231 0.0
C1687 C 0.26708 0.23422 0.30899 0.0
C1688 C 0.29984 0.24492 0.2955 0.0
C1689 C 0.32491 0.24658 0.42891 0.0
H1690 H 0.36434 0.29231 0.36463 0.0
C1691 C 0.39478 0.29163 0.54666 0.0
C1692 C 0.41062 0.30207 0.51261 0.0
C1693 C 0.37741 0.28123 0.52041 0.0
C1694 C 0.35364 0.27933 0.38251 0.0
H1695 H 0.25854 0.23232 0.39887 0.0
H1696 H 0.2893 0.24323 0.43908 0.0
H1697 H 0.33384 0.2777 0.32036 0.0
H1698 H 0.42102 0.30876 0.42457 0.0
H1699 H 0.39101 0.29013 0.37886 0.0
H1700 H 0.34471 0.24815 0.49105 0.0
C1701 C 0.28748 0.24182 0.39248 0.0
C1702 C 0.33612 0.271 0.35712 0.0
C1703 C 0.26991 0.23573 0.36935 0.0
C1704 C 0.40897 0.30111 0.45194 0.0
C1705 C 0.39173 0.29051 0.42576 0.0
C1706 C 0.34252 0.2548 0.454 0.0
C1707 C 0.30267 0.24672 0.35579 0.0
C1708 C 0.32153 0.25466 0.3804 0.0
C1709 C 0.37564 0.28086 0.45958 0.0
C1710 C 0.35708 0.27139 0.43144 0.0
H1711 H 0.28046 0.23754 0.22566 0.0
H1712 H 0.31132 0.2485 0.26628 0.0
H1713 H 0.3139 0.23388 0.44743 0.0
H1714 H 0.39568 0.29217 0.59355 0.0
H1715 H 0.36533 0.27411 0.54792 0.0
C1716 C 0.76711 0.03624 0.36995 0.0
C1717 C 0.77855 0.04162 0.3206 0.0
C1718 C 0.76236 0.04836 0.396 0.0
C1719 C 0.75806 0.08928 0.3649 0.0
H1720 H 0.74892 0.08653 0.53052 0.0
C1721 C 0.70634 0.10724 0.46353 0.0
C1722 C 0.7091 0.11489 0.51949 0.0
C1723 C 0.71853 0.10211 0.44038 0.0
C1724 C 0.75172 0.08779 0.48439 0.0
H1725 H 0.79426 0.06421 0.26069 0.0
H1726 H 0.78611 0.08554 0.30682 0.0
H1727 H 0.76415 0.07078 0.48914 0.0
H1728 H 0.72732 0.12366 0.59425 0.0
H1729 H 0.74882 0.11475 0.55335 0.0
H1730 H 0.74569 0.10634 0.36018 0.0
C1731 C 0.78062 0.07178 0.32476 0.0
C1732 C 0.76022 0.07853 0.46049 0.0
C1733 C 0.7853 0.05956 0.29834 0.0
C1734 C 0.72471 0.11771 0.55118 0.0
C1735 C 0.73699 0.11256 0.52781 0.0
C1736 C 0.74971 0.09867 0.38886 0.0
C1737 C 0.76902 0.06628 0.37383 0.0
C1738 C 0.76287 0.07859 0.40019 0.0
C1739 C 0.73393 0.10454 0.47226 0.0
C1740 C 0.7458 0.09746 0.44859 0.0
H1741 H 0.76156 0.02251 0.38825 0.0
H1742 H 0.75305 0.04344 0.4328 0.0
H1743 H 0.75986 0.08965 0.31832 0.0
H1744 H 0.69453 0.10488 0.43758 0.0
H1745 H 0.71548 0.09565 0.39802 0.0
C1746 C 0.60995 0.88879 0.9552 0.0
C1747 C 0.59673 0.89087 0.9871 0.0
C1748 C 0.62746 0.89439 0.97877 0.0
C1749 C 0.654 0.90865 0.11793 0.0
H1750 H 0.69596 0.93804 0.01776 0.0
C1751 C 0.72896 0.94862 0.20681 0.0
C1752 C 0.73999 0.96667 0.18506 0.0
C1753 C 0.71194 0.93644 0.18088 0.0
C1754 C 0.68439 0.9299 0.0464 0.0
H1755 H 0.59144 0.89985 0.0698 0.0
H1756 H 0.62176 0.90988 0.10976 0.0
H1757 H 0.66498 0.92157 0.9766 0.0
H1758 H 0.74165 0.98603 0.1191 0.0
H1759 H 0.71199 0.96514 0.07537 0.0
H1760 H 0.67327 0.91794 0.18828 0.0
C1761 C 0.61864 0.90369 0.06701 0.0
C1762 C 0.66663 0.92021 0.0226 0.0
C1763 C 0.60123 0.89809 0.04365 0.0
C1764 C 0.7336 0.97222 0.13691 0.0
C1765 C 0.71662 0.96013 0.11135 0.0
C1766 C 0.67175 0.91846 0.1418 0.0
C1767 C 0.63208 0.90214 0.03473 0.0
C1768 C 0.65115 0.90991 0.05834 0.0
C1769 C 0.70556 0.94208 0.13284 0.0
C1770 C 0.6871 0.92965 0.10657 0.0
H1771 H 0.60691 0.88318 0.91167 0.0
H1772 H 0.63744 0.89284 0.95296 0.0
H1773 H 0.64243 0.90054 0.14657 0.0
H1774 H 0.73352 0.94384 0.24354 0.0
H1775 H 0.70386 0.92258 0.19827 0.0
C1776 C 0.03224 0.76386 0.13322 0.0
C1777 C 0.03832 0.77599 0.18088 0.0
C1778 C 0.04408 0.75893 0.10598 0.0
C1779 C 0.08626 0.75618 0.13139 0.0
H1780 H 0.08144 0.74548 0.96659 0.0
C1781 C 0.1067 0.70642 0.03157 0.0
C1782 C 0.11388 0.70925 0.97491 0.0
C1783 C 0.10074 0.71793 0.05493 0.0
C1784 C 0.08324 0.74871 0.01243 0.0
H1785 H 0.06182 0.79271 0.23662 0.0
H1786 H 0.08262 0.78428 0.18844 0.0
H1787 H 0.06512 0.7599 0.00971 0.0
H1788 H 0.12085 0.72686 0.89899 0.0
H1789 H 0.11047 0.74717 0.94028 0.0
H1790 H 0.10446 0.7451 0.13408 0.0
C1791 C 0.06855 0.77835 0.17275 0.0
C1792 C 0.07366 0.75674 0.03737 0.0
C1793 C 0.05663 0.7832 0.20036 0.0
C1794 C 0.11533 0.72423 0.94264 0.0
C1795 C 0.10932 0.73582 0.96622 0.0
C1796 C 0.09594 0.74829 0.10639 0.0
C1797 C 0.0624 0.76611 0.12528 0.0
C1798 C 0.07458 0.76002 0.09749 0.0
C1799 C 0.10183 0.7327 0.02257 0.0
C1800 C 0.09406 0.74389 0.04698 0.0
H1801 H 0.01822 0.75794 0.11712 0.0
H1802 H 0.03869 0.74914 0.07049 0.0
H1803 H 0.08729 0.75846 0.17779 0.0
H1804 H 0.10539 0.69509 0.05802 0.0
H1805 H 0.09472 0.71483 0.09795 0.0
C1806 C 0.22584 0.27305 0.13175 0.0
C1807 C 0.22455 0.26945 0.19165 0.0
C1808 C 0.23141 0.29081 0.11121 0.0
C1809 C 0.26087 0.33864 0.15271 0.0
H1810 H 0.24052 0.34919 0.01629 0.0
C1811 C 0.29669 0.41153 0.05463 0.0
C1812 C 0.29817 0.41276 0.99391 0.0
C1813 C 0.28476 0.39472 0.08156 0.0
C1814 C 0.24646 0.34646 0.05417 0.0
H1815 H 0.2273 0.28145 0.27696 0.0
H1816 H 0.23739 0.31272 0.24086 0.0
H1817 H 0.22442 0.31826 0.05925 0.0
H1818 H 0.28784 0.39753 0.91364 0.0
H1819 H 0.26748 0.36792 0.96062 0.0
H1820 H 0.28336 0.36635 0.14639 0.0
C1821 C 0.23404 0.3017 0.20998 0.0
C1822 C 0.23717 0.32879 0.07893 0.0
C1823 C 0.2282 0.28383 0.23059 0.0
C1824 C 0.28696 0.39698 0.96053 0.0
C1825 C 0.27521 0.38003 0.98756 0.0
C1826 C 0.27025 0.35622 0.12767 0.0
C1827 C 0.23601 0.30541 0.15008 0.0
C1828 C 0.24444 0.32464 0.12796 0.0
C1829 C 0.27424 0.37862 0.04851 0.0
C1830 C 0.26332 0.36031 0.07757 0.0
H1831 H 0.22293 0.26221 0.1006 0.0
H1832 H 0.23295 0.29326 0.06488 0.0
H1833 H 0.26698 0.33576 0.18988 0.0
H1834 H 0.30491 0.42356 0.08151 0.0
H1835 H 0.28403 0.39432 0.12846 0.0
C1836 C 0.94387 0.38829 0.12363 0.0
C1837 C 0.93132 0.37149 0.15058 0.0
C1838 C 0.96116 0.40001 0.14872 0.0
C1839 C 0.98747 0.40862 0.28702 0.0
H1840 H 0.03029 0.42989 0.18581 0.0
C1841 C 0.06233 0.44758 0.3771 0.0
C1842 C 0.07473 0.44311 0.35026 0.0
C1843 C 0.04497 0.44196 0.35242 0.0
C1844 C 0.01847 0.42403 0.21472 0.0
H1845 H 0.92717 0.35394 0.22527 0.0
H1846 H 0.95724 0.37399 0.26774 0.0
H1847 H -0.0006 0.41397 0.1439 0.0
H1848 H 0.0785 0.4292 0.27625 0.0
H1849 H 0.04836 0.41914 0.23451 0.0
H1850 H 0.00657 0.4177 0.35784 0.0
C1851 C 0.95365 0.37841 0.22807 0.0
C1852 C 0.00073 0.41511 0.19064 0.0
C1853 C 0.93641 0.36678 0.20328 0.0
C1854 C 0.0694 0.433 0.29817 0.0
C1855 C 0.05211 0.42735 0.27377 0.0
C1856 C 0.00521 0.41742 0.3111 0.0
C1857 C 0.96628 0.39515 0.20115 0.0
C1858 C 0.98502 0.40684 0.22651 0.0
C1859 C 0.03965 0.43174 0.30048 0.0
C1860 C 0.02092 0.42476 0.27522 0.0
H1861 H 0.94035 0.39241 0.08325 0.0
H1862 H 0.97049 0.4129 0.1271 0.0
H1863 H 0.97565 0.40275 0.31592 0.0
H1864 H 0.06603 0.45545 0.41705 0.0
H1865 H 0.03574 0.44568 0.37388 0.0
C1866 C 0.63466 0.56355 0.20881 0.0
C1867 C 0.63556 0.56279 0.14813 0.0
C1868 C 0.6242 0.57036 0.23503 0.0
C1869 C 0.58836 0.58368 0.20626 0.0
H1870 H 0.6099 0.61399 0.34316 0.0
C1871 C 0.56762 0.63559 0.29521 0.0
C1872 C 0.56527 0.63589 0.35553 0.0
C1873 C 0.57424 0.62465 0.27114 0.0
C1874 C 0.60359 0.60537 0.30542 0.0
H1875 H 0.62588 0.56814 0.06725 0.0
H1876 H 0.60813 0.58074 0.11289 0.0
H1877 H 0.62523 0.59892 0.29807 0.0
H1878 H 0.5677 0.62465 0.43776 0.0
H1879 H 0.57963 0.60576 0.39556 0.0
H1880 H 0.56713 0.59095 0.21272 0.0
C1881 C 0.61514 0.57566 0.14041 0.0
C1882 C 0.61234 0.59665 0.27955 0.0
C1883 C 0.62538 0.56852 0.11413 0.0
C1884 C 0.56937 0.62473 0.39117 0.0
C1885 C 0.57626 0.61399 0.36709 0.0
C1886 C 0.57975 0.59263 0.23178 0.0
C1887 C 0.61463 0.57692 0.20126 0.0
C1888 C 0.60488 0.58571 0.22952 0.0
C1889 C 0.57888 0.61396 0.30688 0.0
C1890 C 0.58733 0.6036 0.28149 0.0
H1891 H 0.64211 0.55892 0.23621 0.0
H1892 H 0.62375 0.5706 0.28192 0.0
H1893 H 0.58204 0.57515 0.16841 0.0
H1894 H 0.56445 0.64391 0.26649 0.0
H1895 H 0.57625 0.625 0.22465 0.0
C1896 C 0.38939 0.94765 0.37876 0.0
C1897 C 0.37248 0.9348 0.35301 0.0
C1898 C 0.4006 0.96504 0.3533 0.0
C1899 C 0.40769 0.99078 0.21451 0.0
H1900 H 0.43001 0.03412 0.31332 0.0
C1901 C 0.44722 0.06502 0.11958 0.0
C1902 C 0.44356 0.07801 0.1463 0.0
C1903 C 0.44126 0.04771 0.14523 0.0
C1904 C 0.42382 0.02216 0.28505 0.0
H1905 H 0.35415 0.93032 0.28021 0.0
H1906 H 0.37331 0.96048 0.23715 0.0
H1907 H 0.41427 0.00343 0.35694 0.0
H1908 H 0.43075 0.08287 0.22121 0.0
H1909 H 0.4201 0.0528 0.26467 0.0
H1910 H 0.41633 0.00949 0.14267 0.0
C1911 C 0.37822 0.95707 0.27613 0.0
C1912 C 0.415 0.00453 0.31012 0.0
C1913 C 0.36711 0.93976 0.30129 0.0
C1914 C 0.43392 0.0733 0.19932 0.0
C1915 C 0.42793 0.05605 0.2247 0.0
C1916 C 0.4164 0.0084 0.18945 0.0
C1917 C 0.39511 0.96995 0.30163 0.0
C1918 C 0.40643 0.98862 0.27517 0.0
C1919 C 0.43148 0.043 0.19807 0.0
C1920 C 0.42419 0.02432 0.22443 0.0
H1921 H 0.39401 0.94426 0.41842 0.0
H1922 H 0.4136 0.97458 0.37389 0.0
H1923 H 0.40156 0.97882 0.18622 0.0
H1924 H 0.4547 0.06822 0.07893 0.0
H1925 H 0.44438 0.03805 0.12378 0.0
C1926 C 0.56534 0.93472 0.7965 0.0
C1927 C 0.56263 0.93182 0.85666 0.0
C1928 C 0.57192 0.95233 0.77293 0.0
C1929 C 0.60058 0.00091 0.80938 0.0
H1930 H 0.58009 0.00961 0.66984 0.0
C1931 C 0.63218 0.07384 0.71261 0.0
C1932 C 0.63379 0.07549 0.65198 0.0
C1933 C 0.62147 0.05658 0.73862 0.0
C1934 C 0.58611 0.0074 0.70846 0.0
H1935 H 0.56439 0.94511 0.9391 0.0
H1936 H 0.57625 0.97604 0.89776 0.0
H1937 H 0.56499 0.97882 0.71366 0.0
H1938 H 0.62505 0.06042 0.57092 0.0
H1939 H 0.60684 0.03009 0.6163 0.0
H1940 H 0.62212 0.02909 0.80333 0.0
C1941 C 0.57318 0.96459 0.86904 0.0
C1942 C 0.57739 0.98979 0.73367 0.0
C1943 C 0.56633 0.94689 0.89262 0.0
C1944 C 0.62402 0.05956 0.61777 0.0
C1945 C 0.61351 0.04219 0.64387 0.0
C1946 C 0.60942 0.01843 0.78386 0.0
C1947 C 0.57617 0.96748 0.80902 0.0
C1948 C 0.58461 0.98636 0.7842 0.0
C1949 C 0.61233 0.04045 0.70472 0.0
C1950 C 0.60237 0.02191 0.73289 0.0
H1951 H 0.56247 0.92338 0.76752 0.0
H1952 H 0.57424 0.95419 0.72658 0.0
H1953 H 0.60662 0.99858 0.8478 0.0
H1954 H 0.6393 0.08593 0.74014 0.0
H1955 H 0.6205 0.05588 0.78547 0.0
C1956 C 0.07474 0.63257 0.78519 0.0
C1957 C 0.07687 0.63424 0.8457 0.0
C1958 C 0.05724 0.62199 0.76044 0.0
C1959 C 0.00795 0.58732 0.79397 0.0
H1960 H -0.00114 0.60784 0.65514 0.0
C1961 C 0.93489 0.56654 0.70717 0.0
C1962 C 0.93197 0.56369 0.64705 0.0
C1963 C 0.95255 0.57327 0.73072 0.0
C1964 C 0.00125 0.60181 0.69348 0.0
H1965 H 0.06239 0.62569 0.92782 0.0
H1966 H 0.03168 0.60771 0.88472 0.0
H1967 H 0.0296 0.62302 0.69799 0.0
H1968 H 0.94532 0.56539 0.56472 0.0
H1969 H 0.97625 0.57746 0.60594 0.0
H1970 H 0.97922 0.56651 0.79023 0.0
C1971 C 0.04357 0.61422 0.85622 0.0
C1972 C 0.01891 0.61047 0.71806 0.0
C1973 C 0.06117 0.62459 0.88104 0.0
C1974 C 0.94708 0.56743 0.61116 0.0
C1975 C 0.9648 0.57441 0.63469 0.0
C1976 C 0.99019 0.5788 0.76971 0.0
C1977 C 0.04134 0.61306 0.79551 0.0
C1978 C 0.02254 0.60337 0.76869 0.0
C1979 C 0.96773 0.57752 0.69465 0.0
C1980 C 0.98667 0.58599 0.71927 0.0
H1981 H 0.08662 0.63962 0.75679 0.0
H1982 H 0.05619 0.62101 0.71364 0.0
H1983 H 0.01024 0.58127 0.83239 0.0
H1984 H 0.92354 0.56367 0.73612 0.0
H1985 H 0.95443 0.57565 0.77703 0.0
C1986 C 0.45054 0.39237 0.6259 0.0
C1987 C 0.4466 0.37557 0.6521 0.0
C1988 C 0.44471 0.40379 0.65183 0.0
C1989 C 0.42689 0.41153 0.79132 0.0
H1990 H 0.40399 0.43193 0.69231 0.0
C1991 C 0.39033 0.44951 0.88462 0.0
C1992 C 0.37334 0.44496 0.85847 0.0
C1993 C 0.40202 0.44391 0.85938 0.0
C1994 C 0.41031 0.4263 0.72062 0.0
H1995 H 0.43359 0.35776 0.72667 0.0
H1996 H 0.4232 0.37727 0.77058 0.0
H1997 H 0.41952 0.41678 0.64885 0.0
H1998 H 0.35532 0.43079 0.78537 0.0
H1999 H 0.37533 0.42077 0.74264 0.0
H2000 H 0.41675 0.42009 0.86313 0.0
C2001 C 0.4311 0.38192 0.73075 0.0
C2002 C 0.41945 0.41783 0.69563 0.0
C2003 C 0.43694 0.3706 0.70509 0.0
C2004 C 0.36833 0.43467 0.80671 0.0
C2005 C 0.37992 0.42905 0.78175 0.0
C2006 C 0.41765 0.41989 0.81632 0.0
C2007 C 0.43482 0.39862 0.70445 0.0
C2008 C 0.42742 0.40989 0.7307 0.0
C2009 C 0.39694 0.43362 0.80756 0.0
C2010 C 0.40881 0.42693 0.78126 0.0
H2011 H 0.45804 0.39669 0.58529 0.0
H2012 H 0.44794 0.41665 0.63065 0.0
H2013 H 0.43321 0.40588 0.81963 0.0
H2014 H 0.39468 0.45752 0.9243 0.0
H2015 H 0.4151 0.44777 0.8802 0.0
loop_
_geom_bond_atom_site_label_1
_geom_bond_atom_site_label_2
_geom_bond_distance
_geom_bond_site_symmetry_2
_ccdc_geom_bond_type
Sc0 O3 2.025 . S
Sc0 O10 2.105 . S
Sc0 O13 2.105 1_455 S
Sc0 O16 2.105 1_455 S
Sc0 O19 2.105 . S
Sc1 O3 2.025 . S
Sc1 O11 2.105 . S
Sc1 O15 2.105 1_455 S
Sc1 O17 2.105 1_455 S
Sc1 O21 2.105 . S
Sc2 O3 2.025 . S
Sc2 O12 2.105 . S
Sc2 O14 2.105 1_455 S
Sc2 O18 2.105 1_455 S
Sc2 O20 2.105 . S
O3 Sc0 2.025 . S
O3 Sc1 2.025 . S
O3 Sc2 2.025 . S
C4 O10 1.268 . S
C4 O20 1.268 . S
C5 O11 1.268 . S
C5 O19 1.268 . S
C6 O12 1.268 . S
C6 O21 1.268 . S
C7 O13 1.268 . S
C7 O17 1.268 . S
C8 O14 1.268 . S
C8 O16 1.268 . S
C9 O15 1.268 . S
C9 O18 1.268 . S
O10 Sc0 2.105 . S
O10 C4 1.268 . S
O11 Sc1 2.105 . S
O11 C5 1.268 . S
O12 Sc2 2.105 . S
O12 C6 1.268 . S
O13 Sc0 2.105 1_655 S
O13 C7 1.268 . S
O14 Sc2 2.105 1_655 S
O14 C8 1.268 . S
O15 Sc1 2.105 1_655 S
O15 C9 1.268 . S
O16 Sc0 2.105 1_655 S
O16 C8 1.268 . S
O17 Sc1 2.105 1_655 S
O17 C7 1.268 . S
O18 Sc2 2.105 1_655 S
O18 C9 1.268 . S
O19 Sc0 2.105 . S
O19 C5 1.268 . S
O20 Sc2 2.105 . S
O20 C4 1.268 . S
O21 Sc1 2.105 . S
O21 C6 1.268 . S
Sc22 O25 2.025 . S
Sc22 O32 2.105 . S
Sc22 O35 2.105 . S
Sc22 O38 2.105 . S
Sc22 O41 2.105 . S
Sc23 O25 2.025 . S
Sc23 O33 2.105 . S
Sc23 O37 2.105 . S
Sc23 O39 2.105 . S
Sc23 O43 2.105 . S
Sc24 O25 2.025 . S
Sc24 O34 2.105 . S
Sc24 O36 2.105 . S
Sc24 O40 2.105 . S
Sc24 O42 2.105 . S
O25 Sc22 2.025 . S
O25 Sc23 2.025 . S
O25 Sc24 2.025 . S
C26 O32 1.268 . S
C26 O42 1.268 . S
C27 O33 1.268 . S
C27 O41 1.268 . S
C28 O34 1.268 . S
C28 O43 1.268 . S
C29 O35 1.268 . S
C29 O39 1.268 . S
C30 O36 1.268 . S
C30 O38 1.268 . S
C31 O37 1.268 . S
C31 O40 1.268 . S
O32 Sc22 2.105 . S
O32 C26 1.268 . S
O33 Sc23 2.105 . S
O33 C27 1.268 . S
O34 Sc24 2.105 . S
O34 C28 1.268 . S
O35 Sc22 2.105 . S
O35 C29 1.268 . S
O36 Sc24 2.105 . S
O36 C30 1.268 . S
O37 Sc23 2.105 . S
O37 C31 1.268 . S
O38 Sc22 2.105 . S
O38 C30 1.268 . S
O39 Sc23 2.105 . S
O39 C29 1.268 . S
O40 Sc24 2.105 . S
O40 C31 1.268 . S
O41 Sc22 2.105 . S
O41 C27 1.268 . S
O42 Sc24 2.105 . S
O42 C26 1.268 . S
O43 Sc23 2.105 . S
O43 C28 1.268 . S
Sc44 O47 2.025 . S
Sc44 O54 2.105 1_545 S
Sc44 O57 2.105 . S
Sc44 O60 2.105 . S
Sc44 O63 2.105 1_545 S
Sc45 O47 2.025 . S
Sc45 O55 2.105 1_545 S
Sc45 O59 2.105 . S
Sc45 O61 2.105 . S
Sc45 O65 2.105 1_545 S
Sc46 O47 2.025 . S
Sc46 O56 2.105 1_545 S
Sc46 O58 2.105 . S
Sc46 O62 2.105 . S
Sc46 O64 2.105 1_545 S
O47 Sc44 2.025 . S
O47 Sc45 2.025 . S
O47 Sc46 2.025 . S
C48 O54 1.268 . S
C48 O64 1.268 . S
C49 O55 1.268 . S
C49 O63 1.268 . S
C50 O56 1.268 . S
C50 O65 1.268 . S
C51 O57 1.268 . S
C51 O61 1.268 . S
C52 O58 1.268 . S
C52 O60 1.268 . S
C53 O59 1.268 . S
C53 O62 1.268 . S
O54 Sc44 2.105 1_565 S
O54 C48 1.268 . S
O55 Sc45 2.105 1_565 S
O55 C49 1.268 . S
O56 Sc46 2.105 1_565 S
O56 C50 1.268 . S
O57 Sc44 2.105 . S
O57 C51 1.268 . S
O58 Sc46 2.105 . S
O58 C52 1.268 . S
O59 Sc45 2.105 . S
O59 C53 1.268 . S
O60 Sc44 2.105 . S
O60 C52 1.268 . S
O61 Sc45 2.105 . S
O61 C51 1.268 . S
O62 Sc46 2.105 . S
O62 C53 1.268 . S
O63 Sc44 2.105 1_565 S
O63 C49 1.268 . S
O64 Sc46 2.105 1_565 S
O64 C48 1.268 . S
O65 Sc45 2.105 1_565 S
O65 C50 1.268 . S
Sc66 O69 2.025 . S
Sc66 O76 2.105 . S
Sc66 O79 2.105 1_455 S
Sc66 O82 2.105 1_455 S
Sc66 O85 2.105 . S
Sc67 O69 2.025 . S
Sc67 O77 2.105 . S
Sc67 O81 2.105 1_455 S
Sc67 O83 2.105 1_455 S
Sc67 O87 2.105 . S
Sc68 O69 2.025 . S
Sc68 O78 2.105 . S
Sc68 O80 2.105 1_455 S
Sc68 O84 2.105 1_455 S
Sc68 O86 2.105 . S
O69 Sc66 2.025 . S
O69 Sc67 2.025 . S
O69 Sc68 2.025 . S
C70 O76 1.268 . S
C70 O86 1.268 . S
C71 O77 1.268 . S
C71 O85 1.268 . S
C72 O78 1.268 . S
C72 O87 1.268 . S
C73 O79 1.268 . S
C73 O83 1.268 . S
C74 O80 1.268 . S
C74 O82 1.268 . S
C75 O81 1.268 . S
C75 O84 1.268 . S
O76 Sc66 2.105 . S
O76 C70 1.268 . S
O77 Sc67 2.105 . S
O77 C71 1.268 . S
O78 Sc68 2.105 . S
O78 C72 1.268 . S
O79 Sc66 2.105 1_655 S
O79 C73 1.268 . S
O80 Sc68 2.105 1_655 S
O80 C74 1.268 . S
O81 Sc67 2.105 1_655 S
O81 C75 1.268 . S
O82 Sc66 2.105 1_655 S
O82 C74 1.268 . S
O83 Sc67 2.105 1_655 S
O83 C73 1.268 . S
O84 Sc68 2.105 1_655 S
O84 C75 1.268 . S
O85 Sc66 2.105 . S
O85 C71 1.268 . S
O86 Sc68 2.105 . S
O86 C70 1.268 . S
O87 Sc67 2.105 . S
O87 C72 1.268 . S
Sc88 O91 2.025 . S
Sc88 O98 2.105 . S
Sc88 O101 2.105 . S
Sc88 O104 2.105 . S
Sc88 O107 2.105 . S
Sc89 O91 2.025 . S
Sc89 O99 2.105 . S
Sc89 O103 2.105 . S
Sc89 O105 2.105 . S
Sc89 O109 2.105 . S
Sc90 O91 2.025 . S
Sc90 O100 2.105 . S
Sc90 O102 2.105 . S
Sc90 O106 2.105 . S
Sc90 O108 2.105 . S
O91 Sc88 2.025 . S
O91 Sc89 2.025 . S
O91 Sc90 2.025 . S
C92 O98 1.268 . S
C92 O108 1.268 . S
C93 O99 1.268 . S
C93 O107 1.268 . S
C94 O100 1.268 . S
C94 O109 1.268 . S
C95 O101 1.268 . S
C95 O105 1.268 . S
C96 O102 1.268 . S
C96 O104 1.268 . S
C97 O103 1.268 . S
C97 O106 1.268 . S
O98 Sc88 2.105 . S
O98 C92 1.268 . S
O99 Sc89 2.105 . S
O99 C93 1.268 . S
O100 Sc90 2.105 . S
O100 C94 1.268 . S
O101 Sc88 2.105 . S
O101 C95 1.268 . S
O102 Sc90 2.105 . S
O102 C96 1.268 . S
O103 Sc89 2.105 . S
O103 C97 1.268 . S
O104 Sc88 2.105 . S
O104 C96 1.268 . S
O105 Sc89 2.105 . S
O105 C95 1.268 . S
O106 Sc90 2.105 . S
O106 C97 1.268 . S
O107 Sc88 2.105 . S
O107 C93 1.268 . S
O108 Sc90 2.105 . S
O108 C92 1.268 . S
O109 Sc89 2.105 . S
O109 C94 1.268 . S
Sc110 O113 2.025 . S
Sc110 O120 2.105 1_545 S
Sc110 O123 2.105 . S
Sc110 O126 2.105 . S
Sc110 O129 2.105 1_545 S
Sc111 O113 2.025 . S
Sc111 O121 2.105 1_545 S
Sc111 O125 2.105 . S
Sc111 O127 2.105 . S
Sc111 O131 2.105 1_545 S
Sc112 O113 2.025 . S
Sc112 O122 2.105 1_545 S
Sc112 O124 2.105 . S
Sc112 O128 2.105 . S
Sc112 O130 2.105 1_545 S
O113 Sc110 2.025 . S
O113 Sc111 2.025 . S
O113 Sc112 2.025 . S
C114 O120 1.268 . S
C114 O130 1.268 . S
C115 O121 1.268 . S
C115 O129 1.268 . S
C116 O122 1.268 . S
C116 O131 1.268 . S
C117 O123 1.268 . S
C117 O127 1.268 . S
C118 O124 1.268 . S
C118 O126 1.268 . S
C119 O125 1.268 . S
C119 O128 1.268 . S
O120 Sc110 2.105 1_565 S
O120 C114 1.268 . S
O121 Sc111 2.105 1_565 S
O121 C115 1.268 . S
O122 Sc112 2.105 1_565 S
O122 C116 1.268 . S
O123 Sc110 2.105 . S
O123 C117 1.268 . S
O124 Sc112 2.105 . S
O124 C118 1.268 . S
O125 Sc111 2.105 . S
O125 C119 1.268 . S
O126 Sc110 2.105 . S
O126 C118 1.268 . S
O127 Sc111 2.105 . S
O127 C117 1.268 . S
O128 Sc112 2.105 . S
O128 C119 1.268 . S
O129 Sc110 2.105 1_565 S
O129 C115 1.268 . S
O130 Sc112 2.105 1_565 S
O130 C114 1.268 . S
O131 Sc111 2.105 1_565 S
O131 C116 1.268 . S
Sc132 O135 2.025 . S
Sc132 O142 2.105 . S
Sc132 O145 2.105 . S
Sc132 O148 2.105 . S
Sc132 O151 2.105 . S
Sc133 O135 2.025 . S
Sc133 O143 2.105 . S
Sc133 O147 2.105 . S
Sc133 O149 2.105 . S
Sc133 O153 2.105 . S
Sc134 O135 2.025 . S
Sc134 O144 2.105 . S
Sc134 O146 2.105 1_554 S
Sc134 O150 2.105 . S
Sc134 O152 2.105 1_554 S
O135 Sc132 2.025 . S
O135 Sc133 2.025 . S
O135 Sc134 2.025 . S
C136 O142 1.268 1_556 S
C136 O152 1.268 . S
C137 O143 1.268 . S
C137 O151 1.268 . S
C138 O144 1.268 . S
C138 O153 1.268 . S
C139 O145 1.268 . S
C139 O149 1.268 . S
C140 O146 1.268 . S
C140 O148 1.268 1_556 S
C141 O147 1.268 . S
C141 O150 1.268 . S
O142 Sc132 2.105 . S
O142 C136 1.268 1_554 S
O143 Sc133 2.105 . S
O143 C137 1.268 . S
O144 Sc134 2.105 . S
O144 C138 1.268 . S
O145 Sc132 2.105 . S
O145 C139 1.268 . S
O146 Sc134 2.105 1_556 S
O146 C140 1.268 . S
O147 Sc133 2.105 . S
O147 C141 1.268 . S
O148 Sc132 2.105 . S
O148 C140 1.268 1_554 S
O149 Sc133 2.105 . S
O149 C139 1.268 . S
O150 Sc134 2.105 . S
O150 C141 1.268 . S
O151 Sc132 2.105 . S
O151 C137 1.268 . S
O152 Sc134 2.105 1_556 S
O152 C136 1.268 . S
O153 Sc133 2.105 . S
O153 C138 1.268 . S
Sc154 O157 2.025 . S
Sc154 O164 2.105 . S
Sc154 O167 2.105 . S
Sc154 O170 2.105 . S
Sc154 O173 2.105 . S
Sc155 O157 2.025 . S
Sc155 O165 2.105 . S
Sc155 O169 2.105 . S
Sc155 O171 2.105 . S
Sc155 O175 2.105 . S
Sc156 O157 2.025 . S
Sc156 O166 2.105 . S
Sc156 O168 2.105 1_554 S
Sc156 O172 2.105 . S
Sc156 O174 2.105 1_554 S
O157 Sc154 2.025 . S
O157 Sc155 2.025 . S
O157 Sc156 2.025 . S
C158 O164 1.268 1_556 S
C158 O174 1.268 . S
C159 O165 1.268 . S
C159 O173 1.268 . S
C160 O166 1.268 . S
C160 O175 1.268 . S
C161 O167 1.268 . S
C161 O171 1.268 . S
C162 O168 1.268 . S
C162 O170 1.268 1_556 S
C163 O169 1.268 . S
C163 O172 1.268 . S
O164 Sc154 2.105 . S
O164 C158 1.268 1_554 S
O165 Sc155 2.105 . S
O165 C159 1.268 . S
O166 Sc156 2.105 . S
O166 C160 1.268 . S
O167 Sc154 2.105 . S
O167 C161 1.268 . S
O168 Sc156 2.105 1_556 S
O168 C162 1.268 . S
O169 Sc155 2.105 . S
O169 C163 1.268 . S
O170 Sc154 2.105 . S
O170 C162 1.268 1_554 S
O171 Sc155 2.105 . S
O171 C161 1.268 . S
O172 Sc156 2.105 . S
O172 C163 1.268 . S
O173 Sc154 2.105 . S
O173 C159 1.268 . S
O174 Sc156 2.105 1_556 S
O174 C158 1.268 . S
O175 Sc155 2.105 . S
O175 C160 1.268 . S
Sc176 O179 2.025 . S
Sc176 O186 2.105 . S
Sc176 O189 2.105 . S
Sc176 O192 2.105 . S
Sc176 O195 2.105 . S
Sc177 O179 2.025 . S
Sc177 O187 2.105 . S
Sc177 O191 2.105 . S
Sc177 O193 2.105 . S
Sc177 O197 2.105 . S
Sc178 O179 2.025 . S
Sc178 O188 2.105 . S
Sc178 O190 2.105 1_554 S
Sc178 O194 2.105 . S
Sc178 O196 2.105 1_554 S
O179 Sc176 2.025 . S
O179 Sc177 2.025 . S
O179 Sc178 2.025 . S
C180 O186 1.268 1_556 S
C180 O196 1.268 . S
C181 O187 1.268 . S
C181 O195 1.268 . S
C182 O188 1.268 . S
C182 O197 1.268 . S
C183 O189 1.268 . S
C183 O193 1.268 . S
C184 O190 1.268 . S
C184 O192 1.268 1_556 S
C185 O191 1.268 . S
C185 O194 1.268 . S
O186 Sc176 2.105 . S
O186 C180 1.268 1_554 S
O187 Sc177 2.105 . S
O187 C181 1.268 . S
O188 Sc178 2.105 . S
O188 C182 1.268 . S
O189 Sc176 2.105 . S
O189 C183 1.268 . S
O190 Sc178 2.105 1_556 S
O190 C184 1.268 . S
O191 Sc177 2.105 . S
O191 C185 1.268 . S
O192 Sc176 2.105 . S
O192 C184 1.268 1_554 S
O193 Sc177 2.105 . S
O193 C183 1.268 . S
O194 Sc178 2.105 . S
O194 C185 1.268 . S
O195 Sc176 2.105 . S
O195 C181 1.268 . S
O196 Sc178 2.105 1_556 S
O196 C180 1.268 . S
O197 Sc177 2.105 . S
O197 C182 1.268 . S
Sc198 O201 2.025 . S
Sc198 O208 2.105 . S
Sc198 O211 2.105 . S
Sc198 O214 2.105 . S
Sc198 O217 2.105 . S
Sc199 O201 2.025 . S
Sc199 O209 2.105 . S
Sc199 O213 2.105 . S
Sc199 O215 2.105 . S
Sc199 O219 2.105 . S
Sc200 O201 2.025 . S
Sc200 O210 2.105 . S
Sc200 O212 2.105 . S
Sc200 O216 2.105 . S
Sc200 O218 2.105 . S
O201 Sc198 2.025 . S
O201 Sc199 2.025 . S
O201 Sc200 2.025 . S
C202 O208 1.268 . S
C202 O218 1.268 . S
C203 O209 1.268 . S
C203 O217 1.268 . S
C204 O210 1.268 . S
C204 O219 1.268 . S
C205 O211 1.268 . S
C205 O215 1.268 . S
C206 O212 1.268 . S
C206 O214 1.268 . S
C207 O213 1.268 . S
C207 O216 1.268 . S
O208 Sc198 2.105 . S
O208 C202 1.268 . S
O209 Sc199 2.105 . S
O209 C203 1.268 . S
O210 Sc200 2.105 . S
O210 C204 1.268 . S
O211 Sc198 2.105 . S
O211 C205 1.268 . S
O212 Sc200 2.105 . S
O212 C206 1.268 . S
O213 Sc199 2.105 . S
O213 C207 1.268 . S
O214 Sc198 2.105 . S
O214 C206 1.268 . S
O215 Sc199 2.105 . S
O215 C205 1.268 . S
O216 Sc200 2.105 . S
O216 C207 1.268 . S
O217 Sc198 2.105 . S
O217 C203 1.268 . S
O218 Sc200 2.105 . S
O218 C202 1.268 . S
O219 Sc199 2.105 . S
O219 C204 1.268 . S
Sc220 O223 2.025 . S
Sc220 O230 2.105 . S
Sc220 O233 2.105 . S
Sc220 O236 2.105 . S
Sc220 O239 2.105 . S
Sc221 O223 2.025 . S
Sc221 O231 2.105 . S
Sc221 O235 2.105 . S
Sc221 O237 2.105 . S
Sc221 O241 2.105 . S
Sc222 O223 2.025 . S
Sc222 O232 2.105 . S
Sc222 O234 2.105 . S
Sc222 O238 2.105 . S
Sc222 O240 2.105 . S
O223 Sc220 2.025 . S
O223 Sc221 2.025 . S
O223 Sc222 2.025 . S
C224 O230 1.268 . S
C224 O240 1.268 . S
C225 O231 1.268 . S
C225 O239 1.268 . S
C226 O232 1.268 . S
C226 O241 1.268 . S
C227 O233 1.268 . S
C227 O237 1.268 . S
C228 O234 1.268 . S
C228 O236 1.268 . S
C229 O235 1.268 . S
C229 O238 1.268 . S
O230 Sc220 2.105 . S
O230 C224 1.268 . S
O231 Sc221 2.105 . S
O231 C225 1.268 . S
O232 Sc222 2.105 . S
O232 C226 1.268 . S
O233 Sc220 2.105 . S
O233 C227 1.268 . S
O234 Sc222 2.105 . S
O234 C228 1.268 . S
O235 Sc221 2.105 . S
O235 C229 1.268 . S
O236 Sc220 2.105 . S
O236 C228 1.268 . S
O237 Sc221 2.105 . S
O237 C227 1.268 . S
O238 Sc222 2.105 . S
O238 C229 1.268 . S
O239 Sc220 2.105 . S
O239 C225 1.268 . S
O240 Sc222 2.105 . S
O240 C224 1.268 . S
O241 Sc221 2.105 . S
O241 C226 1.268 . S
Sc242 O245 2.025 . S
Sc242 O252 2.105 . S
Sc242 O255 2.105 . S
Sc242 O258 2.105 . S
Sc242 O261 2.105 . S
Sc243 O245 2.025 . S
Sc243 O253 2.105 . S
Sc243 O257 2.105 . S
Sc243 O259 2.105 . S
Sc243 O263 2.105 . S
Sc244 O245 2.025 . S
Sc244 O254 2.105 . S
Sc244 O256 2.105 . S
Sc244 O260 2.105 . S
Sc244 O262 2.105 . S
O245 Sc242 2.025 . S
O245 Sc243 2.025 . S
O245 Sc244 2.025 . S
C246 O252 1.268 . S
C246 O262 1.268 . S
C247 O253 1.268 . S
C247 O261 1.268 . S
C248 O254 1.268 . S
C248 O263 1.268 . S
C249 O255 1.268 . S
C249 O259 1.268 . S
C250 O256 1.268 . S
C250 O258 1.268 . S
C251 O257 1.268 . S
C251 O260 1.268 . S
O252 Sc242 2.105 . S
O252 C246 1.268 . S
O253 Sc243 2.105 . S
O253 C247 1.268 . S
O254 Sc244 2.105 . S
O254 C248 1.268 . S
O255 Sc242 2.105 . S
O255 C249 1.268 . S
O256 Sc244 2.105 . S
O256 C250 1.268 . S
O257 Sc243 2.105 . S
O257 C251 1.268 . S
O258 Sc242 2.105 . S
O258 C250 1.268 . S
O259 Sc243 2.105 . S
O259 C249 1.268 . S
O260 Sc244 2.105 . S
O260 C251 1.268 . S
O261 Sc242 2.105 . S
O261 C247 1.268 . S
O262 Sc244 2.105 . S
O262 C246 1.268 . S
O263 Sc243 2.105 . S
O263 C248 1.268 . S
Sc264 O267 2.025 . S
Sc264 O274 2.105 . S
Sc264 O277 2.105 . S
Sc264 O280 2.105 . S
Sc264 O283 2.105 . S
Sc265 O267 2.025 . S
Sc265 O275 2.105 . S
Sc265 O279 2.105 . S
Sc265 O281 2.105 . S
Sc265 O285 2.105 . S
Sc266 O267 2.025 . S
Sc266 O276 2.105 . S
Sc266 O278 2.105 . S
Sc266 O282 2.105 . S
Sc266 O284 2.105 . S
O267 Sc264 2.025 . S
O267 Sc265 2.025 . S
O267 Sc266 2.025 . S
C268 O274 1.268 . S
C268 O284 1.268 . S
C269 O275 1.268 . S
C269 O283 1.268 . S
C270 O276 1.268 . S
C270 O285 1.268 . S
C271 O277 1.268 . S
C271 O281 1.268 . S
C272 O278 1.268 . S
C272 O280 1.268 . S
C273 O279 1.268 . S
C273 O282 1.268 . S
O274 Sc264 2.105 . S
O274 C268 1.268 . S
O275 Sc265 2.105 . S
O275 C269 1.268 . S
O276 Sc266 2.105 . S
O276 C270 1.268 . S
O277 Sc264 2.105 . S
O277 C271 1.268 . S
O278 Sc266 2.105 . S
O278 C272 1.268 . S
O279 Sc265 2.105 . S
O279 C273 1.268 . S
O280 Sc264 2.105 . S
O280 C272 1.268 . S
O281 Sc265 2.105 . S
O281 C271 1.268 . S
O282 Sc266 2.105 . S
O282 C273 1.268 . S
O283 Sc264 2.105 . S
O283 C269 1.268 . S
O284 Sc266 2.105 . S
O284 C268 1.268 . S
O285 Sc265 2.105 . S
O285 C270 1.268 . S
Sc286 O289 2.025 . S
Sc286 O296 2.105 . S
Sc286 O299 2.105 . S
Sc286 O302 2.105 . S
Sc286 O305 2.105 . S
Sc287 O289 2.025 . S
Sc287 O297 2.105 . S
Sc287 O301 2.105 . S
Sc287 O303 2.105 . S
Sc287 O307 2.105 . S
Sc288 O289 2.025 . S
Sc288 O298 2.105 . S
Sc288 O300 2.105 . S
Sc288 O304 2.105 . S
Sc288 O306 2.105 . S
O289 Sc286 2.025 . S
O289 Sc287 2.025 . S
O289 Sc288 2.025 . S
C290 O296 1.268 . S
C290 O306 1.268 . S
C291 O297 1.268 . S
C291 O305 1.268 . S
C292 O298 1.268 . S
C292 O307 1.268 . S
C293 O299 1.268 . S
C293 O303 1.268 . S
C294 O300 1.268 . S
C294 O302 1.268 . S
C295 O301 1.268 . S
C295 O304 1.268 . S
O296 Sc286 2.105 . S
O296 C290 1.268 . S
O297 Sc287 2.105 . S
O297 C291 1.268 . S
O298 Sc288 2.105 . S
O298 C292 1.268 . S
O299 Sc286 2.105 . S
O299 C293 1.268 . S
O300 Sc288 2.105 . S
O300 C294 1.268 . S
O301 Sc287 2.105 . S
O301 C295 1.268 . S
O302 Sc286 2.105 . S
O302 C294 1.268 . S
O303 Sc287 2.105 . S
O303 C293 1.268 . S
O304 Sc288 2.105 . S
O304 C295 1.268 . S
O305 Sc286 2.105 . S
O305 C291 1.268 . S
O306 Sc288 2.105 . S
O306 C290 1.268 . S
O307 Sc287 2.105 . S
O307 C292 1.268 . S
Sc308 O311 2.025 . S
Sc308 O318 2.105 . S
Sc308 O321 2.105 . S
Sc308 O324 2.105 . S
Sc308 O327 2.105 . S
Sc309 O311 2.025 . S
Sc309 O319 2.105 . S
Sc309 O323 2.105 . S
Sc309 O325 2.105 . S
Sc309 O329 2.105 . S
Sc310 O311 2.025 . S
Sc310 O320 2.105 . S
Sc310 O322 2.105 . S
Sc310 O326 2.105 . S
Sc310 O328 2.105 . S
O311 Sc308 2.025 . S
O311 Sc309 2.025 . S
O311 Sc310 2.025 . S
C312 O318 1.268 . S
C312 O328 1.268 . S
C313 O319 1.268 . S
C313 O327 1.268 . S
C314 O320 1.268 . S
C314 O329 1.268 . S
C315 O321 1.268 . S
C315 O325 1.268 . S
C316 O322 1.268 . S
C316 O324 1.268 . S
C317 O323 1.268 . S
C317 O326 1.268 . S
O318 Sc308 2.105 . S
O318 C312 1.268 . S
O319 Sc309 2.105 . S
O319 C313 1.268 . S
O320 Sc310 2.105 . S
O320 C314 1.268 . S
O321 Sc308 2.105 . S
O321 C315 1.268 . S
O322 Sc310 2.105 . S
O322 C316 1.268 . S
O323 Sc309 2.105 . S
O323 C317 1.268 . S
O324 Sc308 2.105 . S
O324 C316 1.268 . S
O325 Sc309 2.105 . S
O325 C315 1.268 . S
O326 Sc310 2.105 . S
O326 C317 1.268 . S
O327 Sc308 2.105 . S
O327 C313 1.268 . S
O328 Sc310 2.105 . S
O328 C312 1.268 . S
O329 Sc309 2.105 . S
O329 C314 1.268 . S
Sc330 O333 2.025 . S
Sc330 O340 2.105 . S
Sc330 O343 2.105 . S
Sc330 O346 2.105 . S
Sc330 O349 2.105 . S
Sc331 O333 2.025 . S
Sc331 O341 2.105 . S
Sc331 O345 2.105 . S
Sc331 O347 2.105 . S
Sc331 O351 2.105 . S
Sc332 O333 2.025 . S
Sc332 O342 2.105 . S
Sc332 O344 2.105 1_556 S
Sc332 O348 2.105 . S
Sc332 O350 2.105 1_556 S
O333 Sc330 2.025 . S
O333 Sc331 2.025 . S
O333 Sc332 2.025 . S
C334 O340 1.268 1_554 S
C334 O350 1.268 . S
C335 O341 1.268 . S
C335 O349 1.268 . S
C336 O342 1.268 . S
C336 O351 1.268 . S
C337 O343 1.268 . S
C337 O347 1.268 . S
C338 O344 1.268 . S
C338 O346 1.268 1_554 S
C339 O345 1.268 . S
C339 O348 1.268 . S
O340 Sc330 2.105 . S
O340 C334 1.268 1_556 S
O341 Sc331 2.105 . S
O341 C335 1.268 . S
O342 Sc332 2.105 . S
O342 C336 1.268 . S
O343 Sc330 2.105 . S
O343 C337 1.268 . S
O344 Sc332 2.105 1_554 S
O344 C338 1.268 . S
O345 Sc331 2.105 . S
O345 C339 1.268 . S
O346 Sc330 2.105 . S
O346 C338 1.268 1_556 S
O347 Sc331 2.105 . S
O347 C337 1.268 . S
O348 Sc332 2.105 . S
O348 C339 1.268 . S
O349 Sc330 2.105 . S
O349 C335 1.268 . S
O350 Sc332 2.105 1_554 S
O350 C334 1.268 . S
O351 Sc331 2.105 . S
O351 C336 1.268 . S
Sc352 O355 2.025 . S
Sc352 O362 2.105 . S
Sc352 O365 2.105 . S
Sc352 O368 2.105 . S
Sc352 O371 2.105 . S
Sc353 O355 2.025 . S
Sc353 O363 2.105 . S
Sc353 O367 2.105 1_556 S
Sc353 O369 2.105 . S
Sc353 O373 2.105 1_556 S
Sc354 O355 2.025 . S
Sc354 O364 2.105 . S
Sc354 O366 2.105 . S
Sc354 O370 2.105 . S
Sc354 O372 2.105 . S
O355 Sc352 2.025 . S
O355 Sc353 2.025 . S
O355 Sc354 2.025 . S
C356 O362 1.268 . S
C356 O372 1.268 . S
C357 O363 1.268 . S
C357 O371 1.268 . S
C358 O364 1.268 1_554 S
C358 O373 1.268 . S
C359 O365 1.268 . S
C359 O369 1.268 . S
C360 O366 1.268 . S
C360 O368 1.268 . S
C361 O367 1.268 . S
C361 O370 1.268 1_554 S
O362 Sc352 2.105 . S
O362 C356 1.268 . S
O363 Sc353 2.105 . S
O363 C357 1.268 . S
O364 Sc354 2.105 . S
O364 C358 1.268 1_556 S
O365 Sc352 2.105 . S
O365 C359 1.268 . S
O366 Sc354 2.105 . S
O366 C360 1.268 . S
O367 Sc353 2.105 1_554 S
O367 C361 1.268 . S
O368 Sc352 2.105 . S
O368 C360 1.268 . S
O369 Sc353 2.105 . S
O369 C359 1.268 . S
O370 Sc354 2.105 . S
O370 C361 1.268 1_556 S
O371 Sc352 2.105 . S
O371 C357 1.268 . S
O372 Sc354 2.105 . S
O372 C356 1.268 . S
O373 Sc353 2.105 1_554 S
O373 C358 1.268 . S
Sc374 O377 2.025 . S
Sc374 O384 2.105 . S
Sc374 O387 2.105 . S
Sc374 O390 2.105 . S
Sc374 O393 2.105 . S
Sc375 O377 2.025 . S
Sc375 O385 2.105 . S
Sc375 O389 2.105 1_556 S
Sc375 O391 2.105 . S
Sc375 O395 2.105 1_556 S
Sc376 O377 2.025 . S
Sc376 O386 2.105 . S
Sc376 O388 2.105 . S
Sc376 O392 2.105 . S
Sc376 O394 2.105 . S
O377 Sc374 2.025 . S
O377 Sc375 2.025 . S
O377 Sc376 2.025 . S
C378 O384 1.268 . S
C378 O394 1.268 . S
C379 O385 1.268 . S
C379 O393 1.268 . S
C380 O386 1.268 1_554 S
C380 O395 1.268 . S
C381 O387 1.268 . S
C381 O391 1.268 . S
C382 O388 1.268 . S
C382 O390 1.268 . S
C383 O389 1.268 . S
C383 O392 1.268 1_554 S
O384 Sc374 2.105 . S
O384 C378 1.268 . S
O385 Sc375 2.105 . S
O385 C379 1.268 . S
O386 Sc376 2.105 . S
O386 C380 1.268 1_556 S
O387 Sc374 2.105 . S
O387 C381 1.268 . S
O388 Sc376 2.105 . S
O388 C382 1.268 . S
O389 Sc375 2.105 1_554 S
O389 C383 1.268 . S
O390 Sc374 2.105 . S
O390 C382 1.268 . S
O391 Sc375 2.105 . S
O391 C381 1.268 . S
O392 Sc376 2.105 . S
O392 C383 1.268 1_556 S
O393 Sc374 2.105 . S
O393 C379 1.268 . S
O394 Sc376 2.105 . S
O394 C378 1.268 . S
O395 Sc375 2.105 1_554 S
O395 C380 1.268 . S
C396 C397 1.349 . S
C396 C398 1.327 . S
C396 H421 0.950 . S
C397 C396 1.349 . S
C397 C413 1.349 . S
C398 C396 1.327 . S
C398 C417 1.429 . S
C398 H422 0.950 . S
C399 C416 1.574 . S
C399 C418 1.368 . S
C399 H423 0.949 . S
H400 C404 0.949 . S
C401 C402 1.349 . S
C401 C403 1.327 . S
C401 H424 0.950 . S
C402 C401 1.349 . S
C402 C414 1.349 . S
C403 C401 1.327 . S
C403 C419 1.429 . S
C403 H425 0.950 . S
C404 H400 0.949 . S
C404 C412 1.574 . S
C404 C420 1.368 . S
H405 C413 0.950 . S
H406 C411 0.950 . S
H407 C412 0.949 . S
H408 C414 0.950 . S
H409 C415 0.950 . S
H410 C416 0.949 . S
C411 H406 0.950 . S
C411 C413 1.327 . S
C411 C417 1.429 . S
C412 C404 1.574 . S
C412 H407 0.949 . S
C412 C418 1.368 . S
C413 C397 1.349 . S
C413 H405 0.950 . S
C413 C411 1.327 . S
C414 C402 1.349 . S
C414 H408 0.950 . S
C414 C415 1.327 . S
C415 H409 0.950 . S
C415 C414 1.327 . S
C415 C419 1.429 . S
C416 C399 1.574 . S
C416 H410 0.949 . S
C416 C420 1.368 . S
C417 C398 1.429 . S
C417 C411 1.429 . S
C417 C418 1.523 . S
C418 C399 1.368 . S
C418 C412 1.368 . S
C418 C417 1.523 . S
C419 C403 1.429 . S
C419 C415 1.429 . S
C419 C420 1.523 . S
C420 C404 1.368 . S
C420 C416 1.368 . S
C420 C419 1.523 . S
H421 C396 0.950 . S
H422 C398 0.950 . S
H423 C399 0.949 . S
H424 C401 0.950 . S
H425 C403 0.950 . S
C426 C427 1.349 . S
C426 C428 1.327 . S
C426 H451 0.950 . S
C427 C426 1.349 . S
C427 C443 1.349 . S
C428 C426 1.327 . S
C428 C447 1.429 . S
C428 H452 0.950 . S
C429 C446 1.574 . S
C429 C448 1.368 . S
C429 H453 0.949 . S
H430 C434 0.949 . S
C431 C432 1.349 . S
C431 C433 1.327 . S
C431 H454 0.950 . S
C432 C431 1.349 . S
C432 C444 1.349 . S
C433 C431 1.327 . S
C433 C449 1.429 . S
C433 H455 0.950 . S
C434 H430 0.949 . S
C434 C442 1.574 . S
C434 C450 1.368 . S
H435 C443 0.950 . S
H436 C441 0.950 . S
H437 C442 0.949 . S
H438 C444 0.950 . S
H439 C445 0.950 . S
H440 C446 0.949 . S
C441 H436 0.950 . S
C441 C443 1.327 . S
C441 C447 1.429 . S
C442 C434 1.574 . S
C442 H437 0.949 . S
C442 C448 1.368 . S
C443 C427 1.349 . S
C443 H435 0.950 . S
C443 C441 1.327 . S
C444 C432 1.349 . S
C444 H438 0.950 . S
C444 C445 1.327 . S
C445 H439 0.950 . S
C445 C444 1.327 . S
C445 C449 1.429 . S
C446 C429 1.574 . S
C446 H440 0.949 . S
C446 C450 1.368 . S
C447 C428 1.429 . S
C447 C441 1.429 . S
C447 C448 1.523 . S
C448 C429 1.368 . S
C448 C442 1.368 . S
C448 C447 1.523 . S
C449 C433 1.429 . S
C449 C445 1.429 . S
C449 C450 1.523 . S
C450 C434 1.368 . S
C450 C446 1.368 . S
C450 C449 1.523 . S
H451 C426 0.950 . S
H452 C428 0.950 . S
H453 C429 0.949 . S
H454 C431 0.950 . S
H455 C433 0.950 . S
C456 C457 1.349 . S
C456 C458 1.327 . S
C456 H481 0.950 . S
C457 C456 1.349 . S
C457 C473 1.349 . S
C458 C456 1.327 . S
C458 C477 1.429 . S
C458 H482 0.950 . S
C459 C476 1.574 . S
C459 C478 1.368 . S
C459 H483 0.949 . S
H460 C464 0.949 . S
C461 C462 1.349 . S
C461 C463 1.327 . S
C461 H484 0.950 . S
C462 C461 1.349 . S
C462 C474 1.349 . S
C463 C461 1.327 . S
C463 C479 1.429 . S
C463 H485 0.950 . S
C464 H460 0.949 . S
C464 C472 1.574 . S
C464 C480 1.368 . S
H465 C473 0.950 . S
H466 C471 0.950 . S
H467 C472 0.949 . S
H468 C474 0.950 . S
H469 C475 0.950 . S
H470 C476 0.949 . S
C471 H466 0.950 . S
C471 C473 1.327 . S
C471 C477 1.429 . S
C472 C464 1.574 . S
C472 H467 0.949 . S
C472 C478 1.368 . S
C473 C457 1.349 . S
C473 H465 0.950 . S
C473 C471 1.327 . S
C474 C462 1.349 . S
C474 H468 0.950 . S
C474 C475 1.327 . S
C475 H469 0.950 . S
C475 C474 1.327 . S
C475 C479 1.429 . S
C476 C459 1.574 . S
C476 H470 0.949 . S
C476 C480 1.368 . S
C477 C458 1.429 . S
C477 C471 1.429 . S
C477 C478 1.523 . S
C478 C459 1.368 . S
C478 C472 1.368 . S
C478 C477 1.523 . S
C479 C463 1.429 . S
C479 C475 1.429 . S
C479 C480 1.523 . S
C480 C464 1.368 . S
C480 C476 1.368 . S
C480 C479 1.523 . S
H481 C456 0.950 . S
H482 C458 0.950 . S
H483 C459 0.949 . S
H484 C461 0.950 . S
H485 C463 0.950 . S
C486 C487 1.349 . S
C486 C488 1.327 . S
C486 H511 0.950 . S
C487 C486 1.349 . S
C487 C503 1.349 . S
C488 C486 1.327 . S
C488 C507 1.429 . S
C488 H512 0.950 . S
C489 C506 1.575 1_556 S
C489 C508 1.368 . S
C489 H513 0.949 . S
H490 C494 0.949 . S
C491 C492 1.349 . S
C491 C493 1.327 . S
C491 H514 0.950 . S
C492 C491 1.349 . S
C492 C504 1.349 . S
C493 C491 1.327 . S
C493 C509 1.429 . S
C493 H515 0.950 . S
C494 H490 0.949 . S
C494 C502 1.574 . S
C494 C510 1.368 . S
H495 C503 0.950 . S
H496 C501 0.950 . S
H497 C502 0.949 . S
H498 C504 0.950 . S
H499 C505 0.950 . S
H500 C506 0.949 1_556 S
C501 H496 0.950 . S
C501 C503 1.327 . S
C501 C507 1.429 . S
C502 C494 1.574 . S
C502 H497 0.949 . S
C502 C508 1.368 1_554 S
C503 C487 1.349 . S
C503 H495 0.950 . S
C503 C501 1.327 . S
C504 C492 1.349 . S
C504 H498 0.950 . S
C504 C505 1.327 . S
C505 H499 0.950 . S
C505 C504 1.327 . S
C505 C509 1.429 . S
C506 C489 1.575 1_554 S
C506 H500 0.949 1_554 S
C506 C510 1.367 . S
C507 C488 1.429 . S
C507 C501 1.429 . S
C507 C508 1.523 . S
C508 C489 1.368 . S
C508 C502 1.368 1_556 S
C508 C507 1.523 . S
C509 C493 1.429 . S
C509 C505 1.429 . S
C509 C510 1.523 . S
C510 C494 1.368 . S
C510 C506 1.367 . S
C510 C509 1.523 . S
H511 C486 0.950 . S
H512 C488 0.950 . S
H513 C489 0.949 . S
H514 C491 0.950 . S
H515 C493 0.950 . S
C516 C517 1.349 . S
C516 C518 1.327 . S
C516 H541 0.950 . S
C517 C516 1.349 . S
C517 C533 1.349 . S
C518 C516 1.327 . S
C518 C537 1.429 . S
C518 H542 0.950 . S
C519 C536 1.574 . S
C519 C538 1.368 . S
C519 H543 0.949 . S
H520 C524 0.949 . S
C521 C522 1.349 . S
C521 C523 1.327 . S
C521 H544 0.950 . S
C522 C521 1.349 . S
C522 C534 1.349 . S
C523 C521 1.327 . S
C523 C539 1.429 . S
C523 H545 0.950 1_556 S
C524 H520 0.949 . S
C524 C532 1.574 . S
C524 C540 1.368 . S
H525 C533 0.950 . S
H526 C531 0.950 . S
H527 C532 0.949 . S
H528 C534 0.950 . S
H529 C535 0.950 . S
H530 C536 0.949 . S
C531 H526 0.950 . S
C531 C533 1.327 . S
C531 C537 1.429 . S
C532 C524 1.574 . S
C532 H527 0.949 . S
C532 C538 1.368 1_556 S
C533 C517 1.349 . S
C533 H525 0.950 . S
C533 C531 1.327 . S
C534 C522 1.349 . S
C534 H528 0.950 . S
C534 C535 1.327 . S
C535 H529 0.950 . S
C535 C534 1.327 . S
C535 C539 1.429 . S
C536 C519 1.574 . S
C536 H530 0.949 . S
C536 C540 1.368 1_554 S
C537 C518 1.429 . S
C537 C531 1.429 . S
C537 C538 1.523 . S
C538 C519 1.368 . S
C538 C532 1.368 1_554 S
C538 C537 1.523 . S
C539 C523 1.429 . S
C539 C535 1.429 . S
C539 C540 1.523 . S
C540 C524 1.368 . S
C540 C536 1.368 1_556 S
C540 C539 1.523 . S
H541 C516 0.950 . S
H542 C518 0.950 . S
H543 C519 0.949 . S
H544 C521 0.950 . S
H545 C523 0.950 1_554 S
C546 C547 1.349 . S
C546 C548 1.327 . S
C546 H571 0.950 . S
C547 C546 1.349 . S
C547 C563 1.349 . S
C548 C546 1.327 . S
C548 C567 1.429 . S
C548 H572 0.950 . S
C549 C566 1.574 1_556 S
C549 C568 1.368 . S
C549 H573 0.949 . S
H550 C554 0.949 . S
C551 C552 1.349 . S
C551 C553 1.327 . S
C551 H574 0.950 . S
C552 C551 1.349 . S
C552 C564 1.349 . S
C553 C551 1.327 . S
C553 C569 1.429 . S
C553 H575 0.950 . S
C554 H550 0.949 . S
C554 C562 1.574 . S
C554 C570 1.368 . S
H555 C563 0.950 . S
H556 C561 0.950 . S
H557 C562 0.949 . S
H558 C564 0.950 . S
H559 C565 0.950 . S
H560 C566 0.949 1_556 S
C561 H556 0.950 . S
C561 C563 1.327 . S
C561 C567 1.429 . S
C562 C554 1.574 . S
C562 H557 0.949 . S
C562 C568 1.368 1_554 S
C563 C547 1.349 . S
C563 H555 0.950 . S
C563 C561 1.327 . S
C564 C552 1.349 . S
C564 H558 0.950 . S
C564 C565 1.327 . S
C565 H559 0.950 . S
C565 C564 1.327 . S
C565 C569 1.429 . S
C566 C549 1.574 1_554 S
C566 H560 0.949 1_554 S
C566 C570 1.368 . S
C567 C548 1.429 . S
C567 C561 1.429 . S
C567 C568 1.523 . S
C568 C549 1.368 . S
C568 C562 1.368 1_556 S
C568 C567 1.523 . S
C569 C553 1.429 . S
C569 C565 1.429 . S
C569 C570 1.523 . S
C570 C554 1.368 . S
C570 C566 1.368 . S
C570 C569 1.523 . S
H571 C546 0.950 . S
H572 C548 0.950 . S
H573 C549 0.949 . S
H574 C551 0.950 . S
H575 C553 0.950 . S
C576 C577 1.349 . S
C576 C578 1.327 . S
C576 H601 0.950 . S
C577 C576 1.349 . S
C577 C593 1.349 . S
C578 C576 1.327 . S
C578 C597 1.429 . S
C578 H602 0.950 . S
C579 C596 1.574 . S
C579 C598 1.368 . S
C579 H603 0.949 . S
H580 C584 0.949 . S
C581 C582 1.349 . S
C581 C583 1.327 . S
C581 H604 0.950 . S
C582 C581 1.349 . S
C582 C594 1.349 . S
C583 C581 1.327 . S
C583 C599 1.429 . S
C583 H605 0.950 . S
C584 H580 0.949 . S
C584 C592 1.574 . S
C584 C600 1.368 . S
H585 C593 0.950 . S
H586 C591 0.950 . S
H587 C592 0.949 . S
H588 C594 0.950 . S
H589 C595 0.950 . S
H590 C596 0.949 . S
C591 H586 0.950 . S
C591 C593 1.327 . S
C591 C597 1.429 . S
C592 C584 1.574 . S
C592 H587 0.949 . S
C592 C598 1.368 . S
C593 C577 1.349 . S
C593 H585 0.950 . S
C593 C591 1.327 . S
C594 C582 1.349 . S
C594 H588 0.950 . S
C594 C595 1.327 . S
C595 H589 0.950 . S
C595 C594 1.327 . S
C595 C599 1.429 . S
C596 C579 1.574 . S
C596 H590 0.949 . S
C596 C600 1.368 . S
C597 C578 1.429 . S
C597 C591 1.429 . S
C597 C598 1.523 . S
C598 C579 1.368 . S
C598 C592 1.368 . S
C598 C597 1.523 . S
C599 C583 1.429 . S
C599 C595 1.429 . S
C599 C600 1.523 . S
C600 C584 1.368 . S
C600 C596 1.368 . S
C600 C599 1.523 . S
H601 C576 0.950 . S
H602 C578 0.950 . S
H603 C579 0.949 . S
H604 C581 0.950 . S
H605 C583 0.950 . S
C606 C607 1.349 . S
C606 C608 1.327 . S
C606 H631 0.950 . S
C607 C606 1.349 . S
C607 C623 1.349 . S
C608 C606 1.327 . S
C608 C627 1.429 . S
C608 H632 0.950 . S
C609 C626 1.574 . S
C609 C628 1.368 . S
C609 H633 0.949 . S
H610 C614 0.949 . S
C611 C612 1.349 . S
C611 C613 1.327 . S
C611 H634 0.950 . S
C612 C611 1.349 . S
C612 C624 1.349 . S
C613 C611 1.327 . S
C613 C629 1.429 . S
C613 H635 0.950 . S
C614 H610 0.949 . S
C614 C622 1.574 . S
C614 C630 1.368 . S
H615 C623 0.950 . S
H616 C621 0.950 . S
H617 C622 0.949 . S
H618 C624 0.950 . S
H619 C625 0.950 . S
H620 C626 0.949 . S
C621 H616 0.950 . S
C621 C623 1.327 . S
C621 C627 1.429 . S
C622 C614 1.574 . S
C622 H617 0.949 . S
C622 C628 1.368 . S
C623 C607 1.349 . S
C623 H615 0.950 . S
C623 C621 1.327 . S
C624 C612 1.349 . S
C624 H618 0.950 . S
C624 C625 1.327 . S
C625 H619 0.950 . S
C625 C624 1.327 . S
C625 C629 1.429 . S
C626 C609 1.574 . S
C626 H620 0.949 . S
C626 C630 1.368 . S
C627 C608 1.429 . S
C627 C621 1.429 . S
C627 C628 1.523 . S
C628 C609 1.368 . S
C628 C622 1.368 . S
C628 C627 1.523 . S
C629 C613 1.429 . S
C629 C625 1.429 . S
C629 C630 1.523 . S
C630 C614 1.368 . S
C630 C626 1.368 . S
C630 C629 1.523 . S
H631 C606 0.950 . S
H632 C608 0.950 . S
H633 C609 0.949 . S
H634 C611 0.950 . S
H635 C613 0.950 . S
C636 C637 1.349 . S
C636 C638 1.327 . S
C636 H661 0.950 . S
C637 C636 1.349 . S
C637 C653 1.349 . S
C638 C636 1.327 . S
C638 C657 1.429 . S
C638 H662 0.950 . S
C639 C656 1.574 . S
C639 C658 1.368 . S
C639 H663 0.949 . S
H640 C644 0.949 . S
C641 C642 1.349 . S
C641 C643 1.327 . S
C641 H664 0.950 . S
C642 C641 1.349 . S
C642 C654 1.349 . S
C643 C641 1.327 . S
C643 C659 1.429 . S
C643 H665 0.950 . S
C644 H640 0.949 . S
C644 C652 1.574 . S
C644 C660 1.368 . S
H645 C653 0.950 . S
H646 C651 0.950 . S
H647 C652 0.949 . S
H648 C654 0.950 . S
H649 C655 0.950 . S
H650 C656 0.949 . S
C651 H646 0.950 . S
C651 C653 1.327 . S
C651 C657 1.429 . S
C652 C644 1.574 . S
C652 H647 0.949 . S
C652 C658 1.368 . S
C653 C637 1.349 . S
C653 H645 0.950 . S
C653 C651 1.327 . S
C654 C642 1.349 . S
C654 H648 0.950 . S
C654 C655 1.327 . S
C655 H649 0.950 . S
C655 C654 1.327 . S
C655 C659 1.429 . S
C656 C639 1.574 . S
C656 H650 0.949 . S
C656 C660 1.368 . S
C657 C638 1.429 . S
C657 C651 1.429 . S
C657 C658 1.523 . S
C658 C639 1.368 . S
C658 C652 1.368 . S
C658 C657 1.523 . S
C659 C643 1.429 . S
C659 C655 1.429 . S
C659 C660 1.523 . S
C660 C644 1.368 . S
C660 C656 1.368 . S
C660 C659 1.523 . S
H661 C636 0.950 . S
H662 C638 0.950 . S
H663 C639 0.949 . S
H664 C641 0.950 . S
H665 C643 0.950 . S
C666 C667 1.349 . S
C666 C668 1.327 . S
C666 H691 0.950 . S
C667 C666 1.349 . S
C667 C683 1.349 . S
C668 C666 1.327 . S
C668 C687 1.429 . S
C668 H692 0.950 . S
C669 C686 1.574 . S
C669 C688 1.368 1_556 S
C669 H693 0.949 . S
H670 C674 0.949 . S
C671 C672 1.349 . S
C671 C673 1.327 . S
C671 H694 0.950 . S
C672 C671 1.349 . S
C672 C684 1.349 . S
C673 C671 1.327 . S
C673 C689 1.429 . S
C673 H695 0.950 . S
C674 H670 0.949 . S
C674 C682 1.574 1_556 S
C674 C690 1.368 . S
H675 C683 0.950 . S
H676 C681 0.950 . S
H677 C682 0.949 . S
H678 C684 0.950 . S
H679 C685 0.950 . S
H680 C686 0.949 . S
C681 H676 0.950 . S
C681 C683 1.327 . S
C681 C687 1.429 . S
C682 C674 1.574 1_554 S
C682 H677 0.949 . S
C682 C688 1.368 . S
C683 C667 1.349 . S
C683 H675 0.950 . S
C683 C681 1.327 . S
C684 C672 1.349 . S
C684 H678 0.950 . S
C684 C685 1.327 . S
C685 H679 0.950 . S
C685 C684 1.327 . S
C685 C689 1.429 . S
C686 C669 1.574 . S
C686 H680 0.949 . S
C686 C690 1.368 . S
C687 C668 1.429 . S
C687 C681 1.429 . S
C687 C688 1.523 . S
C688 C669 1.368 1_554 S
C688 C682 1.368 . S
C688 C687 1.523 . S
C689 C673 1.429 . S
C689 C685 1.429 . S
C689 C690 1.523 . S
C690 C674 1.368 . S
C690 C686 1.368 . S
C690 C689 1.523 . S
H691 C666 0.950 . S
H692 C668 0.950 . S
H693 C669 0.949 . S
H694 C671 0.950 . S
H695 C673 0.950 . S
C696 C697 1.349 . S
C696 C698 1.327 . S
C696 H721 0.950 . S
C697 C696 1.349 . S
C697 C713 1.349 . S
C698 C696 1.327 . S
C698 C717 1.429 . S
C698 H722 0.950 . S
C699 C716 1.574 . S
C699 C718 1.368 . S
C699 H723 0.949 . S
H700 C704 0.949 . S
C701 C702 1.349 . S
C701 C703 1.327 . S
C701 H724 0.950 . S
C702 C701 1.349 . S
C702 C714 1.349 . S
C703 C701 1.327 . S
C703 C719 1.429 . S
C703 H725 0.950 . S
C704 H700 0.949 . S
C704 C712 1.574 1_554 S
C704 C720 1.368 . S
H705 C713 0.950 . S
H706 C711 0.950 . S
H707 C712 0.949 . S
H708 C714 0.950 . S
H709 C715 0.950 . S
H710 C716 0.949 1_554 S
C711 H706 0.950 . S
C711 C713 1.327 . S
C711 C717 1.429 . S
C712 C704 1.574 1_556 S
C712 H707 0.949 . S
C712 C718 1.368 . S
C713 C697 1.349 . S
C713 H705 0.950 . S
C713 C711 1.327 . S
C714 C702 1.349 . S
C714 H708 0.950 . S
C714 C715 1.327 . S
C715 H709 0.950 . S
C715 C714 1.327 . S
C715 C719 1.429 . S
C716 C699 1.574 . S
C716 H710 0.949 1_556 S
C716 C720 1.368 1_556 S
C717 C698 1.429 . S
C717 C711 1.429 . S
C717 C718 1.523 . S
C718 C699 1.368 . S
C718 C712 1.368 . S
C718 C717 1.523 . S
C719 C703 1.429 . S
C719 C715 1.429 . S
C719 C720 1.523 . S
C720 C704 1.368 . S
C720 C716 1.368 1_554 S
C720 C719 1.523 . S
H721 C696 0.950 . S
H722 C698 0.950 . S
H723 C699 0.949 . S
H724 C701 0.950 . S
H725 C703 0.950 . S
C726 C727 1.349 . S
C726 C728 1.327 . S
C726 H751 0.950 . S
C727 C726 1.349 . S
C727 C743 1.349 . S
C728 C726 1.327 . S
C728 C747 1.429 . S
C728 H752 0.950 . S
C729 C746 1.574 . S
C729 C748 1.368 . S
C729 H753 0.949 . S
H730 C734 0.949 . S
C731 C732 1.349 . S
C731 C733 1.327 . S
C731 H754 0.950 . S
C732 C731 1.349 . S
C732 C744 1.349 . S
C733 C731 1.327 . S
C733 C749 1.429 . S
C733 H755 0.950 . S
C734 H730 0.949 . S
C734 C742 1.574 1_554 S
C734 C750 1.368 . S
H735 C743 0.950 . S
H736 C741 0.950 . S
H737 C742 0.949 1_554 S
H738 C744 0.950 . S
H739 C745 0.950 . S
H740 C746 0.949 . S
C741 H736 0.950 . S
C741 C743 1.327 . S
C741 C747 1.429 . S
C742 C734 1.574 1_556 S
C742 H737 0.949 1_556 S
C742 C748 1.368 . S
C743 C727 1.349 . S
C743 H735 0.950 . S
C743 C741 1.327 . S
C744 C732 1.349 . S
C744 H738 0.950 . S
C744 C745 1.327 . S
C745 H739 0.950 . S
C745 C744 1.327 . S
C745 C749 1.429 . S
C746 C729 1.574 . S
C746 H740 0.949 . S
C746 C750 1.368 1_556 S
C747 C728 1.429 . S
C747 C741 1.429 . S
C747 C748 1.523 . S
C748 C729 1.368 . S
C748 C742 1.368 . S
C748 C747 1.523 . S
C749 C733 1.429 . S
C749 C745 1.429 . S
C749 C750 1.523 . S
C750 C734 1.368 . S
C750 C746 1.368 1_554 S
C750 C749 1.523 . S
H751 C726 0.950 . S
H752 C728 0.950 . S
H753 C729 0.949 . S
H754 C731 0.950 . S
H755 C733 0.950 . S
C756 C757 1.349 . S
C756 C758 1.327 . S
C756 H781 0.950 . S
C757 C756 1.349 . S
C757 C773 1.349 . S
C758 C756 1.327 . S
C758 C777 1.429 . S
C758 H782 0.950 . S
C759 C776 1.574 . S
C759 C778 1.368 . S
C759 H783 0.949 . S
H760 C764 0.949 . S
C761 C762 1.349 . S
C761 C763 1.327 . S
C761 H784 0.950 . S
C762 C761 1.349 . S
C762 C774 1.349 . S
C763 C761 1.327 . S
C763 C779 1.429 . S
C763 H785 0.950 . S
C764 H760 0.949 . S
C764 C772 1.574 . S
C764 C780 1.368 . S
H765 C773 0.950 . S
H766 C771 0.950 . S
H767 C772 0.949 . S
H768 C774 0.950 . S
H769 C775 0.950 . S
H770 C776 0.949 . S
C771 H766 0.950 . S
C771 C773 1.327 . S
C771 C777 1.429 . S
C772 C764 1.574 . S
C772 H767 0.949 . S
C772 C778 1.368 . S
C773 C757 1.349 . S
C773 H765 0.950 . S
C773 C771 1.327 . S
C774 C762 1.349 . S
C774 H768 0.950 . S
C774 C775 1.327 . S
C775 H769 0.950 . S
C775 C774 1.327 . S
C775 C779 1.429 . S
C776 C759 1.574 . S
C776 H770 0.949 . S
C776 C780 1.368 . S
C777 C758 1.429 . S
C777 C771 1.429 . S
C777 C778 1.523 . S
C778 C759 1.368 . S
C778 C772 1.368 . S
C778 C777 1.523 . S
C779 C763 1.429 . S
C779 C775 1.429 . S
C779 C780 1.523 . S
C780 C764 1.368 . S
C780 C776 1.368 . S
C780 C779 1.523 . S
H781 C756 0.950 . S
H782 C758 0.950 . S
H783 C759 0.949 . S
H784 C761 0.950 . S
H785 C763 0.950 . S
C786 C787 1.349 . S
C786 C788 1.327 . S
C786 H811 0.950 . S
C787 C786 1.349 . S
C787 C803 1.349 . S
C788 C786 1.327 . S
C788 C807 1.429 . S
C788 H812 0.950 . S
C789 C806 1.574 . S
C789 C808 1.368 . S
C789 H813 0.949 . S
H790 C794 0.949 . S
C791 C792 1.349 . S
C791 C793 1.327 . S
C791 H814 0.950 . S
C792 C791 1.349 . S
C792 C804 1.349 . S
C793 C791 1.327 . S
C793 C809 1.429 . S
C793 H815 0.950 . S
C794 H790 0.949 . S
C794 C802 1.574 . S
C794 C810 1.368 . S
H795 C803 0.950 1_554 S
H796 C801 0.950 . S
H797 C802 0.949 . S
H798 C804 0.950 . S
H799 C805 0.950 . S
H800 C806 0.949 . S
C801 H796 0.950 . S
C801 C803 1.327 . S
C801 C807 1.429 . S
C802 C794 1.574 . S
C802 H797 0.949 . S
C802 C808 1.368 . S
C803 C787 1.349 . S
C803 H795 0.950 1_556 S
C803 C801 1.327 . S
C804 C792 1.349 . S
C804 H798 0.950 . S
C804 C805 1.327 . S
C805 H799 0.950 . S
C805 C804 1.327 . S
C805 C809 1.429 . S
C806 C789 1.574 . S
C806 H800 0.949 . S
C806 C810 1.368 . S
C807 C788 1.429 . S
C807 C801 1.429 . S
C807 C808 1.523 . S
C808 C789 1.368 . S
C808 C802 1.368 . S
C808 C807 1.523 . S
C809 C793 1.429 . S
C809 C805 1.429 . S
C809 C810 1.523 . S
C810 C794 1.368 . S
C810 C806 1.368 . S
C810 C809 1.523 . S
H811 C786 0.950 . S
H812 C788 0.950 . S
H813 C789 0.949 . S
H814 C791 0.950 . S
H815 C793 0.950 . S
C816 C817 1.349 . S
C816 C818 1.327 . S
C816 H841 0.950 . S
C817 C816 1.349 . S
C817 C833 1.349 . S
C818 C816 1.327 . S
C818 C837 1.429 . S
C818 H842 0.950 . S
C819 C836 1.574 . S
C819 C838 1.368 . S
C819 H843 0.949 . S
H820 C824 0.949 . S
C821 C822 1.349 . S
C821 C823 1.327 . S
C821 H844 0.950 . S
C822 C821 1.349 . S
C822 C834 1.349 . S
C823 C821 1.327 . S
C823 C839 1.429 . S
C823 H845 0.950 . S
C824 H820 0.949 . S
C824 C832 1.574 . S
C824 C840 1.368 . S
H825 C833 0.945 1_554 S
H826 C831 0.950 . S
H827 C832 0.949 . S
H828 C834 0.950 . S
H829 C835 0.950 . S
H830 C836 0.949 . S
C831 H826 0.950 . S
C831 C833 1.327 . S
C831 C837 1.429 . S
C832 C824 1.574 . S
C832 H827 0.949 . S
C832 C838 1.368 . S
C833 C817 1.349 . S
C833 H825 0.945 1_556 S
C833 C831 1.327 . S
C834 C822 1.349 . S
C834 H828 0.950 . S
C834 C835 1.327 . S
C835 H829 0.950 . S
C835 C834 1.327 . S
C835 C839 1.429 . S
C836 C819 1.574 . S
C836 H830 0.949 . S
C836 C840 1.368 . S
C837 C818 1.429 . S
C837 C831 1.429 . S
C837 C838 1.523 . S
C838 C819 1.368 . S
C838 C832 1.368 . S
C838 C837 1.523 . S
C839 C823 1.429 . S
C839 C835 1.429 . S
C839 C840 1.523 . S
C840 C824 1.368 . S
C840 C836 1.368 . S
C840 C839 1.523 . S
H841 C816 0.950 . S
H842 C818 0.950 . S
H843 C819 0.949 . S
H844 C821 0.950 . S
H845 C823 0.950 . S
C846 C847 1.349 . S
C846 C848 1.327 . S
C846 H871 0.950 . S
C847 C846 1.349 . S
C847 C863 1.349 . S
C848 C846 1.327 . S
C848 C867 1.429 . S
C848 H872 0.950 . S
C849 C866 1.574 . S
C849 C868 1.368 . S
C849 H873 0.949 . S
H850 C854 0.949 . S
C851 C852 1.349 . S
C851 C853 1.327 . S
C851 H874 0.950 . S
C852 C851 1.349 . S
C852 C864 1.349 . S
C853 C851 1.327 . S
C853 C869 1.429 . S
C853 H875 0.950 . S
C854 H850 0.949 . S
C854 C862 1.574 . S
C854 C870 1.368 . S
H855 C863 0.950 . S
H856 C861 0.950 . S
H857 C862 0.949 . S
H858 C864 0.950 . S
H859 C865 0.950 . S
H860 C866 0.949 . S
C861 H856 0.950 . S
C861 C863 1.327 . S
C861 C867 1.429 . S
C862 C854 1.574 . S
C862 H857 0.949 . S
C862 C868 1.368 . S
C863 C847 1.349 . S
C863 H855 0.950 . S
C863 C861 1.327 . S
C864 C852 1.349 . S
C864 H858 0.950 . S
C864 C865 1.327 . S
C865 H859 0.950 . S
C865 C864 1.327 . S
C865 C869 1.429 . S
C866 C849 1.574 . S
C866 H860 0.949 . S
C866 C870 1.368 . S
C867 C848 1.429 . S
C867 C861 1.429 . S
C867 C868 1.523 . S
C868 C849 1.368 . S
C868 C862 1.368 . S
C868 C867 1.523 . S
C869 C853 1.429 . S
C869 C865 1.429 . S
C869 C870 1.523 . S
C870 C854 1.368 . S
C870 C866 1.368 . S
C870 C869 1.523 . S
H871 C846 0.950 . S
H872 C848 0.950 . S
H873 C849 0.949 . S
H874 C851 0.950 . S
H875 C853 0.950 . S
C876 C877 1.349 . S
C876 C878 1.327 . S
C876 H901 0.950 . S
C877 C876 1.349 . S
C877 C893 1.349 . S
C878 C876 1.327 . S
C878 C897 1.429 . S
C878 H902 0.950 . S
C879 C896 1.574 . S
C879 C898 1.368 . S
C879 H903 0.949 . S
H880 C884 0.949 . S
C881 C882 1.349 . S
C881 C883 1.327 . S
C881 H904 0.950 . S
C882 C881 1.349 . S
C882 C894 1.349 . S
C883 C881 1.327 . S
C883 C899 1.429 . S
C883 H905 0.950 . S
C884 H880 0.949 . S
C884 C892 1.574 . S
C884 C900 1.368 . S
H885 C893 0.950 . S
H886 C891 0.950 . S
H887 C892 0.949 . S
H888 C894 0.950 . S
H889 C895 0.950 . S
H890 C896 0.949 . S
C891 H886 0.950 . S
C891 C893 1.327 . S
C891 C897 1.429 . S
C892 C884 1.574 . S
C892 H887 0.949 . S
C892 C898 1.368 . S
C893 C877 1.349 . S
C893 H885 0.950 . S
C893 C891 1.327 . S
C894 C882 1.349 . S
C894 H888 0.950 . S
C894 C895 1.327 . S
C895 H889 0.950 . S
C895 C894 1.327 . S
C895 C899 1.429 . S
C896 C879 1.574 . S
C896 H890 0.949 . S
C896 C900 1.368 . S
C897 C878 1.429 . S
C897 C891 1.429 . S
C897 C898 1.523 . S
C898 C879 1.368 . S
C898 C892 1.368 . S
C898 C897 1.523 . S
C899 C883 1.429 . S
C899 C895 1.429 . S
C899 C900 1.523 . S
C900 C884 1.368 . S
C900 C896 1.368 . S
C900 C899 1.523 . S
H901 C876 0.950 . S
H902 C878 0.950 . S
H903 C879 0.949 . S
H904 C881 0.950 . S
H905 C883 0.950 . S
C906 C907 1.349 . S
C906 C908 1.327 . S
C906 H931 0.950 . S
C907 C906 1.349 . S
C907 C923 1.349 . S
C908 C906 1.327 . S
C908 C927 1.429 . S
C908 H932 0.950 . S
C909 C926 1.574 . S
C909 C928 1.368 . S
C909 H933 0.949 . S
H910 C914 0.949 . S
C911 C912 1.349 . S
C911 C913 1.327 . S
C911 H934 0.950 . S
C912 C911 1.349 . S
C912 C924 1.349 . S
C913 C911 1.327 . S
C913 C929 1.429 . S
C913 H935 0.950 . S
C914 H910 0.949 . S
C914 C922 1.574 . S
C914 C930 1.368 . S
H915 C923 0.950 . S
H916 C921 0.950 . S
H917 C922 0.949 . S
H918 C924 0.950 . S
H919 C925 0.950 . S
H920 C926 0.949 . S
C921 H916 0.950 . S
C921 C923 1.327 . S
C921 C927 1.429 . S
C922 C914 1.574 . S
C922 H917 0.949 . S
C922 C928 1.368 . S
C923 C907 1.349 . S
C923 H915 0.950 . S
C923 C921 1.327 . S
C924 C912 1.349 . S
C924 H918 0.950 . S
C924 C925 1.327 . S
C925 H919 0.950 . S
C925 C924 1.327 . S
C925 C929 1.429 . S
C926 C909 1.574 . S
C926 H920 0.949 . S
C926 C930 1.368 . S
C927 C908 1.429 . S
C927 C921 1.429 . S
C927 C928 1.523 . S
C928 C909 1.368 . S
C928 C922 1.368 . S
C928 C927 1.523 . S
C929 C913 1.429 . S
C929 C925 1.429 . S
C929 C930 1.523 . S
C930 C914 1.368 . S
C930 C926 1.368 . S
C930 C929 1.523 . S
H931 C906 0.950 . S
H932 C908 0.950 . S
H933 C909 0.949 . S
H934 C911 0.950 . S
H935 C913 0.950 . S
C936 C937 1.349 . S
C936 C938 1.327 . S
C936 H961 0.950 . S
C937 C936 1.349 . S
C937 C953 1.349 . S
C938 C936 1.327 . S
C938 C957 1.429 . S
C938 H962 0.950 . S
C939 C956 1.574 . S
C939 C958 1.368 . S
C939 H963 0.949 . S
H940 C944 0.949 . S
C941 C942 1.349 . S
C941 C943 1.327 . S
C941 H964 0.950 . S
C942 C941 1.349 . S
C942 C954 1.349 . S
C943 C941 1.327 . S
C943 C959 1.429 . S
C943 H965 0.950 . S
C944 H940 0.949 . S
C944 C952 1.574 . S
C944 C960 1.368 . S
H945 C953 0.950 1_554 S
H946 C951 0.950 . S
H947 C952 0.949 . S
H948 C954 0.950 . S
H949 C955 0.950 . S
H950 C956 0.949 . S
C951 H946 0.950 . S
C951 C953 1.327 . S
C951 C957 1.429 . S
C952 C944 1.574 . S
C952 H947 0.949 . S
C952 C958 1.368 . S
C953 C937 1.349 . S
C953 H945 0.950 1_556 S
C953 C951 1.327 . S
C954 C942 1.349 . S
C954 H948 0.950 . S
C954 C955 1.327 . S
C955 H949 0.950 . S
C955 C954 1.327 . S
C955 C959 1.429 . S
C956 C939 1.574 . S
C956 H950 0.949 . S
C956 C960 1.368 . S
C957 C938 1.429 . S
C957 C951 1.429 . S
C957 C958 1.523 . S
C958 C939 1.368 . S
C958 C952 1.368 . S
C958 C957 1.523 . S
C959 C943 1.429 . S
C959 C955 1.429 . S
C959 C960 1.523 . S
C960 C944 1.368 . S
C960 C956 1.368 . S
C960 C959 1.523 . S
H961 C936 0.950 . S
H962 C938 0.950 . S
H963 C939 0.949 . S
H964 C941 0.950 . S
H965 C943 0.950 . S
C966 C967 1.349 . S
C966 C968 1.327 . S
C966 H991 0.950 . S
C967 C966 1.349 . S
C967 C983 1.349 . S
C968 C966 1.327 . S
C968 C987 1.429 . S
C968 H992 0.950 . S
C969 C986 1.574 . S
C969 C988 1.368 . S
C969 H993 0.949 . S
H970 C974 0.949 . S
C971 C972 1.349 . S
C971 C973 1.327 . S
C971 H994 0.950 . S
C972 C971 1.349 . S
C972 C984 1.349 . S
C973 C971 1.327 . S
C973 C989 1.429 . S
C973 H995 0.950 . S
C974 H970 0.949 . S
C974 C982 1.574 . S
C974 C990 1.368 . S
H975 C983 0.950 . S
H976 C981 0.950 . S
H977 C982 0.949 . S
H978 C984 0.950 . S
H979 C985 0.950 . S
H980 C986 0.949 . S
C981 H976 0.950 . S
C981 C983 1.327 . S
C981 C987 1.429 . S
C982 C974 1.574 . S
C982 H977 0.949 . S
C982 C988 1.368 . S
C983 C967 1.349 . S
C983 H975 0.950 . S
C983 C981 1.327 . S
C984 C972 1.349 . S
C984 H978 0.950 . S
C984 C985 1.327 . S
C985 H979 0.950 . S
C985 C984 1.327 . S
C985 C989 1.429 . S
C986 C969 1.574 . S
C986 H980 0.949 . S
C986 C990 1.368 . S
C987 C968 1.429 . S
C987 C981 1.429 . S
C987 C988 1.523 . S
C988 C969 1.368 . S
C988 C982 1.368 . S
C988 C987 1.523 . S
C989 C973 1.429 . S
C989 C985 1.429 . S
C989 C990 1.523 . S
C990 C974 1.368 . S
C990 C986 1.368 . S
C990 C989 1.523 . S
H991 C966 0.950 . S
H992 C968 0.950 . S
H993 C969 0.949 . S
H994 C971 0.950 . S
H995 C973 0.950 . S
C996 C997 1.349 . S
C996 C998 1.327 . S
C996 H1021 0.949 1_556 S
C997 C996 1.349 . S
C997 C1013 1.349 . S
C998 C996 1.327 . S
C998 C1017 1.429 . S
C998 H1022 0.950 . S
C999 C1016 1.574 . S
C999 C1018 1.368 . S
C999 H1023 0.949 . S
H1000 C1004 0.949 . S
C1001 C1002 1.349 . S
C1001 C1003 1.327 . S
C1001 H1024 0.950 . S
C1002 C1001 1.349 . S
C1002 C1014 1.349 . S
C1003 C1001 1.327 . S
C1003 C1019 1.429 . S
C1003 H1025 0.950 . S
C1004 H1000 0.949 . S
C1004 C1012 1.574 . S
C1004 C1020 1.368 . S
H1005 C1013 0.950 . S
H1006 C1011 0.950 . S
H1007 C1012 0.949 . S
H1008 C1014 0.950 . S
H1009 C1015 0.950 . S
H1010 C1016 0.949 . S
C1011 H1006 0.950 . S
C1011 C1013 1.327 . S
C1011 C1017 1.429 . S
C1012 C1004 1.574 . S
C1012 H1007 0.949 . S
C1012 C1018 1.368 . S
C1013 C997 1.349 . S
C1013 H1005 0.950 . S
C1013 C1011 1.327 . S
C1014 C1002 1.349 . S
C1014 H1008 0.950 . S
C1014 C1015 1.327 . S
C1015 H1009 0.950 . S
C1015 C1014 1.327 . S
C1015 C1019 1.429 . S
C1016 C999 1.574 . S
C1016 H1010 0.949 . S
C1016 C1020 1.368 . S
C1017 C998 1.429 . S
C1017 C1011 1.429 . S
C1017 C1018 1.523 . S
C1018 C999 1.368 . S
C1018 C1012 1.368 . S
C1018 C1017 1.523 . S
C1019 C1003 1.429 . S
C1019 C1015 1.429 . S
C1019 C1020 1.523 . S
C1020 C1004 1.368 . S
C1020 C1016 1.368 . S
C1020 C1019 1.523 . S
H1021 C996 0.949 1_554 S
H1022 C998 0.950 . S
H1023 C999 0.949 . S
H1024 C1001 0.950 . S
H1025 C1003 0.950 . S
C1026 C1027 1.349 . S
C1026 C1028 1.327 . S
C1026 H1051 0.950 . S
C1027 C1026 1.349 . S
C1027 C1043 1.349 . S
C1028 C1026 1.327 . S
C1028 C1047 1.429 . S
C1028 H1052 0.950 . S
C1029 C1046 1.574 . S
C1029 C1048 1.368 . S
C1029 H1053 0.949 . S
H1030 C1034 0.949 . S
C1031 C1032 1.349 . S
C1031 C1033 1.327 . S
C1031 H1054 0.950 . S
C1032 C1031 1.349 . S
C1032 C1044 1.349 . S
C1033 C1031 1.327 . S
C1033 C1049 1.429 . S
C1033 H1055 0.950 . S
C1034 H1030 0.949 . S
C1034 C1042 1.574 . S
C1034 C1050 1.368 . S
H1035 C1043 0.950 . S
H1036 C1041 0.950 . S
H1037 C1042 0.949 . S
H1038 C1044 0.950 . S
H1039 C1045 0.950 . S
H1040 C1046 0.949 . S
C1041 H1036 0.950 . S
C1041 C1043 1.327 . S
C1041 C1047 1.429 . S
C1042 C1034 1.574 . S
C1042 H1037 0.949 . S
C1042 C1048 1.368 . S
C1043 C1027 1.349 . S
C1043 H1035 0.950 . S
C1043 C1041 1.327 . S
C1044 C1032 1.349 . S
C1044 H1038 0.950 . S
C1044 C1045 1.327 . S
C1045 H1039 0.950 . S
C1045 C1044 1.327 . S
C1045 C1049 1.429 . S
C1046 C1029 1.574 . S
C1046 H1040 0.949 . S
C1046 C1050 1.368 . S
C1047 C1028 1.429 . S
C1047 C1041 1.429 . S
C1047 C1048 1.523 . S
C1048 C1029 1.368 . S
C1048 C1042 1.368 . S
C1048 C1047 1.523 . S
C1049 C1033 1.429 . S
C1049 C1045 1.429 . S
C1049 C1050 1.523 . S
C1050 C1034 1.368 . S
C1050 C1046 1.368 . S
C1050 C1049 1.523 . S
H1051 C1026 0.950 . S
H1052 C1028 0.950 . S
H1053 C1029 0.949 . S
H1054 C1031 0.950 . S
H1055 C1033 0.950 . S
C1056 C1057 1.349 . S
C1056 C1058 1.327 . S
C1056 H1081 0.950 . S
C1057 C1056 1.349 . S
C1057 C1073 1.349 . S
C1058 C1056 1.327 . S
C1058 C1077 1.429 . S
C1058 H1082 0.950 . S
C1059 C1076 1.574 . S
C1059 C1078 1.368 . S
C1059 H1083 0.949 . S
H1060 C1064 0.949 . S
C1061 C1062 1.349 . S
C1061 C1063 1.327 . S
C1061 H1084 0.950 . S
C1062 C1061 1.349 . S
C1062 C1074 1.349 . S
C1063 C1061 1.327 . S
C1063 C1079 1.429 . S
C1063 H1085 0.950 . S
C1064 H1060 0.949 . S
C1064 C1072 1.574 . S
C1064 C1080 1.368 . S
H1065 C1073 0.950 . S
H1066 C1071 0.950 . S
H1067 C1072 0.949 . S
H1068 C1074 0.950 . S
H1069 C1075 0.950 . S
H1070 C1076 0.949 . S
C1071 H1066 0.950 . S
C1071 C1073 1.327 . S
C1071 C1077 1.429 . S
C1072 C1064 1.574 . S
C1072 H1067 0.949 . S
C1072 C1078 1.368 . S
C1073 C1057 1.349 . S
C1073 H1065 0.950 . S
C1073 C1071 1.327 . S
C1074 C1062 1.349 . S
C1074 H1068 0.950 . S
C1074 C1075 1.327 . S
C1075 H1069 0.950 . S
C1075 C1074 1.327 . S
C1075 C1079 1.429 . S
C1076 C1059 1.574 . S
C1076 H1070 0.949 . S
C1076 C1080 1.368 . S
C1077 C1058 1.429 . S
C1077 C1071 1.429 . S
C1077 C1078 1.523 . S
C1078 C1059 1.368 . S
C1078 C1072 1.368 . S
C1078 C1077 1.523 . S
C1079 C1063 1.429 . S
C1079 C1075 1.429 . S
C1079 C1080 1.523 . S
C1080 C1064 1.368 . S
C1080 C1076 1.368 . S
C1080 C1079 1.523 . S
H1081 C1056 0.950 . S
H1082 C1058 0.950 . S
H1083 C1059 0.949 . S
H1084 C1061 0.950 . S
H1085 C1063 0.950 . S
C1086 C1087 1.349 . S
C1086 C1088 1.327 . S
C1086 H1111 0.950 . S
C1087 C1086 1.349 . S
C1087 C1103 1.349 . S
C1088 C1086 1.327 . S
C1088 C1107 1.429 . S
C1088 H1112 0.950 . S
C1089 C1106 1.574 . S
C1089 C1108 1.368 . S
C1089 H1113 0.949 . S
H1090 C1094 0.949 . S
C1091 C1092 1.349 . S
C1091 C1093 1.327 . S
C1091 H1114 0.950 . S
C1092 C1091 1.349 . S
C1092 C1104 1.349 . S
C1093 C1091 1.327 . S
C1093 C1109 1.429 . S
C1093 H1115 0.950 . S
C1094 H1090 0.949 . S
C1094 C1102 1.574 . S
C1094 C1110 1.368 . S
H1095 C1103 0.950 . S
H1096 C1101 0.950 . S
H1097 C1102 0.949 . S
H1098 C1104 0.950 . S
H1099 C1105 0.950 . S
H1100 C1106 0.949 . S
C1101 H1096 0.950 . S
C1101 C1103 1.327 . S
C1101 C1107 1.429 . S
C1102 C1094 1.574 . S
C1102 H1097 0.949 . S
C1102 C1108 1.368 . S
C1103 C1087 1.349 . S
C1103 H1095 0.950 . S
C1103 C1101 1.327 . S
C1104 C1092 1.349 . S
C1104 H1098 0.950 . S
C1104 C1105 1.327 . S
C1105 H1099 0.950 . S
C1105 C1104 1.327 . S
C1105 C1109 1.429 . S
C1106 C1089 1.574 . S
C1106 H1100 0.949 . S
C1106 C1110 1.368 . S
C1107 C1088 1.429 . S
C1107 C1101 1.429 . S
C1107 C1108 1.523 . S
C1108 C1089 1.368 . S
C1108 C1102 1.368 . S
C1108 C1107 1.523 . S
C1109 C1093 1.429 . S
C1109 C1105 1.429 . S
C1109 C1110 1.523 . S
C1110 C1094 1.368 . S
C1110 C1106 1.368 . S
C1110 C1109 1.523 . S
H1111 C1086 0.950 . S
H1112 C1088 0.950 . S
H1113 C1089 0.949 . S
H1114 C1091 0.950 . S
H1115 C1093 0.950 . S
C1116 C1117 1.349 . S
C1116 C1118 1.327 . S
C1116 H1141 0.950 . S
C1117 C1116 1.349 . S
C1117 C1133 1.349 . S
C1118 C1116 1.327 . S
C1118 C1137 1.429 . S
C1118 H1142 0.950 . S
C1119 C1136 1.574 . S
C1119 C1138 1.368 . S
C1119 H1143 0.949 . S
H1120 C1124 0.949 . S
C1121 C1122 1.349 . S
C1121 C1123 1.327 . S
C1121 H1144 0.950 1_554 S
C1122 C1121 1.349 . S
C1122 C1134 1.349 . S
C1123 C1121 1.327 . S
C1123 C1139 1.429 . S
C1123 H1145 0.950 . S
C1124 H1120 0.949 . S
C1124 C1132 1.574 . S
C1124 C1140 1.368 . S
H1125 C1133 0.950 . S
H1126 C1131 0.950 . S
H1127 C1132 0.949 . S
H1128 C1134 0.950 . S
H1129 C1135 0.950 . S
H1130 C1136 0.949 . S
C1131 H1126 0.950 . S
C1131 C1133 1.327 . S
C1131 C1137 1.429 . S
C1132 C1124 1.574 . S
C1132 H1127 0.949 . S
C1132 C1138 1.368 . S
C1133 C1117 1.349 . S
C1133 H1125 0.950 . S
C1133 C1131 1.327 . S
C1134 C1122 1.349 . S
C1134 H1128 0.950 . S
C1134 C1135 1.327 . S
C1135 H1129 0.950 . S
C1135 C1134 1.327 . S
C1135 C1139 1.429 . S
C1136 C1119 1.574 . S
C1136 H1130 0.949 . S
C1136 C1140 1.368 . S
C1137 C1118 1.429 . S
C1137 C1131 1.429 . S
C1137 C1138 1.523 . S
C1138 C1119 1.368 . S
C1138 C1132 1.368 . S
C1138 C1137 1.523 . S
C1139 C1123 1.429 . S
C1139 C1135 1.429 . S
C1139 C1140 1.523 . S
C1140 C1124 1.368 . S
C1140 C1136 1.368 . S
C1140 C1139 1.523 . S
H1141 C1116 0.950 . S
H1142 C1118 0.950 . S
H1143 C1119 0.949 . S
H1144 C1121 0.950 1_556 S
H1145 C1123 0.950 . S
C1146 C1147 1.349 . S
C1146 C1148 1.327 . S
C1146 H1171 0.950 . S
C1147 C1146 1.349 . S
C1147 C1163 1.349 . S
C1148 C1146 1.327 . S
C1148 C1167 1.429 . S
C1148 H1172 0.950 . S
C1149 C1166 1.574 . S
C1149 C1168 1.368 . S
C1149 H1173 0.949 . S
H1150 C1154 0.949 . S
C1151 C1152 1.349 . S
C1151 C1153 1.327 . S
C1151 H1174 0.950 . S
C1152 C1151 1.349 . S
C1152 C1164 1.349 . S
C1153 C1151 1.327 . S
C1153 C1169 1.429 . S
C1153 H1175 0.950 . S
C1154 H1150 0.949 . S
C1154 C1162 1.574 . S
C1154 C1170 1.368 . S
H1155 C1163 0.950 . S
H1156 C1161 0.950 . S
H1157 C1162 0.949 . S
H1158 C1164 0.950 . S
H1159 C1165 0.950 . S
H1160 C1166 0.949 . S
C1161 H1156 0.950 . S
C1161 C1163 1.327 . S
C1161 C1167 1.429 . S
C1162 C1154 1.574 . S
C1162 H1157 0.949 . S
C1162 C1168 1.368 . S
C1163 C1147 1.349 . S
C1163 H1155 0.950 . S
C1163 C1161 1.327 . S
C1164 C1152 1.349 . S
C1164 H1158 0.950 . S
C1164 C1165 1.327 . S
C1165 H1159 0.950 . S
C1165 C1164 1.327 . S
C1165 C1169 1.429 . S
C1166 C1149 1.574 . S
C1166 H1160 0.949 . S
C1166 C1170 1.368 . S
C1167 C1148 1.429 . S
C1167 C1161 1.429 . S
C1167 C1168 1.523 . S
C1168 C1149 1.368 . S
C1168 C1162 1.368 . S
C1168 C1167 1.523 . S
C1169 C1153 1.429 . S
C1169 C1165 1.429 . S
C1169 C1170 1.523 . S
C1170 C1154 1.368 . S
C1170 C1166 1.368 . S
C1170 C1169 1.523 . S
H1171 C1146 0.950 . S
H1172 C1148 0.950 . S
H1173 C1149 0.949 . S
H1174 C1151 0.950 . S
H1175 C1153 0.950 . S
C1176 C1177 1.349 . S
C1176 C1178 1.327 . S
C1176 H1201 0.950 . S
C1177 C1176 1.349 . S
C1177 C1193 1.349 . S
C1178 C1176 1.327 . S
C1178 C1197 1.429 . S
C1178 H1202 0.950 . S
C1179 C1196 1.574 . S
C1179 C1198 1.368 . S
C1179 H1203 0.949 . S
H1180 C1184 0.949 . S
C1181 C1182 1.349 . S
C1181 C1183 1.327 . S
C1181 H1204 0.950 . S
C1182 C1181 1.349 . S
C1182 C1194 1.349 . S
C1183 C1181 1.327 . S
C1183 C1199 1.429 . S
C1183 H1205 0.950 . S
C1184 H1180 0.949 . S
C1184 C1192 1.574 . S
C1184 C1200 1.368 . S
H1185 C1193 0.950 1_556 S
H1186 C1191 0.950 . S
H1187 C1192 0.949 . S
H1188 C1194 0.950 . S
H1189 C1195 0.950 . S
H1190 C1196 0.949 . S
C1191 H1186 0.950 . S
C1191 C1193 1.327 . S
C1191 C1197 1.429 . S
C1192 C1184 1.574 . S
C1192 H1187 0.949 . S
C1192 C1198 1.368 . S
C1193 C1177 1.349 . S
C1193 H1185 0.950 1_554 S
C1193 C1191 1.327 . S
C1194 C1182 1.349 . S
C1194 H1188 0.950 . S
C1194 C1195 1.327 . S
C1195 H1189 0.950 . S
C1195 C1194 1.327 . S
C1195 C1199 1.429 . S
C1196 C1179 1.574 . S
C1196 H1190 0.949 . S
C1196 C1200 1.368 . S
C1197 C1178 1.429 . S
C1197 C1191 1.429 . S
C1197 C1198 1.523 . S
C1198 C1179 1.368 . S
C1198 C1192 1.368 . S
C1198 C1197 1.523 . S
C1199 C1183 1.429 . S
C1199 C1195 1.429 . S
C1199 C1200 1.523 . S
C1200 C1184 1.368 . S
C1200 C1196 1.368 . S
C1200 C1199 1.523 . S
H1201 C1176 0.950 . S
H1202 C1178 0.950 . S
H1203 C1179 0.949 . S
H1204 C1181 0.950 . S
H1205 C1183 0.950 . S
C1206 C1207 1.349 . S
C1206 C1208 1.327 . S
C1206 H1231 0.950 . S
C1207 C1206 1.349 . S
C1207 C1223 1.349 . S
C1208 C1206 1.327 . S
C1208 C1227 1.429 . S
C1208 H1232 0.950 . S
C1209 C1226 1.574 . S
C1209 C1228 1.368 . S
C1209 H1233 0.949 . S
H1210 C1214 0.949 . S
C1211 C1212 1.349 . S
C1211 C1213 1.327 . S
C1211 H1234 0.950 . S
C1212 C1211 1.349 . S
C1212 C1224 1.349 . S
C1213 C1211 1.327 . S
C1213 C1229 1.429 . S
C1213 H1235 0.950 . S
C1214 H1210 0.949 . S
C1214 C1222 1.574 . S
C1214 C1230 1.368 . S
H1215 C1223 0.950 . S
H1216 C1221 0.950 . S
H1217 C1222 0.949 . S
H1218 C1224 0.950 . S
H1219 C1225 0.950 . S
H1220 C1226 0.949 . S
C1221 H1216 0.950 . S
C1221 C1223 1.327 . S
C1221 C1227 1.429 . S
C1222 C1214 1.574 . S
C1222 H1217 0.949 . S
C1222 C1228 1.368 . S
C1223 C1207 1.349 . S
C1223 H1215 0.950 . S
C1223 C1221 1.327 . S
C1224 C1212 1.349 . S
C1224 H1218 0.950 . S
C1224 C1225 1.327 . S
C1225 H1219 0.950 . S
C1225 C1224 1.327 . S
C1225 C1229 1.429 . S
C1226 C1209 1.574 . S
C1226 H1220 0.949 . S
C1226 C1230 1.368 . S
C1227 C1208 1.429 . S
C1227 C1221 1.429 . S
C1227 C1228 1.523 . S
C1228 C1209 1.368 . S
C1228 C1222 1.368 . S
C1228 C1227 1.523 . S
C1229 C1213 1.429 . S
C1229 C1225 1.429 . S
C1229 C1230 1.523 . S
C1230 C1214 1.368 . S
C1230 C1226 1.368 . S
C1230 C1229 1.523 . S
H1231 C1206 0.950 . S
H1232 C1208 0.950 . S
H1233 C1209 0.949 . S
H1234 C1211 0.950 . S
H1235 C1213 0.950 . S
C1236 C1237 1.349 . S
C1236 C1238 1.327 . S
C1236 H1261 0.950 . S
C1237 C1236 1.349 . S
C1237 C1253 1.349 . S
C1238 C1236 1.327 . S
C1238 C1257 1.429 . S
C1238 H1262 0.950 . S
C1239 C1256 1.574 . S
C1239 C1258 1.368 . S
C1239 H1263 0.949 . S
H1240 C1244 0.949 . S
C1241 C1242 1.349 . S
C1241 C1243 1.327 . S
C1241 H1264 0.950 . S
C1242 C1241 1.349 . S
C1242 C1254 1.349 . S
C1243 C1241 1.327 . S
C1243 C1259 1.429 . S
C1243 H1265 0.950 . S
C1244 H1240 0.949 . S
C1244 C1252 1.574 . S
C1244 C1260 1.368 . S
H1245 C1253 0.950 . S
H1246 C1251 0.950 . S
H1247 C1252 0.949 . S
H1248 C1254 0.950 . S
H1249 C1255 0.950 . S
H1250 C1256 0.949 . S
C1251 H1246 0.950 . S
C1251 C1253 1.327 . S
C1251 C1257 1.429 . S
C1252 C1244 1.574 . S
C1252 H1247 0.949 . S
C1252 C1258 1.368 . S
C1253 C1237 1.349 . S
C1253 H1245 0.950 . S
C1253 C1251 1.327 . S
C1254 C1242 1.349 . S
C1254 H1248 0.950 . S
C1254 C1255 1.327 . S
C1255 H1249 0.950 . S
C1255 C1254 1.327 . S
C1255 C1259 1.429 . S
C1256 C1239 1.574 . S
C1256 H1250 0.949 . S
C1256 C1260 1.368 . S
C1257 C1238 1.429 . S
C1257 C1251 1.429 . S
C1257 C1258 1.523 . S
C1258 C1239 1.368 . S
C1258 C1252 1.368 . S
C1258 C1257 1.523 . S
C1259 C1243 1.429 . S
C1259 C1255 1.429 . S
C1259 C1260 1.523 . S
C1260 C1244 1.368 . S
C1260 C1256 1.368 . S
C1260 C1259 1.523 . S
H1261 C1236 0.950 . S
H1262 C1238 0.950 . S
H1263 C1239 0.949 . S
H1264 C1241 0.950 . S
H1265 C1243 0.950 . S
C1266 C1267 1.349 . S
C1266 C1268 1.327 . S
C1266 H1291 0.950 . S
C1267 C1266 1.349 . S
C1267 C1283 1.349 . S
C1268 C1266 1.327 . S
C1268 C1287 1.429 . S
C1268 H1292 0.950 . S
C1269 C1286 1.574 . S
C1269 C1288 1.368 . S
C1269 H1293 0.949 . S
H1270 C1274 0.949 . S
C1271 C1272 1.349 . S
C1271 C1273 1.327 . S
C1271 H1294 0.950 . S
C1272 C1271 1.349 . S
C1272 C1284 1.349 . S
C1273 C1271 1.327 . S
C1273 C1289 1.429 . S
C1273 H1295 0.950 . S
C1274 H1270 0.949 . S
C1274 C1282 1.574 . S
C1274 C1290 1.368 . S
H1275 C1283 0.950 . S
H1276 C1281 0.950 . S
H1277 C1282 0.949 . S
H1278 C1284 0.950 . S
H1279 C1285 0.950 . S
H1280 C1286 0.949 . S
C1281 H1276 0.950 . S
C1281 C1283 1.327 . S
C1281 C1287 1.429 . S
C1282 C1274 1.574 . S
C1282 H1277 0.949 . S
C1282 C1288 1.368 . S
C1283 C1267 1.349 . S
C1283 H1275 0.950 . S
C1283 C1281 1.327 . S
C1284 C1272 1.349 . S
C1284 H1278 0.950 . S
C1284 C1285 1.327 . S
C1285 H1279 0.950 . S
C1285 C1284 1.327 . S
C1285 C1289 1.429 . S
C1286 C1269 1.574 . S
C1286 H1280 0.949 . S
C1286 C1290 1.368 . S
C1287 C1268 1.429 . S
C1287 C1281 1.429 . S
C1287 C1288 1.523 . S
C1288 C1269 1.368 . S
C1288 C1282 1.368 . S
C1288 C1287 1.523 . S
C1289 C1273 1.429 . S
C1289 C1285 1.429 . S
C1289 C1290 1.523 . S
C1290 C1274 1.368 . S
C1290 C1286 1.368 . S
C1290 C1289 1.523 . S
H1291 C1266 0.950 . S
H1292 C1268 0.950 . S
H1293 C1269 0.949 . S
H1294 C1271 0.950 . S
H1295 C1273 0.950 . S
C1296 C1297 1.349 . S
C1296 C1298 1.327 . S
C1296 H1321 0.950 . S
C1297 C1296 1.349 . S
C1297 C1313 1.349 . S
C1298 C1296 1.327 . S
C1298 C1317 1.429 . S
C1298 H1322 0.950 . S
C1299 C1316 1.574 . S
C1299 C1318 1.368 . S
C1299 H1323 0.949 . S
H1300 C1304 0.949 . S
C1301 C1302 1.349 . S
C1301 C1303 1.327 . S
C1301 H1324 0.950 . S
C1302 C1301 1.349 . S
C1302 C1314 1.349 . S
C1303 C1301 1.327 . S
C1303 C1319 1.429 . S
C1303 H1325 0.950 . S
C1304 H1300 0.949 . S
C1304 C1312 1.574 . S
C1304 C1320 1.368 . S
H1305 C1313 0.950 . S
H1306 C1311 0.950 . S
H1307 C1312 0.949 . S
H1308 C1314 0.950 . S
H1309 C1315 0.950 . S
H1310 C1316 0.949 . S
C1311 H1306 0.950 . S
C1311 C1313 1.327 . S
C1311 C1317 1.429 . S
C1312 C1304 1.574 . S
C1312 H1307 0.949 . S
C1312 C1318 1.368 . S
C1313 C1297 1.349 . S
C1313 H1305 0.950 . S
C1313 C1311 1.327 . S
C1314 C1302 1.349 . S
C1314 H1308 0.950 . S
C1314 C1315 1.327 . S
C1315 H1309 0.950 . S
C1315 C1314 1.327 . S
C1315 C1319 1.429 . S
C1316 C1299 1.574 . S
C1316 H1310 0.949 . S
C1316 C1320 1.368 . S
C1317 C1298 1.429 . S
C1317 C1311 1.429 . S
C1317 C1318 1.523 . S
C1318 C1299 1.368 . S
C1318 C1312 1.368 . S
C1318 C1317 1.523 . S
C1319 C1303 1.429 . S
C1319 C1315 1.429 . S
C1319 C1320 1.523 . S
C1320 C1304 1.368 . S
C1320 C1316 1.368 . S
C1320 C1319 1.523 . S
H1321 C1296 0.950 . S
H1322 C1298 0.950 . S
H1323 C1299 0.949 . S
H1324 C1301 0.950 . S
H1325 C1303 0.950 . S
C1326 C1327 1.349 . S
C1326 C1328 1.327 . S
C1326 H1351 0.950 . S
C1327 C1326 1.349 . S
C1327 C1343 1.349 . S
C1328 C1326 1.327 . S
C1328 C1347 1.429 . S
C1328 H1352 0.950 . S
C1329 C1346 1.574 . S
C1329 C1348 1.368 . S
C1329 H1353 0.949 . S
H1330 C1334 0.949 . S
C1331 C1332 1.349 . S
C1331 C1333 1.327 . S
C1331 H1354 0.950 . S
C1332 C1331 1.349 . S
C1332 C1344 1.349 . S
C1333 C1331 1.327 . S
C1333 C1349 1.429 . S
C1333 H1355 0.950 . S
C1334 H1330 0.949 . S
C1334 C1342 1.574 . S
C1334 C1350 1.368 . S
H1335 C1343 0.950 . S
H1336 C1341 0.950 . S
H1337 C1342 0.949 . S
H1338 C1344 0.950 . S
H1339 C1345 0.950 . S
H1340 C1346 0.949 . S
C1341 H1336 0.950 . S
C1341 C1343 1.327 . S
C1341 C1347 1.429 . S
C1342 C1334 1.574 . S
C1342 H1337 0.949 . S
C1342 C1348 1.368 . S
C1343 C1327 1.349 . S
C1343 H1335 0.950 . S
C1343 C1341 1.327 . S
C1344 C1332 1.349 . S
C1344 H1338 0.950 . S
C1344 C1345 1.327 . S
C1345 H1339 0.950 . S
C1345 C1344 1.327 . S
C1345 C1349 1.429 . S
C1346 C1329 1.574 . S
C1346 H1340 0.949 . S
C1346 C1350 1.368 . S
C1347 C1328 1.429 . S
C1347 C1341 1.429 . S
C1347 C1348 1.523 . S
C1348 C1329 1.368 . S
C1348 C1342 1.368 . S
C1348 C1347 1.523 . S
C1349 C1333 1.429 . S
C1349 C1345 1.429 . S
C1349 C1350 1.523 . S
C1350 C1334 1.368 . S
C1350 C1346 1.368 . S
C1350 C1349 1.523 . S
H1351 C1326 0.950 . S
H1352 C1328 0.950 . S
H1353 C1329 0.949 . S
H1354 C1331 0.950 . S
H1355 C1333 0.950 . S
C1356 C1357 1.349 . S
C1356 C1358 1.327 . S
C1356 H1381 0.950 . S
C1357 C1356 1.349 . S
C1357 C1373 1.349 . S
C1358 C1356 1.327 . S
C1358 C1377 1.429 . S
C1358 H1382 0.950 . S
C1359 C1376 1.574 . S
C1359 C1378 1.368 . S
C1359 H1383 0.949 . S
H1360 C1364 0.949 . S
C1361 C1362 1.349 . S
C1361 C1363 1.327 . S
C1361 H1384 0.950 . S
C1362 C1361 1.349 . S
C1362 C1374 1.349 . S
C1363 C1361 1.327 . S
C1363 C1379 1.429 . S
C1363 H1385 0.950 . S
C1364 H1360 0.949 . S
C1364 C1372 1.574 . S
C1364 C1380 1.368 . S
H1365 C1373 0.950 . S
H1366 C1371 0.950 . S
H1367 C1372 0.949 . S
H1368 C1374 0.950 . S
H1369 C1375 0.950 . S
H1370 C1376 0.949 . S
C1371 H1366 0.950 . S
C1371 C1373 1.327 . S
C1371 C1377 1.429 . S
C1372 C1364 1.574 . S
C1372 H1367 0.949 . S
C1372 C1378 1.368 . S
C1373 C1357 1.349 . S
C1373 H1365 0.950 . S
C1373 C1371 1.327 . S
C1374 C1362 1.349 . S
C1374 H1368 0.950 . S
C1374 C1375 1.327 . S
C1375 H1369 0.950 . S
C1375 C1374 1.327 . S
C1375 C1379 1.429 . S
C1376 C1359 1.574 . S
C1376 H1370 0.949 . S
C1376 C1380 1.368 . S
C1377 C1358 1.429 . S
C1377 C1371 1.429 . S
C1377 C1378 1.523 . S
C1378 C1359 1.368 . S
C1378 C1372 1.368 . S
C1378 C1377 1.523 . S
C1379 C1363 1.429 . S
C1379 C1375 1.429 . S
C1379 C1380 1.523 . S
C1380 C1364 1.368 . S
C1380 C1376 1.368 . S
C1380 C1379 1.523 . S
H1381 C1356 0.950 . S
H1382 C1358 0.950 . S
H1383 C1359 0.949 . S
H1384 C1361 0.950 . S
H1385 C1363 0.950 . S
C1386 C1387 1.349 . S
C1386 C1388 1.327 . S
C1386 H1411 0.950 . S
C1387 C1386 1.349 . S
C1387 C1403 1.349 . S
C1388 C1386 1.327 . S
C1388 C1407 1.429 . S
C1388 H1412 0.950 . S
C1389 C1406 1.574 . S
C1389 C1408 1.368 . S
C1389 H1413 0.949 . S
H1390 C1394 0.949 . S
C1391 C1392 1.349 . S
C1391 C1393 1.327 . S
C1391 H1414 0.950 . S
C1392 C1391 1.349 . S
C1392 C1404 1.349 . S
C1393 C1391 1.327 . S
C1393 C1409 1.429 . S
C1393 H1415 0.950 . S
C1394 H1390 0.949 . S
C1394 C1402 1.574 . S
C1394 C1410 1.368 . S
H1395 C1403 0.950 . S
H1396 C1401 0.950 . S
H1397 C1402 0.949 . S
H1398 C1404 0.950 . S
H1399 C1405 0.950 . S
H1400 C1406 0.949 . S
C1401 H1396 0.950 . S
C1401 C1403 1.327 . S
C1401 C1407 1.429 . S
C1402 C1394 1.574 . S
C1402 H1397 0.949 . S
C1402 C1408 1.368 . S
C1403 C1387 1.349 . S
C1403 H1395 0.950 . S
C1403 C1401 1.327 . S
C1404 C1392 1.349 . S
C1404 H1398 0.950 . S
C1404 C1405 1.327 . S
C1405 H1399 0.950 . S
C1405 C1404 1.327 . S
C1405 C1409 1.429 . S
C1406 C1389 1.574 . S
C1406 H1400 0.949 . S
C1406 C1410 1.368 . S
C1407 C1388 1.429 . S
C1407 C1401 1.429 . S
C1407 C1408 1.523 . S
C1408 C1389 1.368 . S
C1408 C1402 1.368 . S
C1408 C1407 1.523 . S
C1409 C1393 1.429 . S
C1409 C1405 1.429 . S
C1409 C1410 1.523 . S
C1410 C1394 1.368 . S
C1410 C1406 1.368 . S
C1410 C1409 1.523 . S
H1411 C1386 0.950 . S
H1412 C1388 0.950 . S
H1413 C1389 0.949 . S
H1414 C1391 0.950 . S
H1415 C1393 0.950 . S
C1416 C1417 1.349 . S
C1416 C1418 1.327 . S
C1416 H1441 0.950 . S
C1417 C1416 1.349 . S
C1417 C1433 1.349 . S
C1418 C1416 1.327 . S
C1418 C1437 1.429 . S
C1418 H1442 0.950 . S
C1419 C1436 1.574 . S
C1419 C1438 1.368 . S
C1419 H1443 0.949 . S
H1420 C1424 0.949 . S
C1421 C1422 1.349 . S
C1421 C1423 1.327 . S
C1421 H1444 0.950 . S
C1422 C1421 1.349 . S
C1422 C1434 1.349 . S
C1423 C1421 1.327 . S
C1423 C1439 1.429 . S
C1423 H1445 0.950 . S
C1424 H1420 0.949 . S
C1424 C1432 1.574 . S
C1424 C1440 1.368 . S
H1425 C1433 0.950 . S
H1426 C1431 0.950 . S
H1427 C1432 0.949 . S
H1428 C1434 0.950 . S
H1429 C1435 0.950 . S
H1430 C1436 0.949 . S
C1431 H1426 0.950 . S
C1431 C1433 1.327 . S
C1431 C1437 1.429 . S
C1432 C1424 1.574 . S
C1432 H1427 0.949 . S
C1432 C1438 1.368 . S
C1433 C1417 1.349 . S
C1433 H1425 0.950 . S
C1433 C1431 1.327 . S
C1434 C1422 1.349 . S
C1434 H1428 0.950 . S
C1434 C1435 1.327 . S
C1435 H1429 0.950 . S
C1435 C1434 1.327 . S
C1435 C1439 1.429 . S
C1436 C1419 1.574 . S
C1436 H1430 0.949 . S
C1436 C1440 1.368 . S
C1437 C1418 1.429 . S
C1437 C1431 1.429 . S
C1437 C1438 1.523 . S
C1438 C1419 1.368 . S
C1438 C1432 1.368 . S
C1438 C1437 1.523 . S
C1439 C1423 1.429 . S
C1439 C1435 1.429 . S
C1439 C1440 1.523 . S
C1440 C1424 1.368 . S
C1440 C1436 1.368 . S
C1440 C1439 1.523 . S
H1441 C1416 0.950 . S
H1442 C1418 0.950 . S
H1443 C1419 0.949 . S
H1444 C1421 0.950 . S
H1445 C1423 0.950 . S
C1446 C1447 1.349 . S
C1446 C1448 1.327 . S
C1446 H1471 0.950 . S
C1447 C1446 1.349 . S
C1447 C1463 1.349 . S
C1448 C1446 1.327 . S
C1448 C1467 1.429 . S
C1448 H1472 0.950 . S
C1449 C1466 1.574 . S
C1449 C1468 1.368 . S
C1449 H1473 0.949 . S
H1450 C1454 0.949 . S
C1451 C1452 1.349 . S
C1451 C1453 1.327 . S
C1451 H1474 0.950 . S
C1452 C1451 1.349 . S
C1452 C1464 1.349 . S
C1453 C1451 1.327 . S
C1453 C1469 1.429 . S
C1453 H1475 0.950 . S
C1454 H1450 0.949 . S
C1454 C1462 1.574 . S
C1454 C1470 1.368 . S
H1455 C1463 0.950 . S
H1456 C1461 0.950 . S
H1457 C1462 0.949 . S
H1458 C1464 0.950 . S
H1459 C1465 0.950 . S
H1460 C1466 0.949 . S
C1461 H1456 0.950 . S
C1461 C1463 1.327 . S
C1461 C1467 1.429 . S
C1462 C1454 1.574 . S
C1462 H1457 0.949 . S
C1462 C1468 1.368 . S
C1463 C1447 1.349 . S
C1463 H1455 0.950 . S
C1463 C1461 1.327 . S
C1464 C1452 1.349 . S
C1464 H1458 0.950 . S
C1464 C1465 1.327 . S
C1465 H1459 0.950 . S
C1465 C1464 1.327 . S
C1465 C1469 1.429 . S
C1466 C1449 1.574 . S
C1466 H1460 0.949 . S
C1466 C1470 1.368 . S
C1467 C1448 1.429 . S
C1467 C1461 1.429 . S
C1467 C1468 1.523 . S
C1468 C1449 1.368 . S
C1468 C1462 1.368 . S
C1468 C1467 1.523 . S
C1469 C1453 1.429 . S
C1469 C1465 1.429 . S
C1469 C1470 1.523 . S
C1470 C1454 1.368 . S
C1470 C1466 1.368 . S
C1470 C1469 1.523 . S
H1471 C1446 0.950 . S
H1472 C1448 0.950 . S
H1473 C1449 0.949 . S
H1474 C1451 0.950 . S
H1475 C1453 0.950 . S
C1476 C1477 1.349 . S
C1476 C1478 1.327 . S
C1476 H1501 0.950 . S
C1477 C1476 1.349 . S
C1477 C1493 1.349 . S
C1478 C1476 1.327 . S
C1478 C1497 1.429 . S
C1478 H1502 0.950 . S
C1479 C1496 1.574 . S
C1479 C1498 1.368 . S
C1479 H1503 0.949 . S
H1480 C1484 0.949 . S
C1481 C1482 1.349 . S
C1481 C1483 1.327 . S
C1481 H1504 0.950 . S
C1482 C1481 1.349 . S
C1482 C1494 1.349 . S
C1483 C1481 1.327 . S
C1483 C1499 1.429 . S
C1483 H1505 0.950 . S
C1484 H1480 0.949 . S
C1484 C1492 1.574 . S
C1484 C1500 1.368 . S
H1485 C1493 0.950 . S
H1486 C1491 0.950 . S
H1487 C1492 0.949 . S
H1488 C1494 0.950 . S
H1489 C1495 0.950 . S
H1490 C1496 0.949 . S
C1491 H1486 0.950 . S
C1491 C1493 1.327 . S
C1491 C1497 1.429 . S
C1492 C1484 1.574 . S
C1492 H1487 0.949 . S
C1492 C1498 1.368 . S
C1493 C1477 1.349 . S
C1493 H1485 0.950 . S
C1493 C1491 1.327 . S
C1494 C1482 1.349 . S
C1494 H1488 0.950 . S
C1494 C1495 1.327 . S
C1495 H1489 0.950 . S
C1495 C1494 1.327 . S
C1495 C1499 1.429 . S
C1496 C1479 1.574 . S
C1496 H1490 0.949 . S
C1496 C1500 1.368 . S
C1497 C1478 1.429 . S
C1497 C1491 1.429 . S
C1497 C1498 1.523 . S
C1498 C1479 1.368 . S
C1498 C1492 1.368 . S
C1498 C1497 1.523 . S
C1499 C1483 1.429 . S
C1499 C1495 1.429 . S
C1499 C1500 1.523 . S
C1500 C1484 1.368 . S
C1500 C1496 1.368 . S
C1500 C1499 1.523 . S
H1501 C1476 0.950 . S
H1502 C1478 0.950 . S
H1503 C1479 0.949 . S
H1504 C1481 0.950 . S
H1505 C1483 0.950 . S
C1506 C1507 1.349 . S
C1506 C1508 1.327 . S
C1506 H1531 0.950 . S
C1507 C1506 1.349 . S
C1507 C1523 1.349 . S
C1508 C1506 1.327 . S
C1508 C1527 1.429 . S
C1508 H1532 0.950 . S
C1509 C1526 1.574 . S
C1509 C1528 1.368 . S
C1509 H1533 0.949 . S
H1510 C1514 0.949 . S
C1511 C1512 1.349 . S
C1511 C1513 1.327 . S
C1511 H1534 0.950 . S
C1512 C1511 1.349 . S
C1512 C1524 1.349 . S
C1513 C1511 1.327 . S
C1513 C1529 1.429 . S
C1513 H1535 0.950 . S
C1514 H1510 0.949 . S
C1514 C1522 1.574 . S
C1514 C1530 1.368 . S
H1515 C1523 0.950 . S
H1516 C1521 0.950 . S
H1517 C1522 0.949 . S
H1518 C1524 0.950 . S
H1519 C1525 0.950 . S
H1520 C1526 0.949 . S
C1521 H1516 0.950 . S
C1521 C1523 1.327 . S
C1521 C1527 1.429 . S
C1522 C1514 1.574 . S
C1522 H1517 0.949 . S
C1522 C1528 1.368 . S
C1523 C1507 1.349 . S
C1523 H1515 0.950 . S
C1523 C1521 1.327 . S
C1524 C1512 1.349 . S
C1524 H1518 0.950 . S
C1524 C1525 1.327 . S
C1525 H1519 0.950 . S
C1525 C1524 1.327 . S
C1525 C1529 1.429 . S
C1526 C1509 1.574 . S
C1526 H1520 0.949 . S
C1526 C1530 1.368 . S
C1527 C1508 1.429 . S
C1527 C1521 1.429 . S
C1527 C1528 1.523 . S
C1528 C1509 1.368 . S
C1528 C1522 1.368 . S
C1528 C1527 1.523 . S
C1529 C1513 1.429 . S
C1529 C1525 1.429 . S
C1529 C1530 1.523 . S
C1530 C1514 1.368 . S
C1530 C1526 1.368 . S
C1530 C1529 1.523 . S
H1531 C1506 0.950 . S
H1532 C1508 0.950 . S
H1533 C1509 0.949 . S
H1534 C1511 0.950 . S
H1535 C1513 0.950 . S
C1536 C1537 1.349 . S
C1536 C1538 1.327 . S
C1536 H1561 0.950 . S
C1537 C1536 1.349 . S
C1537 C1553 1.349 . S
C1538 C1536 1.327 . S
C1538 C1557 1.429 . S
C1538 H1562 0.950 . S
C1539 C1556 1.574 . S
C1539 C1558 1.368 . S
C1539 H1563 0.949 . S
H1540 C1544 0.949 . S
C1541 C1542 1.349 . S
C1541 C1543 1.327 . S
C1541 H1564 0.950 . S
C1542 C1541 1.349 . S
C1542 C1554 1.349 . S
C1543 C1541 1.327 . S
C1543 C1559 1.429 . S
C1543 H1565 0.950 . S
C1544 H1540 0.949 . S
C1544 C1552 1.574 . S
C1544 C1560 1.368 . S
H1545 C1553 0.950 . S
H1546 C1551 0.950 . S
H1547 C1552 0.949 . S
H1548 C1554 0.950 . S
H1549 C1555 0.950 . S
H1550 C1556 0.949 . S
C1551 H1546 0.950 . S
C1551 C1553 1.327 . S
C1551 C1557 1.429 . S
C1552 C1544 1.574 . S
C1552 H1547 0.949 . S
C1552 C1558 1.368 . S
C1553 C1537 1.349 . S
C1553 H1545 0.950 . S
C1553 C1551 1.327 . S
C1554 C1542 1.349 . S
C1554 H1548 0.950 . S
C1554 C1555 1.327 . S
C1555 H1549 0.950 . S
C1555 C1554 1.327 . S
C1555 C1559 1.429 . S
C1556 C1539 1.574 . S
C1556 H1550 0.949 . S
C1556 C1560 1.368 . S
C1557 C1538 1.429 . S
C1557 C1551 1.429 . S
C1557 C1558 1.523 . S
C1558 C1539 1.368 . S
C1558 C1552 1.368 . S
C1558 C1557 1.523 . S
C1559 C1543 1.429 . S
C1559 C1555 1.429 . S
C1559 C1560 1.523 . S
C1560 C1544 1.368 . S
C1560 C1556 1.368 . S
C1560 C1559 1.523 . S
H1561 C1536 0.950 . S
H1562 C1538 0.950 . S
H1563 C1539 0.949 . S
H1564 C1541 0.950 . S
H1565 C1543 0.950 . S
C1566 C1567 1.349 . S
C1566 C1568 1.327 . S
C1566 H1591 0.950 . S
C1567 C1566 1.349 . S
C1567 C1583 1.349 . S
C1568 C1566 1.327 . S
C1568 C1587 1.429 . S
C1568 H1592 0.950 . S
C1569 C1586 1.574 . S
C1569 C1588 1.368 . S
C1569 H1593 0.949 . S
H1570 C1574 0.949 . S
C1571 C1572 1.349 . S
C1571 C1573 1.327 . S
C1571 H1594 0.950 . S
C1572 C1571 1.349 . S
C1572 C1584 1.349 . S
C1573 C1571 1.327 . S
C1573 C1589 1.429 1_554 S
C1573 H1595 0.950 . S
C1574 H1570 0.949 . S
C1574 C1582 1.574 . S
C1574 C1590 1.368 . S
H1575 C1583 0.950 . S
H1576 C1581 0.950 . S
H1577 C1582 0.949 . S
H1578 C1584 0.950 . S
H1579 C1585 0.950 . S
H1580 C1586 0.949 . S
C1581 H1576 0.950 . S
C1581 C1583 1.327 . S
C1581 C1587 1.429 . S
C1582 C1574 1.574 . S
C1582 H1577 0.949 . S
C1582 C1588 1.368 . S
C1583 C1567 1.349 . S
C1583 H1575 0.950 . S
C1583 C1581 1.327 . S
C1584 C1572 1.349 . S
C1584 H1578 0.950 . S
C1584 C1585 1.327 1_554 S
C1585 H1579 0.950 . S
C1585 C1584 1.327 1_556 S
C1585 C1589 1.429 . S
C1586 C1569 1.574 . S
C1586 H1580 0.949 . S
C1586 C1590 1.368 . S
C1587 C1568 1.429 . S
C1587 C1581 1.429 . S
C1587 C1588 1.523 . S
C1588 C1569 1.368 . S
C1588 C1582 1.368 . S
C1588 C1587 1.523 . S
C1589 C1573 1.429 1_556 S
C1589 C1585 1.429 . S
C1589 C1590 1.523 . S
C1590 C1574 1.368 . S
C1590 C1586 1.368 . S
C1590 C1589 1.523 . S
H1591 C1566 0.950 . S
H1592 C1568 0.950 . S
H1593 C1569 0.949 . S
H1594 C1571 0.950 . S
H1595 C1573 0.950 . S
C1596 C1597 1.349 . S
C1596 C1598 1.327 . S
C1596 H1621 0.950 . S
C1597 C1596 1.349 . S
C1597 C1613 1.349 . S
C1598 C1596 1.327 . S
C1598 C1617 1.429 . S
C1598 H1622 0.950 . S
C1599 C1616 1.574 . S
C1599 C1618 1.368 . S
C1599 H1623 0.949 . S
H1600 C1604 0.949 . S
C1601 C1602 1.349 . S
C1601 C1603 1.327 . S
C1601 H1624 0.950 . S
C1602 C1601 1.349 . S
C1602 C1614 1.349 1_554 S
C1603 C1601 1.327 . S
C1603 C1619 1.429 1_554 S
C1603 H1625 0.950 . S
C1604 H1600 0.949 . S
C1604 C1612 1.574 . S
C1604 C1620 1.368 . S
H1605 C1613 0.950 . S
H1606 C1611 0.950 . S
H1607 C1612 0.949 . S
H1608 C1614 0.950 . S
H1609 C1615 0.950 . S
H1610 C1616 0.949 1_554 S
C1611 H1606 0.950 . S
C1611 C1613 1.327 . S
C1611 C1617 1.429 . S
C1612 C1604 1.574 . S
C1612 H1607 0.949 . S
C1612 C1618 1.368 . S
C1613 C1597 1.349 . S
C1613 H1605 0.950 . S
C1613 C1611 1.327 . S
C1614 C1602 1.349 1_556 S
C1614 H1608 0.950 . S
C1614 C1615 1.327 . S
C1615 H1609 0.950 . S
C1615 C1614 1.327 . S
C1615 C1619 1.429 . S
C1616 C1599 1.574 . S
C1616 H1610 0.949 1_556 S
C1616 C1620 1.368 . S
C1617 C1598 1.429 . S
C1617 C1611 1.429 . S
C1617 C1618 1.523 . S
C1618 C1599 1.368 . S
C1618 C1612 1.368 . S
C1618 C1617 1.523 . S
C1619 C1603 1.429 1_556 S
C1619 C1615 1.429 . S
C1619 C1620 1.523 . S
C1620 C1604 1.368 . S
C1620 C1616 1.368 . S
C1620 C1619 1.523 . S
H1621 C1596 0.950 . S
H1622 C1598 0.950 . S
H1623 C1599 0.949 . S
H1624 C1601 0.950 . S
H1625 C1603 0.950 . S
C1626 C1627 1.349 . S
C1626 C1628 1.327 . S
C1626 H1651 0.950 . S
C1627 C1626 1.349 . S
C1627 C1643 1.349 . S
C1628 C1626 1.327 . S
C1628 C1647 1.429 . S
C1628 H1652 0.950 . S
C1629 C1646 1.574 . S
C1629 C1648 1.368 . S
C1629 H1653 0.949 . S
H1630 C1634 0.949 1_554 S
C1631 C1632 1.349 1_556 S
C1631 C1633 1.327 . S
C1631 H1654 0.950 . S
C1632 C1631 1.349 1_554 S
C1632 C1644 1.349 . S
C1633 C1631 1.327 . S
C1633 C1649 1.429 . S
C1633 H1655 0.950 . S
C1634 H1630 0.949 1_556 S
C1634 C1642 1.574 . S
C1634 C1650 1.368 . S
H1635 C1643 0.950 . S
H1636 C1641 0.950 . S
H1637 C1642 0.949 . S
H1638 C1644 0.950 . S
H1639 C1645 0.950 . S
H1640 C1646 0.949 . S
C1641 H1636 0.950 . S
C1641 C1643 1.327 . S
C1641 C1647 1.429 . S
C1642 C1634 1.574 . S
C1642 H1637 0.949 . S
C1642 C1648 1.368 . S
C1643 C1627 1.349 . S
C1643 H1635 0.950 . S
C1643 C1641 1.327 . S
C1644 C1632 1.349 . S
C1644 H1638 0.950 . S
C1644 C1645 1.327 . S
C1645 H1639 0.950 . S
C1645 C1644 1.327 . S
C1645 C1649 1.429 1_554 S
C1646 C1629 1.574 . S
C1646 H1640 0.949 . S
C1646 C1650 1.368 . S
C1647 C1628 1.429 . S
C1647 C1641 1.429 . S
C1647 C1648 1.523 . S
C1648 C1629 1.368 . S
C1648 C1642 1.368 . S
C1648 C1647 1.523 . S
C1649 C1633 1.429 . S
C1649 C1645 1.429 1_556 S
C1649 C1650 1.523 . S
C1650 C1634 1.368 . S
C1650 C1646 1.368 . S
C1650 C1649 1.523 . S
H1651 C1626 0.950 . S
H1652 C1628 0.950 . S
H1653 C1629 0.949 . S
H1654 C1631 0.950 . S
H1655 C1633 0.950 . S
C1656 C1657 1.349 . S
C1656 C1658 1.327 . S
C1656 H1681 0.950 . S
C1657 C1656 1.349 . S
C1657 C1673 1.349 . S
C1658 C1656 1.327 . S
C1658 C1677 1.429 . S
C1658 H1682 0.950 . S
C1659 C1676 1.574 . S
C1659 C1678 1.368 . S
C1659 H1683 0.949 . S
H1660 C1664 0.949 . S
C1661 C1662 1.349 . S
C1661 C1663 1.327 . S
C1661 H1684 0.950 . S
C1662 C1661 1.349 . S
C1662 C1674 1.349 . S
C1663 C1661 1.327 . S
C1663 C1679 1.429 . S
C1663 H1685 0.950 . S
C1664 H1660 0.949 . S
C1664 C1672 1.574 . S
C1664 C1680 1.368 . S
H1665 C1673 0.950 . S
H1666 C1671 0.950 . S
H1667 C1672 0.949 . S
H1668 C1674 0.950 . S
H1669 C1675 0.950 . S
H1670 C1676 0.949 . S
C1671 H1666 0.950 . S
C1671 C1673 1.327 . S
C1671 C1677 1.429 . S
C1672 C1664 1.574 . S
C1672 H1667 0.949 . S
C1672 C1678 1.368 . S
C1673 C1657 1.349 . S
C1673 H1665 0.950 . S
C1673 C1671 1.327 . S
C1674 C1662 1.349 . S
C1674 H1668 0.950 . S
C1674 C1675 1.327 . S
C1675 H1669 0.950 . S
C1675 C1674 1.327 . S
C1675 C1679 1.429 . S
C1676 C1659 1.574 . S
C1676 H1670 0.949 . S
C1676 C1680 1.368 . S
C1677 C1658 1.429 . S
C1677 C1671 1.429 . S
C1677 C1678 1.523 . S
C1678 C1659 1.368 . S
C1678 C1672 1.368 . S
C1678 C1677 1.523 . S
C1679 C1663 1.429 . S
C1679 C1675 1.429 . S
C1679 C1680 1.523 . S
C1680 C1664 1.368 . S
C1680 C1676 1.368 . S
C1680 C1679 1.523 . S
H1681 C1656 0.950 . S
H1682 C1658 0.950 . S
H1683 C1659 0.949 . S
H1684 C1661 0.950 . S
H1685 C1663 0.950 . S
C1686 C1687 1.349 . S
C1686 C1688 1.327 . S
C1686 H1711 0.950 . S
C1687 C1686 1.349 . S
C1687 C1703 1.349 . S
C1688 C1686 1.327 . S
C1688 C1707 1.429 . S
C1688 H1712 0.950 . S
C1689 C1706 1.574 . S
C1689 C1708 1.368 . S
C1689 H1713 0.949 . S
H1690 C1694 0.949 . S
C1691 C1692 1.349 . S
C1691 C1693 1.327 . S
C1691 H1714 0.950 . S
C1692 C1691 1.349 . S
C1692 C1704 1.349 . S
C1693 C1691 1.327 . S
C1693 C1709 1.429 . S
C1693 H1715 0.950 . S
C1694 H1690 0.949 . S
C1694 C1702 1.574 . S
C1694 C1710 1.368 . S
H1695 C1703 0.950 . S
H1696 C1701 0.950 . S
H1697 C1702 0.949 . S
H1698 C1704 0.950 . S
H1699 C1705 0.950 . S
H1700 C1706 0.949 . S
C1701 H1696 0.950 . S
C1701 C1703 1.327 . S
C1701 C1707 1.429 . S
C1702 C1694 1.574 . S
C1702 H1697 0.949 . S
C1702 C1708 1.368 . S
C1703 C1687 1.349 . S
C1703 H1695 0.950 . S
C1703 C1701 1.327 . S
C1704 C1692 1.349 . S
C1704 H1698 0.950 . S
C1704 C1705 1.327 . S
C1705 H1699 0.950 . S
C1705 C1704 1.327 . S
C1705 C1709 1.429 . S
C1706 C1689 1.574 . S
C1706 H1700 0.949 . S
C1706 C1710 1.368 . S
C1707 C1688 1.429 . S
C1707 C1701 1.429 . S
C1707 C1708 1.523 . S
C1708 C1689 1.368 . S
C1708 C1702 1.368 . S
C1708 C1707 1.523 . S
C1709 C1693 1.429 . S
C1709 C1705 1.429 . S
C1709 C1710 1.523 . S
C1710 C1694 1.368 . S
C1710 C1706 1.368 . S
C1710 C1709 1.523 . S
H1711 C1686 0.950 . S
H1712 C1688 0.950 . S
H1713 C1689 0.949 . S
H1714 C1691 0.950 . S
H1715 C1693 0.950 . S
C1716 C1717 1.349 . S
C1716 C1718 1.327 . S
C1716 H1741 0.950 . S
C1717 C1716 1.349 . S
C1717 C1733 1.349 . S
C1718 C1716 1.327 . S
C1718 C1737 1.429 . S
C1718 H1742 0.950 . S
C1719 C1736 1.574 . S
C1719 C1738 1.368 . S
C1719 H1743 0.949 . S
H1720 C1724 0.949 . S
C1721 C1722 1.349 . S
C1721 C1723 1.327 . S
C1721 H1744 0.950 . S
C1722 C1721 1.349 . S
C1722 C1734 1.349 . S
C1723 C1721 1.327 . S
C1723 C1739 1.429 . S
C1723 H1745 0.950 . S
C1724 H1720 0.949 . S
C1724 C1732 1.574 . S
C1724 C1740 1.368 . S
H1725 C1733 0.950 . S
H1726 C1731 0.950 . S
H1727 C1732 0.949 . S
H1728 C1734 0.950 . S
H1729 C1735 0.950 . S
H1730 C1736 0.949 . S
C1731 H1726 0.950 . S
C1731 C1733 1.327 . S
C1731 C1737 1.429 . S
C1732 C1724 1.574 . S
C1732 H1727 0.949 . S
C1732 C1738 1.368 . S
C1733 C1717 1.349 . S
C1733 H1725 0.950 . S
C1733 C1731 1.327 . S
C1734 C1722 1.349 . S
C1734 H1728 0.950 . S
C1734 C1735 1.327 . S
C1735 H1729 0.950 . S
C1735 C1734 1.327 . S
C1735 C1739 1.429 . S
C1736 C1719 1.574 . S
C1736 H1730 0.949 . S
C1736 C1740 1.368 . S
C1737 C1718 1.429 . S
C1737 C1731 1.429 . S
C1737 C1738 1.523 . S
C1738 C1719 1.368 . S
C1738 C1732 1.368 . S
C1738 C1737 1.523 . S
C1739 C1723 1.429 . S
C1739 C1735 1.429 . S
C1739 C1740 1.523 . S
C1740 C1724 1.368 . S
C1740 C1736 1.368 . S
C1740 C1739 1.523 . S
H1741 C1716 0.950 . S
H1742 C1718 0.950 . S
H1743 C1719 0.949 . S
H1744 C1721 0.950 . S
H1745 C1723 0.950 . S
C1746 C1747 1.349 . S
C1746 C1748 1.327 . S
C1746 H1771 0.950 . S
C1747 C1746 1.349 . S
C1747 C1763 1.349 . S
C1748 C1746 1.327 . S
C1748 C1767 1.429 1_556 S
C1748 H1772 0.950 . S
C1749 C1766 1.574 . S
C1749 C1768 1.368 . S
C1749 H1773 0.949 . S
H1750 C1754 0.949 . S
C1751 C1752 1.349 . S
C1751 C1753 1.327 . S
C1751 H1774 0.950 . S
C1752 C1751 1.349 . S
C1752 C1764 1.349 . S
C1753 C1751 1.327 . S
C1753 C1769 1.429 . S
C1753 H1775 0.950 . S
C1754 H1750 0.949 . S
C1754 C1762 1.574 . S
C1754 C1770 1.368 . S
H1755 C1763 0.950 . S
H1756 C1761 0.950 . S
H1757 C1762 0.949 . S
H1758 C1764 0.950 . S
H1759 C1765 0.950 . S
H1760 C1766 0.949 . S
C1761 H1756 0.950 . S
C1761 C1763 1.327 1_554 S
C1761 C1767 1.429 . S
C1762 C1754 1.574 . S
C1762 H1757 0.949 . S
C1762 C1768 1.368 . S
C1763 C1747 1.349 . S
C1763 H1755 0.950 . S
C1763 C1761 1.327 1_556 S
C1764 C1752 1.349 . S
C1764 H1758 0.950 . S
C1764 C1765 1.327 . S
C1765 H1759 0.950 . S
C1765 C1764 1.327 . S
C1765 C1769 1.429 . S
C1766 C1749 1.574 . S
C1766 H1760 0.949 . S
C1766 C1770 1.368 . S
C1767 C1748 1.429 1_554 S
C1767 C1761 1.429 . S
C1767 C1768 1.523 . S
C1768 C1749 1.368 . S
C1768 C1762 1.368 . S
C1768 C1767 1.523 . S
C1769 C1753 1.429 . S
C1769 C1765 1.429 . S
C1769 C1770 1.523 . S
C1770 C1754 1.368 . S
C1770 C1766 1.368 . S
C1770 C1769 1.523 . S
H1771 C1746 0.950 . S
H1772 C1748 0.950 . S
H1773 C1749 0.949 . S
H1774 C1751 0.950 . S
H1775 C1753 0.950 . S
C1776 C1777 1.349 . S
C1776 C1778 1.327 . S
C1776 H1801 0.950 . S
C1777 C1776 1.349 . S
C1777 C1793 1.349 . S
C1778 C1776 1.327 . S
C1778 C1797 1.429 . S
C1778 H1802 0.950 . S
C1779 C1796 1.574 . S
C1779 C1798 1.368 . S
C1779 H1803 0.949 . S
H1780 C1784 0.949 . S
C1781 C1782 1.349 . S
C1781 C1783 1.327 1_556 S
C1781 H1804 0.950 . S
C1782 C1781 1.349 . S
C1782 C1794 1.349 . S
C1783 C1781 1.327 1_554 S
C1783 C1799 1.429 . S
C1783 H1805 0.950 . S
C1784 H1780 0.949 . S
C1784 C1792 1.574 . S
C1784 C1800 1.368 . S
H1785 C1793 0.950 . S
H1786 C1791 0.950 . S
H1787 C1792 0.949 . S
H1788 C1794 0.950 . S
H1789 C1795 0.950 . S
H1790 C1796 0.949 . S
C1791 H1786 0.950 . S
C1791 C1793 1.327 . S
C1791 C1797 1.429 . S
C1792 C1784 1.574 . S
C1792 H1787 0.949 . S
C1792 C1798 1.368 . S
C1793 C1777 1.349 . S
C1793 H1785 0.950 . S
C1793 C1791 1.327 . S
C1794 C1782 1.349 . S
C1794 H1788 0.950 . S
C1794 C1795 1.327 . S
C1795 H1789 0.950 . S
C1795 C1794 1.327 . S
C1795 C1799 1.429 1_556 S
C1796 C1779 1.574 . S
C1796 H1790 0.949 . S
C1796 C1800 1.368 . S
C1797 C1778 1.429 . S
C1797 C1791 1.429 . S
C1797 C1798 1.523 . S
C1798 C1779 1.368 . S
C1798 C1792 1.368 . S
C1798 C1797 1.523 . S
C1799 C1783 1.429 . S
C1799 C1795 1.429 1_554 S
C1799 C1800 1.523 . S
C1800 C1784 1.368 . S
C1800 C1796 1.368 . S
C1800 C1799 1.523 . S
H1801 C1776 0.950 . S
H1802 C1778 0.950 . S
H1803 C1779 0.949 . S
H1804 C1781 0.950 . S
H1805 C1783 0.950 . S
C1806 C1807 1.349 . S
C1806 C1808 1.327 . S
C1806 H1831 0.950 . S
C1807 C1806 1.349 . S
C1807 C1823 1.349 . S
C1808 C1806 1.327 . S
C1808 C1827 1.429 . S
C1808 H1832 0.950 . S
C1809 C1826 1.574 . S
C1809 C1828 1.368 . S
C1809 H1833 0.949 . S
H1810 C1814 0.949 1_556 S
C1811 C1812 1.349 1_554 S
C1811 C1813 1.327 . S
C1811 H1834 0.950 . S
C1812 C1811 1.349 1_556 S
C1812 C1824 1.349 . S
C1813 C1811 1.327 . S
C1813 C1829 1.429 . S
C1813 H1835 0.950 . S
C1814 H1810 0.949 1_554 S
C1814 C1822 1.574 . S
C1814 C1830 1.368 . S
H1815 C1823 0.950 . S
H1816 C1821 0.950 . S
H1817 C1822 0.949 . S
H1818 C1824 0.950 . S
H1819 C1825 0.950 . S
H1820 C1826 0.949 . S
C1821 H1816 0.950 . S
C1821 C1823 1.327 . S
C1821 C1827 1.429 . S
C1822 C1814 1.574 . S
C1822 H1817 0.949 . S
C1822 C1828 1.368 . S
C1823 C1807 1.349 . S
C1823 H1815 0.950 . S
C1823 C1821 1.327 . S
C1824 C1812 1.349 . S
C1824 H1818 0.950 . S
C1824 C1825 1.327 . S
C1825 H1819 0.950 . S
C1825 C1824 1.327 . S
C1825 C1829 1.429 1_556 S
C1826 C1809 1.574 . S
C1826 H1820 0.949 . S
C1826 C1830 1.368 . S
C1827 C1808 1.429 . S
C1827 C1821 1.429 . S
C1827 C1828 1.523 . S
C1828 C1809 1.368 . S
C1828 C1822 1.368 . S
C1828 C1827 1.523 . S
C1829 C1813 1.429 . S
C1829 C1825 1.429 1_554 S
C1829 C1830 1.523 . S
C1830 C1814 1.368 . S
C1830 C1826 1.368 . S
C1830 C1829 1.523 . S
H1831 C1806 0.950 . S
H1832 C1808 0.950 . S
H1833 C1809 0.949 . S
H1834 C1811 0.950 . S
H1835 C1813 0.950 . S
C1836 C1837 1.349 . S
C1836 C1838 1.327 . S
C1836 H1861 0.950 . S
C1837 C1836 1.349 . S
C1837 C1853 1.349 . S
C1838 C1836 1.327 . S
C1838 C1857 1.429 . S
C1838 H1862 0.950 . S
C1839 C1856 1.574 1_655 S
C1839 C1858 1.368 . S
C1839 H1863 0.949 . S
H1840 C1844 0.949 . S
C1841 C1842 1.349 . S
C1841 C1843 1.327 . S
C1841 H1864 0.950 . S
C1842 C1841 1.349 . S
C1842 C1854 1.349 . S
C1843 C1841 1.327 . S
C1843 C1859 1.429 . S
C1843 H1865 0.950 . S
C1844 H1840 0.949 . S
C1844 C1852 1.574 1_455 S
C1844 C1860 1.368 . S
H1845 C1853 0.950 . S
H1846 C1851 0.950 . S
H1847 C1852 0.949 . S
H1848 C1854 0.950 . S
H1849 C1855 0.950 . S
H1850 C1856 0.949 . S
C1851 H1846 0.950 . S
C1851 C1853 1.327 . S
C1851 C1857 1.429 . S
C1852 C1844 1.574 1_655 S
C1852 H1847 0.949 . S
C1852 C1858 1.368 . S
C1853 C1837 1.349 . S
C1853 H1845 0.950 . S
C1853 C1851 1.327 . S
C1854 C1842 1.349 . S
C1854 H1848 0.950 . S
C1854 C1855 1.327 . S
C1855 H1849 0.950 . S
C1855 C1854 1.327 . S
C1855 C1859 1.429 . S
C1856 C1839 1.574 1_455 S
C1856 H1850 0.949 . S
C1856 C1860 1.368 . S
C1857 C1838 1.429 . S
C1857 C1851 1.429 . S
C1857 C1858 1.523 . S
C1858 C1839 1.368 . S
C1858 C1852 1.368 . S
C1858 C1857 1.523 . S
C1859 C1843 1.429 . S
C1859 C1855 1.429 . S
C1859 C1860 1.523 . S
C1860 C1844 1.368 . S
C1860 C1856 1.368 . S
C1860 C1859 1.523 . S
H1861 C1836 0.950 . S
H1862 C1838 0.950 . S
H1863 C1839 0.949 . S
H1864 C1841 0.950 . S
H1865 C1843 0.950 . S
C1866 C1867 1.349 . S
C1866 C1868 1.327 . S
C1866 H1891 0.950 . S
C1867 C1866 1.349 . S
C1867 C1883 1.349 . S
C1868 C1866 1.327 . S
C1868 C1887 1.429 . S
C1868 H1892 0.950 . S
C1869 C1886 1.574 . S
C1869 C1888 1.368 . S
C1869 H1893 0.949 . S
H1870 C1874 0.949 . S
C1871 C1872 1.349 . S
C1871 C1873 1.327 . S
C1871 H1894 0.950 . S
C1872 C1871 1.349 . S
C1872 C1884 1.349 . S
C1873 C1871 1.327 . S
C1873 C1889 1.429 . S
C1873 H1895 0.950 . S
C1874 H1870 0.949 . S
C1874 C1882 1.574 . S
C1874 C1890 1.368 . S
H1875 C1883 0.950 . S
H1876 C1881 0.950 . S
H1877 C1882 0.949 . S
H1878 C1884 0.950 . S
H1879 C1885 0.950 . S
H1880 C1886 0.949 . S
C1881 H1876 0.950 . S
C1881 C1883 1.327 . S
C1881 C1887 1.429 . S
C1882 C1874 1.574 . S
C1882 H1877 0.949 . S
C1882 C1888 1.368 . S
C1883 C1867 1.349 . S
C1883 H1875 0.950 . S
C1883 C1881 1.327 . S
C1884 C1872 1.349 . S
C1884 H1878 0.950 . S
C1884 C1885 1.327 . S
C1885 H1879 0.950 . S
C1885 C1884 1.327 . S
C1885 C1889 1.429 . S
C1886 C1869 1.574 . S
C1886 H1880 0.949 . S
C1886 C1890 1.368 . S
C1887 C1868 1.429 . S
C1887 C1881 1.429 . S
C1887 C1888 1.523 . S
C1888 C1869 1.368 . S
C1888 C1882 1.368 . S
C1888 C1887 1.523 . S
C1889 C1873 1.429 . S
C1889 C1885 1.429 . S
C1889 C1890 1.523 . S
C1890 C1874 1.368 . S
C1890 C1886 1.368 . S
C1890 C1889 1.523 . S
H1891 C1866 0.950 . S
H1892 C1868 0.950 . S
H1893 C1869 0.949 . S
H1894 C1871 0.950 . S
H1895 C1873 0.950 . S
C1896 C1897 1.349 . S
C1896 C1898 1.327 . S
C1896 H1921 0.950 . S
C1897 C1896 1.349 . S
C1897 C1913 1.349 . S
C1898 C1896 1.327 . S
C1898 C1917 1.429 . S
C1898 H1922 0.950 . S
C1899 C1916 1.574 1_565 S
C1899 C1918 1.368 . S
C1899 H1923 0.949 . S
H1900 C1904 0.949 . S
C1901 C1902 1.349 . S
C1901 C1903 1.327 . S
C1901 H1924 0.950 . S
C1902 C1901 1.349 . S
C1902 C1914 1.349 . S
C1903 C1901 1.327 . S
C1903 C1919 1.429 . S
C1903 H1925 0.950 . S
C1904 H1900 0.949 . S
C1904 C1912 1.574 . S
C1904 C1920 1.368 . S
H1905 C1913 0.950 . S
H1906 C1911 0.950 . S
H1907 C1912 0.957 . S
H1908 C1914 0.950 . S
H1909 C1915 0.950 . S
H1910 C1916 0.949 . S
C1911 H1906 0.950 . S
C1911 C1913 1.327 . S
C1911 C1917 1.429 . S
C1912 C1904 1.574 . S
C1912 H1907 0.957 . S
C1912 C1918 1.368 1_545 S
C1913 C1897 1.349 . S
C1913 H1905 0.950 . S
C1913 C1911 1.327 . S
C1914 C1902 1.349 . S
C1914 H1908 0.950 . S
C1914 C1915 1.327 . S
C1915 H1909 0.950 . S
C1915 C1914 1.327 . S
C1915 C1919 1.429 . S
C1916 C1899 1.574 1_545 S
C1916 H1910 0.949 . S
C1916 C1920 1.368 . S
C1917 C1898 1.429 . S
C1917 C1911 1.429 . S
C1917 C1918 1.523 . S
C1918 C1899 1.368 . S
C1918 C1912 1.368 1_565 S
C1918 C1917 1.523 . S
C1919 C1903 1.429 . S
C1919 C1915 1.429 . S
C1919 C1920 1.523 . S
C1920 C1904 1.368 . S
C1920 C1916 1.368 . S
C1920 C1919 1.523 . S
H1921 C1896 0.950 . S
H1922 C1898 0.950 . S
H1923 C1899 0.949 . S
H1924 C1901 0.950 . S
H1925 C1903 0.950 . S
C1926 C1927 1.349 . S
C1926 C1928 1.327 . S
C1926 H1951 0.950 . S
C1927 C1926 1.349 . S
C1927 C1943 1.349 . S
C1928 C1926 1.327 . S
C1928 C1947 1.429 . S
C1928 H1952 0.950 . S
C1929 C1946 1.574 . S
C1929 C1948 1.368 1_545 S
C1929 H1953 0.949 . S
H1930 C1934 0.949 . S
C1931 C1932 1.349 . S
C1931 C1933 1.327 . S
C1931 H1954 0.950 . S
C1932 C1931 1.349 . S
C1932 C1944 1.349 . S
C1933 C1931 1.327 . S
C1933 C1949 1.429 . S
C1933 H1955 0.950 . S
C1934 H1930 0.949 . S
C1934 C1942 1.574 1_545 S
C1934 C1950 1.368 . S
H1935 C1943 0.950 . S
H1936 C1941 0.950 . S
H1937 C1942 0.949 . S
H1938 C1944 0.950 . S
H1939 C1945 0.950 . S
H1940 C1946 0.949 . S
C1941 H1936 0.950 . S
C1941 C1943 1.327 . S
C1941 C1947 1.429 . S
C1942 C1934 1.574 1_565 S
C1942 H1937 0.949 . S
C1942 C1948 1.368 . S
C1943 C1927 1.349 . S
C1943 H1935 0.950 . S
C1943 C1941 1.327 . S
C1944 C1932 1.349 . S
C1944 H1938 0.950 . S
C1944 C1945 1.327 . S
C1945 H1939 0.950 . S
C1945 C1944 1.327 . S
C1945 C1949 1.429 . S
C1946 C1929 1.574 . S
C1946 H1940 0.949 . S
C1946 C1950 1.368 . S
C1947 C1928 1.429 . S
C1947 C1941 1.429 . S
C1947 C1948 1.523 . S
C1948 C1929 1.368 1_565 S
C1948 C1942 1.368 . S
C1948 C1947 1.523 . S
C1949 C1933 1.429 . S
C1949 C1945 1.429 . S
C1949 C1950 1.523 . S
C1950 C1934 1.368 . S
C1950 C1946 1.368 . S
C1950 C1949 1.523 . S
H1951 C1926 0.950 . S
H1952 C1928 0.950 . S
H1953 C1929 0.949 . S
H1954 C1931 0.950 . S
H1955 C1933 0.950 . S
C1956 C1957 1.349 . S
C1956 C1958 1.327 . S
C1956 H1981 0.950 . S
C1957 C1956 1.349 . S
C1957 C1973 1.349 . S
C1958 C1956 1.327 . S
C1958 C1977 1.429 . S
C1958 H1982 0.950 . S
C1959 C1976 1.574 1_455 S
C1959 C1978 1.368 . S
C1959 H1983 0.949 . S
H1960 C1964 0.949 . S
C1961 C1962 1.349 . S
C1961 C1963 1.327 . S
C1961 H1984 0.950 . S
C1962 C1961 1.349 . S
C1962 C1974 1.349 . S
C1963 C1961 1.327 . S
C1963 C1979 1.429 . S
C1963 H1985 0.950 . S
C1964 H1960 0.949 . S
C1964 C1972 1.574 . S
C1964 C1980 1.368 1_455 S
H1965 C1973 0.950 . S
H1966 C1971 0.950 . S
H1967 C1972 0.949 . S
H1968 C1974 0.950 . S
H1969 C1975 0.950 . S
H1970 C1976 0.949 . S
C1971 H1966 0.950 . S
C1971 C1973 1.327 . S
C1971 C1977 1.429 . S
C1972 C1964 1.574 . S
C1972 H1967 0.949 . S
C1972 C1978 1.368 . S
C1973 C1957 1.349 . S
C1973 H1965 0.950 . S
C1973 C1971 1.327 . S
C1974 C1962 1.349 . S
C1974 H1968 0.950 . S
C1974 C1975 1.327 . S
C1975 H1969 0.950 . S
C1975 C1974 1.327 . S
C1975 C1979 1.429 . S
C1976 C1959 1.574 1_655 S
C1976 H1970 0.949 . S
C1976 C1980 1.368 . S
C1977 C1958 1.429 . S
C1977 C1971 1.429 . S
C1977 C1978 1.523 . S
C1978 C1959 1.368 . S
C1978 C1972 1.368 . S
C1978 C1977 1.523 . S
C1979 C1963 1.429 . S
C1979 C1975 1.429 . S
C1979 C1980 1.523 . S
C1980 C1964 1.368 1_655 S
C1980 C1976 1.368 . S
C1980 C1979 1.523 . S
H1981 C1956 0.950 . S
H1982 C1958 0.950 . S
H1983 C1959 0.949 . S
H1984 C1961 0.950 . S
H1985 C1963 0.950 . S
C1986 C1987 1.349 . S
C1986 C1988 1.327 . S
C1986 H2011 0.950 . S
C1987 C1986 1.349 . S
C1987 C2003 1.349 . S
C1988 C1986 1.327 . S
C1988 C2007 1.429 . S
C1988 H2012 0.950 . S
C1989 C2006 1.574 . S
C1989 C2008 1.368 . S
C1989 H2013 0.949 . S
H1990 C1994 0.949 . S
C1991 C1992 1.349 . S
C1991 C1993 1.327 . S
C1991 H2014 0.950 . S
C1992 C1991 1.349 . S
C1992 C2004 1.349 . S
C1993 C1991 1.327 . S
C1993 C2009 1.429 . S
C1993 H2015 0.950 . S
C1994 H1990 0.949 . S
C1994 C2002 1.574 . S
C1994 C2010 1.368 . S
H1995 C2003 0.950 . S
H1996 C2001 0.950 . S
H1997 C2002 0.949 . S
H1998 C2004 0.950 . S
H1999 C2005 0.950 . S
H2000 C2006 0.949 . S
C2001 H1996 0.950 . S
C2001 C2003 1.327 . S
C2001 C2007 1.429 . S
C2002 C1994 1.574 . S
C2002 H1997 0.949 . S
C2002 C2008 1.368 . S
C2003 C1987 1.349 . S
C2003 H1995 0.950 . S
C2003 C2001 1.327 . S
C2004 C1992 1.349 . S
C2004 H1998 0.950 . S
C2004 C2005 1.327 . S
C2005 H1999 0.950 . S
C2005 C2004 1.327 . S
C2005 C2009 1.429 . S
C2006 C1989 1.574 . S
C2006 H2000 0.949 . S
C2006 C2010 1.368 . S
C2007 C1988 1.429 . S
C2007 C2001 1.429 . S
C2007 C2008 1.523 . S
C2008 C1989 1.368 . S
C2008 C2002 1.368 . S
C2008 C2007 1.523 . S
C2009 C1993 1.429 . S
C2009 C2005 1.429 . S
C2009 C2010 1.523 . S
C2010 C1994 1.368 . S
C2010 C2006 1.368 . S
C2010 C2009 1.523 . S
H2011 C1986 0.950 . S
H2012 C1988 0.950 . S
H2013 C1989 0.949 . S
H2014 C1991 0.950 . S
H2015 C1993 0.950 . S
C397 C4 1.254 . S
C402 C94 1.241 . S
C427 C114 1.241 . S
C432 C28 1.254 . S
C457 C48 1.254 . S
C462 C70 1.241 . S
C487 C51 1.254 . S
C492 C96 1.241 . S
C517 C117 1.241 . S
C522 C7 1.254 . S
C547 C30 1.254 . S
C552 C73 1.241 . S
C577 C31 1.241 . S
C582 C74 1.254 . S
C607 C52 1.241 . S
C612 C97 1.254 . S
C637 C118 1.254 . S
C642 C8 1.241 . S
C667 C115 1.254 . S
C672 C26 1.240 . S
C697 C49 1.241 . S
C702 C71 1.254 . S
C727 C5 1.241 . S
C732 C92 1.254 . S
C757 C226 1.241 . S
C762 C136 1.254 . S
C787 C158 1.254 . S
C792 C248 1.241 . S
C817 C180 1.254 . S
C822 C204 1.241 . S
C847 C228 1.241 . S
C852 C183 1.254 . S
C877 C250 1.241 . S
C882 C139 1.254 . S
C907 C206 1.241 . S
C912 C161 1.254 . S
C937 C162 1.241 . S
C942 C207 1.254 . S
C967 C184 1.241 . S
C972 C229 1.254 . S
C997 C140 1.241 . S
C1002 C251 1.254 . S
C1027 C159 1.241 . S
C1032 C246 1.254 . S
C1057 C181 1.241 . S
C1062 C202 1.254 . S
C1087 C224 1.254 . S
C1092 C137 1.241 . S
C1117 C268 1.254 . S
C1122 C358 1.241 . S
C1147 C292 1.254 . S
C1152 C380 1.241 . S
C1177 C334 1.241 . S
C1182 C312 1.254 . S
C1207 C360 1.241 . S
C1212 C315 1.254 . S
C1237 C271 1.254 . S
C1242 C382 1.241 . S
C1267 C294 1.254 . S
C1272 C337 1.241 . S
C1297 C295 1.241 . S
C1302 C338 1.254 . S
C1327 C316 1.241 . S
C1332 C361 1.254 . S
C1357 C272 1.241 . S
C1362 C383 1.254 . S
C1387 C378 1.254 . S
C1392 C290 1.241 . S
C1417 C335 1.254 . S
C1422 C313 1.241 . S
C1447 C269 1.241 . S
C1452 C356 1.254 . S
C1477 C6 1.800 . S
C1482 C293 1.800 . S
C1507 C27 1.800 . S
C1512 C317 1.800 . S
C1537 C50 1.800 . S
C1542 C273 1.800 . S
C1567 C53 1.800 . S
C1572 C160 1.800 . S
C1597 C9 1.799 . S
C1602 C182 1.799 . S
C1627 C29 1.800 . S
C1632 C138 1.800 . S
C1657 C225 1.800 . S
C1662 C75 1.800 . S
C1687 C95 1.800 . S
C1692 C247 1.800 . S
C1717 C119 1.800 . S
C1722 C203 1.800 . S
C1747 C359 1.800 . S
C1752 C116 1.800 . S
C1777 C72 1.799 . S
C1782 C381 1.799 . S
C1807 C93 1.800 . S
C1812 C339 1.800 . S
C1837 C185 1.800 . S
C1842 C291 1.800 . S
C1867 C141 1.800 . S
C1872 C314 1.800 . S
C1897 C270 1.800 . S
C1902 C163 1.800 . S
C1927 C357 1.800 . S
C1932 C205 1.800 . S
C1957 C379 1.800 . S
C1962 C227 1.800 . S
C1987 C249 1.799 . S
C1992 C336 1.799 . S
