# Generated by pormake.
# Topology ilc, (8)-cn, num edge types: 1
# Building blocks:
#     Node 0, Type 0, BuildingBlock: XADDAJ01_clean_sbu_3, # of connection points: 8
#     Node 1, Type 0, BuildingBlock: XADDAJ01_clean_sbu_3, # of connection points: 8
#     Node 2, Type 0, BuildingBlock: XADDAJ01_clean_sbu_3, # of connection points: 8
#     Edge 3, Type (0, 0), BuildingBlock: FUNLAD_clean_linker_1, # of connection points: 2
#     Edge 4, Type (0, 0), BuildingBlock: FUNLAD_clean_linker_1, # of connection points: 2
#     Edge 5, Type (0, 0), BuildingBlock: FUNLAD_clean_linker_1, # of connection points: 2
#     Edge 6, Type (0, 0), BuildingBlock: FUNLAD_clean_linker_1, # of connection points: 2
#     Edge 7, Type (0, 0), BuildingBlock: FUNLAD_clean_linker_1, # of connection points: 2
#     Edge 8, Type (0, 0), BuildingBlock: FUNLAD_clean_linker_1, # of connection points: 2
#     Edge 9, Type (0, 0), BuildingBlock: FUNLAD_clean_linker_1, # of connection points: 2
#     Edge 10, Type (0, 0), BuildingBlock: FUNLAD_clean_linker_1, # of connection points: 2
#     Edge 11, Type (0, 0), BuildingBlock: FUNLAD_clean_linker_1, # of connection points: 2
#     Edge 12, Type (0, 0), BuildingBlock: FUNLAD_clean_linker_1, # of connection points: 2
#     Edge 13, Type (0, 0), BuildingBlock: FUNLAD_clean_linker_1, # of connection points: 2
#     Edge 14, Type (0, 0), BuildingBlock: FUNLAD_clean_linker_1, # of connection points: 2
# Relax obj value: 0.159
# Max RMSD: 0.201
# Mean RMSD: 0.201
data_MOF--net-ilc--node1-XADDAJ01_clean_sbu_3--edge1-FUNLAD_clean_linker_1
_symmetry_space_group_name_H-M    P1
_symmetry_Int_Tables_number       1
_symmetry_cell_setting            triclinic
loop_
_symmetry_equiv_pos_as_xyz
'x, y, z'
_cell_length_a     23.106526
_cell_length_b     32.28086
_cell_length_c     20.092716
_cell_angle_alpha  101.66079
_cell_angle_beta   75.000279
_cell_angle_gamma 141.45875
loop_
_atom_site_label
_atom_site_type_symbol
_atom_site_fract_x
_atom_site_fract_y
_atom_site_fract_z
_atom_type_partial_charge
C0 C 0.13508 0.98906 0.14664 0.0
C1 C 0.05996 0.96701 0.196 0.0
C2 C 0.01917 0.92453 0.24888 0.0
C3 C 0.05036 0.90161 0.25137 0.0
C4 C 0.12967 0.9264 0.2063 0.0
C5 C 0.17268 0.97079 0.15338 0.0
O6 O 0.99305 0.02213 0.11331 0.0
Tb7 Tb 0.14037 0.08782 0.07454 0.0
Tb8 Tb 0.99164 0.9765 0.9431 0.0
O9 O 0.18548 0.16071 0.15629 0.0
O10 O 0.93115 0.93213 0.04478 0.0
O11 O 0.22327 0.0948 0.11426 0.0
C12 C 0.93232 0.0118 0.9198 0.0
O13 O 0.11907 1.01048 0.05118 0.0
O14 O 0.14289 0.05013 0.90667 0.0
O15 O 0.20413 0.13929 0.97707 0.0
C16 C 0.17641 0.03496 0.09247 0.0
C17 C 0.96257 0.86716 0.88131 0.0
O18 O 0.98731 0.87769 0.94014 0.0
C19 C 0.92555 0.95767 0.10215 0.0
C20 C 0.20478 0.11464 0.91638 0.0
O21 O 0.95758 0.90248 0.86722 0.0
C22 C 0.92937 0.02743 0.85715 0.0
C23 C 0.91057 0.0757 0.79836 0.0
C24 C 0.92125 0.06703 0.85886 0.0
C25 C 0.9281 0.99796 0.79495 0.0
C26 C 0.91045 1.0023 0.73725 0.0
C27 C 0.90102 0.04024 0.73913 0.0
C28 C 0.17107 0.19363 0.16173 0.0
O29 O 0.13185 0.18502 0.11489 0.0
O30 O 0.88069 0.94964 0.92431 0.0
O31 O 1.01541 0.05369 0.93698 0.0
H32 H 0.0355 0.98487 0.19482 0.0
H33 H 0.01952 0.87051 0.29433 0.0
H34 H 0.23524 0.99162 0.11876 0.0
H35 H 0.92336 0.09075 0.90647 0.0
H36 H 0.93663 0.96898 0.79216 0.0
H37 H 0.88704 0.0424 0.69326 0.0
C38 C 0.83437 0.3675 0.53409 0.0
C39 C 0.81924 0.38911 0.59585 0.0
C40 C 0.83073 0.38418 0.65754 0.0
C41 C 0.86335 0.36178 0.65737 0.0
C42 C 0.87209 0.33474 0.59775 0.0
C43 C 0.86001 0.33947 0.53503 0.0
O44 O 0.64902 0.35163 0.39929 0.0
Tb45 Tb 0.78216 0.42002 0.43625 0.0
Tb46 Tb 0.60211 0.28893 0.25471 0.0
O47 O 0.8054 0.48999 0.51233 0.0
O48 O 0.53184 0.24734 0.35903 0.0
O49 O 0.87966 0.42698 0.44013 0.0
C50 C 0.56778 0.33921 0.22347 0.0
O51 O 0.72921 0.33837 0.47616 0.0
O52 O 0.73719 0.35643 0.28816 0.0
O53 O 0.85268 0.46029 0.33093 0.0
C54 C 0.81398 0.3689 0.47104 0.0
C55 C 0.60707 0.2033 0.1571 0.0
O56 O 0.68798 0.2442 0.17751 0.0
C57 C 0.57288 0.2874 0.41175 0.0
C58 C 0.81228 0.42102 0.27742 0.0
O59 O 0.5557 0.20975 0.18225 0.0
C60 C 0.51328 0.32051 0.17325 0.0
C61 C 0.47221 0.34699 0.10349 0.0
C62 C 0.51858 0.3639 0.15616 0.0
C63 C 0.46246 0.26075 0.13704 0.0
C64 C 0.42363 0.24652 0.08081 0.0
C65 C 0.42395 0.28751 0.06702 0.0
C66 C 0.80662 0.52789 0.49442 0.0
O67 O 0.79256 0.52156 0.43201 0.0
O68 O 0.51728 0.2966 0.27413 0.0
O69 O 0.64525 0.35924 0.19689 0.0
H70 H 0.79368 0.40653 0.59652 0.0
H71 H 0.87453 0.3607 0.70583 0.0
H72 H 0.86718 0.31949 0.48806 0.0
H73 H 0.56055 0.41125 0.18236 0.0
H74 H 0.46234 0.22906 0.14764 0.0
H75 H 0.397 0.2772 0.0217 0.0
C76 C 0.46036 0.66272 0.81445 0.0
C77 C 0.46015 0.68972 0.87879 0.0
C78 C 0.45663 0.67119 0.93813 0.0
C79 C 0.4529 0.62562 0.93383 0.0
C80 C 0.45556 0.59915 0.87066 0.0
C81 C 0.45725 0.61663 0.81043 0.0
O82 O 0.26492 0.6568 0.78577 0.0
Tb83 Tb 0.41226 0.72598 0.7368 0.0
Tb84 Tb 0.25695 0.61153 0.61509 0.0
O85 O 0.47514 0.81039 0.80691 0.0
O86 O 0.19683 0.56541 0.71595 0.0
O87 O 0.51979 0.74762 0.75258 0.0
C88 C 0.21086 0.65652 0.59335 0.0
O89 O 0.38542 0.64619 0.73245 0.0
O90 O 0.40331 0.67834 0.56967 0.0
O91 O 0.46619 0.76927 0.63581 0.0
C92 C 0.46552 0.68455 0.7527 0.0
C93 C 0.24303 0.51259 0.53143 0.0
O94 O 0.30052 0.53592 0.57156 0.0
C95 C 0.1974 0.59167 0.77583 0.0
C96 C 0.46973 0.74309 0.57819 0.0
O97 O 0.21193 0.53463 0.53922 0.0
C98 C 0.2416 0.69597 0.53625 0.0
C99 C 0.23086 0.74946 0.47801 0.0
C100 C 0.19915 0.71138 0.53338 0.0
C101 C 0.3111 0.71519 0.48153 0.0
C102 C 0.33852 0.74971 0.42545 0.0
C103 C 0.30157 0.76891 0.4255 0.0
C104 C 0.44038 0.83002 0.82939 0.0
O105 O 0.36036 0.79586 0.81285 0.0
O106 O 0.16441 0.59581 0.57707 0.0
O107 O 0.27525 0.6874 0.63092 0.0
H108 H 0.46063 0.72401 0.88292 0.0
H109 H 0.44693 0.61007 0.98073 0.0
H110 H 0.45713 0.59534 0.76124 0.0
H111 H 0.14185 0.69342 0.5733 0.0
H112 H 0.34 0.70025 0.48094 0.0
H113 H 0.32284 0.79459 0.38077 0.0
H114 H 0.97306 0.98865 0.64959 0.0
C115 C 0.90888 0.97151 0.67235 0.0
H116 H 0.77513 0.91722 0.66028 0.0
H117 H 0.94524 0.01958 0.35317 0.0
H118 H 0.88133 0.05508 0.40084 0.0
H119 H 0.79788 0.02763 0.52055 0.0
H120 H 0.7825 0.96799 0.59435 0.0
C121 C 0.83827 0.93332 0.6365 0.0
C122 C 0.85648 0.92766 0.56096 0.0
C123 C 0.858 0.95811 0.51726 0.0
C124 C 0.90322 0.97205 0.44757 0.0
C125 C 0.90993 1.00661 0.40608 0.0
C126 C 0.87357 0.02729 0.43279 0.0
C127 C 0.8272 0.01226 0.50034 0.0
C128 C 0.81917 0.97806 0.54229 0.0
H129 H 0.89911 0.86351 0.33292 0.0
C130 C 0.95641 0.91268 0.30969 0.0
H131 H 0.04662 0.01442 0.32777 0.0
H132 H 0.84629 0.85523 0.62651 0.0
H133 H 0.93795 0.84009 0.58662 0.0
H134 H 0.04371 0.88561 0.47412 0.0
H135 H 0.04897 0.93811 0.39795 0.0
C136 C 0.98569 0.964 0.34793 0.0
C137 C 0.94442 0.95408 0.42176 0.0
C138 C 0.94566 0.92589 0.46641 0.0
C139 C 0.89519 0.9079 0.53433 0.0
C140 C 0.88917 0.87368 0.57583 0.0
C141 C 0.94087 0.86449 0.55351 0.0
C142 C 0.99922 0.88912 0.48982 0.0
C143 C 1.00097 0.91871 0.44625 0.0
H144 H 0.82144 0.40138 0.76837 0.0
C145 C 0.78894 0.38649 0.7245 0.0
H146 H 0.66411 0.33058 0.69085 0.0
H147 H 0.38509 0.11334 0.91957 0.0
H148 H 0.3411 0.04963 0.8134 0.0
H149 H 0.4343 0.10605 0.70079 0.0
H150 H 0.57021 0.22571 0.69334 0.0
C151 C 0.69815 0.34848 0.73487 0.0
C152 C 0.6378 0.31447 0.80208 0.0
C153 C 0.55945 0.2437 0.80481 0.0
C154 C 0.50699 0.21085 0.86957 0.0
C155 C 0.42743 0.14053 0.87149 0.0
C156 C 0.40173 0.10338 0.81102 0.0
C157 C 0.45423 0.13516 0.74766 0.0
C158 C 0.53229 0.20433 0.74422 0.0
H159 H 0.369 0.18892 0.98727 0.0
C160 C 0.40965 0.20338 0.02415 0.0
H161 H 0.52164 0.22753 0.03422 0.0
H162 H 0.76851 0.44937 0.81468 0.0
H163 H 0.81714 0.51288 0.92075 0.0
H164 H 0.74178 0.4564 0.03283 0.0
H165 H 0.61733 0.33705 0.039 0.0
C166 C 0.48116 0.21503 0.99888 0.0
C167 C 0.53611 0.24847 0.93093 0.0
C168 C 0.61421 0.31917 0.92816 0.0
C169 C 0.66211 0.352 0.86368 0.0
C170 C 0.73381 0.42223 0.86232 0.0
C171 C 0.76164 0.45926 0.92284 0.0
C172 C 0.71887 0.42751 0.98584 0.0
C173 C 0.64611 0.35848 0.98873 0.0
H174 H 0.40751 0.65959 0.04897 0.0
C175 C 0.45119 0.69502 1.00682 0.0
H176 H 0.54913 0.7958 0.98147 0.0
H177 H 0.30066 0.76143 0.26256 0.0
H178 H 0.26686 0.78301 0.17986 0.0
H179 H 0.34177 0.80539 0.05794 0.0
H180 H 0.44954 0.80432 0.01801 0.0
C181 C 0.50335 0.75827 0.02142 0.0
C182 C 0.49541 0.77519 0.09481 0.0
C183 C 0.43932 0.7813 0.11846 0.0
C184 C 0.39565 0.7677 0.18847 0.0
C185 C 0.33504 0.7703 0.20984 0.0
C186 C 0.31532 0.78305 0.16287 0.0
C187 C 0.3573 0.79549 0.09423 0.0
C188 C 0.41904 0.79498 0.07206 0.0
H189 H 0.46936 0.79531 0.35738 0.0
C190 C 0.3942 0.75769 0.36107 0.0
H191 H 0.27784 0.68963 0.30965 0.0
H192 H 0.61993 0.77803 0.06814 0.0
H193 H 0.63512 0.73792 0.14433 0.0
H194 H 0.53963 0.69613 0.26048 0.0
H195 H 0.43953 0.70304 0.30493 0.0
C196 C 0.35337 0.72609 0.30466 0.0
C197 C 0.40886 0.74814 0.23433 0.0
C198 C 0.4696 0.74579 0.21116 0.0
C199 C 0.51708 0.7632 0.14211 0.0
C200 C 0.57942 0.76238 0.11968 0.0
C201 C 0.58849 0.73947 0.1627 0.0
C202 C 0.53598 0.71704 0.22851 0.0
C203 C 0.47861 0.72129 0.25334 0.0
H204 H 0.10973 0.71757 0.46014 0.0
C205 C 0.1834 0.76118 0.46581 0.0
H206 H 0.30834 0.86353 0.45121 0.0
H207 H 0.27267 0.89825 0.17489 0.0
H208 H 0.42221 0.94371 0.14967 0.0
H209 H 0.47646 0.93933 0.23582 0.0
H210 H 0.38072 0.88818 0.34608 0.0
C211 C 0.23545 0.82137 0.44335 0.0
C212 C 0.20634 0.83077 0.39463 0.0
C213 C 0.26562 0.86346 0.33009 0.0
C214 C 0.23683 0.86918 0.28117 0.0
C215 C 0.29393 0.89695 0.21561 0.0
C216 C 0.37979 0.92263 0.20002 0.0
C217 C 0.40999 0.91985 0.24834 0.0
C218 C 0.35352 0.88994 0.31203 0.0
H219 H 0.24795 0.95836 0.2317 0.0
C220 C 0.1746 0.91477 0.22519 0.0
H221 H 0.04938 0.81222 0.23984 0.0
H222 H 0.08577 0.77911 0.51725 0.0
H223 H 0.93602 0.73412 0.54286 0.0
H224 H 0.88055 0.73644 0.45611 0.0
H225 H 0.97626 0.78735 0.34542 0.0
C226 C 0.12184 0.85469 0.24865 0.0
C227 C 0.15094 0.84531 0.29739 0.0
C228 C 0.09158 0.81251 0.36183 0.0
C229 C 0.12059 0.8071 0.41088 0.0
C230 C 0.06399 0.78 0.47665 0.0
C231 C 0.97833 0.75466 0.49237 0.0
C232 C 0.9473 0.75625 0.44359 0.0
C233 C 1.00348 0.78574 0.37967 0.0
H234 H 0.18233 0.45493 0.43665 0.0
C235 C 0.21805 0.46515 0.4749 0.0
H236 H 0.27683 0.44711 0.5068 0.0
H237 H 1.01242 0.2017 0.27892 0.0
H238 H 0.87918 0.16793 0.3516 0.0
H239 H 0.90118 0.2346 0.45262 0.0
H240 H 0.05697 0.33608 0.48121 0.0
C241 C 0.24002 0.43596 0.46883 0.0
C242 C 0.22414 0.39313 0.4085 0.0
C243 C 0.13225 0.33285 0.39319 0.0
C244 C 0.11919 0.29323 0.33562 0.0
C245 C 0.02667 0.23387 0.3215 0.0
C246 C 0.94935 0.21361 0.36308 0.0
C247 C 0.9618 0.25123 0.41996 0.0
C248 C 0.05181 0.30984 0.43534 0.0
H249 H 0.21971 0.23848 0.2627 0.0
C250 C 0.19429 0.23701 0.22265 0.0
H251 H 0.15453 0.26978 0.19152 0.0
H252 H 0.40988 0.50443 0.42258 0.0
H253 H 0.54137 0.53402 0.3545 0.0
H254 H 0.51742 0.46249 0.25905 0.0
H255 H 0.36226 0.36167 0.23029 0.0
C256 C 0.18271 0.27287 0.23057 0.0
C257 C 0.1972 0.31203 0.29456 0.0
C258 C 0.28841 0.37033 0.31206 0.0
C259 C 0.30197 0.41118 0.36823 0.0
C260 C 0.39469 0.47059 0.38201 0.0
C261 C 0.47113 0.48844 0.34308 0.0
C262 C 0.45765 0.44816 0.28938 0.0
C263 C 0.36777 0.39007 0.27359 0.0
H264 H 0.6127 0.83925 0.53405 0.0
C265 C 0.54914 0.78787 0.52171 0.0
H266 H 0.47946 0.7159 0.4436 0.0
H267 H 0.80702 0.98767 0.25202 0.0
H268 H 0.74221 0.01913 0.31902 0.0
H269 H 0.62355 0.95673 0.42361 0.0
H270 H 0.56731 0.86183 0.46066 0.0
C271 C 0.54307 0.76733 0.45586 0.0
C272 C 0.6231 0.81094 0.398 0.0
C273 C 0.65705 0.86773 0.3782 0.0
C274 C 0.7267 0.90447 0.31843 0.0
C275 C 0.7559 0.95891 0.2978 0.0
C276 C 0.71892 0.97736 0.33557 0.0
C277 C 0.65233 0.94234 0.39451 0.0
C278 C 0.62142 0.88818 0.41571 0.0
H279 H 0.78115 0.86126 0.14253 0.0
C280 C 0.84357 0.912 0.15675 0.0
H281 H 0.90909 0.98182 0.23685 0.0
H282 H 0.57573 0.70613 0.42269 0.0
H283 H 0.63398 0.67101 0.35199 0.0
H284 H 0.75285 0.73363 0.24757 0.0
H285 H 0.81574 0.83225 0.21438 0.0
C286 C 0.84645 0.93071 0.22312 0.0
C287 C 0.76448 0.88584 0.27954 0.0
C288 C 0.72925 0.82831 0.29859 0.0
C289 C 0.65936 0.79142 0.35826 0.0
C290 C 0.62704 0.73512 0.37707 0.0
C291 C 0.66014 0.71447 0.3371 0.0
C292 C 0.72685 0.74961 0.27827 0.0
C293 C 0.76187 0.80615 0.25943 0.0
H294 H 0.92647 0.2983 0.55858 0.0
C295 C 0.88949 0.29943 0.60311 0.0
H296 H 0.81553 0.26474 0.70485 0.0
H297 H 0.74965 0.04628 0.75013 0.0
H298 H 0.59305 0.98043 0.73972 0.0
H299 H 0.56594 0.03071 0.6993 0.0
H300 H 0.69555 0.1476 0.6696 0.0
C301 C 0.8606 0.26944 0.6625 0.0
C302 C 0.88105 0.23776 0.67518 0.0
C303 C 0.80457 0.16944 0.69392 0.0
C304 C 0.82033 0.14036 0.71752 0.0
C305 C 0.74232 0.07155 0.73333 0.0
C306 C 0.65171 0.03287 0.72723 0.0
C307 C 0.63642 0.06121 0.70458 0.0
C308 C 0.7115 0.12853 0.68809 0.0
H309 H 0.8716 0.1224 0.8414 0.0
C310 C 0.90434 0.11831 0.79574 0.0
H311 H 0.97264 0.14825 0.6923 0.0
H312 H 0.0445 0.37103 0.64771 0.0
H313 H 0.20137 0.43628 0.65646 0.0
H314 H 0.22882 0.38549 0.69456 0.0
H315 H 0.09866 0.26888 0.72589 0.0
C316 C 0.93271 0.14762 0.73595 0.0
C317 C 0.91296 0.17965 0.72299 0.0
C318 C 0.98952 0.24773 0.7035 0.0
C319 C 0.97375 0.27693 0.6802 0.0
C320 C 0.05186 0.34562 0.66403 0.0
C321 C 0.14264 0.38392 0.66898 0.0
C322 C 0.1581 0.35532 0.69057 0.0
C323 C 0.08276 0.2882 0.70799 0.0
H324 H 0.81915 0.60407 0.52125 0.0
C325 C 0.82288 0.57749 0.5414 0.0
H326 H 0.85013 0.56815 0.62623 0.0
H327 H 0.08655 0.85948 0.73793 0.0
H328 H 0.2092 0.8734 0.69685 0.0
H329 H 0.17433 0.78326 0.6348 0.0
H330 H 1.01624 0.67843 0.61215 0.0
C331 C 0.84239 0.59208 0.60576 0.0
C332 C 0.86137 0.64513 0.64836 0.0
C333 C 0.95305 0.70519 0.66406 0.0
C334 C 0.97281 0.75691 0.7019 0.0
C335 C 0.06657 0.81766 0.71224 0.0
C336 C 0.13798 0.82658 0.68833 0.0
C337 C 0.11829 0.77575 0.65327 0.0
C338 C 0.0272 0.7158 0.64091 0.0
H339 H 0.94917 0.79071 0.85175 0.0
C340 C 0.94268 0.81637 0.83376 0.0
H341 H 0.90891 0.82379 0.75231 0.0
H342 H 0.67634 0.53555 0.63268 0.0
H343 H 0.55484 0.52295 0.67106 0.0
H344 H 0.58911 0.61221 0.73589 0.0
H345 H 0.74519 0.71484 0.76285 0.0
C346 C 0.91882 0.80055 0.77086 0.0
C347 C 0.90008 0.74799 0.72693 0.0
C348 C 0.80862 0.68821 0.7107 0.0
C349 C 0.78909 0.63676 0.67213 0.0
C350 C 0.69609 0.577 0.65945 0.0
C351 C 0.62534 0.56884 0.68177 0.0
C352 C 0.64458 0.61907 0.71841 0.0
C353 C 0.73467 0.67786 0.73335 0.0
H354 H 0.5057 0.21474 0.48945 0.0
C355 C 0.53145 0.25981 0.48209 0.0
H356 H 0.53306 0.32578 0.52424 0.0
H357 H 0.18038 0.05203 0.72391 0.0
H358 H 0.11194 0.99259 0.62067 0.0
H359 H 0.19588 0.04961 0.50834 0.0
H360 H 0.34923 0.16622 0.49874 0.0
C361 C 0.51038 0.2823 0.53339 0.0
C362 C 0.45378 0.24853 0.60234 0.0
C363 C 0.36287 0.18008 0.60746 0.0
C364 C 0.31311 0.1476 0.67279 0.0
C365 C 0.22237 0.07932 0.67592 0.0
C366 C 0.18154 0.04448 0.61698 0.0
C367 C 0.22886 0.07655 0.55376 0.0
C368 C 0.31792 0.14351 0.54885 0.0
H369 H 0.28926 0.2032 0.85667 0.0
C370 C 0.26968 0.15972 0.85614 0.0
H371 H 0.27888 0.10214 0.80131 0.0
H372 H 0.61535 0.38304 0.61313 0.0
H373 H 0.67152 0.44635 0.71821 0.0
H374 H 0.58693 0.39028 0.83112 0.0
H375 H 0.44848 0.27082 0.83934 0.0
C376 C 0.30076 0.14653 0.80065 0.0
C377 C 0.35226 0.18376 0.73371 0.0
C378 C 0.4392 0.25356 0.72925 0.0
C379 C 0.48893 0.28595 0.66369 0.0
C380 C 0.57394 0.35579 0.66113 0.0
C381 C 0.60745 0.39289 0.72113 0.0
C382 C 0.56 0.36133 0.78464 0.0
C383 C 0.47892 0.29241 0.78873 0.0
H384 H 0.55269 0.44845 0.08464 0.0
C385 C 0.48703 0.39586 0.07865 0.0
H386 H 0.35788 0.32493 0.04187 0.0
H387 H 0.53546 0.61544 0.02624 0.0
H388 H 0.53151 0.6228 0.14885 0.0
H389 H 0.48635 0.54008 0.20986 0.0
H390 H 0.44466 0.449 0.14807 0.0
C391 C 0.42487 0.37735 0.04589 0.0
C392 C 0.44588 0.42545 0.00983 0.0
C393 C 0.46951 0.47865 0.04608 0.0
C394 C 0.49274 0.52536 0.01067 0.0
C395 C 0.51629 0.57788 0.04933 0.0
C396 C 0.51454 0.58304 0.12016 0.0
C397 C 0.48919 0.53646 0.1546 0.0
C398 C 0.46652 0.48476 0.1183 0.0
H399 H 0.3862 0.49881 0.86162 0.0
C400 C 0.45051 0.5505 0.87219 0.0
H401 H 0.57506 0.61941 0.91328 0.0
H402 H 0.38908 0.32358 0.92554 0.0
H403 H 0.37491 0.3085 0.80523 0.0
H404 H 0.42619 0.3933 0.74241 0.0
H405 H 0.48265 0.49057 0.80107 0.0
C406 C 0.51212 0.56705 0.90323 0.0
C407 C 0.4891 0.51775 0.93885 0.0
C408 C 0.46249 0.46326 0.90306 0.0
C409 C 0.43873 0.41635 0.93876 0.0
C410 C 0.4084 0.36101 0.9017 0.0
C411 C 0.40117 0.35207 0.83224 0.0
C412 C 0.42909 0.3995 0.79691 0.0
C413 C 0.46048 0.45486 0.83145 0.0
H414 H 0.56785 0.92555 0.87126 0.0
C415 C 0.49485 0.89263 0.87015 0.0
H416 H 0.38493 0.87725 0.90249 0.0
H417 H 0.6563 0.10226 0.13595 0.0
H418 H 0.65749 0.03314 0.16239 0.0
H419 H 0.59069 0.93579 0.09095 0.0
H420 H 0.52182 0.90678 0.9928 0.0
C421 C 0.45726 0.90966 0.9053 0.0
C422 C 0.51166 0.97414 0.9441 0.0
C423 C 0.55107 0.99027 1.00228 0.0
C424 C 0.58993 0.04683 0.04388 0.0
C425 C 0.62724 0.06082 0.102 0.0
C426 C 0.62809 0.02137 0.11806 0.0
C427 C 0.59022 0.96644 0.07789 0.0
C428 C 0.55121 0.95049 0.02126 0.0
H429 H 0.50053 0.11173 0.09797 0.0
C430 C 0.57229 0.14911 0.10735 0.0
H431 H 0.69779 0.18189 0.08396 0.0
H432 H 0.45588 0.96468 0.83152 0.0
H433 H 0.47649 0.04367 0.79632 0.0
H434 H 0.55446 0.1453 0.86404 0.0
H435 H 0.60455 0.1658 0.9703 0.0
C436 C 0.62628 0.14475 0.07417 0.0
C437 C 0.58969 0.08755 0.02779 0.0
C438 C 0.55865 0.07515 0.96626 0.0
C439 C 0.51803 0.01795 0.92534 0.0
C440 C 0.48705 1.00703 0.86464 0.0
C441 C 0.49899 0.0522 0.84354 0.0
C442 C 0.54203 0.10912 0.88194 0.0
C443 C 0.57061 0.12033 0.94294 0.0
H444 H 0.09014 0.4961 0.83101 0.0
C445 C 0.12509 0.5457 0.83494 0.0
H446 H 0.13996 0.6135 0.89713 0.0
H447 H 0.7435 0.3302 0.0696 0.0
H448 H 0.68353 0.27764 0.96218 0.0
H449 H 0.78154 0.33796 0.8524 0.0
H450 H 0.94163 0.45169 0.84881 0.0
C451 C 0.10304 0.56328 0.89287 0.0
C452 C 0.04108 0.52091 0.95678 0.0
C453 C 0.94399 0.45761 0.95878 0.0
C454 C 0.88592 0.42301 0.02284 0.0
C455 C 0.79093 0.35855 0.0228 0.0
C456 C 0.75529 0.32785 0.96148 0.0
C457 C 0.81066 0.36205 0.89957 0.0
C458 C 0.90294 0.427 0.8982 0.0
H459 H 0.9008 0.50101 0.20169 0.0
C460 C 0.8576 0.44973 0.20714 0.0
H461 H 0.82117 0.36878 0.15944 0.0
H462 H 0.22778 0.62805 0.96728 0.0
H463 H 0.29479 0.66231 0.06837 0.0
H464 H 0.19541 0.60642 0.17987 0.0
H465 H 0.02618 0.51012 0.18913 0.0
C466 C 0.86083 0.41882 0.15302 0.0
C467 C 0.9236 0.4527 0.08514 0.0
C468 C 0.02257 0.51139 0.08151 0.0
C469 C 0.08091 0.5453 0.01746 0.0
C470 C 0.1797 0.60135 0.01471 0.0
C471 C 0.21963 0.62213 0.07265 0.0
C472 C 0.16333 0.5899 0.13518 0.0
C473 C 0.06593 0.53508 0.13988 0.0
loop_
_geom_bond_atom_site_label_1
_geom_bond_atom_site_label_2
_geom_bond_distance
_geom_bond_site_symmetry_2
_ccdc_geom_bond_type
C0 C1 1.386 . S
C0 C5 1.384 1_545 S
C0 C16 1.497 . S
C1 C0 1.386 . S
C1 C2 1.393 1_545 S
C1 H32 0.932 . S
C2 C1 1.393 1_565 S
C2 C3 1.387 . S
C3 C2 1.387 . S
C3 C4 1.392 . S
C3 H33 0.930 . S
C4 C3 1.392 . S
C4 C5 1.402 . S
C5 C0 1.384 1_565 S
C5 C4 1.402 . S
C5 H34 0.930 . S
O6 Tb7 2.288 1_655 S
O6 C19 1.257 1_545 S
Tb7 O6 2.288 1_455 S
Tb7 O9 2.303 . S
Tb7 O11 2.430 . S
Tb7 O13 2.459 . S
Tb7 O15 2.301 1_554 S
Tb7 C16 2.808 . S
Tb8 O10 2.301 1_556 S
Tb8 C12 2.808 . S
Tb8 O14 2.288 1_655 S
Tb8 O21 2.303 . S
Tb8 O30 2.430 . S
Tb8 O31 2.459 . S
O9 Tb7 2.303 . S
O9 C28 1.255 . S
O10 Tb8 2.301 1_554 S
O10 C19 1.237 . S
O11 Tb7 2.430 . S
O11 C16 1.248 . S
C12 Tb8 2.808 . S
C12 C22 1.497 . S
C12 O30 1.248 . S
C12 O31 1.260 . S
O13 Tb7 2.459 . S
O13 C16 1.260 . S
O14 Tb8 2.288 1_455 S
O14 C20 1.257 1_565 S
O15 Tb7 2.301 1_556 S
O15 C20 1.237 . S
C16 C0 1.497 . S
C16 Tb7 2.808 . S
C16 O11 1.248 . S
C16 O13 1.260 . S
C17 O18 1.255 . S
C17 O21 1.255 . S
O18 C17 1.255 . S
C19 O6 1.257 1_565 S
C19 O10 1.237 . S
C20 O14 1.257 1_545 S
C20 O15 1.237 . S
O21 Tb8 2.303 . S
O21 C17 1.255 . S
C22 C12 1.497 . S
C22 C24 1.384 1_565 S
C22 C25 1.386 . S
C23 C24 1.402 . S
C23 C27 1.392 . S
C24 C22 1.384 1_545 S
C24 C23 1.402 . S
C24 H35 0.930 . S
C25 C22 1.386 . S
C25 C26 1.393 1_565 S
C25 H36 0.932 . S
C26 C25 1.393 1_545 S
C26 C27 1.387 . S
C27 C23 1.392 . S
C27 C26 1.387 . S
C27 H37 0.930 . S
C28 O9 1.255 . S
C28 O29 1.255 . S
O29 C28 1.255 . S
O30 Tb8 2.430 . S
O30 C12 1.248 . S
O31 Tb8 2.459 . S
O31 C12 1.260 . S
H32 C1 0.932 . S
H33 C3 0.930 . S
H34 C5 0.930 . S
H35 C24 0.930 . S
H36 C25 0.932 . S
H37 C27 0.930 . S
C38 C39 1.386 . S
C38 C43 1.384 . S
C38 C54 1.497 . S
C39 C38 1.386 . S
C39 C40 1.393 . S
C39 H70 0.932 . S
C40 C39 1.393 . S
C40 C41 1.387 . S
C41 C40 1.387 . S
C41 C42 1.392 . S
C41 H71 0.930 . S
C42 C41 1.392 . S
C42 C43 1.402 . S
C43 C38 1.384 . S
C43 C42 1.402 . S
C43 H72 0.930 . S
O44 Tb45 2.288 . S
O44 C57 1.257 . S
Tb45 O44 2.288 . S
Tb45 O47 2.303 . S
Tb45 O49 2.430 . S
Tb45 O51 2.459 . S
Tb45 O53 2.301 . S
Tb45 C54 2.808 . S
Tb46 O48 2.301 . S
Tb46 C50 2.808 . S
Tb46 O52 2.288 . S
Tb46 O59 2.303 . S
Tb46 O68 2.430 . S
Tb46 O69 2.459 . S
O47 Tb45 2.303 . S
O47 C66 1.255 . S
O48 Tb46 2.301 . S
O48 C57 1.237 . S
O49 Tb45 2.430 . S
O49 C54 1.248 . S
C50 Tb46 2.808 . S
C50 C60 1.497 . S
C50 O68 1.248 . S
C50 O69 1.260 . S
O51 Tb45 2.459 . S
O51 C54 1.260 . S
O52 Tb46 2.288 . S
O52 C58 1.257 . S
O53 Tb45 2.301 . S
O53 C58 1.237 . S
C54 C38 1.497 . S
C54 Tb45 2.808 . S
C54 O49 1.248 . S
C54 O51 1.260 . S
C55 O56 1.255 . S
C55 O59 1.255 . S
O56 C55 1.255 . S
C57 O44 1.257 . S
C57 O48 1.237 . S
C58 O52 1.257 . S
C58 O53 1.237 . S
O59 Tb46 2.303 . S
O59 C55 1.255 . S
C60 C50 1.497 . S
C60 C62 1.384 . S
C60 C63 1.386 . S
C61 C62 1.402 . S
C61 C65 1.392 . S
C62 C60 1.384 . S
C62 C61 1.402 . S
C62 H73 0.930 . S
C63 C60 1.386 . S
C63 C64 1.393 . S
C63 H74 0.932 . S
C64 C63 1.393 . S
C64 C65 1.387 . S
C65 C61 1.392 . S
C65 C64 1.387 . S
C65 H75 0.930 . S
C66 O47 1.255 . S
C66 O67 1.255 . S
O67 C66 1.255 . S
O68 Tb46 2.430 . S
O68 C50 1.248 . S
O69 Tb46 2.459 . S
O69 C50 1.260 . S
H70 C39 0.932 . S
H71 C41 0.930 . S
H72 C43 0.930 . S
H73 C62 0.930 . S
H74 C63 0.932 . S
H75 C65 0.930 . S
C76 C77 1.386 . S
C76 C81 1.384 . S
C76 C92 1.497 . S
C77 C76 1.386 . S
C77 C78 1.393 . S
C77 H108 0.932 . S
C78 C77 1.393 . S
C78 C79 1.387 . S
C79 C78 1.387 . S
C79 C80 1.392 . S
C79 H109 0.930 . S
C80 C79 1.392 . S
C80 C81 1.402 . S
C81 C76 1.384 . S
C81 C80 1.402 . S
C81 H110 0.930 . S
O82 Tb83 2.288 . S
O82 C95 1.257 . S
Tb83 O82 2.288 . S
Tb83 O85 2.303 . S
Tb83 O87 2.430 . S
Tb83 O89 2.459 . S
Tb83 O91 2.301 . S
Tb83 C92 2.808 . S
Tb84 O86 2.301 . S
Tb84 C88 2.808 . S
Tb84 O90 2.288 . S
Tb84 O97 2.303 . S
Tb84 O106 2.430 . S
Tb84 O107 2.459 . S
O85 Tb83 2.303 . S
O85 C104 1.255 . S
O86 Tb84 2.301 . S
O86 C95 1.237 . S
O87 Tb83 2.430 . S
O87 C92 1.248 . S
C88 Tb84 2.808 . S
C88 C98 1.497 . S
C88 O106 1.248 . S
C88 O107 1.260 . S
O89 Tb83 2.459 . S
O89 C92 1.260 . S
O90 Tb84 2.288 . S
O90 C96 1.257 . S
O91 Tb83 2.301 . S
O91 C96 1.237 . S
C92 C76 1.497 . S
C92 Tb83 2.808 . S
C92 O87 1.248 . S
C92 O89 1.260 . S
C93 O94 1.255 . S
C93 O97 1.255 . S
O94 C93 1.255 . S
C95 O82 1.257 . S
C95 O86 1.237 . S
C96 O90 1.257 . S
C96 O91 1.237 . S
O97 Tb84 2.303 . S
O97 C93 1.255 . S
C98 C88 1.497 . S
C98 C100 1.384 . S
C98 C101 1.386 . S
C99 C100 1.402 . S
C99 C103 1.392 . S
C100 C98 1.384 . S
C100 C99 1.402 . S
C100 H111 0.930 . S
C101 C98 1.386 . S
C101 C102 1.393 . S
C101 H112 0.932 . S
C102 C101 1.393 . S
C102 C103 1.387 . S
C103 C99 1.392 . S
C103 C102 1.387 . S
C103 H113 0.930 . S
C104 O85 1.255 . S
C104 O105 1.255 . S
O105 C104 1.255 . S
O106 Tb84 2.430 . S
O106 C88 1.248 . S
O107 Tb84 2.459 . S
O107 C88 1.260 . S
H108 C77 0.932 . S
H109 C79 0.930 . S
H110 C81 0.930 . S
H111 C100 0.930 . S
H112 C101 0.932 . S
H113 C103 0.930 . S
H114 C115 0.951 . S
C115 H114 0.951 . S
C115 C121 1.265 1_545 S
H116 C121 0.950 . S
H117 C125 0.949 . S
H118 C126 0.950 . S
H119 C127 0.951 . S
H120 C128 0.951 . S
C121 C115 1.265 1_565 S
C121 H116 0.950 . S
C121 C122 1.478 . S
C122 C121 1.478 . S
C122 C123 1.397 . S
C122 C139 1.394 1_665 S
C123 C122 1.397 . S
C123 C124 1.438 . S
C123 C128 1.429 . S
C124 C123 1.438 . S
C124 C125 1.428 . S
C124 C137 1.394 1_665 S
C125 H117 0.949 . S
C125 C124 1.428 . S
C125 C126 1.345 . S
C126 H118 0.950 . S
C126 C125 1.345 . S
C126 C127 1.424 . S
C127 H119 0.951 . S
C127 C126 1.424 . S
C127 C128 1.347 . S
C128 H120 0.951 . S
C128 C123 1.429 . S
C128 C127 1.347 . S
H129 C130 0.951 . S
C130 H129 0.951 . S
C130 C136 1.265 1_565 S
H131 C136 0.950 . S
H132 C140 0.949 . S
H133 C141 0.950 . S
H134 C142 0.951 . S
H135 C143 0.951 . S
C136 C130 1.265 1_545 S
C136 H131 0.950 . S
C136 C137 1.478 . S
C137 C124 1.394 1_445 S
C137 C136 1.478 . S
C137 C138 1.397 . S
C138 C137 1.397 . S
C138 C139 1.438 . S
C138 C143 1.429 . S
C139 C122 1.394 1_445 S
C139 C138 1.438 . S
C139 C140 1.428 . S
C140 H132 0.949 . S
C140 C139 1.428 . S
C140 C141 1.345 . S
C141 H133 0.950 . S
C141 C140 1.345 . S
C141 C142 1.424 . S
C142 H134 0.951 . S
C142 C141 1.424 . S
C142 C143 1.347 . S
C143 H135 0.951 . S
C143 C138 1.429 . S
C143 C142 1.347 . S
H144 C145 0.951 . S
C145 H144 0.951 . S
C145 C151 1.265 . S
H146 C151 0.950 . S
H147 C155 0.949 . S
H148 C156 0.950 . S
H149 C157 0.951 . S
H150 C158 0.951 . S
C151 C145 1.265 . S
C151 H146 0.950 . S
C151 C152 1.478 . S
C152 C151 1.478 . S
C152 C153 1.397 . S
C152 C169 1.394 . S
C153 C152 1.397 . S
C153 C154 1.438 . S
C153 C158 1.429 . S
C154 C153 1.438 . S
C154 C155 1.428 . S
C154 C167 1.394 . S
C155 H147 0.949 . S
C155 C154 1.428 . S
C155 C156 1.345 . S
C156 H148 0.950 . S
C156 C155 1.345 . S
C156 C157 1.424 . S
C157 H149 0.951 . S
C157 C156 1.424 . S
C157 C158 1.347 . S
C158 H150 0.951 . S
C158 C153 1.429 . S
C158 C157 1.347 . S
H159 C160 0.951 1_556 S
C160 H159 0.951 1_554 S
C160 C166 1.265 1_554 S
H161 C166 0.950 1_554 S
H162 C170 0.949 . S
H163 C171 0.950 . S
H164 C172 0.951 . S
H165 C173 0.951 . S
C166 C160 1.265 1_556 S
C166 H161 0.950 1_556 S
C166 C167 1.478 . S
C167 C154 1.394 . S
C167 C166 1.478 . S
C167 C168 1.397 . S
C168 C167 1.397 . S
C168 C169 1.438 . S
C168 C173 1.429 . S
C169 C152 1.394 . S
C169 C168 1.438 . S
C169 C170 1.428 . S
C170 H162 0.949 . S
C170 C169 1.428 . S
C170 C171 1.345 . S
C171 H163 0.950 . S
C171 C170 1.345 . S
C171 C172 1.424 . S
C172 H164 0.951 . S
C172 C171 1.424 . S
C172 C173 1.347 . S
C173 H165 0.951 . S
C173 C168 1.429 . S
C173 C172 1.347 . S
H174 C175 0.951 1_554 S
C175 H174 0.951 1_556 S
C175 C181 1.265 1_556 S
H176 C181 0.950 . S
H177 C185 0.949 . S
H178 C186 0.950 . S
H179 C187 0.951 . S
H180 C188 0.951 . S
C181 C175 1.265 1_554 S
C181 H176 0.950 . S
C181 C182 1.478 . S
C182 C181 1.478 . S
C182 C183 1.397 . S
C182 C199 1.394 . S
C183 C182 1.397 . S
C183 C184 1.438 . S
C183 C188 1.429 . S
C184 C183 1.438 . S
C184 C185 1.428 . S
C184 C197 1.394 . S
C185 H177 0.949 . S
C185 C184 1.428 . S
C185 C186 1.345 . S
C186 H178 0.950 . S
C186 C185 1.345 . S
C186 C187 1.424 . S
C187 H179 0.951 . S
C187 C186 1.424 . S
C187 C188 1.347 . S
C188 H180 0.951 . S
C188 C183 1.429 . S
C188 C187 1.347 . S
H189 C190 0.951 . S
C190 H189 0.951 . S
C190 C196 1.265 . S
H191 C196 0.950 . S
H192 C200 0.949 . S
H193 C201 0.950 . S
H194 C202 0.951 . S
H195 C203 0.951 . S
C196 C190 1.265 . S
C196 H191 0.950 . S
C196 C197 1.478 . S
C197 C184 1.394 . S
C197 C196 1.478 . S
C197 C198 1.397 . S
C198 C197 1.397 . S
C198 C199 1.438 . S
C198 C203 1.429 . S
C199 C182 1.394 . S
C199 C198 1.438 . S
C199 C200 1.428 . S
C200 H192 0.949 . S
C200 C199 1.428 . S
C200 C201 1.345 . S
C201 H193 0.950 . S
C201 C200 1.345 . S
C201 C202 1.424 . S
C202 H194 0.951 . S
C202 C201 1.424 . S
C202 C203 1.347 . S
C203 H195 0.951 . S
C203 C198 1.429 . S
C203 C202 1.347 . S
H204 C205 0.951 . S
C205 H204 0.951 . S
C205 C211 1.265 . S
H206 C211 0.950 . S
H207 C215 0.949 . S
H208 C216 0.950 . S
H209 C217 0.951 . S
H210 C218 0.951 . S
C211 C205 1.265 . S
C211 H206 0.950 . S
C211 C212 1.478 . S
C212 C211 1.478 . S
C212 C213 1.397 . S
C212 C229 1.394 . S
C213 C212 1.397 . S
C213 C214 1.438 . S
C213 C218 1.429 . S
C214 C213 1.438 . S
C214 C215 1.428 . S
C214 C227 1.394 . S
C215 H207 0.949 . S
C215 C214 1.428 . S
C215 C216 1.345 . S
C216 H208 0.950 . S
C216 C215 1.345 . S
C216 C217 1.424 . S
C217 H209 0.951 . S
C217 C216 1.424 . S
C217 C218 1.347 . S
C218 H210 0.951 . S
C218 C213 1.429 . S
C218 C217 1.347 . S
H219 C220 0.951 . S
C220 H219 0.951 . S
C220 C226 1.265 . S
H221 C226 0.950 . S
H222 C230 0.949 . S
H223 C231 0.950 . S
H224 C232 0.951 . S
H225 C233 0.941 1_655 S
C226 C220 1.265 . S
C226 H221 0.950 . S
C226 C227 1.478 . S
C227 C214 1.394 . S
C227 C226 1.478 . S
C227 C228 1.397 . S
C228 C227 1.397 . S
C228 C229 1.438 . S
C228 C233 1.429 . S
C229 C212 1.394 . S
C229 C228 1.438 . S
C229 C230 1.428 . S
C230 H222 0.949 . S
C230 C229 1.428 . S
C230 C231 1.345 . S
C231 H223 0.950 . S
C231 C230 1.345 . S
C231 C232 1.424 1_455 S
C232 H224 0.951 . S
C232 C231 1.424 1_655 S
C232 C233 1.347 1_655 S
C233 H225 0.941 1_455 S
C233 C228 1.429 . S
C233 C232 1.347 1_455 S
H234 C235 0.951 . S
C235 H234 0.951 . S
C235 C241 1.265 . S
H236 C241 0.950 . S
H237 C245 0.949 . S
H238 C246 0.950 . S
H239 C247 0.951 . S
H240 C248 0.951 . S
C241 C235 1.265 . S
C241 H236 0.950 . S
C241 C242 1.478 . S
C242 C241 1.478 . S
C242 C243 1.397 . S
C242 C259 1.394 . S
C243 C242 1.397 . S
C243 C244 1.438 . S
C243 C248 1.429 . S
C244 C243 1.438 . S
C244 C245 1.428 . S
C244 C257 1.394 . S
C245 H237 0.949 . S
C245 C244 1.428 . S
C245 C246 1.345 . S
C246 H238 0.950 . S
C246 C245 1.345 . S
C246 C247 1.424 . S
C247 H239 0.951 . S
C247 C246 1.424 . S
C247 C248 1.347 . S
C248 H240 0.951 . S
C248 C243 1.429 . S
C248 C247 1.347 . S
H249 C250 0.951 . S
C250 H249 0.951 . S
C250 C256 1.265 . S
H251 C256 0.950 . S
H252 C260 0.949 . S
H253 C261 0.950 . S
H254 C262 0.951 . S
H255 C263 0.951 . S
C256 C250 1.265 . S
C256 H251 0.950 . S
C256 C257 1.478 . S
C257 C244 1.394 . S
C257 C256 1.478 . S
C257 C258 1.397 . S
C258 C257 1.397 . S
C258 C259 1.438 . S
C258 C263 1.429 . S
C259 C242 1.394 . S
C259 C258 1.438 . S
C259 C260 1.428 . S
C260 H252 0.949 . S
C260 C259 1.428 . S
C260 C261 1.345 . S
C261 H253 0.950 . S
C261 C260 1.345 . S
C261 C262 1.424 . S
C262 H254 0.951 . S
C262 C261 1.424 . S
C262 C263 1.347 . S
C263 H255 0.951 . S
C263 C258 1.429 . S
C263 C262 1.347 . S
H264 C265 0.951 . S
C265 H264 0.951 . S
C265 C271 1.265 . S
H266 C271 0.950 . S
H267 C275 0.949 . S
H268 C276 0.950 1_545 S
H269 C277 0.951 . S
H270 C278 0.951 . S
C271 C265 1.265 . S
C271 H266 0.950 . S
C271 C272 1.478 . S
C272 C271 1.478 . S
C272 C273 1.397 . S
C272 C289 1.394 . S
C273 C272 1.397 . S
C273 C274 1.438 . S
C273 C278 1.429 . S
C274 C273 1.438 . S
C274 C275 1.428 . S
C274 C287 1.394 . S
C275 H267 0.949 . S
C275 C274 1.428 . S
C275 C276 1.345 . S
C276 H268 0.950 1_565 S
C276 C275 1.345 . S
C276 C277 1.424 . S
C277 H269 0.951 . S
C277 C276 1.424 . S
C277 C278 1.347 . S
C278 H270 0.951 . S
C278 C273 1.429 . S
C278 C277 1.347 . S
H279 C280 0.951 . S
C280 H279 0.951 . S
C280 C286 1.265 . S
H281 C286 0.950 . S
H282 C290 0.949 . S
H283 C291 0.950 . S
H284 C292 0.951 . S
H285 C293 0.951 . S
C286 C280 1.265 . S
C286 H281 0.950 . S
C286 C287 1.478 . S
C287 C274 1.394 . S
C287 C286 1.478 . S
C287 C288 1.397 . S
C288 C287 1.397 . S
C288 C289 1.438 . S
C288 C293 1.429 . S
C289 C272 1.394 . S
C289 C288 1.438 . S
C289 C290 1.428 . S
C290 H282 0.949 . S
C290 C289 1.428 . S
C290 C291 1.345 . S
C291 H283 0.950 . S
C291 C290 1.345 . S
C291 C292 1.424 . S
C292 H284 0.951 . S
C292 C291 1.424 . S
C292 C293 1.347 . S
C293 H285 0.951 . S
C293 C288 1.429 . S
C293 C292 1.347 . S
H294 C295 0.951 . S
C295 H294 0.951 . S
C295 C301 1.265 . S
H296 C301 0.950 . S
H297 C305 0.949 . S
H298 C306 0.950 . S
H299 C307 0.951 . S
H300 C308 0.951 . S
C301 C295 1.265 . S
C301 H296 0.950 . S
C301 C302 1.478 . S
C302 C301 1.478 . S
C302 C303 1.397 . S
C302 C319 1.394 . S
C303 C302 1.397 . S
C303 C304 1.438 . S
C303 C308 1.429 . S
C304 C303 1.438 . S
C304 C305 1.428 . S
C304 C317 1.394 . S
C305 H297 0.949 . S
C305 C304 1.428 . S
C305 C306 1.345 1_545 S
C306 H298 0.950 . S
C306 C305 1.345 1_565 S
C306 C307 1.424 . S
C307 H299 0.951 . S
C307 C306 1.424 . S
C307 C308 1.347 1_565 S
C308 H300 0.951 . S
C308 C303 1.429 . S
C308 C307 1.347 1_545 S
H309 C310 0.951 . S
C310 H309 0.951 . S
C310 C316 1.265 . S
H311 C316 0.950 . S
H312 C320 0.949 . S
H313 C321 0.950 . S
H314 C322 0.951 . S
H315 C323 0.951 . S
C316 C310 1.265 . S
C316 H311 0.950 . S
C316 C317 1.478 . S
C317 C304 1.394 . S
C317 C316 1.478 . S
C317 C318 1.397 . S
C318 C317 1.397 . S
C318 C319 1.438 . S
C318 C323 1.429 1_655 S
C319 C302 1.394 . S
C319 C318 1.438 . S
C319 C320 1.428 . S
C320 H312 0.949 . S
C320 C319 1.428 . S
C320 C321 1.345 1_655 S
C321 H313 0.950 . S
C321 C320 1.345 1_455 S
C321 C322 1.424 . S
C322 H314 0.951 . S
C322 C321 1.424 . S
C322 C323 1.347 . S
C323 H315 0.951 . S
C323 C318 1.429 1_455 S
C323 C322 1.347 . S
H324 C325 0.951 . S
C325 H324 0.951 . S
C325 C331 1.265 . S
H326 C331 0.950 . S
H327 C335 0.949 . S
H328 C336 0.950 . S
H329 C337 0.951 . S
H330 C338 0.951 . S
C331 C325 1.265 . S
C331 H326 0.950 . S
C331 C332 1.478 . S
C332 C331 1.478 . S
C332 C333 1.397 . S
C332 C349 1.394 . S
C333 C332 1.397 . S
C333 C334 1.438 . S
C333 C338 1.429 . S
C334 C333 1.438 . S
C334 C335 1.428 1_655 S
C334 C347 1.394 . S
C335 H327 0.949 . S
C335 C334 1.428 1_455 S
C335 C336 1.345 . S
C336 H328 0.950 . S
C336 C335 1.345 . S
C336 C337 1.424 . S
C337 H329 0.951 . S
C337 C336 1.424 . S
C337 C338 1.347 1_455 S
C338 H330 0.951 . S
C338 C333 1.429 . S
C338 C337 1.347 1_655 S
H339 C340 0.951 . S
C340 H339 0.951 . S
C340 C346 1.265 . S
H341 C346 0.950 . S
H342 C350 0.949 . S
H343 C351 0.950 . S
H344 C352 0.951 . S
H345 C353 0.951 . S
C346 C340 1.265 . S
C346 H341 0.950 . S
C346 C347 1.478 . S
C347 C334 1.394 . S
C347 C346 1.478 . S
C347 C348 1.397 . S
C348 C347 1.397 . S
C348 C349 1.438 . S
C348 C353 1.429 . S
C349 C332 1.394 . S
C349 C348 1.438 . S
C349 C350 1.428 . S
C350 H342 0.949 . S
C350 C349 1.428 . S
C350 C351 1.345 . S
C351 H343 0.950 . S
C351 C350 1.345 . S
C351 C352 1.424 . S
C352 H344 0.951 . S
C352 C351 1.424 . S
C352 C353 1.347 . S
C353 H345 0.951 . S
C353 C348 1.429 . S
C353 C352 1.347 . S
H354 C355 0.951 . S
C355 H354 0.951 . S
C355 C361 1.265 . S
H356 C361 0.950 . S
H357 C365 0.949 . S
H358 C366 0.950 1_565 S
H359 C367 0.951 . S
H360 C368 0.951 . S
C361 C355 1.265 . S
C361 H356 0.950 . S
C361 C362 1.478 . S
C362 C361 1.478 . S
C362 C363 1.397 . S
C362 C379 1.394 . S
C363 C362 1.397 . S
C363 C364 1.438 . S
C363 C368 1.429 . S
C364 C363 1.438 . S
C364 C365 1.428 . S
C364 C377 1.394 . S
C365 H357 0.949 . S
C365 C364 1.428 . S
C365 C366 1.345 . S
C366 H358 0.950 1_545 S
C366 C365 1.345 . S
C366 C367 1.424 . S
C367 H359 0.951 . S
C367 C366 1.424 . S
C367 C368 1.347 . S
C368 H360 0.951 . S
C368 C363 1.429 . S
C368 C367 1.347 . S
H369 C370 0.951 . S
C370 H369 0.951 . S
C370 C376 1.265 . S
H371 C376 0.950 . S
H372 C380 0.949 . S
H373 C381 0.950 . S
H374 C382 0.951 . S
H375 C383 0.951 . S
C376 C370 1.265 . S
C376 H371 0.950 . S
C376 C377 1.478 . S
C377 C364 1.394 . S
C377 C376 1.478 . S
C377 C378 1.397 . S
C378 C377 1.397 . S
C378 C379 1.438 . S
C378 C383 1.429 . S
C379 C362 1.394 . S
C379 C378 1.438 . S
C379 C380 1.428 . S
C380 H372 0.949 . S
C380 C379 1.428 . S
C380 C381 1.345 . S
C381 H373 0.950 . S
C381 C380 1.345 . S
C381 C382 1.424 . S
C382 H374 0.951 . S
C382 C381 1.424 . S
C382 C383 1.347 . S
C383 H375 0.951 . S
C383 C378 1.429 . S
C383 C382 1.347 . S
H384 C385 0.951 . S
C385 H384 0.951 . S
C385 C391 1.265 . S
H386 C391 0.950 . S
H387 C395 0.949 . S
H388 C396 0.950 . S
H389 C397 0.951 . S
H390 C398 0.951 . S
C391 C385 1.265 . S
C391 H386 0.950 . S
C391 C392 1.478 . S
C392 C391 1.478 . S
C392 C393 1.397 . S
C392 C409 1.394 1_554 S
C393 C392 1.397 . S
C393 C394 1.438 . S
C393 C398 1.429 . S
C394 C393 1.438 . S
C394 C395 1.428 . S
C394 C407 1.394 1_554 S
C395 H387 0.949 . S
C395 C394 1.428 . S
C395 C396 1.345 . S
C396 H388 0.950 . S
C396 C395 1.345 . S
C396 C397 1.424 . S
C397 H389 0.951 . S
C397 C396 1.424 . S
C397 C398 1.347 . S
C398 H390 0.951 . S
C398 C393 1.429 . S
C398 C397 1.347 . S
H399 C400 0.951 . S
C400 H399 0.951 . S
C400 C406 1.265 . S
H401 C406 0.950 . S
H402 C410 0.949 . S
H403 C411 0.950 . S
H404 C412 0.951 . S
H405 C413 0.951 . S
C406 C400 1.265 . S
C406 H401 0.950 . S
C406 C407 1.478 . S
C407 C394 1.394 1_556 S
C407 C406 1.478 . S
C407 C408 1.397 . S
C408 C407 1.397 . S
C408 C409 1.438 . S
C408 C413 1.429 . S
C409 C392 1.394 1_556 S
C409 C408 1.438 . S
C409 C410 1.428 . S
C410 H402 0.949 . S
C410 C409 1.428 . S
C410 C411 1.345 . S
C411 H403 0.950 . S
C411 C410 1.345 . S
C411 C412 1.424 . S
C412 H404 0.951 . S
C412 C411 1.424 . S
C412 C413 1.347 . S
C413 H405 0.951 . S
C413 C408 1.429 . S
C413 C412 1.347 . S
H414 C415 0.951 . S
C415 H414 0.951 . S
C415 C421 1.265 . S
H416 C421 0.950 . S
H417 C425 0.949 1_545 S
H418 C426 0.950 . S
H419 C427 0.951 . S
H420 C428 0.951 . S
C421 C415 1.265 . S
C421 H416 0.950 . S
C421 C422 1.478 . S
C422 C421 1.478 . S
C422 C423 1.397 1_556 S
C422 C439 1.394 1_565 S
C423 C422 1.397 1_554 S
C423 C424 1.438 . S
C423 C428 1.429 . S
C424 C423 1.438 . S
C424 C425 1.428 . S
C424 C437 1.394 1_565 S
C425 H417 0.949 1_565 S
C425 C424 1.428 . S
C425 C426 1.345 . S
C426 H418 0.950 . S
C426 C425 1.345 . S
C426 C427 1.424 . S
C427 H419 0.951 . S
C427 C426 1.424 . S
C427 C428 1.347 . S
C428 H420 0.951 . S
C428 C423 1.429 . S
C428 C427 1.347 . S
H429 C430 0.951 . S
C430 H429 0.951 . S
C430 C436 1.265 . S
H431 C436 0.950 . S
H432 C440 0.949 1_565 S
H433 C441 0.950 . S
H434 C442 0.951 . S
H435 C443 0.951 . S
C436 C430 1.265 . S
C436 H431 0.950 . S
C436 C437 1.478 . S
C437 C424 1.394 1_545 S
C437 C436 1.478 . S
C437 C438 1.397 1_554 S
C438 C437 1.397 1_556 S
C438 C439 1.438 . S
C438 C443 1.429 . S
C439 C422 1.394 1_545 S
C439 C438 1.438 . S
C439 C440 1.428 . S
C440 H432 0.949 1_545 S
C440 C439 1.428 . S
C440 C441 1.345 . S
C441 H433 0.950 . S
C441 C440 1.345 . S
C441 C442 1.424 . S
C442 H434 0.951 . S
C442 C441 1.424 . S
C442 C443 1.347 . S
C443 H435 0.951 . S
C443 C438 1.429 . S
C443 C442 1.347 . S
H444 C445 0.951 . S
C445 H444 0.951 . S
C445 C451 1.265 . S
H446 C451 0.950 . S
H447 C455 0.949 . S
H448 C456 0.950 . S
H449 C457 0.951 . S
H450 C458 0.951 . S
C451 C445 1.265 . S
C451 H446 0.950 . S
C451 C452 1.478 . S
C452 C451 1.478 . S
C452 C453 1.397 1_455 S
C452 C469 1.394 . S
C453 C452 1.397 1_655 S
C453 C454 1.438 1_556 S
C453 C458 1.429 . S
C454 C453 1.438 1_554 S
C454 C455 1.428 . S
C454 C467 1.394 . S
C455 H447 0.949 . S
C455 C454 1.428 . S
C455 C456 1.345 1_554 S
C456 H448 0.950 . S
C456 C455 1.345 1_556 S
C456 C457 1.424 . S
C457 H449 0.951 . S
C457 C456 1.424 . S
C457 C458 1.347 . S
C458 H450 0.951 . S
C458 C453 1.429 . S
C458 C457 1.347 . S
H459 C460 0.951 . S
C460 H459 0.951 . S
C460 C466 1.265 . S
H461 C466 0.950 . S
H462 C470 0.949 . S
H463 C471 0.950 . S
H464 C472 0.951 . S
H465 C473 0.951 . S
C466 C460 1.265 . S
C466 H461 0.950 . S
C466 C467 1.478 . S
C467 C454 1.394 . S
C467 C466 1.478 . S
C467 C468 1.397 1_655 S
C468 C467 1.397 1_455 S
C468 C469 1.438 1_554 S
C468 C473 1.429 . S
C469 C452 1.394 . S
C469 C468 1.438 1_556 S
C469 C470 1.428 . S
C470 H462 0.949 . S
C470 C469 1.428 . S
C470 C471 1.345 1_556 S
C471 H463 0.950 . S
C471 C470 1.345 1_554 S
C471 C472 1.424 . S
C472 H464 0.951 . S
C472 C471 1.424 . S
C472 C473 1.347 . S
C473 H465 0.951 . S
C473 C468 1.429 . S
C473 C472 1.347 . S
C115 C26 0.647 . S
C130 C2 0.647 . S
C145 C40 0.747 . S
C160 C64 0.747 . S
C175 C78 0.669 . S
C190 C102 0.669 . S
C205 C99 2.407 . S
C220 C4 2.407 . S
C235 C93 1.344 . S
C250 C28 1.342 . S
C265 C96 1.564 . S
C280 C19 1.564 . S
C295 C42 2.449 . S
C310 C23 2.449 . S
C325 C66 1.309 . S
C340 C17 1.311 . S
C355 C57 1.530 . S
C370 C20 1.531 . S
C385 C61 2.414 . S
C400 C80 2.414 . S
C415 C104 1.213 . S
C430 C55 1.213 . S
C445 C95 1.536 . S
C460 C58 1.536 . S
