# Generated by pormake.
# Topology smw, (6)-cn, num edge types: 1
# Building blocks:
#     Node 0, Type 0, BuildingBlock: OJICUG_clean_sbu_0, # of connection points: 6
#     Node 1, Type 0, BuildingBlock: OJICUG_clean_sbu_0, # of connection points: 6
#     Node 2, Type 0, BuildingBlock: OJICUG_clean_sbu_0, # of connection points: 6
#     Node 3, Type 0, BuildingBlock: OJICUG_clean_sbu_0, # of connection points: 6
#     Node 4, Type 0, BuildingBlock: OJICUG_clean_sbu_0, # of connection points: 6
#     Node 5, Type 0, BuildingBlock: OJICUG_clean_sbu_0, # of connection points: 6
#     Node 6, Type 0, BuildingBlock: OJICUG_clean_sbu_0, # of connection points: 6
#     Node 7, Type 0, BuildingBlock: OJICUG_clean_sbu_0, # of connection points: 6
#     Node 8, Type 0, BuildingBlock: OJICUG_clean_sbu_0, # of connection points: 6
#     Node 9, Type 0, BuildingBlock: OJICUG_clean_sbu_0, # of connection points: 6
#     Node 10, Type 0, BuildingBlock: OJICUG_clean_sbu_0, # of connection points: 6
#     Node 11, Type 0, BuildingBlock: OJICUG_clean_sbu_0, # of connection points: 6
#     Edge 12, Type (0, 0), BuildingBlock: ZUJKAS_clean_linker_0, # of connection points: 2
#     Edge 13, Type (0, 0), BuildingBlock: ZUJKAS_clean_linker_0, # of connection points: 2
#     Edge 14, Type (0, 0), BuildingBlock: ZUJKAS_clean_linker_0, # of connection points: 2
#     Edge 15, Type (0, 0), BuildingBlock: ZUJKAS_clean_linker_0, # of connection points: 2
#     Edge 16, Type (0, 0), BuildingBlock: ZUJKAS_clean_linker_0, # of connection points: 2
#     Edge 17, Type (0, 0), BuildingBlock: ZUJKAS_clean_linker_0, # of connection points: 2
#     Edge 18, Type (0, 0), BuildingBlock: ZUJKAS_clean_linker_0, # of connection points: 2
#     Edge 19, Type (0, 0), BuildingBlock: ZUJKAS_clean_linker_0, # of connection points: 2
#     Edge 20, Type (0, 0), BuildingBlock: ZUJKAS_clean_linker_0, # of connection points: 2
#     Edge 21, Type (0, 0), BuildingBlock: ZUJKAS_clean_linker_0, # of connection points: 2
#     Edge 22, Type (0, 0), BuildingBlock: ZUJKAS_clean_linker_0, # of connection points: 2
#     Edge 23, Type (0, 0), BuildingBlock: ZUJKAS_clean_linker_0, # of connection points: 2
#     Edge 24, Type (0, 0), BuildingBlock: ZUJKAS_clean_linker_0, # of connection points: 2
#     Edge 25, Type (0, 0), BuildingBlock: ZUJKAS_clean_linker_0, # of connection points: 2
#     Edge 26, Type (0, 0), BuildingBlock: ZUJKAS_clean_linker_0, # of connection points: 2
#     Edge 27, Type (0, 0), BuildingBlock: ZUJKAS_clean_linker_0, # of connection points: 2
#     Edge 28, Type (0, 0), BuildingBlock: ZUJKAS_clean_linker_0, # of connection points: 2
#     Edge 29, Type (0, 0), BuildingBlock: ZUJKAS_clean_linker_0, # of connection points: 2
#     Edge 30, Type (0, 0), BuildingBlock: ZUJKAS_clean_linker_0, # of connection points: 2
#     Edge 31, Type (0, 0), BuildingBlock: ZUJKAS_clean_linker_0, # of connection points: 2
#     Edge 32, Type (0, 0), BuildingBlock: ZUJKAS_clean_linker_0, # of connection points: 2
#     Edge 33, Type (0, 0), BuildingBlock: ZUJKAS_clean_linker_0, # of connection points: 2
#     Edge 34, Type (0, 0), BuildingBlock: ZUJKAS_clean_linker_0, # of connection points: 2
#     Edge 35, Type (0, 0), BuildingBlock: ZUJKAS_clean_linker_0, # of connection points: 2
#     Edge 36, Type (0, 0), BuildingBlock: ZUJKAS_clean_linker_0, # of connection points: 2
#     Edge 37, Type (0, 0), BuildingBlock: ZUJKAS_clean_linker_0, # of connection points: 2
#     Edge 38, Type (0, 0), BuildingBlock: ZUJKAS_clean_linker_0, # of connection points: 2
#     Edge 39, Type (0, 0), BuildingBlock: ZUJKAS_clean_linker_0, # of connection points: 2
#     Edge 40, Type (0, 0), BuildingBlock: ZUJKAS_clean_linker_0, # of connection points: 2
#     Edge 41, Type (0, 0), BuildingBlock: ZUJKAS_clean_linker_0, # of connection points: 2
#     Edge 42, Type (0, 0), BuildingBlock: ZUJKAS_clean_linker_0, # of connection points: 2
#     Edge 43, Type (0, 0), BuildingBlock: ZUJKAS_clean_linker_0, # of connection points: 2
#     Edge 44, Type (0, 0), BuildingBlock: ZUJKAS_clean_linker_0, # of connection points: 2
#     Edge 45, Type (0, 0), BuildingBlock: ZUJKAS_clean_linker_0, # of connection points: 2
#     Edge 46, Type (0, 0), BuildingBlock: ZUJKAS_clean_linker_0, # of connection points: 2
#     Edge 47, Type (0, 0), BuildingBlock: ZUJKAS_clean_linker_0, # of connection points: 2
# Relax obj value: 0.103
# Max RMSD: 0.108
# Mean RMSD: 0.108
data_MOF--net-smw--node1-OJICUG_clean_sbu_0--edge1-ZUJKAS_clean_linker_0
_symmetry_space_group_name_H-M    P1
_symmetry_Int_Tables_number       1
_symmetry_cell_setting            triclinic
loop_
_symmetry_equiv_pos_as_xyz
'x, y, z'
_cell_length_a     70.207854
_cell_length_b     70.225719
_cell_length_c     28.368039
_cell_angle_alpha  90.150542
_cell_angle_beta   90.165985
_cell_angle_gamma 120.01332
loop_
_atom_site_label
_atom_site_type_symbol
_atom_site_fract_x
_atom_site_fract_y
_atom_site_fract_z
_atom_type_partial_charge
Sc0 Sc 0.48248 0.15257 0.98567 0.0
Sc1 Sc 0.42464 0.11918 0.98883 0.0
Sc2 Sc 0.45744 0.0959 0.96047 0.0
O3 O 0.45486 0.12257 0.97827 0.0
C4 C 0.4952 0.13319 0.89712 0.0
C5 C 0.4497 0.16521 0.93582 0.0
C6 C 0.41629 0.08886 0.89864 0.0
C7 C 0.45273 0.15245 0.07102 0.0
C8 C 0.49673 0.12054 0.03431 0.0
C9 C 0.41792 0.07489 0.03385 0.0
O10 O 0.49742 0.14925 0.92205 0.0
O11 O 0.43253 0.14813 0.9498 0.0
O12 O 0.4325 0.08598 0.90685 0.0
O13 O 0.47105 0.15958 0.05017 0.0
O14 O 0.48265 0.10334 0.01245 0.0
O15 O 0.413 0.08987 0.0293 0.0
O16 O 0.49862 0.13934 0.02798 0.0
O17 O 0.43463 0.13759 0.05364 0.0
O18 O 0.43364 0.07495 0.01169 0.0
O19 O 0.46905 0.16895 0.94471 0.0
O20 O 0.48148 0.11331 0.90696 0.0
O21 O 0.41127 0.1003 0.92511 0.0
Sc22 Sc 0.32733 0.46815 0.00714 0.0
Sc23 Sc 0.29997 0.41069 0.9907 0.0
Sc24 Sc 0.35745 0.44232 0.97669 0.0
O25 O 0.32824 0.44036 0.99151 0.0
C26 C 0.36321 0.48577 0.92702 0.0
C27 C 0.28398 0.44166 0.94429 0.0
C28 C 0.32542 0.40793 0.90016 0.0
C29 C 0.29371 0.43388 0.08104 0.0
C30 C 0.37061 0.47581 0.06252 0.0
C31 C 0.33308 0.39708 0.03331 0.0
O32 O 0.34751 0.48606 0.94838 0.0
O33 O 0.2824 0.42303 0.95083 0.0
O34 O 0.34428 0.42337 0.91308 0.0
O35 O 0.30719 0.45333 0.06782 0.0
O36 O 0.37304 0.46155 0.03952 0.0
O37 O 0.31399 0.39469 0.03038 0.0
O38 O 0.35552 0.48024 0.05307 0.0
O39 O 0.28905 0.41697 0.05638 0.0
O40 O 0.34997 0.41301 0.01486 0.0
O41 O 0.29912 0.45928 0.96281 0.0
O42 O 0.36896 0.4716 0.93539 0.0
O43 O 0.30823 0.40116 0.92516 0.0
Sc44 Sc 0.85048 0.31948 0.00348 0.0
Sc45 Sc 0.88864 0.30117 0.98755 0.0
Sc46 Sc 0.90712 0.35675 0.01473 0.0
O47 O 0.88207 0.32577 0.00202 0.0
C48 C 0.87493 0.36619 0.95256 0.0
C49 C 0.84938 0.29067 0.91579 0.0
C50 C 0.92633 0.34112 0.93068 0.0
C51 C 0.84642 0.27662 0.05245 0.0
C52 C 0.87144 0.35238 0.09016 0.0
C53 C 0.92367 0.32789 0.06854 0.0
O54 O 0.85779 0.34831 0.96349 0.0
O55 O 0.86545 0.28863 0.93003 0.0
O56 O 0.9262 0.35583 0.95661 0.0
O57 O 0.83947 0.28979 0.04307 0.0
O58 O 0.89091 0.36128 0.07422 0.0
O59 O 0.91278 0.31081 0.0432 0.0
O60 O 0.85507 0.33676 0.06905 0.0
O61 O 0.86428 0.27891 0.03617 0.0
O62 O 0.92281 0.3454 0.06305 0.0
O63 O 0.84244 0.30167 0.93812 0.0
O64 O 0.894 0.37136 0.9676 0.0
O65 O 0.91347 0.32069 0.93706 0.0
Sc66 Sc 0.51199 0.84743 -0.00024 0.0
Sc67 Sc 0.56999 0.87934 -0.00641 0.0
Sc68 Sc 0.53832 0.90482 0.01277 0.0
O69 O 0.54012 0.87718 0.00201 0.0
C70 C 0.49744 0.87749 0.94435 0.0
C71 C 0.54039 0.84311 0.91689 0.0
C72 C 0.57678 0.9215 0.93729 0.0
C73 C 0.54436 0.83595 0.05529 0.0
C74 C 0.50152 0.87126 0.08328 0.0
C75 C 0.58006 0.91421 0.07542 0.0
O76 O 0.49542 0.85895 0.95427 0.0
O77 O 0.55893 0.8581 0.93245 0.0
O78 O 0.56104 0.92231 0.95728 0.0
O79 O 0.52528 0.83242 0.04472 0.0
O80 O 0.5154 0.89054 0.06976 0.0
O81 O 0.58412 0.90069 0.05406 0.0
O82 O 0.49844 0.85406 0.06165 0.0
O83 O 0.56185 0.85206 0.03925 0.0
O84 O 0.56434 0.91732 0.06382 0.0
O85 O 0.52235 0.83752 0.93773 0.0
O86 O 0.51216 0.8954 0.96262 0.0
O87 O 0.58206 0.9071 0.94705 0.0
Sc88 Sc 0.66218 0.52406 0.98513 0.0
Sc89 Sc 0.68937 0.58177 -0.00012 0.0
Sc90 Sc 0.63146 0.55037 0.00353 0.0
O91 O 0.66102 0.55209 -0.00387 0.0
C92 C 0.62096 0.51526 0.9216 0.0
C93 C 0.69981 0.55796 0.91673 0.0
C94 C 0.65788 0.59397 0.94254 0.0
C95 C 0.70243 0.55051 0.05586 0.0
C96 C 0.62368 0.508 0.06035 0.0
C97 C 0.66076 0.58649 0.08078 0.0
O98 O 0.63668 0.51199 0.93227 0.0
O99 O 0.70287 0.57513 0.93838 0.0
O100 O 0.64029 0.57743 0.95699 0.0
O101 O 0.68761 0.53281 0.03699 0.0
O102 O 0.61929 0.52309 0.05115 0.0
O103 O 0.67911 0.59177 0.06189 0.0
O104 O 0.63873 0.50629 0.03946 0.0
O105 O 0.70511 0.56931 0.04564 0.0
O106 O 0.64244 0.57191 0.06366 0.0
O107 O 0.68581 0.53863 0.92973 0.0
O108 O 0.61712 0.52868 0.94399 0.0
O109 O 0.67691 0.59781 0.95482 0.0
Sc110 Sc 0.14725 0.67281 0.9727 0.0
Sc111 Sc 0.10951 0.69096 -0.00436 0.0
Sc112 Sc 0.09092 0.63455 0.98361 0.0
O113 O 0.11592 0.66611 0.98407 0.0
C114 C 0.12002 0.63373 0.89935 0.0
C115 C 0.14623 0.71095 0.91543 0.0
C116 C 0.06969 0.65952 0.9294 0.0
C117 C 0.15347 0.70722 0.05373 0.0
C118 C 0.12895 0.63055 0.0377 0.0
C119 C 0.07632 0.65436 0.067 0.0
O120 O 0.13793 0.64927 0.91598 0.0
O121 O 0.13178 0.71136 0.94159 0.0
O122 O 0.06992 0.64231 0.94243 0.0
O123 O 0.16057 0.69743 0.02751 0.0
O124 O 0.10911 0.62319 0.02472 0.0
O125 O 0.08625 0.67381 0.05088 0.0
O126 O 0.14469 0.64888 0.02367 0.0
O127 O 0.13467 0.70544 0.04859 0.0
O128 O 0.0775 0.63861 0.04798 0.0
O129 O 0.15275 0.69715 0.92065 0.0
O130 O 0.10155 0.62718 0.91892 0.0
O131 O 0.08368 0.67868 0.94374 0.0
Sc132 Sc 0.89987 0.53415 0.5055 0.0
Sc133 Sc 0.87797 0.56932 0.49293 0.0
Sc134 Sc 0.84254 0.51207 0.5062 0.0
O135 O 0.87344 0.53851 0.5015 0.0
C136 C 0.86637 0.49216 0.4449 0.0
C137 C 0.91481 0.57043 0.42565 0.0
C138 C 0.83703 0.54053 0.42523 0.0
C139 C 0.91638 0.57852 0.56486 0.0
C140 C 0.86855 0.50124 0.58438 0.0
C141 C 0.83798 0.54832 0.56486 0.0
O142 O 0.88559 0.50612 0.45905 0.0
O143 O 0.9026 0.57787 0.43958 0.0
O144 O 0.83095 0.5225 0.44664 0.0
O145 O 0.91736 0.56164 0.55238 0.0
O146 O 0.85085 0.49882 0.56636 0.0
O147 O 0.85406 0.56466 0.54527 0.0
O148 O 0.88736 0.51357 0.56647 0.0
O149 O 0.90263 0.58331 0.5474 0.0
O150 O 0.83212 0.52852 0.55458 0.0
O151 O 0.91512 0.55433 0.44517 0.0
O152 O 0.84927 0.4924 0.45841 0.0
O153 O 0.85371 0.5586 0.43776 0.0
Sc154 Sc 0.35735 0.91398 0.5003 0.0
Sc155 Sc 0.3004 0.89306 0.48684 0.0
Sc156 Sc 0.32106 0.85711 0.50809 0.0
O157 O 0.32624 0.88804 0.49844 0.0
C158 C 0.36395 0.87805 0.4444 0.0
C159 C 0.33644 0.92709 0.41591 0.0
C160 C 0.28662 0.84986 0.42667 0.0
C161 C 0.33064 0.93332 0.55412 0.0
C162 C 0.35907 0.88466 0.5832 0.0
C163 C 0.28162 0.85577 0.56574 0.0
O164 O 0.37017 0.89762 0.45761 0.0
O165 O 0.31677 0.91585 0.4304 0.0
O166 O 0.2976 0.84364 0.45141 0.0
O167 O 0.34814 0.93331 0.54287 0.0
O168 O 0.34381 0.86671 0.5662 0.0
O169 O 0.28086 0.87064 0.54172 0.0
O170 O 0.36535 0.90317 0.56403 0.0
O171 O 0.31182 0.91941 0.53783 0.0
O172 O 0.29561 0.84965 0.55848 0.0
O173 O 0.35267 0.92759 0.43697 0.0
O174 O 0.34617 0.86158 0.45851 0.0
O175 O 0.28649 0.86762 0.43422 0.0
Sc176 Sc 0.44215 0.35944 0.4784 0.0
Sc177 Sc 0.41181 0.30162 0.48737 0.0
Sc178 Sc 0.46969 0.33013 0.49932 0.0
O179 O 0.44118 0.33037 0.48838 0.0
C180 C 0.4839 0.36637 0.41976 0.0
C181 C 0.40651 0.32782 0.4022 0.0
C182 C 0.4431 0.28717 0.43611 0.0
C183 C 0.39857 0.33377 0.53903 0.0
C184 C 0.47842 0.37257 0.55854 0.0
C185 C 0.43694 0.29522 0.5739 0.0
O186 O 0.46905 0.37098 0.42991 0.0
O187 O 0.4019 0.3098 0.42202 0.0
O188 O 0.46087 0.30312 0.45194 0.0
O189 O 0.41529 0.35129 0.52502 0.0
O190 O 0.48221 0.35716 0.54826 0.0
O191 O 0.41929 0.29108 0.55261 0.0
O192 O 0.46415 0.37538 0.53693 0.0
O193 O 0.39501 0.31473 0.5279 0.0
O194 O 0.456 0.30848 0.55817 0.0
O195 O 0.42024 0.34656 0.41917 0.0
O196 O 0.48613 0.35178 0.44136 0.0
O197 O 0.4243 0.28443 0.4464 0.0
Sc198 Sc 0.09581 0.4567 0.461 0.0
Sc199 Sc 0.11626 0.42179 0.49226 0.0
Sc200 Sc 0.15254 0.479 0.48172 0.0
O201 O 0.12157 0.4525 0.47823 0.0
C202 C 0.13306 0.49099 0.39209 0.0
C203 C 0.08407 0.4127 0.40498 0.0
C204 C 0.16096 0.44265 0.43452 0.0
C205 C 0.07492 0.42028 0.54137 0.0
C206 C 0.12399 0.49777 0.52862 0.0
C207 C 0.15235 0.45065 0.56986 0.0
O208 O 0.11314 0.47858 0.40399 0.0
O209 O 0.09508 0.40727 0.43182 0.0
O210 O 0.16631 0.46254 0.44253 0.0
O211 O 0.0753 0.43543 0.51627 0.0
O212 O 0.14206 0.49814 0.52175 0.0
O213 O 0.13668 0.43257 0.55427 0.0
O214 O 0.106 0.48373 0.5093 0.0
O215 O 0.08874 0.4138 0.53677 0.0
O216 O 0.15978 0.46866 0.54758 0.0
O217 O 0.08308 0.43013 0.41091 0.0
O218 O 0.14914 0.49277 0.41635 0.0
O219 O 0.14339 0.4264 0.44986 0.0
Sc220 Sc 0.63607 0.08626 0.49247 0.0
Sc221 Sc 0.69335 0.10705 0.49342 0.0
Sc222 Sc 0.67217 0.14237 0.47042 0.0
O223 O 0.66721 0.1119 0.48548 0.0
C224 C 0.63067 0.1116 0.40519 0.0
C225 C 0.65942 0.06331 0.43915 0.0
C226 C 0.708 0.1396 0.40606 0.0
C227 C 0.66157 0.07779 0.57573 0.0
C228 C 0.63233 0.12511 0.54266 0.0
C229 C 0.71105 0.15371 0.54329 0.0
O230 O 0.62473 0.09423 0.42902 0.0
O231 O 0.67878 0.07759 0.45158 0.0
O232 O 0.69567 0.14745 0.41644 0.0
O233 O 0.64423 0.07577 0.55669 0.0
O234 O 0.64912 0.14062 0.52277 0.0
O235 O 0.71127 0.13596 0.53611 0.0
O236 O 0.62576 0.10494 0.53466 0.0
O237 O 0.68047 0.08844 0.55705 0.0
O238 O 0.69773 0.15823 0.52261 0.0
O239 O 0.64255 0.0644 0.45105 0.0
O240 O 0.64723 0.13005 0.41625 0.0
O241 O 0.70892 0.12496 0.43053 0.0
Sc242 Sc 0.54405 0.63306 0.51326 0.0
Sc243 Sc 0.57372 0.6906 0.49852 0.0
Sc244 Sc 0.51591 0.66129 0.48573 0.0
O245 O 0.54458 0.66166 0.49913 0.0
C246 C 0.50846 0.61812 0.4307 0.0
C247 C 0.58756 0.65833 0.45112 0.0
C248 C 0.54837 0.69596 0.41087 0.0
C249 C 0.57975 0.66625 0.58691 0.0
C250 C 0.50142 0.62636 0.56811 0.0
C251 C 0.54207 0.70489 0.54815 0.0
O252 O 0.52292 0.61614 0.45387 0.0
O253 O 0.59006 0.67733 0.45776 0.0
O254 O 0.52932 0.68194 0.42529 0.0
O255 O 0.56505 0.64709 0.57388 0.0
O256 O 0.49936 0.64063 0.5448 0.0
O257 O 0.56091 0.70733 0.53961 0.0
O258 O 0.5164 0.62169 0.55985 0.0
O259 O 0.58497 0.68344 0.56305 0.0
O260 O 0.52441 0.68917 0.53102 0.0
O261 O 0.57181 0.64103 0.46889 0.0
O262 O 0.50402 0.63329 0.43903 0.0
O263 O 0.56586 0.70095 0.43371 0.0
H264 H 0.48785 0.18322 0.12229 0.0
H265 H 0.48695 0.20323 0.19195 0.0
H266 H 0.41604 0.16586 0.19095 0.0
H267 H 0.4167 0.14551 0.12177 0.0
H268 H 0.46753 0.22893 0.19165 0.0
H269 H 0.43054 0.16506 0.33003 0.0
H270 H 0.44197 0.16108 0.27644 0.0
H271 H 0.41491 0.15789 0.2762 0.0
C272 C 0.47205 0.17897 0.13727 0.0
C273 C 0.45234 0.16284 0.11618 0.0
C274 C 0.47159 0.19041 0.17714 0.0
C275 C 0.45145 0.18587 0.19679 0.0
C276 C 0.43177 0.1693 0.17688 0.0
H277 H 0.40918 0.25138 0.39217 0.0
H278 H 0.41182 0.22636 0.33591 0.0
C279 C 0.4322 0.15779 0.13709 0.0
C280 C 0.45096 0.20001 0.23487 0.0
H281 H 0.43221 0.19931 0.34609 0.0
C282 C 0.46004 0.22251 0.22563 0.0
C283 C 0.441 0.19149 0.27892 0.0
C284 C 0.43172 0.16759 0.29126 0.0
C285 C 0.459 0.23671 0.25891 0.0
C286 C 0.4489 0.22818 0.30281 0.0
C287 C 0.43993 0.20571 0.31229 0.0
C288 C 0.44731 0.24244 0.339 0.0
C289 C 0.46816 0.2606 0.24637 0.0
C290 C 0.46641 0.25944 0.35983 0.0
C291 C 0.46501 0.27381 0.39181 0.0
C292 C 0.44444 0.27134 0.4037 0.0
C293 C 0.42528 0.25383 0.38367 0.0
C294 C 0.42673 0.23948 0.35165 0.0
H295 H 0.47086 0.26342 0.20784 0.0
H296 H 0.45694 0.26651 0.25815 0.0
H297 H 0.48422 0.27064 0.26448 0.0
H298 H 0.48242 0.26175 0.35091 0.0
H299 H 0.4801 0.28698 0.40679 0.0
H300 H 0.19837 0.47229 0.38881 0.0
H301 H 0.22227 0.46444 0.34018 0.0
H302 H 0.18179 0.3952 0.36891 0.0
H303 H 0.15755 0.40273 0.41721 0.0
H304 H 0.24582 0.44123 0.3625 0.0
H305 H 0.18138 0.40044 0.22336 0.0
H306 H 0.17942 0.41736 0.26888 0.0
H307 H 0.17415 0.39021 0.28248 0.0
C308 C 0.19455 0.45539 0.38499 0.0
C309 C 0.1759 0.43811 0.40641 0.0
C310 C 0.20829 0.45097 0.35743 0.0
C311 C 0.20359 0.42926 0.35088 0.0
C312 C 0.18544 0.41203 0.37329 0.0
H313 H 0.26476 0.3951 0.12364 0.0
H314 H 0.24462 0.3904 0.19679 0.0
C315 C 0.17163 0.4164 0.40074 0.0
C316 C 0.21706 0.42476 0.31813 0.0
H317 H 0.21637 0.40588 0.20715 0.0
C318 C 0.23938 0.4332 0.32878 0.0
C319 C 0.20842 0.4141 0.27452 0.0
C320 C 0.18457 0.40508 0.26123 0.0
C321 C 0.25361 0.43211 0.29581 0.0
C322 C 0.24524 0.42271 0.25107 0.0
C323 C 0.22266 0.41307 0.2416 0.0
C324 C 0.25979 0.42524 0.21141 0.0
C325 C 0.27752 0.44152 0.30871 0.0
C326 C 0.27501 0.4464 0.19574 0.0
C327 C 0.28647 0.44918 0.154 0.0
C328 C 0.28271 0.43083 0.1269 0.0
C329 C 0.26793 0.4096 0.1435 0.0
C330 C 0.2565 0.40684 0.18538 0.0
H331 H 0.27964 0.44069 0.34735 0.0
H332 H 0.2848 0.43271 0.2903 0.0
H333 H 0.28679 0.4591 0.2984 0.0
H334 H 0.27733 0.46082 0.2147 0.0
H335 H 0.29776 0.46576 0.14234 0.0
H336 H 0.85629 0.24607 0.08713 0.0
H337 H 0.83358 0.21502 0.13888 0.0
H338 H 0.78349 0.23346 0.13924 0.0
H339 H 0.80575 0.26423 0.08761 0.0
H340 H 0.81897 0.21825 0.22872 0.0
H341 H 0.74848 0.16738 0.11111 0.0
H342 H 0.77479 0.18851 0.08924 0.0
H343 H 0.75515 0.1956 0.11167 0.0
C344 C 0.84036 0.2434 0.0979 0.0
C345 C 0.83284 0.25766 0.0832 0.0
C346 C 0.82742 0.22564 0.12731 0.0
C347 C 0.80672 0.22174 0.14192 0.0
C348 C 0.79919 0.23588 0.12727 0.0
H349 H 0.70936 0.16928 0.34217 0.0
H350 H 0.7341 0.18498 0.27538 0.0
C351 C 0.81207 0.25362 0.09812 0.0
C352 C 0.79354 0.20415 0.17577 0.0
H353 H 0.74106 0.16286 0.1951 0.0
C354 C 0.80212 0.2057 0.22121 0.0
C355 C 0.77164 0.18778 0.16553 0.0
C356 C 0.76205 0.18456 0.11655 0.0
C357 C 0.78872 0.19251 0.25788 0.0
C358 C 0.76634 0.17733 0.24836 0.0
C359 C 0.75822 0.17467 0.20218 0.0
C360 C 0.75056 0.16629 0.28676 0.0
C361 C 0.79811 0.19601 0.30714 0.0
C362 C 0.75149 0.15035 0.31466 0.0
C363 C 0.7374 0.14135 0.35309 0.0
C364 C 0.72219 0.1482 0.36407 0.0
C365 C 0.72095 0.16374 0.33501 0.0
C366 C 0.735 0.17266 0.29668 0.0
H367 H 0.81514 0.2102 0.30933 0.0
H368 H 0.78762 0.19883 0.33216 0.0
H369 H 0.79836 0.18105 0.31863 0.0
H370 H 0.7633 0.14512 0.30708 0.0
H371 H 0.73869 0.12931 0.37454 0.0
H372 H 0.51496 0.68978 0.35179 0.0
H373 H 0.51709 0.7125 0.285 0.0
H374 H 0.58734 0.75192 0.30348 0.0
H375 H 0.58554 0.72928 0.37054 0.0
H376 H 0.53601 0.76005 0.30097 0.0
H377 H 0.57652 0.73933 0.15701 0.0
H378 H 0.5618 0.72046 0.20426 0.0
H379 H 0.58839 0.74392 0.21521 0.0
C380 C 0.53095 0.70304 0.34134 0.0
C381 C 0.55006 0.70789 0.36691 0.0
C382 C 0.5321 0.71593 0.30308 0.0
C383 C 0.55235 0.73371 0.2895 0.0
C384 C 0.57162 0.73804 0.31331 0.0
H385 H 0.58203 0.83909 0.09154 0.0
H386 H 0.5849 0.81441 0.14807 0.0
C387 C 0.5705 0.72516 0.35173 0.0
C388 C 0.55282 0.7492 0.25422 0.0
H389 H 0.56854 0.76774 0.14221 0.0
C390 C 0.5431 0.76176 0.26622 0.0
C391 C 0.56237 0.75145 0.20941 0.0
C392 C 0.5728 0.73803 0.19529 0.0
C393 C 0.54248 0.77652 0.2342 0.0
C394 C 0.55142 0.77832 0.1888 0.0
C395 C 0.5616 0.76612 0.17708 0.0
C396 C 0.54978 0.79246 0.15281 0.0
C397 C 0.53241 0.79017 0.24932 0.0
C398 C 0.52908 0.78791 0.13641 0.0
C399 C 0.52732 0.80195 0.10441 0.0
C400 C 0.5463 0.82071 0.08803 0.0
C401 C 0.56708 0.82484 0.10361 0.0
C402 C 0.56879 0.81077 0.13575 0.0
H403 H 0.53163 0.79107 0.28832 0.0
H404 H 0.5419 0.80715 0.23528 0.0
H405 H 0.51537 0.78257 0.23531 0.0
H406 H 0.51425 0.77359 0.14878 0.0
H407 H 0.51108 0.79816 0.09282 0.0
H408 H 0.69946 0.51336 0.0941 0.0
H409 H 0.72255 0.51113 0.15587 0.0
H410 H 0.76139 0.58191 0.16075 0.0
H411 H 0.73823 0.58442 0.09955 0.0
H412 H 0.76769 0.52696 0.15754 0.0
H413 H 0.74323 0.56557 0.298 0.0
H414 H 0.7283 0.55587 0.24311 0.0
H415 H 0.75344 0.58191 0.24572 0.0
C416 C 0.71291 0.52849 0.10823 0.0
C417 C 0.71688 0.54909 0.09205 0.0
C418 C 0.72608 0.52715 0.14351 0.0
C419 C 0.7434 0.54635 0.16332 0.0
C420 C 0.74777 0.56691 0.14657 0.0
H421 H 0.8426 0.57612 0.37493 0.0
H422 H 0.82003 0.57659 0.3099 0.0
C423 C 0.73457 0.56829 0.11142 0.0
C424 C 0.75696 0.54485 0.20143 0.0
H425 H 0.77312 0.55988 0.3155 0.0
C426 C 0.76881 0.53403 0.19218 0.0
C427 C 0.75825 0.55403 0.24657 0.0
C428 C 0.74497 0.56482 0.25922 0.0
C429 C 0.78239 0.53262 0.2267 0.0
C430 C 0.78391 0.5421 0.27152 0.0
C431 C 0.77194 0.55274 0.2809 0.0
C432 C 0.79804 0.5414 0.30925 0.0
C433 C 0.79538 0.52146 0.21477 0.0
C434 C 0.79304 0.5214 0.3303 0.0
C435 C 0.80586 0.52102 0.36763 0.0
C436 C 0.82387 0.54068 0.38454 0.0
C437 C 0.8289 0.56066 0.36285 0.0
C438 C 0.81602 0.561 0.3257 0.0
H439 H 0.79575 0.5189 0.17619 0.0
H440 H 0.81254 0.53128 0.22802 0.0
H441 H 0.78772 0.50515 0.23211 0.0
H442 H 0.779 0.50614 0.31839 0.0
H443 H 0.80151 0.50536 0.38349 0.0
H444 H 0.26673 0.80534 0.41994 0.0
H445 H 0.24535 0.78218 0.3536 0.0
H446 H 0.25707 0.83993 0.27636 0.0
H447 H 0.27746 0.86306 0.34375 0.0
H448 H 0.21657 0.8099 0.26661 0.0
H449 H 0.26705 0.77115 0.23365 0.0
H450 H 0.2571 0.76631 0.29297 0.0
H451 H 0.27568 0.794 0.27375 0.0
C452 C 0.26477 0.81306 0.38871 0.0
C453 C 0.27375 0.83594 0.38676 0.0
C454 C 0.25274 0.79985 0.35069 0.0
C455 C 0.25011 0.80937 0.30952 0.0
C456 C 0.25901 0.83225 0.30767 0.0
H457 H 0.19815 0.73157 0.05279 0.0
H458 H 0.22213 0.7577 0.11287 0.0
C459 C 0.2706 0.84543 0.34614 0.0
C460 C 0.23729 0.79538 0.26921 0.0
H461 H 0.23093 0.75314 0.19884 0.0
C462 C 0.21988 0.79767 0.2514 0.0
C463 C 0.2419 0.77974 0.24867 0.0
C464 C 0.26162 0.77784 0.26293 0.0
C465 C 0.20654 0.78433 0.21452 0.0
C466 C 0.21012 0.76757 0.19647 0.0
C467 C 0.22794 0.76572 0.21329 0.0
C468 C 0.19557 0.75175 0.16024 0.0
C469 C 0.18906 0.78867 0.1949 0.0
C470 C 0.17276 0.73946 0.16732 0.0
C471 C 0.15903 0.72493 0.13263 0.0
C472 C 0.16798 0.72193 0.09101 0.0
C473 C 0.19087 0.73357 0.0847 0.0
C474 C 0.20455 0.74849 0.11891 0.0
H475 H 0.19346 0.80606 0.20058 0.0
H476 H 0.18647 0.78499 0.15657 0.0
H477 H 0.17332 0.77815 0.21341 0.0
H478 H 0.16554 0.74108 0.19967 0.0
H479 H 0.14144 0.71589 0.13855 0.0
H480 H 0.50503 0.70381 0.58244 0.0
H481 H 0.50322 0.72924 0.63891 0.0
H482 H 0.57406 0.76701 0.64404 0.0
H483 H 0.57614 0.74195 0.58747 0.0
H484 H 0.52128 0.73752 0.73028 0.0
H485 H 0.55652 0.81419 0.62532 0.0
H486 H 0.54627 0.78739 0.59873 0.0
H487 H 0.57306 0.80128 0.62581 0.0
C488 C 0.52024 0.71767 0.5951 0.0
C489 C 0.54074 0.72081 0.58037 0.0
C490 C 0.51915 0.73217 0.62735 0.0
C491 C 0.5385 0.75014 0.64503 0.0
C492 C 0.55894 0.75349 0.63002 0.0
H493 H 0.57519 0.84629 0.86659 0.0
H494 H 0.57371 0.82401 0.79874 0.0
C495 C 0.56007 0.73902 0.59792 0.0
C496 C 0.53743 0.76449 0.68186 0.0
H497 H 0.55354 0.81791 0.70826 0.0
C498 C 0.52808 0.75506 0.72536 0.0
C499 C 0.54646 0.78735 0.67525 0.0
C500 C 0.55598 0.79817 0.62862 0.0
C501 C 0.52812 0.76801 0.76306 0.0
C502 C 0.53739 0.79092 0.75665 0.0
C503 C 0.54647 0.80033 0.71295 0.0
C504 C 0.53817 0.8054 0.79541 0.0
C505 C 0.51892 0.75717 0.80988 0.0
C506 C 0.51867 0.80264 0.81505 0.0
C507 C 0.51942 0.81524 0.85387 0.0
C508 C 0.53973 0.83096 0.87358 0.0
C509 C 0.55927 0.83428 0.8525 0.0
C510 C 0.55848 0.8216 0.8137 0.0
H511 H 0.51724 0.74061 0.81203 0.0
H512 H 0.52955 0.76742 0.83943 0.0
H513 H 0.50235 0.75523 0.81459 0.0
H514 H 0.50284 0.7905 0.80076 0.0
H515 H 0.50403 0.8124 0.86879 0.0
H516 H 0.73316 0.59613 0.87966 0.0
H517 H 0.75886 0.59957 0.81766 0.0
H518 H 0.7244 0.5291 0.80047 0.0
H519 H 0.69867 0.52534 0.86211 0.0
H520 H 0.77318 0.55289 0.82151 0.0
H521 H 0.74765 0.5856 0.66984 0.0
H522 H 0.75004 0.59735 0.72767 0.0
H523 H 0.72865 0.56971 0.71598 0.0
C524 C 0.73085 0.58137 0.86228 0.0
C525 C 0.71397 0.56044 0.87615 0.0
C526 C 0.7455 0.58341 0.82684 0.0
C527 C 0.74337 0.56458 0.80479 0.0
C528 C 0.72617 0.54378 0.81731 0.0
H529 H 0.80374 0.51796 0.61737 0.0
H530 H 0.78299 0.52479 0.67712 0.0
C531 C 0.71153 0.5417 0.85255 0.0
C532 C 0.75997 0.56618 0.77119 0.0
H533 H 0.77606 0.57764 0.65666 0.0
C534 C 0.77402 0.5585 0.78558 0.0
C535 C 0.76102 0.57377 0.72476 0.0
C536 C 0.74604 0.58205 0.70822 0.0
C537 C 0.78873 0.5575 0.75399 0.0
C538 C 0.78899 0.56397 0.7068 0.0
C539 C 0.77566 0.57262 0.69294 0.0
C540 C 0.80171 0.5602 0.67062 0.0
C541 C 0.80361 0.54918 0.77112 0.0
C542 C 0.81874 0.57791 0.64667 0.0
C543 C 0.83064 0.5741 0.6123 0.0
C544 C 0.8255 0.55248 0.60121 0.0
C545 C 0.80821 0.53481 0.62511 0.0
C546 C 0.79639 0.53865 0.65942 0.0
H547 H 0.80595 0.55094 0.80997 0.0
H548 H 0.79608 0.53146 0.7622 0.0
H549 H 0.81997 0.5581 0.75397 0.0
H550 H 0.8229 0.59464 0.65481 0.0
H551 H 0.84381 0.58809 0.59444 0.0
H552 H 0.242 0.85397 0.57733 0.0
H553 H 0.2143 0.83362 0.63787 0.0
H554 H 0.25687 0.81254 0.69948 0.0
H555 H 0.28447 0.83255 0.63938 0.0
H556 H 0.19589 0.78551 0.6539 0.0
H557 H 0.23605 0.8374 0.81154 0.0
H558 H 0.24235 0.84791 0.75207 0.0
H559 H 0.254 0.83221 0.77549 0.0
C560 C 0.24554 0.8452 0.60412 0.0
C561 C 0.26537 0.84478 0.60352 0.0
C562 C 0.22973 0.83362 0.63854 0.0
C563 C 0.23376 0.82187 0.67319 0.0
C564 C 0.25367 0.8218 0.67327 0.0
H565 H 0.17109 0.71092 0.84161 0.0
H566 H 0.18853 0.73888 0.7808 0.0
C567 C 0.26933 0.83311 0.63871 0.0
C568 C 0.21672 0.80821 0.70757 0.0
H569 H 0.20847 0.79986 0.82579 0.0
C570 C 0.1983 0.78883 0.69146 0.0
C571 C 0.21992 0.81277 0.75636 0.0
C572 C 0.23905 0.83381 0.77502 0.0
C573 C 0.18377 0.77307 0.72332 0.0
C574 C 0.18797 0.77688 0.77216 0.0
C575 C 0.20546 0.79697 0.78821 0.0
C576 C 0.17591 0.75938 0.80692 0.0
C577 C 0.16455 0.75211 0.70458 0.0
C578 C 0.16326 0.76187 0.84186 0.0
C579 C 0.15324 0.74591 0.87673 0.0
C580 C 0.15605 0.72742 0.87752 0.0
C581 C 0.16866 0.72499 0.84213 0.0
C582 C 0.17848 0.74084 0.80713 0.0
H583 H 0.16011 0.75422 0.6681 0.0
H584 H 0.16901 0.73902 0.70391 0.0
H585 H 0.14993 0.74653 0.72752 0.0
H586 H 0.16132 0.77624 0.84237 0.0
H587 H 0.14368 0.7483 0.90356 0.0
H588 H 0.47073 0.29675 0.62457 0.0
H589 H 0.46843 0.27664 0.69591 0.0
H590 H 0.39797 0.24859 0.69748 0.0
H591 H 0.39996 0.26841 0.62508 0.0
H592 H 0.45148 0.2759 0.78575 0.0
H593 H 0.40639 0.19489 0.69361 0.0
H594 H 0.41945 0.22057 0.66207 0.0
H595 H 0.39382 0.21175 0.69176 0.0
C596 C 0.4547 0.2864 0.64001 0.0
C597 C 0.43547 0.28394 0.6187 0.0
C598 C 0.45346 0.27501 0.68096 0.0
C599 C 0.43303 0.261 0.70146 0.0
C600 C 0.41385 0.25911 0.68156 0.0
H601 H 0.41126 0.1646 0.91723 0.0
H602 H 0.40578 0.18952 0.86697 0.0
C603 C 0.41504 0.27043 0.64028 0.0
C604 C 0.43205 0.24747 0.74194 0.0
H605 H 0.41677 0.19482 0.77207 0.0
C606 C 0.44366 0.25814 0.78313 0.0
C607 C 0.42185 0.22434 0.73809 0.0
C608 C 0.40979 0.21214 0.69396 0.0
C609 C 0.44587 0.24626 0.82026 0.0
C610 C 0.43641 0.22327 0.81555 0.0
C611 C 0.424 0.21251 0.7753 0.0
C612 C 0.44023 0.21004 0.8504 0.0
C613 C 0.45852 0.2584 0.86384 0.0
C614 C 0.4615 0.21347 0.85771 0.0
C615 C 0.46476 0.19921 0.88635 0.0
C616 C 0.44674 0.1812 0.90769 0.0
C617 C 0.42552 0.1782 0.90107 0.0
C618 C 0.42231 0.19246 0.87257 0.0
H619 H 0.45927 0.27451 0.86767 0.0
H620 H 0.45101 0.24852 0.89603 0.0
H621 H 0.47563 0.26156 0.86121 0.0
H622 H 0.47547 0.22673 0.83997 0.0
H623 H 0.48129 0.20197 0.8907 0.0
H624 H 0.18712 0.48536 0.61471 0.0
H625 H 0.207 0.48399 0.68441 0.0
H626 H 0.16199 0.41434 0.69632 0.0
H627 H 0.14202 0.41538 0.62674 0.0
H628 H 0.1913 0.46679 0.78079 0.0
H629 H 0.22482 0.42191 0.68061 0.0
H630 H 0.21311 0.43664 0.65194 0.0
H631 H 0.19548 0.41028 0.67793 0.0
C632 C 0.18129 0.46976 0.63234 0.0
C633 C 0.16312 0.45042 0.61468 0.0
C634 C 0.19265 0.46905 0.67222 0.0
C635 C 0.18608 0.44902 0.69492 0.0
C636 C 0.16742 0.4299 0.67878 0.0
H637 H 0.2465 0.40757 0.90629 0.0
H638 H 0.22142 0.40965 0.84955 0.0
C639 C 0.15604 0.43057 0.63902 0.0
C640 C 0.19945 0.44785 0.73382 0.0
H641 H 0.233 0.42739 0.76181 0.0
C642 C 0.20045 0.45821 0.77682 0.0
C643 C 0.21132 0.43663 0.72822 0.0
C644 C 0.21135 0.42585 0.68212 0.0
C645 C 0.21281 0.45733 0.8149 0.0
C646 C 0.22476 0.44617 0.80921 0.0
C647 C 0.22373 0.43584 0.76611 0.0
C648 C 0.23881 0.4452 0.84702 0.0
C649 C 0.21263 0.46796 0.86103 0.0
C650 C 0.25685 0.46453 0.86457 0.0
C651 C 0.27121 0.46343 0.8972 0.0
C652 C 0.26793 0.44294 0.9124 0.0
C653 C 0.24959 0.42362 0.89526 0.0
C654 C 0.2352 0.42476 0.86287 0.0
H655 H 0.1981 0.47023 0.86375 0.0
H656 H 0.2126 0.45801 0.89142 0.0
H657 H 0.22762 0.48443 0.86354 0.0
H658 H 0.26023 0.48046 0.85197 0.0
H659 H 0.28523 0.47863 0.90942 0.0
H660 H 0.81596 0.29278 0.87077 0.0
H661 H 0.79482 0.27139 0.80234 0.0
H662 H 0.83513 0.24119 0.79328 0.0
H663 H 0.85639 0.26237 0.86184 0.0
H664 H 0.80979 0.26746 0.70698 0.0
H665 H 0.77002 0.18981 0.81017 0.0
H666 H 0.78372 0.21661 0.83786 0.0
H667 H 0.79956 0.20552 0.81266 0.0
C668 C 0.82047 0.2817 0.85415 0.0
C669 C 0.83772 0.27909 0.87219 0.0
C670 C 0.80841 0.26958 0.81496 0.0
C671 C 0.81334 0.25462 0.79338 0.0
C672 C 0.83101 0.25254 0.81001 0.0
H673 H 0.74601 0.15309 0.58402 0.0
H674 H 0.77195 0.17893 0.64161 0.0
C675 C 0.84313 0.26468 0.84912 0.0
C676 C 0.79923 0.24036 0.75497 0.0
H677 H 0.76144 0.18712 0.72924 0.0
C678 C 0.7992 0.24989 0.71163 0.0
C679 C 0.78549 0.21752 0.76159 0.0
C680 C 0.78447 0.20668 0.80814 0.0
C681 C 0.7859 0.23697 0.67414 0.0
C682 C 0.77204 0.21412 0.68086 0.0
C683 C 0.77214 0.20465 0.72428 0.0
C684 C 0.75717 0.19955 0.64354 0.0
C685 C 0.78708 0.24781 0.62754 0.0
C686 C 0.74025 0.20262 0.62568 0.0
C687 C 0.72539 0.1879 0.59257 0.0
C688 C 0.72708 0.16973 0.57726 0.0
C689 C 0.74416 0.16683 0.59517 0.0
C690 C 0.75904 0.1816 0.628 0.0
H691 H 0.8025 0.2639 0.62433 0.0
H692 H 0.78607 0.23711 0.59762 0.0
H693 H 0.77302 0.2508 0.62467 0.0
H694 H 0.73825 0.2161 0.63811 0.0
H695 H 0.71236 0.19054 0.57968 0.0
H696 H 0.37635 0.95818 0.38244 0.0
H697 H 0.38379 0.98078 0.3124 0.0
H698 H 0.31437 0.94905 0.28165 0.0
H699 H 0.30655 0.92617 0.35209 0.0
H700 H 0.34646 0.95419 0.20253 0.0
H701 H 0.36578 0.03041 0.30069 0.0
H702 H 0.37838 0.01547 0.32364 0.0
H703 H 0.34899 0.00323 0.32496 0.0
C704 C 0.3626 0.9559 0.36088 0.0
C705 C 0.34083 0.94044 0.37299 0.0
C706 C 0.36691 0.96887 0.32098 0.0
C707 C 0.34959 0.96659 0.29246 0.0
C708 C 0.32787 0.95098 0.30365 0.0
H709 H 0.3804 0.06662 0.07962 0.0
H710 H 0.35985 0.03801 0.13745 0.0
C711 C 0.32348 0.93803 0.34387 0.0
C712 C 0.35453 0.9808 0.2511 0.0
H713 H 0.37758 0.0347 0.22086 0.0
C714 C 0.35292 0.97175 0.20619 0.0
C715 C 0.36269 0.00357 0.25639 0.0
C716 C 0.36393 0.01381 0.30397 0.0
C717 C 0.36044 0.98523 0.16631 0.0
C718 C 0.36995 0.00822 0.17204 0.0
C719 C 0.37041 0.01705 0.21671 0.0
C720 C 0.3808 0.02367 0.133 0.0
C721 C 0.35849 0.97484 0.11862 0.0
C722 C 0.39935 0.02497 0.11136 0.0
C723 C 0.4112 0.04132 0.07828 0.0
C724 C 0.40479 0.05677 0.06676 0.0
C725 C 0.38589 0.05508 0.08789 0.0
C726 C 0.37404 0.0387 0.12078 0.0
H727 H 0.3452 0.95733 0.1181 0.0
H728 H 0.35515 0.98381 0.0906 0.0
H729 H 0.37419 0.9754 0.11028 0.0
H730 H 0.4051 0.01381 0.12124 0.0
H731 H 0.42569 0.04219 0.06276 0.0
H732 H 0.38397 0.29288 0.34135 0.0
H733 H 0.36859 0.29361 0.26379 0.0
H734 H 0.38927 0.36213 0.28462 0.0
H735 H 0.40474 0.36171 0.36093 0.0
H736 H 0.33658 0.30547 0.23722 0.0
H737 H 0.41737 0.36113 0.15862 0.0
H738 H 0.4144 0.34584 0.21188 0.0
H739 H 0.41484 0.37171 0.2144 0.0
C740 C 0.38514 0.30805 0.32934 0.0
C741 C 0.39584 0.32732 0.35695 0.0
C742 C 0.3764 0.30843 0.28513 0.0
C743 C 0.37834 0.32807 0.26823 0.0
C744 C 0.38818 0.34698 0.29659 0.0
H745 H 0.31453 0.37796 0.11661 0.0
H746 H 0.32296 0.35417 0.16411 0.0
C747 C 0.39696 0.34667 0.34031 0.0
C748 C 0.37017 0.32945 0.22119 0.0
H749 H 0.38656 0.3642 0.12789 0.0
C750 C 0.34747 0.31782 0.21238 0.0
C751 C 0.38446 0.34494 0.18806 0.0
C752 C 0.40915 0.35641 0.19349 0.0
C753 C 0.33851 0.32315 0.17373 0.0
C754 C 0.35265 0.341 0.14455 0.0
C755 C 0.37552 0.35081 0.1506 0.0
C756 C 0.34445 0.35192 0.11228 0.0
C757 C 0.314 0.31005 0.16564 0.0
C758 C 0.35394 0.35898 0.0676 0.0
C759 C 0.34992 0.37342 0.04152 0.0
C760 C 0.3359 0.38058 0.05913 0.0
C761 C 0.32532 0.37252 0.10235 0.0
C762 C 0.32988 0.35862 0.12913 0.0
H763 H 0.30754 0.2925 0.17469 0.0
H764 H 0.30578 0.31636 0.18918 0.0
H765 H 0.30954 0.31105 0.12851 0.0
H766 H 0.36525 0.3541 0.05381 0.0
H767 H 0.35803 0.37928 0.00789 0.0
H768 H 0.06824 0.36835 0.39768 0.0
H769 H 0.04283 0.34323 0.33746 0.0
H770 H 0.04505 0.39825 0.26518 0.0
H771 H 0.07014 0.4233 0.32495 0.0
H772 H 0.00102 0.34036 0.3203 0.0
H773 H 0.05085 0.36113 0.15803 0.0
H774 H 0.0629 0.36665 0.21645 0.0
H775 H 0.05527 0.38514 0.18991 0.0
C776 C 0.06364 0.3751 0.36839 0.0
C777 C 0.07104 0.39777 0.36614 0.0
C778 C 0.04917 0.36075 0.33411 0.0
C779 C 0.04235 0.36897 0.29667 0.0
C780 C 0.05046 0.39166 0.29336 0.0
H781 H 0.93781 0.35327 0.14753 0.0
H782 H 0.96503 0.35591 0.20472 0.0
C783 C 0.06463 0.40592 0.32779 0.0
C784 C 0.02467 0.35404 0.26414 0.0
H785 H 0.01175 0.34771 0.14713 0.0
C786 C 0.0034 0.34134 0.28243 0.0
C787 C 0.02786 0.35514 0.21487 0.0
C788 C 0.05051 0.36759 0.19364 0.0
C789 C 0.98501 0.33161 0.25249 0.0
C790 C 0.98809 0.33479 0.20336 0.0
C791 C 0.00946 0.3455 0.18493 0.0
C792 C 0.96975 0.33077 0.17167 0.0
C793 C 0.96235 0.31923 0.27367 0.0
C794 C 0.96342 0.31572 0.13422 0.0
C795 C 0.94769 0.31405 0.1015 0.0
C796 C 0.93854 0.32782 0.10533 0.0
C797 C 0.94465 0.34254 0.14351 0.0
C798 C 0.96006 0.34394 0.17641 0.0
H799 H 0.96276 0.31256 0.3089 0.0
H800 H 0.9558 0.3306 0.27814 0.0
H801 H 0.95089 0.30548 0.25035 0.0
H802 H 0.97096 0.30562 0.12982 0.0
H803 H 0.94335 0.30264 0.07227 0.0
H804 H 0.61165 0.90912 0.1225 0.0
H805 H 0.63432 0.93105 0.18977 0.0
H806 H 0.60304 0.97046 0.18499 0.0
H807 H 0.58055 0.94902 0.11867 0.0
H808 H 0.65396 0.99305 0.18942 0.0
H809 H 0.60602 0.93094 0.32711 0.0
H810 H 0.61413 0.92322 0.27325 0.0
H811 H 0.5931 0.93057 0.27175 0.0
C812 C 0.60969 0.92252 0.13575 0.0
C813 C 0.59422 0.92726 0.11532 0.0
C814 C 0.62261 0.93495 0.17407 0.0
C815 C 0.62024 0.95227 0.19201 0.0
C816 C 0.60506 0.95714 0.17139 0.0
H817 H 0.62116 0.03085 0.40034 0.0
H818 H 0.61669 0.00216 0.3454 0.0
C819 C 0.59216 0.94477 0.13357 0.0
C820 C 0.63294 0.96546 0.23296 0.0
H821 H 0.6274 0.96788 0.35174 0.0
C822 C 0.64884 0.98749 0.22522 0.0
C823 C 0.62597 0.95798 0.27925 0.0
C824 C 0.60889 0.93438 0.2888 0.0
C825 C 0.65653 0.00279 0.26231 0.0
C826 C 0.64817 0.99565 0.30816 0.0
C827 C 0.63373 0.97322 0.31647 0.0
C828 C 0.65113 0.01157 0.34553 0.0
C829 C 0.67191 0.02675 0.25142 0.0
C830 C 0.67194 0.02609 0.36438 0.0
C831 C 0.67461 0.04269 0.39559 0.0
C832 C 0.65646 0.04492 0.40857 0.0
C833 C 0.63551 0.02972 0.39097 0.0
C834 C 0.63289 0.01322 0.35975 0.0
H835 H 0.67484 0.02978 0.213 0.0
H836 H 0.66514 0.03696 0.26516 0.0
H837 H 0.688 0.03229 0.269 0.0
H838 H 0.68615 0.02487 0.35417 0.0
H839 H 0.69096 0.05398 0.40885 0.0
H840 H 0.62497 0.58383 0.1243 0.0
H841 H 0.62443 0.60459 0.19253 0.0
H842 H 0.6951 0.63686 0.20314 0.0
H843 H 0.69598 0.61611 0.13423 0.0
H844 H 0.66814 0.61776 0.29195 0.0
H845 H 0.64869 0.67346 0.19137 0.0
H846 H 0.63259 0.64516 0.1735 0.0
H847 H 0.66189 0.65956 0.16513 0.0
C848 C 0.64046 0.59526 0.14101 0.0
C849 C 0.66054 0.59839 0.12359 0.0
C850 C 0.6401 0.60718 0.17986 0.0
C851 C 0.65975 0.62241 0.20211 0.0
C852 C 0.67983 0.62527 0.1859 0.0
H853 H 0.62451 0.69132 0.40941 0.0
H854 H 0.64952 0.6874 0.35573 0.0
C855 C 0.68025 0.61341 0.14664 0.0
C856 C 0.6587 0.6349 0.2427 0.0
H857 H 0.63689 0.66694 0.27243 0.0
C858 C 0.66192 0.62905 0.28796 0.0
C859 C 0.65108 0.64993 0.23715 0.0
C860 C 0.64856 0.6576 0.18913 0.0
C861 C 0.65553 0.63619 0.32794 0.0
C862 C 0.64541 0.6491 0.32196 0.0
C863 C 0.6444 0.65679 0.27696 0.0
C864 C 0.63269 0.65191 0.35995 0.0
C865 C 0.65869 0.62898 0.37593 0.0
C866 C 0.61497 0.63323 0.38002 0.0
C867 C 0.60062 0.63535 0.41048 0.0
C868 C 0.60357 0.65622 0.42106 0.0
C869 C 0.62168 0.67498 0.40182 0.0
C870 C 0.63609 0.67281 0.37138 0.0
H871 H 0.67347 0.62707 0.37656 0.0
H872 H 0.66042 0.64089 0.4038 0.0
H873 H 0.64423 0.61273 0.38422 0.0
H874 H 0.61164 0.61689 0.37052 0.0
H875 H 0.58685 0.62056 0.42458 0.0
H876 H 0.93827 0.55574 0.37638 0.0
H877 H 0.96491 0.5748 0.314 0.0
H878 H 0.95248 0.62893 0.32267 0.0
H879 H 0.92565 0.61001 0.38539 0.0
H880 H 0.95624 0.59281 0.22348 0.0
H881 H 0.02187 0.6542 0.34237 0.0
H882 H 0.00021 0.62821 0.36427 0.0
H883 H 0.99416 0.64923 0.34768 0.0
C884 C 0.9411 0.57166 0.36505 0.0
C885 C 0.92993 0.58141 0.38603 0.0
C886 C 0.95629 0.58248 0.32939 0.0
C887 C 0.96067 0.60325 0.31435 0.0
C888 C 0.94933 0.61294 0.33434 0.0
H889 H 0.06401 0.68157 0.1099 0.0
H890 H 0.03558 0.67145 0.16992 0.0
C891 C 0.93399 0.60206 0.36993 0.0
C892 C 0.97736 0.61465 0.27788 0.0
H893 H 0.03137 0.65323 0.26329 0.0
C894 C 0.97258 0.60624 0.23188 0.0
C895 C -0.00149 0.63221 0.28928 0.0
C896 C 0.0042 0.64158 0.33856 0.0
C897 C 0.98879 0.61445 0.19707 0.0
C898 C 0.01033 0.63111 0.20913 0.0
C899 C 0.01482 0.64033 0.25451 0.0
C900 C 0.02865 0.6379 0.17594 0.0
C901 C 0.98286 0.60493 0.14791 0.0
C902 C 0.03461 0.62255 0.16113 0.0
C903 C 0.05076 0.6282 0.12704 0.0
C904 C 0.06133 0.64937 0.10734 0.0
C905 C 0.05612 0.66509 0.12419 0.0
C906 C 0.03988 0.65937 0.15835 0.0
H907 H 0.9649 0.5972 0.1411 0.0
H908 H 0.9918 0.61778 0.12095 0.0
H909 H 0.9875 0.59206 0.14378 0.0
H910 H 0.0264 0.60603 0.17525 0.0
H911 H 0.05454 0.61577 0.11533 0.0
H912 H 0.6278 0.06306 0.63823 0.0
H913 H 0.62204 0.04046 0.70771 0.0
H914 H 0.68408 0.04337 0.68391 0.0
H915 H 0.69012 0.06618 0.61411 0.0
H916 H 0.64539 -0.00019 0.69071 0.0
H917 H 0.65243 0.05412 0.83982 0.0
H918 H 0.63612 0.05469 0.79152 0.0
H919 H 0.66494 0.06458 0.78309 0.0
C920 C 0.6404 0.05919 0.6481 0.0
C921 C 0.65935 0.06628 0.62056 0.0
C922 C 0.63716 0.04644 0.68801 0.0
C923 C 0.65276 0.04051 0.701 0.0
C924 C 0.672 0.04802 0.6745 0.0
H925 H 0.61679 0.93162 0.90037 0.0
H926 H 0.63918 0.96128 0.84544 0.0
C927 C 0.67539 0.06103 0.63475 0.0
C928 C 0.6475 0.02445 0.73909 0.0
H929 H 0.6314 0.01517 0.85385 0.0
C930 C 0.6428 0.00319 0.72674 0.0
C931 C 0.64421 0.02909 0.7858 0.0
C932 C 0.64988 0.05192 0.80107 0.0
C933 C 0.63321 0.98591 0.75919 0.0
C934 C 0.6287 0.99029 0.80524 0.0
C935 C 0.63477 0.01189 0.81836 0.0
C936 C 0.61562 0.97244 0.83872 0.0
C937 C 0.62664 0.96292 0.74303 0.0
C938 C 0.59516 0.96916 0.85345 0.0
C939 C 0.58244 0.95243 0.88498 0.0
C940 C 0.58995 0.9386 0.90233 0.0
C941 C 0.61045 0.94186 0.88729 0.0
C942 C 0.62326 0.95876 0.85591 0.0
H943 H 0.6277 0.96182 0.70414 0.0
H944 H 0.63777 0.95785 0.75942 0.0
H945 H 0.60957 0.95108 0.75413 0.0
H946 H 0.58898 0.97954 0.84037 0.0
H947 H 0.56673 0.95036 0.89572 0.0
H948 H 0.62035 0.58896 0.90256 0.0
H949 H 0.61636 0.61401 0.85019 0.0
H950 H 0.68622 0.65934 0.85766 0.0
H951 H 0.69056 0.63403 0.91019 0.0
H952 H 0.62813 0.65872 0.8661 0.0
H953 H 0.67276 0.64811 0.71485 0.0
H954 H 0.66352 0.62937 0.76399 0.0
H955 H 0.68646 0.65667 0.77109 0.0
C956 C 0.63495 0.60423 0.89329 0.0
C957 C 0.65581 0.60942 0.91049 0.0
C958 C 0.6326 0.61859 0.86346 0.0
C959 C 0.65099 0.63847 0.8501 0.0
C960 C 0.67187 0.64395 0.86736 0.0
H961 H 0.62108 0.69897 0.61125 0.0
H962 H 0.64274 0.69998 0.68027 0.0
C963 C 0.67429 0.62947 0.89729 0.0
C964 C 0.64773 0.65263 0.81661 0.0
H965 H 0.65044 0.6633 0.69894 0.0
C966 C 0.63352 0.66035 0.82979 0.0
C967 C 0.65498 0.65488 0.76945 0.0
C968 C 0.67022 0.64681 0.75361 0.0
C969 C 0.62471 0.66834 0.79607 0.0
C970 C 0.63024 0.6685 0.74826 0.0
C971 C 0.64622 0.66301 0.73578 0.0
C972 C 0.61669 0.66997 0.71028 0.0
C973 C 0.60841 0.67515 0.81128 0.0
C974 C 0.59495 0.65278 0.7047 0.0
C975 C 0.58272 0.65194 0.66524 0.0
C976 C 0.59198 0.66839 0.63079 0.0
C977 C 0.61349 0.68612 0.6374 0.0
C978 C 0.62587 0.68676 0.67669 0.0
H979 H 0.61101 0.68058 0.84873 0.0
H980 H 0.60961 0.68865 0.78886 0.0
H981 H 0.5915 0.66087 0.80779 0.0
H982 H 0.58776 0.63947 0.72995 0.0
H983 H 0.56616 0.63815 0.66121 0.0
H984 H 0.95094 0.57635 0.60281 0.0
H985 H 0.97592 0.59927 0.66494 0.0
H986 H 0.94255 0.63667 0.67237 0.0
H987 H 0.91715 0.61364 0.60987 0.0
H988 H 0.00389 0.64754 0.66711 0.0
H989 H 0.94096 0.61248 0.80934 0.0
H990 H 0.93703 0.59841 0.75371 0.0
H991 H 0.93498 0.62282 0.75663 0.0
C992 C 0.94884 0.58944 0.61742 0.0
C993 C 0.93193 0.59305 0.60151 0.0
C994 C 0.96322 0.60259 0.65279 0.0
C995 C 0.96096 0.61954 0.67316 0.0
C996 C 0.9444 0.62354 0.65709 0.0
H997 H 0.06533 0.69201 0.88558 0.0
H998 H 0.03807 0.6873 0.82565 0.0
C999 C 0.92997 0.61039 0.62139 0.0
C1000 C 0.97569 0.63219 0.71248 0.0
H1001 H 0.97792 0.63329 0.83256 0.0
C1002 C -0.00174 0.64501 0.70333 0.0
C1003 C 0.96811 0.62866 0.75945 0.0
C1004 C 0.94397 0.61481 0.7708 0.0
C1005 C 0.01367 0.65312 0.74021 0.0
C1006 C 0.00616 0.64837 0.78721 0.0
C1007 C 0.98351 0.6369 0.79637 0.0
C1008 C 0.02142 0.65176 0.82636 0.0
C1009 C 0.03788 0.66516 0.72864 0.0
C1010 C 0.02066 0.63332 0.84715 0.0
C1011 C 0.03609 0.63589 0.88119 0.0
C1012 C 0.05261 0.657 0.89524 0.0
C1013 C 0.0529 0.67551 0.87539 0.0
C1014 C 0.03739 0.67289 0.84114 0.0
H1015 H 0.0409 0.66559 0.69013 0.0
H1016 H 0.04554 0.68235 0.74175 0.0
H1017 H 0.04622 0.65723 0.74644 0.0
H1018 H 0.00844 0.61687 0.83603 0.0
H1019 H 0.03525 0.62126 0.89588 0.0
H1020 H 0.36769 0.96411 0.59908 0.0
H1021 H 0.37176 0.99325 0.65167 0.0
H1022 H 0.30272 0.97156 0.63697 0.0
H1023 H 0.29828 0.94192 0.5837 0.0
H1024 H 0.35892 0.02728 0.62839 0.0
H1025 H 0.31715 0.97456 0.78424 0.0
H1026 H 0.3282 0.96494 0.73861 0.0
H1027 H 0.30443 0.96739 0.72668 0.0
C1028 C 0.35327 0.9654 0.60679 0.0
C1029 C 0.33264 0.95063 0.58703 0.0
C1030 C 0.35568 0.98214 0.63681 0.0
C1031 C 0.33756 0.98452 0.64793 0.0
C1032 C 0.31686 0.96987 0.62871 0.0
H1033 H 0.37337 0.07786 0.88378 0.0
H1034 H 0.34926 0.05565 0.81872 0.0
C1035 C 0.31439 0.95298 0.59841 0.0
C1036 C 0.34101 0.00239 0.68041 0.0
H1037 H 0.34146 0.01218 0.79821 0.0
C1038 C 0.35451 0.02411 0.66532 0.0
C1039 C 0.33502 -0.00186 0.72833 0.0
C1040 C 0.32039 0.97503 0.74583 0.0
C1041 C 0.36396 0.0415 0.69779 0.0
C1042 C 0.35996 0.0369 0.74633 0.0
C1043 C 0.34456 0.01557 0.76088 0.0
C1044 C 0.37465 0.05263 0.78237 0.0
C1045 C 0.37935 0.06442 0.68024 0.0
C1046 C 0.39682 0.0582 0.78321 0.0
C1047 C 0.41048 0.07054 0.82033 0.0
C1048 C 0.40225 0.07762 0.85732 0.0
C1049 C 0.3802 0.07271 0.85561 0.0
C1050 C 0.36641 0.06006 0.81858 0.0
H1051 H 0.37499 0.06663 0.64377 0.0
H1052 H 0.37908 0.07701 0.70356 0.0
H1053 H 0.39637 0.06722 0.67967 0.0
H1054 H 0.40336 0.05223 0.75602 0.0
H1055 H 0.4274 0.07414 0.82052 0.0
H1056 H 0.2916 0.36818 0.86993 0.0
H1057 H 0.29101 0.34741 0.79984 0.0
H1058 H 0.35451 0.40078 0.75928 0.0
H1059 H 0.35539 0.42164 0.82897 0.0
H1060 H 0.31725 0.37688 0.68309 0.0
H1061 H 0.33828 0.32492 0.79596 0.0
H1062 H 0.3163 0.32986 0.81218 0.0
H1063 H 0.34427 0.35179 0.81591 0.0
C1064 C 0.30528 0.37566 0.84568 0.0
C1065 C 0.32368 0.39647 0.85526 0.0
C1066 C 0.30488 0.36375 0.80577 0.0
C1067 C 0.32274 0.37261 0.77484 0.0
C1068 C 0.34056 0.39377 0.78294 0.0
H1069 H 0.39999 0.37159 0.56711 0.0
H1070 H 0.37452 0.37551 0.61817 0.0
C1071 C 0.34108 0.40559 0.82288 0.0
C1072 C 0.32426 0.35941 0.73628 0.0
H1073 H 0.34508 0.32564 0.71493 0.0
C1074 C 0.32272 0.36516 0.68977 0.0
C1075 C 0.33104 0.34392 0.74535 0.0
C1076 C 0.33263 0.33713 0.79497 0.0
C1077 C 0.32958 0.35714 0.65212 0.0
C1078 C 0.33875 0.34362 0.6617 0.0
C1079 C 0.3382 0.33615 0.70776 0.0
C1080 C 0.35255 0.34053 0.62684 0.0
C1081 C 0.32802 0.36414 0.60272 0.0
C1082 C 0.34902 0.31951 0.61579 0.0
C1083 C 0.36383 0.31717 0.58685 0.0
C1084 C 0.3825 0.33585 0.569 0.0
C1085 C 0.38581 0.35682 0.58005 0.0
C1086 C 0.37106 0.35911 0.6088 0.0
H1087 H 0.31355 0.36645 0.59897 0.0
H1088 H 0.34293 0.38016 0.59517 0.0
H1089 H 0.32675 0.35191 0.57615 0.0
H1090 H 0.335 0.30499 0.63008 0.0
H1091 H 0.36079 0.30078 0.57902 0.0
H1092 H 0.93003 0.31513 0.86342 0.0
H1093 H 0.95508 0.327 0.79631 0.0
H1094 H 0.98227 0.39463 0.83957 0.0
H1095 H 0.9575 0.38305 0.90696 0.0
H1096 H 0.95832 0.35663 0.72336 0.0
H1097 H 0.0364 0.3864 0.8233 0.0
H1098 H 0.00977 0.36833 0.84867 0.0
H1099 H 0.01942 0.39723 0.84331 0.0
C1100 C 0.94143 0.33253 0.85893 0.0
C1101 C 0.94181 0.34813 0.89072 0.0
C1102 C 0.95566 0.33925 0.82051 0.0
C1103 C 0.97059 0.36162 0.81349 0.0
C1104 C 0.97105 0.37725 0.84497 0.0
H1105 H 0.04354 0.43069 0.56658 0.0
H1106 H 0.01717 0.41504 0.63104 0.0
C1107 C 0.95681 0.37058 0.88333 0.0
C1108 C 0.98537 0.36873 0.77252 0.0
H1109 H 0.03949 0.39524 0.74188 0.0
C1110 C 0.97607 0.36497 0.72724 0.0
C1111 C 0.00845 0.37937 0.77802 0.0
C1112 C 0.01916 0.38293 0.8259 0.0
C1113 C 0.98937 0.37207 0.68706 0.0
C1114 C 0.01247 0.38337 0.69266 0.0
C1115 C 0.02174 0.38669 0.7379 0.0
C1116 C 0.02744 0.39194 0.65206 0.0
C1117 C 0.97865 0.36728 0.63901 0.0
C1118 C 0.042 0.38422 0.64305 0.0
C1119 C 0.05715 0.39316 0.60651 0.0
C1120 C 0.05807 0.4101 0.57848 0.0
C1121 C 0.04322 0.41762 0.58733 0.0
C1122 C 0.02807 0.40863 0.62397 0.0
H1123 H 0.96115 0.35399 0.64031 0.0
H1124 H 0.97918 0.38234 0.62539 0.0
H1125 H 0.98754 0.36243 0.61374 0.0
H1126 H 0.04177 0.37138 0.6646 0.0
H1127 H 0.06831 0.38695 0.60072 0.0
H1128 H 0.50218 0.08506 0.05036 0.0
H1129 H 0.52499 0.08142 0.11112 0.0
H1130 H 0.54655 0.14744 0.15911 0.0
H1131 H 0.52394 0.15138 0.09861 0.0
H1132 H 0.5738 0.11194 0.12823 0.0
H1133 H 0.51904 0.10477 0.27681 0.0
H1134 H 0.50956 0.09904 0.21638 0.0
H1135 H 0.52604 0.12695 0.23624 0.0
C1136 C 0.51181 0.09885 0.07372 0.0
C1137 C 0.51116 0.1185 0.06968 0.0
C1138 C 0.52484 0.09673 0.10829 0.0
C1139 C 0.53721 0.1141 0.13962 0.0
C1140 C 0.53691 0.13382 0.13535 0.0
H1141 H 0.64082 0.14313 0.33801 0.0
H1142 H 0.61808 0.14195 0.27146 0.0
C1143 C 0.52404 0.13603 0.10064 0.0
C1144 C 0.55031 0.11161 0.17731 0.0
H1145 H 0.5535 0.10842 0.29675 0.0
C1146 C 0.56936 0.11104 0.16508 0.0
C1147 C 0.54424 0.11023 0.22514 0.0
C1148 C 0.52352 0.1101 0.23969 0.0
C1149 C 0.58291 0.10974 0.19986 0.0
C1150 C 0.57722 0.10909 0.24781 0.0
C1151 C 0.55783 0.10903 0.25988 0.0
C1152 C 0.59147 0.10914 0.28622 0.0
C1153 C 0.60321 0.10908 0.18521 0.0
C1154 C 0.5839 0.09111 0.31661 0.0
C1155 C 0.59683 0.09169 0.35471 0.0
C1156 C 0.61745 0.11047 0.3634 0.0
C1157 C 0.62502 0.12843 0.33247 0.0
C1158 C 0.61213 0.12775 0.29422 0.0
H1159 H 0.60261 0.10469 0.14736 0.0
H1160 H 0.61789 0.12554 0.19094 0.0
H1161 H 0.60527 0.09704 0.20677 0.0
H1162 H 0.5679 0.07666 0.31105 0.0
H1163 H 0.59046 0.0776 0.37786 0.0
H1164 H 0.40613 0.47283 0.09488 0.0
H1165 H 0.43108 0.49355 0.16014 0.0
H1166 H 0.39486 0.52733 0.18381 0.0
H1167 H 0.36988 0.50678 0.11969 0.0
H1168 H 0.45788 0.53949 0.17103 0.0
H1169 H 0.39695 0.50455 0.31483 0.0
H1170 H 0.3921 0.49192 0.25721 0.0
H1171 H 0.3877 0.51474 0.26728 0.0
C1172 C 0.4034 0.48458 0.11417 0.0
C1173 C 0.38588 0.488 0.10205 0.0
C1174 C 0.41769 0.4964 0.1514 0.0
C1175 C 0.41456 0.51167 0.17734 0.0
C1176 C 0.39727 0.51526 0.165 0.0
H1177 H 0.47343 0.6141 0.37986 0.0
H1178 H 0.45226 0.58698 0.31902 0.0
C1179 C 0.38306 0.50353 0.12799 0.0
C1180 C 0.42963 0.52456 0.21646 0.0
H1181 H 0.42977 0.53889 0.33163 0.0
C1182 C 0.45188 0.5391 0.2064 0.0
C1183 C 0.42175 0.52394 0.26261 0.0
C1184 C 0.39836 0.50778 0.27631 0.0
C1185 C 0.46615 0.55393 0.24066 0.0
C1186 C 0.45793 0.55403 0.28604 0.0
C1187 C 0.43595 0.53887 0.29663 0.0
C1188 C 0.47142 0.57065 0.32218 0.0
C1189 C 0.48962 0.57008 0.22759 0.0
C1190 C 0.4892 0.5704 0.3442 0.0
C1191 C 0.50137 0.58588 0.37927 0.0
C1192 C 0.49595 0.6019 0.39287 0.0
C1193 C 0.47816 0.60209 0.37035 0.0
C1194 C 0.46598 0.58657 0.33557 0.0
H1195 H 0.4926 0.56983 0.18921 0.0
H1196 H 0.49387 0.58702 0.23802 0.0
H1197 H 0.50084 0.56596 0.24693 0.0
H1198 H 0.4935 0.55808 0.33466 0.0
H1199 H 0.51495 0.58522 0.39581 0.0
H1200 H 0.89889 0.48694 0.40494 0.0
H1201 H 0.89469 0.45816 0.35043 0.0
H1202 H 0.82415 0.42881 0.35584 0.0
H1203 H 0.82809 0.45771 0.41003 0.0
H1204 H 0.87145 0.41181 0.36393 0.0
H1205 H 0.83821 0.43754 0.2139 0.0
H1206 H 0.85162 0.4552 0.26398 0.0
H1207 H 0.82396 0.43268 0.26901 0.0
C1208 C 0.88245 0.47443 0.39456 0.0
C1209 C 0.86383 0.47473 0.41172 0.0
C1210 C 0.8801 0.45796 0.3635 0.0
C1211 C 0.85914 0.44153 0.34891 0.0
C1212 C 0.84048 0.44157 0.36624 0.0
H1213 H 0.832 0.34362 0.12816 0.0
H1214 H 0.82628 0.36163 0.19624 0.0
C1215 C 0.84279 0.45807 0.39728 0.0
C1216 C 0.85703 0.42454 0.31519 0.0
H1217 H 0.84307 0.40716 0.20144 0.0
C1218 C 0.86507 0.41062 0.32852 0.0
C1219 C 0.84854 0.423 0.26922 0.0
C1220 C 0.84021 0.43796 0.25282 0.0
C1221 C 0.86539 0.39554 0.29653 0.0
C1222 C 0.85777 0.39466 0.24999 0.0
C1223 C 0.84886 0.4079 0.23727 0.0
C1224 C 0.8609 0.38184 0.2126 0.0
C1225 C 0.87416 0.38091 0.31259 0.0
C1226 C 0.88226 0.38721 0.1996 0.0
C1227 C 0.88562 0.37707 0.16076 0.0
C1228 C 0.86765 0.36143 0.13399 0.0
C1229 C 0.8462 0.35557 0.14803 0.0
C1230 C 0.84287 0.36583 0.18687 0.0
H1231 H 0.87279 0.37859 0.35142 0.0
H1232 H 0.86526 0.36454 0.29516 0.0
H1233 H 0.89182 0.38868 0.30327 0.0
H1234 H 0.89641 0.39986 0.21846 0.0
H1235 H 0.90235 0.38194 0.15106 0.0
H1236 H 0.35653 0.8391 0.40509 0.0
H1237 H 0.37989 0.83368 0.34902 0.0
H1238 H 0.42623 0.90333 0.35124 0.0
H1239 H 0.40331 0.90895 0.40739 0.0
H1240 H 0.39278 0.85242 0.25948 0.0
H1241 H 0.46538 0.87644 0.37415 0.0
H1242 H 0.43881 0.86975 0.39727 0.0
H1243 H 0.45676 0.89656 0.37321 0.0
C1244 C 0.37178 0.85326 0.39396 0.0
C1245 C 0.37806 0.87446 0.41098 0.0
C1246 C 0.38508 0.85011 0.36193 0.0
C1247 C 0.40495 0.86805 0.34672 0.0
C1248 C 0.41121 0.88919 0.36343 0.0
H1249 H 0.50415 0.90392 0.14045 0.0
H1250 H 0.48017 0.90039 0.20588 0.0
C1251 C 0.39796 0.89237 0.39533 0.0
C1252 C 0.4187 0.86503 0.31143 0.0
H1253 H 0.47105 0.87583 0.29095 0.0
C1254 C 0.40979 0.85717 0.26648 0.0
C1255 C 0.44086 0.87124 0.32083 0.0
C1256 C 0.45098 0.87877 0.36913 0.0
C1257 C 0.42281 0.85643 0.22987 0.0
C1258 C 0.44519 0.86342 0.23884 0.0
C1259 C 0.45388 0.87054 0.28424 0.0
C1260 C 0.46023 0.86499 0.20075 0.0
C1261 C 0.41282 0.8492 0.18136 0.0
C1262 C 0.4572 0.84616 0.17684 0.0
C1263 C 0.47088 0.84808 0.13923 0.0
C1264 C 0.48785 0.8689 0.12501 0.0
C1265 C 0.49119 0.88764 0.15014 0.0
C1266 C 0.47753 0.88568 0.18767 0.0
H1267 H 0.39659 0.84827 0.17839 0.0
H1268 H 0.42394 0.86066 0.15412 0.0
H1269 H 0.41042 0.83264 0.17367 0.0
H1270 H 0.44413 0.83001 0.18699 0.0
H1271 H 0.46791 0.83329 0.12088 0.0
H1272 H 0.62965 0.47505 0.09577 0.0
H1273 H 0.60686 0.44726 0.15386 0.0
H1274 H 0.5651 0.47581 0.16435 0.0
H1275 H 0.58756 0.50355 0.10642 0.0
H1276 H 0.59664 0.45503 0.24871 0.0
H1277 H 0.52257 0.40945 0.1356 0.0
H1278 H 0.54955 0.42773 0.11193 0.0
H1279 H 0.53348 0.43868 0.13677 0.0
C1280 C 0.61559 0.4754 0.11033 0.0
C1281 C 0.61037 0.49147 0.09623 0.0
C1282 C 0.60263 0.45953 0.14347 0.0
C1283 C 0.58418 0.45937 0.16259 0.0
C1284 C 0.57909 0.4755 0.14919 0.0
H1285 H 0.48486 0.39916 0.3665 0.0
H1286 H 0.51025 0.41966 0.3033 0.0
C1287 C 0.59204 0.49141 0.11629 0.0
C1288 C 0.57039 0.44272 0.19758 0.0
H1289 H 0.51755 0.40265 0.21841 0.0
C1290 C 0.57943 0.44329 0.24204 0.0
C1291 C 0.54803 0.42747 0.18835 0.0
C1292 C 0.53783 0.42559 0.14043 0.0
C1293 C 0.56627 0.42977 0.27863 0.0
C1294 C 0.54367 0.41518 0.26994 0.0
C1295 C 0.53489 0.41395 0.22484 0.0
C1296 C 0.52844 0.40236 0.30804 0.0
C1297 C 0.57633 0.43198 0.32685 0.0
C1298 C 0.53024 0.38573 0.33126 0.0
C1299 C 0.51576 0.37396 0.36764 0.0
C1300 C 0.49922 0.37861 0.38111 0.0
C1301 C 0.4974 0.39516 0.35721 0.0
C1302 C 0.51187 0.40688 0.321 0.0
H1303 H 0.59305 0.44665 0.32958 0.0
H1304 H 0.56577 0.43314 0.35444 0.0
H1305 H 0.57765 0.41717 0.33421 0.0
H1306 H 0.54276 0.38183 0.32113 0.0
H1307 H 0.51753 0.36124 0.3851 0.0
H1308 H 0.17268 0.52508 0.36185 0.0
H1309 H 0.17887 0.55004 0.296 0.0
H1310 H 0.10981 0.51344 0.26107 0.0
H1311 H 0.10345 0.48837 0.32607 0.0
H1312 H 0.13878 0.52571 0.18181 0.0
H1313 H 0.15832 0.59608 0.30223 0.0
H1314 H 0.17418 0.58257 0.30921 0.0
H1315 H 0.1454 0.56808 0.3229 0.0
C1316 C 0.15884 0.52219 0.33983 0.0
C1317 C 0.13751 0.50484 0.34962 0.0
C1318 C 0.16241 0.53654 0.30241 0.0
C1319 C 0.14473 0.53375 0.27422 0.0
C1320 C 0.12365 0.51592 0.28259 0.0
H1321 H 0.10025 0.58938 0.07026 0.0
H1322 H 0.10776 0.56707 0.12436 0.0
C1323 C 0.12005 0.50164 0.31991 0.0
C1324 C 0.14766 0.54977 0.23715 0.0
H1325 H 0.15559 0.60143 0.22148 0.0
C1326 C 0.14277 0.54237 0.19032 0.0
C1327 C 0.15295 0.57152 0.24842 0.0
C1328 C 0.1579 0.58012 0.29839 0.0
C1329 C 0.14227 0.55591 0.15466 0.0
C1330 C 0.14637 0.57723 0.16639 0.0
C1331 C 0.1524 0.58505 0.21271 0.0
C1332 C 0.14239 0.59079 0.13227 0.0
C1333 C 0.13692 0.54713 0.10489 0.0
C1334 C 0.15929 0.61182 0.11966 0.0
C1335 C 0.15505 0.62477 0.08873 0.0
C1336 C 0.13374 0.61698 0.07033 0.0
C1337 C 0.11687 0.59594 0.08349 0.0
C1338 C 0.12115 0.58304 0.11418 0.0
H1339 H 0.14107 0.53397 0.09898 0.0
H1340 H 0.11902 0.53993 0.09848 0.0
H1341 H 0.14591 0.56041 0.0788 0.0
H1342 H 0.17575 0.61817 0.13372 0.0
H1343 H 0.16841 0.64092 0.07952 0.0
H1344 H 0.46296 0.84293 0.89891 0.0
H1345 H 0.43798 0.84454 0.84096 0.0
H1346 H 0.4717 0.91518 0.85438 0.0
H1347 H 0.49689 0.91389 0.91203 0.0
H1348 H 0.41007 0.86392 0.85148 0.0
H1349 H 0.47312 0.90296 0.7113 0.0
H1350 H 0.4769 0.88953 0.76171 0.0
H1351 H 0.48046 0.91659 0.76764 0.0
C1352 C 0.4651 0.85883 0.88959 0.0
C1353 C 0.48203 0.8783 0.90992 0.0
C1354 C 0.45078 0.85969 0.8566 0.0
C1355 C 0.45324 0.87998 0.84326 0.0
C1356 C 0.46981 0.89939 0.86392 0.0
H1357 H 0.39066 0.91945 0.63363 0.0
H1358 H 0.41195 0.91821 0.70047 0.0
C1359 C 0.48413 0.89859 0.89693 0.0
C1360 C 0.43858 0.88088 0.80725 0.0
H1361 H 0.43821 0.89899 0.69616 0.0
C1362 C 0.41614 0.87154 0.81745 0.0
C1363 C 0.4467 0.89085 0.76309 0.0
C1364 C 0.47058 0.90041 0.74993 0.0
C1365 C 0.40153 0.8722 0.78458 0.0
C1366 C 0.40966 0.88215 0.74037 0.0
C1367 C 0.43212 0.89149 0.73028 0.0
C1368 C 0.39518 0.88269 0.70334 0.0
C1369 C 0.37766 0.8626 0.79766 0.0
C1370 C 0.37861 0.86308 0.68323 0.0
C1371 C 0.36637 0.86369 0.64504 0.0
C1372 C 0.37069 0.88395 0.62607 0.0
C1373 C 0.38697 0.90356 0.64717 0.0
C1374 C 0.39914 0.90291 0.68541 0.0
H1375 H 0.37529 0.86097 0.83646 0.0
H1376 H 0.37098 0.8729 0.78404 0.0
H1377 H 0.36798 0.84596 0.78179 0.0
H1378 H 0.37563 0.84731 0.69606 0.0
H1379 H 0.35399 0.84828 0.62959 0.0
H1380 H 0.58702 0.51904 0.88361 0.0
H1381 H 0.56089 0.49584 0.82261 0.0
H1382 H 0.59456 0.45888 0.81052 0.0
H1383 H 0.62073 0.48182 0.87137 0.0
H1384 H 0.57005 0.48695 0.72649 0.0
H1385 H 0.52886 0.41255 0.83888 0.0
H1386 H 0.54557 0.43989 0.86293 0.0
H1387 H 0.55836 0.42565 0.83747 0.0
C1388 C 0.58894 0.50603 0.86792 0.0
C1389 C 0.6059 0.50221 0.8827 0.0
C1390 C 0.574 0.49283 0.83307 0.0
C1391 C 0.57567 0.47552 0.81277 0.0
C1392 C 0.59285 0.47199 0.82644 0.0
H1393 H 0.51176 0.37314 0.60962 0.0
H1394 H 0.534 0.39899 0.67135 0.0
C1395 C 0.60785 0.48521 0.86107 0.0
C1396 C 0.55941 0.46095 0.77736 0.0
H1397 H 0.52036 0.40749 0.75706 0.0
C1398 C 0.55898 0.46962 0.73315 0.0
C1399 C 0.54502 0.43842 0.78652 0.0
C1400 C 0.54425 0.42854 0.83414 0.0
C1401 C 0.54514 0.45604 0.69694 0.0
C1402 C 0.53116 0.43337 0.70574 0.0
C1403 C 0.53116 0.42488 0.75045 0.0
C1404 C 0.51734 0.41785 0.66832 0.0
C1405 C 0.54626 0.46588 0.64909 0.0
C1406 C 0.50042 0.41977 0.64654 0.0
C1407 C 0.48765 0.40502 0.61095 0.0
C1408 C 0.49152 0.38802 0.59684 0.0
C1409 C 0.50831 0.38602 0.61942 0.0
C1410 C 0.52105 0.40078 0.65479 0.0
H1411 H 0.56109 0.48241 0.64543 0.0
H1412 H 0.54638 0.45503 0.62068 0.0
H1413 H 0.53153 0.46762 0.64392 0.0
H1414 H 0.49704 0.4326 0.65719 0.0
H1415 H 0.47477 0.40696 0.59457 0.0
H1416 H 0.15898 0.53127 0.57528 0.0
H1417 H 0.15806 0.55641 0.63375 0.0
H1418 H 0.08787 0.5263 0.61533 0.0
H1419 H 0.08846 0.50096 0.55704 0.0
H1420 H 0.14046 0.58652 0.62579 0.0
H1421 H 0.09803 0.52034 0.75858 0.0
H1422 H 0.11183 0.51729 0.70797 0.0
H1423 H 0.0853 0.51495 0.7013 0.0
C1424 C 0.14333 0.53002 0.58341 0.0
C1425 C 0.12375 0.51394 0.56174 0.0
C1426 C 0.14288 0.54445 0.61671 0.0
C1427 C 0.12288 0.54295 0.62902 0.0
C1428 C 0.10342 0.52745 0.60653 0.0
H1429 H 0.08515 0.60312 0.84762 0.0
H1430 H 0.08611 0.58272 0.77884 0.0
C1431 C 0.10383 0.51304 0.57318 0.0
C1432 C 0.12224 0.55708 0.66672 0.0
H1433 H 0.10381 0.55548 0.77843 0.0
C1434 C 0.13248 0.57982 0.65922 0.0
C1435 C 0.11182 0.54814 0.71012 0.0
C1436 C 0.10124 0.52387 0.72037 0.0
C1437 C 0.13226 0.59393 0.69404 0.0
C1438 C 0.1219 0.58498 0.73754 0.0
C1439 C 0.11167 0.56223 0.74491 0.0
C1440 C 0.12162 0.59884 0.77643 0.0
C1441 C 0.14275 0.61817 0.68371 0.0
C1442 C 0.14132 0.61472 0.79763 0.0
C1443 C 0.14086 0.62649 0.83695 0.0
C1444 C 0.12067 0.62235 0.856 0.0
C1445 C 0.10099 0.60665 0.83406 0.0
C1446 C 0.10148 0.595 0.79469 0.0
H1447 H 0.1446 0.62144 0.64521 0.0
H1448 H 0.13292 0.62511 0.69875 0.0
H1449 H 0.15939 0.62693 0.69996 0.0
H1450 H 0.15702 0.61758 0.78461 0.0
H1451 H 0.15632 0.6384 0.85308 0.0
H1452 H 0.59256 0.097 0.58198 0.0
H1453 H 0.57133 0.10577 0.63665 0.0
H1454 H 0.62158 0.17419 0.63442 0.0
H1455 H 0.64317 0.16562 0.57933 0.0
H1456 H 0.60634 0.155 0.72717 0.0
H1457 H 0.53776 0.13913 0.60636 0.0
H1458 H 0.54443 0.11755 0.60638 0.0
H1459 H 0.56428 0.14444 0.58558 0.0
C1460 C 0.59917 0.11396 0.59287 0.0
C1461 C 0.61958 0.13062 0.57607 0.0
C1462 C 0.58691 0.11894 0.62391 0.0
C1463 C 0.59474 0.14065 0.63886 0.0
C1464 C 0.61519 0.15735 0.62281 0.0
H1465 H 0.53023 0.17262 0.86865 0.0
H1466 H 0.5555 0.17872 0.80349 0.0
C1467 C 0.62747 0.15241 0.59138 0.0
C1468 C 0.58173 0.14542 0.67286 0.0
H1469 H 0.53048 0.13835 0.68922 0.0
C1470 C 0.58993 0.15186 0.71881 0.0
C1471 C 0.56041 0.14138 0.66156 0.0
C1472 C 0.55124 0.13544 0.61215 0.0
C1473 C 0.5767 0.15281 0.75472 0.0
C1474 C 0.55489 0.1475 0.74396 0.0
C1475 C 0.54719 0.14233 0.69736 0.0
C1476 C 0.53901 0.14463 0.78133 0.0
C1477 C 0.58564 0.15809 0.80441 0.0
C1478 C 0.52103 0.12361 0.78939 0.0
C1479 C 0.50657 0.12008 0.82626 0.0
C1480 C 0.50972 0.13753 0.85588 0.0
C1481 C 0.52737 0.15879 0.84671 0.0
C1482 C 0.5419 0.1623 0.80967 0.0
H1483 H 0.6016 0.1585 0.80794 0.0
H1484 H 0.58819 0.17445 0.8148 0.0
H1485 H 0.57374 0.14577 0.82943 0.0
H1486 H 0.51849 0.10978 0.76778 0.0
H1487 H 0.4931 0.10352 0.83194 0.0
H1488 H 0.50066 0.5952 0.62677 0.0
H1489 H 0.47469 0.57567 0.68983 0.0
H1490 H 0.44089 0.61145 0.66068 0.0
H1491 H 0.46671 0.63107 0.59693 0.0
H1492 H 0.46564 0.59478 0.77064 0.0
H1493 H 0.39202 0.54546 0.65664 0.0
H1494 H 0.41964 0.55878 0.63354 0.0
H1495 H 0.40704 0.57478 0.64838 0.0
C1496 C 0.48771 0.59894 0.63354 0.0
C1497 C 0.48573 0.61464 0.60657 0.0
C1498 C 0.47292 0.58779 0.66967 0.0
C1499 C 0.45584 0.59204 0.67946 0.0
C1500 C 0.45384 0.60779 0.6531 0.0
H1501 H 0.35403 0.51659 0.89095 0.0
H1502 H 0.37558 0.54518 0.83298 0.0
C1503 C 0.46866 0.61901 0.61684 0.0
C1504 C 0.4403 0.57984 0.7176 0.0
H1505 H 0.38806 0.53812 0.73789 0.0
C1506 C 0.44859 0.58261 0.76367 0.0
C1507 C 0.41806 0.56413 0.7082 0.0
C1508 C 0.40856 0.56041 0.65904 0.0
C1509 C 0.43542 0.56937 0.80043 0.0
C1510 C 0.41357 0.55282 0.79053 0.0
C1511 C 0.40488 0.55086 0.74507 0.0
C1512 C 0.40047 0.53585 0.82553 0.0
C1513 C 0.44515 0.5727 0.8493 0.0
C1514 C 0.40724 0.52104 0.83954 0.0
C1515 C 0.39502 0.50471 0.87221 0.0
C1516 C 0.37574 0.50287 0.89153 0.0
C1517 C 0.36885 0.51764 0.87694 0.0
C1518 C 0.38109 0.53395 0.8439 0.0
H1519 H 0.45951 0.58951 0.85389 0.0
H1520 H 0.4327 0.56994 0.87655 0.0
H1521 H 0.45083 0.56073 0.85521 0.0
H1522 H 0.42198 0.52208 0.82499 0.0
H1523 H 0.40081 0.49363 0.88249 0.0
H1524 H 0.83165 0.46935 0.62872 0.0
H1525 H 0.83013 0.44767 0.69755 0.0
H1526 H 0.90097 0.48308 0.70582 0.0
H1527 H 0.90274 0.5049 0.63762 0.0
H1528 H 0.84957 0.42087 0.70242 0.0
H1529 H 0.88223 0.48496 0.84216 0.0
H1530 H 0.8718 0.48854 0.78657 0.0
H1531 H 0.89906 0.49234 0.79037 0.0
C1532 C 0.84691 0.47271 0.6455 0.0
C1533 C 0.86732 0.48885 0.62752 0.0
C1534 C 0.84599 0.46031 0.68479 0.0
C1535 C 0.86542 0.46401 0.70705 0.0
C1536 C 0.88577 0.48028 0.68968 0.0
H1537 H 0.90772 0.40395 0.91303 0.0
H1538 H 0.90379 0.4275 0.85521 0.0
C1539 C 0.88673 0.49262 0.6504 0.0
C1540 C 0.86465 0.44985 0.74627 0.0
H1541 H 0.88115 0.4512 0.86008 0.0
C1542 C 0.85618 0.42739 0.73713 0.0
C1543 C 0.87341 0.45852 0.7913 0.0
C1544 C 0.88197 0.48238 0.80345 0.0
C1545 C 0.85701 0.41347 0.77138 0.0
C1546 C 0.86615 0.42221 0.81617 0.0
C1547 C 0.87418 0.44458 0.82565 0.0
C1548 C 0.86824 0.40853 0.85304 0.0
C1549 C 0.84891 0.38973 0.75869 0.0
C1550 C 0.84951 0.39036 0.87161 0.0
C1551 C 0.85166 0.37679 0.90449 0.0
C1552 C 0.87262 0.38128 0.91969 0.0
C1553 C 0.89134 0.39996 0.90206 0.0
C1554 C 0.88914 0.41346 0.86906 0.0
H1555 H 0.84718 0.38694 0.71995 0.0
H1556 H 0.86027 0.38433 0.77244 0.0
H1557 H 0.83252 0.37922 0.77476 0.0
H1558 H 0.83322 0.38656 0.86034 0.0
H1559 H 0.83689 0.36267 0.91761 0.0
loop_
_geom_bond_atom_site_label_1
_geom_bond_atom_site_label_2
_geom_bond_distance
_geom_bond_site_symmetry_2
_ccdc_geom_bond_type
Sc0 O3 2.025 . S
Sc0 O10 2.105 1_554 S
Sc0 O13 2.105 . S
Sc0 O16 2.105 . S
Sc0 O19 2.105 1_554 S
Sc1 O3 2.025 . S
Sc1 O11 2.105 1_554 S
Sc1 O15 2.105 . S
Sc1 O17 2.105 . S
Sc1 O21 2.105 1_554 S
Sc2 O3 2.025 . S
Sc2 O12 2.105 1_554 S
Sc2 O14 2.105 . S
Sc2 O18 2.105 . S
Sc2 O20 2.105 1_554 S
O3 Sc0 2.025 . S
O3 Sc1 2.025 . S
O3 Sc2 2.025 . S
C4 O10 1.268 . S
C4 O20 1.268 . S
C5 O11 1.268 . S
C5 O19 1.268 . S
C6 O12 1.268 . S
C6 O21 1.268 . S
C7 O13 1.268 . S
C7 O17 1.268 . S
C8 O14 1.268 . S
C8 O16 1.268 . S
C9 O15 1.268 . S
C9 O18 1.268 . S
O10 Sc0 2.105 1_556 S
O10 C4 1.268 . S
O11 Sc1 2.105 1_556 S
O11 C5 1.268 . S
O12 Sc2 2.105 1_556 S
O12 C6 1.268 . S
O13 Sc0 2.105 . S
O13 C7 1.268 . S
O14 Sc2 2.105 . S
O14 C8 1.268 . S
O15 Sc1 2.105 . S
O15 C9 1.268 . S
O16 Sc0 2.105 . S
O16 C8 1.268 . S
O17 Sc1 2.105 . S
O17 C7 1.268 . S
O18 Sc2 2.105 . S
O18 C9 1.268 . S
O19 Sc0 2.105 1_556 S
O19 C5 1.268 . S
O20 Sc2 2.105 1_556 S
O20 C4 1.268 . S
O21 Sc1 2.105 1_556 S
O21 C6 1.268 . S
Sc22 O25 2.025 . S
Sc22 O32 2.105 1_554 S
Sc22 O35 2.105 . S
Sc22 O38 2.105 . S
Sc22 O41 2.105 1_554 S
Sc23 O25 2.025 . S
Sc23 O33 2.105 1_554 S
Sc23 O37 2.105 . S
Sc23 O39 2.105 . S
Sc23 O43 2.105 1_554 S
Sc24 O25 2.025 . S
Sc24 O34 2.105 1_554 S
Sc24 O36 2.105 . S
Sc24 O40 2.105 . S
Sc24 O42 2.105 1_554 S
O25 Sc22 2.025 . S
O25 Sc23 2.025 . S
O25 Sc24 2.025 . S
C26 O32 1.268 . S
C26 O42 1.268 . S
C27 O33 1.268 . S
C27 O41 1.268 . S
C28 O34 1.268 . S
C28 O43 1.268 . S
C29 O35 1.268 . S
C29 O39 1.268 . S
C30 O36 1.268 . S
C30 O38 1.268 . S
C31 O37 1.268 . S
C31 O40 1.268 . S
O32 Sc22 2.105 1_556 S
O32 C26 1.268 . S
O33 Sc23 2.105 1_556 S
O33 C27 1.268 . S
O34 Sc24 2.105 1_556 S
O34 C28 1.268 . S
O35 Sc22 2.105 . S
O35 C29 1.268 . S
O36 Sc24 2.105 . S
O36 C30 1.268 . S
O37 Sc23 2.105 . S
O37 C31 1.268 . S
O38 Sc22 2.105 . S
O38 C30 1.268 . S
O39 Sc23 2.105 . S
O39 C29 1.268 . S
O40 Sc24 2.105 . S
O40 C31 1.268 . S
O41 Sc22 2.105 1_556 S
O41 C27 1.268 . S
O42 Sc24 2.105 1_556 S
O42 C26 1.268 . S
O43 Sc23 2.105 1_556 S
O43 C28 1.268 . S
Sc44 O47 2.025 . S
Sc44 O54 2.105 1_554 S
Sc44 O57 2.105 . S
Sc44 O60 2.105 . S
Sc44 O63 2.105 1_554 S
Sc45 O47 2.025 . S
Sc45 O55 2.105 1_554 S
Sc45 O59 2.105 . S
Sc45 O61 2.105 . S
Sc45 O65 2.105 1_554 S
Sc46 O47 2.025 . S
Sc46 O56 2.105 1_554 S
Sc46 O58 2.105 . S
Sc46 O62 2.105 . S
Sc46 O64 2.105 1_554 S
O47 Sc44 2.025 . S
O47 Sc45 2.025 . S
O47 Sc46 2.025 . S
C48 O54 1.268 . S
C48 O64 1.268 . S
C49 O55 1.268 . S
C49 O63 1.268 . S
C50 O56 1.268 . S
C50 O65 1.268 . S
C51 O57 1.268 . S
C51 O61 1.268 . S
C52 O58 1.268 . S
C52 O60 1.268 . S
C53 O59 1.268 . S
C53 O62 1.268 . S
O54 Sc44 2.105 1_556 S
O54 C48 1.268 . S
O55 Sc45 2.105 1_556 S
O55 C49 1.268 . S
O56 Sc46 2.105 1_556 S
O56 C50 1.268 . S
O57 Sc44 2.105 . S
O57 C51 1.268 . S
O58 Sc46 2.105 . S
O58 C52 1.268 . S
O59 Sc45 2.105 . S
O59 C53 1.268 . S
O60 Sc44 2.105 . S
O60 C52 1.268 . S
O61 Sc45 2.105 . S
O61 C51 1.268 . S
O62 Sc46 2.105 . S
O62 C53 1.268 . S
O63 Sc44 2.105 1_556 S
O63 C49 1.268 . S
O64 Sc46 2.105 1_556 S
O64 C48 1.268 . S
O65 Sc45 2.105 1_556 S
O65 C50 1.268 . S
Sc66 O69 2.025 . S
Sc66 O76 2.105 1_554 S
Sc66 O79 2.105 . S
Sc66 O82 2.105 . S
Sc66 O85 2.105 1_554 S
Sc67 O69 2.025 . S
Sc67 O77 2.105 1_554 S
Sc67 O81 2.105 . S
Sc67 O83 2.105 . S
Sc67 O87 2.105 1_554 S
Sc68 O69 2.025 . S
Sc68 O78 2.105 1_554 S
Sc68 O80 2.105 . S
Sc68 O84 2.105 . S
Sc68 O86 2.105 1_554 S
O69 Sc66 2.025 . S
O69 Sc67 2.025 . S
O69 Sc68 2.025 . S
C70 O76 1.268 . S
C70 O86 1.268 . S
C71 O77 1.268 . S
C71 O85 1.268 . S
C72 O78 1.268 . S
C72 O87 1.268 . S
C73 O79 1.268 . S
C73 O83 1.268 . S
C74 O80 1.268 . S
C74 O82 1.268 . S
C75 O81 1.268 . S
C75 O84 1.268 . S
O76 Sc66 2.105 1_556 S
O76 C70 1.268 . S
O77 Sc67 2.105 1_556 S
O77 C71 1.268 . S
O78 Sc68 2.105 1_556 S
O78 C72 1.268 . S
O79 Sc66 2.105 . S
O79 C73 1.268 . S
O80 Sc68 2.105 . S
O80 C74 1.268 . S
O81 Sc67 2.105 . S
O81 C75 1.268 . S
O82 Sc66 2.105 . S
O82 C74 1.268 . S
O83 Sc67 2.105 . S
O83 C73 1.268 . S
O84 Sc68 2.105 . S
O84 C75 1.268 . S
O85 Sc66 2.105 1_556 S
O85 C71 1.268 . S
O86 Sc68 2.105 1_556 S
O86 C70 1.268 . S
O87 Sc67 2.105 1_556 S
O87 C72 1.268 . S
Sc88 O91 2.025 . S
Sc88 O98 2.105 1_554 S
Sc88 O101 2.105 . S
Sc88 O104 2.105 . S
Sc88 O107 2.105 1_554 S
Sc89 O91 2.025 . S
Sc89 O99 2.105 1_554 S
Sc89 O103 2.105 . S
Sc89 O105 2.105 . S
Sc89 O109 2.105 1_554 S
Sc90 O91 2.025 . S
Sc90 O100 2.105 1_554 S
Sc90 O102 2.105 . S
Sc90 O106 2.105 . S
Sc90 O108 2.105 1_554 S
O91 Sc88 2.025 . S
O91 Sc89 2.025 . S
O91 Sc90 2.025 . S
C92 O98 1.268 . S
C92 O108 1.268 . S
C93 O99 1.268 . S
C93 O107 1.268 . S
C94 O100 1.268 . S
C94 O109 1.268 . S
C95 O101 1.268 . S
C95 O105 1.268 . S
C96 O102 1.268 . S
C96 O104 1.268 . S
C97 O103 1.268 . S
C97 O106 1.268 . S
O98 Sc88 2.105 1_556 S
O98 C92 1.268 . S
O99 Sc89 2.105 1_556 S
O99 C93 1.268 . S
O100 Sc90 2.105 1_556 S
O100 C94 1.268 . S
O101 Sc88 2.105 . S
O101 C95 1.268 . S
O102 Sc90 2.105 . S
O102 C96 1.268 . S
O103 Sc89 2.105 . S
O103 C97 1.268 . S
O104 Sc88 2.105 . S
O104 C96 1.268 . S
O105 Sc89 2.105 . S
O105 C95 1.268 . S
O106 Sc90 2.105 . S
O106 C97 1.268 . S
O107 Sc88 2.105 1_556 S
O107 C93 1.268 . S
O108 Sc90 2.105 1_556 S
O108 C92 1.268 . S
O109 Sc89 2.105 1_556 S
O109 C94 1.268 . S
Sc110 O113 2.025 . S
Sc110 O120 2.105 1_554 S
Sc110 O123 2.105 . S
Sc110 O126 2.105 . S
Sc110 O129 2.105 1_554 S
Sc111 O113 2.025 . S
Sc111 O121 2.105 1_554 S
Sc111 O125 2.105 . S
Sc111 O127 2.105 . S
Sc111 O131 2.105 1_554 S
Sc112 O113 2.025 . S
Sc112 O122 2.105 1_554 S
Sc112 O124 2.105 . S
Sc112 O128 2.105 . S
Sc112 O130 2.105 1_554 S
O113 Sc110 2.025 . S
O113 Sc111 2.025 . S
O113 Sc112 2.025 . S
C114 O120 1.268 . S
C114 O130 1.268 . S
C115 O121 1.268 . S
C115 O129 1.268 . S
C116 O122 1.268 . S
C116 O131 1.268 . S
C117 O123 1.268 . S
C117 O127 1.268 . S
C118 O124 1.268 . S
C118 O126 1.268 . S
C119 O125 1.268 . S
C119 O128 1.268 . S
O120 Sc110 2.105 1_556 S
O120 C114 1.268 . S
O121 Sc111 2.105 1_556 S
O121 C115 1.268 . S
O122 Sc112 2.105 1_556 S
O122 C116 1.268 . S
O123 Sc110 2.105 . S
O123 C117 1.268 . S
O124 Sc112 2.105 . S
O124 C118 1.268 . S
O125 Sc111 2.105 . S
O125 C119 1.268 . S
O126 Sc110 2.105 . S
O126 C118 1.268 . S
O127 Sc111 2.105 . S
O127 C117 1.268 . S
O128 Sc112 2.105 . S
O128 C119 1.268 . S
O129 Sc110 2.105 1_556 S
O129 C115 1.268 . S
O130 Sc112 2.105 1_556 S
O130 C114 1.268 . S
O131 Sc111 2.105 1_556 S
O131 C116 1.268 . S
Sc132 O135 2.025 . S
Sc132 O142 2.105 . S
Sc132 O145 2.105 . S
Sc132 O148 2.105 . S
Sc132 O151 2.105 . S
Sc133 O135 2.025 . S
Sc133 O143 2.105 . S
Sc133 O147 2.105 . S
Sc133 O149 2.105 . S
Sc133 O153 2.105 . S
Sc134 O135 2.025 . S
Sc134 O144 2.105 . S
Sc134 O146 2.105 . S
Sc134 O150 2.105 . S
Sc134 O152 2.105 . S
O135 Sc132 2.025 . S
O135 Sc133 2.025 . S
O135 Sc134 2.025 . S
C136 O142 1.268 . S
C136 O152 1.268 . S
C137 O143 1.268 . S
C137 O151 1.268 . S
C138 O144 1.268 . S
C138 O153 1.268 . S
C139 O145 1.268 . S
C139 O149 1.268 . S
C140 O146 1.268 . S
C140 O148 1.268 . S
C141 O147 1.268 . S
C141 O150 1.268 . S
O142 Sc132 2.105 . S
O142 C136 1.268 . S
O143 Sc133 2.105 . S
O143 C137 1.268 . S
O144 Sc134 2.105 . S
O144 C138 1.268 . S
O145 Sc132 2.105 . S
O145 C139 1.268 . S
O146 Sc134 2.105 . S
O146 C140 1.268 . S
O147 Sc133 2.105 . S
O147 C141 1.268 . S
O148 Sc132 2.105 . S
O148 C140 1.268 . S
O149 Sc133 2.105 . S
O149 C139 1.268 . S
O150 Sc134 2.105 . S
O150 C141 1.268 . S
O151 Sc132 2.105 . S
O151 C137 1.268 . S
O152 Sc134 2.105 . S
O152 C136 1.268 . S
O153 Sc133 2.105 . S
O153 C138 1.268 . S
Sc154 O157 2.025 . S
Sc154 O164 2.105 . S
Sc154 O167 2.105 . S
Sc154 O170 2.105 . S
Sc154 O173 2.105 . S
Sc155 O157 2.025 . S
Sc155 O165 2.105 . S
Sc155 O169 2.105 . S
Sc155 O171 2.105 . S
Sc155 O175 2.105 . S
Sc156 O157 2.025 . S
Sc156 O166 2.105 . S
Sc156 O168 2.105 . S
Sc156 O172 2.105 . S
Sc156 O174 2.105 . S
O157 Sc154 2.025 . S
O157 Sc155 2.025 . S
O157 Sc156 2.025 . S
C158 O164 1.268 . S
C158 O174 1.268 . S
C159 O165 1.268 . S
C159 O173 1.268 . S
C160 O166 1.268 . S
C160 O175 1.268 . S
C161 O167 1.268 . S
C161 O171 1.268 . S
C162 O168 1.268 . S
C162 O170 1.268 . S
C163 O169 1.268 . S
C163 O172 1.268 . S
O164 Sc154 2.105 . S
O164 C158 1.268 . S
O165 Sc155 2.105 . S
O165 C159 1.268 . S
O166 Sc156 2.105 . S
O166 C160 1.268 . S
O167 Sc154 2.105 . S
O167 C161 1.268 . S
O168 Sc156 2.105 . S
O168 C162 1.268 . S
O169 Sc155 2.105 . S
O169 C163 1.268 . S
O170 Sc154 2.105 . S
O170 C162 1.268 . S
O171 Sc155 2.105 . S
O171 C161 1.268 . S
O172 Sc156 2.105 . S
O172 C163 1.268 . S
O173 Sc154 2.105 . S
O173 C159 1.268 . S
O174 Sc156 2.105 . S
O174 C158 1.268 . S
O175 Sc155 2.105 . S
O175 C160 1.268 . S
Sc176 O179 2.025 . S
Sc176 O186 2.105 . S
Sc176 O189 2.105 . S
Sc176 O192 2.105 . S
Sc176 O195 2.105 . S
Sc177 O179 2.025 . S
Sc177 O187 2.105 . S
Sc177 O191 2.105 . S
Sc177 O193 2.105 . S
Sc177 O197 2.105 . S
Sc178 O179 2.025 . S
Sc178 O188 2.105 . S
Sc178 O190 2.105 . S
Sc178 O194 2.105 . S
Sc178 O196 2.105 . S
O179 Sc176 2.025 . S
O179 Sc177 2.025 . S
O179 Sc178 2.025 . S
C180 O186 1.268 . S
C180 O196 1.268 . S
C181 O187 1.268 . S
C181 O195 1.268 . S
C182 O188 1.268 . S
C182 O197 1.268 . S
C183 O189 1.268 . S
C183 O193 1.268 . S
C184 O190 1.268 . S
C184 O192 1.268 . S
C185 O191 1.268 . S
C185 O194 1.268 . S
O186 Sc176 2.105 . S
O186 C180 1.268 . S
O187 Sc177 2.105 . S
O187 C181 1.268 . S
O188 Sc178 2.105 . S
O188 C182 1.268 . S
O189 Sc176 2.105 . S
O189 C183 1.268 . S
O190 Sc178 2.105 . S
O190 C184 1.268 . S
O191 Sc177 2.105 . S
O191 C185 1.268 . S
O192 Sc176 2.105 . S
O192 C184 1.268 . S
O193 Sc177 2.105 . S
O193 C183 1.268 . S
O194 Sc178 2.105 . S
O194 C185 1.268 . S
O195 Sc176 2.105 . S
O195 C181 1.268 . S
O196 Sc178 2.105 . S
O196 C180 1.268 . S
O197 Sc177 2.105 . S
O197 C182 1.268 . S
Sc198 O201 2.025 . S
Sc198 O208 2.105 . S
Sc198 O211 2.105 . S
Sc198 O214 2.105 . S
Sc198 O217 2.105 . S
Sc199 O201 2.025 . S
Sc199 O209 2.105 . S
Sc199 O213 2.105 . S
Sc199 O215 2.105 . S
Sc199 O219 2.105 . S
Sc200 O201 2.025 . S
Sc200 O210 2.105 . S
Sc200 O212 2.105 . S
Sc200 O216 2.105 . S
Sc200 O218 2.105 . S
O201 Sc198 2.025 . S
O201 Sc199 2.025 . S
O201 Sc200 2.025 . S
C202 O208 1.268 . S
C202 O218 1.268 . S
C203 O209 1.268 . S
C203 O217 1.268 . S
C204 O210 1.268 . S
C204 O219 1.268 . S
C205 O211 1.268 . S
C205 O215 1.268 . S
C206 O212 1.268 . S
C206 O214 1.268 . S
C207 O213 1.268 . S
C207 O216 1.268 . S
O208 Sc198 2.105 . S
O208 C202 1.268 . S
O209 Sc199 2.105 . S
O209 C203 1.268 . S
O210 Sc200 2.105 . S
O210 C204 1.268 . S
O211 Sc198 2.105 . S
O211 C205 1.268 . S
O212 Sc200 2.105 . S
O212 C206 1.268 . S
O213 Sc199 2.105 . S
O213 C207 1.268 . S
O214 Sc198 2.105 . S
O214 C206 1.268 . S
O215 Sc199 2.105 . S
O215 C205 1.268 . S
O216 Sc200 2.105 . S
O216 C207 1.268 . S
O217 Sc198 2.105 . S
O217 C203 1.268 . S
O218 Sc200 2.105 . S
O218 C202 1.268 . S
O219 Sc199 2.105 . S
O219 C204 1.268 . S
Sc220 O223 2.025 . S
Sc220 O230 2.105 . S
Sc220 O233 2.105 . S
Sc220 O236 2.105 . S
Sc220 O239 2.105 . S
Sc221 O223 2.025 . S
Sc221 O231 2.105 . S
Sc221 O235 2.105 . S
Sc221 O237 2.105 . S
Sc221 O241 2.105 . S
Sc222 O223 2.025 . S
Sc222 O232 2.105 . S
Sc222 O234 2.105 . S
Sc222 O238 2.105 . S
Sc222 O240 2.105 . S
O223 Sc220 2.025 . S
O223 Sc221 2.025 . S
O223 Sc222 2.025 . S
C224 O230 1.268 . S
C224 O240 1.268 . S
C225 O231 1.268 . S
C225 O239 1.268 . S
C226 O232 1.268 . S
C226 O241 1.268 . S
C227 O233 1.268 . S
C227 O237 1.268 . S
C228 O234 1.268 . S
C228 O236 1.268 . S
C229 O235 1.268 . S
C229 O238 1.268 . S
O230 Sc220 2.105 . S
O230 C224 1.268 . S
O231 Sc221 2.105 . S
O231 C225 1.268 . S
O232 Sc222 2.105 . S
O232 C226 1.268 . S
O233 Sc220 2.105 . S
O233 C227 1.268 . S
O234 Sc222 2.105 . S
O234 C228 1.268 . S
O235 Sc221 2.105 . S
O235 C229 1.268 . S
O236 Sc220 2.105 . S
O236 C228 1.268 . S
O237 Sc221 2.105 . S
O237 C227 1.268 . S
O238 Sc222 2.105 . S
O238 C229 1.268 . S
O239 Sc220 2.105 . S
O239 C225 1.268 . S
O240 Sc222 2.105 . S
O240 C224 1.268 . S
O241 Sc221 2.105 . S
O241 C226 1.268 . S
Sc242 O245 2.025 . S
Sc242 O252 2.105 . S
Sc242 O255 2.105 . S
Sc242 O258 2.105 . S
Sc242 O261 2.105 . S
Sc243 O245 2.025 . S
Sc243 O253 2.105 . S
Sc243 O257 2.105 . S
Sc243 O259 2.105 . S
Sc243 O263 2.105 . S
Sc244 O245 2.025 . S
Sc244 O254 2.105 . S
Sc244 O256 2.105 . S
Sc244 O260 2.105 . S
Sc244 O262 2.105 . S
O245 Sc242 2.025 . S
O245 Sc243 2.025 . S
O245 Sc244 2.025 . S
C246 O252 1.268 . S
C246 O262 1.268 . S
C247 O253 1.268 . S
C247 O261 1.268 . S
C248 O254 1.268 . S
C248 O263 1.268 . S
C249 O255 1.268 . S
C249 O259 1.268 . S
C250 O256 1.268 . S
C250 O258 1.268 . S
C251 O257 1.268 . S
C251 O260 1.268 . S
O252 Sc242 2.105 . S
O252 C246 1.268 . S
O253 Sc243 2.105 . S
O253 C247 1.268 . S
O254 Sc244 2.105 . S
O254 C248 1.268 . S
O255 Sc242 2.105 . S
O255 C249 1.268 . S
O256 Sc244 2.105 . S
O256 C250 1.268 . S
O257 Sc243 2.105 . S
O257 C251 1.268 . S
O258 Sc242 2.105 . S
O258 C250 1.268 . S
O259 Sc243 2.105 . S
O259 C249 1.268 . S
O260 Sc244 2.105 . S
O260 C251 1.268 . S
O261 Sc242 2.105 . S
O261 C247 1.268 . S
O262 Sc244 2.105 . S
O262 C246 1.268 . S
O263 Sc243 2.105 . S
O263 C248 1.268 . S
H264 C272 0.929 . S
H265 C274 0.930 . S
H266 C276 0.930 . S
H267 C279 0.929 . S
H268 C282 0.930 . S
H269 C284 0.960 . S
H270 C284 0.960 . S
H271 C284 0.960 . S
C272 H264 0.929 . S
C272 C273 1.377 . S
C272 C274 1.384 . S
C273 C272 1.377 . S
C273 C279 1.390 . S
C274 H265 0.930 . S
C274 C272 1.384 . S
C274 C275 1.372 . S
C275 C274 1.372 . S
C275 C276 1.400 . S
C275 C280 1.490 . S
C276 H266 0.930 . S
C276 C275 1.400 . S
C276 C279 1.386 . S
H277 C293 0.930 . S
H278 C294 0.931 . S
C279 H267 0.929 . S
C279 C273 1.390 . S
C279 C276 1.386 . S
C280 C275 1.490 . S
C280 C282 1.395 . S
C280 C283 1.403 . S
H281 C287 0.930 . S
C282 H268 0.930 . S
C282 C280 1.395 . S
C282 C285 1.403 . S
C283 C280 1.403 . S
C283 C284 1.524 . S
C283 C287 1.400 . S
C284 H269 0.960 . S
C284 H270 0.960 . S
C284 H271 0.960 . S
C284 C283 1.524 . S
C285 C282 1.403 . S
C285 C286 1.392 . S
C285 C289 1.495 . S
C286 C285 1.392 . S
C286 C287 1.385 . S
C286 C288 1.478 . S
C287 H281 0.930 . S
C287 C283 1.400 . S
C287 C286 1.385 . S
C288 C286 1.478 . S
C288 C290 1.381 . S
C288 C294 1.383 . S
C289 C285 1.495 . S
C289 H295 0.959 . S
C289 H296 0.961 . S
C289 H297 0.960 . S
C290 C288 1.381 . S
C290 C291 1.394 . S
C290 H298 0.930 . S
C291 C290 1.394 . S
C291 C292 1.383 . S
C291 H299 0.929 . S
C292 C291 1.383 . S
C292 C293 1.377 . S
C293 H277 0.930 . S
C293 C292 1.377 . S
C293 C294 1.379 . S
C294 H278 0.931 . S
C294 C288 1.383 . S
C294 C293 1.379 . S
H295 C289 0.959 . S
H296 C289 0.961 . S
H297 C289 0.960 . S
H298 C290 0.930 . S
H299 C291 0.929 . S
H300 C308 0.929 . S
H301 C310 0.930 . S
H302 C312 0.930 . S
H303 C315 0.929 . S
H304 C318 0.930 . S
H305 C320 0.960 . S
H306 C320 0.960 . S
H307 C320 0.960 . S
C308 H300 0.929 . S
C308 C309 1.377 . S
C308 C310 1.384 . S
C309 C308 1.377 . S
C309 C315 1.390 . S
C310 H301 0.930 . S
C310 C308 1.384 . S
C310 C311 1.372 . S
C311 C310 1.372 . S
C311 C312 1.400 . S
C311 C316 1.490 . S
C312 H302 0.930 . S
C312 C311 1.400 . S
C312 C315 1.386 . S
H313 C329 0.930 . S
H314 C330 0.931 . S
C315 H303 0.929 . S
C315 C309 1.390 . S
C315 C312 1.386 . S
C316 C311 1.490 . S
C316 C318 1.395 . S
C316 C319 1.403 . S
H317 C323 0.930 . S
C318 H304 0.930 . S
C318 C316 1.395 . S
C318 C321 1.403 . S
C319 C316 1.403 . S
C319 C320 1.524 . S
C319 C323 1.400 . S
C320 H305 0.960 . S
C320 H306 0.960 . S
C320 H307 0.960 . S
C320 C319 1.524 . S
C321 C318 1.403 . S
C321 C322 1.392 . S
C321 C325 1.495 . S
C322 C321 1.392 . S
C322 C323 1.385 . S
C322 C324 1.478 . S
C323 H317 0.930 . S
C323 C319 1.400 . S
C323 C322 1.385 . S
C324 C322 1.478 . S
C324 C326 1.381 . S
C324 C330 1.383 . S
C325 C321 1.495 . S
C325 H331 0.959 . S
C325 H332 0.961 . S
C325 H333 0.960 . S
C326 C324 1.381 . S
C326 C327 1.394 . S
C326 H334 0.930 . S
C327 C326 1.394 . S
C327 C328 1.383 . S
C327 H335 0.929 . S
C328 C327 1.383 . S
C328 C329 1.377 . S
C329 H313 0.930 . S
C329 C328 1.377 . S
C329 C330 1.379 . S
C330 H314 0.931 . S
C330 C324 1.383 . S
C330 C329 1.379 . S
H331 C325 0.959 . S
H332 C325 0.961 . S
H333 C325 0.960 . S
H334 C326 0.930 . S
H335 C327 0.929 . S
H336 C344 0.929 . S
H337 C346 0.930 . S
H338 C348 0.930 . S
H339 C351 0.929 . S
H340 C354 0.930 . S
H341 C356 0.960 . S
H342 C356 0.960 . S
H343 C356 0.960 . S
C344 H336 0.929 . S
C344 C345 1.377 . S
C344 C346 1.384 . S
C345 C344 1.377 . S
C345 C351 1.390 . S
C346 H337 0.930 . S
C346 C344 1.384 . S
C346 C347 1.372 . S
C347 C346 1.372 . S
C347 C348 1.400 . S
C347 C352 1.490 . S
C348 H338 0.930 . S
C348 C347 1.400 . S
C348 C351 1.386 . S
H349 C365 0.930 . S
H350 C366 0.931 . S
C351 H339 0.929 . S
C351 C345 1.390 . S
C351 C348 1.386 . S
C352 C347 1.490 . S
C352 C354 1.395 . S
C352 C355 1.403 . S
H353 C359 0.930 . S
C354 H340 0.930 . S
C354 C352 1.395 . S
C354 C357 1.403 . S
C355 C352 1.403 . S
C355 C356 1.524 . S
C355 C359 1.400 . S
C356 H341 0.960 . S
C356 H342 0.960 . S
C356 H343 0.960 . S
C356 C355 1.524 . S
C357 C354 1.403 . S
C357 C358 1.392 . S
C357 C361 1.495 . S
C358 C357 1.392 . S
C358 C359 1.385 . S
C358 C360 1.478 . S
C359 H353 0.930 . S
C359 C355 1.400 . S
C359 C358 1.385 . S
C360 C358 1.478 . S
C360 C362 1.381 . S
C360 C366 1.383 . S
C361 C357 1.495 . S
C361 H367 0.959 . S
C361 H368 0.961 . S
C361 H369 0.960 . S
C362 C360 1.381 . S
C362 C363 1.394 . S
C362 H370 0.930 . S
C363 C362 1.394 . S
C363 C364 1.383 . S
C363 H371 0.929 . S
C364 C363 1.383 . S
C364 C365 1.377 . S
C365 H349 0.930 . S
C365 C364 1.377 . S
C365 C366 1.379 . S
C366 H350 0.931 . S
C366 C360 1.383 . S
C366 C365 1.379 . S
H367 C361 0.959 . S
H368 C361 0.961 . S
H369 C361 0.960 . S
H370 C362 0.930 . S
H371 C363 0.929 . S
H372 C380 0.929 . S
H373 C382 0.930 . S
H374 C384 0.930 . S
H375 C387 0.929 . S
H376 C390 0.930 . S
H377 C392 0.960 . S
H378 C392 0.960 . S
H379 C392 0.960 . S
C380 H372 0.929 . S
C380 C381 1.377 . S
C380 C382 1.384 . S
C381 C380 1.377 . S
C381 C387 1.390 . S
C382 H373 0.930 . S
C382 C380 1.384 . S
C382 C383 1.372 . S
C383 C382 1.372 . S
C383 C384 1.400 . S
C383 C388 1.490 . S
C384 H374 0.930 . S
C384 C383 1.400 . S
C384 C387 1.386 . S
H385 C401 0.930 . S
H386 C402 0.931 . S
C387 H375 0.929 . S
C387 C381 1.390 . S
C387 C384 1.386 . S
C388 C383 1.490 . S
C388 C390 1.395 . S
C388 C391 1.403 . S
H389 C395 0.930 . S
C390 H376 0.930 . S
C390 C388 1.395 . S
C390 C393 1.403 . S
C391 C388 1.403 . S
C391 C392 1.524 . S
C391 C395 1.400 . S
C392 H377 0.960 . S
C392 H378 0.960 . S
C392 H379 0.960 . S
C392 C391 1.524 . S
C393 C390 1.403 . S
C393 C394 1.392 . S
C393 C397 1.495 . S
C394 C393 1.392 . S
C394 C395 1.385 . S
C394 C396 1.478 . S
C395 H389 0.930 . S
C395 C391 1.400 . S
C395 C394 1.385 . S
C396 C394 1.478 . S
C396 C398 1.381 . S
C396 C402 1.383 . S
C397 C393 1.495 . S
C397 H403 0.959 . S
C397 H404 0.961 . S
C397 H405 0.960 . S
C398 C396 1.381 . S
C398 C399 1.394 . S
C398 H406 0.930 . S
C399 C398 1.394 . S
C399 C400 1.383 . S
C399 H407 0.929 . S
C400 C399 1.383 . S
C400 C401 1.377 . S
C401 H385 0.930 . S
C401 C400 1.377 . S
C401 C402 1.379 . S
C402 H386 0.931 . S
C402 C396 1.383 . S
C402 C401 1.379 . S
H403 C397 0.959 . S
H404 C397 0.961 . S
H405 C397 0.960 . S
H406 C398 0.930 . S
H407 C399 0.929 . S
H408 C416 0.929 . S
H409 C418 0.930 . S
H410 C420 0.930 . S
H411 C423 0.929 . S
H412 C426 0.930 . S
H413 C428 0.960 . S
H414 C428 0.960 . S
H415 C428 0.960 . S
C416 H408 0.929 . S
C416 C417 1.377 . S
C416 C418 1.384 . S
C417 C416 1.377 . S
C417 C423 1.390 . S
C418 H409 0.930 . S
C418 C416 1.384 . S
C418 C419 1.372 . S
C419 C418 1.372 . S
C419 C420 1.400 . S
C419 C424 1.490 . S
C420 H410 0.930 . S
C420 C419 1.400 . S
C420 C423 1.386 . S
H421 C437 0.930 . S
H422 C438 0.931 . S
C423 H411 0.929 . S
C423 C417 1.390 . S
C423 C420 1.386 . S
C424 C419 1.490 . S
C424 C426 1.395 . S
C424 C427 1.403 . S
H425 C431 0.930 . S
C426 H412 0.930 . S
C426 C424 1.395 . S
C426 C429 1.403 . S
C427 C424 1.403 . S
C427 C428 1.524 . S
C427 C431 1.400 . S
C428 H413 0.960 . S
C428 H414 0.960 . S
C428 H415 0.960 . S
C428 C427 1.524 . S
C429 C426 1.403 . S
C429 C430 1.392 . S
C429 C433 1.495 . S
C430 C429 1.392 . S
C430 C431 1.385 . S
C430 C432 1.478 . S
C431 H425 0.930 . S
C431 C427 1.400 . S
C431 C430 1.385 . S
C432 C430 1.478 . S
C432 C434 1.381 . S
C432 C438 1.383 . S
C433 C429 1.495 . S
C433 H439 0.959 . S
C433 H440 0.961 . S
C433 H441 0.960 . S
C434 C432 1.381 . S
C434 C435 1.394 . S
C434 H442 0.930 . S
C435 C434 1.394 . S
C435 C436 1.383 . S
C435 H443 0.929 . S
C436 C435 1.383 . S
C436 C437 1.377 . S
C437 H421 0.930 . S
C437 C436 1.377 . S
C437 C438 1.379 . S
C438 H422 0.931 . S
C438 C432 1.383 . S
C438 C437 1.379 . S
H439 C433 0.959 . S
H440 C433 0.961 . S
H441 C433 0.960 . S
H442 C434 0.930 . S
H443 C435 0.929 . S
H444 C452 0.929 . S
H445 C454 0.930 . S
H446 C456 0.930 . S
H447 C459 0.929 . S
H448 C462 0.930 . S
H449 C464 0.960 . S
H450 C464 0.960 . S
H451 C464 0.960 . S
C452 H444 0.929 . S
C452 C453 1.377 . S
C452 C454 1.384 . S
C453 C452 1.377 . S
C453 C459 1.390 . S
C454 H445 0.930 . S
C454 C452 1.384 . S
C454 C455 1.372 . S
C455 C454 1.372 . S
C455 C456 1.400 . S
C455 C460 1.490 . S
C456 H446 0.930 . S
C456 C455 1.400 . S
C456 C459 1.386 . S
H457 C473 0.930 . S
H458 C474 0.931 . S
C459 H447 0.929 . S
C459 C453 1.390 . S
C459 C456 1.386 . S
C460 C455 1.490 . S
C460 C462 1.395 . S
C460 C463 1.403 . S
H461 C467 0.930 . S
C462 H448 0.930 . S
C462 C460 1.395 . S
C462 C465 1.403 . S
C463 C460 1.403 . S
C463 C464 1.524 . S
C463 C467 1.400 . S
C464 H449 0.960 . S
C464 H450 0.960 . S
C464 H451 0.960 . S
C464 C463 1.524 . S
C465 C462 1.403 . S
C465 C466 1.392 . S
C465 C469 1.495 . S
C466 C465 1.392 . S
C466 C467 1.385 . S
C466 C468 1.478 . S
C467 H461 0.930 . S
C467 C463 1.400 . S
C467 C466 1.385 . S
C468 C466 1.478 . S
C468 C470 1.381 . S
C468 C474 1.383 . S
C469 C465 1.495 . S
C469 H475 0.959 . S
C469 H476 0.961 . S
C469 H477 0.960 . S
C470 C468 1.381 . S
C470 C471 1.394 . S
C470 H478 0.930 . S
C471 C470 1.394 . S
C471 C472 1.383 . S
C471 H479 0.929 . S
C472 C471 1.383 . S
C472 C473 1.377 . S
C473 H457 0.930 . S
C473 C472 1.377 . S
C473 C474 1.379 . S
C474 H458 0.931 . S
C474 C468 1.383 . S
C474 C473 1.379 . S
H475 C469 0.959 . S
H476 C469 0.961 . S
H477 C469 0.960 . S
H478 C470 0.930 . S
H479 C471 0.929 . S
H480 C488 0.929 . S
H481 C490 0.930 . S
H482 C492 0.930 . S
H483 C495 0.929 . S
H484 C498 0.930 . S
H485 C500 0.960 . S
H486 C500 0.960 . S
H487 C500 0.960 . S
C488 H480 0.929 . S
C488 C489 1.377 . S
C488 C490 1.384 . S
C489 C488 1.377 . S
C489 C495 1.390 . S
C490 H481 0.930 . S
C490 C488 1.384 . S
C490 C491 1.372 . S
C491 C490 1.372 . S
C491 C492 1.400 . S
C491 C496 1.490 . S
C492 H482 0.930 . S
C492 C491 1.400 . S
C492 C495 1.386 . S
H493 C509 0.930 . S
H494 C510 0.931 . S
C495 H483 0.929 . S
C495 C489 1.390 . S
C495 C492 1.386 . S
C496 C491 1.490 . S
C496 C498 1.395 . S
C496 C499 1.403 . S
H497 C503 0.930 . S
C498 H484 0.930 . S
C498 C496 1.395 . S
C498 C501 1.403 . S
C499 C496 1.403 . S
C499 C500 1.524 . S
C499 C503 1.400 . S
C500 H485 0.960 . S
C500 H486 0.960 . S
C500 H487 0.960 . S
C500 C499 1.524 . S
C501 C498 1.403 . S
C501 C502 1.392 . S
C501 C505 1.495 . S
C502 C501 1.392 . S
C502 C503 1.385 . S
C502 C504 1.478 . S
C503 H497 0.930 . S
C503 C499 1.400 . S
C503 C502 1.385 . S
C504 C502 1.478 . S
C504 C506 1.381 . S
C504 C510 1.383 . S
C505 C501 1.495 . S
C505 H511 0.959 . S
C505 H512 0.961 . S
C505 H513 0.960 . S
C506 C504 1.381 . S
C506 C507 1.394 . S
C506 H514 0.930 . S
C507 C506 1.394 . S
C507 C508 1.383 . S
C507 H515 0.929 . S
C508 C507 1.383 . S
C508 C509 1.377 . S
C509 H493 0.930 . S
C509 C508 1.377 . S
C509 C510 1.379 . S
C510 H494 0.931 . S
C510 C504 1.383 . S
C510 C509 1.379 . S
H511 C505 0.959 . S
H512 C505 0.961 . S
H513 C505 0.960 . S
H514 C506 0.930 . S
H515 C507 0.929 . S
H516 C524 0.929 . S
H517 C526 0.930 . S
H518 C528 0.930 . S
H519 C531 0.929 . S
H520 C534 0.930 . S
H521 C536 0.960 . S
H522 C536 0.960 . S
H523 C536 0.960 . S
C524 H516 0.929 . S
C524 C525 1.377 . S
C524 C526 1.384 . S
C525 C524 1.377 . S
C525 C531 1.390 . S
C526 H517 0.930 . S
C526 C524 1.384 . S
C526 C527 1.372 . S
C527 C526 1.372 . S
C527 C528 1.400 . S
C527 C532 1.490 . S
C528 H518 0.930 . S
C528 C527 1.400 . S
C528 C531 1.386 . S
H529 C545 0.930 . S
H530 C546 0.931 . S
C531 H519 0.929 . S
C531 C525 1.390 . S
C531 C528 1.386 . S
C532 C527 1.490 . S
C532 C534 1.395 . S
C532 C535 1.403 . S
H533 C539 0.930 . S
C534 H520 0.930 . S
C534 C532 1.395 . S
C534 C537 1.403 . S
C535 C532 1.403 . S
C535 C536 1.524 . S
C535 C539 1.400 . S
C536 H521 0.960 . S
C536 H522 0.960 . S
C536 H523 0.960 . S
C536 C535 1.524 . S
C537 C534 1.403 . S
C537 C538 1.392 . S
C537 C541 1.495 . S
C538 C537 1.392 . S
C538 C539 1.385 . S
C538 C540 1.478 . S
C539 H533 0.930 . S
C539 C535 1.400 . S
C539 C538 1.385 . S
C540 C538 1.478 . S
C540 C542 1.381 . S
C540 C546 1.383 . S
C541 C537 1.495 . S
C541 H547 0.959 . S
C541 H548 0.961 . S
C541 H549 0.960 . S
C542 C540 1.381 . S
C542 C543 1.394 . S
C542 H550 0.930 . S
C543 C542 1.394 . S
C543 C544 1.383 . S
C543 H551 0.929 . S
C544 C543 1.383 . S
C544 C545 1.377 . S
C545 H529 0.930 . S
C545 C544 1.377 . S
C545 C546 1.379 . S
C546 H530 0.931 . S
C546 C540 1.383 . S
C546 C545 1.379 . S
H547 C541 0.959 . S
H548 C541 0.961 . S
H549 C541 0.960 . S
H550 C542 0.930 . S
H551 C543 0.929 . S
H552 C560 0.929 . S
H553 C562 0.930 . S
H554 C564 0.930 . S
H555 C567 0.929 . S
H556 C570 0.930 . S
H557 C572 0.960 . S
H558 C572 0.960 . S
H559 C572 0.960 . S
C560 H552 0.929 . S
C560 C561 1.377 . S
C560 C562 1.384 . S
C561 C560 1.377 . S
C561 C567 1.390 . S
C562 H553 0.930 . S
C562 C560 1.384 . S
C562 C563 1.372 . S
C563 C562 1.372 . S
C563 C564 1.400 . S
C563 C568 1.490 . S
C564 H554 0.930 . S
C564 C563 1.400 . S
C564 C567 1.386 . S
H565 C581 0.930 . S
H566 C582 0.931 . S
C567 H555 0.929 . S
C567 C561 1.390 . S
C567 C564 1.386 . S
C568 C563 1.490 . S
C568 C570 1.395 . S
C568 C571 1.403 . S
H569 C575 0.930 . S
C570 H556 0.930 . S
C570 C568 1.395 . S
C570 C573 1.403 . S
C571 C568 1.403 . S
C571 C572 1.524 . S
C571 C575 1.400 . S
C572 H557 0.960 . S
C572 H558 0.960 . S
C572 H559 0.960 . S
C572 C571 1.524 . S
C573 C570 1.403 . S
C573 C574 1.392 . S
C573 C577 1.495 . S
C574 C573 1.392 . S
C574 C575 1.385 . S
C574 C576 1.478 . S
C575 H569 0.930 . S
C575 C571 1.400 . S
C575 C574 1.385 . S
C576 C574 1.478 . S
C576 C578 1.381 . S
C576 C582 1.383 . S
C577 C573 1.495 . S
C577 H583 0.959 . S
C577 H584 0.961 . S
C577 H585 0.960 . S
C578 C576 1.381 . S
C578 C579 1.394 . S
C578 H586 0.930 . S
C579 C578 1.394 . S
C579 C580 1.383 . S
C579 H587 0.929 . S
C580 C579 1.383 . S
C580 C581 1.377 . S
C581 H565 0.930 . S
C581 C580 1.377 . S
C581 C582 1.379 . S
C582 H566 0.931 . S
C582 C576 1.383 . S
C582 C581 1.379 . S
H583 C577 0.959 . S
H584 C577 0.961 . S
H585 C577 0.960 . S
H586 C578 0.930 . S
H587 C579 0.929 . S
H588 C596 0.929 . S
H589 C598 0.930 . S
H590 C600 0.930 . S
H591 C603 0.929 . S
H592 C606 0.930 . S
H593 C608 0.960 . S
H594 C608 0.960 . S
H595 C608 0.960 . S
C596 H588 0.929 . S
C596 C597 1.377 . S
C596 C598 1.384 . S
C597 C596 1.377 . S
C597 C603 1.390 . S
C598 H589 0.930 . S
C598 C596 1.384 . S
C598 C599 1.372 . S
C599 C598 1.372 . S
C599 C600 1.400 . S
C599 C604 1.490 . S
C600 H590 0.930 . S
C600 C599 1.400 . S
C600 C603 1.386 . S
H601 C617 0.930 . S
H602 C618 0.931 . S
C603 H591 0.929 . S
C603 C597 1.390 . S
C603 C600 1.386 . S
C604 C599 1.490 . S
C604 C606 1.395 . S
C604 C607 1.403 . S
H605 C611 0.930 . S
C606 H592 0.930 . S
C606 C604 1.395 . S
C606 C609 1.403 . S
C607 C604 1.403 . S
C607 C608 1.524 . S
C607 C611 1.400 . S
C608 H593 0.960 . S
C608 H594 0.960 . S
C608 H595 0.960 . S
C608 C607 1.524 . S
C609 C606 1.403 . S
C609 C610 1.392 . S
C609 C613 1.495 . S
C610 C609 1.392 . S
C610 C611 1.385 . S
C610 C612 1.478 . S
C611 H605 0.930 . S
C611 C607 1.400 . S
C611 C610 1.385 . S
C612 C610 1.478 . S
C612 C614 1.381 . S
C612 C618 1.383 . S
C613 C609 1.495 . S
C613 H619 0.959 . S
C613 H620 0.961 . S
C613 H621 0.960 . S
C614 C612 1.381 . S
C614 C615 1.394 . S
C614 H622 0.930 . S
C615 C614 1.394 . S
C615 C616 1.383 . S
C615 H623 0.929 . S
C616 C615 1.383 . S
C616 C617 1.377 . S
C617 H601 0.930 . S
C617 C616 1.377 . S
C617 C618 1.379 . S
C618 H602 0.931 . S
C618 C612 1.383 . S
C618 C617 1.379 . S
H619 C613 0.959 . S
H620 C613 0.961 . S
H621 C613 0.960 . S
H622 C614 0.930 . S
H623 C615 0.929 . S
H624 C632 0.929 . S
H625 C634 0.930 . S
H626 C636 0.930 . S
H627 C639 0.929 . S
H628 C642 0.930 . S
H629 C644 0.960 . S
H630 C644 0.960 . S
H631 C644 0.960 . S
C632 H624 0.929 . S
C632 C633 1.377 . S
C632 C634 1.384 . S
C633 C632 1.377 . S
C633 C639 1.390 . S
C634 H625 0.930 . S
C634 C632 1.384 . S
C634 C635 1.372 . S
C635 C634 1.372 . S
C635 C636 1.400 . S
C635 C640 1.490 . S
C636 H626 0.930 . S
C636 C635 1.400 . S
C636 C639 1.386 . S
H637 C653 0.930 . S
H638 C654 0.931 . S
C639 H627 0.929 . S
C639 C633 1.390 . S
C639 C636 1.386 . S
C640 C635 1.490 . S
C640 C642 1.395 . S
C640 C643 1.403 . S
H641 C647 0.930 . S
C642 H628 0.930 . S
C642 C640 1.395 . S
C642 C645 1.403 . S
C643 C640 1.403 . S
C643 C644 1.524 . S
C643 C647 1.400 . S
C644 H629 0.960 . S
C644 H630 0.960 . S
C644 H631 0.960 . S
C644 C643 1.524 . S
C645 C642 1.403 . S
C645 C646 1.392 . S
C645 C649 1.495 . S
C646 C645 1.392 . S
C646 C647 1.385 . S
C646 C648 1.478 . S
C647 H641 0.930 . S
C647 C643 1.400 . S
C647 C646 1.385 . S
C648 C646 1.478 . S
C648 C650 1.381 . S
C648 C654 1.383 . S
C649 C645 1.495 . S
C649 H655 0.959 . S
C649 H656 0.961 . S
C649 H657 0.960 . S
C650 C648 1.381 . S
C650 C651 1.394 . S
C650 H658 0.930 . S
C651 C650 1.394 . S
C651 C652 1.383 . S
C651 H659 0.929 . S
C652 C651 1.383 . S
C652 C653 1.377 . S
C653 H637 0.930 . S
C653 C652 1.377 . S
C653 C654 1.379 . S
C654 H638 0.931 . S
C654 C648 1.383 . S
C654 C653 1.379 . S
H655 C649 0.959 . S
H656 C649 0.961 . S
H657 C649 0.960 . S
H658 C650 0.930 . S
H659 C651 0.929 . S
H660 C668 0.929 . S
H661 C670 0.930 . S
H662 C672 0.930 . S
H663 C675 0.929 . S
H664 C678 0.930 . S
H665 C680 0.960 . S
H666 C680 0.960 . S
H667 C680 0.960 . S
C668 H660 0.929 . S
C668 C669 1.377 . S
C668 C670 1.384 . S
C669 C668 1.377 . S
C669 C675 1.390 . S
C670 H661 0.930 . S
C670 C668 1.384 . S
C670 C671 1.372 . S
C671 C670 1.372 . S
C671 C672 1.400 . S
C671 C676 1.490 . S
C672 H662 0.930 . S
C672 C671 1.400 . S
C672 C675 1.386 . S
H673 C689 0.930 . S
H674 C690 0.931 . S
C675 H663 0.929 . S
C675 C669 1.390 . S
C675 C672 1.386 . S
C676 C671 1.490 . S
C676 C678 1.395 . S
C676 C679 1.403 . S
H677 C683 0.930 . S
C678 H664 0.930 . S
C678 C676 1.395 . S
C678 C681 1.403 . S
C679 C676 1.403 . S
C679 C680 1.524 . S
C679 C683 1.400 . S
C680 H665 0.960 . S
C680 H666 0.960 . S
C680 H667 0.960 . S
C680 C679 1.524 . S
C681 C678 1.403 . S
C681 C682 1.392 . S
C681 C685 1.495 . S
C682 C681 1.392 . S
C682 C683 1.385 . S
C682 C684 1.478 . S
C683 H677 0.930 . S
C683 C679 1.400 . S
C683 C682 1.385 . S
C684 C682 1.478 . S
C684 C686 1.381 . S
C684 C690 1.383 . S
C685 C681 1.495 . S
C685 H691 0.959 . S
C685 H692 0.961 . S
C685 H693 0.960 . S
C686 C684 1.381 . S
C686 C687 1.394 . S
C686 H694 0.930 . S
C687 C686 1.394 . S
C687 C688 1.383 . S
C687 H695 0.929 . S
C688 C687 1.383 . S
C688 C689 1.377 . S
C689 H673 0.930 . S
C689 C688 1.377 . S
C689 C690 1.379 . S
C690 H674 0.931 . S
C690 C684 1.383 . S
C690 C689 1.379 . S
H691 C685 0.959 . S
H692 C685 0.961 . S
H693 C685 0.960 . S
H694 C686 0.930 . S
H695 C687 0.929 . S
H696 C704 0.929 . S
H697 C706 0.930 . S
H698 C708 0.930 . S
H699 C711 0.929 . S
H700 C714 0.930 . S
H701 C716 0.960 . S
H702 C716 0.960 . S
H703 C716 0.960 1_565 S
C704 H696 0.929 . S
C704 C705 1.377 . S
C704 C706 1.384 . S
C705 C704 1.377 . S
C705 C711 1.390 . S
C706 H697 0.930 . S
C706 C704 1.384 . S
C706 C707 1.372 . S
C707 C706 1.372 . S
C707 C708 1.400 . S
C707 C712 1.490 . S
C708 H698 0.930 . S
C708 C707 1.400 . S
C708 C711 1.386 . S
H709 C725 0.930 . S
H710 C726 0.931 . S
C711 H699 0.929 . S
C711 C705 1.390 . S
C711 C708 1.386 . S
C712 C707 1.490 . S
C712 C714 1.395 . S
C712 C715 1.417 . S
H713 C719 0.930 . S
C714 H700 0.930 . S
C714 C712 1.395 . S
C714 C717 1.398 1_565 S
C715 C712 1.417 . S
C715 C716 1.517 1_565 S
C715 C719 1.392 1_565 S
C716 H701 0.960 . S
C716 H702 0.960 . S
C716 H703 0.960 1_545 S
C716 C715 1.517 1_545 S
C717 C714 1.398 1_545 S
C717 C718 1.401 . S
C717 C721 1.487 1_545 S
C718 C717 1.401 . S
C718 C719 1.385 . S
C718 C720 1.478 . S
C719 H713 0.930 . S
C719 C715 1.392 1_545 S
C719 C718 1.385 . S
C720 C718 1.478 . S
C720 C722 1.381 . S
C720 C726 1.383 . S
C721 C717 1.487 1_565 S
C721 H727 0.970 . S
C721 H728 0.961 . S
C721 H729 0.954 1_565 S
C722 C720 1.381 . S
C722 C723 1.394 . S
C722 H730 0.930 . S
C723 C722 1.394 . S
C723 C724 1.383 . S
C723 H731 0.929 . S
C724 C723 1.383 . S
C724 C725 1.377 . S
C725 H709 0.930 . S
C725 C724 1.377 . S
C725 C726 1.379 . S
C726 H710 0.931 . S
C726 C720 1.383 . S
C726 C725 1.379 . S
H727 C721 0.970 . S
H728 C721 0.961 . S
H729 C721 0.954 1_545 S
H730 C722 0.930 . S
H731 C723 0.929 . S
H732 C740 0.929 . S
H733 C742 0.930 . S
H734 C744 0.930 . S
H735 C747 0.929 . S
H736 C750 0.930 . S
H737 C752 0.960 . S
H738 C752 0.960 . S
H739 C752 0.960 . S
C740 H732 0.929 . S
C740 C741 1.377 . S
C740 C742 1.384 . S
C741 C740 1.377 . S
C741 C747 1.390 . S
C742 H733 0.930 . S
C742 C740 1.384 . S
C742 C743 1.372 . S
C743 C742 1.372 . S
C743 C744 1.400 . S
C743 C748 1.490 . S
C744 H734 0.930 . S
C744 C743 1.400 . S
C744 C747 1.386 . S
H745 C761 0.930 . S
H746 C762 0.931 . S
C747 H735 0.929 . S
C747 C741 1.390 . S
C747 C744 1.386 . S
C748 C743 1.490 . S
C748 C750 1.395 . S
C748 C751 1.403 . S
H749 C755 0.930 . S
C750 H736 0.930 . S
C750 C748 1.395 . S
C750 C753 1.403 . S
C751 C748 1.403 . S
C751 C752 1.524 . S
C751 C755 1.400 . S
C752 H737 0.960 . S
C752 H738 0.960 . S
C752 H739 0.960 . S
C752 C751 1.524 . S
C753 C750 1.403 . S
C753 C754 1.392 . S
C753 C757 1.495 . S
C754 C753 1.392 . S
C754 C755 1.385 . S
C754 C756 1.478 . S
C755 H749 0.930 . S
C755 C751 1.400 . S
C755 C754 1.385 . S
C756 C754 1.478 . S
C756 C758 1.381 . S
C756 C762 1.383 . S
C757 C753 1.495 . S
C757 H763 0.959 . S
C757 H764 0.961 . S
C757 H765 0.960 . S
C758 C756 1.381 . S
C758 C759 1.394 . S
C758 H766 0.930 . S
C759 C758 1.394 . S
C759 C760 1.383 . S
C759 H767 0.929 . S
C760 C759 1.383 . S
C760 C761 1.377 . S
C761 H745 0.930 . S
C761 C760 1.377 . S
C761 C762 1.379 . S
C762 H746 0.931 . S
C762 C756 1.383 . S
C762 C761 1.379 . S
H763 C757 0.959 . S
H764 C757 0.961 . S
H765 C757 0.960 . S
H766 C758 0.930 . S
H767 C759 0.929 . S
H768 C776 0.929 . S
H769 C778 0.930 . S
H770 C780 0.930 . S
H771 C783 0.929 . S
H772 C786 0.930 . S
H773 C788 0.960 . S
H774 C788 0.960 . S
H775 C788 0.960 . S
C776 H768 0.929 . S
C776 C777 1.377 . S
C776 C778 1.384 . S
C777 C776 1.377 . S
C777 C783 1.390 . S
C778 H769 0.930 . S
C778 C776 1.384 . S
C778 C779 1.372 . S
C779 C778 1.372 . S
C779 C780 1.400 . S
C779 C784 1.490 . S
C780 H770 0.930 . S
C780 C779 1.400 . S
C780 C783 1.386 . S
H781 C797 0.930 . S
H782 C798 0.931 . S
C783 H771 0.929 . S
C783 C777 1.390 . S
C783 C780 1.386 . S
C784 C779 1.490 . S
C784 C786 1.395 1_455 S
C784 C787 1.403 . S
H785 C791 0.930 . S
C786 H772 0.930 . S
C786 C784 1.395 1_655 S
C786 C789 1.403 . S
C787 C784 1.403 . S
C787 C788 1.524 . S
C787 C791 1.400 . S
C788 H773 0.960 . S
C788 H774 0.960 . S
C788 H775 0.960 . S
C788 C787 1.524 . S
C789 C786 1.403 . S
C789 C790 1.392 . S
C789 C793 1.495 . S
C790 C789 1.392 . S
C790 C791 1.385 1_655 S
C790 C792 1.478 . S
C791 H785 0.930 . S
C791 C787 1.400 . S
C791 C790 1.385 1_455 S
C792 C790 1.478 . S
C792 C794 1.381 . S
C792 C798 1.383 . S
C793 C789 1.495 . S
C793 H799 0.959 . S
C793 H800 0.961 . S
C793 H801 0.960 . S
C794 C792 1.381 . S
C794 C795 1.394 . S
C794 H802 0.930 . S
C795 C794 1.394 . S
C795 C796 1.383 . S
C795 H803 0.929 . S
C796 C795 1.383 . S
C796 C797 1.377 . S
C797 H781 0.930 . S
C797 C796 1.377 . S
C797 C798 1.379 . S
C798 H782 0.931 . S
C798 C792 1.383 . S
C798 C797 1.379 . S
H799 C793 0.959 . S
H800 C793 0.961 . S
H801 C793 0.960 . S
H802 C794 0.930 . S
H803 C795 0.929 . S
H804 C812 0.929 . S
H805 C814 0.930 . S
H806 C816 0.930 . S
H807 C819 0.929 . S
H808 C822 0.930 . S
H809 C824 0.960 . S
H810 C824 0.960 . S
H811 C824 0.960 . S
C812 H804 0.929 . S
C812 C813 1.377 . S
C812 C814 1.384 . S
C813 C812 1.377 . S
C813 C819 1.390 . S
C814 H805 0.930 . S
C814 C812 1.384 . S
C814 C815 1.372 . S
C815 C814 1.372 . S
C815 C816 1.400 . S
C815 C820 1.490 . S
C816 H806 0.930 . S
C816 C815 1.400 . S
C816 C819 1.386 . S
H817 C833 0.930 . S
H818 C834 0.931 . S
C819 H807 0.929 . S
C819 C813 1.390 . S
C819 C816 1.386 . S
C820 C815 1.490 . S
C820 C822 1.395 . S
C820 C823 1.403 . S
H821 C827 0.930 . S
C822 H808 0.930 . S
C822 C820 1.395 . S
C822 C825 1.403 1_565 S
C823 C820 1.403 . S
C823 C824 1.524 . S
C823 C827 1.400 1_565 S
C824 H809 0.960 . S
C824 H810 0.960 . S
C824 H811 0.960 . S
C824 C823 1.524 . S
C825 C822 1.403 1_545 S
C825 C826 1.392 . S
C825 C829 1.495 . S
C826 C825 1.392 . S
C826 C827 1.385 . S
C826 C828 1.478 . S
C827 H821 0.930 . S
C827 C823 1.400 1_545 S
C827 C826 1.385 . S
C828 C826 1.478 . S
C828 C830 1.381 . S
C828 C834 1.383 . S
C829 C825 1.495 . S
C829 H835 0.959 . S
C829 H836 0.961 . S
C829 H837 0.960 . S
C830 C828 1.381 . S
C830 C831 1.394 . S
C830 H838 0.930 . S
C831 C830 1.394 . S
C831 C832 1.383 . S
C831 H839 0.929 . S
C832 C831 1.383 . S
C832 C833 1.377 . S
C833 H817 0.930 . S
C833 C832 1.377 . S
C833 C834 1.379 . S
C834 H818 0.931 . S
C834 C828 1.383 . S
C834 C833 1.379 . S
H835 C829 0.959 . S
H836 C829 0.961 . S
H837 C829 0.960 . S
H838 C830 0.930 . S
H839 C831 0.929 . S
H840 C848 0.929 . S
H841 C850 0.930 . S
H842 C852 0.930 . S
H843 C855 0.929 . S
H844 C858 0.930 . S
H845 C860 0.960 . S
H846 C860 0.960 . S
H847 C860 0.960 . S
C848 H840 0.929 . S
C848 C849 1.377 . S
C848 C850 1.384 . S
C849 C848 1.377 . S
C849 C855 1.390 . S
C850 H841 0.930 . S
C850 C848 1.384 . S
C850 C851 1.372 . S
C851 C850 1.372 . S
C851 C852 1.400 . S
C851 C856 1.490 . S
C852 H842 0.930 . S
C852 C851 1.400 . S
C852 C855 1.386 . S
H853 C869 0.930 . S
H854 C870 0.931 . S
C855 H843 0.929 . S
C855 C849 1.390 . S
C855 C852 1.386 . S
C856 C851 1.490 . S
C856 C858 1.395 . S
C856 C859 1.403 . S
H857 C863 0.930 . S
C858 H844 0.930 . S
C858 C856 1.395 . S
C858 C861 1.403 . S
C859 C856 1.403 . S
C859 C860 1.524 . S
C859 C863 1.400 . S
C860 H845 0.960 . S
C860 H846 0.960 . S
C860 H847 0.960 . S
C860 C859 1.524 . S
C861 C858 1.403 . S
C861 C862 1.392 . S
C861 C865 1.495 . S
C862 C861 1.392 . S
C862 C863 1.385 . S
C862 C864 1.478 . S
C863 H857 0.930 . S
C863 C859 1.400 . S
C863 C862 1.385 . S
C864 C862 1.478 . S
C864 C866 1.381 . S
C864 C870 1.383 . S
C865 C861 1.495 . S
C865 H871 0.959 . S
C865 H872 0.961 . S
C865 H873 0.960 . S
C866 C864 1.381 . S
C866 C867 1.394 . S
C866 H874 0.930 . S
C867 C866 1.394 . S
C867 C868 1.383 . S
C867 H875 0.929 . S
C868 C867 1.383 . S
C868 C869 1.377 . S
C869 H853 0.930 . S
C869 C868 1.377 . S
C869 C870 1.379 . S
C870 H854 0.931 . S
C870 C864 1.383 . S
C870 C869 1.379 . S
H871 C865 0.959 . S
H872 C865 0.961 . S
H873 C865 0.960 . S
H874 C866 0.930 . S
H875 C867 0.929 . S
H876 C884 0.929 . S
H877 C886 0.930 . S
H878 C888 0.930 . S
H879 C891 0.929 . S
H880 C894 0.930 . S
H881 C896 0.960 . S
H882 C896 0.960 . S
H883 C896 0.960 . S
C884 H876 0.929 . S
C884 C885 1.377 . S
C884 C886 1.384 . S
C885 C884 1.377 . S
C885 C891 1.390 . S
C886 H877 0.930 . S
C886 C884 1.384 . S
C886 C887 1.372 . S
C887 C886 1.372 . S
C887 C888 1.400 . S
C887 C892 1.490 . S
C888 H878 0.930 . S
C888 C887 1.400 . S
C888 C891 1.386 . S
H889 C905 0.930 . S
H890 C906 0.931 . S
C891 H879 0.929 . S
C891 C885 1.390 . S
C891 C888 1.386 . S
C892 C887 1.490 . S
C892 C894 1.395 . S
C892 C895 1.403 1_655 S
H893 C899 0.930 . S
C894 H880 0.930 . S
C894 C892 1.395 . S
C894 C897 1.403 . S
C895 C892 1.403 1_455 S
C895 C896 1.524 . S
C895 C899 1.400 . S
C896 H881 0.960 . S
C896 H882 0.960 . S
C896 H883 0.960 . S
C896 C895 1.524 . S
C897 C894 1.403 . S
C897 C898 1.392 1_655 S
C897 C901 1.495 . S
C898 C897 1.392 1_455 S
C898 C899 1.385 . S
C898 C900 1.478 . S
C899 H893 0.930 . S
C899 C895 1.400 . S
C899 C898 1.385 . S
C900 C898 1.478 . S
C900 C902 1.381 . S
C900 C906 1.383 . S
C901 C897 1.495 . S
C901 H907 0.959 . S
C901 H908 0.961 . S
C901 H909 0.960 . S
C902 C900 1.381 . S
C902 C903 1.394 . S
C902 H910 0.930 . S
C903 C902 1.394 . S
C903 C904 1.383 . S
C903 H911 0.929 . S
C904 C903 1.383 . S
C904 C905 1.377 . S
C905 H889 0.930 . S
C905 C904 1.377 . S
C905 C906 1.379 . S
C906 H890 0.931 . S
C906 C900 1.383 . S
C906 C905 1.379 . S
H907 C901 0.959 . S
H908 C901 0.961 . S
H909 C901 0.960 . S
H910 C902 0.930 . S
H911 C903 0.929 . S
H912 C920 0.929 . S
H913 C922 0.930 . S
H914 C924 0.930 . S
H915 C927 0.929 . S
H916 C930 0.930 . S
H917 C932 0.960 . S
H918 C932 0.960 . S
H919 C932 0.960 . S
C920 H912 0.929 . S
C920 C921 1.377 . S
C920 C922 1.384 . S
C921 C920 1.377 . S
C921 C927 1.390 . S
C922 H913 0.930 . S
C922 C920 1.384 . S
C922 C923 1.372 . S
C923 C922 1.372 . S
C923 C924 1.400 . S
C923 C928 1.490 . S
C924 H914 0.930 . S
C924 C923 1.400 . S
C924 C927 1.386 . S
H925 C941 0.930 . S
H926 C942 0.931 . S
C927 H915 0.929 . S
C927 C921 1.390 . S
C927 C924 1.386 . S
C928 C923 1.490 . S
C928 C930 1.395 1_545 S
C928 C931 1.403 . S
H929 C935 0.934 . S
C930 H916 0.930 . S
C930 C928 1.395 1_565 S
C930 C933 1.403 . S
C931 C928 1.403 . S
C931 C932 1.524 . S
C931 C935 1.409 . S
C932 H917 0.960 . S
C932 H918 0.960 . S
C932 H919 0.960 . S
C932 C931 1.524 . S
C933 C930 1.403 . S
C933 C934 1.392 . S
C933 C937 1.495 . S
C934 C933 1.392 . S
C934 C935 1.372 1_565 S
C934 C936 1.478 . S
C935 H929 0.934 . S
C935 C931 1.409 . S
C935 C934 1.372 1_545 S
C936 C934 1.478 . S
C936 C938 1.381 . S
C936 C942 1.383 . S
C937 C933 1.495 . S
C937 H943 0.959 . S
C937 H944 0.961 . S
C937 H945 0.960 . S
C938 C936 1.381 . S
C938 C939 1.394 . S
C938 H946 0.930 . S
C939 C938 1.394 . S
C939 C940 1.383 . S
C939 H947 0.929 . S
C940 C939 1.383 . S
C940 C941 1.377 . S
C941 H925 0.930 . S
C941 C940 1.377 . S
C941 C942 1.379 . S
C942 H926 0.931 . S
C942 C936 1.383 . S
C942 C941 1.379 . S
H943 C937 0.959 . S
H944 C937 0.961 . S
H945 C937 0.960 . S
H946 C938 0.930 . S
H947 C939 0.929 . S
H948 C956 0.929 . S
H949 C958 0.930 . S
H950 C960 0.930 . S
H951 C963 0.929 . S
H952 C966 0.930 . S
H953 C968 0.960 . S
H954 C968 0.960 . S
H955 C968 0.960 . S
C956 H948 0.929 . S
C956 C957 1.377 . S
C956 C958 1.384 . S
C957 C956 1.377 . S
C957 C963 1.390 . S
C958 H949 0.930 . S
C958 C956 1.384 . S
C958 C959 1.372 . S
C959 C958 1.372 . S
C959 C960 1.400 . S
C959 C964 1.490 . S
C960 H950 0.930 . S
C960 C959 1.400 . S
C960 C963 1.386 . S
H961 C977 0.930 . S
H962 C978 0.931 . S
C963 H951 0.929 . S
C963 C957 1.390 . S
C963 C960 1.386 . S
C964 C959 1.490 . S
C964 C966 1.395 . S
C964 C967 1.403 . S
H965 C971 0.930 . S
C966 H952 0.930 . S
C966 C964 1.395 . S
C966 C969 1.403 . S
C967 C964 1.403 . S
C967 C968 1.524 . S
C967 C971 1.400 . S
C968 H953 0.960 . S
C968 H954 0.960 . S
C968 H955 0.960 . S
C968 C967 1.524 . S
C969 C966 1.403 . S
C969 C970 1.392 . S
C969 C973 1.495 . S
C970 C969 1.392 . S
C970 C971 1.385 . S
C970 C972 1.478 . S
C971 H965 0.930 . S
C971 C967 1.400 . S
C971 C970 1.385 . S
C972 C970 1.478 . S
C972 C974 1.381 . S
C972 C978 1.383 . S
C973 C969 1.495 . S
C973 H979 0.959 . S
C973 H980 0.961 . S
C973 H981 0.960 . S
C974 C972 1.381 . S
C974 C975 1.394 . S
C974 H982 0.930 . S
C975 C974 1.394 . S
C975 C976 1.383 . S
C975 H983 0.929 . S
C976 C975 1.383 . S
C976 C977 1.377 . S
C977 H961 0.930 . S
C977 C976 1.377 . S
C977 C978 1.379 . S
C978 H962 0.931 . S
C978 C972 1.383 . S
C978 C977 1.379 . S
H979 C973 0.959 . S
H980 C973 0.961 . S
H981 C973 0.960 . S
H982 C974 0.930 . S
H983 C975 0.929 . S
H984 C992 0.929 . S
H985 C994 0.930 . S
H986 C996 0.930 . S
H987 C999 0.929 . S
H988 C1002 0.930 . S
H989 C1004 0.960 . S
H990 C1004 0.960 . S
H991 C1004 0.960 . S
C992 H984 0.929 . S
C992 C993 1.377 . S
C992 C994 1.384 . S
C993 C992 1.377 . S
C993 C999 1.390 . S
C994 H985 0.930 . S
C994 C992 1.384 . S
C994 C995 1.372 . S
C995 C994 1.372 . S
C995 C996 1.400 . S
C995 C1000 1.490 . S
C996 H986 0.930 . S
C996 C995 1.400 . S
C996 C999 1.386 . S
H997 C1013 0.930 . S
H998 C1014 0.931 . S
C999 H987 0.929 . S
C999 C993 1.390 . S
C999 C996 1.386 . S
C1000 C995 1.490 . S
C1000 C1002 1.395 . S
C1000 C1003 1.403 . S
H1001 C1007 0.930 . S
C1002 H988 0.930 . S
C1002 C1000 1.395 . S
C1002 C1005 1.403 1_655 S
C1003 C1000 1.403 . S
C1003 C1004 1.524 . S
C1003 C1007 1.400 1_655 S
C1004 H989 0.960 . S
C1004 H990 0.960 . S
C1004 H991 0.960 . S
C1004 C1003 1.524 . S
C1005 C1002 1.403 1_455 S
C1005 C1006 1.392 . S
C1005 C1009 1.495 . S
C1006 C1005 1.392 . S
C1006 C1007 1.385 . S
C1006 C1008 1.478 . S
C1007 H1001 0.930 . S
C1007 C1003 1.400 1_455 S
C1007 C1006 1.385 . S
C1008 C1006 1.478 . S
C1008 C1010 1.381 . S
C1008 C1014 1.383 . S
C1009 C1005 1.495 . S
C1009 H1015 0.959 . S
C1009 H1016 0.961 . S
C1009 H1017 0.960 . S
C1010 C1008 1.381 . S
C1010 C1011 1.394 . S
C1010 H1018 0.930 . S
C1011 C1010 1.394 . S
C1011 C1012 1.383 . S
C1011 H1019 0.929 . S
C1012 C1011 1.383 . S
C1012 C1013 1.377 . S
C1013 H997 0.930 . S
C1013 C1012 1.377 . S
C1013 C1014 1.379 . S
C1014 H998 0.931 . S
C1014 C1008 1.383 . S
C1014 C1013 1.379 . S
H1015 C1009 0.959 . S
H1016 C1009 0.961 . S
H1017 C1009 0.960 . S
H1018 C1010 0.930 . S
H1019 C1011 0.929 . S
H1020 C1028 0.929 . S
H1021 C1030 0.930 . S
H1022 C1032 0.930 . S
H1023 C1035 0.929 . S
H1024 C1038 0.930 . S
H1025 C1040 0.960 . S
H1026 C1040 0.960 . S
H1027 C1040 0.960 . S
C1028 H1020 0.929 . S
C1028 C1029 1.377 . S
C1028 C1030 1.384 . S
C1029 C1028 1.377 . S
C1029 C1035 1.390 . S
C1030 H1021 0.930 . S
C1030 C1028 1.384 . S
C1030 C1031 1.372 . S
C1031 C1030 1.372 . S
C1031 C1032 1.400 . S
C1031 C1036 1.490 . S
C1032 H1022 0.930 . S
C1032 C1031 1.400 . S
C1032 C1035 1.386 . S
H1033 C1049 0.930 . S
H1034 C1050 0.931 . S
C1035 H1023 0.929 . S
C1035 C1029 1.390 . S
C1035 C1032 1.386 . S
C1036 C1031 1.490 . S
C1036 C1038 1.395 1_565 S
C1036 C1039 1.403 . S
H1037 C1043 0.930 . S
C1038 H1024 0.930 . S
C1038 C1036 1.395 1_545 S
C1038 C1041 1.403 . S
C1039 C1036 1.403 . S
C1039 C1040 1.524 . S
C1039 C1043 1.400 . S
C1040 H1025 0.960 . S
C1040 H1026 0.960 . S
C1040 H1027 0.960 . S
C1040 C1039 1.524 . S
C1041 C1038 1.403 . S
C1041 C1042 1.392 . S
C1041 C1045 1.495 . S
C1042 C1041 1.392 . S
C1042 C1043 1.385 1_545 S
C1042 C1044 1.478 . S
C1043 H1037 0.930 . S
C1043 C1039 1.400 . S
C1043 C1042 1.385 1_565 S
C1044 C1042 1.478 . S
C1044 C1046 1.381 . S
C1044 C1050 1.383 . S
C1045 C1041 1.495 . S
C1045 H1051 0.959 . S
C1045 H1052 0.961 . S
C1045 H1053 0.960 . S
C1046 C1044 1.381 . S
C1046 C1047 1.394 . S
C1046 H1054 0.930 . S
C1047 C1046 1.394 . S
C1047 C1048 1.383 . S
C1047 H1055 0.929 . S
C1048 C1047 1.383 . S
C1048 C1049 1.377 . S
C1049 H1033 0.930 . S
C1049 C1048 1.377 . S
C1049 C1050 1.379 . S
C1050 H1034 0.931 . S
C1050 C1044 1.383 . S
C1050 C1049 1.379 . S
H1051 C1045 0.959 . S
H1052 C1045 0.961 . S
H1053 C1045 0.960 . S
H1054 C1046 0.930 . S
H1055 C1047 0.929 . S
H1056 C1064 0.929 . S
H1057 C1066 0.930 . S
H1058 C1068 0.930 . S
H1059 C1071 0.929 . S
H1060 C1074 0.930 . S
H1061 C1076 0.960 . S
H1062 C1076 0.960 . S
H1063 C1076 0.960 . S
C1064 H1056 0.929 . S
C1064 C1065 1.377 . S
C1064 C1066 1.384 . S
C1065 C1064 1.377 . S
C1065 C1071 1.390 . S
C1066 H1057 0.930 . S
C1066 C1064 1.384 . S
C1066 C1067 1.372 . S
C1067 C1066 1.372 . S
C1067 C1068 1.400 . S
C1067 C1072 1.490 . S
C1068 H1058 0.930 . S
C1068 C1067 1.400 . S
C1068 C1071 1.386 . S
H1069 C1085 0.930 . S
H1070 C1086 0.931 . S
C1071 H1059 0.929 . S
C1071 C1065 1.390 . S
C1071 C1068 1.386 . S
C1072 C1067 1.490 . S
C1072 C1074 1.395 . S
C1072 C1075 1.403 . S
H1073 C1079 0.930 . S
C1074 H1060 0.930 . S
C1074 C1072 1.395 . S
C1074 C1077 1.403 . S
C1075 C1072 1.403 . S
C1075 C1076 1.524 . S
C1075 C1079 1.400 . S
C1076 H1061 0.960 . S
C1076 H1062 0.960 . S
C1076 H1063 0.960 . S
C1076 C1075 1.524 . S
C1077 C1074 1.403 . S
C1077 C1078 1.392 . S
C1077 C1081 1.495 . S
C1078 C1077 1.392 . S
C1078 C1079 1.385 . S
C1078 C1080 1.478 . S
C1079 H1073 0.930 . S
C1079 C1075 1.400 . S
C1079 C1078 1.385 . S
C1080 C1078 1.478 . S
C1080 C1082 1.381 . S
C1080 C1086 1.383 . S
C1081 C1077 1.495 . S
C1081 H1087 0.959 . S
C1081 H1088 0.961 . S
C1081 H1089 0.960 . S
C1082 C1080 1.381 . S
C1082 C1083 1.394 . S
C1082 H1090 0.930 . S
C1083 C1082 1.394 . S
C1083 C1084 1.383 . S
C1083 H1091 0.929 . S
C1084 C1083 1.383 . S
C1084 C1085 1.377 . S
C1085 H1069 0.930 . S
C1085 C1084 1.377 . S
C1085 C1086 1.379 . S
C1086 H1070 0.931 . S
C1086 C1080 1.383 . S
C1086 C1085 1.379 . S
H1087 C1081 0.959 . S
H1088 C1081 0.961 . S
H1089 C1081 0.960 . S
H1090 C1082 0.930 . S
H1091 C1083 0.929 . S
H1092 C1100 0.929 . S
H1093 C1102 0.930 . S
H1094 C1104 0.930 . S
H1095 C1107 0.929 . S
H1096 C1110 0.930 . S
H1097 C1112 0.960 . S
H1098 C1112 0.960 1_655 S
H1099 C1112 0.960 . S
C1100 H1092 0.929 . S
C1100 C1101 1.377 . S
C1100 C1102 1.384 . S
C1101 C1100 1.377 . S
C1101 C1107 1.390 . S
C1102 H1093 0.930 . S
C1102 C1100 1.384 . S
C1102 C1103 1.372 . S
C1103 C1102 1.372 . S
C1103 C1104 1.400 . S
C1103 C1108 1.490 . S
C1104 H1094 0.930 . S
C1104 C1103 1.400 . S
C1104 C1107 1.386 . S
H1105 C1121 0.930 . S
H1106 C1122 0.931 . S
C1107 H1095 0.929 . S
C1107 C1101 1.390 . S
C1107 C1104 1.386 . S
C1108 C1103 1.490 . S
C1108 C1110 1.395 . S
C1108 C1111 1.403 1_655 S
H1109 C1115 0.930 . S
C1110 H1096 0.930 . S
C1110 C1108 1.395 . S
C1110 C1113 1.403 . S
C1111 C1108 1.403 1_455 S
C1111 C1112 1.524 . S
C1111 C1115 1.400 . S
C1112 H1097 0.960 . S
C1112 H1098 0.960 1_455 S
C1112 H1099 0.960 . S
C1112 C1111 1.524 . S
C1113 C1110 1.403 . S
C1113 C1114 1.392 1_655 S
C1113 C1117 1.495 . S
C1114 C1113 1.392 1_455 S
C1114 C1115 1.385 . S
C1114 C1116 1.478 . S
C1115 H1109 0.930 . S
C1115 C1111 1.400 . S
C1115 C1114 1.385 . S
C1116 C1114 1.478 . S
C1116 C1118 1.381 . S
C1116 C1122 1.383 . S
C1117 C1113 1.495 . S
C1117 H1123 0.959 . S
C1117 H1124 0.961 1_655 S
C1117 H1125 0.960 . S
C1118 C1116 1.381 . S
C1118 C1119 1.394 . S
C1118 H1126 0.930 . S
C1119 C1118 1.394 . S
C1119 C1120 1.383 . S
C1119 H1127 0.929 . S
C1120 C1119 1.383 . S
C1120 C1121 1.377 . S
C1121 H1105 0.930 . S
C1121 C1120 1.377 . S
C1121 C1122 1.379 . S
C1122 H1106 0.931 . S
C1122 C1116 1.383 . S
C1122 C1121 1.379 . S
H1123 C1117 0.959 . S
H1124 C1117 0.961 1_455 S
H1125 C1117 0.960 . S
H1126 C1118 0.930 . S
H1127 C1119 0.929 . S
H1128 C1136 0.929 . S
H1129 C1138 0.930 . S
H1130 C1140 0.930 . S
H1131 C1143 0.929 . S
H1132 C1146 0.930 . S
H1133 C1148 0.960 . S
H1134 C1148 0.960 . S
H1135 C1148 0.960 . S
C1136 H1128 0.929 . S
C1136 C1137 1.377 . S
C1136 C1138 1.384 . S
C1137 C1136 1.377 . S
C1137 C1143 1.390 . S
C1138 H1129 0.930 . S
C1138 C1136 1.384 . S
C1138 C1139 1.372 . S
C1139 C1138 1.372 . S
C1139 C1140 1.400 . S
C1139 C1144 1.490 . S
C1140 H1130 0.930 . S
C1140 C1139 1.400 . S
C1140 C1143 1.386 . S
H1141 C1157 0.930 . S
H1142 C1158 0.931 . S
C1143 H1131 0.929 . S
C1143 C1137 1.390 . S
C1143 C1140 1.386 . S
C1144 C1139 1.490 . S
C1144 C1146 1.395 . S
C1144 C1147 1.403 . S
H1145 C1151 0.930 . S
C1146 H1132 0.930 . S
C1146 C1144 1.395 . S
C1146 C1149 1.403 . S
C1147 C1144 1.403 . S
C1147 C1148 1.524 . S
C1147 C1151 1.400 . S
C1148 H1133 0.960 . S
C1148 H1134 0.960 . S
C1148 H1135 0.960 . S
C1148 C1147 1.524 . S
C1149 C1146 1.403 . S
C1149 C1150 1.392 . S
C1149 C1153 1.495 . S
C1150 C1149 1.392 . S
C1150 C1151 1.385 . S
C1150 C1152 1.478 . S
C1151 H1145 0.930 . S
C1151 C1147 1.400 . S
C1151 C1150 1.385 . S
C1152 C1150 1.478 . S
C1152 C1154 1.381 . S
C1152 C1158 1.383 . S
C1153 C1149 1.495 . S
C1153 H1159 0.959 . S
C1153 H1160 0.961 . S
C1153 H1161 0.960 . S
C1154 C1152 1.381 . S
C1154 C1155 1.394 . S
C1154 H1162 0.930 . S
C1155 C1154 1.394 . S
C1155 C1156 1.383 . S
C1155 H1163 0.929 . S
C1156 C1155 1.383 . S
C1156 C1157 1.377 . S
C1157 H1141 0.930 . S
C1157 C1156 1.377 . S
C1157 C1158 1.379 . S
C1158 H1142 0.931 . S
C1158 C1152 1.383 . S
C1158 C1157 1.379 . S
H1159 C1153 0.959 . S
H1160 C1153 0.961 . S
H1161 C1153 0.960 . S
H1162 C1154 0.930 . S
H1163 C1155 0.929 . S
H1164 C1172 0.929 . S
H1165 C1174 0.930 . S
H1166 C1176 0.930 . S
H1167 C1179 0.929 . S
H1168 C1182 0.930 . S
H1169 C1184 0.960 . S
H1170 C1184 0.960 . S
H1171 C1184 0.960 . S
C1172 H1164 0.929 . S
C1172 C1173 1.377 . S
C1172 C1174 1.384 . S
C1173 C1172 1.377 . S
C1173 C1179 1.390 . S
C1174 H1165 0.930 . S
C1174 C1172 1.384 . S
C1174 C1175 1.372 . S
C1175 C1174 1.372 . S
C1175 C1176 1.400 . S
C1175 C1180 1.490 . S
C1176 H1166 0.930 . S
C1176 C1175 1.400 . S
C1176 C1179 1.386 . S
H1177 C1193 0.930 . S
H1178 C1194 0.931 . S
C1179 H1167 0.929 . S
C1179 C1173 1.390 . S
C1179 C1176 1.386 . S
C1180 C1175 1.490 . S
C1180 C1182 1.395 . S
C1180 C1183 1.403 . S
H1181 C1187 0.930 . S
C1182 H1168 0.930 . S
C1182 C1180 1.395 . S
C1182 C1185 1.403 . S
C1183 C1180 1.403 . S
C1183 C1184 1.524 . S
C1183 C1187 1.400 . S
C1184 H1169 0.960 . S
C1184 H1170 0.960 . S
C1184 H1171 0.960 . S
C1184 C1183 1.524 . S
C1185 C1182 1.403 . S
C1185 C1186 1.392 . S
C1185 C1189 1.495 . S
C1186 C1185 1.392 . S
C1186 C1187 1.385 . S
C1186 C1188 1.478 . S
C1187 H1181 0.930 . S
C1187 C1183 1.400 . S
C1187 C1186 1.385 . S
C1188 C1186 1.478 . S
C1188 C1190 1.381 . S
C1188 C1194 1.383 . S
C1189 C1185 1.495 . S
C1189 H1195 0.959 . S
C1189 H1196 0.961 . S
C1189 H1197 0.960 . S
C1190 C1188 1.381 . S
C1190 C1191 1.394 . S
C1190 H1198 0.930 . S
C1191 C1190 1.394 . S
C1191 C1192 1.383 . S
C1191 H1199 0.929 . S
C1192 C1191 1.383 . S
C1192 C1193 1.377 . S
C1193 H1177 0.930 . S
C1193 C1192 1.377 . S
C1193 C1194 1.379 . S
C1194 H1178 0.931 . S
C1194 C1188 1.383 . S
C1194 C1193 1.379 . S
H1195 C1189 0.959 . S
H1196 C1189 0.961 . S
H1197 C1189 0.960 . S
H1198 C1190 0.930 . S
H1199 C1191 0.929 . S
H1200 C1208 0.929 . S
H1201 C1210 0.930 . S
H1202 C1212 0.930 . S
H1203 C1215 0.929 . S
H1204 C1218 0.930 . S
H1205 C1220 0.960 . S
H1206 C1220 0.960 . S
H1207 C1220 0.960 . S
C1208 H1200 0.929 . S
C1208 C1209 1.377 . S
C1208 C1210 1.384 . S
C1209 C1208 1.377 . S
C1209 C1215 1.390 . S
C1210 H1201 0.930 . S
C1210 C1208 1.384 . S
C1210 C1211 1.372 . S
C1211 C1210 1.372 . S
C1211 C1212 1.400 . S
C1211 C1216 1.490 . S
C1212 H1202 0.930 . S
C1212 C1211 1.400 . S
C1212 C1215 1.386 . S
H1213 C1229 0.930 . S
H1214 C1230 0.931 . S
C1215 H1203 0.929 . S
C1215 C1209 1.390 . S
C1215 C1212 1.386 . S
C1216 C1211 1.490 . S
C1216 C1218 1.395 . S
C1216 C1219 1.403 . S
H1217 C1223 0.930 . S
C1218 H1204 0.930 . S
C1218 C1216 1.395 . S
C1218 C1221 1.403 . S
C1219 C1216 1.403 . S
C1219 C1220 1.524 . S
C1219 C1223 1.400 . S
C1220 H1205 0.960 . S
C1220 H1206 0.960 . S
C1220 H1207 0.960 . S
C1220 C1219 1.524 . S
C1221 C1218 1.403 . S
C1221 C1222 1.392 . S
C1221 C1225 1.495 . S
C1222 C1221 1.392 . S
C1222 C1223 1.385 . S
C1222 C1224 1.478 . S
C1223 H1217 0.930 . S
C1223 C1219 1.400 . S
C1223 C1222 1.385 . S
C1224 C1222 1.478 . S
C1224 C1226 1.381 . S
C1224 C1230 1.383 . S
C1225 C1221 1.495 . S
C1225 H1231 0.959 . S
C1225 H1232 0.961 . S
C1225 H1233 0.960 . S
C1226 C1224 1.381 . S
C1226 C1227 1.394 . S
C1226 H1234 0.930 . S
C1227 C1226 1.394 . S
C1227 C1228 1.383 . S
C1227 H1235 0.929 . S
C1228 C1227 1.383 . S
C1228 C1229 1.377 . S
C1229 H1213 0.930 . S
C1229 C1228 1.377 . S
C1229 C1230 1.379 . S
C1230 H1214 0.931 . S
C1230 C1224 1.383 . S
C1230 C1229 1.379 . S
H1231 C1225 0.959 . S
H1232 C1225 0.961 . S
H1233 C1225 0.960 . S
H1234 C1226 0.930 . S
H1235 C1227 0.929 . S
H1236 C1244 0.929 . S
H1237 C1246 0.930 . S
H1238 C1248 0.930 . S
H1239 C1251 0.929 . S
H1240 C1254 0.930 . S
H1241 C1256 0.960 . S
H1242 C1256 0.960 . S
H1243 C1256 0.960 . S
C1244 H1236 0.929 . S
C1244 C1245 1.377 . S
C1244 C1246 1.384 . S
C1245 C1244 1.377 . S
C1245 C1251 1.390 . S
C1246 H1237 0.930 . S
C1246 C1244 1.384 . S
C1246 C1247 1.372 . S
C1247 C1246 1.372 . S
C1247 C1248 1.400 . S
C1247 C1252 1.490 . S
C1248 H1238 0.930 . S
C1248 C1247 1.400 . S
C1248 C1251 1.386 . S
H1249 C1265 0.930 . S
H1250 C1266 0.931 . S
C1251 H1239 0.929 . S
C1251 C1245 1.390 . S
C1251 C1248 1.386 . S
C1252 C1247 1.490 . S
C1252 C1254 1.395 . S
C1252 C1255 1.403 . S
H1253 C1259 0.930 . S
C1254 H1240 0.930 . S
C1254 C1252 1.395 . S
C1254 C1257 1.403 . S
C1255 C1252 1.403 . S
C1255 C1256 1.524 . S
C1255 C1259 1.400 . S
C1256 H1241 0.960 . S
C1256 H1242 0.960 . S
C1256 H1243 0.960 . S
C1256 C1255 1.524 . S
C1257 C1254 1.403 . S
C1257 C1258 1.392 . S
C1257 C1261 1.495 . S
C1258 C1257 1.392 . S
C1258 C1259 1.385 . S
C1258 C1260 1.478 . S
C1259 H1253 0.930 . S
C1259 C1255 1.400 . S
C1259 C1258 1.385 . S
C1260 C1258 1.478 . S
C1260 C1262 1.381 . S
C1260 C1266 1.383 . S
C1261 C1257 1.495 . S
C1261 H1267 0.959 . S
C1261 H1268 0.961 . S
C1261 H1269 0.960 . S
C1262 C1260 1.381 . S
C1262 C1263 1.394 . S
C1262 H1270 0.930 . S
C1263 C1262 1.394 . S
C1263 C1264 1.383 . S
C1263 H1271 0.929 . S
C1264 C1263 1.383 . S
C1264 C1265 1.377 . S
C1265 H1249 0.930 . S
C1265 C1264 1.377 . S
C1265 C1266 1.379 . S
C1266 H1250 0.931 . S
C1266 C1260 1.383 . S
C1266 C1265 1.379 . S
H1267 C1261 0.959 . S
H1268 C1261 0.961 . S
H1269 C1261 0.960 . S
H1270 C1262 0.930 . S
H1271 C1263 0.929 . S
H1272 C1280 0.929 . S
H1273 C1282 0.930 . S
H1274 C1284 0.930 . S
H1275 C1287 0.929 . S
H1276 C1290 0.930 . S
H1277 C1292 0.960 . S
H1278 C1292 0.960 . S
H1279 C1292 0.960 . S
C1280 H1272 0.929 . S
C1280 C1281 1.377 . S
C1280 C1282 1.384 . S
C1281 C1280 1.377 . S
C1281 C1287 1.390 . S
C1282 H1273 0.930 . S
C1282 C1280 1.384 . S
C1282 C1283 1.372 . S
C1283 C1282 1.372 . S
C1283 C1284 1.400 . S
C1283 C1288 1.490 . S
C1284 H1274 0.930 . S
C1284 C1283 1.400 . S
C1284 C1287 1.386 . S
H1285 C1301 0.930 . S
H1286 C1302 0.931 . S
C1287 H1275 0.929 . S
C1287 C1281 1.390 . S
C1287 C1284 1.386 . S
C1288 C1283 1.490 . S
C1288 C1290 1.395 . S
C1288 C1291 1.403 . S
H1289 C1295 0.930 . S
C1290 H1276 0.930 . S
C1290 C1288 1.395 . S
C1290 C1293 1.403 . S
C1291 C1288 1.403 . S
C1291 C1292 1.524 . S
C1291 C1295 1.400 . S
C1292 H1277 0.960 . S
C1292 H1278 0.960 . S
C1292 H1279 0.960 . S
C1292 C1291 1.524 . S
C1293 C1290 1.403 . S
C1293 C1294 1.392 . S
C1293 C1297 1.495 . S
C1294 C1293 1.392 . S
C1294 C1295 1.385 . S
C1294 C1296 1.478 . S
C1295 H1289 0.930 . S
C1295 C1291 1.400 . S
C1295 C1294 1.385 . S
C1296 C1294 1.478 . S
C1296 C1298 1.381 . S
C1296 C1302 1.383 . S
C1297 C1293 1.495 . S
C1297 H1303 0.959 . S
C1297 H1304 0.961 . S
C1297 H1305 0.960 . S
C1298 C1296 1.381 . S
C1298 C1299 1.394 . S
C1298 H1306 0.930 . S
C1299 C1298 1.394 . S
C1299 C1300 1.383 . S
C1299 H1307 0.929 . S
C1300 C1299 1.383 . S
C1300 C1301 1.377 . S
C1301 H1285 0.930 . S
C1301 C1300 1.377 . S
C1301 C1302 1.379 . S
C1302 H1286 0.931 . S
C1302 C1296 1.383 . S
C1302 C1301 1.379 . S
H1303 C1297 0.959 . S
H1304 C1297 0.961 . S
H1305 C1297 0.960 . S
H1306 C1298 0.930 . S
H1307 C1299 0.929 . S
H1308 C1316 0.929 . S
H1309 C1318 0.930 . S
H1310 C1320 0.930 . S
H1311 C1323 0.929 . S
H1312 C1326 0.930 . S
H1313 C1328 0.960 . S
H1314 C1328 0.960 . S
H1315 C1328 0.960 . S
C1316 H1308 0.929 . S
C1316 C1317 1.377 . S
C1316 C1318 1.384 . S
C1317 C1316 1.377 . S
C1317 C1323 1.390 . S
C1318 H1309 0.930 . S
C1318 C1316 1.384 . S
C1318 C1319 1.372 . S
C1319 C1318 1.372 . S
C1319 C1320 1.400 . S
C1319 C1324 1.490 . S
C1320 H1310 0.930 . S
C1320 C1319 1.400 . S
C1320 C1323 1.386 . S
H1321 C1337 0.930 . S
H1322 C1338 0.931 . S
C1323 H1311 0.929 . S
C1323 C1317 1.390 . S
C1323 C1320 1.386 . S
C1324 C1319 1.490 . S
C1324 C1326 1.395 . S
C1324 C1327 1.403 . S
H1325 C1331 0.930 . S
C1326 H1312 0.930 . S
C1326 C1324 1.395 . S
C1326 C1329 1.403 . S
C1327 C1324 1.403 . S
C1327 C1328 1.524 . S
C1327 C1331 1.400 . S
C1328 H1313 0.960 . S
C1328 H1314 0.960 . S
C1328 H1315 0.960 . S
C1328 C1327 1.524 . S
C1329 C1326 1.403 . S
C1329 C1330 1.392 . S
C1329 C1333 1.495 . S
C1330 C1329 1.392 . S
C1330 C1331 1.385 . S
C1330 C1332 1.478 . S
C1331 H1325 0.930 . S
C1331 C1327 1.400 . S
C1331 C1330 1.385 . S
C1332 C1330 1.478 . S
C1332 C1334 1.381 . S
C1332 C1338 1.383 . S
C1333 C1329 1.495 . S
C1333 H1339 0.959 . S
C1333 H1340 0.961 . S
C1333 H1341 0.960 . S
C1334 C1332 1.381 . S
C1334 C1335 1.394 . S
C1334 H1342 0.930 . S
C1335 C1334 1.394 . S
C1335 C1336 1.383 . S
C1335 H1343 0.929 . S
C1336 C1335 1.383 . S
C1336 C1337 1.377 . S
C1337 H1321 0.930 . S
C1337 C1336 1.377 . S
C1337 C1338 1.379 . S
C1338 H1322 0.931 . S
C1338 C1332 1.383 . S
C1338 C1337 1.379 . S
H1339 C1333 0.959 . S
H1340 C1333 0.961 . S
H1341 C1333 0.960 . S
H1342 C1334 0.930 . S
H1343 C1335 0.929 . S
H1344 C1352 0.929 . S
H1345 C1354 0.930 . S
H1346 C1356 0.930 . S
H1347 C1359 0.929 . S
H1348 C1362 0.930 . S
H1349 C1364 0.960 . S
H1350 C1364 0.960 . S
H1351 C1364 0.960 . S
C1352 H1344 0.929 . S
C1352 C1353 1.377 . S
C1352 C1354 1.384 . S
C1353 C1352 1.377 . S
C1353 C1359 1.390 . S
C1354 H1345 0.930 . S
C1354 C1352 1.384 . S
C1354 C1355 1.372 . S
C1355 C1354 1.372 . S
C1355 C1356 1.400 . S
C1355 C1360 1.490 . S
C1356 H1346 0.930 . S
C1356 C1355 1.400 . S
C1356 C1359 1.386 . S
H1357 C1373 0.930 . S
H1358 C1374 0.931 . S
C1359 H1347 0.929 . S
C1359 C1353 1.390 . S
C1359 C1356 1.386 . S
C1360 C1355 1.490 . S
C1360 C1362 1.395 . S
C1360 C1363 1.403 . S
H1361 C1367 0.930 . S
C1362 H1348 0.930 . S
C1362 C1360 1.395 . S
C1362 C1365 1.403 . S
C1363 C1360 1.403 . S
C1363 C1364 1.524 . S
C1363 C1367 1.400 . S
C1364 H1349 0.960 . S
C1364 H1350 0.960 . S
C1364 H1351 0.960 . S
C1364 C1363 1.524 . S
C1365 C1362 1.403 . S
C1365 C1366 1.392 . S
C1365 C1369 1.495 . S
C1366 C1365 1.392 . S
C1366 C1367 1.385 . S
C1366 C1368 1.478 . S
C1367 H1361 0.930 . S
C1367 C1363 1.400 . S
C1367 C1366 1.385 . S
C1368 C1366 1.478 . S
C1368 C1370 1.381 . S
C1368 C1374 1.383 . S
C1369 C1365 1.495 . S
C1369 H1375 0.959 . S
C1369 H1376 0.961 . S
C1369 H1377 0.960 . S
C1370 C1368 1.381 . S
C1370 C1371 1.394 . S
C1370 H1378 0.930 . S
C1371 C1370 1.394 . S
C1371 C1372 1.383 . S
C1371 H1379 0.929 . S
C1372 C1371 1.383 . S
C1372 C1373 1.377 . S
C1373 H1357 0.930 . S
C1373 C1372 1.377 . S
C1373 C1374 1.379 . S
C1374 H1358 0.931 . S
C1374 C1368 1.383 . S
C1374 C1373 1.379 . S
H1375 C1369 0.959 . S
H1376 C1369 0.961 . S
H1377 C1369 0.960 . S
H1378 C1370 0.930 . S
H1379 C1371 0.929 . S
H1380 C1388 0.929 . S
H1381 C1390 0.930 . S
H1382 C1392 0.930 . S
H1383 C1395 0.929 . S
H1384 C1398 0.930 . S
H1385 C1400 0.960 . S
H1386 C1400 0.960 . S
H1387 C1400 0.960 . S
C1388 H1380 0.929 . S
C1388 C1389 1.377 . S
C1388 C1390 1.384 . S
C1389 C1388 1.377 . S
C1389 C1395 1.390 . S
C1390 H1381 0.930 . S
C1390 C1388 1.384 . S
C1390 C1391 1.372 . S
C1391 C1390 1.372 . S
C1391 C1392 1.400 . S
C1391 C1396 1.490 . S
C1392 H1382 0.930 . S
C1392 C1391 1.400 . S
C1392 C1395 1.386 . S
H1393 C1409 0.930 . S
H1394 C1410 0.931 . S
C1395 H1383 0.929 . S
C1395 C1389 1.390 . S
C1395 C1392 1.386 . S
C1396 C1391 1.490 . S
C1396 C1398 1.395 . S
C1396 C1399 1.403 . S
H1397 C1403 0.930 . S
C1398 H1384 0.930 . S
C1398 C1396 1.395 . S
C1398 C1401 1.403 . S
C1399 C1396 1.403 . S
C1399 C1400 1.524 . S
C1399 C1403 1.400 . S
C1400 H1385 0.960 . S
C1400 H1386 0.960 . S
C1400 H1387 0.960 . S
C1400 C1399 1.524 . S
C1401 C1398 1.403 . S
C1401 C1402 1.392 . S
C1401 C1405 1.495 . S
C1402 C1401 1.392 . S
C1402 C1403 1.385 . S
C1402 C1404 1.478 . S
C1403 H1397 0.930 . S
C1403 C1399 1.400 . S
C1403 C1402 1.385 . S
C1404 C1402 1.478 . S
C1404 C1406 1.381 . S
C1404 C1410 1.383 . S
C1405 C1401 1.495 . S
C1405 H1411 0.959 . S
C1405 H1412 0.961 . S
C1405 H1413 0.960 . S
C1406 C1404 1.381 . S
C1406 C1407 1.394 . S
C1406 H1414 0.930 . S
C1407 C1406 1.394 . S
C1407 C1408 1.383 . S
C1407 H1415 0.929 . S
C1408 C1407 1.383 . S
C1408 C1409 1.377 . S
C1409 H1393 0.930 . S
C1409 C1408 1.377 . S
C1409 C1410 1.379 . S
C1410 H1394 0.931 . S
C1410 C1404 1.383 . S
C1410 C1409 1.379 . S
H1411 C1405 0.959 . S
H1412 C1405 0.961 . S
H1413 C1405 0.960 . S
H1414 C1406 0.930 . S
H1415 C1407 0.929 . S
H1416 C1424 0.929 . S
H1417 C1426 0.930 . S
H1418 C1428 0.930 . S
H1419 C1431 0.929 . S
H1420 C1434 0.930 . S
H1421 C1436 0.960 . S
H1422 C1436 0.960 . S
H1423 C1436 0.960 . S
C1424 H1416 0.929 . S
C1424 C1425 1.377 . S
C1424 C1426 1.384 . S
C1425 C1424 1.377 . S
C1425 C1431 1.390 . S
C1426 H1417 0.930 . S
C1426 C1424 1.384 . S
C1426 C1427 1.372 . S
C1427 C1426 1.372 . S
C1427 C1428 1.400 . S
C1427 C1432 1.490 . S
C1428 H1418 0.930 . S
C1428 C1427 1.400 . S
C1428 C1431 1.386 . S
H1429 C1445 0.930 . S
H1430 C1446 0.931 . S
C1431 H1419 0.929 . S
C1431 C1425 1.390 . S
C1431 C1428 1.386 . S
C1432 C1427 1.490 . S
C1432 C1434 1.395 . S
C1432 C1435 1.403 . S
H1433 C1439 0.930 . S
C1434 H1420 0.930 . S
C1434 C1432 1.395 . S
C1434 C1437 1.403 . S
C1435 C1432 1.403 . S
C1435 C1436 1.524 . S
C1435 C1439 1.400 . S
C1436 H1421 0.960 . S
C1436 H1422 0.960 . S
C1436 H1423 0.960 . S
C1436 C1435 1.524 . S
C1437 C1434 1.403 . S
C1437 C1438 1.392 . S
C1437 C1441 1.495 . S
C1438 C1437 1.392 . S
C1438 C1439 1.385 . S
C1438 C1440 1.478 . S
C1439 H1433 0.930 . S
C1439 C1435 1.400 . S
C1439 C1438 1.385 . S
C1440 C1438 1.478 . S
C1440 C1442 1.381 . S
C1440 C1446 1.383 . S
C1441 C1437 1.495 . S
C1441 H1447 0.959 . S
C1441 H1448 0.961 . S
C1441 H1449 0.960 . S
C1442 C1440 1.381 . S
C1442 C1443 1.394 . S
C1442 H1450 0.930 . S
C1443 C1442 1.394 . S
C1443 C1444 1.383 . S
C1443 H1451 0.929 . S
C1444 C1443 1.383 . S
C1444 C1445 1.377 . S
C1445 H1429 0.930 . S
C1445 C1444 1.377 . S
C1445 C1446 1.379 . S
C1446 H1430 0.931 . S
C1446 C1440 1.383 . S
C1446 C1445 1.379 . S
H1447 C1441 0.959 . S
H1448 C1441 0.961 . S
H1449 C1441 0.960 . S
H1450 C1442 0.930 . S
H1451 C1443 0.929 . S
H1452 C1460 0.929 . S
H1453 C1462 0.930 . S
H1454 C1464 0.930 . S
H1455 C1467 0.929 . S
H1456 C1470 0.930 . S
H1457 C1472 0.960 . S
H1458 C1472 0.960 . S
H1459 C1472 0.960 . S
C1460 H1452 0.929 . S
C1460 C1461 1.377 . S
C1460 C1462 1.384 . S
C1461 C1460 1.377 . S
C1461 C1467 1.390 . S
C1462 H1453 0.930 . S
C1462 C1460 1.384 . S
C1462 C1463 1.372 . S
C1463 C1462 1.372 . S
C1463 C1464 1.400 . S
C1463 C1468 1.490 . S
C1464 H1454 0.930 . S
C1464 C1463 1.400 . S
C1464 C1467 1.386 . S
H1465 C1481 0.930 . S
H1466 C1482 0.931 . S
C1467 H1455 0.929 . S
C1467 C1461 1.390 . S
C1467 C1464 1.386 . S
C1468 C1463 1.490 . S
C1468 C1470 1.395 . S
C1468 C1471 1.403 . S
H1469 C1475 0.930 . S
C1470 H1456 0.930 . S
C1470 C1468 1.395 . S
C1470 C1473 1.403 . S
C1471 C1468 1.403 . S
C1471 C1472 1.524 . S
C1471 C1475 1.400 . S
C1472 H1457 0.960 . S
C1472 H1458 0.960 . S
C1472 H1459 0.960 . S
C1472 C1471 1.524 . S
C1473 C1470 1.403 . S
C1473 C1474 1.392 . S
C1473 C1477 1.495 . S
C1474 C1473 1.392 . S
C1474 C1475 1.385 . S
C1474 C1476 1.478 . S
C1475 H1469 0.930 . S
C1475 C1471 1.400 . S
C1475 C1474 1.385 . S
C1476 C1474 1.478 . S
C1476 C1478 1.381 . S
C1476 C1482 1.383 . S
C1477 C1473 1.495 . S
C1477 H1483 0.959 . S
C1477 H1484 0.961 . S
C1477 H1485 0.960 . S
C1478 C1476 1.381 . S
C1478 C1479 1.394 . S
C1478 H1486 0.930 . S
C1479 C1478 1.394 . S
C1479 C1480 1.383 . S
C1479 H1487 0.929 . S
C1480 C1479 1.383 . S
C1480 C1481 1.377 . S
C1481 H1465 0.930 . S
C1481 C1480 1.377 . S
C1481 C1482 1.379 . S
C1482 H1466 0.931 . S
C1482 C1476 1.383 . S
C1482 C1481 1.379 . S
H1483 C1477 0.959 . S
H1484 C1477 0.961 . S
H1485 C1477 0.960 . S
H1486 C1478 0.930 . S
H1487 C1479 0.929 . S
H1488 C1496 0.929 . S
H1489 C1498 0.930 . S
H1490 C1500 0.930 . S
H1491 C1503 0.929 . S
H1492 C1506 0.930 . S
H1493 C1508 0.960 . S
H1494 C1508 0.960 . S
H1495 C1508 0.960 . S
C1496 H1488 0.929 . S
C1496 C1497 1.377 . S
C1496 C1498 1.384 . S
C1497 C1496 1.377 . S
C1497 C1503 1.390 . S
C1498 H1489 0.930 . S
C1498 C1496 1.384 . S
C1498 C1499 1.372 . S
C1499 C1498 1.372 . S
C1499 C1500 1.400 . S
C1499 C1504 1.490 . S
C1500 H1490 0.930 . S
C1500 C1499 1.400 . S
C1500 C1503 1.386 . S
H1501 C1517 0.930 . S
H1502 C1518 0.931 . S
C1503 H1491 0.929 . S
C1503 C1497 1.390 . S
C1503 C1500 1.386 . S
C1504 C1499 1.490 . S
C1504 C1506 1.395 . S
C1504 C1507 1.403 . S
H1505 C1511 0.930 . S
C1506 H1492 0.930 . S
C1506 C1504 1.395 . S
C1506 C1509 1.403 . S
C1507 C1504 1.403 . S
C1507 C1508 1.524 . S
C1507 C1511 1.400 . S
C1508 H1493 0.960 . S
C1508 H1494 0.960 . S
C1508 H1495 0.960 . S
C1508 C1507 1.524 . S
C1509 C1506 1.403 . S
C1509 C1510 1.392 . S
C1509 C1513 1.495 . S
C1510 C1509 1.392 . S
C1510 C1511 1.385 . S
C1510 C1512 1.478 . S
C1511 H1505 0.930 . S
C1511 C1507 1.400 . S
C1511 C1510 1.385 . S
C1512 C1510 1.478 . S
C1512 C1514 1.381 . S
C1512 C1518 1.383 . S
C1513 C1509 1.495 . S
C1513 H1519 0.959 . S
C1513 H1520 0.961 . S
C1513 H1521 0.960 . S
C1514 C1512 1.381 . S
C1514 C1515 1.394 . S
C1514 H1522 0.930 . S
C1515 C1514 1.394 . S
C1515 C1516 1.383 . S
C1515 H1523 0.929 . S
C1516 C1515 1.383 . S
C1516 C1517 1.377 . S
C1517 H1501 0.930 . S
C1517 C1516 1.377 . S
C1517 C1518 1.379 . S
C1518 H1502 0.931 . S
C1518 C1512 1.383 . S
C1518 C1517 1.379 . S
H1519 C1513 0.959 . S
H1520 C1513 0.961 . S
H1521 C1513 0.960 . S
H1522 C1514 0.930 . S
H1523 C1515 0.929 . S
H1524 C1532 0.929 . S
H1525 C1534 0.930 . S
H1526 C1536 0.930 . S
H1527 C1539 0.929 . S
H1528 C1542 0.930 . S
H1529 C1544 0.960 . S
H1530 C1544 0.960 . S
H1531 C1544 0.960 . S
C1532 H1524 0.929 . S
C1532 C1533 1.377 . S
C1532 C1534 1.384 . S
C1533 C1532 1.377 . S
C1533 C1539 1.390 . S
C1534 H1525 0.930 . S
C1534 C1532 1.384 . S
C1534 C1535 1.372 . S
C1535 C1534 1.372 . S
C1535 C1536 1.400 . S
C1535 C1540 1.490 . S
C1536 H1526 0.930 . S
C1536 C1535 1.400 . S
C1536 C1539 1.386 . S
H1537 C1553 0.930 . S
H1538 C1554 0.931 . S
C1539 H1527 0.929 . S
C1539 C1533 1.390 . S
C1539 C1536 1.386 . S
C1540 C1535 1.490 . S
C1540 C1542 1.395 . S
C1540 C1543 1.403 . S
H1541 C1547 0.930 . S
C1542 H1528 0.930 . S
C1542 C1540 1.395 . S
C1542 C1545 1.403 . S
C1543 C1540 1.403 . S
C1543 C1544 1.524 . S
C1543 C1547 1.400 . S
C1544 H1529 0.960 . S
C1544 H1530 0.960 . S
C1544 H1531 0.960 . S
C1544 C1543 1.524 . S
C1545 C1542 1.403 . S
C1545 C1546 1.392 . S
C1545 C1549 1.495 . S
C1546 C1545 1.392 . S
C1546 C1547 1.385 . S
C1546 C1548 1.478 . S
C1547 H1541 0.930 . S
C1547 C1543 1.400 . S
C1547 C1546 1.385 . S
C1548 C1546 1.478 . S
C1548 C1550 1.381 . S
C1548 C1554 1.383 . S
C1549 C1545 1.495 . S
C1549 H1555 0.959 . S
C1549 H1556 0.961 . S
C1549 H1557 0.960 . S
C1550 C1548 1.381 . S
C1550 C1551 1.394 . S
C1550 H1558 0.930 . S
C1551 C1550 1.394 . S
C1551 C1552 1.383 . S
C1551 H1559 0.929 . S
C1552 C1551 1.383 . S
C1552 C1553 1.377 . S
C1553 H1537 0.930 . S
C1553 C1552 1.377 . S
C1553 C1554 1.379 . S
C1554 H1538 0.931 . S
C1554 C1548 1.383 . S
C1554 C1553 1.379 . S
H1555 C1549 0.959 . S
H1556 C1549 0.961 . S
H1557 C1549 0.960 . S
H1558 C1550 0.930 . S
H1559 C1551 0.929 . S
C273 C7 1.170 . S
C292 C182 1.172 . S
C309 C204 1.166 . S
C328 C29 1.180 . S
C345 C51 1.165 . S
C364 C226 1.148 . S
C381 C248 1.169 . S
C400 C73 1.175 . S
C417 C95 1.170 . S
C436 C138 1.153 . S
C453 C160 1.163 . S
C472 C117 1.170 . S
C489 C251 1.166 . S
C508 C71 1.156 . S
C525 C93 1.169 . S
C544 C141 1.184 . S
C561 C163 1.171 . S
C580 C115 1.183 . S
C597 C185 1.164 . S
C616 C5 1.148 . S
C633 C207 1.166 . S
C652 C27 1.157 . S
C669 C49 1.164 . S
C688 C229 1.149 . S
C705 C159 1.218 . S
C724 C9 1.198 . S
C741 C181 1.224 . S
C760 C31 1.226 . S
C777 C203 1.226 . S
C796 C53 1.236 . S
C813 C75 1.226 . S
C832 C225 1.234 . S
C849 C97 1.220 . S
C868 C247 1.210 . S
C885 C137 1.219 . S
C904 C119 1.204 . S
C921 C227 1.220 . S
C940 C72 1.243 . S
C957 C94 1.226 . S
C976 C249 1.215 . S
C993 C139 1.226 . S
C1012 C116 1.219 . S
C1029 C161 1.220 . S
C1048 C6 1.243 . S
C1065 C28 1.218 . S
C1084 C183 1.228 . S
C1101 C50 1.226 . S
C1120 C205 1.202 . S
C1137 C8 1.563 . S
C1156 C224 1.574 . S
C1173 C30 1.565 . S
C1192 C246 1.573 . S
C1209 C136 1.563 . S
C1228 C52 1.574 . S
C1245 C158 1.563 . S
C1264 C74 1.542 . S
C1281 C96 1.560 . S
C1300 C180 1.557 . S
C1317 C202 1.560 . S
C1336 C118 1.551 . S
C1353 C70 1.567 . S
C1372 C162 1.576 . S
C1389 C92 1.562 . S
C1408 C184 1.564 . S
C1425 C206 1.565 . S
C1444 C114 1.563 . S
C1461 C228 1.564 . S
C1480 C4 1.556 . S
C1497 C250 1.562 . S
C1516 C26 1.548 . S
C1533 C140 1.567 . S
C1552 C48 1.577 . S
