# Generated by pormake.
# Topology unj, (4)-cn, num edge types: 1
# Building blocks:
#     Node 0, Type 0, BuildingBlock: KUFVIS_clean_sbu_0, # of connection points: 4
#     Node 1, Type 0, BuildingBlock: KUFVIS_clean_sbu_0, # of connection points: 4
#     Node 2, Type 0, BuildingBlock: KUFVIS_clean_sbu_0, # of connection points: 4
#     Node 3, Type 0, BuildingBlock: KUFVIS_clean_sbu_0, # of connection points: 4
#     Node 4, Type 0, BuildingBlock: KUFVIS_clean_sbu_0, # of connection points: 4
#     Node 5, Type 0, BuildingBlock: KUFVIS_clean_sbu_0, # of connection points: 4
#     Edge 6, Type (0, 0), BuildingBlock: MIFKUJ_clean_linker_0, # of connection points: 2
#     Edge 7, Type (0, 0), BuildingBlock: MIFKUJ_clean_linker_0, # of connection points: 2
#     Edge 8, Type (0, 0), BuildingBlock: MIFKUJ_clean_linker_0, # of connection points: 2
#     Edge 9, Type (0, 0), BuildingBlock: MIFKUJ_clean_linker_0, # of connection points: 2
#     Edge 10, Type (0, 0), BuildingBlock: MIFKUJ_clean_linker_0, # of connection points: 2
#     Edge 11, Type (0, 0), BuildingBlock: MIFKUJ_clean_linker_0, # of connection points: 2
#     Edge 12, Type (0, 0), BuildingBlock: MIFKUJ_clean_linker_0, # of connection points: 2
#     Edge 13, Type (0, 0), BuildingBlock: MIFKUJ_clean_linker_0, # of connection points: 2
#     Edge 14, Type (0, 0), BuildingBlock: MIFKUJ_clean_linker_0, # of connection points: 2
#     Edge 15, Type (0, 0), BuildingBlock: MIFKUJ_clean_linker_0, # of connection points: 2
#     Edge 16, Type (0, 0), BuildingBlock: MIFKUJ_clean_linker_0, # of connection points: 2
#     Edge 17, Type (0, 0), BuildingBlock: MIFKUJ_clean_linker_0, # of connection points: 2
# Relax obj value: 0.013
# Max RMSD: 0.054
# Mean RMSD: 0.054
data_MOF--net-unj--node1-KUFVIS_clean_sbu_0--edge1-MIFKUJ_clean_linker_0
_symmetry_space_group_name_H-M    P1
_symmetry_Int_Tables_number       1
_symmetry_cell_setting            triclinic
loop_
_symmetry_equiv_pos_as_xyz
'x, y, z'
_cell_length_a     42.811019
_cell_length_b     42.869413
_cell_length_c     45.78795
_cell_angle_alpha  90.014331
_cell_angle_beta   89.725699
_cell_angle_gamma 119.77013
loop_
_atom_site_label
_atom_site_type_symbol
_atom_site_fract_x
_atom_site_fract_y
_atom_site_fract_z
_atom_type_partial_charge
Mn0 Mn 0.50155 0.24045 0.60088 0.0
Mn1 Mn 0.57232 0.23117 0.57989 0.0
C2 C 0.53165 0.22494 0.63498 0.0
C3 C 0.47706 0.2757 0.61695 0.0
C4 C 0.49493 0.17407 0.56905 0.0
O5 O 0.51556 0.26671 0.56172 0.0
O6 O 0.56212 0.25847 0.5501 0.0
C7 C 0.6284 0.30797 0.58326 0.0
N8 N 0.616 0.27305 0.59096 0.0
C9 C 0.66973 0.2889 0.61823 0.0
C10 C 0.68316 0.32501 0.6105 0.0
C11 C 0.66231 0.33459 0.59307 0.0
C12 C 0.63566 0.2636 0.60796 0.0
H13 H 0.61256 0.31546 0.56976 0.0
C14 C 0.54112 0.271 0.54476 0.0
O15 O 0.45766 0.24542 0.60356 0.0
O16 O 0.51074 0.28565 0.62085 0.0
N17 N 0.58615 0.20582 0.6064 0.0
C18 C 0.56848 0.17015 0.61318 0.0
C19 C 0.58576 0.1561 0.63027 0.0
C20 C 0.621 0.17886 0.64003 0.0
C21 C 0.6383 0.21557 0.63336 0.0
C22 C 0.62003 0.22791 0.61583 0.0
H23 H 0.54162 0.15248 0.60528 0.0
O24 O 0.49875 0.2176 0.63961 0.0
O25 O 0.54615 0.2413 0.61048 0.0
O26 O 0.48064 0.19132 0.58033 0.0
O27 O 0.52889 0.1865 0.56798 0.0
C28 C 0.67299 0.24037 0.64341 0.0
C29 C 0.68858 0.27708 0.63603 0.0
H30 H 0.70932 0.34562 0.61799 0.0
H31 H 0.67239 0.36243 0.58717 0.0
H32 H 0.57219 0.12775 0.63555 0.0
H33 H 0.63478 0.16788 0.65229 0.0
H34 H 0.68771 0.23157 0.65712 0.0
H35 H 0.71503 0.296 0.64425 0.0
Mn36 Mn 0.27392 0.49478 0.76924 0.0
Mn37 Mn 0.35435 0.5668 0.75286 0.0
C38 C 0.31794 0.52152 0.80504 0.0
C39 C 0.21372 0.47016 0.78371 0.0
C40 C 0.3322 0.49051 0.73398 0.0
O41 O 0.26471 0.51286 0.73047 0.0
O42 O 0.31729 0.56502 0.72597 0.0
C43 C 0.33968 0.62532 0.76879 0.0
N44 N 0.36017 0.60932 0.77131 0.0
C45 C 0.40264 0.65698 0.80198 0.0
C46 C 0.38245 0.67442 0.79915 0.0
C47 C 0.35059 0.6583 0.78275 0.0
C48 C 0.39018 0.62398 0.78784 0.0
H49 H 0.31509 0.61283 0.75641 0.0
C50 C 0.28488 0.54323 0.71813 0.0
O51 O 0.22491 0.45153 0.76921 0.0
O52 O 0.23738 0.50329 0.78941 0.0
N53 N 0.39246 0.57197 0.77771 0.0
C54 C 0.40678 0.54998 0.7806 0.0
C55 C 0.43728 0.56082 0.79814 0.0
C56 C 0.45307 0.59439 0.8121 0.0
C57 C 0.43796 0.61663 0.80865 0.0
C58 C 0.40729 0.60418 0.79123 0.0
H59 H 0.39506 0.52436 0.76966 0.0
O60 O 0.29193 0.48868 0.80829 0.0
O61 O 0.31708 0.53746 0.7813 0.0
O62 O 0.30247 0.4749 0.74796 0.0
O63 O 0.35227 0.52465 0.73314 0.0
C64 C 0.45203 0.6506 0.8219 0.0
C65 C 0.43435 0.67076 0.81859 0.0
H66 H 0.39085 0.69991 0.80983 0.0
H67 H 0.33456 0.67131 0.78082 0.0
H68 H 0.44874 0.54346 0.80071 0.0
H69 H 0.47667 0.60273 0.82551 0.0
H70 H 0.47595 0.66114 0.83525 0.0
H71 H 0.44492 0.69645 0.8295 0.0
Mn72 Mn 0.78928 0.26252 0.93347 0.0
Mn73 Mn 0.799 0.34413 0.91834 0.0
C74 C 0.80448 0.30494 0.97007 0.0
C75 C 0.75368 0.20211 0.94683 0.0
C76 C 0.85537 0.32365 0.90271 0.0
O77 O 0.76333 0.25415 0.89455 0.0
O78 O 0.77034 0.30937 0.88723 0.0
C79 C 0.72288 0.32578 0.92478 0.0
N80 N 0.75799 0.34607 0.93271 0.0
C81 C 0.74356 0.37999 0.96665 0.0
C82 C 0.70725 0.35951 0.95878 0.0
C83 C 0.69688 0.33229 0.93776 0.0
C84 C 0.76828 0.37238 0.95287 0.0
H85 H 0.71476 0.3048 0.90867 0.0
C86 C 0.75823 0.27652 0.87981 0.0
O87 O 0.78391 0.21354 0.93289 0.0
O88 O 0.74384 0.22564 0.95257 0.0
N89 N 0.82577 0.38027 0.94683 0.0
C90 C 0.86164 0.39671 0.95274 0.0
C91 C 0.87633 0.42439 0.97351 0.0
C92 C 0.85406 0.43502 0.98786 0.0
C93 C 0.81727 0.41785 0.9813 0.0
C94 C 0.80422 0.39069 0.96019 0.0
H95 H 0.8789 0.38867 0.9418 0.0
O96 O 0.81182 0.27913 0.97283 0.0
O97 O 0.78863 0.30519 0.94602 0.0
O98 O 0.83848 0.29179 0.91312 0.0
O99 O 0.84284 0.34517 0.9034 0.0
C100 C 0.79295 0.42628 0.99519 0.0
C101 C 0.75611 0.4073 0.98792 0.0
H102 H 0.68708 0.36434 0.96884 0.0
H103 H 0.6689 0.31634 0.9316 0.0
H104 H 0.90473 0.43747 0.97849 0.0
H105 H 0.86548 0.45629 1.00393 0.0
H106 H 0.80223 0.447 0.01174 0.0
H107 H 0.7376 0.41373 0.99898 0.0
Mn108 Mn 0.53368 0.782 0.10145 0.0
Mn109 Mn 0.46255 0.79159 0.08287 0.0
C110 C 0.50576 0.7995 0.13637 0.0
C111 C 0.55828 0.74686 0.11712 0.0
C112 C 0.53969 0.84692 0.06804 0.0
O113 O 0.51758 0.75451 0.06293 0.0
O114 O 0.46985 0.76154 0.0538 0.0
C115 C 0.40516 0.71586 0.09067 0.0
N116 N 0.41899 0.75139 0.09676 0.0
C117 C 0.36719 0.7392 0.12587 0.0
C118 C 0.35229 0.70247 0.11981 0.0
C119 C 0.37144 0.69075 0.10223 0.0
C120 C 0.40095 0.76292 0.11384 0.0
H121 H 0.41973 0.70676 0.07708 0.0
C122 C 0.49053 0.74887 0.04747 0.0
O123 O 0.57722 0.77646 0.10259 0.0
O124 O 0.52489 0.73742 0.12227 0.0
N125 N 0.45156 0.81963 0.10897 0.0
C126 C 0.47059 0.85568 0.11402 0.0
C127 C 0.45509 0.87182 0.13094 0.0
C128 C 0.4202 0.85074 0.14233 0.0
C129 C 0.40152 0.81361 0.1375 0.0
C130 C 0.41804 0.79914 0.12002 0.0
H131 H 0.49715 0.87206 0.10484 0.0
O132 O 0.53866 0.80641 0.13985 0.0
O133 O 0.49001 0.78237 0.1126 0.0
O134 O 0.55422 0.83025 0.07972 0.0
O135 O 0.50574 0.83467 0.06794 0.0
C136 C 0.36714 0.7904 0.14928 0.0
C137 C 0.35011 0.75317 0.14367 0.0
H138 H 0.32629 0.68303 0.12868 0.0
H139 H 0.36018 0.66244 0.09754 0.0
H140 H 0.46973 0.90049 0.13481 0.0
H141 H 0.40776 0.86335 0.15441 0.0
H142 H 0.35377 0.80085 0.163 0.0
H143 H 0.32393 0.7355 0.15322 0.0
Mn144 Mn 0.76314 0.52686 0.2656 0.0
Mn145 Mn 0.68288 0.45555 0.2474 0.0
C146 C 0.71854 0.49801 0.30098 0.0
C147 C 0.82309 0.55245 0.28073 0.0
C148 C 0.70229 0.53234 0.23468 0.0
O149 O 0.77455 0.51165 0.22645 0.0
O150 O 0.71953 0.46517 0.21685 0.0
C151 C 0.70453 0.3999 0.25124 0.0
N152 N 0.68192 0.41229 0.25907 0.0
C153 C 0.64479 0.35888 0.28713 0.0
C154 C 0.66757 0.34544 0.27925 0.0
C155 C 0.69765 0.36613 0.26133 0.0
C156 C 0.65314 0.3928 0.27653 0.0
H157 H 0.72759 0.41563 0.23737 0.0
C158 C 0.75269 0.48577 0.21027 0.0
O159 O 0.81151 0.57096 0.26667 0.0
O160 O 0.8 0.51884 0.28554 0.0
N161 N 0.64435 0.44217 0.27466 0.0
C162 C 0.62612 0.45978 0.28139 0.0
C163 C 0.59496 0.44258 0.29878 0.0
C164 C 0.58285 0.40745 0.30887 0.0
C165 C 0.60251 0.39023 0.30229 0.0
C166 C 0.63294 0.40842 0.28444 0.0
H167 H 0.63499 0.48652 0.2732 0.0
O168 O 0.74396 0.53101 0.30449 0.0
O169 O 0.7199 0.48261 0.27687 0.0
O170 O 0.73417 0.54686 0.24488 0.0
O171 O 0.68074 0.49847 0.23491 0.0
C172 C 0.59305 0.35569 0.31268 0.0
C173 C 0.61436 0.34015 0.3053 0.0
H174 H 0.66232 0.31938 0.28696 0.0
H175 H 0.71543 0.356 0.25524 0.0
H176 H 0.57998 0.45609 0.30399 0.0
H177 H 0.55815 0.39368 0.32128 0.0
H178 H 0.56969 0.34103 0.32663 0.0
H179 H 0.60714 0.3138 0.31376 0.0
Mn180 Mn 0.24489 0.75743 0.43466 0.0
Mn181 Mn 0.23674 0.67869 0.41152 0.0
C182 C 0.22985 0.71075 0.46772 0.0
C183 C 0.27926 0.81639 0.45205 0.0
C184 C 0.17941 0.69927 0.40147 0.0
O185 O 0.27166 0.77132 0.39562 0.0
O186 O 0.26481 0.71749 0.38289 0.0
C187 C 0.31344 0.69842 0.41554 0.0
N188 N 0.27823 0.67571 0.42231 0.0
C189 C 0.29293 0.63547 0.44751 0.0
C190 C 0.32935 0.65832 0.44069 0.0
C191 C 0.33966 0.69006 0.42482 0.0
C192 C 0.26806 0.64531 0.43783 0.0
H193 H 0.32145 0.72273 0.40321 0.0
C194 C 0.27685 0.751 0.37829 0.0
O195 O 0.24906 0.80574 0.43855 0.0
O196 O 0.2897 0.79287 0.45526 0.0
N197 N 0.21061 0.63841 0.43686 0.0
C198 C 0.17486 0.62084 0.44357 0.0
C199 C 0.16011 0.58858 0.45946 0.0
C200 C 0.18227 0.57477 0.46823 0.0
C201 C 0.21913 0.59377 0.46169 0.0
C202 C 0.23215 0.62536 0.44528 0.0
H203 H 0.15766 0.63112 0.43654 0.0
O204 O 0.22185 0.73571 0.47308 0.0
O205 O 0.24632 0.71363 0.44303 0.0
O206 O 0.19595 0.73 0.41376 0.0
O207 O 0.1924 0.67824 0.39959 0.0
C208 C 0.24348 0.58271 0.47093 0.0
C209 C 0.28041 0.6037 0.46403 0.0
H210 H 0.34966 0.65198 0.4478 0.0
H211 H 0.36774 0.70797 0.41969 0.0
H212 H 0.13167 0.57419 0.46463 0.0
H213 H 0.17071 0.54951 0.47994 0.0
H214 H 0.23418 0.55843 0.48376 0.0
H215 H 0.29899 0.59531 0.47174 0.0
H216 H 0.42248 0.14112 0.55685 0.0
H217 H 0.3845 0.08125 0.53621 0.0
H218 H 0.47562 0.0641 0.53377 0.0
H219 H 0.51382 0.12404 0.55341 0.0
H220 H 0.44071 0.04074 0.48568 0.0
H221 H 0.40629 0.02505 0.58684 0.0
H222 H 0.38468 0.03776 0.6329 0.0
H223 H 0.28542 0.01415 0.59174 0.0
H224 H 0.30665 1.00175 0.5453 0.0
H225 H 0.34829 0.8498 0.47261 0.0
H226 H 0.38331 0.91112 0.49151 0.0
H227 H 0.29352 0.92818 0.47671 0.0
H228 H 0.25844 0.86701 0.45749 0.0
H229 H 0.32558 0.95174 0.53215 0.0
H230 H 0.36094 0.96482 0.43114 0.0
H231 H 0.38345 0.95052 0.38634 0.0
H232 H 0.48261 0.97746 0.4293 0.0
H233 H 0.46047 0.99141 0.47453 0.0
C234 C 0.43442 0.12459 0.55196 0.0
C235 C 0.47128 0.13755 0.55686 0.0
C236 C 0.41261 0.09022 0.54025 0.0
C237 C 0.427 0.06778 0.53368 0.0
C238 C 0.46378 0.08077 0.53853 0.0
C239 C 0.48563 0.11516 0.54988 0.0
C240 C 0.40409 0.03095 0.52151 0.0
C241 C 0.41577 0.02123 0.49611 0.0
C242 C 0.37106 1.00548 0.53462 0.0
C243 C 0.35822 0.01285 0.56252 0.0
C244 C 0.37996 0.02284 0.58755 0.0
C245 C 0.36777 0.02994 0.61374 0.0
C246 C 0.33375 0.02687 0.61522 0.0
C247 C 0.3118 0.01658 0.59054 0.0
C248 C 0.32388 1.00949 0.56429 0.0
C249 C 0.336 0.8666 0.47334 0.0
C250 C 0.30061 0.85355 0.46346 0.0
C251 C 0.35608 0.90167 0.48409 0.0
C252 C 0.3411 0.92431 0.4854 0.0
C253 C 0.30562 0.9112 0.4759 0.0
C254 C 0.28567 0.87628 0.46481 0.0
C255 C 0.36252 0.96166 0.49665 0.0
C256 C 0.35051 0.97141 0.52178 0.0
C257 C 0.39545 0.98703 0.48352 0.0
C258 C 0.40889 0.97882 0.45631 0.0
C259 C 0.38742 0.9674 0.43111 0.0
C260 C 0.40014 0.95941 0.40563 0.0
C261 C 0.4344 0.96299 0.405 0.0
C262 C 0.45606 0.97465 0.42983 0.0
C263 C 0.44345 0.98264 0.45539 0.0
H264 H 0.4442 0.95679 0.38524 0.0
H265 H 0.32435 0.03237 0.63551 0.0
H266 H 0.40595 0.25506 0.62408 0.0
H267 H 0.38024 0.29087 0.64281 0.0
H268 H 0.48698 0.38229 0.65158 0.0
H269 H 0.51281 0.34599 0.63412 0.0
H270 H 0.451 0.37977 0.69679 0.0
H271 H 0.42567 0.37277 0.59458 0.0
H272 H 0.40227 0.34335 0.54711 0.0
H273 H 0.29528 0.28681 0.58284 0.0
H274 H 0.31812 0.31556 0.63064 0.0
H275 H 0.39926 0.51247 0.71122 0.0
H276 H 0.422 0.47538 0.6899 0.0
H277 H 0.31805 0.38092 0.70172 0.0
H278 H 0.2949 0.41781 0.72332 0.0
H279 H 0.35137 0.38488 0.64624 0.0
H280 H 0.37962 0.39515 0.74893 0.0
H281 H 0.40493 0.42921 0.79435 0.0
H282 H 0.5098 0.4846 0.75466 0.0
H283 H 0.48499 0.45126 0.70881 0.0
C284 C 0.42393 0.28283 0.62992 0.0
C285 C 0.46142 0.29772 0.62754 0.0
C286 C 0.40918 0.30341 0.64049 0.0
C287 C 0.43154 0.33963 0.6482 0.0
C288 C 0.46904 0.35448 0.64581 0.0
C289 C 0.48382 0.33372 0.63574 0.0
C290 C 0.416 0.36181 0.65936 0.0
C291 C 0.42956 0.38117 0.68542 0.0
C292 C 0.3875 0.36337 0.64498 0.0
C293 C 0.37367 0.34604 0.61627 0.0
C294 C 0.3972 0.35386 0.59237 0.0
C295 C 0.38403 0.33734 0.5654 0.0
C296 C 0.34733 0.31315 0.56199 0.0
C297 C 0.3237 0.30551 0.58553 0.0
C298 C 0.33674 0.32193 0.61256 0.0
C299 C 0.38102 0.48386 0.70912 0.0
C300 C 0.34521 0.46816 0.71918 0.0
C301 C 0.39416 0.46268 0.69697 0.0
C302 C 0.37182 0.42537 0.69445 0.0
C303 C 0.33576 0.40968 0.70351 0.0
C304 C 0.32263 0.43081 0.71595 0.0
C305 C 0.38658 0.4027 0.68335 0.0
C306 C 0.37282 0.3833 0.65744 0.0
C307 C 0.41525 0.40153 0.69757 0.0
C308 C 0.43038 0.42093 0.72536 0.0
C309 C 0.40804 0.41474 0.74983 0.0
C310 C 0.42229 0.43391 0.77565 0.0
C311 C 0.45893 0.45912 0.77737 0.0
C312 C 0.48142 0.46509 0.75329 0.0
C313 C 0.46728 0.44605 0.72739 0.0
H314 H 0.46991 0.47398 0.79736 0.0
H315 H 0.33718 0.3004 0.54108 0.0
H316 H 0.90497 0.39282 0.88818 0.0
H317 H 0.96436 0.415 0.86662 0.0
H318 H 0.9476 0.30713 0.8648 0.0
H319 H 0.88821 0.2847 0.88735 0.0
H320 H 1.01319 0.35126 0.88196 0.0
H321 H 0.94233 0.35041 0.80187 0.0
H322 H 0.89979 0.36297 0.77531 0.0
H323 H 0.97223 0.47638 0.78358 0.0
H324 H 1.01501 0.46452 0.81057 0.0
H325 H 0.16245 0.39901 0.78523 0.0
H326 H 0.10078 0.37224 0.80409 0.0
H327 H 0.11772 0.4778 0.82408 0.0
H328 H 0.1796 0.50478 0.80561 0.0
H329 H 0.05119 0.43181 0.79545 0.0
H330 H 0.12084 0.43018 0.87756 0.0
H331 H 0.16273 0.41548 0.90269 0.0
H332 H 0.09098 0.30307 0.88784 0.0
H333 H 0.04887 0.31716 0.86223 0.0
C334 C 0.91373 0.37366 0.88317 0.0
C335 C 0.89157 0.33686 0.8894 0.0
C336 C 0.94777 0.38644 0.87065 0.0
C337 C 0.96033 0.36271 0.8635 0.0
C338 C 0.9385 0.32599 0.86999 0.0
C339 C 0.90449 0.31319 0.88284 0.0
C340 C 0.99647 0.37651 0.8497 0.0
C341 C 0.0212 0.36836 0.86274 0.0
C342 C 1.00732 0.39927 0.82481 0.0
C343 C 0.98174 0.40656 0.80847 0.0
C344 C 0.94908 0.37804 0.79821 0.0
C345 C 0.92494 0.38503 0.78305 0.0
C346 C 0.93327 0.42045 0.77782 0.0
C347 C 0.9658 0.44895 0.78767 0.0
C348 C 0.99003 0.44211 0.80288 0.0
C349 C 0.15302 0.41655 0.79353 0.0
C350 C 0.17594 0.45403 0.79399 0.0
C351 C 0.11781 0.40119 0.80438 0.0
C352 C 0.10475 0.42302 0.81563 0.0
C353 C 0.12728 0.46048 0.8155 0.0
C354 C 0.16266 0.47583 0.80502 0.0
C355 C 0.06774 0.4068 0.82792 0.0
C356 C 0.04293 0.41451 0.81455 0.0
C357 C 0.05668 0.38326 0.85223 0.0
C358 C 0.08191 0.37476 0.86769 0.0
C359 C 0.11415 0.40235 0.87942 0.0
C360 C 0.1379 0.39413 0.89379 0.0
C361 C 0.12957 0.35837 0.89678 0.0
C362 C 0.09742 0.33076 0.88546 0.0
C363 C 0.07359 0.33885 0.87103 0.0
H364 H 0.14799 0.35205 0.90793 0.0
H365 H 0.91454 0.42581 0.76608 0.0
H366 H 0.52059 0.89604 0.0503 0.0
H367 H 0.55846 0.95454 0.02788 0.0
H368 H 0.64953 0.93742 0.03126 0.0
H369 H 0.61186 0.87892 0.05461 0.0
H370 H 0.6698 1.00357 0.04677 0.0
H371 H 0.60445 0.93041 0.9663 0.0
H372 H 0.55104 0.88697 0.93879 0.0
H373 H 0.5088 0.95922 0.94169 0.0
H374 H 0.56174 1.0029 0.96959 0.0
H375 H 0.77425 0.15113 0.9497 0.0
H376 H 0.73923 0.08955 0.96844 0.0
H377 H 0.64911 0.10589 0.98471 0.0
H378 H 0.68411 0.16765 0.96644 0.0
H379 H 0.63105 0.03893 0.95669 0.0
H380 H 0.69713 0.11049 0.03987 0.0
H381 H 0.75204 0.15323 0.06615 0.0
H382 H 0.79505 0.08224 0.05558 0.0
H383 H 0.74056 0.03929 0.02884 0.0
C384 C 0.54864 0.90452 0.04624 0.0
C385 C 0.56306 0.88253 0.05416 0.0
C386 C 0.57028 0.93804 0.03324 0.0
C387 C 0.60677 0.95024 0.02732 0.0
C388 C 0.62143 0.92858 0.03548 0.0
C389 C 0.59982 0.89508 0.04879 0.0
C390 C 0.62956 0.98587 0.01311 0.0
C391 C 0.66158 1.01099 0.02679 0.0
C392 C 0.61877 0.99592 0.98718 0.0
C393 C 0.58695 0.96982 0.97025 0.0
C394 C 0.58366 0.93694 0.96125 0.0
C395 C 0.55348 0.91228 0.94556 0.0
C396 C 0.52651 0.9203 0.93855 0.0
C397 C 0.52971 0.95303 0.94716 0.0
C398 C 0.55982 0.97777 0.96288 0.0
C399 C 0.7469 0.14155 0.95711 0.0
C400 C 0.73196 0.16428 0.95666 0.0
C401 C 0.72699 0.10641 0.96788 0.0
C402 C 0.69164 0.09324 0.97808 0.0
C403 C 0.67634 0.11555 0.97693 0.0
C404 C 0.69641 0.15085 0.96658 0.0
C405 C 0.67084 0.05647 0.99057 0.0
C406 C 0.63927 0.03123 0.97653 0.0
C407 C 0.68228 0.04616 0.01591 0.0
C408 C 0.71497 0.07189 0.03206 0.0
C409 C 0.71844 0.10415 0.04291 0.0
C410 C 0.74945 0.12838 0.05794 0.0
C411 C 0.77707 0.12051 0.06246 0.0
C412 C 0.77367 0.08834 0.05202 0.0
C413 C 0.74272 0.06403 0.03694 0.0
H414 H 0.80105 0.1393 0.07411 0.0
H415 H 0.50317 0.90117 0.92641 0.0
H416 H 0.74183 0.60314 0.21777 0.0
H417 H 0.71957 0.64068 0.19642 0.0
H418 H 0.61069 0.55224 0.20269 0.0
H419 H 0.63277 0.51432 0.22294 0.0
H420 H 0.61863 0.58291 0.15286 0.0
H421 H 0.6475 0.62639 0.25131 0.0
H422 H 0.68618 0.65116 0.2946 0.0
H423 H 0.75925 0.74495 0.24557 0.0
H424 H 0.72123 0.7205 0.20186 0.0
H425 H 0.5234 0.67939 0.14093 0.0
H426 H 0.55005 0.64425 0.15933 0.0
H427 H 0.65581 0.73037 0.13638 0.0
H428 H 0.62935 0.7656 0.11772 0.0
H429 H 0.65187 0.70294 0.19286 0.0
H430 H 0.6194 0.65894 0.09488 0.0
H431 H 0.57848 0.63352 0.05294 0.0
H432 H 0.50923 0.53944 0.10329 0.0
H433 H 0.54948 0.56454 0.1457 0.0
C434 C 0.71315 0.59171 0.21465 0.0
C435 C 0.68914 0.55569 0.22216 0.0
C436 C 0.7004 0.61328 0.20254 0.0
C437 C 0.66333 0.59952 0.19824 0.0
C438 C 0.6394 0.56356 0.20569 0.0
C439 C 0.65212 0.54188 0.21739 0.0
C440 C 0.64925 0.62223 0.18573 0.0
C441 C 0.62562 0.60896 0.1619 0.0
C442 C 0.65887 0.65665 0.19697 0.0
C443 C 0.68172 0.67144 0.22324 0.0
C444 C 0.67196 0.65217 0.2497 0.0
C445 C 0.69374 0.66617 0.27432 0.0
C446 C 0.72521 0.69956 0.27281 0.0
C447 C 0.7349 0.71906 0.24669 0.0
C448 C 0.71324 0.70516 0.222 0.0
C449 C 0.55232 0.69082 0.13972 0.0
C450 C 0.57425 0.72525 0.1278 0.0
C451 C 0.5675 0.67067 0.15018 0.0
C452 C 0.60491 0.68463 0.14909 0.0
C453 C 0.6269 0.71909 0.13741 0.0
C454 C 0.6117 0.73911 0.12666 0.0
C455 C 0.62104 0.66331 0.16037 0.0
C456 C 0.64505 0.6769 0.18388 0.0
C457 C 0.61146 0.62901 0.14907 0.0
C458 C 0.58729 0.61379 0.12356 0.0
C459 C 0.59529 0.63296 0.09709 0.0
C460 C 0.57225 0.61859 0.07322 0.0
C461 C 0.54123 0.58492 0.07547 0.0
C462 C 0.53324 0.56553 0.10159 0.0
C463 C 0.55618 0.57981 0.12554 0.0
H464 H 0.52342 0.57384 0.05696 0.0
H465 H 0.74203 0.71035 0.2919 0.0
H466 H 0.14669 0.73884 0.38778 0.0
H467 H 0.08733 0.71707 0.36583 0.0
H468 H 0.07025 0.60903 0.36578 0.0
H469 H 0.12967 0.63066 0.38649 0.0
H470 H 0.04873 0.61974 0.31686 0.0
H471 H 0.02945 0.64101 0.41673 0.0
H472 H 0.04058 0.67659 0.46171 0.0
H473 H 1.01797 0.75065 0.41617 0.0
H474 H 1.00715 0.71573 0.37079 0.0
H475 H 0.85793 0.5189 0.3031 0.0
H476 H 0.91941 0.54687 0.32202 0.0
H477 H 0.9343 0.65178 0.3024 0.0
H478 H 0.87296 0.62401 0.28316 0.0
H479 H 0.95748 0.6462 0.35902 0.0
H480 H 0.97299 0.62045 0.25958 0.0
H481 H 0.96006 0.5821 0.21608 0.0
H482 H 0.98799 0.51293 0.26325 0.0
H483 H 1.00058 0.55058 0.30718 0.0
C484 C 0.13022 0.71045 0.38315 0.0
C485 C 0.14306 0.68657 0.38894 0.0
C486 C 0.09617 0.69796 0.37069 0.0
C487 C 0.07395 0.66124 0.36436 0.0
C488 C 0.08677 0.63747 0.37028 0.0
C489 C 0.12086 0.64994 0.38227 0.0
C490 C 0.03755 0.64728 0.35122 0.0
C491 C 0.02873 0.62528 0.32636 0.0
C492 C 1.01147 0.65501 0.36305 0.0
C493 C 1.01789 0.67599 0.3903 0.0
C494 C 0.02712 0.66503 0.41626 0.0
C495 C 0.03332 0.68506 0.44183 0.0
C496 C 0.03009 0.71592 0.44177 0.0
C497 C 0.02053 0.72677 0.41616 0.0
C498 C 1.01434 0.70687 0.39052 0.0
C499 C 0.87433 0.54792 0.3027 0.0
C500 C 0.8606 0.56922 0.29153 0.0
C501 C 0.90947 0.56386 0.31348 0.0
C502 C 0.93149 0.60142 0.31352 0.0
C503 C 0.91778 0.62277 0.30259 0.0
C504 C 0.88278 0.60683 0.29147 0.0
C505 C 0.96875 0.61833 0.32513 0.0
C506 C 0.97766 0.64088 0.34958 0.0
C507 C 0.99477 0.61074 0.3132 0.0
C508 C 0.9874 0.58816 0.28676 0.0
C509 C 0.97609 0.59689 0.26075 0.0
C510 C 0.96887 0.57531 0.236 0.0
C511 C 0.97311 0.54505 0.23692 0.0
C512 C 0.98467 0.53636 0.26258 0.0
C513 C 0.99188 0.55783 0.2874 0.0
H514 H 0.96752 0.52838 0.21774 0.0
H515 H 0.0349 0.73139 0.4616 0.0
H516 H 0.56543 0.26225 0.49237 0.0
H517 H 0.59149 0.30616 0.4529 0.0
H518 H 0.5657 0.37786 0.4998 0.0
H519 H 0.53808 0.33301 0.539 0.0
H520 H 0.55949 0.38487 0.44322 0.0
H521 H 0.65062 0.38854 0.50337 0.0
H522 H 0.68315 0.36452 0.53129 0.0
H523 H 0.70516 0.32499 0.45219 0.0
H524 H 0.6724 0.34842 0.42378 0.0
H525 H 0.68759 0.52118 0.34147 0.0
H526 H 0.65566 0.49012 0.38606 0.0
H527 H 0.66546 0.39817 0.36138 0.0
H528 H 0.7017 0.43136 0.31923 0.0
H529 H 0.68264 0.41287 0.41472 0.0
H530 H 0.55136 0.38362 0.37348 0.0
H531 H 0.51609 0.4089 0.3513 0.0
H532 H 0.57525 0.50535 0.40143 0.0
H533 H 0.61026 0.48023 0.42412 0.0
C534 C 0.56457 0.28703 0.49395 0.0
C535 C 0.54992 0.29434 0.51877 0.0
C536 C 0.57977 0.31227 0.47152 0.0
C537 C 0.58166 0.34584 0.4738 0.0
C538 C 0.56488 0.3523 0.49768 0.0
C539 C 0.54897 0.32662 0.51998 0.0
C540 C 0.60285 0.37447 0.45196 0.0
C541 C 0.58657 0.39126 0.43717 0.0
C542 C 0.63859 0.38374 0.44455 0.0
C543 C 0.65886 0.37008 0.46146 0.0
C544 C 0.66225 0.37458 0.49194 0.0
C545 C 0.68071 0.36105 0.50786 0.0
C546 C 0.69612 0.34315 0.49355 0.0
C547 C 0.6932 0.33885 0.46325 0.0
C548 C 0.67474 0.35231 0.44721 0.0
C549 C 0.68231 0.49408 0.34547 0.0
C550 C 0.69537 0.4778 0.32604 0.0
C551 C 0.66331 0.47595 0.37075 0.0
C552 C 0.65629 0.44085 0.37675 0.0
C553 C 0.66971 0.42489 0.35723 0.0
C554 C 0.68984 0.44354 0.33271 0.0
C555 C 0.6384 0.42148 0.40439 0.0
C556 C 0.65559 0.40664 0.42073 0.0
C557 C 0.60404 0.415 0.4138 0.0
C558 C 0.58453 0.43086 0.39923 0.0
C559 C 0.5572 0.41049 0.37925 0.0
C560 C 0.53705 0.42461 0.36685 0.0
C561 C 0.54385 0.45896 0.37456 0.0
C562 C 0.57036 0.47898 0.39511 0.0
C563 C 0.5903 0.46478 0.40776 0.0
H564 H 0.52831 0.46989 0.36487 0.0
H565 H 0.71037 0.33267 0.50594 0.0
H566 H 0.28024 0.69247 0.48063 0.0
H567 H 0.2799 0.65433 0.51983 0.0
H568 H 0.18292 0.6484 0.55448 0.0
H569 H 0.17985 0.68056 0.51152 0.0
H570 H 0.29232 0.66533 0.56877 0.0
H571 H 0.14692 0.59599 0.60832 0.0
H572 H 0.08466 0.56696 0.58978 0.0
H573 H 0.11782 0.53518 0.51202 0.0
H574 H 0.1805 0.56435 0.53027 0.0
H575 H 0.29762 0.61083 0.70855 0.0
H576 H 0.27986 0.63353 0.66707 0.0
H577 H 0.2238 0.5269 0.63037 0.0
H578 H 0.23989 0.5034 0.67339 0.0
H579 H 0.18897 0.56232 0.61753 0.0
H580 H 0.31082 0.5883 0.60873 0.0
H581 H 0.37325 0.61075 0.62491 0.0
H582 H 0.38825 0.71705 0.63374 0.0
H583 H 0.32572 0.69512 0.61799 0.0
C584 C 0.25746 0.68064 0.4954 0.0
C585 C 0.2287 0.68705 0.4917 0.0
C586 C 0.2578 0.65977 0.51861 0.0
C587 C 0.23098 0.64737 0.54046 0.0
C588 C 0.20303 0.65553 0.53754 0.0
C589 C 0.20158 0.67459 0.51315 0.0
C590 C 0.23481 0.62928 0.56722 0.0
C591 C 0.26949 0.64246 0.57888 0.0
C592 C 0.20545 0.59967 0.58142 0.0
C593 C 0.16826 0.58278 0.57026 0.0
C594 C 0.14089 0.58293 0.5872 0.0
C595 C 0.10563 0.56656 0.57676 0.0
C596 C 0.0974 0.54955 0.54959 0.0
C597 C 0.12441 0.54881 0.53285 0.0
C598 C 0.15977 0.56539 0.54313 0.0
C599 C 0.28101 0.59198 0.69198 0.0
C600 C 0.27049 0.55536 0.69408 0.0
C601 C 0.271 0.60508 0.66812 0.0
C602 C 0.25144 0.58218 0.64511 0.0
C603 C 0.23918 0.54516 0.64776 0.0
C604 C 0.24842 0.53176 0.67225 0.0
C605 C 0.24628 0.59772 0.61772 0.0
C606 C 0.21154 0.58461 0.60657 0.0
C607 C 0.27572 0.62657 0.60322 0.0
C608 C 0.3135 0.64 0.61239 0.0
C609 C 0.32738 0.61642 0.61427 0.0
C610 C 0.36278 0.62906 0.62336 0.0
C611 C 0.38467 0.66529 0.6304 0.0
C612 C 0.37124 0.68899 0.6283 0.0
C613 C 0.33584 0.67648 0.61926 0.0
H614 H 0.41207 0.67502 0.63745 0.0
H615 H 0.07007 0.53676 0.54158 0.0
H616 H 0.76644 0.3134 0.82955 0.0
H617 H 0.72393 0.29659 0.78931 0.0
H618 H 0.65361 0.19557 0.83198 0.0
H619 H 0.69732 0.21165 0.87165 0.0
H620 H 0.64864 0.18452 0.77673 0.0
H621 H 0.63967 0.26916 0.83651 0.0
H622 H 0.66088 0.32482 0.865 0.0
H623 H 0.70037 0.38763 0.78654 0.0
H624 H 0.68005 0.33237 0.75763 0.0
H625 H 0.5105 0.17163 0.67569 0.0
H626 H 0.54273 0.17223 0.71983 0.0
H627 H 0.63282 0.27407 0.6935 0.0
H628 H 0.59858 0.27543 0.65162 0.0
H629 H 0.6175 0.277 0.74725 0.0
H630 H 0.64972 0.1774 0.70532 0.0
H631 H 0.62604 0.11657 0.68439 0.0
H632 H 0.53083 0.07776 0.73731 0.0
H633 H 0.5545 0.13806 0.75899 0.0
C634 C 0.7422 0.28734 0.83007 0.0
C635 C 0.73504 0.26389 0.85374 0.0
C636 C 0.71773 0.27786 0.80721 0.0
C637 C 0.68492 0.24529 0.80801 0.0
C638 C 0.67855 0.22097 0.83093 0.0
C639 C 0.70355 0.23012 0.85355 0.0
C640 C 0.65705 0.23754 0.78542 0.0
C641 C 0.64162 0.20468 0.77048 0.0
C642 C 0.64682 0.26321 0.77772 0.0
C643 C 0.65851 0.29658 0.79491 0.0
C644 C 0.65303 0.29484 0.82534 0.0
C645 C 0.66491 0.32633 0.84157 0.0
C646 C 0.68199 0.35974 0.82759 0.0
C647 C 0.68715 0.36172 0.79734 0.0
C648 C 0.67543 0.33032 0.78101 0.0
C649 C 0.53748 0.19376 0.67919 0.0
C650 C 0.55289 0.22266 0.65942 0.0
C651 C 0.55626 0.19378 0.70423 0.0
C652 C 0.59111 0.2224 0.70968 0.0
C653 C 0.60631 0.25125 0.68976 0.0
C654 C 0.58705 0.25177 0.66541 0.0
C655 C 0.61083 0.22491 0.73723 0.0
C656 C 0.62451 0.25684 0.75348 0.0
C657 C 0.6182 0.19781 0.74689 0.0
C658 C 0.60309 0.16239 0.7327 0.0
C659 C 0.62349 0.15593 0.71207 0.0
C660 C 0.61025 0.12152 0.70031 0.0
C661 C 0.57668 0.09348 0.70914 0.0
C662 C 0.55659 0.0996 0.73017 0.0
C663 C 0.56996 0.13382 0.74225 0.0
H664 H 0.56643 0.06693 0.69992 0.0
H665 H 0.69118 0.38409 0.84019 0.0
H666 H 0.36137 0.50655 0.83925 0.0
H667 H 0.39869 0.54247 0.88049 0.0
H668 H 0.35887 0.61658 0.86917 0.0
H669 H 0.3229 0.58153 0.82782 0.0
H670 H 0.42665 0.65261 0.8759 0.0
H671 H 0.3306 0.55111 0.92574 0.0
H672 H 0.29223 0.48693 0.93794 0.0
H673 H 0.38512 0.48164 0.96581 0.0
H674 H 0.42411 0.54573 0.95343 0.0
H675 H 0.44494 0.74291 1.00399 0.0
H676 H 0.42451 0.7016 0.96314 0.0
H677 H 0.49258 0.65936 0.99033 0.0
H678 H 0.51324 0.70091 0.03212 0.0
H679 H 0.42178 0.60539 0.9754 0.0
H680 H 0.51701 0.71064 0.93217 0.0
H681 H 0.55375 0.77516 0.92063 0.0
H682 H 0.46316 0.77314 0.87891 0.0
H683 H 0.42566 0.70878 0.89063 0.0
C684 C 0.3608 0.53056 0.84574 0.0
C685 C 0.34012 0.54193 0.8301 0.0
C686 C 0.3819 0.55094 0.86934 0.0
C687 C 0.3816 0.58228 0.8781 0.0
C688 C 0.35993 0.59277 0.8628 0.0
C689 C 0.33941 0.5728 0.83913 0.0
C690 C 0.40426 0.60512 0.90257 0.0
C691 C 0.42588 0.6421 0.89743 0.0
C692 C 0.4037 0.59152 0.93089 0.0
C693 C 0.3803 0.55305 0.93831 0.0
C694 C 0.34287 0.53617 0.93424 0.0
C695 C 0.32101 0.49984 0.94123 0.0
C696 C 0.33624 0.48019 0.95254 0.0
C697 C 0.37337 0.49687 0.95698 0.0
C698 C 0.39536 0.5332 0.94999 0.0
C699 C 0.45589 0.72508 1.00138 0.0
C700 C 0.48088 0.72537 0.02139 0.0
C701 C 0.44418 0.70146 0.97787 0.0
C702 C 0.45723 0.6776 0.97352 0.0
C703 C 0.48226 0.67767 0.99329 0.0
C704 C 0.49423 0.70159 0.01698 0.0
C705 C 0.44387 0.65272 0.94826 0.0
C706 C 0.42381 0.61551 0.95335 0.0
C707 C 0.44596 0.666 0.91965 0.0
C708 C 0.46843 0.70484 0.91249 0.0
C709 C 0.50481 0.724 0.92075 0.0
C710 C 0.5258 0.76056 0.91414 0.0
C711 C 0.51078 0.77826 0.8991 0.0
C712 C 0.47476 0.75941 0.89058 0.0
C713 C 0.45363 0.72286 0.89719 0.0
H714 H 0.52708 0.80657 0.89401 0.0
H715 H 0.31927 0.45206 0.95795 0.0
H716 H 0.86052 0.34477 1.00693 0.0
H717 H 0.85971 0.37891 0.05002 0.0
H718 H 0.74776 0.34388 0.0343 0.0
H719 H 0.74852 0.30968 0.99191 0.0
H720 H 0.84547 0.4346 0.05511 0.0
H721 H 0.70288 0.32898 0.09655 0.0
H722 H 0.66423 0.26308 0.09831 0.0
H723 H 0.75766 0.25056 0.095 0.0
H724 H 0.7969 0.31638 0.09366 0.0
H725 H 0.71323 0.45033 0.16293 0.0
H726 H 0.73053 0.4246 0.12295 0.0
H727 H 0.83848 0.47284 0.15674 0.0
H728 H 0.82123 0.49913 0.19719 0.0
H729 H 0.75169 0.37543 0.13163 0.0
H730 H 0.89423 0.4811 0.09519 0.0
H731 H 0.93303 0.54698 0.09243 0.0
H732 H 0.83968 0.55917 0.08528 0.0
H733 H 0.80039 0.49339 0.08762 0.0
C734 C 0.83587 0.3445 0.01288 0.0
C735 C 0.80485 0.3256 0.99584 0.0
C736 C 0.83543 0.36399 0.03733 0.0
C737 C 0.80365 0.36386 0.04544 0.0
C738 C 0.77249 0.34413 0.02869 0.0
C739 C 0.77301 0.3249 1.00433 0.0
C740 C 0.80248 0.38423 0.07126 0.0
C741 C 0.82542 0.42162 0.07215 0.0
C742 C 0.77621 0.36732 0.09343 0.0
C743 C 0.75282 0.32766 0.09482 0.0
C744 C 0.7152 0.31218 0.09639 0.0
C745 C 0.69318 0.27483 0.09727 0.0
C746 C 0.70847 0.25265 0.0967 0.0
C747 C 0.74584 0.26777 0.09535 0.0
C748 C 0.76798 0.3051 0.0945 0.0
C749 C 0.74087 0.45605 0.16169 0.0
C750 C 0.76578 0.4765 0.18343 0.0
C751 C 0.75068 0.44123 0.13881 0.0
C752 C 0.78565 0.44643 0.137 0.0
C753 C 0.81134 0.46857 0.15766 0.0
C754 C 0.8015 0.48365 0.1807 0.0
C755 C 0.79362 0.42602 0.11481 0.0
C756 C 0.77204 0.38844 0.11477 0.0
C757 C 0.82113 0.44281 0.09353 0.0
C758 C 0.8444 0.48237 0.09204 0.0
C759 C 0.88201 0.49787 0.09302 0.0
C760 C 0.90409 0.53518 0.09151 0.0
C761 C 0.88882 0.55726 0.08882 0.0
C762 C 0.85146 0.54205 0.08753 0.0
C763 C 0.82928 0.50476 0.08901 0.0
H764 H 0.90595 0.58614 0.08766 0.0
H765 H 0.69138 0.22374 0.09734 0.0
H766 H 0.26752 0.72157 0.32454 0.0
H767 H 0.31225 0.73988 0.28551 0.0
H768 H 0.38597 0.83223 0.33593 0.0
H769 H 0.34035 0.81462 0.37475 0.0
H770 H 0.39511 0.84845 0.27911 0.0
H771 H 0.39253 0.75598 0.33754 0.0
H772 H 0.3654 0.69825 0.36399 0.0
H773 H 0.32493 0.64123 0.28347 0.0
H774 H 0.35166 0.69865 0.25649 0.0
H775 H 0.52917 0.85395 0.17626 0.0
H776 H 0.49816 0.85536 0.22082 0.0
H777 H 0.40602 0.75403 0.1969 0.0
H778 H 0.43929 0.75038 0.15512 0.0
H779 H 0.41819 0.7505 0.24923 0.0
H780 H 0.39806 0.8566 0.20641 0.0
H781 H 0.42661 0.91791 0.18528 0.0
H782 H 0.51707 0.95113 0.24216 0.0
H783 H 0.48871 0.89024 0.26374 0.0
C784 C 0.29292 0.7463 0.32695 0.0
C785 C 0.3006 0.76662 0.35264 0.0
C786 C 0.31859 0.75658 0.30477 0.0
C787 C 0.35291 0.78678 0.3082 0.0
C788 C 0.3598 0.80864 0.33294 0.0
C789 C 0.3337 0.79868 0.35501 0.0
C790 C 0.38186 0.79367 0.28676 0.0
C791 C 0.40037 0.82711 0.27269 0.0
C792 C 0.38968 0.76632 0.27895 0.0
C793 C 0.37395 0.73165 0.29502 0.0
C794 C 0.37771 0.73114 0.32549 0.0
C795 C 0.36239 0.69847 0.34058 0.0
C796 C 0.34332 0.6661 0.32547 0.0
C797 C 0.33968 0.66633 0.29517 0.0
C798 C 0.355 0.69893 0.27994 0.0
C799 C 0.50207 0.83232 0.18048 0.0
C800 C 0.48572 0.80293 0.16137 0.0
C801 C 0.48397 0.83347 0.20575 0.0
C802 C 0.44885 0.8056 0.21201 0.0
C803 C 0.43282 0.77627 0.1927 0.0
C804 C 0.45147 0.77447 0.1683 0.0
C805 C 0.42935 0.80434 0.23959 0.0
C806 C 0.41297 0.77192 0.25544 0.0
C807 C 0.4243 0.83292 0.24948 0.0
C808 C 0.44207 0.86873 0.23566 0.0
C809 C 0.42434 0.87693 0.21391 0.0
C810 C 0.44031 0.9116 0.20208 0.0
C811 C 0.47389 0.93822 0.21203 0.0
C812 C 0.49129 0.93039 0.23419 0.0
C813 C 0.47523 0.89588 0.24627 0.0
H814 H 0.48624 0.96499 0.20279 0.0
H815 H 0.33144 0.64085 0.33722 0.0
loop_
_geom_bond_atom_site_label_1
_geom_bond_atom_site_label_2
_geom_bond_distance
_geom_bond_site_symmetry_2
_ccdc_geom_bond_type
Mn0 O5 2.095 . S
Mn0 O15 2.162 . S
Mn0 O16 2.297 . S
Mn0 O24 2.385 . S
Mn0 O25 2.209 . S
Mn0 O26 2.094 . S
Mn1 O6 2.121 . S
Mn1 N8 2.257 . S
Mn1 N17 2.282 . S
Mn1 O25 2.215 . S
Mn1 O27 2.117 . S
C2 O24 1.234 . S
C2 O25 1.283 . S
C3 O15 1.281 . S
C3 O16 1.236 . S
C4 O26 1.240 . S
C4 O27 1.264 . S
O5 Mn0 2.095 . S
O5 C14 1.250 . S
O6 Mn1 2.121 . S
O6 C14 1.258 . S
C7 N8 1.326 . S
C7 C11 1.460 . S
C7 H13 0.929 . S
N8 Mn1 2.257 . S
N8 C7 1.326 . S
N8 C12 1.362 . S
C9 C10 1.258 . S
C9 C12 1.431 . S
C9 C29 1.449 . S
C10 C9 1.258 . S
C10 C11 1.477 . S
C10 H30 0.931 . S
C11 C7 1.460 . S
C11 C10 1.477 . S
C11 H31 0.930 . S
C12 N8 1.362 . S
C12 C9 1.431 . S
C12 C22 1.476 . S
H13 C7 0.929 . S
C14 O5 1.250 . S
C14 O6 1.258 . S
O15 Mn0 2.162 . S
O15 C3 1.281 . S
O16 Mn0 2.297 . S
O16 C3 1.236 . S
N17 Mn1 2.282 . S
N17 C18 1.328 . S
N17 C22 1.318 . S
C18 N17 1.328 . S
C18 C19 1.457 . S
C18 H23 0.929 . S
C19 C18 1.457 . S
C19 C20 1.291 . S
C19 H32 0.931 . S
C20 C19 1.291 . S
C20 C21 1.373 . S
C20 H33 0.929 . S
C21 C20 1.373 . S
C21 C22 1.396 . S
C21 C28 1.403 . S
C22 C12 1.476 . S
C22 N17 1.318 . S
C22 C21 1.396 . S
H23 C18 0.929 . S
O24 Mn0 2.385 . S
O24 C2 1.234 . S
O25 Mn0 2.209 . S
O25 Mn1 2.215 . S
O25 C2 1.283 . S
O26 Mn0 2.094 . S
O26 C4 1.240 . S
O27 Mn1 2.117 . S
O27 C4 1.264 . S
C28 C21 1.403 . S
C28 C29 1.399 . S
C28 H34 0.929 . S
C29 C9 1.449 . S
C29 C28 1.399 . S
C29 H35 0.930 . S
H30 C10 0.931 . S
H31 C11 0.930 . S
H32 C19 0.931 . S
H33 C20 0.929 . S
H34 C28 0.929 . S
H35 C29 0.930 . S
Mn36 O41 2.095 . S
Mn36 O51 2.162 . S
Mn36 O52 2.297 . S
Mn36 O60 2.385 . S
Mn36 O61 2.209 . S
Mn36 O62 2.094 . S
Mn37 O42 2.121 . S
Mn37 N44 2.257 . S
Mn37 N53 2.282 . S
Mn37 O61 2.215 . S
Mn37 O63 2.117 . S
C38 O60 1.234 . S
C38 O61 1.283 . S
C39 O51 1.281 . S
C39 O52 1.236 . S
C40 O62 1.240 . S
C40 O63 1.264 . S
O41 Mn36 2.095 . S
O41 C50 1.250 . S
O42 Mn37 2.121 . S
O42 C50 1.258 . S
C43 N44 1.326 . S
C43 C47 1.460 . S
C43 H49 0.929 . S
N44 Mn37 2.257 . S
N44 C43 1.326 . S
N44 C48 1.362 . S
C45 C46 1.258 . S
C45 C48 1.431 . S
C45 C65 1.449 . S
C46 C45 1.258 . S
C46 C47 1.477 . S
C46 H66 0.931 . S
C47 C43 1.460 . S
C47 C46 1.477 . S
C47 H67 0.930 . S
C48 N44 1.362 . S
C48 C45 1.431 . S
C48 C58 1.476 . S
H49 C43 0.929 . S
C50 O41 1.250 . S
C50 O42 1.258 . S
O51 Mn36 2.162 . S
O51 C39 1.281 . S
O52 Mn36 2.297 . S
O52 C39 1.236 . S
N53 Mn37 2.282 . S
N53 C54 1.328 . S
N53 C58 1.318 . S
C54 N53 1.328 . S
C54 C55 1.457 . S
C54 H59 0.929 . S
C55 C54 1.457 . S
C55 C56 1.291 . S
C55 H68 0.931 . S
C56 C55 1.291 . S
C56 C57 1.373 . S
C56 H69 0.929 . S
C57 C56 1.373 . S
C57 C58 1.396 . S
C57 C64 1.403 . S
C58 C48 1.476 . S
C58 N53 1.318 . S
C58 C57 1.396 . S
H59 C54 0.929 . S
O60 Mn36 2.385 . S
O60 C38 1.234 . S
O61 Mn36 2.209 . S
O61 Mn37 2.215 . S
O61 C38 1.283 . S
O62 Mn36 2.094 . S
O62 C40 1.240 . S
O63 Mn37 2.117 . S
O63 C40 1.264 . S
C64 C57 1.403 . S
C64 C65 1.399 . S
C64 H70 0.929 . S
C65 C45 1.449 . S
C65 C64 1.399 . S
C65 H71 0.930 . S
H66 C46 0.931 . S
H67 C47 0.930 . S
H68 C55 0.931 . S
H69 C56 0.929 . S
H70 C64 0.929 . S
H71 C65 0.930 . S
Mn72 O77 2.095 . S
Mn72 O87 2.162 . S
Mn72 O88 2.297 . S
Mn72 O96 2.385 . S
Mn72 O97 2.209 . S
Mn72 O98 2.094 . S
Mn73 O78 2.121 . S
Mn73 N80 2.257 . S
Mn73 N89 2.282 . S
Mn73 O97 2.215 . S
Mn73 O99 2.117 . S
C74 O96 1.234 . S
C74 O97 1.283 . S
C75 O87 1.281 . S
C75 O88 1.236 . S
C76 O98 1.240 . S
C76 O99 1.264 . S
O77 Mn72 2.095 . S
O77 C86 1.250 . S
O78 Mn73 2.121 . S
O78 C86 1.258 . S
C79 N80 1.326 . S
C79 C83 1.460 . S
C79 H85 0.929 . S
N80 Mn73 2.257 . S
N80 C79 1.326 . S
N80 C84 1.362 . S
C81 C82 1.258 . S
C81 C84 1.431 . S
C81 C101 1.449 . S
C82 C81 1.258 . S
C82 C83 1.477 . S
C82 H102 0.931 . S
C83 C79 1.460 . S
C83 C82 1.477 . S
C83 H103 0.930 . S
C84 N80 1.362 . S
C84 C81 1.431 . S
C84 C94 1.476 . S
H85 C79 0.929 . S
C86 O77 1.250 . S
C86 O78 1.258 . S
O87 Mn72 2.162 . S
O87 C75 1.281 . S
O88 Mn72 2.297 . S
O88 C75 1.236 . S
N89 Mn73 2.282 . S
N89 C90 1.328 . S
N89 C94 1.318 . S
C90 N89 1.328 . S
C90 C91 1.457 . S
C90 H95 0.929 . S
C91 C90 1.457 . S
C91 C92 1.291 . S
C91 H104 0.931 . S
C92 C91 1.291 . S
C92 C93 1.373 . S
C92 H105 0.929 . S
C93 C92 1.373 . S
C93 C94 1.396 . S
C93 C100 1.403 . S
C94 C84 1.476 . S
C94 N89 1.318 . S
C94 C93 1.396 . S
H95 C90 0.929 . S
O96 Mn72 2.385 . S
O96 C74 1.234 . S
O97 Mn72 2.209 . S
O97 Mn73 2.215 . S
O97 C74 1.283 . S
O98 Mn72 2.094 . S
O98 C76 1.240 . S
O99 Mn73 2.117 . S
O99 C76 1.264 . S
C100 C93 1.403 . S
C100 C101 1.399 . S
C100 H106 0.929 . S
C101 C81 1.449 . S
C101 C100 1.399 . S
C101 H107 0.930 . S
H102 C82 0.931 . S
H103 C83 0.930 . S
H104 C91 0.931 . S
H105 C92 0.929 . S
H106 C100 0.929 . S
H107 C101 0.930 . S
Mn108 O113 2.095 . S
Mn108 O123 2.162 . S
Mn108 O124 2.297 . S
Mn108 O132 2.385 . S
Mn108 O133 2.209 . S
Mn108 O134 2.094 . S
Mn109 O114 2.121 . S
Mn109 N116 2.257 . S
Mn109 N125 2.282 . S
Mn109 O133 2.215 . S
Mn109 O135 2.117 . S
C110 O132 1.234 . S
C110 O133 1.283 . S
C111 O123 1.281 . S
C111 O124 1.236 . S
C112 O134 1.240 . S
C112 O135 1.264 . S
O113 Mn108 2.095 . S
O113 C122 1.250 . S
O114 Mn109 2.121 . S
O114 C122 1.258 . S
C115 N116 1.326 . S
C115 C119 1.460 . S
C115 H121 0.929 . S
N116 Mn109 2.257 . S
N116 C115 1.326 . S
N116 C120 1.362 . S
C117 C118 1.258 . S
C117 C120 1.431 . S
C117 C137 1.449 . S
C118 C117 1.258 . S
C118 C119 1.477 . S
C118 H138 0.931 . S
C119 C115 1.460 . S
C119 C118 1.477 . S
C119 H139 0.930 . S
C120 N116 1.362 . S
C120 C117 1.431 . S
C120 C130 1.476 . S
H121 C115 0.929 . S
C122 O113 1.250 . S
C122 O114 1.258 . S
O123 Mn108 2.162 . S
O123 C111 1.281 . S
O124 Mn108 2.297 . S
O124 C111 1.236 . S
N125 Mn109 2.282 . S
N125 C126 1.328 . S
N125 C130 1.318 . S
C126 N125 1.328 . S
C126 C127 1.457 . S
C126 H131 0.929 . S
C127 C126 1.457 . S
C127 C128 1.291 . S
C127 H140 0.931 . S
C128 C127 1.291 . S
C128 C129 1.373 . S
C128 H141 0.929 . S
C129 C128 1.373 . S
C129 C130 1.396 . S
C129 C136 1.403 . S
C130 C120 1.476 . S
C130 N125 1.318 . S
C130 C129 1.396 . S
H131 C126 0.929 . S
O132 Mn108 2.385 . S
O132 C110 1.234 . S
O133 Mn108 2.209 . S
O133 Mn109 2.215 . S
O133 C110 1.283 . S
O134 Mn108 2.094 . S
O134 C112 1.240 . S
O135 Mn109 2.117 . S
O135 C112 1.264 . S
C136 C129 1.403 . S
C136 C137 1.399 . S
C136 H142 0.929 . S
C137 C117 1.449 . S
C137 C136 1.399 . S
C137 H143 0.930 . S
H138 C118 0.931 . S
H139 C119 0.930 . S
H140 C127 0.931 . S
H141 C128 0.929 . S
H142 C136 0.929 . S
H143 C137 0.930 . S
Mn144 O149 2.095 . S
Mn144 O159 2.162 . S
Mn144 O160 2.297 . S
Mn144 O168 2.385 . S
Mn144 O169 2.209 . S
Mn144 O170 2.094 . S
Mn145 O150 2.121 . S
Mn145 N152 2.257 . S
Mn145 N161 2.282 . S
Mn145 O169 2.215 . S
Mn145 O171 2.117 . S
C146 O168 1.234 . S
C146 O169 1.283 . S
C147 O159 1.281 . S
C147 O160 1.236 . S
C148 O170 1.240 . S
C148 O171 1.264 . S
O149 Mn144 2.095 . S
O149 C158 1.250 . S
O150 Mn145 2.121 . S
O150 C158 1.258 . S
C151 N152 1.326 . S
C151 C155 1.460 . S
C151 H157 0.929 . S
N152 Mn145 2.257 . S
N152 C151 1.326 . S
N152 C156 1.362 . S
C153 C154 1.258 . S
C153 C156 1.431 . S
C153 C173 1.449 . S
C154 C153 1.258 . S
C154 C155 1.477 . S
C154 H174 0.931 . S
C155 C151 1.460 . S
C155 C154 1.477 . S
C155 H175 0.930 . S
C156 N152 1.362 . S
C156 C153 1.431 . S
C156 C166 1.476 . S
H157 C151 0.929 . S
C158 O149 1.250 . S
C158 O150 1.258 . S
O159 Mn144 2.162 . S
O159 C147 1.281 . S
O160 Mn144 2.297 . S
O160 C147 1.236 . S
N161 Mn145 2.282 . S
N161 C162 1.328 . S
N161 C166 1.318 . S
C162 N161 1.328 . S
C162 C163 1.457 . S
C162 H167 0.929 . S
C163 C162 1.457 . S
C163 C164 1.291 . S
C163 H176 0.931 . S
C164 C163 1.291 . S
C164 C165 1.373 . S
C164 H177 0.929 . S
C165 C164 1.373 . S
C165 C166 1.396 . S
C165 C172 1.403 . S
C166 C156 1.476 . S
C166 N161 1.318 . S
C166 C165 1.396 . S
H167 C162 0.929 . S
O168 Mn144 2.385 . S
O168 C146 1.234 . S
O169 Mn144 2.209 . S
O169 Mn145 2.215 . S
O169 C146 1.283 . S
O170 Mn144 2.094 . S
O170 C148 1.240 . S
O171 Mn145 2.117 . S
O171 C148 1.264 . S
C172 C165 1.403 . S
C172 C173 1.399 . S
C172 H178 0.929 . S
C173 C153 1.449 . S
C173 C172 1.399 . S
C173 H179 0.930 . S
H174 C154 0.931 . S
H175 C155 0.930 . S
H176 C163 0.931 . S
H177 C164 0.929 . S
H178 C172 0.929 . S
H179 C173 0.930 . S
Mn180 O185 2.095 . S
Mn180 O195 2.162 . S
Mn180 O196 2.297 . S
Mn180 O204 2.385 . S
Mn180 O205 2.209 . S
Mn180 O206 2.094 . S
Mn181 O186 2.121 . S
Mn181 N188 2.257 . S
Mn181 N197 2.282 . S
Mn181 O205 2.215 . S
Mn181 O207 2.117 . S
C182 O204 1.234 . S
C182 O205 1.283 . S
C183 O195 1.281 . S
C183 O196 1.236 . S
C184 O206 1.240 . S
C184 O207 1.264 . S
O185 Mn180 2.095 . S
O185 C194 1.250 . S
O186 Mn181 2.121 . S
O186 C194 1.258 . S
C187 N188 1.326 . S
C187 C191 1.460 . S
C187 H193 0.929 . S
N188 Mn181 2.257 . S
N188 C187 1.326 . S
N188 C192 1.362 . S
C189 C190 1.258 . S
C189 C192 1.431 . S
C189 C209 1.449 . S
C190 C189 1.258 . S
C190 C191 1.477 . S
C190 H210 0.931 . S
C191 C187 1.460 . S
C191 C190 1.477 . S
C191 H211 0.930 . S
C192 N188 1.362 . S
C192 C189 1.431 . S
C192 C202 1.476 . S
H193 C187 0.929 . S
C194 O185 1.250 . S
C194 O186 1.258 . S
O195 Mn180 2.162 . S
O195 C183 1.281 . S
O196 Mn180 2.297 . S
O196 C183 1.236 . S
N197 Mn181 2.282 . S
N197 C198 1.328 . S
N197 C202 1.318 . S
C198 N197 1.328 . S
C198 C199 1.457 . S
C198 H203 0.929 . S
C199 C198 1.457 . S
C199 C200 1.291 . S
C199 H212 0.931 . S
C200 C199 1.291 . S
C200 C201 1.373 . S
C200 H213 0.929 . S
C201 C200 1.373 . S
C201 C202 1.396 . S
C201 C208 1.403 . S
C202 C192 1.476 . S
C202 N197 1.318 . S
C202 C201 1.396 . S
H203 C198 0.929 . S
O204 Mn180 2.385 . S
O204 C182 1.234 . S
O205 Mn180 2.209 . S
O205 Mn181 2.215 . S
O205 C182 1.283 . S
O206 Mn180 2.094 . S
O206 C184 1.240 . S
O207 Mn181 2.117 . S
O207 C184 1.264 . S
C208 C201 1.403 . S
C208 C209 1.399 . S
C208 H214 0.929 . S
C209 C189 1.449 . S
C209 C208 1.399 . S
C209 H215 0.930 . S
H210 C190 0.931 . S
H211 C191 0.930 . S
H212 C199 0.931 . S
H213 C200 0.929 . S
H214 C208 0.929 . S
H215 C209 0.930 . S
H216 C234 0.951 . S
H217 C236 0.951 . S
H218 C238 0.950 . S
H219 C239 0.950 . S
H220 C241 0.950 . S
H221 C244 0.950 . S
H222 C245 0.950 . S
H223 C247 0.950 . S
H224 C248 0.950 . S
H225 C249 0.951 . S
H226 C251 0.951 . S
H227 C253 0.950 . S
H228 C254 0.950 . S
H229 C256 0.950 . S
H230 C259 0.950 . S
H231 C260 0.950 . S
H232 C262 0.950 . S
H233 C263 0.950 . S
C234 H216 0.951 . S
C234 C235 1.366 . S
C234 C236 1.388 . S
C235 C234 1.366 . S
C235 C239 1.385 . S
C236 H217 0.951 . S
C236 C234 1.388 . S
C236 C237 1.366 . S
C237 C236 1.366 . S
C237 C238 1.414 . S
C237 C240 1.499 . S
C238 H218 0.950 . S
C238 C237 1.414 . S
C238 C239 1.374 . S
C239 H219 0.950 . S
C239 C235 1.385 . S
C239 C238 1.374 . S
C240 C237 1.499 . S
C240 C241 1.373 . S
C240 C242 1.389 . S
C241 H220 0.950 . S
C241 C240 1.373 . S
C241 C257 1.377 1_545 S
C242 C240 1.389 . S
C242 C243 1.524 . S
C242 C256 1.377 1_545 S
C243 C242 1.524 . S
C243 C244 1.397 . S
C243 C248 1.363 1_545 S
C244 H221 0.950 . S
C244 C243 1.397 . S
C244 C245 1.334 . S
C245 H222 0.950 . S
C245 C244 1.334 . S
C245 C246 1.287 . S
C246 C245 1.287 . S
C246 C247 1.524 1_545 S
C246 H265 0.913 . S
C247 H223 0.950 . S
C247 C246 1.524 1_565 S
C247 C248 1.415 . S
C248 H224 0.950 . S
C248 C243 1.363 1_565 S
C248 C247 1.415 . S
C249 H225 0.951 . S
C249 C250 1.366 . S
C249 C251 1.388 . S
C250 C249 1.366 . S
C250 C254 1.385 . S
C251 H226 0.951 . S
C251 C249 1.388 . S
C251 C252 1.366 . S
C252 C251 1.366 . S
C252 C253 1.414 . S
C252 C255 1.499 . S
C253 H227 0.950 . S
C253 C252 1.414 . S
C253 C254 1.374 . S
C254 H228 0.950 . S
C254 C250 1.385 . S
C254 C253 1.374 . S
C255 C252 1.499 . S
C255 C256 1.373 . S
C255 C257 1.389 . S
C256 H229 0.950 . S
C256 C242 1.377 1_565 S
C256 C255 1.373 . S
C257 C241 1.377 1_565 S
C257 C255 1.389 . S
C257 C258 1.524 . S
C258 C257 1.524 . S
C258 C259 1.397 . S
C258 C263 1.363 1_565 S
C259 H230 0.950 . S
C259 C258 1.397 . S
C259 C260 1.334 . S
C260 H231 0.950 . S
C260 C259 1.334 . S
C260 C261 1.287 . S
C261 C260 1.287 . S
C261 C262 1.524 1_565 S
C261 H264 0.999 . S
C262 H232 0.950 . S
C262 C261 1.524 1_545 S
C262 C263 1.415 . S
C263 H233 0.950 . S
C263 C258 1.363 1_545 S
C263 C262 1.415 . S
H264 C261 0.999 . S
H265 C246 0.913 . S
H266 C284 0.951 . S
H267 C286 0.951 . S
H268 C288 0.950 . S
H269 C289 0.950 . S
H270 C291 0.950 . S
H271 C294 0.950 . S
H272 C295 0.950 . S
H273 C297 0.950 . S
H274 C298 0.950 . S
H275 C299 0.951 . S
H276 C301 0.951 . S
H277 C303 0.950 . S
H278 C304 0.950 . S
H279 C306 0.950 . S
H280 C309 0.950 . S
H281 C310 0.950 . S
H282 C312 0.950 . S
H283 C313 0.950 . S
C284 H266 0.951 . S
C284 C285 1.366 . S
C284 C286 1.388 . S
C285 C284 1.366 . S
C285 C289 1.385 . S
C286 H267 0.951 . S
C286 C284 1.388 . S
C286 C287 1.366 . S
C287 C286 1.366 . S
C287 C288 1.414 . S
C287 C290 1.499 . S
C288 H268 0.950 . S
C288 C287 1.414 . S
C288 C289 1.374 . S
C289 H269 0.950 . S
C289 C285 1.385 . S
C289 C288 1.374 . S
C290 C287 1.499 . S
C290 C291 1.373 . S
C290 C292 1.389 . S
C291 H270 0.950 . S
C291 C290 1.373 . S
C291 C307 1.377 . S
C292 C290 1.389 . S
C292 C293 1.524 . S
C292 C306 1.377 . S
C293 C292 1.524 . S
C293 C294 1.397 . S
C293 C298 1.363 . S
C294 H271 0.950 . S
C294 C293 1.397 . S
C294 C295 1.334 . S
C295 H272 0.950 . S
C295 C294 1.334 . S
C295 C296 1.287 . S
C296 C295 1.287 . S
C296 C297 1.524 . S
C296 H315 0.913 . S
C297 H273 0.950 . S
C297 C296 1.524 . S
C297 C298 1.415 . S
C298 H274 0.950 . S
C298 C293 1.363 . S
C298 C297 1.415 . S
C299 H275 0.951 . S
C299 C300 1.366 . S
C299 C301 1.388 . S
C300 C299 1.366 . S
C300 C304 1.385 . S
C301 H276 0.951 . S
C301 C299 1.388 . S
C301 C302 1.366 . S
C302 C301 1.366 . S
C302 C303 1.414 . S
C302 C305 1.499 . S
C303 H277 0.950 . S
C303 C302 1.414 . S
C303 C304 1.374 . S
C304 H278 0.950 . S
C304 C300 1.385 . S
C304 C303 1.374 . S
C305 C302 1.499 . S
C305 C306 1.373 . S
C305 C307 1.389 . S
C306 H279 0.950 . S
C306 C292 1.377 . S
C306 C305 1.373 . S
C307 C291 1.377 . S
C307 C305 1.389 . S
C307 C308 1.524 . S
C308 C307 1.524 . S
C308 C309 1.397 . S
C308 C313 1.363 . S
C309 H280 0.950 . S
C309 C308 1.397 . S
C309 C310 1.334 . S
C310 H281 0.950 . S
C310 C309 1.334 . S
C310 C311 1.287 . S
C311 C310 1.287 . S
C311 C312 1.524 . S
C311 H314 0.999 . S
C312 H282 0.950 . S
C312 C311 1.524 . S
C312 C313 1.415 . S
C313 H283 0.950 . S
C313 C308 1.363 . S
C313 C312 1.415 . S
H314 C311 0.999 . S
H315 C296 0.913 . S
H316 C334 0.951 . S
H317 C336 0.951 . S
H318 C338 0.950 . S
H319 C339 0.950 . S
H320 C341 0.950 . S
H321 C344 0.950 . S
H322 C345 0.950 . S
H323 C347 0.950 . S
H324 C348 0.950 . S
H325 C349 0.951 . S
H326 C351 0.951 . S
H327 C353 0.950 . S
H328 C354 0.950 . S
H329 C356 0.950 . S
H330 C359 0.950 . S
H331 C360 0.950 . S
H332 C362 0.950 . S
H333 C363 0.950 . S
C334 H316 0.951 . S
C334 C335 1.366 . S
C334 C336 1.388 . S
C335 C334 1.366 . S
C335 C339 1.385 . S
C336 H317 0.951 . S
C336 C334 1.388 . S
C336 C337 1.366 . S
C337 C336 1.366 . S
C337 C338 1.414 . S
C337 C340 1.499 . S
C338 H318 0.950 . S
C338 C337 1.414 . S
C338 C339 1.374 . S
C339 H319 0.950 . S
C339 C335 1.385 . S
C339 C338 1.374 . S
C340 C337 1.499 . S
C340 C341 1.373 . S
C340 C342 1.389 . S
C341 H320 0.950 . S
C341 C340 1.373 . S
C341 C357 1.377 1_655 S
C342 C340 1.389 . S
C342 C343 1.524 . S
C342 C356 1.377 1_655 S
C343 C342 1.524 . S
C343 C344 1.397 . S
C343 C348 1.363 . S
C344 H321 0.950 . S
C344 C343 1.397 . S
C344 C345 1.334 . S
C345 H322 0.950 . S
C345 C344 1.334 . S
C345 C346 1.287 . S
C346 C345 1.287 . S
C346 C347 1.524 . S
C346 H365 0.913 . S
C347 H323 0.950 . S
C347 C346 1.524 . S
C347 C348 1.415 . S
C348 H324 0.950 . S
C348 C343 1.363 . S
C348 C347 1.415 . S
C349 H325 0.951 . S
C349 C350 1.366 . S
C349 C351 1.388 . S
C350 C349 1.366 . S
C350 C354 1.385 . S
C351 H326 0.951 . S
C351 C349 1.388 . S
C351 C352 1.366 . S
C352 C351 1.366 . S
C352 C353 1.414 . S
C352 C355 1.499 . S
C353 H327 0.950 . S
C353 C352 1.414 . S
C353 C354 1.374 . S
C354 H328 0.950 . S
C354 C350 1.385 . S
C354 C353 1.374 . S
C355 C352 1.499 . S
C355 C356 1.373 . S
C355 C357 1.389 . S
C356 H329 0.950 . S
C356 C342 1.377 1_455 S
C356 C355 1.373 . S
C357 C341 1.377 1_455 S
C357 C355 1.389 . S
C357 C358 1.524 . S
C358 C357 1.524 . S
C358 C359 1.397 . S
C358 C363 1.363 . S
C359 H330 0.950 . S
C359 C358 1.397 . S
C359 C360 1.334 . S
C360 H331 0.950 . S
C360 C359 1.334 . S
C360 C361 1.287 . S
C361 C360 1.287 . S
C361 C362 1.524 . S
C361 H364 0.999 . S
C362 H332 0.950 . S
C362 C361 1.524 . S
C362 C363 1.415 . S
C363 H333 0.950 . S
C363 C358 1.363 . S
C363 C362 1.415 . S
H364 C361 0.999 . S
H365 C346 0.913 . S
H366 C384 0.951 . S
H367 C386 0.951 . S
H368 C388 0.950 . S
H369 C389 0.950 . S
H370 C391 0.950 . S
H371 C394 0.950 . S
H372 C395 0.950 . S
H373 C397 0.950 . S
H374 C398 0.950 . S
H375 C399 0.951 . S
H376 C401 0.951 . S
H377 C403 0.950 . S
H378 C404 0.950 . S
H379 C406 0.950 . S
H380 C409 0.950 . S
H381 C410 0.950 . S
H382 C412 0.950 . S
H383 C413 0.950 . S
C384 H366 0.951 . S
C384 C385 1.366 . S
C384 C386 1.388 . S
C385 C384 1.366 . S
C385 C389 1.385 . S
C386 H367 0.951 . S
C386 C384 1.388 . S
C386 C387 1.366 . S
C387 C386 1.366 . S
C387 C388 1.414 . S
C387 C390 1.499 . S
C388 H368 0.950 . S
C388 C387 1.414 . S
C388 C389 1.374 . S
C389 H369 0.950 . S
C389 C385 1.385 . S
C389 C388 1.374 . S
C390 C387 1.499 . S
C390 C391 1.373 . S
C390 C392 1.389 1_554 S
C391 H370 0.950 . S
C391 C390 1.373 . S
C391 C407 1.377 1_565 S
C392 C390 1.389 1_556 S
C392 C393 1.524 . S
C392 C406 1.377 1_565 S
C393 C392 1.524 . S
C393 C394 1.397 . S
C393 C398 1.363 . S
C394 H371 0.950 . S
C394 C393 1.397 . S
C394 C395 1.334 . S
C395 H372 0.950 . S
C395 C394 1.334 . S
C395 C396 1.287 . S
C396 C395 1.287 . S
C396 C397 1.524 . S
C396 H415 0.913 . S
C397 H373 0.950 . S
C397 C396 1.524 . S
C397 C398 1.415 . S
C398 H374 0.950 . S
C398 C393 1.363 . S
C398 C397 1.415 . S
C399 H375 0.951 . S
C399 C400 1.366 . S
C399 C401 1.388 . S
C400 C399 1.366 . S
C400 C404 1.385 . S
C401 H376 0.951 . S
C401 C399 1.388 . S
C401 C402 1.366 . S
C402 C401 1.366 . S
C402 C403 1.414 . S
C402 C405 1.499 . S
C403 H377 0.950 . S
C403 C402 1.414 . S
C403 C404 1.374 . S
C404 H378 0.950 . S
C404 C400 1.385 . S
C404 C403 1.374 . S
C405 C402 1.499 . S
C405 C406 1.373 . S
C405 C407 1.389 1_556 S
C406 H379 0.950 . S
C406 C392 1.377 1_545 S
C406 C405 1.373 . S
C407 C391 1.377 1_545 S
C407 C405 1.389 1_554 S
C407 C408 1.524 . S
C408 C407 1.524 . S
C408 C409 1.397 . S
C408 C413 1.363 . S
C409 H380 0.950 . S
C409 C408 1.397 . S
C409 C410 1.334 . S
C410 H381 0.950 . S
C410 C409 1.334 . S
C410 C411 1.287 . S
C411 C410 1.287 . S
C411 C412 1.524 . S
C411 H414 0.999 . S
C412 H382 0.950 . S
C412 C411 1.524 . S
C412 C413 1.415 . S
C413 H383 0.950 . S
C413 C408 1.363 . S
C413 C412 1.415 . S
H414 C411 0.999 . S
H415 C396 0.913 . S
H416 C434 0.951 . S
H417 C436 0.951 . S
H418 C438 0.950 . S
H419 C439 0.950 . S
H420 C441 0.950 . S
H421 C444 0.950 . S
H422 C445 0.950 . S
H423 C447 0.950 . S
H424 C448 0.950 . S
H425 C449 0.951 . S
H426 C451 0.951 . S
H427 C453 0.950 . S
H428 C454 0.950 . S
H429 C456 0.950 . S
H430 C459 0.950 . S
H431 C460 0.950 . S
H432 C462 0.950 . S
H433 C463 0.950 . S
C434 H416 0.951 . S
C434 C435 1.366 . S
C434 C436 1.388 . S
C435 C434 1.366 . S
C435 C439 1.385 . S
C436 H417 0.951 . S
C436 C434 1.388 . S
C436 C437 1.366 . S
C437 C436 1.366 . S
C437 C438 1.414 . S
C437 C440 1.499 . S
C438 H418 0.950 . S
C438 C437 1.414 . S
C438 C439 1.374 . S
C439 H419 0.950 . S
C439 C435 1.385 . S
C439 C438 1.374 . S
C440 C437 1.499 . S
C440 C441 1.373 . S
C440 C442 1.389 . S
C441 H420 0.950 . S
C441 C440 1.373 . S
C441 C457 1.377 . S
C442 C440 1.389 . S
C442 C443 1.524 . S
C442 C456 1.377 . S
C443 C442 1.524 . S
C443 C444 1.397 . S
C443 C448 1.363 . S
C444 H421 0.950 . S
C444 C443 1.397 . S
C444 C445 1.334 . S
C445 H422 0.950 . S
C445 C444 1.334 . S
C445 C446 1.287 . S
C446 C445 1.287 . S
C446 C447 1.524 . S
C446 H465 0.913 . S
C447 H423 0.950 . S
C447 C446 1.524 . S
C447 C448 1.415 . S
C448 H424 0.950 . S
C448 C443 1.363 . S
C448 C447 1.415 . S
C449 H425 0.951 . S
C449 C450 1.366 . S
C449 C451 1.388 . S
C450 C449 1.366 . S
C450 C454 1.385 . S
C451 H426 0.951 . S
C451 C449 1.388 . S
C451 C452 1.366 . S
C452 C451 1.366 . S
C452 C453 1.414 . S
C452 C455 1.499 . S
C453 H427 0.950 . S
C453 C452 1.414 . S
C453 C454 1.374 . S
C454 H428 0.950 . S
C454 C450 1.385 . S
C454 C453 1.374 . S
C455 C452 1.499 . S
C455 C456 1.373 . S
C455 C457 1.389 . S
C456 H429 0.950 . S
C456 C442 1.377 . S
C456 C455 1.373 . S
C457 C441 1.377 . S
C457 C455 1.389 . S
C457 C458 1.524 . S
C458 C457 1.524 . S
C458 C459 1.397 . S
C458 C463 1.363 . S
C459 H430 0.950 . S
C459 C458 1.397 . S
C459 C460 1.334 . S
C460 H431 0.950 . S
C460 C459 1.334 . S
C460 C461 1.287 . S
C461 C460 1.287 . S
C461 C462 1.524 . S
C461 H464 0.999 . S
C462 H432 0.950 . S
C462 C461 1.524 . S
C462 C463 1.415 . S
C463 H433 0.950 . S
C463 C458 1.363 . S
C463 C462 1.415 . S
H464 C461 0.999 . S
H465 C446 0.913 . S
H466 C484 0.951 . S
H467 C486 0.951 . S
H468 C488 0.950 . S
H469 C489 0.950 . S
H470 C491 0.950 . S
H471 C494 0.950 . S
H472 C495 0.950 . S
H473 C497 0.950 . S
H474 C498 0.950 1_655 S
H475 C499 0.951 . S
H476 C501 0.951 . S
H477 C503 0.950 . S
H478 C504 0.950 . S
H479 C506 0.950 . S
H480 C509 0.950 . S
H481 C510 0.950 . S
H482 C512 0.950 . S
H483 C513 0.950 1_455 S
C484 H466 0.951 . S
C484 C485 1.366 . S
C484 C486 1.388 . S
C485 C484 1.366 . S
C485 C489 1.385 . S
C486 H467 0.951 . S
C486 C484 1.388 . S
C486 C487 1.366 . S
C487 C486 1.366 . S
C487 C488 1.414 . S
C487 C490 1.499 . S
C488 H468 0.950 . S
C488 C487 1.414 . S
C488 C489 1.374 . S
C489 H469 0.950 . S
C489 C485 1.385 . S
C489 C488 1.374 . S
C490 C487 1.499 . S
C490 C491 1.373 . S
C490 C492 1.389 . S
C491 H470 0.950 . S
C491 C490 1.373 . S
C491 C507 1.377 1_455 S
C492 C490 1.389 . S
C492 C493 1.524 . S
C492 C506 1.377 1_455 S
C493 C492 1.524 . S
C493 C494 1.397 . S
C493 C498 1.363 . S
C494 H471 0.950 . S
C494 C493 1.397 . S
C494 C495 1.334 . S
C495 H472 0.950 . S
C495 C494 1.334 . S
C495 C496 1.287 . S
C496 C495 1.287 . S
C496 C497 1.524 . S
C496 H515 0.913 . S
C497 H473 0.950 . S
C497 C496 1.524 . S
C497 C498 1.415 . S
C498 H474 0.950 1_455 S
C498 C493 1.363 . S
C498 C497 1.415 . S
C499 H475 0.951 . S
C499 C500 1.366 . S
C499 C501 1.388 . S
C500 C499 1.366 . S
C500 C504 1.385 . S
C501 H476 0.951 . S
C501 C499 1.388 . S
C501 C502 1.366 . S
C502 C501 1.366 . S
C502 C503 1.414 . S
C502 C505 1.499 . S
C503 H477 0.950 . S
C503 C502 1.414 . S
C503 C504 1.374 . S
C504 H478 0.950 . S
C504 C500 1.385 . S
C504 C503 1.374 . S
C505 C502 1.499 . S
C505 C506 1.373 . S
C505 C507 1.389 . S
C506 H479 0.950 . S
C506 C492 1.377 1_655 S
C506 C505 1.373 . S
C507 C491 1.377 1_655 S
C507 C505 1.389 . S
C507 C508 1.524 . S
C508 C507 1.524 . S
C508 C509 1.397 . S
C508 C513 1.363 . S
C509 H480 0.950 . S
C509 C508 1.397 . S
C509 C510 1.334 . S
C510 H481 0.950 . S
C510 C509 1.334 . S
C510 C511 1.287 . S
C511 C510 1.287 . S
C511 C512 1.524 . S
C511 H514 0.999 . S
C512 H482 0.950 . S
C512 C511 1.524 . S
C512 C513 1.415 . S
C513 H483 0.950 1_655 S
C513 C508 1.363 . S
C513 C512 1.415 . S
H514 C511 0.999 . S
H515 C496 0.913 . S
H516 C534 0.951 . S
H517 C536 0.951 . S
H518 C538 0.950 . S
H519 C539 0.950 . S
H520 C541 0.950 . S
H521 C544 0.950 . S
H522 C545 0.950 . S
H523 C547 0.950 . S
H524 C548 0.950 . S
H525 C549 0.951 . S
H526 C551 0.951 . S
H527 C553 0.950 . S
H528 C554 0.950 . S
H529 C556 0.950 . S
H530 C559 0.950 . S
H531 C560 0.950 . S
H532 C562 0.950 . S
H533 C563 0.950 . S
C534 H516 0.951 . S
C534 C535 1.366 . S
C534 C536 1.388 . S
C535 C534 1.366 . S
C535 C539 1.385 . S
C536 H517 0.951 . S
C536 C534 1.388 . S
C536 C537 1.366 . S
C537 C536 1.366 . S
C537 C538 1.414 . S
C537 C540 1.499 . S
C538 H518 0.950 . S
C538 C537 1.414 . S
C538 C539 1.374 . S
C539 H519 0.950 . S
C539 C535 1.385 . S
C539 C538 1.374 . S
C540 C537 1.499 . S
C540 C541 1.373 . S
C540 C542 1.389 . S
C541 H520 0.950 . S
C541 C540 1.373 . S
C541 C557 1.377 . S
C542 C540 1.389 . S
C542 C543 1.524 . S
C542 C556 1.377 . S
C543 C542 1.524 . S
C543 C544 1.397 . S
C543 C548 1.363 . S
C544 H521 0.950 . S
C544 C543 1.397 . S
C544 C545 1.334 . S
C545 H522 0.950 . S
C545 C544 1.334 . S
C545 C546 1.287 . S
C546 C545 1.287 . S
C546 C547 1.524 . S
C546 H565 0.913 . S
C547 H523 0.950 . S
C547 C546 1.524 . S
C547 C548 1.415 . S
C548 H524 0.950 . S
C548 C543 1.363 . S
C548 C547 1.415 . S
C549 H525 0.951 . S
C549 C550 1.366 . S
C549 C551 1.388 . S
C550 C549 1.366 . S
C550 C554 1.385 . S
C551 H526 0.951 . S
C551 C549 1.388 . S
C551 C552 1.366 . S
C552 C551 1.366 . S
C552 C553 1.414 . S
C552 C555 1.499 . S
C553 H527 0.950 . S
C553 C552 1.414 . S
C553 C554 1.374 . S
C554 H528 0.950 . S
C554 C550 1.385 . S
C554 C553 1.374 . S
C555 C552 1.499 . S
C555 C556 1.373 . S
C555 C557 1.389 . S
C556 H529 0.950 . S
C556 C542 1.377 . S
C556 C555 1.373 . S
C557 C541 1.377 . S
C557 C555 1.389 . S
C557 C558 1.524 . S
C558 C557 1.524 . S
C558 C559 1.397 . S
C558 C563 1.363 . S
C559 H530 0.950 . S
C559 C558 1.397 . S
C559 C560 1.334 . S
C560 H531 0.950 . S
C560 C559 1.334 . S
C560 C561 1.287 . S
C561 C560 1.287 . S
C561 C562 1.524 . S
C561 H564 0.999 . S
C562 H532 0.950 . S
C562 C561 1.524 . S
C562 C563 1.415 . S
C563 H533 0.950 . S
C563 C558 1.363 . S
C563 C562 1.415 . S
H564 C561 0.999 . S
H565 C546 0.913 . S
H566 C584 0.951 . S
H567 C586 0.951 . S
H568 C588 0.950 . S
H569 C589 0.950 . S
H570 C591 0.950 . S
H571 C594 0.950 . S
H572 C595 0.950 . S
H573 C597 0.950 . S
H574 C598 0.950 . S
H575 C599 0.951 . S
H576 C601 0.951 . S
H577 C603 0.950 . S
H578 C604 0.950 . S
H579 C606 0.950 . S
H580 C609 0.950 . S
H581 C610 0.950 . S
H582 C612 0.950 . S
H583 C613 0.950 . S
C584 H566 0.951 . S
C584 C585 1.366 . S
C584 C586 1.388 . S
C585 C584 1.366 . S
C585 C589 1.385 . S
C586 H567 0.951 . S
C586 C584 1.388 . S
C586 C587 1.366 . S
C587 C586 1.366 . S
C587 C588 1.414 . S
C587 C590 1.499 . S
C588 H568 0.950 . S
C588 C587 1.414 . S
C588 C589 1.374 . S
C589 H569 0.950 . S
C589 C585 1.385 . S
C589 C588 1.374 . S
C590 C587 1.499 . S
C590 C591 1.373 . S
C590 C592 1.389 . S
C591 H570 0.950 . S
C591 C590 1.373 . S
C591 C607 1.377 . S
C592 C590 1.389 . S
C592 C593 1.524 . S
C592 C606 1.377 . S
C593 C592 1.524 . S
C593 C594 1.397 . S
C593 C598 1.363 . S
C594 H571 0.950 . S
C594 C593 1.397 . S
C594 C595 1.334 . S
C595 H572 0.950 . S
C595 C594 1.334 . S
C595 C596 1.287 . S
C596 C595 1.287 . S
C596 C597 1.524 . S
C596 H615 0.913 . S
C597 H573 0.950 . S
C597 C596 1.524 . S
C597 C598 1.415 . S
C598 H574 0.950 . S
C598 C593 1.363 . S
C598 C597 1.415 . S
C599 H575 0.951 . S
C599 C600 1.366 . S
C599 C601 1.388 . S
C600 C599 1.366 . S
C600 C604 1.385 . S
C601 H576 0.951 . S
C601 C599 1.388 . S
C601 C602 1.366 . S
C602 C601 1.366 . S
C602 C603 1.414 . S
C602 C605 1.499 . S
C603 H577 0.950 . S
C603 C602 1.414 . S
C603 C604 1.374 . S
C604 H578 0.950 . S
C604 C600 1.385 . S
C604 C603 1.374 . S
C605 C602 1.499 . S
C605 C606 1.373 . S
C605 C607 1.389 . S
C606 H579 0.950 . S
C606 C592 1.377 . S
C606 C605 1.373 . S
C607 C591 1.377 . S
C607 C605 1.389 . S
C607 C608 1.524 . S
C608 C607 1.524 . S
C608 C609 1.397 . S
C608 C613 1.363 . S
C609 H580 0.950 . S
C609 C608 1.397 . S
C609 C610 1.334 . S
C610 H581 0.950 . S
C610 C609 1.334 . S
C610 C611 1.287 . S
C611 C610 1.287 . S
C611 C612 1.524 . S
C611 H614 0.999 . S
C612 H582 0.950 . S
C612 C611 1.524 . S
C612 C613 1.415 . S
C613 H583 0.950 . S
C613 C608 1.363 . S
C613 C612 1.415 . S
H614 C611 0.999 . S
H615 C596 0.913 . S
H616 C634 0.951 . S
H617 C636 0.951 . S
H618 C638 0.950 . S
H619 C639 0.950 . S
H620 C641 0.950 . S
H621 C644 0.950 . S
H622 C645 0.950 . S
H623 C647 0.950 . S
H624 C648 0.950 . S
H625 C649 0.951 . S
H626 C651 0.951 . S
H627 C653 0.950 . S
H628 C654 0.950 . S
H629 C656 0.950 . S
H630 C659 0.950 . S
H631 C660 0.950 . S
H632 C662 0.950 . S
H633 C663 0.950 . S
C634 H616 0.951 . S
C634 C635 1.366 . S
C634 C636 1.388 . S
C635 C634 1.366 . S
C635 C639 1.385 . S
C636 H617 0.951 . S
C636 C634 1.388 . S
C636 C637 1.366 . S
C637 C636 1.366 . S
C637 C638 1.414 . S
C637 C640 1.499 . S
C638 H618 0.950 . S
C638 C637 1.414 . S
C638 C639 1.374 . S
C639 H619 0.950 . S
C639 C635 1.385 . S
C639 C638 1.374 . S
C640 C637 1.499 . S
C640 C641 1.373 . S
C640 C642 1.389 . S
C641 H620 0.950 . S
C641 C640 1.373 . S
C641 C657 1.377 . S
C642 C640 1.389 . S
C642 C643 1.524 . S
C642 C656 1.377 . S
C643 C642 1.524 . S
C643 C644 1.397 . S
C643 C648 1.363 . S
C644 H621 0.950 . S
C644 C643 1.397 . S
C644 C645 1.334 . S
C645 H622 0.950 . S
C645 C644 1.334 . S
C645 C646 1.287 . S
C646 C645 1.287 . S
C646 C647 1.524 . S
C646 H665 0.913 . S
C647 H623 0.950 . S
C647 C646 1.524 . S
C647 C648 1.415 . S
C648 H624 0.950 . S
C648 C643 1.363 . S
C648 C647 1.415 . S
C649 H625 0.951 . S
C649 C650 1.366 . S
C649 C651 1.388 . S
C650 C649 1.366 . S
C650 C654 1.385 . S
C651 H626 0.951 . S
C651 C649 1.388 . S
C651 C652 1.366 . S
C652 C651 1.366 . S
C652 C653 1.414 . S
C652 C655 1.499 . S
C653 H627 0.950 . S
C653 C652 1.414 . S
C653 C654 1.374 . S
C654 H628 0.950 . S
C654 C650 1.385 . S
C654 C653 1.374 . S
C655 C652 1.499 . S
C655 C656 1.373 . S
C655 C657 1.389 . S
C656 H629 0.950 . S
C656 C642 1.377 . S
C656 C655 1.373 . S
C657 C641 1.377 . S
C657 C655 1.389 . S
C657 C658 1.524 . S
C658 C657 1.524 . S
C658 C659 1.397 . S
C658 C663 1.363 . S
C659 H630 0.950 . S
C659 C658 1.397 . S
C659 C660 1.334 . S
C660 H631 0.950 . S
C660 C659 1.334 . S
C660 C661 1.287 . S
C661 C660 1.287 . S
C661 C662 1.524 . S
C661 H664 0.999 . S
C662 H632 0.950 . S
C662 C661 1.524 . S
C662 C663 1.415 . S
C663 H633 0.950 . S
C663 C658 1.363 . S
C663 C662 1.415 . S
H664 C661 0.999 . S
H665 C646 0.913 . S
H666 C684 0.951 . S
H667 C686 0.951 . S
H668 C688 0.950 . S
H669 C689 0.950 . S
H670 C691 0.950 . S
H671 C694 0.950 . S
H672 C695 0.950 . S
H673 C697 0.950 . S
H674 C698 0.950 . S
H675 C699 0.951 . S
H676 C701 0.951 . S
H677 C703 0.950 . S
H678 C704 0.950 . S
H679 C706 0.950 . S
H680 C709 0.950 . S
H681 C710 0.950 . S
H682 C712 0.950 . S
H683 C713 0.950 . S
C684 H666 0.951 . S
C684 C685 1.366 . S
C684 C686 1.388 . S
C685 C684 1.366 . S
C685 C689 1.385 . S
C686 H667 0.951 . S
C686 C684 1.388 . S
C686 C687 1.366 . S
C687 C686 1.366 . S
C687 C688 1.414 . S
C687 C690 1.499 . S
C688 H668 0.950 . S
C688 C687 1.414 . S
C688 C689 1.374 . S
C689 H669 0.950 . S
C689 C685 1.385 . S
C689 C688 1.374 . S
C690 C687 1.499 . S
C690 C691 1.373 . S
C690 C692 1.389 . S
C691 H670 0.950 . S
C691 C690 1.373 . S
C691 C707 1.377 . S
C692 C690 1.389 . S
C692 C693 1.524 . S
C692 C706 1.377 . S
C693 C692 1.524 . S
C693 C694 1.397 . S
C693 C698 1.363 . S
C694 H671 0.950 . S
C694 C693 1.397 . S
C694 C695 1.334 . S
C695 H672 0.950 . S
C695 C694 1.334 . S
C695 C696 1.287 . S
C696 C695 1.287 . S
C696 C697 1.524 . S
C696 H715 0.913 . S
C697 H673 0.950 . S
C697 C696 1.524 . S
C697 C698 1.415 . S
C698 H674 0.950 . S
C698 C693 1.363 . S
C698 C697 1.415 . S
C699 H675 0.951 . S
C699 C700 1.366 . S
C699 C701 1.388 1_554 S
C700 C699 1.366 . S
C700 C704 1.385 1_554 S
C701 H676 0.951 . S
C701 C699 1.388 1_556 S
C701 C702 1.366 . S
C702 C701 1.366 . S
C702 C703 1.414 . S
C702 C705 1.499 . S
C703 H677 0.950 . S
C703 C702 1.414 . S
C703 C704 1.374 . S
C704 H678 0.950 . S
C704 C700 1.385 1_556 S
C704 C703 1.374 . S
C705 C702 1.499 . S
C705 C706 1.373 . S
C705 C707 1.389 . S
C706 H679 0.950 . S
C706 C692 1.377 . S
C706 C705 1.373 . S
C707 C691 1.377 . S
C707 C705 1.389 . S
C707 C708 1.524 . S
C708 C707 1.524 . S
C708 C709 1.397 . S
C708 C713 1.363 . S
C709 H680 0.950 . S
C709 C708 1.397 . S
C709 C710 1.334 . S
C710 H681 0.950 . S
C710 C709 1.334 . S
C710 C711 1.287 . S
C711 C710 1.287 . S
C711 C712 1.524 . S
C711 H714 0.999 . S
C712 H682 0.950 . S
C712 C711 1.524 . S
C712 C713 1.415 . S
C713 H683 0.950 . S
C713 C708 1.363 . S
C713 C712 1.415 . S
H714 C711 0.999 . S
H715 C696 0.913 . S
H716 C734 0.951 . S
H717 C736 0.951 . S
H718 C738 0.950 . S
H719 C739 0.950 . S
H720 C741 0.950 . S
H721 C744 0.950 . S
H722 C745 0.950 . S
H723 C747 0.950 . S
H724 C748 0.950 . S
H725 C749 0.951 . S
H726 C751 0.951 . S
H727 C753 0.950 . S
H728 C754 0.950 . S
H729 C756 0.950 . S
H730 C759 0.950 . S
H731 C760 0.950 . S
H732 C762 0.950 . S
H733 C763 0.950 . S
C734 H716 0.951 . S
C734 C735 1.366 1_554 S
C734 C736 1.388 . S
C735 C734 1.366 1_556 S
C735 C739 1.385 . S
C736 H717 0.951 . S
C736 C734 1.388 . S
C736 C737 1.366 . S
C737 C736 1.366 . S
C737 C738 1.414 . S
C737 C740 1.499 . S
C738 H718 0.950 . S
C738 C737 1.414 . S
C738 C739 1.374 1_554 S
C739 H719 0.950 . S
C739 C735 1.385 . S
C739 C738 1.374 1_556 S
C740 C737 1.499 . S
C740 C741 1.373 . S
C740 C742 1.389 . S
C741 H720 0.950 . S
C741 C740 1.373 . S
C741 C757 1.377 . S
C742 C740 1.389 . S
C742 C743 1.524 . S
C742 C756 1.377 . S
C743 C742 1.524 . S
C743 C744 1.397 . S
C743 C748 1.363 . S
C744 H721 0.950 . S
C744 C743 1.397 . S
C744 C745 1.334 . S
C745 H722 0.950 . S
C745 C744 1.334 . S
C745 C746 1.287 . S
C746 C745 1.287 . S
C746 C747 1.524 . S
C746 H765 0.913 . S
C747 H723 0.950 . S
C747 C746 1.524 . S
C747 C748 1.415 . S
C748 H724 0.950 . S
C748 C743 1.363 . S
C748 C747 1.415 . S
C749 H725 0.951 . S
C749 C750 1.366 . S
C749 C751 1.388 . S
C750 C749 1.366 . S
C750 C754 1.385 . S
C751 H726 0.951 . S
C751 C749 1.388 . S
C751 C752 1.366 . S
C752 C751 1.366 . S
C752 C753 1.414 . S
C752 C755 1.499 . S
C753 H727 0.950 . S
C753 C752 1.414 . S
C753 C754 1.374 . S
C754 H728 0.950 . S
C754 C750 1.385 . S
C754 C753 1.374 . S
C755 C752 1.499 . S
C755 C756 1.373 . S
C755 C757 1.389 . S
C756 H729 0.950 . S
C756 C742 1.377 . S
C756 C755 1.373 . S
C757 C741 1.377 . S
C757 C755 1.389 . S
C757 C758 1.524 . S
C758 C757 1.524 . S
C758 C759 1.397 . S
C758 C763 1.363 . S
C759 H730 0.950 . S
C759 C758 1.397 . S
C759 C760 1.334 . S
C760 H731 0.950 . S
C760 C759 1.334 . S
C760 C761 1.287 . S
C761 C760 1.287 . S
C761 C762 1.524 . S
C761 H764 0.999 . S
C762 H732 0.950 . S
C762 C761 1.524 . S
C762 C763 1.415 . S
C763 H733 0.950 . S
C763 C758 1.363 . S
C763 C762 1.415 . S
H764 C761 0.999 . S
H765 C746 0.913 . S
H766 C784 0.951 . S
H767 C786 0.951 . S
H768 C788 0.950 . S
H769 C789 0.950 . S
H770 C791 0.950 . S
H771 C794 0.950 . S
H772 C795 0.950 . S
H773 C797 0.950 . S
H774 C798 0.950 . S
H775 C799 0.951 . S
H776 C801 0.951 . S
H777 C803 0.950 . S
H778 C804 0.950 . S
H779 C806 0.950 . S
H780 C809 0.950 . S
H781 C810 0.950 . S
H782 C812 0.950 . S
H783 C813 0.950 . S
C784 H766 0.951 . S
C784 C785 1.366 . S
C784 C786 1.388 . S
C785 C784 1.366 . S
C785 C789 1.385 . S
C786 H767 0.951 . S
C786 C784 1.388 . S
C786 C787 1.366 . S
C787 C786 1.366 . S
C787 C788 1.414 . S
C787 C790 1.499 . S
C788 H768 0.950 . S
C788 C787 1.414 . S
C788 C789 1.374 . S
C789 H769 0.950 . S
C789 C785 1.385 . S
C789 C788 1.374 . S
C790 C787 1.499 . S
C790 C791 1.373 . S
C790 C792 1.389 . S
C791 H770 0.950 . S
C791 C790 1.373 . S
C791 C807 1.377 . S
C792 C790 1.389 . S
C792 C793 1.524 . S
C792 C806 1.377 . S
C793 C792 1.524 . S
C793 C794 1.397 . S
C793 C798 1.363 . S
C794 H771 0.950 . S
C794 C793 1.397 . S
C794 C795 1.334 . S
C795 H772 0.950 . S
C795 C794 1.334 . S
C795 C796 1.287 . S
C796 C795 1.287 . S
C796 C797 1.524 . S
C796 H815 0.913 . S
C797 H773 0.950 . S
C797 C796 1.524 . S
C797 C798 1.415 . S
C798 H774 0.950 . S
C798 C793 1.363 . S
C798 C797 1.415 . S
C799 H775 0.951 . S
C799 C800 1.366 . S
C799 C801 1.388 . S
C800 C799 1.366 . S
C800 C804 1.385 . S
C801 H776 0.951 . S
C801 C799 1.388 . S
C801 C802 1.366 . S
C802 C801 1.366 . S
C802 C803 1.414 . S
C802 C805 1.499 . S
C803 H777 0.950 . S
C803 C802 1.414 . S
C803 C804 1.374 . S
C804 H778 0.950 . S
C804 C800 1.385 . S
C804 C803 1.374 . S
C805 C802 1.499 . S
C805 C806 1.373 . S
C805 C807 1.389 . S
C806 H779 0.950 . S
C806 C792 1.377 . S
C806 C805 1.373 . S
C807 C791 1.377 . S
C807 C805 1.389 . S
C807 C808 1.524 . S
C808 C807 1.524 . S
C808 C809 1.397 . S
C808 C813 1.363 . S
C809 H780 0.950 . S
C809 C808 1.397 . S
C809 C810 1.334 . S
C810 H781 0.950 . S
C810 C809 1.334 . S
C810 C811 1.287 . S
C811 C810 1.287 . S
C811 C812 1.524 . S
C811 H814 0.999 . S
C812 H782 0.950 . S
C812 C811 1.524 . S
C812 C813 1.415 . S
C813 H783 0.950 . S
C813 C808 1.363 . S
C813 C812 1.415 . S
H814 C811 0.999 . S
H815 C796 0.913 . S
C235 C4 1.589 . S
C250 C183 1.592 . S
C285 C3 1.592 . S
C300 C40 1.589 . S
C335 C76 1.589 . S
C350 C39 1.592 . S
C385 C112 1.589 . S
C400 C75 1.592 . S
C435 C148 1.589 . S
C450 C111 1.592 . S
C485 C184 1.589 . S
C500 C147 1.592 . S
C535 C14 1.402 . S
C550 C146 1.452 . S
C585 C182 1.452 . S
C600 C50 1.402 . S
C635 C86 1.403 . S
C650 C2 1.453 . S
C685 C38 1.453 . S
C700 C122 1.403 . S
C735 C74 1.452 . S
C750 C158 1.401 . S
C785 C194 1.403 . S
C800 C110 1.453 . S
