# Generated by pormake.
# Topology wlb, (5)-cn, num edge types: 1
# Building blocks:
#     Node 0, Type 0, BuildingBlock: XOMCOT_clean_sbu_1, # of connection points: 5
#     Node 1, Type 0, BuildingBlock: XOMCOT_clean_sbu_1, # of connection points: 5
#     Node 2, Type 0, BuildingBlock: XOMCOT_clean_sbu_1, # of connection points: 5
#     Node 3, Type 0, BuildingBlock: XOMCOT_clean_sbu_1, # of connection points: 5
#     Node 4, Type 0, BuildingBlock: XOMCOT_clean_sbu_1, # of connection points: 5
#     Node 5, Type 0, BuildingBlock: XOMCOT_clean_sbu_1, # of connection points: 5
#     Node 6, Type 0, BuildingBlock: XOMCOT_clean_sbu_1, # of connection points: 5
#     Node 7, Type 0, BuildingBlock: XOMCOT_clean_sbu_1, # of connection points: 5
#     Node 8, Type 0, BuildingBlock: XOMCOT_clean_sbu_1, # of connection points: 5
#     Node 9, Type 0, BuildingBlock: XOMCOT_clean_sbu_1, # of connection points: 5
#     Node 10, Type 0, BuildingBlock: XOMCOT_clean_sbu_1, # of connection points: 5
#     Node 11, Type 0, BuildingBlock: XOMCOT_clean_sbu_1, # of connection points: 5
#     Node 12, Type 0, BuildingBlock: XOMCOT_clean_sbu_1, # of connection points: 5
#     Node 13, Type 0, BuildingBlock: XOMCOT_clean_sbu_1, # of connection points: 5
#     Node 14, Type 0, BuildingBlock: XOMCOT_clean_sbu_1, # of connection points: 5
#     Node 15, Type 0, BuildingBlock: XOMCOT_clean_sbu_1, # of connection points: 5
#     Node 16, Type 0, BuildingBlock: XOMCOT_clean_sbu_1, # of connection points: 5
#     Node 17, Type 0, BuildingBlock: XOMCOT_clean_sbu_1, # of connection points: 5
#     Edge 18, Type (0, 0), BuildingBlock: ZUJKAS_clean_linker_0, # of connection points: 2
#     Edge 19, Type (0, 0), BuildingBlock: ZUJKAS_clean_linker_0, # of connection points: 2
#     Edge 20, Type (0, 0), BuildingBlock: ZUJKAS_clean_linker_0, # of connection points: 2
#     Edge 21, Type (0, 0), BuildingBlock: ZUJKAS_clean_linker_0, # of connection points: 2
#     Edge 22, Type (0, 0), BuildingBlock: ZUJKAS_clean_linker_0, # of connection points: 2
#     Edge 23, Type (0, 0), BuildingBlock: ZUJKAS_clean_linker_0, # of connection points: 2
#     Edge 24, Type (0, 0), BuildingBlock: ZUJKAS_clean_linker_0, # of connection points: 2
#     Edge 25, Type (0, 0), BuildingBlock: ZUJKAS_clean_linker_0, # of connection points: 2
#     Edge 26, Type (0, 0), BuildingBlock: ZUJKAS_clean_linker_0, # of connection points: 2
#     Edge 27, Type (0, 0), BuildingBlock: ZUJKAS_clean_linker_0, # of connection points: 2
#     Edge 28, Type (0, 0), BuildingBlock: ZUJKAS_clean_linker_0, # of connection points: 2
#     Edge 29, Type (0, 0), BuildingBlock: ZUJKAS_clean_linker_0, # of connection points: 2
#     Edge 30, Type (0, 0), BuildingBlock: ZUJKAS_clean_linker_0, # of connection points: 2
#     Edge 31, Type (0, 0), BuildingBlock: ZUJKAS_clean_linker_0, # of connection points: 2
#     Edge 32, Type (0, 0), BuildingBlock: ZUJKAS_clean_linker_0, # of connection points: 2
#     Edge 33, Type (0, 0), BuildingBlock: ZUJKAS_clean_linker_0, # of connection points: 2
#     Edge 34, Type (0, 0), BuildingBlock: ZUJKAS_clean_linker_0, # of connection points: 2
#     Edge 35, Type (0, 0), BuildingBlock: ZUJKAS_clean_linker_0, # of connection points: 2
#     Edge 36, Type (0, 0), BuildingBlock: ZUJKAS_clean_linker_0, # of connection points: 2
#     Edge 37, Type (0, 0), BuildingBlock: ZUJKAS_clean_linker_0, # of connection points: 2
#     Edge 38, Type (0, 0), BuildingBlock: ZUJKAS_clean_linker_0, # of connection points: 2
#     Edge 39, Type (0, 0), BuildingBlock: ZUJKAS_clean_linker_0, # of connection points: 2
#     Edge 40, Type (0, 0), BuildingBlock: ZUJKAS_clean_linker_0, # of connection points: 2
#     Edge 41, Type (0, 0), BuildingBlock: ZUJKAS_clean_linker_0, # of connection points: 2
#     Edge 42, Type (0, 0), BuildingBlock: ZUJKAS_clean_linker_0, # of connection points: 2
#     Edge 43, Type (0, 0), BuildingBlock: ZUJKAS_clean_linker_0, # of connection points: 2
#     Edge 44, Type (0, 0), BuildingBlock: ZUJKAS_clean_linker_0, # of connection points: 2
#     Edge 45, Type (0, 0), BuildingBlock: ZUJKAS_clean_linker_0, # of connection points: 2
#     Edge 46, Type (0, 0), BuildingBlock: ZUJKAS_clean_linker_0, # of connection points: 2
#     Edge 47, Type (0, 0), BuildingBlock: ZUJKAS_clean_linker_0, # of connection points: 2
#     Edge 48, Type (0, 0), BuildingBlock: ZUJKAS_clean_linker_0, # of connection points: 2
#     Edge 49, Type (0, 0), BuildingBlock: ZUJKAS_clean_linker_0, # of connection points: 2
#     Edge 50, Type (0, 0), BuildingBlock: ZUJKAS_clean_linker_0, # of connection points: 2
#     Edge 51, Type (0, 0), BuildingBlock: ZUJKAS_clean_linker_0, # of connection points: 2
#     Edge 52, Type (0, 0), BuildingBlock: ZUJKAS_clean_linker_0, # of connection points: 2
#     Edge 53, Type (0, 0), BuildingBlock: ZUJKAS_clean_linker_0, # of connection points: 2
#     Edge 54, Type (0, 0), BuildingBlock: ZUJKAS_clean_linker_0, # of connection points: 2
#     Edge 55, Type (0, 0), BuildingBlock: ZUJKAS_clean_linker_0, # of connection points: 2
#     Edge 56, Type (0, 0), BuildingBlock: ZUJKAS_clean_linker_0, # of connection points: 2
#     Edge 57, Type (0, 0), BuildingBlock: ZUJKAS_clean_linker_0, # of connection points: 2
#     Edge 58, Type (0, 0), BuildingBlock: ZUJKAS_clean_linker_0, # of connection points: 2
#     Edge 59, Type (0, 0), BuildingBlock: ZUJKAS_clean_linker_0, # of connection points: 2
#     Edge 60, Type (0, 0), BuildingBlock: ZUJKAS_clean_linker_0, # of connection points: 2
#     Edge 61, Type (0, 0), BuildingBlock: ZUJKAS_clean_linker_0, # of connection points: 2
#     Edge 62, Type (0, 0), BuildingBlock: ZUJKAS_clean_linker_0, # of connection points: 2
# Relax obj value: 0.324
# Max RMSD: 0.210
# Mean RMSD: 0.210
data_MOF--net-wlb--node1-XOMCOT_clean_sbu_1--edge1-ZUJKAS_clean_linker_0
_symmetry_space_group_name_H-M    P1
_symmetry_Int_Tables_number       1
_symmetry_cell_setting            triclinic
loop_
_symmetry_equiv_pos_as_xyz
'x, y, z'
_cell_length_a     66.112759
_cell_length_b     66.140916
_cell_length_c     50.343979
_cell_angle_alpha  89.97961
_cell_angle_beta   89.996396
_cell_angle_gamma 120.01036
loop_
_atom_site_label
_atom_site_type_symbol
_atom_site_fract_x
_atom_site_fract_y
_atom_site_fract_z
_atom_type_partial_charge
C0 C 0.0897 0.19123 0.20262 0.0
C1 C 0.0991 0.17696 0.20592 0.0
N2 N 0.08762 0.16194 0.22586 0.0
N3 N 0.07238 0.18527 0.22039 0.0
C4 C 0.07156 0.16741 0.23434 0.0
H5 H 0.09502 0.20498 0.18802 0.0
Co6 Co 0.05418 0.19939 0.22344 0.0
C7 C 0.00745 0.16182 0.24145 0.0
O8 O 0.99743 0.17165 0.22838 0.0
N9 N 0.03622 0.21433 0.22713 0.0
C10 C 0.01553 0.22811 0.2473 0.0
C11 C 0.02774 0.21655 0.25076 0.0
C12 C 0.02943 0.22544 0.20973 0.0
N13 N 0.01666 0.2337 0.22149 0.0
O14 O 0.06899 0.21317 0.25638 0.0
H15 H 0.02984 0.20968 0.2694 0.0
H16 H 0.03328 0.22732 0.18878 0.0
O17 O 0.02972 0.17123 0.24135 0.0
C18 C 0.08855 0.23158 0.25222 0.0
O19 O 0.09639 0.23653 0.22773 0.0
N20 N 0.04169 0.18757 0.18978 0.0
C21 C 0.03176 0.17453 0.13652 0.0
C22 C 0.0225 0.15771 0.15677 0.0
C23 C 0.02801 0.16454 0.18327 0.0
C24 C 0.05169 0.20393 0.1703 0.0
C25 C 0.04653 0.19794 0.14365 0.0
H26 H 0.0222 0.15109 0.19815 0.0
H27 H 0.06409 0.2218 0.17556 0.0
H28 H 0.05959 0.1587 0.25058 0.0
H29 H 0.11295 0.17729 0.19413 0.0
H30 H 0.00662 0.23222 0.26257 0.0
H31 H 0.01185 0.13932 0.15217 0.0
H32 H 0.05425 0.21159 0.1288 0.0
C33 C 0.80652 0.89141 0.2025 0.0
C34 C 0.8191 0.91542 0.20278 0.0
N35 N 0.83629 0.9221 0.2208 0.0
N36 N 0.81592 0.88298 0.22003 0.0
C37 C 0.83397 0.90222 0.23104 0.0
H38 H 0.79187 0.88073 0.1897 0.0
Co39 Co 0.80602 0.85121 0.22348 0.0
C40 C 0.84387 0.86422 0.26446 0.0
O41 O 0.83306 0.86848 0.28366 0.0
N42 N 0.79583 0.81933 0.22686 0.0
C43 C 0.78936 0.78536 0.24318 0.0
C44 C 0.80046 0.80902 0.24728 0.0
C45 C 0.78142 0.80143 0.2109 0.0
N46 N 0.77737 0.78056 0.22023 0.0
O47 O 0.79023 0.84958 0.25578 0.0
H48 H 0.81095 0.81797 0.26441 0.0
H49 H 0.77351 0.8035 0.19312 0.0
O50 O 0.83454 0.8581 0.24155 0.0
C51 C 0.76962 0.84498 0.24982 0.0
O52 O 0.76422 0.84412 0.22456 0.0
N53 N 0.81953 0.85221 0.19054 0.0
C54 C 0.83365 0.85261 0.13835 0.0
C55 C 0.85001 0.86046 0.15908 0.0
C56 C 0.84258 0.86014 0.18519 0.0
C57 C 0.80369 0.84547 0.17044 0.0
C58 C 0.81028 0.8452 0.14427 0.0
H59 H 0.85548 0.86663 0.20078 0.0
H60 H 0.78575 0.84037 0.17484 0.0
H61 H 0.84597 0.90196 0.24534 0.0
H62 H 0.81606 0.92706 0.19047 0.0
H63 H 0.79028 0.77274 0.25605 0.0
H64 H 0.86829 0.8666 0.15516 0.0
H65 H 0.79724 0.83962 0.12872 0.0
C66 C 0.10281 0.9095 0.20372 0.0
C67 C 0.07906 0.89904 0.20732 0.0
N68 N 0.07485 0.91032 0.22698 0.0
N69 N 0.11361 0.92732 0.22096 0.0
C70 C 0.09619 0.92728 0.23502 0.0
H71 H 0.11167 0.90454 0.18932 0.0
Co72 Co 0.14577 0.94691 0.22301 0.0
C73 C 0.15313 0.99264 0.24107 0.0
O74 O 0.17129 0.00263 0.22513 0.0
N75 N 0.17865 0.96619 0.22568 0.0
C76 C 0.21323 0.98826 0.2451 0.0
C77 C 0.18955 0.97533 0.24904 0.0
C78 C 0.19637 0.97327 0.20796 0.0
N79 N 0.21746 0.9869 0.21927 0.0
O80 O 0.14648 0.93178 0.25497 0.0
H81 H 0.18074 0.973 0.26786 0.0
H82 H 0.19422 0.96891 0.18714 0.0
O83 O 0.14132 0.97031 0.24265 0.0
C84 C 0.1489 0.91451 0.24836 0.0
O85 O 0.14861 0.90983 0.22294 0.0
N86 N 0.14465 0.95964 0.19009 0.0
C87 C 0.13982 0.97068 0.13783 0.0
C88 C 0.13123 0.97795 0.15903 0.0
C89 C 0.13332 0.97178 0.185 0.0
C90 C 0.15172 0.95123 0.1696 0.0
C91 C 0.14995 0.95691 0.14339 0.0
H92 H 0.12492 0.97596 0.20068 0.0
H93 H 0.15826 0.93947 0.17364 0.0
H94 H 0.09911 0.93965 0.25059 0.0
H95 H 0.06601 0.8842 0.19631 0.0
H96 H 0.22636 0.99773 0.2601 0.0
H97 H 0.12267 0.98804 0.1556 0.0
H98 H 0.15577 0.94993 0.12759 0.0
C99 C 0.19941 0.09024 0.79877 0.0
C100 C 0.18854 0.10318 0.79548 0.0
N101 N 0.17245 0.09324 0.77612 0.0
N102 N 0.19015 0.07214 0.78168 0.0
C103 C 0.17394 0.0746 0.76791 0.0
H104 H 0.21237 0.09309 0.81366 0.0
Co105 Co 0.19624 0.04748 0.78274 0.0
C106 C 0.16026 0.02048 0.74038 0.0
O107 O 0.17461 0.02834 0.72004 0.0
N108 N 0.20219 0.02263 0.78409 0.0
C109 C 0.1971 0.98686 0.78692 0.0
C110 C 0.18612 0.99965 0.78385 0.0
C111 C 0.22281 0.02334 0.78767 0.0
N112 N 0.2202 0.00175 0.78937 0.0
O113 O 0.21449 0.05865 0.751 0.0
H114 H 0.16745 0.99251 0.78262 0.0
H115 H 0.23933 0.03937 0.78958 0.0
O116 O 0.16771 0.02765 0.76377 0.0
C117 C 0.23506 0.07407 0.75807 0.0
O118 O 0.23884 0.07942 0.78342 0.0
N119 N 0.18045 0.03798 0.81496 0.0
C120 C 0.16208 0.02774 0.86609 0.0
C121 C 0.1479 0.02592 0.84443 0.0
C122 C 0.15755 0.03145 0.81893 0.0
C123 C 0.19448 0.04007 0.83578 0.0
C124 C 0.18564 0.0349 0.86149 0.0
H125 H 0.1468 0.03109 0.80259 0.0
H126 H 0.21277 0.04604 0.83238 0.0
H127 H 0.16233 0.06221 0.75337 0.0
H128 H 0.19169 0.11829 0.80703 0.0
H129 H 0.18854 0.96804 0.78852 0.0
H130 H 0.12974 0.02086 0.84729 0.0
H131 H 0.19715 0.03641 0.87763 0.0
C132 C 0.92046 0.10777 0.79745 0.0
C133 C 0.91031 0.08392 0.79592 0.0
N134 N 0.9209 0.07874 0.77636 0.0
N135 N 0.93743 0.11769 0.77901 0.0
C136 C 0.93729 0.09956 0.7664 0.0
H137 H 0.91579 0.11733 0.8112 0.0
Co138 Co 0.95554 0.14976 0.77364 0.0
C139 C 1.00039 0.15805 0.74952 0.0
O140 O 0.01139 0.17955 0.75853 0.0
N141 N 0.97323 0.18253 0.76793 0.0
C142 C 0.98993 0.21659 0.74642 0.0
C143 C 0.97769 0.19275 0.74369 0.0
C144 C 0.98287 0.20079 0.78504 0.0
N145 N 0.99317 0.22165 0.77248 0.0
O146 O 0.93826 0.14706 0.74215 0.0
H147 H 0.9726 0.18347 0.72501 0.0
H148 H 0.98274 0.19913 0.80632 0.0
O149 O 0.9785 0.14491 0.7539 0.0
C150 C 0.92054 0.14876 0.74869 0.0
O151 O 0.9164 0.14948 0.77411 0.0
N152 N 0.97035 0.15208 0.8061 0.0
C153 C 0.98416 0.15263 0.85848 0.0
C154 C 0.99318 0.1451 0.83799 0.0
C155 C 0.98587 0.14475 0.81183 0.0
C156 C 0.96062 0.1583 0.82603 0.0
C157 C 0.96763 0.15921 0.85225 0.0
H158 H 0.99205 0.13772 0.79666 0.0
H159 H 0.94725 0.16262 0.82138 0.0
H160 H 0.94868 0.10151 0.74998 0.0
H161 H 0.89645 0.07139 0.80855 0.0
H162 H 0.99564 0.22919 0.7304 0.0
H163 H 0.00557 0.13933 0.84217 0.0
H164 H 0.95968 0.16439 0.86763 0.0
C165 C 0.90021 0.80969 0.79652 0.0
C166 C 0.92393 0.82398 0.79358 0.0
N167 N 0.92778 0.83811 0.77259 0.0
N168 N 0.88912 0.81493 0.77762 0.0
C169 C 0.90638 0.83206 0.7631 0.0
H170 H 0.89155 0.79661 0.81175 0.0
Co171 Co 0.85689 0.80153 0.77446 0.0
C172 C 0.84889 0.83958 0.75631 0.0
O173 O 0.82947 0.83013 0.7702 0.0
N174 N 0.82398 0.78723 0.77057 0.0
C175 C 0.78977 0.77252 0.74961 0.0
C176 C 0.81358 0.78419 0.7466 0.0
C177 C 0.80584 0.77697 0.78784 0.0
N178 N 0.7849 0.768 0.77559 0.0
O179 O 0.8576 0.78667 0.74222 0.0
H180 H 0.82277 0.79035 0.72795 0.0
H181 H 0.80759 0.77558 0.80893 0.0
O182 O 0.86127 0.82963 0.75562 0.0
C183 C 0.85582 0.76716 0.74844 0.0
O184 O 0.85669 0.76273 0.77375 0.0
N185 N 0.85656 0.81425 0.80768 0.0
C186 C 0.8599 0.82812 0.86065 0.0
C187 C 0.86836 0.84474 0.84015 0.0
C188 C 0.86696 0.83747 0.81379 0.0
C189 C 0.84935 0.79808 0.82745 0.0
C190 C 0.85027 0.8045 0.85394 0.0
H191 H 0.87535 0.85066 0.79868 0.0
H192 H 0.84316 0.77998 0.82258 0.0
H193 H 0.90333 0.8404 0.74634 0.0
H194 H 0.93728 0.82402 0.80606 0.0
H195 H 0.77705 0.76806 0.7339 0.0
H196 H 0.87686 0.86323 0.84448 0.0
H197 H 0.84365 0.791 0.869 0.0
C198 C 0.75559 0.52882 0.54338 0.0
C199 C 0.7671 0.51652 0.54665 0.0
N200 N 0.75339 0.4972 0.56101 0.0
N201 N 0.73472 0.5174 0.55563 0.0
C202 C 0.73383 0.49817 0.56621 0.0
H203 H 0.76187 0.54496 0.53247 0.0
Co204 Co 0.71346 0.52799 0.5559 0.0
C205 C 0.66792 0.48774 0.56926 0.0
O206 O 0.65932 0.49508 0.55048 0.0
N207 N 0.69232 0.5397 0.55696 0.0
C208 C 0.66869 0.55067 0.57554 0.0
C209 C 0.68116 0.53949 0.57958 0.0
C210 C 0.68665 0.55177 0.53959 0.0
N211 N 0.67218 0.55845 0.55036 0.0
O212 O 0.72653 0.54403 0.58866 0.0
H213 H 0.68236 0.53196 0.59818 0.0
H214 H 0.69308 0.55606 0.51955 0.0
O215 O 0.68991 0.49914 0.57418 0.0
C216 C 0.74038 0.56515 0.58174 0.0
O217 O 0.74316 0.57005 0.55623 0.0
N218 N 0.7032 0.51448 0.52223 0.0
C219 C 0.69557 0.50021 0.46895 0.0
C220 C 0.69004 0.48391 0.48964 0.0
C221 C 0.69412 0.4914 0.51611 0.0
C222 C 0.71058 0.5306 0.50247 0.0
C223 C 0.70593 0.52392 0.47599 0.0
H224 H 0.69084 0.47874 0.53149 0.0
H225 H 0.72067 0.54895 0.50727 0.0
H226 H 0.71922 0.48515 0.57755 0.0
H227 H 0.78403 0.52116 0.53848 0.0
H228 H 0.6585 0.55356 0.59031 0.0
H229 H 0.68327 0.46557 0.48564 0.0
H230 H 0.71073 0.53756 0.4614 0.0
C231 C 0.473 0.23113 0.54004 0.0
C232 C 0.48199 0.25401 0.54767 0.0
N233 N 0.49185 0.25684 0.57179 0.0
N234 N 0.47754 0.21949 0.559 0.0
C235 C 0.48782 0.2354 0.57868 0.0
H236 H 0.46461 0.22409 0.52127 0.0
Co237 Co 0.473 0.18878 0.55931 0.0
C238 C 0.52326 0.21891 0.57255 0.0
O239 O 0.52465 0.23385 0.5544 0.0
N240 N 0.46796 0.15852 0.56036 0.0
C241 C 0.46765 0.12614 0.57259 0.0
C242 C 0.47669 0.14947 0.57792 0.0
C243 C 0.45353 0.1404 0.54473 0.0
N244 N 0.45301 0.12039 0.55172 0.0
O245 O 0.45691 0.1833 0.59241 0.0
H246 H 0.48849 0.15904 0.59396 0.0
H247 H 0.44314 0.1418 0.52902 0.0
O248 O 0.5037 0.20024 0.5768 0.0
C249 C 0.43556 0.17496 0.58578 0.0
O250 O 0.43063 0.17369 0.56032 0.0
N251 N 0.48615 0.19227 0.52528 0.0
C252 C 0.4984 0.19246 0.4721 0.0
C253 C 0.5131 0.19315 0.49263 0.0
C254 C 0.50629 0.19225 0.51909 0.0
C255 C 0.47098 0.18987 0.50561 0.0
C256 C 0.47685 0.19031 0.47898 0.0
H257 H 0.51689 0.1907 0.5343 0.0
H258 H 0.45382 0.18689 0.51069 0.0
H259 H 0.49386 0.23169 0.59702 0.0
H260 H 0.4828 0.26785 0.53542 0.0
H261 H 0.47162 0.11438 0.58334 0.0
H262 H 0.52958 0.19403 0.48842 0.0
H263 H 0.46422 0.18822 0.46397 0.0
C264 C 0.778 0.24563 0.53495 0.0
C265 C 0.75412 0.23481 0.53717 0.0
N266 N 0.74876 0.24661 0.55505 0.0
N267 N 0.78779 0.2642 0.55131 0.0
C268 C 0.7696 0.26427 0.56344 0.0
H269 H 0.78767 0.2404 0.52208 0.0
Co270 Co 0.81978 0.28414 0.55465 0.0
C271 C 0.8264 0.32963 0.573 0.0
O272 O 0.84576 0.33997 0.55902 0.0
N273 N 0.85257 0.30371 0.5585 0.0
C274 C 0.88688 0.32408 0.57902 0.0
C275 C 0.86313 0.31113 0.58237 0.0
C276 C 0.87055 0.3123 0.54096 0.0
N277 N 0.89158 0.32485 0.55292 0.0
O278 O 0.81956 0.26881 0.58693 0.0
H279 H 0.85409 0.30746 0.6012 0.0
H280 H 0.86852 0.30974 0.51981 0.0
O281 O 0.81434 0.30726 0.57356 0.0
C282 C 0.8228 0.25196 0.5807 0.0
O283 O 0.82417 0.24799 0.55536 0.0
N284 N 0.81952 0.29688 0.52146 0.0
C285 C 0.81561 0.30716 0.46857 0.0
C286 C 0.80707 0.31512 0.48915 0.0
C287 C 0.80873 0.30936 0.51547 0.0
C288 C 0.82678 0.28804 0.50161 0.0
C289 C 0.82555 0.2934 0.47513 0.0
H290 H 0.80026 0.31399 0.53063 0.0
H291 H 0.83341 0.27649 0.50644 0.0
H292 H 0.77162 0.27722 0.57785 0.0
H293 H 0.74177 0.21939 0.52638 0.0
H294 H 0.89966 0.33194 0.59472 0.0
H295 H 0.79834 0.32493 0.4849 0.0
H296 H 0.83223 0.28667 0.45997 0.0
C297 C 0.86047 0.41893 0.12661 0.0
C298 C 0.84649 0.4288 0.12511 0.0
N299 N 0.83012 0.41745 0.10629 0.0
N300 N 0.85301 0.40141 0.10888 0.0
C301 C 0.83466 0.40106 0.09661 0.0
H302 H 0.87499 0.42398 0.14005 0.0
Co303 Co 0.86584 0.38218 0.10478 0.0
C304 C 0.82688 0.33647 0.08749 0.0
O305 O 0.83566 0.32648 0.10251 0.0
N306 N 0.87966 0.36327 0.10006 0.0
C307 C 0.89184 0.34163 0.07894 0.0
C308 C 0.88019 0.35385 0.07638 0.0
C309 C 0.89198 0.35716 0.11646 0.0
N310 N 0.89928 0.34382 0.10416 0.0
O311 O 0.88047 0.39784 0.0725 0.0
H312 H 0.8724 0.35565 0.05829 0.0
H313 H 0.89569 0.36216 0.13702 0.0
O314 O 0.83739 0.35881 0.08601 0.0
C315 C 0.90023 0.41514 0.07895 0.0
O316 O 0.90522 0.41921 0.10436 0.0
N317 N 0.85335 0.36897 0.13803 0.0
C318 C 0.84005 0.35661 0.19077 0.0
C319 C 0.82314 0.34981 0.17076 0.0
C320 C 0.83015 0.35657 0.14449 0.0
C321 C 0.86975 0.37724 0.1576 0.0
C322 C 0.86361 0.37077 0.18397 0.0
H323 H 0.81685 0.35255 0.12973 0.0
H324 H 0.88778 0.38942 0.15272 0.0
H325 H 0.82451 0.38873 0.08129 0.0
H326 H 0.84832 0.44323 0.13703 0.0
H327 H 0.89497 0.33221 0.0634 0.0
H328 H 0.8047 0.33959 0.17539 0.0
H329 H 0.87712 0.37741 0.19902 0.0
C330 C 0.57906 0.43888 0.12621 0.0
C331 C 0.56829 0.41504 0.12313 0.0
N332 N 0.57902 0.41041 0.10325 0.0
N333 N 0.5965 0.4492 0.10836 0.0
C334 C 0.59595 0.43144 0.09453 0.0
H335 H 0.57474 0.44813 0.14078 0.0
Co336 Co 0.61659 0.48114 0.105 0.0
C337 C 0.66196 0.48673 0.08944 0.0
O338 O 0.67171 0.505 0.10521 0.0
N339 N 0.63654 0.51389 0.10064 0.0
C340 C 0.65851 0.54727 0.0788 0.0
C341 C 0.64544 0.52343 0.07664 0.0
C342 C 0.64424 0.53262 0.11697 0.0
N343 N 0.65772 0.55303 0.10421 0.0
O344 O 0.60169 0.48096 0.07245 0.0
H345 H 0.64269 0.5136 0.05853 0.0
H346 H 0.64044 0.53173 0.13785 0.0
O347 O 0.6397 0.47544 0.08672 0.0
C348 C 0.58427 0.48346 0.07805 0.0
O349 O 0.57923 0.48395 0.10322 0.0
N350 N 0.62909 0.4808 0.13847 0.0
C351 C 0.63965 0.47661 0.19154 0.0
C352 C 0.64406 0.46495 0.1709 0.0
C353 C 0.63864 0.46723 0.14463 0.0
C354 C 0.62285 0.49053 0.1583 0.0
C355 C 0.62901 0.48976 0.18457 0.0
H356 H 0.64092 0.45694 0.12954 0.0
H357 H 0.61244 0.49852 0.15377 0.0
H358 H 0.60761 0.43383 0.07826 0.0
H359 H 0.55409 0.40212 0.1351 0.0
H360 H 0.66757 0.55942 0.0628 0.0
H361 H 0.65083 0.45337 0.17477 0.0
H362 H 0.62495 0.49924 0.19905 0.0
C363 C 0.56173 0.14347 0.13088 0.0
C364 C 0.58549 0.15797 0.12906 0.0
N365 N 0.58994 0.17297 0.10879 0.0
N366 N 0.55117 0.14927 0.11192 0.0
C367 C 0.5688 0.16714 0.09859 0.0
H368 H 0.55266 0.12973 0.14534 0.0
Co369 Co 0.51896 0.13536 0.10761 0.0
C370 C 0.5106 0.17341 0.09144 0.0
O371 O 0.49188 0.16389 0.10655 0.0
N372 N 0.48613 0.12062 0.10254 0.0
C373 C 0.45259 0.10844 0.08071 0.0
C374 C 0.47649 0.11995 0.07858 0.0
C375 C 0.46743 0.10858 0.11871 0.0
N376 N 0.44697 0.10129 0.10597 0.0
O377 O 0.52081 0.12186 0.07489 0.0
H378 H 0.48631 0.12783 0.06064 0.0
H379 H 0.46838 0.10536 0.13952 0.0
O380 O 0.5231 0.16365 0.08953 0.0
C381 C 0.52196 0.10348 0.07917 0.0
O382 O 0.52432 0.09832 0.10376 0.0
N383 N 0.51751 0.14705 0.14114 0.0
C384 C 0.51787 0.16004 0.19381 0.0
C385 C 0.52843 0.17707 0.17403 0.0
C386 C 0.52838 0.17021 0.14777 0.0
C387 C 0.509 0.13051 0.16057 0.0
C388 C 0.50827 0.13651 0.18692 0.0
H389 H 0.53791 0.18358 0.13314 0.0
H390 H 0.50314 0.1125 0.1556 0.0
H391 H 0.56617 0.17608 0.08215 0.0
H392 H 0.59845 0.15746 0.14172 0.0
H393 H 0.4403 0.10548 0.06493 0.0
H394 H 0.53684 0.19548 0.17886 0.0
H395 H 0.50098 0.12295 0.20192 0.0
C396 C 0.42461 0.85894 0.86644 0.0
C397 C 0.43331 0.84402 0.86883 0.0
N398 N 0.42165 0.8287 0.88849 0.0
N399 N 0.40748 0.85309 0.88443 0.0
C400 C 0.40623 0.83477 0.89777 0.0
H401 H 0.43022 0.87304 0.85226 0.0
Co402 Co 0.38968 0.8676 0.88771 0.0
C403 C 0.34235 0.83016 0.90296 0.0
O404 O 0.3336 0.84025 0.88808 0.0
N405 N 0.37215 0.883 0.89163 0.0
C406 C 0.35253 0.89759 0.91249 0.0
C407 C 0.36339 0.88466 0.91528 0.0
C408 C 0.36655 0.89547 0.87482 0.0
N409 N 0.35451 0.90441 0.88699 0.0
O410 O 0.40411 0.88056 0.921 0.0
H411 H 0.36456 0.87668 0.93353 0.0
H412 H 0.37143 0.8985 0.85418 0.0
O413 O 0.36456 0.83943 0.90499 0.0
C414 C 0.4239 0.89886 0.91755 0.0
O415 O 0.43238 0.90413 0.89333 0.0
N416 N 0.37755 0.85651 0.85374 0.0
C417 C 0.36762 0.84469 0.8003 0.0
C418 C 0.35881 0.82731 0.81993 0.0
C419 C 0.36432 0.83356 0.84658 0.0
C420 C 0.38748 0.87331 0.83471 0.0
C421 C 0.38228 0.86792 0.80795 0.0
H422 H 0.35878 0.8198 0.8611 0.0
H423 H 0.40001 0.89103 0.84037 0.0
H424 H 0.39394 0.82575 0.9136 0.0
H425 H 0.44719 0.84449 0.85697 0.0
H426 H 0.3435 0.90129 0.92799 0.0
H427 H 0.34804 0.80907 0.8147 0.0
H428 H 0.39033 0.88172 0.79331 0.0
C429 C 0.14328 0.56439 0.86332 0.0
C430 C 0.15733 0.58823 0.86475 0.0
N431 N 0.1727 0.59326 0.88474 0.0
N432 N 0.14978 0.55436 0.88221 0.0
C433 C 0.16753 0.57239 0.89519 0.0
H434 H 0.12941 0.55492 0.84914 0.0
Co435 Co 0.13668 0.52229 0.88667 0.0
C436 C 0.17457 0.51499 0.90751 0.0
O437 O 0.16531 0.49493 0.89493 0.0
N438 N 0.12255 0.48953 0.8916 0.0
C439 C 0.10745 0.45548 0.91298 0.0
C440 C 0.11877 0.47931 0.91577 0.0
C441 C 0.11303 0.47129 0.87445 0.0
N442 N 0.10386 0.45045 0.88693 0.0
O443 O 0.12158 0.52369 0.91835 0.0
H444 H 0.12422 0.48864 0.93442 0.0
H445 H 0.1123 0.47292 0.85324 0.0
O446 O 0.16466 0.52739 0.90636 0.0
C447 C 0.10197 0.5216 0.91193 0.0
O448 O 0.09717 0.52125 0.88654 0.0
N449 N 0.14978 0.52128 0.854 0.0
C450 C 0.16424 0.52359 0.80145 0.0
C451 C 0.18058 0.5319 0.82221 0.0
C452 C 0.17304 0.53103 0.84835 0.0
C453 C 0.13388 0.51416 0.83394 0.0
C454 C 0.14059 0.5146 0.80766 0.0
H455 H 0.1861 0.5393 0.86359 0.0
H456 H 0.11578 0.50832 0.83844 0.0
H457 H 0.17683 0.57026 0.91159 0.0
H458 H 0.1563 0.60084 0.85197 0.0
H459 H 0.10258 0.44289 0.9289 0.0
H460 H 0.19911 0.53987 0.81821 0.0
H461 H 0.12731 0.50811 0.79235 0.0
C462 C 0.44045 0.58435 0.86206 0.0
C463 C 0.41661 0.57414 0.86434 0.0
N464 N 0.41177 0.58306 0.88591 0.0
N465 N 0.45068 0.59975 0.88199 0.0
C466 C 0.43279 0.59844 0.89634 0.0
H467 H 0.4498 0.58112 0.84655 0.0
Co468 Co 0.48275 0.61862 0.88626 0.0
C469 C 0.48997 0.66282 0.90941 0.0
O470 O 0.50932 0.67392 0.89548 0.0
N471 N 0.51556 0.63714 0.89108 0.0
C472 C 0.54947 0.65545 0.91279 0.0
C473 C 0.52563 0.64304 0.91536 0.0
C474 C 0.53393 0.64603 0.87407 0.0
N475 N 0.55473 0.65735 0.88676 0.0
O476 O 0.48169 0.60084 0.91661 0.0
H477 H 0.51617 0.63863 0.93395 0.0
H478 H 0.53239 0.64449 0.85279 0.0
O479 O 0.47779 0.6405 0.90816 0.0
C480 C 0.48384 0.58361 0.9091 0.0
O481 O 0.48402 0.57993 0.88347 0.0
N482 N 0.48334 0.63419 0.85478 0.0
C483 C 0.48012 0.649 0.80384 0.0
C484 C 0.47095 0.6548 0.82576 0.0
C485 C 0.47235 0.64685 0.85104 0.0
C486 C 0.49105 0.62731 0.83344 0.0
C487 C 0.49017 0.63495 0.80791 0.0
H488 H 0.4635 0.64994 0.86715 0.0
H489 H 0.4974 0.61522 0.83622 0.0
H490 H 0.43511 0.60847 0.91415 0.0
H491 H 0.4039 0.56164 0.85064 0.0
H492 H 0.56194 0.66212 0.92893 0.0
H493 H 0.4624 0.66501 0.82333 0.0
H494 H 0.49648 0.62916 0.79139 0.0
C495 C 0.53755 0.76496 0.45667 0.0
C496 C 0.52735 0.77814 0.45059 0.0
N497 N 0.50956 0.76587 0.43363 0.0
N498 N 0.52634 0.74451 0.44351 0.0
C499 C 0.50951 0.74568 0.4295 0.0
H500 H 0.55148 0.76949 0.47082 0.0
Co501 Co 0.53117 0.71929 0.44826 0.0
C502 C 0.49812 0.68568 0.40897 0.0
O503 O 0.51466 0.68336 0.39741 0.0
N504 N 0.53568 0.69375 0.45342 0.0
C505 C 0.5283 0.65781 0.46245 0.0
C506 C 0.51863 0.67174 0.45886 0.0
C507 C 0.55564 0.69283 0.45425 0.0
N508 N 0.55161 0.67106 0.45954 0.0
O509 O 0.55007 0.72804 0.41691 0.0
H510 H 0.50028 0.6662 0.46065 0.0
H511 H 0.57281 0.70781 0.45124 0.0
O512 O 0.50302 0.69945 0.42865 0.0
C513 C 0.57075 0.74348 0.42354 0.0
O514 O 0.57478 0.74973 0.44863 0.0
N515 N 0.51479 0.71238 0.48004 0.0
C516 C 0.49661 0.70499 0.53123 0.0
C517 C 0.48185 0.69954 0.50908 0.0
C518 C 0.49137 0.7036 0.48347 0.0
C519 C 0.52934 0.71807 0.50126 0.0
C520 C 0.52064 0.71444 0.52701 0.0
H521 H 0.47995 0.69977 0.46659 0.0
H522 H 0.54788 0.72533 0.49805 0.0
H523 H 0.49694 0.73175 0.41705 0.0
H524 H 0.53183 0.79486 0.45923 0.0
H525 H 0.51891 0.63949 0.46774 0.0
H526 H 0.46323 0.69243 0.51155 0.0
H527 H 0.53263 0.71857 0.54347 0.0
C528 C 0.2555 0.77603 0.46068 0.0
C529 C 0.24606 0.75231 0.45801 0.0
N530 N 0.25752 0.74838 0.43839 0.0
N531 N 0.27281 0.78704 0.44281 0.0
C532 C 0.27363 0.76973 0.42946 0.0
H533 H 0.25011 0.78476 0.47478 0.0
Co534 Co 0.29009 0.8193 0.43885 0.0
C535 C 0.33634 0.83018 0.4182 0.0
O536 O 0.3457 0.84973 0.43184 0.0
N537 N 0.30693 0.85226 0.43434 0.0
C538 C 0.32435 0.88638 0.41299 0.0
C539 C 0.31287 0.86257 0.41018 0.0
C540 C 0.31488 0.87045 0.45152 0.0
N541 N 0.32565 0.89137 0.43904 0.0
O542 O 0.27305 0.81705 0.40736 0.0
H543 H 0.30948 0.85333 0.39152 0.0
H544 H 0.31274 0.86869 0.47275 0.0
O545 O 0.31417 0.81642 0.41878 0.0
C546 C 0.25499 0.8181 0.41397 0.0
O547 O 0.25063 0.81835 0.43941 0.0
N548 N 0.30466 0.82091 0.47134 0.0
C549 C 0.31751 0.81862 0.52359 0.0
C550 C 0.32589 0.81102 0.50247 0.0
C551 C 0.31888 0.81187 0.4765 0.0
C552 C 0.29555 0.8273 0.49174 0.0
C553 C 0.30217 0.8269 0.51789 0.0
H554 H 0.32394 0.80407 0.46098 0.0
H555 H 0.28269 0.83245 0.48764 0.0
H556 H 0.28543 0.77263 0.41315 0.0
H557 H 0.23207 0.73899 0.46986 0.0
H558 H 0.33165 0.899 0.39704 0.0
H559 H 0.33695 0.80355 0.50605 0.0
H560 H 0.29508 0.8328 0.5335 0.0
C561 C 0.23414 0.4782 0.4622 0.0
C562 C 0.25799 0.49135 0.45958 0.0
N563 N 0.26288 0.50556 0.43842 0.0
N564 N 0.22397 0.48413 0.44288 0.0
C565 C 0.2419 0.50072 0.42859 0.0
H566 H 0.22477 0.4653 0.47742 0.0
Co567 Co 0.19194 0.47143 0.43845 0.0
C568 C 0.18558 0.51056 0.42066 0.0
O569 O 0.16598 0.50138 0.4342 0.0
N570 N 0.15924 0.45784 0.43334 0.0
C571 C 0.12558 0.44438 0.41142 0.0
C572 C 0.14947 0.45577 0.40914 0.0
C573 C 0.14066 0.44728 0.44997 0.0
N574 N 0.12007 0.43909 0.43716 0.0
O575 O 0.19323 0.45726 0.40591 0.0
H576 H 0.15916 0.46241 0.39085 0.0
H577 H 0.14181 0.44505 0.47099 0.0
O578 O 0.19751 0.50013 0.4201 0.0
C579 C 0.19358 0.43849 0.4105 0.0
O580 O 0.19573 0.43341 0.4352 0.0
N581 N 0.19091 0.48358 0.4718 0.0
C582 C 0.19134 0.49646 0.52458 0.0
C583 C 0.20149 0.51351 0.50471 0.0
C584 C 0.20146 0.50671 0.47841 0.0
C585 C 0.18264 0.46703 0.49122 0.0
C586 C 0.18208 0.47297 0.51761 0.0
H587 H 0.21075 0.52014 0.46379 0.0
H588 H 0.17664 0.44901 0.48612 0.0
H589 H 0.23961 0.50895 0.41119 0.0
H590 H 0.27071 0.49088 0.4727 0.0
H591 H 0.11327 0.44062 0.39542 0.0
H592 H 0.20954 0.5319 0.50948 0.0
H593 H 0.17506 0.45935 0.53255 0.0
H594 H 0.93468 0.36419 0.13944 0.0
H595 H 0.95733 0.34747 0.15819 0.0
H596 H 0.91495 0.28384 0.1144 0.0
H597 H 0.89313 0.30101 0.09478 0.0
H598 H 0.94611 0.31242 0.18898 0.0
H599 H 0.97753 0.29424 0.09533 0.0
H600 H 0.96322 0.31136 0.09626 0.0
H601 H 0.94628 0.2799 0.09573 0.0
C602 C 0.93036 0.34669 0.13379 0.0
C603 C 0.91235 0.33393 0.11552 0.0
C604 C 0.94329 0.33715 0.14443 0.0
C605 C 0.93825 0.31455 0.13726 0.0
C606 C 0.91981 0.30159 0.11952 0.0
H607 H 0.97414 0.22784 0.23215 0.0
H608 H 0.95587 0.2482 0.21149 0.0
C609 C 0.90722 0.31132 0.10846 0.0
C610 C 0.95161 0.3042 0.14917 0.0
H611 H 0.98013 0.27457 0.13414 0.0
C612 C 0.95376 0.30437 0.17694 0.0
C613 C 0.96207 0.29409 0.13353 0.0
C614 C 0.96239 0.29512 0.10357 0.0
C615 C 0.96546 0.29421 0.1895 0.0
C616 C 0.97445 0.28265 0.17394 0.0
C617 C 0.97291 0.28306 0.14614 0.0
C618 C 0.98534 0.26987 0.18607 0.0
C619 C 0.96838 0.29642 0.21928 0.0
C620 C 0.00752 0.27436 0.17776 0.0
C621 C 0.01769 0.26224 0.18907 0.0
C622 C 0.00598 0.24562 0.2091 0.0
C623 C 0.98369 0.24091 0.21712 0.0
C624 C 0.97334 0.25266 0.20545 0.0
H625 H 0.96811 0.31211 0.22669 0.0
H626 H 0.95365 0.28092 0.22883 0.0
H627 H 0.98501 0.29758 0.22564 0.0
H628 H 0.01709 0.28743 0.16271 0.0
H629 H 0.03491 0.26619 0.18263 0.0
H630 H 0.64306 0.56823 0.14603 0.0
H631 H 0.66257 0.60761 0.16498 0.0
H632 H 0.71724 0.62981 0.10646 0.0
H633 H 0.6981 0.59041 0.08773 0.0
H634 H 0.73287 0.6423 0.16022 0.0
H635 H 0.6672 0.6673 0.13109 0.0
H636 H 0.65581 0.63979 0.14804 0.0
H637 H 0.66867 0.64338 0.11572 0.0
C638 C 0.65928 0.58146 0.13729 0.0
C639 C 0.66901 0.57621 0.11534 0.0
C640 C 0.67027 0.60399 0.14795 0.0
C641 C 0.69116 0.62164 0.13687 0.0
C642 C 0.70102 0.61644 0.11513 0.0
H643 H 0.76685 0.77101 0.16787 0.0
H644 H 0.74527 0.73239 0.1473 0.0
C645 C 0.68999 0.59397 0.10437 0.0
C646 C 0.70321 0.64537 0.14848 0.0
H647 H 0.69779 0.69339 0.15957 0.0
C648 C 0.72524 0.6535 0.16005 0.0
C649 C 0.69327 0.65996 0.14794 0.0
C650 C 0.67002 0.65233 0.13485 0.0
C651 C 0.73746 0.67576 0.17155 0.0
C652 C 0.72727 0.69013 0.17161 0.0
C653 C 0.70543 0.6822 0.15962 0.0
C654 C 0.7391 0.71345 0.18421 0.0
C655 C 0.76128 0.68386 0.18337 0.0
C656 C 0.74227 0.7155 0.21179 0.0
C657 C 0.75439 0.73749 0.22364 0.0
C658 C 0.76362 0.7579 0.2081 0.0
C659 C 0.75984 0.75573 0.18047 0.0
C660 C 0.74761 0.73367 0.16865 0.0
H661 H 0.76868 0.67286 0.17681 0.0
H662 H 0.77361 0.70228 0.17784 0.0
H663 H 0.75985 0.68289 0.20535 0.0
H664 H 0.73547 0.70004 0.22415 0.0
H665 H 0.75651 0.73845 0.24498 0.0
H666 H 0.41131 0.10863 0.09473 0.0
H667 H 0.37213 0.08862 0.11417 0.0
H668 H 0.39091 0.04577 0.16095 0.0
H669 H 0.43047 0.0666 0.14233 0.0
H670 H 0.33843 0.0457 0.11246 0.0
H671 H 0.36453 0.06734 0.21772 0.0
H672 H 0.38502 0.08046 0.19081 0.0
H673 H 0.37736 0.05181 0.20276 0.0
C674 C 0.40702 0.09497 0.10922 0.0
C675 C 0.42388 0.08922 0.1172 0.0
C676 C 0.38467 0.08355 0.12034 0.0
C677 C 0.37862 0.06594 0.13944 0.0
C678 C 0.39532 0.05978 0.14693 0.0
H679 H 0.23257 0.96864 0.18138 0.0
H680 H 0.27164 0.98711 0.16143 0.0
C681 C 0.41786 0.07157 0.1362 0.0
C682 C 0.35471 0.05387 0.15104 0.0
H683 H 0.32479 0.0391 0.2097 0.0
C684 C 0.33545 0.04436 0.13374 0.0
C685 C 0.35077 0.0524 0.1788 0.0
C686 C 0.37052 0.06376 0.19858 0.0
C687 C 0.31243 0.03347 0.14336 0.0
C688 C 0.30848 0.03115 0.17113 0.0
C689 C 0.32775 0.04064 0.18842 0.0
C690 C 0.28462 0.01972 0.18283 0.0
C691 C 0.2927 0.0253 0.1236 0.0
C692 C 0.27905 0.03151 0.20212 0.0
C693 C 0.25701 0.02073 0.21397 0.0
C694 C 0.23994 0.99805 0.20654 0.0
C695 C 0.24535 0.98627 0.1871 0.0
C696 C 0.26762 0.99689 0.17562 0.0
H697 H 0.29878 0.03478 0.10442 0.0
H698 H 0.2856 0.00646 0.11951 0.0
H699 H 0.27836 0.02777 0.13134 0.0
H700 H 0.29181 0.04911 0.20805 0.0
H701 H 0.25317 0.03019 0.2288 0.0
H702 H 0.21918 0.96163 0.77598 0.0
H703 H 0.2461 0.94872 0.79074 0.0
H704 H 0.28815 0.01449 0.83048 0.0
H705 H 0.26097 0.02745 0.81628 0.0
H706 H 0.31172 0.99082 0.79578 0.0
H707 H 0.2495 0.93831 0.87611 0.0
H708 H 0.23768 0.93658 0.84341 0.0
H709 H 0.24989 0.96348 0.86155 0.0
C710 C 0.23417 0.97341 0.78779 0.0
C711 C 0.23771 0.99546 0.79526 0.0
C712 C 0.24961 0.96606 0.79603 0.0
C713 C 0.26895 0.98062 0.81178 0.0
C714 C 0.27329 0.00307 0.81824 0.0
H715 H 0.34578 0.93562 0.9118 0.0
H716 H 0.32707 0.95614 0.89286 0.0
C717 C 0.25778 0.01045 0.81005 0.0
C718 C 0.28346 0.97155 0.82315 0.0
H719 H 0.28246 0.93393 0.87017 0.0
C720 C 0.30546 0.97847 0.81212 0.0
C721 C 0.2752 0.9556 0.84454 0.0
C722 C 0.25184 0.94806 0.85732 0.0
C723 C 0.3193 0.96942 0.82174 0.0
C724 C 0.31075 0.95298 0.84272 0.0
C725 C 0.28893 0.94648 0.85403 0.0
C726 C 0.32397 0.94209 0.85333 0.0
C727 C 0.343 0.97763 0.80956 0.0
C728 C 0.32849 0.92741 0.83735 0.0
C729 C 0.33904 0.91548 0.84819 0.0
C730 C 0.34513 0.9179 0.87526 0.0
C731 C 0.341 0.93304 0.89101 0.0
C732 C 0.33046 0.94493 0.88018 0.0
H733 H 0.34931 0.99419 0.79837 0.0
H734 H 0.35604 0.98025 0.82507 0.0
H735 H 0.34185 0.96416 0.79553 0.0
H736 H 0.32318 0.9246 0.8167 0.0
H737 H 0.34166 0.90373 0.83558 0.0
H738 H 0.11151 0.4389 0.83771 0.0
H739 H 0.09274 0.39995 0.81784 0.0
H740 H 0.0522 0.37102 0.88913 0.0
H741 H 0.07081 0.40989 0.90911 0.0
H742 H 0.07299 0.34604 0.87061 0.0
H743 H 0.026 0.36232 0.78949 0.0
H744 H 0.05683 0.38265 0.79055 0.0
H745 H 0.03853 0.38177 0.81746 0.0
C746 C 0.09838 0.42432 0.84903 0.0
C747 C 0.0926 0.42756 0.87498 0.0
C748 C 0.08767 0.40206 0.83764 0.0
C749 C 0.07084 0.38265 0.85188 0.0
C750 C 0.06512 0.38578 0.87779 0.0
H751 H 0.98569 0.23378 0.82153 0.0
H752 H 0.00517 0.27277 0.84121 0.0
C753 C 0.07584 0.408 0.88922 0.0
C754 C 0.0596 0.35895 0.84005 0.0
H755 H 0.02552 0.32623 0.78835 0.0
C756 C 0.06253 0.34166 0.85269 0.0
C757 C 0.04599 0.35332 0.81664 0.0
C758 C 0.04143 0.3709 0.80283 0.0
C759 C 0.05251 0.31896 0.84232 0.0
C760 C 0.0389 0.31334 0.81893 0.0
C761 C 0.036 0.33063 0.80626 0.0
C762 C 0.02743 0.28958 0.80728 0.0
C763 C 0.05695 0.30132 0.85618 0.0
C764 C 0.0332 0.28616 0.78151 0.0
C765 C 0.02211 0.26388 0.7702 0.0
C766 C 0.0049 0.24458 0.78438 0.0
C767 C 0.99914 0.24812 0.81021 0.0
C768 C 0.01025 0.27042 0.82151 0.0
H769 H 0.0723 0.30985 0.86964 0.0
H770 H 0.04146 0.28955 0.86833 0.0
H771 H 0.0599 0.29048 0.84157 0.0
H772 H 0.0464 0.30074 0.77019 0.0
H773 H 0.02719 0.26178 0.75042 0.0
H774 H 0.59451 0.69242 0.90824 0.0
H775 H 0.63372 0.71105 0.88918 0.0
H776 H 0.60686 0.6673 0.81984 0.0
H777 H 0.56759 0.64826 0.8389 0.0
H778 H 0.65948 0.68894 0.87321 0.0
H779 H 0.64409 0.73438 0.78948 0.0
H780 H 0.62472 0.72302 0.81771 0.0
H781 H 0.62359 0.70364 0.79203 0.0
C782 C 0.59689 0.68661 0.88901 0.0
C783 C 0.57779 0.66879 0.87514 0.0
C784 C 0.61932 0.69739 0.8781 0.0
C785 C 0.62313 0.69073 0.853 0.0
C786 C 0.6042 0.67299 0.83904 0.0
H787 H 0.74473 0.73472 0.75314 0.0
H788 H 0.7057 0.71562 0.77277 0.0
C789 C 0.58173 0.66215 0.84997 0.0
C790 C 0.64704 0.70198 0.84178 0.0
H791 H 0.68053 0.73571 0.79031 0.0
C792 C 0.66415 0.69924 0.85513 0.0
C793 C 0.65299 0.71535 0.81819 0.0
C794 C 0.63548 0.7195 0.80356 0.0
C795 C 0.68703 0.70919 0.84525 0.0
C796 C 0.69303 0.72263 0.82167 0.0
C797 C 0.67589 0.72539 0.80836 0.0
C798 C 0.71692 0.73386 0.81029 0.0
C799 C 0.70438 0.70472 0.85976 0.0
C800 C 0.73621 0.75056 0.82482 0.0
C801 C 0.75858 0.7615 0.81363 0.0
C802 C 0.76203 0.75615 0.78758 0.0
C803 C 0.74265 0.73943 0.77312 0.0
C804 C 0.72034 0.72843 0.78435 0.0
H805 H 0.69554 0.68921 0.87295 0.0
H806 H 0.71569 0.70201 0.8456 0.0
H807 H 0.71571 0.72007 0.87232 0.0
H808 H 0.73391 0.75543 0.84465 0.0
H809 H 0.77307 0.77457 0.82512 0.0
H810 H 0.69221 0.59073 0.51105 0.0
H811 H 0.67725 0.61476 0.49186 0.0
H812 H 0.6168 0.58098 0.54275 0.0
H813 H 0.63154 0.55695 0.56189 0.0
H814 H 0.63576 0.60215 0.46539 0.0
H815 H 0.6416 0.65006 0.55778 0.0
H816 H 0.65601 0.63315 0.55394 0.0
H817 H 0.62548 0.61901 0.56242 0.0
C818 C 0.67565 0.5883 0.518 0.0
C819 C 0.66315 0.57205 0.53818 0.0
C820 C 0.66721 0.60214 0.50712 0.0
C821 C 0.64619 0.60001 0.51631 0.0
C822 C 0.63339 0.58338 0.53591 0.0
H823 H 0.54466 0.62762 0.45147 0.0
H824 H 0.57128 0.61346 0.4624 0.0
C825 C 0.64182 0.56962 0.54681 0.0
C826 C 0.63719 0.61475 0.50519 0.0
H827 H 0.6167 0.65088 0.52356 0.0
C828 C 0.6319 0.61309 0.47801 0.0
C829 C 0.63265 0.62943 0.52153 0.0
C830 C 0.63946 0.63324 0.55048 0.0
C831 C 0.62088 0.62464 0.46706 0.0
C832 C 0.61465 0.6378 0.48387 0.0
C833 C 0.62123 0.64058 0.51071 0.0
C834 C 0.5996 0.64716 0.47471 0.0
C835 C 0.61578 0.62237 0.43767 0.0
C836 C 0.60651 0.67082 0.47826 0.0
C837 C 0.5911 0.67893 0.4724 0.0
C838 C 0.56841 0.66345 0.46314 0.0
C839 C 0.56186 0.63994 0.45889 0.0
C840 C 0.57722 0.63187 0.46476 0.0
H841 H 0.62843 0.61917 0.42654 0.0
H842 H 0.59807 0.60724 0.43417 0.0
H843 H 0.61637 0.63827 0.42956 0.0
H844 H 0.62365 0.68288 0.48615 0.0
H845 H 0.59663 0.69708 0.47612 0.0
H846 H 0.34398 0.90341 0.48873 0.0
H847 H 0.36413 0.94258 0.50798 0.0
H848 H 0.35348 0.9708 0.43556 0.0
H849 H 0.333 0.9317 0.41627 0.0
H850 H 0.40018 0.99458 0.45498 0.0
H851 H 0.33593 0.98276 0.53327 0.0
H852 H 0.34473 0.96107 0.53296 0.0
H853 H 0.32859 0.96312 0.5054 0.0
C854 C 0.34554 0.91784 0.47702 0.0
C855 C 0.33681 0.91432 0.45091 0.0
C856 C 0.35711 0.94025 0.48806 0.0
C857 C 0.36008 0.95954 0.47327 0.0
C858 C 0.35134 0.95612 0.4473 0.0
H859 H 0.43531 0.11012 0.50161 0.0
H860 H 0.41215 0.0713 0.48199 0.0
C861 C 0.33974 0.93375 0.43627 0.0
C862 C 0.37311 0.98343 0.48448 0.0
H863 H 0.37243 0.01794 0.53448 0.0
C864 C 0.39408 0.99977 0.47227 0.0
C865 C 0.36508 0.99007 0.50705 0.0
C866 C 0.34225 0.97344 0.52037 0.0
C867 C 0.40758 0.02248 0.48241 0.0
C868 C 0.39959 0.02913 0.50504 0.0
C869 C 0.37851 0.01281 0.51713 0.0
C870 C 0.41314 0.05275 0.51694 0.0
C871 C 0.43061 0.03888 0.46929 0.0
C872 C 0.42077 0.05519 0.54334 0.0
C873 C 0.4337 0.07731 0.55473 0.0
C874 C 0.43928 0.09753 0.53998 0.0
C875 C 0.43127 0.09499 0.51361 0.0
C876 C 0.41826 0.0728 0.50225 0.0
H877 H 0.43695 0.02934 0.45678 0.0
H878 H 0.42838 0.05116 0.45627 0.0
H879 H 0.44418 0.04926 0.48432 0.0
H880 H 0.41685 0.03994 0.55511 0.0
H881 H 0.43913 0.07849 0.5752 0.0
H882 H 0.08013 0.40661 0.41351 0.0
H883 H 0.04086 0.38699 0.4326 0.0
H884 H 0.06822 0.42506 0.50568 0.0
H885 H 0.1076 0.44464 0.48673 0.0
H886 H 0.03787 0.37859 0.51412 0.0
H887 H 0.99879 0.41443 0.44425 0.0
H888 H 0.01203 0.39976 0.42806 0.0
H889 H 0.02991 0.42601 0.44666 0.0
C890 C 0.07775 0.41097 0.43355 0.0
C891 C 0.09697 0.42728 0.44856 0.0
C892 C 0.05529 0.39978 0.44442 0.0
C893 C 0.05154 0.40489 0.47038 0.0
C894 C 0.07071 0.42093 0.48555 0.0
H895 H 0.93135 0.3614 0.57252 0.0
H896 H 0.9701 0.38023 0.55237 0.0
C897 C 0.09321 0.43203 0.47475 0.0
C898 C 0.0277 0.39312 0.48198 0.0
H899 H 0.97258 0.38422 0.47319 0.0
C900 C 0.02362 0.37992 0.50525 0.0
C901 C 0.00913 0.39485 0.47034 0.0
C902 C 0.01267 0.4097 0.4461 0.0
C903 C 1.0014 0.36816 0.517 0.0
C904 C 0.98286 0.36983 0.50531 0.0
C905 C 0.98686 0.38293 0.48201 0.0
C906 C 0.95926 0.35844 0.51732 0.0
C907 C 0.99782 0.35375 0.54165 0.0
C908 C 0.94023 0.34024 0.50401 0.0
C909 C 0.918 0.32927 0.51556 0.0
C910 C 0.91437 0.33644 0.54058 0.0
C911 C 0.9335 0.35504 0.55354 0.0
C912 C 0.9557 0.36591 0.54203 0.0
H913 H 0.01231 0.35007 0.54474 0.0
H914 H 0.997 0.36343 0.55923 0.0
H915 H 0.9811 0.33691 0.54053 0.0
H916 H 0.94266 0.3343 0.48485 0.0
H917 H 0.90382 0.3149 0.50508 0.0
H918 H 0.16521 0.42962 0.36722 0.0
H919 H 0.14753 0.39389 0.34032 0.0
H920 H 0.18955 0.37053 0.3811 0.0
H921 H 0.20657 0.40567 0.40855 0.0
H922 H 0.16255 0.37246 0.30679 0.0
H923 H 0.12467 0.31746 0.39616 0.0
H924 H 0.13819 0.34884 0.39705 0.0
H925 H 0.15584 0.33514 0.39824 0.0
C926 C 0.17101 0.41708 0.37 0.0
C927 C 0.18709 0.42027 0.3901 0.0
C928 C 0.16079 0.39661 0.35478 0.0
C929 C 0.16665 0.37918 0.35934 0.0
C930 C 0.18414 0.38333 0.37789 0.0
H931 H 0.13471 0.26307 0.25546 0.0
H932 H 0.15331 0.29815 0.283 0.0
C933 C 0.19406 0.40354 0.39333 0.0
C934 C 0.15404 0.35636 0.34542 0.0
H935 H 0.12324 0.29743 0.35612 0.0
C936 C 0.15386 0.35607 0.31757 0.0
C937 C 0.14216 0.33495 0.35949 0.0
C938 C 0.13997 0.33407 0.38937 0.0
C939 C 0.1428 0.33496 0.30341 0.0
C940 C 0.13223 0.31352 0.31751 0.0
C941 C 0.13173 0.31383 0.34534 0.0
C942 C 0.12158 0.29067 0.30362 0.0
C943 C 0.14223 0.3359 0.27347 0.0
C944 C 0.09794 0.27388 0.30755 0.0
C945 C 0.08738 0.25343 0.29228 0.0
C946 C 0.10032 0.24964 0.27278 0.0
C947 C 0.1243 0.26569 0.27021 0.0
C948 C 0.13488 0.28587 0.28571 0.0
H949 H 0.14439 0.3528 0.26643 0.0
H950 H 0.15685 0.33417 0.26521 0.0
H951 H 0.12558 0.32153 0.26543 0.0
H952 H 0.08741 0.2771 0.32152 0.0
H953 H 0.06883 0.24142 0.29453 0.0
H954 H 0.61461 0.77891 0.43316 0.0
H955 H 0.6478 0.79636 0.40312 0.0
H956 H 0.6054 0.74991 0.34063 0.0
H957 H 0.57163 0.73196 0.37097 0.0
H958 H 0.65124 0.75415 0.34837 0.0
H959 H 0.65618 0.84018 0.34017 0.0
H960 H 0.65469 0.83022 0.37369 0.0
H961 H 0.63035 0.81427 0.35171 0.0
C962 C 0.61216 0.77235 0.41302 0.0
C963 C 0.59039 0.75406 0.40442 0.0
C964 C 0.63121 0.78246 0.39584 0.0
C965 C 0.62898 0.77465 0.36961 0.0
C966 C 0.60738 0.75626 0.36084 0.0
H967 H 0.72803 0.84302 0.24331 0.0
H968 H 0.69462 0.82615 0.27325 0.0
C969 C 0.58813 0.74609 0.37811 0.0
C970 C 0.64954 0.78569 0.35177 0.0
H971 H 0.68905 0.8381 0.32455 0.0
C972 C 0.65946 0.77245 0.34297 0.0
C973 C 0.66014 0.80956 0.34477 0.0
C974 C 0.64971 0.82438 0.35285 0.0
C975 C 0.68 0.7826 0.32766 0.0
C976 C 0.69099 0.80666 0.32136 0.0
C977 C 0.6808 0.81976 0.32979 0.0
C978 C 0.71211 0.8182 0.30436 0.0
C979 C 0.68955 0.76743 0.31799 0.0
C980 C 0.73336 0.82002 0.31228 0.0
C981 C 0.75269 0.82981 0.29515 0.0
C982 C 0.75093 0.83784 0.26987 0.0
C983 C 0.72992 0.83685 0.26258 0.0
C984 C 0.71076 0.82721 0.27967 0.0
H985 H 0.67651 0.74855 0.31982 0.0
H986 H 0.69512 0.77134 0.29691 0.0
H987 H 0.70506 0.77105 0.33003 0.0
H988 H 0.73487 0.81354 0.33151 0.0
H989 H 0.76864 0.8303 0.30125 0.0
H990 H 0.1635 0.92612 0.30019 0.0
H991 H 0.17895 0.90706 0.32916 0.0
H992 H 0.16461 0.85559 0.26846 0.0
H993 H 0.14879 0.87402 0.23992 0.0
H994 H 0.15351 0.83614 0.31771 0.0
H995 H 0.24294 0.91346 0.31641 0.0
H996 H 0.22074 0.91912 0.3287 0.0
H997 H 0.22007 0.91077 0.2946 0.0
C998 C 0.16328 0.9105 0.29328 0.0
C999 C 0.15513 0.90169 0.2677 0.0
C1000 C 0.17233 0.89979 0.3097 0.0
C1001 C 0.1734 0.88021 0.30069 0.0
C1002 C 0.16413 0.87076 0.27574 0.0
H1003 H 0.26553 0.83189 0.36184 0.0
H1004 H 0.24463 0.84494 0.33245 0.0
C1005 C 0.15512 0.88137 0.25943 0.0
C1006 C 0.18482 0.86982 0.31658 0.0
H1007 H 0.23714 0.88151 0.34303 0.0
C1008 C 0.17179 0.84606 0.32329 0.0
C1009 C 0.20881 0.88265 0.32325 0.0
C1010 C 0.22407 0.90785 0.31519 0.0
C1011 C 0.182 0.83486 0.33685 0.0
C1012 C 0.20578 0.84789 0.34433 0.0
C1013 C 0.2189 0.87156 0.3373 0.0
C1014 C 0.2171 0.83768 0.36069 0.0
C1015 C 0.1673 0.80909 0.34263 0.0
C1016 C 0.20839 0.829 0.38607 0.0
C1017 C 0.22015 0.82146 0.4027 0.0
C1018 C 0.24103 0.82262 0.39443 0.0
C1019 C 0.24939 0.83059 0.36866 0.0
C1020 C 0.23755 0.83818 0.35195 0.0
H1021 H 0.15237 0.80039 0.32863 0.0
H1022 H 0.17782 0.80028 0.34141 0.0
H1023 H 0.16006 0.80667 0.36302 0.0
H1024 H 0.19295 0.82889 0.39346 0.0
H1025 H 0.21326 0.81546 0.42246 0.0
H1026 H 0.38932 0.15124 0.57456 0.0
H1027 H 0.35655 0.13457 0.60519 0.0
H1028 H 0.40404 0.15966 0.67159 0.0
H1029 H 0.43749 0.17656 0.6407 0.0
H1030 H 0.3487 0.10055 0.64847 0.0
H1031 H 0.35567 0.18425 0.68132 0.0
H1032 H 0.36845 0.18186 0.6506 0.0
H1033 H 0.38171 0.18197 0.68169 0.0
C1034 C 0.39299 0.15337 0.59566 0.0
C1035 C 0.41611 0.16536 0.60519 0.0
C1036 C 0.37414 0.14372 0.61313 0.0
C1037 C 0.37787 0.14596 0.64056 0.0
C1038 C 0.40086 0.1579 0.65038 0.0
H1039 H 0.28009 0.10523 0.77019 0.0
H1040 H 0.31395 0.12174 0.74121 0.0
C1041 C 0.41991 0.1675 0.63278 0.0
C1042 C 0.35739 0.1356 0.65851 0.0
H1043 H 0.32457 0.14955 0.69859 0.0
C1044 C 0.34343 0.1112 0.6596 0.0
C1045 C 0.35057 0.14961 0.67273 0.0
C1046 C 0.36472 0.1759 0.67158 0.0
C1047 C 0.32289 0.10037 0.67485 0.0
C1048 C 0.31581 0.11438 0.68879 0.0
C1049 C 0.3299 0.13882 0.68774 0.0
C1050 C 0.29462 0.10413 0.70583 0.0
C1051 C 0.30927 0.07406 0.67636 0.0
C1052 C 0.27225 0.08886 0.69554 0.0
C1053 C 0.25261 0.07911 0.71226 0.0
C1054 C 0.25508 0.08473 0.73943 0.0
C1055 C 0.27746 0.10043 0.74939 0.0
C1056 C 0.29694 0.10997 0.73282 0.0
H1057 H 0.32003 0.06625 0.67026 0.0
H1058 H 0.30267 0.06807 0.6968 0.0
H1059 H 0.29405 0.06735 0.66278 0.0
H1060 H 0.26997 0.0845 0.67462 0.0
H1061 H 0.23561 0.06716 0.70398 0.0
H1062 H 0.82202 0.21111 0.57278 0.0
H1063 H 0.83541 0.19137 0.60268 0.0
H1064 H 0.84856 0.24244 0.66346 0.0
H1065 H 0.83543 0.26277 0.63316 0.0
H1066 H 0.88618 0.2357 0.65441 0.0
H1067 H 0.80537 0.15039 0.66716 0.0
H1068 H 0.81225 0.1583 0.63289 0.0
H1069 H 0.80519 0.17575 0.65419 0.0
C1070 C 0.8274 0.21801 0.59265 0.0
C1071 C 0.82767 0.23852 0.60063 0.0
C1072 C 0.83492 0.20656 0.6098 0.0
C1073 C 0.84272 0.21523 0.63541 0.0
C1074 C 0.84245 0.23538 0.6438 0.0
H1075 H 0.87914 0.14694 0.75682 0.0
H1076 H 0.86025 0.16234 0.72832 0.0
C1077 C 0.83482 0.24689 0.62657 0.0
C1078 C 0.85278 0.20413 0.65238 0.0
H1079 H 0.8412 0.15183 0.67877 0.0
C1080 C 0.87631 0.21742 0.65996 0.0
C1081 C 0.83984 0.18029 0.65965 0.0
C1082 C 0.8142 0.16541 0.65328 0.0
C1083 C 0.88738 0.20741 0.6742 0.0
C1084 C 0.87469 0.18333 0.68054 0.0
C1085 C 0.85103 0.17017 0.67343 0.0
C1086 C 0.88518 0.17191 0.69626 0.0
C1087 C 0.91243 0.22281 0.68275 0.0
C1088 C 0.905 0.17129 0.68726 0.0
C1089 C 0.91595 0.16245 0.70361 0.0
C1090 C 0.90714 0.15406 0.72915 0.0
C1091 C 0.88649 0.15344 0.73734 0.0
C1092 C 0.87563 0.16224 0.72106 0.0
H1093 H 0.91778 0.24162 0.68187 0.0
H1094 H 0.91516 0.21855 0.7033 0.0
H1095 H 0.92403 0.21992 0.66928 0.0
H1096 H 0.91235 0.1782 0.6679 0.0
H1097 H 0.93181 0.16315 0.69676 0.0
H1098 H 0.8544 0.72589 0.7564 0.0
H1099 H 0.83662 0.69144 0.72801 0.0
H1100 H 0.82271 0.72976 0.66848 0.0
H1101 H 0.8404 0.76457 0.69705 0.0
H1102 H 0.78761 0.67095 0.70923 0.0
H1103 H 0.85337 0.69503 0.62861 0.0
H1104 H 0.86086 0.70847 0.66107 0.0
H1105 H 0.84546 0.71646 0.63789 0.0
C1106 C 0.84791 0.7272 0.7371 0.0
C1107 C 0.84874 0.74798 0.72901 0.0
C1108 C 0.83771 0.70744 0.72094 0.0
C1109 C 0.82834 0.70807 0.69624 0.0
C1110 C 0.83002 0.72903 0.68746 0.0
H1111 H 0.75547 0.61057 0.57195 0.0
H1112 H 0.77608 0.64373 0.60146 0.0
C1113 C 0.84019 0.7489 0.70373 0.0
C1114 C 0.81549 0.6863 0.6806 0.0
H1115 H 0.81779 0.65963 0.62369 0.0
C1116 C 0.79417 0.66836 0.69054 0.0
C1117 C 0.82422 0.68308 0.65638 0.0
C1118 C 0.84731 0.70166 0.64529 0.0
C1119 C 0.78092 0.64745 0.67641 0.0
C1120 C 0.78959 0.64421 0.65204 0.0
C1121 C 0.81117 0.66208 0.64241 0.0
C1122 C 0.77591 0.62328 0.63509 0.0
C1123 C 0.75742 0.62946 0.68723 0.0
C1124 C 0.76858 0.60051 0.64423 0.0
C1125 C 0.75635 0.58122 0.62731 0.0
C1126 C 0.75176 0.58459 0.60093 0.0
C1127 C 0.75895 0.60737 0.59208 0.0
C1128 C 0.77078 0.62642 0.60894 0.0
H1129 H 0.7509 0.637 0.70242 0.0
H1130 H 0.74427 0.62177 0.67108 0.0
H1131 H 0.759 0.61518 0.69675 0.0
H1132 H 0.77271 0.59768 0.66421 0.0
H1133 H 0.75112 0.56387 0.63458 0.0
H1134 H 0.90298 0.40463 0.02655 0.0
H1135 H 0.93699 0.4252 0.99705 0.0
H1136 H 0.97347 0.47637 0.05825 0.0
H1137 H 0.93971 0.45644 0.08731 0.0
H1138 H 0.98053 0.49641 0.00948 0.0
H1139 H 0.9963 0.4214 0.00761 0.0
H1140 H 0.96797 0.41489 0.99601 0.0
H1141 H 0.97583 0.4228 0.03017 0.0
C1142 C 0.9181 0.4205 0.03345 0.0
C1143 C 0.91875 0.4288 0.05931 0.0
C1144 C 0.9376 0.43209 0.01672 0.0
C1145 C 0.95796 0.45203 0.0257 0.0
C1146 C 0.95805 0.46094 0.05096 0.0
H1147 H 0.09923 0.50702 0.96367 0.0
H1148 H 0.06502 0.49199 0.99304 0.0
C1149 C 0.93871 0.44946 0.06758 0.0
C1150 C 0.9796 0.46339 0.00949 0.0
H1151 H 0.02157 0.45434 0.98176 0.0
C1152 C 0.98948 0.4872 0.00335 0.0
C1153 C 0.99156 0.4515 0.00209 0.0
C1154 C 0.98255 0.4263 0.00948 0.0
C1155 C 0.01082 0.49937 0.98975 0.0
C1156 C 0.02239 0.48729 0.98161 0.0
C1157 C 0.01266 0.46356 0.988 0.0
C1158 C 0.04396 0.4986 0.9653 0.0
C1159 C 0.02096 0.52514 0.98465 0.0
C1160 C 0.04357 0.50757 0.94021 0.0
C1161 C 0.06301 0.51623 0.92359 0.0
C1162 C 0.08325 0.51594 0.93157 0.0
C1163 C 0.08398 0.50768 0.95708 0.0
C1164 C 0.06441 0.49895 0.97377 0.0
H1165 H 0.01416 0.53307 -0.001 0.0
H1166 H 0.04033 0.53461 0.98593 0.0
H1167 H 0.01597 0.52767 0.96441 0.0
H1168 H 0.02788 0.50707 0.93301 0.0
H1169 H 0.06184 0.52242 0.90404 0.0
H1170 H 0.49695 0.59316 0.96154 0.0
H1171 H 0.51194 0.57332 0.98982 0.0
H1172 H 0.49992 0.52444 0.92675 0.0
H1173 H 0.48459 0.54373 0.89875 0.0
H1174 H 0.48733 0.50313 0.97542 0.0
H1175 H 0.57657 0.58059 0.97834 0.0
H1176 H 0.55403 0.58593 0.99014 0.0
H1177 H 0.55431 0.57844 0.95588 0.0
C1178 C 0.49714 0.57794 0.95391 0.0
C1179 C 0.48975 0.57012 0.92785 0.0
C1180 C 0.50594 0.56679 0.96996 0.0
C1181 C 0.50752 0.54773 0.96014 0.0
C1182 C 0.49904 0.53922 0.93466 0.0
H1183 H 0.59704 0.49759 0.02633 0.0
H1184 H 0.57762 0.51118 0.9953 0.0
C1185 C 0.49028 0.5503 0.91867 0.0
C1186 C 0.51857 0.53689 0.97591 0.0
H1187 H 0.5699 0.54819 0.00487 0.0
C1188 C 0.50539 0.51297 0.98184 0.0
C1189 C 0.5423 0.54962 0.9837 0.0
C1190 C 0.55775 0.57501 0.97651 0.0
C1191 C 0.51513 0.50157 0.99592 0.0
C1192 C 0.53857 0.51452 0.00465 0.0
C1193 C 0.55192 0.53831 -0.0018 0.0
C1194 C 0.54914 0.50415 0.02198 0.0
C1195 C 0.50028 0.47572 0.0011 0.0
C1196 C 0.53945 0.49551 0.04705 0.0
C1197 C 0.5504 0.48775 0.06462 0.0
C1198 C 0.57139 0.48858 0.05762 0.0
C1199 C 0.58077 0.49654 0.03218 0.0
C1200 C 0.56978 0.50442 0.01453 0.0
H1201 H 0.48588 0.46721 0.9864 0.0
H1202 H 0.51089 0.46698 0.00046 0.0
H1203 H 0.4923 0.47298 0.02112 0.0
H1204 H 0.52383 0.49556 0.05344 0.0
H1205 H 0.54273 0.48175 0.08409 0.0
H1206 H 0.49363 0.09427 0.03582 0.0
H1207 H 0.4772 0.05895 0.00826 0.0
H1208 H 0.52066 0.03712 0.04859 0.0
H1209 H 0.53648 0.07186 0.07665 0.0
H1210 H 0.49382 0.03895 0.97436 0.0
H1211 H 0.45624 0.98259 0.06285 0.0
H1212 H 0.4688 0.01386 0.06413 0.0
H1213 H 0.48729 1.0011 0.06537 0.0
C1214 C 0.50003 0.08217 0.03835 0.0
C1215 C 0.51617 0.08564 0.05848 0.0
C1216 C 0.49052 0.06193 0.02275 0.0
C1217 C 0.49715 0.04504 0.027 0.0
C1218 C 0.51469 0.04952 0.04561 0.0
H1219 H 0.46982 0.93102 0.92191 0.0
H1220 H 0.48727 0.96577 0.95003 0.0
C1221 C 0.52392 0.06949 0.0614 0.0
C1222 C 0.48526 0.02238 0.01273 0.0
H1223 H 0.45583 0.96333 0.02258 0.0
C1224 C 0.48542 0.02242 0.98489 0.0
C1225 C 0.47376 1.00079 0.02649 0.0
C1226 C 0.47126 0.99953 0.05634 0.0
C1227 C 0.47507 0.00147 0.97043 0.0
C1228 C 0.46489 0.9799 0.98422 0.0
C1229 C 0.46404 0.97986 0.01205 0.0
C1230 C 0.45498 0.95726 0.97002 0.0
C1231 C 0.47483 0.0027 0.94049 0.0
C1232 C 0.43143 0.94005 0.97341 0.0
C1233 C 0.42153 0.91981 0.9578 0.0
C1234 C 0.43505 0.91666 0.93849 0.0
C1235 C 0.45896 0.93313 0.9365 0.0
C1236 C 0.46889 0.95311 0.95232 0.0
H1237 H 0.47664 0.01949 0.93359 0.0
H1238 H 0.48977 0.00146 0.93238 0.0
H1239 H 0.45844 0.98816 0.93216 0.0
H1240 H 0.42045 0.94277 0.98722 0.0
H1241 H 0.40302 0.90747 0.95963 0.0
H1242 H 0.99045 0.14126 0.11444 0.0
H1243 H 0.9819 0.1314 0.06744 0.0
H1244 H 0.05254 0.18348 0.04728 0.0
H1245 H 0.06162 0.19242 0.09414 0.0
H1246 H 0.98211 0.15873 0.02949 0.0
H1247 H 0.04503 0.13047 0.00212 0.0
H1248 H 0.03879 0.13373 0.03625 0.0
H1249 H 0.05966 0.1587 0.01743 0.0
C1250 C 0.00433 0.15022 0.10007 0.0
C1251 C 0.0267 0.16773 0.10811 0.0
C1252 C 0.99937 0.14464 0.07319 0.0
C1253 C 0.01667 0.15644 0.05384 0.0
C1254 C 0.03906 0.17371 0.06184 0.0
H1255 H 0.99741 0.18766 0.89444 0.0
H1256 H 0.00494 0.18664 0.94182 0.0
C1257 C 0.04409 0.17913 0.08868 0.0
C1258 C 0.01084 0.15229 0.0252 0.0
H1259 H 0.03007 0.14323 0.96586 0.0
C1260 C 0.99239 0.15499 0.01565 0.0
C1261 C 0.02397 0.14701 0.00715 0.0
C1262 C 0.04279 0.14205 0.01633 0.0
C1263 C 0.98741 0.15364 0.98845 0.0
C1264 C 1.00172 0.15022 0.97024 0.0
C1265 C 0.01942 0.14634 0.97983 0.0
C1266 C 0.99895 0.15133 0.94119 0.0
C1267 C 0.96686 0.15596 0.97953 0.0
C1268 C 0.99434 0.13228 0.92488 0.0
C1269 C 0.99039 0.13297 0.89768 0.0
C1270 C 0.99094 0.15272 0.8865 0.0
C1271 C 0.99652 0.1721 0.90268 0.0
C1272 C 1.00069 0.17148 0.92974 0.0
H1273 H 0.95366 0.15093 0.99559 0.0
H1274 H 0.97302 0.17444 0.97428 0.0
H1275 H 0.95825 0.14496 0.96184 0.0
H1276 H 0.99313 0.11664 0.93332 0.0
H1277 H 0.98602 0.11777 0.88562 0.0
H1278 H 0.87082 0.80993 0.90351 0.0
H1279 H 0.87005 0.8189 0.95031 0.0
H1280 H 0.85397 0.87246 0.92893 0.0
H1281 H 0.85341 0.8627 0.88194 0.0
H1282 H 0.89444 0.85793 0.98024 0.0
H1283 H 0.80032 0.83147 0.97783 0.0
H1284 H 0.81453 0.82584 0.95061 0.0
H1285 H 0.81833 0.8545 0.95519 0.0
C1286 C 0.86685 0.82345 0.9087 0.0
C1287 C 0.86165 0.83523 0.88895 0.0
C1288 C 0.86671 0.82876 0.93548 0.0
C1289 C 0.86151 0.84603 0.94313 0.0
C1290 C 0.85751 0.8587 0.92347 0.0
H1291 H 0.86977 0.8878 0.11074 0.0
H1292 H 0.87852 0.88823 0.06328 0.0
C1293 C 0.85745 0.85326 0.89661 0.0
C1294 C 0.85925 0.84982 0.97173 0.0
H1295 H 0.81986 0.8452 0.01857 0.0
C1296 C 0.8782 0.8553 0.98866 0.0
C1297 C 0.83792 0.84609 0.98264 0.0
C1298 C 0.81653 0.83894 0.96572 0.0
C1299 C 0.87625 0.85669 0.0163 0.0
C1300 C 0.85494 0.853 0.02716 0.0
C1301 C 0.8362 0.84808 0.01015 0.0
C1302 C 0.851 0.85267 0.05617 0.0
C1303 C 0.89668 0.86115 0.03366 0.0
C1304 C 0.83258 0.83263 0.06785 0.0
C1305 C 0.82742 0.83247 0.09472 0.0
C1306 C 0.84064 0.85233 0.1105 0.0
C1307 C 0.85951 0.87219 0.09904 0.0
C1308 C 0.86453 0.87243 0.07199 0.0
H1309 H 0.90948 0.85795 0.02287 0.0
H1310 H 0.90584 0.87964 0.0402 0.0
H1311 H 0.89072 0.84991 0.05163 0.0
H1312 H 0.82196 0.81718 0.05604 0.0
H1313 H 0.8129 0.81688 0.10314 0.0
H1314 H 0.12119 0.99021 0.88309 0.0
H1315 H 0.10822 0.97926 0.9292 0.0
H1316 H 0.16927 0.04177 0.95667 0.0
H1317 H 0.18198 0.053 0.91088 0.0
H1318 H 0.13352 0.97061 0.9659 0.0
H1319 H 0.11827 0.04051 0.00292 0.0
H1320 H 0.1196 0.03524 0.96791 0.0
H1321 H 0.14603 0.05222 0.98665 0.0
C1322 C 0.13148 0.00187 0.89898 0.0
C1323 C 0.15266 0.02236 0.89347 0.0
C1324 C 0.1241 0.99559 0.92525 0.0
C1325 C 0.13763 0.00986 0.94632 0.0
C1326 C 0.1583 0.03075 0.94073 0.0
H1327 H 0.17196 0.98356 0.09805 0.0
H1328 H 0.1675 0.99103 0.05154 0.0
C1329 C 0.1657 0.03699 0.91457 0.0
C1330 C 0.13197 0.00178 0.97415 0.0
H1331 H 0.12763 0.01994 0.03626 0.0
C1332 C 0.13171 0.98113 0.98122 0.0
C1333 C 0.12938 0.01538 0.99408 0.0
C1334 C 0.12808 0.03694 0.98747 0.0
C1335 C 0.13052 0.97456 0.00789 0.0
C1336 C 0.12987 0.98918 0.02792 0.0
C1337 C 0.1285 0.00896 0.02082 0.0
C1338 C 0.13241 0.9851 0.05626 0.0
C1339 C 0.13063 0.95235 0.01445 0.0
C1340 C 0.11438 0.97996 0.0744 0.0
C1341 C 0.11684 0.97558 0.10104 0.0
C1342 C 0.13746 0.97647 0.10993 0.0
C1343 C 0.1557 0.98228 0.09174 0.0
C1344 C 0.15319 0.98657 0.06518 0.0
H1345 H 0.12451 0.94004 0.9974 0.0
H1346 H 0.14872 0.95664 0.01929 0.0
H1347 H 0.11939 0.94348 0.03192 0.0
H1348 H 0.09827 0.97889 0.06783 0.0
H1349 H 0.10239 0.97094 0.1145 0.0
H1350 H 0.62058 0.48358 0.2375 0.0
H1351 H 0.63193 0.48353 0.28273 0.0
H1352 H 0.67885 0.45967 0.25762 0.0
H1353 H 0.67092 0.4638 0.21169 0.0
H1354 H 0.62718 0.4543 0.31473 0.0
H1355 H 0.72314 0.50857 0.30313 0.0
H1356 H 0.7035 0.50418 0.27622 0.0
H1357 H 0.71147 0.48239 0.28386 0.0
C1358 C 0.63412 0.47931 0.24101 0.0
C1359 C 0.64521 0.47446 0.22002 0.0
C1360 C 0.64022 0.47871 0.26737 0.0
C1361 C 0.65678 0.47216 0.27391 0.0
C1362 C 0.66679 0.46579 0.2533 0.0
H1363 H 0.66343 0.4571 0.44763 0.0
H1364 H 0.65569 0.44628 0.40118 0.0
C1365 C 0.66164 0.46759 0.22674 0.0
C1366 C 0.66322 0.47209 0.30232 0.0
H1367 H 0.70931 0.49138 0.34502 0.0
C1368 C 0.6452 0.4627 0.32132 0.0
C1369 C 0.68671 0.48289 0.31115 0.0
C1370 C 0.70728 0.49527 0.29254 0.0
C1371 C 0.6499 0.46517 0.34867 0.0
C1372 C 0.67338 0.47555 0.3575 0.0
C1373 C 0.69132 0.48349 0.33844 0.0
C1374 C 0.68006 0.48073 0.38605 0.0
C1375 C 0.62961 0.45799 0.36746 0.0
C1376 C 0.69792 0.50309 0.39335 0.0
C1377 C 0.70372 0.50888 0.41994 0.0
C1378 C 0.69106 0.49289 0.44035 0.0
C1379 C 0.6737 0.47016 0.43292 0.0
C1380 C 0.66874 0.46401 0.40611 0.0
H1381 H 0.6143 0.45716 0.35726 0.0
H1382 H 0.62401 0.4403 0.37536 0.0
H1383 H 0.63442 0.47036 0.38433 0.0
H1384 H 0.70729 0.51638 0.37845 0.0
H1385 H 0.71809 0.52615 0.42418 0.0
H1386 H 0.48895 0.21278 0.43011 0.0
H1387 H 0.49516 0.20922 0.38304 0.0
H1388 H 0.52984 0.17058 0.40243 0.0
H1389 H 0.52214 0.17247 0.44947 0.0
H1390 H 0.53228 0.22265 0.35241 0.0
H1391 H 0.48013 0.12588 0.3531 0.0
H1392 H 0.48109 0.14327 0.38114 0.0
H1393 H 0.50451 0.13733 0.37543 0.0
C1394 C 0.49765 0.20325 0.42442 0.0
C1395 C 0.50461 0.19252 0.44367 0.0
C1396 C 0.50143 0.20148 0.39747 0.0
C1397 C 0.51247 0.18916 0.38917 0.0
C1398 C 0.5207 0.17961 0.40835 0.0
H1399 H 0.55501 0.19036 0.22398 0.0
H1400 H 0.55491 0.1986 0.27145 0.0
C1401 C 0.51659 0.18104 0.43532 0.0
C1402 C 0.51457 0.18571 0.36042 0.0
H1403 H 0.49975 0.14367 0.31316 0.0
C1404 C 0.52517 0.20539 0.34379 0.0
C1405 C 0.50493 0.16315 0.34917 0.0
C1406 C 0.49182 0.1412 0.36557 0.0
C1407 C 0.52627 0.20312 0.31617 0.0
C1408 C 0.5172 0.18058 0.30503 0.0
C1409 C 0.50681 0.16095 0.32173 0.0
C1410 C 0.51746 0.17668 0.27606 0.0
C1411 C 0.53641 0.22485 0.29922 0.0
C1412 C 0.49655 0.16127 0.26299 0.0
C1413 C 0.49669 0.15616 0.23614 0.0
C1414 C 0.51769 0.1666 0.22178 0.0
C1415 C 0.53856 0.18238 0.23463 0.0
C1416 C 0.53849 0.18717 0.26167 0.0
H1417 H 0.53602 0.23946 0.30965 0.0
H1418 H 0.55492 0.23054 0.29467 0.0
H1419 H 0.52678 0.22156 0.28019 0.0
H1420 H 0.48012 0.15296 0.27368 0.0
H1421 H 0.48039 0.14398 0.22658 0.0
H1422 H 0.85957 0.33991 0.22559 0.0
H1423 H 0.85099 0.33181 0.27287 0.0
H1424 H 0.79758 0.35091 0.2669 0.0
H1425 H 0.80594 0.35878 0.21935 0.0
H1426 H 0.85535 0.3635 0.31058 0.0
H1427 H 0.76417 0.28911 0.30713 0.0
H1428 H 0.78292 0.29883 0.2783 0.0
H1429 H 0.76917 0.31483 0.2895 0.0
C1430 C 0.84588 0.34221 0.23433 0.0
C1431 C 0.83342 0.34998 0.21886 0.0
C1432 C 0.84098 0.33756 0.26129 0.0
C1433 C 0.82355 0.34061 0.27334 0.0
C1434 C 0.81079 0.34801 0.25788 0.0
H1435 H 0.82225 0.34831 0.44752 0.0
H1436 H 0.82156 0.35764 0.40057 0.0
C1437 C 0.81558 0.35252 0.23077 0.0
C1438 C 0.81981 0.33715 0.30236 0.0
H1439 H 0.78013 0.30347 0.3496 0.0
C1440 C 0.83887 0.35046 0.31916 0.0
C1441 C 0.7983 0.32007 0.31339 0.0
C1442 C 0.77749 0.30472 0.2962 0.0
C1443 C 0.83724 0.34677 0.34667 0.0
C1444 C 0.81575 0.32967 0.35775 0.0
C1445 C 0.7965 0.3167 0.34102 0.0
C1446 C 0.81358 0.32357 0.3863 0.0
C1447 C 0.85885 0.36048 0.36344 0.0
C1448 C 0.80826 0.30103 0.39384 0.0
C1449 C 0.80828 0.29555 0.42059 0.0
C1450 C 0.81371 0.31254 0.44035 0.0
C1451 C 0.81802 0.33484 0.4328 0.0
C1452 C 0.81786 0.34027 0.40598 0.0
H1453 H 0.87499 0.36903 0.35119 0.0
H1454 H 0.85749 0.37434 0.37433 0.0
H1455 H 0.86063 0.34902 0.37825 0.0
H1456 H 0.80473 0.28784 0.37896 0.0
H1457 H 0.80428 0.27803 0.42574 0.0
H1458 H 0.36937 0.80988 0.77285 0.0
H1459 H 0.36367 0.80209 0.72499 0.0
H1460 H 0.34861 0.85811 0.716 0.0
H1461 H 0.35461 0.86617 0.76359 0.0
H1462 H 0.32638 0.78992 0.69275 0.0
H1463 H 0.39984 0.87548 0.66173 0.0
H1464 H 0.39601 0.8653 0.69562 0.0
H1465 H 0.38004 0.8788 0.68318 0.0
C1466 C 0.36468 0.8204 0.76064 0.0
C1467 C 0.36262 0.83876 0.77183 0.0
C1468 C 0.36155 0.81601 0.73335 0.0
C1469 C 0.3563 0.82991 0.71689 0.0
C1470 C 0.35338 0.84766 0.72822 0.0
H1471 H 0.28938 0.80587 0.56749 0.0
H1472 H 0.30051 0.80635 0.61365 0.0
C1473 C 0.35669 0.85217 0.75539 0.0
C1474 C 0.35348 0.82577 0.68789 0.0
H1475 H 0.37091 0.85391 0.62835 0.0
C1476 C 0.33633 0.80379 0.67861 0.0
C1477 C 0.36691 0.84368 0.66943 0.0
C1478 C 0.3869 0.86705 0.67799 0.0
C1479 C 0.33129 0.79969 0.65142 0.0
C1480 C 0.34334 0.81824 0.63319 0.0
C1481 C 0.36143 0.83978 0.64235 0.0
C1482 C 0.33639 0.81634 0.60492 0.0
C1483 C 0.313 0.77557 0.64257 0.0
C1484 C 0.353 0.82236 0.58461 0.0
C1485 C 0.34682 0.8227 0.55812 0.0
C1486 C 0.32393 0.81713 0.5515 0.0
C1487 C 0.30726 0.81065 0.57188 0.0
C1488 C 0.31349 0.81048 0.5983 0.0
H1489 H 0.3119 0.76203 0.65652 0.0
H1490 H 0.29568 0.77443 0.64236 0.0
H1491 H 0.31672 0.77157 0.62234 0.0
H1492 H 0.37085 0.82717 0.58931 0.0
H1493 H 0.36013 0.82798 0.54294 0.0
H1494 H 0.15478 0.47677 0.55899 0.0
H1495 H 0.15476 0.48541 0.60618 0.0
H1496 H 0.22739 0.5387 0.60101 0.0
H1497 H 0.22739 0.53035 0.55355 0.0
H1498 H 0.18107 0.48114 0.64479 0.0
H1499 H 0.19909 0.57261 0.63964 0.0
H1500 H 0.19056 0.55378 0.61093 0.0
H1501 H 0.22009 0.56745 0.62295 0.0
C1502 C 0.17069 0.49044 0.56789 0.0
C1503 C 0.19108 0.50291 0.55267 0.0
C1504 C 0.17066 0.49537 0.59481 0.0
C1505 C 0.19102 0.51281 0.60704 0.0
C1506 C 0.21137 0.5255 0.59184 0.0
H1507 H 0.19798 0.51521 0.78145 0.0
H1508 H 0.20822 0.51501 0.73474 0.0
C1509 C 0.21136 0.5207 0.56478 0.0
C1510 C 0.19095 0.51676 0.63598 0.0
H1511 H 0.19724 0.55707 0.68244 0.0
C1512 C 0.1847 0.49777 0.65307 0.0
C1513 C 0.19562 0.53846 0.64663 0.0
C1514 C 0.20153 0.55922 0.62912 0.0
C1515 C 0.1824 0.49966 0.68049 0.0
C1516 C 0.18711 0.52137 0.69119 0.0
C1517 C 0.19387 0.54053 0.67418 0.0
C1518 C 0.18302 0.52391 0.71959 0.0
C1519 C 0.17393 0.47813 0.69754 0.0
C1520 C 0.16628 0.53006 0.72657 0.0
C1521 C 0.16069 0.53059 0.75317 0.0
C1522 C 0.17166 0.52486 0.77337 0.0
C1523 C 0.18918 0.51968 0.76639 0.0
C1524 C 0.19489 0.51932 0.7397 0.0
H1525 H 0.16608 0.46189 0.68547 0.0
H1526 H 0.18891 0.47916 0.70866 0.0
H1527 H 0.16074 0.47679 0.71216 0.0
H1528 H 0.15705 0.53386 0.71137 0.0
H1529 H 0.14757 0.53527 0.75786 0.0
H1530 H 0.5136 0.66622 0.76541 0.0
H1531 H 0.50963 0.67547 0.71938 0.0
H1532 H 0.43822 0.65716 0.7344 0.0
H1533 H 0.4421 0.64793 0.78063 0.0
H1534 H 0.47795 0.64401 0.68297 0.0
H1535 H 0.4655 0.72058 0.69649 0.0
H1536 H 0.47683 0.71016 0.72247 0.0
H1537 H 0.44616 0.69479 0.71503 0.0
C1538 C 0.49709 0.66429 0.75895 0.0
C1539 C 0.47816 0.65634 0.77659 0.0
C1540 C 0.49486 0.66963 0.7327 0.0
C1541 C 0.47369 0.66714 0.72356 0.0
C1542 C 0.45484 0.65959 0.7412 0.0
H1543 H 0.45771 0.66605 0.55005 0.0
H1544 H 0.44664 0.65575 0.59669 0.0
C1545 C 0.45709 0.65434 0.76757 0.0
C1546 C 0.47126 0.6713 0.69515 0.0
H1547 H 0.46455 0.70771 0.65258 0.0
C1548 C 0.4748 0.65779 0.67627 0.0
C1549 C 0.46716 0.6893 0.6866 0.0
C1550 C 0.46385 0.70471 0.70613 0.0
C1551 C 0.47523 0.66232 0.64902 0.0
C1552 C 0.47146 0.68054 0.64041 0.0
C1553 C 0.46716 0.69359 0.65927 0.0
C1554 C 0.47489 0.68809 0.61229 0.0
C1555 C 0.48099 0.64837 0.62983 0.0
C1556 C 0.49351 0.7102 0.60564 0.0
C1557 C 0.49965 0.71623 0.57913 0.0
C1558 C 0.48733 0.70021 0.55874 0.0
C1559 C 0.46757 0.67874 0.56532 0.0
C1560 C 0.46135 0.67275 0.59194 0.0
H1561 H 0.48779 0.63812 0.64012 0.0
H1562 H 0.46495 0.63595 0.61889 0.0
H1563 H 0.4942 0.66002 0.61509 0.0
H1564 H 0.50408 0.72237 0.62104 0.0
H1565 H 0.51466 0.73311 0.57463 0.0
H1566 H 0.1769 0.0396 0.24797 0.0
H1567 H 0.16072 0.06485 0.25669 0.0
H1568 H 0.09231 0.00448 0.26706 0.0
H1569 H 0.10843 0.97895 0.25783 0.0
H1570 H 0.09244 0.03456 0.23051 0.0
H1571 H 0.13783 0.08463 0.32014 0.0
H1572 H 0.15837 0.0853 0.29642 0.0
H1573 H 0.13721 0.0579 0.31109 0.0
C1574 C 0.1585 0.03162 0.25276 0.0
C1575 C 0.14395 0.00724 0.25207 0.0
C1576 C 0.14929 0.04613 0.25798 0.0
C1577 C 0.12533 0.03661 0.26286 0.0
C1578 C 0.11089 0.01221 0.26356 0.0
H1579 H 0.05538 0.12046 0.24732 0.0
H1580 H 0.06146 0.08821 0.26067 0.0
C1581 C 0.12016 0.99762 0.25839 0.0
C1582 C 0.11525 0.05227 0.2635 0.0
H1583 H 0.12434 0.10387 0.28944 0.0
C1584 C 0.09892 0.04938 0.24386 0.0
C1585 C 0.12371 0.07161 0.28091 0.0
C1586 C 0.14006 0.07489 0.30349 0.0
C1587 C 0.09215 0.06619 0.23992 0.0
C1588 C 0.10181 0.08628 0.25623 0.0
C1589 C 0.11709 0.08852 0.27684 0.0
C1590 C 0.09815 0.10618 0.25039 0.0
C1591 C 0.07588 0.0631 0.21729 0.0
C1592 C 0.11688 0.12712 0.24084 0.0
C1593 C 0.11348 0.14552 0.23327 0.0
C1594 C 0.0913 0.14343 0.23526 0.0
C1595 C 0.0727 0.12268 0.24568 0.0
C1596 C 0.0761 0.10418 0.25314 0.0
H1597 H 0.0724 0.04809 0.20436 0.0
H1598 H 0.05897 0.06004 0.22541 0.0
H1599 H 0.08334 0.07915 0.20493 0.0
H1600 H 0.13405 0.12902 0.23865 0.0
H1601 H 0.12823 0.16137 0.22573 0.0
H1602 H 0.01699 0.12617 0.23821 0.0
H1603 H 0.98839 0.08445 0.2406 0.0
H1604 H 0.93604 0.10051 0.2675 0.0
H1605 H 0.96415 0.14223 0.26326 0.0
H1606 H 0.96006 0.05192 0.27365 0.0
H1607 H 0.90632 0.06705 0.20068 0.0
H1608 H 0.935 0.08973 0.21036 0.0
H1609 H 0.91002 0.08275 0.23094 0.0
C1610 C 0.9995 0.12078 0.24515 0.0
C1611 C 0.99261 0.13738 0.25007 0.0
C1612 C 0.98313 0.09691 0.24646 0.0
C1613 C 0.95978 0.08931 0.25323 0.0
C1614 C 0.95367 0.10593 0.26114 0.0
H1615 H 0.85391 0.9406 0.26888 0.0
H1616 H 0.88417 0.98099 0.27835 0.0
C1617 C 0.96981 0.12976 0.25903 0.0
C1618 C 0.94152 0.06437 0.24974 0.0
H1619 H 0.88963 0.0291 0.21869 0.0
C1620 C 0.94466 0.0469 0.26159 0.0
C1621 C 0.92168 0.05774 0.23345 0.0
C1622 C 0.91815 0.07528 0.2179 0.0
C1623 C 0.92852 0.02305 0.25769 0.0
C1624 C 0.90819 0.0165 0.24233 0.0
C1625 C 0.90507 0.03402 0.23063 0.0
C1626 C 0.89026 0.99171 0.23705 0.0
C1627 C 0.93396 0.00525 0.26926 0.0
C1628 C 0.88293 0.98435 0.21083 0.0
C1629 C 0.86514 0.96159 0.20558 0.0
C1630 C 0.85455 0.94554 0.22636 0.0
C1631 C 0.86202 0.95267 0.25255 0.0
C1632 C 0.87946 0.97567 0.2579 0.0
H1633 H 0.95298 0.01286 0.27284 0.0
H1634 H 0.92494 0.99915 0.28866 0.0
H1635 H 0.92798 0.98992 0.25596 0.0
H1636 H 0.89093 0.99629 0.19435 0.0
H1637 H 0.85982 0.95639 0.18521 0.0
H1638 H 0.8649 0.84563 0.23496 0.0
H1639 H 0.90494 0.85358 0.23805 0.0
H1640 H 0.9167 0.89792 0.30591 0.0
H1641 H 0.87637 0.89037 0.30255 0.0
H1642 H 0.95123 0.91852 0.26718 0.0
H1643 H 0.93534 0.83008 0.29011 0.0
H1644 H 0.91858 0.8298 0.26197 0.0
H1645 H 0.91309 0.83808 0.2941 0.0
C1646 C 0.87591 0.85702 0.25065 0.0
C1647 C 0.86752 0.86753 0.26839 0.0
C1648 C 0.89875 0.86132 0.25258 0.0
C1649 C 0.91372 0.87605 0.27246 0.0
C1650 C 0.90535 0.88633 0.29056 0.0
H1651 H 0.06498 0.92392 0.27415 0.0
H1652 H 0.02681 0.91676 0.28941 0.0
C1653 C 0.88232 0.88195 0.28868 0.0
C1654 C 0.93848 0.88181 0.27272 0.0
H1655 H 0.97239 0.85637 0.26916 0.0
C1656 C 0.95598 0.90505 0.26827 0.0
C1657 C 0.94466 0.86421 0.27422 0.0
C1658 C 0.92693 0.83919 0.28065 0.0
C1659 C 0.97922 0.91087 0.26344 0.0
C1660 C 0.98502 0.893 0.26322 0.0
C1661 C 0.96781 0.86999 0.26913 0.0
C1662 C 0.00826 0.89743 0.25444 0.0
C1663 C 0.99718 0.93582 0.25707 0.0
C1664 C 0.01038 0.88876 0.22985 0.0
C1665 C 0.03214 0.89297 0.22092 0.0
C1666 C 0.05231 0.90578 0.23652 0.0
C1667 C 0.05001 0.91427 0.26137 0.0
C1668 C 0.02818 0.91014 0.27022 0.0
H1669 H 0.98935 0.94724 0.25557 0.0
H1670 H 0.01069 0.94281 0.27286 0.0
H1671 H 0.00605 0.93665 0.23803 0.0
H1672 H 0.99518 0.87897 0.21736 0.0
H1673 H 0.03309 0.88644 0.20155 0.0
H1674 H 0.04083 0.17976 0.72149 0.0
H1675 H 0.06906 0.16656 0.71554 0.0
H1676 H 0.02162 0.10142 0.75408 0.0
H1677 H 0.99277 0.11395 0.75826 0.0
H1678 H 0.09034 0.16109 0.75349 0.0
H1679 H 0.04721 0.07668 0.70102 0.0
H1680 H 0.03465 0.0954 0.70216 0.0
H1681 H 0.02999 0.07549 0.72906 0.0
C1682 C 0.03611 0.16226 0.72774 0.0
C1683 C 0.01467 0.14792 0.74039 0.0
C1684 C 0.05231 0.15476 0.72448 0.0
C1685 C 0.04763 0.13294 0.73435 0.0
C1686 C 0.02558 0.11805 0.74564 0.0
H1687 H 0.15134 0.10994 0.80797 0.0
H1688 H 0.12142 0.11948 0.79552 0.0
C1689 C 0.00908 0.12531 0.7482 0.0
C1690 C 0.06686 0.12741 0.73636 0.0
H1691 H 0.08003 0.08388 0.72913 0.0
C1692 C 0.08812 0.14431 0.74766 0.0
C1693 C 0.06433 0.10568 0.72856 0.0
C1694 C 0.04288 0.08742 0.71426 0.0
C1695 C 0.10646 0.13988 0.7522 0.0
C1696 C 0.10321 0.11751 0.74642 0.0
C1697 C 0.08239 0.10089 0.73409 0.0
C1698 C 0.12091 0.11091 0.75392 0.0
C1699 C 0.12917 0.15937 0.76307 0.0
C1700 C 0.12993 0.1019 0.73497 0.0
C1701 C 0.14682 0.09603 0.74222 0.0
C1702 C 0.15511 0.09925 0.76848 0.0
C1703 C 0.14577 0.10788 0.78745 0.0
C1704 C 0.12867 0.11338 0.78032 0.0
H1705 H 0.13171 0.17674 0.75749 0.0
H1706 H 0.12883 0.15838 0.78508 0.0
H1707 H 0.14437 0.15815 0.75574 0.0
H1708 H 0.12409 0.09965 0.71452 0.0
H1709 H 0.15369 0.08934 0.72725 0.0
H1710 H 0.87926 0.03882 0.77956 0.0
H1711 H 0.87117 0.99931 0.76993 0.0
H1712 H 0.9426 0.02645 0.74526 0.0
H1713 H 0.95092 0.06629 0.75505 0.0
H1714 H 0.90721 0.98929 0.71164 0.0
H1715 H 0.89656 0.96649 0.81873 0.0
H1716 H 0.8792 0.9788 0.80771 0.0
H1717 H 0.91054 0.9963 0.80709 0.0
C1718 C 0.8933 0.03644 0.77216 0.0
C1719 C 0.91582 0.05569 0.76847 0.0
C1720 C 0.88862 0.01385 0.76657 0.0
C1721 C 0.90638 0.00994 0.75733 0.0
C1722 C 0.92868 0.02912 0.75249 0.0
H1723 H 0.89475 0.87194 0.74535 0.0
H1724 H 0.91135 0.91429 0.74122 0.0
C1725 C 0.93338 0.05185 0.75803 0.0
C1726 C 0.90162 0.98566 0.75394 0.0
H1727 H 0.88255 0.93473 0.78817 0.0
C1728 C 0.90215 0.97741 0.72837 0.0
C1729 C 0.89523 0.97027 0.77586 0.0
C1730 C 0.89554 0.97842 0.80394 0.0
C1731 C 0.89528 0.95379 0.72409 0.0
C1732 C 0.88779 0.93827 0.74587 0.0
C1733 C 0.88818 0.94673 0.77149 0.0
C1734 C 0.87796 0.91282 0.74266 0.0
C1735 C 0.89518 0.94524 0.69633 0.0
C1736 C 0.85372 0.89806 0.74404 0.0
C1737 C 0.8442 0.87396 0.74639 0.0
C1738 C 0.85877 0.86414 0.74756 0.0
C1739 C 0.88302 0.87887 0.74433 0.0
C1740 C 0.89256 0.90309 0.74203 0.0
H1741 H 0.90169 0.95954 0.68145 0.0
H1742 H 0.90626 0.93701 0.69558 0.0
H1743 H 0.87714 0.93165 0.69088 0.0
H1744 H 0.84221 0.90531 0.74468 0.0
H1745 H 0.82546 0.86312 0.74872 0.0
H1746 H 0.12948 0.99462 0.77912 0.0
H1747 H 0.0885 0.96559 0.7748 0.0
H1748 H 0.09284 0.97555 0.68991 0.0
H1749 H 0.13449 0.00517 0.69408 0.0
H1750 H 0.05254 0.97233 0.75221 0.0
H1751 H 0.06291 0.90345 0.70058 0.0
H1752 H 0.08689 0.92729 0.71793 0.0
H1753 H 0.07714 0.93246 0.68675 0.0
C1754 C 0.12186 0.99095 0.75947 0.0
C1755 C 0.13532 0.00251 0.73696 0.0
C1756 C 0.09835 0.97419 0.75705 0.0
C1757 C 0.08762 0.96838 0.73207 0.0
C1758 C 0.10088 0.97966 0.70938 0.0
H1759 H 0.93969 0.8553 0.72242 0.0
H1760 H 0.97737 0.88811 0.70783 0.0
C1761 C 0.12462 0.99659 0.71179 0.0
C1762 C 0.06248 0.95054 0.73061 0.0
H1763 H 0.02551 0.89294 0.71653 0.0
C1764 C 0.04652 0.95511 0.74392 0.0
C1765 C 0.05467 0.92812 0.71972 0.0
C1766 C 0.0712 0.92232 0.7055 0.0
C1767 C 0.02329 0.9375 0.74792 0.0
C1768 C 0.01589 0.91471 0.73858 0.0
C1769 C 0.03135 0.91046 0.72373 0.0
C1770 C 0.99316 0.89471 0.7468 0.0
C1771 C 0.00703 0.94313 0.76305 0.0
C1772 C 0.98976 0.88748 0.77341 0.0
C1773 C 0.96843 0.86881 0.78174 0.0
C1774 C 0.94998 0.85698 0.76363 0.0
C1775 C 0.95348 0.86419 0.73688 0.0
C1776 C 0.97499 0.88282 0.72849 0.0
H1777 H 0.01336 0.96217 0.76304 0.0
H1778 H 0.98917 0.93376 0.75447 0.0
H1779 H 0.00593 0.93739 0.78398 0.0
H1780 H 0.00365 0.89637 0.78779 0.0
H1781 H 0.96626 0.86394 0.8025 0.0
H1782 H 0.85013 0.37589 0.58434 0.0
H1783 H 0.83408 0.40184 0.58912 0.0
H1784 H 0.76424 0.34268 0.58598 0.0
H1785 H 0.78023 0.31648 0.58129 0.0
H1786 H 0.80502 0.40212 0.54694 0.0
H1787 H 0.76125 0.38552 0.64548 0.0
H1788 H 0.78405 0.37871 0.63873 0.0
H1789 H 0.75529 0.36053 0.62555 0.0
C1790 C 0.83134 0.36829 0.5854 0.0
C1791 C 0.81646 0.34411 0.58228 0.0
C1792 C 0.8222 0.38316 0.58814 0.0
C1793 C 0.79798 0.37421 0.5879 0.0
C1794 C 0.78299 0.34993 0.58658 0.0
H1795 H 0.72232 0.45107 0.56852 0.0
H1796 H 0.73155 0.41993 0.57644 0.0
C1797 C 0.79217 0.33496 0.58393 0.0
C1798 C 0.78887 0.39057 0.58529 0.0
H1799 H 0.75828 0.41246 0.61712 0.0
C1800 C 0.79478 0.40435 0.56229 0.0
C1801 C 0.77523 0.39318 0.60514 0.0
C1802 C 0.76861 0.37884 0.63025 0.0
C1803 C 0.78776 0.42096 0.55874 0.0
C1804 C 0.77488 0.42428 0.57901 0.0
C1805 C 0.76831 0.41 0.60171 0.0
C1806 C 0.76897 0.44312 0.57708 0.0
C1807 C 0.79416 0.43479 0.5332 0.0
C1808 C 0.7869 0.46651 0.57565 0.0
C1809 C 0.78171 0.48424 0.57107 0.0
C1810 C 0.75844 0.47902 0.56805 0.0
C1811 C 0.74041 0.45568 0.57082 0.0
C1812 C 0.74565 0.43787 0.5753 0.0
H1813 H 0.79815 0.42585 0.51707 0.0
H1814 H 0.77983 0.43771 0.52648 0.0
H1815 H 0.80996 0.45207 0.53654 0.0
H1816 H 0.805 0.471 0.57751 0.0
H1817 H 0.79596 0.50206 0.56966 0.0
H1818 H 0.6209 0.4668 0.57279 0.0
H1819 H 0.59361 0.42705 0.58645 0.0
H1820 H 0.65109 0.41694 0.60801 0.0
H1821 H 0.67883 0.4571 0.59382 0.0
H1822 H 0.62052 0.38334 0.57455 0.0
H1823 H 0.57019 0.39307 0.65581 0.0
H1824 H 0.57152 0.41042 0.62781 0.0
H1825 H 0.59802 0.41688 0.64497 0.0
C1826 C 0.62783 0.45634 0.58094 0.0
C1827 C 0.65205 0.46508 0.5821 0.0
C1828 C 0.61214 0.43362 0.58903 0.0
C1829 C 0.62022 0.41905 0.59868 0.0
C1830 C 0.64445 0.42797 0.60089 0.0
H1831 H 0.5299 0.26596 0.60146 0.0
H1832 H 0.5619 0.3044 0.614 0.0
C1833 C 0.66028 0.45091 0.59286 0.0
C1834 C 0.60323 0.39386 0.60296 0.0
H1835 H 0.54958 0.35721 0.62983 0.0
C1836 C 0.60532 0.3775 0.5872 0.0
C1837 C 0.58336 0.38622 0.61944 0.0
C1838 C 0.58078 0.40259 0.63815 0.0
C1839 C 0.58731 0.3541 0.58595 0.0
C1840 C 0.56677 0.34683 0.60112 0.0
C1841 C 0.56525 0.36286 0.61806 0.0
C1842 C 0.54597 0.32333 0.59761 0.0
C1843 C 0.58975 0.33768 0.56711 0.0
C1844 C 0.52587 0.32114 0.58543 0.0
C1845 C 0.50742 0.29914 0.57839 0.0
C1846 C 0.50866 0.27888 0.58347 0.0
C1847 C 0.5282 0.28108 0.59732 0.0
C1848 C 0.54667 0.3031 0.60431 0.0
H1849 H 0.60509 0.34698 0.55376 0.0
H1850 H 0.59191 0.32462 0.57871 0.0
H1851 H 0.5738 0.32811 0.55473 0.0
H1852 H 0.52493 0.33654 0.58023 0.0
H1853 H 0.49254 0.29803 0.56806 0.0
H1854 H 0.73653 0.26325 0.59819 0.0
H1855 H 0.69801 0.2578 0.60824 0.0
H1856 H 0.66965 0.21377 0.53932 0.0
H1857 H 0.70806 0.21991 0.52835 0.0
H1858 H 0.6582 0.24743 0.54091 0.0
H1859 H 0.63923 0.2025 0.63852 0.0
H1860 H 0.6665 0.22952 0.63712 0.0
H1861 H 0.66234 0.20528 0.617 0.0
C1862 C 0.72219 0.2524 0.5851 0.0
C1863 C 0.72568 0.24212 0.56232 0.0
C1864 C 0.70003 0.24903 0.59114 0.0
C1865 C 0.68086 0.2351 0.57475 0.0
C1866 C 0.68417 0.22446 0.55237 0.0
H1867 H 0.53277 0.1844 0.58602 0.0
H1868 H 0.57175 0.18899 0.591 0.0
C1869 C 0.70626 0.22792 0.54621 0.0
C1870 C 0.65773 0.23304 0.57942 0.0
H1871 H 0.61276 0.2147 0.62383 0.0
C1872 C 0.64829 0.24026 0.55906 0.0
C1873 C 0.64473 0.22352 0.60302 0.0
C1874 C 0.65357 0.21455 0.6251 0.0
C1875 C 0.62624 0.23821 0.56153 0.0
C1876 C 0.61345 0.22924 0.58537 0.0
C1877 C 0.62277 0.22187 0.60576 0.0
C1878 C 0.59002 0.22671 0.58863 0.0
C1879 C 0.61658 0.24513 0.53826 0.0
C1880 C 0.58736 0.24644 0.58721 0.0
C1881 C 0.56521 0.24385 0.58411 0.0
C1882 C 0.54532 0.2215 0.58287 0.0
C1883 C 0.54778 0.20183 0.58705 0.0
C1884 C 0.57005 0.20443 0.58981 0.0
H1885 H 0.62593 0.24623 0.5195 0.0
H1886 H 0.5977 0.23248 0.5354 0.0
H1887 H 0.6186 0.26256 0.54211 0.0
H1888 H 0.60254 0.2638 0.58677 0.0
H1889 H 0.56378 0.25932 0.58117 0.0
H1890 H 0.80539 0.40554 0.05999 0.0
H1891 H 0.77293 0.41176 0.04853 0.0
H1892 H 0.77947 0.44464 0.12445 0.0
H1893 H 0.81116 0.43775 0.13646 0.0
H1894 H 0.73363 0.41231 0.11132 0.0
H1895 H 0.7786 0.4745 0.02827 0.0
H1896 H 0.77695 0.44659 0.02605 0.0
H1897 H 0.79413 0.46666 0.05177 0.0
C1898 C 0.79986 0.41395 0.07434 0.0
C1899 C 0.81113 0.42129 0.09913 0.0
C1900 C 0.78141 0.41769 0.06763 0.0
C1901 C 0.77398 0.42893 0.0855 0.0
C1902 C 0.785 0.43602 0.11029 0.0
H1903 H 0.70924 0.50917 0.08624 0.0
H1904 H 0.73379 0.49183 0.07962 0.0
C1905 C 0.80333 0.43226 0.11703 0.0
C1906 C 0.75473 0.43346 0.07882 0.0
H1907 H 0.74116 0.46731 0.03987 0.0
C1908 C 0.73505 0.42405 0.09544 0.0
C1909 C 0.75673 0.44883 0.05812 0.0
C1910 C 0.77777 0.45991 0.04008 0.0
C1911 C 0.71786 0.43046 0.09281 0.0
C1912 C 0.7202 0.44639 0.0726 0.0
C1913 C 0.73932 0.45495 0.05517 0.0
C1914 C 0.70505 0.45703 0.07196 0.0
C1915 C 0.69818 0.42129 0.11276 0.0
C1916 C 0.68072 0.44346 0.06867 0.0
C1917 C 0.66652 0.45338 0.07258 0.0
C1918 C 0.6765 0.47702 0.07977 0.0
C1919 C 0.70096 0.49086 0.08102 0.0
C1920 C 0.71506 0.48097 0.07714 0.0
H1921 H 0.70113 0.4123 0.12969 0.0
H1922 H 0.69597 0.43573 0.12072 0.0
H1923 H 0.68163 0.40859 0.10288 0.0
H1924 H 0.67266 0.42502 0.06417 0.0
H1925 H 0.64776 0.44226 0.07138 0.0
H1926 H 0.55378 0.20399 0.07026 0.0
H1927 H 0.56968 0.24573 0.06159 0.0
H1928 H 0.50339 0.2391 0.08263 0.0
H1929 H 0.4873 0.19756 0.09074 0.0
H1930 H 0.52445 0.26902 0.04008 0.0
H1931 H 0.58638 0.29027 0.12449 0.0
H1932 H 0.58859 0.27326 0.09803 0.0
H1933 H 0.56283 0.261 0.11839 0.0
C1934 C 0.54247 0.21133 0.07254 0.0
C1935 C 0.51937 0.1975 0.08161 0.0
C1936 C 0.55164 0.23523 0.06777 0.0
C1937 C 0.53786 0.24561 0.07207 0.0
C1938 C 0.51439 0.2315 0.07935 0.0
H1939 H 0.53731 0.37038 0.10378 0.0
H1940 H 0.5296 0.33141 0.09151 0.0
C1941 C 0.50523 0.20772 0.08406 0.0
C1942 C 0.54793 0.2713 0.0711 0.0
H1943 H 0.5844 0.32131 0.10487 0.0
C1944 C 0.53782 0.28053 0.05396 0.0
C1945 C 0.56538 0.28631 0.08925 0.0
C1946 C 0.57638 0.2773 0.10875 0.0
C1947 C 0.54405 0.30416 0.05516 0.0
C1948 C 0.56063 0.31885 0.07419 0.0
C1949 C 0.57167 0.30996 0.09033 0.0
C1950 C 0.56515 0.3428 0.07948 0.0
C1951 C 0.5325 0.3131 0.03642 0.0
C1952 C 0.58775 0.3621 0.07712 0.0
C1953 C 0.59222 0.38441 0.08427 0.0
C1954 C 0.57421 0.38773 0.09427 0.0
C1955 C 0.55156 0.36837 0.09634 0.0
C1956 C 0.54708 0.34613 0.08903 0.0
H1957 H 0.52598 0.30213 0.01828 0.0
H1958 H 0.51733 0.31258 0.04653 0.0
H1959 H 0.54476 0.33143 0.03045 0.0
H1960 H 0.60199 0.35984 0.07009 0.0
H1961 H 0.60991 0.39892 0.08278 0.0
H1962 H 0.80134 0.28908 0.08578 0.0
H1963 H 0.75959 0.26493 0.07826 0.0
H1964 H 0.75523 0.32626 0.05944 0.0
H1965 H 0.79724 0.35075 0.06738 0.0
H1966 H 0.72471 0.30072 0.09744 0.0
H1967 H 0.71616 0.24155 0.01571 0.0
H1968 H 0.73553 0.24162 0.04064 0.0
H1969 H 0.74326 0.26807 0.0226 0.0
C1970 C 0.79168 0.29748 0.07945 0.0
C1971 C 0.80267 0.32194 0.0775 0.0
C1972 C 0.76775 0.28356 0.0749 0.0
C1973 C 0.75423 0.2937 0.068 0.0
C1974 C 0.76533 0.31803 0.06462 0.0
H1975 H 0.60266 0.19309 0.0599 0.0
H1976 H 0.64119 0.22509 0.04663 0.0
C1977 C 0.78938 0.33203 0.06914 0.0
C1978 C 0.72834 0.27909 0.06798 0.0
H1979 H 0.68382 0.22626 0.04736 0.0
C1980 C 0.71569 0.28471 0.086 0.0
C1981 C 0.71639 0.25837 0.0528 0.0
C1982 C 0.72855 0.25221 0.03165 0.0
C1983 C 0.69186 0.26933 0.09072 0.0
C1984 C 0.6805 0.24757 0.07745 0.0
C1985 C 0.69264 0.24276 0.05791 0.0
C1986 C 0.65683 0.22883 0.08537 0.0
C1987 C 0.67925 0.27628 0.11044 0.0
C1988 C 0.65292 0.22016 0.11143 0.0
C1989 C 0.63102 0.202 0.11906 0.0
C1990 C 0.61249 0.19191 0.10075 0.0
C1991 C 0.61644 0.2006 0.07458 0.0
C1992 C 0.63847 0.21882 0.06692 0.0
H1993 H 0.68753 0.29558 0.11186 0.0
H1994 H 0.66059 0.2689 0.10497 0.0
H1995 H 0.6801 0.2696 0.13039 0.0
H1996 H 0.66694 0.22728 0.12587 0.0
H1997 H 0.62861 0.196 0.13942 0.0
H1998 H 0.4386 0.80612 0.85913 0.0
H1999 H 0.44388 0.77384 0.87303 0.0
H2000 H 0.41549 0.77385 0.95013 0.0
H2001 H 0.41083 0.80692 0.93662 0.0
H2002 H 0.45573 0.77109 0.95318 0.0
H2003 H 0.39436 0.70568 0.88205 0.0
H2004 H 0.41467 0.7321 0.86535 0.0
H2005 H 0.39442 0.7325 0.88901 0.0
C2006 C 0.43359 0.79946 0.87912 0.0
C2007 C 0.42433 0.80925 0.89675 0.0
C2008 C 0.43631 0.78072 0.88692 0.0
C2009 C 0.42964 0.77111 0.91243 0.0
C2010 C 0.42051 0.78084 0.93023 0.0
H2011 H 0.44481 0.6473 0.92586 0.0
H2012 H 0.42703 0.67138 0.93471 0.0
C2013 C 0.41776 0.79967 0.92242 0.0
C2014 C 0.43336 0.75164 0.92053 0.0
H2015 H 0.42511 0.69927 0.89862 0.0
C2016 C 0.44865 0.75514 0.94164 0.0
C2017 C 0.42366 0.73054 0.90598 0.0
C2018 C 0.40566 0.72486 0.88454 0.0
C2019 C 0.45599 0.73896 0.94711 0.0
C2020 C 0.4482 0.71906 0.93068 0.0
C2021 C 0.43139 0.71465 0.91104 0.0
C2022 C 0.45933 0.70432 0.93099 0.0
C2023 C 0.47248 0.7437 0.97001 0.0
C2024 C 0.48347 0.71474 0.92669 0.0
C2025 C 0.49365 0.70104 0.92175 0.0
C2026 C 0.47988 0.67657 0.92063 0.0
C2027 C 0.45593 0.66606 0.9266 0.0
C2028 C 0.44572 0.67983 0.93159 0.0
H2029 H 0.46929 0.7532 0.98618 0.0
H2030 H 0.4707 0.72731 0.97822 0.0
H2031 H 0.49071 0.75496 0.96307 0.0
H2032 H 0.49431 0.73354 0.92545 0.0
H2033 H 0.51216 0.70974 0.9173 0.0
H2034 H 0.2948 0.80648 0.90288 0.0
H2035 H 0.26882 0.76492 0.9101 0.0
H2036 H 0.32773 0.75694 0.93093 0.0
H2037 H 0.35404 0.79869 0.92331 0.0
H2038 H 0.30159 0.72699 0.8924 0.0
H2039 H 0.24301 0.72207 0.97332 0.0
H2040 H 0.24461 0.74178 0.94788 0.0
H2041 H 0.27043 0.74827 0.96652 0.0
C2042 C 0.30227 0.79605 0.90956 0.0
C2043 C 0.32658 0.80595 0.91229 0.0
C2044 C 0.28731 0.77224 0.91392 0.0
C2045 C 0.29625 0.75779 0.92135 0.0
C2046 C 0.32042 0.76778 0.92535 0.0
H2047 H 0.19351 0.60706 0.93314 0.0
H2048 H 0.22574 0.64585 0.94517 0.0
C2049 C 0.33545 0.79169 0.92102 0.0
C2050 C 0.28062 0.73204 0.92153 0.0
H2051 H 0.22713 0.68911 0.94284 0.0
C2052 C 0.28555 0.71863 0.90388 0.0
C2053 C 0.25982 0.72098 0.93673 0.0
C2054 C 0.25429 0.73401 0.95738 0.0
C2055 C 0.26954 0.69489 0.89969 0.0
C2056 C 0.24786 0.68437 0.91315 0.0
C2057 C 0.24361 0.6973 0.93219 0.0
C2058 C 0.22872 0.66067 0.90608 0.0
C2059 C 0.27576 0.68142 0.88036 0.0
C2060 C 0.21953 0.65626 0.88026 0.0
C2061 C 0.20123 0.63421 0.87334 0.0
C2062 C 0.19155 0.61605 0.89214 0.0
C2063 C 0.20071 0.62055 0.9181 0.0
C2064 C 0.21904 0.64272 0.92505 0.0
H2065 H 0.295 0.68935 0.87839 0.0
H2066 H 0.26823 0.66293 0.88664 0.0
H2067 H 0.26866 0.68171 0.86049 0.0
H2068 H 0.22645 0.66997 0.86542 0.0
H2069 H 0.19486 0.63137 0.85312 0.0
H2070 H 0.20732 0.56138 0.91382 0.0
H2071 H 0.24951 0.57785 0.91886 0.0
H2072 H 0.23956 0.50851 0.92601 0.0
H2073 H 0.19742 0.4919 0.92113 0.0
H2074 H 0.27671 0.54514 0.96013 0.0
H2075 H 0.28204 0.56723 0.85252 0.0
H2076 H 0.26768 0.57788 0.87401 0.0
H2077 H 0.25479 0.54709 0.86838 0.0
C2078 C 0.21398 0.54965 0.91735 0.0
C2079 C 0.19901 0.5253 0.91683 0.0
C2080 C 0.23814 0.55911 0.92005 0.0
C2081 C 0.24763 0.54436 0.92244 0.0
C2082 C 0.23257 0.52018 0.92414 0.0
H2083 H 0.37035 0.54376 0.8767 0.0
H2084 H 0.33149 0.53668 0.88832 0.0
C2085 C 0.20849 0.51072 0.92128 0.0
C2086 C 0.27308 0.55362 0.91977 0.0
H2087 H 0.31655 0.57382 0.87332 0.0
C2088 C 0.28557 0.5518 0.94131 0.0
C2089 C 0.28445 0.56197 0.89504 0.0
C2090 C 0.27163 0.56359 0.87103 0.0
C2091 C 0.3091 0.55779 0.93858 0.0
C2092 C 0.32021 0.56559 0.91371 0.0
C2093 C 0.30791 0.56792 0.89238 0.0
C2094 C 0.34397 0.56958 0.90865 0.0
C2095 C 0.32178 0.55493 0.96187 0.0
C2096 C 0.36382 0.59041 0.91641 0.0
C2097 C 0.38615 0.59466 0.90953 0.0
C2098 C 0.38895 0.57814 0.89474 0.0
C2099 C 0.36891 0.55704 0.88767 0.0
C2100 C 0.34667 0.55287 0.89445 0.0
H2101 H 0.31049 0.54807 0.97975 0.0
H2102 H 0.3282 0.54283 0.9565 0.0
H2103 H 0.33726 0.57204 0.96684 0.0
H2104 H 0.36201 0.60358 0.9272 0.0
H2105 H 0.40112 0.6112 0.91507 0.0
H2106 H 0.32709 0.7851 0.41154 0.0
H2107 H 0.35618 0.77273 0.40617 0.0
H2108 H 0.41041 0.84461 0.39784 0.0
H2109 H 0.38159 0.85711 0.40335 0.0
H2110 H 0.39569 0.78374 0.36679 0.0
H2111 H 0.42336 0.81879 0.46893 0.0
H2112 H 0.3956 0.81245 0.4551 0.0
H2113 H 0.42186 0.83851 0.44549 0.0
C2114 C 0.34506 0.79821 0.40765 0.0
C2115 C 0.35211 0.82211 0.40816 0.0
C2116 C 0.36168 0.79111 0.40468 0.0
C2117 C 0.38544 0.80782 0.40205 0.0
C2118 C 0.39216 0.8315 0.40015 0.0
H2119 H 0.51549 0.80912 0.42662 0.0
H2120 H 0.4853 0.81889 0.41586 0.0
C2121 C 0.37567 0.83859 0.40327 0.0
C2122 C 0.40354 0.80101 0.40472 0.0
H2123 H 0.44635 0.80606 0.44669 0.0
C2124 C 0.40676 0.78852 0.38423 0.0
C2125 C 0.41783 0.80721 0.4276 0.0
C2126 C 0.41446 0.81981 0.45068 0.0
C2127 C 0.42442 0.78258 0.38579 0.0
C2128 C 0.43888 0.78904 0.40859 0.0
C2129 C 0.43541 0.80132 0.42912 0.0
C2130 C 0.45752 0.783 0.41208 0.0
C2131 C 0.42779 0.76993 0.36283 0.0
C2132 C 0.45197 0.7596 0.41339 0.0
C2133 C 0.46919 0.75397 0.41962 0.0
C2134 C 0.49228 0.77166 0.42489 0.0
C2135 C 0.49787 0.7951 0.42295 0.0
C2136 C 0.48066 0.8007 0.41666 0.0
H2137 H 0.41974 0.77179 0.3443 0.0
H2138 H 0.44664 0.77651 0.35914 0.0
H2139 H 0.41937 0.75105 0.36761 0.0
H2140 H 0.43414 0.74564 0.41061 0.0
H2141 H 0.46412 0.73574 0.4214 0.0
H2142 H 0.23125 0.54129 0.40683 0.0
H2143 H 0.24906 0.58354 0.40035 0.0
H2144 H 0.18148 0.57779 0.40911 0.0
H2145 H 0.16357 0.53572 0.41502 0.0
H2146 H 0.20846 0.60971 0.37032 0.0
H2147 H 0.25823 0.62505 0.46457 0.0
H2148 H 0.2634 0.60898 0.4393 0.0
H2149 H 0.23523 0.59645 0.45487 0.0
C2150 C 0.22012 0.54894 0.40676 0.0
C2151 C 0.19601 0.53514 0.41176 0.0
C2152 C 0.23036 0.57314 0.40331 0.0
C2153 C 0.21667 0.58389 0.40486 0.0
C2154 C 0.19243 0.56992 0.40802 0.0
H2155 H 0.21607 0.7083 0.43633 0.0
H2156 H 0.20918 0.66962 0.42391 0.0
C2157 C 0.18221 0.54583 0.41145 0.0
C2158 C 0.22736 0.60971 0.40516 0.0
H2159 H 0.26021 0.65772 0.4438 0.0
C2160 C 0.22007 0.62027 0.38615 0.0
C2161 C 0.24248 0.62349 0.42589 0.0
C2162 C 0.25022 0.613 0.44748 0.0
C2163 C 0.2268 0.64402 0.38786 0.0
C2164 C 0.24103 0.65749 0.4092 0.0
C2165 C 0.24933 0.64729 0.42743 0.0
C2166 C 0.24535 0.68135 0.41467 0.0
C2167 C 0.21814 0.65443 0.36723 0.0
C2168 C 0.26801 0.70076 0.41372 0.0
C2169 C 0.27198 0.72296 0.42074 0.0
C2170 C 0.2534 0.72596 0.42933 0.0
C2171 C 0.23073 0.70648 0.43001 0.0
C2172 C 0.22675 0.68443 0.4227 0.0
H2173 H 0.21265 0.64385 0.34874 0.0
H2174 H 0.20282 0.65505 0.37524 0.0
H2175 H 0.23186 0.67255 0.36226 0.0
H2176 H 0.28262 0.69867 0.40782 0.0
H2177 H 0.28964 0.73762 0.42028 0.0
H2178 H 0.47898 0.64352 0.3833 0.0
H2179 H 0.43752 0.61372 0.38135 0.0
H2180 H 0.41959 0.661 0.41957 0.0
H2181 H 0.46084 0.6907 0.42178 0.0
H2182 H 0.40308 0.61923 0.44597 0.0
H2183 H 0.38011 0.60378 0.33898 0.0
H2184 H 0.40593 0.60284 0.348 0.0
H2185 H 0.40564 0.62976 0.35098 0.0
C2186 C 0.46616 0.64778 0.39062 0.0
C2187 C 0.47321 0.66937 0.40295 0.0
C2188 C 0.44245 0.63074 0.38943 0.0
C2189 C 0.42546 0.63517 0.40025 0.0
C2190 C 0.43241 0.65721 0.41112 0.0
H2191 H 0.27428 0.54561 0.41164 0.0
H2192 H 0.31364 0.57686 0.40006 0.0
C2193 C 0.45602 0.67415 0.41242 0.0
C2194 C 0.40092 0.6161 0.40334 0.0
H2195 H 0.35251 0.57604 0.36949 0.0
C2196 C 0.392 0.6099 0.42922 0.0
C2197 C 0.38646 0.60401 0.38147 0.0
C2198 C 0.39489 0.61051 0.35326 0.0
C2199 C 0.36917 0.59174 0.43387 0.0
C2200 C 0.35493 0.5792 0.41209 0.0
C2201 C 0.3636 0.58561 0.38614 0.0
C2202 C 0.33105 0.55929 0.41624 0.0
C2203 C 0.36038 0.58612 0.4621 0.0
C2204 C 0.32784 0.53887 0.42852 0.0
C2205 C 0.30543 0.52098 0.43507 0.0
C2206 C 0.28575 0.52314 0.42945 0.0
C2207 C 0.28899 0.54327 0.4161 0.0
C2208 C 0.31147 0.56118 0.40952 0.0
H2209 H 0.37159 0.60043 0.47602 0.0
H2210 H 0.34222 0.58285 0.46353 0.0
H2211 H 0.36031 0.57005 0.4686 0.0
H2212 H 0.34275 0.537 0.43358 0.0
H2213 H 0.30356 0.50555 0.44482 0.0
loop_
_geom_bond_atom_site_label_1
_geom_bond_atom_site_label_2
_geom_bond_distance
_geom_bond_site_symmetry_2
_ccdc_geom_bond_type
C0 C1 1.351 . S
C0 N3 1.368 . S
C0 H5 0.931 . S
C1 C0 1.351 . S
C1 N2 1.373 . S
C1 H29 0.930 . S
N2 C1 1.373 . S
N2 C4 1.340 . S
N3 C0 1.368 . S
N3 C4 1.321 . S
N3 Co6 2.135 . S
C4 N2 1.340 . S
C4 N3 1.321 . S
C4 H28 0.930 . S
H5 C0 0.931 . S
Co6 N3 2.135 . S
Co6 N9 2.121 1_455 S
Co6 O14 2.055 . S
Co6 O17 2.039 1_455 S
Co6 N20 2.140 . S
C7 O8 1.227 . S
C7 O17 1.265 . S
O8 C7 1.227 . S
N9 Co6 2.121 1_655 S
N9 C11 1.375 . S
N9 C12 1.313 . S
C10 C11 1.338 . S
C10 N13 1.377 . S
C10 H30 0.930 . S
C11 N9 1.375 . S
C11 C10 1.338 . S
C11 H15 0.931 . S
C12 N9 1.313 . S
C12 N13 1.344 . S
C12 H16 0.930 1_655 S
N13 C10 1.377 . S
N13 C12 1.344 . S
O14 Co6 2.055 . S
O14 C18 1.253 . S
H15 C11 0.931 . S
H16 C12 0.930 1_455 S
O17 Co6 2.039 1_655 S
O17 C7 1.265 . S
C18 O14 1.253 . S
C18 O19 1.227 . S
O19 C18 1.227 . S
N20 Co6 2.140 . S
N20 C23 1.346 . S
N20 C24 1.345 . S
C21 C22 1.387 . S
C21 C25 1.391 . S
C22 C21 1.387 . S
C22 C23 1.369 . S
C22 H31 0.929 . S
C23 N20 1.346 . S
C23 C22 1.369 . S
C23 H26 0.928 . S
C24 N20 1.345 . S
C24 C25 1.371 . S
C24 H27 0.931 . S
C25 C21 1.391 . S
C25 C24 1.371 . S
C25 H32 0.930 . S
H26 C23 0.928 . S
H27 C24 0.931 . S
H28 C4 0.930 . S
H29 C1 0.930 . S
H30 C10 0.930 . S
H31 C22 0.929 . S
H32 C25 0.930 . S
C33 C34 1.351 . S
C33 N36 1.368 . S
C33 H38 0.931 . S
C34 C33 1.351 . S
C34 N35 1.373 . S
C34 H62 0.930 . S
N35 C34 1.373 . S
N35 C37 1.340 . S
N36 C33 1.368 . S
N36 C37 1.321 . S
N36 Co39 2.135 . S
C37 N35 1.340 . S
C37 N36 1.321 . S
C37 H61 0.930 . S
H38 C33 0.931 . S
Co39 N36 2.135 . S
Co39 N42 2.121 . S
Co39 O47 2.055 . S
Co39 O50 2.039 . S
Co39 N53 2.140 . S
C40 O41 1.227 . S
C40 O50 1.265 . S
O41 C40 1.227 . S
N42 Co39 2.121 . S
N42 C44 1.375 . S
N42 C45 1.313 . S
C43 C44 1.338 . S
C43 N46 1.377 . S
C43 H63 0.930 . S
C44 N42 1.375 . S
C44 C43 1.338 . S
C44 H48 0.931 . S
C45 N42 1.313 . S
C45 N46 1.344 . S
C45 H49 0.930 . S
N46 C43 1.377 . S
N46 C45 1.344 . S
O47 Co39 2.055 . S
O47 C51 1.253 . S
H48 C44 0.931 . S
H49 C45 0.930 . S
O50 Co39 2.039 . S
O50 C40 1.265 . S
C51 O47 1.253 . S
C51 O52 1.227 . S
O52 C51 1.227 . S
N53 Co39 2.140 . S
N53 C56 1.346 . S
N53 C57 1.345 . S
C54 C55 1.387 . S
C54 C58 1.391 . S
C55 C54 1.387 . S
C55 C56 1.369 . S
C55 H64 0.929 . S
C56 N53 1.346 . S
C56 C55 1.369 . S
C56 H59 0.928 . S
C57 N53 1.345 . S
C57 C58 1.371 . S
C57 H60 0.931 . S
C58 C54 1.391 . S
C58 C57 1.371 . S
C58 H65 0.930 . S
H59 C56 0.928 . S
H60 C57 0.931 . S
H61 C37 0.930 . S
H62 C34 0.930 . S
H63 C43 0.930 . S
H64 C55 0.929 . S
H65 C58 0.930 . S
C66 C67 1.351 . S
C66 N69 1.368 . S
C66 H71 0.931 . S
C67 C66 1.351 . S
C67 N68 1.373 . S
C67 H95 0.930 . S
N68 C67 1.373 . S
N68 C70 1.340 . S
N69 C66 1.368 . S
N69 C70 1.321 . S
N69 Co72 2.135 . S
C70 N68 1.340 . S
C70 N69 1.321 . S
C70 H94 0.930 . S
H71 C66 0.931 . S
Co72 N69 2.135 . S
Co72 N75 2.121 1_565 S
Co72 O80 2.055 . S
Co72 O83 2.039 1_565 S
Co72 N86 2.140 . S
C73 O74 1.227 . S
C73 O83 1.265 . S
O74 C73 1.227 . S
N75 Co72 2.121 1_545 S
N75 C77 1.375 . S
N75 C78 1.313 . S
C76 C77 1.338 . S
C76 N79 1.377 . S
C76 H96 0.930 . S
C77 N75 1.375 . S
C77 C76 1.338 . S
C77 H81 0.931 . S
C78 N75 1.313 . S
C78 N79 1.344 . S
C78 H82 0.930 1_545 S
N79 C76 1.377 . S
N79 C78 1.344 . S
O80 Co72 2.055 . S
O80 C84 1.253 . S
H81 C77 0.931 . S
H82 C78 0.930 1_565 S
O83 Co72 2.039 1_545 S
O83 C73 1.265 . S
C84 O80 1.253 . S
C84 O85 1.227 . S
O85 C84 1.227 . S
N86 Co72 2.140 . S
N86 C89 1.346 . S
N86 C90 1.345 . S
C87 C88 1.387 . S
C87 C91 1.391 . S
C88 C87 1.387 . S
C88 C89 1.369 . S
C88 H97 0.929 . S
C89 N86 1.346 . S
C89 C88 1.369 . S
C89 H92 0.928 . S
C90 N86 1.345 . S
C90 C91 1.371 . S
C90 H93 0.931 . S
C91 C87 1.391 . S
C91 C90 1.371 . S
C91 H98 0.930 . S
H92 C89 0.928 . S
H93 C90 0.931 . S
H94 C70 0.930 . S
H95 C67 0.930 . S
H96 C76 0.930 . S
H97 C88 0.929 . S
H98 C91 0.930 . S
C99 C100 1.351 . S
C99 N102 1.368 . S
C99 H104 0.931 . S
C100 C99 1.351 . S
C100 N101 1.373 . S
C100 H128 0.930 . S
N101 C100 1.373 . S
N101 C103 1.340 . S
N102 C99 1.368 . S
N102 C103 1.321 . S
N102 Co105 2.135 . S
C103 N101 1.340 . S
C103 N102 1.321 . S
C103 H127 0.930 . S
H104 C99 0.931 . S
Co105 N102 2.135 . S
Co105 N108 2.121 1_545 S
Co105 O113 2.055 . S
Co105 O116 2.039 1_545 S
Co105 N119 2.140 . S
C106 O107 1.227 . S
C106 O116 1.265 . S
O107 C106 1.227 . S
N108 Co105 2.121 1_565 S
N108 C110 1.375 . S
N108 C111 1.313 . S
C109 C110 1.338 . S
C109 N112 1.377 . S
C109 H129 0.930 . S
C110 N108 1.375 . S
C110 C109 1.338 . S
C110 H114 0.931 . S
C111 N108 1.313 . S
C111 N112 1.344 . S
C111 H115 0.930 1_565 S
N112 C109 1.377 . S
N112 C111 1.344 . S
O113 Co105 2.055 . S
O113 C117 1.253 . S
H114 C110 0.931 . S
H115 C111 0.930 1_545 S
O116 Co105 2.039 1_565 S
O116 C106 1.265 . S
C117 O113 1.253 . S
C117 O118 1.227 . S
O118 C117 1.227 . S
N119 Co105 2.140 . S
N119 C122 1.346 . S
N119 C123 1.345 . S
C120 C121 1.387 . S
C120 C124 1.391 . S
C121 C120 1.387 . S
C121 C122 1.369 . S
C121 H130 0.929 . S
C122 N119 1.346 . S
C122 C121 1.369 . S
C122 H125 0.928 . S
C123 N119 1.345 . S
C123 C124 1.371 . S
C123 H126 0.931 . S
C124 C120 1.391 . S
C124 C123 1.371 . S
C124 H131 0.930 . S
H125 C122 0.928 . S
H126 C123 0.931 . S
H127 C103 0.930 . S
H128 C100 0.930 . S
H129 C109 0.930 . S
H130 C121 0.929 . S
H131 C124 0.930 . S
C132 C133 1.351 . S
C132 N135 1.368 . S
C132 H137 0.931 . S
C133 C132 1.351 . S
C133 N134 1.373 . S
C133 H161 0.930 . S
N134 C133 1.373 . S
N134 C136 1.340 . S
N135 C132 1.368 . S
N135 C136 1.321 . S
N135 Co138 2.135 . S
C136 N134 1.340 . S
C136 N135 1.321 . S
C136 H160 0.930 . S
H137 C132 0.931 . S
Co138 N135 2.135 . S
Co138 N141 2.121 1_655 S
Co138 O146 2.055 . S
Co138 O149 2.039 1_655 S
Co138 N152 2.140 . S
C139 O140 1.227 . S
C139 O149 1.265 . S
O140 C139 1.227 . S
N141 Co138 2.121 1_455 S
N141 C143 1.375 . S
N141 C144 1.313 . S
C142 C143 1.338 . S
C142 N145 1.377 . S
C142 H162 0.930 . S
C143 N141 1.375 . S
C143 C142 1.338 . S
C143 H147 0.931 . S
C144 N141 1.313 . S
C144 N145 1.344 . S
C144 H148 0.930 1_455 S
N145 C142 1.377 . S
N145 C144 1.344 . S
O146 Co138 2.055 . S
O146 C150 1.253 . S
H147 C143 0.931 . S
H148 C144 0.930 1_655 S
O149 Co138 2.039 1_455 S
O149 C139 1.265 . S
C150 O146 1.253 . S
C150 O151 1.227 . S
O151 C150 1.227 . S
N152 Co138 2.140 . S
N152 C155 1.346 . S
N152 C156 1.345 . S
C153 C154 1.387 . S
C153 C157 1.391 . S
C154 C153 1.387 . S
C154 C155 1.369 . S
C154 H163 0.929 . S
C155 N152 1.346 . S
C155 C154 1.369 . S
C155 H158 0.928 . S
C156 N152 1.345 . S
C156 C157 1.371 . S
C156 H159 0.931 . S
C157 C153 1.391 . S
C157 C156 1.371 . S
C157 H164 0.930 . S
H158 C155 0.928 . S
H159 C156 0.931 . S
H160 C136 0.930 . S
H161 C133 0.930 . S
H162 C142 0.930 . S
H163 C154 0.929 . S
H164 C157 0.930 . S
C165 C166 1.351 . S
C165 N168 1.368 . S
C165 H170 0.931 . S
C166 C165 1.351 . S
C166 N167 1.373 . S
C166 H194 0.930 . S
N167 C166 1.373 . S
N167 C169 1.340 . S
N168 C165 1.368 . S
N168 C169 1.321 . S
N168 Co171 2.135 . S
C169 N167 1.340 . S
C169 N168 1.321 . S
C169 H193 0.930 . S
H170 C165 0.931 . S
Co171 N168 2.135 . S
Co171 N174 2.121 . S
Co171 O179 2.055 . S
Co171 O182 2.039 . S
Co171 N185 2.140 . S
C172 O173 1.227 . S
C172 O182 1.265 . S
O173 C172 1.227 . S
N174 Co171 2.121 . S
N174 C176 1.375 . S
N174 C177 1.313 . S
C175 C176 1.338 . S
C175 N178 1.377 . S
C175 H195 0.930 . S
C176 N174 1.375 . S
C176 C175 1.338 . S
C176 H180 0.931 . S
C177 N174 1.313 . S
C177 N178 1.344 . S
C177 H181 0.930 . S
N178 C175 1.377 . S
N178 C177 1.344 . S
O179 Co171 2.055 . S
O179 C183 1.253 . S
H180 C176 0.931 . S
H181 C177 0.930 . S
O182 Co171 2.039 . S
O182 C172 1.265 . S
C183 O179 1.253 . S
C183 O184 1.227 . S
O184 C183 1.227 . S
N185 Co171 2.140 . S
N185 C188 1.346 . S
N185 C189 1.345 . S
C186 C187 1.387 . S
C186 C190 1.391 . S
C187 C186 1.387 . S
C187 C188 1.369 . S
C187 H196 0.929 . S
C188 N185 1.346 . S
C188 C187 1.369 . S
C188 H191 0.928 . S
C189 N185 1.345 . S
C189 C190 1.371 . S
C189 H192 0.931 . S
C190 C186 1.391 . S
C190 C189 1.371 . S
C190 H197 0.930 . S
H191 C188 0.928 . S
H192 C189 0.931 . S
H193 C169 0.930 . S
H194 C166 0.930 . S
H195 C175 0.930 . S
H196 C187 0.929 . S
H197 C190 0.930 . S
C198 C199 1.351 . S
C198 N201 1.368 . S
C198 H203 0.931 . S
C199 C198 1.351 . S
C199 N200 1.373 . S
C199 H227 0.930 . S
N200 C199 1.373 . S
N200 C202 1.340 . S
N201 C198 1.368 . S
N201 C202 1.321 . S
N201 Co204 2.135 . S
C202 N200 1.340 . S
C202 N201 1.321 . S
C202 H226 0.930 . S
H203 C198 0.931 . S
Co204 N201 2.135 . S
Co204 N207 2.121 . S
Co204 O212 2.055 . S
Co204 O215 2.039 . S
Co204 N218 2.140 . S
C205 O206 1.227 . S
C205 O215 1.265 . S
O206 C205 1.227 . S
N207 Co204 2.121 . S
N207 C209 1.375 . S
N207 C210 1.313 . S
C208 C209 1.338 . S
C208 N211 1.377 . S
C208 H228 0.930 . S
C209 N207 1.375 . S
C209 C208 1.338 . S
C209 H213 0.931 . S
C210 N207 1.313 . S
C210 N211 1.344 . S
C210 H214 0.930 . S
N211 C208 1.377 . S
N211 C210 1.344 . S
O212 Co204 2.055 . S
O212 C216 1.253 . S
H213 C209 0.931 . S
H214 C210 0.930 . S
O215 Co204 2.039 . S
O215 C205 1.265 . S
C216 O212 1.253 . S
C216 O217 1.227 . S
O217 C216 1.227 . S
N218 Co204 2.140 . S
N218 C221 1.346 . S
N218 C222 1.345 . S
C219 C220 1.387 . S
C219 C223 1.391 . S
C220 C219 1.387 . S
C220 C221 1.369 . S
C220 H229 0.929 . S
C221 N218 1.346 . S
C221 C220 1.369 . S
C221 H224 0.928 . S
C222 N218 1.345 . S
C222 C223 1.371 . S
C222 H225 0.931 . S
C223 C219 1.391 . S
C223 C222 1.371 . S
C223 H230 0.930 . S
H224 C221 0.928 . S
H225 C222 0.931 . S
H226 C202 0.930 . S
H227 C199 0.930 . S
H228 C208 0.930 . S
H229 C220 0.929 . S
H230 C223 0.930 . S
C231 C232 1.351 . S
C231 N234 1.368 . S
C231 H236 0.931 . S
C232 C231 1.351 . S
C232 N233 1.373 . S
C232 H260 0.930 . S
N233 C232 1.373 . S
N233 C235 1.340 . S
N234 C231 1.368 . S
N234 C235 1.321 . S
N234 Co237 2.135 . S
C235 N233 1.340 . S
C235 N234 1.321 . S
C235 H259 0.930 . S
H236 C231 0.931 . S
Co237 N234 2.135 . S
Co237 N240 2.121 . S
Co237 O245 2.055 . S
Co237 O248 2.039 . S
Co237 N251 2.140 . S
C238 O239 1.227 . S
C238 O248 1.265 . S
O239 C238 1.227 . S
N240 Co237 2.121 . S
N240 C242 1.375 . S
N240 C243 1.313 . S
C241 C242 1.338 . S
C241 N244 1.377 . S
C241 H261 0.930 . S
C242 N240 1.375 . S
C242 C241 1.338 . S
C242 H246 0.931 . S
C243 N240 1.313 . S
C243 N244 1.344 . S
C243 H247 0.930 . S
N244 C241 1.377 . S
N244 C243 1.344 . S
O245 Co237 2.055 . S
O245 C249 1.253 . S
H246 C242 0.931 . S
H247 C243 0.930 . S
O248 Co237 2.039 . S
O248 C238 1.265 . S
C249 O245 1.253 . S
C249 O250 1.227 . S
O250 C249 1.227 . S
N251 Co237 2.140 . S
N251 C254 1.346 . S
N251 C255 1.345 . S
C252 C253 1.387 . S
C252 C256 1.391 . S
C253 C252 1.387 . S
C253 C254 1.369 . S
C253 H262 0.929 . S
C254 N251 1.346 . S
C254 C253 1.369 . S
C254 H257 0.928 . S
C255 N251 1.345 . S
C255 C256 1.371 . S
C255 H258 0.931 . S
C256 C252 1.391 . S
C256 C255 1.371 . S
C256 H263 0.930 . S
H257 C254 0.928 . S
H258 C255 0.931 . S
H259 C235 0.930 . S
H260 C232 0.930 . S
H261 C241 0.930 . S
H262 C253 0.929 . S
H263 C256 0.930 . S
C264 C265 1.351 . S
C264 N267 1.368 . S
C264 H269 0.931 . S
C265 C264 1.351 . S
C265 N266 1.373 . S
C265 H293 0.930 . S
N266 C265 1.373 . S
N266 C268 1.340 . S
N267 C264 1.368 . S
N267 C268 1.321 . S
N267 Co270 2.135 . S
C268 N266 1.340 . S
C268 N267 1.321 . S
C268 H292 0.930 . S
H269 C264 0.931 . S
Co270 N267 2.135 . S
Co270 N273 2.121 . S
Co270 O278 2.055 . S
Co270 O281 2.039 . S
Co270 N284 2.140 . S
C271 O272 1.227 . S
C271 O281 1.265 . S
O272 C271 1.227 . S
N273 Co270 2.121 . S
N273 C275 1.375 . S
N273 C276 1.313 . S
C274 C275 1.338 . S
C274 N277 1.377 . S
C274 H294 0.930 . S
C275 N273 1.375 . S
C275 C274 1.338 . S
C275 H279 0.931 . S
C276 N273 1.313 . S
C276 N277 1.344 . S
C276 H280 0.930 . S
N277 C274 1.377 . S
N277 C276 1.344 . S
O278 Co270 2.055 . S
O278 C282 1.253 . S
H279 C275 0.931 . S
H280 C276 0.930 . S
O281 Co270 2.039 . S
O281 C271 1.265 . S
C282 O278 1.253 . S
C282 O283 1.227 . S
O283 C282 1.227 . S
N284 Co270 2.140 . S
N284 C287 1.346 . S
N284 C288 1.345 . S
C285 C286 1.387 . S
C285 C289 1.391 . S
C286 C285 1.387 . S
C286 C287 1.369 . S
C286 H295 0.929 . S
C287 N284 1.346 . S
C287 C286 1.369 . S
C287 H290 0.928 . S
C288 N284 1.345 . S
C288 C289 1.371 . S
C288 H291 0.931 . S
C289 C285 1.391 . S
C289 C288 1.371 . S
C289 H296 0.930 . S
H290 C287 0.928 . S
H291 C288 0.931 . S
H292 C268 0.930 . S
H293 C265 0.930 . S
H294 C274 0.930 . S
H295 C286 0.929 . S
H296 C289 0.930 . S
C297 C298 1.351 . S
C297 N300 1.368 . S
C297 H302 0.931 . S
C298 C297 1.351 . S
C298 N299 1.373 . S
C298 H326 0.930 . S
N299 C298 1.373 . S
N299 C301 1.340 . S
N300 C297 1.368 . S
N300 C301 1.321 . S
N300 Co303 2.135 . S
C301 N299 1.340 . S
C301 N300 1.321 . S
C301 H325 0.930 . S
H302 C297 0.931 . S
Co303 N300 2.135 . S
Co303 N306 2.121 . S
Co303 O311 2.055 . S
Co303 O314 2.039 . S
Co303 N317 2.140 . S
C304 O305 1.227 . S
C304 O314 1.265 . S
O305 C304 1.227 . S
N306 Co303 2.121 . S
N306 C308 1.375 . S
N306 C309 1.313 . S
C307 C308 1.338 . S
C307 N310 1.377 . S
C307 H327 0.930 . S
C308 N306 1.375 . S
C308 C307 1.338 . S
C308 H312 0.931 . S
C309 N306 1.313 . S
C309 N310 1.344 . S
C309 H313 0.930 . S
N310 C307 1.377 . S
N310 C309 1.344 . S
O311 Co303 2.055 . S
O311 C315 1.253 . S
H312 C308 0.931 . S
H313 C309 0.930 . S
O314 Co303 2.039 . S
O314 C304 1.265 . S
C315 O311 1.253 . S
C315 O316 1.227 . S
O316 C315 1.227 . S
N317 Co303 2.140 . S
N317 C320 1.346 . S
N317 C321 1.345 . S
C318 C319 1.387 . S
C318 C322 1.391 . S
C319 C318 1.387 . S
C319 C320 1.369 . S
C319 H328 0.929 . S
C320 N317 1.346 . S
C320 C319 1.369 . S
C320 H323 0.928 . S
C321 N317 1.345 . S
C321 C322 1.371 . S
C321 H324 0.931 . S
C322 C318 1.391 . S
C322 C321 1.371 . S
C322 H329 0.930 . S
H323 C320 0.928 . S
H324 C321 0.931 . S
H325 C301 0.930 . S
H326 C298 0.930 . S
H327 C307 0.930 . S
H328 C319 0.929 . S
H329 C322 0.930 . S
C330 C331 1.351 . S
C330 N333 1.368 . S
C330 H335 0.931 . S
C331 C330 1.351 . S
C331 N332 1.373 . S
C331 H359 0.930 . S
N332 C331 1.373 . S
N332 C334 1.340 . S
N333 C330 1.368 . S
N333 C334 1.321 . S
N333 Co336 2.135 . S
C334 N332 1.340 . S
C334 N333 1.321 . S
C334 H358 0.930 . S
H335 C330 0.931 . S
Co336 N333 2.135 . S
Co336 N339 2.121 . S
Co336 O344 2.055 . S
Co336 O347 2.039 . S
Co336 N350 2.140 . S
C337 O338 1.227 . S
C337 O347 1.265 . S
O338 C337 1.227 . S
N339 Co336 2.121 . S
N339 C341 1.375 . S
N339 C342 1.313 . S
C340 C341 1.338 . S
C340 N343 1.377 . S
C340 H360 0.930 . S
C341 N339 1.375 . S
C341 C340 1.338 . S
C341 H345 0.931 . S
C342 N339 1.313 . S
C342 N343 1.344 . S
C342 H346 0.930 . S
N343 C340 1.377 . S
N343 C342 1.344 . S
O344 Co336 2.055 . S
O344 C348 1.253 . S
H345 C341 0.931 . S
H346 C342 0.930 . S
O347 Co336 2.039 . S
O347 C337 1.265 . S
C348 O344 1.253 . S
C348 O349 1.227 . S
O349 C348 1.227 . S
N350 Co336 2.140 . S
N350 C353 1.346 . S
N350 C354 1.345 . S
C351 C352 1.387 . S
C351 C355 1.391 . S
C352 C351 1.387 . S
C352 C353 1.369 . S
C352 H361 0.929 . S
C353 N350 1.346 . S
C353 C352 1.369 . S
C353 H356 0.928 . S
C354 N350 1.345 . S
C354 C355 1.371 . S
C354 H357 0.931 . S
C355 C351 1.391 . S
C355 C354 1.371 . S
C355 H362 0.930 . S
H356 C353 0.928 . S
H357 C354 0.931 . S
H358 C334 0.930 . S
H359 C331 0.930 . S
H360 C340 0.930 . S
H361 C352 0.929 . S
H362 C355 0.930 . S
C363 C364 1.351 . S
C363 N366 1.368 . S
C363 H368 0.931 . S
C364 C363 1.351 . S
C364 N365 1.373 . S
C364 H392 0.930 . S
N365 C364 1.373 . S
N365 C367 1.340 . S
N366 C363 1.368 . S
N366 C367 1.321 . S
N366 Co369 2.135 . S
C367 N365 1.340 . S
C367 N366 1.321 . S
C367 H391 0.930 . S
H368 C363 0.931 . S
Co369 N366 2.135 . S
Co369 N372 2.121 . S
Co369 O377 2.055 . S
Co369 O380 2.039 . S
Co369 N383 2.140 . S
C370 O371 1.227 . S
C370 O380 1.265 . S
O371 C370 1.227 . S
N372 Co369 2.121 . S
N372 C374 1.375 . S
N372 C375 1.313 . S
C373 C374 1.338 . S
C373 N376 1.377 . S
C373 H393 0.930 . S
C374 N372 1.375 . S
C374 C373 1.338 . S
C374 H378 0.931 . S
C375 N372 1.313 . S
C375 N376 1.344 . S
C375 H379 0.930 . S
N376 C373 1.377 . S
N376 C375 1.344 . S
O377 Co369 2.055 . S
O377 C381 1.253 . S
H378 C374 0.931 . S
H379 C375 0.930 . S
O380 Co369 2.039 . S
O380 C370 1.265 . S
C381 O377 1.253 . S
C381 O382 1.227 . S
O382 C381 1.227 . S
N383 Co369 2.140 . S
N383 C386 1.346 . S
N383 C387 1.345 . S
C384 C385 1.387 . S
C384 C388 1.391 . S
C385 C384 1.387 . S
C385 C386 1.369 . S
C385 H394 0.929 . S
C386 N383 1.346 . S
C386 C385 1.369 . S
C386 H389 0.928 . S
C387 N383 1.345 . S
C387 C388 1.371 . S
C387 H390 0.931 . S
C388 C384 1.391 . S
C388 C387 1.371 . S
C388 H395 0.930 . S
H389 C386 0.928 . S
H390 C387 0.931 . S
H391 C367 0.930 . S
H392 C364 0.930 . S
H393 C373 0.930 . S
H394 C385 0.929 . S
H395 C388 0.930 . S
C396 C397 1.351 . S
C396 N399 1.368 . S
C396 H401 0.931 . S
C397 C396 1.351 . S
C397 N398 1.373 . S
C397 H425 0.930 . S
N398 C397 1.373 . S
N398 C400 1.340 . S
N399 C396 1.368 . S
N399 C400 1.321 . S
N399 Co402 2.135 . S
C400 N398 1.340 . S
C400 N399 1.321 . S
C400 H424 0.930 . S
H401 C396 0.931 . S
Co402 N399 2.135 . S
Co402 N405 2.121 . S
Co402 O410 2.055 . S
Co402 O413 2.039 . S
Co402 N416 2.140 . S
C403 O404 1.227 . S
C403 O413 1.265 . S
O404 C403 1.227 . S
N405 Co402 2.121 . S
N405 C407 1.375 . S
N405 C408 1.313 . S
C406 C407 1.338 . S
C406 N409 1.377 . S
C406 H426 0.930 . S
C407 N405 1.375 . S
C407 C406 1.338 . S
C407 H411 0.931 . S
C408 N405 1.313 . S
C408 N409 1.344 . S
C408 H412 0.930 . S
N409 C406 1.377 . S
N409 C408 1.344 . S
O410 Co402 2.055 . S
O410 C414 1.253 . S
H411 C407 0.931 . S
H412 C408 0.930 . S
O413 Co402 2.039 . S
O413 C403 1.265 . S
C414 O410 1.253 . S
C414 O415 1.227 . S
O415 C414 1.227 . S
N416 Co402 2.140 . S
N416 C419 1.346 . S
N416 C420 1.345 . S
C417 C418 1.387 . S
C417 C421 1.391 . S
C418 C417 1.387 . S
C418 C419 1.369 . S
C418 H427 0.929 . S
C419 N416 1.346 . S
C419 C418 1.369 . S
C419 H422 0.928 . S
C420 N416 1.345 . S
C420 C421 1.371 . S
C420 H423 0.931 . S
C421 C417 1.391 . S
C421 C420 1.371 . S
C421 H428 0.930 . S
H422 C419 0.928 . S
H423 C420 0.931 . S
H424 C400 0.930 . S
H425 C397 0.930 . S
H426 C406 0.930 . S
H427 C418 0.929 . S
H428 C421 0.930 . S
C429 C430 1.351 . S
C429 N432 1.368 . S
C429 H434 0.931 . S
C430 C429 1.351 . S
C430 N431 1.373 . S
C430 H458 0.930 . S
N431 C430 1.373 . S
N431 C433 1.340 . S
N432 C429 1.368 . S
N432 C433 1.321 . S
N432 Co435 2.135 . S
C433 N431 1.340 . S
C433 N432 1.321 . S
C433 H457 0.930 . S
H434 C429 0.931 . S
Co435 N432 2.135 . S
Co435 N438 2.121 . S
Co435 O443 2.055 . S
Co435 O446 2.039 . S
Co435 N449 2.140 . S
C436 O437 1.227 . S
C436 O446 1.265 . S
O437 C436 1.227 . S
N438 Co435 2.121 . S
N438 C440 1.375 . S
N438 C441 1.313 . S
C439 C440 1.338 . S
C439 N442 1.377 . S
C439 H459 0.930 . S
C440 N438 1.375 . S
C440 C439 1.338 . S
C440 H444 0.931 . S
C441 N438 1.313 . S
C441 N442 1.344 . S
C441 H445 0.930 . S
N442 C439 1.377 . S
N442 C441 1.344 . S
O443 Co435 2.055 . S
O443 C447 1.253 . S
H444 C440 0.931 . S
H445 C441 0.930 . S
O446 Co435 2.039 . S
O446 C436 1.265 . S
C447 O443 1.253 . S
C447 O448 1.227 . S
O448 C447 1.227 . S
N449 Co435 2.140 . S
N449 C452 1.346 . S
N449 C453 1.345 . S
C450 C451 1.387 . S
C450 C454 1.391 . S
C451 C450 1.387 . S
C451 C452 1.369 . S
C451 H460 0.929 . S
C452 N449 1.346 . S
C452 C451 1.369 . S
C452 H455 0.928 . S
C453 N449 1.345 . S
C453 C454 1.371 . S
C453 H456 0.931 . S
C454 C450 1.391 . S
C454 C453 1.371 . S
C454 H461 0.930 . S
H455 C452 0.928 . S
H456 C453 0.931 . S
H457 C433 0.930 . S
H458 C430 0.930 . S
H459 C439 0.930 . S
H460 C451 0.929 . S
H461 C454 0.930 . S
C462 C463 1.351 . S
C462 N465 1.368 . S
C462 H467 0.931 . S
C463 C462 1.351 . S
C463 N464 1.373 . S
C463 H491 0.930 . S
N464 C463 1.373 . S
N464 C466 1.340 . S
N465 C462 1.368 . S
N465 C466 1.321 . S
N465 Co468 2.135 . S
C466 N464 1.340 . S
C466 N465 1.321 . S
C466 H490 0.930 . S
H467 C462 0.931 . S
Co468 N465 2.135 . S
Co468 N471 2.121 . S
Co468 O476 2.055 . S
Co468 O479 2.039 . S
Co468 N482 2.140 . S
C469 O470 1.227 . S
C469 O479 1.265 . S
O470 C469 1.227 . S
N471 Co468 2.121 . S
N471 C473 1.375 . S
N471 C474 1.313 . S
C472 C473 1.338 . S
C472 N475 1.377 . S
C472 H492 0.930 . S
C473 N471 1.375 . S
C473 C472 1.338 . S
C473 H477 0.931 . S
C474 N471 1.313 . S
C474 N475 1.344 . S
C474 H478 0.930 . S
N475 C472 1.377 . S
N475 C474 1.344 . S
O476 Co468 2.055 . S
O476 C480 1.253 . S
H477 C473 0.931 . S
H478 C474 0.930 . S
O479 Co468 2.039 . S
O479 C469 1.265 . S
C480 O476 1.253 . S
C480 O481 1.227 . S
O481 C480 1.227 . S
N482 Co468 2.140 . S
N482 C485 1.346 . S
N482 C486 1.345 . S
C483 C484 1.387 . S
C483 C487 1.391 . S
C484 C483 1.387 . S
C484 C485 1.369 . S
C484 H493 0.929 . S
C485 N482 1.346 . S
C485 C484 1.369 . S
C485 H488 0.928 . S
C486 N482 1.345 . S
C486 C487 1.371 . S
C486 H489 0.931 . S
C487 C483 1.391 . S
C487 C486 1.371 . S
C487 H494 0.930 . S
H488 C485 0.928 . S
H489 C486 0.931 . S
H490 C466 0.930 . S
H491 C463 0.930 . S
H492 C472 0.930 . S
H493 C484 0.929 . S
H494 C487 0.930 . S
C495 C496 1.351 . S
C495 N498 1.368 . S
C495 H500 0.931 . S
C496 C495 1.351 . S
C496 N497 1.373 . S
C496 H524 0.930 . S
N497 C496 1.373 . S
N497 C499 1.340 . S
N498 C495 1.368 . S
N498 C499 1.321 . S
N498 Co501 2.135 . S
C499 N497 1.340 . S
C499 N498 1.321 . S
C499 H523 0.930 . S
H500 C495 0.931 . S
Co501 N498 2.135 . S
Co501 N504 2.121 . S
Co501 O509 2.055 . S
Co501 O512 2.039 . S
Co501 N515 2.140 . S
C502 O503 1.227 . S
C502 O512 1.265 . S
O503 C502 1.227 . S
N504 Co501 2.121 . S
N504 C506 1.375 . S
N504 C507 1.313 . S
C505 C506 1.338 . S
C505 N508 1.377 . S
C505 H525 0.930 . S
C506 N504 1.375 . S
C506 C505 1.338 . S
C506 H510 0.931 . S
C507 N504 1.313 . S
C507 N508 1.344 . S
C507 H511 0.930 . S
N508 C505 1.377 . S
N508 C507 1.344 . S
O509 Co501 2.055 . S
O509 C513 1.253 . S
H510 C506 0.931 . S
H511 C507 0.930 . S
O512 Co501 2.039 . S
O512 C502 1.265 . S
C513 O509 1.253 . S
C513 O514 1.227 . S
O514 C513 1.227 . S
N515 Co501 2.140 . S
N515 C518 1.346 . S
N515 C519 1.345 . S
C516 C517 1.387 . S
C516 C520 1.391 . S
C517 C516 1.387 . S
C517 C518 1.369 . S
C517 H526 0.929 . S
C518 N515 1.346 . S
C518 C517 1.369 . S
C518 H521 0.928 . S
C519 N515 1.345 . S
C519 C520 1.371 . S
C519 H522 0.931 . S
C520 C516 1.391 . S
C520 C519 1.371 . S
C520 H527 0.930 . S
H521 C518 0.928 . S
H522 C519 0.931 . S
H523 C499 0.930 . S
H524 C496 0.930 . S
H525 C505 0.930 . S
H526 C517 0.929 . S
H527 C520 0.930 . S
C528 C529 1.351 . S
C528 N531 1.368 . S
C528 H533 0.931 . S
C529 C528 1.351 . S
C529 N530 1.373 . S
C529 H557 0.930 . S
N530 C529 1.373 . S
N530 C532 1.340 . S
N531 C528 1.368 . S
N531 C532 1.321 . S
N531 Co534 2.135 . S
C532 N530 1.340 . S
C532 N531 1.321 . S
C532 H556 0.930 . S
H533 C528 0.931 . S
Co534 N531 2.135 . S
Co534 N537 2.121 . S
Co534 O542 2.055 . S
Co534 O545 2.039 . S
Co534 N548 2.140 . S
C535 O536 1.227 . S
C535 O545 1.265 . S
O536 C535 1.227 . S
N537 Co534 2.121 . S
N537 C539 1.375 . S
N537 C540 1.313 . S
C538 C539 1.338 . S
C538 N541 1.377 . S
C538 H558 0.930 . S
C539 N537 1.375 . S
C539 C538 1.338 . S
C539 H543 0.931 . S
C540 N537 1.313 . S
C540 N541 1.344 . S
C540 H544 0.930 . S
N541 C538 1.377 . S
N541 C540 1.344 . S
O542 Co534 2.055 . S
O542 C546 1.253 . S
H543 C539 0.931 . S
H544 C540 0.930 . S
O545 Co534 2.039 . S
O545 C535 1.265 . S
C546 O542 1.253 . S
C546 O547 1.227 . S
O547 C546 1.227 . S
N548 Co534 2.140 . S
N548 C551 1.346 . S
N548 C552 1.345 . S
C549 C550 1.387 . S
C549 C553 1.391 . S
C550 C549 1.387 . S
C550 C551 1.369 . S
C550 H559 0.929 . S
C551 N548 1.346 . S
C551 C550 1.369 . S
C551 H554 0.928 . S
C552 N548 1.345 . S
C552 C553 1.371 . S
C552 H555 0.931 . S
C553 C549 1.391 . S
C553 C552 1.371 . S
C553 H560 0.930 . S
H554 C551 0.928 . S
H555 C552 0.931 . S
H556 C532 0.930 . S
H557 C529 0.930 . S
H558 C538 0.930 . S
H559 C550 0.929 . S
H560 C553 0.930 . S
C561 C562 1.351 . S
C561 N564 1.368 . S
C561 H566 0.931 . S
C562 C561 1.351 . S
C562 N563 1.373 . S
C562 H590 0.930 . S
N563 C562 1.373 . S
N563 C565 1.340 . S
N564 C561 1.368 . S
N564 C565 1.321 . S
N564 Co567 2.135 . S
C565 N563 1.340 . S
C565 N564 1.321 . S
C565 H589 0.930 . S
H566 C561 0.931 . S
Co567 N564 2.135 . S
Co567 N570 2.121 . S
Co567 O575 2.055 . S
Co567 O578 2.039 . S
Co567 N581 2.140 . S
C568 O569 1.227 . S
C568 O578 1.265 . S
O569 C568 1.227 . S
N570 Co567 2.121 . S
N570 C572 1.375 . S
N570 C573 1.313 . S
C571 C572 1.338 . S
C571 N574 1.377 . S
C571 H591 0.930 . S
C572 N570 1.375 . S
C572 C571 1.338 . S
C572 H576 0.931 . S
C573 N570 1.313 . S
C573 N574 1.344 . S
C573 H577 0.930 . S
N574 C571 1.377 . S
N574 C573 1.344 . S
O575 Co567 2.055 . S
O575 C579 1.253 . S
H576 C572 0.931 . S
H577 C573 0.930 . S
O578 Co567 2.039 . S
O578 C568 1.265 . S
C579 O575 1.253 . S
C579 O580 1.227 . S
O580 C579 1.227 . S
N581 Co567 2.140 . S
N581 C584 1.346 . S
N581 C585 1.345 . S
C582 C583 1.387 . S
C582 C586 1.391 . S
C583 C582 1.387 . S
C583 C584 1.369 . S
C583 H592 0.929 . S
C584 N581 1.346 . S
C584 C583 1.369 . S
C584 H587 0.928 . S
C585 N581 1.345 . S
C585 C586 1.371 . S
C585 H588 0.931 . S
C586 C582 1.391 . S
C586 C585 1.371 . S
C586 H593 0.930 . S
H587 C584 0.928 . S
H588 C585 0.931 . S
H589 C565 0.930 . S
H590 C562 0.930 . S
H591 C571 0.930 . S
H592 C583 0.929 . S
H593 C586 0.930 . S
H594 C602 0.929 . S
H595 C604 0.930 . S
H596 C606 0.930 . S
H597 C609 0.929 . S
H598 C612 0.930 . S
H599 C614 0.960 . S
H600 C614 0.960 . S
H601 C614 0.960 . S
C602 H594 0.929 . S
C602 C603 1.377 . S
C602 C604 1.384 . S
C603 C602 1.377 . S
C603 C609 1.390 . S
C604 H595 0.930 . S
C604 C602 1.384 . S
C604 C605 1.372 . S
C605 C604 1.372 . S
C605 C606 1.400 . S
C605 C610 1.490 . S
C606 H596 0.930 . S
C606 C605 1.400 . S
C606 C609 1.386 . S
H607 C623 0.930 . S
H608 C624 0.931 . S
C609 H597 0.929 . S
C609 C603 1.390 . S
C609 C606 1.386 . S
C610 C605 1.490 . S
C610 C612 1.395 . S
C610 C613 1.403 . S
H611 C617 0.930 . S
C612 H598 0.930 . S
C612 C610 1.395 . S
C612 C615 1.403 . S
C613 C610 1.403 . S
C613 C614 1.524 . S
C613 C617 1.400 . S
C614 H599 0.960 . S
C614 H600 0.960 . S
C614 H601 0.960 . S
C614 C613 1.524 . S
C615 C612 1.403 . S
C615 C616 1.392 . S
C615 C619 1.495 . S
C616 C615 1.392 . S
C616 C617 1.385 . S
C616 C618 1.478 . S
C617 H611 0.930 . S
C617 C613 1.400 . S
C617 C616 1.385 . S
C618 C616 1.478 . S
C618 C620 1.381 . S
C618 C624 1.383 . S
C619 C615 1.495 . S
C619 H625 0.959 . S
C619 H626 0.961 . S
C619 H627 0.960 . S
C620 C618 1.381 . S
C620 C621 1.394 . S
C620 H628 0.930 . S
C621 C620 1.394 . S
C621 C622 1.383 . S
C621 H629 0.929 . S
C622 C621 1.383 . S
C622 C623 1.377 . S
C623 H607 0.930 . S
C623 C622 1.377 . S
C623 C624 1.379 . S
C624 H608 0.931 . S
C624 C618 1.383 . S
C624 C623 1.379 . S
H625 C619 0.959 . S
H626 C619 0.961 . S
H627 C619 0.960 . S
H628 C620 0.930 . S
H629 C621 0.929 . S
H630 C638 0.929 . S
H631 C640 0.930 . S
H632 C642 0.930 . S
H633 C645 0.929 . S
H634 C648 0.930 . S
H635 C650 0.960 . S
H636 C650 0.960 . S
H637 C650 0.960 . S
C638 H630 0.929 . S
C638 C639 1.377 . S
C638 C640 1.384 . S
C639 C638 1.377 . S
C639 C645 1.390 . S
C640 H631 0.930 . S
C640 C638 1.384 . S
C640 C641 1.372 . S
C641 C640 1.372 . S
C641 C642 1.400 . S
C641 C646 1.490 . S
C642 H632 0.930 . S
C642 C641 1.400 . S
C642 C645 1.386 . S
H643 C659 0.930 . S
H644 C660 0.931 . S
C645 H633 0.929 . S
C645 C639 1.390 . S
C645 C642 1.386 . S
C646 C641 1.490 . S
C646 C648 1.395 . S
C646 C649 1.403 . S
H647 C653 0.930 . S
C648 H634 0.930 . S
C648 C646 1.395 . S
C648 C651 1.403 . S
C649 C646 1.403 . S
C649 C650 1.524 . S
C649 C653 1.400 . S
C650 H635 0.960 . S
C650 H636 0.960 . S
C650 H637 0.960 . S
C650 C649 1.524 . S
C651 C648 1.403 . S
C651 C652 1.392 . S
C651 C655 1.495 . S
C652 C651 1.392 . S
C652 C653 1.385 . S
C652 C654 1.478 . S
C653 H647 0.930 . S
C653 C649 1.400 . S
C653 C652 1.385 . S
C654 C652 1.478 . S
C654 C656 1.381 . S
C654 C660 1.383 . S
C655 C651 1.495 . S
C655 H661 0.959 . S
C655 H662 0.961 . S
C655 H663 0.960 . S
C656 C654 1.381 . S
C656 C657 1.394 . S
C656 H664 0.930 . S
C657 C656 1.394 . S
C657 C658 1.383 . S
C657 H665 0.929 . S
C658 C657 1.383 . S
C658 C659 1.377 . S
C659 H643 0.930 . S
C659 C658 1.377 . S
C659 C660 1.379 . S
C660 H644 0.931 . S
C660 C654 1.383 . S
C660 C659 1.379 . S
H661 C655 0.959 . S
H662 C655 0.961 . S
H663 C655 0.960 . S
H664 C656 0.930 . S
H665 C657 0.929 . S
H666 C674 0.929 . S
H667 C676 0.930 . S
H668 C678 0.930 . S
H669 C681 0.929 . S
H670 C684 0.930 . S
H671 C686 0.960 . S
H672 C686 0.960 . S
H673 C686 0.960 . S
C674 H666 0.929 . S
C674 C675 1.377 . S
C674 C676 1.384 . S
C675 C674 1.377 . S
C675 C681 1.390 . S
C676 H667 0.930 . S
C676 C674 1.384 . S
C676 C677 1.372 . S
C677 C676 1.372 . S
C677 C678 1.400 . S
C677 C682 1.490 . S
C678 H668 0.930 . S
C678 C677 1.400 . S
C678 C681 1.386 . S
H679 C695 0.930 . S
H680 C696 0.931 . S
C681 H669 0.929 . S
C681 C675 1.390 . S
C681 C678 1.386 . S
C682 C677 1.490 . S
C682 C684 1.395 . S
C682 C685 1.403 . S
H683 C689 0.930 . S
C684 H670 0.930 . S
C684 C682 1.395 . S
C684 C687 1.403 . S
C685 C682 1.403 . S
C685 C686 1.524 . S
C685 C689 1.400 . S
C686 H671 0.960 . S
C686 H672 0.960 . S
C686 H673 0.960 . S
C686 C685 1.524 . S
C687 C684 1.403 . S
C687 C688 1.392 . S
C687 C691 1.495 . S
C688 C687 1.392 . S
C688 C689 1.385 . S
C688 C690 1.478 . S
C689 H683 0.930 . S
C689 C685 1.400 . S
C689 C688 1.385 . S
C690 C688 1.478 . S
C690 C692 1.381 . S
C690 C696 1.383 . S
C691 C687 1.495 . S
C691 H697 0.959 . S
C691 H698 0.961 . S
C691 H699 0.960 . S
C692 C690 1.381 . S
C692 C693 1.394 . S
C692 H700 0.930 . S
C693 C692 1.394 . S
C693 C694 1.383 . S
C693 H701 0.929 . S
C694 C693 1.383 . S
C694 C695 1.377 . S
C695 H679 0.930 . S
C695 C694 1.377 . S
C695 C696 1.379 . S
C696 H680 0.931 . S
C696 C690 1.383 . S
C696 C695 1.379 . S
H697 C691 0.959 . S
H698 C691 0.961 . S
H699 C691 0.960 . S
H700 C692 0.930 . S
H701 C693 0.929 . S
H702 C710 0.929 . S
H703 C712 0.930 . S
H704 C714 0.930 . S
H705 C717 0.929 . S
H706 C720 0.930 . S
H707 C722 0.960 . S
H708 C722 0.960 . S
H709 C722 0.960 . S
C710 H702 0.929 . S
C710 C711 1.377 . S
C710 C712 1.384 . S
C711 C710 1.377 . S
C711 C717 1.390 . S
C712 H703 0.930 . S
C712 C710 1.384 . S
C712 C713 1.372 . S
C713 C712 1.372 . S
C713 C714 1.400 . S
C713 C718 1.490 . S
C714 H704 0.930 . S
C714 C713 1.400 . S
C714 C717 1.386 . S
H715 C731 0.930 . S
H716 C732 0.931 . S
C717 H705 0.929 . S
C717 C711 1.390 . S
C717 C714 1.386 . S
C718 C713 1.490 . S
C718 C720 1.395 . S
C718 C721 1.403 . S
H719 C725 0.930 . S
C720 H706 0.930 . S
C720 C718 1.395 . S
C720 C723 1.403 . S
C721 C718 1.403 . S
C721 C722 1.524 . S
C721 C725 1.400 . S
C722 H707 0.960 . S
C722 H708 0.960 . S
C722 H709 0.960 . S
C722 C721 1.524 . S
C723 C720 1.403 . S
C723 C724 1.392 . S
C723 C727 1.495 . S
C724 C723 1.392 . S
C724 C725 1.385 . S
C724 C726 1.478 . S
C725 H719 0.930 . S
C725 C721 1.400 . S
C725 C724 1.385 . S
C726 C724 1.478 . S
C726 C728 1.381 . S
C726 C732 1.383 . S
C727 C723 1.495 . S
C727 H733 0.959 . S
C727 H734 0.961 . S
C727 H735 0.960 . S
C728 C726 1.381 . S
C728 C729 1.394 . S
C728 H736 0.930 . S
C729 C728 1.394 . S
C729 C730 1.383 . S
C729 H737 0.929 . S
C730 C729 1.383 . S
C730 C731 1.377 . S
C731 H715 0.930 . S
C731 C730 1.377 . S
C731 C732 1.379 . S
C732 H716 0.931 . S
C732 C726 1.383 . S
C732 C731 1.379 . S
H733 C727 0.959 . S
H734 C727 0.961 . S
H735 C727 0.960 . S
H736 C728 0.930 . S
H737 C729 0.929 . S
H738 C746 0.929 . S
H739 C748 0.930 . S
H740 C750 0.930 . S
H741 C753 0.929 . S
H742 C756 0.930 . S
H743 C758 0.960 . S
H744 C758 0.960 . S
H745 C758 0.960 . S
C746 H738 0.929 . S
C746 C747 1.377 . S
C746 C748 1.384 . S
C747 C746 1.377 . S
C747 C753 1.390 . S
C748 H739 0.930 . S
C748 C746 1.384 . S
C748 C749 1.372 . S
C749 C748 1.372 . S
C749 C750 1.400 . S
C749 C754 1.490 . S
C750 H740 0.930 . S
C750 C749 1.400 . S
C750 C753 1.386 . S
H751 C767 0.930 . S
H752 C768 0.931 . S
C753 H741 0.929 . S
C753 C747 1.390 . S
C753 C750 1.386 . S
C754 C749 1.490 . S
C754 C756 1.395 . S
C754 C757 1.403 . S
H755 C761 0.930 . S
C756 H742 0.930 . S
C756 C754 1.395 . S
C756 C759 1.403 . S
C757 C754 1.403 . S
C757 C758 1.524 . S
C757 C761 1.400 . S
C758 H743 0.960 . S
C758 H744 0.960 . S
C758 H745 0.960 . S
C758 C757 1.524 . S
C759 C756 1.403 . S
C759 C760 1.392 . S
C759 C763 1.495 . S
C760 C759 1.392 . S
C760 C761 1.385 . S
C760 C762 1.478 . S
C761 H755 0.930 . S
C761 C757 1.400 . S
C761 C760 1.385 . S
C762 C760 1.478 . S
C762 C764 1.381 . S
C762 C768 1.383 . S
C763 C759 1.495 . S
C763 H769 0.959 . S
C763 H770 0.961 . S
C763 H771 0.960 . S
C764 C762 1.381 . S
C764 C765 1.394 . S
C764 H772 0.930 . S
C765 C764 1.394 . S
C765 C766 1.383 . S
C765 H773 0.929 . S
C766 C765 1.383 . S
C766 C767 1.377 . S
C767 H751 0.930 . S
C767 C766 1.377 . S
C767 C768 1.379 . S
C768 H752 0.931 . S
C768 C762 1.383 . S
C768 C767 1.379 . S
H769 C763 0.959 . S
H770 C763 0.961 . S
H771 C763 0.960 . S
H772 C764 0.930 . S
H773 C765 0.929 . S
H774 C782 0.929 . S
H775 C784 0.930 . S
H776 C786 0.930 . S
H777 C789 0.929 . S
H778 C792 0.930 . S
H779 C794 0.960 . S
H780 C794 0.960 . S
H781 C794 0.960 . S
C782 H774 0.929 . S
C782 C783 1.377 . S
C782 C784 1.384 . S
C783 C782 1.377 . S
C783 C789 1.390 . S
C784 H775 0.930 . S
C784 C782 1.384 . S
C784 C785 1.372 . S
C785 C784 1.372 . S
C785 C786 1.400 . S
C785 C790 1.490 . S
C786 H776 0.930 . S
C786 C785 1.400 . S
C786 C789 1.386 . S
H787 C803 0.930 . S
H788 C804 0.931 . S
C789 H777 0.929 . S
C789 C783 1.390 . S
C789 C786 1.386 . S
C790 C785 1.490 . S
C790 C792 1.395 . S
C790 C793 1.403 . S
H791 C797 0.930 . S
C792 H778 0.930 . S
C792 C790 1.395 . S
C792 C795 1.403 . S
C793 C790 1.403 . S
C793 C794 1.524 . S
C793 C797 1.400 . S
C794 H779 0.960 . S
C794 H780 0.960 . S
C794 H781 0.960 . S
C794 C793 1.524 . S
C795 C792 1.403 . S
C795 C796 1.392 . S
C795 C799 1.495 . S
C796 C795 1.392 . S
C796 C797 1.385 . S
C796 C798 1.478 . S
C797 H791 0.930 . S
C797 C793 1.400 . S
C797 C796 1.385 . S
C798 C796 1.478 . S
C798 C800 1.381 . S
C798 C804 1.383 . S
C799 C795 1.495 . S
C799 H805 0.959 . S
C799 H806 0.961 . S
C799 H807 0.960 . S
C800 C798 1.381 . S
C800 C801 1.394 . S
C800 H808 0.930 . S
C801 C800 1.394 . S
C801 C802 1.383 . S
C801 H809 0.929 . S
C802 C801 1.383 . S
C802 C803 1.377 . S
C803 H787 0.930 . S
C803 C802 1.377 . S
C803 C804 1.379 . S
C804 H788 0.931 . S
C804 C798 1.383 . S
C804 C803 1.379 . S
H805 C799 0.959 . S
H806 C799 0.961 . S
H807 C799 0.960 . S
H808 C800 0.930 . S
H809 C801 0.929 . S
H810 C818 0.929 . S
H811 C820 0.930 . S
H812 C822 0.930 . S
H813 C825 0.929 . S
H814 C828 0.930 . S
H815 C830 0.960 . S
H816 C830 0.960 . S
H817 C830 0.960 . S
C818 H810 0.929 . S
C818 C819 1.377 . S
C818 C820 1.384 . S
C819 C818 1.377 . S
C819 C825 1.390 . S
C820 H811 0.930 . S
C820 C818 1.384 . S
C820 C821 1.372 . S
C821 C820 1.372 . S
C821 C822 1.400 . S
C821 C826 1.490 . S
C822 H812 0.930 . S
C822 C821 1.400 . S
C822 C825 1.386 . S
H823 C839 0.930 . S
H824 C840 0.931 . S
C825 H813 0.929 . S
C825 C819 1.390 . S
C825 C822 1.386 . S
C826 C821 1.490 . S
C826 C828 1.395 . S
C826 C829 1.403 . S
H827 C833 0.930 . S
C828 H814 0.930 . S
C828 C826 1.395 . S
C828 C831 1.403 . S
C829 C826 1.403 . S
C829 C830 1.524 . S
C829 C833 1.400 . S
C830 H815 0.960 . S
C830 H816 0.960 . S
C830 H817 0.960 . S
C830 C829 1.524 . S
C831 C828 1.403 . S
C831 C832 1.392 . S
C831 C835 1.495 . S
C832 C831 1.392 . S
C832 C833 1.385 . S
C832 C834 1.478 . S
C833 H827 0.930 . S
C833 C829 1.400 . S
C833 C832 1.385 . S
C834 C832 1.478 . S
C834 C836 1.381 . S
C834 C840 1.383 . S
C835 C831 1.495 . S
C835 H841 0.959 . S
C835 H842 0.961 . S
C835 H843 0.960 . S
C836 C834 1.381 . S
C836 C837 1.394 . S
C836 H844 0.930 . S
C837 C836 1.394 . S
C837 C838 1.383 . S
C837 H845 0.929 . S
C838 C837 1.383 . S
C838 C839 1.377 . S
C839 H823 0.930 . S
C839 C838 1.377 . S
C839 C840 1.379 . S
C840 H824 0.931 . S
C840 C834 1.383 . S
C840 C839 1.379 . S
H841 C835 0.959 . S
H842 C835 0.961 . S
H843 C835 0.960 . S
H844 C836 0.930 . S
H845 C837 0.929 . S
H846 C854 0.929 . S
H847 C856 0.930 . S
H848 C858 0.930 . S
H849 C861 0.929 . S
H850 C864 0.930 . S
H851 C866 0.960 . S
H852 C866 0.960 . S
H853 C866 0.960 . S
C854 H846 0.929 . S
C854 C855 1.377 . S
C854 C856 1.384 . S
C855 C854 1.377 . S
C855 C861 1.390 . S
C856 H847 0.930 . S
C856 C854 1.384 . S
C856 C857 1.372 . S
C857 C856 1.372 . S
C857 C858 1.400 . S
C857 C862 1.490 . S
C858 H848 0.930 . S
C858 C857 1.400 . S
C858 C861 1.386 . S
H859 C875 0.930 . S
H860 C876 0.931 . S
C861 H849 0.929 . S
C861 C855 1.390 . S
C861 C858 1.386 . S
C862 C857 1.490 . S
C862 C864 1.395 . S
C862 C865 1.403 . S
H863 C869 0.930 . S
C864 H850 0.930 . S
C864 C862 1.395 . S
C864 C867 1.403 1_565 S
C865 C862 1.403 . S
C865 C866 1.524 . S
C865 C869 1.400 1_565 S
C866 H851 0.960 . S
C866 H852 0.960 . S
C866 H853 0.960 . S
C866 C865 1.524 . S
C867 C864 1.403 1_545 S
C867 C868 1.392 . S
C867 C871 1.495 . S
C868 C867 1.392 . S
C868 C869 1.385 . S
C868 C870 1.478 . S
C869 H863 0.930 . S
C869 C865 1.400 1_545 S
C869 C868 1.385 . S
C870 C868 1.478 . S
C870 C872 1.381 . S
C870 C876 1.383 . S
C871 C867 1.495 . S
C871 H877 0.959 . S
C871 H878 0.961 . S
C871 H879 0.960 . S
C872 C870 1.381 . S
C872 C873 1.394 . S
C872 H880 0.930 . S
C873 C872 1.394 . S
C873 C874 1.383 . S
C873 H881 0.929 . S
C874 C873 1.383 . S
C874 C875 1.377 . S
C875 H859 0.930 . S
C875 C874 1.377 . S
C875 C876 1.379 . S
C876 H860 0.931 . S
C876 C870 1.383 . S
C876 C875 1.379 . S
H877 C871 0.959 . S
H878 C871 0.961 . S
H879 C871 0.960 . S
H880 C872 0.930 . S
H881 C873 0.929 . S
H882 C890 0.929 . S
H883 C892 0.930 . S
H884 C894 0.930 . S
H885 C897 0.929 . S
H886 C900 0.930 . S
H887 C902 0.960 1_655 S
H888 C902 0.960 . S
H889 C902 0.960 . S
C890 H882 0.929 . S
C890 C891 1.377 . S
C890 C892 1.384 . S
C891 C890 1.377 . S
C891 C897 1.390 . S
C892 H883 0.930 . S
C892 C890 1.384 . S
C892 C893 1.372 . S
C893 C892 1.372 . S
C893 C894 1.400 . S
C893 C898 1.490 . S
C894 H884 0.930 . S
C894 C893 1.400 . S
C894 C897 1.386 . S
H895 C911 0.930 . S
H896 C912 0.931 . S
C897 H885 0.929 . S
C897 C891 1.390 . S
C897 C894 1.386 . S
C898 C893 1.490 . S
C898 C900 1.395 . S
C898 C901 1.403 . S
H899 C905 0.930 . S
C900 H886 0.930 . S
C900 C898 1.395 . S
C900 C903 1.403 1_455 S
C901 C898 1.403 . S
C901 C902 1.524 . S
C901 C905 1.400 1_455 S
C902 H887 0.960 1_455 S
C902 H888 0.960 . S
C902 H889 0.960 . S
C902 C901 1.524 . S
C903 C900 1.403 1_655 S
C903 C904 1.392 . S
C903 C907 1.495 . S
C904 C903 1.392 . S
C904 C905 1.385 . S
C904 C906 1.478 . S
C905 H899 0.930 . S
C905 C901 1.400 1_655 S
C905 C904 1.385 . S
C906 C904 1.478 . S
C906 C908 1.381 . S
C906 C912 1.383 . S
C907 C903 1.495 . S
C907 H913 0.959 1_655 S
C907 H914 0.961 . S
C907 H915 0.960 . S
C908 C906 1.381 . S
C908 C909 1.394 . S
C908 H916 0.930 . S
C909 C908 1.394 . S
C909 C910 1.383 . S
C909 H917 0.929 . S
C910 C909 1.383 . S
C910 C911 1.377 . S
C911 H895 0.930 . S
C911 C910 1.377 . S
C911 C912 1.379 . S
C912 H896 0.931 . S
C912 C906 1.383 . S
C912 C911 1.379 . S
H913 C907 0.959 1_455 S
H914 C907 0.961 . S
H915 C907 0.960 . S
H916 C908 0.930 . S
H917 C909 0.929 . S
H918 C926 0.929 . S
H919 C928 0.930 . S
H920 C930 0.930 . S
H921 C933 0.929 . S
H922 C936 0.930 . S
H923 C938 0.960 . S
H924 C938 0.960 . S
H925 C938 0.960 . S
C926 H918 0.929 . S
C926 C927 1.377 . S
C926 C928 1.384 . S
C927 C926 1.377 . S
C927 C933 1.390 . S
C928 H919 0.930 . S
C928 C926 1.384 . S
C928 C929 1.372 . S
C929 C928 1.372 . S
C929 C930 1.400 . S
C929 C934 1.490 . S
C930 H920 0.930 . S
C930 C929 1.400 . S
C930 C933 1.386 . S
H931 C947 0.930 . S
H932 C948 0.931 . S
C933 H921 0.929 . S
C933 C927 1.390 . S
C933 C930 1.386 . S
C934 C929 1.490 . S
C934 C936 1.395 . S
C934 C937 1.403 . S
H935 C941 0.930 . S
C936 H922 0.930 . S
C936 C934 1.395 . S
C936 C939 1.403 . S
C937 C934 1.403 . S
C937 C938 1.524 . S
C937 C941 1.400 . S
C938 H923 0.960 . S
C938 H924 0.960 . S
C938 H925 0.960 . S
C938 C937 1.524 . S
C939 C936 1.403 . S
C939 C940 1.392 . S
C939 C943 1.495 . S
C940 C939 1.392 . S
C940 C941 1.385 . S
C940 C942 1.478 . S
C941 H935 0.930 . S
C941 C937 1.400 . S
C941 C940 1.385 . S
C942 C940 1.478 . S
C942 C944 1.381 . S
C942 C948 1.383 . S
C943 C939 1.495 . S
C943 H949 0.959 . S
C943 H950 0.961 . S
C943 H951 0.960 . S
C944 C942 1.381 . S
C944 C945 1.394 . S
C944 H952 0.930 . S
C945 C944 1.394 . S
C945 C946 1.383 . S
C945 H953 0.929 . S
C946 C945 1.383 . S
C946 C947 1.377 . S
C947 H931 0.930 . S
C947 C946 1.377 . S
C947 C948 1.379 . S
C948 H932 0.931 . S
C948 C942 1.383 . S
C948 C947 1.379 . S
H949 C943 0.959 . S
H950 C943 0.961 . S
H951 C943 0.960 . S
H952 C944 0.930 . S
H953 C945 0.929 . S
H954 C962 0.929 . S
H955 C964 0.930 . S
H956 C966 0.930 . S
H957 C969 0.929 . S
H958 C972 0.930 . S
H959 C974 0.960 . S
H960 C974 0.960 . S
H961 C974 0.960 . S
C962 H954 0.929 . S
C962 C963 1.377 . S
C962 C964 1.384 . S
C963 C962 1.377 . S
C963 C969 1.390 . S
C964 H955 0.930 . S
C964 C962 1.384 . S
C964 C965 1.372 . S
C965 C964 1.372 . S
C965 C966 1.400 . S
C965 C970 1.490 . S
C966 H956 0.930 . S
C966 C965 1.400 . S
C966 C969 1.386 . S
H967 C983 0.930 . S
H968 C984 0.931 . S
C969 H957 0.929 . S
C969 C963 1.390 . S
C969 C966 1.386 . S
C970 C965 1.490 . S
C970 C972 1.395 . S
C970 C973 1.403 . S
H971 C977 0.930 . S
C972 H958 0.930 . S
C972 C970 1.395 . S
C972 C975 1.403 . S
C973 C970 1.403 . S
C973 C974 1.524 . S
C973 C977 1.400 . S
C974 H959 0.960 . S
C974 H960 0.960 . S
C974 H961 0.960 . S
C974 C973 1.524 . S
C975 C972 1.403 . S
C975 C976 1.392 . S
C975 C979 1.495 . S
C976 C975 1.392 . S
C976 C977 1.385 . S
C976 C978 1.478 . S
C977 H971 0.930 . S
C977 C973 1.400 . S
C977 C976 1.385 . S
C978 C976 1.478 . S
C978 C980 1.381 . S
C978 C984 1.383 . S
C979 C975 1.495 . S
C979 H985 0.959 . S
C979 H986 0.961 . S
C979 H987 0.960 . S
C980 C978 1.381 . S
C980 C981 1.394 . S
C980 H988 0.930 . S
C981 C980 1.394 . S
C981 C982 1.383 . S
C981 H989 0.929 . S
C982 C981 1.383 . S
C982 C983 1.377 . S
C983 H967 0.930 . S
C983 C982 1.377 . S
C983 C984 1.379 . S
C984 H968 0.931 . S
C984 C978 1.383 . S
C984 C983 1.379 . S
H985 C979 0.959 . S
H986 C979 0.961 . S
H987 C979 0.960 . S
H988 C980 0.930 . S
H989 C981 0.929 . S
H990 C998 0.929 . S
H991 C1000 0.930 . S
H992 C1002 0.930 . S
H993 C1005 0.929 . S
H994 C1008 0.930 . S
H995 C1010 0.960 . S
H996 C1010 0.960 . S
H997 C1010 0.960 . S
C998 H990 0.929 . S
C998 C999 1.377 . S
C998 C1000 1.384 . S
C999 C998 1.377 . S
C999 C1005 1.390 . S
C1000 H991 0.930 . S
C1000 C998 1.384 . S
C1000 C1001 1.372 . S
C1001 C1000 1.372 . S
C1001 C1002 1.400 . S
C1001 C1006 1.490 . S
C1002 H992 0.930 . S
C1002 C1001 1.400 . S
C1002 C1005 1.386 . S
H1003 C1019 0.930 . S
H1004 C1020 0.931 . S
C1005 H993 0.929 . S
C1005 C999 1.390 . S
C1005 C1002 1.386 . S
C1006 C1001 1.490 . S
C1006 C1008 1.395 . S
C1006 C1009 1.403 . S
H1007 C1013 0.930 . S
C1008 H994 0.930 . S
C1008 C1006 1.395 . S
C1008 C1011 1.403 . S
C1009 C1006 1.403 . S
C1009 C1010 1.524 . S
C1009 C1013 1.400 . S
C1010 H995 0.960 . S
C1010 H996 0.960 . S
C1010 H997 0.960 . S
C1010 C1009 1.524 . S
C1011 C1008 1.403 . S
C1011 C1012 1.392 . S
C1011 C1015 1.495 . S
C1012 C1011 1.392 . S
C1012 C1013 1.385 . S
C1012 C1014 1.478 . S
C1013 H1007 0.930 . S
C1013 C1009 1.400 . S
C1013 C1012 1.385 . S
C1014 C1012 1.478 . S
C1014 C1016 1.381 . S
C1014 C1020 1.383 . S
C1015 C1011 1.495 . S
C1015 H1021 0.959 . S
C1015 H1022 0.961 . S
C1015 H1023 0.960 . S
C1016 C1014 1.381 . S
C1016 C1017 1.394 . S
C1016 H1024 0.930 . S
C1017 C1016 1.394 . S
C1017 C1018 1.383 . S
C1017 H1025 0.929 . S
C1018 C1017 1.383 . S
C1018 C1019 1.377 . S
C1019 H1003 0.930 . S
C1019 C1018 1.377 . S
C1019 C1020 1.379 . S
C1020 H1004 0.931 . S
C1020 C1014 1.383 . S
C1020 C1019 1.379 . S
H1021 C1015 0.959 . S
H1022 C1015 0.961 . S
H1023 C1015 0.960 . S
H1024 C1016 0.930 . S
H1025 C1017 0.929 . S
H1026 C1034 0.929 . S
H1027 C1036 0.930 . S
H1028 C1038 0.930 . S
H1029 C1041 0.929 . S
H1030 C1044 0.930 . S
H1031 C1046 0.960 . S
H1032 C1046 0.960 . S
H1033 C1046 0.960 . S
C1034 H1026 0.929 . S
C1034 C1035 1.377 . S
C1034 C1036 1.384 . S
C1035 C1034 1.377 . S
C1035 C1041 1.390 . S
C1036 H1027 0.930 . S
C1036 C1034 1.384 . S
C1036 C1037 1.372 . S
C1037 C1036 1.372 . S
C1037 C1038 1.400 . S
C1037 C1042 1.490 . S
C1038 H1028 0.930 . S
C1038 C1037 1.400 . S
C1038 C1041 1.386 . S
H1039 C1055 0.930 . S
H1040 C1056 0.931 . S
C1041 H1029 0.929 . S
C1041 C1035 1.390 . S
C1041 C1038 1.386 . S
C1042 C1037 1.490 . S
C1042 C1044 1.395 . S
C1042 C1045 1.403 . S
H1043 C1049 0.930 . S
C1044 H1030 0.930 . S
C1044 C1042 1.395 . S
C1044 C1047 1.403 . S
C1045 C1042 1.403 . S
C1045 C1046 1.524 . S
C1045 C1049 1.400 . S
C1046 H1031 0.960 . S
C1046 H1032 0.960 . S
C1046 H1033 0.960 . S
C1046 C1045 1.524 . S
C1047 C1044 1.403 . S
C1047 C1048 1.392 . S
C1047 C1051 1.495 . S
C1048 C1047 1.392 . S
C1048 C1049 1.385 . S
C1048 C1050 1.478 . S
C1049 H1043 0.930 . S
C1049 C1045 1.400 . S
C1049 C1048 1.385 . S
C1050 C1048 1.478 . S
C1050 C1052 1.381 . S
C1050 C1056 1.383 . S
C1051 C1047 1.495 . S
C1051 H1057 0.959 . S
C1051 H1058 0.961 . S
C1051 H1059 0.960 . S
C1052 C1050 1.381 . S
C1052 C1053 1.394 . S
C1052 H1060 0.930 . S
C1053 C1052 1.394 . S
C1053 C1054 1.383 . S
C1053 H1061 0.929 . S
C1054 C1053 1.383 . S
C1054 C1055 1.377 . S
C1055 H1039 0.930 . S
C1055 C1054 1.377 . S
C1055 C1056 1.379 . S
C1056 H1040 0.931 . S
C1056 C1050 1.383 . S
C1056 C1055 1.379 . S
H1057 C1051 0.959 . S
H1058 C1051 0.961 . S
H1059 C1051 0.960 . S
H1060 C1052 0.930 . S
H1061 C1053 0.929 . S
H1062 C1070 0.929 . S
H1063 C1072 0.930 . S
H1064 C1074 0.930 . S
H1065 C1077 0.929 . S
H1066 C1080 0.930 . S
H1067 C1082 0.960 . S
H1068 C1082 0.960 . S
H1069 C1082 0.960 . S
C1070 H1062 0.929 . S
C1070 C1071 1.377 . S
C1070 C1072 1.384 . S
C1071 C1070 1.377 . S
C1071 C1077 1.390 . S
C1072 H1063 0.930 . S
C1072 C1070 1.384 . S
C1072 C1073 1.372 . S
C1073 C1072 1.372 . S
C1073 C1074 1.400 . S
C1073 C1078 1.490 . S
C1074 H1064 0.930 . S
C1074 C1073 1.400 . S
C1074 C1077 1.386 . S
H1075 C1091 0.930 . S
H1076 C1092 0.931 . S
C1077 H1065 0.929 . S
C1077 C1071 1.390 . S
C1077 C1074 1.386 . S
C1078 C1073 1.490 . S
C1078 C1080 1.395 . S
C1078 C1081 1.403 . S
H1079 C1085 0.930 . S
C1080 H1066 0.930 . S
C1080 C1078 1.395 . S
C1080 C1083 1.403 . S
C1081 C1078 1.403 . S
C1081 C1082 1.524 . S
C1081 C1085 1.400 . S
C1082 H1067 0.960 . S
C1082 H1068 0.960 . S
C1082 H1069 0.960 . S
C1082 C1081 1.524 . S
C1083 C1080 1.403 . S
C1083 C1084 1.392 . S
C1083 C1087 1.495 . S
C1084 C1083 1.392 . S
C1084 C1085 1.385 . S
C1084 C1086 1.478 . S
C1085 H1079 0.930 . S
C1085 C1081 1.400 . S
C1085 C1084 1.385 . S
C1086 C1084 1.478 . S
C1086 C1088 1.381 . S
C1086 C1092 1.383 . S
C1087 C1083 1.495 . S
C1087 H1093 0.959 . S
C1087 H1094 0.961 . S
C1087 H1095 0.960 . S
C1088 C1086 1.381 . S
C1088 C1089 1.394 . S
C1088 H1096 0.930 . S
C1089 C1088 1.394 . S
C1089 C1090 1.383 . S
C1089 H1097 0.929 . S
C1090 C1089 1.383 . S
C1090 C1091 1.377 . S
C1091 H1075 0.930 . S
C1091 C1090 1.377 . S
C1091 C1092 1.379 . S
C1092 H1076 0.931 . S
C1092 C1086 1.383 . S
C1092 C1091 1.379 . S
H1093 C1087 0.959 . S
H1094 C1087 0.961 . S
H1095 C1087 0.960 . S
H1096 C1088 0.930 . S
H1097 C1089 0.929 . S
H1098 C1106 0.929 . S
H1099 C1108 0.930 . S
H1100 C1110 0.930 . S
H1101 C1113 0.929 . S
H1102 C1116 0.930 . S
H1103 C1118 0.960 . S
H1104 C1118 0.960 . S
H1105 C1118 0.960 . S
C1106 H1098 0.929 . S
C1106 C1107 1.377 . S
C1106 C1108 1.384 . S
C1107 C1106 1.377 . S
C1107 C1113 1.390 . S
C1108 H1099 0.930 . S
C1108 C1106 1.384 . S
C1108 C1109 1.372 . S
C1109 C1108 1.372 . S
C1109 C1110 1.400 . S
C1109 C1114 1.490 . S
C1110 H1100 0.930 . S
C1110 C1109 1.400 . S
C1110 C1113 1.386 . S
H1111 C1127 0.930 . S
H1112 C1128 0.931 . S
C1113 H1101 0.929 . S
C1113 C1107 1.390 . S
C1113 C1110 1.386 . S
C1114 C1109 1.490 . S
C1114 C1116 1.395 . S
C1114 C1117 1.403 . S
H1115 C1121 0.930 . S
C1116 H1102 0.930 . S
C1116 C1114 1.395 . S
C1116 C1119 1.403 . S
C1117 C1114 1.403 . S
C1117 C1118 1.524 . S
C1117 C1121 1.400 . S
C1118 H1103 0.960 . S
C1118 H1104 0.960 . S
C1118 H1105 0.960 . S
C1118 C1117 1.524 . S
C1119 C1116 1.403 . S
C1119 C1120 1.392 . S
C1119 C1123 1.495 . S
C1120 C1119 1.392 . S
C1120 C1121 1.385 . S
C1120 C1122 1.478 . S
C1121 H1115 0.930 . S
C1121 C1117 1.400 . S
C1121 C1120 1.385 . S
C1122 C1120 1.478 . S
C1122 C1124 1.381 . S
C1122 C1128 1.383 . S
C1123 C1119 1.495 . S
C1123 H1129 0.959 . S
C1123 H1130 0.961 . S
C1123 H1131 0.960 . S
C1124 C1122 1.381 . S
C1124 C1125 1.394 . S
C1124 H1132 0.930 . S
C1125 C1124 1.394 . S
C1125 C1126 1.383 . S
C1125 H1133 0.929 . S
C1126 C1125 1.383 . S
C1126 C1127 1.377 . S
C1127 H1111 0.930 . S
C1127 C1126 1.377 . S
C1127 C1128 1.379 . S
C1128 H1112 0.931 . S
C1128 C1122 1.383 . S
C1128 C1127 1.379 . S
H1129 C1123 0.959 . S
H1130 C1123 0.961 . S
H1131 C1123 0.960 . S
H1132 C1124 0.930 . S
H1133 C1125 0.929 . S
H1134 C1142 0.929 . S
H1135 C1144 0.930 . S
H1136 C1146 0.930 . S
H1137 C1149 0.929 . S
H1138 C1152 0.930 . S
H1139 C1154 0.960 1_556 S
H1140 C1154 0.951 1_556 S
H1141 C1154 0.960 . S
C1142 H1134 0.929 . S
C1142 C1143 1.377 . S
C1142 C1144 1.384 . S
C1143 C1142 1.377 . S
C1143 C1149 1.390 . S
C1144 H1135 0.930 . S
C1144 C1142 1.384 . S
C1144 C1145 1.372 . S
C1145 C1144 1.372 . S
C1145 C1146 1.400 . S
C1145 C1150 1.490 . S
C1146 H1136 0.930 . S
C1146 C1145 1.400 . S
C1146 C1149 1.386 . S
H1147 C1163 0.930 . S
H1148 C1164 0.931 . S
C1149 H1137 0.929 . S
C1149 C1143 1.390 . S
C1149 C1146 1.386 . S
C1150 C1145 1.490 . S
C1150 C1152 1.395 . S
C1150 C1153 1.403 . S
H1151 C1157 0.930 . S
C1152 H1138 0.930 . S
C1152 C1150 1.395 . S
C1152 C1155 1.403 1_654 S
C1153 C1150 1.403 . S
C1153 C1154 1.524 . S
C1153 C1157 1.400 1_654 S
C1154 H1139 0.960 1_554 S
C1154 H1140 0.951 1_554 S
C1154 H1141 0.960 . S
C1154 C1153 1.524 . S
C1155 C1152 1.403 1_456 S
C1155 C1156 1.392 . S
C1155 C1159 1.495 . S
C1156 C1155 1.392 . S
C1156 C1157 1.385 . S
C1156 C1158 1.478 . S
C1157 H1151 0.930 . S
C1157 C1153 1.400 1_456 S
C1157 C1156 1.385 . S
C1158 C1156 1.478 . S
C1158 C1160 1.381 . S
C1158 C1164 1.383 . S
C1159 C1155 1.495 . S
C1159 H1165 0.959 . S
C1159 H1166 0.961 . S
C1159 H1167 0.960 . S
C1160 C1158 1.381 . S
C1160 C1161 1.394 . S
C1160 H1168 0.930 . S
C1161 C1160 1.394 . S
C1161 C1162 1.383 . S
C1161 H1169 0.929 . S
C1162 C1161 1.383 . S
C1162 C1163 1.377 . S
C1163 H1147 0.930 . S
C1163 C1162 1.377 . S
C1163 C1164 1.379 . S
C1164 H1148 0.931 . S
C1164 C1158 1.383 . S
C1164 C1163 1.379 . S
H1165 C1159 0.959 . S
H1166 C1159 0.961 . S
H1167 C1159 0.960 . S
H1168 C1160 0.930 . S
H1169 C1161 0.929 . S
H1170 C1178 0.929 . S
H1171 C1180 0.930 . S
H1172 C1182 0.930 . S
H1173 C1185 0.929 . S
H1174 C1188 0.930 . S
H1175 C1190 0.960 . S
H1176 C1190 0.960 . S
H1177 C1190 0.960 1_556 S
C1178 H1170 0.929 . S
C1178 C1179 1.377 . S
C1178 C1180 1.384 . S
C1179 C1178 1.377 . S
C1179 C1185 1.390 . S
C1180 H1171 0.930 . S
C1180 C1178 1.384 . S
C1180 C1181 1.372 . S
C1181 C1180 1.372 . S
C1181 C1182 1.400 . S
C1181 C1186 1.490 . S
C1182 H1172 0.930 . S
C1182 C1181 1.400 . S
C1182 C1185 1.386 . S
H1183 C1199 0.930 . S
H1184 C1200 0.931 . S
C1185 H1173 0.929 . S
C1185 C1179 1.390 . S
C1185 C1182 1.386 . S
C1186 C1181 1.490 . S
C1186 C1188 1.395 . S
C1186 C1189 1.395 1_556 S
H1187 C1193 0.930 . S
C1188 H1174 0.930 . S
C1188 C1186 1.395 . S
C1188 C1191 1.398 1_556 S
C1189 C1186 1.395 1_554 S
C1189 C1190 1.525 . S
C1189 C1193 1.407 . S
C1190 H1175 0.960 . S
C1190 H1176 0.960 . S
C1190 H1177 0.960 1_554 S
C1190 C1189 1.525 . S
C1191 C1188 1.398 1_554 S
C1191 C1192 1.397 . S
C1191 C1195 1.495 1_554 S
C1192 C1191 1.397 . S
C1192 C1193 1.385 . S
C1192 C1194 1.478 . S
C1193 H1187 0.930 . S
C1193 C1189 1.407 . S
C1193 C1192 1.385 . S
C1194 C1192 1.478 . S
C1194 C1196 1.381 . S
C1194 C1200 1.383 . S
C1195 C1191 1.495 1_556 S
C1195 H1201 0.972 . S
C1195 H1202 0.970 . S
C1195 H1203 0.938 1_556 S
C1196 C1194 1.381 . S
C1196 C1197 1.394 . S
C1196 H1204 0.930 . S
C1197 C1196 1.394 . S
C1197 C1198 1.383 . S
C1197 H1205 0.929 . S
C1198 C1197 1.383 . S
C1198 C1199 1.377 . S
C1199 H1183 0.930 . S
C1199 C1198 1.377 . S
C1199 C1200 1.379 . S
C1200 H1184 0.931 . S
C1200 C1194 1.383 . S
C1200 C1199 1.379 . S
H1201 C1195 0.972 . S
H1202 C1195 0.970 . S
H1203 C1195 0.938 1_554 S
H1204 C1196 0.930 . S
H1205 C1197 0.929 . S
H1206 C1214 0.929 . S
H1207 C1216 0.930 . S
H1208 C1218 0.930 . S
H1209 C1221 0.929 . S
H1210 C1224 0.930 . S
H1211 C1226 0.960 . S
H1212 C1226 0.960 . S
H1213 C1226 0.960 1_545 S
C1214 H1206 0.929 . S
C1214 C1215 1.377 . S
C1214 C1216 1.384 . S
C1215 C1214 1.377 . S
C1215 C1221 1.390 . S
C1216 H1207 0.930 . S
C1216 C1214 1.384 . S
C1216 C1217 1.372 . S
C1217 C1216 1.372 . S
C1217 C1218 1.400 . S
C1217 C1222 1.490 . S
C1218 H1208 0.930 . S
C1218 C1217 1.400 . S
C1218 C1221 1.386 . S
H1219 C1235 0.930 . S
H1220 C1236 0.931 . S
C1221 H1209 0.929 . S
C1221 C1215 1.390 . S
C1221 C1218 1.386 . S
C1222 C1217 1.490 . S
C1222 C1224 1.395 1_554 S
C1222 C1225 1.403 1_545 S
H1223 C1229 0.930 . S
C1224 H1210 0.930 . S
C1224 C1222 1.395 1_556 S
C1224 C1227 1.403 . S
C1225 C1222 1.403 1_565 S
C1225 C1226 1.524 . S
C1225 C1229 1.400 . S
C1226 H1211 0.960 . S
C1226 H1212 0.960 . S
C1226 H1213 0.960 1_565 S
C1226 C1225 1.524 . S
C1227 C1224 1.403 . S
C1227 C1228 1.392 1_545 S
C1227 C1231 1.495 . S
C1228 C1227 1.392 1_565 S
C1228 C1229 1.385 1_556 S
C1228 C1230 1.478 . S
C1229 H1223 0.930 . S
C1229 C1225 1.400 . S
C1229 C1228 1.385 1_554 S
C1230 C1228 1.478 . S
C1230 C1232 1.381 . S
C1230 C1236 1.383 . S
C1231 C1227 1.495 . S
C1231 H1237 0.959 . S
C1231 H1238 0.961 . S
C1231 H1239 0.960 1_545 S
C1232 C1230 1.381 . S
C1232 C1233 1.394 . S
C1232 H1240 0.930 . S
C1233 C1232 1.394 . S
C1233 C1234 1.383 . S
C1233 H1241 0.929 . S
C1234 C1233 1.383 . S
C1234 C1235 1.377 . S
C1235 H1219 0.930 . S
C1235 C1234 1.377 . S
C1235 C1236 1.379 . S
C1236 H1220 0.931 . S
C1236 C1230 1.383 . S
C1236 C1235 1.379 . S
H1237 C1231 0.959 . S
H1238 C1231 0.961 . S
H1239 C1231 0.960 1_565 S
H1240 C1232 0.930 . S
H1241 C1233 0.929 . S
H1242 C1250 0.929 . S
H1243 C1252 0.930 1_655 S
H1244 C1254 0.930 . S
H1245 C1257 0.929 . S
H1246 C1260 0.930 . S
H1247 C1262 0.960 1_556 S
H1248 C1262 0.960 . S
H1249 C1262 0.960 . S
C1250 H1242 0.929 . S
C1250 C1251 1.377 . S
C1250 C1252 1.384 . S
C1251 C1250 1.377 . S
C1251 C1257 1.390 . S
C1252 H1243 0.930 1_455 S
C1252 C1250 1.384 . S
C1252 C1253 1.372 . S
C1253 C1252 1.372 . S
C1253 C1254 1.400 . S
C1253 C1258 1.490 . S
C1254 H1244 0.930 . S
C1254 C1253 1.400 . S
C1254 C1257 1.386 . S
H1255 C1271 0.930 . S
H1256 C1272 0.931 1_455 S
C1257 H1245 0.929 . S
C1257 C1251 1.390 . S
C1257 C1254 1.386 . S
C1258 C1253 1.490 . S
C1258 C1260 1.395 1_455 S
C1258 C1261 1.403 . S
H1259 C1265 0.930 . S
C1260 H1246 0.930 . S
C1260 C1258 1.395 1_655 S
C1260 C1263 1.403 1_554 S
C1261 C1258 1.403 . S
C1261 C1262 1.524 . S
C1261 C1265 1.400 1_554 S
C1262 H1247 0.960 1_554 S
C1262 H1248 0.960 . S
C1262 H1249 0.960 . S
C1262 C1261 1.524 . S
C1263 C1260 1.403 1_556 S
C1263 C1264 1.392 . S
C1263 C1267 1.495 . S
C1264 C1263 1.392 . S
C1264 C1265 1.385 1_655 S
C1264 C1266 1.478 . S
C1265 H1259 0.930 . S
C1265 C1261 1.400 1_556 S
C1265 C1264 1.385 1_455 S
C1266 C1264 1.478 . S
C1266 C1268 1.381 . S
C1266 C1272 1.383 . S
C1267 C1263 1.495 . S
C1267 H1273 0.959 1_556 S
C1267 H1274 0.961 . S
C1267 H1275 0.960 . S
C1268 C1266 1.381 . S
C1268 C1269 1.394 . S
C1268 H1276 0.930 . S
C1269 C1268 1.394 . S
C1269 C1270 1.383 . S
C1269 H1277 0.929 . S
C1270 C1269 1.383 . S
C1270 C1271 1.377 . S
C1271 H1255 0.930 . S
C1271 C1270 1.377 . S
C1271 C1272 1.379 . S
C1272 H1256 0.931 1_655 S
C1272 C1266 1.383 . S
C1272 C1271 1.379 . S
H1273 C1267 0.959 1_554 S
H1274 C1267 0.961 . S
H1275 C1267 0.960 . S
H1276 C1268 0.930 . S
H1277 C1269 0.929 . S
H1278 C1286 0.929 . S
H1279 C1288 0.930 . S
H1280 C1290 0.930 . S
H1281 C1293 0.929 . S
H1282 C1296 0.930 . S
H1283 C1298 0.960 . S
H1284 C1298 0.960 . S
H1285 C1298 0.960 . S
C1286 H1278 0.929 . S
C1286 C1287 1.377 . S
C1286 C1288 1.384 . S
C1287 C1286 1.377 . S
C1287 C1293 1.390 . S
C1288 H1279 0.930 . S
C1288 C1286 1.384 . S
C1288 C1289 1.372 . S
C1289 C1288 1.372 . S
C1289 C1290 1.400 . S
C1289 C1294 1.490 . S
C1290 H1280 0.930 . S
C1290 C1289 1.400 . S
C1290 C1293 1.386 . S
H1291 C1307 0.930 . S
H1292 C1308 0.931 . S
C1293 H1281 0.929 . S
C1293 C1287 1.390 . S
C1293 C1290 1.386 . S
C1294 C1289 1.490 . S
C1294 C1296 1.395 . S
C1294 C1297 1.403 . S
H1295 C1301 0.930 . S
C1296 H1282 0.930 . S
C1296 C1294 1.395 . S
C1296 C1299 1.403 1_556 S
C1297 C1294 1.403 . S
C1297 C1298 1.524 . S
C1297 C1301 1.400 1_556 S
C1298 H1283 0.960 . S
C1298 H1284 0.960 . S
C1298 H1285 0.960 . S
C1298 C1297 1.524 . S
C1299 C1296 1.403 1_554 S
C1299 C1300 1.392 . S
C1299 C1303 1.495 . S
C1300 C1299 1.392 . S
C1300 C1301 1.385 . S
C1300 C1302 1.478 . S
C1301 H1295 0.930 . S
C1301 C1297 1.400 1_554 S
C1301 C1300 1.385 . S
C1302 C1300 1.478 . S
C1302 C1304 1.381 . S
C1302 C1308 1.383 . S
C1303 C1299 1.495 . S
C1303 H1309 0.959 . S
C1303 H1310 0.961 . S
C1303 H1311 0.960 . S
C1304 C1302 1.381 . S
C1304 C1305 1.394 . S
C1304 H1312 0.930 . S
C1305 C1304 1.394 . S
C1305 C1306 1.383 . S
C1305 H1313 0.929 . S
C1306 C1305 1.383 . S
C1306 C1307 1.377 . S
C1307 H1291 0.930 . S
C1307 C1306 1.377 . S
C1307 C1308 1.379 . S
C1308 H1292 0.931 . S
C1308 C1302 1.383 . S
C1308 C1307 1.379 . S
H1309 C1303 0.959 . S
H1310 C1303 0.961 . S
H1311 C1303 0.960 . S
H1312 C1304 0.930 . S
H1313 C1305 0.929 . S
H1314 C1322 0.909 1_565 S
H1315 C1324 0.886 1_565 S
H1316 C1326 0.930 . S
H1317 C1329 0.929 . S
H1318 C1332 0.930 . S
H1319 C1334 0.960 1_554 S
H1320 C1334 0.960 . S
H1321 C1334 0.960 . S
C1322 H1314 0.909 1_545 S
C1322 C1323 1.377 . S
C1322 C1324 1.402 . S
C1323 C1322 1.377 . S
C1323 C1329 1.390 . S
C1324 H1315 0.886 1_545 S
C1324 C1322 1.402 . S
C1324 C1325 1.400 . S
C1325 C1324 1.400 . S
C1325 C1326 1.400 . S
C1325 C1330 1.490 . S
C1326 H1316 0.930 . S
C1326 C1325 1.400 . S
C1326 C1329 1.386 . S
H1327 C1343 0.944 . S
H1328 C1344 0.931 1_545 S
C1329 H1317 0.929 . S
C1329 C1323 1.390 . S
C1329 C1326 1.386 . S
C1330 C1325 1.490 . S
C1330 C1332 1.395 1_545 S
C1330 C1333 1.403 . S
H1331 C1337 0.930 . S
C1332 H1318 0.930 . S
C1332 C1330 1.395 1_565 S
C1332 C1335 1.403 1_556 S
C1333 C1330 1.403 . S
C1333 C1334 1.524 . S
C1333 C1337 1.400 1_556 S
C1334 H1319 0.960 1_556 S
C1334 H1320 0.960 . S
C1334 H1321 0.960 . S
C1334 C1333 1.524 . S
C1335 C1332 1.403 1_554 S
C1335 C1336 1.392 . S
C1335 C1339 1.495 . S
C1336 C1335 1.392 . S
C1336 C1337 1.385 1_565 S
C1336 C1338 1.478 . S
C1337 H1331 0.930 . S
C1337 C1333 1.400 1_554 S
C1337 C1336 1.385 1_545 S
C1338 C1336 1.478 . S
C1338 C1340 1.381 . S
C1338 C1344 1.383 . S
C1339 C1335 1.495 . S
C1339 H1345 0.959 1_554 S
C1339 H1346 0.961 . S
C1339 H1347 0.960 . S
C1340 C1338 1.381 . S
C1340 C1341 1.394 . S
C1340 H1348 0.930 . S
C1341 C1340 1.394 . S
C1341 C1342 1.383 . S
C1341 H1349 0.929 . S
C1342 C1341 1.383 . S
C1342 C1343 1.377 . S
C1343 H1327 0.944 . S
C1343 C1342 1.377 . S
C1343 C1344 1.379 . S
C1344 H1328 0.931 1_565 S
C1344 C1338 1.383 . S
C1344 C1343 1.379 . S
H1345 C1339 0.959 1_556 S
H1346 C1339 0.961 . S
H1347 C1339 0.960 . S
H1348 C1340 0.930 . S
H1349 C1341 0.929 . S
H1350 C1358 0.929 . S
H1351 C1360 0.930 . S
H1352 C1362 0.930 . S
H1353 C1365 0.929 . S
H1354 C1368 0.930 . S
H1355 C1370 0.960 . S
H1356 C1370 0.960 . S
H1357 C1370 0.960 . S
C1358 H1350 0.929 . S
C1358 C1359 1.377 . S
C1358 C1360 1.384 . S
C1359 C1358 1.377 . S
C1359 C1365 1.390 . S
C1360 H1351 0.930 . S
C1360 C1358 1.384 . S
C1360 C1361 1.372 . S
C1361 C1360 1.372 . S
C1361 C1362 1.400 . S
C1361 C1366 1.490 . S
C1362 H1352 0.930 . S
C1362 C1361 1.400 . S
C1362 C1365 1.386 . S
H1363 C1379 0.930 . S
H1364 C1380 0.931 . S
C1365 H1353 0.929 . S
C1365 C1359 1.390 . S
C1365 C1362 1.386 . S
C1366 C1361 1.490 . S
C1366 C1368 1.395 . S
C1366 C1369 1.403 . S
H1367 C1373 0.930 . S
C1368 H1354 0.930 . S
C1368 C1366 1.395 . S
C1368 C1371 1.403 . S
C1369 C1366 1.403 . S
C1369 C1370 1.524 . S
C1369 C1373 1.400 . S
C1370 H1355 0.960 . S
C1370 H1356 0.960 . S
C1370 H1357 0.960 . S
C1370 C1369 1.524 . S
C1371 C1368 1.403 . S
C1371 C1372 1.392 . S
C1371 C1375 1.495 . S
C1372 C1371 1.392 . S
C1372 C1373 1.385 . S
C1372 C1374 1.478 . S
C1373 H1367 0.930 . S
C1373 C1369 1.400 . S
C1373 C1372 1.385 . S
C1374 C1372 1.478 . S
C1374 C1376 1.381 . S
C1374 C1380 1.383 . S
C1375 C1371 1.495 . S
C1375 H1381 0.959 . S
C1375 H1382 0.961 . S
C1375 H1383 0.960 . S
C1376 C1374 1.381 . S
C1376 C1377 1.394 . S
C1376 H1384 0.930 . S
C1377 C1376 1.394 . S
C1377 C1378 1.383 . S
C1377 H1385 0.929 . S
C1378 C1377 1.383 . S
C1378 C1379 1.377 . S
C1379 H1363 0.930 . S
C1379 C1378 1.377 . S
C1379 C1380 1.379 . S
C1380 H1364 0.931 . S
C1380 C1374 1.383 . S
C1380 C1379 1.379 . S
H1381 C1375 0.959 . S
H1382 C1375 0.961 . S
H1383 C1375 0.960 . S
H1384 C1376 0.930 . S
H1385 C1377 0.929 . S
H1386 C1394 0.929 . S
H1387 C1396 0.930 . S
H1388 C1398 0.930 . S
H1389 C1401 0.929 . S
H1390 C1404 0.930 . S
H1391 C1406 0.960 . S
H1392 C1406 0.960 . S
H1393 C1406 0.960 . S
C1394 H1386 0.929 . S
C1394 C1395 1.377 . S
C1394 C1396 1.384 . S
C1395 C1394 1.377 . S
C1395 C1401 1.390 . S
C1396 H1387 0.930 . S
C1396 C1394 1.384 . S
C1396 C1397 1.372 . S
C1397 C1396 1.372 . S
C1397 C1398 1.400 . S
C1397 C1402 1.490 . S
C1398 H1388 0.930 . S
C1398 C1397 1.400 . S
C1398 C1401 1.386 . S
H1399 C1415 0.930 . S
H1400 C1416 0.931 . S
C1401 H1389 0.929 . S
C1401 C1395 1.390 . S
C1401 C1398 1.386 . S
C1402 C1397 1.490 . S
C1402 C1404 1.395 . S
C1402 C1405 1.403 . S
H1403 C1409 0.930 . S
C1404 H1390 0.930 . S
C1404 C1402 1.395 . S
C1404 C1407 1.403 . S
C1405 C1402 1.403 . S
C1405 C1406 1.524 . S
C1405 C1409 1.400 . S
C1406 H1391 0.960 . S
C1406 H1392 0.960 . S
C1406 H1393 0.960 . S
C1406 C1405 1.524 . S
C1407 C1404 1.403 . S
C1407 C1408 1.392 . S
C1407 C1411 1.495 . S
C1408 C1407 1.392 . S
C1408 C1409 1.385 . S
C1408 C1410 1.478 . S
C1409 H1403 0.930 . S
C1409 C1405 1.400 . S
C1409 C1408 1.385 . S
C1410 C1408 1.478 . S
C1410 C1412 1.381 . S
C1410 C1416 1.383 . S
C1411 C1407 1.495 . S
C1411 H1417 0.959 . S
C1411 H1418 0.961 . S
C1411 H1419 0.960 . S
C1412 C1410 1.381 . S
C1412 C1413 1.394 . S
C1412 H1420 0.930 . S
C1413 C1412 1.394 . S
C1413 C1414 1.383 . S
C1413 H1421 0.929 . S
C1414 C1413 1.383 . S
C1414 C1415 1.377 . S
C1415 H1399 0.930 . S
C1415 C1414 1.377 . S
C1415 C1416 1.379 . S
C1416 H1400 0.931 . S
C1416 C1410 1.383 . S
C1416 C1415 1.379 . S
H1417 C1411 0.959 . S
H1418 C1411 0.961 . S
H1419 C1411 0.960 . S
H1420 C1412 0.930 . S
H1421 C1413 0.929 . S
H1422 C1430 0.929 . S
H1423 C1432 0.930 . S
H1424 C1434 0.930 . S
H1425 C1437 0.929 . S
H1426 C1440 0.930 . S
H1427 C1442 0.960 . S
H1428 C1442 0.960 . S
H1429 C1442 0.960 . S
C1430 H1422 0.929 . S
C1430 C1431 1.377 . S
C1430 C1432 1.384 . S
C1431 C1430 1.377 . S
C1431 C1437 1.390 . S
C1432 H1423 0.930 . S
C1432 C1430 1.384 . S
C1432 C1433 1.372 . S
C1433 C1432 1.372 . S
C1433 C1434 1.400 . S
C1433 C1438 1.490 . S
C1434 H1424 0.930 . S
C1434 C1433 1.400 . S
C1434 C1437 1.386 . S
H1435 C1451 0.930 . S
H1436 C1452 0.931 . S
C1437 H1425 0.929 . S
C1437 C1431 1.390 . S
C1437 C1434 1.386 . S
C1438 C1433 1.490 . S
C1438 C1440 1.395 . S
C1438 C1441 1.403 . S
H1439 C1445 0.930 . S
C1440 H1426 0.930 . S
C1440 C1438 1.395 . S
C1440 C1443 1.403 . S
C1441 C1438 1.403 . S
C1441 C1442 1.524 . S
C1441 C1445 1.400 . S
C1442 H1427 0.960 . S
C1442 H1428 0.960 . S
C1442 H1429 0.960 . S
C1442 C1441 1.524 . S
C1443 C1440 1.403 . S
C1443 C1444 1.392 . S
C1443 C1447 1.495 . S
C1444 C1443 1.392 . S
C1444 C1445 1.385 . S
C1444 C1446 1.478 . S
C1445 H1439 0.930 . S
C1445 C1441 1.400 . S
C1445 C1444 1.385 . S
C1446 C1444 1.478 . S
C1446 C1448 1.381 . S
C1446 C1452 1.383 . S
C1447 C1443 1.495 . S
C1447 H1453 0.959 . S
C1447 H1454 0.961 . S
C1447 H1455 0.960 . S
C1448 C1446 1.381 . S
C1448 C1449 1.394 . S
C1448 H1456 0.930 . S
C1449 C1448 1.394 . S
C1449 C1450 1.383 . S
C1449 H1457 0.929 . S
C1450 C1449 1.383 . S
C1450 C1451 1.377 . S
C1451 H1435 0.930 . S
C1451 C1450 1.377 . S
C1451 C1452 1.379 . S
C1452 H1436 0.931 . S
C1452 C1446 1.383 . S
C1452 C1451 1.379 . S
H1453 C1447 0.959 . S
H1454 C1447 0.961 . S
H1455 C1447 0.960 . S
H1456 C1448 0.930 . S
H1457 C1449 0.929 . S
H1458 C1466 0.929 . S
H1459 C1468 0.930 . S
H1460 C1470 0.930 . S
H1461 C1473 0.929 . S
H1462 C1476 0.930 . S
H1463 C1478 0.960 . S
H1464 C1478 0.960 . S
H1465 C1478 0.960 . S
C1466 H1458 0.929 . S
C1466 C1467 1.377 . S
C1466 C1468 1.384 . S
C1467 C1466 1.377 . S
C1467 C1473 1.390 . S
C1468 H1459 0.930 . S
C1468 C1466 1.384 . S
C1468 C1469 1.372 . S
C1469 C1468 1.372 . S
C1469 C1470 1.400 . S
C1469 C1474 1.490 . S
C1470 H1460 0.930 . S
C1470 C1469 1.400 . S
C1470 C1473 1.386 . S
H1471 C1487 0.930 . S
H1472 C1488 0.931 . S
C1473 H1461 0.929 . S
C1473 C1467 1.390 . S
C1473 C1470 1.386 . S
C1474 C1469 1.490 . S
C1474 C1476 1.395 . S
C1474 C1477 1.403 . S
H1475 C1481 0.930 . S
C1476 H1462 0.930 . S
C1476 C1474 1.395 . S
C1476 C1479 1.403 . S
C1477 C1474 1.403 . S
C1477 C1478 1.524 . S
C1477 C1481 1.400 . S
C1478 H1463 0.960 . S
C1478 H1464 0.960 . S
C1478 H1465 0.960 . S
C1478 C1477 1.524 . S
C1479 C1476 1.403 . S
C1479 C1480 1.392 . S
C1479 C1483 1.495 . S
C1480 C1479 1.392 . S
C1480 C1481 1.385 . S
C1480 C1482 1.478 . S
C1481 H1475 0.930 . S
C1481 C1477 1.400 . S
C1481 C1480 1.385 . S
C1482 C1480 1.478 . S
C1482 C1484 1.381 . S
C1482 C1488 1.383 . S
C1483 C1479 1.495 . S
C1483 H1489 0.959 . S
C1483 H1490 0.961 . S
C1483 H1491 0.960 . S
C1484 C1482 1.381 . S
C1484 C1485 1.394 . S
C1484 H1492 0.930 . S
C1485 C1484 1.394 . S
C1485 C1486 1.383 . S
C1485 H1493 0.929 . S
C1486 C1485 1.383 . S
C1486 C1487 1.377 . S
C1487 H1471 0.930 . S
C1487 C1486 1.377 . S
C1487 C1488 1.379 . S
C1488 H1472 0.931 . S
C1488 C1482 1.383 . S
C1488 C1487 1.379 . S
H1489 C1483 0.959 . S
H1490 C1483 0.961 . S
H1491 C1483 0.960 . S
H1492 C1484 0.930 . S
H1493 C1485 0.929 . S
H1494 C1502 0.929 . S
H1495 C1504 0.930 . S
H1496 C1506 0.930 . S
H1497 C1509 0.929 . S
H1498 C1512 0.930 . S
H1499 C1514 0.960 . S
H1500 C1514 0.960 . S
H1501 C1514 0.960 . S
C1502 H1494 0.929 . S
C1502 C1503 1.377 . S
C1502 C1504 1.384 . S
C1503 C1502 1.377 . S
C1503 C1509 1.390 . S
C1504 H1495 0.930 . S
C1504 C1502 1.384 . S
C1504 C1505 1.372 . S
C1505 C1504 1.372 . S
C1505 C1506 1.400 . S
C1505 C1510 1.490 . S
C1506 H1496 0.930 . S
C1506 C1505 1.400 . S
C1506 C1509 1.386 . S
H1507 C1523 0.930 . S
H1508 C1524 0.931 . S
C1509 H1497 0.929 . S
C1509 C1503 1.390 . S
C1509 C1506 1.386 . S
C1510 C1505 1.490 . S
C1510 C1512 1.395 . S
C1510 C1513 1.403 . S
H1511 C1517 0.930 . S
C1512 H1498 0.930 . S
C1512 C1510 1.395 . S
C1512 C1515 1.403 . S
C1513 C1510 1.403 . S
C1513 C1514 1.524 . S
C1513 C1517 1.400 . S
C1514 H1499 0.960 . S
C1514 H1500 0.960 . S
C1514 H1501 0.960 . S
C1514 C1513 1.524 . S
C1515 C1512 1.403 . S
C1515 C1516 1.392 . S
C1515 C1519 1.495 . S
C1516 C1515 1.392 . S
C1516 C1517 1.385 . S
C1516 C1518 1.478 . S
C1517 H1511 0.930 . S
C1517 C1513 1.400 . S
C1517 C1516 1.385 . S
C1518 C1516 1.478 . S
C1518 C1520 1.381 . S
C1518 C1524 1.383 . S
C1519 C1515 1.495 . S
C1519 H1525 0.959 . S
C1519 H1526 0.961 . S
C1519 H1527 0.960 . S
C1520 C1518 1.381 . S
C1520 C1521 1.394 . S
C1520 H1528 0.930 . S
C1521 C1520 1.394 . S
C1521 C1522 1.383 . S
C1521 H1529 0.929 . S
C1522 C1521 1.383 . S
C1522 C1523 1.377 . S
C1523 H1507 0.930 . S
C1523 C1522 1.377 . S
C1523 C1524 1.379 . S
C1524 H1508 0.931 . S
C1524 C1518 1.383 . S
C1524 C1523 1.379 . S
H1525 C1519 0.959 . S
H1526 C1519 0.961 . S
H1527 C1519 0.960 . S
H1528 C1520 0.930 . S
H1529 C1521 0.929 . S
H1530 C1538 0.929 . S
H1531 C1540 0.930 . S
H1532 C1542 0.930 . S
H1533 C1545 0.929 . S
H1534 C1548 0.930 . S
H1535 C1550 0.960 . S
H1536 C1550 0.960 . S
H1537 C1550 0.960 . S
C1538 H1530 0.929 . S
C1538 C1539 1.377 . S
C1538 C1540 1.384 . S
C1539 C1538 1.377 . S
C1539 C1545 1.390 . S
C1540 H1531 0.930 . S
C1540 C1538 1.384 . S
C1540 C1541 1.372 . S
C1541 C1540 1.372 . S
C1541 C1542 1.400 . S
C1541 C1546 1.490 . S
C1542 H1532 0.930 . S
C1542 C1541 1.400 . S
C1542 C1545 1.386 . S
H1543 C1559 0.930 . S
H1544 C1560 0.931 . S
C1545 H1533 0.929 . S
C1545 C1539 1.390 . S
C1545 C1542 1.386 . S
C1546 C1541 1.490 . S
C1546 C1548 1.395 . S
C1546 C1549 1.403 . S
H1547 C1553 0.930 . S
C1548 H1534 0.930 . S
C1548 C1546 1.395 . S
C1548 C1551 1.403 . S
C1549 C1546 1.403 . S
C1549 C1550 1.524 . S
C1549 C1553 1.400 . S
C1550 H1535 0.960 . S
C1550 H1536 0.960 . S
C1550 H1537 0.960 . S
C1550 C1549 1.524 . S
C1551 C1548 1.403 . S
C1551 C1552 1.392 . S
C1551 C1555 1.495 . S
C1552 C1551 1.392 . S
C1552 C1553 1.385 . S
C1552 C1554 1.478 . S
C1553 H1547 0.930 . S
C1553 C1549 1.400 . S
C1553 C1552 1.385 . S
C1554 C1552 1.478 . S
C1554 C1556 1.381 . S
C1554 C1560 1.383 . S
C1555 C1551 1.495 . S
C1555 H1561 0.959 . S
C1555 H1562 0.961 . S
C1555 H1563 0.960 . S
C1556 C1554 1.381 . S
C1556 C1557 1.394 . S
C1556 H1564 0.930 . S
C1557 C1556 1.394 . S
C1557 C1558 1.383 . S
C1557 H1565 0.929 . S
C1558 C1557 1.383 . S
C1558 C1559 1.377 . S
C1559 H1543 0.930 . S
C1559 C1558 1.377 . S
C1559 C1560 1.379 . S
C1560 H1544 0.931 . S
C1560 C1554 1.383 . S
C1560 C1559 1.379 . S
H1561 C1555 0.959 . S
H1562 C1555 0.961 . S
H1563 C1555 0.960 . S
H1564 C1556 0.930 . S
H1565 C1557 0.929 . S
H1566 C1574 0.929 . S
H1567 C1576 0.930 . S
H1568 C1578 0.930 . S
H1569 C1581 0.929 . S
H1570 C1584 0.930 . S
H1571 C1586 0.960 . S
H1572 C1586 0.960 . S
H1573 C1586 0.960 . S
C1574 H1566 0.929 . S
C1574 C1575 1.377 . S
C1574 C1576 1.384 . S
C1575 C1574 1.377 . S
C1575 C1581 1.390 . S
C1576 H1567 0.930 . S
C1576 C1574 1.384 . S
C1576 C1577 1.372 . S
C1577 C1576 1.372 . S
C1577 C1578 1.400 . S
C1577 C1582 1.490 . S
C1578 H1568 0.930 . S
C1578 C1577 1.400 . S
C1578 C1581 1.386 . S
H1579 C1595 0.930 . S
H1580 C1596 0.931 . S
C1581 H1569 0.929 . S
C1581 C1575 1.390 . S
C1581 C1578 1.386 . S
C1582 C1577 1.490 . S
C1582 C1584 1.395 . S
C1582 C1585 1.403 . S
H1583 C1589 0.930 . S
C1584 H1570 0.930 . S
C1584 C1582 1.395 . S
C1584 C1587 1.403 . S
C1585 C1582 1.403 . S
C1585 C1586 1.524 . S
C1585 C1589 1.400 . S
C1586 H1571 0.960 . S
C1586 H1572 0.960 . S
C1586 H1573 0.960 . S
C1586 C1585 1.524 . S
C1587 C1584 1.403 . S
C1587 C1588 1.392 . S
C1587 C1591 1.495 . S
C1588 C1587 1.392 . S
C1588 C1589 1.385 . S
C1588 C1590 1.478 . S
C1589 H1583 0.930 . S
C1589 C1585 1.400 . S
C1589 C1588 1.385 . S
C1590 C1588 1.478 . S
C1590 C1592 1.381 . S
C1590 C1596 1.383 . S
C1591 C1587 1.495 . S
C1591 H1597 0.959 . S
C1591 H1598 0.961 . S
C1591 H1599 0.960 . S
C1592 C1590 1.381 . S
C1592 C1593 1.394 . S
C1592 H1600 0.930 . S
C1593 C1592 1.394 . S
C1593 C1594 1.383 . S
C1593 H1601 0.929 . S
C1594 C1593 1.383 . S
C1594 C1595 1.377 . S
C1595 H1579 0.930 . S
C1595 C1594 1.377 . S
C1595 C1596 1.379 . S
C1596 H1580 0.931 . S
C1596 C1590 1.383 . S
C1596 C1595 1.379 . S
H1597 C1591 0.959 . S
H1598 C1591 0.961 . S
H1599 C1591 0.960 . S
H1600 C1592 0.930 . S
H1601 C1593 0.929 . S
H1602 C1610 0.929 . S
H1603 C1612 0.930 . S
H1604 C1614 0.930 . S
H1605 C1617 0.929 . S
H1606 C1620 0.930 . S
H1607 C1622 0.960 . S
H1608 C1622 0.960 . S
H1609 C1622 0.960 . S
C1610 H1602 0.929 . S
C1610 C1611 1.377 . S
C1610 C1612 1.384 . S
C1611 C1610 1.377 . S
C1611 C1617 1.390 . S
C1612 H1603 0.930 . S
C1612 C1610 1.384 . S
C1612 C1613 1.372 . S
C1613 C1612 1.372 . S
C1613 C1614 1.400 . S
C1613 C1618 1.490 . S
C1614 H1604 0.930 . S
C1614 C1613 1.400 . S
C1614 C1617 1.386 . S
H1615 C1631 0.930 . S
H1616 C1632 0.931 . S
C1617 H1605 0.929 . S
C1617 C1611 1.390 . S
C1617 C1614 1.386 . S
C1618 C1613 1.490 . S
C1618 C1620 1.395 . S
C1618 C1621 1.403 . S
H1619 C1625 0.930 . S
C1620 H1606 0.930 . S
C1620 C1618 1.395 . S
C1620 C1623 1.403 . S
C1621 C1618 1.403 . S
C1621 C1622 1.524 . S
C1621 C1625 1.400 . S
C1622 H1607 0.960 . S
C1622 H1608 0.960 . S
C1622 H1609 0.960 . S
C1622 C1621 1.524 . S
C1623 C1620 1.403 . S
C1623 C1624 1.392 1_545 S
C1623 C1627 1.495 1_545 S
C1624 C1623 1.392 1_565 S
C1624 C1625 1.385 1_565 S
C1624 C1626 1.478 . S
C1625 H1619 0.930 . S
C1625 C1621 1.400 . S
C1625 C1624 1.385 1_545 S
C1626 C1624 1.478 . S
C1626 C1628 1.381 . S
C1626 C1632 1.383 . S
C1627 C1623 1.495 1_565 S
C1627 H1633 0.959 1_565 S
C1627 H1634 0.961 . S
C1627 H1635 0.960 . S
C1628 C1626 1.381 . S
C1628 C1629 1.394 . S
C1628 H1636 0.930 . S
C1629 C1628 1.394 . S
C1629 C1630 1.383 . S
C1629 H1637 0.929 . S
C1630 C1629 1.383 . S
C1630 C1631 1.377 . S
C1631 H1615 0.930 . S
C1631 C1630 1.377 . S
C1631 C1632 1.379 . S
C1632 H1616 0.931 . S
C1632 C1626 1.383 . S
C1632 C1631 1.379 . S
H1633 C1627 0.959 1_545 S
H1634 C1627 0.961 . S
H1635 C1627 0.960 . S
H1636 C1628 0.930 . S
H1637 C1629 0.929 . S
H1638 C1646 0.929 . S
H1639 C1648 0.930 . S
H1640 C1650 0.930 . S
H1641 C1653 0.929 . S
H1642 C1656 0.930 . S
H1643 C1658 0.960 . S
H1644 C1658 0.960 . S
H1645 C1658 0.960 . S
C1646 H1638 0.929 . S
C1646 C1647 1.377 . S
C1646 C1648 1.384 . S
C1647 C1646 1.377 . S
C1647 C1653 1.390 . S
C1648 H1639 0.930 . S
C1648 C1646 1.384 . S
C1648 C1649 1.372 . S
C1649 C1648 1.372 . S
C1649 C1650 1.400 . S
C1649 C1654 1.490 . S
C1650 H1640 0.930 . S
C1650 C1649 1.400 . S
C1650 C1653 1.386 . S
H1651 C1667 0.930 . S
H1652 C1668 0.931 . S
C1653 H1641 0.929 . S
C1653 C1647 1.390 . S
C1653 C1650 1.386 . S
C1654 C1649 1.490 . S
C1654 C1656 1.395 . S
C1654 C1657 1.403 . S
H1655 C1661 0.930 . S
C1656 H1642 0.930 . S
C1656 C1654 1.395 . S
C1656 C1659 1.403 . S
C1657 C1654 1.403 . S
C1657 C1658 1.524 . S
C1657 C1661 1.400 . S
C1658 H1643 0.960 . S
C1658 H1644 0.960 . S
C1658 H1645 0.960 . S
C1658 C1657 1.524 . S
C1659 C1656 1.403 . S
C1659 C1660 1.351 1_655 S
C1659 C1663 1.495 1_655 S
C1660 C1659 1.351 1_455 S
C1660 C1661 1.381 1_455 S
C1660 C1662 1.525 . S
C1661 H1655 0.930 . S
C1661 C1657 1.400 . S
C1661 C1660 1.381 1_655 S
C1662 C1660 1.525 . S
C1662 C1664 1.381 . S
C1662 C1668 1.383 . S
C1663 C1659 1.495 1_455 S
C1663 H1669 0.959 1_455 S
C1663 H1670 0.961 . S
C1663 H1671 0.960 . S
C1664 C1662 1.381 . S
C1664 C1665 1.394 . S
C1664 H1672 0.930 . S
C1665 C1664 1.394 . S
C1665 C1666 1.383 . S
C1665 H1673 0.929 . S
C1666 C1665 1.383 . S
C1666 C1667 1.377 . S
C1667 H1651 0.930 . S
C1667 C1666 1.377 . S
C1667 C1668 1.379 . S
C1668 H1652 0.931 . S
C1668 C1662 1.383 . S
C1668 C1667 1.379 . S
H1669 C1663 0.959 1_655 S
H1670 C1663 0.961 . S
H1671 C1663 0.960 . S
H1672 C1664 0.930 . S
H1673 C1665 0.929 . S
H1674 C1682 0.929 . S
H1675 C1684 0.930 . S
H1676 C1686 0.930 . S
H1677 C1689 0.929 . S
H1678 C1692 0.930 . S
H1679 C1694 0.960 . S
H1680 C1694 0.960 . S
H1681 C1694 0.960 . S
C1682 H1674 0.929 . S
C1682 C1683 1.377 . S
C1682 C1684 1.384 . S
C1683 C1682 1.377 . S
C1683 C1689 1.390 . S
C1684 H1675 0.930 . S
C1684 C1682 1.384 . S
C1684 C1685 1.372 . S
C1685 C1684 1.372 . S
C1685 C1686 1.400 . S
C1685 C1690 1.490 . S
C1686 H1676 0.930 . S
C1686 C1685 1.400 . S
C1686 C1689 1.386 . S
H1687 C1703 0.930 . S
H1688 C1704 0.931 . S
C1689 H1677 0.929 . S
C1689 C1683 1.390 . S
C1689 C1686 1.386 . S
C1690 C1685 1.490 . S
C1690 C1692 1.395 . S
C1690 C1693 1.403 . S
H1691 C1697 0.930 . S
C1692 H1678 0.930 . S
C1692 C1690 1.395 . S
C1692 C1695 1.403 . S
C1693 C1690 1.403 . S
C1693 C1694 1.524 . S
C1693 C1697 1.400 . S
C1694 H1679 0.960 . S
C1694 H1680 0.960 . S
C1694 H1681 0.960 . S
C1694 C1693 1.524 . S
C1695 C1692 1.403 . S
C1695 C1696 1.392 . S
C1695 C1699 1.495 . S
C1696 C1695 1.392 . S
C1696 C1697 1.385 . S
C1696 C1698 1.478 . S
C1697 H1691 0.930 . S
C1697 C1693 1.400 . S
C1697 C1696 1.385 . S
C1698 C1696 1.478 . S
C1698 C1700 1.381 . S
C1698 C1704 1.383 . S
C1699 C1695 1.495 . S
C1699 H1705 0.959 . S
C1699 H1706 0.961 . S
C1699 H1707 0.960 . S
C1700 C1698 1.381 . S
C1700 C1701 1.394 . S
C1700 H1708 0.930 . S
C1701 C1700 1.394 . S
C1701 C1702 1.383 . S
C1701 H1709 0.929 . S
C1702 C1701 1.383 . S
C1702 C1703 1.377 . S
C1703 H1687 0.930 . S
C1703 C1702 1.377 . S
C1703 C1704 1.379 . S
C1704 H1688 0.931 . S
C1704 C1698 1.383 . S
C1704 C1703 1.379 . S
H1705 C1699 0.959 . S
H1706 C1699 0.961 . S
H1707 C1699 0.960 . S
H1708 C1700 0.930 . S
H1709 C1701 0.929 . S
H1710 C1718 0.929 . S
H1711 C1720 0.930 . S
H1712 C1722 0.930 . S
H1713 C1725 0.929 . S
H1714 C1728 0.912 1_545 S
H1715 C1730 0.960 . S
H1716 C1730 0.954 1_545 S
H1717 C1730 0.960 1_545 S
C1718 H1710 0.929 . S
C1718 C1719 1.377 . S
C1718 C1720 1.384 . S
C1719 C1718 1.377 . S
C1719 C1725 1.390 . S
C1720 H1711 0.930 . S
C1720 C1718 1.384 . S
C1720 C1721 1.372 . S
C1721 C1720 1.372 . S
C1721 C1722 1.400 . S
C1721 C1726 1.485 1_545 S
C1722 H1712 0.930 . S
C1722 C1721 1.400 . S
C1722 C1725 1.386 . S
H1723 C1739 0.930 . S
H1724 C1740 0.931 . S
C1725 H1713 0.929 . S
C1725 C1719 1.390 . S
C1725 C1722 1.386 . S
C1726 C1721 1.485 1_565 S
C1726 C1728 1.397 . S
C1726 C1729 1.405 . S
H1727 C1733 0.930 . S
C1728 H1714 0.912 1_565 S
C1728 C1726 1.397 . S
C1728 C1731 1.403 . S
C1729 C1726 1.405 . S
C1729 C1730 1.524 . S
C1729 C1733 1.400 . S
C1730 H1715 0.960 . S
C1730 H1716 0.954 1_565 S
C1730 H1717 0.960 1_565 S
C1730 C1729 1.524 . S
C1731 C1728 1.403 . S
C1731 C1732 1.392 . S
C1731 C1735 1.495 . S
C1732 C1731 1.392 . S
C1732 C1733 1.385 . S
C1732 C1734 1.478 . S
C1733 H1727 0.930 . S
C1733 C1729 1.400 . S
C1733 C1732 1.385 . S
C1734 C1732 1.478 . S
C1734 C1736 1.381 . S
C1734 C1740 1.383 . S
C1735 C1731 1.495 . S
C1735 H1741 0.959 . S
C1735 H1742 0.961 . S
C1735 H1743 0.960 . S
C1736 C1734 1.381 . S
C1736 C1737 1.394 . S
C1736 H1744 0.930 . S
C1737 C1736 1.394 . S
C1737 C1738 1.383 . S
C1737 H1745 0.929 . S
C1738 C1737 1.383 . S
C1738 C1739 1.377 . S
C1739 H1723 0.930 . S
C1739 C1738 1.377 . S
C1739 C1740 1.379 . S
C1740 H1724 0.931 . S
C1740 C1734 1.383 . S
C1740 C1739 1.379 . S
H1741 C1735 0.959 . S
H1742 C1735 0.961 . S
H1743 C1735 0.960 . S
H1744 C1736 0.930 . S
H1745 C1737 0.929 . S
H1746 C1754 0.929 . S
H1747 C1756 0.930 . S
H1748 C1758 0.930 . S
H1749 C1761 0.929 . S
H1750 C1764 0.930 . S
H1751 C1766 0.960 . S
H1752 C1766 0.960 . S
H1753 C1766 0.960 . S
C1754 H1746 0.929 . S
C1754 C1755 1.377 . S
C1754 C1756 1.384 . S
C1755 C1754 1.377 . S
C1755 C1761 1.390 . S
C1756 H1747 0.930 . S
C1756 C1754 1.384 . S
C1756 C1757 1.372 . S
C1757 C1756 1.372 . S
C1757 C1758 1.400 . S
C1757 C1762 1.490 . S
C1758 H1748 0.930 . S
C1758 C1757 1.400 . S
C1758 C1761 1.386 . S
H1759 C1775 0.930 . S
H1760 C1776 0.931 . S
C1761 H1749 0.929 . S
C1761 C1755 1.390 . S
C1761 C1758 1.386 . S
C1762 C1757 1.490 . S
C1762 C1764 1.395 . S
C1762 C1765 1.403 . S
H1763 C1769 0.930 . S
C1764 H1750 0.930 . S
C1764 C1762 1.395 . S
C1764 C1767 1.403 . S
C1765 C1762 1.403 . S
C1765 C1766 1.524 . S
C1765 C1769 1.400 . S
C1766 H1751 0.960 . S
C1766 H1752 0.960 . S
C1766 H1753 0.960 . S
C1766 C1765 1.524 . S
C1767 C1764 1.403 . S
C1767 C1768 1.391 1_455 S
C1767 C1771 1.495 1_455 S
C1768 C1767 1.391 1_655 S
C1768 C1769 1.353 1_655 S
C1768 C1770 1.512 . S
C1769 H1763 0.930 . S
C1769 C1765 1.400 . S
C1769 C1768 1.353 1_455 S
C1770 C1768 1.512 . S
C1770 C1772 1.381 . S
C1770 C1776 1.383 . S
C1771 C1767 1.495 1_655 S
C1771 H1777 0.959 1_655 S
C1771 H1778 0.961 . S
C1771 H1779 0.960 . S
C1772 C1770 1.381 . S
C1772 C1773 1.394 . S
C1772 H1780 0.930 . S
C1773 C1772 1.394 . S
C1773 C1774 1.383 . S
C1773 H1781 0.929 . S
C1774 C1773 1.383 . S
C1774 C1775 1.377 . S
C1775 H1759 0.930 . S
C1775 C1774 1.377 . S
C1775 C1776 1.379 . S
C1776 H1760 0.931 . S
C1776 C1770 1.383 . S
C1776 C1775 1.379 . S
H1777 C1771 0.959 1_455 S
H1778 C1771 0.961 . S
H1779 C1771 0.960 . S
H1780 C1772 0.930 . S
H1781 C1773 0.929 . S
H1782 C1790 0.929 . S
H1783 C1792 0.930 . S
H1784 C1794 0.930 . S
H1785 C1797 0.929 . S
H1786 C1800 0.930 . S
H1787 C1802 0.960 . S
H1788 C1802 0.960 . S
H1789 C1802 0.960 . S
C1790 H1782 0.929 . S
C1790 C1791 1.377 . S
C1790 C1792 1.384 . S
C1791 C1790 1.377 . S
C1791 C1797 1.390 . S
C1792 H1783 0.930 . S
C1792 C1790 1.384 . S
C1792 C1793 1.372 . S
C1793 C1792 1.372 . S
C1793 C1794 1.400 . S
C1793 C1798 1.490 . S
C1794 H1784 0.930 . S
C1794 C1793 1.400 . S
C1794 C1797 1.386 . S
H1795 C1811 0.930 . S
H1796 C1812 0.931 . S
C1797 H1785 0.929 . S
C1797 C1791 1.390 . S
C1797 C1794 1.386 . S
C1798 C1793 1.490 . S
C1798 C1800 1.395 . S
C1798 C1801 1.403 . S
H1799 C1805 0.930 . S
C1800 H1786 0.930 . S
C1800 C1798 1.395 . S
C1800 C1803 1.403 . S
C1801 C1798 1.403 . S
C1801 C1802 1.524 . S
C1801 C1805 1.400 . S
C1802 H1787 0.960 . S
C1802 H1788 0.960 . S
C1802 H1789 0.960 . S
C1802 C1801 1.524 . S
C1803 C1800 1.403 . S
C1803 C1804 1.392 . S
C1803 C1807 1.495 . S
C1804 C1803 1.392 . S
C1804 C1805 1.385 . S
C1804 C1806 1.478 . S
C1805 H1799 0.930 . S
C1805 C1801 1.400 . S
C1805 C1804 1.385 . S
C1806 C1804 1.478 . S
C1806 C1808 1.381 . S
C1806 C1812 1.383 . S
C1807 C1803 1.495 . S
C1807 H1813 0.959 . S
C1807 H1814 0.961 . S
C1807 H1815 0.960 . S
C1808 C1806 1.381 . S
C1808 C1809 1.394 . S
C1808 H1816 0.930 . S
C1809 C1808 1.394 . S
C1809 C1810 1.383 . S
C1809 H1817 0.929 . S
C1810 C1809 1.383 . S
C1810 C1811 1.377 . S
C1811 H1795 0.930 . S
C1811 C1810 1.377 . S
C1811 C1812 1.379 . S
C1812 H1796 0.931 . S
C1812 C1806 1.383 . S
C1812 C1811 1.379 . S
H1813 C1807 0.959 . S
H1814 C1807 0.961 . S
H1815 C1807 0.960 . S
H1816 C1808 0.930 . S
H1817 C1809 0.929 . S
H1818 C1826 0.929 . S
H1819 C1828 0.930 . S
H1820 C1830 0.930 . S
H1821 C1833 0.929 . S
H1822 C1836 0.930 . S
H1823 C1838 0.960 . S
H1824 C1838 0.960 . S
H1825 C1838 0.960 . S
C1826 H1818 0.929 . S
C1826 C1827 1.377 . S
C1826 C1828 1.384 . S
C1827 C1826 1.377 . S
C1827 C1833 1.390 . S
C1828 H1819 0.930 . S
C1828 C1826 1.384 . S
C1828 C1829 1.372 . S
C1829 C1828 1.372 . S
C1829 C1830 1.400 . S
C1829 C1834 1.490 . S
C1830 H1820 0.930 . S
C1830 C1829 1.400 . S
C1830 C1833 1.386 . S
H1831 C1847 0.930 . S
H1832 C1848 0.931 . S
C1833 H1821 0.929 . S
C1833 C1827 1.390 . S
C1833 C1830 1.386 . S
C1834 C1829 1.490 . S
C1834 C1836 1.395 . S
C1834 C1837 1.403 . S
H1835 C1841 0.930 . S
C1836 H1822 0.930 . S
C1836 C1834 1.395 . S
C1836 C1839 1.403 . S
C1837 C1834 1.403 . S
C1837 C1838 1.524 . S
C1837 C1841 1.400 . S
C1838 H1823 0.960 . S
C1838 H1824 0.960 . S
C1838 H1825 0.960 . S
C1838 C1837 1.524 . S
C1839 C1836 1.403 . S
C1839 C1840 1.392 . S
C1839 C1843 1.495 . S
C1840 C1839 1.392 . S
C1840 C1841 1.385 . S
C1840 C1842 1.478 . S
C1841 H1835 0.930 . S
C1841 C1837 1.400 . S
C1841 C1840 1.385 . S
C1842 C1840 1.478 . S
C1842 C1844 1.381 . S
C1842 C1848 1.383 . S
C1843 C1839 1.495 . S
C1843 H1849 0.959 . S
C1843 H1850 0.961 . S
C1843 H1851 0.960 . S
C1844 C1842 1.381 . S
C1844 C1845 1.394 . S
C1844 H1852 0.930 . S
C1845 C1844 1.394 . S
C1845 C1846 1.383 . S
C1845 H1853 0.929 . S
C1846 C1845 1.383 . S
C1846 C1847 1.377 . S
C1847 H1831 0.930 . S
C1847 C1846 1.377 . S
C1847 C1848 1.379 . S
C1848 H1832 0.931 . S
C1848 C1842 1.383 . S
C1848 C1847 1.379 . S
H1849 C1843 0.959 . S
H1850 C1843 0.961 . S
H1851 C1843 0.960 . S
H1852 C1844 0.930 . S
H1853 C1845 0.929 . S
H1854 C1862 0.929 . S
H1855 C1864 0.930 . S
H1856 C1866 0.930 . S
H1857 C1869 0.929 . S
H1858 C1872 0.930 . S
H1859 C1874 0.960 . S
H1860 C1874 0.960 . S
H1861 C1874 0.960 . S
C1862 H1854 0.929 . S
C1862 C1863 1.377 . S
C1862 C1864 1.384 . S
C1863 C1862 1.377 . S
C1863 C1869 1.390 . S
C1864 H1855 0.930 . S
C1864 C1862 1.384 . S
C1864 C1865 1.372 . S
C1865 C1864 1.372 . S
C1865 C1866 1.400 . S
C1865 C1870 1.490 . S
C1866 H1856 0.930 . S
C1866 C1865 1.400 . S
C1866 C1869 1.386 . S
H1867 C1883 0.930 . S
H1868 C1884 0.931 . S
C1869 H1857 0.929 . S
C1869 C1863 1.390 . S
C1869 C1866 1.386 . S
C1870 C1865 1.490 . S
C1870 C1872 1.395 . S
C1870 C1873 1.403 . S
H1871 C1877 0.930 . S
C1872 H1858 0.930 . S
C1872 C1870 1.395 . S
C1872 C1875 1.403 . S
C1873 C1870 1.403 . S
C1873 C1874 1.524 . S
C1873 C1877 1.400 . S
C1874 H1859 0.960 . S
C1874 H1860 0.960 . S
C1874 H1861 0.960 . S
C1874 C1873 1.524 . S
C1875 C1872 1.403 . S
C1875 C1876 1.392 . S
C1875 C1879 1.495 . S
C1876 C1875 1.392 . S
C1876 C1877 1.385 . S
C1876 C1878 1.478 . S
C1877 H1871 0.930 . S
C1877 C1873 1.400 . S
C1877 C1876 1.385 . S
C1878 C1876 1.478 . S
C1878 C1880 1.381 . S
C1878 C1884 1.383 . S
C1879 C1875 1.495 . S
C1879 H1885 0.959 . S
C1879 H1886 0.961 . S
C1879 H1887 0.960 . S
C1880 C1878 1.381 . S
C1880 C1881 1.394 . S
C1880 H1888 0.930 . S
C1881 C1880 1.394 . S
C1881 C1882 1.383 . S
C1881 H1889 0.929 . S
C1882 C1881 1.383 . S
C1882 C1883 1.377 . S
C1883 H1867 0.930 . S
C1883 C1882 1.377 . S
C1883 C1884 1.379 . S
C1884 H1868 0.931 . S
C1884 C1878 1.383 . S
C1884 C1883 1.379 . S
H1885 C1879 0.959 . S
H1886 C1879 0.961 . S
H1887 C1879 0.960 . S
H1888 C1880 0.930 . S
H1889 C1881 0.929 . S
H1890 C1898 0.929 . S
H1891 C1900 0.930 . S
H1892 C1902 0.930 . S
H1893 C1905 0.929 . S
H1894 C1908 0.930 . S
H1895 C1910 0.960 . S
H1896 C1910 0.960 . S
H1897 C1910 0.960 . S
C1898 H1890 0.929 . S
C1898 C1899 1.377 . S
C1898 C1900 1.384 . S
C1899 C1898 1.377 . S
C1899 C1905 1.390 . S
C1900 H1891 0.930 . S
C1900 C1898 1.384 . S
C1900 C1901 1.372 . S
C1901 C1900 1.372 . S
C1901 C1902 1.400 . S
C1901 C1906 1.490 . S
C1902 H1892 0.930 . S
C1902 C1901 1.400 . S
C1902 C1905 1.386 . S
H1903 C1919 0.930 . S
H1904 C1920 0.931 . S
C1905 H1893 0.929 . S
C1905 C1899 1.390 . S
C1905 C1902 1.386 . S
C1906 C1901 1.490 . S
C1906 C1908 1.395 . S
C1906 C1909 1.403 . S
H1907 C1913 0.930 . S
C1908 H1894 0.930 . S
C1908 C1906 1.395 . S
C1908 C1911 1.403 . S
C1909 C1906 1.403 . S
C1909 C1910 1.524 . S
C1909 C1913 1.400 . S
C1910 H1895 0.960 . S
C1910 H1896 0.960 . S
C1910 H1897 0.960 . S
C1910 C1909 1.524 . S
C1911 C1908 1.403 . S
C1911 C1912 1.392 . S
C1911 C1915 1.495 . S
C1912 C1911 1.392 . S
C1912 C1913 1.385 . S
C1912 C1914 1.478 . S
C1913 H1907 0.930 . S
C1913 C1909 1.400 . S
C1913 C1912 1.385 . S
C1914 C1912 1.478 . S
C1914 C1916 1.381 . S
C1914 C1920 1.383 . S
C1915 C1911 1.495 . S
C1915 H1921 0.959 . S
C1915 H1922 0.961 . S
C1915 H1923 0.960 . S
C1916 C1914 1.381 . S
C1916 C1917 1.394 . S
C1916 H1924 0.930 . S
C1917 C1916 1.394 . S
C1917 C1918 1.383 . S
C1917 H1925 0.929 . S
C1918 C1917 1.383 . S
C1918 C1919 1.377 . S
C1919 H1903 0.930 . S
C1919 C1918 1.377 . S
C1919 C1920 1.379 . S
C1920 H1904 0.931 . S
C1920 C1914 1.383 . S
C1920 C1919 1.379 . S
H1921 C1915 0.959 . S
H1922 C1915 0.961 . S
H1923 C1915 0.960 . S
H1924 C1916 0.930 . S
H1925 C1917 0.929 . S
H1926 C1934 0.929 . S
H1927 C1936 0.930 . S
H1928 C1938 0.930 . S
H1929 C1941 0.929 . S
H1930 C1944 0.930 . S
H1931 C1946 0.960 . S
H1932 C1946 0.960 . S
H1933 C1946 0.960 . S
C1934 H1926 0.929 . S
C1934 C1935 1.377 . S
C1934 C1936 1.384 . S
C1935 C1934 1.377 . S
C1935 C1941 1.390 . S
C1936 H1927 0.930 . S
C1936 C1934 1.384 . S
C1936 C1937 1.372 . S
C1937 C1936 1.372 . S
C1937 C1938 1.400 . S
C1937 C1942 1.490 . S
C1938 H1928 0.930 . S
C1938 C1937 1.400 . S
C1938 C1941 1.386 . S
H1939 C1955 0.930 . S
H1940 C1956 0.931 . S
C1941 H1929 0.929 . S
C1941 C1935 1.390 . S
C1941 C1938 1.386 . S
C1942 C1937 1.490 . S
C1942 C1944 1.395 . S
C1942 C1945 1.403 . S
H1943 C1949 0.930 . S
C1944 H1930 0.930 . S
C1944 C1942 1.395 . S
C1944 C1947 1.403 . S
C1945 C1942 1.403 . S
C1945 C1946 1.524 . S
C1945 C1949 1.400 . S
C1946 H1931 0.960 . S
C1946 H1932 0.960 . S
C1946 H1933 0.960 . S
C1946 C1945 1.524 . S
C1947 C1944 1.403 . S
C1947 C1948 1.392 . S
C1947 C1951 1.495 . S
C1948 C1947 1.392 . S
C1948 C1949 1.385 . S
C1948 C1950 1.478 . S
C1949 H1943 0.930 . S
C1949 C1945 1.400 . S
C1949 C1948 1.385 . S
C1950 C1948 1.478 . S
C1950 C1952 1.381 . S
C1950 C1956 1.383 . S
C1951 C1947 1.495 . S
C1951 H1957 0.959 . S
C1951 H1958 0.961 . S
C1951 H1959 0.960 . S
C1952 C1950 1.381 . S
C1952 C1953 1.394 . S
C1952 H1960 0.930 . S
C1953 C1952 1.394 . S
C1953 C1954 1.383 . S
C1953 H1961 0.929 . S
C1954 C1953 1.383 . S
C1954 C1955 1.377 . S
C1955 H1939 0.930 . S
C1955 C1954 1.377 . S
C1955 C1956 1.379 . S
C1956 H1940 0.931 . S
C1956 C1950 1.383 . S
C1956 C1955 1.379 . S
H1957 C1951 0.959 . S
H1958 C1951 0.961 . S
H1959 C1951 0.960 . S
H1960 C1952 0.930 . S
H1961 C1953 0.929 . S
H1962 C1970 0.929 . S
H1963 C1972 0.930 . S
H1964 C1974 0.930 . S
H1965 C1977 0.929 . S
H1966 C1980 0.930 . S
H1967 C1982 0.960 . S
H1968 C1982 0.960 . S
H1969 C1982 0.960 . S
C1970 H1962 0.929 . S
C1970 C1971 1.377 . S
C1970 C1972 1.384 . S
C1971 C1970 1.377 . S
C1971 C1977 1.390 . S
C1972 H1963 0.930 . S
C1972 C1970 1.384 . S
C1972 C1973 1.372 . S
C1973 C1972 1.372 . S
C1973 C1974 1.400 . S
C1973 C1978 1.490 . S
C1974 H1964 0.930 . S
C1974 C1973 1.400 . S
C1974 C1977 1.386 . S
H1975 C1991 0.930 . S
H1976 C1992 0.931 . S
C1977 H1965 0.929 . S
C1977 C1971 1.390 . S
C1977 C1974 1.386 . S
C1978 C1973 1.490 . S
C1978 C1980 1.395 . S
C1978 C1981 1.403 . S
H1979 C1985 0.930 . S
C1980 H1966 0.930 . S
C1980 C1978 1.395 . S
C1980 C1983 1.403 . S
C1981 C1978 1.403 . S
C1981 C1982 1.524 . S
C1981 C1985 1.400 . S
C1982 H1967 0.960 . S
C1982 H1968 0.960 . S
C1982 H1969 0.960 . S
C1982 C1981 1.524 . S
C1983 C1980 1.403 . S
C1983 C1984 1.392 . S
C1983 C1987 1.495 . S
C1984 C1983 1.392 . S
C1984 C1985 1.385 . S
C1984 C1986 1.478 . S
C1985 H1979 0.930 . S
C1985 C1981 1.400 . S
C1985 C1984 1.385 . S
C1986 C1984 1.478 . S
C1986 C1988 1.381 . S
C1986 C1992 1.383 . S
C1987 C1983 1.495 . S
C1987 H1993 0.959 . S
C1987 H1994 0.961 . S
C1987 H1995 0.960 . S
C1988 C1986 1.381 . S
C1988 C1989 1.394 . S
C1988 H1996 0.930 . S
C1989 C1988 1.394 . S
C1989 C1990 1.383 . S
C1989 H1997 0.929 . S
C1990 C1989 1.383 . S
C1990 C1991 1.377 . S
C1991 H1975 0.930 . S
C1991 C1990 1.377 . S
C1991 C1992 1.379 . S
C1992 H1976 0.931 . S
C1992 C1986 1.383 . S
C1992 C1991 1.379 . S
H1993 C1987 0.959 . S
H1994 C1987 0.961 . S
H1995 C1987 0.960 . S
H1996 C1988 0.930 . S
H1997 C1989 0.929 . S
H1998 C2006 0.929 . S
H1999 C2008 0.930 . S
H2000 C2010 0.930 . S
H2001 C2013 0.929 . S
H2002 C2016 0.930 . S
H2003 C2018 0.960 . S
H2004 C2018 0.960 . S
H2005 C2018 0.960 . S
C2006 H1998 0.929 . S
C2006 C2007 1.377 . S
C2006 C2008 1.384 . S
C2007 C2006 1.377 . S
C2007 C2013 1.390 . S
C2008 H1999 0.930 . S
C2008 C2006 1.384 . S
C2008 C2009 1.372 . S
C2009 C2008 1.372 . S
C2009 C2010 1.400 . S
C2009 C2014 1.490 . S
C2010 H2000 0.930 . S
C2010 C2009 1.400 . S
C2010 C2013 1.386 . S
H2011 C2027 0.930 . S
H2012 C2028 0.931 . S
C2013 H2001 0.929 . S
C2013 C2007 1.390 . S
C2013 C2010 1.386 . S
C2014 C2009 1.490 . S
C2014 C2016 1.395 . S
C2014 C2017 1.403 . S
H2015 C2021 0.930 . S
C2016 H2002 0.930 . S
C2016 C2014 1.395 . S
C2016 C2019 1.403 . S
C2017 C2014 1.403 . S
C2017 C2018 1.524 . S
C2017 C2021 1.400 . S
C2018 H2003 0.960 . S
C2018 H2004 0.960 . S
C2018 H2005 0.960 . S
C2018 C2017 1.524 . S
C2019 C2016 1.403 . S
C2019 C2020 1.392 . S
C2019 C2023 1.495 . S
C2020 C2019 1.392 . S
C2020 C2021 1.385 . S
C2020 C2022 1.478 . S
C2021 H2015 0.930 . S
C2021 C2017 1.400 . S
C2021 C2020 1.385 . S
C2022 C2020 1.478 . S
C2022 C2024 1.381 . S
C2022 C2028 1.383 . S
C2023 C2019 1.495 . S
C2023 H2029 0.959 . S
C2023 H2030 0.961 . S
C2023 H2031 0.960 . S
C2024 C2022 1.381 . S
C2024 C2025 1.394 . S
C2024 H2032 0.930 . S
C2025 C2024 1.394 . S
C2025 C2026 1.383 . S
C2025 H2033 0.929 . S
C2026 C2025 1.383 . S
C2026 C2027 1.377 . S
C2027 H2011 0.930 . S
C2027 C2026 1.377 . S
C2027 C2028 1.379 . S
C2028 H2012 0.931 . S
C2028 C2022 1.383 . S
C2028 C2027 1.379 . S
H2029 C2023 0.959 . S
H2030 C2023 0.961 . S
H2031 C2023 0.960 . S
H2032 C2024 0.930 . S
H2033 C2025 0.929 . S
H2034 C2042 0.929 . S
H2035 C2044 0.930 . S
H2036 C2046 0.930 . S
H2037 C2049 0.929 . S
H2038 C2052 0.930 . S
H2039 C2054 0.960 . S
H2040 C2054 0.960 . S
H2041 C2054 0.960 . S
C2042 H2034 0.929 . S
C2042 C2043 1.377 . S
C2042 C2044 1.384 . S
C2043 C2042 1.377 . S
C2043 C2049 1.390 . S
C2044 H2035 0.930 . S
C2044 C2042 1.384 . S
C2044 C2045 1.372 . S
C2045 C2044 1.372 . S
C2045 C2046 1.400 . S
C2045 C2050 1.490 . S
C2046 H2036 0.930 . S
C2046 C2045 1.400 . S
C2046 C2049 1.386 . S
H2047 C2063 0.930 . S
H2048 C2064 0.931 . S
C2049 H2037 0.929 . S
C2049 C2043 1.390 . S
C2049 C2046 1.386 . S
C2050 C2045 1.490 . S
C2050 C2052 1.395 . S
C2050 C2053 1.403 . S
H2051 C2057 0.930 . S
C2052 H2038 0.930 . S
C2052 C2050 1.395 . S
C2052 C2055 1.403 . S
C2053 C2050 1.403 . S
C2053 C2054 1.524 . S
C2053 C2057 1.400 . S
C2054 H2039 0.960 . S
C2054 H2040 0.960 . S
C2054 H2041 0.960 . S
C2054 C2053 1.524 . S
C2055 C2052 1.403 . S
C2055 C2056 1.392 . S
C2055 C2059 1.495 . S
C2056 C2055 1.392 . S
C2056 C2057 1.385 . S
C2056 C2058 1.478 . S
C2057 H2051 0.930 . S
C2057 C2053 1.400 . S
C2057 C2056 1.385 . S
C2058 C2056 1.478 . S
C2058 C2060 1.381 . S
C2058 C2064 1.383 . S
C2059 C2055 1.495 . S
C2059 H2065 0.959 . S
C2059 H2066 0.961 . S
C2059 H2067 0.960 . S
C2060 C2058 1.381 . S
C2060 C2061 1.394 . S
C2060 H2068 0.930 . S
C2061 C2060 1.394 . S
C2061 C2062 1.383 . S
C2061 H2069 0.929 . S
C2062 C2061 1.383 . S
C2062 C2063 1.377 . S
C2063 H2047 0.930 . S
C2063 C2062 1.377 . S
C2063 C2064 1.379 . S
C2064 H2048 0.931 . S
C2064 C2058 1.383 . S
C2064 C2063 1.379 . S
H2065 C2059 0.959 . S
H2066 C2059 0.961 . S
H2067 C2059 0.960 . S
H2068 C2060 0.930 . S
H2069 C2061 0.929 . S
H2070 C2078 0.929 . S
H2071 C2080 0.930 . S
H2072 C2082 0.930 . S
H2073 C2085 0.929 . S
H2074 C2088 0.930 . S
H2075 C2090 0.960 . S
H2076 C2090 0.960 . S
H2077 C2090 0.960 . S
C2078 H2070 0.929 . S
C2078 C2079 1.377 . S
C2078 C2080 1.384 . S
C2079 C2078 1.377 . S
C2079 C2085 1.390 . S
C2080 H2071 0.930 . S
C2080 C2078 1.384 . S
C2080 C2081 1.372 . S
C2081 C2080 1.372 . S
C2081 C2082 1.400 . S
C2081 C2086 1.490 . S
C2082 H2072 0.930 . S
C2082 C2081 1.400 . S
C2082 C2085 1.386 . S
H2083 C2099 0.930 . S
H2084 C2100 0.931 . S
C2085 H2073 0.929 . S
C2085 C2079 1.390 . S
C2085 C2082 1.386 . S
C2086 C2081 1.490 . S
C2086 C2088 1.395 . S
C2086 C2089 1.403 . S
H2087 C2093 0.930 . S
C2088 H2074 0.930 . S
C2088 C2086 1.395 . S
C2088 C2091 1.403 . S
C2089 C2086 1.403 . S
C2089 C2090 1.524 . S
C2089 C2093 1.400 . S
C2090 H2075 0.960 . S
C2090 H2076 0.960 . S
C2090 H2077 0.960 . S
C2090 C2089 1.524 . S
C2091 C2088 1.403 . S
C2091 C2092 1.392 . S
C2091 C2095 1.495 . S
C2092 C2091 1.392 . S
C2092 C2093 1.385 . S
C2092 C2094 1.478 . S
C2093 H2087 0.930 . S
C2093 C2089 1.400 . S
C2093 C2092 1.385 . S
C2094 C2092 1.478 . S
C2094 C2096 1.381 . S
C2094 C2100 1.383 . S
C2095 C2091 1.495 . S
C2095 H2101 0.959 . S
C2095 H2102 0.961 . S
C2095 H2103 0.960 . S
C2096 C2094 1.381 . S
C2096 C2097 1.394 . S
C2096 H2104 0.930 . S
C2097 C2096 1.394 . S
C2097 C2098 1.383 . S
C2097 H2105 0.929 . S
C2098 C2097 1.383 . S
C2098 C2099 1.377 . S
C2099 H2083 0.930 . S
C2099 C2098 1.377 . S
C2099 C2100 1.379 . S
C2100 H2084 0.931 . S
C2100 C2094 1.383 . S
C2100 C2099 1.379 . S
H2101 C2095 0.959 . S
H2102 C2095 0.961 . S
H2103 C2095 0.960 . S
H2104 C2096 0.930 . S
H2105 C2097 0.929 . S
H2106 C2114 0.929 . S
H2107 C2116 0.930 . S
H2108 C2118 0.930 . S
H2109 C2121 0.929 . S
H2110 C2124 0.930 . S
H2111 C2126 0.960 . S
H2112 C2126 0.960 . S
H2113 C2126 0.960 . S
C2114 H2106 0.929 . S
C2114 C2115 1.377 . S
C2114 C2116 1.384 . S
C2115 C2114 1.377 . S
C2115 C2121 1.390 . S
C2116 H2107 0.930 . S
C2116 C2114 1.384 . S
C2116 C2117 1.372 . S
C2117 C2116 1.372 . S
C2117 C2118 1.400 . S
C2117 C2122 1.490 . S
C2118 H2108 0.930 . S
C2118 C2117 1.400 . S
C2118 C2121 1.386 . S
H2119 C2135 0.930 . S
H2120 C2136 0.931 . S
C2121 H2109 0.929 . S
C2121 C2115 1.390 . S
C2121 C2118 1.386 . S
C2122 C2117 1.490 . S
C2122 C2124 1.395 . S
C2122 C2125 1.403 . S
H2123 C2129 0.930 . S
C2124 H2110 0.930 . S
C2124 C2122 1.395 . S
C2124 C2127 1.403 . S
C2125 C2122 1.403 . S
C2125 C2126 1.524 . S
C2125 C2129 1.400 . S
C2126 H2111 0.960 . S
C2126 H2112 0.960 . S
C2126 H2113 0.960 . S
C2126 C2125 1.524 . S
C2127 C2124 1.403 . S
C2127 C2128 1.392 . S
C2127 C2131 1.495 . S
C2128 C2127 1.392 . S
C2128 C2129 1.385 . S
C2128 C2130 1.478 . S
C2129 H2123 0.930 . S
C2129 C2125 1.400 . S
C2129 C2128 1.385 . S
C2130 C2128 1.478 . S
C2130 C2132 1.381 . S
C2130 C2136 1.383 . S
C2131 C2127 1.495 . S
C2131 H2137 0.959 . S
C2131 H2138 0.961 . S
C2131 H2139 0.960 . S
C2132 C2130 1.381 . S
C2132 C2133 1.394 . S
C2132 H2140 0.930 . S
C2133 C2132 1.394 . S
C2133 C2134 1.383 . S
C2133 H2141 0.929 . S
C2134 C2133 1.383 . S
C2134 C2135 1.377 . S
C2135 H2119 0.930 . S
C2135 C2134 1.377 . S
C2135 C2136 1.379 . S
C2136 H2120 0.931 . S
C2136 C2130 1.383 . S
C2136 C2135 1.379 . S
H2137 C2131 0.959 . S
H2138 C2131 0.961 . S
H2139 C2131 0.960 . S
H2140 C2132 0.930 . S
H2141 C2133 0.929 . S
H2142 C2150 0.929 . S
H2143 C2152 0.930 . S
H2144 C2154 0.930 . S
H2145 C2157 0.929 . S
H2146 C2160 0.930 . S
H2147 C2162 0.960 . S
H2148 C2162 0.960 . S
H2149 C2162 0.960 . S
C2150 H2142 0.929 . S
C2150 C2151 1.377 . S
C2150 C2152 1.384 . S
C2151 C2150 1.377 . S
C2151 C2157 1.390 . S
C2152 H2143 0.930 . S
C2152 C2150 1.384 . S
C2152 C2153 1.372 . S
C2153 C2152 1.372 . S
C2153 C2154 1.400 . S
C2153 C2158 1.490 . S
C2154 H2144 0.930 . S
C2154 C2153 1.400 . S
C2154 C2157 1.386 . S
H2155 C2171 0.930 . S
H2156 C2172 0.931 . S
C2157 H2145 0.929 . S
C2157 C2151 1.390 . S
C2157 C2154 1.386 . S
C2158 C2153 1.490 . S
C2158 C2160 1.395 . S
C2158 C2161 1.403 . S
H2159 C2165 0.930 . S
C2160 H2146 0.930 . S
C2160 C2158 1.395 . S
C2160 C2163 1.403 . S
C2161 C2158 1.403 . S
C2161 C2162 1.524 . S
C2161 C2165 1.400 . S
C2162 H2147 0.960 . S
C2162 H2148 0.960 . S
C2162 H2149 0.960 . S
C2162 C2161 1.524 . S
C2163 C2160 1.403 . S
C2163 C2164 1.392 . S
C2163 C2167 1.495 . S
C2164 C2163 1.392 . S
C2164 C2165 1.385 . S
C2164 C2166 1.478 . S
C2165 H2159 0.930 . S
C2165 C2161 1.400 . S
C2165 C2164 1.385 . S
C2166 C2164 1.478 . S
C2166 C2168 1.381 . S
C2166 C2172 1.383 . S
C2167 C2163 1.495 . S
C2167 H2173 0.959 . S
C2167 H2174 0.961 . S
C2167 H2175 0.960 . S
C2168 C2166 1.381 . S
C2168 C2169 1.394 . S
C2168 H2176 0.930 . S
C2169 C2168 1.394 . S
C2169 C2170 1.383 . S
C2169 H2177 0.929 . S
C2170 C2169 1.383 . S
C2170 C2171 1.377 . S
C2171 H2155 0.930 . S
C2171 C2170 1.377 . S
C2171 C2172 1.379 . S
C2172 H2156 0.931 . S
C2172 C2166 1.383 . S
C2172 C2171 1.379 . S
H2173 C2167 0.959 . S
H2174 C2167 0.961 . S
H2175 C2167 0.960 . S
H2176 C2168 0.930 . S
H2177 C2169 0.929 . S
H2178 C2186 0.929 . S
H2179 C2188 0.930 . S
H2180 C2190 0.930 . S
H2181 C2193 0.929 . S
H2182 C2196 0.930 . S
H2183 C2198 0.960 . S
H2184 C2198 0.960 . S
H2185 C2198 0.960 . S
C2186 H2178 0.929 . S
C2186 C2187 1.377 . S
C2186 C2188 1.384 . S
C2187 C2186 1.377 . S
C2187 C2193 1.390 . S
C2188 H2179 0.930 . S
C2188 C2186 1.384 . S
C2188 C2189 1.372 . S
C2189 C2188 1.372 . S
C2189 C2190 1.400 . S
C2189 C2194 1.490 . S
C2190 H2180 0.930 . S
C2190 C2189 1.400 . S
C2190 C2193 1.386 . S
H2191 C2207 0.930 . S
H2192 C2208 0.931 . S
C2193 H2181 0.929 . S
C2193 C2187 1.390 . S
C2193 C2190 1.386 . S
C2194 C2189 1.490 . S
C2194 C2196 1.395 . S
C2194 C2197 1.403 . S
H2195 C2201 0.930 . S
C2196 H2182 0.930 . S
C2196 C2194 1.395 . S
C2196 C2199 1.403 . S
C2197 C2194 1.403 . S
C2197 C2198 1.524 . S
C2197 C2201 1.400 . S
C2198 H2183 0.960 . S
C2198 H2184 0.960 . S
C2198 H2185 0.960 . S
C2198 C2197 1.524 . S
C2199 C2196 1.403 . S
C2199 C2200 1.392 . S
C2199 C2203 1.495 . S
C2200 C2199 1.392 . S
C2200 C2201 1.385 . S
C2200 C2202 1.478 . S
C2201 H2195 0.930 . S
C2201 C2197 1.400 . S
C2201 C2200 1.385 . S
C2202 C2200 1.478 . S
C2202 C2204 1.381 . S
C2202 C2208 1.383 . S
C2203 C2199 1.495 . S
C2203 H2209 0.959 . S
C2203 H2210 0.961 . S
C2203 H2211 0.960 . S
C2204 C2202 1.381 . S
C2204 C2205 1.394 . S
C2204 H2212 0.930 . S
C2205 C2204 1.394 . S
C2205 C2206 1.383 . S
C2205 H2213 0.929 . S
C2206 C2205 1.383 . S
C2206 C2207 1.377 . S
C2207 H2191 0.930 . S
C2207 C2206 1.377 . S
C2207 C2208 1.379 . S
C2208 H2192 0.931 . S
C2208 C2202 1.383 . S
C2208 C2207 1.379 . S
H2209 C2203 0.959 . S
H2210 C2203 0.961 . S
H2211 C2203 0.960 . S
H2212 C2204 0.930 . S
H2213 C2205 0.929 . S
C603 N310 0.662 . S
C622 N13 0.698 . S
C639 N343 0.654 . S
C658 N46 0.662 . S
C675 N376 0.640 . S
C694 N79 0.589 . S
C711 N112 0.652 . S
C730 N409 0.640 . S
C747 N442 0.641 . S
C766 N145 0.593 . S
C783 N475 0.654 . S
C802 N178 0.651 . S
C819 N211 0.669 . S
C838 N508 0.725 . S
C855 N541 0.643 . S
C874 N244 0.607 . S
C891 N574 0.668 . S
C910 N277 0.715 . S
C927 C579 1.930 . S
C946 C18 1.919 . S
C963 C513 1.930 . S
C982 C51 1.919 . S
C999 C84 1.930 . S
C1018 C546 1.930 . S
C1035 C249 1.931 . S
C1054 C117 1.920 . S
C1071 C282 1.932 . S
C1090 C150 1.927 . S
C1107 C183 1.933 . S
C1126 C216 1.934 . S
C1143 C315 1.932 . S
C1162 C447 1.935 . S
C1179 C480 1.932 . S
C1198 C348 1.935 . S
C1215 C381 1.929 . S
C1234 C414 1.922 . S
C1251 C21 1.018 . S
C1270 C153 1.048 . S
C1287 C186 1.020 . S
C1306 C54 0.984 . S
C1323 C120 1.015 . S
C1342 C87 1.038 . S
C1359 C351 1.014 . S
C1378 C219 0.985 . S
C1395 C252 1.023 . S
C1414 C384 0.995 . S
C1431 C318 1.012 . S
C1450 C285 1.002 . S
C1467 C417 1.026 . S
C1486 C549 1.043 . S
C1503 C582 1.013 . S
C1522 C450 0.992 . S
C1539 C483 1.012 . S
C1558 C516 1.014 . S
C1575 C73 0.904 . S
C1594 N2 0.904 . S
C1611 C7 0.889 . S
C1630 N35 0.918 . S
C1647 C40 0.895 . S
C1666 N68 0.927 . S
C1683 C139 0.901 . S
C1702 N101 0.898 . S
C1719 N134 0.908 . S
C1738 C172 0.910 . S
C1755 C106 0.897 . S
C1774 N167 0.928 . S
C1791 C271 0.902 . S
C1810 N200 0.898 . S
C1827 C205 0.905 . S
C1846 N233 0.917 . S
C1863 N266 0.907 . S
C1882 C238 0.870 . S
C1899 N299 0.909 . S
C1918 C337 0.852 . S
C1935 C370 0.889 . S
C1954 N332 0.895 . S
C1971 C304 0.894 . S
C1990 N365 0.926 . S
C2007 N398 0.912 . S
C2026 C469 0.936 . S
C2043 C403 0.894 . S
C2062 N431 0.926 . S
C2079 C436 0.890 . S
C2098 N464 0.920 . S
C2115 C535 0.887 . S
C2134 N497 0.902 . S
C2151 C568 0.888 . S
C2170 N530 0.910 . S
C2187 C502 0.905 . S
C2206 N563 0.912 . S
