# Generated by pormake.
# Topology svk, (7)-cn, num edge types: 1
# Building blocks:
#     Node 0, Type 0, BuildingBlock: HICVOG_clean_sbu_0, # of connection points: 7
#     Node 1, Type 0, BuildingBlock: HICVOG_clean_sbu_0, # of connection points: 7
#     Node 2, Type 0, BuildingBlock: HICVOG_clean_sbu_0, # of connection points: 7
#     Node 3, Type 0, BuildingBlock: HICVOG_clean_sbu_0, # of connection points: 7
#     Edge 4, Type (0, 0), BuildingBlock: EZIPEK_clean_linker_0, # of connection points: 2
#     Edge 5, Type (0, 0), BuildingBlock: EZIPEK_clean_linker_0, # of connection points: 2
#     Edge 6, Type (0, 0), BuildingBlock: EZIPEK_clean_linker_0, # of connection points: 2
#     Edge 7, Type (0, 0), BuildingBlock: EZIPEK_clean_linker_0, # of connection points: 2
#     Edge 8, Type (0, 0), BuildingBlock: EZIPEK_clean_linker_0, # of connection points: 2
#     Edge 9, Type (0, 0), BuildingBlock: EZIPEK_clean_linker_0, # of connection points: 2
#     Edge 10, Type (0, 0), BuildingBlock: EZIPEK_clean_linker_0, # of connection points: 2
#     Edge 11, Type (0, 0), BuildingBlock: EZIPEK_clean_linker_0, # of connection points: 2
#     Edge 12, Type (0, 0), BuildingBlock: EZIPEK_clean_linker_0, # of connection points: 2
#     Edge 13, Type (0, 0), BuildingBlock: EZIPEK_clean_linker_0, # of connection points: 2
#     Edge 14, Type (0, 0), BuildingBlock: EZIPEK_clean_linker_0, # of connection points: 2
#     Edge 15, Type (0, 0), BuildingBlock: EZIPEK_clean_linker_0, # of connection points: 2
#     Edge 16, Type (0, 0), BuildingBlock: EZIPEK_clean_linker_0, # of connection points: 2
#     Edge 17, Type (0, 0), BuildingBlock: EZIPEK_clean_linker_0, # of connection points: 2
# Relax obj value: 0.263
# Max RMSD: 0.251
# Mean RMSD: 0.251
data_MOF--net-svk--node1-HICVOG_clean_sbu_0--edge1-EZIPEK_clean_linker_0
_symmetry_space_group_name_H-M    P1
_symmetry_Int_Tables_number       1
_symmetry_cell_setting            triclinic
loop_
_symmetry_equiv_pos_as_xyz
'x, y, z'
_cell_length_a     13.855413
_cell_length_b     37.759529
_cell_length_c     16.202031
_cell_angle_alpha  89.720591
_cell_angle_beta   89.994954
_cell_angle_gamma 90.062823
loop_
_atom_site_label
_atom_site_type_symbol
_atom_site_fract_x
_atom_site_fract_y
_atom_site_fract_z
_atom_type_partial_charge
Zn0 Zn 0.09118 0.38304 0.0921 0.0
C1 C 0.91678 0.31027 0.99754 0.0
N2 N 0.98492 0.28795 0.02385 0.0
C3 C 0.05644 0.30988 0.04487 0.0
N4 N 0.03248 0.34412 0.0331 0.0
N5 N 0.94415 0.34448 1.00239 0.0
C6 C 0.70096 0.37783 0.98996 0.0
O7 O 0.75 0.37437 0.05859 0.0
O8 O 0.23829 0.37589 0.09598 0.0
Zn9 Zn 0.89526 0.38332 0.93537 0.0
N10 N 0.02103 0.38381 0.19689 0.0
C11 C 0.85813 0.39215 0.24028 0.0
C12 C 0.927 0.39015 0.17833 0.0
C13 C 0.04979 0.37987 0.27705 0.0
N14 N 0.88602 0.38834 0.31971 0.0
C15 C 0.97963 0.3823 0.34026 0.0
O16 O 0.92344 0.43251 0.9792 0.0
C17 C 0.99407 0.44861 0.01275 0.0
O18 O 0.06418 0.43232 0.04673 0.0
H19 H 0.90618 0.39412 0.11506 0.0
H20 H 0.12509 0.37543 0.29146 0.0
C21 C 0.94889 0.37915 0.75385 0.0
C22 C 0.02241 0.38004 0.69325 0.0
C23 C 0.14045 0.38601 0.79759 0.0
C24 C 0.06833 0.38564 0.85706 0.0
N25 N 0.97417 0.38198 0.83502 0.0
N26 N 0.11589 0.38338 0.71717 0.0
H27 H 0.87368 0.37691 0.73663 0.0
C28 C 0.28716 0.39047 0.03818 0.0
O29 O 0.24305 0.41056 0.98383 0.0
O30 O 0.74738 0.38078 0.92215 0.0
H31 H 0.0872 0.3883 0.92107 0.0
H32 H 0.78323 0.39718 0.22552 0.0
H33 H 0.21539 0.38884 0.815 0.0
Zn34 Zn 0.09288 0.66769 0.92991 0.0
C35 C 0.92071 0.74064 0.02605 0.0
N36 N 0.9896 0.76284 1.00037 0.0
C37 C 0.06041 0.74075 0.97885 0.0
N38 N 0.03537 0.70655 0.98974 0.0
N39 N 0.94698 0.70636 0.02033 0.0
C40 C 0.70278 0.67387 0.03117 0.0
O41 O 0.75202 0.67833 0.96293 0.0
O42 O 0.23995 0.67486 0.92528 0.0
Zn43 Zn 0.89688 0.66743 0.08648 0.0
N44 N 0.02179 0.66713 0.82552 0.0
C45 C 0.85846 0.65904 0.78293 0.0
C46 C 0.92777 0.66094 0.84455 0.0
C47 C 0.0501 0.67099 0.74522 0.0
N48 N 0.8859 0.66277 0.70335 0.0
C49 C 0.97949 0.66864 0.68234 0.0
O50 O 0.92481 0.61828 0.04225 0.0
C51 C -0.00467 0.60213 1.00879 0.0
O52 O 0.06584 0.61838 0.97512 0.0
H53 H 0.90728 0.65697 0.9079 0.0
H54 H 0.12539 0.67527 0.73043 0.0
C55 C 0.94922 0.67138 0.26835 0.0
C56 C 0.0223 0.67025 0.3293 0.0
C57 C 0.14084 0.6638 0.22554 0.0
C58 C 0.06915 0.66444 0.16572 0.0
N59 N 0.97496 0.66842 0.1873 0.0
N60 N 0.11582 0.66655 0.30583 0.0
H61 H 0.87397 0.67392 0.28519 0.0
C62 C 0.28895 0.66048 0.98321 0.0
O63 O 0.24489 0.64051 0.03793 0.0
O64 O 0.74893 0.67004 0.09887 0.0
H65 H 0.08837 0.66175 0.10178 0.0
H66 H 0.78357 0.65412 0.79804 0.0
H67 H 0.21579 0.66069 0.2085 0.0
Zn68 Zn 0.59311 0.88325 0.09828 0.0
C69 C 0.42092 0.81003 1.00326 0.0
N70 N 0.48965 0.7879 0.02927 0.0
C71 C 0.56065 0.81004 0.05038 0.0
N72 N 0.5358 0.84421 0.03893 0.0
N73 N 0.4474 0.84432 1.00838 0.0
C74 C 0.20312 0.87653 0.99772 0.0
O75 O 0.25246 0.87193 0.06584 0.0
O76 O 0.74003 0.876 0.10369 0.0
Zn77 Zn 0.39722 0.88309 0.94176 0.0
N78 N 0.52124 0.88417 0.20231 0.0
C79 C 0.35792 0.89281 0.24424 0.0
C80 C 0.42752 0.89069 0.1829 0.0
C81 C 0.54889 0.88011 0.28272 0.0
N82 N 0.38473 0.88889 0.32391 0.0
C83 C 0.47797 0.88264 0.3453 0.0
O84 O 0.42591 0.93238 0.98479 0.0
C85 C 0.4967 0.9486 0.01775 0.0
O86 O 0.56701 0.93243 0.05179 0.0
H87 H 0.40748 0.89468 0.11946 0.0
H88 H 0.62392 0.87549 0.29783 0.0
C89 C 0.44824 0.879 0.75968 0.0
C90 C 0.52092 0.87999 0.69834 0.0
C91 C 0.64037 0.88599 0.80151 0.0
C92 C 0.56909 0.88552 0.8617 0.0
N93 N 0.47465 0.88178 0.8406 0.0
N94 N 0.6147 0.88338 0.72133 0.0
H95 H 0.37281 0.87673 0.74322 0.0
C96 C 0.78925 0.88998 0.04531 0.0
O97 O 0.74539 0.90955 0.98977 0.0
O98 O 0.24916 0.88049 0.92999 0.0
H99 H 0.58884 0.88819 0.92553 0.0
H100 H 0.28328 0.898 0.22882 0.0
H101 H 0.71552 0.88888 0.81817 0.0
Zn102 Zn 0.58991 0.16748 0.92728 0.0
C103 C 0.41642 0.24046 0.0209 0.0
N104 N 0.48464 0.26273 0.99426 0.0
C105 C 0.55616 0.24079 0.97366 0.0
N106 N 0.53203 0.20657 0.98594 0.0
N107 N 0.44369 0.20624 0.01666 0.0
C108 C 0.19978 0.17353 0.02848 0.0
O109 O 0.24893 0.17776 0.96012 0.0
O110 O 0.73683 0.17484 0.9218 0.0
Zn111 Zn 0.39415 0.16743 0.08401 0.0
N112 N 0.51804 0.16613 0.82332 0.0
C113 C 0.35434 0.15803 0.78172 0.0
C114 C 0.42422 0.15983 0.84291 0.0
C115 C 0.54566 0.16996 0.74285 0.0
N116 N 0.38102 0.16195 0.70201 0.0
C117 C 0.47445 0.16777 0.68044 0.0
O118 O 0.42334 0.1181 0.04174 0.0
C119 C 0.49448 0.10208 1.00895 0.0
O120 O 0.56427 0.11843 0.97449 0.0
H121 H 0.40428 0.15586 0.90639 0.0
H122 H 0.62078 0.17434 0.7276 0.0
C123 C 0.4451 0.17104 0.26607 0.0
C124 C 0.5179 0.17131 0.32732 0.0
C125 C 0.63784 0.16781 0.22391 0.0
C126 C 0.56649 0.16701 0.16383 0.0
N127 N 0.47174 0.16922 0.18505 0.0
N128 N 0.61199 0.16982 0.30412 0.0
H129 H 0.36947 0.17178 0.28265 0.0
C130 C 0.78579 0.16112 0.98062 0.0
O131 O 0.7416 0.14193 0.03674 0.0
O132 O 0.24605 0.16985 0.09616 0.0
H133 H 0.58649 0.16462 0.10002 0.0
H134 H 0.27958 0.15312 0.79729 0.0
H135 H 0.71324 0.16627 0.20714 0.0
C136 C 0.00019 0.50635 0.93536 0.0
C137 C 0.99498 0.48791 1.01179 0.0
C138 C -0.00013 0.54438 0.08616 0.0
C139 C -0.00429 0.56283 1.0097 0.0
N140 N 0.97651 0.56163 0.86167 0.0
N141 N 0.97436 0.48916 0.15967 0.0
C142 C 0.99182 0.54389 0.93425 0.0
C143 C 0.99074 0.50686 0.0872 0.0
N144 N 0.01677 0.48812 0.86402 0.0
N145 N 0.01622 0.56256 0.15761 0.0
H146 H 0.96724 0.46174 0.16312 0.0
H147 H 0.95952 0.50177 0.21525 0.0
H148 H 0.02393 0.59001 0.15947 0.0
H149 H 0.03075 0.55031 0.21395 0.0
H150 H 0.03203 0.50034 0.80776 0.0
H151 H 0.02386 0.46065 0.86221 0.0
H152 H 0.96199 0.54904 0.80599 0.0
H153 H 0.96997 0.58906 0.85816 0.0
C154 C 0.50227 0.04484 0.08814 0.0
C155 C 0.49621 0.06281 1.01115 0.0
C156 C 0.50118 1.00592 0.93861 0.0
C157 C 0.49761 0.9879 0.01567 0.0
N158 N 0.47973 0.98996 0.16377 0.0
N159 N 0.47475 0.06065 0.86344 0.0
C160 C 0.49427 1.00729 0.09053 0.0
C161 C 0.49171 0.0434 0.93639 0.0
N162 N 0.51922 0.06355 0.15874 0.0
N163 N 0.5173 0.98734 0.86769 0.0
H164 H 0.46743 0.08804 0.85911 0.0
H165 H 0.45969 0.04768 0.80835 0.0
H166 H 0.52541 0.95991 0.86671 0.0
H167 H 0.53131 0.99928 0.81088 0.0
H168 H 0.53506 0.05172 0.21531 0.0
H169 H 0.52603 0.09105 0.15956 0.0
H170 H 0.46561 1.00286 0.21913 0.0
H171 H 0.4735 0.96253 0.16826 0.0
C172 C 0.00881 0.34743 0.5594 0.0
C173 C 0.00288 0.37975 0.6035 0.0
C174 C 0.00508 0.41324 0.47349 0.0
C175 C 0.0031 0.38093 0.42928 0.0
N176 N 0.9935 0.31726 0.4279 0.0
N177 N 0.98442 0.44317 0.60458 0.0
C178 C 0.00272 0.34796 0.47162 0.0
C179 C -0.00223 0.41262 0.561 0.0
N180 N 0.02247 0.31637 0.60154 0.0
N181 N 0.01587 0.4445 0.43138 0.0
H182 H 0.97965 0.44368 0.66882 0.0
H183 H 0.97034 0.46765 0.57737 0.0
H184 H 0.02185 0.44577 0.36722 0.0
H185 H 0.02722 0.46882 0.45971 0.0
H186 H 0.03879 0.29244 0.57314 0.0
H187 H 0.02245 0.31485 0.66587 0.0
H188 H 0.98127 0.29262 0.45505 0.0
H189 H 0.99319 0.31666 0.36352 0.0
C190 C -0.00337 0.63795 0.46176 0.0
C191 C 0.00223 0.67074 0.41896 0.0
C192 C 0.00226 0.70275 0.55056 0.0
C193 C 0.00246 0.66984 0.5932 0.0
N194 N 0.01434 0.60625 0.59164 0.0
N195 N 0.02226 0.73412 0.42036 0.0
C196 C 0.00397 0.63745 0.54927 0.0
C197 C 0.00835 0.70313 0.46278 0.0
N198 N 0.98277 0.60734 0.41844 0.0
N199 N 0.99325 0.73352 0.594 0.0
H200 H 0.02227 0.73552 0.35601 0.0
H201 H 0.03874 0.75809 0.44853 0.0
H202 H 0.99292 0.73423 0.65838 0.0
H203 H 0.98116 0.75811 0.56663 0.0
H204 H 0.96835 0.58293 0.44587 0.0
H205 H 0.97784 0.60676 0.35421 0.0
H206 H 0.02536 0.58188 0.56349 0.0
H207 H 0.02026 0.60506 0.6558 0.0
C208 C 0.50518 0.84749 0.5645 0.0
C209 C 0.50019 0.87979 0.60878 0.0
C210 C 0.50262 0.91341 0.47894 0.0
C211 C 0.50033 0.88114 0.43454 0.0
N212 N 0.48895 0.8175 0.43286 0.0
N213 N 0.48223 0.94321 0.61022 0.0
C214 C 0.49903 0.84812 0.47672 0.0
C215 C 0.49531 0.91269 0.56645 0.0
N216 N 0.51811 0.81635 0.60647 0.0
N217 N 0.51377 0.9447 0.43704 0.0
H218 H 0.47732 0.94364 0.67446 0.0
H219 H 0.46837 0.96774 0.58316 0.0
H220 H 0.51971 0.94605 0.37289 0.0
H221 H 0.52542 0.96896 0.46555 0.0
H222 H 0.53378 0.79239 0.57795 0.0
H223 H 0.51807 0.81478 0.6708 0.0
H224 H 0.47607 0.79288 0.45991 0.0
H225 H 0.48847 0.81695 0.36848 0.0
C226 C 0.50276 0.13676 0.54718 0.0
C227 C 0.49671 0.16909 0.59117 0.0
C228 C 0.48644 0.20237 0.4608 0.0
C229 C 0.49731 0.1702 0.41693 0.0
N230 N 0.52485 0.10715 0.41595 0.0
N231 N 0.49252 0.23276 0.59291 0.0
C232 C 0.50782 0.13747 0.45956 0.0
C233 C 0.49144 0.20199 0.54872 0.0
N234 N 0.5008 0.10529 0.58945 0.0
N235 N 0.47025 0.23313 0.41804 0.0
H236 H 0.49584 0.23317 0.65724 0.0
H237 H 0.49703 0.25788 0.56657 0.0
H238 H 0.46728 0.23419 0.35374 0.0
H239 H 0.45321 0.25715 0.44553 0.0
H240 H 0.49236 0.08073 0.56149 0.0
H241 H 0.50309 0.10371 0.65374 0.0
H242 H 0.54569 0.08328 0.44285 0.0
H243 H 0.52248 0.10615 0.35163 0.0
C244 C 0.55681 0.40637 0.05504 0.0
C245 C 0.59399 0.38225 0.9958 0.0
C246 C 0.42817 0.36351 0.96336 0.0
C247 C 0.39283 0.38481 0.02895 0.0
N248 N 0.4242 0.42289 0.14463 0.0
N249 N 0.56568 0.33567 0.89736 0.0
C250 C 0.45756 0.40495 0.07734 0.0
C251 C 0.52977 0.36029 0.9506 0.0
N252 N 0.61541 0.43221 0.08642 0.0
N253 N 0.36426 0.34682 0.91235 0.0
H254 H 0.63879 0.33348 0.88384 0.0
H255 H 0.52397 0.31606 0.86985 0.0
H256 H 0.28993 0.34752 0.92182 0.0
H257 H 0.38388 0.33412 0.85802 0.0
H258 H 0.59059 0.45268 0.1236 0.0
H259 H 0.68688 0.43566 0.06776 0.0
H260 H 0.46943 0.43487 0.18761 0.0
H261 H 0.35157 0.42325 0.16153 0.0
C262 C 0.53149 0.69055 0.07152 0.0
C263 C 0.5959 0.66933 0.02482 0.0
C264 C 0.45952 0.64714 0.94227 0.0
C265 C 0.39459 0.66637 0.99237 0.0
N266 N 0.36604 0.70285 0.11159 0.0
N267 N 0.61792 0.62063 0.93069 0.0
C268 C 0.4299 0.68703 0.05914 0.0
C269 C 0.55894 0.64583 0.96406 0.0
N270 N 0.56717 0.71484 0.12579 0.0
N271 N 0.42621 0.6299 0.87395 0.0
H272 H 0.68957 0.61721 0.9488 0.0
H273 H 0.59336 0.60053 0.8922 0.0
H274 H 0.35348 0.62934 0.85744 0.0
H275 H 0.4715 0.6187 0.82991 0.0
H276 H 0.52514 0.73403 0.15442 0.0
H277 H 0.64035 0.71727 0.13888 0.0
H278 H 0.38585 0.71494 0.16666 0.0
H279 H 0.29166 0.70201 0.10251 0.0
C280 C 0.05938 0.90433 0.06539 0.0
C281 C 0.09625 0.88101 1.00424 0.0
C282 C 0.93017 0.86345 0.96947 0.0
C283 C 0.89487 0.88399 0.03643 0.0
N284 N 0.92662 0.92005 0.15557 0.0
N285 N 0.06731 0.83577 0.90261 0.0
C286 C 0.9599 0.903 0.08701 0.0
C287 C 0.03174 0.85993 0.95717 0.0
N288 N 0.11851 0.9294 0.09928 0.0
N289 N 0.8663 0.84773 0.91678 0.0
H290 H 0.14048 0.83336 0.88952 0.0
H291 H 0.02518 0.81663 0.87378 0.0
H292 H 0.79192 0.84846 0.92589 0.0
H293 H 0.88612 0.8358 0.86155 0.0
H294 H 0.09404 0.94936 0.1381 0.0
H295 H 0.19021 0.93287 0.08131 0.0
H296 H 0.97194 0.93102 0.19993 0.0
H297 H 0.85385 0.92066 0.17193 0.0
C298 C 0.05542 0.14565 0.96189 0.0
C299 C 0.09279 0.16923 0.0223 0.0
C300 C 0.92719 0.18788 0.05544 0.0
C301 C 0.89153 0.16693 0.9893 0.0
N302 N 0.92247 0.12973 0.872 0.0
N303 N 0.06503 0.21504 0.12271 0.0
C304 C 0.95608 0.1472 0.93989 0.0
C305 C 0.02882 0.19088 0.0684 0.0
N306 N 0.11393 0.12016 0.92909 0.0
N307 N 0.86351 0.20452 0.10667 0.0
H308 H 0.13811 0.21694 0.13662 0.0
H309 H 0.02367 0.23456 0.15084 0.0
H310 H 0.78925 0.20427 0.09669 0.0
H311 H 0.88314 0.21687 0.16145 0.0
H312 H 0.08904 0.10001 0.89093 0.0
H313 H 0.18547 0.11661 0.94736 0.0
H314 H 0.96753 0.11816 0.82832 0.0
H315 H 0.84977 0.12933 0.85538 0.0
C316 C 0.26672 0.26148 0.95932 0.0
C317 C 0.31857 0.25345 0.03225 0.0
C318 C 0.20399 0.28721 0.11527 0.0
C319 C 0.15506 0.29648 0.04169 0.0
N320 N 0.14616 0.29774 0.89274 0.0
N321 N 0.34668 0.26101 0.17768 0.0
C322 C 0.18844 0.28515 0.96341 0.0
C323 C 0.29018 0.26701 0.10991 0.0
N324 N 0.29275 0.24633 0.88595 0.0
N325 N 0.16585 0.29659 0.18979 0.0
H326 H 0.40742 0.2447 0.1759 0.0
H327 H 0.33591 0.27316 0.23445 0.0
H328 H 0.10423 0.31231 0.19472 0.0
H329 H 0.19207 0.28755 0.24625 0.0
H330 H 0.25139 0.24766 0.83245 0.0
H331 H 0.35208 0.2296 0.87981 0.0
H332 H 0.17401 0.29399 0.8338 0.0
H333 H 0.08737 0.31485 0.89282 0.0
C334 C 0.7085 0.78756 0.12053 0.0
C335 C 0.65954 0.79691 0.04703 0.0
C336 C 0.77139 0.76209 0.96436 0.0
C337 C 0.82307 0.75388 0.03729 0.0
N338 N 0.8512 0.76129 0.18277 0.0
N339 N 0.65038 0.79827 0.89811 0.0
C340 C 0.79468 0.76735 0.11504 0.0
C341 C 0.69296 0.78569 0.96866 0.0
N342 N 0.67041 0.79688 0.1951 0.0
N343 N 0.79767 0.74715 0.89082 0.0
H344 H 0.59133 0.81525 0.89838 0.0
H345 H 0.6781 0.79463 0.83909 0.0
H346 H 0.85714 0.7305 0.88448 0.0
H347 H 0.75648 0.74859 0.83723 0.0
H348 H 0.69658 0.78776 0.25151 0.0
H349 H 0.60895 0.81268 0.20013 0.0
H350 H 0.84042 0.77338 0.2396 0.0
H351 H 0.912 0.74501 0.1809 0.0
C352 C 0.29468 0.78343 0.9142 0.0
C353 C 0.32326 0.79677 0.99203 0.0
C354 C 0.19308 0.76487 0.06057 0.0
C355 C 0.1594 0.75383 0.98213 0.0
N356 N 0.16996 0.75412 0.83404 0.0
N357 N 0.29805 0.80334 0.13857 0.0
C358 C 0.2083 0.76328 0.90864 0.0
C359 C 0.27163 0.78847 0.06496 0.0
N360 N 0.35118 0.78955 0.84646 0.0
N361 N 0.15064 0.75213 0.13106 0.0
H362 H 0.35745 0.82007 0.14491 0.0
H363 H 0.25695 0.80178 0.19221 0.0
H364 H 0.09161 0.73508 0.1307 0.0
H365 H 0.17852 0.75567 0.19006 0.0
H366 H 0.34018 0.77755 0.78954 0.0
H367 H 0.4122 0.80576 0.8484 0.0
H368 H 0.19612 0.76333 0.77768 0.0
H369 H 0.10829 0.73839 0.82895 0.0
C370 C 0.7046 0.26303 0.90347 0.0
C371 C 0.65482 0.2543 0.97702 0.0
C372 C 0.7661 0.28983 0.05886 0.0
C373 C 0.8188 0.2973 0.98604 0.0
N374 N 0.84825 0.28869 0.84114 0.0
N375 N 0.64438 0.25418 0.12592 0.0
C376 C 0.791 0.28321 0.90871 0.0
C377 C 0.68752 0.26622 0.05508 0.0
N378 N 0.66713 0.25315 0.82905 0.0
N379 N 0.79169 0.30539 0.13187 0.0
H380 H 0.58525 0.23719 0.1261 0.0
H381 H 0.67176 0.25828 0.18489 0.0
H382 H 0.85149 0.32193 0.13794 0.0
H383 H 0.74966 0.30456 0.18505 0.0
H384 H 0.69403 0.26179 0.77246 0.0
H385 H 0.60542 0.23743 0.82426 0.0
H386 H 0.83795 0.27611 0.78481 0.0
H387 H 0.9091 0.305 0.84271 0.0
loop_
_geom_bond_atom_site_label_1
_geom_bond_atom_site_label_2
_geom_bond_distance
_geom_bond_site_symmetry_2
_ccdc_geom_bond_type
Zn0 N4 2.020 . S
Zn0 O8 2.019 . S
Zn0 N10 2.119 . S
Zn0 O18 1.975 . S
C1 N2 1.334 1_656 S
C1 N5 1.336 . S
N2 C1 1.334 1_454 S
N2 C3 1.334 . S
C3 N2 1.334 . S
C3 N4 1.336 . S
N4 Zn0 2.020 . S
N4 C3 1.336 . S
N4 N5 1.354 1_454 S
N5 C1 1.336 . S
N5 N4 1.354 1_656 S
N5 Zn9 2.020 . S
C6 O7 1.244 1_556 S
C6 O30 1.257 . S
O7 C6 1.244 1_554 S
O8 Zn0 2.019 . S
O8 C28 1.257 . S
Zn9 N5 2.020 . S
Zn9 O16 1.975 . S
Zn9 N25 2.119 . S
Zn9 O30 2.019 . S
N10 Zn0 2.119 . S
N10 C12 1.334 1_455 S
N10 C13 1.328 . S
C11 C12 1.391 . S
C11 N14 1.329 1_655 S
C11 H32 0.930 . S
C12 N10 1.334 1_655 S
C12 C11 1.391 . S
C12 H19 0.930 . S
C13 N10 1.328 . S
C13 C15 1.392 . S
C13 H20 0.930 . S
N14 C11 1.329 1_455 S
N14 C15 1.331 . S
C15 C13 1.392 . S
C15 N14 1.331 . S
O16 Zn9 1.975 . S
O16 C17 1.252 1_656 S
C17 O16 1.252 1_454 S
C17 O18 1.252 . S
O18 Zn0 1.975 . S
O18 C17 1.252 . S
H19 C12 0.930 . S
H20 C13 0.930 . S
C21 C22 1.392 . S
C21 N25 1.328 . S
C21 H27 0.930 . S
C22 C21 1.392 . S
C22 N26 1.331 . S
C23 C24 1.391 . S
C23 N26 1.329 1_455 S
C23 H33 0.930 . S
C24 C23 1.391 . S
C24 N25 1.334 1_455 S
C24 H31 0.930 . S
N25 Zn9 2.119 . S
N25 C21 1.328 . S
N25 C24 1.334 1_655 S
N26 C22 1.331 . S
N26 C23 1.329 1_655 S
H27 C21 0.930 . S
C28 O8 1.257 . S
C28 O29 1.244 1_554 S
O29 C28 1.244 1_556 S
O30 C6 1.257 . S
O30 Zn9 2.019 . S
H31 C24 0.930 . S
H32 C11 0.930 . S
H33 C23 0.930 . S
Zn34 N38 2.020 . S
Zn34 O42 2.019 . S
Zn34 N44 2.119 . S
Zn34 O52 1.975 . S
C35 N36 1.334 1_655 S
C35 N39 1.336 . S
N36 C35 1.334 1_455 S
N36 C37 1.334 1_554 S
C37 N36 1.334 1_556 S
C37 N38 1.336 . S
N38 Zn34 2.020 . S
N38 C37 1.336 . S
N38 N39 1.354 1_456 S
N39 C35 1.336 . S
N39 N38 1.354 1_654 S
N39 Zn43 2.020 . S
C40 O41 1.244 1_554 S
C40 O64 1.257 . S
O41 C40 1.244 1_556 S
O42 Zn34 2.019 . S
O42 C62 1.257 . S
Zn43 N39 2.020 . S
Zn43 O50 1.975 . S
Zn43 N59 2.119 . S
Zn43 O64 2.019 . S
N44 Zn34 2.119 . S
N44 C46 1.334 1_455 S
N44 C47 1.328 . S
C45 C46 1.391 . S
C45 N48 1.329 1_655 S
C45 H66 0.930 . S
C46 N44 1.334 1_655 S
C46 C45 1.391 . S
C46 H53 0.930 . S
C47 N44 1.328 . S
C47 C49 1.392 . S
C47 H54 0.930 . S
N48 C45 1.329 1_455 S
N48 C49 1.331 . S
C49 C47 1.392 . S
C49 N48 1.331 . S
O50 Zn43 1.975 . S
O50 C51 1.252 1_655 S
C51 O50 1.252 1_455 S
C51 O52 1.252 1_554 S
O52 Zn34 1.975 . S
O52 C51 1.252 1_556 S
H53 C46 0.930 . S
H54 C47 0.930 . S
C55 C56 1.392 . S
C55 N59 1.328 . S
C55 H61 0.930 . S
C56 C55 1.392 . S
C56 N60 1.331 . S
C57 C58 1.391 . S
C57 N60 1.329 1_455 S
C57 H67 0.930 . S
C58 C57 1.391 . S
C58 N59 1.334 1_455 S
C58 H65 0.930 . S
N59 Zn43 2.119 . S
N59 C55 1.328 . S
N59 C58 1.334 1_655 S
N60 C56 1.331 . S
N60 C57 1.329 1_655 S
H61 C55 0.930 . S
C62 O42 1.257 . S
C62 O63 1.244 1_556 S
O63 C62 1.244 1_554 S
O64 C40 1.257 . S
O64 Zn43 2.019 . S
H65 C58 0.930 . S
H66 C45 0.930 . S
H67 C57 0.930 . S
Zn68 N72 2.020 . S
Zn68 O76 2.019 . S
Zn68 N78 2.119 . S
Zn68 O86 1.975 . S
C69 N70 1.334 1_556 S
C69 N73 1.336 . S
N70 C69 1.334 1_554 S
N70 C71 1.334 . S
C71 N70 1.334 . S
C71 N72 1.336 . S
N72 Zn68 2.020 . S
N72 C71 1.336 . S
N72 N73 1.354 1_554 S
N73 C69 1.336 . S
N73 N72 1.354 1_556 S
N73 Zn77 2.020 . S
C74 O75 1.244 1_556 S
C74 O98 1.257 . S
O75 C74 1.244 1_554 S
O76 Zn68 2.019 . S
O76 C96 1.257 . S
Zn77 N73 2.020 . S
Zn77 O84 1.975 . S
Zn77 N93 2.119 . S
Zn77 O98 2.019 . S
N78 Zn68 2.119 . S
N78 C80 1.334 . S
N78 C81 1.328 . S
C79 C80 1.391 . S
C79 N82 1.329 . S
C79 H100 0.930 . S
C80 N78 1.334 . S
C80 C79 1.391 . S
C80 H87 0.930 . S
C81 N78 1.328 . S
C81 C83 1.392 . S
C81 H88 0.930 . S
N82 C79 1.329 . S
N82 C83 1.331 . S
C83 C81 1.392 . S
C83 N82 1.331 . S
O84 Zn77 1.975 . S
O84 C85 1.252 1_556 S
C85 O84 1.252 1_554 S
C85 O86 1.252 . S
O86 Zn68 1.975 . S
O86 C85 1.252 . S
H87 C80 0.930 . S
H88 C81 0.930 . S
C89 C90 1.392 . S
C89 N93 1.328 . S
C89 H95 0.930 . S
C90 C89 1.392 . S
C90 N94 1.331 . S
C91 C92 1.391 . S
C91 N94 1.329 . S
C91 H101 0.930 . S
C92 C91 1.391 . S
C92 N93 1.334 . S
C92 H99 0.930 . S
N93 Zn77 2.119 . S
N93 C89 1.328 . S
N93 C92 1.334 . S
N94 C90 1.331 . S
N94 C91 1.329 . S
H95 C89 0.930 . S
C96 O76 1.257 . S
C96 O97 1.244 1_554 S
O97 C96 1.244 1_556 S
O98 C74 1.257 . S
O98 Zn77 2.019 . S
H99 C92 0.930 . S
H100 C79 0.930 . S
H101 C91 0.930 . S
Zn102 N106 2.020 . S
Zn102 O110 2.019 . S
Zn102 N112 2.119 . S
Zn102 O120 1.975 . S
C103 N104 1.334 . S
C103 N107 1.336 . S
N104 C103 1.334 . S
N104 C105 1.334 1_554 S
C105 N104 1.334 1_556 S
C105 N106 1.336 . S
N106 Zn102 2.020 . S
N106 C105 1.336 . S
N106 N107 1.354 1_556 S
N107 C103 1.336 . S
N107 N106 1.354 1_554 S
N107 Zn111 2.020 . S
C108 O109 1.244 1_554 S
C108 O132 1.257 . S
O109 C108 1.244 1_556 S
O110 Zn102 2.019 . S
O110 C130 1.257 . S
Zn111 N107 2.020 . S
Zn111 O118 1.975 . S
Zn111 N127 2.119 . S
Zn111 O132 2.019 . S
N112 Zn102 2.119 . S
N112 C114 1.334 . S
N112 C115 1.328 . S
C113 C114 1.391 . S
C113 N116 1.329 . S
C113 H134 0.930 . S
C114 N112 1.334 . S
C114 C113 1.391 . S
C114 H121 0.930 . S
C115 N112 1.328 . S
C115 C117 1.392 . S
C115 H122 0.930 . S
N116 C113 1.329 . S
N116 C117 1.331 . S
C117 C115 1.392 . S
C117 N116 1.331 . S
O118 Zn111 1.975 . S
O118 C119 1.252 . S
C119 O118 1.252 . S
C119 O120 1.252 1_554 S
O120 Zn102 1.975 . S
O120 C119 1.252 1_556 S
H121 C114 0.930 . S
H122 C115 0.930 . S
C123 C124 1.392 . S
C123 N127 1.328 . S
C123 H129 0.930 . S
C124 C123 1.392 . S
C124 N128 1.331 . S
C125 C126 1.391 . S
C125 N128 1.329 . S
C125 H135 0.930 . S
C126 C125 1.391 . S
C126 N127 1.334 . S
C126 H133 0.930 . S
N127 Zn111 2.119 . S
N127 C123 1.328 . S
N127 C126 1.334 . S
N128 C124 1.331 . S
N128 C125 1.329 . S
H129 C123 0.930 . S
C130 O110 1.257 . S
C130 O131 1.244 1_556 S
O131 C130 1.244 1_554 S
O132 C108 1.257 . S
O132 Zn111 2.019 . S
H133 C126 0.930 . S
H134 C113 0.930 . S
H135 C125 0.930 . S
C136 C137 1.363 1_556 S
C136 C142 1.379 . S
C136 N144 1.356 . S
C137 C136 1.363 1_554 S
C137 C143 1.363 1_455 S
C138 C139 1.363 1_655 S
C138 C143 1.379 . S
C138 N145 1.356 . S
C139 C138 1.363 1_455 S
C139 C142 1.363 1_554 S
N140 C142 1.356 . S
N140 H152 0.984 . S
N140 H153 0.985 . S
N141 C143 1.356 . S
N141 H146 0.984 . S
N141 H147 0.985 . S
C142 C136 1.379 . S
C142 C139 1.363 1_556 S
C142 N140 1.356 . S
C143 C137 1.363 1_655 S
C143 C138 1.379 . S
C143 N141 1.356 . S
N144 C136 1.356 . S
N144 H150 0.984 . S
N144 H151 0.984 . S
N145 C138 1.356 . S
N145 H148 0.984 . S
N145 H149 0.985 . S
H146 N141 0.984 . S
H147 N141 0.985 . S
H148 N145 0.984 . S
H149 N145 0.985 . S
H150 N144 0.984 . S
H151 N144 0.984 . S
H152 N140 0.984 . S
H153 N140 0.985 . S
C154 C155 1.363 . S
C154 C160 1.379 1_545 S
C154 N162 1.356 . S
C155 C154 1.363 . S
C155 C161 1.363 1_554 S
C156 C157 1.363 1_556 S
C156 C161 1.379 1_565 S
C156 N163 1.356 . S
C157 C156 1.363 1_554 S
C157 C160 1.363 . S
N158 C160 1.356 . S
N158 H170 0.984 . S
N158 H171 0.985 . S
N159 C161 1.356 . S
N159 H164 0.984 . S
N159 H165 0.985 . S
C160 C154 1.379 1_565 S
C160 C157 1.363 . S
C160 N158 1.356 . S
C161 C155 1.363 1_556 S
C161 C156 1.379 1_545 S
C161 N159 1.356 . S
N162 C154 1.356 . S
N162 H168 0.984 . S
N162 H169 0.984 . S
N163 C156 1.356 . S
N163 H166 0.984 . S
N163 H167 0.985 . S
H164 N159 0.984 . S
H165 N159 0.985 . S
H166 N163 0.984 . S
H167 N163 0.985 . S
H168 N162 0.984 . S
H169 N162 0.984 . S
H170 N158 0.984 . S
H171 N158 0.985 . S
C172 C173 1.363 1_455 S
C172 C178 1.379 . S
C172 N180 1.356 1_455 S
C173 C172 1.363 1_655 S
C173 C179 1.363 . S
C174 C175 1.363 1_655 S
C174 C179 1.379 . S
C174 N181 1.356 1_655 S
C175 C174 1.363 1_455 S
C175 C178 1.363 . S
N176 C178 1.356 . S
N176 H188 0.984 . S
N176 H189 0.985 . S
N177 C179 1.356 . S
N177 H182 0.984 . S
N177 H183 0.985 . S
C178 C172 1.379 . S
C178 C175 1.363 . S
C178 N176 1.356 . S
C179 C173 1.363 . S
C179 C174 1.379 . S
C179 N177 1.356 . S
N180 C172 1.356 1_655 S
N180 H186 0.984 1_655 S
N180 H187 0.984 . S
N181 C174 1.356 1_455 S
N181 H184 0.984 . S
N181 H185 0.985 1_455 S
H182 N177 0.984 . S
H183 N177 0.985 . S
H184 N181 0.984 . S
H185 N181 0.985 1_655 S
H186 N180 0.984 1_455 S
H187 N180 0.984 . S
H188 N176 0.984 . S
H189 N176 0.985 . S
C190 C191 1.363 . S
C190 C196 1.379 . S
C190 N198 1.356 . S
C191 C190 1.363 . S
C191 C197 1.363 1_655 S
C192 C193 1.363 . S
C192 C197 1.379 . S
C192 N199 1.356 . S
C193 C192 1.363 . S
C193 C196 1.363 1_455 S
N194 C196 1.356 1_455 S
N194 H206 0.984 1_455 S
N194 H207 0.985 . S
N195 C197 1.356 1_655 S
N195 H200 0.984 . S
N195 H201 0.985 1_655 S
C196 C190 1.379 . S
C196 C193 1.363 1_655 S
C196 N194 1.356 1_655 S
C197 C191 1.363 1_455 S
C197 C192 1.379 . S
C197 N195 1.356 1_455 S
N198 C190 1.356 . S
N198 H204 0.984 . S
N198 H205 0.984 . S
N199 C192 1.356 . S
N199 H202 0.984 . S
N199 H203 0.985 . S
H200 N195 0.984 . S
H201 N195 0.985 1_455 S
H202 N199 0.984 . S
H203 N199 0.985 . S
H204 N198 0.984 . S
H205 N198 0.984 . S
H206 N194 0.984 1_655 S
H207 N194 0.985 . S
C208 C209 1.363 . S
C208 C214 1.379 . S
C208 N216 1.356 . S
C209 C208 1.363 . S
C209 C215 1.363 . S
C210 C211 1.363 . S
C210 C215 1.379 . S
C210 N217 1.356 . S
C211 C210 1.363 . S
C211 C214 1.363 . S
N212 C214 1.356 . S
N212 H224 0.984 . S
N212 H225 0.985 . S
N213 C215 1.356 . S
N213 H218 0.984 . S
N213 H219 0.985 . S
C214 C208 1.379 . S
C214 C211 1.363 . S
C214 N212 1.356 . S
C215 C209 1.363 . S
C215 C210 1.379 . S
C215 N213 1.356 . S
N216 C208 1.356 . S
N216 H222 0.984 . S
N216 H223 0.984 . S
N217 C210 1.356 . S
N217 H220 0.984 . S
N217 H221 0.985 . S
H218 N213 0.984 . S
H219 N213 0.985 . S
H220 N217 0.984 . S
H221 N217 0.985 . S
H222 N216 0.984 . S
H223 N216 0.984 . S
H224 N212 0.984 . S
H225 N212 0.985 . S
C226 C227 1.363 . S
C226 C232 1.379 . S
C226 N234 1.356 . S
C227 C226 1.363 . S
C227 C233 1.363 . S
C228 C229 1.363 . S
C228 C233 1.379 . S
C228 N235 1.356 . S
C229 C228 1.363 . S
C229 C232 1.363 . S
N230 C232 1.356 . S
N230 H242 0.984 . S
N230 H243 0.985 . S
N231 C233 1.356 . S
N231 H236 0.984 . S
N231 H237 0.985 . S
C232 C226 1.379 . S
C232 C229 1.363 . S
C232 N230 1.356 . S
C233 C227 1.363 . S
C233 C228 1.379 . S
C233 N231 1.356 . S
N234 C226 1.356 . S
N234 H240 0.984 . S
N234 H241 0.984 . S
N235 C228 1.356 . S
N235 H238 0.984 . S
N235 H239 0.985 . S
H236 N231 0.984 . S
H237 N231 0.985 . S
H238 N235 0.984 . S
H239 N235 0.985 . S
H240 N234 0.984 . S
H241 N234 0.984 . S
H242 N230 0.984 . S
H243 N230 0.985 . S
C244 C245 1.363 1_554 S
C244 C250 1.379 . S
C244 N252 1.356 . S
C245 C244 1.363 1_556 S
C245 C251 1.363 . S
C246 C247 1.363 1_556 S
C246 C251 1.379 . S
C246 N253 1.356 . S
C247 C246 1.363 1_554 S
C247 C250 1.363 . S
N248 C250 1.356 . S
N248 H260 0.984 . S
N248 H261 0.985 . S
N249 C251 1.356 . S
N249 H254 0.984 . S
N249 H255 0.985 . S
C250 C244 1.379 . S
C250 C247 1.363 . S
C250 N248 1.356 . S
C251 C245 1.363 . S
C251 C246 1.379 . S
C251 N249 1.356 . S
N252 C244 1.356 . S
N252 H258 0.984 . S
N252 H259 0.984 . S
N253 C246 1.356 . S
N253 H256 0.984 . S
N253 H257 0.985 . S
H254 N249 0.984 . S
H255 N249 0.985 . S
H256 N253 0.984 . S
H257 N253 0.985 . S
H258 N252 0.984 . S
H259 N252 0.984 . S
H260 N248 0.984 . S
H261 N248 0.985 . S
C262 C263 1.363 . S
C262 C268 1.379 . S
C262 N270 1.356 . S
C263 C262 1.363 . S
C263 C269 1.363 1_554 S
C264 C265 1.363 . S
C264 C269 1.379 . S
C264 N271 1.356 . S
C265 C264 1.363 . S
C265 C268 1.363 1_556 S
N266 C268 1.356 . S
N266 H278 0.984 . S
N266 H279 0.985 . S
N267 C269 1.356 . S
N267 H272 0.984 . S
N267 H273 0.985 . S
C268 C262 1.379 . S
C268 C265 1.363 1_554 S
C268 N266 1.356 . S
C269 C263 1.363 1_556 S
C269 C264 1.379 . S
C269 N267 1.356 . S
N270 C262 1.356 . S
N270 H276 0.984 . S
N270 H277 0.984 . S
N271 C264 1.356 . S
N271 H274 0.984 . S
N271 H275 0.985 . S
H272 N267 0.984 . S
H273 N267 0.985 . S
H274 N271 0.984 . S
H275 N271 0.985 . S
H276 N270 0.984 . S
H277 N270 0.984 . S
H278 N266 0.984 . S
H279 N266 0.985 . S
C280 C281 1.363 1_554 S
C280 C286 1.379 1_455 S
C280 N288 1.356 . S
C281 C280 1.363 1_556 S
C281 C287 1.363 . S
C282 C283 1.363 1_556 S
C282 C287 1.379 1_655 S
C282 N289 1.356 . S
C283 C282 1.363 1_554 S
C283 C286 1.363 . S
N284 C286 1.356 . S
N284 H296 0.984 . S
N284 H297 0.985 . S
N285 C287 1.356 . S
N285 H290 0.984 . S
N285 H291 0.985 . S
C286 C280 1.379 1_655 S
C286 C283 1.363 . S
C286 N284 1.356 . S
C287 C281 1.363 . S
C287 C282 1.379 1_455 S
C287 N285 1.356 . S
N288 C280 1.356 . S
N288 H294 0.984 . S
N288 H295 0.984 . S
N289 C282 1.356 . S
N289 H292 0.984 . S
N289 H293 0.985 . S
H290 N285 0.984 . S
H291 N285 0.985 . S
H292 N289 0.984 . S
H293 N289 0.985 . S
H294 N288 0.984 . S
H295 N288 0.984 . S
H296 N284 0.984 . S
H297 N284 0.985 . S
C298 C299 1.363 1_556 S
C298 C304 1.379 1_455 S
C298 N306 1.356 . S
C299 C298 1.363 1_554 S
C299 C305 1.363 . S
C300 C301 1.363 1_554 S
C300 C305 1.379 1_655 S
C300 N307 1.356 . S
C301 C300 1.363 1_556 S
C301 C304 1.363 . S
N302 C304 1.356 . S
N302 H314 0.984 . S
N302 H315 0.985 . S
N303 C305 1.356 . S
N303 H308 0.984 . S
N303 H309 0.985 . S
C304 C298 1.379 1_655 S
C304 C301 1.363 . S
C304 N302 1.356 . S
C305 C299 1.363 . S
C305 C300 1.379 1_455 S
C305 N303 1.356 . S
N306 C298 1.356 . S
N306 H312 0.984 . S
N306 H313 0.984 . S
N307 C300 1.356 . S
N307 H310 0.984 . S
N307 H311 0.985 . S
H308 N303 0.984 . S
H309 N303 0.985 . S
H310 N307 0.984 . S
H311 N307 0.985 . S
H312 N306 0.984 . S
H313 N306 0.984 . S
H314 N302 0.984 . S
H315 N302 0.985 . S
C316 C317 1.363 1_556 S
C316 C322 1.379 . S
C316 N324 1.356 . S
C317 C316 1.363 1_554 S
C317 C323 1.363 . S
C318 C319 1.363 . S
C318 C323 1.379 . S
C318 N325 1.356 . S
C319 C318 1.363 . S
C319 C322 1.363 1_554 S
N320 C322 1.356 . S
N320 H332 0.984 . S
N320 H333 0.985 . S
N321 C323 1.356 . S
N321 H326 0.984 . S
N321 H327 0.985 . S
C322 C316 1.379 . S
C322 C319 1.363 1_556 S
C322 N320 1.356 . S
C323 C317 1.363 . S
C323 C318 1.379 . S
C323 N321 1.356 . S
N324 C316 1.356 . S
N324 H330 0.984 . S
N324 H331 0.984 . S
N325 C318 1.356 . S
N325 H328 0.984 . S
N325 H329 0.985 . S
H326 N321 0.984 . S
H327 N321 0.985 . S
H328 N325 0.984 . S
H329 N325 0.985 . S
H330 N324 0.984 . S
H331 N324 0.984 . S
H332 N320 0.984 . S
H333 N320 0.985 . S
C334 C335 1.363 . S
C334 C340 1.379 . S
C334 N342 1.356 . S
C335 C334 1.363 . S
C335 C341 1.363 1_554 S
C336 C337 1.363 1_556 S
C336 C341 1.379 . S
C336 N343 1.356 . S
C337 C336 1.363 1_554 S
C337 C340 1.363 . S
N338 C340 1.356 . S
N338 H350 0.984 . S
N338 H351 0.985 . S
N339 C341 1.356 . S
N339 H344 0.984 . S
N339 H345 0.985 . S
C340 C334 1.379 . S
C340 C337 1.363 . S
C340 N338 1.356 . S
C341 C335 1.363 1_556 S
C341 C336 1.379 . S
C341 N339 1.356 . S
N342 C334 1.356 . S
N342 H348 0.984 . S
N342 H349 0.984 . S
N343 C336 1.356 . S
N343 H346 0.984 . S
N343 H347 0.985 . S
H344 N339 0.984 . S
H345 N339 0.985 . S
H346 N343 0.984 . S
H347 N343 0.985 . S
H348 N342 0.984 . S
H349 N342 0.984 . S
H350 N338 0.984 . S
H351 N338 0.985 . S
C352 C353 1.363 . S
C352 C358 1.379 . S
C352 N360 1.356 . S
C353 C352 1.363 . S
C353 C359 1.363 1_556 S
C354 C355 1.363 1_554 S
C354 C359 1.379 . S
C354 N361 1.356 . S
C355 C354 1.363 1_556 S
C355 C358 1.363 . S
N356 C358 1.356 . S
N356 H368 0.984 . S
N356 H369 0.985 . S
N357 C359 1.356 . S
N357 H362 0.984 . S
N357 H363 0.985 . S
C358 C352 1.379 . S
C358 C355 1.363 . S
C358 N356 1.356 . S
C359 C353 1.363 1_554 S
C359 C354 1.379 . S
C359 N357 1.356 . S
N360 C352 1.356 . S
N360 H366 0.984 . S
N360 H367 0.984 . S
N361 C354 1.356 . S
N361 H364 0.984 . S
N361 H365 0.985 . S
H362 N357 0.984 . S
H363 N357 0.985 . S
H364 N361 0.984 . S
H365 N361 0.985 . S
H366 N360 0.984 . S
H367 N360 0.984 . S
H368 N356 0.984 . S
H369 N356 0.985 . S
C370 C371 1.363 . S
C370 C376 1.379 . S
C370 N378 1.356 . S
C371 C370 1.363 . S
C371 C377 1.363 1_556 S
C372 C373 1.363 1_554 S
C372 C377 1.379 . S
C372 N379 1.356 . S
C373 C372 1.363 1_556 S
C373 C376 1.363 . S
N374 C376 1.356 . S
N374 H386 0.984 . S
N374 H387 0.985 . S
N375 C377 1.356 . S
N375 H380 0.984 . S
N375 H381 0.985 . S
C376 C370 1.379 . S
C376 C373 1.363 . S
C376 N374 1.356 . S
C377 C371 1.363 1_554 S
C377 C372 1.379 . S
C377 N375 1.356 . S
N378 C370 1.356 . S
N378 H384 0.984 . S
N378 H385 0.984 . S
N379 C372 1.356 . S
N379 H382 0.984 . S
N379 H383 0.985 . S
H380 N375 0.984 . S
H381 N375 0.985 . S
H382 N379 0.984 . S
H383 N379 0.985 . S
H384 N378 0.984 . S
H385 N378 0.984 . S
H386 N374 0.984 . S
H387 N374 0.985 . S
C137 C17 1.534 . S
C139 C51 1.534 . S
C155 C119 1.534 . S
C157 C85 1.534 . S
C173 C22 1.928 . S
C175 C15 1.928 . S
C191 C56 1.928 . S
C193 C49 1.928 . S
C209 C90 1.928 . S
C211 C83 1.928 . S
C227 C117 1.928 . S
C229 C124 1.928 . S
C245 C6 1.340 . S
C247 C28 1.340 . S
C263 C40 1.340 . S
C265 C62 1.340 . S
C281 C74 1.340 . S
C283 C96 1.340 . S
C299 C108 1.340 . S
C301 C130 1.340 . S
C317 C103 1.832 . S
C319 C3 1.831 . S
C335 C71 1.832 . S
C337 C35 1.833 . S
C353 C69 1.832 . S
C355 C37 1.831 . S
C371 C105 1.832 . S
C373 C1 1.833 . S
