# Generated by pormake.
# Topology bcu-k, (6)-cn, num edge types: 1
# Building blocks:
#     Node 0, Type 0, BuildingBlock: IZENUY_clean_sbu_0, # of connection points: 6
#     Node 1, Type 0, BuildingBlock: IZENUY_clean_sbu_0, # of connection points: 6
#     Node 2, Type 0, BuildingBlock: IZENUY_clean_sbu_0, # of connection points: 6
#     Node 3, Type 0, BuildingBlock: IZENUY_clean_sbu_0, # of connection points: 6
#     Node 4, Type 0, BuildingBlock: IZENUY_clean_sbu_0, # of connection points: 6
#     Node 5, Type 0, BuildingBlock: IZENUY_clean_sbu_0, # of connection points: 6
#     Node 6, Type 0, BuildingBlock: IZENUY_clean_sbu_0, # of connection points: 6
#     Node 7, Type 0, BuildingBlock: IZENUY_clean_sbu_0, # of connection points: 6
#     Node 8, Type 0, BuildingBlock: IZENUY_clean_sbu_0, # of connection points: 6
#     Node 9, Type 0, BuildingBlock: IZENUY_clean_sbu_0, # of connection points: 6
#     Node 10, Type 0, BuildingBlock: IZENUY_clean_sbu_0, # of connection points: 6
#     Node 11, Type 0, BuildingBlock: IZENUY_clean_sbu_0, # of connection points: 6
#     Node 12, Type 0, BuildingBlock: IZENUY_clean_sbu_0, # of connection points: 6
#     Node 13, Type 0, BuildingBlock: IZENUY_clean_sbu_0, # of connection points: 6
#     Node 14, Type 0, BuildingBlock: IZENUY_clean_sbu_0, # of connection points: 6
#     Node 15, Type 0, BuildingBlock: IZENUY_clean_sbu_0, # of connection points: 6
#     Node 16, Type 0, BuildingBlock: IZENUY_clean_sbu_0, # of connection points: 6
#     Node 17, Type 0, BuildingBlock: IZENUY_clean_sbu_0, # of connection points: 6
#     Node 18, Type 0, BuildingBlock: IZENUY_clean_sbu_0, # of connection points: 6
#     Node 19, Type 0, BuildingBlock: IZENUY_clean_sbu_0, # of connection points: 6
#     Node 20, Type 0, BuildingBlock: IZENUY_clean_sbu_0, # of connection points: 6
#     Node 21, Type 0, BuildingBlock: IZENUY_clean_sbu_0, # of connection points: 6
#     Node 22, Type 0, BuildingBlock: IZENUY_clean_sbu_0, # of connection points: 6
#     Node 23, Type 0, BuildingBlock: IZENUY_clean_sbu_0, # of connection points: 6
#     Node 24, Type 0, BuildingBlock: IZENUY_clean_sbu_0, # of connection points: 6
#     Node 25, Type 0, BuildingBlock: IZENUY_clean_sbu_0, # of connection points: 6
#     Node 26, Type 0, BuildingBlock: IZENUY_clean_sbu_0, # of connection points: 6
#     Node 27, Type 0, BuildingBlock: IZENUY_clean_sbu_0, # of connection points: 6
#     Node 28, Type 0, BuildingBlock: IZENUY_clean_sbu_0, # of connection points: 6
#     Node 29, Type 0, BuildingBlock: IZENUY_clean_sbu_0, # of connection points: 6
#     Node 30, Type 0, BuildingBlock: IZENUY_clean_sbu_0, # of connection points: 6
#     Node 31, Type 0, BuildingBlock: IZENUY_clean_sbu_0, # of connection points: 6
#     Node 32, Type 0, BuildingBlock: IZENUY_clean_sbu_0, # of connection points: 6
#     Node 33, Type 0, BuildingBlock: IZENUY_clean_sbu_0, # of connection points: 6
#     Node 34, Type 0, BuildingBlock: IZENUY_clean_sbu_0, # of connection points: 6
#     Node 35, Type 0, BuildingBlock: IZENUY_clean_sbu_0, # of connection points: 6
#     Node 36, Type 0, BuildingBlock: IZENUY_clean_sbu_0, # of connection points: 6
#     Node 37, Type 0, BuildingBlock: IZENUY_clean_sbu_0, # of connection points: 6
#     Node 38, Type 0, BuildingBlock: IZENUY_clean_sbu_0, # of connection points: 6
#     Node 39, Type 0, BuildingBlock: IZENUY_clean_sbu_0, # of connection points: 6
#     Node 40, Type 0, BuildingBlock: IZENUY_clean_sbu_0, # of connection points: 6
#     Node 41, Type 0, BuildingBlock: IZENUY_clean_sbu_0, # of connection points: 6
#     Node 42, Type 0, BuildingBlock: IZENUY_clean_sbu_0, # of connection points: 6
#     Node 43, Type 0, BuildingBlock: IZENUY_clean_sbu_0, # of connection points: 6
#     Node 44, Type 0, BuildingBlock: IZENUY_clean_sbu_0, # of connection points: 6
#     Node 45, Type 0, BuildingBlock: IZENUY_clean_sbu_0, # of connection points: 6
#     Node 46, Type 0, BuildingBlock: IZENUY_clean_sbu_0, # of connection points: 6
#     Node 47, Type 0, BuildingBlock: IZENUY_clean_sbu_0, # of connection points: 6
#     Edge 48, Type (0, 0), BuildingBlock: XIVTED_clean_linker_0, # of connection points: 2
#     Edge 49, Type (0, 0), BuildingBlock: XIVTED_clean_linker_0, # of connection points: 2
#     Edge 50, Type (0, 0), BuildingBlock: XIVTED_clean_linker_0, # of connection points: 2
#     Edge 51, Type (0, 0), BuildingBlock: XIVTED_clean_linker_0, # of connection points: 2
#     Edge 52, Type (0, 0), BuildingBlock: XIVTED_clean_linker_0, # of connection points: 2
#     Edge 53, Type (0, 0), BuildingBlock: XIVTED_clean_linker_0, # of connection points: 2
#     Edge 54, Type (0, 0), BuildingBlock: XIVTED_clean_linker_0, # of connection points: 2
#     Edge 55, Type (0, 0), BuildingBlock: XIVTED_clean_linker_0, # of connection points: 2
#     Edge 56, Type (0, 0), BuildingBlock: XIVTED_clean_linker_0, # of connection points: 2
#     Edge 57, Type (0, 0), BuildingBlock: XIVTED_clean_linker_0, # of connection points: 2
#     Edge 58, Type (0, 0), BuildingBlock: XIVTED_clean_linker_0, # of connection points: 2
#     Edge 59, Type (0, 0), BuildingBlock: XIVTED_clean_linker_0, # of connection points: 2
#     Edge 60, Type (0, 0), BuildingBlock: XIVTED_clean_linker_0, # of connection points: 2
#     Edge 61, Type (0, 0), BuildingBlock: XIVTED_clean_linker_0, # of connection points: 2
#     Edge 62, Type (0, 0), BuildingBlock: XIVTED_clean_linker_0, # of connection points: 2
#     Edge 63, Type (0, 0), BuildingBlock: XIVTED_clean_linker_0, # of connection points: 2
#     Edge 64, Type (0, 0), BuildingBlock: XIVTED_clean_linker_0, # of connection points: 2
#     Edge 65, Type (0, 0), BuildingBlock: XIVTED_clean_linker_0, # of connection points: 2
#     Edge 66, Type (0, 0), BuildingBlock: XIVTED_clean_linker_0, # of connection points: 2
#     Edge 67, Type (0, 0), BuildingBlock: XIVTED_clean_linker_0, # of connection points: 2
#     Edge 68, Type (0, 0), BuildingBlock: XIVTED_clean_linker_0, # of connection points: 2
#     Edge 69, Type (0, 0), BuildingBlock: XIVTED_clean_linker_0, # of connection points: 2
#     Edge 70, Type (0, 0), BuildingBlock: XIVTED_clean_linker_0, # of connection points: 2
#     Edge 71, Type (0, 0), BuildingBlock: XIVTED_clean_linker_0, # of connection points: 2
#     Edge 72, Type (0, 0), BuildingBlock: XIVTED_clean_linker_0, # of connection points: 2
#     Edge 73, Type (0, 0), BuildingBlock: XIVTED_clean_linker_0, # of connection points: 2
#     Edge 74, Type (0, 0), BuildingBlock: XIVTED_clean_linker_0, # of connection points: 2
#     Edge 75, Type (0, 0), BuildingBlock: XIVTED_clean_linker_0, # of connection points: 2
#     Edge 76, Type (0, 0), BuildingBlock: XIVTED_clean_linker_0, # of connection points: 2
#     Edge 77, Type (0, 0), BuildingBlock: XIVTED_clean_linker_0, # of connection points: 2
#     Edge 78, Type (0, 0), BuildingBlock: XIVTED_clean_linker_0, # of connection points: 2
#     Edge 79, Type (0, 0), BuildingBlock: XIVTED_clean_linker_0, # of connection points: 2
#     Edge 80, Type (0, 0), BuildingBlock: XIVTED_clean_linker_0, # of connection points: 2
#     Edge 81, Type (0, 0), BuildingBlock: XIVTED_clean_linker_0, # of connection points: 2
#     Edge 82, Type (0, 0), BuildingBlock: XIVTED_clean_linker_0, # of connection points: 2
#     Edge 83, Type (0, 0), BuildingBlock: XIVTED_clean_linker_0, # of connection points: 2
#     Edge 84, Type (0, 0), BuildingBlock: XIVTED_clean_linker_0, # of connection points: 2
#     Edge 85, Type (0, 0), BuildingBlock: XIVTED_clean_linker_0, # of connection points: 2
#     Edge 86, Type (0, 0), BuildingBlock: XIVTED_clean_linker_0, # of connection points: 2
#     Edge 87, Type (0, 0), BuildingBlock: XIVTED_clean_linker_0, # of connection points: 2
#     Edge 88, Type (0, 0), BuildingBlock: XIVTED_clean_linker_0, # of connection points: 2
#     Edge 89, Type (0, 0), BuildingBlock: XIVTED_clean_linker_0, # of connection points: 2
#     Edge 90, Type (0, 0), BuildingBlock: XIVTED_clean_linker_0, # of connection points: 2
#     Edge 91, Type (0, 0), BuildingBlock: XIVTED_clean_linker_0, # of connection points: 2
#     Edge 92, Type (0, 0), BuildingBlock: XIVTED_clean_linker_0, # of connection points: 2
#     Edge 93, Type (0, 0), BuildingBlock: XIVTED_clean_linker_0, # of connection points: 2
#     Edge 94, Type (0, 0), BuildingBlock: XIVTED_clean_linker_0, # of connection points: 2
#     Edge 95, Type (0, 0), BuildingBlock: XIVTED_clean_linker_0, # of connection points: 2
#     Edge 96, Type (0, 0), BuildingBlock: XIVTED_clean_linker_0, # of connection points: 2
#     Edge 97, Type (0, 0), BuildingBlock: XIVTED_clean_linker_0, # of connection points: 2
#     Edge 98, Type (0, 0), BuildingBlock: XIVTED_clean_linker_0, # of connection points: 2
#     Edge 99, Type (0, 0), BuildingBlock: XIVTED_clean_linker_0, # of connection points: 2
#     Edge 100, Type (0, 0), BuildingBlock: XIVTED_clean_linker_0, # of connection points: 2
#     Edge 101, Type (0, 0), BuildingBlock: XIVTED_clean_linker_0, # of connection points: 2
#     Edge 102, Type (0, 0), BuildingBlock: XIVTED_clean_linker_0, # of connection points: 2
#     Edge 103, Type (0, 0), BuildingBlock: XIVTED_clean_linker_0, # of connection points: 2
#     Edge 104, Type (0, 0), BuildingBlock: XIVTED_clean_linker_0, # of connection points: 2
#     Edge 105, Type (0, 0), BuildingBlock: XIVTED_clean_linker_0, # of connection points: 2
#     Edge 106, Type (0, 0), BuildingBlock: XIVTED_clean_linker_0, # of connection points: 2
#     Edge 107, Type (0, 0), BuildingBlock: XIVTED_clean_linker_0, # of connection points: 2
#     Edge 108, Type (0, 0), BuildingBlock: XIVTED_clean_linker_0, # of connection points: 2
#     Edge 109, Type (0, 0), BuildingBlock: XIVTED_clean_linker_0, # of connection points: 2
#     Edge 110, Type (0, 0), BuildingBlock: XIVTED_clean_linker_0, # of connection points: 2
#     Edge 111, Type (0, 0), BuildingBlock: XIVTED_clean_linker_0, # of connection points: 2
#     Edge 112, Type (0, 0), BuildingBlock: XIVTED_clean_linker_0, # of connection points: 2
#     Edge 113, Type (0, 0), BuildingBlock: XIVTED_clean_linker_0, # of connection points: 2
#     Edge 114, Type (0, 0), BuildingBlock: XIVTED_clean_linker_0, # of connection points: 2
#     Edge 115, Type (0, 0), BuildingBlock: XIVTED_clean_linker_0, # of connection points: 2
#     Edge 116, Type (0, 0), BuildingBlock: XIVTED_clean_linker_0, # of connection points: 2
#     Edge 117, Type (0, 0), BuildingBlock: XIVTED_clean_linker_0, # of connection points: 2
#     Edge 118, Type (0, 0), BuildingBlock: XIVTED_clean_linker_0, # of connection points: 2
#     Edge 119, Type (0, 0), BuildingBlock: XIVTED_clean_linker_0, # of connection points: 2
#     Edge 120, Type (0, 0), BuildingBlock: XIVTED_clean_linker_0, # of connection points: 2
#     Edge 121, Type (0, 0), BuildingBlock: XIVTED_clean_linker_0, # of connection points: 2
#     Edge 122, Type (0, 0), BuildingBlock: XIVTED_clean_linker_0, # of connection points: 2
#     Edge 123, Type (0, 0), BuildingBlock: XIVTED_clean_linker_0, # of connection points: 2
#     Edge 124, Type (0, 0), BuildingBlock: XIVTED_clean_linker_0, # of connection points: 2
#     Edge 125, Type (0, 0), BuildingBlock: XIVTED_clean_linker_0, # of connection points: 2
#     Edge 126, Type (0, 0), BuildingBlock: XIVTED_clean_linker_0, # of connection points: 2
#     Edge 127, Type (0, 0), BuildingBlock: XIVTED_clean_linker_0, # of connection points: 2
#     Edge 128, Type (0, 0), BuildingBlock: XIVTED_clean_linker_0, # of connection points: 2
#     Edge 129, Type (0, 0), BuildingBlock: XIVTED_clean_linker_0, # of connection points: 2
#     Edge 130, Type (0, 0), BuildingBlock: XIVTED_clean_linker_0, # of connection points: 2
#     Edge 131, Type (0, 0), BuildingBlock: XIVTED_clean_linker_0, # of connection points: 2
#     Edge 132, Type (0, 0), BuildingBlock: XIVTED_clean_linker_0, # of connection points: 2
#     Edge 133, Type (0, 0), BuildingBlock: XIVTED_clean_linker_0, # of connection points: 2
#     Edge 134, Type (0, 0), BuildingBlock: XIVTED_clean_linker_0, # of connection points: 2
#     Edge 135, Type (0, 0), BuildingBlock: XIVTED_clean_linker_0, # of connection points: 2
#     Edge 136, Type (0, 0), BuildingBlock: XIVTED_clean_linker_0, # of connection points: 2
#     Edge 137, Type (0, 0), BuildingBlock: XIVTED_clean_linker_0, # of connection points: 2
#     Edge 138, Type (0, 0), BuildingBlock: XIVTED_clean_linker_0, # of connection points: 2
#     Edge 139, Type (0, 0), BuildingBlock: XIVTED_clean_linker_0, # of connection points: 2
#     Edge 140, Type (0, 0), BuildingBlock: XIVTED_clean_linker_0, # of connection points: 2
#     Edge 141, Type (0, 0), BuildingBlock: XIVTED_clean_linker_0, # of connection points: 2
#     Edge 142, Type (0, 0), BuildingBlock: XIVTED_clean_linker_0, # of connection points: 2
#     Edge 143, Type (0, 0), BuildingBlock: XIVTED_clean_linker_0, # of connection points: 2
#     Edge 144, Type (0, 0), BuildingBlock: XIVTED_clean_linker_0, # of connection points: 2
#     Edge 145, Type (0, 0), BuildingBlock: XIVTED_clean_linker_0, # of connection points: 2
#     Edge 146, Type (0, 0), BuildingBlock: XIVTED_clean_linker_0, # of connection points: 2
#     Edge 147, Type (0, 0), BuildingBlock: XIVTED_clean_linker_0, # of connection points: 2
#     Edge 148, Type (0, 0), BuildingBlock: XIVTED_clean_linker_0, # of connection points: 2
#     Edge 149, Type (0, 0), BuildingBlock: XIVTED_clean_linker_0, # of connection points: 2
#     Edge 150, Type (0, 0), BuildingBlock: XIVTED_clean_linker_0, # of connection points: 2
#     Edge 151, Type (0, 0), BuildingBlock: XIVTED_clean_linker_0, # of connection points: 2
#     Edge 152, Type (0, 0), BuildingBlock: XIVTED_clean_linker_0, # of connection points: 2
#     Edge 153, Type (0, 0), BuildingBlock: XIVTED_clean_linker_0, # of connection points: 2
#     Edge 154, Type (0, 0), BuildingBlock: XIVTED_clean_linker_0, # of connection points: 2
#     Edge 155, Type (0, 0), BuildingBlock: XIVTED_clean_linker_0, # of connection points: 2
#     Edge 156, Type (0, 0), BuildingBlock: XIVTED_clean_linker_0, # of connection points: 2
#     Edge 157, Type (0, 0), BuildingBlock: XIVTED_clean_linker_0, # of connection points: 2
#     Edge 158, Type (0, 0), BuildingBlock: XIVTED_clean_linker_0, # of connection points: 2
#     Edge 159, Type (0, 0), BuildingBlock: XIVTED_clean_linker_0, # of connection points: 2
#     Edge 160, Type (0, 0), BuildingBlock: XIVTED_clean_linker_0, # of connection points: 2
#     Edge 161, Type (0, 0), BuildingBlock: XIVTED_clean_linker_0, # of connection points: 2
#     Edge 162, Type (0, 0), BuildingBlock: XIVTED_clean_linker_0, # of connection points: 2
#     Edge 163, Type (0, 0), BuildingBlock: XIVTED_clean_linker_0, # of connection points: 2
#     Edge 164, Type (0, 0), BuildingBlock: XIVTED_clean_linker_0, # of connection points: 2
#     Edge 165, Type (0, 0), BuildingBlock: XIVTED_clean_linker_0, # of connection points: 2
#     Edge 166, Type (0, 0), BuildingBlock: XIVTED_clean_linker_0, # of connection points: 2
#     Edge 167, Type (0, 0), BuildingBlock: XIVTED_clean_linker_0, # of connection points: 2
#     Edge 168, Type (0, 0), BuildingBlock: XIVTED_clean_linker_0, # of connection points: 2
#     Edge 169, Type (0, 0), BuildingBlock: XIVTED_clean_linker_0, # of connection points: 2
#     Edge 170, Type (0, 0), BuildingBlock: XIVTED_clean_linker_0, # of connection points: 2
#     Edge 171, Type (0, 0), BuildingBlock: XIVTED_clean_linker_0, # of connection points: 2
#     Edge 172, Type (0, 0), BuildingBlock: XIVTED_clean_linker_0, # of connection points: 2
#     Edge 173, Type (0, 0), BuildingBlock: XIVTED_clean_linker_0, # of connection points: 2
#     Edge 174, Type (0, 0), BuildingBlock: XIVTED_clean_linker_0, # of connection points: 2
#     Edge 175, Type (0, 0), BuildingBlock: XIVTED_clean_linker_0, # of connection points: 2
#     Edge 176, Type (0, 0), BuildingBlock: XIVTED_clean_linker_0, # of connection points: 2
#     Edge 177, Type (0, 0), BuildingBlock: XIVTED_clean_linker_0, # of connection points: 2
#     Edge 178, Type (0, 0), BuildingBlock: XIVTED_clean_linker_0, # of connection points: 2
#     Edge 179, Type (0, 0), BuildingBlock: XIVTED_clean_linker_0, # of connection points: 2
#     Edge 180, Type (0, 0), BuildingBlock: XIVTED_clean_linker_0, # of connection points: 2
#     Edge 181, Type (0, 0), BuildingBlock: XIVTED_clean_linker_0, # of connection points: 2
#     Edge 182, Type (0, 0), BuildingBlock: XIVTED_clean_linker_0, # of connection points: 2
#     Edge 183, Type (0, 0), BuildingBlock: XIVTED_clean_linker_0, # of connection points: 2
#     Edge 184, Type (0, 0), BuildingBlock: XIVTED_clean_linker_0, # of connection points: 2
#     Edge 185, Type (0, 0), BuildingBlock: XIVTED_clean_linker_0, # of connection points: 2
#     Edge 186, Type (0, 0), BuildingBlock: XIVTED_clean_linker_0, # of connection points: 2
#     Edge 187, Type (0, 0), BuildingBlock: XIVTED_clean_linker_0, # of connection points: 2
#     Edge 188, Type (0, 0), BuildingBlock: XIVTED_clean_linker_0, # of connection points: 2
#     Edge 189, Type (0, 0), BuildingBlock: XIVTED_clean_linker_0, # of connection points: 2
#     Edge 190, Type (0, 0), BuildingBlock: XIVTED_clean_linker_0, # of connection points: 2
#     Edge 191, Type (0, 0), BuildingBlock: XIVTED_clean_linker_0, # of connection points: 2
# Relax obj value: 0.432
# Max RMSD: 0.167
# Mean RMSD: 0.166
data_MOF--net-bcu-k--node1-IZENUY_clean_sbu_0--edge1-XIVTED_clean_linker_0
_symmetry_space_group_name_H-M    P1
_symmetry_Int_Tables_number       1
_symmetry_cell_setting            triclinic
loop_
_symmetry_equiv_pos_as_xyz
'x, y, z'
_cell_length_a     59.292247
_cell_length_b     59.211633
_cell_length_c     59.206283
_cell_angle_alpha  89.996074
_cell_angle_beta   90.001578
_cell_angle_gamma 89.962077
loop_
_atom_site_label
_atom_site_type_symbol
_atom_site_fract_x
_atom_site_fract_y
_atom_site_fract_z
_atom_type_partial_charge
Fe0 Fe 0.12121 0.1235 0.29645 0.0
Fe1 Fe 0.15637 0.15372 0.31901 0.0
O2 O 0.13429 0.13384 0.32124 0.0
Fe3 Fe 0.12558 0.12462 0.34841 0.0
O4 O 0.13207 0.09548 0.34174 0.0
O5 O 0.11639 0.09505 0.30794 0.0
O6 O 0.14766 0.11271 0.28521 0.0
C7 C 0.16506 0.12456 0.28251 0.0
C8 C 0.08441 0.12833 0.32403 0.0
O9 O 0.16666 0.14373 0.2917 0.0
C10 C 0.13208 0.16944 0.35644 0.0
O11 O 0.12387 0.1504 0.28089 0.0
O12 O 0.13794 0.17418 0.3058 0.0
O13 O 0.09575 0.12089 0.34059 0.0
O14 O 0.09386 0.13334 0.30564 0.0
C15 C 0.17314 0.12546 0.35095 0.0
O16 O 0.15061 0.16761 0.34611 0.0
O17 O 0.11819 0.15336 0.35654 0.0
C18 C 0.12727 0.17048 0.28772 0.0
O19 O 0.17568 0.1341 0.33171 0.0
O20 O 0.15424 0.12641 0.36104 0.0
C21 C 0.12498 0.0848 0.3247 0.0
Fe22 Fe 0.84727 0.15661 0.32322 0.0
Fe23 Fe 0.87491 0.12414 0.35229 0.0
O24 O 0.8666 0.13401 0.32522 0.0
Fe25 Fe 0.87739 0.12164 0.30026 0.0
O26 O 0.88892 0.14833 0.29029 0.0
O27 O 0.85807 0.16762 0.2966 0.0
O28 O 0.86693 0.17511 0.33715 0.0
C29 C 0.87483 0.17173 0.35658 0.0
C30 C 0.8309 0.12888 0.29047 0.0
O31 O 0.87329 0.15241 0.36585 0.0
C32 C 0.87108 0.08392 0.32632 0.0
O33 O 0.83264 0.1502 0.34968 0.0
O34 O 0.84584 0.11709 0.35957 0.0
O35 O 0.85108 0.12539 0.28411 0.0
O36 O 0.82683 0.13906 0.30878 0.0
C37 C 0.91528 0.12373 0.32952 0.0
O38 O 0.87828 0.09448 0.3435 0.0
O39 O 0.86682 0.09416 0.30816 0.0
C40 C 0.83015 0.13144 0.35947 0.0
O41 O 0.90433 0.1303 0.3466 0.0
O42 O 0.90532 0.11581 0.31229 0.0
C43 C 0.8774 0.16604 0.28788 0.0
Fe44 Fe 0.87776 0.87707 0.29543 0.0
Fe45 Fe 0.84467 0.84447 0.31775 0.0
O46 O 0.86598 0.86518 0.3202 0.0
Fe47 Fe 0.87511 0.87362 0.34747 0.0
O48 O 0.86773 0.90287 0.34219 0.0
O49 O 0.88179 0.90519 0.30778 0.0
O50 O 0.85036 0.88705 0.28551 0.0
C51 C 0.83347 0.8744 0.28295 0.0
C52 C 0.91567 0.87232 0.32178 0.0
O53 O 0.83344 0.85472 0.29102 0.0
C54 C 0.87002 0.82838 0.35421 0.0
O55 O 0.87583 0.85069 0.27899 0.0
O56 O 0.86379 0.82533 0.30345 0.0
O57 O 0.90461 0.87838 0.33908 0.0
O58 O 0.90588 0.8682 0.30333 0.0
C59 C 0.82761 0.87132 0.35084 0.0
O60 O 0.85132 0.82997 0.34424 0.0
O61 O 0.8835 0.84479 0.35449 0.0
C62 C 0.8739 0.83024 0.28529 0.0
O63 O 0.82483 0.8629 0.33151 0.0
O64 O 0.84676 0.87064 0.36052 0.0
C65 C 0.87377 0.91445 0.32534 0.0
Fe66 Fe 0.12521 0.87458 0.34981 0.0
Fe67 Fe 0.12344 0.87753 0.29778 0.0
O68 O 0.13421 0.86524 0.32279 0.0
Fe69 Fe 0.15424 0.8432 0.32088 0.0
O70 O 0.13483 0.824 0.33415 0.0
O71 O 0.12717 0.84617 0.36298 0.0
O72 O 0.09598 0.86793 0.34363 0.0
C73 C 0.08511 0.87444 0.32647 0.0
C74 C 0.17008 0.86827 0.35769 0.0
O75 O 0.09514 0.88247 0.30935 0.0
C76 C 0.17034 0.87184 0.28879 0.0
O77 O 0.12137 0.90424 0.34132 0.0
O78 O 0.13299 0.90533 0.30602 0.0
O79 O 0.16822 0.84953 0.34775 0.0
O80 O 0.15401 0.8822 0.35757 0.0
C81 C 0.12493 0.83319 0.28513 0.0
O82 O 0.15016 0.87471 0.28209 0.0
O83 O 0.17444 0.86154 0.30704 0.0
C84 C 0.12833 0.9152 0.3243 0.0
O85 O 0.11286 0.85054 0.2875 0.0
O86 O 0.14428 0.83227 0.29389 0.0
C87 C 0.12613 0.82703 0.3533 0.0
Fe88 Fe 0.12492 0.87843 0.6999 0.0
Fe89 Fe 0.15448 0.84305 0.67684 0.0
O90 O 0.13486 0.86541 0.67495 0.0
Fe91 Fe 0.12542 0.87457 0.64803 0.0
O92 O 0.12211 0.90437 0.65632 0.0
O93 O 0.13552 0.9056 0.69093 0.0
O94 O 0.15159 0.87486 0.71545 0.0
C95 C 0.17161 0.8715 0.70859 0.0
C96 C 0.08597 0.87577 0.67211 0.0
O97 O 0.17524 0.86104 0.69035 0.0
C98 C 0.12582 0.82703 0.64481 0.0
O99 O 0.11356 0.85197 0.71065 0.0
O100 O 0.14433 0.83254 0.70397 0.0
O101 O 0.09627 0.86826 0.65501 0.0
O102 O 0.09667 0.8843 0.68858 0.0
C103 C 0.17013 0.86777 0.63973 0.0
O104 O 0.13467 0.82409 0.66389 0.0
O105 O 0.12681 0.84607 0.63499 0.0
C106 C 0.12506 0.8342 0.71289 0.0
O107 O 0.16827 0.84908 0.6498 0.0
O108 O 0.15412 0.88176 0.63975 0.0
C109 C 0.13048 0.91535 0.67269 0.0
Fe110 Fe 0.12183 0.12011 0.70606 0.0
Fe111 Fe 0.15266 0.15606 0.68586 0.0
O112 O 0.13293 0.13412 0.68211 0.0
Fe113 Fe 0.12459 0.12631 0.65441 0.0
O114 O 0.09526 0.13245 0.66048 0.0
O115 O 0.09409 0.11494 0.69327 0.0
O116 O 0.11016 0.14615 0.71751 0.0
C117 C 0.12177 0.16361 0.721 0.0
C118 C 0.12869 0.08445 0.67746 0.0
O119 O 0.14144 0.16536 0.71303 0.0
C120 C 0.16956 0.13324 0.64789 0.0
O121 O 0.14782 0.12271 0.72294 0.0
O122 O 0.17252 0.13703 0.69922 0.0
O123 O 0.12098 0.0961 0.6612 0.0
O124 O 0.13273 0.09336 0.69635 0.0
C125 C 0.12568 0.17411 0.65345 0.0
O126 O 0.16761 0.15123 0.65916 0.0
O127 O 0.15352 0.11937 0.64674 0.0
C128 C 0.16811 0.12582 0.71682 0.0
O129 O 0.13368 0.17593 0.67304 0.0
O130 O 0.1266 0.15546 0.64284 0.0
C131 C 0.08418 0.12421 0.6767 0.0
Fe132 Fe 0.87648 0.12059 0.70022 0.0
Fe133 Fe 0.84626 0.15548 0.67732 0.0
O134 O 0.86592 0.13322 0.67531 0.0
Fe135 Fe 0.8749 0.12382 0.6483 0.0
O136 O 0.8786 0.09418 0.65688 0.0
O137 O 0.8659 0.09327 0.69176 0.0
O138 O 0.85013 0.12411 0.71624 0.0
C139 C 0.82996 0.12733 0.70977 0.0
C140 C 0.91479 0.1233 0.67164 0.0
O141 O 0.82589 0.13757 0.6915 0.0
C142 C 0.87395 0.17131 0.64435 0.0
O143 O 0.88781 0.14724 0.71056 0.0
O144 O 0.85684 0.16639 0.70409 0.0
O145 O 0.90407 0.1305 0.65467 0.0
O146 O 0.90453 0.11482 0.6884 0.0
C147 C 0.83014 0.13036 0.64045 0.0
O148 O 0.86572 0.17442 0.66369 0.0
O149 O 0.87293 0.15208 0.63493 0.0
C150 C 0.87614 0.16488 0.71294 0.0
O151 O 0.83195 0.14898 0.65069 0.0
O152 O 0.84614 0.11635 0.6404 0.0
C153 C 0.87055 0.08337 0.67351 0.0
Fe154 Fe 0.87922 0.87858 0.70676 0.0
Fe155 Fe 0.87555 0.87291 0.65508 0.0
O156 O 0.86792 0.86466 0.68284 0.0
Fe157 Fe 0.84865 0.84231 0.68664 0.0
O158 O 0.82867 0.86086 0.70043 0.0
O159 O 0.8534 0.87559 0.72393 0.0
O160 O 0.86797 0.90534 0.69747 0.0
C161 C 0.87158 0.91444 0.67858 0.0
C162 C 0.88 0.83496 0.72144 0.0
O163 O 0.879 0.903 0.66208 0.0
C164 C 0.87547 0.82524 0.65361 0.0
O165 O 0.90678 0.88404 0.69357 0.0
O166 O 0.90507 0.86709 0.66047 0.0
O167 O 0.86031 0.83294 0.71358 0.0
O168 O 0.89132 0.85259 0.71788 0.0
C169 C 0.83057 0.86533 0.64944 0.0
O170 O 0.87371 0.84394 0.64322 0.0
O171 O 0.86787 0.82296 0.67332 0.0
C172 C 0.91642 0.87511 0.67663 0.0
O173 O 0.84631 0.87954 0.64816 0.0
O174 O 0.83324 0.84713 0.66021 0.0
C175 C 0.8331 0.87215 0.71798 0.0
Fe176 Fe 0.34622 0.12602 0.12436 0.0
Fe177 Fe 0.29441 0.12333 0.11968 0.0
O178 O 0.31878 0.13441 0.13294 0.0
Fe179 Fe 0.31579 0.15419 0.15499 0.0
O180 O 0.34238 0.16889 0.14936 0.0
O181 O 0.35375 0.15493 0.11705 0.0
O182 O 0.33866 0.12213 0.09445 0.0
C183 C 0.32207 0.12949 0.0831 0.0
C184 C 0.34857 0.12706 0.17209 0.0
O185 O 0.30346 0.1337 0.09246 0.0
C186 C 0.28034 0.1239 0.16355 0.0
O187 O 0.34039 0.09676 0.13079 0.0
O188 O 0.30685 0.09533 0.11472 0.0
O189 O 0.32902 0.135 0.17453 0.0
O190 O 0.35857 0.12818 0.15312 0.0
C191 C 0.28427 0.1699 0.12548 0.0
O192 O 0.28342 0.11208 0.14613 0.0
O193 O 0.2888 0.14338 0.16507 0.0
C194 C 0.32385 0.0856 0.12339 0.0
O195 O 0.27793 0.14964 0.12235 0.0
O196 O 0.30211 0.17415 0.13634 0.0
C197 C 0.35299 0.17094 0.131 0.0
Fe198 Fe 0.88168 0.29283 0.12308 0.0
Fe199 Fe 0.8444 0.31197 0.15303 0.0
O200 O 0.86676 0.31633 0.13392 0.0
Fe201 Fe 0.87411 0.34425 0.12597 0.0
O202 O 0.86869 0.33824 0.09646 0.0
O203 O 0.88712 0.30593 0.09552 0.0
O204 O 0.85634 0.28072 0.11069 0.0
C205 C 0.83868 0.27667 0.1218 0.0
C206 C 0.91639 0.32224 0.13068 0.0
O207 O 0.83605 0.28464 0.14141 0.0
C208 C 0.86603 0.3501 0.17087 0.0
O209 O 0.87888 0.27578 0.14895 0.0
O210 O 0.86316 0.29896 0.17335 0.0
O211 O 0.90448 0.33821 0.1228 0.0
O212 O 0.90784 0.30318 0.13469 0.0
C213 C 0.82637 0.34425 0.12589 0.0
O214 O 0.84826 0.33867 0.16826 0.0
O215 O 0.88026 0.35173 0.15516 0.0
C216 C 0.8751 0.28179 0.16917 0.0
O217 O 0.82478 0.32449 0.13353 0.0
O218 O 0.84474 0.3552 0.1275 0.0
C219 C 0.8775 0.32223 0.08549 0.0
Fe220 Fe 0.65005 0.87475 0.1251 0.0
Fe221 Fe 0.70194 0.87767 0.12239 0.0
O222 O 0.67719 0.86565 0.13397 0.0
Fe223 Fe 0.67962 0.84436 0.15474 0.0
O224 O 0.66581 0.82448 0.13648 0.0
O225 O 0.63696 0.84637 0.12791 0.0
O226 O 0.65582 0.86734 0.09591 0.0
C227 C 0.67271 0.87378 0.08465 0.0
C228 C 0.64288 0.86979 0.17037 0.0
O229 O 0.68976 0.88233 0.09431 0.0
C230 C 0.71219 0.87343 0.16902 0.0
O231 O 0.65853 0.90437 0.12056 0.0
O232 O 0.69386 0.90547 0.13196 0.0
O233 O 0.65319 0.8512 0.16922 0.0
O234 O 0.64258 0.8831 0.15379 0.0
C235 C 0.71432 0.83336 0.12449 0.0
O236 O 0.71843 0.87526 0.1486 0.0
O237 O 0.69401 0.86343 0.17395 0.0
C238 C 0.67546 0.9153 0.12779 0.0
O239 O 0.71183 0.85044 0.11202 0.0
O240 O 0.70624 0.83305 0.1442 0.0
C241 C 0.6466 0.82718 0.12786 0.0
Fe242 Fe 0.12381 0.65363 0.12359 0.0
Fe243 Fe 0.1181 0.70538 0.12199 0.0
O244 O 0.13165 0.68107 0.13267 0.0
Fe245 Fe 0.15334 0.68414 0.15282 0.0
O246 O 0.17338 0.67226 0.13326 0.0
O247 O 0.15292 0.64218 0.12554 0.0
O248 O 0.1302 0.66025 0.09439 0.0
C249 C 0.12275 0.67703 0.08358 0.0
C250 C 0.13058 0.64583 0.16841 0.0
O251 O 0.11378 0.69364 0.09367 0.0
C252 C 0.12275 0.71428 0.16899 0.0
O253 O 0.09369 0.66049 0.11978 0.0
O254 O 0.09108 0.69559 0.13164 0.0
O255 O 0.14874 0.65675 0.16652 0.0
O256 O 0.11662 0.64537 0.15239 0.0
C257 C 0.16066 0.72172 0.12442 0.0
O258 O 0.11988 0.72109 0.14882 0.0
O259 O 0.13396 0.69654 0.17301 0.0
C260 C 0.08205 0.67695 0.12699 0.0
O261 O 0.14443 0.71729 0.11148 0.0
O262 O 0.16233 0.71203 0.14332 0.0
C263 C 0.17149 0.65292 0.12457 0.0
Fe264 Fe 0.34964 0.87405 0.87448 0.0
Fe265 Fe 0.29791 0.87942 0.87511 0.0
O266 O 0.32249 0.86615 0.8647 0.0
Fe267 Fe 0.32004 0.84463 0.84425 0.0
O268 O 0.33196 0.82444 0.86366 0.0
O269 O 0.3616 0.84516 0.87202 0.0
O270 O 0.34246 0.86694 0.90337 0.0
C271 C 0.32556 0.8743 0.91407 0.0
C272 C 0.3582 0.8684 0.8297 0.0
O273 O 0.30909 0.88336 0.90381 0.0
C274 C 0.28959 0.87473 0.8278 0.0
O275 O 0.34242 0.90399 0.87887 0.0
O276 O 0.3077 0.90676 0.8661 0.0
O277 O 0.34745 0.85005 0.831 0.0
O278 O 0.35841 0.88199 0.84605 0.0
C279 C 0.28194 0.83665 0.87184 0.0
O280 O 0.2827 0.87786 0.84792 0.0
O281 O 0.3076 0.86395 0.82403 0.0
C282 C 0.32615 0.91577 0.87149 0.0
O283 O 0.28599 0.85284 0.88499 0.0
O284 O 0.29224 0.83502 0.85326 0.0
C285 C 0.35128 0.82633 0.8723 0.0
Fe286 Fe 0.12565 0.34756 0.87573 0.0
Fe287 Fe 0.12413 0.29565 0.88022 0.0
O288 O 0.13425 0.32029 0.86669 0.0
Fe289 Fe 0.15315 0.31785 0.84381 0.0
O290 O 0.16758 0.34469 0.84928 0.0
O291 O 0.15463 0.35539 0.88226 0.0
O292 O 0.12263 0.33976 0.90568 0.0
C293 C 0.13039 0.32321 0.91682 0.0
C294 C 0.12508 0.35046 0.82805 0.0
O295 O 0.13502 0.3048 0.90722 0.0
C296 C 0.12339 0.28159 0.83631 0.0
O297 O 0.09637 0.3412 0.86999 0.0
O298 O 0.09603 0.30751 0.88595 0.0
O299 O 0.13297 0.33094 0.82521 0.0
O300 O 0.12686 0.36029 0.84706 0.0
C301 C 0.17067 0.28631 0.87228 0.0
O302 O 0.1123 0.28442 0.85421 0.0
O303 O 0.14245 0.29073 0.83381 0.0
C304 C 0.08575 0.32427 0.87737 0.0
O305 O 0.1507 0.27977 0.87664 0.0
O306 O 0.17412 0.30428 0.86135 0.0
C307 C 0.17016 0.35503 0.86777 0.0
Fe308 Fe 0.70325 0.11911 0.87627 0.0
Fe309 Fe 0.68105 0.15533 0.84695 0.0
O310 O 0.67864 0.13261 0.8661 0.0
Fe311 Fe 0.65146 0.12363 0.8748 0.0
O312 O 0.65788 0.12947 0.90411 0.0
O313 O 0.69141 0.1133 0.90441 0.0
O314 O 0.71436 0.14518 0.88804 0.0
C315 C 0.71727 0.16297 0.87677 0.0
C316 C 0.67583 0.08251 0.87018 0.0
O317 O 0.70818 0.16532 0.85761 0.0
C318 C 0.64404 0.13126 0.83009 0.0
O319 O 0.71911 0.12266 0.84968 0.0
O320 O 0.69452 0.13755 0.82608 0.0
O321 O 0.65929 0.09368 0.87791 0.0
O322 O 0.69415 0.09212 0.8654 0.0
C323 C 0.64874 0.17124 0.87523 0.0
O324 O 0.65417 0.14985 0.83256 0.0
O325 O 0.64372 0.11695 0.84582 0.0
C326 C 0.71251 0.12671 0.82964 0.0
O327 O 0.66807 0.17405 0.86699 0.0
O328 O 0.63875 0.15233 0.87357 0.0
C329 C 0.67467 0.12179 0.91476 0.0
Fe330 Fe 0.874 0.64961 0.8733 0.0
Fe331 Fe 0.8757 0.7014 0.87795 0.0
O332 O 0.86597 0.67693 0.86392 0.0
Fe333 Fe 0.84798 0.67961 0.84034 0.0
O334 O 0.833 0.65292 0.84525 0.0
O335 O 0.84479 0.64215 0.87867 0.0
O336 O 0.8759 0.65744 0.90331 0.0
C337 C 0.8674 0.67388 0.91404 0.0
C338 C 0.87665 0.64684 0.82586 0.0
O339 O 0.86324 0.6923 0.90424 0.0
C340 C 0.87867 0.71534 0.83414 0.0
O341 O 0.90351 0.6557 0.86875 0.0
O342 O 0.90324 0.68914 0.88515 0.0
O343 O 0.86871 0.66627 0.82258 0.0
O344 O 0.87386 0.63691 0.84466 0.0
C345 C 0.82982 0.71137 0.86826 0.0
O346 O 0.88893 0.71245 0.85254 0.0
O347 O 0.85955 0.70655 0.83082 0.0
C348 C 0.91384 0.67241 0.87697 0.0
O349 O 0.84971 0.71767 0.87309 0.0
O350 O 0.82645 0.69352 0.85707 0.0
C351 C 0.82975 0.64262 0.86367 0.0
Fe352 Fe 0.15603 0.32392 0.15625 0.0
Fe353 Fe 0.12273 0.30088 0.12438 0.0
O354 O 0.13476 0.32586 0.13546 0.0
Fe355 Fe 0.1256 0.35283 0.12598 0.0
O356 O 0.15371 0.36629 0.12895 0.0
O357 O 0.17581 0.33774 0.13787 0.0
O358 O 0.16765 0.29722 0.14604 0.0
C359 C 0.16692 0.28825 0.12669 0.0
C360 C 0.12995 0.36064 0.17112 0.0
O361 O 0.14984 0.29067 0.11424 0.0
C362 C 0.08519 0.32747 0.12891 0.0
O363 O 0.13727 0.30959 0.17574 0.0
O364 O 0.12516 0.28481 0.15088 0.0
O365 O 0.11688 0.36077 0.15438 0.0
O366 O 0.14865 0.35047 0.17033 0.0
C367 C 0.12697 0.3294 0.0861 0.0
O368 O 0.09498 0.30922 0.1338 0.0
O369 O 0.09616 0.34413 0.12116 0.0
C370 C 0.12747 0.29122 0.1712 0.0
O371 O 0.11819 0.31259 0.09603 0.0
O372 O 0.13343 0.34648 0.09707 0.0
C373 C 0.17299 0.35692 0.12921 0.0
Fe374 Fe 0.12497 0.65472 0.87385 0.0
Fe375 Fe 0.11762 0.70624 0.87617 0.0
O376 O 0.13131 0.68247 0.86448 0.0
Fe377 Fe 0.15156 0.68649 0.84307 0.0
O378 O 0.14682 0.65922 0.82926 0.0
O379 O 0.11635 0.6462 0.84555 0.0
O380 O 0.09493 0.66064 0.87942 0.0
C381 C 0.08236 0.67677 0.87302 0.0
C382 C 0.17253 0.65548 0.86959 0.0
O383 O 0.09049 0.69569 0.8678 0.0
C384 C 0.15954 0.7237 0.87178 0.0
O385 O 0.1328 0.66144 0.90271 0.0
O386 O 0.11502 0.69405 0.90448 0.0
O387 O 0.17315 0.67495 0.86103 0.0
O388 O 0.15428 0.64418 0.87009 0.0
C389 C 0.11948 0.71608 0.82917 0.0
O390 O 0.14412 0.71867 0.88547 0.0
O391 O 0.16037 0.7145 0.85257 0.0
C392 C 0.12501 0.67773 0.91404 0.0
O393 O 0.11757 0.72248 0.84957 0.0
O394 O 0.13064 0.69855 0.82431 0.0
C395 C 0.12907 0.64752 0.8286 0.0
Fe396 Fe 0.30085 0.12365 0.87613 0.0
Fe397 Fe 0.32454 0.15354 0.84143 0.0
O398 O 0.32601 0.13387 0.86382 0.0
Fe399 Fe 0.35279 0.12468 0.87364 0.0
O400 O 0.34638 0.09551 0.86723 0.0
O401 O 0.31216 0.09535 0.88181 0.0
O402 O 0.2906 0.11256 0.84933 0.0
C403 C 0.28848 0.12432 0.83171 0.0
C404 C 0.32712 0.12919 0.91382 0.0
O405 O 0.29771 0.14346 0.83028 0.0
C406 C 0.3611 0.16936 0.86689 0.0
O407 O 0.28539 0.15035 0.87255 0.0
O408 O 0.31053 0.17426 0.85916 0.0
O409 O 0.34391 0.12129 0.90321 0.0
O410 O 0.30905 0.13394 0.90367 0.0
C411 C 0.35689 0.12471 0.82625 0.0
O412 O 0.35137 0.16743 0.84803 0.0
O413 O 0.36068 0.15346 0.88099 0.0
C414 C 0.29217 0.17044 0.86934 0.0
O415 O 0.33794 0.13364 0.82278 0.0
O416 O 0.36636 0.12612 0.84544 0.0
C417 C 0.32915 0.08498 0.87393 0.0
Fe418 Fe 0.88035 0.29077 0.87822 0.0
Fe419 Fe 0.84457 0.31216 0.8479 0.0
O420 O 0.86691 0.31516 0.86736 0.0
Fe421 Fe 0.87551 0.3426 0.87567 0.0
O422 O 0.90549 0.33509 0.87898 0.0
O423 O 0.9074 0.29978 0.86753 0.0
O424 O 0.87726 0.27437 0.85197 0.0
C425 C 0.87411 0.28086 0.83176 0.0
C426 C 0.87738 0.32005 0.91607 0.0
O427 O 0.86301 0.29861 0.82762 0.0
C428 C 0.82789 0.34465 0.87571 0.0
O429 O 0.85412 0.27984 0.8899 0.0
O430 O 0.83483 0.28506 0.8588 0.0
O431 O 0.86965 0.33663 0.90511 0.0
O432 O 0.88587 0.30314 0.90606 0.0
C433 C 0.86801 0.34952 0.8308 0.0
O434 O 0.82533 0.32523 0.86746 0.0
O435 O 0.84669 0.35485 0.87414 0.0
C436 C 0.83653 0.27684 0.87838 0.0
O437 O 0.84971 0.33892 0.83319 0.0
O438 O 0.88224 0.35015 0.84658 0.0
C439 C 0.91681 0.31835 0.87187 0.0
Fe440 Fe 0.67705 0.84481 0.84254 0.0
Fe441 Fe 0.6479 0.87315 0.87427 0.0
O442 O 0.675 0.86434 0.86498 0.0
Fe443 Fe 0.69986 0.87482 0.87776 0.0
O444 O 0.71069 0.88582 0.85115 0.0
O445 O 0.70404 0.85499 0.8319 0.0
O446 O 0.66385 0.86466 0.82367 0.0
C447 C 0.64453 0.87293 0.82667 0.0
C448 C 0.70895 0.82797 0.87094 0.0
O449 O 0.63486 0.8715 0.84578 0.0
C450 C 0.67292 0.86944 0.91507 0.0
O451 O 0.65026 0.83069 0.84859 0.0
O452 O 0.64012 0.84424 0.88147 0.0
O453 O 0.71552 0.84807 0.87468 0.0
O454 O 0.69078 0.8242 0.86046 0.0
C455 C 0.67119 0.91321 0.87469 0.0
O456 O 0.65611 0.8767 0.90403 0.0
O457 O 0.69122 0.86479 0.90529 0.0
C458 C 0.6402 0.82844 0.86724 0.0
O459 O 0.65412 0.9024 0.86795 0.0
O460 O 0.68822 0.90313 0.88289 0.0
C461 C 0.71329 0.87407 0.83361 0.0
Fe462 Fe 0.87296 0.65094 0.12386 0.0
Fe463 Fe 0.87573 0.70284 0.12003 0.0
O464 O 0.8641 0.67829 0.13243 0.0
Fe465 Fe 0.84337 0.68106 0.1536 0.0
O466 O 0.86156 0.66744 0.17376 0.0
O467 O 0.86971 0.63821 0.1523 0.0
O468 O 0.90193 0.65676 0.13151 0.0
C469 C 0.91325 0.67341 0.12463 0.0
C470 C 0.82786 0.64395 0.12848 0.0
O471 O 0.90375 0.69042 0.11576 0.0
C472 C 0.82918 0.71326 0.12402 0.0
O473 O 0.87788 0.65897 0.09426 0.0
O474 O 0.86627 0.69423 0.09234 0.0
O475 O 0.82888 0.65459 0.14692 0.0
O476 O 0.84449 0.64333 0.11531 0.0
C477 C 0.8735 0.71608 0.16412 0.0
O478 O 0.84957 0.71946 0.12203 0.0
O479 O 0.82428 0.69522 0.13431 0.0
C480 C 0.87059 0.67562 0.08295 0.0
O481 O 0.88599 0.71325 0.14712 0.0
O482 O 0.85388 0.70785 0.1646 0.0
C483 C 0.86985 0.648 0.1714 0.0
Fe484 Fe 0.32032 0.8451 0.15386 0.0
Fe485 Fe 0.34869 0.87549 0.12332 0.0
O486 O 0.3219 0.86664 0.13332 0.0
Fe487 Fe 0.29677 0.87899 0.12308 0.0
O488 O 0.28185 0.8769 0.15038 0.0
O489 O 0.30746 0.86407 0.17413 0.0
O490 O 0.34766 0.85134 0.16681 0.0
C491 C 0.35784 0.87 0.16802 0.0
C492 C 0.28243 0.83564 0.12647 0.0
O493 O 0.35748 0.8836 0.15169 0.0
C494 C 0.32428 0.875 0.0839 0.0
O495 O 0.3327 0.82531 0.13441 0.0
O496 O 0.36158 0.84693 0.12543 0.0
O497 O 0.2858 0.85198 0.1133 0.0
O498 O 0.29278 0.83453 0.14507 0.0
C499 C 0.32368 0.91636 0.12655 0.0
O500 O 0.34153 0.86828 0.09444 0.0
O501 O 0.30754 0.88336 0.0943 0.0
C502 C 0.35169 0.82787 0.12525 0.0
O503 O 0.3404 0.90521 0.11917 0.0
O504 O 0.3056 0.90667 0.13199 0.0
C505 C 0.28908 0.87425 0.17045 0.0
Fe506 Fe 0.65337 0.12636 0.12451 0.0
Fe507 Fe 0.70489 0.11977 0.12264 0.0
O508 O 0.68097 0.13467 0.13252 0.0
Fe509 Fe 0.68445 0.15805 0.15065 0.0
O510 O 0.65771 0.15398 0.16576 0.0
O511 O 0.6458 0.12102 0.15386 0.0
O512 O 0.66008 0.09607 0.12228 0.0
C513 C 0.67612 0.08459 0.13056 0.0
C514 C 0.65203 0.17402 0.12246 0.0
O515 O 0.69483 0.09368 0.13488 0.0
C516 C 0.72031 0.16312 0.11991 0.0
O517 O 0.65965 0.13097 0.09492 0.0
O518 O 0.69239 0.11326 0.09495 0.0
O519 O 0.67168 0.17646 0.13007 0.0
O520 O 0.64163 0.15544 0.12499 0.0
C521 C 0.71526 0.12904 0.16866 0.0
O522 O 0.71689 0.14485 0.10958 0.0
O523 O 0.71163 0.16669 0.13905 0.0
C524 C 0.67601 0.12222 0.08442 0.0
O525 O 0.72132 0.12384 0.14875 0.0
O526 O 0.69778 0.14075 0.17204 0.0
C527 C 0.64691 0.13588 0.16906 0.0
Fe528 Fe 0.65247 0.6535 0.81232 0.0
Fe529 Fe 0.62481 0.62354 0.84391 0.0
O530 O 0.63301 0.63132 0.81617 0.0
Fe531 Fe 0.62197 0.6171 0.79232 0.0
O532 O 0.64787 0.61984 0.77537 0.0
O533 O 0.6725 0.63472 0.79884 0.0
O534 O 0.66756 0.64874 0.83895 0.0
C535 C 0.66966 0.63073 0.85018 0.0
C536 C 0.6214 0.6606 0.77722 0.0
O537 O 0.65374 0.61675 0.85142 0.0
C538 C 0.58445 0.62123 0.82171 0.0
O539 O 0.63331 0.6732 0.82526 0.0
O540 O 0.62672 0.65264 0.85548 0.0
O541 O 0.61006 0.64297 0.78077 0.0
O542 O 0.64103 0.66271 0.7852 0.0
C543 C 0.62879 0.58157 0.82101 0.0
O544 O 0.59548 0.62957 0.8379 0.0
O545 O 0.59436 0.61183 0.80522 0.0
C546 C 0.62542 0.67124 0.84488 0.0
O547 O 0.62127 0.59336 0.83724 0.0
O548 O 0.63299 0.59041 0.8021 0.0
C549 C 0.66813 0.62331 0.78135 0.0
Fe550 Fe 0.34827 0.65561 0.8111 0.0
Fe551 Fe 0.37503 0.6243 0.8421 0.0
O552 O 0.36716 0.63288 0.8145 0.0
Fe553 Fe 0.37798 0.61896 0.79036 0.0
O554 O 0.3904 0.6448 0.7793 0.0
O555 O 0.35984 0.66507 0.78416 0.0
O556 O 0.36791 0.67458 0.82448 0.0
C557 C 0.37533 0.67207 0.84424 0.0
C558 C 0.33197 0.62628 0.77968 0.0
O559 O 0.3736 0.65316 0.85426 0.0
C560 C 0.37055 0.58293 0.81821 0.0
O561 O 0.33305 0.65067 0.83757 0.0
O562 O 0.34586 0.61804 0.8495 0.0
O563 O 0.35214 0.62254 0.77352 0.0
O564 O 0.32786 0.63758 0.79729 0.0
C565 C 0.41546 0.62164 0.81996 0.0
O566 O 0.37803 0.59421 0.8348 0.0
O567 O 0.36649 0.59229 0.79954 0.0
C568 C 0.33035 0.63254 0.84847 0.0
O569 O 0.40452 0.62981 0.83632 0.0
O570 O 0.40546 0.61289 0.80319 0.0
C571 C 0.37937 0.66268 0.77601 0.0
Fe572 Fe 0.38164 0.37629 0.79541 0.0
Fe573 Fe 0.34633 0.34488 0.81585 0.0
O574 O 0.36785 0.36511 0.81944 0.0
Fe575 Fe 0.37543 0.37388 0.84709 0.0
O576 O 0.36858 0.40299 0.84079 0.0
O577 O 0.38598 0.40431 0.80793 0.0
O578 O 0.35543 0.38727 0.78377 0.0
C579 C 0.33821 0.37531 0.78035 0.0
C580 C 0.41734 0.37064 0.8242 0.0
O581 O 0.33677 0.35568 0.78857 0.0
C582 C 0.36951 0.32884 0.85399 0.0
O583 O 0.37968 0.35005 0.77878 0.0
O584 O 0.36569 0.32524 0.80262 0.0
O585 O 0.40546 0.37822 0.84033 0.0
O586 O 0.4086 0.36615 0.80532 0.0
C587 C 0.32781 0.37189 0.84801 0.0
O588 O 0.35151 0.33028 0.84268 0.0
O589 O 0.38303 0.34518 0.85499 0.0
C590 C 0.37678 0.32973 0.78497 0.0
O591 O 0.32613 0.36363 0.82851 0.0
O592 O 0.34641 0.37129 0.85868 0.0
C593 C 0.37624 0.41408 0.8243 0.0
Fe594 Fe 0.6269 0.37297 0.85268 0.0
Fe595 Fe 0.62349 0.37381 0.80076 0.0
O596 O 0.63596 0.36335 0.82576 0.0
Fe597 Fe 0.6577 0.34308 0.82387 0.0
O598 O 0.65108 0.3293 0.85079 0.0
O599 O 0.61893 0.34447 0.86106 0.0
O600 O 0.59724 0.37703 0.84419 0.0
C601 C 0.58629 0.36894 0.82765 0.0
C602 C 0.67446 0.37108 0.85619 0.0
O603 O 0.59607 0.3639 0.80945 0.0
C604 C 0.66765 0.37241 0.78795 0.0
O605 O 0.63401 0.40197 0.84588 0.0
O606 O 0.61836 0.40214 0.81214 0.0
O607 O 0.67714 0.3623 0.83702 0.0
O608 O 0.65529 0.37075 0.86583 0.0
C609 C 0.62894 0.32699 0.79193 0.0
O610 O 0.6503 0.38448 0.7903 0.0
O611 O 0.66867 0.35305 0.79683 0.0
C612 C 0.62714 0.4125 0.82866 0.0
O613 O 0.62639 0.34715 0.7851 0.0
O614 O 0.6392 0.3229 0.81018 0.0
C615 C 0.63246 0.32809 0.86107 0.0
Fe616 Fe 0.62375 0.37867 0.20142 0.0
Fe617 Fe 0.65326 0.34319 0.17846 0.0
O618 O 0.63383 0.36568 0.17648 0.0
Fe619 Fe 0.62461 0.37486 0.14948 0.0
O620 O 0.62143 0.4047 0.15775 0.0
O621 O 0.63425 0.40591 0.19261 0.0
O622 O 0.65037 0.37508 0.21702 0.0
C623 C 0.67038 0.37153 0.21024 0.0
C624 C 0.58502 0.37614 0.1734 0.0
O625 O 0.67402 0.36106 0.19202 0.0
C626 C 0.62501 0.32716 0.14609 0.0
O627 O 0.61235 0.35221 0.21218 0.0
O628 O 0.64305 0.33272 0.20555 0.0
O629 O 0.59541 0.36869 0.15633 0.0
O630 O 0.5956 0.38453 0.19 0.0
C631 C 0.6692 0.36767 0.14116 0.0
O632 O 0.63338 0.32432 0.16542 0.0
O633 O 0.62597 0.34633 0.13646 0.0
C634 C 0.62386 0.33448 0.21459 0.0
O635 O 0.66723 0.34915 0.15153 0.0
O636 O 0.65336 0.38186 0.14109 0.0
C637 C 0.62925 0.4157 0.17438 0.0
Fe638 Fe 0.61997 0.62377 0.20254 0.0
Fe639 Fe 0.65441 0.65476 0.18024 0.0
O640 O 0.63285 0.63437 0.17784 0.0
Fe641 Fe 0.62446 0.62499 0.15063 0.0
O642 O 0.59463 0.62074 0.1582 0.0
O643 O 0.59258 0.633 0.19319 0.0
O644 O 0.62173 0.65084 0.21793 0.0
C645 C 0.62457 0.67099 0.21102 0.0
C646 C 0.62458 0.58514 0.17432 0.0
O647 O 0.63526 0.67492 0.19298 0.0
C648 C 0.67203 0.62658 0.14872 0.0
O649 O 0.64667 0.61374 0.21405 0.0
O650 O 0.66429 0.64558 0.20799 0.0
O651 O 0.63139 0.59597 0.15728 0.0
O652 O 0.61592 0.59518 0.19115 0.0
C653 C 0.6303 0.66984 0.14256 0.0
O654 O 0.67427 0.63532 0.16799 0.0
O655 O 0.65323 0.62727 0.13839 0.0
C656 C 0.66284 0.62688 0.21811 0.0
O657 O 0.64883 0.66818 0.15291 0.0
O658 O 0.61661 0.65361 0.14239 0.0
C659 C 0.58326 0.62824 0.1747 0.0
Fe660 Fe 0.37748 0.62369 0.20188 0.0
Fe661 Fe 0.34405 0.6562 0.18012 0.0
O662 O 0.36501 0.63523 0.17733 0.0
Fe663 Fe 0.37329 0.62607 0.15 0.0
O664 O 0.3655 0.5971 0.15615 0.0
O665 O 0.38151 0.59555 0.18969 0.0
O666 O 0.35044 0.61366 0.21248 0.0
C667 C 0.33354 0.62629 0.21527 0.0
C668 C 0.41437 0.62818 0.1744 0.0
O669 O 0.33326 0.64597 0.20709 0.0
C670 C 0.36891 0.67131 0.14273 0.0
O671 O 0.37575 0.65 0.21832 0.0
O672 O 0.36361 0.67527 0.19394 0.0
O673 O 0.40289 0.62096 0.15784 0.0
O674 O 0.40512 0.63288 0.19299 0.0
C675 C 0.32578 0.62951 0.14748 0.0
O676 O 0.35054 0.67042 0.15345 0.0
O677 O 0.38195 0.65454 0.14212 0.0
C678 C 0.37394 0.67039 0.21196 0.0
O679 O 0.32367 0.63804 0.16684 0.0
O680 O 0.34477 0.62943 0.1375 0.0
C681 C 0.37235 0.58591 0.17294 0.0
Fe682 Fe 0.34684 0.34549 0.18705 0.0
Fe683 Fe 0.37845 0.38058 0.20756 0.0
O684 O 0.36683 0.36723 0.18347 0.0
Fe685 Fe 0.3749 0.37541 0.1558 0.0
O686 O 0.346 0.38288 0.14851 0.0
O687 O 0.33174 0.35098 0.1606 0.0
O688 O 0.32741 0.36457 0.20089 0.0
C689 C 0.33213 0.37545 0.21862 0.0
C690 C 0.37324 0.32768 0.15404 0.0
O691 O 0.35252 0.37821 0.22461 0.0
C692 C 0.41566 0.37641 0.17761 0.0
O693 O 0.35809 0.33555 0.21398 0.0
O694 O 0.38972 0.35414 0.21848 0.0
O695 O 0.37238 0.34652 0.14376 0.0
O696 O 0.36546 0.32559 0.1737 0.0
C697 C 0.37201 0.41691 0.17969 0.0
O698 O 0.40618 0.38539 0.19458 0.0
O699 O 0.40421 0.36877 0.16136 0.0
C700 C 0.37781 0.33687 0.22193 0.0
O701 O 0.36809 0.40773 0.19848 0.0
O702 O 0.379 0.40541 0.16302 0.0
C703 C 0.32985 0.36915 0.14961 0.0
Fe704 Fe 0.82279 0.65295 0.65651 0.0
Fe705 Fe 0.85254 0.62405 0.62583 0.0
O706 O 0.82536 0.63298 0.6346 0.0
Fe707 Fe 0.80082 0.62196 0.62169 0.0
O708 O 0.78436 0.64817 0.62479 0.0
O709 O 0.80866 0.67289 0.63808 0.0
O710 O 0.8493 0.6675 0.6501 0.0
C711 C 0.85984 0.66899 0.63162 0.0
C712 C 0.78758 0.62258 0.66583 0.0
O713 O 0.86039 0.65269 0.61798 0.0
C714 C 0.82968 0.58407 0.62547 0.0
O715 O 0.83631 0.63391 0.67595 0.0
O716 O 0.86543 0.62648 0.65425 0.0
O717 O 0.79027 0.61072 0.64833 0.0
O718 O 0.79606 0.64209 0.66718 0.0
C719 C 0.82802 0.62793 0.58492 0.0
O720 O 0.84621 0.59505 0.63307 0.0
O721 O 0.81312 0.59393 0.61619 0.0
C722 C 0.85564 0.62555 0.6733 0.0
O723 O 0.84445 0.61986 0.59604 0.0
O724 O 0.8096 0.63252 0.59449 0.0
C725 C 0.79051 0.66848 0.62783 0.0
Fe726 Fe 0.37688 0.79669 0.61905 0.0
Fe727 Fe 0.34805 0.81775 0.65627 0.0
O728 O 0.36684 0.82089 0.63339 0.0
Fe729 Fe 0.37535 0.84836 0.62501 0.0
O730 O 0.37806 0.84129 0.59477 0.0
O731 O 0.36524 0.80654 0.59266 0.0
O732 O 0.35059 0.78044 0.62273 0.0
C733 C 0.3306 0.78681 0.62714 0.0
C734 C 0.41525 0.82529 0.62191 0.0
O735 O 0.32706 0.80452 0.63846 0.0
C736 C 0.37614 0.84996 0.67275 0.0
O737 O 0.38927 0.78498 0.64457 0.0
O738 O 0.3592 0.79047 0.66544 0.0
O739 O 0.40471 0.8418 0.63032 0.0
O740 O 0.40478 0.80889 0.61292 0.0
C741 C 0.33077 0.85551 0.6334 0.0
O742 O 0.36815 0.83044 0.67509 0.0
O743 O 0.37441 0.86036 0.65405 0.0
C744 C 0.37844 0.78175 0.66257 0.0
O745 O 0.33336 0.84467 0.6516 0.0
O746 O 0.34633 0.8563 0.61895 0.0
C747 C 0.36972 0.82516 0.58342 0.0
Fe748 Fe 0.15336 0.37644 0.62669 0.0
Fe749 Fe 0.20511 0.37795 0.62166 0.0
O750 O 0.18065 0.36771 0.63536 0.0
Fe751 Fe 0.18331 0.34851 0.65798 0.0
O752 O 0.15646 0.3341 0.65266 0.0
O753 O 0.14536 0.3475 0.61998 0.0
O754 O 0.16088 0.37967 0.59666 0.0
C755 C 0.17718 0.3716 0.58539 0.0
C756 C 0.15095 0.37651 0.67439 0.0
O757 O 0.19569 0.36702 0.59478 0.0
C758 C 0.21948 0.37835 0.66545 0.0
O759 O 0.15986 0.40571 0.63261 0.0
O760 O 0.19314 0.40611 0.61602 0.0
O761 O 0.17043 0.36848 0.67697 0.0
O762 O 0.14095 0.37502 0.65547 0.0
C763 C 0.21457 0.33133 0.62904 0.0
O764 O 0.21653 0.38968 0.64769 0.0
O765 O 0.21047 0.35918 0.66775 0.0
C766 C 0.17651 0.41642 0.62477 0.0
O767 O 0.22109 0.35138 0.625 0.0
O768 O 0.19668 0.32772 0.64002 0.0
C769 C 0.14587 0.33177 0.63429 0.0
Fe770 Fe 0.62575 0.15095 0.62488 0.0
Fe771 Fe 0.61958 0.20264 0.62506 0.0
O772 O 0.63357 0.17814 0.63467 0.0
Fe773 Fe 0.65568 0.18067 0.65447 0.0
O774 O 0.67533 0.16949 0.63416 0.0
O775 O 0.65491 0.13947 0.62618 0.0
O776 O 0.63176 0.15849 0.59586 0.0
C777 C 0.62392 0.17548 0.58563 0.0
C778 C 0.633 0.14216 0.66937 0.0
O779 O 0.61501 0.19177 0.59634 0.0
C780 C 0.62542 0.2101 0.67234 0.0
O781 O 0.59557 0.15771 0.62149 0.0
O782 O 0.59267 0.19228 0.6347 0.0
O783 O 0.6513 0.15283 0.66737 0.0
O784 O 0.61888 0.14202 0.6535 0.0
C785 C 0.66209 0.2194 0.62727 0.0
O786 O 0.62169 0.2174 0.65246 0.0
O787 O 0.63678 0.19231 0.67548 0.0
C788 C 0.58376 0.17378 0.62927 0.0
O789 O 0.64562 0.21517 0.61456 0.0
O790 O 0.66442 0.20896 0.64571 0.0
C791 C 0.6734 0.15031 0.62515 0.0
Fe792 Fe 0.84683 0.37271 0.37659 0.0
Fe793 Fe 0.79514 0.37794 0.37797 0.0
O794 O 0.81955 0.36384 0.36816 0.0
Fe795 Fe 0.81685 0.34062 0.34967 0.0
O796 O 0.82968 0.32225 0.37024 0.0
O797 O 0.85921 0.34389 0.37597 0.0
O798 O 0.84035 0.36765 0.40605 0.0
C799 C 0.82361 0.37577 0.41646 0.0
C800 C 0.85408 0.36382 0.33209 0.0
O801 O 0.80707 0.38433 0.40588 0.0
C802 C 0.78581 0.36935 0.33164 0.0
O803 O 0.83938 0.40283 0.37901 0.0
O804 O 0.80458 0.4045 0.36637 0.0
O805 O 0.84375 0.34541 0.33509 0.0
O806 O 0.85459 0.37857 0.34741 0.0
C807 C 0.7806 0.33427 0.3797 0.0
O808 O 0.77924 0.37391 0.35155 0.0
O809 O 0.80352 0.35797 0.32831 0.0
C810 C 0.82299 0.41401 0.371 0.0
O811 O 0.78365 0.35235 0.39045 0.0
O812 O 0.78965 0.33126 0.36064 0.0
C813 C 0.84918 0.32504 0.37816 0.0
Fe814 Fe 0.62576 0.85031 0.3748 0.0
Fe815 Fe 0.62252 0.79827 0.37587 0.0
O816 O 0.63482 0.82335 0.36531 0.0
Fe817 Fe 0.65655 0.82158 0.34496 0.0
O818 O 0.67606 0.83442 0.36435 0.0
O819 O 0.65421 0.86331 0.37263 0.0
O820 O 0.63278 0.8437 0.40385 0.0
C821 C 0.62643 0.8264 0.41457 0.0
C822 C 0.63149 0.85873 0.32993 0.0
O823 O 0.6181 0.80948 0.40444 0.0
C824 C 0.62751 0.78997 0.32873 0.0
O825 O 0.59611 0.842 0.37889 0.0
O826 O 0.59468 0.80689 0.36678 0.0
O827 O 0.6502 0.8487 0.33144 0.0
O828 O 0.6178 0.85846 0.34619 0.0
C829 C 0.66667 0.78517 0.37358 0.0
O830 O 0.62485 0.78298 0.34886 0.0
O831 O 0.63787 0.8082 0.32478 0.0
C832 C 0.58497 0.82518 0.37173 0.0
O833 O 0.64954 0.78758 0.38595 0.0
O834 O 0.66745 0.79435 0.35438 0.0
C835 C 0.6733 0.85351 0.37328 0.0
Fe836 Fe 0.20318 0.62211 0.37595 0.0
Fe837 Fe 0.18073 0.65569 0.34389 0.0
O838 O 0.1784 0.63422 0.36449 0.0
Fe839 Fe 0.15121 0.62522 0.37326 0.0
O840 O 0.15692 0.63239 0.40246 0.0
O841 O 0.1912 0.618 0.40418 0.0
O842 O 0.2135 0.64938 0.38595 0.0
C843 C 0.21616 0.66632 0.37335 0.0
C844 C 0.17651 0.58442 0.3714 0.0
O845 O 0.20766 0.66666 0.35384 0.0
C846 C 0.14396 0.63064 0.32813 0.0
O847 O 0.21921 0.62407 0.34939 0.0
O848 O 0.1946 0.63657 0.32442 0.0
O849 O 0.15942 0.5956 0.37777 0.0
O850 O 0.19494 0.59409 0.36703 0.0
C851 C 0.1482 0.67279 0.37135 0.0
O852 O 0.15401 0.64932 0.32972 0.0
O853 O 0.14383 0.61705 0.34448 0.0
C854 C 0.21265 0.62616 0.32906 0.0
O855 O 0.16739 0.67551 0.36267 0.0
O856 O 0.13836 0.65372 0.37059 0.0
C857 C 0.17387 0.62612 0.41373 0.0
Fe858 Fe 0.37468 0.15154 0.3744 0.0
Fe859 Fe 0.37629 0.20322 0.37991 0.0
O860 O 0.3659 0.17889 0.36603 0.0
Fe861 Fe 0.34666 0.18176 0.34356 0.0
O862 O 0.3321 0.15495 0.34903 0.0
O863 O 0.34592 0.14354 0.38148 0.0
O864 O 0.37833 0.15898 0.40448 0.0
C865 C 0.36996 0.17508 0.41588 0.0
C866 C 0.37419 0.14922 0.32674 0.0
O867 O 0.36518 0.19362 0.40661 0.0
C868 C 0.37689 0.21766 0.33615 0.0
O869 O 0.40371 0.1582 0.36784 0.0
O870 O 0.40433 0.19093 0.38561 0.0
O871 O 0.36635 0.1688 0.32436 0.0
O872 O 0.3728 0.13915 0.34563 0.0
C873 C 0.32985 0.21309 0.37264 0.0
O874 O 0.38813 0.21466 0.35397 0.0
O875 O 0.3576 0.2089 0.33381 0.0
C876 C 0.41443 0.17471 0.37589 0.0
O877 O 0.34992 0.21951 0.37659 0.0
O878 O 0.32612 0.1952 0.36168 0.0
C879 C 0.33002 0.14422 0.36739 0.0
Fe880 Fe 0.62483 0.84606 0.62538 0.0
Fe881 Fe 0.65116 0.81557 0.65748 0.0
O882 O 0.63291 0.81858 0.63412 0.0
Fe883 Fe 0.62301 0.79429 0.61981 0.0
O884 O 0.63475 0.80385 0.59331 0.0
O885 O 0.62262 0.83888 0.5952 0.0
O886 O 0.65412 0.85363 0.61987 0.0
C887 C 0.66925 0.85291 0.63481 0.0
C888 C 0.58475 0.82322 0.62184 0.0
O889 O 0.66592 0.84245 0.65309 0.0
C890 C 0.62094 0.77946 0.66342 0.0
O891 O 0.62525 0.85818 0.65431 0.0
O892 O 0.63052 0.82838 0.67576 0.0
O893 O 0.59519 0.80651 0.61339 0.0
O894 O 0.59528 0.83983 0.63008 0.0
C895 C 0.66923 0.78458 0.62872 0.0
O896 O 0.64004 0.78832 0.66654 0.0
O897 O 0.61034 0.78267 0.64528 0.0
C898 C 0.62276 0.84797 0.67303 0.0
O899 O 0.67252 0.80226 0.64018 0.0
O900 O 0.64935 0.77816 0.62387 0.0
C901 C 0.63046 0.82246 0.58393 0.0
Fe902 Fe 0.62485 0.15465 0.3756 0.0
Fe903 Fe 0.61751 0.20606 0.37834 0.0
O904 O 0.63202 0.18246 0.36718 0.0
Fe905 Fe 0.65376 0.18657 0.34731 0.0
O906 O 0.64906 0.15988 0.33232 0.0
O907 O 0.61743 0.14715 0.34666 0.0
O908 O 0.59476 0.16098 0.3802 0.0
C909 C 0.58257 0.17676 0.37243 0.0
C910 C 0.67244 0.15424 0.37396 0.0
O911 O 0.59089 0.1957 0.36755 0.0
C912 C 0.66074 0.22174 0.37834 0.0
O913 O 0.63156 0.16086 0.40482 0.0
O914 O 0.61295 0.19307 0.40619 0.0
O915 O 0.67394 0.17393 0.36617 0.0
O916 O 0.65398 0.14339 0.37288 0.0
C917 C 0.62294 0.21707 0.33204 0.0
O918 O 0.64329 0.21806 0.38989 0.0
O919 O 0.66271 0.21382 0.35863 0.0
C920 C 0.62306 0.17691 0.41601 0.0
O921 O 0.61962 0.22304 0.35235 0.0
O922 O 0.6345 0.19973 0.32756 0.0
C923 C 0.63102 0.14874 0.33036 0.0
Fe924 Fe 0.81513 0.65206 0.34458 0.0
Fe925 Fe 0.84692 0.62353 0.37349 0.0
O926 O 0.81914 0.63222 0.36644 0.0
Fe927 Fe 0.79546 0.62147 0.38098 0.0
O928 O 0.78272 0.61054 0.35516 0.0
O929 O 0.78714 0.6421 0.33651 0.0
O930 O 0.82666 0.63242 0.32438 0.0
C931 C 0.84618 0.62408 0.32576 0.0
C932 C 0.7857 0.66833 0.37582 0.0
O933 O 0.85741 0.62538 0.34402 0.0
C934 C 0.8252 0.6273 0.41599 0.0
O935 O 0.84241 0.66618 0.34824 0.0
O936 O 0.85506 0.65249 0.38015 0.0
O937 O 0.77937 0.64813 0.37943 0.0
O938 O 0.80307 0.67235 0.36407 0.0
C939 C 0.82405 0.5833 0.37557 0.0
O940 O 0.84114 0.61984 0.40384 0.0
O941 O 0.80615 0.63155 0.40763 0.0
C942 C 0.85394 0.66835 0.36602 0.0
O943 O 0.84047 0.59424 0.36759 0.0
O944 O 0.80764 0.59324 0.38508 0.0
C945 C 0.77777 0.62312 0.33876 0.0
Fe946 Fe 0.3773 0.79739 0.37733 0.0
Fe947 Fe 0.34553 0.8192 0.34314 0.0
O948 O 0.36612 0.82197 0.36452 0.0
Fe949 Fe 0.37519 0.8493 0.37288 0.0
O950 O 0.40436 0.84301 0.36585 0.0
O951 O 0.40549 0.80939 0.38176 0.0
O952 O 0.38771 0.78658 0.35044 0.0
C953 C 0.37535 0.78381 0.33333 0.0
C954 C 0.37217 0.82507 0.41416 0.0
O955 O 0.35576 0.7921 0.33272 0.0
C956 C 0.33007 0.85679 0.36741 0.0
O957 O 0.3509 0.78113 0.37524 0.0
O958 O 0.32603 0.8056 0.36245 0.0
O959 O 0.37952 0.84162 0.40272 0.0
O960 O 0.36773 0.80643 0.40487 0.0
C961 C 0.3728 0.85148 0.3252 0.0
O962 O 0.33134 0.84602 0.34908 0.0
O963 O 0.34653 0.85728 0.38084 0.0
C964 C 0.33058 0.78754 0.3729 0.0
O965 O 0.36412 0.83222 0.32302 0.0
O966 O 0.37263 0.86165 0.34412 0.0
C967 C 0.41539 0.82618 0.37293 0.0
Fe968 Fe 0.17707 0.34565 0.3442 0.0
Fe969 Fe 0.14788 0.37472 0.37542 0.0
O970 O 0.17494 0.36578 0.36613 0.0
Fe971 Fe 0.19976 0.37668 0.37857 0.0
O972 O 0.21011 0.38749 0.35172 0.0
O973 O 0.20382 0.3561 0.33315 0.0
O974 O 0.16348 0.36475 0.32494 0.0
C975 C 0.14427 0.37328 0.3279 0.0
C976 C 0.20947 0.32996 0.37275 0.0
O977 O 0.13465 0.37249 0.34706 0.0
C978 C 0.17312 0.37129 0.41601 0.0
O979 O 0.15047 0.33134 0.35078 0.0
O980 O 0.14036 0.34591 0.38325 0.0
O981 O 0.21582 0.35024 0.37565 0.0
O982 O 0.19125 0.32562 0.36255 0.0
C983 C 0.17097 0.41488 0.37517 0.0
O984 O 0.15635 0.37881 0.40506 0.0
O985 O 0.19139 0.36668 0.40616 0.0
C986 C 0.14052 0.32964 0.36954 0.0
O987 O 0.15394 0.40395 0.3685 0.0
O988 O 0.18789 0.40488 0.38364 0.0
C989 C 0.21261 0.37546 0.33433 0.0
Fe990 Fe 0.34613 0.17702 0.65754 0.0
Fe991 Fe 0.37458 0.14764 0.62602 0.0
O992 O 0.36577 0.17479 0.63523 0.0
Fe993 Fe 0.37632 0.19958 0.6224 0.0
O994 O 0.38751 0.21025 0.64902 0.0
O995 O 0.3565 0.20401 0.66809 0.0
O996 O 0.36578 0.16378 0.67651 0.0
C997 C 0.37435 0.14455 0.67356 0.0
C998 C 0.32967 0.20906 0.62901 0.0
O999 O 0.37293 0.13471 0.65454 0.0
C1000 C 0.3705 0.17251 0.58525 0.0
O1001 O 0.33192 0.1502 0.65157 0.0
O1002 O 0.34568 0.14001 0.6188 0.0
O1003 O 0.34982 0.21551 0.6256 0.0
O1004 O 0.32566 0.19087 0.63946 0.0
C1005 C 0.4146 0.17081 0.62534 0.0
O1006 O 0.37814 0.15582 0.59626 0.0
O1007 O 0.36599 0.1909 0.59499 0.0
C1008 C 0.32977 0.14018 0.63289 0.0
O1009 O 0.40384 0.15379 0.63232 0.0
O1010 O 0.40446 0.18776 0.61703 0.0
C1011 C 0.37579 0.21283 0.66659 0.0
Fe1012 Fe 0.84621 0.37306 0.62573 0.0
Fe1013 Fe 0.7951 0.38213 0.62452 0.0
O1014 O 0.81846 0.36681 0.63489 0.0
Fe1015 Fe 0.81422 0.3451 0.65481 0.0
O1016 O 0.8417 0.34838 0.66864 0.0
O1017 O 0.85484 0.37992 0.65451 0.0
O1018 O 0.84102 0.40341 0.6215 0.0
C1019 C 0.82586 0.41607 0.62964 0.0
C1020 C 0.84473 0.32538 0.62687 0.0
O1021 O 0.80674 0.40842 0.63476 0.0
C1022 C 0.77641 0.3403 0.62615 0.0
O1023 O 0.83902 0.36685 0.59671 0.0
O1024 O 0.80716 0.38607 0.59615 0.0
O1025 O 0.82517 0.32452 0.63519 0.0
O1026 O 0.8562 0.34348 0.62787 0.0
C1027 C 0.78573 0.37707 0.67136 0.0
O1028 O 0.78153 0.35671 0.61362 0.0
O1029 O 0.78598 0.33764 0.64501 0.0
C1030 C 0.82297 0.3758 0.58595 0.0
O1031 O 0.77922 0.38084 0.65126 0.0
O1032 O 0.80281 0.36488 0.67516 0.0
C1033 C 0.85351 0.36601 0.67056 0.0
Fe1034 Fe 0.17633 0.65604 0.65427 0.0
Fe1035 Fe 0.14759 0.62568 0.62391 0.0
O1036 O 0.17445 0.63552 0.63273 0.0
Fe1037 Fe 0.19944 0.62497 0.62026 0.0
O1038 O 0.20995 0.61456 0.64718 0.0
O1039 O 0.20333 0.64616 0.6653 0.0
O1040 O 0.16328 0.63711 0.67403 0.0
C1041 C 0.14427 0.62809 0.67151 0.0
C1042 C 0.20838 0.6719 0.62558 0.0
O1043 O 0.13453 0.62796 0.65238 0.0
C1044 C 0.17252 0.62932 0.58304 0.0
O1045 O 0.14944 0.66972 0.64757 0.0
O1046 O 0.13893 0.65402 0.61573 0.0
O1047 O 0.21508 0.6517 0.62296 0.0
O1048 O 0.18998 0.67601 0.63551 0.0
C1049 C 0.17167 0.58615 0.62404 0.0
O1050 O 0.15597 0.62154 0.5942 0.0
O1051 O 0.19071 0.63458 0.5927 0.0
C1052 C 0.13892 0.67057 0.62906 0.0
O1053 O 0.15464 0.59675 0.63122 0.0
O1054 O 0.18817 0.59654 0.61527 0.0
C1055 C 0.21223 0.6268 0.66443 0.0
H1056 H 0.11907 0.05632 0.28882 0.0
H1057 H 0.12532 0.94288 0.36141 0.0
H1058 H 0.13271 0.05625 0.36047 0.0
H1059 H 0.13263 0.94459 0.28886 0.0
H1060 H 0.12496 0.98426 0.36183 0.0
H1061 H 0.12063 0.01511 0.28893 0.0
C1062 C 0.12232 0.04765 0.30461 0.0
C1063 C 0.12571 0.05979 0.32468 0.0
C1064 C 0.12673 0.97553 0.34586 0.0
C1065 C 0.12748 0.01254 0.3249 0.0
C1066 C 0.12689 0.95193 0.34559 0.0
C1067 C 0.12896 0.94021 0.32507 0.0
C1068 C 0.12836 0.98751 0.32544 0.0
C1069 C 0.13103 0.95286 0.30509 0.0
C1070 C 0.12331 0.02411 0.30463 0.0
C1071 C 0.13001 0.0476 0.34459 0.0
N1072 N 0.13052 0.97578 0.30578 0.0
N1073 N 0.13066 0.02463 0.34422 0.0
H1074 H 0.05457 0.13471 0.28941 0.0
H1075 H 0.94364 0.1303 0.36574 0.0
H1076 H 0.0573 0.12341 0.36143 0.0
H1077 H 0.94382 0.1194 0.29362 0.0
H1078 H 0.98497 0.13222 0.36501 0.0
H1079 H 0.01353 0.13404 0.29125 0.0
C1080 C 0.04656 0.13219 0.30566 0.0
C1081 C 0.05946 0.12899 0.32529 0.0
C1082 C 0.9759 0.12935 0.3494 0.0
C1083 C 0.01231 0.12824 0.32747 0.0
C1084 C 0.95234 0.12829 0.34978 0.0
C1085 C 0.94023 0.12458 0.32972 0.0
C1086 C 0.98738 0.12703 0.32878 0.0
C1087 C 0.95241 0.12212 0.30953 0.0
C1088 C 0.0231 0.13171 0.30666 0.0
C1089 C 0.04804 0.12581 0.34585 0.0
N1090 N 0.97526 0.12349 0.30957 0.0
N1091 N 0.02509 0.12554 0.34642 0.0
H1092 H 0.86389 0.05558 0.29059 0.0
H1093 H 0.86734 0.9415 0.36258 0.0
H1094 H 0.87533 0.05518 0.36263 0.0
H1095 H 0.877 0.9443 0.29034 0.0
H1096 H 0.86553 0.98288 0.36342 0.0
H1097 H 0.86357 0.01446 0.2908 0.0
C1098 C 0.86624 0.04688 0.30651 0.0
C1099 C 0.86979 0.05892 0.32662 0.0
C1100 C 0.86806 0.97438 0.34742 0.0
C1101 C 0.86939 0.01165 0.32693 0.0
C1102 C 0.86904 0.95078 0.34691 0.0
C1103 C 0.87245 0.9394 0.32636 0.0
C1104 C 0.87018 0.98662 0.32722 0.0
C1105 C 0.87453 0.95232 0.30659 0.0
C1106 C 0.86613 0.02335 0.30658 0.0
C1107 C 0.87268 0.04661 0.34671 0.0
N1108 N 0.87329 0.97519 0.30751 0.0
N1109 N 0.87241 0.02362 0.34636 0.0
H1110 H 0.94513 0.86824 0.28641 0.0
H1111 H 0.0566 0.86711 0.36243 0.0
H1112 H 0.94328 0.87491 0.35902 0.0
H1113 H 0.05659 0.87978 0.29061 0.0
H1114 H 0.01527 0.86594 0.3617 0.0
H1115 H 0.98623 0.86822 0.28787 0.0
C1116 C 0.95334 0.86963 0.3027 0.0
C1117 C 0.94066 0.87169 0.32263 0.0
C1118 C 0.02436 0.86902 0.34614 0.0
C1119 C 0.98789 0.8716 0.32439 0.0
C1120 C 0.04794 0.86963 0.34652 0.0
C1121 C 0.06012 0.87366 0.32657 0.0
C1122 C 0.01289 0.87214 0.32562 0.0
C1123 C 0.04796 0.87679 0.30644 0.0
C1124 C 0.97685 0.8697 0.3035 0.0
C1125 C 0.95234 0.87343 0.34322 0.0
N1126 N 0.02507 0.87589 0.30648 0.0
N1127 N 0.9753 0.8733 0.34357 0.0
H1128 H 0.11622 0.94359 0.63864 0.0
H1129 H 0.14824 0.05539 0.70738 0.0
H1130 H 0.14883 0.94399 0.70387 0.0
H1131 H 0.11493 0.05695 0.64253 0.0
H1132 H 0.15058 0.0145 0.70485 0.0
H1133 H 0.11756 0.98493 0.63827 0.0
C1134 C 0.12376 0.95233 0.65282 0.0
C1135 C 0.13225 0.94026 0.67141 0.0
C1136 C 0.1428 0.02372 0.6911 0.0
C1137 C 0.13382 0.98753 0.67106 0.0
C1138 C 0.14143 0.04714 0.69255 0.0
C1139 C 0.13117 0.05967 0.67523 0.0
C1140 C 0.13379 0.01257 0.67223 0.0
C1141 C 0.12289 0.04798 0.65632 0.0
C1142 C 0.1245 0.97593 0.65259 0.0
C1143 C 0.1419 0.95252 0.68926 0.0
N1144 N 0.12426 0.02504 0.65539 0.0
N1145 N 0.14232 0.97542 0.68866 0.0
H1146 H 0.0549 0.10694 0.70794 0.0
H1147 H 0.94338 0.13997 0.63904 0.0
H1148 H 0.05642 0.14097 0.64342 0.0
H1149 H 0.94326 0.10711 0.70417 0.0
H1150 H 0.98466 0.14024 0.63984 0.0
H1151 H 0.01388 0.10664 0.70636 0.0
C1152 C 0.04663 0.11434 0.6934 0.0
C1153 C 0.05921 0.12395 0.67576 0.0
C1154 C 0.97557 0.13295 0.65393 0.0
C1155 C 0.01201 0.12369 0.67387 0.0
C1156 C 0.95199 0.13276 0.65347 0.0
C1157 C 0.93978 0.12345 0.67154 0.0
C1158 C 0.98701 0.12377 0.67258 0.0
C1159 C 0.95189 0.11444 0.68983 0.0
C1160 C 0.02315 0.11417 0.69252 0.0
C1161 C 0.04745 0.13333 0.65739 0.0
N1162 N 0.97478 0.11483 0.68986 0.0
N1163 N 0.02451 0.13296 0.65692 0.0
H1164 H 0.88338 0.05492 0.63913 0.0
H1165 H 0.85338 0.94354 0.70938 0.0
H1166 H 0.85321 0.05504 0.70553 0.0
H1167 H 0.88393 0.94185 0.64318 0.0
H1168 H 0.85112 0.98448 0.7069 0.0
H1169 H 0.88168 0.01363 0.63897 0.0
C1170 C 0.87631 0.0463 0.65362 0.0
C1171 C 0.86862 0.05849 0.67246 0.0
C1172 C 0.85826 0.97519 0.69286 0.0
C1173 C 0.86664 0.01128 0.67237 0.0
C1174 C 0.85959 0.95177 0.69427 0.0
C1175 C 0.86907 0.93921 0.67654 0.0
C1176 C 0.86653 0.98628 0.67361 0.0
C1177 C 0.8766 0.95085 0.6573 0.0
C1178 C 0.87536 0.02273 0.65351 0.0
C1179 C 0.85953 0.0464 0.69071 0.0
N1180 N 0.8753 0.97377 0.6564 0.0
N1181 N 0.8589 0.02351 0.69023 0.0
H1182 H 0.94343 0.8583 0.64282 0.0
H1183 H 0.05835 0.89256 0.7051 0.0
H1184 H 0.94647 0.89215 0.70736 0.0
H1185 H 0.05645 0.85935 0.64019 0.0
H1186 H 0.0173 0.89255 0.7059 0.0
H1187 H 0.98465 0.85855 0.64127 0.0
C1188 C 0.95272 0.86583 0.65665 0.0
C1189 C 0.94139 0.87527 0.67524 0.0
C1190 C 0.02582 0.88528 0.69145 0.0
C1191 C 0.98864 0.87553 0.67356 0.0
C1192 C 0.04932 0.88528 0.69096 0.0
C1193 C 0.06096 0.87598 0.67251 0.0
C1194 C 0.0137 0.87588 0.67338 0.0
C1195 C 0.04823 0.86676 0.65473 0.0
C1196 C 0.97628 0.86594 0.65574 0.0
C1197 C 0.9544 0.88471 0.69267 0.0
N1198 N 0.0253 0.86693 0.65562 0.0
N1199 N 0.97727 0.88459 0.69139 0.0
H1200 H 0.29051 0.14608 0.0538 0.0
H1201 H 0.36147 0.117 0.94253 0.0
H1202 H 0.35742 0.11727 0.0556 0.0
H1203 H 0.29439 0.1455 0.94205 0.0
H1204 H 0.36132 0.11861 0.98383 0.0
H1205 H 0.29267 0.14763 0.01279 0.0
C1206 C 0.30571 0.1401 0.04559 0.0
C1207 C 0.32376 0.13136 0.05822 0.0
C1208 C 0.34668 0.12458 0.97465 0.0
C1209 C 0.32633 0.1331 0.01105 0.0
C1210 C 0.34675 0.12368 0.95107 0.0
C1211 C 0.32784 0.13097 0.93876 0.0
C1212 C 0.32758 0.13284 0.98602 0.0
C1213 C 0.30929 0.13953 0.95077 0.0
C1214 C 0.30693 0.14102 0.02211 0.0
C1215 C 0.34306 0.12405 0.04657 0.0
N1216 N 0.30961 0.14014 0.97369 0.0
N1217 N 0.3438 0.12498 0.02362 0.0
H1218 H 0.89549 0.28892 0.94491 0.0
H1219 H 0.85931 0.35447 0.05743 0.0
H1220 H 0.86024 0.35279 0.94421 0.0
H1221 H 0.89623 0.29155 0.05655 0.0
H1222 H 0.85952 0.35458 0.0161 0.0
H1223 H 0.89589 0.29001 0.98596 0.0
C1224 C 0.88784 0.30322 0.95337 0.0
C1225 C 0.87783 0.32081 0.94103 0.0
C1226 C 0.86761 0.3408 0.02499 0.0
C1227 C 0.8782 0.32213 0.98825 0.0
C1228 C 0.86752 0.34072 0.04859 0.0
C1229 C 0.87779 0.32298 0.06052 0.0
C1230 C 0.87801 0.32299 0.01327 0.0
C1231 C 0.8881 0.3056 0.04813 0.0
C1232 C 0.88809 0.30383 0.97687 0.0
C1233 C 0.86818 0.33888 0.95302 0.0
N1234 N 0.88792 0.30604 0.02523 0.0
N1235 N 0.86859 0.33906 0.97598 0.0
H1236 H 0.63576 0.87328 0.9426 0.0
H1237 H 0.7084 0.87778 0.05587 0.0
H1238 H 0.70793 0.86362 0.94463 0.0
H1239 H 0.63647 0.86647 0.05644 0.0
H1240 H 0.70805 0.8756 0.01477 0.0
H1241 H 0.63515 0.87342 0.98402 0.0
C1242 C 0.65145 0.87113 0.95172 0.0
C1243 C 0.67194 0.86852 0.94008 0.0
C1244 C 0.69233 0.87354 0.02386 0.0
C1245 C 0.67134 0.86885 0.9874 0.0
C1246 C 0.69249 0.8749 0.04736 0.0
C1247 C 0.67241 0.87239 0.05966 0.0
C1248 C 0.67191 0.86989 0.01244 0.0
C1249 C 0.65235 0.86849 0.04765 0.0
C1250 C 0.65107 0.87116 0.97534 0.0
C1251 C 0.69173 0.86569 0.95281 0.0
N1252 N 0.65258 0.8675 0.02467 0.0
N1253 N 0.69094 0.86611 0.97573 0.0
H1254 H 0.14225 0.64449 0.94169 0.0
H1255 H 0.10729 0.70971 0.0549 0.0
H1256 H 0.10956 0.70969 0.94344 0.0
H1257 H 0.13982 0.6444 0.05519 0.0
H1258 H 0.10857 0.70975 0.01387 0.0
H1259 H 0.14223 0.64398 0.98308 0.0
C1260 C 0.13511 0.65869 0.95073 0.0
C1261 C 0.1258 0.67711 0.93903 0.0
C1262 C 0.11543 0.69537 0.02285 0.0
C1263 C 0.12574 0.67662 0.98631 0.0
C1264 C 0.11469 0.69532 0.04635 0.0
C1265 C 0.12339 0.67698 0.05858 0.0
C1266 C 0.12496 0.67696 0.01134 0.0
C1267 C 0.13284 0.65888 0.04647 0.0
C1268 C 0.1351 0.65838 0.97435 0.0
C1269 C 0.11684 0.69507 0.95166 0.0
N1270 N 0.13336 0.65931 0.0235 0.0
N1271 N 0.11701 0.69433 0.97455 0.0
H1272 H 0.35837 0.85772 0.94239 0.0
H1273 H 0.29103 0.8897 0.05529 0.0
H1274 H 0.29278 0.8895 0.94296 0.0
H1275 H 0.35714 0.85903 0.05531 0.0
H1276 H 0.29122 0.88908 0.01411 0.0
H1277 H 0.35805 0.85739 0.98367 0.0
C1278 C 0.34389 0.86463 0.95115 0.0
C1279 C 0.3256 0.87373 0.93911 0.0
C1280 C 0.3057 0.88248 0.0231 0.0
C1281 C 0.32514 0.87336 0.98645 0.0
C1282 C 0.30561 0.88283 0.04666 0.0
C1283 C 0.32414 0.87449 0.05886 0.0
C1284 C 0.32443 0.8737 0.01153 0.0
C1285 C 0.34251 0.86573 0.04666 0.0
C1286 C 0.34373 0.86443 0.97475 0.0
C1287 C 0.3073 0.88237 0.95146 0.0
N1288 N 0.34219 0.86559 0.02369 0.0
N1289 N 0.30756 0.88199 0.97441 0.0
H1290 H 0.13759 0.28864 0.9466 0.0
H1291 H 0.1344 0.36531 0.05757 0.0
H1292 H 0.12628 0.36065 0.94399 0.0
H1293 H 0.12319 0.29326 0.05776 0.0
H1294 H 0.13654 0.36435 0.0162 0.0
H1295 H 0.13783 0.29056 0.98772 0.0
C1296 C 0.13528 0.3049 0.95464 0.0
C1297 C 0.13176 0.32451 0.94177 0.0
C1298 C 0.13359 0.34879 0.02536 0.0
C1299 C 0.13206 0.32678 0.98898 0.0
C1300 C 0.13242 0.3493 0.04894 0.0
C1301 C 0.12847 0.32935 0.06115 0.0
C1302 C 0.13114 0.32814 0.01396 0.0
C1303 C 0.12606 0.30909 0.04907 0.0
C1304 C 0.13532 0.30595 0.97816 0.0
C1305 C 0.12889 0.34509 0.95323 0.0
N1306 N 0.12751 0.30901 0.02619 0.0
N1307 N 0.12911 0.3457 0.97621 0.0
H1308 H 0.64195 0.13848 0.94299 0.0
H1309 H 0.70746 0.10365 0.05604 0.0
H1310 H 0.70644 0.10452 0.94365 0.0
H1311 H 0.64367 0.13893 0.0557 0.0
H1312 H 0.70688 0.10308 0.01486 0.0
H1313 H 0.64184 0.1381 0.98423 0.0
C1314 C 0.65607 0.13089 0.95178 0.0
C1315 C 0.67422 0.12148 0.93978 0.0
C1316 C 0.69298 0.11091 0.02378 0.0
C1317 C 0.6742 0.12105 0.98707 0.0
C1318 C 0.69328 0.11123 0.04734 0.0
C1319 C 0.67557 0.12134 0.05942 0.0
C1320 C 0.67485 0.12079 0.01213 0.0
C1321 C 0.65769 0.13092 0.04714 0.0
C1322 C 0.656 0.1307 0.97535 0.0
C1323 C 0.69207 0.11196 0.95214 0.0
N1324 N 0.6578 0.13042 0.02419 0.0
N1325 N 0.6916 0.112 0.97508 0.0
H1326 H 0.84876 0.70538 0.94216 0.0
H1327 H 0.88226 0.64 0.05558 0.0
H1328 H 0.88055 0.63972 0.94257 0.0
H1329 H 0.85386 0.70718 0.0537 0.0
H1330 H 0.87927 0.63814 0.01441 0.0
H1331 H 0.84768 0.70469 0.98324 0.0
C1332 C 0.85543 0.69074 0.95087 0.0
C1333 C 0.86498 0.67268 0.93886 0.0
C1334 C 0.87365 0.65324 0.02304 0.0
C1335 C 0.86386 0.67182 0.98606 0.0
C1336 C 0.87536 0.65433 0.04655 0.0
C1337 C 0.86849 0.67386 0.05813 0.0
C1338 C 0.86494 0.67178 0.01106 0.0
C1339 C 0.85956 0.69185 0.04552 0.0
C1340 C 0.85482 0.69037 0.97438 0.0
C1341 C 0.87314 0.65408 0.95112 0.0
N1342 N 0.85812 0.69039 0.02271 0.0
N1343 N 0.87254 0.6542 0.97408 0.0
H1344 H 0.94585 0.29332 0.15106 0.0
H1345 H 0.05667 0.36136 0.11472 0.0
H1346 H 0.94334 0.35696 0.11551 0.0
H1347 H 0.05693 0.29619 0.14749 0.0
H1348 H 0.01539 0.36181 0.11706 0.0
H1349 H 0.98672 0.29602 0.15237 0.0
C1350 C 0.95389 0.30794 0.14357 0.0
C1351 C 0.94111 0.32483 0.13294 0.0
C1352 C 0.02454 0.34747 0.12379 0.0
C1353 C 0.98817 0.32799 0.13432 0.0
C1354 C 0.04809 0.34719 0.12246 0.0
C1355 C 0.06031 0.32861 0.13074 0.0
C1356 C 0.01316 0.32908 0.13353 0.0
C1357 C 0.04828 0.31078 0.14068 0.0
C1358 C 0.9773 0.30947 0.14433 0.0
C1359 C 0.95253 0.3435 0.12378 0.0
N1360 N 0.02544 0.31145 0.14172 0.0
N1361 N 0.97546 0.3445 0.12454 0.0
H1362 H 0.05668 0.63815 0.87681 0.0
H1363 H 0.94171 0.70742 0.88752 0.0
H1364 H 0.05156 0.71075 0.87148 0.0
H1365 H 0.94261 0.637 0.86844 0.0
H1366 H 0.98274 0.70751 0.88746 0.0
H1367 H 0.01528 0.63607 0.87883 0.0
C1368 C 0.0469 0.65359 0.87608 0.0
C1369 C 0.05758 0.67464 0.87393 0.0
C1370 C 0.97397 0.69201 0.88331 0.0
C1371 C 0.01061 0.67239 0.87649 0.0
C1372 C 0.95053 0.69192 0.88344 0.0
C1373 C 0.9387 0.6722 0.87789 0.0
C1374 C 0.98575 0.67222 0.87775 0.0
C1375 C 0.95108 0.65262 0.8727 0.0
C1376 C 0.02336 0.65239 0.87718 0.0
C1377 C 0.04412 0.69413 0.87302 0.0
N1378 N 0.97401 0.6531 0.87277 0.0
N1379 N 0.0214 0.69252 0.87441 0.0
H1380 H 0.29304 0.05696 0.87915 0.0
H1381 H 0.36382 0.94239 0.8768 0.0
H1382 H 0.36501 0.05615 0.86796 0.0
H1383 H 0.29192 0.94599 0.86556 0.0
H1384 H 0.36519 0.98383 0.87725 0.0
H1385 H 0.29288 0.01582 0.87827 0.0
C1386 C 0.30884 0.04813 0.87659 0.0
C1387 C 0.32907 0.06003 0.87364 0.0
C1388 C 0.34918 0.97546 0.87461 0.0
C1389 C 0.329 0.01285 0.87263 0.0
C1390 C 0.34837 0.95185 0.87441 0.0
C1391 C 0.32773 0.94069 0.87118 0.0
C1392 C 0.32917 0.98788 0.87187 0.0
C1393 C 0.30823 0.9538 0.86808 0.0
C1394 C 0.30872 0.02463 0.87598 0.0
C1395 C 0.34902 0.04765 0.87025 0.0
N1396 N 0.30943 0.97665 0.86864 0.0
N1397 N 0.3485 0.02468 0.86993 0.0
H1398 H 0.94664 0.28354 0.86645 0.0
H1399 H 0.05727 0.36004 0.86972 0.0
H1400 H 0.94387 0.35583 0.87587 0.0
H1401 H 0.05742 0.28833 0.88297 0.0
H1402 H 0.01603 0.3591 0.86753 0.0
H1403 H 0.98768 0.28535 0.86752 0.0
C1404 C 0.95464 0.29984 0.86862 0.0
C1405 C 0.94174 0.31958 0.87119 0.0
C1406 C 0.02513 0.34362 0.87099 0.0
C1407 C 0.98884 0.32169 0.87242 0.0
C1408 C 0.04865 0.34411 0.87221 0.0
C1409 C 0.06082 0.32423 0.87663 0.0
C1410 C 0.01374 0.32304 0.87387 0.0
C1411 C 0.04875 0.30409 0.87969 0.0
C1412 C 0.9781 0.30082 0.86934 0.0
C1413 C 0.95313 0.34019 0.87394 0.0
N1414 N 0.0259 0.30399 0.87814 0.0
N1415 N 0.97606 0.34072 0.87446 0.0
H1416 H 0.63506 0.94152 0.86799 0.0
H1417 H 0.71058 0.05293 0.86332 0.0
H1418 H 0.70706 0.94184 0.87895 0.0
H1419 H 0.63871 0.0551 0.87499 0.0
H1420 H 0.70907 0.01181 0.86391 0.0
H1421 H 0.63566 0.98285 0.86592 0.0
C1422 C 0.65099 0.95025 0.86997 0.0
C1423 C 0.67105 0.93819 0.87375 0.0
C1424 C 0.69362 0.02128 0.86632 0.0
C1425 C 0.67183 0.98537 0.87114 0.0
C1426 C 0.69443 0.04479 0.86588 0.0
C1427 C 0.67474 0.05755 0.86924 0.0
C1428 C 0.67296 0.01033 0.8699 0.0
C1429 C 0.65432 0.04596 0.87247 0.0
C1430 C 0.65128 0.97382 0.86883 0.0
C1431 C 0.69117 0.95041 0.87618 0.0
N1432 N 0.65395 0.02298 0.8727 0.0
N1433 N 0.69106 0.9733 0.87473 0.0
H1434 H 0.05246 0.71112 0.13537 0.0
H1435 H 0.9408 0.63658 0.13122 0.0
H1436 H 0.05482 0.63959 0.12113 0.0
H1437 H 0.94232 0.70872 0.12059 0.0
H1438 H 0.9822 0.63642 0.13264 0.0
H1439 H 0.0116 0.70944 0.13564 0.0
C1440 C 0.04441 0.69498 0.13236 0.0
C1441 C 0.05717 0.67546 0.12804 0.0
C1442 C 0.97338 0.65222 0.12996 0.0
C1443 C 0.0101 0.6735 0.12838 0.0
C1444 C 0.94981 0.65236 0.12923 0.0
C1445 C 0.93811 0.6727 0.1257 0.0
C1446 C 0.9852 0.6726 0.12753 0.0
C1447 C 0.95062 0.69263 0.12319 0.0
C1448 C 0.02101 0.69409 0.13244 0.0
C1449 C 0.04565 0.65506 0.12436 0.0
N1450 N 0.97344 0.69208 0.12425 0.0
N1451 N 0.02268 0.65459 0.12462 0.0
H1452 H 0.28822 0.94514 0.13232 0.0
H1453 H 0.36066 0.05832 0.13045 0.0
H1454 H 0.36026 0.94456 0.12141 0.0
H1455 H 0.28902 0.05607 0.1175 0.0
H1456 H 0.3613 0.01694 0.13151 0.0
H1457 H 0.28876 0.98619 0.13168 0.0
C1458 C 0.30421 0.95363 0.12986 0.0
C1459 C 0.32425 0.94133 0.12682 0.0
C1460 C 0.3455 0.02556 0.12837 0.0
C1461 C 0.32491 0.98852 0.12612 0.0
C1462 C 0.34508 0.04915 0.12783 0.0
C1463 C 0.32474 0.06066 0.12383 0.0
C1464 C 0.32539 0.01348 0.12524 0.0
C1465 C 0.30509 0.04791 0.12051 0.0
C1466 C 0.30446 0.97711 0.1294 0.0
C1467 C 0.34442 0.95336 0.1237 0.0
N1468 N 0.30589 0.02503 0.12141 0.0
N1469 N 0.34425 0.97635 0.12349 0.0
H1470 H 0.64083 0.05749 0.11731 0.0
H1471 H 0.70731 0.94332 0.14578 0.0
H1472 H 0.70671 0.0549 0.14833 0.0
H1473 H 0.64119 0.94413 0.11518 0.0
H1474 H 0.70614 0.98427 0.1485 0.0
H1475 H 0.63935 0.01618 0.11825 0.0
C1476 C 0.65491 0.04828 0.12447 0.0
C1477 C 0.67402 0.05973 0.13257 0.0
C1478 C 0.69184 0.97555 0.14122 0.0
C1479 C 0.67243 0.01245 0.13362 0.0
C1480 C 0.6925 0.9521 0.13961 0.0
C1481 C 0.67439 0.9402 0.13003 0.0
C1482 C 0.67295 0.98738 0.13316 0.0
C1483 C 0.65559 0.95258 0.12258 0.0
C1484 C 0.65406 0.02469 0.12495 0.0
C1485 C 0.69171 0.04687 0.1417 0.0
N1486 N 0.6554 0.97552 0.12419 0.0
N1487 N 0.69052 0.02397 0.14186 0.0
H1488 H 0.62298 0.43964 0.79179 0.0
H1489 H 0.62493 0.55584 0.85949 0.0
H1490 H 0.63397 0.44214 0.86384 0.0
H1491 H 0.63593 0.55061 0.78756 0.0
H1492 H 0.62558 0.51449 0.86203 0.0
H1493 H 0.62463 0.4807 0.79046 0.0
C1494 C 0.62568 0.44884 0.80737 0.0
C1495 C 0.62825 0.43743 0.82798 0.0
C1496 C 0.62797 0.52247 0.84575 0.0
C1497 C 0.63016 0.48458 0.82656 0.0
C1498 C 0.62755 0.54604 0.84426 0.0
C1499 C 0.63025 0.55673 0.82326 0.0
C1500 C 0.63084 0.50957 0.82606 0.0
C1501 C 0.63371 0.54317 0.80411 0.0
C1502 C 0.62674 0.4723 0.80657 0.0
C1503 C 0.63192 0.45027 0.84759 0.0
N1504 N 0.63373 0.52034 0.80596 0.0
N1505 N 0.63262 0.47322 0.84643 0.0
H1506 H 0.44413 0.60286 0.78915 0.0
H1507 H 0.55663 0.63938 0.85412 0.0
H1508 H 0.44358 0.63905 0.85251 0.0
H1509 H 0.55546 0.60282 0.79098 0.0
H1510 H 0.51536 0.63916 0.85443 0.0
H1511 H 0.48509 0.6024 0.79017 0.0
C1512 C 0.45261 0.61069 0.80333 0.0
C1513 C 0.44035 0.62101 0.82079 0.0
C1514 C 0.52418 0.63116 0.84055 0.0
C1515 C 0.48746 0.62058 0.82202 0.0
C1516 C 0.54773 0.63126 0.84037 0.0
C1517 C 0.55955 0.62107 0.82251 0.0
C1518 C 0.51241 0.62083 0.82275 0.0
C1519 C 0.54712 0.61087 0.80511 0.0
C1520 C 0.47606 0.61042 0.8039 0.0
C1521 C 0.45234 0.63088 0.83871 0.0
N1522 N 0.52427 0.61103 0.80568 0.0
N1523 N 0.47526 0.63045 0.83884 0.0
H1524 H 0.36367 0.55306 0.78374 0.0
H1525 H 0.3673 0.4422 0.86013 0.0
H1526 H 0.37451 0.55599 0.85584 0.0
H1527 H 0.38132 0.44261 0.78856 0.0
H1528 H 0.36446 0.48353 0.85929 0.0
H1529 H 0.36406 0.51199 0.78575 0.0
C1530 C 0.366 0.54509 0.80005 0.0
C1531 C 0.36924 0.55803 0.81965 0.0
C1532 C 0.3682 0.4745 0.84382 0.0
C1533 C 0.36968 0.51091 0.82199 0.0
C1534 C 0.36977 0.45096 0.84426 0.0
C1535 C 0.37468 0.43897 0.82439 0.0
C1536 C 0.37117 0.48602 0.82332 0.0
C1537 C 0.37771 0.45117 0.80431 0.0
C1538 C 0.36632 0.52162 0.80114 0.0
C1539 C 0.37211 0.54668 0.84029 0.0
N1540 N 0.37581 0.474 0.80427 0.0
N1541 N 0.37227 0.52371 0.84093 0.0
H1542 H 0.55829 0.3496 0.79666 0.0
H1543 H 0.44403 0.38456 0.85965 0.0
H1544 H 0.55749 0.3842 0.86087 0.0
H1545 H 0.44721 0.35238 0.79426 0.0
H1546 H 0.48527 0.38259 0.86202 0.0
H1547 H 0.51734 0.3484 0.79718 0.0
C1548 C 0.54951 0.35694 0.81093 0.0
C1549 C 0.5614 0.36722 0.82866 0.0
C1550 C 0.47688 0.37591 0.84721 0.0
C1551 C 0.51423 0.3659 0.82934 0.0
C1552 C 0.45335 0.377 0.84585 0.0
C1553 C 0.44212 0.3688 0.82663 0.0
C1554 C 0.48921 0.36648 0.82927 0.0
C1555 C 0.45508 0.35912 0.80931 0.0
C1556 C 0.52605 0.35623 0.81122 0.0
C1557 C 0.54902 0.3762 0.84679 0.0
N1558 N 0.47787 0.35831 0.81103 0.0
N1559 N 0.52607 0.37546 0.84661 0.0
H1560 H 0.62491 0.44334 0.13734 0.0
H1561 H 0.6201 0.5565 0.21025 0.0
H1562 H 0.63526 0.44508 0.20952 0.0
H1563 H 0.63184 0.55685 0.13828 0.0
H1564 H 0.62225 0.51532 0.20996 0.0
H1565 H 0.62443 0.48474 0.13694 0.0
C1566 C 0.62715 0.45239 0.15308 0.0
C1567 C 0.63007 0.44069 0.1735 0.0
C1568 C 0.6244 0.52441 0.19424 0.0
C1569 C 0.62931 0.48796 0.17317 0.0
C1570 C 0.62306 0.54792 0.19437 0.0
C1571 C 0.62574 0.56016 0.17425 0.0
C1572 C 0.62818 0.51297 0.17381 0.0
C1573 C 0.6297 0.54811 0.15419 0.0
C1574 C 0.62691 0.476 0.15282 0.0
C1575 C 0.63297 0.45333 0.19337 0.0
N1576 N 0.63067 0.52515 0.15445 0.0
N1577 N 0.63235 0.47625 0.19272 0.0
H1578 H 0.55472 0.64709 0.20544 0.0
H1579 H 0.44168 0.61431 0.13945 0.0
H1580 H 0.55514 0.61352 0.14066 0.0
H1581 H 0.44375 0.64518 0.20552 0.0
H1582 H 0.48296 0.6157 0.13807 0.0
H1583 H 0.51385 0.64847 0.20413 0.0
C1584 C 0.54622 0.64 0.19088 0.0
C1585 C 0.55843 0.62997 0.17321 0.0
C1586 C 0.47432 0.62221 0.15281 0.0
C1587 C 0.51133 0.63151 0.17163 0.0
C1588 C 0.45077 0.62144 0.15362 0.0
C1589 C 0.43921 0.62948 0.17271 0.0
C1590 C 0.48634 0.63115 0.17119 0.0
C1591 C 0.45188 0.6386 0.19053 0.0
C1592 C 0.5228 0.64082 0.19014 0.0
C1593 C 0.5464 0.62132 0.1547 0.0
N1594 N 0.4747 0.63912 0.18934 0.0
N1595 N 0.52346 0.62217 0.15444 0.0
H1596 H 0.36543 0.5575 0.13676 0.0
H1597 H 0.36411 0.44686 0.21381 0.0
H1598 H 0.37599 0.5576 0.20892 0.0
H1599 H 0.37601 0.44374 0.14189 0.0
H1600 H 0.36281 0.48781 0.21146 0.0
H1601 H 0.36406 0.51603 0.13759 0.0
C1602 C 0.36738 0.54883 0.15275 0.0
C1603 C 0.37097 0.561 0.17279 0.0
C1604 C 0.36571 0.4782 0.19617 0.0
C1605 C 0.36921 0.51383 0.17384 0.0
C1606 C 0.36639 0.45476 0.19747 0.0
C1607 C 0.37037 0.44179 0.17802 0.0
C1608 C 0.36884 0.48889 0.17527 0.0
C1609 C 0.37309 0.45308 0.15733 0.0
C1610 C 0.36668 0.52522 0.15318 0.0
C1611 C 0.3734 0.54893 0.19303 0.0
N1612 N 0.37228 0.47605 0.15648 0.0
N1613 N 0.37241 0.52606 0.19303 0.0
H1614 H 0.55739 0.39264 0.20645 0.0
H1615 H 0.44249 0.35961 0.14364 0.0
H1616 H 0.5556 0.36011 0.14117 0.0
H1617 H 0.44579 0.39265 0.2086 0.0
H1618 H 0.48373 0.35954 0.14212 0.0
H1619 H 0.51639 0.39271 0.20715 0.0
C1620 C 0.54839 0.38553 0.1922 0.0
C1621 C 0.56004 0.37639 0.17368 0.0
C1622 C 0.4754 0.36682 0.15668 0.0
C1623 C 0.51283 0.37638 0.17445 0.0
C1624 C 0.45184 0.36688 0.15757 0.0
C1625 C 0.4406 0.3762 0.17626 0.0
C1626 C 0.4878 0.37612 0.17461 0.0
C1627 C 0.45365 0.38531 0.19382 0.0
C1628 C 0.52491 0.38557 0.19264 0.0
C1629 C 0.54736 0.36738 0.15577 0.0
N1630 N 0.47651 0.38503 0.19255 0.0
N1631 N 0.52442 0.36759 0.15661 0.0
H1632 H 0.86038 0.61242 0.44259 0.0
H1633 H 0.79794 0.64852 0.55686 0.0
H1634 H 0.79636 0.64711 0.44583 0.0
H1635 H 0.86123 0.61237 0.55631 0.0
H1636 H 0.79901 0.65036 0.51591 0.0
H1637 H 0.8629 0.6144 0.48391 0.0
C1638 C 0.84695 0.62056 0.45194 0.0
C1639 C 0.82802 0.6294 0.44072 0.0
C1640 C 0.81274 0.64206 0.52467 0.0
C1641 C 0.83081 0.63172 0.48785 0.0
C1642 C 0.81212 0.64097 0.54812 0.0
C1643 C 0.82941 0.63006 0.56007 0.0
C1644 C 0.83073 0.63209 0.5129 0.0
C1645 C 0.84748 0.62085 0.54777 0.0
C1646 C 0.84838 0.62165 0.47551 0.0
C1647 C 0.81116 0.63982 0.4537 0.0
N1648 N 0.8476 0.62193 0.5248 0.0
N1649 N 0.81292 0.6406 0.4765 0.0
H1650 H 0.34951 0.79527 0.55477 0.0
H1651 H 0.38556 0.86007 0.44171 0.0
H1652 H 0.38492 0.85898 0.55528 0.0
H1653 H 0.35415 0.7943 0.44342 0.0
H1654 H 0.38308 0.86175 0.483 0.0
H1655 H 0.3484 0.79661 0.51375 0.0
C1656 C 0.35701 0.80962 0.54627 0.0
C1657 C 0.36754 0.82694 0.55855 0.0
C1658 C 0.37668 0.847 0.47428 0.0
C1659 C 0.36638 0.82852 0.5113 0.0
C1660 C 0.37808 0.84602 0.45072 0.0
C1661 C 0.37022 0.82692 0.43904 0.0
C1662 C 0.36728 0.8288 0.48624 0.0
C1663 C 0.36062 0.80929 0.45163 0.0
C1664 C 0.35637 0.81036 0.52277 0.0
C1665 C 0.37672 0.84521 0.54652 0.0
N1666 N 0.35949 0.81064 0.47448 0.0
N1667 N 0.37606 0.84545 0.52353 0.0
H1668 H 0.13866 0.38411 0.4444 0.0
H1669 H 0.2082 0.35368 0.55629 0.0
H1670 H 0.20533 0.35469 0.44461 0.0
H1671 H 0.14226 0.38469 0.55767 0.0
H1672 H 0.20615 0.35202 0.51528 0.0
H1673 H 0.13843 0.38261 0.48574 0.0
C1674 C 0.15321 0.37726 0.45309 0.0
C1675 C 0.17212 0.36968 0.44097 0.0
C1676 C 0.19208 0.35914 0.52451 0.0
C1677 C 0.17194 0.36791 0.48825 0.0
C1678 C 0.19323 0.36011 0.54799 0.0
C1679 C 0.17544 0.36952 0.56051 0.0
C1680 C 0.17301 0.36766 0.51331 0.0
C1681 C 0.15642 0.37739 0.54873 0.0
C1682 C 0.15306 0.37643 0.4767 0.0
C1683 C 0.19044 0.3609 0.45318 0.0
N1684 N 0.15575 0.37639 0.52577 0.0
N1685 N 0.1899 0.36034 0.47609 0.0
H1686 H 0.64184 0.14459 0.44352 0.0
H1687 H 0.60635 0.20787 0.55768 0.0
H1688 H 0.60523 0.20764 0.44556 0.0
H1689 H 0.64137 0.14389 0.55648 0.0
H1690 H 0.60624 0.2081 0.51652 0.0
H1691 H 0.64225 0.14405 0.48481 0.0
C1692 C 0.63386 0.1583 0.45261 0.0
C1693 C 0.62343 0.17616 0.441 0.0
C1694 C 0.61394 0.194 0.52524 0.0
C1695 C 0.6239 0.17567 0.48828 0.0
C1696 C 0.61402 0.19385 0.54879 0.0
C1697 C 0.62383 0.1758 0.56062 0.0
C1698 C 0.62378 0.17599 0.51334 0.0
C1699 C 0.63355 0.15813 0.5481 0.0
C1700 C 0.63411 0.15798 0.4762 0.0
C1701 C 0.61343 0.1935 0.45373 0.0
N1702 N 0.63327 0.15868 0.52515 0.0
N1703 N 0.61392 0.1928 0.47664 0.0
H1704 H 0.79186 0.39423 0.4445 0.0
H1705 H 0.85484 0.35701 0.5581 0.0
H1706 H 0.85543 0.35855 0.44543 0.0
H1707 H 0.79229 0.39444 0.55677 0.0
H1708 H 0.85535 0.35728 0.51688 0.0
H1709 H 0.79183 0.39442 0.48565 0.0
C1710 C 0.80586 0.38647 0.45333 0.0
C1711 C 0.8237 0.37638 0.44144 0.0
C1712 C 0.84153 0.36545 0.52561 0.0
C1713 C 0.8237 0.37649 0.48868 0.0
C1714 C 0.84121 0.36531 0.54917 0.0
C1715 C 0.8235 0.37576 0.56096 0.0
C1716 C 0.82401 0.37609 0.51371 0.0
C1717 C 0.8063 0.38619 0.54843 0.0
C1718 C 0.80582 0.38659 0.47687 0.0
C1719 C 0.84134 0.36657 0.45387 0.0
N1720 N 0.80699 0.38608 0.52551 0.0
N1721 N 0.84088 0.36685 0.47681 0.0
H1722 H 0.62303 0.78989 0.44251 0.0
H1723 H 0.62649 0.86024 0.55722 0.0
H1724 H 0.63325 0.86207 0.44354 0.0
H1725 H 0.63763 0.78823 0.55373 0.0
H1726 H 0.62654 0.86171 0.51584 0.0
H1727 H 0.62549 0.78935 0.48362 0.0
C1728 C 0.62572 0.80566 0.45138 0.0
C1729 C 0.62785 0.82608 0.43954 0.0
C1730 C 0.62911 0.84564 0.52419 0.0
C1731 C 0.63067 0.82555 0.48672 0.0
C1732 C 0.62905 0.84477 0.54779 0.0
C1733 C 0.63196 0.82406 0.559 0.0
C1734 C 0.6318 0.82563 0.51174 0.0
C1735 C 0.6353 0.80458 0.54588 0.0
C1736 C 0.62725 0.80531 0.47487 0.0
C1737 C 0.63151 0.84595 0.45198 0.0
N1738 N 0.63494 0.80583 0.52299 0.0
N1739 N 0.63267 0.84522 0.47492 0.0
H1740 H 0.13567 0.6237 0.55535 0.0
H1741 H 0.20939 0.62292 0.44278 0.0
H1742 H 0.20734 0.63661 0.55377 0.0
H1743 H 0.13713 0.63197 0.44152 0.0
H1744 H 0.2085 0.62455 0.48387 0.0
H1745 H 0.13534 0.62369 0.51389 0.0
C1746 C 0.1513 0.62657 0.54633 0.0
C1747 C 0.17157 0.63007 0.55808 0.0
C1748 C 0.19282 0.62624 0.47463 0.0
C1749 C 0.17131 0.62991 0.51082 0.0
C1750 C 0.1933 0.6252 0.45115 0.0
C1751 C 0.17329 0.62726 0.43867 0.0
C1752 C 0.17216 0.62911 0.48584 0.0
C1753 C 0.15296 0.63035 0.45048 0.0
C1754 C 0.15108 0.62662 0.5227 0.0
C1755 C 0.1913 0.63381 0.5455 0.0
N1756 N 0.15289 0.63105 0.47345 0.0
N1757 N 0.19069 0.63347 0.52261 0.0
H1758 H 0.35087 0.20553 0.44478 0.0
H1759 H 0.3835 0.13785 0.55718 0.0
H1760 H 0.38425 0.14068 0.44381 0.0
H1761 H 0.35328 0.20422 0.55639 0.0
H1762 H 0.38173 0.13709 0.51587 0.0
H1763 H 0.34934 0.20374 0.48578 0.0
C1764 C 0.35786 0.19085 0.45317 0.0
C1765 C 0.3679 0.17331 0.44077 0.0
C1766 C 0.37543 0.15177 0.52477 0.0
C1767 C 0.3662 0.17118 0.48799 0.0
C1768 C 0.37641 0.15222 0.54837 0.0
C1769 C 0.36868 0.17121 0.56032 0.0
C1770 C 0.3666 0.17041 0.51305 0.0
C1771 C 0.3596 0.18929 0.54795 0.0
C1772 C 0.35696 0.18984 0.47665 0.0
C1773 C 0.37644 0.15464 0.45266 0.0
N1774 N 0.35889 0.18845 0.52505 0.0
N1775 N 0.37551 0.15412 0.47564 0.0
H1776 H 0.44366 0.85775 0.63877 0.0
H1777 H 0.55623 0.79159 0.60377 0.0
H1778 H 0.44392 0.79363 0.604 0.0
H1779 H 0.5562 0.85591 0.63817 0.0
H1780 H 0.51509 0.79236 0.60324 0.0
H1781 H 0.48484 0.85766 0.63825 0.0
C1782 C 0.45234 0.84367 0.63097 0.0
C1783 C 0.44024 0.82568 0.62138 0.0
C1784 C 0.52407 0.80633 0.61087 0.0
C1785 C 0.48749 0.82546 0.6208 0.0
C1786 C 0.5476 0.80592 0.61117 0.0
C1787 C 0.55976 0.82373 0.62101 0.0
C1788 C 0.51252 0.82467 0.62051 0.0
C1789 C 0.54758 0.84182 0.63036 0.0
C1790 C 0.47589 0.84364 0.63069 0.0
C1791 C 0.45248 0.80788 0.61158 0.0
N1792 N 0.52466 0.8418 0.6299 0.0
N1793 N 0.4754 0.80823 0.61156 0.0
H1794 H 0.44081 0.16221 0.34058 0.0
H1795 H 0.55622 0.15826 0.4052 0.0
H1796 H 0.44408 0.18621 0.40927 0.0
H1797 H 0.55311 0.19042 0.33992 0.0
H1798 H 0.51471 0.15743 0.40623 0.0
H1799 H 0.48229 0.16184 0.33919 0.0
C1800 C 0.45031 0.16726 0.35537 0.0
C1801 C 0.4392 0.17433 0.37505 0.0
C1802 C 0.52323 0.16449 0.39167 0.0
C1803 C 0.48615 0.17333 0.37373 0.0
C1804 C 0.54676 0.16481 0.39097 0.0
C1805 C 0.5579 0.1744 0.37242 0.0
C1806 C 0.51096 0.17316 0.37338 0.0
C1807 C 0.54501 0.18294 0.3545 0.0
C1808 C 0.47382 0.16711 0.35453 0.0
C1809 C 0.45214 0.18081 0.39377 0.0
N1810 N 0.52212 0.18193 0.3553 0.0
N1811 N 0.47504 0.17991 0.39276 0.0
H1812 H 0.78849 0.55467 0.38148 0.0
H1813 H 0.86038 0.4412 0.37493 0.0
H1814 H 0.85988 0.55506 0.36713 0.0
H1815 H 0.7883 0.44375 0.36466 0.0
H1816 H 0.86119 0.48263 0.37535 0.0
H1817 H 0.7887 0.51353 0.37918 0.0
C1818 C 0.80424 0.5461 0.37794 0.0
C1819 C 0.82421 0.55834 0.37454 0.0
C1820 C 0.84526 0.47405 0.37287 0.0
C1821 C 0.82455 0.51118 0.37191 0.0
C1822 C 0.84477 0.45043 0.37267 0.0
C1823 C 0.82424 0.43896 0.36984 0.0
C1824 C 0.82504 0.48621 0.37058 0.0
C1825 C 0.80453 0.45182 0.3669 0.0
C1826 C 0.80432 0.52262 0.3765 0.0
C1827 C 0.84409 0.5463 0.36983 0.0
N1828 N 0.80541 0.47471 0.36754 0.0
N1829 N 0.8438 0.52335 0.36878 0.0
H1830 H 0.4439 0.79039 0.37827 0.0
H1831 H 0.55752 0.86253 0.3751 0.0
H1832 H 0.44393 0.86219 0.36563 0.0
H1833 H 0.55535 0.79015 0.36649 0.0
H1834 H 0.51614 0.86332 0.37465 0.0
H1835 H 0.485 0.79054 0.37724 0.0
C1836 C 0.45254 0.80623 0.37532 0.0
C1837 C 0.44039 0.82633 0.37209 0.0
C1838 C 0.52478 0.84731 0.37278 0.0
C1839 C 0.48764 0.8266 0.37095 0.0
C1840 C 0.54838 0.84682 0.3731 0.0
C1841 C 0.55998 0.82623 0.37089 0.0
C1842 C 0.51269 0.82704 0.37053 0.0
C1843 C 0.54721 0.80643 0.36824 0.0
C1844 C 0.47604 0.80627 0.37463 0.0
C1845 C 0.45259 0.8463 0.36817 0.0
N1846 N 0.52432 0.80732 0.36828 0.0
N1847 N 0.47556 0.84596 0.36785 0.0
H1848 H 0.13518 0.44348 0.3673 0.0
H1849 H 0.21159 0.55466 0.36702 0.0
H1850 H 0.20682 0.44332 0.38041 0.0
H1851 H 0.13916 0.55706 0.3744 0.0
H1852 H 0.20987 0.51352 0.36732 0.0
H1853 H 0.13609 0.48486 0.36559 0.0
C1854 C 0.15108 0.45211 0.36981 0.0
C1855 C 0.17094 0.43989 0.37412 0.0
C1856 C 0.19435 0.52304 0.36888 0.0
C1857 C 0.17209 0.48714 0.37196 0.0
C1858 C 0.19529 0.54656 0.36862 0.0
C1859 C 0.17549 0.5594 0.37081 0.0
C1860 C 0.17344 0.51214 0.3711 0.0
C1861 C 0.15487 0.54787 0.37282 0.0
C1862 C 0.15156 0.47571 0.36888 0.0
C1863 C 0.19106 0.452 0.37721 0.0
N1864 N 0.15437 0.52488 0.37288 0.0
N1865 N 0.19112 0.4749 0.37599 0.0
H1866 H 0.44283 0.20682 0.62058 0.0
H1867 H 0.55723 0.13601 0.62338 0.0
H1868 H 0.44324 0.13474 0.63164 0.0
H1869 H 0.5534 0.20772 0.63619 0.0
H1870 H 0.51582 0.13455 0.62276 0.0
H1871 H 0.4839 0.20687 0.62212 0.0
C1872 C 0.45156 0.19097 0.62324 0.0
C1873 C 0.43955 0.17074 0.62595 0.0
C1874 C 0.52414 0.15053 0.6258 0.0
C1875 C 0.48669 0.17069 0.62773 0.0
C1876 C 0.54773 0.1514 0.62612 0.0
C1877 C 0.55884 0.17202 0.62978 0.0
C1878 C 0.51166 0.17048 0.62885 0.0
C1879 C 0.54565 0.19143 0.6333 0.0
C1880 C 0.47502 0.19103 0.62424 0.0
C1881 C 0.45182 0.15073 0.62951 0.0
N1882 N 0.52283 0.19019 0.63258 0.0
N1883 N 0.47477 0.15118 0.63019 0.0
H1884 H 0.81698 0.55497 0.59217 0.0
H1885 H 0.81495 0.445 0.66356 0.0
H1886 H 0.84429 0.55711 0.65966 0.0
H1887 H 0.84362 0.44268 0.59667 0.0
H1888 H 0.81785 0.48646 0.66288 0.0
H1889 H 0.81853 0.51346 0.5934 0.0
C1890 C 0.82322 0.54665 0.60723 0.0
C1891 C 0.83055 0.55928 0.62584 0.0
C1892 C 0.82366 0.47677 0.64849 0.0
C1893 C 0.83189 0.51231 0.62747 0.0
C1894 C 0.82199 0.45328 0.64884 0.0
C1895 C 0.82921 0.44062 0.63019 0.0
C1896 C 0.83182 0.48753 0.62905 0.0
C1897 C 0.83812 0.45197 0.61143 0.0
C1898 C 0.82423 0.52312 0.60785 0.0
C1899 C 0.83861 0.54784 0.64495 0.0
N1900 N 0.83882 0.47491 0.61114 0.0
N1901 N 0.83876 0.52489 0.64544 0.0
H1902 H 0.13933 0.55733 0.64072 0.0
H1903 H 0.20839 0.44555 0.60814 0.0
H1904 H 0.20459 0.55778 0.6083 0.0
H1905 H 0.14336 0.44446 0.64098 0.0
H1906 H 0.20713 0.48674 0.60805 0.0
H1907 H 0.14034 0.51603 0.64098 0.0
C1908 C 0.15386 0.54879 0.63363 0.0
C1909 C 0.17187 0.56111 0.62442 0.0
C1910 C 0.19312 0.4775 0.61527 0.0
C1911 C 0.17314 0.5138 0.6247 0.0
C1912 C 0.19382 0.45394 0.61531 0.0
C1913 C 0.17593 0.44145 0.62452 0.0
C1914 C 0.1744 0.48875 0.62451 0.0
C1915 C 0.15752 0.45334 0.63363 0.0
C1916 C 0.15442 0.52519 0.6338 0.0
C1917 C 0.19028 0.54906 0.61555 0.0
N1918 N 0.15724 0.4763 0.63339 0.0
N1919 N 0.19042 0.52613 0.61591 0.0
H1920 H 0.13437 0.21564 0.29542 0.0
H1921 H 0.10695 0.24997 0.16786 0.0
H1922 H 0.10859 0.16932 0.24535 0.0
H1923 H 0.13586 0.29578 0.21667 0.0
H1924 H 0.10248 0.22181 0.19756 0.0
H1925 H 0.1301 0.24652 0.26841 0.0
C1926 C 0.12761 0.21196 0.27883 0.0
C1927 C 0.12216 0.18973 0.27256 0.0
C1928 C 0.10963 0.23808 0.20184 0.0
C1929 C 0.11728 0.22509 0.24151 0.0
C1930 C 0.11219 0.25421 0.18487 0.0
C1931 C 0.12213 0.27519 0.18967 0.0
C1932 C 0.11712 0.24287 0.22382 0.0
C1933 C 0.12832 0.27976 0.21211 0.0
C1934 C 0.12519 0.22963 0.2634 0.0
C1935 C 0.11325 0.18611 0.25088 0.0
N1936 N 0.12594 0.26364 0.2283 0.0
N1937 N 0.1113 0.20355 0.2361 0.0
H1938 H 0.75606 0.10728 0.16777 0.0
H1939 H 0.78584 0.13845 0.29574 0.0
H1940 H 0.70953 0.14006 0.21335 0.0
H1941 H 0.83321 0.10901 0.24877 0.0
H1942 H 0.75615 0.13463 0.26738 0.0
H1943 H 0.78285 0.10325 0.19879 0.0
C1944 C 0.75137 0.11347 0.18433 0.0
C1945 C 0.73061 0.12432 0.18784 0.0
C1946 C 0.77301 0.12884 0.26335 0.0
C1947 C 0.76132 0.11982 0.22348 0.0
C1948 C 0.78999 0.13099 0.27956 0.0
C1949 C 0.81217 0.12434 0.27454 0.0
C1950 C 0.77822 0.11998 0.24197 0.0
C1951 C 0.81644 0.11461 0.25333 0.0
C1952 C 0.76672 0.11118 0.20206 0.0
C1953 C 0.72543 0.13181 0.20976 0.0
N1954 N 0.79968 0.11291 0.23778 0.0
N1955 N 0.74076 0.1296 0.22669 0.0
H1956 H 0.86935 0.78456 0.29131 0.0
H1957 H 0.90018 0.75421 0.16312 0.0
H1958 H 0.89263 0.83403 0.24304 0.0
H1959 H 0.86194 0.71148 0.20797 0.0
H1960 H 0.90574 0.78105 0.19441 0.0
H1961 H 0.875 0.75508 0.26311 0.0
C1962 C 0.87585 0.78923 0.27486 0.0
C1963 C 0.88006 0.81191 0.26941 0.0
C1964 C 0.89641 0.76563 0.19741 0.0
C1965 C 0.88656 0.77815 0.23699 0.0
C1966 C 0.89335 0.75031 0.17963 0.0
C1967 C 0.88031 0.73085 0.18297 0.0
C1968 C 0.88659 0.76116 0.21859 0.0
C1969 C 0.87178 0.72652 0.20463 0.0
C1970 C 0.87906 0.77237 0.25874 0.0
C1971 C 0.88881 0.81683 0.24789 0.0
N1972 N 0.87495 0.7416 0.22155 0.0
N1973 N 0.89153 0.80012 0.23236 0.0
H1974 H 0.16811 0.8934 0.24796 0.0
H1975 H 0.29601 0.86578 0.21559 0.0
H1976 H 0.21555 0.86275 0.29407 0.0
H1977 H 0.24722 0.8938 0.16921 0.0
H1978 H 0.26846 0.86938 0.24608 0.0
H1979 H 0.19846 0.89845 0.22066 0.0
C1980 C 0.18495 0.88788 0.25245 0.0
C1981 C 0.18917 0.8773 0.27325 0.0
C1982 C 0.26387 0.87494 0.22928 0.0
C1983 C 0.22409 0.88298 0.24191 0.0
C1984 C 0.27962 0.87294 0.21183 0.0
C1985 C 0.27384 0.87918 0.18968 0.0
C1986 C 0.24218 0.88325 0.22456 0.0
C1987 C 0.25238 0.88851 0.18593 0.0
C1988 C 0.2023 0.89077 0.23681 0.0
C1989 C 0.21142 0.87076 0.27817 0.0
N1990 N 0.23729 0.89005 0.20313 0.0
N1991 N 0.22799 0.87349 0.26251 0.0
H1992 H 0.13342 0.78973 0.70735 0.0
H1993 H 0.10031 0.75814 0.83287 0.0
H1994 H 0.09964 0.83651 0.75177 0.0
H1995 H 0.1237 0.70978 0.78352 0.0
H1996 H 0.09559 0.78595 0.80273 0.0
H1997 H 0.12579 0.75932 0.73391 0.0
C1998 C 0.12418 0.79352 0.72269 0.0
C1999 C 0.11744 0.81567 0.7276 0.0
C2000 C 0.10141 0.76914 0.79846 0.0
C2001 C 0.10888 0.78096 0.75833 0.0
C2002 C 0.10413 0.75323 0.81567 0.0
C2003 C 0.11287 0.7317 0.8108 0.0
C2004 C 0.10761 0.76353 0.77628 0.0
C2005 C 0.11728 0.72626 0.78816 0.0
C2006 C 0.11976 0.77613 0.73784 0.0
C2007 C 0.10521 0.81964 0.74748 0.0
N2008 N 0.11491 0.74217 0.77182 0.0
N2009 N 0.10167 0.80248 0.76238 0.0
H2010 H 0.29325 0.13314 0.78724 0.0
H2011 H 0.16529 0.10586 0.75862 0.0
H2012 H 0.24857 0.10072 0.83465 0.0
H2013 H 0.2135 0.13121 0.71019 0.0
H2014 H 0.19606 0.09968 0.78543 0.0
H2015 H 0.26522 0.12812 0.75762 0.0
C2016 C 0.27756 0.12468 0.7913 0.0
C2017 C 0.27304 0.11758 0.81342 0.0
C2018 C 0.19992 0.10634 0.76884 0.0
C2019 C 0.2406 0.11211 0.77967 0.0
C2020 C 0.18235 0.10992 0.75351 0.0
C2021 C 0.18674 0.11948 0.73224 0.0
C2022 C 0.22201 0.11244 0.76288 0.0
C2023 C 0.20922 0.12415 0.7265 0.0
C2024 C 0.26155 0.1218 0.77439 0.0
C2025 C 0.25262 0.10647 0.81778 0.0
N2026 N 0.22594 0.12082 0.74182 0.0
N2027 N 0.23692 0.10442 0.8011 0.0
H2028 H 0.90145 0.16192 0.75185 0.0
H2029 H 0.86962 0.28862 0.78638 0.0
H2030 H 0.86646 0.20926 0.70894 0.0
H2031 H 0.89342 0.23877 0.83404 0.0
H2032 H 0.87634 0.26191 0.75579 0.0
H2033 H 0.9066 0.19208 0.77996 0.0
C2034 C 0.8953 0.17875 0.74818 0.0
C2035 C 0.88321 0.18311 0.7283 0.0
C2036 C 0.88027 0.25686 0.77292 0.0
C2037 C 0.88894 0.21744 0.76011 0.0
C2038 C 0.8764 0.27212 0.79042 0.0
C2039 C 0.8805 0.26578 0.81289 0.0
C2040 C 0.88823 0.23505 0.77787 0.0
C2041 C 0.88968 0.24428 0.81701 0.0
C2042 C 0.89811 0.1959 0.76422 0.0
C2043 C 0.87554 0.20515 0.72428 0.0
N2044 N 0.89298 0.22957 0.79969 0.0
N2045 N 0.87836 0.22142 0.74012 0.0
H2046 H 0.75275 0.89839 0.83742 0.0
H2047 H 0.78777 0.86874 0.71021 0.0
H2048 H 0.71003 0.86461 0.78912 0.0
H2049 H 0.83575 0.88992 0.76083 0.0
H2050 H 0.75733 0.87505 0.73711 0.0
H2051 H 0.78144 0.90321 0.80773 0.0
C2052 C 0.74925 0.89243 0.82048 0.0
C2053 C 0.7292 0.88082 0.8157 0.0
C2054 C 0.7745 0.87848 0.74231 0.0
C2055 C 0.76167 0.8862 0.78191 0.0
C2056 C 0.79192 0.87486 0.72695 0.0
C2057 C 0.81442 0.87837 0.73339 0.0
C2058 C 0.77952 0.88562 0.76438 0.0
C2059 C 0.81867 0.88671 0.75521 0.0
C2060 C 0.76563 0.89504 0.80362 0.0
C2061 C 0.72545 0.87335 0.79355 0.0
N2062 N 0.8014 0.8898 0.77003 0.0
N2063 N 0.74157 0.87602 0.77755 0.0
H2064 H 0.24112 0.09883 0.16078 0.0
H2065 H 0.20951 0.13259 0.28736 0.0
H2066 H 0.28523 0.13243 0.20792 0.0
H2067 H 0.16185 0.10059 0.24266 0.0
H2068 H 0.23925 0.12604 0.2599 0.0
H2069 H 0.21371 0.09297 0.19157 0.0
C2070 C 0.2452 0.10452 0.17768 0.0
C2071 C 0.26522 0.11644 0.18184 0.0
C2072 C 0.22238 0.12022 0.25602 0.0
C2073 C 0.23426 0.10988 0.21684 0.0
C2074 C 0.20539 0.12399 0.27174 0.0
C2075 C 0.1832 0.11743 0.26707 0.0
C2076 C 0.21714 0.11021 0.23516 0.0
C2077 C 0.1788 0.106 0.24677 0.0
C2078 C 0.22957 0.10129 0.19518 0.0
C2079 C 0.26978 0.12352 0.20394 0.0
N2080 N 0.19559 0.10309 0.23129 0.0
N2081 N 0.25438 0.12029 0.2205 0.0
H2082 H 0.87105 0.28963 0.21453 0.0
H2083 H 0.90265 0.1629 0.24896 0.0
H2084 H 0.89463 0.23979 0.16676 0.0
H2085 H 0.86819 0.21049 0.292 0.0
H2086 H 0.90796 0.19304 0.22084 0.0
H2087 H 0.87807 0.26299 0.24511 0.0
C2088 C 0.87785 0.27313 0.21046 0.0
C2089 C 0.88178 0.26677 0.18798 0.0
C2090 C 0.89957 0.19691 0.23662 0.0
C2091 C 0.88984 0.23612 0.22299 0.0
C2092 C 0.89667 0.17979 0.25267 0.0
C2093 C 0.88466 0.18423 0.27258 0.0
C2094 C 0.89056 0.21852 0.24076 0.0
C2095 C 0.8772 0.20633 0.27663 0.0
C2096 C 0.88189 0.25792 0.22795 0.0
C2097 C 0.89102 0.2453 0.18382 0.0
N2098 N 0.88009 0.22257 0.26079 0.0
N2099 N 0.89446 0.23062 0.20114 0.0
H2100 H 0.75295 0.89484 0.16484 0.0
H2101 H 0.78984 0.86363 0.2898 0.0
H2102 H 0.70801 0.86641 0.21468 0.0
H2103 H 0.83318 0.89981 0.2439 0.0
H2104 H 0.75846 0.8687 0.26377 0.0
H2105 H 0.78115 0.90078 0.19432 0.0
C2106 C 0.7489 0.89004 0.18202 0.0
C2107 C 0.72819 0.8797 0.18719 0.0
C2108 C 0.7747 0.87583 0.25941 0.0
C2109 C 0.76049 0.88647 0.22103 0.0
C2110 C 0.79263 0.87291 0.27427 0.0
C2111 C 0.81414 0.88107 0.2688 0.0
C2112 C 0.77834 0.88664 0.23864 0.0
C2113 C 0.81683 0.89322 0.24866 0.0
C2114 C 0.76502 0.8935 0.19886 0.0
C2115 C 0.72382 0.87414 0.20981 0.0
N2116 N 0.79918 0.8953 0.23406 0.0
N2117 N 0.73993 0.87734 0.22581 0.0
H2118 H 0.12924 0.70738 0.21433 0.0
H2119 H 0.09728 0.83445 0.2477 0.0
H2120 H 0.10234 0.75581 0.16686 0.0
H2121 H 0.13701 0.78933 0.28884 0.0
H2122 H 0.0911 0.80346 0.22072 0.0
H2123 H 0.12401 0.73485 0.24458 0.0
C2124 C 0.12201 0.72369 0.21028 0.0
C2125 C 0.11667 0.72944 0.18792 0.0
C2126 C 0.10091 0.80033 0.23583 0.0
C2127 C 0.11069 0.76103 0.22252 0.0
C2128 C 0.10435 0.81795 0.25122 0.0
C2129 C 0.11799 0.81448 0.27025 0.0
C2130 C 0.11099 0.77917 0.23976 0.0
C2131 C 0.12674 0.7928 0.27411 0.0
C2132 C 0.11904 0.7394 0.22757 0.0
C2133 C 0.10703 0.75075 0.18379 0.0
N2134 N 0.12323 0.77604 0.25894 0.0
N2135 N 0.10461 0.76589 0.20088 0.0
H2136 H 0.21674 0.8625 0.70234 0.0
H2137 H 0.24856 0.89598 0.82918 0.0
H2138 H 0.17013 0.89233 0.74982 0.0
H2139 H 0.29536 0.86476 0.78281 0.0
H2140 H 0.22123 0.89935 0.79859 0.0
H2141 H 0.24713 0.86759 0.72982 0.0
C2142 C 0.2129 0.8703 0.71844 0.0
C2143 C 0.19073 0.87667 0.72388 0.0
C2144 C 0.23755 0.89195 0.79503 0.0
C2145 C 0.22548 0.88251 0.75543 0.0
C2146 C 0.25322 0.89005 0.81251 0.0
C2147 C 0.27422 0.87977 0.80869 0.0
C2148 C 0.24282 0.88342 0.77352 0.0
C2149 C 0.27931 0.8726 0.78664 0.0
C2150 C 0.23028 0.87319 0.73413 0.0
C2151 C 0.18687 0.88689 0.74495 0.0
N2152 N 0.26363 0.87433 0.76996 0.0
N2153 N 0.204 0.88929 0.75999 0.0
H2154 H 0.09834 0.24259 0.84092 0.0
H2155 H 0.1256 0.20817 0.71348 0.0
H2156 H 0.13092 0.285 0.79152 0.0
H2157 H 0.10016 0.16039 0.76212 0.0
H2158 H 0.1191 0.23861 0.74028 0.0
H2159 H 0.0911 0.21443 0.81113 0.0
C2160 C 0.10356 0.24613 0.82375 0.0
C2161 C 0.11557 0.2659 0.81865 0.0
C2162 C 0.11465 0.22156 0.74515 0.0
C2163 C 0.10732 0.23411 0.78475 0.0
C2164 C 0.11833 0.2042 0.72981 0.0
C2165 C 0.11368 0.18183 0.73581 0.0
C2166 C 0.10673 0.2165 0.76693 0.0
C2167 C 0.10402 0.17751 0.75699 0.0
C2168 C 0.09951 0.23007 0.80682 0.0
C2169 C 0.12198 0.26976 0.79622 0.0
N2170 N 0.10125 0.19471 0.77206 0.0
N2171 N 0.11792 0.25397 0.78019 0.0
H2172 H 0.70544 0.13554 0.78467 0.0
H2173 H 0.83237 0.10571 0.75052 0.0
H2174 H 0.75449 0.10728 0.83063 0.0
H2175 H 0.78492 0.1376 0.70526 0.0
H2176 H 0.8024 0.10142 0.77836 0.0
H2177 H 0.73262 0.13169 0.75392 0.0
C2178 C 0.72184 0.12834 0.78829 0.0
C2179 C 0.72778 0.12204 0.81039 0.0
C2180 C 0.79848 0.1092 0.76228 0.0
C2181 C 0.75901 0.11763 0.77519 0.0
C2182 C 0.8156 0.11166 0.74633 0.0
C2183 C 0.81127 0.12235 0.72561 0.0
C2184 C 0.77681 0.11754 0.75757 0.0
C2185 C 0.78912 0.12946 0.72108 0.0
C2186 C 0.73737 0.12616 0.7707 0.0
C2187 C 0.74922 0.11259 0.81395 0.0
N2188 N 0.77277 0.12713 0.73703 0.0
N2189 N 0.7641 0.11088 0.79659 0.0
H2190 H 0.87694 0.70952 0.78908 0.0
H2191 H 0.90344 0.83861 0.76153 0.0
H2192 H 0.89987 0.75634 0.83986 0.0
H2193 H 0.87511 0.79029 0.71506 0.0
H2194 H 0.91035 0.8077 0.78861 0.0
H2195 H 0.88486 0.73745 0.76003 0.0
C2196 C 0.88394 0.72569 0.79403 0.0
C2197 C 0.88745 0.73084 0.81682 0.0
C2198 C 0.90302 0.80387 0.7723 0.0
C2199 C 0.89604 0.76326 0.78372 0.0
C2200 C 0.89919 0.82144 0.75687 0.0
C2201 C 0.8884 0.8169 0.73629 0.0
C2202 C 0.89616 0.78178 0.76683 0.0
C2203 C 0.88313 0.79449 0.73096 0.0
C2204 C 0.88845 0.74167 0.77746 0.0
C2205 C 0.89685 0.75185 0.8224 0.0
N2206 N 0.88689 0.77784 0.74618 0.0
N2207 N 0.90042 0.76756 0.80594 0.0
H2208 H 0.29153 0.21519 0.13107 0.0
H2209 H 0.16507 0.25056 0.09948 0.0
H2210 H 0.24195 0.16768 0.10664 0.0
H2211 H 0.21062 0.29076 0.1396 0.0
H2212 H 0.19535 0.22265 0.09398 0.0
H2213 H 0.26432 0.24562 0.12597 0.0
C2214 C 0.27499 0.21115 0.12445 0.0
C2215 C 0.26889 0.18875 0.11971 0.0
C2216 C 0.19872 0.23774 0.10373 0.0
C2217 C 0.2376 0.22361 0.11385 0.0
C2218 C 0.18153 0.25368 0.10678 0.0
C2219 C 0.18532 0.27276 0.12028 0.0
C2220 C 0.21982 0.24121 0.11403 0.0
C2221 C 0.20691 0.27605 0.12938 0.0
C2222 C 0.25944 0.22856 0.12155 0.0
C2223 C 0.24729 0.18466 0.11081 0.0
N2224 N 0.22328 0.26039 0.12619 0.0
N2225 N 0.23231 0.2019 0.1084 0.0
H2226 H 0.16661 0.75702 0.84199 0.0
H2227 H 0.26279 0.82111 0.91162 0.0
H2228 H 0.18382 0.73612 0.9096 0.0
H2229 H 0.255 0.82044 0.83913 0.0
H2230 H 0.22951 0.79604 0.91472 0.0
H2231 H 0.19355 0.78773 0.8448 0.0
C2232 C 0.17606 0.75906 0.85754 0.0
C2233 C 0.17342 0.74389 0.87543 0.0
C2234 C 0.23516 0.80158 0.89824 0.0
C2235 C 0.20472 0.77876 0.87866 0.0
C2236 C 0.25402 0.81582 0.89647 0.0
C2237 C 0.26177 0.82253 0.87508 0.0
C2238 C 0.22394 0.79466 0.8785 0.0
C2239 C 0.24988 0.81536 0.85594 0.0
C2240 C 0.19146 0.77656 0.85915 0.0
C2241 C 0.18565 0.7475 0.8954 0.0
N2242 N 0.23165 0.8019 0.85813 0.0
N2243 N 0.20119 0.76446 0.89639 0.0
H2244 H 0.29727 0.21558 0.85934 0.0
H2245 H 0.17007 0.24501 0.89321 0.0
H2246 H 0.25138 0.16846 0.89075 0.0
H2247 H 0.21527 0.29259 0.86152 0.0
H2248 H 0.20121 0.21826 0.89653 0.0
H2249 H 0.26908 0.24542 0.86404 0.0
C2250 C 0.28138 0.21153 0.86742 0.0
C2251 C 0.27658 0.18936 0.87433 0.0
C2252 C 0.20438 0.23462 0.88902 0.0
C2253 C 0.24423 0.22343 0.8797 0.0
C2254 C 0.18657 0.24993 0.88713 0.0
C2255 C 0.18993 0.27099 0.87677 0.0
C2256 C 0.22572 0.24032 0.88041 0.0
C2257 C 0.21179 0.27647 0.8694 0.0
C2258 C 0.26528 0.22858 0.87007 0.0
C2259 C 0.25576 0.1852 0.88486 0.0
N2260 N 0.22879 0.26115 0.87115 0.0
N2261 N 0.24031 0.202 0.88703 0.0
H2262 H 0.75584 0.15823 0.90241 0.0
H2263 H 0.79214 0.28494 0.87425 0.0
H2264 H 0.71466 0.20768 0.86831 0.0
H2265 H 0.83909 0.23575 0.90018 0.0
H2266 H 0.76137 0.25857 0.88064 0.0
H2267 H 0.78428 0.18771 0.90958 0.0
C2268 C 0.75263 0.17535 0.89683 0.0
C2269 C 0.73312 0.18054 0.88443 0.0
C2270 C 0.77831 0.25349 0.88521 0.0
C2271 C 0.76523 0.21409 0.89261 0.0
C2272 C 0.79587 0.26859 0.8816 0.0
C2273 C 0.81811 0.2623 0.88641 0.0
C2274 C 0.78303 0.23168 0.89325 0.0
C2275 C 0.82208 0.2411 0.89619 0.0
C2276 C 0.76884 0.1921 0.90084 0.0
C2277 C 0.72968 0.20291 0.87757 0.0
N2278 N 0.8047 0.22627 0.89891 0.0
N2279 N 0.74562 0.21877 0.88161 0.0
H2280 H 0.83078 0.75165 0.89087 0.0
H2281 H 0.70316 0.78307 0.86074 0.0
H2282 H 0.78519 0.70623 0.85665 0.0
H2283 H 0.75055 0.82944 0.89101 0.0
H2284 H 0.73126 0.75302 0.86377 0.0
H2285 H 0.79996 0.77848 0.89558 0.0
C2286 C 0.81426 0.74723 0.88445 0.0
C2287 C 0.81069 0.72676 0.87303 0.0
C2288 C 0.73543 0.76972 0.86993 0.0
C2289 C 0.77524 0.75754 0.87838 0.0
C2290 C 0.71937 0.78691 0.86825 0.0
C2291 C 0.72459 0.80894 0.87533 0.0
C2292 C 0.75687 0.77458 0.87876 0.0
C2293 C 0.74583 0.8128 0.88509 0.0
C2294 C 0.79664 0.76259 0.88717 0.0
C2295 C 0.78881 0.7219 0.86534 0.0
N2296 N 0.76123 0.79586 0.88632 0.0
N2297 N 0.77196 0.73727 0.86798 0.0
H2298 H 0.83315 0.75454 0.10336 0.0
H2299 H 0.70804 0.78947 0.13488 0.0
H2300 H 0.78361 0.70828 0.13013 0.0
H2301 H 0.7531 0.83381 0.09886 0.0
H2302 H 0.73432 0.75839 0.12916 0.0
H2303 H 0.80338 0.7825 0.09759 0.0
C2304 C 0.81598 0.75014 0.1078 0.0
C2305 C 0.81096 0.72915 0.11767 0.0
C2306 C 0.73844 0.77479 0.12221 0.0
C2307 C 0.77683 0.76115 0.11112 0.0
C2308 C 0.72344 0.79255 0.12551 0.0
C2309 C 0.72862 0.81423 0.11759 0.0
C2310 C 0.75905 0.7788 0.11127 0.0
C2311 C 0.74858 0.81731 0.10529 0.0
C2312 C 0.79899 0.76613 0.10444 0.0
C2313 C 0.78837 0.72433 0.1228 0.0
N2314 N 0.76333 0.79983 0.10285 0.0
N2315 N 0.77222 0.74032 0.11973 0.0
H2316 H 0.2608 0.82402 0.08657 0.0
H2317 H 0.16802 0.75452 0.15461 0.0
H2318 H 0.25995 0.81247 0.1586 0.0
H2319 H 0.18451 0.73481 0.08646 0.0
H2320 H 0.19555 0.7848 0.15231 0.0
H2321 H 0.22802 0.79838 0.08283 0.0
C2322 C 0.25375 0.81616 0.1015 0.0
C2323 C 0.26317 0.82026 0.12291 0.0
C2324 C 0.1931 0.77401 0.13774 0.0
C2325 C 0.22584 0.79178 0.1188 0.0
C2326 C 0.17737 0.75679 0.13903 0.0
C2327 C 0.17441 0.74201 0.12084 0.0
C2328 C 0.20627 0.77639 0.11822 0.0
C2329 C 0.18656 0.74588 0.10086 0.0
C2330 C 0.23517 0.80161 0.09934 0.0
C2331 C 0.25347 0.8097 0.14173 0.0
N2332 N 0.20238 0.76261 0.10015 0.0
N2333 N 0.23535 0.79613 0.13922 0.0
H2334 H 0.71378 0.20802 0.1189 0.0
H2335 H 0.84386 0.23629 0.09913 0.0
H2336 H 0.76253 0.15689 0.10154 0.0
H2337 H 0.79383 0.28228 0.12516 0.0
H2338 H 0.81369 0.20872 0.0912 0.0
H2339 H 0.74189 0.23706 0.11166 0.0
C2340 C 0.73041 0.20299 0.1132 0.0
C2341 C 0.73603 0.18015 0.11106 0.0
C2342 C 0.80934 0.22502 0.09826 0.0
C2343 C 0.76862 0.21322 0.1034 0.0
C2344 C 0.82649 0.24073 0.10267 0.0
C2345 C 0.82122 0.26135 0.11308 0.0
C2346 C 0.78693 0.23028 0.10408 0.0
C2347 C 0.79857 0.26638 0.11745 0.0
C2348 C 0.74651 0.21954 0.10912 0.0
C2349 C 0.75768 0.17442 0.1034 0.0
N2350 N 0.78233 0.25093 0.11307 0.0
N2351 N 0.77344 0.19089 0.10027 0.0
H2352 H 0.59802 0.73935 0.65751 0.0
H2353 H 0.62378 0.7052 0.78513 0.0
H2354 H 0.62537 0.78353 0.70849 0.0
H2355 H 0.60025 0.65704 0.73592 0.0
H2356 H 0.61622 0.73566 0.75864 0.0
H2357 H 0.59103 0.71069 0.68689 0.0
C2358 C 0.60205 0.74317 0.67494 0.0
C2359 C 0.6126 0.76359 0.68064 0.0
C2360 C 0.61242 0.71851 0.75357 0.0
C2361 C 0.60473 0.73122 0.71406 0.0
C2362 C 0.61672 0.70114 0.76873 0.0
C2363 C 0.6129 0.67868 0.76249 0.0
C2364 C 0.60475 0.7134 0.73171 0.0
C2365 C 0.60347 0.67423 0.74123 0.0
C2366 C 0.59817 0.72683 0.69164 0.0
C2367 C 0.61757 0.7678 0.70337 0.0
N2368 N 0.60012 0.69147 0.72632 0.0
N2369 N 0.61377 0.75171 0.71916 0.0
H2370 H 0.33424 0.60547 0.7383 0.0
H2371 H 0.20782 0.63746 0.70853 0.0
H2372 H 0.28682 0.63337 0.78616 0.0
H2373 H 0.25108 0.60143 0.66236 0.0
H2374 H 0.23542 0.6319 0.73844 0.0
H2375 H 0.30333 0.59984 0.71157 0.0
C2376 C 0.31731 0.61021 0.7433 0.0
C2377 C 0.31319 0.62034 0.76436 0.0
C2378 C 0.23887 0.62493 0.72188 0.0
C2379 C 0.2778 0.61392 0.73384 0.0
C2380 C 0.22311 0.62814 0.7048 0.0
C2381 C 0.2274 0.62017 0.68294 0.0
C2382 C 0.25931 0.61402 0.717 0.0
C2383 C 0.24725 0.60792 0.67902 0.0
C2384 C 0.29967 0.60693 0.72803 0.0
C2385 C 0.29088 0.62586 0.76999 0.0
N2386 N 0.26274 0.60555 0.69584 0.0
N2387 N 0.2741 0.62283 0.75472 0.0
H2388 H 0.37243 0.28421 0.79194 0.0
H2389 H 0.4014 0.25162 0.66393 0.0
H2390 H 0.39541 0.33272 0.74258 0.0
H2391 H 0.36612 0.20866 0.71095 0.0
H2392 H 0.40725 0.27923 0.69447 0.0
H2393 H 0.37814 0.25416 0.76439 0.0
C2394 C 0.37887 0.28855 0.77538 0.0
C2395 C 0.383 0.31111 0.76945 0.0
C2396 C 0.39851 0.2636 0.69811 0.0
C2397 C 0.38952 0.2767 0.73772 0.0
C2398 C 0.3953 0.24783 0.68075 0.0
C2399 C 0.38297 0.22807 0.68492 0.0
C2400 C 0.38954 0.2593 0.7197 0.0
C2401 C 0.37538 0.22391 0.70697 0.0
C2402 C 0.38212 0.27136 0.75963 0.0
C2403 C 0.39169 0.31561 0.7478 0.0
N2404 N 0.37864 0.23945 0.72345 0.0
N2405 N 0.3944 0.29858 0.73262 0.0
H2406 H 0.79303 0.37037 0.71655 0.0
H2407 H 0.6662 0.40099 0.75124 0.0
H2408 H 0.74422 0.39757 0.66969 0.0
H2409 H 0.7114 0.35973 0.79077 0.0
H2410 H 0.69699 0.40795 0.72427 0.0
H2411 H 0.76571 0.37492 0.747 0.0
C2412 C 0.77667 0.37754 0.71268 0.0
C2413 C 0.77075 0.38313 0.69042 0.0
C2414 C 0.70017 0.39761 0.73902 0.0
C2415 C 0.73935 0.38831 0.72525 0.0
C2416 C 0.68267 0.3937 0.7544 0.0
C2417 C 0.68622 0.37944 0.77297 0.0
C2418 C 0.72131 0.3874 0.74252 0.0
C2419 C 0.70785 0.37047 0.77639 0.0
C2420 C 0.76106 0.38012 0.73009 0.0
C2421 C 0.7494 0.39272 0.68654 0.0
N2422 N 0.72451 0.37448 0.76125 0.0
N2423 N 0.73434 0.39473 0.70374 0.0
H2424 H 0.62643 0.2096 0.28656 0.0
H2425 H 0.59844 0.33762 0.25345 0.0
H2426 H 0.60462 0.2596 0.335 0.0
H2427 H 0.63306 0.29 0.21056 0.0
H2428 H 0.59234 0.30729 0.28122 0.0
H2429 H 0.62047 0.23692 0.25635 0.0
C2430 C 0.62021 0.22627 0.29085 0.0
C2431 C 0.6165 0.23246 0.31342 0.0
C2432 C 0.60098 0.30347 0.26556 0.0
C2433 C 0.60968 0.26389 0.27884 0.0
C2434 C 0.60435 0.32071 0.24972 0.0
C2435 C 0.61658 0.3163 0.22993 0.0
C2436 C 0.6097 0.28177 0.26133 0.0
C2437 C 0.6239 0.29416 0.22583 0.0
C2438 C 0.61679 0.24188 0.27357 0.0
C2439 C 0.60802 0.25419 0.31787 0.0
N2440 N 0.6205 0.27779 0.24145 0.0
N2441 N 0.60517 0.26924 0.30075 0.0
H2442 H 0.67638 0.65906 0.24705 0.0
H2443 H 0.7662 0.58562 0.31354 0.0
H2444 H 0.68111 0.58733 0.23521 0.0
H2445 H 0.74323 0.65175 0.33348 0.0
H2446 H 0.73494 0.58373 0.28592 0.0
H2447 H 0.70102 0.65521 0.27935 0.0
C2448 C 0.6827 0.64241 0.2513 0.0
C2449 C 0.67696 0.62352 0.23831 0.0
C2450 C 0.73655 0.5984 0.29671 0.0
C2451 C 0.70547 0.61888 0.27556 0.0
C2452 C 0.75425 0.59943 0.31244 0.0
C2453 C 0.75728 0.61899 0.32545 0.0
C2454 C 0.72209 0.6171 0.2942 0.0
C2455 C 0.74159 0.63652 0.32347 0.0
C2456 C 0.69668 0.64016 0.26991 0.0
C2457 C 0.68529 0.60229 0.24485 0.0
N2458 N 0.72485 0.63523 0.30802 0.0
N2459 N 0.69949 0.60054 0.26292 0.0
H2460 H 0.40139 0.7452 0.33428 0.0
H2461 H 0.36951 0.71613 0.20611 0.0
H2462 H 0.36471 0.7893 0.28941 0.0
H2463 H 0.39356 0.66638 0.25374 0.0
H2464 H 0.37597 0.7455 0.23426 0.0
H2465 H 0.40677 0.71858 0.30277 0.0
C2466 C 0.39489 0.74944 0.31771 0.0
C2467 C 0.38228 0.76921 0.31442 0.0
C2468 C 0.38003 0.72818 0.23849 0.0
C2469 C 0.38833 0.73915 0.27857 0.0
C2470 C 0.37635 0.71138 0.2224 0.0
C2471 C 0.38054 0.68867 0.2277 0.0
C2472 C 0.38793 0.72227 0.26008 0.0
C2473 C 0.38973 0.68362 0.24902 0.0
C2474 C 0.39784 0.73426 0.29981 0.0
C2475 C 0.37418 0.774 0.2927 0.0
N2476 N 0.39286 0.70025 0.26453 0.0
N2477 N 0.37719 0.75902 0.27566 0.0
H2478 H 0.20789 0.3664 0.28992 0.0
H2479 H 0.33543 0.39437 0.26089 0.0
H2480 H 0.25222 0.39957 0.33715 0.0
H2481 H 0.28668 0.37088 0.21206 0.0
H2482 H 0.30484 0.40018 0.28802 0.0
H2483 H 0.23572 0.37187 0.26021 0.0
C2484 C 0.22346 0.37511 0.29392 0.0
C2485 C 0.22794 0.38232 0.31601 0.0
C2486 C 0.30083 0.39403 0.27127 0.0
C2487 C 0.26016 0.3883 0.28216 0.0
C2488 C 0.31829 0.39067 0.25576 0.0
C2489 C 0.31369 0.38171 0.23427 0.0
C2490 C 0.27865 0.38831 0.26526 0.0
C2491 C 0.29112 0.37746 0.22853 0.0
C2492 C 0.23936 0.37826 0.27695 0.0
C2493 C 0.2482 0.39374 0.32029 0.0
N2494 N 0.27453 0.38055 0.24401 0.0
N2495 N 0.26381 0.39603 0.30356 0.0
H2496 H 0.66523 0.60296 0.73977 0.0
H2497 H 0.79294 0.63061 0.71032 0.0
H2498 H 0.71353 0.62916 0.78765 0.0
H2499 H 0.74772 0.59887 0.66297 0.0
H2500 H 0.76521 0.62527 0.74017 0.0
H2501 H 0.69586 0.59677 0.71283 0.0
C2502 C 0.68229 0.60721 0.74473 0.0
C2503 C 0.68673 0.61701 0.76589 0.0
C2504 C 0.76135 0.61916 0.72337 0.0
C2505 C 0.72186 0.60993 0.73509 0.0
C2506 C 0.7772 0.6222 0.70633 0.0
C2507 C 0.77243 0.6154 0.68417 0.0
C2508 C 0.74032 0.60961 0.71816 0.0
C2509 C 0.75196 0.60437 0.67988 0.0
C2510 C 0.69978 0.60362 0.72933 0.0
C2511 C 0.70921 0.62191 0.77143 0.0
N2512 N 0.73642 0.60217 0.69669 0.0
N2513 N 0.72585 0.61856 0.75605 0.0
H2514 H 0.40225 0.65859 0.73565 0.0
H2515 H 0.37585 0.78752 0.70757 0.0
H2516 H 0.3752 0.70743 0.78236 0.0
H2517 H 0.39975 0.74075 0.65717 0.0
H2518 H 0.38365 0.75971 0.73677 0.0
H2519 H 0.40913 0.6893 0.70837 0.0
C2520 C 0.39829 0.67583 0.74032 0.0
C2521 C 0.38785 0.68058 0.76103 0.0
C2522 C 0.38746 0.75546 0.71939 0.0
C2523 C 0.39555 0.71548 0.73025 0.0
C2524 C 0.38301 0.77137 0.70274 0.0
C2525 C 0.38686 0.76621 0.68001 0.0
C2526 C 0.39533 0.73392 0.71327 0.0
C2527 C 0.39647 0.74524 0.67459 0.0
C2528 C 0.4021 0.69329 0.72477 0.0
C2529 C 0.38294 0.70308 0.76637 0.0
N2530 N 0.39997 0.72959 0.69111 0.0
N2531 N 0.38665 0.71961 0.75103 0.0
H2532 H 0.2938 0.36887 0.7868 0.0
H2533 H 0.25942 0.40189 0.66094 0.0
H2534 H 0.34093 0.39915 0.74038 0.0
H2535 H 0.21535 0.37144 0.7102 0.0
H2536 H 0.28789 0.40748 0.69077 0.0
H2537 H 0.26336 0.37638 0.76038 0.0
C2538 C 0.29765 0.37731 0.77101 0.0
C2539 C 0.31986 0.3831 0.76554 0.0
C2540 C 0.27182 0.39995 0.69506 0.0
C2541 C 0.28512 0.39137 0.73481 0.0
C2542 C 0.25558 0.39687 0.6781 0.0
C2543 C 0.23524 0.38587 0.68315 0.0
C2544 C 0.26743 0.3921 0.71707 0.0
C2545 C 0.23101 0.37962 0.70556 0.0
C2546 C 0.28026 0.38163 0.75589 0.0
C2547 C 0.32396 0.39434 0.74508 0.0
N2548 N 0.24701 0.38264 0.72158 0.0
N2549 N 0.30675 0.39775 0.73017 0.0
H2550 H 0.60573 0.3293 0.75213 0.0
H2551 H 0.63455 0.20233 0.71717 0.0
H2552 H 0.63874 0.28179 0.79654 0.0
H2553 H 0.60484 0.25152 0.67224 0.0
H2554 H 0.63094 0.22922 0.74826 0.0
H2555 H 0.60006 0.29914 0.72473 0.0
C2556 C 0.61165 0.31247 0.75622 0.0
C2557 C 0.62309 0.30818 0.77653 0.0
C2558 C 0.625 0.23403 0.73164 0.0
C2559 C 0.61669 0.2735 0.74509 0.0
C2560 C 0.62702 0.21867 0.71386 0.0
C2561 C 0.62034 0.2248 0.69193 0.0
C2562 C 0.61623 0.25568 0.72748 0.0
C2563 C 0.61048 0.24613 0.68877 0.0
C2564 C 0.60838 0.29524 0.74054 0.0
C2565 C 0.63006 0.28595 0.781 0.0
N2566 N 0.60896 0.26086 0.70628 0.0
N2567 N 0.62699 0.26949 0.76528 0.0
H2568 H 0.71516 0.36078 0.2047 0.0
H2569 H 0.74577 0.39238 0.3322 0.0
H2570 H 0.66902 0.39272 0.25126 0.0
H2571 H 0.7916 0.35812 0.28699 0.0
H2572 H 0.71938 0.39726 0.30102 0.0
H2573 H 0.74515 0.36433 0.2328 0.0
C2574 C 0.71137 0.36876 0.22071 0.0
C2575 C 0.68941 0.37613 0.22575 0.0
C2576 C 0.73528 0.38882 0.29786 0.0
C2577 C 0.72367 0.38017 0.258 0.0
C2578 C 0.75038 0.38601 0.31568 0.0
C2579 C 0.7708 0.37449 0.31233 0.0
C2580 C 0.74054 0.37997 0.27649 0.0
C2581 C 0.77594 0.36687 0.29045 0.0
C2582 C 0.72851 0.37075 0.23677 0.0
C2583 C 0.68559 0.38652 0.24672 0.0
N2584 N 0.7608 0.36954 0.27341 0.0
N2585 N 0.70247 0.38802 0.26213 0.0
H2586 H 0.60358 0.66924 0.25218 0.0
H2587 H 0.63493 0.79661 0.28337 0.0
H2588 H 0.63344 0.71614 0.205 0.0
H2589 H 0.60709 0.74857 0.33064 0.0
H2590 H 0.62952 0.76918 0.25301 0.0
H2591 H 0.59964 0.69984 0.27945 0.0
C2592 C 0.6091 0.68602 0.24744 0.0
C2593 C 0.6192 0.69001 0.22637 0.0
C2594 C 0.6244 0.76473 0.26999 0.0
C2595 C 0.61486 0.72517 0.25766 0.0
C2596 C 0.62748 0.7804 0.28736 0.0
C2597 C 0.62181 0.77477 0.3097 0.0
C2598 C 0.61562 0.74327 0.27499 0.0
C2599 C 0.612 0.75357 0.31375 0.0
C2600 C 0.60686 0.70351 0.26306 0.0
C2601 C 0.62579 0.71219 0.22113 0.0
N2602 N 0.60943 0.73854 0.29663 0.0
N2603 N 0.62375 0.72887 0.23677 0.0
H2604 H 0.33395 0.59875 0.25282 0.0
H2605 H 0.20658 0.63169 0.28347 0.0
H2606 H 0.28998 0.63868 0.21067 0.0
H2607 H 0.2542 0.60603 0.33239 0.0
H2608 H 0.23455 0.6258 0.25382 0.0
H2609 H 0.30246 0.59302 0.27932 0.0
C2610 C 0.31759 0.60594 0.24898 0.0
C2611 C 0.31457 0.61952 0.22982 0.0
C2612 C 0.2388 0.62126 0.27103 0.0
C2613 C 0.27873 0.61303 0.25972 0.0
C2614 C 0.22282 0.62461 0.28798 0.0
C2615 C 0.2282 0.61983 0.31055 0.0
C2616 C 0.26033 0.61307 0.27664 0.0
C2617 C 0.24943 0.61033 0.31527 0.0
C2618 C 0.2997 0.60277 0.26409 0.0
C2619 C 0.29308 0.62845 0.22552 0.0
N2620 N 0.26483 0.60751 0.2985 0.0
N2621 N 0.27605 0.62518 0.24041 0.0
H2622 H 0.37185 0.21209 0.29133 0.0
H2623 H 0.40299 0.33966 0.26106 0.0
H2624 H 0.39965 0.25805 0.34045 0.0
H2625 H 0.36972 0.29248 0.21674 0.0
H2626 H 0.40937 0.30876 0.28827 0.0
H2627 H 0.37897 0.23968 0.26177 0.0
C2628 C 0.37971 0.22801 0.2958 0.0
C2629 C 0.38486 0.23302 0.31832 0.0
C2630 C 0.40103 0.30516 0.27241 0.0
C2631 C 0.39262 0.26505 0.28462 0.0
C2632 C 0.39749 0.32272 0.25689 0.0
C2633 C 0.38552 0.31856 0.23688 0.0
C2634 C 0.39271 0.28344 0.26758 0.0
C2635 C 0.37867 0.29643 0.23219 0.0
C2636 C 0.38377 0.24379 0.27893 0.0
C2637 C 0.39534 0.25368 0.32322 0.0
N2638 N 0.38222 0.27979 0.24747 0.0
N2639 N 0.39851 0.26921 0.30652 0.0
H2640 H 0.71404 0.7919 0.63774 0.0
H2641 H 0.74949 0.66544 0.60684 0.0
H2642 H 0.66864 0.74273 0.60888 0.0
H2643 H 0.79463 0.71369 0.63761 0.0
H2644 H 0.72119 0.69508 0.60298 0.0
H2645 H 0.74504 0.76507 0.63343 0.0
C2646 C 0.71059 0.77553 0.63034 0.0
C2647 C 0.68858 0.76946 0.62398 0.0
C2648 C 0.73734 0.69925 0.61041 0.0
C2649 C 0.72407 0.73864 0.61903 0.0
C2650 C 0.75356 0.68232 0.61261 0.0
C2651 C 0.77439 0.68696 0.62289 0.0
C2652 C 0.74191 0.72103 0.61859 0.0
C2653 C 0.77874 0.70924 0.6298 0.0
C2654 C 0.72833 0.76022 0.62788 0.0
C2655 C 0.68524 0.7481 0.61424 0.0
N2656 N 0.76254 0.72538 0.62774 0.0
N2657 N 0.70274 0.7334 0.61226 0.0
H2658 H 0.70516 0.21341 0.37566 0.0
H2659 H 0.74072 0.34027 0.40293 0.0
H2660 H 0.65763 0.26293 0.39981 0.0
H2661 H 0.7841 0.28922 0.37441 0.0
H2662 H 0.71182 0.31114 0.40964 0.0
H2663 H 0.73587 0.23947 0.3834 0.0
C2664 C 0.70129 0.22979 0.38287 0.0
C2665 C 0.67894 0.23626 0.38682 0.0
C2666 C 0.72783 0.30631 0.4023 0.0
C2667 C 0.71395 0.26654 0.39519 0.0
C2668 C 0.74431 0.32287 0.39857 0.0
C2669 C 0.76458 0.31709 0.38777 0.0
C2670 C 0.73192 0.28396 0.39534 0.0
C2671 C 0.7685 0.29441 0.3824 0.0
C2672 C 0.71881 0.2447 0.38728 0.0
C2673 C 0.67474 0.25747 0.39647 0.0
N2674 N 0.75227 0.27876 0.38606 0.0
N2675 N 0.69212 0.27214 0.39993 0.0
H2676 H 0.79222 0.7136 0.36872 0.0
H2677 H 0.66549 0.74763 0.40119 0.0
H2678 H 0.74408 0.66622 0.39609 0.0
H2679 H 0.71024 0.78806 0.3604 0.0
H2680 H 0.69629 0.72031 0.40694 0.0
H2681 H 0.76458 0.74375 0.37341 0.0
C2682 C 0.77593 0.70955 0.37595 0.0
C2683 C 0.77035 0.68723 0.38163 0.0
C2684 C 0.69937 0.73532 0.39696 0.0
C2685 C 0.73853 0.72175 0.38696 0.0
C2686 C 0.68186 0.75091 0.39377 0.0
C2687 C 0.68528 0.76989 0.38001 0.0
C2688 C 0.72039 0.73901 0.38656 0.0
C2689 C 0.70679 0.77342 0.3708 0.0
C2690 C 0.76013 0.72679 0.37859 0.0
C2691 C 0.74904 0.68312 0.39121 0.0
N2692 N 0.72345 0.75808 0.37413 0.0
N2693 N 0.7338 0.70017 0.39333 0.0
H2694 H 0.28508 0.79325 0.36662 0.0
H2695 H 0.25421 0.66581 0.40024 0.0
H2696 H 0.33384 0.74584 0.39294 0.0
H2697 H 0.21175 0.70996 0.36085 0.0
H2698 H 0.28104 0.69716 0.40529 0.0
H2699 H 0.25554 0.76512 0.37219 0.0
C2700 C 0.28957 0.77702 0.37378 0.0
C2701 C 0.31209 0.77179 0.3789 0.0
C2702 C 0.26568 0.7 0.3958 0.0
C2703 C 0.27826 0.73942 0.38529 0.0
C2704 C 0.25037 0.68218 0.39303 0.0
C2705 C 0.23097 0.68527 0.37983 0.0
C2706 C 0.2613 0.72099 0.38552 0.0
C2707 C 0.22673 0.70678 0.37083 0.0
C2708 C 0.27268 0.76093 0.37693 0.0
C2709 C 0.31678 0.75053 0.38842 0.0
N2710 N 0.24181 0.72374 0.37372 0.0
N2711 N 0.30006 0.73503 0.39108 0.0
H2712 H 0.2505 0.33298 0.39367 0.0
H2713 H 0.28481 0.20569 0.36508 0.0
H2714 H 0.205 0.28463 0.36361 0.0
H2715 H 0.3311 0.25543 0.39145 0.0
H2716 H 0.25404 0.23276 0.36934 0.0
H2717 H 0.2786 0.30323 0.39793 0.0
C2718 C 0.24631 0.31606 0.38813 0.0
C2719 C 0.22544 0.31141 0.37792 0.0
C2720 C 0.27089 0.23769 0.37437 0.0
C2721 C 0.2577 0.2772 0.38271 0.0
C2722 C 0.28851 0.22223 0.37195 0.0
C2723 C 0.31069 0.22839 0.3776 0.0
C2724 C 0.27544 0.2595 0.38247 0.0
C2725 C 0.31434 0.24999 0.38666 0.0
C2726 C 0.26241 0.29906 0.39057 0.0
C2727 C 0.22093 0.28907 0.37135 0.0
N2728 N 0.29694 0.26482 0.38861 0.0
N2729 N 0.23702 0.27286 0.37364 0.0
H2730 H 0.2845 0.20389 0.63833 0.0
H2731 H 0.25582 0.33233 0.60811 0.0
H2732 H 0.33204 0.2505 0.60868 0.0
H2733 H 0.20819 0.28643 0.63871 0.0
H2734 H 0.2824 0.30114 0.6039 0.0
H2735 H 0.2549 0.23238 0.6343 0.0
C2736 C 0.28869 0.22001 0.63077 0.0
C2737 C 0.31091 0.2249 0.62417 0.0
C2738 C 0.26607 0.29783 0.61138 0.0
C2739 C 0.27709 0.25763 0.61957 0.0
C2740 C 0.25085 0.31566 0.61378 0.0
C2741 C 0.22983 0.31211 0.62409 0.0
C2742 C 0.26031 0.27626 0.6194 0.0
C2743 C 0.22429 0.29006 0.6309 0.0
C2744 C 0.27177 0.23629 0.62849 0.0
C2745 C 0.31525 0.24603 0.61428 0.0
N2746 N 0.23952 0.27303 0.62864 0.0
N2747 N 0.29856 0.26165 0.6125 0.0
H2748 H 0.76406 0.31672 0.58783 0.0
H2749 H 0.6711 0.25059 0.65883 0.0
H2750 H 0.74248 0.33357 0.65527 0.0
H2751 H 0.68281 0.23541 0.58859 0.0
H2752 H 0.69523 0.28342 0.65563 0.0
H2753 H 0.73259 0.28946 0.58517 0.0
C2754 C 0.75239 0.31502 0.6018 0.0
C2755 C 0.75587 0.32707 0.6219 0.0
C2756 C 0.69256 0.27313 0.64076 0.0
C2757 C 0.72033 0.29623 0.61911 0.0
C2758 C 0.67882 0.25429 0.64265 0.0
C2759 C 0.67527 0.24019 0.62403 0.0
C2760 C 0.70337 0.27782 0.62017 0.0
C2761 C 0.6853 0.24592 0.60334 0.0
C2762 C 0.73457 0.29946 0.60035 0.0
C2763 C 0.74051 0.32431 0.63961 0.0
N2764 N 0.69928 0.2642 0.60201 0.0
N2765 N 0.72359 0.30912 0.63786 0.0
H2766 H 0.3316 0.74578 0.6057 0.0
H2767 H 0.20305 0.71715 0.63467 0.0
H2768 H 0.28576 0.79309 0.63697 0.0
H2769 H 0.24997 0.66946 0.60566 0.0
H2770 H 0.23157 0.74674 0.63103 0.0
H2771 H 0.30045 0.71929 0.60104 0.0
C2772 C 0.31496 0.7507 0.61143 0.0
C2773 C 0.31141 0.7716 0.62205 0.0
C2774 C 0.23554 0.72984 0.62527 0.0
C2775 C 0.2756 0.74123 0.61682 0.0
C2776 C 0.21924 0.71293 0.6273 0.0
C2777 C 0.22421 0.69067 0.62078 0.0
C2778 C 0.25697 0.72447 0.61666 0.0
C2779 C 0.24544 0.68629 0.61119 0.0
C2780 C 0.29715 0.73553 0.60877 0.0
C2781 C 0.28939 0.77708 0.62893 0.0
N2782 N 0.26107 0.70296 0.60963 0.0
N2783 N 0.27238 0.7619 0.62639 0.0
H2784 H 0.09336 0.19387 0.35256 0.0
H2785 H 0.14895 0.30421 0.4068 0.0
H2786 H 0.15919 0.19478 0.38339 0.0
H2787 H 0.11111 0.3048 0.34468 0.0
H2788 H 0.14127 0.26354 0.41057 0.0
H2789 H 0.08882 0.23406 0.36218 0.0
C2790 C 0.10645 0.20233 0.36211 0.0
C2791 C 0.1267 0.19119 0.36717 0.0
C2792 C 0.13404 0.2728 0.39655 0.0
C2793 C 0.12158 0.23669 0.37829 0.0
C2794 C 0.13823 0.29595 0.3945 0.0
C2795 C 0.13059 0.30768 0.37542 0.0
C2796 C 0.12179 0.2616 0.37961 0.0
C2797 C 0.11723 0.29621 0.35963 0.0
C2798 C 0.10392 0.2252 0.36744 0.0
C2799 C 0.14338 0.20291 0.37917 0.0
N2800 N 0.11336 0.27372 0.36198 0.0
N2801 N 0.14052 0.22511 0.38423 0.0
H2802 H 0.70228 0.17113 0.40365 0.0
H2803 H 0.80157 0.09554 0.35458 0.0
H2804 H 0.69087 0.11393 0.36019 0.0
H2805 H 0.80957 0.15882 0.38955 0.0
H2806 H 0.76154 0.09504 0.36567 0.0
H2807 H 0.7414 0.1594 0.40842 0.0
C2808 C 0.70796 0.15569 0.39561 0.0
C2809 C 0.69352 0.14351 0.38144 0.0
C2810 C 0.77223 0.10868 0.37146 0.0
C2811 C 0.73852 0.13043 0.386 0.0
C2812 C 0.79506 0.10885 0.36533 0.0
C2813 C 0.80869 0.12729 0.37117 0.0
C2814 C 0.76323 0.12703 0.38358 0.0
C2815 C 0.7995 0.14436 0.38469 0.0
C2816 C 0.73032 0.14905 0.3982 0.0
C2817 C 0.70159 0.12369 0.37132 0.0
N2818 N 0.77732 0.14392 0.39023 0.0
N2819 N 0.72379 0.118 0.37337 0.0
H2820 H 0.87981 0.69176 0.33634 0.0
H2821 H 0.8466 0.80577 0.38639 0.0
H2822 H 0.85295 0.69452 0.4039 0.0
H2823 H 0.90522 0.80094 0.34371 0.0
H2824 H 0.84994 0.76542 0.39499 0.0
H2825 H 0.89112 0.73139 0.33958 0.0
C2826 C 0.87688 0.70062 0.35209 0.0
C2827 C 0.86552 0.68999 0.36991 0.0
C2828 C 0.86253 0.7733 0.38434 0.0
C2829 C 0.87762 0.73541 0.37345 0.0
C2830 C 0.86065 0.7963 0.3795 0.0
C2831 C 0.8758 0.80657 0.36453 0.0
C2832 C 0.87912 0.76039 0.3734 0.0
C2833 C 0.89343 0.79359 0.35559 0.0
C2834 C 0.88335 0.72319 0.35395 0.0
C2835 C 0.86187 0.70216 0.38989 0.0
N2836 N 0.89429 0.77098 0.35969 0.0
N2837 N 0.86737 0.72446 0.39093 0.0
H2838 H 0.19411 0.8422 0.38671 0.0
H2839 H 0.30612 0.88574 0.34121 0.0
H2840 H 0.196 0.90566 0.35118 0.0
H2841 H 0.30454 0.85116 0.4052 0.0
H2842 H 0.26619 0.89533 0.34573 0.0
H2843 H 0.23419 0.8464 0.39577 0.0
C2844 C 0.20287 0.85738 0.38146 0.0
C2845 C 0.19186 0.87367 0.3683 0.0
C2846 C 0.27471 0.88627 0.35914 0.0
C2847 C 0.23776 0.87815 0.37775 0.0
C2848 C 0.29747 0.88083 0.35656 0.0
C2849 C 0.30851 0.86778 0.37293 0.0
C2850 C 0.26276 0.87783 0.37779 0.0
C2851 C 0.29658 0.86147 0.39236 0.0
C2852 C 0.22571 0.85977 0.3866 0.0
C2853 C 0.20393 0.89287 0.36157 0.0
N2854 N 0.27413 0.86603 0.39399 0.0
N2855 N 0.22645 0.89431 0.36584 0.0
H2856 H 0.10665 0.69081 0.65415 0.0
H2857 H 0.13952 0.80877 0.60455 0.0
H2858 H 0.14463 0.69802 0.59258 0.0
H2859 H 0.09404 0.79871 0.66037 0.0
H2860 H 0.13434 0.76902 0.59374 0.0
H2861 H 0.09425 0.72993 0.65079 0.0
C2862 C 0.11181 0.70056 0.63955 0.0
C2863 C 0.12663 0.69139 0.62364 0.0
C2864 C 0.12488 0.7757 0.60788 0.0
C2865 C 0.11351 0.73649 0.62015 0.0
C2866 C 0.12769 0.79841 0.61389 0.0
C2867 C 0.11726 0.80678 0.6334 0.0
C2868 C 0.11173 0.76148 0.62167 0.0
C2869 C 0.10244 0.79272 0.64525 0.0
C2870 C 0.10484 0.72294 0.63764 0.0
C2871 C 0.13306 0.70462 0.6051 0.0
N2872 N 0.1004 0.77068 0.63944 0.0
N2873 N 0.12692 0.72677 0.60414 0.0
H2874 H 0.30585 0.11032 0.65807 0.0
H2875 H 0.19435 0.16201 0.62226 0.0
H2876 H 0.30316 0.14928 0.59668 0.0
H2877 H 0.1944 0.09457 0.6496 0.0
H2878 H 0.23394 0.15726 0.61141 0.0
H2879 H 0.26537 0.1027 0.65461 0.0
C2880 C 0.2968 0.1166 0.64345 0.0
C2881 C 0.3077 0.13028 0.62754 0.0
C2882 C 0.22513 0.14325 0.61919 0.0
C2883 C 0.26146 0.12254 0.624 0.0
C2884 C 0.20261 0.14598 0.6254 0.0
C2885 C 0.19125 0.12863 0.63676 0.0
C2886 C 0.23655 0.12336 0.62518 0.0
C2887 C 0.20264 0.10825 0.64069 0.0
C2888 C 0.27375 0.11229 0.64149 0.0
C2889 C 0.29529 0.13842 0.60911 0.0
N2890 N 0.22491 0.10636 0.63545 0.0
N2891 N 0.27263 0.13495 0.60816 0.0
H2892 H 0.8896 0.31358 0.62753 0.0
H2893 H 0.90424 0.2031 0.65623 0.0
H2894 H 0.82365 0.28843 0.60986 0.0
H2895 H 0.85546 0.18636 0.60504 0.0
H2896 H 0.904 0.24218 0.64339 0.0
H2897 H 0.9049 0.27536 0.62261 0.0
C2898 C 0.87844 0.3001 0.62223 0.0
C2899 C 0.85523 0.30394 0.61975 0.0
C2900 C 0.89413 0.2299 0.63415 0.0
C2901 C 0.87243 0.26037 0.61445 0.0
C2902 C 0.89428 0.20756 0.64154 0.0
C2903 C 0.8799 0.19166 0.63159 0.0
C2904 C 0.87897 0.23642 0.61711 0.0
C2905 C 0.86692 0.1982 0.61296 0.0
C2906 C 0.88713 0.27829 0.61961 0.0
C2907 C 0.84155 0.286 0.61256 0.0
N2908 N 0.86623 0.2203 0.60674 0.0
N2909 N 0.8503 0.26495 0.61044 0.0
H2910 H 0.80695 0.8378 0.62145 0.0
H2911 H 0.69286 0.87963 0.66364 0.0
H2912 H 0.8035 0.90192 0.65565 0.0
H2913 H 0.69666 0.84789 0.59826 0.0
H2914 H 0.73312 0.88873 0.66117 0.0
H2915 H 0.76681 0.84107 0.61203 0.0
C2916 C 0.79781 0.85287 0.62638 0.0
C2917 C 0.80842 0.86971 0.63916 0.0
C2918 C 0.72501 0.88035 0.64707 0.0
C2919 C 0.76252 0.87313 0.62929 0.0
C2920 C 0.7021 0.87517 0.64849 0.0
C2921 C 0.69155 0.86314 0.63106 0.0
C2922 C 0.73757 0.87266 0.62851 0.0
C2923 C 0.70422 0.85742 0.61191 0.0
C2924 C 0.77497 0.85474 0.62102 0.0
C2925 C 0.79588 0.88875 0.64552 0.0
N2926 N 0.72677 0.86171 0.61138 0.0
N2927 N 0.77338 0.8897 0.64102 0.0
H2928 H 0.391 0.13942 0.18559 0.0
H2929 H 0.36047 0.10736 0.31281 0.0
H2930 H 0.33278 0.10099 0.20606 0.0
H2931 H 0.40078 0.16455 0.29297 0.0
H2932 H 0.36147 0.09371 0.27361 0.0
H2933 H 0.40543 0.13723 0.22448 0.0
C2934 C 0.38172 0.1298 0.19807 0.0
C2935 C 0.36061 0.12057 0.19283 0.0
C2936 C 0.37071 0.10885 0.27803 0.0
C2937 C 0.37679 0.1181 0.23704 0.0
C2938 C 0.37029 0.11651 0.30038 0.0
C2939 C 0.38038 0.13716 0.30591 0.0
C2940 C 0.38142 0.12192 0.26133 0.0
C2941 C 0.39264 0.14861 0.2892 0.0
C2942 C 0.38984 0.12868 0.22025 0.0
C2943 C 0.34905 0.1085 0.20961 0.0
N2944 N 0.39256 0.14102 0.26757 0.0
N2945 N 0.35714 0.10785 0.23104 0.0
H2946 H 0.88155 0.33595 0.30816 0.0
H2947 H 0.83723 0.37635 0.19498 0.0
H2948 H 0.84808 0.40049 0.30514 0.0
H2949 H 0.9033 0.3461 0.19733 0.0
H2950 H 0.84058 0.38597 0.23512 0.0
H2951 H 0.89043 0.33908 0.26783 0.0
C2952 C 0.87668 0.35107 0.29908 0.0
C2953 C 0.86421 0.36806 0.30984 0.0
C2954 C 0.85462 0.37783 0.2267 0.0
C2955 C 0.87347 0.37133 0.26379 0.0
C2956 C 0.8527 0.37234 0.20387 0.0
C2957 C 0.87008 0.36058 0.19298 0.0
C2958 C 0.87367 0.37068 0.23883 0.0
C2959 C 0.88967 0.35541 0.20519 0.0
C2960 C 0.88174 0.35286 0.27614 0.0
C2961 C 0.85795 0.38719 0.29738 0.0
N2962 N 0.89072 0.35996 0.2277 0.0
N2963 N 0.8621 0.38805 0.27479 0.0
H2964 H 0.59339 0.85284 0.30502 0.0
H2965 H 0.64936 0.90788 0.19522 0.0
H2966 H 0.65725 0.88753 0.30527 0.0
H2967 H 0.61365 0.84453 0.19499 0.0
H2968 H 0.64031 0.91229 0.23556 0.0
H2969 H 0.58917 0.86194 0.26467 0.0
C2970 C 0.60604 0.86316 0.29678 0.0
C2971 C 0.62571 0.86945 0.30829 0.0
C2972 C 0.63384 0.89783 0.22642 0.0
C2973 C 0.62099 0.8799 0.26258 0.0
C2974 C 0.63883 0.8954 0.20346 0.0
C2975 C 0.63221 0.87582 0.19196 0.0
C2976 C 0.62185 0.88074 0.23765 0.0
C2977 C 0.61903 0.85985 0.2034 0.0
C2978 C 0.60371 0.86818 0.27381 0.0
C2979 C 0.64187 0.88238 0.29685 0.0
N2980 N 0.61439 0.86257 0.2257 0.0
N2981 N 0.63925 0.88706 0.27454 0.0
H2982 H 0.15242 0.59398 0.30183 0.0
H2983 H 0.09265 0.64933 0.1941 0.0
H2984 H 0.11336 0.6553 0.30456 0.0
H2985 H 0.15842 0.61836 0.19235 0.0
H2986 H 0.08948 0.63912 0.2343 0.0
H2987 H 0.14353 0.59069 0.26135 0.0
C2988 C 0.1412 0.60619 0.29409 0.0
C2989 C 0.13352 0.6249 0.30637 0.0
C2990 C 0.10426 0.63396 0.22486 0.0
C2991 C 0.12338 0.62127 0.26049 0.0
C2992 C 0.106 0.63961 0.20198 0.0
C2993 C 0.12583 0.63466 0.19008 0.0
C2994 C 0.12229 0.62294 0.23561 0.0
C2995 C 0.14289 0.62247 0.20107 0.0
C2996 C 0.13632 0.60442 0.27105 0.0
C2997 C 0.11951 0.64061 0.29555 0.0
N2998 N 0.1408 0.61713 0.22329 0.0
N2999 N 0.11498 0.63854 0.27315 0.0
H3000 H 0.39032 0.84225 0.8106 0.0
H3001 H 0.36234 0.8906 0.69028 0.0
H3002 H 0.35333 0.90412 0.80105 0.0
H3003 H 0.40598 0.8338 0.70293 0.0
H3004 H 0.36583 0.90157 0.73019 0.0
H3005 H 0.40349 0.8444 0.77164 0.0
C3006 C 0.38553 0.85666 0.80037 0.0
C3007 C 0.37081 0.87304 0.80887 0.0
C3008 C 0.37524 0.88714 0.72407 0.0
C3009 C 0.38484 0.87516 0.76391 0.0
C3010 C 0.3734 0.88103 0.70126 0.0
C3011 C 0.38379 0.86122 0.69351 0.0
C3012 C 0.38743 0.87319 0.739 0.0
C3013 C 0.39762 0.84913 0.7084 0.0
C3014 C 0.39293 0.85787 0.77807 0.0
C3015 C 0.36485 0.89127 0.795 0.0
N3016 N 0.39874 0.85509 0.73047 0.0
N3017 N 0.37144 0.89159 0.77296 0.0
H3018 H 0.09745 0.33584 0.79484 0.0
H3019 H 0.16629 0.40357 0.70777 0.0
H3020 H 0.13903 0.39225 0.81417 0.0
H3021 H 0.10904 0.3632 0.68844 0.0
H3022 H 0.1518 0.40532 0.74632 0.0
H3023 H 0.09586 0.35049 0.75633 0.0
C3024 C 0.10562 0.35177 0.79106 0.0
C3025 C 0.1185 0.36283 0.80754 0.0
C3026 C 0.14197 0.39663 0.73359 0.0
C3027 C 0.11753 0.37926 0.76336 0.0
C3028 C 0.15023 0.39569 0.71157 0.0
C3029 C 0.13887 0.3831 0.69507 0.0
C3030 C 0.1226 0.38426 0.73929 0.0
C3031 C 0.11824 0.3731 0.70075 0.0
C3032 C 0.10478 0.36011 0.76906 0.0
C3033 C 0.12889 0.38329 0.80188 0.0
N3034 N 0.11104 0.37337 0.72258 0.0
N3035 N 0.12869 0.39056 0.78006 0.0
H3036 H 0.64967 0.09322 0.80502 0.0
H3037 H 0.59505 0.14777 0.69444 0.0
H3038 H 0.61715 0.15834 0.80456 0.0
H3039 H 0.65985 0.11476 0.69459 0.0
H3040 H 0.59125 0.13942 0.73498 0.0
H3041 H 0.64125 0.08926 0.7645 0.0
C3042 C 0.64 0.10625 0.79656 0.0
C3043 C 0.63409 0.12615 0.80795 0.0
C3044 C 0.60592 0.13338 0.72589 0.0
C3045 C 0.62429 0.12164 0.76212 0.0
C3046 C 0.60801 0.13796 0.70283 0.0
C3047 C 0.62778 0.13189 0.69135 0.0
C3048 C 0.62349 0.12225 0.73723 0.0
C3049 C 0.64437 0.11967 0.70298 0.0
C3050 C 0.63536 0.10405 0.77352 0.0
C3051 C 0.62199 0.14279 0.79624 0.0
N3052 N 0.64192 0.11534 0.72537 0.0
N3053 N 0.61757 0.14022 0.77388 0.0
H3054 H 0.89993 0.6326 0.68512 0.0
H3055 H 0.90614 0.66251 0.79494 0.0
H3056 H 0.83808 0.60211 0.7082 0.0
H3057 H 0.86504 0.60471 0.81087 0.0
H3058 H 0.91031 0.64875 0.7565 0.0
H3059 H 0.91529 0.62918 0.72352 0.0
C3060 C 0.88986 0.62464 0.69815 0.0
C3061 C 0.86755 0.61817 0.6938 0.0
C3062 C 0.90124 0.63839 0.76848 0.0
C3063 C 0.88453 0.61485 0.73758 0.0
C3064 C 0.89877 0.64636 0.79048 0.0
C3065 C 0.88508 0.63478 0.80589 0.0
C3066 C 0.8894 0.61898 0.76175 0.0
C3067 C 0.87573 0.61408 0.79939 0.0
C3068 C 0.89848 0.62295 0.7201 0.0
C3069 C 0.8552 0.6078 0.71111 0.0
N3070 N 0.87748 0.60717 0.77754 0.0
N3071 N 0.86371 0.60679 0.73233 0.0
H3072 H 0.19839 0.34881 0.09238 0.0
H3073 H 0.30743 0.33997 0.12267 0.0
H3074 H 0.19473 0.3905 0.15184 0.0
H3075 H 0.30377 0.40723 0.15016 0.0
H3076 H 0.26876 0.34358 0.10937 0.0
H3077 H 0.23852 0.35779 0.08889 0.0
C3078 C 0.20594 0.36057 0.10419 0.0
C3079 C 0.19343 0.36901 0.12237 0.0
C3080 C 0.27653 0.35796 0.11751 0.0
C3081 C 0.23944 0.37808 0.11948 0.0
C3082 C 0.29859 0.35579 0.12526 0.0
C3083 C 0.30868 0.37337 0.13738 0.0
C3084 C 0.26424 0.37768 0.12243 0.0
C3085 C 0.29652 0.39342 0.14063 0.0
C3086 C 0.22889 0.36536 0.10246 0.0
C3087 C 0.20392 0.38385 0.13749 0.0
N3088 N 0.27464 0.39484 0.13372 0.0
N3089 N 0.22653 0.38759 0.13599 0.0
H3090 H 0.18951 0.61371 0.85839 0.0
H3091 H 0.3124 0.66125 0.87895 0.0
H3092 H 0.20523 0.67501 0.89427 0.0
H3093 H 0.30002 0.59796 0.84534 0.0
H3094 H 0.27357 0.66146 0.89244 0.0
H3095 H 0.22947 0.60261 0.86078 0.0
C3096 C 0.20125 0.62441 0.86744 0.0
C3097 C 0.19429 0.64538 0.87595 0.0
C3098 C 0.27932 0.64722 0.88251 0.0
C3099 C 0.23972 0.6331 0.87849 0.0
C3100 C 0.30153 0.64709 0.87493 0.0
C3101 C 0.30922 0.6296 0.86106 0.0
C3102 C 0.26444 0.6301 0.87552 0.0
C3103 C 0.29459 0.61168 0.85614 0.0
C3104 C 0.22404 0.61818 0.86867 0.0
C3105 C 0.21007 0.65881 0.88729 0.0
N3106 N 0.27265 0.61262 0.86295 0.0
N3107 N 0.23205 0.65259 0.88798 0.0
H3108 H 0.39031 0.19348 0.84117 0.0
H3109 H 0.34175 0.30433 0.8809 0.0
H3110 H 0.35412 0.19507 0.90425 0.0
H3111 H 0.40813 0.30417 0.85129 0.0
H3112 H 0.34675 0.26466 0.89149 0.0
H3113 H 0.39902 0.23367 0.84557 0.0
C3114 C 0.38486 0.20221 0.85631 0.0
C3115 C 0.37156 0.19113 0.87241 0.0
C3116 C 0.36051 0.27347 0.88332 0.0
C3117 C 0.38062 0.23705 0.8771 0.0
C3118 C 0.35764 0.29604 0.87725 0.0
C3119 C 0.37458 0.30734 0.86527 0.0
C3120 C 0.38009 0.26199 0.87653 0.0
C3121 C 0.39478 0.29595 0.86068 0.0
C3122 C 0.38982 0.22508 0.85883 0.0
C3123 C 0.36459 0.2031 0.8916 0.0
N3124 N 0.39676 0.27362 0.86575 0.0
N3125 N 0.36864 0.22566 0.89312 0.0
H3126 H 0.79571 0.32751 0.90295 0.0
H3127 H 0.68668 0.36139 0.89989 0.0
H3128 H 0.81307 0.38729 0.86532 0.0
H3129 H 0.70951 0.39478 0.8394 0.0
H3130 H 0.72547 0.36225 0.91445 0.0
H3131 H 0.75745 0.34164 0.90736 0.0
C3132 C 0.79157 0.34408 0.89633 0.0
C3133 C 0.80741 0.35623 0.88365 0.0
C3134 C 0.72193 0.36971 0.89814 0.0
C3135 C 0.76347 0.37256 0.88836 0.0
C3136 C 0.69974 0.36953 0.89003 0.0
C3137 C 0.69513 0.37762 0.86828 0.0
C3138 C 0.7394 0.37789 0.88423 0.0
C3139 C 0.71257 0.38801 0.85612 0.0
C3140 C 0.7697 0.35227 0.89898 0.0
C3141 C 0.80129 0.37748 0.87526 0.0
N3142 N 0.73401 0.38752 0.86409 0.0
N3143 N 0.77956 0.38469 0.87719 0.0
H3144 H 0.64427 0.80024 0.90355 0.0
H3145 H 0.59494 0.70066 0.82857 0.0
H3146 H 0.61033 0.80783 0.83967 0.0
H3147 H 0.63927 0.68957 0.88515 0.0
H3148 H 0.58996 0.73978 0.84041 0.0
H3149 H 0.63276 0.76029 0.90444 0.0
C3150 C 0.63366 0.79367 0.89018 0.0
C3151 C 0.62825 0.80712 0.87146 0.0
C3152 C 0.60039 0.72875 0.85061 0.0
C3153 C 0.61532 0.76179 0.87219 0.0
C3154 C 0.6031 0.70639 0.84392 0.0
C3155 C 0.61761 0.69207 0.85587 0.0
C3156 C 0.61281 0.73705 0.86903 0.0
C3157 C 0.62789 0.7002 0.87557 0.0
C3158 C 0.62728 0.77089 0.89058 0.0
C3159 C 0.61487 0.79788 0.85434 0.0
N3160 N 0.62572 0.7224 0.88129 0.0
N3161 N 0.60906 0.77575 0.855 0.0
H3162 H 0.68865 0.63922 0.10738 0.0
H3163 H 0.80995 0.60993 0.15292 0.0
H3164 H 0.7028 0.59769 0.16542 0.0
H3165 H 0.79854 0.6506 0.09372 0.0
H3166 H 0.77111 0.59651 0.1509 0.0
H3167 H 0.72818 0.63518 0.09543 0.0
C3168 C 0.6999 0.62854 0.11708 0.0
C3169 C 0.69274 0.61894 0.13749 0.0
C3170 C 0.77711 0.60795 0.13797 0.0
C3171 C 0.7377 0.61458 0.12432 0.0
C3172 C 0.79932 0.61548 0.13909 0.0
C3173 C 0.80722 0.63133 0.12349 0.0
C3174 C 0.76248 0.61704 0.12161 0.0
C3175 C 0.79291 0.63825 0.10598 0.0
C3176 C 0.72246 0.62637 0.11039 0.0
C3177 C 0.70787 0.60551 0.14968 0.0
N3178 N 0.77097 0.63147 0.1058 0.0
N3179 N 0.72971 0.604 0.1431 0.0
H3180 H 0.33729 0.79956 0.09284 0.0
H3181 H 0.40619 0.69798 0.14703 0.0
H3182 H 0.39061 0.80888 0.14133 0.0
H3183 H 0.34276 0.69256 0.11199 0.0
H3184 H 0.40907 0.7376 0.1347 0.0
H3185 H 0.34835 0.76006 0.08862 0.0
C3186 C 0.35188 0.79338 0.10199 0.0
C3187 C 0.36308 0.8073 0.11744 0.0
C3188 C 0.39489 0.72751 0.12915 0.0
C3189 C 0.3752 0.76196 0.11355 0.0
C3190 C 0.39334 0.70492 0.13601 0.0
C3191 C 0.37418 0.69221 0.13049 0.0
C3192 C 0.3772 0.73716 0.11659 0.0
C3193 C 0.35775 0.70194 0.1166 0.0
C3194 C 0.35808 0.77081 0.09975 0.0
C3195 C 0.3817 0.79858 0.12913 0.0
N3196 N 0.35953 0.72388 0.1103 0.0
N3197 N 0.3869 0.77623 0.12735 0.0
H3198 H 0.66876 0.20697 0.0957 0.0
H3199 H 0.63432 0.31597 0.10204 0.0
H3200 H 0.60948 0.18839 0.13343 0.0
H3201 H 0.60207 0.29127 0.16242 0.0
H3202 H 0.63361 0.27751 0.08652 0.0
H3203 H 0.65449 0.24536 0.09251 0.0
C3204 C 0.65227 0.21087 0.10259 0.0
C3205 C 0.64032 0.19464 0.11498 0.0
C3206 C 0.62637 0.28057 0.10302 0.0
C3207 C 0.62385 0.23871 0.11167 0.0
C3208 C 0.62647 0.30257 0.1117 0.0
C3209 C 0.61867 0.30657 0.13368 0.0
C3210 C 0.61851 0.26266 0.11657 0.0
C3211 C 0.60864 0.2887 0.14554 0.0
C3212 C 0.64401 0.23282 0.10065 0.0
C3213 C 0.61915 0.20048 0.12371 0.0
N3214 N 0.60917 0.26746 0.13699 0.0
N3215 N 0.61188 0.22226 0.12248 0.0
H3216 H 0.86274 0.80872 0.6122 0.0
H3217 H 0.8932 0.68722 0.65671 0.0
H3218 H 0.90464 0.79453 0.66994 0.0
H3219 H 0.85329 0.69857 0.59702 0.0
H3220 H 0.90606 0.72631 0.65522 0.0
H3221 H 0.86717 0.76928 0.59992 0.0
C3222 C 0.87356 0.79749 0.62178 0.0
C3223 C 0.88315 0.80461 0.6422 0.0
C3224 C 0.8949 0.72025 0.64207 0.0
C3225 C 0.88797 0.75974 0.62864 0.0
C3226 C 0.8877 0.6979 0.6429 0.0
C3227 C 0.87222 0.6899 0.627 0.0
C3228 C 0.88586 0.73492 0.62571 0.0
C3229 C 0.86536 0.70428 0.6095 0.0
C3230 C 0.87596 0.77498 0.61489 0.0
C3231 C 0.8968 0.7895 0.6542 0.0
N3232 N 0.8718 0.72635 0.60961 0.0
N3233 N 0.89853 0.76771 0.64744 0.0
H3234 H 0.30511 0.87963 0.66283 0.0
H3235 H 0.19473 0.84309 0.60994 0.0
H3236 H 0.30617 0.85437 0.59457 0.0
H3237 H 0.19603 0.90431 0.64923 0.0
H3238 H 0.23523 0.84726 0.60271 0.0
H3239 H 0.26533 0.88979 0.65808 0.0
C3240 C 0.29705 0.87678 0.64665 0.0
C3241 C 0.30879 0.8662 0.62905 0.0
C3242 C 0.22652 0.86018 0.61228 0.0
C3243 C 0.26332 0.87704 0.62375 0.0
C3244 C 0.20347 0.85782 0.61636 0.0
C3245 C 0.19218 0.8735 0.63001 0.0
C3246 C 0.23842 0.87781 0.62273 0.0
C3247 C 0.20421 0.89207 0.63837 0.0
C3248 C 0.27443 0.88262 0.64392 0.0
C3249 C 0.29764 0.86267 0.60846 0.0
N3250 N 0.22688 0.8934 0.63513 0.0
N3251 N 0.27528 0.86751 0.60655 0.0
H3252 H 0.13982 0.1917 0.61293 0.0
H3253 H 0.11553 0.3124 0.66226 0.0
H3254 H 0.0969 0.20499 0.67011 0.0
H3255 H 0.14931 0.30277 0.59859 0.0
H3256 H 0.10214 0.27353 0.66074 0.0
H3257 H 0.13726 0.2318 0.60232 0.0
C3258 C 0.12911 0.20289 0.62266 0.0
C3259 C 0.11865 0.19524 0.64246 0.0
C3260 C 0.11206 0.27991 0.64678 0.0
C3261 C 0.11608 0.2409 0.63091 0.0
C3262 C 0.11962 0.30214 0.64766 0.0
C3263 C 0.13349 0.31062 0.63055 0.0
C3264 C 0.11911 0.26576 0.62903 0.0
C3265 C 0.13849 0.29674 0.61203 0.0
C3266 C 0.12781 0.2258 0.61676 0.0
C3267 C 0.1053 0.21037 0.65478 0.0
N3268 N 0.13174 0.27474 0.61199 0.0
N3269 N 0.10469 0.23251 0.64902 0.0
H3270 H 0.80272 0.0934 0.64348 0.0
H3271 H 0.70237 0.16754 0.59474 0.0
H3272 H 0.80936 0.15803 0.61075 0.0
H3273 H 0.69216 0.10999 0.63803 0.0
H3274 H 0.74161 0.1563 0.58949 0.0
H3275 H 0.76302 0.09189 0.63135 0.0
C3276 C 0.79601 0.10682 0.63301 0.0
C3277 C 0.80909 0.12593 0.62815 0.0
C3278 C 0.73075 0.14575 0.59974 0.0
C3279 C 0.76405 0.12449 0.61451 0.0
C3280 C 0.70833 0.15211 0.60259 0.0
C3281 C 0.69423 0.13971 0.61692 0.0
C3282 C 0.73931 0.12724 0.61186 0.0
C3283 C 0.70263 0.11991 0.6268 0.0
C3284 C 0.77337 0.10606 0.62626 0.0
C3285 C 0.79968 0.14308 0.6149 0.0
N3286 N 0.72486 0.11453 0.62454 0.0
N3287 N 0.77769 0.14207 0.60875 0.0
H3288 H 0.85985 0.18498 0.3982 0.0
H3289 H 0.89218 0.31178 0.36755 0.0
H3290 H 0.90318 0.20485 0.34328 0.0
H3291 H 0.83296 0.29147 0.40452 0.0
H3292 H 0.90682 0.27307 0.37076 0.0
H3293 H 0.86096 0.22393 0.41252 0.0
C3294 C 0.87037 0.19733 0.38975 0.0
C3295 C 0.88128 0.19193 0.36948 0.0
C3296 C 0.89095 0.2773 0.37878 0.0
C3297 C 0.88237 0.23625 0.38541 0.0
C3298 C 0.8827 0.29939 0.37708 0.0
C3299 C 0.86125 0.30459 0.38552 0.0
C3300 C 0.87765 0.26054 0.38911 0.0
C3301 C 0.84948 0.28793 0.39755 0.0
C3302 C 0.87085 0.21955 0.39777 0.0
C3303 C 0.89442 0.20853 0.35891 0.0
N3304 N 0.85768 0.26656 0.39871 0.0
N3305 N 0.89433 0.23005 0.36679 0.0
H3306 H 0.68818 0.8952 0.36007 0.0
H3307 H 0.81335 0.85923 0.39319 0.0
H3308 H 0.70554 0.83788 0.4014 0.0
H3309 H 0.7951 0.89899 0.33503 0.0
H3310 H 0.77449 0.86294 0.40728 0.0
H3311 H 0.72751 0.9081 0.36232 0.0
C3312 C 0.70007 0.8859 0.3704 0.0
C3313 C 0.69385 0.86541 0.38041 0.0
C3314 C 0.77922 0.87145 0.3918 0.0
C3315 C 0.73859 0.87972 0.38281 0.0
C3316 C 0.80138 0.86945 0.38387 0.0
C3317 C 0.80718 0.87862 0.36287 0.0
C3318 C 0.76302 0.8828 0.37862 0.0
C3319 C 0.79108 0.89151 0.35123 0.0
C3320 C 0.72251 0.89312 0.37153 0.0
C3321 C 0.70987 0.85371 0.39333 0.0
N3322 N 0.76964 0.89297 0.35911 0.0
N3323 N 0.73161 0.86084 0.39389 0.0
H3324 H 0.0961 0.79614 0.3387 0.0
H3325 H 0.16416 0.70398 0.40037 0.0
H3326 H 0.14066 0.81114 0.39414 0.0
H3327 H 0.10651 0.68843 0.35895 0.0
H3328 H 0.15035 0.74254 0.4048 0.0
H3329 H 0.09333 0.75715 0.35177 0.0
C3330 C 0.10464 0.79132 0.35416 0.0
C3331 C 0.11871 0.80668 0.36535 0.0
C3332 C 0.14029 0.73063 0.39527 0.0
C3333 C 0.11646 0.76194 0.37987 0.0
C3334 C 0.14817 0.7086 0.39279 0.0
C3335 C 0.13649 0.69322 0.37915 0.0
C3336 C 0.12099 0.7375 0.38336 0.0
C3337 C 0.11594 0.69989 0.36961 0.0
C3338 C 0.10315 0.76904 0.36158 0.0
C3339 C 0.1296 0.79972 0.38513 0.0
N3340 N 0.10911 0.72178 0.3714 0.0
N3341 N 0.12873 0.77763 0.39145 0.0
H3342 H 0.19124 0.14025 0.39089 0.0
H3343 H 0.30957 0.11468 0.33928 0.0
H3344 H 0.20244 0.09452 0.33544 0.0
H3345 H 0.3023 0.1469 0.40409 0.0
H3346 H 0.27083 0.10119 0.34191 0.0
H3347 H 0.23132 0.13702 0.40105 0.0
C3348 C 0.20195 0.12875 0.38152 0.0
C3349 C 0.19375 0.1177 0.36228 0.0
C3350 C 0.27772 0.11077 0.35588 0.0
C3351 C 0.23941 0.11444 0.37322 0.0
C3352 C 0.29986 0.11842 0.35433 0.0
C3353 C 0.30893 0.1319 0.37145 0.0
C3354 C 0.26427 0.11737 0.37431 0.0
C3355 C 0.29577 0.13643 0.3906 0.0
C3356 C 0.22485 0.12706 0.38716 0.0
C3357 C 0.20827 0.10336 0.35036 0.0
N3358 N 0.27383 0.12964 0.39129 0.0
N3359 N 0.23047 0.10245 0.35577 0.0
H3360 H 0.65872 0.90187 0.79445 0.0
H3361 H 0.59483 0.83212 0.70542 0.0
H3362 H 0.60333 0.85827 0.81203 0.0
H3363 H 0.63479 0.89018 0.68757 0.0
H3364 H 0.59149 0.84652 0.74389 0.0
H3365 H 0.64469 0.90381 0.75575 0.0
C3366 C 0.6431 0.89334 0.79025 0.0
C3367 C 0.63219 0.87979 0.80627 0.0
C3368 C 0.60044 0.85653 0.73148 0.0
C3369 C 0.61652 0.88111 0.76186 0.0
C3370 C 0.6023 0.84831 0.70951 0.0
C3371 C 0.61528 0.85991 0.69349 0.0
C3372 C 0.61228 0.87612 0.73764 0.0
C3373 C 0.62466 0.88076 0.69951 0.0
C3374 C 0.63512 0.89437 0.76814 0.0
C3375 C 0.61215 0.86893 0.80009 0.0
N3376 N 0.62349 0.88793 0.72133 0.0
N3377 N 0.60526 0.86932 0.77816 0.0
H3378 H 0.10471 0.64367 0.68969 0.0
H3379 H 0.15516 0.61581 0.8087 0.0
H3380 H 0.15938 0.59713 0.70103 0.0
H3381 H 0.09272 0.65213 0.8008 0.0
H3382 H 0.15205 0.60246 0.76985 0.0
H3383 H 0.09458 0.64082 0.72987 0.0
C3384 C 0.1139 0.63208 0.70046 0.0
C3385 C 0.13288 0.62062 0.69223 0.0
C3386 C 0.13866 0.6129 0.77664 0.0
C3387 C 0.12201 0.6178 0.73804 0.0
C3388 C 0.14045 0.62041 0.79886 0.0
C3389 C 0.12414 0.63495 0.8078 0.0
C3390 C 0.12087 0.62069 0.76297 0.0
C3391 C 0.10551 0.64073 0.79441 0.0
C3392 C 0.1083 0.63061 0.72342 0.0
C3393 C 0.14462 0.60622 0.70685 0.0
N3394 N 0.10462 0.63401 0.77242 0.0
N3395 N 0.13925 0.60551 0.7291 0.0
H3396 H 0.3682 0.10015 0.68582 0.0
H3397 H 0.3415 0.09417 0.79633 0.0
H3398 H 0.39875 0.16251 0.70754 0.0
H3399 H 0.39842 0.13703 0.81039 0.0
H3400 H 0.35454 0.08967 0.75769 0.0
H3401 H 0.37292 0.08507 0.72419 0.0
C3402 C 0.37644 0.1104 0.69853 0.0
C3403 C 0.38254 0.13276 0.69384 0.0
C3404 C 0.36491 0.09921 0.7693 0.0
C3405 C 0.3873 0.11613 0.73764 0.0
C3406 C 0.35735 0.10183 0.79142 0.0
C3407 C 0.36888 0.11607 0.80636 0.0
C3408 C 0.38383 0.11146 0.76196 0.0
C3409 C 0.38914 0.12587 0.79928 0.0
C3410 C 0.37887 0.10194 0.72049 0.0
C3411 C 0.39332 0.14534 0.71074 0.0
N3412 N 0.39564 0.12394 0.77732 0.0
N3413 N 0.39501 0.13699 0.73199 0.0
H3414 H 0.84062 0.37829 0.80796 0.0
H3415 H 0.88202 0.33804 0.693 0.0
H3416 H 0.90457 0.34401 0.80355 0.0
H3417 H 0.84859 0.40245 0.69804 0.0
H3418 H 0.89196 0.34042 0.73311 0.0
H3419 H 0.84377 0.38865 0.76801 0.0
C3420 C 0.85564 0.37354 0.79867 0.0
C3421 C 0.87243 0.36043 0.80893 0.0
C3422 C 0.88307 0.35438 0.7253 0.0
C3423 C 0.87575 0.37139 0.76321 0.0
C3424 C 0.87745 0.35302 0.70246 0.0
C3425 C 0.86468 0.37017 0.69232 0.0
C3426 C 0.87507 0.37257 0.73823 0.0
C3427 C 0.85873 0.38906 0.70529 0.0
C3428 C 0.85745 0.37944 0.77592 0.0
C3429 C 0.89142 0.35436 0.7962 0.0
N3430 N 0.86346 0.3895 0.72778 0.0
N3431 N 0.89231 0.35939 0.77378 0.0
H3432 H 0.64873 0.09802 0.19518 0.0
H3433 H 0.5958 0.15939 0.30319 0.0
H3434 H 0.62265 0.16597 0.19387 0.0
H3435 H 0.65547 0.11799 0.30664 0.0
H3436 H 0.59339 0.15171 0.26241 0.0
H3437 H 0.63894 0.09557 0.23554 0.0
C3438 C 0.64024 0.1121 0.20322 0.0
C3439 C 0.63649 0.13224 0.19135 0.0
C3440 C 0.60654 0.14374 0.27229 0.0
C3441 C 0.62514 0.12948 0.23703 0.0
C3442 C 0.6078 0.14792 0.2955 0.0
C3443 C 0.62574 0.13911 0.30813 0.0
C3444 C 0.62314 0.13037 0.2619 0.0
C3445 C 0.6413 0.12489 0.29737 0.0
C3446 C 0.63482 0.11074 0.22618 0.0
C3447 C 0.62584 0.15019 0.20254 0.0
N3448 N 0.63971 0.12101 0.2748 0.0
N3449 N 0.62059 0.14842 0.22481 0.0
H3450 H 0.86043 0.60409 0.18296 0.0
H3451 H 0.82755 0.59869 0.29276 0.0
H3452 H 0.89243 0.66476 0.20726 0.0
H3453 H 0.88842 0.63435 0.31021 0.0
H3454 H 0.8407 0.59561 0.25392 0.0
H3455 H 0.86164 0.58864 0.22149 0.0
C3456 C 0.86829 0.61384 0.19629 0.0
C3457 C 0.87591 0.63585 0.1922 0.0
C3458 C 0.85172 0.60327 0.2663 0.0
C3459 C 0.87683 0.61875 0.23606 0.0
C3460 C 0.8441 0.60518 0.28847 0.0
C3461 C 0.85688 0.61694 0.30452 0.0
C3462 C 0.87204 0.61373 0.26005 0.0
C3463 C 0.87812 0.62514 0.29824 0.0
C3464 C 0.86873 0.60518 0.21829 0.0
C3465 C 0.88599 0.64785 0.20994 0.0
N3466 N 0.88476 0.62399 0.27627 0.0
N3467 N 0.88588 0.63927 0.23117 0.0
H3468 H 0.35949 0.89227 0.30757 0.0
H3469 H 0.39098 0.84523 0.1872 0.0
H3470 H 0.40232 0.83483 0.29508 0.0
H3471 H 0.35121 0.90534 0.19675 0.0
H3472 H 0.40329 0.84744 0.22643 0.0
H3473 H 0.36378 0.90353 0.26779 0.0
C3474 C 0.37051 0.88259 0.29665 0.0
C3475 C 0.38048 0.86257 0.30438 0.0
C3476 C 0.3923 0.86054 0.21995 0.0
C3477 C 0.3851 0.8749 0.25909 0.0
C3478 C 0.38542 0.85931 0.19749 0.0
C3479 C 0.37015 0.87514 0.1889 0.0
C3480 C 0.38314 0.87724 0.23416 0.0
C3481 C 0.36317 0.89294 0.20286 0.0
C3482 C 0.37282 0.88887 0.27393 0.0
C3483 C 0.39428 0.85033 0.28961 0.0
N3484 N 0.36929 0.89322 0.22504 0.0
N3485 N 0.39592 0.8565 0.26762 0.0
H3486 H 0.10498 0.35774 0.30922 0.0
H3487 H 0.15391 0.3934 0.1919 0.0
H3488 H 0.15841 0.40609 0.29999 0.0
H3489 H 0.09359 0.35346 0.19829 0.0
H3490 H 0.14989 0.40532 0.23111 0.0
H3491 H 0.09428 0.36267 0.2694 0.0
C3492 C 0.11377 0.37012 0.29903 0.0
C3493 C 0.1326 0.38148 0.30766 0.0
C3494 C 0.13714 0.39439 0.22393 0.0
C3495 C 0.12106 0.38674 0.26227 0.0
C3496 C 0.13943 0.3877 0.2015 0.0
C3497 C 0.12406 0.3725 0.19206 0.0
C3498 C 0.11984 0.38507 0.23726 0.0
C3499 C 0.10568 0.36535 0.2051 0.0
C3500 C 0.10784 0.3728 0.27628 0.0
C3501 C 0.14381 0.39699 0.2938 0.0
N3502 N 0.10436 0.37125 0.22729 0.0
N3503 N 0.13812 0.39889 0.27171 0.0
H3504 H 0.80555 0.61667 0.83463 0.0
H3505 H 0.69357 0.65833 0.8778 0.0
H3506 H 0.80349 0.64623 0.90112 0.0
H3507 H 0.69561 0.59326 0.84528 0.0
H3508 H 0.73356 0.6543 0.88753 0.0
H3509 H 0.76551 0.60702 0.83808 0.0
C3510 C 0.79674 0.62055 0.85018 0.0
C3511 C 0.80764 0.63221 0.86763 0.0
C3512 C 0.72508 0.6406 0.87889 0.0
C3513 C 0.76197 0.622 0.87137 0.0
C3514 C 0.70236 0.64291 0.87333 0.0
C3515 C 0.69148 0.62605 0.86084 0.0
C3516 C 0.7371 0.62173 0.87106 0.0
C3517 C 0.70351 0.6065 0.85512 0.0
C3518 C 0.77399 0.61501 0.85218 0.0
C3519 C 0.79558 0.63709 0.88739 0.0
N3520 N 0.72594 0.60512 0.85972 0.0
N3521 N 0.77313 0.63253 0.8885 0.0
H3522 H 0.80969 0.3861 0.13722 0.0
H3523 H 0.68736 0.34155 0.10848 0.0
H3524 H 0.79475 0.32622 0.09869 0.0
H3525 H 0.69929 0.40197 0.14714 0.0
H3526 H 0.72661 0.3419 0.0962 0.0
H3527 H 0.77017 0.39812 0.133 0.0
C3528 C 0.79827 0.37593 0.12721 0.0
C3529 C 0.80527 0.35506 0.11848 0.0
C3530 C 0.72066 0.35545 0.10695 0.0
C3531 C 0.76028 0.36839 0.11385 0.0
C3532 C 0.6982 0.3553 0.1138 0.0
C3533 C 0.69025 0.37175 0.12876 0.0
C3534 C 0.7355 0.37173 0.11578 0.0
C3535 C 0.70489 0.38909 0.13542 0.0
C3536 C 0.77571 0.38268 0.12493 0.0
C3537 C 0.78987 0.34233 0.10586 0.0
N3538 N 0.72704 0.38836 0.12931 0.0
N3539 N 0.76807 0.34903 0.10419 0.0
H3540 H 0.59264 0.69609 0.14656 0.0
H3541 H 0.66043 0.79972 0.09456 0.0
H3542 H 0.65724 0.69246 0.11346 0.0
H3543 H 0.60823 0.80751 0.14453 0.0
H3544 H 0.64985 0.76015 0.08995 0.0
H3545 H 0.58958 0.73602 0.13525 0.0
C3546 C 0.60574 0.7035 0.13619 0.0
C3547 C 0.62525 0.69117 0.13092 0.0
C3548 C 0.64023 0.7706 0.10148 0.0
C3549 C 0.62196 0.73644 0.1181 0.0
C3550 C 0.64613 0.79321 0.10393 0.0
C3551 C 0.63513 0.80672 0.1199 0.0
C3552 C 0.62356 0.7613 0.11551 0.0
C3553 C 0.61695 0.79755 0.13191 0.0
C3554 C 0.60408 0.72626 0.12991 0.0
C3555 C 0.64198 0.70151 0.11786 0.0
N3556 N 0.612 0.77517 0.12984 0.0
N3557 N 0.64004 0.72358 0.11206 0.0
H3558 H 0.20393 0.6706 0.09793 0.0
H3559 H 0.31376 0.63804 0.10346 0.0
H3560 H 0.18702 0.61087 0.13585 0.0
H3561 H 0.29008 0.60742 0.16511 0.0
H3562 H 0.27515 0.63649 0.08842 0.0
H3563 H 0.24269 0.65736 0.09482 0.0
C3564 C 0.2083 0.65423 0.10488 0.0
C3565 C 0.19243 0.64182 0.11726 0.0
C3566 C 0.27849 0.62979 0.10509 0.0
C3567 C 0.23685 0.6266 0.11408 0.0
C3568 C 0.30055 0.63042 0.11353 0.0
C3569 C 0.30485 0.62329 0.13568 0.0
C3570 C 0.26088 0.622 0.11902 0.0
C3571 C 0.28725 0.61349 0.14808 0.0
C3572 C 0.23044 0.64656 0.10298 0.0
C3573 C 0.19883 0.62085 0.12612 0.0
N3574 N 0.26597 0.61341 0.13971 0.0
N3575 N 0.22078 0.61419 0.12494 0.0
H3576 H 0.38572 0.18876 0.1572 0.0
H3577 H 0.3592 0.31144 0.11293 0.0
H3578 H 0.34726 0.20121 0.09676 0.0
H3579 H 0.40152 0.29597 0.17003 0.0
H3580 H 0.36182 0.27177 0.10086 0.0
H3581 H 0.39916 0.22767 0.15633 0.0
C3582 C 0.38063 0.19965 0.14338 0.0
C3583 C 0.36545 0.19197 0.12704 0.0
C3584 C 0.37111 0.27721 0.11564 0.0
C3585 C 0.37982 0.23682 0.1264 0.0
C3586 C 0.36975 0.29987 0.12238 0.0
C3587 C 0.38003 0.30676 0.14255 0.0
C3588 C 0.38275 0.26158 0.12928 0.0
C3589 C 0.39323 0.29116 0.15445 0.0
C3590 C 0.38819 0.2219 0.1429 0.0
C3591 C 0.35912 0.20663 0.10957 0.0
N3592 N 0.39394 0.26927 0.14783 0.0
N3593 N 0.36593 0.2286 0.10997 0.0
H3594 H 0.18968 0.38539 0.83991 0.0
H3595 H 0.31011 0.35896 0.8889 0.0
H3596 H 0.19921 0.35104 0.90332 0.0
H3597 H 0.29723 0.40046 0.83053 0.0
H3598 H 0.27019 0.3626 0.89969 0.0
H3599 H 0.22873 0.39811 0.8412 0.0
C3600 C 0.19997 0.38104 0.85441 0.0
C3601 C 0.19141 0.36717 0.87149 0.0
C3602 C 0.27626 0.3715 0.88492 0.0
C3603 C 0.23645 0.38075 0.87272 0.0
C3604 C 0.29905 0.36956 0.8789 0.0
C3605 C 0.30673 0.3793 0.85875 0.0
C3606 C 0.26131 0.38316 0.87056 0.0
C3607 C 0.2918 0.39257 0.84612 0.0
C3608 C 0.2223 0.3882 0.85515 0.0
C3609 C 0.20531 0.36184 0.88989 0.0
N3610 N 0.26976 0.39383 0.85204 0.0
N3611 N 0.2274 0.36819 0.88978 0.0
H3612 H 0.60881 0.18944 0.86059 0.0
H3613 H 0.65763 0.30781 0.89328 0.0
H3614 H 0.66367 0.19987 0.9071 0.0
H3615 H 0.59631 0.30034 0.85504 0.0
H3616 H 0.65444 0.26867 0.90565 0.0
H3617 H 0.59796 0.22927 0.86517 0.0
C3618 C 0.61792 0.1999 0.87251 0.0
C3619 C 0.63719 0.1916 0.88341 0.0
C3620 C 0.64131 0.27559 0.89499 0.0
C3621 C 0.62543 0.23699 0.88827 0.0
C3622 C 0.64313 0.29798 0.88804 0.0
C3623 C 0.62722 0.30711 0.87318 0.0
C3624 C 0.62391 0.26197 0.88629 0.0
C3625 C 0.60882 0.29378 0.86665 0.0
C3626 C 0.6119 0.22266 0.87498 0.0
C3627 C 0.64875 0.2058 0.89834 0.0
N3628 N 0.60794 0.27163 0.8728 0.0
N3629 N 0.64294 0.22788 0.90004 0.0
H3630 H 0.36256 0.68469 0.88682 0.0
H3631 H 0.39356 0.81293 0.85958 0.0
H3632 H 0.4009 0.70674 0.82905 0.0
H3633 H 0.335 0.7915 0.89697 0.0
H3634 H 0.4075 0.77382 0.86 0.0
H3635 H 0.36395 0.72336 0.90188 0.0
C3636 C 0.372 0.69748 0.87778 0.0
C3637 C 0.38142 0.69274 0.8566 0.0
C3638 C 0.39196 0.77786 0.86873 0.0
C3639 C 0.38301 0.73668 0.87353 0.0
C3640 C 0.38411 0.80015 0.86863 0.0
C3641 C 0.36304 0.80522 0.87805 0.0
C3642 C 0.37868 0.76079 0.87852 0.0
C3643 C 0.35125 0.78809 0.88933 0.0
C3644 C 0.37266 0.71952 0.88626 0.0
C3645 C 0.39324 0.70989 0.84535 0.0
N3646 N 0.35908 0.76654 0.88902 0.0
N3647 N 0.39346 0.7312 0.85381 0.0
loop_
_geom_bond_atom_site_label_1
_geom_bond_atom_site_label_2
_geom_bond_distance
_geom_bond_site_symmetry_2
_ccdc_geom_bond_type
Fe0 O2 1.918 . S
Fe0 O5 1.997 . S
Fe0 O6 2.002 . S
Fe0 O11 1.976 . S
Fe0 O14 1.996 . S
Fe1 O2 1.918 . S
Fe1 O9 1.997 . S
Fe1 O12 1.996 . S
Fe1 O16 1.976 . S
Fe1 O19 2.002 . S
O2 Fe0 1.918 . S
O2 Fe1 1.918 . S
O2 Fe3 1.918 . S
Fe3 O2 1.918 . S
Fe3 O4 2.002 . S
Fe3 O13 1.976 . S
Fe3 O17 1.996 . S
Fe3 O20 1.997 . S
O4 Fe3 2.002 . S
O4 C21 1.295 . S
O5 Fe0 1.997 . S
O5 C21 1.235 . S
O6 Fe0 2.002 . S
O6 C7 1.295 . S
C7 O6 1.295 . S
C7 O9 1.235 . S
C8 O13 1.287 . S
C8 O14 1.255 . S
O9 Fe1 1.997 . S
O9 C7 1.235 . S
C10 O16 1.287 . S
C10 O17 1.255 . S
O11 Fe0 1.976 . S
O11 C18 1.287 . S
O12 Fe1 1.996 . S
O12 C18 1.255 . S
O13 Fe3 1.976 . S
O13 C8 1.287 . S
O14 Fe0 1.996 . S
O14 C8 1.255 . S
C15 O19 1.295 . S
C15 O20 1.235 . S
O16 Fe1 1.976 . S
O16 C10 1.287 . S
O17 Fe3 1.996 . S
O17 C10 1.255 . S
C18 O11 1.287 . S
C18 O12 1.255 . S
O19 Fe1 2.002 . S
O19 C15 1.295 . S
O20 Fe3 1.997 . S
O20 C15 1.235 . S
C21 O4 1.295 . S
C21 O5 1.235 . S
Fe22 O24 1.918 . S
Fe22 O27 1.997 . S
Fe22 O28 2.002 . S
Fe22 O33 1.976 . S
Fe22 O36 1.996 . S
Fe23 O24 1.918 . S
Fe23 O31 1.997 . S
Fe23 O34 1.996 . S
Fe23 O38 1.976 . S
Fe23 O41 2.002 . S
O24 Fe22 1.918 . S
O24 Fe23 1.918 . S
O24 Fe25 1.918 . S
Fe25 O24 1.918 . S
Fe25 O26 2.002 . S
Fe25 O35 1.976 . S
Fe25 O39 1.996 . S
Fe25 O42 1.997 . S
O26 Fe25 2.002 . S
O26 C43 1.295 . S
O27 Fe22 1.997 . S
O27 C43 1.235 . S
O28 Fe22 2.002 . S
O28 C29 1.295 . S
C29 O28 1.295 . S
C29 O31 1.235 . S
C30 O35 1.287 . S
C30 O36 1.255 . S
O31 Fe23 1.997 . S
O31 C29 1.235 . S
C32 O38 1.287 . S
C32 O39 1.255 . S
O33 Fe22 1.976 . S
O33 C40 1.287 . S
O34 Fe23 1.996 . S
O34 C40 1.255 . S
O35 Fe25 1.976 . S
O35 C30 1.287 . S
O36 Fe22 1.996 . S
O36 C30 1.255 . S
C37 O41 1.295 . S
C37 O42 1.235 . S
O38 Fe23 1.976 . S
O38 C32 1.287 . S
O39 Fe25 1.996 . S
O39 C32 1.255 . S
C40 O33 1.287 . S
C40 O34 1.255 . S
O41 Fe23 2.002 . S
O41 C37 1.295 . S
O42 Fe25 1.997 . S
O42 C37 1.235 . S
C43 O26 1.295 . S
C43 O27 1.235 . S
Fe44 O46 1.918 . S
Fe44 O49 1.997 . S
Fe44 O50 2.002 . S
Fe44 O55 1.976 . S
Fe44 O58 1.996 . S
Fe45 O46 1.918 . S
Fe45 O53 1.997 . S
Fe45 O56 1.996 . S
Fe45 O60 1.976 . S
Fe45 O63 2.002 . S
O46 Fe44 1.918 . S
O46 Fe45 1.918 . S
O46 Fe47 1.918 . S
Fe47 O46 1.918 . S
Fe47 O48 2.002 . S
Fe47 O57 1.976 . S
Fe47 O61 1.996 . S
Fe47 O64 1.997 . S
O48 Fe47 2.002 . S
O48 C65 1.295 . S
O49 Fe44 1.997 . S
O49 C65 1.235 . S
O50 Fe44 2.002 . S
O50 C51 1.295 . S
C51 O50 1.295 . S
C51 O53 1.235 . S
C52 O57 1.287 . S
C52 O58 1.255 . S
O53 Fe45 1.997 . S
O53 C51 1.235 . S
C54 O60 1.287 . S
C54 O61 1.255 . S
O55 Fe44 1.976 . S
O55 C62 1.287 . S
O56 Fe45 1.996 . S
O56 C62 1.255 . S
O57 Fe47 1.976 . S
O57 C52 1.287 . S
O58 Fe44 1.996 . S
O58 C52 1.255 . S
C59 O63 1.295 . S
C59 O64 1.235 . S
O60 Fe45 1.976 . S
O60 C54 1.287 . S
O61 Fe47 1.996 . S
O61 C54 1.255 . S
C62 O55 1.287 . S
C62 O56 1.255 . S
O63 Fe45 2.002 . S
O63 C59 1.295 . S
O64 Fe47 1.997 . S
O64 C59 1.235 . S
C65 O48 1.295 . S
C65 O49 1.235 . S
Fe66 O68 1.918 . S
Fe66 O71 1.997 . S
Fe66 O72 2.002 . S
Fe66 O77 1.976 . S
Fe66 O80 1.996 . S
Fe67 O68 1.918 . S
Fe67 O75 1.997 . S
Fe67 O78 1.996 . S
Fe67 O82 1.976 . S
Fe67 O85 2.002 . S
O68 Fe66 1.918 . S
O68 Fe67 1.918 . S
O68 Fe69 1.918 . S
Fe69 O68 1.918 . S
Fe69 O70 2.002 . S
Fe69 O79 1.976 . S
Fe69 O83 1.996 . S
Fe69 O86 1.997 . S
O70 Fe69 2.002 . S
O70 C87 1.295 . S
O71 Fe66 1.997 . S
O71 C87 1.235 . S
O72 Fe66 2.002 . S
O72 C73 1.295 . S
C73 O72 1.295 . S
C73 O75 1.235 . S
C74 O79 1.287 . S
C74 O80 1.255 . S
O75 Fe67 1.997 . S
O75 C73 1.235 . S
C76 O82 1.287 . S
C76 O83 1.255 . S
O77 Fe66 1.976 . S
O77 C84 1.287 . S
O78 Fe67 1.996 . S
O78 C84 1.255 . S
O79 Fe69 1.976 . S
O79 C74 1.287 . S
O80 Fe66 1.996 . S
O80 C74 1.255 . S
C81 O85 1.295 . S
C81 O86 1.235 . S
O82 Fe67 1.976 . S
O82 C76 1.287 . S
O83 Fe69 1.996 . S
O83 C76 1.255 . S
C84 O77 1.287 . S
C84 O78 1.255 . S
O85 Fe67 2.002 . S
O85 C81 1.295 . S
O86 Fe69 1.997 . S
O86 C81 1.235 . S
C87 O70 1.295 . S
C87 O71 1.235 . S
Fe88 O90 1.918 . S
Fe88 O93 1.997 . S
Fe88 O94 2.002 . S
Fe88 O99 1.976 . S
Fe88 O102 1.996 . S
Fe89 O90 1.918 . S
Fe89 O97 1.997 . S
Fe89 O100 1.996 . S
Fe89 O104 1.976 . S
Fe89 O107 2.002 . S
O90 Fe88 1.918 . S
O90 Fe89 1.918 . S
O90 Fe91 1.918 . S
Fe91 O90 1.918 . S
Fe91 O92 2.002 . S
Fe91 O101 1.976 . S
Fe91 O105 1.996 . S
Fe91 O108 1.997 . S
O92 Fe91 2.002 . S
O92 C109 1.295 . S
O93 Fe88 1.997 . S
O93 C109 1.235 . S
O94 Fe88 2.002 . S
O94 C95 1.295 . S
C95 O94 1.295 . S
C95 O97 1.235 . S
C96 O101 1.287 . S
C96 O102 1.255 . S
O97 Fe89 1.997 . S
O97 C95 1.235 . S
C98 O104 1.287 . S
C98 O105 1.255 . S
O99 Fe88 1.976 . S
O99 C106 1.287 . S
O100 Fe89 1.996 . S
O100 C106 1.255 . S
O101 Fe91 1.976 . S
O101 C96 1.287 . S
O102 Fe88 1.996 . S
O102 C96 1.255 . S
C103 O107 1.295 . S
C103 O108 1.235 . S
O104 Fe89 1.976 . S
O104 C98 1.287 . S
O105 Fe91 1.996 . S
O105 C98 1.255 . S
C106 O99 1.287 . S
C106 O100 1.255 . S
O107 Fe89 2.002 . S
O107 C103 1.295 . S
O108 Fe91 1.997 . S
O108 C103 1.235 . S
C109 O92 1.295 . S
C109 O93 1.235 . S
Fe110 O112 1.918 . S
Fe110 O115 1.997 . S
Fe110 O116 2.002 . S
Fe110 O121 1.976 . S
Fe110 O124 1.996 . S
Fe111 O112 1.918 . S
Fe111 O119 1.997 . S
Fe111 O122 1.996 . S
Fe111 O126 1.976 . S
Fe111 O129 2.002 . S
O112 Fe110 1.918 . S
O112 Fe111 1.918 . S
O112 Fe113 1.918 . S
Fe113 O112 1.918 . S
Fe113 O114 2.002 . S
Fe113 O123 1.976 . S
Fe113 O127 1.996 . S
Fe113 O130 1.997 . S
O114 Fe113 2.002 . S
O114 C131 1.295 . S
O115 Fe110 1.997 . S
O115 C131 1.235 . S
O116 Fe110 2.002 . S
O116 C117 1.295 . S
C117 O116 1.295 . S
C117 O119 1.235 . S
C118 O123 1.287 . S
C118 O124 1.255 . S
O119 Fe111 1.997 . S
O119 C117 1.235 . S
C120 O126 1.287 . S
C120 O127 1.255 . S
O121 Fe110 1.976 . S
O121 C128 1.287 . S
O122 Fe111 1.996 . S
O122 C128 1.255 . S
O123 Fe113 1.976 . S
O123 C118 1.287 . S
O124 Fe110 1.996 . S
O124 C118 1.255 . S
C125 O129 1.295 . S
C125 O130 1.235 . S
O126 Fe111 1.976 . S
O126 C120 1.287 . S
O127 Fe113 1.996 . S
O127 C120 1.255 . S
C128 O121 1.287 . S
C128 O122 1.255 . S
O129 Fe111 2.002 . S
O129 C125 1.295 . S
O130 Fe113 1.997 . S
O130 C125 1.235 . S
C131 O114 1.295 . S
C131 O115 1.235 . S
Fe132 O134 1.918 . S
Fe132 O137 1.997 . S
Fe132 O138 2.002 . S
Fe132 O143 1.976 . S
Fe132 O146 1.996 . S
Fe133 O134 1.918 . S
Fe133 O141 1.997 . S
Fe133 O144 1.996 . S
Fe133 O148 1.976 . S
Fe133 O151 2.002 . S
O134 Fe132 1.918 . S
O134 Fe133 1.918 . S
O134 Fe135 1.918 . S
Fe135 O134 1.918 . S
Fe135 O136 2.002 . S
Fe135 O145 1.976 . S
Fe135 O149 1.996 . S
Fe135 O152 1.997 . S
O136 Fe135 2.002 . S
O136 C153 1.295 . S
O137 Fe132 1.997 . S
O137 C153 1.235 . S
O138 Fe132 2.002 . S
O138 C139 1.295 . S
C139 O138 1.295 . S
C139 O141 1.235 . S
C140 O145 1.287 . S
C140 O146 1.255 . S
O141 Fe133 1.997 . S
O141 C139 1.235 . S
C142 O148 1.287 . S
C142 O149 1.255 . S
O143 Fe132 1.976 . S
O143 C150 1.287 . S
O144 Fe133 1.996 . S
O144 C150 1.255 . S
O145 Fe135 1.976 . S
O145 C140 1.287 . S
O146 Fe132 1.996 . S
O146 C140 1.255 . S
C147 O151 1.295 . S
C147 O152 1.235 . S
O148 Fe133 1.976 . S
O148 C142 1.287 . S
O149 Fe135 1.996 . S
O149 C142 1.255 . S
C150 O143 1.287 . S
C150 O144 1.255 . S
O151 Fe133 2.002 . S
O151 C147 1.295 . S
O152 Fe135 1.997 . S
O152 C147 1.235 . S
C153 O136 1.295 . S
C153 O137 1.235 . S
Fe154 O156 1.918 . S
Fe154 O159 1.997 . S
Fe154 O160 2.002 . S
Fe154 O165 1.976 . S
Fe154 O168 1.996 . S
Fe155 O156 1.918 . S
Fe155 O163 1.997 . S
Fe155 O166 1.996 . S
Fe155 O170 1.976 . S
Fe155 O173 2.002 . S
O156 Fe154 1.918 . S
O156 Fe155 1.918 . S
O156 Fe157 1.918 . S
Fe157 O156 1.918 . S
Fe157 O158 2.002 . S
Fe157 O167 1.976 . S
Fe157 O171 1.996 . S
Fe157 O174 1.997 . S
O158 Fe157 2.002 . S
O158 C175 1.295 . S
O159 Fe154 1.997 . S
O159 C175 1.235 . S
O160 Fe154 2.002 . S
O160 C161 1.295 . S
C161 O160 1.295 . S
C161 O163 1.235 . S
C162 O167 1.287 . S
C162 O168 1.255 . S
O163 Fe155 1.997 . S
O163 C161 1.235 . S
C164 O170 1.287 . S
C164 O171 1.255 . S
O165 Fe154 1.976 . S
O165 C172 1.287 . S
O166 Fe155 1.996 . S
O166 C172 1.255 . S
O167 Fe157 1.976 . S
O167 C162 1.287 . S
O168 Fe154 1.996 . S
O168 C162 1.255 . S
C169 O173 1.295 . S
C169 O174 1.235 . S
O170 Fe155 1.976 . S
O170 C164 1.287 . S
O171 Fe157 1.996 . S
O171 C164 1.255 . S
C172 O165 1.287 . S
C172 O166 1.255 . S
O173 Fe155 2.002 . S
O173 C169 1.295 . S
O174 Fe157 1.997 . S
O174 C169 1.235 . S
C175 O158 1.295 . S
C175 O159 1.235 . S
Fe176 O178 1.918 . S
Fe176 O181 1.997 . S
Fe176 O182 2.002 . S
Fe176 O187 1.976 . S
Fe176 O190 1.996 . S
Fe177 O178 1.918 . S
Fe177 O185 1.997 . S
Fe177 O188 1.996 . S
Fe177 O192 1.976 . S
Fe177 O195 2.002 . S
O178 Fe176 1.918 . S
O178 Fe177 1.918 . S
O178 Fe179 1.918 . S
Fe179 O178 1.918 . S
Fe179 O180 2.002 . S
Fe179 O189 1.976 . S
Fe179 O193 1.996 . S
Fe179 O196 1.997 . S
O180 Fe179 2.002 . S
O180 C197 1.295 . S
O181 Fe176 1.997 . S
O181 C197 1.235 . S
O182 Fe176 2.002 . S
O182 C183 1.295 . S
C183 O182 1.295 . S
C183 O185 1.235 . S
C184 O189 1.287 . S
C184 O190 1.255 . S
O185 Fe177 1.997 . S
O185 C183 1.235 . S
C186 O192 1.287 . S
C186 O193 1.255 . S
O187 Fe176 1.976 . S
O187 C194 1.287 . S
O188 Fe177 1.996 . S
O188 C194 1.255 . S
O189 Fe179 1.976 . S
O189 C184 1.287 . S
O190 Fe176 1.996 . S
O190 C184 1.255 . S
C191 O195 1.295 . S
C191 O196 1.235 . S
O192 Fe177 1.976 . S
O192 C186 1.287 . S
O193 Fe179 1.996 . S
O193 C186 1.255 . S
C194 O187 1.287 . S
C194 O188 1.255 . S
O195 Fe177 2.002 . S
O195 C191 1.295 . S
O196 Fe179 1.997 . S
O196 C191 1.235 . S
C197 O180 1.295 . S
C197 O181 1.235 . S
Fe198 O200 1.918 . S
Fe198 O203 1.997 . S
Fe198 O204 2.002 . S
Fe198 O209 1.976 . S
Fe198 O212 1.996 . S
Fe199 O200 1.918 . S
Fe199 O207 1.997 . S
Fe199 O210 1.996 . S
Fe199 O214 1.976 . S
Fe199 O217 2.002 . S
O200 Fe198 1.918 . S
O200 Fe199 1.918 . S
O200 Fe201 1.918 . S
Fe201 O200 1.918 . S
Fe201 O202 2.002 . S
Fe201 O211 1.976 . S
Fe201 O215 1.996 . S
Fe201 O218 1.997 . S
O202 Fe201 2.002 . S
O202 C219 1.295 . S
O203 Fe198 1.997 . S
O203 C219 1.235 . S
O204 Fe198 2.002 . S
O204 C205 1.295 . S
C205 O204 1.295 . S
C205 O207 1.235 . S
C206 O211 1.287 . S
C206 O212 1.255 . S
O207 Fe199 1.997 . S
O207 C205 1.235 . S
C208 O214 1.287 . S
C208 O215 1.255 . S
O209 Fe198 1.976 . S
O209 C216 1.287 . S
O210 Fe199 1.996 . S
O210 C216 1.255 . S
O211 Fe201 1.976 . S
O211 C206 1.287 . S
O212 Fe198 1.996 . S
O212 C206 1.255 . S
C213 O217 1.295 . S
C213 O218 1.235 . S
O214 Fe199 1.976 . S
O214 C208 1.287 . S
O215 Fe201 1.996 . S
O215 C208 1.255 . S
C216 O209 1.287 . S
C216 O210 1.255 . S
O217 Fe199 2.002 . S
O217 C213 1.295 . S
O218 Fe201 1.997 . S
O218 C213 1.235 . S
C219 O202 1.295 . S
C219 O203 1.235 . S
Fe220 O222 1.918 . S
Fe220 O225 1.997 . S
Fe220 O226 2.002 . S
Fe220 O231 1.976 . S
Fe220 O234 1.996 . S
Fe221 O222 1.918 . S
Fe221 O229 1.997 . S
Fe221 O232 1.996 . S
Fe221 O236 1.976 . S
Fe221 O239 2.002 . S
O222 Fe220 1.918 . S
O222 Fe221 1.918 . S
O222 Fe223 1.918 . S
Fe223 O222 1.918 . S
Fe223 O224 2.002 . S
Fe223 O233 1.976 . S
Fe223 O237 1.996 . S
Fe223 O240 1.997 . S
O224 Fe223 2.002 . S
O224 C241 1.295 . S
O225 Fe220 1.997 . S
O225 C241 1.235 . S
O226 Fe220 2.002 . S
O226 C227 1.295 . S
C227 O226 1.295 . S
C227 O229 1.235 . S
C228 O233 1.287 . S
C228 O234 1.255 . S
O229 Fe221 1.997 . S
O229 C227 1.235 . S
C230 O236 1.287 . S
C230 O237 1.255 . S
O231 Fe220 1.976 . S
O231 C238 1.287 . S
O232 Fe221 1.996 . S
O232 C238 1.255 . S
O233 Fe223 1.976 . S
O233 C228 1.287 . S
O234 Fe220 1.996 . S
O234 C228 1.255 . S
C235 O239 1.295 . S
C235 O240 1.235 . S
O236 Fe221 1.976 . S
O236 C230 1.287 . S
O237 Fe223 1.996 . S
O237 C230 1.255 . S
C238 O231 1.287 . S
C238 O232 1.255 . S
O239 Fe221 2.002 . S
O239 C235 1.295 . S
O240 Fe223 1.997 . S
O240 C235 1.235 . S
C241 O224 1.295 . S
C241 O225 1.235 . S
Fe242 O244 1.918 . S
Fe242 O247 1.997 . S
Fe242 O248 2.002 . S
Fe242 O253 1.976 . S
Fe242 O256 1.996 . S
Fe243 O244 1.918 . S
Fe243 O251 1.997 . S
Fe243 O254 1.996 . S
Fe243 O258 1.976 . S
Fe243 O261 2.002 . S
O244 Fe242 1.918 . S
O244 Fe243 1.918 . S
O244 Fe245 1.918 . S
Fe245 O244 1.918 . S
Fe245 O246 2.002 . S
Fe245 O255 1.976 . S
Fe245 O259 1.996 . S
Fe245 O262 1.997 . S
O246 Fe245 2.002 . S
O246 C263 1.295 . S
O247 Fe242 1.997 . S
O247 C263 1.235 . S
O248 Fe242 2.002 . S
O248 C249 1.295 . S
C249 O248 1.295 . S
C249 O251 1.235 . S
C250 O255 1.287 . S
C250 O256 1.255 . S
O251 Fe243 1.997 . S
O251 C249 1.235 . S
C252 O258 1.287 . S
C252 O259 1.255 . S
O253 Fe242 1.976 . S
O253 C260 1.287 . S
O254 Fe243 1.996 . S
O254 C260 1.255 . S
O255 Fe245 1.976 . S
O255 C250 1.287 . S
O256 Fe242 1.996 . S
O256 C250 1.255 . S
C257 O261 1.295 . S
C257 O262 1.235 . S
O258 Fe243 1.976 . S
O258 C252 1.287 . S
O259 Fe245 1.996 . S
O259 C252 1.255 . S
C260 O253 1.287 . S
C260 O254 1.255 . S
O261 Fe243 2.002 . S
O261 C257 1.295 . S
O262 Fe245 1.997 . S
O262 C257 1.235 . S
C263 O246 1.295 . S
C263 O247 1.235 . S
Fe264 O266 1.918 . S
Fe264 O269 1.997 . S
Fe264 O270 2.002 . S
Fe264 O275 1.976 . S
Fe264 O278 1.996 . S
Fe265 O266 1.918 . S
Fe265 O273 1.997 . S
Fe265 O276 1.996 . S
Fe265 O280 1.976 . S
Fe265 O283 2.002 . S
O266 Fe264 1.918 . S
O266 Fe265 1.918 . S
O266 Fe267 1.918 . S
Fe267 O266 1.918 . S
Fe267 O268 2.002 . S
Fe267 O277 1.976 . S
Fe267 O281 1.996 . S
Fe267 O284 1.997 . S
O268 Fe267 2.002 . S
O268 C285 1.295 . S
O269 Fe264 1.997 . S
O269 C285 1.235 . S
O270 Fe264 2.002 . S
O270 C271 1.295 . S
C271 O270 1.295 . S
C271 O273 1.235 . S
C272 O277 1.287 . S
C272 O278 1.255 . S
O273 Fe265 1.997 . S
O273 C271 1.235 . S
C274 O280 1.287 . S
C274 O281 1.255 . S
O275 Fe264 1.976 . S
O275 C282 1.287 . S
O276 Fe265 1.996 . S
O276 C282 1.255 . S
O277 Fe267 1.976 . S
O277 C272 1.287 . S
O278 Fe264 1.996 . S
O278 C272 1.255 . S
C279 O283 1.295 . S
C279 O284 1.235 . S
O280 Fe265 1.976 . S
O280 C274 1.287 . S
O281 Fe267 1.996 . S
O281 C274 1.255 . S
C282 O275 1.287 . S
C282 O276 1.255 . S
O283 Fe265 2.002 . S
O283 C279 1.295 . S
O284 Fe267 1.997 . S
O284 C279 1.235 . S
C285 O268 1.295 . S
C285 O269 1.235 . S
Fe286 O288 1.918 . S
Fe286 O291 1.997 . S
Fe286 O292 2.002 . S
Fe286 O297 1.976 . S
Fe286 O300 1.996 . S
Fe287 O288 1.918 . S
Fe287 O295 1.997 . S
Fe287 O298 1.996 . S
Fe287 O302 1.976 . S
Fe287 O305 2.002 . S
O288 Fe286 1.918 . S
O288 Fe287 1.918 . S
O288 Fe289 1.918 . S
Fe289 O288 1.918 . S
Fe289 O290 2.002 . S
Fe289 O299 1.976 . S
Fe289 O303 1.996 . S
Fe289 O306 1.997 . S
O290 Fe289 2.002 . S
O290 C307 1.295 . S
O291 Fe286 1.997 . S
O291 C307 1.235 . S
O292 Fe286 2.002 . S
O292 C293 1.295 . S
C293 O292 1.295 . S
C293 O295 1.235 . S
C294 O299 1.287 . S
C294 O300 1.255 . S
O295 Fe287 1.997 . S
O295 C293 1.235 . S
C296 O302 1.287 . S
C296 O303 1.255 . S
O297 Fe286 1.976 . S
O297 C304 1.287 . S
O298 Fe287 1.996 . S
O298 C304 1.255 . S
O299 Fe289 1.976 . S
O299 C294 1.287 . S
O300 Fe286 1.996 . S
O300 C294 1.255 . S
C301 O305 1.295 . S
C301 O306 1.235 . S
O302 Fe287 1.976 . S
O302 C296 1.287 . S
O303 Fe289 1.996 . S
O303 C296 1.255 . S
C304 O297 1.287 . S
C304 O298 1.255 . S
O305 Fe287 2.002 . S
O305 C301 1.295 . S
O306 Fe289 1.997 . S
O306 C301 1.235 . S
C307 O290 1.295 . S
C307 O291 1.235 . S
Fe308 O310 1.918 . S
Fe308 O313 1.997 . S
Fe308 O314 2.002 . S
Fe308 O319 1.976 . S
Fe308 O322 1.996 . S
Fe309 O310 1.918 . S
Fe309 O317 1.997 . S
Fe309 O320 1.996 . S
Fe309 O324 1.976 . S
Fe309 O327 2.002 . S
O310 Fe308 1.918 . S
O310 Fe309 1.918 . S
O310 Fe311 1.918 . S
Fe311 O310 1.918 . S
Fe311 O312 2.002 . S
Fe311 O321 1.976 . S
Fe311 O325 1.996 . S
Fe311 O328 1.997 . S
O312 Fe311 2.002 . S
O312 C329 1.295 . S
O313 Fe308 1.997 . S
O313 C329 1.235 . S
O314 Fe308 2.002 . S
O314 C315 1.295 . S
C315 O314 1.295 . S
C315 O317 1.235 . S
C316 O321 1.287 . S
C316 O322 1.255 . S
O317 Fe309 1.997 . S
O317 C315 1.235 . S
C318 O324 1.287 . S
C318 O325 1.255 . S
O319 Fe308 1.976 . S
O319 C326 1.287 . S
O320 Fe309 1.996 . S
O320 C326 1.255 . S
O321 Fe311 1.976 . S
O321 C316 1.287 . S
O322 Fe308 1.996 . S
O322 C316 1.255 . S
C323 O327 1.295 . S
C323 O328 1.235 . S
O324 Fe309 1.976 . S
O324 C318 1.287 . S
O325 Fe311 1.996 . S
O325 C318 1.255 . S
C326 O319 1.287 . S
C326 O320 1.255 . S
O327 Fe309 2.002 . S
O327 C323 1.295 . S
O328 Fe311 1.997 . S
O328 C323 1.235 . S
C329 O312 1.295 . S
C329 O313 1.235 . S
Fe330 O332 1.918 . S
Fe330 O335 1.997 . S
Fe330 O336 2.002 . S
Fe330 O341 1.976 . S
Fe330 O344 1.996 . S
Fe331 O332 1.918 . S
Fe331 O339 1.997 . S
Fe331 O342 1.996 . S
Fe331 O346 1.976 . S
Fe331 O349 2.002 . S
O332 Fe330 1.918 . S
O332 Fe331 1.918 . S
O332 Fe333 1.918 . S
Fe333 O332 1.918 . S
Fe333 O334 2.002 . S
Fe333 O343 1.976 . S
Fe333 O347 1.996 . S
Fe333 O350 1.997 . S
O334 Fe333 2.002 . S
O334 C351 1.295 . S
O335 Fe330 1.997 . S
O335 C351 1.235 . S
O336 Fe330 2.002 . S
O336 C337 1.295 . S
C337 O336 1.295 . S
C337 O339 1.235 . S
C338 O343 1.287 . S
C338 O344 1.255 . S
O339 Fe331 1.997 . S
O339 C337 1.235 . S
C340 O346 1.287 . S
C340 O347 1.255 . S
O341 Fe330 1.976 . S
O341 C348 1.287 . S
O342 Fe331 1.996 . S
O342 C348 1.255 . S
O343 Fe333 1.976 . S
O343 C338 1.287 . S
O344 Fe330 1.996 . S
O344 C338 1.255 . S
C345 O349 1.295 . S
C345 O350 1.235 . S
O346 Fe331 1.976 . S
O346 C340 1.287 . S
O347 Fe333 1.996 . S
O347 C340 1.255 . S
C348 O341 1.287 . S
C348 O342 1.255 . S
O349 Fe331 2.002 . S
O349 C345 1.295 . S
O350 Fe333 1.997 . S
O350 C345 1.235 . S
C351 O334 1.295 . S
C351 O335 1.235 . S
Fe352 O354 1.918 . S
Fe352 O357 1.997 . S
Fe352 O358 2.002 . S
Fe352 O363 1.976 . S
Fe352 O366 1.996 . S
Fe353 O354 1.918 . S
Fe353 O361 1.997 . S
Fe353 O364 1.996 . S
Fe353 O368 1.976 . S
Fe353 O371 2.002 . S
O354 Fe352 1.918 . S
O354 Fe353 1.918 . S
O354 Fe355 1.918 . S
Fe355 O354 1.918 . S
Fe355 O356 2.002 . S
Fe355 O365 1.976 . S
Fe355 O369 1.996 . S
Fe355 O372 1.997 . S
O356 Fe355 2.002 . S
O356 C373 1.295 . S
O357 Fe352 1.997 . S
O357 C373 1.235 . S
O358 Fe352 2.002 . S
O358 C359 1.295 . S
C359 O358 1.295 . S
C359 O361 1.235 . S
C360 O365 1.287 . S
C360 O366 1.255 . S
O361 Fe353 1.997 . S
O361 C359 1.235 . S
C362 O368 1.287 . S
C362 O369 1.255 . S
O363 Fe352 1.976 . S
O363 C370 1.287 . S
O364 Fe353 1.996 . S
O364 C370 1.255 . S
O365 Fe355 1.976 . S
O365 C360 1.287 . S
O366 Fe352 1.996 . S
O366 C360 1.255 . S
C367 O371 1.295 . S
C367 O372 1.235 . S
O368 Fe353 1.976 . S
O368 C362 1.287 . S
O369 Fe355 1.996 . S
O369 C362 1.255 . S
C370 O363 1.287 . S
C370 O364 1.255 . S
O371 Fe353 2.002 . S
O371 C367 1.295 . S
O372 Fe355 1.997 . S
O372 C367 1.235 . S
C373 O356 1.295 . S
C373 O357 1.235 . S
Fe374 O376 1.918 . S
Fe374 O379 1.997 . S
Fe374 O380 2.002 . S
Fe374 O385 1.976 . S
Fe374 O388 1.996 . S
Fe375 O376 1.918 . S
Fe375 O383 1.997 . S
Fe375 O386 1.996 . S
Fe375 O390 1.976 . S
Fe375 O393 2.002 . S
O376 Fe374 1.918 . S
O376 Fe375 1.918 . S
O376 Fe377 1.918 . S
Fe377 O376 1.918 . S
Fe377 O378 2.002 . S
Fe377 O387 1.976 . S
Fe377 O391 1.996 . S
Fe377 O394 1.997 . S
O378 Fe377 2.002 . S
O378 C395 1.295 . S
O379 Fe374 1.997 . S
O379 C395 1.235 . S
O380 Fe374 2.002 . S
O380 C381 1.295 . S
C381 O380 1.295 . S
C381 O383 1.235 . S
C382 O387 1.287 . S
C382 O388 1.255 . S
O383 Fe375 1.997 . S
O383 C381 1.235 . S
C384 O390 1.287 . S
C384 O391 1.255 . S
O385 Fe374 1.976 . S
O385 C392 1.287 . S
O386 Fe375 1.996 . S
O386 C392 1.255 . S
O387 Fe377 1.976 . S
O387 C382 1.287 . S
O388 Fe374 1.996 . S
O388 C382 1.255 . S
C389 O393 1.295 . S
C389 O394 1.235 . S
O390 Fe375 1.976 . S
O390 C384 1.287 . S
O391 Fe377 1.996 . S
O391 C384 1.255 . S
C392 O385 1.287 . S
C392 O386 1.255 . S
O393 Fe375 2.002 . S
O393 C389 1.295 . S
O394 Fe377 1.997 . S
O394 C389 1.235 . S
C395 O378 1.295 . S
C395 O379 1.235 . S
Fe396 O398 1.918 . S
Fe396 O401 1.997 . S
Fe396 O402 2.002 . S
Fe396 O407 1.976 . S
Fe396 O410 1.996 . S
Fe397 O398 1.918 . S
Fe397 O405 1.997 . S
Fe397 O408 1.996 . S
Fe397 O412 1.976 . S
Fe397 O415 2.002 . S
O398 Fe396 1.918 . S
O398 Fe397 1.918 . S
O398 Fe399 1.918 . S
Fe399 O398 1.918 . S
Fe399 O400 2.002 . S
Fe399 O409 1.976 . S
Fe399 O413 1.996 . S
Fe399 O416 1.997 . S
O400 Fe399 2.002 . S
O400 C417 1.295 . S
O401 Fe396 1.997 . S
O401 C417 1.235 . S
O402 Fe396 2.002 . S
O402 C403 1.295 . S
C403 O402 1.295 . S
C403 O405 1.235 . S
C404 O409 1.287 . S
C404 O410 1.255 . S
O405 Fe397 1.997 . S
O405 C403 1.235 . S
C406 O412 1.287 . S
C406 O413 1.255 . S
O407 Fe396 1.976 . S
O407 C414 1.287 . S
O408 Fe397 1.996 . S
O408 C414 1.255 . S
O409 Fe399 1.976 . S
O409 C404 1.287 . S
O410 Fe396 1.996 . S
O410 C404 1.255 . S
C411 O415 1.295 . S
C411 O416 1.235 . S
O412 Fe397 1.976 . S
O412 C406 1.287 . S
O413 Fe399 1.996 . S
O413 C406 1.255 . S
C414 O407 1.287 . S
C414 O408 1.255 . S
O415 Fe397 2.002 . S
O415 C411 1.295 . S
O416 Fe399 1.997 . S
O416 C411 1.235 . S
C417 O400 1.295 . S
C417 O401 1.235 . S
Fe418 O420 1.918 . S
Fe418 O423 1.997 . S
Fe418 O424 2.002 . S
Fe418 O429 1.976 . S
Fe418 O432 1.996 . S
Fe419 O420 1.918 . S
Fe419 O427 1.997 . S
Fe419 O430 1.996 . S
Fe419 O434 1.976 . S
Fe419 O437 2.002 . S
O420 Fe418 1.918 . S
O420 Fe419 1.918 . S
O420 Fe421 1.918 . S
Fe421 O420 1.918 . S
Fe421 O422 2.002 . S
Fe421 O431 1.976 . S
Fe421 O435 1.996 . S
Fe421 O438 1.997 . S
O422 Fe421 2.002 . S
O422 C439 1.295 . S
O423 Fe418 1.997 . S
O423 C439 1.235 . S
O424 Fe418 2.002 . S
O424 C425 1.295 . S
C425 O424 1.295 . S
C425 O427 1.235 . S
C426 O431 1.287 . S
C426 O432 1.255 . S
O427 Fe419 1.997 . S
O427 C425 1.235 . S
C428 O434 1.287 . S
C428 O435 1.255 . S
O429 Fe418 1.976 . S
O429 C436 1.287 . S
O430 Fe419 1.996 . S
O430 C436 1.255 . S
O431 Fe421 1.976 . S
O431 C426 1.287 . S
O432 Fe418 1.996 . S
O432 C426 1.255 . S
C433 O437 1.295 . S
C433 O438 1.235 . S
O434 Fe419 1.976 . S
O434 C428 1.287 . S
O435 Fe421 1.996 . S
O435 C428 1.255 . S
C436 O429 1.287 . S
C436 O430 1.255 . S
O437 Fe419 2.002 . S
O437 C433 1.295 . S
O438 Fe421 1.997 . S
O438 C433 1.235 . S
C439 O422 1.295 . S
C439 O423 1.235 . S
Fe440 O442 1.918 . S
Fe440 O445 1.997 . S
Fe440 O446 2.002 . S
Fe440 O451 1.976 . S
Fe440 O454 1.996 . S
Fe441 O442 1.918 . S
Fe441 O449 1.997 . S
Fe441 O452 1.996 . S
Fe441 O456 1.976 . S
Fe441 O459 2.002 . S
O442 Fe440 1.918 . S
O442 Fe441 1.918 . S
O442 Fe443 1.918 . S
Fe443 O442 1.918 . S
Fe443 O444 2.002 . S
Fe443 O453 1.976 . S
Fe443 O457 1.996 . S
Fe443 O460 1.997 . S
O444 Fe443 2.002 . S
O444 C461 1.295 . S
O445 Fe440 1.997 . S
O445 C461 1.235 . S
O446 Fe440 2.002 . S
O446 C447 1.295 . S
C447 O446 1.295 . S
C447 O449 1.235 . S
C448 O453 1.287 . S
C448 O454 1.255 . S
O449 Fe441 1.997 . S
O449 C447 1.235 . S
C450 O456 1.287 . S
C450 O457 1.255 . S
O451 Fe440 1.976 . S
O451 C458 1.287 . S
O452 Fe441 1.996 . S
O452 C458 1.255 . S
O453 Fe443 1.976 . S
O453 C448 1.287 . S
O454 Fe440 1.996 . S
O454 C448 1.255 . S
C455 O459 1.295 . S
C455 O460 1.235 . S
O456 Fe441 1.976 . S
O456 C450 1.287 . S
O457 Fe443 1.996 . S
O457 C450 1.255 . S
C458 O451 1.287 . S
C458 O452 1.255 . S
O459 Fe441 2.002 . S
O459 C455 1.295 . S
O460 Fe443 1.997 . S
O460 C455 1.235 . S
C461 O444 1.295 . S
C461 O445 1.235 . S
Fe462 O464 1.918 . S
Fe462 O467 1.997 . S
Fe462 O468 2.002 . S
Fe462 O473 1.976 . S
Fe462 O476 1.996 . S
Fe463 O464 1.918 . S
Fe463 O471 1.997 . S
Fe463 O474 1.996 . S
Fe463 O478 1.976 . S
Fe463 O481 2.002 . S
O464 Fe462 1.918 . S
O464 Fe463 1.918 . S
O464 Fe465 1.918 . S
Fe465 O464 1.918 . S
Fe465 O466 2.002 . S
Fe465 O475 1.976 . S
Fe465 O479 1.996 . S
Fe465 O482 1.997 . S
O466 Fe465 2.002 . S
O466 C483 1.295 . S
O467 Fe462 1.997 . S
O467 C483 1.235 . S
O468 Fe462 2.002 . S
O468 C469 1.295 . S
C469 O468 1.295 . S
C469 O471 1.235 . S
C470 O475 1.287 . S
C470 O476 1.255 . S
O471 Fe463 1.997 . S
O471 C469 1.235 . S
C472 O478 1.287 . S
C472 O479 1.255 . S
O473 Fe462 1.976 . S
O473 C480 1.287 . S
O474 Fe463 1.996 . S
O474 C480 1.255 . S
O475 Fe465 1.976 . S
O475 C470 1.287 . S
O476 Fe462 1.996 . S
O476 C470 1.255 . S
C477 O481 1.295 . S
C477 O482 1.235 . S
O478 Fe463 1.976 . S
O478 C472 1.287 . S
O479 Fe465 1.996 . S
O479 C472 1.255 . S
C480 O473 1.287 . S
C480 O474 1.255 . S
O481 Fe463 2.002 . S
O481 C477 1.295 . S
O482 Fe465 1.997 . S
O482 C477 1.235 . S
C483 O466 1.295 . S
C483 O467 1.235 . S
Fe484 O486 1.918 . S
Fe484 O489 1.997 . S
Fe484 O490 2.002 . S
Fe484 O495 1.976 . S
Fe484 O498 1.996 . S
Fe485 O486 1.918 . S
Fe485 O493 1.997 . S
Fe485 O496 1.996 . S
Fe485 O500 1.976 . S
Fe485 O503 2.002 . S
O486 Fe484 1.918 . S
O486 Fe485 1.918 . S
O486 Fe487 1.918 . S
Fe487 O486 1.918 . S
Fe487 O488 2.002 . S
Fe487 O497 1.976 . S
Fe487 O501 1.996 . S
Fe487 O504 1.997 . S
O488 Fe487 2.002 . S
O488 C505 1.295 . S
O489 Fe484 1.997 . S
O489 C505 1.235 . S
O490 Fe484 2.002 . S
O490 C491 1.295 . S
C491 O490 1.295 . S
C491 O493 1.235 . S
C492 O497 1.287 . S
C492 O498 1.255 . S
O493 Fe485 1.997 . S
O493 C491 1.235 . S
C494 O500 1.287 . S
C494 O501 1.255 . S
O495 Fe484 1.976 . S
O495 C502 1.287 . S
O496 Fe485 1.996 . S
O496 C502 1.255 . S
O497 Fe487 1.976 . S
O497 C492 1.287 . S
O498 Fe484 1.996 . S
O498 C492 1.255 . S
C499 O503 1.295 . S
C499 O504 1.235 . S
O500 Fe485 1.976 . S
O500 C494 1.287 . S
O501 Fe487 1.996 . S
O501 C494 1.255 . S
C502 O495 1.287 . S
C502 O496 1.255 . S
O503 Fe485 2.002 . S
O503 C499 1.295 . S
O504 Fe487 1.997 . S
O504 C499 1.235 . S
C505 O488 1.295 . S
C505 O489 1.235 . S
Fe506 O508 1.918 . S
Fe506 O511 1.997 . S
Fe506 O512 2.002 . S
Fe506 O517 1.976 . S
Fe506 O520 1.996 . S
Fe507 O508 1.918 . S
Fe507 O515 1.997 . S
Fe507 O518 1.996 . S
Fe507 O522 1.976 . S
Fe507 O525 2.002 . S
O508 Fe506 1.918 . S
O508 Fe507 1.918 . S
O508 Fe509 1.918 . S
Fe509 O508 1.918 . S
Fe509 O510 2.002 . S
Fe509 O519 1.976 . S
Fe509 O523 1.996 . S
Fe509 O526 1.997 . S
O510 Fe509 2.002 . S
O510 C527 1.295 . S
O511 Fe506 1.997 . S
O511 C527 1.235 . S
O512 Fe506 2.002 . S
O512 C513 1.295 . S
C513 O512 1.295 . S
C513 O515 1.235 . S
C514 O519 1.287 . S
C514 O520 1.255 . S
O515 Fe507 1.997 . S
O515 C513 1.235 . S
C516 O522 1.287 . S
C516 O523 1.255 . S
O517 Fe506 1.976 . S
O517 C524 1.287 . S
O518 Fe507 1.996 . S
O518 C524 1.255 . S
O519 Fe509 1.976 . S
O519 C514 1.287 . S
O520 Fe506 1.996 . S
O520 C514 1.255 . S
C521 O525 1.295 . S
C521 O526 1.235 . S
O522 Fe507 1.976 . S
O522 C516 1.287 . S
O523 Fe509 1.996 . S
O523 C516 1.255 . S
C524 O517 1.287 . S
C524 O518 1.255 . S
O525 Fe507 2.002 . S
O525 C521 1.295 . S
O526 Fe509 1.997 . S
O526 C521 1.235 . S
C527 O510 1.295 . S
C527 O511 1.235 . S
Fe528 O530 1.918 . S
Fe528 O533 1.997 . S
Fe528 O534 2.002 . S
Fe528 O539 1.976 . S
Fe528 O542 1.996 . S
Fe529 O530 1.918 . S
Fe529 O537 1.997 . S
Fe529 O540 1.996 . S
Fe529 O544 1.976 . S
Fe529 O547 2.002 . S
O530 Fe528 1.918 . S
O530 Fe529 1.918 . S
O530 Fe531 1.918 . S
Fe531 O530 1.918 . S
Fe531 O532 2.002 . S
Fe531 O541 1.976 . S
Fe531 O545 1.996 . S
Fe531 O548 1.997 . S
O532 Fe531 2.002 . S
O532 C549 1.295 . S
O533 Fe528 1.997 . S
O533 C549 1.235 . S
O534 Fe528 2.002 . S
O534 C535 1.295 . S
C535 O534 1.295 . S
C535 O537 1.235 . S
C536 O541 1.287 . S
C536 O542 1.255 . S
O537 Fe529 1.997 . S
O537 C535 1.235 . S
C538 O544 1.287 . S
C538 O545 1.255 . S
O539 Fe528 1.976 . S
O539 C546 1.287 . S
O540 Fe529 1.996 . S
O540 C546 1.255 . S
O541 Fe531 1.976 . S
O541 C536 1.287 . S
O542 Fe528 1.996 . S
O542 C536 1.255 . S
C543 O547 1.295 . S
C543 O548 1.235 . S
O544 Fe529 1.976 . S
O544 C538 1.287 . S
O545 Fe531 1.996 . S
O545 C538 1.255 . S
C546 O539 1.287 . S
C546 O540 1.255 . S
O547 Fe529 2.002 . S
O547 C543 1.295 . S
O548 Fe531 1.997 . S
O548 C543 1.235 . S
C549 O532 1.295 . S
C549 O533 1.235 . S
Fe550 O552 1.918 . S
Fe550 O555 1.997 . S
Fe550 O556 2.002 . S
Fe550 O561 1.976 . S
Fe550 O564 1.996 . S
Fe551 O552 1.918 . S
Fe551 O559 1.997 . S
Fe551 O562 1.996 . S
Fe551 O566 1.976 . S
Fe551 O569 2.002 . S
O552 Fe550 1.918 . S
O552 Fe551 1.918 . S
O552 Fe553 1.918 . S
Fe553 O552 1.918 . S
Fe553 O554 2.002 . S
Fe553 O563 1.976 . S
Fe553 O567 1.996 . S
Fe553 O570 1.997 . S
O554 Fe553 2.002 . S
O554 C571 1.295 . S
O555 Fe550 1.997 . S
O555 C571 1.235 . S
O556 Fe550 2.002 . S
O556 C557 1.295 . S
C557 O556 1.295 . S
C557 O559 1.235 . S
C558 O563 1.287 . S
C558 O564 1.255 . S
O559 Fe551 1.997 . S
O559 C557 1.235 . S
C560 O566 1.287 . S
C560 O567 1.255 . S
O561 Fe550 1.976 . S
O561 C568 1.287 . S
O562 Fe551 1.996 . S
O562 C568 1.255 . S
O563 Fe553 1.976 . S
O563 C558 1.287 . S
O564 Fe550 1.996 . S
O564 C558 1.255 . S
C565 O569 1.295 . S
C565 O570 1.235 . S
O566 Fe551 1.976 . S
O566 C560 1.287 . S
O567 Fe553 1.996 . S
O567 C560 1.255 . S
C568 O561 1.287 . S
C568 O562 1.255 . S
O569 Fe551 2.002 . S
O569 C565 1.295 . S
O570 Fe553 1.997 . S
O570 C565 1.235 . S
C571 O554 1.295 . S
C571 O555 1.235 . S
Fe572 O574 1.918 . S
Fe572 O577 1.997 . S
Fe572 O578 2.002 . S
Fe572 O583 1.976 . S
Fe572 O586 1.996 . S
Fe573 O574 1.918 . S
Fe573 O581 1.997 . S
Fe573 O584 1.996 . S
Fe573 O588 1.976 . S
Fe573 O591 2.002 . S
O574 Fe572 1.918 . S
O574 Fe573 1.918 . S
O574 Fe575 1.918 . S
Fe575 O574 1.918 . S
Fe575 O576 2.002 . S
Fe575 O585 1.976 . S
Fe575 O589 1.996 . S
Fe575 O592 1.997 . S
O576 Fe575 2.002 . S
O576 C593 1.295 . S
O577 Fe572 1.997 . S
O577 C593 1.235 . S
O578 Fe572 2.002 . S
O578 C579 1.295 . S
C579 O578 1.295 . S
C579 O581 1.235 . S
C580 O585 1.287 . S
C580 O586 1.255 . S
O581 Fe573 1.997 . S
O581 C579 1.235 . S
C582 O588 1.287 . S
C582 O589 1.255 . S
O583 Fe572 1.976 . S
O583 C590 1.287 . S
O584 Fe573 1.996 . S
O584 C590 1.255 . S
O585 Fe575 1.976 . S
O585 C580 1.287 . S
O586 Fe572 1.996 . S
O586 C580 1.255 . S
C587 O591 1.295 . S
C587 O592 1.235 . S
O588 Fe573 1.976 . S
O588 C582 1.287 . S
O589 Fe575 1.996 . S
O589 C582 1.255 . S
C590 O583 1.287 . S
C590 O584 1.255 . S
O591 Fe573 2.002 . S
O591 C587 1.295 . S
O592 Fe575 1.997 . S
O592 C587 1.235 . S
C593 O576 1.295 . S
C593 O577 1.235 . S
Fe594 O596 1.918 . S
Fe594 O599 1.997 . S
Fe594 O600 2.002 . S
Fe594 O605 1.976 . S
Fe594 O608 1.996 . S
Fe595 O596 1.918 . S
Fe595 O603 1.997 . S
Fe595 O606 1.996 . S
Fe595 O610 1.976 . S
Fe595 O613 2.002 . S
O596 Fe594 1.918 . S
O596 Fe595 1.918 . S
O596 Fe597 1.918 . S
Fe597 O596 1.918 . S
Fe597 O598 2.002 . S
Fe597 O607 1.976 . S
Fe597 O611 1.996 . S
Fe597 O614 1.997 . S
O598 Fe597 2.002 . S
O598 C615 1.295 . S
O599 Fe594 1.997 . S
O599 C615 1.235 . S
O600 Fe594 2.002 . S
O600 C601 1.295 . S
C601 O600 1.295 . S
C601 O603 1.235 . S
C602 O607 1.287 . S
C602 O608 1.255 . S
O603 Fe595 1.997 . S
O603 C601 1.235 . S
C604 O610 1.287 . S
C604 O611 1.255 . S
O605 Fe594 1.976 . S
O605 C612 1.287 . S
O606 Fe595 1.996 . S
O606 C612 1.255 . S
O607 Fe597 1.976 . S
O607 C602 1.287 . S
O608 Fe594 1.996 . S
O608 C602 1.255 . S
C609 O613 1.295 . S
C609 O614 1.235 . S
O610 Fe595 1.976 . S
O610 C604 1.287 . S
O611 Fe597 1.996 . S
O611 C604 1.255 . S
C612 O605 1.287 . S
C612 O606 1.255 . S
O613 Fe595 2.002 . S
O613 C609 1.295 . S
O614 Fe597 1.997 . S
O614 C609 1.235 . S
C615 O598 1.295 . S
C615 O599 1.235 . S
Fe616 O618 1.918 . S
Fe616 O621 1.997 . S
Fe616 O622 2.002 . S
Fe616 O627 1.976 . S
Fe616 O630 1.996 . S
Fe617 O618 1.918 . S
Fe617 O625 1.997 . S
Fe617 O628 1.996 . S
Fe617 O632 1.976 . S
Fe617 O635 2.002 . S
O618 Fe616 1.918 . S
O618 Fe617 1.918 . S
O618 Fe619 1.918 . S
Fe619 O618 1.918 . S
Fe619 O620 2.002 . S
Fe619 O629 1.976 . S
Fe619 O633 1.996 . S
Fe619 O636 1.997 . S
O620 Fe619 2.002 . S
O620 C637 1.295 . S
O621 Fe616 1.997 . S
O621 C637 1.235 . S
O622 Fe616 2.002 . S
O622 C623 1.295 . S
C623 O622 1.295 . S
C623 O625 1.235 . S
C624 O629 1.287 . S
C624 O630 1.255 . S
O625 Fe617 1.997 . S
O625 C623 1.235 . S
C626 O632 1.287 . S
C626 O633 1.255 . S
O627 Fe616 1.976 . S
O627 C634 1.287 . S
O628 Fe617 1.996 . S
O628 C634 1.255 . S
O629 Fe619 1.976 . S
O629 C624 1.287 . S
O630 Fe616 1.996 . S
O630 C624 1.255 . S
C631 O635 1.295 . S
C631 O636 1.235 . S
O632 Fe617 1.976 . S
O632 C626 1.287 . S
O633 Fe619 1.996 . S
O633 C626 1.255 . S
C634 O627 1.287 . S
C634 O628 1.255 . S
O635 Fe617 2.002 . S
O635 C631 1.295 . S
O636 Fe619 1.997 . S
O636 C631 1.235 . S
C637 O620 1.295 . S
C637 O621 1.235 . S
Fe638 O640 1.918 . S
Fe638 O643 1.997 . S
Fe638 O644 2.002 . S
Fe638 O649 1.976 . S
Fe638 O652 1.996 . S
Fe639 O640 1.918 . S
Fe639 O647 1.997 . S
Fe639 O650 1.996 . S
Fe639 O654 1.976 . S
Fe639 O657 2.002 . S
O640 Fe638 1.918 . S
O640 Fe639 1.918 . S
O640 Fe641 1.918 . S
Fe641 O640 1.918 . S
Fe641 O642 2.002 . S
Fe641 O651 1.976 . S
Fe641 O655 1.996 . S
Fe641 O658 1.997 . S
O642 Fe641 2.002 . S
O642 C659 1.295 . S
O643 Fe638 1.997 . S
O643 C659 1.235 . S
O644 Fe638 2.002 . S
O644 C645 1.295 . S
C645 O644 1.295 . S
C645 O647 1.235 . S
C646 O651 1.287 . S
C646 O652 1.255 . S
O647 Fe639 1.997 . S
O647 C645 1.235 . S
C648 O654 1.287 . S
C648 O655 1.255 . S
O649 Fe638 1.976 . S
O649 C656 1.287 . S
O650 Fe639 1.996 . S
O650 C656 1.255 . S
O651 Fe641 1.976 . S
O651 C646 1.287 . S
O652 Fe638 1.996 . S
O652 C646 1.255 . S
C653 O657 1.295 . S
C653 O658 1.235 . S
O654 Fe639 1.976 . S
O654 C648 1.287 . S
O655 Fe641 1.996 . S
O655 C648 1.255 . S
C656 O649 1.287 . S
C656 O650 1.255 . S
O657 Fe639 2.002 . S
O657 C653 1.295 . S
O658 Fe641 1.997 . S
O658 C653 1.235 . S
C659 O642 1.295 . S
C659 O643 1.235 . S
Fe660 O662 1.918 . S
Fe660 O665 1.997 . S
Fe660 O666 2.002 . S
Fe660 O671 1.976 . S
Fe660 O674 1.996 . S
Fe661 O662 1.918 . S
Fe661 O669 1.997 . S
Fe661 O672 1.996 . S
Fe661 O676 1.976 . S
Fe661 O679 2.002 . S
O662 Fe660 1.918 . S
O662 Fe661 1.918 . S
O662 Fe663 1.918 . S
Fe663 O662 1.918 . S
Fe663 O664 2.002 . S
Fe663 O673 1.976 . S
Fe663 O677 1.996 . S
Fe663 O680 1.997 . S
O664 Fe663 2.002 . S
O664 C681 1.295 . S
O665 Fe660 1.997 . S
O665 C681 1.235 . S
O666 Fe660 2.002 . S
O666 C667 1.295 . S
C667 O666 1.295 . S
C667 O669 1.235 . S
C668 O673 1.287 . S
C668 O674 1.255 . S
O669 Fe661 1.997 . S
O669 C667 1.235 . S
C670 O676 1.287 . S
C670 O677 1.255 . S
O671 Fe660 1.976 . S
O671 C678 1.287 . S
O672 Fe661 1.996 . S
O672 C678 1.255 . S
O673 Fe663 1.976 . S
O673 C668 1.287 . S
O674 Fe660 1.996 . S
O674 C668 1.255 . S
C675 O679 1.295 . S
C675 O680 1.235 . S
O676 Fe661 1.976 . S
O676 C670 1.287 . S
O677 Fe663 1.996 . S
O677 C670 1.255 . S
C678 O671 1.287 . S
C678 O672 1.255 . S
O679 Fe661 2.002 . S
O679 C675 1.295 . S
O680 Fe663 1.997 . S
O680 C675 1.235 . S
C681 O664 1.295 . S
C681 O665 1.235 . S
Fe682 O684 1.918 . S
Fe682 O687 1.997 . S
Fe682 O688 2.002 . S
Fe682 O693 1.976 . S
Fe682 O696 1.996 . S
Fe683 O684 1.918 . S
Fe683 O691 1.997 . S
Fe683 O694 1.996 . S
Fe683 O698 1.976 . S
Fe683 O701 2.002 . S
O684 Fe682 1.918 . S
O684 Fe683 1.918 . S
O684 Fe685 1.918 . S
Fe685 O684 1.918 . S
Fe685 O686 2.002 . S
Fe685 O695 1.976 . S
Fe685 O699 1.996 . S
Fe685 O702 1.997 . S
O686 Fe685 2.002 . S
O686 C703 1.295 . S
O687 Fe682 1.997 . S
O687 C703 1.235 . S
O688 Fe682 2.002 . S
O688 C689 1.295 . S
C689 O688 1.295 . S
C689 O691 1.235 . S
C690 O695 1.287 . S
C690 O696 1.255 . S
O691 Fe683 1.997 . S
O691 C689 1.235 . S
C692 O698 1.287 . S
C692 O699 1.255 . S
O693 Fe682 1.976 . S
O693 C700 1.287 . S
O694 Fe683 1.996 . S
O694 C700 1.255 . S
O695 Fe685 1.976 . S
O695 C690 1.287 . S
O696 Fe682 1.996 . S
O696 C690 1.255 . S
C697 O701 1.295 . S
C697 O702 1.235 . S
O698 Fe683 1.976 . S
O698 C692 1.287 . S
O699 Fe685 1.996 . S
O699 C692 1.255 . S
C700 O693 1.287 . S
C700 O694 1.255 . S
O701 Fe683 2.002 . S
O701 C697 1.295 . S
O702 Fe685 1.997 . S
O702 C697 1.235 . S
C703 O686 1.295 . S
C703 O687 1.235 . S
Fe704 O706 1.918 . S
Fe704 O709 1.997 . S
Fe704 O710 2.002 . S
Fe704 O715 1.976 . S
Fe704 O718 1.996 . S
Fe705 O706 1.918 . S
Fe705 O713 1.997 . S
Fe705 O716 1.996 . S
Fe705 O720 1.976 . S
Fe705 O723 2.002 . S
O706 Fe704 1.918 . S
O706 Fe705 1.918 . S
O706 Fe707 1.918 . S
Fe707 O706 1.918 . S
Fe707 O708 2.002 . S
Fe707 O717 1.976 . S
Fe707 O721 1.996 . S
Fe707 O724 1.997 . S
O708 Fe707 2.002 . S
O708 C725 1.295 . S
O709 Fe704 1.997 . S
O709 C725 1.235 . S
O710 Fe704 2.002 . S
O710 C711 1.295 . S
C711 O710 1.295 . S
C711 O713 1.235 . S
C712 O717 1.287 . S
C712 O718 1.255 . S
O713 Fe705 1.997 . S
O713 C711 1.235 . S
C714 O720 1.287 . S
C714 O721 1.255 . S
O715 Fe704 1.976 . S
O715 C722 1.287 . S
O716 Fe705 1.996 . S
O716 C722 1.255 . S
O717 Fe707 1.976 . S
O717 C712 1.287 . S
O718 Fe704 1.996 . S
O718 C712 1.255 . S
C719 O723 1.295 . S
C719 O724 1.235 . S
O720 Fe705 1.976 . S
O720 C714 1.287 . S
O721 Fe707 1.996 . S
O721 C714 1.255 . S
C722 O715 1.287 . S
C722 O716 1.255 . S
O723 Fe705 2.002 . S
O723 C719 1.295 . S
O724 Fe707 1.997 . S
O724 C719 1.235 . S
C725 O708 1.295 . S
C725 O709 1.235 . S
Fe726 O728 1.918 . S
Fe726 O731 1.997 . S
Fe726 O732 2.002 . S
Fe726 O737 1.976 . S
Fe726 O740 1.996 . S
Fe727 O728 1.918 . S
Fe727 O735 1.997 . S
Fe727 O738 1.996 . S
Fe727 O742 1.976 . S
Fe727 O745 2.002 . S
O728 Fe726 1.918 . S
O728 Fe727 1.918 . S
O728 Fe729 1.918 . S
Fe729 O728 1.918 . S
Fe729 O730 2.002 . S
Fe729 O739 1.976 . S
Fe729 O743 1.996 . S
Fe729 O746 1.997 . S
O730 Fe729 2.002 . S
O730 C747 1.295 . S
O731 Fe726 1.997 . S
O731 C747 1.235 . S
O732 Fe726 2.002 . S
O732 C733 1.295 . S
C733 O732 1.295 . S
C733 O735 1.235 . S
C734 O739 1.287 . S
C734 O740 1.255 . S
O735 Fe727 1.997 . S
O735 C733 1.235 . S
C736 O742 1.287 . S
C736 O743 1.255 . S
O737 Fe726 1.976 . S
O737 C744 1.287 . S
O738 Fe727 1.996 . S
O738 C744 1.255 . S
O739 Fe729 1.976 . S
O739 C734 1.287 . S
O740 Fe726 1.996 . S
O740 C734 1.255 . S
C741 O745 1.295 . S
C741 O746 1.235 . S
O742 Fe727 1.976 . S
O742 C736 1.287 . S
O743 Fe729 1.996 . S
O743 C736 1.255 . S
C744 O737 1.287 . S
C744 O738 1.255 . S
O745 Fe727 2.002 . S
O745 C741 1.295 . S
O746 Fe729 1.997 . S
O746 C741 1.235 . S
C747 O730 1.295 . S
C747 O731 1.235 . S
Fe748 O750 1.918 . S
Fe748 O753 1.997 . S
Fe748 O754 2.002 . S
Fe748 O759 1.976 . S
Fe748 O762 1.996 . S
Fe749 O750 1.918 . S
Fe749 O757 1.997 . S
Fe749 O760 1.996 . S
Fe749 O764 1.976 . S
Fe749 O767 2.002 . S
O750 Fe748 1.918 . S
O750 Fe749 1.918 . S
O750 Fe751 1.918 . S
Fe751 O750 1.918 . S
Fe751 O752 2.002 . S
Fe751 O761 1.976 . S
Fe751 O765 1.996 . S
Fe751 O768 1.997 . S
O752 Fe751 2.002 . S
O752 C769 1.295 . S
O753 Fe748 1.997 . S
O753 C769 1.235 . S
O754 Fe748 2.002 . S
O754 C755 1.295 . S
C755 O754 1.295 . S
C755 O757 1.235 . S
C756 O761 1.287 . S
C756 O762 1.255 . S
O757 Fe749 1.997 . S
O757 C755 1.235 . S
C758 O764 1.287 . S
C758 O765 1.255 . S
O759 Fe748 1.976 . S
O759 C766 1.287 . S
O760 Fe749 1.996 . S
O760 C766 1.255 . S
O761 Fe751 1.976 . S
O761 C756 1.287 . S
O762 Fe748 1.996 . S
O762 C756 1.255 . S
C763 O767 1.295 . S
C763 O768 1.235 . S
O764 Fe749 1.976 . S
O764 C758 1.287 . S
O765 Fe751 1.996 . S
O765 C758 1.255 . S
C766 O759 1.287 . S
C766 O760 1.255 . S
O767 Fe749 2.002 . S
O767 C763 1.295 . S
O768 Fe751 1.997 . S
O768 C763 1.235 . S
C769 O752 1.295 . S
C769 O753 1.235 . S
Fe770 O772 1.918 . S
Fe770 O775 1.997 . S
Fe770 O776 2.002 . S
Fe770 O781 1.976 . S
Fe770 O784 1.996 . S
Fe771 O772 1.918 . S
Fe771 O779 1.997 . S
Fe771 O782 1.996 . S
Fe771 O786 1.976 . S
Fe771 O789 2.002 . S
O772 Fe770 1.918 . S
O772 Fe771 1.918 . S
O772 Fe773 1.918 . S
Fe773 O772 1.918 . S
Fe773 O774 2.002 . S
Fe773 O783 1.976 . S
Fe773 O787 1.996 . S
Fe773 O790 1.997 . S
O774 Fe773 2.002 . S
O774 C791 1.295 . S
O775 Fe770 1.997 . S
O775 C791 1.235 . S
O776 Fe770 2.002 . S
O776 C777 1.295 . S
C777 O776 1.295 . S
C777 O779 1.235 . S
C778 O783 1.287 . S
C778 O784 1.255 . S
O779 Fe771 1.997 . S
O779 C777 1.235 . S
C780 O786 1.287 . S
C780 O787 1.255 . S
O781 Fe770 1.976 . S
O781 C788 1.287 . S
O782 Fe771 1.996 . S
O782 C788 1.255 . S
O783 Fe773 1.976 . S
O783 C778 1.287 . S
O784 Fe770 1.996 . S
O784 C778 1.255 . S
C785 O789 1.295 . S
C785 O790 1.235 . S
O786 Fe771 1.976 . S
O786 C780 1.287 . S
O787 Fe773 1.996 . S
O787 C780 1.255 . S
C788 O781 1.287 . S
C788 O782 1.255 . S
O789 Fe771 2.002 . S
O789 C785 1.295 . S
O790 Fe773 1.997 . S
O790 C785 1.235 . S
C791 O774 1.295 . S
C791 O775 1.235 . S
Fe792 O794 1.918 . S
Fe792 O797 1.997 . S
Fe792 O798 2.002 . S
Fe792 O803 1.976 . S
Fe792 O806 1.996 . S
Fe793 O794 1.918 . S
Fe793 O801 1.997 . S
Fe793 O804 1.996 . S
Fe793 O808 1.976 . S
Fe793 O811 2.002 . S
O794 Fe792 1.918 . S
O794 Fe793 1.918 . S
O794 Fe795 1.918 . S
Fe795 O794 1.918 . S
Fe795 O796 2.002 . S
Fe795 O805 1.976 . S
Fe795 O809 1.996 . S
Fe795 O812 1.997 . S
O796 Fe795 2.002 . S
O796 C813 1.295 . S
O797 Fe792 1.997 . S
O797 C813 1.235 . S
O798 Fe792 2.002 . S
O798 C799 1.295 . S
C799 O798 1.295 . S
C799 O801 1.235 . S
C800 O805 1.287 . S
C800 O806 1.255 . S
O801 Fe793 1.997 . S
O801 C799 1.235 . S
C802 O808 1.287 . S
C802 O809 1.255 . S
O803 Fe792 1.976 . S
O803 C810 1.287 . S
O804 Fe793 1.996 . S
O804 C810 1.255 . S
O805 Fe795 1.976 . S
O805 C800 1.287 . S
O806 Fe792 1.996 . S
O806 C800 1.255 . S
C807 O811 1.295 . S
C807 O812 1.235 . S
O808 Fe793 1.976 . S
O808 C802 1.287 . S
O809 Fe795 1.996 . S
O809 C802 1.255 . S
C810 O803 1.287 . S
C810 O804 1.255 . S
O811 Fe793 2.002 . S
O811 C807 1.295 . S
O812 Fe795 1.997 . S
O812 C807 1.235 . S
C813 O796 1.295 . S
C813 O797 1.235 . S
Fe814 O816 1.918 . S
Fe814 O819 1.997 . S
Fe814 O820 2.002 . S
Fe814 O825 1.976 . S
Fe814 O828 1.996 . S
Fe815 O816 1.918 . S
Fe815 O823 1.997 . S
Fe815 O826 1.996 . S
Fe815 O830 1.976 . S
Fe815 O833 2.002 . S
O816 Fe814 1.918 . S
O816 Fe815 1.918 . S
O816 Fe817 1.918 . S
Fe817 O816 1.918 . S
Fe817 O818 2.002 . S
Fe817 O827 1.976 . S
Fe817 O831 1.996 . S
Fe817 O834 1.997 . S
O818 Fe817 2.002 . S
O818 C835 1.295 . S
O819 Fe814 1.997 . S
O819 C835 1.235 . S
O820 Fe814 2.002 . S
O820 C821 1.295 . S
C821 O820 1.295 . S
C821 O823 1.235 . S
C822 O827 1.287 . S
C822 O828 1.255 . S
O823 Fe815 1.997 . S
O823 C821 1.235 . S
C824 O830 1.287 . S
C824 O831 1.255 . S
O825 Fe814 1.976 . S
O825 C832 1.287 . S
O826 Fe815 1.996 . S
O826 C832 1.255 . S
O827 Fe817 1.976 . S
O827 C822 1.287 . S
O828 Fe814 1.996 . S
O828 C822 1.255 . S
C829 O833 1.295 . S
C829 O834 1.235 . S
O830 Fe815 1.976 . S
O830 C824 1.287 . S
O831 Fe817 1.996 . S
O831 C824 1.255 . S
C832 O825 1.287 . S
C832 O826 1.255 . S
O833 Fe815 2.002 . S
O833 C829 1.295 . S
O834 Fe817 1.997 . S
O834 C829 1.235 . S
C835 O818 1.295 . S
C835 O819 1.235 . S
Fe836 O838 1.918 . S
Fe836 O841 1.997 . S
Fe836 O842 2.002 . S
Fe836 O847 1.976 . S
Fe836 O850 1.996 . S
Fe837 O838 1.918 . S
Fe837 O845 1.997 . S
Fe837 O848 1.996 . S
Fe837 O852 1.976 . S
Fe837 O855 2.002 . S
O838 Fe836 1.918 . S
O838 Fe837 1.918 . S
O838 Fe839 1.918 . S
Fe839 O838 1.918 . S
Fe839 O840 2.002 . S
Fe839 O849 1.976 . S
Fe839 O853 1.996 . S
Fe839 O856 1.997 . S
O840 Fe839 2.002 . S
O840 C857 1.295 . S
O841 Fe836 1.997 . S
O841 C857 1.235 . S
O842 Fe836 2.002 . S
O842 C843 1.295 . S
C843 O842 1.295 . S
C843 O845 1.235 . S
C844 O849 1.287 . S
C844 O850 1.255 . S
O845 Fe837 1.997 . S
O845 C843 1.235 . S
C846 O852 1.287 . S
C846 O853 1.255 . S
O847 Fe836 1.976 . S
O847 C854 1.287 . S
O848 Fe837 1.996 . S
O848 C854 1.255 . S
O849 Fe839 1.976 . S
O849 C844 1.287 . S
O850 Fe836 1.996 . S
O850 C844 1.255 . S
C851 O855 1.295 . S
C851 O856 1.235 . S
O852 Fe837 1.976 . S
O852 C846 1.287 . S
O853 Fe839 1.996 . S
O853 C846 1.255 . S
C854 O847 1.287 . S
C854 O848 1.255 . S
O855 Fe837 2.002 . S
O855 C851 1.295 . S
O856 Fe839 1.997 . S
O856 C851 1.235 . S
C857 O840 1.295 . S
C857 O841 1.235 . S
Fe858 O860 1.918 . S
Fe858 O863 1.997 . S
Fe858 O864 2.002 . S
Fe858 O869 1.976 . S
Fe858 O872 1.996 . S
Fe859 O860 1.918 . S
Fe859 O867 1.997 . S
Fe859 O870 1.996 . S
Fe859 O874 1.976 . S
Fe859 O877 2.002 . S
O860 Fe858 1.918 . S
O860 Fe859 1.918 . S
O860 Fe861 1.918 . S
Fe861 O860 1.918 . S
Fe861 O862 2.002 . S
Fe861 O871 1.976 . S
Fe861 O875 1.996 . S
Fe861 O878 1.997 . S
O862 Fe861 2.002 . S
O862 C879 1.295 . S
O863 Fe858 1.997 . S
O863 C879 1.235 . S
O864 Fe858 2.002 . S
O864 C865 1.295 . S
C865 O864 1.295 . S
C865 O867 1.235 . S
C866 O871 1.287 . S
C866 O872 1.255 . S
O867 Fe859 1.997 . S
O867 C865 1.235 . S
C868 O874 1.287 . S
C868 O875 1.255 . S
O869 Fe858 1.976 . S
O869 C876 1.287 . S
O870 Fe859 1.996 . S
O870 C876 1.255 . S
O871 Fe861 1.976 . S
O871 C866 1.287 . S
O872 Fe858 1.996 . S
O872 C866 1.255 . S
C873 O877 1.295 . S
C873 O878 1.235 . S
O874 Fe859 1.976 . S
O874 C868 1.287 . S
O875 Fe861 1.996 . S
O875 C868 1.255 . S
C876 O869 1.287 . S
C876 O870 1.255 . S
O877 Fe859 2.002 . S
O877 C873 1.295 . S
O878 Fe861 1.997 . S
O878 C873 1.235 . S
C879 O862 1.295 . S
C879 O863 1.235 . S
Fe880 O882 1.918 . S
Fe880 O885 1.997 . S
Fe880 O886 2.002 . S
Fe880 O891 1.976 . S
Fe880 O894 1.996 . S
Fe881 O882 1.918 . S
Fe881 O889 1.997 . S
Fe881 O892 1.996 . S
Fe881 O896 1.976 . S
Fe881 O899 2.002 . S
O882 Fe880 1.918 . S
O882 Fe881 1.918 . S
O882 Fe883 1.918 . S
Fe883 O882 1.918 . S
Fe883 O884 2.002 . S
Fe883 O893 1.976 . S
Fe883 O897 1.996 . S
Fe883 O900 1.997 . S
O884 Fe883 2.002 . S
O884 C901 1.295 . S
O885 Fe880 1.997 . S
O885 C901 1.235 . S
O886 Fe880 2.002 . S
O886 C887 1.295 . S
C887 O886 1.295 . S
C887 O889 1.235 . S
C888 O893 1.287 . S
C888 O894 1.255 . S
O889 Fe881 1.997 . S
O889 C887 1.235 . S
C890 O896 1.287 . S
C890 O897 1.255 . S
O891 Fe880 1.976 . S
O891 C898 1.287 . S
O892 Fe881 1.996 . S
O892 C898 1.255 . S
O893 Fe883 1.976 . S
O893 C888 1.287 . S
O894 Fe880 1.996 . S
O894 C888 1.255 . S
C895 O899 1.295 . S
C895 O900 1.235 . S
O896 Fe881 1.976 . S
O896 C890 1.287 . S
O897 Fe883 1.996 . S
O897 C890 1.255 . S
C898 O891 1.287 . S
C898 O892 1.255 . S
O899 Fe881 2.002 . S
O899 C895 1.295 . S
O900 Fe883 1.997 . S
O900 C895 1.235 . S
C901 O884 1.295 . S
C901 O885 1.235 . S
Fe902 O904 1.918 . S
Fe902 O907 1.997 . S
Fe902 O908 2.002 . S
Fe902 O913 1.976 . S
Fe902 O916 1.996 . S
Fe903 O904 1.918 . S
Fe903 O911 1.997 . S
Fe903 O914 1.996 . S
Fe903 O918 1.976 . S
Fe903 O921 2.002 . S
O904 Fe902 1.918 . S
O904 Fe903 1.918 . S
O904 Fe905 1.918 . S
Fe905 O904 1.918 . S
Fe905 O906 2.002 . S
Fe905 O915 1.976 . S
Fe905 O919 1.996 . S
Fe905 O922 1.997 . S
O906 Fe905 2.002 . S
O906 C923 1.295 . S
O907 Fe902 1.997 . S
O907 C923 1.235 . S
O908 Fe902 2.002 . S
O908 C909 1.295 . S
C909 O908 1.295 . S
C909 O911 1.235 . S
C910 O915 1.287 . S
C910 O916 1.255 . S
O911 Fe903 1.997 . S
O911 C909 1.235 . S
C912 O918 1.287 . S
C912 O919 1.255 . S
O913 Fe902 1.976 . S
O913 C920 1.287 . S
O914 Fe903 1.996 . S
O914 C920 1.255 . S
O915 Fe905 1.976 . S
O915 C910 1.287 . S
O916 Fe902 1.996 . S
O916 C910 1.255 . S
C917 O921 1.295 . S
C917 O922 1.235 . S
O918 Fe903 1.976 . S
O918 C912 1.287 . S
O919 Fe905 1.996 . S
O919 C912 1.255 . S
C920 O913 1.287 . S
C920 O914 1.255 . S
O921 Fe903 2.002 . S
O921 C917 1.295 . S
O922 Fe905 1.997 . S
O922 C917 1.235 . S
C923 O906 1.295 . S
C923 O907 1.235 . S
Fe924 O926 1.918 . S
Fe924 O929 1.997 . S
Fe924 O930 2.002 . S
Fe924 O935 1.976 . S
Fe924 O938 1.996 . S
Fe925 O926 1.918 . S
Fe925 O933 1.997 . S
Fe925 O936 1.996 . S
Fe925 O940 1.976 . S
Fe925 O943 2.002 . S
O926 Fe924 1.918 . S
O926 Fe925 1.918 . S
O926 Fe927 1.918 . S
Fe927 O926 1.918 . S
Fe927 O928 2.002 . S
Fe927 O937 1.976 . S
Fe927 O941 1.996 . S
Fe927 O944 1.997 . S
O928 Fe927 2.002 . S
O928 C945 1.295 . S
O929 Fe924 1.997 . S
O929 C945 1.235 . S
O930 Fe924 2.002 . S
O930 C931 1.295 . S
C931 O930 1.295 . S
C931 O933 1.235 . S
C932 O937 1.287 . S
C932 O938 1.255 . S
O933 Fe925 1.997 . S
O933 C931 1.235 . S
C934 O940 1.287 . S
C934 O941 1.255 . S
O935 Fe924 1.976 . S
O935 C942 1.287 . S
O936 Fe925 1.996 . S
O936 C942 1.255 . S
O937 Fe927 1.976 . S
O937 C932 1.287 . S
O938 Fe924 1.996 . S
O938 C932 1.255 . S
C939 O943 1.295 . S
C939 O944 1.235 . S
O940 Fe925 1.976 . S
O940 C934 1.287 . S
O941 Fe927 1.996 . S
O941 C934 1.255 . S
C942 O935 1.287 . S
C942 O936 1.255 . S
O943 Fe925 2.002 . S
O943 C939 1.295 . S
O944 Fe927 1.997 . S
O944 C939 1.235 . S
C945 O928 1.295 . S
C945 O929 1.235 . S
Fe946 O948 1.918 . S
Fe946 O951 1.997 . S
Fe946 O952 2.002 . S
Fe946 O957 1.976 . S
Fe946 O960 1.996 . S
Fe947 O948 1.918 . S
Fe947 O955 1.997 . S
Fe947 O958 1.996 . S
Fe947 O962 1.976 . S
Fe947 O965 2.002 . S
O948 Fe946 1.918 . S
O948 Fe947 1.918 . S
O948 Fe949 1.918 . S
Fe949 O948 1.918 . S
Fe949 O950 2.002 . S
Fe949 O959 1.976 . S
Fe949 O963 1.996 . S
Fe949 O966 1.997 . S
O950 Fe949 2.002 . S
O950 C967 1.295 . S
O951 Fe946 1.997 . S
O951 C967 1.235 . S
O952 Fe946 2.002 . S
O952 C953 1.295 . S
C953 O952 1.295 . S
C953 O955 1.235 . S
C954 O959 1.287 . S
C954 O960 1.255 . S
O955 Fe947 1.997 . S
O955 C953 1.235 . S
C956 O962 1.287 . S
C956 O963 1.255 . S
O957 Fe946 1.976 . S
O957 C964 1.287 . S
O958 Fe947 1.996 . S
O958 C964 1.255 . S
O959 Fe949 1.976 . S
O959 C954 1.287 . S
O960 Fe946 1.996 . S
O960 C954 1.255 . S
C961 O965 1.295 . S
C961 O966 1.235 . S
O962 Fe947 1.976 . S
O962 C956 1.287 . S
O963 Fe949 1.996 . S
O963 C956 1.255 . S
C964 O957 1.287 . S
C964 O958 1.255 . S
O965 Fe947 2.002 . S
O965 C961 1.295 . S
O966 Fe949 1.997 . S
O966 C961 1.235 . S
C967 O950 1.295 . S
C967 O951 1.235 . S
Fe968 O970 1.918 . S
Fe968 O973 1.997 . S
Fe968 O974 2.002 . S
Fe968 O979 1.976 . S
Fe968 O982 1.996 . S
Fe969 O970 1.918 . S
Fe969 O977 1.997 . S
Fe969 O980 1.996 . S
Fe969 O984 1.976 . S
Fe969 O987 2.002 . S
O970 Fe968 1.918 . S
O970 Fe969 1.918 . S
O970 Fe971 1.918 . S
Fe971 O970 1.918 . S
Fe971 O972 2.002 . S
Fe971 O981 1.976 . S
Fe971 O985 1.996 . S
Fe971 O988 1.997 . S
O972 Fe971 2.002 . S
O972 C989 1.295 . S
O973 Fe968 1.997 . S
O973 C989 1.235 . S
O974 Fe968 2.002 . S
O974 C975 1.295 . S
C975 O974 1.295 . S
C975 O977 1.235 . S
C976 O981 1.287 . S
C976 O982 1.255 . S
O977 Fe969 1.997 . S
O977 C975 1.235 . S
C978 O984 1.287 . S
C978 O985 1.255 . S
O979 Fe968 1.976 . S
O979 C986 1.287 . S
O980 Fe969 1.996 . S
O980 C986 1.255 . S
O981 Fe971 1.976 . S
O981 C976 1.287 . S
O982 Fe968 1.996 . S
O982 C976 1.255 . S
C983 O987 1.295 . S
C983 O988 1.235 . S
O984 Fe969 1.976 . S
O984 C978 1.287 . S
O985 Fe971 1.996 . S
O985 C978 1.255 . S
C986 O979 1.287 . S
C986 O980 1.255 . S
O987 Fe969 2.002 . S
O987 C983 1.295 . S
O988 Fe971 1.997 . S
O988 C983 1.235 . S
C989 O972 1.295 . S
C989 O973 1.235 . S
Fe990 O992 1.918 . S
Fe990 O995 1.997 . S
Fe990 O996 2.002 . S
Fe990 O1001 1.976 . S
Fe990 O1004 1.996 . S
Fe991 O992 1.918 . S
Fe991 O999 1.997 . S
Fe991 O1002 1.996 . S
Fe991 O1006 1.976 . S
Fe991 O1009 2.002 . S
O992 Fe990 1.918 . S
O992 Fe991 1.918 . S
O992 Fe993 1.918 . S
Fe993 O992 1.918 . S
Fe993 O994 2.002 . S
Fe993 O1003 1.976 . S
Fe993 O1007 1.996 . S
Fe993 O1010 1.997 . S
O994 Fe993 2.002 . S
O994 C1011 1.295 . S
O995 Fe990 1.997 . S
O995 C1011 1.235 . S
O996 Fe990 2.002 . S
O996 C997 1.295 . S
C997 O996 1.295 . S
C997 O999 1.235 . S
C998 O1003 1.287 . S
C998 O1004 1.255 . S
O999 Fe991 1.997 . S
O999 C997 1.235 . S
C1000 O1006 1.287 . S
C1000 O1007 1.255 . S
O1001 Fe990 1.976 . S
O1001 C1008 1.287 . S
O1002 Fe991 1.996 . S
O1002 C1008 1.255 . S
O1003 Fe993 1.976 . S
O1003 C998 1.287 . S
O1004 Fe990 1.996 . S
O1004 C998 1.255 . S
C1005 O1009 1.295 . S
C1005 O1010 1.235 . S
O1006 Fe991 1.976 . S
O1006 C1000 1.287 . S
O1007 Fe993 1.996 . S
O1007 C1000 1.255 . S
C1008 O1001 1.287 . S
C1008 O1002 1.255 . S
O1009 Fe991 2.002 . S
O1009 C1005 1.295 . S
O1010 Fe993 1.997 . S
O1010 C1005 1.235 . S
C1011 O994 1.295 . S
C1011 O995 1.235 . S
Fe1012 O1014 1.918 . S
Fe1012 O1017 1.997 . S
Fe1012 O1018 2.002 . S
Fe1012 O1023 1.976 . S
Fe1012 O1026 1.996 . S
Fe1013 O1014 1.918 . S
Fe1013 O1021 1.997 . S
Fe1013 O1024 1.996 . S
Fe1013 O1028 1.976 . S
Fe1013 O1031 2.002 . S
O1014 Fe1012 1.918 . S
O1014 Fe1013 1.918 . S
O1014 Fe1015 1.918 . S
Fe1015 O1014 1.918 . S
Fe1015 O1016 2.002 . S
Fe1015 O1025 1.976 . S
Fe1015 O1029 1.996 . S
Fe1015 O1032 1.997 . S
O1016 Fe1015 2.002 . S
O1016 C1033 1.295 . S
O1017 Fe1012 1.997 . S
O1017 C1033 1.235 . S
O1018 Fe1012 2.002 . S
O1018 C1019 1.295 . S
C1019 O1018 1.295 . S
C1019 O1021 1.235 . S
C1020 O1025 1.287 . S
C1020 O1026 1.255 . S
O1021 Fe1013 1.997 . S
O1021 C1019 1.235 . S
C1022 O1028 1.287 . S
C1022 O1029 1.255 . S
O1023 Fe1012 1.976 . S
O1023 C1030 1.287 . S
O1024 Fe1013 1.996 . S
O1024 C1030 1.255 . S
O1025 Fe1015 1.976 . S
O1025 C1020 1.287 . S
O1026 Fe1012 1.996 . S
O1026 C1020 1.255 . S
C1027 O1031 1.295 . S
C1027 O1032 1.235 . S
O1028 Fe1013 1.976 . S
O1028 C1022 1.287 . S
O1029 Fe1015 1.996 . S
O1029 C1022 1.255 . S
C1030 O1023 1.287 . S
C1030 O1024 1.255 . S
O1031 Fe1013 2.002 . S
O1031 C1027 1.295 . S
O1032 Fe1015 1.997 . S
O1032 C1027 1.235 . S
C1033 O1016 1.295 . S
C1033 O1017 1.235 . S
Fe1034 O1036 1.918 . S
Fe1034 O1039 1.997 . S
Fe1034 O1040 2.002 . S
Fe1034 O1045 1.976 . S
Fe1034 O1048 1.996 . S
Fe1035 O1036 1.918 . S
Fe1035 O1043 1.997 . S
Fe1035 O1046 1.996 . S
Fe1035 O1050 1.976 . S
Fe1035 O1053 2.002 . S
O1036 Fe1034 1.918 . S
O1036 Fe1035 1.918 . S
O1036 Fe1037 1.918 . S
Fe1037 O1036 1.918 . S
Fe1037 O1038 2.002 . S
Fe1037 O1047 1.976 . S
Fe1037 O1051 1.996 . S
Fe1037 O1054 1.997 . S
O1038 Fe1037 2.002 . S
O1038 C1055 1.295 . S
O1039 Fe1034 1.997 . S
O1039 C1055 1.235 . S
O1040 Fe1034 2.002 . S
O1040 C1041 1.295 . S
C1041 O1040 1.295 . S
C1041 O1043 1.235 . S
C1042 O1047 1.287 . S
C1042 O1048 1.255 . S
O1043 Fe1035 1.997 . S
O1043 C1041 1.235 . S
C1044 O1050 1.287 . S
C1044 O1051 1.255 . S
O1045 Fe1034 1.976 . S
O1045 C1052 1.287 . S
O1046 Fe1035 1.996 . S
O1046 C1052 1.255 . S
O1047 Fe1037 1.976 . S
O1047 C1042 1.287 . S
O1048 Fe1034 1.996 . S
O1048 C1042 1.255 . S
C1049 O1053 1.295 . S
C1049 O1054 1.235 . S
O1050 Fe1035 1.976 . S
O1050 C1044 1.287 . S
O1051 Fe1037 1.996 . S
O1051 C1044 1.255 . S
C1052 O1045 1.287 . S
C1052 O1046 1.255 . S
O1053 Fe1035 2.002 . S
O1053 C1049 1.295 . S
O1054 Fe1037 1.997 . S
O1054 C1049 1.235 . S
C1055 O1038 1.295 . S
C1055 O1039 1.235 . S
H1056 C1062 0.930 . S
H1057 C1066 0.930 . S
H1058 C1071 0.929 . S
H1059 C1069 0.929 . S
H1060 C1064 0.929 . S
H1061 C1070 0.929 . S
C1062 H1056 0.930 . S
C1062 C1063 1.367 . S
C1062 C1070 1.378 . S
C1063 C1062 1.367 . S
C1063 C1071 1.433 . S
C1064 H1060 0.929 . S
C1064 C1066 1.378 . S
C1064 C1068 1.350 . S
C1065 C1068 1.463 1_545 S
C1065 C1070 1.350 . S
C1065 N1073 1.427 . S
C1066 H1057 0.930 . S
C1066 C1064 1.378 . S
C1066 C1067 1.367 . S
C1067 C1066 1.367 . S
C1067 C1069 1.433 . S
C1068 C1064 1.350 . S
C1068 C1065 1.463 1_565 S
C1068 N1072 1.427 . S
C1069 H1059 0.929 . S
C1069 C1067 1.433 . S
C1069 N1072 1.384 . S
C1070 H1061 0.929 . S
C1070 C1062 1.378 . S
C1070 C1065 1.350 . S
C1071 H1058 0.929 . S
C1071 C1063 1.433 . S
C1071 N1073 1.384 . S
N1072 C1068 1.427 . S
N1072 C1069 1.384 . S
N1073 C1065 1.427 . S
N1073 C1071 1.384 . S
H1074 C1080 0.930 . S
H1075 C1084 0.930 . S
H1076 C1089 0.929 . S
H1077 C1087 0.929 . S
H1078 C1082 0.929 . S
H1079 C1088 0.929 . S
C1080 H1074 0.930 . S
C1080 C1081 1.367 . S
C1080 C1088 1.378 . S
C1081 C1080 1.367 . S
C1081 C1089 1.433 . S
C1082 H1078 0.929 . S
C1082 C1084 1.378 . S
C1082 C1086 1.350 . S
C1083 C1086 1.463 1_455 S
C1083 C1088 1.350 . S
C1083 N1091 1.427 . S
C1084 H1075 0.930 . S
C1084 C1082 1.378 . S
C1084 C1085 1.367 . S
C1085 C1084 1.367 . S
C1085 C1087 1.433 . S
C1086 C1082 1.350 . S
C1086 C1083 1.463 1_655 S
C1086 N1090 1.427 . S
C1087 H1077 0.929 . S
C1087 C1085 1.433 . S
C1087 N1090 1.384 . S
C1088 H1079 0.929 . S
C1088 C1080 1.378 . S
C1088 C1083 1.350 . S
C1089 H1076 0.929 . S
C1089 C1081 1.433 . S
C1089 N1091 1.384 . S
N1090 C1086 1.427 . S
N1090 C1087 1.384 . S
N1091 C1083 1.427 . S
N1091 C1089 1.384 . S
H1092 C1098 0.930 . S
H1093 C1102 0.930 . S
H1094 C1107 0.929 . S
H1095 C1105 0.929 . S
H1096 C1100 0.929 . S
H1097 C1106 0.929 . S
C1098 H1092 0.930 . S
C1098 C1099 1.367 . S
C1098 C1106 1.378 . S
C1099 C1098 1.367 . S
C1099 C1107 1.433 . S
C1100 H1096 0.929 . S
C1100 C1102 1.378 . S
C1100 C1104 1.350 . S
C1101 C1104 1.463 1_545 S
C1101 C1106 1.350 . S
C1101 N1109 1.427 . S
C1102 H1093 0.930 . S
C1102 C1100 1.378 . S
C1102 C1103 1.367 . S
C1103 C1102 1.367 . S
C1103 C1105 1.433 . S
C1104 C1100 1.350 . S
C1104 C1101 1.463 1_565 S
C1104 N1108 1.427 . S
C1105 H1095 0.929 . S
C1105 C1103 1.433 . S
C1105 N1108 1.384 . S
C1106 H1097 0.929 . S
C1106 C1098 1.378 . S
C1106 C1101 1.350 . S
C1107 H1094 0.929 . S
C1107 C1099 1.433 . S
C1107 N1109 1.384 . S
N1108 C1104 1.427 . S
N1108 C1105 1.384 . S
N1109 C1101 1.427 . S
N1109 C1107 1.384 . S
H1110 C1116 0.930 . S
H1111 C1120 0.930 . S
H1112 C1125 0.929 . S
H1113 C1123 0.929 . S
H1114 C1118 0.929 . S
H1115 C1124 0.929 . S
C1116 H1110 0.930 . S
C1116 C1117 1.367 . S
C1116 C1124 1.378 . S
C1117 C1116 1.367 . S
C1117 C1125 1.433 . S
C1118 H1114 0.929 . S
C1118 C1120 1.378 . S
C1118 C1122 1.350 . S
C1119 C1122 1.463 1_655 S
C1119 C1124 1.350 . S
C1119 N1127 1.427 . S
C1120 H1111 0.930 . S
C1120 C1118 1.378 . S
C1120 C1121 1.367 . S
C1121 C1120 1.367 . S
C1121 C1123 1.433 . S
C1122 C1118 1.350 . S
C1122 C1119 1.463 1_455 S
C1122 N1126 1.427 . S
C1123 H1113 0.929 . S
C1123 C1121 1.433 . S
C1123 N1126 1.384 . S
C1124 H1115 0.929 . S
C1124 C1116 1.378 . S
C1124 C1119 1.350 . S
C1125 H1112 0.929 . S
C1125 C1117 1.433 . S
C1125 N1127 1.384 . S
N1126 C1122 1.427 . S
N1126 C1123 1.384 . S
N1127 C1119 1.427 . S
N1127 C1125 1.384 . S
H1128 C1134 0.930 . S
H1129 C1138 0.930 . S
H1130 C1143 0.929 . S
H1131 C1141 0.929 . S
H1132 C1136 0.929 . S
H1133 C1142 0.929 . S
C1134 H1128 0.930 . S
C1134 C1135 1.367 . S
C1134 C1142 1.378 . S
C1135 C1134 1.367 . S
C1135 C1143 1.433 . S
C1136 H1132 0.929 . S
C1136 C1138 1.378 . S
C1136 C1140 1.350 . S
C1137 C1140 1.463 1_565 S
C1137 C1142 1.350 . S
C1137 N1145 1.427 . S
C1138 H1129 0.930 . S
C1138 C1136 1.378 . S
C1138 C1139 1.367 . S
C1139 C1138 1.367 . S
C1139 C1141 1.433 . S
C1140 C1136 1.350 . S
C1140 C1137 1.463 1_545 S
C1140 N1144 1.427 . S
C1141 H1131 0.929 . S
C1141 C1139 1.433 . S
C1141 N1144 1.384 . S
C1142 H1133 0.929 . S
C1142 C1134 1.378 . S
C1142 C1137 1.350 . S
C1143 H1130 0.929 . S
C1143 C1135 1.433 . S
C1143 N1145 1.384 . S
N1144 C1140 1.427 . S
N1144 C1141 1.384 . S
N1145 C1137 1.427 . S
N1145 C1143 1.384 . S
H1146 C1152 0.930 . S
H1147 C1156 0.930 . S
H1148 C1161 0.929 . S
H1149 C1159 0.929 . S
H1150 C1154 0.929 . S
H1151 C1160 0.929 . S
C1152 H1146 0.930 . S
C1152 C1153 1.367 . S
C1152 C1160 1.378 . S
C1153 C1152 1.367 . S
C1153 C1161 1.433 . S
C1154 H1150 0.929 . S
C1154 C1156 1.378 . S
C1154 C1158 1.350 . S
C1155 C1158 1.463 1_455 S
C1155 C1160 1.350 . S
C1155 N1163 1.427 . S
C1156 H1147 0.930 . S
C1156 C1154 1.378 . S
C1156 C1157 1.367 . S
C1157 C1156 1.367 . S
C1157 C1159 1.433 . S
C1158 C1154 1.350 . S
C1158 C1155 1.463 1_655 S
C1158 N1162 1.427 . S
C1159 H1149 0.929 . S
C1159 C1157 1.433 . S
C1159 N1162 1.384 . S
C1160 H1151 0.929 . S
C1160 C1152 1.378 . S
C1160 C1155 1.350 . S
C1161 H1148 0.929 . S
C1161 C1153 1.433 . S
C1161 N1163 1.384 . S
N1162 C1158 1.427 . S
N1162 C1159 1.384 . S
N1163 C1155 1.427 . S
N1163 C1161 1.384 . S
H1164 C1170 0.930 . S
H1165 C1174 0.930 . S
H1166 C1179 0.929 . S
H1167 C1177 0.929 . S
H1168 C1172 0.929 . S
H1169 C1178 0.929 . S
C1170 H1164 0.930 . S
C1170 C1171 1.367 . S
C1170 C1178 1.378 . S
C1171 C1170 1.367 . S
C1171 C1179 1.433 . S
C1172 H1168 0.929 . S
C1172 C1174 1.378 . S
C1172 C1176 1.350 . S
C1173 C1176 1.463 1_545 S
C1173 C1178 1.350 . S
C1173 N1181 1.427 . S
C1174 H1165 0.930 . S
C1174 C1172 1.378 . S
C1174 C1175 1.367 . S
C1175 C1174 1.367 . S
C1175 C1177 1.433 . S
C1176 C1172 1.350 . S
C1176 C1173 1.463 1_565 S
C1176 N1180 1.427 . S
C1177 H1167 0.929 . S
C1177 C1175 1.433 . S
C1177 N1180 1.384 . S
C1178 H1169 0.929 . S
C1178 C1170 1.378 . S
C1178 C1173 1.350 . S
C1179 H1166 0.929 . S
C1179 C1171 1.433 . S
C1179 N1181 1.384 . S
N1180 C1176 1.427 . S
N1180 C1177 1.384 . S
N1181 C1173 1.427 . S
N1181 C1179 1.384 . S
H1182 C1188 0.930 . S
H1183 C1192 0.930 . S
H1184 C1197 0.929 . S
H1185 C1195 0.929 . S
H1186 C1190 0.929 . S
H1187 C1196 0.929 . S
C1188 H1182 0.930 . S
C1188 C1189 1.367 . S
C1188 C1196 1.378 . S
C1189 C1188 1.367 . S
C1189 C1197 1.433 . S
C1190 H1186 0.929 . S
C1190 C1192 1.378 . S
C1190 C1194 1.350 . S
C1191 C1194 1.463 1_655 S
C1191 C1196 1.350 . S
C1191 N1199 1.427 . S
C1192 H1183 0.930 . S
C1192 C1190 1.378 . S
C1192 C1193 1.367 . S
C1193 C1192 1.367 . S
C1193 C1195 1.433 . S
C1194 C1190 1.350 . S
C1194 C1191 1.463 1_455 S
C1194 N1198 1.427 . S
C1195 H1185 0.929 . S
C1195 C1193 1.433 . S
C1195 N1198 1.384 . S
C1196 H1187 0.929 . S
C1196 C1188 1.378 . S
C1196 C1191 1.350 . S
C1197 H1184 0.929 . S
C1197 C1189 1.433 . S
C1197 N1199 1.384 . S
N1198 C1194 1.427 . S
N1198 C1195 1.384 . S
N1199 C1191 1.427 . S
N1199 C1197 1.384 . S
H1200 C1206 0.930 . S
H1201 C1210 0.930 . S
H1202 C1215 0.929 . S
H1203 C1213 0.929 . S
H1204 C1208 0.929 . S
H1205 C1214 0.929 . S
C1206 H1200 0.930 . S
C1206 C1207 1.367 . S
C1206 C1214 1.378 . S
C1207 C1206 1.367 . S
C1207 C1215 1.433 . S
C1208 H1204 0.929 . S
C1208 C1210 1.378 . S
C1208 C1212 1.350 . S
C1209 C1212 1.463 1_554 S
C1209 C1214 1.350 . S
C1209 N1217 1.427 . S
C1210 H1201 0.930 . S
C1210 C1208 1.378 . S
C1210 C1211 1.367 . S
C1211 C1210 1.367 . S
C1211 C1213 1.433 . S
C1212 C1208 1.350 . S
C1212 C1209 1.463 1_556 S
C1212 N1216 1.427 . S
C1213 H1203 0.929 . S
C1213 C1211 1.433 . S
C1213 N1216 1.384 . S
C1214 H1205 0.929 . S
C1214 C1206 1.378 . S
C1214 C1209 1.350 . S
C1215 H1202 0.929 . S
C1215 C1207 1.433 . S
C1215 N1217 1.384 . S
N1216 C1212 1.427 . S
N1216 C1213 1.384 . S
N1217 C1209 1.427 . S
N1217 C1215 1.384 . S
H1218 C1224 0.930 . S
H1219 C1228 0.930 . S
H1220 C1233 0.929 . S
H1221 C1231 0.929 . S
H1222 C1226 0.929 . S
H1223 C1232 0.929 . S
C1224 H1218 0.930 . S
C1224 C1225 1.367 . S
C1224 C1232 1.378 . S
C1225 C1224 1.367 . S
C1225 C1233 1.433 . S
C1226 H1222 0.929 . S
C1226 C1228 1.378 . S
C1226 C1230 1.350 . S
C1227 C1230 1.463 1_556 S
C1227 C1232 1.350 . S
C1227 N1235 1.427 . S
C1228 H1219 0.930 . S
C1228 C1226 1.378 . S
C1228 C1229 1.367 . S
C1229 C1228 1.367 . S
C1229 C1231 1.433 . S
C1230 C1226 1.350 . S
C1230 C1227 1.463 1_554 S
C1230 N1234 1.427 . S
C1231 H1221 0.929 . S
C1231 C1229 1.433 . S
C1231 N1234 1.384 . S
C1232 H1223 0.929 . S
C1232 C1224 1.378 . S
C1232 C1227 1.350 . S
C1233 H1220 0.929 . S
C1233 C1225 1.433 . S
C1233 N1235 1.384 . S
N1234 C1230 1.427 . S
N1234 C1231 1.384 . S
N1235 C1227 1.427 . S
N1235 C1233 1.384 . S
H1236 C1242 0.930 . S
H1237 C1246 0.930 . S
H1238 C1251 0.929 . S
H1239 C1249 0.929 . S
H1240 C1244 0.929 . S
H1241 C1250 0.929 . S
C1242 H1236 0.930 . S
C1242 C1243 1.367 . S
C1242 C1250 1.378 . S
C1243 C1242 1.367 . S
C1243 C1251 1.433 . S
C1244 H1240 0.929 . S
C1244 C1246 1.378 . S
C1244 C1248 1.350 . S
C1245 C1248 1.463 1_556 S
C1245 C1250 1.350 . S
C1245 N1253 1.427 . S
C1246 H1237 0.930 . S
C1246 C1244 1.378 . S
C1246 C1247 1.367 . S
C1247 C1246 1.367 . S
C1247 C1249 1.433 . S
C1248 C1244 1.350 . S
C1248 C1245 1.463 1_554 S
C1248 N1252 1.427 . S
C1249 H1239 0.929 . S
C1249 C1247 1.433 . S
C1249 N1252 1.384 . S
C1250 H1241 0.929 . S
C1250 C1242 1.378 . S
C1250 C1245 1.350 . S
C1251 H1238 0.929 . S
C1251 C1243 1.433 . S
C1251 N1253 1.384 . S
N1252 C1248 1.427 . S
N1252 C1249 1.384 . S
N1253 C1245 1.427 . S
N1253 C1251 1.384 . S
H1254 C1260 0.930 . S
H1255 C1264 0.930 . S
H1256 C1269 0.929 . S
H1257 C1267 0.929 . S
H1258 C1262 0.929 . S
H1259 C1268 0.929 . S
C1260 H1254 0.930 . S
C1260 C1261 1.367 . S
C1260 C1268 1.378 . S
C1261 C1260 1.367 . S
C1261 C1269 1.433 . S
C1262 H1258 0.929 . S
C1262 C1264 1.378 . S
C1262 C1266 1.350 . S
C1263 C1266 1.463 1_556 S
C1263 C1268 1.350 . S
C1263 N1271 1.427 . S
C1264 H1255 0.930 . S
C1264 C1262 1.378 . S
C1264 C1265 1.367 . S
C1265 C1264 1.367 . S
C1265 C1267 1.433 . S
C1266 C1262 1.350 . S
C1266 C1263 1.463 1_554 S
C1266 N1270 1.427 . S
C1267 H1257 0.929 . S
C1267 C1265 1.433 . S
C1267 N1270 1.384 . S
C1268 H1259 0.929 . S
C1268 C1260 1.378 . S
C1268 C1263 1.350 . S
C1269 H1256 0.929 . S
C1269 C1261 1.433 . S
C1269 N1271 1.384 . S
N1270 C1266 1.427 . S
N1270 C1267 1.384 . S
N1271 C1263 1.427 . S
N1271 C1269 1.384 . S
H1272 C1278 0.930 . S
H1273 C1282 0.930 . S
H1274 C1287 0.929 . S
H1275 C1285 0.929 . S
H1276 C1280 0.929 . S
H1277 C1286 0.929 . S
C1278 H1272 0.930 . S
C1278 C1279 1.367 . S
C1278 C1286 1.378 . S
C1279 C1278 1.367 . S
C1279 C1287 1.433 . S
C1280 H1276 0.929 . S
C1280 C1282 1.378 . S
C1280 C1284 1.350 . S
C1281 C1284 1.463 1_556 S
C1281 C1286 1.350 . S
C1281 N1289 1.427 . S
C1282 H1273 0.930 . S
C1282 C1280 1.378 . S
C1282 C1283 1.367 . S
C1283 C1282 1.367 . S
C1283 C1285 1.433 . S
C1284 C1280 1.350 . S
C1284 C1281 1.463 1_554 S
C1284 N1288 1.427 . S
C1285 H1275 0.929 . S
C1285 C1283 1.433 . S
C1285 N1288 1.384 . S
C1286 H1277 0.929 . S
C1286 C1278 1.378 . S
C1286 C1281 1.350 . S
C1287 H1274 0.929 . S
C1287 C1279 1.433 . S
C1287 N1289 1.384 . S
N1288 C1284 1.427 . S
N1288 C1285 1.384 . S
N1289 C1281 1.427 . S
N1289 C1287 1.384 . S
H1290 C1296 0.930 . S
H1291 C1300 0.930 . S
H1292 C1305 0.929 . S
H1293 C1303 0.929 . S
H1294 C1298 0.929 . S
H1295 C1304 0.929 . S
C1296 H1290 0.930 . S
C1296 C1297 1.367 . S
C1296 C1304 1.378 . S
C1297 C1296 1.367 . S
C1297 C1305 1.433 . S
C1298 H1294 0.929 . S
C1298 C1300 1.378 . S
C1298 C1302 1.350 . S
C1299 C1302 1.463 1_556 S
C1299 C1304 1.350 . S
C1299 N1307 1.427 . S
C1300 H1291 0.930 . S
C1300 C1298 1.378 . S
C1300 C1301 1.367 . S
C1301 C1300 1.367 . S
C1301 C1303 1.433 . S
C1302 C1298 1.350 . S
C1302 C1299 1.463 1_554 S
C1302 N1306 1.427 . S
C1303 H1293 0.929 . S
C1303 C1301 1.433 . S
C1303 N1306 1.384 . S
C1304 H1295 0.929 . S
C1304 C1296 1.378 . S
C1304 C1299 1.350 . S
C1305 H1292 0.929 . S
C1305 C1297 1.433 . S
C1305 N1307 1.384 . S
N1306 C1302 1.427 . S
N1306 C1303 1.384 . S
N1307 C1299 1.427 . S
N1307 C1305 1.384 . S
H1308 C1314 0.930 . S
H1309 C1318 0.930 . S
H1310 C1323 0.929 . S
H1311 C1321 0.929 . S
H1312 C1316 0.929 . S
H1313 C1322 0.929 . S
C1314 H1308 0.930 . S
C1314 C1315 1.367 . S
C1314 C1322 1.378 . S
C1315 C1314 1.367 . S
C1315 C1323 1.433 . S
C1316 H1312 0.929 . S
C1316 C1318 1.378 . S
C1316 C1320 1.350 . S
C1317 C1320 1.463 1_556 S
C1317 C1322 1.350 . S
C1317 N1325 1.427 . S
C1318 H1309 0.930 . S
C1318 C1316 1.378 . S
C1318 C1319 1.367 . S
C1319 C1318 1.367 . S
C1319 C1321 1.433 . S
C1320 C1316 1.350 . S
C1320 C1317 1.463 1_554 S
C1320 N1324 1.427 . S
C1321 H1311 0.929 . S
C1321 C1319 1.433 . S
C1321 N1324 1.384 . S
C1322 H1313 0.929 . S
C1322 C1314 1.378 . S
C1322 C1317 1.350 . S
C1323 H1310 0.929 . S
C1323 C1315 1.433 . S
C1323 N1325 1.384 . S
N1324 C1320 1.427 . S
N1324 C1321 1.384 . S
N1325 C1317 1.427 . S
N1325 C1323 1.384 . S
H1326 C1332 0.930 . S
H1327 C1336 0.930 . S
H1328 C1341 0.929 . S
H1329 C1339 0.929 . S
H1330 C1334 0.929 . S
H1331 C1340 0.929 . S
C1332 H1326 0.930 . S
C1332 C1333 1.367 . S
C1332 C1340 1.378 . S
C1333 C1332 1.367 . S
C1333 C1341 1.433 . S
C1334 H1330 0.929 . S
C1334 C1336 1.378 . S
C1334 C1338 1.350 . S
C1335 C1338 1.463 1_556 S
C1335 C1340 1.350 . S
C1335 N1343 1.427 . S
C1336 H1327 0.930 . S
C1336 C1334 1.378 . S
C1336 C1337 1.367 . S
C1337 C1336 1.367 . S
C1337 C1339 1.433 . S
C1338 C1334 1.350 . S
C1338 C1335 1.463 1_554 S
C1338 N1342 1.427 . S
C1339 H1329 0.929 . S
C1339 C1337 1.433 . S
C1339 N1342 1.384 . S
C1340 H1331 0.929 . S
C1340 C1332 1.378 . S
C1340 C1335 1.350 . S
C1341 H1328 0.929 . S
C1341 C1333 1.433 . S
C1341 N1343 1.384 . S
N1342 C1338 1.427 . S
N1342 C1339 1.384 . S
N1343 C1335 1.427 . S
N1343 C1341 1.384 . S
H1344 C1350 0.930 . S
H1345 C1354 0.930 . S
H1346 C1359 0.929 . S
H1347 C1357 0.929 . S
H1348 C1352 0.929 . S
H1349 C1358 0.929 . S
C1350 H1344 0.930 . S
C1350 C1351 1.367 . S
C1350 C1358 1.378 . S
C1351 C1350 1.367 . S
C1351 C1359 1.433 . S
C1352 H1348 0.929 . S
C1352 C1354 1.378 . S
C1352 C1356 1.350 . S
C1353 C1356 1.463 1_655 S
C1353 C1358 1.350 . S
C1353 N1361 1.427 . S
C1354 H1345 0.930 . S
C1354 C1352 1.378 . S
C1354 C1355 1.367 . S
C1355 C1354 1.367 . S
C1355 C1357 1.433 . S
C1356 C1352 1.350 . S
C1356 C1353 1.463 1_455 S
C1356 N1360 1.427 . S
C1357 H1347 0.929 . S
C1357 C1355 1.433 . S
C1357 N1360 1.384 . S
C1358 H1349 0.929 . S
C1358 C1350 1.378 . S
C1358 C1353 1.350 . S
C1359 H1346 0.929 . S
C1359 C1351 1.433 . S
C1359 N1361 1.384 . S
N1360 C1356 1.427 . S
N1360 C1357 1.384 . S
N1361 C1353 1.427 . S
N1361 C1359 1.384 . S
H1362 C1368 0.930 . S
H1363 C1372 0.930 . S
H1364 C1377 0.929 . S
H1365 C1375 0.929 . S
H1366 C1370 0.929 . S
H1367 C1376 0.929 . S
C1368 H1362 0.930 . S
C1368 C1369 1.367 . S
C1368 C1376 1.378 . S
C1369 C1368 1.367 . S
C1369 C1377 1.433 . S
C1370 H1366 0.929 . S
C1370 C1372 1.378 . S
C1370 C1374 1.350 . S
C1371 C1374 1.463 1_455 S
C1371 C1376 1.350 . S
C1371 N1379 1.427 . S
C1372 H1363 0.930 . S
C1372 C1370 1.378 . S
C1372 C1373 1.367 . S
C1373 C1372 1.367 . S
C1373 C1375 1.433 . S
C1374 C1370 1.350 . S
C1374 C1371 1.463 1_655 S
C1374 N1378 1.427 . S
C1375 H1365 0.929 . S
C1375 C1373 1.433 . S
C1375 N1378 1.384 . S
C1376 H1367 0.929 . S
C1376 C1368 1.378 . S
C1376 C1371 1.350 . S
C1377 H1364 0.929 . S
C1377 C1369 1.433 . S
C1377 N1379 1.384 . S
N1378 C1374 1.427 . S
N1378 C1375 1.384 . S
N1379 C1371 1.427 . S
N1379 C1377 1.384 . S
H1380 C1386 0.930 . S
H1381 C1390 0.930 . S
H1382 C1395 0.929 . S
H1383 C1393 0.929 . S
H1384 C1388 0.929 . S
H1385 C1394 0.929 . S
C1386 H1380 0.930 . S
C1386 C1387 1.367 . S
C1386 C1394 1.378 . S
C1387 C1386 1.367 . S
C1387 C1395 1.433 . S
C1388 H1384 0.929 . S
C1388 C1390 1.378 . S
C1388 C1392 1.350 . S
C1389 C1392 1.463 1_545 S
C1389 C1394 1.350 . S
C1389 N1397 1.427 . S
C1390 H1381 0.930 . S
C1390 C1388 1.378 . S
C1390 C1391 1.367 . S
C1391 C1390 1.367 . S
C1391 C1393 1.433 . S
C1392 C1388 1.350 . S
C1392 C1389 1.463 1_565 S
C1392 N1396 1.427 . S
C1393 H1383 0.929 . S
C1393 C1391 1.433 . S
C1393 N1396 1.384 . S
C1394 H1385 0.929 . S
C1394 C1386 1.378 . S
C1394 C1389 1.350 . S
C1395 H1382 0.929 . S
C1395 C1387 1.433 . S
C1395 N1397 1.384 . S
N1396 C1392 1.427 . S
N1396 C1393 1.384 . S
N1397 C1389 1.427 . S
N1397 C1395 1.384 . S
H1398 C1404 0.930 . S
H1399 C1408 0.930 . S
H1400 C1413 0.929 . S
H1401 C1411 0.929 . S
H1402 C1406 0.929 . S
H1403 C1412 0.929 . S
C1404 H1398 0.930 . S
C1404 C1405 1.367 . S
C1404 C1412 1.378 . S
C1405 C1404 1.367 . S
C1405 C1413 1.433 . S
C1406 H1402 0.929 . S
C1406 C1408 1.378 . S
C1406 C1410 1.350 . S
C1407 C1410 1.463 1_655 S
C1407 C1412 1.350 . S
C1407 N1415 1.427 . S
C1408 H1399 0.930 . S
C1408 C1406 1.378 . S
C1408 C1409 1.367 . S
C1409 C1408 1.367 . S
C1409 C1411 1.433 . S
C1410 C1406 1.350 . S
C1410 C1407 1.463 1_455 S
C1410 N1414 1.427 . S
C1411 H1401 0.929 . S
C1411 C1409 1.433 . S
C1411 N1414 1.384 . S
C1412 H1403 0.929 . S
C1412 C1404 1.378 . S
C1412 C1407 1.350 . S
C1413 H1400 0.929 . S
C1413 C1405 1.433 . S
C1413 N1415 1.384 . S
N1414 C1410 1.427 . S
N1414 C1411 1.384 . S
N1415 C1407 1.427 . S
N1415 C1413 1.384 . S
H1416 C1422 0.930 . S
H1417 C1426 0.930 . S
H1418 C1431 0.929 . S
H1419 C1429 0.929 . S
H1420 C1424 0.929 . S
H1421 C1430 0.929 . S
C1422 H1416 0.930 . S
C1422 C1423 1.367 . S
C1422 C1430 1.378 . S
C1423 C1422 1.367 . S
C1423 C1431 1.433 . S
C1424 H1420 0.929 . S
C1424 C1426 1.378 . S
C1424 C1428 1.350 . S
C1425 C1428 1.463 1_565 S
C1425 C1430 1.350 . S
C1425 N1433 1.427 . S
C1426 H1417 0.930 . S
C1426 C1424 1.378 . S
C1426 C1427 1.367 . S
C1427 C1426 1.367 . S
C1427 C1429 1.433 . S
C1428 C1424 1.350 . S
C1428 C1425 1.463 1_545 S
C1428 N1432 1.427 . S
C1429 H1419 0.929 . S
C1429 C1427 1.433 . S
C1429 N1432 1.384 . S
C1430 H1421 0.929 . S
C1430 C1422 1.378 . S
C1430 C1425 1.350 . S
C1431 H1418 0.929 . S
C1431 C1423 1.433 . S
C1431 N1433 1.384 . S
N1432 C1428 1.427 . S
N1432 C1429 1.384 . S
N1433 C1425 1.427 . S
N1433 C1431 1.384 . S
H1434 C1440 0.930 . S
H1435 C1444 0.930 . S
H1436 C1449 0.929 . S
H1437 C1447 0.929 . S
H1438 C1442 0.929 . S
H1439 C1448 0.929 . S
C1440 H1434 0.930 . S
C1440 C1441 1.367 . S
C1440 C1448 1.378 . S
C1441 C1440 1.367 . S
C1441 C1449 1.433 . S
C1442 H1438 0.929 . S
C1442 C1444 1.378 . S
C1442 C1446 1.350 . S
C1443 C1446 1.463 1_455 S
C1443 C1448 1.350 . S
C1443 N1451 1.427 . S
C1444 H1435 0.930 . S
C1444 C1442 1.378 . S
C1444 C1445 1.367 . S
C1445 C1444 1.367 . S
C1445 C1447 1.433 . S
C1446 C1442 1.350 . S
C1446 C1443 1.463 1_655 S
C1446 N1450 1.427 . S
C1447 H1437 0.929 . S
C1447 C1445 1.433 . S
C1447 N1450 1.384 . S
C1448 H1439 0.929 . S
C1448 C1440 1.378 . S
C1448 C1443 1.350 . S
C1449 H1436 0.929 . S
C1449 C1441 1.433 . S
C1449 N1451 1.384 . S
N1450 C1446 1.427 . S
N1450 C1447 1.384 . S
N1451 C1443 1.427 . S
N1451 C1449 1.384 . S
H1452 C1458 0.930 . S
H1453 C1462 0.930 . S
H1454 C1467 0.929 . S
H1455 C1465 0.929 . S
H1456 C1460 0.929 . S
H1457 C1466 0.929 . S
C1458 H1452 0.930 . S
C1458 C1459 1.367 . S
C1458 C1466 1.378 . S
C1459 C1458 1.367 . S
C1459 C1467 1.433 . S
C1460 H1456 0.929 . S
C1460 C1462 1.378 . S
C1460 C1464 1.350 . S
C1461 C1464 1.463 1_565 S
C1461 C1466 1.350 . S
C1461 N1469 1.427 . S
C1462 H1453 0.930 . S
C1462 C1460 1.378 . S
C1462 C1463 1.367 . S
C1463 C1462 1.367 . S
C1463 C1465 1.433 . S
C1464 C1460 1.350 . S
C1464 C1461 1.463 1_545 S
C1464 N1468 1.427 . S
C1465 H1455 0.929 . S
C1465 C1463 1.433 . S
C1465 N1468 1.384 . S
C1466 H1457 0.929 . S
C1466 C1458 1.378 . S
C1466 C1461 1.350 . S
C1467 H1454 0.929 . S
C1467 C1459 1.433 . S
C1467 N1469 1.384 . S
N1468 C1464 1.427 . S
N1468 C1465 1.384 . S
N1469 C1461 1.427 . S
N1469 C1467 1.384 . S
H1470 C1476 0.930 . S
H1471 C1480 0.930 . S
H1472 C1485 0.929 . S
H1473 C1483 0.929 . S
H1474 C1478 0.929 . S
H1475 C1484 0.929 . S
C1476 H1470 0.930 . S
C1476 C1477 1.367 . S
C1476 C1484 1.378 . S
C1477 C1476 1.367 . S
C1477 C1485 1.433 . S
C1478 H1474 0.929 . S
C1478 C1480 1.378 . S
C1478 C1482 1.350 . S
C1479 C1482 1.463 1_545 S
C1479 C1484 1.350 . S
C1479 N1487 1.427 . S
C1480 H1471 0.930 . S
C1480 C1478 1.378 . S
C1480 C1481 1.367 . S
C1481 C1480 1.367 . S
C1481 C1483 1.433 . S
C1482 C1478 1.350 . S
C1482 C1479 1.463 1_565 S
C1482 N1486 1.427 . S
C1483 H1473 0.929 . S
C1483 C1481 1.433 . S
C1483 N1486 1.384 . S
C1484 H1475 0.929 . S
C1484 C1476 1.378 . S
C1484 C1479 1.350 . S
C1485 H1472 0.929 . S
C1485 C1477 1.433 . S
C1485 N1487 1.384 . S
N1486 C1482 1.427 . S
N1486 C1483 1.384 . S
N1487 C1479 1.427 . S
N1487 C1485 1.384 . S
H1488 C1494 0.930 . S
H1489 C1498 0.930 . S
H1490 C1503 0.929 . S
H1491 C1501 0.929 . S
H1492 C1496 0.929 . S
H1493 C1502 0.929 . S
C1494 H1488 0.930 . S
C1494 C1495 1.367 . S
C1494 C1502 1.378 . S
C1495 C1494 1.367 . S
C1495 C1503 1.433 . S
C1496 H1492 0.929 . S
C1496 C1498 1.378 . S
C1496 C1500 1.350 . S
C1497 C1500 1.463 . S
C1497 C1502 1.350 . S
C1497 N1505 1.427 . S
C1498 H1489 0.930 . S
C1498 C1496 1.378 . S
C1498 C1499 1.367 . S
C1499 C1498 1.367 . S
C1499 C1501 1.433 . S
C1500 C1496 1.350 . S
C1500 C1497 1.463 . S
C1500 N1504 1.427 . S
C1501 H1491 0.929 . S
C1501 C1499 1.433 . S
C1501 N1504 1.384 . S
C1502 H1493 0.929 . S
C1502 C1494 1.378 . S
C1502 C1497 1.350 . S
C1503 H1490 0.929 . S
C1503 C1495 1.433 . S
C1503 N1505 1.384 . S
N1504 C1500 1.427 . S
N1504 C1501 1.384 . S
N1505 C1497 1.427 . S
N1505 C1503 1.384 . S
H1506 C1512 0.930 . S
H1507 C1516 0.930 . S
H1508 C1521 0.929 . S
H1509 C1519 0.929 . S
H1510 C1514 0.929 . S
H1511 C1520 0.929 . S
C1512 H1506 0.930 . S
C1512 C1513 1.367 . S
C1512 C1520 1.378 . S
C1513 C1512 1.367 . S
C1513 C1521 1.433 . S
C1514 H1510 0.929 . S
C1514 C1516 1.378 . S
C1514 C1518 1.350 . S
C1515 C1518 1.463 . S
C1515 C1520 1.350 . S
C1515 N1523 1.427 . S
C1516 H1507 0.930 . S
C1516 C1514 1.378 . S
C1516 C1517 1.367 . S
C1517 C1516 1.367 . S
C1517 C1519 1.433 . S
C1518 C1514 1.350 . S
C1518 C1515 1.463 . S
C1518 N1522 1.427 . S
C1519 H1509 0.929 . S
C1519 C1517 1.433 . S
C1519 N1522 1.384 . S
C1520 H1511 0.929 . S
C1520 C1512 1.378 . S
C1520 C1515 1.350 . S
C1521 H1508 0.929 . S
C1521 C1513 1.433 . S
C1521 N1523 1.384 . S
N1522 C1518 1.427 . S
N1522 C1519 1.384 . S
N1523 C1515 1.427 . S
N1523 C1521 1.384 . S
H1524 C1530 0.930 . S
H1525 C1534 0.930 . S
H1526 C1539 0.929 . S
H1527 C1537 0.929 . S
H1528 C1532 0.929 . S
H1529 C1538 0.929 . S
C1530 H1524 0.930 . S
C1530 C1531 1.367 . S
C1530 C1538 1.378 . S
C1531 C1530 1.367 . S
C1531 C1539 1.433 . S
C1532 H1528 0.929 . S
C1532 C1534 1.378 . S
C1532 C1536 1.350 . S
C1533 C1536 1.463 . S
C1533 C1538 1.350 . S
C1533 N1541 1.427 . S
C1534 H1525 0.930 . S
C1534 C1532 1.378 . S
C1534 C1535 1.367 . S
C1535 C1534 1.367 . S
C1535 C1537 1.433 . S
C1536 C1532 1.350 . S
C1536 C1533 1.463 . S
C1536 N1540 1.427 . S
C1537 H1527 0.929 . S
C1537 C1535 1.433 . S
C1537 N1540 1.384 . S
C1538 H1529 0.929 . S
C1538 C1530 1.378 . S
C1538 C1533 1.350 . S
C1539 H1526 0.929 . S
C1539 C1531 1.433 . S
C1539 N1541 1.384 . S
N1540 C1536 1.427 . S
N1540 C1537 1.384 . S
N1541 C1533 1.427 . S
N1541 C1539 1.384 . S
H1542 C1548 0.930 . S
H1543 C1552 0.930 . S
H1544 C1557 0.929 . S
H1545 C1555 0.929 . S
H1546 C1550 0.929 . S
H1547 C1556 0.929 . S
C1548 H1542 0.930 . S
C1548 C1549 1.367 . S
C1548 C1556 1.378 . S
C1549 C1548 1.367 . S
C1549 C1557 1.433 . S
C1550 H1546 0.929 . S
C1550 C1552 1.378 . S
C1550 C1554 1.350 . S
C1551 C1554 1.463 . S
C1551 C1556 1.350 . S
C1551 N1559 1.427 . S
C1552 H1543 0.930 . S
C1552 C1550 1.378 . S
C1552 C1553 1.367 . S
C1553 C1552 1.367 . S
C1553 C1555 1.433 . S
C1554 C1550 1.350 . S
C1554 C1551 1.463 . S
C1554 N1558 1.427 . S
C1555 H1545 0.929 . S
C1555 C1553 1.433 . S
C1555 N1558 1.384 . S
C1556 H1547 0.929 . S
C1556 C1548 1.378 . S
C1556 C1551 1.350 . S
C1557 H1544 0.929 . S
C1557 C1549 1.433 . S
C1557 N1559 1.384 . S
N1558 C1554 1.427 . S
N1558 C1555 1.384 . S
N1559 C1551 1.427 . S
N1559 C1557 1.384 . S
H1560 C1566 0.930 . S
H1561 C1570 0.930 . S
H1562 C1575 0.929 . S
H1563 C1573 0.929 . S
H1564 C1568 0.929 . S
H1565 C1574 0.929 . S
C1566 H1560 0.930 . S
C1566 C1567 1.367 . S
C1566 C1574 1.378 . S
C1567 C1566 1.367 . S
C1567 C1575 1.433 . S
C1568 H1564 0.929 . S
C1568 C1570 1.378 . S
C1568 C1572 1.350 . S
C1569 C1572 1.463 . S
C1569 C1574 1.350 . S
C1569 N1577 1.427 . S
C1570 H1561 0.930 . S
C1570 C1568 1.378 . S
C1570 C1571 1.367 . S
C1571 C1570 1.367 . S
C1571 C1573 1.433 . S
C1572 C1568 1.350 . S
C1572 C1569 1.463 . S
C1572 N1576 1.427 . S
C1573 H1563 0.929 . S
C1573 C1571 1.433 . S
C1573 N1576 1.384 . S
C1574 H1565 0.929 . S
C1574 C1566 1.378 . S
C1574 C1569 1.350 . S
C1575 H1562 0.929 . S
C1575 C1567 1.433 . S
C1575 N1577 1.384 . S
N1576 C1572 1.427 . S
N1576 C1573 1.384 . S
N1577 C1569 1.427 . S
N1577 C1575 1.384 . S
H1578 C1584 0.930 . S
H1579 C1588 0.930 . S
H1580 C1593 0.929 . S
H1581 C1591 0.929 . S
H1582 C1586 0.929 . S
H1583 C1592 0.929 . S
C1584 H1578 0.930 . S
C1584 C1585 1.367 . S
C1584 C1592 1.378 . S
C1585 C1584 1.367 . S
C1585 C1593 1.433 . S
C1586 H1582 0.929 . S
C1586 C1588 1.378 . S
C1586 C1590 1.350 . S
C1587 C1590 1.463 . S
C1587 C1592 1.350 . S
C1587 N1595 1.427 . S
C1588 H1579 0.930 . S
C1588 C1586 1.378 . S
C1588 C1589 1.367 . S
C1589 C1588 1.367 . S
C1589 C1591 1.433 . S
C1590 C1586 1.350 . S
C1590 C1587 1.463 . S
C1590 N1594 1.427 . S
C1591 H1581 0.929 . S
C1591 C1589 1.433 . S
C1591 N1594 1.384 . S
C1592 H1583 0.929 . S
C1592 C1584 1.378 . S
C1592 C1587 1.350 . S
C1593 H1580 0.929 . S
C1593 C1585 1.433 . S
C1593 N1595 1.384 . S
N1594 C1590 1.427 . S
N1594 C1591 1.384 . S
N1595 C1587 1.427 . S
N1595 C1593 1.384 . S
H1596 C1602 0.930 . S
H1597 C1606 0.930 . S
H1598 C1611 0.929 . S
H1599 C1609 0.929 . S
H1600 C1604 0.929 . S
H1601 C1610 0.929 . S
C1602 H1596 0.930 . S
C1602 C1603 1.367 . S
C1602 C1610 1.378 . S
C1603 C1602 1.367 . S
C1603 C1611 1.433 . S
C1604 H1600 0.929 . S
C1604 C1606 1.378 . S
C1604 C1608 1.350 . S
C1605 C1608 1.463 . S
C1605 C1610 1.350 . S
C1605 N1613 1.427 . S
C1606 H1597 0.930 . S
C1606 C1604 1.378 . S
C1606 C1607 1.367 . S
C1607 C1606 1.367 . S
C1607 C1609 1.433 . S
C1608 C1604 1.350 . S
C1608 C1605 1.463 . S
C1608 N1612 1.427 . S
C1609 H1599 0.929 . S
C1609 C1607 1.433 . S
C1609 N1612 1.384 . S
C1610 H1601 0.929 . S
C1610 C1602 1.378 . S
C1610 C1605 1.350 . S
C1611 H1598 0.929 . S
C1611 C1603 1.433 . S
C1611 N1613 1.384 . S
N1612 C1608 1.427 . S
N1612 C1609 1.384 . S
N1613 C1605 1.427 . S
N1613 C1611 1.384 . S
H1614 C1620 0.930 . S
H1615 C1624 0.930 . S
H1616 C1629 0.929 . S
H1617 C1627 0.929 . S
H1618 C1622 0.929 . S
H1619 C1628 0.929 . S
C1620 H1614 0.930 . S
C1620 C1621 1.367 . S
C1620 C1628 1.378 . S
C1621 C1620 1.367 . S
C1621 C1629 1.433 . S
C1622 H1618 0.929 . S
C1622 C1624 1.378 . S
C1622 C1626 1.350 . S
C1623 C1626 1.463 . S
C1623 C1628 1.350 . S
C1623 N1631 1.427 . S
C1624 H1615 0.930 . S
C1624 C1622 1.378 . S
C1624 C1625 1.367 . S
C1625 C1624 1.367 . S
C1625 C1627 1.433 . S
C1626 C1622 1.350 . S
C1626 C1623 1.463 . S
C1626 N1630 1.427 . S
C1627 H1617 0.929 . S
C1627 C1625 1.433 . S
C1627 N1630 1.384 . S
C1628 H1619 0.929 . S
C1628 C1620 1.378 . S
C1628 C1623 1.350 . S
C1629 H1616 0.929 . S
C1629 C1621 1.433 . S
C1629 N1631 1.384 . S
N1630 C1626 1.427 . S
N1630 C1627 1.384 . S
N1631 C1623 1.427 . S
N1631 C1629 1.384 . S
H1632 C1638 0.930 . S
H1633 C1642 0.930 . S
H1634 C1647 0.929 . S
H1635 C1645 0.929 . S
H1636 C1640 0.929 . S
H1637 C1646 0.929 . S
C1638 H1632 0.930 . S
C1638 C1639 1.367 . S
C1638 C1646 1.378 . S
C1639 C1638 1.367 . S
C1639 C1647 1.433 . S
C1640 H1636 0.929 . S
C1640 C1642 1.378 . S
C1640 C1644 1.350 . S
C1641 C1644 1.463 . S
C1641 C1646 1.350 . S
C1641 N1649 1.427 . S
C1642 H1633 0.930 . S
C1642 C1640 1.378 . S
C1642 C1643 1.367 . S
C1643 C1642 1.367 . S
C1643 C1645 1.433 . S
C1644 C1640 1.350 . S
C1644 C1641 1.463 . S
C1644 N1648 1.427 . S
C1645 H1635 0.929 . S
C1645 C1643 1.433 . S
C1645 N1648 1.384 . S
C1646 H1637 0.929 . S
C1646 C1638 1.378 . S
C1646 C1641 1.350 . S
C1647 H1634 0.929 . S
C1647 C1639 1.433 . S
C1647 N1649 1.384 . S
N1648 C1644 1.427 . S
N1648 C1645 1.384 . S
N1649 C1641 1.427 . S
N1649 C1647 1.384 . S
H1650 C1656 0.930 . S
H1651 C1660 0.930 . S
H1652 C1665 0.929 . S
H1653 C1663 0.929 . S
H1654 C1658 0.929 . S
H1655 C1664 0.929 . S
C1656 H1650 0.930 . S
C1656 C1657 1.367 . S
C1656 C1664 1.378 . S
C1657 C1656 1.367 . S
C1657 C1665 1.433 . S
C1658 H1654 0.929 . S
C1658 C1660 1.378 . S
C1658 C1662 1.350 . S
C1659 C1662 1.463 . S
C1659 C1664 1.350 . S
C1659 N1667 1.427 . S
C1660 H1651 0.930 . S
C1660 C1658 1.378 . S
C1660 C1661 1.367 . S
C1661 C1660 1.367 . S
C1661 C1663 1.433 . S
C1662 C1658 1.350 . S
C1662 C1659 1.463 . S
C1662 N1666 1.427 . S
C1663 H1653 0.929 . S
C1663 C1661 1.433 . S
C1663 N1666 1.384 . S
C1664 H1655 0.929 . S
C1664 C1656 1.378 . S
C1664 C1659 1.350 . S
C1665 H1652 0.929 . S
C1665 C1657 1.433 . S
C1665 N1667 1.384 . S
N1666 C1662 1.427 . S
N1666 C1663 1.384 . S
N1667 C1659 1.427 . S
N1667 C1665 1.384 . S
H1668 C1674 0.930 . S
H1669 C1678 0.930 . S
H1670 C1683 0.929 . S
H1671 C1681 0.929 . S
H1672 C1676 0.929 . S
H1673 C1682 0.929 . S
C1674 H1668 0.930 . S
C1674 C1675 1.367 . S
C1674 C1682 1.378 . S
C1675 C1674 1.367 . S
C1675 C1683 1.433 . S
C1676 H1672 0.929 . S
C1676 C1678 1.378 . S
C1676 C1680 1.350 . S
C1677 C1680 1.463 . S
C1677 C1682 1.350 . S
C1677 N1685 1.427 . S
C1678 H1669 0.930 . S
C1678 C1676 1.378 . S
C1678 C1679 1.367 . S
C1679 C1678 1.367 . S
C1679 C1681 1.433 . S
C1680 C1676 1.350 . S
C1680 C1677 1.463 . S
C1680 N1684 1.427 . S
C1681 H1671 0.929 . S
C1681 C1679 1.433 . S
C1681 N1684 1.384 . S
C1682 H1673 0.929 . S
C1682 C1674 1.378 . S
C1682 C1677 1.350 . S
C1683 H1670 0.929 . S
C1683 C1675 1.433 . S
C1683 N1685 1.384 . S
N1684 C1680 1.427 . S
N1684 C1681 1.384 . S
N1685 C1677 1.427 . S
N1685 C1683 1.384 . S
H1686 C1692 0.930 . S
H1687 C1696 0.930 . S
H1688 C1701 0.929 . S
H1689 C1699 0.929 . S
H1690 C1694 0.929 . S
H1691 C1700 0.929 . S
C1692 H1686 0.930 . S
C1692 C1693 1.367 . S
C1692 C1700 1.378 . S
C1693 C1692 1.367 . S
C1693 C1701 1.433 . S
C1694 H1690 0.929 . S
C1694 C1696 1.378 . S
C1694 C1698 1.350 . S
C1695 C1698 1.463 . S
C1695 C1700 1.350 . S
C1695 N1703 1.427 . S
C1696 H1687 0.930 . S
C1696 C1694 1.378 . S
C1696 C1697 1.367 . S
C1697 C1696 1.367 . S
C1697 C1699 1.433 . S
C1698 C1694 1.350 . S
C1698 C1695 1.463 . S
C1698 N1702 1.427 . S
C1699 H1689 0.929 . S
C1699 C1697 1.433 . S
C1699 N1702 1.384 . S
C1700 H1691 0.929 . S
C1700 C1692 1.378 . S
C1700 C1695 1.350 . S
C1701 H1688 0.929 . S
C1701 C1693 1.433 . S
C1701 N1703 1.384 . S
N1702 C1698 1.427 . S
N1702 C1699 1.384 . S
N1703 C1695 1.427 . S
N1703 C1701 1.384 . S
H1704 C1710 0.930 . S
H1705 C1714 0.930 . S
H1706 C1719 0.929 . S
H1707 C1717 0.929 . S
H1708 C1712 0.929 . S
H1709 C1718 0.929 . S
C1710 H1704 0.930 . S
C1710 C1711 1.367 . S
C1710 C1718 1.378 . S
C1711 C1710 1.367 . S
C1711 C1719 1.433 . S
C1712 H1708 0.929 . S
C1712 C1714 1.378 . S
C1712 C1716 1.350 . S
C1713 C1716 1.463 . S
C1713 C1718 1.350 . S
C1713 N1721 1.427 . S
C1714 H1705 0.930 . S
C1714 C1712 1.378 . S
C1714 C1715 1.367 . S
C1715 C1714 1.367 . S
C1715 C1717 1.433 . S
C1716 C1712 1.350 . S
C1716 C1713 1.463 . S
C1716 N1720 1.427 . S
C1717 H1707 0.929 . S
C1717 C1715 1.433 . S
C1717 N1720 1.384 . S
C1718 H1709 0.929 . S
C1718 C1710 1.378 . S
C1718 C1713 1.350 . S
C1719 H1706 0.929 . S
C1719 C1711 1.433 . S
C1719 N1721 1.384 . S
N1720 C1716 1.427 . S
N1720 C1717 1.384 . S
N1721 C1713 1.427 . S
N1721 C1719 1.384 . S
H1722 C1728 0.930 . S
H1723 C1732 0.930 . S
H1724 C1737 0.929 . S
H1725 C1735 0.929 . S
H1726 C1730 0.929 . S
H1727 C1736 0.929 . S
C1728 H1722 0.930 . S
C1728 C1729 1.367 . S
C1728 C1736 1.378 . S
C1729 C1728 1.367 . S
C1729 C1737 1.433 . S
C1730 H1726 0.929 . S
C1730 C1732 1.378 . S
C1730 C1734 1.350 . S
C1731 C1734 1.463 . S
C1731 C1736 1.350 . S
C1731 N1739 1.427 . S
C1732 H1723 0.930 . S
C1732 C1730 1.378 . S
C1732 C1733 1.367 . S
C1733 C1732 1.367 . S
C1733 C1735 1.433 . S
C1734 C1730 1.350 . S
C1734 C1731 1.463 . S
C1734 N1738 1.427 . S
C1735 H1725 0.929 . S
C1735 C1733 1.433 . S
C1735 N1738 1.384 . S
C1736 H1727 0.929 . S
C1736 C1728 1.378 . S
C1736 C1731 1.350 . S
C1737 H1724 0.929 . S
C1737 C1729 1.433 . S
C1737 N1739 1.384 . S
N1738 C1734 1.427 . S
N1738 C1735 1.384 . S
N1739 C1731 1.427 . S
N1739 C1737 1.384 . S
H1740 C1746 0.930 . S
H1741 C1750 0.930 . S
H1742 C1755 0.929 . S
H1743 C1753 0.929 . S
H1744 C1748 0.929 . S
H1745 C1754 0.929 . S
C1746 H1740 0.930 . S
C1746 C1747 1.367 . S
C1746 C1754 1.378 . S
C1747 C1746 1.367 . S
C1747 C1755 1.433 . S
C1748 H1744 0.929 . S
C1748 C1750 1.378 . S
C1748 C1752 1.350 . S
C1749 C1752 1.463 . S
C1749 C1754 1.350 . S
C1749 N1757 1.427 . S
C1750 H1741 0.930 . S
C1750 C1748 1.378 . S
C1750 C1751 1.367 . S
C1751 C1750 1.367 . S
C1751 C1753 1.433 . S
C1752 C1748 1.350 . S
C1752 C1749 1.463 . S
C1752 N1756 1.427 . S
C1753 H1743 0.929 . S
C1753 C1751 1.433 . S
C1753 N1756 1.384 . S
C1754 H1745 0.929 . S
C1754 C1746 1.378 . S
C1754 C1749 1.350 . S
C1755 H1742 0.929 . S
C1755 C1747 1.433 . S
C1755 N1757 1.384 . S
N1756 C1752 1.427 . S
N1756 C1753 1.384 . S
N1757 C1749 1.427 . S
N1757 C1755 1.384 . S
H1758 C1764 0.930 . S
H1759 C1768 0.930 . S
H1760 C1773 0.929 . S
H1761 C1771 0.929 . S
H1762 C1766 0.929 . S
H1763 C1772 0.929 . S
C1764 H1758 0.930 . S
C1764 C1765 1.367 . S
C1764 C1772 1.378 . S
C1765 C1764 1.367 . S
C1765 C1773 1.433 . S
C1766 H1762 0.929 . S
C1766 C1768 1.378 . S
C1766 C1770 1.350 . S
C1767 C1770 1.463 . S
C1767 C1772 1.350 . S
C1767 N1775 1.427 . S
C1768 H1759 0.930 . S
C1768 C1766 1.378 . S
C1768 C1769 1.367 . S
C1769 C1768 1.367 . S
C1769 C1771 1.433 . S
C1770 C1766 1.350 . S
C1770 C1767 1.463 . S
C1770 N1774 1.427 . S
C1771 H1761 0.929 . S
C1771 C1769 1.433 . S
C1771 N1774 1.384 . S
C1772 H1763 0.929 . S
C1772 C1764 1.378 . S
C1772 C1767 1.350 . S
C1773 H1760 0.929 . S
C1773 C1765 1.433 . S
C1773 N1775 1.384 . S
N1774 C1770 1.427 . S
N1774 C1771 1.384 . S
N1775 C1767 1.427 . S
N1775 C1773 1.384 . S
H1776 C1782 0.930 . S
H1777 C1786 0.930 . S
H1778 C1791 0.929 . S
H1779 C1789 0.929 . S
H1780 C1784 0.929 . S
H1781 C1790 0.929 . S
C1782 H1776 0.930 . S
C1782 C1783 1.367 . S
C1782 C1790 1.378 . S
C1783 C1782 1.367 . S
C1783 C1791 1.433 . S
C1784 H1780 0.929 . S
C1784 C1786 1.378 . S
C1784 C1788 1.350 . S
C1785 C1788 1.463 . S
C1785 C1790 1.350 . S
C1785 N1793 1.427 . S
C1786 H1777 0.930 . S
C1786 C1784 1.378 . S
C1786 C1787 1.367 . S
C1787 C1786 1.367 . S
C1787 C1789 1.433 . S
C1788 C1784 1.350 . S
C1788 C1785 1.463 . S
C1788 N1792 1.427 . S
C1789 H1779 0.929 . S
C1789 C1787 1.433 . S
C1789 N1792 1.384 . S
C1790 H1781 0.929 . S
C1790 C1782 1.378 . S
C1790 C1785 1.350 . S
C1791 H1778 0.929 . S
C1791 C1783 1.433 . S
C1791 N1793 1.384 . S
N1792 C1788 1.427 . S
N1792 C1789 1.384 . S
N1793 C1785 1.427 . S
N1793 C1791 1.384 . S
H1794 C1800 0.930 . S
H1795 C1804 0.930 . S
H1796 C1809 0.929 . S
H1797 C1807 0.929 . S
H1798 C1802 0.929 . S
H1799 C1808 0.929 . S
C1800 H1794 0.930 . S
C1800 C1801 1.367 . S
C1800 C1808 1.378 . S
C1801 C1800 1.367 . S
C1801 C1809 1.433 . S
C1802 H1798 0.929 . S
C1802 C1804 1.378 . S
C1802 C1806 1.350 . S
C1803 C1806 1.463 . S
C1803 C1808 1.350 . S
C1803 N1811 1.427 . S
C1804 H1795 0.930 . S
C1804 C1802 1.378 . S
C1804 C1805 1.367 . S
C1805 C1804 1.367 . S
C1805 C1807 1.433 . S
C1806 C1802 1.350 . S
C1806 C1803 1.463 . S
C1806 N1810 1.427 . S
C1807 H1797 0.929 . S
C1807 C1805 1.433 . S
C1807 N1810 1.384 . S
C1808 H1799 0.929 . S
C1808 C1800 1.378 . S
C1808 C1803 1.350 . S
C1809 H1796 0.929 . S
C1809 C1801 1.433 . S
C1809 N1811 1.384 . S
N1810 C1806 1.427 . S
N1810 C1807 1.384 . S
N1811 C1803 1.427 . S
N1811 C1809 1.384 . S
H1812 C1818 0.930 . S
H1813 C1822 0.930 . S
H1814 C1827 0.929 . S
H1815 C1825 0.929 . S
H1816 C1820 0.929 . S
H1817 C1826 0.929 . S
C1818 H1812 0.930 . S
C1818 C1819 1.367 . S
C1818 C1826 1.378 . S
C1819 C1818 1.367 . S
C1819 C1827 1.433 . S
C1820 H1816 0.929 . S
C1820 C1822 1.378 . S
C1820 C1824 1.350 . S
C1821 C1824 1.463 . S
C1821 C1826 1.350 . S
C1821 N1829 1.427 . S
C1822 H1813 0.930 . S
C1822 C1820 1.378 . S
C1822 C1823 1.367 . S
C1823 C1822 1.367 . S
C1823 C1825 1.433 . S
C1824 C1820 1.350 . S
C1824 C1821 1.463 . S
C1824 N1828 1.427 . S
C1825 H1815 0.929 . S
C1825 C1823 1.433 . S
C1825 N1828 1.384 . S
C1826 H1817 0.929 . S
C1826 C1818 1.378 . S
C1826 C1821 1.350 . S
C1827 H1814 0.929 . S
C1827 C1819 1.433 . S
C1827 N1829 1.384 . S
N1828 C1824 1.427 . S
N1828 C1825 1.384 . S
N1829 C1821 1.427 . S
N1829 C1827 1.384 . S
H1830 C1836 0.930 . S
H1831 C1840 0.930 . S
H1832 C1845 0.929 . S
H1833 C1843 0.929 . S
H1834 C1838 0.929 . S
H1835 C1844 0.929 . S
C1836 H1830 0.930 . S
C1836 C1837 1.367 . S
C1836 C1844 1.378 . S
C1837 C1836 1.367 . S
C1837 C1845 1.433 . S
C1838 H1834 0.929 . S
C1838 C1840 1.378 . S
C1838 C1842 1.350 . S
C1839 C1842 1.463 . S
C1839 C1844 1.350 . S
C1839 N1847 1.427 . S
C1840 H1831 0.930 . S
C1840 C1838 1.378 . S
C1840 C1841 1.367 . S
C1841 C1840 1.367 . S
C1841 C1843 1.433 . S
C1842 C1838 1.350 . S
C1842 C1839 1.463 . S
C1842 N1846 1.427 . S
C1843 H1833 0.929 . S
C1843 C1841 1.433 . S
C1843 N1846 1.384 . S
C1844 H1835 0.929 . S
C1844 C1836 1.378 . S
C1844 C1839 1.350 . S
C1845 H1832 0.929 . S
C1845 C1837 1.433 . S
C1845 N1847 1.384 . S
N1846 C1842 1.427 . S
N1846 C1843 1.384 . S
N1847 C1839 1.427 . S
N1847 C1845 1.384 . S
H1848 C1854 0.930 . S
H1849 C1858 0.930 . S
H1850 C1863 0.929 . S
H1851 C1861 0.929 . S
H1852 C1856 0.929 . S
H1853 C1862 0.929 . S
C1854 H1848 0.930 . S
C1854 C1855 1.367 . S
C1854 C1862 1.378 . S
C1855 C1854 1.367 . S
C1855 C1863 1.433 . S
C1856 H1852 0.929 . S
C1856 C1858 1.378 . S
C1856 C1860 1.350 . S
C1857 C1860 1.463 . S
C1857 C1862 1.350 . S
C1857 N1865 1.427 . S
C1858 H1849 0.930 . S
C1858 C1856 1.378 . S
C1858 C1859 1.367 . S
C1859 C1858 1.367 . S
C1859 C1861 1.433 . S
C1860 C1856 1.350 . S
C1860 C1857 1.463 . S
C1860 N1864 1.427 . S
C1861 H1851 0.929 . S
C1861 C1859 1.433 . S
C1861 N1864 1.384 . S
C1862 H1853 0.929 . S
C1862 C1854 1.378 . S
C1862 C1857 1.350 . S
C1863 H1850 0.929 . S
C1863 C1855 1.433 . S
C1863 N1865 1.384 . S
N1864 C1860 1.427 . S
N1864 C1861 1.384 . S
N1865 C1857 1.427 . S
N1865 C1863 1.384 . S
H1866 C1872 0.930 . S
H1867 C1876 0.930 . S
H1868 C1881 0.929 . S
H1869 C1879 0.929 . S
H1870 C1874 0.929 . S
H1871 C1880 0.929 . S
C1872 H1866 0.930 . S
C1872 C1873 1.367 . S
C1872 C1880 1.378 . S
C1873 C1872 1.367 . S
C1873 C1881 1.433 . S
C1874 H1870 0.929 . S
C1874 C1876 1.378 . S
C1874 C1878 1.350 . S
C1875 C1878 1.463 . S
C1875 C1880 1.350 . S
C1875 N1883 1.427 . S
C1876 H1867 0.930 . S
C1876 C1874 1.378 . S
C1876 C1877 1.367 . S
C1877 C1876 1.367 . S
C1877 C1879 1.433 . S
C1878 C1874 1.350 . S
C1878 C1875 1.463 . S
C1878 N1882 1.427 . S
C1879 H1869 0.929 . S
C1879 C1877 1.433 . S
C1879 N1882 1.384 . S
C1880 H1871 0.929 . S
C1880 C1872 1.378 . S
C1880 C1875 1.350 . S
C1881 H1868 0.929 . S
C1881 C1873 1.433 . S
C1881 N1883 1.384 . S
N1882 C1878 1.427 . S
N1882 C1879 1.384 . S
N1883 C1875 1.427 . S
N1883 C1881 1.384 . S
H1884 C1890 0.930 . S
H1885 C1894 0.930 . S
H1886 C1899 0.929 . S
H1887 C1897 0.929 . S
H1888 C1892 0.929 . S
H1889 C1898 0.929 . S
C1890 H1884 0.930 . S
C1890 C1891 1.367 . S
C1890 C1898 1.378 . S
C1891 C1890 1.367 . S
C1891 C1899 1.433 . S
C1892 H1888 0.929 . S
C1892 C1894 1.378 . S
C1892 C1896 1.350 . S
C1893 C1896 1.463 . S
C1893 C1898 1.350 . S
C1893 N1901 1.427 . S
C1894 H1885 0.930 . S
C1894 C1892 1.378 . S
C1894 C1895 1.367 . S
C1895 C1894 1.367 . S
C1895 C1897 1.433 . S
C1896 C1892 1.350 . S
C1896 C1893 1.463 . S
C1896 N1900 1.427 . S
C1897 H1887 0.929 . S
C1897 C1895 1.433 . S
C1897 N1900 1.384 . S
C1898 H1889 0.929 . S
C1898 C1890 1.378 . S
C1898 C1893 1.350 . S
C1899 H1886 0.929 . S
C1899 C1891 1.433 . S
C1899 N1901 1.384 . S
N1900 C1896 1.427 . S
N1900 C1897 1.384 . S
N1901 C1893 1.427 . S
N1901 C1899 1.384 . S
H1902 C1908 0.930 . S
H1903 C1912 0.930 . S
H1904 C1917 0.929 . S
H1905 C1915 0.929 . S
H1906 C1910 0.929 . S
H1907 C1916 0.929 . S
C1908 H1902 0.930 . S
C1908 C1909 1.367 . S
C1908 C1916 1.378 . S
C1909 C1908 1.367 . S
C1909 C1917 1.433 . S
C1910 H1906 0.929 . S
C1910 C1912 1.378 . S
C1910 C1914 1.350 . S
C1911 C1914 1.463 . S
C1911 C1916 1.350 . S
C1911 N1919 1.427 . S
C1912 H1903 0.930 . S
C1912 C1910 1.378 . S
C1912 C1913 1.367 . S
C1913 C1912 1.367 . S
C1913 C1915 1.433 . S
C1914 C1910 1.350 . S
C1914 C1911 1.463 . S
C1914 N1918 1.427 . S
C1915 H1905 0.929 . S
C1915 C1913 1.433 . S
C1915 N1918 1.384 . S
C1916 H1907 0.929 . S
C1916 C1908 1.378 . S
C1916 C1911 1.350 . S
C1917 H1904 0.929 . S
C1917 C1909 1.433 . S
C1917 N1919 1.384 . S
N1918 C1914 1.427 . S
N1918 C1915 1.384 . S
N1919 C1911 1.427 . S
N1919 C1917 1.384 . S
H1920 C1926 0.930 . S
H1921 C1930 0.930 . S
H1922 C1935 0.929 . S
H1923 C1933 0.929 . S
H1924 C1928 0.929 . S
H1925 C1934 0.929 . S
C1926 H1920 0.930 . S
C1926 C1927 1.367 . S
C1926 C1934 1.378 . S
C1927 C1926 1.367 . S
C1927 C1935 1.433 . S
C1928 H1924 0.929 . S
C1928 C1930 1.378 . S
C1928 C1932 1.350 . S
C1929 C1932 1.463 . S
C1929 C1934 1.350 . S
C1929 N1937 1.427 . S
C1930 H1921 0.930 . S
C1930 C1928 1.378 . S
C1930 C1931 1.367 . S
C1931 C1930 1.367 . S
C1931 C1933 1.433 . S
C1932 C1928 1.350 . S
C1932 C1929 1.463 . S
C1932 N1936 1.427 . S
C1933 H1923 0.929 . S
C1933 C1931 1.433 . S
C1933 N1936 1.384 . S
C1934 H1925 0.929 . S
C1934 C1926 1.378 . S
C1934 C1929 1.350 . S
C1935 H1922 0.929 . S
C1935 C1927 1.433 . S
C1935 N1937 1.384 . S
N1936 C1932 1.427 . S
N1936 C1933 1.384 . S
N1937 C1929 1.427 . S
N1937 C1935 1.384 . S
H1938 C1944 0.930 . S
H1939 C1948 0.930 . S
H1940 C1953 0.929 . S
H1941 C1951 0.929 . S
H1942 C1946 0.929 . S
H1943 C1952 0.929 . S
C1944 H1938 0.930 . S
C1944 C1945 1.367 . S
C1944 C1952 1.378 . S
C1945 C1944 1.367 . S
C1945 C1953 1.433 . S
C1946 H1942 0.929 . S
C1946 C1948 1.378 . S
C1946 C1950 1.350 . S
C1947 C1950 1.463 . S
C1947 C1952 1.350 . S
C1947 N1955 1.427 . S
C1948 H1939 0.930 . S
C1948 C1946 1.378 . S
C1948 C1949 1.367 . S
C1949 C1948 1.367 . S
C1949 C1951 1.433 . S
C1950 C1946 1.350 . S
C1950 C1947 1.463 . S
C1950 N1954 1.427 . S
C1951 H1941 0.929 . S
C1951 C1949 1.433 . S
C1951 N1954 1.384 . S
C1952 H1943 0.929 . S
C1952 C1944 1.378 . S
C1952 C1947 1.350 . S
C1953 H1940 0.929 . S
C1953 C1945 1.433 . S
C1953 N1955 1.384 . S
N1954 C1950 1.427 . S
N1954 C1951 1.384 . S
N1955 C1947 1.427 . S
N1955 C1953 1.384 . S
H1956 C1962 0.930 . S
H1957 C1966 0.930 . S
H1958 C1971 0.929 . S
H1959 C1969 0.929 . S
H1960 C1964 0.929 . S
H1961 C1970 0.929 . S
C1962 H1956 0.930 . S
C1962 C1963 1.367 . S
C1962 C1970 1.378 . S
C1963 C1962 1.367 . S
C1963 C1971 1.433 . S
C1964 H1960 0.929 . S
C1964 C1966 1.378 . S
C1964 C1968 1.350 . S
C1965 C1968 1.463 . S
C1965 C1970 1.350 . S
C1965 N1973 1.427 . S
C1966 H1957 0.930 . S
C1966 C1964 1.378 . S
C1966 C1967 1.367 . S
C1967 C1966 1.367 . S
C1967 C1969 1.433 . S
C1968 C1964 1.350 . S
C1968 C1965 1.463 . S
C1968 N1972 1.427 . S
C1969 H1959 0.929 . S
C1969 C1967 1.433 . S
C1969 N1972 1.384 . S
C1970 H1961 0.929 . S
C1970 C1962 1.378 . S
C1970 C1965 1.350 . S
C1971 H1958 0.929 . S
C1971 C1963 1.433 . S
C1971 N1973 1.384 . S
N1972 C1968 1.427 . S
N1972 C1969 1.384 . S
N1973 C1965 1.427 . S
N1973 C1971 1.384 . S
H1974 C1980 0.930 . S
H1975 C1984 0.930 . S
H1976 C1989 0.929 . S
H1977 C1987 0.929 . S
H1978 C1982 0.929 . S
H1979 C1988 0.929 . S
C1980 H1974 0.930 . S
C1980 C1981 1.367 . S
C1980 C1988 1.378 . S
C1981 C1980 1.367 . S
C1981 C1989 1.433 . S
C1982 H1978 0.929 . S
C1982 C1984 1.378 . S
C1982 C1986 1.350 . S
C1983 C1986 1.463 . S
C1983 C1988 1.350 . S
C1983 N1991 1.427 . S
C1984 H1975 0.930 . S
C1984 C1982 1.378 . S
C1984 C1985 1.367 . S
C1985 C1984 1.367 . S
C1985 C1987 1.433 . S
C1986 C1982 1.350 . S
C1986 C1983 1.463 . S
C1986 N1990 1.427 . S
C1987 H1977 0.929 . S
C1987 C1985 1.433 . S
C1987 N1990 1.384 . S
C1988 H1979 0.929 . S
C1988 C1980 1.378 . S
C1988 C1983 1.350 . S
C1989 H1976 0.929 . S
C1989 C1981 1.433 . S
C1989 N1991 1.384 . S
N1990 C1986 1.427 . S
N1990 C1987 1.384 . S
N1991 C1983 1.427 . S
N1991 C1989 1.384 . S
H1992 C1998 0.930 . S
H1993 C2002 0.930 . S
H1994 C2007 0.929 . S
H1995 C2005 0.929 . S
H1996 C2000 0.929 . S
H1997 C2006 0.929 . S
C1998 H1992 0.930 . S
C1998 C1999 1.367 . S
C1998 C2006 1.378 . S
C1999 C1998 1.367 . S
C1999 C2007 1.433 . S
C2000 H1996 0.929 . S
C2000 C2002 1.378 . S
C2000 C2004 1.350 . S
C2001 C2004 1.463 . S
C2001 C2006 1.350 . S
C2001 N2009 1.427 . S
C2002 H1993 0.930 . S
C2002 C2000 1.378 . S
C2002 C2003 1.367 . S
C2003 C2002 1.367 . S
C2003 C2005 1.433 . S
C2004 C2000 1.350 . S
C2004 C2001 1.463 . S
C2004 N2008 1.427 . S
C2005 H1995 0.929 . S
C2005 C2003 1.433 . S
C2005 N2008 1.384 . S
C2006 H1997 0.929 . S
C2006 C1998 1.378 . S
C2006 C2001 1.350 . S
C2007 H1994 0.929 . S
C2007 C1999 1.433 . S
C2007 N2009 1.384 . S
N2008 C2004 1.427 . S
N2008 C2005 1.384 . S
N2009 C2001 1.427 . S
N2009 C2007 1.384 . S
H2010 C2016 0.930 . S
H2011 C2020 0.930 . S
H2012 C2025 0.929 . S
H2013 C2023 0.929 . S
H2014 C2018 0.929 . S
H2015 C2024 0.929 . S
C2016 H2010 0.930 . S
C2016 C2017 1.367 . S
C2016 C2024 1.378 . S
C2017 C2016 1.367 . S
C2017 C2025 1.433 . S
C2018 H2014 0.929 . S
C2018 C2020 1.378 . S
C2018 C2022 1.350 . S
C2019 C2022 1.463 . S
C2019 C2024 1.350 . S
C2019 N2027 1.427 . S
C2020 H2011 0.930 . S
C2020 C2018 1.378 . S
C2020 C2021 1.367 . S
C2021 C2020 1.367 . S
C2021 C2023 1.433 . S
C2022 C2018 1.350 . S
C2022 C2019 1.463 . S
C2022 N2026 1.427 . S
C2023 H2013 0.929 . S
C2023 C2021 1.433 . S
C2023 N2026 1.384 . S
C2024 H2015 0.929 . S
C2024 C2016 1.378 . S
C2024 C2019 1.350 . S
C2025 H2012 0.929 . S
C2025 C2017 1.433 . S
C2025 N2027 1.384 . S
N2026 C2022 1.427 . S
N2026 C2023 1.384 . S
N2027 C2019 1.427 . S
N2027 C2025 1.384 . S
H2028 C2034 0.930 . S
H2029 C2038 0.930 . S
H2030 C2043 0.929 . S
H2031 C2041 0.929 . S
H2032 C2036 0.929 . S
H2033 C2042 0.929 . S
C2034 H2028 0.930 . S
C2034 C2035 1.367 . S
C2034 C2042 1.378 . S
C2035 C2034 1.367 . S
C2035 C2043 1.433 . S
C2036 H2032 0.929 . S
C2036 C2038 1.378 . S
C2036 C2040 1.350 . S
C2037 C2040 1.463 . S
C2037 C2042 1.350 . S
C2037 N2045 1.427 . S
C2038 H2029 0.930 . S
C2038 C2036 1.378 . S
C2038 C2039 1.367 . S
C2039 C2038 1.367 . S
C2039 C2041 1.433 . S
C2040 C2036 1.350 . S
C2040 C2037 1.463 . S
C2040 N2044 1.427 . S
C2041 H2031 0.929 . S
C2041 C2039 1.433 . S
C2041 N2044 1.384 . S
C2042 H2033 0.929 . S
C2042 C2034 1.378 . S
C2042 C2037 1.350 . S
C2043 H2030 0.929 . S
C2043 C2035 1.433 . S
C2043 N2045 1.384 . S
N2044 C2040 1.427 . S
N2044 C2041 1.384 . S
N2045 C2037 1.427 . S
N2045 C2043 1.384 . S
H2046 C2052 0.930 . S
H2047 C2056 0.930 . S
H2048 C2061 0.929 . S
H2049 C2059 0.929 . S
H2050 C2054 0.929 . S
H2051 C2060 0.929 . S
C2052 H2046 0.930 . S
C2052 C2053 1.367 . S
C2052 C2060 1.378 . S
C2053 C2052 1.367 . S
C2053 C2061 1.433 . S
C2054 H2050 0.929 . S
C2054 C2056 1.378 . S
C2054 C2058 1.350 . S
C2055 C2058 1.463 . S
C2055 C2060 1.350 . S
C2055 N2063 1.427 . S
C2056 H2047 0.930 . S
C2056 C2054 1.378 . S
C2056 C2057 1.367 . S
C2057 C2056 1.367 . S
C2057 C2059 1.433 . S
C2058 C2054 1.350 . S
C2058 C2055 1.463 . S
C2058 N2062 1.427 . S
C2059 H2049 0.929 . S
C2059 C2057 1.433 . S
C2059 N2062 1.384 . S
C2060 H2051 0.929 . S
C2060 C2052 1.378 . S
C2060 C2055 1.350 . S
C2061 H2048 0.929 . S
C2061 C2053 1.433 . S
C2061 N2063 1.384 . S
N2062 C2058 1.427 . S
N2062 C2059 1.384 . S
N2063 C2055 1.427 . S
N2063 C2061 1.384 . S
H2064 C2070 0.930 . S
H2065 C2074 0.930 . S
H2066 C2079 0.929 . S
H2067 C2077 0.929 . S
H2068 C2072 0.929 . S
H2069 C2078 0.929 . S
C2070 H2064 0.930 . S
C2070 C2071 1.367 . S
C2070 C2078 1.378 . S
C2071 C2070 1.367 . S
C2071 C2079 1.433 . S
C2072 H2068 0.929 . S
C2072 C2074 1.378 . S
C2072 C2076 1.350 . S
C2073 C2076 1.463 . S
C2073 C2078 1.350 . S
C2073 N2081 1.427 . S
C2074 H2065 0.930 . S
C2074 C2072 1.378 . S
C2074 C2075 1.367 . S
C2075 C2074 1.367 . S
C2075 C2077 1.433 . S
C2076 C2072 1.350 . S
C2076 C2073 1.463 . S
C2076 N2080 1.427 . S
C2077 H2067 0.929 . S
C2077 C2075 1.433 . S
C2077 N2080 1.384 . S
C2078 H2069 0.929 . S
C2078 C2070 1.378 . S
C2078 C2073 1.350 . S
C2079 H2066 0.929 . S
C2079 C2071 1.433 . S
C2079 N2081 1.384 . S
N2080 C2076 1.427 . S
N2080 C2077 1.384 . S
N2081 C2073 1.427 . S
N2081 C2079 1.384 . S
H2082 C2088 0.930 . S
H2083 C2092 0.930 . S
H2084 C2097 0.929 . S
H2085 C2095 0.929 . S
H2086 C2090 0.929 . S
H2087 C2096 0.929 . S
C2088 H2082 0.930 . S
C2088 C2089 1.367 . S
C2088 C2096 1.378 . S
C2089 C2088 1.367 . S
C2089 C2097 1.433 . S
C2090 H2086 0.929 . S
C2090 C2092 1.378 . S
C2090 C2094 1.350 . S
C2091 C2094 1.463 . S
C2091 C2096 1.350 . S
C2091 N2099 1.427 . S
C2092 H2083 0.930 . S
C2092 C2090 1.378 . S
C2092 C2093 1.367 . S
C2093 C2092 1.367 . S
C2093 C2095 1.433 . S
C2094 C2090 1.350 . S
C2094 C2091 1.463 . S
C2094 N2098 1.427 . S
C2095 H2085 0.929 . S
C2095 C2093 1.433 . S
C2095 N2098 1.384 . S
C2096 H2087 0.929 . S
C2096 C2088 1.378 . S
C2096 C2091 1.350 . S
C2097 H2084 0.929 . S
C2097 C2089 1.433 . S
C2097 N2099 1.384 . S
N2098 C2094 1.427 . S
N2098 C2095 1.384 . S
N2099 C2091 1.427 . S
N2099 C2097 1.384 . S
H2100 C2106 0.930 . S
H2101 C2110 0.930 . S
H2102 C2115 0.929 . S
H2103 C2113 0.929 . S
H2104 C2108 0.929 . S
H2105 C2114 0.929 . S
C2106 H2100 0.930 . S
C2106 C2107 1.367 . S
C2106 C2114 1.378 . S
C2107 C2106 1.367 . S
C2107 C2115 1.433 . S
C2108 H2104 0.929 . S
C2108 C2110 1.378 . S
C2108 C2112 1.350 . S
C2109 C2112 1.463 . S
C2109 C2114 1.350 . S
C2109 N2117 1.427 . S
C2110 H2101 0.930 . S
C2110 C2108 1.378 . S
C2110 C2111 1.367 . S
C2111 C2110 1.367 . S
C2111 C2113 1.433 . S
C2112 C2108 1.350 . S
C2112 C2109 1.463 . S
C2112 N2116 1.427 . S
C2113 H2103 0.929 . S
C2113 C2111 1.433 . S
C2113 N2116 1.384 . S
C2114 H2105 0.929 . S
C2114 C2106 1.378 . S
C2114 C2109 1.350 . S
C2115 H2102 0.929 . S
C2115 C2107 1.433 . S
C2115 N2117 1.384 . S
N2116 C2112 1.427 . S
N2116 C2113 1.384 . S
N2117 C2109 1.427 . S
N2117 C2115 1.384 . S
H2118 C2124 0.930 . S
H2119 C2128 0.930 . S
H2120 C2133 0.929 . S
H2121 C2131 0.929 . S
H2122 C2126 0.929 . S
H2123 C2132 0.929 . S
C2124 H2118 0.930 . S
C2124 C2125 1.367 . S
C2124 C2132 1.378 . S
C2125 C2124 1.367 . S
C2125 C2133 1.433 . S
C2126 H2122 0.929 . S
C2126 C2128 1.378 . S
C2126 C2130 1.350 . S
C2127 C2130 1.463 . S
C2127 C2132 1.350 . S
C2127 N2135 1.427 . S
C2128 H2119 0.930 . S
C2128 C2126 1.378 . S
C2128 C2129 1.367 . S
C2129 C2128 1.367 . S
C2129 C2131 1.433 . S
C2130 C2126 1.350 . S
C2130 C2127 1.463 . S
C2130 N2134 1.427 . S
C2131 H2121 0.929 . S
C2131 C2129 1.433 . S
C2131 N2134 1.384 . S
C2132 H2123 0.929 . S
C2132 C2124 1.378 . S
C2132 C2127 1.350 . S
C2133 H2120 0.929 . S
C2133 C2125 1.433 . S
C2133 N2135 1.384 . S
N2134 C2130 1.427 . S
N2134 C2131 1.384 . S
N2135 C2127 1.427 . S
N2135 C2133 1.384 . S
H2136 C2142 0.930 . S
H2137 C2146 0.930 . S
H2138 C2151 0.929 . S
H2139 C2149 0.929 . S
H2140 C2144 0.929 . S
H2141 C2150 0.929 . S
C2142 H2136 0.930 . S
C2142 C2143 1.367 . S
C2142 C2150 1.378 . S
C2143 C2142 1.367 . S
C2143 C2151 1.433 . S
C2144 H2140 0.929 . S
C2144 C2146 1.378 . S
C2144 C2148 1.350 . S
C2145 C2148 1.463 . S
C2145 C2150 1.350 . S
C2145 N2153 1.427 . S
C2146 H2137 0.930 . S
C2146 C2144 1.378 . S
C2146 C2147 1.367 . S
C2147 C2146 1.367 . S
C2147 C2149 1.433 . S
C2148 C2144 1.350 . S
C2148 C2145 1.463 . S
C2148 N2152 1.427 . S
C2149 H2139 0.929 . S
C2149 C2147 1.433 . S
C2149 N2152 1.384 . S
C2150 H2141 0.929 . S
C2150 C2142 1.378 . S
C2150 C2145 1.350 . S
C2151 H2138 0.929 . S
C2151 C2143 1.433 . S
C2151 N2153 1.384 . S
N2152 C2148 1.427 . S
N2152 C2149 1.384 . S
N2153 C2145 1.427 . S
N2153 C2151 1.384 . S
H2154 C2160 0.930 . S
H2155 C2164 0.930 . S
H2156 C2169 0.929 . S
H2157 C2167 0.929 . S
H2158 C2162 0.929 . S
H2159 C2168 0.929 . S
C2160 H2154 0.930 . S
C2160 C2161 1.367 . S
C2160 C2168 1.378 . S
C2161 C2160 1.367 . S
C2161 C2169 1.433 . S
C2162 H2158 0.929 . S
C2162 C2164 1.378 . S
C2162 C2166 1.350 . S
C2163 C2166 1.463 . S
C2163 C2168 1.350 . S
C2163 N2171 1.427 . S
C2164 H2155 0.930 . S
C2164 C2162 1.378 . S
C2164 C2165 1.367 . S
C2165 C2164 1.367 . S
C2165 C2167 1.433 . S
C2166 C2162 1.350 . S
C2166 C2163 1.463 . S
C2166 N2170 1.427 . S
C2167 H2157 0.929 . S
C2167 C2165 1.433 . S
C2167 N2170 1.384 . S
C2168 H2159 0.929 . S
C2168 C2160 1.378 . S
C2168 C2163 1.350 . S
C2169 H2156 0.929 . S
C2169 C2161 1.433 . S
C2169 N2171 1.384 . S
N2170 C2166 1.427 . S
N2170 C2167 1.384 . S
N2171 C2163 1.427 . S
N2171 C2169 1.384 . S
H2172 C2178 0.930 . S
H2173 C2182 0.930 . S
H2174 C2187 0.929 . S
H2175 C2185 0.929 . S
H2176 C2180 0.929 . S
H2177 C2186 0.929 . S
C2178 H2172 0.930 . S
C2178 C2179 1.367 . S
C2178 C2186 1.378 . S
C2179 C2178 1.367 . S
C2179 C2187 1.433 . S
C2180 H2176 0.929 . S
C2180 C2182 1.378 . S
C2180 C2184 1.350 . S
C2181 C2184 1.463 . S
C2181 C2186 1.350 . S
C2181 N2189 1.427 . S
C2182 H2173 0.930 . S
C2182 C2180 1.378 . S
C2182 C2183 1.367 . S
C2183 C2182 1.367 . S
C2183 C2185 1.433 . S
C2184 C2180 1.350 . S
C2184 C2181 1.463 . S
C2184 N2188 1.427 . S
C2185 H2175 0.929 . S
C2185 C2183 1.433 . S
C2185 N2188 1.384 . S
C2186 H2177 0.929 . S
C2186 C2178 1.378 . S
C2186 C2181 1.350 . S
C2187 H2174 0.929 . S
C2187 C2179 1.433 . S
C2187 N2189 1.384 . S
N2188 C2184 1.427 . S
N2188 C2185 1.384 . S
N2189 C2181 1.427 . S
N2189 C2187 1.384 . S
H2190 C2196 0.930 . S
H2191 C2200 0.930 . S
H2192 C2205 0.929 . S
H2193 C2203 0.929 . S
H2194 C2198 0.929 . S
H2195 C2204 0.929 . S
C2196 H2190 0.930 . S
C2196 C2197 1.367 . S
C2196 C2204 1.378 . S
C2197 C2196 1.367 . S
C2197 C2205 1.433 . S
C2198 H2194 0.929 . S
C2198 C2200 1.378 . S
C2198 C2202 1.350 . S
C2199 C2202 1.463 . S
C2199 C2204 1.350 . S
C2199 N2207 1.427 . S
C2200 H2191 0.930 . S
C2200 C2198 1.378 . S
C2200 C2201 1.367 . S
C2201 C2200 1.367 . S
C2201 C2203 1.433 . S
C2202 C2198 1.350 . S
C2202 C2199 1.463 . S
C2202 N2206 1.427 . S
C2203 H2193 0.929 . S
C2203 C2201 1.433 . S
C2203 N2206 1.384 . S
C2204 H2195 0.929 . S
C2204 C2196 1.378 . S
C2204 C2199 1.350 . S
C2205 H2192 0.929 . S
C2205 C2197 1.433 . S
C2205 N2207 1.384 . S
N2206 C2202 1.427 . S
N2206 C2203 1.384 . S
N2207 C2199 1.427 . S
N2207 C2205 1.384 . S
H2208 C2214 0.930 . S
H2209 C2218 0.930 . S
H2210 C2223 0.929 . S
H2211 C2221 0.929 . S
H2212 C2216 0.929 . S
H2213 C2222 0.929 . S
C2214 H2208 0.930 . S
C2214 C2215 1.367 . S
C2214 C2222 1.378 . S
C2215 C2214 1.367 . S
C2215 C2223 1.433 . S
C2216 H2212 0.929 . S
C2216 C2218 1.378 . S
C2216 C2220 1.350 . S
C2217 C2220 1.463 . S
C2217 C2222 1.350 . S
C2217 N2225 1.427 . S
C2218 H2209 0.930 . S
C2218 C2216 1.378 . S
C2218 C2219 1.367 . S
C2219 C2218 1.367 . S
C2219 C2221 1.433 . S
C2220 C2216 1.350 . S
C2220 C2217 1.463 . S
C2220 N2224 1.427 . S
C2221 H2211 0.929 . S
C2221 C2219 1.433 . S
C2221 N2224 1.384 . S
C2222 H2213 0.929 . S
C2222 C2214 1.378 . S
C2222 C2217 1.350 . S
C2223 H2210 0.929 . S
C2223 C2215 1.433 . S
C2223 N2225 1.384 . S
N2224 C2220 1.427 . S
N2224 C2221 1.384 . S
N2225 C2217 1.427 . S
N2225 C2223 1.384 . S
H2226 C2232 0.930 . S
H2227 C2236 0.930 . S
H2228 C2241 0.929 . S
H2229 C2239 0.929 . S
H2230 C2234 0.929 . S
H2231 C2240 0.929 . S
C2232 H2226 0.930 . S
C2232 C2233 1.367 . S
C2232 C2240 1.378 . S
C2233 C2232 1.367 . S
C2233 C2241 1.433 . S
C2234 H2230 0.929 . S
C2234 C2236 1.378 . S
C2234 C2238 1.350 . S
C2235 C2238 1.463 . S
C2235 C2240 1.350 . S
C2235 N2243 1.427 . S
C2236 H2227 0.930 . S
C2236 C2234 1.378 . S
C2236 C2237 1.367 . S
C2237 C2236 1.367 . S
C2237 C2239 1.433 . S
C2238 C2234 1.350 . S
C2238 C2235 1.463 . S
C2238 N2242 1.427 . S
C2239 H2229 0.929 . S
C2239 C2237 1.433 . S
C2239 N2242 1.384 . S
C2240 H2231 0.929 . S
C2240 C2232 1.378 . S
C2240 C2235 1.350 . S
C2241 H2228 0.929 . S
C2241 C2233 1.433 . S
C2241 N2243 1.384 . S
N2242 C2238 1.427 . S
N2242 C2239 1.384 . S
N2243 C2235 1.427 . S
N2243 C2241 1.384 . S
H2244 C2250 0.930 . S
H2245 C2254 0.930 . S
H2246 C2259 0.929 . S
H2247 C2257 0.929 . S
H2248 C2252 0.929 . S
H2249 C2258 0.929 . S
C2250 H2244 0.930 . S
C2250 C2251 1.367 . S
C2250 C2258 1.378 . S
C2251 C2250 1.367 . S
C2251 C2259 1.433 . S
C2252 H2248 0.929 . S
C2252 C2254 1.378 . S
C2252 C2256 1.350 . S
C2253 C2256 1.463 . S
C2253 C2258 1.350 . S
C2253 N2261 1.427 . S
C2254 H2245 0.930 . S
C2254 C2252 1.378 . S
C2254 C2255 1.367 . S
C2255 C2254 1.367 . S
C2255 C2257 1.433 . S
C2256 C2252 1.350 . S
C2256 C2253 1.463 . S
C2256 N2260 1.427 . S
C2257 H2247 0.929 . S
C2257 C2255 1.433 . S
C2257 N2260 1.384 . S
C2258 H2249 0.929 . S
C2258 C2250 1.378 . S
C2258 C2253 1.350 . S
C2259 H2246 0.929 . S
C2259 C2251 1.433 . S
C2259 N2261 1.384 . S
N2260 C2256 1.427 . S
N2260 C2257 1.384 . S
N2261 C2253 1.427 . S
N2261 C2259 1.384 . S
H2262 C2268 0.930 . S
H2263 C2272 0.930 . S
H2264 C2277 0.929 . S
H2265 C2275 0.929 . S
H2266 C2270 0.929 . S
H2267 C2276 0.929 . S
C2268 H2262 0.930 . S
C2268 C2269 1.367 . S
C2268 C2276 1.378 . S
C2269 C2268 1.367 . S
C2269 C2277 1.433 . S
C2270 H2266 0.929 . S
C2270 C2272 1.378 . S
C2270 C2274 1.350 . S
C2271 C2274 1.463 . S
C2271 C2276 1.350 . S
C2271 N2279 1.427 . S
C2272 H2263 0.930 . S
C2272 C2270 1.378 . S
C2272 C2273 1.367 . S
C2273 C2272 1.367 . S
C2273 C2275 1.433 . S
C2274 C2270 1.350 . S
C2274 C2271 1.463 . S
C2274 N2278 1.427 . S
C2275 H2265 0.929 . S
C2275 C2273 1.433 . S
C2275 N2278 1.384 . S
C2276 H2267 0.929 . S
C2276 C2268 1.378 . S
C2276 C2271 1.350 . S
C2277 H2264 0.929 . S
C2277 C2269 1.433 . S
C2277 N2279 1.384 . S
N2278 C2274 1.427 . S
N2278 C2275 1.384 . S
N2279 C2271 1.427 . S
N2279 C2277 1.384 . S
H2280 C2286 0.930 . S
H2281 C2290 0.930 . S
H2282 C2295 0.929 . S
H2283 C2293 0.929 . S
H2284 C2288 0.929 . S
H2285 C2294 0.929 . S
C2286 H2280 0.930 . S
C2286 C2287 1.367 . S
C2286 C2294 1.378 . S
C2287 C2286 1.367 . S
C2287 C2295 1.433 . S
C2288 H2284 0.929 . S
C2288 C2290 1.378 . S
C2288 C2292 1.350 . S
C2289 C2292 1.463 . S
C2289 C2294 1.350 . S
C2289 N2297 1.427 . S
C2290 H2281 0.930 . S
C2290 C2288 1.378 . S
C2290 C2291 1.367 . S
C2291 C2290 1.367 . S
C2291 C2293 1.433 . S
C2292 C2288 1.350 . S
C2292 C2289 1.463 . S
C2292 N2296 1.427 . S
C2293 H2283 0.929 . S
C2293 C2291 1.433 . S
C2293 N2296 1.384 . S
C2294 H2285 0.929 . S
C2294 C2286 1.378 . S
C2294 C2289 1.350 . S
C2295 H2282 0.929 . S
C2295 C2287 1.433 . S
C2295 N2297 1.384 . S
N2296 C2292 1.427 . S
N2296 C2293 1.384 . S
N2297 C2289 1.427 . S
N2297 C2295 1.384 . S
H2298 C2304 0.930 . S
H2299 C2308 0.930 . S
H2300 C2313 0.929 . S
H2301 C2311 0.929 . S
H2302 C2306 0.929 . S
H2303 C2312 0.929 . S
C2304 H2298 0.930 . S
C2304 C2305 1.367 . S
C2304 C2312 1.378 . S
C2305 C2304 1.367 . S
C2305 C2313 1.433 . S
C2306 H2302 0.929 . S
C2306 C2308 1.378 . S
C2306 C2310 1.350 . S
C2307 C2310 1.463 . S
C2307 C2312 1.350 . S
C2307 N2315 1.427 . S
C2308 H2299 0.930 . S
C2308 C2306 1.378 . S
C2308 C2309 1.367 . S
C2309 C2308 1.367 . S
C2309 C2311 1.433 . S
C2310 C2306 1.350 . S
C2310 C2307 1.463 . S
C2310 N2314 1.427 . S
C2311 H2301 0.929 . S
C2311 C2309 1.433 . S
C2311 N2314 1.384 . S
C2312 H2303 0.929 . S
C2312 C2304 1.378 . S
C2312 C2307 1.350 . S
C2313 H2300 0.929 . S
C2313 C2305 1.433 . S
C2313 N2315 1.384 . S
N2314 C2310 1.427 . S
N2314 C2311 1.384 . S
N2315 C2307 1.427 . S
N2315 C2313 1.384 . S
H2316 C2322 0.930 . S
H2317 C2326 0.930 . S
H2318 C2331 0.929 . S
H2319 C2329 0.929 . S
H2320 C2324 0.929 . S
H2321 C2330 0.929 . S
C2322 H2316 0.930 . S
C2322 C2323 1.367 . S
C2322 C2330 1.378 . S
C2323 C2322 1.367 . S
C2323 C2331 1.433 . S
C2324 H2320 0.929 . S
C2324 C2326 1.378 . S
C2324 C2328 1.350 . S
C2325 C2328 1.463 . S
C2325 C2330 1.350 . S
C2325 N2333 1.427 . S
C2326 H2317 0.930 . S
C2326 C2324 1.378 . S
C2326 C2327 1.367 . S
C2327 C2326 1.367 . S
C2327 C2329 1.433 . S
C2328 C2324 1.350 . S
C2328 C2325 1.463 . S
C2328 N2332 1.427 . S
C2329 H2319 0.929 . S
C2329 C2327 1.433 . S
C2329 N2332 1.384 . S
C2330 H2321 0.929 . S
C2330 C2322 1.378 . S
C2330 C2325 1.350 . S
C2331 H2318 0.929 . S
C2331 C2323 1.433 . S
C2331 N2333 1.384 . S
N2332 C2328 1.427 . S
N2332 C2329 1.384 . S
N2333 C2325 1.427 . S
N2333 C2331 1.384 . S
H2334 C2340 0.930 . S
H2335 C2344 0.930 . S
H2336 C2349 0.929 . S
H2337 C2347 0.929 . S
H2338 C2342 0.929 . S
H2339 C2348 0.929 . S
C2340 H2334 0.930 . S
C2340 C2341 1.367 . S
C2340 C2348 1.378 . S
C2341 C2340 1.367 . S
C2341 C2349 1.433 . S
C2342 H2338 0.929 . S
C2342 C2344 1.378 . S
C2342 C2346 1.350 . S
C2343 C2346 1.463 . S
C2343 C2348 1.350 . S
C2343 N2351 1.427 . S
C2344 H2335 0.930 . S
C2344 C2342 1.378 . S
C2344 C2345 1.367 . S
C2345 C2344 1.367 . S
C2345 C2347 1.433 . S
C2346 C2342 1.350 . S
C2346 C2343 1.463 . S
C2346 N2350 1.427 . S
C2347 H2337 0.929 . S
C2347 C2345 1.433 . S
C2347 N2350 1.384 . S
C2348 H2339 0.929 . S
C2348 C2340 1.378 . S
C2348 C2343 1.350 . S
C2349 H2336 0.929 . S
C2349 C2341 1.433 . S
C2349 N2351 1.384 . S
N2350 C2346 1.427 . S
N2350 C2347 1.384 . S
N2351 C2343 1.427 . S
N2351 C2349 1.384 . S
H2352 C2358 0.930 . S
H2353 C2362 0.930 . S
H2354 C2367 0.929 . S
H2355 C2365 0.929 . S
H2356 C2360 0.929 . S
H2357 C2366 0.929 . S
C2358 H2352 0.930 . S
C2358 C2359 1.367 . S
C2358 C2366 1.378 . S
C2359 C2358 1.367 . S
C2359 C2367 1.433 . S
C2360 H2356 0.929 . S
C2360 C2362 1.378 . S
C2360 C2364 1.350 . S
C2361 C2364 1.463 . S
C2361 C2366 1.350 . S
C2361 N2369 1.427 . S
C2362 H2353 0.930 . S
C2362 C2360 1.378 . S
C2362 C2363 1.367 . S
C2363 C2362 1.367 . S
C2363 C2365 1.433 . S
C2364 C2360 1.350 . S
C2364 C2361 1.463 . S
C2364 N2368 1.427 . S
C2365 H2355 0.929 . S
C2365 C2363 1.433 . S
C2365 N2368 1.384 . S
C2366 H2357 0.929 . S
C2366 C2358 1.378 . S
C2366 C2361 1.350 . S
C2367 H2354 0.929 . S
C2367 C2359 1.433 . S
C2367 N2369 1.384 . S
N2368 C2364 1.427 . S
N2368 C2365 1.384 . S
N2369 C2361 1.427 . S
N2369 C2367 1.384 . S
H2370 C2376 0.930 . S
H2371 C2380 0.930 . S
H2372 C2385 0.929 . S
H2373 C2383 0.929 . S
H2374 C2378 0.929 . S
H2375 C2384 0.929 . S
C2376 H2370 0.930 . S
C2376 C2377 1.367 . S
C2376 C2384 1.378 . S
C2377 C2376 1.367 . S
C2377 C2385 1.433 . S
C2378 H2374 0.929 . S
C2378 C2380 1.378 . S
C2378 C2382 1.350 . S
C2379 C2382 1.463 . S
C2379 C2384 1.350 . S
C2379 N2387 1.427 . S
C2380 H2371 0.930 . S
C2380 C2378 1.378 . S
C2380 C2381 1.367 . S
C2381 C2380 1.367 . S
C2381 C2383 1.433 . S
C2382 C2378 1.350 . S
C2382 C2379 1.463 . S
C2382 N2386 1.427 . S
C2383 H2373 0.929 . S
C2383 C2381 1.433 . S
C2383 N2386 1.384 . S
C2384 H2375 0.929 . S
C2384 C2376 1.378 . S
C2384 C2379 1.350 . S
C2385 H2372 0.929 . S
C2385 C2377 1.433 . S
C2385 N2387 1.384 . S
N2386 C2382 1.427 . S
N2386 C2383 1.384 . S
N2387 C2379 1.427 . S
N2387 C2385 1.384 . S
H2388 C2394 0.930 . S
H2389 C2398 0.930 . S
H2390 C2403 0.929 . S
H2391 C2401 0.929 . S
H2392 C2396 0.929 . S
H2393 C2402 0.929 . S
C2394 H2388 0.930 . S
C2394 C2395 1.367 . S
C2394 C2402 1.378 . S
C2395 C2394 1.367 . S
C2395 C2403 1.433 . S
C2396 H2392 0.929 . S
C2396 C2398 1.378 . S
C2396 C2400 1.350 . S
C2397 C2400 1.463 . S
C2397 C2402 1.350 . S
C2397 N2405 1.427 . S
C2398 H2389 0.930 . S
C2398 C2396 1.378 . S
C2398 C2399 1.367 . S
C2399 C2398 1.367 . S
C2399 C2401 1.433 . S
C2400 C2396 1.350 . S
C2400 C2397 1.463 . S
C2400 N2404 1.427 . S
C2401 H2391 0.929 . S
C2401 C2399 1.433 . S
C2401 N2404 1.384 . S
C2402 H2393 0.929 . S
C2402 C2394 1.378 . S
C2402 C2397 1.350 . S
C2403 H2390 0.929 . S
C2403 C2395 1.433 . S
C2403 N2405 1.384 . S
N2404 C2400 1.427 . S
N2404 C2401 1.384 . S
N2405 C2397 1.427 . S
N2405 C2403 1.384 . S
H2406 C2412 0.930 . S
H2407 C2416 0.930 . S
H2408 C2421 0.929 . S
H2409 C2419 0.929 . S
H2410 C2414 0.929 . S
H2411 C2420 0.929 . S
C2412 H2406 0.930 . S
C2412 C2413 1.367 . S
C2412 C2420 1.378 . S
C2413 C2412 1.367 . S
C2413 C2421 1.433 . S
C2414 H2410 0.929 . S
C2414 C2416 1.378 . S
C2414 C2418 1.350 . S
C2415 C2418 1.463 . S
C2415 C2420 1.350 . S
C2415 N2423 1.427 . S
C2416 H2407 0.930 . S
C2416 C2414 1.378 . S
C2416 C2417 1.367 . S
C2417 C2416 1.367 . S
C2417 C2419 1.433 . S
C2418 C2414 1.350 . S
C2418 C2415 1.463 . S
C2418 N2422 1.427 . S
C2419 H2409 0.929 . S
C2419 C2417 1.433 . S
C2419 N2422 1.384 . S
C2420 H2411 0.929 . S
C2420 C2412 1.378 . S
C2420 C2415 1.350 . S
C2421 H2408 0.929 . S
C2421 C2413 1.433 . S
C2421 N2423 1.384 . S
N2422 C2418 1.427 . S
N2422 C2419 1.384 . S
N2423 C2415 1.427 . S
N2423 C2421 1.384 . S
H2424 C2430 0.930 . S
H2425 C2434 0.930 . S
H2426 C2439 0.929 . S
H2427 C2437 0.929 . S
H2428 C2432 0.929 . S
H2429 C2438 0.929 . S
C2430 H2424 0.930 . S
C2430 C2431 1.367 . S
C2430 C2438 1.378 . S
C2431 C2430 1.367 . S
C2431 C2439 1.433 . S
C2432 H2428 0.929 . S
C2432 C2434 1.378 . S
C2432 C2436 1.350 . S
C2433 C2436 1.463 . S
C2433 C2438 1.350 . S
C2433 N2441 1.427 . S
C2434 H2425 0.930 . S
C2434 C2432 1.378 . S
C2434 C2435 1.367 . S
C2435 C2434 1.367 . S
C2435 C2437 1.433 . S
C2436 C2432 1.350 . S
C2436 C2433 1.463 . S
C2436 N2440 1.427 . S
C2437 H2427 0.929 . S
C2437 C2435 1.433 . S
C2437 N2440 1.384 . S
C2438 H2429 0.929 . S
C2438 C2430 1.378 . S
C2438 C2433 1.350 . S
C2439 H2426 0.929 . S
C2439 C2431 1.433 . S
C2439 N2441 1.384 . S
N2440 C2436 1.427 . S
N2440 C2437 1.384 . S
N2441 C2433 1.427 . S
N2441 C2439 1.384 . S
H2442 C2448 0.930 . S
H2443 C2452 0.930 . S
H2444 C2457 0.929 . S
H2445 C2455 0.929 . S
H2446 C2450 0.929 . S
H2447 C2456 0.929 . S
C2448 H2442 0.930 . S
C2448 C2449 1.367 . S
C2448 C2456 1.378 . S
C2449 C2448 1.367 . S
C2449 C2457 1.433 . S
C2450 H2446 0.929 . S
C2450 C2452 1.378 . S
C2450 C2454 1.350 . S
C2451 C2454 1.463 . S
C2451 C2456 1.350 . S
C2451 N2459 1.427 . S
C2452 H2443 0.930 . S
C2452 C2450 1.378 . S
C2452 C2453 1.367 . S
C2453 C2452 1.367 . S
C2453 C2455 1.433 . S
C2454 C2450 1.350 . S
C2454 C2451 1.463 . S
C2454 N2458 1.427 . S
C2455 H2445 0.929 . S
C2455 C2453 1.433 . S
C2455 N2458 1.384 . S
C2456 H2447 0.929 . S
C2456 C2448 1.378 . S
C2456 C2451 1.350 . S
C2457 H2444 0.929 . S
C2457 C2449 1.433 . S
C2457 N2459 1.384 . S
N2458 C2454 1.427 . S
N2458 C2455 1.384 . S
N2459 C2451 1.427 . S
N2459 C2457 1.384 . S
H2460 C2466 0.930 . S
H2461 C2470 0.930 . S
H2462 C2475 0.929 . S
H2463 C2473 0.929 . S
H2464 C2468 0.929 . S
H2465 C2474 0.929 . S
C2466 H2460 0.930 . S
C2466 C2467 1.367 . S
C2466 C2474 1.378 . S
C2467 C2466 1.367 . S
C2467 C2475 1.433 . S
C2468 H2464 0.929 . S
C2468 C2470 1.378 . S
C2468 C2472 1.350 . S
C2469 C2472 1.463 . S
C2469 C2474 1.350 . S
C2469 N2477 1.427 . S
C2470 H2461 0.930 . S
C2470 C2468 1.378 . S
C2470 C2471 1.367 . S
C2471 C2470 1.367 . S
C2471 C2473 1.433 . S
C2472 C2468 1.350 . S
C2472 C2469 1.463 . S
C2472 N2476 1.427 . S
C2473 H2463 0.929 . S
C2473 C2471 1.433 . S
C2473 N2476 1.384 . S
C2474 H2465 0.929 . S
C2474 C2466 1.378 . S
C2474 C2469 1.350 . S
C2475 H2462 0.929 . S
C2475 C2467 1.433 . S
C2475 N2477 1.384 . S
N2476 C2472 1.427 . S
N2476 C2473 1.384 . S
N2477 C2469 1.427 . S
N2477 C2475 1.384 . S
H2478 C2484 0.930 . S
H2479 C2488 0.930 . S
H2480 C2493 0.929 . S
H2481 C2491 0.929 . S
H2482 C2486 0.929 . S
H2483 C2492 0.929 . S
C2484 H2478 0.930 . S
C2484 C2485 1.367 . S
C2484 C2492 1.378 . S
C2485 C2484 1.367 . S
C2485 C2493 1.433 . S
C2486 H2482 0.929 . S
C2486 C2488 1.378 . S
C2486 C2490 1.350 . S
C2487 C2490 1.463 . S
C2487 C2492 1.350 . S
C2487 N2495 1.427 . S
C2488 H2479 0.930 . S
C2488 C2486 1.378 . S
C2488 C2489 1.367 . S
C2489 C2488 1.367 . S
C2489 C2491 1.433 . S
C2490 C2486 1.350 . S
C2490 C2487 1.463 . S
C2490 N2494 1.427 . S
C2491 H2481 0.929 . S
C2491 C2489 1.433 . S
C2491 N2494 1.384 . S
C2492 H2483 0.929 . S
C2492 C2484 1.378 . S
C2492 C2487 1.350 . S
C2493 H2480 0.929 . S
C2493 C2485 1.433 . S
C2493 N2495 1.384 . S
N2494 C2490 1.427 . S
N2494 C2491 1.384 . S
N2495 C2487 1.427 . S
N2495 C2493 1.384 . S
H2496 C2502 0.930 . S
H2497 C2506 0.930 . S
H2498 C2511 0.929 . S
H2499 C2509 0.929 . S
H2500 C2504 0.929 . S
H2501 C2510 0.929 . S
C2502 H2496 0.930 . S
C2502 C2503 1.367 . S
C2502 C2510 1.378 . S
C2503 C2502 1.367 . S
C2503 C2511 1.433 . S
C2504 H2500 0.929 . S
C2504 C2506 1.378 . S
C2504 C2508 1.350 . S
C2505 C2508 1.463 . S
C2505 C2510 1.350 . S
C2505 N2513 1.427 . S
C2506 H2497 0.930 . S
C2506 C2504 1.378 . S
C2506 C2507 1.367 . S
C2507 C2506 1.367 . S
C2507 C2509 1.433 . S
C2508 C2504 1.350 . S
C2508 C2505 1.463 . S
C2508 N2512 1.427 . S
C2509 H2499 0.929 . S
C2509 C2507 1.433 . S
C2509 N2512 1.384 . S
C2510 H2501 0.929 . S
C2510 C2502 1.378 . S
C2510 C2505 1.350 . S
C2511 H2498 0.929 . S
C2511 C2503 1.433 . S
C2511 N2513 1.384 . S
N2512 C2508 1.427 . S
N2512 C2509 1.384 . S
N2513 C2505 1.427 . S
N2513 C2511 1.384 . S
H2514 C2520 0.930 . S
H2515 C2524 0.930 . S
H2516 C2529 0.929 . S
H2517 C2527 0.929 . S
H2518 C2522 0.929 . S
H2519 C2528 0.929 . S
C2520 H2514 0.930 . S
C2520 C2521 1.367 . S
C2520 C2528 1.378 . S
C2521 C2520 1.367 . S
C2521 C2529 1.433 . S
C2522 H2518 0.929 . S
C2522 C2524 1.378 . S
C2522 C2526 1.350 . S
C2523 C2526 1.463 . S
C2523 C2528 1.350 . S
C2523 N2531 1.427 . S
C2524 H2515 0.930 . S
C2524 C2522 1.378 . S
C2524 C2525 1.367 . S
C2525 C2524 1.367 . S
C2525 C2527 1.433 . S
C2526 C2522 1.350 . S
C2526 C2523 1.463 . S
C2526 N2530 1.427 . S
C2527 H2517 0.929 . S
C2527 C2525 1.433 . S
C2527 N2530 1.384 . S
C2528 H2519 0.929 . S
C2528 C2520 1.378 . S
C2528 C2523 1.350 . S
C2529 H2516 0.929 . S
C2529 C2521 1.433 . S
C2529 N2531 1.384 . S
N2530 C2526 1.427 . S
N2530 C2527 1.384 . S
N2531 C2523 1.427 . S
N2531 C2529 1.384 . S
H2532 C2538 0.930 . S
H2533 C2542 0.930 . S
H2534 C2547 0.929 . S
H2535 C2545 0.929 . S
H2536 C2540 0.929 . S
H2537 C2546 0.929 . S
C2538 H2532 0.930 . S
C2538 C2539 1.367 . S
C2538 C2546 1.378 . S
C2539 C2538 1.367 . S
C2539 C2547 1.433 . S
C2540 H2536 0.929 . S
C2540 C2542 1.378 . S
C2540 C2544 1.350 . S
C2541 C2544 1.463 . S
C2541 C2546 1.350 . S
C2541 N2549 1.427 . S
C2542 H2533 0.930 . S
C2542 C2540 1.378 . S
C2542 C2543 1.367 . S
C2543 C2542 1.367 . S
C2543 C2545 1.433 . S
C2544 C2540 1.350 . S
C2544 C2541 1.463 . S
C2544 N2548 1.427 . S
C2545 H2535 0.929 . S
C2545 C2543 1.433 . S
C2545 N2548 1.384 . S
C2546 H2537 0.929 . S
C2546 C2538 1.378 . S
C2546 C2541 1.350 . S
C2547 H2534 0.929 . S
C2547 C2539 1.433 . S
C2547 N2549 1.384 . S
N2548 C2544 1.427 . S
N2548 C2545 1.384 . S
N2549 C2541 1.427 . S
N2549 C2547 1.384 . S
H2550 C2556 0.930 . S
H2551 C2560 0.930 . S
H2552 C2565 0.929 . S
H2553 C2563 0.929 . S
H2554 C2558 0.929 . S
H2555 C2564 0.929 . S
C2556 H2550 0.930 . S
C2556 C2557 1.367 . S
C2556 C2564 1.378 . S
C2557 C2556 1.367 . S
C2557 C2565 1.433 . S
C2558 H2554 0.929 . S
C2558 C2560 1.378 . S
C2558 C2562 1.350 . S
C2559 C2562 1.463 . S
C2559 C2564 1.350 . S
C2559 N2567 1.427 . S
C2560 H2551 0.930 . S
C2560 C2558 1.378 . S
C2560 C2561 1.367 . S
C2561 C2560 1.367 . S
C2561 C2563 1.433 . S
C2562 C2558 1.350 . S
C2562 C2559 1.463 . S
C2562 N2566 1.427 . S
C2563 H2553 0.929 . S
C2563 C2561 1.433 . S
C2563 N2566 1.384 . S
C2564 H2555 0.929 . S
C2564 C2556 1.378 . S
C2564 C2559 1.350 . S
C2565 H2552 0.929 . S
C2565 C2557 1.433 . S
C2565 N2567 1.384 . S
N2566 C2562 1.427 . S
N2566 C2563 1.384 . S
N2567 C2559 1.427 . S
N2567 C2565 1.384 . S
H2568 C2574 0.930 . S
H2569 C2578 0.930 . S
H2570 C2583 0.929 . S
H2571 C2581 0.929 . S
H2572 C2576 0.929 . S
H2573 C2582 0.929 . S
C2574 H2568 0.930 . S
C2574 C2575 1.367 . S
C2574 C2582 1.378 . S
C2575 C2574 1.367 . S
C2575 C2583 1.433 . S
C2576 H2572 0.929 . S
C2576 C2578 1.378 . S
C2576 C2580 1.350 . S
C2577 C2580 1.463 . S
C2577 C2582 1.350 . S
C2577 N2585 1.427 . S
C2578 H2569 0.930 . S
C2578 C2576 1.378 . S
C2578 C2579 1.367 . S
C2579 C2578 1.367 . S
C2579 C2581 1.433 . S
C2580 C2576 1.350 . S
C2580 C2577 1.463 . S
C2580 N2584 1.427 . S
C2581 H2571 0.929 . S
C2581 C2579 1.433 . S
C2581 N2584 1.384 . S
C2582 H2573 0.929 . S
C2582 C2574 1.378 . S
C2582 C2577 1.350 . S
C2583 H2570 0.929 . S
C2583 C2575 1.433 . S
C2583 N2585 1.384 . S
N2584 C2580 1.427 . S
N2584 C2581 1.384 . S
N2585 C2577 1.427 . S
N2585 C2583 1.384 . S
H2586 C2592 0.930 . S
H2587 C2596 0.930 . S
H2588 C2601 0.929 . S
H2589 C2599 0.929 . S
H2590 C2594 0.929 . S
H2591 C2600 0.929 . S
C2592 H2586 0.930 . S
C2592 C2593 1.367 . S
C2592 C2600 1.378 . S
C2593 C2592 1.367 . S
C2593 C2601 1.433 . S
C2594 H2590 0.929 . S
C2594 C2596 1.378 . S
C2594 C2598 1.350 . S
C2595 C2598 1.463 . S
C2595 C2600 1.350 . S
C2595 N2603 1.427 . S
C2596 H2587 0.930 . S
C2596 C2594 1.378 . S
C2596 C2597 1.367 . S
C2597 C2596 1.367 . S
C2597 C2599 1.433 . S
C2598 C2594 1.350 . S
C2598 C2595 1.463 . S
C2598 N2602 1.427 . S
C2599 H2589 0.929 . S
C2599 C2597 1.433 . S
C2599 N2602 1.384 . S
C2600 H2591 0.929 . S
C2600 C2592 1.378 . S
C2600 C2595 1.350 . S
C2601 H2588 0.929 . S
C2601 C2593 1.433 . S
C2601 N2603 1.384 . S
N2602 C2598 1.427 . S
N2602 C2599 1.384 . S
N2603 C2595 1.427 . S
N2603 C2601 1.384 . S
H2604 C2610 0.930 . S
H2605 C2614 0.930 . S
H2606 C2619 0.929 . S
H2607 C2617 0.929 . S
H2608 C2612 0.929 . S
H2609 C2618 0.929 . S
C2610 H2604 0.930 . S
C2610 C2611 1.367 . S
C2610 C2618 1.378 . S
C2611 C2610 1.367 . S
C2611 C2619 1.433 . S
C2612 H2608 0.929 . S
C2612 C2614 1.378 . S
C2612 C2616 1.350 . S
C2613 C2616 1.463 . S
C2613 C2618 1.350 . S
C2613 N2621 1.427 . S
C2614 H2605 0.930 . S
C2614 C2612 1.378 . S
C2614 C2615 1.367 . S
C2615 C2614 1.367 . S
C2615 C2617 1.433 . S
C2616 C2612 1.350 . S
C2616 C2613 1.463 . S
C2616 N2620 1.427 . S
C2617 H2607 0.929 . S
C2617 C2615 1.433 . S
C2617 N2620 1.384 . S
C2618 H2609 0.929 . S
C2618 C2610 1.378 . S
C2618 C2613 1.350 . S
C2619 H2606 0.929 . S
C2619 C2611 1.433 . S
C2619 N2621 1.384 . S
N2620 C2616 1.427 . S
N2620 C2617 1.384 . S
N2621 C2613 1.427 . S
N2621 C2619 1.384 . S
H2622 C2628 0.930 . S
H2623 C2632 0.930 . S
H2624 C2637 0.929 . S
H2625 C2635 0.929 . S
H2626 C2630 0.929 . S
H2627 C2636 0.929 . S
C2628 H2622 0.930 . S
C2628 C2629 1.367 . S
C2628 C2636 1.378 . S
C2629 C2628 1.367 . S
C2629 C2637 1.433 . S
C2630 H2626 0.929 . S
C2630 C2632 1.378 . S
C2630 C2634 1.350 . S
C2631 C2634 1.463 . S
C2631 C2636 1.350 . S
C2631 N2639 1.427 . S
C2632 H2623 0.930 . S
C2632 C2630 1.378 . S
C2632 C2633 1.367 . S
C2633 C2632 1.367 . S
C2633 C2635 1.433 . S
C2634 C2630 1.350 . S
C2634 C2631 1.463 . S
C2634 N2638 1.427 . S
C2635 H2625 0.929 . S
C2635 C2633 1.433 . S
C2635 N2638 1.384 . S
C2636 H2627 0.929 . S
C2636 C2628 1.378 . S
C2636 C2631 1.350 . S
C2637 H2624 0.929 . S
C2637 C2629 1.433 . S
C2637 N2639 1.384 . S
N2638 C2634 1.427 . S
N2638 C2635 1.384 . S
N2639 C2631 1.427 . S
N2639 C2637 1.384 . S
H2640 C2646 0.930 . S
H2641 C2650 0.930 . S
H2642 C2655 0.929 . S
H2643 C2653 0.929 . S
H2644 C2648 0.929 . S
H2645 C2654 0.929 . S
C2646 H2640 0.930 . S
C2646 C2647 1.367 . S
C2646 C2654 1.378 . S
C2647 C2646 1.367 . S
C2647 C2655 1.433 . S
C2648 H2644 0.929 . S
C2648 C2650 1.378 . S
C2648 C2652 1.350 . S
C2649 C2652 1.463 . S
C2649 C2654 1.350 . S
C2649 N2657 1.427 . S
C2650 H2641 0.930 . S
C2650 C2648 1.378 . S
C2650 C2651 1.367 . S
C2651 C2650 1.367 . S
C2651 C2653 1.433 . S
C2652 C2648 1.350 . S
C2652 C2649 1.463 . S
C2652 N2656 1.427 . S
C2653 H2643 0.929 . S
C2653 C2651 1.433 . S
C2653 N2656 1.384 . S
C2654 H2645 0.929 . S
C2654 C2646 1.378 . S
C2654 C2649 1.350 . S
C2655 H2642 0.929 . S
C2655 C2647 1.433 . S
C2655 N2657 1.384 . S
N2656 C2652 1.427 . S
N2656 C2653 1.384 . S
N2657 C2649 1.427 . S
N2657 C2655 1.384 . S
H2658 C2664 0.930 . S
H2659 C2668 0.930 . S
H2660 C2673 0.929 . S
H2661 C2671 0.929 . S
H2662 C2666 0.929 . S
H2663 C2672 0.929 . S
C2664 H2658 0.930 . S
C2664 C2665 1.367 . S
C2664 C2672 1.378 . S
C2665 C2664 1.367 . S
C2665 C2673 1.433 . S
C2666 H2662 0.929 . S
C2666 C2668 1.378 . S
C2666 C2670 1.350 . S
C2667 C2670 1.463 . S
C2667 C2672 1.350 . S
C2667 N2675 1.427 . S
C2668 H2659 0.930 . S
C2668 C2666 1.378 . S
C2668 C2669 1.367 . S
C2669 C2668 1.367 . S
C2669 C2671 1.433 . S
C2670 C2666 1.350 . S
C2670 C2667 1.463 . S
C2670 N2674 1.427 . S
C2671 H2661 0.929 . S
C2671 C2669 1.433 . S
C2671 N2674 1.384 . S
C2672 H2663 0.929 . S
C2672 C2664 1.378 . S
C2672 C2667 1.350 . S
C2673 H2660 0.929 . S
C2673 C2665 1.433 . S
C2673 N2675 1.384 . S
N2674 C2670 1.427 . S
N2674 C2671 1.384 . S
N2675 C2667 1.427 . S
N2675 C2673 1.384 . S
H2676 C2682 0.930 . S
H2677 C2686 0.930 . S
H2678 C2691 0.929 . S
H2679 C2689 0.929 . S
H2680 C2684 0.929 . S
H2681 C2690 0.929 . S
C2682 H2676 0.930 . S
C2682 C2683 1.367 . S
C2682 C2690 1.378 . S
C2683 C2682 1.367 . S
C2683 C2691 1.433 . S
C2684 H2680 0.929 . S
C2684 C2686 1.378 . S
C2684 C2688 1.350 . S
C2685 C2688 1.463 . S
C2685 C2690 1.350 . S
C2685 N2693 1.427 . S
C2686 H2677 0.930 . S
C2686 C2684 1.378 . S
C2686 C2687 1.367 . S
C2687 C2686 1.367 . S
C2687 C2689 1.433 . S
C2688 C2684 1.350 . S
C2688 C2685 1.463 . S
C2688 N2692 1.427 . S
C2689 H2679 0.929 . S
C2689 C2687 1.433 . S
C2689 N2692 1.384 . S
C2690 H2681 0.929 . S
C2690 C2682 1.378 . S
C2690 C2685 1.350 . S
C2691 H2678 0.929 . S
C2691 C2683 1.433 . S
C2691 N2693 1.384 . S
N2692 C2688 1.427 . S
N2692 C2689 1.384 . S
N2693 C2685 1.427 . S
N2693 C2691 1.384 . S
H2694 C2700 0.930 . S
H2695 C2704 0.930 . S
H2696 C2709 0.929 . S
H2697 C2707 0.929 . S
H2698 C2702 0.929 . S
H2699 C2708 0.929 . S
C2700 H2694 0.930 . S
C2700 C2701 1.367 . S
C2700 C2708 1.378 . S
C2701 C2700 1.367 . S
C2701 C2709 1.433 . S
C2702 H2698 0.929 . S
C2702 C2704 1.378 . S
C2702 C2706 1.350 . S
C2703 C2706 1.463 . S
C2703 C2708 1.350 . S
C2703 N2711 1.427 . S
C2704 H2695 0.930 . S
C2704 C2702 1.378 . S
C2704 C2705 1.367 . S
C2705 C2704 1.367 . S
C2705 C2707 1.433 . S
C2706 C2702 1.350 . S
C2706 C2703 1.463 . S
C2706 N2710 1.427 . S
C2707 H2697 0.929 . S
C2707 C2705 1.433 . S
C2707 N2710 1.384 . S
C2708 H2699 0.929 . S
C2708 C2700 1.378 . S
C2708 C2703 1.350 . S
C2709 H2696 0.929 . S
C2709 C2701 1.433 . S
C2709 N2711 1.384 . S
N2710 C2706 1.427 . S
N2710 C2707 1.384 . S
N2711 C2703 1.427 . S
N2711 C2709 1.384 . S
H2712 C2718 0.930 . S
H2713 C2722 0.930 . S
H2714 C2727 0.929 . S
H2715 C2725 0.929 . S
H2716 C2720 0.929 . S
H2717 C2726 0.929 . S
C2718 H2712 0.930 . S
C2718 C2719 1.367 . S
C2718 C2726 1.378 . S
C2719 C2718 1.367 . S
C2719 C2727 1.433 . S
C2720 H2716 0.929 . S
C2720 C2722 1.378 . S
C2720 C2724 1.350 . S
C2721 C2724 1.463 . S
C2721 C2726 1.350 . S
C2721 N2729 1.427 . S
C2722 H2713 0.930 . S
C2722 C2720 1.378 . S
C2722 C2723 1.367 . S
C2723 C2722 1.367 . S
C2723 C2725 1.433 . S
C2724 C2720 1.350 . S
C2724 C2721 1.463 . S
C2724 N2728 1.427 . S
C2725 H2715 0.929 . S
C2725 C2723 1.433 . S
C2725 N2728 1.384 . S
C2726 H2717 0.929 . S
C2726 C2718 1.378 . S
C2726 C2721 1.350 . S
C2727 H2714 0.929 . S
C2727 C2719 1.433 . S
C2727 N2729 1.384 . S
N2728 C2724 1.427 . S
N2728 C2725 1.384 . S
N2729 C2721 1.427 . S
N2729 C2727 1.384 . S
H2730 C2736 0.930 . S
H2731 C2740 0.930 . S
H2732 C2745 0.929 . S
H2733 C2743 0.929 . S
H2734 C2738 0.929 . S
H2735 C2744 0.929 . S
C2736 H2730 0.930 . S
C2736 C2737 1.367 . S
C2736 C2744 1.378 . S
C2737 C2736 1.367 . S
C2737 C2745 1.433 . S
C2738 H2734 0.929 . S
C2738 C2740 1.378 . S
C2738 C2742 1.350 . S
C2739 C2742 1.463 . S
C2739 C2744 1.350 . S
C2739 N2747 1.427 . S
C2740 H2731 0.930 . S
C2740 C2738 1.378 . S
C2740 C2741 1.367 . S
C2741 C2740 1.367 . S
C2741 C2743 1.433 . S
C2742 C2738 1.350 . S
C2742 C2739 1.463 . S
C2742 N2746 1.427 . S
C2743 H2733 0.929 . S
C2743 C2741 1.433 . S
C2743 N2746 1.384 . S
C2744 H2735 0.929 . S
C2744 C2736 1.378 . S
C2744 C2739 1.350 . S
C2745 H2732 0.929 . S
C2745 C2737 1.433 . S
C2745 N2747 1.384 . S
N2746 C2742 1.427 . S
N2746 C2743 1.384 . S
N2747 C2739 1.427 . S
N2747 C2745 1.384 . S
H2748 C2754 0.930 . S
H2749 C2758 0.930 . S
H2750 C2763 0.929 . S
H2751 C2761 0.929 . S
H2752 C2756 0.929 . S
H2753 C2762 0.929 . S
C2754 H2748 0.930 . S
C2754 C2755 1.367 . S
C2754 C2762 1.378 . S
C2755 C2754 1.367 . S
C2755 C2763 1.433 . S
C2756 H2752 0.929 . S
C2756 C2758 1.378 . S
C2756 C2760 1.350 . S
C2757 C2760 1.463 . S
C2757 C2762 1.350 . S
C2757 N2765 1.427 . S
C2758 H2749 0.930 . S
C2758 C2756 1.378 . S
C2758 C2759 1.367 . S
C2759 C2758 1.367 . S
C2759 C2761 1.433 . S
C2760 C2756 1.350 . S
C2760 C2757 1.463 . S
C2760 N2764 1.427 . S
C2761 H2751 0.929 . S
C2761 C2759 1.433 . S
C2761 N2764 1.384 . S
C2762 H2753 0.929 . S
C2762 C2754 1.378 . S
C2762 C2757 1.350 . S
C2763 H2750 0.929 . S
C2763 C2755 1.433 . S
C2763 N2765 1.384 . S
N2764 C2760 1.427 . S
N2764 C2761 1.384 . S
N2765 C2757 1.427 . S
N2765 C2763 1.384 . S
H2766 C2772 0.930 . S
H2767 C2776 0.930 . S
H2768 C2781 0.929 . S
H2769 C2779 0.929 . S
H2770 C2774 0.929 . S
H2771 C2780 0.929 . S
C2772 H2766 0.930 . S
C2772 C2773 1.367 . S
C2772 C2780 1.378 . S
C2773 C2772 1.367 . S
C2773 C2781 1.433 . S
C2774 H2770 0.929 . S
C2774 C2776 1.378 . S
C2774 C2778 1.350 . S
C2775 C2778 1.463 . S
C2775 C2780 1.350 . S
C2775 N2783 1.427 . S
C2776 H2767 0.930 . S
C2776 C2774 1.378 . S
C2776 C2777 1.367 . S
C2777 C2776 1.367 . S
C2777 C2779 1.433 . S
C2778 C2774 1.350 . S
C2778 C2775 1.463 . S
C2778 N2782 1.427 . S
C2779 H2769 0.929 . S
C2779 C2777 1.433 . S
C2779 N2782 1.384 . S
C2780 H2771 0.929 . S
C2780 C2772 1.378 . S
C2780 C2775 1.350 . S
C2781 H2768 0.929 . S
C2781 C2773 1.433 . S
C2781 N2783 1.384 . S
N2782 C2778 1.427 . S
N2782 C2779 1.384 . S
N2783 C2775 1.427 . S
N2783 C2781 1.384 . S
H2784 C2790 0.930 . S
H2785 C2794 0.930 . S
H2786 C2799 0.929 . S
H2787 C2797 0.929 . S
H2788 C2792 0.929 . S
H2789 C2798 0.929 . S
C2790 H2784 0.930 . S
C2790 C2791 1.367 . S
C2790 C2798 1.378 . S
C2791 C2790 1.367 . S
C2791 C2799 1.433 . S
C2792 H2788 0.929 . S
C2792 C2794 1.378 . S
C2792 C2796 1.350 . S
C2793 C2796 1.463 . S
C2793 C2798 1.350 . S
C2793 N2801 1.427 . S
C2794 H2785 0.930 . S
C2794 C2792 1.378 . S
C2794 C2795 1.367 . S
C2795 C2794 1.367 . S
C2795 C2797 1.433 . S
C2796 C2792 1.350 . S
C2796 C2793 1.463 . S
C2796 N2800 1.427 . S
C2797 H2787 0.929 . S
C2797 C2795 1.433 . S
C2797 N2800 1.384 . S
C2798 H2789 0.929 . S
C2798 C2790 1.378 . S
C2798 C2793 1.350 . S
C2799 H2786 0.929 . S
C2799 C2791 1.433 . S
C2799 N2801 1.384 . S
N2800 C2796 1.427 . S
N2800 C2797 1.384 . S
N2801 C2793 1.427 . S
N2801 C2799 1.384 . S
H2802 C2808 0.930 . S
H2803 C2812 0.930 . S
H2804 C2817 0.929 . S
H2805 C2815 0.929 . S
H2806 C2810 0.929 . S
H2807 C2816 0.929 . S
C2808 H2802 0.930 . S
C2808 C2809 1.367 . S
C2808 C2816 1.378 . S
C2809 C2808 1.367 . S
C2809 C2817 1.433 . S
C2810 H2806 0.929 . S
C2810 C2812 1.378 . S
C2810 C2814 1.350 . S
C2811 C2814 1.463 . S
C2811 C2816 1.350 . S
C2811 N2819 1.427 . S
C2812 H2803 0.930 . S
C2812 C2810 1.378 . S
C2812 C2813 1.367 . S
C2813 C2812 1.367 . S
C2813 C2815 1.433 . S
C2814 C2810 1.350 . S
C2814 C2811 1.463 . S
C2814 N2818 1.427 . S
C2815 H2805 0.929 . S
C2815 C2813 1.433 . S
C2815 N2818 1.384 . S
C2816 H2807 0.929 . S
C2816 C2808 1.378 . S
C2816 C2811 1.350 . S
C2817 H2804 0.929 . S
C2817 C2809 1.433 . S
C2817 N2819 1.384 . S
N2818 C2814 1.427 . S
N2818 C2815 1.384 . S
N2819 C2811 1.427 . S
N2819 C2817 1.384 . S
H2820 C2826 0.930 . S
H2821 C2830 0.930 . S
H2822 C2835 0.929 . S
H2823 C2833 0.929 . S
H2824 C2828 0.929 . S
H2825 C2834 0.929 . S
C2826 H2820 0.930 . S
C2826 C2827 1.367 . S
C2826 C2834 1.378 . S
C2827 C2826 1.367 . S
C2827 C2835 1.433 . S
C2828 H2824 0.929 . S
C2828 C2830 1.378 . S
C2828 C2832 1.350 . S
C2829 C2832 1.463 . S
C2829 C2834 1.350 . S
C2829 N2837 1.427 . S
C2830 H2821 0.930 . S
C2830 C2828 1.378 . S
C2830 C2831 1.367 . S
C2831 C2830 1.367 . S
C2831 C2833 1.433 . S
C2832 C2828 1.350 . S
C2832 C2829 1.463 . S
C2832 N2836 1.427 . S
C2833 H2823 0.929 . S
C2833 C2831 1.433 . S
C2833 N2836 1.384 . S
C2834 H2825 0.929 . S
C2834 C2826 1.378 . S
C2834 C2829 1.350 . S
C2835 H2822 0.929 . S
C2835 C2827 1.433 . S
C2835 N2837 1.384 . S
N2836 C2832 1.427 . S
N2836 C2833 1.384 . S
N2837 C2829 1.427 . S
N2837 C2835 1.384 . S
H2838 C2844 0.930 . S
H2839 C2848 0.930 . S
H2840 C2853 0.929 . S
H2841 C2851 0.929 . S
H2842 C2846 0.929 . S
H2843 C2852 0.929 . S
C2844 H2838 0.930 . S
C2844 C2845 1.367 . S
C2844 C2852 1.378 . S
C2845 C2844 1.367 . S
C2845 C2853 1.433 . S
C2846 H2842 0.929 . S
C2846 C2848 1.378 . S
C2846 C2850 1.350 . S
C2847 C2850 1.463 . S
C2847 C2852 1.350 . S
C2847 N2855 1.427 . S
C2848 H2839 0.930 . S
C2848 C2846 1.378 . S
C2848 C2849 1.367 . S
C2849 C2848 1.367 . S
C2849 C2851 1.433 . S
C2850 C2846 1.350 . S
C2850 C2847 1.463 . S
C2850 N2854 1.427 . S
C2851 H2841 0.929 . S
C2851 C2849 1.433 . S
C2851 N2854 1.384 . S
C2852 H2843 0.929 . S
C2852 C2844 1.378 . S
C2852 C2847 1.350 . S
C2853 H2840 0.929 . S
C2853 C2845 1.433 . S
C2853 N2855 1.384 . S
N2854 C2850 1.427 . S
N2854 C2851 1.384 . S
N2855 C2847 1.427 . S
N2855 C2853 1.384 . S
H2856 C2862 0.930 . S
H2857 C2866 0.930 . S
H2858 C2871 0.929 . S
H2859 C2869 0.929 . S
H2860 C2864 0.929 . S
H2861 C2870 0.929 . S
C2862 H2856 0.930 . S
C2862 C2863 1.367 . S
C2862 C2870 1.378 . S
C2863 C2862 1.367 . S
C2863 C2871 1.433 . S
C2864 H2860 0.929 . S
C2864 C2866 1.378 . S
C2864 C2868 1.350 . S
C2865 C2868 1.463 . S
C2865 C2870 1.350 . S
C2865 N2873 1.427 . S
C2866 H2857 0.930 . S
C2866 C2864 1.378 . S
C2866 C2867 1.367 . S
C2867 C2866 1.367 . S
C2867 C2869 1.433 . S
C2868 C2864 1.350 . S
C2868 C2865 1.463 . S
C2868 N2872 1.427 . S
C2869 H2859 0.929 . S
C2869 C2867 1.433 . S
C2869 N2872 1.384 . S
C2870 H2861 0.929 . S
C2870 C2862 1.378 . S
C2870 C2865 1.350 . S
C2871 H2858 0.929 . S
C2871 C2863 1.433 . S
C2871 N2873 1.384 . S
N2872 C2868 1.427 . S
N2872 C2869 1.384 . S
N2873 C2865 1.427 . S
N2873 C2871 1.384 . S
H2874 C2880 0.930 . S
H2875 C2884 0.930 . S
H2876 C2889 0.929 . S
H2877 C2887 0.929 . S
H2878 C2882 0.929 . S
H2879 C2888 0.929 . S
C2880 H2874 0.930 . S
C2880 C2881 1.367 . S
C2880 C2888 1.378 . S
C2881 C2880 1.367 . S
C2881 C2889 1.433 . S
C2882 H2878 0.929 . S
C2882 C2884 1.378 . S
C2882 C2886 1.350 . S
C2883 C2886 1.463 . S
C2883 C2888 1.350 . S
C2883 N2891 1.427 . S
C2884 H2875 0.930 . S
C2884 C2882 1.378 . S
C2884 C2885 1.367 . S
C2885 C2884 1.367 . S
C2885 C2887 1.433 . S
C2886 C2882 1.350 . S
C2886 C2883 1.463 . S
C2886 N2890 1.427 . S
C2887 H2877 0.929 . S
C2887 C2885 1.433 . S
C2887 N2890 1.384 . S
C2888 H2879 0.929 . S
C2888 C2880 1.378 . S
C2888 C2883 1.350 . S
C2889 H2876 0.929 . S
C2889 C2881 1.433 . S
C2889 N2891 1.384 . S
N2890 C2886 1.427 . S
N2890 C2887 1.384 . S
N2891 C2883 1.427 . S
N2891 C2889 1.384 . S
H2892 C2898 0.930 . S
H2893 C2902 0.930 . S
H2894 C2907 0.929 . S
H2895 C2905 0.929 . S
H2896 C2900 0.929 . S
H2897 C2906 0.929 . S
C2898 H2892 0.930 . S
C2898 C2899 1.367 . S
C2898 C2906 1.378 . S
C2899 C2898 1.367 . S
C2899 C2907 1.433 . S
C2900 H2896 0.929 . S
C2900 C2902 1.378 . S
C2900 C2904 1.350 . S
C2901 C2904 1.463 . S
C2901 C2906 1.350 . S
C2901 N2909 1.427 . S
C2902 H2893 0.930 . S
C2902 C2900 1.378 . S
C2902 C2903 1.367 . S
C2903 C2902 1.367 . S
C2903 C2905 1.433 . S
C2904 C2900 1.350 . S
C2904 C2901 1.463 . S
C2904 N2908 1.427 . S
C2905 H2895 0.929 . S
C2905 C2903 1.433 . S
C2905 N2908 1.384 . S
C2906 H2897 0.929 . S
C2906 C2898 1.378 . S
C2906 C2901 1.350 . S
C2907 H2894 0.929 . S
C2907 C2899 1.433 . S
C2907 N2909 1.384 . S
N2908 C2904 1.427 . S
N2908 C2905 1.384 . S
N2909 C2901 1.427 . S
N2909 C2907 1.384 . S
H2910 C2916 0.930 . S
H2911 C2920 0.930 . S
H2912 C2925 0.929 . S
H2913 C2923 0.929 . S
H2914 C2918 0.929 . S
H2915 C2924 0.929 . S
C2916 H2910 0.930 . S
C2916 C2917 1.367 . S
C2916 C2924 1.378 . S
C2917 C2916 1.367 . S
C2917 C2925 1.433 . S
C2918 H2914 0.929 . S
C2918 C2920 1.378 . S
C2918 C2922 1.350 . S
C2919 C2922 1.463 . S
C2919 C2924 1.350 . S
C2919 N2927 1.427 . S
C2920 H2911 0.930 . S
C2920 C2918 1.378 . S
C2920 C2921 1.367 . S
C2921 C2920 1.367 . S
C2921 C2923 1.433 . S
C2922 C2918 1.350 . S
C2922 C2919 1.463 . S
C2922 N2926 1.427 . S
C2923 H2913 0.929 . S
C2923 C2921 1.433 . S
C2923 N2926 1.384 . S
C2924 H2915 0.929 . S
C2924 C2916 1.378 . S
C2924 C2919 1.350 . S
C2925 H2912 0.929 . S
C2925 C2917 1.433 . S
C2925 N2927 1.384 . S
N2926 C2922 1.427 . S
N2926 C2923 1.384 . S
N2927 C2919 1.427 . S
N2927 C2925 1.384 . S
H2928 C2934 0.930 . S
H2929 C2938 0.930 . S
H2930 C2943 0.929 . S
H2931 C2941 0.929 . S
H2932 C2936 0.929 . S
H2933 C2942 0.929 . S
C2934 H2928 0.930 . S
C2934 C2935 1.367 . S
C2934 C2942 1.378 . S
C2935 C2934 1.367 . S
C2935 C2943 1.433 . S
C2936 H2932 0.929 . S
C2936 C2938 1.378 . S
C2936 C2940 1.350 . S
C2937 C2940 1.463 . S
C2937 C2942 1.350 . S
C2937 N2945 1.427 . S
C2938 H2929 0.930 . S
C2938 C2936 1.378 . S
C2938 C2939 1.367 . S
C2939 C2938 1.367 . S
C2939 C2941 1.433 . S
C2940 C2936 1.350 . S
C2940 C2937 1.463 . S
C2940 N2944 1.427 . S
C2941 H2931 0.929 . S
C2941 C2939 1.433 . S
C2941 N2944 1.384 . S
C2942 H2933 0.929 . S
C2942 C2934 1.378 . S
C2942 C2937 1.350 . S
C2943 H2930 0.929 . S
C2943 C2935 1.433 . S
C2943 N2945 1.384 . S
N2944 C2940 1.427 . S
N2944 C2941 1.384 . S
N2945 C2937 1.427 . S
N2945 C2943 1.384 . S
H2946 C2952 0.930 . S
H2947 C2956 0.930 . S
H2948 C2961 0.929 . S
H2949 C2959 0.929 . S
H2950 C2954 0.929 . S
H2951 C2960 0.929 . S
C2952 H2946 0.930 . S
C2952 C2953 1.367 . S
C2952 C2960 1.378 . S
C2953 C2952 1.367 . S
C2953 C2961 1.433 . S
C2954 H2950 0.929 . S
C2954 C2956 1.378 . S
C2954 C2958 1.350 . S
C2955 C2958 1.463 . S
C2955 C2960 1.350 . S
C2955 N2963 1.427 . S
C2956 H2947 0.930 . S
C2956 C2954 1.378 . S
C2956 C2957 1.367 . S
C2957 C2956 1.367 . S
C2957 C2959 1.433 . S
C2958 C2954 1.350 . S
C2958 C2955 1.463 . S
C2958 N2962 1.427 . S
C2959 H2949 0.929 . S
C2959 C2957 1.433 . S
C2959 N2962 1.384 . S
C2960 H2951 0.929 . S
C2960 C2952 1.378 . S
C2960 C2955 1.350 . S
C2961 H2948 0.929 . S
C2961 C2953 1.433 . S
C2961 N2963 1.384 . S
N2962 C2958 1.427 . S
N2962 C2959 1.384 . S
N2963 C2955 1.427 . S
N2963 C2961 1.384 . S
H2964 C2970 0.930 . S
H2965 C2974 0.930 . S
H2966 C2979 0.929 . S
H2967 C2977 0.929 . S
H2968 C2972 0.929 . S
H2969 C2978 0.929 . S
C2970 H2964 0.930 . S
C2970 C2971 1.367 . S
C2970 C2978 1.378 . S
C2971 C2970 1.367 . S
C2971 C2979 1.433 . S
C2972 H2968 0.929 . S
C2972 C2974 1.378 . S
C2972 C2976 1.350 . S
C2973 C2976 1.463 . S
C2973 C2978 1.350 . S
C2973 N2981 1.427 . S
C2974 H2965 0.930 . S
C2974 C2972 1.378 . S
C2974 C2975 1.367 . S
C2975 C2974 1.367 . S
C2975 C2977 1.433 . S
C2976 C2972 1.350 . S
C2976 C2973 1.463 . S
C2976 N2980 1.427 . S
C2977 H2967 0.929 . S
C2977 C2975 1.433 . S
C2977 N2980 1.384 . S
C2978 H2969 0.929 . S
C2978 C2970 1.378 . S
C2978 C2973 1.350 . S
C2979 H2966 0.929 . S
C2979 C2971 1.433 . S
C2979 N2981 1.384 . S
N2980 C2976 1.427 . S
N2980 C2977 1.384 . S
N2981 C2973 1.427 . S
N2981 C2979 1.384 . S
H2982 C2988 0.930 . S
H2983 C2992 0.930 . S
H2984 C2997 0.929 . S
H2985 C2995 0.929 . S
H2986 C2990 0.929 . S
H2987 C2996 0.929 . S
C2988 H2982 0.930 . S
C2988 C2989 1.367 . S
C2988 C2996 1.378 . S
C2989 C2988 1.367 . S
C2989 C2997 1.433 . S
C2990 H2986 0.929 . S
C2990 C2992 1.378 . S
C2990 C2994 1.350 . S
C2991 C2994 1.463 . S
C2991 C2996 1.350 . S
C2991 N2999 1.427 . S
C2992 H2983 0.930 . S
C2992 C2990 1.378 . S
C2992 C2993 1.367 . S
C2993 C2992 1.367 . S
C2993 C2995 1.433 . S
C2994 C2990 1.350 . S
C2994 C2991 1.463 . S
C2994 N2998 1.427 . S
C2995 H2985 0.929 . S
C2995 C2993 1.433 . S
C2995 N2998 1.384 . S
C2996 H2987 0.929 . S
C2996 C2988 1.378 . S
C2996 C2991 1.350 . S
C2997 H2984 0.929 . S
C2997 C2989 1.433 . S
C2997 N2999 1.384 . S
N2998 C2994 1.427 . S
N2998 C2995 1.384 . S
N2999 C2991 1.427 . S
N2999 C2997 1.384 . S
H3000 C3006 0.930 . S
H3001 C3010 0.930 . S
H3002 C3015 0.929 . S
H3003 C3013 0.929 . S
H3004 C3008 0.929 . S
H3005 C3014 0.929 . S
C3006 H3000 0.930 . S
C3006 C3007 1.367 . S
C3006 C3014 1.378 . S
C3007 C3006 1.367 . S
C3007 C3015 1.433 . S
C3008 H3004 0.929 . S
C3008 C3010 1.378 . S
C3008 C3012 1.350 . S
C3009 C3012 1.463 . S
C3009 C3014 1.350 . S
C3009 N3017 1.427 . S
C3010 H3001 0.930 . S
C3010 C3008 1.378 . S
C3010 C3011 1.367 . S
C3011 C3010 1.367 . S
C3011 C3013 1.433 . S
C3012 C3008 1.350 . S
C3012 C3009 1.463 . S
C3012 N3016 1.427 . S
C3013 H3003 0.929 . S
C3013 C3011 1.433 . S
C3013 N3016 1.384 . S
C3014 H3005 0.929 . S
C3014 C3006 1.378 . S
C3014 C3009 1.350 . S
C3015 H3002 0.929 . S
C3015 C3007 1.433 . S
C3015 N3017 1.384 . S
N3016 C3012 1.427 . S
N3016 C3013 1.384 . S
N3017 C3009 1.427 . S
N3017 C3015 1.384 . S
H3018 C3024 0.930 . S
H3019 C3028 0.930 . S
H3020 C3033 0.929 . S
H3021 C3031 0.929 . S
H3022 C3026 0.929 . S
H3023 C3032 0.929 . S
C3024 H3018 0.930 . S
C3024 C3025 1.367 . S
C3024 C3032 1.378 . S
C3025 C3024 1.367 . S
C3025 C3033 1.433 . S
C3026 H3022 0.929 . S
C3026 C3028 1.378 . S
C3026 C3030 1.350 . S
C3027 C3030 1.463 . S
C3027 C3032 1.350 . S
C3027 N3035 1.427 . S
C3028 H3019 0.930 . S
C3028 C3026 1.378 . S
C3028 C3029 1.367 . S
C3029 C3028 1.367 . S
C3029 C3031 1.433 . S
C3030 C3026 1.350 . S
C3030 C3027 1.463 . S
C3030 N3034 1.427 . S
C3031 H3021 0.929 . S
C3031 C3029 1.433 . S
C3031 N3034 1.384 . S
C3032 H3023 0.929 . S
C3032 C3024 1.378 . S
C3032 C3027 1.350 . S
C3033 H3020 0.929 . S
C3033 C3025 1.433 . S
C3033 N3035 1.384 . S
N3034 C3030 1.427 . S
N3034 C3031 1.384 . S
N3035 C3027 1.427 . S
N3035 C3033 1.384 . S
H3036 C3042 0.930 . S
H3037 C3046 0.930 . S
H3038 C3051 0.929 . S
H3039 C3049 0.929 . S
H3040 C3044 0.929 . S
H3041 C3050 0.929 . S
C3042 H3036 0.930 . S
C3042 C3043 1.367 . S
C3042 C3050 1.378 . S
C3043 C3042 1.367 . S
C3043 C3051 1.433 . S
C3044 H3040 0.929 . S
C3044 C3046 1.378 . S
C3044 C3048 1.350 . S
C3045 C3048 1.463 . S
C3045 C3050 1.350 . S
C3045 N3053 1.427 . S
C3046 H3037 0.930 . S
C3046 C3044 1.378 . S
C3046 C3047 1.367 . S
C3047 C3046 1.367 . S
C3047 C3049 1.433 . S
C3048 C3044 1.350 . S
C3048 C3045 1.463 . S
C3048 N3052 1.427 . S
C3049 H3039 0.929 . S
C3049 C3047 1.433 . S
C3049 N3052 1.384 . S
C3050 H3041 0.929 . S
C3050 C3042 1.378 . S
C3050 C3045 1.350 . S
C3051 H3038 0.929 . S
C3051 C3043 1.433 . S
C3051 N3053 1.384 . S
N3052 C3048 1.427 . S
N3052 C3049 1.384 . S
N3053 C3045 1.427 . S
N3053 C3051 1.384 . S
H3054 C3060 0.930 . S
H3055 C3064 0.930 . S
H3056 C3069 0.929 . S
H3057 C3067 0.929 . S
H3058 C3062 0.929 . S
H3059 C3068 0.929 . S
C3060 H3054 0.930 . S
C3060 C3061 1.367 . S
C3060 C3068 1.378 . S
C3061 C3060 1.367 . S
C3061 C3069 1.433 . S
C3062 H3058 0.929 . S
C3062 C3064 1.378 . S
C3062 C3066 1.350 . S
C3063 C3066 1.463 . S
C3063 C3068 1.350 . S
C3063 N3071 1.427 . S
C3064 H3055 0.930 . S
C3064 C3062 1.378 . S
C3064 C3065 1.367 . S
C3065 C3064 1.367 . S
C3065 C3067 1.433 . S
C3066 C3062 1.350 . S
C3066 C3063 1.463 . S
C3066 N3070 1.427 . S
C3067 H3057 0.929 . S
C3067 C3065 1.433 . S
C3067 N3070 1.384 . S
C3068 H3059 0.929 . S
C3068 C3060 1.378 . S
C3068 C3063 1.350 . S
C3069 H3056 0.929 . S
C3069 C3061 1.433 . S
C3069 N3071 1.384 . S
N3070 C3066 1.427 . S
N3070 C3067 1.384 . S
N3071 C3063 1.427 . S
N3071 C3069 1.384 . S
H3072 C3078 0.930 . S
H3073 C3082 0.930 . S
H3074 C3087 0.929 . S
H3075 C3085 0.929 . S
H3076 C3080 0.929 . S
H3077 C3086 0.929 . S
C3078 H3072 0.930 . S
C3078 C3079 1.367 . S
C3078 C3086 1.378 . S
C3079 C3078 1.367 . S
C3079 C3087 1.433 . S
C3080 H3076 0.929 . S
C3080 C3082 1.378 . S
C3080 C3084 1.350 . S
C3081 C3084 1.463 . S
C3081 C3086 1.350 . S
C3081 N3089 1.427 . S
C3082 H3073 0.930 . S
C3082 C3080 1.378 . S
C3082 C3083 1.367 . S
C3083 C3082 1.367 . S
C3083 C3085 1.433 . S
C3084 C3080 1.350 . S
C3084 C3081 1.463 . S
C3084 N3088 1.427 . S
C3085 H3075 0.929 . S
C3085 C3083 1.433 . S
C3085 N3088 1.384 . S
C3086 H3077 0.929 . S
C3086 C3078 1.378 . S
C3086 C3081 1.350 . S
C3087 H3074 0.929 . S
C3087 C3079 1.433 . S
C3087 N3089 1.384 . S
N3088 C3084 1.427 . S
N3088 C3085 1.384 . S
N3089 C3081 1.427 . S
N3089 C3087 1.384 . S
H3090 C3096 0.930 . S
H3091 C3100 0.930 . S
H3092 C3105 0.929 . S
H3093 C3103 0.929 . S
H3094 C3098 0.929 . S
H3095 C3104 0.929 . S
C3096 H3090 0.930 . S
C3096 C3097 1.367 . S
C3096 C3104 1.378 . S
C3097 C3096 1.367 . S
C3097 C3105 1.433 . S
C3098 H3094 0.929 . S
C3098 C3100 1.378 . S
C3098 C3102 1.350 . S
C3099 C3102 1.463 . S
C3099 C3104 1.350 . S
C3099 N3107 1.427 . S
C3100 H3091 0.930 . S
C3100 C3098 1.378 . S
C3100 C3101 1.367 . S
C3101 C3100 1.367 . S
C3101 C3103 1.433 . S
C3102 C3098 1.350 . S
C3102 C3099 1.463 . S
C3102 N3106 1.427 . S
C3103 H3093 0.929 . S
C3103 C3101 1.433 . S
C3103 N3106 1.384 . S
C3104 H3095 0.929 . S
C3104 C3096 1.378 . S
C3104 C3099 1.350 . S
C3105 H3092 0.929 . S
C3105 C3097 1.433 . S
C3105 N3107 1.384 . S
N3106 C3102 1.427 . S
N3106 C3103 1.384 . S
N3107 C3099 1.427 . S
N3107 C3105 1.384 . S
H3108 C3114 0.930 . S
H3109 C3118 0.930 . S
H3110 C3123 0.929 . S
H3111 C3121 0.929 . S
H3112 C3116 0.929 . S
H3113 C3122 0.929 . S
C3114 H3108 0.930 . S
C3114 C3115 1.367 . S
C3114 C3122 1.378 . S
C3115 C3114 1.367 . S
C3115 C3123 1.433 . S
C3116 H3112 0.929 . S
C3116 C3118 1.378 . S
C3116 C3120 1.350 . S
C3117 C3120 1.463 . S
C3117 C3122 1.350 . S
C3117 N3125 1.427 . S
C3118 H3109 0.930 . S
C3118 C3116 1.378 . S
C3118 C3119 1.367 . S
C3119 C3118 1.367 . S
C3119 C3121 1.433 . S
C3120 C3116 1.350 . S
C3120 C3117 1.463 . S
C3120 N3124 1.427 . S
C3121 H3111 0.929 . S
C3121 C3119 1.433 . S
C3121 N3124 1.384 . S
C3122 H3113 0.929 . S
C3122 C3114 1.378 . S
C3122 C3117 1.350 . S
C3123 H3110 0.929 . S
C3123 C3115 1.433 . S
C3123 N3125 1.384 . S
N3124 C3120 1.427 . S
N3124 C3121 1.384 . S
N3125 C3117 1.427 . S
N3125 C3123 1.384 . S
H3126 C3132 0.930 . S
H3127 C3136 0.930 . S
H3128 C3141 0.929 . S
H3129 C3139 0.929 . S
H3130 C3134 0.929 . S
H3131 C3140 0.929 . S
C3132 H3126 0.930 . S
C3132 C3133 1.367 . S
C3132 C3140 1.378 . S
C3133 C3132 1.367 . S
C3133 C3141 1.433 . S
C3134 H3130 0.929 . S
C3134 C3136 1.378 . S
C3134 C3138 1.350 . S
C3135 C3138 1.463 . S
C3135 C3140 1.350 . S
C3135 N3143 1.427 . S
C3136 H3127 0.930 . S
C3136 C3134 1.378 . S
C3136 C3137 1.367 . S
C3137 C3136 1.367 . S
C3137 C3139 1.433 . S
C3138 C3134 1.350 . S
C3138 C3135 1.463 . S
C3138 N3142 1.427 . S
C3139 H3129 0.929 . S
C3139 C3137 1.433 . S
C3139 N3142 1.384 . S
C3140 H3131 0.929 . S
C3140 C3132 1.378 . S
C3140 C3135 1.350 . S
C3141 H3128 0.929 . S
C3141 C3133 1.433 . S
C3141 N3143 1.384 . S
N3142 C3138 1.427 . S
N3142 C3139 1.384 . S
N3143 C3135 1.427 . S
N3143 C3141 1.384 . S
H3144 C3150 0.930 . S
H3145 C3154 0.930 . S
H3146 C3159 0.929 . S
H3147 C3157 0.929 . S
H3148 C3152 0.929 . S
H3149 C3158 0.929 . S
C3150 H3144 0.930 . S
C3150 C3151 1.367 . S
C3150 C3158 1.378 . S
C3151 C3150 1.367 . S
C3151 C3159 1.433 . S
C3152 H3148 0.929 . S
C3152 C3154 1.378 . S
C3152 C3156 1.350 . S
C3153 C3156 1.463 . S
C3153 C3158 1.350 . S
C3153 N3161 1.427 . S
C3154 H3145 0.930 . S
C3154 C3152 1.378 . S
C3154 C3155 1.367 . S
C3155 C3154 1.367 . S
C3155 C3157 1.433 . S
C3156 C3152 1.350 . S
C3156 C3153 1.463 . S
C3156 N3160 1.427 . S
C3157 H3147 0.929 . S
C3157 C3155 1.433 . S
C3157 N3160 1.384 . S
C3158 H3149 0.929 . S
C3158 C3150 1.378 . S
C3158 C3153 1.350 . S
C3159 H3146 0.929 . S
C3159 C3151 1.433 . S
C3159 N3161 1.384 . S
N3160 C3156 1.427 . S
N3160 C3157 1.384 . S
N3161 C3153 1.427 . S
N3161 C3159 1.384 . S
H3162 C3168 0.930 . S
H3163 C3172 0.930 . S
H3164 C3177 0.929 . S
H3165 C3175 0.929 . S
H3166 C3170 0.929 . S
H3167 C3176 0.929 . S
C3168 H3162 0.930 . S
C3168 C3169 1.367 . S
C3168 C3176 1.378 . S
C3169 C3168 1.367 . S
C3169 C3177 1.433 . S
C3170 H3166 0.929 . S
C3170 C3172 1.378 . S
C3170 C3174 1.350 . S
C3171 C3174 1.463 . S
C3171 C3176 1.350 . S
C3171 N3179 1.427 . S
C3172 H3163 0.930 . S
C3172 C3170 1.378 . S
C3172 C3173 1.367 . S
C3173 C3172 1.367 . S
C3173 C3175 1.433 . S
C3174 C3170 1.350 . S
C3174 C3171 1.463 . S
C3174 N3178 1.427 . S
C3175 H3165 0.929 . S
C3175 C3173 1.433 . S
C3175 N3178 1.384 . S
C3176 H3167 0.929 . S
C3176 C3168 1.378 . S
C3176 C3171 1.350 . S
C3177 H3164 0.929 . S
C3177 C3169 1.433 . S
C3177 N3179 1.384 . S
N3178 C3174 1.427 . S
N3178 C3175 1.384 . S
N3179 C3171 1.427 . S
N3179 C3177 1.384 . S
H3180 C3186 0.930 . S
H3181 C3190 0.930 . S
H3182 C3195 0.929 . S
H3183 C3193 0.929 . S
H3184 C3188 0.929 . S
H3185 C3194 0.929 . S
C3186 H3180 0.930 . S
C3186 C3187 1.367 . S
C3186 C3194 1.378 . S
C3187 C3186 1.367 . S
C3187 C3195 1.433 . S
C3188 H3184 0.929 . S
C3188 C3190 1.378 . S
C3188 C3192 1.350 . S
C3189 C3192 1.463 . S
C3189 C3194 1.350 . S
C3189 N3197 1.427 . S
C3190 H3181 0.930 . S
C3190 C3188 1.378 . S
C3190 C3191 1.367 . S
C3191 C3190 1.367 . S
C3191 C3193 1.433 . S
C3192 C3188 1.350 . S
C3192 C3189 1.463 . S
C3192 N3196 1.427 . S
C3193 H3183 0.929 . S
C3193 C3191 1.433 . S
C3193 N3196 1.384 . S
C3194 H3185 0.929 . S
C3194 C3186 1.378 . S
C3194 C3189 1.350 . S
C3195 H3182 0.929 . S
C3195 C3187 1.433 . S
C3195 N3197 1.384 . S
N3196 C3192 1.427 . S
N3196 C3193 1.384 . S
N3197 C3189 1.427 . S
N3197 C3195 1.384 . S
H3198 C3204 0.930 . S
H3199 C3208 0.930 . S
H3200 C3213 0.929 . S
H3201 C3211 0.929 . S
H3202 C3206 0.929 . S
H3203 C3212 0.929 . S
C3204 H3198 0.930 . S
C3204 C3205 1.367 . S
C3204 C3212 1.378 . S
C3205 C3204 1.367 . S
C3205 C3213 1.433 . S
C3206 H3202 0.929 . S
C3206 C3208 1.378 . S
C3206 C3210 1.350 . S
C3207 C3210 1.463 . S
C3207 C3212 1.350 . S
C3207 N3215 1.427 . S
C3208 H3199 0.930 . S
C3208 C3206 1.378 . S
C3208 C3209 1.367 . S
C3209 C3208 1.367 . S
C3209 C3211 1.433 . S
C3210 C3206 1.350 . S
C3210 C3207 1.463 . S
C3210 N3214 1.427 . S
C3211 H3201 0.929 . S
C3211 C3209 1.433 . S
C3211 N3214 1.384 . S
C3212 H3203 0.929 . S
C3212 C3204 1.378 . S
C3212 C3207 1.350 . S
C3213 H3200 0.929 . S
C3213 C3205 1.433 . S
C3213 N3215 1.384 . S
N3214 C3210 1.427 . S
N3214 C3211 1.384 . S
N3215 C3207 1.427 . S
N3215 C3213 1.384 . S
H3216 C3222 0.930 . S
H3217 C3226 0.930 . S
H3218 C3231 0.929 . S
H3219 C3229 0.929 . S
H3220 C3224 0.929 . S
H3221 C3230 0.929 . S
C3222 H3216 0.930 . S
C3222 C3223 1.367 . S
C3222 C3230 1.378 . S
C3223 C3222 1.367 . S
C3223 C3231 1.433 . S
C3224 H3220 0.929 . S
C3224 C3226 1.378 . S
C3224 C3228 1.350 . S
C3225 C3228 1.463 . S
C3225 C3230 1.350 . S
C3225 N3233 1.427 . S
C3226 H3217 0.930 . S
C3226 C3224 1.378 . S
C3226 C3227 1.367 . S
C3227 C3226 1.367 . S
C3227 C3229 1.433 . S
C3228 C3224 1.350 . S
C3228 C3225 1.463 . S
C3228 N3232 1.427 . S
C3229 H3219 0.929 . S
C3229 C3227 1.433 . S
C3229 N3232 1.384 . S
C3230 H3221 0.929 . S
C3230 C3222 1.378 . S
C3230 C3225 1.350 . S
C3231 H3218 0.929 . S
C3231 C3223 1.433 . S
C3231 N3233 1.384 . S
N3232 C3228 1.427 . S
N3232 C3229 1.384 . S
N3233 C3225 1.427 . S
N3233 C3231 1.384 . S
H3234 C3240 0.930 . S
H3235 C3244 0.930 . S
H3236 C3249 0.929 . S
H3237 C3247 0.929 . S
H3238 C3242 0.929 . S
H3239 C3248 0.929 . S
C3240 H3234 0.930 . S
C3240 C3241 1.367 . S
C3240 C3248 1.378 . S
C3241 C3240 1.367 . S
C3241 C3249 1.433 . S
C3242 H3238 0.929 . S
C3242 C3244 1.378 . S
C3242 C3246 1.350 . S
C3243 C3246 1.463 . S
C3243 C3248 1.350 . S
C3243 N3251 1.427 . S
C3244 H3235 0.930 . S
C3244 C3242 1.378 . S
C3244 C3245 1.367 . S
C3245 C3244 1.367 . S
C3245 C3247 1.433 . S
C3246 C3242 1.350 . S
C3246 C3243 1.463 . S
C3246 N3250 1.427 . S
C3247 H3237 0.929 . S
C3247 C3245 1.433 . S
C3247 N3250 1.384 . S
C3248 H3239 0.929 . S
C3248 C3240 1.378 . S
C3248 C3243 1.350 . S
C3249 H3236 0.929 . S
C3249 C3241 1.433 . S
C3249 N3251 1.384 . S
N3250 C3246 1.427 . S
N3250 C3247 1.384 . S
N3251 C3243 1.427 . S
N3251 C3249 1.384 . S
H3252 C3258 0.930 . S
H3253 C3262 0.930 . S
H3254 C3267 0.929 . S
H3255 C3265 0.929 . S
H3256 C3260 0.929 . S
H3257 C3266 0.929 . S
C3258 H3252 0.930 . S
C3258 C3259 1.367 . S
C3258 C3266 1.378 . S
C3259 C3258 1.367 . S
C3259 C3267 1.433 . S
C3260 H3256 0.929 . S
C3260 C3262 1.378 . S
C3260 C3264 1.350 . S
C3261 C3264 1.463 . S
C3261 C3266 1.350 . S
C3261 N3269 1.427 . S
C3262 H3253 0.930 . S
C3262 C3260 1.378 . S
C3262 C3263 1.367 . S
C3263 C3262 1.367 . S
C3263 C3265 1.433 . S
C3264 C3260 1.350 . S
C3264 C3261 1.463 . S
C3264 N3268 1.427 . S
C3265 H3255 0.929 . S
C3265 C3263 1.433 . S
C3265 N3268 1.384 . S
C3266 H3257 0.929 . S
C3266 C3258 1.378 . S
C3266 C3261 1.350 . S
C3267 H3254 0.929 . S
C3267 C3259 1.433 . S
C3267 N3269 1.384 . S
N3268 C3264 1.427 . S
N3268 C3265 1.384 . S
N3269 C3261 1.427 . S
N3269 C3267 1.384 . S
H3270 C3276 0.930 . S
H3271 C3280 0.930 . S
H3272 C3285 0.929 . S
H3273 C3283 0.929 . S
H3274 C3278 0.929 . S
H3275 C3284 0.929 . S
C3276 H3270 0.930 . S
C3276 C3277 1.367 . S
C3276 C3284 1.378 . S
C3277 C3276 1.367 . S
C3277 C3285 1.433 . S
C3278 H3274 0.929 . S
C3278 C3280 1.378 . S
C3278 C3282 1.350 . S
C3279 C3282 1.463 . S
C3279 C3284 1.350 . S
C3279 N3287 1.427 . S
C3280 H3271 0.930 . S
C3280 C3278 1.378 . S
C3280 C3281 1.367 . S
C3281 C3280 1.367 . S
C3281 C3283 1.433 . S
C3282 C3278 1.350 . S
C3282 C3279 1.463 . S
C3282 N3286 1.427 . S
C3283 H3273 0.929 . S
C3283 C3281 1.433 . S
C3283 N3286 1.384 . S
C3284 H3275 0.929 . S
C3284 C3276 1.378 . S
C3284 C3279 1.350 . S
C3285 H3272 0.929 . S
C3285 C3277 1.433 . S
C3285 N3287 1.384 . S
N3286 C3282 1.427 . S
N3286 C3283 1.384 . S
N3287 C3279 1.427 . S
N3287 C3285 1.384 . S
H3288 C3294 0.930 . S
H3289 C3298 0.930 . S
H3290 C3303 0.929 . S
H3291 C3301 0.929 . S
H3292 C3296 0.929 . S
H3293 C3302 0.929 . S
C3294 H3288 0.930 . S
C3294 C3295 1.367 . S
C3294 C3302 1.378 . S
C3295 C3294 1.367 . S
C3295 C3303 1.433 . S
C3296 H3292 0.929 . S
C3296 C3298 1.378 . S
C3296 C3300 1.350 . S
C3297 C3300 1.463 . S
C3297 C3302 1.350 . S
C3297 N3305 1.427 . S
C3298 H3289 0.930 . S
C3298 C3296 1.378 . S
C3298 C3299 1.367 . S
C3299 C3298 1.367 . S
C3299 C3301 1.433 . S
C3300 C3296 1.350 . S
C3300 C3297 1.463 . S
C3300 N3304 1.427 . S
C3301 H3291 0.929 . S
C3301 C3299 1.433 . S
C3301 N3304 1.384 . S
C3302 H3293 0.929 . S
C3302 C3294 1.378 . S
C3302 C3297 1.350 . S
C3303 H3290 0.929 . S
C3303 C3295 1.433 . S
C3303 N3305 1.384 . S
N3304 C3300 1.427 . S
N3304 C3301 1.384 . S
N3305 C3297 1.427 . S
N3305 C3303 1.384 . S
H3306 C3312 0.930 . S
H3307 C3316 0.930 . S
H3308 C3321 0.929 . S
H3309 C3319 0.929 . S
H3310 C3314 0.929 . S
H3311 C3320 0.929 . S
C3312 H3306 0.930 . S
C3312 C3313 1.367 . S
C3312 C3320 1.378 . S
C3313 C3312 1.367 . S
C3313 C3321 1.433 . S
C3314 H3310 0.929 . S
C3314 C3316 1.378 . S
C3314 C3318 1.350 . S
C3315 C3318 1.463 . S
C3315 C3320 1.350 . S
C3315 N3323 1.427 . S
C3316 H3307 0.930 . S
C3316 C3314 1.378 . S
C3316 C3317 1.367 . S
C3317 C3316 1.367 . S
C3317 C3319 1.433 . S
C3318 C3314 1.350 . S
C3318 C3315 1.463 . S
C3318 N3322 1.427 . S
C3319 H3309 0.929 . S
C3319 C3317 1.433 . S
C3319 N3322 1.384 . S
C3320 H3311 0.929 . S
C3320 C3312 1.378 . S
C3320 C3315 1.350 . S
C3321 H3308 0.929 . S
C3321 C3313 1.433 . S
C3321 N3323 1.384 . S
N3322 C3318 1.427 . S
N3322 C3319 1.384 . S
N3323 C3315 1.427 . S
N3323 C3321 1.384 . S
H3324 C3330 0.930 . S
H3325 C3334 0.930 . S
H3326 C3339 0.929 . S
H3327 C3337 0.929 . S
H3328 C3332 0.929 . S
H3329 C3338 0.929 . S
C3330 H3324 0.930 . S
C3330 C3331 1.367 . S
C3330 C3338 1.378 . S
C3331 C3330 1.367 . S
C3331 C3339 1.433 . S
C3332 H3328 0.929 . S
C3332 C3334 1.378 . S
C3332 C3336 1.350 . S
C3333 C3336 1.463 . S
C3333 C3338 1.350 . S
C3333 N3341 1.427 . S
C3334 H3325 0.930 . S
C3334 C3332 1.378 . S
C3334 C3335 1.367 . S
C3335 C3334 1.367 . S
C3335 C3337 1.433 . S
C3336 C3332 1.350 . S
C3336 C3333 1.463 . S
C3336 N3340 1.427 . S
C3337 H3327 0.929 . S
C3337 C3335 1.433 . S
C3337 N3340 1.384 . S
C3338 H3329 0.929 . S
C3338 C3330 1.378 . S
C3338 C3333 1.350 . S
C3339 H3326 0.929 . S
C3339 C3331 1.433 . S
C3339 N3341 1.384 . S
N3340 C3336 1.427 . S
N3340 C3337 1.384 . S
N3341 C3333 1.427 . S
N3341 C3339 1.384 . S
H3342 C3348 0.930 . S
H3343 C3352 0.930 . S
H3344 C3357 0.929 . S
H3345 C3355 0.929 . S
H3346 C3350 0.929 . S
H3347 C3356 0.929 . S
C3348 H3342 0.930 . S
C3348 C3349 1.367 . S
C3348 C3356 1.378 . S
C3349 C3348 1.367 . S
C3349 C3357 1.433 . S
C3350 H3346 0.929 . S
C3350 C3352 1.378 . S
C3350 C3354 1.350 . S
C3351 C3354 1.463 . S
C3351 C3356 1.350 . S
C3351 N3359 1.427 . S
C3352 H3343 0.930 . S
C3352 C3350 1.378 . S
C3352 C3353 1.367 . S
C3353 C3352 1.367 . S
C3353 C3355 1.433 . S
C3354 C3350 1.350 . S
C3354 C3351 1.463 . S
C3354 N3358 1.427 . S
C3355 H3345 0.929 . S
C3355 C3353 1.433 . S
C3355 N3358 1.384 . S
C3356 H3347 0.929 . S
C3356 C3348 1.378 . S
C3356 C3351 1.350 . S
C3357 H3344 0.929 . S
C3357 C3349 1.433 . S
C3357 N3359 1.384 . S
N3358 C3354 1.427 . S
N3358 C3355 1.384 . S
N3359 C3351 1.427 . S
N3359 C3357 1.384 . S
H3360 C3366 0.930 . S
H3361 C3370 0.930 . S
H3362 C3375 0.929 . S
H3363 C3373 0.929 . S
H3364 C3368 0.929 . S
H3365 C3374 0.929 . S
C3366 H3360 0.930 . S
C3366 C3367 1.367 . S
C3366 C3374 1.378 . S
C3367 C3366 1.367 . S
C3367 C3375 1.433 . S
C3368 H3364 0.929 . S
C3368 C3370 1.378 . S
C3368 C3372 1.350 . S
C3369 C3372 1.463 . S
C3369 C3374 1.350 . S
C3369 N3377 1.427 . S
C3370 H3361 0.930 . S
C3370 C3368 1.378 . S
C3370 C3371 1.367 . S
C3371 C3370 1.367 . S
C3371 C3373 1.433 . S
C3372 C3368 1.350 . S
C3372 C3369 1.463 . S
C3372 N3376 1.427 . S
C3373 H3363 0.929 . S
C3373 C3371 1.433 . S
C3373 N3376 1.384 . S
C3374 H3365 0.929 . S
C3374 C3366 1.378 . S
C3374 C3369 1.350 . S
C3375 H3362 0.929 . S
C3375 C3367 1.433 . S
C3375 N3377 1.384 . S
N3376 C3372 1.427 . S
N3376 C3373 1.384 . S
N3377 C3369 1.427 . S
N3377 C3375 1.384 . S
H3378 C3384 0.930 . S
H3379 C3388 0.930 . S
H3380 C3393 0.929 . S
H3381 C3391 0.929 . S
H3382 C3386 0.929 . S
H3383 C3392 0.929 . S
C3384 H3378 0.930 . S
C3384 C3385 1.367 . S
C3384 C3392 1.378 . S
C3385 C3384 1.367 . S
C3385 C3393 1.433 . S
C3386 H3382 0.929 . S
C3386 C3388 1.378 . S
C3386 C3390 1.350 . S
C3387 C3390 1.463 . S
C3387 C3392 1.350 . S
C3387 N3395 1.427 . S
C3388 H3379 0.930 . S
C3388 C3386 1.378 . S
C3388 C3389 1.367 . S
C3389 C3388 1.367 . S
C3389 C3391 1.433 . S
C3390 C3386 1.350 . S
C3390 C3387 1.463 . S
C3390 N3394 1.427 . S
C3391 H3381 0.929 . S
C3391 C3389 1.433 . S
C3391 N3394 1.384 . S
C3392 H3383 0.929 . S
C3392 C3384 1.378 . S
C3392 C3387 1.350 . S
C3393 H3380 0.929 . S
C3393 C3385 1.433 . S
C3393 N3395 1.384 . S
N3394 C3390 1.427 . S
N3394 C3391 1.384 . S
N3395 C3387 1.427 . S
N3395 C3393 1.384 . S
H3396 C3402 0.930 . S
H3397 C3406 0.930 . S
H3398 C3411 0.929 . S
H3399 C3409 0.929 . S
H3400 C3404 0.929 . S
H3401 C3410 0.929 . S
C3402 H3396 0.930 . S
C3402 C3403 1.367 . S
C3402 C3410 1.378 . S
C3403 C3402 1.367 . S
C3403 C3411 1.433 . S
C3404 H3400 0.929 . S
C3404 C3406 1.378 . S
C3404 C3408 1.350 . S
C3405 C3408 1.463 . S
C3405 C3410 1.350 . S
C3405 N3413 1.427 . S
C3406 H3397 0.930 . S
C3406 C3404 1.378 . S
C3406 C3407 1.367 . S
C3407 C3406 1.367 . S
C3407 C3409 1.433 . S
C3408 C3404 1.350 . S
C3408 C3405 1.463 . S
C3408 N3412 1.427 . S
C3409 H3399 0.929 . S
C3409 C3407 1.433 . S
C3409 N3412 1.384 . S
C3410 H3401 0.929 . S
C3410 C3402 1.378 . S
C3410 C3405 1.350 . S
C3411 H3398 0.929 . S
C3411 C3403 1.433 . S
C3411 N3413 1.384 . S
N3412 C3408 1.427 . S
N3412 C3409 1.384 . S
N3413 C3405 1.427 . S
N3413 C3411 1.384 . S
H3414 C3420 0.930 . S
H3415 C3424 0.930 . S
H3416 C3429 0.929 . S
H3417 C3427 0.929 . S
H3418 C3422 0.929 . S
H3419 C3428 0.929 . S
C3420 H3414 0.930 . S
C3420 C3421 1.367 . S
C3420 C3428 1.378 . S
C3421 C3420 1.367 . S
C3421 C3429 1.433 . S
C3422 H3418 0.929 . S
C3422 C3424 1.378 . S
C3422 C3426 1.350 . S
C3423 C3426 1.463 . S
C3423 C3428 1.350 . S
C3423 N3431 1.427 . S
C3424 H3415 0.930 . S
C3424 C3422 1.378 . S
C3424 C3425 1.367 . S
C3425 C3424 1.367 . S
C3425 C3427 1.433 . S
C3426 C3422 1.350 . S
C3426 C3423 1.463 . S
C3426 N3430 1.427 . S
C3427 H3417 0.929 . S
C3427 C3425 1.433 . S
C3427 N3430 1.384 . S
C3428 H3419 0.929 . S
C3428 C3420 1.378 . S
C3428 C3423 1.350 . S
C3429 H3416 0.929 . S
C3429 C3421 1.433 . S
C3429 N3431 1.384 . S
N3430 C3426 1.427 . S
N3430 C3427 1.384 . S
N3431 C3423 1.427 . S
N3431 C3429 1.384 . S
H3432 C3438 0.930 . S
H3433 C3442 0.930 . S
H3434 C3447 0.929 . S
H3435 C3445 0.929 . S
H3436 C3440 0.929 . S
H3437 C3446 0.929 . S
C3438 H3432 0.930 . S
C3438 C3439 1.367 . S
C3438 C3446 1.378 . S
C3439 C3438 1.367 . S
C3439 C3447 1.433 . S
C3440 H3436 0.929 . S
C3440 C3442 1.378 . S
C3440 C3444 1.350 . S
C3441 C3444 1.463 . S
C3441 C3446 1.350 . S
C3441 N3449 1.427 . S
C3442 H3433 0.930 . S
C3442 C3440 1.378 . S
C3442 C3443 1.367 . S
C3443 C3442 1.367 . S
C3443 C3445 1.433 . S
C3444 C3440 1.350 . S
C3444 C3441 1.463 . S
C3444 N3448 1.427 . S
C3445 H3435 0.929 . S
C3445 C3443 1.433 . S
C3445 N3448 1.384 . S
C3446 H3437 0.929 . S
C3446 C3438 1.378 . S
C3446 C3441 1.350 . S
C3447 H3434 0.929 . S
C3447 C3439 1.433 . S
C3447 N3449 1.384 . S
N3448 C3444 1.427 . S
N3448 C3445 1.384 . S
N3449 C3441 1.427 . S
N3449 C3447 1.384 . S
H3450 C3456 0.930 . S
H3451 C3460 0.930 . S
H3452 C3465 0.929 . S
H3453 C3463 0.929 . S
H3454 C3458 0.929 . S
H3455 C3464 0.929 . S
C3456 H3450 0.930 . S
C3456 C3457 1.367 . S
C3456 C3464 1.378 . S
C3457 C3456 1.367 . S
C3457 C3465 1.433 . S
C3458 H3454 0.929 . S
C3458 C3460 1.378 . S
C3458 C3462 1.350 . S
C3459 C3462 1.463 . S
C3459 C3464 1.350 . S
C3459 N3467 1.427 . S
C3460 H3451 0.930 . S
C3460 C3458 1.378 . S
C3460 C3461 1.367 . S
C3461 C3460 1.367 . S
C3461 C3463 1.433 . S
C3462 C3458 1.350 . S
C3462 C3459 1.463 . S
C3462 N3466 1.427 . S
C3463 H3453 0.929 . S
C3463 C3461 1.433 . S
C3463 N3466 1.384 . S
C3464 H3455 0.929 . S
C3464 C3456 1.378 . S
C3464 C3459 1.350 . S
C3465 H3452 0.929 . S
C3465 C3457 1.433 . S
C3465 N3467 1.384 . S
N3466 C3462 1.427 . S
N3466 C3463 1.384 . S
N3467 C3459 1.427 . S
N3467 C3465 1.384 . S
H3468 C3474 0.930 . S
H3469 C3478 0.930 . S
H3470 C3483 0.929 . S
H3471 C3481 0.929 . S
H3472 C3476 0.929 . S
H3473 C3482 0.929 . S
C3474 H3468 0.930 . S
C3474 C3475 1.367 . S
C3474 C3482 1.378 . S
C3475 C3474 1.367 . S
C3475 C3483 1.433 . S
C3476 H3472 0.929 . S
C3476 C3478 1.378 . S
C3476 C3480 1.350 . S
C3477 C3480 1.463 . S
C3477 C3482 1.350 . S
C3477 N3485 1.427 . S
C3478 H3469 0.930 . S
C3478 C3476 1.378 . S
C3478 C3479 1.367 . S
C3479 C3478 1.367 . S
C3479 C3481 1.433 . S
C3480 C3476 1.350 . S
C3480 C3477 1.463 . S
C3480 N3484 1.427 . S
C3481 H3471 0.929 . S
C3481 C3479 1.433 . S
C3481 N3484 1.384 . S
C3482 H3473 0.929 . S
C3482 C3474 1.378 . S
C3482 C3477 1.350 . S
C3483 H3470 0.929 . S
C3483 C3475 1.433 . S
C3483 N3485 1.384 . S
N3484 C3480 1.427 . S
N3484 C3481 1.384 . S
N3485 C3477 1.427 . S
N3485 C3483 1.384 . S
H3486 C3492 0.930 . S
H3487 C3496 0.930 . S
H3488 C3501 0.929 . S
H3489 C3499 0.929 . S
H3490 C3494 0.929 . S
H3491 C3500 0.929 . S
C3492 H3486 0.930 . S
C3492 C3493 1.367 . S
C3492 C3500 1.378 . S
C3493 C3492 1.367 . S
C3493 C3501 1.433 . S
C3494 H3490 0.929 . S
C3494 C3496 1.378 . S
C3494 C3498 1.350 . S
C3495 C3498 1.463 . S
C3495 C3500 1.350 . S
C3495 N3503 1.427 . S
C3496 H3487 0.930 . S
C3496 C3494 1.378 . S
C3496 C3497 1.367 . S
C3497 C3496 1.367 . S
C3497 C3499 1.433 . S
C3498 C3494 1.350 . S
C3498 C3495 1.463 . S
C3498 N3502 1.427 . S
C3499 H3489 0.929 . S
C3499 C3497 1.433 . S
C3499 N3502 1.384 . S
C3500 H3491 0.929 . S
C3500 C3492 1.378 . S
C3500 C3495 1.350 . S
C3501 H3488 0.929 . S
C3501 C3493 1.433 . S
C3501 N3503 1.384 . S
N3502 C3498 1.427 . S
N3502 C3499 1.384 . S
N3503 C3495 1.427 . S
N3503 C3501 1.384 . S
H3504 C3510 0.930 . S
H3505 C3514 0.930 . S
H3506 C3519 0.929 . S
H3507 C3517 0.929 . S
H3508 C3512 0.929 . S
H3509 C3518 0.929 . S
C3510 H3504 0.930 . S
C3510 C3511 1.367 . S
C3510 C3518 1.378 . S
C3511 C3510 1.367 . S
C3511 C3519 1.433 . S
C3512 H3508 0.929 . S
C3512 C3514 1.378 . S
C3512 C3516 1.350 . S
C3513 C3516 1.463 . S
C3513 C3518 1.350 . S
C3513 N3521 1.427 . S
C3514 H3505 0.930 . S
C3514 C3512 1.378 . S
C3514 C3515 1.367 . S
C3515 C3514 1.367 . S
C3515 C3517 1.433 . S
C3516 C3512 1.350 . S
C3516 C3513 1.463 . S
C3516 N3520 1.427 . S
C3517 H3507 0.929 . S
C3517 C3515 1.433 . S
C3517 N3520 1.384 . S
C3518 H3509 0.929 . S
C3518 C3510 1.378 . S
C3518 C3513 1.350 . S
C3519 H3506 0.929 . S
C3519 C3511 1.433 . S
C3519 N3521 1.384 . S
N3520 C3516 1.427 . S
N3520 C3517 1.384 . S
N3521 C3513 1.427 . S
N3521 C3519 1.384 . S
H3522 C3528 0.930 . S
H3523 C3532 0.930 . S
H3524 C3537 0.929 . S
H3525 C3535 0.929 . S
H3526 C3530 0.929 . S
H3527 C3536 0.929 . S
C3528 H3522 0.930 . S
C3528 C3529 1.367 . S
C3528 C3536 1.378 . S
C3529 C3528 1.367 . S
C3529 C3537 1.433 . S
C3530 H3526 0.929 . S
C3530 C3532 1.378 . S
C3530 C3534 1.350 . S
C3531 C3534 1.463 . S
C3531 C3536 1.350 . S
C3531 N3539 1.427 . S
C3532 H3523 0.930 . S
C3532 C3530 1.378 . S
C3532 C3533 1.367 . S
C3533 C3532 1.367 . S
C3533 C3535 1.433 . S
C3534 C3530 1.350 . S
C3534 C3531 1.463 . S
C3534 N3538 1.427 . S
C3535 H3525 0.929 . S
C3535 C3533 1.433 . S
C3535 N3538 1.384 . S
C3536 H3527 0.929 . S
C3536 C3528 1.378 . S
C3536 C3531 1.350 . S
C3537 H3524 0.929 . S
C3537 C3529 1.433 . S
C3537 N3539 1.384 . S
N3538 C3534 1.427 . S
N3538 C3535 1.384 . S
N3539 C3531 1.427 . S
N3539 C3537 1.384 . S
H3540 C3546 0.930 . S
H3541 C3550 0.930 . S
H3542 C3555 0.929 . S
H3543 C3553 0.929 . S
H3544 C3548 0.929 . S
H3545 C3554 0.929 . S
C3546 H3540 0.930 . S
C3546 C3547 1.367 . S
C3546 C3554 1.378 . S
C3547 C3546 1.367 . S
C3547 C3555 1.433 . S
C3548 H3544 0.929 . S
C3548 C3550 1.378 . S
C3548 C3552 1.350 . S
C3549 C3552 1.463 . S
C3549 C3554 1.350 . S
C3549 N3557 1.427 . S
C3550 H3541 0.930 . S
C3550 C3548 1.378 . S
C3550 C3551 1.367 . S
C3551 C3550 1.367 . S
C3551 C3553 1.433 . S
C3552 C3548 1.350 . S
C3552 C3549 1.463 . S
C3552 N3556 1.427 . S
C3553 H3543 0.929 . S
C3553 C3551 1.433 . S
C3553 N3556 1.384 . S
C3554 H3545 0.929 . S
C3554 C3546 1.378 . S
C3554 C3549 1.350 . S
C3555 H3542 0.929 . S
C3555 C3547 1.433 . S
C3555 N3557 1.384 . S
N3556 C3552 1.427 . S
N3556 C3553 1.384 . S
N3557 C3549 1.427 . S
N3557 C3555 1.384 . S
H3558 C3564 0.930 . S
H3559 C3568 0.930 . S
H3560 C3573 0.929 . S
H3561 C3571 0.929 . S
H3562 C3566 0.929 . S
H3563 C3572 0.929 . S
C3564 H3558 0.930 . S
C3564 C3565 1.367 . S
C3564 C3572 1.378 . S
C3565 C3564 1.367 . S
C3565 C3573 1.433 . S
C3566 H3562 0.929 . S
C3566 C3568 1.378 . S
C3566 C3570 1.350 . S
C3567 C3570 1.463 . S
C3567 C3572 1.350 . S
C3567 N3575 1.427 . S
C3568 H3559 0.930 . S
C3568 C3566 1.378 . S
C3568 C3569 1.367 . S
C3569 C3568 1.367 . S
C3569 C3571 1.433 . S
C3570 C3566 1.350 . S
C3570 C3567 1.463 . S
C3570 N3574 1.427 . S
C3571 H3561 0.929 . S
C3571 C3569 1.433 . S
C3571 N3574 1.384 . S
C3572 H3563 0.929 . S
C3572 C3564 1.378 . S
C3572 C3567 1.350 . S
C3573 H3560 0.929 . S
C3573 C3565 1.433 . S
C3573 N3575 1.384 . S
N3574 C3570 1.427 . S
N3574 C3571 1.384 . S
N3575 C3567 1.427 . S
N3575 C3573 1.384 . S
H3576 C3582 0.930 . S
H3577 C3586 0.930 . S
H3578 C3591 0.929 . S
H3579 C3589 0.929 . S
H3580 C3584 0.929 . S
H3581 C3590 0.929 . S
C3582 H3576 0.930 . S
C3582 C3583 1.367 . S
C3582 C3590 1.378 . S
C3583 C3582 1.367 . S
C3583 C3591 1.433 . S
C3584 H3580 0.929 . S
C3584 C3586 1.378 . S
C3584 C3588 1.350 . S
C3585 C3588 1.463 . S
C3585 C3590 1.350 . S
C3585 N3593 1.427 . S
C3586 H3577 0.930 . S
C3586 C3584 1.378 . S
C3586 C3587 1.367 . S
C3587 C3586 1.367 . S
C3587 C3589 1.433 . S
C3588 C3584 1.350 . S
C3588 C3585 1.463 . S
C3588 N3592 1.427 . S
C3589 H3579 0.929 . S
C3589 C3587 1.433 . S
C3589 N3592 1.384 . S
C3590 H3581 0.929 . S
C3590 C3582 1.378 . S
C3590 C3585 1.350 . S
C3591 H3578 0.929 . S
C3591 C3583 1.433 . S
C3591 N3593 1.384 . S
N3592 C3588 1.427 . S
N3592 C3589 1.384 . S
N3593 C3585 1.427 . S
N3593 C3591 1.384 . S
H3594 C3600 0.930 . S
H3595 C3604 0.930 . S
H3596 C3609 0.929 . S
H3597 C3607 0.929 . S
H3598 C3602 0.929 . S
H3599 C3608 0.929 . S
C3600 H3594 0.930 . S
C3600 C3601 1.367 . S
C3600 C3608 1.378 . S
C3601 C3600 1.367 . S
C3601 C3609 1.433 . S
C3602 H3598 0.929 . S
C3602 C3604 1.378 . S
C3602 C3606 1.350 . S
C3603 C3606 1.463 . S
C3603 C3608 1.350 . S
C3603 N3611 1.427 . S
C3604 H3595 0.930 . S
C3604 C3602 1.378 . S
C3604 C3605 1.367 . S
C3605 C3604 1.367 . S
C3605 C3607 1.433 . S
C3606 C3602 1.350 . S
C3606 C3603 1.463 . S
C3606 N3610 1.427 . S
C3607 H3597 0.929 . S
C3607 C3605 1.433 . S
C3607 N3610 1.384 . S
C3608 H3599 0.929 . S
C3608 C3600 1.378 . S
C3608 C3603 1.350 . S
C3609 H3596 0.929 . S
C3609 C3601 1.433 . S
C3609 N3611 1.384 . S
N3610 C3606 1.427 . S
N3610 C3607 1.384 . S
N3611 C3603 1.427 . S
N3611 C3609 1.384 . S
H3612 C3618 0.930 . S
H3613 C3622 0.930 . S
H3614 C3627 0.929 . S
H3615 C3625 0.929 . S
H3616 C3620 0.929 . S
H3617 C3626 0.929 . S
C3618 H3612 0.930 . S
C3618 C3619 1.367 . S
C3618 C3626 1.378 . S
C3619 C3618 1.367 . S
C3619 C3627 1.433 . S
C3620 H3616 0.929 . S
C3620 C3622 1.378 . S
C3620 C3624 1.350 . S
C3621 C3624 1.463 . S
C3621 C3626 1.350 . S
C3621 N3629 1.427 . S
C3622 H3613 0.930 . S
C3622 C3620 1.378 . S
C3622 C3623 1.367 . S
C3623 C3622 1.367 . S
C3623 C3625 1.433 . S
C3624 C3620 1.350 . S
C3624 C3621 1.463 . S
C3624 N3628 1.427 . S
C3625 H3615 0.929 . S
C3625 C3623 1.433 . S
C3625 N3628 1.384 . S
C3626 H3617 0.929 . S
C3626 C3618 1.378 . S
C3626 C3621 1.350 . S
C3627 H3614 0.929 . S
C3627 C3619 1.433 . S
C3627 N3629 1.384 . S
N3628 C3624 1.427 . S
N3628 C3625 1.384 . S
N3629 C3621 1.427 . S
N3629 C3627 1.384 . S
H3630 C3636 0.930 . S
H3631 C3640 0.930 . S
H3632 C3645 0.929 . S
H3633 C3643 0.929 . S
H3634 C3638 0.929 . S
H3635 C3644 0.929 . S
C3636 H3630 0.930 . S
C3636 C3637 1.367 . S
C3636 C3644 1.378 . S
C3637 C3636 1.367 . S
C3637 C3645 1.433 . S
C3638 H3634 0.929 . S
C3638 C3640 1.378 . S
C3638 C3642 1.350 . S
C3639 C3642 1.463 . S
C3639 C3644 1.350 . S
C3639 N3647 1.427 . S
C3640 H3631 0.930 . S
C3640 C3638 1.378 . S
C3640 C3641 1.367 . S
C3641 C3640 1.367 . S
C3641 C3643 1.433 . S
C3642 C3638 1.350 . S
C3642 C3639 1.463 . S
C3642 N3646 1.427 . S
C3643 H3633 0.929 . S
C3643 C3641 1.433 . S
C3643 N3646 1.384 . S
C3644 H3635 0.929 . S
C3644 C3636 1.378 . S
C3644 C3639 1.350 . S
C3645 H3632 0.929 . S
C3645 C3637 1.433 . S
C3645 N3647 1.384 . S
N3646 C3642 1.427 . S
N3646 C3643 1.384 . S
N3647 C3639 1.427 . S
N3647 C3645 1.384 . S
C1063 C21 1.308 . S
C1067 C84 1.309 . S
C1081 C8 1.320 . S
C1085 C37 1.327 . S
C1099 C32 1.308 . S
C1103 C65 1.314 . S
C1117 C52 1.314 . S
C1121 C73 1.319 . S
C1135 C109 1.298 . S
C1139 C118 1.293 . S
C1153 C131 1.328 . S
C1157 C140 1.331 . S
C1171 C153 1.350 . S
C1175 C161 1.347 . S
C1189 C172 1.284 . S
C1193 C96 1.279 . S
C1207 C183 1.286 . S
C1211 C404 1.288 . S
C1225 C426 1.294 . S
C1229 C219 1.300 . S
C1243 C450 1.314 . S
C1247 C227 1.313 . S
C1261 C392 1.312 . S
C1265 C249 1.309 . S
C1279 C271 1.309 . S
C1283 C494 1.305 . S
C1297 C293 1.349 . S
C1301 C367 1.349 . S
C1315 C329 1.306 . S
C1319 C524 1.299 . S
C1333 C337 1.307 . S
C1337 C480 1.309 . S
C1351 C206 1.278 . S
C1355 C362 1.285 . S
C1369 C381 1.326 . S
C1373 C348 1.319 . S
C1387 C417 1.301 . S
C1391 C282 1.305 . S
C1405 C439 1.327 . S
C1409 C304 1.331 . S
C1423 C455 1.292 . S
C1427 C316 1.285 . S
C1441 C260 1.312 . S
C1445 C469 1.319 . S
C1459 C499 1.309 . S
C1463 C194 1.313 . S
C1477 C513 1.309 . S
C1481 C238 1.302 . S
C1495 C612 1.303 . S
C1499 C543 1.309 . S
C1513 C565 1.322 . S
C1517 C538 1.325 . S
C1531 C560 1.309 . S
C1535 C593 1.314 . S
C1549 C601 1.314 . S
C1553 C580 1.318 . S
C1567 C637 1.297 . S
C1571 C646 1.294 . S
C1585 C659 1.327 . S
C1589 C668 1.330 . S
C1603 C681 1.351 . S
C1607 C697 1.345 . S
C1621 C624 1.281 . S
C1625 C692 1.283 . S
C1639 C934 1.288 . S
C1643 C719 1.291 . S
C1657 C747 1.298 . S
C1661 C954 1.299 . S
C1675 C978 1.313 . S
C1679 C755 1.314 . S
C1693 C920 1.311 . S
C1697 C777 1.309 . S
C1711 C799 1.304 . S
C1715 C1030 1.307 . S
C1729 C821 1.350 . S
C1733 C901 1.347 . S
C1747 C1044 1.304 . S
C1751 C857 1.300 . S
C1765 C865 1.309 . S
C1769 C1000 1.308 . S
C1783 C734 1.279 . S
C1787 C888 1.285 . S
C1801 C876 1.322 . S
C1805 C909 1.322 . S
C1819 C939 1.301 . S
C1823 C810 1.305 . S
C1837 C967 1.328 . S
C1841 C832 1.331 . S
C1855 C983 1.292 . S
C1859 C844 1.286 . S
C1873 C1005 1.314 . S
C1877 C788 1.317 . S
C1891 C714 1.312 . S
C1895 C1019 1.315 . S
C1909 C1049 1.309 . S
C1913 C766 1.303 . S
C1927 C18 1.040 . S
C1931 C370 1.032 . S
C1945 C521 1.079 . S
C1949 C30 1.069 . S
C1963 C62 1.070 . S
C1967 C477 1.080 . S
C1981 C76 1.081 . S
C1985 C505 1.065 . S
C1999 C106 1.080 . S
C2003 C389 1.085 . S
C2017 C403 1.065 . S
C2021 C128 1.083 . S
C2035 C150 1.087 . S
C2039 C425 1.068 . S
C2053 C461 1.117 . S
C2057 C175 1.126 . S
C2071 C186 1.075 . S
C2075 C7 1.059 . S
C2089 C216 1.079 . S
C2093 C43 1.085 . S
C2107 C230 1.069 . S
C2111 C51 1.079 . S
C2125 C252 1.071 . S
C2129 C81 1.078 . S
C2143 C95 1.064 . S
C2147 C274 1.083 . S
C2161 C296 1.084 . S
C2165 C117 1.072 . S
C2179 C326 1.063 . S
C2183 C139 1.072 . S
C2197 C340 1.027 . S
C2201 C162 1.042 . S
C2215 C191 1.118 . S
C2219 C359 1.125 . S
C2233 C384 1.069 . S
C2237 C279 1.080 . S
C2251 C414 1.063 . S
C2255 C301 1.073 . S
C2269 C315 1.072 . S
C2273 C436 1.073 . S
C2287 C345 1.071 . S
C2291 C448 1.061 . S
C2305 C472 1.081 . S
C2309 C235 1.064 . S
C2323 C492 1.082 . S
C2327 C257 1.063 . S
C2341 C516 1.082 . S
C2345 C205 1.062 . S
C2359 C890 1.035 . S
C2363 C536 1.036 . S
C2377 C558 1.077 . S
C2381 C1055 1.074 . S
C2395 C590 1.074 . S
C2399 C1011 1.073 . S
C2413 C1027 1.078 . S
C2417 C604 1.070 . S
C2431 C917 1.086 . S
C2435 C634 1.083 . S
C2449 C656 1.070 . S
C2453 C945 1.079 . S
C2467 C953 1.071 . S
C2471 C678 1.080 . S
C2485 C989 1.116 . S
C2489 C689 1.127 . S
C2503 C549 1.070 . S
C2507 C712 1.061 . S
C2521 C571 1.072 . S
C2525 C744 1.092 . S
C2539 C579 1.066 . S
C2543 C758 1.082 . S
C2557 C609 1.073 . S
C2561 C780 1.074 . S
C2575 C623 1.064 . S
C2579 C802 1.083 . S
C2593 C645 1.068 . S
C2597 C824 1.084 . S
C2611 C667 1.070 . S
C2615 C854 1.064 . S
C2629 C868 1.031 . S
C2633 C700 1.039 . S
C2647 C895 1.126 . S
C2651 C725 1.117 . S
C2665 C912 1.082 . S
C2669 C807 1.063 . S
C2683 C932 1.064 . S
C2687 C829 1.073 . S
C2701 C964 1.077 . S
C2705 C843 1.067 . S
C2719 C976 1.069 . S
C2723 C873 1.067 . S
C2737 C998 1.081 . S
C2741 C763 1.062 . S
C2755 C1022 1.082 . S
C2759 C785 1.062 . S
C2773 C733 1.078 . S
C2777 C1042 1.068 . S
C2791 C10 1.000 . S
C2795 C986 1.010 . S
C2809 C910 0.989 . S
C2813 C40 0.986 . S
C2827 C942 0.992 . S
C2831 C54 0.994 . S
C2845 C74 1.000 . S
C2849 C956 0.987 . S
C2863 C1052 1.004 . S
C2867 C98 0.986 . S
C2881 C1008 0.997 . S
C2885 C120 0.990 . S
C2899 C1020 0.988 . S
C2903 C142 1.008 . S
C2917 C169 1.056 . S
C2921 C887 1.063 . S
C2935 C184 1.017 . S
C2939 C866 0.998 . S
C2953 C800 0.987 . S
C2957 C208 1.003 . S
C2971 C822 0.994 . S
C2975 C228 0.997 . S
C2989 C846 0.996 . S
C2993 C250 0.982 . S
C3007 C272 1.001 . S
C3011 C736 0.991 . S
C3025 C294 0.992 . S
C3029 C756 1.000 . S
C3043 C318 0.996 . S
C3047 C778 0.981 . S
C3061 C722 0.998 . S
C3065 C338 1.016 . S
C3079 C373 1.070 . S
C3083 C703 1.051 . S
C3097 C382 0.983 . S
C3101 C568 1.000 . S
C3115 C406 0.984 . S
C3119 C582 0.999 . S
C3133 C428 1.001 . S
C3137 C602 0.982 . S
C3151 C458 0.999 . S
C3155 C546 1.011 . S
C3169 C648 0.988 . S
C3173 C470 0.998 . S
C3187 C502 1.000 . S
C3191 C670 0.991 . S
C3205 C514 1.002 . S
C3209 C626 0.984 . S
C3223 C164 1.056 . S
C3227 C711 1.077 . S
C3241 C741 1.098 . S
C3245 C103 1.102 . S
C3259 C125 1.113 . S
C3263 C769 1.111 . S
C3277 C147 1.122 . S
C3281 C791 1.110 . S
C3295 C29 1.118 . S
C3299 C813 1.100 . S
C3313 C835 1.112 . S
C3317 C59 1.118 . S
C3331 C87 1.106 . S
C3335 C851 1.122 . S
C3349 C15 1.102 . S
C3353 C879 1.110 . S
C3367 C447 1.069 . S
C3371 C898 1.062 . S
C3385 C1041 1.103 . S
C3389 C395 1.114 . S
C3403 C997 1.104 . S
C3407 C411 1.123 . S
C3421 C433 1.123 . S
C3425 C1033 1.103 . S
C3439 C527 1.117 . S
C3443 C923 1.102 . S
C3457 C483 1.104 . S
C3461 C931 1.124 . S
C3475 C961 1.104 . S
C3479 C491 1.121 . S
C3493 C975 1.057 . S
C3497 C360 1.076 . S
C3511 C351 1.097 . S
C3515 C535 1.117 . S
C3529 C213 1.093 . S
C3533 C631 1.107 . S
C3547 C653 1.105 . S
C3551 C241 1.122 . S
C3565 C263 1.125 . S
C3569 C675 1.105 . S
C3583 C197 1.071 . S
C3587 C690 1.063 . S
C3601 C307 1.116 . S
C3605 C587 1.113 . S
C3619 C323 1.104 . S
C3623 C615 1.123 . S
C3637 C557 1.118 . S
C3641 C285 1.100 . S
