# Generated by pormake.
# Topology wjh, (4)-cn, num edge types: 1
# Building blocks:
#     Node 0, Type 0, BuildingBlock: AZAVOO_clean_sbu_0, # of connection points: 4
#     Node 1, Type 0, BuildingBlock: AZAVOO_clean_sbu_0, # of connection points: 4
#     Node 2, Type 0, BuildingBlock: AZAVOO_clean_sbu_0, # of connection points: 4
#     Node 3, Type 0, BuildingBlock: AZAVOO_clean_sbu_0, # of connection points: 4
#     Node 4, Type 0, BuildingBlock: AZAVOO_clean_sbu_0, # of connection points: 4
#     Node 5, Type 0, BuildingBlock: AZAVOO_clean_sbu_0, # of connection points: 4
#     Node 6, Type 0, BuildingBlock: AZAVOO_clean_sbu_0, # of connection points: 4
#     Node 7, Type 0, BuildingBlock: AZAVOO_clean_sbu_0, # of connection points: 4
#     Node 8, Type 0, BuildingBlock: AZAVOO_clean_sbu_0, # of connection points: 4
#     Node 9, Type 0, BuildingBlock: AZAVOO_clean_sbu_0, # of connection points: 4
#     Node 10, Type 0, BuildingBlock: AZAVOO_clean_sbu_0, # of connection points: 4
#     Node 11, Type 0, BuildingBlock: AZAVOO_clean_sbu_0, # of connection points: 4
#     Edge 12, Type (0, 0), BuildingBlock: TEMPAE_clean_linker_10, # of connection points: 2
#     Edge 13, Type (0, 0), BuildingBlock: TEMPAE_clean_linker_10, # of connection points: 2
#     Edge 14, Type (0, 0), BuildingBlock: TEMPAE_clean_linker_10, # of connection points: 2
#     Edge 15, Type (0, 0), BuildingBlock: TEMPAE_clean_linker_10, # of connection points: 2
#     Edge 16, Type (0, 0), BuildingBlock: TEMPAE_clean_linker_10, # of connection points: 2
#     Edge 17, Type (0, 0), BuildingBlock: TEMPAE_clean_linker_10, # of connection points: 2
#     Edge 18, Type (0, 0), BuildingBlock: TEMPAE_clean_linker_10, # of connection points: 2
#     Edge 19, Type (0, 0), BuildingBlock: TEMPAE_clean_linker_10, # of connection points: 2
#     Edge 20, Type (0, 0), BuildingBlock: TEMPAE_clean_linker_10, # of connection points: 2
#     Edge 21, Type (0, 0), BuildingBlock: TEMPAE_clean_linker_10, # of connection points: 2
#     Edge 22, Type (0, 0), BuildingBlock: TEMPAE_clean_linker_10, # of connection points: 2
#     Edge 23, Type (0, 0), BuildingBlock: TEMPAE_clean_linker_10, # of connection points: 2
#     Edge 24, Type (0, 0), BuildingBlock: TEMPAE_clean_linker_10, # of connection points: 2
#     Edge 25, Type (0, 0), BuildingBlock: TEMPAE_clean_linker_10, # of connection points: 2
#     Edge 26, Type (0, 0), BuildingBlock: TEMPAE_clean_linker_10, # of connection points: 2
#     Edge 27, Type (0, 0), BuildingBlock: TEMPAE_clean_linker_10, # of connection points: 2
#     Edge 28, Type (0, 0), BuildingBlock: TEMPAE_clean_linker_10, # of connection points: 2
#     Edge 29, Type (0, 0), BuildingBlock: TEMPAE_clean_linker_10, # of connection points: 2
#     Edge 30, Type (0, 0), BuildingBlock: TEMPAE_clean_linker_10, # of connection points: 2
#     Edge 31, Type (0, 0), BuildingBlock: TEMPAE_clean_linker_10, # of connection points: 2
#     Edge 32, Type (0, 0), BuildingBlock: TEMPAE_clean_linker_10, # of connection points: 2
#     Edge 33, Type (0, 0), BuildingBlock: TEMPAE_clean_linker_10, # of connection points: 2
#     Edge 34, Type (0, 0), BuildingBlock: TEMPAE_clean_linker_10, # of connection points: 2
#     Edge 35, Type (0, 0), BuildingBlock: TEMPAE_clean_linker_10, # of connection points: 2
# Relax obj value: 0.170
# Max RMSD: 0.150
# Mean RMSD: 0.150
data_MOF--net-wjh--node1-AZAVOO_clean_sbu_0--edge1-TEMPAE_clean_linker_10
_symmetry_space_group_name_H-M    P1
_symmetry_Int_Tables_number       1
_symmetry_cell_setting            triclinic
loop_
_symmetry_equiv_pos_as_xyz
'x, y, z'
_cell_length_a     63.661375
_cell_length_b     63.690545
_cell_length_c     24.00638
_cell_angle_alpha  90.003091
_cell_angle_beta   89.991928
_cell_angle_gamma 120.00437
loop_
_atom_site_label
_atom_site_type_symbol
_atom_site_fract_x
_atom_site_fract_y
_atom_site_fract_z
_atom_type_partial_charge
Mg0 Mg 0.51553 0.13796 0.05746 0.0
O1 O 0.53006 0.12825 0.1361 0.0
O2 O 0.53209 0.09525 0.11345 0.0
Mg3 Mg 0.51997 0.08431 0.02417 0.0
C4 C 0.53498 0.11161 0.14834 0.0
C5 C 0.52234 0.18759 0.05478 0.0
O6 O 0.5197 0.18033 0.00269 0.0
O7 O 0.55279 0.1542 0.01704 0.0
O8 O 0.5529 0.12005 0.99647 0.0
O9 O 0.47723 0.11326 0.08355 0.0
O10 O 0.49839 0.10216 0.03088 0.0
C11 C 0.56304 0.14317 0.99624 0.0
C12 C 0.47857 0.09627 0.05711 0.0
O13 O 0.52366 0.17419 0.09217 0.0
Mg14 Mg 0.38128 0.50891 0.32053 0.0
O15 O 0.40276 0.52045 0.40361 0.0
O16 O 0.43713 0.52018 0.38583 0.0
Mg17 Mg 0.4366 0.50586 0.29858 0.0
C18 C 0.42373 0.52428 0.41844 0.0
C19 C 0.34905 0.53077 0.30661 0.0
O20 O 0.35841 0.53243 0.2569 0.0
O21 O 0.40789 0.54551 0.28321 0.0
O22 O 0.43969 0.54087 0.26394 0.0
O23 O 0.36143 0.4691 0.3409 0.0
O24 O 0.39711 0.48863 0.29961 0.0
C25 C 0.42891 0.55325 0.26234 0.0
C26 C 0.37968 0.46861 0.31854 0.0
O27 O 0.35588 0.52243 0.34643 0.0
Mg28 Mg 0.88184 0.34585 0.39088 0.0
O29 O 0.88295 0.37075 0.46149 0.0
O30 O 0.90711 0.4092 0.43576 0.0
Mg31 Mg 0.9214 0.40889 0.34878 0.0
C32 C 0.89301 0.39348 0.47107 0.0
C33 C 0.84857 0.2939 0.43571 0.0
O34 O 0.86645 0.2915 0.41554 0.0
O35 O 0.85667 0.35437 0.34061 0.0
O36 O 0.88271 0.39242 0.31483 0.0
O37 O 0.91481 0.34627 0.42504 0.0
O38 O 0.91573 0.37229 0.363 0.0
C39 C 0.8615 0.37372 0.31453 0.0
C40 C 0.92741 0.36531 0.39449 0.0
O41 O 0.84971 0.31432 0.43231 0.0
Mg42 Mg 0.47115 0.84046 0.55739 0.0
O43 O 0.45674 0.85314 0.63056 0.0
O44 O 0.45651 0.88667 0.60447 0.0
Mg45 Mg 0.46933 0.8947 0.51456 0.0
C46 C 0.45271 0.87051 0.64075 0.0
C47 C 0.46562 0.80504 0.65216 0.0
O48 O 0.47606 0.82568 0.67946 0.0
O49 O 0.43452 0.82458 0.5139 0.0
O50 O 0.43586 0.85902 0.48889 0.0
O51 O 0.50934 0.86497 0.58497 0.0
O52 O 0.48971 0.87564 0.52608 0.0
C53 C 0.42508 0.83587 0.49052 0.0
C54 C 0.50896 0.88163 0.55484 0.0
O55 O 0.46021 0.80495 0.60121 0.0
Mg56 Mg 0.62171 0.49665 0.7051 0.0
O57 O 0.59447 0.48055 0.77834 0.0
O58 O 0.56171 0.48265 0.75348 0.0
Mg59 Mg 0.56799 0.50066 0.6684 0.0
C60 C 0.57305 0.4767 0.78813 0.0
C61 C 0.65186 0.47054 0.70637 0.0
O62 O 0.64519 0.46757 0.65385 0.0
O63 O 0.59878 0.46274 0.65387 0.0
O64 O 0.56765 0.46765 0.62954 0.0
O65 O 0.63856 0.53384 0.74119 0.0
O66 O 0.60721 0.51838 0.68379 0.0
C67 C 0.57894 0.45579 0.62786 0.0
C68 C 0.62194 0.53603 0.71524 0.0
O69 O 0.64442 0.48117 0.73898 0.0
Mg70 Mg 0.09757 0.64277 0.88348 0.0
O71 O 0.09844 0.61941 0.95579 0.0
O72 O 0.07445 0.58056 0.93249 0.0
Mg73 Mg 0.05825 0.57899 0.84693 0.0
C74 C 0.08893 0.59679 0.96642 0.0
C75 C 0.14448 0.69167 0.88476 0.0
O76 O 0.13985 0.68796 0.83119 0.0
O77 O 0.12227 0.63384 0.8327 0.0
O78 O 0.09639 0.59537 0.80973 0.0
O79 O 0.06507 0.6425 0.91978 0.0
O80 O 0.06344 0.61541 0.85996 0.0
C81 C 0.11745 0.61427 0.80769 0.0
C82 C 0.05214 0.62277 0.89166 0.0
O83 O 0.13005 0.67588 0.91913 0.0
Mg84 Mg 0.83364 0.46823 0.92212 0.0
O85 O 0.8483 0.45534 0.84972 0.0
O86 O 0.88249 0.45708 0.87846 0.0
Mg87 Mg 0.88915 0.46967 0.96859 0.0
C88 C 0.86657 0.45256 0.84099 0.0
C89 C 0.79858 0.46519 0.82995 0.0
O90 O 0.81954 0.48163 0.80926 0.0
O91 O 0.81908 0.43178 0.9661 0.0
O92 O 0.85426 0.43513 0.99292 0.0
O93 O 0.85721 0.50686 0.89536 0.0
O94 O 0.86828 0.48812 0.95575 0.0
C95 C 0.83111 0.42333 0.99032 0.0
C96 C 0.87387 0.5072 0.92686 0.0
O97 O 0.79821 0.45521 0.87599 0.0
Mg98 Mg 0.33915 0.87331 0.09074 0.0
O99 O 0.36522 0.87575 0.02151 0.0
O100 O 0.40323 0.90087 0.0491 0.0
Mg101 Mg 0.40152 0.91363 0.1368 0.0
C102 C 0.38809 0.88672 0.01291 0.0
C103 C 0.2895 0.84197 0.03362 0.0
O104 O 0.28816 0.86141 0.04543 0.0
O105 O 0.3477 0.84809 0.14085 0.0
O106 O 0.38553 0.87457 0.16741 0.0
O107 O 0.33955 0.90624 0.05656 0.0
O108 O 0.36477 0.90707 0.12079 0.0
C109 C 0.36717 0.85315 0.16673 0.0
C110 C 0.35818 0.91876 0.08829 0.0
O111 O 0.3085 0.84137 0.04674 0.0
Mg112 Mg 0.45845 0.34214 0.21623 0.0
O113 O 0.4772 0.37151 0.14955 0.0
O114 O 0.47968 0.40592 0.17865 0.0
Mg115 Mg 0.46223 0.39832 0.26515 0.0
C116 C 0.48372 0.39379 0.14217 0.0
C117 C 0.45917 0.29674 0.17036 0.0
O118 O 0.43728 0.28578 0.19199 0.0
O119 O 0.49269 0.35942 0.26934 0.0
O120 O 0.49306 0.39311 0.29765 0.0
O121 O 0.42144 0.33235 0.18214 0.0
O122 O 0.44106 0.35917 0.24862 0.0
C123 C 0.50222 0.37926 0.29666 0.0
C124 C 0.42231 0.34813 0.21751 0.0
O125 O 0.47166 0.31969 0.17186 0.0
Mg126 Mg 0.14701 0.51988 0.41744 0.0
O127 O 0.13428 0.53425 0.34383 0.0
O128 O 0.10036 0.53343 0.37149 0.0
Mg129 Mg 0.09184 0.51996 0.46066 0.0
C130 C 0.11652 0.53786 0.33472 0.0
C131 C 0.18715 0.51792 0.34826 0.0
O132 O 0.16881 0.49608 0.33885 0.0
O133 O 0.16182 0.55606 0.46269 0.0
O134 O 0.12687 0.55376 0.48741 0.0
O135 O 0.12279 0.48144 0.38901 0.0
O136 O 0.11183 0.50065 0.44816 0.0
C137 C 0.15003 0.56496 0.48612 0.0
C138 C 0.10604 0.4815 0.41946 0.0
O139 O 0.18362 0.53267 0.37677 0.0
Mg140 Mg 0.64815 0.10506 0.59629 0.0
O141 O 0.62321 0.10525 0.52679 0.0
O142 O 0.58487 0.08095 0.55367 0.0
Mg143 Mg 0.58509 0.0658 0.63931 0.0
C144 C 0.60037 0.09534 0.51835 0.0
C145 C 0.69809 0.15024 0.58949 0.0
O146 O 0.69622 0.14452 0.64257 0.0
O147 O 0.64035 0.13029 0.64854 0.0
O148 O 0.60213 0.10438 0.67352 0.0
O149 O 0.64694 0.07217 0.5593 0.0
O150 O 0.62128 0.07112 0.62255 0.0
C151 C 0.62094 0.1255 0.67433 0.0
C152 C 0.6278 0.05954 0.5895 0.0
O153 O 0.68058 0.13715 0.55713 0.0
Mg154 Mg 0.54209 0.66664 0.83147 0.0
O155 O 0.51698 0.63478 0.77427 0.0
O156 O 0.51772 0.60159 0.80106 0.0
Mg157 Mg 0.54219 0.61191 0.87763 0.0
C158 C 0.51026 0.61234 0.76854 0.0
C159 C 0.5036 0.68085 0.79415 0.0
O160 O 0.48851 0.65907 0.81328 0.0
O161 O 0.51398 0.65226 0.90121 0.0
O162 O 0.51506 0.6188 0.9247 0.0
O163 O 0.57349 0.6737 0.77651 0.0
O164 O 0.56186 0.64999 0.85073 0.0
C165 C 0.50653 0.63306 0.93029 0.0
C166 C 0.57582 0.65849 0.8081 0.0
O167 O 0.5263 0.68867 0.79544 0.0
C168 C 0.54943 0.12901 0.24422 0.0
C169 C 0.54484 0.11117 0.20414 0.0
C170 C 0.55907 0.12857 0.29667 0.0
C171 C 0.56422 0.10986 0.30918 0.0
C172 C 0.55968 0.09189 0.2689 0.0
C173 C 0.55007 0.09275 0.21707 0.0
C174 C 0.56366 0.14801 0.33876 0.0
C175 C 0.56484 0.07158 0.28063 0.0
C176 C 0.60754 0.11513 0.4243 0.0
C177 C 0.59137 0.10053 0.46602 0.0
C178 C 0.59899 0.1192 0.37379 0.0
C179 C 0.57369 0.10842 0.36482 0.0
C180 C 0.55732 0.09434 0.40741 0.0
C181 C 0.56634 0.09055 0.45738 0.0
C182 C 0.617 0.13432 0.32928 0.0
C183 C 0.53021 0.08251 0.39946 0.0
H184 H 0.54552 0.14334 0.23467 0.0
H185 H 0.54666 0.07884 0.18659 0.0
H186 H 0.55265 0.13965 0.3767 0.0
H187 H 0.58298 0.15754 0.35163 0.0
H188 H 0.55916 0.16158 0.32222 0.0
H189 H 0.5607 0.05927 0.2444 0.0
H190 H 0.58421 0.07916 0.29188 0.0
H191 H 0.55387 0.06072 0.31665 0.0
H192 H 0.6269 0.12305 0.4306 0.0
H193 H 0.55364 0.07941 0.48941 0.0
H194 H 0.61321 0.14855 0.31415 0.0
H195 H 0.61518 0.12268 0.29312 0.0
H196 H 0.63602 0.14315 0.34445 0.0
H197 H 0.52528 0.09611 0.38558 0.0
H198 H 0.52002 0.07377 0.43819 0.0
H199 H 0.52428 0.0685 0.36642 0.0
C200 C 0.41959 0.53825 0.5141 0.0
C201 C 0.43386 0.53537 0.4736 0.0
C202 C 0.42973 0.5499 0.56505 0.0
C203 C 0.45476 0.55915 0.57534 0.0
C204 C 0.46915 0.55608 0.53487 0.0
C205 C 0.45854 0.54414 0.48486 0.0
C206 C 0.41375 0.55251 0.60765 0.0
C207 C 0.49597 0.56585 0.54388 0.0
C208 C 0.49039 0.61068 0.6771 0.0
C209 C 0.49405 0.59852 0.72151 0.0
C210 C 0.47679 0.59796 0.63017 0.0
C211 C 0.46629 0.57244 0.62784 0.0
C212 C 0.46894 0.55995 0.67365 0.0
C213 C 0.48291 0.57314 0.71971 0.0
C214 C 0.47465 0.612 0.58193 0.0
C215 C 0.45778 0.53272 0.67313 0.0
H216 H 0.40052 0.53151 0.50594 0.0
H217 H 0.46984 0.54217 0.45395 0.0
H218 H 0.4149 0.54466 0.64803 0.0
H219 H 0.42015 0.57199 0.61494 0.0
H220 H 0.39445 0.54343 0.59437 0.0
H221 H 0.50461 0.56194 0.50823 0.0
H222 H 0.50532 0.58577 0.55014 0.0
H223 H 0.49888 0.55781 0.58204 0.0
H224 H 0.49888 0.63027 0.67805 0.0
H225 H 0.48538 0.56353 0.75404 0.0
H226 H 0.45539 0.60422 0.56952 0.0
H227 H 0.48455 0.61056 0.54541 0.0
H228 H 0.48219 0.63149 0.59196 0.0
H229 H 0.43837 0.52391 0.66112 0.0
H230 H 0.45919 0.52553 0.71427 0.0
H231 H 0.46709 0.52749 0.64165 0.0
C232 C 0.85319 0.43944 0.7423 0.0
C233 C 0.86951 0.44368 0.78595 0.0
C234 C 0.856 0.43106 0.6902 0.0
C235 C 0.87555 0.42678 0.68161 0.0
C236 C 0.89202 0.43095 0.72547 0.0
C237 C 0.88883 0.43936 0.77697 0.0
C238 C 0.83811 0.42688 0.64428 0.0
C239 C 0.9131 0.42658 0.71799 0.0
C240 C 0.87305 0.38521 0.565 0.0
C241 C 0.88805 0.40193 0.52454 0.0
C242 C 0.86845 0.39303 0.61589 0.0
C243 C 0.87906 0.41817 0.62664 0.0
C244 C 0.89394 0.43513 0.58579 0.0
C245 C 0.89827 0.42682 0.53533 0.0
C246 C 0.85253 0.3744 0.65854 0.0
C247 C 0.90559 0.46209 0.59572 0.0
H248 H 0.83822 0.44274 0.7487 0.0
H249 H 0.90156 0.44251 0.8103 0.0
H250 H 0.84776 0.43847 0.6079 0.0
H251 H 0.8293 0.40776 0.63006 0.0
H252 H 0.82381 0.43093 0.65774 0.0
H253 H 0.92415 0.43049 0.75646 0.0
H254 H 0.90635 0.40745 0.70583 0.0
H255 H 0.92503 0.43817 0.6839 0.0
H256 H 0.86499 0.36595 0.55715 0.0
H257 H 0.90981 0.43993 0.50439 0.0
H258 H 0.83732 0.37728 0.67049 0.0
H259 H 0.86316 0.37649 0.69683 0.0
H260 H 0.84491 0.35555 0.64297 0.0
H261 H 0.89154 0.46688 0.6063 0.0
H262 H 0.9159 0.47289 0.55887 0.0
H263 H 0.91818 0.4674 0.63168 0.0
C264 C 0.4377 0.89042 0.70709 0.0
C265 C 0.44313 0.87199 0.69611 0.0
C266 C 0.42852 0.89213 0.75893 0.0
C267 C 0.4247 0.87504 0.80104 0.0
C268 C 0.43012 0.85639 0.79044 0.0
C269 C 0.43924 0.85505 0.73806 0.0
C270 C 0.42296 0.91229 0.76864 0.0
C271 C 0.42634 0.83789 0.83447 0.0
C272 C 0.42247 0.89437 0.94946 0.0
C273 C 0.3974 0.88304 0.95926 0.0
C274 C 0.4316 0.89149 0.8986 0.0
C275 C 0.41528 0.87698 0.85636 0.0
C276 C 0.38998 0.8652 0.86613 0.0
C277 C 0.38133 0.86835 0.91745 0.0
C278 C 0.45871 0.90433 0.88974 0.0
C279 C 0.37202 0.84962 0.82198 0.0
H280 H 0.44058 0.90359 0.67508 0.0
H281 H 0.44335 0.84074 0.73009 0.0
H282 H 0.4036 0.90455 0.78017 0.0
H283 H 0.43396 0.9238 0.80389 0.0
H284 H 0.42674 0.92398 0.73135 0.0
H285 H 0.43138 0.82448 0.81957 0.0
H286 H 0.43736 0.84714 0.87184 0.0
H287 H 0.40706 0.82804 0.84769 0.0
H288 H 0.43508 0.90568 0.98145 0.0
H289 H 0.36194 0.85947 0.92454 0.0
H290 H 0.46383 0.91757 0.85519 0.0
H291 H 0.46438 0.89109 0.87751 0.0
H292 H 0.46897 0.91412 0.9276 0.0
H293 H 0.3739 0.86082 0.78488 0.0
H294 H 0.35297 0.84094 0.8369 0.0
H295 H 0.37585 0.83522 0.80832 0.0
C296 C 0.49915 0.3926 0.0467 0.0
C297 C 0.49704 0.40607 0.09045 0.0
C298 C 0.51202 0.40398 0.99795 0.0
C299 C 0.52323 0.42949 0.99285 0.0
C300 C 0.52133 0.44323 0.03691 0.0
C301 C 0.50817 0.43136 0.08503 0.0
C302 C 0.5134 0.38867 0.95163 0.0
C303 C 0.53313 0.47048 0.03315 0.0
C304 C 0.57312 0.46104 0.88438 0.0
C305 C 0.56058 0.46469 0.84085 0.0
C306 C 0.56126 0.44974 0.93429 0.0
C307 C 0.53623 0.44171 0.94059 0.0
C308 C 0.52347 0.44525 0.89676 0.0
C309 C 0.53579 0.45675 0.84766 0.0
C310 C 0.5755 0.44644 0.98033 0.0
C311 C 0.49674 0.43677 0.90161 0.0
H312 H 0.49061 0.37306 0.05034 0.0
H313 H 0.5068 0.44197 0.11864 0.0
H314 H 0.50509 0.39101 0.91323 0.0
H315 H 0.53263 0.39469 0.94189 0.0
H316 H 0.504 0.36909 0.96242 0.0
H317 H 0.5306 0.47859 0.07173 0.0
H318 H 0.55286 0.47858 0.02522 0.0
H319 H 0.5254 0.4755 0.99761 0.0
H320 H 0.59226 0.46715 0.87967 0.0
H321 H 0.52583 0.45934 0.8143 0.0
H322 H 0.56752 0.42689 0.99009 0.0
H323 H 0.57445 0.45553 0.01882 0.0
H324 H 0.59489 0.45393 0.96919 0.0
H325 H 0.48639 0.41694 0.90924 0.0
H326 H 0.48943 0.44077 0.86356 0.0
H327 H 0.49349 0.44567 0.93767 0.0
C328 C 0.09557 0.55271 0.27131 0.0
C329 C 0.11437 0.54758 0.2801 0.0
C330 C 0.09279 0.56157 0.22008 0.0
C331 C 0.10917 0.56541 0.17622 0.0
C332 C 0.12836 0.56057 0.18476 0.0
C333 C 0.13076 0.55172 0.23665 0.0
C334 C 0.07207 0.5665 0.21268 0.0
C335 C 0.14615 0.56443 0.13884 0.0
C336 C 0.08498 0.56416 0.03116 0.0
C337 C 0.09494 0.58895 0.01944 0.0
C338 C 0.09006 0.5563 0.08131 0.0
C339 C 0.10546 0.57362 0.12093 0.0
C340 C 0.11597 0.59866 0.10909 0.0
C341 C 0.11059 0.60604 0.05849 0.0
C342 C 0.07846 0.52942 0.09242 0.0
C343 C 0.13247 0.61765 0.1504 0.0
H344 H 0.08283 0.54971 0.3045 0.0
H345 H 0.14535 0.54787 0.24297 0.0
H346 H 0.07912 0.58555 0.19941 0.0
H347 H 0.05973 0.55467 0.1794 0.0
H348 H 0.06136 0.56326 0.25148 0.0
H349 H 0.16058 0.56066 0.15274 0.0
H350 H 0.13643 0.55241 0.10312 0.0
H351 H 0.15479 0.58338 0.12349 0.0
H352 H 0.07297 0.55076 0.00129 0.0
H353 H 0.11848 0.62522 0.04983 0.0
H354 H 0.06603 0.52443 0.12863 0.0
H355 H 0.09254 0.5247 0.10318 0.0
H356 H 0.06798 0.51832 0.05609 0.0
H357 H 0.12218 0.61629 0.18884 0.0
H358 H 0.14033 0.63634 0.13357 0.0
H359 H 0.1475 0.61451 0.16251 0.0
C360 C 0.45605 0.25746 0.14277 0.0
C361 C 0.47017 0.28263 0.14932 0.0
C362 C 0.4666 0.24374 0.12593 0.0
C363 C 0.4919 0.25548 0.11598 0.0
C364 C 0.50622 0.28091 0.12184 0.0
C365 C 0.49516 0.29421 0.13816 0.0
C366 C 0.45071 0.21663 0.11938 0.0
C367 C 0.53327 0.29399 0.11192 0.0
C368 C 0.51848 0.21406 0.12619 0.0
C369 C 0.51869 0.20802 0.07011 0.0
C370 C 0.5109 0.23048 0.14162 0.0
C371 C 0.50328 0.24094 0.09995 0.0
C372 C 0.50485 0.23605 0.04312 0.0
C373 C 0.51266 0.21972 0.02886 0.0
C374 C 0.50983 0.23561 0.20265 0.0
C375 C 0.49694 0.24693 0.99752 0.0
H376 H 0.43674 0.24843 0.15113 0.0
H377 H 0.50623 0.31368 0.14336 0.0
H378 H 0.45256 0.21111 0.07665 0.0
H379 H 0.45662 0.20717 0.14881 0.0
H380 H 0.43126 0.2104 0.12721 0.0
H381 H 0.54172 0.31394 0.11696 0.0
H382 H 0.54198 0.28732 0.1416 0.0
H383 H 0.53721 0.29013 0.06933 0.0
H384 H 0.52328 0.20523 0.15827 0.0
H385 H 0.51292 0.21528 0.98537 0.0
H386 H 0.49061 0.22756 0.21579 0.0
H387 H 0.51873 0.25543 0.21004 0.0
H388 H 0.51868 0.22802 0.22933 0.0
H389 H 0.47703 0.23938 1e-05 0.0
H390 H 0.50142 0.2431 0.95537 0.0
H391 H 0.50563 0.26685 0.00286 0.0
C392 C 0.31468 0.52795 0.36281 0.0
C393 C 0.32832 0.5349 0.31354 0.0
C394 C 0.29284 0.52824 0.36662 0.0
C395 C 0.28459 0.5358 0.32017 0.0
C396 C 0.29904 0.54431 0.27163 0.0
C397 C 0.32074 0.54371 0.26884 0.0
C398 C 0.27794 0.51911 0.41923 0.0
C399 C 0.29099 0.55282 0.22155 0.0
C400 C 0.21628 0.50619 0.31002 0.0
C401 C 0.21213 0.52388 0.33384 0.0
C402 C 0.23989 0.51024 0.30346 0.0
C403 C 0.25983 0.53259 0.32079 0.0
C404 C 0.25587 0.55105 0.34194 0.0
C405 C 0.23202 0.54646 0.34834 0.0
C406 C 0.24341 0.49014 0.28042 0.0
C407 C 0.27672 0.57523 0.36011 0.0
H408 H 0.32047 0.52124 0.39762 0.0
H409 H 0.33132 0.54935 0.23078 0.0
H410 H 0.27276 0.53237 0.43428 0.0
H411 H 0.26093 0.50192 0.41034 0.0
H412 H 0.2878 0.51575 0.45307 0.0
H413 H 0.30565 0.56176 0.19007 0.0
H414 H 0.27529 0.53708 0.20161 0.0
H415 H 0.28493 0.56569 0.23429 0.0
H416 H 0.20104 0.48875 0.29841 0.0
H417 H 0.22898 0.56031 0.36644 0.0
H418 H 0.25127 0.48378 0.31308 0.0
H419 H 0.25638 0.49692 0.2451 0.0
H420 H 0.22613 0.4744 0.26584 0.0
H421 H 0.28524 0.57273 0.39795 0.0
H422 H 0.27079 0.58854 0.36968 0.0
H423 H 0.29087 0.58289 0.32728 0.0
C424 C 0.72244 0.17724 0.51096 0.0
C425 C 0.72032 0.17141 0.56779 0.0
C426 C 0.74349 0.19718 0.48982 0.0
C427 C 0.76286 0.2116 0.5264 0.0
C428 C 0.76084 0.20586 0.58379 0.0
C429 C 0.73957 0.18581 0.60382 0.0
C430 C 0.74502 0.20282 0.42834 0.0
C431 C 0.78113 0.2209 0.62401 0.0
C432 C 0.82534 0.2502 0.46322 0.0
C433 C 0.82699 0.27297 0.46043 0.0
C434 C 0.80462 0.23007 0.48512 0.0
C435 C 0.78516 0.23284 0.5046 0.0
C436 C 0.78683 0.25582 0.5025 0.0
C437 C 0.80774 0.27562 0.48046 0.0
C438 C 0.80345 0.20581 0.48689 0.0
C439 C 0.76642 0.25944 0.52297 0.0
H440 H 0.70763 0.1662 0.48287 0.0
H441 H 0.73806 0.18143 0.64779 0.0
H442 H 0.74789 0.22134 0.42215 0.0
H443 H 0.7608 0.2025 0.40968 0.0
H444 H 0.72839 0.18974 0.40548 0.0
H445 H 0.77672 0.21393 0.66736 0.0
H446 H 0.79795 0.22112 0.61093 0.0
H447 H 0.78505 0.23994 0.62358 0.0
H448 H 0.84015 0.24802 0.44792 0.0
H449 H 0.80889 0.29317 0.47853 0.0
H450 H 0.78797 0.19245 0.4614 0.0
H451 H 0.80029 0.19883 0.53023 0.0
H452 H 0.82034 0.20681 0.4711 0.0
H453 H 0.74972 0.24787 0.49866 0.0
H454 H 0.77078 0.27859 0.51938 0.0
H455 H 0.76232 0.25379 0.5672 0.0
C456 C 0.45811 0.76272 0.6443 0.0
C457 C 0.46413 0.78315 0.67729 0.0
C458 C 0.46097 0.74367 0.6646 0.0
C459 C 0.46988 0.74506 0.71925 0.0
C460 C 0.47407 0.76467 0.75424 0.0
C461 C 0.47119 0.78354 0.73277 0.0
C462 C 0.45622 0.723 0.6261 0.0
C463 C 0.48326 0.7666 0.81307 0.0
C464 C 0.47033 0.6906 0.78242 0.0
C465 C 0.49447 0.69661 0.77323 0.0
C466 C 0.4619 0.70611 0.76484 0.0
C467 C 0.47797 0.72794 0.73709 0.0
C468 C 0.50221 0.73383 0.72678 0.0
C469 C 0.51018 0.71814 0.74517 0.0
C470 C 0.43599 0.69937 0.77678 0.0
C471 C 0.51984 0.75686 0.69676 0.0
H472 H 0.45242 0.76216 0.60151 0.0
H473 H 0.47555 0.79912 0.75877 0.0
H474 H 0.47376 0.72473 0.6132 0.0
H475 H 0.44569 0.70533 0.6477 0.0
H476 H 0.44621 0.72282 0.58804 0.0
H477 H 0.48235 0.78102 0.83716 0.0
H478 H 0.47265 0.74911 0.83534 0.0
H479 H 0.50242 0.77086 0.812 0.0
H480 H 0.45812 0.674 0.80425 0.0
H481 H 0.52881 0.72282 0.73762 0.0
H482 H 0.42667 0.6992 0.73759 0.0
H483 H 0.43569 0.71317 0.80447 0.0
H484 H 0.42557 0.68133 0.79702 0.0
H485 H 0.5125 0.75754 0.65531 0.0
H486 H 0.53788 0.75843 0.69082 0.0
H487 H 0.52233 0.77285 0.72071 0.0
C488 C 0.68268 0.47407 0.77555 0.0
C489 C 0.67025 0.46447 0.72543 0.0
C490 C 0.70231 0.47116 0.79082 0.0
C491 C 0.7094 0.45798 0.75553 0.0
C492 C 0.69604 0.44704 0.7065 0.0
C493 C 0.67671 0.45059 0.69175 0.0
C494 C 0.71622 0.48326 0.8433 0.0
C495 C 0.70276 0.43241 0.66855 0.0
C496 C 0.77601 0.47759 0.76561 0.0
C497 C 0.77567 0.46107 0.80467 0.0
C498 C 0.75441 0.47614 0.7474 0.0
C499 C 0.73195 0.45746 0.76806 0.0
C500 C 0.73141 0.43976 0.80458 0.0
C501 C 0.75333 0.4419 0.82288 0.0
C502 C 0.75574 0.49546 0.70868 0.0
C503 C 0.70776 0.41926 0.8264 0.0
H504 H 0.67777 0.4848 0.80181 0.0
H505 H 0.667 0.44291 0.65321 0.0
H506 H 0.71757 0.46987 0.87033 0.0
H507 H 0.73498 0.49744 0.83235 0.0
H508 H 0.70764 0.49185 0.86752 0.0
H509 H 0.68881 0.42264 0.63601 0.0
H510 H 0.72026 0.44463 0.64766 0.0
H511 H 0.70526 0.41903 0.69295 0.0
H512 H 0.7932 0.49243 0.75128 0.0
H513 H 0.75296 0.42892 0.85263 0.0
H514 H 0.74923 0.50646 0.73072 0.0
H515 H 0.74376 0.48705 0.67214 0.0
H516 H 0.77448 0.5078 0.69357 0.0
H517 H 0.69963 0.42651 0.85616 0.0
H518 H 0.71027 0.40526 0.84811 0.0
H519 H 0.69462 0.41052 0.79187 0.0
C520 C 0.17032 0.71835 0.962 0.0
C521 C 0.16606 0.71396 0.90472 0.0
C522 C 0.19061 0.73949 0.98156 0.0
C523 C 0.20703 0.75659 0.94289 0.0
C524 C 0.20291 0.75226 0.88505 0.0
C525 C 0.18243 0.73098 0.86662 0.0
C526 C 0.19447 0.74353 0.04361 0.0
C527 C 0.22013 0.7701 0.84268 0.0
C528 C 0.24724 0.82063 0.99592 0.0
C529 C 0.26879 0.8206 0.0077 0.0
C530 C 0.22709 0.80003 0.97378 0.0
C531 C 0.2286 0.77896 0.96322 0.0
C532 C 0.25046 0.77898 0.97388 0.0
C533 C 0.27031 0.79981 0.99602 0.0
C534 C 0.20404 0.80063 0.96276 0.0
C535 C 0.25273 0.75683 0.96295 0.0
H536 H 0.15775 0.70528 0.99169 0.0
H537 H 0.17927 0.72768 0.82229 0.0
H538 H 0.21216 0.74538 0.05545 0.0
H539 H 0.19506 0.76067 0.05536 0.0
H540 H 0.17994 0.72847 0.06811 0.0
H541 H 0.21431 0.76401 0.79919 0.0
H542 H 0.22147 0.78801 0.84858 0.0
H543 H 0.23858 0.77274 0.84874 0.0
H544 H 0.24596 0.83665 0.00469 0.0
H545 H 0.28694 0.79967 0.00481 0.0
H546 H 0.18921 0.78703 0.98933 0.0
H547 H 0.19835 0.79571 0.91878 0.0
H548 H 0.20614 0.81873 0.97124 0.0
H549 H 0.23974 0.74162 0.98962 0.0
H550 H 0.2713 0.76015 0.9714 0.0
H551 H 0.24803 0.75096 0.91901 0.0
C552 C 0.59791 0.13989 0.72986 0.0
C553 C 0.62042 0.14366 0.7117 0.0
C554 C 0.59605 0.1512 0.77788 0.0
C555 C 0.6174 0.16715 0.80777 0.0
C556 C 0.64036 0.17428 0.78392 0.0
C557 C 0.64167 0.16214 0.73622 0.0
C558 C 0.57097 0.14346 0.80013 0.0
C559 C 0.66361 0.19303 0.81098 0.0
C560 C 0.59056 0.17777 0.93429 0.0
C561 C 0.58551 0.15663 0.96335 0.0
C562 C 0.60566 0.1849 0.88709 0.0
C563 C 0.61489 0.17002 0.86841 0.0
C564 C 0.61371 0.15174 0.90412 0.0
C565 C 0.59906 0.14536 0.95154 0.0
C566 C 0.60914 0.20645 0.85375 0.0
C567 C 0.6246 0.13628 0.88799 0.0
H568 H 0.58148 0.12637 0.70939 0.0
H569 H 0.65924 0.1658 0.72117 0.0
H570 H 0.568 0.13351 0.83998 0.0
H571 H 0.56907 0.15953 0.80837 0.0
H572 H 0.55641 0.13147 0.77068 0.0
H573 H 0.67611 0.20562 0.77883 0.0
H574 H 0.66053 0.20372 0.84316 0.0
H575 H 0.67285 0.184 0.83038 0.0
H576 H 0.5809 0.18725 0.94458 0.0
H577 H 0.5961 0.12974 0.97578 0.0
H578 H 0.59275 0.2013 0.8282 0.0
H579 H 0.6251 0.21331 0.82568 0.0
H580 H 0.61153 0.22129 0.88206 0.0
H581 H 0.61491 0.125 0.85121 0.0
H582 H 0.62345 0.12402 0.92226 0.0
H583 H 0.64392 0.14792 0.87656 0.0
C584 C 0.47225 0.60316 0.98678 0.0
C585 C 0.48877 0.62747 0.97508 0.0
C586 C 0.45974 0.59644 0.03733 0.0
C587 C 0.46412 0.61455 0.07732 0.0
C588 C 0.47861 0.63934 0.06301 0.0
C589 C 0.49086 0.64558 0.01162 0.0
C590 C 0.44396 0.56974 0.05011 0.0
C591 C 0.4831 0.65921 0.10365 0.0
C592 C 0.42497 0.58284 0.20109 0.0
C593 C 0.43977 0.57538 0.22773 0.0
C594 C 0.43368 0.59864 0.15526 0.0
C595 C 0.45757 0.6069 0.13611 0.0
C596 C 0.4735 0.60222 0.16803 0.0
C597 C 0.46435 0.58645 0.21351 0.0
C598 C 0.41647 0.6041 0.12377 0.0
C599 C 0.49937 0.61124 0.15007 0.0
H600 H 0.47035 0.58923 0.95784 0.0
H601 H 0.50357 0.66444 0.00231 0.0
H602 H 0.45306 0.56426 0.08163 0.0
H603 H 0.42632 0.56599 0.06771 0.0
H604 H 0.44041 0.55826 0.01251 0.0
H605 H 0.48741 0.67621 0.0815 0.0
H606 H 0.46721 0.65388 0.13118 0.0
H607 H 0.49886 0.66304 0.13032 0.0
H608 H 0.40601 0.5747 0.21256 0.0
H609 H 0.47603 0.58126 0.23508 0.0
H610 H 0.40783 0.5907 0.0897 0.0
H611 H 0.42617 0.62243 0.10479 0.0
H612 H 0.40187 0.60283 0.15139 0.0
H613 H 0.49945 0.60088 0.11295 0.0
H614 H 0.51021 0.609 0.18338 0.0
H615 H 0.50835 0.63065 0.13827 0.0
C616 C 0.79954 0.39768 0.05984 0.0
C617 C 0.81866 0.40128 0.02469 0.0
C618 C 0.79522 0.3844 0.10946 0.0
C619 C 0.8108 0.37538 0.12386 0.0
C620 C 0.82655 0.37481 0.08296 0.0
C621 C 0.83026 0.38782 0.03355 0.0
C622 C 0.7764 0.38301 0.14968 0.0
C623 C 0.84254 0.3641 0.09497 0.0
C624 C 0.84777 0.39615 0.25429 0.0
C625 C 0.84321 0.37402 0.27701 0.0
C626 C 0.83519 0.39689 0.20737 0.0
C627 C 0.81715 0.37485 0.1832 0.0
C628 C 0.80996 0.35267 0.21098 0.0
C629 C 0.8233 0.35245 0.25748 0.0
C630 C 0.84332 0.42123 0.18032 0.0
C631 C 0.78961 0.32891 0.18956 0.0
H632 H 0.78999 0.4075 0.0523 0.0
H633 H 0.84445 0.38993 0.00514 0.0
H634 H 0.76958 0.36681 0.17691 0.0
H635 H 0.78451 0.39938 0.17653 0.0
H636 H 0.76091 0.38242 0.12698 0.0
H637 H 0.85177 0.36285 0.05687 0.0
H638 H 0.85664 0.3756 0.12583 0.0
H639 H 0.8317 0.34571 0.11301 0.0
H640 H 0.86254 0.41296 0.27053 0.0
H641 H 0.81917 0.33524 0.27581 0.0
H642 H 0.82761 0.42395 0.17377 0.0
H643 H 0.85147 0.42196 0.13897 0.0
H644 H 0.85696 0.43658 0.20577 0.0
H645 H 0.77762 0.33142 0.16005 0.0
H646 H 0.7785 0.31751 0.22492 0.0
H647 H 0.79729 0.31879 0.16826 0.0
C648 C 0.398 0.80148 0.4277 0.0
C649 C 0.40288 0.82258 0.45668 0.0
C650 C 0.38335 0.79451 0.37974 0.0
C651 C 0.37431 0.80946 0.36034 0.0
C652 C 0.37544 0.82784 0.39561 0.0
C653 C 0.38967 0.83408 0.44371 0.0
C654 C 0.38012 0.773 0.3466 0.0
C655 C 0.3649 0.84351 0.3785 0.0
C656 C 0.39071 0.83904 0.22121 0.0
C657 C 0.36806 0.83496 0.20331 0.0
C658 C 0.39284 0.82794 0.26933 0.0
C659 C 0.37163 0.81196 0.29961 0.0
C660 C 0.34857 0.80447 0.276 0.0
C661 C 0.34698 0.81635 0.22814 0.0
C662 C 0.41801 0.836 0.2914 0.0
C663 C 0.32549 0.78572 0.30369 0.0
H664 H 0.40749 0.7919 0.43873 0.0
H665 H 0.39259 0.84975 0.4677 0.0
H666 H 0.36429 0.76609 0.31813 0.0
H667 H 0.39664 0.77825 0.32145 0.0
H668 H 0.37768 0.75817 0.375 0.0
H669 H 0.36589 0.8558 0.41251 0.0
H670 H 0.37496 0.85477 0.342 0.0
H671 H 0.34566 0.83203 0.36624 0.0
H672 H 0.40701 0.8527 0.20057 0.0
H673 H 0.32931 0.8125 0.21339 0.0
H674 H 0.42 0.82006 0.30072 0.0
H675 H 0.42106 0.84635 0.33065 0.0
H676 H 0.43244 0.84771 0.26137 0.0
H677 H 0.32879 0.77483 0.3349 0.0
H678 H 0.31261 0.77332 0.27182 0.0
H679 H 0.31662 0.79479 0.32456 0.0
C680 C 0.58633 0.42987 0.56153 0.0
C681 C 0.57006 0.43523 0.58876 0.0
C682 C 0.5792 0.41532 0.51349 0.0
C683 C 0.55538 0.40615 0.49276 0.0
C684 C 0.53815 0.40893 0.52449 0.0
C685 C 0.54575 0.4235 0.57209 0.0
C686 C 0.59784 0.41194 0.48225 0.0
C687 C 0.51231 0.3989 0.50487 0.0
C688 C 0.53898 0.40976 0.34555 0.0
C689 C 0.52251 0.38533 0.3349 0.0
C690 C 0.55272 0.41676 0.39445 0.0
C691 C 0.54962 0.39878 0.4336 0.0
C692 C 0.5358 0.37397 0.41899 0.0
C693 C 0.52226 0.36745 0.3694 0.0
C694 C 0.56787 0.44348 0.40742 0.0
C695 C 0.53295 0.3543 0.45843 0.0
H696 H 0.60511 0.43863 0.57477 0.0
H697 H 0.53299 0.42712 0.59402 0.0
H698 H 0.58936 0.39458 0.45888 0.0
H699 H 0.60729 0.42694 0.45191 0.0
H700 H 0.61171 0.4124 0.51111 0.0
H701 H 0.50065 0.4003 0.53738 0.0
H702 H 0.51209 0.40912 0.46762 0.0
H703 H 0.50428 0.3796 0.49274 0.0
H704 H 0.53949 0.42354 0.31809 0.0
H705 H 0.50967 0.34848 0.36084 0.0
H706 H 0.58568 0.44775 0.42494 0.0
H707 H 0.55841 0.44849 0.43906 0.0
H708 H 0.57104 0.4549 0.36989 0.0
H709 H 0.54959 0.36016 0.48362 0.0
H710 H 0.5287 0.33748 0.43544 0.0
H711 H 0.51773 0.34991 0.48742 0.0
C712 C 0.1518 0.60115 0.52777 0.0
C713 C 0.16268 0.58693 0.52062 0.0
C714 C 0.1553 0.61424 0.57696 0.0
C715 C 0.17002 0.61287 0.6194 0.0
C716 C 0.18516 0.60314 0.60678 0.0
C717 C 0.18108 0.58982 0.55731 0.0
C718 C 0.13996 0.62584 0.58704 0.0
C719 C 0.20302 0.60372 0.64877 0.0
C720 C 0.15611 0.6353 0.75212 0.0
C721 C 0.13563 0.61382 0.77004 0.0
C722 C 0.16991 0.63512 0.70655 0.0
C723 C 0.16262 0.61309 0.67798 0.0
C724 C 0.14376 0.59105 0.70036 0.0
C725 C 0.13074 0.59173 0.74644 0.0
C726 C 0.19103 0.65881 0.68712 0.0
C727 C 0.13543 0.56685 0.67238 0.0
H728 H 0.13823 0.5996 0.49813 0.0
H729 H 0.19013 0.57942 0.55105 0.0
H730 H 0.12512 0.61456 0.61661 0.0
H731 H 0.15104 0.64404 0.6058 0.0
H732 H 0.1317 0.62773 0.54795 0.0
H733 H 0.21848 0.60359 0.62761 0.0
H734 H 0.21003 0.62 0.67582 0.0
H735 H 0.19397 0.58739 0.67565 0.0
H736 H 0.16051 0.65246 0.7712 0.0
H737 H 0.11549 0.57496 0.76141 0.0
H738 H 0.18414 0.66968 0.66605 0.0
H739 H 0.20308 0.65622 0.658 0.0
H740 H 0.20188 0.66953 0.72349 0.0
H741 H 0.12826 0.56682 0.63023 0.0
H742 H 0.12097 0.55148 0.6963 0.0
H743 H 0.15084 0.56354 0.6675 0.0
C744 C 0.43773 0.06429 0.09078 0.0
C745 C 0.45864 0.07081 0.05917 0.0
C746 C 0.41906 0.04002 0.09414 0.0
C747 C 0.42156 0.02193 0.06566 0.0
C748 C 0.4423 0.02851 0.03248 0.0
C749 C 0.4605 0.05289 0.02931 0.0
C750 C 0.39703 0.03366 0.12939 0.0
C751 C 0.4457 0.0097 0.0018 0.0
C752 C 0.39168 0.95817 0.12283 0.0
C753 C 0.37291 0.94543 0.08445 0.0
C754 C 0.40719 0.9832 0.118 0.0
C755 C 0.40363 0.99591 0.07415 0.0
C756 C 0.38403 0.9834 0.03669 0.0
C757 C 0.36889 0.95821 0.04217 0.0
C758 C 0.42794 0.99587 0.15869 0.0
C759 C 0.37954 -0.0035 0.98991 0.0
H760 H 0.43605 0.07809 0.11347 0.0
H761 H 0.47632 0.05781 0.00382 0.0
H762 H 0.3802 0.02219 0.10537 0.0
H763 H 0.39679 0.02298 0.16613 0.0
H764 H 0.39674 0.05002 0.14432 0.0
H765 H 0.46233 0.01795 0.97565 0.0
H766 H 0.44697 -0.00275 0.03221 0.0
H767 H 0.42982 -0.00143 0.97473 0.0
H768 H 0.39456 0.94854 0.15642 0.0
H769 H 0.35428 0.94848 0.01267 0.0
H770 H 0.42738 0.01127 0.17873 0.0
H771 H 0.44546 0.00343 0.13614 0.0
H772 H 0.42758 0.9835 0.19179 0.0
H773 H 0.37911 0.01258 0.0062 0.0
H774 H 0.36223 0.98464 0.96779 0.0
H775 H 0.3946 0.00313 0.95935 0.0
C776 C 0.40142 0.36954 0.18295 0.0
C777 C 0.4034 0.35466 0.22287 0.0
C778 C 0.39144 0.38412 0.19737 0.0
C779 C 0.38368 0.3838 0.25293 0.0
C780 C 0.38296 0.36653 0.29105 0.0
C781 C 0.39296 0.3522 0.2755 0.0
C782 C 0.39195 0.4019 0.15515 0.0
C783 C 0.37469 0.36538 0.35047 0.0
C784 C 0.40187 0.44596 0.3101 0.0
C785 C 0.37983 0.4458 0.30999 0.0
C786 C 0.4031 0.4256 0.29299 0.0
C787 C 0.38178 0.40468 0.27433 0.0
C788 C 0.35927 0.40408 0.27599 0.0
C789 C 0.35853 0.42467 0.29431 0.0
C790 C 0.42742 0.42678 0.29348 0.0
C791 C 0.33623 0.38224 0.25591 0.0
H792 H 0.40986 0.37164 0.14252 0.0
H793 H 0.39477 0.34077 0.3064 0.0
H794 H 0.37526 0.40323 0.15797 0.0
H795 H 0.40766 0.42015 0.16382 0.0
H796 H 0.39375 0.3967 0.11199 0.0
H797 H 0.37064 0.34811 0.37099 0.0
H798 H 0.38926 0.38059 0.37444 0.0
H799 H 0.35831 0.36727 0.3525 0.0
H800 H 0.41827 0.46221 0.32279 0.0
H801 H 0.34151 0.42469 0.2935 0.0
H802 H 0.43267 0.42505 0.25038 0.0
H803 H 0.42627 0.41149 0.31807 0.0
H804 H 0.442 0.44403 0.31144 0.0
H805 H 0.33686 0.38106 0.20988 0.0
H806 H 0.31986 0.38327 0.26733 0.0
H807 H 0.33445 0.36529 0.27325 0.0
C808 C 0.07322 0.44191 0.38121 0.0
C809 C 0.08068 0.46129 0.41853 0.0
C810 C 0.04875 0.42358 0.37819 0.0
C811 C 0.03145 0.42492 0.41284 0.0
C812 C 0.03909 0.44392 0.45206 0.0
C813 C 0.06361 0.46171 0.45477 0.0
C814 C 0.04129 0.4033 0.33656 0.0
C815 C 0.02119 0.44613 0.48947 0.0
C816 C 0.96697 0.39979 0.36294 0.0
C817 C 0.95419 0.37947 0.39739 0.0
C818 C 0.9922 0.41428 0.36651 0.0
C819 C 0.00511 0.40805 0.40468 0.0
C820 C 0.99252 0.38695 0.43784 0.0
C821 C 0.96711 0.37295 0.43408 0.0
C822 C 0.00492 0.43679 0.33078 0.0
C823 C 0.00579 0.37953 0.47825 0.0
H824 H 0.08638 0.44131 0.35356 0.0
H825 H 0.0693 0.47624 0.4848 0.0
H826 H 0.02942 0.38551 0.35662 0.0
H827 H 0.03069 0.4054 0.30253 0.0
H828 H 0.05718 0.40313 0.31793 0.0
H829 H 0.03026 0.46125 0.51978 0.0
H830 H 0.00855 0.4493 0.46375 0.0
H831 H 0.01013 0.42904 0.51287 0.0
H832 H 0.95726 0.40465 0.33344 0.0
H833 H 0.95739 0.35709 0.46031 0.0
H834 H 0.01952 0.43655 0.30605 0.0
H835 H 0.01359 0.45312 0.35777 0.0
H836 H 0.99232 0.43858 0.30174 0.0
H837 H 0.02124 0.37939 0.45719 0.0
H838 H 0.99375 0.36133 0.49645 0.0
H839 H 0.0134 0.39291 0.51266 0.0
C840 C 0.52804 0.92456 0.52281 0.0
C841 C 0.52901 0.90706 0.5564 0.0
C842 C 0.54594 0.94905 0.52629 0.0
C843 C 0.56558 0.95615 0.56349 0.0
C844 C 0.56737 0.93844 0.59548 0.0
C845 C 0.54895 0.91407 0.59181 0.0
C846 C 0.54325 0.96743 0.49184 0.0
C847 C 0.58829 0.94534 0.63493 0.0
C848 C 0.61833 0.02024 0.54431 0.0
C849 C 0.61288 0.03289 0.58421 0.0
C850 C 0.60359 0.99501 0.53828 0.0
C851 C 0.58284 0.98233 0.57251 0.0
C852 C 0.57762 0.99495 0.61368 0.0
C853 C 0.59284 0.02 0.61938 0.0
C854 C 0.60989 0.98201 0.49459 0.0
C855 C 0.55555 0.98212 0.65073 0.0
H856 H 0.51304 0.91926 0.49432 0.0
H857 H 0.54998 0.90059 0.61739 0.0
H858 H 0.54063 0.97982 0.51979 0.0
H859 H 0.55997 0.97869 0.46734 0.0
H860 H 0.52762 0.95878 0.46274 0.0
H861 H 0.58849 0.92921 0.65191 0.0
H862 H 0.60579 0.9571 0.61354 0.0
H863 H 0.58702 0.95588 0.67027 0.0
H864 H 0.63395 0.03005 0.5174 0.0
H865 H 0.58881 0.02948 0.65126 0.0
H866 H 0.59575 0.97482 0.46173 0.0
H867 H 0.6103 0.9663 0.51335 0.0
H868 H 0.62772 0.9941 0.47473 0.0
H869 H 0.53886 0.97396 0.6249 0.0
H870 H 0.5544 0.99452 0.68154 0.0
H871 H 0.55584 0.96713 0.67358 0.0
C872 C 0.59619 0.55515 0.7214 0.0
C873 C 0.61919 0.55743 0.72381 0.0
C874 C 0.59308 0.57508 0.73118 0.0
C875 C 0.61358 0.59795 0.74296 0.0
C876 C 0.63701 0.6006 0.74354 0.0
C877 C 0.63951 0.58016 0.73466 0.0
C878 C 0.56768 0.57136 0.7313 0.0
C879 C 0.6593 0.62483 0.75485 0.0
C880 C 0.59743 0.64756 0.73665 0.0
C881 C 0.5908 0.64779 0.79218 0.0
C882 C 0.60705 0.63287 0.72032 0.0
C883 C 0.60981 0.61814 0.76052 0.0
C884 C 0.60515 0.62007 0.81733 0.0
C885 C 0.59586 0.63501 0.83245 0.0
C886 C 0.61239 0.63169 0.65954 0.0
C887 C 0.60777 0.60465 0.86157 0.0
H888 H 0.58042 0.5376 0.71404 0.0
H889 H 0.65737 0.58197 0.736 0.0
H890 H 0.56317 0.575 0.77356 0.0
H891 H 0.56651 0.58428 0.70227 0.0
H892 H 0.55382 0.55265 0.71904 0.0
H893 H 0.67631 0.62452 0.74652 0.0
H894 H 0.65913 0.63914 0.72883 0.0
H895 H 0.65938 0.62995 0.79904 0.0
H896 H 0.59373 0.65759 0.70548 0.0
H897 H 0.59124 0.63559 0.87568 0.0
H898 H 0.59744 0.61489 0.64095 0.0
H899 H 0.62938 0.63102 0.65453 0.0
H900 H 0.61405 0.64745 0.63591 0.0
H901 H 0.59346 0.58543 0.85576 0.0
H902 H 0.60607 0.61032 0.90432 0.0
H903 H 0.62555 0.60552 0.85796 0.0
C904 C 0.01305 0.61579 0.93352 0.0
C905 C 0.02545 0.60846 0.89725 0.0
C906 C 0.98773 0.60189 0.9394 0.0
C907 C 0.97469 0.58008 0.90883 0.0
C908 C 0.98707 0.57291 0.87133 0.0
C909 C 0.01223 0.58732 0.8656 0.0
C910 C 0.975 0.61027 0.97902 0.0
C911 C 0.97385 0.54964 0.83834 0.0
C912 C 0.9162 0.52769 0.96294 0.0
C913 C 0.89913 0.52759 0.92591 0.0
C914 C 0.94075 0.54536 0.95938 0.0
C915 C 0.94837 0.56369 0.91841 0.0
C916 C 0.93103 0.56463 0.88313 0.0
C917 C 0.90655 0.54645 0.8871 0.0
C918 C 0.9587 0.54362 0.99755 0.0
C919 C 0.93848 0.58419 0.83959 0.0
H920 H 0.02312 0.63228 0.95761 0.0
H921 H 0.02153 0.58179 0.83648 0.0
H922 H 0.95961 0.61043 0.95773 0.0
H923 H 0.96737 0.59744 0.01444 0.0
H924 H 0.9874 0.62868 0.99581 0.0
H925 H 0.98612 0.54697 0.81 0.0
H926 H 0.96516 0.53395 0.86721 0.0
H927 H 0.95922 0.54957 0.81312 0.0
H928 H 0.91052 0.51356 0.99406 0.0
H929 H 0.89339 0.54664 0.85878 0.0
H930 H 0.97023 0.56118 0.01882 0.0
H931 H 0.97088 0.53949 0.97264 0.0
H932 H 0.94963 0.52928 0.02966 0.0
H933 H 0.95073 0.60228 0.85793 0.0
H934 H 0.92259 0.58433 0.82083 0.0
H935 H 0.94864 0.58124 0.80588 0.0
loop_
_geom_bond_atom_site_label_1
_geom_bond_atom_site_label_2
_geom_bond_distance
_geom_bond_site_symmetry_2
_ccdc_geom_bond_type
Mg0 O1 2.028 . S
Mg0 O7 1.986 . S
Mg0 O9 2.114 . S
Mg0 O10 2.251 . S
Mg0 O13 2.010 . S
O1 Mg0 2.028 . S
O1 C4 1.250 . S
O2 Mg3 2.028 . S
O2 C4 1.248 . S
Mg3 O2 2.028 . S
Mg3 O8 2.032 . S
Mg3 O10 2.079 . S
C4 O1 1.250 . S
C4 O2 1.248 . S
C5 O6 1.264 . S
C5 O13 1.249 . S
O6 C5 1.264 . S
O7 Mg0 1.986 . S
O7 C11 1.246 1_554 S
O8 Mg3 2.032 . S
O8 C11 1.259 1_554 S
O9 Mg0 2.114 . S
O9 C12 1.252 . S
O10 Mg0 2.251 . S
O10 Mg3 2.079 . S
O10 C12 1.273 . S
C11 O7 1.246 1_556 S
C11 O8 1.259 1_556 S
C12 O9 1.252 . S
C12 O10 1.273 . S
O13 Mg0 2.010 . S
O13 C5 1.249 . S
Mg14 O15 2.028 . S
Mg14 O21 1.986 . S
Mg14 O23 2.114 . S
Mg14 O24 2.251 . S
Mg14 O27 2.010 . S
O15 Mg14 2.028 . S
O15 C18 1.250 . S
O16 Mg17 2.028 . S
O16 C18 1.248 . S
Mg17 O16 2.028 . S
Mg17 O22 2.032 . S
Mg17 O24 2.079 . S
C18 O15 1.250 . S
C18 O16 1.248 . S
C19 O20 1.264 . S
C19 O27 1.249 . S
O20 C19 1.264 . S
O21 Mg14 1.986 . S
O21 C25 1.246 . S
O22 Mg17 2.032 . S
O22 C25 1.259 . S
O23 Mg14 2.114 . S
O23 C26 1.252 . S
O24 Mg14 2.251 . S
O24 Mg17 2.079 . S
O24 C26 1.273 . S
C25 O21 1.246 . S
C25 O22 1.259 . S
C26 O23 1.252 . S
C26 O24 1.273 . S
O27 Mg14 2.010 . S
O27 C19 1.249 . S
Mg28 O29 2.028 . S
Mg28 O35 1.986 . S
Mg28 O37 2.114 . S
Mg28 O38 2.251 . S
Mg28 O41 2.010 . S
O29 Mg28 2.028 . S
O29 C32 1.250 . S
O30 Mg31 2.028 . S
O30 C32 1.248 . S
Mg31 O30 2.028 . S
Mg31 O36 2.032 . S
Mg31 O38 2.079 . S
C32 O29 1.250 . S
C32 O30 1.248 . S
C33 O34 1.264 . S
C33 O41 1.249 . S
O34 C33 1.264 . S
O35 Mg28 1.986 . S
O35 C39 1.246 . S
O36 Mg31 2.032 . S
O36 C39 1.259 . S
O37 Mg28 2.114 . S
O37 C40 1.252 . S
O38 Mg28 2.251 . S
O38 Mg31 2.079 . S
O38 C40 1.273 . S
C39 O35 1.246 . S
C39 O36 1.259 . S
C40 O37 1.252 . S
C40 O38 1.273 . S
O41 Mg28 2.010 . S
O41 C33 1.249 . S
Mg42 O43 2.028 . S
Mg42 O49 1.986 . S
Mg42 O51 2.114 . S
Mg42 O52 2.251 . S
Mg42 O55 2.010 . S
O43 Mg42 2.028 . S
O43 C46 1.250 . S
O44 Mg45 2.028 . S
O44 C46 1.248 . S
Mg45 O44 2.028 . S
Mg45 O50 2.032 . S
Mg45 O52 2.079 . S
C46 O43 1.250 . S
C46 O44 1.248 . S
C47 O48 1.264 . S
C47 O55 1.249 . S
O48 C47 1.264 . S
O49 Mg42 1.986 . S
O49 C53 1.246 . S
O50 Mg45 2.032 . S
O50 C53 1.259 . S
O51 Mg42 2.114 . S
O51 C54 1.252 . S
O52 Mg42 2.251 . S
O52 Mg45 2.079 . S
O52 C54 1.273 . S
C53 O49 1.246 . S
C53 O50 1.259 . S
C54 O51 1.252 . S
C54 O52 1.273 . S
O55 Mg42 2.010 . S
O55 C47 1.249 . S
Mg56 O57 2.028 . S
Mg56 O63 1.986 . S
Mg56 O65 2.114 . S
Mg56 O66 2.251 . S
Mg56 O69 2.010 . S
O57 Mg56 2.028 . S
O57 C60 1.250 . S
O58 Mg59 2.028 . S
O58 C60 1.248 . S
Mg59 O58 2.028 . S
Mg59 O64 2.032 . S
Mg59 O66 2.079 . S
C60 O57 1.250 . S
C60 O58 1.248 . S
C61 O62 1.264 . S
C61 O69 1.249 . S
O62 C61 1.264 . S
O63 Mg56 1.986 . S
O63 C67 1.246 . S
O64 Mg59 2.032 . S
O64 C67 1.259 . S
O65 Mg56 2.114 . S
O65 C68 1.252 . S
O66 Mg56 2.251 . S
O66 Mg59 2.079 . S
O66 C68 1.273 . S
C67 O63 1.246 . S
C67 O64 1.259 . S
C68 O65 1.252 . S
C68 O66 1.273 . S
O69 Mg56 2.010 . S
O69 C61 1.249 . S
Mg70 O71 2.028 . S
Mg70 O77 1.986 . S
Mg70 O79 2.114 . S
Mg70 O80 2.251 . S
Mg70 O83 2.010 . S
O71 Mg70 2.028 . S
O71 C74 1.250 . S
O72 Mg73 2.028 . S
O72 C74 1.248 . S
Mg73 O72 2.028 . S
Mg73 O78 2.032 . S
Mg73 O80 2.079 . S
C74 O71 1.250 . S
C74 O72 1.248 . S
C75 O76 1.264 . S
C75 O83 1.249 . S
O76 C75 1.264 . S
O77 Mg70 1.986 . S
O77 C81 1.246 . S
O78 Mg73 2.032 . S
O78 C81 1.259 . S
O79 Mg70 2.114 . S
O79 C82 1.252 . S
O80 Mg70 2.251 . S
O80 Mg73 2.079 . S
O80 C82 1.273 . S
C81 O77 1.246 . S
C81 O78 1.259 . S
C82 O79 1.252 . S
C82 O80 1.273 . S
O83 Mg70 2.010 . S
O83 C75 1.249 . S
Mg84 O85 2.028 . S
Mg84 O91 1.986 . S
Mg84 O93 2.114 . S
Mg84 O94 2.251 . S
Mg84 O97 2.010 . S
O85 Mg84 2.028 . S
O85 C88 1.250 . S
O86 Mg87 2.028 . S
O86 C88 1.248 . S
Mg87 O86 2.028 . S
Mg87 O92 2.032 . S
Mg87 O94 2.079 . S
C88 O85 1.250 . S
C88 O86 1.248 . S
C89 O90 1.264 . S
C89 O97 1.249 . S
O90 C89 1.264 . S
O91 Mg84 1.986 . S
O91 C95 1.246 1_556 S
O92 Mg87 2.032 . S
O92 C95 1.259 1_556 S
O93 Mg84 2.114 . S
O93 C96 1.252 . S
O94 Mg84 2.251 . S
O94 Mg87 2.079 . S
O94 C96 1.273 . S
C95 O91 1.246 1_554 S
C95 O92 1.259 1_554 S
C96 O93 1.252 . S
C96 O94 1.273 . S
O97 Mg84 2.010 . S
O97 C89 1.249 . S
Mg98 O99 2.028 . S
Mg98 O105 1.986 . S
Mg98 O107 2.114 . S
Mg98 O108 2.251 . S
Mg98 O111 2.010 . S
O99 Mg98 2.028 . S
O99 C102 1.250 . S
O100 Mg101 2.028 . S
O100 C102 1.248 . S
Mg101 O100 2.028 . S
Mg101 O106 2.032 . S
Mg101 O108 2.079 . S
C102 O99 1.250 . S
C102 O100 1.248 . S
C103 O104 1.264 . S
C103 O111 1.249 . S
O104 C103 1.264 . S
O105 Mg98 1.986 . S
O105 C109 1.246 . S
O106 Mg101 2.032 . S
O106 C109 1.259 . S
O107 Mg98 2.114 . S
O107 C110 1.252 . S
O108 Mg98 2.251 . S
O108 Mg101 2.079 . S
O108 C110 1.273 . S
C109 O105 1.246 . S
C109 O106 1.259 . S
C110 O107 1.252 . S
C110 O108 1.273 . S
O111 Mg98 2.010 . S
O111 C103 1.249 . S
Mg112 O113 2.028 . S
Mg112 O119 1.986 . S
Mg112 O121 2.114 . S
Mg112 O122 2.251 . S
Mg112 O125 2.010 . S
O113 Mg112 2.028 . S
O113 C116 1.250 . S
O114 Mg115 2.028 . S
O114 C116 1.248 . S
Mg115 O114 2.028 . S
Mg115 O120 2.032 . S
Mg115 O122 2.079 . S
C116 O113 1.250 . S
C116 O114 1.248 . S
C117 O118 1.264 . S
C117 O125 1.249 . S
O118 C117 1.264 . S
O119 Mg112 1.986 . S
O119 C123 1.246 . S
O120 Mg115 2.032 . S
O120 C123 1.259 . S
O121 Mg112 2.114 . S
O121 C124 1.252 . S
O122 Mg112 2.251 . S
O122 Mg115 2.079 . S
O122 C124 1.273 . S
C123 O119 1.246 . S
C123 O120 1.259 . S
C124 O121 1.252 . S
C124 O122 1.273 . S
O125 Mg112 2.010 . S
O125 C117 1.249 . S
Mg126 O127 2.028 . S
Mg126 O133 1.986 . S
Mg126 O135 2.114 . S
Mg126 O136 2.251 . S
Mg126 O139 2.010 . S
O127 Mg126 2.028 . S
O127 C130 1.250 . S
O128 Mg129 2.028 . S
O128 C130 1.248 . S
Mg129 O128 2.028 . S
Mg129 O134 2.032 . S
Mg129 O136 2.079 . S
C130 O127 1.250 . S
C130 O128 1.248 . S
C131 O132 1.264 . S
C131 O139 1.249 . S
O132 C131 1.264 . S
O133 Mg126 1.986 . S
O133 C137 1.246 . S
O134 Mg129 2.032 . S
O134 C137 1.259 . S
O135 Mg126 2.114 . S
O135 C138 1.252 . S
O136 Mg126 2.251 . S
O136 Mg129 2.079 . S
O136 C138 1.273 . S
C137 O133 1.246 . S
C137 O134 1.259 . S
C138 O135 1.252 . S
C138 O136 1.273 . S
O139 Mg126 2.010 . S
O139 C131 1.249 . S
Mg140 O141 2.028 . S
Mg140 O147 1.986 . S
Mg140 O149 2.114 . S
Mg140 O150 2.251 . S
Mg140 O153 2.010 . S
O141 Mg140 2.028 . S
O141 C144 1.250 . S
O142 Mg143 2.028 . S
O142 C144 1.248 . S
Mg143 O142 2.028 . S
Mg143 O148 2.032 . S
Mg143 O150 2.079 . S
C144 O141 1.250 . S
C144 O142 1.248 . S
C145 O146 1.264 . S
C145 O153 1.249 . S
O146 C145 1.264 . S
O147 Mg140 1.986 . S
O147 C151 1.246 . S
O148 Mg143 2.032 . S
O148 C151 1.259 . S
O149 Mg140 2.114 . S
O149 C152 1.252 . S
O150 Mg140 2.251 . S
O150 Mg143 2.079 . S
O150 C152 1.273 . S
C151 O147 1.246 . S
C151 O148 1.259 . S
C152 O149 1.252 . S
C152 O150 1.273 . S
O153 Mg140 2.010 . S
O153 C145 1.249 . S
Mg154 O155 2.028 . S
Mg154 O161 1.986 . S
Mg154 O163 2.114 . S
Mg154 O164 2.251 . S
Mg154 O167 2.010 . S
O155 Mg154 2.028 . S
O155 C158 1.250 . S
O156 Mg157 2.028 . S
O156 C158 1.248 . S
Mg157 O156 2.028 . S
Mg157 O162 2.032 . S
Mg157 O164 2.079 . S
C158 O155 1.250 . S
C158 O156 1.248 . S
C159 O160 1.264 . S
C159 O167 1.249 . S
O160 C159 1.264 . S
O161 Mg154 1.986 . S
O161 C165 1.246 . S
O162 Mg157 2.032 . S
O162 C165 1.259 . S
O163 Mg154 2.114 . S
O163 C166 1.252 . S
O164 Mg154 2.251 . S
O164 Mg157 2.079 . S
O164 C166 1.273 . S
C165 O161 1.246 . S
C165 O162 1.259 . S
C166 O163 1.252 . S
C166 O164 1.273 . S
O167 Mg154 2.010 . S
O167 C159 1.249 . S
C168 C169 1.391 . S
C168 C170 1.394 . S
C168 H184 0.931 . S
C169 C168 1.391 . S
C169 C173 1.376 . S
C170 C168 1.394 . S
C170 C171 1.369 . S
C170 C174 1.531 . S
C171 C170 1.369 . S
C171 C172 1.410 . S
C171 C179 1.503 . S
C172 C171 1.410 . S
C172 C173 1.392 . S
C172 C175 1.511 . S
C173 C169 1.376 . S
C173 C172 1.392 . S
C173 H185 0.929 . S
C174 C170 1.531 . S
C174 H186 0.960 . S
C174 H187 0.962 . S
C174 H188 0.960 . S
C175 C172 1.511 . S
C175 H189 0.961 . S
C175 H190 0.961 . S
C175 H191 0.961 . S
C176 C177 1.370 . S
C176 C178 1.363 . S
C176 H192 0.931 . S
C177 C176 1.370 . S
C177 C181 1.408 . S
C178 C176 1.363 . S
C178 C179 1.370 . S
C178 C182 1.524 . S
C179 C171 1.503 . S
C179 C178 1.370 . S
C179 C180 1.403 . S
C180 C179 1.403 . S
C180 C181 1.404 . S
C180 C183 1.539 . S
C181 C177 1.408 . S
C181 C180 1.404 . S
C181 H193 0.930 . S
C182 C178 1.524 . S
C182 H194 0.956 . S
C182 H195 0.961 . S
C182 H196 0.961 . S
C183 C180 1.539 . S
C183 H197 0.958 . S
C183 H198 0.961 . S
C183 H199 0.960 . S
H184 C168 0.931 . S
H185 C173 0.929 . S
H186 C174 0.960 . S
H187 C174 0.962 . S
H188 C174 0.960 . S
H189 C175 0.961 . S
H190 C175 0.961 . S
H191 C175 0.961 . S
H192 C176 0.931 . S
H193 C181 0.930 . S
H194 C182 0.956 . S
H195 C182 0.961 . S
H196 C182 0.961 . S
H197 C183 0.958 . S
H198 C183 0.961 . S
H199 C183 0.960 . S
C200 C201 1.391 . S
C200 C202 1.394 . S
C200 H216 0.931 . S
C201 C200 1.391 . S
C201 C205 1.376 . S
C202 C200 1.394 . S
C202 C203 1.369 . S
C202 C206 1.531 . S
C203 C202 1.369 . S
C203 C204 1.410 . S
C203 C211 1.503 . S
C204 C203 1.410 . S
C204 C205 1.392 . S
C204 C207 1.511 . S
C205 C201 1.376 . S
C205 C204 1.392 . S
C205 H217 0.929 . S
C206 C202 1.531 . S
C206 H218 0.960 . S
C206 H219 0.962 . S
C206 H220 0.960 . S
C207 C204 1.511 . S
C207 H221 0.961 . S
C207 H222 0.961 . S
C207 H223 0.961 . S
C208 C209 1.370 . S
C208 C210 1.363 . S
C208 H224 0.931 . S
C209 C208 1.370 . S
C209 C213 1.408 . S
C210 C208 1.363 . S
C210 C211 1.370 . S
C210 C214 1.524 . S
C211 C203 1.503 . S
C211 C210 1.370 . S
C211 C212 1.403 . S
C212 C211 1.403 . S
C212 C213 1.404 . S
C212 C215 1.539 . S
C213 C209 1.408 . S
C213 C212 1.404 . S
C213 H225 0.930 . S
C214 C210 1.524 . S
C214 H226 0.956 . S
C214 H227 0.961 . S
C214 H228 0.961 . S
C215 C212 1.539 . S
C215 H229 0.958 . S
C215 H230 0.961 . S
C215 H231 0.960 . S
H216 C200 0.931 . S
H217 C205 0.929 . S
H218 C206 0.960 . S
H219 C206 0.962 . S
H220 C206 0.960 . S
H221 C207 0.961 . S
H222 C207 0.961 . S
H223 C207 0.961 . S
H224 C208 0.931 . S
H225 C213 0.930 . S
H226 C214 0.956 . S
H227 C214 0.961 . S
H228 C214 0.961 . S
H229 C215 0.958 . S
H230 C215 0.961 . S
H231 C215 0.960 . S
C232 C233 1.391 . S
C232 C234 1.394 . S
C232 H248 0.931 . S
C233 C232 1.391 . S
C233 C237 1.376 . S
C234 C232 1.394 . S
C234 C235 1.369 . S
C234 C238 1.531 . S
C235 C234 1.369 . S
C235 C236 1.410 . S
C235 C243 1.503 . S
C236 C235 1.410 . S
C236 C237 1.392 . S
C236 C239 1.511 . S
C237 C233 1.376 . S
C237 C236 1.392 . S
C237 H249 0.929 . S
C238 C234 1.531 . S
C238 H250 0.960 . S
C238 H251 0.962 . S
C238 H252 0.960 . S
C239 C236 1.511 . S
C239 H253 0.961 . S
C239 H254 0.961 . S
C239 H255 0.961 . S
C240 C241 1.370 . S
C240 C242 1.363 . S
C240 H256 0.931 . S
C241 C240 1.370 . S
C241 C245 1.408 . S
C242 C240 1.363 . S
C242 C243 1.370 . S
C242 C246 1.524 . S
C243 C235 1.503 . S
C243 C242 1.370 . S
C243 C244 1.403 . S
C244 C243 1.403 . S
C244 C245 1.404 . S
C244 C247 1.539 . S
C245 C241 1.408 . S
C245 C244 1.404 . S
C245 H257 0.930 . S
C246 C242 1.524 . S
C246 H258 0.956 . S
C246 H259 0.961 . S
C246 H260 0.961 . S
C247 C244 1.539 . S
C247 H261 0.958 . S
C247 H262 0.961 . S
C247 H263 0.960 . S
H248 C232 0.931 . S
H249 C237 0.929 . S
H250 C238 0.960 . S
H251 C238 0.962 . S
H252 C238 0.960 . S
H253 C239 0.961 . S
H254 C239 0.961 . S
H255 C239 0.961 . S
H256 C240 0.931 . S
H257 C245 0.930 . S
H258 C246 0.956 . S
H259 C246 0.961 . S
H260 C246 0.961 . S
H261 C247 0.958 . S
H262 C247 0.961 . S
H263 C247 0.960 . S
C264 C265 1.391 . S
C264 C266 1.394 . S
C264 H280 0.931 . S
C265 C264 1.391 . S
C265 C269 1.376 . S
C266 C264 1.394 . S
C266 C267 1.369 . S
C266 C270 1.531 . S
C267 C266 1.369 . S
C267 C268 1.410 . S
C267 C275 1.503 . S
C268 C267 1.410 . S
C268 C269 1.392 . S
C268 C271 1.511 . S
C269 C265 1.376 . S
C269 C268 1.392 . S
C269 H281 0.929 . S
C270 C266 1.531 . S
C270 H282 0.960 . S
C270 H283 0.962 . S
C270 H284 0.960 . S
C271 C268 1.511 . S
C271 H285 0.961 . S
C271 H286 0.961 . S
C271 H287 0.961 . S
C272 C273 1.370 . S
C272 C274 1.363 . S
C272 H288 0.931 . S
C273 C272 1.370 . S
C273 C277 1.408 . S
C274 C272 1.363 . S
C274 C275 1.370 . S
C274 C278 1.524 . S
C275 C267 1.503 . S
C275 C274 1.370 . S
C275 C276 1.403 . S
C276 C275 1.403 . S
C276 C277 1.404 . S
C276 C279 1.539 . S
C277 C273 1.408 . S
C277 C276 1.404 . S
C277 H289 0.930 . S
C278 C274 1.524 . S
C278 H290 0.956 . S
C278 H291 0.961 . S
C278 H292 0.961 . S
C279 C276 1.539 . S
C279 H293 0.958 . S
C279 H294 0.961 . S
C279 H295 0.960 . S
H280 C264 0.931 . S
H281 C269 0.929 . S
H282 C270 0.960 . S
H283 C270 0.962 . S
H284 C270 0.960 . S
H285 C271 0.961 . S
H286 C271 0.961 . S
H287 C271 0.961 . S
H288 C272 0.931 . S
H289 C277 0.930 . S
H290 C278 0.956 . S
H291 C278 0.961 . S
H292 C278 0.961 . S
H293 C279 0.958 . S
H294 C279 0.961 . S
H295 C279 0.960 . S
C296 C297 1.391 . S
C296 C298 1.394 . S
C296 H312 0.931 . S
C297 C296 1.391 . S
C297 C301 1.376 . S
C298 C296 1.394 . S
C298 C299 1.369 . S
C298 C302 1.531 . S
C299 C298 1.369 . S
C299 C300 1.410 . S
C299 C307 1.503 1_554 S
C300 C299 1.410 . S
C300 C301 1.392 . S
C300 C303 1.511 1_554 S
C301 C297 1.376 . S
C301 C300 1.392 . S
C301 H313 0.929 . S
C302 C298 1.531 . S
C302 H314 0.960 . S
C302 H315 0.962 . S
C302 H316 0.960 . S
C303 C300 1.511 1_556 S
C303 H317 0.961 1_556 S
C303 H318 0.961 . S
C303 H319 0.961 . S
C304 C305 1.370 . S
C304 C306 1.363 . S
C304 H320 0.931 . S
C305 C304 1.370 . S
C305 C309 1.408 . S
C306 C304 1.363 . S
C306 C307 1.370 . S
C306 C310 1.524 1_556 S
C307 C299 1.503 1_556 S
C307 C306 1.370 . S
C307 C308 1.403 . S
C308 C307 1.403 . S
C308 C309 1.404 . S
C308 C311 1.539 . S
C309 C305 1.408 . S
C309 C308 1.404 . S
C309 H321 0.930 . S
C310 C306 1.524 1_554 S
C310 H322 0.956 . S
C310 H323 0.961 . S
C310 H324 0.961 . S
C311 C308 1.539 . S
C311 H325 0.958 . S
C311 H326 0.961 . S
C311 H327 0.960 . S
H312 C296 0.931 . S
H313 C301 0.929 . S
H314 C302 0.960 . S
H315 C302 0.962 . S
H316 C302 0.960 . S
H317 C303 0.961 1_554 S
H318 C303 0.961 . S
H319 C303 0.961 . S
H320 C304 0.931 . S
H321 C309 0.930 . S
H322 C310 0.956 . S
H323 C310 0.961 . S
H324 C310 0.961 . S
H325 C311 0.958 . S
H326 C311 0.961 . S
H327 C311 0.960 . S
C328 C329 1.391 . S
C328 C330 1.394 . S
C328 H344 0.931 . S
C329 C328 1.391 . S
C329 C333 1.376 . S
C330 C328 1.394 . S
C330 C331 1.369 . S
C330 C334 1.531 . S
C331 C330 1.369 . S
C331 C332 1.410 . S
C331 C339 1.503 . S
C332 C331 1.410 . S
C332 C333 1.392 . S
C332 C335 1.511 . S
C333 C329 1.376 . S
C333 C332 1.392 . S
C333 H345 0.929 . S
C334 C330 1.531 . S
C334 H346 0.960 . S
C334 H347 0.962 . S
C334 H348 0.960 . S
C335 C332 1.511 . S
C335 H349 0.961 . S
C335 H350 0.961 . S
C335 H351 0.961 . S
C336 C337 1.370 . S
C336 C338 1.363 . S
C336 H352 0.931 . S
C337 C336 1.370 . S
C337 C341 1.408 . S
C338 C336 1.363 . S
C338 C339 1.370 . S
C338 C342 1.524 . S
C339 C331 1.503 . S
C339 C338 1.370 . S
C339 C340 1.403 . S
C340 C339 1.403 . S
C340 C341 1.404 . S
C340 C343 1.539 . S
C341 C337 1.408 . S
C341 C340 1.404 . S
C341 H353 0.930 . S
C342 C338 1.524 . S
C342 H354 0.956 . S
C342 H355 0.961 . S
C342 H356 0.961 . S
C343 C340 1.539 . S
C343 H357 0.958 . S
C343 H358 0.961 . S
C343 H359 0.960 . S
H344 C328 0.931 . S
H345 C333 0.929 . S
H346 C334 0.960 . S
H347 C334 0.962 . S
H348 C334 0.960 . S
H349 C335 0.961 . S
H350 C335 0.961 . S
H351 C335 0.961 . S
H352 C336 0.931 . S
H353 C341 0.930 . S
H354 C342 0.956 . S
H355 C342 0.961 . S
H356 C342 0.961 . S
H357 C343 0.958 . S
H358 C343 0.961 . S
H359 C343 0.960 . S
C360 C361 1.391 . S
C360 C362 1.394 . S
C360 H376 0.931 . S
C361 C360 1.391 . S
C361 C365 1.376 . S
C362 C360 1.394 . S
C362 C363 1.369 . S
C362 C366 1.531 . S
C363 C362 1.369 . S
C363 C364 1.410 . S
C363 C371 1.503 . S
C364 C363 1.410 . S
C364 C365 1.392 . S
C364 C367 1.511 . S
C365 C361 1.376 . S
C365 C364 1.392 . S
C365 H377 0.929 . S
C366 C362 1.531 . S
C366 H378 0.960 . S
C366 H379 0.962 . S
C366 H380 0.960 . S
C367 C364 1.511 . S
C367 H381 0.961 . S
C367 H382 0.961 . S
C367 H383 0.961 . S
C368 C369 1.370 . S
C368 C370 1.363 . S
C368 H384 0.931 . S
C369 C368 1.370 . S
C369 C373 1.408 . S
C370 C368 1.363 . S
C370 C371 1.370 . S
C370 C374 1.524 . S
C371 C363 1.503 . S
C371 C370 1.370 . S
C371 C372 1.403 . S
C372 C371 1.403 . S
C372 C373 1.404 . S
C372 C375 1.539 . S
C373 C369 1.408 . S
C373 C372 1.404 . S
C373 H385 0.930 . S
C374 C370 1.524 . S
C374 H386 0.956 . S
C374 H387 0.961 . S
C374 H388 0.961 . S
C375 C372 1.539 . S
C375 H389 0.958 . S
C375 H390 0.961 . S
C375 H391 0.960 . S
H376 C360 0.931 . S
H377 C365 0.929 . S
H378 C366 0.960 . S
H379 C366 0.962 . S
H380 C366 0.960 . S
H381 C367 0.961 . S
H382 C367 0.961 . S
H383 C367 0.961 . S
H384 C368 0.931 . S
H385 C373 0.930 . S
H386 C374 0.956 . S
H387 C374 0.961 . S
H388 C374 0.961 . S
H389 C375 0.958 . S
H390 C375 0.961 . S
H391 C375 0.960 . S
C392 C393 1.391 . S
C392 C394 1.394 . S
C392 H408 0.931 . S
C393 C392 1.391 . S
C393 C397 1.376 . S
C394 C392 1.394 . S
C394 C395 1.369 . S
C394 C398 1.531 . S
C395 C394 1.369 . S
C395 C396 1.410 . S
C395 C403 1.503 . S
C396 C395 1.410 . S
C396 C397 1.392 . S
C396 C399 1.511 . S
C397 C393 1.376 . S
C397 C396 1.392 . S
C397 H409 0.929 . S
C398 C394 1.531 . S
C398 H410 0.960 . S
C398 H411 0.962 . S
C398 H412 0.960 . S
C399 C396 1.511 . S
C399 H413 0.961 . S
C399 H414 0.961 . S
C399 H415 0.961 . S
C400 C401 1.370 . S
C400 C402 1.363 . S
C400 H416 0.931 . S
C401 C400 1.370 . S
C401 C405 1.408 . S
C402 C400 1.363 . S
C402 C403 1.370 . S
C402 C406 1.524 . S
C403 C395 1.503 . S
C403 C402 1.370 . S
C403 C404 1.403 . S
C404 C403 1.403 . S
C404 C405 1.404 . S
C404 C407 1.539 . S
C405 C401 1.408 . S
C405 C404 1.404 . S
C405 H417 0.930 . S
C406 C402 1.524 . S
C406 H418 0.956 . S
C406 H419 0.961 . S
C406 H420 0.961 . S
C407 C404 1.539 . S
C407 H421 0.958 . S
C407 H422 0.961 . S
C407 H423 0.960 . S
H408 C392 0.931 . S
H409 C397 0.929 . S
H410 C398 0.960 . S
H411 C398 0.962 . S
H412 C398 0.960 . S
H413 C399 0.961 . S
H414 C399 0.961 . S
H415 C399 0.961 . S
H416 C400 0.931 . S
H417 C405 0.930 . S
H418 C406 0.956 . S
H419 C406 0.961 . S
H420 C406 0.961 . S
H421 C407 0.958 . S
H422 C407 0.961 . S
H423 C407 0.960 . S
C424 C425 1.391 . S
C424 C426 1.394 . S
C424 H440 0.931 . S
C425 C424 1.391 . S
C425 C429 1.376 . S
C426 C424 1.394 . S
C426 C427 1.369 . S
C426 C430 1.531 . S
C427 C426 1.369 . S
C427 C428 1.410 . S
C427 C435 1.503 . S
C428 C427 1.410 . S
C428 C429 1.392 . S
C428 C431 1.511 . S
C429 C425 1.376 . S
C429 C428 1.392 . S
C429 H441 0.929 . S
C430 C426 1.531 . S
C430 H442 0.960 . S
C430 H443 0.962 . S
C430 H444 0.960 . S
C431 C428 1.511 . S
C431 H445 0.961 . S
C431 H446 0.961 . S
C431 H447 0.961 . S
C432 C433 1.370 . S
C432 C434 1.363 . S
C432 H448 0.931 . S
C433 C432 1.370 . S
C433 C437 1.408 . S
C434 C432 1.363 . S
C434 C435 1.370 . S
C434 C438 1.524 . S
C435 C427 1.503 . S
C435 C434 1.370 . S
C435 C436 1.403 . S
C436 C435 1.403 . S
C436 C437 1.404 . S
C436 C439 1.539 . S
C437 C433 1.408 . S
C437 C436 1.404 . S
C437 H449 0.930 . S
C438 C434 1.524 . S
C438 H450 0.956 . S
C438 H451 0.961 . S
C438 H452 0.961 . S
C439 C436 1.539 . S
C439 H453 0.958 . S
C439 H454 0.961 . S
C439 H455 0.960 . S
H440 C424 0.931 . S
H441 C429 0.929 . S
H442 C430 0.960 . S
H443 C430 0.962 . S
H444 C430 0.960 . S
H445 C431 0.961 . S
H446 C431 0.961 . S
H447 C431 0.961 . S
H448 C432 0.931 . S
H449 C437 0.930 . S
H450 C438 0.956 . S
H451 C438 0.961 . S
H452 C438 0.961 . S
H453 C439 0.958 . S
H454 C439 0.961 . S
H455 C439 0.960 . S
C456 C457 1.391 . S
C456 C458 1.394 . S
C456 H472 0.931 . S
C457 C456 1.391 . S
C457 C461 1.376 . S
C458 C456 1.394 . S
C458 C459 1.369 . S
C458 C462 1.531 . S
C459 C458 1.369 . S
C459 C460 1.410 . S
C459 C467 1.503 . S
C460 C459 1.410 . S
C460 C461 1.392 . S
C460 C463 1.511 . S
C461 C457 1.376 . S
C461 C460 1.392 . S
C461 H473 0.929 . S
C462 C458 1.531 . S
C462 H474 0.960 . S
C462 H475 0.962 . S
C462 H476 0.960 . S
C463 C460 1.511 . S
C463 H477 0.961 . S
C463 H478 0.961 . S
C463 H479 0.961 . S
C464 C465 1.370 . S
C464 C466 1.363 . S
C464 H480 0.931 . S
C465 C464 1.370 . S
C465 C469 1.408 . S
C466 C464 1.363 . S
C466 C467 1.370 . S
C466 C470 1.524 . S
C467 C459 1.503 . S
C467 C466 1.370 . S
C467 C468 1.403 . S
C468 C467 1.403 . S
C468 C469 1.404 . S
C468 C471 1.539 . S
C469 C465 1.408 . S
C469 C468 1.404 . S
C469 H481 0.930 . S
C470 C466 1.524 . S
C470 H482 0.956 . S
C470 H483 0.961 . S
C470 H484 0.961 . S
C471 C468 1.539 . S
C471 H485 0.958 . S
C471 H486 0.961 . S
C471 H487 0.960 . S
H472 C456 0.931 . S
H473 C461 0.929 . S
H474 C462 0.960 . S
H475 C462 0.962 . S
H476 C462 0.960 . S
H477 C463 0.961 . S
H478 C463 0.961 . S
H479 C463 0.961 . S
H480 C464 0.931 . S
H481 C469 0.930 . S
H482 C470 0.956 . S
H483 C470 0.961 . S
H484 C470 0.961 . S
H485 C471 0.958 . S
H486 C471 0.961 . S
H487 C471 0.960 . S
C488 C489 1.391 . S
C488 C490 1.394 . S
C488 H504 0.931 . S
C489 C488 1.391 . S
C489 C493 1.376 . S
C490 C488 1.394 . S
C490 C491 1.369 . S
C490 C494 1.531 . S
C491 C490 1.369 . S
C491 C492 1.410 . S
C491 C499 1.503 . S
C492 C491 1.410 . S
C492 C493 1.392 . S
C492 C495 1.511 . S
C493 C489 1.376 . S
C493 C492 1.392 . S
C493 H505 0.929 . S
C494 C490 1.531 . S
C494 H506 0.960 . S
C494 H507 0.962 . S
C494 H508 0.960 . S
C495 C492 1.511 . S
C495 H509 0.961 . S
C495 H510 0.961 . S
C495 H511 0.961 . S
C496 C497 1.370 . S
C496 C498 1.363 . S
C496 H512 0.931 . S
C497 C496 1.370 . S
C497 C501 1.408 . S
C498 C496 1.363 . S
C498 C499 1.370 . S
C498 C502 1.524 . S
C499 C491 1.503 . S
C499 C498 1.370 . S
C499 C500 1.403 . S
C500 C499 1.403 . S
C500 C501 1.404 . S
C500 C503 1.539 . S
C501 C497 1.408 . S
C501 C500 1.404 . S
C501 H513 0.930 . S
C502 C498 1.524 . S
C502 H514 0.956 . S
C502 H515 0.961 . S
C502 H516 0.961 . S
C503 C500 1.539 . S
C503 H517 0.958 . S
C503 H518 0.961 . S
C503 H519 0.960 . S
H504 C488 0.931 . S
H505 C493 0.929 . S
H506 C494 0.960 . S
H507 C494 0.962 . S
H508 C494 0.960 . S
H509 C495 0.961 . S
H510 C495 0.961 . S
H511 C495 0.961 . S
H512 C496 0.931 . S
H513 C501 0.930 . S
H514 C502 0.956 . S
H515 C502 0.961 . S
H516 C502 0.961 . S
H517 C503 0.958 . S
H518 C503 0.961 . S
H519 C503 0.960 . S
C520 C521 1.391 1_554 S
C520 C522 1.394 . S
C520 H536 0.931 . S
C521 C520 1.391 1_556 S
C521 C525 1.376 . S
C522 C520 1.394 . S
C522 C523 1.369 1_554 S
C522 C526 1.531 . S
C523 C522 1.369 1_556 S
C523 C524 1.410 . S
C523 C531 1.503 1_556 S
C524 C523 1.410 . S
C524 C525 1.392 . S
C524 C527 1.511 . S
C525 C521 1.376 . S
C525 C524 1.392 . S
C525 H537 0.929 . S
C526 C522 1.531 . S
C526 H538 0.960 . S
C526 H539 0.962 . S
C526 H540 0.960 . S
C527 C524 1.511 . S
C527 H541 0.961 . S
C527 H542 0.961 . S
C527 H543 0.961 . S
C528 C529 1.370 . S
C528 C530 1.363 . S
C528 H544 0.931 . S
C529 C528 1.370 . S
C529 C533 1.408 . S
C530 C528 1.363 . S
C530 C531 1.370 . S
C530 C534 1.524 . S
C531 C523 1.503 1_554 S
C531 C530 1.370 . S
C531 C532 1.403 1_554 S
C532 C531 1.403 1_556 S
C532 C533 1.404 1_556 S
C532 C535 1.539 . S
C533 C529 1.408 . S
C533 C532 1.404 1_554 S
C533 H545 0.930 . S
C534 C530 1.524 . S
C534 H546 0.956 . S
C534 H547 0.961 . S
C534 H548 0.961 . S
C535 C532 1.539 . S
C535 H549 0.958 . S
C535 H550 0.961 . S
C535 H551 0.960 . S
H536 C520 0.931 . S
H537 C525 0.929 . S
H538 C526 0.960 . S
H539 C526 0.962 . S
H540 C526 0.960 . S
H541 C527 0.961 . S
H542 C527 0.961 . S
H543 C527 0.961 . S
H544 C528 0.931 . S
H545 C533 0.930 . S
H546 C534 0.956 . S
H547 C534 0.961 . S
H548 C534 0.961 . S
H549 C535 0.958 . S
H550 C535 0.961 . S
H551 C535 0.960 . S
C552 C553 1.391 . S
C552 C554 1.394 . S
C552 H568 0.931 . S
C553 C552 1.391 . S
C553 C557 1.376 . S
C554 C552 1.394 . S
C554 C555 1.369 . S
C554 C558 1.531 . S
C555 C554 1.369 . S
C555 C556 1.410 . S
C555 C563 1.503 . S
C556 C555 1.410 . S
C556 C557 1.392 . S
C556 C559 1.511 . S
C557 C553 1.376 . S
C557 C556 1.392 . S
C557 H569 0.929 . S
C558 C554 1.531 . S
C558 H570 0.960 . S
C558 H571 0.962 . S
C558 H572 0.960 . S
C559 C556 1.511 . S
C559 H573 0.961 . S
C559 H574 0.961 . S
C559 H575 0.961 . S
C560 C561 1.370 . S
C560 C562 1.363 . S
C560 H576 0.931 . S
C561 C560 1.370 . S
C561 C565 1.408 . S
C562 C560 1.363 . S
C562 C563 1.370 . S
C562 C566 1.524 . S
C563 C555 1.503 . S
C563 C562 1.370 . S
C563 C564 1.403 . S
C564 C563 1.403 . S
C564 C565 1.404 . S
C564 C567 1.539 . S
C565 C561 1.408 . S
C565 C564 1.404 . S
C565 H577 0.930 . S
C566 C562 1.524 . S
C566 H578 0.956 . S
C566 H579 0.961 . S
C566 H580 0.961 . S
C567 C564 1.539 . S
C567 H581 0.958 . S
C567 H582 0.961 . S
C567 H583 0.960 . S
H568 C552 0.931 . S
H569 C557 0.929 . S
H570 C558 0.960 . S
H571 C558 0.962 . S
H572 C558 0.960 . S
H573 C559 0.961 . S
H574 C559 0.961 . S
H575 C559 0.961 . S
H576 C560 0.931 . S
H577 C565 0.930 . S
H578 C566 0.956 . S
H579 C566 0.961 . S
H580 C566 0.961 . S
H581 C567 0.958 . S
H582 C567 0.961 . S
H583 C567 0.960 . S
C584 C585 1.391 . S
C584 C586 1.394 . S
C584 H600 0.931 . S
C585 C584 1.391 . S
C585 C589 1.376 . S
C586 C584 1.394 . S
C586 C587 1.369 . S
C586 C590 1.531 . S
C587 C586 1.369 . S
C587 C588 1.410 . S
C587 C595 1.503 1_556 S
C588 C587 1.410 . S
C588 C589 1.392 . S
C588 C591 1.511 1_556 S
C589 C585 1.376 . S
C589 C588 1.392 . S
C589 H601 0.929 . S
C590 C586 1.531 . S
C590 H602 0.960 . S
C590 H603 0.962 . S
C590 H604 0.960 . S
C591 C588 1.511 1_554 S
C591 H605 0.961 . S
C591 H606 0.961 . S
C591 H607 0.961 . S
C592 C593 1.370 . S
C592 C594 1.363 . S
C592 H608 0.931 . S
C593 C592 1.370 . S
C593 C597 1.408 . S
C594 C592 1.363 . S
C594 C595 1.370 . S
C594 C598 1.524 . S
C595 C587 1.503 1_554 S
C595 C594 1.370 . S
C595 C596 1.403 . S
C596 C595 1.403 . S
C596 C597 1.404 . S
C596 C599 1.539 1_554 S
C597 C593 1.408 . S
C597 C596 1.404 . S
C597 H609 0.930 . S
C598 C594 1.524 . S
C598 H610 0.956 . S
C598 H611 0.961 . S
C598 H612 0.961 . S
C599 C596 1.539 1_556 S
C599 H613 0.958 . S
C599 H614 0.955 1_556 S
C599 H615 0.960 . S
H600 C584 0.931 . S
H601 C589 0.929 . S
H602 C590 0.960 . S
H603 C590 0.962 . S
H604 C590 0.960 . S
H605 C591 0.961 . S
H606 C591 0.961 . S
H607 C591 0.961 . S
H608 C592 0.931 . S
H609 C597 0.930 . S
H610 C598 0.956 . S
H611 C598 0.961 . S
H612 C598 0.961 . S
H613 C599 0.958 . S
H614 C599 0.955 1_554 S
H615 C599 0.960 . S
C616 C617 1.391 . S
C616 C618 1.394 . S
C616 H632 0.931 . S
C617 C616 1.391 . S
C617 C621 1.376 . S
C618 C616 1.394 . S
C618 C619 1.369 . S
C618 C622 1.531 . S
C619 C618 1.369 . S
C619 C620 1.410 . S
C619 C627 1.503 . S
C620 C619 1.410 . S
C620 C621 1.392 . S
C620 C623 1.511 . S
C621 C617 1.376 . S
C621 C620 1.392 . S
C621 H633 0.929 . S
C622 C618 1.531 . S
C622 H634 0.960 . S
C622 H635 0.962 . S
C622 H636 0.960 . S
C623 C620 1.511 . S
C623 H637 0.961 . S
C623 H638 0.961 . S
C623 H639 0.961 . S
C624 C625 1.370 . S
C624 C626 1.363 . S
C624 H640 0.931 . S
C625 C624 1.370 . S
C625 C629 1.408 . S
C626 C624 1.363 . S
C626 C627 1.370 . S
C626 C630 1.524 . S
C627 C619 1.503 . S
C627 C626 1.370 . S
C627 C628 1.403 . S
C628 C627 1.403 . S
C628 C629 1.404 . S
C628 C631 1.539 . S
C629 C625 1.408 . S
C629 C628 1.404 . S
C629 H641 0.930 . S
C630 C626 1.524 . S
C630 H642 0.956 . S
C630 H643 0.961 . S
C630 H644 0.961 . S
C631 C628 1.539 . S
C631 H645 0.958 . S
C631 H646 0.961 . S
C631 H647 0.960 . S
H632 C616 0.931 . S
H633 C621 0.929 . S
H634 C622 0.960 . S
H635 C622 0.962 . S
H636 C622 0.960 . S
H637 C623 0.961 . S
H638 C623 0.961 . S
H639 C623 0.961 . S
H640 C624 0.931 . S
H641 C629 0.930 . S
H642 C630 0.956 . S
H643 C630 0.961 . S
H644 C630 0.961 . S
H645 C631 0.958 . S
H646 C631 0.961 . S
H647 C631 0.960 . S
C648 C649 1.391 . S
C648 C650 1.394 . S
C648 H664 0.931 . S
C649 C648 1.391 . S
C649 C653 1.376 . S
C650 C648 1.394 . S
C650 C651 1.369 . S
C650 C654 1.531 . S
C651 C650 1.369 . S
C651 C652 1.410 . S
C651 C659 1.503 . S
C652 C651 1.410 . S
C652 C653 1.392 . S
C652 C655 1.511 . S
C653 C649 1.376 . S
C653 C652 1.392 . S
C653 H665 0.929 . S
C654 C650 1.531 . S
C654 H666 0.960 . S
C654 H667 0.962 . S
C654 H668 0.960 . S
C655 C652 1.511 . S
C655 H669 0.961 . S
C655 H670 0.961 . S
C655 H671 0.961 . S
C656 C657 1.370 . S
C656 C658 1.363 . S
C656 H672 0.931 . S
C657 C656 1.370 . S
C657 C661 1.408 . S
C658 C656 1.363 . S
C658 C659 1.370 . S
C658 C662 1.524 . S
C659 C651 1.503 . S
C659 C658 1.370 . S
C659 C660 1.403 . S
C660 C659 1.403 . S
C660 C661 1.404 . S
C660 C663 1.539 . S
C661 C657 1.408 . S
C661 C660 1.404 . S
C661 H673 0.930 . S
C662 C658 1.524 . S
C662 H674 0.956 . S
C662 H675 0.961 . S
C662 H676 0.961 . S
C663 C660 1.539 . S
C663 H677 0.958 . S
C663 H678 0.961 . S
C663 H679 0.960 . S
H664 C648 0.931 . S
H665 C653 0.929 . S
H666 C654 0.960 . S
H667 C654 0.962 . S
H668 C654 0.960 . S
H669 C655 0.961 . S
H670 C655 0.961 . S
H671 C655 0.961 . S
H672 C656 0.931 . S
H673 C661 0.930 . S
H674 C662 0.956 . S
H675 C662 0.961 . S
H676 C662 0.961 . S
H677 C663 0.958 . S
H678 C663 0.961 . S
H679 C663 0.960 . S
C680 C681 1.391 . S
C680 C682 1.394 . S
C680 H696 0.931 . S
C681 C680 1.391 . S
C681 C685 1.376 . S
C682 C680 1.394 . S
C682 C683 1.369 . S
C682 C686 1.531 . S
C683 C682 1.369 . S
C683 C684 1.410 . S
C683 C691 1.503 . S
C684 C683 1.410 . S
C684 C685 1.392 . S
C684 C687 1.511 . S
C685 C681 1.376 . S
C685 C684 1.392 . S
C685 H697 0.929 . S
C686 C682 1.531 . S
C686 H698 0.960 . S
C686 H699 0.962 . S
C686 H700 0.960 . S
C687 C684 1.511 . S
C687 H701 0.961 . S
C687 H702 0.961 . S
C687 H703 0.961 . S
C688 C689 1.370 . S
C688 C690 1.363 . S
C688 H704 0.931 . S
C689 C688 1.370 . S
C689 C693 1.408 . S
C690 C688 1.363 . S
C690 C691 1.370 . S
C690 C694 1.524 . S
C691 C683 1.503 . S
C691 C690 1.370 . S
C691 C692 1.403 . S
C692 C691 1.403 . S
C692 C693 1.404 . S
C692 C695 1.539 . S
C693 C689 1.408 . S
C693 C692 1.404 . S
C693 H705 0.930 . S
C694 C690 1.524 . S
C694 H706 0.956 . S
C694 H707 0.961 . S
C694 H708 0.961 . S
C695 C692 1.539 . S
C695 H709 0.958 . S
C695 H710 0.961 . S
C695 H711 0.960 . S
H696 C680 0.931 . S
H697 C685 0.929 . S
H698 C686 0.960 . S
H699 C686 0.962 . S
H700 C686 0.960 . S
H701 C687 0.961 . S
H702 C687 0.961 . S
H703 C687 0.961 . S
H704 C688 0.931 . S
H705 C693 0.930 . S
H706 C694 0.956 . S
H707 C694 0.961 . S
H708 C694 0.961 . S
H709 C695 0.958 . S
H710 C695 0.961 . S
H711 C695 0.960 . S
C712 C713 1.391 . S
C712 C714 1.394 . S
C712 H728 0.931 . S
C713 C712 1.391 . S
C713 C717 1.376 . S
C714 C712 1.394 . S
C714 C715 1.369 . S
C714 C718 1.531 . S
C715 C714 1.369 . S
C715 C716 1.410 . S
C715 C723 1.503 . S
C716 C715 1.410 . S
C716 C717 1.392 . S
C716 C719 1.511 . S
C717 C713 1.376 . S
C717 C716 1.392 . S
C717 H729 0.929 . S
C718 C714 1.531 . S
C718 H730 0.960 . S
C718 H731 0.962 . S
C718 H732 0.960 . S
C719 C716 1.511 . S
C719 H733 0.961 . S
C719 H734 0.961 . S
C719 H735 0.961 . S
C720 C721 1.370 . S
C720 C722 1.363 . S
C720 H736 0.931 . S
C721 C720 1.370 . S
C721 C725 1.408 . S
C722 C720 1.363 . S
C722 C723 1.370 . S
C722 C726 1.524 . S
C723 C715 1.503 . S
C723 C722 1.370 . S
C723 C724 1.403 . S
C724 C723 1.403 . S
C724 C725 1.404 . S
C724 C727 1.539 . S
C725 C721 1.408 . S
C725 C724 1.404 . S
C725 H737 0.930 . S
C726 C722 1.524 . S
C726 H738 0.956 . S
C726 H739 0.961 . S
C726 H740 0.961 . S
C727 C724 1.539 . S
C727 H741 0.958 . S
C727 H742 0.961 . S
C727 H743 0.960 . S
H728 C712 0.931 . S
H729 C717 0.929 . S
H730 C718 0.960 . S
H731 C718 0.962 . S
H732 C718 0.960 . S
H733 C719 0.961 . S
H734 C719 0.961 . S
H735 C719 0.961 . S
H736 C720 0.931 . S
H737 C725 0.930 . S
H738 C726 0.956 . S
H739 C726 0.961 . S
H740 C726 0.961 . S
H741 C727 0.958 . S
H742 C727 0.961 . S
H743 C727 0.960 . S
C744 C745 1.391 . S
C744 C746 1.394 . S
C744 H760 0.931 . S
C745 C744 1.391 . S
C745 C749 1.376 . S
C746 C744 1.394 . S
C746 C747 1.369 . S
C746 C750 1.531 . S
C747 C746 1.369 . S
C747 C748 1.410 . S
C747 C755 1.503 1_545 S
C748 C747 1.410 . S
C748 C749 1.392 . S
C748 C751 1.511 . S
C749 C745 1.376 . S
C749 C748 1.392 . S
C749 H761 0.929 . S
C750 C746 1.531 . S
C750 H762 0.932 1_545 S
C750 H763 0.962 . S
C750 H764 0.960 . S
C751 C748 1.511 . S
C751 H765 0.961 . S
C751 H766 0.961 1_545 S
C751 H767 0.961 . S
C752 C753 1.370 . S
C752 C754 1.363 . S
C752 H768 0.931 . S
C753 C752 1.370 . S
C753 C757 1.408 . S
C754 C752 1.363 . S
C754 C755 1.370 . S
C754 C758 1.524 . S
C755 C747 1.503 1_565 S
C755 C754 1.370 . S
C755 C756 1.403 . S
C756 C755 1.403 . S
C756 C757 1.404 . S
C756 C759 1.539 1_554 S
C757 C753 1.408 . S
C757 C756 1.404 . S
C757 H769 0.930 1_554 S
C758 C754 1.524 . S
C758 H770 0.956 . S
C758 H771 0.961 . S
C758 H772 0.961 . S
C759 C756 1.539 1_556 S
C759 H773 0.958 . S
C759 H774 0.961 . S
C759 H775 0.960 1_565 S
H760 C744 0.931 . S
H761 C749 0.929 . S
H762 C750 0.932 1_565 S
H763 C750 0.962 . S
H764 C750 0.960 . S
H765 C751 0.961 . S
H766 C751 0.961 1_565 S
H767 C751 0.961 . S
H768 C752 0.931 . S
H769 C757 0.930 1_556 S
H770 C758 0.956 . S
H771 C758 0.961 . S
H772 C758 0.961 . S
H773 C759 0.958 . S
H774 C759 0.961 . S
H775 C759 0.960 1_545 S
C776 C777 1.391 . S
C776 C778 1.394 . S
C776 H792 0.931 . S
C777 C776 1.391 . S
C777 C781 1.376 . S
C778 C776 1.394 . S
C778 C779 1.369 . S
C778 C782 1.531 . S
C779 C778 1.369 . S
C779 C780 1.410 . S
C779 C787 1.503 . S
C780 C779 1.410 . S
C780 C781 1.392 . S
C780 C783 1.511 . S
C781 C777 1.376 . S
C781 C780 1.392 . S
C781 H793 0.929 . S
C782 C778 1.531 . S
C782 H794 0.960 . S
C782 H795 0.962 . S
C782 H796 0.960 . S
C783 C780 1.511 . S
C783 H797 0.961 . S
C783 H798 0.961 . S
C783 H799 0.961 . S
C784 C785 1.370 . S
C784 C786 1.363 . S
C784 H800 0.931 . S
C785 C784 1.370 . S
C785 C789 1.408 . S
C786 C784 1.363 . S
C786 C787 1.370 . S
C786 C790 1.524 . S
C787 C779 1.503 . S
C787 C786 1.370 . S
C787 C788 1.403 . S
C788 C787 1.403 . S
C788 C789 1.404 . S
C788 C791 1.539 . S
C789 C785 1.408 . S
C789 C788 1.404 . S
C789 H801 0.930 . S
C790 C786 1.524 . S
C790 H802 0.956 . S
C790 H803 0.961 . S
C790 H804 0.961 . S
C791 C788 1.539 . S
C791 H805 0.958 . S
C791 H806 0.961 . S
C791 H807 0.960 . S
H792 C776 0.931 . S
H793 C781 0.929 . S
H794 C782 0.960 . S
H795 C782 0.962 . S
H796 C782 0.960 . S
H797 C783 0.961 . S
H798 C783 0.961 . S
H799 C783 0.961 . S
H800 C784 0.931 . S
H801 C789 0.930 . S
H802 C790 0.956 . S
H803 C790 0.961 . S
H804 C790 0.961 . S
H805 C791 0.958 . S
H806 C791 0.961 . S
H807 C791 0.960 . S
C808 C809 1.391 . S
C808 C810 1.394 . S
C808 H824 0.931 . S
C809 C808 1.391 . S
C809 C813 1.376 . S
C810 C808 1.394 . S
C810 C811 1.369 . S
C810 C814 1.531 . S
C811 C810 1.369 . S
C811 C812 1.410 . S
C811 C819 1.503 1_455 S
C812 C811 1.410 . S
C812 C813 1.392 . S
C812 C815 1.511 . S
C813 C809 1.376 . S
C813 C812 1.392 . S
C813 H825 0.929 . S
C814 C810 1.531 . S
C814 H826 0.960 1_455 S
C814 H827 0.962 . S
C814 H828 0.960 . S
C815 C812 1.511 . S
C815 H829 0.961 . S
C815 H830 0.966 1_455 S
C815 H831 0.961 . S
C816 C817 1.370 . S
C816 C818 1.363 . S
C816 H832 0.931 . S
C817 C816 1.370 . S
C817 C821 1.408 . S
C818 C816 1.363 . S
C818 C819 1.370 . S
C818 C822 1.524 . S
C819 C811 1.503 1_655 S
C819 C818 1.370 . S
C819 C820 1.403 . S
C820 C819 1.403 . S
C820 C821 1.404 . S
C820 C823 1.539 . S
C821 C817 1.408 . S
C821 C820 1.404 . S
C821 H833 0.930 . S
C822 C818 1.524 . S
C822 H834 0.956 . S
C822 H835 0.961 1_655 S
C822 H836 0.961 . S
C823 C820 1.539 . S
C823 H837 0.958 . S
C823 H838 0.961 . S
C823 H839 0.960 . S
H824 C808 0.931 . S
H825 C813 0.929 . S
H826 C814 0.960 1_655 S
H827 C814 0.962 . S
H828 C814 0.960 . S
H829 C815 0.961 . S
H830 C815 0.966 1_655 S
H831 C815 0.961 . S
H832 C816 0.931 . S
H833 C821 0.930 . S
H834 C822 0.956 . S
H835 C822 0.961 1_455 S
H836 C822 0.961 . S
H837 C823 0.958 . S
H838 C823 0.961 . S
H839 C823 0.960 . S
C840 C841 1.391 . S
C840 C842 1.394 . S
C840 H856 0.931 . S
C841 C840 1.391 . S
C841 C845 1.376 . S
C842 C840 1.394 . S
C842 C843 1.369 . S
C842 C846 1.531 . S
C843 C842 1.369 . S
C843 C844 1.410 . S
C843 C851 1.503 1_565 S
C844 C843 1.410 . S
C844 C845 1.392 . S
C844 C847 1.511 . S
C845 C841 1.376 . S
C845 C844 1.392 . S
C845 H857 0.929 . S
C846 C842 1.531 . S
C846 H858 0.922 1_565 S
C846 H859 0.962 . S
C846 H860 0.960 . S
C847 C844 1.511 . S
C847 H861 0.961 . S
C847 H862 0.961 1_565 S
C847 H863 0.961 . S
C848 C849 1.370 . S
C848 C850 1.363 . S
C848 H864 0.931 . S
C849 C848 1.370 . S
C849 C853 1.408 . S
C850 C848 1.363 . S
C850 C851 1.370 . S
C850 C854 1.524 . S
C851 C843 1.503 1_545 S
C851 C850 1.370 . S
C851 C852 1.403 . S
C852 C851 1.403 . S
C852 C853 1.404 . S
C852 C855 1.539 . S
C853 C849 1.408 . S
C853 C852 1.404 . S
C853 H865 0.930 . S
C854 C850 1.524 . S
C854 H866 0.956 1_545 S
C854 H867 0.961 1_545 S
C854 H868 0.961 . S
C855 C852 1.539 . S
C855 H869 0.958 . S
C855 H870 0.961 . S
C855 H871 0.960 . S
H856 C840 0.931 . S
H857 C845 0.929 . S
H858 C846 0.922 1_545 S
H859 C846 0.962 . S
H860 C846 0.960 . S
H861 C847 0.961 . S
H862 C847 0.961 1_545 S
H863 C847 0.961 . S
H864 C848 0.931 . S
H865 C853 0.930 . S
H866 C854 0.956 1_565 S
H867 C854 0.961 1_565 S
H868 C854 0.961 . S
H869 C855 0.958 . S
H870 C855 0.961 . S
H871 C855 0.960 . S
C872 C873 1.391 . S
C872 C874 1.394 . S
C872 H888 0.931 . S
C873 C872 1.391 . S
C873 C877 1.376 . S
C874 C872 1.394 . S
C874 C875 1.369 . S
C874 C878 1.531 . S
C875 C874 1.369 . S
C875 C876 1.410 . S
C875 C883 1.503 . S
C876 C875 1.410 . S
C876 C877 1.392 . S
C876 C879 1.511 . S
C877 C873 1.376 . S
C877 C876 1.392 . S
C877 H889 0.929 . S
C878 C874 1.531 . S
C878 H890 0.960 . S
C878 H891 0.962 . S
C878 H892 0.960 . S
C879 C876 1.511 . S
C879 H893 0.961 . S
C879 H894 0.961 . S
C879 H895 0.961 . S
C880 C881 1.370 . S
C880 C882 1.363 . S
C880 H896 0.931 . S
C881 C880 1.370 . S
C881 C885 1.408 . S
C882 C880 1.363 . S
C882 C883 1.370 . S
C882 C886 1.524 . S
C883 C875 1.503 . S
C883 C882 1.370 . S
C883 C884 1.403 . S
C884 C883 1.403 . S
C884 C885 1.404 . S
C884 C887 1.539 . S
C885 C881 1.408 . S
C885 C884 1.404 . S
C885 H897 0.930 . S
C886 C882 1.524 . S
C886 H898 0.956 . S
C886 H899 0.961 . S
C886 H900 0.961 . S
C887 C884 1.539 . S
C887 H901 0.958 . S
C887 H902 0.961 . S
C887 H903 0.960 . S
H888 C872 0.931 . S
H889 C877 0.929 . S
H890 C878 0.960 . S
H891 C878 0.962 . S
H892 C878 0.960 . S
H893 C879 0.961 . S
H894 C879 0.961 . S
H895 C879 0.961 . S
H896 C880 0.931 . S
H897 C885 0.930 . S
H898 C886 0.956 . S
H899 C886 0.961 . S
H900 C886 0.961 . S
H901 C887 0.958 . S
H902 C887 0.961 . S
H903 C887 0.960 . S
C904 C905 1.391 . S
C904 C906 1.394 . S
C904 H920 0.931 . S
C905 C904 1.391 . S
C905 C909 1.376 . S
C906 C904 1.394 . S
C906 C907 1.369 . S
C906 C910 1.531 1_556 S
C907 C906 1.369 . S
C907 C908 1.410 . S
C907 C915 1.503 1_455 S
C908 C907 1.410 . S
C908 C909 1.392 . S
C908 C911 1.511 . S
C909 C905 1.376 . S
C909 C908 1.392 . S
C909 H921 0.929 . S
C910 C906 1.531 1_554 S
C910 H922 0.960 1_455 S
C910 H923 0.962 1_554 S
C910 H924 0.960 . S
C911 C908 1.511 . S
C911 H925 0.961 . S
C911 H926 0.957 1_455 S
C911 H927 0.961 . S
C912 C913 1.370 . S
C912 C914 1.363 . S
C912 H928 0.931 . S
C913 C912 1.370 . S
C913 C917 1.408 . S
C914 C912 1.363 . S
C914 C915 1.370 . S
C914 C918 1.524 . S
C915 C907 1.503 1_655 S
C915 C914 1.370 . S
C915 C916 1.403 . S
C916 C915 1.403 . S
C916 C917 1.404 . S
C916 C919 1.539 . S
C917 C913 1.408 . S
C917 C916 1.404 . S
C917 H929 0.930 . S
C918 C914 1.524 . S
C918 H930 0.952 1_655 S
C918 H931 0.961 1_655 S
C918 H932 0.961 . S
C919 C916 1.539 . S
C919 H933 0.958 1_556 S
C919 H934 0.961 . S
C919 H935 0.960 . S
H920 C904 0.931 . S
H921 C909 0.929 . S
H922 C910 0.960 1_655 S
H923 C910 0.962 1_556 S
H924 C910 0.960 . S
H925 C911 0.961 . S
H926 C911 0.957 1_655 S
H927 C911 0.961 . S
H928 C912 0.931 . S
H929 C917 0.930 . S
H930 C918 0.952 1_455 S
H931 C918 0.961 1_455 S
H932 C918 0.961 . S
H933 C919 0.958 1_554 S
H934 C919 0.961 . S
H935 C919 0.960 . S
C169 C4 1.602 . S
C177 C144 1.589 . S
C201 C18 1.589 . S
C209 C158 1.589 . S
C233 C88 1.589 . S
C241 C32 1.589 . S
C265 C46 1.573 . S
C273 C102 1.605 1_556 S
C297 C116 1.621 . S
C305 C60 1.596 . S
C329 C130 1.618 . S
C337 C74 1.608 1_554 S
C361 C117 1.129 . S
C369 C5 1.055 . S
C393 C19 1.081 . S
C401 C131 1.092 . S
C425 C145 1.101 . S
C433 C33 1.086 . S
C457 C47 1.046 . S
C465 C159 1.095 . S
C489 C61 1.075 . S
C497 C89 1.093 . S
C521 C75 1.070 . S
C529 C103 1.094 . S
C553 C151 1.354 . S
C561 C11 1.351 . S
C585 C165 1.328 . S
C593 C25 1.359 . S
C617 C95 1.365 . S
C625 C39 1.377 . S
C649 C53 1.384 . S
C657 C109 1.377 . S
C681 C67 1.393 . S
C689 C123 1.372 . S
C713 C137 1.379 . S
C721 C81 1.358 . S
C745 C12 1.097 . S
C753 C110 1.109 . S
C777 C124 1.130 . S
C785 C26 1.117 . S
C809 C138 1.132 . S
C817 C40 1.118 . S
C841 C54 1.094 . S
C849 C152 1.101 . S
C873 C68 1.129 . S
C881 C166 1.116 . S
C905 C82 1.132 . S
C913 C96 1.118 . S
