# Generated by pormake.
# Topology uoj, (4)-cn, num edge types: 1
# Building blocks:
#     Node 0, Type 0, BuildingBlock: QUQFOY_clean_sbu_1, # of connection points: 4
#     Node 1, Type 0, BuildingBlock: QUQFOY_clean_sbu_1, # of connection points: 4
#     Node 2, Type 0, BuildingBlock: QUQFOY_clean_sbu_1, # of connection points: 4
#     Node 3, Type 0, BuildingBlock: QUQFOY_clean_sbu_1, # of connection points: 4
#     Node 4, Type 0, BuildingBlock: QUQFOY_clean_sbu_1, # of connection points: 4
#     Node 5, Type 0, BuildingBlock: QUQFOY_clean_sbu_1, # of connection points: 4
#     Node 6, Type 0, BuildingBlock: QUQFOY_clean_sbu_1, # of connection points: 4
#     Node 7, Type 0, BuildingBlock: QUQFOY_clean_sbu_1, # of connection points: 4
#     Edge 8, Type (0, 0), BuildingBlock: FUNLAD_clean_linker_0, # of connection points: 2
#     Edge 9, Type (0, 0), BuildingBlock: FUNLAD_clean_linker_0, # of connection points: 2
#     Edge 10, Type (0, 0), BuildingBlock: FUNLAD_clean_linker_0, # of connection points: 2
#     Edge 11, Type (0, 0), BuildingBlock: FUNLAD_clean_linker_0, # of connection points: 2
#     Edge 12, Type (0, 0), BuildingBlock: FUNLAD_clean_linker_0, # of connection points: 2
#     Edge 13, Type (0, 0), BuildingBlock: FUNLAD_clean_linker_0, # of connection points: 2
#     Edge 14, Type (0, 0), BuildingBlock: FUNLAD_clean_linker_0, # of connection points: 2
#     Edge 15, Type (0, 0), BuildingBlock: FUNLAD_clean_linker_0, # of connection points: 2
#     Edge 16, Type (0, 0), BuildingBlock: FUNLAD_clean_linker_0, # of connection points: 2
#     Edge 17, Type (0, 0), BuildingBlock: FUNLAD_clean_linker_0, # of connection points: 2
#     Edge 18, Type (0, 0), BuildingBlock: FUNLAD_clean_linker_0, # of connection points: 2
#     Edge 19, Type (0, 0), BuildingBlock: FUNLAD_clean_linker_0, # of connection points: 2
#     Edge 20, Type (0, 0), BuildingBlock: FUNLAD_clean_linker_0, # of connection points: 2
#     Edge 21, Type (0, 0), BuildingBlock: FUNLAD_clean_linker_0, # of connection points: 2
#     Edge 22, Type (0, 0), BuildingBlock: FUNLAD_clean_linker_0, # of connection points: 2
#     Edge 23, Type (0, 0), BuildingBlock: FUNLAD_clean_linker_0, # of connection points: 2
# Relax obj value: 0.060
# Max RMSD: 0.097
# Mean RMSD: 0.097
data_MOF--net-uoj--node1-QUQFOY_clean_sbu_1--edge1-FUNLAD_clean_linker_0
_symmetry_space_group_name_H-M    P1
_symmetry_Int_Tables_number       1
_symmetry_cell_setting            triclinic
loop_
_symmetry_equiv_pos_as_xyz
'x, y, z'
_cell_length_a     37.518406
_cell_length_b     37.557816
_cell_length_c     48.433565
_cell_angle_alpha  89.956811
_cell_angle_beta   90.066454
_cell_angle_gamma 90.106924
loop_
_atom_site_label
_atom_site_type_symbol
_atom_site_fract_x
_atom_site_fract_y
_atom_site_fract_z
_atom_type_partial_charge
O0 O 0.03318 0.25678 0.46967 0.0
Cd1 Cd 0.08217 0.28019 0.46538 0.0
Cd2 Cd 0.06346 0.27685 0.41279 0.0
O3 O 0.02357 0.24255 0.42618 0.0
O4 O 0.10712 0.26813 0.50039 0.0
O5 O 0.12409 0.24826 0.45941 0.0
C6 C 0.12774 0.24796 0.48597 0.0
C7 C 0.10001 0.2676 0.37445 0.0
C8 C 0.01425 0.2415 0.45143 0.0
C9 C 0.06502 0.34883 0.44051 0.0
O10 O 0.05421 0.32988 0.42043 0.0
O11 O 0.08126 0.33456 0.46071 0.0
O12 O 0.06634 0.27356 0.37175 0.0
O13 O 0.11261 0.26433 0.39917 0.0
O14 O 0.25324 0.95833 0.57935 0.0
Cd15 Cd 0.27572 0.90908 0.58359 0.0
Cd16 Cd 0.2747 0.92833 0.63661 0.0
O17 O 0.24234 0.96981 0.62314 0.0
O18 O 0.26242 0.88421 0.54887 0.0
O19 O 0.24319 0.86761 0.59015 0.0
C20 C 0.24234 0.86381 0.56362 0.0
C21 C 0.26386 0.89307 0.6755 0.0
C22 C 0.23996 0.97834 0.59775 0.0
C23 C 0.34593 0.92302 0.60775 0.0
O24 O 0.32824 0.9339 0.62845 0.0
O25 O 0.33023 0.90876 0.58729 0.0
O26 O 0.27205 0.92632 0.67771 0.0
O27 O 0.25923 0.88032 0.65097 0.0
O28 O 0.95495 0.72939 0.4686 0.0
Cd29 Cd 0.90567 0.70719 0.46291 0.0
Cd30 Cd 0.92502 0.71408 0.41016 0.0
O31 O 0.96506 0.74669 0.42583 0.0
O32 O 0.8805 0.71639 0.4983 0.0
O33 O 0.86481 0.74088 0.45847 0.0
C34 C 0.8608 0.73865 0.48494 0.0
C35 C 0.89058 0.72657 0.37112 0.0
C36 C 0.9741 0.74588 0.45117 0.0
C37 C 0.92097 0.64021 0.43466 0.0
O38 O 0.93243 0.66025 0.41546 0.0
O39 O 0.90539 0.65337 0.45556 0.0
O40 O 0.92423 0.72011 0.36925 0.0
O41 O 0.87686 0.72868 0.39553 0.0
O42 O 0.73735 0.03362 0.57249 0.0
Cd43 Cd 0.71072 0.08072 0.57726 0.0
Cd44 Cd 0.71069 0.05713 0.62979 0.0
O45 O 0.74542 0.01802 0.61599 0.0
O46 O 0.72314 0.10677 0.54288 0.0
O47 O 0.74032 0.12422 0.58448 0.0
C48 C 0.74174 0.12812 0.55797 0.0
C49 C 0.71689 0.08952 0.67073 0.0
C50 C 0.7504 0.01257 0.59034 0.0
C51 C 0.64055 0.06051 0.5986 0.0
O52 O 0.65818 0.04953 0.61932 0.0
O53 O 0.65603 0.07712 0.57915 0.0
O54 O 0.7092 0.05603 0.67089 0.0
O55 O 0.72401 0.10418 0.64721 0.0
O56 O 0.45599 0.74745 0.96558 0.0
Cd57 Cd 0.40912 0.77238 0.95593 0.0
Cd58 Cd 0.43418 0.76124 0.90552 0.0
O59 O 0.47062 0.72745 0.92433 0.0
O60 O 0.38103 0.7678 0.99057 0.0
O61 O 0.3664 0.74087 0.9515 0.0
C62 C 0.36093 0.74547 0.97761 0.0
C63 C 0.39723 0.74898 0.86803 0.0
C64 C 0.47624 0.72906 0.95022 0.0
C65 C 0.43211 0.83647 0.92603 0.0
O66 O 0.44526 0.81453 0.90891 0.0
O67 O 0.4128 0.82554 0.94587 0.0
O68 O 0.43131 0.75199 0.86505 0.0
O69 O 0.38449 0.74975 0.89282 0.0
O70 O 0.7559 0.52582 0.07799 0.0
Cd71 Cd 0.77884 0.57467 0.08407 0.0
Cd72 Cd 0.77174 0.55457 0.13614 0.0
O73 O 0.73788 0.51565 0.12054 0.0
O74 O 0.77021 0.59988 0.04859 0.0
O75 O 0.74562 0.61596 0.08822 0.0
C76 C 0.74802 0.61982 0.06175 0.0
C77 C 0.76002 0.59067 0.1743 0.0
C78 C 0.73878 0.50686 0.09517 0.0
C79 C 0.84561 0.55688 0.11181 0.0
O80 O 0.82524 0.54507 0.13068 0.0
O81 O 0.83276 0.57404 0.0915 0.0
O82 O 0.76545 0.55693 0.17697 0.0
O83 O 0.75866 0.6036 0.14957 0.0
O84 O 0.52511 0.22416 0.97337 0.0
Cd85 Cd 0.57494 0.20491 0.96478 0.0
Cd86 Cd 0.55197 0.21592 0.91535 0.0
O87 O 0.51751 0.25206 0.93381 0.0
O88 O 0.6043 0.21626 0.99775 0.0
O89 O 0.61314 0.24034 0.95646 0.0
C90 C 0.62096 0.23904 0.98247 0.0
C91 C 0.5818 0.22353 0.87338 0.0
C92 C 0.50755 0.24568 0.95844 0.0
C93 C 0.55438 0.14085 0.9376 0.0
O94 O 0.53932 0.16306 0.92159 0.0
O95 O 0.57639 0.15171 0.95568 0.0
O96 O 0.54756 0.22076 0.87453 0.0
O97 O 0.59904 0.22537 0.89646 0.0
O98 O 0.2293 0.45747 0.07989 0.0
Cd99 Cd 0.20986 0.40916 0.09216 0.0
Cd100 Cd 0.2191 0.43796 0.14139 0.0
O101 O 0.2494 0.47569 0.12032 0.0
O102 O 0.21885 0.37643 0.06059 0.0
O103 O 0.24717 0.37302 0.10074 0.0
C104 C 0.2437 0.36245 0.0755 0.0
C105 C 0.23501 0.40467 0.18009 0.0
C106 C 0.24653 0.47989 0.0943 0.0
C107 C 0.14412 0.42711 0.12168 0.0
O108 O 0.16486 0.44341 0.13814 0.0
O109 O 0.15662 0.4079 0.1024 0.0
O110 O 0.22918 0.43847 0.18189 0.0
O111 O 0.23506 0.39048 0.15579 0.0
C112 C 0.2306 0.3453 0.20361 0.0
C113 C 0.23614 0.38229 0.20532 0.0
C114 C 0.22375 0.32526 0.22744 0.0
C115 C 0.22249 0.34183 0.25348 0.0
C116 C 0.23108 0.37816 0.25535 0.0
C117 C 0.23753 0.39826 0.23154 0.0
C118 C 0.20996 0.32296 0.27876 0.0
C119 C 0.18506 0.29699 0.278 0.0
C120 C 0.16559 0.28445 0.30299 0.0
C121 C 0.12987 0.27385 0.3001 0.0
C122 C 0.10903 0.26647 0.32332 0.0
C123 C 0.12365 0.26881 0.34998 0.0
H124 H 0.20864 0.29169 0.33249 0.0
C125 C 0.16012 0.27676 0.35282 0.0
C126 C 0.1809 0.28467 0.32955 0.0
H127 H 0.1722 0.27868 0.37309 0.0
H128 H 0.22955 0.33211 0.18374 0.0
H129 H 0.21846 0.29706 0.22529 0.0
H130 H 0.23078 0.39154 0.27516 0.0
H131 H 0.24196 0.42664 0.23362 0.0
H132 H 0.2176 0.33427 0.29854 0.0
H133 H 0.17493 0.28812 0.25814 0.0
H134 H 0.11748 0.27305 0.27989 0.0
H135 H 0.08109 0.2602 0.32042 0.0
C136 C 0.26898 0.83284 0.69771 0.0
C137 C 0.2641 0.86981 0.70024 0.0
C138 C 0.27604 0.81191 0.72107 0.0
C139 C 0.27807 0.82759 0.74743 0.0
C140 C 0.27051 0.86402 0.75007 0.0
C141 C 0.26395 0.88497 0.72675 0.0
C142 C 0.28992 0.80763 0.77241 0.0
C143 C 0.31343 0.78049 0.77142 0.0
C144 C 0.3322 0.76675 0.79638 0.0
C145 C 0.36733 0.75445 0.79359 0.0
C146 C 0.38786 0.74641 0.81688 0.0
C147 C 0.37349 0.7499 0.84353 0.0
H148 H 0.28957 0.77597 0.82582 0.0
C149 C 0.3374 0.75931 0.84626 0.0
C150 C 0.31695 0.76775 0.82292 0.0
H151 H 0.32545 0.76209 0.86649 0.0
H152 H 0.26915 0.82033 0.67756 0.0
H153 H 0.28064 0.78369 0.71832 0.0
H154 H 0.27148 0.87677 0.77013 0.0
H155 H 0.26005 0.91333 0.72944 0.0
H156 H 0.28291 0.81891 0.79231 0.0
H157 H 0.32306 0.77144 0.75149 0.0
H158 H 0.37964 0.75296 0.7734 0.0
H159 H 0.4155 0.739 0.81403 0.0
C160 C 0.83131 0.71975 0.34755 0.0
C161 C 0.86809 0.72678 0.34593 0.0
C162 C 0.81156 0.7126 0.32359 0.0
C163 C 0.82822 0.71258 0.29754 0.0
C164 C 0.86426 0.72248 0.29586 0.0
C165 C 0.88406 0.72917 0.31977 0.0
C166 C 0.8099 0.7002 0.27196 0.0
C167 C 0.78448 0.67471 0.27208 0.0
C168 C 0.77293 0.6555 0.24667 0.0
C169 C 0.76275 0.61963 0.24901 0.0
C170 C 0.75657 0.59903 0.22545 0.0
C171 C 0.75978 0.614 0.19898 0.0
H172 H 0.78052 0.69901 0.21767 0.0
C173 C 0.76723 0.65059 0.19663 0.0
C174 C 0.77387 0.67116 0.22024 0.0
H175 H 0.76976 0.66297 0.17652 0.0
H176 H 0.81818 0.71785 0.3674 0.0
H177 H 0.78354 0.7062 0.32562 0.0
H178 H 0.87771 0.72313 0.27607 0.0
H179 H 0.91228 0.73477 0.31779 0.0
H180 H 0.82133 0.70856 0.2524 0.0
H181 H 0.77548 0.66397 0.2917 0.0
H182 H 0.76139 0.60695 0.26908 0.0
H183 H 0.75062 0.57098 0.22799 0.0
C184 C 0.63781 0.21529 0.84543 0.0
C185 C 0.60051 0.21909 0.8466 0.0
C186 C 0.65438 0.20329 0.82118 0.0
C187 C 0.63384 0.19474 0.79776 0.0
C188 C 0.59697 0.20079 0.79848 0.0
C189 C 0.58053 0.21308 0.82248 0.0
C190 C 0.64871 0.17509 0.77377 0.0
C191 C 0.68283 0.17677 0.76521 0.0
C192 C 0.69531 0.15375 0.74224 0.0
C193 C 0.71493 0.16813 0.72021 0.0
C194 C 0.72337 0.14702 0.6972 0.0
C195 C 0.71312 0.11096 0.69628 0.0
H196 H 0.67205 0.10545 0.75884 0.0
C197 C 0.69554 0.09621 0.71924 0.0
C198 C 0.68652 0.11739 0.74183 0.0
H199 H 0.68727 0.06856 0.71931 0.0
H200 H 0.65398 0.21956 0.86367 0.0
H201 H 0.68282 0.19851 0.82147 0.0
H202 H 0.58051 0.19449 0.78073 0.0
H203 H 0.55179 0.2158 0.82253 0.0
H204 H 0.63027 0.15812 0.76243 0.0
H205 H 0.7012 0.19587 0.77425 0.0
H206 H 0.72228 0.19603 0.72022 0.0
H207 H 0.73699 0.15915 0.67987 0.0
C208 C 0.22071 0.02034 0.56075 0.0
C209 C 0.22421 0.01274 0.58906 0.0
C210 C 0.2094 0.05373 0.55185 0.0
C211 C 0.20142 0.08059 0.57103 0.0
C212 C 0.20327 0.07264 0.59936 0.0
C213 C 0.21479 0.03906 0.60834 0.0
C214 C 0.18973 0.11646 0.56178 0.0
C215 C 0.20103 0.13109 0.53786 0.0
C216 C 0.18608 0.16423 0.52571 0.0
C217 C 0.18858 0.16917 0.49701 0.0
C218 C 0.17133 0.19764 0.48413 0.0
C219 C 0.15148 0.22202 0.49975 0.0
H220 H 0.16685 0.18801 0.5638 0.0
C221 C 0.15114 0.2186 0.52868 0.0
C222 C 0.16826 0.19001 0.54155 0.0
H223 H 0.13639 0.23717 0.54136 0.0
H224 H 0.22718 0.00058 0.54527 0.0
H225 H 0.20669 0.05823 0.52987 0.0
H226 H 0.19658 0.09269 0.61455 0.0
H227 H 0.21707 0.03402 0.63029 0.0
H228 H 0.17085 0.1304 0.5748 0.0
H229 H 0.22048 0.11688 0.52547 0.0
H230 H 0.20256 0.14999 0.48432 0.0
H231 H 0.1723 0.19961 0.46183 0.0
C232 C 0.21234 0.83997 0.52134 0.0
C233 C 0.21613 0.83992 0.55024 0.0
C234 C 0.1838 0.82231 0.50879 0.0
C235 C 0.15842 0.80423 0.52493 0.0
C236 C 0.16365 0.80212 0.55361 0.0
C237 C 0.19208 0.81995 0.56619 0.0
C238 C 0.12559 0.7883 0.51295 0.0
C239 C 0.11004 0.80004 0.4895 0.0
C240 C 0.07476 0.78691 0.47985 0.0
C241 C 0.06635 0.78791 0.45157 0.0
C242 C 0.03332 0.77543 0.44205 0.0
C243 C 0.00797 0.76207 0.46074 0.0
H244 H 0.05352 0.77511 0.52061 0.0
C245 C 0.01597 0.76243 0.48912 0.0
C246 C 0.04882 0.77478 0.49857 0.0
H247 H -0.00309 0.75285 0.50419 0.0
H248 H 0.23065 0.8548 0.50841 0.0
H249 H 0.18152 0.82338 0.48654 0.0
H250 H 0.14478 0.78794 0.56651 0.0
H251 H 0.19436 0.81921 0.58848 0.0
H252 H 0.11261 0.76764 0.52501 0.0
H253 H 0.12293 0.82037 0.47708 0.0
H254 H 0.08563 0.79775 0.43677 0.0
H255 H 0.02794 0.77563 0.42007 0.0
C256 C 0.76865 0.94849 0.59528 0.0
C257 C 0.76913 0.98054 0.58031 0.0
C258 C 0.78127 0.91698 0.58323 0.0
C259 C 0.79481 0.91724 0.55607 0.0
C260 C 0.79717 0.94977 0.54197 0.0
C261 C 0.78428 0.98096 0.55382 0.0
C262 C 0.80639 0.88465 0.5412 0.0
C263 C 0.79672 0.85118 0.54789 0.0
C264 C 0.80828 0.82033 0.531 0.0
C265 C 0.81836 0.7886 0.54408 0.0
C266 C 0.8335 0.76088 0.52881 0.0
C267 C 0.83818 0.76422 0.5001 0.0
H268 H 0.80171 0.84628 0.49124 0.0
C269 C 0.82528 0.79481 0.48675 0.0
C270 C 0.81053 0.82262 0.50205 0.0
H271 H 0.82824 0.79812 0.46465 0.0
H272 H 0.75711 0.94744 0.61575 0.0
H273 H 0.77997 0.89265 0.59514 0.0
H274 H 0.8079 0.95094 0.52122 0.0
H275 H 0.7853 0.00533 0.54185 0.0
H276 H 0.82282 0.88871 0.52298 0.0
H277 H 0.78122 0.84588 0.56633 0.0
H278 H 0.81628 0.78598 0.5663 0.0
H279 H 0.84294 0.73751 0.53969 0.0
C280 C 0.77188 0.15294 0.51615 0.0
C281 C 0.76764 0.15271 0.54501 0.0
C282 C 0.80087 0.17033 0.50403 0.0
C283 C 0.82625 0.18783 0.52057 0.0
C284 C 0.8204 0.18998 0.54917 0.0
C285 C 0.79149 0.17245 0.56132 0.0
C286 C 0.85988 0.20271 0.50918 0.0
C287 C 0.87562 0.19061 0.48595 0.0
C288 C 0.91173 0.20234 0.47722 0.0
C289 C 0.92077 0.20249 0.44906 0.0
C290 C 0.95452 0.21409 0.44045 0.0
C291 C 0.97994 0.22532 0.45995 0.0
H292 H 0.93243 0.21072 0.51864 0.0
C293 C 0.97132 0.22348 0.48817 0.0
C294 C 0.93774 0.21208 0.4967 0.0
H295 H 0.99039 0.23139 0.50383 0.0
H296 H 0.75371 0.13834 0.50294 0.0
H297 H 0.8036 0.1693 0.48182 0.0
H298 H 0.83924 0.20376 0.56237 0.0
H299 H 0.78888 0.17296 0.58358 0.0
H300 H 0.87342 0.22269 0.52158 0.0
H301 H 0.8623 0.17103 0.47309 0.0
H302 H 0.9014 0.19443 0.43367 0.0
H303 H 0.96034 0.21508 0.41857 0.0
C304 C 0.26895 0.54313 0.09447 0.0
C305 C 0.26181 0.51134 0.08021 0.0
C306 C 0.27998 0.57363 0.08006 0.0
C307 C 0.2843 0.57262 0.05116 0.0
C308 C 0.27848 0.54043 0.03725 0.0
C309 C 0.26713 0.51027 0.0515 0.0
C310 C 0.29566 0.60392 0.03459 0.0
C311 C 0.29076 0.63807 0.04216 0.0
C312 C 0.30335 0.66815 0.02476 0.0
C313 C 0.3163 0.69907 0.03754 0.0
C314 C 0.33287 0.72567 1.02191 0.0
C315 C 0.33638 0.72199 0.99313 0.0
H316 H 0.29295 0.64313 0.98509 0.0
C317 C 0.32053 0.69255 0.9801 0.0
C318 C 0.30412 0.6659 0.99574 0.0
H319 H 0.3224 0.68909 0.95795 0.0
H320 H 0.26513 0.5447 0.1166 0.0
H321 H 0.28526 0.59769 0.09164 0.0
H322 H 0.28205 0.53873 1.01508 0.0
H323 H 0.26217 0.4861 0.03991 0.0
H324 H 0.30814 0.59827 1.01485 0.0
H325 H 0.27897 0.6443 0.06203 0.0
H326 H 0.3154 0.70176 0.0598 0.0
H327 H 0.34455 0.74819 0.03257 0.0
C328 C 0.69257 0.65654 0.05971 0.0
C329 C 0.72258 0.64241 0.04635 0.0
C330 C 0.66466 0.6712 0.04435 0.0
C331 C 0.66626 0.67202 1.01532 0.0
C332 C 0.69751 0.66071 1.00216 0.0
C333 C 0.72533 0.64578 1.0175 0.0
C334 C 0.63532 0.68337 0.99832 0.0
C335 C 0.60152 0.67664 1.00613 0.0
C336 C 0.56948 0.68772 0.99032 0.0
C337 C 0.53749 0.69208 1.00484 0.0
C338 C 0.50695 0.70418 0.99145 0.0
C339 C 0.50743 0.71164 0.96303 0.0
H340 H 0.59362 0.68961 0.94952 0.0
C341 C 0.53887 0.70552 0.94804 0.0
C342 C 0.56975 0.69378 0.96159 0.0
H343 H 0.53997 0.71105 0.9261 0.0
H344 H 0.68976 0.65467 0.08192 0.0
H345 H 0.64154 0.68111 0.05524 0.0
H346 H 0.69966 0.66169 0.97986 0.0
H347 H 0.74826 0.6354 1.00659 0.0
H348 H 0.64071 0.69613 0.97865 0.0
H349 H 0.5968 0.66323 0.02569 0.0
H350 H 0.53635 0.68713 0.02687 0.0
H351 H 0.48303 0.70837 1.00354 0.0
C352 C 0.72073 0.46636 0.05682 0.0
C353 C 0.72214 0.47341 0.08532 0.0
C354 C 0.70838 0.43371 0.04704 0.0
C355 C 0.69738 0.40701 0.06553 0.0
C356 C 0.69728 0.41451 0.09396 0.0
C357 C 0.70969 0.44737 0.10382 0.0
C358 C 0.68468 0.37175 0.05559 0.0
C359 C 0.69557 0.35729 0.03153 0.0
C360 C 0.68008 0.32425 1.01967 0.0
C361 C 0.67962 0.32023 0.99084 0.0
C362 C 0.66201 0.29143 0.97864 0.0
C363 C 0.64493 0.26577 0.99509 0.0
H364 H 0.66595 0.29885 0.05848 0.0
C365 C 0.64758 0.26844 0.02399 0.0
C366 C 0.66494 0.2974 0.03618 0.0
H367 H 0.63497 0.24893 0.03728 0.0
H368 H 0.72954 0.48601 0.04192 0.0
H369 H 0.70728 0.42975 0.02494 0.0
H370 H 0.6883 0.39464 0.10863 0.0
H371 H 0.71033 0.452 0.12588 0.0
H372 H 0.66546 0.3578 0.06839 0.0
H373 H 0.71505 0.37125 1.01896 0.0
H374 H 0.69155 0.34028 0.97765 0.0
H375 H 0.66064 0.29006 0.95633 0.0
C376 C 0.45493 0.24165 0.98933 0.0
C377 C 0.47456 0.26115 0.96977 0.0
C378 C 0.42441 0.25597 1.0013 0.0
C379 C 0.41312 0.29041 0.99428 0.0
C380 C 0.43266 0.31002 0.97471 0.0
C381 C 0.46286 0.29526 0.96216 0.0
C382 C 0.3827 0.30703 1.00879 0.0
C383 C 0.35354 0.28848 1.0163 0.0
C384 C 0.32491 0.30496 0.0328 0.0
C385 C 0.28925 0.30153 0.02452 0.0
C386 C 0.2623 0.31908 0.03907 0.0
C387 C 0.27058 0.33915 0.06271 0.0
H388 H 0.36038 0.32643 0.06396 0.0
C389 C 0.30606 0.34064 0.07193 0.0
C390 C 0.33306 0.32405 0.0569 0.0
H391 H 0.31324 0.35618 0.08994 0.0
H392 H 0.46329 0.21521 0.99552 0.0
H393 H 0.41039 0.2405 1.01675 0.0
H394 H 0.42458 0.33678 0.96921 0.0
H395 H 0.47765 0.31086 0.94722 0.0
H396 H 0.38423 0.33536 1.01329 0.0
H397 H 0.35003 0.26112 1.00952 0.0
H398 H 0.28244 0.28653 1.00614 0.0
H399 H 0.23514 0.31763 0.03152 0.0
C400 C 0.93578 0.58303 0.4583 0.0
C401 C 0.92967 0.60203 0.43376 0.0
C402 C 0.95031 0.54881 0.45736 0.0
C403 C 0.9584 0.533 0.43183 0.0
C404 C 0.9499 0.55102 0.40735 0.0
C405 C 0.9361 0.58544 0.40828 0.0
C406 C 0.9764 0.49813 0.42993 0.0
C407 C 0.00227 0.48811 0.4476 0.0
C408 C 0.02193 0.45406 0.4448 0.0
C409 C 0.03725 0.43851 0.46835 0.0
C410 C 0.05336 0.40503 0.46678 0.0
C411 C 0.05447 0.38663 0.44155 0.0
H412 H 0.01582 0.44864 0.40029 0.0
C413 C 0.04139 0.40332 0.41766 0.0
C414 C 0.02552 0.43676 0.4192 0.0
H415 H 0.04248 0.39008 0.39781 0.0
H416 H 0.93106 0.59524 0.47821 0.0
H417 H 0.95563 0.53503 0.47656 0.0
H418 H 0.95548 0.53909 0.38746 0.0
H419 H 0.9314 0.59946 0.38907 0.0
H420 H 0.96935 0.48141 0.41249 0.0
H421 H 0.00901 0.50512 0.46498 0.0
H422 H 0.03549 0.45164 0.48822 0.0
H423 H 0.06332 0.39288 0.48555 0.0
C424 C 0.58441 0.0387 0.61999 0.0
C425 C 0.60268 0.0503 0.59634 0.0
C426 C 0.55077 0.02328 0.61775 0.0
C427 C 0.53482 0.01861 0.59171 0.0
C428 C 0.55192 0.03247 0.56826 0.0
C429 C 0.58568 0.04816 0.57052 0.0
C430 C 0.50044 -0.00055 0.58864 0.0
C431 C 0.49032 0.97355 0.60624 0.0
C432 C 0.45465 0.95683 0.60554 0.0
C433 C 0.43868 0.94741 0.63066 0.0
C434 C 0.40371 0.93486 0.63127 0.0
C435 C 0.3844 0.93061 0.60665 0.0
H436 H 0.44808 0.95703 0.56099 0.0
C437 C 0.40119 0.93767 0.58131 0.0
C438 C 0.43602 0.95096 0.58074 0.0
H439 H 0.38684 0.93461 0.56203 0.0
H440 H 0.59653 0.04067 0.64025 0.0
H441 H 0.5376 0.01473 0.63648 0.0
H442 H 0.5398 0.02988 0.54805 0.0
H443 H 0.59911 0.05698 0.55195 0.0
H444 H 0.48323 0.00692 0.57154 0.0
H445 H 0.50772 0.96588 0.62315 0.0
H446 H 0.45272 0.9513 0.65 0.0
H447 H 0.39144 0.92939 0.65107 0.0
C448 C 0.51795 0.09212 0.917 0.0
C449 C 0.54317 0.10315 0.9367 0.0
C450 C 0.50392 0.0578 0.91771 0.0
C451 C 0.51515 0.03341 0.93796 0.0
C452 C 0.54086 0.04417 0.95736 0.0
C453 C 0.55489 0.07869 0.95669 0.0
C454 C 0.4993 -0.00269 0.94017 0.0
C455 C 0.48406 0.98049 0.91863 0.0
C456 C 0.46846 0.94441 0.92076 0.0
C457 C 0.46926 0.92228 0.89749 0.0
C458 C 0.45638 0.88751 0.89901 0.0
C459 C 0.44182 0.8744 0.92373 0.0
H460 H 0.4505 0.94872 0.96326 0.0
C461 C 0.43929 0.89714 0.94666 0.0
C462 C 0.45261 0.93186 0.94522 0.0
H463 H 0.42807 0.88778 0.96595 0.0
H464 H 0.50809 0.11036 0.90144 0.0
H465 H 0.48338 0.05108 0.90291 0.0
H466 H 0.54981 0.02595 0.97326 0.0
H467 H 0.57412 0.08644 0.97227 0.0
H468 H 0.50147 0.98372 0.95991 0.0
H469 H 0.48507 -0.00765 0.8982 0.0
H470 H 0.48084 0.93156 0.8783 0.0
H471 H 0.45839 0.8707 0.88091 0.0
C472 C 0.08457 0.43517 0.0996 0.0
C473 C 0.10559 0.43382 0.12358 0.0
C474 C 0.04958 0.44774 0.10089 0.0
C475 C 0.03503 0.45851 0.12627 0.0
C476 C 0.05522 0.45476 0.15044 0.0
C477 C 0.09041 0.44301 0.14908 0.0
C478 C -0.00078 0.47457 0.12812 0.0
C479 C 0.9874 0.49837 0.10943 0.0
C480 C 0.95228 0.5164 0.11131 0.0
C481 C 0.93793 0.53216 0.08746 0.0
C482 C 0.9039 0.54725 0.08787 0.0
C483 C 0.8836 0.54679 0.11221 0.0
H484 H 0.94339 0.50807 0.15532 0.0
C485 C 0.89877 0.53298 0.13646 0.0
C486 C 0.93282 0.5182 0.13611 0.0
H487 H 0.88399 0.53282 0.15566 0.0
H488 H 0.09571 0.42828 0.07968 0.0
H489 H 0.03415 0.44951 0.08203 0.0
H490 H 0.04431 0.4625 0.17025 0.0
H491 H 0.10607 0.442 0.16788 0.0
H492 H 0.9835 0.46792 0.14617 0.0
H493 H 0.00405 0.5047 0.09173 0.0
H494 H 0.95258 0.53176 0.06819 0.0
H495 H 0.89294 0.55776 0.06885 0.0
loop_
_geom_bond_atom_site_label_1
_geom_bond_atom_site_label_2
_geom_bond_distance
_geom_bond_site_symmetry_2
_ccdc_geom_bond_type
O0 Cd1 2.223 . S
O0 C8 1.315 . S
Cd1 O0 2.223 . S
Cd1 O4 2.297 . S
Cd1 O5 2.439 . S
Cd1 O11 2.240 . S
Cd2 O3 2.240 . S
Cd2 O10 2.223 . S
Cd2 O12 2.297 . S
Cd2 O13 2.439 . S
O3 Cd2 2.240 . S
O3 C8 1.279 . S
O4 Cd1 2.297 . S
O4 C6 1.247 . S
O5 Cd1 2.439 . S
O5 C6 1.208 . S
C6 O4 1.247 . S
C6 O5 1.208 . S
C7 O12 1.247 . S
C7 O13 1.208 . S
C8 O0 1.315 . S
C8 O3 1.279 . S
C9 O10 1.315 . S
C9 O11 1.279 . S
O10 Cd2 2.223 . S
O10 C9 1.315 . S
O11 Cd1 2.240 . S
O11 C9 1.279 . S
O12 Cd2 2.297 . S
O12 C7 1.247 . S
O13 Cd2 2.439 . S
O13 C7 1.208 . S
O14 Cd15 2.223 . S
O14 C22 1.315 . S
Cd15 O14 2.223 . S
Cd15 O18 2.297 . S
Cd15 O19 2.439 . S
Cd15 O25 2.240 . S
Cd16 O17 2.240 . S
Cd16 O24 2.223 . S
Cd16 O26 2.297 . S
Cd16 O27 2.439 . S
O17 Cd16 2.240 . S
O17 C22 1.279 . S
O18 Cd15 2.297 . S
O18 C20 1.247 . S
O19 Cd15 2.439 . S
O19 C20 1.208 . S
C20 O18 1.247 . S
C20 O19 1.208 . S
C21 O26 1.247 . S
C21 O27 1.208 . S
C22 O14 1.315 . S
C22 O17 1.279 . S
C23 O24 1.315 . S
C23 O25 1.279 . S
O24 Cd16 2.223 . S
O24 C23 1.315 . S
O25 Cd15 2.240 . S
O25 C23 1.279 . S
O26 Cd16 2.297 . S
O26 C21 1.247 . S
O27 Cd16 2.439 . S
O27 C21 1.208 . S
O28 Cd29 2.223 . S
O28 C36 1.315 . S
Cd29 O28 2.223 . S
Cd29 O32 2.297 . S
Cd29 O33 2.439 . S
Cd29 O39 2.240 . S
Cd30 O31 2.240 . S
Cd30 O38 2.223 . S
Cd30 O40 2.297 . S
Cd30 O41 2.439 . S
O31 Cd30 2.240 . S
O31 C36 1.279 . S
O32 Cd29 2.297 . S
O32 C34 1.247 . S
O33 Cd29 2.439 . S
O33 C34 1.208 . S
C34 O32 1.247 . S
C34 O33 1.208 . S
C35 O40 1.247 . S
C35 O41 1.208 . S
C36 O28 1.315 . S
C36 O31 1.279 . S
C37 O38 1.315 . S
C37 O39 1.279 . S
O38 Cd30 2.223 . S
O38 C37 1.315 . S
O39 Cd29 2.240 . S
O39 C37 1.279 . S
O40 Cd30 2.297 . S
O40 C35 1.247 . S
O41 Cd30 2.439 . S
O41 C35 1.208 . S
O42 Cd43 2.223 . S
O42 C50 1.315 . S
Cd43 O42 2.223 . S
Cd43 O46 2.297 . S
Cd43 O47 2.439 . S
Cd43 O53 2.240 . S
Cd44 O45 2.240 . S
Cd44 O52 2.223 . S
Cd44 O54 2.297 . S
Cd44 O55 2.439 . S
O45 Cd44 2.240 . S
O45 C50 1.279 . S
O46 Cd43 2.297 . S
O46 C48 1.247 . S
O47 Cd43 2.439 . S
O47 C48 1.208 . S
C48 O46 1.247 . S
C48 O47 1.208 . S
C49 O54 1.247 . S
C49 O55 1.208 . S
C50 O42 1.315 . S
C50 O45 1.279 . S
C51 O52 1.315 . S
C51 O53 1.279 . S
O52 Cd44 2.223 . S
O52 C51 1.315 . S
O53 Cd43 2.240 . S
O53 C51 1.279 . S
O54 Cd44 2.297 . S
O54 C49 1.247 . S
O55 Cd44 2.439 . S
O55 C49 1.208 . S
O56 Cd57 2.223 . S
O56 C64 1.315 . S
Cd57 O56 2.223 . S
Cd57 O60 2.297 . S
Cd57 O61 2.439 . S
Cd57 O67 2.240 . S
Cd58 O59 2.240 . S
Cd58 O66 2.223 . S
Cd58 O68 2.297 . S
Cd58 O69 2.439 . S
O59 Cd58 2.240 . S
O59 C64 1.279 . S
O60 Cd57 2.297 . S
O60 C62 1.247 . S
O61 Cd57 2.439 . S
O61 C62 1.208 . S
C62 O60 1.247 . S
C62 O61 1.208 . S
C63 O68 1.247 . S
C63 O69 1.208 . S
C64 O56 1.315 . S
C64 O59 1.279 . S
C65 O66 1.315 . S
C65 O67 1.279 . S
O66 Cd58 2.223 . S
O66 C65 1.315 . S
O67 Cd57 2.240 . S
O67 C65 1.279 . S
O68 Cd58 2.297 . S
O68 C63 1.247 . S
O69 Cd58 2.439 . S
O69 C63 1.208 . S
O70 Cd71 2.223 . S
O70 C78 1.315 . S
Cd71 O70 2.223 . S
Cd71 O74 2.297 . S
Cd71 O75 2.439 . S
Cd71 O81 2.240 . S
Cd72 O73 2.240 . S
Cd72 O80 2.223 . S
Cd72 O82 2.297 . S
Cd72 O83 2.439 . S
O73 Cd72 2.240 . S
O73 C78 1.279 . S
O74 Cd71 2.297 . S
O74 C76 1.247 . S
O75 Cd71 2.439 . S
O75 C76 1.208 . S
C76 O74 1.247 . S
C76 O75 1.208 . S
C77 O82 1.247 . S
C77 O83 1.208 . S
C78 O70 1.315 . S
C78 O73 1.279 . S
C79 O80 1.315 . S
C79 O81 1.279 . S
O80 Cd72 2.223 . S
O80 C79 1.315 . S
O81 Cd71 2.240 . S
O81 C79 1.279 . S
O82 Cd72 2.297 . S
O82 C77 1.247 . S
O83 Cd72 2.439 . S
O83 C77 1.208 . S
O84 Cd85 2.223 . S
O84 C92 1.315 . S
Cd85 O84 2.223 . S
Cd85 O88 2.297 . S
Cd85 O89 2.439 . S
Cd85 O95 2.240 . S
Cd86 O87 2.240 . S
Cd86 O94 2.223 . S
Cd86 O96 2.297 . S
Cd86 O97 2.439 . S
O87 Cd86 2.240 . S
O87 C92 1.279 . S
O88 Cd85 2.297 . S
O88 C90 1.247 . S
O89 Cd85 2.439 . S
O89 C90 1.208 . S
C90 O88 1.247 . S
C90 O89 1.208 . S
C91 O96 1.247 . S
C91 O97 1.208 . S
C92 O84 1.315 . S
C92 O87 1.279 . S
C93 O94 1.315 . S
C93 O95 1.279 . S
O94 Cd86 2.223 . S
O94 C93 1.315 . S
O95 Cd85 2.240 . S
O95 C93 1.279 . S
O96 Cd86 2.297 . S
O96 C91 1.247 . S
O97 Cd86 2.439 . S
O97 C91 1.208 . S
O98 Cd99 2.223 . S
O98 C106 1.315 . S
Cd99 O98 2.223 . S
Cd99 O102 2.297 . S
Cd99 O103 2.439 . S
Cd99 O109 2.240 . S
Cd100 O101 2.240 . S
Cd100 O108 2.223 . S
Cd100 O110 2.297 . S
Cd100 O111 2.439 . S
O101 Cd100 2.240 . S
O101 C106 1.279 . S
O102 Cd99 2.297 . S
O102 C104 1.247 . S
O103 Cd99 2.439 . S
O103 C104 1.208 . S
C104 O102 1.247 . S
C104 O103 1.208 . S
C105 O110 1.247 . S
C105 O111 1.208 . S
C106 O98 1.315 . S
C106 O101 1.279 . S
C107 O108 1.315 . S
C107 O109 1.279 . S
O108 Cd100 2.223 . S
O108 C107 1.315 . S
O109 Cd99 2.240 . S
O109 C107 1.279 . S
O110 Cd100 2.297 . S
O110 C105 1.247 . S
O111 Cd100 2.439 . S
O111 C105 1.208 . S
C112 C113 1.386 . S
C112 C114 1.383 . S
C112 H128 0.951 . S
C113 C112 1.386 . S
C113 C117 1.383 . S
C114 C112 1.383 . S
C114 C115 1.402 . S
C114 H129 0.951 . S
C115 C114 1.402 . S
C115 C116 1.375 . S
C115 C118 1.481 . S
C116 C115 1.375 . S
C116 C117 1.367 . S
C116 H130 0.951 . S
C117 C113 1.383 . S
C117 C116 1.367 . S
C117 H131 0.950 . S
C118 C115 1.481 . S
C118 C119 1.297 . S
C118 H132 0.950 . S
C119 C118 1.297 . S
C119 C120 1.479 . S
C119 H133 0.950 . S
C120 C119 1.479 . S
C120 C121 1.375 . S
C120 C126 1.404 . S
C121 C120 1.375 . S
C121 C122 1.369 . S
C121 H134 0.950 . S
C122 C121 1.369 . S
C122 C123 1.392 . S
C122 H135 0.951 . S
C123 C122 1.392 . S
C123 C125 1.384 . S
H124 C126 0.949 . S
C125 C123 1.384 . S
C125 C126 1.385 . S
C125 H127 0.950 . S
C126 C120 1.404 . S
C126 H124 0.949 . S
C126 C125 1.385 . S
H127 C125 0.950 . S
H128 C112 0.951 . S
H129 C114 0.951 . S
H130 C116 0.951 . S
H131 C117 0.950 . S
H132 C118 0.950 . S
H133 C119 0.950 . S
H134 C121 0.950 . S
H135 C122 0.951 . S
C136 C137 1.386 . S
C136 C138 1.383 . S
C136 H152 0.951 . S
C137 C136 1.386 . S
C137 C141 1.383 . S
C138 C136 1.383 . S
C138 C139 1.402 . S
C138 H153 0.951 . S
C139 C138 1.402 . S
C139 C140 1.375 . S
C139 C142 1.481 . S
C140 C139 1.375 . S
C140 C141 1.367 . S
C140 H154 0.951 . S
C141 C137 1.383 . S
C141 C140 1.367 . S
C141 H155 0.950 . S
C142 C139 1.481 . S
C142 C143 1.297 . S
C142 H156 0.950 . S
C143 C142 1.297 . S
C143 C144 1.479 . S
C143 H157 0.950 . S
C144 C143 1.479 . S
C144 C145 1.375 . S
C144 C150 1.404 . S
C145 C144 1.375 . S
C145 C146 1.369 . S
C145 H158 0.950 . S
C146 C145 1.369 . S
C146 C147 1.392 . S
C146 H159 0.951 . S
C147 C146 1.392 . S
C147 C149 1.384 . S
H148 C150 0.949 . S
C149 C147 1.384 . S
C149 C150 1.385 . S
C149 H151 0.950 . S
C150 C144 1.404 . S
C150 H148 0.949 . S
C150 C149 1.385 . S
H151 C149 0.950 . S
H152 C136 0.951 . S
H153 C138 0.951 . S
H154 C140 0.951 . S
H155 C141 0.950 . S
H156 C142 0.950 . S
H157 C143 0.950 . S
H158 C145 0.950 . S
H159 C146 0.951 . S
C160 C161 1.386 . S
C160 C162 1.383 . S
C160 H176 0.951 . S
C161 C160 1.386 . S
C161 C165 1.383 . S
C162 C160 1.383 . S
C162 C163 1.402 . S
C162 H177 0.951 . S
C163 C162 1.402 . S
C163 C164 1.375 . S
C163 C166 1.481 . S
C164 C163 1.375 . S
C164 C165 1.367 . S
C164 H178 0.951 . S
C165 C161 1.383 . S
C165 C164 1.367 . S
C165 H179 0.950 . S
C166 C163 1.481 . S
C166 C167 1.297 . S
C166 H180 0.950 . S
C167 C166 1.297 . S
C167 C168 1.479 . S
C167 H181 0.950 . S
C168 C167 1.479 . S
C168 C169 1.375 . S
C168 C174 1.404 . S
C169 C168 1.375 . S
C169 C170 1.369 . S
C169 H182 0.950 . S
C170 C169 1.369 . S
C170 C171 1.392 . S
C170 H183 0.951 . S
C171 C170 1.392 . S
C171 C173 1.384 . S
H172 C174 0.949 . S
C173 C171 1.384 . S
C173 C174 1.385 . S
C173 H175 0.950 . S
C174 C168 1.404 . S
C174 H172 0.949 . S
C174 C173 1.385 . S
H175 C173 0.950 . S
H176 C160 0.951 . S
H177 C162 0.951 . S
H178 C164 0.951 . S
H179 C165 0.950 . S
H180 C166 0.950 . S
H181 C167 0.950 . S
H182 C169 0.950 . S
H183 C170 0.951 . S
C184 C185 1.386 . S
C184 C186 1.383 . S
C184 H200 0.951 . S
C185 C184 1.386 . S
C185 C189 1.383 . S
C186 C184 1.383 . S
C186 C187 1.402 . S
C186 H201 0.951 . S
C187 C186 1.402 . S
C187 C188 1.375 . S
C187 C190 1.481 . S
C188 C187 1.375 . S
C188 C189 1.367 . S
C188 H202 0.951 . S
C189 C185 1.383 . S
C189 C188 1.367 . S
C189 H203 0.950 . S
C190 C187 1.481 . S
C190 C191 1.297 . S
C190 H204 0.950 . S
C191 C190 1.297 . S
C191 C192 1.479 . S
C191 H205 0.950 . S
C192 C191 1.479 . S
C192 C193 1.375 . S
C192 C198 1.404 . S
C193 C192 1.375 . S
C193 C194 1.369 . S
C193 H206 0.950 . S
C194 C193 1.369 . S
C194 C195 1.392 . S
C194 H207 0.951 . S
C195 C194 1.392 . S
C195 C197 1.384 . S
H196 C198 0.949 . S
C197 C195 1.384 . S
C197 C198 1.385 . S
C197 H199 0.950 . S
C198 C192 1.404 . S
C198 H196 0.949 . S
C198 C197 1.385 . S
H199 C197 0.950 . S
H200 C184 0.951 . S
H201 C186 0.951 . S
H202 C188 0.951 . S
H203 C189 0.950 . S
H204 C190 0.950 . S
H205 C191 0.950 . S
H206 C193 0.950 . S
H207 C194 0.951 . S
C208 C209 1.386 . S
C208 C210 1.383 1_565 S
C208 H224 0.951 . S
C209 C208 1.386 . S
C209 C213 1.383 1_565 S
C210 C208 1.383 1_545 S
C210 C211 1.402 . S
C210 H225 0.951 . S
C211 C210 1.402 . S
C211 C212 1.375 . S
C211 C214 1.481 . S
C212 C211 1.375 . S
C212 C213 1.367 . S
C212 H226 0.951 . S
C213 C209 1.383 1_545 S
C213 C212 1.367 . S
C213 H227 0.950 . S
C214 C211 1.481 . S
C214 C215 1.297 . S
C214 H228 0.950 . S
C215 C214 1.297 . S
C215 C216 1.479 . S
C215 H229 0.950 . S
C216 C215 1.479 . S
C216 C217 1.375 . S
C216 C222 1.404 . S
C217 C216 1.375 . S
C217 C218 1.369 . S
C217 H230 0.950 . S
C218 C217 1.369 . S
C218 C219 1.392 . S
C218 H231 0.951 . S
C219 C218 1.392 . S
C219 C221 1.384 . S
H220 C222 0.949 . S
C221 C219 1.384 . S
C221 C222 1.385 . S
C221 H223 0.950 . S
C222 C216 1.404 . S
C222 H220 0.949 . S
C222 C221 1.385 . S
H223 C221 0.950 . S
H224 C208 0.951 . S
H225 C210 0.951 . S
H226 C212 0.951 . S
H227 C213 0.950 . S
H228 C214 0.950 . S
H229 C215 0.950 . S
H230 C217 0.950 . S
H231 C218 0.951 . S
C232 C233 1.386 . S
C232 C234 1.383 . S
C232 H248 0.951 . S
C233 C232 1.386 . S
C233 C237 1.383 . S
C234 C232 1.383 . S
C234 C235 1.402 . S
C234 H249 0.951 . S
C235 C234 1.402 . S
C235 C236 1.375 . S
C235 C238 1.481 . S
C236 C235 1.375 . S
C236 C237 1.367 . S
C236 H250 0.951 . S
C237 C233 1.383 . S
C237 C236 1.367 . S
C237 H251 0.950 . S
C238 C235 1.481 . S
C238 C239 1.297 . S
C238 H252 0.950 . S
C239 C238 1.297 . S
C239 C240 1.479 . S
C239 H253 0.950 . S
C240 C239 1.479 . S
C240 C241 1.375 . S
C240 C246 1.404 . S
C241 C240 1.375 . S
C241 C242 1.369 . S
C241 H254 0.950 . S
C242 C241 1.369 . S
C242 C243 1.392 1_455 S
C242 H255 0.951 . S
C243 C242 1.392 1_655 S
C243 C245 1.384 . S
H244 C246 0.949 . S
C245 C243 1.384 . S
C245 C246 1.385 1_655 S
C245 H247 0.950 . S
C246 C240 1.404 . S
C246 H244 0.949 . S
C246 C245 1.385 1_455 S
H247 C245 0.950 . S
H248 C232 0.951 . S
H249 C234 0.951 . S
H250 C236 0.951 . S
H251 C237 0.950 . S
H252 C238 0.950 . S
H253 C239 0.950 . S
H254 C241 0.950 . S
H255 C242 0.951 . S
C256 C257 1.386 1_565 S
C256 C258 1.383 . S
C256 H272 0.951 . S
C257 C256 1.386 1_545 S
C257 C261 1.383 . S
C258 C256 1.383 . S
C258 C259 1.402 . S
C258 H273 0.951 . S
C259 C258 1.402 . S
C259 C260 1.375 . S
C259 C262 1.481 . S
C260 C259 1.375 . S
C260 C261 1.367 1_565 S
C260 H274 0.951 . S
C261 C257 1.383 . S
C261 C260 1.367 1_545 S
C261 H275 0.950 . S
C262 C259 1.481 . S
C262 C263 1.297 . S
C262 H276 0.950 . S
C263 C262 1.297 . S
C263 C264 1.479 . S
C263 H277 0.950 . S
C264 C263 1.479 . S
C264 C265 1.375 . S
C264 C270 1.404 . S
C265 C264 1.375 . S
C265 C266 1.369 . S
C265 H278 0.950 . S
C266 C265 1.369 . S
C266 C267 1.392 . S
C266 H279 0.951 . S
C267 C266 1.392 . S
C267 C269 1.384 . S
H268 C270 0.949 . S
C269 C267 1.384 . S
C269 C270 1.385 . S
C269 H271 0.950 . S
C270 C264 1.404 . S
C270 H268 0.949 . S
C270 C269 1.385 . S
H271 C269 0.950 . S
H272 C256 0.951 . S
H273 C258 0.951 . S
H274 C260 0.951 . S
H275 C261 0.950 . S
H276 C262 0.950 . S
H277 C263 0.950 . S
H278 C265 0.950 . S
H279 C266 0.951 . S
C280 C281 1.386 . S
C280 C282 1.383 . S
C280 H296 0.951 . S
C281 C280 1.386 . S
C281 C285 1.383 . S
C282 C280 1.383 . S
C282 C283 1.402 . S
C282 H297 0.951 . S
C283 C282 1.402 . S
C283 C284 1.375 . S
C283 C286 1.481 . S
C284 C283 1.375 . S
C284 C285 1.367 . S
C284 H298 0.951 . S
C285 C281 1.383 . S
C285 C284 1.367 . S
C285 H299 0.950 . S
C286 C283 1.481 . S
C286 C287 1.297 . S
C286 H300 0.950 . S
C287 C286 1.297 . S
C287 C288 1.479 . S
C287 H301 0.950 . S
C288 C287 1.479 . S
C288 C289 1.375 . S
C288 C294 1.404 . S
C289 C288 1.375 . S
C289 C290 1.369 . S
C289 H302 0.950 . S
C290 C289 1.369 . S
C290 C291 1.392 1_655 S
C290 H303 0.951 1_655 S
C291 C290 1.392 1_455 S
C291 C293 1.384 1_455 S
H292 C294 0.949 . S
C293 C291 1.384 1_655 S
C293 C294 1.385 . S
C293 H295 0.950 1_655 S
C294 C288 1.404 . S
C294 H292 0.949 . S
C294 C293 1.385 . S
H295 C293 0.950 1_455 S
H296 C280 0.951 . S
H297 C282 0.951 . S
H298 C284 0.951 . S
H299 C285 0.950 . S
H300 C286 0.950 . S
H301 C287 0.950 . S
H302 C289 0.950 . S
H303 C290 0.951 1_455 S
C304 C305 1.386 . S
C304 C306 1.383 . S
C304 H320 0.951 . S
C305 C304 1.386 . S
C305 C309 1.383 . S
C306 C304 1.383 . S
C306 C307 1.402 . S
C306 H321 0.951 . S
C307 C306 1.402 . S
C307 C308 1.375 1_554 S
C307 C310 1.481 1_554 S
C308 C307 1.375 1_556 S
C308 C309 1.367 1_556 S
C308 H322 0.951 . S
C309 C305 1.383 . S
C309 C308 1.367 1_554 S
C309 H323 0.950 1_554 S
C310 C307 1.481 1_556 S
C310 C311 1.297 1_556 S
C310 H324 0.950 . S
C311 C310 1.297 1_554 S
C311 C312 1.479 1_554 S
C311 H325 0.950 . S
C312 C311 1.479 1_556 S
C312 C313 1.375 1_556 S
C312 C318 1.404 . S
C313 C312 1.375 1_554 S
C313 C314 1.369 . S
C313 H326 0.950 . S
C314 C313 1.369 . S
C314 C315 1.392 1_554 S
C314 H327 0.951 . S
C315 C314 1.392 1_556 S
C315 C317 1.384 . S
H316 C318 0.949 . S
C317 C315 1.384 . S
C317 C318 1.385 . S
C317 H319 0.950 . S
C318 C312 1.404 . S
C318 H316 0.949 . S
C318 C317 1.385 . S
H319 C317 0.950 . S
H320 C304 0.951 . S
H321 C306 0.951 . S
H322 C308 0.951 . S
H323 C309 0.950 1_556 S
H324 C310 0.950 . S
H325 C311 0.950 . S
H326 C313 0.950 . S
H327 C314 0.951 . S
C328 C329 1.386 . S
C328 C330 1.383 . S
C328 H344 0.951 . S
C329 C328 1.386 . S
C329 C333 1.383 1_554 S
C330 C328 1.383 . S
C330 C331 1.402 . S
C330 H345 0.951 . S
C331 C330 1.402 . S
C331 C332 1.375 1_554 S
C331 C334 1.481 1_554 S
C332 C331 1.375 1_556 S
C332 C333 1.367 . S
C332 H346 0.951 . S
C333 C329 1.383 1_556 S
C333 C332 1.367 . S
C333 H347 0.950 . S
C334 C331 1.481 1_556 S
C334 C335 1.297 1_556 S
C334 H348 0.950 . S
C335 C334 1.297 1_554 S
C335 C336 1.479 1_554 S
C335 H349 0.950 . S
C336 C335 1.479 1_556 S
C336 C337 1.375 1_556 S
C336 C342 1.404 . S
C337 C336 1.375 1_554 S
C337 C338 1.369 1_554 S
C337 H350 0.950 . S
C338 C337 1.369 1_556 S
C338 C339 1.392 . S
C338 H351 0.951 1_556 S
C339 C338 1.392 . S
C339 C341 1.384 . S
H340 C342 0.949 . S
C341 C339 1.384 . S
C341 C342 1.385 . S
C341 H343 0.950 . S
C342 C336 1.404 . S
C342 H340 0.949 . S
C342 C341 1.385 . S
H343 C341 0.950 . S
H344 C328 0.951 . S
H345 C330 0.951 . S
H346 C332 0.951 . S
H347 C333 0.950 . S
H348 C334 0.950 . S
H349 C335 0.950 . S
H350 C337 0.950 . S
H351 C338 0.951 1_554 S
C352 C353 1.386 . S
C352 C354 1.383 . S
C352 H368 0.951 . S
C353 C352 1.386 . S
C353 C357 1.383 . S
C354 C352 1.383 . S
C354 C355 1.402 . S
C354 H369 0.951 1_554 S
C355 C354 1.402 . S
C355 C356 1.375 . S
C355 C358 1.481 . S
C356 C355 1.375 . S
C356 C357 1.367 . S
C356 H370 0.951 . S
C357 C353 1.383 . S
C357 C356 1.367 . S
C357 H371 0.950 . S
C358 C355 1.481 . S
C358 C359 1.297 . S
C358 H372 0.950 . S
C359 C358 1.297 . S
C359 C360 1.479 1_554 S
C359 H373 0.950 1_554 S
C360 C359 1.479 1_556 S
C360 C361 1.375 . S
C360 C366 1.404 1_556 S
C361 C360 1.375 . S
C361 C362 1.369 . S
C361 H374 0.950 . S
C362 C361 1.369 . S
C362 C363 1.392 . S
C362 H375 0.951 . S
C363 C362 1.392 . S
C363 C365 1.384 1_556 S
H364 C366 0.949 . S
C365 C363 1.384 1_554 S
C365 C366 1.385 . S
C365 H367 0.950 . S
C366 C360 1.404 1_554 S
C366 H364 0.949 . S
C366 C365 1.385 . S
H367 C365 0.950 . S
H368 C352 0.951 . S
H369 C354 0.951 1_556 S
H370 C356 0.951 . S
H371 C357 0.950 . S
H372 C358 0.950 . S
H373 C359 0.950 1_556 S
H374 C361 0.950 . S
H375 C362 0.951 . S
C376 C377 1.386 . S
C376 C378 1.383 . S
C376 H392 0.951 . S
C377 C376 1.386 . S
C377 C381 1.383 . S
C378 C376 1.383 . S
C378 C379 1.402 . S
C378 H393 0.951 . S
C379 C378 1.402 . S
C379 C380 1.375 . S
C379 C382 1.477 1_556 S
C380 C379 1.375 . S
C380 C381 1.367 . S
C380 H394 0.951 . S
C381 C377 1.383 . S
C381 C380 1.367 . S
C381 H395 0.950 . S
C382 C379 1.477 1_554 S
C382 C383 1.302 . S
C382 H396 0.950 1_554 S
C383 C382 1.302 . S
C383 C384 1.479 . S
C383 H397 0.950 . S
C384 C383 1.479 . S
C384 C385 1.375 . S
C384 C390 1.404 . S
C385 C384 1.375 . S
C385 C386 1.369 . S
C385 H398 0.950 . S
C386 C385 1.369 . S
C386 C387 1.392 . S
C386 H399 0.951 . S
C387 C386 1.392 . S
C387 C389 1.384 . S
H388 C390 0.949 . S
C389 C387 1.384 . S
C389 C390 1.385 . S
C389 H391 0.950 . S
C390 C384 1.404 . S
C390 H388 0.949 . S
C390 C389 1.385 . S
H391 C389 0.950 . S
H392 C376 0.951 . S
H393 C378 0.951 . S
H394 C380 0.951 . S
H395 C381 0.950 . S
H396 C382 0.950 1_556 S
H397 C383 0.950 . S
H398 C385 0.950 . S
H399 C386 0.951 . S
C400 C401 1.386 . S
C400 C402 1.383 . S
C400 H416 0.951 . S
C401 C400 1.386 . S
C401 C405 1.383 . S
C402 C400 1.383 . S
C402 C403 1.402 . S
C402 H417 0.951 . S
C403 C402 1.402 . S
C403 C404 1.375 . S
C403 C406 1.481 . S
C404 C403 1.375 . S
C404 C405 1.367 . S
C404 H418 0.951 1_655 S
C405 C401 1.383 . S
C405 C404 1.367 . S
C405 H419 0.950 . S
C406 C403 1.481 . S
C406 C407 1.297 . S
C406 H420 0.950 1_655 S
C407 C406 1.297 . S
C407 C408 1.479 1_655 S
C407 H421 0.950 . S
C408 C407 1.479 1_455 S
C408 C409 1.375 . S
C408 C414 1.404 . S
C409 C408 1.375 . S
C409 C410 1.369 . S
C409 H422 0.950 1_455 S
C410 C409 1.369 . S
C410 C411 1.392 . S
C410 H423 0.951 . S
C411 C410 1.392 . S
C411 C413 1.384 . S
H412 C414 0.949 . S
C413 C411 1.384 . S
C413 C414 1.385 . S
C413 H415 0.950 . S
C414 C408 1.404 . S
C414 H412 0.949 . S
C414 C413 1.385 . S
H415 C413 0.950 . S
H416 C400 0.951 . S
H417 C402 0.951 . S
H418 C404 0.951 1_455 S
H419 C405 0.950 . S
H420 C406 0.950 1_455 S
H421 C407 0.950 . S
H422 C409 0.950 1_655 S
H423 C410 0.951 . S
C424 C425 1.386 . S
C424 C426 1.383 . S
C424 H440 0.951 . S
C425 C424 1.386 . S
C425 C429 1.383 . S
C426 C424 1.383 . S
C426 C427 1.402 . S
C426 H441 0.951 . S
C427 C426 1.402 . S
C427 C428 1.375 . S
C427 C430 1.481 . S
C428 C427 1.375 . S
C428 C429 1.367 . S
C428 H442 0.951 . S
C429 C425 1.383 . S
C429 C428 1.367 . S
C429 H443 0.950 . S
C430 C427 1.481 . S
C430 C431 1.297 . S
C430 H444 0.950 1_545 S
C431 C430 1.297 . S
C431 C432 1.479 1_545 S
C431 H445 0.950 . S
C432 C431 1.479 1_565 S
C432 C433 1.375 . S
C432 C438 1.404 . S
C433 C432 1.375 . S
C433 C434 1.369 . S
C433 H446 0.950 1_565 S
C434 C433 1.369 . S
C434 C435 1.392 . S
C434 H447 0.951 . S
C435 C434 1.392 . S
C435 C437 1.384 . S
H436 C438 0.949 . S
C437 C435 1.384 . S
C437 C438 1.385 . S
C437 H439 0.950 . S
C438 C432 1.404 . S
C438 H436 0.949 . S
C438 C437 1.385 . S
H439 C437 0.950 . S
H440 C424 0.951 . S
H441 C426 0.951 . S
H442 C428 0.951 . S
H443 C429 0.950 . S
H444 C430 0.950 1_565 S
H445 C431 0.950 . S
H446 C433 0.950 1_545 S
H447 C434 0.951 . S
C448 C449 1.386 . S
C448 C450 1.383 . S
C448 H464 0.951 . S
C449 C448 1.386 . S
C449 C453 1.383 . S
C450 C448 1.383 . S
C450 C451 1.402 . S
C450 H465 0.951 . S
C451 C450 1.402 . S
C451 C452 1.375 . S
C451 C454 1.471 1_545 S
C452 C451 1.375 . S
C452 C453 1.367 . S
C452 H466 0.951 . S
C453 C449 1.383 . S
C453 C452 1.367 . S
C453 H467 0.950 . S
C454 C451 1.471 1_565 S
C454 C455 1.299 . S
C454 H468 0.959 . S
C455 C454 1.299 . S
C455 C456 1.479 . S
C455 H469 0.950 1_565 S
C456 C455 1.479 . S
C456 C457 1.375 . S
C456 C462 1.404 . S
C457 C456 1.375 . S
C457 C458 1.369 . S
C457 H470 0.950 . S
C458 C457 1.369 . S
C458 C459 1.392 . S
C458 H471 0.951 . S
C459 C458 1.392 . S
C459 C461 1.384 . S
H460 C462 0.949 . S
C461 C459 1.384 . S
C461 C462 1.385 . S
C461 H463 0.950 . S
C462 C456 1.404 . S
C462 H460 0.949 . S
C462 C461 1.385 . S
H463 C461 0.950 . S
H464 C448 0.951 . S
H465 C450 0.951 . S
H466 C452 0.951 . S
H467 C453 0.950 . S
H468 C454 0.959 . S
H469 C455 0.950 1_545 S
H470 C457 0.950 . S
H471 C458 0.951 . S
C472 C473 1.386 . S
C472 C474 1.383 . S
C472 H488 0.951 . S
C473 C472 1.386 . S
C473 C477 1.383 . S
C474 C472 1.383 . S
C474 C475 1.402 . S
C474 H489 0.951 . S
C475 C474 1.402 . S
C475 C476 1.375 . S
C475 C478 1.481 . S
C476 C475 1.375 . S
C476 C477 1.367 . S
C476 H490 0.951 . S
C477 C473 1.383 . S
C477 C476 1.367 . S
C477 H491 0.950 . S
C478 C475 1.481 . S
C478 C479 1.297 1_455 S
C478 H492 0.950 . S
C479 C478 1.297 1_655 S
C479 C480 1.479 . S
C479 H493 0.950 . S
C480 C479 1.479 . S
C480 C481 1.375 . S
C480 C486 1.404 . S
C481 C480 1.375 . S
C481 C482 1.369 . S
C481 H494 0.950 . S
C482 C481 1.369 . S
C482 C483 1.392 . S
C482 H495 0.951 . S
C483 C482 1.392 . S
C483 C485 1.384 . S
H484 C486 0.949 . S
C485 C483 1.384 . S
C485 C486 1.385 . S
C485 H487 0.950 . S
C486 C480 1.404 . S
C486 H484 0.949 . S
C486 C485 1.385 . S
H487 C485 0.950 . S
H488 C472 0.951 . S
H489 C474 0.951 . S
H490 C476 0.951 . S
H491 C477 0.950 . S
H492 C478 0.950 . S
H493 C479 0.950 . S
H494 C481 0.950 . S
H495 C482 0.951 . S
C113 C105 1.571 . S
C123 C7 1.568 . S
C137 C21 1.540 . S
C147 C63 1.541 . S
C161 C35 1.564 . S
C171 C77 1.579 . S
C185 C91 1.572 . S
C195 C49 1.530 . S
C209 C22 1.483 . S
C219 C6 1.432 . S
C233 C20 1.473 . S
C243 C36 1.461 . S
C257 C50 1.461 . S
C267 C34 1.484 . S
C281 C48 1.479 . S
C291 C8 1.483 . S
C305 C106 1.459 . S
C315 C62 1.430 . S
C329 C76 1.468 . S
C339 C64 1.464 . S
C353 C78 1.482 . S
C363 C90 1.461 . S
C377 C92 1.460 . S
C387 C104 1.476 . S
C401 C37 1.190 . S
C411 C9 1.152 . S
C425 C51 1.259 . S
C435 C23 1.226 . S
C449 C93 1.233 . S
C459 C65 1.162 . S
C473 C107 1.188 . S
C483 C79 1.151 . S
