# Generated by pormake.
# Topology ske, (6)-cn, num edge types: 1
# Building blocks:
#     Node 0, Type 0, BuildingBlock: KUMJIN_clean_sbu_0, # of connection points: 6
#     Node 1, Type 0, BuildingBlock: KUMJIN_clean_sbu_0, # of connection points: 6
#     Node 2, Type 0, BuildingBlock: KUMJIN_clean_sbu_0, # of connection points: 6
#     Node 3, Type 0, BuildingBlock: KUMJIN_clean_sbu_0, # of connection points: 6
#     Node 4, Type 0, BuildingBlock: KUMJIN_clean_sbu_0, # of connection points: 6
#     Node 5, Type 0, BuildingBlock: KUMJIN_clean_sbu_0, # of connection points: 6
#     Node 6, Type 0, BuildingBlock: KUMJIN_clean_sbu_0, # of connection points: 6
#     Node 7, Type 0, BuildingBlock: KUMJIN_clean_sbu_0, # of connection points: 6
#     Edge 8, Type (0, 0), BuildingBlock: CIFDUS_clean_linker_0, # of connection points: 2
#     Edge 9, Type (0, 0), BuildingBlock: CIFDUS_clean_linker_0, # of connection points: 2
#     Edge 10, Type (0, 0), BuildingBlock: CIFDUS_clean_linker_0, # of connection points: 2
#     Edge 11, Type (0, 0), BuildingBlock: CIFDUS_clean_linker_0, # of connection points: 2
#     Edge 12, Type (0, 0), BuildingBlock: CIFDUS_clean_linker_0, # of connection points: 2
#     Edge 13, Type (0, 0), BuildingBlock: CIFDUS_clean_linker_0, # of connection points: 2
#     Edge 14, Type (0, 0), BuildingBlock: CIFDUS_clean_linker_0, # of connection points: 2
#     Edge 15, Type (0, 0), BuildingBlock: CIFDUS_clean_linker_0, # of connection points: 2
#     Edge 16, Type (0, 0), BuildingBlock: CIFDUS_clean_linker_0, # of connection points: 2
#     Edge 17, Type (0, 0), BuildingBlock: CIFDUS_clean_linker_0, # of connection points: 2
#     Edge 18, Type (0, 0), BuildingBlock: CIFDUS_clean_linker_0, # of connection points: 2
#     Edge 19, Type (0, 0), BuildingBlock: CIFDUS_clean_linker_0, # of connection points: 2
#     Edge 20, Type (0, 0), BuildingBlock: CIFDUS_clean_linker_0, # of connection points: 2
#     Edge 21, Type (0, 0), BuildingBlock: CIFDUS_clean_linker_0, # of connection points: 2
#     Edge 22, Type (0, 0), BuildingBlock: CIFDUS_clean_linker_0, # of connection points: 2
#     Edge 23, Type (0, 0), BuildingBlock: CIFDUS_clean_linker_0, # of connection points: 2
#     Edge 24, Type (0, 0), BuildingBlock: CIFDUS_clean_linker_0, # of connection points: 2
#     Edge 25, Type (0, 0), BuildingBlock: CIFDUS_clean_linker_0, # of connection points: 2
#     Edge 26, Type (0, 0), BuildingBlock: CIFDUS_clean_linker_0, # of connection points: 2
#     Edge 27, Type (0, 0), BuildingBlock: CIFDUS_clean_linker_0, # of connection points: 2
#     Edge 28, Type (0, 0), BuildingBlock: CIFDUS_clean_linker_0, # of connection points: 2
#     Edge 29, Type (0, 0), BuildingBlock: CIFDUS_clean_linker_0, # of connection points: 2
#     Edge 30, Type (0, 0), BuildingBlock: CIFDUS_clean_linker_0, # of connection points: 2
#     Edge 31, Type (0, 0), BuildingBlock: CIFDUS_clean_linker_0, # of connection points: 2
# Relax obj value: 0.198
# Max RMSD: 0.283
# Mean RMSD: 0.222
data_MOF--net-ske--node1-KUMJIN_clean_sbu_0--edge1-CIFDUS_clean_linker_0
_symmetry_space_group_name_H-M    P1
_symmetry_Int_Tables_number       1
_symmetry_cell_setting            triclinic
loop_
_symmetry_equiv_pos_as_xyz
'x, y, z'
_cell_length_a     92.026462
_cell_length_b     26.72356
_cell_length_c     12.910561
_cell_angle_alpha  100.5327
_cell_angle_beta   90.181249
_cell_angle_gamma 102.40022
loop_
_atom_site_label
_atom_site_type_symbol
_atom_site_fract_x
_atom_site_fract_y
_atom_site_fract_z
_atom_type_partial_charge
Eu0 Eu 0.10926 0.25302 0.60152 0.0
C1 C 0.16441 0.31934 0.40553 0.0
C2 C 0.16177 0.25123 0.25023 0.0
C3 C 0.17398 0.33998 0.23912 0.0
C4 C 0.15908 0.26801 0.35726 0.0
C5 C 0.17248 0.35541 0.3478 0.0
C6 C 0.16868 0.28785 0.19045 0.0
C7 C 0.17963 0.41582 0.51202 0.0
N8 N 0.16331 0.33233 0.51135 0.0
C9 C 0.17182 0.37825 0.56575 0.0
C10 C 0.17965 0.40484 0.40218 0.0
Eu11 Eu 0.14875 0.26736 0.59632 0.0
N12 N 0.15236 0.23357 0.41709 0.0
C13 C 0.14919 0.1813 0.37687 0.0
C14 C 0.15791 0.19789 0.20751 0.0
C15 C 0.15183 0.1627 0.27172 0.0
H16 H 0.17202 0.38675 0.65102 0.0
H17 H 0.14914 0.12123 0.24026 0.0
H18 H 0.1705 0.27589 0.10757 0.0
H19 H 0.18573 0.45299 0.55545 0.0
H20 H 0.14486 0.15354 0.4258 0.0
H21 H 0.10148 0.42783 0.88224 0.0
H22 H 0.15988 0.18342 0.12593 0.0
H23 H 0.09653 0.12674 0.62786 0.0
H24 H 0.10507 0.37886 0.7109 0.0
H25 H 0.08952 0.07691 0.76736 0.0
H26 H 0.17989 0.3674 0.19318 0.0
H27 H 0.09626 0.38372 0.03412 0.0
H28 H 0.09119 0.30134 0.10387 0.0
H29 H 0.18591 0.43366 0.36072 0.0
H30 H 0.08784 0.2062 0.07303 0.0
N31 N 0.10456 0.30666 0.76377 0.0
C32 C 0.10407 0.35845 0.77589 0.0
C33 C 0.0984 0.36167 0.95873 0.0
C34 C 0.09739 0.30799 0.94441 0.0
C35 C 0.10147 0.38675 0.87353 0.0
C36 C 0.10038 0.28088 0.84459 0.0
H37 H 0.08744 0.12264 0.94918 0.0
N38 N 0.10125 0.20114 0.73087 0.0
C39 C 0.09242 0.1191 0.78629 0.0
C40 C 0.09872 0.22699 0.82773 0.0
C41 C 0.09699 0.14786 0.70759 0.0
C42 C 0.09114 0.14502 0.88843 0.0
C43 C 0.0938 0.19944 0.90954 0.0
O44 O 0.09074 0.20057 0.5008 0.0
O45 O 0.1279 0.24655 0.48615 0.0
O46 O 0.14425 0.34862 0.61194 0.0
O47 O 0.11854 0.33742 0.59321 0.0
O48 O 0.11271 0.28941 0.45392 0.0
O49 O 0.08676 0.26742 0.6073 0.0
O50 O 0.17011 0.28934 0.68756 0.0
O51 O 0.12942 0.25378 0.7068 0.0
O52 O 0.11462 0.1743 0.53629 0.0
O53 O 0.13776 0.18584 0.61778 0.0
O54 O 0.14793 0.31252 0.76242 0.0
O55 O 0.16306 0.21165 0.60069 0.0
C56 C 0.12416 0.27192 0.41804 0.0
C57 C 0.07071 0.23822 0.45624 0.0
C58 C 0.04563 0.24678 0.4077 0.0
C59 C 0.0554 0.23253 0.47608 0.0
C60 C 0.05142 0.26642 0.31895 0.0
C61 C 0.07611 0.25715 0.36612 0.0
C62 C 0.0665 0.27116 0.29813 0.0
C63 C 0.13215 0.36672 0.6035 0.0
C64 C 0.08097 0.22787 0.53428 0.0
C65 C 0.09136 0.22671 1.00922 0.0
C66 C 0.09323 0.28084 0.02671 0.0
C67 C 0.13529 0.28744 0.78875 0.0
C68 C 0.18907 0.24714 0.61814 0.0
C69 C 0.20055 0.23799 0.68044 0.0
C70 C 0.21511 0.24073 0.64257 0.0
C71 C 0.21784 0.25255 0.54159 0.0
C72 C 0.19225 0.25859 0.51791 0.0
C73 C 0.2065 0.26139 0.48012 0.0
C74 C 0.12542 0.15531 0.57109 0.0
C75 C 0.17384 0.24498 0.65713 0.0
H76 H 0.05117 0.21802 0.54572 0.0
H77 H 0.0442 0.27714 0.26432 0.0
H78 H 0.08775 0.26159 0.34861 0.0
H79 H 0.07075 0.2859 0.22896 0.0
H80 H 0.19818 0.22922 0.75814 0.0
H81 H 0.2287 0.25391 0.50882 0.0
H82 H 0.1837 0.26512 0.46836 0.0
H83 H 0.20875 0.27008 0.40232 0.0
Eu84 Eu 0.85655 0.23071 0.55078 0.0
C85 C 0.90922 0.2013 0.74159 0.0
C86 C 0.9121 0.26778 0.90046 0.0
C87 C 0.91829 0.18451 0.90662 0.0
C88 C 0.90762 0.25028 0.79276 0.0
C89 C 0.91522 0.16905 0.7975 0.0
C90 C 0.9168 0.23388 0.95791 0.0
C91 C 0.91778 0.11406 0.63111 0.0
N92 N 0.90661 0.18787 0.63536 0.0
C93 C 0.91217 0.14787 0.5792 0.0
C94 C 0.9189 0.12385 0.74105 0.0
Eu95 Eu 0.89585 0.24605 0.55628 0.0
N96 N 0.9028 0.2823 0.7359 0.0
C97 C 0.90367 0.33355 0.77932 0.0
C98 C 0.91229 0.31956 0.94641 0.0
C99 C 0.90836 0.35282 0.88497 0.0
H100 H 0.91162 0.1408 0.49387 0.0
H101 H 0.90883 0.39329 0.91914 0.0
H102 H 0.9199 0.24629 0.0412 0.0
H103 H 0.92138 0.08085 0.5863 0.0
H104 H 0.90091 0.36023 0.7335 0.0
H105 H 0.82282 0.03431 0.39471 0.0
H106 H 0.91578 0.33453 0.0285 0.0
H107 H 0.85914 0.33864 0.43841 0.0
H108 H 0.83548 0.10702 0.53204 0.0
H109 H 0.85412 0.36063 0.26927 0.0
H110 H 0.92261 0.15976 0.95103 0.0
H111 H 0.82094 0.0466 0.21047 0.0
H112 H 0.82471 0.10738 0.0823 0.0
H113 H 0.92348 0.09807 0.78116 0.0
H114 H 0.83257 0.19671 0.04947 0.0
N115 N 0.8425 0.15904 0.42522 0.0
C116 C 0.83538 0.11261 0.45117 0.0
C117 C 0.82689 0.07846 0.27013 0.0
C118 C 0.83268 0.12756 0.246 0.0
C119 C 0.82794 0.07134 0.37384 0.0
C120 C 0.84037 0.16784 0.32659 0.0
H121 H 0.84289 0.29127 0.11949 0.0
N122 N 0.85185 0.25636 0.38779 0.0
C123 C 0.85163 0.32024 0.27842 0.0
C124 C 0.84483 0.21811 0.30801 0.0
C125 C 0.85478 0.3072 0.37475 0.0
C126 C 0.84522 0.28109 0.19437 0.0
C127 C 0.84163 0.22935 0.20855 0.0
O128 O 0.84571 0.28575 0.65166 0.0
O129 O 0.87665 0.25176 0.66728 0.0
O130 O 0.88617 0.15878 0.52699 0.0
O131 O 0.86102 0.15078 0.55643 0.0
O132 O 0.85871 0.1943 0.69472 0.0
O133 O 0.83246 0.21248 0.57487 0.0
O134 O 0.9101 0.28076 0.43961 0.0
O135 O 0.87635 0.24482 0.44529 0.0
O136 O 0.86648 0.31686 0.59783 0.0
O137 O 0.89137 0.32698 0.55586 0.0
O138 O 0.89026 0.19362 0.3958 0.0
O139 O 0.92025 0.26803 0.5778 0.0
C140 C 0.87153 0.22196 0.73341 0.0
C141 C 0.82034 0.2831 0.61375 0.0
C142 C 0.79558 0.30064 0.6525 0.0
C143 C 0.80691 0.27373 0.66638 0.0
C144 C 0.79798 0.33648 0.58331 0.0
C145 C 0.82236 0.31894 0.54542 0.0
C146 C 0.81121 0.34522 0.53003 0.0
C147 C 0.87286 0.13076 0.53875 0.0
C148 C 0.83236 0.25694 0.6346 0.0
C149 C 0.8348 0.18887 0.12672 0.0
C150 C 0.83039 0.13801 0.1453 0.0
C151 C 0.87933 0.21206 0.36615 0.0
C152 C 0.93298 0.25228 0.42164 0.0
C153 C 0.94848 0.26582 0.44717 0.0
C154 C 0.95815 0.23647 0.39253 0.0
C155 C 0.95212 0.19404 0.31176 0.0
C156 C 0.9274 0.21001 0.33945 0.0
C157 C 0.9369 0.18124 0.28516 0.0
C158 C 0.87949 0.34614 0.58256 0.0
C159 C 0.92255 0.27939 0.48539 0.0
H160 H 0.80538 0.2457 0.71852 0.0
H161 H 0.78982 0.35899 0.57218 0.0
H162 H 0.83263 0.32726 0.50533 0.0
H163 H 0.81293 0.37325 0.47794 0.0
H164 H 0.95294 0.29823 0.51057 0.0
H165 H 0.95925 0.17121 0.2677 0.0
H166 H 0.91565 0.19862 0.31758 0.0
H167 H 0.93244 0.14868 0.22223 0.0
Eu168 Eu 0.15013 0.77237 0.54169 0.0
C169 C 0.08803 0.64745 0.36162 0.0
C170 C 0.08554 0.67504 0.19459 0.0
C171 C 0.07294 0.58807 0.21596 0.0
C172 C 0.09172 0.68488 0.29845 0.0
C173 C 0.07826 0.5992 0.32152 0.0
C174 C 0.07656 0.62591 0.15265 0.0
C175 C 0.07821 0.57885 0.49636 0.0
N176 N 0.09313 0.65947 0.46408 0.0
C177 C 0.08779 0.62722 0.53284 0.0
C178 C 0.07365 0.56436 0.38991 0.0
Eu179 Eu 0.10986 0.74133 0.51545 0.0
N180 N 0.10032 0.73236 0.3412 0.0
C181 C 0.10177 0.77307 0.28874 0.0
C182 C 0.08801 0.71559 0.13737 0.0
C183 C 0.0959 0.7651 0.18552 0.0
H184 H 0.09113 0.63799 0.61539 0.0
H185 H 0.09751 0.79709 0.14304 0.0
H186 H 0.07191 0.61745 0.07256 0.0
H187 H 0.07435 0.55282 0.55046 0.0
H188 H 0.1078 0.81159 0.32498 0.0
H189 H 0.16326 0.70992 0.9045 0.0
H190 H 0.08347 0.70956 0.05743 0.0
H191 H 0.16523 0.8842 0.46118 0.0
H192 H 0.15317 0.69878 0.72265 0.0
H193 H 0.18013 0.97199 0.53615 0.0
H194 H 0.06558 0.55096 0.18356 0.0
H195 H 0.17593 0.79746 0.99999 0.0
H196 H 0.18566 0.89253 0.9973 0.0
H197 H 0.06616 0.52695 0.36206 0.0
H198 H 0.19026 0.96397 0.89708 0.0
N199 N 0.15967 0.77939 0.71569 0.0
C200 C 0.1587 0.73719 0.76317 0.0
C201 C 0.1715 0.79284 0.92016 0.0
C202 C 0.17317 0.8355 0.86906 0.0
C203 C 0.1644 0.74333 0.86635 0.0
C204 C 0.16715 0.82741 0.76527 0.0
H205 H 0.1885 0.99369 0.72449 0.0
N206 N 0.1648 0.85706 0.60638 0.0
C207 C 0.17725 0.94303 0.58567 0.0
C208 C 0.1698 0.8675 0.70872 0.0
C209 C 0.16885 0.89325 0.54336 0.0
C210 C 0.18191 0.95517 0.69209 0.0
C211 C 0.17843 0.91697 0.75467 0.0
O212 O 0.1681 0.77569 0.4308 0.0
O213 O 0.13069 0.74432 0.42115 0.0
O214 O 0.11639 0.66375 0.47865 0.0
O215 O 0.14097 0.68608 0.54612 0.0
O216 O 0.14827 0.79847 0.3834 0.0
O217 O 0.16616 0.72207 0.53857 0.0
O218 O 0.0996 0.78078 0.65019 0.0
O219 O 0.12925 0.76599 0.63436 0.0
O220 O 0.14154 0.84485 0.60176 0.0
O221 O 0.11988 0.8251 0.49762 0.0
O222 O 0.11144 0.71183 0.67042 0.0
O223 O 0.0886 0.76397 0.49693 0.0
C224 C 0.13553 0.76955 0.34826 0.0
C225 C 0.19049 0.75888 0.49053 0.0
C226 C 0.21616 0.76061 0.43547 0.0
C227 C 0.20056 0.7409 0.41839 0.0
C228 C 0.22124 0.79887 0.52638 0.0
C229 C 0.19608 0.79497 0.58198 0.0
C230 C 0.2113 0.81503 0.59946 0.0
C231 C 0.12865 0.65127 0.50908 0.0
C232 C 0.17422 0.74248 0.46755 0.0
C233 C 0.18373 0.92606 0.86003 0.0
C234 C 0.18112 0.88541 0.91716 0.0
C235 C 0.12444 0.73941 0.70549 0.0
C236 C 0.07305 0.76013 0.64259 0.0
C237 C 0.0596 0.7594 0.58928 0.0
C238 C 0.04575 0.74206 0.63218 0.0
C239 C 0.04555 0.72558 0.7296 0.0
C240 C 0.07252 0.74315 0.73967 0.0
C241 C 0.05885 0.72605 0.78261 0.0
C242 C 0.1305 0.85918 0.5581 0.0
C243 C 0.08748 0.7797 0.59721 0.0
H244 H 0.19612 0.71175 0.3496 0.0
H245 H 0.23289 0.81741 0.54134 0.0
H246 H 0.1887 0.80828 0.63942 0.0
H247 H 0.21542 0.84393 0.66939 0.0
H248 H 0.05992 0.77293 0.51494 0.0
H249 H 0.0351 0.71149 0.76404 0.0
H250 H 0.08264 0.74313 0.78274 0.0
H251 H 0.05855 0.71299 0.85732 0.0
Eu252 Eu 0.85856 0.71653 0.49759 0.0
C253 C 0.91728 0.87181 0.55019 0.0
C254 C 0.92475 0.89974 0.38574 0.0
C255 C 0.93118 0.96063 0.55163 0.0
C256 C 0.91756 0.86114 0.44111 0.0
C257 C 0.92413 0.92196 0.60644 0.0
C258 C 0.93154 0.94951 0.44161 0.0
C259 C 0.91675 0.89228 0.76761 0.0
N260 N 0.91025 0.83361 0.60112 0.0
C261 C 0.91017 0.8432 0.70888 0.0
C262 C 0.92369 0.93191 0.71627 0.0
Eu263 Eu 0.89899 0.75203 0.49109 0.0
N264 N 0.91027 0.81346 0.38858 0.0
C265 C 0.91056 0.80087 0.28155 0.0
C266 C 0.92471 0.88742 0.27558 0.0
C267 C 0.91765 0.83758 0.22332 0.0
H268 H 0.90527 0.81366 0.75186 0.0
H269 H 0.91775 0.82731 0.13829 0.0
H270 H 0.93702 0.97974 0.40042 0.0
H271 H 0.91652 0.89937 0.85281 0.0
H272 H 0.90562 0.76197 0.24144 0.0
H273 H 0.84072 0.73012 0.9019 0.0
H274 H 0.93012 0.91595 0.23029 0.0
H275 H 0.85242 0.61325 0.29749 0.0
H276 H 0.85182 0.76267 0.74558 0.0
H277 H 0.83986 0.52009 0.26391 0.0
H278 H 0.93643 -0.0007 0.59371 0.0
H279 H 0.82891 0.63656 0.88687 0.0
H280 H 0.82113 0.54754 0.77213 0.0
H281 H 0.92878 0.96989 0.76218 0.0
H282 H 0.82042 0.4909 0.59794 0.0
N283 N 0.84787 0.68785 0.64858 0.0
C284 C 0.84743 0.72145 0.74086 0.0
C285 C 0.83407 0.65053 0.81928 0.0
C286 C 0.83364 0.61684 0.72201 0.0
C287 C 0.84082 0.70331 0.82826 0.0
C288 C 0.84051 0.63708 0.63661 0.0
H289 H 0.82731 0.48038 0.40794 0.0
N290 N 0.84678 0.62654 0.4583 0.0
C291 C 0.83972 0.54376 0.34134 0.0
C292 C 0.83977 0.60563 0.53798 0.0
C293 C 0.84676 0.59669 0.3604 0.0
C294 C 0.83264 0.52151 0.42281 0.0
C295 C 0.83262 0.5524 0.52281 0.0
O296 O 0.83847 0.7162 0.40522 0.0
O297 O 0.87798 0.72413 0.39167 0.0
O298 O 0.88814 0.81072 0.43342 0.0
O299 O 0.86842 0.8044 0.5425 0.0
O300 O 0.85781 0.70956 0.31602 0.0
O301 O 0.84331 0.76659 0.55808 0.0
O302 O 0.92126 0.74354 0.53364 0.0
O303 O 0.87971 0.75007 0.60416 0.0
O304 O 0.86864 0.65011 0.53114 0.0
O305 O 0.88979 0.66488 0.43629 0.0
O306 O 0.89818 0.7268 0.65139 0.0
O307 O 0.91088 0.70504 0.38038 0.0
C308 C 0.87183 0.71854 0.30032 0.0
C309 C 0.81765 0.73578 0.50054 0.0
C310 C 0.79145 0.73246 0.45284 0.0
C311 C 0.80678 0.7432 0.43059 0.0
C312 C 0.78732 0.71423 0.54652 0.0
C313 C 0.81301 0.71692 0.59224 0.0
C314 C 0.798 0.70625 0.61485 0.0
C315 C 0.87776 0.83117 0.48414 0.0
C316 C 0.83372 0.74879 0.478 0.0
C317 C 0.82595 0.53174 0.60799 0.0
C318 C 0.82641 0.5639 0.70734 0.0
C319 C 0.88505 0.73229 0.67857 0.0
C320 C 0.93749 0.73031 0.39257 0.0
C321 C 0.95086 0.73491 0.45087 0.0
C322 C 0.96481 0.74674 0.40497 0.0
C323 C 0.96512 0.7553 0.30052 0.0
C324 C 0.93822 0.73662 0.28687 0.0
C325 C 0.95193 0.74993 0.24207 0.0
C326 C 0.88023 0.63464 0.48691 0.0
C327 C 0.92295 0.71628 0.44135 0.0
H328 H 0.81031 0.75709 0.35898 0.0
H329 H 0.77583 0.70693 0.56856 0.0
H330 H 0.82093 0.71083 0.64744 0.0
H331 H 0.79463 0.69222 0.68653 0.0
H332 H 0.95032 0.72777 0.53088 0.0
H333 H 0.97558 0.76599 0.26343 0.0
H334 H 0.92823 0.73077 0.23796 0.0
H335 H 0.95234 0.75558 0.16113 0.0
Eu336 Eu 0.61414 0.74361 1.01977 0.0
C337 C 0.6776 0.85072 0.91436 0.0
C338 C 0.67999 0.81305 0.73131 0.0
C339 C 0.69382 0.90085 0.80369 0.0
C340 C 0.67361 0.80966 0.8297 0.0
C341 C 0.6879 0.89653 0.90256 0.0
C342 C 0.68987 0.85922 0.71821 0.0
C343 C 0.68623 0.9296 0.08843 0.0
N344 N 0.67161 0.8456 1.00883 0.0
C345 C 0.6761 0.88343 0.09641 0.0
C346 C 0.69207 0.93637 0.99096 0.0
Eu347 Eu 0.65478 0.76577 1.01598 0.0
N348 N 0.66417 0.76521 0.84519 0.0
C349 C 0.66158 0.7216 0.76779 0.0
C350 C 0.67661 0.76941 0.6498 0.0
C351 C 0.66753 0.72327 0.66865 0.0
H352 H 0.6716 0.87832 0.17185 0.0
H353 H 0.66508 0.68898 0.60678 0.0
H354 H 0.69477 0.86268 0.64297 0.0
H355 H 0.68954 0.9599 0.15747 0.0
H356 H 0.6546 0.68559 0.78092 0.0
H357 H 0.61829 0.89338 0.38228 0.0
H358 H 0.68124 0.77053 0.57302 0.0
H359 H 0.59407 0.61872 0.9744 0.0
H360 H 0.6236 0.85978 0.2028 0.0
H361 H 0.57902 0.55701 0.07279 0.0
H362 H 0.70166 0.9359 0.7929 0.0
H363 H 0.60279 0.83597 0.48762 0.0
H364 H 0.58801 0.74803 0.50078 0.0
H365 H 0.69993 0.97219 0.98507 0.0
H366 H 0.57783 0.65679 0.41864 0.0
N367 N 0.61063 0.78227 0.19818 0.0
C368 C 0.61639 0.83341 0.24346 0.0
C369 C 0.60481 0.82061 0.40659 0.0
C370 C 0.59891 0.76858 0.36113 0.0
C371 C 0.61355 0.85311 0.3474 0.0
C372 C 0.60191 0.7502 0.25512 0.0
H373 H 0.57456 0.5855 0.26069 0.0
N374 N 0.59924 0.68106 0.10742 0.0
C375 C 0.58391 0.59641 0.11247 0.0
C376 C 0.59623 0.69832 0.20904 0.0
C377 C 0.59265 0.63141 0.05751 0.0
C378 C 0.58139 0.61269 0.21829 0.0
C379 C 0.58735 0.66424 0.26747 0.0
O380 O 0.59019 0.71794 0.97232 0.0
O381 O 0.63373 0.75939 0.91735 0.0
O382 O 0.6491 0.84128 0.99437 0.0
O383 O 0.62376 0.83007 0.02656 0.0
O384 O 0.61512 0.70866 0.84337 0.0
O385 O 0.60201 0.79495 0.96013 0.0
O386 O 0.67364 0.77097 0.12523 0.0
O387 O 0.63487 0.74295 0.11531 0.0
O388 O 0.62004 0.6643 0.99253 0.0
O389 O 0.64521 0.68029 0.95405 0.0
O390 O 0.65302 0.79431 0.19371 0.0
O391 O 0.66854 0.70764 0.99134 0.0
C392 C 0.62842 0.73327 0.82682 0.0
C393 C 0.57683 0.78632 1.00795 0.0
C394 C 0.55035 0.7902 1.02221 0.0
C395 C 0.56165 0.76584 0.97545 0.0
C396 C 0.55455 0.83462 0.10227 0.0
C397 C 0.58048 0.83049 0.089 0.0
C398 C 0.56944 0.85431 0.1354 0.0
C399 C 0.63678 0.85895 1.00845 0.0
C400 C 0.58899 0.76346 0.95592 0.0
C401 C 0.58453 0.68253 0.37272 0.0
C402 C 0.59029 0.73451 0.41936 0.0
C403 C 0.64001 0.76735 0.20723 0.0
C404 C 0.69407 0.73917 0.04738 0.0
C405 C 0.70467 0.73591 0.12397 0.0
C406 C 0.72 0.74317 0.10222 0.0
C407 C 0.72446 0.75418 1.00315 0.0
C408 C 0.69895 0.74931 0.94889 0.0
C409 C 0.71401 0.7572 0.92746 0.0
C410 C 0.63234 0.6487 0.96323 0.0
C411 C 0.67799 0.73141 0.06967 0.0
H412 H 0.55868 0.73168 0.9134 0.0
H413 H 0.54624 0.8536 0.14149 0.0
H414 H 0.59194 0.84712 0.11617 0.0
H415 H 0.57245 0.8883 0.19771 0.0
H416 H 0.70099 0.72774 0.19998 0.0
H417 H 0.73601 0.75901 0.9827 0.0
H418 H 0.69115 0.75044 0.88753 0.0
H419 H 0.71758 0.76494 0.85102 0.0
Eu420 Eu 0.35293 0.72923 1.01308 0.0
C421 C 0.40151 0.73036 0.26581 0.0
C422 C 0.40907 0.81815 0.36794 0.0
C423 C 0.40903 0.74413 0.4521 0.0
C424 C 0.40394 0.78394 0.27152 0.0
C425 C 0.40451 0.71018 0.35575 0.0
C426 C 0.41117 0.79794 0.45844 0.0
C427 C 0.39861 0.62391 0.24922 0.0
N428 N 0.39658 0.69794 0.17251 0.0
C429 C 0.39571 0.64541 0.16261 0.0
C430 C 0.40289 0.65633 0.34647 0.0
Eu431 Eu 0.39335 0.73877 0.02711 0.0
N432 N 0.40215 0.80274 0.1822 0.0
C433 C 0.40753 0.85466 0.18216 0.0
C434 C 0.41259 0.87183 0.36997 0.0
C435 C 0.41219 0.89005 0.27597 0.0
H436 H 0.39365 0.61964 0.08748 0.0
H437 H 0.41598 0.93122 0.27505 0.0
H438 H 0.41492 0.8237 0.53304 0.0
H439 H 0.39782 0.58233 0.24023 0.0
H440 H 0.40905 0.86921 0.10972 0.0
H441 H 0.34211 0.59718 0.63097 0.0
H442 H 0.41649 0.89924 0.44237 0.0
H443 H 0.33873 0.83456 0.09998 0.0
H444 H 0.35059 0.6248 0.81746 0.0
H445 H 0.32607 0.89412 0.02655 0.0
H446 H 0.41106 0.72914 0.52208 0.0
H447 H 0.33221 0.6571 0.53919 0.0
H448 H 0.32473 0.74255 0.54815 0.0
H449 H 0.40513 0.63951 0.4135 0.0
H450 H 0.32036 0.82345 0.65581 0.0
N451 N 0.34574 0.70004 0.83227 0.0
C452 C 0.34635 0.6515 0.77897 0.0
C453 C 0.33589 0.66947 0.62146 0.0
C454 C 0.33474 0.71836 0.67753 0.0
C455 C 0.34145 0.6355 0.67307 0.0
C456 C 0.33962 0.73251 0.78472 0.0
H457 H 0.32048 0.87958 0.83445 0.0
N458 N 0.34091 0.78866 0.95015 0.0
C459 C 0.32918 0.86183 0.97469 0.0
C460 C 0.33709 0.778 0.84554 0.0
C461 C 0.33633 0.82812 1.01595 0.0
C462 C 0.32608 0.85354 0.8662 0.0
C463 C 0.32972 0.8106 0.80041 0.0
O464 O 0.33468 0.73385 0.12084 0.0
O465 O 0.37209 0.7236 0.12014 0.0
O466 O 0.38195 0.65414 0.96666 0.0
O467 O 0.35717 0.64929 1.01093 0.0
O468 O 0.35803 0.77079 0.18407 0.0
O469 O 0.33319 0.66558 0.9995 0.0
O470 O 0.4098 0.69274 0.97095 0.0
O471 O 0.37344 0.72995 0.91778 0.0
O472 O 0.36361 0.81171 1.00461 0.0
O473 O 0.38939 0.81857 1.00397 0.0
O474 O 0.39359 0.73984 0.84937 0.0
O475 O 0.41677 0.77626 1.00943 0.0
C476 C 0.36893 0.75056 0.20668 0.0
C477 C 0.31089 0.69508 0.03983 0.0
C478 C 0.28616 0.71046 0.08895 0.0
C479 C 0.3002 0.7014 0.11638 0.0
C480 C 0.28334 0.71376 0.98314 0.0
C481 C 0.30725 0.69556 0.93454 0.0
C482 C 0.29367 0.7055 0.90683 0.0
C483 C 0.36843 0.62761 0.98144 0.0
C484 C 0.32607 0.69099 0.07069 0.0
C485 C 0.3258 0.79843 0.69215 0.0
C486 C 0.32829 0.75238 0.6308 0.0
C487 C 0.3795 0.73277 0.8285 0.0
C488 C 0.4351 0.72745 0.03325 0.0
C489 C 0.44931 0.74226 0.99108 0.0
C490 C 0.46228 0.73396 0.03947 0.0
C491 C 0.46081 0.71217 0.13107 0.0
C492 C 0.43429 0.70595 0.12489 0.0
C493 C 0.44697 0.69857 0.1734 0.0
C494 C 0.37732 0.83811 0.99934 0.0
C495 C 0.4211 0.7326 0.98106 0.0
H496 H 0.30293 0.69899 0.19662 0.0
H497 H 0.2732 0.7233 0.95827 0.0
H498 H 0.31494 0.68883 0.87344 0.0
H499 H 0.2912 0.70732 0.82574 0.0
H500 H 0.45022 0.75912 0.92055 0.0
H501 H 0.47049 0.70632 0.17132 0.0
H502 H 0.42384 0.69419 0.15923 0.0
H503 H 0.44605 0.682 0.24423 0.0
Eu504 Eu 0.64784 0.261 0.97808 0.0
C505 C 0.59663 0.21324 0.72455 0.0
C506 C 0.58919 0.29028 0.68842 0.0
C507 C 0.58802 0.21579 0.5471 0.0
C508 C 0.59482 0.26363 0.75902 0.0
C509 C 0.593 0.18856 0.61826 0.0
C510 C 0.58611 0.26654 0.58211 0.0
C511 C 0.59883 0.11078 0.66037 0.0
N512 N 0.60183 0.18816 0.79453 0.0
C513 C 0.60229 0.13668 0.76456 0.0
C514 C 0.59439 0.13703 0.58645 0.0
Eu515 Eu 0.60813 0.23684 0.96963 0.0
N516 N 0.59801 0.28593 0.86205 0.0
C517 C 0.59396 0.33192 0.90151 0.0
C518 C 0.58647 0.33963 0.72712 0.0
C519 C 0.58858 0.36005 0.83465 0.0
H520 H 0.60496 0.11425 0.81986 0.0
H521 H 0.58583 0.39708 0.86648 0.0
H522 H 0.58199 0.28674 0.52672 0.0
H523 H 0.59946 0.07029 0.63744 0.0
H524 H 0.59462 0.34701 0.98521 0.0
H525 H 0.6672 0.12331 0.18408 0.0
H526 H 0.58218 0.36131 0.67544 0.0
H527 H 0.65764 0.39497 0.05854 0.0
H528 H 0.65996 0.15622 0.03137 0.0
H529 H 0.66237 0.45845 0.22326 0.0
H530 H 0.58541 0.19766 0.46509 0.0
H531 H 0.67012 0.17933 0.36107 0.0
H532 H 0.67015 0.2664 0.47249 0.0
H533 H 0.59174 0.11685 0.50567 0.0
H534 H 0.66822 0.35748 0.48388 0.0
N535 N 0.65669 0.22812 0.12064 0.0
C536 C 0.66023 0.18024 0.1082 0.0
C537 C 0.66654 0.19362 0.29414 0.0
C538 C 0.66429 0.24437 0.30513 0.0
C539 C 0.6648 0.1618 0.19466 0.0
C540 C 0.65955 0.26105 0.21538 0.0
H541 H 0.66538 0.42951 0.39157 0.0
N542 N 0.65512 0.32811 0.13197 0.0
C543 C 0.6609 0.4173 0.22469 0.0
C544 C 0.65846 0.31229 0.22167 0.0
C545 C 0.65769 0.38051 0.13112 0.0
C546 C 0.66266 0.40086 0.3193 0.0
C547 C 0.66207 0.34811 0.3181 0.0
O548 O 0.66686 0.31583 0.93174 0.0
O549 O 0.62813 0.25993 0.87142 0.0
O550 O 0.61501 0.16209 0.98408 0.0
O551 O 0.63986 0.17287 0.94194 0.0
O552 O 0.64406 0.22192 0.80459 0.0
O553 O 0.66788 0.23535 0.91949 0.0
O554 O 0.59137 0.17143 1.0034 0.0
O555 O 0.62785 0.23653 0.07525 0.0
O556 O 0.63923 0.33292 0.95386 0.0
O557 O 0.6165 0.32214 0.03211 0.0
O558 O 0.61189 0.27414 0.14404 0.0
O559 O 0.5863 0.24767 0.02434 0.0
C560 C 0.63198 0.23607 0.78409 0.0
C561 C 0.69067 0.29751 0.95349 0.0
C562 C 0.71745 0.3055 0.92704 0.0
C563 C 0.70247 0.28953 0.88755 0.0
C564 C 0.72024 0.32935 0.03408 0.0
C565 C 0.69384 0.32073 0.05981 0.0
C566 C 0.70853 0.3365 0.09966 0.0
C567 C 0.62703 0.14351 0.96095 0.0
C568 C 0.67513 0.28166 0.91054 0.0
C569 C 0.6657 0.33071 0.409 0.0
C570 C 0.66686 0.27894 0.40246 0.0
C571 C 0.62403 0.25977 0.16356 0.0
C572 C 0.56643 0.17516 0.96372 0.0
C573 C 0.55469 0.20139 0.98101 0.0
C574 C 0.54058 0.1793 0.93072 0.0
C575 C 0.53832 0.13071 0.86243 0.0
C576 C 0.56395 0.12672 0.89417 0.0
C577 C 0.54999 0.10481 0.84395 0.0
C578 C 0.62813 0.35193 0.9992 0.0
C579 C 0.58104 0.19809 1.02028 0.0
H580 H 0.69993 0.27072 0.80587 0.0
H581 H 0.73151 0.34357 0.06726 0.0
H582 H 0.68499 0.32709 0.11192 0.0
H583 H 0.71088 0.35491 0.18166 0.0
H584 H 0.55644 0.23856 0.035 0.0
H585 H 0.52758 0.11306 0.82249 0.0
H586 H 0.57275 0.10552 0.87877 0.0
H587 H 0.54818 0.0675 0.79069 0.0
Eu588 Eu 0.35916 0.21398 0.9841 0.0
C589 C 0.41794 0.33537 0.85512 0.0
C590 C 0.42068 0.27989 0.68836 0.0
C591 C 0.43097 0.37319 0.7144 0.0
C592 C 0.41535 0.28616 0.79131 0.0
C593 C 0.42616 0.3791 0.81811 0.0
C594 C 0.4282 0.32375 0.6496 0.0
C595 C 0.42539 0.43077 0.99171 0.0
N596 N 0.41302 0.34027 0.95476 0.0
C597 C 0.41727 0.38642 0.02486 0.0
C598 C 0.42964 0.4273 0.88739 0.0
Eu599 Eu 0.39942 0.26281 1.00295 0.0
N600 N 0.40803 0.24425 0.83057 0.0
C601 C 0.40654 0.19487 0.77359 0.0
C602 C 0.41852 0.22959 0.6278 0.0
C603 C 0.4116 0.18688 0.67116 0.0
H604 H 0.41389 0.38911 0.10549 0.0
H605 H 0.41006 0.14776 0.62546 0.0
H606 H 0.43222 0.31969 0.57036 0.0
H607 H 0.42834 0.46756 0.04654 0.0
H608 H 0.40109 0.16144 0.80523 0.0
H609 H 0.35174 0.35424 0.3371 0.0
H610 H 0.42238 0.22325 0.54827 0.0
H611 H 0.34463 0.08355 0.93133 0.0
H612 H 0.35819 0.32665 0.1554 0.0
H613 H 0.33426 0.01326 0.02737 0.0
H614 H 0.43713 0.40645 0.68425 0.0
H615 H 0.34233 0.28869 0.44711 0.0
H616 H 0.33479 0.19489 0.46309 0.0
H617 H 0.43594 0.46174 0.86187 0.0
H618 H 0.33059 0.10227 0.38026 0.0
N619 N 0.35262 0.24521 0.159 0.0
C620 C 0.354 0.29702 0.20049 0.0
C621 C 0.34507 0.27604 0.36635 0.0
C622 C 0.34321 0.22307 0.32293 0.0
C623 C 0.35037 0.31312 0.30451 0.0
C624 C 0.34703 0.20856 0.21744 0.0
H625 H 0.33035 0.03427 0.21836 0.0
N626 N 0.348 0.14364 0.06838 0.0
C627 C 0.33737 0.05323 0.06927 0.0
C628 C 0.3449 0.15632 0.17134 0.0
C629 C 0.34341 0.09321 1.01546 0.0
C630 C 0.33518 0.06525 0.17695 0.0
C631 C 0.33856 0.11737 0.22875 0.0
O632 O 0.33853 0.17212 0.89333 0.0
O633 O 0.37888 0.24408 0.89256 0.0
O634 O 0.38998 0.33097 0.98364 0.0
O635 O 0.36417 0.30164 0.98034 0.0
O636 O 0.36298 0.18396 0.8102 0.0
O637 O 0.34136 0.25381 0.9582 0.0
O638 O 0.41571 0.28947 0.13447 0.0
O639 O 0.37986 0.22872 0.09348 0.0
O640 O 0.36937 0.14268 0.95831 0.0
O641 O 0.39493 0.17571 0.98969 0.0
O642 O 0.39442 0.29485 0.17242 0.0
O643 O 0.41975 0.23218 1.00195 0.0
C644 C 0.37533 0.21627 0.8004 0.0
C645 C 0.31665 0.20321 0.94213 0.0
C646 C 0.29036 0.20704 0.91721 0.0
C647 C 0.30516 0.21395 0.88231 0.0
C648 C 0.28746 0.18962 1.01323 0.0
C649 C 0.3132 0.18531 0.03636 0.0
C650 C 0.29875 0.17862 0.07158 0.0
C651 C 0.37635 0.33842 0.97841 0.0
C652 C 0.33225 0.21204 0.90813 0.0
C653 C 0.33527 0.13167 0.3347 0.0
C654 C 0.33759 0.1844 0.3817 0.0
C655 C 0.38319 0.25823 0.18434 0.0
C656 C 0.44098 0.2916 0.09439 0.0
C657 C 0.45209 0.26446 0.05895 0.0
C658 C 0.46733 0.28964 0.07164 0.0
C659 C 0.47116 0.34292 0.11837 0.0
C660 C 0.44522 0.34471 0.14114 0.0
C661 C 0.46018 0.37015 0.15179 0.0
C662 C 0.38315 0.13692 0.97106 0.0
C663 C 0.4252 0.26331 0.09002 0.0
H664 H 0.30777 0.22732 0.80886 0.0
H665 H 0.27647 0.18531 0.04486 0.0
H666 H 0.32167 0.17685 0.08345 0.0
H667 H 0.29632 0.16527 0.14523 0.0
H668 H 0.44883 0.22358 0.0228 0.0
H669 H 0.48268 0.3635 0.13227 0.0
H670 H 0.43704 0.36657 0.17173 0.0
H671 H 0.4633 0.41095 0.18859 0.0
H672 H 0.24446 0.29181 0.66374 0.0
H673 H 0.21368 0.16436 0.76063 0.0
H674 H 0.23416 0.14189 0.85024 0.0
H675 H 0.26087 0.15633 0.89567 0.0
H676 H 0.29161 0.28531 0.80292 0.0
H677 H 0.27117 0.3075 0.71291 0.0
C678 C 0.2422 0.25896 0.70415 0.0
C679 C 0.22745 0.22978 0.7049 0.0
C680 C 0.25409 0.24588 0.75468 0.0
C681 C 0.22481 0.18797 0.75953 0.0
C682 C 0.23657 0.17476 0.80999 0.0
C683 C 0.26317 0.18976 0.85703 0.0
C684 C 0.27793 0.21905 0.85693 0.0
C685 C 0.25127 0.2032 0.80745 0.0
C686 C 0.28053 0.26137 0.80352 0.0
C687 C 0.26877 0.27451 0.75282 0.0
H688 H 0.74417 0.28411 0.97832 0.0
H689 H 0.71969 0.31296 0.7174 0.0
H690 H 0.74107 0.30899 0.60768 0.0
H691 H 0.76723 0.30288 0.5884 0.0
H692 H 0.79241 0.28325 0.85554 0.0
H693 H 0.77026 0.27797 0.95913 0.0
C694 C 0.74347 0.29007 0.8978 0.0
C695 C 0.73021 0.29927 0.85728 0.0
C696 C 0.75601 0.28946 0.83574 0.0
C697 C 0.72956 0.30521 0.75129 0.0
C698 C 0.74189 0.30345 0.68841 0.0
C699 C 0.76798 0.29785 0.66952 0.0
C700 C 0.78166 0.29371 0.71343 0.0
C701 C 0.75526 0.29651 0.73032 0.0
C702 C 0.78211 0.28582 0.81821 0.0
C703 C 0.76943 0.28329 0.87825 0.0
H704 H 0.25559 0.69041 0.0572 0.0
H705 H 0.2902 0.74693 0.30476 0.0
H706 H 0.27149 0.76013 0.43274 0.0
H707 H 0.24563 0.75959 0.47419 0.0
H708 H 0.21193 0.72171 0.22048 0.0
H709 H 0.23006 0.69716 0.09626 0.0
C710 C 0.25928 0.70686 0.13835 0.0
C711 C 0.27458 0.71766 0.16926 0.0
C712 C 0.24854 0.71763 0.21141 0.0
C713 C 0.27866 0.73691 0.27689 0.0
C714 C 0.26792 0.74518 0.35075 0.0
C715 C 0.24214 0.74732 0.39165 0.0
C716 C 0.22718 0.74326 0.35853 0.0
C717 C 0.25286 0.73639 0.31863 0.0
C718 C 0.22312 0.72467 0.2507 0.0
C719 C 0.23359 0.71111 0.17858 0.0
H720 H 0.74825 0.80236 0.1495 0.0
H721 H 0.71757 0.66922 0.22673 0.0
H722 H 0.73693 0.65364 0.33905 0.0
H723 H 0.76283 0.67518 0.40869 0.0
H724 H 0.79339 0.80981 0.33548 0.0
H725 H 0.774 0.82574 0.22438 0.0
C726 C 0.74578 0.76984 0.19075 0.0
C727 C 0.7314 0.73694 0.17905 0.0
C728 C 0.75704 0.7607 0.25436 0.0
C729 C 0.72841 0.6956 0.23488 0.0
C730 C 0.73955 0.68633 0.29838 0.0
C731 C 0.76528 0.70852 0.36983 0.0
C732 C 0.77971 0.74116 0.38125 0.0
C733 C 0.75394 0.7183 0.30788 0.0
C734 C 0.78258 0.78333 0.32742 0.0
C735 C 0.7714 0.79288 0.26455 0.0
H736 H 0.11352 0.90879 0.45415 0.0
H737 H 0.1474 0.93676 0.70297 0.0
H738 H 0.14888 0.03002 0.72723 0.0
H739 H 0.14091 0.10405 0.67756 0.0
H740 H 0.10648 0.07807 0.43397 0.0
H741 H 0.10472 0.98379 0.40903 0.0
C742 C 0.12117 0.93528 0.51394 0.0
C743 C 0.13056 0.91564 0.57505 0.0
C744 C 0.12185 0.98932 0.52878 0.0
C745 C 0.1403 0.95063 0.65286 0.0
C746 C 0.14111 0.00413 0.66742 0.0
C747 C 0.13302 0.07784 0.61878 0.0
C748 C 0.1239 0.0981 0.55731 0.0
C749 C 0.13203 0.02393 0.60539 0.0
C750 C 0.11362 0.06347 0.48248 0.0
C751 C 0.11263 0.00957 0.46805 0.0
H752 H 0.89663 0.41408 0.47195 0.0
H753 H 0.8626 0.40417 0.7011 0.0
H754 H 0.85976 0.49172 0.69091 0.0
H755 H 0.86607 0.56976 0.61249 0.0
H756 H 0.89978 0.58104 0.38122 0.0
H757 H 0.9036 0.4948 0.39687 0.0
C758 C 0.88885 0.43161 0.52132 0.0
C759 C 0.87992 0.40255 0.58775 0.0
C760 C 0.88704 0.48206 0.51366 0.0
C761 C 0.86965 0.42556 0.64953 0.0
C762 C 0.86796 0.47563 0.64342 0.0
C763 C 0.8742 0.55338 0.5648 0.0
C764 C 0.88248 0.58185 0.49479 0.0
C765 C 0.87639 0.5039 0.57454 0.0
C766 C 0.89316 0.56005 0.43534 0.0
C767 C 0.89539 0.51068 0.44446 0.0
H768 H 0.8613 0.89531 0.59806 0.0
H769 H 0.89317 0.89076 0.35389 0.0
H770 H 0.89508 0.98261 0.35306 0.0
H771 H 0.88789 0.06526 0.42151 0.0
H772 H 0.85426 0.06956 0.65242 0.0
H773 H 0.85258 0.97721 0.65682 0.0
C774 C 0.8686 0.91436 0.54437 0.0
C775 C 0.87752 0.88624 0.47908 0.0
C776 C 0.86923 0.96737 0.54116 0.0
C777 C 0.88667 0.91159 0.40852 0.0
C778 C 0.88765 0.96424 0.40691 0.0
C779 C 0.8802 0.04594 0.47277 0.0
C780 C 0.8713 0.07425 0.53701 0.0
C781 C 0.87909 0.99268 0.47341 0.0
C782 C 0.8612 0.04851 0.6018 0.0
C783 C 0.86027 0.99574 0.60467 0.0
H784 H 0.14805 0.60935 0.6091 0.0
H785 H 0.10791 0.56696 0.40945 0.0
H786 H 0.10525 0.47596 0.42427 0.0
H787 H 0.11395 0.40844 0.4965 0.0
H788 H 0.15441 0.44932 0.69175 0.0
H789 H 0.15739 0.54077 0.67538 0.0
C790 C 0.13878 0.58023 0.56817 0.0
C791 C 0.12803 0.59539 0.50992 0.0
C792 C 0.13735 0.52764 0.57645 0.0
C793 C 0.11616 0.55682 0.45686 0.0
C794 C 0.11465 0.5046 0.46491 0.0
C795 C 0.12337 0.43742 0.53611 0.0
C796 C 0.1339 0.42222 0.59581 0.0
C797 C 0.12506 0.48968 0.52555 0.0
C798 C 0.1462 0.46003 0.64494 0.0
C799 C 0.14788 0.51232 0.63578 0.0
H800 H 0.617 0.5797 0.07262 0.0
H801 H 0.64813 0.59336 0.82526 0.0
H802 H 0.64988 0.50242 0.81501 0.0
H803 H 0.64285 0.41942 0.8798 0.0
H804 H 0.6126 0.40872 0.13365 0.0
H805 H 0.61022 0.49806 0.13804 0.0
C806 C 0.62389 0.56239 1.01484 0.0
C807 C 0.63219 0.59266 0.94843 0.0
C808 C 0.62516 0.51082 1.0116 0.0
C809 C 0.64153 0.57046 0.87655 0.0
C810 C 0.64259 0.51863 0.87106 0.0
C811 C 0.63585 0.43689 0.93653 0.0
C812 C 0.62784 0.40743 1.00573 0.0
C813 C 0.63457 0.48858 0.9391 0.0
C814 C 0.61877 0.43045 0.07875 0.0
C815 C 0.61738 0.48152 0.08135 0.0
H816 H 0.39788 0.93076 0.07354 0.0
H817 H 0.35895 0.86469 0.86728 0.0
H818 H 0.35743 0.94976 0.8371 0.0
H819 H 0.36625 0.044 0.8753 0.0
H820 H 0.40545 0.11253 0.07831 0.0
H821 H 0.40804 0.02604 0.10117 0.0
C822 C 0.38929 0.9347 1.02043 0.0
C823 C 0.37839 0.8908 0.97417 0.0
C824 C 0.38852 0.98465 1.00262 0.0
C825 C 0.36721 0.89755 0.9067 0.0
C826 C 0.36639 0.9464 0.88832 0.0
C827 C 0.37538 0.03999 0.92424 0.0
C828 C 0.38552 0.08447 0.9755 0.0
C829 C 0.37679 0.99036 0.93741 0.0
C830 C 0.39748 0.07868 0.03734 0.0
C831 C 0.39894 0.02924 0.05103 0.0
H832 H 0.35476 0.393 0.03792 0.0
H833 H 0.39509 0.39806 0.86667 0.0
H834 H 0.39542 0.4861 0.84387 0.0
H835 H 0.38564 0.56451 0.88489 0.0
H836 H 0.34571 0.5628 0.05975 0.0
H837 H 0.34366 0.47086 0.06662 0.0
C838 C 0.36348 0.41333 0.99479 0.0
C839 C 0.37509 0.38955 0.95667 0.0
C840 C 0.36371 0.46474 0.9825 0.0
C841 C 0.38627 0.41603 0.89982 0.0
C842 C 0.38643 0.46639 0.88592 0.0
C843 C 0.37641 0.54394 0.92368 0.0
C844 C 0.36601 0.57059 0.97283 0.0
C845 C 0.37545 0.49159 0.92923 0.0
C846 C 0.35395 0.54318 1.02141 0.0
C847 C 0.35279 0.49063 0.02599 0.0
H848 H 0.64767 0.08505 0.90292 0.0
H849 H 0.60439 0.07758 0.03572 0.0
H850 H 0.60364 0.98942 0.06269 0.0
H851 H 0.61555 0.91542 0.05486 0.0
H852 H 0.65894 0.92321 0.92463 0.0
H853 H 0.65955 0.0107 0.89427 0.0
C854 C 0.63813 0.06438 0.93858 0.0
C855 C 0.62625 0.08842 0.96855 0.0
C856 C 0.63785 0.01389 0.95605 0.0
C857 C 0.61377 0.06031 1.01196 0.0
C858 C 0.61333 0.00985 0.02811 0.0
C859 C 0.62516 0.93623 1.02005 0.0
C860 C 0.63728 0.91285 0.99363 0.0
C861 C 0.62538 0.98649 1.00162 0.0
C862 C 0.6496 0.94047 0.94807 0.0
C863 C 0.6499 0.99047 0.92956 0.0
H864 H 0.13158 0.34691 0.29369 0.0
H865 H 0.12052 0.18042 0.26927 0.0
H866 H 0.1225 0.16881 0.07664 0.0
H867 H 0.12778 0.20639 0.91008 0.0
H868 H 0.13771 0.37352 0.93902 0.0
H869 H 0.13602 0.38395 0.13011 0.0
C870 C 0.12982 0.30794 0.24665 0.0
C871 C 0.12663 0.26462 0.29904 0.0
C872 C 0.13075 0.30154 0.13423 0.0
C873 C 0.12373 0.2147 0.23393 0.0
C874 C 0.12471 0.20805 0.12256 0.0
C875 C 0.12932 0.24511 0.95777 0.0
C876 C 0.13244 0.28921 0.90674 0.0
C877 C 0.1283 0.25116 0.07086 0.0
C878 C 0.13496 0.33871 0.97323 0.0
C879 C 0.13405 0.34482 0.08376 0.0
H880 H 0.88057 0.29111 0.24285 0.0
H881 H 0.87277 0.12447 0.21707 0.0
H882 H 0.87082 0.11294 0.02495 0.0
H883 H 0.87128 0.14904 0.85992 0.0
H884 H 0.87625 0.31428 0.88192 0.0
H885 H 0.87914 0.32721 0.07517 0.0
C886 C 0.87805 0.25217 0.1956 0.0
C887 C 0.87633 0.20851 0.24752 0.0
C888 C 0.87672 0.2455 0.08223 0.0
C889 C 0.8738 0.15883 0.1819 0.0
C890 C 0.87275 0.15215 0.07088 0.0
C891 C 0.87326 0.18814 0.90661 0.0
C892 C 0.87455 0.23099 0.85333 0.0
C893 C 0.87426 0.19503 1.01944 0.0
C894 C 0.87623 0.28073 0.91789 0.0
C895 C 0.87762 0.28802 0.02965 0.0
H896 H 0.14114 0.83264 0.19934 0.0
H897 H 0.12219 0.67362 0.22504 0.0
H898 H 0.11753 0.65075 0.03277 0.0
H899 H 0.11885 0.67558 0.85395 0.0
H900 H 0.13731 0.83511 0.82955 0.0
H901 H 0.14213 0.85768 1.02138 0.0
C902 C 0.13589 0.79292 0.16321 0.0
C903 C 0.13176 0.75527 0.22928 0.0
C904 C 0.13326 0.77992 0.0511 0.0
C905 C 0.12522 0.70392 0.1787 0.0
C906 C 0.12265 0.69074 0.06774 0.0
C907 C 0.12406 0.7153 0.8903 0.0
C908 C 0.12817 0.75312 0.82449 0.0
C909 C 0.12661 0.7283 1.00259 0.0
C910 C 0.13448 0.80457 0.87547 0.0
C911 C 0.13711 0.81762 0.98626 0.0
H912 H 0.88835 0.66718 0.81584 0.0
H913 H 0.87573 0.81266 0.81048 0.0
H914 H 0.87127 0.82259 0.99993 0.0
H915 H 0.87016 0.78845 0.16943 0.0
H916 H 0.88554 0.64814 0.17863 0.0
H917 H 0.88989 0.63819 0.98894 0.0
C918 C 0.88439 0.70077 0.85563 0.0
C919 C 0.88131 0.73717 0.79503 0.0
C920 C 0.88259 0.7076 0.96723 0.0
C921 C 0.8772 0.78203 0.85147 0.0
C922 C 0.87488 0.78815 0.96104 0.0
C923 C 0.87483 0.75635 0.13063 0.0
C924 C 0.87785 0.71977 0.19091 0.0
C925 C 0.87743 0.75105 1.02016 0.0
C926 C 0.88352 0.67782 0.13687 0.0
C927 C 0.88583 0.67178 0.02728 0.0
H928 H 0.6472 0.82769 0.40698 0.0
H929 H 0.62454 0.67334 0.25496 0.0
H930 H 0.61908 0.64975 0.42817 0.0
H931 H 0.62088 0.67227 0.62658 0.0
H932 H 0.64382 0.82658 0.77734 0.0
H933 H 0.64905 0.85009 0.60443 0.0
C934 C 0.64096 0.78886 0.41129 0.0
C935 C 0.63592 0.75304 0.3153 0.0
C936 C 0.63803 0.77516 0.51282 0.0
C937 C 0.62819 0.70262 0.32517 0.0
C938 C 0.62517 0.6889 0.42528 0.0
C939 C 0.62712 0.71104 0.62201 0.0
C940 C 0.63225 0.74696 0.71786 0.0
C941 C 0.63003 0.7247 0.52023 0.0
C942 C 0.64003 0.79727 0.70753 0.0
C943 C 0.64294 0.81096 0.60749 0.0
H944 H 0.37423 0.66252 0.6366 0.0
H945 H 0.37554 0.82217 0.77281 0.0
H946 H 0.37217 0.84209 0.59839 0.0
H947 H 0.37061 0.81571 0.402 0.0
H948 H 0.36779 0.65459 0.2633 0.0
H949 H 0.36972 0.63361 0.43968 0.0
C950 C 0.37315 0.70123 0.62868 0.0
C951 C 0.37392 0.74008 0.72174 0.0
C952 C 0.37133 0.71238 0.52527 0.0
C953 C 0.37359 0.79055 0.7063 0.0
C954 C 0.37208 0.80216 0.60493 0.0
C955 C 0.37046 0.7759 0.40998 0.0
C956 C 0.3699 0.73746 0.317 0.0
C957 C 0.37115 0.76369 0.51319 0.0
C958 C 0.369 0.68578 0.33138 0.0
C959 C 0.36995 0.67361 0.43322 0.0
H960 H 0.62306 0.32153 0.35841 0.0
H961 H 0.62953 0.16954 0.21634 0.0
H962 H 0.63223 0.14878 0.392 0.0
H963 H 0.63305 0.17389 0.58901 0.0
H964 H 0.62585 0.32503 0.73054 0.0
H965 H 0.62324 0.34576 0.55497 0.0
C966 C 0.6252 0.28396 0.36572 0.0
C967 C 0.6266 0.24793 0.27245 0.0
C968 C 0.62656 0.27194 0.46827 0.0
C969 C 0.62888 0.19887 0.28512 0.0
C970 C 0.63031 0.18681 0.38634 0.0
C971 C 0.6308 0.21129 0.58157 0.0
C972 C 0.62934 0.24732 0.67476 0.0
C973 C 0.62925 0.22303 0.47891 0.0
C974 C 0.62669 0.29586 0.66186 0.0
C975 C 0.62529 0.30791 0.5607 0.0
H976 H 0.38736 0.31997 0.38502 0.0
H977 H 0.37516 0.15884 0.23076 0.0
H978 H 0.37188 0.13228 0.40283 0.0
H979 H 0.3721 0.15432 0.60043 0.0
H980 H 0.38567 0.31488 0.75481 0.0
H981 H 0.38894 0.34161 0.58296 0.0
C982 C 0.38391 0.27894 0.38863 0.0
C983 C 0.38092 0.24178 0.29228 0.0
C984 C 0.38241 0.26363 0.48967 0.0
C985 C 0.37696 0.1888 0.30125 0.0
C986 C 0.37523 0.17348 0.40068 0.0
C987 C 0.37593 0.19523 0.59688 0.0
C988 C 0.37887 0.23235 0.69328 0.0
C989 C 0.37783 0.21043 0.49591 0.0
C990 C 0.3836 0.2851 0.6844 0.0
C991 C 0.38537 0.30046 0.585 0.0
H992 H 0.0281 0.31746 0.40737 0.0
H993 H 0.02651 0.15958 0.44621 0.0
H994 H 0.99936 0.14354 0.45335 0.0
H995 H 0.97587 0.17216 0.43337 0.0
H996 H 0.97736 0.33061 0.3996 0.0
H997 H 0.00466 0.34897 0.40702 0.0
C998 C 0.02179 0.27972 0.41843 0.0
C999 C 0.02933 0.2396 0.42536 0.0
C1000 C 0.00615 0.27089 0.42312 0.0
C1001 C 0.02102 0.19113 0.44105 0.0
C1002 C 0.00548 0.18187 0.44455 0.0
C1003 C 0.9822 0.21092 0.42918 0.0
C1004 C 0.97459 0.24993 0.4153 0.0
C1005 C 0.99789 0.22111 0.43355 0.0
C1006 C 0.98293 0.30006 0.4109 0.0
C1007 C 0.99855 0.3104 0.41429 0.0
H1008 H 0.98945 0.71365 0.32812 0.0
H1009 H 0.97228 0.78505 0.61552 0.0
H1010 H 0.99559 0.7891 0.71098 0.0
H1011 H 0.02111 0.7739 0.7123 0.0
H1012 H 0.03843 0.70569 0.42293 0.0
H1013 H 0.01496 0.7005 0.32827 0.0
C1014 C 0.99082 0.73085 0.41134 0.0
C1015 C 0.97903 0.74914 0.46407 0.0
C1016 C 0.00436 0.73403 0.46538 0.0
C1017 C 0.98101 0.77001 0.57273 0.0
C1018 C 0.99441 0.77273 0.62738 0.0
C1019 C 0.01971 0.75771 0.62859 0.0
C1020 C 0.03153 0.74024 0.57478 0.0
C1021 C 0.00617 0.75494 0.57448 0.0
C1022 C 0.0296 0.71996 0.46602 0.0
C1023 C 0.01614 0.71669 0.41197 0.0
H1024 H 0.52894 0.84354 0.98835 0.0
H1025 H 0.53499 0.68863 0.99635 0.0
H1026 H 0.50798 0.65595 0.98618 0.0
H1027 H 0.48276 0.67373 1.00019 0.0
H1028 H 0.47657 0.82876 0.99715 0.0
H1029 H 0.5034 0.85887 0.97851 0.0
C1030 C 0.52435 0.80245 0.98638 0.0
C1031 C 0.53408 0.76872 0.99449 0.0
C1032 C 0.50874 0.78403 0.98208 0.0
C1033 C 0.52788 0.71546 0.98989 0.0
C1034 C 0.51239 0.69683 0.98497 0.0
C1035 C 0.48725 0.71389 0.99305 0.0
C1036 C 0.47764 0.74906 1.00085 0.0
C1037 C 0.50273 0.73106 0.98459 0.0
C1038 C 0.48363 0.80082 0.99073 0.0
C1039 C 0.49902 0.81814 0.98127 0.0
H1040 H 0.49451 0.3251 0.99392 0.0
H1041 H 0.46723 0.18772 0.08252 0.0
H1042 H 0.4871 0.1411 0.04128 0.0
H1043 H 0.51274 0.14025 0.98831 0.0
H1044 H 0.54075 0.27978 0.91598 0.0
H1045 H 0.52026 0.32519 0.94633 0.0
C1046 C 0.4929 0.28518 1.00567 0.0
C1047 C 0.47926 0.26027 0.04142 0.0
C1048 C 0.50461 0.25907 0.98588 0.0
C1049 C 0.4774 0.20793 0.0532 0.0
C1050 C 0.48886 0.18126 0.0308 0.0
C1051 C 0.51429 0.18053 0.97878 0.0
C1052 C 0.52818 0.20671 0.94981 0.0
C1053 C 0.50255 0.20657 0.99807 0.0
C1054 C 0.53016 0.25904 0.9389 0.0
C1055 C 0.51844 0.28488 0.95579 0.0
loop_
_geom_bond_atom_site_label_1
_geom_bond_atom_site_label_2
_geom_bond_distance
_geom_bond_site_symmetry_2
_ccdc_geom_bond_type
Eu0 N31 2.657 . S
Eu0 N38 2.609 . S
Eu0 O44 2.558 . S
Eu0 O45 2.612 . S
Eu0 O47 2.339 . S
Eu0 O48 2.563 . S
Eu0 O49 2.419 . S
Eu0 O51 2.380 . S
Eu0 O52 2.432 . S
Eu0 C64 2.848 . S
C1 C4 1.429 . S
C1 C5 1.411 . S
C1 N8 1.377 . S
C2 C4 1.420 . S
C2 C6 1.423 . S
C2 C14 1.392 . S
C3 C5 1.420 . S
C3 C6 1.351 . S
C3 H26 0.931 . S
C4 C1 1.429 . S
C4 C2 1.420 . S
C4 N12 1.362 . S
C5 C1 1.411 . S
C5 C3 1.420 . S
C5 C10 1.395 . S
C6 C2 1.423 . S
C6 C3 1.351 . S
C6 H18 0.930 1_554 S
C7 C9 1.400 . S
C7 C10 1.386 . S
C7 H19 0.930 . S
N8 C1 1.377 . S
N8 C9 1.321 . S
N8 Eu11 2.609 . S
C9 C7 1.400 . S
C9 N8 1.321 . S
C9 H16 0.930 . S
C10 C5 1.395 . S
C10 C7 1.386 . S
C10 H29 0.930 . S
Eu11 N8 2.609 . S
Eu11 N12 2.657 . S
Eu11 O45 2.380 . S
Eu11 O46 2.432 . S
Eu11 O50 2.558 . S
Eu11 O51 2.612 . S
Eu11 O53 2.339 . S
Eu11 O54 2.563 . S
Eu11 O55 2.419 . S
Eu11 C75 2.848 . S
N12 C4 1.362 . S
N12 Eu11 2.657 . S
N12 C13 1.334 . S
C13 N12 1.334 . S
C13 C15 1.413 . S
C13 H20 0.929 . S
C14 C2 1.392 . S
C14 C15 1.367 . S
C14 H22 0.930 . S
C15 C13 1.413 . S
C15 C14 1.367 . S
C15 H17 0.930 . S
H16 C9 0.930 . S
H17 C15 0.930 . S
H18 C6 0.930 1_556 S
H19 C7 0.930 . S
H20 C13 0.929 . S
H21 C35 0.930 . S
H22 C14 0.930 . S
H23 C41 0.930 . S
H24 C32 0.929 . S
H25 C39 0.930 . S
H26 C3 0.931 . S
H27 C33 0.930 . S
H28 C66 0.930 . S
H29 C10 0.930 . S
H30 C65 0.931 . S
N31 Eu0 2.657 . S
N31 C32 1.334 . S
N31 C36 1.362 . S
C32 H24 0.929 . S
C32 N31 1.334 . S
C32 C35 1.413 . S
C33 H27 0.930 . S
C33 C34 1.392 . S
C33 C35 1.367 . S
C34 C33 1.392 . S
C34 C36 1.420 . S
C34 C66 1.423 . S
C35 H21 0.930 . S
C35 C32 1.413 . S
C35 C33 1.367 . S
C36 N31 1.362 . S
C36 C34 1.420 . S
C36 C40 1.429 . S
H37 C42 0.930 . S
N38 Eu0 2.609 . S
N38 C40 1.377 . S
N38 C41 1.321 . S
C39 H25 0.930 . S
C39 C41 1.400 . S
C39 C42 1.386 . S
C40 C36 1.429 . S
C40 N38 1.377 . S
C40 C43 1.411 . S
C41 H23 0.930 . S
C41 N38 1.321 . S
C41 C39 1.400 . S
C42 H37 0.930 . S
C42 C39 1.386 . S
C42 C43 1.395 . S
C43 C40 1.411 . S
C43 C42 1.395 . S
C43 C65 1.420 . S
O44 Eu0 2.558 . S
O44 C64 1.257 . S
O45 Eu0 2.612 . S
O45 Eu11 2.380 . S
O45 C56 1.276 . S
O46 Eu11 2.432 . S
O46 C63 1.264 . S
O47 Eu0 2.339 . S
O47 C63 1.254 . S
O48 Eu0 2.563 . S
O48 C56 1.235 . S
O49 Eu0 2.419 . S
O49 C64 1.249 . S
O50 Eu11 2.558 . S
O50 C75 1.257 . S
O51 Eu0 2.380 . S
O51 Eu11 2.612 . S
O51 C67 1.276 . S
O52 Eu0 2.432 . S
O52 C74 1.264 . S
O53 Eu11 2.339 . S
O53 C74 1.254 . S
O54 Eu11 2.563 . S
O54 C67 1.235 . S
O55 Eu11 2.419 . S
O55 C75 1.249 . S
C56 O45 1.276 . S
C56 O48 1.235 . S
C57 C59 1.393 . S
C57 C61 1.395 . S
C57 C64 1.492 . S
C58 C59 1.392 . S
C58 C60 1.386 . S
C59 C57 1.393 . S
C59 C58 1.392 . S
C59 H76 0.930 . S
C60 C58 1.386 . S
C60 C62 1.395 . S
C60 H77 0.930 . S
C61 C57 1.395 . S
C61 C62 1.379 . S
C61 H78 0.930 . S
C62 C60 1.395 . S
C62 C61 1.379 . S
C62 H79 0.930 . S
C63 O46 1.264 . S
C63 O47 1.254 . S
C64 Eu0 2.848 . S
C64 O44 1.257 . S
C64 O49 1.249 . S
C64 C57 1.492 . S
C65 H30 0.931 . S
C65 C43 1.420 . S
C65 C66 1.351 . S
C66 H28 0.930 . S
C66 C34 1.423 . S
C66 C65 1.351 . S
C67 O51 1.276 . S
C67 O54 1.235 . S
C68 C69 1.393 . S
C68 C72 1.395 . S
C68 C75 1.492 . S
C69 C68 1.393 . S
C69 C70 1.392 . S
C69 H80 0.930 . S
C70 C69 1.392 . S
C70 C71 1.386 . S
C71 C70 1.386 . S
C71 C73 1.395 . S
C71 H81 0.930 . S
C72 C68 1.395 . S
C72 C73 1.379 . S
C72 H82 0.930 . S
C73 C71 1.395 . S
C73 C72 1.379 . S
C73 H83 0.930 . S
C74 O52 1.264 . S
C74 O53 1.254 . S
C75 Eu11 2.848 . S
C75 O50 1.257 . S
C75 O55 1.249 . S
C75 C68 1.492 . S
H76 C59 0.930 . S
H77 C60 0.930 . S
H78 C61 0.930 . S
H79 C62 0.930 . S
H80 C69 0.930 . S
H81 C71 0.930 . S
H82 C72 0.930 . S
H83 C73 0.930 . S
Eu84 N115 2.657 . S
Eu84 N122 2.609 . S
Eu84 O128 2.558 . S
Eu84 O129 2.612 . S
Eu84 O131 2.339 . S
Eu84 O132 2.563 . S
Eu84 O133 2.419 . S
Eu84 O135 2.380 . S
Eu84 O136 2.432 . S
Eu84 C148 2.848 . S
C85 C88 1.429 . S
C85 C89 1.411 . S
C85 N92 1.377 . S
C86 C88 1.420 . S
C86 C90 1.423 . S
C86 C98 1.392 . S
C87 C89 1.420 . S
C87 C90 1.351 . S
C87 H110 0.931 . S
C88 C85 1.429 . S
C88 C86 1.420 . S
C88 N96 1.362 . S
C89 C85 1.411 . S
C89 C87 1.420 . S
C89 C94 1.395 . S
C90 C86 1.423 . S
C90 C87 1.351 . S
C90 H102 0.930 . S
C91 C93 1.400 . S
C91 C94 1.386 . S
C91 H103 0.930 . S
N92 C85 1.377 . S
N92 C93 1.321 . S
N92 Eu95 2.609 . S
C93 C91 1.400 . S
C93 N92 1.321 . S
C93 H100 0.930 . S
C94 C89 1.395 . S
C94 C91 1.386 . S
C94 H113 0.930 . S
Eu95 N92 2.609 . S
Eu95 N96 2.657 . S
Eu95 O129 2.380 . S
Eu95 O130 2.432 . S
Eu95 O134 2.558 . S
Eu95 O135 2.612 . S
Eu95 O137 2.339 . S
Eu95 O138 2.563 . S
Eu95 O139 2.419 . S
Eu95 C159 2.848 . S
N96 C88 1.362 . S
N96 Eu95 2.657 . S
N96 C97 1.334 . S
C97 N96 1.334 . S
C97 C99 1.413 . S
C97 H104 0.929 . S
C98 C86 1.392 . S
C98 C99 1.367 . S
C98 H106 0.930 . S
C99 C97 1.413 . S
C99 C98 1.367 . S
C99 H101 0.930 . S
H100 C93 0.930 . S
H101 C99 0.930 . S
H102 C90 0.930 . S
H103 C91 0.930 . S
H104 C97 0.929 . S
H105 C119 0.930 . S
H106 C98 0.930 . S
H107 C125 0.930 . S
H108 C116 0.929 . S
H109 C123 0.930 . S
H110 C87 0.931 . S
H111 C117 0.930 1_556 S
H112 C150 0.930 1_556 S
H113 C94 0.930 . S
H114 C149 0.931 . S
N115 Eu84 2.657 . S
N115 C116 1.334 . S
N115 C120 1.362 . S
C116 H108 0.929 . S
C116 N115 1.334 . S
C116 C119 1.413 . S
C117 H111 0.930 1_554 S
C117 C118 1.392 . S
C117 C119 1.367 . S
C118 C117 1.392 . S
C118 C120 1.420 . S
C118 C150 1.423 . S
C119 H105 0.930 . S
C119 C116 1.413 . S
C119 C117 1.367 . S
C120 N115 1.362 . S
C120 C118 1.420 . S
C120 C124 1.429 . S
H121 C126 0.930 . S
N122 Eu84 2.609 . S
N122 C124 1.377 . S
N122 C125 1.321 . S
C123 H109 0.930 . S
C123 C125 1.400 . S
C123 C126 1.386 . S
C124 C120 1.429 . S
C124 N122 1.377 . S
C124 C127 1.411 . S
C125 H107 0.930 . S
C125 N122 1.321 . S
C125 C123 1.400 . S
C126 H121 0.930 . S
C126 C123 1.386 . S
C126 C127 1.395 . S
C127 C124 1.411 . S
C127 C126 1.395 . S
C127 C149 1.420 . S
O128 Eu84 2.558 . S
O128 C148 1.257 . S
O129 Eu84 2.612 . S
O129 Eu95 2.380 . S
O129 C140 1.276 . S
O130 Eu95 2.432 . S
O130 C147 1.264 . S
O131 Eu84 2.339 . S
O131 C147 1.254 . S
O132 Eu84 2.563 . S
O132 C140 1.235 . S
O133 Eu84 2.419 . S
O133 C148 1.249 . S
O134 Eu95 2.558 . S
O134 C159 1.257 . S
O135 Eu84 2.380 . S
O135 Eu95 2.612 . S
O135 C151 1.276 . S
O136 Eu84 2.432 . S
O136 C158 1.264 . S
O137 Eu95 2.339 . S
O137 C158 1.254 . S
O138 Eu95 2.563 . S
O138 C151 1.235 . S
O139 Eu95 2.419 . S
O139 C159 1.249 . S
C140 O129 1.276 . S
C140 O132 1.235 . S
C141 C143 1.393 . S
C141 C145 1.395 . S
C141 C148 1.492 . S
C142 C143 1.392 . S
C142 C144 1.386 . S
C143 C141 1.393 . S
C143 C142 1.392 . S
C143 H160 0.930 . S
C144 C142 1.386 . S
C144 C146 1.395 . S
C144 H161 0.930 . S
C145 C141 1.395 . S
C145 C146 1.379 . S
C145 H162 0.930 . S
C146 C144 1.395 . S
C146 C145 1.379 . S
C146 H163 0.930 . S
C147 O130 1.264 . S
C147 O131 1.254 . S
C148 Eu84 2.848 . S
C148 O128 1.257 . S
C148 O133 1.249 . S
C148 C141 1.492 . S
C149 H114 0.931 . S
C149 C127 1.420 . S
C149 C150 1.351 . S
C150 H112 0.930 1_554 S
C150 C118 1.423 . S
C150 C149 1.351 . S
C151 O135 1.276 . S
C151 O138 1.235 . S
C152 C153 1.393 . S
C152 C156 1.395 . S
C152 C159 1.492 . S
C153 C152 1.393 . S
C153 C154 1.392 . S
C153 H164 0.930 . S
C154 C153 1.392 . S
C154 C155 1.386 . S
C155 C154 1.386 . S
C155 C157 1.395 . S
C155 H165 0.930 . S
C156 C152 1.395 . S
C156 C157 1.379 . S
C156 H166 0.930 . S
C157 C155 1.395 . S
C157 C156 1.379 . S
C157 H167 0.930 . S
C158 O136 1.264 . S
C158 O137 1.254 . S
C159 Eu95 2.848 . S
C159 O134 1.257 . S
C159 O139 1.249 . S
C159 C152 1.492 . S
H160 C143 0.930 . S
H161 C144 0.930 . S
H162 C145 0.930 . S
H163 C146 0.930 . S
H164 C153 0.930 . S
H165 C155 0.930 . S
H166 C156 0.930 . S
H167 C157 0.930 . S
Eu168 N199 2.657 . S
Eu168 N206 2.609 . S
Eu168 O212 2.558 . S
Eu168 O213 2.612 . S
Eu168 O215 2.339 . S
Eu168 O216 2.563 . S
Eu168 O217 2.419 . S
Eu168 O219 2.380 . S
Eu168 O220 2.432 . S
Eu168 C232 2.848 . S
C169 C172 1.429 . S
C169 C173 1.411 . S
C169 N176 1.377 . S
C170 C172 1.420 . S
C170 C174 1.423 . S
C170 C182 1.392 . S
C171 C173 1.420 . S
C171 C174 1.351 . S
C171 H194 0.931 . S
C172 C169 1.429 . S
C172 C170 1.420 . S
C172 N180 1.362 . S
C173 C169 1.411 . S
C173 C171 1.420 . S
C173 C178 1.395 . S
C174 C170 1.423 . S
C174 C171 1.351 . S
C174 H186 0.930 . S
C175 C177 1.400 . S
C175 C178 1.386 . S
C175 H187 0.930 . S
N176 C169 1.377 . S
N176 C177 1.321 . S
N176 Eu179 2.609 . S
C177 C175 1.400 . S
C177 N176 1.321 . S
C177 H184 0.930 . S
C178 C173 1.395 . S
C178 C175 1.386 . S
C178 H197 0.930 . S
Eu179 N176 2.609 . S
Eu179 N180 2.657 . S
Eu179 O213 2.380 . S
Eu179 O214 2.432 . S
Eu179 O218 2.558 . S
Eu179 O219 2.612 . S
Eu179 O221 2.339 . S
Eu179 O222 2.563 . S
Eu179 O223 2.419 . S
Eu179 C243 2.848 . S
N180 C172 1.362 . S
N180 Eu179 2.657 . S
N180 C181 1.334 . S
C181 N180 1.334 . S
C181 C183 1.413 . S
C181 H188 0.929 . S
C182 C170 1.392 . S
C182 C183 1.367 . S
C182 H190 0.930 . S
C183 C181 1.413 . S
C183 C182 1.367 . S
C183 H185 0.930 . S
H184 C177 0.930 . S
H185 C183 0.930 . S
H186 C174 0.930 . S
H187 C175 0.930 . S
H188 C181 0.929 . S
H189 C203 0.930 . S
H190 C182 0.930 . S
H191 C209 0.930 . S
H192 C200 0.929 . S
H193 C207 0.930 . S
H194 C171 0.931 . S
H195 C201 0.930 . S
H196 C234 0.930 1_554 S
H197 C178 0.930 . S
H198 C233 0.931 1_554 S
N199 Eu168 2.657 . S
N199 C200 1.334 . S
N199 C204 1.362 . S
C200 H192 0.929 . S
C200 N199 1.334 . S
C200 C203 1.413 . S
C201 H195 0.930 . S
C201 C202 1.392 . S
C201 C203 1.367 . S
C202 C201 1.392 . S
C202 C204 1.420 . S
C202 C234 1.423 . S
C203 H189 0.930 . S
C203 C200 1.413 . S
C203 C201 1.367 . S
C204 N199 1.362 . S
C204 C202 1.420 . S
C204 C208 1.429 . S
H205 C210 0.930 . S
N206 Eu168 2.609 . S
N206 C208 1.377 . S
N206 C209 1.321 . S
C207 H193 0.930 . S
C207 C209 1.400 . S
C207 C210 1.386 . S
C208 C204 1.429 . S
C208 N206 1.377 . S
C208 C211 1.411 . S
C209 H191 0.930 . S
C209 N206 1.321 . S
C209 C207 1.400 . S
C210 H205 0.930 . S
C210 C207 1.386 . S
C210 C211 1.395 . S
C211 C208 1.411 . S
C211 C210 1.395 . S
C211 C233 1.420 . S
O212 Eu168 2.558 . S
O212 C232 1.257 . S
O213 Eu168 2.612 . S
O213 Eu179 2.380 . S
O213 C224 1.276 . S
O214 Eu179 2.432 . S
O214 C231 1.264 . S
O215 Eu168 2.339 . S
O215 C231 1.254 . S
O216 Eu168 2.563 . S
O216 C224 1.235 . S
O217 Eu168 2.419 . S
O217 C232 1.249 . S
O218 Eu179 2.558 . S
O218 C243 1.257 . S
O219 Eu168 2.380 . S
O219 Eu179 2.612 . S
O219 C235 1.276 . S
O220 Eu168 2.432 . S
O220 C242 1.264 . S
O221 Eu179 2.339 . S
O221 C242 1.254 . S
O222 Eu179 2.563 . S
O222 C235 1.235 . S
O223 Eu179 2.419 . S
O223 C243 1.249 . S
C224 O213 1.276 . S
C224 O216 1.235 . S
C225 C227 1.393 . S
C225 C229 1.395 . S
C225 C232 1.492 . S
C226 C227 1.392 . S
C226 C228 1.386 . S
C227 C225 1.393 . S
C227 C226 1.392 . S
C227 H244 0.930 . S
C228 C226 1.386 . S
C228 C230 1.395 . S
C228 H245 0.930 . S
C229 C225 1.395 . S
C229 C230 1.379 . S
C229 H246 0.930 . S
C230 C228 1.395 . S
C230 C229 1.379 . S
C230 H247 0.930 . S
C231 O214 1.264 . S
C231 O215 1.254 . S
C232 Eu168 2.848 . S
C232 O212 1.257 . S
C232 O217 1.249 . S
C232 C225 1.492 . S
C233 H198 0.931 1_556 S
C233 C211 1.420 . S
C233 C234 1.351 . S
C234 H196 0.930 1_556 S
C234 C202 1.423 . S
C234 C233 1.351 . S
C235 O219 1.276 . S
C235 O222 1.235 . S
C236 C237 1.393 . S
C236 C240 1.395 . S
C236 C243 1.492 . S
C237 C236 1.393 . S
C237 C238 1.392 . S
C237 H248 0.930 . S
C238 C237 1.392 . S
C238 C239 1.386 . S
C239 C238 1.386 . S
C239 C241 1.395 . S
C239 H249 0.930 . S
C240 C236 1.395 . S
C240 C241 1.379 . S
C240 H250 0.930 . S
C241 C239 1.395 . S
C241 C240 1.379 . S
C241 H251 0.930 . S
C242 O220 1.264 . S
C242 O221 1.254 . S
C243 Eu179 2.848 . S
C243 O218 1.257 . S
C243 O223 1.249 . S
C243 C236 1.492 . S
H244 C227 0.930 . S
H245 C228 0.930 . S
H246 C229 0.930 . S
H247 C230 0.930 . S
H248 C237 0.930 . S
H249 C239 0.930 . S
H250 C240 0.930 . S
H251 C241 0.930 . S
Eu252 N283 2.657 . S
Eu252 N290 2.609 . S
Eu252 O296 2.558 . S
Eu252 O297 2.612 . S
Eu252 O299 2.339 . S
Eu252 O300 2.563 . S
Eu252 O301 2.419 . S
Eu252 O303 2.380 . S
Eu252 O304 2.432 . S
Eu252 C316 2.848 . S
C253 C256 1.429 . S
C253 C257 1.411 . S
C253 N260 1.377 . S
C254 C256 1.420 . S
C254 C258 1.423 . S
C254 C266 1.392 . S
C255 C257 1.420 . S
C255 C258 1.351 . S
C255 H278 0.931 . S
C256 C253 1.429 . S
C256 C254 1.420 . S
C256 N264 1.362 . S
C257 C253 1.411 . S
C257 C255 1.420 . S
C257 C262 1.395 . S
C258 C254 1.423 . S
C258 C255 1.351 . S
C258 H270 0.930 . S
C259 C261 1.400 . S
C259 C262 1.386 . S
C259 H271 0.930 . S
N260 C253 1.377 . S
N260 C261 1.321 . S
N260 Eu263 2.609 . S
C261 C259 1.400 . S
C261 N260 1.321 . S
C261 H268 0.930 . S
C262 C257 1.395 . S
C262 C259 1.386 . S
C262 H281 0.930 . S
Eu263 N260 2.609 . S
Eu263 N264 2.657 . S
Eu263 O297 2.380 . S
Eu263 O298 2.432 . S
Eu263 O302 2.558 . S
Eu263 O303 2.612 . S
Eu263 O305 2.339 . S
Eu263 O306 2.563 . S
Eu263 O307 2.419 . S
Eu263 C327 2.848 . S
N264 C256 1.362 . S
N264 Eu263 2.657 . S
N264 C265 1.334 . S
C265 N264 1.334 . S
C265 C267 1.413 . S
C265 H272 0.929 . S
C266 C254 1.392 . S
C266 C267 1.367 . S
C266 H274 0.930 . S
C267 C265 1.413 . S
C267 C266 1.367 . S
C267 H269 0.930 . S
H268 C261 0.930 . S
H269 C267 0.930 . S
H270 C258 0.930 . S
H271 C259 0.930 . S
H272 C265 0.929 . S
H273 C287 0.930 . S
H274 C266 0.930 . S
H275 C293 0.930 . S
H276 C284 0.929 . S
H277 C291 0.930 . S
H278 C255 0.931 . S
H279 C285 0.930 1_554 S
H280 C318 0.930 1_554 S
H281 C262 0.930 . S
H282 C317 0.931 . S
N283 Eu252 2.657 . S
N283 C284 1.334 . S
N283 C288 1.362 . S
C284 H276 0.929 . S
C284 N283 1.334 . S
C284 C287 1.413 . S
C285 H279 0.930 1_556 S
C285 C286 1.392 . S
C285 C287 1.367 . S
C286 C285 1.392 . S
C286 C288 1.420 . S
C286 C318 1.423 . S
C287 H273 0.930 . S
C287 C284 1.413 . S
C287 C285 1.367 . S
C288 N283 1.362 . S
C288 C286 1.420 . S
C288 C292 1.429 . S
H289 C294 0.930 . S
N290 Eu252 2.609 . S
N290 C292 1.377 . S
N290 C293 1.321 . S
C291 H277 0.930 . S
C291 C293 1.400 . S
C291 C294 1.386 . S
C292 C288 1.429 . S
C292 N290 1.377 . S
C292 C295 1.411 . S
C293 H275 0.930 . S
C293 N290 1.321 . S
C293 C291 1.400 . S
C294 H289 0.930 . S
C294 C291 1.386 . S
C294 C295 1.395 . S
C295 C292 1.411 . S
C295 C294 1.395 . S
C295 C317 1.420 . S
O296 Eu252 2.558 . S
O296 C316 1.257 . S
O297 Eu252 2.612 . S
O297 Eu263 2.380 . S
O297 C308 1.276 . S
O298 Eu263 2.432 . S
O298 C315 1.264 . S
O299 Eu252 2.339 . S
O299 C315 1.254 . S
O300 Eu252 2.563 . S
O300 C308 1.235 . S
O301 Eu252 2.419 . S
O301 C316 1.249 . S
O302 Eu263 2.558 . S
O302 C327 1.257 . S
O303 Eu252 2.380 . S
O303 Eu263 2.612 . S
O303 C319 1.276 . S
O304 Eu252 2.432 . S
O304 C326 1.264 . S
O305 Eu263 2.339 . S
O305 C326 1.254 . S
O306 Eu263 2.563 . S
O306 C319 1.235 . S
O307 Eu263 2.419 . S
O307 C327 1.249 . S
C308 O297 1.276 . S
C308 O300 1.235 . S
C309 C311 1.393 . S
C309 C313 1.395 . S
C309 C316 1.492 . S
C310 C311 1.392 . S
C310 C312 1.386 . S
C311 C309 1.393 . S
C311 C310 1.392 . S
C311 H328 0.930 . S
C312 C310 1.386 . S
C312 C314 1.395 . S
C312 H329 0.930 . S
C313 C309 1.395 . S
C313 C314 1.379 . S
C313 H330 0.930 . S
C314 C312 1.395 . S
C314 C313 1.379 . S
C314 H331 0.930 . S
C315 O298 1.264 . S
C315 O299 1.254 . S
C316 Eu252 2.848 . S
C316 O296 1.257 . S
C316 O301 1.249 . S
C316 C309 1.492 . S
C317 H282 0.931 . S
C317 C295 1.420 . S
C317 C318 1.351 . S
C318 H280 0.930 1_556 S
C318 C286 1.423 . S
C318 C317 1.351 . S
C319 O303 1.276 . S
C319 O306 1.235 . S
C320 C321 1.393 . S
C320 C324 1.395 . S
C320 C327 1.492 . S
C321 C320 1.393 . S
C321 C322 1.392 . S
C321 H332 0.930 . S
C322 C321 1.392 . S
C322 C323 1.386 . S
C323 C322 1.386 . S
C323 C325 1.395 . S
C323 H333 0.930 . S
C324 C320 1.395 . S
C324 C325 1.379 . S
C324 H334 0.930 . S
C325 C323 1.395 . S
C325 C324 1.379 . S
C325 H335 0.930 . S
C326 O304 1.264 . S
C326 O305 1.254 . S
C327 Eu263 2.848 . S
C327 O302 1.257 . S
C327 O307 1.249 . S
C327 C320 1.492 . S
H328 C311 0.930 . S
H329 C312 0.930 . S
H330 C313 0.930 . S
H331 C314 0.930 . S
H332 C321 0.930 . S
H333 C323 0.930 . S
H334 C324 0.930 . S
H335 C325 0.930 . S
Eu336 N367 2.657 . S
Eu336 N374 2.609 . S
Eu336 O380 2.558 1_554 S
Eu336 O381 2.612 1_554 S
Eu336 O383 2.339 . S
Eu336 O384 2.563 1_554 S
Eu336 O385 2.419 1_554 S
Eu336 O387 2.380 . S
Eu336 O388 2.432 1_554 S
Eu336 C400 2.848 1_554 S
C337 C340 1.429 . S
C337 C341 1.411 . S
C337 N344 1.377 . S
C338 C340 1.420 . S
C338 C342 1.423 . S
C338 C350 1.392 . S
C339 C341 1.420 . S
C339 C342 1.351 . S
C339 H362 0.931 . S
C340 C337 1.429 . S
C340 C338 1.420 . S
C340 N348 1.362 . S
C341 C337 1.411 . S
C341 C339 1.420 . S
C341 C346 1.395 . S
C342 C338 1.423 . S
C342 C339 1.351 . S
C342 H354 0.930 . S
C343 C345 1.400 . S
C343 C346 1.386 . S
C343 H355 0.930 . S
N344 C337 1.377 . S
N344 C345 1.321 . S
N344 Eu347 2.609 . S
C345 C343 1.400 . S
C345 N344 1.321 . S
C345 H352 0.930 . S
C346 C341 1.395 . S
C346 C343 1.386 . S
C346 H365 0.930 . S
Eu347 N344 2.609 . S
Eu347 N348 2.657 . S
Eu347 O381 2.380 . S
Eu347 O382 2.432 1_556 S
Eu347 O386 2.558 1_556 S
Eu347 O387 2.612 1_556 S
Eu347 O389 2.339 . S
Eu347 O390 2.563 1_556 S
Eu347 O391 2.419 1_556 S
Eu347 C411 2.848 1_556 S
N348 C340 1.362 . S
N348 Eu347 2.657 . S
N348 C349 1.334 . S
C349 N348 1.334 . S
C349 C351 1.413 . S
C349 H356 0.929 . S
C350 C338 1.392 . S
C350 C351 1.367 . S
C350 H358 0.930 . S
C351 C349 1.413 . S
C351 C350 1.367 . S
C351 H353 0.930 . S
H352 C345 0.930 . S
H353 C351 0.930 . S
H354 C342 0.930 . S
H355 C343 0.930 . S
H356 C349 0.929 . S
H357 C371 0.930 . S
H358 C350 0.930 . S
H359 C377 0.930 . S
H360 C368 0.929 . S
H361 C375 0.930 . S
H362 C339 0.931 . S
H363 C369 0.930 . S
H364 C402 0.930 . S
H365 C346 0.930 . S
H366 C401 0.931 . S
N367 Eu336 2.657 . S
N367 C368 1.334 . S
N367 C372 1.362 . S
C368 H360 0.929 . S
C368 N367 1.334 . S
C368 C371 1.413 . S
C369 H363 0.930 . S
C369 C370 1.392 . S
C369 C371 1.367 . S
C370 C369 1.392 . S
C370 C372 1.420 . S
C370 C402 1.423 . S
C371 H357 0.930 . S
C371 C368 1.413 . S
C371 C369 1.367 . S
C372 N367 1.362 . S
C372 C370 1.420 . S
C372 C376 1.429 . S
H373 C378 0.930 . S
N374 Eu336 2.609 . S
N374 C376 1.377 . S
N374 C377 1.321 . S
C375 H361 0.930 . S
C375 C377 1.400 . S
C375 C378 1.386 . S
C376 C372 1.429 . S
C376 N374 1.377 . S
C376 C379 1.411 . S
C377 H359 0.930 . S
C377 N374 1.321 . S
C377 C375 1.400 . S
C378 H373 0.930 . S
C378 C375 1.386 . S
C378 C379 1.395 . S
C379 C376 1.411 . S
C379 C378 1.395 . S
C379 C401 1.420 . S
O380 Eu336 2.558 1_556 S
O380 C400 1.257 . S
O381 Eu336 2.612 1_556 S
O381 Eu347 2.380 . S
O381 C392 1.276 . S
O382 Eu347 2.432 1_554 S
O382 C399 1.264 . S
O383 Eu336 2.339 . S
O383 C399 1.254 . S
O384 Eu336 2.563 1_556 S
O384 C392 1.235 . S
O385 Eu336 2.419 1_556 S
O385 C400 1.249 . S
O386 Eu347 2.558 1_554 S
O386 C411 1.257 . S
O387 Eu336 2.380 . S
O387 Eu347 2.612 1_554 S
O387 C403 1.276 . S
O388 Eu336 2.432 1_556 S
O388 C410 1.264 . S
O389 Eu347 2.339 . S
O389 C410 1.254 . S
O390 Eu347 2.563 1_554 S
O390 C403 1.235 . S
O391 Eu347 2.419 1_554 S
O391 C411 1.249 . S
C392 O381 1.276 . S
C392 O384 1.235 . S
C393 C395 1.393 . S
C393 C397 1.395 . S
C393 C400 1.492 . S
C394 C395 1.392 . S
C394 C396 1.386 . S
C395 C393 1.393 . S
C395 C394 1.392 . S
C395 H412 0.930 . S
C396 C394 1.386 . S
C396 C398 1.395 . S
C396 H413 0.930 . S
C397 C393 1.395 . S
C397 C398 1.379 . S
C397 H414 0.930 . S
C398 C396 1.395 . S
C398 C397 1.379 . S
C398 H415 0.930 . S
C399 O382 1.264 . S
C399 O383 1.254 . S
C400 Eu336 2.848 1_556 S
C400 O380 1.257 . S
C400 O385 1.249 . S
C400 C393 1.492 . S
C401 H366 0.931 . S
C401 C379 1.420 . S
C401 C402 1.351 . S
C402 H364 0.930 . S
C402 C370 1.423 . S
C402 C401 1.351 . S
C403 O387 1.276 . S
C403 O390 1.235 . S
C404 C405 1.393 . S
C404 C408 1.395 . S
C404 C411 1.492 . S
C405 C404 1.393 . S
C405 C406 1.392 . S
C405 H416 0.930 . S
C406 C405 1.392 . S
C406 C407 1.386 . S
C407 C406 1.386 . S
C407 C409 1.395 . S
C407 H417 0.930 . S
C408 C404 1.395 . S
C408 C409 1.379 . S
C408 H418 0.930 . S
C409 C407 1.395 . S
C409 C408 1.379 . S
C409 H419 0.930 . S
C410 O388 1.264 . S
C410 O389 1.254 . S
C411 Eu347 2.848 1_554 S
C411 O386 1.257 . S
C411 O391 1.249 . S
C411 C404 1.492 . S
H412 C395 0.930 . S
H413 C396 0.930 . S
H414 C397 0.930 . S
H415 C398 0.930 . S
H416 C405 0.930 . S
H417 C407 0.930 . S
H418 C408 0.930 . S
H419 C409 0.930 . S
Eu420 N451 2.657 . S
Eu420 N458 2.609 . S
Eu420 O464 2.558 1_556 S
Eu420 O465 2.612 1_556 S
Eu420 O467 2.339 . S
Eu420 O468 2.563 1_556 S
Eu420 O469 2.419 1_556 S
Eu420 O471 2.380 . S
Eu420 O472 2.432 1_556 S
Eu420 C484 2.848 1_556 S
C421 C424 1.429 . S
C421 C425 1.411 . S
C421 N428 1.377 . S
C422 C424 1.420 . S
C422 C426 1.423 . S
C422 C434 1.392 . S
C423 C425 1.420 . S
C423 C426 1.351 . S
C423 H446 0.931 . S
C424 C421 1.429 . S
C424 C422 1.420 . S
C424 N432 1.362 . S
C425 C421 1.411 . S
C425 C423 1.420 . S
C425 C430 1.395 . S
C426 C422 1.423 . S
C426 C423 1.351 . S
C426 H438 0.930 . S
C427 C429 1.400 . S
C427 C430 1.386 . S
C427 H439 0.930 . S
N428 C421 1.377 . S
N428 C429 1.321 . S
N428 Eu431 2.609 . S
C429 C427 1.400 . S
C429 N428 1.321 . S
C429 H436 0.930 . S
C430 C425 1.395 . S
C430 C427 1.386 . S
C430 H449 0.930 . S
Eu431 N428 2.609 . S
Eu431 N432 2.657 . S
Eu431 O465 2.380 . S
Eu431 O466 2.432 1_554 S
Eu431 O470 2.558 1_554 S
Eu431 O471 2.612 1_554 S
Eu431 O473 2.339 . S
Eu431 O474 2.563 1_554 S
Eu431 O475 2.419 1_554 S
Eu431 C495 2.848 1_554 S
N432 C424 1.362 . S
N432 Eu431 2.657 . S
N432 C433 1.334 . S
C433 N432 1.334 . S
C433 C435 1.413 . S
C433 H440 0.929 . S
C434 C422 1.392 . S
C434 C435 1.367 . S
C434 H442 0.930 . S
C435 C433 1.413 . S
C435 C434 1.367 . S
C435 H437 0.930 . S
H436 C429 0.930 . S
H437 C435 0.930 . S
H438 C426 0.930 . S
H439 C427 0.930 . S
H440 C433 0.929 . S
H441 C455 0.930 . S
H442 C434 0.930 . S
H443 C461 0.930 . S
H444 C452 0.929 . S
H445 C459 0.930 . S
H446 C423 0.931 . S
H447 C453 0.930 . S
H448 C486 0.930 . S
H449 C430 0.930 . S
H450 C485 0.931 . S
N451 Eu420 2.657 . S
N451 C452 1.334 . S
N451 C456 1.362 . S
C452 H444 0.929 . S
C452 N451 1.334 . S
C452 C455 1.413 . S
C453 H447 0.930 . S
C453 C454 1.392 . S
C453 C455 1.367 . S
C454 C453 1.392 . S
C454 C456 1.420 . S
C454 C486 1.423 . S
C455 H441 0.930 . S
C455 C452 1.413 . S
C455 C453 1.367 . S
C456 N451 1.362 . S
C456 C454 1.420 . S
C456 C460 1.429 . S
H457 C462 0.930 . S
N458 Eu420 2.609 . S
N458 C460 1.377 . S
N458 C461 1.321 . S
C459 H445 0.930 . S
C459 C461 1.400 . S
C459 C462 1.386 . S
C460 C456 1.429 . S
C460 N458 1.377 . S
C460 C463 1.411 . S
C461 H443 0.930 . S
C461 N458 1.321 . S
C461 C459 1.400 . S
C462 H457 0.930 . S
C462 C459 1.386 . S
C462 C463 1.395 . S
C463 C460 1.411 . S
C463 C462 1.395 . S
C463 C485 1.420 . S
O464 Eu420 2.558 1_554 S
O464 C484 1.257 . S
O465 Eu420 2.612 1_554 S
O465 Eu431 2.380 . S
O465 C476 1.276 . S
O466 Eu431 2.432 1_556 S
O466 C483 1.264 . S
O467 Eu420 2.339 . S
O467 C483 1.254 . S
O468 Eu420 2.563 1_554 S
O468 C476 1.235 . S
O469 Eu420 2.419 1_554 S
O469 C484 1.249 . S
O470 Eu431 2.558 1_556 S
O470 C495 1.257 . S
O471 Eu420 2.380 . S
O471 Eu431 2.612 1_556 S
O471 C487 1.276 . S
O472 Eu420 2.432 1_554 S
O472 C494 1.264 . S
O473 Eu431 2.339 . S
O473 C494 1.254 . S
O474 Eu431 2.563 1_556 S
O474 C487 1.235 . S
O475 Eu431 2.419 1_556 S
O475 C495 1.249 . S
C476 O465 1.276 . S
C476 O468 1.235 . S
C477 C479 1.393 . S
C477 C481 1.395 . S
C477 C484 1.492 . S
C478 C479 1.392 . S
C478 C480 1.386 . S
C479 C477 1.393 . S
C479 C478 1.392 . S
C479 H496 0.930 . S
C480 C478 1.386 . S
C480 C482 1.395 . S
C480 H497 0.930 . S
C481 C477 1.395 . S
C481 C482 1.379 . S
C481 H498 0.930 . S
C482 C480 1.395 . S
C482 C481 1.379 . S
C482 H499 0.930 . S
C483 O466 1.264 . S
C483 O467 1.254 . S
C484 Eu420 2.848 1_554 S
C484 O464 1.257 . S
C484 O469 1.249 . S
C484 C477 1.492 . S
C485 H450 0.931 . S
C485 C463 1.420 . S
C485 C486 1.351 . S
C486 H448 0.930 . S
C486 C454 1.423 . S
C486 C485 1.351 . S
C487 O471 1.276 . S
C487 O474 1.235 . S
C488 C489 1.393 . S
C488 C492 1.395 . S
C488 C495 1.492 . S
C489 C488 1.393 . S
C489 C490 1.392 . S
C489 H500 0.930 . S
C490 C489 1.392 . S
C490 C491 1.386 . S
C491 C490 1.386 . S
C491 C493 1.395 . S
C491 H501 0.930 . S
C492 C488 1.395 . S
C492 C493 1.379 . S
C492 H502 0.930 . S
C493 C491 1.395 . S
C493 C492 1.379 . S
C493 H503 0.930 . S
C494 O472 1.264 . S
C494 O473 1.254 . S
C495 Eu431 2.848 1_556 S
C495 O470 1.257 . S
C495 O475 1.249 . S
C495 C488 1.492 . S
H496 C479 0.930 . S
H497 C480 0.930 . S
H498 C481 0.930 . S
H499 C482 0.930 . S
H500 C489 0.930 . S
H501 C491 0.930 . S
H502 C492 0.930 . S
H503 C493 0.930 . S
Eu504 N535 2.657 . S
Eu504 N542 2.609 . S
Eu504 O548 2.558 1_554 S
Eu504 O549 2.612 1_554 S
Eu504 O551 2.339 . S
Eu504 O552 2.563 1_554 S
Eu504 O553 2.419 1_554 S
Eu504 O555 2.380 . S
Eu504 O556 2.432 . S
Eu504 C568 2.848 1_554 S
C505 C508 1.429 . S
C505 C509 1.411 . S
C505 N512 1.377 . S
C506 C508 1.420 . S
C506 C510 1.423 . S
C506 C518 1.392 . S
C507 C509 1.420 . S
C507 C510 1.351 . S
C507 H530 0.931 . S
C508 C505 1.429 . S
C508 C506 1.420 . S
C508 N516 1.362 . S
C509 C505 1.411 . S
C509 C507 1.420 . S
C509 C514 1.395 . S
C510 C506 1.423 . S
C510 C507 1.351 . S
C510 H522 0.930 . S
C511 C513 1.400 . S
C511 C514 1.386 . S
C511 H523 0.930 1_545 S
N512 C505 1.377 . S
N512 C513 1.321 . S
N512 Eu515 2.609 . S
C513 C511 1.400 . S
C513 N512 1.321 . S
C513 H520 0.930 . S
C514 C509 1.395 . S
C514 C511 1.386 . S
C514 H533 0.930 . S
Eu515 N512 2.609 . S
Eu515 N516 2.657 . S
Eu515 O549 2.380 . S
Eu515 O550 2.432 . S
Eu515 O554 2.558 1_556 S
Eu515 O555 2.612 1_556 S
Eu515 O557 2.339 . S
Eu515 O558 2.563 1_556 S
Eu515 O559 2.419 1_556 S
Eu515 C579 2.848 1_556 S
N516 C508 1.362 . S
N516 Eu515 2.657 . S
N516 C517 1.334 . S
C517 N516 1.334 . S
C517 C519 1.413 . S
C517 H524 0.929 . S
C518 C506 1.392 . S
C518 C519 1.367 . S
C518 H526 0.930 . S
C519 C517 1.413 . S
C519 C518 1.367 . S
C519 H521 0.930 . S
H520 C513 0.930 . S
H521 C519 0.930 . S
H522 C510 0.930 . S
H523 C511 0.930 1_565 S
H524 C517 0.929 . S
H525 C539 0.930 . S
H526 C518 0.930 . S
H527 C545 0.930 . S
H528 C536 0.929 . S
H529 C543 0.930 . S
H530 C507 0.931 . S
H531 C537 0.930 . S
H532 C570 0.930 . S
H533 C514 0.930 . S
H534 C569 0.931 . S
N535 Eu504 2.657 . S
N535 C536 1.334 . S
N535 C540 1.362 . S
C536 H528 0.929 . S
C536 N535 1.334 . S
C536 C539 1.413 . S
C537 H531 0.930 . S
C537 C538 1.392 . S
C537 C539 1.367 . S
C538 C537 1.392 . S
C538 C540 1.420 . S
C538 C570 1.423 . S
C539 H525 0.930 . S
C539 C536 1.413 . S
C539 C537 1.367 . S
C540 N535 1.362 . S
C540 C538 1.420 . S
C540 C544 1.429 . S
H541 C546 0.930 . S
N542 Eu504 2.609 . S
N542 C544 1.377 . S
N542 C545 1.321 . S
C543 H529 0.930 . S
C543 C545 1.400 . S
C543 C546 1.386 . S
C544 C540 1.429 . S
C544 N542 1.377 . S
C544 C547 1.411 . S
C545 H527 0.930 . S
C545 N542 1.321 . S
C545 C543 1.400 . S
C546 H541 0.930 . S
C546 C543 1.386 . S
C546 C547 1.395 . S
C547 C544 1.411 . S
C547 C546 1.395 . S
C547 C569 1.420 . S
O548 Eu504 2.558 1_556 S
O548 C568 1.257 . S
O549 Eu504 2.612 1_556 S
O549 Eu515 2.380 . S
O549 C560 1.276 . S
O550 Eu515 2.432 . S
O550 C567 1.264 . S
O551 Eu504 2.339 . S
O551 C567 1.254 1_554 S
O552 Eu504 2.563 1_556 S
O552 C560 1.235 . S
O553 Eu504 2.419 1_556 S
O553 C568 1.249 . S
O554 Eu515 2.558 1_554 S
O554 C579 1.257 . S
O555 Eu504 2.380 . S
O555 Eu515 2.612 1_554 S
O555 C571 1.276 . S
O556 Eu504 2.432 . S
O556 C578 1.264 . S
O557 Eu515 2.339 . S
O557 C578 1.254 1_556 S
O558 Eu515 2.563 1_554 S
O558 C571 1.235 . S
O559 Eu515 2.419 1_554 S
O559 C579 1.249 . S
C560 O549 1.276 . S
C560 O552 1.235 . S
C561 C563 1.393 . S
C561 C565 1.395 . S
C561 C568 1.492 . S
C562 C563 1.392 . S
C562 C564 1.386 . S
C563 C561 1.393 . S
C563 C562 1.392 . S
C563 H580 0.930 . S
C564 C562 1.386 . S
C564 C566 1.395 . S
C564 H581 0.930 . S
C565 C561 1.395 . S
C565 C566 1.379 . S
C565 H582 0.930 . S
C566 C564 1.395 . S
C566 C565 1.379 . S
C566 H583 0.930 . S
C567 O550 1.264 . S
C567 O551 1.254 1_556 S
C568 Eu504 2.848 1_556 S
C568 O548 1.257 . S
C568 O553 1.249 . S
C568 C561 1.492 . S
C569 H534 0.931 . S
C569 C547 1.420 . S
C569 C570 1.351 . S
C570 H532 0.930 . S
C570 C538 1.423 . S
C570 C569 1.351 . S
C571 O555 1.276 . S
C571 O558 1.235 . S
C572 C573 1.393 . S
C572 C576 1.395 . S
C572 C579 1.492 . S
C573 C572 1.393 . S
C573 C574 1.392 . S
C573 H584 0.930 . S
C574 C573 1.392 . S
C574 C575 1.386 . S
C575 C574 1.386 . S
C575 C577 1.395 . S
C575 H585 0.930 . S
C576 C572 1.395 . S
C576 C577 1.379 . S
C576 H586 0.930 . S
C577 C575 1.395 . S
C577 C576 1.379 . S
C577 H587 0.930 . S
C578 O556 1.264 . S
C578 O557 1.254 1_554 S
C579 Eu515 2.848 1_554 S
C579 O554 1.257 . S
C579 O559 1.249 . S
C579 C572 1.492 . S
H580 C563 0.930 . S
H581 C564 0.930 . S
H582 C565 0.930 . S
H583 C566 0.930 . S
H584 C573 0.930 . S
H585 C575 0.930 . S
H586 C576 0.930 . S
H587 C577 0.930 . S
Eu588 N619 2.657 . S
Eu588 N626 2.609 . S
Eu588 O632 2.558 1_554 S
Eu588 O633 2.612 1_554 S
Eu588 O635 2.339 . S
Eu588 O636 2.563 1_554 S
Eu588 O637 2.419 1_554 S
Eu588 O639 2.380 . S
Eu588 O640 2.432 1_554 S
Eu588 C652 2.848 1_554 S
C589 C592 1.429 . S
C589 C593 1.411 . S
C589 N596 1.377 . S
C590 C592 1.420 . S
C590 C594 1.423 . S
C590 C602 1.392 . S
C591 C593 1.420 . S
C591 C594 1.351 . S
C591 H614 0.931 . S
C592 C589 1.429 . S
C592 C590 1.420 . S
C592 N600 1.362 . S
C593 C589 1.411 . S
C593 C591 1.420 . S
C593 C598 1.395 . S
C594 C590 1.423 . S
C594 C591 1.351 . S
C594 H606 0.930 . S
C595 C597 1.400 . S
C595 C598 1.386 . S
C595 H607 0.930 . S
N596 C589 1.377 . S
N596 C597 1.321 . S
N596 Eu599 2.609 . S
C597 C595 1.400 . S
C597 N596 1.321 . S
C597 H604 0.930 . S
C598 C593 1.395 . S
C598 C595 1.386 . S
C598 H617 0.930 . S
Eu599 N596 2.609 . S
Eu599 N600 2.657 . S
Eu599 O633 2.380 . S
Eu599 O634 2.432 1_556 S
Eu599 O638 2.558 1_556 S
Eu599 O639 2.612 1_556 S
Eu599 O641 2.339 . S
Eu599 O642 2.563 1_556 S
Eu599 O643 2.419 1_556 S
Eu599 C663 2.848 1_556 S
N600 C592 1.362 . S
N600 Eu599 2.657 . S
N600 C601 1.334 . S
C601 N600 1.334 . S
C601 C603 1.413 . S
C601 H608 0.929 . S
C602 C590 1.392 . S
C602 C603 1.367 . S
C602 H610 0.930 . S
C603 C601 1.413 . S
C603 C602 1.367 . S
C603 H605 0.930 . S
H604 C597 0.930 . S
H605 C603 0.930 . S
H606 C594 0.930 . S
H607 C595 0.930 . S
H608 C601 0.929 . S
H609 C623 0.930 . S
H610 C602 0.930 . S
H611 C629 0.930 . S
H612 C620 0.929 . S
H613 C627 0.930 . S
H614 C591 0.931 . S
H615 C621 0.930 . S
H616 C654 0.930 . S
H617 C598 0.930 . S
H618 C653 0.931 . S
N619 Eu588 2.657 . S
N619 C620 1.334 . S
N619 C624 1.362 . S
C620 H612 0.929 . S
C620 N619 1.334 . S
C620 C623 1.413 . S
C621 H615 0.930 . S
C621 C622 1.392 . S
C621 C623 1.367 . S
C622 C621 1.392 . S
C622 C624 1.420 . S
C622 C654 1.423 . S
C623 H609 0.930 . S
C623 C620 1.413 . S
C623 C621 1.367 . S
C624 N619 1.362 . S
C624 C622 1.420 . S
C624 C628 1.429 . S
H625 C630 0.930 . S
N626 Eu588 2.609 . S
N626 C628 1.377 . S
N626 C629 1.321 . S
C627 H613 0.930 . S
C627 C629 1.400 . S
C627 C630 1.386 . S
C628 C624 1.429 . S
C628 N626 1.377 . S
C628 C631 1.411 . S
C629 H611 0.930 . S
C629 N626 1.321 . S
C629 C627 1.400 . S
C630 H625 0.930 . S
C630 C627 1.386 . S
C630 C631 1.395 . S
C631 C628 1.411 . S
C631 C630 1.395 . S
C631 C653 1.420 . S
O632 Eu588 2.558 1_556 S
O632 C652 1.257 . S
O633 Eu588 2.612 1_556 S
O633 Eu599 2.380 . S
O633 C644 1.276 . S
O634 Eu599 2.432 1_554 S
O634 C651 1.264 . S
O635 Eu588 2.339 . S
O635 C651 1.254 . S
O636 Eu588 2.563 1_556 S
O636 C644 1.235 . S
O637 Eu588 2.419 1_556 S
O637 C652 1.249 . S
O638 Eu599 2.558 1_554 S
O638 C663 1.257 . S
O639 Eu588 2.380 . S
O639 Eu599 2.612 1_554 S
O639 C655 1.276 . S
O640 Eu588 2.432 1_556 S
O640 C662 1.264 . S
O641 Eu599 2.339 . S
O641 C662 1.254 . S
O642 Eu599 2.563 1_554 S
O642 C655 1.235 . S
O643 Eu599 2.419 1_554 S
O643 C663 1.249 . S
C644 O633 1.276 . S
C644 O636 1.235 . S
C645 C647 1.393 . S
C645 C649 1.395 . S
C645 C652 1.492 . S
C646 C647 1.392 . S
C646 C648 1.386 . S
C647 C645 1.393 . S
C647 C646 1.392 . S
C647 H664 0.930 . S
C648 C646 1.386 . S
C648 C650 1.395 . S
C648 H665 0.930 . S
C649 C645 1.395 . S
C649 C650 1.379 . S
C649 H666 0.930 . S
C650 C648 1.395 . S
C650 C649 1.379 . S
C650 H667 0.930 . S
C651 O634 1.264 . S
C651 O635 1.254 . S
C652 Eu588 2.848 1_556 S
C652 O632 1.257 . S
C652 O637 1.249 . S
C652 C645 1.492 . S
C653 H618 0.931 . S
C653 C631 1.420 . S
C653 C654 1.351 . S
C654 H616 0.930 . S
C654 C622 1.423 . S
C654 C653 1.351 . S
C655 O639 1.276 . S
C655 O642 1.235 . S
C656 C657 1.393 . S
C656 C660 1.395 . S
C656 C663 1.492 . S
C657 C656 1.393 . S
C657 C658 1.392 . S
C657 H668 0.930 . S
C658 C657 1.392 . S
C658 C659 1.386 . S
C659 C658 1.386 . S
C659 C661 1.395 . S
C659 H669 0.930 . S
C660 C656 1.395 . S
C660 C661 1.379 . S
C660 H670 0.930 . S
C661 C659 1.395 . S
C661 C660 1.379 . S
C661 H671 0.930 . S
C662 O640 1.264 . S
C662 O641 1.254 . S
C663 Eu599 2.848 1_554 S
C663 O638 1.257 . S
C663 O643 1.249 . S
C663 C656 1.492 . S
H664 C647 0.930 . S
H665 C648 0.930 . S
H666 C649 0.930 . S
H667 C650 0.930 . S
H668 C657 0.930 . S
H669 C659 0.930 . S
H670 C660 0.930 . S
H671 C661 0.930 . S
H672 C678 0.930 . S
H673 C681 0.930 . S
H674 C682 0.930 . S
H675 C683 0.930 . S
H676 C686 0.930 . S
H677 C687 0.930 . S
C678 H672 0.930 . S
C678 C679 1.355 . S
C678 C680 1.415 . S
C679 C678 1.355 . S
C679 C681 1.419 . S
C680 C678 1.415 . S
C680 C685 1.425 . S
C680 C687 1.409 . S
C681 H673 0.930 . S
C681 C679 1.419 . S
C681 C682 1.362 . S
C682 H674 0.930 . S
C682 C681 1.362 . S
C682 C685 1.409 . S
C683 H675 0.930 . S
C683 C684 1.355 . S
C683 C685 1.415 . S
C684 C683 1.355 . S
C684 C686 1.419 . S
C685 C680 1.425 . S
C685 C682 1.409 . S
C685 C683 1.415 . S
C686 H676 0.930 . S
C686 C684 1.419 . S
C686 C687 1.362 . S
C687 H677 0.930 . S
C687 C680 1.409 . S
C687 C686 1.362 . S
H688 C694 0.930 . S
H689 C697 0.930 . S
H690 C698 0.930 . S
H691 C699 0.930 . S
H692 C702 0.930 . S
H693 C703 0.930 . S
C694 H688 0.930 . S
C694 C695 1.355 . S
C694 C696 1.415 . S
C695 C694 1.355 . S
C695 C697 1.419 . S
C696 C694 1.415 . S
C696 C701 1.425 . S
C696 C703 1.409 . S
C697 H689 0.930 . S
C697 C695 1.419 . S
C697 C698 1.362 . S
C698 H690 0.930 . S
C698 C697 1.362 . S
C698 C701 1.409 . S
C699 H691 0.930 . S
C699 C700 1.355 . S
C699 C701 1.415 . S
C700 C699 1.355 . S
C700 C702 1.419 . S
C701 C696 1.425 . S
C701 C698 1.409 . S
C701 C699 1.415 . S
C702 H692 0.930 . S
C702 C700 1.419 . S
C702 C703 1.362 . S
C703 H693 0.930 . S
C703 C696 1.409 . S
C703 C702 1.362 . S
H704 C710 0.930 . S
H705 C713 0.930 . S
H706 C714 0.930 . S
H707 C715 0.930 . S
H708 C718 0.930 . S
H709 C719 0.930 . S
C710 H704 0.930 . S
C710 C711 1.355 . S
C710 C712 1.415 . S
C711 C710 1.355 . S
C711 C713 1.419 . S
C712 C710 1.415 . S
C712 C717 1.425 . S
C712 C719 1.409 . S
C713 H705 0.930 . S
C713 C711 1.419 . S
C713 C714 1.362 . S
C714 H706 0.930 . S
C714 C713 1.362 . S
C714 C717 1.409 . S
C715 H707 0.930 . S
C715 C716 1.355 . S
C715 C717 1.415 . S
C716 C715 1.355 . S
C716 C718 1.419 . S
C717 C712 1.425 . S
C717 C714 1.409 . S
C717 C715 1.415 . S
C718 H708 0.930 . S
C718 C716 1.419 . S
C718 C719 1.362 . S
C719 H709 0.930 . S
C719 C712 1.409 . S
C719 C718 1.362 . S
H720 C726 0.930 . S
H721 C729 0.930 . S
H722 C730 0.930 . S
H723 C731 0.930 . S
H724 C734 0.930 . S
H725 C735 0.930 . S
C726 H720 0.930 . S
C726 C727 1.355 . S
C726 C728 1.415 . S
C727 C726 1.355 . S
C727 C729 1.419 . S
C728 C726 1.415 . S
C728 C733 1.425 . S
C728 C735 1.409 . S
C729 H721 0.930 . S
C729 C727 1.419 . S
C729 C730 1.362 . S
C730 H722 0.930 . S
C730 C729 1.362 . S
C730 C733 1.409 . S
C731 H723 0.930 . S
C731 C732 1.355 . S
C731 C733 1.415 . S
C732 C731 1.355 . S
C732 C734 1.419 . S
C733 C728 1.425 . S
C733 C730 1.409 . S
C733 C731 1.415 . S
C734 H724 0.930 . S
C734 C732 1.419 . S
C734 C735 1.362 . S
C735 H725 0.930 . S
C735 C728 1.409 . S
C735 C734 1.362 . S
H736 C742 0.930 . S
H737 C745 0.930 . S
H738 C746 0.930 . S
H739 C747 0.930 . S
H740 C750 0.930 . S
H741 C751 0.930 1_565 S
C742 H736 0.930 . S
C742 C743 1.355 . S
C742 C744 1.415 . S
C743 C742 1.355 . S
C743 C745 1.419 . S
C744 C742 1.415 . S
C744 C749 1.425 1_565 S
C744 C751 1.409 1_565 S
C745 H737 0.930 . S
C745 C743 1.419 . S
C745 C746 1.362 1_565 S
C746 H738 0.930 . S
C746 C745 1.362 1_545 S
C746 C749 1.409 . S
C747 H739 0.930 . S
C747 C748 1.355 . S
C747 C749 1.415 . S
C748 C747 1.355 . S
C748 C750 1.419 . S
C749 C744 1.425 1_545 S
C749 C746 1.409 . S
C749 C747 1.415 . S
C750 H740 0.930 . S
C750 C748 1.419 . S
C750 C751 1.362 . S
C751 H741 0.930 1_545 S
C751 C744 1.409 1_545 S
C751 C750 1.362 . S
H752 C758 0.930 . S
H753 C761 0.930 . S
H754 C762 0.930 . S
H755 C763 0.930 . S
H756 C766 0.930 . S
H757 C767 0.930 . S
C758 H752 0.930 . S
C758 C759 1.355 . S
C758 C760 1.415 . S
C759 C758 1.355 . S
C759 C761 1.419 . S
C760 C758 1.415 . S
C760 C765 1.425 . S
C760 C767 1.409 . S
C761 H753 0.930 . S
C761 C759 1.419 . S
C761 C762 1.362 . S
C762 H754 0.930 . S
C762 C761 1.362 . S
C762 C765 1.409 . S
C763 H755 0.930 . S
C763 C764 1.355 . S
C763 C765 1.415 . S
C764 C763 1.355 . S
C764 C766 1.419 . S
C765 C760 1.425 . S
C765 C762 1.409 . S
C765 C763 1.415 . S
C766 H756 0.930 . S
C766 C764 1.419 . S
C766 C767 1.362 . S
C767 H757 0.930 . S
C767 C760 1.409 . S
C767 C766 1.362 . S
H768 C774 0.930 . S
H769 C777 0.930 . S
H770 C778 0.932 . S
H771 C779 0.930 . S
H772 C782 0.930 . S
H773 C783 0.930 1_565 S
C774 H768 0.930 . S
C774 C775 1.355 . S
C774 C776 1.415 . S
C775 C774 1.355 . S
C775 C777 1.419 . S
C776 C774 1.415 . S
C776 C781 1.425 1_565 S
C776 C783 1.409 1_565 S
C777 H769 0.930 . S
C777 C775 1.419 . S
C777 C778 1.362 . S
C778 H770 0.932 . S
C778 C777 1.362 . S
C778 C781 1.409 1_565 S
C779 H771 0.930 . S
C779 C780 1.355 . S
C779 C781 1.415 . S
C780 C779 1.355 . S
C780 C782 1.419 . S
C781 C776 1.425 1_545 S
C781 C778 1.409 1_545 S
C781 C779 1.415 . S
C782 H772 0.930 . S
C782 C780 1.419 . S
C782 C783 1.362 . S
C783 H773 0.930 1_545 S
C783 C776 1.409 1_545 S
C783 C782 1.362 . S
H784 C790 0.930 . S
H785 C793 0.930 . S
H786 C794 0.930 . S
H787 C795 0.930 . S
H788 C798 0.930 . S
H789 C799 0.930 . S
C790 H784 0.930 . S
C790 C791 1.355 . S
C790 C792 1.415 . S
C791 C790 1.355 . S
C791 C793 1.419 . S
C792 C790 1.415 . S
C792 C797 1.425 . S
C792 C799 1.409 . S
C793 H785 0.930 . S
C793 C791 1.419 . S
C793 C794 1.362 . S
C794 H786 0.930 . S
C794 C793 1.362 . S
C794 C797 1.409 . S
C795 H787 0.930 . S
C795 C796 1.355 . S
C795 C797 1.415 . S
C796 C795 1.355 . S
C796 C798 1.419 . S
C797 C792 1.425 . S
C797 C794 1.409 . S
C797 C795 1.415 . S
C798 H788 0.930 . S
C798 C796 1.419 . S
C798 C799 1.362 . S
C799 H789 0.930 . S
C799 C792 1.409 . S
C799 C798 1.362 . S
H800 C806 0.930 . S
H801 C809 0.930 . S
H802 C810 0.930 . S
H803 C811 0.930 . S
H804 C814 0.930 . S
H805 C815 0.930 . S
C806 H800 0.930 . S
C806 C807 1.355 . S
C806 C808 1.415 . S
C807 C806 1.355 . S
C807 C809 1.419 1_554 S
C808 C806 1.415 . S
C808 C813 1.425 1_554 S
C808 C815 1.409 . S
C809 H801 0.930 . S
C809 C807 1.419 1_556 S
C809 C810 1.362 . S
C810 H802 0.930 . S
C810 C809 1.362 . S
C810 C813 1.409 . S
C811 H803 0.930 . S
C811 C812 1.355 1_556 S
C811 C813 1.415 . S
C812 C811 1.355 1_554 S
C812 C814 1.419 . S
C813 C808 1.425 1_556 S
C813 C810 1.409 . S
C813 C811 1.415 . S
C814 H804 0.930 . S
C814 C812 1.419 . S
C814 C815 1.362 . S
C815 H805 0.930 . S
C815 C808 1.409 . S
C815 C814 1.362 . S
H816 C822 0.930 . S
H817 C825 0.930 . S
H818 C826 0.930 . S
H819 C827 0.930 . S
H820 C830 0.930 . S
H821 C831 0.930 . S
C822 H816 0.930 . S
C822 C823 1.355 1_554 S
C822 C824 1.410 1_565 S
C823 C822 1.355 1_556 S
C823 C825 1.419 . S
C824 C822 1.410 1_545 S
C824 C829 1.427 1_544 S
C824 C831 1.413 . S
C825 H817 0.930 . S
C825 C823 1.419 . S
C825 C826 1.362 . S
C826 H818 0.930 . S
C826 C825 1.362 . S
C826 C829 1.412 . S
C827 H819 0.930 . S
C827 C828 1.355 1_556 S
C827 C829 1.411 1_545 S
C828 C827 1.355 1_554 S
C828 C830 1.419 . S
C829 C824 1.427 1_566 S
C829 C826 1.412 . S
C829 C827 1.411 1_565 S
C830 H820 0.930 . S
C830 C828 1.419 . S
C830 C831 1.362 . S
C831 H821 0.930 . S
C831 C824 1.413 . S
C831 C830 1.362 . S
H832 C838 0.930 . S
H833 C841 0.930 . S
H834 C842 0.930 . S
H835 C843 0.932 . S
H836 C846 0.930 . S
H837 C847 0.930 . S
C838 H832 0.930 . S
C838 C839 1.355 1_554 S
C838 C840 1.415 . S
C839 C838 1.355 1_556 S
C839 C841 1.419 . S
C840 C838 1.415 . S
C840 C845 1.423 1_554 S
C840 C847 1.409 . S
C841 H833 0.930 . S
C841 C839 1.419 . S
C841 C842 1.362 . S
C842 H834 0.930 . S
C842 C841 1.362 . S
C842 C845 1.410 . S
C843 H835 0.932 . S
C843 C844 1.355 . S
C843 C845 1.416 1_554 S
C844 C843 1.355 . S
C844 C846 1.419 . S
C845 C840 1.423 1_556 S
C845 C842 1.410 . S
C845 C843 1.416 1_556 S
C846 H836 0.930 . S
C846 C844 1.419 . S
C846 C847 1.362 . S
C847 H837 0.930 . S
C847 C840 1.409 . S
C847 C846 1.362 . S
H848 C854 0.930 . S
H849 C857 0.930 . S
H850 C858 0.930 1_554 S
H851 C859 0.930 . S
H852 C862 0.930 . S
H853 C863 0.930 . S
C854 H848 0.930 . S
C854 C855 1.355 . S
C854 C856 1.415 . S
C855 C854 1.355 . S
C855 C857 1.419 . S
C856 C854 1.415 . S
C856 C861 1.425 1_545 S
C856 C863 1.409 1_545 S
C857 H849 0.930 . S
C857 C855 1.419 . S
C857 C858 1.362 . S
C858 H850 0.930 1_556 S
C858 C857 1.362 . S
C858 C861 1.409 1_545 S
C859 H851 0.930 . S
C859 C860 1.355 1_554 S
C859 C861 1.415 1_554 S
C860 C859 1.355 1_556 S
C860 C862 1.419 . S
C861 C856 1.425 1_565 S
C861 C858 1.409 1_565 S
C861 C859 1.415 1_556 S
C862 H852 0.930 . S
C862 C860 1.419 . S
C862 C863 1.362 . S
C863 H853 0.930 . S
C863 C856 1.409 1_565 S
C863 C862 1.362 . S
H864 C870 0.930 . S
H865 C873 0.930 . S
H866 C874 0.930 . S
H867 C875 0.930 . S
H868 C878 0.930 . S
H869 C879 0.930 . S
C870 H864 0.930 . S
C870 C871 1.355 . S
C870 C872 1.415 1_554 S
C871 C870 1.355 . S
C871 C873 1.419 . S
C872 C870 1.415 1_556 S
C872 C877 1.425 . S
C872 C879 1.409 . S
C873 H865 0.930 . S
C873 C871 1.419 . S
C873 C874 1.362 . S
C874 H866 0.930 . S
C874 C873 1.362 . S
C874 C877 1.409 1_554 S
C875 H867 0.930 . S
C875 C876 1.355 . S
C875 C877 1.415 . S
C876 C875 1.355 . S
C876 C878 1.419 . S
C877 C872 1.425 . S
C877 C874 1.409 1_556 S
C877 C875 1.415 . S
C878 H868 0.930 . S
C878 C876 1.419 . S
C878 C879 1.362 . S
C879 H869 0.930 . S
C879 C872 1.409 . S
C879 C878 1.362 . S
H880 C886 0.930 . S
H881 C889 0.930 . S
H882 C890 0.930 . S
H883 C891 0.930 . S
H884 C894 0.930 . S
H885 C895 0.930 . S
C886 H880 0.930 . S
C886 C887 1.355 . S
C886 C888 1.415 1_554 S
C887 C886 1.355 . S
C887 C889 1.419 . S
C888 C886 1.415 1_556 S
C888 C893 1.425 . S
C888 C895 1.409 . S
C889 H881 0.930 . S
C889 C887 1.419 . S
C889 C890 1.362 1_554 S
C890 H882 0.930 . S
C890 C889 1.362 1_556 S
C890 C893 1.409 . S
C891 H883 0.930 . S
C891 C892 1.355 . S
C891 C893 1.415 . S
C892 C891 1.355 . S
C892 C894 1.419 . S
C893 C888 1.425 . S
C893 C890 1.409 . S
C893 C891 1.415 . S
C894 H884 0.930 . S
C894 C892 1.419 . S
C894 C895 1.362 . S
C895 H885 0.930 . S
C895 C888 1.409 . S
C895 C894 1.362 . S
H896 C902 0.930 . S
H897 C905 0.930 . S
H898 C906 0.930 . S
H899 C907 0.930 . S
H900 C910 0.930 . S
H901 C911 0.930 . S
C902 H896 0.930 . S
C902 C903 1.355 . S
C902 C904 1.415 . S
C903 C902 1.355 . S
C903 C905 1.419 . S
C904 C902 1.415 . S
C904 C909 1.425 . S
C904 C911 1.409 . S
C905 H897 0.930 . S
C905 C903 1.419 . S
C905 C906 1.362 . S
C906 H898 0.930 . S
C906 C905 1.362 . S
C906 C909 1.409 . S
C907 H899 0.930 . S
C907 C908 1.355 . S
C907 C909 1.415 1_556 S
C908 C907 1.355 . S
C908 C910 1.419 . S
C909 C904 1.425 . S
C909 C906 1.409 . S
C909 C907 1.415 1_554 S
C910 H900 0.930 . S
C910 C908 1.419 . S
C910 C911 1.362 1_556 S
C911 H901 0.930 . S
C911 C904 1.409 . S
C911 C910 1.362 1_554 S
H912 C918 0.930 . S
H913 C921 0.930 . S
H914 C922 0.928 1_554 S
H915 C923 0.930 . S
H916 C926 0.930 . S
H917 C927 0.930 . S
C918 H912 0.930 . S
C918 C919 1.355 . S
C918 C920 1.415 1_556 S
C919 C918 1.355 . S
C919 C921 1.419 . S
C920 C918 1.415 1_554 S
C920 C925 1.425 . S
C920 C927 1.409 . S
C921 H913 0.930 . S
C921 C919 1.419 . S
C921 C922 1.373 . S
C922 H914 0.928 1_556 S
C922 C921 1.373 . S
C922 C925 1.400 1_556 S
C923 H915 0.930 . S
C923 C924 1.355 . S
C923 C925 1.415 . S
C924 C923 1.355 . S
C924 C926 1.419 . S
C925 C920 1.425 . S
C925 C922 1.400 1_554 S
C925 C923 1.415 . S
C926 H916 0.930 . S
C926 C924 1.419 . S
C926 C927 1.362 . S
C927 H917 0.930 . S
C927 C920 1.409 . S
C927 C926 1.362 . S
H928 C934 0.930 . S
H929 C937 0.930 . S
H930 C938 0.930 . S
H931 C939 0.930 . S
H932 C942 0.930 . S
H933 C943 0.930 . S
C934 H928 0.930 . S
C934 C935 1.355 . S
C934 C936 1.415 . S
C935 C934 1.355 . S
C935 C937 1.419 . S
C936 C934 1.415 . S
C936 C941 1.425 . S
C936 C943 1.409 . S
C937 H929 0.930 . S
C937 C935 1.419 . S
C937 C938 1.362 . S
C938 H930 0.930 . S
C938 C937 1.362 . S
C938 C941 1.409 . S
C939 H931 0.930 . S
C939 C940 1.355 . S
C939 C941 1.415 . S
C940 C939 1.355 . S
C940 C942 1.419 . S
C941 C936 1.425 . S
C941 C938 1.409 . S
C941 C939 1.415 . S
C942 H932 0.930 . S
C942 C940 1.419 . S
C942 C943 1.362 . S
C943 H933 0.930 . S
C943 C936 1.409 . S
C943 C942 1.362 . S
H944 C950 0.930 . S
H945 C953 0.930 . S
H946 C954 0.930 . S
H947 C955 0.930 . S
H948 C958 0.930 . S
H949 C959 0.930 . S
C950 H944 0.930 . S
C950 C951 1.355 . S
C950 C952 1.415 . S
C951 C950 1.355 . S
C951 C953 1.419 . S
C952 C950 1.415 . S
C952 C957 1.425 . S
C952 C959 1.409 . S
C953 H945 0.930 . S
C953 C951 1.419 . S
C953 C954 1.362 . S
C954 H946 0.930 . S
C954 C953 1.362 . S
C954 C957 1.409 . S
C955 H947 0.930 . S
C955 C956 1.355 . S
C955 C957 1.415 . S
C956 C955 1.355 . S
C956 C958 1.419 . S
C957 C952 1.425 . S
C957 C954 1.409 . S
C957 C955 1.415 . S
C958 H948 0.930 . S
C958 C956 1.419 . S
C958 C959 1.362 . S
C959 H949 0.930 . S
C959 C952 1.409 . S
C959 C958 1.362 . S
H960 C966 0.930 . S
H961 C969 0.930 . S
H962 C970 0.930 . S
H963 C971 0.930 . S
H964 C974 0.930 . S
H965 C975 0.930 . S
C966 H960 0.930 . S
C966 C967 1.355 . S
C966 C968 1.415 . S
C967 C966 1.355 . S
C967 C969 1.419 . S
C968 C966 1.415 . S
C968 C973 1.425 . S
C968 C975 1.409 . S
C969 H961 0.930 . S
C969 C967 1.419 . S
C969 C970 1.362 . S
C970 H962 0.930 . S
C970 C969 1.362 . S
C970 C973 1.409 . S
C971 H963 0.930 . S
C971 C972 1.355 . S
C971 C973 1.415 . S
C972 C971 1.355 . S
C972 C974 1.419 . S
C973 C968 1.425 . S
C973 C970 1.409 . S
C973 C971 1.415 . S
C974 H964 0.930 . S
C974 C972 1.419 . S
C974 C975 1.362 . S
C975 H965 0.930 . S
C975 C968 1.409 . S
C975 C974 1.362 . S
H976 C982 0.930 . S
H977 C985 0.930 . S
H978 C986 0.930 . S
H979 C987 0.930 . S
H980 C990 0.930 . S
H981 C991 0.930 . S
C982 H976 0.930 . S
C982 C983 1.355 . S
C982 C984 1.415 . S
C983 C982 1.355 . S
C983 C985 1.419 . S
C984 C982 1.415 . S
C984 C989 1.425 . S
C984 C991 1.409 . S
C985 H977 0.930 . S
C985 C983 1.419 . S
C985 C986 1.362 . S
C986 H978 0.930 . S
C986 C985 1.362 . S
C986 C989 1.409 . S
C987 H979 0.930 . S
C987 C988 1.355 . S
C987 C989 1.415 . S
C988 C987 1.355 . S
C988 C990 1.419 . S
C989 C984 1.425 . S
C989 C986 1.409 . S
C989 C987 1.415 . S
C990 H980 0.930 . S
C990 C988 1.419 . S
C990 C991 1.362 . S
C991 H981 0.930 . S
C991 C984 1.409 . S
C991 C990 1.362 . S
H992 C998 0.930 . S
H993 C1001 0.930 . S
H994 C1002 0.930 1_655 S
H995 C1003 0.930 . S
H996 C1006 0.930 . S
H997 C1007 0.926 1_455 S
C998 H992 0.930 . S
C998 C999 1.355 . S
C998 C1000 1.415 . S
C999 C998 1.355 . S
C999 C1001 1.419 . S
C1000 C998 1.415 . S
C1000 C1005 1.425 1_455 S
C1000 C1007 1.403 1_455 S
C1001 H993 0.930 . S
C1001 C999 1.419 . S
C1001 C1002 1.362 . S
C1002 H994 0.930 1_455 S
C1002 C1001 1.362 . S
C1002 C1005 1.409 1_455 S
C1003 H995 0.930 . S
C1003 C1004 1.355 . S
C1003 C1005 1.415 . S
C1004 C1003 1.355 . S
C1004 C1006 1.419 . S
C1005 C1000 1.425 1_655 S
C1005 C1002 1.409 1_655 S
C1005 C1003 1.415 . S
C1006 H996 0.930 . S
C1006 C1004 1.419 . S
C1006 C1007 1.372 . S
C1007 H997 0.926 1_655 S
C1007 C1000 1.403 1_655 S
C1007 C1006 1.372 . S
H1008 C1014 0.930 . S
H1009 C1017 0.930 . S
H1010 C1018 0.930 . S
H1011 C1019 0.930 . S
H1012 C1022 0.930 . S
H1013 C1023 0.932 . S
C1014 H1008 0.930 . S
C1014 C1015 1.355 . S
C1014 C1016 1.415 . S
C1015 C1014 1.355 . S
C1015 C1017 1.419 . S
C1016 C1014 1.415 . S
C1016 C1021 1.425 1_655 S
C1016 C1023 1.409 1_655 S
C1017 H1009 0.930 . S
C1017 C1015 1.419 . S
C1017 C1018 1.362 . S
C1018 H1010 0.930 . S
C1018 C1017 1.362 . S
C1018 C1021 1.409 1_655 S
C1019 H1011 0.930 . S
C1019 C1020 1.355 . S
C1019 C1021 1.415 . S
C1020 C1019 1.355 . S
C1020 C1022 1.419 . S
C1021 C1016 1.425 1_455 S
C1021 C1018 1.409 1_455 S
C1021 C1019 1.415 . S
C1022 H1012 0.930 . S
C1022 C1020 1.419 . S
C1022 C1023 1.362 . S
C1023 H1013 0.932 . S
C1023 C1016 1.409 1_455 S
C1023 C1022 1.362 . S
H1024 C1030 0.930 . S
H1025 C1033 0.930 . S
H1026 C1034 0.930 . S
H1027 C1035 0.930 . S
H1028 C1038 0.930 . S
H1029 C1039 0.930 . S
C1030 H1024 0.930 . S
C1030 C1031 1.355 . S
C1030 C1032 1.415 . S
C1031 C1030 1.355 . S
C1031 C1033 1.419 . S
C1032 C1030 1.415 . S
C1032 C1037 1.425 . S
C1032 C1039 1.409 . S
C1033 H1025 0.930 . S
C1033 C1031 1.419 . S
C1033 C1034 1.362 . S
C1034 H1026 0.930 . S
C1034 C1033 1.362 . S
C1034 C1037 1.409 . S
C1035 H1027 0.930 . S
C1035 C1036 1.355 . S
C1035 C1037 1.415 . S
C1036 C1035 1.355 . S
C1036 C1038 1.419 . S
C1037 C1032 1.425 . S
C1037 C1034 1.409 . S
C1037 C1035 1.415 . S
C1038 H1028 0.930 . S
C1038 C1036 1.419 . S
C1038 C1039 1.362 . S
C1039 H1029 0.930 . S
C1039 C1032 1.409 . S
C1039 C1038 1.362 . S
H1040 C1046 0.930 . S
H1041 C1049 0.930 . S
H1042 C1050 0.930 . S
H1043 C1051 0.930 . S
H1044 C1054 0.930 . S
H1045 C1055 0.930 . S
C1046 H1040 0.930 . S
C1046 C1047 1.355 . S
C1046 C1048 1.415 . S
C1047 C1046 1.355 . S
C1047 C1049 1.419 . S
C1048 C1046 1.415 . S
C1048 C1053 1.425 . S
C1048 C1055 1.409 . S
C1049 H1041 0.930 . S
C1049 C1047 1.419 . S
C1049 C1050 1.362 . S
C1050 H1042 0.930 . S
C1050 C1049 1.362 . S
C1050 C1053 1.409 . S
C1051 H1043 0.930 . S
C1051 C1052 1.355 . S
C1051 C1053 1.415 . S
C1052 C1051 1.355 . S
C1052 C1054 1.419 . S
C1053 C1048 1.425 . S
C1053 C1050 1.409 . S
C1053 C1051 1.415 . S
C1054 H1044 0.930 . S
C1054 C1052 1.419 . S
C1054 C1055 1.362 . S
C1055 H1045 0.930 . S
C1055 C1048 1.409 . S
C1055 C1054 1.362 . S
C679 C70 1.427 . S
C684 C646 1.418 . S
C695 C562 1.724 . S
C700 C142 1.462 . S
C711 C478 1.483 . S
C716 C226 1.683 . S
C727 C406 1.334 . S
C732 C310 1.324 . S
C743 C242 2.320 . S
C748 C74 2.451 . S
C759 C158 1.618 . S
C764 C326 1.697 . S
C775 C315 1.481 . S
C780 C147 1.464 . S
C791 C231 0.675 . S
C796 C63 0.694 . S
C807 C410 2.424 1_554 S
C812 C578 2.368 . S
C823 C494 1.498 1_556 S
C828 C662 1.584 1_554 S
C839 C651 1.493 1_556 S
C844 C483 1.475 1_554 S
C855 C567 0.656 . S
C860 C399 0.627 1_556 S
C871 C56 1.860 . S
C876 C67 1.860 . S
C887 C151 1.817 . S
C892 C140 1.817 . S
C903 C224 1.975 . S
C908 C235 1.975 . S
C919 C319 1.861 . S
C924 C308 1.861 . S
C935 C403 1.866 . S
C940 C392 1.866 . S
C951 C487 1.824 . S
C956 C476 1.824 . S
C967 C571 1.926 . S
C972 C560 1.926 . S
C983 C655 1.873 . S
C988 C644 1.873 . S
C999 C58 1.997 . S
C1004 C154 1.856 . S
C1015 C322 1.637 . S
C1020 C238 1.662 . S
C1031 C394 1.996 . S
C1036 C490 1.860 . S
C1047 C658 1.710 . S
C1052 C574 1.769 . S
