# Generated by pormake.
# Topology dia, (4)-cn, num edge types: 1
# Building blocks:
#     Node 0, Type 0, BuildingBlock: ICAMEG_clean_sbu_1, # of connection points: 4
#     Node 1, Type 0, BuildingBlock: ICAMEG_clean_sbu_1, # of connection points: 4
#     Node 2, Type 0, BuildingBlock: ICAMEG_clean_sbu_1, # of connection points: 4
#     Node 3, Type 0, BuildingBlock: ICAMEG_clean_sbu_1, # of connection points: 4
#     Node 4, Type 0, BuildingBlock: ICAMEG_clean_sbu_1, # of connection points: 4
#     Node 5, Type 0, BuildingBlock: ICAMEG_clean_sbu_1, # of connection points: 4
#     Node 6, Type 0, BuildingBlock: ICAMEG_clean_sbu_1, # of connection points: 4
#     Node 7, Type 0, BuildingBlock: ICAMEG_clean_sbu_1, # of connection points: 4
#     Edge 8, Type (0, 0), BuildingBlock: EZIPEK_clean_linker_0, # of connection points: 2
#     Edge 9, Type (0, 0), BuildingBlock: EZIPEK_clean_linker_0, # of connection points: 2
#     Edge 10, Type (0, 0), BuildingBlock: EZIPEK_clean_linker_0, # of connection points: 2
#     Edge 11, Type (0, 0), BuildingBlock: EZIPEK_clean_linker_0, # of connection points: 2
#     Edge 12, Type (0, 0), BuildingBlock: EZIPEK_clean_linker_0, # of connection points: 2
#     Edge 13, Type (0, 0), BuildingBlock: EZIPEK_clean_linker_0, # of connection points: 2
#     Edge 14, Type (0, 0), BuildingBlock: EZIPEK_clean_linker_0, # of connection points: 2
#     Edge 15, Type (0, 0), BuildingBlock: EZIPEK_clean_linker_0, # of connection points: 2
#     Edge 16, Type (0, 0), BuildingBlock: EZIPEK_clean_linker_0, # of connection points: 2
#     Edge 17, Type (0, 0), BuildingBlock: EZIPEK_clean_linker_0, # of connection points: 2
#     Edge 18, Type (0, 0), BuildingBlock: EZIPEK_clean_linker_0, # of connection points: 2
#     Edge 19, Type (0, 0), BuildingBlock: EZIPEK_clean_linker_0, # of connection points: 2
#     Edge 20, Type (0, 0), BuildingBlock: EZIPEK_clean_linker_0, # of connection points: 2
#     Edge 21, Type (0, 0), BuildingBlock: EZIPEK_clean_linker_0, # of connection points: 2
#     Edge 22, Type (0, 0), BuildingBlock: EZIPEK_clean_linker_0, # of connection points: 2
#     Edge 23, Type (0, 0), BuildingBlock: EZIPEK_clean_linker_0, # of connection points: 2
# Relax obj value: 0.179
# Max RMSD: 0.228
# Mean RMSD: 0.228
data_MOF--net-dia--node1-ICAMEG_clean_sbu_1--edge1-EZIPEK_clean_linker_0
_symmetry_space_group_name_H-M    P1
_symmetry_Int_Tables_number       1
_symmetry_cell_setting            triclinic
loop_
_symmetry_equiv_pos_as_xyz
'x, y, z'
_cell_length_a     24.585003
_cell_length_b     24.675321
_cell_length_c     30.717426
_cell_angle_alpha  90.014839
_cell_angle_beta   89.994093
_cell_angle_gamma 103.12909
loop_
_atom_site_label
_atom_site_type_symbol
_atom_site_fract_x
_atom_site_fract_y
_atom_site_fract_z
_atom_type_partial_charge
Co0 Co 0.20131 0.10733 0.6437 0.0
Co1 Co 0.07187 0.14096 0.64582 0.0
O2 O 0.13708 0.12366 0.67483 0.0
C3 C 0.17042 0.017 0.71028 0.0
O4 O 0.11736 0.01504 0.70357 0.0
C5 C 0.10444 0.22858 0.71476 0.0
O6 O 0.15723 0.22921 0.70816 0.0
O7 O 0.12143 0.20035 0.61009 0.0
O8 O 0.19748 0.16541 0.59896 0.0
H9 H 0.95498 0.17248 0.51772 0.0
H10 H 0.21174 0.13307 0.73822 0.0
O11 O 0.20795 0.04976 0.6884 0.0
H12 H 0.35819 0.27555 0.66738 0.0
H13 H 0.3899 0.06009 0.63507 0.0
H14 H 0.23309 0.09955 0.55068 0.0
H15 H 0.29657 0.20285 0.62379 0.0
H16 H 0.30852 0.08125 0.67237 0.0
O17 O 0.06646 0.19723 0.69222 0.0
H18 H 0.03686 0.1509 0.5539 0.0
H19 H 0.96559 0.16603 0.67782 0.0
H20 H 0.314 0.07952 0.51196 0.0
H21 H 0.27302 0.20451 0.78317 0.0
H22 H 0.39301 0.05899 0.55432 0.0
H23 H 0.34671 0.27667 0.74771 0.0
O24 O 0.15077 0.0493 0.60757 0.0
H25 H 1.00498 0.03857 0.78421 0.0
H26 H 0.97671 0.04542 0.62557 0.0
H27 H 0.91725 0.97052 0.66858 0.0
H28 H 0.93109 0.96681 0.74854 0.0
H29 H 0.06414 0.11218 0.73981 0.0
H30 H 0.88306 0.18827 0.6431 0.0
H31 H 0.87731 0.19165 0.56249 0.0
O32 O 0.07439 0.08448 0.59934 0.0
C33 C 0.16811 0.2009 0.59145 0.0
C34 C 0.95718 0.17159 0.5529 0.0
C35 C 0.91684 0.18045 0.62324 0.0
N36 N 1.0068 0.15814 0.61789 0.0
C37 C 1.00367 0.15956 0.57354 0.0
C38 C 0.96396 0.1682 0.64272 0.0
C39 C 0.91359 0.18225 0.57801 0.0
C40 C 0.24414 0.16384 0.72261 0.0
N41 N 0.25048 0.16371 0.67843 0.0
C42 C 0.27856 0.2044 0.74821 0.0
C43 C 0.31983 0.24491 0.72829 0.0
C44 C 0.32628 0.24433 0.68324 0.0
C45 C 0.29109 0.20314 0.6587 0.0
C46 C 0.35551 0.06851 0.61626 0.0
C47 C 0.26707 0.0907 0.56928 0.0
C48 C 0.30904 0.08016 0.63721 0.0
N49 N 0.26542 0.09095 0.61371 0.0
C50 C 0.31293 0.07942 0.54719 0.0
C51 C 0.35731 0.06806 0.57095 0.0
C52 C 0.10354 0.04931 0.59013 0.0
C53 C 0.9984 0.03983 0.74942 0.0
C54 C 0.98321 0.04402 0.66031 0.0
C55 C 0.94924 1.00158 0.68453 0.0
C56 C 0.95702 0.99953 0.72938 0.0
N57 N 0.02392 0.08324 0.68016 0.0
C58 C 0.03159 0.08164 0.72415 0.0
Co59 Co 0.91539 0.30924 0.91775 0.0
Co60 Co 0.88632 0.44078 0.9171 0.0
O61 O 0.90261 0.37557 0.88721 0.0
C62 C 1.00892 0.33623 0.85257 0.0
O63 O 0.01556 0.38949 0.86057 0.0
C64 C 0.8148 0.42566 0.83444 0.0
O65 O 0.8327 0.38146 0.82335 0.0
O66 O 0.82441 0.39187 0.95065 0.0
O67 O 0.85774 0.31526 0.96224 0.0
H68 H 0.8531 0.54958 0.04946 0.0
H69 H 0.89155 0.30131 0.8229 0.0
O70 O 0.97281 0.30042 0.87325 0.0
H71 H 0.74292 0.15822 0.89068 0.0
H72 H 0.95489 0.11763 0.92397 0.0
H73 H 0.91491 0.27197 1.01035 0.0
H74 H 0.81607 0.21717 0.93579 0.0
H75 H 0.93942 0.20175 0.88785 0.0
O76 O 0.83099 0.45115 0.87013 0.0
H77 H 0.87417 0.47009 1.00998 0.0
H78 H 0.86615 0.5513 0.88966 0.0
H79 H 0.92927 0.18834 0.04783 0.0
H80 H 0.81911 0.24347 0.77662 0.0
H81 H 0.94991 0.1104 1.00455 0.0
H82 H 0.74393 0.17141 0.81054 0.0
O83 O 0.97435 0.35668 0.95526 0.0
H84 H 1.00654 0.50476 0.78548 0.0
H85 H 0.97762 0.53813 0.94105 0.0
H86 H 0.05482 0.59984 0.90174 0.0
H87 H 0.06996 0.58322 0.82347 0.0
H88 H 0.92924 0.44505 0.82559 0.0
H89 H 0.84388 0.63138 0.92734 0.0
H90 H 0.83688 0.63082 1.00796 0.0
O91 O 0.94053 0.43366 0.96409 0.0
C92 C 0.82349 0.34587 0.97004 0.0
C93 C 0.85532 0.55006 1.01426 0.0
C94 C 0.8501 0.5959 0.94579 0.0
N95 N 0.87016 0.50497 0.94731 0.0
C96 C 0.8671 0.50489 0.99171 0.0
C97 C 0.86214 0.55002 0.92445 0.0
C98 C 0.84643 0.59569 0.99101 0.0
C99 C 0.85903 0.27009 0.83793 0.0
N100 N 0.8578 0.26311 0.88205 0.0
C101 C 0.81807 0.23745 0.81154 0.0
C102 C 0.7759 0.19706 0.83059 0.0
C103 C 0.77526 0.18971 0.87557 0.0
C104 C 0.81674 0.22334 0.90094 0.0
C105 C 0.94665 0.15162 0.94324 0.0
C106 C 0.92452 0.23891 0.99131 0.0
C107 C 0.93841 0.19979 0.92298 0.0
N108 N 0.92788 0.24301 0.94701 0.0
C109 C 0.9323 0.19129 1.01271 0.0
C110 C 0.94369 0.1475 0.98843 0.0
C111 C 0.97399 0.40292 0.97404 0.0
C112 C 1.00014 0.51276 0.81953 0.0
C113 C 0.98309 0.53111 0.90676 0.0
C114 C 0.02725 0.56601 0.88478 0.0
C115 C 0.03574 0.55668 0.84086 0.0
N116 N 0.94746 0.48876 0.88543 0.0
C117 C 0.95615 0.47903 0.84248 0.0
Co118 Co 0.70042 0.09828 0.13655 0.0
Co119 Co 0.57905 0.14419 0.13371 0.0
O120 O 0.63775 0.1197 0.16701 0.0
C121 C 0.67092 0.01271 0.20801 0.0
O122 O 0.6175 0.01044 0.20303 0.0
C123 C 0.59004 0.20907 0.21938 0.0
O124 O 0.6297 0.18539 0.23276 0.0
O125 O 0.63767 0.20399 0.10639 0.0
O126 O 0.69935 0.15344 0.08864 0.0
H127 H 0.50063 0.20589 0.9961 0.0
H128 H 0.71449 0.1324 0.22912 0.0
O129 O 0.70699 0.04388 0.1839 0.0
H130 H 0.86389 0.2629 0.15055 0.0
H131 H 0.88638 0.04551 0.12599 0.0
H132 H 0.72202 0.07323 0.04463 0.0
H133 H 0.79947 0.18776 0.11127 0.0
H134 H 0.80898 0.0737 0.16412 0.0
O135 O 0.56843 0.1981 0.18153 0.0
H136 H 0.57031 0.17432 0.04117 0.0
H137 H 0.46706 0.16875 0.15242 0.0
H138 H 0.79897 0.04604 1.00507 0.0
H139 H 0.77829 0.20681 0.26979 0.0
H140 H 0.88178 0.03171 0.04587 0.0
H141 H 0.85354 0.27287 0.23042 0.0
O142 O 0.64541 0.0397 0.1043 0.0
H143 H 0.48899 0.01764 0.25533 0.0
H144 H 0.47955 0.06256 0.09963 0.0
H145 H 0.40967 0.98476 0.13062 0.0
H146 H 0.41386 0.96184 0.20909 0.0
H147 H 0.55823 0.09476 0.22301 0.0
H148 H 0.3967 0.20132 0.10893 0.0
H149 H 0.4132 0.22003 0.03002 0.0
O150 O 0.58477 0.09109 0.08525 0.0
C151 C 0.68037 0.19724 0.08529 0.0
C152 C 0.49298 0.198 0.03047 0.0
C153 C 0.43474 0.19557 0.09379 0.0
N154 N 0.52293 0.16963 0.0996 0.0
C155 C 0.53227 0.17996 0.05619 0.0
C156 C 0.47498 0.17751 0.11845 0.0
C157 C 0.44394 0.2059 0.04951 0.0
C158 C 0.74724 0.16083 0.21181 0.0
N159 N 0.75292 0.15584 0.16786 0.0
C160 C 0.78323 0.20292 0.23499 0.0
C161 C 0.82542 0.23998 0.21288 0.0
C162 C 0.83127 0.23441 0.16809 0.0
C163 C 0.79449 0.19183 0.146 0.0
C164 C 0.85054 0.05169 0.10785 0.0
C165 C 0.75817 0.06771 0.06252 0.0
C166 C 0.80647 0.0675 0.12928 0.0
N167 N 0.76123 0.07576 0.10653 0.0
C168 C 0.80151 0.05205 0.03998 0.0
C169 C 0.84797 0.04402 0.06289 0.0
C170 C 0.60375 0.04723 0.08208 0.0
C171 C 0.48627 0.02763 0.2212 0.0
C172 C 0.48143 0.0536 0.13397 0.0
C173 C 0.44174 0.0092 0.15128 0.0
C174 C 0.44419 0.99628 0.19525 0.0
N175 N 0.52227 0.08482 0.15972 0.0
C176 C 0.5253 0.0717 0.20271 0.0
Co177 Co 0.90521 0.81692 0.41052 0.0
Co178 Co 0.87269 0.94662 0.41015 0.0
O179 O 0.88887 0.88161 0.38032 0.0
C180 C 0.99633 0.84782 0.34402 0.0
O181 O 0.99861 0.90075 0.35074 0.0
C182 C 0.78204 0.91554 0.34299 0.0
O183 O 0.78049 0.8627 0.34938 0.0
O184 O 0.81376 0.89743 0.44672 0.0
O185 O 0.84739 0.82036 0.45571 0.0
H186 H 0.84558 0.06301 0.53964 0.0
H187 H 0.87867 0.80872 0.31614 0.0
O188 O 0.9627 0.81057 0.36547 0.0
H189 H 0.73519 0.66227 0.386 0.0
H190 H 0.95359 0.62935 0.41611 0.0
H191 H 0.91311 0.78313 0.50308 0.0
H192 H 0.80902 0.72214 0.42987 0.0
H193 H 0.93061 0.71045 0.38019 0.0
O194 O 0.81513 0.95285 0.36487 0.0
H195 H 0.86573 0.98138 0.5025 0.0
H196 H 0.84744 0.05303 0.37939 0.0
H197 H 0.93508 0.70247 0.54045 0.0
H198 H 0.80604 0.74925 0.27092 0.0
H199 H 0.95649 0.62515 0.49675 0.0
H200 H 0.73342 0.67556 0.30589 0.0
O201 O 0.96399 0.86632 0.44693 0.0
H202 H 0.97237 0.01242 0.27039 0.0
H203 H 0.96943 0.04108 0.42918 0.0
H204 H 0.0438 0.09988 0.38514 0.0
H205 H 0.04556 0.08582 0.30511 0.0
H206 H 0.89925 0.95397 0.31578 0.0
H207 H 0.82661 0.13533 0.41509 0.0
H208 H 0.82553 0.14077 0.49577 0.0
O209 O 0.93048 0.94346 0.45551 0.0
C210 C 0.81273 0.85026 0.46447 0.0
C211 C 0.84544 0.06094 0.50444 0.0
C212 C 0.8348 0.10151 0.43456 0.0
N213 N 0.85675 0.01158 0.43887 0.0
C214 C 0.85664 0.01458 0.48325 0.0
C215 C 0.84625 0.05451 0.41453 0.0
C216 C 0.8343 0.10459 0.47983 0.0
C217 C 0.84765 0.77632 0.33152 0.0
N218 N 0.84816 0.76894 0.37558 0.0
C219 C 0.80645 0.74293 0.30577 0.0
C220 C 0.76568 0.70165 0.32542 0.0
C221 C 0.76663 0.69418 0.37036 0.0
C222 C 0.80846 0.72835 0.39505 0.0
C223 C 0.94496 0.66307 0.43548 0.0
C224 C 0.92223 0.74985 0.48392 0.0
C225 C 0.93226 0.70939 0.41532 0.0
N226 N 0.92147 0.75231 0.43953 0.0
C227 C 0.93457 0.7041 0.50524 0.0
C228 C 0.94636 0.66064 0.48075 0.0
C229 C 0.96511 0.9136 0.46443 0.0
C230 C 0.97195 0.0191 0.3052 0.0
C231 C 0.96994 0.03455 0.3944 0.0
C232 C 0.0121 0.06811 0.36961 0.0
C233 C 0.01305 0.06021 0.32471 0.0
N234 N 0.92991 0.99414 0.37506 0.0
C235 C 0.93045 0.98631 0.33104 0.0
Co236 Co 0.19948 0.61338 0.14483 0.0
Co237 Co 0.07564 0.65426 0.14399 0.0
O238 O 0.13886 0.637 0.17591 0.0
C239 C 0.17485 0.53099 0.21881 0.0
O240 O 0.12106 0.52319 0.21157 0.0
C241 C 0.10432 0.74454 0.21141 0.0
O242 O 0.15766 0.74683 0.20615 0.0
O243 O 0.12938 0.71162 0.10975 0.0
O244 O 0.19327 0.66253 0.09374 0.0
H245 H 0.976 0.69634 1.00969 0.0
H246 H 0.21679 0.66567 0.23207 0.0
O247 O 0.2099 0.56553 0.19595 0.0
H248 H 0.36445 0.77754 0.14016 0.0
H249 H 0.38526 0.56071 0.13222 0.0
H250 H 0.21504 0.57856 0.05415 0.0
H251 H 0.2969 0.69731 0.10964 0.0
H252 H 0.31006 0.59241 0.1707 0.0
O253 O 0.06793 0.71145 0.1888 0.0
H254 H 0.05325 0.67212 0.0509 0.0
H255 H 0.96604 0.6779 0.16951 0.0
H256 H 0.28966 0.54779 1.01419 0.0
H257 H 0.28448 0.74446 0.26469 0.0
H258 H 0.37543 0.53844 0.05335 0.0
H259 H 0.35886 0.80141 0.21837 0.0
O260 O 0.14362 0.55031 0.11824 0.0
H261 H 1.00089 0.55345 0.28115 0.0
H262 H 0.97851 0.56114 0.12191 0.0
H263 H 0.91577 0.48759 0.16393 0.0
H264 H 0.92661 0.48348 0.24419 0.0
H265 H 0.06341 0.62582 0.23773 0.0
H266 H 0.88834 0.70323 0.12971 0.0
H267 H 0.8931 0.71277 0.04925 0.0
O268 O 0.07838 0.59608 0.09879 0.0
C269 C 0.17208 0.70479 0.08851 0.0
C270 C 0.97345 0.69231 0.04476 0.0
C271 C 0.92427 0.69623 0.11212 0.0
N272 N 0.01395 0.67294 0.11248 0.0
C273 C 0.01694 0.67828 0.06823 0.0
C274 C 0.96847 0.68198 0.13449 0.0
C275 C 0.92692 0.70146 0.06696 0.0
C276 C 0.25015 0.68888 0.2124 0.0
N277 N 0.25375 0.67559 0.16959 0.0
C278 C 0.28792 0.73405 0.23072 0.0
C279 C 0.32948 0.7661 0.20469 0.0
C280 C 0.33266 0.75272 0.16084 0.0
C281 C 0.29421 0.70715 0.14375 0.0
C282 C 0.34811 0.5647 0.11479 0.0
C283 C 0.2525 0.57527 0.07126 0.0
C284 C 0.30529 0.58243 0.13644 0.0
N285 N 0.25846 0.58805 0.11453 0.0
C286 C 0.2945 0.55753 0.04853 0.0
C287 C 0.3426 0.55228 0.07052 0.0
C288 C 0.10031 0.55398 0.09649 0.0
C289 C 0.99562 0.55492 0.24622 0.0
C290 C 0.98367 0.55961 0.1568 0.0
C291 C 0.94789 0.5179 0.18044 0.0
C292 C 0.954 0.51563 0.22546 0.0
N293 N 0.0245 0.59796 0.17739 0.0
C294 C 0.03073 0.59598 0.2215 0.0
Co295 Co 0.40455 0.30967 0.41907 0.0
Co296 Co 0.37325 0.43842 0.42252 0.0
O297 O 0.38742 0.37467 0.38961 0.0
C298 C 0.48987 0.33175 0.34623 0.0
O299 O 0.50087 0.38522 0.35446 0.0
C300 C 0.2999 0.42832 0.34116 0.0
O301 O 0.31844 0.38563 0.32735 0.0
O302 O 0.3121 0.38679 0.4543 0.0
O303 O 0.35514 0.31793 0.47005 0.0
H304 H 0.33484 0.53474 0.55977 0.0
H305 H 0.35638 0.29861 0.33026 0.0
O306 O 0.45266 0.29804 0.36798 0.0
H307 H 0.23054 0.15537 0.41705 0.0
H308 H 0.44535 0.1186 0.42268 0.0
H309 H 0.42723 0.28038 0.51041 0.0
H310 H 0.31314 0.21648 0.45053 0.0
H311 H 0.4207 0.19972 0.38806 0.0
O312 O 0.31683 0.45167 0.37749 0.0
H313 H 0.35828 0.45938 0.51635 0.0
H314 H 0.35595 0.5519 0.40076 0.0
H315 H 0.45115 0.19994 0.54664 0.0
H316 H 0.27427 0.23854 0.29495 0.0
H317 H 0.46098 0.11835 0.50251 0.0
H318 H 0.21051 0.16617 0.33865 0.0
O319 O 0.46994 0.35998 0.44818 0.0
H320 H 0.49214 0.51068 0.29185 0.0
H321 H 0.46545 0.53319 0.44924 0.0
H322 H 0.54373 0.59578 0.41196 0.0
H323 H 0.5575 0.58493 0.3326 0.0
H324 H 0.41453 0.44903 0.33035 0.0
H325 H 0.33135 0.62808 0.44236 0.0
H326 H 0.3197 0.6194 0.52255 0.0
O327 O 0.42918 0.42906 0.46832 0.0
C328 C 0.31503 0.34259 0.47484 0.0
C329 C 0.33904 0.53872 0.52476 0.0
C330 C 0.337 0.59103 0.45891 0.0
N331 N 0.35753 0.50039 0.45585 0.0
C332 C 0.35234 0.49602 0.50003 0.0
C333 C 0.35047 0.54746 0.43535 0.0
C334 C 0.3308 0.5863 0.50391 0.0
C335 C 0.32922 0.26705 0.34903 0.0
N336 N 0.34001 0.26102 0.39203 0.0
C337 C 0.28262 0.23319 0.32909 0.0
C338 C 0.24685 0.19265 0.35361 0.0
C339 C 0.25809 0.18653 0.39756 0.0
C340 C 0.30502 0.22135 0.41634 0.0
C341 C 0.44173 0.15413 0.44221 0.0
C342 C 0.43151 0.24542 0.4911 0.0
C343 C 0.4282 0.2005 0.42274 0.0
N344 N 0.4234 0.24558 0.44716 0.0
C345 C 0.44496 0.19975 0.51175 0.0
C346 C 0.45032 0.15393 0.48701 0.0
C347 C 0.46918 0.40388 0.47019 0.0
C348 C 0.4862 0.51629 0.32633 0.0
C349 C 0.47043 0.52856 0.41457 0.0
C350 C 0.51512 0.56408 0.39367 0.0
C351 C 0.5229 0.55788 0.34921 0.0
N352 N 0.4339 0.48837 0.39182 0.0
C353 C 0.44192 0.48159 0.34833 0.0
Co354 Co 0.39354 0.81093 0.91114 0.0
Co355 Co 0.3677 0.94404 0.91091 0.0
O356 O 0.37975 0.87697 0.88091 0.0
C357 C 0.46927 0.82693 0.83114 0.0
O358 O 0.45243 0.87173 0.82013 0.0
C359 C 0.27427 0.91589 0.84646 0.0
O360 O 0.26875 0.86295 0.85514 0.0
O361 O 0.30788 0.89804 0.94839 0.0
O362 O 0.33733 0.81845 0.95632 0.0
H363 H 0.35575 0.06729 0.03998 0.0
H364 H 0.35614 0.80754 0.81815 0.0
O365 O 0.45087 0.80038 0.86594 0.0
H366 H 0.22333 0.65499 0.89084 0.0
H367 H 0.42973 0.6179 0.92346 0.0
H368 H 0.40105 0.78125 1.00434 0.0
H369 H 0.29941 0.71507 0.9324 0.0
H370 H 0.41269 0.69956 0.88469 0.0
O371 O 0.31045 0.95265 0.86626 0.0
H372 H 0.36963 0.98303 1.00323 0.0
H373 H 0.34446 0.05144 0.88014 0.0
H374 H 0.41669 0.70018 0.04482 0.0
H375 H 0.28034 0.74917 0.77568 0.0
H376 H 0.43167 0.61769 1.00428 0.0
H377 H 0.21324 0.6719 0.81194 0.0
O378 O 0.45444 0.85839 0.94636 0.0
H379 H 0.46527 0.00789 0.76984 0.0
H380 H 0.46851 0.03418 0.92901 0.0
H381 H 0.54324 0.09107 0.88417 0.0
H382 H 0.54204 0.07802 0.80397 0.0
H383 H 0.39154 0.95161 0.81597 0.0
H384 H 0.3295 0.13622 0.91559 0.0
H385 H 0.3349 0.14461 0.9961 0.0
O386 O 0.42493 0.93765 0.95559 0.0
C387 C 0.3053 0.85066 0.96615 0.0
C388 C 0.35243 0.0638 1.0049 0.0
C389 C 0.33775 0.10247 0.93513 0.0
N390 N 0.35611 0.01098 0.93963 0.0
C391 C 0.3599 0.0158 0.98389 0.0
C392 C 0.3457 0.05393 0.91525 0.0
C393 C 0.34095 0.10724 0.98028 0.0
C394 C 0.32773 0.77394 0.83427 0.0
N395 N 0.33358 0.76407 0.87759 0.0
C396 C 0.28456 0.74102 0.80999 0.0
C397 C 0.24689 0.69777 0.83035 0.0
C398 C 0.25256 0.68826 0.87461 0.0
C399 C 0.29604 0.72229 0.89791 0.0
C400 C 0.42383 0.6538 0.94152 0.0
C401 C 0.40773 0.74594 0.98645 0.0
C402 C 0.41478 0.70055 0.91958 0.0
N403 N 0.40695 0.74603 0.94197 0.0
C404 C 0.41647 0.69991 1.00957 0.0
C405 C 0.42475 0.65362 0.98685 0.0
C406 C 0.45723 0.90544 0.96455 0.0
C407 C 0.46633 0.01389 0.80476 0.0
C408 C 0.46779 0.02797 0.89416 0.0
C409 C 0.51015 0.0605 0.86892 0.0
C410 C 0.50941 0.0532 0.82393 0.0
N411 N 0.42593 0.98912 0.87518 0.0
C412 C 0.42461 0.98221 0.83105 0.0
Co413 Co 0.70951 0.6136 0.63644 0.0
Co414 Co 0.57977 0.64173 0.63504 0.0
O415 O 0.64394 0.62723 0.66693 0.0
C416 C 0.69088 0.52632 0.70809 0.0
O417 O 0.63701 0.51414 0.70076 0.0
C418 C 0.59686 0.72937 0.70596 0.0
O419 O 0.65055 0.74283 0.69789 0.0
O420 O 0.63081 0.70645 0.60604 0.0
O421 O 0.69955 0.66449 0.58706 0.0
H422 H 0.47743 0.68793 0.50302 0.0
H423 H 0.71284 0.6651 0.72422 0.0
O424 O 0.7232 0.56455 0.68624 0.0
H425 H 0.8654 0.78596 0.64229 0.0
H426 H 0.90163 0.57403 0.62935 0.0
H427 H 0.73829 0.59537 0.54423 0.0
H428 H 0.80497 0.70429 0.60742 0.0
H429 H 0.82097 0.59804 0.66555 0.0
O430 O 0.56491 0.69033 0.68463 0.0
H431 H 0.55512 0.66245 0.54241 0.0
H432 H 0.46745 0.65757 0.66168 0.0
H433 H 0.81833 0.57216 0.50641 0.0
H434 H 0.773 0.74556 0.761 0.0
H435 H 0.90052 0.56035 0.5493 0.0
H436 H 0.85001 0.80689 0.71983 0.0
O437 O 0.65961 0.54903 0.60624 0.0
H438 H 0.50976 0.50944 0.75814 0.0
H439 H 0.48481 0.55207 0.60374 0.0
H440 H 0.42182 0.47098 0.63728 0.0
H441 H 0.43376 0.44931 0.71519 0.0
H442 H 0.57229 0.58952 0.72275 0.0
H443 H 0.38902 0.68394 0.62387 0.0
H444 H 0.39404 0.70018 0.54404 0.0
O445 O 0.5913 0.59104 0.58585 0.0
C446 C 0.67483 0.70477 0.58432 0.0
C447 C 0.47502 0.68159 0.53789 0.0
C448 C 0.42545 0.6794 0.6057 0.0
N449 N 0.51657 0.65912 0.60429 0.0
C450 C 0.51904 0.66707 0.56031 0.0
C451 C 0.47026 0.66481 0.62697 0.0
C452 C 0.42815 0.68824 0.56089 0.0
C453 C 0.74763 0.68998 0.70684 0.0
N454 N 0.75714 0.67785 0.66462 0.0
C455 C 0.78099 0.73622 0.7275 0.0
C456 C 0.82401 0.77074 0.70434 0.0
C457 C 0.83275 0.75896 0.66089 0.0
C458 C 0.79849 0.71235 0.64139 0.0
C459 C 0.86579 0.57841 0.61038 0.0
C460 C 0.77367 0.59049 0.56294 0.0
C461 C 0.81966 0.59159 0.63074 0.0
N462 N 0.7741 0.59718 0.60704 0.0
C463 C 0.81907 0.5774 0.54141 0.0
C464 C 0.86524 0.57097 0.56543 0.0
C465 C 0.61609 0.55069 0.58376 0.0
C466 C 0.50335 0.51905 0.72442 0.0
C467 C 0.4898 0.54367 0.63786 0.0
C468 C 0.45409 0.4974 0.65661 0.0
C469 C 0.46088 0.48521 0.70027 0.0
N470 N 0.53062 0.5775 0.66203 0.0
C471 C 0.53812 0.56503 0.70452 0.0
C472 C 0.27717 0.32201 0.55081 0.0
C473 C 0.26926 0.31688 0.50511 0.0
C474 C 0.18499 0.24311 0.51638 0.0
C475 C 0.19374 0.24757 0.56202 0.0
N476 N 0.23653 0.3027 0.62259 0.0
N477 N 0.20756 0.28427 0.44494 0.0
C478 C 0.236 0.29105 0.57915 0.0
C479 C 0.22016 0.28154 0.48811 0.0
N480 N 0.32499 0.35482 0.56718 0.0
N481 N 0.14495 0.2005 0.49997 0.0
H482 H 0.23304 0.31116 0.42325 0.0
H483 H 0.16988 0.26319 0.43134 0.0
H484 H 0.11774 0.173 0.51999 0.0
H485 H 0.14088 0.19055 0.46701 0.0
H486 H 0.3365 0.35497 0.59982 0.0
H487 H 0.35491 0.3794 0.54737 0.0
H488 H 0.26337 0.33692 0.63677 0.0
H489 H 0.20607 0.28104 0.64368 0.0
C490 C 0.70718 0.43924 0.74633 0.0
C491 C 0.71538 0.49811 0.74378 0.0
C492 C 0.7918 0.50808 0.79578 0.0
C493 C 0.77989 0.44978 0.80306 0.0
N494 N 0.71593 0.36076 0.79129 0.0
N495 N 0.74984 0.58495 0.78085 0.0
C496 C 0.73443 0.4154 0.78011 0.0
C497 C 0.75288 0.53142 0.77309 0.0
N498 N 0.67546 0.40608 0.71586 0.0
N499 N 0.84182 0.54125 0.80746 0.0
H500 H 0.71608 0.59987 0.76967 0.0
H501 H 0.77496 0.61015 0.80377 0.0
H502 H 0.87449 0.52514 0.81915 0.0
H503 H 0.85296 0.58354 0.79982 0.0
H504 H 0.67294 0.36343 0.71379 0.0
H505 H 0.65557 0.42178 0.69042 0.0
H506 H 0.68 0.33539 0.77808 0.0
H507 H 0.73285 0.34245 0.81701 0.0
C508 C 0.53725 0.95465 0.06862 0.0
C509 C 0.57383 1.00314 0.05175 0.0
C510 C 0.54812 0.96947 0.97792 0.0
C511 C 0.50374 0.92835 0.99461 0.0
N512 N 0.45083 0.88619 0.05679 0.0
N513 N 0.59762 0.06357 0.98931 0.0
C514 C 0.4972 0.92139 0.04032 0.0
C515 C 0.57564 0.01226 1.006 0.0
N516 N 0.53873 0.94175 0.11174 0.0
N517 N 0.56141 0.96983 0.93476 0.0
H518 H 0.60649 0.09828 1.00918 0.0
H519 H 0.59696 0.07282 0.95623 0.0
H520 H 0.54087 0.93908 0.9133 0.0
H521 H 0.59606 0.99745 0.92168 0.0
H522 H 0.51618 0.90441 0.12483 0.0
H523 H 0.56562 0.96649 0.13375 0.0
H524 H 0.44067 0.88404 0.08978 0.0
H525 H 0.42011 0.86272 0.03687 0.0
C526 C 0.02201 0.839 0.26535 0.0
C527 C 0.03143 0.82974 0.31007 0.0
C528 C 0.09289 0.76784 0.29023 0.0
C529 C 0.08474 0.77834 0.24552 0.0
N530 N 0.05203 0.83286 0.19056 0.0
N531 N 0.08494 0.79598 0.36526 0.0
C532 C 0.05259 0.81686 0.23314 0.0
C533 C 0.06988 0.79752 0.32251 0.0
N534 N 0.98159 0.86614 0.25351 0.0
N535 N 0.11974 0.72721 0.30195 0.0
H536 H 0.06911 0.81757 0.38963 0.0
H537 H 0.11684 0.77782 0.37599 0.0
H538 H 0.13733 0.7045 0.27951 0.0
H539 H 0.12095 0.71296 0.33376 0.0
H540 H 0.96805 0.86822 0.22157 0.0
H541 H 0.95839 0.88322 0.27594 0.0
H542 H 0.03396 0.86483 0.18 0.0
H543 H 0.07427 0.81767 0.16626 0.0
C544 C 0.24918 0.92224 0.76749 0.0
C545 C 0.24026 0.93408 0.81183 0.0
C546 C 0.18042 0.99656 0.78977 0.0
C547 C 0.18832 0.98371 0.74547 0.0
N548 N 0.21955 0.92577 0.69234 0.0
N549 N 0.18855 0.97238 0.86575 0.0
C550 C 0.21933 0.94371 0.73445 0.0
C551 C 0.20297 0.96806 0.82311 0.0
N552 N 0.28847 0.89319 0.75677 0.0
N553 N 0.15413 0.03815 0.80001 0.0
H554 H 0.20426 0.9519 0.89088 0.0
H555 H 0.15737 0.99193 0.87583 0.0
H556 H 0.13645 0.05964 0.77675 0.0
H557 H 0.15321 0.05418 0.83128 0.0
H558 H 0.30173 0.88898 0.72502 0.0
H559 H 0.31112 0.8766 0.77989 0.0
H560 H 0.23672 0.89276 0.68278 0.0
H561 H 0.19789 0.94058 0.66746 0.0
C562 C 0.05913 0.47336 0.99122 0.0
C563 C 0.01802 0.42766 1.00591 0.0
C564 C 0.04259 0.45698 0.08132 0.0
C565 C 0.07463 0.50861 0.06565 0.0
N566 N 0.09629 0.5703 1.00388 0.0
N567 N 0.96655 0.37783 0.06582 0.0
C568 C 0.07896 0.51795 1.02006 0.0
C569 C 1.00917 0.41931 0.05136 0.0
N570 N 0.07673 0.47562 0.94904 0.0
N571 N 0.04196 0.44498 0.12471 0.0
H572 H 0.94147 0.35031 0.04453 0.0
H573 H 0.95374 0.37338 0.0982 0.0
H574 H 0.06324 0.47295 0.14768 0.0
H575 H 0.02345 0.40599 0.13736 0.0
H576 H 0.10944 0.50691 0.93744 0.0
H577 H 0.06229 0.44298 0.92739 0.0
H578 H 0.09711 0.5793 0.97072 0.0
H579 H 0.10077 0.60501 1.02371 0.0
C580 C 0.57713 0.31229 0.31069 0.0
C581 C 0.51875 0.3093 0.30998 0.0
C582 C 0.50735 0.23863 0.25327 0.0
C583 C 0.56615 0.24481 0.25024 0.0
N584 N 0.6577 0.29918 0.26983 0.0
N585 N 0.43455 0.2871 0.2676 0.0
C586 C 0.60145 0.28519 0.27713 0.0
C587 C 0.48584 0.27799 0.27711 0.0
N588 N 0.60911 0.33922 0.34392 0.0
N589 N 0.47147 0.19303 0.23661 0.0
H590 H 0.42132 0.3208 0.2809 0.0
H591 H 0.41 0.267 0.24208 0.0
H592 H 0.48512 0.15933 0.22412 0.0
H593 H 0.42832 0.18559 0.24097 0.0
H594 H 0.65068 0.33752 0.3485 0.0
H595 H 0.59292 0.35984 0.36868 0.0
H596 H 0.68451 0.33166 0.28606 0.0
H597 H 0.6767 0.2825 0.24435 0.0
C598 C 0.77335 0.83408 0.54049 0.0
C599 C 0.76689 0.8252 0.49498 0.0
C600 C 0.69217 0.74252 0.50799 0.0
C601 C 0.69902 0.75069 0.55361 0.0
N602 N 0.73535 0.81216 0.61291 0.0
N603 N 0.70915 0.78225 0.43574 0.0
C604 C 0.73579 0.79944 0.56969 0.0
C605 C 0.72238 0.78318 0.47892 0.0
N606 N 0.81716 0.87363 0.55588 0.0
N607 N 0.65875 0.69472 0.49233 0.0
H608 H 0.73038 0.81219 0.41412 0.0
H609 H 0.67413 0.75562 0.42237 0.0
H610 H 0.63528 0.66477 0.51269 0.0
H611 H 0.6573 0.68308 0.45967 0.0
H612 H 0.82859 0.87775 0.58857 0.0
H613 H 0.84427 0.90028 0.53524 0.0
H614 H 0.75734 0.84962 0.62612 0.0
H615 H 0.70923 0.78693 0.63508 0.0
C616 C 0.1892 0.44326 0.25644 0.0
C617 C 0.19664 0.50203 0.25523 0.0
C618 C 0.27311 0.51173 0.307 0.0
C619 C 0.26299 0.45312 0.31215 0.0
N620 N 0.20052 0.36362 0.29893 0.0
N621 N 0.22891 0.58781 0.29404 0.0
C622 C 0.21764 0.41883 0.28903 0.0
C623 C 0.23321 0.53485 0.2853 0.0
N624 N 0.15695 0.41091 0.22582 0.0
N625 N 0.32264 0.54544 0.31922 0.0
H626 H 0.19507 0.60264 0.28262 0.0
H627 H 0.25339 0.61265 0.31747 0.0
H628 H 0.35635 0.52971 0.32936 0.0
H629 H 0.33244 0.58817 0.31323 0.0
H630 H 0.15505 0.3685 0.22247 0.0
H631 H 0.13529 0.42722 0.20181 0.0
H632 H 0.16485 0.33802 0.28553 0.0
H633 H 0.21833 0.34485 0.32391 0.0
C634 C 0.73457 0.27863 0.98255 0.0
C635 C 0.7769 0.32147 0.9997 0.0
C636 C 0.7443 0.29177 0.07344 0.0
C637 C 0.71064 0.24212 0.05583 0.0
N638 N 0.69197 0.18235 0.99266 0.0
N639 N 0.82741 0.36485 0.06256 0.0
C640 C 0.70983 0.234 1.01001 0.0
C641 C 0.78284 0.32768 0.04557 0.0
N642 N 0.72105 0.27841 0.93946 0.0
N643 N 0.74169 0.30334 0.11676 0.0
H644 H 0.85711 0.39019 0.04295 0.0
H645 H 0.83733 0.36697 0.09559 0.0
H646 H 0.71621 0.27663 0.13857 0.0
H647 H 0.76195 0.34126 0.13034 0.0
H648 H 0.68783 0.24918 0.9261 0.0
H649 H 0.73976 0.31054 0.91846 0.0
H650 H 0.69291 0.17423 0.9594 0.0
H651 H 0.68693 0.1472 1.01198 0.0
C652 C 0.75531 0.92185 0.26416 0.0
C653 C 0.74696 0.93324 0.3087 0.0
C654 C 0.68454 0.99374 0.28752 0.0
C655 C 0.69125 0.98069 0.24308 0.0
N656 N 0.72268 0.9232 0.18966 0.0
N657 N 0.69452 0.96966 0.36326 0.0
C658 C 0.72339 0.94175 0.23164 0.0
C659 C 0.70864 0.96597 0.32049 0.0
N660 N 0.796 0.8949 0.25263 0.0
N661 N 0.65794 0.03492 0.29822 0.0
H662 H 0.71099 0.94946 0.38816 0.0
H663 H 0.66273 0.98823 0.37363 0.0
H664 H 0.63953 0.05621 0.27526 0.0
H665 H 0.65774 0.05101 0.32955 0.0
H666 H 0.80857 0.8913 0.22059 0.0
H667 H 0.8206 0.87988 0.2752 0.0
H668 H 0.74068 0.89078 0.18 0.0
H669 H 0.69941 0.93663 0.16517 0.0
C670 C 1.00075 0.92708 0.54153 0.0
C671 C 1.00965 0.93743 0.49635 0.0
C672 C 0.08826 0.01563 0.5127 0.0
C673 C 0.07901 0.00562 0.55788 0.0
N674 N 0.03696 0.94351 0.61504 0.0
N675 N 0.07045 0.98109 0.43888 0.0
C676 C 0.03882 0.95829 0.57214 0.0
C677 C 0.05653 0.97819 0.48198 0.0
N678 N 0.95428 0.88955 0.55529 0.0
N679 N 0.12531 0.06247 0.49912 0.0
H680 H 0.04789 0.95393 0.41593 0.0
H681 H 0.10686 0.00659 0.42659 0.0
H682 H 0.14959 0.09014 0.52081 0.0
H683 H 0.12928 0.07582 0.46688 0.0
H684 H 0.94168 0.88467 0.58769 0.0
H685 H 0.92608 0.86581 0.53366 0.0
H686 H 0.01196 0.90679 0.62713 0.0
H687 H 0.06449 0.96574 0.63794 0.0
C688 C 0.03045 0.32721 0.77303 0.0
C689 C 0.04092 0.31629 0.81729 0.0
C690 C 0.09678 0.25034 0.7944 0.0
C691 C 0.08761 0.26249 0.75015 0.0
N692 N 0.05652 0.32086 0.69727 0.0
N693 N 0.09302 0.27701 0.87027 0.0
C694 C 0.0578 0.30364 0.73949 0.0
C695 C 0.07702 0.28083 0.82797 0.0
N696 N 0.992 0.35749 0.76292 0.0
N697 N 0.12159 0.20762 0.80447 0.0
H698 H 0.07942 0.29896 0.89554 0.0
H699 H 0.12357 0.25635 0.87981 0.0
H700 H 0.13701 0.18446 0.78104 0.0
H701 H 0.12329 0.19228 0.83589 0.0
H702 H 0.97747 0.36112 0.73146 0.0
H703 H 0.97127 0.37575 0.78636 0.0
H704 H 0.04037 0.3546 0.68789 0.0
H705 H 0.07637 0.30466 0.672 0.0
C706 C 0.57942 0.81576 0.74462 0.0
C707 C 0.57216 0.75701 0.74185 0.0
C708 C 0.49487 0.74539 0.79305 0.0
C709 C 0.50563 0.8036 0.80052 0.0
N710 N 0.56918 0.89323 0.79012 0.0
N711 N 0.53918 0.66995 0.77892 0.0
C712 C 0.5513 0.83873 0.77832 0.0
C713 C 0.53494 0.72306 0.77095 0.0
N714 N 0.61097 0.84958 0.71446 0.0
N715 N 0.44489 0.71138 0.80376 0.0
H716 H 0.57379 0.65601 0.76821 0.0
H717 H 0.51406 0.64432 0.80159 0.0
H718 H 0.41122 0.72682 0.81431 0.0
H719 H 0.4349 0.66906 0.79613 0.0
H720 H 0.61278 0.89214 0.71265 0.0
H721 H 0.63143 0.83455 0.68902 0.0
H722 H 0.60512 0.91909 0.77731 0.0
H723 H 0.55191 0.91085 0.81604 0.0
C724 C 0.19893 0.7372 1.01181 0.0
C725 C 0.20027 0.74841 0.05714 0.0
C726 C 0.26677 0.83704 0.0426 0.0
C727 C 0.25991 0.82712 0.99719 0.0
N728 N 0.20318 0.77724 0.94 0.0
N729 N 0.23002 0.81466 0.11524 0.0
C730 C 0.21934 0.78097 0.98252 0.0
C731 C 0.23156 0.80073 0.07236 0.0
N732 N 0.18497 0.68415 0.99658 0.0
N733 N 0.30925 0.87845 0.0574 0.0
H734 H 0.20785 0.78768 0.13838 0.0
H735 H 0.24794 0.85423 0.12716 0.0
H736 H 0.33575 0.90491 0.03628 0.0
H737 H 0.3206 0.88365 0.09008 0.0
H738 H 0.18561 0.67431 0.96361 0.0
H739 H 0.18391 0.65061 1.01709 0.0
H740 H 0.17119 0.74519 0.92839 0.0
H741 H 0.21792 0.80942 0.91806 0.0
C742 C 0.56259 0.46864 0.48101 0.0
C743 C 0.51707 0.42928 0.49896 0.0
C744 C 0.55287 0.45671 0.57233 0.0
C745 C 0.59075 0.5034 0.55451 0.0
N746 N 0.63219 0.55422 0.49137 0.0
N747 N 0.46787 0.38611 0.56225 0.0
C748 C 0.59628 0.50904 0.50863 0.0
C749 C 0.51243 0.42282 0.54483 0.0
N750 N 0.57333 0.46759 0.43748 0.0
N751 N 0.55518 0.44507 0.61562 0.0
H752 H 0.43888 0.35956 0.54296 0.0
H753 H 0.45789 0.38436 0.59525 0.0
H754 H 0.58395 0.46954 0.63646 0.0
H755 H 0.53224 0.4088 0.62997 0.0
H756 H 0.60876 0.49182 0.42276 0.0
H757 H 0.5491 0.43857 0.41671 0.0
H758 H 0.63307 0.56493 0.45855 0.0
H759 H 0.6592 0.58277 0.51068 0.0
loop_
_geom_bond_atom_site_label_1
_geom_bond_atom_site_label_2
_geom_bond_distance
_geom_bond_site_symmetry_2
_ccdc_geom_bond_type
Co0 O2 2.143 . S
Co0 O8 2.074 . S
Co0 O11 2.093 . S
Co0 O24 2.097 . S
Co0 N41 2.151 . S
Co0 N49 2.214 . S
Co1 O2 2.160 . S
Co1 O7 2.058 . S
Co1 O17 2.057 . S
Co1 O32 2.037 . S
Co1 N36 2.145 1_455 S
Co1 N57 2.257 . S
O2 Co0 2.143 . S
O2 Co1 2.160 . S
C3 O4 1.278 . S
C3 O11 1.224 . S
O4 C3 1.278 . S
C5 O6 1.245 . S
C5 O17 1.232 . S
O6 C5 1.245 . S
O7 Co1 2.058 . S
O7 C33 1.269 . S
O8 Co0 2.074 . S
O8 C33 1.257 . S
H9 C34 0.930 . S
H10 C40 0.930 . S
O11 Co0 2.093 . S
O11 C3 1.224 . S
H12 C44 0.929 . S
H13 C46 0.930 . S
H14 C47 0.930 . S
H15 C45 0.929 . S
H16 C48 0.928 . S
O17 Co1 2.057 . S
O17 C5 1.232 . S
H18 C37 0.929 1_455 S
H19 C38 0.929 . S
H20 C50 0.931 . S
H21 C42 0.929 . S
H22 C51 0.930 . S
H23 C43 0.931 . S
O24 Co0 2.097 . S
O24 C52 1.214 . S
H25 C53 0.929 . S
H26 C54 0.929 . S
H27 C55 0.935 . S
H28 C56 0.929 . S
H29 C58 0.930 . S
H30 C35 0.930 . S
H31 C39 0.930 . S
O32 Co1 2.037 . S
O32 C52 1.234 . S
C33 O7 1.269 . S
C33 O8 1.257 . S
C34 H9 0.930 . S
C34 C37 1.388 . S
C34 C39 1.418 . S
C35 H30 0.930 . S
C35 C38 1.404 . S
C35 C39 1.353 . S
N36 Co1 2.145 1_655 S
N36 C37 1.397 . S
N36 C38 1.334 . S
C37 H18 0.929 1_655 S
C37 C34 1.388 . S
C37 N36 1.397 . S
C38 H19 0.929 . S
C38 C35 1.404 . S
C38 N36 1.334 . S
C39 H31 0.930 . S
C39 C34 1.418 . S
C39 C35 1.353 . S
C40 H10 0.930 . S
C40 N41 1.330 . S
C40 C42 1.446 . S
N41 Co0 2.151 . S
N41 C40 1.330 . S
N41 C45 1.418 . S
C42 H21 0.929 . S
C42 C40 1.446 . S
C42 C43 1.332 . S
C43 H23 0.931 . S
C43 C42 1.332 . S
C43 C44 1.267 . S
C44 H12 0.929 . S
C44 C43 1.267 . S
C44 C45 1.251 . S
C45 H15 0.929 . S
C45 N41 1.418 . S
C45 C44 1.251 . S
C46 H13 0.930 . S
C46 C48 1.406 . S
C46 C51 1.261 . S
C47 H14 0.930 . S
C47 N49 1.325 . S
C47 C50 1.357 . S
C48 H16 0.928 . S
C48 C46 1.406 . S
C48 N49 1.261 . S
N49 Co0 2.214 . S
N49 C47 1.325 . S
N49 C48 1.261 . S
C50 H20 0.931 . S
C50 C47 1.357 . S
C50 C51 1.312 . S
C51 H22 0.930 . S
C51 C46 1.261 . S
C51 C50 1.312 . S
C52 O24 1.214 . S
C52 O32 1.234 . S
C53 H25 0.929 . S
C53 C56 1.391 1_545 S
C53 C58 1.391 1_655 S
C54 H26 0.929 . S
C54 C55 1.384 1_545 S
C54 N57 1.391 1_655 S
C55 H27 0.935 . S
C55 C54 1.384 1_565 S
C55 C56 1.393 . S
C56 H28 0.929 . S
C56 C53 1.391 1_565 S
C56 C55 1.393 . S
N57 Co1 2.257 . S
N57 C54 1.391 1_455 S
N57 C58 1.388 . S
C58 H29 0.930 . S
C58 C53 1.391 1_455 S
C58 N57 1.388 . S
Co59 O61 2.143 . S
Co59 O67 2.074 . S
Co59 O70 2.093 . S
Co59 O83 2.097 . S
Co59 N100 2.151 . S
Co59 N108 2.214 . S
Co60 O61 2.160 . S
Co60 O66 2.058 . S
Co60 O76 2.057 . S
Co60 O91 2.037 . S
Co60 N95 2.145 . S
Co60 N116 2.257 . S
O61 Co59 2.143 . S
O61 Co60 2.160 . S
C62 O63 1.278 . S
C62 O70 1.224 . S
O63 C62 1.278 . S
C64 O65 1.245 . S
C64 O76 1.232 . S
O65 C64 1.245 . S
O66 Co60 2.058 . S
O66 C92 1.269 . S
O67 Co59 2.074 . S
O67 C92 1.257 . S
H68 C93 0.930 1_554 S
H69 C99 0.930 . S
O70 Co59 2.093 . S
O70 C62 1.224 . S
H71 C103 0.929 . S
H72 C105 0.930 . S
H73 C106 0.930 . S
H74 C104 0.929 . S
H75 C107 0.928 . S
O76 Co60 2.057 . S
O76 C64 1.232 . S
H77 C96 0.929 . S
H78 C97 0.929 . S
H79 C109 0.931 1_554 S
H80 C101 0.929 . S
H81 C110 0.930 1_554 S
H82 C102 0.931 . S
O83 Co59 2.097 . S
O83 C111 1.214 . S
H84 C112 0.929 . S
H85 C113 0.929 . S
H86 C114 0.935 . S
H87 C115 0.929 . S
H88 C117 0.930 . S
H89 C94 0.930 . S
H90 C98 0.930 . S
O91 Co60 2.037 . S
O91 C111 1.234 . S
C92 O66 1.269 . S
C92 O67 1.257 . S
C93 H68 0.930 1_556 S
C93 C96 1.388 . S
C93 C98 1.418 . S
C94 H89 0.930 . S
C94 C97 1.404 . S
C94 C98 1.353 . S
N95 Co60 2.145 . S
N95 C96 1.397 . S
N95 C97 1.334 . S
C96 H77 0.929 . S
C96 C93 1.388 . S
C96 N95 1.397 . S
C97 H78 0.929 . S
C97 C94 1.404 . S
C97 N95 1.334 . S
C98 H90 0.930 . S
C98 C93 1.418 . S
C98 C94 1.353 . S
C99 H69 0.930 . S
C99 N100 1.330 . S
C99 C101 1.446 . S
N100 Co59 2.151 . S
N100 C99 1.330 . S
N100 C104 1.418 . S
C101 H80 0.929 . S
C101 C99 1.446 . S
C101 C102 1.332 . S
C102 H82 0.931 . S
C102 C101 1.332 . S
C102 C103 1.267 . S
C103 H71 0.929 . S
C103 C102 1.267 . S
C103 C104 1.251 . S
C104 H74 0.929 . S
C104 N100 1.418 . S
C104 C103 1.251 . S
C105 H72 0.930 . S
C105 C107 1.406 . S
C105 C110 1.261 . S
C106 H73 0.930 . S
C106 N108 1.325 . S
C106 C109 1.357 . S
C107 H75 0.928 . S
C107 C105 1.406 . S
C107 N108 1.261 . S
N108 Co59 2.214 . S
N108 C106 1.325 . S
N108 C107 1.261 . S
C109 H79 0.931 1_556 S
C109 C106 1.357 . S
C109 C110 1.312 . S
C110 H81 0.930 1_556 S
C110 C105 1.261 . S
C110 C109 1.312 . S
C111 O83 1.214 . S
C111 O91 1.234 . S
C112 H84 0.929 . S
C112 C115 1.391 1_655 S
C112 C117 1.391 . S
C113 H85 0.929 . S
C113 C114 1.384 1_655 S
C113 N116 1.391 . S
C114 H86 0.935 . S
C114 C113 1.384 1_455 S
C114 C115 1.393 . S
C115 H87 0.929 . S
C115 C112 1.391 1_455 S
C115 C114 1.393 . S
N116 Co60 2.257 . S
N116 C113 1.391 . S
N116 C117 1.388 . S
C117 H88 0.930 . S
C117 C112 1.391 . S
C117 N116 1.388 . S
Co118 O120 2.143 . S
Co118 O126 2.074 . S
Co118 O129 2.093 . S
Co118 O142 2.097 . S
Co118 N159 2.151 . S
Co118 N167 2.214 . S
Co119 O120 2.160 . S
Co119 O125 2.058 . S
Co119 O135 2.057 . S
Co119 O150 2.037 . S
Co119 N154 2.145 . S
Co119 N175 2.257 . S
O120 Co118 2.143 . S
O120 Co119 2.160 . S
C121 O122 1.278 . S
C121 O129 1.224 . S
O122 C121 1.278 . S
C123 O124 1.245 . S
C123 O135 1.232 . S
O124 C123 1.245 . S
O125 Co119 2.058 . S
O125 C151 1.269 . S
O126 Co118 2.074 . S
O126 C151 1.257 . S
H127 C152 0.930 1_556 S
H128 C158 0.930 . S
O129 Co118 2.093 . S
O129 C121 1.224 . S
H130 C162 0.929 . S
H131 C164 0.930 . S
H132 C165 0.930 . S
H133 C163 0.929 . S
H134 C166 0.928 . S
O135 Co119 2.057 . S
O135 C123 1.232 . S
H136 C155 0.929 . S
H137 C156 0.929 . S
H138 C168 0.931 1_556 S
H139 C160 0.929 . S
H140 C169 0.930 1_556 S
H141 C161 0.931 . S
O142 Co118 2.097 . S
O142 C170 1.214 . S
H143 C171 0.929 . S
H144 C172 0.929 . S
H145 C173 0.935 . S
H146 C174 0.929 . S
H147 C176 0.930 . S
H148 C153 0.930 . S
H149 C157 0.930 . S
O150 Co119 2.037 . S
O150 C170 1.234 . S
C151 O125 1.269 . S
C151 O126 1.257 . S
C152 H127 0.930 1_554 S
C152 C155 1.388 . S
C152 C157 1.418 . S
C153 H148 0.930 . S
C153 C156 1.404 . S
C153 C157 1.353 . S
N154 Co119 2.145 . S
N154 C155 1.397 . S
N154 C156 1.334 . S
C155 H136 0.929 . S
C155 C152 1.388 . S
C155 N154 1.397 . S
C156 H137 0.929 . S
C156 C153 1.404 . S
C156 N154 1.334 . S
C157 H149 0.930 . S
C157 C152 1.418 . S
C157 C153 1.353 . S
C158 H128 0.930 . S
C158 N159 1.330 . S
C158 C160 1.446 . S
N159 Co118 2.151 . S
N159 C158 1.330 . S
N159 C163 1.418 . S
C160 H139 0.929 . S
C160 C158 1.446 . S
C160 C161 1.332 . S
C161 H141 0.931 . S
C161 C160 1.332 . S
C161 C162 1.267 . S
C162 H130 0.929 . S
C162 C161 1.267 . S
C162 C163 1.251 . S
C163 H133 0.929 . S
C163 N159 1.418 . S
C163 C162 1.251 . S
C164 H131 0.930 . S
C164 C166 1.406 . S
C164 C169 1.261 . S
C165 H132 0.930 . S
C165 N167 1.325 . S
C165 C168 1.357 . S
C166 H134 0.928 . S
C166 C164 1.406 . S
C166 N167 1.261 . S
N167 Co118 2.214 . S
N167 C165 1.325 . S
N167 C166 1.261 . S
C168 H138 0.931 1_554 S
C168 C165 1.357 . S
C168 C169 1.312 . S
C169 H140 0.930 1_554 S
C169 C164 1.261 . S
C169 C168 1.312 . S
C170 O142 1.214 . S
C170 O150 1.234 . S
C171 H143 0.929 . S
C171 C174 1.391 1_545 S
C171 C176 1.391 . S
C172 H144 0.929 . S
C172 C173 1.384 1_545 S
C172 N175 1.391 . S
C173 H145 0.935 . S
C173 C172 1.384 1_565 S
C173 C174 1.393 . S
C174 H146 0.929 . S
C174 C171 1.391 1_565 S
C174 C173 1.393 . S
N175 Co119 2.257 . S
N175 C172 1.391 . S
N175 C176 1.388 . S
C176 H147 0.930 . S
C176 C171 1.391 . S
C176 N175 1.388 . S
Co177 O179 2.143 . S
Co177 O185 2.074 . S
Co177 O188 2.093 . S
Co177 O201 2.097 . S
Co177 N218 2.151 . S
Co177 N226 2.214 . S
Co178 O179 2.160 . S
Co178 O184 2.058 . S
Co178 O194 2.057 . S
Co178 O209 2.037 . S
Co178 N213 2.145 1_565 S
Co178 N234 2.257 . S
O179 Co177 2.143 . S
O179 Co178 2.160 . S
C180 O181 1.278 . S
C180 O188 1.224 . S
O181 C180 1.278 . S
C182 O183 1.245 . S
C182 O194 1.232 . S
O183 C182 1.245 . S
O184 Co178 2.058 . S
O184 C210 1.269 . S
O185 Co177 2.074 . S
O185 C210 1.257 . S
H186 C211 0.930 . S
H187 C217 0.930 . S
O188 Co177 2.093 . S
O188 C180 1.224 . S
H189 C221 0.929 . S
H190 C223 0.930 . S
H191 C224 0.930 . S
H192 C222 0.929 . S
H193 C225 0.928 . S
O194 Co178 2.057 . S
O194 C182 1.232 . S
H195 C214 0.929 1_565 S
H196 C215 0.929 . S
H197 C227 0.931 . S
H198 C219 0.929 . S
H199 C228 0.930 . S
H200 C220 0.931 . S
O201 Co177 2.097 . S
O201 C229 1.214 . S
H202 C230 0.929 . S
H203 C231 0.929 . S
H204 C232 0.935 . S
H205 C233 0.929 . S
H206 C235 0.930 . S
H207 C212 0.930 . S
H208 C216 0.930 . S
O209 Co178 2.037 . S
O209 C229 1.234 . S
C210 O184 1.269 . S
C210 O185 1.257 . S
C211 H186 0.930 . S
C211 C214 1.388 . S
C211 C216 1.418 . S
C212 H207 0.930 . S
C212 C215 1.404 . S
C212 C216 1.353 . S
N213 Co178 2.145 1_545 S
N213 C214 1.397 . S
N213 C215 1.334 . S
C214 H195 0.929 1_545 S
C214 C211 1.388 . S
C214 N213 1.397 . S
C215 H196 0.929 . S
C215 C212 1.404 . S
C215 N213 1.334 . S
C216 H208 0.930 . S
C216 C211 1.418 . S
C216 C212 1.353 . S
C217 H187 0.930 . S
C217 N218 1.330 . S
C217 C219 1.446 . S
N218 Co177 2.151 . S
N218 C217 1.330 . S
N218 C222 1.418 . S
C219 H198 0.929 . S
C219 C217 1.446 . S
C219 C220 1.332 . S
C220 H200 0.931 . S
C220 C219 1.332 . S
C220 C221 1.267 . S
C221 H189 0.929 . S
C221 C220 1.267 . S
C221 C222 1.251 . S
C222 H192 0.929 . S
C222 N218 1.418 . S
C222 C221 1.251 . S
C223 H190 0.930 . S
C223 C225 1.406 . S
C223 C228 1.261 . S
C224 H191 0.930 . S
C224 N226 1.325 . S
C224 C227 1.357 . S
C225 H193 0.928 . S
C225 C223 1.406 . S
C225 N226 1.261 . S
N226 Co177 2.214 . S
N226 C224 1.325 . S
N226 C225 1.261 . S
C227 H197 0.931 . S
C227 C224 1.357 . S
C227 C228 1.312 . S
C228 H199 0.930 . S
C228 C223 1.261 . S
C228 C227 1.312 . S
C229 O201 1.214 . S
C229 O209 1.234 . S
C230 H202 0.929 . S
C230 C233 1.391 1_655 S
C230 C235 1.391 1_545 S
C231 H203 0.929 . S
C231 C232 1.384 1_655 S
C231 N234 1.391 1_545 S
C232 H204 0.935 . S
C232 C231 1.384 1_455 S
C232 C233 1.393 . S
C233 H205 0.929 . S
C233 C230 1.391 1_455 S
C233 C232 1.393 . S
N234 Co178 2.257 . S
N234 C231 1.391 1_565 S
N234 C235 1.388 . S
C235 H206 0.930 . S
C235 C230 1.391 1_565 S
C235 N234 1.388 . S
Co236 O238 2.143 . S
Co236 O244 2.074 . S
Co236 O247 2.093 . S
Co236 O260 2.097 . S
Co236 N277 2.151 . S
Co236 N285 2.214 . S
Co237 O238 2.160 . S
Co237 O243 2.058 . S
Co237 O253 2.057 . S
Co237 O268 2.037 . S
Co237 N272 2.145 1_455 S
Co237 N293 2.257 . S
O238 Co236 2.143 . S
O238 Co237 2.160 . S
C239 O240 1.278 . S
C239 O247 1.224 . S
O240 C239 1.278 . S
C241 O242 1.245 . S
C241 O253 1.232 . S
O242 C241 1.245 . S
O243 Co237 2.058 . S
O243 C269 1.269 . S
O244 Co236 2.074 . S
O244 C269 1.257 . S
H245 C270 0.930 1_556 S
H246 C276 0.930 . S
O247 Co236 2.093 . S
O247 C239 1.224 . S
H248 C280 0.929 . S
H249 C282 0.930 . S
H250 C283 0.930 . S
H251 C281 0.929 . S
H252 C284 0.928 . S
O253 Co237 2.057 . S
O253 C241 1.232 . S
H254 C273 0.929 1_455 S
H255 C274 0.929 . S
H256 C286 0.931 1_556 S
H257 C278 0.929 . S
H258 C287 0.930 1_556 S
H259 C279 0.931 . S
O260 Co236 2.097 . S
O260 C288 1.214 . S
H261 C289 0.929 . S
H262 C290 0.929 . S
H263 C291 0.930 . S
H264 C292 0.929 . S
H265 C294 0.930 . S
H266 C271 0.930 . S
H267 C275 0.930 . S
O268 Co237 2.037 . S
O268 C288 1.234 . S
C269 O243 1.269 . S
C269 O244 1.257 . S
C270 H245 0.930 1_554 S
C270 C273 1.388 . S
C270 C275 1.418 . S
C271 H266 0.930 . S
C271 C274 1.404 . S
C271 C275 1.353 . S
N272 Co237 2.145 1_655 S
N272 C273 1.397 . S
N272 C274 1.334 . S
C273 H254 0.929 1_655 S
C273 C270 1.388 . S
C273 N272 1.397 . S
C274 H255 0.929 . S
C274 C271 1.404 . S
C274 N272 1.334 . S
C275 H267 0.930 . S
C275 C270 1.418 . S
C275 C271 1.353 . S
C276 H246 0.930 . S
C276 N277 1.330 . S
C276 C278 1.446 . S
N277 Co236 2.151 . S
N277 C276 1.330 . S
N277 C281 1.418 . S
C278 H257 0.929 . S
C278 C276 1.446 . S
C278 C279 1.332 . S
C279 H259 0.931 . S
C279 C278 1.332 . S
C279 C280 1.267 . S
C280 H248 0.929 . S
C280 C279 1.267 . S
C280 C281 1.251 . S
C281 H251 0.929 . S
C281 N277 1.418 . S
C281 C280 1.251 . S
C282 H249 0.930 . S
C282 C284 1.406 . S
C282 C287 1.261 . S
C283 H250 0.930 . S
C283 N285 1.325 . S
C283 C286 1.357 . S
C284 H252 0.928 . S
C284 C282 1.406 . S
C284 N285 1.261 . S
N285 Co236 2.214 . S
N285 C283 1.325 . S
N285 C284 1.261 . S
C286 H256 0.931 1_554 S
C286 C283 1.357 . S
C286 C287 1.312 . S
C287 H258 0.930 1_554 S
C287 C282 1.261 . S
C287 C286 1.312 . S
C288 O260 1.214 . S
C288 O268 1.234 . S
C289 H261 0.929 . S
C289 C292 1.391 . S
C289 C294 1.391 1_655 S
C290 H262 0.929 . S
C290 C291 1.390 . S
C290 N293 1.391 1_655 S
C291 H263 0.930 . S
C291 C290 1.390 . S
C291 C292 1.392 . S
C292 H264 0.929 . S
C292 C289 1.391 . S
C292 C291 1.392 . S
N293 Co237 2.257 . S
N293 C290 1.391 1_455 S
N293 C294 1.388 . S
C294 H265 0.930 . S
C294 C289 1.391 1_455 S
C294 N293 1.388 . S
Co295 O297 2.143 . S
Co295 O303 2.074 . S
Co295 O306 2.093 . S
Co295 O319 2.097 . S
Co295 N336 2.151 . S
Co295 N344 2.214 . S
Co296 O297 2.160 . S
Co296 O302 2.058 . S
Co296 O312 2.057 . S
Co296 O327 2.037 . S
Co296 N331 2.145 . S
Co296 N352 2.257 . S
O297 Co295 2.143 . S
O297 Co296 2.160 . S
C298 O299 1.278 . S
C298 O306 1.224 . S
O299 C298 1.278 . S
C300 O301 1.245 . S
C300 O312 1.232 . S
O301 C300 1.245 . S
O302 Co296 2.058 . S
O302 C328 1.269 . S
O303 Co295 2.074 . S
O303 C328 1.257 . S
H304 C329 0.930 . S
H305 C335 0.930 . S
O306 Co295 2.093 . S
O306 C298 1.224 . S
H307 C339 0.929 . S
H308 C341 0.930 . S
H309 C342 0.930 . S
H310 C340 0.929 . S
H311 C343 0.928 . S
O312 Co296 2.057 . S
O312 C300 1.232 . S
H313 C332 0.929 . S
H314 C333 0.929 . S
H315 C345 0.931 . S
H316 C337 0.929 . S
H317 C346 0.930 . S
H318 C338 0.931 . S
O319 Co295 2.097 . S
O319 C347 1.214 . S
H320 C348 0.929 . S
H321 C349 0.929 . S
H322 C350 0.930 . S
H323 C351 0.929 . S
H324 C353 0.930 . S
H325 C330 0.930 . S
H326 C334 0.930 . S
O327 Co296 2.037 . S
O327 C347 1.234 . S
C328 O302 1.269 . S
C328 O303 1.257 . S
C329 H304 0.930 . S
C329 C332 1.388 . S
C329 C334 1.418 . S
C330 H325 0.930 . S
C330 C333 1.404 . S
C330 C334 1.353 . S
N331 Co296 2.145 . S
N331 C332 1.397 . S
N331 C333 1.334 . S
C332 H313 0.929 . S
C332 C329 1.388 . S
C332 N331 1.397 . S
C333 H314 0.929 . S
C333 C330 1.404 . S
C333 N331 1.334 . S
C334 H326 0.930 . S
C334 C329 1.418 . S
C334 C330 1.353 . S
C335 H305 0.930 . S
C335 N336 1.330 . S
C335 C337 1.446 . S
N336 Co295 2.151 . S
N336 C335 1.330 . S
N336 C340 1.418 . S
C337 H316 0.929 . S
C337 C335 1.446 . S
C337 C338 1.332 . S
C338 H318 0.931 . S
C338 C337 1.332 . S
C338 C339 1.267 . S
C339 H307 0.929 . S
C339 C338 1.267 . S
C339 C340 1.251 . S
C340 H310 0.929 . S
C340 N336 1.418 . S
C340 C339 1.251 . S
C341 H308 0.930 . S
C341 C343 1.406 . S
C341 C346 1.261 . S
C342 H309 0.930 . S
C342 N344 1.325 . S
C342 C345 1.357 . S
C343 H311 0.928 . S
C343 C341 1.406 . S
C343 N344 1.261 . S
N344 Co295 2.214 . S
N344 C342 1.325 . S
N344 C343 1.261 . S
C345 H315 0.931 . S
C345 C342 1.357 . S
C345 C346 1.312 . S
C346 H317 0.930 . S
C346 C341 1.261 . S
C346 C345 1.312 . S
C347 O319 1.214 . S
C347 O327 1.234 . S
C348 H320 0.929 . S
C348 C351 1.391 . S
C348 C353 1.391 . S
C349 H321 0.929 . S
C349 C350 1.390 . S
C349 N352 1.391 . S
C350 H322 0.930 . S
C350 C349 1.390 . S
C350 C351 1.392 . S
C351 H323 0.929 . S
C351 C348 1.391 . S
C351 C350 1.392 . S
N352 Co296 2.257 . S
N352 C349 1.391 . S
N352 C353 1.388 . S
C353 H324 0.930 . S
C353 C348 1.391 . S
C353 N352 1.388 . S
Co354 O356 2.143 . S
Co354 O362 2.074 . S
Co354 O365 2.093 . S
Co354 O378 2.097 . S
Co354 N395 2.151 . S
Co354 N403 2.214 . S
Co355 O356 2.160 . S
Co355 O361 2.058 . S
Co355 O371 2.057 . S
Co355 O386 2.037 . S
Co355 N390 2.145 1_565 S
Co355 N411 2.257 . S
O356 Co354 2.143 . S
O356 Co355 2.160 . S
C357 O358 1.278 . S
C357 O365 1.224 . S
O358 C357 1.278 . S
C359 O360 1.245 . S
C359 O371 1.232 . S
O360 C359 1.245 . S
O361 Co355 2.058 . S
O361 C387 1.269 . S
O362 Co354 2.074 . S
O362 C387 1.257 . S
H363 C388 0.930 1_554 S
H364 C394 0.930 . S
O365 Co354 2.093 . S
O365 C357 1.224 . S
H366 C398 0.929 . S
H367 C400 0.930 . S
H368 C401 0.930 . S
H369 C399 0.929 . S
H370 C402 0.928 . S
O371 Co355 2.057 . S
O371 C359 1.232 . S
H372 C391 0.929 1_565 S
H373 C392 0.929 . S
H374 C404 0.931 1_554 S
H375 C396 0.929 . S
H376 C405 0.930 1_554 S
H377 C397 0.931 . S
O378 Co354 2.097 . S
O378 C406 1.214 . S
H379 C407 0.929 . S
H380 C408 0.929 . S
H381 C409 0.930 . S
H382 C410 0.929 . S
H383 C412 0.930 . S
H384 C389 0.930 . S
H385 C393 0.930 . S
O386 Co355 2.037 . S
O386 C406 1.234 . S
C387 O361 1.269 . S
C387 O362 1.257 . S
C388 H363 0.930 1_556 S
C388 C391 1.388 . S
C388 C393 1.418 . S
C389 H384 0.930 . S
C389 C392 1.404 . S
C389 C393 1.353 . S
N390 Co355 2.145 1_545 S
N390 C391 1.397 . S
N390 C392 1.334 . S
C391 H372 0.929 1_545 S
C391 C388 1.388 . S
C391 N390 1.397 . S
C392 H373 0.929 . S
C392 C389 1.404 . S
C392 N390 1.334 . S
C393 H385 0.930 . S
C393 C388 1.418 . S
C393 C389 1.353 . S
C394 H364 0.930 . S
C394 N395 1.330 . S
C394 C396 1.446 . S
N395 Co354 2.151 . S
N395 C394 1.330 . S
N395 C399 1.418 . S
C396 H375 0.929 . S
C396 C394 1.446 . S
C396 C397 1.332 . S
C397 H377 0.931 . S
C397 C396 1.332 . S
C397 C398 1.267 . S
C398 H366 0.929 . S
C398 C397 1.267 . S
C398 C399 1.251 . S
C399 H369 0.929 . S
C399 N395 1.418 . S
C399 C398 1.251 . S
C400 H367 0.930 . S
C400 C402 1.406 . S
C400 C405 1.261 . S
C401 H368 0.930 . S
C401 N403 1.325 . S
C401 C404 1.357 . S
C402 H370 0.928 . S
C402 C400 1.406 . S
C402 N403 1.261 . S
N403 Co354 2.214 . S
N403 C401 1.325 . S
N403 C402 1.261 . S
C404 H374 0.931 1_556 S
C404 C401 1.357 . S
C404 C405 1.312 . S
C405 H376 0.930 1_556 S
C405 C400 1.261 . S
C405 C404 1.312 . S
C406 O378 1.214 . S
C406 O386 1.234 . S
C407 H379 0.929 . S
C407 C410 1.391 . S
C407 C412 1.391 1_545 S
C408 H380 0.929 . S
C408 C409 1.390 . S
C408 N411 1.391 1_545 S
C409 H381 0.930 . S
C409 C408 1.390 . S
C409 C410 1.392 . S
C410 H382 0.929 . S
C410 C407 1.391 . S
C410 C409 1.392 . S
N411 Co355 2.257 . S
N411 C408 1.391 1_565 S
N411 C412 1.388 . S
C412 H383 0.930 . S
C412 C407 1.391 1_565 S
C412 N411 1.388 . S
Co413 O415 2.143 . S
Co413 O421 2.074 . S
Co413 O424 2.093 . S
Co413 O437 2.097 . S
Co413 N454 2.151 . S
Co413 N462 2.214 . S
Co414 O415 2.160 . S
Co414 O420 2.058 . S
Co414 O430 2.057 . S
Co414 O445 2.037 . S
Co414 N449 2.145 . S
Co414 N470 2.257 . S
O415 Co413 2.143 . S
O415 Co414 2.160 . S
C416 O417 1.278 . S
C416 O424 1.224 . S
O417 C416 1.278 . S
C418 O419 1.245 . S
C418 O430 1.232 . S
O419 C418 1.245 . S
O420 Co414 2.058 . S
O420 C446 1.269 . S
O421 Co413 2.074 . S
O421 C446 1.257 . S
H422 C447 0.930 . S
H423 C453 0.930 . S
O424 Co413 2.093 . S
O424 C416 1.224 . S
H425 C457 0.929 . S
H426 C459 0.930 . S
H427 C460 0.930 . S
H428 C458 0.929 . S
H429 C461 0.928 . S
O430 Co414 2.057 . S
O430 C418 1.232 . S
H431 C450 0.929 . S
H432 C451 0.929 . S
H433 C463 0.931 . S
H434 C455 0.929 . S
H435 C464 0.930 . S
H436 C456 0.931 . S
O437 Co413 2.097 . S
O437 C465 1.214 . S
H438 C466 0.929 . S
H439 C467 0.929 . S
H440 C468 0.930 . S
H441 C469 0.929 . S
H442 C471 0.930 . S
H443 C448 0.930 . S
H444 C452 0.930 . S
O445 Co414 2.037 . S
O445 C465 1.234 . S
C446 O420 1.269 . S
C446 O421 1.257 . S
C447 H422 0.930 . S
C447 C450 1.388 . S
C447 C452 1.418 . S
C448 H443 0.930 . S
C448 C451 1.404 . S
C448 C452 1.353 . S
N449 Co414 2.145 . S
N449 C450 1.397 . S
N449 C451 1.334 . S
C450 H431 0.929 . S
C450 C447 1.388 . S
C450 N449 1.397 . S
C451 H432 0.929 . S
C451 C448 1.404 . S
C451 N449 1.334 . S
C452 H444 0.930 . S
C452 C447 1.418 . S
C452 C448 1.353 . S
C453 H423 0.930 . S
C453 N454 1.330 . S
C453 C455 1.446 . S
N454 Co413 2.151 . S
N454 C453 1.330 . S
N454 C458 1.418 . S
C455 H434 0.929 . S
C455 C453 1.446 . S
C455 C456 1.332 . S
C456 H436 0.931 . S
C456 C455 1.332 . S
C456 C457 1.267 . S
C457 H425 0.929 . S
C457 C456 1.267 . S
C457 C458 1.251 . S
C458 H428 0.929 . S
C458 N454 1.418 . S
C458 C457 1.251 . S
C459 H426 0.930 . S
C459 C461 1.406 . S
C459 C464 1.261 . S
C460 H427 0.930 . S
C460 N462 1.325 . S
C460 C463 1.357 . S
C461 H429 0.928 . S
C461 C459 1.406 . S
C461 N462 1.261 . S
N462 Co413 2.214 . S
N462 C460 1.325 . S
N462 C461 1.261 . S
C463 H433 0.931 . S
C463 C460 1.357 . S
C463 C464 1.312 . S
C464 H435 0.930 . S
C464 C459 1.261 . S
C464 C463 1.312 . S
C465 O437 1.214 . S
C465 O445 1.234 . S
C466 H438 0.929 . S
C466 C469 1.391 . S
C466 C471 1.391 . S
C467 H439 0.929 . S
C467 C468 1.390 . S
C467 N470 1.391 . S
C468 H440 0.930 . S
C468 C467 1.390 . S
C468 C469 1.392 . S
C469 H441 0.929 . S
C469 C466 1.391 . S
C469 C468 1.392 . S
N470 Co414 2.257 . S
N470 C467 1.391 . S
N470 C471 1.388 . S
C471 H442 0.930 . S
C471 C466 1.391 . S
C471 N470 1.388 . S
C472 C473 1.363 . S
C472 C478 1.379 . S
C472 N480 1.356 . S
C473 C472 1.363 . S
C473 C479 1.363 . S
C474 C475 1.363 . S
C474 C479 1.379 . S
C474 N481 1.356 . S
C475 C474 1.363 . S
C475 C478 1.363 . S
N476 C478 1.356 . S
N476 H488 0.984 . S
N476 H489 0.985 . S
N477 C479 1.356 . S
N477 H482 0.984 . S
N477 H483 0.985 . S
C478 C472 1.379 . S
C478 C475 1.363 . S
C478 N476 1.356 . S
C479 C473 1.363 . S
C479 C474 1.379 . S
C479 N477 1.356 . S
N480 C472 1.356 . S
N480 H486 0.984 . S
N480 H487 0.984 . S
N481 C474 1.356 . S
N481 H484 0.984 . S
N481 H485 0.985 . S
H482 N477 0.984 . S
H483 N477 0.985 . S
H484 N481 0.984 . S
H485 N481 0.985 . S
H486 N480 0.984 . S
H487 N480 0.984 . S
H488 N476 0.984 . S
H489 N476 0.985 . S
C490 C491 1.363 . S
C490 C496 1.379 . S
C490 N498 1.356 . S
C491 C490 1.363 . S
C491 C497 1.363 . S
C492 C493 1.363 . S
C492 C497 1.379 . S
C492 N499 1.356 . S
C493 C492 1.363 . S
C493 C496 1.363 . S
N494 C496 1.356 . S
N494 H506 0.984 . S
N494 H507 0.985 . S
N495 C497 1.356 . S
N495 H500 0.984 . S
N495 H501 0.985 . S
C496 C490 1.379 . S
C496 C493 1.363 . S
C496 N494 1.356 . S
C497 C491 1.363 . S
C497 C492 1.379 . S
C497 N495 1.356 . S
N498 C490 1.356 . S
N498 H504 0.984 . S
N498 H505 0.984 . S
N499 C492 1.356 . S
N499 H502 0.984 . S
N499 H503 0.985 . S
H500 N495 0.984 . S
H501 N495 0.985 . S
H502 N499 0.984 . S
H503 N499 0.985 . S
H504 N498 0.984 . S
H505 N498 0.984 . S
H506 N494 0.984 . S
H507 N494 0.985 . S
C508 C509 1.363 1_565 S
C508 C514 1.379 . S
C508 N516 1.356 . S
C509 C508 1.363 1_545 S
C509 C515 1.363 1_554 S
C510 C511 1.363 1_545 S
C510 C515 1.379 . S
C510 N517 1.356 . S
C511 C510 1.363 1_565 S
C511 C514 1.363 1_556 S
N512 C514 1.356 1_556 S
N512 H524 0.984 1_556 S
N512 H525 0.985 . S
N513 C515 1.356 1_554 S
N513 H518 0.984 . S
N513 H519 0.985 1_554 S
C514 C508 1.379 . S
C514 C511 1.363 1_554 S
C514 N512 1.356 1_554 S
C515 C509 1.363 1_556 S
C515 C510 1.379 . S
C515 N513 1.356 1_556 S
N516 C508 1.356 . S
N516 H522 0.984 . S
N516 H523 0.984 . S
N517 C510 1.356 . S
N517 H520 0.984 1_545 S
N517 H521 0.985 . S
H518 N513 0.984 . S
H519 N513 0.985 1_556 S
H520 N517 0.984 1_565 S
H521 N517 0.985 . S
H522 N516 0.984 . S
H523 N516 0.984 . S
H524 N512 0.984 1_554 S
H525 N512 0.985 . S
C526 C527 1.363 . S
C526 C532 1.379 . S
C526 N534 1.356 1_455 S
C527 C526 1.363 . S
C527 C533 1.363 . S
C528 C529 1.363 . S
C528 C533 1.379 . S
C528 N535 1.356 . S
C529 C528 1.363 . S
C529 C532 1.363 . S
N530 C532 1.356 . S
N530 H542 0.984 . S
N530 H543 0.985 . S
N531 C533 1.356 1_655 S
N531 H536 0.984 . S
N531 H537 0.985 . S
C532 C526 1.379 . S
C532 C529 1.363 . S
C532 N530 1.356 . S
C533 C527 1.363 . S
C533 C528 1.379 . S
C533 N531 1.356 1_455 S
N534 C526 1.356 1_655 S
N534 H540 0.984 1_655 S
N534 H541 0.984 . S
N535 C528 1.356 . S
N535 H538 0.984 . S
N535 H539 0.985 . S
H536 N531 0.984 . S
H537 N531 0.985 . S
H538 N535 0.984 . S
H539 N535 0.985 . S
H540 N534 0.984 1_455 S
H541 N534 0.984 . S
H542 N530 0.984 . S
H543 N530 0.985 . S
C544 C545 1.363 . S
C544 C550 1.379 . S
C544 N552 1.356 . S
C545 C544 1.363 . S
C545 C551 1.363 . S
C546 C547 1.363 . S
C546 C551 1.379 . S
C546 N553 1.356 1_565 S
C547 C546 1.363 . S
C547 C550 1.363 . S
N548 C550 1.356 . S
N548 H560 0.984 . S
N548 H561 0.985 1_565 S
N549 C551 1.356 . S
N549 H554 0.984 . S
N549 H555 0.985 . S
C550 C544 1.379 . S
C550 C547 1.363 . S
C550 N548 1.356 . S
C551 C545 1.363 . S
C551 C546 1.379 . S
C551 N549 1.356 . S
N552 C544 1.356 . S
N552 H558 0.984 . S
N552 H559 0.984 . S
N553 C546 1.356 1_545 S
N553 H556 0.984 . S
N553 H557 0.985 . S
H554 N549 0.984 . S
H555 N549 0.985 . S
H556 N553 0.984 . S
H557 N553 0.985 . S
H558 N552 0.984 . S
H559 N552 0.984 . S
H560 N548 0.984 . S
H561 N548 0.985 1_545 S
C562 C563 1.363 1_455 S
C562 C568 1.379 . S
C562 N570 1.356 . S
C563 C562 1.363 1_655 S
C563 C569 1.363 1_556 S
C564 C565 1.363 . S
C564 C569 1.379 1_455 S
C564 N571 1.356 . S
C565 C564 1.363 . S
C565 C568 1.363 1_554 S
N566 C568 1.356 . S
N566 H578 0.984 . S
N566 H579 0.985 1_556 S
N567 C569 1.356 . S
N567 H572 0.984 1_554 S
N567 H573 0.985 . S
C568 C562 1.379 . S
C568 C565 1.363 1_556 S
C568 N566 1.356 . S
C569 C563 1.363 1_554 S
C569 C564 1.379 1_655 S
C569 N567 1.356 . S
N570 C562 1.356 . S
N570 H576 0.984 . S
N570 H577 0.984 1_455 S
N571 C564 1.356 . S
N571 H574 0.984 . S
N571 H575 0.985 . S
H572 N567 0.984 1_556 S
H573 N567 0.985 . S
H574 N571 0.984 . S
H575 N571 0.985 . S
H576 N570 0.984 . S
H577 N570 0.984 1_655 S
H578 N566 0.984 . S
H579 N566 0.985 1_554 S
C580 C581 1.363 . S
C580 C586 1.379 . S
C580 N588 1.356 . S
C581 C580 1.363 . S
C581 C587 1.363 . S
C582 C583 1.363 . S
C582 C587 1.379 . S
C582 N589 1.356 . S
C583 C582 1.363 . S
C583 C586 1.363 . S
N584 C586 1.356 . S
N584 H596 0.984 . S
N584 H597 0.985 . S
N585 C587 1.356 . S
N585 H590 0.984 . S
N585 H591 0.985 . S
C586 C580 1.379 . S
C586 C583 1.363 . S
C586 N584 1.356 . S
C587 C581 1.363 . S
C587 C582 1.379 . S
C587 N585 1.356 . S
N588 C580 1.356 . S
N588 H594 0.984 . S
N588 H595 0.984 . S
N589 C582 1.356 . S
N589 H592 0.984 . S
N589 H593 0.985 . S
H590 N585 0.984 . S
H591 N585 0.985 . S
H592 N589 0.984 . S
H593 N589 0.985 . S
H594 N588 0.984 . S
H595 N588 0.984 . S
H596 N584 0.984 . S
H597 N584 0.985 . S
C598 C599 1.363 . S
C598 C604 1.379 . S
C598 N606 1.356 . S
C599 C598 1.363 . S
C599 C605 1.363 . S
C600 C601 1.363 . S
C600 C605 1.379 . S
C600 N607 1.356 . S
C601 C600 1.363 . S
C601 C604 1.363 . S
N602 C604 1.356 . S
N602 H614 0.984 . S
N602 H615 0.985 . S
N603 C605 1.356 . S
N603 H608 0.984 . S
N603 H609 0.985 . S
C604 C598 1.379 . S
C604 C601 1.363 . S
C604 N602 1.356 . S
C605 C599 1.363 . S
C605 C600 1.379 . S
C605 N603 1.356 . S
N606 C598 1.356 . S
N606 H612 0.984 . S
N606 H613 0.984 . S
N607 C600 1.356 . S
N607 H610 0.984 . S
N607 H611 0.985 . S
H608 N603 0.984 . S
H609 N603 0.985 . S
H610 N607 0.984 . S
H611 N607 0.985 . S
H612 N606 0.984 . S
H613 N606 0.984 . S
H614 N602 0.984 . S
H615 N602 0.985 . S
C616 C617 1.363 . S
C616 C622 1.379 . S
C616 N624 1.356 . S
C617 C616 1.363 . S
C617 C623 1.363 . S
C618 C619 1.363 . S
C618 C623 1.379 . S
C618 N625 1.356 . S
C619 C618 1.363 . S
C619 C622 1.363 . S
N620 C622 1.356 . S
N620 H632 0.984 . S
N620 H633 0.985 . S
N621 C623 1.356 . S
N621 H626 0.984 . S
N621 H627 0.985 . S
C622 C616 1.379 . S
C622 C619 1.363 . S
C622 N620 1.356 . S
C623 C617 1.363 . S
C623 C618 1.379 . S
C623 N621 1.356 . S
N624 C616 1.356 . S
N624 H630 0.984 . S
N624 H631 0.984 . S
N625 C618 1.356 . S
N625 H628 0.984 . S
N625 H629 0.985 . S
H626 N621 0.984 . S
H627 N621 0.985 . S
H628 N625 0.984 . S
H629 N625 0.985 . S
H630 N624 0.984 . S
H631 N624 0.984 . S
H632 N620 0.984 . S
H633 N620 0.985 . S
C634 C635 1.363 . S
C634 C640 1.379 . S
C634 N642 1.356 . S
C635 C634 1.363 . S
C635 C641 1.363 1_556 S
C636 C637 1.363 . S
C636 C641 1.379 . S
C636 N643 1.356 . S
C637 C636 1.363 . S
C637 C640 1.363 1_554 S
N638 C640 1.356 . S
N638 H650 0.984 . S
N638 H651 0.985 1_556 S
N639 C641 1.356 . S
N639 H644 0.984 1_554 S
N639 H645 0.985 . S
C640 C634 1.379 . S
C640 C637 1.363 1_556 S
C640 N638 1.356 . S
C641 C635 1.363 1_554 S
C641 C636 1.379 . S
C641 N639 1.356 . S
N642 C634 1.356 . S
N642 H648 0.984 . S
N642 H649 0.984 . S
N643 C636 1.356 . S
N643 H646 0.984 . S
N643 H647 0.985 . S
H644 N639 0.984 1_556 S
H645 N639 0.985 . S
H646 N643 0.984 . S
H647 N643 0.985 . S
H648 N642 0.984 . S
H649 N642 0.984 . S
H650 N638 0.984 . S
H651 N638 0.985 1_554 S
C652 C653 1.363 . S
C652 C658 1.379 . S
C652 N660 1.356 . S
C653 C652 1.363 . S
C653 C659 1.363 . S
C654 C655 1.363 1_545 S
C654 C659 1.379 1_545 S
C654 N661 1.356 . S
C655 C654 1.363 1_565 S
C655 C658 1.363 . S
N656 C658 1.356 . S
N656 H668 0.984 . S
N656 H669 0.997 . S
N657 C659 1.356 . S
N657 H662 0.984 . S
N657 H663 0.985 . S
C658 C652 1.379 . S
C658 C655 1.363 . S
C658 N656 1.356 . S
C659 C653 1.363 . S
C659 C654 1.379 1_565 S
C659 N657 1.356 . S
N660 C652 1.356 . S
N660 H666 0.984 . S
N660 H667 0.984 . S
N661 C654 1.356 . S
N661 H664 0.984 . S
N661 H665 0.985 . S
H662 N657 0.984 . S
H663 N657 0.985 . S
H664 N661 0.984 . S
H665 N661 0.985 . S
H666 N660 0.984 . S
H667 N660 0.984 . S
H668 N656 0.984 . S
H669 N656 0.997 . S
C670 C671 1.363 . S
C670 C676 1.379 1_655 S
C670 N678 1.356 . S
C671 C670 1.363 . S
C671 C677 1.363 1_655 S
C672 C673 1.363 . S
C672 C677 1.379 1_545 S
C672 N679 1.356 . S
C673 C672 1.363 . S
C673 C676 1.363 1_545 S
N674 C676 1.356 1_655 S
N674 H686 0.986 . S
N674 H687 0.983 1_665 S
N675 C677 1.356 . S
N675 H680 0.984 . S
N675 H681 0.985 . S
C676 C670 1.379 1_455 S
C676 C673 1.363 1_565 S
C676 N674 1.356 1_455 S
C677 C671 1.363 1_455 S
C677 C672 1.379 1_565 S
C677 N675 1.356 . S
N678 C670 1.356 . S
N678 H684 0.984 . S
N678 H685 0.984 . S
N679 C672 1.356 . S
N679 H682 0.984 . S
N679 H683 0.985 . S
H680 N675 0.984 . S
H681 N675 0.985 . S
H682 N679 0.984 . S
H683 N679 0.985 . S
H684 N678 0.984 . S
H685 N678 0.984 . S
H686 N674 0.986 . S
H687 N674 0.983 1_445 S
C688 C689 1.363 1_655 S
C688 C694 1.379 1_655 S
C688 N696 1.356 . S
C689 C688 1.363 1_455 S
C689 C695 1.362 . S
C690 C691 1.363 . S
C690 C695 1.379 . S
C690 N697 1.356 . S
C691 C690 1.363 . S
C691 C694 1.363 . S
N692 C694 1.356 . S
N692 H704 0.984 1_455 S
N692 H705 0.985 . S
N693 C695 1.356 . S
N693 H698 0.984 . S
N693 H699 0.985 . S
C694 C688 1.379 1_455 S
C694 C691 1.363 . S
C694 N692 1.356 . S
C695 C689 1.362 . S
C695 C690 1.379 . S
C695 N693 1.356 . S
N696 C688 1.356 . S
N696 H702 0.984 . S
N696 H703 0.984 . S
N697 C690 1.356 . S
N697 H700 0.984 . S
N697 H701 0.985 . S
H698 N693 0.984 . S
H699 N693 0.985 . S
H700 N697 0.984 . S
H701 N697 0.985 . S
H702 N696 0.984 . S
H703 N696 0.984 . S
H704 N692 0.984 1_655 S
H705 N692 0.985 . S
C706 C707 1.363 . S
C706 C712 1.379 . S
C706 N714 1.356 . S
C707 C706 1.363 . S
C707 C713 1.363 . S
C708 C709 1.363 . S
C708 C713 1.379 . S
C708 N715 1.356 . S
C709 C708 1.363 . S
C709 C712 1.363 . S
N710 C712 1.356 . S
N710 H722 0.984 . S
N710 H723 0.985 . S
N711 C713 1.356 . S
N711 H716 0.984 . S
N711 H717 0.985 . S
C712 C706 1.379 . S
C712 C709 1.363 . S
C712 N710 1.356 . S
C713 C707 1.363 . S
C713 C708 1.379 . S
C713 N711 1.356 . S
N714 C706 1.356 . S
N714 H720 0.984 . S
N714 H721 0.984 . S
N715 C708 1.356 . S
N715 H718 0.984 . S
N715 H719 0.985 . S
H716 N711 0.984 . S
H717 N711 0.985 . S
H718 N715 0.984 . S
H719 N715 0.985 . S
H720 N714 0.984 . S
H721 N714 0.984 . S
H722 N710 0.984 . S
H723 N710 0.985 . S
C724 C725 1.363 . S
C724 C730 1.379 1_554 S
C724 N732 1.356 . S
C725 C724 1.363 . S
C725 C731 1.363 . S
C726 C727 1.363 . S
C726 C731 1.379 1_556 S
C726 N733 1.356 . S
C727 C726 1.363 . S
C727 C730 1.363 . S
N728 C730 1.356 . S
N728 H740 0.984 . S
N728 H741 0.985 . S
N729 C731 1.356 . S
N729 H734 0.984 . S
N729 H735 0.985 . S
C730 C724 1.379 1_556 S
C730 C727 1.363 . S
C730 N728 1.356 . S
C731 C725 1.363 . S
C731 C726 1.379 1_554 S
C731 N729 1.356 . S
N732 C724 1.356 . S
N732 H738 0.984 . S
N732 H739 0.984 . S
N733 C726 1.356 . S
N733 H736 0.984 . S
N733 H737 0.985 . S
H734 N729 0.984 . S
H735 N729 0.985 . S
H736 N733 0.984 . S
H737 N733 0.985 . S
H738 N732 0.984 . S
H739 N732 0.984 . S
H740 N728 0.984 . S
H741 N728 0.985 . S
C742 C743 1.363 . S
C742 C748 1.379 . S
C742 N750 1.356 . S
C743 C742 1.363 . S
C743 C749 1.363 . S
C744 C745 1.363 . S
C744 C749 1.379 . S
C744 N751 1.356 . S
C745 C744 1.363 . S
C745 C748 1.363 . S
N746 C748 1.356 . S
N746 H758 0.984 . S
N746 H759 0.985 . S
N747 C749 1.356 . S
N747 H752 0.984 . S
N747 H753 0.985 . S
C748 C742 1.379 . S
C748 C745 1.363 . S
C748 N746 1.356 . S
C749 C743 1.363 . S
C749 C744 1.379 . S
C749 N747 1.356 . S
N750 C742 1.356 . S
N750 H756 0.984 . S
N750 H757 0.984 . S
N751 C744 1.356 . S
N751 H754 0.984 . S
N751 H755 0.985 . S
H752 N747 0.984 . S
H753 N747 0.985 . S
H754 N751 0.984 . S
H755 N751 0.985 . S
H756 N750 0.984 . S
H757 N750 0.984 . S
H758 N746 0.984 . S
H759 N746 0.985 . S
C473 C328 1.595 . S
C475 C33 1.595 . S
C491 C416 1.582 . S
C493 C64 1.589 . S
C509 C170 1.595 . S
C511 C406 1.595 . S
C527 C180 1.582 1_455 S
C529 C241 1.589 . S
C545 C359 1.589 . S
C547 C3 1.582 1_565 S
C563 C111 1.595 . S
C565 C288 1.595 . S
C581 C298 1.582 . S
C583 C123 1.589 . S
C599 C210 1.595 . S
C601 C446 1.595 . S
C617 C239 1.582 . S
C619 C300 1.589 . S
C635 C92 1.595 . S
C637 C151 1.595 . S
C653 C182 1.589 . S
C655 C121 1.582 1_565 S
C671 C229 1.595 . S
C673 C52 1.595 . S
C689 C62 1.582 1_455 S
C691 C5 1.589 . S
C707 C418 1.589 . S
C709 C357 1.582 . S
C725 C269 1.595 . S
C727 C387 1.595 . S
C743 C347 1.595 . S
C745 C465 1.595 . S
