# Generated by pormake.
# Topology cag, (4)-cn, num edge types: 1
# Building blocks:
#     Node 0, Type 0, BuildingBlock: UXUYUI_clean_sbu_0, # of connection points: 4
#     Node 1, Type 0, BuildingBlock: UXUYUI_clean_sbu_0, # of connection points: 4
#     Node 2, Type 0, BuildingBlock: UXUYUI_clean_sbu_0, # of connection points: 4
#     Node 3, Type 0, BuildingBlock: UXUYUI_clean_sbu_0, # of connection points: 4
#     Node 4, Type 0, BuildingBlock: UXUYUI_clean_sbu_0, # of connection points: 4
#     Node 5, Type 0, BuildingBlock: UXUYUI_clean_sbu_0, # of connection points: 4
#     Node 6, Type 0, BuildingBlock: UXUYUI_clean_sbu_0, # of connection points: 4
#     Node 7, Type 0, BuildingBlock: UXUYUI_clean_sbu_0, # of connection points: 4
#     Node 8, Type 0, BuildingBlock: UXUYUI_clean_sbu_0, # of connection points: 4
#     Node 9, Type 0, BuildingBlock: UXUYUI_clean_sbu_0, # of connection points: 4
#     Node 10, Type 0, BuildingBlock: UXUYUI_clean_sbu_0, # of connection points: 4
#     Node 11, Type 0, BuildingBlock: UXUYUI_clean_sbu_0, # of connection points: 4
#     Node 12, Type 0, BuildingBlock: UXUYUI_clean_sbu_0, # of connection points: 4
#     Node 13, Type 0, BuildingBlock: UXUYUI_clean_sbu_0, # of connection points: 4
#     Node 14, Type 0, BuildingBlock: UXUYUI_clean_sbu_0, # of connection points: 4
#     Node 15, Type 0, BuildingBlock: UXUYUI_clean_sbu_0, # of connection points: 4
#     Edge 16, Type (0, 0), BuildingBlock: MIFKUJ_clean_linker_0, # of connection points: 2
#     Edge 17, Type (0, 0), BuildingBlock: MIFKUJ_clean_linker_0, # of connection points: 2
#     Edge 18, Type (0, 0), BuildingBlock: MIFKUJ_clean_linker_0, # of connection points: 2
#     Edge 19, Type (0, 0), BuildingBlock: MIFKUJ_clean_linker_0, # of connection points: 2
#     Edge 20, Type (0, 0), BuildingBlock: MIFKUJ_clean_linker_0, # of connection points: 2
#     Edge 21, Type (0, 0), BuildingBlock: MIFKUJ_clean_linker_0, # of connection points: 2
#     Edge 22, Type (0, 0), BuildingBlock: MIFKUJ_clean_linker_0, # of connection points: 2
#     Edge 23, Type (0, 0), BuildingBlock: MIFKUJ_clean_linker_0, # of connection points: 2
#     Edge 24, Type (0, 0), BuildingBlock: MIFKUJ_clean_linker_0, # of connection points: 2
#     Edge 25, Type (0, 0), BuildingBlock: MIFKUJ_clean_linker_0, # of connection points: 2
#     Edge 26, Type (0, 0), BuildingBlock: MIFKUJ_clean_linker_0, # of connection points: 2
#     Edge 27, Type (0, 0), BuildingBlock: MIFKUJ_clean_linker_0, # of connection points: 2
#     Edge 28, Type (0, 0), BuildingBlock: MIFKUJ_clean_linker_0, # of connection points: 2
#     Edge 29, Type (0, 0), BuildingBlock: MIFKUJ_clean_linker_0, # of connection points: 2
#     Edge 30, Type (0, 0), BuildingBlock: MIFKUJ_clean_linker_0, # of connection points: 2
#     Edge 31, Type (0, 0), BuildingBlock: MIFKUJ_clean_linker_0, # of connection points: 2
#     Edge 32, Type (0, 0), BuildingBlock: MIFKUJ_clean_linker_0, # of connection points: 2
#     Edge 33, Type (0, 0), BuildingBlock: MIFKUJ_clean_linker_0, # of connection points: 2
#     Edge 34, Type (0, 0), BuildingBlock: MIFKUJ_clean_linker_0, # of connection points: 2
#     Edge 35, Type (0, 0), BuildingBlock: MIFKUJ_clean_linker_0, # of connection points: 2
#     Edge 36, Type (0, 0), BuildingBlock: MIFKUJ_clean_linker_0, # of connection points: 2
#     Edge 37, Type (0, 0), BuildingBlock: MIFKUJ_clean_linker_0, # of connection points: 2
#     Edge 38, Type (0, 0), BuildingBlock: MIFKUJ_clean_linker_0, # of connection points: 2
#     Edge 39, Type (0, 0), BuildingBlock: MIFKUJ_clean_linker_0, # of connection points: 2
#     Edge 40, Type (0, 0), BuildingBlock: MIFKUJ_clean_linker_0, # of connection points: 2
#     Edge 41, Type (0, 0), BuildingBlock: MIFKUJ_clean_linker_0, # of connection points: 2
#     Edge 42, Type (0, 0), BuildingBlock: MIFKUJ_clean_linker_0, # of connection points: 2
#     Edge 43, Type (0, 0), BuildingBlock: MIFKUJ_clean_linker_0, # of connection points: 2
#     Edge 44, Type (0, 0), BuildingBlock: MIFKUJ_clean_linker_0, # of connection points: 2
#     Edge 45, Type (0, 0), BuildingBlock: MIFKUJ_clean_linker_0, # of connection points: 2
#     Edge 46, Type (0, 0), BuildingBlock: MIFKUJ_clean_linker_0, # of connection points: 2
#     Edge 47, Type (0, 0), BuildingBlock: MIFKUJ_clean_linker_0, # of connection points: 2
# Relax obj value: 0.065
# Max RMSD: 0.090
# Mean RMSD: 0.089
data_MOF--net-cag--node1-UXUYUI_clean_sbu_0--edge1-MIFKUJ_clean_linker_0
_symmetry_space_group_name_H-M    P1
_symmetry_Int_Tables_number       1
_symmetry_cell_setting            triclinic
loop_
_symmetry_equiv_pos_as_xyz
'x, y, z'
_cell_length_a     73.812663
_cell_length_b     87.524822
_cell_length_c     76.893006
_cell_angle_alpha  90.005548
_cell_angle_beta   89.993223
_cell_angle_gamma 90.008405
loop_
_atom_site_label
_atom_site_type_symbol
_atom_site_fract_x
_atom_site_fract_y
_atom_site_fract_z
_atom_type_partial_charge
Li0 Li 0.31223 0.14489 0.07982 0.0
Li1 Li 0.34016 0.13396 0.09218 0.0
Li2 Li 0.3151 0.11709 0.08066 0.0
Li3 Li 0.3115 0.13069 0.10867 0.0
C4 C 0.33258 0.13744 0.05156 0.0
N5 N 0.33605 0.14898 0.01828 0.0
C6 C 0.34884 0.1442 0.04629 0.0
C7 C 0.31817 0.13639 0.03983 0.0
C8 C 0.3503 0.15001 0.02942 0.0
C9 C 0.32016 0.14234 0.02309 0.0
C10 C 0.33404 0.16078 0.11099 0.0
C11 C 0.34911 0.16952 0.13699 0.0
N12 N 0.3539 0.1826 0.12863 0.0
C13 C 0.33887 0.17441 0.10275 0.0
C14 C 0.33899 0.15838 0.12832 0.0
C15 C 0.34902 0.18526 0.11185 0.0
C16 C 0.2844 0.16446 0.06756 0.0
N17 N 0.30257 0.16196 0.06724 0.0
C18 C 0.3069 0.18352 0.04859 0.0
C19 C 0.31385 0.17133 0.05822 0.0
C20 C 0.28815 0.18643 0.04855 0.0
C21 C 0.27689 0.17671 0.05837 0.0
H22 H 0.27573 0.15696 0.07503 0.0
H23 H 0.32828 0.1693 0.05838 0.0
C24 C 0.37604 0.12402 0.09876 0.0
N25 N 0.36591 0.13627 0.09388 0.0
C26 C 0.39487 0.12519 0.09989 0.0
C27 C 0.39267 0.15139 0.09024 0.0
C28 C 0.37385 0.14976 0.08949 0.0
C29 C 0.40342 0.13901 0.09558 0.0
H30 H 0.36956 0.11324 0.10152 0.0
H31 H 0.36561 0.15917 0.08505 0.0
C32 C 0.27928 0.12117 0.08484 0.0
N33 N 0.24946 0.10341 0.0769 0.0
C34 C 0.27134 0.112 0.09761 0.0
C35 C 0.27191 0.12149 0.0681 0.0
C36 C 0.2563 0.10306 0.09332 0.0
C37 C 0.25688 0.11237 0.06432 0.0
C38 C 0.33531 0.10635 0.11615 0.0
C39 C 0.33123 0.09077 0.11699 0.0
C40 C 0.34515 0.11316 0.12959 0.0
C41 C 0.33687 0.08231 0.13142 0.0
C42 C 0.35056 0.10432 0.14379 0.0
N43 N 0.34632 0.08921 0.14442 0.0
C44 C 0.31777 0.09655 0.05238 0.0
C45 C 0.30069 0.08695 0.07604 0.0
C46 C 0.31532 0.08296 0.04318 0.0
N47 N 0.31041 0.09836 0.06846 0.0
C48 C 0.29796 0.07311 0.06733 0.0
C49 C 0.30536 0.07096 0.05066 0.0
H50 H 0.32588 0.10555 0.04678 0.0
H51 H 0.29529 0.08849 0.08898 0.0
C52 C 0.2949 0.14393 0.13806 0.0
N53 N 0.30093 0.13043 0.13151 0.0
C54 C 0.28739 0.14463 0.15474 0.0
C55 C 0.29235 0.11749 0.15767 0.0
C56 C 0.29952 0.11729 0.14085 0.0
C57 C 0.28615 0.1313 0.16492 0.0
H58 H 0.29594 0.1542 0.13029 0.0
H59 H 0.30391 0.1066 0.13529 0.0
O60 O 0.33083 0.13185 0.06809 0.0
O61 O 0.32408 0.15004 0.10228 0.0
O62 O 0.29409 0.1299 0.08875 0.0
O63 O 0.3297 0.11483 0.1022 0.0
H64 H 0.36018 0.14499 0.05513 0.0
H65 H 0.30557 0.13108 0.04365 0.0
H66 H 0.36278 0.15533 0.0252 0.0
H67 H 0.30907 0.14168 0.01392 0.0
H68 H 0.35309 0.16778 0.15038 0.0
H69 H 0.33498 0.17654 0.08942 0.0
H70 H 0.33493 0.14812 0.13508 0.0
H71 H 0.35299 0.19581 0.10557 0.0
H72 H 0.3162 0.19044 0.04108 0.0
H73 H 0.26242 0.17859 0.05915 0.0
H74 H 0.40269 0.11527 0.10368 0.0
H75 H 0.39875 0.16223 0.08674 0.0
H76 H 0.27682 0.11167 0.11064 0.0
H77 H 0.27771 0.12871 0.05814 0.0
H78 H 0.25009 0.09582 0.10305 0.0
H79 H 0.25109 0.11244 0.0514 0.0
H80 H 0.32375 0.08527 0.10665 0.0
H81 H 0.34873 0.12511 0.12898 0.0
H82 H 0.33374 0.07026 0.13228 0.0
H83 H 0.35816 0.10947 0.1543 0.0
H84 H 0.3216 0.08171 0.03053 0.0
H85 H 0.29015 0.06419 0.07358 0.0
H86 H 0.28246 0.1555 0.15949 0.0
H87 H 0.29192 0.10691 0.16495 0.0
Li88 Li 0.18617 0.88367 0.58047 0.0
Li89 Li 0.19076 0.8702 0.60818 0.0
Li90 Li 0.18925 0.85689 0.58013 0.0
Li91 Li 0.16134 0.86723 0.59173 0.0
C92 C 0.2207 0.88166 0.58301 0.0
N93 N 0.246 0.90282 0.57205 0.0
C94 C 0.22835 0.89186 0.59491 0.0
C95 C 0.22602 0.88213 0.56558 0.0
C96 C 0.24111 0.90249 0.58911 0.0
C97 C 0.2388 0.89294 0.56028 0.0
C98 C 0.16225 0.89078 0.61622 0.0
C99 C 0.14711 0.88545 0.64334 0.0
N100 N 0.14144 0.90023 0.64407 0.0
C101 C 0.15627 0.9059 0.61722 0.0
C102 C 0.15763 0.88045 0.62936 0.0
C103 C 0.14577 0.91046 0.63142 0.0
C104 C 0.18734 0.90298 0.55109 0.0
N105 N 0.19015 0.9026 0.56855 0.0
C106 C 0.19664 0.92941 0.5688 0.0
C107 C 0.19477 0.91543 0.57749 0.0
C108 C 0.19356 0.93017 0.55077 0.0
C109 C 0.18906 0.91665 0.54191 0.0
H110 H 0.18345 0.89272 0.5443 0.0
H111 H 0.19671 0.91485 0.59143 0.0
C112 C 0.2064 0.85842 0.63921 0.0
N113 N 0.20108 0.87146 0.63108 0.0
C114 C 0.21383 0.85895 0.65591 0.0
C115 C 0.20983 0.88634 0.65585 0.0
C116 C 0.20267 0.88529 0.63903 0.0
C117 C 0.2156 0.87305 0.66447 0.0
H118 H 0.20477 0.84755 0.6328 0.0
H119 H 0.19835 0.89552 0.63232 0.0
C120 C 0.16725 0.86101 0.55293 0.0
N121 N 0.16054 0.84439 0.52304 0.0
C122 C 0.15113 0.85275 0.55121 0.0
C123 C 0.17993 0.86084 0.53941 0.0
C124 C 0.148 0.84443 0.536 0.0
C125 C 0.1763 0.85235 0.52443 0.0
C126 C 0.17665 0.83567 0.60128 0.0
C127 C 0.161 0.82781 0.59627 0.0
C128 C 0.19259 0.8275 0.60449 0.0
C129 C 0.1615 0.81191 0.59473 0.0
C130 C 0.19256 0.81161 0.60276 0.0
N131 N 0.17714 0.80421 0.59798 0.0
C132 C 0.21784 0.83912 0.56577 0.0
C133 C 0.18868 0.82894 0.56024 0.0
C134 C 0.22593 0.82712 0.55661 0.0
N135 N 0.1995 0.8399 0.56731 0.0
C136 C 0.19617 0.81683 0.55088 0.0
C137 C 0.21503 0.81583 0.54891 0.0
H138 H 0.22621 0.84782 0.57167 0.0
H139 H 0.17418 0.82955 0.56188 0.0
C140 C 0.1259 0.87544 0.58326 0.0
N141 N 0.13567 0.86644 0.59418 0.0
C142 C 0.10701 0.87561 0.58416 0.0
C143 C 0.10856 0.85745 0.6078 0.0
C144 C 0.12746 0.8577 0.6065 0.0
C145 C 0.09809 0.86646 0.59649 0.0
H146 H 0.13283 0.8824 0.57372 0.0
H147 H 0.13557 0.85094 0.61532 0.0
O148 O 0.20783 0.87144 0.58834 0.0
O149 O 0.17241 0.88614 0.60233 0.0
O150 O 0.17051 0.8693 0.56771 0.0
O151 O 0.17643 0.85126 0.60275 0.0
H152 H 0.22437 0.89165 0.60844 0.0
H153 H 0.22021 0.87432 0.55621 0.0
H154 H 0.24707 0.91051 0.59815 0.0
H155 H 0.24295 0.8935 0.54681 0.0
H156 H 0.14343 0.87758 0.6536 0.0
H157 H 0.15971 0.91401 0.60712 0.0
H158 H 0.1621 0.86869 0.62877 0.0
H159 H 0.14104 0.92213 0.63237 0.0
H160 H 0.19993 0.93956 0.5762 0.0
H161 H 0.18681 0.91661 0.52799 0.0
H162 H 0.21785 0.84841 0.66218 0.0
H163 H 0.21106 0.89745 0.66195 0.0
H164 H 0.14123 0.85261 0.56156 0.0
H165 H 0.19258 0.86699 0.54057 0.0
H166 H 0.13562 0.83794 0.53453 0.0
H167 H 0.18605 0.85204 0.51393 0.0
H168 H 0.14866 0.83391 0.59328 0.0
H169 H 0.205 0.83338 0.6078 0.0
H170 H 0.1495 0.80571 0.59082 0.0
H171 H 0.20483 0.80517 0.60509 0.0
H172 H 0.24054 0.82681 0.55536 0.0
H173 H 0.18727 0.80823 0.54543 0.0
H174 H 0.09947 0.88264 0.57511 0.0
H175 H 0.10222 0.85042 0.61767 0.0
Li176 Li 0.31157 0.87029 0.89578 0.0
Li177 Li 0.31465 0.88399 0.92356 0.0
Li178 Li 0.33981 0.86735 0.9117 0.0
Li179 Li 0.31213 0.85564 0.92422 0.0
C180 C 0.32999 0.89569 0.88779 0.0
N181 N 0.3307 0.91402 0.85855 0.0
C182 C 0.32111 0.90979 0.88783 0.0
C183 C 0.33943 0.891 0.87296 0.0
C184 C 0.32158 0.91887 0.8729 0.0
C185 C 0.33956 0.9004 0.85828 0.0
C186 C 0.27801 0.87555 0.92263 0.0
C187 C 0.25717 0.87656 0.94676 0.0
N188 N 0.24548 0.88488 0.93691 0.0
C189 C 0.26569 0.88394 0.91267 0.0
C190 C 0.27364 0.87167 0.93975 0.0
C191 C 0.24936 0.88862 0.92015 0.0
C192 C 0.30307 0.85881 0.86228 0.0
N193 N 0.3011 0.87109 0.87293 0.0
C194 C 0.285 0.88461 0.85072 0.0
C195 C 0.29209 0.8838 0.86755 0.0
C196 C 0.28698 0.87215 0.83931 0.0
C197 C 0.29609 0.85908 0.84538 0.0
H198 H 0.31003 0.84874 0.86691 0.0
H199 H 0.29055 0.89338 0.87628 0.0
C200 C 0.32265 0.90627 0.94858 0.0
N201 N 0.3102 0.90245 0.93629 0.0
C202 C 0.32061 0.91957 0.95839 0.0
C203 C 0.29331 0.92521 0.9423 0.0
C204 C 0.29579 0.91168 0.93289 0.0
C205 C 0.30578 0.92925 0.95533 0.0
H206 H 0.33431 0.89904 0.95067 0.0
H207 H 0.28637 0.90869 0.92271 0.0
C208 C 0.33624 0.84005 0.89592 0.0
N209 N 0.36075 0.81838 0.88456 0.0
C210 C 0.33834 0.82636 0.90506 0.0
C211 C 0.34644 0.84264 0.88089 0.0
C212 C 0.35084 0.81556 0.89913 0.0
C213 C 0.35881 0.83157 0.8754 0.0
C214 C 0.33319 0.8664 0.95305 0.0
C215 C 0.34948 0.85997 0.95873 0.0
C216 C 0.31995 0.87043 0.96521 0.0
C217 C 0.35212 0.85742 0.97649 0.0
C218 C 0.32311 0.86771 0.98285 0.0
N219 N 0.33898 0.8613 0.98808 0.0
C220 C 0.37487 0.87837 0.90478 0.0
C221 C 0.37446 0.85285 0.91505 0.0
C222 C 0.39378 0.87823 0.9041 0.0
N223 N 0.36562 0.86579 0.91016 0.0
C224 C 0.39337 0.85214 0.91435 0.0
C225 C 0.40326 0.86499 0.90894 0.0
H226 H 0.36757 0.88861 0.90123 0.0
H227 H 0.36688 0.84315 0.91979 0.0
C228 C 0.28582 0.83325 0.93258 0.0
N229 N 0.30261 0.83848 0.93678 0.0
C230 C 0.27831 0.82083 0.94147 0.0
C231 C 0.30551 0.81934 0.95882 0.0
C232 C 0.31257 0.83164 0.94945 0.0
C233 C 0.28813 0.81371 0.95491 0.0
H234 H 0.27827 0.83875 0.92227 0.0
H235 H 0.32606 0.83565 0.95227 0.0
O236 O 0.32949 0.88655 0.9022 0.0
O237 O 0.29406 0.87087 0.9155 0.0
O238 O 0.32415 0.85079 0.90158 0.0
O239 O 0.33039 0.86892 0.9357 0.0
H240 H 0.31381 0.91362 0.89922 0.0
H241 H 0.34652 0.88019 0.87279 0.0
H242 H 0.31468 0.92977 0.87271 0.0
H243 H 0.34672 0.89687 0.84668 0.0
H244 H 0.25364 0.87367 0.96002 0.0
H245 H 0.26876 0.8869 0.89934 0.0
H246 H 0.28277 0.86485 0.94751 0.0
H247 H 0.23977 0.89522 0.91262 0.0
H248 H 0.27828 0.895 0.84662 0.0
H249 H 0.29766 0.84907 0.83725 0.0
H250 H 0.33076 0.92242 0.96803 0.0
H251 H 0.28172 0.93238 0.93949 0.0
H252 H 0.33048 0.82413 0.91665 0.0
H253 H 0.34487 0.85311 0.87359 0.0
H254 H 0.35267 0.80495 0.90612 0.0
H255 H 0.36687 0.83347 0.86385 0.0
H256 H 0.35993 0.85689 0.94952 0.0
H257 H 0.30747 0.87576 0.96111 0.0
H258 H 0.36462 0.85236 0.98105 0.0
H259 H 0.31296 0.87075 0.9924 0.0
H260 H 0.40091 0.88837 0.89979 0.0
H261 H 0.4002 0.84179 0.91844 0.0
H262 H 0.26504 0.81676 0.93767 0.0
H263 H 0.31359 0.81443 0.96915 0.0
Li264 Li 0.19123 0.14487 0.42486 0.0
Li265 Li 0.16239 0.13457 0.41445 0.0
Li266 Li 0.18576 0.11744 0.42307 0.0
Li267 Li 0.18913 0.13233 0.39611 0.0
C268 C 0.1757 0.1269 0.45411 0.0
N269 N 0.18134 0.11401 0.48647 0.0
C270 C 0.16098 0.12204 0.46411 0.0
C271 C 0.19329 0.1253 0.46063 0.0
C272 C 0.16411 0.11553 0.48043 0.0
C273 C 0.19586 0.11873 0.47699 0.0
C274 C 0.16999 0.16555 0.40668 0.0
C275 C 0.16445 0.19139 0.39723 0.0
N276 N 0.15603 0.19437 0.41259 0.0
C277 C 0.16131 0.16886 0.4224 0.0
C278 C 0.17162 0.17689 0.394 0.0
C279 C 0.15433 0.1835 0.42513 0.0
C280 C 0.21353 0.17099 0.42812 0.0
N281 N 0.20226 0.16151 0.43705 0.0
C282 C 0.20564 0.17661 0.46278 0.0
C283 C 0.19805 0.16419 0.454 0.0
C284 C 0.21727 0.18659 0.4539 0.0
C285 C 0.22113 0.18375 0.43632 0.0
H286 H 0.21641 0.16872 0.41457 0.0
H287 H 0.18858 0.15686 0.46069 0.0
C288 C 0.12679 0.12721 0.4242 0.0
N289 N 0.13656 0.13699 0.41418 0.0
C290 C 0.10788 0.12775 0.42411 0.0
C291 C 0.10937 0.14826 0.40312 0.0
C292 C 0.12827 0.14736 0.40367 0.0
C293 C 0.09892 0.13837 0.41345 0.0
H294 H 0.13371 0.11873 0.43196 0.0
H295 H 0.13628 0.15474 0.39545 0.0
C296 C 0.22115 0.11995 0.40891 0.0
N297 N 0.24856 0.10153 0.39629 0.0
C298 C 0.21698 0.1069 0.39919 0.0
C299 C 0.23925 0.12365 0.41215 0.0
C300 C 0.23103 0.09774 0.39294 0.0
C301 C 0.25292 0.11418 0.40568 0.0
C302 C 0.15591 0.11248 0.39251 0.0
C303 C 0.14597 0.09943 0.39683 0.0
C304 C 0.14984 0.12202 0.37915 0.0
C305 C 0.12999 0.09622 0.38779 0.0
C306 C 0.13381 0.11842 0.37042 0.0
N307 N 0.12428 0.10571 0.3749 0.0
C308 C 0.17426 0.09051 0.43921 0.0
C309 C 0.20621 0.09293 0.4392 0.0
C310 C 0.17537 0.07687 0.44855 0.0
N311 N 0.18953 0.0982 0.43464 0.0
C312 C 0.20796 0.07925 0.44844 0.0
C313 C 0.1924 0.071 0.45327 0.0
H314 H 0.16115 0.09524 0.436 0.0
H315 H 0.21818 0.09943 0.43597 0.0
C316 C 0.21173 0.14294 0.36897 0.0
N317 N 0.1989 0.1324 0.37306 0.0
C318 C 0.21948 0.14316 0.35236 0.0
C319 C 0.20054 0.12176 0.34445 0.0
C320 C 0.19339 0.1218 0.36128 0.0
C321 C 0.21384 0.13251 0.33973 0.0
H322 H 0.21606 0.1511 0.37869 0.0
H323 H 0.18347 0.11331 0.36492 0.0
O324 O 0.173 0.13286 0.43786 0.0
O325 O 0.17717 0.15137 0.40375 0.0
O326 O 0.20769 0.12925 0.41498 0.0
O327 O 0.1713 0.1161 0.40155 0.0
H328 H 0.14727 0.12327 0.45936 0.0
H329 H 0.20485 0.12892 0.453 0.0
H330 H 0.15285 0.11168 0.48829 0.0
H331 H 0.2094 0.11733 0.48213 0.0
H332 H 0.16561 0.20028 0.38752 0.0
H333 H 0.15995 0.16025 0.4324 0.0
H334 H 0.17838 0.17451 0.3818 0.0
H335 H 0.14757 0.18623 0.43723 0.0
H336 H 0.20211 0.17859 0.47627 0.0
H337 H 0.23003 0.19123 0.42905 0.0
H338 H 0.10037 0.11969 0.43199 0.0
H339 H 0.10303 0.15664 0.39474 0.0
H340 H 0.20306 0.10385 0.39652 0.0
H341 H 0.24269 0.13375 0.41958 0.0
H342 H 0.228 0.08761 0.38542 0.0
H343 H 0.26699 0.11689 0.4081 0.0
H344 H 0.1505 0.09186 0.40705 0.0
H345 H 0.15729 0.13226 0.37576 0.0
H346 H 0.12212 0.08619 0.39104 0.0
H347 H 0.12888 0.12577 0.36015 0.0
H348 H 0.16296 0.07118 0.45236 0.0
H349 H 0.22139 0.07517 0.4517 0.0
H350 H 0.22994 0.15147 0.34958 0.0
H351 H 0.19549 0.11344 0.33524 0.0
Li352 Li 0.68568 0.88527 0.92254 0.0
Li353 Li 0.68881 0.85692 0.92291 0.0
Li354 Li 0.68945 0.87124 0.8954 0.0
Li355 Li 0.6621 0.86913 0.91154 0.0
C356 C 0.72127 0.87295 0.92622 0.0
N357 N 0.75019 0.87334 0.94902 0.0
C358 C 0.71825 0.87244 0.94416 0.0
C359 C 0.73898 0.8736 0.91987 0.0
C360 C 0.73305 0.87266 0.95547 0.0
C361 C 0.75343 0.87382 0.93161 0.0
C362 C 0.65627 0.86629 0.94485 0.0
C363 C 0.6347 0.8475 0.95477 0.0
N364 N 0.62456 0.85883 0.96196 0.0
C365 C 0.64568 0.87773 0.95241 0.0
C366 C 0.65078 0.85104 0.94607 0.0
C367 C 0.62967 0.87373 0.96097 0.0
C368 C 0.67448 0.91272 0.93698 0.0
N369 N 0.68971 0.90431 0.93435 0.0
C370 C 0.7077 0.92343 0.94842 0.0
C371 C 0.70622 0.90955 0.9395 0.0
C372 C 0.69209 0.93217 0.95179 0.0
C373 C 0.67534 0.9267 0.94567 0.0
H374 H 0.66162 0.90856 0.93219 0.0
H375 H 0.71829 0.90306 0.93674 0.0
C376 C 0.70879 0.82949 0.92647 0.0
N377 N 0.69868 0.83993 0.93526 0.0
C378 C 0.71635 0.81702 0.93523 0.0
C379 C 0.70292 0.82628 0.96189 0.0
C380 C 0.69575 0.83861 0.95266 0.0
C381 C 0.71337 0.81526 0.95318 0.0
H382 H 0.71096 0.83088 0.91264 0.0
H383 H 0.68792 0.8472 0.95941 0.0
C384 C 0.67731 0.9011 0.89292 0.0
N385 N 0.68828 0.928 0.87731 0.0
C386 C 0.66454 0.91086 0.88541 0.0
C387 C 0.69567 0.90504 0.89252 0.0
C388 C 0.67035 0.9244 0.87757 0.0
C389 C 0.70094 0.91868 0.88456 0.0
C390 C 0.66802 0.84667 0.88616 0.0
C391 C 0.65783 0.8564 0.87557 0.0
C392 C 0.67017 0.83136 0.88145 0.0
C393 C 0.64997 0.85063 0.86041 0.0
C394 C 0.66209 0.82602 0.86619 0.0
N395 N 0.65224 0.83569 0.85607 0.0
C396 C 0.71556 0.86387 0.86966 0.0
C397 C 0.69108 0.87889 0.85942 0.0
C398 C 0.72321 0.86352 0.853 0.0
N399 N 0.69979 0.87149 0.87254 0.0
C400 C 0.69831 0.87896 0.84264 0.0
C401 C 0.71458 0.8712 0.83924 0.0
H402 H 0.72214 0.85799 0.8803 0.0
H403 H 0.67839 0.88463 0.8619 0.0
C404 C 0.62674 0.88087 0.90975 0.0
N405 N 0.63631 0.86762 0.91002 0.0
C406 C 0.60784 0.88059 0.90925 0.0
C407 C 0.60897 0.85299 0.90933 0.0
C408 C 0.62787 0.85382 0.90969 0.0
C409 C 0.59865 0.8665 0.90916 0.0
H410 H 0.63384 0.89168 0.91006 0.0
H411 H 0.63583 0.84344 0.91002 0.0
O412 O 0.70705 0.87242 0.91484 0.0
O413 O 0.67174 0.86999 0.93599 0.0
O414 O 0.67169 0.88785 0.90069 0.0
O415 O 0.67598 0.85201 0.90103 0.0
H416 H 0.70463 0.87202 0.94932 0.0
H417 H 0.74153 0.87392 0.90601 0.0
H418 H 0.73091 0.8723 0.96939 0.0
H419 H 0.76722 0.87434 0.92688 0.0
H420 H 0.63023 0.83576 0.9557 0.0
H421 H 0.64972 0.88958 0.95164 0.0
H422 H 0.65867 0.84205 0.94006 0.0
H423 H 0.6213 0.88248 0.96682 0.0
H424 H 0.72091 0.92712 0.95286 0.0
H425 H 0.663 0.9332 0.94744 0.0
H426 H 0.72423 0.80874 0.928 0.0
H427 H 0.70052 0.82548 0.97576 0.0
H428 H 0.65028 0.90799 0.88562 0.0
H429 H 0.70579 0.89768 0.89825 0.0
H430 H 0.66061 0.93205 0.87169 0.0
H431 H 0.71509 0.92186 0.88415 0.0
H432 H 0.65601 0.86828 0.87897 0.0
H433 H 0.67804 0.82369 0.88952 0.0
H434 H 0.64206 0.85804 0.85209 0.0
H435 H 0.66365 0.81419 0.86238 0.0
H436 H 0.73582 0.85746 0.85095 0.0
H437 H 0.69106 0.88481 0.83237 0.0
H438 H 0.60054 0.89131 0.90884 0.0
H439 H 0.60253 0.84187 0.90953 0.0
Li440 Li 0.81186 0.14601 0.42337 0.0
Li441 Li 0.81614 0.11802 0.42272 0.0
Li442 Li 0.84006 0.1354 0.41148 0.0
Li443 Li 0.81187 0.13209 0.39549 0.0
C444 C 0.83494 0.13687 0.45193 0.0
N445 N 0.84415 0.14352 0.48593 0.0
C446 C 0.82597 0.12964 0.46566 0.0
C447 C 0.84882 0.14728 0.45549 0.0
C448 C 0.83075 0.13322 0.48276 0.0
C449 C 0.85321 0.15054 0.47277 0.0
C450 C 0.78041 0.12065 0.41054 0.0
C451 C 0.76955 0.09689 0.39854 0.0
N452 N 0.75221 0.10185 0.40051 0.0
C453 C 0.7625 0.12552 0.41245 0.0
C454 C 0.784 0.10622 0.40354 0.0
C455 C 0.74842 0.11584 0.4073 0.0
C456 C 0.79782 0.17598 0.4276 0.0
N457 N 0.80117 0.16262 0.43606 0.0
C458 C 0.78946 0.17304 0.46255 0.0
C459 C 0.79683 0.16088 0.45313 0.0
C460 C 0.78629 0.18711 0.45428 0.0
C461 C 0.79045 0.18843 0.43651 0.0
H462 H 0.80093 0.177 0.41391 0.0
H463 H 0.79893 0.15002 0.45943 0.0
C464 C 0.82696 0.08941 0.43475 0.0
N465 N 0.81292 0.09943 0.43522 0.0
C466 C 0.82608 0.07572 0.44403 0.0
C467 C 0.7962 0.08285 0.45404 0.0
C468 C 0.79768 0.09644 0.44457 0.0
C469 C 0.81059 0.0723 0.45394 0.0
H470 H 0.83893 0.09214 0.42725 0.0
H471 H 0.78679 0.1047 0.44485 0.0
C472 C 0.83351 0.16492 0.39923 0.0
N473 N 0.85258 0.19183 0.39513 0.0
C474 C 0.83611 0.17106 0.38264 0.0
C475 C 0.84053 0.17249 0.41373 0.0
C476 C 0.84582 0.18467 0.38083 0.0
C477 C 0.85015 0.18608 0.41139 0.0
C478 C 0.84044 0.11266 0.38635 0.0
C479 C 0.84487 0.124 0.37427 0.0
C480 C 0.84629 0.09767 0.38363 0.0
C481 C 0.85514 0.12014 0.35966 0.0
C482 C 0.85654 0.09427 0.36885 0.0
N483 N 0.86072 0.10548 0.35728 0.0
C484 C 0.87528 0.12912 0.42224 0.0
C485 C 0.87445 0.14613 0.3983 0.0
C486 C 0.89419 0.12956 0.42246 0.0
N487 N 0.86583 0.1374 0.41037 0.0
C488 C 0.89337 0.14696 0.39809 0.0
C489 C 0.90352 0.13862 0.4103 0.0
H490 H 0.86809 0.12207 0.43151 0.0
H491 H 0.86673 0.15237 0.38874 0.0
C492 C 0.79596 0.14483 0.36546 0.0
N493 N 0.80137 0.13145 0.37278 0.0
C494 C 0.78877 0.14502 0.34865 0.0
C495 C 0.79256 0.11762 0.34731 0.0
C496 C 0.79981 0.11797 0.3641 0.0
C497 C 0.78701 0.13128 0.33933 0.0
H498 H 0.79732 0.15537 0.37269 0.0
H499 H 0.80436 0.1075 0.37013 0.0
O500 O 0.83057 0.13336 0.43511 0.0
O501 O 0.7943 0.13005 0.41545 0.0
O502 O 0.82422 0.15151 0.40118 0.0
O503 O 0.8304 0.11613 0.40077 0.0
H504 H 0.81529 0.12147 0.46315 0.0
H505 H 0.85625 0.15268 0.44505 0.0
H506 H 0.82381 0.1278 0.49351 0.0
H507 H 0.86389 0.15861 0.47571 0.0
H508 H 0.77213 0.08571 0.39309 0.0
H509 H 0.75951 0.13667 0.41783 0.0
H510 H 0.79777 0.10226 0.40194 0.0
H511 H 0.73448 0.11946 0.4087 0.0
H512 H 0.78605 0.17137 0.47612 0.0
H513 H 0.7883 0.19905 0.42958 0.0
H514 H 0.83738 0.06786 0.44337 0.0
H515 H 0.7841 0.08077 0.46165 0.0
H516 H 0.8308 0.1653 0.37127 0.0
H517 H 0.83846 0.16798 0.42665 0.0
H518 H 0.84799 0.18953 0.36807 0.0
H519 H 0.85565 0.19206 0.42251 0.0
H520 H 0.8404 0.13565 0.37611 0.0
H521 H 0.84293 0.08876 0.39285 0.0
H522 H 0.85867 0.12881 0.35022 0.0
H523 H 0.86117 0.08272 0.36658 0.0
H524 H 0.90139 0.12267 0.43189 0.0
H525 H 0.89993 0.15417 0.38854 0.0
H526 H 0.78448 0.15579 0.34306 0.0
H527 H 0.79165 0.1068 0.34052 0.0
Li528 Li 0.66187 0.13566 0.092 0.0
Li529 Li 0.6901 0.13197 0.10861 0.0
Li530 Li 0.69042 0.14612 0.0798 0.0
Li531 Li 0.68671 0.1182 0.08135 0.0
C532 C 0.66887 0.16411 0.10787 0.0
N533 N 0.65033 0.18953 0.11965 0.0
C534 C 0.66529 0.16591 0.12561 0.0
C535 C 0.66333 0.17541 0.09619 0.0
C536 C 0.65581 0.17879 0.13129 0.0
C537 C 0.6539 0.18813 0.10237 0.0
C538 C 0.66892 0.10792 0.11715 0.0
C539 C 0.67993 0.08949 0.13795 0.0
N540 N 0.66427 0.09093 0.14712 0.0
C541 C 0.65286 0.10911 0.1267 0.0
C542 C 0.6825 0.09793 0.12273 0.0
C543 C 0.65079 0.10045 0.14184 0.0
C544 C 0.62604 0.13319 0.07968 0.0
N545 N 0.63612 0.13812 0.09338 0.0
C546 C 0.60928 0.14525 0.10884 0.0
C547 C 0.62813 0.14396 0.10787 0.0
C548 C 0.59856 0.14045 0.09476 0.0
C549 C 0.60719 0.13438 0.08002 0.0
H550 H 0.63264 0.12815 0.06852 0.0
H551 H 0.63633 0.14733 0.11883 0.0
C552 C 0.71846 0.13177 0.13354 0.0
N553 N 0.70015 0.13144 0.13162 0.0
C554 C 0.72622 0.13145 0.15013 0.0
C555 C 0.69614 0.13041 0.16248 0.0
C556 C 0.68898 0.13091 0.14568 0.0
C557 C 0.715 0.1307 0.16488 0.0
H558 H 0.72706 0.13232 0.12217 0.0
H559 H 0.67447 0.13094 0.14387 0.0
C560 C 0.66569 0.13957 0.05297 0.0
N561 N 0.65318 0.15254 0.02248 0.0
C562 C 0.67 0.13299 0.03693 0.0
C563 C 0.65477 0.1526 0.0535 0.0
C564 C 0.66362 0.13976 0.02166 0.0
C565 C 0.64863 0.15902 0.03795 0.0
C566 C 0.72225 0.1225 0.08287 0.0
C567 C 0.73081 0.12692 0.06746 0.0
C568 C 0.72837 0.10961 0.09182 0.0
C569 C 0.7452 0.11819 0.06109 0.0
C570 C 0.74279 0.10117 0.08502 0.0
N571 N 0.75083 0.10559 0.06992 0.0
C572 C 0.7054 0.17569 0.07594 0.0
C573 C 0.70356 0.16167 0.04965 0.0
C574 C 0.71261 0.18827 0.06714 0.0
N575 N 0.70081 0.1628 0.0671 0.0
C576 C 0.71072 0.17397 0.04033 0.0
C577 C 0.71527 0.18756 0.04904 0.0
H578 H 0.70342 0.17621 0.08986 0.0
H579 H 0.70027 0.1512 0.04295 0.0
C580 C 0.68423 0.0863 0.07606 0.0
N581 N 0.69102 0.09943 0.06924 0.0
C582 C 0.68589 0.07251 0.06705 0.0
C583 C 0.70164 0.08594 0.04414 0.0
C584 C 0.69971 0.09947 0.05364 0.0
C585 C 0.69447 0.07222 0.05072 0.0
H586 H 0.67715 0.08655 0.08834 0.0
H587 H 0.70477 0.11009 0.04835 0.0
O588 O 0.67819 0.15156 0.1021 0.0
O589 O 0.67125 0.11642 0.10238 0.0
O590 O 0.67194 0.13314 0.06806 0.0
O591 O 0.70798 0.13079 0.08918 0.0
H592 H 0.66966 0.15741 0.13488 0.0
H593 H 0.66647 0.1745 0.08251 0.0
H594 H 0.65282 0.18025 0.14497 0.0
H595 H 0.64949 0.19693 0.09345 0.0
H596 H 0.69039 0.0818 0.14246 0.0
H597 H 0.64214 0.11666 0.12251 0.0
H598 H 0.69493 0.09676 0.11542 0.0
H599 H 0.63848 0.10132 0.1494 0.0
H600 H 0.60317 0.14997 0.12046 0.0
H601 H 0.59942 0.13026 0.06903 0.0
H602 H 0.74083 0.13162 0.1514 0.0
H603 H 0.687 0.13008 0.17349 0.0
H604 H 0.67825 0.12281 0.03626 0.0
H605 H 0.65084 0.15757 0.06578 0.0
H606 H 0.66696 0.13484 0.00916 0.0
H607 H 0.6402 0.16913 0.03819 0.0
H608 H 0.72631 0.13691 0.06042 0.0
H609 H 0.72207 0.10615 0.10388 0.0
H610 H 0.75188 0.12142 0.04912 0.0
H611 H 0.74761 0.09111 0.09177 0.0
H612 H 0.71624 0.19838 0.07446 0.0
H613 H 0.71244 0.17289 0.0264 0.0
H614 H 0.68037 0.06222 0.07277 0.0
H615 H 0.70813 0.08635 0.03152 0.0
Li616 Li 0.80963 0.87204 0.60803 0.0
Li617 Li 0.83913 0.86896 0.59271 0.0
Li618 Li 0.81561 0.8847 0.58088 0.0
Li619 Li 0.8116 0.85773 0.5806 0.0
C620 C 0.82805 0.90302 0.60473 0.0
N621 N 0.82637 0.93454 0.60594 0.0
C622 C 0.84334 0.91175 0.60073 0.0
C623 C 0.81194 0.91031 0.60946 0.0
C624 C 0.84221 0.92768 0.60138 0.0
C625 C 0.81136 0.92625 0.60999 0.0
C626 C 0.82959 0.84662 0.61826 0.0
C627 C 0.83393 0.82507 0.63734 0.0
N628 N 0.84179 0.83444 0.64926 0.0
C629 C 0.83769 0.85605 0.63072 0.0
C630 C 0.82764 0.83102 0.6216 0.0
C631 C 0.84378 0.84967 0.64631 0.0
C632 C 0.78546 0.86213 0.63427 0.0
N633 N 0.79856 0.87253 0.63048 0.0
C634 C 0.79728 0.88253 0.6594 0.0
C635 C 0.8046 0.88259 0.64265 0.0
C636 C 0.7838 0.87187 0.66376 0.0
C637 C 0.77788 0.86157 0.65094 0.0
H638 H 0.78108 0.85414 0.62439 0.0
H639 H 0.81537 0.89048 0.63946 0.0
C640 C 0.8745 0.87785 0.58566 0.0
N641 N 0.86495 0.86706 0.59446 0.0
C642 C 0.89341 0.87769 0.58581 0.0
C643 C 0.89242 0.85508 0.60378 0.0
C644 C 0.8735 0.8556 0.60314 0.0
C645 C 0.90268 0.86629 0.59512 0.0
H646 H 0.86737 0.88651 0.57833 0.0
H647 H 0.86576 0.84677 0.60949 0.0
C648 C 0.7803 0.87427 0.57494 0.0
N649 N 0.75399 0.87579 0.54944 0.0
C650 C 0.78526 0.87533 0.55743 0.0
C651 C 0.76198 0.87399 0.57948 0.0
C652 C 0.77175 0.87608 0.54473 0.0
C653 C 0.74888 0.87477 0.56639 0.0
C654 C 0.84126 0.86018 0.55858 0.0
C655 C 0.84732 0.86483 0.5422 0.0
C656 C 0.84619 0.84581 0.56496 0.0
C657 C 0.8582 0.85499 0.53242 0.0
C658 C 0.8571 0.83631 0.55478 0.0
N659 N 0.86282 0.84105 0.53886 0.0
C660 C 0.82665 0.90795 0.55829 0.0
C661 C 0.79687 0.91165 0.56904 0.0
C662 C 0.82582 0.92169 0.54912 0.0
N663 N 0.81235 0.90326 0.56805 0.0
C664 C 0.79545 0.92549 0.56005 0.0
C665 C 0.81011 0.93073 0.54999 0.0
H666 H 0.8388 0.90106 0.55781 0.0
H667 H 0.78576 0.90774 0.57705 0.0
C668 C 0.79342 0.82939 0.57743 0.0
N669 N 0.80177 0.84063 0.56821 0.0
C670 C 0.78607 0.81671 0.56889 0.0
C671 C 0.7961 0.82738 0.54155 0.0
C672 C 0.80307 0.83991 0.55058 0.0
C673 C 0.78748 0.81555 0.5507 0.0
H674 H 0.79248 0.83029 0.59143 0.0
H675 H 0.80947 0.84909 0.54347 0.0
O676 O 0.8287 0.88742 0.60367 0.0
O677 O 0.82311 0.85264 0.60308 0.0
O678 O 0.79322 0.87344 0.58767 0.0
O679 O 0.83067 0.8698 0.56826 0.0
H680 H 0.85593 0.90632 0.5971 0.0
H681 H 0.79991 0.90372 0.61238 0.0
H682 H 0.85391 0.93458 0.59823 0.0
H683 H 0.79894 0.93204 0.6135 0.0
H684 H 0.83252 0.81301 0.64009 0.0
H685 H 0.83934 0.86815 0.62837 0.0
H686 H 0.8213 0.8236 0.61212 0.0
H687 H 0.85009 0.85682 0.65605 0.0
H688 H 0.80245 0.8905 0.66897 0.0
H689 H 0.76746 0.85321 0.65374 0.0
H690 H 0.90066 0.88632 0.57851 0.0
H691 H 0.8989 0.84607 0.61115 0.0
H692 H 0.79935 0.87559 0.55364 0.0
H693 H 0.75794 0.87315 0.59298 0.0
H694 H 0.7754 0.8769 0.53114 0.0
H695 H 0.73464 0.87455 0.56972 0.0
H696 H 0.84363 0.87593 0.5371 0.0
H697 H 0.84168 0.84198 0.57759 0.0
H698 H 0.86298 0.85844 0.51972 0.0
H699 H 0.86101 0.82516 0.55955 0.0
H700 H 0.83735 0.92514 0.54135 0.0
H701 H 0.78317 0.93217 0.56127 0.0
H702 H 0.77961 0.8078 0.57644 0.0
H703 H 0.79723 0.82705 0.52751 0.0
Li704 Li 0.81147 0.64572 0.07896 0.0
Li705 Li 0.83992 0.63478 0.09063 0.0
Li706 Li 0.81584 0.61849 0.08089 0.0
Li707 Li 0.81197 0.63265 0.10711 0.0
C708 C 0.82816 0.62721 0.05053 0.0
N709 N 0.82388 0.61368 0.01832 0.0
C710 C 0.84272 0.61974 0.04262 0.0
C711 C 0.81143 0.62785 0.04202 0.0
C712 C 0.84028 0.61295 0.02634 0.0
C713 C 0.80955 0.62094 0.02574 0.0
C714 C 0.83247 0.66578 0.09822 0.0
C715 C 0.83851 0.69137 0.10829 0.0
N716 N 0.8477 0.69429 0.09332 0.0
C717 C 0.84197 0.66903 0.08292 0.0
C718 C 0.83069 0.67702 0.111 0.0
C719 C 0.84957 0.68352 0.0807 0.0
C720 C 0.78762 0.67055 0.07355 0.0
N721 N 0.80147 0.66252 0.06636 0.0
C722 C 0.80163 0.67895 0.04152 0.0
C723 C 0.80863 0.66653 0.05072 0.0
C724 C 0.78729 0.68755 0.04857 0.0
C725 C 0.78033 0.68318 0.06488 0.0
H726 H 0.78236 0.66722 0.08613 0.0
H727 H 0.81985 0.66012 0.0454 0.0
C728 C 0.87543 0.62554 0.08382 0.0
N729 N 0.86572 0.63644 0.09227 0.0
C730 C 0.89433 0.62566 0.0844 0.0
C731 C 0.89296 0.64796 0.10288 0.0
C732 C 0.87406 0.6474 0.10194 0.0
C733 C 0.90338 0.63704 0.09394 0.0
H734 H 0.86844 0.61661 0.07682 0.0
H735 H 0.86611 0.65566 0.10904 0.0
C736 C 0.78028 0.62103 0.09333 0.0
N737 N 0.75246 0.60237 0.10461 0.0
C738 C 0.78415 0.60705 0.10131 0.0
C739 C 0.76227 0.62551 0.09109 0.0
C740 C 0.7699 0.59779 0.10692 0.0
C741 C 0.74839 0.61592 0.09687 0.0
C742 C 0.84035 0.61366 0.11695 0.0
C743 C 0.84599 0.5988 0.12077 0.0
C744 C 0.84518 0.62566 0.12804 0.0
C745 C 0.85637 0.59617 0.13566 0.0
C746 C 0.85557 0.62256 0.14279 0.0
N747 N 0.86091 0.608 0.14627 0.0
C748 C 0.82593 0.5894 0.06937 0.0
C749 C 0.79627 0.59633 0.0606 0.0
C750 C 0.82462 0.57558 0.0604 0.0
N751 N 0.8119 0.59944 0.06927 0.0
C752 C 0.79436 0.58262 0.05145 0.0
C753 C 0.8087 0.57204 0.05121 0.0
H754 H 0.83829 0.59229 0.07619 0.0
H755 H 0.78538 0.6046 0.06057 0.0
C756 C 0.79463 0.64605 0.13612 0.0
N757 N 0.80159 0.63274 0.12994 0.0
C758 C 0.78704 0.64667 0.15278 0.0
C759 C 0.79386 0.61986 0.15635 0.0
C760 C 0.80125 0.61975 0.13963 0.0
C761 C 0.78661 0.63345 0.16318 0.0
H762 H 0.79496 0.65619 0.12808 0.0
H763 H 0.8068 0.60927 0.13443 0.0
O764 O 0.83007 0.63354 0.06671 0.0
O765 O 0.82469 0.65175 0.10066 0.0
O766 O 0.79395 0.6304 0.0878 0.0
O767 O 0.83024 0.61633 0.10234 0.0
H768 H 0.85576 0.61916 0.04896 0.0
H769 H 0.79994 0.63339 0.04806 0.0
H770 H 0.85142 0.60709 0.02009 0.0
H771 H 0.79665 0.62126 0.01907 0.0
H772 H 0.83725 0.70018 0.11808 0.0
H773 H 0.84353 0.66049 0.07289 0.0
H774 H 0.82335 0.67468 0.12289 0.0
H775 H 0.85697 0.68619 0.06894 0.0
H776 H 0.80733 0.68167 0.02892 0.0
H777 H 0.76955 0.68958 0.07105 0.0
H778 H 0.90177 0.61679 0.07767 0.0
H779 H 0.89934 0.65694 0.11039 0.0
H780 H 0.79799 0.60337 0.10316 0.0
H781 H 0.75906 0.63631 0.08495 0.0
H782 H 0.7727 0.58695 0.11313 0.0
H783 H 0.73438 0.61925 0.09522 0.0
H784 H 0.84238 0.5894 0.1123 0.0
H785 H 0.84094 0.63723 0.12534 0.0
H786 H 0.86083 0.58472 0.13878 0.0
H787 H 0.8594 0.63173 0.15149 0.0
H788 H 0.83613 0.56791 0.06035 0.0
H789 H 0.78179 0.58033 0.04469 0.0
H790 H 0.78139 0.65736 0.15736 0.0
H791 H 0.79408 0.60943 0.16393 0.0
Li792 Li 0.6859 0.38514 0.58113 0.0
Li793 Li 0.68958 0.37146 0.60899 0.0
Li794 Li 0.68926 0.35698 0.58037 0.0
Li795 Li 0.66142 0.36786 0.59299 0.0
C796 C 0.72295 0.37853 0.58342 0.0
N797 N 0.75539 0.39068 0.57199 0.0
C798 C 0.734 0.38672 0.59486 0.0
C799 C 0.72855 0.3763 0.56624 0.0
C800 C 0.75032 0.39283 0.58881 0.0
C801 C 0.74495 0.38259 0.56069 0.0
C802 C 0.67032 0.39701 0.61653 0.0
C803 C 0.6607 0.40277 0.64578 0.0
N804 N 0.6689 0.41665 0.64464 0.0
C805 C 0.67851 0.41139 0.61558 0.0
C806 C 0.6612 0.39271 0.63169 0.0
C807 C 0.67769 0.42114 0.62995 0.0
C808 C 0.67688 0.40739 0.55645 0.0
N809 N 0.6897 0.40374 0.56843 0.0
C810 C 0.70588 0.42681 0.56221 0.0
C811 C 0.70398 0.41319 0.57154 0.0
C812 C 0.69293 0.43079 0.5496 0.0
C813 C 0.67827 0.42085 0.54678 0.0
H814 H 0.66541 0.3999 0.5545 0.0
H815 H 0.71375 0.41033 0.58145 0.0
C816 C 0.70023 0.359 0.64129 0.0
N817 N 0.70009 0.37212 0.63183 0.0
C818 C 0.70738 0.35884 0.65812 0.0
C819 C 0.71431 0.38568 0.65518 0.0
C820 C 0.70715 0.38529 0.63835 0.0
C821 C 0.71446 0.37233 0.66532 0.0
H822 H 0.69476 0.34862 0.63578 0.0
H823 H 0.70727 0.39552 0.6305 0.0
C824 C 0.66916 0.36641 0.55155 0.0
N825 N 0.66633 0.35946 0.51659 0.0
C826 C 0.65414 0.35834 0.54535 0.0
C827 C 0.68258 0.37115 0.53992 0.0
C828 C 0.653 0.35487 0.52764 0.0
C829 C 0.68095 0.36747 0.52232 0.0
C830 C 0.66571 0.34135 0.60985 0.0
C831 C 0.66284 0.32735 0.60154 0.0
C832 C 0.65644 0.34465 0.62525 0.0
C833 C 0.65047 0.317 0.60863 0.0
C834 C 0.64417 0.33401 0.63191 0.0
N835 N 0.64144 0.32052 0.62352 0.0
C836 C 0.71716 0.33706 0.56892 0.0
C837 C 0.68805 0.33119 0.55784 0.0
C838 C 0.72474 0.32481 0.55979 0.0
N839 N 0.69914 0.3401 0.56766 0.0
C840 C 0.69504 0.31885 0.54848 0.0
C841 C 0.71365 0.31552 0.54934 0.0
H842 H 0.72567 0.34415 0.57705 0.0
H843 H 0.67369 0.33352 0.55747 0.0
C844 C 0.62589 0.37714 0.60146 0.0
N845 N 0.63576 0.36541 0.59479 0.0
C846 C 0.60704 0.37608 0.60251 0.0
C847 C 0.6088 0.35088 0.5898 0.0
C848 C 0.62762 0.35246 0.58892 0.0
C849 C 0.5982 0.36283 0.5966 0.0
H850 H 0.63263 0.38744 0.60571 0.0
H851 H 0.63572 0.34341 0.58338 0.0
O852 O 0.70692 0.37248 0.58913 0.0
O853 O 0.6711 0.38728 0.60263 0.0
O854 O 0.67053 0.36983 0.56886 0.0
O855 O 0.67761 0.35171 0.603 0.0
H856 H 0.73 0.38842 0.60823 0.0
H857 H 0.72043 0.36966 0.55733 0.0
H858 H 0.75894 0.39928 0.5975 0.0
H859 H 0.74941 0.38099 0.54741 0.0
H860 H 0.65378 0.39955 0.65763 0.0
H861 H 0.68552 0.41495 0.60393 0.0
H862 H 0.65458 0.38173 0.63256 0.0
H863 H 0.68406 0.43226 0.62943 0.0
H864 H 0.71742 0.43411 0.5648 0.0
H865 H 0.66777 0.42358 0.53746 0.0
H866 H 0.70711 0.34831 0.66551 0.0
H867 H 0.71989 0.39628 0.6601 0.0
H868 H 0.64354 0.35471 0.55412 0.0
H869 H 0.69404 0.37773 0.54441 0.0
H870 H 0.64152 0.34854 0.52269 0.0
H871 H 0.69127 0.37104 0.51319 0.0
H872 H 0.67001 0.32454 0.58972 0.0
H873 H 0.65869 0.35533 0.63196 0.0
H874 H 0.64803 0.30616 0.60227 0.0
H875 H 0.63682 0.33646 0.64376 0.0
H876 H 0.73917 0.32274 0.56078 0.0
H877 H 0.68591 0.31183 0.5409 0.0
H878 H 0.59946 0.38572 0.60752 0.0
H879 H 0.60265 0.3404 0.58523 0.0
Li880 Li 0.81177 0.37037 0.89581 0.0
Li881 Li 0.8168 0.38548 0.92335 0.0
Li882 Li 0.84047 0.36779 0.91152 0.0
Li883 Li 0.81257 0.35791 0.92364 0.0
C884 C 0.84016 0.39037 0.88627 0.0
N885 N 0.86024 0.39791 0.8572 0.0
C886 C 0.84581 0.40543 0.88366 0.0
C887 C 0.84475 0.37913 0.87413 0.0
C888 C 0.85595 0.40902 0.86886 0.0
C889 C 0.8549 0.38317 0.8595 0.0
C890 C 0.77958 0.36795 0.92248 0.0
C891 C 0.75877 0.36487 0.94639 0.0
N892 N 0.74916 0.3546 0.93684 0.0
C893 C 0.76946 0.35745 0.91285 0.0
C894 C 0.77419 0.37177 0.93935 0.0
C895 C 0.75413 0.35079 0.92036 0.0
C896 C 0.79614 0.35754 0.86569 0.0
N897 N 0.80103 0.37093 0.87331 0.0
C898 C 0.7914 0.38497 0.84829 0.0
C899 C 0.79872 0.38452 0.86505 0.0
C900 C 0.78632 0.37131 0.83998 0.0
C901 C 0.78871 0.35746 0.84898 0.0
H902 H 0.79806 0.3469 0.87262 0.0
H903 H 0.80275 0.395 0.87142 0.0
C904 C 0.82859 0.41029 0.94323 0.0
N905 N 0.81381 0.40439 0.93513 0.0
C906 C 0.82725 0.42389 0.95262 0.0
C907 C 0.79558 0.42532 0.94478 0.0
C908 C 0.7975 0.41159 0.93563 0.0
C909 C 0.81057 0.43157 0.95354 0.0
H910 H 0.84141 0.40432 0.94251 0.0
H911 H 0.78598 0.40662 0.92904 0.0
C912 C 0.8332 0.33745 0.9032 0.0
N913 N 0.85035 0.30952 0.90614 0.0
C914 C 0.84106 0.3331 0.91897 0.0
C915 C 0.83403 0.32759 0.88893 0.0
C916 C 0.84967 0.31894 0.9202 0.0
C917 C 0.84278 0.31352 0.89067 0.0
C918 C 0.83578 0.36914 0.95256 0.0
C919 C 0.85144 0.36141 0.95778 0.0
C920 C 0.82499 0.37638 0.96502 0.0
C921 C 0.85584 0.36081 0.97543 0.0
C922 C 0.82986 0.37552 0.98255 0.0
N923 N 0.84505 0.36781 0.98735 0.0
C924 C 0.87577 0.3765 0.91914 0.0
C925 C 0.87457 0.35568 0.89947 0.0
C926 C 0.89468 0.3765 0.91859 0.0
N927 N 0.86616 0.36616 0.90973 0.0
C928 C 0.89348 0.35514 0.8987 0.0
C929 C 0.90376 0.36567 0.90832 0.0
H930 H 0.8687 0.38478 0.92708 0.0
H931 H 0.86667 0.34781 0.89176 0.0
C932 C 0.79643 0.32869 0.92755 0.0
N933 N 0.80196 0.34121 0.9366 0.0
C934 C 0.78885 0.31618 0.93619 0.0
C935 C 0.79222 0.3298 0.96331 0.0
C936 C 0.7998 0.34201 0.95414 0.0
C937 C 0.78674 0.31659 0.95435 0.0
H938 H 0.79783 0.32843 0.91356 0.0
H939 H 0.80378 0.35215 0.96107 0.0
O940 O 0.83033 0.38668 0.90074 0.0
O941 O 0.79495 0.37418 0.91558 0.0
O942 O 0.82473 0.35129 0.9016 0.0
O943 O 0.83151 0.37015 0.93528 0.0
H944 H 0.84241 0.41424 0.89299 0.0
H945 H 0.84055 0.3674 0.87597 0.0
H946 H 0.86041 0.42063 0.86666 0.0
H947 H 0.85855 0.37459 0.85 0.0
H948 H 0.75449 0.36764 0.95947 0.0
H949 H 0.77354 0.35433 0.8998 0.0
H950 H 0.78194 0.37984 0.94698 0.0
H951 H 0.74622 0.34256 0.91311 0.0
H952 H 0.79005 0.3959 0.84181 0.0
H953 H 0.78474 0.34667 0.84324 0.0
H954 H 0.8392 0.42842 0.95898 0.0
H955 H 0.78245 0.43082 0.94525 0.0
H956 H 0.84043 0.34053 0.93015 0.0
H957 H 0.82803 0.33082 0.87662 0.0
H958 H 0.85579 0.31542 0.93234 0.0
H959 H 0.84355 0.30579 0.87973 0.0
H960 H 0.86016 0.35599 0.94829 0.0
H961 H 0.81287 0.38247 0.96122 0.0
H962 H 0.86789 0.35482 0.97965 0.0
H963 H 0.82156 0.38099 0.99233 0.0
H964 H 0.90212 0.38476 0.92628 0.0
H965 H 0.9 0.34675 0.89044 0.0
H966 H 0.78449 0.30637 0.92871 0.0
H967 H 0.79092 0.33062 0.9773 0.0
Li968 Li 0.69165 0.64567 0.42401 0.0
Li969 Li 0.66358 0.6339 0.41091 0.0
Li970 Li 0.68808 0.61795 0.42136 0.0
Li971 Li 0.69141 0.63194 0.39479 0.0
C972 C 0.66816 0.62412 0.44897 0.0
N973 N 0.65906 0.60547 0.4766 0.0
C974 C 0.65269 0.61494 0.44812 0.0
C975 C 0.67897 0.62387 0.46389 0.0
C976 C 0.64833 0.60558 0.46223 0.0
C977 C 0.67415 0.61435 0.47772 0.0
C978 C 0.66567 0.6617 0.39833 0.0
C979 C 0.6411 0.67093 0.38052 0.0
N980 N 0.63839 0.68257 0.39196 0.0
C981 C 0.66269 0.67378 0.40987 0.0
C982 C 0.65486 0.66029 0.38349 0.0
C983 C 0.64882 0.68421 0.40642 0.0
C984 C 0.71371 0.67158 0.42927 0.0
N985 N 0.70122 0.66238 0.43695 0.0
C986 C 0.70219 0.67736 0.46294 0.0
C987 C 0.6953 0.66506 0.4534 0.0
C988 C 0.71515 0.68712 0.4554 0.0
C989 C 0.72085 0.68408 0.43828 0.0
H990 H 0.71803 0.66923 0.41609 0.0
H991 H 0.68517 0.6577 0.45911 0.0
C992 C 0.62809 0.62678 0.39916 0.0
N993 N 0.63784 0.63604 0.40982 0.0
C994 C 0.60922 0.62789 0.39858 0.0
C995 C 0.61072 0.64793 0.42015 0.0
C996 C 0.62957 0.64643 0.42031 0.0
C997 C 0.60027 0.63856 0.40921 0.0
H998 H 0.63491 0.61833 0.39131 0.0
H999 H 0.63764 0.65347 0.42888 0.0
C1000 C 0.72428 0.62344 0.42026 0.0
N1001 N 0.75482 0.60872 0.43253 0.0
C1002 C 0.72954 0.60943 0.41315 0.0
C1003 C 0.73459 0.63001 0.43356 0.0
C1004 C 0.74501 0.60215 0.41956 0.0
C1005 C 0.74999 0.62238 0.43958 0.0
C1006 C 0.67467 0.60746 0.38469 0.0
C1007 C 0.68468 0.59392 0.38377 0.0
C1008 C 0.66605 0.613 0.36978 0.0
C1009 C 0.68591 0.58616 0.36793 0.0
C1010 C 0.66764 0.60493 0.35418 0.0
N1011 N 0.67745 0.59179 0.35358 0.0
C1012 C 0.68046 0.58745 0.43017 0.0
C1013 C 0.70487 0.5976 0.44643 0.0
C1014 C 0.68149 0.57368 0.43928 0.0
N1015 N 0.69216 0.59903 0.43371 0.0
C1016 C 0.70647 0.58398 0.45579 0.0
C1017 C 0.69465 0.57176 0.45231 0.0
H1018 H 0.66998 0.58904 0.42051 0.0
H1019 H 0.7135 0.60714 0.44967 0.0
C1020 C 0.69832 0.64481 0.36153 0.0
N1021 N 0.70194 0.63259 0.37188 0.0
C1022 C 0.70519 0.64547 0.34459 0.0
C1023 C 0.71952 0.62101 0.34928 0.0
C1024 C 0.71258 0.62092 0.36618 0.0
C1025 C 0.7158 0.63338 0.33822 0.0
H1026 H 0.69001 0.65404 0.36638 0.0
H1027 H 0.7155 0.61142 0.37465 0.0
O1028 O 0.67295 0.63298 0.43506 0.0
O1029 O 0.67894 0.65119 0.40167 0.0
O1030 O 0.70925 0.63081 0.41416 0.0
O1031 O 0.67348 0.61533 0.40003 0.0
H1032 H 0.64427 0.61489 0.4366 0.0
H1033 H 0.69116 0.63071 0.46464 0.0
H1034 H 0.63645 0.59835 0.46172 0.0
H1035 H 0.68246 0.61394 0.48929 0.0
H1036 H 0.63256 0.66992 0.36915 0.0
H1037 H 0.67088 0.67503 0.42144 0.0
H1038 H 0.65695 0.65099 0.37445 0.0
H1039 H 0.6463 0.69357 0.41528 0.0
H1040 H 0.69751 0.67907 0.47614 0.0
H1041 H 0.73054 0.6914 0.43176 0.0
H1042 H 0.60172 0.62021 0.39022 0.0
H1043 H 0.60442 0.65637 0.42848 0.0
H1044 H 0.72158 0.60408 0.40306 0.0
H1045 H 0.73072 0.64085 0.4392 0.0
H1046 H 0.74916 0.59125 0.41427 0.0
H1047 H 0.75808 0.6273 0.44989 0.0
H1048 H 0.69168 0.58955 0.39507 0.0
H1049 H 0.65842 0.62353 0.37018 0.0
H1050 H 0.69368 0.57571 0.36702 0.0
H1051 H 0.66114 0.60915 0.34252 0.0
H1052 H 0.67173 0.56478 0.43643 0.0
H1053 H 0.71685 0.58308 0.46569 0.0
H1054 H 0.70194 0.6552 0.33646 0.0
H1055 H 0.72785 0.61156 0.34496 0.0
Li1056 Li 0.18585 0.38342 0.92383 0.0
Li1057 Li 0.18894 0.35506 0.92237 0.0
Li1058 Li 0.19061 0.37083 0.8959 0.0
Li1059 Li 0.16263 0.36789 0.91093 0.0
C1060 C 0.22115 0.371 0.92794 0.0
N1061 N 0.24902 0.37052 0.95191 0.0
C1062 C 0.21737 0.36912 0.94564 0.0
C1063 C 0.23909 0.37257 0.92243 0.0
C1064 C 0.23166 0.36892 0.95755 0.0
C1065 C 0.25299 0.37233 0.93476 0.0
C1066 C 0.15544 0.36416 0.94394 0.0
C1067 C 0.13116 0.34656 0.95026 0.0
N1068 N 0.12269 0.3576 0.95968 0.0
C1069 C 0.14657 0.37529 0.95379 0.0
C1070 C 0.14775 0.34963 0.94224 0.0
C1071 C 0.13 0.37177 0.96162 0.0
C1072 C 0.1744 0.41021 0.93979 0.0
N1073 N 0.18964 0.40189 0.93682 0.0
C1074 C 0.20764 0.42064 0.9515 0.0
C1075 C 0.20614 0.40697 0.94219 0.0
C1076 C 0.19204 0.42932 0.95511 0.0
C1077 C 0.17527 0.42396 0.94895 0.0
H1078 H 0.16153 0.40619 0.93486 0.0
H1079 H 0.21821 0.40054 0.9392 0.0
C1080 C 0.21291 0.33008 0.92657 0.0
N1081 N 0.19866 0.33752 0.9339 0.0
C1082 C 0.22073 0.31752 0.93495 0.0
C1083 C 0.19891 0.32041 0.95815 0.0
C1084 C 0.19174 0.33306 0.94949 0.0
C1085 C 0.21361 0.3125 0.9509 0.0
H1086 H 0.21829 0.334 0.91426 0.0
H1087 H 0.18079 0.33942 0.95534 0.0
C1088 C 0.17829 0.40084 0.89519 0.0
N1089 N 0.18934 0.42875 0.88218 0.0
C1090 C 0.16555 0.41113 0.88861 0.0
C1091 C 0.19666 0.40475 0.8952 0.0
C1092 C 0.17141 0.42518 0.88208 0.0
C1093 C 0.20197 0.41892 0.88855 0.0
C1094 C 0.16979 0.34681 0.88417 0.0
C1095 C 0.16035 0.35715 0.87369 0.0
C1096 C 0.17214 0.33175 0.87858 0.0
C1097 C 0.15337 0.35222 0.85776 0.0
C1098 C 0.16495 0.32726 0.86256 0.0
N1099 N 0.1558 0.33751 0.85257 0.0
C1100 C 0.21673 0.36339 0.87035 0.0
C1101 C 0.1941 0.38055 0.86056 0.0
C1102 C 0.22469 0.36319 0.85383 0.0
N1103 N 0.20171 0.37198 0.87339 0.0
C1104 C 0.20172 0.38084 0.84395 0.0
C1105 C 0.21717 0.37202 0.84038 0.0
H1106 H 0.22239 0.35655 0.88073 0.0
H1107 H 0.18189 0.38698 0.8631 0.0
C1108 C 0.1273 0.37959 0.9123 0.0
N1109 N 0.13682 0.36673 0.90853 0.0
C1110 C 0.1084 0.37949 0.91179 0.0
C1111 C 0.1094 0.35296 0.90314 0.0
C1112 C 0.12829 0.35353 0.90403 0.0
C1113 C 0.09913 0.36605 0.90716 0.0
H1114 H 0.13445 0.38987 0.91606 0.0
H1115 H 0.13613 0.34337 0.90136 0.0
O1116 O 0.20748 0.37094 0.91595 0.0
O1117 O 0.17144 0.3675 0.93578 0.0
O1118 O 0.17263 0.38712 0.90178 0.0
O1119 O 0.177 0.35137 0.89972 0.0
H1120 H 0.20359 0.36787 0.95016 0.0
H1121 H 0.24222 0.37395 0.90877 0.0
H1122 H 0.22894 0.36749 0.97128 0.0
H1123 H 0.26695 0.37356 0.93069 0.0
H1124 H 0.12497 0.33542 0.94891 0.0
H1125 H 0.15239 0.38653 0.9554 0.0
H1126 H 0.15436 0.34092 0.93452 0.0
H1127 H 0.12295 0.3803 0.96922 0.0
H1128 H 0.22086 0.42427 0.95598 0.0
H1129 H 0.16294 0.43042 0.95096 0.0
H1130 H 0.23208 0.31169 0.92897 0.0
H1131 H 0.19325 0.31704 0.97058 0.0
H1132 H 0.15128 0.40827 0.88859 0.0
H1133 H 0.20674 0.39699 0.90026 0.0
H1134 H 0.16169 0.43325 0.87694 0.0
H1135 H 0.21613 0.4221 0.88847 0.0
H1136 H 0.15842 0.36885 0.87778 0.0
H1137 H 0.17948 0.32363 0.88652 0.0
H1138 H 0.14605 0.3601 0.84952 0.0
H1139 H 0.16666 0.31564 0.85806 0.0
H1140 H 0.23663 0.35627 0.85162 0.0
H1141 H 0.19533 0.38759 0.83387 0.0
H1142 H 0.10115 0.38978 0.91535 0.0
H1143 H 0.10295 0.34238 0.8993 0.0
Li1144 Li 0.31331 0.6462 0.42347 0.0
Li1145 Li 0.31511 0.61905 0.42336 0.0
Li1146 Li 0.34171 0.63526 0.41306 0.0
Li1147 Li 0.31242 0.63258 0.39602 0.0
C1148 C 0.33279 0.64076 0.45217 0.0
N1149 N 0.33655 0.65596 0.48349 0.0
C1150 C 0.31834 0.64137 0.46391 0.0
C1151 C 0.34917 0.64787 0.4564 0.0
C1152 C 0.3205 0.64912 0.47965 0.0
C1153 C 0.35081 0.65548 0.47229 0.0
C1154 C 0.28061 0.62265 0.42042 0.0
C1155 C 0.26134 0.60073 0.41593 0.0
N1156 N 0.25326 0.6034 0.43153 0.0
C1157 C 0.27206 0.62521 0.43638 0.0
C1158 C 0.27516 0.61035 0.41007 0.0
C1159 C 0.25827 0.61535 0.44177 0.0
C1160 C 0.28581 0.6664 0.43554 0.0
N1161 N 0.30402 0.66408 0.43518 0.0
C1162 C 0.30896 0.68693 0.4516 0.0
C1163 C 0.31561 0.67423 0.44266 0.0
C1164 C 0.29018 0.68938 0.45266 0.0
C1165 C 0.27856 0.67899 0.44429 0.0
H1166 H 0.27689 0.65846 0.42903 0.0
H1167 H 0.33006 0.67247 0.44172 0.0
C1168 C 0.31545 0.58688 0.42782 0.0
N1169 N 0.31017 0.6002 0.43538 0.0
C1170 C 0.31339 0.573 0.4366 0.0
C1171 C 0.30031 0.58673 0.46077 0.0
C1172 C 0.30267 0.60033 0.45154 0.0
C1173 C 0.3059 0.57281 0.4534 0.0
H1174 H 0.32172 0.58703 0.41514 0.0
H1175 H 0.29871 0.611 0.45741 0.0
C1176 C 0.32374 0.66622 0.39956 0.0
N1177 N 0.31651 0.69706 0.39663 0.0
C1178 C 0.30702 0.67115 0.39317 0.0
C1179 C 0.33684 0.67695 0.40436 0.0
C1180 C 0.30361 0.6868 0.39182 0.0
C1181 C 0.33291 0.6925 0.4028 0.0
C1182 C 0.33389 0.60886 0.38718 0.0
C1183 C 0.35022 0.61101 0.37831 0.0
C1184 C 0.32086 0.59893 0.38035 0.0
C1185 C 0.35314 0.60336 0.36261 0.0
C1186 C 0.32427 0.59151 0.36461 0.0
N1187 N 0.3402 0.59387 0.35613 0.0
C1188 C 0.37724 0.62808 0.42306 0.0
C1189 C 0.37543 0.64609 0.4001 0.0
C1190 C 0.39614 0.62881 0.42285 0.0
N1191 N 0.36735 0.63675 0.41189 0.0
C1192 C 0.39432 0.64706 0.39931 0.0
C1193 C 0.40492 0.63841 0.41087 0.0
H1194 H 0.37041 0.62066 0.4322 0.0
H1195 H 0.36719 0.65275 0.39127 0.0
C1196 C 0.28472 0.63272 0.37026 0.0
N1197 N 0.30295 0.63261 0.37278 0.0
C1198 C 0.27756 0.63286 0.35343 0.0
C1199 C 0.30806 0.63294 0.34205 0.0
C1200 C 0.3146 0.63304 0.3591 0.0
C1201 C 0.28926 0.63284 0.33896 0.0
H1202 H 0.27571 0.63288 0.38134 0.0
H1203 H 0.32903 0.63343 0.36142 0.0
O1204 O 0.33094 0.63327 0.43665 0.0
O1205 O 0.29435 0.63202 0.41502 0.0
O1206 O 0.32713 0.65096 0.40143 0.0
O1207 O 0.33072 0.61638 0.40249 0.0
H1208 H 0.30545 0.63626 0.46073 0.0
H1209 H 0.36046 0.64765 0.44745 0.0
H1210 H 0.30937 0.64979 0.48877 0.0
H1211 H 0.36339 0.66107 0.4757 0.0
H1212 H 0.25705 0.59114 0.40808 0.0
H1213 H 0.27618 0.63457 0.44466 0.0
H1214 H 0.28155 0.60822 0.39767 0.0
H1215 H 0.25163 0.61715 0.45414 0.0
H1216 H 0.31844 0.69483 0.45748 0.0
H1217 H 0.264 0.68042 0.44475 0.0
H1218 H 0.31817 0.56261 0.43049 0.0
H1219 H 0.29427 0.58714 0.47359 0.0
H1220 H 0.29671 0.66296 0.38949 0.0
H1221 H 0.34981 0.67329 0.40946 0.0
H1222 H 0.29068 0.69079 0.38699 0.0
H1223 H 0.34287 0.70094 0.40657 0.0
H1224 H 0.3605 0.61857 0.38341 0.0
H1225 H 0.30821 0.59703 0.38709 0.0
H1226 H 0.36568 0.60498 0.35556 0.0
H1227 H 0.31426 0.58388 0.35913 0.0
H1228 H 0.4038 0.6218 0.43182 0.0
H1229 H 0.40057 0.65465 0.38993 0.0
H1230 H 0.263 0.63321 0.35182 0.0
H1231 H 0.31769 0.63279 0.33144 0.0
Li1232 Li 0.16199 0.63194 0.0937 0.0
Li1233 Li 0.19192 0.63007 0.10799 0.0
Li1234 Li 0.18959 0.64451 0.08123 0.0
Li1235 Li 0.18647 0.61723 0.08125 0.0
C1236 C 0.17635 0.65527 0.11961 0.0
N1237 N 0.17627 0.66728 0.15284 0.0
C1238 C 0.16683 0.64792 0.13292 0.0
C1239 C 0.18573 0.66879 0.12317 0.0
C1240 C 0.16699 0.65415 0.14964 0.0
C1241 C 0.18554 0.67467 0.14007 0.0
C1242 C 0.17488 0.59834 0.10486 0.0
C1243 C 0.19244 0.57539 0.10898 0.0
N1244 N 0.17755 0.56686 0.10522 0.0
C1245 C 0.15972 0.58936 0.10115 0.0
C1246 C 0.19137 0.59133 0.10889 0.0
C1247 C 0.16135 0.57345 0.10136 0.0
C1248 C 0.12651 0.62269 0.08688 0.0
N1249 N 0.13632 0.63325 0.09577 0.0
C1250 C 0.10921 0.64562 0.10534 0.0
C1251 C 0.12811 0.64467 0.1048 0.0
C1252 C 0.09869 0.63481 0.09634 0.0
C1253 C 0.10761 0.62321 0.08703 0.0
H1254 H 0.13342 0.61396 0.07946 0.0
H1255 H 0.13621 0.65321 0.11132 0.0
C1256 C 0.21625 0.64015 0.13432 0.0
N1257 N 0.20336 0.62961 0.13037 0.0
C1258 C 0.2237 0.64073 0.15103 0.0
C1259 C 0.20492 0.61927 0.15911 0.0
C1260 C 0.19762 0.61929 0.14236 0.0
C1261 C 0.21803 0.6302 0.16379 0.0
H1262 H 0.2204 0.64836 0.12458 0.0
H1263 H 0.18715 0.61118 0.13901 0.0
C1264 C 0.15903 0.64034 0.05931 0.0
N1265 N 0.1352 0.65728 0.03942 0.0
C1266 C 0.15293 0.63471 0.04335 0.0
C1267 C 0.15295 0.65456 0.0652 0.0
C1268 C 0.14091 0.64346 0.03346 0.0
C1269 C 0.14092 0.66296 0.05494 0.0
C1270 C 0.22093 0.62861 0.07465 0.0
C1271 C 0.21539 0.62848 0.05726 0.0
C1272 C 0.2394 0.62827 0.07863 0.0
C1273 C 0.22845 0.62799 0.04413 0.0
C1274 C 0.25204 0.62778 0.06512 0.0
N1275 N 0.24636 0.62766 0.04829 0.0
C1276 C 0.21108 0.67099 0.07718 0.0
C1277 C 0.19464 0.6644 0.05181 0.0
C1278 C 0.2187 0.68361 0.06873 0.0
N1279 N 0.19909 0.6618 0.06873 0.0
C1280 C 0.20169 0.67701 0.04298 0.0
C1281 C 0.21384 0.68683 0.05146 0.0
H1282 H 0.21484 0.66842 0.09045 0.0
H1283 H 0.18581 0.65662 0.045 0.0
C1284 C 0.17549 0.59362 0.05924 0.0
N1285 N 0.19015 0.59893 0.06805 0.0
C1286 C 0.17648 0.57991 0.05003 0.0
C1287 C 0.20777 0.57746 0.05886 0.0
C1288 C 0.20615 0.59121 0.068 0.0
C1289 C 0.19274 0.57158 0.04983 0.0
H1290 H 0.16291 0.59995 0.05962 0.0
H1291 H 0.21753 0.59556 0.07534 0.0
O1292 O 0.17684 0.64904 0.1033 0.0
O1293 O 0.17373 0.61393 0.1042 0.0
O1294 O 0.17054 0.63173 0.06923 0.0
O1295 O 0.20848 0.6292 0.08783 0.0
H1296 H 0.15963 0.63737 0.1304 0.0
H1297 H 0.19311 0.67465 0.11303 0.0
H1298 H 0.1598 0.64852 0.16009 0.0
H1299 H 0.19279 0.68509 0.14303 0.0
H1300 H 0.20515 0.56981 0.11194 0.0
H1301 H 0.14685 0.59459 0.09806 0.0
H1302 H 0.20328 0.59813 0.11162 0.0
H1303 H 0.14976 0.56635 0.09842 0.0
H1304 H 0.10292 0.65492 0.1124 0.0
H1305 H 0.10007 0.61458 0.08 0.0
H1306 H 0.23348 0.64956 0.15399 0.0
H1307 H 0.20028 0.61073 0.16827 0.0
H1308 H 0.15745 0.62369 0.03865 0.0
H1309 H 0.15745 0.65911 0.07754 0.0
H1310 H 0.1361 0.63926 0.02107 0.0
H1311 H 0.13612 0.67398 0.05933 0.0
H1312 H 0.20119 0.62873 0.05387 0.0
H1313 H 0.2439 0.6284 0.09203 0.0
H1314 H 0.22436 0.62788 0.03062 0.0
H1315 H 0.26638 0.62751 0.06801 0.0
H1316 H 0.22811 0.69088 0.07569 0.0
H1317 H 0.19794 0.6789 0.02953 0.0
H1318 H 0.16462 0.57589 0.0431 0.0
H1319 H 0.22049 0.57131 0.05922 0.0
Li1320 Li 0.31174 0.3717 0.60885 0.0
Li1321 Li 0.33967 0.36798 0.59158 0.0
Li1322 Li 0.31521 0.38563 0.58078 0.0
Li1323 Li 0.31161 0.35763 0.57987 0.0
C1324 C 0.33145 0.39985 0.61235 0.0
N1325 N 0.33366 0.4257 0.63285 0.0
C1326 C 0.3473 0.40299 0.62162 0.0
C1327 C 0.31679 0.4099 0.61337 0.0
C1328 C 0.34813 0.4161 0.63196 0.0
C1329 C 0.31816 0.4229 0.62384 0.0
C1330 C 0.33559 0.34227 0.60991 0.0
C1331 C 0.35731 0.32177 0.60802 0.0
N1332 N 0.36016 0.3228 0.62546 0.0
C1333 C 0.33861 0.34305 0.62783 0.0
C1334 C 0.34488 0.33148 0.59993 0.0
C1335 C 0.35113 0.33312 0.63544 0.0
C1336 C 0.28591 0.36462 0.63477 0.0
N1337 N 0.30171 0.37221 0.63184 0.0
C1338 C 0.30322 0.37976 0.66171 0.0
C1339 C 0.31049 0.37956 0.64495 0.0
C1340 C 0.28694 0.37203 0.66513 0.0
C1341 C 0.27829 0.36432 0.65143 0.0
H1342 H 0.27929 0.35874 0.62415 0.0
H1343 H 0.3233 0.38509 0.64252 0.0
C1344 C 0.37527 0.36525 0.57838 0.0
N1345 N 0.36533 0.36552 0.59326 0.0
C1346 C 0.3941 0.3639 0.57908 0.0
C1347 C 0.39221 0.36318 0.61044 0.0
C1348 C 0.37341 0.36466 0.60912 0.0
C1349 C 0.40287 0.36282 0.59527 0.0
H1350 H 0.36861 0.36636 0.56594 0.0
H1351 H 0.36525 0.36526 0.62078 0.0
C1352 C 0.27766 0.37967 0.58728 0.0
N1353 N 0.24375 0.39268 0.58382 0.0
C1354 C 0.2667 0.37591 0.57309 0.0
C1355 C 0.27123 0.38981 0.59989 0.0
C1356 C 0.24964 0.38268 0.57152 0.0
C1357 C 0.25408 0.39633 0.59786 0.0
C1358 C 0.33155 0.36486 0.55127 0.0
C1359 C 0.32491 0.37317 0.53712 0.0
C1360 C 0.33979 0.35069 0.54848 0.0
C1361 C 0.32642 0.36705 0.52039 0.0
C1362 C 0.34102 0.34496 0.53157 0.0
N1363 N 0.33435 0.35318 0.51799 0.0
C1364 C 0.32398 0.41554 0.57053 0.0
C1365 C 0.29671 0.40649 0.55799 0.0
C1366 C 0.32232 0.42941 0.5617 0.0
N1367 N 0.31118 0.40448 0.5687 0.0
C1368 C 0.29457 0.42017 0.5488 0.0
C1369 C 0.30747 0.43187 0.55062 0.0
H1370 H 0.33566 0.41352 0.5787 0.0
H1371 H 0.28702 0.3974 0.55627 0.0
C1372 C 0.3 0.32709 0.57511 0.0
N1373 N 0.30099 0.34098 0.56727 0.0
C1374 C 0.29277 0.31455 0.56623 0.0
C1375 C 0.28777 0.33081 0.54132 0.0
C1376 C 0.29473 0.34308 0.55082 0.0
C1377 C 0.28669 0.31622 0.54897 0.0
H1378 H 0.30481 0.32576 0.5883 0.0
H1379 H 0.2953 0.35428 0.54495 0.0
O1380 O 0.33041 0.38702 0.60224 0.0
O1381 O 0.32353 0.352 0.6022 0.0
O1382 O 0.29433 0.37303 0.5891 0.0
O1383 O 0.33007 0.37062 0.56774 0.0
H1384 H 0.3588 0.39536 0.62089 0.0
H1385 H 0.30458 0.4078 0.60602 0.0
H1386 H 0.36029 0.41865 0.63927 0.0
H1387 H 0.30692 0.43078 0.62475 0.0
H1388 H 0.36468 0.31342 0.60044 0.0
H1389 H 0.33148 0.3513 0.63575 0.0
H1390 H 0.34254 0.33063 0.58608 0.0
H1391 H 0.35369 0.33365 0.64928 0.0
H1392 H 0.31045 0.38562 0.672 0.0
H1393 H 0.2657 0.35824 0.65355 0.0
H1394 H 0.40172 0.36406 0.56705 0.0
H1395 H 0.3983 0.36228 0.62321 0.0
H1396 H 0.27137 0.36795 0.56332 0.0
H1397 H 0.27928 0.39251 0.61122 0.0
H1398 H 0.24108 0.37998 0.56052 0.0
H1399 H 0.24897 0.40424 0.60749 0.0
H1400 H 0.31859 0.38419 0.53903 0.0
H1401 H 0.34509 0.34416 0.55927 0.0
H1402 H 0.32127 0.37332 0.50933 0.0
H1403 H 0.34727 0.33397 0.52923 0.0
H1404 H 0.3328 0.43797 0.56321 0.0
H1405 H 0.28292 0.42157 0.54039 0.0
H1406 H 0.29186 0.30372 0.57295 0.0
H1407 H 0.28356 0.33277 0.52803 0.0
H1408 H 0.25506 0.18815 0.03203 0.0
H1409 H 0.24254 0.20946 0.01567 0.0
H1410 H 0.2916 0.2352 0.0242 0.0
H1411 H 0.30359 0.21449 0.04189 0.0
H1412 H 0.26536 0.25349 0.02724 0.0
H1413 H 0.2805 0.21645 0.98402 0.0
H1414 H 0.28074 0.19123 0.96971 0.0
H1415 H 0.22297 0.19326 0.96355 0.0
H1416 H 0.22236 0.21841 0.97803 0.0
H1417 H 0.24924 0.30721 0.9584 0.0
H1418 H 0.26209 0.28564 0.97468 0.0
H1419 H 0.20873 0.26618 0.98022 0.0
H1420 H 0.19579 0.28783 0.9642 0.0
H1421 H 0.23745 0.24502 0.96934 0.0
H1422 H 0.22389 0.28303 0.01322 0.0
H1423 H 0.22556 0.30876 0.0262 0.0
H1424 H 0.2835 0.30521 0.02916 0.0
H1425 H 0.28219 0.27954 0.01594 0.0
C1426 C 0.26313 0.19841 0.03073 0.0
C1427 C 0.28045 0.19944 0.03833 0.0
C1428 C 0.25603 0.21054 0.02106 0.0
C1429 C 0.26625 0.22388 0.0183 0.0
C1430 C 0.28345 0.22502 0.02599 0.0
C1431 C 0.29041 0.21302 0.03596 0.0
C1432 C 0.25894 0.23671 0.00763 0.0
C1433 C 0.25952 0.2516 0.01448 0.0
C1434 C 0.25106 0.23436 0.99101 0.0
C1435 C 0.25137 0.21925 0.98226 0.0
C1436 C 0.26784 0.21147 0.97972 0.0
C1437 C 0.26804 0.19719 0.97156 0.0
C1438 C 0.25188 0.19063 0.96577 0.0
C1439 C 0.23548 0.19835 0.96807 0.0
C1440 C 0.2352 0.21262 0.97624 0.0
C1441 C 0.2403 0.29827 0.963 0.0
C1442 C 0.22153 0.29918 0.96009 0.0
C1443 C 0.24762 0.28601 0.97233 0.0
C1444 C 0.23633 0.27437 0.97868 0.0
C1445 C 0.21765 0.27506 0.97542 0.0
C1446 C 0.21028 0.28744 0.96636 0.0
C1447 C 0.24395 0.2616 0.98902 0.0
C1448 C 0.24339 0.24679 0.98209 0.0
C1449 C 0.25217 0.26405 0.00538 0.0
C1450 C 0.25295 0.27944 0.01342 0.0
C1451 C 0.237 0.2878 0.01649 0.0
C1452 C 0.23788 0.30236 0.02392 0.0
C1453 C 0.25463 0.30863 0.02846 0.0
C1454 C 0.27054 0.30034 0.02562 0.0
C1455 C 0.26973 0.28579 0.01817 0.0
H1456 H 0.25528 0.31991 0.03421 0.0
H1457 H 0.25206 0.17958 0.95945 0.0
H1458 H 0.26202 0.70819 0.44359 0.0
H1459 H 0.24973 0.72974 0.46003 0.0
H1460 H 0.2895 0.72231 0.50026 0.0
H1461 H 0.30153 0.70047 0.48412 0.0
H1462 H 0.25654 0.7274 0.51402 0.0
H1463 H 0.29436 0.75137 0.47146 0.0
H1464 H 0.30584 0.75687 0.442 0.0
H1465 H 0.25346 0.77361 0.42693 0.0
H1466 H 0.24159 0.768 0.45624 0.0
H1467 H 0.24471 0.79861 0.55744 0.0
H1468 H 0.25786 0.77735 0.54102 0.0
H1469 H 0.21696 0.78282 0.50146 0.0
H1470 H 0.2039 0.80422 0.51768 0.0
H1471 H 0.25095 0.77889 0.48754 0.0
H1472 H 0.2132 0.75459 0.53024 0.0
H1473 H 0.20199 0.74919 0.55981 0.0
H1474 H 0.25473 0.7332 0.57476 0.0
H1475 H 0.26633 0.73872 0.54533 0.0
C1476 C 0.26807 0.71107 0.45599 0.0
C1477 C 0.2828 0.70263 0.46251 0.0
C1478 C 0.26114 0.72348 0.46531 0.0
C1479 C 0.26882 0.72776 0.4813 0.0
C1480 C 0.28339 0.71926 0.48792 0.0
C1481 C 0.29036 0.70686 0.4786 0.0
C1482 C 0.26156 0.74101 0.49118 0.0
C1483 C 0.25556 0.73871 0.50831 0.0
C1484 C 0.25994 0.75571 0.48362 0.0
C1485 C 0.26704 0.75912 0.46599 0.0
C1486 C 0.28524 0.75611 0.46182 0.0
C1487 C 0.29183 0.75927 0.44516 0.0
C1488 C 0.28037 0.76555 0.43259 0.0
C1489 C 0.26231 0.76872 0.43667 0.0
C1490 C 0.25565 0.76557 0.45331 0.0
C1491 C 0.23861 0.79536 0.54518 0.0
C1492 C 0.22323 0.80306 0.53889 0.0
C1493 C 0.24606 0.78314 0.53588 0.0
C1494 C 0.23829 0.77841 0.52009 0.0
C1495 C 0.22313 0.78625 0.51363 0.0
C1496 C 0.21561 0.79839 0.52298 0.0
C1497 C 0.24591 0.76525 0.51034 0.0
C1498 C 0.25197 0.76758 0.49324 0.0
C1499 C 0.24764 0.7506 0.51794 0.0
C1500 C 0.24068 0.74722 0.53563 0.0
C1501 C 0.22245 0.75005 0.53987 0.0
C1502 C 0.21601 0.74694 0.5566 0.0
C1503 C 0.22765 0.7409 0.56917 0.0
C1504 C 0.24574 0.73791 0.56502 0.0
C1505 C 0.25225 0.74101 0.54831 0.0
H1506 H 0.22264 0.7385 0.58212 0.0
H1507 H 0.2855 0.76799 0.41969 0.0
H1508 H 0.25254 0.80861 0.96399 0.0
H1509 H 0.24 0.78711 0.98011 0.0
H1510 H 0.29353 0.76789 0.98552 0.0
H1511 H 0.306 0.78872 0.96825 0.0
H1512 H 0.27162 0.74608 0.97923 0.0
H1513 H 0.27058 0.78764 0.01954 0.0
H1514 H 0.2635 0.81353 0.03021 0.0
H1515 H 0.2066 0.80438 0.02507 0.0
H1516 H 0.21334 0.77849 0.01414 0.0
H1517 H 0.24932 0.69564 0.04944 0.0
H1518 H 0.26193 0.71734 0.03322 0.0
H1519 H 0.20823 0.72996 0.01649 0.0
H1520 H 0.19557 0.70821 0.03253 0.0
H1521 H 0.23028 0.75492 0.02911 0.0
H1522 H 0.23285 0.71265 0.98875 0.0
H1523 H 0.24129 0.68661 0.97955 0.0
H1524 H 0.29754 0.6973 0.98692 0.0
H1525 H 0.28941 0.72334 0.99643 0.0
C1526 C 0.26166 0.79971 0.96834 0.0
C1527 C 0.28036 0.80055 0.96481 0.0
C1528 C 0.25448 0.7875 0.97783 0.0
C1529 C 0.26584 0.77598 0.98441 0.0
C1530 C 0.28445 0.77666 0.98073 0.0
C1531 C 0.29162 0.78873 0.971 0.0
C1532 C 0.25834 0.76315 0.99494 0.0
C1533 C 0.2628 0.74808 0.99028 0.0
C1534 C 0.24659 0.76563 0.00927 0.0
C1535 C 0.24248 0.78118 0.01586 0.0
C1536 C 0.25656 0.79119 0.02057 0.0
C1537 C 0.25261 0.80586 0.02668 0.0
C1538 C 0.23461 0.81061 0.02828 0.0
C1539 C 0.22053 0.80069 0.0238 0.0
C1540 C 0.22441 0.78601 0.01766 0.0
C1541 C 0.24022 0.70312 0.04239 0.0
C1542 C 0.22148 0.70024 0.04219 0.0
C1543 C 0.24743 0.71544 0.03309 0.0
C1544 C 0.236 0.72519 0.02361 0.0
C1545 C 0.21726 0.72255 0.02372 0.0
C1546 C 0.21007 0.7101 0.03279 0.0
C1547 C 0.24362 0.73802 0.01334 0.0
C1548 C 0.23916 0.75303 0.01807 0.0
C1549 C 0.2556 0.73551 0.99928 0.0
C1550 C 0.26051 0.71989 0.99348 0.0
C1551 C 0.24701 0.7094 0.98856 0.0
C1552 C 0.25174 0.69465 0.98326 0.0
C1553 C 0.26994 0.69029 0.98269 0.0
C1554 C 0.28345 0.70069 0.98739 0.0
C1555 C 0.27879 0.71545 0.99272 0.0
H1556 H 0.27357 0.67887 0.97858 0.0
H1557 H 0.23158 0.82197 0.03301 0.0
H1558 H 0.26018 0.31603 0.52366 0.0
H1559 H 0.24919 0.29445 0.50682 0.0
H1560 H 0.28427 0.26421 0.5356 0.0
H1561 H 0.29664 0.28593 0.55137 0.0
H1562 H 0.2851 0.25573 0.50436 0.0
H1563 H 0.23608 0.26761 0.54263 0.0
H1564 H 0.2131 0.28376 0.55692 0.0
H1565 H 0.18853 0.29311 0.50745 0.0
H1566 H 0.21151 0.27718 0.49283 0.0
H1567 H 0.23546 0.18704 0.48475 0.0
H1568 H 0.24765 0.20936 0.50014 0.0
H1569 H 0.22829 0.23876 0.45917 0.0
H1570 H 0.2164 0.21641 0.44353 0.0
H1571 H 0.21919 0.24743 0.49596 0.0
H1572 H 0.26949 0.23389 0.45864 0.0
H1573 H 0.292 0.21608 0.44638 0.0
H1574 H 0.31343 0.20782 0.49743 0.0
H1575 H 0.29085 0.22541 0.51004 0.0
C1576 C 0.26586 0.30487 0.52628 0.0
C1577 C 0.27938 0.30287 0.53902 0.0
C1578 C 0.25926 0.29243 0.51679 0.0
C1579 C 0.26557 0.27757 0.52013 0.0
C1580 C 0.27906 0.27551 0.53279 0.0
C1581 C 0.28597 0.28799 0.54202 0.0
C1582 C 0.25834 0.2642 0.51026 0.0
C1583 C 0.27067 0.25386 0.50277 0.0
C1584 C 0.2395 0.26175 0.50787 0.0
C1585 C 0.22563 0.27132 0.51662 0.0
C1586 C 0.22586 0.2732 0.53479 0.0
C1587 C 0.21282 0.2823 0.54295 0.0
C1588 C 0.19939 0.28949 0.53309 0.0
C1589 C 0.19895 0.28756 0.51506 0.0
C1590 C 0.21197 0.27848 0.50683 0.0
C1591 C 0.23387 0.19827 0.47902 0.0
C1592 C 0.22505 0.20003 0.46295 0.0
C1593 C 0.24085 0.21097 0.48779 0.0
C1594 C 0.23886 0.22567 0.48076 0.0
C1595 C 0.22995 0.22749 0.46477 0.0
C1596 C 0.22328 0.21475 0.45583 0.0
C1597 C 0.24595 0.23914 0.49024 0.0
C1598 C 0.2336 0.24942 0.49763 0.0
C1599 C 0.26471 0.24135 0.49288 0.0
C1600 C 0.27836 0.23084 0.4853 0.0
C1601 C 0.27889 0.22816 0.46727 0.0
C1602 C 0.29168 0.21813 0.46026 0.0
C1603 C 0.3041 0.21079 0.47112 0.0
C1604 C 0.30379 0.2135 0.48903 0.0
C1605 C 0.291 0.22351 0.49612 0.0
H1606 H 0.314 0.20302 0.46566 0.0
H1607 H 0.18931 0.29653 0.53943 0.0
H1608 H 0.80548 0.70827 0.0281 0.0
H1609 H 0.79296 0.72962 0.01175 0.0
H1610 H 0.73969 0.71936 0.03168 0.0
H1611 H 0.75189 0.69729 0.04713 0.0
H1612 H 0.73696 0.72586 0.99908 0.0
H1613 H 0.76657 0.74999 0.04718 0.0
H1614 H 0.79183 0.75582 0.06709 0.0
H1615 H 0.82318 0.77312 0.02436 0.0
H1616 H 0.79818 0.7672 0.00415 0.0
H1617 H 0.69654 0.79726 0.97733 0.0
H1618 H 0.7093 0.77566 0.99342 0.0
H1619 H 0.76027 0.7817 0.96687 0.0
H1620 H 0.74763 0.80343 0.95083 0.0
H1621 H 0.76414 0.77761 0.0027 0.0
H1622 H 0.73337 0.75341 0.95486 0.0
H1623 H 0.70727 0.74804 0.9358 0.0
H1624 H 0.67698 0.73146 0.97959 0.0
H1625 H 0.70283 0.73693 0.99896 0.0
C1626 C 0.79105 0.71038 0.02887 0.0
C1627 C 0.77973 0.70096 0.039 0.0
C1628 C 0.78394 0.72279 0.01968 0.0
C1629 C 0.7654 0.72631 0.02068 0.0
C1630 C 0.75406 0.71694 0.03074 0.0
C1631 C 0.76111 0.7044 0.03976 0.0
C1632 C 0.75779 0.73959 0.011 0.0
C1633 C 0.74277 0.73721 1.0001 0.0
C1634 C 0.76553 0.75439 0.01199 0.0
C1635 C 0.78057 0.75801 0.02412 0.0
C1636 C 0.7789 0.75493 0.04201 0.0
C1637 C 0.79316 0.75827 0.05335 0.0
C1638 C 0.80912 0.7648 0.04699 0.0
C1639 C 0.81082 0.76804 0.02927 0.0
C1640 C 0.7966 0.76471 0.01786 0.0
C1641 C 0.71049 0.79403 0.97498 0.0
C1642 C 0.72107 0.80204 0.96279 0.0
C1643 C 0.71773 0.78163 0.9841 0.0
C1644 C 0.7357 0.77701 0.98125 0.0
C1645 C 0.74636 0.78506 0.96923 0.0
C1646 C 0.73908 0.79739 0.95999 0.0
C1647 C 0.74337 0.76382 0.9909 0.0
C1648 C 0.75837 0.76623 1.00175 0.0
C1649 C 0.73549 0.7491 0.99003 0.0
C1650 C 0.71998 0.74572 0.97838 0.0
C1651 C 0.72109 0.74873 0.96045 0.0
C1652 C 0.70635 0.74565 0.94959 0.0
C1653 C 0.69046 0.73945 0.95649 0.0
C1654 C 0.68929 0.73628 0.97426 0.0
C1655 C 0.70399 0.73936 0.98519 0.0
H1656 H 0.67906 0.73707 0.94806 0.0
H1657 H 0.82014 0.76737 0.05579 0.0
H1658 H 0.79471 0.19637 0.48736 0.0
H1659 H 0.78229 0.21804 0.50347 0.0
H1660 H 0.74846 0.22952 0.45965 0.0
H1661 H 0.76076 0.20782 0.44346 0.0
H1662 H 0.76424 0.25458 0.47281 0.0
H1663 H 0.73085 0.21206 0.49564 0.0
H1664 H 0.72692 0.18666 0.509 0.0
H1665 H 0.75597 0.20158 0.5543 0.0
H1666 H 0.7603 0.22701 0.5411 0.0
H1667 H 0.70546 0.30627 0.51621 0.0
H1668 H 0.71782 0.28447 0.50027 0.0
H1669 H 0.75195 0.27342 0.54402 0.0
H1670 H 0.73924 0.29494 0.56026 0.0
H1671 H 0.73611 0.24817 0.53096 0.0
H1672 H 0.76938 0.29075 0.50811 0.0
H1673 H 0.77322 0.31614 0.49473 0.0
H1674 H 0.74425 0.30112 0.44943 0.0
H1675 H 0.74002 0.27568 0.46264 0.0
C1676 C 0.78448 0.2034 0.4812 0.0
C1677 C 0.77869 0.2003 0.46412 0.0
C1678 C 0.77742 0.21581 0.49042 0.0
C1679 C 0.76429 0.22533 0.48284 0.0
C1680 C 0.75859 0.22236 0.46576 0.0
C1681 C 0.76568 0.20996 0.4565 0.0
C1682 C 0.75663 0.23846 0.49267 0.0
C1683 C 0.75786 0.25315 0.48542 0.0
C1684 C 0.74868 0.23666 0.50932 0.0
C1685 C 0.74605 0.22139 0.51731 0.0
C1686 C 0.73652 0.20989 0.50839 0.0
C1687 C 0.73421 0.19549 0.51594 0.0
C1688 C 0.74123 0.19249 0.53247 0.0
C1689 C 0.75056 0.20391 0.54149 0.0
C1690 C 0.75293 0.21832 0.53399 0.0
C1691 C 0.71549 0.29914 0.52251 0.0
C1692 C 0.72137 0.30238 0.53952 0.0
C1693 C 0.72268 0.28676 0.51331 0.0
C1694 C 0.73597 0.2774 0.52087 0.0
C1695 C 0.74176 0.28052 0.5379 0.0
C1696 C 0.73459 0.29291 0.5471 0.0
C1697 C 0.74371 0.26428 0.51108 0.0
C1698 C 0.74249 0.2496 0.51835 0.0
C1699 C 0.75165 0.26608 0.49444 0.0
C1700 C 0.75423 0.28135 0.48644 0.0
C1701 C 0.7637 0.29289 0.49535 0.0
C1702 C 0.76597 0.30729 0.48779 0.0
C1703 C 0.75894 0.31026 0.47126 0.0
C1704 C 0.74966 0.29881 0.46224 0.0
C1705 C 0.74734 0.2844 0.46975 0.0
H1706 H 0.76071 0.32141 0.46543 0.0
H1707 H 0.73942 0.18134 0.53829 0.0
H1708 H 0.79349 0.28619 0.94902 0.0
H1709 H 0.78102 0.26442 0.96493 0.0
H1710 H 0.75013 0.29512 0.99728 0.0
H1711 H 0.76253 0.31696 0.9814 0.0
H1712 H 0.76611 0.27357 0.01655 0.0
H1713 H 0.7299 0.27444 0.96482 0.0
H1714 H 0.72421 0.27483 0.93322 0.0
H1715 H 0.75156 0.23181 0.92768 0.0
H1716 H 0.75764 0.23126 0.95923 0.0
H1717 H 0.70756 0.21792 0.05379 0.0
H1718 H 0.71975 0.23976 0.03781 0.0
H1719 H 0.75176 0.20932 0.00616 0.0
H1720 H 0.73978 0.18741 0.0222 0.0
H1721 H 0.73505 0.23076 0.98655 0.0
H1722 H 0.7713 0.23002 0.03836 0.0
H1723 H 0.77686 0.22968 0.06998 0.0
H1724 H 0.74918 0.27257 0.07537 0.0
H1725 H 0.74323 0.27306 0.0438 0.0
C1726 C 0.78389 0.28831 0.95939 0.0
C1727 C 0.77897 0.30333 0.96389 0.0
C1728 C 0.77679 0.27584 0.9685 0.0
C1729 C 0.76448 0.27811 0.9822 0.0
C1730 C 0.75962 0.29309 0.98678 0.0
C1731 C 0.76676 0.30556 0.97771 0.0
C1732 C 0.75687 0.26488 0.99189 0.0
C1733 C 0.75909 0.26432 0.01001 0.0
C1734 C 0.74807 0.25262 0.98333 0.0
C1735 C 0.74437 0.25289 0.96437 0.0
C1736 C 0.73482 0.26512 0.95685 0.0
C1737 C 0.73151 0.26536 0.93895 0.0
C1738 C 0.73756 0.25338 0.92845 0.0
C1739 C 0.7469 0.2411 0.93583 0.0
C1740 C 0.75027 0.24081 0.95372 0.0
C1741 C 0.71735 0.21586 0.04357 0.0
C1742 C 0.72272 0.20089 0.03934 0.0
C1743 C 0.72427 0.22837 0.0344 0.0
C1744 C 0.7368 0.22619 0.02088 0.0
C1745 C 0.74208 0.21127 0.01652 0.0
C1746 C 0.73517 0.19875 0.02568 0.0
C1747 C 0.74429 0.23946 0.0112 0.0
C1748 C 0.74206 0.24002 0.99308 0.0
C1749 C 0.75305 0.25174 0.01976 0.0
C1750 C 0.75666 0.2515 0.03874 0.0
C1751 C 0.76627 0.23932 0.04631 0.0
C1752 C 0.76952 0.23911 0.06422 0.0
C1753 C 0.76334 0.25107 0.07468 0.0
C1754 C 0.75394 0.2633 0.06725 0.0
C1755 C 0.75064 0.26355 0.04935 0.0
H1756 H 0.76587 0.25089 0.08854 0.0
H1757 H 0.73498 0.25358 0.91459 0.0
H1758 H 0.80369 0.79893 0.52497 0.0
H1759 H 0.7913 0.77714 0.50906 0.0
H1760 H 0.74196 0.78015 0.53897 0.0
H1761 H 0.75451 0.80178 0.55521 0.0
H1762 H 0.75101 0.75153 0.53565 0.0
H1763 H 0.74513 0.79334 0.49605 0.0
H1764 H 0.75527 0.81552 0.47884 0.0
H1765 H 0.79286 0.78706 0.45115 0.0
H1766 H 0.78311 0.76473 0.46837 0.0
H1767 H 0.69734 0.70596 0.47836 0.0
H1768 H 0.70972 0.7274 0.49486 0.0
H1769 H 0.76191 0.72032 0.47104 0.0
H1770 H 0.74986 0.69852 0.45489 0.0
H1771 H 0.75092 0.75098 0.47112 0.0
H1772 H 0.75591 0.70906 0.51142 0.0
H1773 H 0.74448 0.68722 0.52844 0.0
H1774 H 0.70668 0.71664 0.55453 0.0
H1775 H 0.71772 0.73863 0.53747 0.0
C1776 C 0.79017 0.79499 0.5281 0.0
C1777 C 0.78003 0.80212 0.54127 0.0
C1778 C 0.78307 0.78254 0.51896 0.0
C1779 C 0.76554 0.77713 0.52257 0.0
C1780 C 0.7555 0.7841 0.53592 0.0
C1781 C 0.76268 0.79645 0.5452 0.0
C1782 C 0.75774 0.76417 0.51247 0.0
C1783 C 0.75077 0.75154 0.52154 0.0
C1784 C 0.75765 0.764 0.49404 0.0
C1785 C 0.76351 0.77739 0.48362 0.0
C1786 C 0.75565 0.79183 0.48638 0.0
C1787 C 0.76131 0.80443 0.47661 0.0
C1788 C 0.77473 0.80271 0.46395 0.0
C1789 C 0.78248 0.78838 0.46099 0.0
C1790 C 0.77688 0.77574 0.47073 0.0
C1791 C 0.71152 0.70878 0.47677 0.0
C1792 C 0.72259 0.70039 0.4653 0.0
C1793 C 0.71854 0.72112 0.48616 0.0
C1794 C 0.73676 0.7254 0.48425 0.0
C1795 C 0.7478 0.71723 0.47267 0.0
C1796 C 0.74084 0.70481 0.46338 0.0
C1797 C 0.74428 0.73841 0.49431 0.0
C1798 C 0.75117 0.75104 0.48523 0.0
C1799 C 0.7441 0.73866 0.51271 0.0
C1800 C 0.73751 0.72546 0.52304 0.0
C1801 C 0.74506 0.71085 0.52068 0.0
C1802 C 0.73867 0.69845 0.53035 0.0
C1803 C 0.72483 0.70053 0.54252 0.0
C1804 C 0.71739 0.71504 0.54508 0.0
C1805 C 0.72371 0.72748 0.53543 0.0
H1806 H 0.71991 0.69091 0.55 0.0
H1807 H 0.7791 0.81247 0.4564 0.0
H1808 H 0.29826 0.06641 0.01607 0.0
H1809 H 0.29668 0.04212 1.00042 0.0
H1810 H 0.30604 0.01777 0.04834 0.0
H1811 H 0.30807 0.04204 0.06402 0.0
H1812 H 0.32749 0.00731 0.0223 0.0
H1813 H 0.26425 0.01836 0.02995 0.0
H1814 H 0.23661 0.03408 0.02813 0.0
H1815 H 0.24169 0.03593 0.97254 0.0
H1816 H 0.26953 0.02038 0.97404 0.0
H1817 H 0.30983 0.93319 0.99036 0.0
H1818 H 0.30803 0.95701 0.00687 0.0
H1819 H 0.29546 0.98161 0.95977 0.0
H1820 H 0.29698 0.95773 0.94322 0.0
H1821 H 0.27524 0.99191 0.98568 0.0
H1822 H 0.33851 0.98185 0.9776 0.0
H1823 H 0.36659 0.96662 0.9788 0.0
H1824 H 0.36208 0.96362 0.03437 0.0
H1825 H 0.33382 0.97866 0.03348 0.0
C1826 C 0.3 0.05589 0.02328 0.0
C1827 C 0.3033 0.05617 0.04131 0.0
C1828 C 0.29893 0.042 0.01434 0.0
C1829 C 0.3011 0.02811 0.02323 0.0
C1830 C 0.30427 0.02835 0.04123 0.0
C1831 C 0.30528 0.04223 0.0502 0.0
C1832 C 0.30069 0.01336 0.01365 0.0
C1833 C 0.31594 0.00383 0.01451 0.0
C1834 C 0.28585 0.00903 0.00307 0.0
C1835 C 0.26907 0.01832 0.00213 0.0
C1836 C 0.25956 0.02221 0.01735 0.0
C1837 C 0.24384 0.03108 0.01637 0.0
C1838 C 0.23742 0.03604 1.00023 0.0
C1839 C 0.24669 0.0321 0.98503 0.0
C1840 C 0.26243 0.02325 0.98594 0.0
C1841 C 0.3067 0.94368 0.98352 0.0
C1842 C 0.30369 0.9436 0.96547 0.0
C1843 C 0.30568 0.9573 0.99297 0.0
C1844 C 0.30193 0.97118 0.98453 0.0
C1845 C 0.29841 0.97106 0.96657 0.0
C1846 C 0.29926 0.95741 0.95713 0.0
C1847 C 0.30203 0.98582 0.99437 0.0
C1848 C 0.28676 0.99536 0.99352 0.0
C1849 C 0.31692 0.99023 0.00487 0.0
C1850 C 0.33396 0.98125 0.00545 0.0
C1851 C 0.34344 0.97785 0.99006 0.0
C1852 C 0.3594 0.96926 0.99069 0.0
C1853 C 0.36609 0.96412 0.00664 0.0
C1854 C 0.35687 0.96759 0.02202 0.0
C1855 C 0.34088 0.97616 0.02146 0.0
H1856 H 0.37845 0.95748 0.0071 0.0
H1857 H 0.22525 0.0429 0.9995 0.0
H1858 H 0.21816 0.9535 0.55476 0.0
H1859 H 0.21953 0.97764 0.53866 0.0
H1860 H 0.17241 0.96438 0.50913 0.0
H1861 H 0.17085 0.94039 0.5252 0.0
H1862 H 0.19845 0.97566 0.48825 0.0
H1863 H 0.16956 0.99048 0.54199 0.0
H1864 H 0.16712 0.99292 0.57386 0.0
H1865 H 0.21606 0.01943 0.57497 0.0
H1866 H 0.21892 0.01697 0.54311 0.0
H1867 H 0.17165 0.04515 0.45001 0.0
H1868 H 0.17338 0.0217 0.46701 0.0
H1869 H 0.21853 0.04004 0.49587 0.0
H1870 H 0.21627 0.06392 0.47952 0.0
H1871 H 0.196 0.02624 0.51726 0.0
H1872 H 0.22433 0.01265 0.46355 0.0
H1873 H 0.22711 0.01023 0.43171 0.0
H1874 H 0.18012 0.98134 0.43047 0.0
H1875 H 0.17689 0.98375 0.46228 0.0
C1876 C 0.208 0.95579 0.54495 0.0
C1877 C 0.19444 0.94497 0.54124 0.0
C1878 C 0.20882 0.96958 0.53573 0.0
C1879 C 0.19602 0.97285 0.52272 0.0
C1880 C 0.18249 0.96207 0.51903 0.0
C1881 C 0.18166 0.94832 0.5282 0.0
C1882 C 0.19669 0.98741 0.51279 0.0
C1883 C 0.19774 0.98672 0.49458 0.0
C1884 C 0.19631 0.00186 0.52107 0.0
C1885 C 0.19456 0.0034 0.5402 0.0
C1886 C 0.17988 0.99672 0.54905 0.0
C1887 C 0.1784 0.99813 0.56711 0.0
C1888 C 0.19146 0.00629 0.57644 0.0
C1889 C 0.20598 0.01309 0.56773 0.0
C1890 C 0.20753 0.01171 0.54967 0.0
C1891 C 0.18185 0.0443 0.46008 0.0
C1892 C 0.19384 0.05648 0.46334 0.0
C1893 C 0.18297 0.03077 0.46966 0.0
C1894 C 0.19628 0.02897 0.48255 0.0
C1895 C 0.20821 0.04111 0.48592 0.0
C1896 C 0.20702 0.05471 0.47642 0.0
C1897 C 0.19751 0.0145 0.49267 0.0
C1898 C 0.19685 0.0152 0.51091 0.0
C1899 C 0.19833 1.00004 0.48442 0.0
C1900 C 0.20029 0.99849 0.46529 0.0
C1901 C 0.21451 0.00587 0.45647 0.0
C1902 C 0.21618 0.00448 0.43843 0.0
C1903 C 0.20378 0.99566 0.42907 0.0
C1904 C 0.18971 0.98817 0.43773 0.0
C1905 C 0.18796 0.98953 0.45577 0.0
H1906 H 0.20509 0.99461 0.4151 0.0
H1907 H 0.19029 0.00737 0.59042 0.0
H1908 H 0.71888 0.95405 0.95071 0.0
H1909 H 0.72048 0.97792 0.9672 0.0
H1910 H 0.6692 0.96763 0.99134 0.0
H1911 H 0.66772 0.94355 0.97541 0.0
H1912 H 0.67121 0.99739 0.97881 0.0
H1913 H 0.70677 0.96304 0.01394 0.0
H1914 H 0.73134 0.94459 0.01951 0.0
H1915 H 0.77083 0.97815 0.00458 0.0
H1916 H 0.74646 0.99674 0.99868 0.0
H1917 H 0.66819 0.05033 0.04744 0.0
H1918 H 0.66914 0.02696 0.03025 0.0
H1919 H 0.72293 0.03835 0.01258 0.0
H1920 H 0.72241 0.06153 0.03041 0.0
H1921 H 0.72087 0.0087 0.02036 0.0
H1922 H 0.68605 0.04343 0.98618 0.0
H1923 H 0.66186 0.06208 0.98005 0.0
H1924 H 0.62153 0.02834 0.99207 0.0
H1925 H 0.6455 0.00953 0.99852 0.0
C1926 C 0.70804 0.95673 0.95969 0.0
C1927 C 0.69316 0.94681 0.96168 0.0
C1928 C 0.70895 0.97043 0.96904 0.0
C1929 C 0.69498 0.97452 0.98053 0.0
C1930 C 0.68008 0.96473 0.98247 0.0
C1931 C 0.67922 0.95099 0.97326 0.0
C1932 C 0.69578 0.98903 0.99048 0.0
C1933 C 0.68195 0.99981 0.98804 0.0
C1934 C 0.71011 0.99236 0.00211 0.0
C1935 C 0.72478 0.98122 0.00568 0.0
C1936 C 0.72068 0.96644 0.01169 0.0
C1937 C 0.73457 0.95597 0.01494 0.0
C1938 C 0.75263 0.96018 0.01235 0.0
C1939 C 0.75684 0.97489 0.00655 0.0
C1940 C 0.74299 0.9854 0.00326 0.0
C1941 C 0.68035 0.0478 0.04011 0.0
C1942 C 0.69523 0.05785 0.04035 0.0
C1943 C 0.68078 0.0345 0.0301 0.0
C1944 C 0.69599 0.031 0.01989 0.0
C1945 C 0.711 0.04085 0.02027 0.0
C1946 C 0.71062 0.05417 0.03036 0.0
C1947 C 0.69615 0.01703 0.00886 0.0
C1948 C 0.71016 0.00636 0.01107 0.0
C1949 C 0.68205 0.01384 0.9969 0.0
C1950 C 0.66758 0.0251 0.99299 0.0
C1951 C 0.67203 0.04001 0.98765 0.0
C1952 C 0.65836 0.05061 0.9841 0.0
C1953 C 0.64017 0.04641 0.98571 0.0
C1954 C 0.63563 0.03158 0.99084 0.0
C1955 C 0.64925 0.02094 0.99444 0.0
H1956 H 0.62961 0.05463 0.98295 0.0
H1957 H 0.76337 0.95206 0.01488 0.0
H1958 H 0.78158 0.05299 0.458 0.0
H1959 H 0.7804 0.02913 0.47457 0.0
H1960 H 0.83622 0.03521 0.48968 0.0
H1961 H 0.83748 0.05905 0.47322 0.0
H1962 H 0.83035 0.00662 0.47919 0.0
H1963 H 0.80131 0.04185 0.51819 0.0
H1964 H 0.77886 0.06127 0.52687 0.0
H1965 H 0.73564 0.02978 0.51623 0.0
H1966 H 0.75784 0.01023 0.50724 0.0
H1967 H 0.8367 0.95235 0.54679 0.0
H1968 H 0.8356 0.97627 0.53048 0.0
H1969 H 0.78033 0.96689 0.51577 0.0
H1970 H 0.78135 0.94281 0.53198 0.0
H1971 H 0.78485 0.99665 0.52532 0.0
H1972 H 0.81409 0.96122 0.487 0.0
H1973 H 0.83664 0.94181 0.47856 0.0
H1974 H 0.87964 0.97379 0.48804 0.0
H1975 H 0.85734 0.99334 0.49679 0.0
C1976 C 0.79354 0.04933 0.465 0.0
C1977 C 0.80964 0.05793 0.46425 0.0
C1978 C 0.79286 0.03567 0.47446 0.0
C1979 C 0.80819 0.03041 0.48348 0.0
C1980 C 0.82424 0.03899 0.48277 0.0
C1981 C 0.82495 0.05261 0.4733 0.0
C1982 C 0.8077 0.01583 0.4934 0.0
C1983 C 0.82054 0.00453 0.48942 0.0
C1984 C 0.79459 0.01291 0.50644 0.0
C1985 C 0.78123 0.02463 0.51187 0.0
C1986 C 0.78701 0.03911 0.51756 0.0
C1987 C 0.77434 0.05013 0.52256 0.0
C1988 C 0.75584 0.04678 0.52206 0.0
C1989 C 0.74998 0.03237 0.51659 0.0
C1990 C 0.7626 0.02131 0.51155 0.0
C1991 C 0.82434 0.95529 0.53998 0.0
C1992 C 0.80917 0.94557 0.54056 0.0
C1993 C 0.82372 0.969 0.5307 0.0
C1994 C 0.80797 0.97327 0.5217 0.0
C1995 C 0.79264 0.96381 0.5226 0.0
C1996 C 0.79323 0.95007 0.53191 0.0
C1997 C 0.80763 0.98754 0.51122 0.0
C1998 C 0.79463 0.99875 0.51505 0.0
C1999 C 0.8206 0.9904 0.49805 0.0
C2000 C 0.83404 0.9787 0.4927 0.0
C2001 C 0.82836 0.96408 0.48741 0.0
C2002 C 0.8411 0.95306 0.48255 0.0
C2003 C 0.85957 0.95655 0.4828 0.0
C2004 C 0.86533 0.9711 0.48787 0.0
C2005 C 0.85264 0.98215 0.49276 0.0
H2006 H 0.86941 0.94801 0.47904 0.0
H2007 H 0.74604 0.05532 0.52594 0.0
H2008 H 0.79308 0.45793 0.94416 0.0
H2009 H 0.79104 0.48182 0.96066 0.0
H2010 H 0.82232 0.46171 0.00212 0.0
H2011 H 0.8242 0.43775 0.98583 0.0
H2012 H 0.79295 0.47786 0.01433 0.0
H2013 H 0.84227 0.4855 0.97427 0.0
H2014 H 0.85678 0.48626 0.9454 0.0
H2015 H 0.8189 0.52048 0.92871 0.0
H2016 H 0.80399 0.51976 0.95742 0.0
H2017 H 0.82073 0.54361 0.06069 0.0
H2018 H 0.81937 0.52 0.04385 0.0
H2019 H 0.79158 0.54372 0.00254 0.0
H2020 H 0.79351 0.56756 0.01905 0.0
H2021 H 0.81752 0.52596 0.98963 0.0
H2022 H 0.7689 0.5193 0.02993 0.0
H2023 H 0.75416 0.5186 0.05869 0.0
H2024 H 0.79002 0.48267 0.07481 0.0
H2025 H 0.80515 0.4833 0.04621 0.0
C2026 C 0.79938 0.45856 0.95686 0.0
C2027 C 0.80888 0.44598 0.96366 0.0
C2028 C 0.79831 0.47224 0.96621 0.0
C2029 C 0.80667 0.47358 0.98255 0.0
C2030 C 0.81582 0.46094 0.98953 0.0
C2031 C 0.81699 0.4473 0.98014 0.0
C2032 C 0.80613 0.48821 0.99231 0.0
C2033 C 0.79848 0.48835 0.00902 0.0
C2034 C 0.81292 0.50198 0.98518 0.0
C2035 C 0.82189 0.50245 0.96793 0.0
C2036 C 0.83693 0.49309 0.96439 0.0
C2037 C 0.84525 0.49353 0.94807 0.0
C2038 C 0.83873 0.50338 0.93521 0.0
C2039 C 0.82391 0.51283 0.93867 0.0
C2040 C 0.81553 0.51242 0.95497 0.0
C2041 C 0.81442 0.54385 0.04798 0.0
C2042 C 0.80722 0.5575 0.04124 0.0
C2043 C 0.81347 0.53028 0.03843 0.0
C2044 C 0.80517 0.53002 0.02201 0.0
C2045 C 0.79798 0.54362 0.01522 0.0
C2046 C 0.79895 0.55721 0.02475 0.0
C2047 C 0.80442 0.51563 0.01175 0.0
C2048 C 0.81186 0.51551 0.99494 0.0
C2049 C 0.79736 0.5019 0.01876 0.0
C2050 C 0.78827 0.50145 0.03597 0.0
C2051 C 0.77374 0.51133 0.03965 0.0
C2052 C 0.7653 0.51093 0.05592 0.0
C2053 C 0.77118 0.50062 0.06859 0.0
C2054 C 0.78549 0.49066 0.065 0.0
C2055 C 0.79399 0.49103 0.04875 0.0
H2056 H 0.76463 0.50033 0.08118 0.0
H2057 H 0.84519 0.50371 0.92258 0.0
H2058 H 0.68634 0.43547 0.51496 0.0
H2059 H 0.68778 0.45951 0.49885 0.0
H2060 H 0.70461 0.48301 0.54544 0.0
H2061 H 0.70273 0.45905 0.56176 0.0
H2062 H 0.67831 0.49861 0.52836 0.0
H2063 H 0.73496 0.47499 0.51357 0.0
H2064 H 0.75472 0.45427 0.50296 0.0
H2065 H 0.72812 0.45548 0.45332 0.0
H2066 H 0.70802 0.47608 0.46371 0.0
H2067 H 0.702 0.56812 0.4871 0.0
H2068 H 0.70327 0.54437 0.50366 0.0
H2069 H 0.69001 0.51883 0.45739 0.0
H2070 H 0.6897 0.54245 0.44052 0.0
H2071 H 0.71528 0.50441 0.47488 0.0
H2072 H 0.65804 0.52709 0.48945 0.0
H2073 H 0.63762 0.54748 0.49972 0.0
H2074 H 0.66439 0.54764 0.5493 0.0
H2075 H 0.68514 0.52738 0.53924 0.0
C2076 C 0.69027 0.44576 0.52181 0.0
C2077 C 0.69443 0.44533 0.53966 0.0
C2078 C 0.69124 0.45948 0.51254 0.0
C2079 C 0.69648 0.47305 0.52089 0.0
C2080 C 0.7006 0.47267 0.53871 0.0
C2081 C 0.69967 0.45894 0.54799 0.0
C2082 C 0.69728 0.48767 0.5111 0.0
C2083 C 0.68661 0.49996 0.51682 0.0
C2084 C 0.70774 0.48931 0.49579 0.0
C2085 C 0.71988 0.47699 0.48948 0.0
C2086 C 0.73323 0.47076 0.50043 0.0
C2087 C 0.74451 0.45906 0.49445 0.0
C2088 C 0.74265 0.45354 0.47749 0.0
C2089 C 0.72953 0.45976 0.46646 0.0
C2090 C 0.71821 0.47146 0.47239 0.0
C2091 C 0.69963 0.55745 0.48035 0.0
C2092 C 0.69569 0.55726 0.46244 0.0
C2093 C 0.70013 0.54387 0.48991 0.0
C2094 C 0.69643 0.5298 0.48186 0.0
C2095 C 0.69282 0.52953 0.46394 0.0
C2096 C 0.69246 0.54309 0.45433 0.0
C2097 C 0.69625 0.51536 0.49208 0.0
C2098 C 0.70702 0.50309 0.48645 0.0
C2099 C 0.68578 0.5137 0.50742 0.0
C2100 C 0.67326 0.52583 0.51353 0.0
C2101 C 0.65965 0.53155 0.5025 0.0
C2102 C 0.64801 0.54307 0.50829 0.0
C2103 C 0.64974 0.54888 0.52513 0.0
C2104 C 0.66308 0.54315 0.53624 0.0
C2105 C 0.67478 0.53164 0.53051 0.0
H2106 H 0.64071 0.55781 0.52959 0.0
H2107 H 0.75139 0.44448 0.47289 0.0
H2108 H 0.1677 0.54856 0.04932 0.0
H2109 H 0.16918 0.52439 0.03348 0.0
H2110 H 0.22185 0.53662 0.01356 0.0
H2111 H 0.22029 0.56103 0.02912 0.0
H2112 H 0.19976 0.52504 0.98817 0.0
H2113 H 0.21832 0.51071 0.04563 0.0
H2114 H 0.2158 0.50912 0.07755 0.0
H2115 H 0.16583 0.48437 0.07261 0.0
H2116 H 0.16792 0.486 0.04065 0.0
H2117 H 0.21855 0.45137 0.95368 0.0
H2118 H 0.22025 0.47515 0.97022 0.0
H2119 H 0.16955 0.46437 0.99528 0.0
H2120 H 0.1682 0.44024 0.97946 0.0
H2121 H 0.19244 0.47529 0.01829 0.0
H2122 H 0.17267 0.4906 0.96134 0.0
H2123 H 0.1743 0.49249 0.92938 0.0
H2124 H 0.22544 0.51563 0.93326 0.0
H2125 H 0.22423 0.51369 0.96526 0.0
C2126 C 0.17956 0.54616 0.04148 0.0
C2127 C 0.19387 0.55674 0.04045 0.0
C2128 C 0.18046 0.53228 0.03256 0.0
C2129 C 0.1957 0.52863 0.02247 0.0
C2130 C 0.20998 0.53918 0.02132 0.0
C2131 C 0.20913 0.55307 0.03031 0.0
C2132 C 0.19656 0.51388 0.01293 0.0
C2133 C 0.19846 0.51414 0.99477 0.0
C2134 C 0.19444 0.49968 0.02151 0.0
C2135 C 0.1932 0.4986 0.04074 0.0
C2136 C 0.20672 0.50503 0.05135 0.0
C2137 C 0.20538 0.50411 0.06945 0.0
C2138 C 0.19064 0.49668 0.07711 0.0
C2139 C 0.17723 0.49013 0.06667 0.0
C2140 C 0.1785 0.49104 0.04855 0.0
C2141 C 0.20786 0.45394 0.96286 0.0
C2142 C 0.19319 0.44386 0.96515 0.0
C2143 C 0.20875 0.46766 0.97218 0.0
C2144 C 0.19489 0.47169 0.98383 0.0
C2145 C 0.18037 0.46157 0.98632 0.0
C2146 C 0.17953 0.44782 0.9771 0.0
C2147 C 0.19546 0.48643 0.99347 0.0
C2148 C 0.19383 0.48618 0.01167 0.0
C2149 C 0.19772 0.50064 0.98491 0.0
C2150 C 0.19845 0.50185 0.96568 0.0
C2151 C 0.18433 0.49598 0.95537 0.0
C2152 C 0.18517 0.49708 0.93725 0.0
C2153 C 0.19999 0.50414 0.92929 0.0
C2154 C 0.21398 0.51015 0.93944 0.0
C2155 C 0.21323 0.50906 0.95757 0.0
H2156 H 0.20061 0.50498 0.91526 0.0
H2157 H 0.18963 0.49598 0.09113 0.0
H2158 H 0.29647 0.54428 0.44154 0.0
H2159 H 0.29579 0.52035 0.45795 0.0
H2160 H 0.31144 0.54455 0.50445 0.0
H2161 H 0.3128 0.56839 0.48803 0.0
H2162 H 0.33084 0.51909 0.50082 0.0
H2163 H 0.26766 0.53218 0.49801 0.0
H2164 H 0.23904 0.53911 0.48347 0.0
H2165 H 0.24017 0.49703 0.45479 0.0
H2166 H 0.26894 0.48994 0.46899 0.0
H2167 H 0.31355 0.46094 0.56232 0.0
H2168 H 0.31219 0.48473 0.54571 0.0
H2169 H 0.29635 0.45953 0.49995 0.0
H2170 H 0.29761 0.43568 0.51653 0.0
H2171 H 0.27696 0.48524 0.50276 0.0
H2172 H 0.33997 0.4721 0.50536 0.0
H2173 H 0.36868 0.46506 0.51965 0.0
H2174 H 0.36807 0.50715 0.54833 0.0
H2175 H 0.3392 0.51435 0.53438 0.0
C2176 C 0.29984 0.54451 0.45524 0.0
C2177 C 0.30465 0.5583 0.46346 0.0
C2178 C 0.29928 0.53083 0.46465 0.0
C2179 C 0.30338 0.53066 0.48249 0.0
C2180 C 0.30816 0.5444 0.49072 0.0
C2181 C 0.30875 0.55806 0.48133 0.0
C2182 C 0.3032 0.51613 0.49252 0.0
C2183 C 0.31897 0.5118 0.50144 0.0
C2184 C 0.28788 0.50639 0.49294 0.0
C2185 C 0.27055 0.5106 0.48444 0.0
C2186 C 0.26188 0.52446 0.48851 0.0
C2187 C 0.24562 0.52841 0.48034 0.0
C2188 C 0.23782 0.51854 0.46818 0.0
C2189 C 0.24624 0.50468 0.46419 0.0
C2190 C 0.26252 0.50068 0.47231 0.0
C2191 C 0.30984 0.46046 0.5487 0.0
C2192 C 0.30581 0.4464 0.54072 0.0
C2193 C 0.30905 0.47406 0.53922 0.0
C2194 C 0.30444 0.4739 0.5215 0.0
C2195 C 0.29996 0.45994 0.5136 0.0
C2196 C 0.30064 0.44632 0.52311 0.0
C2197 C 0.30456 0.48827 0.51117 0.0
C2198 C 0.28882 0.49254 0.50215 0.0
C2199 C 0.31992 0.49796 0.51061 0.0
C2200 C 0.33734 0.49369 0.51894 0.0
C2201 C 0.34589 0.4798 0.51481 0.0
C2202 C 0.3622 0.47579 0.52283 0.0
C2203 C 0.37017 0.48563 0.53492 0.0
C2204 C 0.36187 0.49953 0.53898 0.0
C2205 C 0.34554 0.50359 0.53101 0.0
H2206 H 0.3828 0.48251 0.54112 0.0
H2207 H 0.22523 0.52161 0.46187 0.0
H2208 H 0.5753 0.15014 0.06935 0.0
H2209 H 0.54216 0.15081 0.07035 0.0
H2210 H 0.54328 0.13361 0.1229 0.0
H2211 H 0.57643 0.13272 0.12191 0.0
H2212 H 0.5188 0.11832 0.1021 0.0
H2213 H 0.53388 0.17036 0.1159 0.0
H2214 H 0.54882 0.19523 0.11129 0.0
H2215 H 0.5209 0.2005 0.06268 0.0
H2216 H 0.50598 0.17555 0.06687 0.0
H2217 H 0.42612 0.12934 0.12139 0.0
H2218 H 0.45921 0.13056 0.12198 0.0
H2219 H 0.45912 0.1525 0.07171 0.0
H2220 H 0.42597 0.15159 0.07126 0.0
H2221 H 0.4833 0.16559 0.09175 0.0
H2222 H 0.46896 0.11382 0.07685 0.0
H2223 H 0.45427 0.0887 0.0803 0.0
H2224 H 0.48105 0.08248 0.12936 0.0
H2225 H 0.49572 0.10768 0.12632 0.0
C2226 C 0.56848 0.14648 0.08111 0.0
C2227 C 0.57847 0.14139 0.09556 0.0
C2228 C 0.54956 0.14698 0.0817 0.0
C2229 C 0.54027 0.14237 0.09675 0.0
C2230 C 0.55019 0.13726 0.11119 0.0
C2231 C 0.56912 0.13686 0.11065 0.0
C2232 C 0.52017 0.14252 0.09725 0.0
C2233 C 0.51102 0.12869 0.10011 0.0
C2234 C 0.51005 0.15597 0.09413 0.0
C2235 C 0.51894 0.17101 0.09162 0.0
C2236 C 0.53103 0.17676 0.10416 0.0
C2237 C 0.53948 0.19089 0.10163 0.0
C2238 C 0.53584 0.19943 0.08668 0.0
C2239 C 0.52372 0.19387 0.07424 0.0
C2240 C 0.51525 0.17974 0.07669 0.0
C2241 C 0.43317 0.13441 0.11046 0.0
C2242 C 0.42347 0.14029 0.09623 0.0
C2243 C 0.45209 0.13508 0.11079 0.0
C2244 C 0.46171 0.14138 0.09675 0.0
C2245 C 0.45202 0.14757 0.08269 0.0
C2246 C 0.43308 0.14706 0.08245 0.0
C2247 C 0.48187 0.14137 0.09662 0.0
C2248 C 0.49104 0.15521 0.0938 0.0
C2249 C 0.49203 0.12789 0.0996 0.0
C2250 C 0.48329 0.1127 0.10143 0.0
C2251 C 0.47161 0.10715 0.08844 0.0
C2252 C 0.46331 0.09289 0.09031 0.0
C2253 C 0.46669 0.08402 0.10506 0.0
C2254 C 0.47842 0.08938 0.11795 0.0
C2255 C 0.48675 0.10364 0.11616 0.0
H2256 H 0.46025 0.07298 0.10649 0.0
H2257 H 0.54239 0.21036 0.08475 0.0
H2258 H 0.92541 0.84138 0.59476 0.0
H2259 H 0.9585 0.84123 0.5959 0.0
H2260 H 0.95894 0.89046 0.59733 0.0
H2261 H 0.92587 0.89077 0.59679 0.0
H2262 H 0.98325 0.87825 0.57325 0.0
H2263 H 0.96713 0.87157 0.63342 0.0
H2264 H 0.95155 0.85923 0.65806 0.0
H2265 H 0.97872 0.81698 0.64684 0.0
H2266 H 0.99427 0.82903 0.62196 0.0
H2267 H 0.07495 0.89082 0.59495 0.0
H2268 H 0.04184 0.89042 0.5952 0.0
H2269 H 0.0426 0.84131 0.60011 0.0
H2270 H 0.07577 0.84167 0.60006 0.0
H2271 H 0.0175 0.85296 0.62073 0.0
H2272 H 0.03363 0.85892 0.5609 0.0
H2273 H 0.04903 0.87052 0.53569 0.0
H2274 H 0.02167 0.91299 0.54525 0.0
H2275 H 0.00629 0.9017 0.57069 0.0
C2276 C 0.93249 0.85219 0.59557 0.0
C2277 C 0.92288 0.86609 0.59571 0.0
C2278 C 0.95143 0.85207 0.59613 0.0
C2279 C 0.96116 0.86583 0.59677 0.0
C2280 C 0.95168 0.87972 0.59677 0.0
C2281 C 0.93275 0.87985 0.59636 0.0
C2282 C 0.98125 0.86578 0.5973 0.0
C2283 C 0.99076 0.8729 0.58374 0.0
C2284 C 0.99101 0.85841 0.61073 0.0
C2285 C 0.98172 0.85116 0.62572 0.0
C2286 C 0.96966 0.85962 0.63611 0.0
C2287 C 0.96086 0.85268 0.65014 0.0
C2288 C 0.9641 0.83732 0.65399 0.0
C2289 C 0.9762 0.82887 0.64383 0.0
C2290 C 0.98502 0.83575 0.62977 0.0
C2291 C 0.06806 0.87993 0.59602 0.0
C2292 C 0.07797 0.86626 0.59736 0.0
C2293 C 0.04913 0.87971 0.59615 0.0
C2294 C 0.0397 0.86581 0.59737 0.0
C2295 C 0.04957 0.85218 0.59912 0.0
C2296 C 0.06852 0.8524 0.59913 0.0
C2297 C 0.01957 0.86551 0.5967 0.0
C2298 C 0.01003 0.85831 0.61021 0.0
C2299 C 0.00977 0.87268 0.58312 0.0
C2300 C 0.01895 0.8795 0.5678 0.0
C2301 C 0.031 0.87077 0.55771 0.0
C2302 C 0.03971 0.87728 0.54337 0.0
C2303 C 0.03636 0.8925 0.5389 0.0
C2304 C 0.02427 0.90122 0.54874 0.0
C2305 C 0.01554 0.89476 0.56312 0.0
H2306 H 0.04311 0.89752 0.52779 0.0
H2307 H 0.95728 0.83197 0.66486 0.0
H2308 H 0.42631 0.8865 0.92194 0.0
H2309 H 0.45941 0.88622 0.92165 0.0
H2310 H 0.45873 0.84283 0.89499 0.0
H2311 H 0.42553 0.84288 0.89572 0.0
H2312 H 0.4837 0.84226 0.91878 0.0
H2313 H 0.46817 0.87747 0.87368 0.0
H2314 H 0.453 0.89974 0.8605 0.0
H2315 H 0.48002 0.92958 0.89645 0.0
H2316 H 0.49517 0.90746 0.91 0.0
H2317 H 0.57652 0.84625 0.89195 0.0
H2318 H 0.54341 0.84542 0.89193 0.0
H2319 H 0.54184 0.88485 0.92549 0.0
H2320 H 0.5749 0.88552 0.92608 0.0
H2321 H 0.51829 0.88702 0.89719 0.0
H2322 H 0.53355 0.85091 0.94221 0.0
H2323 H 0.54897 0.82829 0.9543 0.0
H2324 H 0.52264 0.79967 0.91663 0.0
H2325 H 0.50726 0.82217 0.90415 0.0
C2326 C 0.43324 0.87695 0.91593 0.0
C2327 C 0.42336 0.86476 0.90874 0.0
C2328 C 0.45216 0.87681 0.91573 0.0
C2329 C 0.46162 0.86464 0.908 0.0
C2330 C 0.45176 0.85236 0.901 0.0
C2331 C 0.43281 0.85239 0.90141 0.0
C2332 C 0.48178 0.8647 0.90737 0.0
C2333 C 0.49123 0.85196 0.9138 0.0
C2334 C 0.4917 0.87744 0.90113 0.0
C2335 C 0.48268 0.89078 0.89296 0.0
C2336 C 0.47078 0.88877 0.87885 0.0
C2337 C 0.4622 0.90137 0.8713 0.0
C2338 C 0.46551 0.91606 0.87766 0.0
C2339 C 0.47745 0.91819 0.89155 0.0
C2340 C 0.48605 0.90563 0.89916 0.0
C2341 C 0.56918 0.85463 0.89953 0.0
C2342 C 0.57846 0.86595 0.90902 0.0
C2343 C 0.55023 0.85417 0.89943 0.0
C2344 C 0.54018 0.86504 0.90876 0.0
C2345 C 0.54935 0.8764 0.91814 0.0
C2346 C 0.56827 0.8768 0.91837 0.0
C2347 C 0.52009 0.86465 0.90867 0.0
C2348 C 0.51069 0.87732 0.90209 0.0
C2349 C 0.51024 0.85179 0.91458 0.0
C2350 C 0.51941 0.83825 0.92213 0.0
C2351 C 0.53117 0.83981 0.93641 0.0
C2352 C 0.53988 0.82701 0.94335 0.0
C2353 C 0.53682 0.81255 0.93621 0.0
C2354 C 0.52501 0.81087 0.92213 0.0
C2355 C 0.51629 0.82365 0.91513 0.0
H2356 H 0.54358 0.80265 0.9416 0.0
H2357 H 0.45885 0.9258 0.8718 0.0
H2358 H 0.077 0.14132 0.38491 0.0
H2359 H 0.04388 0.14186 0.3841 0.0
H2360 H 0.0422 0.13716 0.43993 0.0
H2361 H 0.07531 0.13654 0.44081 0.0
H2362 H 0.01833 0.11861 0.42526 0.0
H2363 H 0.0337 0.17162 0.41969 0.0
H2364 H 0.04907 0.19401 0.40701 0.0
H2365 H 0.02317 0.18552 0.35795 0.0
H2366 H 0.00783 0.16293 0.37028 0.0
H2367 H 0.92637 0.13904 0.43843 0.0
H2368 H 0.95945 0.13912 0.43842 0.0
H2369 H 0.95962 0.13999 0.38235 0.0
H2370 H 0.92648 0.13957 0.38219 0.0
H2371 H 0.98408 0.1604 0.39664 0.0
H2372 H 0.96849 0.10744 0.40265 0.0
H2373 H 0.95297 0.08529 0.41572 0.0
H2374 H 0.97927 0.09408 0.46451 0.0
H2375 H 0.99475 0.11643 0.4518 0.0
C2376 C 0.06958 0.14056 0.39703 0.0
C2377 C 0.07879 0.13894 0.41294 0.0
C2378 C 0.05064 0.14086 0.39655 0.0
C2379 C 0.04053 0.13972 0.41198 0.0
C2380 C 0.0497 0.13804 0.42786 0.0
C2381 C 0.06863 0.13766 0.42834 0.0
C2382 C 0.02039 0.14001 0.41156 0.0
C2383 C 0.01086 0.12786 0.41921 0.0
C2384 C 0.0106 0.15189 0.4033 0.0
C2385 C 0.01976 0.16549 0.39586 0.0
C2386 C 0.0314 0.17445 0.40616 0.0
C2387 C 0.04008 0.18719 0.39904 0.0
C2388 C 0.03714 0.19116 0.38167 0.0
C2389 C 0.02546 0.18242 0.37139 0.0
C2390 C 0.01676 0.16965 0.37844 0.0
C2391 C 0.9334 0.13909 0.42607 0.0
C2392 C 0.9237 0.13919 0.4103 0.0
C2393 C 0.95233 0.1392 0.4261 0.0
C2394 C 0.96199 0.13942 0.41038 0.0
C2395 C 0.95241 0.13985 0.39463 0.0
C2396 C 0.93346 0.13967 0.39458 0.0
C2397 C 0.9821 0.13906 0.41042 0.0
C2398 C 0.9916 0.15117 0.40268 0.0
C2399 C 0.99187 0.12718 0.41866 0.0
C2400 C 0.98264 0.1137 0.42632 0.0
C2401 C 0.97085 0.10473 0.41621 0.0
C2402 C 0.96208 0.09212 0.42354 0.0
C2403 C 0.96509 0.0883 0.44095 0.0
C2404 C 0.97692 0.09706 0.45104 0.0
C2405 C 0.98571 0.1097 0.44377 0.0
H2406 H 0.95829 0.07853 0.4466 0.0
H2407 H 0.04387 0.20103 0.37618 0.0
H2408 H 0.07634 0.64153 0.12379 0.0
H2409 H 0.04322 0.64277 0.12386 0.0
H2410 H 0.04237 0.63102 0.06939 0.0
H2411 H 0.07547 0.63022 0.06907 0.0
H2412 H 0.01904 0.65379 0.07628 0.0
H2413 H 0.03272 0.60447 0.10044 0.0
H2414 H 0.04722 0.58648 0.12082 0.0
H2415 H 0.0207 0.60843 0.16379 0.0
H2416 H 0.00622 0.62669 0.14368 0.0
H2417 H 0.92724 0.63183 0.06734 0.0
H2418 H 0.96031 0.63212 0.06848 0.0
H2419 H 0.95828 0.64381 0.12294 0.0
H2420 H 0.92514 0.64305 0.12205 0.0
H2421 H 0.98304 0.62187 0.1169 0.0
H2422 H 0.96854 0.67071 0.09254 0.0
H2423 H 0.95396 0.68856 0.07206 0.0
H2424 H 0.98196 0.66748 0.0294 0.0
H2425 H 0.99652 0.64935 0.04959 0.0
C2426 C 0.06911 0.63935 0.11178 0.0
C2427 C 0.07856 0.6357 0.09644 0.0
C2428 C 0.05017 0.63992 0.11189 0.0
C2429 C 0.0403 0.6368 0.09668 0.0
C2430 C 0.0497 0.63341 0.08129 0.0
C2431 C 0.06862 0.63282 0.08118 0.0
C2432 C 0.02018 0.63704 0.09676 0.0
C2433 C 0.01116 0.64668 0.08502 0.0
C2434 C 0.0099 0.62805 0.10847 0.0
C2435 C 0.01854 0.61705 0.12057 0.0
C2436 C 0.0301 0.60554 0.11425 0.0
C2437 C 0.03829 0.59528 0.12575 0.0
C2438 C 0.03493 0.59634 0.14359 0.0
C2439 C 0.02332 0.60764 0.14997 0.0
C2440 C 0.0151 0.61794 0.13852 0.0
C2441 C 0.93381 0.63435 0.07961 0.0
C2442 C 0.92352 0.63744 0.0946 0.0
C2443 C 0.95273 0.63466 0.08019 0.0
C2444 C 0.96178 0.63817 0.09575 0.0
C2445 C 0.95158 0.64114 0.11078 0.0
C2446 C 0.93264 0.64083 0.11021 0.0
C2447 C 0.98189 0.63855 0.09634 0.0
C2448 C 0.99091 0.62903 0.1082 0.0
C2449 C 0.99218 0.64765 0.08474 0.0
C2450 C 0.9835 0.65858 0.07257 0.0
C2451 C 0.97148 0.6698 0.07877 0.0
C2452 C 0.96324 0.67999 0.06722 0.0
C2453 C 0.96699 0.67913 0.04944 0.0
C2454 C 0.97904 0.66812 0.04317 0.0
C2455 C 0.98731 0.6579 0.05467 0.0
H2456 H 0.9606 0.68703 0.04051 0.0
H2457 H 0.04128 0.58838 0.15247 0.0
H2458 H 0.57509 0.37309 0.62202 0.0
H2459 H 0.54205 0.37222 0.62216 0.0
H2460 H 0.54257 0.34861 0.57292 0.0
H2461 H 0.5756 0.35011 0.57225 0.0
H2462 H 0.51802 0.37021 0.57235 0.0
H2463 H 0.53319 0.32998 0.61185 0.0
H2464 H 0.5481 0.31812 0.63716 0.0
H2465 H 0.52064 0.34924 0.67136 0.0
H2466 H 0.50575 0.36144 0.64622 0.0
H2467 H 0.42579 0.347 0.57367 0.0
H2468 H 0.45886 0.34632 0.57443 0.0
H2469 H 0.45875 0.37498 0.62003 0.0
H2470 H 0.42567 0.37612 0.61913 0.0
H2471 H 0.48285 0.35035 0.62249 0.0
H2472 H 0.46809 0.39063 0.58232 0.0
H2473 H 0.45301 0.4019 0.55675 0.0
H2474 H 0.47974 0.36961 0.52343 0.0
H2475 H 0.49478 0.358 0.54887 0.0
C2476 C 0.5682 0.3678 0.61115 0.0
C2477 C 0.57807 0.36167 0.59713 0.0
C2478 C 0.54928 0.36715 0.61135 0.0
C2479 C 0.53979 0.36017 0.59766 0.0
C2480 C 0.54958 0.35399 0.58367 0.0
C2481 C 0.5685 0.35473 0.5834 0.0
C2482 C 0.51964 0.35971 0.59766 0.0
C2483 C 0.51036 0.36564 0.58322 0.0
C2484 C 0.50958 0.35405 0.61197 0.0
C2485 C 0.51849 0.34672 0.62713 0.0
C2486 C 0.53044 0.33438 0.62476 0.0
C2487 C 0.53887 0.32758 0.63908 0.0
C2488 C 0.53535 0.33294 0.65585 0.0
C2489 C 0.52337 0.3451 0.65835 0.0
C2490 C 0.51491 0.35196 0.64407 0.0
C2491 C 0.43276 0.35328 0.5838 0.0
C2492 C 0.42299 0.36171 0.59627 0.0
C2493 C 0.45167 0.3528 0.58425 0.0
C2494 C 0.46125 0.3607 0.5972 0.0
C2495 C 0.4516 0.36878 0.60995 0.0
C2496 C 0.43267 0.36935 0.60944 0.0
C2497 C 0.48135 0.36081 0.5972 0.0
C2498 C 0.49057 0.35485 0.61163 0.0
C2499 C 0.49137 0.36634 0.58284 0.0
C2500 C 0.48241 0.37335 0.56752 0.0
C2501 C 0.47063 0.38585 0.56956 0.0
C2502 C 0.46212 0.39231 0.55509 0.0
C2503 C 0.46538 0.38645 0.53848 0.0
C2504 C 0.4772 0.37413 0.53631 0.0
C2505 C 0.48574 0.36761 0.55075 0.0
H2506 H 0.45877 0.39147 0.52729 0.0
H2507 H 0.54189 0.32766 0.66692 0.0
H2508 H 0.07573 0.38876 0.89694 0.0
H2509 H 0.04265 0.38832 0.89724 0.0
H2510 H 0.04348 0.34192 0.916 0.0
H2511 H 0.07658 0.3424 0.91646 0.0
H2512 H 0.01888 0.34725 0.88786 0.0
H2513 H 0.03446 0.36816 0.94385 0.0
H2514 H 0.04988 0.38607 0.9637 0.0
H2515 H 0.02261 0.42383 0.93952 0.0
H2516 H 0.00723 0.40616 0.91935 0.0
H2517 H 0.92619 0.34099 0.91136 0.0
H2518 H 0.95933 0.34073 0.91086 0.0
H2519 H 0.95976 0.38955 0.90285 0.0
H2520 H 0.92663 0.38987 0.90386 0.0
H2521 H 0.98414 0.38274 0.92555 0.0
H2522 H 0.9688 0.36295 0.86942 0.0
H2523 H 0.95374 0.34585 0.84843 0.0
H2524 H 0.98065 0.30716 0.87103 0.0
H2525 H 0.9957 0.32401 0.89231 0.0
C2526 C 0.06895 0.3785 0.90135 0.0
C2527 C 0.07893 0.36564 0.90675 0.0
C2528 C 0.05001 0.37825 0.9014 0.0
C2529 C 0.04065 0.36511 0.90671 0.0
C2530 C 0.05048 0.35215 0.91178 0.0
C2531 C 0.06942 0.35244 0.91194 0.0
C2532 C 0.02058 0.36498 0.90718 0.0
C2533 C 0.01123 0.35486 0.89624 0.0
C2534 C 0.01069 0.3752 0.91778 0.0
C2535 C 0.01984 0.38584 0.92997 0.0
C2536 C 0.03187 0.38029 0.94267 0.0
C2537 C 0.04058 0.3904 0.95399 0.0
C2538 C 0.03726 0.40608 0.95284 0.0
C2539 C 0.02518 0.41169 0.94039 0.0
C2540 C 0.01646 0.40163 0.92901 0.0
C2541 C 0.93338 0.35164 0.90938 0.0
C2542 C 0.92385 0.36545 0.90761 0.0
C2543 C 0.95232 0.35149 0.90905 0.0
C2544 C 0.9621 0.3651 0.90656 0.0
C2545 C 0.95256 0.3789 0.9048 0.0
C2546 C 0.93363 0.37908 0.90538 0.0
C2547 C 0.98227 0.36503 0.90613 0.0
C2548 C 0.99169 0.37512 0.91711 0.0
C2549 C 0.99222 0.35489 0.89538 0.0
C2550 C 0.98324 0.34473 0.88257 0.0
C2551 C 0.9714 0.35078 0.87 0.0
C2552 C 0.96289 0.34114 0.85803 0.0
C2553 C 0.9662 0.32542 0.85842 0.0
C2554 C 0.97808 0.31933 0.87075 0.0
C2555 C 0.98662 0.32892 0.88276 0.0
H2556 H 0.95959 0.31797 0.84915 0.0
H2557 H 0.04401 0.41389 0.96162 0.0
H2558 H 0.57731 0.63711 0.38122 0.0
H2559 H 0.5442 0.63774 0.38138 0.0
H2560 H 0.54452 0.64323 0.43713 0.0
H2561 H 0.57762 0.64212 0.43714 0.0
H2562 H 0.52033 0.62197 0.4272 0.0
H2563 H 0.53527 0.67332 0.41016 0.0
H2564 H 0.55015 0.69307 0.3923 0.0
H2565 H 0.52248 0.67658 0.34691 0.0
H2566 H 0.50762 0.65658 0.36446 0.0
H2567 H 0.42805 0.64092 0.43844 0.0
H2568 H 0.46115 0.64171 0.43789 0.0
H2569 H 0.46032 0.63853 0.38189 0.0
H2570 H 0.42715 0.63801 0.38238 0.0
H2571 H 0.48485 0.65864 0.39171 0.0
H2572 H 0.47021 0.60726 0.4081 0.0
H2573 H 0.45544 0.58709 0.42545 0.0
H2574 H 0.48273 0.60299 0.47133 0.0
H2575 H 0.49748 0.62339 0.4543 0.0
C2576 C 0.57034 0.63839 0.39353 0.0
C2577 C 0.58014 0.63958 0.40917 0.0
C2578 C 0.55141 0.63889 0.39358 0.0
C2579 C 0.54187 0.64069 0.40925 0.0
C2580 C 0.5516 0.64189 0.42488 0.0
C2581 C 0.57053 0.64139 0.42484 0.0
C2582 C 0.52174 0.64093 0.40942 0.0
C2583 C 0.51257 0.63013 0.41963 0.0
C2584 C 0.51161 0.65129 0.39916 0.0
C2585 C 0.52046 0.66336 0.3886 0.0
C2586 C 0.53246 0.67383 0.39635 0.0
C2587 C 0.54087 0.68508 0.38629 0.0
C2588 C 0.5373 0.68606 0.36848 0.0
C2589 C 0.52525 0.6758 0.3607 0.0
C2590 C 0.51682 0.66452 0.37071 0.0
C2591 C 0.43493 0.64033 0.42602 0.0
C2592 C 0.42501 0.6393 0.41046 0.0
C2593 C 0.45385 0.64077 0.42571 0.0
C2594 C 0.46327 0.63991 0.40986 0.0
C2595 C 0.45337 0.63918 0.39428 0.0
C2596 C 0.43442 0.6389 0.39457 0.0
C2597 C 0.48342 0.6397 0.40956 0.0
C2598 C 0.4926 0.65048 0.39929 0.0
C2599 C 0.49358 0.62925 0.4197 0.0
C2600 C 0.48481 0.61694 0.42995 0.0
C2601 C 0.47296 0.60652 0.42192 0.0
C2602 C 0.46461 0.59504 0.43169 0.0
C2603 C 0.46811 0.59378 0.44949 0.0
C2604 C 0.48001 0.60399 0.45755 0.0
C2605 C 0.48839 0.6155 0.44784 0.0
H2606 H 0.46163 0.58489 0.45703 0.0
H2607 H 0.54382 0.69478 0.36071 0.0
H2608 H 0.2661 0.10927 0.18178 0.0
H2609 H 0.25446 0.10977 0.21136 0.0
H2610 H 0.27587 0.15523 0.21831 0.0
H2611 H 0.28885 0.15436 0.18918 0.0
H2612 H 0.28168 0.14032 0.24624 0.0
H2613 H 0.2291 0.14733 0.2111 0.0
H2614 H 0.20722 0.14172 0.18772 0.0
H2615 H 0.19494 0.09848 0.21134 0.0
H2616 H 0.21694 0.10375 0.23474 0.0
H2617 H 0.22536 0.15721 0.32038 0.0
H2618 H 0.23817 0.15716 0.29108 0.0
H2619 H 0.23218 0.10825 0.28853 0.0
H2620 H 0.22033 0.10797 0.31815 0.0
H2621 H 0.21807 0.12563 0.25871 0.0
H2622 H 0.27179 0.11991 0.29412 0.0
H2623 H 0.29279 0.12726 0.3176 0.0
H2624 H 0.30149 0.17077 0.29319 0.0
H2625 H 0.28031 0.16376 0.26968 0.0
C2626 C 0.26862 0.11932 0.18962 0.0
C2627 C 0.27847 0.13178 0.18292 0.0
C2628 C 0.26165 0.11968 0.20652 0.0
C2629 C 0.26393 0.13266 0.21705 0.0
C2630 C 0.2738 0.1451 0.21046 0.0
C2631 C 0.28104 0.14465 0.19365 0.0
C2632 C 0.25628 0.13316 0.23501 0.0
C2633 C 0.26769 0.13733 0.24887 0.0
C2634 C 0.23807 0.12908 0.23862 0.0
C2635 C 0.2248 0.12587 0.22459 0.0
C2636 C 0.22183 0.13658 0.21124 0.0
C2637 C 0.20939 0.13347 0.198 0.0
C2638 C 0.19973 0.11974 0.19802 0.0
C2639 C 0.20245 0.1091 0.21132 0.0
C2640 C 0.21489 0.11215 0.22459 0.0
C2641 C 0.22704 0.14637 0.3138 0.0
C2642 C 0.22172 0.13258 0.3218 0.0
C2643 C 0.23424 0.14641 0.29696 0.0
C2644 C 0.23608 0.13271 0.28766 0.0
C2645 C 0.23074 0.11896 0.29547 0.0
C2646 C 0.22383 0.11886 0.3124 0.0
C2647 C 0.2435 0.13271 0.26973 0.0
C2648 C 0.23203 0.12866 0.25595 0.0
C2649 C 0.26152 0.13717 0.26616 0.0
C2650 C 0.27431 0.14137 0.28025 0.0
C2651 C 0.27804 0.1311 0.29384 0.0
C2652 C 0.29001 0.1352 0.30714 0.0
C2653 C 0.29843 0.1495 0.30692 0.0
C2654 C 0.29493 0.15971 0.29336 0.0
C2655 C 0.28296 0.15568 0.28004 0.0
H2656 H 0.30769 0.15264 0.31722 0.0
H2657 H 0.1901 0.11735 0.18776 0.0
H2658 H 0.30206 0.86044 0.8095 0.0
H2659 H 0.28986 0.86113 0.78003 0.0
H2660 H 0.24356 0.88654 0.79833 0.0
H2661 H 0.25522 0.88522 0.82803 0.0
H2662 H 0.23284 0.86542 0.77646 0.0
H2663 H 0.27896 0.90379 0.77566 0.0
H2664 H 0.30957 0.91444 0.77988 0.0
H2665 H 0.33115 0.88225 0.74319 0.0
H2666 H 0.30069 0.87125 0.73892 0.0
H2667 H 0.20277 0.88911 0.69243 0.0
H2668 H 0.215 0.88962 0.72207 0.0
H2669 H 0.25792 0.85912 0.7065 0.0
H2670 H 0.2458 0.85861 0.67684 0.0
H2671 H 0.27009 0.88353 0.72686 0.0
H2672 H 0.22352 0.84507 0.72831 0.0
H2673 H 0.19266 0.83497 0.72407 0.0
H2674 H 0.17164 0.86839 0.75963 0.0
H2675 H 0.20238 0.87884 0.76389 0.0
C2676 C 0.28918 0.86604 0.80734 0.0
C2677 C 0.27967 0.87279 0.82122 0.0
C2678 C 0.28232 0.86659 0.7904 0.0
C2679 C 0.2659 0.8741 0.78686 0.0
C2680 C 0.2563 0.88075 0.80069 0.0
C2681 C 0.26309 0.88011 0.81767 0.0
C2682 C 0.25863 0.8748 0.7688 0.0
C2683 C 0.24092 0.86961 0.76568 0.0
C2684 C 0.26923 0.87999 0.75461 0.0
C2685 C 0.28757 0.88661 0.7571 0.0
C2686 C 0.29026 0.89891 0.76859 0.0
C2687 C 0.30758 0.90502 0.77097 0.0
C2688 C 0.32231 0.899 0.76184 0.0
C2689 C 0.31973 0.88688 0.75027 0.0
C2690 C 0.30244 0.88071 0.74785 0.0
C2691 C 0.2149 0.88262 0.6953 0.0
C2692 C 0.22329 0.87378 0.68232 0.0
C2693 C 0.2218 0.88284 0.71225 0.0
C2694 C 0.2373 0.87431 0.71652 0.0
C2695 C 0.24593 0.86576 0.7035 0.0
C2696 C 0.23893 0.8654 0.6866 0.0
C2697 C 0.24438 0.87414 0.7346 0.0
C2698 C 0.26204 0.87942 0.7377 0.0
C2699 C 0.2337 0.86914 0.74878 0.0
C2700 C 0.21522 0.86285 0.74627 0.0
C2701 C 0.2123 0.85036 0.73511 0.0
C2702 C 0.19483 0.84455 0.73272 0.0
C2703 C 0.18019 0.85106 0.74153 0.0
C2704 C 0.18299 0.86337 0.75279 0.0
C2705 C 0.20044 0.86924 0.7552 0.0
H2706 H 0.16668 0.84654 0.73968 0.0
H2707 H 0.3357 0.90375 0.7637 0.0
H2708 H 0.72854 0.84683 0.82137 0.0
H2709 H 0.74031 0.84648 0.79163 0.0
H2710 H 0.72999 0.89484 0.78708 0.0
H2711 H 0.71791 0.89517 0.81669 0.0
H2712 H 0.71918 0.88117 0.75885 0.0
H2713 H 0.77358 0.87978 0.79285 0.0
H2714 H 0.79447 0.87009 0.81531 0.0
H2715 H 0.79726 0.82681 0.78913 0.0
H2716 H 0.77618 0.83618 0.76663 0.0
H2717 H 0.77311 0.89594 0.68399 0.0
H2718 H 0.76127 0.89519 0.71372 0.0
H2719 H 0.7655 0.84605 0.71378 0.0
H2720 H 0.77751 0.84672 0.68406 0.0
H2721 H 0.77927 0.85944 0.74393 0.0
H2722 H 0.72512 0.86172 0.70942 0.0
H2723 H 0.70483 0.87219 0.68691 0.0
H2724 H 0.70241 0.91492 0.71426 0.0
H2725 H 0.72292 0.90477 0.73681 0.0
C2726 C 0.72896 0.85741 0.81408 0.0
C2727 C 0.72233 0.87103 0.82139 0.0
C2728 C 0.7357 0.8572 0.79707 0.0
C2729 C 0.73625 0.87067 0.78712 0.0
C2730 C 0.72968 0.88429 0.79444 0.0
C2731 C 0.72277 0.88447 0.81137 0.0
C2732 C 0.74332 0.87056 0.76897 0.0
C2733 C 0.73243 0.8766 0.75566 0.0
C2734 C 0.76045 0.86429 0.76466 0.0
C2735 C 0.77316 0.85863 0.77815 0.0
C2736 C 0.77854 0.86815 0.79196 0.0
C2737 C 0.79043 0.86273 0.80468 0.0
C2738 C 0.79715 0.84783 0.80367 0.0
C2739 C 0.79202 0.83834 0.78991 0.0
C2740 C 0.78012 0.84371 0.77716 0.0
C2741 C 0.77156 0.88498 0.69035 0.0
C2742 C 0.7762 0.87139 0.68166 0.0
C2743 C 0.7647 0.88456 0.70729 0.0
C2744 C 0.7624 0.87055 0.71592 0.0
C2745 C 0.76714 0.85697 0.70735 0.0
C2746 C 0.77386 0.85737 0.69033 0.0
C2747 C 0.75517 0.87013 0.73394 0.0
C2748 C 0.76603 0.86398 0.74719 0.0
C2749 C 0.73809 0.87642 0.73822 0.0
C2750 C 0.7257 0.88253 0.72472 0.0
C2751 C 0.72039 0.87339 0.71056 0.0
C2752 C 0.70882 0.87926 0.69781 0.0
C2753 C 0.70237 0.89422 0.69913 0.0
C2754 C 0.70744 0.90333 0.71324 0.0
C2755 C 0.71902 0.89753 0.72602 0.0
H2756 H 0.69341 0.89874 0.68925 0.0
H2757 H 0.80636 0.84365 0.81354 0.0
H2758 H 0.7625 0.11137 0.32518 0.0
H2759 H 0.75057 0.11116 0.29551 0.0
H2760 H 0.78299 0.1507 0.28307 0.0
H2761 H 0.79476 0.15108 0.3128 0.0
H2762 H 0.75046 0.154 0.26994 0.0
H2763 H 0.79475 0.11408 0.26946 0.0
H2764 H 0.8098 0.09054 0.27956 0.0
H2765 H 0.76112 0.06498 0.27014 0.0
H2766 H 0.7457 0.08841 0.26021 0.0
H2767 H 0.74249 0.14834 0.17782 0.0
H2768 H 0.7549 0.14824 0.20737 0.0
H2769 H 0.71762 0.11244 0.22172 0.0
H2770 H 0.70525 0.11241 0.19215 0.0
H2771 H 0.75278 0.10721 0.23357 0.0
H2772 H 0.70879 0.14776 0.23396 0.0
H2773 H 0.6945 0.17147 0.2234 0.0
H2774 H 0.74396 0.19607 0.23243 0.0
H2775 H 0.75862 0.17243 0.24281 0.0
C2776 C 0.76717 0.11996 0.31609 0.0
C2777 C 0.77962 0.13121 0.32133 0.0
C2778 C 0.76036 0.11982 0.29911 0.0
C2779 C 0.76607 0.13078 0.28693 0.0
C2780 C 0.77836 0.14213 0.2922 0.0
C2781 C 0.78506 0.14235 0.30922 0.0
C2782 C 0.75912 0.13051 0.26876 0.0
C2783 C 0.75122 0.14382 0.26193 0.0
C2784 C 0.75977 0.11716 0.25834 0.0
C2785 C 0.76902 0.10303 0.26425 0.0
C2786 C 0.78721 0.10346 0.26967 0.0
C2787 C 0.79582 0.09013 0.27534 0.0
C2788 C 0.78641 0.07628 0.27553 0.0
C2789 C 0.76839 0.07572 0.27001 0.0
C2790 C 0.75971 0.08902 0.26434 0.0
C2791 C 0.73704 0.14036 0.18723 0.0
C2792 C 0.72286 0.13041 0.18268 0.0
C2793 C 0.74406 0.14039 0.20413 0.0
C2794 C 0.73708 0.13042 0.21678 0.0
C2795 C 0.72317 0.12026 0.21218 0.0
C2796 C 0.71604 0.12032 0.19533 0.0
C2797 C 0.74417 0.13068 0.23485 0.0
C2798 C 0.75208 0.11737 0.24163 0.0
C2799 C 0.74367 0.14406 0.24516 0.0
C2800 C 0.73486 0.15829 0.23899 0.0
C2801 C 0.71666 0.15819 0.23355 0.0
C2802 C 0.70849 0.17163 0.22763 0.0
C2803 C 0.71833 0.18526 0.2272 0.0
C2804 C 0.73636 0.18549 0.23274 0.0
C2805 C 0.7446 0.17209 0.23866 0.0
H2806 H 0.71198 0.19565 0.22261 0.0
H2807 H 0.79309 0.06598 0.27993 0.0
H2808 H 0.73215 0.65709 0.32115 0.0
H2809 H 0.74396 0.65735 0.29142 0.0
H2810 H 0.72692 0.61056 0.28461 0.0
H2811 H 0.71549 0.61016 0.31447 0.0
H2812 H 0.75908 0.61391 0.27147 0.0
H2813 H 0.70339 0.64173 0.26654 0.0
H2814 H 0.68114 0.66175 0.27381 0.0
H2815 H 0.71986 0.69645 0.26051 0.0
H2816 H 0.74244 0.67663 0.25338 0.0
H2817 H 0.76607 0.6115 0.17934 0.0
H2818 H 0.75411 0.61178 0.20896 0.0
H2819 H 0.77702 0.65653 0.21711 0.0
H2820 H 0.78935 0.65625 0.18759 0.0
H2821 H 0.74203 0.65438 0.22936 0.0
H2822 H 0.79754 0.62584 0.23401 0.0
H2823 H 0.81906 0.6054 0.22625 0.0
H2824 H 0.77941 0.57145 0.23957 0.0
H2825 H 0.75755 0.5917 0.24717 0.0
C2826 C 0.73083 0.6469 0.31326 0.0
C2827 C 0.72286 0.63362 0.32013 0.0
C2828 C 0.73755 0.64706 0.29625 0.0
C2829 C 0.73611 0.63404 0.28562 0.0
C2830 C 0.72822 0.62075 0.29252 0.0
C2831 C 0.7217 0.62052 0.30959 0.0
C2832 C 0.74305 0.63418 0.26743 0.0
C2833 C 0.75512 0.62265 0.26222 0.0
C2834 C 0.73824 0.64575 0.25538 0.0
C2835 C 0.72466 0.65769 0.25959 0.0
C2836 C 0.7072 0.65363 0.26529 0.0
C2837 C 0.69452 0.66494 0.26936 0.0
C2838 C 0.6991 0.68036 0.26766 0.0
C2839 C 0.71634 0.6845 0.26184 0.0
C2840 C 0.72908 0.67323 0.25777 0.0
C2841 C 0.76874 0.62136 0.18746 0.0
C2842 C 0.7788 0.63382 0.18106 0.0
C2843 C 0.76182 0.62151 0.20439 0.0
C2844 C 0.76483 0.63411 0.21531 0.0
C2845 C 0.77453 0.6467 0.2089 0.0
C2846 C 0.78151 0.64653 0.19198 0.0
C2847 C 0.75795 0.6341 0.23348 0.0
C2848 C 0.74593 0.64565 0.23866 0.0
C2849 C 0.76268 0.62249 0.24546 0.0
C2850 C 0.77585 0.61029 0.241 0.0
C2851 C 0.79336 0.61402 0.23515 0.0
C2852 C 0.80563 0.60247 0.23081 0.0
C2853 C 0.80059 0.58714 0.23237 0.0
C2854 C 0.78329 0.58333 0.23834 0.0
C2855 C 0.77096 0.59484 0.24268 0.0
H2856 H 0.81011 0.57821 0.229 0.0
H2857 H 0.68926 0.6891 0.27083 0.0
H2858 H 0.73651 0.35107 0.68058 0.0
H2859 H 0.74847 0.3511 0.71022 0.0
H2860 H 0.72127 0.39381 0.72038 0.0
H2861 H 0.70942 0.39391 0.69065 0.0
H2862 H 0.75433 0.39457 0.73339 0.0
H2863 H 0.7048 0.35929 0.73593 0.0
H2864 H 0.68665 0.33697 0.72704 0.0
H2865 H 0.73157 0.30731 0.73791 0.0
H2866 H 0.75009 0.32948 0.74664 0.0
H2867 H 0.76258 0.39195 0.82569 0.0
H2868 H 0.75054 0.39235 0.79608 0.0
H2869 H 0.78047 0.3514 0.78399 0.0
H2870 H 0.79283 0.35104 0.81347 0.0
H2871 H 0.74567 0.3499 0.77223 0.0
H2872 H 0.79509 0.38564 0.76964 0.0
H2873 H 0.81276 0.40815 0.77883 0.0
H2874 H 0.76716 0.4372 0.76844 0.0
H2875 H 0.74913 0.41483 0.75942 0.0
C2876 C 0.73297 0.36041 0.68916 0.0
C2877 C 0.72194 0.37245 0.68328 0.0
C2878 C 0.73982 0.36042 0.70612 0.0
C2879 C 0.73556 0.37234 0.71766 0.0
C2880 C 0.72474 0.38448 0.71174 0.0
C2881 C 0.71801 0.38454 0.69473 0.0
C2882 C 0.74246 0.37218 0.73585 0.0
C2883 C 0.7522 0.38489 0.74195 0.0
C2884 C 0.74002 0.35944 0.74696 0.0
C2885 C 0.72889 0.34607 0.74179 0.0
C2886 C 0.71086 0.34802 0.7363 0.0
C2887 C 0.70049 0.33539 0.73131 0.0
C2888 C 0.70796 0.32073 0.73186 0.0
C2889 C 0.72581 0.31867 0.73746 0.0
C2890 C 0.73624 0.33126 0.74245 0.0
C2891 C 0.76678 0.38311 0.8167 0.0
C2892 C 0.77874 0.37148 0.822 0.0
C2893 C 0.75982 0.38333 0.79978 0.0
C2894 C 0.76472 0.37197 0.78777 0.0
C2895 C 0.77647 0.36026 0.79305 0.0
C2896 C 0.78347 0.36004 0.80995 0.0
C2897 C 0.75755 0.37226 0.76971 0.0
C2898 C 0.74776 0.35958 0.76365 0.0
C2899 C 0.75986 0.38506 0.75867 0.0
C2900 C 0.77071 0.39854 0.76402 0.0
C2901 C 0.78879 0.39681 0.76945 0.0
C2902 C 0.79888 0.40955 0.7746 0.0
C2903 C 0.79108 0.42409 0.77426 0.0
C2904 C 0.77318 0.42593 0.76872 0.0
C2905 C 0.76302 0.41323 0.76357 0.0
H2906 H 0.79891 0.43394 0.77826 0.0
H2907 H 0.69992 0.31097 0.72799 0.0
H2908 H 0.28157 0.39632 0.68676 0.0
H2909 H 0.26969 0.39604 0.71645 0.0
H2910 H 0.26372 0.34703 0.71367 0.0
H2911 H 0.27496 0.3474 0.68369 0.0
H2912 H 0.23596 0.358 0.72946 0.0
H2913 H 0.29975 0.3654 0.73608 0.0
H2914 H 0.32944 0.37758 0.73113 0.0
H2915 H 0.30921 0.41979 0.75192 0.0
H2916 H 0.27931 0.40793 0.75678 0.0
H2917 H 0.22802 0.34722 0.82137 0.0
H2918 H 0.24005 0.34696 0.79164 0.0
H2919 H 0.23616 0.39608 0.78954 0.0
H2920 H 0.22414 0.39643 0.81925 0.0
H2921 H 0.26927 0.38447 0.77673 0.0
H2922 H 0.20504 0.37593 0.76986 0.0
H2923 H 0.17615 0.36264 0.7754 0.0
H2924 H 0.19875 0.32085 0.7558 0.0
H2925 H 0.22788 0.33384 0.75037 0.0
C2926 C 0.27771 0.3855 0.69251 0.0
C2927 C 0.27926 0.37187 0.68297 0.0
C2928 C 0.271 0.38533 0.70952 0.0
C2929 C 0.26615 0.37147 0.71752 0.0
C2930 C 0.2674 0.35787 0.70786 0.0
C2931 C 0.27382 0.35808 0.69073 0.0
C2932 C 0.25972 0.37117 0.7359 0.0
C2933 C 0.24343 0.36361 0.73981 0.0
C2934 C 0.26925 0.37865 0.74947 0.0
C2935 C 0.28724 0.38581 0.74664 0.0
C2936 C 0.3016 0.37731 0.73948 0.0
C2937 C 0.31847 0.38415 0.73671 0.0
C2938 C 0.32119 0.39946 0.74117 0.0
C2939 C 0.30707 0.40794 0.74845 0.0
C2940 C 0.29016 0.40116 0.75124 0.0
C2941 C 0.22988 0.35797 0.81462 0.0
C2942 C 0.2251 0.37185 0.82262 0.0
C2943 C 0.23664 0.35779 0.79761 0.0
C2944 C 0.23887 0.3715 0.78835 0.0
C2945 C 0.2345 0.38538 0.79645 0.0
C2946 C 0.22755 0.38556 0.81337 0.0
C2947 C 0.24559 0.37136 0.77015 0.0
C2948 C 0.26191 0.37884 0.76633 0.0
C2949 C 0.23623 0.36362 0.75672 0.0
C2950 C 0.2187 0.35582 0.75988 0.0
C2951 C 0.2039 0.36388 0.76687 0.0
C2952 C 0.18747 0.3564 0.76996 0.0
C2953 C 0.18563 0.3409 0.766 0.0
C2954 C 0.20021 0.33285 0.75888 0.0
C2955 C 0.21667 0.34027 0.75579 0.0
H2956 H 0.1729 0.33513 0.7684 0.0
H2957 H 0.33426 0.40474 0.73901 0.0
H2958 H 0.25845 0.61874 0.32674 0.0
H2959 H 0.24643 0.61885 0.29727 0.0
H2960 H 0.2919 0.64592 0.28014 0.0
H2961 H 0.3033 0.64688 0.30986 0.0
H2962 H 0.26349 0.65608 0.26505 0.0
H2963 H 0.288 0.60601 0.27238 0.0
H2964 H 0.29263 0.581 0.28645 0.0
H2965 H 0.23623 0.57043 0.27986 0.0
H2966 H 0.23122 0.59548 0.26596 0.0
H2967 H 0.25252 0.63806 0.17432 0.0
H2968 H 0.26442 0.63907 0.20396 0.0
H2969 H 0.21295 0.62385 0.22391 0.0
H2970 H 0.20054 0.62358 0.19451 0.0
H2971 H 0.24481 0.60756 0.23691 0.0
H2972 H 0.22147 0.65868 0.22913 0.0
H2973 H 0.2186 0.68339 0.21398 0.0
H2974 H 0.27565 0.69132 0.22012 0.0
H2975 H 0.27891 0.66653 0.23508 0.0
C2976 C 0.2658 0.62494 0.31682 0.0
C2977 C 0.28195 0.63276 0.32082 0.0
C2978 C 0.25902 0.62478 0.29983 0.0
C2979 C 0.26842 0.63212 0.28631 0.0
C2980 C 0.28442 0.64008 0.29027 0.0
C2981 C 0.29107 0.64044 0.30731 0.0
C2982 C 0.26149 0.63164 0.2681 0.0
C2983 C 0.25967 0.64542 0.25886 0.0
C2984 C 0.25624 0.61778 0.25996 0.0
C2985 C 0.25921 0.60269 0.26828 0.0
C2986 C 0.27656 0.5984 0.27405 0.0
C2987 C 0.27926 0.58421 0.28197 0.0
C2988 C 0.26472 0.57415 0.28409 0.0
C2989 C 0.24747 0.57824 0.27824 0.0
C2990 C 0.2447 0.59243 0.27032 0.0
C2991 C 0.24357 0.63516 0.18497 0.0
C2992 C 0.2255 0.63071 0.18186 0.0
C2993 C 0.25048 0.63563 0.20192 0.0
C2994 C 0.23956 0.63152 0.21609 0.0
C2995 C 0.22163 0.62697 0.21311 0.0
C2996 C 0.21461 0.62672 0.19622 0.0
C2997 C 0.24684 0.63195 0.23407 0.0
C2998 C 0.24871 0.61817 0.24319 0.0
C2999 C 0.25243 0.64574 0.24197 0.0
C3000 C 0.25047 0.66067 0.23305 0.0
C3001 C 0.23344 0.66562 0.2271 0.0
C3002 C 0.23173 0.67966 0.21858 0.0
C3003 C 0.24694 0.6889 0.21604 0.0
C3004 C 0.26388 0.68414 0.22207 0.0
C3005 C 0.26567 0.6701 0.23058 0.0
H3006 H 0.24559 0.69976 0.20945 0.0
H3007 H 0.26684 0.56316 0.29023 0.0
loop_
_geom_bond_atom_site_label_1
_geom_bond_atom_site_label_2
_geom_bond_distance
_geom_bond_site_symmetry_2
_ccdc_geom_bond_type
Li0 N17 1.990 . S
Li0 O60 1.956 . S
Li0 O61 1.970 . S
Li0 O62 1.961 . S
Li1 N25 1.990 . S
Li1 O60 1.970 . S
Li1 O61 1.956 . S
Li1 O63 1.961 . S
Li2 N47 1.990 . S
Li2 O60 1.961 . S
Li2 O62 1.956 . S
Li2 O63 1.970 . S
Li3 N53 1.990 . S
Li3 O61 1.961 . S
Li3 O62 1.970 . S
Li3 O63 1.956 . S
C4 C6 1.348 . S
C4 C7 1.356 . S
C4 O60 1.325 . S
N5 C8 1.314 . S
N5 C9 1.279 . S
C6 C4 1.348 . S
C6 C8 1.353 . S
C6 H64 0.929 . S
C7 C4 1.356 . S
C7 C9 1.358 . S
C7 H65 0.930 . S
C8 N5 1.314 . S
C8 C6 1.353 . S
C8 H66 0.930 . S
C9 N5 1.279 . S
C9 C7 1.358 . S
C9 H67 0.930 . S
C10 C13 1.348 . S
C10 C14 1.356 . S
C10 O61 1.325 . S
C11 N12 1.279 . S
C11 C14 1.358 . S
C11 H68 0.930 . S
N12 C11 1.279 . S
N12 C15 1.314 . S
C13 C10 1.348 . S
C13 C15 1.353 . S
C13 H69 0.929 . S
C14 C10 1.356 . S
C14 C11 1.358 . S
C14 H70 0.930 . S
C15 N12 1.314 . S
C15 C13 1.353 . S
C15 H71 0.930 . S
C16 N17 1.314 . S
C16 C21 1.353 . S
C16 H22 0.930 . S
N17 Li0 1.990 . S
N17 C16 1.314 . S
N17 C19 1.279 . S
C18 C19 1.358 . S
C18 C20 1.356 . S
C18 H72 0.930 . S
C19 N17 1.279 . S
C19 C18 1.358 . S
C19 H23 0.930 . S
C20 C18 1.356 . S
C20 C21 1.348 . S
C21 C16 1.353 . S
C21 C20 1.348 . S
C21 H73 0.929 . S
H22 C16 0.930 . S
H23 C19 0.930 . S
C24 N25 1.314 . S
C24 C26 1.353 . S
C24 H30 0.930 . S
N25 Li1 1.990 . S
N25 C24 1.314 . S
N25 C28 1.279 . S
C26 C24 1.353 . S
C26 C29 1.348 . S
C26 H74 0.929 . S
C27 C28 1.358 . S
C27 C29 1.356 . S
C27 H75 0.930 . S
C28 N25 1.279 . S
C28 C27 1.358 . S
C28 H31 0.930 . S
C29 C26 1.348 . S
C29 C27 1.356 . S
H30 C24 0.930 . S
H31 C28 0.930 . S
C32 C34 1.348 . S
C32 C35 1.356 . S
C32 O62 1.325 . S
N33 C36 1.314 . S
N33 C37 1.279 . S
C34 C32 1.348 . S
C34 C36 1.353 . S
C34 H76 0.929 . S
C35 C32 1.356 . S
C35 C37 1.358 . S
C35 H77 0.930 . S
C36 N33 1.314 . S
C36 C34 1.353 . S
C36 H78 0.930 . S
C37 N33 1.279 . S
C37 C35 1.358 . S
C37 H79 0.930 . S
C38 C39 1.348 . S
C38 C40 1.356 . S
C38 O63 1.325 . S
C39 C38 1.348 . S
C39 C41 1.353 . S
C39 H80 0.929 . S
C40 C38 1.356 . S
C40 C42 1.358 . S
C40 H81 0.930 . S
C41 C39 1.353 . S
C41 N43 1.314 . S
C41 H82 0.930 . S
C42 C40 1.358 . S
C42 N43 1.279 . S
C42 H83 0.930 . S
N43 C41 1.314 . S
N43 C42 1.279 . S
C44 C46 1.353 . S
C44 N47 1.314 . S
C44 H50 0.930 . S
C45 N47 1.279 . S
C45 C48 1.358 . S
C45 H51 0.930 . S
C46 C44 1.353 . S
C46 C49 1.348 . S
C46 H84 0.929 . S
N47 Li2 1.990 . S
N47 C44 1.314 . S
N47 C45 1.279 . S
C48 C45 1.358 . S
C48 C49 1.356 . S
C48 H85 0.930 . S
C49 C46 1.348 . S
C49 C48 1.356 . S
H50 C44 0.930 . S
H51 C45 0.930 . S
C52 N53 1.314 . S
C52 C54 1.353 . S
C52 H58 0.930 . S
N53 Li3 1.990 . S
N53 C52 1.314 . S
N53 C56 1.279 . S
C54 C52 1.353 . S
C54 C57 1.348 . S
C54 H86 0.929 . S
C55 C56 1.358 . S
C55 C57 1.356 . S
C55 H87 0.930 . S
C56 N53 1.279 . S
C56 C55 1.358 . S
C56 H59 0.930 . S
C57 C54 1.348 . S
C57 C55 1.356 . S
H58 C52 0.930 . S
H59 C56 0.930 . S
O60 Li0 1.956 . S
O60 Li1 1.970 . S
O60 Li2 1.961 . S
O60 C4 1.325 . S
O61 Li0 1.970 . S
O61 Li1 1.956 . S
O61 Li3 1.961 . S
O61 C10 1.325 . S
O62 Li0 1.961 . S
O62 Li2 1.956 . S
O62 Li3 1.970 . S
O62 C32 1.325 . S
O63 Li1 1.961 . S
O63 Li2 1.970 . S
O63 Li3 1.956 . S
O63 C38 1.325 . S
H64 C6 0.929 . S
H65 C7 0.930 . S
H66 C8 0.930 . S
H67 C9 0.930 . S
H68 C11 0.930 . S
H69 C13 0.929 . S
H70 C14 0.930 . S
H71 C15 0.930 . S
H72 C18 0.930 . S
H73 C21 0.929 . S
H74 C26 0.929 . S
H75 C27 0.930 . S
H76 C34 0.929 . S
H77 C35 0.930 . S
H78 C36 0.930 . S
H79 C37 0.930 . S
H80 C39 0.929 . S
H81 C40 0.930 . S
H82 C41 0.930 . S
H83 C42 0.930 . S
H84 C46 0.929 . S
H85 C48 0.930 . S
H86 C54 0.929 . S
H87 C55 0.930 . S
Li88 N105 1.990 . S
Li88 O148 1.956 . S
Li88 O149 1.970 . S
Li88 O150 1.961 . S
Li89 N113 1.990 . S
Li89 O148 1.970 . S
Li89 O149 1.956 . S
Li89 O151 1.961 . S
Li90 N135 1.990 . S
Li90 O148 1.961 . S
Li90 O150 1.956 . S
Li90 O151 1.970 . S
Li91 N141 1.990 . S
Li91 O149 1.961 . S
Li91 O150 1.970 . S
Li91 O151 1.956 . S
C92 C94 1.348 . S
C92 C95 1.356 . S
C92 O148 1.325 . S
N93 C96 1.314 . S
N93 C97 1.279 . S
C94 C92 1.348 . S
C94 C96 1.353 . S
C94 H152 0.929 . S
C95 C92 1.356 . S
C95 C97 1.358 . S
C95 H153 0.930 . S
C96 N93 1.314 . S
C96 C94 1.353 . S
C96 H154 0.930 . S
C97 N93 1.279 . S
C97 C95 1.358 . S
C97 H155 0.930 . S
C98 C101 1.348 . S
C98 C102 1.356 . S
C98 O149 1.325 . S
C99 N100 1.279 . S
C99 C102 1.358 . S
C99 H156 0.930 . S
N100 C99 1.279 . S
N100 C103 1.314 . S
C101 C98 1.348 . S
C101 C103 1.353 . S
C101 H157 0.929 . S
C102 C98 1.356 . S
C102 C99 1.358 . S
C102 H158 0.930 . S
C103 N100 1.314 . S
C103 C101 1.353 . S
C103 H159 0.930 . S
C104 N105 1.314 . S
C104 C109 1.353 . S
C104 H110 0.930 . S
N105 Li88 1.990 . S
N105 C104 1.314 . S
N105 C107 1.279 . S
C106 C107 1.358 . S
C106 C108 1.356 . S
C106 H160 0.930 . S
C107 N105 1.279 . S
C107 C106 1.358 . S
C107 H111 0.930 . S
C108 C106 1.356 . S
C108 C109 1.348 . S
C109 C104 1.353 . S
C109 C108 1.348 . S
C109 H161 0.929 . S
H110 C104 0.930 . S
H111 C107 0.930 . S
C112 N113 1.314 . S
C112 C114 1.353 . S
C112 H118 0.930 . S
N113 Li89 1.990 . S
N113 C112 1.314 . S
N113 C116 1.279 . S
C114 C112 1.353 . S
C114 C117 1.348 . S
C114 H162 0.929 . S
C115 C116 1.358 . S
C115 C117 1.356 . S
C115 H163 0.930 . S
C116 N113 1.279 . S
C116 C115 1.358 . S
C116 H119 0.930 . S
C117 C114 1.348 . S
C117 C115 1.356 . S
H118 C112 0.930 . S
H119 C116 0.930 . S
C120 C122 1.348 . S
C120 C123 1.356 . S
C120 O150 1.325 . S
N121 C124 1.314 . S
N121 C125 1.279 . S
C122 C120 1.348 . S
C122 C124 1.353 . S
C122 H164 0.929 . S
C123 C120 1.356 . S
C123 C125 1.358 . S
C123 H165 0.930 . S
C124 N121 1.314 . S
C124 C122 1.353 . S
C124 H166 0.930 . S
C125 N121 1.279 . S
C125 C123 1.358 . S
C125 H167 0.930 . S
C126 C127 1.348 . S
C126 C128 1.356 . S
C126 O151 1.325 . S
C127 C126 1.348 . S
C127 C129 1.353 . S
C127 H168 0.929 . S
C128 C126 1.356 . S
C128 C130 1.358 . S
C128 H169 0.930 . S
C129 C127 1.353 . S
C129 N131 1.314 . S
C129 H170 0.930 . S
C130 C128 1.358 . S
C130 N131 1.279 . S
C130 H171 0.930 . S
N131 C129 1.314 . S
N131 C130 1.279 . S
C132 C134 1.353 . S
C132 N135 1.314 . S
C132 H138 0.930 . S
C133 N135 1.279 . S
C133 C136 1.358 . S
C133 H139 0.930 . S
C134 C132 1.353 . S
C134 C137 1.348 . S
C134 H172 0.929 . S
N135 Li90 1.990 . S
N135 C132 1.314 . S
N135 C133 1.279 . S
C136 C133 1.358 . S
C136 C137 1.356 . S
C136 H173 0.930 . S
C137 C134 1.348 . S
C137 C136 1.356 . S
H138 C132 0.930 . S
H139 C133 0.930 . S
C140 N141 1.314 . S
C140 C142 1.353 . S
C140 H146 0.930 . S
N141 Li91 1.990 . S
N141 C140 1.314 . S
N141 C144 1.279 . S
C142 C140 1.353 . S
C142 C145 1.348 . S
C142 H174 0.929 . S
C143 C144 1.358 . S
C143 C145 1.356 . S
C143 H175 0.930 . S
C144 N141 1.279 . S
C144 C143 1.358 . S
C144 H147 0.930 . S
C145 C142 1.348 . S
C145 C143 1.356 . S
H146 C140 0.930 . S
H147 C144 0.930 . S
O148 Li88 1.956 . S
O148 Li89 1.970 . S
O148 Li90 1.961 . S
O148 C92 1.325 . S
O149 Li88 1.970 . S
O149 Li89 1.956 . S
O149 Li91 1.961 . S
O149 C98 1.325 . S
O150 Li88 1.961 . S
O150 Li90 1.956 . S
O150 Li91 1.970 . S
O150 C120 1.325 . S
O151 Li89 1.961 . S
O151 Li90 1.970 . S
O151 Li91 1.956 . S
O151 C126 1.325 . S
H152 C94 0.929 . S
H153 C95 0.930 . S
H154 C96 0.930 . S
H155 C97 0.930 . S
H156 C99 0.930 . S
H157 C101 0.929 . S
H158 C102 0.930 . S
H159 C103 0.930 . S
H160 C106 0.930 . S
H161 C109 0.929 . S
H162 C114 0.929 . S
H163 C115 0.930 . S
H164 C122 0.929 . S
H165 C123 0.930 . S
H166 C124 0.930 . S
H167 C125 0.930 . S
H168 C127 0.929 . S
H169 C128 0.930 . S
H170 C129 0.930 . S
H171 C130 0.930 . S
H172 C134 0.929 . S
H173 C136 0.930 . S
H174 C142 0.929 . S
H175 C143 0.930 . S
Li176 N193 1.990 . S
Li176 O236 1.956 . S
Li176 O237 1.970 . S
Li176 O238 1.961 . S
Li177 N201 1.990 . S
Li177 O236 1.970 . S
Li177 O237 1.956 . S
Li177 O239 1.961 . S
Li178 N223 1.990 . S
Li178 O236 1.961 . S
Li178 O238 1.956 . S
Li178 O239 1.970 . S
Li179 N229 1.990 . S
Li179 O237 1.961 . S
Li179 O238 1.970 . S
Li179 O239 1.956 . S
C180 C182 1.348 . S
C180 C183 1.356 . S
C180 O236 1.325 . S
N181 C184 1.314 . S
N181 C185 1.279 . S
C182 C180 1.348 . S
C182 C184 1.353 . S
C182 H240 0.929 . S
C183 C180 1.356 . S
C183 C185 1.358 . S
C183 H241 0.930 . S
C184 N181 1.314 . S
C184 C182 1.353 . S
C184 H242 0.930 . S
C185 N181 1.279 . S
C185 C183 1.358 . S
C185 H243 0.930 . S
C186 C189 1.348 . S
C186 C190 1.356 . S
C186 O237 1.325 . S
C187 N188 1.279 . S
C187 C190 1.358 . S
C187 H244 0.930 . S
N188 C187 1.279 . S
N188 C191 1.314 . S
C189 C186 1.348 . S
C189 C191 1.353 . S
C189 H245 0.929 . S
C190 C186 1.356 . S
C190 C187 1.358 . S
C190 H246 0.930 . S
C191 N188 1.314 . S
C191 C189 1.353 . S
C191 H247 0.930 . S
C192 N193 1.314 . S
C192 C197 1.353 . S
C192 H198 0.930 . S
N193 Li176 1.990 . S
N193 C192 1.314 . S
N193 C195 1.279 . S
C194 C195 1.358 . S
C194 C196 1.356 . S
C194 H248 0.930 . S
C195 N193 1.279 . S
C195 C194 1.358 . S
C195 H199 0.930 . S
C196 C194 1.356 . S
C196 C197 1.348 . S
C197 C192 1.353 . S
C197 C196 1.348 . S
C197 H249 0.929 . S
H198 C192 0.930 . S
H199 C195 0.930 . S
C200 N201 1.314 . S
C200 C202 1.353 . S
C200 H206 0.930 . S
N201 Li177 1.990 . S
N201 C200 1.314 . S
N201 C204 1.279 . S
C202 C200 1.353 . S
C202 C205 1.348 . S
C202 H250 0.929 . S
C203 C204 1.358 . S
C203 C205 1.356 . S
C203 H251 0.930 . S
C204 N201 1.279 . S
C204 C203 1.358 . S
C204 H207 0.930 . S
C205 C202 1.348 . S
C205 C203 1.356 . S
H206 C200 0.930 . S
H207 C204 0.930 . S
C208 C210 1.348 . S
C208 C211 1.356 . S
C208 O238 1.325 . S
N209 C212 1.314 . S
N209 C213 1.279 . S
C210 C208 1.348 . S
C210 C212 1.353 . S
C210 H252 0.929 . S
C211 C208 1.356 . S
C211 C213 1.358 . S
C211 H253 0.930 . S
C212 N209 1.314 . S
C212 C210 1.353 . S
C212 H254 0.930 . S
C213 N209 1.279 . S
C213 C211 1.358 . S
C213 H255 0.930 . S
C214 C215 1.348 . S
C214 C216 1.356 . S
C214 O239 1.325 . S
C215 C214 1.348 . S
C215 C217 1.353 . S
C215 H256 0.929 . S
C216 C214 1.356 . S
C216 C218 1.358 . S
C216 H257 0.930 . S
C217 C215 1.353 . S
C217 N219 1.314 . S
C217 H258 0.930 . S
C218 C216 1.358 . S
C218 N219 1.279 . S
C218 H259 0.930 . S
N219 C217 1.314 . S
N219 C218 1.279 . S
C220 C222 1.353 . S
C220 N223 1.314 . S
C220 H226 0.930 . S
C221 N223 1.279 . S
C221 C224 1.358 . S
C221 H227 0.930 . S
C222 C220 1.353 . S
C222 C225 1.348 . S
C222 H260 0.929 . S
N223 Li178 1.990 . S
N223 C220 1.314 . S
N223 C221 1.279 . S
C224 C221 1.358 . S
C224 C225 1.356 . S
C224 H261 0.930 . S
C225 C222 1.348 . S
C225 C224 1.356 . S
H226 C220 0.930 . S
H227 C221 0.930 . S
C228 N229 1.314 . S
C228 C230 1.353 . S
C228 H234 0.930 . S
N229 Li179 1.990 . S
N229 C228 1.314 . S
N229 C232 1.279 . S
C230 C228 1.353 . S
C230 C233 1.348 . S
C230 H262 0.929 . S
C231 C232 1.358 . S
C231 C233 1.356 . S
C231 H263 0.930 . S
C232 N229 1.279 . S
C232 C231 1.358 . S
C232 H235 0.930 . S
C233 C230 1.348 . S
C233 C231 1.356 . S
H234 C228 0.930 . S
H235 C232 0.930 . S
O236 Li176 1.956 . S
O236 Li177 1.970 . S
O236 Li178 1.961 . S
O236 C180 1.325 . S
O237 Li176 1.970 . S
O237 Li177 1.956 . S
O237 Li179 1.961 . S
O237 C186 1.325 . S
O238 Li176 1.961 . S
O238 Li178 1.956 . S
O238 Li179 1.970 . S
O238 C208 1.325 . S
O239 Li177 1.961 . S
O239 Li178 1.970 . S
O239 Li179 1.956 . S
O239 C214 1.325 . S
H240 C182 0.929 . S
H241 C183 0.930 . S
H242 C184 0.930 . S
H243 C185 0.930 . S
H244 C187 0.930 . S
H245 C189 0.929 . S
H246 C190 0.930 . S
H247 C191 0.930 . S
H248 C194 0.930 . S
H249 C197 0.929 . S
H250 C202 0.929 . S
H251 C203 0.930 . S
H252 C210 0.929 . S
H253 C211 0.930 . S
H254 C212 0.930 . S
H255 C213 0.930 . S
H256 C215 0.929 . S
H257 C216 0.930 . S
H258 C217 0.930 . S
H259 C218 0.930 . S
H260 C222 0.929 . S
H261 C224 0.930 . S
H262 C230 0.929 . S
H263 C231 0.930 . S
Li264 N281 1.990 . S
Li264 O324 1.956 . S
Li264 O325 1.970 . S
Li264 O326 1.961 . S
Li265 N289 1.990 . S
Li265 O324 1.970 . S
Li265 O325 1.956 . S
Li265 O327 1.961 . S
Li266 N311 1.990 . S
Li266 O324 1.961 . S
Li266 O326 1.956 . S
Li266 O327 1.970 . S
Li267 N317 1.990 . S
Li267 O325 1.961 . S
Li267 O326 1.970 . S
Li267 O327 1.956 . S
C268 C270 1.348 . S
C268 C271 1.356 . S
C268 O324 1.325 . S
N269 C272 1.314 . S
N269 C273 1.279 . S
C270 C268 1.348 . S
C270 C272 1.353 . S
C270 H328 0.929 . S
C271 C268 1.356 . S
C271 C273 1.358 . S
C271 H329 0.930 . S
C272 N269 1.314 . S
C272 C270 1.353 . S
C272 H330 0.930 . S
C273 N269 1.279 . S
C273 C271 1.358 . S
C273 H331 0.930 . S
C274 C277 1.348 . S
C274 C278 1.356 . S
C274 O325 1.325 . S
C275 N276 1.279 . S
C275 C278 1.358 . S
C275 H332 0.930 . S
N276 C275 1.279 . S
N276 C279 1.314 . S
C277 C274 1.348 . S
C277 C279 1.353 . S
C277 H333 0.929 . S
C278 C274 1.356 . S
C278 C275 1.358 . S
C278 H334 0.930 . S
C279 N276 1.314 . S
C279 C277 1.353 . S
C279 H335 0.930 . S
C280 N281 1.314 . S
C280 C285 1.353 . S
C280 H286 0.930 . S
N281 Li264 1.990 . S
N281 C280 1.314 . S
N281 C283 1.279 . S
C282 C283 1.358 . S
C282 C284 1.356 . S
C282 H336 0.930 . S
C283 N281 1.279 . S
C283 C282 1.358 . S
C283 H287 0.930 . S
C284 C282 1.356 . S
C284 C285 1.348 . S
C285 C280 1.353 . S
C285 C284 1.348 . S
C285 H337 0.929 . S
H286 C280 0.930 . S
H287 C283 0.930 . S
C288 N289 1.314 . S
C288 C290 1.353 . S
C288 H294 0.930 . S
N289 Li265 1.990 . S
N289 C288 1.314 . S
N289 C292 1.279 . S
C290 C288 1.353 . S
C290 C293 1.348 . S
C290 H338 0.929 . S
C291 C292 1.358 . S
C291 C293 1.356 . S
C291 H339 0.930 . S
C292 N289 1.279 . S
C292 C291 1.358 . S
C292 H295 0.930 . S
C293 C290 1.348 . S
C293 C291 1.356 . S
H294 C288 0.930 . S
H295 C292 0.930 . S
C296 C298 1.348 . S
C296 C299 1.356 . S
C296 O326 1.325 . S
N297 C300 1.314 . S
N297 C301 1.279 . S
C298 C296 1.348 . S
C298 C300 1.353 . S
C298 H340 0.929 . S
C299 C296 1.356 . S
C299 C301 1.358 . S
C299 H341 0.930 . S
C300 N297 1.314 . S
C300 C298 1.353 . S
C300 H342 0.930 . S
C301 N297 1.279 . S
C301 C299 1.358 . S
C301 H343 0.930 . S
C302 C303 1.348 . S
C302 C304 1.356 . S
C302 O327 1.325 . S
C303 C302 1.348 . S
C303 C305 1.353 . S
C303 H344 0.929 . S
C304 C302 1.356 . S
C304 C306 1.358 . S
C304 H345 0.930 . S
C305 C303 1.353 . S
C305 N307 1.314 . S
C305 H346 0.930 . S
C306 C304 1.358 . S
C306 N307 1.279 . S
C306 H347 0.930 . S
N307 C305 1.314 . S
N307 C306 1.279 . S
C308 C310 1.353 . S
C308 N311 1.314 . S
C308 H314 0.930 . S
C309 N311 1.279 . S
C309 C312 1.358 . S
C309 H315 0.930 . S
C310 C308 1.353 . S
C310 C313 1.348 . S
C310 H348 0.929 . S
N311 Li266 1.990 . S
N311 C308 1.314 . S
N311 C309 1.279 . S
C312 C309 1.358 . S
C312 C313 1.356 . S
C312 H349 0.930 . S
C313 C310 1.348 . S
C313 C312 1.356 . S
H314 C308 0.930 . S
H315 C309 0.930 . S
C316 N317 1.314 . S
C316 C318 1.353 . S
C316 H322 0.930 . S
N317 Li267 1.990 . S
N317 C316 1.314 . S
N317 C320 1.279 . S
C318 C316 1.353 . S
C318 C321 1.348 . S
C318 H350 0.929 . S
C319 C320 1.358 . S
C319 C321 1.356 . S
C319 H351 0.930 . S
C320 N317 1.279 . S
C320 C319 1.358 . S
C320 H323 0.930 . S
C321 C318 1.348 . S
C321 C319 1.356 . S
H322 C316 0.930 . S
H323 C320 0.930 . S
O324 Li264 1.956 . S
O324 Li265 1.970 . S
O324 Li266 1.961 . S
O324 C268 1.325 . S
O325 Li264 1.970 . S
O325 Li265 1.956 . S
O325 Li267 1.961 . S
O325 C274 1.325 . S
O326 Li264 1.961 . S
O326 Li266 1.956 . S
O326 Li267 1.970 . S
O326 C296 1.325 . S
O327 Li265 1.961 . S
O327 Li266 1.970 . S
O327 Li267 1.956 . S
O327 C302 1.325 . S
H328 C270 0.929 . S
H329 C271 0.930 . S
H330 C272 0.930 . S
H331 C273 0.930 . S
H332 C275 0.930 . S
H333 C277 0.929 . S
H334 C278 0.930 . S
H335 C279 0.930 . S
H336 C282 0.930 . S
H337 C285 0.929 . S
H338 C290 0.929 . S
H339 C291 0.930 . S
H340 C298 0.929 . S
H341 C299 0.930 . S
H342 C300 0.930 . S
H343 C301 0.930 . S
H344 C303 0.929 . S
H345 C304 0.930 . S
H346 C305 0.930 . S
H347 C306 0.930 . S
H348 C310 0.929 . S
H349 C312 0.930 . S
H350 C318 0.929 . S
H351 C319 0.930 . S
Li352 N369 1.990 . S
Li352 O412 1.956 . S
Li352 O413 1.970 . S
Li352 O414 1.961 . S
Li353 N377 1.990 . S
Li353 O412 1.970 . S
Li353 O413 1.956 . S
Li353 O415 1.961 . S
Li354 N399 1.990 . S
Li354 O412 1.961 . S
Li354 O414 1.956 . S
Li354 O415 1.970 . S
Li355 N405 1.990 . S
Li355 O413 1.961 . S
Li355 O414 1.970 . S
Li355 O415 1.956 . S
C356 C358 1.348 . S
C356 C359 1.356 . S
C356 O412 1.325 . S
N357 C360 1.314 . S
N357 C361 1.279 . S
C358 C356 1.348 . S
C358 C360 1.353 . S
C358 H416 0.929 . S
C359 C356 1.356 . S
C359 C361 1.358 . S
C359 H417 0.930 . S
C360 N357 1.314 . S
C360 C358 1.353 . S
C360 H418 0.930 . S
C361 N357 1.279 . S
C361 C359 1.358 . S
C361 H419 0.930 . S
C362 C365 1.348 . S
C362 C366 1.356 . S
C362 O413 1.325 . S
C363 N364 1.279 . S
C363 C366 1.358 . S
C363 H420 0.930 . S
N364 C363 1.279 . S
N364 C367 1.314 . S
C365 C362 1.348 . S
C365 C367 1.353 . S
C365 H421 0.929 . S
C366 C362 1.356 . S
C366 C363 1.358 . S
C366 H422 0.930 . S
C367 N364 1.314 . S
C367 C365 1.353 . S
C367 H423 0.930 . S
C368 N369 1.314 . S
C368 C373 1.353 . S
C368 H374 0.930 . S
N369 Li352 1.990 . S
N369 C368 1.314 . S
N369 C371 1.279 . S
C370 C371 1.358 . S
C370 C372 1.356 . S
C370 H424 0.930 . S
C371 N369 1.279 . S
C371 C370 1.358 . S
C371 H375 0.930 . S
C372 C370 1.356 . S
C372 C373 1.348 . S
C373 C368 1.353 . S
C373 C372 1.348 . S
C373 H425 0.929 . S
H374 C368 0.930 . S
H375 C371 0.930 . S
C376 N377 1.314 . S
C376 C378 1.353 . S
C376 H382 0.930 . S
N377 Li353 1.990 . S
N377 C376 1.314 . S
N377 C380 1.279 . S
C378 C376 1.353 . S
C378 C381 1.348 . S
C378 H426 0.929 . S
C379 C380 1.358 . S
C379 C381 1.356 . S
C379 H427 0.930 . S
C380 N377 1.279 . S
C380 C379 1.358 . S
C380 H383 0.930 . S
C381 C378 1.348 . S
C381 C379 1.356 . S
H382 C376 0.930 . S
H383 C380 0.930 . S
C384 C386 1.348 . S
C384 C387 1.356 . S
C384 O414 1.325 . S
N385 C388 1.314 . S
N385 C389 1.279 . S
C386 C384 1.348 . S
C386 C388 1.353 . S
C386 H428 0.929 . S
C387 C384 1.356 . S
C387 C389 1.358 . S
C387 H429 0.930 . S
C388 N385 1.314 . S
C388 C386 1.353 . S
C388 H430 0.930 . S
C389 N385 1.279 . S
C389 C387 1.358 . S
C389 H431 0.930 . S
C390 C391 1.348 . S
C390 C392 1.356 . S
C390 O415 1.325 . S
C391 C390 1.348 . S
C391 C393 1.353 . S
C391 H432 0.929 . S
C392 C390 1.356 . S
C392 C394 1.358 . S
C392 H433 0.930 . S
C393 C391 1.353 . S
C393 N395 1.314 . S
C393 H434 0.930 . S
C394 C392 1.358 . S
C394 N395 1.279 . S
C394 H435 0.930 . S
N395 C393 1.314 . S
N395 C394 1.279 . S
C396 C398 1.353 . S
C396 N399 1.314 . S
C396 H402 0.930 . S
C397 N399 1.279 . S
C397 C400 1.358 . S
C397 H403 0.930 . S
C398 C396 1.353 . S
C398 C401 1.348 . S
C398 H436 0.929 . S
N399 Li354 1.990 . S
N399 C396 1.314 . S
N399 C397 1.279 . S
C400 C397 1.358 . S
C400 C401 1.356 . S
C400 H437 0.930 . S
C401 C398 1.348 . S
C401 C400 1.356 . S
H402 C396 0.930 . S
H403 C397 0.930 . S
C404 N405 1.314 . S
C404 C406 1.353 . S
C404 H410 0.930 . S
N405 Li355 1.990 . S
N405 C404 1.314 . S
N405 C408 1.279 . S
C406 C404 1.353 . S
C406 C409 1.348 . S
C406 H438 0.929 . S
C407 C408 1.358 . S
C407 C409 1.356 . S
C407 H439 0.930 . S
C408 N405 1.279 . S
C408 C407 1.358 . S
C408 H411 0.930 . S
C409 C406 1.348 . S
C409 C407 1.356 . S
H410 C404 0.930 . S
H411 C408 0.930 . S
O412 Li352 1.956 . S
O412 Li353 1.970 . S
O412 Li354 1.961 . S
O412 C356 1.325 . S
O413 Li352 1.970 . S
O413 Li353 1.956 . S
O413 Li355 1.961 . S
O413 C362 1.325 . S
O414 Li352 1.961 . S
O414 Li354 1.956 . S
O414 Li355 1.970 . S
O414 C384 1.325 . S
O415 Li353 1.961 . S
O415 Li354 1.970 . S
O415 Li355 1.956 . S
O415 C390 1.325 . S
H416 C358 0.929 . S
H417 C359 0.930 . S
H418 C360 0.930 . S
H419 C361 0.930 . S
H420 C363 0.930 . S
H421 C365 0.929 . S
H422 C366 0.930 . S
H423 C367 0.930 . S
H424 C370 0.930 . S
H425 C373 0.929 . S
H426 C378 0.929 . S
H427 C379 0.930 . S
H428 C386 0.929 . S
H429 C387 0.930 . S
H430 C388 0.930 . S
H431 C389 0.930 . S
H432 C391 0.929 . S
H433 C392 0.930 . S
H434 C393 0.930 . S
H435 C394 0.930 . S
H436 C398 0.929 . S
H437 C400 0.930 . S
H438 C406 0.929 . S
H439 C407 0.930 . S
Li440 N457 1.990 . S
Li440 O500 1.956 . S
Li440 O501 1.970 . S
Li440 O502 1.961 . S
Li441 N465 1.990 . S
Li441 O500 1.970 . S
Li441 O501 1.956 . S
Li441 O503 1.961 . S
Li442 N487 1.990 . S
Li442 O500 1.961 . S
Li442 O502 1.956 . S
Li442 O503 1.970 . S
Li443 N493 1.990 . S
Li443 O501 1.961 . S
Li443 O502 1.970 . S
Li443 O503 1.956 . S
C444 C446 1.348 . S
C444 C447 1.356 . S
C444 O500 1.325 . S
N445 C448 1.314 . S
N445 C449 1.279 . S
C446 C444 1.348 . S
C446 C448 1.353 . S
C446 H504 0.929 . S
C447 C444 1.356 . S
C447 C449 1.358 . S
C447 H505 0.930 . S
C448 N445 1.314 . S
C448 C446 1.353 . S
C448 H506 0.930 . S
C449 N445 1.279 . S
C449 C447 1.358 . S
C449 H507 0.930 . S
C450 C453 1.348 . S
C450 C454 1.356 . S
C450 O501 1.325 . S
C451 N452 1.279 . S
C451 C454 1.358 . S
C451 H508 0.930 . S
N452 C451 1.279 . S
N452 C455 1.314 . S
C453 C450 1.348 . S
C453 C455 1.353 . S
C453 H509 0.929 . S
C454 C450 1.356 . S
C454 C451 1.358 . S
C454 H510 0.930 . S
C455 N452 1.314 . S
C455 C453 1.353 . S
C455 H511 0.930 . S
C456 N457 1.314 . S
C456 C461 1.353 . S
C456 H462 0.930 . S
N457 Li440 1.990 . S
N457 C456 1.314 . S
N457 C459 1.279 . S
C458 C459 1.358 . S
C458 C460 1.356 . S
C458 H512 0.930 . S
C459 N457 1.279 . S
C459 C458 1.358 . S
C459 H463 0.930 . S
C460 C458 1.356 . S
C460 C461 1.348 . S
C461 C456 1.353 . S
C461 C460 1.348 . S
C461 H513 0.929 . S
H462 C456 0.930 . S
H463 C459 0.930 . S
C464 N465 1.314 . S
C464 C466 1.353 . S
C464 H470 0.930 . S
N465 Li441 1.990 . S
N465 C464 1.314 . S
N465 C468 1.279 . S
C466 C464 1.353 . S
C466 C469 1.348 . S
C466 H514 0.929 . S
C467 C468 1.358 . S
C467 C469 1.356 . S
C467 H515 0.930 . S
C468 N465 1.279 . S
C468 C467 1.358 . S
C468 H471 0.930 . S
C469 C466 1.348 . S
C469 C467 1.356 . S
H470 C464 0.930 . S
H471 C468 0.930 . S
C472 C474 1.348 . S
C472 C475 1.356 . S
C472 O502 1.325 . S
N473 C476 1.314 . S
N473 C477 1.279 . S
C474 C472 1.348 . S
C474 C476 1.353 . S
C474 H516 0.929 . S
C475 C472 1.356 . S
C475 C477 1.358 . S
C475 H517 0.930 . S
C476 N473 1.314 . S
C476 C474 1.353 . S
C476 H518 0.930 . S
C477 N473 1.279 . S
C477 C475 1.358 . S
C477 H519 0.930 . S
C478 C479 1.348 . S
C478 C480 1.356 . S
C478 O503 1.325 . S
C479 C478 1.348 . S
C479 C481 1.353 . S
C479 H520 0.929 . S
C480 C478 1.356 . S
C480 C482 1.358 . S
C480 H521 0.930 . S
C481 C479 1.353 . S
C481 N483 1.314 . S
C481 H522 0.930 . S
C482 C480 1.358 . S
C482 N483 1.279 . S
C482 H523 0.930 . S
N483 C481 1.314 . S
N483 C482 1.279 . S
C484 C486 1.353 . S
C484 N487 1.314 . S
C484 H490 0.930 . S
C485 N487 1.279 . S
C485 C488 1.358 . S
C485 H491 0.930 . S
C486 C484 1.353 . S
C486 C489 1.348 . S
C486 H524 0.929 . S
N487 Li442 1.990 . S
N487 C484 1.314 . S
N487 C485 1.279 . S
C488 C485 1.358 . S
C488 C489 1.356 . S
C488 H525 0.930 . S
C489 C486 1.348 . S
C489 C488 1.356 . S
H490 C484 0.930 . S
H491 C485 0.930 . S
C492 N493 1.314 . S
C492 C494 1.353 . S
C492 H498 0.930 . S
N493 Li443 1.990 . S
N493 C492 1.314 . S
N493 C496 1.279 . S
C494 C492 1.353 . S
C494 C497 1.348 . S
C494 H526 0.929 . S
C495 C496 1.358 . S
C495 C497 1.356 . S
C495 H527 0.930 . S
C496 N493 1.279 . S
C496 C495 1.358 . S
C496 H499 0.930 . S
C497 C494 1.348 . S
C497 C495 1.356 . S
H498 C492 0.930 . S
H499 C496 0.930 . S
O500 Li440 1.956 . S
O500 Li441 1.970 . S
O500 Li442 1.961 . S
O500 C444 1.325 . S
O501 Li440 1.970 . S
O501 Li441 1.956 . S
O501 Li443 1.961 . S
O501 C450 1.325 . S
O502 Li440 1.961 . S
O502 Li442 1.956 . S
O502 Li443 1.970 . S
O502 C472 1.325 . S
O503 Li441 1.961 . S
O503 Li442 1.970 . S
O503 Li443 1.956 . S
O503 C478 1.325 . S
H504 C446 0.929 . S
H505 C447 0.930 . S
H506 C448 0.930 . S
H507 C449 0.930 . S
H508 C451 0.930 . S
H509 C453 0.929 . S
H510 C454 0.930 . S
H511 C455 0.930 . S
H512 C458 0.930 . S
H513 C461 0.929 . S
H514 C466 0.929 . S
H515 C467 0.930 . S
H516 C474 0.929 . S
H517 C475 0.930 . S
H518 C476 0.930 . S
H519 C477 0.930 . S
H520 C479 0.929 . S
H521 C480 0.930 . S
H522 C481 0.930 . S
H523 C482 0.930 . S
H524 C486 0.929 . S
H525 C488 0.930 . S
H526 C494 0.929 . S
H527 C495 0.930 . S
Li528 N545 1.990 . S
Li528 O588 1.956 . S
Li528 O589 1.970 . S
Li528 O590 1.961 . S
Li529 N553 1.990 . S
Li529 O588 1.970 . S
Li529 O589 1.956 . S
Li529 O591 1.961 . S
Li530 N575 1.990 . S
Li530 O588 1.961 . S
Li530 O590 1.956 . S
Li530 O591 1.970 . S
Li531 N581 1.990 . S
Li531 O589 1.961 . S
Li531 O590 1.970 . S
Li531 O591 1.956 . S
C532 C534 1.348 . S
C532 C535 1.356 . S
C532 O588 1.325 . S
N533 C536 1.314 . S
N533 C537 1.279 . S
C534 C532 1.348 . S
C534 C536 1.353 . S
C534 H592 0.929 . S
C535 C532 1.356 . S
C535 C537 1.358 . S
C535 H593 0.930 . S
C536 N533 1.314 . S
C536 C534 1.353 . S
C536 H594 0.930 . S
C537 N533 1.279 . S
C537 C535 1.358 . S
C537 H595 0.930 . S
C538 C541 1.348 . S
C538 C542 1.356 . S
C538 O589 1.325 . S
C539 N540 1.279 . S
C539 C542 1.358 . S
C539 H596 0.930 . S
N540 C539 1.279 . S
N540 C543 1.314 . S
C541 C538 1.348 . S
C541 C543 1.353 . S
C541 H597 0.929 . S
C542 C538 1.356 . S
C542 C539 1.358 . S
C542 H598 0.930 . S
C543 N540 1.314 . S
C543 C541 1.353 . S
C543 H599 0.930 . S
C544 N545 1.314 . S
C544 C549 1.353 . S
C544 H550 0.930 . S
N545 Li528 1.990 . S
N545 C544 1.314 . S
N545 C547 1.279 . S
C546 C547 1.358 . S
C546 C548 1.356 . S
C546 H600 0.930 . S
C547 N545 1.279 . S
C547 C546 1.358 . S
C547 H551 0.930 . S
C548 C546 1.356 . S
C548 C549 1.348 . S
C549 C544 1.353 . S
C549 C548 1.348 . S
C549 H601 0.929 . S
H550 C544 0.930 . S
H551 C547 0.930 . S
C552 N553 1.314 . S
C552 C554 1.353 . S
C552 H558 0.930 . S
N553 Li529 1.990 . S
N553 C552 1.314 . S
N553 C556 1.279 . S
C554 C552 1.353 . S
C554 C557 1.348 . S
C554 H602 0.929 . S
C555 C556 1.358 . S
C555 C557 1.356 . S
C555 H603 0.930 . S
C556 N553 1.279 . S
C556 C555 1.358 . S
C556 H559 0.930 . S
C557 C554 1.348 . S
C557 C555 1.356 . S
H558 C552 0.930 . S
H559 C556 0.930 . S
C560 C562 1.348 . S
C560 C563 1.356 . S
C560 O590 1.325 . S
N561 C564 1.314 . S
N561 C565 1.279 . S
C562 C560 1.348 . S
C562 C564 1.353 . S
C562 H604 0.929 . S
C563 C560 1.356 . S
C563 C565 1.358 . S
C563 H605 0.930 . S
C564 N561 1.314 . S
C564 C562 1.353 . S
C564 H606 0.930 . S
C565 N561 1.279 . S
C565 C563 1.358 . S
C565 H607 0.930 . S
C566 C567 1.348 . S
C566 C568 1.356 . S
C566 O591 1.325 . S
C567 C566 1.348 . S
C567 C569 1.353 . S
C567 H608 0.929 . S
C568 C566 1.356 . S
C568 C570 1.358 . S
C568 H609 0.930 . S
C569 C567 1.353 . S
C569 N571 1.314 . S
C569 H610 0.930 . S
C570 C568 1.358 . S
C570 N571 1.279 . S
C570 H611 0.930 . S
N571 C569 1.314 . S
N571 C570 1.279 . S
C572 C574 1.353 . S
C572 N575 1.314 . S
C572 H578 0.930 . S
C573 N575 1.279 . S
C573 C576 1.358 . S
C573 H579 0.930 . S
C574 C572 1.353 . S
C574 C577 1.348 . S
C574 H612 0.929 . S
N575 Li530 1.990 . S
N575 C572 1.314 . S
N575 C573 1.279 . S
C576 C573 1.358 . S
C576 C577 1.356 . S
C576 H613 0.930 . S
C577 C574 1.348 . S
C577 C576 1.356 . S
H578 C572 0.930 . S
H579 C573 0.930 . S
C580 N581 1.314 . S
C580 C582 1.353 . S
C580 H586 0.930 . S
N581 Li531 1.990 . S
N581 C580 1.314 . S
N581 C584 1.279 . S
C582 C580 1.353 . S
C582 C585 1.348 . S
C582 H614 0.929 . S
C583 C584 1.358 . S
C583 C585 1.356 . S
C583 H615 0.930 . S
C584 N581 1.279 . S
C584 C583 1.358 . S
C584 H587 0.930 . S
C585 C582 1.348 . S
C585 C583 1.356 . S
H586 C580 0.930 . S
H587 C584 0.930 . S
O588 Li528 1.956 . S
O588 Li529 1.970 . S
O588 Li530 1.961 . S
O588 C532 1.325 . S
O589 Li528 1.970 . S
O589 Li529 1.956 . S
O589 Li531 1.961 . S
O589 C538 1.325 . S
O590 Li528 1.961 . S
O590 Li530 1.956 . S
O590 Li531 1.970 . S
O590 C560 1.325 . S
O591 Li529 1.961 . S
O591 Li530 1.970 . S
O591 Li531 1.956 . S
O591 C566 1.325 . S
H592 C534 0.929 . S
H593 C535 0.930 . S
H594 C536 0.930 . S
H595 C537 0.930 . S
H596 C539 0.930 . S
H597 C541 0.929 . S
H598 C542 0.930 . S
H599 C543 0.930 . S
H600 C546 0.930 . S
H601 C549 0.929 . S
H602 C554 0.929 . S
H603 C555 0.930 . S
H604 C562 0.929 . S
H605 C563 0.930 . S
H606 C564 0.930 . S
H607 C565 0.930 . S
H608 C567 0.929 . S
H609 C568 0.930 . S
H610 C569 0.930 . S
H611 C570 0.930 . S
H612 C574 0.929 . S
H613 C576 0.930 . S
H614 C582 0.929 . S
H615 C583 0.930 . S
Li616 N633 1.990 . S
Li616 O676 1.956 . S
Li616 O677 1.970 . S
Li616 O678 1.961 . S
Li617 N641 1.990 . S
Li617 O676 1.970 . S
Li617 O677 1.956 . S
Li617 O679 1.961 . S
Li618 N663 1.990 . S
Li618 O676 1.961 . S
Li618 O678 1.956 . S
Li618 O679 1.970 . S
Li619 N669 1.990 . S
Li619 O677 1.961 . S
Li619 O678 1.970 . S
Li619 O679 1.956 . S
C620 C622 1.348 . S
C620 C623 1.356 . S
C620 O676 1.325 . S
N621 C624 1.314 . S
N621 C625 1.279 . S
C622 C620 1.348 . S
C622 C624 1.353 . S
C622 H680 0.929 . S
C623 C620 1.356 . S
C623 C625 1.358 . S
C623 H681 0.930 . S
C624 N621 1.314 . S
C624 C622 1.353 . S
C624 H682 0.930 . S
C625 N621 1.279 . S
C625 C623 1.358 . S
C625 H683 0.930 . S
C626 C629 1.348 . S
C626 C630 1.356 . S
C626 O677 1.325 . S
C627 N628 1.279 . S
C627 C630 1.358 . S
C627 H684 0.930 . S
N628 C627 1.279 . S
N628 C631 1.314 . S
C629 C626 1.348 . S
C629 C631 1.353 . S
C629 H685 0.929 . S
C630 C626 1.356 . S
C630 C627 1.358 . S
C630 H686 0.930 . S
C631 N628 1.314 . S
C631 C629 1.353 . S
C631 H687 0.930 . S
C632 N633 1.314 . S
C632 C637 1.353 . S
C632 H638 0.930 . S
N633 Li616 1.990 . S
N633 C632 1.314 . S
N633 C635 1.279 . S
C634 C635 1.358 . S
C634 C636 1.356 . S
C634 H688 0.930 . S
C635 N633 1.279 . S
C635 C634 1.358 . S
C635 H639 0.930 . S
C636 C634 1.356 . S
C636 C637 1.348 . S
C637 C632 1.353 . S
C637 C636 1.348 . S
C637 H689 0.929 . S
H638 C632 0.930 . S
H639 C635 0.930 . S
C640 N641 1.314 . S
C640 C642 1.353 . S
C640 H646 0.930 . S
N641 Li617 1.990 . S
N641 C640 1.314 . S
N641 C644 1.279 . S
C642 C640 1.353 . S
C642 C645 1.348 . S
C642 H690 0.929 . S
C643 C644 1.358 . S
C643 C645 1.356 . S
C643 H691 0.930 . S
C644 N641 1.279 . S
C644 C643 1.358 . S
C644 H647 0.930 . S
C645 C642 1.348 . S
C645 C643 1.356 . S
H646 C640 0.930 . S
H647 C644 0.930 . S
C648 C650 1.348 . S
C648 C651 1.356 . S
C648 O678 1.325 . S
N649 C652 1.314 . S
N649 C653 1.279 . S
C650 C648 1.348 . S
C650 C652 1.353 . S
C650 H692 0.929 . S
C651 C648 1.356 . S
C651 C653 1.358 . S
C651 H693 0.930 . S
C652 N649 1.314 . S
C652 C650 1.353 . S
C652 H694 0.930 . S
C653 N649 1.279 . S
C653 C651 1.358 . S
C653 H695 0.930 . S
C654 C655 1.348 . S
C654 C656 1.356 . S
C654 O679 1.325 . S
C655 C654 1.348 . S
C655 C657 1.353 . S
C655 H696 0.929 . S
C656 C654 1.356 . S
C656 C658 1.358 . S
C656 H697 0.930 . S
C657 C655 1.353 . S
C657 N659 1.314 . S
C657 H698 0.930 . S
C658 C656 1.358 . S
C658 N659 1.279 . S
C658 H699 0.930 . S
N659 C657 1.314 . S
N659 C658 1.279 . S
C660 C662 1.353 . S
C660 N663 1.314 . S
C660 H666 0.930 . S
C661 N663 1.279 . S
C661 C664 1.358 . S
C661 H667 0.930 . S
C662 C660 1.353 . S
C662 C665 1.348 . S
C662 H700 0.929 . S
N663 Li618 1.990 . S
N663 C660 1.314 . S
N663 C661 1.279 . S
C664 C661 1.358 . S
C664 C665 1.356 . S
C664 H701 0.930 . S
C665 C662 1.348 . S
C665 C664 1.356 . S
H666 C660 0.930 . S
H667 C661 0.930 . S
C668 N669 1.314 . S
C668 C670 1.353 . S
C668 H674 0.930 . S
N669 Li619 1.990 . S
N669 C668 1.314 . S
N669 C672 1.279 . S
C670 C668 1.353 . S
C670 C673 1.348 . S
C670 H702 0.929 . S
C671 C672 1.358 . S
C671 C673 1.356 . S
C671 H703 0.930 . S
C672 N669 1.279 . S
C672 C671 1.358 . S
C672 H675 0.930 . S
C673 C670 1.348 . S
C673 C671 1.356 . S
H674 C668 0.930 . S
H675 C672 0.930 . S
O676 Li616 1.956 . S
O676 Li617 1.970 . S
O676 Li618 1.961 . S
O676 C620 1.325 . S
O677 Li616 1.970 . S
O677 Li617 1.956 . S
O677 Li619 1.961 . S
O677 C626 1.325 . S
O678 Li616 1.961 . S
O678 Li618 1.956 . S
O678 Li619 1.970 . S
O678 C648 1.325 . S
O679 Li617 1.961 . S
O679 Li618 1.970 . S
O679 Li619 1.956 . S
O679 C654 1.325 . S
H680 C622 0.929 . S
H681 C623 0.930 . S
H682 C624 0.930 . S
H683 C625 0.930 . S
H684 C627 0.930 . S
H685 C629 0.929 . S
H686 C630 0.930 . S
H687 C631 0.930 . S
H688 C634 0.930 . S
H689 C637 0.929 . S
H690 C642 0.929 . S
H691 C643 0.930 . S
H692 C650 0.929 . S
H693 C651 0.930 . S
H694 C652 0.930 . S
H695 C653 0.930 . S
H696 C655 0.929 . S
H697 C656 0.930 . S
H698 C657 0.930 . S
H699 C658 0.930 . S
H700 C662 0.929 . S
H701 C664 0.930 . S
H702 C670 0.929 . S
H703 C671 0.930 . S
Li704 N721 1.990 . S
Li704 O764 1.956 . S
Li704 O765 1.970 . S
Li704 O766 1.961 . S
Li705 N729 1.990 . S
Li705 O764 1.970 . S
Li705 O765 1.956 . S
Li705 O767 1.961 . S
Li706 N751 1.990 . S
Li706 O764 1.961 . S
Li706 O766 1.956 . S
Li706 O767 1.970 . S
Li707 N757 1.990 . S
Li707 O765 1.961 . S
Li707 O766 1.970 . S
Li707 O767 1.956 . S
C708 C710 1.348 . S
C708 C711 1.356 . S
C708 O764 1.325 . S
N709 C712 1.314 . S
N709 C713 1.279 . S
C710 C708 1.348 . S
C710 C712 1.353 . S
C710 H768 0.929 . S
C711 C708 1.356 . S
C711 C713 1.358 . S
C711 H769 0.930 . S
C712 N709 1.314 . S
C712 C710 1.353 . S
C712 H770 0.930 . S
C713 N709 1.279 . S
C713 C711 1.358 . S
C713 H771 0.930 . S
C714 C717 1.348 . S
C714 C718 1.356 . S
C714 O765 1.325 . S
C715 N716 1.279 . S
C715 C718 1.358 . S
C715 H772 0.930 . S
N716 C715 1.279 . S
N716 C719 1.314 . S
C717 C714 1.348 . S
C717 C719 1.353 . S
C717 H773 0.929 . S
C718 C714 1.356 . S
C718 C715 1.358 . S
C718 H774 0.930 . S
C719 N716 1.314 . S
C719 C717 1.353 . S
C719 H775 0.930 . S
C720 N721 1.314 . S
C720 C725 1.353 . S
C720 H726 0.930 . S
N721 Li704 1.990 . S
N721 C720 1.314 . S
N721 C723 1.279 . S
C722 C723 1.358 . S
C722 C724 1.356 . S
C722 H776 0.930 . S
C723 N721 1.279 . S
C723 C722 1.358 . S
C723 H727 0.930 . S
C724 C722 1.356 . S
C724 C725 1.348 . S
C725 C720 1.353 . S
C725 C724 1.348 . S
C725 H777 0.929 . S
H726 C720 0.930 . S
H727 C723 0.930 . S
C728 N729 1.314 . S
C728 C730 1.353 . S
C728 H734 0.930 . S
N729 Li705 1.990 . S
N729 C728 1.314 . S
N729 C732 1.279 . S
C730 C728 1.353 . S
C730 C733 1.348 . S
C730 H778 0.929 . S
C731 C732 1.358 . S
C731 C733 1.356 . S
C731 H779 0.930 . S
C732 N729 1.279 . S
C732 C731 1.358 . S
C732 H735 0.930 . S
C733 C730 1.348 . S
C733 C731 1.356 . S
H734 C728 0.930 . S
H735 C732 0.930 . S
C736 C738 1.348 . S
C736 C739 1.356 . S
C736 O766 1.325 . S
N737 C740 1.314 . S
N737 C741 1.279 . S
C738 C736 1.348 . S
C738 C740 1.353 . S
C738 H780 0.929 . S
C739 C736 1.356 . S
C739 C741 1.358 . S
C739 H781 0.930 . S
C740 N737 1.314 . S
C740 C738 1.353 . S
C740 H782 0.930 . S
C741 N737 1.279 . S
C741 C739 1.358 . S
C741 H783 0.930 . S
C742 C743 1.348 . S
C742 C744 1.356 . S
C742 O767 1.325 . S
C743 C742 1.348 . S
C743 C745 1.353 . S
C743 H784 0.929 . S
C744 C742 1.356 . S
C744 C746 1.358 . S
C744 H785 0.930 . S
C745 C743 1.353 . S
C745 N747 1.314 . S
C745 H786 0.930 . S
C746 C744 1.358 . S
C746 N747 1.279 . S
C746 H787 0.930 . S
N747 C745 1.314 . S
N747 C746 1.279 . S
C748 C750 1.353 . S
C748 N751 1.314 . S
C748 H754 0.930 . S
C749 N751 1.279 . S
C749 C752 1.358 . S
C749 H755 0.930 . S
C750 C748 1.353 . S
C750 C753 1.348 . S
C750 H788 0.929 . S
N751 Li706 1.990 . S
N751 C748 1.314 . S
N751 C749 1.279 . S
C752 C749 1.358 . S
C752 C753 1.356 . S
C752 H789 0.930 . S
C753 C750 1.348 . S
C753 C752 1.356 . S
H754 C748 0.930 . S
H755 C749 0.930 . S
C756 N757 1.314 . S
C756 C758 1.353 . S
C756 H762 0.930 . S
N757 Li707 1.990 . S
N757 C756 1.314 . S
N757 C760 1.279 . S
C758 C756 1.353 . S
C758 C761 1.348 . S
C758 H790 0.929 . S
C759 C760 1.358 . S
C759 C761 1.356 . S
C759 H791 0.930 . S
C760 N757 1.279 . S
C760 C759 1.358 . S
C760 H763 0.930 . S
C761 C758 1.348 . S
C761 C759 1.356 . S
H762 C756 0.930 . S
H763 C760 0.930 . S
O764 Li704 1.956 . S
O764 Li705 1.970 . S
O764 Li706 1.961 . S
O764 C708 1.325 . S
O765 Li704 1.970 . S
O765 Li705 1.956 . S
O765 Li707 1.961 . S
O765 C714 1.325 . S
O766 Li704 1.961 . S
O766 Li706 1.956 . S
O766 Li707 1.970 . S
O766 C736 1.325 . S
O767 Li705 1.961 . S
O767 Li706 1.970 . S
O767 Li707 1.956 . S
O767 C742 1.325 . S
H768 C710 0.929 . S
H769 C711 0.930 . S
H770 C712 0.930 . S
H771 C713 0.930 . S
H772 C715 0.930 . S
H773 C717 0.929 . S
H774 C718 0.930 . S
H775 C719 0.930 . S
H776 C722 0.930 . S
H777 C725 0.929 . S
H778 C730 0.929 . S
H779 C731 0.930 . S
H780 C738 0.929 . S
H781 C739 0.930 . S
H782 C740 0.930 . S
H783 C741 0.930 . S
H784 C743 0.929 . S
H785 C744 0.930 . S
H786 C745 0.930 . S
H787 C746 0.930 . S
H788 C750 0.929 . S
H789 C752 0.930 . S
H790 C758 0.929 . S
H791 C759 0.930 . S
Li792 N809 1.990 . S
Li792 O852 1.956 . S
Li792 O853 1.970 . S
Li792 O854 1.961 . S
Li793 N817 1.990 . S
Li793 O852 1.970 . S
Li793 O853 1.956 . S
Li793 O855 1.961 . S
Li794 N839 1.990 . S
Li794 O852 1.961 . S
Li794 O854 1.956 . S
Li794 O855 1.970 . S
Li795 N845 1.990 . S
Li795 O853 1.961 . S
Li795 O854 1.970 . S
Li795 O855 1.956 . S
C796 C798 1.348 . S
C796 C799 1.356 . S
C796 O852 1.325 . S
N797 C800 1.314 . S
N797 C801 1.279 . S
C798 C796 1.348 . S
C798 C800 1.353 . S
C798 H856 0.929 . S
C799 C796 1.356 . S
C799 C801 1.358 . S
C799 H857 0.930 . S
C800 N797 1.314 . S
C800 C798 1.353 . S
C800 H858 0.930 . S
C801 N797 1.279 . S
C801 C799 1.358 . S
C801 H859 0.930 . S
C802 C805 1.348 . S
C802 C806 1.356 . S
C802 O853 1.325 . S
C803 N804 1.279 . S
C803 C806 1.358 . S
C803 H860 0.930 . S
N804 C803 1.279 . S
N804 C807 1.314 . S
C805 C802 1.348 . S
C805 C807 1.353 . S
C805 H861 0.929 . S
C806 C802 1.356 . S
C806 C803 1.358 . S
C806 H862 0.930 . S
C807 N804 1.314 . S
C807 C805 1.353 . S
C807 H863 0.930 . S
C808 N809 1.314 . S
C808 C813 1.353 . S
C808 H814 0.930 . S
N809 Li792 1.990 . S
N809 C808 1.314 . S
N809 C811 1.279 . S
C810 C811 1.358 . S
C810 C812 1.356 . S
C810 H864 0.930 . S
C811 N809 1.279 . S
C811 C810 1.358 . S
C811 H815 0.930 . S
C812 C810 1.356 . S
C812 C813 1.348 . S
C813 C808 1.353 . S
C813 C812 1.348 . S
C813 H865 0.929 . S
H814 C808 0.930 . S
H815 C811 0.930 . S
C816 N817 1.314 . S
C816 C818 1.353 . S
C816 H822 0.930 . S
N817 Li793 1.990 . S
N817 C816 1.314 . S
N817 C820 1.279 . S
C818 C816 1.353 . S
C818 C821 1.348 . S
C818 H866 0.929 . S
C819 C820 1.358 . S
C819 C821 1.356 . S
C819 H867 0.930 . S
C820 N817 1.279 . S
C820 C819 1.358 . S
C820 H823 0.930 . S
C821 C818 1.348 . S
C821 C819 1.356 . S
H822 C816 0.930 . S
H823 C820 0.930 . S
C824 C826 1.348 . S
C824 C827 1.356 . S
C824 O854 1.325 . S
N825 C828 1.314 . S
N825 C829 1.279 . S
C826 C824 1.348 . S
C826 C828 1.353 . S
C826 H868 0.929 . S
C827 C824 1.356 . S
C827 C829 1.358 . S
C827 H869 0.930 . S
C828 N825 1.314 . S
C828 C826 1.353 . S
C828 H870 0.930 . S
C829 N825 1.279 . S
C829 C827 1.358 . S
C829 H871 0.930 . S
C830 C831 1.348 . S
C830 C832 1.356 . S
C830 O855 1.325 . S
C831 C830 1.348 . S
C831 C833 1.353 . S
C831 H872 0.929 . S
C832 C830 1.356 . S
C832 C834 1.358 . S
C832 H873 0.930 . S
C833 C831 1.353 . S
C833 N835 1.314 . S
C833 H874 0.930 . S
C834 C832 1.358 . S
C834 N835 1.279 . S
C834 H875 0.930 . S
N835 C833 1.314 . S
N835 C834 1.279 . S
C836 C838 1.353 . S
C836 N839 1.314 . S
C836 H842 0.930 . S
C837 N839 1.279 . S
C837 C840 1.358 . S
C837 H843 0.930 . S
C838 C836 1.353 . S
C838 C841 1.348 . S
C838 H876 0.929 . S
N839 Li794 1.990 . S
N839 C836 1.314 . S
N839 C837 1.279 . S
C840 C837 1.358 . S
C840 C841 1.356 . S
C840 H877 0.930 . S
C841 C838 1.348 . S
C841 C840 1.356 . S
H842 C836 0.930 . S
H843 C837 0.930 . S
C844 N845 1.314 . S
C844 C846 1.353 . S
C844 H850 0.930 . S
N845 Li795 1.990 . S
N845 C844 1.314 . S
N845 C848 1.279 . S
C846 C844 1.353 . S
C846 C849 1.348 . S
C846 H878 0.929 . S
C847 C848 1.358 . S
C847 C849 1.356 . S
C847 H879 0.930 . S
C848 N845 1.279 . S
C848 C847 1.358 . S
C848 H851 0.930 . S
C849 C846 1.348 . S
C849 C847 1.356 . S
H850 C844 0.930 . S
H851 C848 0.930 . S
O852 Li792 1.956 . S
O852 Li793 1.970 . S
O852 Li794 1.961 . S
O852 C796 1.325 . S
O853 Li792 1.970 . S
O853 Li793 1.956 . S
O853 Li795 1.961 . S
O853 C802 1.325 . S
O854 Li792 1.961 . S
O854 Li794 1.956 . S
O854 Li795 1.970 . S
O854 C824 1.325 . S
O855 Li793 1.961 . S
O855 Li794 1.970 . S
O855 Li795 1.956 . S
O855 C830 1.325 . S
H856 C798 0.929 . S
H857 C799 0.930 . S
H858 C800 0.930 . S
H859 C801 0.930 . S
H860 C803 0.930 . S
H861 C805 0.929 . S
H862 C806 0.930 . S
H863 C807 0.930 . S
H864 C810 0.930 . S
H865 C813 0.929 . S
H866 C818 0.929 . S
H867 C819 0.930 . S
H868 C826 0.929 . S
H869 C827 0.930 . S
H870 C828 0.930 . S
H871 C829 0.930 . S
H872 C831 0.929 . S
H873 C832 0.930 . S
H874 C833 0.930 . S
H875 C834 0.930 . S
H876 C838 0.929 . S
H877 C840 0.930 . S
H878 C846 0.929 . S
H879 C847 0.930 . S
Li880 N897 1.990 . S
Li880 O940 1.956 . S
Li880 O941 1.970 . S
Li880 O942 1.961 . S
Li881 N905 1.990 . S
Li881 O940 1.970 . S
Li881 O941 1.956 . S
Li881 O943 1.961 . S
Li882 N927 1.990 . S
Li882 O940 1.961 . S
Li882 O942 1.956 . S
Li882 O943 1.970 . S
Li883 N933 1.990 . S
Li883 O941 1.961 . S
Li883 O942 1.970 . S
Li883 O943 1.956 . S
C884 C886 1.348 . S
C884 C887 1.356 . S
C884 O940 1.325 . S
N885 C888 1.314 . S
N885 C889 1.279 . S
C886 C884 1.348 . S
C886 C888 1.353 . S
C886 H944 0.929 . S
C887 C884 1.356 . S
C887 C889 1.358 . S
C887 H945 0.930 . S
C888 N885 1.314 . S
C888 C886 1.353 . S
C888 H946 0.930 . S
C889 N885 1.279 . S
C889 C887 1.358 . S
C889 H947 0.930 . S
C890 C893 1.348 . S
C890 C894 1.356 . S
C890 O941 1.325 . S
C891 N892 1.279 . S
C891 C894 1.358 . S
C891 H948 0.930 . S
N892 C891 1.279 . S
N892 C895 1.314 . S
C893 C890 1.348 . S
C893 C895 1.353 . S
C893 H949 0.929 . S
C894 C890 1.356 . S
C894 C891 1.358 . S
C894 H950 0.930 . S
C895 N892 1.314 . S
C895 C893 1.353 . S
C895 H951 0.930 . S
C896 N897 1.314 . S
C896 C901 1.353 . S
C896 H902 0.930 . S
N897 Li880 1.990 . S
N897 C896 1.314 . S
N897 C899 1.279 . S
C898 C899 1.358 . S
C898 C900 1.356 . S
C898 H952 0.930 . S
C899 N897 1.279 . S
C899 C898 1.358 . S
C899 H903 0.930 . S
C900 C898 1.356 . S
C900 C901 1.348 . S
C901 C896 1.353 . S
C901 C900 1.348 . S
C901 H953 0.929 . S
H902 C896 0.930 . S
H903 C899 0.930 . S
C904 N905 1.314 . S
C904 C906 1.353 . S
C904 H910 0.930 . S
N905 Li881 1.990 . S
N905 C904 1.314 . S
N905 C908 1.279 . S
C906 C904 1.353 . S
C906 C909 1.348 . S
C906 H954 0.929 . S
C907 C908 1.358 . S
C907 C909 1.356 . S
C907 H955 0.930 . S
C908 N905 1.279 . S
C908 C907 1.358 . S
C908 H911 0.930 . S
C909 C906 1.348 . S
C909 C907 1.356 . S
H910 C904 0.930 . S
H911 C908 0.930 . S
C912 C914 1.348 . S
C912 C915 1.356 . S
C912 O942 1.325 . S
N913 C916 1.314 . S
N913 C917 1.279 . S
C914 C912 1.348 . S
C914 C916 1.353 . S
C914 H956 0.929 . S
C915 C912 1.356 . S
C915 C917 1.358 . S
C915 H957 0.930 . S
C916 N913 1.314 . S
C916 C914 1.353 . S
C916 H958 0.930 . S
C917 N913 1.279 . S
C917 C915 1.358 . S
C917 H959 0.930 . S
C918 C919 1.348 . S
C918 C920 1.356 . S
C918 O943 1.325 . S
C919 C918 1.348 . S
C919 C921 1.353 . S
C919 H960 0.929 . S
C920 C918 1.356 . S
C920 C922 1.358 . S
C920 H961 0.930 . S
C921 C919 1.353 . S
C921 N923 1.314 . S
C921 H962 0.930 . S
C922 C920 1.358 . S
C922 N923 1.279 . S
C922 H963 0.930 . S
N923 C921 1.314 . S
N923 C922 1.279 . S
C924 C926 1.353 . S
C924 N927 1.314 . S
C924 H930 0.930 . S
C925 N927 1.279 . S
C925 C928 1.358 . S
C925 H931 0.930 . S
C926 C924 1.353 . S
C926 C929 1.348 . S
C926 H964 0.929 . S
N927 Li882 1.990 . S
N927 C924 1.314 . S
N927 C925 1.279 . S
C928 C925 1.358 . S
C928 C929 1.356 . S
C928 H965 0.930 . S
C929 C926 1.348 . S
C929 C928 1.356 . S
H930 C924 0.930 . S
H931 C925 0.930 . S
C932 N933 1.314 . S
C932 C934 1.353 . S
C932 H938 0.930 . S
N933 Li883 1.990 . S
N933 C932 1.314 . S
N933 C936 1.279 . S
C934 C932 1.353 . S
C934 C937 1.348 . S
C934 H966 0.929 . S
C935 C936 1.358 . S
C935 C937 1.356 . S
C935 H967 0.930 . S
C936 N933 1.279 . S
C936 C935 1.358 . S
C936 H939 0.930 . S
C937 C934 1.348 . S
C937 C935 1.356 . S
H938 C932 0.930 . S
H939 C936 0.930 . S
O940 Li880 1.956 . S
O940 Li881 1.970 . S
O940 Li882 1.961 . S
O940 C884 1.325 . S
O941 Li880 1.970 . S
O941 Li881 1.956 . S
O941 Li883 1.961 . S
O941 C890 1.325 . S
O942 Li880 1.961 . S
O942 Li882 1.956 . S
O942 Li883 1.970 . S
O942 C912 1.325 . S
O943 Li881 1.961 . S
O943 Li882 1.970 . S
O943 Li883 1.956 . S
O943 C918 1.325 . S
H944 C886 0.929 . S
H945 C887 0.930 . S
H946 C888 0.930 . S
H947 C889 0.930 . S
H948 C891 0.930 . S
H949 C893 0.929 . S
H950 C894 0.930 . S
H951 C895 0.930 . S
H952 C898 0.930 . S
H953 C901 0.929 . S
H954 C906 0.929 . S
H955 C907 0.930 . S
H956 C914 0.929 . S
H957 C915 0.930 . S
H958 C916 0.930 . S
H959 C917 0.930 . S
H960 C919 0.929 . S
H961 C920 0.930 . S
H962 C921 0.930 . S
H963 C922 0.930 . S
H964 C926 0.929 . S
H965 C928 0.930 . S
H966 C934 0.929 . S
H967 C935 0.930 . S
Li968 N985 1.990 . S
Li968 O1028 1.956 . S
Li968 O1029 1.970 . S
Li968 O1030 1.961 . S
Li969 N993 1.990 . S
Li969 O1028 1.970 . S
Li969 O1029 1.956 . S
Li969 O1031 1.961 . S
Li970 N1015 1.990 . S
Li970 O1028 1.961 . S
Li970 O1030 1.956 . S
Li970 O1031 1.970 . S
Li971 N1021 1.990 . S
Li971 O1029 1.961 . S
Li971 O1030 1.970 . S
Li971 O1031 1.956 . S
C972 C974 1.348 . S
C972 C975 1.356 . S
C972 O1028 1.325 . S
N973 C976 1.314 . S
N973 C977 1.279 . S
C974 C972 1.348 . S
C974 C976 1.353 . S
C974 H1032 0.929 . S
C975 C972 1.356 . S
C975 C977 1.358 . S
C975 H1033 0.930 . S
C976 N973 1.314 . S
C976 C974 1.353 . S
C976 H1034 0.930 . S
C977 N973 1.279 . S
C977 C975 1.358 . S
C977 H1035 0.930 . S
C978 C981 1.348 . S
C978 C982 1.356 . S
C978 O1029 1.325 . S
C979 N980 1.279 . S
C979 C982 1.358 . S
C979 H1036 0.930 . S
N980 C979 1.279 . S
N980 C983 1.314 . S
C981 C978 1.348 . S
C981 C983 1.353 . S
C981 H1037 0.929 . S
C982 C978 1.356 . S
C982 C979 1.358 . S
C982 H1038 0.930 . S
C983 N980 1.314 . S
C983 C981 1.353 . S
C983 H1039 0.930 . S
C984 N985 1.314 . S
C984 C989 1.353 . S
C984 H990 0.930 . S
N985 Li968 1.990 . S
N985 C984 1.314 . S
N985 C987 1.279 . S
C986 C987 1.358 . S
C986 C988 1.356 . S
C986 H1040 0.930 . S
C987 N985 1.279 . S
C987 C986 1.358 . S
C987 H991 0.930 . S
C988 C986 1.356 . S
C988 C989 1.348 . S
C989 C984 1.353 . S
C989 C988 1.348 . S
C989 H1041 0.929 . S
H990 C984 0.930 . S
H991 C987 0.930 . S
C992 N993 1.314 . S
C992 C994 1.353 . S
C992 H998 0.930 . S
N993 Li969 1.990 . S
N993 C992 1.314 . S
N993 C996 1.279 . S
C994 C992 1.353 . S
C994 C997 1.348 . S
C994 H1042 0.929 . S
C995 C996 1.358 . S
C995 C997 1.356 . S
C995 H1043 0.930 . S
C996 N993 1.279 . S
C996 C995 1.358 . S
C996 H999 0.930 . S
C997 C994 1.348 . S
C997 C995 1.356 . S
H998 C992 0.930 . S
H999 C996 0.930 . S
C1000 C1002 1.348 . S
C1000 C1003 1.356 . S
C1000 O1030 1.325 . S
N1001 C1004 1.314 . S
N1001 C1005 1.279 . S
C1002 C1000 1.348 . S
C1002 C1004 1.353 . S
C1002 H1044 0.929 . S
C1003 C1000 1.356 . S
C1003 C1005 1.358 . S
C1003 H1045 0.930 . S
C1004 N1001 1.314 . S
C1004 C1002 1.353 . S
C1004 H1046 0.930 . S
C1005 N1001 1.279 . S
C1005 C1003 1.358 . S
C1005 H1047 0.930 . S
C1006 C1007 1.348 . S
C1006 C1008 1.356 . S
C1006 O1031 1.325 . S
C1007 C1006 1.348 . S
C1007 C1009 1.353 . S
C1007 H1048 0.929 . S
C1008 C1006 1.356 . S
C1008 C1010 1.358 . S
C1008 H1049 0.930 . S
C1009 C1007 1.353 . S
C1009 N1011 1.314 . S
C1009 H1050 0.930 . S
C1010 C1008 1.358 . S
C1010 N1011 1.279 . S
C1010 H1051 0.930 . S
N1011 C1009 1.314 . S
N1011 C1010 1.279 . S
C1012 C1014 1.353 . S
C1012 N1015 1.314 . S
C1012 H1018 0.930 . S
C1013 N1015 1.279 . S
C1013 C1016 1.358 . S
C1013 H1019 0.930 . S
C1014 C1012 1.353 . S
C1014 C1017 1.348 . S
C1014 H1052 0.929 . S
N1015 Li970 1.990 . S
N1015 C1012 1.314 . S
N1015 C1013 1.279 . S
C1016 C1013 1.358 . S
C1016 C1017 1.356 . S
C1016 H1053 0.930 . S
C1017 C1014 1.348 . S
C1017 C1016 1.356 . S
H1018 C1012 0.930 . S
H1019 C1013 0.930 . S
C1020 N1021 1.314 . S
C1020 C1022 1.353 . S
C1020 H1026 0.930 . S
N1021 Li971 1.990 . S
N1021 C1020 1.314 . S
N1021 C1024 1.279 . S
C1022 C1020 1.353 . S
C1022 C1025 1.348 . S
C1022 H1054 0.929 . S
C1023 C1024 1.358 . S
C1023 C1025 1.356 . S
C1023 H1055 0.930 . S
C1024 N1021 1.279 . S
C1024 C1023 1.358 . S
C1024 H1027 0.930 . S
C1025 C1022 1.348 . S
C1025 C1023 1.356 . S
H1026 C1020 0.930 . S
H1027 C1024 0.930 . S
O1028 Li968 1.956 . S
O1028 Li969 1.970 . S
O1028 Li970 1.961 . S
O1028 C972 1.325 . S
O1029 Li968 1.970 . S
O1029 Li969 1.956 . S
O1029 Li971 1.961 . S
O1029 C978 1.325 . S
O1030 Li968 1.961 . S
O1030 Li970 1.956 . S
O1030 Li971 1.970 . S
O1030 C1000 1.325 . S
O1031 Li969 1.961 . S
O1031 Li970 1.970 . S
O1031 Li971 1.956 . S
O1031 C1006 1.325 . S
H1032 C974 0.929 . S
H1033 C975 0.930 . S
H1034 C976 0.930 . S
H1035 C977 0.930 . S
H1036 C979 0.930 . S
H1037 C981 0.929 . S
H1038 C982 0.930 . S
H1039 C983 0.930 . S
H1040 C986 0.930 . S
H1041 C989 0.929 . S
H1042 C994 0.929 . S
H1043 C995 0.930 . S
H1044 C1002 0.929 . S
H1045 C1003 0.930 . S
H1046 C1004 0.930 . S
H1047 C1005 0.930 . S
H1048 C1007 0.929 . S
H1049 C1008 0.930 . S
H1050 C1009 0.930 . S
H1051 C1010 0.930 . S
H1052 C1014 0.929 . S
H1053 C1016 0.930 . S
H1054 C1022 0.929 . S
H1055 C1023 0.930 . S
Li1056 N1073 1.990 . S
Li1056 O1116 1.956 . S
Li1056 O1117 1.970 . S
Li1056 O1118 1.961 . S
Li1057 N1081 1.990 . S
Li1057 O1116 1.970 . S
Li1057 O1117 1.956 . S
Li1057 O1119 1.961 . S
Li1058 N1103 1.990 . S
Li1058 O1116 1.961 . S
Li1058 O1118 1.956 . S
Li1058 O1119 1.970 . S
Li1059 N1109 1.990 . S
Li1059 O1117 1.961 . S
Li1059 O1118 1.970 . S
Li1059 O1119 1.956 . S
C1060 C1062 1.348 . S
C1060 C1063 1.356 . S
C1060 O1116 1.325 . S
N1061 C1064 1.314 . S
N1061 C1065 1.279 . S
C1062 C1060 1.348 . S
C1062 C1064 1.353 . S
C1062 H1120 0.929 . S
C1063 C1060 1.356 . S
C1063 C1065 1.358 . S
C1063 H1121 0.930 . S
C1064 N1061 1.314 . S
C1064 C1062 1.353 . S
C1064 H1122 0.930 . S
C1065 N1061 1.279 . S
C1065 C1063 1.358 . S
C1065 H1123 0.930 . S
C1066 C1069 1.348 . S
C1066 C1070 1.356 . S
C1066 O1117 1.325 . S
C1067 N1068 1.279 . S
C1067 C1070 1.358 . S
C1067 H1124 0.930 . S
N1068 C1067 1.279 . S
N1068 C1071 1.314 . S
C1069 C1066 1.348 . S
C1069 C1071 1.353 . S
C1069 H1125 0.929 . S
C1070 C1066 1.356 . S
C1070 C1067 1.358 . S
C1070 H1126 0.930 . S
C1071 N1068 1.314 . S
C1071 C1069 1.353 . S
C1071 H1127 0.930 . S
C1072 N1073 1.314 . S
C1072 C1077 1.353 . S
C1072 H1078 0.930 . S
N1073 Li1056 1.990 . S
N1073 C1072 1.314 . S
N1073 C1075 1.279 . S
C1074 C1075 1.358 . S
C1074 C1076 1.356 . S
C1074 H1128 0.930 . S
C1075 N1073 1.279 . S
C1075 C1074 1.358 . S
C1075 H1079 0.930 . S
C1076 C1074 1.356 . S
C1076 C1077 1.348 . S
C1077 C1072 1.353 . S
C1077 C1076 1.348 . S
C1077 H1129 0.929 . S
H1078 C1072 0.930 . S
H1079 C1075 0.930 . S
C1080 N1081 1.314 . S
C1080 C1082 1.353 . S
C1080 H1086 0.930 . S
N1081 Li1057 1.990 . S
N1081 C1080 1.314 . S
N1081 C1084 1.279 . S
C1082 C1080 1.353 . S
C1082 C1085 1.348 . S
C1082 H1130 0.929 . S
C1083 C1084 1.358 . S
C1083 C1085 1.356 . S
C1083 H1131 0.930 . S
C1084 N1081 1.279 . S
C1084 C1083 1.358 . S
C1084 H1087 0.930 . S
C1085 C1082 1.348 . S
C1085 C1083 1.356 . S
H1086 C1080 0.930 . S
H1087 C1084 0.930 . S
C1088 C1090 1.348 . S
C1088 C1091 1.356 . S
C1088 O1118 1.325 . S
N1089 C1092 1.314 . S
N1089 C1093 1.279 . S
C1090 C1088 1.348 . S
C1090 C1092 1.353 . S
C1090 H1132 0.929 . S
C1091 C1088 1.356 . S
C1091 C1093 1.358 . S
C1091 H1133 0.930 . S
C1092 N1089 1.314 . S
C1092 C1090 1.353 . S
C1092 H1134 0.930 . S
C1093 N1089 1.279 . S
C1093 C1091 1.358 . S
C1093 H1135 0.930 . S
C1094 C1095 1.348 . S
C1094 C1096 1.356 . S
C1094 O1119 1.325 . S
C1095 C1094 1.348 . S
C1095 C1097 1.353 . S
C1095 H1136 0.929 . S
C1096 C1094 1.356 . S
C1096 C1098 1.358 . S
C1096 H1137 0.930 . S
C1097 C1095 1.353 . S
C1097 N1099 1.314 . S
C1097 H1138 0.930 . S
C1098 C1096 1.358 . S
C1098 N1099 1.279 . S
C1098 H1139 0.930 . S
N1099 C1097 1.314 . S
N1099 C1098 1.279 . S
C1100 C1102 1.353 . S
C1100 N1103 1.314 . S
C1100 H1106 0.930 . S
C1101 N1103 1.279 . S
C1101 C1104 1.358 . S
C1101 H1107 0.930 . S
C1102 C1100 1.353 . S
C1102 C1105 1.348 . S
C1102 H1140 0.929 . S
N1103 Li1058 1.990 . S
N1103 C1100 1.314 . S
N1103 C1101 1.279 . S
C1104 C1101 1.358 . S
C1104 C1105 1.356 . S
C1104 H1141 0.930 . S
C1105 C1102 1.348 . S
C1105 C1104 1.356 . S
H1106 C1100 0.930 . S
H1107 C1101 0.930 . S
C1108 N1109 1.314 . S
C1108 C1110 1.353 . S
C1108 H1114 0.930 . S
N1109 Li1059 1.990 . S
N1109 C1108 1.314 . S
N1109 C1112 1.279 . S
C1110 C1108 1.353 . S
C1110 C1113 1.348 . S
C1110 H1142 0.929 . S
C1111 C1112 1.358 . S
C1111 C1113 1.356 . S
C1111 H1143 0.930 . S
C1112 N1109 1.279 . S
C1112 C1111 1.358 . S
C1112 H1115 0.930 . S
C1113 C1110 1.348 . S
C1113 C1111 1.356 . S
H1114 C1108 0.930 . S
H1115 C1112 0.930 . S
O1116 Li1056 1.956 . S
O1116 Li1057 1.970 . S
O1116 Li1058 1.961 . S
O1116 C1060 1.325 . S
O1117 Li1056 1.970 . S
O1117 Li1057 1.956 . S
O1117 Li1059 1.961 . S
O1117 C1066 1.325 . S
O1118 Li1056 1.961 . S
O1118 Li1058 1.956 . S
O1118 Li1059 1.970 . S
O1118 C1088 1.325 . S
O1119 Li1057 1.961 . S
O1119 Li1058 1.970 . S
O1119 Li1059 1.956 . S
O1119 C1094 1.325 . S
H1120 C1062 0.929 . S
H1121 C1063 0.930 . S
H1122 C1064 0.930 . S
H1123 C1065 0.930 . S
H1124 C1067 0.930 . S
H1125 C1069 0.929 . S
H1126 C1070 0.930 . S
H1127 C1071 0.930 . S
H1128 C1074 0.930 . S
H1129 C1077 0.929 . S
H1130 C1082 0.929 . S
H1131 C1083 0.930 . S
H1132 C1090 0.929 . S
H1133 C1091 0.930 . S
H1134 C1092 0.930 . S
H1135 C1093 0.930 . S
H1136 C1095 0.929 . S
H1137 C1096 0.930 . S
H1138 C1097 0.930 . S
H1139 C1098 0.930 . S
H1140 C1102 0.929 . S
H1141 C1104 0.930 . S
H1142 C1110 0.929 . S
H1143 C1111 0.930 . S
Li1144 N1161 1.990 . S
Li1144 O1204 1.956 . S
Li1144 O1205 1.970 . S
Li1144 O1206 1.961 . S
Li1145 N1169 1.990 . S
Li1145 O1204 1.970 . S
Li1145 O1205 1.956 . S
Li1145 O1207 1.961 . S
Li1146 N1191 1.990 . S
Li1146 O1204 1.961 . S
Li1146 O1206 1.956 . S
Li1146 O1207 1.970 . S
Li1147 N1197 1.990 . S
Li1147 O1205 1.961 . S
Li1147 O1206 1.970 . S
Li1147 O1207 1.956 . S
C1148 C1150 1.348 . S
C1148 C1151 1.356 . S
C1148 O1204 1.325 . S
N1149 C1152 1.314 . S
N1149 C1153 1.279 . S
C1150 C1148 1.348 . S
C1150 C1152 1.353 . S
C1150 H1208 0.929 . S
C1151 C1148 1.356 . S
C1151 C1153 1.358 . S
C1151 H1209 0.930 . S
C1152 N1149 1.314 . S
C1152 C1150 1.353 . S
C1152 H1210 0.930 . S
C1153 N1149 1.279 . S
C1153 C1151 1.358 . S
C1153 H1211 0.930 . S
C1154 C1157 1.348 . S
C1154 C1158 1.356 . S
C1154 O1205 1.325 . S
C1155 N1156 1.279 . S
C1155 C1158 1.358 . S
C1155 H1212 0.930 . S
N1156 C1155 1.279 . S
N1156 C1159 1.314 . S
C1157 C1154 1.348 . S
C1157 C1159 1.353 . S
C1157 H1213 0.929 . S
C1158 C1154 1.356 . S
C1158 C1155 1.358 . S
C1158 H1214 0.930 . S
C1159 N1156 1.314 . S
C1159 C1157 1.353 . S
C1159 H1215 0.930 . S
C1160 N1161 1.314 . S
C1160 C1165 1.353 . S
C1160 H1166 0.930 . S
N1161 Li1144 1.990 . S
N1161 C1160 1.314 . S
N1161 C1163 1.279 . S
C1162 C1163 1.358 . S
C1162 C1164 1.356 . S
C1162 H1216 0.930 . S
C1163 N1161 1.279 . S
C1163 C1162 1.358 . S
C1163 H1167 0.930 . S
C1164 C1162 1.356 . S
C1164 C1165 1.348 . S
C1165 C1160 1.353 . S
C1165 C1164 1.348 . S
C1165 H1217 0.929 . S
H1166 C1160 0.930 . S
H1167 C1163 0.930 . S
C1168 N1169 1.314 . S
C1168 C1170 1.353 . S
C1168 H1174 0.930 . S
N1169 Li1145 1.990 . S
N1169 C1168 1.314 . S
N1169 C1172 1.279 . S
C1170 C1168 1.353 . S
C1170 C1173 1.348 . S
C1170 H1218 0.929 . S
C1171 C1172 1.358 . S
C1171 C1173 1.356 . S
C1171 H1219 0.930 . S
C1172 N1169 1.279 . S
C1172 C1171 1.358 . S
C1172 H1175 0.930 . S
C1173 C1170 1.348 . S
C1173 C1171 1.356 . S
H1174 C1168 0.930 . S
H1175 C1172 0.930 . S
C1176 C1178 1.348 . S
C1176 C1179 1.356 . S
C1176 O1206 1.325 . S
N1177 C1180 1.314 . S
N1177 C1181 1.279 . S
C1178 C1176 1.348 . S
C1178 C1180 1.353 . S
C1178 H1220 0.929 . S
C1179 C1176 1.356 . S
C1179 C1181 1.358 . S
C1179 H1221 0.930 . S
C1180 N1177 1.314 . S
C1180 C1178 1.353 . S
C1180 H1222 0.930 . S
C1181 N1177 1.279 . S
C1181 C1179 1.358 . S
C1181 H1223 0.930 . S
C1182 C1183 1.348 . S
C1182 C1184 1.356 . S
C1182 O1207 1.325 . S
C1183 C1182 1.348 . S
C1183 C1185 1.353 . S
C1183 H1224 0.929 . S
C1184 C1182 1.356 . S
C1184 C1186 1.358 . S
C1184 H1225 0.930 . S
C1185 C1183 1.353 . S
C1185 N1187 1.314 . S
C1185 H1226 0.930 . S
C1186 C1184 1.358 . S
C1186 N1187 1.279 . S
C1186 H1227 0.930 . S
N1187 C1185 1.314 . S
N1187 C1186 1.279 . S
C1188 C1190 1.353 . S
C1188 N1191 1.314 . S
C1188 H1194 0.930 . S
C1189 N1191 1.279 . S
C1189 C1192 1.358 . S
C1189 H1195 0.930 . S
C1190 C1188 1.353 . S
C1190 C1193 1.348 . S
C1190 H1228 0.929 . S
N1191 Li1146 1.990 . S
N1191 C1188 1.314 . S
N1191 C1189 1.279 . S
C1192 C1189 1.358 . S
C1192 C1193 1.356 . S
C1192 H1229 0.930 . S
C1193 C1190 1.348 . S
C1193 C1192 1.356 . S
H1194 C1188 0.930 . S
H1195 C1189 0.930 . S
C1196 N1197 1.314 . S
C1196 C1198 1.353 . S
C1196 H1202 0.930 . S
N1197 Li1147 1.990 . S
N1197 C1196 1.314 . S
N1197 C1200 1.279 . S
C1198 C1196 1.353 . S
C1198 C1201 1.348 . S
C1198 H1230 0.929 . S
C1199 C1200 1.358 . S
C1199 C1201 1.356 . S
C1199 H1231 0.930 . S
C1200 N1197 1.279 . S
C1200 C1199 1.358 . S
C1200 H1203 0.930 . S
C1201 C1198 1.348 . S
C1201 C1199 1.356 . S
H1202 C1196 0.930 . S
H1203 C1200 0.930 . S
O1204 Li1144 1.956 . S
O1204 Li1145 1.970 . S
O1204 Li1146 1.961 . S
O1204 C1148 1.325 . S
O1205 Li1144 1.970 . S
O1205 Li1145 1.956 . S
O1205 Li1147 1.961 . S
O1205 C1154 1.325 . S
O1206 Li1144 1.961 . S
O1206 Li1146 1.956 . S
O1206 Li1147 1.970 . S
O1206 C1176 1.325 . S
O1207 Li1145 1.961 . S
O1207 Li1146 1.970 . S
O1207 Li1147 1.956 . S
O1207 C1182 1.325 . S
H1208 C1150 0.929 . S
H1209 C1151 0.930 . S
H1210 C1152 0.930 . S
H1211 C1153 0.930 . S
H1212 C1155 0.930 . S
H1213 C1157 0.929 . S
H1214 C1158 0.930 . S
H1215 C1159 0.930 . S
H1216 C1162 0.930 . S
H1217 C1165 0.929 . S
H1218 C1170 0.929 . S
H1219 C1171 0.930 . S
H1220 C1178 0.929 . S
H1221 C1179 0.930 . S
H1222 C1180 0.930 . S
H1223 C1181 0.930 . S
H1224 C1183 0.929 . S
H1225 C1184 0.930 . S
H1226 C1185 0.930 . S
H1227 C1186 0.930 . S
H1228 C1190 0.929 . S
H1229 C1192 0.930 . S
H1230 C1198 0.929 . S
H1231 C1199 0.930 . S
Li1232 N1249 1.990 . S
Li1232 O1292 1.956 . S
Li1232 O1293 1.970 . S
Li1232 O1294 1.961 . S
Li1233 N1257 1.990 . S
Li1233 O1292 1.970 . S
Li1233 O1293 1.956 . S
Li1233 O1295 1.961 . S
Li1234 N1279 1.990 . S
Li1234 O1292 1.961 . S
Li1234 O1294 1.956 . S
Li1234 O1295 1.970 . S
Li1235 N1285 1.990 . S
Li1235 O1293 1.961 . S
Li1235 O1294 1.970 . S
Li1235 O1295 1.956 . S
C1236 C1238 1.348 . S
C1236 C1239 1.356 . S
C1236 O1292 1.325 . S
N1237 C1240 1.314 . S
N1237 C1241 1.279 . S
C1238 C1236 1.348 . S
C1238 C1240 1.353 . S
C1238 H1296 0.929 . S
C1239 C1236 1.356 . S
C1239 C1241 1.358 . S
C1239 H1297 0.930 . S
C1240 N1237 1.314 . S
C1240 C1238 1.353 . S
C1240 H1298 0.930 . S
C1241 N1237 1.279 . S
C1241 C1239 1.358 . S
C1241 H1299 0.930 . S
C1242 C1245 1.348 . S
C1242 C1246 1.356 . S
C1242 O1293 1.325 . S
C1243 N1244 1.279 . S
C1243 C1246 1.358 . S
C1243 H1300 0.930 . S
N1244 C1243 1.279 . S
N1244 C1247 1.314 . S
C1245 C1242 1.348 . S
C1245 C1247 1.353 . S
C1245 H1301 0.929 . S
C1246 C1242 1.356 . S
C1246 C1243 1.358 . S
C1246 H1302 0.930 . S
C1247 N1244 1.314 . S
C1247 C1245 1.353 . S
C1247 H1303 0.930 . S
C1248 N1249 1.314 . S
C1248 C1253 1.353 . S
C1248 H1254 0.930 . S
N1249 Li1232 1.990 . S
N1249 C1248 1.314 . S
N1249 C1251 1.279 . S
C1250 C1251 1.358 . S
C1250 C1252 1.356 . S
C1250 H1304 0.930 . S
C1251 N1249 1.279 . S
C1251 C1250 1.358 . S
C1251 H1255 0.930 . S
C1252 C1250 1.356 . S
C1252 C1253 1.348 . S
C1253 C1248 1.353 . S
C1253 C1252 1.348 . S
C1253 H1305 0.929 . S
H1254 C1248 0.930 . S
H1255 C1251 0.930 . S
C1256 N1257 1.314 . S
C1256 C1258 1.353 . S
C1256 H1262 0.930 . S
N1257 Li1233 1.990 . S
N1257 C1256 1.314 . S
N1257 C1260 1.279 . S
C1258 C1256 1.353 . S
C1258 C1261 1.348 . S
C1258 H1306 0.929 . S
C1259 C1260 1.358 . S
C1259 C1261 1.356 . S
C1259 H1307 0.930 . S
C1260 N1257 1.279 . S
C1260 C1259 1.358 . S
C1260 H1263 0.930 . S
C1261 C1258 1.348 . S
C1261 C1259 1.356 . S
H1262 C1256 0.930 . S
H1263 C1260 0.930 . S
C1264 C1266 1.348 . S
C1264 C1267 1.356 . S
C1264 O1294 1.325 . S
N1265 C1268 1.314 . S
N1265 C1269 1.279 . S
C1266 C1264 1.348 . S
C1266 C1268 1.353 . S
C1266 H1308 0.929 . S
C1267 C1264 1.356 . S
C1267 C1269 1.358 . S
C1267 H1309 0.930 . S
C1268 N1265 1.314 . S
C1268 C1266 1.353 . S
C1268 H1310 0.930 . S
C1269 N1265 1.279 . S
C1269 C1267 1.358 . S
C1269 H1311 0.930 . S
C1270 C1271 1.348 . S
C1270 C1272 1.356 . S
C1270 O1295 1.325 . S
C1271 C1270 1.348 . S
C1271 C1273 1.353 . S
C1271 H1312 0.929 . S
C1272 C1270 1.356 . S
C1272 C1274 1.358 . S
C1272 H1313 0.930 . S
C1273 C1271 1.353 . S
C1273 N1275 1.314 . S
C1273 H1314 0.930 . S
C1274 C1272 1.358 . S
C1274 N1275 1.279 . S
C1274 H1315 0.930 . S
N1275 C1273 1.314 . S
N1275 C1274 1.279 . S
C1276 C1278 1.353 . S
C1276 N1279 1.314 . S
C1276 H1282 0.930 . S
C1277 N1279 1.279 . S
C1277 C1280 1.358 . S
C1277 H1283 0.930 . S
C1278 C1276 1.353 . S
C1278 C1281 1.348 . S
C1278 H1316 0.929 . S
N1279 Li1234 1.990 . S
N1279 C1276 1.314 . S
N1279 C1277 1.279 . S
C1280 C1277 1.358 . S
C1280 C1281 1.356 . S
C1280 H1317 0.930 . S
C1281 C1278 1.348 . S
C1281 C1280 1.356 . S
H1282 C1276 0.930 . S
H1283 C1277 0.930 . S
C1284 N1285 1.314 . S
C1284 C1286 1.353 . S
C1284 H1290 0.930 . S
N1285 Li1235 1.990 . S
N1285 C1284 1.314 . S
N1285 C1288 1.279 . S
C1286 C1284 1.353 . S
C1286 C1289 1.348 . S
C1286 H1318 0.929 . S
C1287 C1288 1.358 . S
C1287 C1289 1.356 . S
C1287 H1319 0.930 . S
C1288 N1285 1.279 . S
C1288 C1287 1.358 . S
C1288 H1291 0.930 . S
C1289 C1286 1.348 . S
C1289 C1287 1.356 . S
H1290 C1284 0.930 . S
H1291 C1288 0.930 . S
O1292 Li1232 1.956 . S
O1292 Li1233 1.970 . S
O1292 Li1234 1.961 . S
O1292 C1236 1.325 . S
O1293 Li1232 1.970 . S
O1293 Li1233 1.956 . S
O1293 Li1235 1.961 . S
O1293 C1242 1.325 . S
O1294 Li1232 1.961 . S
O1294 Li1234 1.956 . S
O1294 Li1235 1.970 . S
O1294 C1264 1.325 . S
O1295 Li1233 1.961 . S
O1295 Li1234 1.970 . S
O1295 Li1235 1.956 . S
O1295 C1270 1.325 . S
H1296 C1238 0.929 . S
H1297 C1239 0.930 . S
H1298 C1240 0.930 . S
H1299 C1241 0.930 . S
H1300 C1243 0.930 . S
H1301 C1245 0.929 . S
H1302 C1246 0.930 . S
H1303 C1247 0.930 . S
H1304 C1250 0.930 . S
H1305 C1253 0.929 . S
H1306 C1258 0.929 . S
H1307 C1259 0.930 . S
H1308 C1266 0.929 . S
H1309 C1267 0.930 . S
H1310 C1268 0.930 . S
H1311 C1269 0.930 . S
H1312 C1271 0.929 . S
H1313 C1272 0.930 . S
H1314 C1273 0.930 . S
H1315 C1274 0.930 . S
H1316 C1278 0.929 . S
H1317 C1280 0.930 . S
H1318 C1286 0.929 . S
H1319 C1287 0.930 . S
Li1320 N1337 1.990 . S
Li1320 O1380 1.956 . S
Li1320 O1381 1.970 . S
Li1320 O1382 1.961 . S
Li1321 N1345 1.990 . S
Li1321 O1380 1.970 . S
Li1321 O1381 1.956 . S
Li1321 O1383 1.961 . S
Li1322 N1367 1.990 . S
Li1322 O1380 1.961 . S
Li1322 O1382 1.956 . S
Li1322 O1383 1.970 . S
Li1323 N1373 1.990 . S
Li1323 O1381 1.961 . S
Li1323 O1382 1.970 . S
Li1323 O1383 1.956 . S
C1324 C1326 1.348 . S
C1324 C1327 1.356 . S
C1324 O1380 1.325 . S
N1325 C1328 1.314 . S
N1325 C1329 1.279 . S
C1326 C1324 1.348 . S
C1326 C1328 1.353 . S
C1326 H1384 0.929 . S
C1327 C1324 1.356 . S
C1327 C1329 1.358 . S
C1327 H1385 0.930 . S
C1328 N1325 1.314 . S
C1328 C1326 1.353 . S
C1328 H1386 0.930 . S
C1329 N1325 1.279 . S
C1329 C1327 1.358 . S
C1329 H1387 0.930 . S
C1330 C1333 1.348 . S
C1330 C1334 1.356 . S
C1330 O1381 1.325 . S
C1331 N1332 1.279 . S
C1331 C1334 1.358 . S
C1331 H1388 0.930 . S
N1332 C1331 1.279 . S
N1332 C1335 1.314 . S
C1333 C1330 1.348 . S
C1333 C1335 1.353 . S
C1333 H1389 0.929 . S
C1334 C1330 1.356 . S
C1334 C1331 1.358 . S
C1334 H1390 0.930 . S
C1335 N1332 1.314 . S
C1335 C1333 1.353 . S
C1335 H1391 0.930 . S
C1336 N1337 1.314 . S
C1336 C1341 1.353 . S
C1336 H1342 0.930 . S
N1337 Li1320 1.990 . S
N1337 C1336 1.314 . S
N1337 C1339 1.279 . S
C1338 C1339 1.358 . S
C1338 C1340 1.356 . S
C1338 H1392 0.930 . S
C1339 N1337 1.279 . S
C1339 C1338 1.358 . S
C1339 H1343 0.930 . S
C1340 C1338 1.356 . S
C1340 C1341 1.348 . S
C1341 C1336 1.353 . S
C1341 C1340 1.348 . S
C1341 H1393 0.929 . S
H1342 C1336 0.930 . S
H1343 C1339 0.930 . S
C1344 N1345 1.314 . S
C1344 C1346 1.353 . S
C1344 H1350 0.930 . S
N1345 Li1321 1.990 . S
N1345 C1344 1.314 . S
N1345 C1348 1.279 . S
C1346 C1344 1.353 . S
C1346 C1349 1.348 . S
C1346 H1394 0.929 . S
C1347 C1348 1.358 . S
C1347 C1349 1.356 . S
C1347 H1395 0.930 . S
C1348 N1345 1.279 . S
C1348 C1347 1.358 . S
C1348 H1351 0.930 . S
C1349 C1346 1.348 . S
C1349 C1347 1.356 . S
H1350 C1344 0.930 . S
H1351 C1348 0.930 . S
C1352 C1354 1.348 . S
C1352 C1355 1.356 . S
C1352 O1382 1.325 . S
N1353 C1356 1.314 . S
N1353 C1357 1.279 . S
C1354 C1352 1.348 . S
C1354 C1356 1.353 . S
C1354 H1396 0.929 . S
C1355 C1352 1.356 . S
C1355 C1357 1.358 . S
C1355 H1397 0.930 . S
C1356 N1353 1.314 . S
C1356 C1354 1.353 . S
C1356 H1398 0.930 . S
C1357 N1353 1.279 . S
C1357 C1355 1.358 . S
C1357 H1399 0.930 . S
C1358 C1359 1.348 . S
C1358 C1360 1.356 . S
C1358 O1383 1.325 . S
C1359 C1358 1.348 . S
C1359 C1361 1.353 . S
C1359 H1400 0.929 . S
C1360 C1358 1.356 . S
C1360 C1362 1.358 . S
C1360 H1401 0.930 . S
C1361 C1359 1.353 . S
C1361 N1363 1.314 . S
C1361 H1402 0.930 . S
C1362 C1360 1.358 . S
C1362 N1363 1.279 . S
C1362 H1403 0.930 . S
N1363 C1361 1.314 . S
N1363 C1362 1.279 . S
C1364 C1366 1.353 . S
C1364 N1367 1.314 . S
C1364 H1370 0.930 . S
C1365 N1367 1.279 . S
C1365 C1368 1.358 . S
C1365 H1371 0.930 . S
C1366 C1364 1.353 . S
C1366 C1369 1.348 . S
C1366 H1404 0.929 . S
N1367 Li1322 1.990 . S
N1367 C1364 1.314 . S
N1367 C1365 1.279 . S
C1368 C1365 1.358 . S
C1368 C1369 1.356 . S
C1368 H1405 0.930 . S
C1369 C1366 1.348 . S
C1369 C1368 1.356 . S
H1370 C1364 0.930 . S
H1371 C1365 0.930 . S
C1372 N1373 1.314 . S
C1372 C1374 1.353 . S
C1372 H1378 0.930 . S
N1373 Li1323 1.990 . S
N1373 C1372 1.314 . S
N1373 C1376 1.279 . S
C1374 C1372 1.353 . S
C1374 C1377 1.348 . S
C1374 H1406 0.929 . S
C1375 C1376 1.358 . S
C1375 C1377 1.356 . S
C1375 H1407 0.930 . S
C1376 N1373 1.279 . S
C1376 C1375 1.358 . S
C1376 H1379 0.930 . S
C1377 C1374 1.348 . S
C1377 C1375 1.356 . S
H1378 C1372 0.930 . S
H1379 C1376 0.930 . S
O1380 Li1320 1.956 . S
O1380 Li1321 1.970 . S
O1380 Li1322 1.961 . S
O1380 C1324 1.325 . S
O1381 Li1320 1.970 . S
O1381 Li1321 1.956 . S
O1381 Li1323 1.961 . S
O1381 C1330 1.325 . S
O1382 Li1320 1.961 . S
O1382 Li1322 1.956 . S
O1382 Li1323 1.970 . S
O1382 C1352 1.325 . S
O1383 Li1321 1.961 . S
O1383 Li1322 1.970 . S
O1383 Li1323 1.956 . S
O1383 C1358 1.325 . S
H1384 C1326 0.929 . S
H1385 C1327 0.930 . S
H1386 C1328 0.930 . S
H1387 C1329 0.930 . S
H1388 C1331 0.930 . S
H1389 C1333 0.929 . S
H1390 C1334 0.930 . S
H1391 C1335 0.930 . S
H1392 C1338 0.930 . S
H1393 C1341 0.929 . S
H1394 C1346 0.929 . S
H1395 C1347 0.930 . S
H1396 C1354 0.929 . S
H1397 C1355 0.930 . S
H1398 C1356 0.930 . S
H1399 C1357 0.930 . S
H1400 C1359 0.929 . S
H1401 C1360 0.930 . S
H1402 C1361 0.930 . S
H1403 C1362 0.930 . S
H1404 C1366 0.929 . S
H1405 C1368 0.930 . S
H1406 C1374 0.929 . S
H1407 C1375 0.930 . S
H1408 C1426 0.951 . S
H1409 C1428 0.951 . S
H1410 C1430 0.950 . S
H1411 C1431 0.950 . S
H1412 C1433 0.950 . S
H1413 C1436 0.950 . S
H1414 C1437 0.950 . S
H1415 C1439 0.950 . S
H1416 C1440 0.950 . S
H1417 C1441 0.951 . S
H1418 C1443 0.951 . S
H1419 C1445 0.950 . S
H1420 C1446 0.950 . S
H1421 C1448 0.950 . S
H1422 C1451 0.950 . S
H1423 C1452 0.950 . S
H1424 C1454 0.950 . S
H1425 C1455 0.950 . S
C1426 H1408 0.951 . S
C1426 C1427 1.366 . S
C1426 C1428 1.388 . S
C1427 C1426 1.366 . S
C1427 C1431 1.385 . S
C1428 H1409 0.951 . S
C1428 C1426 1.388 . S
C1428 C1429 1.366 . S
C1429 C1428 1.366 . S
C1429 C1430 1.414 . S
C1429 C1432 1.499 . S
C1430 H1410 0.950 . S
C1430 C1429 1.414 . S
C1430 C1431 1.374 . S
C1431 H1411 0.950 . S
C1431 C1427 1.385 . S
C1431 C1430 1.374 . S
C1432 C1429 1.499 . S
C1432 C1433 1.373 . S
C1432 C1434 1.389 1_554 S
C1433 H1412 0.950 . S
C1433 C1432 1.373 . S
C1433 C1449 1.377 . S
C1434 C1432 1.389 1_556 S
C1434 C1435 1.524 . S
C1434 C1448 1.377 . S
C1435 C1434 1.524 . S
C1435 C1436 1.397 . S
C1435 C1440 1.363 . S
C1436 H1413 0.950 . S
C1436 C1435 1.397 . S
C1436 C1437 1.334 . S
C1437 H1414 0.950 . S
C1437 C1436 1.334 . S
C1437 C1438 1.287 . S
C1438 C1437 1.287 . S
C1438 C1439 1.524 . S
C1438 H1457 0.913 . S
C1439 H1415 0.950 . S
C1439 C1438 1.524 . S
C1439 C1440 1.415 . S
C1440 H1416 0.950 . S
C1440 C1435 1.363 . S
C1440 C1439 1.415 . S
C1441 H1417 0.951 . S
C1441 C1442 1.366 . S
C1441 C1443 1.388 . S
C1442 C1441 1.366 . S
C1442 C1446 1.385 . S
C1443 H1418 0.951 . S
C1443 C1441 1.388 . S
C1443 C1444 1.366 . S
C1444 C1443 1.366 . S
C1444 C1445 1.414 . S
C1444 C1447 1.499 . S
C1445 H1419 0.950 . S
C1445 C1444 1.414 . S
C1445 C1446 1.374 . S
C1446 H1420 0.950 . S
C1446 C1442 1.385 . S
C1446 C1445 1.374 . S
C1447 C1444 1.499 . S
C1447 C1448 1.373 . S
C1447 C1449 1.389 1_556 S
C1448 H1421 0.950 . S
C1448 C1434 1.377 . S
C1448 C1447 1.373 . S
C1449 C1433 1.377 . S
C1449 C1447 1.389 1_554 S
C1449 C1450 1.524 . S
C1450 C1449 1.524 . S
C1450 C1451 1.397 . S
C1450 C1455 1.363 . S
C1451 H1422 0.950 . S
C1451 C1450 1.397 . S
C1451 C1452 1.334 . S
C1452 H1423 0.950 . S
C1452 C1451 1.334 . S
C1452 C1453 1.287 . S
C1453 C1452 1.287 . S
C1453 C1454 1.524 . S
C1453 H1456 0.999 . S
C1454 H1424 0.950 . S
C1454 C1453 1.524 . S
C1454 C1455 1.415 . S
C1455 H1425 0.950 . S
C1455 C1450 1.363 . S
C1455 C1454 1.415 . S
H1456 C1453 0.999 . S
H1457 C1438 0.913 . S
H1458 C1476 0.951 . S
H1459 C1478 0.951 . S
H1460 C1480 0.950 . S
H1461 C1481 0.950 . S
H1462 C1483 0.950 . S
H1463 C1486 0.950 . S
H1464 C1487 0.950 . S
H1465 C1489 0.950 . S
H1466 C1490 0.950 . S
H1467 C1491 0.951 . S
H1468 C1493 0.951 . S
H1469 C1495 0.950 . S
H1470 C1496 0.950 . S
H1471 C1498 0.950 . S
H1472 C1501 0.950 . S
H1473 C1502 0.950 . S
H1474 C1504 0.950 . S
H1475 C1505 0.950 . S
C1476 H1458 0.951 . S
C1476 C1477 1.366 . S
C1476 C1478 1.388 . S
C1477 C1476 1.366 . S
C1477 C1481 1.385 . S
C1478 H1459 0.951 . S
C1478 C1476 1.388 . S
C1478 C1479 1.366 . S
C1479 C1478 1.366 . S
C1479 C1480 1.414 . S
C1479 C1482 1.499 . S
C1480 H1460 0.950 . S
C1480 C1479 1.414 . S
C1480 C1481 1.374 . S
C1481 H1461 0.950 . S
C1481 C1477 1.385 . S
C1481 C1480 1.374 . S
C1482 C1479 1.499 . S
C1482 C1483 1.373 . S
C1482 C1484 1.389 . S
C1483 H1462 0.950 . S
C1483 C1482 1.373 . S
C1483 C1499 1.377 . S
C1484 C1482 1.389 . S
C1484 C1485 1.524 . S
C1484 C1498 1.377 . S
C1485 C1484 1.524 . S
C1485 C1486 1.397 . S
C1485 C1490 1.363 . S
C1486 H1463 0.950 . S
C1486 C1485 1.397 . S
C1486 C1487 1.334 . S
C1487 H1464 0.950 . S
C1487 C1486 1.334 . S
C1487 C1488 1.287 . S
C1488 C1487 1.287 . S
C1488 C1489 1.524 . S
C1488 H1507 0.913 . S
C1489 H1465 0.950 . S
C1489 C1488 1.524 . S
C1489 C1490 1.415 . S
C1490 H1466 0.950 . S
C1490 C1485 1.363 . S
C1490 C1489 1.415 . S
C1491 H1467 0.951 . S
C1491 C1492 1.366 . S
C1491 C1493 1.388 . S
C1492 C1491 1.366 . S
C1492 C1496 1.385 . S
C1493 H1468 0.951 . S
C1493 C1491 1.388 . S
C1493 C1494 1.366 . S
C1494 C1493 1.366 . S
C1494 C1495 1.414 . S
C1494 C1497 1.499 . S
C1495 H1469 0.950 . S
C1495 C1494 1.414 . S
C1495 C1496 1.374 . S
C1496 H1470 0.950 . S
C1496 C1492 1.385 . S
C1496 C1495 1.374 . S
C1497 C1494 1.499 . S
C1497 C1498 1.373 . S
C1497 C1499 1.389 . S
C1498 H1471 0.950 . S
C1498 C1484 1.377 . S
C1498 C1497 1.373 . S
C1499 C1483 1.377 . S
C1499 C1497 1.389 . S
C1499 C1500 1.524 . S
C1500 C1499 1.524 . S
C1500 C1501 1.397 . S
C1500 C1505 1.363 . S
C1501 H1472 0.950 . S
C1501 C1500 1.397 . S
C1501 C1502 1.334 . S
C1502 H1473 0.950 . S
C1502 C1501 1.334 . S
C1502 C1503 1.287 . S
C1503 C1502 1.287 . S
C1503 C1504 1.524 . S
C1503 H1506 0.999 . S
C1504 H1474 0.950 . S
C1504 C1503 1.524 . S
C1504 C1505 1.415 . S
C1505 H1475 0.950 . S
C1505 C1500 1.363 . S
C1505 C1504 1.415 . S
H1506 C1503 0.999 . S
H1507 C1488 0.913 . S
H1508 C1526 0.951 . S
H1509 C1528 0.951 . S
H1510 C1530 0.950 . S
H1511 C1531 0.950 . S
H1512 C1533 0.950 . S
H1513 C1536 0.950 . S
H1514 C1537 0.950 . S
H1515 C1539 0.950 . S
H1516 C1540 0.950 . S
H1517 C1541 0.951 . S
H1518 C1543 0.951 . S
H1519 C1545 0.950 . S
H1520 C1546 0.950 . S
H1521 C1548 0.950 . S
H1522 C1551 0.950 . S
H1523 C1552 0.950 . S
H1524 C1554 0.950 . S
H1525 C1555 0.950 . S
C1526 H1508 0.951 . S
C1526 C1527 1.366 . S
C1526 C1528 1.388 . S
C1527 C1526 1.366 . S
C1527 C1531 1.385 . S
C1528 H1509 0.951 . S
C1528 C1526 1.388 . S
C1528 C1529 1.366 . S
C1529 C1528 1.366 . S
C1529 C1530 1.414 . S
C1529 C1532 1.499 . S
C1530 H1510 0.950 . S
C1530 C1529 1.414 . S
C1530 C1531 1.374 . S
C1531 H1511 0.950 . S
C1531 C1527 1.385 . S
C1531 C1530 1.374 . S
C1532 C1529 1.499 . S
C1532 C1533 1.373 . S
C1532 C1534 1.389 1_556 S
C1533 H1512 0.950 . S
C1533 C1532 1.373 . S
C1533 C1549 1.377 . S
C1534 C1532 1.389 1_554 S
C1534 C1535 1.524 . S
C1534 C1548 1.377 . S
C1535 C1534 1.524 . S
C1535 C1536 1.397 . S
C1535 C1540 1.363 . S
C1536 H1513 0.950 . S
C1536 C1535 1.397 . S
C1536 C1537 1.334 . S
C1537 H1514 0.950 . S
C1537 C1536 1.334 . S
C1537 C1538 1.287 . S
C1538 C1537 1.287 . S
C1538 C1539 1.524 . S
C1538 H1557 0.913 . S
C1539 H1515 0.950 . S
C1539 C1538 1.524 . S
C1539 C1540 1.415 . S
C1540 H1516 0.950 . S
C1540 C1535 1.363 . S
C1540 C1539 1.415 . S
C1541 H1517 0.951 . S
C1541 C1542 1.366 . S
C1541 C1543 1.388 . S
C1542 C1541 1.366 . S
C1542 C1546 1.385 . S
C1543 H1518 0.951 . S
C1543 C1541 1.388 . S
C1543 C1544 1.366 . S
C1544 C1543 1.366 . S
C1544 C1545 1.414 . S
C1544 C1547 1.499 . S
C1545 H1519 0.950 . S
C1545 C1544 1.414 . S
C1545 C1546 1.374 . S
C1546 H1520 0.950 . S
C1546 C1542 1.385 . S
C1546 C1545 1.374 . S
C1547 C1544 1.499 . S
C1547 C1548 1.373 . S
C1547 C1549 1.389 1_554 S
C1548 H1521 0.950 . S
C1548 C1534 1.377 . S
C1548 C1547 1.373 . S
C1549 C1533 1.377 . S
C1549 C1547 1.389 1_556 S
C1549 C1550 1.524 . S
C1550 C1549 1.524 . S
C1550 C1551 1.397 . S
C1550 C1555 1.363 . S
C1551 H1522 0.950 . S
C1551 C1550 1.397 . S
C1551 C1552 1.334 . S
C1552 H1523 0.950 . S
C1552 C1551 1.334 . S
C1552 C1553 1.287 . S
C1553 C1552 1.287 . S
C1553 C1554 1.524 . S
C1553 H1556 0.999 . S
C1554 H1524 0.950 . S
C1554 C1553 1.524 . S
C1554 C1555 1.415 . S
C1555 H1525 0.950 . S
C1555 C1550 1.363 . S
C1555 C1554 1.415 . S
H1556 C1553 0.999 . S
H1557 C1538 0.913 . S
H1558 C1576 0.951 . S
H1559 C1578 0.951 . S
H1560 C1580 0.950 . S
H1561 C1581 0.950 . S
H1562 C1583 0.950 . S
H1563 C1586 0.950 . S
H1564 C1587 0.950 . S
H1565 C1589 0.950 . S
H1566 C1590 0.950 . S
H1567 C1591 0.951 . S
H1568 C1593 0.951 . S
H1569 C1595 0.950 . S
H1570 C1596 0.950 . S
H1571 C1598 0.950 . S
H1572 C1601 0.950 . S
H1573 C1602 0.950 . S
H1574 C1604 0.950 . S
H1575 C1605 0.950 . S
C1576 H1558 0.951 . S
C1576 C1577 1.366 . S
C1576 C1578 1.388 . S
C1577 C1576 1.366 . S
C1577 C1581 1.385 . S
C1578 H1559 0.951 . S
C1578 C1576 1.388 . S
C1578 C1579 1.366 . S
C1579 C1578 1.366 . S
C1579 C1580 1.414 . S
C1579 C1582 1.499 . S
C1580 H1560 0.950 . S
C1580 C1579 1.414 . S
C1580 C1581 1.374 . S
C1581 H1561 0.950 . S
C1581 C1577 1.385 . S
C1581 C1580 1.374 . S
C1582 C1579 1.499 . S
C1582 C1583 1.373 . S
C1582 C1584 1.389 . S
C1583 H1562 0.950 . S
C1583 C1582 1.373 . S
C1583 C1599 1.377 . S
C1584 C1582 1.389 . S
C1584 C1585 1.524 . S
C1584 C1598 1.377 . S
C1585 C1584 1.524 . S
C1585 C1586 1.397 . S
C1585 C1590 1.363 . S
C1586 H1563 0.950 . S
C1586 C1585 1.397 . S
C1586 C1587 1.334 . S
C1587 H1564 0.950 . S
C1587 C1586 1.334 . S
C1587 C1588 1.287 . S
C1588 C1587 1.287 . S
C1588 C1589 1.524 . S
C1588 H1607 0.913 . S
C1589 H1565 0.950 . S
C1589 C1588 1.524 . S
C1589 C1590 1.415 . S
C1590 H1566 0.950 . S
C1590 C1585 1.363 . S
C1590 C1589 1.415 . S
C1591 H1567 0.951 . S
C1591 C1592 1.366 . S
C1591 C1593 1.388 . S
C1592 C1591 1.366 . S
C1592 C1596 1.385 . S
C1593 H1568 0.951 . S
C1593 C1591 1.388 . S
C1593 C1594 1.366 . S
C1594 C1593 1.366 . S
C1594 C1595 1.414 . S
C1594 C1597 1.499 . S
C1595 H1569 0.950 . S
C1595 C1594 1.414 . S
C1595 C1596 1.374 . S
C1596 H1570 0.950 . S
C1596 C1592 1.385 . S
C1596 C1595 1.374 . S
C1597 C1594 1.499 . S
C1597 C1598 1.373 . S
C1597 C1599 1.389 . S
C1598 H1571 0.950 . S
C1598 C1584 1.377 . S
C1598 C1597 1.373 . S
C1599 C1583 1.377 . S
C1599 C1597 1.389 . S
C1599 C1600 1.524 . S
C1600 C1599 1.524 . S
C1600 C1601 1.397 . S
C1600 C1605 1.363 . S
C1601 H1572 0.950 . S
C1601 C1600 1.397 . S
C1601 C1602 1.334 . S
C1602 H1573 0.950 . S
C1602 C1601 1.334 . S
C1602 C1603 1.287 . S
C1603 C1602 1.287 . S
C1603 C1604 1.524 . S
C1603 H1606 0.999 . S
C1604 H1574 0.950 . S
C1604 C1603 1.524 . S
C1604 C1605 1.415 . S
C1605 H1575 0.950 . S
C1605 C1600 1.363 . S
C1605 C1604 1.415 . S
H1606 C1603 0.999 . S
H1607 C1588 0.913 . S
H1608 C1626 0.951 . S
H1609 C1628 0.951 . S
H1610 C1630 0.950 . S
H1611 C1631 0.950 . S
H1612 C1633 0.950 . S
H1613 C1636 0.950 . S
H1614 C1637 0.950 . S
H1615 C1639 0.950 . S
H1616 C1640 0.950 1_556 S
H1617 C1641 0.951 . S
H1618 C1643 0.951 . S
H1619 C1645 0.950 . S
H1620 C1646 0.950 . S
H1621 C1648 0.950 . S
H1622 C1651 0.950 . S
H1623 C1652 0.950 . S
H1624 C1654 0.950 . S
H1625 C1655 0.950 1_554 S
C1626 H1608 0.951 . S
C1626 C1627 1.366 . S
C1626 C1628 1.388 . S
C1627 C1626 1.366 . S
C1627 C1631 1.385 . S
C1628 H1609 0.951 . S
C1628 C1626 1.388 . S
C1628 C1629 1.366 . S
C1629 C1628 1.366 . S
C1629 C1630 1.414 . S
C1629 C1632 1.499 . S
C1630 H1610 0.950 . S
C1630 C1629 1.414 . S
C1630 C1631 1.374 . S
C1631 H1611 0.950 . S
C1631 C1627 1.385 . S
C1631 C1630 1.374 . S
C1632 C1629 1.499 . S
C1632 C1633 1.373 . S
C1632 C1634 1.389 . S
C1633 H1612 0.950 . S
C1633 C1632 1.373 . S
C1633 C1649 1.377 1_554 S
C1634 C1632 1.389 . S
C1634 C1635 1.524 . S
C1634 C1648 1.377 1_554 S
C1635 C1634 1.524 . S
C1635 C1636 1.397 . S
C1635 C1640 1.363 . S
C1636 H1613 0.950 . S
C1636 C1635 1.397 . S
C1636 C1637 1.334 . S
C1637 H1614 0.950 . S
C1637 C1636 1.334 . S
C1637 C1638 1.287 . S
C1638 C1637 1.287 . S
C1638 C1639 1.524 . S
C1638 H1657 0.913 . S
C1639 H1615 0.950 . S
C1639 C1638 1.524 . S
C1639 C1640 1.415 . S
C1640 H1616 0.950 1_554 S
C1640 C1635 1.363 . S
C1640 C1639 1.415 . S
C1641 H1617 0.951 . S
C1641 C1642 1.366 . S
C1641 C1643 1.388 . S
C1642 C1641 1.366 . S
C1642 C1646 1.385 . S
C1643 H1618 0.951 . S
C1643 C1641 1.388 . S
C1643 C1644 1.366 . S
C1644 C1643 1.366 . S
C1644 C1645 1.414 . S
C1644 C1647 1.499 . S
C1645 H1619 0.950 . S
C1645 C1644 1.414 . S
C1645 C1646 1.374 . S
C1646 H1620 0.950 . S
C1646 C1642 1.385 . S
C1646 C1645 1.374 . S
C1647 C1644 1.499 . S
C1647 C1648 1.373 . S
C1647 C1649 1.389 . S
C1648 H1621 0.950 . S
C1648 C1634 1.377 1_556 S
C1648 C1647 1.373 . S
C1649 C1633 1.377 1_556 S
C1649 C1647 1.389 . S
C1649 C1650 1.524 . S
C1650 C1649 1.524 . S
C1650 C1651 1.397 . S
C1650 C1655 1.363 . S
C1651 H1622 0.950 . S
C1651 C1650 1.397 . S
C1651 C1652 1.334 . S
C1652 H1623 0.950 . S
C1652 C1651 1.334 . S
C1652 C1653 1.287 . S
C1653 C1652 1.287 . S
C1653 C1654 1.524 . S
C1653 H1656 0.999 . S
C1654 H1624 0.950 . S
C1654 C1653 1.524 . S
C1654 C1655 1.415 . S
C1655 H1625 0.950 1_556 S
C1655 C1650 1.363 . S
C1655 C1654 1.415 . S
H1656 C1653 0.999 . S
H1657 C1638 0.913 . S
H1658 C1676 0.951 . S
H1659 C1678 0.951 . S
H1660 C1680 0.950 . S
H1661 C1681 0.950 . S
H1662 C1683 0.950 . S
H1663 C1686 0.950 . S
H1664 C1687 0.950 . S
H1665 C1689 0.950 . S
H1666 C1690 0.950 . S
H1667 C1691 0.951 . S
H1668 C1693 0.951 . S
H1669 C1695 0.950 . S
H1670 C1696 0.950 . S
H1671 C1698 0.950 . S
H1672 C1701 0.950 . S
H1673 C1702 0.950 . S
H1674 C1704 0.950 . S
H1675 C1705 0.950 . S
C1676 H1658 0.951 . S
C1676 C1677 1.366 . S
C1676 C1678 1.388 . S
C1677 C1676 1.366 . S
C1677 C1681 1.385 . S
C1678 H1659 0.951 . S
C1678 C1676 1.388 . S
C1678 C1679 1.366 . S
C1679 C1678 1.366 . S
C1679 C1680 1.414 . S
C1679 C1682 1.499 . S
C1680 H1660 0.950 . S
C1680 C1679 1.414 . S
C1680 C1681 1.374 . S
C1681 H1661 0.950 . S
C1681 C1677 1.385 . S
C1681 C1680 1.374 . S
C1682 C1679 1.499 . S
C1682 C1683 1.373 . S
C1682 C1684 1.389 . S
C1683 H1662 0.950 . S
C1683 C1682 1.373 . S
C1683 C1699 1.377 . S
C1684 C1682 1.389 . S
C1684 C1685 1.524 . S
C1684 C1698 1.377 . S
C1685 C1684 1.524 . S
C1685 C1686 1.397 . S
C1685 C1690 1.363 . S
C1686 H1663 0.950 . S
C1686 C1685 1.397 . S
C1686 C1687 1.334 . S
C1687 H1664 0.950 . S
C1687 C1686 1.334 . S
C1687 C1688 1.287 . S
C1688 C1687 1.287 . S
C1688 C1689 1.524 . S
C1688 H1707 0.913 . S
C1689 H1665 0.950 . S
C1689 C1688 1.524 . S
C1689 C1690 1.415 . S
C1690 H1666 0.950 . S
C1690 C1685 1.363 . S
C1690 C1689 1.415 . S
C1691 H1667 0.951 . S
C1691 C1692 1.366 . S
C1691 C1693 1.388 . S
C1692 C1691 1.366 . S
C1692 C1696 1.385 . S
C1693 H1668 0.951 . S
C1693 C1691 1.388 . S
C1693 C1694 1.366 . S
C1694 C1693 1.366 . S
C1694 C1695 1.414 . S
C1694 C1697 1.499 . S
C1695 H1669 0.950 . S
C1695 C1694 1.414 . S
C1695 C1696 1.374 . S
C1696 H1670 0.950 . S
C1696 C1692 1.385 . S
C1696 C1695 1.374 . S
C1697 C1694 1.499 . S
C1697 C1698 1.373 . S
C1697 C1699 1.389 . S
C1698 H1671 0.950 . S
C1698 C1684 1.377 . S
C1698 C1697 1.373 . S
C1699 C1683 1.377 . S
C1699 C1697 1.389 . S
C1699 C1700 1.524 . S
C1700 C1699 1.524 . S
C1700 C1701 1.397 . S
C1700 C1705 1.363 . S
C1701 H1672 0.950 . S
C1701 C1700 1.397 . S
C1701 C1702 1.334 . S
C1702 H1673 0.950 . S
C1702 C1701 1.334 . S
C1702 C1703 1.287 . S
C1703 C1702 1.287 . S
C1703 C1704 1.524 . S
C1703 H1706 0.999 . S
C1704 H1674 0.950 . S
C1704 C1703 1.524 . S
C1704 C1705 1.415 . S
C1705 H1675 0.950 . S
C1705 C1700 1.363 . S
C1705 C1704 1.415 . S
H1706 C1703 0.999 . S
H1707 C1688 0.913 . S
H1708 C1726 0.951 . S
H1709 C1728 0.951 . S
H1710 C1730 0.950 . S
H1711 C1731 0.950 . S
H1712 C1733 0.950 . S
H1713 C1736 0.950 . S
H1714 C1737 0.950 . S
H1715 C1739 0.950 . S
H1716 C1740 0.950 . S
H1717 C1741 0.951 . S
H1718 C1743 0.951 . S
H1719 C1745 0.950 . S
H1720 C1746 0.950 . S
H1721 C1748 0.950 . S
H1722 C1751 0.950 . S
H1723 C1752 0.950 . S
H1724 C1754 0.950 . S
H1725 C1755 0.950 . S
C1726 H1708 0.951 . S
C1726 C1727 1.366 . S
C1726 C1728 1.388 . S
C1727 C1726 1.366 . S
C1727 C1731 1.385 . S
C1728 H1709 0.951 . S
C1728 C1726 1.388 . S
C1728 C1729 1.366 . S
C1729 C1728 1.366 . S
C1729 C1730 1.414 . S
C1729 C1732 1.499 . S
C1730 H1710 0.950 . S
C1730 C1729 1.414 . S
C1730 C1731 1.374 . S
C1731 H1711 0.950 . S
C1731 C1727 1.385 . S
C1731 C1730 1.374 . S
C1732 C1729 1.499 . S
C1732 C1733 1.373 1_556 S
C1732 C1734 1.389 . S
C1733 H1712 0.950 . S
C1733 C1732 1.373 1_554 S
C1733 C1749 1.377 . S
C1734 C1732 1.389 . S
C1734 C1735 1.524 . S
C1734 C1748 1.377 . S
C1735 C1734 1.524 . S
C1735 C1736 1.397 . S
C1735 C1740 1.363 . S
C1736 H1713 0.950 . S
C1736 C1735 1.397 . S
C1736 C1737 1.334 . S
C1737 H1714 0.950 . S
C1737 C1736 1.334 . S
C1737 C1738 1.287 . S
C1738 C1737 1.287 . S
C1738 C1739 1.524 . S
C1738 H1757 0.913 . S
C1739 H1715 0.950 . S
C1739 C1738 1.524 . S
C1739 C1740 1.415 . S
C1740 H1716 0.950 . S
C1740 C1735 1.363 . S
C1740 C1739 1.415 . S
C1741 H1717 0.951 . S
C1741 C1742 1.366 . S
C1741 C1743 1.388 . S
C1742 C1741 1.366 . S
C1742 C1746 1.385 . S
C1743 H1718 0.951 . S
C1743 C1741 1.388 . S
C1743 C1744 1.366 . S
C1744 C1743 1.366 . S
C1744 C1745 1.414 . S
C1744 C1747 1.499 . S
C1745 H1719 0.950 . S
C1745 C1744 1.414 . S
C1745 C1746 1.374 . S
C1746 H1720 0.950 . S
C1746 C1742 1.385 . S
C1746 C1745 1.374 . S
C1747 C1744 1.499 . S
C1747 C1748 1.373 1_554 S
C1747 C1749 1.389 . S
C1748 H1721 0.950 . S
C1748 C1734 1.377 . S
C1748 C1747 1.373 1_556 S
C1749 C1733 1.377 . S
C1749 C1747 1.389 . S
C1749 C1750 1.524 . S
C1750 C1749 1.524 . S
C1750 C1751 1.397 . S
C1750 C1755 1.363 . S
C1751 H1722 0.950 . S
C1751 C1750 1.397 . S
C1751 C1752 1.334 . S
C1752 H1723 0.950 . S
C1752 C1751 1.334 . S
C1752 C1753 1.287 . S
C1753 C1752 1.287 . S
C1753 C1754 1.524 . S
C1753 H1756 0.999 . S
C1754 H1724 0.950 . S
C1754 C1753 1.524 . S
C1754 C1755 1.415 . S
C1755 H1725 0.950 . S
C1755 C1750 1.363 . S
C1755 C1754 1.415 . S
H1756 C1753 0.999 . S
H1757 C1738 0.913 . S
H1758 C1776 0.951 . S
H1759 C1778 0.951 . S
H1760 C1780 0.950 . S
H1761 C1781 0.950 . S
H1762 C1783 0.950 . S
H1763 C1786 0.950 . S
H1764 C1787 0.950 . S
H1765 C1789 0.950 . S
H1766 C1790 0.950 . S
H1767 C1791 0.951 . S
H1768 C1793 0.951 . S
H1769 C1795 0.950 . S
H1770 C1796 0.950 . S
H1771 C1798 0.950 . S
H1772 C1801 0.950 . S
H1773 C1802 0.950 . S
H1774 C1804 0.950 . S
H1775 C1805 0.950 . S
C1776 H1758 0.951 . S
C1776 C1777 1.366 . S
C1776 C1778 1.388 . S
C1777 C1776 1.366 . S
C1777 C1781 1.385 . S
C1778 H1759 0.951 . S
C1778 C1776 1.388 . S
C1778 C1779 1.366 . S
C1779 C1778 1.366 . S
C1779 C1780 1.414 . S
C1779 C1782 1.499 . S
C1780 H1760 0.950 . S
C1780 C1779 1.414 . S
C1780 C1781 1.374 . S
C1781 H1761 0.950 . S
C1781 C1777 1.385 . S
C1781 C1780 1.374 . S
C1782 C1779 1.499 . S
C1782 C1783 1.373 . S
C1782 C1784 1.389 . S
C1783 H1762 0.950 . S
C1783 C1782 1.373 . S
C1783 C1799 1.377 . S
C1784 C1782 1.389 . S
C1784 C1785 1.524 . S
C1784 C1798 1.377 . S
C1785 C1784 1.524 . S
C1785 C1786 1.397 . S
C1785 C1790 1.363 . S
C1786 H1763 0.950 . S
C1786 C1785 1.397 . S
C1786 C1787 1.334 . S
C1787 H1764 0.950 . S
C1787 C1786 1.334 . S
C1787 C1788 1.287 . S
C1788 C1787 1.287 . S
C1788 C1789 1.524 . S
C1788 H1807 0.913 . S
C1789 H1765 0.950 . S
C1789 C1788 1.524 . S
C1789 C1790 1.415 . S
C1790 H1766 0.950 . S
C1790 C1785 1.363 . S
C1790 C1789 1.415 . S
C1791 H1767 0.951 . S
C1791 C1792 1.366 . S
C1791 C1793 1.388 . S
C1792 C1791 1.366 . S
C1792 C1796 1.385 . S
C1793 H1768 0.951 . S
C1793 C1791 1.388 . S
C1793 C1794 1.366 . S
C1794 C1793 1.366 . S
C1794 C1795 1.414 . S
C1794 C1797 1.499 . S
C1795 H1769 0.950 . S
C1795 C1794 1.414 . S
C1795 C1796 1.374 . S
C1796 H1770 0.950 . S
C1796 C1792 1.385 . S
C1796 C1795 1.374 . S
C1797 C1794 1.499 . S
C1797 C1798 1.373 . S
C1797 C1799 1.389 . S
C1798 H1771 0.950 . S
C1798 C1784 1.377 . S
C1798 C1797 1.373 . S
C1799 C1783 1.377 . S
C1799 C1797 1.389 . S
C1799 C1800 1.524 . S
C1800 C1799 1.524 . S
C1800 C1801 1.397 . S
C1800 C1805 1.363 . S
C1801 H1772 0.950 . S
C1801 C1800 1.397 . S
C1801 C1802 1.334 . S
C1802 H1773 0.950 . S
C1802 C1801 1.334 . S
C1802 C1803 1.287 . S
C1803 C1802 1.287 . S
C1803 C1804 1.524 . S
C1803 H1806 0.999 . S
C1804 H1774 0.950 . S
C1804 C1803 1.524 . S
C1804 C1805 1.415 . S
C1805 H1775 0.950 . S
C1805 C1800 1.363 . S
C1805 C1804 1.415 . S
H1806 C1803 0.999 . S
H1807 C1788 0.913 . S
H1808 C1826 0.951 . S
H1809 C1828 0.990 . S
H1810 C1830 0.950 . S
H1811 C1831 0.950 . S
H1812 C1833 0.950 . S
H1813 C1836 0.950 . S
H1814 C1837 0.950 . S
H1815 C1839 0.950 . S
H1816 C1840 0.950 . S
H1817 C1841 0.951 . S
H1818 C1843 0.990 . S
H1819 C1845 0.950 . S
H1820 C1846 0.950 . S
H1821 C1848 0.950 . S
H1822 C1851 0.950 . S
H1823 C1852 0.950 . S
H1824 C1854 0.950 . S
H1825 C1855 0.950 . S
C1826 H1808 0.951 . S
C1826 C1827 1.366 . S
C1826 C1828 1.388 . S
C1827 C1826 1.366 . S
C1827 C1831 1.385 . S
C1828 H1809 0.990 . S
C1828 C1826 1.388 . S
C1828 C1829 1.366 . S
C1829 C1828 1.366 . S
C1829 C1830 1.414 . S
C1829 C1832 1.499 . S
C1830 H1810 0.950 . S
C1830 C1829 1.414 . S
C1830 C1831 1.374 . S
C1831 H1811 0.950 . S
C1831 C1827 1.385 . S
C1831 C1830 1.374 . S
C1832 C1829 1.499 . S
C1832 C1833 1.373 . S
C1832 C1834 1.389 1_554 S
C1833 H1812 0.950 . S
C1833 C1832 1.373 . S
C1833 C1849 1.377 1_545 S
C1834 C1832 1.389 1_556 S
C1834 C1835 1.524 . S
C1834 C1848 1.377 1_545 S
C1835 C1834 1.524 . S
C1835 C1836 1.397 1_556 S
C1835 C1840 1.363 . S
C1836 H1813 0.950 . S
C1836 C1835 1.397 1_554 S
C1836 C1837 1.334 . S
C1837 H1814 0.950 . S
C1837 C1836 1.334 . S
C1837 C1838 1.287 1_554 S
C1838 C1837 1.287 1_556 S
C1838 C1839 1.524 . S
C1838 H1857 0.913 . S
C1839 H1815 0.950 . S
C1839 C1838 1.524 . S
C1839 C1840 1.415 . S
C1840 H1816 0.950 . S
C1840 C1835 1.363 . S
C1840 C1839 1.415 . S
C1841 H1817 0.951 . S
C1841 C1842 1.366 . S
C1841 C1843 1.388 . S
C1842 C1841 1.366 . S
C1842 C1846 1.385 . S
C1843 H1818 0.990 . S
C1843 C1841 1.388 . S
C1843 C1844 1.366 . S
C1844 C1843 1.366 . S
C1844 C1845 1.414 . S
C1844 C1847 1.499 . S
C1845 H1819 0.950 . S
C1845 C1844 1.414 . S
C1845 C1846 1.374 . S
C1846 H1820 0.950 . S
C1846 C1842 1.385 . S
C1846 C1845 1.374 . S
C1847 C1844 1.499 . S
C1847 C1848 1.373 . S
C1847 C1849 1.389 1_556 S
C1848 H1821 0.950 . S
C1848 C1834 1.377 1_565 S
C1848 C1847 1.373 . S
C1849 C1833 1.377 1_565 S
C1849 C1847 1.389 1_554 S
C1849 C1850 1.524 . S
C1850 C1849 1.524 . S
C1850 C1851 1.397 1_554 S
C1850 C1855 1.363 . S
C1851 H1822 0.950 . S
C1851 C1850 1.397 1_556 S
C1851 C1852 1.334 . S
C1852 H1823 0.950 . S
C1852 C1851 1.334 . S
C1852 C1853 1.287 1_556 S
C1853 C1852 1.287 1_554 S
C1853 C1854 1.524 . S
C1853 H1856 0.999 . S
C1854 H1824 0.950 . S
C1854 C1853 1.524 . S
C1854 C1855 1.415 . S
C1855 H1825 0.950 . S
C1855 C1850 1.363 . S
C1855 C1854 1.415 . S
H1856 C1853 0.999 . S
H1857 C1838 0.913 . S
H1858 C1876 0.951 . S
H1859 C1878 0.951 . S
H1860 C1880 0.950 . S
H1861 C1881 0.950 . S
H1862 C1883 0.950 . S
H1863 C1886 0.950 . S
H1864 C1887 0.935 1_565 S
H1865 C1889 0.950 . S
H1866 C1890 0.950 . S
H1867 C1891 0.951 . S
H1868 C1893 0.951 . S
H1869 C1895 0.950 . S
H1870 C1896 0.950 . S
H1871 C1898 0.950 . S
H1872 C1901 0.950 . S
H1873 C1902 0.935 1_545 S
H1874 C1904 0.950 . S
H1875 C1905 0.950 . S
C1876 H1858 0.951 . S
C1876 C1877 1.366 . S
C1876 C1878 1.388 . S
C1877 C1876 1.366 . S
C1877 C1881 1.385 . S
C1878 H1859 0.951 . S
C1878 C1876 1.388 . S
C1878 C1879 1.366 . S
C1879 C1878 1.366 . S
C1879 C1880 1.414 . S
C1879 C1882 1.499 . S
C1880 H1860 0.950 . S
C1880 C1879 1.414 . S
C1880 C1881 1.374 . S
C1881 H1861 0.950 . S
C1881 C1877 1.385 . S
C1881 C1880 1.374 . S
C1882 C1879 1.499 . S
C1882 C1883 1.373 . S
C1882 C1884 1.356 1_565 S
C1883 H1862 0.950 . S
C1883 C1882 1.373 . S
C1883 C1899 1.408 . S
C1884 C1882 1.356 1_545 S
C1884 C1885 1.529 . S
C1884 C1898 1.408 . S
C1885 C1884 1.529 . S
C1885 C1886 1.397 1_545 S
C1885 C1890 1.363 . S
C1886 H1863 0.950 . S
C1886 C1885 1.397 1_565 S
C1886 C1887 1.328 1_565 S
C1887 H1864 0.935 1_545 S
C1887 C1886 1.328 1_545 S
C1887 C1888 1.312 . S
C1888 C1887 1.312 . S
C1888 C1889 1.524 . S
C1888 H1907 0.913 . S
C1889 H1865 0.950 . S
C1889 C1888 1.524 . S
C1889 C1890 1.415 . S
C1890 H1866 0.950 . S
C1890 C1885 1.363 . S
C1890 C1889 1.415 . S
C1891 H1867 0.951 . S
C1891 C1892 1.366 . S
C1891 C1893 1.388 . S
C1892 C1891 1.366 . S
C1892 C1896 1.385 . S
C1893 H1868 0.951 . S
C1893 C1891 1.388 . S
C1893 C1894 1.366 . S
C1894 C1893 1.366 . S
C1894 C1895 1.414 . S
C1894 C1897 1.499 . S
C1895 H1869 0.950 . S
C1895 C1894 1.414 . S
C1895 C1896 1.374 . S
C1896 H1870 0.950 . S
C1896 C1892 1.385 . S
C1896 C1895 1.374 . S
C1897 C1894 1.499 . S
C1897 C1898 1.373 . S
C1897 C1899 1.356 1_545 S
C1898 H1871 0.950 . S
C1898 C1884 1.408 . S
C1898 C1897 1.373 . S
C1899 C1883 1.408 . S
C1899 C1897 1.356 1_565 S
C1899 C1900 1.529 . S
C1900 C1899 1.529 . S
C1900 C1901 1.397 1_565 S
C1900 C1905 1.363 . S
C1901 H1872 0.950 . S
C1901 C1900 1.397 1_545 S
C1901 C1902 1.328 1_545 S
C1902 H1873 0.935 1_565 S
C1902 C1901 1.328 1_565 S
C1902 C1903 1.312 . S
C1903 C1902 1.312 . S
C1903 C1904 1.524 . S
C1903 H1906 0.999 . S
C1904 H1874 0.950 . S
C1904 C1903 1.524 . S
C1904 C1905 1.415 . S
C1905 H1875 0.950 . S
C1905 C1900 1.363 . S
C1905 C1904 1.415 . S
H1906 C1903 0.999 . S
H1907 C1888 0.913 . S
H1908 C1926 0.951 . S
H1909 C1928 0.951 . S
H1910 C1930 0.950 . S
H1911 C1931 0.950 . S
H1912 C1933 0.950 . S
H1913 C1936 0.950 . S
H1914 C1937 0.950 . S
H1915 C1939 0.950 . S
H1916 C1940 0.950 . S
H1917 C1941 0.951 . S
H1918 C1943 0.951 . S
H1919 C1945 0.950 . S
H1920 C1946 0.950 . S
H1921 C1948 0.950 . S
H1922 C1951 0.950 . S
H1923 C1952 0.950 . S
H1924 C1954 0.950 . S
H1925 C1955 0.950 . S
C1926 H1908 0.951 . S
C1926 C1927 1.366 . S
C1926 C1928 1.388 . S
C1927 C1926 1.366 . S
C1927 C1931 1.385 . S
C1928 H1909 0.951 . S
C1928 C1926 1.388 . S
C1928 C1929 1.366 . S
C1929 C1928 1.366 . S
C1929 C1930 1.414 . S
C1929 C1932 1.499 . S
C1930 H1910 0.950 . S
C1930 C1929 1.414 . S
C1930 C1931 1.374 . S
C1931 H1911 0.950 . S
C1931 C1927 1.385 . S
C1931 C1930 1.374 . S
C1932 C1929 1.499 . S
C1932 C1933 1.373 . S
C1932 C1934 1.389 1_556 S
C1933 H1912 0.950 . S
C1933 C1932 1.373 . S
C1933 C1949 1.377 1_565 S
C1934 C1932 1.389 1_554 S
C1934 C1935 1.524 . S
C1934 C1948 1.377 1_565 S
C1935 C1934 1.524 . S
C1935 C1936 1.397 . S
C1935 C1940 1.363 . S
C1936 H1913 0.950 . S
C1936 C1935 1.397 . S
C1936 C1937 1.334 . S
C1937 H1914 0.950 . S
C1937 C1936 1.334 . S
C1937 C1938 1.287 . S
C1938 C1937 1.287 . S
C1938 C1939 1.524 . S
C1938 H1957 0.913 . S
C1939 H1915 0.950 . S
C1939 C1938 1.524 . S
C1939 C1940 1.415 . S
C1940 H1916 0.950 . S
C1940 C1935 1.363 . S
C1940 C1939 1.415 . S
C1941 H1917 0.951 . S
C1941 C1942 1.366 . S
C1941 C1943 1.388 . S
C1942 C1941 1.366 . S
C1942 C1946 1.385 . S
C1943 H1918 0.951 . S
C1943 C1941 1.388 . S
C1943 C1944 1.366 . S
C1944 C1943 1.366 . S
C1944 C1945 1.414 . S
C1944 C1947 1.499 . S
C1945 H1919 0.950 . S
C1945 C1944 1.414 . S
C1945 C1946 1.374 . S
C1946 H1920 0.950 . S
C1946 C1942 1.385 . S
C1946 C1945 1.374 . S
C1947 C1944 1.499 . S
C1947 C1948 1.373 . S
C1947 C1949 1.389 1_554 S
C1948 H1921 0.950 . S
C1948 C1934 1.377 1_545 S
C1948 C1947 1.373 . S
C1949 C1933 1.377 1_545 S
C1949 C1947 1.389 1_556 S
C1949 C1950 1.524 . S
C1950 C1949 1.524 . S
C1950 C1951 1.397 . S
C1950 C1955 1.363 . S
C1951 H1922 0.950 . S
C1951 C1950 1.397 . S
C1951 C1952 1.334 . S
C1952 H1923 0.950 . S
C1952 C1951 1.334 . S
C1952 C1953 1.287 . S
C1953 C1952 1.287 . S
C1953 C1954 1.524 . S
C1953 H1956 0.999 . S
C1954 H1924 0.950 . S
C1954 C1953 1.524 . S
C1954 C1955 1.415 . S
C1955 H1925 0.950 . S
C1955 C1950 1.363 . S
C1955 C1954 1.415 . S
H1956 C1953 0.999 . S
H1957 C1938 0.913 . S
H1958 C1976 0.951 . S
H1959 C1978 0.951 . S
H1960 C1980 0.950 . S
H1961 C1981 0.950 . S
H1962 C1983 0.950 . S
H1963 C1986 0.950 . S
H1964 C1987 0.950 . S
H1965 C1989 0.950 . S
H1966 C1990 0.950 . S
H1967 C1991 0.951 . S
H1968 C1993 0.951 . S
H1969 C1995 0.950 . S
H1970 C1996 0.950 . S
H1971 C1998 0.950 . S
H1972 C2001 0.950 . S
H1973 C2002 0.950 . S
H1974 C2004 0.950 . S
H1975 C2005 0.950 . S
C1976 H1958 0.951 . S
C1976 C1977 1.366 . S
C1976 C1978 1.388 . S
C1977 C1976 1.366 . S
C1977 C1981 1.385 . S
C1978 H1959 0.951 . S
C1978 C1976 1.388 . S
C1978 C1979 1.366 . S
C1979 C1978 1.366 . S
C1979 C1980 1.414 . S
C1979 C1982 1.499 . S
C1980 H1960 0.950 . S
C1980 C1979 1.414 . S
C1980 C1981 1.374 . S
C1981 H1961 0.950 . S
C1981 C1977 1.385 . S
C1981 C1980 1.374 . S
C1982 C1979 1.499 . S
C1982 C1983 1.373 . S
C1982 C1984 1.389 . S
C1983 H1962 0.950 . S
C1983 C1982 1.373 . S
C1983 C1999 1.377 1_545 S
C1984 C1982 1.389 . S
C1984 C1985 1.524 . S
C1984 C1998 1.377 1_545 S
C1985 C1984 1.524 . S
C1985 C1986 1.397 . S
C1985 C1990 1.363 . S
C1986 H1963 0.950 . S
C1986 C1985 1.397 . S
C1986 C1987 1.334 . S
C1987 H1964 0.950 . S
C1987 C1986 1.334 . S
C1987 C1988 1.287 . S
C1988 C1987 1.287 . S
C1988 C1989 1.524 . S
C1988 H2007 0.913 . S
C1989 H1965 0.950 . S
C1989 C1988 1.524 . S
C1989 C1990 1.415 . S
C1990 H1966 0.950 . S
C1990 C1985 1.363 . S
C1990 C1989 1.415 . S
C1991 H1967 0.951 . S
C1991 C1992 1.366 . S
C1991 C1993 1.388 . S
C1992 C1991 1.366 . S
C1992 C1996 1.385 . S
C1993 H1968 0.951 . S
C1993 C1991 1.388 . S
C1993 C1994 1.366 . S
C1994 C1993 1.366 . S
C1994 C1995 1.414 . S
C1994 C1997 1.499 . S
C1995 H1969 0.950 . S
C1995 C1994 1.414 . S
C1995 C1996 1.374 . S
C1996 H1970 0.950 . S
C1996 C1992 1.385 . S
C1996 C1995 1.374 . S
C1997 C1994 1.499 . S
C1997 C1998 1.373 . S
C1997 C1999 1.389 . S
C1998 H1971 0.950 . S
C1998 C1984 1.377 1_565 S
C1998 C1997 1.373 . S
C1999 C1983 1.377 1_565 S
C1999 C1997 1.389 . S
C1999 C2000 1.524 . S
C2000 C1999 1.524 . S
C2000 C2001 1.397 . S
C2000 C2005 1.363 . S
C2001 H1972 0.950 . S
C2001 C2000 1.397 . S
C2001 C2002 1.334 . S
C2002 H1973 0.950 . S
C2002 C2001 1.334 . S
C2002 C2003 1.287 . S
C2003 C2002 1.287 . S
C2003 C2004 1.524 . S
C2003 H2006 0.999 . S
C2004 H1974 0.950 . S
C2004 C2003 1.524 . S
C2004 C2005 1.415 . S
C2005 H1975 0.950 . S
C2005 C2000 1.363 . S
C2005 C2004 1.415 . S
H2006 C2003 0.999 . S
H2007 C1988 0.913 . S
H2008 C2026 0.951 . S
H2009 C2028 0.951 . S
H2010 C2030 0.950 . S
H2011 C2031 0.950 . S
H2012 C2033 0.950 . S
H2013 C2036 0.950 . S
H2014 C2037 0.950 . S
H2015 C2039 0.950 . S
H2016 C2040 0.950 . S
H2017 C2041 0.951 . S
H2018 C2043 0.951 . S
H2019 C2045 0.950 . S
H2020 C2046 0.950 . S
H2021 C2048 0.950 . S
H2022 C2051 0.950 . S
H2023 C2052 0.950 . S
H2024 C2054 0.950 . S
H2025 C2055 0.950 . S
C2026 H2008 0.951 . S
C2026 C2027 1.366 . S
C2026 C2028 1.388 . S
C2027 C2026 1.366 . S
C2027 C2031 1.385 . S
C2028 H2009 0.951 . S
C2028 C2026 1.388 . S
C2028 C2029 1.366 . S
C2029 C2028 1.366 . S
C2029 C2030 1.414 . S
C2029 C2032 1.499 . S
C2030 H2010 0.950 . S
C2030 C2029 1.414 . S
C2030 C2031 1.374 . S
C2031 H2011 0.950 . S
C2031 C2027 1.385 . S
C2031 C2030 1.374 . S
C2032 C2029 1.499 . S
C2032 C2033 1.373 1_556 S
C2032 C2034 1.389 . S
C2033 H2012 0.950 . S
C2033 C2032 1.373 1_554 S
C2033 C2049 1.377 . S
C2034 C2032 1.389 . S
C2034 C2035 1.524 . S
C2034 C2048 1.377 . S
C2035 C2034 1.524 . S
C2035 C2036 1.397 . S
C2035 C2040 1.363 . S
C2036 H2013 0.950 . S
C2036 C2035 1.397 . S
C2036 C2037 1.334 . S
C2037 H2014 0.950 . S
C2037 C2036 1.334 . S
C2037 C2038 1.287 . S
C2038 C2037 1.287 . S
C2038 C2039 1.524 . S
C2038 H2057 0.913 . S
C2039 H2015 0.950 . S
C2039 C2038 1.524 . S
C2039 C2040 1.415 . S
C2040 H2016 0.950 . S
C2040 C2035 1.363 . S
C2040 C2039 1.415 . S
C2041 H2017 0.951 . S
C2041 C2042 1.366 . S
C2041 C2043 1.388 . S
C2042 C2041 1.366 . S
C2042 C2046 1.385 . S
C2043 H2018 0.951 . S
C2043 C2041 1.388 . S
C2043 C2044 1.366 . S
C2044 C2043 1.366 . S
C2044 C2045 1.414 . S
C2044 C2047 1.499 . S
C2045 H2019 0.950 . S
C2045 C2044 1.414 . S
C2045 C2046 1.374 . S
C2046 H2020 0.950 . S
C2046 C2042 1.385 . S
C2046 C2045 1.374 . S
C2047 C2044 1.499 . S
C2047 C2048 1.373 1_554 S
C2047 C2049 1.389 . S
C2048 H2021 0.950 . S
C2048 C2034 1.377 . S
C2048 C2047 1.373 1_556 S
C2049 C2033 1.377 . S
C2049 C2047 1.389 . S
C2049 C2050 1.524 . S
C2050 C2049 1.524 . S
C2050 C2051 1.397 . S
C2050 C2055 1.363 . S
C2051 H2022 0.950 . S
C2051 C2050 1.397 . S
C2051 C2052 1.334 . S
C2052 H2023 0.950 . S
C2052 C2051 1.334 . S
C2052 C2053 1.287 . S
C2053 C2052 1.287 . S
C2053 C2054 1.524 . S
C2053 H2056 0.999 . S
C2054 H2024 0.950 . S
C2054 C2053 1.524 . S
C2054 C2055 1.415 . S
C2055 H2025 0.950 . S
C2055 C2050 1.363 . S
C2055 C2054 1.415 . S
H2056 C2053 0.999 . S
H2057 C2038 0.913 . S
H2058 C2076 0.951 . S
H2059 C2078 0.951 . S
H2060 C2080 0.950 . S
H2061 C2081 0.950 . S
H2062 C2083 0.950 . S
H2063 C2086 0.950 . S
H2064 C2087 0.950 . S
H2065 C2089 0.950 . S
H2066 C2090 0.950 . S
H2067 C2091 0.951 . S
H2068 C2093 0.951 . S
H2069 C2095 0.950 . S
H2070 C2096 0.950 . S
H2071 C2098 0.950 . S
H2072 C2101 0.950 . S
H2073 C2102 0.950 . S
H2074 C2104 0.950 . S
H2075 C2105 0.950 . S
C2076 H2058 0.951 . S
C2076 C2077 1.366 . S
C2076 C2078 1.388 . S
C2077 C2076 1.366 . S
C2077 C2081 1.385 . S
C2078 H2059 0.951 . S
C2078 C2076 1.388 . S
C2078 C2079 1.366 . S
C2079 C2078 1.366 . S
C2079 C2080 1.414 . S
C2079 C2082 1.499 . S
C2080 H2060 0.950 . S
C2080 C2079 1.414 . S
C2080 C2081 1.374 . S
C2081 H2061 0.950 . S
C2081 C2077 1.385 . S
C2081 C2080 1.374 . S
C2082 C2079 1.499 . S
C2082 C2083 1.373 . S
C2082 C2084 1.389 . S
C2083 H2062 0.950 . S
C2083 C2082 1.373 . S
C2083 C2099 1.377 . S
C2084 C2082 1.389 . S
C2084 C2085 1.524 . S
C2084 C2098 1.377 . S
C2085 C2084 1.524 . S
C2085 C2086 1.397 . S
C2085 C2090 1.363 . S
C2086 H2063 0.950 . S
C2086 C2085 1.397 . S
C2086 C2087 1.334 . S
C2087 H2064 0.950 . S
C2087 C2086 1.334 . S
C2087 C2088 1.287 . S
C2088 C2087 1.287 . S
C2088 C2089 1.524 . S
C2088 H2107 0.913 . S
C2089 H2065 0.950 . S
C2089 C2088 1.524 . S
C2089 C2090 1.415 . S
C2090 H2066 0.950 . S
C2090 C2085 1.363 . S
C2090 C2089 1.415 . S
C2091 H2067 0.951 . S
C2091 C2092 1.366 . S
C2091 C2093 1.388 . S
C2092 C2091 1.366 . S
C2092 C2096 1.385 . S
C2093 H2068 0.951 . S
C2093 C2091 1.388 . S
C2093 C2094 1.366 . S
C2094 C2093 1.366 . S
C2094 C2095 1.414 . S
C2094 C2097 1.499 . S
C2095 H2069 0.950 . S
C2095 C2094 1.414 . S
C2095 C2096 1.374 . S
C2096 H2070 0.950 . S
C2096 C2092 1.385 . S
C2096 C2095 1.374 . S
C2097 C2094 1.499 . S
C2097 C2098 1.373 . S
C2097 C2099 1.389 . S
C2098 H2071 0.950 . S
C2098 C2084 1.377 . S
C2098 C2097 1.373 . S
C2099 C2083 1.377 . S
C2099 C2097 1.389 . S
C2099 C2100 1.524 . S
C2100 C2099 1.524 . S
C2100 C2101 1.397 . S
C2100 C2105 1.363 . S
C2101 H2072 0.950 . S
C2101 C2100 1.397 . S
C2101 C2102 1.334 . S
C2102 H2073 0.950 . S
C2102 C2101 1.334 . S
C2102 C2103 1.287 . S
C2103 C2102 1.287 . S
C2103 C2104 1.524 . S
C2103 H2106 0.999 . S
C2104 H2074 0.950 . S
C2104 C2103 1.524 . S
C2104 C2105 1.415 . S
C2105 H2075 0.950 . S
C2105 C2100 1.363 . S
C2105 C2104 1.415 . S
H2106 C2103 0.999 . S
H2107 C2088 0.913 . S
H2108 C2126 0.951 . S
H2109 C2128 0.951 . S
H2110 C2130 0.950 . S
H2111 C2131 0.950 . S
H2112 C2133 0.950 . S
H2113 C2136 0.950 . S
H2114 C2137 0.950 . S
H2115 C2139 0.950 . S
H2116 C2140 0.950 . S
H2117 C2141 0.951 . S
H2118 C2143 0.951 . S
H2119 C2145 0.950 . S
H2120 C2146 0.950 . S
H2121 C2148 0.950 . S
H2122 C2151 0.950 . S
H2123 C2152 0.950 . S
H2124 C2154 0.950 . S
H2125 C2155 0.950 . S
C2126 H2108 0.951 . S
C2126 C2127 1.366 . S
C2126 C2128 1.388 . S
C2127 C2126 1.366 . S
C2127 C2131 1.385 . S
C2128 H2109 0.951 . S
C2128 C2126 1.388 . S
C2128 C2129 1.366 . S
C2129 C2128 1.366 . S
C2129 C2130 1.414 . S
C2129 C2132 1.499 . S
C2130 H2110 0.950 . S
C2130 C2129 1.414 . S
C2130 C2131 1.374 . S
C2131 H2111 0.950 . S
C2131 C2127 1.385 . S
C2131 C2130 1.374 . S
C2132 C2129 1.499 . S
C2132 C2133 1.373 1_554 S
C2132 C2134 1.389 . S
C2133 H2112 0.950 . S
C2133 C2132 1.373 1_556 S
C2133 C2149 1.377 . S
C2134 C2132 1.389 . S
C2134 C2135 1.524 . S
C2134 C2148 1.377 . S
C2135 C2134 1.524 . S
C2135 C2136 1.397 . S
C2135 C2140 1.363 . S
C2136 H2113 0.950 . S
C2136 C2135 1.397 . S
C2136 C2137 1.334 . S
C2137 H2114 0.950 . S
C2137 C2136 1.334 . S
C2137 C2138 1.287 . S
C2138 C2137 1.287 . S
C2138 C2139 1.524 . S
C2138 H2157 0.913 . S
C2139 H2115 0.950 . S
C2139 C2138 1.524 . S
C2139 C2140 1.415 . S
C2140 H2116 0.950 . S
C2140 C2135 1.363 . S
C2140 C2139 1.415 . S
C2141 H2117 0.951 . S
C2141 C2142 1.366 . S
C2141 C2143 1.388 . S
C2142 C2141 1.366 . S
C2142 C2146 1.385 . S
C2143 H2118 0.951 . S
C2143 C2141 1.388 . S
C2143 C2144 1.366 . S
C2144 C2143 1.366 . S
C2144 C2145 1.414 . S
C2144 C2147 1.499 . S
C2145 H2119 0.950 . S
C2145 C2144 1.414 . S
C2145 C2146 1.374 . S
C2146 H2120 0.950 . S
C2146 C2142 1.385 . S
C2146 C2145 1.374 . S
C2147 C2144 1.499 . S
C2147 C2148 1.373 1_556 S
C2147 C2149 1.389 . S
C2148 H2121 0.950 . S
C2148 C2134 1.377 . S
C2148 C2147 1.373 1_554 S
C2149 C2133 1.377 . S
C2149 C2147 1.389 . S
C2149 C2150 1.524 . S
C2150 C2149 1.524 . S
C2150 C2151 1.397 . S
C2150 C2155 1.363 . S
C2151 H2122 0.950 . S
C2151 C2150 1.397 . S
C2151 C2152 1.334 . S
C2152 H2123 0.950 . S
C2152 C2151 1.334 . S
C2152 C2153 1.287 . S
C2153 C2152 1.287 . S
C2153 C2154 1.524 . S
C2153 H2156 0.999 . S
C2154 H2124 0.950 . S
C2154 C2153 1.524 . S
C2154 C2155 1.415 . S
C2155 H2125 0.950 . S
C2155 C2150 1.363 . S
C2155 C2154 1.415 . S
H2156 C2153 0.999 . S
H2157 C2138 0.913 . S
H2158 C2176 0.951 . S
H2159 C2178 0.951 . S
H2160 C2180 0.950 . S
H2161 C2181 0.950 . S
H2162 C2183 0.950 . S
H2163 C2186 0.950 . S
H2164 C2187 0.950 . S
H2165 C2189 0.950 . S
H2166 C2190 0.950 . S
H2167 C2191 0.951 . S
H2168 C2193 0.951 . S
H2169 C2195 0.950 . S
H2170 C2196 0.950 . S
H2171 C2198 0.950 . S
H2172 C2201 0.950 . S
H2173 C2202 0.950 . S
H2174 C2204 0.950 . S
H2175 C2205 0.950 . S
C2176 H2158 0.951 . S
C2176 C2177 1.366 . S
C2176 C2178 1.388 . S
C2177 C2176 1.366 . S
C2177 C2181 1.385 . S
C2178 H2159 0.951 . S
C2178 C2176 1.388 . S
C2178 C2179 1.366 . S
C2179 C2178 1.366 . S
C2179 C2180 1.414 . S
C2179 C2182 1.499 . S
C2180 H2160 0.950 . S
C2180 C2179 1.414 . S
C2180 C2181 1.374 . S
C2181 H2161 0.950 . S
C2181 C2177 1.385 . S
C2181 C2180 1.374 . S
C2182 C2179 1.499 . S
C2182 C2183 1.373 . S
C2182 C2184 1.389 . S
C2183 H2162 0.950 . S
C2183 C2182 1.373 . S
C2183 C2199 1.377 . S
C2184 C2182 1.389 . S
C2184 C2185 1.524 . S
C2184 C2198 1.377 . S
C2185 C2184 1.524 . S
C2185 C2186 1.397 . S
C2185 C2190 1.363 . S
C2186 H2163 0.950 . S
C2186 C2185 1.397 . S
C2186 C2187 1.334 . S
C2187 H2164 0.950 . S
C2187 C2186 1.334 . S
C2187 C2188 1.287 . S
C2188 C2187 1.287 . S
C2188 C2189 1.524 . S
C2188 H2207 0.913 . S
C2189 H2165 0.950 . S
C2189 C2188 1.524 . S
C2189 C2190 1.415 . S
C2190 H2166 0.950 . S
C2190 C2185 1.363 . S
C2190 C2189 1.415 . S
C2191 H2167 0.951 . S
C2191 C2192 1.366 . S
C2191 C2193 1.388 . S
C2192 C2191 1.366 . S
C2192 C2196 1.385 . S
C2193 H2168 0.951 . S
C2193 C2191 1.388 . S
C2193 C2194 1.366 . S
C2194 C2193 1.366 . S
C2194 C2195 1.414 . S
C2194 C2197 1.499 . S
C2195 H2169 0.950 . S
C2195 C2194 1.414 . S
C2195 C2196 1.374 . S
C2196 H2170 0.950 . S
C2196 C2192 1.385 . S
C2196 C2195 1.374 . S
C2197 C2194 1.499 . S
C2197 C2198 1.373 . S
C2197 C2199 1.389 . S
C2198 H2171 0.950 . S
C2198 C2184 1.377 . S
C2198 C2197 1.373 . S
C2199 C2183 1.377 . S
C2199 C2197 1.389 . S
C2199 C2200 1.524 . S
C2200 C2199 1.524 . S
C2200 C2201 1.397 . S
C2200 C2205 1.363 . S
C2201 H2172 0.950 . S
C2201 C2200 1.397 . S
C2201 C2202 1.334 . S
C2202 H2173 0.950 . S
C2202 C2201 1.334 . S
C2202 C2203 1.287 . S
C2203 C2202 1.287 . S
C2203 C2204 1.524 . S
C2203 H2206 0.999 . S
C2204 H2174 0.950 . S
C2204 C2203 1.524 . S
C2204 C2205 1.415 . S
C2205 H2175 0.950 . S
C2205 C2200 1.363 . S
C2205 C2204 1.415 . S
H2206 C2203 0.999 . S
H2207 C2188 0.913 . S
H2208 C2226 0.951 . S
H2209 C2228 0.951 . S
H2210 C2230 0.950 . S
H2211 C2231 0.950 . S
H2212 C2233 0.950 . S
H2213 C2236 0.950 . S
H2214 C2237 0.950 . S
H2215 C2239 0.950 . S
H2216 C2240 0.950 . S
H2217 C2241 0.951 . S
H2218 C2243 0.951 . S
H2219 C2245 0.950 . S
H2220 C2246 0.950 . S
H2221 C2248 0.950 . S
H2222 C2251 0.950 . S
H2223 C2252 0.950 . S
H2224 C2254 0.950 . S
H2225 C2255 0.950 . S
C2226 H2208 0.951 . S
C2226 C2227 1.366 . S
C2226 C2228 1.388 . S
C2227 C2226 1.366 . S
C2227 C2231 1.385 . S
C2228 H2209 0.951 . S
C2228 C2226 1.388 . S
C2228 C2229 1.366 . S
C2229 C2228 1.366 . S
C2229 C2230 1.414 . S
C2229 C2232 1.499 . S
C2230 H2210 0.950 . S
C2230 C2229 1.414 . S
C2230 C2231 1.374 . S
C2231 H2211 0.950 . S
C2231 C2227 1.385 . S
C2231 C2230 1.374 . S
C2232 C2229 1.499 . S
C2232 C2233 1.373 . S
C2232 C2234 1.389 . S
C2233 H2212 0.950 . S
C2233 C2232 1.373 . S
C2233 C2249 1.377 . S
C2234 C2232 1.389 . S
C2234 C2235 1.524 . S
C2234 C2248 1.377 . S
C2235 C2234 1.524 . S
C2235 C2236 1.397 . S
C2235 C2240 1.363 . S
C2236 H2213 0.950 . S
C2236 C2235 1.397 . S
C2236 C2237 1.334 . S
C2237 H2214 0.950 . S
C2237 C2236 1.334 . S
C2237 C2238 1.287 . S
C2238 C2237 1.287 . S
C2238 C2239 1.524 . S
C2238 H2257 0.913 . S
C2239 H2215 0.950 . S
C2239 C2238 1.524 . S
C2239 C2240 1.415 . S
C2240 H2216 0.950 . S
C2240 C2235 1.363 . S
C2240 C2239 1.415 . S
C2241 H2217 0.951 . S
C2241 C2242 1.366 . S
C2241 C2243 1.388 . S
C2242 C2241 1.366 . S
C2242 C2246 1.385 . S
C2243 H2218 0.951 . S
C2243 C2241 1.388 . S
C2243 C2244 1.366 . S
C2244 C2243 1.366 . S
C2244 C2245 1.414 . S
C2244 C2247 1.499 . S
C2245 H2219 0.950 . S
C2245 C2244 1.414 . S
C2245 C2246 1.374 . S
C2246 H2220 0.950 . S
C2246 C2242 1.385 . S
C2246 C2245 1.374 . S
C2247 C2244 1.499 . S
C2247 C2248 1.373 . S
C2247 C2249 1.389 . S
C2248 H2221 0.950 . S
C2248 C2234 1.377 . S
C2248 C2247 1.373 . S
C2249 C2233 1.377 . S
C2249 C2247 1.389 . S
C2249 C2250 1.524 . S
C2250 C2249 1.524 . S
C2250 C2251 1.397 . S
C2250 C2255 1.363 . S
C2251 H2222 0.950 . S
C2251 C2250 1.397 . S
C2251 C2252 1.334 . S
C2252 H2223 0.950 . S
C2252 C2251 1.334 . S
C2252 C2253 1.287 . S
C2253 C2252 1.287 . S
C2253 C2254 1.524 . S
C2253 H2256 0.999 . S
C2254 H2224 0.950 . S
C2254 C2253 1.524 . S
C2254 C2255 1.415 . S
C2255 H2225 0.950 . S
C2255 C2250 1.363 . S
C2255 C2254 1.415 . S
H2256 C2253 0.999 . S
H2257 C2238 0.913 . S
H2258 C2276 0.951 . S
H2259 C2278 0.951 . S
H2260 C2280 0.950 . S
H2261 C2281 0.950 . S
H2262 C2283 0.950 . S
H2263 C2286 0.950 . S
H2264 C2287 0.950 . S
H2265 C2289 0.950 . S
H2266 C2290 0.950 . S
H2267 C2291 0.951 . S
H2268 C2293 0.951 . S
H2269 C2295 0.950 . S
H2270 C2296 0.950 . S
H2271 C2298 0.950 . S
H2272 C2301 0.950 . S
H2273 C2302 0.950 . S
H2274 C2304 0.950 . S
H2275 C2305 0.950 . S
C2276 H2258 0.951 . S
C2276 C2277 1.366 . S
C2276 C2278 1.388 . S
C2277 C2276 1.366 . S
C2277 C2281 1.385 . S
C2278 H2259 0.951 . S
C2278 C2276 1.388 . S
C2278 C2279 1.366 . S
C2279 C2278 1.366 . S
C2279 C2280 1.414 . S
C2279 C2282 1.499 . S
C2280 H2260 0.950 . S
C2280 C2279 1.414 . S
C2280 C2281 1.374 . S
C2281 H2261 0.950 . S
C2281 C2277 1.385 . S
C2281 C2280 1.374 . S
C2282 C2279 1.499 . S
C2282 C2283 1.373 . S
C2282 C2284 1.389 . S
C2283 H2262 0.950 . S
C2283 C2282 1.373 . S
C2283 C2299 1.377 1_655 S
C2284 C2282 1.389 . S
C2284 C2285 1.524 . S
C2284 C2298 1.377 1_655 S
C2285 C2284 1.524 . S
C2285 C2286 1.397 . S
C2285 C2290 1.363 . S
C2286 H2263 0.950 . S
C2286 C2285 1.397 . S
C2286 C2287 1.334 . S
C2287 H2264 0.950 . S
C2287 C2286 1.334 . S
C2287 C2288 1.287 . S
C2288 C2287 1.287 . S
C2288 C2289 1.524 . S
C2288 H2307 0.913 . S
C2289 H2265 0.950 . S
C2289 C2288 1.524 . S
C2289 C2290 1.415 . S
C2290 H2266 0.950 . S
C2290 C2285 1.363 . S
C2290 C2289 1.415 . S
C2291 H2267 0.951 . S
C2291 C2292 1.366 . S
C2291 C2293 1.388 . S
C2292 C2291 1.366 . S
C2292 C2296 1.385 . S
C2293 H2268 0.951 . S
C2293 C2291 1.388 . S
C2293 C2294 1.366 . S
C2294 C2293 1.366 . S
C2294 C2295 1.414 . S
C2294 C2297 1.499 . S
C2295 H2269 0.950 . S
C2295 C2294 1.414 . S
C2295 C2296 1.374 . S
C2296 H2270 0.950 . S
C2296 C2292 1.385 . S
C2296 C2295 1.374 . S
C2297 C2294 1.499 . S
C2297 C2298 1.373 . S
C2297 C2299 1.389 . S
C2298 H2271 0.950 . S
C2298 C2284 1.377 1_455 S
C2298 C2297 1.373 . S
C2299 C2283 1.377 1_455 S
C2299 C2297 1.389 . S
C2299 C2300 1.524 . S
C2300 C2299 1.524 . S
C2300 C2301 1.397 . S
C2300 C2305 1.363 . S
C2301 H2272 0.950 . S
C2301 C2300 1.397 . S
C2301 C2302 1.334 . S
C2302 H2273 0.950 . S
C2302 C2301 1.334 . S
C2302 C2303 1.287 . S
C2303 C2302 1.287 . S
C2303 C2304 1.524 . S
C2303 H2306 0.999 . S
C2304 H2274 0.950 . S
C2304 C2303 1.524 . S
C2304 C2305 1.415 . S
C2305 H2275 0.950 . S
C2305 C2300 1.363 . S
C2305 C2304 1.415 . S
H2306 C2303 0.999 . S
H2307 C2288 0.913 . S
H2308 C2326 0.951 . S
H2309 C2328 0.951 . S
H2310 C2330 0.950 . S
H2311 C2331 0.950 . S
H2312 C2333 0.950 . S
H2313 C2336 0.950 . S
H2314 C2337 0.950 . S
H2315 C2339 0.950 . S
H2316 C2340 0.950 . S
H2317 C2341 0.951 . S
H2318 C2343 0.951 . S
H2319 C2345 0.950 . S
H2320 C2346 0.950 . S
H2321 C2348 0.950 . S
H2322 C2351 0.950 . S
H2323 C2352 0.950 . S
H2324 C2354 0.950 . S
H2325 C2355 0.950 . S
C2326 H2308 0.951 . S
C2326 C2327 1.366 . S
C2326 C2328 1.388 . S
C2327 C2326 1.366 . S
C2327 C2331 1.385 . S
C2328 H2309 0.951 . S
C2328 C2326 1.388 . S
C2328 C2329 1.366 . S
C2329 C2328 1.366 . S
C2329 C2330 1.414 . S
C2329 C2332 1.499 . S
C2330 H2310 0.950 . S
C2330 C2329 1.414 . S
C2330 C2331 1.374 . S
C2331 H2311 0.950 . S
C2331 C2327 1.385 . S
C2331 C2330 1.374 . S
C2332 C2329 1.499 . S
C2332 C2333 1.373 . S
C2332 C2334 1.389 . S
C2333 H2312 0.950 . S
C2333 C2332 1.373 . S
C2333 C2349 1.377 . S
C2334 C2332 1.389 . S
C2334 C2335 1.524 . S
C2334 C2348 1.377 . S
C2335 C2334 1.524 . S
C2335 C2336 1.397 . S
C2335 C2340 1.363 . S
C2336 H2313 0.950 . S
C2336 C2335 1.397 . S
C2336 C2337 1.334 . S
C2337 H2314 0.950 . S
C2337 C2336 1.334 . S
C2337 C2338 1.287 . S
C2338 C2337 1.287 . S
C2338 C2339 1.524 . S
C2338 H2357 0.913 . S
C2339 H2315 0.950 . S
C2339 C2338 1.524 . S
C2339 C2340 1.415 . S
C2340 H2316 0.950 . S
C2340 C2335 1.363 . S
C2340 C2339 1.415 . S
C2341 H2317 0.951 . S
C2341 C2342 1.366 . S
C2341 C2343 1.388 . S
C2342 C2341 1.366 . S
C2342 C2346 1.385 . S
C2343 H2318 0.951 . S
C2343 C2341 1.388 . S
C2343 C2344 1.366 . S
C2344 C2343 1.366 . S
C2344 C2345 1.414 . S
C2344 C2347 1.499 . S
C2345 H2319 0.950 . S
C2345 C2344 1.414 . S
C2345 C2346 1.374 . S
C2346 H2320 0.950 . S
C2346 C2342 1.385 . S
C2346 C2345 1.374 . S
C2347 C2344 1.499 . S
C2347 C2348 1.373 . S
C2347 C2349 1.389 . S
C2348 H2321 0.950 . S
C2348 C2334 1.377 . S
C2348 C2347 1.373 . S
C2349 C2333 1.377 . S
C2349 C2347 1.389 . S
C2349 C2350 1.524 . S
C2350 C2349 1.524 . S
C2350 C2351 1.397 . S
C2350 C2355 1.363 . S
C2351 H2322 0.950 . S
C2351 C2350 1.397 . S
C2351 C2352 1.334 . S
C2352 H2323 0.950 . S
C2352 C2351 1.334 . S
C2352 C2353 1.287 . S
C2353 C2352 1.287 . S
C2353 C2354 1.524 . S
C2353 H2356 0.999 . S
C2354 H2324 0.950 . S
C2354 C2353 1.524 . S
C2354 C2355 1.415 . S
C2355 H2325 0.950 . S
C2355 C2350 1.363 . S
C2355 C2354 1.415 . S
H2356 C2353 0.999 . S
H2357 C2338 0.913 . S
H2358 C2376 0.951 . S
H2359 C2378 0.951 . S
H2360 C2380 0.950 . S
H2361 C2381 0.950 . S
H2362 C2383 0.950 . S
H2363 C2386 0.950 . S
H2364 C2387 0.950 . S
H2365 C2389 0.950 . S
H2366 C2390 0.950 . S
H2367 C2391 0.951 . S
H2368 C2393 0.951 . S
H2369 C2395 0.950 . S
H2370 C2396 0.950 . S
H2371 C2398 0.950 . S
H2372 C2401 0.950 . S
H2373 C2402 0.950 . S
H2374 C2404 0.950 . S
H2375 C2405 0.950 . S
C2376 H2358 0.951 . S
C2376 C2377 1.366 . S
C2376 C2378 1.388 . S
C2377 C2376 1.366 . S
C2377 C2381 1.385 . S
C2378 H2359 0.951 . S
C2378 C2376 1.388 . S
C2378 C2379 1.366 . S
C2379 C2378 1.366 . S
C2379 C2380 1.414 . S
C2379 C2382 1.499 . S
C2380 H2360 0.950 . S
C2380 C2379 1.414 . S
C2380 C2381 1.374 . S
C2381 H2361 0.950 . S
C2381 C2377 1.385 . S
C2381 C2380 1.374 . S
C2382 C2379 1.499 . S
C2382 C2383 1.373 . S
C2382 C2384 1.389 . S
C2383 H2362 0.950 . S
C2383 C2382 1.373 . S
C2383 C2399 1.377 1_455 S
C2384 C2382 1.389 . S
C2384 C2385 1.524 . S
C2384 C2398 1.377 1_455 S
C2385 C2384 1.524 . S
C2385 C2386 1.397 . S
C2385 C2390 1.363 . S
C2386 H2363 0.950 . S
C2386 C2385 1.397 . S
C2386 C2387 1.334 . S
C2387 H2364 0.950 . S
C2387 C2386 1.334 . S
C2387 C2388 1.287 . S
C2388 C2387 1.287 . S
C2388 C2389 1.524 . S
C2388 H2407 0.913 . S
C2389 H2365 0.950 . S
C2389 C2388 1.524 . S
C2389 C2390 1.415 . S
C2390 H2366 0.950 . S
C2390 C2385 1.363 . S
C2390 C2389 1.415 . S
C2391 H2367 0.951 . S
C2391 C2392 1.366 . S
C2391 C2393 1.388 . S
C2392 C2391 1.366 . S
C2392 C2396 1.385 . S
C2393 H2368 0.951 . S
C2393 C2391 1.388 . S
C2393 C2394 1.366 . S
C2394 C2393 1.366 . S
C2394 C2395 1.414 . S
C2394 C2397 1.499 . S
C2395 H2369 0.950 . S
C2395 C2394 1.414 . S
C2395 C2396 1.374 . S
C2396 H2370 0.950 . S
C2396 C2392 1.385 . S
C2396 C2395 1.374 . S
C2397 C2394 1.499 . S
C2397 C2398 1.373 . S
C2397 C2399 1.389 . S
C2398 H2371 0.950 . S
C2398 C2384 1.377 1_655 S
C2398 C2397 1.373 . S
C2399 C2383 1.377 1_655 S
C2399 C2397 1.389 . S
C2399 C2400 1.524 . S
C2400 C2399 1.524 . S
C2400 C2401 1.397 . S
C2400 C2405 1.363 . S
C2401 H2372 0.950 . S
C2401 C2400 1.397 . S
C2401 C2402 1.334 . S
C2402 H2373 0.950 . S
C2402 C2401 1.334 . S
C2402 C2403 1.287 . S
C2403 C2402 1.287 . S
C2403 C2404 1.524 . S
C2403 H2406 0.999 . S
C2404 H2374 0.950 . S
C2404 C2403 1.524 . S
C2404 C2405 1.415 . S
C2405 H2375 0.950 . S
C2405 C2400 1.363 . S
C2405 C2404 1.415 . S
H2406 C2403 0.999 . S
H2407 C2388 0.913 . S
H2408 C2426 0.951 . S
H2409 C2428 0.951 . S
H2410 C2430 0.950 . S
H2411 C2431 0.950 . S
H2412 C2433 0.950 . S
H2413 C2436 0.950 . S
H2414 C2437 0.950 . S
H2415 C2439 0.950 . S
H2416 C2440 0.950 . S
H2417 C2441 0.951 . S
H2418 C2443 0.951 . S
H2419 C2445 0.950 . S
H2420 C2446 0.950 . S
H2421 C2448 0.950 . S
H2422 C2451 0.950 . S
H2423 C2452 0.950 . S
H2424 C2454 0.950 . S
H2425 C2455 0.950 . S
C2426 H2408 0.951 . S
C2426 C2427 1.366 . S
C2426 C2428 1.388 . S
C2427 C2426 1.366 . S
C2427 C2431 1.385 . S
C2428 H2409 0.951 . S
C2428 C2426 1.388 . S
C2428 C2429 1.366 . S
C2429 C2428 1.366 . S
C2429 C2430 1.414 . S
C2429 C2432 1.499 . S
C2430 H2410 0.950 . S
C2430 C2429 1.414 . S
C2430 C2431 1.374 . S
C2431 H2411 0.950 . S
C2431 C2427 1.385 . S
C2431 C2430 1.374 . S
C2432 C2429 1.499 . S
C2432 C2433 1.373 . S
C2432 C2434 1.389 . S
C2433 H2412 0.950 . S
C2433 C2432 1.373 . S
C2433 C2449 1.377 1_455 S
C2434 C2432 1.389 . S
C2434 C2435 1.524 . S
C2434 C2448 1.377 1_455 S
C2435 C2434 1.524 . S
C2435 C2436 1.397 . S
C2435 C2440 1.363 . S
C2436 H2413 0.950 . S
C2436 C2435 1.397 . S
C2436 C2437 1.334 . S
C2437 H2414 0.950 . S
C2437 C2436 1.334 . S
C2437 C2438 1.287 . S
C2438 C2437 1.287 . S
C2438 C2439 1.524 . S
C2438 H2457 0.913 . S
C2439 H2415 0.950 . S
C2439 C2438 1.524 . S
C2439 C2440 1.415 . S
C2440 H2416 0.950 . S
C2440 C2435 1.363 . S
C2440 C2439 1.415 . S
C2441 H2417 0.951 . S
C2441 C2442 1.366 . S
C2441 C2443 1.388 . S
C2442 C2441 1.366 . S
C2442 C2446 1.385 . S
C2443 H2418 0.951 . S
C2443 C2441 1.388 . S
C2443 C2444 1.366 . S
C2444 C2443 1.366 . S
C2444 C2445 1.414 . S
C2444 C2447 1.499 . S
C2445 H2419 0.950 . S
C2445 C2444 1.414 . S
C2445 C2446 1.374 . S
C2446 H2420 0.950 . S
C2446 C2442 1.385 . S
C2446 C2445 1.374 . S
C2447 C2444 1.499 . S
C2447 C2448 1.373 . S
C2447 C2449 1.389 . S
C2448 H2421 0.950 . S
C2448 C2434 1.377 1_655 S
C2448 C2447 1.373 . S
C2449 C2433 1.377 1_655 S
C2449 C2447 1.389 . S
C2449 C2450 1.524 . S
C2450 C2449 1.524 . S
C2450 C2451 1.397 . S
C2450 C2455 1.363 . S
C2451 H2422 0.950 . S
C2451 C2450 1.397 . S
C2451 C2452 1.334 . S
C2452 H2423 0.950 . S
C2452 C2451 1.334 . S
C2452 C2453 1.287 . S
C2453 C2452 1.287 . S
C2453 C2454 1.524 . S
C2453 H2456 0.999 . S
C2454 H2424 0.950 . S
C2454 C2453 1.524 . S
C2454 C2455 1.415 . S
C2455 H2425 0.950 . S
C2455 C2450 1.363 . S
C2455 C2454 1.415 . S
H2456 C2453 0.999 . S
H2457 C2438 0.913 . S
H2458 C2476 0.951 . S
H2459 C2478 0.951 . S
H2460 C2480 0.950 . S
H2461 C2481 0.950 . S
H2462 C2483 0.950 . S
H2463 C2486 0.950 . S
H2464 C2487 0.950 . S
H2465 C2489 0.950 . S
H2466 C2490 0.950 . S
H2467 C2491 0.951 . S
H2468 C2493 0.951 . S
H2469 C2495 0.950 . S
H2470 C2496 0.950 . S
H2471 C2498 0.950 . S
H2472 C2501 0.950 . S
H2473 C2502 0.950 . S
H2474 C2504 0.950 . S
H2475 C2505 0.950 . S
C2476 H2458 0.951 . S
C2476 C2477 1.366 . S
C2476 C2478 1.388 . S
C2477 C2476 1.366 . S
C2477 C2481 1.385 . S
C2478 H2459 0.951 . S
C2478 C2476 1.388 . S
C2478 C2479 1.366 . S
C2479 C2478 1.366 . S
C2479 C2480 1.414 . S
C2479 C2482 1.499 . S
C2480 H2460 0.950 . S
C2480 C2479 1.414 . S
C2480 C2481 1.374 . S
C2481 H2461 0.950 . S
C2481 C2477 1.385 . S
C2481 C2480 1.374 . S
C2482 C2479 1.499 . S
C2482 C2483 1.373 . S
C2482 C2484 1.389 . S
C2483 H2462 0.950 . S
C2483 C2482 1.373 . S
C2483 C2499 1.377 . S
C2484 C2482 1.389 . S
C2484 C2485 1.524 . S
C2484 C2498 1.377 . S
C2485 C2484 1.524 . S
C2485 C2486 1.397 . S
C2485 C2490 1.363 . S
C2486 H2463 0.950 . S
C2486 C2485 1.397 . S
C2486 C2487 1.334 . S
C2487 H2464 0.950 . S
C2487 C2486 1.334 . S
C2487 C2488 1.287 . S
C2488 C2487 1.287 . S
C2488 C2489 1.524 . S
C2488 H2507 0.913 . S
C2489 H2465 0.950 . S
C2489 C2488 1.524 . S
C2489 C2490 1.415 . S
C2490 H2466 0.950 . S
C2490 C2485 1.363 . S
C2490 C2489 1.415 . S
C2491 H2467 0.951 . S
C2491 C2492 1.366 . S
C2491 C2493 1.388 . S
C2492 C2491 1.366 . S
C2492 C2496 1.385 . S
C2493 H2468 0.951 . S
C2493 C2491 1.388 . S
C2493 C2494 1.366 . S
C2494 C2493 1.366 . S
C2494 C2495 1.414 . S
C2494 C2497 1.499 . S
C2495 H2469 0.950 . S
C2495 C2494 1.414 . S
C2495 C2496 1.374 . S
C2496 H2470 0.950 . S
C2496 C2492 1.385 . S
C2496 C2495 1.374 . S
C2497 C2494 1.499 . S
C2497 C2498 1.373 . S
C2497 C2499 1.389 . S
C2498 H2471 0.950 . S
C2498 C2484 1.377 . S
C2498 C2497 1.373 . S
C2499 C2483 1.377 . S
C2499 C2497 1.389 . S
C2499 C2500 1.524 . S
C2500 C2499 1.524 . S
C2500 C2501 1.397 . S
C2500 C2505 1.363 . S
C2501 H2472 0.950 . S
C2501 C2500 1.397 . S
C2501 C2502 1.334 . S
C2502 H2473 0.950 . S
C2502 C2501 1.334 . S
C2502 C2503 1.287 . S
C2503 C2502 1.287 . S
C2503 C2504 1.524 . S
C2503 H2506 0.999 . S
C2504 H2474 0.950 . S
C2504 C2503 1.524 . S
C2504 C2505 1.415 . S
C2505 H2475 0.950 . S
C2505 C2500 1.363 . S
C2505 C2504 1.415 . S
H2506 C2503 0.999 . S
H2507 C2488 0.913 . S
H2508 C2526 0.951 . S
H2509 C2528 0.951 . S
H2510 C2530 0.950 . S
H2511 C2531 0.950 . S
H2512 C2533 0.950 . S
H2513 C2536 0.950 . S
H2514 C2537 0.950 . S
H2515 C2539 0.950 . S
H2516 C2540 0.950 . S
H2517 C2541 0.951 . S
H2518 C2543 0.951 . S
H2519 C2545 0.950 . S
H2520 C2546 0.950 . S
H2521 C2548 0.950 . S
H2522 C2551 0.950 . S
H2523 C2552 0.950 . S
H2524 C2554 0.950 . S
H2525 C2555 0.950 . S
C2526 H2508 0.951 . S
C2526 C2527 1.366 . S
C2526 C2528 1.388 . S
C2527 C2526 1.366 . S
C2527 C2531 1.385 . S
C2528 H2509 0.951 . S
C2528 C2526 1.388 . S
C2528 C2529 1.366 . S
C2529 C2528 1.366 . S
C2529 C2530 1.414 . S
C2529 C2532 1.499 . S
C2530 H2510 0.950 . S
C2530 C2529 1.414 . S
C2530 C2531 1.374 . S
C2531 H2511 0.950 . S
C2531 C2527 1.385 . S
C2531 C2530 1.374 . S
C2532 C2529 1.499 . S
C2532 C2533 1.373 . S
C2532 C2534 1.389 . S
C2533 H2512 0.950 . S
C2533 C2532 1.373 . S
C2533 C2549 1.377 1_455 S
C2534 C2532 1.389 . S
C2534 C2535 1.524 . S
C2534 C2548 1.377 1_455 S
C2535 C2534 1.524 . S
C2535 C2536 1.397 . S
C2535 C2540 1.363 . S
C2536 H2513 0.950 . S
C2536 C2535 1.397 . S
C2536 C2537 1.334 . S
C2537 H2514 0.950 . S
C2537 C2536 1.334 . S
C2537 C2538 1.287 . S
C2538 C2537 1.287 . S
C2538 C2539 1.524 . S
C2538 H2557 0.913 . S
C2539 H2515 0.950 . S
C2539 C2538 1.524 . S
C2539 C2540 1.415 . S
C2540 H2516 0.950 . S
C2540 C2535 1.363 . S
C2540 C2539 1.415 . S
C2541 H2517 0.951 . S
C2541 C2542 1.366 . S
C2541 C2543 1.388 . S
C2542 C2541 1.366 . S
C2542 C2546 1.385 . S
C2543 H2518 0.951 . S
C2543 C2541 1.388 . S
C2543 C2544 1.366 . S
C2544 C2543 1.366 . S
C2544 C2545 1.414 . S
C2544 C2547 1.499 . S
C2545 H2519 0.950 . S
C2545 C2544 1.414 . S
C2545 C2546 1.374 . S
C2546 H2520 0.950 . S
C2546 C2542 1.385 . S
C2546 C2545 1.374 . S
C2547 C2544 1.499 . S
C2547 C2548 1.373 . S
C2547 C2549 1.389 . S
C2548 H2521 0.950 . S
C2548 C2534 1.377 1_655 S
C2548 C2547 1.373 . S
C2549 C2533 1.377 1_655 S
C2549 C2547 1.389 . S
C2549 C2550 1.524 . S
C2550 C2549 1.524 . S
C2550 C2551 1.397 . S
C2550 C2555 1.363 . S
C2551 H2522 0.950 . S
C2551 C2550 1.397 . S
C2551 C2552 1.334 . S
C2552 H2523 0.950 . S
C2552 C2551 1.334 . S
C2552 C2553 1.287 . S
C2553 C2552 1.287 . S
C2553 C2554 1.524 . S
C2553 H2556 0.999 . S
C2554 H2524 0.950 . S
C2554 C2553 1.524 . S
C2554 C2555 1.415 . S
C2555 H2525 0.950 . S
C2555 C2550 1.363 . S
C2555 C2554 1.415 . S
H2556 C2553 0.999 . S
H2557 C2538 0.913 . S
H2558 C2576 0.951 . S
H2559 C2578 0.951 . S
H2560 C2580 0.950 . S
H2561 C2581 0.950 . S
H2562 C2583 0.950 . S
H2563 C2586 0.950 . S
H2564 C2587 0.950 . S
H2565 C2589 0.950 . S
H2566 C2590 0.950 . S
H2567 C2591 0.951 . S
H2568 C2593 0.951 . S
H2569 C2595 0.950 . S
H2570 C2596 0.950 . S
H2571 C2598 0.950 . S
H2572 C2601 0.950 . S
H2573 C2602 0.950 . S
H2574 C2604 0.950 . S
H2575 C2605 0.950 . S
C2576 H2558 0.951 . S
C2576 C2577 1.366 . S
C2576 C2578 1.388 . S
C2577 C2576 1.366 . S
C2577 C2581 1.385 . S
C2578 H2559 0.951 . S
C2578 C2576 1.388 . S
C2578 C2579 1.366 . S
C2579 C2578 1.366 . S
C2579 C2580 1.414 . S
C2579 C2582 1.499 . S
C2580 H2560 0.950 . S
C2580 C2579 1.414 . S
C2580 C2581 1.374 . S
C2581 H2561 0.950 . S
C2581 C2577 1.385 . S
C2581 C2580 1.374 . S
C2582 C2579 1.499 . S
C2582 C2583 1.373 . S
C2582 C2584 1.389 . S
C2583 H2562 0.950 . S
C2583 C2582 1.373 . S
C2583 C2599 1.377 . S
C2584 C2582 1.389 . S
C2584 C2585 1.524 . S
C2584 C2598 1.377 . S
C2585 C2584 1.524 . S
C2585 C2586 1.397 . S
C2585 C2590 1.363 . S
C2586 H2563 0.950 . S
C2586 C2585 1.397 . S
C2586 C2587 1.334 . S
C2587 H2564 0.950 . S
C2587 C2586 1.334 . S
C2587 C2588 1.287 . S
C2588 C2587 1.287 . S
C2588 C2589 1.524 . S
C2588 H2607 0.913 . S
C2589 H2565 0.950 . S
C2589 C2588 1.524 . S
C2589 C2590 1.415 . S
C2590 H2566 0.950 . S
C2590 C2585 1.363 . S
C2590 C2589 1.415 . S
C2591 H2567 0.951 . S
C2591 C2592 1.366 . S
C2591 C2593 1.388 . S
C2592 C2591 1.366 . S
C2592 C2596 1.385 . S
C2593 H2568 0.951 . S
C2593 C2591 1.388 . S
C2593 C2594 1.366 . S
C2594 C2593 1.366 . S
C2594 C2595 1.414 . S
C2594 C2597 1.499 . S
C2595 H2569 0.950 . S
C2595 C2594 1.414 . S
C2595 C2596 1.374 . S
C2596 H2570 0.950 . S
C2596 C2592 1.385 . S
C2596 C2595 1.374 . S
C2597 C2594 1.499 . S
C2597 C2598 1.373 . S
C2597 C2599 1.389 . S
C2598 H2571 0.950 . S
C2598 C2584 1.377 . S
C2598 C2597 1.373 . S
C2599 C2583 1.377 . S
C2599 C2597 1.389 . S
C2599 C2600 1.524 . S
C2600 C2599 1.524 . S
C2600 C2601 1.397 . S
C2600 C2605 1.363 . S
C2601 H2572 0.950 . S
C2601 C2600 1.397 . S
C2601 C2602 1.334 . S
C2602 H2573 0.950 . S
C2602 C2601 1.334 . S
C2602 C2603 1.287 . S
C2603 C2602 1.287 . S
C2603 C2604 1.524 . S
C2603 H2606 0.999 . S
C2604 H2574 0.950 . S
C2604 C2603 1.524 . S
C2604 C2605 1.415 . S
C2605 H2575 0.950 . S
C2605 C2600 1.363 . S
C2605 C2604 1.415 . S
H2606 C2603 0.999 . S
H2607 C2588 0.913 . S
H2608 C2626 0.951 . S
H2609 C2628 0.951 . S
H2610 C2630 0.950 . S
H2611 C2631 0.950 . S
H2612 C2633 0.950 . S
H2613 C2636 0.950 . S
H2614 C2637 0.950 . S
H2615 C2639 0.950 . S
H2616 C2640 0.950 . S
H2617 C2641 0.951 . S
H2618 C2643 0.951 . S
H2619 C2645 0.950 . S
H2620 C2646 0.950 . S
H2621 C2648 0.950 . S
H2622 C2651 0.950 . S
H2623 C2652 0.950 . S
H2624 C2654 0.950 . S
H2625 C2655 0.950 . S
C2626 H2608 0.951 . S
C2626 C2627 1.366 . S
C2626 C2628 1.388 . S
C2627 C2626 1.366 . S
C2627 C2631 1.385 . S
C2628 H2609 0.951 . S
C2628 C2626 1.388 . S
C2628 C2629 1.366 . S
C2629 C2628 1.366 . S
C2629 C2630 1.414 . S
C2629 C2632 1.499 . S
C2630 H2610 0.950 . S
C2630 C2629 1.414 . S
C2630 C2631 1.374 . S
C2631 H2611 0.950 . S
C2631 C2627 1.385 . S
C2631 C2630 1.374 . S
C2632 C2629 1.499 . S
C2632 C2633 1.373 . S
C2632 C2634 1.389 . S
C2633 H2612 0.950 . S
C2633 C2632 1.373 . S
C2633 C2649 1.377 . S
C2634 C2632 1.389 . S
C2634 C2635 1.524 . S
C2634 C2648 1.377 . S
C2635 C2634 1.524 . S
C2635 C2636 1.397 . S
C2635 C2640 1.363 . S
C2636 H2613 0.950 . S
C2636 C2635 1.397 . S
C2636 C2637 1.334 . S
C2637 H2614 0.950 . S
C2637 C2636 1.334 . S
C2637 C2638 1.287 . S
C2638 C2637 1.287 . S
C2638 C2639 1.524 . S
C2638 H2657 0.913 . S
C2639 H2615 0.950 . S
C2639 C2638 1.524 . S
C2639 C2640 1.415 . S
C2640 H2616 0.950 . S
C2640 C2635 1.363 . S
C2640 C2639 1.415 . S
C2641 H2617 0.951 . S
C2641 C2642 1.366 . S
C2641 C2643 1.388 . S
C2642 C2641 1.366 . S
C2642 C2646 1.385 . S
C2643 H2618 0.951 . S
C2643 C2641 1.388 . S
C2643 C2644 1.366 . S
C2644 C2643 1.366 . S
C2644 C2645 1.414 . S
C2644 C2647 1.499 . S
C2645 H2619 0.950 . S
C2645 C2644 1.414 . S
C2645 C2646 1.374 . S
C2646 H2620 0.950 . S
C2646 C2642 1.385 . S
C2646 C2645 1.374 . S
C2647 C2644 1.499 . S
C2647 C2648 1.373 . S
C2647 C2649 1.389 . S
C2648 H2621 0.950 . S
C2648 C2634 1.377 . S
C2648 C2647 1.373 . S
C2649 C2633 1.377 . S
C2649 C2647 1.389 . S
C2649 C2650 1.524 . S
C2650 C2649 1.524 . S
C2650 C2651 1.397 . S
C2650 C2655 1.363 . S
C2651 H2622 0.950 . S
C2651 C2650 1.397 . S
C2651 C2652 1.334 . S
C2652 H2623 0.950 . S
C2652 C2651 1.334 . S
C2652 C2653 1.287 . S
C2653 C2652 1.287 . S
C2653 C2654 1.524 . S
C2653 H2656 0.999 . S
C2654 H2624 0.950 . S
C2654 C2653 1.524 . S
C2654 C2655 1.415 . S
C2655 H2625 0.950 . S
C2655 C2650 1.363 . S
C2655 C2654 1.415 . S
H2656 C2653 0.999 . S
H2657 C2638 0.913 . S
H2658 C2676 0.951 . S
H2659 C2678 0.951 . S
H2660 C2680 0.950 . S
H2661 C2681 0.950 . S
H2662 C2683 0.950 . S
H2663 C2686 0.950 . S
H2664 C2687 0.950 . S
H2665 C2689 0.950 . S
H2666 C2690 0.950 . S
H2667 C2691 0.951 . S
H2668 C2693 0.951 . S
H2669 C2695 0.950 . S
H2670 C2696 0.950 . S
H2671 C2698 0.950 . S
H2672 C2701 0.950 . S
H2673 C2702 0.950 . S
H2674 C2704 0.950 . S
H2675 C2705 0.950 . S
C2676 H2658 0.951 . S
C2676 C2677 1.366 . S
C2676 C2678 1.388 . S
C2677 C2676 1.366 . S
C2677 C2681 1.385 . S
C2678 H2659 0.951 . S
C2678 C2676 1.388 . S
C2678 C2679 1.366 . S
C2679 C2678 1.366 . S
C2679 C2680 1.414 . S
C2679 C2682 1.499 . S
C2680 H2660 0.950 . S
C2680 C2679 1.414 . S
C2680 C2681 1.374 . S
C2681 H2661 0.950 . S
C2681 C2677 1.385 . S
C2681 C2680 1.374 . S
C2682 C2679 1.499 . S
C2682 C2683 1.373 . S
C2682 C2684 1.389 . S
C2683 H2662 0.950 . S
C2683 C2682 1.373 . S
C2683 C2699 1.377 . S
C2684 C2682 1.389 . S
C2684 C2685 1.524 . S
C2684 C2698 1.377 . S
C2685 C2684 1.524 . S
C2685 C2686 1.397 . S
C2685 C2690 1.363 . S
C2686 H2663 0.950 . S
C2686 C2685 1.397 . S
C2686 C2687 1.334 . S
C2687 H2664 0.950 . S
C2687 C2686 1.334 . S
C2687 C2688 1.287 . S
C2688 C2687 1.287 . S
C2688 C2689 1.524 . S
C2688 H2707 0.913 . S
C2689 H2665 0.950 . S
C2689 C2688 1.524 . S
C2689 C2690 1.415 . S
C2690 H2666 0.950 . S
C2690 C2685 1.363 . S
C2690 C2689 1.415 . S
C2691 H2667 0.951 . S
C2691 C2692 1.366 . S
C2691 C2693 1.388 . S
C2692 C2691 1.366 . S
C2692 C2696 1.385 . S
C2693 H2668 0.951 . S
C2693 C2691 1.388 . S
C2693 C2694 1.366 . S
C2694 C2693 1.366 . S
C2694 C2695 1.414 . S
C2694 C2697 1.499 . S
C2695 H2669 0.950 . S
C2695 C2694 1.414 . S
C2695 C2696 1.374 . S
C2696 H2670 0.950 . S
C2696 C2692 1.385 . S
C2696 C2695 1.374 . S
C2697 C2694 1.499 . S
C2697 C2698 1.373 . S
C2697 C2699 1.389 . S
C2698 H2671 0.950 . S
C2698 C2684 1.377 . S
C2698 C2697 1.373 . S
C2699 C2683 1.377 . S
C2699 C2697 1.389 . S
C2699 C2700 1.524 . S
C2700 C2699 1.524 . S
C2700 C2701 1.397 . S
C2700 C2705 1.363 . S
C2701 H2672 0.950 . S
C2701 C2700 1.397 . S
C2701 C2702 1.334 . S
C2702 H2673 0.950 . S
C2702 C2701 1.334 . S
C2702 C2703 1.287 . S
C2703 C2702 1.287 . S
C2703 C2704 1.524 . S
C2703 H2706 0.999 . S
C2704 H2674 0.950 . S
C2704 C2703 1.524 . S
C2704 C2705 1.415 . S
C2705 H2675 0.950 . S
C2705 C2700 1.363 . S
C2705 C2704 1.415 . S
H2706 C2703 0.999 . S
H2707 C2688 0.913 . S
H2708 C2726 0.951 . S
H2709 C2728 0.951 . S
H2710 C2730 0.950 . S
H2711 C2731 0.950 . S
H2712 C2733 0.950 . S
H2713 C2736 0.950 . S
H2714 C2737 0.950 . S
H2715 C2739 0.950 . S
H2716 C2740 0.950 . S
H2717 C2741 0.951 . S
H2718 C2743 0.951 . S
H2719 C2745 0.950 . S
H2720 C2746 0.950 . S
H2721 C2748 0.950 . S
H2722 C2751 0.950 . S
H2723 C2752 0.950 . S
H2724 C2754 0.950 . S
H2725 C2755 0.950 . S
C2726 H2708 0.951 . S
C2726 C2727 1.366 . S
C2726 C2728 1.388 . S
C2727 C2726 1.366 . S
C2727 C2731 1.385 . S
C2728 H2709 0.951 . S
C2728 C2726 1.388 . S
C2728 C2729 1.366 . S
C2729 C2728 1.366 . S
C2729 C2730 1.414 . S
C2729 C2732 1.499 . S
C2730 H2710 0.950 . S
C2730 C2729 1.414 . S
C2730 C2731 1.374 . S
C2731 H2711 0.950 . S
C2731 C2727 1.385 . S
C2731 C2730 1.374 . S
C2732 C2729 1.499 . S
C2732 C2733 1.373 . S
C2732 C2734 1.389 . S
C2733 H2712 0.950 . S
C2733 C2732 1.373 . S
C2733 C2749 1.377 . S
C2734 C2732 1.389 . S
C2734 C2735 1.524 . S
C2734 C2748 1.377 . S
C2735 C2734 1.524 . S
C2735 C2736 1.397 . S
C2735 C2740 1.363 . S
C2736 H2713 0.950 . S
C2736 C2735 1.397 . S
C2736 C2737 1.334 . S
C2737 H2714 0.950 . S
C2737 C2736 1.334 . S
C2737 C2738 1.287 . S
C2738 C2737 1.287 . S
C2738 C2739 1.524 . S
C2738 H2757 0.913 . S
C2739 H2715 0.950 . S
C2739 C2738 1.524 . S
C2739 C2740 1.415 . S
C2740 H2716 0.950 . S
C2740 C2735 1.363 . S
C2740 C2739 1.415 . S
C2741 H2717 0.951 . S
C2741 C2742 1.366 . S
C2741 C2743 1.388 . S
C2742 C2741 1.366 . S
C2742 C2746 1.385 . S
C2743 H2718 0.951 . S
C2743 C2741 1.388 . S
C2743 C2744 1.366 . S
C2744 C2743 1.366 . S
C2744 C2745 1.414 . S
C2744 C2747 1.499 . S
C2745 H2719 0.950 . S
C2745 C2744 1.414 . S
C2745 C2746 1.374 . S
C2746 H2720 0.950 . S
C2746 C2742 1.385 . S
C2746 C2745 1.374 . S
C2747 C2744 1.499 . S
C2747 C2748 1.373 . S
C2747 C2749 1.389 . S
C2748 H2721 0.950 . S
C2748 C2734 1.377 . S
C2748 C2747 1.373 . S
C2749 C2733 1.377 . S
C2749 C2747 1.389 . S
C2749 C2750 1.524 . S
C2750 C2749 1.524 . S
C2750 C2751 1.397 . S
C2750 C2755 1.363 . S
C2751 H2722 0.950 . S
C2751 C2750 1.397 . S
C2751 C2752 1.334 . S
C2752 H2723 0.950 . S
C2752 C2751 1.334 . S
C2752 C2753 1.287 . S
C2753 C2752 1.287 . S
C2753 C2754 1.524 . S
C2753 H2756 0.999 . S
C2754 H2724 0.950 . S
C2754 C2753 1.524 . S
C2754 C2755 1.415 . S
C2755 H2725 0.950 . S
C2755 C2750 1.363 . S
C2755 C2754 1.415 . S
H2756 C2753 0.999 . S
H2757 C2738 0.913 . S
H2758 C2776 0.951 . S
H2759 C2778 0.951 . S
H2760 C2780 0.950 . S
H2761 C2781 0.950 . S
H2762 C2783 0.950 . S
H2763 C2786 0.950 . S
H2764 C2787 0.950 . S
H2765 C2789 0.950 . S
H2766 C2790 0.950 . S
H2767 C2791 0.951 . S
H2768 C2793 0.951 . S
H2769 C2795 0.950 . S
H2770 C2796 0.950 . S
H2771 C2798 0.950 . S
H2772 C2801 0.950 . S
H2773 C2802 0.950 . S
H2774 C2804 0.950 . S
H2775 C2805 0.950 . S
C2776 H2758 0.951 . S
C2776 C2777 1.366 . S
C2776 C2778 1.388 . S
C2777 C2776 1.366 . S
C2777 C2781 1.385 . S
C2778 H2759 0.951 . S
C2778 C2776 1.388 . S
C2778 C2779 1.366 . S
C2779 C2778 1.366 . S
C2779 C2780 1.414 . S
C2779 C2782 1.499 . S
C2780 H2760 0.950 . S
C2780 C2779 1.414 . S
C2780 C2781 1.374 . S
C2781 H2761 0.950 . S
C2781 C2777 1.385 . S
C2781 C2780 1.374 . S
C2782 C2779 1.499 . S
C2782 C2783 1.373 . S
C2782 C2784 1.389 . S
C2783 H2762 0.950 . S
C2783 C2782 1.373 . S
C2783 C2799 1.377 . S
C2784 C2782 1.389 . S
C2784 C2785 1.524 . S
C2784 C2798 1.377 . S
C2785 C2784 1.524 . S
C2785 C2786 1.397 . S
C2785 C2790 1.363 . S
C2786 H2763 0.950 . S
C2786 C2785 1.397 . S
C2786 C2787 1.334 . S
C2787 H2764 0.950 . S
C2787 C2786 1.334 . S
C2787 C2788 1.287 . S
C2788 C2787 1.287 . S
C2788 C2789 1.524 . S
C2788 H2807 0.913 . S
C2789 H2765 0.950 . S
C2789 C2788 1.524 . S
C2789 C2790 1.415 . S
C2790 H2766 0.950 . S
C2790 C2785 1.363 . S
C2790 C2789 1.415 . S
C2791 H2767 0.951 . S
C2791 C2792 1.366 . S
C2791 C2793 1.388 . S
C2792 C2791 1.366 . S
C2792 C2796 1.385 . S
C2793 H2768 0.951 . S
C2793 C2791 1.388 . S
C2793 C2794 1.366 . S
C2794 C2793 1.366 . S
C2794 C2795 1.414 . S
C2794 C2797 1.499 . S
C2795 H2769 0.950 . S
C2795 C2794 1.414 . S
C2795 C2796 1.374 . S
C2796 H2770 0.950 . S
C2796 C2792 1.385 . S
C2796 C2795 1.374 . S
C2797 C2794 1.499 . S
C2797 C2798 1.373 . S
C2797 C2799 1.389 . S
C2798 H2771 0.950 . S
C2798 C2784 1.377 . S
C2798 C2797 1.373 . S
C2799 C2783 1.377 . S
C2799 C2797 1.389 . S
C2799 C2800 1.524 . S
C2800 C2799 1.524 . S
C2800 C2801 1.397 . S
C2800 C2805 1.363 . S
C2801 H2772 0.950 . S
C2801 C2800 1.397 . S
C2801 C2802 1.334 . S
C2802 H2773 0.950 . S
C2802 C2801 1.334 . S
C2802 C2803 1.287 . S
C2803 C2802 1.287 . S
C2803 C2804 1.524 . S
C2803 H2806 0.999 . S
C2804 H2774 0.950 . S
C2804 C2803 1.524 . S
C2804 C2805 1.415 . S
C2805 H2775 0.950 . S
C2805 C2800 1.363 . S
C2805 C2804 1.415 . S
H2806 C2803 0.999 . S
H2807 C2788 0.913 . S
H2808 C2826 0.951 . S
H2809 C2828 0.951 . S
H2810 C2830 0.950 . S
H2811 C2831 0.950 . S
H2812 C2833 0.950 . S
H2813 C2836 0.950 . S
H2814 C2837 0.950 . S
H2815 C2839 0.950 . S
H2816 C2840 0.950 . S
H2817 C2841 0.951 . S
H2818 C2843 0.951 . S
H2819 C2845 0.950 . S
H2820 C2846 0.950 . S
H2821 C2848 0.950 . S
H2822 C2851 0.950 . S
H2823 C2852 0.950 . S
H2824 C2854 0.950 . S
H2825 C2855 0.950 . S
C2826 H2808 0.951 . S
C2826 C2827 1.366 . S
C2826 C2828 1.388 . S
C2827 C2826 1.366 . S
C2827 C2831 1.385 . S
C2828 H2809 0.951 . S
C2828 C2826 1.388 . S
C2828 C2829 1.366 . S
C2829 C2828 1.366 . S
C2829 C2830 1.414 . S
C2829 C2832 1.499 . S
C2830 H2810 0.950 . S
C2830 C2829 1.414 . S
C2830 C2831 1.374 . S
C2831 H2811 0.950 . S
C2831 C2827 1.385 . S
C2831 C2830 1.374 . S
C2832 C2829 1.499 . S
C2832 C2833 1.373 . S
C2832 C2834 1.389 . S
C2833 H2812 0.950 . S
C2833 C2832 1.373 . S
C2833 C2849 1.377 . S
C2834 C2832 1.389 . S
C2834 C2835 1.524 . S
C2834 C2848 1.377 . S
C2835 C2834 1.524 . S
C2835 C2836 1.397 . S
C2835 C2840 1.363 . S
C2836 H2813 0.950 . S
C2836 C2835 1.397 . S
C2836 C2837 1.334 . S
C2837 H2814 0.950 . S
C2837 C2836 1.334 . S
C2837 C2838 1.287 . S
C2838 C2837 1.287 . S
C2838 C2839 1.524 . S
C2838 H2857 0.913 . S
C2839 H2815 0.950 . S
C2839 C2838 1.524 . S
C2839 C2840 1.415 . S
C2840 H2816 0.950 . S
C2840 C2835 1.363 . S
C2840 C2839 1.415 . S
C2841 H2817 0.951 . S
C2841 C2842 1.366 . S
C2841 C2843 1.388 . S
C2842 C2841 1.366 . S
C2842 C2846 1.385 . S
C2843 H2818 0.951 . S
C2843 C2841 1.388 . S
C2843 C2844 1.366 . S
C2844 C2843 1.366 . S
C2844 C2845 1.414 . S
C2844 C2847 1.499 . S
C2845 H2819 0.950 . S
C2845 C2844 1.414 . S
C2845 C2846 1.374 . S
C2846 H2820 0.950 . S
C2846 C2842 1.385 . S
C2846 C2845 1.374 . S
C2847 C2844 1.499 . S
C2847 C2848 1.373 . S
C2847 C2849 1.389 . S
C2848 H2821 0.950 . S
C2848 C2834 1.377 . S
C2848 C2847 1.373 . S
C2849 C2833 1.377 . S
C2849 C2847 1.389 . S
C2849 C2850 1.524 . S
C2850 C2849 1.524 . S
C2850 C2851 1.397 . S
C2850 C2855 1.363 . S
C2851 H2822 0.950 . S
C2851 C2850 1.397 . S
C2851 C2852 1.334 . S
C2852 H2823 0.950 . S
C2852 C2851 1.334 . S
C2852 C2853 1.287 . S
C2853 C2852 1.287 . S
C2853 C2854 1.524 . S
C2853 H2856 0.999 . S
C2854 H2824 0.950 . S
C2854 C2853 1.524 . S
C2854 C2855 1.415 . S
C2855 H2825 0.950 . S
C2855 C2850 1.363 . S
C2855 C2854 1.415 . S
H2856 C2853 0.999 . S
H2857 C2838 0.913 . S
H2858 C2876 0.951 . S
H2859 C2878 0.951 . S
H2860 C2880 0.950 . S
H2861 C2881 0.950 . S
H2862 C2883 0.950 . S
H2863 C2886 0.950 . S
H2864 C2887 0.950 . S
H2865 C2889 0.950 . S
H2866 C2890 0.950 . S
H2867 C2891 0.951 . S
H2868 C2893 0.951 . S
H2869 C2895 0.950 . S
H2870 C2896 0.950 . S
H2871 C2898 0.950 . S
H2872 C2901 0.950 . S
H2873 C2902 0.950 . S
H2874 C2904 0.950 . S
H2875 C2905 0.950 . S
C2876 H2858 0.951 . S
C2876 C2877 1.366 . S
C2876 C2878 1.388 . S
C2877 C2876 1.366 . S
C2877 C2881 1.385 . S
C2878 H2859 0.951 . S
C2878 C2876 1.388 . S
C2878 C2879 1.366 . S
C2879 C2878 1.366 . S
C2879 C2880 1.414 . S
C2879 C2882 1.499 . S
C2880 H2860 0.950 . S
C2880 C2879 1.414 . S
C2880 C2881 1.374 . S
C2881 H2861 0.950 . S
C2881 C2877 1.385 . S
C2881 C2880 1.374 . S
C2882 C2879 1.499 . S
C2882 C2883 1.373 . S
C2882 C2884 1.389 . S
C2883 H2862 0.950 . S
C2883 C2882 1.373 . S
C2883 C2899 1.377 . S
C2884 C2882 1.389 . S
C2884 C2885 1.524 . S
C2884 C2898 1.377 . S
C2885 C2884 1.524 . S
C2885 C2886 1.397 . S
C2885 C2890 1.363 . S
C2886 H2863 0.950 . S
C2886 C2885 1.397 . S
C2886 C2887 1.334 . S
C2887 H2864 0.950 . S
C2887 C2886 1.334 . S
C2887 C2888 1.287 . S
C2888 C2887 1.287 . S
C2888 C2889 1.524 . S
C2888 H2907 0.913 . S
C2889 H2865 0.950 . S
C2889 C2888 1.524 . S
C2889 C2890 1.415 . S
C2890 H2866 0.950 . S
C2890 C2885 1.363 . S
C2890 C2889 1.415 . S
C2891 H2867 0.951 . S
C2891 C2892 1.366 . S
C2891 C2893 1.388 . S
C2892 C2891 1.366 . S
C2892 C2896 1.385 . S
C2893 H2868 0.951 . S
C2893 C2891 1.388 . S
C2893 C2894 1.366 . S
C2894 C2893 1.366 . S
C2894 C2895 1.414 . S
C2894 C2897 1.499 . S
C2895 H2869 0.950 . S
C2895 C2894 1.414 . S
C2895 C2896 1.374 . S
C2896 H2870 0.950 . S
C2896 C2892 1.385 . S
C2896 C2895 1.374 . S
C2897 C2894 1.499 . S
C2897 C2898 1.373 . S
C2897 C2899 1.389 . S
C2898 H2871 0.950 . S
C2898 C2884 1.377 . S
C2898 C2897 1.373 . S
C2899 C2883 1.377 . S
C2899 C2897 1.389 . S
C2899 C2900 1.524 . S
C2900 C2899 1.524 . S
C2900 C2901 1.397 . S
C2900 C2905 1.363 . S
C2901 H2872 0.950 . S
C2901 C2900 1.397 . S
C2901 C2902 1.334 . S
C2902 H2873 0.950 . S
C2902 C2901 1.334 . S
C2902 C2903 1.287 . S
C2903 C2902 1.287 . S
C2903 C2904 1.524 . S
C2903 H2906 0.999 . S
C2904 H2874 0.950 . S
C2904 C2903 1.524 . S
C2904 C2905 1.415 . S
C2905 H2875 0.950 . S
C2905 C2900 1.363 . S
C2905 C2904 1.415 . S
H2906 C2903 0.999 . S
H2907 C2888 0.913 . S
H2908 C2926 0.951 . S
H2909 C2928 0.951 . S
H2910 C2930 0.950 . S
H2911 C2931 0.950 . S
H2912 C2933 0.950 . S
H2913 C2936 0.950 . S
H2914 C2937 0.950 . S
H2915 C2939 0.950 . S
H2916 C2940 0.950 . S
H2917 C2941 0.951 . S
H2918 C2943 0.951 . S
H2919 C2945 0.950 . S
H2920 C2946 0.950 . S
H2921 C2948 0.950 . S
H2922 C2951 0.950 . S
H2923 C2952 0.950 . S
H2924 C2954 0.950 . S
H2925 C2955 0.950 . S
C2926 H2908 0.951 . S
C2926 C2927 1.366 . S
C2926 C2928 1.388 . S
C2927 C2926 1.366 . S
C2927 C2931 1.385 . S
C2928 H2909 0.951 . S
C2928 C2926 1.388 . S
C2928 C2929 1.366 . S
C2929 C2928 1.366 . S
C2929 C2930 1.414 . S
C2929 C2932 1.499 . S
C2930 H2910 0.950 . S
C2930 C2929 1.414 . S
C2930 C2931 1.374 . S
C2931 H2911 0.950 . S
C2931 C2927 1.385 . S
C2931 C2930 1.374 . S
C2932 C2929 1.499 . S
C2932 C2933 1.373 . S
C2932 C2934 1.389 . S
C2933 H2912 0.950 . S
C2933 C2932 1.373 . S
C2933 C2949 1.377 . S
C2934 C2932 1.389 . S
C2934 C2935 1.524 . S
C2934 C2948 1.377 . S
C2935 C2934 1.524 . S
C2935 C2936 1.397 . S
C2935 C2940 1.363 . S
C2936 H2913 0.950 . S
C2936 C2935 1.397 . S
C2936 C2937 1.334 . S
C2937 H2914 0.950 . S
C2937 C2936 1.334 . S
C2937 C2938 1.287 . S
C2938 C2937 1.287 . S
C2938 C2939 1.524 . S
C2938 H2957 0.913 . S
C2939 H2915 0.950 . S
C2939 C2938 1.524 . S
C2939 C2940 1.415 . S
C2940 H2916 0.950 . S
C2940 C2935 1.363 . S
C2940 C2939 1.415 . S
C2941 H2917 0.951 . S
C2941 C2942 1.366 . S
C2941 C2943 1.388 . S
C2942 C2941 1.366 . S
C2942 C2946 1.385 . S
C2943 H2918 0.951 . S
C2943 C2941 1.388 . S
C2943 C2944 1.366 . S
C2944 C2943 1.366 . S
C2944 C2945 1.414 . S
C2944 C2947 1.499 . S
C2945 H2919 0.950 . S
C2945 C2944 1.414 . S
C2945 C2946 1.374 . S
C2946 H2920 0.950 . S
C2946 C2942 1.385 . S
C2946 C2945 1.374 . S
C2947 C2944 1.499 . S
C2947 C2948 1.373 . S
C2947 C2949 1.389 . S
C2948 H2921 0.950 . S
C2948 C2934 1.377 . S
C2948 C2947 1.373 . S
C2949 C2933 1.377 . S
C2949 C2947 1.389 . S
C2949 C2950 1.524 . S
C2950 C2949 1.524 . S
C2950 C2951 1.397 . S
C2950 C2955 1.363 . S
C2951 H2922 0.950 . S
C2951 C2950 1.397 . S
C2951 C2952 1.334 . S
C2952 H2923 0.950 . S
C2952 C2951 1.334 . S
C2952 C2953 1.287 . S
C2953 C2952 1.287 . S
C2953 C2954 1.524 . S
C2953 H2956 0.999 . S
C2954 H2924 0.950 . S
C2954 C2953 1.524 . S
C2954 C2955 1.415 . S
C2955 H2925 0.950 . S
C2955 C2950 1.363 . S
C2955 C2954 1.415 . S
H2956 C2953 0.999 . S
H2957 C2938 0.913 . S
H2958 C2976 0.951 . S
H2959 C2978 0.951 . S
H2960 C2980 0.950 . S
H2961 C2981 0.950 . S
H2962 C2983 0.950 . S
H2963 C2986 0.950 . S
H2964 C2987 0.950 . S
H2965 C2989 0.950 . S
H2966 C2990 0.950 . S
H2967 C2991 0.951 . S
H2968 C2993 0.951 . S
H2969 C2995 0.950 . S
H2970 C2996 0.950 . S
H2971 C2998 0.950 . S
H2972 C3001 0.950 . S
H2973 C3002 0.950 . S
H2974 C3004 0.950 . S
H2975 C3005 0.950 . S
C2976 H2958 0.951 . S
C2976 C2977 1.366 . S
C2976 C2978 1.388 . S
C2977 C2976 1.366 . S
C2977 C2981 1.385 . S
C2978 H2959 0.951 . S
C2978 C2976 1.388 . S
C2978 C2979 1.366 . S
C2979 C2978 1.366 . S
C2979 C2980 1.414 . S
C2979 C2982 1.499 . S
C2980 H2960 0.950 . S
C2980 C2979 1.414 . S
C2980 C2981 1.374 . S
C2981 H2961 0.950 . S
C2981 C2977 1.385 . S
C2981 C2980 1.374 . S
C2982 C2979 1.499 . S
C2982 C2983 1.373 . S
C2982 C2984 1.389 . S
C2983 H2962 0.950 . S
C2983 C2982 1.373 . S
C2983 C2999 1.377 . S
C2984 C2982 1.389 . S
C2984 C2985 1.524 . S
C2984 C2998 1.377 . S
C2985 C2984 1.524 . S
C2985 C2986 1.397 . S
C2985 C2990 1.363 . S
C2986 H2963 0.950 . S
C2986 C2985 1.397 . S
C2986 C2987 1.334 . S
C2987 H2964 0.950 . S
C2987 C2986 1.334 . S
C2987 C2988 1.287 . S
C2988 C2987 1.287 . S
C2988 C2989 1.524 . S
C2988 H3007 0.913 . S
C2989 H2965 0.950 . S
C2989 C2988 1.524 . S
C2989 C2990 1.415 . S
C2990 H2966 0.950 . S
C2990 C2985 1.363 . S
C2990 C2989 1.415 . S
C2991 H2967 0.951 . S
C2991 C2992 1.366 . S
C2991 C2993 1.388 . S
C2992 C2991 1.366 . S
C2992 C2996 1.385 . S
C2993 H2968 0.951 . S
C2993 C2991 1.388 . S
C2993 C2994 1.366 . S
C2994 C2993 1.366 . S
C2994 C2995 1.414 . S
C2994 C2997 1.499 . S
C2995 H2969 0.950 . S
C2995 C2994 1.414 . S
C2995 C2996 1.374 . S
C2996 H2970 0.950 . S
C2996 C2992 1.385 . S
C2996 C2995 1.374 . S
C2997 C2994 1.499 . S
C2997 C2998 1.373 . S
C2997 C2999 1.389 . S
C2998 H2971 0.950 . S
C2998 C2984 1.377 . S
C2998 C2997 1.373 . S
C2999 C2983 1.377 . S
C2999 C2997 1.389 . S
C2999 C3000 1.524 . S
C3000 C2999 1.524 . S
C3000 C3001 1.397 . S
C3000 C3005 1.363 . S
C3001 H2972 0.950 . S
C3001 C3000 1.397 . S
C3001 C3002 1.334 . S
C3002 H2973 0.950 . S
C3002 C3001 1.334 . S
C3002 C3003 1.287 . S
C3003 C3002 1.287 . S
C3003 C3004 1.524 . S
C3003 H3006 0.999 . S
C3004 H2974 0.950 . S
C3004 C3003 1.524 . S
C3004 C3005 1.415 . S
C3005 H2975 0.950 . S
C3005 C3000 1.363 . S
C3005 C3004 1.415 . S
H3006 C3003 0.999 . S
H3007 C2988 0.913 . S
C1427 C20 1.290 . S
C1442 C1085 1.289 . S
C1477 C1164 1.289 . S
C1492 C137 1.290 . S
C1527 C233 1.290 . S
C1542 C1281 1.289 . S
C1577 C1377 1.289 . S
C1592 C284 1.289 . S
C1627 C724 1.290 . S
C1642 C381 1.289 . S
C1677 C460 1.289 . S
C1692 C841 1.290 . S
C1727 C937 1.289 . S
C1742 C577 1.289 . S
C1777 C673 1.289 . S
C1792 C988 1.290 . S
C1827 C49 1.456 . S
C1842 C205 1.457 . S
C1877 C108 1.456 . S
C1892 C313 1.456 . S
C1927 C372 1.452 . S
C1942 C585 1.452 . S
C1977 C469 1.452 . S
C1992 C665 1.452 . S
C2027 C909 1.457 . S
C2042 C753 1.456 . S
C2077 C812 1.456 . S
C2092 C1017 1.457 . S
C2127 C1289 1.452 . S
C2142 C1076 1.452 . S
C2177 C1173 1.452 . S
C2192 C1369 1.452 . S
C2227 C548 1.509 . S
C2242 C29 1.510 . S
C2277 C645 1.509 . S
C2292 C145 1.509 . S
C2327 C225 1.510 . S
C2342 C409 1.509 . S
C2377 C293 1.509 . S
C2392 C489 1.510 . S
C2427 C1252 1.510 . S
C2442 C733 1.509 . S
C2477 C849 1.509 . S
C2492 C1349 1.510 . S
C2527 C1113 1.510 . S
C2542 C929 1.509 . S
C2577 C997 1.509 . S
C2592 C1193 1.510 . S
C2627 C57 1.284 . S
C2642 C321 1.284 . S
C2677 C196 1.284 . S
C2692 C117 1.284 . S
C2727 C401 1.264 . S
C2742 C636 1.264 . S
C2777 C497 1.264 . S
C2792 C557 1.264 . S
C2827 C1025 1.284 . S
C2842 C761 1.284 . S
C2877 C821 1.284 . S
C2892 C900 1.284 . S
C2927 C1340 1.264 . S
C2942 C1105 1.264 . S
C2977 C1201 1.264 . S
C2992 C1261 1.264 . S
