# Generated by pormake.
# Topology wgw, (6)-cn, num edge types: 1
# Building blocks:
#     Node 0, Type 0, BuildingBlock: OJICUG_clean_sbu_0, # of connection points: 6
#     Node 1, Type 0, BuildingBlock: OJICUG_clean_sbu_0, # of connection points: 6
#     Node 2, Type 0, BuildingBlock: OJICUG_clean_sbu_0, # of connection points: 6
#     Node 3, Type 0, BuildingBlock: OJICUG_clean_sbu_0, # of connection points: 6
#     Node 4, Type 0, BuildingBlock: OJICUG_clean_sbu_0, # of connection points: 6
#     Node 5, Type 0, BuildingBlock: OJICUG_clean_sbu_0, # of connection points: 6
#     Node 6, Type 0, BuildingBlock: OJICUG_clean_sbu_0, # of connection points: 6
#     Node 7, Type 0, BuildingBlock: OJICUG_clean_sbu_0, # of connection points: 6
#     Edge 8, Type (0, 0), BuildingBlock: EZIPEK_clean_linker_0, # of connection points: 2
#     Edge 9, Type (0, 0), BuildingBlock: EZIPEK_clean_linker_0, # of connection points: 2
#     Edge 10, Type (0, 0), BuildingBlock: EZIPEK_clean_linker_0, # of connection points: 2
#     Edge 11, Type (0, 0), BuildingBlock: EZIPEK_clean_linker_0, # of connection points: 2
#     Edge 12, Type (0, 0), BuildingBlock: EZIPEK_clean_linker_0, # of connection points: 2
#     Edge 13, Type (0, 0), BuildingBlock: EZIPEK_clean_linker_0, # of connection points: 2
#     Edge 14, Type (0, 0), BuildingBlock: EZIPEK_clean_linker_0, # of connection points: 2
#     Edge 15, Type (0, 0), BuildingBlock: EZIPEK_clean_linker_0, # of connection points: 2
#     Edge 16, Type (0, 0), BuildingBlock: EZIPEK_clean_linker_0, # of connection points: 2
#     Edge 17, Type (0, 0), BuildingBlock: EZIPEK_clean_linker_0, # of connection points: 2
#     Edge 18, Type (0, 0), BuildingBlock: EZIPEK_clean_linker_0, # of connection points: 2
#     Edge 19, Type (0, 0), BuildingBlock: EZIPEK_clean_linker_0, # of connection points: 2
#     Edge 20, Type (0, 0), BuildingBlock: EZIPEK_clean_linker_0, # of connection points: 2
#     Edge 21, Type (0, 0), BuildingBlock: EZIPEK_clean_linker_0, # of connection points: 2
#     Edge 22, Type (0, 0), BuildingBlock: EZIPEK_clean_linker_0, # of connection points: 2
#     Edge 23, Type (0, 0), BuildingBlock: EZIPEK_clean_linker_0, # of connection points: 2
#     Edge 24, Type (0, 0), BuildingBlock: EZIPEK_clean_linker_0, # of connection points: 2
#     Edge 25, Type (0, 0), BuildingBlock: EZIPEK_clean_linker_0, # of connection points: 2
#     Edge 26, Type (0, 0), BuildingBlock: EZIPEK_clean_linker_0, # of connection points: 2
#     Edge 27, Type (0, 0), BuildingBlock: EZIPEK_clean_linker_0, # of connection points: 2
#     Edge 28, Type (0, 0), BuildingBlock: EZIPEK_clean_linker_0, # of connection points: 2
#     Edge 29, Type (0, 0), BuildingBlock: EZIPEK_clean_linker_0, # of connection points: 2
#     Edge 30, Type (0, 0), BuildingBlock: EZIPEK_clean_linker_0, # of connection points: 2
#     Edge 31, Type (0, 0), BuildingBlock: EZIPEK_clean_linker_0, # of connection points: 2
# Relax obj value: 0.221
# Max RMSD: 0.288
# Mean RMSD: 0.288
data_MOF--net-wgw--node1-OJICUG_clean_sbu_0--edge1-EZIPEK_clean_linker_0
_symmetry_space_group_name_H-M    P1
_symmetry_Int_Tables_number       1
_symmetry_cell_setting            triclinic
loop_
_symmetry_equiv_pos_as_xyz
'x, y, z'
_cell_length_a     21.861805
_cell_length_b     21.813221
_cell_length_c     32.585888
_cell_angle_alpha  89.938279
_cell_angle_beta   90.019832
_cell_angle_gamma 89.987115
loop_
_atom_site_label
_atom_site_type_symbol
_atom_site_fract_x
_atom_site_fract_y
_atom_site_fract_z
_atom_type_partial_charge
Sc0 Sc 0.13326 0.47538 0.13675 0.0
Sc1 Sc 0.06378 0.45706 0.22994 0.0
Sc2 Sc 0.02256 0.36446 0.14789 0.0
O3 O 0.07301 0.43097 0.17185 0.0
C4 C 0.03276 0.44813 0.07108 0.0
C5 C 0.06849 0.58172 0.17945 0.0
C6 C 0.92872 0.44135 0.20234 0.0
C7 C 0.1977 0.47829 0.22386 0.0
C8 C 0.16231 0.33776 0.12207 0.0
C9 C 0.03799 0.31264 0.23707 0.0
O10 O 0.08886 0.45695 0.07875 0.0
O11 O 0.07625 0.55316 0.21332 0.0
O12 O 0.93979 0.39801 0.1771 0.0
O13 O 0.18765 0.50204 0.18889 0.0
O14 O 0.10506 0.32499 0.11952 0.0
O15 O 0.04446 0.36537 0.25323 0.0
O16 O 0.18262 0.39086 0.13128 0.0
O17 O 0.15917 0.44331 0.24086 0.0
O18 O 0.03797 0.30397 0.19852 0.0
O19 O 0.08086 0.55809 0.14466 0.0
O20 O -0.00171 0.42149 0.09662 0.0
O21 O 0.96987 0.47214 0.22029 0.0
Sc22 Sc 0.11947 0.00243 0.65411 0.0
Sc23 Sc 0.01035 0.02022 0.73206 0.0
Sc24 Sc 0.00378 0.11081 0.64359 0.0
O25 O 0.04435 0.04445 0.67667 0.0
C26 C 0.14696 0.14084 0.63443 0.0
C27 C 0.14928 0.00693 0.75024 0.0
C28 C 0.99061 0.16526 0.73186 0.0
C29 C 0.04581 0.89286 0.68997 0.0
C30 C 0.03989 0.02088 0.5734 0.0
C31 C 0.88847 0.03782 0.68205 0.0
O32 O 0.16555 0.0895 0.6483 0.0
O33 O 0.09809 0.02841 0.76187 0.0
O34 O 0.00585 0.17165 0.69458 0.0
O35 O 0.07595 0.91449 0.65988 0.0
O36 O -0.00046 0.05458 0.58983 0.0
O37 O 0.91996 0.0077 0.70783 0.0
O38 O 0.08904 0.0052 0.59124 0.0
O39 O 0.02653 0.92493 0.71987 0.0
O40 O 0.91126 0.07947 0.65909 0.0
O41 O 0.16051 0.99136 0.71351 0.0
O42 O 0.09099 0.15178 0.62603 0.0
O43 O 0.98675 0.11328 0.74947 0.0
Sc44 Sc 0.49157 0.13514 0.15149 0.0
Sc45 Sc 0.47952 0.04565 0.23743 0.0
Sc46 Sc 0.38771 0.01325 0.15347 0.0
O47 O 0.45097 0.06569 0.18086 0.0
C48 C 0.35196 0.15316 0.13139 0.0
C49 C 0.47905 0.18311 0.2449 0.0
C50 C 0.33849 0.00566 0.24209 0.0
C51 C 0.60279 0.07559 0.19385 0.0
C52 C 0.4729 0.04036 0.07844 0.0
C53 C 0.47718 0.91774 0.19806 0.0
O54 O 0.40316 0.17634 0.14206 0.0
O55 O 0.45532 0.13452 0.25939 0.0
O56 O 0.32749 0.01758 0.2048 0.0
O57 O 0.58028 0.09228 0.15965 0.0
O58 O 0.44183 0.00242 0.09924 0.0
O59 O 0.50818 0.96003 0.2145 0.0
O60 O 0.48799 0.09304 0.09154 0.0
O61 O 0.57169 0.07626 0.22665 0.0
O62 O 0.42789 0.92811 0.17795 0.0
O63 O 0.50079 0.1867 0.20857 0.0
O64 O 0.34182 0.09533 0.1296 0.0
O65 O 0.39184 0.00865 0.25758 0.0
Sc66 Sc 0.46152 0.37254 0.65382 0.0
Sc67 Sc 0.44494 0.4706 0.73802 0.0
Sc68 Sc 0.34706 0.48469 0.65317 0.0
O69 O 0.41729 0.44246 0.68189 0.0
C70 C 0.43267 0.45953 0.57791 0.0
C71 C 0.57029 0.44714 0.68948 0.0
C72 C 0.42229 0.5968 0.6931 0.0
C73 C 0.46676 0.33101 0.74867 0.0
C74 C 0.32285 0.34015 0.63857 0.0
C75 C 0.29943 0.48746 0.74424 0.0
O76 O 0.45381 0.4101 0.59273 0.0
O77 O 0.53996 0.46128 0.72144 0.0
O78 O 0.38021 0.57624 0.66962 0.0
O79 O 0.4795 0.32495 0.71082 0.0
O80 O 0.30705 0.39649 0.63541 0.0
O81 O 0.35254 0.48657 0.76033 0.0
O82 O 0.37685 0.323 0.64771 0.0
O83 O 0.44352 0.37951 0.76352 0.0
O84 O 0.2899 0.48135 0.70612 0.0
O85 O 0.54747 0.41946 0.65881 0.0
O86 O 0.39703 0.49468 0.59733 0.0
O87 O 0.45169 0.56353 0.71814 0.0
Sc88 Sc 0.5219 0.62924 0.34604 0.0
Sc89 Sc 0.56111 0.53808 0.26161 0.0
Sc90 Sc 0.62757 0.50927 0.35613 0.0
O91 O 0.56953 0.55918 0.3214 0.0
C92 C 0.6635 0.64852 0.37083 0.0
C93 C 0.54575 0.68124 0.25567 0.0
C94 C 0.69566 0.50578 0.26976 0.0
C95 C 0.4244 0.56078 0.29153 0.0
C96 C 0.52973 0.54379 0.42391 0.0
C97 C 0.55721 0.40895 0.30887 0.0
O98 O 0.60812 0.66761 0.36832 0.0
O99 O 0.56139 0.63107 0.23932 0.0
O100 O 0.68686 0.48628 0.30592 0.0
O101 O 0.43593 0.59545 0.32205 0.0
O102 O 0.57894 0.51853 0.41277 0.0
O103 O 0.55825 0.44149 0.27634 0.0
O104 O 0.5013 0.58225 0.40209 0.0
O105 O 0.4652 0.53818 0.26834 0.0
O106 O 0.57532 0.42795 0.34378 0.0
O107 O 0.53121 0.68544 0.29319 0.0
O108 O 0.67909 0.59226 0.36703 0.0
O109 O 0.65683 0.53785 0.25087 0.0
Sc110 Sc 0.8509 0.50766 0.84012 0.0
Sc111 Sc 0.94693 0.52972 0.75638 0.0
Sc112 Sc 0.95929 0.6232 0.84162 0.0
O113 O 0.91809 0.55373 0.81218 0.0
C114 C 0.82171 0.65089 0.85489 0.0
C115 C 0.80154 0.51049 0.75013 0.0
C116 C 0.96676 0.66668 0.74803 0.0
C117 C 0.92632 0.40091 0.79538 0.0
C118 C 0.93485 0.53286 0.9149 0.0
C119 C 0.06977 0.55198 0.80754 0.0
O120 O 0.81056 0.5942 0.86239 0.0
O121 O 0.85482 0.51202 0.73433 0.0
O122 O 0.98324 0.67032 0.78535 0.0
O123 O 0.88228 0.4184 0.81823 0.0
O124 O 0.94237 0.58768 0.90286 0.0
O125 O 0.04123 0.5433 0.77391 0.0
O126 O 0.90826 0.49358 0.89261 0.0
O127 O 0.95902 0.43738 0.77471 0.0
O128 O 0.04527 0.5753 0.83933 0.0
O129 O 0.7914 0.51493 0.78837 0.0
O130 O 0.87358 0.67025 0.84278 0.0
O131 O 0.93929 0.62068 0.73339 0.0
Sc132 Sc 0.8902 0.97138 0.33995 0.0
Sc133 Sc 0.97568 0.95113 0.24953 0.0
Sc134 Sc -0.00345 0.85145 0.33293 0.0
O135 O 0.95358 0.9245 0.30731 0.0
C136 C 0.98157 0.93772 0.41112 0.0
C137 C 0.96801 0.07804 0.29608 0.0
C138 C 0.10566 0.91945 0.29033 0.0
C139 C 0.83155 0.98217 0.25166 0.0
C140 C 0.8574 0.82949 0.35668 0.0
C141 C 0.98659 0.80972 0.23835 0.0
O142 O 0.94545 0.97504 0.39391 0.0
O143 O 0.99051 0.04327 0.26886 0.0
O144 O 0.0851 0.89194 0.32191 0.0
O145 O 0.82662 0.97502 0.29012 0.0
O146 O 0.90912 0.8086 0.34503 0.0
O147 O 0.9658 0.86 0.22428 0.0
O148 O 0.84542 0.8867 0.35924 0.0
O149 O 0.88191 0.97496 0.23242 0.0
O150 O 0.00244 0.80257 0.27556 0.0
O151 O 0.92883 0.06014 0.32257 0.0
O152 O 0.00032 0.88896 0.39413 0.0
O153 O 0.07219 0.93646 0.26043 0.0
Sc154 Sc 0.49694 0.87782 0.84003 0.0
Sc155 Sc 0.50655 0.9789 0.75564 0.0
Sc156 Sc 0.6162 0.98597 0.83545 0.0
O157 O 0.54005 0.94742 0.81019 0.0
C158 C 0.53611 0.96163 0.91523 0.0
C159 C 0.38296 0.95281 0.80675 0.0
C160 C 0.54189 0.10277 0.80417 0.0
C161 C 0.48486 0.83613 0.7457 0.0
C162 C 0.63819 0.84237 0.84974 0.0
C163 C 0.6502 0.99012 0.7398 0.0
O164 O 0.50309 0.92037 0.89919 0.0
O165 O 0.41297 0.97624 0.77714 0.0
O166 O 0.58116 0.07816 0.82786 0.0
O167 O 0.48346 0.82768 0.78429 0.0
O168 O 0.65796 0.89697 0.84542 0.0
O169 O 0.59572 0.98573 0.72644 0.0
O170 O 0.58171 0.82835 0.84862 0.0
O171 O 0.49561 0.88804 0.72933 0.0
O172 O 0.66334 0.9908 0.77775 0.0
O173 O 0.40771 0.91954 0.83414 0.0
O174 O 0.57896 0.9886 0.8963 0.0
O175 O 0.51216 0.0729 0.77706 0.0
C176 C 0.35109 0.54882 0.23543 0.0
C177 C 0.36123 0.54882 0.27824 0.0
C178 C 0.25834 0.50792 0.28787 0.0
C179 C 0.25494 0.49608 0.24482 0.0
N180 N 0.31155 0.48667 0.18111 0.0
N181 N 0.32699 0.51774 0.34579 0.0
C182 C 0.30551 0.51075 0.21958 0.0
C183 C 0.31564 0.52538 0.30492 0.0
N184 N 0.38545 0.58456 0.20988 0.0
N185 N 0.20752 0.50617 0.31217 0.0
H186 H 0.36835 0.52959 0.35949 0.0
H187 H 0.29676 0.49489 0.36526 0.0
H188 H 0.16357 0.49854 0.30109 0.0
H189 H 0.20833 0.51955 0.34288 0.0
H190 H 0.37679 0.58768 0.17845 0.0
H191 H 0.41732 0.61602 0.22108 0.0
H192 H 0.35023 0.49436 0.16306 0.0
H193 H 0.2822 0.45299 0.16976 0.0
C194 C 0.96537 0.29473 0.80929 0.0
C195 C 0.93239 0.33591 0.78395 0.0
C196 C 0.92494 0.25808 0.73054 0.0
C197 C 0.96682 0.22065 0.75257 0.0
N198 N 0.03195 0.20569 0.81167 0.0
N199 N 0.89085 0.36024 0.71684 0.0
C200 C 0.98776 0.23895 0.79204 0.0
C201 C 0.91449 0.31838 0.74378 0.0
N202 N 0.97663 0.30979 0.84925 0.0
N203 N 0.89457 0.23647 0.69677 0.0
H204 H 0.88117 0.40523 0.72464 0.0
H205 H 0.88551 0.35164 0.68558 0.0
H206 H 0.90129 0.19322 0.68422 0.0
H207 H 0.8578 0.25955 0.68346 0.0
H208 H -0.00415 0.27953 0.87036 0.0
H209 H 0.96194 0.35107 0.86208 0.0
H210 H 0.05349 0.22019 0.83846 0.0
H211 H 0.05091 0.16585 0.79946 0.0
C212 C 0.27568 0.91754 0.26646 0.0
C213 C 0.28706 0.98161 0.26672 0.0
C214 C 0.18597 3e-05 0.29631 0.0
C215 C 0.17076 0.93777 0.28895 0.0
N216 N 0.20012 0.83582 0.26889 0.0
N217 N 0.2565 0.08416 0.28398 0.0
C218 C 0.21573 0.89573 0.2753 0.0
C219 C 0.24352 0.02288 0.28299 0.0
N220 N 0.32224 0.87798 0.2574 0.0
N221 N 0.14523 0.03698 0.31619 0.0
H222 H 0.29972 0.10139 0.27672 0.0
H223 H 0.2244 0.11798 0.29056 0.0
H224 H 0.1023 0.02159 0.32561 0.0
H225 H 0.1558 0.08087 0.3264 0.0
H226 H 0.3187 0.83053 0.25961 0.0
H227 H 0.3665 0.89302 0.25105 0.0
H228 H 0.22829 0.8041 0.25436 0.0
H229 H 0.15722 0.81826 0.27658 0.0
C230 C 0.55252 0.27152 0.77967 0.0
C231 C 0.48864 0.28237 0.77674 0.0
C232 C 0.47063 0.18986 0.8167 0.0
C233 C 0.53011 0.16976 0.80693 0.0
N234 N 0.63387 0.19739 0.7909 0.0
N235 N 0.38621 0.25598 0.79785 0.0
C236 C 0.5735 0.21284 0.79263 0.0
C237 C 0.44737 0.24353 0.7977 0.0
N238 N 0.59235 0.31785 0.77086 0.0
N239 N 0.43855 0.15969 0.84617 0.0
H240 H 0.36788 0.29537 0.78446 0.0
H241 H 0.35386 0.22566 0.80966 0.0
H242 H 0.45713 0.12184 0.86142 0.0
H243 H 0.39798 0.17675 0.85851 0.0
H244 H 0.63929 0.31518 0.77568 0.0
H245 H 0.5773 0.36153 0.76262 0.0
H246 H 0.6674 0.22493 0.77773 0.0
H247 H 0.65048 0.15614 0.8026 0.0
C248 C 0.80744 0.49098 0.27468 0.0
C249 C 0.75428 0.49102 0.25004 0.0
C250 C 0.81597 0.4603 0.19089 0.0
C251 C 0.86638 0.45162 0.21756 0.0
N252 N 0.90081 0.43696 0.28768 0.0
N253 N 0.70575 0.45994 0.18626 0.0
C254 C 0.85916 0.4599 0.26042 0.0
C255 C 0.75756 0.4713 0.20842 0.0
N256 N 0.80972 0.52231 0.31094 0.0
N257 N 0.82366 0.46016 0.14932 0.0
H258 H 0.66188 0.46316 0.19851 0.0
H259 H 0.7068 0.44056 0.15704 0.0
H260 H 0.86603 0.45368 0.13533 0.0
H261 H 0.78877 0.47214 0.12902 0.0
H262 H 0.84983 0.52631 0.32808 0.0
H263 H 0.77429 0.55052 0.321 0.0
H264 H 0.89427 0.43899 0.31937 0.0
H265 H 0.93743 0.40947 0.27869 0.0
C266 C 0.06967 0.78153 0.69873 0.0
C267 C 0.0269 0.82833 0.68996 0.0
C268 C 0.94182 0.76134 0.70857 0.0
C269 C 0.98486 0.71642 0.72031 0.0
N270 N 0.08521 0.67331 0.71153 0.0
N271 N 0.92401 0.85649 0.67225 0.0
C272 C 0.04748 0.72307 0.71032 0.0
C273 C 0.96335 0.81583 0.68994 0.0
N274 N 0.13091 0.79392 0.69878 0.0
N275 N 0.88118 0.75336 0.7172 0.0
H276 H 0.93939 0.89658 0.65811 0.0
H277 H 0.87778 0.84718 0.66796 0.0
H278 H 0.86399 0.71261 0.72933 0.0
H279 H 0.84852 0.78783 0.7141 0.0
H280 H 0.16361 0.76337 0.70993 0.0
H281 H 0.14868 0.83618 0.68971 0.0
H282 H 0.12971 0.67415 0.7002 0.0
H283 H 0.06948 0.62975 0.71949 0.0
C284 C 0.6877 -0.0014 0.18587 0.0
C285 C 0.66797 0.05811 0.19768 0.0
C286 C 0.75651 0.06879 0.24265 0.0
C287 C 0.77794 0.00975 0.23021 0.0
N288 N 0.76956 0.92319 0.18454 0.0
N289 N 0.69141 0.15587 0.22736 0.0
C290 C 0.74577 0.97656 0.19955 0.0
C291 C 0.70536 0.09518 0.22263 0.0
N292 N 0.64912 0.96158 0.16411 0.0
N293 N 0.78289 0.09889 0.27492 0.0
H294 H 0.65392 0.17618 0.21284 0.0
H295 H 0.72016 0.18707 0.24198 0.0
H296 H 0.82175 0.08357 0.29019 0.0
H297 H 0.76376 0.13764 0.28848 0.0
H298 H 0.65734 0.91523 0.15884 0.0
H299 H 0.60665 0.97639 0.15344 0.0
H300 H 0.7514 0.90021 0.15933 0.0
H301 H 0.81003 0.90391 0.19555 0.0
C302 C 0.3969 0.69508 0.72796 0.0
C303 C 0.43107 0.66368 0.69771 0.0
C304 C 0.49913 0.7529 0.69175 0.0
C305 C 0.46194 0.7844 0.72051 0.0
N306 N 0.36215 0.79381 0.75104 0.0
N307 N 0.50687 0.66718 0.64417 0.0
C308 C 0.40586 0.75838 0.73297 0.0
C309 C 0.47945 0.69435 0.67704 0.0
N310 N 0.36074 0.66403 0.75501 0.0
N311 N 0.55417 0.77694 0.68036 0.0
H312 H 0.49265 0.62464 0.63306 0.0
H313 H 0.53964 0.68895 0.62611 0.0
H314 H 0.56898 0.81988 0.6903 0.0
H315 H 0.58617 0.75293 0.66298 0.0
H316 H 0.33887 0.68544 0.77958 0.0
H317 H 0.35886 0.61634 0.75599 0.0
H318 H 0.31875 0.77695 0.75812 0.0
H319 H 0.36741 0.84115 0.75415 0.0
C320 C 0.71517 0.53817 0.70337 0.0
C321 C 0.74935 0.4927 0.7242 0.0
C322 C 0.67671 0.41445 0.70185 0.0
C323 C 0.63601 0.46137 0.69005 0.0
N324 N 0.61543 0.56815 0.67752 0.0
N325 N 0.75909 0.38769 0.74749 0.0
C326 C 0.65531 0.52343 0.68954 0.0
C327 C 0.72984 0.43054 0.72401 0.0
N328 N 0.73953 0.59513 0.6975 0.0
N329 N 0.66354 0.35465 0.6932 0.0
H330 H 0.79615 0.39815 0.76621 0.0
H331 H 0.74332 0.34298 0.75126 0.0
H332 H 0.62409 0.34157 0.6775 0.0
H333 H 0.69442 0.31898 0.69814 0.0
H334 H 0.71852 0.62903 0.67993 0.0
H335 H 0.78352 0.60651 0.70734 0.0
H336 H 0.62402 0.61484 0.68086 0.0
H337 H 0.57225 0.55793 0.66575 0.0
C338 C 0.086 0.69484 0.18505 0.0
C339 C 0.04473 0.64508 0.18173 0.0
C340 C 0.9597 0.71061 0.20378 0.0
C341 C 0.00179 0.75901 0.20994 0.0
N342 N 0.09958 0.80431 0.19508 0.0
N343 N 0.94125 0.60832 0.17675 0.0
C344 C 0.06324 0.75342 0.19653 0.0
C345 C 0.98097 0.65407 0.18727 0.0
N346 N 0.1472 0.68518 0.17936 0.0
N347 N 0.90011 0.71837 0.21517 0.0
H348 H 0.95604 0.5672 0.16375 0.0
H349 H 0.89387 0.61263 0.17762 0.0
H350 H 0.88326 0.76085 0.22452 0.0
H351 H 0.86804 0.68316 0.21627 0.0
H352 H 0.1807 0.71749 0.18621 0.0
H353 H 0.16483 0.64327 0.16942 0.0
H354 H 0.14345 0.80472 0.18268 0.0
H355 H 0.08345 0.84774 0.20295 0.0
C356 C 0.79097 0.978 0.67152 0.0
C357 C 0.82098 0.03172 0.68555 0.0
C358 C 0.72447 0.0663 0.71483 0.0
C359 C 0.70046 0.00663 0.71135 0.0
N360 N 0.71003 0.90415 0.68489 0.0
N361 N 0.81664 0.12237 0.72815 0.0
C362 C 0.73301 0.96197 0.68865 0.0
C363 C 0.7876 0.07548 0.70855 0.0
N364 N 0.81726 0.94337 0.64159 0.0
N365 N 0.68722 0.11383 0.72515 0.0
H366 H 0.86404 0.12595 0.72896 0.0
H367 H 0.79405 0.15261 0.74775 0.0
H368 H 0.64028 0.10785 0.72959 0.0
H369 H 0.70215 0.15921 0.72401 0.0
H370 H 0.79531 0.90619 0.62796 0.0
H371 H 0.85852 0.95606 0.62786 0.0
H372 H 0.7349 0.86801 0.67229 0.0
H373 H 0.66704 0.89222 0.69633 0.0
C374 C 0.52455 0.84528 0.2476 0.0
C375 C 0.49723 0.85464 0.2085 0.0
C376 C 0.51196 0.74538 0.19388 0.0
C377 C 0.54388 0.73919 0.23187 0.0
N378 N 0.60348 0.79067 0.28359 0.0
N379 N 0.48117 0.81565 0.13985 0.0
C380 C 0.55905 0.79224 0.2542 0.0
C381 C 0.49579 0.80538 0.18 0.0
N382 N 0.51363 0.88402 0.27973 0.0
N383 N 0.49489 0.69509 0.17183 0.0
H384 H 0.47172 0.85917 0.12826 0.0
H385 H 0.48476 0.7819 0.11737 0.0
H386 H 0.50805 0.65065 0.17925 0.0
H387 H 0.46501 0.69764 0.14695 0.0
H388 H 0.53049 0.87567 0.30917 0.0
H389 H 0.48104 0.91891 0.27857 0.0
H390 H 0.61762 0.82986 0.29931 0.0
H391 H 0.62992 0.75156 0.28865 0.0
C392 C 0.21693 0.46451 0.79582 0.0
C393 C 0.24653 0.50669 0.76926 0.0
C394 C 0.17214 0.58558 0.7877 0.0
C395 C 0.13595 0.54052 0.80667 0.0
N396 N 0.12215 0.43717 0.83049 0.0
N397 N 0.24464 0.60461 0.73386 0.0
C398 C 0.15835 0.48005 0.81197 0.0
C399 C 0.22261 0.56685 0.76388 0.0
N400 N 0.24371 0.40936 0.80435 0.0
N401 N 0.15654 0.64598 0.79112 0.0
H402 H 0.27915 0.59199 0.71359 0.0
H403 H 0.2256 0.64713 0.72695 0.0
H404 H 0.11879 0.66029 0.80824 0.0
H405 H 0.1843 0.68152 0.78058 0.0
H406 H 0.22662 0.37859 0.82593 0.0
H407 H 0.28555 0.3962 0.79171 0.0
H408 H 0.13234 0.39055 0.83122 0.0
H409 H 0.08029 0.44854 0.84392 0.0
C410 C 0.9568 0.23713 0.25151 0.0
C411 C 0.01467 0.26112 0.26228 0.0
C412 C 0.02907 0.1741 0.3088 0.0
C413 C 0.97876 0.14422 0.28988 0.0
N414 N 0.90196 0.14482 0.23631 0.0
N415 N 0.10744 0.25261 0.30172 0.0
C416 C 0.94411 0.17518 0.25959 0.0
C417 C 0.05115 0.23021 0.29169 0.0
N418 N 0.91385 0.27367 0.23358 0.0
N419 N 0.05543 0.14884 0.34273 0.0
H420 H 0.12394 0.29394 0.28996 0.0
H421 H 0.13869 0.22853 0.31972 0.0
H422 H 0.039 0.10834 0.3557 0.0
H423 H 0.0894 0.17067 0.35973 0.0
H424 H 0.86927 0.25907 0.22769 0.0
H425 H 0.92076 0.3205 0.23011 0.0
H426 H 0.87987 0.16495 0.21133 0.0
H427 H 0.89382 0.09803 0.23912 0.0
C428 C 0.27167 0.9196 0.80639 0.0
C429 C 0.31624 0.96683 0.80866 0.0
C430 C 0.23911 0.04369 0.79002 0.0
C431 C 0.19838 0.99562 0.78034 0.0
N432 N 0.17034 0.88914 0.7831 0.0
N433 N 0.33638 0.07324 0.81957 0.0
C434 C 0.2125 0.93401 0.79077 0.0
C435 C 0.29776 0.02889 0.80584 0.0
N436 N 0.28555 0.86166 0.81932 0.0
N437 N 0.22313 0.10289 0.78131 0.0
H438 H 0.37824 0.06198 0.8329 0.0
H439 H 0.32434 0.11919 0.82186 0.0
H440 H 0.17924 0.1149 0.77161 0.0
H441 H 0.25336 0.13971 0.78236 0.0
H442 H 0.25377 0.82635 0.8216 0.0
H443 H 0.32808 0.8494 0.83101 0.0
H444 H 0.17946 0.84239 0.78458 0.0
H445 H 0.12569 0.89917 0.77392 0.0
C446 C 0.57062 0.29506 0.30643 0.0
C447 C 0.5316 0.34682 0.30482 0.0
C448 C 0.45069 0.28589 0.27275 0.0
C449 C 0.49076 0.235 0.27266 0.0
N450 N 0.57966 0.18468 0.30055 0.0
N451 N 0.4299 0.38817 0.2986 0.0
C452 C 0.54765 0.23743 0.29349 0.0
C453 C 0.46982 0.34094 0.29207 0.0
N454 N 0.63053 0.30168 0.31763 0.0
N455 N 0.39565 0.28214 0.25301 0.0
H456 H 0.4429 0.42819 0.31381 0.0
H457 H 0.38319 0.38558 0.29262 0.0
H458 H 0.37961 0.24136 0.2402 0.0
H459 H 0.36721 0.31965 0.24781 0.0
H460 H 0.66311 0.26721 0.31432 0.0
H461 H 0.64873 0.34304 0.32799 0.0
H462 H 0.61923 0.18273 0.3183 0.0
H463 H 0.56299 0.14172 0.2922 0.0
C464 C 0.23452 0.26485 0.08631 0.0
C465 C 0.20675 0.28625 0.12294 0.0
C466 C 0.2669 0.21263 0.16334 0.0
C467 C 0.2992 0.19565 0.12734 0.0
N468 N 0.31745 0.20688 0.05492 0.0
N469 N 0.1999 0.28547 0.19693 0.0
C470 C 0.28378 0.22186 0.08879 0.0
C471 C 0.22366 0.26123 0.16161 0.0
N472 N 0.2134 0.28544 0.0493 0.0
N473 N 0.27698 0.1815 0.19919 0.0
H474 H 0.16643 0.31952 0.19718 0.0
H475 H 0.21611 0.275 0.22615 0.0
H476 H 0.30946 0.14673 0.20207 0.0
H477 H 0.2501 0.18669 0.2253 0.0
H478 H 0.22751 0.26792 0.02117 0.0
H479 H 0.17827 0.31764 0.04681 0.0
H480 H 0.3131 0.2286 0.02663 0.0
H481 H 0.35257 0.17449 0.05573 0.0
C482 C 0.19793 0.22819 0.67076 0.0
C483 C 0.19049 0.19329 0.63427 0.0
C484 C 0.26901 0.25573 0.59986 0.0
C485 C 0.27479 0.29198 0.63585 0.0
N486 N 0.24057 0.31822 0.70398 0.0
N487 N 0.21244 0.1771 0.56279 0.0
C488 C 0.23778 0.2799 0.67079 0.0
C489 C 0.22416 0.2081 0.59837 0.0
N490 N 0.16817 0.21061 0.70582 0.0
N491 N 0.30736 0.26621 0.56746 0.0
H492 H 0.18136 0.14089 0.5612 0.0
H493 H 0.23045 0.18922 0.53437 0.0
H494 H 0.33876 0.30223 0.56696 0.0
H495 H 0.31051 0.23776 0.54195 0.0
H496 H 0.17673 0.22916 0.73465 0.0
H497 H 0.13719 0.17429 0.70684 0.0
H498 H 0.21007 0.31673 0.72846 0.0
H499 H 0.27129 0.35461 0.70611 0.0
C500 C 0.77968 0.77271 0.40035 0.0
C501 C 0.80598 0.78521 0.36132 0.0
C502 C 0.74087 0.70668 0.32984 0.0
C503 C 0.71291 0.69531 0.36852 0.0
N504 N 0.69926 0.72199 0.43951 0.0
N505 N 0.80006 0.7762 0.28775 0.0
C506 C 0.73035 0.72983 0.40351 0.0
C507 C 0.78352 0.75536 0.32577 0.0
N508 N 0.80284 0.80087 0.43439 0.0
N509 N 0.7267 0.67091 0.29671 0.0
H510 H 0.83019 0.8127 0.2833 0.0
H511 H 0.77929 0.76164 0.2607 0.0
H512 H 0.69195 0.63824 0.29693 0.0
H513 H 0.7518 0.67121 0.26954 0.0
H514 H 0.79082 0.78935 0.46431 0.0
H515 H 0.83675 0.83433 0.43271 0.0
H516 H 0.70513 0.74963 0.46521 0.0
H517 H 0.66457 0.68955 0.44294 0.0
C518 C 0.70944 0.76941 0.81483 0.0
C519 C 0.68337 0.79164 0.8518 0.0
C520 C 0.74619 0.7193 0.89172 0.0
C521 C 0.77039 0.69562 0.85459 0.0
N522 N 0.76554 0.68824 0.78088 0.0
N523 N 0.66899 0.78259 0.92484 0.0
C524 C 0.74924 0.71791 0.81616 0.0
C525 C 0.69924 0.76483 0.89013 0.0
N526 N 0.69693 0.79819 0.77843 0.0
N527 N 0.76967 0.69984 0.92836 0.0
H528 H 0.63566 0.81682 0.92479 0.0
H529 H 0.67377 0.76083 0.9531 0.0
H530 H 0.80295 0.66569 0.93044 0.0
H531 H 0.75906 0.71982 0.95646 0.0
H532 H 0.72037 0.78924 0.75128 0.0
H533 H 0.66589 0.83432 0.77576 0.0
H534 H 0.74655 0.69798 0.75232 0.0
H535 H 0.7942 0.65 0.78059 0.0
C536 C 0.01298 0.53904 0.97231 0.0
C537 C 0.95821 0.51367 0.95596 0.0
C538 C 0.95843 0.43854 0.01173 0.0
C539 C 0.00677 0.47056 0.03152 0.0
N540 N 0.06381 0.56605 0.03505 0.0
N541 N 0.86852 0.45153 0.9699 0.0
C542 C 0.02925 0.52535 0.01328 0.0
C543 C 0.92759 0.46712 0.9786 0.0
N544 N 0.05167 0.57342 0.9488 0.0
N545 N 0.94346 0.38004 0.02276 0.0
H546 H 0.84184 0.4754 0.94871 0.0
H547 H 0.84385 0.4205 0.98779 0.0
H548 H 0.96865 0.35449 0.04387 0.0
H549 H 0.91106 0.35433 0.00677 0.0
H550 H 0.09411 0.58829 0.95954 0.0
H551 H 0.04586 0.58007 0.91748 0.0
H552 H 0.0769 0.60845 0.02309 0.0
H553 H 0.0721 0.56165 0.06634 0.0
C554 C 0.04748 0.03191 0.49744 0.0
C555 C 0.02862 -0.00285 0.5319 0.0
C556 C 0.98406 0.91894 0.48707 0.0
C557 C 0.00373 0.95342 0.45257 0.0
N558 N 0.06699 0.03322 0.42425 0.0
N559 N 0.98856 0.90359 0.56081 0.0
C560 C 0.03932 0.0072 0.45759 0.0
C561 C -2e-05 0.93924 0.52709 0.0
N562 N 0.07179 0.08911 0.50282 0.0
N563 N 0.94813 0.86832 0.4816 0.0
H564 H -0.00239 0.91801 0.59071 0.0
H565 H 0.97393 0.85825 0.55924 0.0
H566 H 0.93814 0.85037 0.45277 0.0
H567 H 0.92567 0.84571 0.50536 0.0
H568 H 0.08022 0.11946 0.4788 0.0
H569 H 0.07956 0.10815 0.53171 0.0
H570 H 0.09825 0.06911 0.42614 0.0
H571 H 0.0632 0.01477 0.39485 0.0
C572 C 0.46328 0.01136 0.9639 0.0
C573 C 0.52073 0.98281 0.95693 0.0
C574 C 0.54999 0.00061 0.02847 0.0
C575 C 0.49023 0.02297 0.03636 0.0
N576 N 0.3875 0.04447 0.01339 0.0
N577 N 0.61619 0.94311 0.98285 0.0
C578 C 0.44607 0.02675 0.00458 0.0
C579 C 0.56362 0.97574 0.98925 0.0
N580 N 0.42645 0.02634 0.93143 0.0
N581 N 0.59379 0.00379 0.05834 0.0
H582 H 0.62768 0.92422 0.9545 0.0
H583 H 0.6461 0.9305 0.00625 0.0
H584 H 0.585 0.02087 0.0876 0.0
H585 H 0.63982 0.99418 0.05329 0.0
H586 H 0.38728 0.0532 0.93411 0.0
H587 H 0.43774 0.01673 0.90101 0.0
H588 H 0.35149 0.04108 0.99259 0.0
H589 H 0.37378 0.0589 0.04247 0.0
C590 C 0.454 0.48146 0.46327 0.0
C591 C 0.50279 0.52444 0.46321 0.0
C592 C 0.50792 0.52113 0.5381 0.0
C593 C 0.4567 0.48112 0.53829 0.0
N594 N 0.37536 0.42921 0.50262 0.0
N595 N 0.57055 0.59255 0.49945 0.0
C596 C 0.42799 0.46303 0.50128 0.0
C597 C 0.52821 0.5464 0.50035 0.0
N598 N 0.43421 0.45662 0.42707 0.0
N599 N 0.53803 0.53362 0.57395 0.0
H600 H 0.5867 0.61172 0.47218 0.0
H601 H 0.58616 0.61525 0.52551 0.0
H602 H 0.52374 0.51691 0.60236 0.0
H603 H 0.57953 0.5569 0.57541 0.0
H604 H 0.40343 0.42034 0.42527 0.0
H605 H 0.45183 0.46939 0.39856 0.0
H606 H 0.34843 0.42008 0.47699 0.0
H607 H 0.35612 0.41365 0.53002 0.0
loop_
_geom_bond_atom_site_label_1
_geom_bond_atom_site_label_2
_geom_bond_distance
_geom_bond_site_symmetry_2
_ccdc_geom_bond_type
Sc0 O3 2.025 . S
Sc0 O10 2.105 . S
Sc0 O13 2.105 . S
Sc0 O16 2.105 . S
Sc0 O19 2.105 . S
Sc1 O3 2.025 . S
Sc1 O11 2.105 . S
Sc1 O15 2.105 . S
Sc1 O17 2.105 . S
Sc1 O21 2.105 1_455 S
Sc2 O3 2.025 . S
Sc2 O12 2.105 1_455 S
Sc2 O14 2.105 . S
Sc2 O18 2.105 . S
Sc2 O20 2.104 1_455 S
O3 Sc0 2.025 . S
O3 Sc1 2.025 . S
O3 Sc2 2.025 . S
C4 O10 1.268 . S
C4 O20 1.263 1_455 S
C5 O11 1.268 . S
C5 O19 1.268 . S
C6 O12 1.268 . S
C6 O21 1.268 . S
C7 O13 1.268 . S
C7 O17 1.268 . S
C8 O14 1.268 . S
C8 O16 1.268 . S
C9 O15 1.268 . S
C9 O18 1.268 . S
O10 Sc0 2.105 . S
O10 C4 1.268 . S
O11 Sc1 2.105 . S
O11 C5 1.268 . S
O12 Sc2 2.105 1_655 S
O12 C6 1.268 . S
O13 Sc0 2.105 . S
O13 C7 1.268 . S
O14 Sc2 2.105 . S
O14 C8 1.268 . S
O15 Sc1 2.105 . S
O15 C9 1.268 . S
O16 Sc0 2.105 . S
O16 C8 1.268 . S
O17 Sc1 2.105 . S
O17 C7 1.268 . S
O18 Sc2 2.105 . S
O18 C9 1.268 . S
O19 Sc0 2.105 . S
O19 C5 1.268 . S
O20 Sc2 2.104 1_655 S
O20 C4 1.263 1_655 S
O21 Sc1 2.105 1_655 S
O21 C6 1.268 . S
Sc22 O25 2.025 . S
Sc22 O32 2.105 . S
Sc22 O35 2.105 1_545 S
Sc22 O38 2.104 1_545 S
Sc22 O41 2.105 . S
Sc23 O25 2.025 . S
Sc23 O33 2.105 . S
Sc23 O37 2.105 1_455 S
Sc23 O39 2.105 1_545 S
Sc23 O43 2.105 . S
Sc24 O25 2.025 . S
Sc24 O34 2.105 . S
Sc24 O36 2.104 1_455 S
Sc24 O40 2.105 1_455 S
Sc24 O42 2.105 . S
O25 Sc22 2.025 . S
O25 Sc23 2.025 . S
O25 Sc24 2.025 . S
C26 O32 1.268 . S
C26 O42 1.268 . S
C27 O33 1.268 . S
C27 O41 1.268 . S
C28 O34 1.268 . S
C28 O43 1.268 . S
C29 O35 1.268 . S
C29 O39 1.268 . S
C30 O36 1.263 1_455 S
C30 O38 1.263 1_545 S
C31 O37 1.268 . S
C31 O40 1.268 . S
O32 Sc22 2.105 . S
O32 C26 1.268 . S
O33 Sc23 2.105 . S
O33 C27 1.268 . S
O34 Sc24 2.105 . S
O34 C28 1.268 . S
O35 Sc22 2.105 1_565 S
O35 C29 1.268 . S
O36 Sc24 2.104 1_655 S
O36 C30 1.263 1_655 S
O37 Sc23 2.105 1_655 S
O37 C31 1.268 . S
O38 Sc22 2.104 1_565 S
O38 C30 1.263 1_565 S
O39 Sc23 2.105 1_565 S
O39 C29 1.268 . S
O40 Sc24 2.105 1_655 S
O40 C31 1.268 . S
O41 Sc22 2.105 . S
O41 C27 1.268 . S
O42 Sc24 2.105 . S
O42 C26 1.268 . S
O43 Sc23 2.105 . S
O43 C28 1.268 . S
Sc44 O47 2.025 . S
Sc44 O54 2.105 . S
Sc44 O57 2.105 . S
Sc44 O60 2.105 . S
Sc44 O63 2.105 . S
Sc45 O47 2.025 . S
Sc45 O55 2.105 . S
Sc45 O59 2.105 1_545 S
Sc45 O61 2.105 . S
Sc45 O65 2.105 . S
Sc46 O47 2.025 . S
Sc46 O56 2.105 . S
Sc46 O58 2.104 1_545 S
Sc46 O62 2.105 1_545 S
Sc46 O64 2.105 . S
O47 Sc44 2.025 . S
O47 Sc45 2.025 . S
O47 Sc46 2.025 . S
C48 O54 1.268 . S
C48 O64 1.268 . S
C49 O55 1.268 . S
C49 O63 1.268 . S
C50 O56 1.268 . S
C50 O65 1.268 . S
C51 O57 1.268 . S
C51 O61 1.268 . S
C52 O58 1.263 1_545 S
C52 O60 1.268 . S
C53 O59 1.268 . S
C53 O62 1.268 . S
O54 Sc44 2.105 . S
O54 C48 1.268 . S
O55 Sc45 2.105 . S
O55 C49 1.268 . S
O56 Sc46 2.105 . S
O56 C50 1.268 . S
O57 Sc44 2.105 . S
O57 C51 1.268 . S
O58 Sc46 2.104 1_565 S
O58 C52 1.263 1_565 S
O59 Sc45 2.105 1_565 S
O59 C53 1.268 . S
O60 Sc44 2.105 . S
O60 C52 1.268 . S
O61 Sc45 2.105 . S
O61 C51 1.268 . S
O62 Sc46 2.105 1_565 S
O62 C53 1.268 . S
O63 Sc44 2.105 . S
O63 C49 1.268 . S
O64 Sc46 2.105 . S
O64 C48 1.268 . S
O65 Sc45 2.105 . S
O65 C50 1.268 . S
Sc66 O69 2.025 . S
Sc66 O76 2.105 . S
Sc66 O79 2.105 . S
Sc66 O82 2.105 . S
Sc66 O85 2.105 . S
Sc67 O69 2.025 . S
Sc67 O77 2.105 . S
Sc67 O81 2.105 . S
Sc67 O83 2.105 . S
Sc67 O87 2.105 . S
Sc68 O69 2.025 . S
Sc68 O78 2.105 . S
Sc68 O80 2.105 . S
Sc68 O84 2.105 . S
Sc68 O86 2.105 . S
O69 Sc66 2.025 . S
O69 Sc67 2.025 . S
O69 Sc68 2.025 . S
C70 O76 1.268 . S
C70 O86 1.268 . S
C71 O77 1.268 . S
C71 O85 1.268 . S
C72 O78 1.268 . S
C72 O87 1.268 . S
C73 O79 1.268 . S
C73 O83 1.268 . S
C74 O80 1.268 . S
C74 O82 1.268 . S
C75 O81 1.268 . S
C75 O84 1.268 . S
O76 Sc66 2.105 . S
O76 C70 1.268 . S
O77 Sc67 2.105 . S
O77 C71 1.268 . S
O78 Sc68 2.105 . S
O78 C72 1.268 . S
O79 Sc66 2.105 . S
O79 C73 1.268 . S
O80 Sc68 2.105 . S
O80 C74 1.268 . S
O81 Sc67 2.105 . S
O81 C75 1.268 . S
O82 Sc66 2.105 . S
O82 C74 1.268 . S
O83 Sc67 2.105 . S
O83 C73 1.268 . S
O84 Sc68 2.105 . S
O84 C75 1.268 . S
O85 Sc66 2.105 . S
O85 C71 1.268 . S
O86 Sc68 2.105 . S
O86 C70 1.268 . S
O87 Sc67 2.105 . S
O87 C72 1.268 . S
Sc88 O91 2.025 . S
Sc88 O98 2.105 . S
Sc88 O101 2.105 . S
Sc88 O104 2.105 . S
Sc88 O107 2.105 . S
Sc89 O91 2.025 . S
Sc89 O99 2.105 . S
Sc89 O103 2.105 . S
Sc89 O105 2.105 . S
Sc89 O109 2.105 . S
Sc90 O91 2.025 . S
Sc90 O100 2.105 . S
Sc90 O102 2.105 . S
Sc90 O106 2.105 . S
Sc90 O108 2.105 . S
O91 Sc88 2.025 . S
O91 Sc89 2.025 . S
O91 Sc90 2.025 . S
C92 O98 1.268 . S
C92 O108 1.268 . S
C93 O99 1.268 . S
C93 O107 1.268 . S
C94 O100 1.268 . S
C94 O109 1.268 . S
C95 O101 1.268 . S
C95 O105 1.268 . S
C96 O102 1.268 . S
C96 O104 1.268 . S
C97 O103 1.268 . S
C97 O106 1.268 . S
O98 Sc88 2.105 . S
O98 C92 1.268 . S
O99 Sc89 2.105 . S
O99 C93 1.268 . S
O100 Sc90 2.105 . S
O100 C94 1.268 . S
O101 Sc88 2.105 . S
O101 C95 1.268 . S
O102 Sc90 2.105 . S
O102 C96 1.268 . S
O103 Sc89 2.105 . S
O103 C97 1.268 . S
O104 Sc88 2.105 . S
O104 C96 1.268 . S
O105 Sc89 2.105 . S
O105 C95 1.268 . S
O106 Sc90 2.105 . S
O106 C97 1.268 . S
O107 Sc88 2.105 . S
O107 C93 1.268 . S
O108 Sc90 2.105 . S
O108 C92 1.268 . S
O109 Sc89 2.105 . S
O109 C94 1.268 . S
Sc110 O113 2.025 . S
Sc110 O120 2.105 . S
Sc110 O123 2.105 . S
Sc110 O126 2.105 . S
Sc110 O129 2.105 . S
Sc111 O113 2.025 . S
Sc111 O121 2.105 . S
Sc111 O125 2.105 1_655 S
Sc111 O127 2.105 . S
Sc111 O131 2.105 . S
Sc112 O113 2.025 . S
Sc112 O122 2.105 . S
Sc112 O124 2.104 1_655 S
Sc112 O128 2.105 1_655 S
Sc112 O130 2.105 . S
O113 Sc110 2.025 . S
O113 Sc111 2.025 . S
O113 Sc112 2.025 . S
C114 O120 1.268 . S
C114 O130 1.268 . S
C115 O121 1.268 . S
C115 O129 1.268 . S
C116 O122 1.268 . S
C116 O131 1.268 . S
C117 O123 1.268 . S
C117 O127 1.268 . S
C118 O124 1.263 1_655 S
C118 O126 1.268 . S
C119 O125 1.268 . S
C119 O128 1.268 . S
O120 Sc110 2.105 . S
O120 C114 1.268 . S
O121 Sc111 2.105 . S
O121 C115 1.268 . S
O122 Sc112 2.105 . S
O122 C116 1.268 . S
O123 Sc110 2.105 . S
O123 C117 1.268 . S
O124 Sc112 2.104 1_455 S
O124 C118 1.263 1_455 S
O125 Sc111 2.105 1_455 S
O125 C119 1.268 . S
O126 Sc110 2.105 . S
O126 C118 1.268 . S
O127 Sc111 2.105 . S
O127 C117 1.268 . S
O128 Sc112 2.105 1_455 S
O128 C119 1.268 . S
O129 Sc110 2.105 . S
O129 C115 1.268 . S
O130 Sc112 2.105 . S
O130 C114 1.268 . S
O131 Sc111 2.105 . S
O131 C116 1.268 . S
Sc132 O135 2.025 . S
Sc132 O142 2.104 1_565 S
Sc132 O145 2.105 . S
Sc132 O148 2.105 . S
Sc132 O151 2.105 1_565 S
Sc133 O135 2.025 . S
Sc133 O143 2.105 1_565 S
Sc133 O147 2.105 . S
Sc133 O149 2.105 . S
Sc133 O153 2.105 1_655 S
Sc134 O135 2.025 . S
Sc134 O144 2.105 1_655 S
Sc134 O146 2.105 . S
Sc134 O150 2.105 . S
Sc134 O152 2.104 1_655 S
O135 Sc132 2.025 . S
O135 Sc133 2.025 . S
O135 Sc134 2.025 . S
C136 O142 1.263 1_565 S
C136 O152 1.263 1_655 S
C137 O143 1.268 . S
C137 O151 1.268 . S
C138 O144 1.268 . S
C138 O153 1.268 . S
C139 O145 1.268 . S
C139 O149 1.268 . S
C140 O146 1.268 . S
C140 O148 1.268 . S
C141 O147 1.268 . S
C141 O150 1.268 . S
O142 Sc132 2.104 1_545 S
O142 C136 1.263 1_545 S
O143 Sc133 2.105 1_545 S
O143 C137 1.268 . S
O144 Sc134 2.105 1_455 S
O144 C138 1.268 . S
O145 Sc132 2.105 . S
O145 C139 1.268 . S
O146 Sc134 2.105 . S
O146 C140 1.268 . S
O147 Sc133 2.105 . S
O147 C141 1.268 . S
O148 Sc132 2.105 . S
O148 C140 1.268 . S
O149 Sc133 2.105 . S
O149 C139 1.268 . S
O150 Sc134 2.105 . S
O150 C141 1.268 . S
O151 Sc132 2.105 1_545 S
O151 C137 1.268 . S
O152 Sc134 2.104 1_455 S
O152 C136 1.263 1_455 S
O153 Sc133 2.105 1_455 S
O153 C138 1.268 . S
Sc154 O157 2.025 . S
Sc154 O164 2.105 . S
Sc154 O167 2.105 . S
Sc154 O170 2.105 . S
Sc154 O173 2.105 . S
Sc155 O157 2.025 . S
Sc155 O165 2.105 . S
Sc155 O169 2.105 . S
Sc155 O171 2.105 . S
Sc155 O175 2.105 1_565 S
Sc156 O157 2.025 . S
Sc156 O166 2.105 1_565 S
Sc156 O168 2.105 . S
Sc156 O172 2.105 . S
Sc156 O174 2.104 1_565 S
O157 Sc154 2.025 . S
O157 Sc155 2.025 . S
O157 Sc156 2.025 . S
C158 O164 1.268 . S
C158 O174 1.263 1_565 S
C159 O165 1.268 . S
C159 O173 1.268 . S
C160 O166 1.268 . S
C160 O175 1.268 . S
C161 O167 1.268 . S
C161 O171 1.268 . S
C162 O168 1.268 . S
C162 O170 1.268 . S
C163 O169 1.268 . S
C163 O172 1.268 . S
O164 Sc154 2.105 . S
O164 C158 1.268 . S
O165 Sc155 2.105 . S
O165 C159 1.268 . S
O166 Sc156 2.105 1_545 S
O166 C160 1.268 . S
O167 Sc154 2.105 . S
O167 C161 1.268 . S
O168 Sc156 2.105 . S
O168 C162 1.268 . S
O169 Sc155 2.105 . S
O169 C163 1.268 . S
O170 Sc154 2.105 . S
O170 C162 1.268 . S
O171 Sc155 2.105 . S
O171 C161 1.268 . S
O172 Sc156 2.105 . S
O172 C163 1.268 . S
O173 Sc154 2.105 . S
O173 C159 1.268 . S
O174 Sc156 2.104 1_545 S
O174 C158 1.263 1_545 S
O175 Sc155 2.105 1_545 S
O175 C160 1.268 . S
C176 C177 1.363 . S
C176 C182 1.379 . S
C176 N184 1.356 . S
C177 C176 1.363 . S
C177 C183 1.363 . S
C178 C179 1.363 . S
C178 C183 1.379 . S
C178 N185 1.356 . S
C179 C178 1.363 . S
C179 C182 1.363 . S
N180 C182 1.356 . S
N180 H192 0.984 . S
N180 H193 0.985 . S
N181 C183 1.356 . S
N181 H186 0.984 . S
N181 H187 0.985 . S
C182 C176 1.379 . S
C182 C179 1.363 . S
C182 N180 1.356 . S
C183 C177 1.363 . S
C183 C178 1.379 . S
C183 N181 1.356 . S
N184 C176 1.356 . S
N184 H190 0.984 . S
N184 H191 0.984 . S
N185 C178 1.356 . S
N185 H188 0.984 . S
N185 H189 0.985 . S
H186 N181 0.984 . S
H187 N181 0.985 . S
H188 N185 0.984 . S
H189 N185 0.985 . S
H190 N184 0.984 . S
H191 N184 0.984 . S
H192 N180 0.984 . S
H193 N180 0.985 . S
C194 C195 1.363 1_455 S
C194 C200 1.379 . S
C194 N202 1.356 . S
C195 C194 1.363 1_655 S
C195 C201 1.363 . S
C196 C197 1.363 1_655 S
C196 C201 1.379 . S
C196 N203 1.356 . S
C197 C196 1.363 1_455 S
C197 C200 1.363 . S
N198 C200 1.356 . S
N198 H210 0.984 . S
N198 H211 0.985 . S
N199 C201 1.356 . S
N199 H204 0.984 . S
N199 H205 0.985 . S
C200 C194 1.379 . S
C200 C197 1.363 . S
C200 N198 1.356 . S
C201 C195 1.363 . S
C201 C196 1.379 . S
C201 N199 1.356 . S
N202 C194 1.356 . S
N202 H208 0.984 . S
N202 H209 0.984 1_455 S
N203 C196 1.356 . S
N203 H206 0.982 1_655 S
N203 H207 0.985 . S
H204 N199 0.984 . S
H205 N199 0.985 . S
H206 N203 0.982 1_455 S
H207 N203 0.985 . S
H208 N202 0.984 . S
H209 N202 0.984 1_655 S
H210 N198 0.984 . S
H211 N198 0.985 . S
C212 C213 1.363 1_565 S
C212 C218 1.379 . S
C212 N220 1.356 . S
C213 C212 1.363 1_545 S
C213 C219 1.363 . S
C214 C215 1.363 1_545 S
C214 C219 1.379 . S
C214 N221 1.356 . S
C215 C214 1.363 1_565 S
C215 C218 1.363 . S
N216 C218 1.356 . S
N216 H228 0.984 . S
N216 H229 0.985 . S
N217 C219 1.356 . S
N217 H222 0.984 . S
N217 H223 0.985 . S
C218 C212 1.379 . S
C218 C215 1.363 . S
C218 N216 1.356 . S
C219 C213 1.363 . S
C219 C214 1.379 . S
C219 N217 1.356 . S
N220 C212 1.356 . S
N220 H226 0.984 . S
N220 H227 0.984 1_565 S
N221 C214 1.356 . S
N221 H224 0.984 1_545 S
N221 H225 0.985 . S
H222 N217 0.984 . S
H223 N217 0.985 . S
H224 N221 0.984 1_565 S
H225 N221 0.985 . S
H226 N220 0.984 . S
H227 N220 0.984 1_545 S
H228 N216 0.984 . S
H229 N216 0.985 . S
C230 C231 1.363 . S
C230 C236 1.379 . S
C230 N238 1.356 . S
C231 C230 1.363 . S
C231 C237 1.363 . S
C232 C233 1.363 . S
C232 C237 1.379 . S
C232 N239 1.356 . S
C233 C232 1.363 . S
C233 C236 1.363 . S
N234 C236 1.356 . S
N234 H246 0.984 . S
N234 H247 0.985 . S
N235 C237 1.356 . S
N235 H240 0.984 . S
N235 H241 0.985 . S
C236 C230 1.379 . S
C236 C233 1.363 . S
C236 N234 1.356 . S
C237 C231 1.363 . S
C237 C232 1.379 . S
C237 N235 1.356 . S
N238 C230 1.356 . S
N238 H244 0.984 . S
N238 H245 0.984 . S
N239 C232 1.356 . S
N239 H242 0.984 . S
N239 H243 0.985 . S
H240 N235 0.984 . S
H241 N235 0.985 . S
H242 N239 0.984 . S
H243 N239 0.985 . S
H244 N238 0.984 . S
H245 N238 0.984 . S
H246 N234 0.984 . S
H247 N234 0.985 . S
C248 C249 1.363 . S
C248 C254 1.379 . S
C248 N256 1.356 . S
C249 C248 1.363 . S
C249 C255 1.363 . S
C250 C251 1.363 . S
C250 C255 1.379 . S
C250 N257 1.356 . S
C251 C250 1.363 . S
C251 C254 1.363 . S
N252 C254 1.356 . S
N252 H264 0.984 . S
N252 H265 0.985 . S
N253 C255 1.356 . S
N253 H258 0.984 . S
N253 H259 0.985 . S
C254 C248 1.379 . S
C254 C251 1.363 . S
C254 N252 1.356 . S
C255 C249 1.363 . S
C255 C250 1.379 . S
C255 N253 1.356 . S
N256 C248 1.356 . S
N256 H262 0.984 . S
N256 H263 0.984 . S
N257 C250 1.356 . S
N257 H260 0.984 . S
N257 H261 0.985 . S
H258 N253 0.984 . S
H259 N253 0.985 . S
H260 N257 0.984 . S
H261 N257 0.985 . S
H262 N256 0.984 . S
H263 N256 0.984 . S
H264 N252 0.984 . S
H265 N252 0.985 . S
C266 C267 1.363 . S
C266 C272 1.379 . S
C266 N274 1.356 . S
C267 C266 1.363 . S
C267 C273 1.363 1_455 S
C268 C269 1.363 . S
C268 C273 1.379 . S
C268 N275 1.356 . S
C269 C268 1.363 . S
C269 C272 1.363 1_655 S
N270 C272 1.356 . S
N270 H282 0.984 . S
N270 H283 0.985 . S
N271 C273 1.356 . S
N271 H276 0.984 . S
N271 H277 0.985 . S
C272 C266 1.379 . S
C272 C269 1.363 1_455 S
C272 N270 1.356 . S
C273 C267 1.363 1_655 S
C273 C268 1.379 . S
C273 N271 1.356 . S
N274 C266 1.356 . S
N274 H280 0.984 . S
N274 H281 0.984 . S
N275 C268 1.356 . S
N275 H278 0.984 . S
N275 H279 0.985 . S
H276 N271 0.984 . S
H277 N271 0.985 . S
H278 N275 0.984 . S
H279 N275 0.985 . S
H280 N274 0.984 . S
H281 N274 0.984 . S
H282 N270 0.984 . S
H283 N270 0.985 . S
C284 C285 1.363 1_565 S
C284 C290 1.379 . S
C284 N292 1.356 . S
C285 C284 1.363 1_545 S
C285 C291 1.363 . S
C286 C287 1.363 1_545 S
C286 C291 1.379 . S
C286 N293 1.356 . S
C287 C286 1.363 1_565 S
C287 C290 1.363 . S
N288 C290 1.356 . S
N288 H300 0.984 . S
N288 H301 0.985 . S
N289 C291 1.356 . S
N289 H294 0.984 . S
N289 H295 0.985 . S
C290 C284 1.379 . S
C290 C287 1.363 . S
C290 N288 1.356 . S
C291 C285 1.363 . S
C291 C286 1.379 . S
C291 N289 1.356 . S
N292 C284 1.356 . S
N292 H298 0.984 . S
N292 H299 0.984 . S
N293 C286 1.356 . S
N293 H296 0.984 . S
N293 H297 0.985 . S
H294 N289 0.984 . S
H295 N289 0.985 . S
H296 N293 0.984 . S
H297 N293 0.985 . S
H298 N292 0.984 . S
H299 N292 0.984 . S
H300 N288 0.984 . S
H301 N288 0.985 . S
C302 C303 1.363 . S
C302 C308 1.379 . S
C302 N310 1.356 . S
C303 C302 1.363 . S
C303 C309 1.363 . S
C304 C305 1.363 . S
C304 C309 1.379 . S
C304 N311 1.356 . S
C305 C304 1.363 . S
C305 C308 1.363 . S
N306 C308 1.356 . S
N306 H318 0.984 . S
N306 H319 0.985 . S
N307 C309 1.356 . S
N307 H312 0.984 . S
N307 H313 0.985 . S
C308 C302 1.379 . S
C308 C305 1.363 . S
C308 N306 1.356 . S
C309 C303 1.363 . S
C309 C304 1.379 . S
C309 N307 1.356 . S
N310 C302 1.356 . S
N310 H316 0.984 . S
N310 H317 0.984 . S
N311 C304 1.356 . S
N311 H314 0.984 . S
N311 H315 0.985 . S
H312 N307 0.984 . S
H313 N307 0.985 . S
H314 N311 0.984 . S
H315 N311 0.985 . S
H316 N310 0.984 . S
H317 N310 0.984 . S
H318 N306 0.984 . S
H319 N306 0.985 . S
C320 C321 1.363 . S
C320 C326 1.379 . S
C320 N328 1.356 . S
C321 C320 1.363 . S
C321 C327 1.363 . S
C322 C323 1.363 . S
C322 C327 1.379 . S
C322 N329 1.356 . S
C323 C322 1.363 . S
C323 C326 1.363 . S
N324 C326 1.356 . S
N324 H336 0.984 . S
N324 H337 0.985 . S
N325 C327 1.356 . S
N325 H330 0.984 . S
N325 H331 0.985 . S
C326 C320 1.379 . S
C326 C323 1.363 . S
C326 N324 1.356 . S
C327 C321 1.363 . S
C327 C322 1.379 . S
C327 N325 1.356 . S
N328 C320 1.356 . S
N328 H334 0.984 . S
N328 H335 0.984 . S
N329 C322 1.356 . S
N329 H332 0.984 . S
N329 H333 0.985 . S
H330 N325 0.984 . S
H331 N325 0.985 . S
H332 N329 0.984 . S
H333 N329 0.985 . S
H334 N328 0.984 . S
H335 N328 0.984 . S
H336 N324 0.984 . S
H337 N324 0.985 . S
C338 C339 1.363 . S
C338 C344 1.379 . S
C338 N346 1.356 . S
C339 C338 1.363 . S
C339 C345 1.363 1_455 S
C340 C341 1.363 . S
C340 C345 1.379 . S
C340 N347 1.356 . S
C341 C340 1.363 . S
C341 C344 1.363 1_655 S
N342 C344 1.356 . S
N342 H354 0.984 . S
N342 H355 0.985 . S
N343 C345 1.356 . S
N343 H348 0.984 . S
N343 H349 0.985 . S
C344 C338 1.379 . S
C344 C341 1.363 1_455 S
C344 N342 1.356 . S
C345 C339 1.363 1_655 S
C345 C340 1.379 . S
C345 N343 1.356 . S
N346 C338 1.356 . S
N346 H352 0.984 . S
N346 H353 0.984 . S
N347 C340 1.356 . S
N347 H350 0.984 . S
N347 H351 0.985 . S
H348 N343 0.984 . S
H349 N343 0.985 . S
H350 N347 0.984 . S
H351 N347 0.985 . S
H352 N346 0.984 . S
H353 N346 0.984 . S
H354 N342 0.984 . S
H355 N342 0.985 . S
C356 C357 1.363 1_565 S
C356 C362 1.379 . S
C356 N364 1.356 . S
C357 C356 1.363 1_545 S
C357 C363 1.363 . S
C358 C359 1.363 1_545 S
C358 C363 1.379 . S
C358 N365 1.356 . S
C359 C358 1.363 1_565 S
C359 C362 1.363 . S
N360 C362 1.356 . S
N360 H372 0.984 . S
N360 H373 0.985 . S
N361 C363 1.356 . S
N361 H366 0.984 . S
N361 H367 0.985 . S
C362 C356 1.379 . S
C362 C359 1.363 . S
C362 N360 1.356 . S
C363 C357 1.363 . S
C363 C358 1.379 . S
C363 N361 1.356 . S
N364 C356 1.356 . S
N364 H370 0.984 . S
N364 H371 0.984 . S
N365 C358 1.356 . S
N365 H368 0.984 . S
N365 H369 0.985 . S
H366 N361 0.984 . S
H367 N361 0.985 . S
H368 N365 0.984 . S
H369 N365 0.985 . S
H370 N364 0.984 . S
H371 N364 0.984 . S
H372 N360 0.984 . S
H373 N360 0.985 . S
C374 C375 1.363 . S
C374 C380 1.379 . S
C374 N382 1.356 . S
C375 C374 1.363 . S
C375 C381 1.363 . S
C376 C377 1.363 . S
C376 C381 1.379 . S
C376 N383 1.356 . S
C377 C376 1.363 . S
C377 C380 1.363 . S
N378 C380 1.356 . S
N378 H390 0.984 . S
N378 H391 0.985 . S
N379 C381 1.356 . S
N379 H384 0.984 . S
N379 H385 0.985 . S
C380 C374 1.379 . S
C380 C377 1.363 . S
C380 N378 1.356 . S
C381 C375 1.363 . S
C381 C376 1.379 . S
C381 N379 1.356 . S
N382 C374 1.356 . S
N382 H388 0.984 . S
N382 H389 0.984 . S
N383 C376 1.356 . S
N383 H386 0.984 . S
N383 H387 0.985 . S
H384 N379 0.984 . S
H385 N379 0.985 . S
H386 N383 0.984 . S
H387 N383 0.985 . S
H388 N382 0.984 . S
H389 N382 0.984 . S
H390 N378 0.984 . S
H391 N378 0.985 . S
C392 C393 1.363 . S
C392 C398 1.379 . S
C392 N400 1.356 . S
C393 C392 1.363 . S
C393 C399 1.363 . S
C394 C395 1.363 . S
C394 C399 1.379 . S
C394 N401 1.356 . S
C395 C394 1.363 . S
C395 C398 1.363 . S
N396 C398 1.356 . S
N396 H408 0.984 . S
N396 H409 0.985 . S
N397 C399 1.356 . S
N397 H402 0.984 . S
N397 H403 0.985 . S
C398 C392 1.379 . S
C398 C395 1.363 . S
C398 N396 1.356 . S
C399 C393 1.363 . S
C399 C394 1.379 . S
C399 N397 1.356 . S
N400 C392 1.356 . S
N400 H406 0.984 . S
N400 H407 0.984 . S
N401 C394 1.356 . S
N401 H404 0.984 . S
N401 H405 0.985 . S
H402 N397 0.984 . S
H403 N397 0.985 . S
H404 N401 0.984 . S
H405 N401 0.985 . S
H406 N400 0.984 . S
H407 N400 0.984 . S
H408 N396 0.984 . S
H409 N396 0.985 . S
C410 C411 1.363 1_655 S
C410 C416 1.379 . S
C410 N418 1.356 . S
C411 C410 1.363 1_455 S
C411 C417 1.363 . S
C412 C413 1.363 1_455 S
C412 C417 1.379 . S
C412 N419 1.356 . S
C413 C412 1.363 1_655 S
C413 C416 1.363 . S
N414 C416 1.356 . S
N414 H426 0.984 . S
N414 H427 0.985 . S
N415 C417 1.356 . S
N415 H420 0.984 . S
N415 H421 0.985 . S
C416 C410 1.379 . S
C416 C413 1.363 . S
C416 N414 1.356 . S
C417 C411 1.363 . S
C417 C412 1.379 . S
C417 N415 1.356 . S
N418 C410 1.356 . S
N418 H424 0.984 . S
N418 H425 0.984 1_655 S
N419 C412 1.356 . S
N419 H422 0.984 1_455 S
N419 H423 0.985 . S
H420 N415 0.984 . S
H421 N415 0.985 . S
H422 N419 0.984 1_655 S
H423 N419 0.985 . S
H424 N418 0.984 . S
H425 N418 0.984 1_455 S
H426 N414 0.984 . S
H427 N414 0.985 . S
C428 C429 1.363 . S
C428 C434 1.379 . S
C428 N436 1.356 . S
C429 C428 1.363 . S
C429 C435 1.363 1_565 S
C430 C431 1.363 . S
C430 C435 1.379 . S
C430 N437 1.356 . S
C431 C430 1.363 . S
C431 C434 1.363 1_545 S
N432 C434 1.356 . S
N432 H444 0.984 . S
N432 H445 0.985 . S
N433 C435 1.356 . S
N433 H438 0.984 . S
N433 H439 0.985 . S
C434 C428 1.379 . S
C434 C431 1.363 1_565 S
C434 N432 1.356 . S
C435 C429 1.363 1_545 S
C435 C430 1.379 . S
C435 N433 1.356 . S
N436 C428 1.356 . S
N436 H442 0.984 . S
N436 H443 0.984 . S
N437 C430 1.356 . S
N437 H440 0.984 . S
N437 H441 0.985 . S
H438 N433 0.984 . S
H439 N433 0.985 . S
H440 N437 0.984 . S
H441 N437 0.985 . S
H442 N436 0.984 . S
H443 N436 0.984 . S
H444 N432 0.984 . S
H445 N432 0.985 . S
C446 C447 1.363 . S
C446 C452 1.379 . S
C446 N454 1.356 . S
C447 C446 1.363 . S
C447 C453 1.363 . S
C448 C449 1.363 . S
C448 C453 1.379 . S
C448 N455 1.356 . S
C449 C448 1.363 . S
C449 C452 1.363 . S
N450 C452 1.356 . S
N450 H462 0.984 . S
N450 H463 0.985 . S
N451 C453 1.356 . S
N451 H456 0.984 . S
N451 H457 0.985 . S
C452 C446 1.379 . S
C452 C449 1.363 . S
C452 N450 1.356 . S
C453 C447 1.363 . S
C453 C448 1.379 . S
C453 N451 1.356 . S
N454 C446 1.356 . S
N454 H460 0.984 . S
N454 H461 0.984 . S
N455 C448 1.356 . S
N455 H458 0.984 . S
N455 H459 0.985 . S
H456 N451 0.984 . S
H457 N451 0.985 . S
H458 N455 0.984 . S
H459 N455 0.985 . S
H460 N454 0.984 . S
H461 N454 0.984 . S
H462 N450 0.984 . S
H463 N450 0.985 . S
C464 C465 1.363 . S
C464 C470 1.379 . S
C464 N472 1.356 . S
C465 C464 1.363 . S
C465 C471 1.363 . S
C466 C467 1.363 . S
C466 C471 1.379 . S
C466 N473 1.356 . S
C467 C466 1.363 . S
C467 C470 1.363 . S
N468 C470 1.356 . S
N468 H480 0.984 . S
N468 H481 0.985 . S
N469 C471 1.356 . S
N469 H474 0.984 . S
N469 H475 0.985 . S
C470 C464 1.379 . S
C470 C467 1.363 . S
C470 N468 1.356 . S
C471 C465 1.363 . S
C471 C466 1.379 . S
C471 N469 1.356 . S
N472 C464 1.356 . S
N472 H478 0.984 . S
N472 H479 0.984 . S
N473 C466 1.356 . S
N473 H476 0.984 . S
N473 H477 0.985 . S
H474 N469 0.984 . S
H475 N469 0.985 . S
H476 N473 0.984 . S
H477 N473 0.985 . S
H478 N472 0.984 . S
H479 N472 0.984 . S
H480 N468 0.984 . S
H481 N468 0.985 . S
C482 C483 1.363 . S
C482 C488 1.379 . S
C482 N490 1.356 . S
C483 C482 1.363 . S
C483 C489 1.363 . S
C484 C485 1.363 . S
C484 C489 1.379 . S
C484 N491 1.356 . S
C485 C484 1.363 . S
C485 C488 1.363 . S
N486 C488 1.356 . S
N486 H498 0.984 . S
N486 H499 0.985 . S
N487 C489 1.356 . S
N487 H492 0.984 . S
N487 H493 0.985 . S
C488 C482 1.379 . S
C488 C485 1.363 . S
C488 N486 1.356 . S
C489 C483 1.363 . S
C489 C484 1.379 . S
C489 N487 1.356 . S
N490 C482 1.356 . S
N490 H496 0.984 . S
N490 H497 0.984 . S
N491 C484 1.356 . S
N491 H494 0.984 . S
N491 H495 0.985 . S
H492 N487 0.984 . S
H493 N487 0.985 . S
H494 N491 0.984 . S
H495 N491 0.985 . S
H496 N490 0.984 . S
H497 N490 0.984 . S
H498 N486 0.984 . S
H499 N486 0.985 . S
C500 C501 1.363 . S
C500 C506 1.379 . S
C500 N508 1.356 . S
C501 C500 1.363 . S
C501 C507 1.363 . S
C502 C503 1.363 . S
C502 C507 1.379 . S
C502 N509 1.356 . S
C503 C502 1.363 . S
C503 C506 1.363 . S
N504 C506 1.356 . S
N504 H516 0.984 . S
N504 H517 0.985 . S
N505 C507 1.356 . S
N505 H510 0.984 . S
N505 H511 0.985 . S
C506 C500 1.379 . S
C506 C503 1.363 . S
C506 N504 1.356 . S
C507 C501 1.363 . S
C507 C502 1.379 . S
C507 N505 1.356 . S
N508 C500 1.356 . S
N508 H514 0.984 . S
N508 H515 0.984 . S
N509 C502 1.356 . S
N509 H512 0.984 . S
N509 H513 0.985 . S
H510 N505 0.984 . S
H511 N505 0.985 . S
H512 N509 0.984 . S
H513 N509 0.985 . S
H514 N508 0.984 . S
H515 N508 0.984 . S
H516 N504 0.984 . S
H517 N504 0.985 . S
C518 C519 1.363 . S
C518 C524 1.379 . S
C518 N526 1.356 . S
C519 C518 1.363 . S
C519 C525 1.363 . S
C520 C521 1.363 . S
C520 C525 1.379 . S
C520 N527 1.356 . S
C521 C520 1.363 . S
C521 C524 1.363 . S
N522 C524 1.356 . S
N522 H534 0.984 . S
N522 H535 0.985 . S
N523 C525 1.356 . S
N523 H528 0.984 . S
N523 H529 0.985 . S
C524 C518 1.379 . S
C524 C521 1.363 . S
C524 N522 1.356 . S
C525 C519 1.363 . S
C525 C520 1.379 . S
C525 N523 1.356 . S
N526 C518 1.356 . S
N526 H532 0.984 . S
N526 H533 0.984 . S
N527 C520 1.356 . S
N527 H530 0.984 . S
N527 H531 0.985 . S
H528 N523 0.984 . S
H529 N523 0.985 . S
H530 N527 0.984 . S
H531 N527 0.985 . S
H532 N526 0.984 . S
H533 N526 0.984 . S
H534 N522 0.984 . S
H535 N522 0.985 . S
C536 C537 1.363 1_455 S
C536 C542 1.379 1_556 S
C536 N544 1.356 . S
C537 C536 1.363 1_655 S
C537 C543 1.363 . S
C538 C539 1.363 1_655 S
C538 C543 1.379 1_554 S
C538 N545 1.356 . S
C539 C538 1.363 1_455 S
C539 C542 1.363 . S
N540 C542 1.356 . S
N540 H552 0.984 . S
N540 H553 0.985 . S
N541 C543 1.356 . S
N541 H546 0.984 . S
N541 H547 0.985 . S
C542 C536 1.379 1_554 S
C542 C539 1.363 . S
C542 N540 1.356 . S
C543 C537 1.363 . S
C543 C538 1.379 1_556 S
C543 N541 1.356 . S
N544 C536 1.356 . S
N544 H550 0.984 . S
N544 H551 0.984 . S
N545 C538 1.356 . S
N545 H548 0.984 . S
N545 H549 0.985 . S
H546 N541 0.984 . S
H547 N541 0.985 . S
H548 N545 0.984 . S
H549 N545 0.985 . S
H550 N544 0.984 . S
H551 N544 0.984 . S
H552 N540 0.984 . S
H553 N540 0.985 . S
C554 C555 1.363 1_655 S
C554 C560 1.379 . S
C554 N562 1.356 . S
C555 C554 1.363 1_455 S
C555 C561 1.363 1_545 S
C556 C557 1.363 1_455 S
C556 C561 1.379 . S
C556 N563 1.356 . S
C557 C556 1.363 1_655 S
C557 C560 1.363 1_565 S
N558 C560 1.356 . S
N558 H570 0.984 . S
N558 H571 0.985 . S
N559 C561 1.356 . S
N559 H564 0.984 . S
N559 H565 0.985 . S
C560 C554 1.379 . S
C560 C557 1.363 1_545 S
C560 N558 1.356 . S
C561 C555 1.363 1_565 S
C561 C556 1.379 . S
C561 N559 1.356 . S
N562 C554 1.356 . S
N562 H568 0.984 . S
N562 H569 0.984 . S
N563 C556 1.356 . S
N563 H566 0.984 . S
N563 H567 0.985 . S
H564 N559 0.984 . S
H565 N559 0.985 . S
H566 N563 0.984 . S
H567 N563 0.985 . S
H568 N562 0.984 . S
H569 N562 0.984 . S
H570 N558 0.984 . S
H571 N558 0.985 . S
C572 C573 1.363 . S
C572 C578 1.379 1_556 S
C572 N580 1.356 . S
C573 C572 1.363 . S
C573 C579 1.363 1_565 S
C574 C575 1.363 . S
C574 C579 1.379 1_554 S
C574 N581 1.356 . S
C575 C574 1.363 . S
C575 C578 1.363 1_545 S
N576 C578 1.356 . S
N576 H588 0.984 . S
N576 H589 0.985 . S
N577 C579 1.356 . S
N577 H582 0.984 . S
N577 H583 0.985 . S
C578 C572 1.379 1_554 S
C578 C575 1.363 1_565 S
C578 N576 1.356 . S
C579 C573 1.363 1_545 S
C579 C574 1.379 1_556 S
C579 N577 1.356 . S
N580 C572 1.356 . S
N580 H586 0.984 . S
N580 H587 0.984 . S
N581 C574 1.356 . S
N581 H584 0.984 . S
N581 H585 0.985 . S
H582 N577 0.984 . S
H583 N577 0.985 . S
H584 N581 0.984 . S
H585 N581 0.985 . S
H586 N580 0.984 . S
H587 N580 0.984 . S
H588 N576 0.984 . S
H589 N576 0.985 . S
C590 C591 1.363 . S
C590 C596 1.379 . S
C590 N598 1.356 . S
C591 C590 1.363 . S
C591 C597 1.363 . S
C592 C593 1.363 . S
C592 C597 1.379 . S
C592 N599 1.356 . S
C593 C592 1.363 . S
C593 C596 1.363 . S
N594 C596 1.356 . S
N594 H606 0.984 . S
N594 H607 0.985 . S
N595 C597 1.356 . S
N595 H600 0.984 . S
N595 H601 0.985 . S
C596 C590 1.379 . S
C596 C593 1.363 . S
C596 N594 1.356 . S
C597 C591 1.363 . S
C597 C592 1.379 . S
C597 N595 1.356 . S
N598 C590 1.356 . S
N598 H604 0.984 . S
N598 H605 0.984 . S
N599 C592 1.356 . S
N599 H602 0.984 . S
N599 H603 0.985 . S
H600 N595 0.984 . S
H601 N595 0.985 . S
H602 N599 0.984 . S
H603 N599 0.985 . S
H604 N598 0.984 . S
H605 N598 0.984 . S
H606 N594 0.984 . S
H607 N594 0.985 . S
C177 C95 1.449 . S
C179 C7 1.407 . S
C195 C117 1.449 . S
C197 C28 1.407 . S
C213 C50 1.407 . S
C215 C138 1.449 . S
C231 C73 1.407 . S
C233 C160 1.449 . S
C249 C94 1.407 . S
C251 C6 1.449 . S
C267 C29 1.449 . S
C269 C116 1.407 . S
C285 C51 1.449 . S
C287 C139 1.407 . S
C303 C72 1.449 . S
C305 C161 1.407 . S
C321 C115 1.407 . S
C323 C71 1.449 . S
C339 C5 1.449 . S
C341 C141 1.407 . S
C357 C31 1.449 . S
C359 C163 1.407 . S
C375 C53 1.449 . S
C377 C93 1.407 . S
C393 C75 1.407 . S
C395 C119 1.449 . S
C411 C9 1.407 . S
C413 C137 1.449 . S
C429 C159 1.449 . S
C431 C27 1.407 . S
C447 C97 1.449 . S
C449 C49 1.407 . S
C465 C8 1.740 . S
C467 C48 1.740 . S
C483 C26 1.740 . S
C485 C74 1.740 . S
C501 C140 1.740 . S
C503 C92 1.740 . S
C519 C162 1.740 . S
C521 C114 1.740 . S
C537 C118 1.443 . S
C539 C4 1.443 . S
C555 C30 1.443 . S
C557 C136 1.443 . S
C573 C158 1.443 . S
C575 C52 1.443 . S
C591 C96 1.443 . S
C593 C70 1.443 . S
