# Generated by pormake.
# Topology mon, (4)-cn, num edge types: 1
# Building blocks:
#     Node 0, Type 0, BuildingBlock: QUQFOY_clean_sbu_1, # of connection points: 4
#     Node 1, Type 0, BuildingBlock: QUQFOY_clean_sbu_1, # of connection points: 4
#     Node 2, Type 0, BuildingBlock: QUQFOY_clean_sbu_1, # of connection points: 4
#     Node 3, Type 0, BuildingBlock: QUQFOY_clean_sbu_1, # of connection points: 4
#     Node 4, Type 0, BuildingBlock: QUQFOY_clean_sbu_1, # of connection points: 4
#     Node 5, Type 0, BuildingBlock: QUQFOY_clean_sbu_1, # of connection points: 4
#     Node 6, Type 0, BuildingBlock: QUQFOY_clean_sbu_1, # of connection points: 4
#     Node 7, Type 0, BuildingBlock: QUQFOY_clean_sbu_1, # of connection points: 4
#     Node 8, Type 0, BuildingBlock: QUQFOY_clean_sbu_1, # of connection points: 4
#     Node 9, Type 0, BuildingBlock: QUQFOY_clean_sbu_1, # of connection points: 4
#     Node 10, Type 0, BuildingBlock: QUQFOY_clean_sbu_1, # of connection points: 4
#     Node 11, Type 0, BuildingBlock: QUQFOY_clean_sbu_1, # of connection points: 4
#     Node 12, Type 0, BuildingBlock: QUQFOY_clean_sbu_1, # of connection points: 4
#     Node 13, Type 0, BuildingBlock: QUQFOY_clean_sbu_1, # of connection points: 4
#     Node 14, Type 0, BuildingBlock: QUQFOY_clean_sbu_1, # of connection points: 4
#     Node 15, Type 0, BuildingBlock: QUQFOY_clean_sbu_1, # of connection points: 4
#     Edge 16, Type (0, 0), BuildingBlock: UVAHIK_clean_linker_0, # of connection points: 2
#     Edge 17, Type (0, 0), BuildingBlock: UVAHIK_clean_linker_0, # of connection points: 2
#     Edge 18, Type (0, 0), BuildingBlock: UVAHIK_clean_linker_0, # of connection points: 2
#     Edge 19, Type (0, 0), BuildingBlock: UVAHIK_clean_linker_0, # of connection points: 2
#     Edge 20, Type (0, 0), BuildingBlock: UVAHIK_clean_linker_0, # of connection points: 2
#     Edge 21, Type (0, 0), BuildingBlock: UVAHIK_clean_linker_0, # of connection points: 2
#     Edge 22, Type (0, 0), BuildingBlock: UVAHIK_clean_linker_0, # of connection points: 2
#     Edge 23, Type (0, 0), BuildingBlock: UVAHIK_clean_linker_0, # of connection points: 2
#     Edge 24, Type (0, 0), BuildingBlock: UVAHIK_clean_linker_0, # of connection points: 2
#     Edge 25, Type (0, 0), BuildingBlock: UVAHIK_clean_linker_0, # of connection points: 2
#     Edge 26, Type (0, 0), BuildingBlock: UVAHIK_clean_linker_0, # of connection points: 2
#     Edge 27, Type (0, 0), BuildingBlock: UVAHIK_clean_linker_0, # of connection points: 2
#     Edge 28, Type (0, 0), BuildingBlock: UVAHIK_clean_linker_0, # of connection points: 2
#     Edge 29, Type (0, 0), BuildingBlock: UVAHIK_clean_linker_0, # of connection points: 2
#     Edge 30, Type (0, 0), BuildingBlock: UVAHIK_clean_linker_0, # of connection points: 2
#     Edge 31, Type (0, 0), BuildingBlock: UVAHIK_clean_linker_0, # of connection points: 2
#     Edge 32, Type (0, 0), BuildingBlock: UVAHIK_clean_linker_0, # of connection points: 2
#     Edge 33, Type (0, 0), BuildingBlock: UVAHIK_clean_linker_0, # of connection points: 2
#     Edge 34, Type (0, 0), BuildingBlock: UVAHIK_clean_linker_0, # of connection points: 2
#     Edge 35, Type (0, 0), BuildingBlock: UVAHIK_clean_linker_0, # of connection points: 2
#     Edge 36, Type (0, 0), BuildingBlock: UVAHIK_clean_linker_0, # of connection points: 2
#     Edge 37, Type (0, 0), BuildingBlock: UVAHIK_clean_linker_0, # of connection points: 2
#     Edge 38, Type (0, 0), BuildingBlock: UVAHIK_clean_linker_0, # of connection points: 2
#     Edge 39, Type (0, 0), BuildingBlock: UVAHIK_clean_linker_0, # of connection points: 2
#     Edge 40, Type (0, 0), BuildingBlock: UVAHIK_clean_linker_0, # of connection points: 2
#     Edge 41, Type (0, 0), BuildingBlock: UVAHIK_clean_linker_0, # of connection points: 2
#     Edge 42, Type (0, 0), BuildingBlock: UVAHIK_clean_linker_0, # of connection points: 2
#     Edge 43, Type (0, 0), BuildingBlock: UVAHIK_clean_linker_0, # of connection points: 2
#     Edge 44, Type (0, 0), BuildingBlock: UVAHIK_clean_linker_0, # of connection points: 2
#     Edge 45, Type (0, 0), BuildingBlock: UVAHIK_clean_linker_0, # of connection points: 2
#     Edge 46, Type (0, 0), BuildingBlock: UVAHIK_clean_linker_0, # of connection points: 2
#     Edge 47, Type (0, 0), BuildingBlock: UVAHIK_clean_linker_0, # of connection points: 2
# Relax obj value: 0.206
# Max RMSD: 0.222
# Mean RMSD: 0.222
data_MOF--net-mon--node1-QUQFOY_clean_sbu_1--edge1-UVAHIK_clean_linker_0
_symmetry_space_group_name_H-M    P1
_symmetry_Int_Tables_number       1
_symmetry_cell_setting            triclinic
loop_
_symmetry_equiv_pos_as_xyz
'x, y, z'
_cell_length_a     46.280423
_cell_length_b     46.261065
_cell_length_c     108.187
_cell_angle_alpha  89.991867
_cell_angle_beta   90.001139
_cell_angle_gamma 90.008342
loop_
_atom_site_label
_atom_site_type_symbol
_atom_site_fract_x
_atom_site_fract_y
_atom_site_fract_z
_atom_type_partial_charge
O0 O 0.03501 0.04238 0.56775 0.0
Cd1 Cd 0.03256 0.04859 0.58661 0.0
Cd2 Cd 0.07182 0.00469 0.5878 0.0
O3 O 0.06594 0.00626 0.56901 0.0
O4 O 0.01543 0.08751 0.58914 0.0
O5 O 0.06007 0.07627 0.59474 0.0
C6 C 0.03974 0.09534 0.59392 0.0
C7 C 0.1193 0.99736 0.5943 0.0
C8 C 0.05014 0.02292 0.5626 0.0
C9 C 0.01482 0.99481 0.60029 0.0
O10 O 0.03979 0.98487 0.59789 0.0
O11 O 0.00765 0.01998 0.59669 0.0
O12 O 0.10496 0.97753 0.58867 0.0
O13 O 0.10667 0.0217 0.59648 0.0
O14 O 0.2551 0.72388 0.81707 0.0
Cd15 Cd 0.24774 0.72215 0.83581 0.0
Cd16 Cd 0.2885 0.76581 0.83671 0.0
O17 O 0.28227 0.76302 0.81789 0.0
O18 O 0.20976 0.70301 0.83822 0.0
O19 O 0.21823 0.74863 0.84333 0.0
C20 C 0.20038 0.72718 0.84261 0.0
C21 C 0.29951 0.81238 0.84388 0.0
C22 C 0.26933 0.74366 0.81167 0.0
C23 C 0.30262 0.70792 0.84865 0.0
O24 O 0.31109 0.73295 0.84542 0.0
O25 O 0.2771 0.6996 0.84622 0.0
O26 O 0.31729 0.79762 0.83729 0.0
O27 O 0.27491 0.80073 0.8465 0.0
O28 O 0.57256 0.95727 0.06868 0.0
Cd29 Cd 0.57325 0.95124 0.08752 0.0
Cd30 Cd 0.52871 0.99048 0.08753 0.0
O31 O 0.53177 0.98185 0.06888 0.0
O32 O 0.59325 0.91394 0.09062 0.0
O33 O 0.54709 0.92142 0.09503 0.0
C34 C 0.56901 0.90411 0.09476 0.0
C35 C 0.4818 0.99896 0.09467 0.0
C36 C 0.55208 0.96966 0.06296 0.0
C37 C 0.58533 0.00789 0.09948 0.0
O38 O 0.56051 0.01566 0.09568 0.0
O39 O 0.59404 0.98215 0.0978 0.0
O40 O 0.49461 0.01659 0.08731 0.0
O41 O 0.49559 0.97612 0.09815 0.0
O42 O 0.34371 0.27869 0.31731 0.0
Cd43 Cd 0.34933 0.27983 0.33618 0.0
Cd44 Cd 0.3114 0.23522 0.3364 0.0
O45 O 0.32006 0.23735 0.31773 0.0
O46 O 0.38697 0.29882 0.33956 0.0
O47 O 0.37795 0.25285 0.34392 0.0
C48 C 0.3959 0.27429 0.34378 0.0
C49 C 0.30472 0.18869 0.34429 0.0
C50 C 0.33183 0.25773 0.3117 0.0
C51 C 0.29252 0.29193 0.34775 0.0
O52 O 0.28523 0.26685 0.34407 0.0
O53 O 0.31821 0.30089 0.3462 0.0
O54 O 0.28665 0.20011 0.3367 0.0
O55 O 0.32699 0.20365 0.34755 0.0
O56 O 0.03239 0.9569 0.42625 0.0
Cd57 Cd 0.02936 0.94966 0.40748 0.0
Cd58 Cd 0.06778 0.99505 0.40602 0.0
O59 O 0.0627 0.99358 0.42487 0.0
O60 O 0.01191 0.91063 0.40563 0.0
O61 O 0.05635 0.92114 0.39952 0.0
C62 C 0.03595 0.90227 0.40077 0.0
C63 C 0.11459 0.004 0.3989 0.0
C64 C 0.04731 0.97663 0.43134 0.0
C65 C 0.01013 0.0026 0.39359 0.0
O66 O 0.03473 0.01336 0.39603 0.0
O67 O 0.00371 0.97725 0.39721 0.0
O68 O 0.09976 0.02348 0.40453 0.0
O69 O 0.10285 0.97899 0.39721 0.0
O70 O 0.34402 0.72286 0.67622 0.0
Cd71 Cd 0.34978 0.72139 0.65737 0.0
Cd72 Cd 0.31163 0.76525 0.65684 0.0
O73 O 0.31903 0.76338 0.67561 0.0
O74 O 0.38843 0.70461 0.65392 0.0
O75 O 0.37653 0.74986 0.64944 0.0
C76 C 0.39575 0.72956 0.64958 0.0
C77 C 0.30576 0.81155 0.64857 0.0
C78 C 0.33129 0.74345 0.68174 0.0
C79 C 0.29367 0.70819 0.64549 0.0
O80 O 0.28617 0.7334 0.6489 0.0
O81 O 0.31925 0.69931 0.64739 0.0
O82 O 0.28687 0.80024 0.65582 0.0
O83 O 0.32847 0.79657 0.64594 0.0
O84 O 0.5741 0.04218 0.92728 0.0
Cd85 Cd 0.57595 0.04941 0.90852 0.0
Cd86 Cd 0.5323 0.00835 0.90762 0.0
O87 O 0.53537 0.01444 0.92645 0.0
O88 O 0.59531 0.08728 0.90608 0.0
O89 O 0.54973 0.079 0.90089 0.0
C90 C 0.57128 0.09673 0.90159 0.0
C91 C 0.48565 0.99735 0.90057 0.0
C92 C 0.55452 0.02767 0.93267 0.0
C93 C 0.59007 0.99456 0.89554 0.0
O94 O 0.56504 0.98601 0.89872 0.0
O95 O 0.59843 0.01998 0.89812 0.0
O96 O 0.50055 0.97948 0.90706 0.0
O97 O 0.4972 0.02202 0.89799 0.0
O98 O 0.25457 0.2774 0.17647 0.0
Cd99 Cd 0.2479 0.27884 0.15767 0.0
Cd100 Cd 0.28769 0.23562 0.15695 0.0
O101 O 0.28106 0.23784 0.17576 0.0
O102 O 0.20912 0.29592 0.15474 0.0
O103 O 0.22038 0.25071 0.14993 0.0
C104 C 0.20133 0.27115 0.15036 0.0
C105 C 0.2956 0.18924 0.14903 0.0
C106 C 0.26832 0.25738 0.18194 0.0
C107 C 0.30322 0.29315 0.14525 0.0
O108 O 0.31151 0.26815 0.14861 0.0
O109 O 0.27756 0.30147 0.14741 0.0
O110 O 0.31414 0.20184 0.15606 0.0
O111 O 0.27209 0.20295 0.14642 0.0
O112 O 0.84446 0.22619 0.17442 0.0
Cd113 Cd 0.85004 0.22649 0.15555 0.0
Cd114 Cd 0.81092 0.2706 0.15615 0.0
O115 O 0.82006 0.26709 0.17474 0.0
O116 O 0.88746 0.20702 0.15212 0.0
O117 O 0.87943 0.25333 0.14817 0.0
C118 C 0.89698 0.23158 0.1482 0.0
C119 C 0.80269 0.3176 0.14904 0.0
C120 C 0.83231 0.24641 0.1804 0.0
C121 C 0.79308 0.2144 0.14399 0.0
O122 O 0.78536 0.23899 0.14809 0.0
O123 O 0.81898 0.20586 0.14529 0.0
O124 O 0.78515 0.30497 0.15651 0.0
O125 O 0.82532 0.30361 0.14547 0.0
O126 O 0.75141 0.77622 0.67426 0.0
Cd127 Cd 0.7457 0.77799 0.65541 0.0
Cd128 Cd 0.78596 0.73482 0.65514 0.0
O129 O 0.77743 0.73632 0.67382 0.0
O130 O 0.70786 0.79697 0.65241 0.0
O131 O 0.71694 0.75138 0.64745 0.0
C132 C 0.69893 0.77272 0.64792 0.0
C133 C 0.79519 0.68876 0.64712 0.0
C134 C 0.76444 0.75594 0.67986 0.0
C135 C 0.80203 0.79277 0.64396 0.0
O136 O 0.81031 0.7679 0.64751 0.0
O137 O 0.77601 0.80065 0.64555 0.0
O138 O 0.81287 0.70135 0.65454 0.0
O139 O 0.77181 0.7023 0.64415 0.0
O140 O 0.7513 0.21969 0.31487 0.0
Cd141 Cd 0.74399 0.21704 0.33361 0.0
Cd142 Cd 0.78468 0.25964 0.33526 0.0
O143 O 0.77921 0.25817 0.31636 0.0
O144 O 0.70444 0.20176 0.33634 0.0
O145 O 0.71801 0.24602 0.3417 0.0
C146 C 0.69797 0.22656 0.34107 0.0
C147 C 0.796 0.30563 0.34301 0.0
C148 C 0.76611 0.23954 0.30981 0.0
C149 C 0.79795 0.20059 0.3464 0.0
O150 O 0.80659 0.22589 0.34366 0.0
O151 O 0.7725 0.19261 0.34367 0.0
O152 O 0.81387 0.29101 0.33641 0.0
O153 O 0.77117 0.29414 0.34534 0.0
O154 O 0.8421 0.77465 0.81492 0.0
Cd155 Cd 0.84961 0.77619 0.83366 0.0
Cd156 Cd 0.80922 0.73286 0.83482 0.0
O157 O 0.81473 0.73569 0.81595 0.0
O158 O 0.88867 0.79275 0.83632 0.0
O159 O 0.87693 0.74773 0.84127 0.0
C160 C 0.89622 0.76793 0.84072 0.0
C161 C 0.79849 0.68623 0.84198 0.0
C162 C 0.82759 0.75492 0.80963 0.0
C163 C 0.79544 0.79081 0.84681 0.0
O164 O 0.78698 0.76567 0.84373 0.0
O165 O 0.82077 0.79925 0.84412 0.0
O166 O 0.78044 0.70107 0.83556 0.0
O167 O 0.82318 0.69785 0.84444 0.0
O168 O 0.5259 0.54675 0.06675 0.0
Cd169 Cd 0.5247 0.55296 0.08558 0.0
Cd170 Cd 0.56747 0.51272 0.086 0.0
O171 O 0.56542 0.52018 0.06723 0.0
O172 O 0.50756 0.59166 0.08865 0.0
O173 O 0.55281 0.58044 0.09337 0.0
C174 C 0.53233 0.59945 0.09301 0.0
C175 C 0.61368 0.50452 0.094 0.0
C176 C 0.54586 0.5332 0.06117 0.0
C177 C 0.50995 0.49736 0.09769 0.0
O178 O 0.53474 0.48884 0.09416 0.0
O179 O 0.50198 0.52323 0.09576 0.0
O180 O 0.6012 0.4862 0.08683 0.0
O181 O 0.59997 0.52799 0.09669 0.0
O182 O 0.07305 0.45341 0.56768 0.0
Cd183 Cd 0.07443 0.44733 0.58652 0.0
Cd184 Cd 0.02956 0.48685 0.5868 0.0
O185 O 0.03236 0.47817 0.56815 0.0
O186 O 0.09509 0.41033 0.58948 0.0
O187 O 0.04901 0.41714 0.59422 0.0
C188 C 0.07121 0.40018 0.59383 0.0
C189 C 0.98273 0.49611 0.59389 0.0
C190 C 0.05241 0.4659 0.5621 0.0
C191 C 0.08649 0.50392 0.59861 0.0
O192 O 0.06156 0.51174 0.59496 0.0
O193 O 0.09525 0.47827 0.59675 0.0
O194 O 0.99586 0.51348 0.58652 0.0
O195 O 0.99614 0.47309 0.59742 0.0
O196 O 0.52645 0.45579 0.92605 0.0
Cd197 Cd 0.52489 0.4481 0.90733 0.0
Cd198 Cd 0.56802 0.48876 0.90614 0.0
O199 O 0.56539 0.48317 0.92501 0.0
O200 O 0.5081 0.40906 0.90482 0.0
O201 O 0.55313 0.42045 0.89978 0.0
C202 C 0.53284 0.40127 0.90044 0.0
C203 C 0.61448 0.49988 0.8989 0.0
C204 C 0.54618 0.47032 0.93134 0.0
C205 C 0.50992 0.50226 0.89423 0.0
O206 O 0.53499 0.51088 0.89732 0.0
O207 O 0.50169 0.47682 0.89686 0.0
O208 O 0.59959 0.51778 0.90537 0.0
O209 O 0.60301 0.47511 0.89642 0.0
O210 O 0.06806 0.54035 0.42645 0.0
Cd211 Cd 0.06934 0.54825 0.40773 0.0
Cd212 Cd 0.0253 0.50676 0.40703 0.0
O213 O 0.02917 0.51276 0.42585 0.0
O214 O 0.08964 0.58576 0.40553 0.0
O215 O 0.04375 0.57898 0.40049 0.0
C216 C 0.06577 0.59609 0.40125 0.0
C217 C 0.97858 0.49485 0.40031 0.0
C218 C 0.04867 0.52579 0.43195 0.0
C219 C 0.08266 0.49346 0.39445 0.0
O220 O 0.05783 0.4848 0.39785 0.0
O221 O 0.09111 0.51888 0.397 0.0
O222 O 0.99402 0.47735 0.40675 0.0
O223 O 0.98957 0.51973 0.39764 0.0
C224 C 0.02092 0.14505 0.598 0.0
C225 C 0.04432 0.12569 0.59774 0.0
C226 C 0.02536 0.17435 0.60044 0.0
C227 C 0.08058 0.22982 0.59694 0.0
H228 H 0.0275 0.27703 0.61596 0.0
C229 C 0.0945 0.353 0.59904 0.0
C230 C 0.06925 0.36955 0.59766 0.0
C231 C 0.09285 0.3234 0.60144 0.0
C232 C 0.04242 0.26418 0.61055 0.0
H233 H 0.09061 0.12168 0.60033 0.0
H234 H 0.0984 0.17306 0.60452 0.0
H235 H 0.02221 0.22449 0.61601 0.0
H236 H 0.02246 0.36827 0.59817 0.0
H237 H 0.01949 0.31641 0.60204 0.0
H238 H 0.10013 0.26927 0.59105 0.0
C239 C 0.07663 0.16549 0.60277 0.0
C240 C 0.03944 0.23409 0.61062 0.0
C241 C 0.07215 0.13608 0.60043 0.0
C242 C 0.0423 0.35609 0.59921 0.0
C243 C 0.04063 0.32636 0.6015 0.0
C244 C 0.08345 0.25986 0.5968 0.0
C245 C 0.05333 0.18501 0.6026 0.0
C246 C 0.05824 0.21662 0.60367 0.0
C247 C 0.0659 0.30953 0.60239 0.0
C248 C 0.06416 0.27748 0.60346 0.0
H249 H 0.99918 0.13772 0.59601 0.0
H250 H 0.00701 0.18885 0.60011 0.0
H251 H 0.09513 0.217 0.59133 0.0
H252 H 0.11562 0.36282 0.59804 0.0
H253 H 0.11276 0.31129 0.60236 0.0
C254 C 0.93627 0.73453 0.84705 0.0
C255 C 0.9265 0.76265 0.84447 0.0
C256 C 0.96554 0.72939 0.84943 0.0
C257 C 0.03469 0.76484 0.8577 0.0
H258 H 0.06884 0.7034 0.83822 0.0
C259 C 0.15717 0.75776 0.84754 0.0
C260 C 0.16965 0.73031 0.84609 0.0
C261 C 0.1274 0.76056 0.84949 0.0
C262 C 0.05969 0.72028 0.84394 0.0
H263 H 0.93948 0.80759 0.84295 0.0
H264 H 0.9904 0.79859 0.84709 0.0
H265 H 0.01677 0.71 0.83809 0.0
H266 H 0.16112 0.68421 0.8463 0.0
H267 H 0.10951 0.68902 0.85003 0.0
H268 H 0.07772 0.77535 0.86344 0.0
C269 C 0.9755 0.78053 0.84731 0.0
C270 C 0.02978 0.72407 0.84385 0.0
C271 C 0.94634 0.78565 0.84484 0.0
C272 C 0.15207 0.70569 0.84722 0.0
C273 C 0.12243 0.70847 0.84929 0.0
C274 C 0.06467 0.76094 0.85787 0.0
C275 C 0.98553 0.75229 0.84938 0.0
C276 C 0.01698 0.74665 0.85057 0.0
C277 C 0.10958 0.73593 0.85013 0.0
C278 C 0.07758 0.73886 0.85084 0.0
H279 H 0.9215 0.71638 0.84686 0.0
H280 H 0.97261 0.70742 0.85112 0.0
H281 H 0.02538 0.78226 0.86308 0.0
H282 H 0.17017 0.77713 0.84669 0.0
H283 H 0.11825 0.78207 0.84997 0.0
C284 C 0.56526 0.63983 0.09944 0.0
C285 C 0.53726 0.62973 0.09687 0.0
C286 C 0.57007 0.66915 0.10186 0.0
C287 C 0.53371 0.73794 0.11015 0.0
H288 H 0.59499 0.77289 0.09083 0.0
C289 C 0.53909 0.86044 0.09975 0.0
C290 C 0.56635 0.87339 0.09838 0.0
C291 C 0.53674 0.83065 0.10177 0.0
C292 C 0.57814 0.76353 0.09651 0.0
H293 H 0.49219 0.64221 0.09541 0.0
H294 H 0.5006 0.69321 0.09962 0.0
H295 H 0.58907 0.72072 0.0907 0.0
H296 H 0.61256 0.86564 0.09883 0.0
H297 H 0.60851 0.81397 0.10267 0.0
H298 H 0.52253 0.78087 0.11582 0.0
C299 C 0.51883 0.67853 0.0998 0.0
C300 C 0.57475 0.73354 0.09641 0.0
C301 C 0.51405 0.6493 0.0973 0.0
C302 C 0.59121 0.85624 0.09969 0.0
C303 C 0.58889 0.82656 0.10182 0.0
C304 C 0.53721 0.76798 0.11031 0.0
C305 C 0.54696 0.68889 0.10186 0.0
C306 C 0.55223 0.72044 0.10307 0.0
C307 C 0.56163 0.81324 0.10257 0.0
C308 C 0.55921 0.78119 0.10333 0.0
H309 H 0.58359 0.62528 0.09921 0.0
H310 H 0.59196 0.67647 0.10354 0.0
H311 H 0.51635 0.72842 0.11549 0.0
H312 H 0.51952 0.87308 0.09877 0.0
H313 H 0.51539 0.82113 0.10218 0.0
C314 C 0.65941 0.26097 0.34808 0.0
C315 C 0.66808 0.23268 0.34513 0.0
C316 C 0.63046 0.26697 0.35078 0.0
C317 C 0.56048 0.23331 0.35924 0.0
H318 H 0.52753 0.29665 0.3405 0.0
C319 C 0.43844 0.24302 0.34893 0.0
C320 C 0.42635 0.27069 0.34761 0.0
C321 C 0.46807 0.23975 0.35105 0.0
C322 C 0.53635 0.27925 0.34603 0.0
H323 H 0.65347 0.18832 0.34327 0.0
H324 H 0.60312 0.19881 0.34797 0.0
H325 H 0.5794 0.28876 0.3401 0.0
H326 H 0.43542 0.31665 0.3483 0.0
H327 H 0.48684 0.311 0.35234 0.0
H328 H 0.51731 0.22354 0.365 0.0
C329 C 0.61863 0.21633 0.34824 0.0
C330 C 0.56617 0.27472 0.34578 0.0
C331 C 0.64748 0.21037 0.34545 0.0
C332 C 0.44417 0.29502 0.34912 0.0
C333 C 0.4737 0.29177 0.35136 0.0
C334 C 0.53062 0.23796 0.35955 0.0
C335 C 0.60969 0.24477 0.35069 0.0
C336 C 0.57851 0.25139 0.35219 0.0
C337 C 0.48618 0.2641 0.35202 0.0
C338 C 0.51813 0.26068 0.35276 0.0
H339 H 0.6748 0.27861 0.34794 0.0
H340 H 0.62423 0.28907 0.35275 0.0
H341 H 0.56945 0.21535 0.36439 0.0
H342 H 0.42526 0.22385 0.34779 0.0
H343 H 0.47694 0.2181 0.35138 0.0
C344 C 0.06782 0.86071 0.39473 0.0
C345 C 0.04014 0.87161 0.39733 0.0
C346 C 0.0719 0.83111 0.39271 0.0
C347 C 0.03391 0.76274 0.38537 0.0
H348 H 0.09428 0.72746 0.40509 0.0
C349 C 0.03671 0.64043 0.39638 0.0
C350 C 0.0637 0.62699 0.39785 0.0
C351 C 0.03496 0.67026 0.39434 0.0
C352 C 0.07767 0.73689 0.39931 0.0
H353 H 0.99487 0.86024 0.39927 0.0
H354 H 0.00201 0.80877 0.39571 0.0
H355 H 0.08963 0.77977 0.40466 0.0
H356 H 0.11004 0.63394 0.39766 0.0
H357 H 0.10704 0.68564 0.39377 0.0
H358 H 0.02177 0.71981 0.3801 0.0
C359 C 0.02054 0.82303 0.39521 0.0
C360 C 0.07501 0.76695 0.39908 0.0
C361 C 0.0165 0.85252 0.39734 0.0
C362 C 0.0889 0.64372 0.39671 0.0
C363 C 0.08716 0.67342 0.39455 0.0
C364 C 0.03671 0.73263 0.38551 0.0
C365 C 0.04835 0.81191 0.39312 0.0
C366 C 0.05284 0.78019 0.39227 0.0
C367 C 0.06017 0.68722 0.39362 0.0
C368 C 0.05837 0.71929 0.39264 0.0
H369 H 0.08645 0.87489 0.39464 0.0
H370 H 0.09356 0.82316 0.39101 0.0
H371 H 0.01679 0.77238 0.37993 0.0
H372 H 0.01691 0.6281 0.39724 0.0
H373 H 0.01378 0.68014 0.39381 0.0
C374 C 0.44578 0.71212 0.64502 0.0
C375 C 0.4258 0.73498 0.64552 0.0
C376 C 0.47485 0.71746 0.64242 0.0
C377 C 0.52861 0.77452 0.64581 0.0
H378 H 0.57713 0.72343 0.62639 0.0
C379 C 0.65074 0.79382 0.64278 0.0
C380 C 0.66844 0.76935 0.64411 0.0
C381 C 0.6212 0.79081 0.64052 0.0
C382 C 0.5639 0.7378 0.6319 0.0
H383 H 0.42042 0.78122 0.64315 0.0
H384 H 0.47131 0.79055 0.63863 0.0
H385 H 0.52483 0.71606 0.6267 0.0
H386 H 0.66929 0.72253 0.64361 0.0
H387 H 0.61753 0.71718 0.64001 0.0
H388 H 0.56744 0.79561 0.65143 0.0
C389 C 0.46445 0.76852 0.64035 0.0
C390 C 0.53396 0.73363 0.63204 0.0
C391 C 0.4353 0.76316 0.64288 0.0
C392 C 0.6562 0.74179 0.64261 0.0
C393 C 0.62652 0.73876 0.64048 0.0
C394 C 0.55848 0.77858 0.64573 0.0
C395 C 0.48463 0.74579 0.64033 0.0
C396 C 0.51603 0.75173 0.63913 0.0
C397 C 0.60855 0.76324 0.63969 0.0
C398 C 0.57658 0.76008 0.6389 0.0
H399 H 0.43914 0.69014 0.64697 0.0
H400 H 0.48989 0.69952 0.64259 0.0
H401 H 0.51546 0.78853 0.65153 0.0
H402 H 0.6596 0.81538 0.64373 0.0
H403 H 0.60816 0.81015 0.63967 0.0
C404 C 0.51486 0.35113 0.89658 0.0
C405 C 0.53797 0.37083 0.89688 0.0
C406 C 0.51982 0.32181 0.89438 0.0
C407 C 0.57579 0.26739 0.89865 0.0
H408 H 0.5246 0.21861 0.87939 0.0
C409 C 0.59322 0.14471 0.89672 0.0
C410 C 0.56846 0.12736 0.89789 0.0
C411 C 0.59074 0.17426 0.89434 0.0
C412 C 0.53898 0.2319 0.88487 0.0
H413 H 0.5843 0.37542 0.8946 0.0
H414 H 0.59299 0.32404 0.89082 0.0
H415 H 0.51811 0.27103 0.87912 0.0
H416 H 0.52167 0.12718 0.89708 0.0
H417 H 0.51722 0.17897 0.89329 0.0
H418 H 0.59599 0.22852 0.90482 0.0
C419 C 0.57105 0.33135 0.89236 0.0
C420 C 0.53532 0.26192 0.88467 0.0
C421 C 0.56605 0.36076 0.89447 0.0
C422 C 0.54115 0.13999 0.89621 0.0
C423 C 0.53864 0.16968 0.89396 0.0
C424 C 0.57932 0.23743 0.89892 0.0
C425 C 0.54802 0.3115 0.89251 0.0
C426 C 0.55348 0.27994 0.89168 0.0
C427 C 0.56341 0.18728 0.89324 0.0
C428 C 0.56077 0.21926 0.89215 0.0
H429 H 0.49294 0.35822 0.89835 0.0
H430 H 0.50166 0.30704 0.89466 0.0
H431 H 0.58982 0.28064 0.90431 0.0
H432 H 0.6146 0.13554 0.89782 0.0
H433 H 0.61029 0.18699 0.89356 0.0
C434 C 0.1513 0.28926 0.14632 0.0
C435 C 0.17102 0.26616 0.14655 0.0
C436 C 0.1221 0.28438 0.14382 0.0
C437 C 0.06748 0.22784 0.14671 0.0
H438 H 0.01981 0.28061 0.12774 0.0
C439 C 0.94507 0.2102 0.14304 0.0
C440 C 0.92763 0.23479 0.14458 0.0
C441 C 0.97472 0.21298 0.14098 0.0
C442 C 0.03279 0.26577 0.13313 0.0
H443 H 0.17576 0.21995 0.14386 0.0
H444 H 0.12463 0.21141 0.13951 0.0
H445 H 0.07217 0.28729 0.1282 0.0
H446 H 0.92741 0.28165 0.14467 0.0
H447 H 0.97931 0.28656 0.14136 0.0
H448 H 0.0283 0.2069 0.15203 0.0
C449 C 0.1318 0.23328 0.14136 0.0
C450 C 0.06278 0.26955 0.13336 0.0
C451 C 0.16109 0.23819 0.14379 0.0
C452 C 0.94028 0.26228 0.1435 0.0
C453 C 0.97004 0.26508 0.14154 0.0
C454 C 0.03754 0.22415 0.14654 0.0
C455 C 0.11191 0.25627 0.14155 0.0
C456 C 0.08041 0.25083 0.14029 0.0
C457 C 0.98773 0.24043 0.14053 0.0
C458 C 0.01975 0.24326 0.13987 0.0
H459 H 0.15826 0.31109 0.14837 0.0
H460 H 0.1073 0.30251 0.14416 0.0
H461 H 0.08039 0.21333 0.1523 0.0
H462 H 0.93592 0.1887 0.14368 0.0
H463 H 0.98754 0.19355 0.13995 0.0
C464 C 0.03957 0.95768 0.45277 0.0
C465 C 0.04618 0.98079 0.44484 0.0
C466 C 0.03899 0.96188 0.46557 0.0
C467 C 0.02565 0.01443 0.48937 0.0
H468 H 0.07985 0.97187 0.50973 0.0
C469 C 0.04169 0.04126 0.5411 0.0
C470 C 0.04864 0.01848 0.54912 0.0
C471 C 0.04079 0.03667 0.52832 0.0
C472 C 0.06413 0.98357 0.50427 0.0
H473 H 0.05659 0.02649 0.44398 0.0
H474 H 0.05466 0.03391 0.46633 0.0
H475 H 0.07796 0.96277 0.48758 0.0
H476 H 0.05905 0.97286 0.55019 0.0
H477 H 0.05602 0.96445 0.52811 0.0
H478 H 0.01095 0.03458 0.50599 0.0
C479 C 0.05038 0.01257 0.46264 0.0
C480 C 0.06324 0.9784 0.49157 0.0
C481 C 0.05164 0.00824 0.44989 0.0
C482 C 0.05407 0.99095 0.54419 0.0
C483 C 0.05252 0.9862 0.53149 0.0
C484 C 0.02605 0.01917 0.50213 0.0
C485 C 0.04427 0.98939 0.47056 0.0
C486 C 0.04414 0.99392 0.48404 0.0
C487 C 0.04618 0.00903 0.52335 0.0
C488 C 0.04543 0.00391 0.50975 0.0
H489 H 0.03532 0.93631 0.44911 0.0
H490 H 0.03423 0.94375 0.47157 0.0
H491 H 0.01068 0.02655 0.48368 0.0
H492 H 0.03753 0.06274 0.54467 0.0
H493 H 0.03631 0.05493 0.52236 0.0
C494 C 0.26986 0.71751 0.79142 0.0
C495 C 0.27251 0.74343 0.7981 0.0
C496 C 0.27579 0.71688 0.77876 0.0
C497 C 0.27867 0.76118 0.75104 0.0
H498 H 0.33719 0.70764 0.73946 0.0
C499 C 0.32275 0.76918 0.70167 0.0
C500 C 0.32859 0.74336 0.69533 0.0
C501 C 0.31703 0.76885 0.71432 0.0
C502 C 0.32048 0.72242 0.74247 0.0
H503 H 0.28228 0.78918 0.79672 0.0
H504 H 0.29178 0.78818 0.77452 0.0
H505 H 0.32254 0.70693 0.76114 0.0
H506 H 0.3337 0.69702 0.69728 0.0
H507 H 0.32267 0.69622 0.7193 0.0
H508 H 0.27576 0.77624 0.73245 0.0
C509 C 0.28549 0.76835 0.77912 0.0
C510 C 0.31218 0.72202 0.75489 0.0
C511 C 0.28013 0.76888 0.79181 0.0
C512 C 0.32947 0.71729 0.70196 0.0
C513 C 0.32321 0.71688 0.7146 0.0
C514 C 0.28657 0.76127 0.7386 0.0
C515 C 0.28384 0.74228 0.77254 0.0
C516 C 0.29141 0.74158 0.75928 0.0
C517 C 0.31643 0.74262 0.72091 0.0
C518 C 0.30783 0.74212 0.73416 0.0
H519 H 0.26417 0.69754 0.79606 0.0
H520 H 0.27423 0.69656 0.77382 0.0
H521 H 0.2624 0.77629 0.75422 0.0
H522 H 0.32224 0.78965 0.6968 0.0
H523 H 0.31277 0.78921 0.71891 0.0
C524 C 0.52701 0.97731 0.04282 0.0
C525 C 0.55265 0.97199 0.04936 0.0
C526 C 0.52771 0.98265 0.03014 0.0
C527 C 0.5751 0.9789 0.0023 0.0
H528 H 0.52081 0.03584 0.98988 0.0
C529 C 0.5804 0.02783 0.95299 0.0
C530 C 0.55463 0.02467 0.94625 0.0
C531 C 0.58088 0.02228 0.96569 0.0
C532 C 0.53605 0.01989 0.99325 0.0
H533 H 0.59909 0.96743 0.04775 0.0
H534 H 0.60055 0.97782 0.02567 0.0
H535 H 0.52045 0.02329 0.01174 0.0
H536 H 0.50902 0.0143 0.94754 0.0
H537 H 0.50976 0.00545 0.96979 0.0
H538 H 0.59111 0.97635 0.98373 0.0
C539 C 0.57974 0.97715 0.03024 0.0
C540 C 0.53572 0.01245 0.00574 0.0
C541 C 0.57896 0.97127 0.04291 0.0
C542 C 0.5292 0.01684 0.9525 0.0
C543 C 0.52958 0.01186 0.96522 0.0
C544 C 0.57572 0.98674 0.98983 0.0
C545 C 0.55415 0.98341 0.02373 0.0
C546 C 0.555 0.9916 0.01042 0.0
C547 C 0.5555 0.0141 0.97188 0.0
C548 C 0.55601 0.00708 0.98519 0.0
H549 H 0.50636 0.97769 0.04755 0.0
H550 H 0.50747 0.9865 0.0254 0.0
H551 H 0.59001 0.96251 0.0055 0.0
H552 H 0.60035 0.03369 0.94839 0.0
H553 H 0.60108 0.02428 0.97068 0.0
C554 C 0.27899 0.2322 0.20182 0.0
C555 C 0.27137 0.25764 0.19551 0.0
C556 C 0.2845 0.2328 0.2145 0.0
C557 C 0.31143 0.27956 0.23862 0.0
H558 H 0.27652 0.22455 0.26115 0.0
C559 C 0.32958 0.2841 0.29153 0.0
C560 C 0.32934 0.25793 0.2981 0.0
C561 C 0.32321 0.28453 0.2789 0.0
C562 C 0.2869 0.23975 0.25497 0.0
H563 H 0.26314 0.30355 0.19754 0.0
H564 H 0.2734 0.30463 0.21975 0.0
H565 H 0.26254 0.22448 0.23945 0.0
H566 H 0.32408 0.21152 0.29651 0.0
H567 H 0.31438 0.21204 0.27442 0.0
H568 H 0.33659 0.29425 0.25396 0.0
C569 C 0.27487 0.28428 0.21483 0.0
C570 C 0.27865 0.23983 0.24257 0.0
C571 C 0.26881 0.28359 0.20218 0.0
C572 C 0.3241 0.23206 0.2917 0.0
C573 C 0.31825 0.23242 0.27905 0.0
C574 C 0.32006 0.2792 0.251 0.0
C575 C 0.283 0.25892 0.22106 0.0
C576 C 0.29086 0.25969 0.23429 0.0
C577 C 0.31692 0.25873 0.27255 0.0
C578 C 0.30797 0.25922 0.25933 0.0
H579 H 0.28108 0.21188 0.19693 0.0
H580 H 0.29085 0.21299 0.2191 0.0
H581 H 0.3214 0.29486 0.23235 0.0
H582 H 0.33335 0.3044 0.29626 0.0
H583 H 0.32214 0.30523 0.27425 0.0
C584 C 0.83114 0.21826 0.20014 0.0
C585 C 0.83025 0.24502 0.194 0.0
C586 C 0.82552 0.21667 0.21282 0.0
C587 C 0.82549 0.25793 0.24147 0.0
H588 H 0.7624 0.20812 0.25164 0.0
C589 C 0.77857 0.26569 0.29038 0.0
C590 C 0.77012 0.24004 0.29629 0.0
C591 C 0.78542 0.26572 0.27782 0.0
C592 C 0.78038 0.22179 0.24903 0.0
H593 H 0.82416 0.29118 0.19636 0.0
H594 H 0.81522 0.28843 0.21858 0.0
H595 H 0.77801 0.2083 0.2301 0.0
H596 H 0.76161 0.19438 0.29367 0.0
H597 H 0.77454 0.19412 0.27183 0.0
H598 H 0.82857 0.27102 0.26033 0.0
C599 C 0.8199 0.26872 0.21355 0.0
C600 C 0.78924 0.2219 0.23668 0.0
C601 C 0.82493 0.27026 0.20085 0.0
C602 C 0.76785 0.21453 0.28932 0.0
C603 C 0.77522 0.21443 0.27678 0.0
C604 C 0.81699 0.25749 0.25385 0.0
C605 C 0.81955 0.24187 0.21958 0.0
C606 C 0.81164 0.24022 0.23279 0.0
C607 C 0.78454 0.23996 0.27092 0.0
C608 C 0.79404 0.23971 0.25777 0.0
H609 H 0.83502 0.19844 0.19507 0.0
H610 H 0.82551 0.19575 0.21732 0.0
H611 H 0.84299 0.27206 0.23868 0.0
H612 H 0.78022 0.28575 0.2955 0.0
H613 H 0.79166 0.28597 0.27357 0.0
C614 C 0.77297 0.73044 0.69986 0.0
C615 C 0.76658 0.75608 0.69347 0.0
C616 C 0.77789 0.73093 0.71259 0.0
C617 C 0.80632 0.77656 0.73662 0.0
H618 H 0.7679 0.72438 0.75933 0.0
C619 C 0.82557 0.78109 0.78942 0.0
C620 C 0.82382 0.75512 0.79609 0.0
C621 C 0.81865 0.78171 0.77684 0.0
C622 C 0.77924 0.73876 0.75311 0.0
H623 H 0.7598 0.80226 0.69537 0.0
H624 H 0.76911 0.80315 0.71766 0.0
H625 H 0.75425 0.72449 0.73758 0.0
H626 H 0.81508 0.70921 0.79477 0.0
H627 H 0.80448 0.70993 0.77276 0.0
H628 H 0.83219 0.79008 0.75192 0.0
C629 C 0.77004 0.78272 0.71278 0.0
C630 C 0.77118 0.73897 0.74068 0.0
C631 C 0.76453 0.78215 0.70008 0.0
C632 C 0.8163 0.7296 0.78987 0.0
C633 C 0.80994 0.7301 0.77727 0.0
C634 C 0.81478 0.77602 0.74901 0.0
C635 C 0.77703 0.75715 0.7191 0.0
C636 C 0.78466 0.75784 0.73234 0.0
C637 C 0.81034 0.75627 0.77064 0.0
C638 C 0.8014 0.75704 0.75742 0.0
H639 H 0.77464 0.71003 0.695 0.0
H640 H 0.78337 0.71096 0.71727 0.0
H641 H 0.81726 0.79105 0.7303 0.0
H642 H 0.83109 0.80114 0.79402 0.0
H643 H 0.81891 0.80233 0.77211 0.0
C644 C 0.57148 0.48172 0.95109 0.0
C645 C 0.54598 0.4741 0.94487 0.0
C646 C 0.57097 0.48804 0.9637 0.0
C647 C 0.52517 0.48283 0.99197 0.0
H648 H 0.57662 0.54335 0.00348 0.0
C649 C 0.51941 0.53286 0.041 0.0
C650 C 0.54552 0.53074 0.04757 0.0
C651 C 0.5187 0.52734 0.0283 0.0
C652 C 0.56217 0.52643 0.00036 0.0
H653 H 0.50001 0.46667 0.94696 0.0
H654 H 0.49882 0.47877 0.96887 0.0
H655 H 0.57663 0.52995 0.9817 0.0
H656 H 0.59149 0.52244 0.04598 0.0
H657 H 0.59033 0.51369 0.02371 0.0
H658 H 0.51024 0.48012 0.0107 0.0
C659 C 0.51942 0.47913 0.96414 0.0
C660 C 0.56231 0.51851 0.98791 0.0
C661 C 0.52005 0.47225 0.95156 0.0
C662 C 0.57106 0.52416 0.04114 0.0
C663 C 0.57043 0.51924 0.02842 0.0
C664 C 0.52468 0.49116 0.00438 0.0
C665 C 0.54483 0.4875 0.97034 0.0
C666 C 0.54407 0.49634 0.98357 0.0
C667 C 0.54418 0.52025 0.02195 0.0
C668 C 0.54339 0.5128 0.00869 0.0
H669 H 0.59185 0.48302 0.94619 0.0
H670 H 0.59113 0.49355 0.9682 0.0
H671 H 0.51112 0.46542 0.98904 0.0
H672 H 0.49937 0.53774 0.04574 0.0
H673 H 0.49825 0.52837 0.02345 0.0
C674 C 0.02652 0.47341 0.54215 0.0
C675 C 0.05245 0.46825 0.5485 0.0
C676 C 0.02667 0.47886 0.52947 0.0
C677 C 0.07291 0.47586 0.50127 0.0
H678 H 0.01766 0.53256 0.48944 0.0
C679 C 0.07555 0.52554 0.45203 0.0
C680 C 0.04946 0.52247 0.44551 0.0
C681 C 0.07669 0.51971 0.46471 0.0
C682 C 0.03316 0.51667 0.49264 0.0
H683 H 0.09886 0.46404 0.54654 0.0
H684 H 0.09935 0.4746 0.52446 0.0
H685 H 0.01838 0.51972 0.51126 0.0
H686 H 0.00395 0.51191 0.44718 0.0
H687 H 0.00584 0.50257 0.46939 0.0
H688 H 0.08809 0.47366 0.48256 0.0
C689 C 0.07874 0.47375 0.52918 0.0
C690 C 0.03345 0.50907 0.50511 0.0
C691 C 0.07851 0.46775 0.54185 0.0
C692 C 0.02437 0.51441 0.45197 0.0
C693 C 0.02541 0.50914 0.46466 0.0
C694 C 0.0729 0.48386 0.48881 0.0
C695 C 0.05285 0.47989 0.52287 0.0
C696 C 0.05308 0.48828 0.50958 0.0
C697 C 0.05164 0.51132 0.47109 0.0
C698 C 0.05283 0.50411 0.48438 0.0
H699 H 0.00606 0.4736 0.54702 0.0
H700 H 0.00622 0.48259 0.52489 0.0
H701 H 0.08808 0.45953 0.50431 0.0
H702 H 0.09525 0.53157 0.44728 0.0
H703 H 0.09712 0.52168 0.46952 0.0
C704 C 0.31092 0.84705 0.63122 0.0
C705 C 0.30022 0.84011 0.643 0.0
C706 C 0.30108 0.87183 0.62509 0.0
C707 C 0.25248 0.90526 0.61234 0.0
H708 H 0.23699 0.98007 0.62707 0.0
C709 C 0.16826 0.97806 0.59015 0.0
C710 C 0.14899 0.9914 0.59835 0.0
C711 C 0.19458 0.96721 0.59439 0.0
C712 C 0.241 0.95927 0.62282 0.0
H713 H 0.27299 0.85471 0.65805 0.0
H714 H 0.25627 0.89808 0.64748 0.0
H715 H 0.27027 0.94663 0.63724 0.0
H716 H 0.14229 0.0053 0.6172 0.0
H717 H 0.18738 0.98478 0.62489 0.0
H718 H 0.22166 0.91624 0.59856 0.0
C719 C 0.27203 0.88443 0.64292 0.0
C720 C 0.26028 0.94027 0.6286 0.0
C721 C 0.28141 0.85946 0.64893 0.0
C722 C 0.15702 0.99523 0.61072 0.0
C723 C 0.183 0.98354 0.61508 0.0
C724 C 0.23287 0.92394 0.60669 0.0
C725 C 0.28089 0.89028 0.63077 0.0
C726 C 0.26558 0.91279 0.62357 0.0
C727 C 0.20167 0.96841 0.60704 0.0
C728 C 0.22618 0.95092 0.61202 0.0
H729 H 0.32543 0.83246 0.62645 0.0
H730 H 0.30824 0.87592 0.61572 0.0
H731 H 0.25578 0.88403 0.60835 0.0
H732 H 0.16252 0.97517 0.58052 0.0
H733 H 0.20873 0.95671 0.58782 0.0
C734 C 0.29176 0.85567 0.85761 0.0
C735 C 0.30804 0.84119 0.84856 0.0
C736 C 0.30205 0.88142 0.86285 0.0
C737 C 0.34163 0.91866 0.87879 0.0
H738 H 0.39336 0.96936 0.86075 0.0
C739 C 0.44444 0.96279 0.90004 0.0
C740 C 0.45676 0.98886 0.89598 0.0
C741 C 0.41875 0.95268 0.89493 0.0
C742 C 0.37852 0.95599 0.86597 0.0
H743 H 0.34697 0.84319 0.83741 0.0
H744 H 0.36498 0.88726 0.84659 0.0
H745 H 0.36043 0.93804 0.84947 0.0
H746 H 0.45091 0.02563 0.88381 0.0
H747 H 0.40563 0.00791 0.87483 0.0
H748 H 0.36004 0.93628 0.89528 0.0
C749 C 0.34415 0.87927 0.8496 0.0
C750 C 0.35986 0.93771 0.85948 0.0
C751 C 0.33395 0.85368 0.84442 0.0
C752 C 0.44201 0.00537 0.88708 0.0
C753 C 0.41615 0.99517 0.88192 0.0
C754 C 0.36007 0.93715 0.88528 0.0
C755 C 0.32871 0.89318 0.85908 0.0
C756 C 0.34238 0.91768 0.86581 0.0
C757 C 0.40455 0.96837 0.88561 0.0
C758 C 0.37988 0.95485 0.87894 0.0
H759 H 0.27162 0.84663 0.86094 0.0
H760 H 0.2895 0.89173 0.87006 0.0
H761 H 0.32844 0.90364 0.88399 0.0
H762 H 0.45514 0.94959 0.90693 0.0
H763 H 0.41088 0.93174 0.89788 0.0
C764 C 0.44616 0.00366 0.11187 0.0
C765 C 0.45273 0.00597 0.09927 0.0
C766 C 0.42083 0.01611 0.11654 0.0
C767 C 0.36998 0.07486 0.10804 0.0
H768 H 0.33532 0.0549 0.13952 0.0
C769 C 0.32223 0.14256 0.14977 0.0
C770 C 0.3023 0.16062 0.14375 0.0
C771 C 0.33229 0.11749 0.14405 0.0
C772 C 0.34457 0.0605 0.13064 0.0
H773 H 0.43711 0.0203 0.08144 0.0
H774 H 0.39207 0.04014 0.08936 0.0
H775 H 0.36817 0.02081 0.12949 0.0
H776 H 0.27601 0.1659 0.12734 0.0
H777 H 0.29438 0.12225 0.11711 0.0
H778 H 0.34668 0.11466 0.1093 0.0
C779 C 0.40692 0.03025 0.09583 0.0
C780 C 0.3636 0.04113 0.12493 0.0
C781 C 0.43258 0.01861 0.09124 0.0
C782 C 0.29136 0.15232 0.13218 0.0
C783 C 0.30189 0.12745 0.12633 0.0
C784 C 0.35061 0.09391 0.11363 0.0
C785 C 0.40133 0.03049 0.10862 0.0
C786 C 0.37736 0.04848 0.11375 0.0
C787 C 0.323 0.11023 0.1321 0.0
C788 C 0.33846 0.08736 0.12517 0.0
H789 H 0.46154 0.99415 0.11823 0.0
H790 H 0.41759 0.01597 0.12645 0.0
H791 H 0.38039 0.0818 0.09959 0.0
H792 H 0.33087 0.14837 0.15874 0.0
H793 H 0.34875 0.10481 0.14867 0.0
C794 C 0.15432 0.99806 0.38336 0.0
C795 C 0.14362 0.01106 0.39416 0.0
C796 C 0.17965 0.00847 0.37785 0.0
C797 C 0.21319 0.05629 0.36437 0.0
H798 H 0.28305 0.0793 0.38153 0.0
C799 C 0.28807 0.13811 0.34164 0.0
C800 C 0.29873 0.15988 0.34941 0.0
C801 C 0.277 0.11257 0.34661 0.0
C802 C 0.26364 0.0732 0.3766 0.0
H803 H 0.15201 0.04339 0.40821 0.0
H804 H 0.19645 0.06105 0.39876 0.0
H805 H 0.24861 0.04701 0.39167 0.0
H806 H 0.30766 0.1718 0.36835 0.0
H807 H 0.28672 0.12808 0.37718 0.0
H808 H 0.22633 0.0841 0.34977 0.0
C809 C 0.18526 0.04307 0.39449 0.0
C810 C 0.2441 0.05447 0.38238 0.0
C811 C 0.15971 0.03312 0.39983 0.0
C812 C 0.2997 0.15512 0.36219 0.0
C813 C 0.28777 0.12992 0.36722 0.0
C814 C 0.23236 0.0754 0.35869 0.0
C815 C 0.19496 0.03153 0.38323 0.0
C816 C 0.21836 0.04644 0.37642 0.0
C817 C 0.27528 0.10872 0.35951 0.0
C818 C 0.25752 0.08479 0.36484 0.0
H819 H 0.14226 0.98105 0.37881 0.0
H820 H 0.18672 0.99925 0.36916 0.0
H821 H 0.19328 0.05082 0.35964 0.0
H822 H 0.28741 0.14128 0.33172 0.0
H823 H 0.26863 0.09642 0.34032 0.0
C824 C 0.95999 0.01024 0.38534 0.0
C825 C 0.98825 0.02054 0.3872 0.0
C826 C 0.93878 0.02823 0.38028 0.0
C827 C 0.92867 0.09623 0.3627 0.0
H828 H 0.85342 0.0972 0.37849 0.0
C829 C 0.84728 0.18771 0.35413 0.0
C830 C 0.81839 0.17974 0.352 0.0
C831 C 0.86728 0.16742 0.35837 0.0
C832 C 0.87423 0.09696 0.37391 0.0
H833 H 0.01655 0.05758 0.38484 0.0
H834 H 0.97962 0.08886 0.37615 0.0
H835 H 0.88986 0.06254 0.38531 0.0
H836 H 0.78769 0.14434 0.35303 0.0
H837 H 0.8227 0.10892 0.36045 0.0
H838 H 0.91318 0.13088 0.35141 0.0
C839 C 0.97386 0.06683 0.37849 0.0
C840 C 0.89507 0.07706 0.37778 0.0
C841 C 0.99502 0.0489 0.38354 0.0
C842 C 0.80977 0.15121 0.35458 0.0
C843 C 0.8298 0.13092 0.35886 0.0
C844 C 0.90788 0.11615 0.35886 0.0
C845 C 0.94541 0.05684 0.37695 0.0
C846 C 0.92263 0.07667 0.3723 0.0
C847 C 0.85886 0.13872 0.36061 0.0
C848 C 0.88054 0.11693 0.3645 0.0
H849 H 0.95406 0.98848 0.38803 0.0
H850 H 0.91715 0.01977 0.37905 0.0
H851 H 0.94951 0.09616 0.35815 0.0
H852 H 0.85466 0.20952 0.3523 0.0
H853 H 0.88941 0.17421 0.35984 0.0
C854 C 0.63352 0.02169 0.10817 0.0
C855 C 0.60495 0.02932 0.10522 0.0
C856 C 0.65276 0.04232 0.11275 0.0
C857 C 0.66496 0.12116 0.11378 0.0
H858 H 0.72185 0.10044 0.13856 0.0
C859 C 0.74255 0.20368 0.13689 0.0
C860 C 0.77136 0.19473 0.13848 0.0
C861 C 0.72161 0.18424 0.13267 0.0
C862 C 0.70625 0.10646 0.13155 0.0
H863 H 0.57396 0.06453 0.10512 0.0
H864 H 0.60744 0.10043 0.11333 0.0
H865 H 0.68578 0.06507 0.13222 0.0
H866 H 0.80087 0.15853 0.13652 0.0
H867 H 0.76437 0.12478 0.12916 0.0
H868 H 0.68548 0.16268 0.1132 0.0
C869 C 0.61511 0.07858 0.11187 0.0
C870 C 0.68557 0.08621 0.12792 0.0
C871 C 0.59585 0.05794 0.10725 0.0
C872 C 0.77889 0.16616 0.13545 0.0
C873 C 0.75794 0.14672 0.13131 0.0
C874 C 0.68558 0.1415 0.11747 0.0
C875 C 0.64388 0.07108 0.11455 0.0
C876 C 0.66486 0.09319 0.11889 0.0
C877 C 0.72902 0.15543 0.13004 0.0
C878 C 0.70661 0.13425 0.1263 0.0
H879 H 0.64131 -0.00011 0.10669 0.0
H880 H 0.67485 0.03586 0.11455 0.0
H881 H 0.64958 0.12714 0.10668 0.0
H882 H 0.73602 0.22554 0.13913 0.0
H883 H 0.69945 0.19152 0.13183 0.0
C884 C 0.78329 0.8396 0.85544 0.0
C885 C 0.77501 0.81099 0.85285 0.0
C886 C 0.76331 0.85931 0.8602 0.0
C887 C 0.69291 0.86457 0.8761 0.0
H888 H 0.69133 0.94145 0.8618 0.0
C889 C 0.60181 0.94554 0.88703 0.0
C890 C 0.61024 0.97417 0.88947 0.0
C891 C 0.62156 0.9257 0.88219 0.0
C892 C 0.69167 0.92017 0.86597 0.0
H893 H 0.7394 0.78049 0.85354 0.0
H894 H 0.70458 0.81492 0.86178 0.0
H895 H 0.72706 0.90651 0.85467 0.0
H896 H 0.64591 0.00457 0.88845 0.0
H897 H 0.68035 0.96991 0.88011 0.0
H898 H 0.65756 0.87824 0.88742 0.0
C899 C 0.72656 0.82205 0.86021 0.0
C900 C 0.71217 0.90016 0.86191 0.0
C901 C 0.74652 0.80234 0.85544 0.0
C902 C 0.63866 0.9827 0.88666 0.0
C903 C 0.65839 0.96285 0.88183 0.0
C904 C 0.67242 0.88458 0.88018 0.0
C905 C 0.73464 0.85084 0.86249 0.0
C906 C 0.71304 0.87215 0.86693 0.0
C907 C 0.65017 0.93404 0.87969 0.0
C908 C 0.67158 0.91262 0.87516 0.0
H909 H 0.80508 0.84698 0.8536 0.0
H910 H 0.7703 0.88123 0.86205 0.0
H911 H 0.69326 0.84327 0.88026 0.0
H912 H 0.58006 0.93827 0.88903 0.0
H913 H 0.61443 0.90377 0.88045 0.0
C914 C 0.85246 0.80557 0.63753 0.0
C915 C 0.82324 0.81338 0.63874 0.0
C916 C 0.8729 0.82577 0.63356 0.0
C917 C 0.88086 0.89573 0.61747 0.0
H918 H 0.95434 0.89835 0.63468 0.0
C919 C 0.9646 0.98532 0.60802 0.0
C920 C 0.99331 0.97605 0.60648 0.0
C921 C 0.94367 0.96648 0.6127 0.0
C922 C 0.93401 0.89775 0.62973 0.0
H923 H 0.79251 0.84842 0.63642 0.0
H924 H 0.8282 0.88364 0.62958 0.0
H925 H 0.91807 0.86287 0.64078 0.0
H926 H 0.02271 0.93999 0.60908 0.0
H927 H 0.98622 0.90719 0.61715 0.0
H928 H 0.89687 0.93052 0.60638 0.0
C929 C 0.83526 0.86183 0.63161 0.0
C930 C 0.91326 0.87738 0.6332 0.0
C931 C 0.81482 0.84164 0.63557 0.0
C932 C 0.00081 0.94787 0.61014 0.0
C933 C 0.97991 0.92907 0.61483 0.0
C934 C 0.90162 0.91611 0.614 0.0
C935 C 0.86459 0.85422 0.63071 0.0
C936 C 0.88652 0.87603 0.62706 0.0
C937 C 0.95101 0.938 0.61596 0.0
C938 C 0.92848 0.91725 0.62005 0.0
H939 H 0.85969 0.78396 0.63983 0.0
H940 H 0.89525 0.8191 0.63276 0.0
H941 H 0.8606 0.89503 0.61247 0.0
H942 H 0.95809 0.00692 0.60534 0.0
H943 H 0.92166 0.97413 0.61365 0.0
C944 C 0.78299 0.36688 0.15237 0.0
C945 C 0.79573 0.34667 0.1444 0.0
C946 C 0.77144 0.39253 0.14772 0.0
C947 C 0.76105 0.43575 0.11855 0.0
H948 H 0.68736 0.45288 0.13396 0.0
C949 C 0.66021 0.4776 0.0934 0.0
C950 C 0.64216 0.4976 0.09938 0.0
C951 C 0.68512 0.46737 0.09919 0.0
C952 C 0.70816 0.44888 0.12969 0.0
H953 H 0.80782 0.33776 0.12548 0.0
H954 H 0.78614 0.38169 0.11716 0.0
H955 H 0.71997 0.4191 0.14378 0.0
H956 H 0.63673 0.52385 0.11579 0.0
H957 H 0.68009 0.50522 0.12615 0.0
H958 H 0.74759 0.46404 0.10391 0.0
C959 C 0.78586 0.3785 0.12707 0.0
C960 C 0.72706 0.42949 0.13534 0.0
C961 C 0.79822 0.35318 0.1318 0.0
C962 C 0.65031 0.50844 0.11099 0.0
C963 C 0.67501 0.49776 0.11691 0.0
C964 C 0.74182 0.45481 0.11278 0.0
C965 C 0.77138 0.39806 0.13493 0.0
C966 C 0.75351 0.42204 0.12972 0.0
C967 C 0.69222 0.47658 0.11118 0.0
C968 C 0.71491 0.46101 0.11817 0.0
H969 H 0.78117 0.36241 0.16217 0.0
H970 H 0.76146 0.40743 0.15415 0.0
H971 H 0.78143 0.43112 0.11405 0.0
H972 H 0.65452 0.46903 0.0844 0.0
H973 H 0.6978 0.45086 0.09461 0.0
C974 C 0.78797 0.34857 0.35692 0.0
C975 C 0.80459 0.33419 0.34795 0.0
C976 C 0.79807 0.37426 0.36228 0.0
C977 C 0.83693 0.41202 0.37841 0.0
H978 H 0.88802 0.46349 0.36044 0.0
C979 C 0.9381 0.45943 0.39997 0.0
C980 C 0.94985 0.48565 0.39579 0.0
C981 C 0.91276 0.4485 0.39483 0.0
C982 C 0.87335 0.44989 0.36563 0.0
H983 H 0.84403 0.33621 0.33714 0.0
H984 H 0.86167 0.38023 0.34652 0.0
H985 H 0.85615 0.43118 0.34912 0.0
H986 H 0.94329 0.5219 0.38341 0.0
H987 H 0.89865 0.50277 0.37437 0.0
H988 H 0.85448 0.4304 0.39493 0.0
C989 C 0.84073 0.37217 0.34937 0.0
C990 C 0.8553 0.43106 0.35912 0.0
C991 C 0.83074 0.34663 0.34407 0.0
C992 C 0.93483 0.50153 0.38677 0.0
C993 C 0.90934 0.49052 0.38157 0.0
C994 C 0.85478 0.43105 0.38492 0.0
C995 C 0.82485 0.38607 0.35871 0.0
C996 C 0.83804 0.41083 0.36544 0.0
C997 C 0.89839 0.46351 0.38535 0.0
C998 C 0.87432 0.44911 0.37861 0.0
H999 H 0.76766 0.33955 0.36006 0.0
H1000 H 0.78522 0.38455 0.3694 0.0
H1001 H 0.82388 0.39684 0.3836 0.0
H1002 H 0.94901 0.4467 0.40696 0.0
H1003 H 0.90537 0.42745 0.39786 0.0
C1004 C 0.93379 0.51628 0.59032 0.0
C1005 C 0.95373 0.50361 0.59843 0.0
C1006 C 0.90827 0.52839 0.59482 0.0
C1007 C 0.86483 0.54053 0.62379 0.0
H1008 H 0.84867 0.61374 0.60775 0.0
C1009 C 0.79235 0.65184 0.63019 0.0
C1010 C 0.80266 0.6603 0.64185 0.0
C1011 C 0.80332 0.627 0.62447 0.0
C1012 C 0.8524 0.59309 0.61219 0.0
H1013 H 0.96231 0.49224 0.61746 0.0
H1014 H 0.9186 0.51487 0.62552 0.0
H1015 H 0.88235 0.58039 0.59831 0.0
H1016 H 0.83069 0.64838 0.65708 0.0
H1017 H 0.84937 0.6049 0.64721 0.0
H1018 H 0.83634 0.55484 0.63821 0.0
C1019 C 0.92189 0.51467 0.61562 0.0
C1020 C 0.87174 0.57376 0.60676 0.0
C1021 C 0.94708 0.50176 0.61104 0.0
C1022 C 0.82251 0.64247 0.64804 0.0
C1023 C 0.83303 0.61744 0.64244 0.0
C1024 C 0.84582 0.56017 0.62934 0.0
C1025 C 0.90262 0.52907 0.60761 0.0
C1026 C 0.8788 0.54747 0.61261 0.0
C1027 C 0.82428 0.60997 0.63044 0.0
C1028 C 0.83996 0.58691 0.62371 0.0
H1029 H 0.93839 0.51763 0.58052 0.0
H1030 H 0.89357 0.53828 0.58829 0.0
H1031 H 0.86916 0.52029 0.62846 0.0
H1032 H 0.77706 0.66523 0.62522 0.0
H1033 H 0.79621 0.62164 0.61521 0.0
C1034 C 0.76417 0.64483 0.84259 0.0
C1035 C 0.79018 0.65731 0.84662 0.0
C1036 C 0.75424 0.61909 0.84773 0.0
C1037 C 0.73912 0.56034 0.85744 0.0
H1038 H 0.73994 0.56105 0.89324 0.0
C1039 C 0.65783 0.49205 0.88522 0.0
C1040 C 0.64326 0.50845 0.89421 0.0
C1041 C 0.68357 0.50234 0.87997 0.0
C1042 C 0.73964 0.56038 0.88324 0.0
H1043 H 0.82705 0.65172 0.85874 0.0
H1044 H 0.80963 0.60635 0.86778 0.0
H1045 H 0.77114 0.59401 0.88191 0.0
H1046 H 0.64507 0.54758 0.90524 0.0
H1047 H 0.68912 0.56559 0.89605 0.0
H1048 H 0.70575 0.52857 0.85877 0.0
C1049 C 0.7968 0.61678 0.8607 0.0
C1050 C 0.75784 0.57905 0.87672 0.0
C1051 C 0.80682 0.64269 0.8555 0.0
C1052 C 0.65563 0.53447 0.89828 0.0
C1053 C 0.6812 0.54467 0.89309 0.0
C1054 C 0.7207 0.54188 0.86395 0.0
C1055 C 0.77006 0.60501 0.85704 0.0
C1056 C 0.75671 0.5803 0.86375 0.0
C1057 C 0.69521 0.52911 0.88368 0.0
C1058 C 0.7197 0.54276 0.87693 0.0
H1059 H 0.75088 0.65543 0.8357 0.0
H1060 H 0.73334 0.61109 0.84481 0.0
H1061 H 0.73826 0.56023 0.84743 0.0
H1062 H 0.64888 0.47182 0.88195 0.0
H1063 H 0.69395 0.48971 0.87281 0.0
C1064 C 0.46088 0.51432 0.88585 0.0
C1065 C 0.48952 0.52267 0.88831 0.0
C1066 C 0.44092 0.53433 0.88132 0.0
C1067 C 0.42733 0.61274 0.88013 0.0
H1068 H 0.37035 0.59174 0.85544 0.0
C1069 C 0.35199 0.696 0.8567 0.0
C1070 C 0.32325 0.68762 0.85449 0.0
C1071 C 0.37212 0.67608 0.86118 0.0
C1072 C 0.38591 0.59782 0.86245 0.0
H1073 H 0.51987 0.5584 0.8875 0.0
H1074 H 0.48512 0.59316 0.87943 0.0
H1075 H 0.40638 0.55637 0.86189 0.0
H1076 H 0.29292 0.65191 0.85564 0.0
H1077 H 0.328 0.61729 0.86356 0.0
H1078 H 0.40687 0.65422 0.88067 0.0
C1079 C 0.47799 0.57126 0.88123 0.0
C1080 C 0.40658 0.57757 0.86613 0.0
C1081 C 0.49795 0.55126 0.88577 0.0
C1082 C 0.3149 0.65908 0.85719 0.0
C1083 C 0.33504 0.63916 0.86165 0.0
C1084 C 0.40668 0.633 0.87644 0.0
C1085 C 0.44914 0.56313 0.87913 0.0
C1086 C 0.42751 0.5848 0.87501 0.0
C1087 C 0.36396 0.64733 0.86352 0.0
C1088 C 0.38571 0.62575 0.86757 0.0
H1089 H 0.45362 0.49249 0.88772 0.0
H1090 H 0.4188 0.52744 0.87989 0.0
H1091 H 0.44285 0.61883 0.88715 0.0
H1092 H 0.35917 0.71779 0.85471 0.0
H1093 H 0.39429 0.68298 0.86244 0.0
C1094 C 0.13438 0.51716 0.60776 0.0
C1095 C 0.10607 0.52514 0.60451 0.0
C1096 C 0.15355 0.53751 0.6126 0.0
C1097 C 0.16679 0.61604 0.61387 0.0
H1098 H 0.221 0.59465 0.63962 0.0
C1099 C 0.24358 0.6978 0.63779 0.0
C1100 C 0.27206 0.68845 0.63995 0.0
C1101 C 0.22271 0.67852 0.6334 0.0
C1102 C 0.20617 0.60086 0.63235 0.0
H1103 H 0.07551 0.56071 0.60411 0.0
H1104 H 0.10891 0.59616 0.61275 0.0
H1105 H 0.18503 0.55977 0.6327 0.0
H1106 H 0.30105 0.65165 0.63889 0.0
H1107 H 0.26468 0.61816 0.63118 0.0
H1108 H 0.18801 0.6572 0.61356 0.0
C1109 C 0.11639 0.57422 0.61134 0.0
C1110 C 0.18555 0.58088 0.62838 0.0
C1111 C 0.09719 0.55385 0.60647 0.0
C1112 C 0.27932 0.65958 0.63736 0.0
C1113 C 0.25844 0.6403 0.63303 0.0
C1114 C 0.18738 0.63607 0.61787 0.0
C1115 C 0.14487 0.56634 0.61435 0.0
C1116 C 0.16579 0.58813 0.61901 0.0
C1117 C 0.22983 0.64947 0.63114 0.0
C1118 C 0.20746 0.62858 0.62707 0.0
H1119 H 0.142 0.49527 0.60634 0.0
H1120 H 0.17544 0.53078 0.61466 0.0
H1121 H 0.15214 0.62219 0.60652 0.0
H1122 H 0.23725 0.7199 0.63969 0.0
H1123 H 0.2008 0.68617 0.63209 0.0
C1124 C 0.13113 0.48144 0.3855 0.0
C1125 C 0.10259 0.47315 0.38819 0.0
C1126 C 0.15068 0.46156 0.38056 0.0
C1127 C 0.1637 0.38313 0.37834 0.0
H1128 H 0.22063 0.40604 0.35393 0.0
C1129 C 0.24187 0.30235 0.35473 0.0
C1130 C 0.27061 0.31152 0.35316 0.0
C1131 C 0.2208 0.32158 0.35899 0.0
C1132 C 0.20503 0.3994 0.36084 0.0
H1133 H 0.07194 0.43767 0.38735 0.0
H1134 H 0.10596 0.40314 0.37854 0.0
H1135 H 0.18431 0.44073 0.36072 0.0
H1136 H 0.29986 0.34792 0.35516 0.0
H1137 H 0.26317 0.3813 0.36265 0.0
H1138 H 0.18449 0.34178 0.37843 0.0
C1139 C 0.11336 0.42488 0.38049 0.0
C1140 C 0.18421 0.41926 0.36472 0.0
C1141 C 0.09381 0.44475 0.38546 0.0
C1142 C 0.27792 0.34014 0.35622 0.0
C1143 C 0.25686 0.35936 0.36042 0.0
C1144 C 0.18448 0.36323 0.37442 0.0
C1145 C 0.14212 0.43295 0.37814 0.0
C1146 C 0.16343 0.41144 0.37358 0.0
C1147 C 0.22802 0.35039 0.36172 0.0
C1148 C 0.20551 0.37124 0.3657 0.0
H1149 H 0.13866 0.50311 0.38751 0.0
H1150 H 0.17275 0.46842 0.37899 0.0
H1151 H 0.14828 0.37653 0.38532 0.0
H1152 H 0.23549 0.28046 0.35246 0.0
H1153 H 0.19871 0.31409 0.35983 0.0
C1154 C 0.46131 0.48509 0.10641 0.0
C1155 C 0.48967 0.47662 0.10348 0.0
C1156 C 0.44155 0.46509 0.11111 0.0
C1157 C 0.42739 0.38666 0.11247 0.0
H1158 H 0.37281 0.40843 0.13802 0.0
C1159 C 0.35262 0.30453 0.13705 0.0
C1160 C 0.32406 0.31329 0.13943 0.0
C1161 C 0.37283 0.32415 0.13239 0.0
C1162 C 0.38771 0.40213 0.13078 0.0
H1163 H 0.5197 0.44059 0.10351 0.0
H1164 H 0.48532 0.40581 0.11189 0.0
H1165 H 0.40866 0.44334 0.13097 0.0
H1166 H 0.29419 0.3494 0.13846 0.0
H1167 H 0.32943 0.38351 0.13026 0.0
H1168 H 0.40646 0.34538 0.11233 0.0
C1169 C 0.47823 0.42782 0.11034 0.0
C1170 C 0.40826 0.42212 0.12675 0.0
C1171 C 0.49799 0.44782 0.10562 0.0
C1172 C 0.31601 0.34193 0.13677 0.0
C1173 C 0.33625 0.36155 0.13216 0.0
C1174 C 0.40687 0.36663 0.11652 0.0
C1175 C 0.44969 0.43615 0.11301 0.0
C1176 C 0.42829 0.41466 0.11752 0.0
C1177 C 0.36495 0.35297 0.13005 0.0
C1178 C 0.38674 0.37419 0.12569 0.0
H1179 H 0.45413 0.50708 0.10485 0.0
H1180 H 0.41966 0.47216 0.11294 0.0
H1181 H 0.4422 0.38037 0.1052 0.0
H1182 H 0.35956 0.28263 0.13899 0.0
H1183 H 0.39484 0.31694 0.13094 0.0
loop_
_geom_bond_atom_site_label_1
_geom_bond_atom_site_label_2
_geom_bond_distance
_geom_bond_site_symmetry_2
_ccdc_geom_bond_type
O0 Cd1 2.213 1_655 S
O0 C8 1.315 1_655 S
Cd1 O0 2.213 1_455 S
Cd1 O4 2.306 . S
Cd1 O5 2.475 . S
Cd1 O11 2.244 . S
Cd2 O3 2.240 1_565 S
Cd2 O10 2.223 . S
Cd2 O12 2.297 . S
Cd2 O13 2.439 1_565 S
O3 Cd2 2.240 1_545 S
O3 C8 1.279 . S
O4 Cd1 2.306 . S
O4 C6 1.247 . S
O5 Cd1 2.475 . S
O5 C6 1.208 . S
C6 O4 1.247 . S
C6 O5 1.208 . S
C7 O12 1.247 . S
C7 O13 1.208 1_565 S
C8 O0 1.315 1_455 S
C8 O3 1.279 . S
C9 O10 1.315 1_655 S
C9 O11 1.279 1_665 S
O10 Cd2 2.223 . S
O10 C9 1.315 1_455 S
O11 Cd1 2.244 . S
O11 C9 1.279 1_445 S
O12 Cd2 2.297 . S
O12 C7 1.247 . S
O13 Cd2 2.439 1_545 S
O13 C7 1.208 1_545 S
O14 Cd15 2.223 . S
O14 C22 1.315 . S
Cd15 O14 2.223 . S
Cd15 O18 2.297 . S
Cd15 O19 2.439 . S
Cd15 O25 2.240 . S
Cd16 O17 2.240 . S
Cd16 O24 2.223 . S
Cd16 O26 2.297 . S
Cd16 O27 2.439 . S
O17 Cd16 2.240 . S
O17 C22 1.279 . S
O18 Cd15 2.297 . S
O18 C20 1.247 . S
O19 Cd15 2.439 . S
O19 C20 1.208 . S
C20 O18 1.247 . S
C20 O19 1.208 . S
C21 O26 1.247 . S
C21 O27 1.208 . S
C22 O14 1.315 . S
C22 O17 1.279 . S
C23 O24 1.315 . S
C23 O25 1.279 . S
O24 Cd16 2.223 . S
O24 C23 1.315 . S
O25 Cd15 2.240 . S
O25 C23 1.279 . S
O26 Cd16 2.297 . S
O26 C21 1.247 . S
O27 Cd16 2.439 . S
O27 C21 1.208 . S
O28 Cd29 2.223 . S
O28 C36 1.315 . S
Cd29 O28 2.223 . S
Cd29 O32 2.297 . S
Cd29 O33 2.439 . S
Cd29 O39 2.240 . S
Cd30 O31 2.240 1_545 S
Cd30 O38 2.223 . S
Cd30 O40 2.297 . S
Cd30 O41 2.439 1_545 S
O31 Cd30 2.240 1_565 S
O31 C36 1.279 . S
O32 Cd29 2.297 . S
O32 C34 1.247 . S
O33 Cd29 2.439 . S
O33 C34 1.208 . S
C34 O32 1.247 . S
C34 O33 1.208 . S
C35 O40 1.247 . S
C35 O41 1.208 1_545 S
C36 O28 1.315 . S
C36 O31 1.279 . S
C37 O38 1.315 . S
C37 O39 1.279 1_545 S
O38 Cd30 2.223 . S
O38 C37 1.315 . S
O39 Cd29 2.240 . S
O39 C37 1.279 1_565 S
O40 Cd30 2.297 . S
O40 C35 1.247 . S
O41 Cd30 2.439 1_565 S
O41 C35 1.208 1_565 S
O42 Cd43 2.223 . S
O42 C50 1.315 . S
Cd43 O42 2.223 . S
Cd43 O46 2.297 . S
Cd43 O47 2.439 . S
Cd43 O53 2.240 . S
Cd44 O45 2.240 . S
Cd44 O52 2.223 . S
Cd44 O54 2.297 . S
Cd44 O55 2.439 . S
O45 Cd44 2.240 . S
O45 C50 1.279 . S
O46 Cd43 2.297 . S
O46 C48 1.247 . S
O47 Cd43 2.439 . S
O47 C48 1.208 . S
C48 O46 1.247 . S
C48 O47 1.208 . S
C49 O54 1.247 . S
C49 O55 1.208 . S
C50 O42 1.315 . S
C50 O45 1.279 . S
C51 O52 1.315 . S
C51 O53 1.279 . S
O52 Cd44 2.223 . S
O52 C51 1.315 . S
O53 Cd43 2.240 . S
O53 C51 1.279 . S
O54 Cd44 2.297 . S
O54 C49 1.247 . S
O55 Cd44 2.439 . S
O55 C49 1.208 . S
O56 Cd57 2.213 1_655 S
O56 C64 1.315 1_655 S
Cd57 O56 2.213 1_455 S
Cd57 O60 2.306 . S
Cd57 O61 2.475 . S
Cd57 O67 2.244 . S
Cd58 O59 2.240 1_545 S
Cd58 O66 2.223 . S
Cd58 O68 2.297 . S
Cd58 O69 2.439 1_545 S
O59 Cd58 2.240 1_565 S
O59 C64 1.279 . S
O60 Cd57 2.306 . S
O60 C62 1.247 . S
O61 Cd57 2.475 . S
O61 C62 1.208 . S
C62 O60 1.247 . S
C62 O61 1.208 . S
C63 O68 1.247 . S
C63 O69 1.208 1_545 S
C64 O56 1.315 1_455 S
C64 O59 1.279 . S
C65 O66 1.315 1_655 S
C65 O67 1.279 1_645 S
O66 Cd58 2.223 . S
O66 C65 1.315 1_455 S
O67 Cd57 2.244 . S
O67 C65 1.279 1_465 S
O68 Cd58 2.297 . S
O68 C63 1.247 . S
O69 Cd58 2.439 1_565 S
O69 C63 1.208 1_565 S
O70 Cd71 2.223 . S
O70 C78 1.315 . S
Cd71 O70 2.223 . S
Cd71 O74 2.297 . S
Cd71 O75 2.439 . S
Cd71 O81 2.240 . S
Cd72 O73 2.240 . S
Cd72 O80 2.223 . S
Cd72 O82 2.297 . S
Cd72 O83 2.439 . S
O73 Cd72 2.240 . S
O73 C78 1.279 . S
O74 Cd71 2.297 . S
O74 C76 1.247 . S
O75 Cd71 2.439 . S
O75 C76 1.208 . S
C76 O74 1.247 . S
C76 O75 1.208 . S
C77 O82 1.247 . S
C77 O83 1.208 . S
C78 O70 1.315 . S
C78 O73 1.279 . S
C79 O80 1.315 . S
C79 O81 1.279 . S
O80 Cd72 2.223 . S
O80 C79 1.315 . S
O81 Cd71 2.240 . S
O81 C79 1.279 . S
O82 Cd72 2.297 . S
O82 C77 1.247 . S
O83 Cd72 2.439 . S
O83 C77 1.208 . S
O84 Cd85 2.223 . S
O84 C92 1.315 . S
Cd85 O84 2.223 . S
Cd85 O88 2.297 . S
Cd85 O89 2.439 . S
Cd85 O95 2.240 . S
Cd86 O87 2.240 1_565 S
Cd86 O94 2.223 . S
Cd86 O96 2.297 . S
Cd86 O97 2.439 1_565 S
O87 Cd86 2.240 1_545 S
O87 C92 1.279 . S
O88 Cd85 2.297 . S
O88 C90 1.247 . S
O89 Cd85 2.439 . S
O89 C90 1.208 . S
C90 O88 1.247 . S
C90 O89 1.208 . S
C91 O96 1.247 . S
C91 O97 1.208 1_565 S
C92 O84 1.315 . S
C92 O87 1.279 . S
C93 O94 1.315 . S
C93 O95 1.279 1_565 S
O94 Cd86 2.223 . S
O94 C93 1.315 . S
O95 Cd85 2.240 . S
O95 C93 1.279 1_545 S
O96 Cd86 2.297 . S
O96 C91 1.247 . S
O97 Cd86 2.439 1_545 S
O97 C91 1.208 1_545 S
O98 Cd99 2.223 . S
O98 C106 1.315 . S
Cd99 O98 2.223 . S
Cd99 O102 2.297 . S
Cd99 O103 2.439 . S
Cd99 O109 2.240 . S
Cd100 O101 2.240 . S
Cd100 O108 2.223 . S
Cd100 O110 2.297 . S
Cd100 O111 2.439 . S
O101 Cd100 2.240 . S
O101 C106 1.279 . S
O102 Cd99 2.297 . S
O102 C104 1.247 . S
O103 Cd99 2.439 . S
O103 C104 1.208 . S
C104 O102 1.247 . S
C104 O103 1.208 . S
C105 O110 1.247 . S
C105 O111 1.208 . S
C106 O98 1.315 . S
C106 O101 1.279 . S
C107 O108 1.315 . S
C107 O109 1.279 . S
O108 Cd100 2.223 . S
O108 C107 1.315 . S
O109 Cd99 2.240 . S
O109 C107 1.279 . S
O110 Cd100 2.297 . S
O110 C105 1.247 . S
O111 Cd100 2.439 . S
O111 C105 1.208 . S
O112 Cd113 2.223 . S
O112 C120 1.315 . S
Cd113 O112 2.223 . S
Cd113 O116 2.297 . S
Cd113 O117 2.439 . S
Cd113 O123 2.240 . S
Cd114 O115 2.240 . S
Cd114 O122 2.223 . S
Cd114 O124 2.297 . S
Cd114 O125 2.439 . S
O115 Cd114 2.240 . S
O115 C120 1.279 . S
O116 Cd113 2.297 . S
O116 C118 1.247 . S
O117 Cd113 2.439 . S
O117 C118 1.208 . S
C118 O116 1.247 . S
C118 O117 1.208 . S
C119 O124 1.247 . S
C119 O125 1.208 . S
C120 O112 1.315 . S
C120 O115 1.279 . S
C121 O122 1.315 . S
C121 O123 1.279 . S
O122 Cd114 2.223 . S
O122 C121 1.315 . S
O123 Cd113 2.240 . S
O123 C121 1.279 . S
O124 Cd114 2.297 . S
O124 C119 1.247 . S
O125 Cd114 2.439 . S
O125 C119 1.208 . S
O126 Cd127 2.223 . S
O126 C134 1.315 . S
Cd127 O126 2.223 . S
Cd127 O130 2.297 . S
Cd127 O131 2.439 . S
Cd127 O137 2.240 . S
Cd128 O129 2.240 . S
Cd128 O136 2.223 . S
Cd128 O138 2.297 . S
Cd128 O139 2.439 . S
O129 Cd128 2.240 . S
O129 C134 1.279 . S
O130 Cd127 2.297 . S
O130 C132 1.247 . S
O131 Cd127 2.439 . S
O131 C132 1.208 . S
C132 O130 1.247 . S
C132 O131 1.208 . S
C133 O138 1.247 . S
C133 O139 1.208 . S
C134 O126 1.315 . S
C134 O129 1.279 . S
C135 O136 1.315 . S
C135 O137 1.279 . S
O136 Cd128 2.223 . S
O136 C135 1.315 . S
O137 Cd127 2.240 . S
O137 C135 1.279 . S
O138 Cd128 2.297 . S
O138 C133 1.247 . S
O139 Cd128 2.439 . S
O139 C133 1.208 . S
O140 Cd141 2.223 . S
O140 C148 1.315 . S
Cd141 O140 2.223 . S
Cd141 O144 2.297 . S
Cd141 O145 2.439 . S
Cd141 O151 2.240 . S
Cd142 O143 2.240 . S
Cd142 O150 2.223 . S
Cd142 O152 2.297 . S
Cd142 O153 2.439 . S
O143 Cd142 2.240 . S
O143 C148 1.279 . S
O144 Cd141 2.297 . S
O144 C146 1.247 . S
O145 Cd141 2.439 . S
O145 C146 1.208 . S
C146 O144 1.247 . S
C146 O145 1.208 . S
C147 O152 1.247 . S
C147 O153 1.208 . S
C148 O140 1.315 . S
C148 O143 1.279 . S
C149 O150 1.315 . S
C149 O151 1.279 . S
O150 Cd142 2.223 . S
O150 C149 1.315 . S
O151 Cd141 2.240 . S
O151 C149 1.279 . S
O152 Cd142 2.297 . S
O152 C147 1.247 . S
O153 Cd142 2.439 . S
O153 C147 1.208 . S
O154 Cd155 2.223 . S
O154 C162 1.315 . S
Cd155 O154 2.223 . S
Cd155 O158 2.297 . S
Cd155 O159 2.439 . S
Cd155 O165 2.240 . S
Cd156 O157 2.240 . S
Cd156 O164 2.223 . S
Cd156 O166 2.297 . S
Cd156 O167 2.439 . S
O157 Cd156 2.240 . S
O157 C162 1.279 . S
O158 Cd155 2.297 . S
O158 C160 1.247 . S
O159 Cd155 2.439 . S
O159 C160 1.208 . S
C160 O158 1.247 . S
C160 O159 1.208 . S
C161 O166 1.247 . S
C161 O167 1.208 . S
C162 O154 1.315 . S
C162 O157 1.279 . S
C163 O164 1.315 . S
C163 O165 1.279 . S
O164 Cd156 2.223 . S
O164 C163 1.315 . S
O165 Cd155 2.240 . S
O165 C163 1.279 . S
O166 Cd156 2.297 . S
O166 C161 1.247 . S
O167 Cd156 2.439 . S
O167 C161 1.208 . S
O168 Cd169 2.223 . S
O168 C176 1.315 . S
Cd169 O168 2.223 . S
Cd169 O172 2.297 . S
Cd169 O173 2.439 . S
Cd169 O179 2.240 . S
Cd170 O171 2.240 . S
Cd170 O178 2.223 . S
Cd170 O180 2.297 . S
Cd170 O181 2.439 . S
O171 Cd170 2.240 . S
O171 C176 1.279 . S
O172 Cd169 2.297 . S
O172 C174 1.247 . S
O173 Cd169 2.439 . S
O173 C174 1.208 . S
C174 O172 1.247 . S
C174 O173 1.208 . S
C175 O180 1.247 . S
C175 O181 1.208 . S
C176 O168 1.315 . S
C176 O171 1.279 . S
C177 O178 1.315 . S
C177 O179 1.279 . S
O178 Cd170 2.223 . S
O178 C177 1.315 . S
O179 Cd169 2.240 . S
O179 C177 1.279 . S
O180 Cd170 2.297 . S
O180 C175 1.247 . S
O181 Cd170 2.439 . S
O181 C175 1.208 . S
O182 Cd183 2.223 . S
O182 C190 1.315 . S
Cd183 O182 2.223 . S
Cd183 O186 2.297 . S
Cd183 O187 2.439 . S
Cd183 O193 2.240 . S
Cd184 O185 2.240 . S
Cd184 O192 2.223 . S
Cd184 O194 2.297 . S
Cd184 O195 2.439 . S
O185 Cd184 2.240 . S
O185 C190 1.279 . S
O186 Cd183 2.297 . S
O186 C188 1.247 . S
O187 Cd183 2.439 . S
O187 C188 1.208 . S
C188 O186 1.247 . S
C188 O187 1.208 . S
C189 O194 1.247 . S
C189 O195 1.208 . S
C190 O182 1.315 . S
C190 O185 1.279 . S
C191 O192 1.315 . S
C191 O193 1.279 . S
O192 Cd184 2.223 . S
O192 C191 1.315 . S
O193 Cd183 2.240 . S
O193 C191 1.279 . S
O194 Cd184 2.297 . S
O194 C189 1.247 . S
O195 Cd184 2.439 . S
O195 C189 1.208 . S
O196 Cd197 2.223 . S
O196 C204 1.315 . S
Cd197 O196 2.223 . S
Cd197 O200 2.297 . S
Cd197 O201 2.439 . S
Cd197 O207 2.240 . S
Cd198 O199 2.240 . S
Cd198 O206 2.223 . S
Cd198 O208 2.297 . S
Cd198 O209 2.439 . S
O199 Cd198 2.240 . S
O199 C204 1.279 . S
O200 Cd197 2.297 . S
O200 C202 1.247 . S
O201 Cd197 2.439 . S
O201 C202 1.208 . S
C202 O200 1.247 . S
C202 O201 1.208 . S
C203 O208 1.247 . S
C203 O209 1.208 . S
C204 O196 1.315 . S
C204 O199 1.279 . S
C205 O206 1.315 . S
C205 O207 1.279 . S
O206 Cd198 2.223 . S
O206 C205 1.315 . S
O207 Cd197 2.240 . S
O207 C205 1.279 . S
O208 Cd198 2.297 . S
O208 C203 1.247 . S
O209 Cd198 2.439 . S
O209 C203 1.208 . S
O210 Cd211 2.223 . S
O210 C218 1.315 . S
Cd211 O210 2.223 . S
Cd211 O214 2.297 . S
Cd211 O215 2.439 . S
Cd211 O221 2.240 . S
Cd212 O213 2.240 . S
Cd212 O220 2.223 . S
Cd212 O222 2.297 . S
Cd212 O223 2.439 . S
O213 Cd212 2.240 . S
O213 C218 1.279 . S
O214 Cd211 2.297 . S
O214 C216 1.247 . S
O215 Cd211 2.439 . S
O215 C216 1.208 . S
C216 O214 1.247 . S
C216 O215 1.208 . S
C217 O222 1.247 . S
C217 O223 1.208 . S
C218 O210 1.315 . S
C218 O213 1.279 . S
C219 O220 1.315 . S
C219 O221 1.279 . S
O220 Cd212 2.223 . S
O220 C219 1.315 . S
O221 Cd211 2.240 . S
O221 C219 1.279 . S
O222 Cd212 2.297 . S
O222 C217 1.247 . S
O223 Cd212 2.439 . S
O223 C217 1.208 . S
C224 C225 1.349 . S
C224 C226 1.327 . S
C224 H249 0.950 . S
C225 C224 1.349 . S
C225 C241 1.349 . S
C226 C224 1.327 . S
C226 C245 1.429 . S
C226 H250 0.950 . S
C227 C244 1.574 . S
C227 C246 1.368 . S
C227 H251 0.949 . S
H228 C232 0.949 . S
C229 C230 1.349 . S
C229 C231 1.327 . S
C229 H252 0.950 . S
C230 C229 1.349 . S
C230 C242 1.349 . S
C231 C229 1.327 . S
C231 C247 1.429 . S
C231 H253 0.950 . S
C232 H228 0.949 . S
C232 C240 1.574 . S
C232 C248 1.368 . S
H233 C241 0.950 . S
H234 C239 0.950 . S
H235 C240 0.949 . S
H236 C242 0.950 . S
H237 C243 0.950 . S
H238 C244 0.949 . S
C239 H234 0.950 . S
C239 C241 1.327 . S
C239 C245 1.429 . S
C240 C232 1.574 . S
C240 H235 0.949 . S
C240 C246 1.368 . S
C241 C225 1.349 . S
C241 H233 0.950 . S
C241 C239 1.327 . S
C242 C230 1.349 . S
C242 H236 0.950 . S
C242 C243 1.327 . S
C243 H237 0.950 . S
C243 C242 1.327 . S
C243 C247 1.429 . S
C244 C227 1.574 . S
C244 H238 0.949 . S
C244 C248 1.368 . S
C245 C226 1.429 . S
C245 C239 1.429 . S
C245 C246 1.523 . S
C246 C227 1.368 . S
C246 C240 1.368 . S
C246 C245 1.523 . S
C247 C231 1.429 . S
C247 C243 1.429 . S
C247 C248 1.523 . S
C248 C232 1.368 . S
C248 C244 1.368 . S
C248 C247 1.523 . S
H249 C224 0.950 . S
H250 C226 0.950 . S
H251 C227 0.949 . S
H252 C229 0.950 . S
H253 C231 0.950 . S
C254 C255 1.349 . S
C254 C256 1.327 . S
C254 H279 0.950 . S
C255 C254 1.349 . S
C255 C271 1.349 . S
C256 C254 1.327 . S
C256 C275 1.429 . S
C256 H280 0.950 . S
C257 C274 1.574 . S
C257 C276 1.368 . S
C257 H281 0.949 . S
H258 C262 0.949 . S
C259 C260 1.349 . S
C259 C261 1.327 . S
C259 H282 0.950 . S
C260 C259 1.349 . S
C260 C272 1.349 . S
C261 C259 1.327 . S
C261 C277 1.429 . S
C261 H283 0.950 . S
C262 H258 0.949 . S
C262 C270 1.574 . S
C262 C278 1.368 . S
H263 C271 0.950 . S
H264 C269 0.950 . S
H265 C270 0.949 . S
H266 C272 0.950 . S
H267 C273 0.950 . S
H268 C274 0.949 . S
C269 H264 0.950 . S
C269 C271 1.327 . S
C269 C275 1.429 . S
C270 C262 1.574 . S
C270 H265 0.949 . S
C270 C276 1.368 . S
C271 C255 1.349 . S
C271 H263 0.950 . S
C271 C269 1.327 . S
C272 C260 1.349 . S
C272 H266 0.950 . S
C272 C273 1.327 . S
C273 H267 0.950 . S
C273 C272 1.327 . S
C273 C277 1.429 . S
C274 C257 1.574 . S
C274 H268 0.949 . S
C274 C278 1.368 . S
C275 C256 1.429 . S
C275 C269 1.429 . S
C275 C276 1.523 1_655 S
C276 C257 1.368 . S
C276 C270 1.368 . S
C276 C275 1.523 1_455 S
C277 C261 1.429 . S
C277 C273 1.429 . S
C277 C278 1.523 . S
C278 C262 1.368 . S
C278 C274 1.368 . S
C278 C277 1.523 . S
H279 C254 0.950 . S
H280 C256 0.950 . S
H281 C257 0.949 . S
H282 C259 0.950 . S
H283 C261 0.950 . S
C284 C285 1.349 . S
C284 C286 1.327 . S
C284 H309 0.950 . S
C285 C284 1.349 . S
C285 C301 1.349 . S
C286 C284 1.327 . S
C286 C305 1.429 . S
C286 H310 0.950 . S
C287 C304 1.574 . S
C287 C306 1.368 . S
C287 H311 0.949 . S
H288 C292 0.949 . S
C289 C290 1.349 . S
C289 C291 1.327 . S
C289 H312 0.950 . S
C290 C289 1.349 . S
C290 C302 1.349 . S
C291 C289 1.327 . S
C291 C307 1.429 . S
C291 H313 0.950 . S
C292 H288 0.949 . S
C292 C300 1.574 . S
C292 C308 1.368 . S
H293 C301 0.950 . S
H294 C299 0.950 . S
H295 C300 0.949 . S
H296 C302 0.950 . S
H297 C303 0.950 . S
H298 C304 0.949 . S
C299 H294 0.950 . S
C299 C301 1.327 . S
C299 C305 1.429 . S
C300 C292 1.574 . S
C300 H295 0.949 . S
C300 C306 1.368 . S
C301 C285 1.349 . S
C301 H293 0.950 . S
C301 C299 1.327 . S
C302 C290 1.349 . S
C302 H296 0.950 . S
C302 C303 1.327 . S
C303 H297 0.950 . S
C303 C302 1.327 . S
C303 C307 1.429 . S
C304 C287 1.574 . S
C304 H298 0.949 . S
C304 C308 1.368 . S
C305 C286 1.429 . S
C305 C299 1.429 . S
C305 C306 1.523 . S
C306 C287 1.368 . S
C306 C300 1.368 . S
C306 C305 1.523 . S
C307 C291 1.429 . S
C307 C303 1.429 . S
C307 C308 1.523 . S
C308 C292 1.368 . S
C308 C304 1.368 . S
C308 C307 1.523 . S
H309 C284 0.950 . S
H310 C286 0.950 . S
H311 C287 0.949 . S
H312 C289 0.950 . S
H313 C291 0.950 . S
C314 C315 1.349 . S
C314 C316 1.327 . S
C314 H339 0.950 . S
C315 C314 1.349 . S
C315 C331 1.349 . S
C316 C314 1.327 . S
C316 C335 1.429 . S
C316 H340 0.950 . S
C317 C334 1.574 . S
C317 C336 1.368 . S
C317 H341 0.949 . S
H318 C322 0.949 . S
C319 C320 1.349 . S
C319 C321 1.327 . S
C319 H342 0.950 . S
C320 C319 1.349 . S
C320 C332 1.349 . S
C321 C319 1.327 . S
C321 C337 1.429 . S
C321 H343 0.950 . S
C322 H318 0.949 . S
C322 C330 1.574 . S
C322 C338 1.368 . S
H323 C331 0.950 . S
H324 C329 0.950 . S
H325 C330 0.949 . S
H326 C332 0.950 . S
H327 C333 0.950 . S
H328 C334 0.949 . S
C329 H324 0.950 . S
C329 C331 1.327 . S
C329 C335 1.429 . S
C330 C322 1.574 . S
C330 H325 0.949 . S
C330 C336 1.368 . S
C331 C315 1.349 . S
C331 H323 0.950 . S
C331 C329 1.327 . S
C332 C320 1.349 . S
C332 H326 0.950 . S
C332 C333 1.327 . S
C333 H327 0.950 . S
C333 C332 1.327 . S
C333 C337 1.429 . S
C334 C317 1.574 . S
C334 H328 0.949 . S
C334 C338 1.368 . S
C335 C316 1.429 . S
C335 C329 1.429 . S
C335 C336 1.523 . S
C336 C317 1.368 . S
C336 C330 1.368 . S
C336 C335 1.523 . S
C337 C321 1.429 . S
C337 C333 1.429 . S
C337 C338 1.523 . S
C338 C322 1.368 . S
C338 C334 1.368 . S
C338 C337 1.523 . S
H339 C314 0.950 . S
H340 C316 0.950 . S
H341 C317 0.949 . S
H342 C319 0.950 . S
H343 C321 0.950 . S
C344 C345 1.349 . S
C344 C346 1.327 . S
C344 H369 0.950 . S
C345 C344 1.349 . S
C345 C361 1.349 . S
C346 C344 1.327 . S
C346 C365 1.429 . S
C346 H370 0.950 . S
C347 C364 1.574 . S
C347 C366 1.368 . S
C347 H371 0.949 . S
H348 C352 0.949 . S
C349 C350 1.349 . S
C349 C351 1.327 . S
C349 H372 0.950 . S
C350 C349 1.349 . S
C350 C362 1.349 . S
C351 C349 1.327 . S
C351 C367 1.429 . S
C351 H373 0.950 . S
C352 H348 0.949 . S
C352 C360 1.574 . S
C352 C368 1.368 . S
H353 C361 0.950 . S
H354 C359 0.950 . S
H355 C360 0.949 . S
H356 C362 0.950 . S
H357 C363 0.950 . S
H358 C364 0.949 . S
C359 H354 0.950 . S
C359 C361 1.327 . S
C359 C365 1.429 . S
C360 C352 1.574 . S
C360 H355 0.949 . S
C360 C366 1.368 . S
C361 C345 1.349 . S
C361 H353 0.950 . S
C361 C359 1.327 . S
C362 C350 1.349 . S
C362 H356 0.950 . S
C362 C363 1.327 . S
C363 H357 0.950 . S
C363 C362 1.327 . S
C363 C367 1.429 . S
C364 C347 1.574 . S
C364 H358 0.949 . S
C364 C368 1.368 . S
C365 C346 1.429 . S
C365 C359 1.429 . S
C365 C366 1.523 . S
C366 C347 1.368 . S
C366 C360 1.368 . S
C366 C365 1.523 . S
C367 C351 1.429 . S
C367 C363 1.429 . S
C367 C368 1.523 . S
C368 C352 1.368 . S
C368 C364 1.368 . S
C368 C367 1.523 . S
H369 C344 0.950 . S
H370 C346 0.950 . S
H371 C347 0.949 . S
H372 C349 0.950 . S
H373 C351 0.950 . S
C374 C375 1.349 . S
C374 C376 1.327 . S
C374 H399 0.950 . S
C375 C374 1.349 . S
C375 C391 1.349 . S
C376 C374 1.327 . S
C376 C395 1.429 . S
C376 H400 0.950 . S
C377 C394 1.574 . S
C377 C396 1.368 . S
C377 H401 0.949 . S
H378 C382 0.949 . S
C379 C380 1.349 . S
C379 C381 1.327 . S
C379 H402 0.950 . S
C380 C379 1.349 . S
C380 C392 1.349 . S
C381 C379 1.327 . S
C381 C397 1.429 . S
C381 H403 0.950 . S
C382 H378 0.949 . S
C382 C390 1.574 . S
C382 C398 1.368 . S
H383 C391 0.950 . S
H384 C389 0.950 . S
H385 C390 0.949 . S
H386 C392 0.950 . S
H387 C393 0.950 . S
H388 C394 0.949 . S
C389 H384 0.950 . S
C389 C391 1.327 . S
C389 C395 1.429 . S
C390 C382 1.574 . S
C390 H385 0.949 . S
C390 C396 1.368 . S
C391 C375 1.349 . S
C391 H383 0.950 . S
C391 C389 1.327 . S
C392 C380 1.349 . S
C392 H386 0.950 . S
C392 C393 1.327 . S
C393 H387 0.950 . S
C393 C392 1.327 . S
C393 C397 1.429 . S
C394 C377 1.574 . S
C394 H388 0.949 . S
C394 C398 1.368 . S
C395 C376 1.429 . S
C395 C389 1.429 . S
C395 C396 1.523 . S
C396 C377 1.368 . S
C396 C390 1.368 . S
C396 C395 1.523 . S
C397 C381 1.429 . S
C397 C393 1.429 . S
C397 C398 1.523 . S
C398 C382 1.368 . S
C398 C394 1.368 . S
C398 C397 1.523 . S
H399 C374 0.950 . S
H400 C376 0.950 . S
H401 C377 0.949 . S
H402 C379 0.950 . S
H403 C381 0.950 . S
C404 C405 1.349 . S
C404 C406 1.327 . S
C404 H429 0.950 . S
C405 C404 1.349 . S
C405 C421 1.349 . S
C406 C404 1.327 . S
C406 C425 1.429 . S
C406 H430 0.950 . S
C407 C424 1.574 . S
C407 C426 1.368 . S
C407 H431 0.949 . S
H408 C412 0.949 . S
C409 C410 1.349 . S
C409 C411 1.327 . S
C409 H432 0.950 . S
C410 C409 1.349 . S
C410 C422 1.349 . S
C411 C409 1.327 . S
C411 C427 1.429 . S
C411 H433 0.950 . S
C412 H408 0.949 . S
C412 C420 1.574 . S
C412 C428 1.368 . S
H413 C421 0.950 . S
H414 C419 0.950 . S
H415 C420 0.949 . S
H416 C422 0.950 . S
H417 C423 0.950 . S
H418 C424 0.949 . S
C419 H414 0.950 . S
C419 C421 1.327 . S
C419 C425 1.429 . S
C420 C412 1.574 . S
C420 H415 0.949 . S
C420 C426 1.368 . S
C421 C405 1.349 . S
C421 H413 0.950 . S
C421 C419 1.327 . S
C422 C410 1.349 . S
C422 H416 0.950 . S
C422 C423 1.327 . S
C423 H417 0.950 . S
C423 C422 1.327 . S
C423 C427 1.429 . S
C424 C407 1.574 . S
C424 H418 0.949 . S
C424 C428 1.368 . S
C425 C406 1.429 . S
C425 C419 1.429 . S
C425 C426 1.523 . S
C426 C407 1.368 . S
C426 C420 1.368 . S
C426 C425 1.523 . S
C427 C411 1.429 . S
C427 C423 1.429 . S
C427 C428 1.523 . S
C428 C412 1.368 . S
C428 C424 1.368 . S
C428 C427 1.523 . S
H429 C404 0.950 . S
H430 C406 0.950 . S
H431 C407 0.949 . S
H432 C409 0.950 . S
H433 C411 0.950 . S
C434 C435 1.349 . S
C434 C436 1.327 . S
C434 H459 0.950 . S
C435 C434 1.349 . S
C435 C451 1.349 . S
C436 C434 1.327 . S
C436 C455 1.429 . S
C436 H460 0.950 . S
C437 C454 1.574 . S
C437 C456 1.368 . S
C437 H461 0.949 . S
H438 C442 0.949 . S
C439 C440 1.349 . S
C439 C441 1.327 . S
C439 H462 0.950 . S
C440 C439 1.349 . S
C440 C452 1.349 . S
C441 C439 1.327 . S
C441 C457 1.429 . S
C441 H463 0.950 . S
C442 H438 0.949 . S
C442 C450 1.574 . S
C442 C458 1.368 . S
H443 C451 0.950 . S
H444 C449 0.950 . S
H445 C450 0.949 . S
H446 C452 0.950 . S
H447 C453 0.950 . S
H448 C454 0.949 . S
C449 H444 0.950 . S
C449 C451 1.327 . S
C449 C455 1.429 . S
C450 C442 1.574 . S
C450 H445 0.949 . S
C450 C456 1.368 . S
C451 C435 1.349 . S
C451 H443 0.950 . S
C451 C449 1.327 . S
C452 C440 1.349 . S
C452 H446 0.950 . S
C452 C453 1.327 . S
C453 H447 0.950 . S
C453 C452 1.327 . S
C453 C457 1.429 . S
C454 C437 1.574 . S
C454 H448 0.949 . S
C454 C458 1.368 . S
C455 C436 1.429 . S
C455 C449 1.429 . S
C455 C456 1.523 . S
C456 C437 1.368 . S
C456 C450 1.368 . S
C456 C455 1.523 . S
C457 C441 1.429 . S
C457 C453 1.429 . S
C457 C458 1.523 1_655 S
C458 C442 1.368 . S
C458 C454 1.368 . S
C458 C457 1.523 1_455 S
H459 C434 0.950 . S
H460 C436 0.950 . S
H461 C437 0.949 . S
H462 C439 0.950 . S
H463 C441 0.950 . S
C464 C465 1.349 . S
C464 C466 1.327 . S
C464 H489 0.950 . S
C465 C464 1.349 . S
C465 C481 1.349 1_465 S
C466 C464 1.327 . S
C466 C485 1.429 . S
C466 H490 0.950 . S
C467 C484 1.574 . S
C467 C486 1.368 1_645 S
C467 H491 0.949 . S
H468 C472 0.949 . S
C469 C470 1.349 1_655 S
C469 C471 1.327 . S
C469 H492 0.950 . S
C470 C469 1.349 1_455 S
C470 C482 1.349 1_545 S
C471 C469 1.327 . S
C471 C487 1.429 1_655 S
C471 H493 0.950 . S
C472 H468 0.949 . S
C472 C480 1.574 . S
C472 C488 1.368 1_565 S
H473 C481 0.950 . S
H474 C479 0.950 . S
H475 C480 0.949 . S
H476 C482 0.950 . S
H477 C483 0.950 . S
H478 C484 0.949 . S
C479 H474 0.950 . S
C479 C481 1.327 . S
C479 C485 1.429 1_645 S
C480 C472 1.574 . S
C480 H475 0.949 . S
C480 C486 1.368 . S
C481 C465 1.349 1_645 S
C481 H473 0.950 . S
C481 C479 1.327 . S
C482 C470 1.349 1_565 S
C482 H476 0.950 . S
C482 C483 1.327 . S
C483 H477 0.950 . S
C483 C482 1.327 . S
C483 C487 1.429 1_565 S
C484 C467 1.574 . S
C484 H478 0.949 . S
C484 C488 1.368 1_655 S
C485 C466 1.429 . S
C485 C479 1.429 1_465 S
C485 C486 1.523 . S
C486 C467 1.368 1_465 S
C486 C480 1.368 . S
C486 C485 1.523 . S
C487 C471 1.429 1_455 S
C487 C483 1.429 1_545 S
C487 C488 1.523 . S
C488 C472 1.368 1_545 S
C488 C484 1.368 1_455 S
C488 C487 1.523 . S
H489 C464 0.950 . S
H490 C466 0.950 . S
H491 C467 0.949 . S
H492 C469 0.950 . S
H493 C471 0.950 . S
C494 C495 1.349 . S
C494 C496 1.327 . S
C494 H519 0.950 . S
C495 C494 1.349 . S
C495 C511 1.349 . S
C496 C494 1.327 . S
C496 C515 1.429 . S
C496 H520 0.950 . S
C497 C514 1.574 . S
C497 C516 1.368 . S
C497 H521 0.949 . S
H498 C502 0.949 . S
C499 C500 1.349 . S
C499 C501 1.327 . S
C499 H522 0.950 . S
C500 C499 1.349 . S
C500 C512 1.349 . S
C501 C499 1.327 . S
C501 C517 1.429 . S
C501 H523 0.950 . S
C502 H498 0.949 . S
C502 C510 1.574 . S
C502 C518 1.368 . S
H503 C511 0.950 . S
H504 C509 0.950 . S
H505 C510 0.949 . S
H506 C512 0.950 . S
H507 C513 0.950 . S
H508 C514 0.949 . S
C509 H504 0.950 . S
C509 C511 1.327 . S
C509 C515 1.429 . S
C510 C502 1.574 . S
C510 H505 0.949 . S
C510 C516 1.368 . S
C511 C495 1.349 . S
C511 H503 0.950 . S
C511 C509 1.327 . S
C512 C500 1.349 . S
C512 H506 0.950 . S
C512 C513 1.327 . S
C513 H507 0.950 . S
C513 C512 1.327 . S
C513 C517 1.429 . S
C514 C497 1.574 . S
C514 H508 0.949 . S
C514 C518 1.368 . S
C515 C496 1.429 . S
C515 C509 1.429 . S
C515 C516 1.523 . S
C516 C497 1.368 . S
C516 C510 1.368 . S
C516 C515 1.523 . S
C517 C501 1.429 . S
C517 C513 1.429 . S
C517 C518 1.523 . S
C518 C502 1.368 . S
C518 C514 1.368 . S
C518 C517 1.523 . S
H519 C494 0.950 . S
H520 C496 0.950 . S
H521 C497 0.949 . S
H522 C499 0.950 . S
H523 C501 0.950 . S
C524 C525 1.349 . S
C524 C526 1.327 . S
C524 H549 0.950 . S
C525 C524 1.349 . S
C525 C541 1.349 1_565 S
C526 C524 1.327 . S
C526 C545 1.429 . S
C526 H550 0.950 . S
C527 C544 1.574 1_554 S
C527 C546 1.368 1_545 S
C527 H551 0.949 . S
H528 C532 0.949 . S
C529 C530 1.349 . S
C529 C531 1.327 . S
C529 H552 0.950 . S
C530 C529 1.349 . S
C530 C542 1.349 1_545 S
C531 C529 1.327 . S
C531 C547 1.429 . S
C531 H553 0.950 . S
C532 H528 0.949 . S
C532 C540 1.574 1_556 S
C532 C548 1.368 1_565 S
H533 C541 0.950 . S
H534 C539 0.950 . S
H535 C540 0.949 . S
H536 C542 0.950 . S
H537 C543 0.950 . S
H538 C544 0.949 . S
C539 H534 0.950 . S
C539 C541 1.327 . S
C539 C545 1.429 1_545 S
C540 C532 1.574 1_554 S
C540 H535 0.949 . S
C540 C546 1.368 . S
C541 C525 1.349 1_545 S
C541 H533 0.950 . S
C541 C539 1.327 . S
C542 C530 1.349 1_565 S
C542 H536 0.950 . S
C542 C543 1.327 . S
C543 H537 0.950 . S
C543 C542 1.327 . S
C543 C547 1.429 1_565 S
C544 C527 1.574 1_556 S
C544 H538 0.949 . S
C544 C548 1.368 . S
C545 C526 1.429 . S
C545 C539 1.429 1_565 S
C545 C546 1.523 . S
C546 C527 1.368 1_565 S
C546 C540 1.368 . S
C546 C545 1.523 . S
C547 C531 1.429 . S
C547 C543 1.429 1_545 S
C547 C548 1.523 . S
C548 C532 1.368 1_545 S
C548 C544 1.368 . S
C548 C547 1.523 . S
H549 C524 0.950 . S
H550 C526 0.950 . S
H551 C527 0.949 . S
H552 C529 0.950 . S
H553 C531 0.950 . S
C554 C555 1.349 . S
C554 C556 1.327 . S
C554 H579 0.950 . S
C555 C554 1.349 . S
C555 C571 1.349 . S
C556 C554 1.327 . S
C556 C575 1.429 . S
C556 H580 0.950 . S
C557 C574 1.574 . S
C557 C576 1.368 . S
C557 H581 0.949 . S
H558 C562 0.949 . S
C559 C560 1.349 . S
C559 C561 1.327 . S
C559 H582 0.950 . S
C560 C559 1.349 . S
C560 C572 1.349 . S
C561 C559 1.327 . S
C561 C577 1.429 . S
C561 H583 0.950 . S
C562 H558 0.949 . S
C562 C570 1.574 . S
C562 C578 1.368 . S
H563 C571 0.950 . S
H564 C569 0.950 . S
H565 C570 0.949 . S
H566 C572 0.950 . S
H567 C573 0.950 . S
H568 C574 0.949 . S
C569 H564 0.950 . S
C569 C571 1.327 . S
C569 C575 1.429 . S
C570 C562 1.574 . S
C570 H565 0.949 . S
C570 C576 1.368 . S
C571 C555 1.349 . S
C571 H563 0.950 . S
C571 C569 1.327 . S
C572 C560 1.349 . S
C572 H566 0.950 . S
C572 C573 1.327 . S
C573 H567 0.950 . S
C573 C572 1.327 . S
C573 C577 1.429 . S
C574 C557 1.574 . S
C574 H568 0.949 . S
C574 C578 1.368 . S
C575 C556 1.429 . S
C575 C569 1.429 . S
C575 C576 1.523 . S
C576 C557 1.368 . S
C576 C570 1.368 . S
C576 C575 1.523 . S
C577 C561 1.429 . S
C577 C573 1.429 . S
C577 C578 1.523 . S
C578 C562 1.368 . S
C578 C574 1.368 . S
C578 C577 1.523 . S
H579 C554 0.950 . S
H580 C556 0.950 . S
H581 C557 0.949 . S
H582 C559 0.950 . S
H583 C561 0.950 . S
C584 C585 1.349 . S
C584 C586 1.327 . S
C584 H609 0.950 . S
C585 C584 1.349 . S
C585 C601 1.349 . S
C586 C584 1.327 . S
C586 C605 1.429 . S
C586 H610 0.950 . S
C587 C604 1.574 . S
C587 C606 1.368 . S
C587 H611 0.949 . S
H588 C592 0.949 . S
C589 C590 1.349 . S
C589 C591 1.327 . S
C589 H612 0.950 . S
C590 C589 1.349 . S
C590 C602 1.349 . S
C591 C589 1.327 . S
C591 C607 1.429 . S
C591 H613 0.950 . S
C592 H588 0.949 . S
C592 C600 1.574 . S
C592 C608 1.368 . S
H593 C601 0.950 . S
H594 C599 0.950 . S
H595 C600 0.949 . S
H596 C602 0.950 . S
H597 C603 0.950 . S
H598 C604 0.949 . S
C599 H594 0.950 . S
C599 C601 1.327 . S
C599 C605 1.429 . S
C600 C592 1.574 . S
C600 H595 0.949 . S
C600 C606 1.368 . S
C601 C585 1.349 . S
C601 H593 0.950 . S
C601 C599 1.327 . S
C602 C590 1.349 . S
C602 H596 0.950 . S
C602 C603 1.327 . S
C603 H597 0.950 . S
C603 C602 1.327 . S
C603 C607 1.429 . S
C604 C587 1.574 . S
C604 H598 0.949 . S
C604 C608 1.368 . S
C605 C586 1.429 . S
C605 C599 1.429 . S
C605 C606 1.523 . S
C606 C587 1.368 . S
C606 C600 1.368 . S
C606 C605 1.523 . S
C607 C591 1.429 . S
C607 C603 1.429 . S
C607 C608 1.523 . S
C608 C592 1.368 . S
C608 C604 1.368 . S
C608 C607 1.523 . S
H609 C584 0.950 . S
H610 C586 0.950 . S
H611 C587 0.949 . S
H612 C589 0.950 . S
H613 C591 0.950 . S
C614 C615 1.349 . S
C614 C616 1.327 . S
C614 H639 0.950 . S
C615 C614 1.349 . S
C615 C631 1.349 . S
C616 C614 1.327 . S
C616 C635 1.429 . S
C616 H640 0.950 . S
C617 C634 1.574 . S
C617 C636 1.368 . S
C617 H641 0.949 . S
H618 C622 0.949 . S
C619 C620 1.349 . S
C619 C621 1.327 . S
C619 H642 0.950 . S
C620 C619 1.349 . S
C620 C632 1.349 . S
C621 C619 1.327 . S
C621 C637 1.429 . S
C621 H643 0.950 . S
C622 H618 0.949 . S
C622 C630 1.574 . S
C622 C638 1.368 . S
H623 C631 0.950 . S
H624 C629 0.950 . S
H625 C630 0.949 . S
H626 C632 0.950 . S
H627 C633 0.950 . S
H628 C634 0.949 . S
C629 H624 0.950 . S
C629 C631 1.327 . S
C629 C635 1.429 . S
C630 C622 1.574 . S
C630 H625 0.949 . S
C630 C636 1.368 . S
C631 C615 1.349 . S
C631 H623 0.950 . S
C631 C629 1.327 . S
C632 C620 1.349 . S
C632 H626 0.950 . S
C632 C633 1.327 . S
C633 H627 0.950 . S
C633 C632 1.327 . S
C633 C637 1.429 . S
C634 C617 1.574 . S
C634 H628 0.949 . S
C634 C638 1.368 . S
C635 C616 1.429 . S
C635 C629 1.429 . S
C635 C636 1.523 . S
C636 C617 1.368 . S
C636 C630 1.368 . S
C636 C635 1.523 . S
C637 C621 1.429 . S
C637 C633 1.429 . S
C637 C638 1.523 . S
C638 C622 1.368 . S
C638 C634 1.368 . S
C638 C637 1.523 . S
H639 C614 0.950 . S
H640 C616 0.950 . S
H641 C617 0.949 . S
H642 C619 0.950 . S
H643 C621 0.950 . S
C644 C645 1.349 . S
C644 C646 1.327 . S
C644 H669 0.950 . S
C645 C644 1.349 . S
C645 C661 1.349 . S
C646 C644 1.327 . S
C646 C665 1.429 . S
C646 H670 0.950 . S
C647 C664 1.574 1_556 S
C647 C666 1.368 . S
C647 H671 0.949 . S
H648 C652 0.949 . S
C649 C650 1.349 . S
C649 C651 1.327 . S
C649 H672 0.950 . S
C650 C649 1.349 . S
C650 C662 1.349 . S
C651 C649 1.327 . S
C651 C667 1.429 . S
C651 H673 0.950 . S
C652 H648 0.949 . S
C652 C660 1.574 1_554 S
C652 C668 1.368 . S
H653 C661 0.950 . S
H654 C659 0.950 . S
H655 C660 0.949 . S
H656 C662 0.950 . S
H657 C663 0.950 . S
H658 C664 0.949 . S
C659 H654 0.950 . S
C659 C661 1.327 . S
C659 C665 1.429 . S
C660 C652 1.574 1_556 S
C660 H655 0.949 . S
C660 C666 1.368 . S
C661 C645 1.349 . S
C661 H653 0.950 . S
C661 C659 1.327 . S
C662 C650 1.349 . S
C662 H656 0.950 . S
C662 C663 1.327 . S
C663 H657 0.950 . S
C663 C662 1.327 . S
C663 C667 1.429 . S
C664 C647 1.574 1_554 S
C664 H658 0.949 . S
C664 C668 1.368 . S
C665 C646 1.429 . S
C665 C659 1.429 . S
C665 C666 1.523 . S
C666 C647 1.368 . S
C666 C660 1.368 . S
C666 C665 1.523 . S
C667 C651 1.429 . S
C667 C663 1.429 . S
C667 C668 1.523 . S
C668 C652 1.368 . S
C668 C664 1.368 . S
C668 C667 1.523 . S
H669 C644 0.950 . S
H670 C646 0.950 . S
H671 C647 0.949 . S
H672 C649 0.950 . S
H673 C651 0.950 . S
C674 C675 1.349 . S
C674 C676 1.327 . S
C674 H699 0.950 . S
C675 C674 1.349 . S
C675 C691 1.349 . S
C676 C674 1.327 . S
C676 C695 1.429 . S
C676 H700 0.950 . S
C677 C694 1.574 . S
C677 C696 1.368 . S
C677 H701 0.949 . S
H678 C682 0.949 . S
C679 C680 1.349 . S
C679 C681 1.327 . S
C679 H702 0.950 . S
C680 C679 1.349 . S
C680 C692 1.349 . S
C681 C679 1.327 . S
C681 C697 1.429 . S
C681 H703 0.950 . S
C682 H678 0.949 . S
C682 C690 1.574 . S
C682 C698 1.368 . S
H683 C691 0.950 . S
H684 C689 0.950 . S
H685 C690 0.949 . S
H686 C692 0.950 . S
H687 C693 0.950 . S
H688 C694 0.949 . S
C689 H684 0.950 . S
C689 C691 1.327 . S
C689 C695 1.429 . S
C690 C682 1.574 . S
C690 H685 0.949 . S
C690 C696 1.368 . S
C691 C675 1.349 . S
C691 H683 0.950 . S
C691 C689 1.327 . S
C692 C680 1.349 . S
C692 H686 0.950 . S
C692 C693 1.327 . S
C693 H687 0.950 . S
C693 C692 1.327 . S
C693 C697 1.429 . S
C694 C677 1.574 . S
C694 H688 0.949 . S
C694 C698 1.368 . S
C695 C676 1.429 . S
C695 C689 1.429 . S
C695 C696 1.523 . S
C696 C677 1.368 . S
C696 C690 1.368 . S
C696 C695 1.523 . S
C697 C681 1.429 . S
C697 C693 1.429 . S
C697 C698 1.523 . S
C698 C682 1.368 . S
C698 C694 1.368 . S
C698 C697 1.523 . S
H699 C674 0.950 . S
H700 C676 0.950 . S
H701 C677 0.949 . S
H702 C679 0.950 . S
H703 C681 0.950 . S
C704 C705 1.349 . S
C704 C706 1.327 . S
C704 H729 0.950 . S
C705 C704 1.349 . S
C705 C721 1.349 . S
C706 C704 1.327 . S
C706 C725 1.429 . S
C706 H730 0.950 . S
C707 C724 1.574 . S
C707 C726 1.368 . S
C707 H731 0.949 . S
H708 C712 0.949 . S
C709 C710 1.349 . S
C709 C711 1.327 . S
C709 H732 0.950 . S
C710 C709 1.349 . S
C710 C722 1.349 . S
C711 C709 1.327 . S
C711 C727 1.429 . S
C711 H733 0.950 . S
C712 H708 0.949 . S
C712 C720 1.574 . S
C712 C728 1.368 . S
H713 C721 0.950 . S
H714 C719 0.950 . S
H715 C720 0.949 . S
H716 C722 0.950 . S
H717 C723 0.950 . S
H718 C724 0.949 . S
C719 H714 0.950 . S
C719 C721 1.327 . S
C719 C725 1.429 . S
C720 C712 1.574 . S
C720 H715 0.949 . S
C720 C726 1.368 . S
C721 C705 1.349 . S
C721 H713 0.950 . S
C721 C719 1.327 . S
C722 C710 1.349 . S
C722 H716 0.950 . S
C722 C723 1.327 . S
C723 H717 0.950 . S
C723 C722 1.327 . S
C723 C727 1.429 . S
C724 C707 1.574 . S
C724 H718 0.949 . S
C724 C728 1.368 . S
C725 C706 1.429 . S
C725 C719 1.429 . S
C725 C726 1.523 . S
C726 C707 1.368 . S
C726 C720 1.368 . S
C726 C725 1.523 . S
C727 C711 1.429 . S
C727 C723 1.429 . S
C727 C728 1.523 . S
C728 C712 1.368 . S
C728 C724 1.368 . S
C728 C727 1.523 . S
H729 C704 0.950 . S
H730 C706 0.950 . S
H731 C707 0.949 . S
H732 C709 0.950 . S
H733 C711 0.950 . S
C734 C735 1.349 . S
C734 C736 1.327 . S
C734 H759 0.950 . S
C735 C734 1.349 . S
C735 C751 1.349 . S
C736 C734 1.327 . S
C736 C755 1.429 . S
C736 H760 0.950 . S
C737 C754 1.574 . S
C737 C756 1.368 . S
C737 H761 0.949 . S
H738 C742 0.949 . S
C739 C740 1.349 . S
C739 C741 1.327 . S
C739 H762 0.950 . S
C740 C739 1.349 . S
C740 C752 1.349 . S
C741 C739 1.327 . S
C741 C757 1.429 . S
C741 H763 0.950 . S
C742 H738 0.949 . S
C742 C750 1.574 . S
C742 C758 1.368 . S
H743 C751 0.950 . S
H744 C749 0.950 . S
H745 C750 0.949 . S
H746 C752 0.950 . S
H747 C753 0.950 . S
H748 C754 0.949 . S
C749 H744 0.950 . S
C749 C751 1.327 . S
C749 C755 1.429 . S
C750 C742 1.574 . S
C750 H745 0.949 . S
C750 C756 1.368 . S
C751 C735 1.349 . S
C751 H743 0.950 . S
C751 C749 1.327 . S
C752 C740 1.349 . S
C752 H746 0.950 . S
C752 C753 1.327 . S
C753 H747 0.950 . S
C753 C752 1.327 . S
C753 C757 1.429 . S
C754 C737 1.574 . S
C754 H748 0.949 . S
C754 C758 1.368 . S
C755 C736 1.429 . S
C755 C749 1.429 . S
C755 C756 1.523 . S
C756 C737 1.368 . S
C756 C750 1.368 . S
C756 C755 1.523 . S
C757 C741 1.429 . S
C757 C753 1.429 . S
C757 C758 1.523 . S
C758 C742 1.368 . S
C758 C754 1.368 . S
C758 C757 1.523 . S
H759 C734 0.950 . S
H760 C736 0.950 . S
H761 C737 0.949 . S
H762 C739 0.950 . S
H763 C741 0.950 . S
C764 C765 1.349 . S
C764 C766 1.327 . S
C764 H789 0.950 . S
C765 C764 1.349 . S
C765 C781 1.349 . S
C766 C764 1.327 . S
C766 C785 1.429 . S
C766 H790 0.950 . S
C767 C784 1.574 . S
C767 C786 1.368 . S
C767 H791 0.949 . S
H768 C772 0.949 . S
C769 C770 1.349 . S
C769 C771 1.327 . S
C769 H792 0.950 . S
C770 C769 1.349 . S
C770 C782 1.349 . S
C771 C769 1.327 . S
C771 C787 1.429 . S
C771 H793 0.950 . S
C772 H768 0.949 . S
C772 C780 1.574 . S
C772 C788 1.368 . S
H773 C781 0.950 . S
H774 C779 0.950 . S
H775 C780 0.949 . S
H776 C782 0.950 . S
H777 C783 0.950 . S
H778 C784 0.949 . S
C779 H774 0.950 . S
C779 C781 1.327 . S
C779 C785 1.429 . S
C780 C772 1.574 . S
C780 H775 0.949 . S
C780 C786 1.368 . S
C781 C765 1.349 . S
C781 H773 0.950 . S
C781 C779 1.327 . S
C782 C770 1.349 . S
C782 H776 0.950 . S
C782 C783 1.327 . S
C783 H777 0.950 . S
C783 C782 1.327 . S
C783 C787 1.429 . S
C784 C767 1.574 . S
C784 H778 0.949 . S
C784 C788 1.368 . S
C785 C766 1.429 . S
C785 C779 1.429 . S
C785 C786 1.523 . S
C786 C767 1.368 . S
C786 C780 1.368 . S
C786 C785 1.523 . S
C787 C771 1.429 . S
C787 C783 1.429 . S
C787 C788 1.523 . S
C788 C772 1.368 . S
C788 C784 1.368 . S
C788 C787 1.523 . S
H789 C764 0.950 . S
H790 C766 0.950 . S
H791 C767 0.949 . S
H792 C769 0.950 . S
H793 C771 0.950 . S
C794 C795 1.349 . S
C794 C796 1.327 . S
C794 H819 0.950 . S
C795 C794 1.349 . S
C795 C811 1.349 . S
C796 C794 1.327 . S
C796 C815 1.429 . S
C796 H820 0.950 . S
C797 C814 1.574 . S
C797 C816 1.368 . S
C797 H821 0.949 . S
H798 C802 0.949 . S
C799 C800 1.349 . S
C799 C801 1.327 . S
C799 H822 0.950 . S
C800 C799 1.349 . S
C800 C812 1.349 . S
C801 C799 1.327 . S
C801 C817 1.429 . S
C801 H823 0.950 . S
C802 H798 0.949 . S
C802 C810 1.574 . S
C802 C818 1.368 . S
H803 C811 0.950 . S
H804 C809 0.950 . S
H805 C810 0.949 . S
H806 C812 0.950 . S
H807 C813 0.950 . S
H808 C814 0.949 . S
C809 H804 0.950 . S
C809 C811 1.327 . S
C809 C815 1.429 . S
C810 C802 1.574 . S
C810 H805 0.949 . S
C810 C816 1.368 . S
C811 C795 1.349 . S
C811 H803 0.950 . S
C811 C809 1.327 . S
C812 C800 1.349 . S
C812 H806 0.950 . S
C812 C813 1.327 . S
C813 H807 0.950 . S
C813 C812 1.327 . S
C813 C817 1.429 . S
C814 C797 1.574 . S
C814 H808 0.949 . S
C814 C818 1.368 . S
C815 C796 1.429 . S
C815 C809 1.429 . S
C815 C816 1.523 . S
C816 C797 1.368 . S
C816 C810 1.368 . S
C816 C815 1.523 . S
C817 C801 1.429 . S
C817 C813 1.429 . S
C817 C818 1.523 . S
C818 C802 1.368 . S
C818 C814 1.368 . S
C818 C817 1.523 . S
H819 C794 0.950 . S
H820 C796 0.950 . S
H821 C797 0.949 . S
H822 C799 0.950 . S
H823 C801 0.950 . S
C824 C825 1.349 . S
C824 C826 1.327 . S
C824 H849 0.950 . S
C825 C824 1.349 . S
C825 C841 1.349 . S
C826 C824 1.327 . S
C826 C845 1.429 . S
C826 H850 0.950 . S
C827 C844 1.574 . S
C827 C846 1.368 . S
C827 H851 0.949 . S
H828 C832 0.949 . S
C829 C830 1.349 . S
C829 C831 1.327 . S
C829 H852 0.950 . S
C830 C829 1.349 . S
C830 C842 1.349 . S
C831 C829 1.327 . S
C831 C847 1.429 . S
C831 H853 0.950 . S
C832 H828 0.949 . S
C832 C840 1.574 . S
C832 C848 1.368 . S
H833 C841 0.950 1_455 S
H834 C839 0.950 . S
H835 C840 0.949 . S
H836 C842 0.950 . S
H837 C843 0.950 . S
H838 C844 0.949 . S
C839 H834 0.950 . S
C839 C841 1.327 . S
C839 C845 1.429 . S
C840 C832 1.574 . S
C840 H835 0.949 . S
C840 C846 1.368 . S
C841 C825 1.349 . S
C841 H833 0.950 1_655 S
C841 C839 1.327 . S
C842 C830 1.349 . S
C842 H836 0.950 . S
C842 C843 1.327 . S
C843 H837 0.950 . S
C843 C842 1.327 . S
C843 C847 1.429 . S
C844 C827 1.574 . S
C844 H838 0.949 . S
C844 C848 1.368 . S
C845 C826 1.429 . S
C845 C839 1.429 . S
C845 C846 1.523 . S
C846 C827 1.368 . S
C846 C840 1.368 . S
C846 C845 1.523 . S
C847 C831 1.429 . S
C847 C843 1.429 . S
C847 C848 1.523 . S
C848 C832 1.368 . S
C848 C844 1.368 . S
C848 C847 1.523 . S
H849 C824 0.950 . S
H850 C826 0.950 . S
H851 C827 0.949 . S
H852 C829 0.950 . S
H853 C831 0.950 . S
C854 C855 1.349 . S
C854 C856 1.327 . S
C854 H879 0.950 . S
C855 C854 1.349 . S
C855 C871 1.349 . S
C856 C854 1.327 . S
C856 C875 1.429 . S
C856 H880 0.950 . S
C857 C874 1.574 . S
C857 C876 1.368 . S
C857 H881 0.949 . S
H858 C862 0.949 . S
C859 C860 1.349 . S
C859 C861 1.327 . S
C859 H882 0.950 . S
C860 C859 1.349 . S
C860 C872 1.349 . S
C861 C859 1.327 . S
C861 C877 1.429 . S
C861 H883 0.950 . S
C862 H858 0.949 . S
C862 C870 1.574 . S
C862 C878 1.368 . S
H863 C871 0.950 . S
H864 C869 0.950 . S
H865 C870 0.949 . S
H866 C872 0.950 . S
H867 C873 0.950 . S
H868 C874 0.949 . S
C869 H864 0.950 . S
C869 C871 1.327 . S
C869 C875 1.429 . S
C870 C862 1.574 . S
C870 H865 0.949 . S
C870 C876 1.368 . S
C871 C855 1.349 . S
C871 H863 0.950 . S
C871 C869 1.327 . S
C872 C860 1.349 . S
C872 H866 0.950 . S
C872 C873 1.327 . S
C873 H867 0.950 . S
C873 C872 1.327 . S
C873 C877 1.429 . S
C874 C857 1.574 . S
C874 H868 0.949 . S
C874 C878 1.368 . S
C875 C856 1.429 . S
C875 C869 1.429 . S
C875 C876 1.523 . S
C876 C857 1.368 . S
C876 C870 1.368 . S
C876 C875 1.523 . S
C877 C861 1.429 . S
C877 C873 1.429 . S
C877 C878 1.523 . S
C878 C862 1.368 . S
C878 C874 1.368 . S
C878 C877 1.523 . S
H879 C854 0.950 . S
H880 C856 0.950 . S
H881 C857 0.949 . S
H882 C859 0.950 . S
H883 C861 0.950 . S
C884 C885 1.349 . S
C884 C886 1.327 . S
C884 H909 0.950 . S
C885 C884 1.349 . S
C885 C901 1.349 . S
C886 C884 1.327 . S
C886 C905 1.429 . S
C886 H910 0.950 . S
C887 C904 1.574 . S
C887 C906 1.368 . S
C887 H911 0.949 . S
H888 C892 0.949 . S
C889 C890 1.349 . S
C889 C891 1.327 . S
C889 H912 0.950 . S
C890 C889 1.349 . S
C890 C902 1.349 . S
C891 C889 1.327 . S
C891 C907 1.429 . S
C891 H913 0.950 . S
C892 H888 0.949 . S
C892 C900 1.574 . S
C892 C908 1.368 . S
H893 C901 0.950 . S
H894 C899 0.950 . S
H895 C900 0.949 . S
H896 C902 0.955 . S
H897 C903 0.950 . S
H898 C904 0.949 . S
C899 H894 0.950 . S
C899 C901 1.327 . S
C899 C905 1.429 . S
C900 C892 1.574 . S
C900 H895 0.949 . S
C900 C906 1.368 . S
C901 C885 1.349 . S
C901 H893 0.950 . S
C901 C899 1.327 . S
C902 C890 1.349 . S
C902 H896 0.955 . S
C902 C903 1.327 . S
C903 H897 0.950 . S
C903 C902 1.327 . S
C903 C907 1.429 . S
C904 C887 1.574 . S
C904 H898 0.949 . S
C904 C908 1.368 . S
C905 C886 1.429 . S
C905 C899 1.429 . S
C905 C906 1.523 . S
C906 C887 1.368 . S
C906 C900 1.368 . S
C906 C905 1.523 . S
C907 C891 1.429 . S
C907 C903 1.429 . S
C907 C908 1.523 . S
C908 C892 1.368 . S
C908 C904 1.368 . S
C908 C907 1.523 . S
H909 C884 0.950 . S
H910 C886 0.950 . S
H911 C887 0.949 . S
H912 C889 0.950 . S
H913 C891 0.950 . S
C914 C915 1.349 . S
C914 C916 1.327 . S
C914 H939 0.950 . S
C915 C914 1.349 . S
C915 C931 1.349 . S
C916 C914 1.327 . S
C916 C935 1.429 . S
C916 H940 0.950 . S
C917 C934 1.574 . S
C917 C936 1.368 . S
C917 H941 0.949 . S
H918 C922 0.949 . S
C919 C920 1.349 . S
C919 C921 1.327 . S
C919 H942 0.950 . S
C920 C919 1.349 . S
C920 C932 1.349 . S
C921 C919 1.327 . S
C921 C937 1.429 . S
C921 H943 0.950 . S
C922 H918 0.949 . S
C922 C930 1.574 . S
C922 C938 1.368 . S
H923 C931 0.950 . S
H924 C929 0.950 . S
H925 C930 0.949 . S
H926 C932 0.950 . S
H927 C933 0.950 . S
H928 C934 0.949 . S
C929 H924 0.950 . S
C929 C931 1.327 . S
C929 C935 1.429 . S
C930 C922 1.574 . S
C930 H925 0.949 . S
C930 C936 1.368 . S
C931 C915 1.349 . S
C931 H923 0.950 . S
C931 C929 1.327 . S
C932 C920 1.349 . S
C932 H926 0.950 . S
C932 C933 1.327 . S
C933 H927 0.950 . S
C933 C932 1.327 . S
C933 C937 1.429 . S
C934 C917 1.574 . S
C934 H928 0.949 . S
C934 C938 1.368 . S
C935 C916 1.429 . S
C935 C929 1.429 . S
C935 C936 1.523 . S
C936 C917 1.368 . S
C936 C930 1.368 . S
C936 C935 1.523 . S
C937 C921 1.429 . S
C937 C933 1.429 . S
C937 C938 1.523 . S
C938 C922 1.368 . S
C938 C934 1.368 . S
C938 C937 1.523 . S
H939 C914 0.950 . S
H940 C916 0.950 . S
H941 C917 0.949 . S
H942 C919 0.950 . S
H943 C921 0.950 . S
C944 C945 1.349 . S
C944 C946 1.327 . S
C944 H969 0.950 . S
C945 C944 1.349 . S
C945 C961 1.349 . S
C946 C944 1.327 . S
C946 C965 1.429 . S
C946 H970 0.950 . S
C947 C964 1.574 . S
C947 C966 1.368 . S
C947 H971 0.949 . S
H948 C952 0.949 . S
C949 C950 1.349 . S
C949 C951 1.327 . S
C949 H972 0.950 . S
C950 C949 1.349 . S
C950 C962 1.349 . S
C951 C949 1.327 . S
C951 C967 1.429 . S
C951 H973 0.950 . S
C952 H948 0.949 . S
C952 C960 1.574 . S
C952 C968 1.368 . S
H953 C961 0.950 . S
H954 C959 0.950 . S
H955 C960 0.949 . S
H956 C962 0.950 . S
H957 C963 0.950 . S
H958 C964 0.949 . S
C959 H954 0.950 . S
C959 C961 1.327 . S
C959 C965 1.429 . S
C960 C952 1.574 . S
C960 H955 0.949 . S
C960 C966 1.368 . S
C961 C945 1.349 . S
C961 H953 0.950 . S
C961 C959 1.327 . S
C962 C950 1.349 . S
C962 H956 0.950 . S
C962 C963 1.327 . S
C963 H957 0.950 . S
C963 C962 1.327 . S
C963 C967 1.429 . S
C964 C947 1.574 . S
C964 H958 0.949 . S
C964 C968 1.368 . S
C965 C946 1.429 . S
C965 C959 1.429 . S
C965 C966 1.523 . S
C966 C947 1.368 . S
C966 C960 1.368 . S
C966 C965 1.523 . S
C967 C951 1.429 . S
C967 C963 1.429 . S
C967 C968 1.523 . S
C968 C952 1.368 . S
C968 C964 1.368 . S
C968 C967 1.523 . S
H969 C944 0.950 . S
H970 C946 0.950 . S
H971 C947 0.949 . S
H972 C949 0.950 . S
H973 C951 0.950 . S
C974 C975 1.349 . S
C974 C976 1.327 . S
C974 H999 0.950 . S
C975 C974 1.349 . S
C975 C991 1.349 . S
C976 C974 1.327 . S
C976 C995 1.429 . S
C976 H1000 0.950 . S
C977 C994 1.574 . S
C977 C996 1.368 . S
C977 H1001 0.949 . S
H978 C982 0.949 . S
C979 C980 1.349 1_455 S
C979 C981 1.327 1_455 S
C979 H1002 0.950 . S
C980 C979 1.349 1_655 S
C980 C992 1.349 . S
C981 C979 1.327 1_655 S
C981 C997 1.429 . S
C981 H1003 0.950 . S
C982 H978 0.949 . S
C982 C990 1.574 . S
C982 C998 1.368 . S
H983 C991 0.950 . S
H984 C989 0.950 . S
H985 C990 0.949 . S
H986 C992 0.950 . S
H987 C993 0.950 . S
H988 C994 0.949 . S
C989 H984 0.950 . S
C989 C991 1.327 . S
C989 C995 1.429 . S
C990 C982 1.574 . S
C990 H985 0.949 . S
C990 C996 1.368 . S
C991 C975 1.349 . S
C991 H983 0.950 . S
C991 C989 1.327 . S
C992 C980 1.349 . S
C992 H986 0.950 . S
C992 C993 1.327 . S
C993 H987 0.950 . S
C993 C992 1.327 . S
C993 C997 1.429 . S
C994 C977 1.574 . S
C994 H988 0.949 . S
C994 C998 1.368 . S
C995 C976 1.429 . S
C995 C989 1.429 . S
C995 C996 1.523 . S
C996 C977 1.368 . S
C996 C990 1.368 . S
C996 C995 1.523 . S
C997 C981 1.429 . S
C997 C993 1.429 . S
C997 C998 1.523 . S
C998 C982 1.368 . S
C998 C994 1.368 . S
C998 C997 1.523 . S
H999 C974 0.950 . S
H1000 C976 0.950 . S
H1001 C977 0.949 . S
H1002 C979 0.950 . S
H1003 C981 0.950 . S
C1004 C1005 1.349 . S
C1004 C1006 1.327 . S
C1004 H1029 0.950 . S
C1005 C1004 1.349 . S
C1005 C1021 1.349 . S
C1006 C1004 1.327 . S
C1006 C1025 1.429 . S
C1006 H1030 0.950 . S
C1007 C1024 1.574 . S
C1007 C1026 1.368 . S
C1007 H1031 0.949 . S
H1008 C1012 0.949 . S
C1009 C1010 1.349 . S
C1009 C1011 1.327 . S
C1009 H1032 0.950 . S
C1010 C1009 1.349 . S
C1010 C1022 1.349 . S
C1011 C1009 1.327 . S
C1011 C1027 1.429 . S
C1011 H1033 0.950 . S
C1012 H1008 0.949 . S
C1012 C1020 1.574 . S
C1012 C1028 1.368 . S
H1013 C1021 0.950 1_455 S
H1014 C1019 0.950 . S
H1015 C1020 0.949 . S
H1016 C1022 0.950 . S
H1017 C1023 0.950 . S
H1018 C1024 0.949 . S
C1019 H1014 0.950 . S
C1019 C1021 1.327 . S
C1019 C1025 1.429 . S
C1020 C1012 1.574 . S
C1020 H1015 0.949 . S
C1020 C1026 1.368 . S
C1021 C1005 1.349 . S
C1021 H1013 0.950 1_655 S
C1021 C1019 1.327 . S
C1022 C1010 1.349 . S
C1022 H1016 0.950 . S
C1022 C1023 1.327 . S
C1023 H1017 0.950 . S
C1023 C1022 1.327 . S
C1023 C1027 1.429 . S
C1024 C1007 1.574 . S
C1024 H1018 0.949 . S
C1024 C1028 1.368 . S
C1025 C1006 1.429 . S
C1025 C1019 1.429 . S
C1025 C1026 1.523 . S
C1026 C1007 1.368 . S
C1026 C1020 1.368 . S
C1026 C1025 1.523 . S
C1027 C1011 1.429 . S
C1027 C1023 1.429 . S
C1027 C1028 1.523 . S
C1028 C1012 1.368 . S
C1028 C1024 1.368 . S
C1028 C1027 1.523 . S
H1029 C1004 0.950 . S
H1030 C1006 0.950 . S
H1031 C1007 0.949 . S
H1032 C1009 0.950 . S
H1033 C1011 0.950 . S
C1034 C1035 1.349 . S
C1034 C1036 1.327 . S
C1034 H1059 0.950 . S
C1035 C1034 1.349 . S
C1035 C1051 1.349 . S
C1036 C1034 1.327 . S
C1036 C1055 1.429 . S
C1036 H1060 0.950 . S
C1037 C1054 1.574 . S
C1037 C1056 1.368 . S
C1037 H1061 0.949 . S
H1038 C1042 0.949 . S
C1039 C1040 1.349 . S
C1039 C1041 1.327 . S
C1039 H1062 0.950 . S
C1040 C1039 1.349 . S
C1040 C1052 1.349 . S
C1041 C1039 1.327 . S
C1041 C1057 1.429 . S
C1041 H1063 0.950 . S
C1042 H1038 0.949 . S
C1042 C1050 1.574 . S
C1042 C1058 1.368 . S
H1043 C1051 0.950 . S
H1044 C1049 0.950 . S
H1045 C1050 0.949 . S
H1046 C1052 0.950 . S
H1047 C1053 0.950 . S
H1048 C1054 0.949 . S
C1049 H1044 0.950 . S
C1049 C1051 1.327 . S
C1049 C1055 1.429 . S
C1050 C1042 1.574 . S
C1050 H1045 0.949 . S
C1050 C1056 1.368 . S
C1051 C1035 1.349 . S
C1051 H1043 0.950 . S
C1051 C1049 1.327 . S
C1052 C1040 1.349 . S
C1052 H1046 0.950 . S
C1052 C1053 1.327 . S
C1053 H1047 0.950 . S
C1053 C1052 1.327 . S
C1053 C1057 1.429 . S
C1054 C1037 1.574 . S
C1054 H1048 0.949 . S
C1054 C1058 1.368 . S
C1055 C1036 1.429 . S
C1055 C1049 1.429 . S
C1055 C1056 1.523 . S
C1056 C1037 1.368 . S
C1056 C1050 1.368 . S
C1056 C1055 1.523 . S
C1057 C1041 1.429 . S
C1057 C1053 1.429 . S
C1057 C1058 1.523 . S
C1058 C1042 1.368 . S
C1058 C1054 1.368 . S
C1058 C1057 1.523 . S
H1059 C1034 0.950 . S
H1060 C1036 0.950 . S
H1061 C1037 0.949 . S
H1062 C1039 0.950 . S
H1063 C1041 0.950 . S
C1064 C1065 1.349 . S
C1064 C1066 1.327 . S
C1064 H1089 0.950 . S
C1065 C1064 1.349 . S
C1065 C1081 1.349 . S
C1066 C1064 1.327 . S
C1066 C1085 1.429 . S
C1066 H1090 0.950 . S
C1067 C1084 1.574 . S
C1067 C1086 1.368 . S
C1067 H1091 0.949 . S
H1068 C1072 0.949 . S
C1069 C1070 1.349 . S
C1069 C1071 1.327 . S
C1069 H1092 0.950 . S
C1070 C1069 1.349 . S
C1070 C1082 1.349 . S
C1071 C1069 1.327 . S
C1071 C1087 1.429 . S
C1071 H1093 0.950 . S
C1072 H1068 0.949 . S
C1072 C1080 1.574 . S
C1072 C1088 1.368 . S
H1073 C1081 0.950 . S
H1074 C1079 0.950 . S
H1075 C1080 0.949 . S
H1076 C1082 0.950 . S
H1077 C1083 0.950 . S
H1078 C1084 0.949 . S
C1079 H1074 0.950 . S
C1079 C1081 1.327 . S
C1079 C1085 1.429 . S
C1080 C1072 1.574 . S
C1080 H1075 0.949 . S
C1080 C1086 1.368 . S
C1081 C1065 1.349 . S
C1081 H1073 0.950 . S
C1081 C1079 1.327 . S
C1082 C1070 1.349 . S
C1082 H1076 0.950 . S
C1082 C1083 1.327 . S
C1083 H1077 0.950 . S
C1083 C1082 1.327 . S
C1083 C1087 1.429 . S
C1084 C1067 1.574 . S
C1084 H1078 0.949 . S
C1084 C1088 1.368 . S
C1085 C1066 1.429 . S
C1085 C1079 1.429 . S
C1085 C1086 1.523 . S
C1086 C1067 1.368 . S
C1086 C1080 1.368 . S
C1086 C1085 1.523 . S
C1087 C1071 1.429 . S
C1087 C1083 1.429 . S
C1087 C1088 1.523 . S
C1088 C1072 1.368 . S
C1088 C1084 1.368 . S
C1088 C1087 1.523 . S
H1089 C1064 0.950 . S
H1090 C1066 0.950 . S
H1091 C1067 0.949 . S
H1092 C1069 0.950 . S
H1093 C1071 0.950 . S
C1094 C1095 1.349 . S
C1094 C1096 1.327 . S
C1094 H1119 0.950 . S
C1095 C1094 1.349 . S
C1095 C1111 1.349 . S
C1096 C1094 1.327 . S
C1096 C1115 1.429 . S
C1096 H1120 0.950 . S
C1097 C1114 1.574 . S
C1097 C1116 1.368 . S
C1097 H1121 0.949 . S
H1098 C1102 0.949 . S
C1099 C1100 1.349 . S
C1099 C1101 1.327 . S
C1099 H1122 0.950 . S
C1100 C1099 1.349 . S
C1100 C1112 1.349 . S
C1101 C1099 1.327 . S
C1101 C1117 1.429 . S
C1101 H1123 0.950 . S
C1102 H1098 0.949 . S
C1102 C1110 1.574 . S
C1102 C1118 1.368 . S
H1103 C1111 0.950 . S
H1104 C1109 0.950 . S
H1105 C1110 0.949 . S
H1106 C1112 0.950 . S
H1107 C1113 0.950 . S
H1108 C1114 0.949 . S
C1109 H1104 0.950 . S
C1109 C1111 1.327 . S
C1109 C1115 1.429 . S
C1110 C1102 1.574 . S
C1110 H1105 0.949 . S
C1110 C1116 1.368 . S
C1111 C1095 1.349 . S
C1111 H1103 0.950 . S
C1111 C1109 1.327 . S
C1112 C1100 1.349 . S
C1112 H1106 0.950 . S
C1112 C1113 1.327 . S
C1113 H1107 0.950 . S
C1113 C1112 1.327 . S
C1113 C1117 1.429 . S
C1114 C1097 1.574 . S
C1114 H1108 0.949 . S
C1114 C1118 1.368 . S
C1115 C1096 1.429 . S
C1115 C1109 1.429 . S
C1115 C1116 1.523 . S
C1116 C1097 1.368 . S
C1116 C1110 1.368 . S
C1116 C1115 1.523 . S
C1117 C1101 1.429 . S
C1117 C1113 1.429 . S
C1117 C1118 1.523 . S
C1118 C1102 1.368 . S
C1118 C1114 1.368 . S
C1118 C1117 1.523 . S
H1119 C1094 0.950 . S
H1120 C1096 0.950 . S
H1121 C1097 0.949 . S
H1122 C1099 0.950 . S
H1123 C1101 0.950 . S
C1124 C1125 1.349 . S
C1124 C1126 1.327 . S
C1124 H1149 0.950 . S
C1125 C1124 1.349 . S
C1125 C1141 1.349 . S
C1126 C1124 1.327 . S
C1126 C1145 1.429 . S
C1126 H1150 0.950 . S
C1127 C1144 1.574 . S
C1127 C1146 1.368 . S
C1127 H1151 0.949 . S
H1128 C1132 0.949 . S
C1129 C1130 1.349 . S
C1129 C1131 1.327 . S
C1129 H1152 0.950 . S
C1130 C1129 1.349 . S
C1130 C1142 1.349 . S
C1131 C1129 1.327 . S
C1131 C1147 1.429 . S
C1131 H1153 0.950 . S
C1132 H1128 0.949 . S
C1132 C1140 1.574 . S
C1132 C1148 1.368 . S
H1133 C1141 0.950 . S
H1134 C1139 0.950 . S
H1135 C1140 0.949 . S
H1136 C1142 0.950 . S
H1137 C1143 0.950 . S
H1138 C1144 0.949 . S
C1139 H1134 0.950 . S
C1139 C1141 1.327 . S
C1139 C1145 1.429 . S
C1140 C1132 1.574 . S
C1140 H1135 0.949 . S
C1140 C1146 1.368 . S
C1141 C1125 1.349 . S
C1141 H1133 0.950 . S
C1141 C1139 1.327 . S
C1142 C1130 1.349 . S
C1142 H1136 0.950 . S
C1142 C1143 1.327 . S
C1143 H1137 0.950 . S
C1143 C1142 1.327 . S
C1143 C1147 1.429 . S
C1144 C1127 1.574 . S
C1144 H1138 0.949 . S
C1144 C1148 1.368 . S
C1145 C1126 1.429 . S
C1145 C1139 1.429 . S
C1145 C1146 1.523 . S
C1146 C1127 1.368 . S
C1146 C1140 1.368 . S
C1146 C1145 1.523 . S
C1147 C1131 1.429 . S
C1147 C1143 1.429 . S
C1147 C1148 1.523 . S
C1148 C1132 1.368 . S
C1148 C1144 1.368 . S
C1148 C1147 1.523 . S
H1149 C1124 0.950 . S
H1150 C1126 0.950 . S
H1151 C1127 0.949 . S
H1152 C1129 0.950 . S
H1153 C1131 0.950 . S
C1154 C1155 1.349 . S
C1154 C1156 1.327 . S
C1154 H1179 0.950 . S
C1155 C1154 1.349 . S
C1155 C1171 1.349 . S
C1156 C1154 1.327 . S
C1156 C1175 1.429 . S
C1156 H1180 0.950 . S
C1157 C1174 1.574 . S
C1157 C1176 1.368 . S
C1157 H1181 0.949 . S
H1158 C1162 0.949 . S
C1159 C1160 1.349 . S
C1159 C1161 1.327 . S
C1159 H1182 0.950 . S
C1160 C1159 1.349 . S
C1160 C1172 1.349 . S
C1161 C1159 1.327 . S
C1161 C1177 1.429 . S
C1161 H1183 0.950 . S
C1162 H1158 0.949 . S
C1162 C1170 1.574 . S
C1162 C1178 1.368 . S
H1163 C1171 0.950 . S
H1164 C1169 0.950 . S
H1165 C1170 0.949 . S
H1166 C1172 0.950 . S
H1167 C1173 0.950 . S
H1168 C1174 0.949 . S
C1169 H1164 0.950 . S
C1169 C1171 1.327 . S
C1169 C1175 1.429 . S
C1170 C1162 1.574 . S
C1170 H1165 0.949 . S
C1170 C1176 1.368 . S
C1171 C1155 1.349 . S
C1171 H1163 0.950 . S
C1171 C1169 1.327 . S
C1172 C1160 1.349 . S
C1172 H1166 0.950 . S
C1172 C1173 1.327 . S
C1173 H1167 0.950 . S
C1173 C1172 1.327 . S
C1173 C1177 1.429 . S
C1174 C1157 1.574 . S
C1174 H1168 0.949 . S
C1174 C1178 1.368 . S
C1175 C1156 1.429 . S
C1175 C1169 1.429 . S
C1175 C1176 1.523 . S
C1176 C1157 1.368 . S
C1176 C1170 1.368 . S
C1176 C1175 1.523 . S
C1177 C1161 1.429 . S
C1177 C1173 1.429 . S
C1177 C1178 1.523 . S
C1178 C1162 1.368 . S
C1178 C1174 1.368 . S
C1178 C1177 1.523 . S
H1179 C1154 0.950 . S
H1180 C1156 0.950 . S
H1181 C1157 0.949 . S
H1182 C1159 0.950 . S
H1183 C1161 0.950 . S
C225 C6 1.367 . S
C230 C188 1.367 . S
C255 C160 1.367 . S
C260 C20 1.367 . S
C285 C174 1.367 . S
C290 C34 1.367 . S
C315 C146 1.368 . S
C320 C48 1.368 . S
C345 C62 1.367 . S
C350 C216 1.367 . S
C375 C76 1.368 . S
C380 C132 1.368 . S
C405 C202 1.367 . S
C410 C90 1.367 . S
C435 C104 1.367 . S
C440 C118 1.367 . S
C465 C64 1.767 . S
C470 C8 1.767 . S
C495 C22 1.767 . S
C500 C78 1.767 . S
C525 C36 1.767 . S
C530 C92 1.767 . S
C555 C106 1.767 . S
C560 C50 1.767 . S
C585 C120 1.767 . S
C590 C148 1.767 . S
C615 C134 1.767 . S
C620 C162 1.767 . S
C645 C204 1.767 . S
C650 C176 1.767 . S
C675 C190 1.767 . S
C680 C218 1.767 . S
C705 C77 1.360 . S
C710 C7 1.360 . S
C735 C21 1.360 . S
C740 C91 1.360 . S
C765 C35 1.360 . S
C770 C105 1.360 . S
C795 C63 1.360 . S
C800 C49 1.360 . S
C825 C65 1.257 . S
C830 C149 1.257 . S
C855 C37 1.257 . S
C860 C121 1.257 . S
C885 C163 1.257 . S
C890 C93 1.257 . S
C915 C135 1.257 . S
C920 C9 1.257 . S
C945 C119 1.360 . S
C950 C175 1.360 . S
C975 C147 1.360 . S
C980 C217 1.360 1_655 S
C1005 C189 1.360 1_655 S
C1010 C133 1.360 . S
C1035 C161 1.360 . S
C1040 C203 1.360 . S
C1065 C205 1.257 . S
C1070 C23 1.257 . S
C1095 C191 1.256 . S
C1100 C79 1.256 . S
C1125 C219 1.256 . S
C1130 C51 1.256 . S
C1155 C177 1.257 . S
C1160 C107 1.257 . S
