# Generated by pormake.
# Topology sof, (5)-cn, num edge types: 1
# Building blocks:
#     Node 0, Type 0, BuildingBlock: XOMCOT_clean_sbu_1, # of connection points: 5
#     Node 1, Type 0, BuildingBlock: XOMCOT_clean_sbu_1, # of connection points: 5
#     Node 2, Type 0, BuildingBlock: XOMCOT_clean_sbu_1, # of connection points: 5
#     Node 3, Type 0, BuildingBlock: XOMCOT_clean_sbu_1, # of connection points: 5
#     Node 4, Type 0, BuildingBlock: XOMCOT_clean_sbu_1, # of connection points: 5
#     Node 5, Type 0, BuildingBlock: XOMCOT_clean_sbu_1, # of connection points: 5
#     Node 6, Type 0, BuildingBlock: XOMCOT_clean_sbu_1, # of connection points: 5
#     Node 7, Type 0, BuildingBlock: XOMCOT_clean_sbu_1, # of connection points: 5
#     Edge 8, Type (0, 0), None
#     Edge 9, Type (0, 0), None
#     Edge 10, Type (0, 0), None
#     Edge 11, Type (0, 0), None
#     Edge 12, Type (0, 0), None
#     Edge 13, Type (0, 0), None
#     Edge 14, Type (0, 0), None
#     Edge 15, Type (0, 0), None
#     Edge 16, Type (0, 0), None
#     Edge 17, Type (0, 0), None
#     Edge 18, Type (0, 0), None
#     Edge 19, Type (0, 0), None
#     Edge 20, Type (0, 0), None
#     Edge 21, Type (0, 0), None
#     Edge 22, Type (0, 0), None
#     Edge 23, Type (0, 0), None
#     Edge 24, Type (0, 0), None
#     Edge 25, Type (0, 0), None
#     Edge 26, Type (0, 0), None
#     Edge 27, Type (0, 0), None
# Relax obj value: 0.165
# Max RMSD: 0.164
# Mean RMSD: 0.164
data_MOF--net-sof--node1-XOMCOT_clean_sbu_1--edge1-none
_symmetry_space_group_name_H-M    P1
_symmetry_Int_Tables_number       1
_symmetry_cell_setting            triclinic
loop_
_symmetry_equiv_pos_as_xyz
'x, y, z'
_cell_length_a     30.697215
_cell_length_b     9.2124538
_cell_length_c     21.426549
_cell_angle_alpha  89.994625
_cell_angle_beta   89.991795
_cell_angle_gamma 91.400032
loop_
_atom_site_label
_atom_site_type_symbol
_atom_site_fract_x
_atom_site_fract_y
_atom_site_fract_z
_atom_type_partial_charge
C0 C 0.04264 0.40149 0.04766 0.0
C1 C 0.04469 0.55106 0.05275 0.0
N2 N 0.06608 0.58447 0.10579 0.0
N3 N 0.06216 0.34258 0.09784 0.0
C4 C 0.0767 0.45751 0.13167 0.0
H5 H 0.02528 0.34029 1.01207 0.0
Co6 Co 0.06117 0.14986 0.12502 0.0
C7 C 0.02446 0.2504 0.25821 0.0
O8 O -0.01208 0.17851 0.2699 0.0
N9 N 0.0601 0.95729 0.15041 0.0
C10 C 0.04481 0.74149 0.19232 0.0
C11 C 0.04219 0.88957 0.20039 0.0
C12 C 0.07359 0.8494 0.11294 0.0
N13 N 0.06469 0.71799 0.13744 0.0
O14 O 0.00163 0.12415 0.10029 0.0
H15 H 0.02597 0.943 0.23824 0.0
H16 H 0.08784 0.86663 0.06729 0.0
O17 O 0.04534 0.22701 0.20766 0.0
C18 C -0.00328 0.05197 0.04956 0.0
O19 O 0.03081 0.02642 1.01462 0.0
N20 N 0.11982 0.16204 0.14527 0.0
C21 C 0.20414 0.06024 0.15288 0.0
C22 C 0.17728 0.06146 0.20598 0.0
C23 C 0.13512 0.1143 0.20131 0.0
C24 C 0.14658 0.17441 0.09495 0.0
C25 C 0.18916 0.12658 0.09807 0.0
H26 H 0.11335 0.10097 0.24066 0.0
H27 H 0.13367 0.20929 0.05058 0.0
H28 H 0.09304 0.4485 0.17595 0.0
H29 H 0.02859 0.62814 1.02299 0.0
H30 H 0.03012 0.65836 0.22162 0.0
H31 H 0.1873 1.01228 0.24938 0.0
H32 H 0.20923 0.13431 0.0566 0.0
C33 C 0.40799 0.64344 0.04764 0.0
C34 C 0.40595 0.49386 0.05274 0.0
N35 N 0.38457 0.46043 0.1058 0.0
N36 N 0.38848 0.70232 0.09785 0.0
C37 C 0.37396 0.58738 0.13169 0.0
H38 H 0.42534 0.70465 1.01204 0.0
Co39 Co 0.38948 0.89502 0.12502 0.0
C40 C 0.42619 0.79448 0.25818 0.0
O41 O 0.46274 0.86633 0.26981 0.0
N42 N 0.39054 0.08758 0.15041 0.0
C43 C 0.4058 0.30336 0.19234 0.0
C44 C 0.40842 0.15528 0.20041 0.0
C45 C 0.37708 0.19549 0.11293 0.0
N46 N 0.38596 0.32688 0.13744 0.0
O47 O 0.44902 0.92072 0.10029 0.0
H48 H 0.42461 0.10183 0.23829 0.0
H49 H 0.36285 0.17828 0.06727 0.0
O50 O 0.40529 0.81783 0.20766 0.0
C51 C 0.45395 0.99289 0.04956 0.0
O52 O 0.41986 1.01845 1.01461 0.0
N53 N 0.33082 0.88285 0.14527 0.0
C54 C 0.2465 0.98468 0.15288 0.0
C55 C 0.27335 0.98341 0.20598 0.0
C56 C 0.31551 0.93056 0.20131 0.0
C57 C 0.30407 0.87053 0.09494 0.0
C58 C 0.26149 0.91837 0.09807 0.0
H59 H 0.33727 0.94385 0.24067 0.0
H60 H 0.317 0.83567 0.05058 0.0
H61 H 0.35763 0.59636 0.17599 0.0
H62 H 0.42204 0.4168 1.02296 0.0
H63 H 0.42046 0.38648 0.22167 0.0
H64 H 0.26332 0.03256 0.24939 0.0
H65 H 0.24143 0.91068 0.0566 0.0
C66 C 0.05078 0.17208 0.52513 0.0
C67 C 0.05135 0.02257 0.51985 0.0
N68 N 0.05962 0.99124 0.45978 0.0
N69 N 0.0583 0.23165 0.46841 0.0
C70 C 0.06422 0.11795 0.42996 0.0
H71 H 0.04317 0.2327 0.56676 0.0
Co72 Co 0.05524 0.4228 0.44302 0.0
C73 C 0.04161 0.36041 0.3033 0.0
O74 O 0.06965 0.46066 0.28445 0.0
N75 N 0.05191 0.61567 0.41841 0.0
C76 C 0.03138 0.82661 0.37882 0.0
C77 C 0.02919 0.67799 0.37187 0.0
C78 C 0.06633 0.72785 0.45401 0.0
N79 N 0.0546 0.85558 0.43063 0.0
O80 O -0.00262 0.43516 0.47393 0.0
H81 H 0.0094 0.62026 0.33794 0.0
H82 H 0.08303 0.71701 0.49804 0.0
O83 O 0.03299 0.34785 0.36144 0.0
C84 C -0.00401 0.49994 0.52675 0.0
O85 O 0.03237 0.53068 0.55663 0.0
N86 N 0.11407 0.42176 0.42113 0.0
C87 C 0.20199 0.50061 0.41626 0.0
C88 C 0.18235 0.42424 0.36644 0.0
C89 C 0.13808 0.38223 0.37044 0.0
C90 C 0.13404 0.48183 0.47179 0.0
C91 C 0.17734 0.52614 0.46983 0.0
H92 H 0.12393 0.31764 0.33346 0.0
H93 H 0.11541 0.5008 0.51364 0.0
H94 H 0.07033 0.12602 0.38041 0.0
H95 H 0.04355 0.94382 0.5559 0.0
H96 H 0.01457 0.90603 0.35119 0.0
H97 H 0.20112 0.39524 0.32568 0.0
H98 H 0.19123 0.58152 0.51003 0.0
C99 C 0.39988 0.87277 0.52514 0.0
C100 C 0.39931 1.02229 0.51987 0.0
N101 N 0.39106 0.05365 0.4598 0.0
N102 N 0.39237 0.81324 0.46841 0.0
C103 C 0.38647 0.92696 0.42997 0.0
H104 H 0.40747 0.81213 0.56678 0.0
Co105 Co 0.39544 0.6221 0.44303 0.0
C106 C 0.40905 0.68449 0.30331 0.0
O107 O 0.38101 0.58424 0.28451 0.0
N108 N 0.39877 0.42924 0.41842 0.0
C109 C 0.41931 0.21832 0.37883 0.0
C110 C 0.4215 0.36694 0.37188 0.0
C111 C 0.38435 0.31704 0.45403 0.0
N112 N 0.39609 0.18933 0.43065 0.0
O113 O 0.45329 0.60973 0.47394 0.0
H114 H 0.4413 0.4247 0.33795 0.0
H115 H 0.36765 0.32785 0.49806 0.0
O116 O 0.41769 0.69707 0.36144 0.0
C117 C 0.45468 0.54492 0.52675 0.0
O118 O 0.4183 0.51417 0.55664 0.0
N119 N 0.33661 0.62316 0.42115 0.0
C120 C 0.24869 0.54435 0.41626 0.0
C121 C 0.26833 0.62081 0.36647 0.0
C122 C 0.3126 0.6628 0.37048 0.0
C123 C 0.31662 0.56301 0.4718 0.0
C124 C 0.27332 0.51871 0.46983 0.0
H125 H 0.32676 0.72748 0.33352 0.0
H126 H 0.33525 0.54398 0.51365 0.0
H127 H 0.38037 0.91892 0.38042 0.0
H128 H 0.4071 0.10102 0.55592 0.0
H129 H 0.43613 0.13892 0.3512 0.0
H130 H 0.24958 0.6499 0.32572 0.0
H131 H 0.25942 0.46326 0.51002 0.0
C132 C 0.90803 0.64338 1.03269 0.0
C133 C 0.90599 0.49381 1.02759 0.0
N134 N 0.88459 0.4604 0.97455 0.0
N135 N 0.88851 0.70229 0.9825 0.0
C136 C 0.87397 0.58736 0.94867 0.0
H137 H 0.92539 0.70458 0.06827 0.0
Co138 Co 0.8895 0.89501 0.95532 0.0
C139 C 0.92621 0.79447 0.82213 0.0
O140 O 0.96275 0.86636 0.81043 0.0
N141 N 0.89057 0.08758 0.92993 0.0
C142 C 0.90586 0.30339 0.88802 0.0
C143 C 0.90848 0.15531 0.87995 0.0
C144 C 0.87708 0.19547 0.9674 0.0
N145 N 0.88598 0.32688 0.9429 0.0
O146 O 0.94904 0.92072 0.98006 0.0
H147 H 0.9247 0.10187 0.8421 0.0
H148 H 0.86282 0.17824 1.01305 0.0
O149 O 0.90533 0.81786 0.87268 0.0
C150 C 0.95395 0.9929 1.03078 0.0
O151 O 0.91986 1.01846 0.06572 0.0
N152 N 0.83085 0.88283 0.93507 0.0
C153 C 0.74653 0.98463 0.92746 0.0
C154 C 0.77338 0.9834 0.87436 0.0
C155 C 0.81555 0.93057 0.87903 0.0
C156 C 0.80409 0.87046 0.9854 0.0
C157 C 0.76151 0.91828 0.98227 0.0
H158 H 0.83732 0.9439 0.83968 0.0
H159 H 0.817 0.83558 1.02976 0.0
H160 H 0.85763 0.59637 0.90439 0.0
H161 H 0.92209 0.41673 0.05735 0.0
H162 H 0.92055 0.38652 0.85872 0.0
H163 H 0.76337 0.03258 0.83096 0.0
H164 H 0.74144 0.91056 1.02374 0.0
C165 C 0.54268 0.40142 1.0327 0.0
C166 C 0.54472 0.55099 1.0276 0.0
N167 N 0.5661 0.58443 0.97454 0.0
N168 N 0.56218 0.34254 0.98249 0.0
C169 C 0.57671 0.45748 0.94865 0.0
H170 H 0.52533 0.34021 0.0683 0.0
Co171 Co 0.56119 0.14983 0.95532 0.0
C172 C 0.52447 0.25037 0.82216 0.0
O173 O 0.48792 0.17852 0.81054 0.0
N174 N 0.56013 0.95728 0.92993 0.0
C175 C 0.54487 0.74149 0.888 0.0
C176 C 0.54225 0.88958 0.87993 0.0
C177 C 0.57359 0.84937 0.96741 0.0
N178 N 0.56471 0.71797 0.9429 0.0
O179 O 0.50165 0.12413 0.98005 0.0
H180 H 0.52607 0.94303 0.84205 0.0
H181 H 0.58782 0.86658 1.01307 0.0
O182 O 0.54538 0.22702 0.87268 0.0
C183 C 0.49672 0.05196 1.03078 0.0
O184 O 0.5308 0.02641 0.06573 0.0
N185 N 0.61985 0.162 0.93507 0.0
C186 C 0.70417 0.06018 0.92746 0.0
C187 C 0.67732 0.06145 0.87436 0.0
C188 C 0.63515 0.1143 0.87903 0.0
C189 C 0.64659 0.17433 0.9854 0.0
C190 C 0.68918 0.12649 0.98228 0.0
H191 H 0.6134 0.10101 0.83967 0.0
H192 H 0.63367 0.20918 1.02976 0.0
H193 H 0.59304 0.4485 0.90435 0.0
H194 H 0.52863 0.62806 0.05738 0.0
H195 H 0.53021 0.65838 0.85867 0.0
H196 H 0.68735 1.01231 0.83095 0.0
H197 H 0.70924 0.13418 1.02374 0.0
C198 C 0.89989 0.87278 0.55522 0.0
C199 C 0.89932 1.02229 0.56049 0.0
N200 N 0.89104 0.05362 0.62056 0.0
N201 N 0.89236 0.81321 0.61194 0.0
C202 C 0.88645 0.92691 0.65038 0.0
H203 H 0.9075 0.81216 0.51358 0.0
Co204 Co 0.89543 0.62206 0.63732 0.0
C205 C 0.90905 0.68446 0.77704 0.0
O206 O 0.88102 0.5842 0.79589 0.0
N207 N 0.89876 0.42919 0.66194 0.0
C208 C 0.91928 0.21825 0.70153 0.0
C209 C 0.92148 0.36687 0.70847 0.0
C210 C 0.88434 0.31701 0.62633 0.0
N211 N 0.89607 0.18928 0.64971 0.0
O212 O 0.95328 0.6097 0.60641 0.0
H213 H 0.94127 0.4246 0.7424 0.0
H214 H 0.86764 0.32785 0.5823 0.0
O215 O 0.91767 0.69701 0.71891 0.0
C216 C 0.95468 0.54492 0.55359 0.0
O217 O 0.9183 0.51418 0.52371 0.0
N218 N 0.83659 0.6231 0.65921 0.0
C219 C 0.74868 0.54424 0.66408 0.0
C220 C 0.76831 0.62061 0.7139 0.0
C221 C 0.81258 0.66262 0.7099 0.0
C222 C 0.81662 0.56303 0.60855 0.0
C223 C 0.77332 0.51872 0.61051 0.0
H224 H 0.82674 0.72721 0.74688 0.0
H225 H 0.83525 0.54407 0.5667 0.0
H226 H 0.88033 0.91884 0.69993 0.0
H227 H 0.90712 0.10104 0.52444 0.0
H228 H 0.93609 0.13883 0.72915 0.0
H229 H 0.74955 0.64961 0.75466 0.0
H230 H 0.75943 0.46334 0.57031 0.0
C231 C 0.55078 0.17208 0.5552 0.0
C232 C 0.55135 0.02256 0.56047 0.0
N233 N 0.55961 0.9912 0.62054 0.0
N234 N 0.55829 0.23161 0.61193 0.0
C235 C 0.56419 0.11789 0.65037 0.0
H236 H 0.5432 0.23272 0.51356 0.0
Co237 Co 0.55523 0.42275 0.63731 0.0
C238 C 0.54161 0.36036 0.77703 0.0
O239 O 0.56966 0.46061 0.79583 0.0
N240 N 0.55189 0.61561 0.66192 0.0
C241 C 0.53136 0.82653 0.70151 0.0
C242 C 0.52916 0.6779 0.70846 0.0
C243 C 0.56632 0.72781 0.62631 0.0
N244 N 0.55458 0.85552 0.64969 0.0
O245 O 0.49737 0.43512 0.6064 0.0
H246 H 0.50937 0.62015 0.74239 0.0
H247 H 0.58302 0.717 0.58228 0.0
O248 O 0.53297 0.34778 0.7189 0.0
C249 C 0.49598 0.49993 0.55359 0.0
O250 O 0.53237 0.53068 0.5237 0.0
N251 N 0.61406 0.42169 0.65919 0.0
C252 C 0.70198 0.5005 0.66408 0.0
C253 C 0.68233 0.42404 0.71387 0.0
C254 C 0.63806 0.38204 0.70986 0.0
C255 C 0.63404 0.48184 0.60854 0.0
C256 C 0.67734 0.52615 0.61051 0.0
H257 H 0.6239 0.31737 0.74682 0.0
H258 H 0.61542 0.50087 0.5667 0.0
H259 H 0.57029 0.12593 0.69992 0.0
H260 H 0.54357 0.94383 0.52442 0.0
H261 H 0.51453 0.90592 0.72914 0.0
H262 H 0.70109 0.39495 0.75462 0.0
H263 H 0.69124 0.5816 0.57032 0.0
loop_
_geom_bond_atom_site_label_1
_geom_bond_atom_site_label_2
_geom_bond_distance
_geom_bond_site_symmetry_2
_ccdc_geom_bond_type
C0 C1 1.351 . S
C0 N3 1.368 . S
C0 H5 0.931 1_554 S
C1 C0 1.351 . S
C1 N2 1.373 . S
C1 H29 0.930 1_554 S
N2 C1 1.373 . S
N2 C4 1.340 . S
N3 C0 1.368 . S
N3 C4 1.321 . S
N3 Co6 2.135 . S
C4 N2 1.340 . S
C4 N3 1.321 . S
C4 H28 0.930 . S
H5 C0 0.931 1_556 S
Co6 N3 2.135 . S
Co6 N9 2.121 1_545 S
Co6 O14 2.043 1_455 S
Co6 O17 2.039 . S
Co6 N20 2.140 . S
C7 O8 1.227 . S
C7 O17 1.265 . S
O8 C7 1.227 . S
N9 Co6 2.121 1_565 S
N9 C11 1.375 . S
N9 C12 1.313 . S
C10 C11 1.338 . S
C10 N13 1.377 . S
C10 H30 0.930 . S
C11 N9 1.375 . S
C11 C10 1.338 . S
C11 H15 0.931 . S
C12 N9 1.313 . S
C12 N13 1.344 . S
C12 H16 0.930 . S
N13 C10 1.377 . S
N13 C12 1.344 . S
O14 Co6 2.043 1_655 S
O14 C18 1.248 1_655 S
H15 C11 0.931 . S
H16 C12 0.930 . S
O17 Co6 2.039 . S
O17 C7 1.265 . S
C18 O14 1.248 1_455 S
C18 O19 1.227 1_545 S
O19 C18 1.227 1_565 S
N20 Co6 2.140 . S
N20 C23 1.346 . S
N20 C24 1.345 1_545 S
C21 C22 1.387 . S
C21 C25 1.391 1_545 S
C22 C21 1.387 . S
C22 C23 1.369 . S
C22 H31 0.929 . S
C23 N20 1.346 . S
C23 C22 1.369 . S
C23 H26 0.928 . S
C24 N20 1.345 1_565 S
C24 C25 1.371 . S
C24 H27 0.931 . S
C25 C21 1.391 1_565 S
C25 C24 1.371 . S
C25 H32 0.930 . S
H26 C23 0.928 . S
H27 C24 0.931 . S
H28 C4 0.930 . S
H29 C1 0.930 1_556 S
H30 C10 0.930 . S
H31 C22 0.929 . S
H32 C25 0.930 . S
C33 C34 1.351 . S
C33 N36 1.368 . S
C33 H38 0.931 1_554 S
C34 C33 1.351 . S
C34 N35 1.373 . S
C34 H62 0.930 1_554 S
N35 C34 1.373 . S
N35 C37 1.340 . S
N36 C33 1.368 . S
N36 C37 1.321 . S
N36 Co39 2.135 . S
C37 N35 1.340 . S
C37 N36 1.321 . S
C37 H61 0.930 . S
H38 C33 0.931 1_556 S
Co39 N36 2.135 . S
Co39 N42 2.121 1_565 S
Co39 O47 2.055 . S
Co39 O50 2.039 . S
Co39 N53 2.140 . S
C40 O41 1.227 . S
C40 O50 1.265 . S
O41 C40 1.227 . S
N42 Co39 2.121 1_545 S
N42 C44 1.375 . S
N42 C45 1.313 . S
C43 C44 1.338 . S
C43 N46 1.377 . S
C43 H63 0.930 . S
C44 N42 1.375 . S
C44 C43 1.338 . S
C44 H48 0.931 . S
C45 N42 1.313 . S
C45 N46 1.344 . S
C45 H49 0.930 . S
N46 C43 1.377 . S
N46 C45 1.344 . S
O47 Co39 2.055 . S
O47 C51 1.253 . S
H48 C44 0.931 . S
H49 C45 0.930 . S
O50 Co39 2.039 . S
O50 C40 1.265 . S
C51 O47 1.253 . S
C51 O52 1.227 1_565 S
O52 C51 1.227 1_545 S
N53 Co39 2.140 . S
N53 C56 1.346 . S
N53 C57 1.345 1_565 S
C54 C55 1.387 . S
C54 C58 1.391 1_565 S
C55 C54 1.387 . S
C55 C56 1.369 . S
C55 H64 0.929 . S
C56 N53 1.346 . S
C56 C55 1.369 . S
C56 H59 0.928 . S
C57 N53 1.345 1_545 S
C57 C58 1.371 . S
C57 H60 0.931 . S
C58 C54 1.391 1_545 S
C58 C57 1.371 . S
C58 H65 0.930 . S
H59 C56 0.928 . S
H60 C57 0.931 . S
H61 C37 0.930 . S
H62 C34 0.930 1_556 S
H63 C43 0.930 . S
H64 C55 0.929 . S
H65 C58 0.930 . S
C66 C67 1.351 . S
C66 N69 1.368 . S
C66 H71 0.931 . S
C67 C66 1.351 . S
C67 N68 1.373 1_545 S
C67 H95 0.930 1_545 S
N68 C67 1.373 1_565 S
N68 C70 1.340 1_565 S
N69 C66 1.368 . S
N69 C70 1.321 . S
N69 Co72 2.135 . S
C70 N68 1.340 1_545 S
C70 N69 1.321 . S
C70 H94 0.930 . S
H71 C66 0.931 . S
Co72 N69 2.135 . S
Co72 N75 2.121 . S
Co72 O80 2.043 1_455 S
Co72 O83 2.039 . S
Co72 N86 2.140 . S
C73 O74 1.227 . S
C73 O83 1.265 . S
O74 C73 1.227 . S
N75 Co72 2.121 . S
N75 C77 1.375 . S
N75 C78 1.313 . S
C76 C77 1.338 . S
C76 N79 1.377 . S
C76 H96 0.930 . S
C77 N75 1.375 . S
C77 C76 1.338 . S
C77 H81 0.931 . S
C78 N75 1.313 . S
C78 N79 1.344 . S
C78 H82 0.930 . S
N79 C76 1.377 . S
N79 C78 1.344 . S
O80 Co72 2.043 1_655 S
O80 C84 1.248 1_655 S
H81 C77 0.931 . S
H82 C78 0.930 . S
O83 Co72 2.039 . S
O83 C73 1.265 . S
C84 O80 1.248 1_455 S
C84 O85 1.227 . S
O85 C84 1.227 . S
N86 Co72 2.140 . S
N86 C89 1.346 . S
N86 C90 1.345 . S
C87 C88 1.387 . S
C87 C91 1.391 . S
C88 C87 1.387 . S
C88 C89 1.369 . S
C88 H97 0.929 . S
C89 N86 1.346 . S
C89 C88 1.369 . S
C89 H92 0.928 . S
C90 N86 1.345 . S
C90 C91 1.371 . S
C90 H93 0.931 . S
C91 C87 1.391 . S
C91 C90 1.371 . S
C91 H98 0.930 . S
H92 C89 0.928 . S
H93 C90 0.931 . S
H94 C70 0.930 . S
H95 C67 0.930 1_565 S
H96 C76 0.930 . S
H97 C88 0.929 . S
H98 C91 0.930 . S
C99 C100 1.351 . S
C99 N102 1.368 . S
C99 H104 0.931 . S
C100 C99 1.351 . S
C100 N101 1.373 1_565 S
C100 H128 0.930 1_565 S
N101 C100 1.373 1_545 S
N101 C103 1.340 1_545 S
N102 C99 1.368 . S
N102 C103 1.321 . S
N102 Co105 2.135 . S
C103 N101 1.340 1_565 S
C103 N102 1.321 . S
C103 H127 0.930 . S
H104 C99 0.931 . S
Co105 N102 2.135 . S
Co105 N108 2.121 . S
Co105 O113 2.055 . S
Co105 O116 2.039 . S
Co105 N119 2.140 . S
C106 O107 1.227 . S
C106 O116 1.265 . S
O107 C106 1.227 . S
N108 Co105 2.121 . S
N108 C110 1.375 . S
N108 C111 1.313 . S
C109 C110 1.338 . S
C109 N112 1.377 . S
C109 H129 0.930 . S
C110 N108 1.375 . S
C110 C109 1.338 . S
C110 H114 0.931 . S
C111 N108 1.313 . S
C111 N112 1.344 . S
C111 H115 0.930 . S
N112 C109 1.377 . S
N112 C111 1.344 . S
O113 Co105 2.055 . S
O113 C117 1.253 . S
H114 C110 0.931 . S
H115 C111 0.930 . S
O116 Co105 2.039 . S
O116 C106 1.265 . S
C117 O113 1.253 . S
C117 O118 1.227 . S
O118 C117 1.227 . S
N119 Co105 2.140 . S
N119 C122 1.346 . S
N119 C123 1.345 . S
C120 C121 1.387 . S
C120 C124 1.391 . S
C121 C120 1.387 . S
C121 C122 1.369 . S
C121 H130 0.929 . S
C122 N119 1.346 . S
C122 C121 1.369 . S
C122 H125 0.928 . S
C123 N119 1.345 . S
C123 C124 1.371 . S
C123 H126 0.931 . S
C124 C120 1.391 . S
C124 C123 1.371 . S
C124 H131 0.930 . S
H125 C122 0.928 . S
H126 C123 0.931 . S
H127 C103 0.930 . S
H128 C100 0.930 1_545 S
H129 C109 0.930 . S
H130 C121 0.929 . S
H131 C124 0.930 . S
C132 C133 1.351 . S
C132 N135 1.368 . S
C132 H137 0.931 1_556 S
C133 C132 1.351 . S
C133 N134 1.373 . S
C133 H161 0.930 1_556 S
N134 C133 1.373 . S
N134 C136 1.340 . S
N135 C132 1.368 . S
N135 C136 1.321 . S
N135 Co138 2.135 . S
C136 N134 1.340 . S
C136 N135 1.321 . S
C136 H160 0.930 . S
H137 C132 0.931 1_554 S
Co138 N135 2.135 . S
Co138 N141 2.121 1_565 S
Co138 O146 2.043 1_655 S
Co138 O149 2.039 . S
Co138 N152 2.140 . S
C139 O140 1.227 . S
C139 O149 1.265 . S
O140 C139 1.227 . S
N141 Co138 2.121 1_545 S
N141 C143 1.375 . S
N141 C144 1.313 . S
C142 C143 1.338 . S
C142 N145 1.377 . S
C142 H162 0.930 . S
C143 N141 1.375 . S
C143 C142 1.338 . S
C143 H147 0.931 . S
C144 N141 1.313 . S
C144 N145 1.344 . S
C144 H148 0.930 . S
N145 C142 1.377 . S
N145 C144 1.344 . S
O146 Co138 2.043 1_455 S
O146 C150 1.248 1_455 S
H147 C143 0.931 . S
H148 C144 0.930 . S
O149 Co138 2.039 . S
O149 C139 1.265 . S
C150 O146 1.248 1_655 S
C150 O151 1.227 1_565 S
O151 C150 1.227 1_545 S
N152 Co138 2.140 . S
N152 C155 1.346 . S
N152 C156 1.345 1_565 S
C153 C154 1.387 . S
C153 C157 1.391 1_565 S
C154 C153 1.387 . S
C154 C155 1.369 . S
C154 H163 0.929 . S
C155 N152 1.346 . S
C155 C154 1.369 . S
C155 H158 0.928 . S
C156 N152 1.345 1_545 S
C156 C157 1.371 . S
C156 H159 0.931 . S
C157 C153 1.391 1_545 S
C157 C156 1.371 . S
C157 H164 0.930 . S
H158 C155 0.928 . S
H159 C156 0.931 . S
H160 C136 0.930 . S
H161 C133 0.930 1_554 S
H162 C142 0.930 . S
H163 C154 0.929 . S
H164 C157 0.930 . S
C165 C166 1.351 . S
C165 N168 1.368 . S
C165 H170 0.931 1_556 S
C166 C165 1.351 . S
C166 N167 1.373 . S
C166 H194 0.930 1_556 S
N167 C166 1.373 . S
N167 C169 1.340 . S
N168 C165 1.368 . S
N168 C169 1.321 . S
N168 Co171 2.135 . S
C169 N167 1.340 . S
C169 N168 1.321 . S
C169 H193 0.930 . S
H170 C165 0.931 1_554 S
Co171 N168 2.135 . S
Co171 N174 2.121 1_545 S
Co171 O179 2.055 . S
Co171 O182 2.039 . S
Co171 N185 2.140 . S
C172 O173 1.227 . S
C172 O182 1.265 . S
O173 C172 1.227 . S
N174 Co171 2.121 1_565 S
N174 C176 1.375 . S
N174 C177 1.313 . S
C175 C176 1.338 . S
C175 N178 1.377 . S
C175 H195 0.930 . S
C176 N174 1.375 . S
C176 C175 1.338 . S
C176 H180 0.931 . S
C177 N174 1.313 . S
C177 N178 1.344 . S
C177 H181 0.930 . S
N178 C175 1.377 . S
N178 C177 1.344 . S
O179 Co171 2.055 . S
O179 C183 1.253 . S
H180 C176 0.931 . S
H181 C177 0.930 . S
O182 Co171 2.039 . S
O182 C172 1.265 . S
C183 O179 1.253 . S
C183 O184 1.227 1_545 S
O184 C183 1.227 1_565 S
N185 Co171 2.140 . S
N185 C188 1.346 . S
N185 C189 1.345 1_545 S
C186 C187 1.387 . S
C186 C190 1.391 1_545 S
C187 C186 1.387 . S
C187 C188 1.369 . S
C187 H196 0.929 . S
C188 N185 1.346 . S
C188 C187 1.369 . S
C188 H191 0.928 . S
C189 N185 1.345 1_565 S
C189 C190 1.371 . S
C189 H192 0.931 . S
C190 C186 1.391 1_565 S
C190 C189 1.371 . S
C190 H197 0.930 . S
H191 C188 0.928 . S
H192 C189 0.931 . S
H193 C169 0.930 . S
H194 C166 0.930 1_554 S
H195 C175 0.930 . S
H196 C187 0.929 . S
H197 C190 0.930 . S
C198 C199 1.351 . S
C198 N201 1.368 . S
C198 H203 0.931 . S
C199 C198 1.351 . S
C199 N200 1.373 1_565 S
C199 H227 0.930 1_565 S
N200 C199 1.373 1_545 S
N200 C202 1.340 1_545 S
N201 C198 1.368 . S
N201 C202 1.321 . S
N201 Co204 2.135 . S
C202 N200 1.340 1_565 S
C202 N201 1.321 . S
C202 H226 0.930 . S
H203 C198 0.931 . S
Co204 N201 2.135 . S
Co204 N207 2.121 . S
Co204 O212 2.043 1_655 S
Co204 O215 2.039 . S
Co204 N218 2.140 . S
C205 O206 1.227 . S
C205 O215 1.265 . S
O206 C205 1.227 . S
N207 Co204 2.121 . S
N207 C209 1.375 . S
N207 C210 1.313 . S
C208 C209 1.338 . S
C208 N211 1.377 . S
C208 H228 0.930 . S
C209 N207 1.375 . S
C209 C208 1.338 . S
C209 H213 0.931 . S
C210 N207 1.313 . S
C210 N211 1.344 . S
C210 H214 0.930 . S
N211 C208 1.377 . S
N211 C210 1.344 . S
O212 Co204 2.043 1_455 S
O212 C216 1.248 1_455 S
H213 C209 0.931 . S
H214 C210 0.930 . S
O215 Co204 2.039 . S
O215 C205 1.265 . S
C216 O212 1.248 1_655 S
C216 O217 1.227 . S
O217 C216 1.227 . S
N218 Co204 2.140 . S
N218 C221 1.346 . S
N218 C222 1.345 . S
C219 C220 1.387 . S
C219 C223 1.391 . S
C220 C219 1.387 . S
C220 C221 1.369 . S
C220 H229 0.929 . S
C221 N218 1.346 . S
C221 C220 1.369 . S
C221 H224 0.928 . S
C222 N218 1.345 . S
C222 C223 1.371 . S
C222 H225 0.931 . S
C223 C219 1.391 . S
C223 C222 1.371 . S
C223 H230 0.930 . S
H224 C221 0.928 . S
H225 C222 0.931 . S
H226 C202 0.930 . S
H227 C199 0.930 1_545 S
H228 C208 0.930 . S
H229 C220 0.929 . S
H230 C223 0.930 . S
C231 C232 1.351 . S
C231 N234 1.368 . S
C231 H236 0.931 . S
C232 C231 1.351 . S
C232 N233 1.373 1_545 S
C232 H260 0.930 1_545 S
N233 C232 1.373 1_565 S
N233 C235 1.340 1_565 S
N234 C231 1.368 . S
N234 C235 1.321 . S
N234 Co237 2.135 . S
C235 N233 1.340 1_545 S
C235 N234 1.321 . S
C235 H259 0.930 . S
H236 C231 0.931 . S
Co237 N234 2.135 . S
Co237 N240 2.121 . S
Co237 O245 2.055 . S
Co237 O248 2.039 . S
Co237 N251 2.140 . S
C238 O239 1.227 . S
C238 O248 1.265 . S
O239 C238 1.227 . S
N240 Co237 2.121 . S
N240 C242 1.375 . S
N240 C243 1.313 . S
C241 C242 1.338 . S
C241 N244 1.377 . S
C241 H261 0.930 . S
C242 N240 1.375 . S
C242 C241 1.338 . S
C242 H246 0.931 . S
C243 N240 1.313 . S
C243 N244 1.344 . S
C243 H247 0.930 . S
N244 C241 1.377 . S
N244 C243 1.344 . S
O245 Co237 2.055 . S
O245 C249 1.253 . S
H246 C242 0.931 . S
H247 C243 0.930 . S
O248 Co237 2.039 . S
O248 C238 1.265 . S
C249 O245 1.253 . S
C249 O250 1.227 . S
O250 C249 1.227 . S
N251 Co237 2.140 . S
N251 C254 1.346 . S
N251 C255 1.345 . S
C252 C253 1.387 . S
C252 C256 1.391 . S
C253 C252 1.387 . S
C253 C254 1.369 . S
C253 H262 0.929 . S
C254 N251 1.346 . S
C254 C253 1.369 . S
C254 H257 0.928 . S
C255 N251 1.345 . S
C255 C256 1.371 . S
C255 H258 0.931 . S
C256 C252 1.391 . S
C256 C255 1.371 . S
C256 H263 0.930 . S
H257 C254 0.928 . S
H258 C255 0.931 . S
H259 C235 0.930 . S
H260 C232 0.930 1_565 S
H261 C241 0.930 . S
H262 C253 0.929 . S
H263 C256 0.930 . S
C21 C54 1.779 1_545 S
C120 C87 1.779 . S
C153 C186 1.779 1_565 S
C252 C219 1.779 . S
C18 C150 1.173 1_444 S
C51 C183 1.172 1_564 S
C84 C216 1.173 1_455 S
C117 C249 1.172 . S
C73 C7 1.648 . S
C106 C40 1.648 . S
C139 C205 1.648 . S
C172 C238 1.648 . S
N13 N2 2.057 . S
N46 N35 2.057 . S
N68 N79 2.057 . S
N101 N112 2.057 . S
N134 N145 2.057 . S
N178 N167 2.057 . S
N200 N211 2.057 . S
N244 N233 2.057 . S
