# Generated by pormake.
# Topology vbm, (6)-cn, num edge types: 1
# Building blocks:
#     Node 0, Type 0, BuildingBlock: MIFKUJ_clean_sbu_0, # of connection points: 6
#     Node 1, Type 0, BuildingBlock: MIFKUJ_clean_sbu_0, # of connection points: 6
#     Node 2, Type 0, BuildingBlock: MIFKUJ_clean_sbu_0, # of connection points: 6
#     Node 3, Type 0, BuildingBlock: MIFKUJ_clean_sbu_0, # of connection points: 6
#     Node 4, Type 0, BuildingBlock: MIFKUJ_clean_sbu_0, # of connection points: 6
#     Node 5, Type 0, BuildingBlock: MIFKUJ_clean_sbu_0, # of connection points: 6
#     Node 6, Type 0, BuildingBlock: MIFKUJ_clean_sbu_0, # of connection points: 6
#     Node 7, Type 0, BuildingBlock: MIFKUJ_clean_sbu_0, # of connection points: 6
#     Node 8, Type 0, BuildingBlock: MIFKUJ_clean_sbu_0, # of connection points: 6
#     Node 9, Type 0, BuildingBlock: MIFKUJ_clean_sbu_0, # of connection points: 6
#     Node 10, Type 0, BuildingBlock: MIFKUJ_clean_sbu_0, # of connection points: 6
#     Node 11, Type 0, BuildingBlock: MIFKUJ_clean_sbu_0, # of connection points: 6
#     Node 12, Type 0, BuildingBlock: MIFKUJ_clean_sbu_0, # of connection points: 6
#     Node 13, Type 0, BuildingBlock: MIFKUJ_clean_sbu_0, # of connection points: 6
#     Node 14, Type 0, BuildingBlock: MIFKUJ_clean_sbu_0, # of connection points: 6
#     Node 15, Type 0, BuildingBlock: MIFKUJ_clean_sbu_0, # of connection points: 6
#     Edge 16, Type (0, 0), BuildingBlock: AJUNOK_clean_linker_0, # of connection points: 2
#     Edge 17, Type (0, 0), BuildingBlock: AJUNOK_clean_linker_0, # of connection points: 2
#     Edge 18, Type (0, 0), BuildingBlock: AJUNOK_clean_linker_0, # of connection points: 2
#     Edge 19, Type (0, 0), BuildingBlock: AJUNOK_clean_linker_0, # of connection points: 2
#     Edge 20, Type (0, 0), BuildingBlock: AJUNOK_clean_linker_0, # of connection points: 2
#     Edge 21, Type (0, 0), BuildingBlock: AJUNOK_clean_linker_0, # of connection points: 2
#     Edge 22, Type (0, 0), BuildingBlock: AJUNOK_clean_linker_0, # of connection points: 2
#     Edge 23, Type (0, 0), BuildingBlock: AJUNOK_clean_linker_0, # of connection points: 2
#     Edge 24, Type (0, 0), BuildingBlock: AJUNOK_clean_linker_0, # of connection points: 2
#     Edge 25, Type (0, 0), BuildingBlock: AJUNOK_clean_linker_0, # of connection points: 2
#     Edge 26, Type (0, 0), BuildingBlock: AJUNOK_clean_linker_0, # of connection points: 2
#     Edge 27, Type (0, 0), BuildingBlock: AJUNOK_clean_linker_0, # of connection points: 2
#     Edge 28, Type (0, 0), BuildingBlock: AJUNOK_clean_linker_0, # of connection points: 2
#     Edge 29, Type (0, 0), BuildingBlock: AJUNOK_clean_linker_0, # of connection points: 2
#     Edge 30, Type (0, 0), BuildingBlock: AJUNOK_clean_linker_0, # of connection points: 2
#     Edge 31, Type (0, 0), BuildingBlock: AJUNOK_clean_linker_0, # of connection points: 2
#     Edge 32, Type (0, 0), BuildingBlock: AJUNOK_clean_linker_0, # of connection points: 2
#     Edge 33, Type (0, 0), BuildingBlock: AJUNOK_clean_linker_0, # of connection points: 2
#     Edge 34, Type (0, 0), BuildingBlock: AJUNOK_clean_linker_0, # of connection points: 2
#     Edge 35, Type (0, 0), BuildingBlock: AJUNOK_clean_linker_0, # of connection points: 2
#     Edge 36, Type (0, 0), BuildingBlock: AJUNOK_clean_linker_0, # of connection points: 2
#     Edge 37, Type (0, 0), BuildingBlock: AJUNOK_clean_linker_0, # of connection points: 2
#     Edge 38, Type (0, 0), BuildingBlock: AJUNOK_clean_linker_0, # of connection points: 2
#     Edge 39, Type (0, 0), BuildingBlock: AJUNOK_clean_linker_0, # of connection points: 2
#     Edge 40, Type (0, 0), BuildingBlock: AJUNOK_clean_linker_0, # of connection points: 2
#     Edge 41, Type (0, 0), BuildingBlock: AJUNOK_clean_linker_0, # of connection points: 2
#     Edge 42, Type (0, 0), BuildingBlock: AJUNOK_clean_linker_0, # of connection points: 2
#     Edge 43, Type (0, 0), BuildingBlock: AJUNOK_clean_linker_0, # of connection points: 2
#     Edge 44, Type (0, 0), BuildingBlock: AJUNOK_clean_linker_0, # of connection points: 2
#     Edge 45, Type (0, 0), BuildingBlock: AJUNOK_clean_linker_0, # of connection points: 2
#     Edge 46, Type (0, 0), BuildingBlock: AJUNOK_clean_linker_0, # of connection points: 2
#     Edge 47, Type (0, 0), BuildingBlock: AJUNOK_clean_linker_0, # of connection points: 2
#     Edge 48, Type (0, 0), BuildingBlock: AJUNOK_clean_linker_0, # of connection points: 2
#     Edge 49, Type (0, 0), BuildingBlock: AJUNOK_clean_linker_0, # of connection points: 2
#     Edge 50, Type (0, 0), BuildingBlock: AJUNOK_clean_linker_0, # of connection points: 2
#     Edge 51, Type (0, 0), BuildingBlock: AJUNOK_clean_linker_0, # of connection points: 2
#     Edge 52, Type (0, 0), BuildingBlock: AJUNOK_clean_linker_0, # of connection points: 2
#     Edge 53, Type (0, 0), BuildingBlock: AJUNOK_clean_linker_0, # of connection points: 2
#     Edge 54, Type (0, 0), BuildingBlock: AJUNOK_clean_linker_0, # of connection points: 2
#     Edge 55, Type (0, 0), BuildingBlock: AJUNOK_clean_linker_0, # of connection points: 2
#     Edge 56, Type (0, 0), BuildingBlock: AJUNOK_clean_linker_0, # of connection points: 2
#     Edge 57, Type (0, 0), BuildingBlock: AJUNOK_clean_linker_0, # of connection points: 2
#     Edge 58, Type (0, 0), BuildingBlock: AJUNOK_clean_linker_0, # of connection points: 2
#     Edge 59, Type (0, 0), BuildingBlock: AJUNOK_clean_linker_0, # of connection points: 2
#     Edge 60, Type (0, 0), BuildingBlock: AJUNOK_clean_linker_0, # of connection points: 2
#     Edge 61, Type (0, 0), BuildingBlock: AJUNOK_clean_linker_0, # of connection points: 2
#     Edge 62, Type (0, 0), BuildingBlock: AJUNOK_clean_linker_0, # of connection points: 2
#     Edge 63, Type (0, 0), BuildingBlock: AJUNOK_clean_linker_0, # of connection points: 2
# Relax obj value: 0.054
# Max RMSD: 0.110
# Mean RMSD: 0.110
data_MOF--net-vbm--node1-MIFKUJ_clean_sbu_0--edge1-AJUNOK_clean_linker_0
_symmetry_space_group_name_H-M    P1
_symmetry_Int_Tables_number       1
_symmetry_cell_setting            triclinic
loop_
_symmetry_equiv_pos_as_xyz
'x, y, z'
_cell_length_a     51.363158
_cell_length_b     14.794594
_cell_length_c     40.1016
_cell_angle_alpha  89.917299
_cell_angle_beta   90.135393
_cell_angle_gamma 90.073809
loop_
_atom_site_label
_atom_site_type_symbol
_atom_site_fract_x
_atom_site_fract_y
_atom_site_fract_z
_atom_type_partial_charge
Zn0 Zn 0.15409 0.22572 0.12075 0.0
Zn1 Zn 0.12115 0.98507 0.11201 0.0
C2 C 0.20623 0.21288 0.14863 0.0
O3 O 0.19337 0.20769 0.17684 0.0
C4 C 0.06654 0.95274 0.12896 0.0
O5 O 0.07164 0.87172 0.11743 0.0
O6 O 0.14462 0.35629 0.12706 0.0
O7 O 0.14148 0.18388 0.07491 0.0
O8 O 0.12344 0.04752 0.0684 0.0
C9 C 0.14785 0.41607 0.1047 0.0
O10 O 0.15695 0.39182 0.07547 0.0
O11 O 0.19355 0.21998 0.12146 0.0
C12 C 0.12554 0.79668 0.12886 0.0
O13 O 0.11928 0.82748 0.15846 0.0
O14 O 0.12679 0.85186 0.10461 0.0
O15 O 0.15 0.02952 0.14057 0.0
O16 O 0.13997 0.16118 0.16107 0.0
O17 O 0.08479 0.01109 0.13027 0.0
C18 C 0.13111 0.12296 0.05668 0.0
C19 C 0.14233 0.0766 0.1648 0.0
Zn20 Zn 0.87057 0.79251 0.12821 0.0
Zn21 Zn 0.9022 0.03271 0.12016 0.0
C22 C 0.81672 0.73265 0.14033 0.0
O23 O 0.82788 0.66573 0.15644 0.0
C24 C 0.95753 0.05395 0.12703 0.0
O25 O 0.95237 0.12311 0.10754 0.0
O26 O 0.88257 0.66392 0.13413 0.0
O27 O 0.882 0.83507 0.08212 0.0
O28 O 0.89856 0.97324 0.07624 0.0
C29 C 0.87668 0.60211 0.1135 0.0
O30 O 0.86261 0.62305 0.08721 0.0
O31 O 0.83097 0.7938 0.1274 0.0
C32 C 0.9036 0.22367 0.13552 0.0
O33 O 0.9142 0.19455 0.16337 0.0
O34 O 0.89754 0.16656 0.11316 0.0
O35 O 0.87372 0.99424 0.15056 0.0
O36 O 0.88287 0.85947 0.16938 0.0
O37 O 0.93873 0.00505 0.13727 0.0
C38 C 0.89132 0.89805 0.06399 0.0
C39 C 0.88037 0.94364 0.17446 0.0
Zn40 Zn 0.14425 0.7987 0.35212 0.0
Zn41 Zn 0.11417 0.03623 0.36589 0.0
C42 C 0.19665 0.7783 0.33195 0.0
O43 O 0.18412 0.75124 0.30519 0.0
C44 C 0.05967 0.03895 0.35503 0.0
O45 O 0.06791 0.088 0.32986 0.0
O46 O 0.13428 0.66864 0.34471 0.0
O47 O 0.12778 0.83804 0.39559 0.0
O48 O 0.13796 0.98214 0.39983 0.0
C49 C 0.13896 0.60944 0.36692 0.0
O50 O 0.15004 0.635 0.39494 0.0
O51 O 0.18358 0.80157 0.35742 0.0
C52 C 0.11845 0.22568 0.34603 0.0
O53 O 0.11544 0.19266 0.31592 0.0
O54 O 0.11852 0.17189 0.37081 0.0
O55 O 0.12151 0.00486 0.31895 0.0
O56 O 0.13621 0.8664 0.30929 0.0
O57 O 0.07644 0.00626 0.37511 0.0
C58 C 0.13786 0.90282 0.41187 0.0
C59 C 0.12861 0.94335 0.299 0.0
Zn60 Zn 0.86405 0.20613 0.36194 0.0
Zn61 Zn 0.89406 0.96755 0.36839 0.0
C62 C 0.81354 0.24099 0.3324 0.0
O63 O 0.82762 0.27917 0.30896 0.0
C64 C 0.94905 0.96851 0.3767 0.0
O65 O 0.94222 0.91905 0.40249 0.0
O66 O 0.87344 0.33765 0.35793 0.0
O67 O 0.87114 0.16525 0.40969 0.0
O68 O 0.88522 0.02343 0.41123 0.0
C69 C 0.87265 0.39236 0.3823 0.0
O70 O 0.86647 0.36186 0.41202 0.0
O71 O 0.82501 0.20275 0.35674 0.0
C72 C 0.88148 0.77795 0.35567 0.0
O73 O 0.87153 0.80886 0.32772 0.0
O74 O 0.89189 0.8329 0.37605 0.0
O75 O 0.87008 1.0025 0.3317 0.0
O76 O 0.88007 0.1447 0.3215 0.0
O77 O 0.93132 0.99854 0.35746 0.0
C78 C 0.87758 0.09451 0.42578 0.0
C79 C 0.87784 0.06329 0.31182 0.0
Zn80 Zn 0.89734 0.02437 0.8618 0.0
Zn81 Zn 0.87035 0.78206 0.85509 0.0
C82 C 0.95067 0.02769 0.87091 0.0
O83 O 0.94104 0.06233 0.89839 0.0
C84 C 0.8198 0.75687 0.8244 0.0
O85 O 0.83423 0.7397 0.79818 0.0
O86 O 0.89073 0.1566 0.86746 0.0
O87 O 0.87075 0.97696 0.83079 0.0
O88 O 0.8845 0.84537 0.81426 0.0
C89 C 0.90317 0.2163 0.85121 0.0
O90 O 0.92115 0.19069 0.83001 0.0
O91 O 0.93496 0.00446 0.84785 0.0
C92 C 0.87345 0.59268 0.86896 0.0
O93 O 0.85507 0.61264 0.89046 0.0
O94 O 0.88303 0.65528 0.85117 0.0
O95 O 0.88018 0.82518 0.90191 0.0
O96 O 0.89357 0.96777 0.90596 0.0
O97 O 0.83097 0.77773 0.85169 0.0
C98 C 0.8801 0.92791 0.80811 0.0
C99 C 0.88792 0.89234 0.9192 0.0
Zn100 Zn 0.1161 0.98707 0.85805 0.0
Zn101 Zn 0.15235 0.22955 0.8487 0.0
C102 C 0.06305 0.97508 0.86954 0.0
O103 O 0.07373 0.94321 0.89694 0.0
C104 C 0.20455 0.24492 0.82163 0.0
O105 O 0.19176 0.27127 0.79493 0.0
O106 O 0.12315 0.85522 0.86772 0.0
O107 O 0.1403 0.02701 0.82246 0.0
O108 O 0.13666 0.16943 0.80804 0.0
C109 C 0.12881 0.80047 0.84445 0.0
O110 O 0.1302 0.83085 0.81374 0.0
O111 O 0.07792 1.00022 0.84596 0.0
C112 C 0.14858 0.41755 0.86761 0.0
O113 O 0.15905 0.3877 0.89541 0.0
O114 O 0.14388 0.36188 0.84424 0.0
O115 O 0.14068 0.18938 0.89473 0.0
O116 O 0.1217 0.0547 0.90014 0.0
O117 O 0.19173 0.22089 0.84726 0.0
C118 C 0.13357 0.08624 0.80139 0.0
C119 C 0.13022 0.128 0.91253 0.0
Zn120 Zn 0.91324 0.96978 0.62217 0.0
Zn121 Zn 0.86391 0.21447 0.62789 0.0
C122 C 0.96613 0.97246 0.60027 0.0
O123 O 0.95405 0.95611 0.572 0.0
C124 C 0.81169 0.24183 0.65132 0.0
O125 O 0.82485 0.25579 0.67895 0.0
O126 O 0.90075 0.8397 0.62535 0.0
O127 O 0.89417 0.05622 0.65088 0.0
O128 O 0.87171 0.16291 0.67393 0.0
C129 C 0.91538 0.7709 0.62215 0.0
O130 O 0.9404 0.78311 0.61724 0.0
O131 O 0.95263 0.98089 0.62666 0.0
C132 C 0.86746 0.4121 0.624 0.0
O133 O 0.84194 0.40721 0.62434 0.0
O134 O 0.8806 0.3392 0.62476 0.0
O135 O 0.8778 0.13229 0.59021 0.0
O136 O 0.90218 0.01261 0.57744 0.0
O137 O 0.82426 0.22431 0.62473 0.0
C138 C 0.88466 0.09048 0.677 0.0
C139 C 0.88739 0.07776 0.56879 0.0
Zn140 Zn 0.13228 0.03226 0.61019 0.0
Zn141 Zn 0.14958 0.79807 0.62255 0.0
C142 C 0.07881 0.02198 0.59525 0.0
O143 O 0.0885 0.05601 0.56764 0.0
C144 C 0.20378 0.75304 0.61603 0.0
O145 O 0.19394 0.69402 0.59504 0.0
O146 O 0.13498 0.16754 0.60505 0.0
O147 O 0.15515 0.991 0.64688 0.0
O148 O 0.13209 0.87116 0.65917 0.0
C149 C 0.12953 0.22361 0.62798 0.0
O150 O 0.12277 0.19316 0.65751 0.0
O151 O 0.09434 0.00322 0.61901 0.0
C152 C 0.13695 0.61239 0.60443 0.0
O153 O 0.1384 0.64562 0.57412 0.0
O154 O 0.14022 0.66542 0.62907 0.0
O155 O 0.14434 0.83028 0.57348 0.0
O156 O 0.14219 0.97961 0.56703 0.0
O157 O 0.18841 0.8066 0.63102 0.0
C158 C 0.1419 0.94658 0.66777 0.0
C159 C 0.1444 0.90061 0.55515 0.0
Zn160 Zn 0.64922 0.70382 0.12233 0.0
Zn161 Zn 0.61204 0.46658 0.11341 0.0
C162 C 0.704 0.75376 0.12042 0.0
O163 O 0.69463 0.82518 0.10507 0.0
C164 C 0.55729 0.44486 0.13165 0.0
O165 O 0.56422 0.36043 0.13641 0.0
O166 O 0.64073 0.83714 0.12591 0.0
O167 O 0.64227 0.65826 0.07492 0.0
O168 O 0.62291 0.52349 0.07123 0.0
C169 C 0.63502 0.89165 0.10248 0.0
O170 O 0.63369 0.86128 0.07175 0.0
O171 O 0.68828 0.69247 0.13001 0.0
C172 C 0.62648 0.2792 0.1268 0.0
O173 O 0.63879 0.3153 0.15223 0.0
O174 O 0.61418 0.33035 0.10669 0.0
O175 O 0.6363 0.50217 0.14954 0.0
O176 O 0.6316 0.6454 0.16229 0.0
O177 O 0.5745 0.50208 0.12277 0.0
C178 C 0.63349 0.59211 0.05787 0.0
C179 C 0.62954 0.56244 0.17006 0.0
Zn180 Zn 0.37049 0.27818 0.12153 0.0
Zn181 Zn 0.39254 0.51686 0.11536 0.0
C182 C 0.31982 0.23451 0.14726 0.0
O183 O 0.33423 0.19737 0.17064 0.0
C184 C 0.4474 0.537 0.11987 0.0
O185 O 0.44164 0.59874 0.09746 0.0
O186 O 0.38212 0.15018 0.12792 0.0
O187 O 0.38062 0.31845 0.07436 0.0
O188 O 0.3909 0.46422 0.07049 0.0
C189 C 0.37322 0.0883 0.10921 0.0
O190 O 0.35755 0.11048 0.08458 0.0
O191 O 0.33109 0.27525 0.12333 0.0
C192 C 0.39321 0.70614 0.13328 0.0
O193 O 0.40346 0.67543 0.16111 0.0
O194 O 0.38708 0.6504 0.11052 0.0
O195 O 0.36445 0.46782 0.14395 0.0
O196 O 0.38328 0.34604 0.16232 0.0
O197 O 0.42892 0.49208 0.13302 0.0
C198 C 0.3871 0.38752 0.05718 0.0
C199 C 0.37439 0.4244 0.16788 0.0
Zn200 Zn 0.64754 0.2851 0.35247 0.0
Zn201 Zn 0.62718 0.52499 0.35558 0.0
C202 C 0.70047 0.27412 0.32561 0.0
O203 O 0.68875 0.26873 0.29652 0.0
C204 C 0.57355 0.5351 0.36107 0.0
O205 O 0.58208 0.58297 0.38638 0.0
O206 O 0.63616 0.15713 0.34732 0.0
O207 O 0.63651 0.32578 0.39868 0.0
O208 O 0.62924 0.47397 0.4011 0.0
C209 C 0.64808 0.09412 0.36239 0.0
O210 O 0.66764 0.11477 0.38216 0.0
O211 O 0.68686 0.28446 0.35176 0.0
C212 C 0.62301 0.71522 0.34077 0.0
O213 O 0.60673 0.68769 0.31759 0.0
O214 O 0.634 0.65726 0.3594 0.0
O215 O 0.65328 0.47295 0.32512 0.0
O216 O 0.63344 0.34829 0.31184 0.0
O217 O 0.58993 0.50286 0.34059 0.0
C218 C 0.63113 0.39712 0.415 0.0
C219 C 0.64142 0.42614 0.30364 0.0
Zn220 Zn 0.36168 0.72588 0.34766 0.0
Zn221 Zn 0.40885 0.47632 0.34816 0.0
C222 C 0.31017 0.77632 0.33105 0.0
O223 O 0.32344 0.81165 0.30626 0.0
C224 C 0.46245 0.46329 0.36423 0.0
O225 O 0.45151 0.43305 0.39161 0.0
O226 O 0.37587 0.85481 0.34765 0.0
O227 O 0.37705 0.64439 0.38544 0.0
O228 O 0.40088 0.51977 0.3941 0.0
C229 C 0.37073 0.90912 0.3713 0.0
O230 O 0.35791 0.87868 0.39732 0.0
O231 O 0.3226 0.73535 0.35401 0.0
C232 C 0.39804 0.29317 0.36905 0.0
O233 O 0.4064 0.32802 0.39718 0.0
O234 O 0.39672 0.34413 0.34341 0.0
O235 O 0.38909 0.56706 0.32273 0.0
O236 O 0.36624 0.67404 0.30093 0.0
O237 O 0.44777 0.48745 0.34025 0.0
C238 C 0.38797 0.58723 0.40505 0.0
C239 C 0.37888 0.60129 0.29704 0.0
Zn240 Zn 0.4027 0.53595 0.85706 0.0
Zn241 Zn 0.37077 0.29269 0.84749 0.0
C242 C 0.45516 0.54275 0.8706 0.0
O243 O 0.44344 0.57946 0.89631 0.0
C244 C 0.31819 0.26876 0.82 0.0
O245 O 0.3305 0.25942 0.79153 0.0
O246 O 0.39617 0.66897 0.86389 0.0
O247 O 0.37722 0.49754 0.82243 0.0
O248 O 0.3837 0.35831 0.80613 0.0
C249 C 0.4103 0.7306 0.85121 0.0
O250 O 0.43081 0.70748 0.83371 0.0
O251 O 0.44108 0.51628 0.84631 0.0
C252 C 0.37529 0.10383 0.86246 0.0
O253 O 0.35638 0.12316 0.88328 0.0
O254 O 0.38449 0.16629 0.8442 0.0
O255 O 0.38043 0.33675 0.89391 0.0
O256 O 0.39641 0.47525 0.90031 0.0
O257 O 0.33132 0.28479 0.84627 0.0
C258 C 0.38366 0.44248 0.79988 0.0
C259 C 0.38892 0.40026 0.91237 0.0
Zn260 Zn 0.6207 0.46326 0.85556 0.0
Zn261 Zn 0.65487 0.71475 0.85182 0.0
C262 C 0.568 0.49144 0.87289 0.0
O263 O 0.57902 0.47302 0.90164 0.0
C264 C 0.70628 0.72856 0.82099 0.0
O265 O 0.69278 0.7472 0.79398 0.0
O266 O 0.62599 0.3259 0.85542 0.0
O267 O 0.64536 0.52279 0.82467 0.0
O268 O 0.63878 0.66254 0.80957 0.0
C269 C 0.61885 0.27753 0.88007 0.0
O270 O 0.6087 0.31782 0.90609 0.0
O271 O 0.58216 0.49176 0.84684 0.0
C272 C 0.63143 0.8839 0.8761 0.0
O273 O 0.62072 0.83065 0.89844 0.0
O274 O 0.64588 0.84897 0.85387 0.0
O275 O 0.64632 0.653 0.8966 0.0
O276 O 0.6298 0.51316 0.89993 0.0
O277 O 0.69418 0.71081 0.84786 0.0
C278 C 0.63663 0.57859 0.80358 0.0
C279 C 0.63855 0.58477 0.9135 0.0
Zn280 Zn 0.39503 0.47359 0.60886 0.0
Zn281 Zn 0.36961 0.71089 0.61279 0.0
C282 C 0.45111 0.45176 0.61766 0.0
O283 O 0.44666 0.37386 0.60305 0.0
C284 C 0.31675 0.75965 0.63346 0.0
O285 O 0.32873 0.81799 0.65282 0.0
O286 O 0.38975 0.34017 0.60283 0.0
O287 O 0.36846 0.51413 0.64138 0.0
O288 O 0.38421 0.64723 0.6537 0.0
C289 C 0.39532 0.27898 0.62388 0.0
O290 O 0.40683 0.30134 0.65198 0.0
O291 O 0.43201 0.5041 0.62357 0.0
C292 C 0.37002 0.90094 0.59888 0.0
O293 O 0.35291 0.87597 0.57628 0.0
O294 O 0.38033 0.84086 0.61727 0.0
O295 O 0.37799 0.67114 0.56527 0.0
O296 O 0.38936 0.52639 0.56435 0.0
O297 O 0.33028 0.70678 0.61548 0.0
C298 C 0.37758 0.56824 0.66275 0.0
C299 C 0.38373 0.59939 0.54941 0.0
Zn300 Zn 0.61497 0.53448 0.61587 0.0
Zn301 Zn 0.64672 0.29314 0.62231 0.0
C302 C 0.55967 0.55988 0.622 0.0
O303 O 0.56536 0.63129 0.60394 0.0
C304 C 0.69802 0.26584 0.64961 0.0
O305 O 0.68408 0.24192 0.6756 0.0
O306 O 0.62093 0.66746 0.6094 0.0
O307 O 0.64275 0.4906 0.64599 0.0
O308 O 0.63341 0.35542 0.66375 0.0
C309 C 0.61459 0.72563 0.63116 0.0
O310 O 0.60307 0.69847 0.65863 0.0
O311 O 0.57802 0.50799 0.63152 0.0
C312 C 0.64372 0.10168 0.60933 0.0
O313 O 0.66144 0.12066 0.5868 0.0
O314 O 0.63455 0.16524 0.62694 0.0
O315 O 0.6354 0.338 0.57641 0.0
O316 O 0.61861 0.47626 0.57206 0.0
O317 O 0.68624 0.29161 0.62334 0.0
C318 C 0.63499 0.43956 0.66915 0.0
C319 C 0.62578 0.40216 0.55909 0.0
C320 C 0.24862 0.25176 0.12119 0.0
C321 C 0.23516 0.21522 0.14862 0.0
C322 C 0.27589 0.25809 0.12108 0.0
C323 C 0.2909 0.22727 0.14825 0.0
H324 H 0.23801 0.2771 0.09975 0.0
H325 H 0.28523 0.28735 0.0994 0.0
S326 S 0.26512 0.12143 0.22559 0.0
N327 N 0.23894 0.14504 0.20329 0.0
N328 N 0.29007 0.15618 0.20307 0.0
C329 C 0.27767 0.18918 0.17566 0.0
C330 C 0.24987 0.1834 0.17585 0.0
C331 C 0.77603 0.81434 0.12334 0.0
C332 C 0.78789 0.73606 0.13632 0.0
C333 C 0.74902 0.8192 0.11852 0.0
C334 C 0.73257 0.74597 0.12638 0.0
H335 H 0.78769 0.87277 0.1168 0.0
H336 H 0.74103 0.88128 0.10847 0.0
S337 S 0.75374 0.52433 0.16054 0.0
N338 N 0.78096 0.5828 0.15669 0.0
N339 N 0.73026 0.59202 0.14762 0.0
C340 C 0.74411 0.66716 0.13946 0.0
C341 C 0.7717 0.66222 0.14443 0.0
C342 C 0.2672 0.76273 0.36069 0.0
C343 C 0.28123 0.78071 0.33125 0.0
C344 C 0.23981 0.7644 0.36108 0.0
C345 C 0.22548 0.78219 0.33188 0.0
H346 H 0.27742 0.7472 0.38365 0.0
H347 H 0.22981 0.74943 0.3842 0.0
S348 S 0.2526 0.83753 0.24861 0.0
N349 N 0.27841 0.82048 0.27237 0.0
N350 N 0.22722 0.82185 0.27312 0.0
C351 C 0.23922 0.8014 0.30243 0.0
C352 C 0.26701 0.80118 0.30211 0.0
C353 C 0.77202 0.27141 0.30139 0.0
C354 C 0.78467 0.24677 0.33124 0.0
C355 C 0.74483 0.27966 0.29976 0.0
C356 C 0.7292 0.26499 0.32803 0.0
H357 H 0.78318 0.2842 0.27898 0.0
H358 H 0.73604 0.29869 0.27619 0.0
S359 S 0.75258 0.19827 0.41226 0.0
N360 N 0.77932 0.2068 0.38973 0.0
N361 N 0.72838 0.22325 0.38675 0.0
C362 C 0.74157 0.24023 0.35806 0.0
C363 C 0.76923 0.23077 0.35962 0.0
C364 C 0.74897 0.73783 0.8513 0.0
C365 C 0.73523 0.73368 0.8209 0.0
C366 C 0.77618 0.74598 0.85213 0.0
C367 C 0.79092 0.74931 0.8226 0.0
H368 H 0.73862 0.73593 0.8748 0.0
H369 H 0.78572 0.74912 0.87623 0.0
S370 S 0.76454 0.73928 0.73632 0.0
N371 N 0.73857 0.73261 0.76038 0.0
N372 N 0.78965 0.74717 0.76192 0.0
C373 C 0.77748 0.74437 0.79197 0.0
C374 C 0.7497 0.73683 0.79113 0.0
C375 C 0.27463 0.26313 0.79164 0.0
C376 C 0.2893 0.26076 0.82134 0.0
C377 C 0.24736 0.25719 0.79204 0.0
C378 C 0.23353 0.24755 0.82212 0.0
H379 H 0.28424 0.27077 0.76778 0.0
H380 H 0.23706 0.26026 0.76846 0.0
S381 S 0.26264 0.23511 0.90691 0.0
N382 N 0.28785 0.24646 0.88179 0.0
N383 N 0.23671 0.23464 0.8825 0.0
C384 C 0.24795 0.24369 0.85202 0.0
C385 C 0.27575 0.25058 0.85164 0.0
C386 C 0.74152 0.26325 0.62088 0.0
C387 C 0.72697 0.26062 0.65063 0.0
C388 C 0.76882 0.25636 0.62122 0.0
C389 C 0.78274 0.24772 0.65135 0.0
H390 H 0.73175 0.26975 0.59703 0.0
H391 H 0.77909 0.25858 0.59767 0.0
S392 S 0.75396 0.23811 0.73626 0.0
N393 N 0.72869 0.24896 0.71111 0.0
N394 N 0.77974 0.23666 0.71181 0.0
C395 C 0.76842 0.24547 0.68129 0.0
C396 C 0.74065 0.25169 0.68091 0.0
C397 C 0.24847 0.69101 0.60677 0.0
C398 C 0.23239 0.75602 0.62191 0.0
C399 C 0.27554 0.69215 0.61112 0.0
C400 C 0.28783 0.75839 0.63082 0.0
H401 H 0.24017 0.63855 0.59121 0.0
H402 H 0.2869 0.64069 0.59865 0.0
S403 S 0.25465 0.94401 0.67633 0.0
N404 N 0.2308 0.88844 0.65779 0.0
N405 N 0.28166 0.89072 0.66597 0.0
C406 C 0.272 0.82346 0.64647 0.0
C407 C 0.24433 0.82227 0.64201 0.0
C408 C 0.11566 0.04201 0.25144 0.0
C409 C 0.12958 0.96623 0.26309 0.0
C410 C 0.11933 0.07568 0.21924 0.0
C411 C 0.13679 0.03414 0.19725 0.0
H412 H 0.10226 0.07736 0.26761 0.0
H413 H 0.10874 0.13572 0.21175 0.0
S414 S 0.17631 0.82918 0.2141 0.0
N415 N 0.16011 0.84663 0.249 0.0
N416 N 0.16717 0.91045 0.1884 0.0
C417 C 0.14982 0.9555 0.20779 0.0
C418 C 0.14609 0.92114 0.24068 0.0
C419 C 0.89076 0.95403 0.26792 0.0
C420 C 0.88123 0.03993 0.27638 0.0
C421 C 0.89113 0.9246 0.23481 0.0
C422 C 0.88194 0.98007 0.20882 0.0
H423 H 0.8978 0.90873 0.28713 0.0
H424 H 0.89822 0.85712 0.2297 0.0
S425 S 0.85674 0.21437 0.2178 0.0
N426 N 0.86397 0.18271 0.25621 0.0
N427 N 0.86424 0.12764 0.19383 0.0
C428 C 0.87342 0.06805 0.21684 0.0
C429 C 0.87323 0.09805 0.25065 0.0
C430 C 0.88587 0.10045 0.73884 0.0
C431 C 0.88699 0.04683 0.71001 0.0
C432 C 0.88464 0.06116 0.77052 0.0
C433 C 0.88447 0.96665 0.77462 0.0
H434 H 0.88529 0.17349 0.73691 0.0
H435 H 0.88311 0.10541 0.7919 0.0
S436 S 0.88662 0.79624 0.70699 0.0
N437 N 0.88761 0.89462 0.68755 0.0
N438 N 0.88572 0.82035 0.74713 0.0
C439 C 0.88635 0.91218 0.74606 0.0
C440 C 0.88751 0.9524 0.71374 0.0
C441 C 0.15035 0.09522 0.74365 0.0
C442 C 0.13244 0.05879 0.76631 0.0
C443 C 0.15278 0.05928 0.71163 0.0
C444 C 0.13733 0.9858 0.7011 0.0
H445 H 0.16343 0.14899 0.75119 0.0
H446 H 0.1675 0.08783 0.6954 0.0
S447 S 0.08465 0.87644 0.74991 0.0
N448 N 0.09706 0.95285 0.77542 0.0
N449 N 0.1015 0.88458 0.71499 0.0
C450 C 0.11833 0.95208 0.72307 0.0
C451 C 0.11592 0.98884 0.75576 0.0
C452 C 0.64562 0.55005 0.26164 0.0
C453 C 0.63485 0.46594 0.27084 0.0
C454 C 0.64226 0.58483 0.22944 0.0
C455 C 0.62806 0.53655 0.20539 0.0
H456 H 0.65765 0.58779 0.27895 0.0
H457 H 0.65212 0.64711 0.22283 0.0
S458 S 0.59197 0.32235 0.21825 0.0
N459 N 0.60657 0.34138 0.25429 0.0
N460 N 0.60025 0.40762 0.19387 0.0
C461 C 0.61561 0.45612 0.21489 0.0
C462 C 0.619 0.42051 0.24761 0.0
C463 C 0.36451 0.59159 0.23788 0.0
C464 C 0.37988 0.55686 0.26397 0.0
C465 C 0.36329 0.54873 0.20694 0.0
C466 C 0.37738 0.46911 0.20064 0.0
H467 H 0.35281 0.65168 0.24147 0.0
H468 H 0.35075 0.57774 0.18799 0.0
S469 S 0.4227 0.35514 0.2593 0.0
N470 N 0.41112 0.44159 0.28059 0.0
N471 N 0.40859 0.36018 0.22231 0.0
C472 C 0.39349 0.43482 0.22607 0.0
C473 C 0.39483 0.47895 0.25772 0.0
C474 C 0.37828 0.41499 0.73873 0.0
C475 C 0.38444 0.47435 0.7649 0.0
C476 C 0.37643 0.44603 0.70582 0.0
C477 C 0.3811 0.53732 0.69765 0.0
H478 H 0.37398 0.34458 0.74374 0.0
H479 H 0.37085 0.39799 0.68676 0.0
S480 S 0.39979 0.71881 0.75692 0.0
N481 N 0.39641 0.62779 0.78038 0.0
N482 N 0.39339 0.68587 0.71846 0.0
C483 C 0.38819 0.59676 0.72346 0.0
C484 C 0.38976 0.56531 0.75706 0.0
C485 C 0.63789 0.60214 0.742 0.0
C486 C 0.63152 0.54685 0.7693 0.0
C487 C 0.63798 0.56753 0.70955 0.0
C488 C 0.63146 0.47661 0.70313 0.0
H489 H 0.64429 0.67117 0.74582 0.0
H490 H 0.64429 0.61168 0.68957 0.0
S491 S 0.60913 0.30849 0.7657 0.0
N492 N 0.61559 0.40023 0.78759 0.0
N493 N 0.61548 0.33514 0.72656 0.0
C494 C 0.62326 0.42251 0.73 0.0
C495 C 0.62334 0.4577 0.76308 0.0
C496 C 0.11129 0.08419 0.9672 0.0
C497 C 0.12872 0.13882 0.94914 0.0
C498 C 0.11147 0.08308 0.00197 0.0
C499 C 0.12905 0.13665 0.02024 0.0
H500 H 0.09779 0.03979 0.95441 0.0
H501 H 0.09812 0.03781 0.01459 0.0
S502 S 0.17734 0.29725 0.98505 0.0
N503 N 0.16299 0.25234 0.95212 0.0
N504 N 0.16325 0.25049 0.01779 0.0
C505 C 0.14563 0.1955 0.00264 0.0
C506 C 0.14548 0.19653 0.96702 0.0
C507 C 0.90299 0.95513 0.97339 0.0
C508 C 0.89035 0.88511 0.95595 0.0
C509 C 0.90396 0.95626 0.00809 0.0
C510 C 0.89231 0.88754 0.02721 0.0
H511 H 0.91191 0.01108 0.96021 0.0
H512 H 0.91351 0.01315 0.01994 0.0
S513 S 0.85896 0.68361 -0.00616 0.0
N514 N 0.86758 0.74123 0.96034 0.0
N515 N 0.86931 0.74341 0.02599 0.0
C516 C 0.88065 0.81452 0.0102 0.0
C517 C 0.8797 0.8133 0.97453 0.0
C518 C 0.13183 0.82323 0.46665 0.0
C519 C 0.14339 0.89311 0.44789 0.0
C520 C 0.13344 0.8226 0.5016 0.0
C521 C 0.14655 0.89197 0.5187 0.0
H522 H 0.12036 0.77136 0.45445 0.0
H523 H 0.12316 0.77052 0.51532 0.0
S524 S 0.18447 0.07936 0.48101 0.0
N525 N 0.17172 0.02519 0.44893 0.0
N526 N 0.17437 0.02445 0.51441 0.0
C527 C 0.15986 0.95789 0.50015 0.0
C528 C 0.1584 0.95828 0.46476 0.0
C529 C 0.88148 0.16854 0.51646 0.0
C530 C 0.88065 0.08513 0.53325 0.0
C531 C 0.87936 0.17232 0.4815 0.0
C532 C 0.8763 0.09277 0.46259 0.0
H533 H 0.88513 0.23033 0.53017 0.0
H534 H 0.88132 0.23717 0.46918 0.0
S535 S 0.86809 0.86001 0.49598 0.0
N536 N 0.87321 0.92337 0.52918 0.0
N537 N 0.8689 0.93003 0.46394 0.0
C538 C 0.87352 0.01002 0.4796 0.0
C539 C 0.87578 0.00633 0.51485 0.0
C540 C 0.63717 0.67166 0.00269 0.0
C541 C 0.63682 0.591 0.0213 0.0
C542 C 0.63853 0.6698 0.9677 0.0
C543 C 0.63968 0.58723 0.95033 0.0
H544 H 0.63557 0.73636 0.01511 0.0
H545 H 0.63789 0.73321 0.95421 0.0
S546 S 0.64364 0.35799 -0.01201 0.0
N547 N 0.64065 0.42699 0.02001 0.0
N548 N 0.64346 0.42359 0.95472 0.0
C549 C 0.64078 0.50654 0.96889 0.0
C550 C 0.63928 0.5084 0.00425 0.0
C551 C 0.40146 0.45731 0.9685 0.0
C552 C 0.38985 0.38895 0.94914 0.0
C553 C 0.40123 0.4538 0.00321 0.0
C554 C 0.38938 0.38177 0.0204 0.0
H555 H 0.41052 0.51548 0.95686 0.0
H556 H 0.41008 0.50948 0.01663 0.0
S557 S 0.35823 0.18087 0.98174 0.0
N558 N 0.36766 0.24329 0.94979 0.0
N559 N 0.3672 0.23688 0.01547 0.0
C560 C 0.37871 0.31052 0.00153 0.0
C561 C 0.37892 0.31411 0.96586 0.0
C562 C 0.64052 0.32696 0.47062 0.0
C563 C 0.62728 0.39197 0.45142 0.0
C564 C 0.63916 0.32802 0.50556 0.0
C565 C 0.62431 0.39365 0.52237 0.0
H566 H 0.65288 0.27738 0.45868 0.0
H567 H 0.65059 0.27925 0.51944 0.0
S568 S 0.58252 0.569 0.48302 0.0
N569 N 0.59676 0.51745 0.45154 0.0
N570 N 0.59346 0.51783 0.5168 0.0
C571 C 0.60959 0.45501 0.50323 0.0
C572 C 0.61129 0.45465 0.46786 0.0
C573 C 0.38571 0.67799 0.49362 0.0
C574 C 0.38278 0.59809 0.51247 0.0
C575 C 0.38634 0.67544 0.45854 0.0
C576 C 0.38409 0.59293 0.4414 0.0
H577 H 0.38828 0.74239 0.50603 0.0
H578 H 0.38957 0.73763 0.44485 0.0
S579 S 0.37152 0.36738 0.47863 0.0
N580 N 0.37444 0.43587 0.51084 0.0
N581 N 0.37559 0.43179 0.44545 0.0
C582 C 0.37967 0.51374 0.45987 0.0
C583 C 0.37904 0.51611 0.49528 0.0
C584 C 1.00489 0.09355 0.12824 0.0
C585 C 0.98513 0.02891 0.1334 0.0
C586 C 0.03131 0.06959 0.12908 0.0
C587 C 0.03904 0.97962 0.13458 0.0
H588 H 0.99993 0.16295 0.12241 0.0
H589 H 0.04568 0.12113 0.12355 0.0
S590 S 0.99525 0.78645 0.15346 0.0
N591 N 0.97534 0.87254 0.14748 0.0
N592 N 0.02494 0.82722 0.14849 0.0
C593 C 0.01958 0.91528 0.14168 0.0
C594 C 0.99266 0.93998 0.14129 0.0
C595 C 0.99624 0.94779 0.39065 0.0
C596 C 0.97702 0.98807 0.3704 0.0
C597 C 0.02281 0.96459 0.3855 0.0
C598 C 0.03135 0.02244 0.35988 0.0
H599 H 0.99081 0.90249 0.41071 0.0
H600 H 0.03673 0.93161 0.40178 0.0
S601 S 0.98892 0.1466 0.30015 0.0
N602 N 0.96845 0.08955 0.32386 0.0
N603 N 0.01825 0.12126 0.31417 0.0
C604 C 0.01233 0.06354 0.33946 0.0
C605 C 0.98525 0.04635 0.34471 0.0
C606 C 0.02042 0.99126 0.89811 0.0
C607 C 0.03439 0.98724 0.86804 0.0
C608 C 0.99349 0.0041 0.89842 0.0
C609 C 0.97913 0.01209 0.86866 0.0
H610 H 0.0304 0.9858 0.92186 0.0
H611 H 0.98383 0.00725 0.92238 0.0
S612 S 1.00613 0.00382 0.78298 0.0
N613 N 0.03181 0.99135 0.80746 0.0
N614 N 0.9808 0.01378 0.80805 0.0
C615 C 0.99267 0.0068 0.83825 0.0
C616 C 0.02038 0.99507 0.83794 0.0
C617 C 1.00791 0.99799 0.57014 0.0
C618 C 0.99491 0.98338 0.60052 0.0
C619 C 0.03492 0.00983 0.56892 0.0
C620 C 0.05029 0.00665 0.59798 0.0
H621 H 0.99713 1.00145 0.54692 0.0
H622 H 0.04378 0.02146 0.5448 0.0
S623 S 0.02605 0.96775 0.68401 0.0
N624 N 0.99957 0.96502 0.66056 0.0
N625 N 0.05052 0.9863 0.65823 0.0
C626 C 0.03767 0.99088 0.62861 0.0
C627 C 0.00997 0.97968 0.6299 0.0
C628 C 0.49475 0.57469 0.11533 0.0
C629 C 0.47518 0.51591 0.12701 0.0
C630 C 0.52121 0.55289 0.11825 0.0
C631 C 0.52931 0.47085 0.13271 0.0
H632 H 0.48964 0.63754 0.10309 0.0
H633 H 0.53535 0.59955 0.10798 0.0
S634 S 0.486 0.29688 0.17014 0.0
N635 N 0.46587 0.37486 0.15589 0.0
N636 N 0.51557 0.33343 0.1612 0.0
C637 C 0.51001 0.41309 0.14584 0.0
C638 C 0.483 0.43573 0.14308 0.0
C639 C 0.50315 0.50972 0.33354 0.0
C640 C 0.49123 0.47391 0.36239 0.0
C641 C 0.53014 0.52604 0.33243 0.0
C642 C 0.54596 0.50804 0.36025 0.0
H643 H 0.49151 0.52703 0.31191 0.0
H644 H 0.5385 0.55596 0.31022 0.0
S645 S 0.52543 0.40514 0.44026 0.0
N646 N 0.49829 0.41403 0.41841 0.0
N647 N 0.54858 0.44608 0.41612 0.0
C648 C 0.53459 0.46917 0.38859 0.0
C649 C 0.50733 0.45167 0.38972 0.0
C650 C 0.49778 0.5091 0.84169 0.0
C651 C 0.48401 0.53208 0.87085 0.0
C652 C 0.52506 0.49841 0.84207 0.0
C653 C 0.5395 0.50928 0.87171 0.0
H654 H 0.48743 0.49919 0.81841 0.0
H655 H 0.53479 0.47962 0.81917 0.0
S656 S 0.51297 0.57192 0.95468 0.0
N657 N 0.48726 0.56695 0.93007 0.0
N658 N 0.53798 0.54733 0.93069 0.0
C659 C 0.52597 0.53346 0.90086 0.0
C660 C 0.4984 0.5447 0.90046 0.0
C661 C 0.4985 0.41628 0.62455 0.0
C662 C 0.4784 0.48103 0.62385 0.0
C663 C 0.52479 0.44212 0.62615 0.0
C664 C 0.53201 0.53381 0.62648 0.0
H665 H 0.49396 0.3449 0.62295 0.0
H666 H 0.53955 0.38992 0.62534 0.0
S667 S 0.48709 0.72992 0.62847 0.0
N668 N 0.46766 0.64104 0.62656 0.0
N669 N 0.51703 0.68939 0.62878 0.0
C670 C 0.51215 0.59914 0.6274 0.0
C671 C 0.48537 0.57285 0.62634 0.0
C672 C 0.13468 0.666 0.09104 0.0
C673 C 0.13088 0.69915 0.12357 0.0
C674 C 0.14009 0.57455 0.08523 0.0
C675 C 0.14184 0.5123 0.11168 0.0
H676 H 0.13349 0.71095 0.06975 0.0
H677 H 0.14281 0.5526 0.05972 0.0
S678 S 0.13461 0.56491 0.20176 0.0
N679 N 0.12994 0.66251 0.18274 0.0
N680 N 0.14004 0.49085 0.17185 0.0
C681 C 0.13817 0.54447 0.14439 0.0
C682 C 0.13272 0.63774 0.15032 0.0
C683 C 0.88586 0.34987 0.10062 0.0
C684 C 0.8979 0.32115 0.13039 0.0
C685 C 0.87934 0.44068 0.09536 0.0
C686 C 0.88463 0.50695 0.11958 0.0
H687 H 0.88116 0.30175 0.08118 0.0
H688 H 0.86995 0.45875 0.07208 0.0
S689 S 0.91628 0.46787 0.20179 0.0
N690 N 0.91514 0.36694 0.18439 0.0
N691 N 0.90298 0.53756 0.17449 0.0
C692 C 0.89696 0.47953 0.14936 0.0
C693 C 0.90355 0.38678 0.15476 0.0
C694 C 0.13264 0.35625 0.38143 0.0
C695 C 0.12261 0.32408 0.35099 0.0
C696 C 0.13766 0.44845 0.38635 0.0
C697 C 0.13272 0.51255 0.36112 0.0
H698 H 0.13706 0.30975 0.40155 0.0
H699 H 0.14565 0.46932 0.41015 0.0
S700 S 0.10491 0.46392 0.2774 0.0
N701 N 0.1069 0.36413 0.29563 0.0
N702 N 0.11623 0.53718 0.30484 0.0
C703 C 0.12219 0.48147 0.33074 0.0
C704 C 0.11719 0.38742 0.32569 0.0
C705 C 0.87398 0.52506 0.34376 0.0
C706 C 0.87633 0.49046 0.37635 0.0
C707 C 0.87577 0.61792 0.33741 0.0
C708 C 0.88036 0.67999 0.36329 0.0
H709 H 0.87014 0.48033 0.32295 0.0
H710 H 0.87353 0.64109 0.31192 0.0
S711 S 0.8891 0.62417 0.45295 0.0
N712 N 0.88417 0.52552 0.43478 0.0
N713 N 0.88787 0.70012 0.42279 0.0
C714 C 0.88335 0.6463 0.39594 0.0
C715 C 0.88122 0.55161 0.40248 0.0
C716 C 0.87668 0.33782 0.87782 0.0
C717 C 0.89674 0.31314 0.85577 0.0
C718 C 0.86955 0.42825 0.88216 0.0
C719 C 0.88215 0.49796 0.86462 0.0
H720 H 0.86614 0.28687 0.89177 0.0
H721 H 0.85382 0.44324 0.89921 0.0
S722 S 0.93668 0.47022 0.80471 0.0
N723 N 0.92964 0.36637 0.81678 0.0
N724 N 0.91627 0.53642 0.82491 0.0
C725 C 0.90254 0.47457 0.84281 0.0
C726 C 0.90982 0.38224 0.83839 0.0
C727 C 0.1387 0.54916 0.83052 0.0
C728 C 0.14317 0.51524 0.86283 0.0
C729 C 0.13414 0.64126 0.82496 0.0
C730 C 0.13357 0.70336 0.8515 0.0
H731 H 0.13901 0.50443 0.80916 0.0
H732 H 0.13093 0.66369 0.79956 0.0
S733 S 0.14347 0.64914 0.94111 0.0
N734 N 0.14638 0.55104 0.92192 0.0
N735 N 0.13759 0.72409 0.91151 0.0
C736 C 0.13771 0.67035 0.88404 0.0
C737 C 0.1426 0.57643 0.88968 0.0
C738 C 0.87679 0.66726 0.6245 0.0
C739 C 0.90399 0.67829 0.62301 0.0
C740 C 0.86533 0.58125 0.62468 0.0
C741 C 0.88051 0.5021 0.6235 0.0
H742 H 0.8641 0.72562 0.62536 0.0
H743 H 0.84429 0.57716 0.62581 0.0
S744 S 0.95273 0.49303 0.62001 0.0
N745 N 0.94593 0.60201 0.62074 0.0
N746 N 0.92438 0.44051 0.62114 0.0
C747 C 0.90778 0.5119 0.62221 0.0
C748 C 0.91949 0.59977 0.62195 0.0
C749 C 0.13213 0.38392 0.648 0.0
C750 C 0.1306 0.32236 0.62135 0.0
C751 C 0.13377 0.47742 0.64234 0.0
C752 C 0.13373 0.51336 0.60978 0.0
H753 H 0.13251 0.35973 0.67351 0.0
H754 H 0.13538 0.52168 0.66374 0.0
S755 S 0.12809 0.38105 0.53131 0.0
N756 N 0.12787 0.30419 0.56116 0.0
N757 N 0.13074 0.47928 0.55046 0.0
C758 C 0.13153 0.45248 0.58289 0.0
C759 C 0.13005 0.35727 0.58868 0.0
C760 C 0.62646 0.05078 0.08338 0.0
C761 C 0.63151 0.98968 0.1096 0.0
C762 C 0.62431 0.14407 0.08919 0.0
C763 C 0.62739 0.18011 0.12141 0.0
H764 H 0.62445 0.02673 0.058 0.0
H765 H 0.62082 0.18842 0.06813 0.0
S766 S 0.63865 0.04958 0.19922 0.0
N767 N 0.63791 0.97247 0.16953 0.0
N768 N 0.63413 0.14729 0.1802 0.0
C769 C 0.6318 0.11988 0.14798 0.0
C770 C 0.63378 0.0249 0.14216 0.0
C771 C 0.37786 0.83452 0.09775 0.0
C772 C 0.38887 0.80432 0.12798 0.0
C773 C 0.37314 0.92631 0.09189 0.0
C774 C 0.37934 0.99206 0.1159 0.0
H775 H 0.37267 0.7869 0.07834 0.0
H776 H 0.36453 0.94568 0.06825 0.0
S777 S 0.40837 0.94924 0.19941 0.0
N778 N 0.40579 0.84809 0.18239 0.0
N779 N 0.397 0.02072 0.17131 0.0
C780 C 0.39053 0.96318 0.14621 0.0
C781 C 0.39525 0.86938 0.15227 0.0
C782 C 0.65577 0.92937 0.37124 0.0
C783 C 0.64078 0.99848 0.35672 0.0
C784 C 0.64982 0.83833 0.36585 0.0
C785 C 0.62866 0.81243 0.34563 0.0
H786 H 0.67241 0.9454 0.3868 0.0
H787 H 0.66211 0.78788 0.37752 0.0
S788 S 0.5826 0.96694 0.30262 0.0
N789 N 0.60333 0.03475 0.32175 0.0
N790 N 0.59222 0.86332 0.31162 0.0
C791 C 0.61335 0.88068 0.33107 0.0
C792 C 0.61937 0.9737 0.33664 0.0
C793 C 0.38029 0.05693 0.39897 0.0
C794 C 0.37816 0.00636 0.36942 0.0
C795 C 0.3866 0.14915 0.39833 0.0
C796 C 0.39067 0.19568 0.36809 0.0
H797 H 0.37726 0.0249 0.42296 0.0
H798 H 0.38813 0.1843 0.42194 0.0
S799 S 0.38654 0.09537 0.28342 0.0
N800 N 0.38023 0.0101 0.30881 0.0
N801 N 0.39168 0.18391 0.30762 0.0
C802 C 0.38829 0.14632 0.33823 0.0
C803 C 0.38221 0.05167 0.3389 0.0
C804 C 0.38081 0.84987 0.87397 0.0
C805 C 0.40265 0.82687 0.85461 0.0
C806 C 0.37235 0.9395 0.8766 0.0
C807 C 0.38529 0.01004 0.85989 0.0
H808 H 0.36992 0.79817 0.88708 0.0
H809 H 0.35529 0.95318 0.8916 0.0
S810 S 0.44415 0.98688 0.8069 0.0
N811 N 0.43753 0.88282 0.8191 0.0
N812 N 0.42162 0.05116 0.824 0.0
C813 C 0.40741 0.98837 0.8408 0.0
C814 C 0.41609 0.89694 0.8382 0.0
C815 C 0.63401 0.13403 0.85252 0.0
C816 C 0.62162 0.17708 0.87946 0.0
C817 C 0.63697 0.03959 0.85156 0.0
C818 C 0.62751 0.98384 0.8774 0.0
H819 H 0.64165 0.17353 0.83198 0.0
H820 H 0.64678 0.01018 0.83032 0.0
S821 S 0.59327 0.06234 0.95358 0.0
N822 N 0.59963 0.15584 0.93266 0.0
N823 N 0.60505 0.97932 0.93075 0.0
C824 C 0.61489 0.02595 0.90438 0.0
C825 C 0.612 0.12211 0.90545 0.0
C826 C 0.39442 0.02273 0.62905 0.0
C827 C 0.37642 0.99782 0.60411 0.0
C828 C 0.40039 0.11361 0.63527 0.0
C829 C 0.38875 0.18337 0.61667 0.0
H830 H 0.40395 0.9717 0.64412 0.0
H831 H 0.41435 0.12911 0.65474 0.0
S832 S 0.33992 0.15518 0.54894 0.0
N833 N 0.34673 0.05113 0.56096 0.0
N834 N 0.35803 0.22161 0.57253 0.0
C835 C 0.37075 0.15964 0.59159 0.0
C836 C 0.36457 0.06705 0.58536 0.0
C837 C 0.63862 0.84685 0.60054 0.0
C838 C 0.62091 0.82229 0.62573 0.0
C839 C 0.64567 0.93719 0.59531 0.0
C840 C 0.6352 0.00696 0.61492 0.0
H841 H 0.64748 0.79577 0.58493 0.0
H842 H 0.6596 0.95211 0.57583 0.0
S843 S 0.58691 0.97917 0.68312 0.0
N844 N 0.59233 0.87542 0.6698 0.0
N845 N 0.60543 0.04531 0.65997 0.0
C846 C 0.61707 0.98356 0.63986 0.0
C847 C 0.60999 0.8913 0.64528 0.0
loop_
_geom_bond_atom_site_label_1
_geom_bond_atom_site_label_2
_geom_bond_distance
_geom_bond_site_symmetry_2
_ccdc_geom_bond_type
Zn0 O6 1.969 . S
Zn0 O7 1.965 . S
Zn0 O11 2.024 . S
Zn0 O16 1.969 . S
Zn1 O8 1.969 1_565 S
Zn1 O14 1.969 . S
Zn1 O15 1.965 1_565 S
Zn1 O17 2.024 1_565 S
C2 O3 1.229 . S
C2 O11 1.058 . S
O3 C2 1.229 . S
C4 O5 1.229 . S
C4 O17 1.058 1_565 S
O5 C4 1.229 . S
O6 Zn0 1.969 . S
O6 C9 1.267 . S
O7 Zn0 1.965 . S
O7 C18 1.260 . S
O8 Zn1 1.969 1_545 S
O8 C18 1.258 . S
C9 O6 1.267 . S
C9 O10 1.228 . S
O10 C9 1.228 . S
O11 Zn0 2.024 . S
O11 C2 1.058 . S
C12 O13 1.228 . S
C12 O14 1.267 . S
O13 C12 1.228 . S
O14 Zn1 1.969 . S
O14 C12 1.267 . S
O15 Zn1 1.965 1_545 S
O15 C19 1.260 . S
O16 Zn0 1.969 . S
O16 C19 1.258 . S
O17 Zn1 2.024 1_545 S
O17 C4 1.058 1_545 S
C18 O7 1.260 . S
C18 O8 1.258 . S
C19 O15 1.260 . S
C19 O16 1.258 . S
Zn20 O26 1.969 . S
Zn20 O27 1.965 . S
Zn20 O31 2.024 . S
Zn20 O36 1.969 . S
Zn21 O28 1.969 1_545 S
Zn21 O34 1.969 . S
Zn21 O35 1.965 1_545 S
Zn21 O37 2.024 1_545 S
C22 O23 1.229 . S
C22 O31 1.058 . S
O23 C22 1.229 . S
C24 O25 1.229 . S
C24 O37 1.058 1_545 S
O25 C24 1.229 . S
O26 Zn20 1.969 . S
O26 C29 1.267 . S
O27 Zn20 1.965 . S
O27 C38 1.260 . S
O28 Zn21 1.969 1_565 S
O28 C38 1.258 . S
C29 O26 1.267 . S
C29 O30 1.228 . S
O30 C29 1.228 . S
O31 Zn20 2.024 . S
O31 C22 1.058 . S
C32 O33 1.228 . S
C32 O34 1.267 . S
O33 C32 1.228 . S
O34 Zn21 1.969 . S
O34 C32 1.267 . S
O35 Zn21 1.965 1_565 S
O35 C39 1.260 . S
O36 Zn20 1.969 . S
O36 C39 1.258 . S
O37 Zn21 2.024 1_565 S
O37 C24 1.058 1_565 S
C38 O27 1.260 . S
C38 O28 1.258 . S
C39 O35 1.260 . S
C39 O36 1.258 . S
Zn40 O46 1.969 . S
Zn40 O47 1.965 . S
Zn40 O51 2.024 . S
Zn40 O56 1.969 . S
Zn41 O48 1.969 1_545 S
Zn41 O54 1.969 . S
Zn41 O55 1.965 1_545 S
Zn41 O57 2.024 1_545 S
C42 O43 1.229 . S
C42 O51 1.058 . S
O43 C42 1.229 . S
C44 O45 1.229 . S
C44 O57 1.058 1_545 S
O45 C44 1.229 . S
O46 Zn40 1.969 . S
O46 C49 1.267 . S
O47 Zn40 1.965 . S
O47 C58 1.260 . S
O48 Zn41 1.969 1_565 S
O48 C58 1.258 . S
C49 O46 1.267 . S
C49 O50 1.228 . S
O50 C49 1.228 . S
O51 Zn40 2.024 . S
O51 C42 1.058 . S
C52 O53 1.228 . S
C52 O54 1.267 . S
O53 C52 1.228 . S
O54 Zn41 1.969 . S
O54 C52 1.267 . S
O55 Zn41 1.965 1_565 S
O55 C59 1.260 . S
O56 Zn40 1.969 . S
O56 C59 1.258 . S
O57 Zn41 2.024 1_565 S
O57 C44 1.058 1_565 S
C58 O47 1.260 . S
C58 O48 1.258 . S
C59 O55 1.260 . S
C59 O56 1.258 . S
Zn60 O66 1.969 . S
Zn60 O67 1.965 . S
Zn60 O71 2.024 . S
Zn60 O76 1.969 . S
Zn61 O68 1.969 1_565 S
Zn61 O74 1.969 . S
Zn61 O75 1.965 1_565 S
Zn61 O77 2.024 1_565 S
C62 O63 1.229 . S
C62 O71 1.058 . S
O63 C62 1.229 . S
C64 O65 1.229 . S
C64 O77 1.058 1_565 S
O65 C64 1.229 . S
O66 Zn60 1.969 . S
O66 C69 1.267 . S
O67 Zn60 1.965 . S
O67 C78 1.260 . S
O68 Zn61 1.969 1_545 S
O68 C78 1.258 . S
C69 O66 1.267 . S
C69 O70 1.228 . S
O70 C69 1.228 . S
O71 Zn60 2.024 . S
O71 C62 1.058 . S
C72 O73 1.228 . S
C72 O74 1.267 . S
O73 C72 1.228 . S
O74 Zn61 1.969 . S
O74 C72 1.267 . S
O75 Zn61 1.965 1_545 S
O75 C79 1.260 . S
O76 Zn60 1.969 . S
O76 C79 1.258 . S
O77 Zn61 2.024 1_545 S
O77 C64 1.058 1_545 S
C78 O67 1.260 . S
C78 O68 1.258 . S
C79 O75 1.260 . S
C79 O76 1.258 . S
Zn80 O86 1.969 . S
Zn80 O87 1.965 1_545 S
Zn80 O91 2.024 1_545 S
Zn80 O96 1.969 1_545 S
Zn81 O88 1.969 . S
Zn81 O94 1.969 . S
Zn81 O95 1.965 . S
Zn81 O97 2.024 . S
C82 O83 1.229 . S
C82 O91 1.058 1_545 S
O83 C82 1.229 . S
C84 O85 1.229 . S
C84 O97 1.058 . S
O85 C84 1.229 . S
O86 Zn80 1.969 . S
O86 C89 1.267 . S
O87 Zn80 1.965 1_565 S
O87 C98 1.260 . S
O88 Zn81 1.969 . S
O88 C98 1.258 . S
C89 O86 1.267 . S
C89 O90 1.228 . S
O90 C89 1.228 . S
O91 Zn80 2.024 1_565 S
O91 C82 1.058 1_565 S
C92 O93 1.228 . S
C92 O94 1.267 . S
O93 C92 1.228 . S
O94 Zn81 1.969 . S
O94 C92 1.267 . S
O95 Zn81 1.965 . S
O95 C99 1.260 . S
O96 Zn80 1.969 1_565 S
O96 C99 1.258 . S
O97 Zn81 2.024 . S
O97 C84 1.058 . S
C98 O87 1.260 . S
C98 O88 1.258 . S
C99 O95 1.260 . S
C99 O96 1.258 . S
Zn100 O106 1.969 . S
Zn100 O107 1.965 1_565 S
Zn100 O111 2.024 1_565 S
Zn100 O116 1.969 1_565 S
Zn101 O108 1.969 . S
Zn101 O114 1.969 . S
Zn101 O115 1.965 . S
Zn101 O117 2.024 . S
C102 O103 1.229 . S
C102 O111 1.058 1_565 S
O103 C102 1.229 . S
C104 O105 1.229 . S
C104 O117 1.058 . S
O105 C104 1.229 . S
O106 Zn100 1.969 . S
O106 C109 1.267 . S
O107 Zn100 1.965 1_545 S
O107 C118 1.260 . S
O108 Zn101 1.969 . S
O108 C118 1.258 . S
C109 O106 1.267 . S
C109 O110 1.228 . S
O110 C109 1.228 . S
O111 Zn100 2.024 1_545 S
O111 C102 1.058 1_545 S
C112 O113 1.228 . S
C112 O114 1.267 . S
O113 C112 1.228 . S
O114 Zn101 1.969 . S
O114 C112 1.267 . S
O115 Zn101 1.965 . S
O115 C119 1.260 . S
O116 Zn100 1.969 1_545 S
O116 C119 1.258 . S
O117 Zn101 2.024 . S
O117 C104 1.058 . S
C118 O107 1.260 . S
C118 O108 1.258 . S
C119 O115 1.260 . S
C119 O116 1.258 . S
Zn120 O126 1.969 . S
Zn120 O127 1.965 1_565 S
Zn120 O131 2.024 1_565 S
Zn120 O136 1.969 1_565 S
Zn121 O128 1.969 . S
Zn121 O134 1.969 . S
Zn121 O135 1.965 . S
Zn121 O137 2.024 . S
C122 O123 1.229 . S
C122 O131 1.058 1_565 S
O123 C122 1.229 . S
C124 O125 1.229 . S
C124 O137 1.058 . S
O125 C124 1.229 . S
O126 Zn120 1.969 . S
O126 C129 1.267 . S
O127 Zn120 1.965 1_545 S
O127 C138 1.260 . S
O128 Zn121 1.969 . S
O128 C138 1.258 . S
C129 O126 1.267 . S
C129 O130 1.228 . S
O130 C129 1.228 . S
O131 Zn120 2.024 1_545 S
O131 C122 1.058 1_545 S
C132 O133 1.228 . S
C132 O134 1.267 . S
O133 C132 1.228 . S
O134 Zn121 1.969 . S
O134 C132 1.267 . S
O135 Zn121 1.965 . S
O135 C139 1.260 . S
O136 Zn120 1.969 1_545 S
O136 C139 1.258 . S
O137 Zn121 2.024 . S
O137 C124 1.058 . S
C138 O127 1.260 . S
C138 O128 1.258 . S
C139 O135 1.260 . S
C139 O136 1.258 . S
Zn140 O146 1.969 . S
Zn140 O147 1.965 1_545 S
Zn140 O151 2.024 1_545 S
Zn140 O156 1.969 1_545 S
Zn141 O148 1.969 . S
Zn141 O154 1.969 . S
Zn141 O155 1.965 . S
Zn141 O157 2.024 . S
C142 O143 1.229 . S
C142 O151 1.058 1_545 S
O143 C142 1.229 . S
C144 O145 1.229 . S
C144 O157 1.058 . S
O145 C144 1.229 . S
O146 Zn140 1.969 . S
O146 C149 1.267 . S
O147 Zn140 1.965 1_565 S
O147 C158 1.260 . S
O148 Zn141 1.969 . S
O148 C158 1.258 . S
C149 O146 1.267 . S
C149 O150 1.228 . S
O150 C149 1.228 . S
O151 Zn140 2.024 1_565 S
O151 C142 1.058 1_565 S
C152 O153 1.228 . S
C152 O154 1.267 . S
O153 C152 1.228 . S
O154 Zn141 1.969 . S
O154 C152 1.267 . S
O155 Zn141 1.965 . S
O155 C159 1.260 . S
O156 Zn140 1.969 1_565 S
O156 C159 1.258 . S
O157 Zn141 2.024 . S
O157 C144 1.058 . S
C158 O147 1.260 . S
C158 O148 1.258 . S
C159 O155 1.260 . S
C159 O156 1.258 . S
Zn160 O166 1.969 . S
Zn160 O167 1.965 . S
Zn160 O171 2.024 . S
Zn160 O176 1.969 . S
Zn161 O168 1.969 . S
Zn161 O174 1.969 . S
Zn161 O175 1.965 . S
Zn161 O177 2.024 . S
C162 O163 1.229 . S
C162 O171 1.058 . S
O163 C162 1.229 . S
C164 O165 1.229 . S
C164 O177 1.058 . S
O165 C164 1.229 . S
O166 Zn160 1.969 . S
O166 C169 1.267 . S
O167 Zn160 1.965 . S
O167 C178 1.260 . S
O168 Zn161 1.969 . S
O168 C178 1.258 . S
C169 O166 1.267 . S
C169 O170 1.228 . S
O170 C169 1.228 . S
O171 Zn160 2.024 . S
O171 C162 1.058 . S
C172 O173 1.228 . S
C172 O174 1.267 . S
O173 C172 1.228 . S
O174 Zn161 1.969 . S
O174 C172 1.267 . S
O175 Zn161 1.965 . S
O175 C179 1.260 . S
O176 Zn160 1.969 . S
O176 C179 1.258 . S
O177 Zn161 2.024 . S
O177 C164 1.058 . S
C178 O167 1.260 . S
C178 O168 1.258 . S
C179 O175 1.260 . S
C179 O176 1.258 . S
Zn180 O186 1.969 . S
Zn180 O187 1.965 . S
Zn180 O191 2.024 . S
Zn180 O196 1.969 . S
Zn181 O188 1.969 . S
Zn181 O194 1.969 . S
Zn181 O195 1.965 . S
Zn181 O197 2.024 . S
C182 O183 1.229 . S
C182 O191 1.058 . S
O183 C182 1.229 . S
C184 O185 1.229 . S
C184 O197 1.058 . S
O185 C184 1.229 . S
O186 Zn180 1.969 . S
O186 C189 1.267 . S
O187 Zn180 1.965 . S
O187 C198 1.260 . S
O188 Zn181 1.969 . S
O188 C198 1.258 . S
C189 O186 1.267 . S
C189 O190 1.228 . S
O190 C189 1.228 . S
O191 Zn180 2.024 . S
O191 C182 1.058 . S
C192 O193 1.228 . S
C192 O194 1.267 . S
O193 C192 1.228 . S
O194 Zn181 1.969 . S
O194 C192 1.267 . S
O195 Zn181 1.965 . S
O195 C199 1.260 . S
O196 Zn180 1.969 . S
O196 C199 1.258 . S
O197 Zn181 2.024 . S
O197 C184 1.058 . S
C198 O187 1.260 . S
C198 O188 1.258 . S
C199 O195 1.260 . S
C199 O196 1.258 . S
Zn200 O206 1.969 . S
Zn200 O207 1.965 . S
Zn200 O211 2.024 . S
Zn200 O216 1.969 . S
Zn201 O208 1.969 . S
Zn201 O214 1.969 . S
Zn201 O215 1.965 . S
Zn201 O217 2.024 . S
C202 O203 1.229 . S
C202 O211 1.058 . S
O203 C202 1.229 . S
C204 O205 1.229 . S
C204 O217 1.058 . S
O205 C204 1.229 . S
O206 Zn200 1.969 . S
O206 C209 1.267 . S
O207 Zn200 1.965 . S
O207 C218 1.260 . S
O208 Zn201 1.969 . S
O208 C218 1.258 . S
C209 O206 1.267 . S
C209 O210 1.228 . S
O210 C209 1.228 . S
O211 Zn200 2.024 . S
O211 C202 1.058 . S
C212 O213 1.228 . S
C212 O214 1.267 . S
O213 C212 1.228 . S
O214 Zn201 1.969 . S
O214 C212 1.267 . S
O215 Zn201 1.965 . S
O215 C219 1.260 . S
O216 Zn200 1.969 . S
O216 C219 1.258 . S
O217 Zn201 2.024 . S
O217 C204 1.058 . S
C218 O207 1.260 . S
C218 O208 1.258 . S
C219 O215 1.260 . S
C219 O216 1.258 . S
Zn220 O226 1.969 . S
Zn220 O227 1.965 . S
Zn220 O231 2.024 . S
Zn220 O236 1.969 . S
Zn221 O228 1.969 . S
Zn221 O234 1.969 . S
Zn221 O235 1.965 . S
Zn221 O237 2.024 . S
C222 O223 1.229 . S
C222 O231 1.058 . S
O223 C222 1.229 . S
C224 O225 1.229 . S
C224 O237 1.058 . S
O225 C224 1.229 . S
O226 Zn220 1.969 . S
O226 C229 1.267 . S
O227 Zn220 1.965 . S
O227 C238 1.260 . S
O228 Zn221 1.969 . S
O228 C238 1.258 . S
C229 O226 1.267 . S
C229 O230 1.228 . S
O230 C229 1.228 . S
O231 Zn220 2.024 . S
O231 C222 1.058 . S
C232 O233 1.228 . S
C232 O234 1.267 . S
O233 C232 1.228 . S
O234 Zn221 1.969 . S
O234 C232 1.267 . S
O235 Zn221 1.965 . S
O235 C239 1.260 . S
O236 Zn220 1.969 . S
O236 C239 1.258 . S
O237 Zn221 2.024 . S
O237 C224 1.058 . S
C238 O227 1.260 . S
C238 O228 1.258 . S
C239 O235 1.260 . S
C239 O236 1.258 . S
Zn240 O246 1.969 . S
Zn240 O247 1.965 . S
Zn240 O251 2.024 . S
Zn240 O256 1.969 . S
Zn241 O248 1.969 . S
Zn241 O254 1.969 . S
Zn241 O255 1.965 . S
Zn241 O257 2.024 . S
C242 O243 1.229 . S
C242 O251 1.058 . S
O243 C242 1.229 . S
C244 O245 1.229 . S
C244 O257 1.058 . S
O245 C244 1.229 . S
O246 Zn240 1.969 . S
O246 C249 1.267 . S
O247 Zn240 1.965 . S
O247 C258 1.260 . S
O248 Zn241 1.969 . S
O248 C258 1.258 . S
C249 O246 1.267 . S
C249 O250 1.228 . S
O250 C249 1.228 . S
O251 Zn240 2.024 . S
O251 C242 1.058 . S
C252 O253 1.228 . S
C252 O254 1.267 . S
O253 C252 1.228 . S
O254 Zn241 1.969 . S
O254 C252 1.267 . S
O255 Zn241 1.965 . S
O255 C259 1.260 . S
O256 Zn240 1.969 . S
O256 C259 1.258 . S
O257 Zn241 2.024 . S
O257 C244 1.058 . S
C258 O247 1.260 . S
C258 O248 1.258 . S
C259 O255 1.260 . S
C259 O256 1.258 . S
Zn260 O266 1.969 . S
Zn260 O267 1.965 . S
Zn260 O271 2.024 . S
Zn260 O276 1.969 . S
Zn261 O268 1.969 . S
Zn261 O274 1.969 . S
Zn261 O275 1.965 . S
Zn261 O277 2.024 . S
C262 O263 1.229 . S
C262 O271 1.058 . S
O263 C262 1.229 . S
C264 O265 1.229 . S
C264 O277 1.058 . S
O265 C264 1.229 . S
O266 Zn260 1.969 . S
O266 C269 1.267 . S
O267 Zn260 1.965 . S
O267 C278 1.260 . S
O268 Zn261 1.969 . S
O268 C278 1.258 . S
C269 O266 1.267 . S
C269 O270 1.228 . S
O270 C269 1.228 . S
O271 Zn260 2.024 . S
O271 C262 1.058 . S
C272 O273 1.228 . S
C272 O274 1.267 . S
O273 C272 1.228 . S
O274 Zn261 1.969 . S
O274 C272 1.267 . S
O275 Zn261 1.965 . S
O275 C279 1.260 . S
O276 Zn260 1.969 . S
O276 C279 1.258 . S
O277 Zn261 2.024 . S
O277 C264 1.058 . S
C278 O267 1.260 . S
C278 O268 1.258 . S
C279 O275 1.260 . S
C279 O276 1.258 . S
Zn280 O286 1.969 . S
Zn280 O287 1.965 . S
Zn280 O291 2.024 . S
Zn280 O296 1.969 . S
Zn281 O288 1.969 . S
Zn281 O294 1.969 . S
Zn281 O295 1.965 . S
Zn281 O297 2.024 . S
C282 O283 1.229 . S
C282 O291 1.058 . S
O283 C282 1.229 . S
C284 O285 1.229 . S
C284 O297 1.058 . S
O285 C284 1.229 . S
O286 Zn280 1.969 . S
O286 C289 1.267 . S
O287 Zn280 1.965 . S
O287 C298 1.260 . S
O288 Zn281 1.969 . S
O288 C298 1.258 . S
C289 O286 1.267 . S
C289 O290 1.228 . S
O290 C289 1.228 . S
O291 Zn280 2.024 . S
O291 C282 1.058 . S
C292 O293 1.228 . S
C292 O294 1.267 . S
O293 C292 1.228 . S
O294 Zn281 1.969 . S
O294 C292 1.267 . S
O295 Zn281 1.965 . S
O295 C299 1.260 . S
O296 Zn280 1.969 . S
O296 C299 1.258 . S
O297 Zn281 2.024 . S
O297 C284 1.058 . S
C298 O287 1.260 . S
C298 O288 1.258 . S
C299 O295 1.260 . S
C299 O296 1.258 . S
Zn300 O306 1.969 . S
Zn300 O307 1.965 . S
Zn300 O311 2.024 . S
Zn300 O316 1.969 . S
Zn301 O308 1.969 . S
Zn301 O314 1.969 . S
Zn301 O315 1.965 . S
Zn301 O317 2.024 . S
C302 O303 1.229 . S
C302 O311 1.058 . S
O303 C302 1.229 . S
C304 O305 1.229 . S
C304 O317 1.058 . S
O305 C304 1.229 . S
O306 Zn300 1.969 . S
O306 C309 1.267 . S
O307 Zn300 1.965 . S
O307 C318 1.260 . S
O308 Zn301 1.969 . S
O308 C318 1.258 . S
C309 O306 1.267 . S
C309 O310 1.228 . S
O310 C309 1.228 . S
O311 Zn300 2.024 . S
O311 C302 1.058 . S
C312 O313 1.228 . S
C312 O314 1.267 . S
O313 C312 1.228 . S
O314 Zn301 1.969 . S
O314 C312 1.267 . S
O315 Zn301 1.965 . S
O315 C319 1.260 . S
O316 Zn300 1.969 . S
O316 C319 1.258 . S
O317 Zn301 2.024 . S
O317 C304 1.058 . S
C318 O307 1.260 . S
C318 O308 1.258 . S
C319 O315 1.260 . S
C319 O316 1.258 . S
C320 C321 1.369 . S
C320 C322 1.419 . S
C320 H324 0.930 . S
C321 C320 1.369 . S
C321 C330 1.429 . S
C322 C320 1.419 . S
C322 C323 1.363 . S
C322 H325 0.929 . S
C323 C322 1.363 . S
C323 C329 1.428 . S
H324 C320 0.930 . S
H325 C322 0.929 . S
S326 N327 1.613 . S
S326 N328 1.610 . S
N327 S326 1.613 . S
N327 C330 1.350 . S
N328 S326 1.610 . S
N328 C329 1.351 . S
C329 C323 1.428 . S
C329 N328 1.351 . S
C329 C330 1.434 . S
C330 C321 1.429 . S
C330 N327 1.350 . S
C330 C329 1.434 . S
C331 C332 1.369 . S
C331 C333 1.419 . S
C331 H335 0.930 . S
C332 C331 1.369 . S
C332 C341 1.429 . S
C333 C331 1.419 . S
C333 C334 1.363 . S
C333 H336 0.929 . S
C334 C333 1.363 . S
C334 C340 1.428 . S
H335 C331 0.930 . S
H336 C333 0.929 . S
S337 N338 1.613 . S
S337 N339 1.610 . S
N338 S337 1.613 . S
N338 C341 1.350 . S
N339 S337 1.610 . S
N339 C340 1.351 . S
C340 C334 1.428 . S
C340 N339 1.351 . S
C340 C341 1.434 . S
C341 C332 1.429 . S
C341 N338 1.350 . S
C341 C340 1.434 . S
C342 C343 1.369 . S
C342 C344 1.419 . S
C342 H346 0.930 . S
C343 C342 1.369 . S
C343 C352 1.429 . S
C344 C342 1.419 . S
C344 C345 1.363 . S
C344 H347 0.929 . S
C345 C344 1.363 . S
C345 C351 1.428 . S
H346 C342 0.930 . S
H347 C344 0.929 . S
S348 N349 1.613 . S
S348 N350 1.610 . S
N349 S348 1.613 . S
N349 C352 1.350 . S
N350 S348 1.610 . S
N350 C351 1.351 . S
C351 C345 1.428 . S
C351 N350 1.351 . S
C351 C352 1.434 . S
C352 C343 1.429 . S
C352 N349 1.350 . S
C352 C351 1.434 . S
C353 C354 1.369 . S
C353 C355 1.419 . S
C353 H357 0.930 . S
C354 C353 1.369 . S
C354 C363 1.429 . S
C355 C353 1.419 . S
C355 C356 1.363 . S
C355 H358 0.929 . S
C356 C355 1.363 . S
C356 C362 1.428 . S
H357 C353 0.930 . S
H358 C355 0.929 . S
S359 N360 1.613 . S
S359 N361 1.610 . S
N360 S359 1.613 . S
N360 C363 1.350 . S
N361 S359 1.610 . S
N361 C362 1.351 . S
C362 C356 1.428 . S
C362 N361 1.351 . S
C362 C363 1.434 . S
C363 C354 1.429 . S
C363 N360 1.350 . S
C363 C362 1.434 . S
C364 C365 1.369 . S
C364 C366 1.419 . S
C364 H368 0.930 . S
C365 C364 1.369 . S
C365 C374 1.429 . S
C366 C364 1.419 . S
C366 C367 1.363 . S
C366 H369 0.929 . S
C367 C366 1.363 . S
C367 C373 1.428 . S
H368 C364 0.930 . S
H369 C366 0.929 . S
S370 N371 1.613 . S
S370 N372 1.610 . S
N371 S370 1.613 . S
N371 C374 1.350 . S
N372 S370 1.610 . S
N372 C373 1.351 . S
C373 C367 1.428 . S
C373 N372 1.351 . S
C373 C374 1.434 . S
C374 C365 1.429 . S
C374 N371 1.350 . S
C374 C373 1.434 . S
C375 C376 1.369 . S
C375 C377 1.419 . S
C375 H379 0.930 . S
C376 C375 1.369 . S
C376 C385 1.429 . S
C377 C375 1.419 . S
C377 C378 1.363 . S
C377 H380 0.929 . S
C378 C377 1.363 . S
C378 C384 1.428 . S
H379 C375 0.930 . S
H380 C377 0.929 . S
S381 N382 1.613 . S
S381 N383 1.610 . S
N382 S381 1.613 . S
N382 C385 1.350 . S
N383 S381 1.610 . S
N383 C384 1.351 . S
C384 C378 1.428 . S
C384 N383 1.351 . S
C384 C385 1.434 . S
C385 C376 1.429 . S
C385 N382 1.350 . S
C385 C384 1.434 . S
C386 C387 1.369 . S
C386 C388 1.419 . S
C386 H390 0.930 . S
C387 C386 1.369 . S
C387 C396 1.429 . S
C388 C386 1.419 . S
C388 C389 1.363 . S
C388 H391 0.929 . S
C389 C388 1.363 . S
C389 C395 1.428 . S
H390 C386 0.930 . S
H391 C388 0.929 . S
S392 N393 1.613 . S
S392 N394 1.610 . S
N393 S392 1.613 . S
N393 C396 1.350 . S
N394 S392 1.610 . S
N394 C395 1.351 . S
C395 C389 1.428 . S
C395 N394 1.351 . S
C395 C396 1.434 . S
C396 C387 1.429 . S
C396 N393 1.350 . S
C396 C395 1.434 . S
C397 C398 1.369 . S
C397 C399 1.419 . S
C397 H401 0.930 . S
C398 C397 1.369 . S
C398 C407 1.429 . S
C399 C397 1.419 . S
C399 C400 1.363 . S
C399 H402 0.929 . S
C400 C399 1.363 . S
C400 C406 1.428 . S
H401 C397 0.930 . S
H402 C399 0.929 . S
S403 N404 1.613 . S
S403 N405 1.610 . S
N404 S403 1.613 . S
N404 C407 1.350 . S
N405 S403 1.610 . S
N405 C406 1.351 . S
C406 C400 1.428 . S
C406 N405 1.351 . S
C406 C407 1.434 . S
C407 C398 1.429 . S
C407 N404 1.350 . S
C407 C406 1.434 . S
C408 C409 1.369 1_545 S
C408 C410 1.419 . S
C408 H412 0.930 . S
C409 C408 1.369 1_565 S
C409 C418 1.429 . S
C410 C408 1.419 . S
C410 C411 1.363 . S
C410 H413 0.929 . S
C411 C410 1.363 . S
C411 C417 1.428 1_545 S
H412 C408 0.930 . S
H413 C410 0.929 . S
S414 N415 1.613 . S
S414 N416 1.610 . S
N415 S414 1.613 . S
N415 C418 1.350 . S
N416 S414 1.610 . S
N416 C417 1.351 . S
C417 C411 1.428 1_565 S
C417 N416 1.351 . S
C417 C418 1.434 . S
C418 C409 1.429 . S
C418 N415 1.350 . S
C418 C417 1.434 . S
C419 C420 1.369 1_565 S
C419 C421 1.419 . S
C419 H423 0.930 . S
C420 C419 1.369 1_545 S
C420 C429 1.429 . S
C421 C419 1.419 . S
C421 C422 1.363 . S
C421 H424 0.929 . S
C422 C421 1.363 . S
C422 C428 1.428 1_565 S
H423 C419 0.930 . S
H424 C421 0.929 . S
S425 N426 1.613 . S
S425 N427 1.610 . S
N426 S425 1.613 . S
N426 C429 1.350 . S
N427 S425 1.610 . S
N427 C428 1.351 . S
C428 C422 1.428 1_545 S
C428 N427 1.351 . S
C428 C429 1.434 . S
C429 C420 1.429 . S
C429 N426 1.350 . S
C429 C428 1.434 . S
C430 C431 1.369 . S
C430 C432 1.419 . S
C430 H434 0.930 . S
C431 C430 1.369 . S
C431 C440 1.429 1_545 S
C432 C430 1.419 . S
C432 C433 1.363 1_545 S
C432 H435 0.929 . S
C433 C432 1.363 1_565 S
C433 C439 1.428 . S
H434 C430 0.930 . S
H435 C432 0.929 . S
S436 N437 1.613 . S
S436 N438 1.610 . S
N437 S436 1.613 . S
N437 C440 1.350 . S
N438 S436 1.610 . S
N438 C439 1.351 . S
C439 C433 1.428 . S
C439 N438 1.351 . S
C439 C440 1.434 . S
C440 C431 1.429 1_565 S
C440 N437 1.350 . S
C440 C439 1.434 . S
C441 C442 1.369 . S
C441 C443 1.419 . S
C441 H445 0.930 . S
C442 C441 1.369 . S
C442 C451 1.429 1_545 S
C443 C441 1.419 . S
C443 C444 1.363 1_545 S
C443 H446 0.929 . S
C444 C443 1.363 1_565 S
C444 C450 1.428 . S
H445 C441 0.930 . S
H446 C443 0.929 . S
S447 N448 1.613 . S
S447 N449 1.610 . S
N448 S447 1.613 . S
N448 C451 1.350 . S
N449 S447 1.610 . S
N449 C450 1.351 . S
C450 C444 1.428 . S
C450 N449 1.351 . S
C450 C451 1.434 . S
C451 C442 1.429 1_565 S
C451 N448 1.350 . S
C451 C450 1.434 . S
C452 C453 1.369 . S
C452 C454 1.419 . S
C452 H456 0.930 . S
C453 C452 1.369 . S
C453 C462 1.429 . S
C454 C452 1.419 . S
C454 C455 1.363 . S
C454 H457 0.929 . S
C455 C454 1.363 . S
C455 C461 1.428 . S
H456 C452 0.930 . S
H457 C454 0.929 . S
S458 N459 1.613 . S
S458 N460 1.610 . S
N459 S458 1.613 . S
N459 C462 1.350 . S
N460 S458 1.610 . S
N460 C461 1.351 . S
C461 C455 1.428 . S
C461 N460 1.351 . S
C461 C462 1.434 . S
C462 C453 1.429 . S
C462 N459 1.350 . S
C462 C461 1.434 . S
C463 C464 1.369 . S
C463 C465 1.419 . S
C463 H467 0.930 . S
C464 C463 1.369 . S
C464 C473 1.429 . S
C465 C463 1.419 . S
C465 C466 1.363 . S
C465 H468 0.929 . S
C466 C465 1.363 . S
C466 C472 1.428 . S
H467 C463 0.930 . S
H468 C465 0.929 . S
S469 N470 1.613 . S
S469 N471 1.610 . S
N470 S469 1.613 . S
N470 C473 1.350 . S
N471 S469 1.610 . S
N471 C472 1.351 . S
C472 C466 1.428 . S
C472 N471 1.351 . S
C472 C473 1.434 . S
C473 C464 1.429 . S
C473 N470 1.350 . S
C473 C472 1.434 . S
C474 C475 1.369 . S
C474 C476 1.419 . S
C474 H478 0.930 . S
C475 C474 1.369 . S
C475 C484 1.429 . S
C476 C474 1.419 . S
C476 C477 1.363 . S
C476 H479 0.929 . S
C477 C476 1.363 . S
C477 C483 1.428 . S
H478 C474 0.930 . S
H479 C476 0.929 . S
S480 N481 1.613 . S
S480 N482 1.610 . S
N481 S480 1.613 . S
N481 C484 1.350 . S
N482 S480 1.610 . S
N482 C483 1.351 . S
C483 C477 1.428 . S
C483 N482 1.351 . S
C483 C484 1.434 . S
C484 C475 1.429 . S
C484 N481 1.350 . S
C484 C483 1.434 . S
C485 C486 1.369 . S
C485 C487 1.419 . S
C485 H489 0.930 . S
C486 C485 1.369 . S
C486 C495 1.429 . S
C487 C485 1.419 . S
C487 C488 1.363 . S
C487 H490 0.929 . S
C488 C487 1.363 . S
C488 C494 1.428 . S
H489 C485 0.930 . S
H490 C487 0.929 . S
S491 N492 1.613 . S
S491 N493 1.610 . S
N492 S491 1.613 . S
N492 C495 1.350 . S
N493 S491 1.610 . S
N493 C494 1.351 . S
C494 C488 1.428 . S
C494 N493 1.351 . S
C494 C495 1.434 . S
C495 C486 1.429 . S
C495 N492 1.350 . S
C495 C494 1.434 . S
C496 C497 1.369 . S
C496 C498 1.419 1_556 S
C496 H500 0.930 . S
C497 C496 1.369 . S
C497 C506 1.429 . S
C498 C496 1.419 1_554 S
C498 C499 1.363 . S
C498 H501 0.929 . S
C499 C498 1.363 . S
C499 C505 1.428 . S
H500 C496 0.930 . S
H501 C498 0.929 . S
S502 N503 1.615 1_554 S
S502 N504 1.608 . S
N503 S502 1.615 1_556 S
N503 C506 1.350 . S
N504 S502 1.608 . S
N504 C505 1.351 . S
C505 C499 1.428 . S
C505 N504 1.351 . S
C505 C506 1.434 1_554 S
C506 C497 1.429 . S
C506 N503 1.350 . S
C506 C505 1.434 1_556 S
C507 C508 1.369 . S
C507 C509 1.419 1_556 S
C507 H511 0.930 . S
C508 C507 1.369 . S
C508 C517 1.429 . S
C509 C507 1.419 1_554 S
C509 C510 1.363 . S
C509 H512 0.929 . S
C510 C509 1.363 . S
C510 C516 1.428 . S
H511 C507 0.930 . S
H512 C509 0.929 . S
S513 N514 1.615 1_554 S
S513 N515 1.608 . S
N514 S513 1.615 1_556 S
N514 C517 1.350 . S
N515 S513 1.608 . S
N515 C516 1.351 . S
C516 C510 1.428 . S
C516 N515 1.351 . S
C516 C517 1.434 1_554 S
C517 C508 1.429 . S
C517 N514 1.350 . S
C517 C516 1.434 1_556 S
C518 C519 1.369 . S
C518 C520 1.419 . S
C518 H522 0.930 . S
C519 C518 1.369 . S
C519 C528 1.429 . S
C520 C518 1.419 . S
C520 C521 1.363 . S
C520 H523 0.929 . S
C521 C520 1.363 . S
C521 C527 1.428 . S
H522 C518 0.930 . S
H523 C520 0.929 . S
S524 N525 1.613 1_545 S
S524 N526 1.610 1_545 S
N525 S524 1.613 1_565 S
N525 C528 1.350 . S
N526 S524 1.610 1_565 S
N526 C527 1.351 . S
C527 C521 1.428 . S
C527 N526 1.351 . S
C527 C528 1.434 . S
C528 C519 1.429 . S
C528 N525 1.350 . S
C528 C527 1.434 . S
C529 C530 1.369 . S
C529 C531 1.419 . S
C529 H533 0.930 . S
C530 C529 1.369 . S
C530 C539 1.429 . S
C531 C529 1.419 . S
C531 C532 1.363 . S
C531 H534 0.929 . S
C532 C531 1.363 . S
C532 C538 1.428 . S
H533 C529 0.930 . S
H534 C531 0.929 . S
S535 N536 1.613 . S
S535 N537 1.610 . S
N536 S535 1.613 . S
N536 C539 1.350 1_565 S
N537 S535 1.610 . S
N537 C538 1.351 1_565 S
C538 C532 1.428 . S
C538 N537 1.351 1_545 S
C538 C539 1.434 . S
C539 C530 1.429 . S
C539 N536 1.350 1_545 S
C539 C538 1.434 . S
C540 C541 1.369 . S
C540 C542 1.419 1_554 S
C540 H544 0.930 . S
C541 C540 1.369 . S
C541 C550 1.429 . S
C542 C540 1.419 1_556 S
C542 C543 1.363 . S
C542 H545 0.929 . S
C543 C542 1.363 . S
C543 C549 1.428 . S
H544 C540 0.930 . S
H545 C542 0.929 . S
S546 N547 1.615 1_556 S
S546 N548 1.608 . S
N547 S546 1.615 1_554 S
N547 C550 1.350 . S
N548 S546 1.608 . S
N548 C549 1.351 . S
C549 C543 1.428 . S
C549 N548 1.351 . S
C549 C550 1.434 1_556 S
C550 C541 1.429 . S
C550 N547 1.350 . S
C550 C549 1.434 1_554 S
C551 C552 1.369 . S
C551 C553 1.419 1_556 S
C551 H555 0.930 . S
C552 C551 1.369 . S
C552 C561 1.429 . S
C553 C551 1.419 1_554 S
C553 C554 1.363 . S
C553 H556 0.929 . S
C554 C553 1.363 . S
C554 C560 1.428 . S
H555 C551 0.930 . S
H556 C553 0.929 . S
S557 N558 1.615 1_554 S
S557 N559 1.608 . S
N558 S557 1.615 1_556 S
N558 C561 1.350 . S
N559 S557 1.608 . S
N559 C560 1.351 . S
C560 C554 1.428 . S
C560 N559 1.351 . S
C560 C561 1.434 1_554 S
C561 C552 1.429 . S
C561 N558 1.350 . S
C561 C560 1.434 1_556 S
C562 C563 1.369 . S
C562 C564 1.419 . S
C562 H566 0.930 . S
C563 C562 1.369 . S
C563 C572 1.429 . S
C564 C562 1.419 . S
C564 C565 1.363 . S
C564 H567 0.929 . S
C565 C564 1.363 . S
C565 C571 1.428 . S
H566 C562 0.930 . S
H567 C564 0.929 . S
S568 N569 1.613 . S
S568 N570 1.610 . S
N569 S568 1.613 . S
N569 C572 1.350 . S
N570 S568 1.610 . S
N570 C571 1.351 . S
C571 C565 1.428 . S
C571 N570 1.351 . S
C571 C572 1.434 . S
C572 C563 1.429 . S
C572 N569 1.350 . S
C572 C571 1.434 . S
C573 C574 1.369 . S
C573 C575 1.419 . S
C573 H577 0.930 . S
C574 C573 1.369 . S
C574 C583 1.429 . S
C575 C573 1.419 . S
C575 C576 1.363 . S
C575 H578 0.929 . S
C576 C575 1.363 . S
C576 C582 1.428 . S
H577 C573 0.930 . S
H578 C575 0.929 . S
S579 N580 1.613 . S
S579 N581 1.610 . S
N580 S579 1.613 . S
N580 C583 1.350 . S
N581 S579 1.610 . S
N581 C582 1.351 . S
C582 C576 1.428 . S
C582 N581 1.351 . S
C582 C583 1.434 . S
C583 C574 1.429 . S
C583 N580 1.350 . S
C583 C582 1.434 . S
C584 C585 1.369 . S
C584 C586 1.419 1_655 S
C584 H588 0.930 . S
C585 C584 1.369 . S
C585 C594 1.429 1_545 S
C586 C584 1.419 1_455 S
C586 C587 1.363 1_545 S
C586 H589 0.929 . S
C587 C586 1.363 1_565 S
C587 C593 1.428 . S
H588 C584 0.930 . S
H589 C586 0.929 . S
S590 N591 1.613 . S
S590 N592 1.610 1_655 S
N591 S590 1.613 . S
N591 C594 1.350 . S
N592 S590 1.610 1_455 S
N592 C593 1.351 . S
C593 C587 1.428 . S
C593 N592 1.351 . S
C593 C594 1.434 1_455 S
C594 C585 1.429 1_565 S
C594 N591 1.350 . S
C594 C593 1.434 1_655 S
C595 C596 1.369 . S
C595 C597 1.419 1_655 S
C595 H599 0.930 . S
C596 C595 1.369 . S
C596 C605 1.429 1_565 S
C597 C595 1.419 1_455 S
C597 C598 1.363 1_565 S
C597 H600 0.929 . S
C598 C597 1.363 1_545 S
C598 C604 1.428 . S
H599 C595 0.930 . S
H600 C597 0.929 . S
S601 N602 1.613 . S
S601 N603 1.610 1_655 S
N602 S601 1.613 . S
N602 C605 1.350 . S
N603 S601 1.610 1_455 S
N603 C604 1.351 . S
C604 C598 1.428 . S
C604 N603 1.351 . S
C604 C605 1.434 1_455 S
C605 C596 1.429 1_545 S
C605 N602 1.350 . S
C605 C604 1.434 1_655 S
C606 C607 1.369 . S
C606 C608 1.419 1_455 S
C606 H610 0.930 . S
C607 C606 1.369 . S
C607 C616 1.429 1_565 S
C608 C606 1.419 1_655 S
C608 C609 1.363 1_565 S
C608 H611 0.929 . S
C609 C608 1.363 1_545 S
C609 C615 1.428 . S
H610 C606 0.930 . S
H611 C608 0.929 . S
S612 N613 1.613 . S
S612 N614 1.610 1_455 S
N613 S612 1.613 . S
N613 C616 1.350 . S
N614 S612 1.610 1_655 S
N614 C615 1.351 . S
C615 C609 1.428 . S
C615 N614 1.351 . S
C615 C616 1.434 1_655 S
C616 C607 1.429 1_545 S
C616 N613 1.350 . S
C616 C615 1.434 1_455 S
C617 C618 1.369 1_545 S
C617 C619 1.419 1_655 S
C617 H621 0.930 . S
C618 C617 1.369 1_565 S
C618 C627 1.429 . S
C619 C617 1.419 1_455 S
C619 C620 1.363 . S
C619 H622 0.929 . S
C620 C619 1.363 . S
C620 C626 1.428 1_545 S
H621 C617 0.930 . S
H622 C619 0.929 . S
S623 N624 1.613 1_455 S
S623 N625 1.610 . S
N624 S623 1.613 1_655 S
N624 C627 1.350 . S
N625 S623 1.610 . S
N625 C626 1.351 . S
C626 C620 1.428 1_565 S
C626 N625 1.351 . S
C626 C627 1.434 1_455 S
C627 C618 1.429 . S
C627 N624 1.350 . S
C627 C626 1.434 1_655 S
C628 C629 1.369 . S
C628 C630 1.419 . S
C628 H632 0.930 . S
C629 C628 1.369 . S
C629 C638 1.429 . S
C630 C628 1.419 . S
C630 C631 1.363 . S
C630 H633 0.929 . S
C631 C630 1.363 . S
C631 C637 1.428 . S
H632 C628 0.930 . S
H633 C630 0.929 . S
S634 N635 1.613 . S
S634 N636 1.610 . S
N635 S634 1.613 . S
N635 C638 1.350 . S
N636 S634 1.610 . S
N636 C637 1.351 . S
C637 C631 1.428 . S
C637 N636 1.351 . S
C637 C638 1.434 . S
C638 C629 1.429 . S
C638 N635 1.350 . S
C638 C637 1.434 . S
C639 C640 1.369 . S
C639 C641 1.419 . S
C639 H643 0.930 . S
C640 C639 1.369 . S
C640 C649 1.429 . S
C641 C639 1.419 . S
C641 C642 1.363 . S
C641 H644 0.929 . S
C642 C641 1.363 . S
C642 C648 1.428 . S
H643 C639 0.930 . S
H644 C641 0.929 . S
S645 N646 1.613 . S
S645 N647 1.610 . S
N646 S645 1.613 . S
N646 C649 1.350 . S
N647 S645 1.610 . S
N647 C648 1.351 . S
C648 C642 1.428 . S
C648 N647 1.351 . S
C648 C649 1.434 . S
C649 C640 1.429 . S
C649 N646 1.350 . S
C649 C648 1.434 . S
C650 C651 1.369 . S
C650 C652 1.419 . S
C650 H654 0.930 . S
C651 C650 1.369 . S
C651 C660 1.429 . S
C652 C650 1.419 . S
C652 C653 1.363 . S
C652 H655 0.929 . S
C653 C652 1.363 . S
C653 C659 1.428 . S
H654 C650 0.930 . S
H655 C652 0.929 . S
S656 N657 1.613 . S
S656 N658 1.610 . S
N657 S656 1.613 . S
N657 C660 1.350 . S
N658 S656 1.610 . S
N658 C659 1.351 . S
C659 C653 1.428 . S
C659 N658 1.351 . S
C659 C660 1.434 . S
C660 C651 1.429 . S
C660 N657 1.350 . S
C660 C659 1.434 . S
C661 C662 1.369 . S
C661 C663 1.419 . S
C661 H665 0.930 . S
C662 C661 1.369 . S
C662 C671 1.429 . S
C663 C661 1.419 . S
C663 C664 1.363 . S
C663 H666 0.929 . S
C664 C663 1.363 . S
C664 C670 1.428 . S
H665 C661 0.930 . S
H666 C663 0.929 . S
S667 N668 1.613 . S
S667 N669 1.610 . S
N668 S667 1.613 . S
N668 C671 1.350 . S
N669 S667 1.610 . S
N669 C670 1.351 . S
C670 C664 1.428 . S
C670 N669 1.351 . S
C670 C671 1.434 . S
C671 C662 1.429 . S
C671 N668 1.350 . S
C671 C670 1.434 . S
C672 C673 1.369 . S
C672 C674 1.419 . S
C672 H676 0.930 . S
C673 C672 1.369 . S
C673 C682 1.429 . S
C674 C672 1.419 . S
C674 C675 1.363 . S
C674 H677 0.929 . S
C675 C674 1.363 . S
C675 C681 1.428 . S
H676 C672 0.930 . S
H677 C674 0.929 . S
S678 N679 1.613 . S
S678 N680 1.610 . S
N679 S678 1.613 . S
N679 C682 1.350 . S
N680 S678 1.610 . S
N680 C681 1.351 . S
C681 C675 1.428 . S
C681 N680 1.351 . S
C681 C682 1.434 . S
C682 C673 1.429 . S
C682 N679 1.350 . S
C682 C681 1.434 . S
C683 C684 1.369 . S
C683 C685 1.419 . S
C683 H687 0.930 . S
C684 C683 1.369 . S
C684 C693 1.429 . S
C685 C683 1.419 . S
C685 C686 1.363 . S
C685 H688 0.929 . S
C686 C685 1.363 . S
C686 C692 1.428 . S
H687 C683 0.930 . S
H688 C685 0.929 . S
S689 N690 1.613 . S
S689 N691 1.610 . S
N690 S689 1.613 . S
N690 C693 1.350 . S
N691 S689 1.610 . S
N691 C692 1.351 . S
C692 C686 1.428 . S
C692 N691 1.351 . S
C692 C693 1.434 . S
C693 C684 1.429 . S
C693 N690 1.350 . S
C693 C692 1.434 . S
C694 C695 1.369 . S
C694 C696 1.419 . S
C694 H698 0.930 . S
C695 C694 1.369 . S
C695 C704 1.429 . S
C696 C694 1.419 . S
C696 C697 1.363 . S
C696 H699 0.929 . S
C697 C696 1.363 . S
C697 C703 1.428 . S
H698 C694 0.930 . S
H699 C696 0.929 . S
S700 N701 1.613 . S
S700 N702 1.610 . S
N701 S700 1.613 . S
N701 C704 1.350 . S
N702 S700 1.610 . S
N702 C703 1.351 . S
C703 C697 1.428 . S
C703 N702 1.351 . S
C703 C704 1.434 . S
C704 C695 1.429 . S
C704 N701 1.350 . S
C704 C703 1.434 . S
C705 C706 1.369 . S
C705 C707 1.419 . S
C705 H709 0.930 . S
C706 C705 1.369 . S
C706 C715 1.429 . S
C707 C705 1.419 . S
C707 C708 1.363 . S
C707 H710 0.929 . S
C708 C707 1.363 . S
C708 C714 1.428 . S
H709 C705 0.930 . S
H710 C707 0.929 . S
S711 N712 1.613 . S
S711 N713 1.610 . S
N712 S711 1.613 . S
N712 C715 1.350 . S
N713 S711 1.610 . S
N713 C714 1.351 . S
C714 C708 1.428 . S
C714 N713 1.351 . S
C714 C715 1.434 . S
C715 C706 1.429 . S
C715 N712 1.350 . S
C715 C714 1.434 . S
C716 C717 1.369 . S
C716 C718 1.419 . S
C716 H720 0.930 . S
C717 C716 1.369 . S
C717 C726 1.429 . S
C718 C716 1.419 . S
C718 C719 1.363 . S
C718 H721 0.929 . S
C719 C718 1.363 . S
C719 C725 1.428 . S
H720 C716 0.930 . S
H721 C718 0.929 . S
S722 N723 1.613 . S
S722 N724 1.610 . S
N723 S722 1.613 . S
N723 C726 1.350 . S
N724 S722 1.610 . S
N724 C725 1.351 . S
C725 C719 1.428 . S
C725 N724 1.351 . S
C725 C726 1.434 . S
C726 C717 1.429 . S
C726 N723 1.350 . S
C726 C725 1.434 . S
C727 C728 1.369 . S
C727 C729 1.419 . S
C727 H731 0.930 . S
C728 C727 1.369 . S
C728 C737 1.429 . S
C729 C727 1.419 . S
C729 C730 1.363 . S
C729 H732 0.929 . S
C730 C729 1.363 . S
C730 C736 1.428 . S
H731 C727 0.930 . S
H732 C729 0.929 . S
S733 N734 1.613 . S
S733 N735 1.610 . S
N734 S733 1.613 . S
N734 C737 1.350 . S
N735 S733 1.610 . S
N735 C736 1.351 . S
C736 C730 1.428 . S
C736 N735 1.351 . S
C736 C737 1.434 . S
C737 C728 1.429 . S
C737 N734 1.350 . S
C737 C736 1.434 . S
C738 C739 1.369 . S
C738 C740 1.419 . S
C738 H742 0.930 . S
C739 C738 1.369 . S
C739 C748 1.429 . S
C740 C738 1.419 . S
C740 C741 1.363 . S
C740 H743 0.929 . S
C741 C740 1.363 . S
C741 C747 1.428 . S
H742 C738 0.930 . S
H743 C740 0.929 . S
S744 N745 1.613 . S
S744 N746 1.610 . S
N745 S744 1.613 . S
N745 C748 1.350 . S
N746 S744 1.610 . S
N746 C747 1.351 . S
C747 C741 1.428 . S
C747 N746 1.351 . S
C747 C748 1.434 . S
C748 C739 1.429 . S
C748 N745 1.350 . S
C748 C747 1.434 . S
C749 C750 1.369 . S
C749 C751 1.419 . S
C749 H753 0.930 . S
C750 C749 1.369 . S
C750 C759 1.429 . S
C751 C749 1.419 . S
C751 C752 1.363 . S
C751 H754 0.929 . S
C752 C751 1.363 . S
C752 C758 1.428 . S
H753 C749 0.930 . S
H754 C751 0.929 . S
S755 N756 1.613 . S
S755 N757 1.610 . S
N756 S755 1.613 . S
N756 C759 1.350 . S
N757 S755 1.610 . S
N757 C758 1.351 . S
C758 C752 1.428 . S
C758 N757 1.351 . S
C758 C759 1.434 . S
C759 C750 1.429 . S
C759 N756 1.350 . S
C759 C758 1.434 . S
C760 C761 1.369 . S
C760 C762 1.419 . S
C760 H764 0.930 . S
C761 C760 1.369 . S
C761 C770 1.429 . S
C762 C760 1.419 . S
C762 C763 1.363 . S
C762 H765 0.929 . S
C763 C762 1.363 . S
C763 C769 1.428 . S
H764 C760 0.930 . S
H765 C762 0.929 . S
S766 N767 1.613 . S
S766 N768 1.610 . S
N767 S766 1.613 . S
N767 C770 1.350 . S
N768 S766 1.610 . S
N768 C769 1.351 . S
C769 C763 1.428 . S
C769 N768 1.351 . S
C769 C770 1.434 . S
C770 C761 1.429 . S
C770 N767 1.350 . S
C770 C769 1.434 . S
C771 C772 1.369 . S
C771 C773 1.419 . S
C771 H775 0.930 . S
C772 C771 1.369 . S
C772 C781 1.429 . S
C773 C771 1.419 . S
C773 C774 1.363 . S
C773 H776 0.929 . S
C774 C773 1.363 . S
C774 C780 1.428 . S
H775 C771 0.930 . S
H776 C773 0.929 . S
S777 N778 1.613 . S
S777 N779 1.610 1_565 S
N778 S777 1.613 . S
N778 C781 1.350 . S
N779 S777 1.610 1_545 S
N779 C780 1.351 1_545 S
C780 C774 1.428 . S
C780 N779 1.351 1_565 S
C780 C781 1.434 . S
C781 C772 1.429 . S
C781 N778 1.350 . S
C781 C780 1.434 . S
C782 C783 1.369 . S
C782 C784 1.419 . S
C782 H786 0.930 . S
C783 C782 1.369 . S
C783 C792 1.429 . S
C784 C782 1.419 . S
C784 C785 1.363 . S
C784 H787 0.929 . S
C785 C784 1.363 . S
C785 C791 1.428 . S
H786 C782 0.930 . S
H787 C784 0.929 . S
S788 N789 1.613 1_565 S
S788 N790 1.610 . S
N789 S788 1.613 1_545 S
N789 C792 1.350 1_545 S
N790 S788 1.610 . S
N790 C791 1.351 . S
C791 C785 1.428 . S
C791 N790 1.351 . S
C791 C792 1.434 . S
C792 C783 1.429 . S
C792 N789 1.350 1_565 S
C792 C791 1.434 . S
C793 C794 1.369 . S
C793 C795 1.419 . S
C793 H797 0.930 . S
C794 C793 1.369 . S
C794 C803 1.429 . S
C795 C793 1.419 . S
C795 C796 1.363 . S
C795 H798 0.929 . S
C796 C795 1.363 . S
C796 C802 1.428 . S
H797 C793 0.930 . S
H798 C795 0.929 . S
S799 N800 1.613 . S
S799 N801 1.610 . S
N800 S799 1.613 . S
N800 C803 1.350 . S
N801 S799 1.610 . S
N801 C802 1.351 . S
C802 C796 1.428 . S
C802 N801 1.351 . S
C802 C803 1.434 . S
C803 C794 1.429 . S
C803 N800 1.350 . S
C803 C802 1.434 . S
C804 C805 1.369 . S
C804 C806 1.419 . S
C804 H808 0.930 . S
C805 C804 1.369 . S
C805 C814 1.429 . S
C806 C804 1.419 . S
C806 C807 1.363 . S
C806 H809 0.929 . S
C807 C806 1.363 . S
C807 C813 1.428 . S
H808 C804 0.930 . S
H809 C806 0.929 . S
S810 N811 1.613 . S
S810 N812 1.610 1_565 S
N811 S810 1.613 . S
N811 C814 1.350 . S
N812 S810 1.610 1_545 S
N812 C813 1.351 1_545 S
C813 C807 1.428 . S
C813 N812 1.351 1_565 S
C813 C814 1.434 . S
C814 C805 1.429 . S
C814 N811 1.350 . S
C814 C813 1.434 . S
C815 C816 1.369 . S
C815 C817 1.419 . S
C815 H819 0.930 . S
C816 C815 1.369 . S
C816 C825 1.429 . S
C817 C815 1.419 . S
C817 C818 1.363 . S
C817 H820 0.929 . S
C818 C817 1.363 . S
C818 C824 1.428 . S
H819 C815 0.930 . S
H820 C817 0.929 . S
S821 N822 1.613 . S
S821 N823 1.610 . S
N822 S821 1.613 . S
N822 C825 1.350 . S
N823 S821 1.610 . S
N823 C824 1.351 . S
C824 C818 1.428 . S
C824 N823 1.351 . S
C824 C825 1.434 . S
C825 C816 1.429 . S
C825 N822 1.350 . S
C825 C824 1.434 . S
C826 C827 1.369 . S
C826 C828 1.419 . S
C826 H830 0.930 . S
C827 C826 1.369 . S
C827 C836 1.429 . S
C828 C826 1.419 . S
C828 C829 1.363 . S
C828 H831 0.929 . S
C829 C828 1.363 . S
C829 C835 1.428 . S
H830 C826 0.930 . S
H831 C828 0.929 . S
S832 N833 1.613 . S
S832 N834 1.610 . S
N833 S832 1.613 . S
N833 C836 1.350 . S
N834 S832 1.610 . S
N834 C835 1.351 . S
C835 C829 1.428 . S
C835 N834 1.351 . S
C835 C836 1.434 . S
C836 C827 1.429 . S
C836 N833 1.350 . S
C836 C835 1.434 . S
C837 C838 1.369 . S
C837 C839 1.419 . S
C837 H841 0.930 . S
C838 C837 1.369 . S
C838 C847 1.429 . S
C839 C837 1.419 . S
C839 C840 1.363 . S
C839 H842 0.929 . S
C840 C839 1.363 . S
C840 C846 1.428 . S
H841 C837 0.930 . S
H842 C839 0.929 . S
S843 N844 1.613 . S
S843 N845 1.610 1_565 S
N844 S843 1.613 . S
N844 C847 1.350 . S
N845 S843 1.610 1_545 S
N845 C846 1.351 1_545 S
C846 C840 1.428 . S
C846 N845 1.351 1_565 S
C846 C847 1.434 . S
C847 C838 1.429 . S
C847 N844 1.350 . S
C847 C846 1.434 . S
C321 C2 1.444 . S
C323 C182 1.442 . S
C332 C22 1.440 . S
C334 C162 1.448 . S
C343 C222 1.440 . S
C345 C42 1.446 . S
C354 C62 1.449 . S
C356 C202 1.442 . S
C365 C264 1.445 . S
C367 C84 1.442 . S
C376 C244 1.443 . S
C378 C104 1.446 . S
C387 C304 1.444 . S
C389 C124 1.443 . S
C398 C144 1.449 . S
C400 C284 1.441 . S
C409 C59 1.575 . S
C411 C19 1.575 . S
C420 C79 1.576 . S
C422 C39 1.575 . S
C431 C138 1.575 . S
C433 C98 1.578 . S
C442 C118 1.577 . S
C444 C158 1.580 . S
C453 C219 1.580 . S
C455 C179 1.577 . S
C464 C239 1.577 . S
C466 C199 1.579 . S
C475 C258 1.576 . S
C477 C298 1.579 . S
C486 C278 1.575 . S
C488 C318 1.578 . S
C497 C119 1.548 . S
C499 C18 1.547 . S
C508 C99 1.547 . S
C510 C38 1.546 . S
C519 C58 1.546 . S
C521 C159 1.545 . S
C530 C139 1.542 . S
C532 C78 1.543 . S
C541 C178 1.545 . S
C543 C279 1.545 . S
C552 C259 1.547 . S
C554 C198 1.546 . S
C563 C218 1.543 . S
C565 C319 1.543 . S
C574 C299 1.542 . S
C576 C238 1.543 . S
C585 C24 1.615 . S
C587 C4 1.612 . S
C596 C64 1.615 . S
C598 C44 1.612 . S
C607 C102 1.615 . S
C609 C82 1.612 . S
C618 C122 1.613 . S
C620 C142 1.614 . S
C629 C184 1.615 . S
C631 C164 1.611 . S
C640 C224 1.610 . S
C642 C204 1.613 . S
C651 C242 1.611 . S
C653 C262 1.612 . S
C662 C282 1.614 . S
C664 C302 1.611 . S
C673 C12 1.651 . S
C675 C9 1.651 . S
C684 C32 1.649 . S
C686 C29 1.652 . S
C695 C52 1.650 . S
C697 C49 1.652 . S
C706 C69 1.650 . S
C708 C72 1.651 . S
C717 C89 1.649 . S
C719 C92 1.652 . S
C728 C112 1.651 . S
C730 C109 1.651 . S
C739 C129 1.650 . S
C741 C132 1.652 . S
C750 C149 1.651 . S
C752 C152 1.651 . S
C761 C169 1.652 1_545 S
C763 C172 1.650 . S
C772 C192 1.650 . S
C774 C189 1.652 1_565 S
C783 C209 1.651 1_565 S
C785 C212 1.650 . S
C794 C229 1.651 1_545 S
C796 C232 1.650 . S
C805 C249 1.650 . S
C807 C252 1.652 1_565 S
C816 C269 1.651 . S
C818 C272 1.651 1_545 S
C827 C292 1.649 1_545 S
C829 C289 1.652 . S
C838 C309 1.650 . S
C840 C312 1.652 1_565 S
