# Generated by pormake.
# Topology uke, (4)-cn, num edge types: 1
# Building blocks:
#     Node 0, Type 0, BuildingBlock: CEKHIL_clean_sbu_0, # of connection points: 4
#     Node 1, Type 0, BuildingBlock: CEKHIL_clean_sbu_0, # of connection points: 4
#     Node 2, Type 0, BuildingBlock: CEKHIL_clean_sbu_0, # of connection points: 4
#     Node 3, Type 0, BuildingBlock: CEKHIL_clean_sbu_0, # of connection points: 4
#     Node 4, Type 0, BuildingBlock: CEKHIL_clean_sbu_0, # of connection points: 4
#     Node 5, Type 0, BuildingBlock: CEKHIL_clean_sbu_0, # of connection points: 4
#     Node 6, Type 0, BuildingBlock: CEKHIL_clean_sbu_0, # of connection points: 4
#     Node 7, Type 0, BuildingBlock: CEKHIL_clean_sbu_0, # of connection points: 4
#     Node 8, Type 0, BuildingBlock: CEKHIL_clean_sbu_0, # of connection points: 4
#     Node 9, Type 0, BuildingBlock: CEKHIL_clean_sbu_0, # of connection points: 4
#     Node 10, Type 0, BuildingBlock: CEKHIL_clean_sbu_0, # of connection points: 4
#     Node 11, Type 0, BuildingBlock: CEKHIL_clean_sbu_0, # of connection points: 4
#     Node 12, Type 0, BuildingBlock: CEKHIL_clean_sbu_0, # of connection points: 4
#     Node 13, Type 0, BuildingBlock: CEKHIL_clean_sbu_0, # of connection points: 4
#     Node 14, Type 0, BuildingBlock: CEKHIL_clean_sbu_0, # of connection points: 4
#     Node 15, Type 0, BuildingBlock: CEKHIL_clean_sbu_0, # of connection points: 4
#     Node 16, Type 0, BuildingBlock: CEKHIL_clean_sbu_0, # of connection points: 4
#     Node 17, Type 0, BuildingBlock: CEKHIL_clean_sbu_0, # of connection points: 4
#     Node 18, Type 0, BuildingBlock: CEKHIL_clean_sbu_0, # of connection points: 4
#     Node 19, Type 0, BuildingBlock: CEKHIL_clean_sbu_0, # of connection points: 4
#     Node 20, Type 0, BuildingBlock: CEKHIL_clean_sbu_0, # of connection points: 4
#     Node 21, Type 0, BuildingBlock: CEKHIL_clean_sbu_0, # of connection points: 4
#     Node 22, Type 0, BuildingBlock: CEKHIL_clean_sbu_0, # of connection points: 4
#     Node 23, Type 0, BuildingBlock: CEKHIL_clean_sbu_0, # of connection points: 4
#     Node 24, Type 0, BuildingBlock: CEKHIL_clean_sbu_0, # of connection points: 4
#     Node 25, Type 0, BuildingBlock: CEKHIL_clean_sbu_0, # of connection points: 4
#     Node 26, Type 0, BuildingBlock: CEKHIL_clean_sbu_0, # of connection points: 4
#     Node 27, Type 0, BuildingBlock: CEKHIL_clean_sbu_0, # of connection points: 4
#     Node 28, Type 0, BuildingBlock: CEKHIL_clean_sbu_0, # of connection points: 4
#     Node 29, Type 0, BuildingBlock: CEKHIL_clean_sbu_0, # of connection points: 4
#     Node 30, Type 0, BuildingBlock: CEKHIL_clean_sbu_0, # of connection points: 4
#     Node 31, Type 0, BuildingBlock: CEKHIL_clean_sbu_0, # of connection points: 4
#     Edge 32, Type (0, 0), BuildingBlock: UVAHIK_clean_linker_0, # of connection points: 2
#     Edge 33, Type (0, 0), BuildingBlock: UVAHIK_clean_linker_0, # of connection points: 2
#     Edge 34, Type (0, 0), BuildingBlock: UVAHIK_clean_linker_0, # of connection points: 2
#     Edge 35, Type (0, 0), BuildingBlock: UVAHIK_clean_linker_0, # of connection points: 2
#     Edge 36, Type (0, 0), BuildingBlock: UVAHIK_clean_linker_0, # of connection points: 2
#     Edge 37, Type (0, 0), BuildingBlock: UVAHIK_clean_linker_0, # of connection points: 2
#     Edge 38, Type (0, 0), BuildingBlock: UVAHIK_clean_linker_0, # of connection points: 2
#     Edge 39, Type (0, 0), BuildingBlock: UVAHIK_clean_linker_0, # of connection points: 2
#     Edge 40, Type (0, 0), BuildingBlock: UVAHIK_clean_linker_0, # of connection points: 2
#     Edge 41, Type (0, 0), BuildingBlock: UVAHIK_clean_linker_0, # of connection points: 2
#     Edge 42, Type (0, 0), BuildingBlock: UVAHIK_clean_linker_0, # of connection points: 2
#     Edge 43, Type (0, 0), BuildingBlock: UVAHIK_clean_linker_0, # of connection points: 2
#     Edge 44, Type (0, 0), BuildingBlock: UVAHIK_clean_linker_0, # of connection points: 2
#     Edge 45, Type (0, 0), BuildingBlock: UVAHIK_clean_linker_0, # of connection points: 2
#     Edge 46, Type (0, 0), BuildingBlock: UVAHIK_clean_linker_0, # of connection points: 2
#     Edge 47, Type (0, 0), BuildingBlock: UVAHIK_clean_linker_0, # of connection points: 2
#     Edge 48, Type (0, 0), BuildingBlock: UVAHIK_clean_linker_0, # of connection points: 2
#     Edge 49, Type (0, 0), BuildingBlock: UVAHIK_clean_linker_0, # of connection points: 2
#     Edge 50, Type (0, 0), BuildingBlock: UVAHIK_clean_linker_0, # of connection points: 2
#     Edge 51, Type (0, 0), BuildingBlock: UVAHIK_clean_linker_0, # of connection points: 2
#     Edge 52, Type (0, 0), BuildingBlock: UVAHIK_clean_linker_0, # of connection points: 2
#     Edge 53, Type (0, 0), BuildingBlock: UVAHIK_clean_linker_0, # of connection points: 2
#     Edge 54, Type (0, 0), BuildingBlock: UVAHIK_clean_linker_0, # of connection points: 2
#     Edge 55, Type (0, 0), BuildingBlock: UVAHIK_clean_linker_0, # of connection points: 2
#     Edge 56, Type (0, 0), BuildingBlock: UVAHIK_clean_linker_0, # of connection points: 2
#     Edge 57, Type (0, 0), BuildingBlock: UVAHIK_clean_linker_0, # of connection points: 2
#     Edge 58, Type (0, 0), BuildingBlock: UVAHIK_clean_linker_0, # of connection points: 2
#     Edge 59, Type (0, 0), BuildingBlock: UVAHIK_clean_linker_0, # of connection points: 2
#     Edge 60, Type (0, 0), BuildingBlock: UVAHIK_clean_linker_0, # of connection points: 2
#     Edge 61, Type (0, 0), BuildingBlock: UVAHIK_clean_linker_0, # of connection points: 2
#     Edge 62, Type (0, 0), BuildingBlock: UVAHIK_clean_linker_0, # of connection points: 2
#     Edge 63, Type (0, 0), BuildingBlock: UVAHIK_clean_linker_0, # of connection points: 2
#     Edge 64, Type (0, 0), BuildingBlock: UVAHIK_clean_linker_0, # of connection points: 2
#     Edge 65, Type (0, 0), BuildingBlock: UVAHIK_clean_linker_0, # of connection points: 2
#     Edge 66, Type (0, 0), BuildingBlock: UVAHIK_clean_linker_0, # of connection points: 2
#     Edge 67, Type (0, 0), BuildingBlock: UVAHIK_clean_linker_0, # of connection points: 2
#     Edge 68, Type (0, 0), BuildingBlock: UVAHIK_clean_linker_0, # of connection points: 2
#     Edge 69, Type (0, 0), BuildingBlock: UVAHIK_clean_linker_0, # of connection points: 2
#     Edge 70, Type (0, 0), BuildingBlock: UVAHIK_clean_linker_0, # of connection points: 2
#     Edge 71, Type (0, 0), BuildingBlock: UVAHIK_clean_linker_0, # of connection points: 2
#     Edge 72, Type (0, 0), BuildingBlock: UVAHIK_clean_linker_0, # of connection points: 2
#     Edge 73, Type (0, 0), BuildingBlock: UVAHIK_clean_linker_0, # of connection points: 2
#     Edge 74, Type (0, 0), BuildingBlock: UVAHIK_clean_linker_0, # of connection points: 2
#     Edge 75, Type (0, 0), BuildingBlock: UVAHIK_clean_linker_0, # of connection points: 2
#     Edge 76, Type (0, 0), BuildingBlock: UVAHIK_clean_linker_0, # of connection points: 2
#     Edge 77, Type (0, 0), BuildingBlock: UVAHIK_clean_linker_0, # of connection points: 2
#     Edge 78, Type (0, 0), BuildingBlock: UVAHIK_clean_linker_0, # of connection points: 2
#     Edge 79, Type (0, 0), BuildingBlock: UVAHIK_clean_linker_0, # of connection points: 2
#     Edge 80, Type (0, 0), BuildingBlock: UVAHIK_clean_linker_0, # of connection points: 2
#     Edge 81, Type (0, 0), BuildingBlock: UVAHIK_clean_linker_0, # of connection points: 2
#     Edge 82, Type (0, 0), BuildingBlock: UVAHIK_clean_linker_0, # of connection points: 2
#     Edge 83, Type (0, 0), BuildingBlock: UVAHIK_clean_linker_0, # of connection points: 2
#     Edge 84, Type (0, 0), BuildingBlock: UVAHIK_clean_linker_0, # of connection points: 2
#     Edge 85, Type (0, 0), BuildingBlock: UVAHIK_clean_linker_0, # of connection points: 2
#     Edge 86, Type (0, 0), BuildingBlock: UVAHIK_clean_linker_0, # of connection points: 2
#     Edge 87, Type (0, 0), BuildingBlock: UVAHIK_clean_linker_0, # of connection points: 2
#     Edge 88, Type (0, 0), BuildingBlock: UVAHIK_clean_linker_0, # of connection points: 2
#     Edge 89, Type (0, 0), BuildingBlock: UVAHIK_clean_linker_0, # of connection points: 2
#     Edge 90, Type (0, 0), BuildingBlock: UVAHIK_clean_linker_0, # of connection points: 2
#     Edge 91, Type (0, 0), BuildingBlock: UVAHIK_clean_linker_0, # of connection points: 2
#     Edge 92, Type (0, 0), BuildingBlock: UVAHIK_clean_linker_0, # of connection points: 2
#     Edge 93, Type (0, 0), BuildingBlock: UVAHIK_clean_linker_0, # of connection points: 2
#     Edge 94, Type (0, 0), BuildingBlock: UVAHIK_clean_linker_0, # of connection points: 2
#     Edge 95, Type (0, 0), BuildingBlock: UVAHIK_clean_linker_0, # of connection points: 2
# Relax obj value: 0.084
# Max RMSD: 0.185
# Mean RMSD: 0.185
data_MOF--net-uke--node1-CEKHIL_clean_sbu_0--edge1-UVAHIK_clean_linker_0
_symmetry_space_group_name_H-M    P1
_symmetry_Int_Tables_number       1
_symmetry_cell_setting            triclinic
loop_
_symmetry_equiv_pos_as_xyz
'x, y, z'
_cell_length_a     25.320144
_cell_length_b     141.02762
_cell_length_c     69.497471
_cell_angle_alpha  89.97376
_cell_angle_beta   89.99103
_cell_angle_gamma 90.025149
loop_
_atom_site_label
_atom_site_type_symbol
_atom_site_fract_x
_atom_site_fract_y
_atom_site_fract_z
_atom_type_partial_charge
Co0 Co 0.08521 0.05302 0.26561 0.0
O1 O 0.05761 0.05083 0.2907 0.0
O2 O 0.01168 0.05714 0.26673 0.0
C3 C 0.1239 0.03882 0.26303 0.0
O4 O 0.10296 0.0557 0.23734 0.0
Co5 Co 0.20708 0.05355 0.26152 0.0
O6 O 0.18934 0.05227 0.23386 0.0
C7 C 0.15255 0.06977 0.27872 0.0
C8 C 0.01344 0.05428 0.28457 0.0
C9 C 0.14412 0.0542 0.22676 0.0
O10 O 0.1085 0.06602 0.27364 0.0
O11 O 0.19707 0.06561 0.27653 0.0
O12 O 0.07406 0.03979 0.25904 0.0
O13 O 0.14694 0.0462 0.27016 0.0
Co14 Co 0.16346 0.18639 0.27464 0.0
O15 O 0.18458 0.18865 0.30049 0.0
O16 O 0.23825 0.18346 0.27757 0.0
C17 C 0.11842 0.19988 0.27115 0.0
O18 O 0.15279 0.18391 0.24583 0.0
Co19 Co 0.04345 0.18379 0.26741 0.0
O20 O 0.0662 0.18664 0.24072 0.0
C21 C 0.10322 0.16825 0.28474 0.0
C22 C 0.23144 0.18601 0.29544 0.0
C23 C 0.11322 0.1855 0.23454 0.0
O24 O 0.14563 0.17295 0.28142 0.0
O25 O 0.05703 0.17153 0.28134 0.0
O26 O 0.16936 0.19979 0.26892 0.0
O27 O 0.09761 0.19213 0.2776 0.0
Co28 Co 0.08737 0.18335 0.98762 0.0
O29 O 0.06616 0.18163 0.96155 0.0
O30 O 0.01588 0.17829 0.98684 0.0
C31 C 0.11982 0.19799 0.98392 0.0
O32 O 0.09868 0.18448 0.01663 0.0
Co33 Co 0.20753 0.18493 0.99487 0.0
O34 O 0.18358 0.18881 0.02093 0.0
C35 C 0.16207 0.16639 0.98631 0.0
C36 C 0.02187 0.17846 0.96821 0.0
C37 C 0.13722 0.18725 0.02741 0.0
O38 O 0.11643 0.17023 0.9878 0.0
O39 O 0.20513 0.17115 0.98691 0.0
O40 O 0.06963 0.19666 0.98659 0.0
O41 O 0.14774 0.19039 0.98133 0.0
Co42 Co 0.15603 0.05003 0.97944 0.0
O43 O 0.17065 0.04671 0.95341 0.0
O44 O 0.22843 0.0535 0.97296 0.0
C45 C 0.11603 0.03649 0.98766 0.0
O46 O 0.15189 0.05401 0.00778 0.0
Co47 Co 0.03667 0.05204 0.98943 0.0
O48 O 0.06549 0.05321 0.01582 0.0
C49 C 0.08907 0.06741 0.96879 0.0
C50 C 0.21736 0.05021 0.95588 0.0
C51 C 0.11393 0.05449 0.02018 0.0
O52 O 0.1328 0.06296 0.97094 0.0
O53 O 0.04448 0.06399 0.97399 0.0
O54 O 0.16728 0.03702 0.98769 0.0
O55 O 0.09168 0.04365 0.98021 0.0
Co56 Co 0.90475 0.93823 0.73121 0.0
O57 O 0.91721 0.94082 0.70471 0.0
O58 O 0.97707 0.93484 0.72451 0.0
C59 C 0.86425 0.95188 0.7382 0.0
O60 O 0.90296 0.93511 0.76 0.0
Co61 Co 0.78633 0.93616 0.74248 0.0
O62 O 0.81697 0.93581 0.76867 0.0
C63 C 0.83891 0.92033 0.72346 0.0
C64 C 0.96451 0.93759 0.70717 0.0
C65 C 0.86581 0.93485 0.77275 0.0
O66 O 0.88223 0.92501 0.72453 0.0
O67 O 0.79434 0.92373 0.7287 0.0
O68 O 0.9155 0.95147 0.73777 0.0
O69 O 0.83986 0.94446 0.73182 0.0
Co70 Co 0.84623 0.80393 0.73513 0.0
O71 O 0.82525 0.8064 0.70929 0.0
O72 O 0.77451 0.8089 0.73485 0.0
C73 C 0.87925 0.78947 0.72972 0.0
O74 O 0.85748 0.80193 0.76398 0.0
Co75 Co 0.96659 0.80223 0.74231 0.0
O76 O 0.94215 0.79731 0.76758 0.0
C77 C 0.92042 0.82097 0.7363 0.0
C78 C 0.78068 0.80926 0.71625 0.0
C79 C 0.89591 0.79872 0.7743 0.0
O80 O 0.87483 0.81706 0.73705 0.0
O81 O 0.96363 0.81626 0.73638 0.0
O82 O 0.82896 0.79065 0.73239 0.0
O83 O 0.9069 0.79716 0.72813 0.0
Co84 Co 0.91878 0.79801 0.02143 0.0
O85 O 0.92579 0.79534 0.04819 0.0
O86 O 0.99086 0.80055 0.02971 0.0
C87 C 0.87444 0.78491 0.01335 0.0
O88 O 0.92308 0.80108 0.99267 0.0
Co89 Co 0.80347 0.80156 0.00761 0.0
O90 O 0.83855 0.80155 0.98214 0.0
C91 C 0.85823 0.81655 0.02849 0.0
C92 C 0.97444 0.79804 0.04677 0.0
C93 C 0.88825 0.80181 0.97916 0.0
O94 O 0.90021 0.81148 0.02764 0.0
O95 O 0.81323 0.8136 0.02261 0.0
O96 O 0.92552 0.78466 0.01511 0.0
O97 O 0.85194 0.79261 0.01925 0.0
Co98 Co 0.83641 0.93313 0.01817 0.0
O99 O 0.81204 0.93171 0.04395 0.0
O100 O 0.76444 0.92828 0.01802 0.0
C101 C 0.8701 0.94768 0.02198 0.0
O102 O 0.85102 0.93403 0.98928 0.0
Co103 Co 0.95747 0.93436 0.01246 0.0
O104 O 0.93658 0.93815 0.98603 0.0
C105 C 0.90944 0.91611 0.02217 0.0
C106 C 0.76832 0.9286 0.03671 0.0
C107 C 0.89079 0.93669 0.97896 0.0
O108 O 0.86427 0.91991 0.01906 0.0
O109 O 0.95263 0.92084 0.02188 0.0
O110 O 0.82009 0.94654 0.01856 0.0
O111 O 0.89674 0.93999 0.02508 0.0
Co112 Co 0.1034 0.55346 0.76687 0.0
O113 O 0.08833 0.54954 0.79251 0.0
O114 O 0.02869 0.5553 0.77233 0.0
C115 C 0.15266 0.54095 0.75871 0.0
O116 O 0.10715 0.55772 0.73875 0.0
Co117 Co 0.22015 0.55835 0.75828 0.0
O118 O 0.19385 0.55862 0.73144 0.0
C119 C 0.1574 0.57177 0.78037 0.0
C120 C 0.03998 0.55208 0.78944 0.0
C121 C 0.14526 0.55881 0.7266 0.0
O122 O 0.11699 0.56665 0.77641 0.0
O123 O 0.20441 0.56939 0.77566 0.0
O124 O 0.10144 0.54047 0.75794 0.0
O125 O 0.17182 0.54848 0.76678 0.0
Co126 Co 0.14479 0.68488 0.76795 0.0
O127 O 0.16021 0.68855 0.79369 0.0
O128 O 0.21687 0.68123 0.77451 0.0
C129 C 0.10674 0.69848 0.75898 0.0
O130 O 0.13981 0.68055 0.7399 0.0
Co131 Co 0.0255 0.68305 0.75854 0.0
O132 O 0.05335 0.68152 0.73208 0.0
C133 C 0.07556 0.66824 0.78127 0.0
C134 C 0.20647 0.68485 0.79137 0.0
C135 C 0.1016 0.68011 0.7276 0.0
O136 O 0.11993 0.67222 0.77751 0.0
O137 O 0.03123 0.67184 0.77633 0.0
O138 O 0.15785 0.69766 0.75883 0.0
O139 O 0.08127 0.69155 0.76693 0.0
Co140 Co 0.05169 0.68661 0.48334 0.0
O141 O 0.02229 0.68903 0.45859 0.0
O142 O 0.9775 0.683 0.4832 0.0
C143 C 0.09484 0.70039 0.48581 0.0
O144 O 0.07124 0.68372 0.51132 0.0
Co145 Co 0.17357 0.68485 0.48596 0.0
O146 O 0.15868 0.68644 0.5138 0.0
C147 C 0.1126 0.6691 0.46992 0.0
C148 C 0.97832 0.68573 0.46528 0.0
C149 C 0.11363 0.68488 0.5214 0.0
O150 O 0.0704 0.67344 0.47505 0.0
O151 O 0.15876 0.67269 0.47179 0.0
O152 O 0.04492 0.69992 0.49011 0.0
O153 O 0.11499 0.69285 0.47822 0.0
Co154 Co 0.16909 0.55425 0.48081 0.0
O155 O 0.19402 0.55434 0.45494 0.0
O156 O 0.23942 0.55979 0.47996 0.0
C157 C 0.13904 0.53934 0.48088 0.0
O158 O 0.15365 0.55497 0.50967 0.0
Co159 Co 0.0479 0.5522 0.48649 0.0
O160 O 0.06925 0.55026 0.51368 0.0
C161 C 0.091 0.5701 0.47212 0.0
C162 C 0.23624 0.55838 0.46146 0.0
C163 C 0.11433 0.55255 0.52046 0.0
O164 O 0.13727 0.56706 0.4764 0.0
O165 O 0.04941 0.56499 0.47361 0.0
O166 O 0.18881 0.54101 0.48392 0.0
O167 O 0.11106 0.54656 0.47568 0.0
Co168 Co 0.92234 0.43517 0.23591 0.0
O169 O 0.94115 0.43248 0.20993 0.0
O170 O 0.99562 0.43104 0.23477 0.0
C171 C 0.88329 0.44908 0.22981 0.0
O172 O 0.9138 0.4375 0.26479 0.0
Co173 Co 0.80238 0.43579 0.24505 0.0
O174 O 0.82809 0.44111 0.26977 0.0
C175 C 0.85422 0.41748 0.23902 0.0
C176 C 0.98745 0.43024 0.21632 0.0
C177 C 0.87557 0.44031 0.2757 0.0
O178 O 0.89873 0.42179 0.23914 0.0
O179 O 0.80976 0.4218 0.23944 0.0
O180 O 0.93416 0.44859 0.23189 0.0
O181 O 0.85858 0.44105 0.22942 0.0
Co182 Co 0.81751 0.30086 0.22748 0.0
O183 O 0.79214 0.30146 0.20169 0.0
O184 O 0.74693 0.30627 0.22731 0.0
C185 C 0.84845 0.28604 0.22614 0.0
O186 O 0.83336 0.30104 0.25636 0.0
Co187 Co 0.93895 0.29884 0.23292 0.0
O188 O 0.91799 0.29642 0.25997 0.0
C189 C 0.89491 0.31723 0.22182 0.0
C190 C 0.74983 0.30526 0.2087 0.0
C191 C 0.87297 0.29858 0.26696 0.0
O192 O 0.84851 0.31379 0.22427 0.0
O193 O 0.93717 0.31231 0.22342 0.0
O194 O 0.79861 0.28753 0.22943 0.0
O195 O 0.87595 0.29343 0.22154 0.0
Co196 Co 0.92013 0.30443 0.51243 0.0
O197 O 0.94449 0.30186 0.53782 0.0
O198 O 0.99243 0.30894 0.51522 0.0
C199 C 0.88359 0.29021 0.50735 0.0
O200 O 0.90595 0.30759 0.48418 0.0
Co201 Co 0.79847 0.30475 0.50685 0.0
O202 O 0.8187 0.30529 0.47932 0.0
C203 C 0.84942 0.32071 0.52604 0.0
C204 C 0.98849 0.3058 0.53281 0.0
C205 C 0.86511 0.30703 0.4731 0.0
O206 O 0.8941 0.31717 0.52109 0.0
O207 O 0.80549 0.31645 0.52314 0.0
O208 O 0.93404 0.2914 0.50484 0.0
O209 O 0.85874 0.29727 0.515 0.0
Co210 Co 0.83422 0.43771 0.52215 0.0
O211 O 0.81132 0.43947 0.54799 0.0
O212 O 0.75942 0.43457 0.52428 0.0
C213 C 0.87873 0.45136 0.51998 0.0
O214 O 0.84689 0.43577 0.49327 0.0
Co215 Co 0.95462 0.43537 0.51588 0.0
O216 O 0.93374 0.43867 0.4892 0.0
C217 C 0.89441 0.41945 0.53151 0.0
C218 C 0.76499 0.43679 0.54238 0.0
C219 C 0.88723 0.4376 0.48249 0.0
O220 O 0.85219 0.42419 0.5281 0.0
O221 O 0.94074 0.42284 0.5288 0.0
O222 O 0.82794 0.45119 0.51735 0.0
O223 O 0.89961 0.44353 0.52607 0.0
Co224 Co 0.57963 0.05546 0.76531 0.0
O225 O 0.55384 0.05616 0.79102 0.0
O226 O 0.50655 0.05978 0.76515 0.0
C227 C 0.61637 0.04111 0.76805 0.0
O228 O 0.59598 0.05521 0.73644 0.0
Co229 Co 0.70115 0.05551 0.76099 0.0
O230 O 0.68407 0.05323 0.73354 0.0
C231 C 0.64762 0.07294 0.77221 0.0
C232 C 0.5098 0.05914 0.78383 0.0
C233 C 0.63802 0.05393 0.72622 0.0
O234 O 0.60415 0.06888 0.7676 0.0
O235 O 0.692 0.0686 0.77218 0.0
O236 O 0.56633 0.04198 0.7644 0.0
O237 O 0.64112 0.0489 0.77213 0.0
Co238 Co 0.67548 0.18996 0.77308 0.0
O239 O 0.6937 0.19278 0.79901 0.0
O240 O 0.74787 0.18598 0.7781 0.0
C241 C 0.6372 0.20385 0.76628 0.0
O242 O 0.66753 0.18654 0.74464 0.0
Co243 Co 0.55488 0.18876 0.76481 0.0
O244 O 0.58049 0.18792 0.73793 0.0
C245 C 0.60632 0.17291 0.78416 0.0
C246 C 0.73947 0.1891 0.79551 0.0
C247 C 0.62824 0.18653 0.73278 0.0
O248 O 0.65073 0.17703 0.78112 0.0
O249 O 0.56191 0.17676 0.78013 0.0
O250 O 0.68828 0.20302 0.76547 0.0
O251 O 0.61235 0.19671 0.7737 0.0
Co252 Co 0.585 0.18689 0.48757 0.0
O253 O 0.56389 0.18488 0.46157 0.0
O254 O 0.51134 0.18298 0.48689 0.0
C255 C 0.62517 0.20082 0.48275 0.0
O256 O 0.596 0.18854 0.5165 0.0
Co257 Co 0.70572 0.18684 0.49541 0.0
O258 O 0.68236 0.19186 0.52069 0.0
C259 C 0.65119 0.16883 0.48885 0.0
C260 C 0.51803 0.18258 0.46831 0.0
C261 C 0.63537 0.19108 0.52713 0.0
O262 O 0.60736 0.17336 0.48927 0.0
O263 O 0.69626 0.17295 0.48945 0.0
O264 O 0.57433 0.20043 0.48506 0.0
O265 O 0.64886 0.19273 0.48108 0.0
Co266 Co 0.66976 0.05014 0.47913 0.0
O267 O 0.68977 0.05118 0.45273 0.0
O268 O 0.74249 0.05452 0.47736 0.0
C269 C 0.63177 0.03586 0.47707 0.0
O270 O 0.66012 0.04954 0.50842 0.0
Co271 Co 0.5493 0.0498 0.48774 0.0
O272 O 0.57474 0.04572 0.51341 0.0
C273 C 0.60004 0.06783 0.47803 0.0
C274 C 0.73521 0.05409 0.45882 0.0
C275 C 0.62168 0.04701 0.51955 0.0
O276 O 0.64475 0.06358 0.47855 0.0
O277 O 0.55588 0.06353 0.48016 0.0
O278 O 0.68269 0.03658 0.47888 0.0
O279 O 0.60681 0.04373 0.47412 0.0
Co280 Co 0.42181 0.93584 0.23164 0.0
O281 O 0.44328 0.93922 0.20631 0.0
O282 O 0.49524 0.9322 0.22767 0.0
C283 C 0.38127 0.94951 0.23842 0.0
O284 O 0.41065 0.93191 0.25968 0.0
Co285 Co 0.301 0.93405 0.23803 0.0
O286 O 0.32307 0.9331 0.26532 0.0
C287 C 0.35602 0.919 0.21745 0.0
C288 C 0.48893 0.93564 0.21039 0.0
C289 C 0.37033 0.93175 0.27107 0.0
O290 O 0.39958 0.92303 0.22211 0.0
O291 O 0.31083 0.92266 0.22102 0.0
O292 O 0.43215 0.94877 0.24036 0.0
O293 O 0.35803 0.94241 0.23023 0.0
Co294 Co 0.34494 0.80421 0.23798 0.0
O295 O 0.32043 0.80266 0.21228 0.0
O296 O 0.27163 0.8083 0.23622 0.0
C297 C 0.38383 0.79006 0.24076 0.0
O298 O 0.35981 0.80643 0.26658 0.0
Co299 Co 0.46628 0.80522 0.24282 0.0
O300 O 0.44769 0.80466 0.27051 0.0
C301 C 0.41127 0.82118 0.22543 0.0
C302 C 0.27607 0.80621 0.21801 0.0
C303 C 0.40135 0.80584 0.27731 0.0
O304 O 0.36806 0.81735 0.23108 0.0
O305 O 0.4563 0.81718 0.22739 0.0
O306 O 0.33336 0.79093 0.24362 0.0
O307 O 0.40751 0.79749 0.23398 0.0
Co308 Co 0.4376 0.79863 0.5236 0.0
O309 O 0.4629 0.79638 0.54897 0.0
O310 O 0.51187 0.80217 0.52523 0.0
C311 C 0.39466 0.78485 0.52064 0.0
O312 O 0.42227 0.8013 0.49517 0.0
Co313 Co 0.31614 0.80043 0.51885 0.0
O314 O 0.33492 0.79888 0.49134 0.0
C315 C 0.37531 0.8164 0.5348 0.0
C316 C 0.5081 0.79956 0.54319 0.0
C317 C 0.38097 0.80028 0.48444 0.0
O318 O 0.41803 0.8119 0.53097 0.0
O319 O 0.32933 0.81285 0.53223 0.0
O320 O 0.44517 0.78527 0.51739 0.0
O321 O 0.37357 0.79245 0.52765 0.0
Co322 Co 0.34057 0.93296 0.51783 0.0
O323 O 0.31897 0.93263 0.5441 0.0
O324 O 0.26828 0.92834 0.51953 0.0
C325 C 0.37626 0.94746 0.51842 0.0
O326 O 0.35227 0.9327 0.48869 0.0
Co327 Co 0.46161 0.93359 0.51052 0.0
O328 O 0.43776 0.93657 0.484 0.0
C329 C 0.41289 0.91594 0.52374 0.0
C330 C 0.27429 0.92932 0.53805 0.0
C331 C 0.39132 0.93498 0.47763 0.0
O332 O 0.36759 0.91969 0.52055 0.0
O333 O 0.45628 0.92054 0.52216 0.0
O334 O 0.32565 0.94644 0.51619 0.0
O335 O 0.40207 0.93982 0.5226 0.0
Co336 Co 0.58708 0.55098 0.26451 0.0
O337 O 0.57797 0.54813 0.29108 0.0
O338 O 0.51585 0.55438 0.27258 0.0
C339 C 0.62636 0.53738 0.25629 0.0
O340 O 0.58523 0.55438 0.23589 0.0
Co341 Co 0.704 0.55313 0.25141 0.0
O342 O 0.67012 0.55395 0.22577 0.0
C343 C 0.65544 0.5684 0.27337 0.0
C344 C 0.53057 0.55146 0.28958 0.0
C345 C 0.62074 0.55485 0.22257 0.0
O346 O 0.61107 0.56411 0.27147 0.0
O347 O 0.69928 0.56481 0.26783 0.0
O348 O 0.57521 0.5378 0.25758 0.0
O349 O 0.65156 0.54474 0.26251 0.0
Co350 Co 0.6738 0.68547 0.26543 0.0
O351 O 0.69939 0.68705 0.29099 0.0
O352 O 0.74743 0.6815 0.26673 0.0
C353 C 0.63375 0.69955 0.26332 0.0
O354 O 0.65832 0.6835 0.2368 0.0
Co355 Co 0.55251 0.68421 0.26085 0.0
O356 O 0.57034 0.68531 0.23319 0.0
C357 C 0.60894 0.66785 0.27607 0.0
C358 C 0.74398 0.68376 0.28488 0.0
C359 C 0.61659 0.68428 0.22623 0.0
O360 O 0.65196 0.67218 0.27185 0.0
O361 O 0.56341 0.67166 0.2741 0.0
O362 O 0.68417 0.69881 0.26018 0.0
O363 O 0.61076 0.69201 0.26993 0.0
Co364 Co 0.57122 0.68559 0.98149 0.0
O365 O 0.55127 0.68231 0.9559 0.0
O366 O 0.49799 0.68138 0.98118 0.0
C367 C 0.60949 0.69941 0.97393 0.0
O368 O 0.58111 0.68856 0.01007 0.0
Co369 Co 0.69172 0.68651 0.98963 0.0
O370 O 0.66717 0.69215 0.01421 0.0
C371 C 0.64002 0.66803 0.98602 0.0
C372 C 0.50526 0.68021 0.96276 0.0
C373 C 0.61999 0.69148 0.02054 0.0
O374 O 0.59539 0.6723 0.98584 0.0
O375 O 0.6844 0.67239 0.98568 0.0
O376 O 0.55874 0.69889 0.97632 0.0
O377 O 0.63443 0.6914 0.97407 0.0
Co378 Co 0.66503 0.55079 0.9782 0.0
O379 O 0.68832 0.55172 0.95219 0.0
O380 O 0.73599 0.55607 0.97752 0.0
C381 C 0.63356 0.53602 0.97626 0.0
O382 O 0.65133 0.55058 0.00724 0.0
Co383 Co 0.54423 0.54892 0.9848 0.0
O384 O 0.56758 0.5455 0.01112 0.0
C385 C 0.58851 0.56746 0.97484 0.0
C386 C 0.73154 0.55532 0.9589 0.0
C387 C 0.61282 0.54766 0.0179 0.0
O388 O 0.63471 0.56381 0.97611 0.0
O389 O 0.54594 0.56266 0.97686 0.0
O390 O 0.68359 0.53747 0.97918 0.0
O391 O 0.60573 0.54347 0.97238 0.0
Co392 Co 0.42037 0.43607 0.73551 0.0
O393 O 0.4456 0.43594 0.70966 0.0
O394 O 0.48973 0.43014 0.73466 0.0
C395 C 0.39332 0.4512 0.73518 0.0
O396 O 0.40491 0.43537 0.76438 0.0
Co397 Co 0.3003 0.43873 0.74143 0.0
O398 O 0.32153 0.44049 0.76866 0.0
C399 C 0.33972 0.42049 0.72754 0.0
C400 C 0.48712 0.43169 0.7162 0.0
C401 C 0.36621 0.43792 0.77532 0.0
O402 O 0.38661 0.42345 0.73106 0.0
O403 O 0.29876 0.42573 0.72941 0.0
O404 O 0.44242 0.44916 0.73866 0.0
O405 O 0.36368 0.44414 0.73014 0.0
Co406 Co 0.30614 0.30216 0.72929 0.0
O407 O 0.27635 0.30095 0.70422 0.0
O408 O 0.23134 0.30524 0.73025 0.0
C409 C 0.35166 0.28856 0.72832 0.0
O410 O 0.32561 0.30366 0.75768 0.0
Co411 Co 0.42744 0.30442 0.73244 0.0
O412 O 0.41356 0.3016 0.75995 0.0
C413 C 0.36361 0.32067 0.72018 0.0
C414 C 0.23201 0.30353 0.71183 0.0
C415 C 0.36811 0.30248 0.76766 0.0
O416 O 0.32214 0.31581 0.72407 0.0
O417 O 0.41035 0.31724 0.72127 0.0
O418 O 0.30193 0.28854 0.73297 0.0
O419 O 0.37051 0.2966 0.72257 0.0
Co420 Co 0.395 0.30221 0.01369 0.0
O421 O 0.41192 0.29798 0.03895 0.0
O422 O 0.46849 0.30514 0.01942 0.0
C423 C 0.35226 0.28913 0.00444 0.0
O424 O 0.38904 0.30698 0.98597 0.0
Co425 Co 0.27635 0.30541 0.00556 0.0
O426 O 0.30217 0.30657 0.97876 0.0
C427 C 0.3322 0.31923 0.02895 0.0
C428 C 0.45878 0.30137 0.0362 0.0
C429 C 0.3504 0.30765 0.97391 0.0
O430 O 0.37488 0.31488 0.02446 0.0
O431 O 0.28646 0.31628 0.02393 0.0
O432 O 0.4035 0.28952 0.00362 0.0
O433 O 0.3294 0.29614 0.01311 0.0
Co434 Co 0.34911 0.43299 0.02164 0.0
O435 O 0.33268 0.43636 0.04746 0.0
O436 O 0.27552 0.42993 0.02716 0.0
C437 C 0.39149 0.44637 0.01412 0.0
O438 O 0.35481 0.42918 0.99329 0.0
Co439 Co 0.46796 0.43023 0.01289 0.0
O440 O 0.44169 0.42975 0.98604 0.0
C441 C 0.41249 0.41555 0.0343 0.0
C442 C 0.28548 0.43322 0.04432 0.0
C443 C 0.39339 0.42884 0.98114 0.0
O444 O 0.3695 0.41996 0.03044 0.0
O445 O 0.45805 0.41884 0.02996 0.0
O446 O 0.34027 0.44598 0.0134 0.0
O447 O 0.41463 0.4391 0.02177 0.0
C448 C 0.17057 0.05308 0.04991 0.0
C449 C 0.12495 0.05647 0.04071 0.0
C450 C 0.17516 0.05363 0.07003 0.0
C451 C 0.08938 0.055 0.11295 0.0
H452 H 0.21859 0.06071 0.14042 0.0
C453 C 0.09585 0.05854 0.19615 0.0
C454 C 0.14036 0.05473 0.20545 0.0
C455 C 0.0943 0.05919 0.176 0.0
C456 C 0.18225 0.05901 0.13297 0.0
H457 H 0.05054 0.06379 0.04511 0.0
H458 H 0.05904 0.06491 0.07981 0.0
H459 H 0.21784 0.06119 0.1053 0.0
H460 H 0.21746 0.04836 0.20068 0.0
H461 H 0.21418 0.04934 0.16595 0.0
H462 H 0.05386 0.05268 0.1405 0.0
C463 C 0.09049 0.06155 0.07174 0.0
C464 C 0.18191 0.05929 0.11283 0.0
C465 C 0.08582 0.06096 0.05181 0.0
C466 C 0.18272 0.05146 0.19411 0.0
C467 C 0.18106 0.05207 0.1741 0.0
C468 C 0.08975 0.05468 0.13305 0.0
C469 C 0.13429 0.05762 0.08118 0.0
C470 C 0.13542 0.05731 0.10259 0.0
C471 C 0.13712 0.05601 0.16475 0.0
C472 C 0.1362 0.05666 0.14334 0.0
H473 H 0.2012 0.04955 0.04172 0.0
H474 H 0.20946 0.05054 0.07689 0.0
H475 H 0.05308 0.05325 0.1055 0.0
H476 H 0.06259 0.06113 0.20441 0.0
H477 H 0.0599 0.06231 0.16926 0.0
C478 C 0.09071 0.18275 0.05805 0.0
C479 C 0.12968 0.18805 0.04849 0.0
C480 C 0.08888 0.18257 0.0782 0.0
C481 C 0.0785 0.18672 0.121 0.0
H482 H 0.21202 0.18705 0.14841 0.0
C483 C 0.08487 0.1916 0.20263 0.0
C484 C 0.12085 0.18621 0.21347 0.0
C485 C 0.08787 0.19186 0.18264 0.0
C486 C 0.17443 0.18685 0.14099 0.0
H487 H 0.19516 0.19778 0.05252 0.0
H488 H 0.19086 0.19771 0.08744 0.0
H489 H 0.21147 0.18733 0.11335 0.0
H490 H 0.18961 0.17712 0.21182 0.0
H491 H 0.19441 0.1774 0.17654 0.0
H492 H 0.04147 0.18594 0.14857 0.0
C493 C 0.16291 0.19341 0.07951 0.0
C494 C 0.17402 0.18716 0.12087 0.0
C495 C 0.16506 0.19352 0.05945 0.0
C496 C 0.16132 0.18133 0.20384 0.0
C497 C 0.16403 0.18151 0.18365 0.0
C498 C 0.07892 0.18636 0.14109 0.0
C499 C 0.12566 0.18776 0.08919 0.0
C500 C 0.12602 0.18719 0.11061 0.0
C501 C 0.12662 0.18665 0.17281 0.0
C502 C 0.12685 0.18654 0.15137 0.0
H503 H 0.06312 0.17842 0.05001 0.0
H504 H 0.05981 0.17809 0.08514 0.0
H505 H 0.0408 0.1868 0.11365 0.0
H506 H 0.05387 0.19562 0.20962 0.0
H507 H 0.05949 0.19614 0.17487 0.0
C508 C 0.84342 0.93318 0.9479 0.0
C509 C 0.88524 0.93756 0.95778 0.0
C510 C 0.84242 0.93311 0.92774 0.0
C511 C 0.93233 0.93529 0.88588 0.0
H512 H 0.80211 0.93759 0.85702 0.0
C513 C 0.92112 0.93817 0.80206 0.0
C514 C 0.87824 0.93355 0.79334 0.0
C515 C 0.92531 0.93842 0.82221 0.0
C516 C 0.83881 0.93684 0.86488 0.0
H517 H 0.95706 0.9458 0.9542 0.0
H518 H 0.95467 0.94582 0.91926 0.0
H519 H 0.80026 0.93901 0.89192 0.0
H520 H 0.80884 0.92491 0.79859 0.0
H521 H 0.81687 0.92514 0.8334 0.0
H522 H 0.97079 0.93313 0.85873 0.0
C523 C 0.92349 0.9422 0.927 0.0
C524 C 0.83769 0.93765 0.8849 0.0
C525 C 0.92461 0.94223 0.94707 0.0
C526 C 0.84194 0.92864 0.80495 0.0
C527 C 0.84626 0.92884 0.82491 0.0
C528 C 0.93345 0.93449 0.86581 0.0
C529 C 0.88308 0.93746 0.91706 0.0
C530 C 0.88436 0.93683 0.89568 0.0
C531 C 0.88679 0.93402 0.83383 0.0
C532 C 0.8866 0.93516 0.8551 0.0
H533 H 0.81256 0.9295 0.9557 0.0
H534 H 0.81079 0.92935 0.92054 0.0
H535 H 0.96897 0.9345 0.89376 0.0
H536 H 0.9494 0.94206 0.79342 0.0
H537 H 0.95708 0.94245 0.82867 0.0
C538 C 0.87589 0.80914 0.94718 0.0
C539 C 0.90444 0.80287 0.95892 0.0
C540 C 0.88085 0.80881 0.92724 0.0
C541 C 0.91144 0.79188 0.88887 0.0
H542 H 0.89823 0.81415 0.85645 0.0
C543 C 0.92321 0.79142 0.80548 0.0
C544 C 0.88911 0.79749 0.7953 0.0
C545 C 0.9244 0.7915 0.82557 0.0
C546 C 0.90127 0.80786 0.86533 0.0
H547 H 0.96247 0.79162 0.95917 0.0
H548 H 0.97181 0.79105 0.92397 0.0
H549 H 0.91036 0.81604 0.89101 0.0
H550 H 0.82733 0.80802 0.79824 0.0
H551 H 0.82945 0.80818 0.83346 0.0
H552 H 0.90257 0.78372 0.86304 0.0
C553 C 0.94526 0.7962 0.93029 0.0
C554 C 0.90854 0.80894 0.88513 0.0
C555 C 0.94057 0.79661 0.9504 0.0
C556 C 0.85393 0.80325 0.80567 0.0
C557 C 0.85557 0.80341 0.82581 0.0
C558 C 0.9045 0.7908 0.869 0.0
C559 C 0.91428 0.80214 0.91848 0.0
C560 C 0.91298 0.80097 0.8972 0.0
C561 C 0.8919 0.79774 0.83593 0.0
C562 C 0.89864 0.79879 0.85706 0.0
H563 H 0.84754 0.81401 0.95343 0.0
H564 H 0.85598 0.81342 0.91868 0.0
H565 H 0.91384 0.78559 0.89776 0.0
H566 H 0.95058 0.78686 0.79788 0.0
H567 H 0.95281 0.78705 0.83293 0.0
C568 C 0.08997 0.55548 0.69727 0.0
C569 C 0.13401 0.55984 0.70581 0.0
C570 C 0.08549 0.55507 0.67716 0.0
C571 C 0.17095 0.55571 0.63406 0.0
H572 H 0.03973 0.55837 0.60593 0.0
C573 C 0.16226 0.55737 0.55073 0.0
C574 C 0.11972 0.55275 0.54173 0.0
C575 C 0.16408 0.55816 0.57082 0.0
C576 C 0.07664 0.5575 0.6136 0.0
H577 H 0.20557 0.56783 0.70008 0.0
H578 H 0.19711 0.5673 0.6653 0.0
H579 H 0.04003 0.56028 0.64084 0.0
H580 H 0.04708 0.54494 0.54692 0.0
H581 H 0.0508 0.54621 0.5817 0.0
H582 H 0.20758 0.55289 0.60689 0.0
C583 C 0.16692 0.56393 0.67397 0.0
C584 C 0.07675 0.55861 0.63361 0.0
C585 C 0.17153 0.56429 0.69393 0.0
C586 C 0.08012 0.54867 0.5533 0.0
C587 C 0.08202 0.54944 0.57329 0.0
C588 C 0.17084 0.5546 0.61408 0.0
C589 C 0.12486 0.55905 0.66531 0.0
C590 C 0.12398 0.55777 0.64406 0.0
C591 C 0.1235 0.55432 0.58231 0.0
C592 C 0.12372 0.5555 0.60359 0.0
H593 H 0.06063 0.55194 0.70606 0.0
H594 H 0.05258 0.55124 0.67092 0.0
H595 H 0.20787 0.55481 0.64171 0.0
H596 H 0.19335 0.5606 0.54226 0.0
H597 H 0.19652 0.562 0.57732 0.0
C598 C 0.07357 0.67379 0.69588 0.0
C599 C 0.11235 0.67834 0.70701 0.0
C600 C 0.07686 0.67373 0.67587 0.0
C601 C 0.16359 0.67801 0.63406 0.0
H602 H 0.03151 0.68456 0.60903 0.0
C603 C 0.1543 0.6877 0.55366 0.0
C604 C 0.11156 0.68428 0.54271 0.0
C605 C 0.15472 0.6868 0.57364 0.0
C606 C 0.06854 0.6826 0.61572 0.0
H607 H 0.18672 0.68591 0.70599 0.0
H608 H 0.19259 0.68583 0.67072 0.0
H609 H 0.03447 0.68286 0.64386 0.0
H610 H 0.03513 0.67741 0.54434 0.0
H611 H 0.03613 0.6757 0.57938 0.0
H612 H 0.19765 0.67773 0.60589 0.0
C613 C 0.15968 0.68227 0.67758 0.0
C614 C 0.0703 0.68163 0.63572 0.0
C615 C 0.1565 0.68229 0.69775 0.0
C616 C 0.06859 0.68012 0.55233 0.0
C617 C 0.06917 0.67917 0.57242 0.0
C618 C 0.1618 0.67894 0.61402 0.0
C619 C 0.11885 0.67827 0.66644 0.0
C620 C 0.11777 0.67929 0.64513 0.0
C621 C 0.11256 0.68242 0.58329 0.0
C622 C 0.11423 0.68126 0.6046 0.0
H623 H 0.03938 0.67059 0.70264 0.0
H624 H 0.04555 0.67035 0.66775 0.0
H625 H 0.20064 0.67613 0.64086 0.0
H626 H 0.18778 0.69108 0.54679 0.0
H627 H 0.18813 0.6896 0.58153 0.0
C628 C 0.84183 0.43393 0.45097 0.0
C629 C 0.88118 0.4387 0.46141 0.0
C630 C 0.84085 0.43446 0.43078 0.0
C631 C 0.92955 0.44011 0.38963 0.0
H632 H 0.7996 0.44127 0.36035 0.0
C633 C 0.84923 0.4474 0.30715 0.0
C634 C 0.88452 0.44175 0.29654 0.0
C635 C 0.85083 0.44749 0.32721 0.0
C636 C 0.83635 0.44105 0.36831 0.0
H637 H 0.94792 0.4483 0.45902 0.0
H638 H 0.9453 0.44942 0.42427 0.0
H639 H 0.79583 0.44056 0.39536 0.0
H640 H 0.95087 0.43212 0.29867 0.0
H641 H 0.95339 0.43217 0.33382 0.0
H642 H 0.97014 0.44087 0.36267 0.0
C643 C 0.91647 0.44496 0.4314 0.0
C644 C 0.83409 0.4405 0.3884 0.0
C645 C 0.91775 0.44436 0.45138 0.0
C646 C 0.92342 0.43659 0.30644 0.0
C647 C 0.92472 0.43661 0.3266 0.0
C648 C 0.93181 0.4407 0.36957 0.0
C649 C 0.87891 0.43985 0.42076 0.0
C650 C 0.88069 0.44009 0.39933 0.0
C651 C 0.88745 0.44187 0.33724 0.0
C652 C 0.88526 0.44123 0.35864 0.0
H653 H 0.81313 0.42953 0.45832 0.0
H654 H 0.81135 0.43043 0.42303 0.0
H655 H 0.9663 0.43963 0.39754 0.0
H656 H 0.81916 0.45155 0.29992 0.0
H657 H 0.82258 0.45184 0.33488 0.0
C658 C 0.91035 0.29542 0.29965 0.0
C659 C 0.86847 0.29884 0.28826 0.0
C660 C 0.90975 0.2965 0.31959 0.0
C661 C 0.82372 0.3009 0.36122 0.0
H662 H 0.95314 0.30973 0.38519 0.0
C663 C 0.82782 0.31105 0.44098 0.0
C664 C 0.87106 0.30797 0.45201 0.0
C665 C 0.82911 0.31057 0.42096 0.0
C666 C 0.91688 0.30717 0.37878 0.0
H667 H 0.79199 0.30574 0.28915 0.0
H668 H 0.79086 0.30759 0.32418 0.0
H669 H 0.95025 0.30724 0.35047 0.0
H670 H 0.95052 0.30234 0.45067 0.0
H671 H 0.95266 0.30134 0.4155 0.0
H672 H 0.79047 0.30067 0.38947 0.0
C673 C 0.82422 0.30408 0.31752 0.0
C674 C 0.91518 0.30575 0.35887 0.0
C675 C 0.82486 0.30302 0.29746 0.0
C676 C 0.91678 0.30482 0.44253 0.0
C677 C 0.91789 0.30425 0.42238 0.0
C678 C 0.82548 0.30226 0.38112 0.0
C679 C 0.86721 0.30099 0.32874 0.0
C680 C 0.86859 0.30259 0.34987 0.0
C681 C 0.87345 0.30688 0.4114 0.0
C682 C 0.87203 0.30545 0.39017 0.0
H683 H 0.94438 0.29204 0.29316 0.0
H684 H 0.9429 0.29385 0.32785 0.0
H685 H 0.78751 0.29833 0.35476 0.0
H686 H 0.79222 0.31362 0.44788 0.0
H687 H 0.79479 0.31292 0.41298 0.0
C688 C 0.58839 0.05013 0.69568 0.0
C689 C 0.63441 0.05329 0.70496 0.0
C690 C 0.58768 0.04893 0.67563 0.0
C691 C 0.67907 0.04651 0.63359 0.0
H692 H 0.55345 0.05224 0.604 0.0
C693 C 0.67394 0.05009 0.5499 0.0
C694 C 0.62977 0.04612 0.54064 0.0
C695 C 0.67673 0.05028 0.57008 0.0
C696 C 0.58874 0.05054 0.61209 0.0
H697 H 0.71492 0.05808 0.70038 0.0
H698 H 0.71305 0.05635 0.66572 0.0
H699 H 0.55202 0.05413 0.63883 0.0
H700 H 0.55582 0.03863 0.54541 0.0
H701 H 0.56089 0.039 0.58025 0.0
H702 H 0.71598 0.04313 0.60665 0.0
C703 C 0.67808 0.05442 0.6738 0.0
C704 C 0.58787 0.05158 0.6321 0.0
C705 C 0.67899 0.0555 0.69374 0.0
C706 C 0.59005 0.04191 0.55198 0.0
C707 C 0.59274 0.04214 0.57201 0.0
C708 C 0.68008 0.04556 0.61355 0.0
C709 C 0.63278 0.05099 0.66445 0.0
C710 C 0.63306 0.04961 0.64314 0.0
C711 C 0.63535 0.04654 0.5813 0.0
C712 C 0.6349 0.04755 0.60259 0.0
H713 H 0.55355 0.04831 0.70395 0.0
H714 H 0.55216 0.04619 0.66897 0.0
H715 H 0.71437 0.04472 0.6416 0.0
H716 H 0.7052 0.05338 0.54162 0.0
H717 H 0.71014 0.05371 0.57688 0.0
C718 C 0.59795 0.18087 0.70085 0.0
C719 C 0.63718 0.18531 0.71195 0.0
C720 C 0.59946 0.1813 0.68084 0.0
C721 C 0.68265 0.18721 0.63875 0.0
H722 H 0.54711 0.19273 0.61515 0.0
C723 C 0.66719 0.19703 0.55888 0.0
C724 C 0.62828 0.19226 0.54814 0.0
C725 C 0.66666 0.19676 0.57893 0.0
C726 C 0.58514 0.19112 0.62149 0.0
H727 H 0.71039 0.19322 0.71087 0.0
H728 H 0.71298 0.19407 0.67563 0.0
H729 H 0.5527 0.19047 0.64984 0.0
H730 H 0.55637 0.18398 0.5501 0.0
H731 H 0.55543 0.18349 0.58528 0.0
H732 H 0.71505 0.18789 0.61035 0.0
C733 C 0.6812 0.19019 0.68247 0.0
C734 C 0.58841 0.18979 0.64137 0.0
C735 C 0.67991 0.18968 0.70262 0.0
C736 C 0.58681 0.18774 0.55795 0.0
C737 C 0.58636 0.18745 0.57811 0.0
C738 C 0.67939 0.18856 0.61885 0.0
C739 C 0.63995 0.18627 0.6714 0.0
C740 C 0.63714 0.18776 0.65024 0.0
C741 C 0.62725 0.19171 0.58878 0.0
C742 C 0.63057 0.19051 0.60999 0.0
H743 H 0.56483 0.17736 0.7077 0.0
H744 H 0.56796 0.17796 0.67277 0.0
H745 H 0.72065 0.18557 0.64508 0.0
H746 H 0.69929 0.20071 0.55177 0.0
H747 H 0.6979 0.20034 0.58673 0.0
C748 C 0.34084 0.93106 0.44733 0.0
C749 C 0.38421 0.93537 0.45645 0.0
C750 C 0.33845 0.93058 0.42718 0.0
C751 C 0.42656 0.93089 0.38488 0.0
H752 H 0.29833 0.93526 0.35583 0.0
C753 C 0.42275 0.93384 0.30149 0.0
C754 C 0.37773 0.93039 0.292 0.0
C755 C 0.42475 0.93397 0.32165 0.0
C756 C 0.33437 0.93387 0.36373 0.0
H757 H 0.45723 0.9431 0.45147 0.0
H758 H 0.45268 0.94232 0.41666 0.0
H759 H 0.29693 0.93674 0.39077 0.0
H760 H 0.30126 0.92375 0.29606 0.0
H761 H 0.30547 0.92367 0.33098 0.0
H762 H 0.46402 0.92797 0.3579 0.0
C763 C 0.42127 0.93909 0.42499 0.0
C764 C 0.33349 0.93475 0.38377 0.0
C765 C 0.42366 0.93957 0.44499 0.0
C766 C 0.33625 0.92657 0.30298 0.0
C767 C 0.33844 0.9266 0.32302 0.0
C768 C 0.4274 0.92997 0.36485 0.0
C769 C 0.37936 0.9344 0.41583 0.0
C770 C 0.37963 0.93331 0.39456 0.0
C771 C 0.38193 0.93056 0.33265 0.0
C772 C 0.38132 0.93145 0.35401 0.0
H773 H 0.3098 0.92777 0.45572 0.0
H774 H 0.30558 0.92693 0.42052 0.0
H775 H 0.46264 0.92959 0.39282 0.0
H776 H 0.4551 0.9369 0.29338 0.0
H777 H 0.45881 0.9371 0.32859 0.0
C778 C 0.34075 0.79898 0.4517 0.0
C779 C 0.38544 0.80087 0.46315 0.0
C780 C 0.34303 0.79977 0.43174 0.0
C781 C 0.434 0.79996 0.39054 0.0
H782 H 0.31601 0.81184 0.36428 0.0
C783 C 0.44179 0.8082 0.3097 0.0
C784 C 0.39655 0.80635 0.29856 0.0
C785 C 0.43971 0.8079 0.32973 0.0
C786 C 0.34896 0.8084 0.37135 0.0
H787 H 0.46808 0.80488 0.46234 0.0
H788 H 0.47202 0.8063 0.42721 0.0
H789 H 0.31557 0.81061 0.39928 0.0
H790 H 0.31313 0.80297 0.29985 0.0
H791 H 0.3095 0.80234 0.33507 0.0
H792 H 0.46723 0.79767 0.36264 0.0
C793 C 0.4352 0.80418 0.43387 0.0
C794 C 0.34881 0.80772 0.39143 0.0
C795 C 0.43293 0.8034 0.45399 0.0
C796 C 0.34861 0.80447 0.30801 0.0
C797 C 0.34658 0.80412 0.32818 0.0
C798 C 0.43411 0.80062 0.37046 0.0
C799 C 0.39002 0.80247 0.42256 0.0
C800 C 0.39127 0.80347 0.40125 0.0
C801 C 0.39241 0.80568 0.33925 0.0
C802 C 0.39163 0.80487 0.36061 0.0
H803 H 0.30353 0.7969 0.45812 0.0
H804 H 0.30785 0.7982 0.42346 0.0
H805 H 0.46688 0.79651 0.39763 0.0
H806 H 0.4793 0.80981 0.30295 0.0
H807 H 0.47542 0.80939 0.33777 0.0
C808 C 0.58295 0.54201 0.05014 0.0
C809 C 0.61825 0.54749 0.03912 0.0
C810 C 0.58143 0.54287 0.07013 0.0
C811 C 0.611 0.56002 0.10837 0.0
H812 H 0.58883 0.53854 0.1423 0.0
C813 C 0.63761 0.56174 0.19038 0.0
C814 C 0.60549 0.55612 0.20227 0.0
C815 C 0.63243 0.56138 0.17044 0.0
C816 C 0.59398 0.54463 0.13299 0.0
H817 H 0.68149 0.55782 0.04057 0.0
H818 H 0.67921 0.55926 0.07569 0.0
H819 H 0.59939 0.53593 0.10782 0.0
H820 H 0.54085 0.54608 0.20278 0.0
H821 H 0.53143 0.54544 0.16762 0.0
H822 H 0.6061 0.5687 0.13356 0.0
C823 C 0.65217 0.5544 0.06873 0.0
C824 C 0.60043 0.54313 0.11324 0.0
C825 C 0.65394 0.55349 0.04865 0.0
C826 C 0.56569 0.55055 0.19391 0.0
C827 C 0.56084 0.5501 0.17381 0.0
C828 C 0.60453 0.56152 0.12812 0.0
C829 C 0.61505 0.54924 0.07964 0.0
C830 C 0.60941 0.5508 0.10071 0.0
C831 C 0.5953 0.55531 0.16187 0.0
C832 C 0.5964 0.55383 0.14068 0.0
H833 H 0.55512 0.53726 0.04326 0.0
H834 H 0.55223 0.53882 0.07803 0.0
H835 H 0.61665 0.5661 0.09908 0.0
H836 H 0.66871 0.56607 0.19651 0.0
H837 H 0.65986 0.56542 0.16173 0.0
C838 C 0.57757 0.68153 0.19383 0.0
C839 C 0.62107 0.68436 0.205 0.0
C840 C 0.57766 0.68276 0.17393 0.0
C841 C 0.6637 0.68763 0.13191 0.0
H842 H 0.53141 0.69554 0.10868 0.0
C843 C 0.65224 0.69769 0.05209 0.0
C844 C 0.6123 0.69315 0.04143 0.0
C845 C 0.65122 0.69765 0.07216 0.0
C846 C 0.56852 0.69329 0.11495 0.0
H847 H 0.69959 0.69043 0.20399 0.0
H848 H 0.69963 0.69274 0.16905 0.0
H849 H 0.5363 0.69308 0.14337 0.0
H850 H 0.53787 0.68561 0.04359 0.0
H851 H 0.53592 0.68561 0.07879 0.0
H852 H 0.6959 0.68791 0.10344 0.0
C853 C 0.66559 0.68944 0.17571 0.0
C854 C 0.57138 0.69184 0.13482 0.0
C855 C 0.6657 0.68811 0.19572 0.0
C856 C 0.56921 0.68918 0.05134 0.0
C857 C 0.56816 0.68916 0.07151 0.0
C858 C 0.66092 0.68916 0.11205 0.0
C859 C 0.62103 0.68696 0.16463 0.0
C860 C 0.61885 0.68887 0.14355 0.0
C861 C 0.61015 0.69311 0.0821 0.0
C862 C 0.61321 0.69193 0.10333 0.0
H863 H 0.54279 0.67851 0.20054 0.0
H864 H 0.54333 0.68049 0.16586 0.0
H865 H 0.70069 0.68524 0.13805 0.0
H866 H 0.68566 0.70095 0.04495 0.0
H867 H 0.68347 0.70095 0.07991 0.0
C868 C 0.41421 0.43266 0.8053 0.0
C869 C 0.37169 0.43742 0.79658 0.0
C870 C 0.41599 0.43154 0.82534 0.0
C871 C 0.32817 0.43132 0.86798 0.0
H872 H 0.45863 0.43384 0.89662 0.0
C873 C 0.33841 0.43207 0.95172 0.0
C874 C 0.3829 0.42789 0.96029 0.0
C875 C 0.33467 0.43271 0.93161 0.0
C876 C 0.42192 0.43297 0.88882 0.0
H877 H 0.29903 0.44512 0.80228 0.0
H878 H 0.30261 0.44327 0.83696 0.0
H879 H 0.45893 0.43629 0.86194 0.0
H880 H 0.45621 0.42045 0.95461 0.0
H881 H 0.44895 0.42131 0.9198 0.0
H882 H 0.29116 0.42801 0.89489 0.0
C883 C 0.33389 0.44019 0.82835 0.0
C884 C 0.42216 0.4344 0.86891 0.0
C885 C 0.33208 0.4413 0.80841 0.0
C886 C 0.42172 0.42382 0.94842 0.0
C887 C 0.41781 0.42439 0.92845 0.0
C888 C 0.32794 0.42988 0.8879 0.0
C889 C 0.37532 0.43516 0.83706 0.0
C890 C 0.3753 0.43359 0.85824 0.0
C891 C 0.37521 0.42912 0.91977 0.0
C892 C 0.37486 0.43066 0.89857 0.0
H893 H 0.44533 0.42957 0.79665 0.0
H894 H 0.4484 0.4276 0.8316 0.0
H895 H 0.29147 0.43051 0.86015 0.0
H896 H 0.30814 0.43533 0.96052 0.0
H897 H 0.30134 0.43642 0.9254 0.0
C898 C 0.32106 0.30604 0.79877 0.0
C899 C 0.36557 0.30255 0.78899 0.0
C900 C 0.32113 0.30674 0.81887 0.0
C901 C 0.41318 0.30793 0.86043 0.0
H902 H 0.28694 0.30266 0.89006 0.0
C903 C 0.40638 0.30547 0.94432 0.0
C904 C 0.3608 0.30911 0.95317 0.0
C905 C 0.41019 0.30521 0.92417 0.0
C906 C 0.32241 0.30426 0.88197 0.0
H907 H 0.44414 0.29666 0.79281 0.0
H908 H 0.4437 0.2977 0.82767 0.0
H909 H 0.28543 0.30067 0.85528 0.0
H910 H 0.28567 0.31605 0.94799 0.0
H911 H 0.29279 0.31575 0.91314 0.0
H912 H 0.45018 0.31143 0.88728 0.0
C913 C 0.40932 0.30015 0.81985 0.0
C914 C 0.3215 0.30313 0.86201 0.0
C915 C 0.40938 0.2995 0.79981 0.0
C916 C 0.32099 0.31307 0.94159 0.0
C917 C 0.32485 0.31284 0.92161 0.0
C918 C 0.41413 0.30903 0.88044 0.0
C919 C 0.36557 0.30391 0.82964 0.0
C920 C 0.36677 0.305 0.85096 0.0
C921 C 0.36853 0.3086 0.91264 0.0
C922 C 0.36859 0.30728 0.89142 0.0
H923 H 0.28674 0.30847 0.79088 0.0
H924 H 0.28686 0.30974 0.82593 0.0
H925 H 0.44862 0.30956 0.85235 0.0
H926 H 0.43752 0.30232 0.95288 0.0
H927 H 0.44441 0.30191 0.91766 0.0
C928 C 0.2989 0.95919 0.24032 0.0
C929 C 0.35298 0.95815 0.24417 0.0
C930 C 0.27351 0.96775 0.24431 0.0
C931 C 0.30338 0.99301 0.24892 0.0
H932 H 0.16132 -0.00527 0.26946 0.0
C933 C 0.20425 0.02873 0.26631 0.0
C934 C 0.15114 0.02968 0.26089 0.0
C935 C 0.22914 0.01993 0.26522 0.0
C936 C 0.20086 -0.00566 0.26356 0.0
H937 H 0.42242 0.96499 0.2561 0.0
H938 H 0.37801 0.97989 0.26318 0.0
H939 H 0.20389 0.97924 0.26676 0.0
H940 H 0.08249 0.02226 0.24981 0.0
H941 H 0.12621 0.00691 0.24766 0.0
H942 H 0.30026 0.00806 0.24547 0.0
C943 C 0.35545 0.97418 0.25677 0.0
C944 C 0.22518 0.98549 0.26205 0.0
C945 C 0.38077 0.96564 0.25279 0.0
C946 C 0.1235 0.02172 0.25412 0.0
C947 C 0.14835 0.01292 0.25304 0.0
C948 C 0.27909 0.00184 0.25041 0.0
C949 C 0.30188 0.97539 0.2522 0.0
C950 C 0.27658 0.98475 0.25463 0.0
C951 C 0.2013 0.01193 0.25869 0.0
C952 C 0.22749 0.00258 0.25763 0.0
H953 H 0.27656 0.9535 0.23374 0.0
H954 H 0.23222 0.96851 0.24054 0.0
H955 H 0.34271 0.99263 0.24283 0.0
H956 H 0.22641 0.03476 0.27163 0.0
H957 H 0.26988 0.01935 0.26982 0.0
C958 C 0.84213 0.26905 0.23571 0.0
C959 C 0.8728 0.27673 0.22933 0.0
C960 C 0.86589 0.26036 0.2399 0.0
C961 C 0.99349 0.25055 0.25414 0.0
H962 H 0.93498 0.22642 0.23792 0.0
C963 C 0.11246 0.21637 0.25892 0.0
C964 C 0.08699 0.20827 0.26611 0.0
C965 C 0.08359 0.22446 0.25449 0.0
C966 C 0.95132 0.23311 0.24273 0.0
H967 H 0.95181 0.28133 0.22169 0.0
H968 H 0.99326 0.26615 0.22887 0.0
H969 H 0.88928 0.24114 0.22955 0.0
H970 H 0.0114 0.20216 0.27395 0.0
H971 H 0.96058 0.21644 0.26628 0.0
H972 H 0.05548 0.2426 0.26726 0.0
C973 C 0.95104 0.26688 0.23092 0.0
C974 C 0.92529 0.24151 0.23793 0.0
C975 C 0.92731 0.27554 0.22671 0.0
C976 C 0.03193 0.20834 0.26849 0.0
C977 C 0.00291 0.21647 0.26402 0.0
C978 C 0.01937 0.24219 0.25894 0.0
C979 C 0.92067 0.25926 0.2378 0.0
C980 C 0.94664 0.25031 0.24337 0.0
C981 C 0.02867 0.22463 0.25718 0.0
C982 C 0.99898 0.2334 0.25305 0.0
H983 H 0.79995 0.26978 0.23783 0.0
H984 H 0.84168 0.25461 0.24529 0.0
H985 H 0.01012 0.25723 0.2589 0.0
H986 H 0.15484 0.21649 0.25679 0.0
H987 H 0.10431 0.23059 0.24889 0.0
C988 C 0.19596 0.2092 0.98002 0.0
C989 C 0.142 0.20763 0.98335 0.0
C990 C 0.21586 0.21845 0.97955 0.0
C991 C 0.1867 0.24224 0.9977 0.0
H992 H 0.28844 0.25059 0.95959 0.0
C993 C 0.2683 0.28013 0.99921 0.0
C994 C 0.32339 0.28075 0.99748 0.0
C995 C 0.24222 0.27173 0.99438 0.0
C996 C 0.26016 0.24834 0.97036 0.0
H997 H 0.06639 0.21445 0.98849 0.0
H998 H 0.10106 0.23049 0.98765 0.0
H999 H 0.25215 0.23455 0.95774 0.0
H1000 H 0.39415 0.27332 0.98839 0.0
H1001 H 0.34906 0.25866 0.98046 0.0
H1002 H 0.19563 0.25584 0.01071 0.0
C1003 C 0.12809 0.22462 0.98559 0.0
C1004 C 0.23955 0.23917 0.96931 0.0
C1005 C 0.10828 0.21543 0.98602 0.0
C1006 C 0.35162 0.27303 0.98997 0.0
C1007 C 0.32569 0.26464 0.98525 0.0
C1008 C 0.20746 0.25137 0.99881 0.0
C1009 C 0.18207 0.22624 0.9825 0.0
C1010 C 0.20299 0.23602 0.98309 0.0
C1011 C 0.27087 0.26382 0.98782 0.0
C1012 C 0.24486 0.25449 0.98529 0.0
H1013 H 0.22273 0.20331 0.97788 0.0
H1014 H 0.25779 0.21951 0.97731 0.0
H1015 H 0.15904 0.23995 0.00865 0.0
H1016 H 0.24557 0.28603 0.00477 0.0
H1017 H 0.19978 0.27136 0.9962 0.0
C1018 C 0.11681 0.02029 0.00183 0.0
C1019 C 0.0881 0.02823 0.99561 0.0
C1020 C 0.0906 0.0122 0.00827 0.0
C1021 C 0.96437 3e-05 0.00217 0.0
H1022 H 0.01835 0.98355 0.04231 0.0
C1023 C 0.86114 0.96519 0.02092 0.0
C1024 C 0.89384 0.95719 0.02243 0.0
C1025 C 0.88284 0.97426 0.02061 0.0
C1026 C 0.00304 0.98808 0.03103 0.0
H1027 H 0.00975 0.03418 0.99218 0.0
H1028 H 0.96377 0.02006 0.0037 0.0
H1029 H 0.05905 -0.00094 0.03705 0.0
H1030 H 0.97466 0.95235 0.02535 0.0
H1031 H 0.01298 0.96828 0.02444 0.0
H1032 H 0.90912 0.98904 0.99587 0.0
C1033 C 0.00653 0.02002 0.00322 0.0
C1034 C 0.02621 -0.00306 0.02803 0.0
C1035 C 0.03278 0.0281 0.99667 0.0
C1036 C 0.94864 0.95841 0.02413 0.0
C1037 C 0.97046 0.96752 0.02375 0.0
C1038 C 0.94119 0.99121 0.0052 0.0
C1039 C 0.03516 0.01192 0.00872 0.0
C1040 C 0.00755 0.00295 0.01338 0.0
C1041 C 0.93773 0.97551 0.0217 0.0
C1042 C 0.96068 0.98509 0.01949 0.0
H1043 H 0.15956 0.02021 0.00122 0.0
H1044 H 0.11379 0.00604 0.01217 0.0
H1045 H 0.94971 0.00441 0.99053 0.0
H1046 H 0.81866 0.96447 0.01982 0.0
H1047 H 0.85662 0.98029 0.01934 0.0
C1048 C 0.60965 0.02359 0.76675 0.0
C1049 C 0.64143 0.03171 0.76843 0.0
C1050 C 0.63223 0.01461 0.76656 0.0
C1051 C 0.75277 0.00114 0.7779 0.0
H1052 H 0.70047 0.98433 0.73803 0.0
C1053 C 0.8656 0.96831 0.75115 0.0
C1054 C 0.83654 0.9603 0.74548 0.0
C1055 C 0.8398 0.97655 0.75693 0.0
C1056 C 0.71486 0.98885 0.74949 0.0
H1057 H 0.72159 0.03684 0.77173 0.0
H1058 H 0.76161 0.02101 0.771 0.0
H1059 H 0.66025 -0.0002 0.7423 0.0
H1060 H 0.75793 0.95441 0.74236 0.0
H1061 H 0.71259 0.96884 0.75267 0.0
H1062 H 0.80813 0.99018 0.78481 0.0
C1063 C 0.71905 0.02164 0.77008 0.0
C1064 C 0.69192 -0.00226 0.7519 0.0
C1065 C 0.69629 0.03068 0.77036 0.0
C1066 C 0.78122 0.96054 0.74644 0.0
C1067 C 0.75535 0.96878 0.7523 0.0
C1068 C 0.77576 0.99221 0.7755 0.0
C1069 C 0.68717 0.01354 0.76791 0.0
C1070 C 0.71087 0.004 0.76601 0.0
C1071 C 0.78441 0.97693 0.75723 0.0
C1072 C 0.75732 0.98602 0.76113 0.0
H1073 H 0.56712 0.02415 0.76548 0.0
H1074 H 0.60661 0.00849 0.76524 0.0
H1075 H 0.76768 0.00579 0.78906 0.0
H1076 H 0.90836 0.96831 0.75064 0.0
H1077 H 0.86328 0.98274 0.76043 0.0
C1078 C 0.11119 0.71475 0.74537 0.0
C1079 C 0.08055 0.70702 0.75152 0.0
C1080 C 0.08713 0.72318 0.73972 0.0
C1081 C 0.96508 0.73649 0.74773 0.0
H1082 H 0.02228 0.75308 0.70832 0.0
C1083 C 0.86833 0.77199 0.72983 0.0
C1084 C 0.90209 0.77989 0.72895 0.0
C1085 C 0.88883 0.76285 0.73002 0.0
C1086 C 0.00614 0.74852 0.71941 0.0
H1087 H 0.00081 0.70182 0.75561 0.0
H1088 H 0.95844 0.71655 0.74538 0.0
H1089 H 0.05868 0.73715 0.71242 0.0
H1090 H 0.98367 0.78444 0.727 0.0
H1091 H 0.0199 0.76831 0.72753 0.0
H1092 H 0.91293 0.74786 0.75484 0.0
C1093 C 0.00116 0.71615 0.74535 0.0
C1094 C 0.02685 0.73941 0.72176 0.0
C1095 C 0.02532 0.70772 0.75113 0.0
C1096 C 0.95684 0.77846 0.72773 0.0
C1097 C 0.97747 0.76926 0.72791 0.0
C1098 C 0.94425 0.74555 0.74531 0.0
C1099 C 0.03189 0.72404 0.73998 0.0
C1100 C 0.00692 0.73335 0.73611 0.0
C1101 C 0.94356 0.76139 0.72937 0.0
C1102 C 0.96488 0.75168 0.73127 0.0
H1103 H 0.15392 0.71441 0.74547 0.0
H1104 H 0.11199 0.72915 0.73592 0.0
H1105 H 0.94955 0.73209 0.75918 0.0
H1106 H 0.82587 0.77286 0.73059 0.0
H1107 H 0.86178 0.75691 0.73085 0.0
C1108 C 0.60547 0.71687 0.96977 0.0
C1109 C 0.63602 0.70862 0.97186 0.0
C1110 C 0.62944 0.72574 0.96938 0.0
C1111 C 0.75671 0.73828 0.96452 0.0
H1112 H 0.69333 0.75583 1.00075 0.0
C1113 C 0.87163 0.76862 0.99977 0.0
C1114 C 0.84521 0.77707 0.00437 0.0
C1115 C 0.84417 0.76102 0.99183 0.0
C1116 C 0.71096 0.75113 0.99024 0.0
H1117 H 0.71562 0.70311 0.97422 0.0
H1118 H 0.75779 0.71872 0.9739 0.0
H1119 H 0.64918 0.74098 0.99361 0.0
H1120 H 0.77 0.78439 0.00352 0.0
H1121 H 0.72185 0.7711 0.98935 0.0
H1122 H 0.81923 0.74839 0.96154 0.0
C1123 C 0.71529 0.71829 0.97235 0.0
C1124 C 0.6857 0.7426 0.98618 0.0
C1125 C 0.69122 0.70937 0.97268 0.0
C1126 C 0.79114 0.77791 1.00032 0.0
C1127 C 0.76365 0.7703 0.99223 0.0
C1128 C 0.78194 0.74686 0.96852 0.0
C1129 C 0.68443 0.72656 0.97116 0.0
C1130 C 0.70884 0.736 0.97361 0.0
C1131 C 0.78975 0.76173 0.98819 0.0
C1132 C 0.7599 0.75327 0.98178 0.0
H1133 H 0.56281 0.71649 0.96883 0.0
H1134 H 0.60481 0.73199 0.96813 0.0
H1135 H 0.77501 0.73336 0.95458 0.0
H1136 H 0.91339 0.7678 0.0027 0.0
H1137 H 0.8653 0.75447 0.9892 0.0
C1138 C 0.16172 0.52523 0.74301 0.0
C1139 C 0.18575 0.53309 0.75178 0.0
C1140 C 0.19151 0.51732 0.73798 0.0
C1141 C 0.31089 0.50488 0.75265 0.0
H1142 H 0.27723 0.489 0.70877 0.0
C1143 C 0.40872 0.46845 0.74048 0.0
C1144 C 0.3741 0.46104 0.7356 0.0
C1145 C 0.39134 0.47783 0.74034 0.0
C1146 C 0.28693 0.49336 0.7211 0.0
H1147 H 0.26015 0.53909 0.76124 0.0
H1148 H 0.31269 0.52519 0.75233 0.0
H1149 H 0.23884 0.50483 0.71117 0.0
H1150 H 0.29426 0.4576 0.72678 0.0
H1151 H 0.26359 0.47401 0.72676 0.0
H1152 H 0.35795 0.49334 0.76282 0.0
C1153 C 0.27058 0.52513 0.7496 0.0
C1154 C 0.2651 0.50242 0.72246 0.0
C1155 C 0.24062 0.53308 0.75464 0.0
C1156 C 0.32176 0.46317 0.73059 0.0
C1157 C 0.30439 0.47257 0.73042 0.0
C1158 C 0.33285 0.49584 0.75126 0.0
C1159 C 0.24607 0.51709 0.74157 0.0
C1160 C 0.27575 0.50817 0.73851 0.0
C1161 C 0.33903 0.47999 0.73529 0.0
C1162 C 0.32002 0.4899 0.73572 0.0
H1163 H 0.11949 0.52505 0.74053 0.0
H1164 H 0.17125 0.51121 0.73208 0.0
H1165 H 0.31933 0.50909 0.76532 0.0
H1166 H 0.44941 0.46701 0.74431 0.0
H1167 H 0.41898 0.48341 0.74401 0.0
C1168 C 0.3887 0.7682 0.50898 0.0
C1169 C 0.36371 0.77628 0.51646 0.0
C1170 C 0.35975 0.75999 0.50532 0.0
C1171 C 0.22471 0.75139 0.49688 0.0
H1172 H 0.28313 0.7271 0.51214 0.0
C1173 C 0.10195 0.71711 0.49698 0.0
C1174 C 0.12622 0.70897 0.48946 0.0
C1175 C 0.13132 0.72532 0.50013 0.0
C1176 C 0.26661 0.73383 0.50762 0.0
H1177 H 0.289 0.7822 0.52584 0.0
H1178 H 0.23834 0.7678 0.5196 0.0
H1179 H 0.33369 0.74156 0.51776 0.0
H1180 H 0.20011 0.70295 0.47947 0.0
H1181 H 0.25152 0.71735 0.48492 0.0
H1182 H 0.15754 0.74366 0.4868 0.0
C1183 C 0.2802 0.76784 0.51639 0.0
C1184 C 0.2955 0.74209 0.51083 0.0
C1185 C 0.3092 0.77606 0.52006 0.0
C1186 C 0.18045 0.70914 0.48529 0.0
C1187 C 0.20988 0.71735 0.48849 0.0
C1188 C 0.1958 0.74313 0.49369 0.0
C1189 C 0.30527 0.75972 0.50907 0.0
C1190 C 0.27479 0.75096 0.50551 0.0
C1191 C 0.18551 0.72553 0.49586 0.0
C1192 C 0.21644 0.73427 0.49907 0.0
H1193 H 0.4307 0.7682 0.50599 0.0
H1194 H 0.37994 0.75388 0.49943 0.0
H1195 H 0.20814 0.75812 0.49238 0.0
H1196 H 0.0602 0.71716 0.50038 0.0
H1197 H 0.1117 0.73148 0.50607 0.0
C1198 C 0.96475 0.46011 0.51848 0.0
C1199 C 0.90973 0.45994 0.51595 0.0
C1200 C 0.99317 0.46844 0.51499 0.0
C1201 C 0.97444 0.49424 0.51264 0.0
H1202 H 0.10417 0.49441 0.48297 0.0
C1203 C 0.06109 0.52858 0.48234 0.0
C1204 C 0.11565 0.52996 0.48443 0.0
C1205 C 0.03863 0.51979 0.48644 0.0
C1206 C 0.06829 0.49444 0.49146 0.0
H1207 H 0.84142 0.46822 0.50736 0.0
H1208 H 0.89083 0.48265 0.5012 0.0
H1209 H 0.06047 0.47932 0.49005 0.0
H1210 H 0.18978 0.52322 0.49205 0.0
H1211 H 0.15032 0.50782 0.49929 0.0
H1212 H 0.98174 0.50931 0.51394 0.0
C1213 C 0.912 0.47644 0.50617 0.0
C1214 C 0.0434 0.48582 0.49553 0.0
C1215 C 0.88376 0.46816 0.50959 0.0
C1216 C 0.14754 0.52235 0.49035 0.0
C1217 C 0.12506 0.51353 0.4944 0.0
C1218 C 0.9992 0.50282 0.50858 0.0
C1219 C 0.96684 0.47671 0.50902 0.0
C1220 C 0.99578 0.48568 0.50589 0.0
C1221 C 0.07032 0.51221 0.49268 0.0
C1222 C 0.04588 0.50302 0.4977 0.0
H1223 H 0.98569 0.45385 0.5233 0.0
H1224 H 0.03546 0.46848 0.51733 0.0
H1225 H 0.93834 0.49431 0.52101 0.0
H1226 H 0.03564 0.53432 0.47772 0.0
H1227 H 0.99639 0.51892 0.4847 0.0
C1228 C 0.70808 0.52901 0.24565 0.0
C1229 C 0.65331 0.52897 0.24862 0.0
C1230 C 0.73382 0.52079 0.23959 0.0
C1231 C 0.71197 0.49657 0.22002 0.0
H1232 H 0.83891 0.49089 0.24901 0.0
C1233 C 0.8012 0.45894 0.22827 0.0
C1234 C 0.8565 0.45828 0.22807 0.0
C1235 C 0.77674 0.46783 0.22763 0.0
C1236 C 0.80398 0.49242 0.24056 0.0
H1237 H 0.58201 0.52047 0.24684 0.0
H1238 H 0.62705 0.50606 0.23684 0.0
H1239 H 0.79633 0.50616 0.25303 0.0
H1240 H 0.92958 0.46628 0.22609 0.0
H1241 H 0.88701 0.48169 0.22483 0.0
H1242 H 0.71917 0.48262 0.20804 0.0
C1243 C 0.65013 0.51246 0.23883 0.0
C1244 C 0.77965 0.5012 0.24282 0.0
C1245 C 0.62439 0.52069 0.24473 0.0
C1246 C 0.88685 0.46658 0.22653 0.0
C1247 C 0.86252 0.47541 0.22583 0.0
C1248 C 0.73631 0.48774 0.21782 0.0
C1249 C 0.70525 0.51237 0.23657 0.0
C1250 C 0.73314 0.50334 0.23272 0.0
C1251 C 0.80733 0.47614 0.22677 0.0
C1252 C 0.78234 0.48558 0.22819 0.0
H1253 H 0.73118 0.53535 0.24829 0.0
H1254 H 0.77624 0.52099 0.23763 0.0
H1255 H 0.67644 0.49806 0.21189 0.0
H1256 H 0.77695 0.45264 0.22939 0.0
H1257 H 0.73408 0.4682 0.22851 0.0
C1258 C 0.80214 0.28043 0.50394 0.0
C1259 C 0.85715 0.28126 0.50237 0.0
C1260 C 0.7775 0.27178 0.50018 0.0
C1261 C 0.79728 0.24832 0.47746 0.0
H1262 H 0.68725 0.24071 0.51309 0.0
C1263 C 0.70853 0.21036 0.4814 0.0
C1264 C 0.65334 0.20993 0.48313 0.0
C1265 C 0.73458 0.21909 0.48256 0.0
C1266 C 0.7176 0.24278 0.50293 0.0
H1267 H 0.92958 0.27385 0.4952 0.0
H1268 H 0.88667 0.25869 0.48903 0.0
H1269 H 0.72988 0.25604 0.517 0.0
H1270 H 0.58195 0.21825 0.48694 0.0
H1271 H 0.6273 0.2334 0.48894 0.0
H1272 H 0.78515 0.23491 0.46358 0.0
C1273 C 0.86243 0.26473 0.49288 0.0
C1274 C 0.74187 0.25157 0.50512 0.0
C1275 C 0.88702 0.27339 0.49653 0.0
C1276 C 0.62459 0.21835 0.48568 0.0
C1277 C 0.65052 0.22702 0.4869 0.0
C1278 C 0.77308 0.23947 0.47532 0.0
C1279 C 0.80749 0.2638 0.49491 0.0
C1280 C 0.78173 0.25446 0.49235 0.0
C1281 C 0.70574 0.22747 0.48558 0.0
C1282 C 0.73278 0.23667 0.48798 0.0
H1283 H 0.77815 0.28642 0.50825 0.0
H1284 H 0.73495 0.27133 0.50152 0.0
H1285 H 0.8276 0.25039 0.4673 0.0
H1286 H 0.73156 0.20397 0.4794 0.0
H1287 H 0.77727 0.21926 0.48159 0.0
C1288 C 0.43759 0.28008 0.72426 0.0
C1289 C 0.38376 0.27988 0.7291 0.0
C1290 C 0.46762 0.27178 0.72499 0.0
C1291 C 0.45569 0.24566 0.7261 0.0
H1292 H 0.59032 0.24669 0.7526 0.0
C1293 C 0.5547 0.21293 0.75958 0.0
C1294 C 0.60989 0.21223 0.75862 0.0
C1295 C 0.52921 0.22106 0.75285 0.0
C1296 C 0.55326 0.24631 0.74485 0.0
H1297 H 0.31893 0.2709 0.73833 0.0
H1298 H 0.37136 0.25648 0.73983 0.0
H1299 H 0.5421 0.26131 0.74638 0.0
H1300 H 0.68171 0.21927 0.7493 0.0
H1301 H 0.63712 0.23344 0.7375 0.0
H1302 H 0.4663 0.23062 0.72502 0.0
C1303 C 0.39027 0.26298 0.73521 0.0
C1304 C 0.52567 0.25468 0.74129 0.0
C1305 C 0.36037 0.27126 0.73452 0.0
C1306 C 0.63909 0.21967 0.75039 0.0
C1307 C 0.61363 0.22778 0.74367 0.0
C1308 C 0.48329 0.23728 0.72967 0.0
C1309 C 0.44421 0.26316 0.7305 0.0
C1310 C 0.4761 0.25442 0.73226 0.0
C1311 C 0.55851 0.22861 0.74505 0.0
C1312 C 0.53181 0.23751 0.73943 0.0
H1313 H 0.45653 0.28663 0.71996 0.0
H1314 H 0.50906 0.2721 0.72118 0.0
H1315 H 0.41797 0.24527 0.7188 0.0
H1316 H 0.53126 0.20728 0.7658 0.0
H1317 H 0.48671 0.22154 0.75431 0.0
C1318 C 0.54915 0.02627 0.47998 0.0
C1319 C 0.6045 0.02678 0.48021 0.0
C1320 C 0.5237 0.0177 0.48399 0.0
C1321 C 0.54502 -0.00502 0.50862 0.0
H1322 H 0.42578 0.98644 0.47822 0.0
C1323 C 0.45756 0.95739 0.51552 0.0
C1324 C 0.40234 0.95663 0.51499 0.0
C1325 C 0.48195 0.96605 0.51153 0.0
C1326 C 0.45866 0.98879 0.48697 0.0
H1327 H 0.67676 0.01877 0.48433 0.0
H1328 H 0.63239 0.00383 0.49113 0.0
H1329 H 0.46857 0.00145 0.47038 0.0
H1330 H 0.32916 0.96429 0.51026 0.0
H1331 H 0.3717 0.97941 0.50358 0.0
H1332 H 0.53514 0.98233 0.52523 0.0
C1333 C 0.60862 0.01005 0.48817 0.0
C1334 C 0.48312 -0.00263 0.48248 0.0
C1335 C 0.63399 0.01858 0.48415 0.0
C1336 C 0.37188 0.96467 0.51068 0.0
C1337 C 0.39621 0.97331 0.50673 0.0
C1338 C 0.52054 0.98641 0.51313 0.0
C1339 C 0.55326 0.00954 0.48831 0.0
C1340 C 0.52666 0.00053 0.49321 0.0
C1341 C 0.45148 0.97408 0.50699 0.0
C1342 C 0.47721 0.98321 0.50232 0.0
H1343 H 0.52549 0.03249 0.47701 0.0
H1344 H 0.48094 0.01752 0.48413 0.0
H1345 H 0.578 -0.00268 0.51734 0.0
H1346 H 0.48195 0.95129 0.51875 0.0
H1347 H 0.52468 0.96642 0.51164 0.0
C1348 C 0.63426 0.71646 0.25341 0.0
C1349 C 0.60602 0.70858 0.26026 0.0
C1350 C 0.60941 0.72519 0.25117 0.0
C1351 C 0.49636 0.73899 0.26831 0.0
H1352 H 0.52705 0.75469 0.22382 0.0
C1353 C 0.38213 0.77321 0.25117 0.0
C1354 C 0.41094 0.78099 0.24419 0.0
C1355 C 0.40642 0.76443 0.2536 0.0
C1356 C 0.51866 0.75043 0.23644 0.0
H1357 H 0.52947 0.70357 0.26983 0.0
H1358 H 0.48556 0.71891 0.26573 0.0
H1359 H 0.56647 0.73897 0.22637 0.0
H1360 H 0.48796 0.78582 0.23473 0.0
H1361 H 0.53083 0.77042 0.23916 0.0
H1362 H 0.44853 0.75046 0.27836 0.0
C1363 C 0.52718 0.71832 0.26233 0.0
C1364 C 0.54105 0.74143 0.23787 0.0
C1365 C 0.55215 0.70955 0.26458 0.0
C1366 C 0.46483 0.77991 0.24005 0.0
C1367 C 0.48921 0.7711 0.24248 0.0
C1368 C 0.47395 0.748 0.26687 0.0
C1369 C 0.55572 0.72624 0.25569 0.0
C1370 C 0.53024 0.73563 0.25384 0.0
C1371 C 0.46007 0.76326 0.24913 0.0
C1372 C 0.48493 0.75381 0.25093 0.0
H1373 H 0.6759 0.71594 0.24999 0.0
H1374 H 0.63262 0.73118 0.24628 0.0
H1375 H 0.48801 0.73474 0.28093 0.0
H1376 H 0.34047 0.77383 0.25448 0.0
H1377 H 0.3828 0.7585 0.25852 0.0
C1378 C 0.39161 0.46232 0.99913 0.0
C1379 C 0.42005 0.45485 0.00754 0.0
C1380 C 0.41685 0.47074 0.99426 0.0
C1381 C 0.54497 0.4818 0.9846 0.0
H1382 H 0.47318 0.50461 0.00163 0.0
C1383 C 0.64202 0.51882 0.9837 0.0
C1384 C 0.61021 0.52653 0.97826 0.0
C1385 C 0.61998 0.50985 0.98621 0.0
C1386 C 0.49335 0.49832 0.99653 0.0
H1387 H 0.49754 0.45012 0.01665 0.0
H1388 H 0.54202 0.46499 0.00814 0.0
H1389 H 0.43353 0.4892 0.00777 0.0
H1390 H 0.53079 0.53091 0.97077 0.0
H1391 H 0.49222 0.51517 0.97491 0.0
H1392 H 0.60486 0.49098 0.97334 0.0
C1393 C 0.50013 0.46427 0.00534 0.0
C1394 C 0.47073 0.4895 1.00009 0.0
C1395 C 0.47473 0.4558 0.01027 0.0
C1396 C 0.55612 0.52509 0.97507 0.0
C1397 C 0.53407 0.5161 0.97752 0.0
C1398 C 0.56761 0.49066 0.98097 0.0
C1399 C 0.47106 0.47188 0.99768 0.0
C1400 C 0.49615 0.48116 0.99408 0.0
C1401 C 0.56571 0.50842 0.98328 0.0
C1402 C 0.54186 0.499 0.98685 0.0
H1403 H 0.34949 0.46176 0.99665 0.0
H1404 H 0.39373 0.47643 0.98802 0.0
H1405 H 0.56514 0.47547 0.97971 0.0
H1406 H 0.68391 0.51974 0.98629 0.0
H1407 H 0.64522 0.5041 0.99088 0.0
C1408 C 0.06629 0.15209 0.29189 0.0
C1409 C 0.10912 0.15843 0.29193 0.0
C1410 C 0.07393 0.14255 0.29658 0.0
C1411 C 0.17772 0.12477 0.29385 0.0
H1412 H 0.07551 0.10875 0.31972 0.0
C1413 C 0.19789 0.08428 0.29171 0.0
C1414 C 0.15117 0.0795 0.28666 0.0
C1415 C 0.19624 0.09374 0.29765 0.0
C1416 C 0.10444 0.11313 0.31246 0.0
H1417 H 0.19278 0.15986 0.29839 0.0
H1418 H 0.20578 0.14327 0.30655 0.0
H1419 H 0.06501 0.12597 0.32061 0.0
H1420 H 0.06574 0.08081 0.28492 0.0
H1421 H 0.06316 0.09727 0.29469 0.0
H1422 H 0.21576 0.11202 0.28485 0.0
C1423 C 0.16658 0.14563 0.30255 0.0
C1424 C 0.09841 0.12298 0.31299 0.0
C1425 C 0.15902 0.15515 0.29786 0.0
C1426 C 0.10264 0.08427 0.28854 0.0
C1427 C 0.10104 0.09371 0.29438 0.0
C1428 C 0.18358 0.11495 0.29322 0.0
C1429 C 0.12448 0.13919 0.30142 0.0
C1430 C 0.13431 0.12888 0.30329 0.0
C1431 C 0.14787 0.09863 0.29861 0.0
C1432 C 0.14623 0.109 0.30207 0.0
H1433 H 0.02734 0.1544 0.28747 0.0
H1434 H 0.04079 0.13773 0.29543 0.0
H1435 H 0.20569 0.12912 0.28602 0.0
H1436 H 0.23588 0.08079 0.29064 0.0
H1437 H 0.23296 0.0973 0.30109 0.0
C1438 C 0.11846 0.15079 0.99003 0.0
C1439 C 0.16288 0.15599 0.98406 0.0
C1440 C 0.1153 0.14111 0.98675 0.0
C1441 C 0.16202 0.12222 0.95535 0.0
H1442 H 0.09851 0.10644 0.99483 0.0
C1443 C 0.13985 0.08101 0.95502 0.0
C1444 C 0.09242 0.07744 0.96278 0.0
C1445 C 0.14898 0.09077 0.95425 0.0
C1446 C 0.11575 0.11079 0.9836 0.0
H1447 H 0.23951 0.15507 0.97029 0.0
H1448 H 0.23403 0.13786 0.96456 0.0
H1449 H 0.12045 0.12283 0.00207 0.0
H1450 H 0.01514 0.08132 0.97372 0.0
H1451 H 0.03123 0.09835 0.97237 0.0
H1452 H 0.15769 0.10998 0.937 0.0
C1453 C 0.20159 0.14142 0.97169 0.0
C1454 C 0.12862 0.12015 0.98777 0.0
C1455 C 0.20493 0.15121 0.97511 0.0
C1456 C 0.0522 0.08383 0.96782 0.0
C1457 C 0.06152 0.09357 0.96717 0.0
C1458 C 0.14956 0.11276 0.95122 0.0
C1459 C 0.15652 0.13631 0.97745 0.0
C1460 C 0.15062 0.12604 0.97358 0.0
C1461 C 0.11093 0.09708 0.96131 0.0
C1462 C 0.12511 0.10706 0.96521 0.0
H1463 H 0.08541 0.15422 0.99707 0.0
H1464 H 0.07971 0.13742 0.9911 0.0
H1465 H 0.17869 0.12663 0.94412 0.0
H1466 H 0.17138 0.07626 0.95076 0.0
H1467 H 0.18728 0.09331 0.94959 0.0
C1468 C 0.80443 0.90374 0.72477 0.0
C1469 C 0.84296 0.91018 0.71843 0.0
C1470 C 0.81459 0.89401 0.72441 0.0
C1471 C 0.90154 0.87509 0.70625 0.0
H1472 H 0.87787 0.86429 0.75687 0.0
C1473 C 0.96179 0.8365 0.72648 0.0
C1474 C 0.92101 0.83143 0.73554 0.0
C1475 C 0.95762 0.84636 0.72414 0.0
C1476 C 0.88453 0.86718 0.74263 0.0
H1477 H 0.91978 0.91146 0.70474 0.0
H1478 H 0.93713 0.89447 0.70402 0.0
H1479 H 0.85428 0.88073 0.75078 0.0
H1480 H 0.84534 0.8327 0.75005 0.0
H1481 H 0.83819 0.84965 0.74595 0.0
H1482 H 0.93087 0.86141 0.69806 0.0
C1483 C 0.89948 0.89694 0.70947 0.0
C1484 C 0.8707 0.87657 0.73912 0.0
C1485 C 0.88955 0.90667 0.70997 0.0
C1486 C 0.87732 0.83639 0.74287 0.0
C1487 C 0.87337 0.84614 0.74066 0.0
C1488 C 0.91503 0.86562 0.70973 0.0
C1489 C 0.86315 0.89057 0.71753 0.0
C1490 C 0.87818 0.88058 0.72083 0.0
C1491 C 0.91302 0.85124 0.73108 0.0
C1492 C 0.90571 0.86154 0.72788 0.0
H1493 H 0.76808 0.9062 0.73129 0.0
H1494 H 0.78553 0.8892 0.73039 0.0
H1495 H 0.90805 0.87806 0.69207 0.0
H1496 H 0.99578 0.83284 0.72065 0.0
H1497 H 0.98891 0.85014 0.71679 0.0
C1498 C 0.95663 0.90106 0.03163 0.0
C1499 C 0.90997 0.90583 0.02649 0.0
C1500 C 0.95533 0.89138 0.03618 0.0
C1501 C 0.86199 0.87222 0.0501 0.0
H1502 H 0.96475 0.85545 0.02672 0.0
C1503 C 0.82231 0.83298 0.03311 0.0
C1504 C 0.86406 0.82649 0.03498 0.0
C1505 C 0.83065 0.84262 0.03661 0.0
C1506 C 0.9363 0.86005 0.03366 0.0
H1507 H 0.82545 0.9041 0.02194 0.0
H1508 H 0.82367 0.8874 0.02943 0.0
H1509 H 0.97623 0.87256 0.02405 0.0
H1510 H 0.9464 0.82496 0.04338 0.0
H1511 H 0.96062 0.84176 0.04937 0.0
H1512 H 0.82085 0.85969 0.05896 0.0
C1513 C 0.86103 0.89112 0.03043 0.0
C1514 C 0.94294 0.86985 0.03215 0.0
C1515 C 0.86227 0.90071 0.02592 0.0
C1516 C 0.91343 0.82977 0.04153 0.0
C1517 C 0.92176 0.8394 0.04493 0.0
C1518 C 0.8552 0.86243 0.05151 0.0
C1519 C 0.90736 0.88634 0.03572 0.0
C1520 C 0.90502 0.87603 0.03987 0.0
C1521 C 0.88088 0.84595 0.04201 0.0
C1522 C 0.89157 0.85625 0.04288 0.0
H1523 H 0.99396 0.90479 0.03227 0.0
H1524 H 0.99169 0.88786 0.04023 0.0
H1525 H 0.83268 0.87682 0.05656 0.0
H1526 H 0.78381 0.83069 0.02815 0.0
H1527 H 0.79846 0.84753 0.03411 0.0
C1528 C 0.09639 0.58333 0.7961 0.0
C1529 C 0.14755 0.58106 0.78962 0.0
C1530 C 0.08438 0.59248 0.80226 0.0
C1531 C 0.1397 0.61567 0.81635 0.0
H1532 H 0.02311 0.62577 0.78653 0.0
C1533 C 0.12623 0.6546 0.79482 0.0
C1534 C 0.07717 0.65875 0.7904 0.0
C1535 C 0.1293 0.6452 0.80083 0.0
C1536 C 0.05481 0.62308 0.79545 0.0
H1537 H 0.22715 0.58646 0.78599 0.0
H1538 H 0.20595 0.60252 0.79672 0.0
H1539 H 0.0402 0.60886 0.78632 0.0
H1540 H 0.99246 0.65647 0.79051 0.0
H1541 H 0.99772 0.64006 0.80152 0.0
H1542 H 0.15493 0.62993 0.82521 0.0
C1543 C 0.17527 0.59717 0.79701 0.0
C1544 C 0.06476 0.61336 0.79524 0.0
C1545 C 0.18733 0.58799 0.79076 0.0
C1546 C 0.03091 0.65346 0.79352 0.0
C1547 C 0.03399 0.64403 0.79974 0.0
C1548 C 0.12931 0.6254 0.81678 0.0
C1549 C 0.12325 0.59956 0.80219 0.0
C1550 C 0.10831 0.6096 0.80517 0.0
C1551 C 0.08338 0.63969 0.80282 0.0
C1552 C 0.08792 0.62927 0.80574 0.0
H1553 H 0.06488 0.57813 0.79577 0.0
H1554 H 0.04416 0.59411 0.80643 0.0
H1555 H 0.17309 0.61292 0.82434 0.0
H1556 H 0.1628 0.65847 0.7928 0.0
H1557 H 0.1681 0.64213 0.80281 0.0
C1558 C 0.05605 0.65572 0.45851 0.0
C1559 C 0.10672 0.65932 0.46253 0.0
C1560 C 0.04911 0.64619 0.45383 0.0
C1561 C 0.11825 0.6242 0.43964 0.0
H1562 H 0.01375 0.61203 0.47218 0.0
C1563 C 0.13264 0.58539 0.46226 0.0
C1564 C 0.08656 0.58005 0.46552 0.0
C1565 C 0.1295 0.59491 0.45715 0.0
C1566 C 0.0422 0.6153 0.46261 0.0
H1567 H 0.19014 0.65586 0.46355 0.0
H1568 H 0.17788 0.63916 0.45553 0.0
H1569 H 0.01928 0.62922 0.47135 0.0
H1570 H 0.00092 0.58045 0.46507 0.0
H1571 H 0.99546 0.59717 0.45599 0.0
H1572 H 0.14213 0.61023 0.43134 0.0
C1573 C 0.14361 0.64375 0.45592 0.0
C1574 C 0.04547 0.62517 0.46217 0.0
C1575 C 0.15062 0.65331 0.46062 0.0
C1576 C 0.03714 0.58438 0.46282 0.0
C1577 C 0.03402 0.59396 0.45767 0.0
C1578 C 0.11477 0.61431 0.43999 0.0
C1579 C 0.09262 0.64006 0.45302 0.0
C1580 C 0.08451 0.6297 0.45112 0.0
C1581 C 0.08024 0.59936 0.45508 0.0
C1582 C 0.07782 0.60976 0.45197 0.0
H1583 H 0.02137 0.66018 0.45953 0.0
H1584 H 0.00947 0.64357 0.45136 0.0
H1585 H 0.14816 0.62752 0.43077 0.0
H1586 H 0.17146 0.58228 0.46402 0.0
H1587 H 0.16589 0.59888 0.45558 0.0
C1588 C 0.94335 0.33266 0.22402 0.0
C1589 C 0.8985 0.32751 0.21839 0.0
C1590 C 0.94217 0.34257 0.22407 0.0
C1591 C 0.86629 0.36354 0.20766 0.0
H1592 H 0.91111 0.37421 0.25643 0.0
C1593 C 0.81354 0.40175 0.23078 0.0
C1594 C 0.85607 0.40704 0.23803 0.0
C1595 C 0.81874 0.39196 0.22806 0.0
C1596 C 0.8988 0.37135 0.24268 0.0
H1597 H 0.81915 0.32861 0.20675 0.0
H1598 H 0.81715 0.34582 0.20691 0.0
H1599 H 0.92578 0.35745 0.24997 0.0
H1600 H 0.93635 0.4062 0.24898 0.0
H1601 H 0.94516 0.38927 0.24423 0.0
H1602 H 0.83885 0.37746 0.2005 0.0
C1603 C 0.85307 0.34227 0.21135 0.0
C1604 C 0.90757 0.36178 0.23892 0.0
C1605 C 0.85412 0.3324 0.2114 0.0
C1606 C 0.90292 0.40234 0.24322 0.0
C1607 C 0.90794 0.39261 0.24062 0.0
C1608 C 0.85752 0.37313 0.21143 0.0
C1609 C 0.89634 0.34744 0.21833 0.0
C1610 C 0.89125 0.35777 0.22141 0.0
C1611 C 0.86628 0.38734 0.23276 0.0
C1612 C 0.87359 0.37711 0.229 0.0
H1613 H 0.97812 0.32906 0.22942 0.0
H1614 H 0.97637 0.34641 0.22926 0.0
H1615 H 0.85356 0.36063 0.19401 0.0
H1616 H 0.77705 0.40519 0.22665 0.0
H1617 H 0.7858 0.38801 0.22216 0.0
C1618 C 0.8019 0.33516 0.53825 0.0
C1619 C 0.84939 0.33038 0.53434 0.0
C1620 C 0.80254 0.34466 0.54399 0.0
C1621 C 0.89184 0.36431 0.55974 0.0
H1622 H 0.79449 0.37986 0.53046 0.0
C1623 C 0.93121 0.40328 0.53876 0.0
C1624 C 0.88807 0.40954 0.53813 0.0
C1625 C 0.9235 0.39371 0.54323 0.0
C1626 C 0.82135 0.37563 0.53905 0.0
H1627 H 0.93495 0.33167 0.5347 0.0
H1628 H 0.93589 0.34818 0.54411 0.0
H1629 H 0.78493 0.36274 0.53 0.0
H1630 H 0.80349 0.41076 0.54303 0.0
H1631 H 0.7904 0.39413 0.55077 0.0
H1632 H 0.92975 0.37729 0.56796 0.0
C1633 C 0.89811 0.34462 0.54301 0.0
C1634 C 0.81575 0.3658 0.53885 0.0
C1635 C 0.8975 0.33514 0.53737 0.0
C1636 C 0.83758 0.40612 0.54304 0.0
C1637 C 0.82995 0.39658 0.54749 0.0
C1638 C 0.89765 0.37417 0.55983 0.0
C1639 C 0.85065 0.34957 0.54589 0.0
C1640 C 0.8517 0.36 0.54879 0.0
C1641 C 0.87256 0.39023 0.54717 0.0
C1642 C 0.86315 0.37991 0.54913 0.0
H1643 H 0.76417 0.33167 0.53628 0.0
H1644 H 0.76529 0.34823 0.54643 0.0
H1645 H 0.91965 0.36005 0.56783 0.0
H1646 H 0.97059 0.40569 0.53513 0.0
H1647 H 0.95706 0.38895 0.54272 0.0
C1648 C 0.6903 0.08862 0.78021 0.0
C1649 C 0.6447 0.08307 0.77766 0.0
C1650 C 0.68589 0.09829 0.78457 0.0
C1651 C 0.59316 0.11794 0.77826 0.0
H1652 H 0.67843 0.13113 0.81606 0.0
C1653 C 0.56133 0.15742 0.79098 0.0
C1654 C 0.60763 0.1629 0.79058 0.0
C1655 C 0.56422 0.1476 0.79346 0.0
C1656 C 0.65445 0.12754 0.80542 0.0
H1657 H 0.55879 0.08324 0.77873 0.0
H1658 H 0.55153 0.09993 0.78623 0.0
H1659 H 0.68919 0.114 0.81171 0.0
H1660 H 0.69286 0.16248 0.79431 0.0
H1661 H 0.69778 0.14541 0.79818 0.0
H1662 H 0.55936 0.13137 0.77149 0.0
C1663 C 0.59056 0.0969 0.78452 0.0
C1664 C 0.66076 0.11776 0.80291 0.0
C1665 C 0.59488 0.08731 0.78021 0.0
C1666 C 0.65637 0.15846 0.79427 0.0
C1667 C 0.65925 0.14865 0.79666 0.0
C1668 C 0.58702 0.12767 0.7807 0.0
C1669 C 0.63586 0.10253 0.78641 0.0
C1670 C 0.6301 0.11288 0.78929 0.0
C1671 C 0.61342 0.14308 0.79552 0.0
C1672 C 0.61758 0.1326 0.79428 0.0
H1673 H 0.72922 0.08556 0.77846 0.0
H1674 H 0.72148 0.10251 0.7859 0.0
H1675 H 0.56966 0.11439 0.7674 0.0
H1676 H 0.52309 0.16061 0.78843 0.0
H1677 H 0.52804 0.14351 0.79299 0.0
C1678 C 0.69182 0.15283 0.48269 0.0
C1679 C 0.64795 0.15838 0.4878 0.0
C1680 C 0.68677 0.14298 0.48099 0.0
C1681 C 0.60324 0.12299 0.49631 0.0
H1682 H 0.65883 0.11034 0.45112 0.0
C1683 C 0.55712 0.08381 0.4808 0.0
C1684 C 0.60104 0.07824 0.47587 0.0
C1685 C 0.56104 0.0937 0.48085 0.0
C1686 C 0.64338 0.11377 0.46387 0.0
H1687 H 0.56476 0.15792 0.49559 0.0
H1688 H 0.55632 0.14089 0.49263 0.0
H1689 H 0.67283 0.12736 0.45521 0.0
H1690 H 0.68251 0.07868 0.46603 0.0
H1691 H 0.68926 0.09582 0.4663 0.0
H1692 H 0.57417 0.10944 0.5051 0.0
C1693 C 0.59453 0.1441 0.48998 0.0
C1694 C 0.65162 0.12349 0.46624 0.0
C1695 C 0.5994 0.15388 0.49153 0.0
C1696 C 0.648 0.08276 0.47008 0.0
C1697 C 0.65182 0.0926 0.47008 0.0
C1698 C 0.59512 0.11329 0.49397 0.0
C1699 C 0.63797 0.13855 0.48459 0.0
C1700 C 0.63152 0.12819 0.48246 0.0
C1701 C 0.6088 0.09818 0.47586 0.0
C1702 C 0.61508 0.10857 0.47773 0.0
H1703 H 0.72968 0.1561 0.47972 0.0
H1704 H 0.72099 0.13883 0.47695 0.0
H1705 H 0.58782 0.12643 0.50906 0.0
H1706 H 0.52039 0.08055 0.48528 0.0
H1707 H 0.52698 0.09785 0.48511 0.0
C1708 C 0.40859 0.90495 0.2069 0.0
C1709 C 0.35912 0.90936 0.20911 0.0
C1710 C 0.41198 0.89539 0.20201 0.0
C1711 C 0.33289 0.87386 0.20759 0.0
H1712 H 0.45374 0.86207 0.183 0.0
C1713 C 0.35822 0.83381 0.20959 0.0
C1714 C 0.40731 0.8307 0.21667 0.0
C1715 C 0.35163 0.84309 0.20327 0.0
C1716 C 0.41976 0.86528 0.18986 0.0
H1717 H 0.27457 0.9074 0.20602 0.0
H1718 H 0.28055 0.89073 0.19698 0.0
H1719 H 0.44091 0.87921 0.18031 0.0
H1720 H 0.4889 0.83471 0.22143 0.0
H1721 H 0.47707 0.85112 0.21061 0.0
H1722 H 0.31227 0.86003 0.21748 0.0
C1723 C 0.3167 0.89461 0.19967 0.0
C1724 C 0.41235 0.87508 0.18835 0.0
C1725 C 0.31325 0.90418 0.20477 0.0
C1726 C 0.45059 0.83693 0.21616 0.0
C1727 C 0.44386 0.84629 0.20987 0.0
C1728 C 0.34002 0.8641 0.20895 0.0
C1729 C 0.36602 0.89001 0.19899 0.0
C1730 C 0.36952 0.87952 0.19763 0.0
C1731 C 0.39386 0.84952 0.20393 0.0
C1732 C 0.3841 0.85973 0.20047 0.0
H1733 H 0.44491 0.90873 0.2099 0.0
H1734 H 0.45063 0.89211 0.20178 0.0
H1735 H 0.3001 0.87701 0.21528 0.0
H1736 H 0.32429 0.82912 0.20937 0.0
H1737 H 0.31294 0.84533 0.19841 0.0
C1738 C 0.46156 0.90112 0.5334 0.0
C1739 C 0.41386 0.90583 0.52945 0.0
C1740 C 0.46143 0.89153 0.53859 0.0
C1741 C 0.37277 0.8722 0.55555 0.0
H1742 H 0.47244 0.85583 0.52939 0.0
C1743 C 0.3369 0.83254 0.54081 0.0
C1744 C 0.3805 0.82638 0.54107 0.0
C1745 C 0.34387 0.84224 0.54398 0.0
C1746 C 0.44495 0.86031 0.53712 0.0
H1747 H 0.32852 0.90414 0.52814 0.0
H1748 H 0.3286 0.88753 0.53668 0.0
H1749 H 0.48067 0.87293 0.52616 0.0
H1750 H 0.46495 0.82548 0.54645 0.0
H1751 H 0.47678 0.84237 0.55201 0.0
H1752 H 0.33577 0.85951 0.56583 0.0
C1753 C 0.36604 0.89124 0.53617 0.0
C1754 C 0.44972 0.87012 0.53528 0.0
C1755 C 0.36613 0.90078 0.53105 0.0
C1756 C 0.43056 0.83004 0.54581 0.0
C1757 C 0.43748 0.83972 0.54897 0.0
C1758 C 0.36784 0.86238 0.55731 0.0
C1759 C 0.41362 0.88648 0.53993 0.0
C1760 C 0.41291 0.87617 0.54409 0.0
C1761 C 0.39452 0.84595 0.54751 0.0
C1762 C 0.40321 0.85634 0.54777 0.0
H1763 H 0.49897 0.90481 0.53242 0.0
H1764 H 0.49873 0.88807 0.54153 0.0
H1765 H 0.34438 0.87669 0.56282 0.0
H1766 H 0.29783 0.82995 0.53724 0.0
H1767 H 0.31005 0.8469 0.54265 0.0
C1768 C 0.56922 0.65187 0.28338 0.0
C1769 C 0.61344 0.65789 0.28258 0.0
C1770 C 0.57556 0.6422 0.2874 0.0
C1771 C 0.6745 0.62376 0.28114 0.0
H1772 H 0.58185 0.60826 0.31251 0.0
C1773 C 0.70118 0.58349 0.28297 0.0
C1774 C 0.65444 0.57822 0.28088 0.0
C1775 C 0.69906 0.59311 0.28774 0.0
C1776 C 0.60795 0.61249 0.30363 0.0
H1777 H 0.69845 0.65859 0.28677 0.0
H1778 H 0.70914 0.64185 0.29374 0.0
H1779 H 0.5706 0.62549 0.31214 0.0
H1780 H 0.5689 0.57882 0.28341 0.0
H1781 H 0.56528 0.59554 0.29104 0.0
H1782 H 0.71038 0.61088 0.27185 0.0
C1783 C 0.66981 0.64454 0.29094 0.0
C1784 C 0.60148 0.62234 0.30346 0.0
C1785 C 0.66355 0.65415 0.28695 0.0
C1786 C 0.6058 0.58266 0.28473 0.0
C1787 C 0.60367 0.59227 0.28932 0.0
C1788 C 0.68066 0.61394 0.28117 0.0
C1789 C 0.62618 0.63842 0.29067 0.0
C1790 C 0.63442 0.62805 0.29205 0.0
C1791 C 0.65016 0.59768 0.29035 0.0
C1792 C 0.64708 0.60817 0.29221 0.0
H1793 H 0.5301 0.65453 0.28016 0.0
H1794 H 0.54125 0.63762 0.28704 0.0
H1795 H 0.69995 0.62797 0.27196 0.0
H1796 H 0.73934 0.58027 0.28036 0.0
H1797 H 0.73573 0.59703 0.28885 0.0
C1798 C 0.67966 0.65211 0.97877 0.0
C1799 C 0.63845 0.65759 0.98644 0.0
C1800 C 0.67418 0.64226 0.97728 0.0
C1801 C 0.5971 0.62195 0.99556 0.0
H1802 H 0.63039 0.61054 0.94627 0.0
C1803 C 0.54386 0.58316 0.97935 0.0
C1804 C 0.58602 0.57781 0.97202 0.0
C1805 C 0.54686 0.59307 0.97958 0.0
C1806 C 0.62111 0.61362 0.96013 0.0
H1807 H 0.56064 0.65704 0.99958 0.0
H1808 H 0.55138 0.63998 0.99704 0.0
H1809 H 0.64775 0.62738 0.95142 0.0
H1810 H 0.66232 0.57856 0.95783 0.0
H1811 H 0.66747 0.59573 0.95828 0.0
H1812 H 0.57082 0.6082 0.00436 0.0
C1813 C 0.58772 0.64323 0.9921 0.0
C1814 C 0.6314 0.62323 0.96312 0.0
C1815 C 0.59294 0.65302 0.99342 0.0
C1816 C 0.62941 0.58251 0.96376 0.0
C1817 C 0.63224 0.59236 0.96388 0.0
C1818 C 0.58689 0.61234 0.9926 0.0
C1819 C 0.62776 0.63776 0.98368 0.0
C1820 C 0.61952 0.62748 0.98086 0.0
C1821 C 0.59179 0.59773 0.97232 0.0
C1822 C 0.59888 0.60808 0.97487 0.0
H1823 H 0.71511 0.65545 0.97328 0.0
H1824 H 0.7059 0.63817 0.97091 0.0
H1825 H 0.58796 0.62503 0.00944 0.0
H1826 H 0.50998 0.57971 0.9858 0.0
H1827 H 0.51476 0.59706 0.98593 0.0
C1828 C 0.28448 0.40603 0.72051 0.0
C1829 C 0.33406 0.41049 0.7214 0.0
C1830 C 0.28079 0.39638 0.71589 0.0
C1831 C 0.35817 0.37619 0.69583 0.0
H1832 H 0.27227 0.361 0.73021 0.0
C1833 C 0.39948 0.33688 0.7127 0.0
C1834 C 0.35611 0.33078 0.71512 0.0
C1835 C 0.39156 0.34657 0.70958 0.0
C1836 C 0.29577 0.36514 0.72026 0.0
H1837 H 0.41842 0.40839 0.71729 0.0
H1838 H 0.41195 0.39173 0.70967 0.0
H1839 H 0.26602 0.37821 0.73143 0.0
H1840 H 0.27027 0.33003 0.71512 0.0
H1841 H 0.25686 0.34688 0.70975 0.0
H1842 H 0.38959 0.36308 0.68529 0.0
C1843 C 0.37581 0.39563 0.71228 0.0
C1844 C 0.29205 0.37501 0.72091 0.0
C1845 C 0.37951 0.4052 0.7169 0.0
C1846 C 0.30472 0.33452 0.71356 0.0
C1847 C 0.29688 0.34419 0.71051 0.0
C1848 C 0.36212 0.36632 0.69527 0.0
C1849 C 0.32657 0.39106 0.71197 0.0
C1850 C 0.32423 0.38065 0.70906 0.0
C1851 C 0.34016 0.35034 0.70886 0.0
C1852 C 0.33185 0.36072 0.70779 0.0
H1853 H 0.24872 0.40991 0.72381 0.0
H1854 H 0.24221 0.39306 0.71561 0.0
H1855 H 0.38278 0.38035 0.68626 0.0
H1856 H 0.43952 0.33424 0.71377 0.0
H1857 H 0.4257 0.35117 0.70852 0.0
C1858 C 0.45266 0.4006 0.04768 0.0
C1859 C 0.40781 0.40596 0.04288 0.0
C1860 C 0.44736 0.39118 0.05372 0.0
C1861 C 0.34676 0.37268 0.06705 0.0
H1862 H 0.44449 0.356 0.04073 0.0
C1863 C 0.29747 0.33516 0.03912 0.0
C1864 C 0.33789 0.32833 0.03929 0.0
C1865 C 0.30707 0.34431 0.04607 0.0
C1866 C 0.41738 0.36053 0.04852 0.0
H1867 H 0.32196 0.40578 0.04187 0.0
H1868 H 0.31305 0.38943 0.0515 0.0
H1869 H 0.4616 0.37288 0.0413 0.0
H1870 H 0.41818 0.32546 0.04871 0.0
H1871 H 0.43461 0.34138 0.0607 0.0
H1872 H 0.30077 0.36024 0.07303 0.0
C1873 C 0.35233 0.39246 0.05107 0.0
C1874 C 0.42733 0.37025 0.04893 0.0
C1875 C 0.35756 0.40187 0.04528 0.0
C1876 C 0.3865 0.33061 0.04797 0.0
C1877 C 0.396 0.33972 0.05488 0.0
C1878 C 0.33644 0.36294 0.0664 0.0
C1879 C 0.39716 0.3869 0.05487 0.0
C1880 C 0.39138 0.37649 0.05769 0.0
C1881 C 0.35713 0.34676 0.05332 0.0
C1882 C 0.37105 0.35682 0.05671 0.0
H1883 H 0.4919 0.40358 0.04627 0.0
H1884 H 0.48273 0.38717 0.05693 0.0
H1885 H 0.31879 0.37726 0.0743 0.0
H1886 H 0.25957 0.3336 0.03262 0.0
H1887 H 0.27644 0.34962 0.04462 0.0
C1888 C 0.94176 0.06329 0.30143 0.0
C1889 C 0.96877 0.05477 0.29801 0.0
C1890 C 0.91005 0.06424 0.31791 0.0
C1891 C 0.8501 0.05025 0.35814 0.0
H1892 H 0.87696 0.07276 0.38869 0.0
C1893 C 0.81251 0.05004 0.43877 0.0
C1894 C 0.77528 0.05678 0.44464 0.0
C1895 C 0.83774 0.05099 0.42099 0.0
C1896 C 0.86912 0.06646 0.38025 0.0
H1897 H 0.98167 0.04044 0.30809 0.0
H1898 H 0.92677 0.042 0.3364 0.0
H1899 H 0.90901 0.07197 0.35543 0.0
H1900 H 0.73704 0.07002 0.43739 0.0
H1901 H 0.78272 0.07189 0.40652 0.0
H1902 H 0.81223 0.04459 0.38315 0.0
C1903 C 0.92913 0.04796 0.32662 0.0
C1904 C 0.88683 0.06604 0.36115 0.0
C1905 C 0.96079 0.04706 0.31038 0.0
C1906 C 0.76668 0.06486 0.43328 0.0
C1907 C 0.79246 0.06589 0.4156 0.0
C1908 C 0.83327 0.05062 0.37722 0.0
C1909 C 0.90475 0.05665 0.33099 0.0
C1910 C 0.87855 0.05783 0.35002 0.0
C1911 C 0.82618 0.05872 0.40891 0.0
C1912 C 0.84357 0.05863 0.38858 0.0
H1913 H 0.94812 0.06938 0.29221 0.0
H1914 H 0.89136 0.071 0.32079 0.0
H1915 H 0.8419 0.04391 0.34987 0.0
H1916 H 0.81866 0.04364 0.44713 0.0
H1917 H 0.86391 0.0454 0.41615 0.0
C1918 C 0.30816 0.1782 0.31188 0.0
C1919 C 0.27322 0.18586 0.31009 0.0
C1920 C 0.33853 0.17717 0.32865 0.0
C1921 C 0.38056 0.1901 0.37295 0.0
H1922 H 0.37804 0.16522 0.39673 0.0
C1923 C 0.43288 0.1859 0.45209 0.0
C1924 C 0.47643 0.17993 0.45473 0.0
C1925 C 0.40406 0.18549 0.43494 0.0
C1926 C 0.37885 0.1722 0.39022 0.0
H1927 H 0.24491 0.19876 0.32348 0.0
H1928 H 0.29729 0.19705 0.35236 0.0
H1929 H 0.34446 0.16722 0.36391 0.0
H1930 H 0.52162 0.16833 0.44271 0.0
H1931 H 0.47009 0.16736 0.41305 0.0
H1932 H 0.41362 0.19512 0.39936 0.0
C1933 C 0.30198 0.19181 0.34109 0.0
C1934 C 0.36035 0.17333 0.37137 0.0
C1935 C 0.27171 0.19279 0.32454 0.0
C1936 C 0.48761 0.17292 0.44098 0.0
C1937 C 0.45831 0.17239 0.42402 0.0
C1938 C 0.39825 0.18899 0.3918 0.0
C1939 C 0.33456 0.18386 0.34366 0.0
C1940 C 0.36037 0.18234 0.36262 0.0
C1941 C 0.41818 0.17901 0.42041 0.0
C1942 C 0.39697 0.18006 0.4007 0.0
H1943 H 0.30945 0.17272 0.30096 0.0
H1944 H 0.36377 0.17102 0.33013 0.0
H1945 H 0.38219 0.1971 0.36653 0.0
H1946 H 0.42431 0.19146 0.46239 0.0
H1947 H 0.37292 0.19061 0.4325 0.0
C1948 C 0.81411 0.18059 0.81206 0.0
C1949 C 0.77715 0.188 0.81152 0.0
C1950 C 0.84197 0.17867 0.8291 0.0
C1951 C 0.87385 0.18911 0.87707 0.0
H1952 H 0.88591 0.16292 0.89352 0.0
C1953 C 0.9329 0.18071 0.954 0.0
C1954 C 0.98065 0.17571 0.95452 0.0
C1955 C 0.90253 0.18072 0.93718 0.0
C1956 C 0.88244 0.17026 0.88907 0.0
H1957 H 0.74245 0.19953 0.82783 0.0
H1958 H 0.78981 0.19619 0.85718 0.0
H1959 H 0.85114 0.16655 0.86142 0.0
H1960 H 0.03186 0.16609 0.93902 0.0
H1961 H 0.97792 0.16584 0.90991 0.0
H1962 H 0.90407 0.19283 0.90476 0.0
C1963 C 0.79817 0.19186 0.84468 0.0
C1964 C 0.86328 0.17234 0.87064 0.0
C1965 C 0.77066 0.19375 0.82782 0.0
C1966 C 0.99477 0.16992 0.93892 0.0
C1967 C 0.96402 0.1698 0.92227 0.0
C1968 C 0.89208 0.18704 0.8955 0.0
C1969 C 0.83338 0.18419 0.84572 0.0
C1970 C 0.85834 0.18182 0.86449 0.0
C1971 C 0.91933 0.17562 0.92087 0.0
C1972 C 0.89619 0.17761 0.90175 0.0
H1973 H 0.81953 0.17601 0.79971 0.0
H1974 H 0.86936 0.17278 0.82937 0.0
H1975 H 0.87186 0.19648 0.87269 0.0
H1976 H 0.92182 0.18533 0.96578 0.0
H1977 H 0.86793 0.18522 0.93644 0.0
C1978 C 0.24193 0.04553 0.92273 0.0
C1979 C 0.25303 0.05099 0.93914 0.0
C1980 C 0.26867 0.04711 0.90555 0.0
C1981 C 0.3422 0.06556 0.8793 0.0
H1982 H 0.37494 0.04461 0.84521 0.0
C1983 C 0.47858 0.06742 0.81282 0.0
C1984 C 0.4668 0.0616 0.79702 0.0
C1985 C 0.44581 0.06751 0.82894 0.0
C1986 C 0.36509 0.05055 0.85441 0.0
H1987 H 0.30244 0.06216 0.95065 0.0
H1988 H 0.35064 0.06483 0.92043 0.0
H1989 H 0.33886 0.04141 0.87695 0.0
H1990 H 0.41017 0.05182 0.78489 0.0
H1991 H 0.35226 0.05192 0.81323 0.0
H1992 H 0.37022 0.07467 0.85675 0.0
C1993 C 0.32035 0.05941 0.9209 0.0
C1994 C 0.34471 0.04872 0.87268 0.0
C1995 C 0.29335 0.05781 0.93825 0.0
C1996 C 0.41948 0.05646 0.79684 0.0
C1997 C 0.38688 0.05644 0.81312 0.0
C1998 C 0.36312 0.0674 0.86102 0.0
C1999 C 0.30756 0.05418 0.90426 0.0
C2000 C 0.33269 0.05619 0.88533 0.0
C2001 C 0.40111 0.06163 0.82965 0.0
C2002 C 0.37454 0.0599 0.84836 0.0
H2003 H 0.21106 0.0402 0.92294 0.0
H2004 H 0.25717 0.04302 0.89304 0.0
H2005 H 0.33265 0.07149 0.88857 0.0
H2006 H 0.51529 0.07138 0.81327 0.0
H2007 H 0.45799 0.07154 0.84144 0.0
C2008 C 0.24922 0.92244 0.56937 0.0
C2009 C 0.23352 0.92687 0.55222 0.0
C2010 C 0.21524 0.92208 0.58511 0.0
C2011 C 0.11544 0.93691 0.60636 0.0
H2012 H 0.09985 0.91656 0.64353 0.0
C2013 C 0.98424 0.94084 0.67287 0.0
C2014 C -0.0004 0.93661 0.69031 0.0
C2015 C 0.0125 0.93922 0.65605 0.0
C2016 C 0.10453 0.92235 0.63341 0.0
H2017 H 0.16927 0.93387 0.53744 0.0
H2018 H 0.10938 0.93339 0.56527 0.0
H2019 H 0.14373 0.91349 0.61276 0.0
H2020 H 0.05772 0.92755 0.70389 0.0
H2021 H 0.10854 0.92485 0.67426 0.0
H2022 H 0.07822 0.94587 0.62703 0.0
C2023 C 0.14802 0.93015 0.56645 0.0
C2024 C 0.12907 0.92055 0.61573 0.0
C2025 C 0.18191 0.93035 0.55051 0.0
C2026 C 0.04513 0.93093 0.69067 0.0
C2027 C 0.07377 0.92931 0.67368 0.0
C2028 C 0.09147 0.93872 0.62403 0.0
C2029 C 0.1652 0.92631 0.5841 0.0
C2030 C 0.13466 0.92782 0.60203 0.0
C2031 C 0.05732 0.93337 0.65614 0.0
C2032 C 0.08549 0.93146 0.63777 0.0
H2033 H 0.28899 0.9197 0.57094 0.0
H2034 H 0.22969 0.91912 0.59851 0.0
H2035 H 0.1205 0.94271 0.59631 0.0
H2036 H 0.94932 0.94526 0.67205 0.0
H2037 H 0.99809 0.94235 0.64282 0.0
C2038 C 0.75134 0.81884 0.68861 0.0
C2039 C 0.7391 0.81209 0.70279 0.0
C2040 C 0.7232 0.81906 0.67134 0.0
C2041 C 0.67233 0.80161 0.63997 0.0
H2042 H 0.6092 0.82168 0.60958 0.0
C2043 C 0.55368 0.79394 0.57227 0.0
C2044 C 0.55065 0.80062 0.5574 0.0
C2045 C 0.58278 0.79582 0.58878 0.0
C2046 C 0.6278 0.81606 0.61773 0.0
H2047 H 0.6859 0.80078 0.71089 0.0
H2048 H 0.63685 0.80106 0.68048 0.0
H2049 H 0.63898 0.82498 0.6425 0.0
H2050 H 0.57793 0.81432 0.54746 0.0
H2051 H 0.63048 0.81762 0.57646 0.0
H2052 H 0.66331 0.79274 0.61534 0.0
C2053 C 0.66769 0.80626 0.68285 0.0
C2054 C 0.64406 0.81792 0.63663 0.0
C2055 C 0.69523 0.80617 0.70029 0.0
C2056 C 0.58035 0.809 0.55868 0.0
C2057 C 0.6096 0.81094 0.57538 0.0
C2058 C 0.65713 0.79979 0.62107 0.0
C2059 C 0.68332 0.81238 0.66791 0.0
C2060 C 0.66521 0.81064 0.64802 0.0
C2061 C 0.6097 0.80448 0.59088 0.0
C2062 C 0.6334 0.80691 0.60984 0.0
H2063 H 0.78568 0.82337 0.69019 0.0
H2064 H 0.73605 0.82381 0.66001 0.0
H2065 H 0.69017 0.79596 0.64829 0.0
H2066 H 0.5308 0.78744 0.57164 0.0
H2067 H 0.58118 0.79072 0.60041 0.0
C2068 C 0.18323 0.80522 0.20568 0.0
C2069 C 0.23543 0.80836 0.2036 0.0
C2070 C 0.14896 0.80541 0.18983 0.0
C2071 C 0.13255 0.81464 0.13997 0.0
H2072 H 0.07163 0.78991 0.12998 0.0
C2073 C 0.05468 0.80389 0.06463 0.0
C2074 C 0.0068 0.79887 0.06438 0.0
C2075 C 0.08106 0.80548 0.08209 0.0
C2076 C 0.08775 0.79691 0.13261 0.0
H2077 H 0.29187 0.81486 0.18424 0.0
H2078 H 0.2323 0.81536 0.15686 0.0
H2079 H 0.11375 0.793 0.16079 0.0
H2080 H 0.94985 0.79134 0.08209 0.0
H2081 H 0.99506 0.79417 0.11218 0.0
H2082 H 0.10695 0.81851 0.11166 0.0
C2083 C 0.21745 0.81271 0.17045 0.0
C2084 C 0.1116 0.79869 0.15035 0.0
C2085 C 0.25166 0.81238 0.1861 0.0
C2086 C 0.98673 0.79524 0.08174 0.0
C2087 C 0.01283 0.79682 0.09906 0.0
C2088 C 0.10841 0.81288 0.12223 0.0
C2089 C 0.16643 0.80889 0.17189 0.0
C2090 C 0.13479 0.80753 0.15415 0.0
C2091 C 0.06 0.80204 0.09953 0.0
C2092 C 0.08615 0.80395 0.11828 0.0
H2093 H 0.17015 0.80204 0.21905 0.0
H2094 H 0.10959 0.8025 0.19135 0.0
H2095 H 0.14997 0.82154 0.14254 0.0
H2096 H 0.07095 0.80681 0.05148 0.0
H2097 H 0.11777 0.80942 0.08195 0.0
C2098 C 0.73681 0.91912 0.06412 0.0
C2099 C 0.7258 0.92588 0.04985 0.0
C2100 C 0.70705 0.91885 0.08102 0.0
C2101 C 0.64701 0.93612 0.11164 0.0
H2102 H 0.59459 0.91503 0.14193 0.0
C2103 C 0.52662 0.94166 0.18004 0.0
C2104 C 0.52886 0.93503 0.19505 0.0
C2105 C 0.55482 0.94023 0.16313 0.0
C2106 C 0.61005 0.92096 0.13379 0.0
H2107 H 0.67342 0.9372 0.04119 0.0
H2108 H 0.62114 0.93678 0.07089 0.0
H2109 H 0.62695 0.91226 0.10917 0.0
H2110 H 0.5646 0.92192 0.2047 0.0
H2111 H 0.61553 0.91945 0.17499 0.0
H2112 H 0.63211 0.94481 0.13617 0.0
C2113 C 0.65249 0.93165 0.06893 0.0
C2114 C 0.62785 0.91938 0.11498 0.0
C2115 C 0.68182 0.93181 0.05188 0.0
C2116 C 0.56265 0.92718 0.19337 0.0
C2117 C 0.59106 0.92571 0.17628 0.0
C2118 C 0.63008 0.93767 0.13045 0.0
C2119 C 0.66662 0.92548 0.08401 0.0
C2120 C 0.64559 0.92699 0.10364 0.0
C2121 C 0.58625 0.93211 0.16077 0.0
C2122 C 0.61045 0.93016 0.14167 0.0
H2123 H 0.77124 0.91459 0.0629 0.0
H2124 H 0.71888 0.91406 0.09242 0.0
H2125 H 0.66212 0.94207 0.10343 0.0
H2126 H 0.5008 0.94777 0.18097 0.0
H2127 H 0.54948 0.94525 0.15151 0.0
C2128 C 0.95796 0.55799 0.80599 0.0
C2129 C 0.00233 0.55203 0.80564 0.0
C2130 C 0.92846 0.559 0.82296 0.0
C2131 C 0.90678 0.54789 0.871 0.0
H2132 H 0.86366 0.57318 0.88621 0.0
C2133 C 0.82332 0.55447 0.94612 0.0
C2134 C 0.77246 0.55835 0.94531 0.0
C2135 C 0.85651 0.55505 0.93004 0.0
C2136 C 0.87576 0.56609 0.88213 0.0
H2137 H 0.04904 0.5421 0.82235 0.0
H2138 H 0.99863 0.54391 0.85163 0.0
H2139 H 0.90569 0.57074 0.85488 0.0
H2140 H 0.71773 0.56658 0.92818 0.0
H2141 H 0.77603 0.56784 0.90037 0.0
H2142 H 0.87729 0.54325 0.89824 0.0
C2143 C 0.98587 0.54777 0.83898 0.0
C2144 C 0.89919 0.56467 0.86412 0.0
C2145 C 0.01506 0.54677 0.82216 0.0
C2146 C 0.75705 0.56357 0.92906 0.0
C2147 C 0.7904 0.5643 0.91318 0.0
C2148 C 0.884 0.54933 0.88902 0.0
C2149 C 0.94283 0.55403 0.83976 0.0
C2150 C 0.91502 0.55554 0.85835 0.0
C2151 C 0.83933 0.55964 0.91315 0.0
C2152 C 0.86824 0.55844 0.89479 0.0
H2153 H 0.94751 0.56218 0.79348 0.0
H2154 H 0.89502 0.56379 0.82302 0.0
H2155 H 0.91751 0.54074 0.86691 0.0
H2156 H 0.83562 0.55033 0.95846 0.0
H2157 H 0.89434 0.55147 0.93041 0.0
C2158 C 0.23089 0.6898 0.82435 0.0
C2159 C 0.24244 0.68429 0.80806 0.0
C2160 C 0.25851 0.68854 0.84143 0.0
C2161 C 0.33794 0.67097 0.86791 0.0
H2162 H 0.36599 0.69257 0.90091 0.0
C2163 C 0.47755 0.67151 0.93366 0.0
C2164 C 0.46359 0.67724 0.94937 0.0
C2165 C 0.44448 0.67083 0.91769 0.0
C2166 C 0.35751 0.68645 0.89201 0.0
H2167 H 0.29353 0.67334 0.79665 0.0
H2168 H 0.34346 0.67125 0.82669 0.0
H2169 H 0.32815 0.69509 0.86922 0.0
H2170 H 0.40271 0.68615 0.96156 0.0
H2171 H 0.34455 0.68507 0.93339 0.0
H2172 H 0.3695 0.66238 0.89071 0.0
C2173 C 0.31204 0.67645 0.82622 0.0
C2174 C 0.33608 0.68789 0.87378 0.0
C2175 C 0.28401 0.67772 0.80897 0.0
C2176 C 0.41397 0.68163 0.94966 0.0
C2177 C 0.38111 0.68108 0.93349 0.0
C2178 C 0.36008 0.66953 0.88615 0.0
C2179 C 0.29895 0.68176 0.84273 0.0
C2180 C 0.32556 0.68017 0.86154 0.0
C2181 C 0.39727 0.67602 0.91704 0.0
C2182 C 0.3697 0.67727 0.89842 0.0
H2183 H 0.19909 0.69494 0.82415 0.0
H2184 H 0.24666 0.69266 0.85384 0.0
H2185 H 0.3297 0.66486 0.85897 0.0
H2186 H 0.5158 0.66807 0.93318 0.0
H2187 H 0.45804 0.6669 0.90524 0.0
C2188 C 0.91783 0.67547 0.44641 0.0
C2189 C 0.93392 0.68459 0.45198 0.0
C2190 C 0.89095 0.67417 0.42898 0.0
C2191 C 0.82451 0.68708 0.38898 0.0
H2192 H 0.89302 0.66855 0.35611 0.0
C2193 C 0.80595 0.69044 0.30832 0.0
C2194 C 0.78643 0.68239 0.29888 0.0
C2195 C 0.82743 0.68967 0.32672 0.0
C2196 C 0.87332 0.6737 0.36517 0.0
H2197 H 0.93198 0.69949 0.44475 0.0
H2198 H 0.88395 0.69732 0.41483 0.0
H2199 H 0.913 0.66888 0.3906 0.0
H2200 H 0.77728 0.66717 0.30043 0.0
H2201 H 0.8156 0.66576 0.33271 0.0
H2202 H 0.78605 0.69209 0.36358 0.0
C2203 C 0.8916 0.69115 0.42368 0.0
C2204 C 0.88429 0.67384 0.38493 0.0
C2205 C 0.91892 0.69242 0.44088 0.0
C2206 C 0.79331 0.67343 0.3073 0.0
C2207 C 0.81469 0.67265 0.32583 0.0
C2208 C 0.81387 0.68698 0.3693 0.0
C2209 C 0.87946 0.68198 0.41708 0.0
C2210 C 0.86094 0.68069 0.39696 0.0
C2211 C 0.82906 0.68084 0.3361 0.0
C2212 C 0.83918 0.68046 0.3571 0.0
H2213 H 0.93014 0.66932 0.45459 0.0
H2214 H 0.88164 0.66703 0.42434 0.0
H2215 H 0.80518 0.69234 0.39789 0.0
H2216 H 0.80012 0.69743 0.3022 0.0
H2217 H 0.83929 0.69607 0.33415 0.0
C2218 C 0.51571 0.54814 0.32418 0.0
C2219 C 0.49799 0.55242 0.3071 0.0
C2220 C 0.49005 0.54977 0.34155 0.0
C2221 C 0.40174 0.56669 0.36601 0.0
H2222 H 0.38891 0.54618 0.40292 0.0
C2223 C 0.26104 0.56612 0.43102 0.0
C2224 C 0.27701 0.56136 0.44776 0.0
C2225 C 0.29478 0.56676 0.41524 0.0
C2226 C 0.3932 0.55203 0.39294 0.0
H2227 H 0.43834 0.56158 0.29473 0.0
H2228 H 0.39205 0.56429 0.3253 0.0
H2229 H 0.42816 0.54313 0.37165 0.0
H2230 H 0.34147 0.55411 0.46189 0.0
H2231 H 0.40102 0.55513 0.43403 0.0
H2232 H 0.36471 0.57549 0.38728 0.0
C2233 C 0.42669 0.55979 0.32518 0.0
C2234 C 0.41542 0.55028 0.37494 0.0
C2235 C 0.45271 0.55816 0.30766 0.0
C2236 C 0.3287 0.55789 0.44914 0.0
C2237 C 0.36238 0.5584 0.43318 0.0
C2238 C 0.379 0.56843 0.38403 0.0
C2239 C 0.44554 0.55568 0.34236 0.0
C2240 C 0.41999 0.55758 0.36124 0.0
C2241 C 0.3448 0.5625 0.41582 0.0
C2242 C 0.37443 0.5611 0.39765 0.0
H2243 H 0.55052 0.54367 0.3243 0.0
H2244 H 0.50622 0.5466 0.35446 0.0
H2245 H 0.40544 0.57251 0.35592 0.0
H2246 H 0.22112 0.56882 0.42971 0.0
H2247 H 0.27999 0.56991 0.40208 0.0
C2248 C 0.077 0.43203 0.20193 0.0
C2249 C 0.02816 0.42737 0.20248 0.0
C2250 C 0.10837 0.43148 0.18537 0.0
C2251 C 0.12841 0.41936 0.13872 0.0
H2252 H 0.15513 0.44478 0.11979 0.0
C2253 C 0.20623 0.42642 0.06137 0.0
C2254 C 0.24744 0.43306 0.06039 0.0
C2255 C 0.17677 0.42544 0.07839 0.0
C2256 C 0.14855 0.43762 0.1249 0.0
H2257 H 0.97577 0.4178 0.18733 0.0
H2258 H 0.03117 0.41661 0.15872 0.0
H2259 H 0.11813 0.4426 0.15176 0.0
H2260 H 0.28833 0.44422 0.07589 0.0
H2261 H 0.2381 0.44249 0.10519 0.0
H2262 H 0.15962 0.41439 0.11189 0.0
C2263 C 0.04518 0.42075 0.17082 0.0
C2264 C 0.12762 0.43638 0.14328 0.0
C2265 C 0.01352 0.42143 0.18717 0.0
C2266 C 0.25689 0.43901 0.07622 0.0
C2267 C 0.22774 0.43805 0.09305 0.0
C2268 C 0.15008 0.4206 0.12035 0.0
C2269 C 0.09153 0.42615 0.16937 0.0
C2270 C 0.11758 0.42725 0.15043 0.0
C2271 C 0.18798 0.43115 0.09454 0.0
C2272 C 0.16072 0.42976 0.11328 0.0
H2273 H 0.08866 0.43673 0.2135 0.0
H2274 H 0.14427 0.43565 0.18463 0.0
H2275 H 0.1206 0.41225 0.14386 0.0
H2276 H 0.19838 0.42172 0.04939 0.0
H2277 H 0.14593 0.42013 0.07902 0.0
C2278 C 0.72265 0.31436 0.18017 0.0
C2279 C 0.70846 0.30836 0.19542 0.0
C2280 C 0.6906 0.31507 0.16392 0.0
C2281 C 0.61009 0.29915 0.13658 0.0
H2282 H 0.57696 0.32088 0.10457 0.0
C2283 C 0.48644 0.29561 0.06825 0.0
C2284 C 0.49602 0.30161 0.0525 0.0
C2285 C 0.51396 0.29677 0.08539 0.0
C2286 C 0.5868 0.31474 0.11321 0.0
H2287 H 0.64865 0.29888 0.2065 0.0
H2288 H 0.59228 0.30002 0.17785 0.0
H2289 H 0.61431 0.32331 0.13671 0.0
H2290 H 0.54372 0.31326 0.04198 0.0
H2291 H 0.59353 0.31515 0.07207 0.0
H2292 H 0.58487 0.29054 0.1131 0.0
C2293 C 0.62799 0.30424 0.17855 0.0
C2294 C 0.60748 0.31614 0.13168 0.0
C2295 C 0.65978 0.30365 0.19497 0.0
C2296 C 0.53587 0.3085 0.05388 0.0
C2297 C 0.56375 0.30966 0.07118 0.0
C2298 C 0.59021 0.29775 0.11811 0.0
C2299 C 0.64444 0.30961 0.16254 0.0
C2300 C 0.6188 0.30835 0.14358 0.0
C2301 C 0.55223 0.30392 0.08725 0.0
C2302 C 0.57774 0.30551 0.10625 0.0
H2303 H 0.76048 0.31796 0.18023 0.0
H2304 H 0.70435 0.31922 0.15179 0.0
H2305 H 0.62001 0.29301 0.14522 0.0
H2306 H 0.45593 0.29023 0.06763 0.0
H2307 H 0.50337 0.2923 0.09746 0.0
C2308 C 0.03873 0.31599 0.55541 0.0
C2309 C 0.02941 0.30699 0.54749 0.0
C2310 C 0.06009 0.31682 0.57395 0.0
C2311 C 0.05725 0.30301 0.61832 0.0
H2312 H 0.16367 0.32027 0.63776 0.0
C2313 C 0.16842 0.29709 0.68859 0.0
C2314 C 0.18645 0.30488 0.6992 0.0
C2315 C 0.13953 0.29846 0.67175 0.0
C2316 C 0.13297 0.31556 0.63262 0.0
H2317 H 0.03857 0.2919 0.5517 0.0
H2318 H 0.07765 0.2933 0.58362 0.0
H2319 H 0.14069 0.32054 0.60353 0.0
H2320 H 0.18692 0.32018 0.70131 0.0
H2321 H 0.13566 0.32265 0.67175 0.0
H2322 H 0.04983 0.29791 0.64717 0.0
C2323 C 0.06762 0.29972 0.57584 0.0
C2324 C 0.12021 0.31567 0.613 0.0
C2325 C 0.04614 0.2989 0.55747 0.0
C2326 C 0.17214 0.31407 0.69353 0.0
C2327 C 0.14365 0.31547 0.67649 0.0
C2328 C 0.06975 0.30293 0.63785 0.0
C2329 C 0.07202 0.30863 0.58469 0.0
C2330 C 0.08339 0.30918 0.6056 0.0
C2331 C 0.12894 0.30768 0.66503 0.0
C2332 C 0.1088 0.30901 0.64515 0.0
H2333 H 0.02482 0.32231 0.54811 0.0
H2334 H 0.0632 0.32378 0.58043 0.0
H2335 H 0.02751 0.29812 0.61311 0.0
H2336 H 0.18026 0.28996 0.6925 0.0
H2337 H 0.12938 0.29231 0.6632 0.0
C2338 C 0.56974 0.43508 0.69875 0.0
C2339 C 0.52804 0.42883 0.70254 0.0
C2340 C 0.59628 0.43466 0.68114 0.0
C2341 C 0.61959 0.42136 0.63649 0.0
H2342 H 0.60798 0.44615 0.61267 0.0
C2343 C 0.68971 0.42823 0.55821 0.0
C2344 C 0.72245 0.43623 0.55671 0.0
C2345 C 0.65908 0.42684 0.57483 0.0
C2346 C 0.61182 0.43919 0.61911 0.0
H2347 H 0.48335 0.41687 0.69182 0.0
H2348 H 0.53098 0.41591 0.66122 0.0
H2349 H 0.57816 0.44391 0.64562 0.0
H2350 H 0.7467 0.44928 0.5705 0.0
H2351 H 0.69373 0.44696 0.59908 0.0
H2352 H 0.65499 0.41672 0.61009 0.0
C2353 C 0.5433 0.42111 0.67178 0.0
C2354 C 0.59499 0.43793 0.63802 0.0
C2355 C 0.51638 0.42161 0.68931 0.0
C2356 C 0.72149 0.44308 0.57131 0.0
C2357 C 0.69091 0.44175 0.58769 0.0
C2358 C 0.63727 0.42265 0.61755 0.0
C2359 C 0.58142 0.42796 0.66714 0.0
C2360 C 0.59963 0.42906 0.64703 0.0
C2361 C 0.66053 0.43349 0.58997 0.0
C2362 C 0.63454 0.43165 0.6088 0.0
H2363 H 0.57841 0.44084 0.70857 0.0
H2364 H 0.6259 0.43997 0.67792 0.0
H2365 H 0.62295 0.41442 0.64309 0.0
H2366 H 0.69048 0.4228 0.54721 0.0
H2367 H 0.63566 0.42044 0.5761 0.0
loop_
_geom_bond_atom_site_label_1
_geom_bond_atom_site_label_2
_geom_bond_distance
_geom_bond_site_symmetry_2
_ccdc_geom_bond_type
Co0 O1 2.216 . S
Co0 O2 2.091 1_455 S
Co0 O4 2.004 . S
Co0 O10 2.021 . S
Co0 O12 2.137 . S
Co0 O13 2.244 . S
O1 Co0 2.216 . S
O1 C8 1.247 . S
O2 Co0 2.091 1_655 S
O2 C8 1.261 1_655 S
C3 O12 1.247 . S
C3 O13 1.272 . S
O4 Co0 2.004 . S
O4 C9 1.259 . S
Co5 O6 2.061 . S
Co5 O11 2.052 . S
Co5 O13 2.135 . S
O6 Co5 2.061 . S
O6 C9 1.235 . S
C7 O10 1.238 . S
C7 O11 1.241 . S
C8 O1 1.247 . S
C8 O2 1.261 1_455 S
C9 O4 1.259 . S
C9 O6 1.235 . S
O10 Co0 2.021 . S
O10 C7 1.238 . S
O11 Co5 2.052 . S
O11 C7 1.241 . S
O12 Co0 2.137 . S
O12 C3 1.247 . S
O13 Co0 2.244 . S
O13 C3 1.272 . S
O13 Co5 2.135 . S
Co14 O15 2.216 . S
Co14 O16 2.091 . S
Co14 O18 2.004 . S
Co14 O24 2.021 . S
Co14 O26 2.137 . S
Co14 O27 2.244 . S
O15 Co14 2.216 . S
O15 C22 1.247 . S
O16 Co14 2.091 . S
O16 C22 1.261 . S
C17 O26 1.247 . S
C17 O27 1.272 . S
O18 Co14 2.004 . S
O18 C23 1.259 . S
Co19 O20 2.061 . S
Co19 O25 2.052 . S
Co19 O27 2.135 . S
O20 Co19 2.061 . S
O20 C23 1.235 . S
C21 O24 1.238 . S
C21 O25 1.241 . S
C22 O15 1.247 . S
C22 O16 1.261 . S
C23 O18 1.259 . S
C23 O20 1.235 . S
O24 Co14 2.021 . S
O24 C21 1.238 . S
O25 Co19 2.052 . S
O25 C21 1.241 . S
O26 Co14 2.137 . S
O26 C17 1.247 . S
O27 Co14 2.244 . S
O27 C17 1.272 . S
O27 Co19 2.135 . S
Co28 O29 2.216 . S
Co28 O30 2.091 1_455 S
Co28 O32 2.004 1_556 S
Co28 O38 2.021 . S
Co28 O40 2.137 . S
Co28 O41 2.244 . S
O29 Co28 2.216 . S
O29 C36 1.247 . S
O30 Co28 2.091 1_655 S
O30 C36 1.261 1_655 S
C31 O40 1.247 . S
C31 O41 1.272 . S
O32 Co28 2.004 1_554 S
O32 C37 1.259 . S
Co33 O34 2.061 . S
Co33 O39 2.052 1_554 S
Co33 O41 2.135 1_554 S
O34 Co33 2.061 . S
O34 C37 1.235 . S
C35 O38 1.238 . S
C35 O39 1.241 . S
C36 O29 1.247 . S
C36 O30 1.261 1_455 S
C37 O32 1.259 . S
C37 O34 1.235 . S
O38 Co28 2.021 . S
O38 C35 1.238 . S
O39 Co33 2.052 1_556 S
O39 C35 1.241 . S
O40 Co28 2.137 . S
O40 C31 1.247 . S
O41 Co28 2.244 . S
O41 C31 1.272 . S
O41 Co33 2.135 1_556 S
Co42 O43 2.216 . S
Co42 O44 2.091 . S
Co42 O46 2.004 1_556 S
Co42 O52 2.021 . S
Co42 O54 2.137 . S
Co42 O55 2.244 . S
O43 Co42 2.216 . S
O43 C50 1.247 . S
O44 Co42 2.091 . S
O44 C50 1.261 . S
C45 O54 1.247 . S
C45 O55 1.272 . S
O46 Co42 2.004 1_554 S
O46 C51 1.259 . S
Co47 O48 2.061 . S
Co47 O53 2.052 1_554 S
Co47 O55 2.135 1_554 S
O48 Co47 2.061 . S
O48 C51 1.235 . S
C49 O52 1.238 . S
C49 O53 1.241 . S
C50 O43 1.247 . S
C50 O44 1.261 . S
C51 O46 1.259 . S
C51 O48 1.235 . S
O52 Co42 2.021 . S
O52 C49 1.238 . S
O53 Co47 2.052 1_556 S
O53 C49 1.241 . S
O54 Co42 2.137 . S
O54 C45 1.247 . S
O55 Co42 2.244 . S
O55 C45 1.272 . S
O55 Co47 2.135 1_556 S
Co56 O57 2.216 . S
Co56 O58 2.091 1_655 S
Co56 O60 2.004 . S
Co56 O66 2.021 . S
Co56 O68 2.137 . S
Co56 O69 2.244 . S
O57 Co56 2.216 . S
O57 C64 1.247 . S
O58 Co56 2.091 1_455 S
O58 C64 1.261 1_455 S
C59 O68 1.247 . S
C59 O69 1.272 . S
O60 Co56 2.004 . S
O60 C65 1.259 . S
Co61 O62 2.061 . S
Co61 O67 2.052 . S
Co61 O69 2.135 . S
O62 Co61 2.061 . S
O62 C65 1.235 . S
C63 O66 1.238 . S
C63 O67 1.241 . S
C64 O57 1.247 . S
C64 O58 1.261 1_655 S
C65 O60 1.259 . S
C65 O62 1.235 . S
O66 Co56 2.021 . S
O66 C63 1.238 . S
O67 Co61 2.052 . S
O67 C63 1.241 . S
O68 Co56 2.137 . S
O68 C59 1.247 . S
O69 Co56 2.244 . S
O69 C59 1.272 . S
O69 Co61 2.135 . S
Co70 O71 2.216 . S
Co70 O72 2.091 . S
Co70 O74 2.004 . S
Co70 O80 2.021 . S
Co70 O82 2.137 . S
Co70 O83 2.244 . S
O71 Co70 2.216 . S
O71 C78 1.247 . S
O72 Co70 2.091 . S
O72 C78 1.261 . S
C73 O82 1.247 . S
C73 O83 1.272 . S
O74 Co70 2.004 . S
O74 C79 1.259 . S
Co75 O76 2.061 . S
Co75 O81 2.052 . S
Co75 O83 2.135 . S
O76 Co75 2.061 . S
O76 C79 1.235 . S
C77 O80 1.238 . S
C77 O81 1.241 . S
C78 O71 1.247 . S
C78 O72 1.261 . S
C79 O74 1.259 . S
C79 O76 1.235 . S
O80 Co70 2.021 . S
O80 C77 1.238 . S
O81 Co75 2.052 . S
O81 C77 1.241 . S
O82 Co70 2.137 . S
O82 C73 1.247 . S
O83 Co70 2.244 . S
O83 C73 1.272 . S
O83 Co75 2.135 . S
Co84 O85 2.216 . S
Co84 O86 2.091 1_655 S
Co84 O88 2.004 1_554 S
Co84 O94 2.021 . S
Co84 O96 2.137 . S
Co84 O97 2.244 . S
O85 Co84 2.216 . S
O85 C92 1.247 . S
O86 Co84 2.091 1_455 S
O86 C92 1.261 1_455 S
C87 O96 1.247 . S
C87 O97 1.272 . S
O88 Co84 2.004 1_556 S
O88 C93 1.259 . S
Co89 O90 2.061 . S
Co89 O95 2.052 1_556 S
Co89 O97 2.135 1_556 S
O90 Co89 2.061 . S
O90 C93 1.235 . S
C91 O94 1.238 . S
C91 O95 1.241 . S
C92 O85 1.247 . S
C92 O86 1.261 1_655 S
C93 O88 1.259 . S
C93 O90 1.235 . S
O94 Co84 2.021 . S
O94 C91 1.238 . S
O95 Co89 2.052 1_554 S
O95 C91 1.241 . S
O96 Co84 2.137 . S
O96 C87 1.247 . S
O97 Co84 2.244 . S
O97 C87 1.272 . S
O97 Co89 2.135 1_554 S
Co98 O99 2.216 . S
Co98 O100 2.091 . S
Co98 O102 2.004 1_554 S
Co98 O108 2.021 . S
Co98 O110 2.137 . S
Co98 O111 2.244 . S
O99 Co98 2.216 . S
O99 C106 1.247 . S
O100 Co98 2.091 . S
O100 C106 1.261 . S
C101 O110 1.247 . S
C101 O111 1.272 . S
O102 Co98 2.004 1_556 S
O102 C107 1.259 . S
Co103 O104 2.061 . S
Co103 O109 2.052 1_556 S
Co103 O111 2.135 1_556 S
O104 Co103 2.061 . S
O104 C107 1.235 . S
C105 O108 1.238 . S
C105 O109 1.241 . S
C106 O99 1.247 . S
C106 O100 1.261 . S
C107 O102 1.259 . S
C107 O104 1.235 . S
O108 Co98 2.021 . S
O108 C105 1.238 . S
O109 Co103 2.052 1_554 S
O109 C105 1.241 . S
O110 Co98 2.137 . S
O110 C101 1.247 . S
O111 Co98 2.244 . S
O111 C101 1.272 . S
O111 Co103 2.135 1_554 S
Co112 O113 2.216 . S
Co112 O114 2.091 1_455 S
Co112 O116 2.004 . S
Co112 O122 2.021 . S
Co112 O124 2.137 . S
Co112 O125 2.244 . S
O113 Co112 2.216 . S
O113 C120 1.247 . S
O114 Co112 2.091 1_655 S
O114 C120 1.261 1_655 S
C115 O124 1.247 . S
C115 O125 1.272 . S
O116 Co112 2.004 . S
O116 C121 1.259 . S
Co117 O118 2.061 . S
Co117 O123 2.052 . S
Co117 O125 2.135 . S
O118 Co117 2.061 . S
O118 C121 1.235 . S
C119 O122 1.238 . S
C119 O123 1.241 . S
C120 O113 1.247 . S
C120 O114 1.261 1_455 S
C121 O116 1.259 . S
C121 O118 1.235 . S
O122 Co112 2.021 . S
O122 C119 1.238 . S
O123 Co117 2.052 . S
O123 C119 1.241 . S
O124 Co112 2.137 . S
O124 C115 1.247 . S
O125 Co112 2.244 . S
O125 C115 1.272 . S
O125 Co117 2.135 . S
Co126 O127 2.216 . S
Co126 O128 2.091 . S
Co126 O130 2.004 . S
Co126 O136 2.021 . S
Co126 O138 2.137 . S
Co126 O139 2.244 . S
O127 Co126 2.216 . S
O127 C134 1.247 . S
O128 Co126 2.091 . S
O128 C134 1.261 . S
C129 O138 1.247 . S
C129 O139 1.272 . S
O130 Co126 2.004 . S
O130 C135 1.259 . S
Co131 O132 2.061 . S
Co131 O137 2.052 . S
Co131 O139 2.135 . S
O132 Co131 2.061 . S
O132 C135 1.235 . S
C133 O136 1.238 . S
C133 O137 1.241 . S
C134 O127 1.247 . S
C134 O128 1.261 . S
C135 O130 1.259 . S
C135 O132 1.235 . S
O136 Co126 2.021 . S
O136 C133 1.238 . S
O137 Co131 2.052 . S
O137 C133 1.241 . S
O138 Co126 2.137 . S
O138 C129 1.247 . S
O139 Co126 2.244 . S
O139 C129 1.272 . S
O139 Co131 2.135 . S
Co140 O141 2.216 . S
Co140 O142 2.091 1_455 S
Co140 O144 2.004 . S
Co140 O150 2.021 . S
Co140 O152 2.137 . S
Co140 O153 2.244 . S
O141 Co140 2.216 . S
O141 C148 1.247 . S
O142 Co140 2.091 1_655 S
O142 C148 1.261 1_655 S
C143 O152 1.247 . S
C143 O153 1.272 . S
O144 Co140 2.004 . S
O144 C149 1.259 . S
Co145 O146 2.061 . S
Co145 O151 2.052 . S
Co145 O153 2.135 . S
O146 Co145 2.061 . S
O146 C149 1.235 . S
C147 O150 1.238 . S
C147 O151 1.241 . S
C148 O141 1.247 . S
C148 O142 1.261 1_455 S
C149 O144 1.259 . S
C149 O146 1.235 . S
O150 Co140 2.021 . S
O150 C147 1.238 . S
O151 Co145 2.052 . S
O151 C147 1.241 . S
O152 Co140 2.137 . S
O152 C143 1.247 . S
O153 Co140 2.244 . S
O153 C143 1.272 . S
O153 Co145 2.135 . S
Co154 O155 2.216 . S
Co154 O156 2.091 . S
Co154 O158 2.004 . S
Co154 O164 2.021 . S
Co154 O166 2.137 . S
Co154 O167 2.244 . S
O155 Co154 2.216 . S
O155 C162 1.247 . S
O156 Co154 2.091 . S
O156 C162 1.261 . S
C157 O166 1.247 . S
C157 O167 1.272 . S
O158 Co154 2.004 . S
O158 C163 1.259 . S
Co159 O160 2.061 . S
Co159 O165 2.052 . S
Co159 O167 2.135 . S
O160 Co159 2.061 . S
O160 C163 1.235 . S
C161 O164 1.238 . S
C161 O165 1.241 . S
C162 O155 1.247 . S
C162 O156 1.261 . S
C163 O158 1.259 . S
C163 O160 1.235 . S
O164 Co154 2.021 . S
O164 C161 1.238 . S
O165 Co159 2.052 . S
O165 C161 1.241 . S
O166 Co154 2.137 . S
O166 C157 1.247 . S
O167 Co154 2.244 . S
O167 C157 1.272 . S
O167 Co159 2.135 . S
Co168 O169 2.216 . S
Co168 O170 2.091 1_655 S
Co168 O172 2.004 . S
Co168 O178 2.021 . S
Co168 O180 2.137 . S
Co168 O181 2.244 . S
O169 Co168 2.216 . S
O169 C176 1.247 . S
O170 Co168 2.091 1_455 S
O170 C176 1.261 1_455 S
C171 O180 1.247 . S
C171 O181 1.272 . S
O172 Co168 2.004 . S
O172 C177 1.259 . S
Co173 O174 2.061 . S
Co173 O179 2.052 . S
Co173 O181 2.135 . S
O174 Co173 2.061 . S
O174 C177 1.235 . S
C175 O178 1.238 . S
C175 O179 1.241 . S
C176 O169 1.247 . S
C176 O170 1.261 1_655 S
C177 O172 1.259 . S
C177 O174 1.235 . S
O178 Co168 2.021 . S
O178 C175 1.238 . S
O179 Co173 2.052 . S
O179 C175 1.241 . S
O180 Co168 2.137 . S
O180 C171 1.247 . S
O181 Co168 2.244 . S
O181 C171 1.272 . S
O181 Co173 2.135 . S
Co182 O183 2.216 . S
Co182 O184 2.091 . S
Co182 O186 2.004 . S
Co182 O192 2.021 . S
Co182 O194 2.137 . S
Co182 O195 2.244 . S
O183 Co182 2.216 . S
O183 C190 1.247 . S
O184 Co182 2.091 . S
O184 C190 1.261 . S
C185 O194 1.247 . S
C185 O195 1.272 . S
O186 Co182 2.004 . S
O186 C191 1.259 . S
Co187 O188 2.061 . S
Co187 O193 2.052 . S
Co187 O195 2.135 . S
O188 Co187 2.061 . S
O188 C191 1.235 . S
C189 O192 1.238 . S
C189 O193 1.241 . S
C190 O183 1.247 . S
C190 O184 1.261 . S
C191 O186 1.259 . S
C191 O188 1.235 . S
O192 Co182 2.021 . S
O192 C189 1.238 . S
O193 Co187 2.052 . S
O193 C189 1.241 . S
O194 Co182 2.137 . S
O194 C185 1.247 . S
O195 Co182 2.244 . S
O195 C185 1.272 . S
O195 Co187 2.135 . S
Co196 O197 2.216 . S
Co196 O198 2.091 1_655 S
Co196 O200 2.004 . S
Co196 O206 2.021 . S
Co196 O208 2.137 . S
Co196 O209 2.244 . S
O197 Co196 2.216 . S
O197 C204 1.247 . S
O198 Co196 2.091 1_455 S
O198 C204 1.261 1_455 S
C199 O208 1.247 . S
C199 O209 1.272 . S
O200 Co196 2.004 . S
O200 C205 1.259 . S
Co201 O202 2.061 . S
Co201 O207 2.052 . S
Co201 O209 2.135 . S
O202 Co201 2.061 . S
O202 C205 1.235 . S
C203 O206 1.238 . S
C203 O207 1.241 . S
C204 O197 1.247 . S
C204 O198 1.261 1_655 S
C205 O200 1.259 . S
C205 O202 1.235 . S
O206 Co196 2.021 . S
O206 C203 1.238 . S
O207 Co201 2.052 . S
O207 C203 1.241 . S
O208 Co196 2.137 . S
O208 C199 1.247 . S
O209 Co196 2.244 . S
O209 C199 1.272 . S
O209 Co201 2.135 . S
Co210 O211 2.216 . S
Co210 O212 2.091 . S
Co210 O214 2.004 . S
Co210 O220 2.021 . S
Co210 O222 2.137 . S
Co210 O223 2.244 . S
O211 Co210 2.216 . S
O211 C218 1.247 . S
O212 Co210 2.091 . S
O212 C218 1.261 . S
C213 O222 1.247 . S
C213 O223 1.272 . S
O214 Co210 2.004 . S
O214 C219 1.259 . S
Co215 O216 2.061 . S
Co215 O221 2.052 . S
Co215 O223 2.135 . S
O216 Co215 2.061 . S
O216 C219 1.235 . S
C217 O220 1.238 . S
C217 O221 1.241 . S
C218 O211 1.247 . S
C218 O212 1.261 . S
C219 O214 1.259 . S
C219 O216 1.235 . S
O220 Co210 2.021 . S
O220 C217 1.238 . S
O221 Co215 2.052 . S
O221 C217 1.241 . S
O222 Co210 2.137 . S
O222 C213 1.247 . S
O223 Co210 2.244 . S
O223 C213 1.272 . S
O223 Co215 2.135 . S
Co224 O225 2.216 . S
Co224 O226 2.091 . S
Co224 O228 2.004 . S
Co224 O234 2.021 . S
Co224 O236 2.137 . S
Co224 O237 2.244 . S
O225 Co224 2.216 . S
O225 C232 1.247 . S
O226 Co224 2.091 . S
O226 C232 1.261 . S
C227 O236 1.247 . S
C227 O237 1.272 . S
O228 Co224 2.004 . S
O228 C233 1.259 . S
Co229 O230 2.061 . S
Co229 O235 2.052 . S
Co229 O237 2.135 . S
O230 Co229 2.061 . S
O230 C233 1.235 . S
C231 O234 1.238 . S
C231 O235 1.241 . S
C232 O225 1.247 . S
C232 O226 1.261 . S
C233 O228 1.259 . S
C233 O230 1.235 . S
O234 Co224 2.021 . S
O234 C231 1.238 . S
O235 Co229 2.052 . S
O235 C231 1.241 . S
O236 Co224 2.137 . S
O236 C227 1.247 . S
O237 Co224 2.244 . S
O237 C227 1.272 . S
O237 Co229 2.135 . S
Co238 O239 2.216 . S
Co238 O240 2.091 . S
Co238 O242 2.004 . S
Co238 O248 2.021 . S
Co238 O250 2.137 . S
Co238 O251 2.244 . S
O239 Co238 2.216 . S
O239 C246 1.247 . S
O240 Co238 2.091 . S
O240 C246 1.261 . S
C241 O250 1.247 . S
C241 O251 1.272 . S
O242 Co238 2.004 . S
O242 C247 1.259 . S
Co243 O244 2.061 . S
Co243 O249 2.052 . S
Co243 O251 2.135 . S
O244 Co243 2.061 . S
O244 C247 1.235 . S
C245 O248 1.238 . S
C245 O249 1.241 . S
C246 O239 1.247 . S
C246 O240 1.261 . S
C247 O242 1.259 . S
C247 O244 1.235 . S
O248 Co238 2.021 . S
O248 C245 1.238 . S
O249 Co243 2.052 . S
O249 C245 1.241 . S
O250 Co238 2.137 . S
O250 C241 1.247 . S
O251 Co238 2.244 . S
O251 C241 1.272 . S
O251 Co243 2.135 . S
Co252 O253 2.216 . S
Co252 O254 2.091 . S
Co252 O256 2.004 . S
Co252 O262 2.021 . S
Co252 O264 2.137 . S
Co252 O265 2.244 . S
O253 Co252 2.216 . S
O253 C260 1.247 . S
O254 Co252 2.091 . S
O254 C260 1.261 . S
C255 O264 1.247 . S
C255 O265 1.272 . S
O256 Co252 2.004 . S
O256 C261 1.259 . S
Co257 O258 2.061 . S
Co257 O263 2.052 . S
Co257 O265 2.135 . S
O258 Co257 2.061 . S
O258 C261 1.235 . S
C259 O262 1.238 . S
C259 O263 1.241 . S
C260 O253 1.247 . S
C260 O254 1.261 . S
C261 O256 1.259 . S
C261 O258 1.235 . S
O262 Co252 2.021 . S
O262 C259 1.238 . S
O263 Co257 2.052 . S
O263 C259 1.241 . S
O264 Co252 2.137 . S
O264 C255 1.247 . S
O265 Co252 2.244 . S
O265 C255 1.272 . S
O265 Co257 2.135 . S
Co266 O267 2.216 . S
Co266 O268 2.091 . S
Co266 O270 2.004 . S
Co266 O276 2.021 . S
Co266 O278 2.137 . S
Co266 O279 2.244 . S
O267 Co266 2.216 . S
O267 C274 1.247 . S
O268 Co266 2.091 . S
O268 C274 1.261 . S
C269 O278 1.247 . S
C269 O279 1.272 . S
O270 Co266 2.004 . S
O270 C275 1.259 . S
Co271 O272 2.061 . S
Co271 O277 2.052 . S
Co271 O279 2.135 . S
O272 Co271 2.061 . S
O272 C275 1.235 . S
C273 O276 1.238 . S
C273 O277 1.241 . S
C274 O267 1.247 . S
C274 O268 1.261 . S
C275 O270 1.259 . S
C275 O272 1.235 . S
O276 Co266 2.021 . S
O276 C273 1.238 . S
O277 Co271 2.052 . S
O277 C273 1.241 . S
O278 Co266 2.137 . S
O278 C269 1.247 . S
O279 Co266 2.244 . S
O279 C269 1.272 . S
O279 Co271 2.135 . S
Co280 O281 2.216 . S
Co280 O282 2.091 . S
Co280 O284 2.004 . S
Co280 O290 2.021 . S
Co280 O292 2.137 . S
Co280 O293 2.244 . S
O281 Co280 2.216 . S
O281 C288 1.247 . S
O282 Co280 2.091 . S
O282 C288 1.261 . S
C283 O292 1.247 . S
C283 O293 1.272 . S
O284 Co280 2.004 . S
O284 C289 1.259 . S
Co285 O286 2.061 . S
Co285 O291 2.052 . S
Co285 O293 2.135 . S
O286 Co285 2.061 . S
O286 C289 1.235 . S
C287 O290 1.238 . S
C287 O291 1.241 . S
C288 O281 1.247 . S
C288 O282 1.261 . S
C289 O284 1.259 . S
C289 O286 1.235 . S
O290 Co280 2.021 . S
O290 C287 1.238 . S
O291 Co285 2.052 . S
O291 C287 1.241 . S
O292 Co280 2.137 . S
O292 C283 1.247 . S
O293 Co280 2.244 . S
O293 C283 1.272 . S
O293 Co285 2.135 . S
Co294 O295 2.216 . S
Co294 O296 2.091 . S
Co294 O298 2.004 . S
Co294 O304 2.021 . S
Co294 O306 2.137 . S
Co294 O307 2.244 . S
O295 Co294 2.216 . S
O295 C302 1.247 . S
O296 Co294 2.091 . S
O296 C302 1.261 . S
C297 O306 1.247 . S
C297 O307 1.272 . S
O298 Co294 2.004 . S
O298 C303 1.259 . S
Co299 O300 2.061 . S
Co299 O305 2.052 . S
Co299 O307 2.135 . S
O300 Co299 2.061 . S
O300 C303 1.235 . S
C301 O304 1.238 . S
C301 O305 1.241 . S
C302 O295 1.247 . S
C302 O296 1.261 . S
C303 O298 1.259 . S
C303 O300 1.235 . S
O304 Co294 2.021 . S
O304 C301 1.238 . S
O305 Co299 2.052 . S
O305 C301 1.241 . S
O306 Co294 2.137 . S
O306 C297 1.247 . S
O307 Co294 2.244 . S
O307 C297 1.272 . S
O307 Co299 2.135 . S
Co308 O309 2.216 . S
Co308 O310 2.091 . S
Co308 O312 2.004 . S
Co308 O318 2.021 . S
Co308 O320 2.137 . S
Co308 O321 2.244 . S
O309 Co308 2.216 . S
O309 C316 1.247 . S
O310 Co308 2.091 . S
O310 C316 1.261 . S
C311 O320 1.247 . S
C311 O321 1.272 . S
O312 Co308 2.004 . S
O312 C317 1.259 . S
Co313 O314 2.061 . S
Co313 O319 2.052 . S
Co313 O321 2.135 . S
O314 Co313 2.061 . S
O314 C317 1.235 . S
C315 O318 1.238 . S
C315 O319 1.241 . S
C316 O309 1.247 . S
C316 O310 1.261 . S
C317 O312 1.259 . S
C317 O314 1.235 . S
O318 Co308 2.021 . S
O318 C315 1.238 . S
O319 Co313 2.052 . S
O319 C315 1.241 . S
O320 Co308 2.137 . S
O320 C311 1.247 . S
O321 Co308 2.244 . S
O321 C311 1.272 . S
O321 Co313 2.135 . S
Co322 O323 2.216 . S
Co322 O324 2.091 . S
Co322 O326 2.004 . S
Co322 O332 2.021 . S
Co322 O334 2.137 . S
Co322 O335 2.244 . S
O323 Co322 2.216 . S
O323 C330 1.247 . S
O324 Co322 2.091 . S
O324 C330 1.261 . S
C325 O334 1.247 . S
C325 O335 1.272 . S
O326 Co322 2.004 . S
O326 C331 1.259 . S
Co327 O328 2.061 . S
Co327 O333 2.052 . S
Co327 O335 2.135 . S
O328 Co327 2.061 . S
O328 C331 1.235 . S
C329 O332 1.238 . S
C329 O333 1.241 . S
C330 O323 1.247 . S
C330 O324 1.261 . S
C331 O326 1.259 . S
C331 O328 1.235 . S
O332 Co322 2.021 . S
O332 C329 1.238 . S
O333 Co327 2.052 . S
O333 C329 1.241 . S
O334 Co322 2.137 . S
O334 C325 1.247 . S
O335 Co322 2.244 . S
O335 C325 1.272 . S
O335 Co327 2.135 . S
Co336 O337 2.216 . S
Co336 O338 2.091 . S
Co336 O340 2.004 . S
Co336 O346 2.021 . S
Co336 O348 2.137 . S
Co336 O349 2.244 . S
O337 Co336 2.216 . S
O337 C344 1.247 . S
O338 Co336 2.091 . S
O338 C344 1.261 . S
C339 O348 1.247 . S
C339 O349 1.272 . S
O340 Co336 2.004 . S
O340 C345 1.259 . S
Co341 O342 2.061 . S
Co341 O347 2.052 . S
Co341 O349 2.135 . S
O342 Co341 2.061 . S
O342 C345 1.235 . S
C343 O346 1.238 . S
C343 O347 1.241 . S
C344 O337 1.247 . S
C344 O338 1.261 . S
C345 O340 1.259 . S
C345 O342 1.235 . S
O346 Co336 2.021 . S
O346 C343 1.238 . S
O347 Co341 2.052 . S
O347 C343 1.241 . S
O348 Co336 2.137 . S
O348 C339 1.247 . S
O349 Co336 2.244 . S
O349 C339 1.272 . S
O349 Co341 2.135 . S
Co350 O351 2.216 . S
Co350 O352 2.091 . S
Co350 O354 2.004 . S
Co350 O360 2.021 . S
Co350 O362 2.137 . S
Co350 O363 2.244 . S
O351 Co350 2.216 . S
O351 C358 1.247 . S
O352 Co350 2.091 . S
O352 C358 1.261 . S
C353 O362 1.247 . S
C353 O363 1.272 . S
O354 Co350 2.004 . S
O354 C359 1.259 . S
Co355 O356 2.061 . S
Co355 O361 2.052 . S
Co355 O363 2.135 . S
O356 Co355 2.061 . S
O356 C359 1.235 . S
C357 O360 1.238 . S
C357 O361 1.241 . S
C358 O351 1.247 . S
C358 O352 1.261 . S
C359 O354 1.259 . S
C359 O356 1.235 . S
O360 Co350 2.021 . S
O360 C357 1.238 . S
O361 Co355 2.052 . S
O361 C357 1.241 . S
O362 Co350 2.137 . S
O362 C353 1.247 . S
O363 Co350 2.244 . S
O363 C353 1.272 . S
O363 Co355 2.135 . S
Co364 O365 2.216 . S
Co364 O366 2.091 . S
Co364 O368 2.004 1_556 S
Co364 O374 2.021 . S
Co364 O376 2.137 . S
Co364 O377 2.244 . S
O365 Co364 2.216 . S
O365 C372 1.247 . S
O366 Co364 2.091 . S
O366 C372 1.261 . S
C367 O376 1.247 . S
C367 O377 1.272 . S
O368 Co364 2.004 1_554 S
O368 C373 1.259 . S
Co369 O370 2.061 . S
Co369 O375 2.052 1_554 S
Co369 O377 2.135 1_554 S
O370 Co369 2.061 . S
O370 C373 1.235 . S
C371 O374 1.238 . S
C371 O375 1.241 . S
C372 O365 1.247 . S
C372 O366 1.261 . S
C373 O368 1.259 . S
C373 O370 1.235 . S
O374 Co364 2.021 . S
O374 C371 1.238 . S
O375 Co369 2.052 1_556 S
O375 C371 1.241 . S
O376 Co364 2.137 . S
O376 C367 1.247 . S
O377 Co364 2.244 . S
O377 C367 1.272 . S
O377 Co369 2.135 1_556 S
Co378 O379 2.216 . S
Co378 O380 2.091 . S
Co378 O382 2.004 1_556 S
Co378 O388 2.021 . S
Co378 O390 2.137 . S
Co378 O391 2.244 . S
O379 Co378 2.216 . S
O379 C386 1.247 . S
O380 Co378 2.091 . S
O380 C386 1.261 . S
C381 O390 1.247 . S
C381 O391 1.272 . S
O382 Co378 2.004 1_554 S
O382 C387 1.259 . S
Co383 O384 2.061 . S
Co383 O389 2.052 1_554 S
Co383 O391 2.135 1_554 S
O384 Co383 2.061 . S
O384 C387 1.235 . S
C385 O388 1.238 . S
C385 O389 1.241 . S
C386 O379 1.247 . S
C386 O380 1.261 . S
C387 O382 1.259 . S
C387 O384 1.235 . S
O388 Co378 2.021 . S
O388 C385 1.238 . S
O389 Co383 2.052 1_556 S
O389 C385 1.241 . S
O390 Co378 2.137 . S
O390 C381 1.247 . S
O391 Co378 2.244 . S
O391 C381 1.272 . S
O391 Co383 2.135 1_556 S
Co392 O393 2.216 . S
Co392 O394 2.091 . S
Co392 O396 2.004 . S
Co392 O402 2.021 . S
Co392 O404 2.137 . S
Co392 O405 2.244 . S
O393 Co392 2.216 . S
O393 C400 1.247 . S
O394 Co392 2.091 . S
O394 C400 1.261 . S
C395 O404 1.247 . S
C395 O405 1.272 . S
O396 Co392 2.004 . S
O396 C401 1.259 . S
Co397 O398 2.061 . S
Co397 O403 2.052 . S
Co397 O405 2.135 . S
O398 Co397 2.061 . S
O398 C401 1.235 . S
C399 O402 1.238 . S
C399 O403 1.241 . S
C400 O393 1.247 . S
C400 O394 1.261 . S
C401 O396 1.259 . S
C401 O398 1.235 . S
O402 Co392 2.021 . S
O402 C399 1.238 . S
O403 Co397 2.052 . S
O403 C399 1.241 . S
O404 Co392 2.137 . S
O404 C395 1.247 . S
O405 Co392 2.244 . S
O405 C395 1.272 . S
O405 Co397 2.135 . S
Co406 O407 2.216 . S
Co406 O408 2.091 . S
Co406 O410 2.004 . S
Co406 O416 2.021 . S
Co406 O418 2.137 . S
Co406 O419 2.244 . S
O407 Co406 2.216 . S
O407 C414 1.247 . S
O408 Co406 2.091 . S
O408 C414 1.261 . S
C409 O418 1.247 . S
C409 O419 1.272 . S
O410 Co406 2.004 . S
O410 C415 1.259 . S
Co411 O412 2.061 . S
Co411 O417 2.052 . S
Co411 O419 2.135 . S
O412 Co411 2.061 . S
O412 C415 1.235 . S
C413 O416 1.238 . S
C413 O417 1.241 . S
C414 O407 1.247 . S
C414 O408 1.261 . S
C415 O410 1.259 . S
C415 O412 1.235 . S
O416 Co406 2.021 . S
O416 C413 1.238 . S
O417 Co411 2.052 . S
O417 C413 1.241 . S
O418 Co406 2.137 . S
O418 C409 1.247 . S
O419 Co406 2.244 . S
O419 C409 1.272 . S
O419 Co411 2.135 . S
Co420 O421 2.216 . S
Co420 O422 2.091 . S
Co420 O424 2.004 1_554 S
Co420 O430 2.021 . S
Co420 O432 2.137 . S
Co420 O433 2.244 . S
O421 Co420 2.216 . S
O421 C428 1.247 . S
O422 Co420 2.091 . S
O422 C428 1.261 . S
C423 O432 1.247 . S
C423 O433 1.272 . S
O424 Co420 2.004 1_556 S
O424 C429 1.259 . S
Co425 O426 2.061 . S
Co425 O431 2.052 1_556 S
Co425 O433 2.135 1_556 S
O426 Co425 2.061 . S
O426 C429 1.235 . S
C427 O430 1.238 . S
C427 O431 1.241 . S
C428 O421 1.247 . S
C428 O422 1.261 . S
C429 O424 1.259 . S
C429 O426 1.235 . S
O430 Co420 2.021 . S
O430 C427 1.238 . S
O431 Co425 2.052 1_554 S
O431 C427 1.241 . S
O432 Co420 2.137 . S
O432 C423 1.247 . S
O433 Co420 2.244 . S
O433 C423 1.272 . S
O433 Co425 2.135 1_554 S
Co434 O435 2.216 . S
Co434 O436 2.091 . S
Co434 O438 2.004 1_554 S
Co434 O444 2.021 . S
Co434 O446 2.137 . S
Co434 O447 2.244 . S
O435 Co434 2.216 . S
O435 C442 1.247 . S
O436 Co434 2.091 . S
O436 C442 1.261 . S
C437 O446 1.247 . S
C437 O447 1.272 . S
O438 Co434 2.004 1_556 S
O438 C443 1.259 . S
Co439 O440 2.061 . S
Co439 O445 2.052 1_556 S
Co439 O447 2.135 1_556 S
O440 Co439 2.061 . S
O440 C443 1.235 . S
C441 O444 1.238 . S
C441 O445 1.241 . S
C442 O435 1.247 . S
C442 O436 1.261 . S
C443 O438 1.259 . S
C443 O440 1.235 . S
O444 Co434 2.021 . S
O444 C441 1.238 . S
O445 Co439 2.052 1_554 S
O445 C441 1.241 . S
O446 Co434 2.137 . S
O446 C437 1.247 . S
O447 Co434 2.244 . S
O447 C437 1.272 . S
O447 Co439 2.135 1_554 S
C448 C449 1.349 . S
C448 C450 1.327 . S
C448 H473 0.950 . S
C449 C448 1.349 . S
C449 C465 1.349 . S
C450 C448 1.327 . S
C450 C469 1.429 . S
C450 H474 0.950 . S
C451 C468 1.574 . S
C451 C470 1.368 . S
C451 H475 0.949 . S
H452 C456 0.949 . S
C453 C454 1.349 . S
C453 C455 1.327 . S
C453 H476 0.950 . S
C454 C453 1.349 . S
C454 C466 1.349 . S
C455 C453 1.327 . S
C455 C471 1.429 . S
C455 H477 0.950 . S
C456 H452 0.949 . S
C456 C464 1.574 . S
C456 C472 1.368 . S
H457 C465 0.950 . S
H458 C463 0.950 . S
H459 C464 0.949 . S
H460 C466 0.950 . S
H461 C467 0.950 . S
H462 C468 0.949 . S
C463 H458 0.950 . S
C463 C465 1.327 . S
C463 C469 1.429 . S
C464 C456 1.574 . S
C464 H459 0.949 . S
C464 C470 1.368 . S
C465 C449 1.349 . S
C465 H457 0.950 . S
C465 C463 1.327 . S
C466 C454 1.349 . S
C466 H460 0.950 . S
C466 C467 1.327 . S
C467 H461 0.950 . S
C467 C466 1.327 . S
C467 C471 1.429 . S
C468 C451 1.574 . S
C468 H462 0.949 . S
C468 C472 1.368 . S
C469 C450 1.429 . S
C469 C463 1.429 . S
C469 C470 1.523 . S
C470 C451 1.368 . S
C470 C464 1.368 . S
C470 C469 1.523 . S
C471 C455 1.429 . S
C471 C467 1.429 . S
C471 C472 1.523 . S
C472 C456 1.368 . S
C472 C468 1.368 . S
C472 C471 1.523 . S
H473 C448 0.950 . S
H474 C450 0.950 . S
H475 C451 0.949 . S
H476 C453 0.950 . S
H477 C455 0.950 . S
C478 C479 1.349 . S
C478 C480 1.327 . S
C478 H503 0.950 . S
C479 C478 1.349 . S
C479 C495 1.349 . S
C480 C478 1.327 . S
C480 C499 1.429 . S
C480 H504 0.950 . S
C481 C498 1.574 . S
C481 C500 1.368 . S
C481 H505 0.949 . S
H482 C486 0.949 . S
C483 C484 1.349 . S
C483 C485 1.327 . S
C483 H506 0.950 . S
C484 C483 1.349 . S
C484 C496 1.349 . S
C485 C483 1.327 . S
C485 C501 1.429 . S
C485 H507 0.950 . S
C486 H482 0.949 . S
C486 C494 1.574 . S
C486 C502 1.368 . S
H487 C495 0.950 . S
H488 C493 0.950 . S
H489 C494 0.949 . S
H490 C496 0.950 . S
H491 C497 0.950 . S
H492 C498 0.949 . S
C493 H488 0.950 . S
C493 C495 1.327 . S
C493 C499 1.429 . S
C494 C486 1.574 . S
C494 H489 0.949 . S
C494 C500 1.368 . S
C495 C479 1.349 . S
C495 H487 0.950 . S
C495 C493 1.327 . S
C496 C484 1.349 . S
C496 H490 0.950 . S
C496 C497 1.327 . S
C497 H491 0.950 . S
C497 C496 1.327 . S
C497 C501 1.429 . S
C498 C481 1.574 . S
C498 H492 0.949 . S
C498 C502 1.368 . S
C499 C480 1.429 . S
C499 C493 1.429 . S
C499 C500 1.523 . S
C500 C481 1.368 . S
C500 C494 1.368 . S
C500 C499 1.523 . S
C501 C485 1.429 . S
C501 C497 1.429 . S
C501 C502 1.523 . S
C502 C486 1.368 . S
C502 C498 1.368 . S
C502 C501 1.523 . S
H503 C478 0.950 . S
H504 C480 0.950 . S
H505 C481 0.949 . S
H506 C483 0.950 . S
H507 C485 0.950 . S
C508 C509 1.349 . S
C508 C510 1.327 . S
C508 H533 0.950 . S
C509 C508 1.349 . S
C509 C525 1.349 . S
C510 C508 1.327 . S
C510 C529 1.429 . S
C510 H534 0.950 . S
C511 C528 1.574 . S
C511 C530 1.368 . S
C511 H535 0.949 . S
H512 C516 0.949 . S
C513 C514 1.349 . S
C513 C515 1.327 . S
C513 H536 0.950 . S
C514 C513 1.349 . S
C514 C526 1.349 . S
C515 C513 1.327 . S
C515 C531 1.429 . S
C515 H537 0.950 . S
C516 H512 0.949 . S
C516 C524 1.574 . S
C516 C532 1.368 . S
H517 C525 0.950 . S
H518 C523 0.950 . S
H519 C524 0.949 . S
H520 C526 0.950 . S
H521 C527 0.950 . S
H522 C528 0.949 . S
C523 H518 0.950 . S
C523 C525 1.327 . S
C523 C529 1.429 . S
C524 C516 1.574 . S
C524 H519 0.949 . S
C524 C530 1.368 . S
C525 C509 1.349 . S
C525 H517 0.950 . S
C525 C523 1.327 . S
C526 C514 1.349 . S
C526 H520 0.950 . S
C526 C527 1.327 . S
C527 H521 0.950 . S
C527 C526 1.327 . S
C527 C531 1.429 . S
C528 C511 1.574 . S
C528 H522 0.949 . S
C528 C532 1.368 . S
C529 C510 1.429 . S
C529 C523 1.429 . S
C529 C530 1.523 . S
C530 C511 1.368 . S
C530 C524 1.368 . S
C530 C529 1.523 . S
C531 C515 1.429 . S
C531 C527 1.429 . S
C531 C532 1.523 . S
C532 C516 1.368 . S
C532 C528 1.368 . S
C532 C531 1.523 . S
H533 C508 0.950 . S
H534 C510 0.950 . S
H535 C511 0.949 . S
H536 C513 0.950 . S
H537 C515 0.950 . S
C538 C539 1.349 . S
C538 C540 1.327 . S
C538 H563 0.950 . S
C539 C538 1.349 . S
C539 C555 1.349 . S
C540 C538 1.327 . S
C540 C559 1.429 . S
C540 H564 0.950 . S
C541 C558 1.574 . S
C541 C560 1.368 . S
C541 H565 0.949 . S
H542 C546 0.949 . S
C543 C544 1.349 . S
C543 C545 1.327 . S
C543 H566 0.950 . S
C544 C543 1.349 . S
C544 C556 1.349 . S
C545 C543 1.327 . S
C545 C561 1.429 . S
C545 H567 0.950 . S
C546 H542 0.949 . S
C546 C554 1.574 . S
C546 C562 1.368 . S
H547 C555 0.950 . S
H548 C553 0.950 . S
H549 C554 0.949 . S
H550 C556 0.950 . S
H551 C557 0.950 . S
H552 C558 0.949 . S
C553 H548 0.950 . S
C553 C555 1.327 . S
C553 C559 1.429 . S
C554 C546 1.574 . S
C554 H549 0.949 . S
C554 C560 1.368 . S
C555 C539 1.349 . S
C555 H547 0.950 . S
C555 C553 1.327 . S
C556 C544 1.349 . S
C556 H550 0.950 . S
C556 C557 1.327 . S
C557 H551 0.950 . S
C557 C556 1.327 . S
C557 C561 1.429 . S
C558 C541 1.574 . S
C558 H552 0.949 . S
C558 C562 1.368 . S
C559 C540 1.429 . S
C559 C553 1.429 . S
C559 C560 1.523 . S
C560 C541 1.368 . S
C560 C554 1.368 . S
C560 C559 1.523 . S
C561 C545 1.429 . S
C561 C557 1.429 . S
C561 C562 1.523 . S
C562 C546 1.368 . S
C562 C558 1.368 . S
C562 C561 1.523 . S
H563 C538 0.950 . S
H564 C540 0.950 . S
H565 C541 0.949 . S
H566 C543 0.950 . S
H567 C545 0.950 . S
C568 C569 1.349 . S
C568 C570 1.327 . S
C568 H593 0.950 . S
C569 C568 1.349 . S
C569 C585 1.349 . S
C570 C568 1.327 . S
C570 C589 1.429 . S
C570 H594 0.950 . S
C571 C588 1.574 . S
C571 C590 1.368 . S
C571 H595 0.949 . S
H572 C576 0.949 . S
C573 C574 1.349 . S
C573 C575 1.327 . S
C573 H596 0.950 . S
C574 C573 1.349 . S
C574 C586 1.349 . S
C575 C573 1.327 . S
C575 C591 1.429 . S
C575 H597 0.950 . S
C576 H572 0.949 . S
C576 C584 1.574 . S
C576 C592 1.368 . S
H577 C585 0.950 . S
H578 C583 0.950 . S
H579 C584 0.949 . S
H580 C586 0.950 . S
H581 C587 0.950 . S
H582 C588 0.949 . S
C583 H578 0.950 . S
C583 C585 1.327 . S
C583 C589 1.429 . S
C584 C576 1.574 . S
C584 H579 0.949 . S
C584 C590 1.368 . S
C585 C569 1.349 . S
C585 H577 0.950 . S
C585 C583 1.327 . S
C586 C574 1.349 . S
C586 H580 0.950 . S
C586 C587 1.327 . S
C587 H581 0.950 . S
C587 C586 1.327 . S
C587 C591 1.429 . S
C588 C571 1.574 . S
C588 H582 0.949 . S
C588 C592 1.368 . S
C589 C570 1.429 . S
C589 C583 1.429 . S
C589 C590 1.523 . S
C590 C571 1.368 . S
C590 C584 1.368 . S
C590 C589 1.523 . S
C591 C575 1.429 . S
C591 C587 1.429 . S
C591 C592 1.523 . S
C592 C576 1.368 . S
C592 C588 1.368 . S
C592 C591 1.523 . S
H593 C568 0.950 . S
H594 C570 0.950 . S
H595 C571 0.949 . S
H596 C573 0.950 . S
H597 C575 0.950 . S
C598 C599 1.349 . S
C598 C600 1.327 . S
C598 H623 0.950 . S
C599 C598 1.349 . S
C599 C615 1.349 . S
C600 C598 1.327 . S
C600 C619 1.429 . S
C600 H624 0.950 . S
C601 C618 1.574 . S
C601 C620 1.368 . S
C601 H625 0.949 . S
H602 C606 0.949 . S
C603 C604 1.349 . S
C603 C605 1.327 . S
C603 H626 0.950 . S
C604 C603 1.349 . S
C604 C616 1.349 . S
C605 C603 1.327 . S
C605 C621 1.429 . S
C605 H627 0.950 . S
C606 H602 0.949 . S
C606 C614 1.574 . S
C606 C622 1.368 . S
H607 C615 0.950 . S
H608 C613 0.950 . S
H609 C614 0.949 . S
H610 C616 0.950 . S
H611 C617 0.950 . S
H612 C618 0.949 . S
C613 H608 0.950 . S
C613 C615 1.327 . S
C613 C619 1.429 . S
C614 C606 1.574 . S
C614 H609 0.949 . S
C614 C620 1.368 . S
C615 C599 1.349 . S
C615 H607 0.950 . S
C615 C613 1.327 . S
C616 C604 1.349 . S
C616 H610 0.950 . S
C616 C617 1.327 . S
C617 H611 0.950 . S
C617 C616 1.327 . S
C617 C621 1.429 . S
C618 C601 1.574 . S
C618 H612 0.949 . S
C618 C622 1.368 . S
C619 C600 1.429 . S
C619 C613 1.429 . S
C619 C620 1.523 . S
C620 C601 1.368 . S
C620 C614 1.368 . S
C620 C619 1.523 . S
C621 C605 1.429 . S
C621 C617 1.429 . S
C621 C622 1.523 . S
C622 C606 1.368 . S
C622 C618 1.368 . S
C622 C621 1.523 . S
H623 C598 0.950 . S
H624 C600 0.950 . S
H625 C601 0.949 . S
H626 C603 0.950 . S
H627 C605 0.950 . S
C628 C629 1.349 . S
C628 C630 1.327 . S
C628 H653 0.950 . S
C629 C628 1.349 . S
C629 C645 1.349 . S
C630 C628 1.327 . S
C630 C649 1.429 . S
C630 H654 0.950 . S
C631 C648 1.574 . S
C631 C650 1.368 . S
C631 H655 0.949 . S
H632 C636 0.949 . S
C633 C634 1.349 . S
C633 C635 1.327 . S
C633 H656 0.950 . S
C634 C633 1.349 . S
C634 C646 1.349 . S
C635 C633 1.327 . S
C635 C651 1.429 . S
C635 H657 0.950 . S
C636 H632 0.949 . S
C636 C644 1.574 . S
C636 C652 1.368 . S
H637 C645 0.950 . S
H638 C643 0.950 . S
H639 C644 0.949 . S
H640 C646 0.950 . S
H641 C647 0.950 . S
H642 C648 0.949 . S
C643 H638 0.950 . S
C643 C645 1.327 . S
C643 C649 1.429 . S
C644 C636 1.574 . S
C644 H639 0.949 . S
C644 C650 1.368 . S
C645 C629 1.349 . S
C645 H637 0.950 . S
C645 C643 1.327 . S
C646 C634 1.349 . S
C646 H640 0.950 . S
C646 C647 1.327 . S
C647 H641 0.950 . S
C647 C646 1.327 . S
C647 C651 1.429 . S
C648 C631 1.574 . S
C648 H642 0.949 . S
C648 C652 1.368 . S
C649 C630 1.429 . S
C649 C643 1.429 . S
C649 C650 1.523 . S
C650 C631 1.368 . S
C650 C644 1.368 . S
C650 C649 1.523 . S
C651 C635 1.429 . S
C651 C647 1.429 . S
C651 C652 1.523 . S
C652 C636 1.368 . S
C652 C648 1.368 . S
C652 C651 1.523 . S
H653 C628 0.950 . S
H654 C630 0.950 . S
H655 C631 0.949 . S
H656 C633 0.950 . S
H657 C635 0.950 . S
C658 C659 1.349 . S
C658 C660 1.327 . S
C658 H683 0.950 . S
C659 C658 1.349 . S
C659 C675 1.349 . S
C660 C658 1.327 . S
C660 C679 1.429 . S
C660 H684 0.950 . S
C661 C678 1.574 . S
C661 C680 1.368 . S
C661 H685 0.949 . S
H662 C666 0.949 . S
C663 C664 1.349 . S
C663 C665 1.327 . S
C663 H686 0.950 . S
C664 C663 1.349 . S
C664 C676 1.349 . S
C665 C663 1.327 . S
C665 C681 1.429 . S
C665 H687 0.950 . S
C666 H662 0.949 . S
C666 C674 1.574 . S
C666 C682 1.368 . S
H667 C675 0.950 . S
H668 C673 0.950 . S
H669 C674 0.949 . S
H670 C676 0.950 . S
H671 C677 0.950 . S
H672 C678 0.949 . S
C673 H668 0.950 . S
C673 C675 1.327 . S
C673 C679 1.429 . S
C674 C666 1.574 . S
C674 H669 0.949 . S
C674 C680 1.368 . S
C675 C659 1.349 . S
C675 H667 0.950 . S
C675 C673 1.327 . S
C676 C664 1.349 . S
C676 H670 0.950 . S
C676 C677 1.327 . S
C677 H671 0.950 . S
C677 C676 1.327 . S
C677 C681 1.429 . S
C678 C661 1.574 . S
C678 H672 0.949 . S
C678 C682 1.368 . S
C679 C660 1.429 . S
C679 C673 1.429 . S
C679 C680 1.523 . S
C680 C661 1.368 . S
C680 C674 1.368 . S
C680 C679 1.523 . S
C681 C665 1.429 . S
C681 C677 1.429 . S
C681 C682 1.523 . S
C682 C666 1.368 . S
C682 C678 1.368 . S
C682 C681 1.523 . S
H683 C658 0.950 . S
H684 C660 0.950 . S
H685 C661 0.949 . S
H686 C663 0.950 . S
H687 C665 0.950 . S
C688 C689 1.349 . S
C688 C690 1.327 . S
C688 H713 0.950 . S
C689 C688 1.349 . S
C689 C705 1.349 . S
C690 C688 1.327 . S
C690 C709 1.429 . S
C690 H714 0.950 . S
C691 C708 1.574 . S
C691 C710 1.368 . S
C691 H715 0.949 . S
H692 C696 0.949 . S
C693 C694 1.349 . S
C693 C695 1.327 . S
C693 H716 0.950 . S
C694 C693 1.349 . S
C694 C706 1.349 . S
C695 C693 1.327 . S
C695 C711 1.429 . S
C695 H717 0.950 . S
C696 H692 0.949 . S
C696 C704 1.574 . S
C696 C712 1.368 . S
H697 C705 0.950 . S
H698 C703 0.950 . S
H699 C704 0.949 . S
H700 C706 0.950 . S
H701 C707 0.950 . S
H702 C708 0.949 . S
C703 H698 0.950 . S
C703 C705 1.327 . S
C703 C709 1.429 . S
C704 C696 1.574 . S
C704 H699 0.949 . S
C704 C710 1.368 . S
C705 C689 1.349 . S
C705 H697 0.950 . S
C705 C703 1.327 . S
C706 C694 1.349 . S
C706 H700 0.950 . S
C706 C707 1.327 . S
C707 H701 0.950 . S
C707 C706 1.327 . S
C707 C711 1.429 . S
C708 C691 1.574 . S
C708 H702 0.949 . S
C708 C712 1.368 . S
C709 C690 1.429 . S
C709 C703 1.429 . S
C709 C710 1.523 . S
C710 C691 1.368 . S
C710 C704 1.368 . S
C710 C709 1.523 . S
C711 C695 1.429 . S
C711 C707 1.429 . S
C711 C712 1.523 . S
C712 C696 1.368 . S
C712 C708 1.368 . S
C712 C711 1.523 . S
H713 C688 0.950 . S
H714 C690 0.950 . S
H715 C691 0.949 . S
H716 C693 0.950 . S
H717 C695 0.950 . S
C718 C719 1.349 . S
C718 C720 1.327 . S
C718 H743 0.950 . S
C719 C718 1.349 . S
C719 C735 1.349 . S
C720 C718 1.327 . S
C720 C739 1.429 . S
C720 H744 0.950 . S
C721 C738 1.574 . S
C721 C740 1.368 . S
C721 H745 0.949 . S
H722 C726 0.949 . S
C723 C724 1.349 . S
C723 C725 1.327 . S
C723 H746 0.950 . S
C724 C723 1.349 . S
C724 C736 1.349 . S
C725 C723 1.327 . S
C725 C741 1.429 . S
C725 H747 0.950 . S
C726 H722 0.949 . S
C726 C734 1.574 . S
C726 C742 1.368 . S
H727 C735 0.950 . S
H728 C733 0.950 . S
H729 C734 0.949 . S
H730 C736 0.950 . S
H731 C737 0.950 . S
H732 C738 0.949 . S
C733 H728 0.950 . S
C733 C735 1.327 . S
C733 C739 1.429 . S
C734 C726 1.574 . S
C734 H729 0.949 . S
C734 C740 1.368 . S
C735 C719 1.349 . S
C735 H727 0.950 . S
C735 C733 1.327 . S
C736 C724 1.349 . S
C736 H730 0.950 . S
C736 C737 1.327 . S
C737 H731 0.950 . S
C737 C736 1.327 . S
C737 C741 1.429 . S
C738 C721 1.574 . S
C738 H732 0.949 . S
C738 C742 1.368 . S
C739 C720 1.429 . S
C739 C733 1.429 . S
C739 C740 1.523 . S
C740 C721 1.368 . S
C740 C734 1.368 . S
C740 C739 1.523 . S
C741 C725 1.429 . S
C741 C737 1.429 . S
C741 C742 1.523 . S
C742 C726 1.368 . S
C742 C738 1.368 . S
C742 C741 1.523 . S
H743 C718 0.950 . S
H744 C720 0.950 . S
H745 C721 0.949 . S
H746 C723 0.950 . S
H747 C725 0.950 . S
C748 C749 1.349 . S
C748 C750 1.327 . S
C748 H773 0.950 . S
C749 C748 1.349 . S
C749 C765 1.349 . S
C750 C748 1.327 . S
C750 C769 1.429 . S
C750 H774 0.950 . S
C751 C768 1.574 . S
C751 C770 1.368 . S
C751 H775 0.949 . S
H752 C756 0.949 . S
C753 C754 1.349 . S
C753 C755 1.327 . S
C753 H776 0.950 . S
C754 C753 1.349 . S
C754 C766 1.349 . S
C755 C753 1.327 . S
C755 C771 1.429 . S
C755 H777 0.950 . S
C756 H752 0.949 . S
C756 C764 1.574 . S
C756 C772 1.368 . S
H757 C765 0.950 . S
H758 C763 0.950 . S
H759 C764 0.949 . S
H760 C766 0.950 . S
H761 C767 0.950 . S
H762 C768 0.949 . S
C763 H758 0.950 . S
C763 C765 1.327 . S
C763 C769 1.429 . S
C764 C756 1.574 . S
C764 H759 0.949 . S
C764 C770 1.368 . S
C765 C749 1.349 . S
C765 H757 0.950 . S
C765 C763 1.327 . S
C766 C754 1.349 . S
C766 H760 0.950 . S
C766 C767 1.327 . S
C767 H761 0.950 . S
C767 C766 1.327 . S
C767 C771 1.429 . S
C768 C751 1.574 . S
C768 H762 0.949 . S
C768 C772 1.368 . S
C769 C750 1.429 . S
C769 C763 1.429 . S
C769 C770 1.523 . S
C770 C751 1.368 . S
C770 C764 1.368 . S
C770 C769 1.523 . S
C771 C755 1.429 . S
C771 C767 1.429 . S
C771 C772 1.523 . S
C772 C756 1.368 . S
C772 C768 1.368 . S
C772 C771 1.523 . S
H773 C748 0.950 . S
H774 C750 0.950 . S
H775 C751 0.949 . S
H776 C753 0.950 . S
H777 C755 0.950 . S
C778 C779 1.349 . S
C778 C780 1.327 . S
C778 H803 0.950 . S
C779 C778 1.349 . S
C779 C795 1.349 . S
C780 C778 1.327 . S
C780 C799 1.429 . S
C780 H804 0.950 . S
C781 C798 1.574 . S
C781 C800 1.368 . S
C781 H805 0.949 . S
H782 C786 0.949 . S
C783 C784 1.349 . S
C783 C785 1.327 . S
C783 H806 0.950 . S
C784 C783 1.349 . S
C784 C796 1.349 . S
C785 C783 1.327 . S
C785 C801 1.429 . S
C785 H807 0.950 . S
C786 H782 0.949 . S
C786 C794 1.574 . S
C786 C802 1.368 . S
H787 C795 0.950 . S
H788 C793 0.950 . S
H789 C794 0.949 . S
H790 C796 0.950 . S
H791 C797 0.950 . S
H792 C798 0.949 . S
C793 H788 0.950 . S
C793 C795 1.327 . S
C793 C799 1.429 . S
C794 C786 1.574 . S
C794 H789 0.949 . S
C794 C800 1.368 . S
C795 C779 1.349 . S
C795 H787 0.950 . S
C795 C793 1.327 . S
C796 C784 1.349 . S
C796 H790 0.950 . S
C796 C797 1.327 . S
C797 H791 0.950 . S
C797 C796 1.327 . S
C797 C801 1.429 . S
C798 C781 1.574 . S
C798 H792 0.949 . S
C798 C802 1.368 . S
C799 C780 1.429 . S
C799 C793 1.429 . S
C799 C800 1.523 . S
C800 C781 1.368 . S
C800 C794 1.368 . S
C800 C799 1.523 . S
C801 C785 1.429 . S
C801 C797 1.429 . S
C801 C802 1.523 . S
C802 C786 1.368 . S
C802 C798 1.368 . S
C802 C801 1.523 . S
H803 C778 0.950 . S
H804 C780 0.950 . S
H805 C781 0.949 . S
H806 C783 0.950 . S
H807 C785 0.950 . S
C808 C809 1.349 . S
C808 C810 1.327 . S
C808 H833 0.950 . S
C809 C808 1.349 . S
C809 C825 1.349 . S
C810 C808 1.327 . S
C810 C829 1.429 . S
C810 H834 0.950 . S
C811 C828 1.574 . S
C811 C830 1.368 . S
C811 H835 0.949 . S
H812 C816 0.949 . S
C813 C814 1.349 . S
C813 C815 1.327 . S
C813 H836 0.950 . S
C814 C813 1.349 . S
C814 C826 1.349 . S
C815 C813 1.327 . S
C815 C831 1.429 . S
C815 H837 0.950 . S
C816 H812 0.949 . S
C816 C824 1.574 . S
C816 C832 1.368 . S
H817 C825 0.950 . S
H818 C823 0.950 . S
H819 C824 0.949 . S
H820 C826 0.950 . S
H821 C827 0.950 . S
H822 C828 0.949 . S
C823 H818 0.950 . S
C823 C825 1.327 . S
C823 C829 1.429 . S
C824 C816 1.574 . S
C824 H819 0.949 . S
C824 C830 1.368 . S
C825 C809 1.349 . S
C825 H817 0.950 . S
C825 C823 1.327 . S
C826 C814 1.349 . S
C826 H820 0.950 . S
C826 C827 1.327 . S
C827 H821 0.950 . S
C827 C826 1.327 . S
C827 C831 1.429 . S
C828 C811 1.574 . S
C828 H822 0.949 . S
C828 C832 1.368 . S
C829 C810 1.429 . S
C829 C823 1.429 . S
C829 C830 1.523 . S
C830 C811 1.368 . S
C830 C824 1.368 . S
C830 C829 1.523 . S
C831 C815 1.429 . S
C831 C827 1.429 . S
C831 C832 1.523 . S
C832 C816 1.368 . S
C832 C828 1.368 . S
C832 C831 1.523 . S
H833 C808 0.950 . S
H834 C810 0.950 . S
H835 C811 0.949 . S
H836 C813 0.950 . S
H837 C815 0.950 . S
C838 C839 1.349 . S
C838 C840 1.327 . S
C838 H863 0.950 . S
C839 C838 1.349 . S
C839 C855 1.349 . S
C840 C838 1.327 . S
C840 C859 1.429 . S
C840 H864 0.950 . S
C841 C858 1.574 . S
C841 C860 1.368 . S
C841 H865 0.949 . S
H842 C846 0.949 . S
C843 C844 1.349 . S
C843 C845 1.327 . S
C843 H866 0.950 . S
C844 C843 1.349 . S
C844 C856 1.349 . S
C845 C843 1.327 . S
C845 C861 1.429 . S
C845 H867 0.950 . S
C846 H842 0.949 . S
C846 C854 1.574 . S
C846 C862 1.368 . S
H847 C855 0.950 . S
H848 C853 0.950 . S
H849 C854 0.949 . S
H850 C856 0.950 . S
H851 C857 0.950 . S
H852 C858 0.949 . S
C853 H848 0.950 . S
C853 C855 1.327 . S
C853 C859 1.429 . S
C854 C846 1.574 . S
C854 H849 0.949 . S
C854 C860 1.368 . S
C855 C839 1.349 . S
C855 H847 0.950 . S
C855 C853 1.327 . S
C856 C844 1.349 . S
C856 H850 0.950 . S
C856 C857 1.327 . S
C857 H851 0.950 . S
C857 C856 1.327 . S
C857 C861 1.429 . S
C858 C841 1.574 . S
C858 H852 0.949 . S
C858 C862 1.368 . S
C859 C840 1.429 . S
C859 C853 1.429 . S
C859 C860 1.523 . S
C860 C841 1.368 . S
C860 C854 1.368 . S
C860 C859 1.523 . S
C861 C845 1.429 . S
C861 C857 1.429 . S
C861 C862 1.523 . S
C862 C846 1.368 . S
C862 C858 1.368 . S
C862 C861 1.523 . S
H863 C838 0.950 . S
H864 C840 0.950 . S
H865 C841 0.949 . S
H866 C843 0.950 . S
H867 C845 0.950 . S
C868 C869 1.349 . S
C868 C870 1.327 . S
C868 H893 0.950 . S
C869 C868 1.349 . S
C869 C885 1.349 . S
C870 C868 1.327 . S
C870 C889 1.429 . S
C870 H894 0.950 . S
C871 C888 1.574 . S
C871 C890 1.368 . S
C871 H895 0.949 . S
H872 C876 0.949 . S
C873 C874 1.349 . S
C873 C875 1.327 . S
C873 H896 0.950 . S
C874 C873 1.349 . S
C874 C886 1.349 . S
C875 C873 1.327 . S
C875 C891 1.429 . S
C875 H897 0.950 . S
C876 H872 0.949 . S
C876 C884 1.574 . S
C876 C892 1.368 . S
H877 C885 0.950 . S
H878 C883 0.950 . S
H879 C884 0.949 . S
H880 C886 0.950 . S
H881 C887 0.950 . S
H882 C888 0.949 . S
C883 H878 0.950 . S
C883 C885 1.327 . S
C883 C889 1.429 . S
C884 C876 1.574 . S
C884 H879 0.949 . S
C884 C890 1.368 . S
C885 C869 1.349 . S
C885 H877 0.950 . S
C885 C883 1.327 . S
C886 C874 1.349 . S
C886 H880 0.950 . S
C886 C887 1.327 . S
C887 H881 0.950 . S
C887 C886 1.327 . S
C887 C891 1.429 . S
C888 C871 1.574 . S
C888 H882 0.949 . S
C888 C892 1.368 . S
C889 C870 1.429 . S
C889 C883 1.429 . S
C889 C890 1.523 . S
C890 C871 1.368 . S
C890 C884 1.368 . S
C890 C889 1.523 . S
C891 C875 1.429 . S
C891 C887 1.429 . S
C891 C892 1.523 . S
C892 C876 1.368 . S
C892 C888 1.368 . S
C892 C891 1.523 . S
H893 C868 0.950 . S
H894 C870 0.950 . S
H895 C871 0.949 . S
H896 C873 0.950 . S
H897 C875 0.950 . S
C898 C899 1.349 . S
C898 C900 1.327 . S
C898 H923 0.950 . S
C899 C898 1.349 . S
C899 C915 1.349 . S
C900 C898 1.327 . S
C900 C919 1.429 . S
C900 H924 0.950 . S
C901 C918 1.574 . S
C901 C920 1.368 . S
C901 H925 0.949 . S
H902 C906 0.949 . S
C903 C904 1.349 . S
C903 C905 1.327 . S
C903 H926 0.950 . S
C904 C903 1.349 . S
C904 C916 1.349 . S
C905 C903 1.327 . S
C905 C921 1.429 . S
C905 H927 0.950 . S
C906 H902 0.949 . S
C906 C914 1.574 . S
C906 C922 1.368 . S
H907 C915 0.950 . S
H908 C913 0.950 . S
H909 C914 0.949 . S
H910 C916 0.950 . S
H911 C917 0.950 . S
H912 C918 0.949 . S
C913 H908 0.950 . S
C913 C915 1.327 . S
C913 C919 1.429 . S
C914 C906 1.574 . S
C914 H909 0.949 . S
C914 C920 1.368 . S
C915 C899 1.349 . S
C915 H907 0.950 . S
C915 C913 1.327 . S
C916 C904 1.349 . S
C916 H910 0.950 . S
C916 C917 1.327 . S
C917 H911 0.950 . S
C917 C916 1.327 . S
C917 C921 1.429 . S
C918 C901 1.574 . S
C918 H912 0.949 . S
C918 C922 1.368 . S
C919 C900 1.429 . S
C919 C913 1.429 . S
C919 C920 1.523 . S
C920 C901 1.368 . S
C920 C914 1.368 . S
C920 C919 1.523 . S
C921 C905 1.429 . S
C921 C917 1.429 . S
C921 C922 1.523 . S
C922 C906 1.368 . S
C922 C918 1.368 . S
C922 C921 1.523 . S
H923 C898 0.950 . S
H924 C900 0.950 . S
H925 C901 0.949 . S
H926 C903 0.950 . S
H927 C905 0.950 . S
C928 C929 1.349 . S
C928 C930 1.327 . S
C928 H953 0.950 . S
C929 C928 1.349 . S
C929 C945 1.349 . S
C930 C928 1.327 . S
C930 C949 1.429 . S
C930 H954 0.950 . S
C931 C948 1.574 1_565 S
C931 C950 1.368 . S
C931 H955 0.949 . S
H932 C936 0.949 . S
C933 C934 1.349 . S
C933 C935 1.327 . S
C933 H956 0.950 . S
C934 C933 1.349 . S
C934 C946 1.349 . S
C935 C933 1.327 . S
C935 C951 1.429 . S
C935 H957 0.950 . S
C936 H932 0.949 . S
C936 C944 1.574 1_545 S
C936 C952 1.368 . S
H937 C945 0.950 . S
H938 C943 0.950 . S
H939 C944 0.949 . S
H940 C946 0.950 . S
H941 C947 0.950 . S
H942 C948 0.949 . S
C943 H938 0.950 . S
C943 C945 1.327 . S
C943 C949 1.429 . S
C944 C936 1.574 1_565 S
C944 H939 0.949 . S
C944 C950 1.368 . S
C945 C929 1.349 . S
C945 H937 0.950 . S
C945 C943 1.327 . S
C946 C934 1.349 . S
C946 H940 0.950 . S
C946 C947 1.327 . S
C947 H941 0.950 . S
C947 C946 1.327 . S
C947 C951 1.429 . S
C948 C931 1.574 1_545 S
C948 H942 0.949 . S
C948 C952 1.368 . S
C949 C930 1.429 . S
C949 C943 1.429 . S
C949 C950 1.523 . S
C950 C931 1.368 . S
C950 C944 1.368 . S
C950 C949 1.523 . S
C951 C935 1.429 . S
C951 C947 1.429 . S
C951 C952 1.523 . S
C952 C936 1.368 . S
C952 C948 1.368 . S
C952 C951 1.523 . S
H953 C928 0.950 . S
H954 C930 0.950 . S
H955 C931 0.949 . S
H956 C933 0.950 . S
H957 C935 0.950 . S
C958 C959 1.349 . S
C958 C960 1.327 . S
C958 H983 0.950 . S
C959 C958 1.349 . S
C959 C975 1.349 . S
C960 C958 1.327 . S
C960 C979 1.429 . S
C960 H984 0.950 . S
C961 C978 1.574 . S
C961 C980 1.368 1_455 S
C961 H985 0.949 . S
H962 C966 0.949 . S
C963 C964 1.349 . S
C963 C965 1.327 . S
C963 H986 0.950 . S
C964 C963 1.349 . S
C964 C976 1.349 . S
C965 C963 1.327 . S
C965 C981 1.429 . S
C965 H987 0.950 . S
C966 H962 0.949 . S
C966 C974 1.574 . S
C966 C982 1.368 1_655 S
H967 C975 0.950 . S
H968 C973 0.949 1_455 S
H969 C974 0.949 . S
H970 C976 0.950 . S
H971 C977 0.941 1_655 S
H972 C978 0.949 . S
C973 H968 0.949 1_655 S
C973 C975 1.327 . S
C973 C979 1.429 . S
C974 C966 1.574 . S
C974 H969 0.949 . S
C974 C980 1.368 . S
C975 C959 1.349 . S
C975 H967 0.950 . S
C975 C973 1.327 . S
C976 C964 1.349 . S
C976 H970 0.950 . S
C976 C977 1.327 . S
C977 H971 0.941 1_455 S
C977 C976 1.327 . S
C977 C981 1.429 . S
C978 C961 1.574 . S
C978 H972 0.949 . S
C978 C982 1.368 . S
C979 C960 1.429 . S
C979 C973 1.429 . S
C979 C980 1.523 . S
C980 C961 1.368 1_655 S
C980 C974 1.368 . S
C980 C979 1.523 . S
C981 C965 1.429 . S
C981 C977 1.429 . S
C981 C982 1.523 . S
C982 C966 1.368 1_455 S
C982 C978 1.368 . S
C982 C981 1.523 . S
H983 C958 0.950 . S
H984 C960 0.950 . S
H985 C961 0.949 . S
H986 C963 0.950 . S
H987 C965 0.950 . S
C988 C989 1.349 1_554 S
C988 C990 1.327 . S
C988 H1013 0.950 . S
C989 C988 1.349 1_556 S
C989 C1005 1.349 . S
C990 C988 1.327 . S
C990 C1009 1.429 1_554 S
C990 H1014 0.950 . S
C991 C1008 1.574 . S
C991 C1010 1.368 . S
C991 H1015 0.949 . S
H992 C996 0.949 . S
C993 C994 1.349 1_556 S
C993 C995 1.327 . S
C993 H1016 0.950 . S
C994 C993 1.349 1_554 S
C994 C1006 1.349 . S
C995 C993 1.327 . S
C995 C1011 1.429 1_556 S
C995 H1017 0.950 . S
C996 H992 0.949 . S
C996 C1004 1.574 . S
C996 C1012 1.368 . S
H997 C1005 0.950 . S
H998 C1003 0.950 . S
H999 C1004 0.949 . S
H1000 C1006 0.950 . S
H1001 C1007 0.950 . S
H1002 C1008 0.949 . S
C1003 H998 0.950 . S
C1003 C1005 1.327 . S
C1003 C1009 1.429 . S
C1004 C996 1.574 . S
C1004 H999 0.949 . S
C1004 C1010 1.368 1_554 S
C1005 C989 1.349 . S
C1005 H997 0.950 . S
C1005 C1003 1.327 . S
C1006 C994 1.349 . S
C1006 H1000 0.950 . S
C1006 C1007 1.327 . S
C1007 H1001 0.950 . S
C1007 C1006 1.327 . S
C1007 C1011 1.429 . S
C1008 C991 1.574 . S
C1008 H1002 0.949 . S
C1008 C1012 1.368 1_556 S
C1009 C990 1.429 1_556 S
C1009 C1003 1.429 . S
C1009 C1010 1.523 . S
C1010 C991 1.368 . S
C1010 C1004 1.368 1_556 S
C1010 C1009 1.523 . S
C1011 C995 1.429 1_554 S
C1011 C1007 1.429 . S
C1011 C1012 1.523 . S
C1012 C996 1.368 . S
C1012 C1008 1.368 1_554 S
C1012 C1011 1.523 . S
H1013 C988 0.950 . S
H1014 C990 0.950 . S
H1015 C991 0.949 . S
H1016 C993 0.950 . S
H1017 C995 0.950 . S
C1018 C1019 1.349 . S
C1018 C1020 1.327 . S
C1018 H1043 0.950 . S
C1019 C1018 1.349 . S
C1019 C1035 1.349 1_556 S
C1020 C1018 1.327 . S
C1020 C1039 1.429 . S
C1020 H1044 0.950 . S
C1021 C1038 1.574 1_545 S
C1021 C1040 1.368 1_654 S
C1021 H1045 0.949 . S
H1022 C1026 0.949 . S
C1023 C1024 1.349 . S
C1023 C1025 1.327 . S
C1023 H1046 0.950 . S
C1024 C1023 1.349 . S
C1024 C1036 1.349 1_554 S
C1025 C1023 1.327 . S
C1025 C1041 1.429 . S
C1025 H1047 0.950 . S
C1026 H1022 0.949 . S
C1026 C1034 1.574 1_565 S
C1026 C1042 1.368 1_456 S
H1027 C1035 0.950 . S
H1028 C1033 0.950 . S
H1029 C1034 0.949 . S
H1030 C1036 0.950 . S
H1031 C1037 0.950 . S
H1032 C1038 0.949 . S
C1033 H1028 0.950 . S
C1033 C1035 1.327 . S
C1033 C1039 1.429 1_554 S
C1034 C1026 1.574 1_545 S
C1034 H1029 0.949 . S
C1034 C1040 1.368 . S
C1035 C1019 1.349 1_554 S
C1035 H1027 0.950 . S
C1035 C1033 1.327 . S
C1036 C1024 1.349 1_556 S
C1036 H1030 0.950 . S
C1036 C1037 1.327 . S
C1037 H1031 0.950 . S
C1037 C1036 1.327 . S
C1037 C1041 1.429 1_556 S
C1038 C1021 1.574 1_565 S
C1038 H1032 0.949 . S
C1038 C1042 1.368 . S
C1039 C1020 1.429 . S
C1039 C1033 1.429 1_556 S
C1039 C1040 1.523 . S
C1040 C1021 1.368 1_456 S
C1040 C1034 1.368 . S
C1040 C1039 1.523 . S
C1041 C1025 1.429 . S
C1041 C1037 1.429 1_554 S
C1041 C1042 1.523 . S
C1042 C1026 1.368 1_654 S
C1042 C1038 1.368 . S
C1042 C1041 1.523 . S
H1043 C1018 0.950 . S
H1044 C1020 0.950 . S
H1045 C1021 0.949 . S
H1046 C1023 0.950 . S
H1047 C1025 0.950 . S
C1048 C1049 1.349 . S
C1048 C1050 1.327 . S
C1048 H1073 0.950 . S
C1049 C1048 1.349 . S
C1049 C1065 1.349 . S
C1050 C1048 1.327 . S
C1050 C1069 1.429 . S
C1050 H1074 0.950 . S
C1051 C1068 1.574 1_545 S
C1051 C1070 1.368 . S
C1051 H1075 0.949 . S
H1052 C1056 0.949 . S
C1053 C1054 1.349 . S
C1053 C1055 1.327 . S
C1053 H1076 0.950 . S
C1054 C1053 1.349 . S
C1054 C1066 1.349 . S
C1055 C1053 1.327 . S
C1055 C1071 1.429 . S
C1055 H1077 0.950 . S
C1056 H1052 0.949 . S
C1056 C1064 1.574 1_565 S
C1056 C1072 1.368 . S
H1057 C1065 0.950 . S
H1058 C1063 0.950 . S
H1059 C1064 0.949 . S
H1060 C1066 0.950 . S
H1061 C1067 0.950 . S
H1062 C1068 0.949 . S
C1063 H1058 0.950 . S
C1063 C1065 1.327 . S
C1063 C1069 1.429 . S
C1064 C1056 1.574 1_545 S
C1064 H1059 0.949 . S
C1064 C1070 1.368 . S
C1065 C1049 1.349 . S
C1065 H1057 0.950 . S
C1065 C1063 1.327 . S
C1066 C1054 1.349 . S
C1066 H1060 0.950 . S
C1066 C1067 1.327 . S
C1067 H1061 0.950 . S
C1067 C1066 1.327 . S
C1067 C1071 1.429 . S
C1068 C1051 1.574 1_565 S
C1068 H1062 0.949 . S
C1068 C1072 1.368 . S
C1069 C1050 1.429 . S
C1069 C1063 1.429 . S
C1069 C1070 1.523 . S
C1070 C1051 1.368 . S
C1070 C1064 1.368 . S
C1070 C1069 1.523 . S
C1071 C1055 1.429 . S
C1071 C1067 1.429 . S
C1071 C1072 1.523 . S
C1072 C1056 1.368 . S
C1072 C1068 1.368 . S
C1072 C1071 1.523 . S
H1073 C1048 0.950 . S
H1074 C1050 0.950 . S
H1075 C1051 0.949 . S
H1076 C1053 0.950 . S
H1077 C1055 0.950 . S
C1078 C1079 1.349 . S
C1078 C1080 1.327 . S
C1078 H1103 0.950 . S
C1079 C1078 1.349 . S
C1079 C1095 1.349 . S
C1080 C1078 1.327 . S
C1080 C1099 1.429 . S
C1080 H1104 0.950 . S
C1081 C1098 1.574 . S
C1081 C1100 1.368 1_655 S
C1081 H1105 0.949 . S
H1082 C1086 0.949 . S
C1083 C1084 1.349 . S
C1083 C1085 1.327 . S
C1083 H1106 0.950 . S
C1084 C1083 1.349 . S
C1084 C1096 1.349 . S
C1085 C1083 1.327 . S
C1085 C1101 1.429 . S
C1085 H1107 0.950 . S
C1086 H1082 0.949 . S
C1086 C1094 1.574 . S
C1086 C1102 1.368 1_455 S
H1087 C1095 0.950 . S
H1088 C1093 0.950 1_655 S
H1089 C1094 0.949 . S
H1090 C1096 0.950 . S
H1091 C1097 0.950 1_455 S
H1092 C1098 0.949 . S
C1093 H1088 0.950 1_455 S
C1093 C1095 1.327 . S
C1093 C1099 1.429 . S
C1094 C1086 1.574 . S
C1094 H1089 0.949 . S
C1094 C1100 1.368 . S
C1095 C1079 1.349 . S
C1095 H1087 0.950 . S
C1095 C1093 1.327 . S
C1096 C1084 1.349 . S
C1096 H1090 0.950 . S
C1096 C1097 1.327 . S
C1097 H1091 0.950 1_655 S
C1097 C1096 1.327 . S
C1097 C1101 1.429 . S
C1098 C1081 1.574 . S
C1098 H1092 0.949 . S
C1098 C1102 1.368 . S
C1099 C1080 1.429 . S
C1099 C1093 1.429 . S
C1099 C1100 1.523 . S
C1100 C1081 1.368 1_455 S
C1100 C1094 1.368 . S
C1100 C1099 1.523 . S
C1101 C1085 1.429 . S
C1101 C1097 1.429 . S
C1101 C1102 1.523 . S
C1102 C1086 1.368 1_655 S
C1102 C1098 1.368 . S
C1102 C1101 1.523 . S
H1103 C1078 0.950 . S
H1104 C1080 0.950 . S
H1105 C1081 0.949 . S
H1106 C1083 0.950 . S
H1107 C1085 0.950 . S
C1108 C1109 1.349 . S
C1108 C1110 1.327 . S
C1108 H1133 0.950 . S
C1109 C1108 1.349 . S
C1109 C1125 1.349 1_556 S
C1110 C1108 1.327 . S
C1110 C1129 1.429 . S
C1110 H1134 0.950 . S
C1111 C1128 1.574 . S
C1111 C1130 1.368 1_554 S
C1111 H1135 0.949 . S
H1112 C1116 0.949 . S
C1113 C1114 1.349 . S
C1113 C1115 1.327 . S
C1113 H1136 0.950 . S
C1114 C1113 1.349 . S
C1114 C1126 1.349 1_554 S
C1115 C1113 1.327 . S
C1115 C1131 1.429 . S
C1115 H1137 0.950 . S
C1116 H1112 0.949 . S
C1116 C1124 1.574 . S
C1116 C1132 1.368 1_556 S
H1117 C1125 0.950 . S
H1118 C1123 0.950 . S
H1119 C1124 0.949 . S
H1120 C1126 0.950 . S
H1121 C1127 0.950 . S
H1122 C1128 0.949 . S
C1123 H1118 0.950 . S
C1123 C1125 1.327 . S
C1123 C1129 1.429 1_554 S
C1124 C1116 1.574 . S
C1124 H1119 0.949 . S
C1124 C1130 1.368 . S
C1125 C1109 1.349 1_554 S
C1125 H1117 0.950 . S
C1125 C1123 1.327 . S
C1126 C1114 1.349 1_556 S
C1126 H1120 0.950 . S
C1126 C1127 1.327 . S
C1127 H1121 0.950 . S
C1127 C1126 1.327 . S
C1127 C1131 1.429 1_556 S
C1128 C1111 1.574 . S
C1128 H1122 0.949 . S
C1128 C1132 1.368 . S
C1129 C1110 1.429 . S
C1129 C1123 1.429 1_556 S
C1129 C1130 1.523 . S
C1130 C1111 1.368 1_556 S
C1130 C1124 1.368 . S
C1130 C1129 1.523 . S
C1131 C1115 1.429 . S
C1131 C1127 1.429 1_554 S
C1131 C1132 1.523 . S
C1132 C1116 1.368 1_554 S
C1132 C1128 1.368 . S
C1132 C1131 1.523 . S
H1133 C1108 0.950 . S
H1134 C1110 0.950 . S
H1135 C1111 0.949 . S
H1136 C1113 0.950 . S
H1137 C1115 0.950 . S
C1138 C1139 1.349 . S
C1138 C1140 1.327 . S
C1138 H1163 0.950 . S
C1139 C1138 1.349 . S
C1139 C1155 1.349 . S
C1140 C1138 1.327 . S
C1140 C1159 1.429 . S
C1140 H1164 0.950 . S
C1141 C1158 1.574 . S
C1141 C1160 1.368 . S
C1141 H1165 0.949 . S
H1142 C1146 0.949 . S
C1143 C1144 1.349 . S
C1143 C1145 1.327 . S
C1143 H1166 0.950 . S
C1144 C1143 1.349 . S
C1144 C1156 1.349 . S
C1145 C1143 1.327 . S
C1145 C1161 1.429 . S
C1145 H1167 0.950 . S
C1146 H1142 0.949 . S
C1146 C1154 1.574 . S
C1146 C1162 1.368 . S
H1147 C1155 0.950 . S
H1148 C1153 0.950 . S
H1149 C1154 0.949 . S
H1150 C1156 0.950 . S
H1151 C1157 0.950 . S
H1152 C1158 0.949 . S
C1153 H1148 0.950 . S
C1153 C1155 1.327 . S
C1153 C1159 1.429 . S
C1154 C1146 1.574 . S
C1154 H1149 0.949 . S
C1154 C1160 1.368 . S
C1155 C1139 1.349 . S
C1155 H1147 0.950 . S
C1155 C1153 1.327 . S
C1156 C1144 1.349 . S
C1156 H1150 0.950 . S
C1156 C1157 1.327 . S
C1157 H1151 0.950 . S
C1157 C1156 1.327 . S
C1157 C1161 1.429 . S
C1158 C1141 1.574 . S
C1158 H1152 0.949 . S
C1158 C1162 1.368 . S
C1159 C1140 1.429 . S
C1159 C1153 1.429 . S
C1159 C1160 1.523 . S
C1160 C1141 1.368 . S
C1160 C1154 1.368 . S
C1160 C1159 1.523 . S
C1161 C1145 1.429 . S
C1161 C1157 1.429 . S
C1161 C1162 1.523 . S
C1162 C1146 1.368 . S
C1162 C1158 1.368 . S
C1162 C1161 1.523 . S
H1163 C1138 0.950 . S
H1164 C1140 0.950 . S
H1165 C1141 0.949 . S
H1166 C1143 0.950 . S
H1167 C1145 0.950 . S
C1168 C1169 1.349 . S
C1168 C1170 1.327 . S
C1168 H1193 0.950 . S
C1169 C1168 1.349 . S
C1169 C1185 1.349 . S
C1170 C1168 1.327 . S
C1170 C1189 1.429 . S
C1170 H1194 0.950 . S
C1171 C1188 1.574 . S
C1171 C1190 1.368 . S
C1171 H1195 0.949 . S
H1172 C1176 0.949 . S
C1173 C1174 1.349 . S
C1173 C1175 1.327 . S
C1173 H1196 0.950 . S
C1174 C1173 1.349 . S
C1174 C1186 1.349 . S
C1175 C1173 1.327 . S
C1175 C1191 1.429 . S
C1175 H1197 0.950 . S
C1176 H1172 0.949 . S
C1176 C1184 1.574 . S
C1176 C1192 1.368 . S
H1177 C1185 0.950 . S
H1178 C1183 0.950 . S
H1179 C1184 0.949 . S
H1180 C1186 0.950 . S
H1181 C1187 0.950 . S
H1182 C1188 0.949 . S
C1183 H1178 0.950 . S
C1183 C1185 1.327 . S
C1183 C1189 1.429 . S
C1184 C1176 1.574 . S
C1184 H1179 0.949 . S
C1184 C1190 1.368 . S
C1185 C1169 1.349 . S
C1185 H1177 0.950 . S
C1185 C1183 1.327 . S
C1186 C1174 1.349 . S
C1186 H1180 0.950 . S
C1186 C1187 1.327 . S
C1187 H1181 0.950 . S
C1187 C1186 1.327 . S
C1187 C1191 1.429 . S
C1188 C1171 1.574 . S
C1188 H1182 0.949 . S
C1188 C1192 1.368 . S
C1189 C1170 1.429 . S
C1189 C1183 1.429 . S
C1189 C1190 1.523 . S
C1190 C1171 1.368 . S
C1190 C1184 1.368 . S
C1190 C1189 1.523 . S
C1191 C1175 1.429 . S
C1191 C1187 1.429 . S
C1191 C1192 1.523 . S
C1192 C1176 1.368 . S
C1192 C1188 1.368 . S
C1192 C1191 1.523 . S
H1193 C1168 0.950 . S
H1194 C1170 0.950 . S
H1195 C1171 0.949 . S
H1196 C1173 0.950 . S
H1197 C1175 0.950 . S
C1198 C1199 1.349 . S
C1198 C1200 1.327 . S
C1198 H1223 0.950 . S
C1199 C1198 1.349 . S
C1199 C1215 1.349 . S
C1200 C1198 1.327 . S
C1200 C1219 1.429 . S
C1200 H1224 0.950 1_655 S
C1201 C1218 1.574 . S
C1201 C1220 1.368 . S
C1201 H1225 0.949 . S
H1202 C1206 0.949 . S
C1203 C1204 1.349 . S
C1203 C1205 1.327 . S
C1203 H1226 0.950 . S
C1204 C1203 1.349 . S
C1204 C1216 1.349 . S
C1205 C1203 1.327 . S
C1205 C1221 1.429 . S
C1205 H1227 0.950 1_455 S
C1206 H1202 0.949 . S
C1206 C1214 1.574 . S
C1206 C1222 1.368 . S
H1207 C1215 0.950 . S
H1208 C1213 0.950 . S
H1209 C1214 0.949 . S
H1210 C1216 0.950 . S
H1211 C1217 0.950 . S
H1212 C1218 0.949 . S
C1213 H1208 0.950 . S
C1213 C1215 1.327 . S
C1213 C1219 1.429 . S
C1214 C1206 1.574 . S
C1214 H1209 0.949 . S
C1214 C1220 1.368 1_455 S
C1215 C1199 1.349 . S
C1215 H1207 0.950 . S
C1215 C1213 1.327 . S
C1216 C1204 1.349 . S
C1216 H1210 0.950 . S
C1216 C1217 1.327 . S
C1217 H1211 0.950 . S
C1217 C1216 1.327 . S
C1217 C1221 1.429 . S
C1218 C1201 1.574 . S
C1218 H1212 0.949 . S
C1218 C1222 1.368 1_655 S
C1219 C1200 1.429 . S
C1219 C1213 1.429 . S
C1219 C1220 1.523 . S
C1220 C1201 1.368 . S
C1220 C1214 1.368 1_655 S
C1220 C1219 1.523 . S
C1221 C1205 1.429 . S
C1221 C1217 1.429 . S
C1221 C1222 1.523 . S
C1222 C1206 1.368 . S
C1222 C1218 1.368 1_455 S
C1222 C1221 1.523 . S
H1223 C1198 0.950 . S
H1224 C1200 0.950 1_455 S
H1225 C1201 0.949 . S
H1226 C1203 0.950 . S
H1227 C1205 0.950 1_655 S
C1228 C1229 1.349 . S
C1228 C1230 1.327 . S
C1228 H1253 0.950 . S
C1229 C1228 1.349 . S
C1229 C1245 1.349 . S
C1230 C1228 1.327 . S
C1230 C1249 1.429 . S
C1230 H1254 0.950 . S
C1231 C1248 1.574 . S
C1231 C1250 1.368 . S
C1231 H1255 0.949 . S
H1232 C1236 0.949 . S
C1233 C1234 1.349 . S
C1233 C1235 1.327 . S
C1233 H1256 0.950 . S
C1234 C1233 1.349 . S
C1234 C1246 1.349 . S
C1235 C1233 1.327 . S
C1235 C1251 1.429 . S
C1235 H1257 0.950 . S
C1236 H1232 0.949 . S
C1236 C1244 1.574 . S
C1236 C1252 1.368 . S
H1237 C1245 0.950 . S
H1238 C1243 0.950 . S
H1239 C1244 0.949 . S
H1240 C1246 0.950 . S
H1241 C1247 0.950 . S
H1242 C1248 0.949 . S
C1243 H1238 0.950 . S
C1243 C1245 1.327 . S
C1243 C1249 1.429 . S
C1244 C1236 1.574 . S
C1244 H1239 0.949 . S
C1244 C1250 1.368 . S
C1245 C1229 1.349 . S
C1245 H1237 0.950 . S
C1245 C1243 1.327 . S
C1246 C1234 1.349 . S
C1246 H1240 0.950 . S
C1246 C1247 1.327 . S
C1247 H1241 0.950 . S
C1247 C1246 1.327 . S
C1247 C1251 1.429 . S
C1248 C1231 1.574 . S
C1248 H1242 0.949 . S
C1248 C1252 1.368 . S
C1249 C1230 1.429 . S
C1249 C1243 1.429 . S
C1249 C1250 1.523 . S
C1250 C1231 1.368 . S
C1250 C1244 1.368 . S
C1250 C1249 1.523 . S
C1251 C1235 1.429 . S
C1251 C1247 1.429 . S
C1251 C1252 1.523 . S
C1252 C1236 1.368 . S
C1252 C1248 1.368 . S
C1252 C1251 1.523 . S
H1253 C1228 0.950 . S
H1254 C1230 0.950 . S
H1255 C1231 0.949 . S
H1256 C1233 0.950 . S
H1257 C1235 0.950 . S
C1258 C1259 1.349 . S
C1258 C1260 1.327 . S
C1258 H1283 0.950 . S
C1259 C1258 1.349 . S
C1259 C1275 1.349 . S
C1260 C1258 1.327 . S
C1260 C1279 1.429 . S
C1260 H1284 0.950 . S
C1261 C1278 1.574 . S
C1261 C1280 1.368 . S
C1261 H1285 0.949 . S
H1262 C1266 0.949 . S
C1263 C1264 1.349 . S
C1263 C1265 1.327 . S
C1263 H1286 0.950 . S
C1264 C1263 1.349 . S
C1264 C1276 1.349 . S
C1265 C1263 1.327 . S
C1265 C1281 1.429 . S
C1265 H1287 0.950 . S
C1266 H1262 0.949 . S
C1266 C1274 1.574 . S
C1266 C1282 1.368 . S
H1267 C1275 0.950 . S
H1268 C1273 0.950 . S
H1269 C1274 0.949 . S
H1270 C1276 0.950 . S
H1271 C1277 0.950 . S
H1272 C1278 0.949 . S
C1273 H1268 0.950 . S
C1273 C1275 1.327 . S
C1273 C1279 1.429 . S
C1274 C1266 1.574 . S
C1274 H1269 0.949 . S
C1274 C1280 1.368 . S
C1275 C1259 1.349 . S
C1275 H1267 0.950 . S
C1275 C1273 1.327 . S
C1276 C1264 1.349 . S
C1276 H1270 0.950 . S
C1276 C1277 1.327 . S
C1277 H1271 0.950 . S
C1277 C1276 1.327 . S
C1277 C1281 1.429 . S
C1278 C1261 1.574 . S
C1278 H1272 0.949 . S
C1278 C1282 1.368 . S
C1279 C1260 1.429 . S
C1279 C1273 1.429 . S
C1279 C1280 1.523 . S
C1280 C1261 1.368 . S
C1280 C1274 1.368 . S
C1280 C1279 1.523 . S
C1281 C1265 1.429 . S
C1281 C1277 1.429 . S
C1281 C1282 1.523 . S
C1282 C1266 1.368 . S
C1282 C1278 1.368 . S
C1282 C1281 1.523 . S
H1283 C1258 0.950 . S
H1284 C1260 0.950 . S
H1285 C1261 0.949 . S
H1286 C1263 0.950 . S
H1287 C1265 0.950 . S
C1288 C1289 1.349 . S
C1288 C1290 1.327 . S
C1288 H1313 0.950 . S
C1289 C1288 1.349 . S
C1289 C1305 1.349 . S
C1290 C1288 1.327 . S
C1290 C1309 1.429 . S
C1290 H1314 0.950 . S
C1291 C1308 1.574 . S
C1291 C1310 1.368 . S
C1291 H1315 0.949 . S
H1292 C1296 0.949 . S
C1293 C1294 1.349 . S
C1293 C1295 1.327 . S
C1293 H1316 0.950 . S
C1294 C1293 1.349 . S
C1294 C1306 1.349 . S
C1295 C1293 1.327 . S
C1295 C1311 1.429 . S
C1295 H1317 0.950 . S
C1296 H1292 0.949 . S
C1296 C1304 1.574 . S
C1296 C1312 1.368 . S
H1297 C1305 0.950 . S
H1298 C1303 0.950 . S
H1299 C1304 0.949 . S
H1300 C1306 0.950 . S
H1301 C1307 0.950 . S
H1302 C1308 0.949 . S
C1303 H1298 0.950 . S
C1303 C1305 1.327 . S
C1303 C1309 1.429 . S
C1304 C1296 1.574 . S
C1304 H1299 0.949 . S
C1304 C1310 1.368 . S
C1305 C1289 1.349 . S
C1305 H1297 0.950 . S
C1305 C1303 1.327 . S
C1306 C1294 1.349 . S
C1306 H1300 0.950 . S
C1306 C1307 1.327 . S
C1307 H1301 0.950 . S
C1307 C1306 1.327 . S
C1307 C1311 1.429 . S
C1308 C1291 1.574 . S
C1308 H1302 0.949 . S
C1308 C1312 1.368 . S
C1309 C1290 1.429 . S
C1309 C1303 1.429 . S
C1309 C1310 1.523 . S
C1310 C1291 1.368 . S
C1310 C1304 1.368 . S
C1310 C1309 1.523 . S
C1311 C1295 1.429 . S
C1311 C1307 1.429 . S
C1311 C1312 1.523 . S
C1312 C1296 1.368 . S
C1312 C1308 1.368 . S
C1312 C1311 1.523 . S
H1313 C1288 0.950 . S
H1314 C1290 0.950 . S
H1315 C1291 0.949 . S
H1316 C1293 0.950 . S
H1317 C1295 0.950 . S
C1318 C1319 1.349 . S
C1318 C1320 1.327 . S
C1318 H1343 0.950 . S
C1319 C1318 1.349 . S
C1319 C1335 1.349 . S
C1320 C1318 1.327 . S
C1320 C1339 1.429 . S
C1320 H1344 0.950 . S
C1321 C1338 1.574 1_545 S
C1321 C1340 1.368 . S
C1321 H1345 0.949 . S
H1322 C1326 0.949 . S
C1323 C1324 1.349 . S
C1323 C1325 1.327 . S
C1323 H1346 0.950 . S
C1324 C1323 1.349 . S
C1324 C1336 1.349 . S
C1325 C1323 1.327 . S
C1325 C1341 1.429 . S
C1325 H1347 0.950 . S
C1326 H1322 0.949 . S
C1326 C1334 1.574 1_565 S
C1326 C1342 1.368 . S
H1327 C1335 0.950 . S
H1328 C1333 0.950 . S
H1329 C1334 0.949 . S
H1330 C1336 0.950 . S
H1331 C1337 0.950 . S
H1332 C1338 0.949 . S
C1333 H1328 0.950 . S
C1333 C1335 1.327 . S
C1333 C1339 1.429 . S
C1334 C1326 1.574 1_545 S
C1334 H1329 0.949 . S
C1334 C1340 1.368 . S
C1335 C1319 1.349 . S
C1335 H1327 0.950 . S
C1335 C1333 1.327 . S
C1336 C1324 1.349 . S
C1336 H1330 0.950 . S
C1336 C1337 1.327 . S
C1337 H1331 0.950 . S
C1337 C1336 1.327 . S
C1337 C1341 1.429 . S
C1338 C1321 1.574 1_565 S
C1338 H1332 0.949 . S
C1338 C1342 1.368 . S
C1339 C1320 1.429 . S
C1339 C1333 1.429 . S
C1339 C1340 1.523 . S
C1340 C1321 1.368 . S
C1340 C1334 1.368 . S
C1340 C1339 1.523 . S
C1341 C1325 1.429 . S
C1341 C1337 1.429 . S
C1341 C1342 1.523 . S
C1342 C1326 1.368 . S
C1342 C1338 1.368 . S
C1342 C1341 1.523 . S
H1343 C1318 0.950 . S
H1344 C1320 0.950 . S
H1345 C1321 0.949 . S
H1346 C1323 0.950 . S
H1347 C1325 0.950 . S
C1348 C1349 1.349 . S
C1348 C1350 1.327 . S
C1348 H1373 0.950 . S
C1349 C1348 1.349 . S
C1349 C1365 1.349 . S
C1350 C1348 1.327 . S
C1350 C1369 1.429 . S
C1350 H1374 0.950 . S
C1351 C1368 1.574 . S
C1351 C1370 1.368 . S
C1351 H1375 0.949 . S
H1352 C1356 0.949 . S
C1353 C1354 1.349 . S
C1353 C1355 1.327 . S
C1353 H1376 0.950 . S
C1354 C1353 1.349 . S
C1354 C1366 1.349 . S
C1355 C1353 1.327 . S
C1355 C1371 1.429 . S
C1355 H1377 0.950 . S
C1356 H1352 0.949 . S
C1356 C1364 1.574 . S
C1356 C1372 1.368 . S
H1357 C1365 0.950 . S
H1358 C1363 0.950 . S
H1359 C1364 0.949 . S
H1360 C1366 0.950 . S
H1361 C1367 0.950 . S
H1362 C1368 0.949 . S
C1363 H1358 0.950 . S
C1363 C1365 1.327 . S
C1363 C1369 1.429 . S
C1364 C1356 1.574 . S
C1364 H1359 0.949 . S
C1364 C1370 1.368 . S
C1365 C1349 1.349 . S
C1365 H1357 0.950 . S
C1365 C1363 1.327 . S
C1366 C1354 1.349 . S
C1366 H1360 0.950 . S
C1366 C1367 1.327 . S
C1367 H1361 0.950 . S
C1367 C1366 1.327 . S
C1367 C1371 1.429 . S
C1368 C1351 1.574 . S
C1368 H1362 0.949 . S
C1368 C1372 1.368 . S
C1369 C1350 1.429 . S
C1369 C1363 1.429 . S
C1369 C1370 1.523 . S
C1370 C1351 1.368 . S
C1370 C1364 1.368 . S
C1370 C1369 1.523 . S
C1371 C1355 1.429 . S
C1371 C1367 1.429 . S
C1371 C1372 1.523 . S
C1372 C1356 1.368 . S
C1372 C1368 1.368 . S
C1372 C1371 1.523 . S
H1373 C1348 0.950 . S
H1374 C1350 0.950 . S
H1375 C1351 0.949 . S
H1376 C1353 0.950 . S
H1377 C1355 0.950 . S
C1378 C1379 1.349 1_556 S
C1378 C1380 1.327 . S
C1378 H1403 0.950 . S
C1379 C1378 1.349 1_554 S
C1379 C1395 1.349 . S
C1380 C1378 1.327 . S
C1380 C1399 1.429 1_556 S
C1380 H1404 0.950 . S
C1381 C1398 1.574 . S
C1381 C1400 1.368 . S
C1381 H1405 0.949 . S
H1382 C1386 0.949 . S
C1383 C1384 1.349 1_554 S
C1383 C1385 1.327 . S
C1383 H1406 0.950 . S
C1384 C1383 1.349 1_556 S
C1384 C1396 1.349 . S
C1385 C1383 1.327 . S
C1385 C1401 1.429 1_554 S
C1385 H1407 0.950 . S
C1386 H1382 0.949 . S
C1386 C1394 1.574 . S
C1386 C1402 1.368 . S
H1387 C1395 0.950 . S
H1388 C1393 0.950 . S
H1389 C1394 0.949 . S
H1390 C1396 0.950 . S
H1391 C1397 0.950 . S
H1392 C1398 0.949 . S
C1393 H1388 0.950 . S
C1393 C1395 1.327 . S
C1393 C1399 1.429 . S
C1394 C1386 1.574 . S
C1394 H1389 0.949 . S
C1394 C1400 1.368 1_556 S
C1395 C1379 1.349 . S
C1395 H1387 0.950 . S
C1395 C1393 1.327 . S
C1396 C1384 1.349 . S
C1396 H1390 0.950 . S
C1396 C1397 1.327 . S
C1397 H1391 0.950 . S
C1397 C1396 1.327 . S
C1397 C1401 1.429 . S
C1398 C1381 1.574 . S
C1398 H1392 0.949 . S
C1398 C1402 1.368 1_554 S
C1399 C1380 1.429 1_554 S
C1399 C1393 1.429 . S
C1399 C1400 1.523 . S
C1400 C1381 1.368 . S
C1400 C1394 1.368 1_554 S
C1400 C1399 1.523 . S
C1401 C1385 1.429 1_556 S
C1401 C1397 1.429 . S
C1401 C1402 1.523 . S
C1402 C1386 1.368 . S
C1402 C1398 1.368 1_556 S
C1402 C1401 1.523 . S
H1403 C1378 0.950 . S
H1404 C1380 0.950 . S
H1405 C1381 0.949 . S
H1406 C1383 0.950 . S
H1407 C1385 0.950 . S
C1408 C1409 1.349 . S
C1408 C1410 1.327 . S
C1408 H1433 0.950 . S
C1409 C1408 1.349 . S
C1409 C1425 1.349 . S
C1410 C1408 1.327 . S
C1410 C1429 1.429 . S
C1410 H1434 0.950 . S
C1411 C1428 1.574 . S
C1411 C1430 1.368 . S
C1411 H1435 0.949 . S
H1412 C1416 0.949 . S
C1413 C1414 1.349 . S
C1413 C1415 1.327 . S
C1413 H1436 0.950 . S
C1414 C1413 1.349 . S
C1414 C1426 1.349 . S
C1415 C1413 1.327 . S
C1415 C1431 1.429 . S
C1415 H1437 0.950 . S
C1416 H1412 0.949 . S
C1416 C1424 1.574 . S
C1416 C1432 1.368 . S
H1417 C1425 0.950 . S
H1418 C1423 0.950 . S
H1419 C1424 0.949 . S
H1420 C1426 0.950 . S
H1421 C1427 0.950 . S
H1422 C1428 0.949 . S
C1423 H1418 0.950 . S
C1423 C1425 1.327 . S
C1423 C1429 1.429 . S
C1424 C1416 1.574 . S
C1424 H1419 0.949 . S
C1424 C1430 1.368 . S
C1425 C1409 1.349 . S
C1425 H1417 0.950 . S
C1425 C1423 1.327 . S
C1426 C1414 1.349 . S
C1426 H1420 0.950 . S
C1426 C1427 1.327 . S
C1427 H1421 0.950 . S
C1427 C1426 1.327 . S
C1427 C1431 1.429 . S
C1428 C1411 1.574 . S
C1428 H1422 0.949 . S
C1428 C1432 1.368 . S
C1429 C1410 1.429 . S
C1429 C1423 1.429 . S
C1429 C1430 1.523 . S
C1430 C1411 1.368 . S
C1430 C1424 1.368 . S
C1430 C1429 1.523 . S
C1431 C1415 1.429 . S
C1431 C1427 1.429 . S
C1431 C1432 1.523 . S
C1432 C1416 1.368 . S
C1432 C1428 1.368 . S
C1432 C1431 1.523 . S
H1433 C1408 0.950 . S
H1434 C1410 0.950 . S
H1435 C1411 0.949 . S
H1436 C1413 0.950 . S
H1437 C1415 0.950 . S
C1438 C1439 1.349 1_554 S
C1438 C1440 1.327 . S
C1438 H1463 0.950 . S
C1439 C1438 1.349 1_556 S
C1439 C1455 1.349 . S
C1440 C1438 1.327 . S
C1440 C1459 1.429 1_554 S
C1440 H1464 0.950 . S
C1441 C1458 1.574 . S
C1441 C1460 1.368 . S
C1441 H1465 0.949 . S
H1442 C1446 0.949 . S
C1443 C1444 1.349 . S
C1443 C1445 1.327 . S
C1443 H1466 0.950 . S
C1444 C1443 1.349 . S
C1444 C1456 1.349 1_556 S
C1445 C1443 1.327 . S
C1445 C1461 1.429 . S
C1445 H1467 0.950 . S
C1446 H1442 0.949 . S
C1446 C1454 1.574 . S
C1446 C1462 1.368 1_554 S
H1447 C1455 0.950 . S
H1448 C1453 0.950 . S
H1449 C1454 0.949 . S
H1450 C1456 0.950 . S
H1451 C1457 0.950 . S
H1452 C1458 0.949 . S
C1453 H1448 0.950 . S
C1453 C1455 1.327 . S
C1453 C1459 1.429 . S
C1454 C1446 1.574 . S
C1454 H1449 0.949 . S
C1454 C1460 1.368 1_554 S
C1455 C1439 1.349 . S
C1455 H1447 0.950 . S
C1455 C1453 1.327 . S
C1456 C1444 1.349 1_554 S
C1456 H1450 0.950 . S
C1456 C1457 1.327 . S
C1457 H1451 0.950 . S
C1457 C1456 1.327 . S
C1457 C1461 1.429 1_554 S
C1458 C1441 1.574 . S
C1458 H1452 0.949 . S
C1458 C1462 1.368 . S
C1459 C1440 1.429 1_556 S
C1459 C1453 1.429 . S
C1459 C1460 1.523 . S
C1460 C1441 1.368 . S
C1460 C1454 1.368 1_556 S
C1460 C1459 1.523 . S
C1461 C1445 1.429 . S
C1461 C1457 1.429 1_556 S
C1461 C1462 1.523 . S
C1462 C1446 1.368 1_556 S
C1462 C1458 1.368 . S
C1462 C1461 1.523 . S
H1463 C1438 0.950 . S
H1464 C1440 0.950 . S
H1465 C1441 0.949 . S
H1466 C1443 0.950 . S
H1467 C1445 0.950 . S
C1468 C1469 1.349 . S
C1468 C1470 1.327 . S
C1468 H1493 0.950 . S
C1469 C1468 1.349 . S
C1469 C1485 1.349 . S
C1470 C1468 1.327 . S
C1470 C1489 1.429 . S
C1470 H1494 0.950 . S
C1471 C1488 1.574 . S
C1471 C1490 1.368 . S
C1471 H1495 0.949 . S
H1472 C1476 0.949 . S
C1473 C1474 1.349 . S
C1473 C1475 1.327 . S
C1473 H1496 0.950 . S
C1474 C1473 1.349 . S
C1474 C1486 1.349 . S
C1475 C1473 1.327 . S
C1475 C1491 1.429 . S
C1475 H1497 0.950 . S
C1476 H1472 0.949 . S
C1476 C1484 1.574 . S
C1476 C1492 1.368 . S
H1477 C1485 0.950 . S
H1478 C1483 0.950 . S
H1479 C1484 0.949 . S
H1480 C1486 0.950 . S
H1481 C1487 0.950 . S
H1482 C1488 0.949 . S
C1483 H1478 0.950 . S
C1483 C1485 1.327 . S
C1483 C1489 1.429 . S
C1484 C1476 1.574 . S
C1484 H1479 0.949 . S
C1484 C1490 1.368 . S
C1485 C1469 1.349 . S
C1485 H1477 0.950 . S
C1485 C1483 1.327 . S
C1486 C1474 1.349 . S
C1486 H1480 0.950 . S
C1486 C1487 1.327 . S
C1487 H1481 0.950 . S
C1487 C1486 1.327 . S
C1487 C1491 1.429 . S
C1488 C1471 1.574 . S
C1488 H1482 0.949 . S
C1488 C1492 1.368 . S
C1489 C1470 1.429 . S
C1489 C1483 1.429 . S
C1489 C1490 1.523 . S
C1490 C1471 1.368 . S
C1490 C1484 1.368 . S
C1490 C1489 1.523 . S
C1491 C1475 1.429 . S
C1491 C1487 1.429 . S
C1491 C1492 1.523 . S
C1492 C1476 1.368 . S
C1492 C1488 1.368 . S
C1492 C1491 1.523 . S
H1493 C1468 0.950 . S
H1494 C1470 0.950 . S
H1495 C1471 0.949 . S
H1496 C1473 0.950 . S
H1497 C1475 0.950 . S
C1498 C1499 1.349 1_556 S
C1498 C1500 1.327 . S
C1498 H1523 0.950 . S
C1499 C1498 1.349 1_554 S
C1499 C1515 1.349 . S
C1500 C1498 1.327 . S
C1500 C1519 1.429 1_556 S
C1500 H1524 0.950 . S
C1501 C1518 1.574 . S
C1501 C1520 1.368 . S
C1501 H1525 0.949 . S
H1502 C1506 0.949 . S
C1503 C1504 1.349 . S
C1503 C1505 1.327 . S
C1503 H1526 0.950 . S
C1504 C1503 1.349 . S
C1504 C1516 1.349 1_554 S
C1505 C1503 1.327 . S
C1505 C1521 1.429 . S
C1505 H1527 0.950 . S
C1506 H1502 0.949 . S
C1506 C1514 1.574 . S
C1506 C1522 1.368 1_556 S
H1507 C1515 0.950 . S
H1508 C1513 0.950 . S
H1509 C1514 0.949 . S
H1510 C1516 0.950 . S
H1511 C1517 0.950 . S
H1512 C1518 0.949 . S
C1513 H1508 0.950 . S
C1513 C1515 1.327 . S
C1513 C1519 1.429 . S
C1514 C1506 1.574 . S
C1514 H1509 0.949 . S
C1514 C1520 1.368 1_556 S
C1515 C1499 1.349 . S
C1515 H1507 0.950 . S
C1515 C1513 1.327 . S
C1516 C1504 1.349 1_556 S
C1516 H1510 0.950 . S
C1516 C1517 1.327 . S
C1517 H1511 0.950 . S
C1517 C1516 1.327 . S
C1517 C1521 1.429 1_556 S
C1518 C1501 1.574 . S
C1518 H1512 0.949 . S
C1518 C1522 1.368 . S
C1519 C1500 1.429 1_554 S
C1519 C1513 1.429 . S
C1519 C1520 1.523 . S
C1520 C1501 1.368 . S
C1520 C1514 1.368 1_554 S
C1520 C1519 1.523 . S
C1521 C1505 1.429 . S
C1521 C1517 1.429 1_554 S
C1521 C1522 1.523 . S
C1522 C1506 1.368 1_554 S
C1522 C1518 1.368 . S
C1522 C1521 1.523 . S
H1523 C1498 0.950 . S
H1524 C1500 0.950 . S
H1525 C1501 0.949 . S
H1526 C1503 0.950 . S
H1527 C1505 0.950 . S
C1528 C1529 1.349 . S
C1528 C1530 1.327 . S
C1528 H1553 0.950 . S
C1529 C1528 1.349 . S
C1529 C1545 1.349 . S
C1530 C1528 1.327 . S
C1530 C1549 1.429 . S
C1530 H1554 0.950 . S
C1531 C1548 1.574 . S
C1531 C1550 1.368 . S
C1531 H1555 0.949 . S
H1532 C1536 0.949 . S
C1533 C1534 1.349 . S
C1533 C1535 1.327 . S
C1533 H1556 0.950 . S
C1534 C1533 1.349 . S
C1534 C1546 1.349 . S
C1535 C1533 1.327 . S
C1535 C1551 1.429 . S
C1535 H1557 0.950 . S
C1536 H1532 0.949 . S
C1536 C1544 1.574 . S
C1536 C1552 1.368 . S
H1537 C1545 0.950 . S
H1538 C1543 0.950 . S
H1539 C1544 0.949 . S
H1540 C1546 0.950 . S
H1541 C1547 0.950 . S
H1542 C1548 0.949 . S
C1543 H1538 0.950 . S
C1543 C1545 1.327 . S
C1543 C1549 1.429 . S
C1544 C1536 1.574 . S
C1544 H1539 0.949 . S
C1544 C1550 1.368 . S
C1545 C1529 1.349 . S
C1545 H1537 0.950 . S
C1545 C1543 1.327 . S
C1546 C1534 1.349 . S
C1546 H1540 0.950 . S
C1546 C1547 1.327 . S
C1547 H1541 0.950 . S
C1547 C1546 1.327 . S
C1547 C1551 1.429 . S
C1548 C1531 1.574 . S
C1548 H1542 0.949 . S
C1548 C1552 1.368 . S
C1549 C1530 1.429 . S
C1549 C1543 1.429 . S
C1549 C1550 1.523 . S
C1550 C1531 1.368 . S
C1550 C1544 1.368 . S
C1550 C1549 1.523 . S
C1551 C1535 1.429 . S
C1551 C1547 1.429 . S
C1551 C1552 1.523 . S
C1552 C1536 1.368 . S
C1552 C1548 1.368 . S
C1552 C1551 1.523 . S
H1553 C1528 0.950 . S
H1554 C1530 0.950 . S
H1555 C1531 0.949 . S
H1556 C1533 0.950 . S
H1557 C1535 0.950 . S
C1558 C1559 1.349 . S
C1558 C1560 1.327 . S
C1558 H1583 0.950 . S
C1559 C1558 1.349 . S
C1559 C1575 1.349 . S
C1560 C1558 1.327 . S
C1560 C1579 1.429 . S
C1560 H1584 0.950 . S
C1561 C1578 1.574 . S
C1561 C1580 1.368 . S
C1561 H1585 0.949 . S
H1562 C1566 0.949 . S
C1563 C1564 1.349 . S
C1563 C1565 1.327 . S
C1563 H1586 0.950 . S
C1564 C1563 1.349 . S
C1564 C1576 1.349 . S
C1565 C1563 1.327 . S
C1565 C1581 1.429 . S
C1565 H1587 0.950 . S
C1566 H1562 0.949 . S
C1566 C1574 1.574 . S
C1566 C1582 1.368 . S
H1567 C1575 0.950 . S
H1568 C1573 0.950 . S
H1569 C1574 0.949 . S
H1570 C1576 0.950 . S
H1571 C1577 0.950 . S
H1572 C1578 0.949 . S
C1573 H1568 0.950 . S
C1573 C1575 1.327 . S
C1573 C1579 1.429 . S
C1574 C1566 1.574 . S
C1574 H1569 0.949 . S
C1574 C1580 1.368 . S
C1575 C1559 1.349 . S
C1575 H1567 0.950 . S
C1575 C1573 1.327 . S
C1576 C1564 1.349 . S
C1576 H1570 0.950 . S
C1576 C1577 1.327 . S
C1577 H1571 0.950 . S
C1577 C1576 1.327 . S
C1577 C1581 1.429 . S
C1578 C1561 1.574 . S
C1578 H1572 0.949 . S
C1578 C1582 1.368 . S
C1579 C1560 1.429 . S
C1579 C1573 1.429 . S
C1579 C1580 1.523 . S
C1580 C1561 1.368 . S
C1580 C1574 1.368 . S
C1580 C1579 1.523 . S
C1581 C1565 1.429 . S
C1581 C1577 1.429 . S
C1581 C1582 1.523 . S
C1582 C1566 1.368 . S
C1582 C1578 1.368 . S
C1582 C1581 1.523 . S
H1583 C1558 0.950 . S
H1584 C1560 0.950 . S
H1585 C1561 0.949 . S
H1586 C1563 0.950 . S
H1587 C1565 0.950 . S
C1588 C1589 1.349 . S
C1588 C1590 1.327 . S
C1588 H1613 0.950 . S
C1589 C1588 1.349 . S
C1589 C1605 1.349 . S
C1590 C1588 1.327 . S
C1590 C1609 1.429 . S
C1590 H1614 0.950 . S
C1591 C1608 1.574 . S
C1591 C1610 1.368 . S
C1591 H1615 0.949 . S
H1592 C1596 0.949 . S
C1593 C1594 1.349 . S
C1593 C1595 1.327 . S
C1593 H1616 0.950 . S
C1594 C1593 1.349 . S
C1594 C1606 1.349 . S
C1595 C1593 1.327 . S
C1595 C1611 1.429 . S
C1595 H1617 0.950 . S
C1596 H1592 0.949 . S
C1596 C1604 1.574 . S
C1596 C1612 1.368 . S
H1597 C1605 0.950 . S
H1598 C1603 0.950 . S
H1599 C1604 0.949 . S
H1600 C1606 0.950 . S
H1601 C1607 0.950 . S
H1602 C1608 0.949 . S
C1603 H1598 0.950 . S
C1603 C1605 1.327 . S
C1603 C1609 1.429 . S
C1604 C1596 1.574 . S
C1604 H1599 0.949 . S
C1604 C1610 1.368 . S
C1605 C1589 1.349 . S
C1605 H1597 0.950 . S
C1605 C1603 1.327 . S
C1606 C1594 1.349 . S
C1606 H1600 0.950 . S
C1606 C1607 1.327 . S
C1607 H1601 0.950 . S
C1607 C1606 1.327 . S
C1607 C1611 1.429 . S
C1608 C1591 1.574 . S
C1608 H1602 0.949 . S
C1608 C1612 1.368 . S
C1609 C1590 1.429 . S
C1609 C1603 1.429 . S
C1609 C1610 1.523 . S
C1610 C1591 1.368 . S
C1610 C1604 1.368 . S
C1610 C1609 1.523 . S
C1611 C1595 1.429 . S
C1611 C1607 1.429 . S
C1611 C1612 1.523 . S
C1612 C1596 1.368 . S
C1612 C1608 1.368 . S
C1612 C1611 1.523 . S
H1613 C1588 0.950 . S
H1614 C1590 0.950 . S
H1615 C1591 0.949 . S
H1616 C1593 0.950 . S
H1617 C1595 0.950 . S
C1618 C1619 1.349 . S
C1618 C1620 1.327 . S
C1618 H1643 0.950 . S
C1619 C1618 1.349 . S
C1619 C1635 1.349 . S
C1620 C1618 1.327 . S
C1620 C1639 1.429 . S
C1620 H1644 0.950 . S
C1621 C1638 1.574 . S
C1621 C1640 1.368 . S
C1621 H1645 0.949 . S
H1622 C1626 0.949 . S
C1623 C1624 1.349 . S
C1623 C1625 1.327 . S
C1623 H1646 0.950 . S
C1624 C1623 1.349 . S
C1624 C1636 1.349 . S
C1625 C1623 1.327 . S
C1625 C1641 1.429 . S
C1625 H1647 0.950 . S
C1626 H1622 0.949 . S
C1626 C1634 1.574 . S
C1626 C1642 1.368 . S
H1627 C1635 0.950 . S
H1628 C1633 0.950 . S
H1629 C1634 0.949 . S
H1630 C1636 0.950 . S
H1631 C1637 0.950 . S
H1632 C1638 0.949 . S
C1633 H1628 0.950 . S
C1633 C1635 1.327 . S
C1633 C1639 1.429 . S
C1634 C1626 1.574 . S
C1634 H1629 0.949 . S
C1634 C1640 1.368 . S
C1635 C1619 1.349 . S
C1635 H1627 0.950 . S
C1635 C1633 1.327 . S
C1636 C1624 1.349 . S
C1636 H1630 0.950 . S
C1636 C1637 1.327 . S
C1637 H1631 0.950 . S
C1637 C1636 1.327 . S
C1637 C1641 1.429 . S
C1638 C1621 1.574 . S
C1638 H1632 0.949 . S
C1638 C1642 1.368 . S
C1639 C1620 1.429 . S
C1639 C1633 1.429 . S
C1639 C1640 1.523 . S
C1640 C1621 1.368 . S
C1640 C1634 1.368 . S
C1640 C1639 1.523 . S
C1641 C1625 1.429 . S
C1641 C1637 1.429 . S
C1641 C1642 1.523 . S
C1642 C1626 1.368 . S
C1642 C1638 1.368 . S
C1642 C1641 1.523 . S
H1643 C1618 0.950 . S
H1644 C1620 0.950 . S
H1645 C1621 0.949 . S
H1646 C1623 0.950 . S
H1647 C1625 0.950 . S
C1648 C1649 1.349 . S
C1648 C1650 1.327 . S
C1648 H1673 0.950 . S
C1649 C1648 1.349 . S
C1649 C1665 1.349 . S
C1650 C1648 1.327 . S
C1650 C1669 1.429 . S
C1650 H1674 0.950 . S
C1651 C1668 1.574 . S
C1651 C1670 1.368 . S
C1651 H1675 0.949 . S
H1652 C1656 0.949 . S
C1653 C1654 1.349 . S
C1653 C1655 1.327 . S
C1653 H1676 0.950 . S
C1654 C1653 1.349 . S
C1654 C1666 1.349 . S
C1655 C1653 1.327 . S
C1655 C1671 1.429 . S
C1655 H1677 0.950 . S
C1656 H1652 0.949 . S
C1656 C1664 1.574 . S
C1656 C1672 1.368 . S
H1657 C1665 0.950 . S
H1658 C1663 0.950 . S
H1659 C1664 0.949 . S
H1660 C1666 0.950 . S
H1661 C1667 0.950 . S
H1662 C1668 0.949 . S
C1663 H1658 0.950 . S
C1663 C1665 1.327 . S
C1663 C1669 1.429 . S
C1664 C1656 1.574 . S
C1664 H1659 0.949 . S
C1664 C1670 1.368 . S
C1665 C1649 1.349 . S
C1665 H1657 0.950 . S
C1665 C1663 1.327 . S
C1666 C1654 1.349 . S
C1666 H1660 0.950 . S
C1666 C1667 1.327 . S
C1667 H1661 0.950 . S
C1667 C1666 1.327 . S
C1667 C1671 1.429 . S
C1668 C1651 1.574 . S
C1668 H1662 0.949 . S
C1668 C1672 1.368 . S
C1669 C1650 1.429 . S
C1669 C1663 1.429 . S
C1669 C1670 1.523 . S
C1670 C1651 1.368 . S
C1670 C1664 1.368 . S
C1670 C1669 1.523 . S
C1671 C1655 1.429 . S
C1671 C1667 1.429 . S
C1671 C1672 1.523 . S
C1672 C1656 1.368 . S
C1672 C1668 1.368 . S
C1672 C1671 1.523 . S
H1673 C1648 0.950 . S
H1674 C1650 0.950 . S
H1675 C1651 0.949 . S
H1676 C1653 0.950 . S
H1677 C1655 0.950 . S
C1678 C1679 1.349 . S
C1678 C1680 1.327 . S
C1678 H1703 0.950 . S
C1679 C1678 1.349 . S
C1679 C1695 1.349 . S
C1680 C1678 1.327 . S
C1680 C1699 1.429 . S
C1680 H1704 0.950 . S
C1681 C1698 1.574 . S
C1681 C1700 1.368 . S
C1681 H1705 0.949 . S
H1682 C1686 0.949 . S
C1683 C1684 1.349 . S
C1683 C1685 1.327 . S
C1683 H1706 0.950 . S
C1684 C1683 1.349 . S
C1684 C1696 1.349 . S
C1685 C1683 1.327 . S
C1685 C1701 1.429 . S
C1685 H1707 0.950 . S
C1686 H1682 0.949 . S
C1686 C1694 1.574 . S
C1686 C1702 1.368 . S
H1687 C1695 0.950 . S
H1688 C1693 0.950 . S
H1689 C1694 0.949 . S
H1690 C1696 0.950 . S
H1691 C1697 0.950 . S
H1692 C1698 0.949 . S
C1693 H1688 0.950 . S
C1693 C1695 1.327 . S
C1693 C1699 1.429 . S
C1694 C1686 1.574 . S
C1694 H1689 0.949 . S
C1694 C1700 1.368 . S
C1695 C1679 1.349 . S
C1695 H1687 0.950 . S
C1695 C1693 1.327 . S
C1696 C1684 1.349 . S
C1696 H1690 0.950 . S
C1696 C1697 1.327 . S
C1697 H1691 0.950 . S
C1697 C1696 1.327 . S
C1697 C1701 1.429 . S
C1698 C1681 1.574 . S
C1698 H1692 0.949 . S
C1698 C1702 1.368 . S
C1699 C1680 1.429 . S
C1699 C1693 1.429 . S
C1699 C1700 1.523 . S
C1700 C1681 1.368 . S
C1700 C1694 1.368 . S
C1700 C1699 1.523 . S
C1701 C1685 1.429 . S
C1701 C1697 1.429 . S
C1701 C1702 1.523 . S
C1702 C1686 1.368 . S
C1702 C1698 1.368 . S
C1702 C1701 1.523 . S
H1703 C1678 0.950 . S
H1704 C1680 0.950 . S
H1705 C1681 0.949 . S
H1706 C1683 0.950 . S
H1707 C1685 0.950 . S
C1708 C1709 1.349 . S
C1708 C1710 1.327 . S
C1708 H1733 0.950 . S
C1709 C1708 1.349 . S
C1709 C1725 1.349 . S
C1710 C1708 1.327 . S
C1710 C1729 1.429 . S
C1710 H1734 0.950 . S
C1711 C1728 1.574 . S
C1711 C1730 1.368 . S
C1711 H1735 0.949 . S
H1712 C1716 0.949 . S
C1713 C1714 1.349 . S
C1713 C1715 1.327 . S
C1713 H1736 0.950 . S
C1714 C1713 1.349 . S
C1714 C1726 1.349 . S
C1715 C1713 1.327 . S
C1715 C1731 1.429 . S
C1715 H1737 0.950 . S
C1716 H1712 0.949 . S
C1716 C1724 1.574 . S
C1716 C1732 1.368 . S
H1717 C1725 0.950 . S
H1718 C1723 0.950 . S
H1719 C1724 0.949 . S
H1720 C1726 0.950 . S
H1721 C1727 0.950 . S
H1722 C1728 0.949 . S
C1723 H1718 0.950 . S
C1723 C1725 1.327 . S
C1723 C1729 1.429 . S
C1724 C1716 1.574 . S
C1724 H1719 0.949 . S
C1724 C1730 1.368 . S
C1725 C1709 1.349 . S
C1725 H1717 0.950 . S
C1725 C1723 1.327 . S
C1726 C1714 1.349 . S
C1726 H1720 0.950 . S
C1726 C1727 1.327 . S
C1727 H1721 0.950 . S
C1727 C1726 1.327 . S
C1727 C1731 1.429 . S
C1728 C1711 1.574 . S
C1728 H1722 0.949 . S
C1728 C1732 1.368 . S
C1729 C1710 1.429 . S
C1729 C1723 1.429 . S
C1729 C1730 1.523 . S
C1730 C1711 1.368 . S
C1730 C1724 1.368 . S
C1730 C1729 1.523 . S
C1731 C1715 1.429 . S
C1731 C1727 1.429 . S
C1731 C1732 1.523 . S
C1732 C1716 1.368 . S
C1732 C1728 1.368 . S
C1732 C1731 1.523 . S
H1733 C1708 0.950 . S
H1734 C1710 0.950 . S
H1735 C1711 0.949 . S
H1736 C1713 0.950 . S
H1737 C1715 0.950 . S
C1738 C1739 1.349 . S
C1738 C1740 1.327 . S
C1738 H1763 0.950 . S
C1739 C1738 1.349 . S
C1739 C1755 1.349 . S
C1740 C1738 1.327 . S
C1740 C1759 1.429 . S
C1740 H1764 0.950 . S
C1741 C1758 1.574 . S
C1741 C1760 1.368 . S
C1741 H1765 0.949 . S
H1742 C1746 0.949 . S
C1743 C1744 1.349 . S
C1743 C1745 1.327 . S
C1743 H1766 0.950 . S
C1744 C1743 1.349 . S
C1744 C1756 1.349 . S
C1745 C1743 1.327 . S
C1745 C1761 1.429 . S
C1745 H1767 0.950 . S
C1746 H1742 0.949 . S
C1746 C1754 1.574 . S
C1746 C1762 1.368 . S
H1747 C1755 0.950 . S
H1748 C1753 0.950 . S
H1749 C1754 0.949 . S
H1750 C1756 0.950 . S
H1751 C1757 0.950 . S
H1752 C1758 0.949 . S
C1753 H1748 0.950 . S
C1753 C1755 1.327 . S
C1753 C1759 1.429 . S
C1754 C1746 1.574 . S
C1754 H1749 0.949 . S
C1754 C1760 1.368 . S
C1755 C1739 1.349 . S
C1755 H1747 0.950 . S
C1755 C1753 1.327 . S
C1756 C1744 1.349 . S
C1756 H1750 0.950 . S
C1756 C1757 1.327 . S
C1757 H1751 0.950 . S
C1757 C1756 1.327 . S
C1757 C1761 1.429 . S
C1758 C1741 1.574 . S
C1758 H1752 0.949 . S
C1758 C1762 1.368 . S
C1759 C1740 1.429 . S
C1759 C1753 1.429 . S
C1759 C1760 1.523 . S
C1760 C1741 1.368 . S
C1760 C1754 1.368 . S
C1760 C1759 1.523 . S
C1761 C1745 1.429 . S
C1761 C1757 1.429 . S
C1761 C1762 1.523 . S
C1762 C1746 1.368 . S
C1762 C1758 1.368 . S
C1762 C1761 1.523 . S
H1763 C1738 0.950 . S
H1764 C1740 0.950 . S
H1765 C1741 0.949 . S
H1766 C1743 0.950 . S
H1767 C1745 0.950 . S
C1768 C1769 1.349 . S
C1768 C1770 1.327 . S
C1768 H1793 0.950 . S
C1769 C1768 1.349 . S
C1769 C1785 1.349 . S
C1770 C1768 1.327 . S
C1770 C1789 1.429 . S
C1770 H1794 0.950 . S
C1771 C1788 1.574 . S
C1771 C1790 1.368 . S
C1771 H1795 0.949 . S
H1772 C1776 0.949 . S
C1773 C1774 1.349 . S
C1773 C1775 1.327 . S
C1773 H1796 0.950 . S
C1774 C1773 1.349 . S
C1774 C1786 1.349 . S
C1775 C1773 1.327 . S
C1775 C1791 1.429 . S
C1775 H1797 0.950 . S
C1776 H1772 0.949 . S
C1776 C1784 1.574 . S
C1776 C1792 1.368 . S
H1777 C1785 0.950 . S
H1778 C1783 0.950 . S
H1779 C1784 0.949 . S
H1780 C1786 0.950 . S
H1781 C1787 0.950 . S
H1782 C1788 0.949 . S
C1783 H1778 0.950 . S
C1783 C1785 1.327 . S
C1783 C1789 1.429 . S
C1784 C1776 1.574 . S
C1784 H1779 0.949 . S
C1784 C1790 1.368 . S
C1785 C1769 1.349 . S
C1785 H1777 0.950 . S
C1785 C1783 1.327 . S
C1786 C1774 1.349 . S
C1786 H1780 0.950 . S
C1786 C1787 1.327 . S
C1787 H1781 0.950 . S
C1787 C1786 1.327 . S
C1787 C1791 1.429 . S
C1788 C1771 1.574 . S
C1788 H1782 0.949 . S
C1788 C1792 1.368 . S
C1789 C1770 1.429 . S
C1789 C1783 1.429 . S
C1789 C1790 1.523 . S
C1790 C1771 1.368 . S
C1790 C1784 1.368 . S
C1790 C1789 1.523 . S
C1791 C1775 1.429 . S
C1791 C1787 1.429 . S
C1791 C1792 1.523 . S
C1792 C1776 1.368 . S
C1792 C1788 1.368 . S
C1792 C1791 1.523 . S
H1793 C1768 0.950 . S
H1794 C1770 0.950 . S
H1795 C1771 0.949 . S
H1796 C1773 0.950 . S
H1797 C1775 0.950 . S
C1798 C1799 1.349 . S
C1798 C1800 1.327 . S
C1798 H1823 0.950 . S
C1799 C1798 1.349 . S
C1799 C1815 1.349 1_556 S
C1800 C1798 1.327 . S
C1800 C1819 1.429 . S
C1800 H1824 0.950 . S
C1801 C1818 1.574 . S
C1801 C1820 1.368 1_554 S
C1801 H1825 0.949 . S
H1802 C1806 0.949 . S
C1803 C1804 1.349 1_554 S
C1803 C1805 1.327 . S
C1803 H1826 0.950 . S
C1804 C1803 1.349 1_556 S
C1804 C1816 1.349 . S
C1805 C1803 1.327 . S
C1805 C1821 1.429 1_554 S
C1805 H1827 0.950 . S
C1806 H1802 0.949 . S
C1806 C1814 1.574 . S
C1806 C1822 1.368 . S
H1807 C1815 0.950 . S
H1808 C1813 0.950 . S
H1809 C1814 0.949 . S
H1810 C1816 0.950 . S
H1811 C1817 0.950 . S
H1812 C1818 0.949 . S
C1813 H1808 0.950 . S
C1813 C1815 1.327 . S
C1813 C1819 1.429 1_554 S
C1814 C1806 1.574 . S
C1814 H1809 0.949 . S
C1814 C1820 1.368 . S
C1815 C1799 1.349 1_554 S
C1815 H1807 0.950 . S
C1815 C1813 1.327 . S
C1816 C1804 1.349 . S
C1816 H1810 0.950 . S
C1816 C1817 1.327 . S
C1817 H1811 0.950 . S
C1817 C1816 1.327 . S
C1817 C1821 1.429 . S
C1818 C1801 1.574 . S
C1818 H1812 0.949 . S
C1818 C1822 1.368 1_554 S
C1819 C1800 1.429 . S
C1819 C1813 1.429 1_556 S
C1819 C1820 1.523 . S
C1820 C1801 1.368 1_556 S
C1820 C1814 1.368 . S
C1820 C1819 1.523 . S
C1821 C1805 1.429 1_556 S
C1821 C1817 1.429 . S
C1821 C1822 1.523 . S
C1822 C1806 1.368 . S
C1822 C1818 1.368 1_556 S
C1822 C1821 1.523 . S
H1823 C1798 0.950 . S
H1824 C1800 0.950 . S
H1825 C1801 0.949 . S
H1826 C1803 0.950 . S
H1827 C1805 0.950 . S
C1828 C1829 1.349 . S
C1828 C1830 1.327 . S
C1828 H1853 0.950 . S
C1829 C1828 1.349 . S
C1829 C1845 1.349 . S
C1830 C1828 1.327 . S
C1830 C1849 1.429 . S
C1830 H1854 0.950 . S
C1831 C1848 1.574 . S
C1831 C1850 1.368 . S
C1831 H1855 0.949 . S
H1832 C1836 0.949 . S
C1833 C1834 1.349 . S
C1833 C1835 1.327 . S
C1833 H1856 0.950 . S
C1834 C1833 1.349 . S
C1834 C1846 1.349 . S
C1835 C1833 1.327 . S
C1835 C1851 1.429 . S
C1835 H1857 0.950 . S
C1836 H1832 0.949 . S
C1836 C1844 1.574 . S
C1836 C1852 1.368 . S
H1837 C1845 0.950 . S
H1838 C1843 0.950 . S
H1839 C1844 0.949 . S
H1840 C1846 0.950 . S
H1841 C1847 0.950 . S
H1842 C1848 0.949 . S
C1843 H1838 0.950 . S
C1843 C1845 1.327 . S
C1843 C1849 1.429 . S
C1844 C1836 1.574 . S
C1844 H1839 0.949 . S
C1844 C1850 1.368 . S
C1845 C1829 1.349 . S
C1845 H1837 0.950 . S
C1845 C1843 1.327 . S
C1846 C1834 1.349 . S
C1846 H1840 0.950 . S
C1846 C1847 1.327 . S
C1847 H1841 0.950 . S
C1847 C1846 1.327 . S
C1847 C1851 1.429 . S
C1848 C1831 1.574 . S
C1848 H1842 0.949 . S
C1848 C1852 1.368 . S
C1849 C1830 1.429 . S
C1849 C1843 1.429 . S
C1849 C1850 1.523 . S
C1850 C1831 1.368 . S
C1850 C1844 1.368 . S
C1850 C1849 1.523 . S
C1851 C1835 1.429 . S
C1851 C1847 1.429 . S
C1851 C1852 1.523 . S
C1852 C1836 1.368 . S
C1852 C1848 1.368 . S
C1852 C1851 1.523 . S
H1853 C1828 0.950 . S
H1854 C1830 0.950 . S
H1855 C1831 0.949 . S
H1856 C1833 0.950 . S
H1857 C1835 0.950 . S
C1858 C1859 1.349 1_556 S
C1858 C1860 1.327 . S
C1858 H1883 0.950 . S
C1859 C1858 1.349 1_554 S
C1859 C1875 1.349 . S
C1860 C1858 1.327 . S
C1860 C1879 1.429 1_556 S
C1860 H1884 0.950 . S
C1861 C1878 1.574 . S
C1861 C1880 1.368 . S
C1861 H1885 0.949 . S
H1862 C1866 0.949 . S
C1863 C1864 1.349 . S
C1863 C1865 1.327 . S
C1863 H1886 0.950 . S
C1864 C1863 1.349 . S
C1864 C1876 1.349 1_554 S
C1865 C1863 1.327 . S
C1865 C1881 1.429 . S
C1865 H1887 0.950 . S
C1866 H1862 0.949 . S
C1866 C1874 1.574 . S
C1866 C1882 1.368 1_556 S
H1867 C1875 0.950 . S
H1868 C1873 0.950 . S
H1869 C1874 0.949 . S
H1870 C1876 0.950 . S
H1871 C1877 0.950 . S
H1872 C1878 0.949 . S
C1873 H1868 0.950 . S
C1873 C1875 1.327 . S
C1873 C1879 1.429 . S
C1874 C1866 1.574 . S
C1874 H1869 0.949 . S
C1874 C1880 1.368 1_556 S
C1875 C1859 1.349 . S
C1875 H1867 0.950 . S
C1875 C1873 1.327 . S
C1876 C1864 1.349 1_556 S
C1876 H1870 0.950 . S
C1876 C1877 1.327 . S
C1877 H1871 0.950 . S
C1877 C1876 1.327 . S
C1877 C1881 1.429 1_556 S
C1878 C1861 1.574 . S
C1878 H1872 0.949 . S
C1878 C1882 1.368 . S
C1879 C1860 1.429 1_554 S
C1879 C1873 1.429 . S
C1879 C1880 1.523 . S
C1880 C1861 1.368 . S
C1880 C1874 1.368 1_554 S
C1880 C1879 1.523 . S
C1881 C1865 1.429 . S
C1881 C1877 1.429 1_554 S
C1881 C1882 1.523 . S
C1882 C1866 1.368 1_554 S
C1882 C1878 1.368 . S
C1882 C1881 1.523 . S
H1883 C1858 0.950 . S
H1884 C1860 0.950 . S
H1885 C1861 0.949 . S
H1886 C1863 0.950 . S
H1887 C1865 0.950 . S
C1888 C1889 1.349 . S
C1888 C1890 1.327 . S
C1888 H1913 0.950 . S
C1889 C1888 1.349 . S
C1889 C1905 1.349 . S
C1890 C1888 1.327 . S
C1890 C1909 1.429 . S
C1890 H1914 0.950 . S
C1891 C1908 1.574 . S
C1891 C1910 1.368 . S
C1891 H1915 0.949 . S
H1892 C1896 0.949 . S
C1893 C1894 1.349 . S
C1893 C1895 1.327 . S
C1893 H1916 0.950 . S
C1894 C1893 1.349 . S
C1894 C1906 1.349 . S
C1895 C1893 1.327 . S
C1895 C1911 1.429 . S
C1895 H1917 0.950 . S
C1896 H1892 0.949 . S
C1896 C1904 1.574 . S
C1896 C1912 1.368 . S
H1897 C1905 0.950 1_455 S
H1898 C1903 0.950 . S
H1899 C1904 0.949 . S
H1900 C1906 0.950 . S
H1901 C1907 0.950 . S
H1902 C1908 0.949 . S
C1903 H1898 0.950 . S
C1903 C1905 1.327 . S
C1903 C1909 1.429 . S
C1904 C1896 1.574 . S
C1904 H1899 0.949 . S
C1904 C1910 1.368 . S
C1905 C1889 1.349 . S
C1905 H1897 0.950 1_655 S
C1905 C1903 1.327 . S
C1906 C1894 1.349 . S
C1906 H1900 0.950 . S
C1906 C1907 1.327 . S
C1907 H1901 0.950 . S
C1907 C1906 1.327 . S
C1907 C1911 1.429 . S
C1908 C1891 1.574 . S
C1908 H1902 0.949 . S
C1908 C1912 1.368 . S
C1909 C1890 1.429 . S
C1909 C1903 1.429 . S
C1909 C1910 1.523 . S
C1910 C1891 1.368 . S
C1910 C1904 1.368 . S
C1910 C1909 1.523 . S
C1911 C1895 1.429 . S
C1911 C1907 1.429 . S
C1911 C1912 1.523 . S
C1912 C1896 1.368 . S
C1912 C1908 1.368 . S
C1912 C1911 1.523 . S
H1913 C1888 0.950 . S
H1914 C1890 0.950 . S
H1915 C1891 0.949 . S
H1916 C1893 0.950 . S
H1917 C1895 0.950 . S
C1918 C1919 1.349 . S
C1918 C1920 1.327 . S
C1918 H1943 0.950 . S
C1919 C1918 1.349 . S
C1919 C1935 1.349 . S
C1920 C1918 1.327 . S
C1920 C1939 1.429 . S
C1920 H1944 0.950 . S
C1921 C1938 1.574 . S
C1921 C1940 1.368 . S
C1921 H1945 0.949 . S
H1922 C1926 0.949 . S
C1923 C1924 1.349 . S
C1923 C1925 1.327 . S
C1923 H1946 0.950 . S
C1924 C1923 1.349 . S
C1924 C1936 1.349 . S
C1925 C1923 1.327 . S
C1925 C1941 1.429 . S
C1925 H1947 0.950 . S
C1926 H1922 0.949 . S
C1926 C1934 1.574 . S
C1926 C1942 1.368 . S
H1927 C1935 0.950 . S
H1928 C1933 0.950 . S
H1929 C1934 0.949 . S
H1930 C1936 0.950 . S
H1931 C1937 0.950 . S
H1932 C1938 0.949 . S
C1933 H1928 0.950 . S
C1933 C1935 1.327 . S
C1933 C1939 1.429 . S
C1934 C1926 1.574 . S
C1934 H1929 0.949 . S
C1934 C1940 1.368 . S
C1935 C1919 1.349 . S
C1935 H1927 0.950 . S
C1935 C1933 1.327 . S
C1936 C1924 1.349 . S
C1936 H1930 0.950 . S
C1936 C1937 1.327 . S
C1937 H1931 0.950 . S
C1937 C1936 1.327 . S
C1937 C1941 1.429 . S
C1938 C1921 1.574 . S
C1938 H1932 0.949 . S
C1938 C1942 1.368 . S
C1939 C1920 1.429 . S
C1939 C1933 1.429 . S
C1939 C1940 1.523 . S
C1940 C1921 1.368 . S
C1940 C1934 1.368 . S
C1940 C1939 1.523 . S
C1941 C1925 1.429 . S
C1941 C1937 1.429 . S
C1941 C1942 1.523 . S
C1942 C1926 1.368 . S
C1942 C1938 1.368 . S
C1942 C1941 1.523 . S
H1943 C1918 0.950 . S
H1944 C1920 0.950 . S
H1945 C1921 0.949 . S
H1946 C1923 0.950 . S
H1947 C1925 0.950 . S
C1948 C1949 1.349 . S
C1948 C1950 1.327 . S
C1948 H1973 0.950 . S
C1949 C1948 1.349 . S
C1949 C1965 1.349 . S
C1950 C1948 1.327 . S
C1950 C1969 1.429 . S
C1950 H1974 0.950 . S
C1951 C1968 1.574 . S
C1951 C1970 1.368 . S
C1951 H1975 0.949 . S
H1952 C1956 0.949 . S
C1953 C1954 1.349 . S
C1953 C1955 1.327 . S
C1953 H1976 0.950 . S
C1954 C1953 1.349 . S
C1954 C1966 1.349 . S
C1955 C1953 1.327 . S
C1955 C1971 1.429 . S
C1955 H1977 0.950 . S
C1956 H1952 0.949 . S
C1956 C1964 1.574 . S
C1956 C1972 1.368 . S
H1957 C1965 0.950 . S
H1958 C1963 0.950 . S
H1959 C1964 0.949 . S
H1960 C1966 0.950 1_455 S
H1961 C1967 0.950 . S
H1962 C1968 0.949 . S
C1963 H1958 0.950 . S
C1963 C1965 1.327 . S
C1963 C1969 1.429 . S
C1964 C1956 1.574 . S
C1964 H1959 0.949 . S
C1964 C1970 1.368 . S
C1965 C1949 1.349 . S
C1965 H1957 0.950 . S
C1965 C1963 1.327 . S
C1966 C1954 1.349 . S
C1966 H1960 0.950 1_655 S
C1966 C1967 1.327 . S
C1967 H1961 0.950 . S
C1967 C1966 1.327 . S
C1967 C1971 1.429 . S
C1968 C1951 1.574 . S
C1968 H1962 0.949 . S
C1968 C1972 1.368 . S
C1969 C1950 1.429 . S
C1969 C1963 1.429 . S
C1969 C1970 1.523 . S
C1970 C1951 1.368 . S
C1970 C1964 1.368 . S
C1970 C1969 1.523 . S
C1971 C1955 1.429 . S
C1971 C1967 1.429 . S
C1971 C1972 1.523 . S
C1972 C1956 1.368 . S
C1972 C1968 1.368 . S
C1972 C1971 1.523 . S
H1973 C1948 0.950 . S
H1974 C1950 0.950 . S
H1975 C1951 0.949 . S
H1976 C1953 0.950 . S
H1977 C1955 0.950 . S
C1978 C1979 1.349 . S
C1978 C1980 1.327 . S
C1978 H2003 0.950 . S
C1979 C1978 1.349 . S
C1979 C1995 1.349 . S
C1980 C1978 1.327 . S
C1980 C1999 1.429 . S
C1980 H2004 0.950 . S
C1981 C1998 1.574 . S
C1981 C2000 1.368 . S
C1981 H2005 0.949 . S
H1982 C1986 0.949 . S
C1983 C1984 1.349 . S
C1983 C1985 1.327 . S
C1983 H2006 0.950 . S
C1984 C1983 1.349 . S
C1984 C1996 1.349 . S
C1985 C1983 1.327 . S
C1985 C2001 1.429 . S
C1985 H2007 0.950 . S
C1986 H1982 0.949 . S
C1986 C1994 1.574 . S
C1986 C2002 1.368 . S
H1987 C1995 0.950 . S
H1988 C1993 0.950 . S
H1989 C1994 0.949 . S
H1990 C1996 0.950 . S
H1991 C1997 0.950 . S
H1992 C1998 0.949 . S
C1993 H1988 0.950 . S
C1993 C1995 1.327 . S
C1993 C1999 1.429 . S
C1994 C1986 1.574 . S
C1994 H1989 0.949 . S
C1994 C2000 1.368 . S
C1995 C1979 1.349 . S
C1995 H1987 0.950 . S
C1995 C1993 1.327 . S
C1996 C1984 1.349 . S
C1996 H1990 0.950 . S
C1996 C1997 1.327 . S
C1997 H1991 0.950 . S
C1997 C1996 1.327 . S
C1997 C2001 1.429 . S
C1998 C1981 1.574 . S
C1998 H1992 0.949 . S
C1998 C2002 1.368 . S
C1999 C1980 1.429 . S
C1999 C1993 1.429 . S
C1999 C2000 1.523 . S
C2000 C1981 1.368 . S
C2000 C1994 1.368 . S
C2000 C1999 1.523 . S
C2001 C1985 1.429 . S
C2001 C1997 1.429 . S
C2001 C2002 1.523 . S
C2002 C1986 1.368 . S
C2002 C1998 1.368 . S
C2002 C2001 1.523 . S
H2003 C1978 0.950 . S
H2004 C1980 0.950 . S
H2005 C1981 0.949 . S
H2006 C1983 0.950 . S
H2007 C1985 0.950 . S
C2008 C2009 1.349 . S
C2008 C2010 1.327 . S
C2008 H2033 0.950 . S
C2009 C2008 1.349 . S
C2009 C2025 1.349 . S
C2010 C2008 1.327 . S
C2010 C2029 1.429 . S
C2010 H2034 0.950 . S
C2011 C2028 1.574 . S
C2011 C2030 1.368 . S
C2011 H2035 0.949 . S
H2012 C2016 0.949 . S
C2013 C2014 1.349 . S
C2013 C2015 1.327 . S
C2013 H2036 0.950 1_455 S
C2014 C2013 1.349 . S
C2014 C2026 1.349 . S
C2015 C2013 1.327 . S
C2015 C2031 1.429 . S
C2015 H2037 0.950 . S
C2016 H2012 0.949 . S
C2016 C2024 1.574 . S
C2016 C2032 1.368 . S
H2017 C2025 0.950 . S
H2018 C2023 0.950 . S
H2019 C2024 0.949 . S
H2020 C2026 0.950 . S
H2021 C2027 0.950 . S
H2022 C2028 0.949 . S
C2023 H2018 0.950 . S
C2023 C2025 1.327 . S
C2023 C2029 1.429 . S
C2024 C2016 1.574 . S
C2024 H2019 0.949 . S
C2024 C2030 1.368 . S
C2025 C2009 1.349 . S
C2025 H2017 0.950 . S
C2025 C2023 1.327 . S
C2026 C2014 1.349 . S
C2026 H2020 0.950 . S
C2026 C2027 1.327 . S
C2027 H2021 0.950 . S
C2027 C2026 1.327 . S
C2027 C2031 1.429 . S
C2028 C2011 1.574 . S
C2028 H2022 0.949 . S
C2028 C2032 1.368 . S
C2029 C2010 1.429 . S
C2029 C2023 1.429 . S
C2029 C2030 1.523 . S
C2030 C2011 1.368 . S
C2030 C2024 1.368 . S
C2030 C2029 1.523 . S
C2031 C2015 1.429 . S
C2031 C2027 1.429 . S
C2031 C2032 1.523 . S
C2032 C2016 1.368 . S
C2032 C2028 1.368 . S
C2032 C2031 1.523 . S
H2033 C2008 0.950 . S
H2034 C2010 0.950 . S
H2035 C2011 0.949 . S
H2036 C2013 0.950 1_655 S
H2037 C2015 0.950 . S
C2038 C2039 1.349 . S
C2038 C2040 1.327 . S
C2038 H2063 0.950 . S
C2039 C2038 1.349 . S
C2039 C2055 1.349 . S
C2040 C2038 1.327 . S
C2040 C2059 1.429 . S
C2040 H2064 0.950 . S
C2041 C2058 1.574 . S
C2041 C2060 1.368 . S
C2041 H2065 0.949 . S
H2042 C2046 0.949 . S
C2043 C2044 1.349 . S
C2043 C2045 1.327 . S
C2043 H2066 0.950 . S
C2044 C2043 1.349 . S
C2044 C2056 1.349 . S
C2045 C2043 1.327 . S
C2045 C2061 1.429 . S
C2045 H2067 0.950 . S
C2046 H2042 0.949 . S
C2046 C2054 1.574 . S
C2046 C2062 1.368 . S
H2047 C2055 0.950 . S
H2048 C2053 0.950 . S
H2049 C2054 0.949 . S
H2050 C2056 0.950 . S
H2051 C2057 0.950 . S
H2052 C2058 0.949 . S
C2053 H2048 0.950 . S
C2053 C2055 1.327 . S
C2053 C2059 1.429 . S
C2054 C2046 1.574 . S
C2054 H2049 0.949 . S
C2054 C2060 1.368 . S
C2055 C2039 1.349 . S
C2055 H2047 0.950 . S
C2055 C2053 1.327 . S
C2056 C2044 1.349 . S
C2056 H2050 0.950 . S
C2056 C2057 1.327 . S
C2057 H2051 0.950 . S
C2057 C2056 1.327 . S
C2057 C2061 1.429 . S
C2058 C2041 1.574 . S
C2058 H2052 0.949 . S
C2058 C2062 1.368 . S
C2059 C2040 1.429 . S
C2059 C2053 1.429 . S
C2059 C2060 1.523 . S
C2060 C2041 1.368 . S
C2060 C2054 1.368 . S
C2060 C2059 1.523 . S
C2061 C2045 1.429 . S
C2061 C2057 1.429 . S
C2061 C2062 1.523 . S
C2062 C2046 1.368 . S
C2062 C2058 1.368 . S
C2062 C2061 1.523 . S
H2063 C2038 0.950 . S
H2064 C2040 0.950 . S
H2065 C2041 0.949 . S
H2066 C2043 0.950 . S
H2067 C2045 0.950 . S
C2068 C2069 1.349 . S
C2068 C2070 1.327 . S
C2068 H2093 0.950 . S
C2069 C2068 1.349 . S
C2069 C2085 1.349 . S
C2070 C2068 1.327 . S
C2070 C2089 1.429 . S
C2070 H2094 0.950 . S
C2071 C2088 1.574 . S
C2071 C2090 1.368 . S
C2071 H2095 0.949 . S
H2072 C2076 0.949 . S
C2073 C2074 1.349 . S
C2073 C2075 1.327 . S
C2073 H2096 0.950 . S
C2074 C2073 1.349 . S
C2074 C2086 1.349 . S
C2075 C2073 1.327 . S
C2075 C2091 1.429 . S
C2075 H2097 0.950 . S
C2076 H2072 0.949 . S
C2076 C2084 1.574 . S
C2076 C2092 1.368 . S
H2077 C2085 0.950 . S
H2078 C2083 0.950 . S
H2079 C2084 0.949 . S
H2080 C2086 0.950 1_655 S
H2081 C2087 0.950 . S
H2082 C2088 0.949 . S
C2083 H2078 0.950 . S
C2083 C2085 1.327 . S
C2083 C2089 1.429 . S
C2084 C2076 1.574 . S
C2084 H2079 0.949 . S
C2084 C2090 1.368 . S
C2085 C2069 1.349 . S
C2085 H2077 0.950 . S
C2085 C2083 1.327 . S
C2086 C2074 1.349 . S
C2086 H2080 0.950 1_455 S
C2086 C2087 1.327 . S
C2087 H2081 0.950 . S
C2087 C2086 1.327 . S
C2087 C2091 1.429 . S
C2088 C2071 1.574 . S
C2088 H2082 0.949 . S
C2088 C2092 1.368 . S
C2089 C2070 1.429 . S
C2089 C2083 1.429 . S
C2089 C2090 1.523 . S
C2090 C2071 1.368 . S
C2090 C2084 1.368 . S
C2090 C2089 1.523 . S
C2091 C2075 1.429 . S
C2091 C2087 1.429 . S
C2091 C2092 1.523 . S
C2092 C2076 1.368 . S
C2092 C2088 1.368 . S
C2092 C2091 1.523 . S
H2093 C2068 0.950 . S
H2094 C2070 0.950 . S
H2095 C2071 0.949 . S
H2096 C2073 0.950 . S
H2097 C2075 0.950 . S
C2098 C2099 1.349 . S
C2098 C2100 1.327 . S
C2098 H2123 0.950 . S
C2099 C2098 1.349 . S
C2099 C2115 1.349 . S
C2100 C2098 1.327 . S
C2100 C2119 1.429 . S
C2100 H2124 0.950 . S
C2101 C2118 1.574 . S
C2101 C2120 1.368 . S
C2101 H2125 0.949 . S
H2102 C2106 0.949 . S
C2103 C2104 1.349 . S
C2103 C2105 1.327 . S
C2103 H2126 0.950 . S
C2104 C2103 1.349 . S
C2104 C2116 1.349 . S
C2105 C2103 1.327 . S
C2105 C2121 1.429 . S
C2105 H2127 0.950 . S
C2106 H2102 0.949 . S
C2106 C2114 1.574 . S
C2106 C2122 1.368 . S
H2107 C2115 0.950 . S
H2108 C2113 0.950 . S
H2109 C2114 0.949 . S
H2110 C2116 0.950 . S
H2111 C2117 0.950 . S
H2112 C2118 0.949 . S
C2113 H2108 0.950 . S
C2113 C2115 1.327 . S
C2113 C2119 1.429 . S
C2114 C2106 1.574 . S
C2114 H2109 0.949 . S
C2114 C2120 1.368 . S
C2115 C2099 1.349 . S
C2115 H2107 0.950 . S
C2115 C2113 1.327 . S
C2116 C2104 1.349 . S
C2116 H2110 0.950 . S
C2116 C2117 1.327 . S
C2117 H2111 0.950 . S
C2117 C2116 1.327 . S
C2117 C2121 1.429 . S
C2118 C2101 1.574 . S
C2118 H2112 0.949 . S
C2118 C2122 1.368 . S
C2119 C2100 1.429 . S
C2119 C2113 1.429 . S
C2119 C2120 1.523 . S
C2120 C2101 1.368 . S
C2120 C2114 1.368 . S
C2120 C2119 1.523 . S
C2121 C2105 1.429 . S
C2121 C2117 1.429 . S
C2121 C2122 1.523 . S
C2122 C2106 1.368 . S
C2122 C2118 1.368 . S
C2122 C2121 1.523 . S
H2123 C2098 0.950 . S
H2124 C2100 0.950 . S
H2125 C2101 0.949 . S
H2126 C2103 0.950 . S
H2127 C2105 0.950 . S
C2128 C2129 1.349 . S
C2128 C2130 1.327 . S
C2128 H2153 0.950 . S
C2129 C2128 1.349 . S
C2129 C2145 1.349 . S
C2130 C2128 1.327 . S
C2130 C2149 1.429 . S
C2130 H2154 0.950 . S
C2131 C2148 1.574 . S
C2131 C2150 1.368 . S
C2131 H2155 0.949 . S
H2132 C2136 0.949 . S
C2133 C2134 1.349 . S
C2133 C2135 1.327 . S
C2133 H2156 0.950 . S
C2134 C2133 1.349 . S
C2134 C2146 1.349 . S
C2135 C2133 1.327 . S
C2135 C2151 1.429 . S
C2135 H2157 0.950 . S
C2136 H2132 0.949 . S
C2136 C2144 1.574 . S
C2136 C2152 1.368 . S
H2137 C2145 0.950 1_455 S
H2138 C2143 0.950 . S
H2139 C2144 0.949 . S
H2140 C2146 0.950 . S
H2141 C2147 0.950 . S
H2142 C2148 0.949 . S
C2143 H2138 0.950 . S
C2143 C2145 1.327 . S
C2143 C2149 1.429 . S
C2144 C2136 1.574 . S
C2144 H2139 0.949 . S
C2144 C2150 1.368 . S
C2145 C2129 1.349 . S
C2145 H2137 0.950 1_655 S
C2145 C2143 1.327 . S
C2146 C2134 1.349 . S
C2146 H2140 0.950 . S
C2146 C2147 1.327 . S
C2147 H2141 0.950 . S
C2147 C2146 1.327 . S
C2147 C2151 1.429 . S
C2148 C2131 1.574 . S
C2148 H2142 0.949 . S
C2148 C2152 1.368 . S
C2149 C2130 1.429 . S
C2149 C2143 1.429 . S
C2149 C2150 1.523 . S
C2150 C2131 1.368 . S
C2150 C2144 1.368 . S
C2150 C2149 1.523 . S
C2151 C2135 1.429 . S
C2151 C2147 1.429 . S
C2151 C2152 1.523 . S
C2152 C2136 1.368 . S
C2152 C2148 1.368 . S
C2152 C2151 1.523 . S
H2153 C2128 0.950 . S
H2154 C2130 0.950 . S
H2155 C2131 0.949 . S
H2156 C2133 0.950 . S
H2157 C2135 0.950 . S
C2158 C2159 1.349 . S
C2158 C2160 1.327 . S
C2158 H2183 0.950 . S
C2159 C2158 1.349 . S
C2159 C2175 1.349 . S
C2160 C2158 1.327 . S
C2160 C2179 1.429 . S
C2160 H2184 0.950 . S
C2161 C2178 1.574 . S
C2161 C2180 1.368 . S
C2161 H2185 0.949 . S
H2162 C2166 0.949 . S
C2163 C2164 1.349 . S
C2163 C2165 1.327 . S
C2163 H2186 0.950 . S
C2164 C2163 1.349 . S
C2164 C2176 1.349 . S
C2165 C2163 1.327 . S
C2165 C2181 1.429 . S
C2165 H2187 0.950 . S
C2166 H2162 0.949 . S
C2166 C2174 1.574 . S
C2166 C2182 1.368 . S
H2167 C2175 0.950 . S
H2168 C2173 0.950 . S
H2169 C2174 0.949 . S
H2170 C2176 0.950 . S
H2171 C2177 0.950 . S
H2172 C2178 0.949 . S
C2173 H2168 0.950 . S
C2173 C2175 1.327 . S
C2173 C2179 1.429 . S
C2174 C2166 1.574 . S
C2174 H2169 0.949 . S
C2174 C2180 1.368 . S
C2175 C2159 1.349 . S
C2175 H2167 0.950 . S
C2175 C2173 1.327 . S
C2176 C2164 1.349 . S
C2176 H2170 0.950 . S
C2176 C2177 1.327 . S
C2177 H2171 0.950 . S
C2177 C2176 1.327 . S
C2177 C2181 1.429 . S
C2178 C2161 1.574 . S
C2178 H2172 0.949 . S
C2178 C2182 1.368 . S
C2179 C2160 1.429 . S
C2179 C2173 1.429 . S
C2179 C2180 1.523 . S
C2180 C2161 1.368 . S
C2180 C2174 1.368 . S
C2180 C2179 1.523 . S
C2181 C2165 1.429 . S
C2181 C2177 1.429 . S
C2181 C2182 1.523 . S
C2182 C2166 1.368 . S
C2182 C2178 1.368 . S
C2182 C2181 1.523 . S
H2183 C2158 0.950 . S
H2184 C2160 0.950 . S
H2185 C2161 0.949 . S
H2186 C2163 0.950 . S
H2187 C2165 0.950 . S
C2188 C2189 1.349 . S
C2188 C2190 1.327 . S
C2188 H2213 0.950 . S
C2189 C2188 1.349 . S
C2189 C2205 1.349 . S
C2190 C2188 1.327 . S
C2190 C2209 1.429 . S
C2190 H2214 0.950 . S
C2191 C2208 1.574 . S
C2191 C2210 1.368 . S
C2191 H2215 0.949 . S
H2192 C2196 0.949 . S
C2193 C2194 1.349 . S
C2193 C2195 1.327 . S
C2193 H2216 0.950 . S
C2194 C2193 1.349 . S
C2194 C2206 1.349 . S
C2195 C2193 1.327 . S
C2195 C2211 1.429 . S
C2195 H2217 0.950 . S
C2196 H2192 0.949 . S
C2196 C2204 1.574 . S
C2196 C2212 1.368 . S
H2197 C2205 0.950 1_455 S
H2198 C2203 0.950 . S
H2199 C2204 0.949 . S
H2200 C2206 0.950 . S
H2201 C2207 0.950 . S
H2202 C2208 0.949 . S
C2203 H2198 0.950 . S
C2203 C2205 1.327 . S
C2203 C2209 1.429 . S
C2204 C2196 1.574 . S
C2204 H2199 0.949 . S
C2204 C2210 1.368 . S
C2205 C2189 1.349 . S
C2205 H2197 0.950 1_655 S
C2205 C2203 1.327 . S
C2206 C2194 1.349 . S
C2206 H2200 0.950 . S
C2206 C2207 1.327 . S
C2207 H2201 0.950 . S
C2207 C2206 1.327 . S
C2207 C2211 1.429 . S
C2208 C2191 1.574 . S
C2208 H2202 0.949 . S
C2208 C2212 1.368 . S
C2209 C2190 1.429 . S
C2209 C2203 1.429 . S
C2209 C2210 1.523 . S
C2210 C2191 1.368 . S
C2210 C2204 1.368 . S
C2210 C2209 1.523 . S
C2211 C2195 1.429 . S
C2211 C2207 1.429 . S
C2211 C2212 1.523 . S
C2212 C2196 1.368 . S
C2212 C2208 1.368 . S
C2212 C2211 1.523 . S
H2213 C2188 0.950 . S
H2214 C2190 0.950 . S
H2215 C2191 0.949 . S
H2216 C2193 0.950 . S
H2217 C2195 0.950 . S
C2218 C2219 1.349 . S
C2218 C2220 1.327 . S
C2218 H2243 0.950 . S
C2219 C2218 1.349 . S
C2219 C2235 1.349 . S
C2220 C2218 1.327 . S
C2220 C2239 1.429 . S
C2220 H2244 0.950 . S
C2221 C2238 1.574 . S
C2221 C2240 1.368 . S
C2221 H2245 0.949 . S
H2222 C2226 0.949 . S
C2223 C2224 1.349 . S
C2223 C2225 1.327 . S
C2223 H2246 0.950 . S
C2224 C2223 1.349 . S
C2224 C2236 1.349 . S
C2225 C2223 1.327 . S
C2225 C2241 1.429 . S
C2225 H2247 0.950 . S
C2226 H2222 0.949 . S
C2226 C2234 1.574 . S
C2226 C2242 1.368 . S
H2227 C2235 0.950 . S
H2228 C2233 0.950 . S
H2229 C2234 0.949 . S
H2230 C2236 0.950 . S
H2231 C2237 0.950 . S
H2232 C2238 0.949 . S
C2233 H2228 0.950 . S
C2233 C2235 1.327 . S
C2233 C2239 1.429 . S
C2234 C2226 1.574 . S
C2234 H2229 0.949 . S
C2234 C2240 1.368 . S
C2235 C2219 1.349 . S
C2235 H2227 0.950 . S
C2235 C2233 1.327 . S
C2236 C2224 1.349 . S
C2236 H2230 0.950 . S
C2236 C2237 1.327 . S
C2237 H2231 0.950 . S
C2237 C2236 1.327 . S
C2237 C2241 1.429 . S
C2238 C2221 1.574 . S
C2238 H2232 0.949 . S
C2238 C2242 1.368 . S
C2239 C2220 1.429 . S
C2239 C2233 1.429 . S
C2239 C2240 1.523 . S
C2240 C2221 1.368 . S
C2240 C2234 1.368 . S
C2240 C2239 1.523 . S
C2241 C2225 1.429 . S
C2241 C2237 1.429 . S
C2241 C2242 1.523 . S
C2242 C2226 1.368 . S
C2242 C2238 1.368 . S
C2242 C2241 1.523 . S
H2243 C2218 0.950 . S
H2244 C2220 0.950 . S
H2245 C2221 0.949 . S
H2246 C2223 0.950 . S
H2247 C2225 0.950 . S
C2248 C2249 1.349 . S
C2248 C2250 1.327 . S
C2248 H2273 0.950 . S
C2249 C2248 1.349 . S
C2249 C2265 1.349 . S
C2250 C2248 1.327 . S
C2250 C2269 1.429 . S
C2250 H2274 0.950 . S
C2251 C2268 1.574 . S
C2251 C2270 1.368 . S
C2251 H2275 0.949 . S
H2252 C2256 0.949 . S
C2253 C2254 1.349 . S
C2253 C2255 1.327 . S
C2253 H2276 0.950 . S
C2254 C2253 1.349 . S
C2254 C2266 1.349 . S
C2255 C2253 1.327 . S
C2255 C2271 1.429 . S
C2255 H2277 0.950 . S
C2256 H2252 0.949 . S
C2256 C2264 1.574 . S
C2256 C2272 1.368 . S
H2257 C2265 0.950 1_655 S
H2258 C2263 0.950 . S
H2259 C2264 0.949 . S
H2260 C2266 0.950 . S
H2261 C2267 0.950 . S
H2262 C2268 0.949 . S
C2263 H2258 0.950 . S
C2263 C2265 1.327 . S
C2263 C2269 1.429 . S
C2264 C2256 1.574 . S
C2264 H2259 0.949 . S
C2264 C2270 1.368 . S
C2265 C2249 1.349 . S
C2265 H2257 0.950 1_455 S
C2265 C2263 1.327 . S
C2266 C2254 1.349 . S
C2266 H2260 0.950 . S
C2266 C2267 1.327 . S
C2267 H2261 0.950 . S
C2267 C2266 1.327 . S
C2267 C2271 1.429 . S
C2268 C2251 1.574 . S
C2268 H2262 0.949 . S
C2268 C2272 1.368 . S
C2269 C2250 1.429 . S
C2269 C2263 1.429 . S
C2269 C2270 1.523 . S
C2270 C2251 1.368 . S
C2270 C2264 1.368 . S
C2270 C2269 1.523 . S
C2271 C2255 1.429 . S
C2271 C2267 1.429 . S
C2271 C2272 1.523 . S
C2272 C2256 1.368 . S
C2272 C2268 1.368 . S
C2272 C2271 1.523 . S
H2273 C2248 0.950 . S
H2274 C2250 0.950 . S
H2275 C2251 0.949 . S
H2276 C2253 0.950 . S
H2277 C2255 0.950 . S
C2278 C2279 1.349 . S
C2278 C2280 1.327 . S
C2278 H2303 0.950 . S
C2279 C2278 1.349 . S
C2279 C2295 1.349 . S
C2280 C2278 1.327 . S
C2280 C2299 1.429 . S
C2280 H2304 0.950 . S
C2281 C2298 1.574 . S
C2281 C2300 1.368 . S
C2281 H2305 0.949 . S
H2282 C2286 0.949 . S
C2283 C2284 1.349 . S
C2283 C2285 1.327 . S
C2283 H2306 0.950 . S
C2284 C2283 1.349 . S
C2284 C2296 1.349 . S
C2285 C2283 1.327 . S
C2285 C2301 1.429 . S
C2285 H2307 0.950 . S
C2286 H2282 0.949 . S
C2286 C2294 1.574 . S
C2286 C2302 1.368 . S
H2287 C2295 0.950 . S
H2288 C2293 0.950 . S
H2289 C2294 0.949 . S
H2290 C2296 0.950 . S
H2291 C2297 0.950 . S
H2292 C2298 0.949 . S
C2293 H2288 0.950 . S
C2293 C2295 1.327 . S
C2293 C2299 1.429 . S
C2294 C2286 1.574 . S
C2294 H2289 0.949 . S
C2294 C2300 1.368 . S
C2295 C2279 1.349 . S
C2295 H2287 0.950 . S
C2295 C2293 1.327 . S
C2296 C2284 1.349 . S
C2296 H2290 0.950 . S
C2296 C2297 1.327 . S
C2297 H2291 0.950 . S
C2297 C2296 1.327 . S
C2297 C2301 1.429 . S
C2298 C2281 1.574 . S
C2298 H2292 0.949 . S
C2298 C2302 1.368 . S
C2299 C2280 1.429 . S
C2299 C2293 1.429 . S
C2299 C2300 1.523 . S
C2300 C2281 1.368 . S
C2300 C2294 1.368 . S
C2300 C2299 1.523 . S
C2301 C2285 1.429 . S
C2301 C2297 1.429 . S
C2301 C2302 1.523 . S
C2302 C2286 1.368 . S
C2302 C2298 1.368 . S
C2302 C2301 1.523 . S
H2303 C2278 0.950 . S
H2304 C2280 0.950 . S
H2305 C2281 0.949 . S
H2306 C2283 0.950 . S
H2307 C2285 0.950 . S
C2308 C2309 1.349 . S
C2308 C2310 1.327 . S
C2308 H2333 0.950 1_455 S
C2309 C2308 1.349 . S
C2309 C2325 1.349 . S
C2310 C2308 1.327 . S
C2310 C2329 1.429 . S
C2310 H2334 0.950 . S
C2311 C2328 1.574 . S
C2311 C2330 1.368 . S
C2311 H2335 0.949 . S
H2312 C2316 0.949 . S
C2313 C2314 1.349 . S
C2313 C2315 1.327 . S
C2313 H2336 0.950 . S
C2314 C2313 1.349 . S
C2314 C2326 1.349 . S
C2315 C2313 1.327 . S
C2315 C2331 1.429 . S
C2315 H2337 0.950 . S
C2316 H2312 0.949 . S
C2316 C2324 1.574 . S
C2316 C2332 1.368 . S
H2317 C2325 0.950 . S
H2318 C2323 0.950 . S
H2319 C2324 0.949 . S
H2320 C2326 0.950 . S
H2321 C2327 0.950 . S
H2322 C2328 0.949 . S
C2323 H2318 0.950 . S
C2323 C2325 1.327 . S
C2323 C2329 1.429 . S
C2324 C2316 1.574 . S
C2324 H2319 0.949 . S
C2324 C2330 1.368 . S
C2325 C2309 1.349 . S
C2325 H2317 0.950 . S
C2325 C2323 1.327 . S
C2326 C2314 1.349 . S
C2326 H2320 0.950 . S
C2326 C2327 1.327 . S
C2327 H2321 0.950 . S
C2327 C2326 1.327 . S
C2327 C2331 1.429 . S
C2328 C2311 1.574 . S
C2328 H2322 0.949 . S
C2328 C2332 1.368 . S
C2329 C2310 1.429 . S
C2329 C2323 1.429 . S
C2329 C2330 1.523 . S
C2330 C2311 1.368 . S
C2330 C2324 1.368 . S
C2330 C2329 1.523 . S
C2331 C2315 1.429 . S
C2331 C2327 1.429 . S
C2331 C2332 1.523 . S
C2332 C2316 1.368 . S
C2332 C2328 1.368 . S
C2332 C2331 1.523 . S
H2333 C2308 0.950 1_655 S
H2334 C2310 0.950 . S
H2335 C2311 0.949 . S
H2336 C2313 0.950 . S
H2337 C2315 0.950 . S
C2338 C2339 1.349 . S
C2338 C2340 1.327 . S
C2338 H2363 0.950 . S
C2339 C2338 1.349 . S
C2339 C2355 1.349 . S
C2340 C2338 1.327 . S
C2340 C2359 1.429 . S
C2340 H2364 0.950 . S
C2341 C2358 1.574 . S
C2341 C2360 1.368 . S
C2341 H2365 0.949 . S
H2342 C2346 0.949 . S
C2343 C2344 1.349 . S
C2343 C2345 1.327 . S
C2343 H2366 0.950 . S
C2344 C2343 1.349 . S
C2344 C2356 1.349 . S
C2345 C2343 1.327 . S
C2345 C2361 1.429 . S
C2345 H2367 0.950 . S
C2346 H2342 0.949 . S
C2346 C2354 1.574 . S
C2346 C2362 1.368 . S
H2347 C2355 0.950 . S
H2348 C2353 0.950 . S
H2349 C2354 0.949 . S
H2350 C2356 0.950 . S
H2351 C2357 0.950 . S
H2352 C2358 0.949 . S
C2353 H2348 0.950 . S
C2353 C2355 1.327 . S
C2353 C2359 1.429 . S
C2354 C2346 1.574 . S
C2354 H2349 0.949 . S
C2354 C2360 1.368 . S
C2355 C2339 1.349 . S
C2355 H2347 0.950 . S
C2355 C2353 1.327 . S
C2356 C2344 1.349 . S
C2356 H2350 0.950 . S
C2356 C2357 1.327 . S
C2357 H2351 0.950 . S
C2357 C2356 1.327 . S
C2357 C2361 1.429 . S
C2358 C2341 1.574 . S
C2358 H2352 0.949 . S
C2358 C2362 1.368 . S
C2359 C2340 1.429 . S
C2359 C2353 1.429 . S
C2359 C2360 1.523 . S
C2360 C2341 1.368 . S
C2360 C2354 1.368 . S
C2360 C2359 1.523 . S
C2361 C2345 1.429 . S
C2361 C2357 1.429 . S
C2361 C2362 1.523 . S
C2362 C2346 1.368 . S
C2362 C2358 1.368 . S
C2362 C2361 1.523 . S
H2363 C2338 0.950 . S
H2364 C2340 0.950 . S
H2365 C2341 0.949 . S
H2366 C2343 0.950 . S
H2367 C2345 0.950 . S
C449 C51 0.913 . S
C454 C9 0.913 . S
C479 C37 0.913 . S
C484 C23 0.913 . S
C509 C107 0.913 . S
C514 C65 0.913 . S
C539 C93 0.913 . S
C544 C79 0.913 . S
C569 C121 0.913 . S
C574 C163 0.913 . S
C599 C135 0.913 . S
C604 C149 0.913 . S
C629 C219 0.913 . S
C634 C177 0.913 . S
C659 C191 0.913 . S
C664 C205 0.913 . S
C689 C233 0.913 . S
C694 C275 0.913 . S
C719 C247 0.913 . S
C724 C261 0.913 . S
C749 C331 0.913 . S
C754 C289 0.913 . S
C779 C317 0.913 . S
C784 C303 0.913 . S
C809 C387 0.913 . S
C814 C345 0.913 . S
C839 C359 0.913 . S
C844 C373 0.913 . S
C869 C401 0.913 . S
C874 C443 0.913 . S
C899 C415 0.913 . S
C904 C429 0.913 . S
C929 C283 1.170 . S
C934 C3 1.170 . S
C959 C185 1.170 . S
C964 C17 1.170 . S
C989 C31 1.169 . S
C994 C423 1.169 . S
C1019 C45 1.169 . S
C1024 C101 1.169 . S
C1049 C227 1.170 . S
C1054 C59 1.170 . S
C1079 C129 1.170 . S
C1084 C73 1.170 . S
C1109 C367 1.169 . S
C1114 C87 1.169 . S
C1139 C115 1.169 . S
C1144 C395 1.169 . S
C1169 C311 1.169 . S
C1174 C143 1.169 . S
C1199 C213 1.170 . S
C1204 C157 1.170 . S
C1229 C339 1.169 . S
C1234 C171 1.169 . S
C1259 C199 1.169 . S
C1264 C255 1.169 . S
C1289 C409 1.170 . S
C1294 C241 1.170 . S
C1319 C269 1.169 . S
C1324 C325 1.169 . S
C1349 C353 1.170 . S
C1354 C297 1.170 . S
C1379 C437 1.170 . S
C1384 C381 1.170 . S
C1409 C21 1.240 . S
C1414 C7 1.240 . S
C1439 C35 1.241 . S
C1444 C49 1.241 . S
C1469 C63 1.240 . S
C1474 C77 1.240 . S
C1499 C105 1.241 . S
C1504 C91 1.241 . S
C1529 C119 1.241 . S
C1534 C133 1.241 . S
C1559 C147 1.241 . S
C1564 C161 1.241 . S
C1589 C189 1.241 . S
C1594 C175 1.241 . S
C1619 C203 1.241 . S
C1624 C217 1.241 . S
C1649 C231 1.240 . S
C1654 C245 1.240 . S
C1679 C259 1.241 . S
C1684 C273 1.241 . S
C1709 C287 1.240 . S
C1714 C301 1.240 . S
C1739 C329 1.241 . S
C1744 C315 1.241 . S
C1769 C357 1.241 . S
C1774 C343 1.241 . S
C1799 C371 1.241 . S
C1804 C385 1.241 . S
C1829 C399 1.241 . S
C1834 C413 1.241 . S
C1859 C441 1.241 . S
C1864 C427 1.241 . S
C1889 C8 1.506 1_655 S
C1894 C274 1.506 . S
C1919 C22 1.505 . S
C1924 C260 1.505 . S
C1949 C246 1.506 . S
C1954 C36 1.506 1_655 S
C1979 C50 1.506 . S
C1984 C232 1.506 . S
C2009 C330 1.506 . S
C2014 C64 1.506 1_455 S
C2039 C78 1.505 . S
C2044 C316 1.505 . S
C2069 C302 1.506 . S
C2074 C92 1.506 1_455 S
C2099 C106 1.506 . S
C2104 C288 1.506 . S
C2129 C120 1.506 1_655 S
C2134 C386 1.506 . S
C2159 C134 1.506 . S
C2164 C372 1.506 . S
C2189 C148 1.506 1_655 S
C2194 C358 1.506 . S
C2219 C344 1.506 . S
C2224 C162 1.506 . S
C2249 C176 1.506 1_455 S
C2254 C442 1.506 . S
C2279 C190 1.506 . S
C2284 C428 1.506 . S
C2309 C204 1.506 1_455 S
C2314 C414 1.506 . S
C2339 C400 1.506 . S
C2344 C218 1.506 . S
