# Generated by pormake.
# Topology uoy, (4)-cn, num edge types: 1
# Building blocks:
#     Node 0, Type 0, BuildingBlock: QUQFOY_clean_sbu_1, # of connection points: 4
#     Node 1, Type 0, BuildingBlock: QUQFOY_clean_sbu_1, # of connection points: 4
#     Node 2, Type 0, BuildingBlock: QUQFOY_clean_sbu_1, # of connection points: 4
#     Node 3, Type 0, BuildingBlock: QUQFOY_clean_sbu_1, # of connection points: 4
#     Node 4, Type 0, BuildingBlock: QUQFOY_clean_sbu_1, # of connection points: 4
#     Node 5, Type 0, BuildingBlock: QUQFOY_clean_sbu_1, # of connection points: 4
#     Node 6, Type 0, BuildingBlock: QUQFOY_clean_sbu_1, # of connection points: 4
#     Node 7, Type 0, BuildingBlock: QUQFOY_clean_sbu_1, # of connection points: 4
#     Node 8, Type 0, BuildingBlock: QUQFOY_clean_sbu_1, # of connection points: 4
#     Node 9, Type 0, BuildingBlock: QUQFOY_clean_sbu_1, # of connection points: 4
#     Node 10, Type 0, BuildingBlock: QUQFOY_clean_sbu_1, # of connection points: 4
#     Node 11, Type 0, BuildingBlock: QUQFOY_clean_sbu_1, # of connection points: 4
#     Node 12, Type 0, BuildingBlock: QUQFOY_clean_sbu_1, # of connection points: 4
#     Node 13, Type 0, BuildingBlock: QUQFOY_clean_sbu_1, # of connection points: 4
#     Node 14, Type 0, BuildingBlock: QUQFOY_clean_sbu_1, # of connection points: 4
#     Node 15, Type 0, BuildingBlock: QUQFOY_clean_sbu_1, # of connection points: 4
#     Edge 16, Type (0, 0), BuildingBlock: UVAHIK_clean_linker_0, # of connection points: 2
#     Edge 17, Type (0, 0), BuildingBlock: UVAHIK_clean_linker_0, # of connection points: 2
#     Edge 18, Type (0, 0), BuildingBlock: UVAHIK_clean_linker_0, # of connection points: 2
#     Edge 19, Type (0, 0), BuildingBlock: UVAHIK_clean_linker_0, # of connection points: 2
#     Edge 20, Type (0, 0), BuildingBlock: UVAHIK_clean_linker_0, # of connection points: 2
#     Edge 21, Type (0, 0), BuildingBlock: UVAHIK_clean_linker_0, # of connection points: 2
#     Edge 22, Type (0, 0), BuildingBlock: UVAHIK_clean_linker_0, # of connection points: 2
#     Edge 23, Type (0, 0), BuildingBlock: UVAHIK_clean_linker_0, # of connection points: 2
#     Edge 24, Type (0, 0), BuildingBlock: UVAHIK_clean_linker_0, # of connection points: 2
#     Edge 25, Type (0, 0), BuildingBlock: UVAHIK_clean_linker_0, # of connection points: 2
#     Edge 26, Type (0, 0), BuildingBlock: UVAHIK_clean_linker_0, # of connection points: 2
#     Edge 27, Type (0, 0), BuildingBlock: UVAHIK_clean_linker_0, # of connection points: 2
#     Edge 28, Type (0, 0), BuildingBlock: UVAHIK_clean_linker_0, # of connection points: 2
#     Edge 29, Type (0, 0), BuildingBlock: UVAHIK_clean_linker_0, # of connection points: 2
#     Edge 30, Type (0, 0), BuildingBlock: UVAHIK_clean_linker_0, # of connection points: 2
#     Edge 31, Type (0, 0), BuildingBlock: UVAHIK_clean_linker_0, # of connection points: 2
#     Edge 32, Type (0, 0), BuildingBlock: UVAHIK_clean_linker_0, # of connection points: 2
#     Edge 33, Type (0, 0), BuildingBlock: UVAHIK_clean_linker_0, # of connection points: 2
#     Edge 34, Type (0, 0), BuildingBlock: UVAHIK_clean_linker_0, # of connection points: 2
#     Edge 35, Type (0, 0), BuildingBlock: UVAHIK_clean_linker_0, # of connection points: 2
#     Edge 36, Type (0, 0), BuildingBlock: UVAHIK_clean_linker_0, # of connection points: 2
#     Edge 37, Type (0, 0), BuildingBlock: UVAHIK_clean_linker_0, # of connection points: 2
#     Edge 38, Type (0, 0), BuildingBlock: UVAHIK_clean_linker_0, # of connection points: 2
#     Edge 39, Type (0, 0), BuildingBlock: UVAHIK_clean_linker_0, # of connection points: 2
#     Edge 40, Type (0, 0), BuildingBlock: UVAHIK_clean_linker_0, # of connection points: 2
#     Edge 41, Type (0, 0), BuildingBlock: UVAHIK_clean_linker_0, # of connection points: 2
#     Edge 42, Type (0, 0), BuildingBlock: UVAHIK_clean_linker_0, # of connection points: 2
#     Edge 43, Type (0, 0), BuildingBlock: UVAHIK_clean_linker_0, # of connection points: 2
#     Edge 44, Type (0, 0), BuildingBlock: UVAHIK_clean_linker_0, # of connection points: 2
#     Edge 45, Type (0, 0), BuildingBlock: UVAHIK_clean_linker_0, # of connection points: 2
#     Edge 46, Type (0, 0), BuildingBlock: UVAHIK_clean_linker_0, # of connection points: 2
#     Edge 47, Type (0, 0), BuildingBlock: UVAHIK_clean_linker_0, # of connection points: 2
# Relax obj value: 0.056
# Max RMSD: 0.100
# Mean RMSD: 0.100
data_MOF--net-uoy--node1-QUQFOY_clean_sbu_1--edge1-UVAHIK_clean_linker_0
_symmetry_space_group_name_H-M    P1
_symmetry_Int_Tables_number       1
_symmetry_cell_setting            triclinic
loop_
_symmetry_equiv_pos_as_xyz
'x, y, z'
_cell_length_a     36.125139
_cell_length_b     36.108566
_cell_length_c     145.79017
_cell_angle_alpha  90.010849
_cell_angle_beta   90.008419
_cell_angle_gamma 89.998378
loop_
_atom_site_label
_atom_site_type_symbol
_atom_site_fract_x
_atom_site_fract_y
_atom_site_fract_z
_atom_type_partial_charge
O0 O 0.24629 0.12822 0.20892 0.0
Cd1 Cd 0.24686 0.09761 0.19691 0.0
Cd2 Cd 0.27661 0.16013 0.19034 0.0
O3 O 0.266 0.18127 0.20322 0.0
O4 O 0.21087 0.05641 0.19886 0.0
O5 O 0.2027 0.10046 0.18853 0.0
C6 C 0.19047 0.0711 0.19258 0.0
C7 C 0.25789 0.19002 0.17693 0.0
C8 C 0.25463 0.16218 0.20999 0.0
C9 C 0.32504 0.09247 0.19025 0.0
O10 O 0.32287 0.12728 0.1891 0.0
O11 O 0.29687 0.07425 0.19291 0.0
O12 O 0.28499 0.20241 0.18181 0.0
O13 O 0.24021 0.16133 0.1799 0.0
O14 O 0.87877 0.74659 0.45879 0.0
Cd15 Cd 0.90984 0.7471 0.44685 0.0
Cd16 Cd 0.84768 0.77783 0.44022 0.0
O17 O 0.82616 0.76729 0.45306 0.0
O18 O 0.9511 0.71121 0.44898 0.0
O19 O 0.90762 0.70265 0.43852 0.0
C20 C 0.93679 0.69058 0.44268 0.0
C21 C 0.81943 0.75721 0.42677 0.0
C22 C 0.84494 0.75543 0.45983 0.0
C23 C 0.91551 0.8257 0.44028 0.0
O24 O 0.88072 0.824 0.43907 0.0
O25 O 0.93335 0.79719 0.44291 0.0
O26 O 0.80608 0.78464 0.43138 0.0
O27 O 0.84826 0.74053 0.43001 0.0
O28 O 0.25916 0.38629 0.70885 0.0
Cd29 Cd 0.26128 0.41394 0.69645 0.0
Cd30 Cd 0.23319 0.35005 0.69054 0.0
O31 O 0.24511 0.33085 0.70356 0.0
O32 O 0.29685 0.45571 0.69824 0.0
O33 O 0.30697 0.40939 0.68865 0.0
C34 C 0.3184 0.43969 0.69241 0.0
C35 C 0.25433 0.32077 0.67728 0.0
C36 C 0.25327 0.35201 0.71024 0.0
C37 C 0.18372 0.41677 0.68951 0.0
O38 O 0.1859 0.38166 0.68914 0.0
O39 O 0.21202 0.43591 0.69165 0.0
O40 O 0.22757 0.30703 0.68205 0.0
O41 O 0.27009 0.35054 0.68026 0.0
O42 O 0.62086 0.75754 0.95883 0.0
Cd43 Cd 0.59371 0.75956 0.94636 0.0
Cd44 Cd 0.65836 0.73289 0.94052 0.0
O45 O 0.67671 0.74456 0.95365 0.0
O46 O 0.55167 0.79492 0.948 0.0
O47 O 0.59845 0.80515 0.93856 0.0
C48 C 0.5679 0.81647 0.9422 0.0
C49 C 0.68801 0.75463 0.92737 0.0
C50 C 0.65515 0.75215 0.96029 0.0
C51 C 0.59235 0.68242 0.93917 0.0
O52 O 0.6274 0.6853 0.93885 0.0
O53 O 0.57264 0.71018 0.94141 0.0
O54 O 0.70187 0.72796 0.93216 0.0
O55 O 0.658 0.77007 0.9303 0.0
O56 O 0.24945 0.38808 0.05289 0.0
Cd57 Cd 0.24787 0.41488 0.0654 0.0
Cd58 Cd 0.27474 0.35034 0.07109 0.0
O59 O 0.26244 0.33211 0.05799 0.0
O60 O 0.21226 0.45672 0.06393 0.0
O61 O 0.2027 0.40964 0.07334 0.0
C62 C 0.19107 0.44023 0.06976 0.0
C63 C 0.25547 0.31908 0.08425 0.0
C64 C 0.25468 0.35377 0.05138 0.0
C65 C 0.32518 0.4165 0.07235 0.0
O66 O 0.32233 0.38142 0.07262 0.0
O67 O 0.2973 0.43622 0.07023 0.0
O68 O 0.28173 0.30632 0.07916 0.0
O69 O 0.23884 0.34891 0.08161 0.0
O70 O 0.62452 0.75008 0.30276 0.0
Cd71 Cd 0.59558 0.74911 0.315 0.0
Cd72 Cd 0.65965 0.77542 0.32136 0.0
O73 O 0.67965 0.76263 0.30846 0.0
O74 O 0.55354 0.71388 0.31318 0.0
O75 O 0.59917 0.70387 0.32298 0.0
C76 C 0.56901 0.6925 0.31914 0.0
C77 C 0.68805 0.7546 0.33478 0.0
C78 C 0.65911 0.75489 0.30163 0.0
C79 C 0.59413 0.82675 0.32191 0.0
O80 O 0.62908 0.82348 0.32254 0.0
O81 O 0.5744 0.79906 0.31961 0.0
O82 O 0.70236 0.78087 0.32994 0.0
O83 O 0.65818 0.7391 0.33178 0.0
O84 O 0.26014 0.12892 0.55299 0.0
Cd85 Cd 0.26037 0.09696 0.56478 0.0
Cd86 Cd 0.23231 0.15897 0.5721 0.0
O87 O 0.24254 0.18151 0.55934 0.0
O88 O 0.29632 0.05585 0.56256 0.0
O89 O 0.30486 0.09922 0.57306 0.0
C90 C 0.31695 0.07013 0.56886 0.0
C91 C 0.25303 0.18705 0.58557 0.0
C92 C 0.25257 0.16322 0.55231 0.0
C93 C 0.18265 0.09222 0.57181 0.0
O94 O 0.18548 0.12682 0.57324 0.0
O95 O 0.21034 0.0739 0.56888 0.0
O96 O 0.22569 0.20053 0.58096 0.0
O97 O 0.26955 0.15814 0.58234 0.0
O98 O 0.87937 0.76035 0.80363 0.0
Cd99 Cd 0.91035 0.76032 0.81558 0.0
Cd100 Cd 0.84845 0.72908 0.82223 0.0
O101 O 0.82704 0.73883 0.80933 0.0
O102 O 0.9513 0.79649 0.81343 0.0
O103 O 0.90777 0.8048 0.82388 0.0
C104 C 0.93687 0.81703 0.81972 0.0
C105 C 0.82002 0.75033 0.83559 0.0
C106 C 0.8457 0.75095 0.80258 0.0
C107 C 0.91691 0.68213 0.8224 0.0
O108 O 0.8821 0.68345 0.8236 0.0
O109 O 0.93435 0.71066 0.81964 0.0
O110 O 0.80687 0.7225 0.83108 0.0
O111 O 0.8487 0.76703 0.83229 0.0
O112 O 0.74933 0.62847 0.70938 0.0
Cd113 Cd 0.74892 0.59712 0.69749 0.0
Cd114 Cd 0.77712 0.65944 0.69035 0.0
O115 O 0.76736 0.68126 0.70321 0.0
O116 O 0.71286 0.55605 0.69961 0.0
O117 O 0.70448 0.59989 0.68922 0.0
C118 C 0.69232 0.57064 0.69333 0.0
C119 C 0.7559 0.68816 0.67701 0.0
C120 C 0.75719 0.66266 0.71018 0.0
C121 C 0.82634 0.59231 0.69028 0.0
O122 O 0.82365 0.62699 0.68894 0.0
O123 O 0.79872 0.57407 0.69327 0.0
O124 O 0.78346 0.7014 0.68158 0.0
O125 O 0.73943 0.65918 0.68022 0.0
O126 O 0.38529 0.25103 0.95821 0.0
Cd127 Cd 0.41302 0.24836 0.94583 0.0
Cd128 Cd 0.34955 0.27716 0.93983 0.0
O129 O 0.33015 0.26601 0.95289 0.0
O130 O 0.45444 0.2125 0.94772 0.0
O131 O 0.40831 0.20259 0.93806 0.0
C132 C 0.43844 0.19101 0.94187 0.0
C133 C 0.32039 0.2556 0.9266 0.0
C134 C 0.35113 0.25755 0.95958 0.0
C135 C 0.41695 0.32562 0.93869 0.0
O136 O 0.38184 0.32392 0.93828 0.0
O137 O 0.43562 0.29719 0.94096 0.0
O138 O 0.30679 0.28276 0.93128 0.0
O139 O 0.34989 0.23966 0.92969 0.0
O140 O 0.75919 0.88386 0.20895 0.0
Cd141 Cd 0.7603 0.91317 0.19677 0.0
Cd142 Cd 0.73229 0.84986 0.19035 0.0
O143 O 0.7448 0.82924 0.20321 0.0
O144 O 0.79603 0.95475 0.19865 0.0
O145 O 0.80531 0.90947 0.1887 0.0
C146 C 0.81706 0.93937 0.1926 0.0
C147 C 0.7528 0.82162 0.17689 0.0
C148 C 0.75341 0.84939 0.21004 0.0
C149 C 0.68248 0.91645 0.18996 0.0
O150 O 0.68488 0.88144 0.18924 0.0
O151 O 0.71067 0.93542 0.19227 0.0
O152 O 0.72623 0.80756 0.18167 0.0
O153 O 0.76872 0.85115 0.17996 0.0
O154 O 0.12865 0.26203 0.45921 0.0
Cd155 Cd 0.0977 0.26116 0.44725 0.0
Cd156 Cd 0.16042 0.23174 0.44058 0.0
O157 O 0.18164 0.24246 0.45345 0.0
O158 O 0.05614 0.29682 0.44926 0.0
O159 O 0.09992 0.30543 0.43888 0.0
C160 C 0.07055 0.31741 0.44297 0.0
C161 C 0.18881 0.25262 0.42718 0.0
C162 C 0.16265 0.25381 0.46023 0.0
C163 C 0.09339 0.18265 0.44059 0.0
O164 O 0.12814 0.18508 0.43937 0.0
O165 O 0.075 0.21073 0.44327 0.0
O166 O 0.20238 0.2254 0.43183 0.0
O167 O 0.15969 0.26895 0.43036 0.0
O168 O 0.74761 0.87908 0.55282 0.0
Cd169 Cd 0.74709 0.91074 0.56467 0.0
Cd170 Cd 0.77635 0.84897 0.57182 0.0
O171 O 0.76616 0.82659 0.55905 0.0
O172 O 0.71091 0.95165 0.56246 0.0
O173 O 0.70252 0.90813 0.57292 0.0
C174 C 0.69032 0.93721 0.56874 0.0
C175 C 0.75568 0.82079 0.58528 0.0
C176 C 0.7557 0.84492 0.55206 0.0
C177 C 0.82494 0.91639 0.57164 0.0
O178 O 0.82279 0.88169 0.57298 0.0
O179 O 0.79684 0.93432 0.5688 0.0
O180 O 0.78315 0.80746 0.58069 0.0
O181 O 0.73902 0.8496 0.58203 0.0
O182 O 0.12145 0.24922 0.80327 0.0
Cd183 Cd 0.09408 0.24773 0.81571 0.0
Cd184 Cd 0.1588 0.27414 0.82154 0.0
O185 O 0.17736 0.2617 0.80848 0.0
O186 O 0.05184 0.21254 0.8141 0.0
O187 O 0.09853 0.20224 0.82358 0.0
C188 C 0.06796 0.19098 0.81993 0.0
C189 C 0.18792 0.25277 0.8348 0.0
C190 C 0.15583 0.25418 0.80183 0.0
C191 C 0.0933 0.32531 0.82264 0.0
O192 O 0.12833 0.32215 0.82297 0.0
O193 O 0.07335 0.29754 0.82053 0.0
O194 O 0.20213 0.27909 0.82995 0.0
O195 O 0.15782 0.23749 0.83187 0.0
O196 O 0.75769 0.62241 0.05361 0.0
Cd197 Cd 0.75982 0.59487 0.06602 0.0
Cd198 Cd 0.73095 0.65857 0.07189 0.0
O199 O 0.74241 0.67765 0.05882 0.0
O200 O 0.79559 0.55329 0.06424 0.0
O201 O 0.80531 0.5995 0.07389 0.0
C202 C 0.81691 0.56928 0.07013 0.0
C203 C 0.75218 0.68812 0.08511 0.0
C204 C 0.75115 0.65654 0.05218 0.0
C205 C 0.68236 0.59121 0.07302 0.0
O206 O 0.68414 0.62634 0.07342 0.0
O207 O 0.71079 0.57245 0.0708 0.0
O208 O 0.72515 0.70158 0.08037 0.0
O209 O 0.76818 0.65852 0.0821 0.0
O210 O 0.37905 0.2605 0.30289 0.0
Cd211 Cd 0.41101 0.26157 0.31468 0.0
Cd212 Cd 0.34988 0.23145 0.32197 0.0
O213 O 0.32715 0.2408 0.30919 0.0
O214 O 0.45138 0.29817 0.31234 0.0
O215 O 0.40823 0.3062 0.32291 0.0
C216 C 0.43702 0.31865 0.31866 0.0
C217 C 0.32135 0.25199 0.33539 0.0
C218 C 0.34508 0.25165 0.30218 0.0
C219 C 0.41815 0.18403 0.32178 0.0
O220 O 0.3835 0.18569 0.32322 0.0
O221 O 0.43546 0.21226 0.3188 0.0
O222 O 0.30857 0.2241 0.33085 0.0
O223 O 0.34979 0.26914 0.33211 0.0
C224 C 0.22139 0.31781 0.09928 0.0
C225 C 0.24715 0.30176 0.09323 0.0
C226 C 0.21747 0.30428 0.10823 0.0
C227 C 0.27273 0.25721 0.1257 0.0
H228 H 0.18011 0.24585 0.13887 0.0
C229 C 0.271 0.23624 0.16459 0.0
C230 C 0.24959 0.20654 0.16786 0.0
C231 C 0.26681 0.24893 0.15561 0.0
C232 C 0.20614 0.24883 0.13526 0.0
H233 H 0.28738 0.25758 0.09168 0.0
H234 H 0.28045 0.23405 0.10723 0.0
H235 H 0.17939 0.26345 0.1226 0.0
H236 H 0.20557 0.16816 0.16439 0.0
H237 H 0.19819 0.19053 0.14864 0.0
H238 H 0.29959 0.24267 0.13826 0.0
C239 C 0.26367 0.2574 0.1051 0.0
C240 C 0.20574 0.25908 0.12598 0.0
C241 C 0.26748 0.27078 0.09617 0.0
C242 C 0.22253 0.19106 0.16207 0.0
C243 C 0.21822 0.20392 0.15307 0.0
C244 C 0.27314 0.24735 0.13495 0.0
C245 C 0.23937 0.27458 0.11131 0.0
C246 C 0.23908 0.26323 0.1211 0.0
C247 C 0.24103 0.23234 0.14968 0.0
C248 C 0.23991 0.24311 0.13985 0.0
H249 H 0.20527 0.3417 0.09722 0.0
H250 H 0.1986 0.31817 0.11287 0.0
H251 H 0.2989 0.26066 0.12218 0.0
H252 H 0.29193 0.24899 0.16887 0.0
H253 H 0.28433 0.27132 0.15324 0.0
C254 C 0.77204 0.76544 0.41442 0.0
C255 C 0.80349 0.74692 0.41776 0.0
C256 C 0.75898 0.75858 0.40556 0.0
C257 C 0.72725 0.72836 0.38781 0.0
H258 H 0.80114 0.72614 0.36852 0.0
C259 C 0.68592 0.71923 0.3496 0.0
C260 C 0.70404 0.7445 0.3438 0.0
C261 C 0.69895 0.71289 0.35851 0.0
C262 C 0.78016 0.72666 0.37383 0.0
H263 H 0.84511 0.70565 0.41452 0.0
H264 H 0.82212 0.69351 0.39904 0.0
H265 H 0.82071 0.72745 0.38453 0.0
H266 H 0.75089 0.78181 0.34269 0.0
H267 H 0.7734 0.77096 0.35818 0.0
H268 H 0.68673 0.7292 0.3771 0.0
C269 C 0.80783 0.71366 0.40326 0.0
C270 C 0.79137 0.727 0.38301 0.0
C271 C 0.82085 0.72044 0.41215 0.0
C272 C 0.73627 0.76216 0.34697 0.0
C273 C 0.74932 0.75576 0.35585 0.0
C274 C 0.71604 0.72796 0.37863 0.0
C275 C 0.77706 0.73308 0.39981 0.0
C276 C 0.76506 0.72859 0.39011 0.0
C277 C 0.73045 0.73157 0.36179 0.0
C278 C 0.74237 0.72785 0.37152 0.0
H279 H 0.75801 0.78603 0.41855 0.0
H280 H 0.7355 0.77438 0.4031 0.0
H281 H 0.70627 0.72914 0.39311 0.0
H282 H 0.66107 0.70509 0.34736 0.0
H283 H 0.68405 0.69372 0.36287 0.0
C284 C 0.24522 0.23477 0.59786 0.0
C285 C 0.26337 0.20301 0.59458 0.0
C286 C 0.25211 0.24793 0.60671 0.0
C287 C 0.28275 0.21559 0.62933 0.0
H288 H 0.28185 0.32044 0.63508 0.0
C289 C 0.29057 0.32183 0.66259 0.0
C290 C 0.26471 0.30428 0.66834 0.0
C291 C 0.29719 0.30842 0.65373 0.0
C292 C 0.28272 0.29106 0.6336 0.0
H293 H 0.30404 0.1609 0.5979 0.0
H294 H 0.31622 0.18405 0.61336 0.0
H295 H 0.28216 0.30051 0.61911 0.0
H296 H 0.22667 0.258 0.66942 0.0
H297 H 0.23802 0.23482 0.65401 0.0
H298 H 0.28295 0.20614 0.64383 0.0
C299 C 0.29635 0.19852 0.60911 0.0
C300 C 0.28248 0.27964 0.62444 0.0
C301 C 0.28953 0.1854 0.60023 0.0
C302 C 0.24677 0.27219 0.66517 0.0
C303 C 0.25345 0.25875 0.65634 0.0
C304 C 0.28293 0.22701 0.6385 0.0
C305 C 0.27728 0.22962 0.6125 0.0
C306 C 0.28175 0.24177 0.62219 0.0
C307 C 0.27821 0.27709 0.65045 0.0
C308 C 0.28219 0.26488 0.64074 0.0
H309 H 0.22489 0.24899 0.59369 0.0
H310 H 0.23659 0.27166 0.60913 0.0
H311 H 0.28191 0.18621 0.62785 0.0
H312 H 0.30493 0.34657 0.66483 0.0
H313 H 0.31678 0.32291 0.6494 0.0
C314 C 0.82144 0.78775 0.8501 0.0
C315 C 0.80406 0.76102 0.84457 0.0
C316 C 0.80847 0.79489 0.85898 0.0
C317 C 0.79217 0.78212 0.87927 0.0
H318 H 0.68756 0.78043 0.8852 0.0
C319 C 0.73676 0.74739 0.9153 0.0
C320 C 0.70451 0.7651 0.91844 0.0
C321 C 0.75002 0.75386 0.90644 0.0
C322 C 0.71687 0.78154 0.88367 0.0
H323 H 0.7586 0.72186 0.84388 0.0
H324 H 0.73616 0.73416 0.85931 0.0
H325 H 0.70702 0.78002 0.86919 0.0
H326 H 0.66181 0.80478 0.91486 0.0
H327 H 0.68515 0.81626 0.8994 0.0
H328 H 0.80202 0.78326 0.89375 0.0
C329 C 0.75962 0.74985 0.8568 0.0
C330 C 0.72803 0.78088 0.87449 0.0
C331 C 0.77264 0.74263 0.84796 0.0
C332 C 0.68667 0.7906 0.91264 0.0
C333 C 0.6999 0.797 0.90376 0.0
C334 C 0.78101 0.78271 0.88845 0.0
C335 C 0.77774 0.77559 0.86248 0.0
C336 C 0.76581 0.78043 0.87218 0.0
C337 C 0.73133 0.77816 0.9005 0.0
C338 C 0.74324 0.78172 0.89076 0.0
H339 H 0.84568 0.80245 0.84769 0.0
H340 H 0.82278 0.81519 0.86314 0.0
H341 H 0.8215 0.78152 0.87774 0.0
H342 H 0.75117 0.72756 0.91958 0.0
H343 H 0.77406 0.73856 0.90413 0.0
C344 C 0.71909 0.82236 0.59992 0.0
C345 C 0.7453 0.80479 0.59427 0.0
C346 C 0.71227 0.80925 0.6088 0.0
C347 C 0.72626 0.7283 0.62416 0.0
H348 H 0.72628 0.80203 0.64351 0.0
C349 C 0.71909 0.68684 0.6624 0.0
C350 C 0.7453 0.70438 0.66805 0.0
C351 C 0.71221 0.70005 0.65353 0.0
C352 C 0.72615 0.78109 0.63818 0.0
H353 H 0.78384 0.75885 0.5934 0.0
H354 H 0.7721 0.73618 0.60883 0.0
H355 H 0.72698 0.82177 0.62751 0.0
H356 H 0.78371 0.75042 0.66897 0.0
H357 H 0.77186 0.77328 0.65355 0.0
H358 H 0.72705 0.68763 0.63484 0.0
C359 C 0.75657 0.75989 0.60641 0.0
C360 C 0.72614 0.79241 0.62901 0.0
C361 C 0.76347 0.77305 0.59756 0.0
C362 C 0.76335 0.73624 0.66479 0.0
C363 C 0.75638 0.7495 0.65596 0.0
C364 C 0.72617 0.71699 0.63334 0.0
C365 C 0.73137 0.77819 0.61219 0.0
C366 C 0.72699 0.76614 0.62189 0.0
C367 C 0.73124 0.73119 0.65016 0.0
C368 C 0.72691 0.74326 0.64046 0.0
H369 H 0.70457 0.84685 0.59758 0.0
H370 H 0.69238 0.82372 0.61305 0.0
H371 H 0.72647 0.70737 0.61884 0.0
H372 H 0.70466 0.66227 0.66471 0.0
H373 H 0.69236 0.68558 0.64927 0.0
C374 C 0.32153 0.21858 0.91203 0.0
C375 C 0.30409 0.24496 0.91766 0.0
C376 C 0.30837 0.21167 0.90316 0.0
C377 C 0.29173 0.22504 0.88295 0.0
H378 H 0.18708 0.22671 0.87705 0.0
C379 C 0.23639 0.2602 0.84693 0.0
C380 C 0.20419 0.24247 0.84377 0.0
C381 C 0.24954 0.25374 0.8558 0.0
C382 C 0.21641 0.22562 0.87857 0.0
H383 H 0.2583 0.28367 0.91852 0.0
H384 H 0.23555 0.2718 0.90309 0.0
H385 H 0.20663 0.22662 0.89305 0.0
H386 H 0.16142 0.20283 0.84732 0.0
H387 H 0.18459 0.19134 0.8628 0.0
H388 H 0.30151 0.22434 0.86846 0.0
C389 C 0.25919 0.25619 0.90552 0.0
C390 C 0.22761 0.22599 0.88775 0.0
C391 C 0.27238 0.26316 0.91437 0.0
C392 C 0.18625 0.21702 0.84956 0.0
C393 C 0.19938 0.21062 0.85845 0.0
C394 C 0.28053 0.22471 0.87377 0.0
C395 C 0.27741 0.23087 0.89975 0.0
C396 C 0.26541 0.22642 0.89005 0.0
C397 C 0.2308 0.22942 0.86173 0.0
C398 C 0.24274 0.2257 0.87146 0.0
H399 H 0.34598 0.20402 0.91437 0.0
H400 H 0.32275 0.19164 0.89893 0.0
H401 H 0.32107 0.22565 0.88446 0.0
H402 H 0.25087 0.27999 0.84266 0.0
H403 H 0.27356 0.26903 0.85813 0.0
C404 C 0.78878 0.68739 0.09974 0.0
C405 C 0.76259 0.70468 0.09404 0.0
C406 C 0.79544 0.7008 0.1086 0.0
C407 C 0.78059 0.78192 0.12389 0.0
H408 H 0.78146 0.70833 0.14326 0.0
C409 C 0.74501 0.77362 0.16465 0.0
C410 C 0.76289 0.80566 0.16787 0.0
C411 C 0.75157 0.76052 0.15578 0.0
C412 C 0.7813 0.72923 0.13793 0.0
H413 H 0.72396 0.7505 0.09303 0.0
H414 H 0.73537 0.77367 0.10845 0.0
H415 H 0.78077 0.68848 0.12728 0.0
H416 H 0.80279 0.8483 0.16439 0.0
H417 H 0.81443 0.82524 0.1489 0.0
H418 H 0.77949 0.82266 0.13455 0.0
C419 C 0.75104 0.74995 0.10608 0.0
C420 C 0.78134 0.71786 0.12876 0.0
C421 C 0.74432 0.73652 0.09725 0.0
C422 C 0.78849 0.82358 0.16212 0.0
C423 C 0.79499 0.81051 0.15322 0.0
C424 C 0.78062 0.7933 0.13306 0.0
C425 C 0.77615 0.73186 0.11193 0.0
C426 C 0.78024 0.74406 0.12163 0.0
C427 C 0.77615 0.77916 0.1499 0.0
C428 C 0.78023 0.76708 0.14019 0.0
H429 H 0.80339 0.66285 0.09747 0.0
H430 H 0.81531 0.68651 0.11289 0.0
H431 H 0.78018 0.80282 0.11856 0.0
H432 H 0.7251 0.75916 0.1689 0.0
H433 H 0.73625 0.73657 0.15342 0.0
C434 C 0.18697 0.28875 0.41247 0.0
C435 C 0.20484 0.26298 0.41819 0.0
C436 C 0.20005 0.29541 0.40359 0.0
C437 C 0.21713 0.28091 0.38342 0.0
H438 H 0.32186 0.28146 0.37759 0.0
C439 C 0.27377 0.24366 0.34769 0.0
C440 C 0.3052 0.2623 0.34438 0.0
C441 C 0.26051 0.25052 0.35653 0.0
C442 C 0.29251 0.28191 0.37909 0.0
H443 H 0.25129 0.22511 0.41918 0.0
H444 H 0.27393 0.2366 0.40373 0.0
H445 H 0.30211 0.28227 0.39359 0.0
H446 H 0.34656 0.3038 0.34764 0.0
H447 H 0.32325 0.3159 0.36309 0.0
H448 H 0.20753 0.2801 0.36892 0.0
C449 C 0.24999 0.2519 0.4061 0.0
C450 C 0.28119 0.28197 0.38827 0.0
C451 C 0.23686 0.24514 0.41496 0.0
C452 C 0.32232 0.28892 0.34999 0.0
C453 C 0.30912 0.29569 0.35886 0.0
C454 C 0.22844 0.28075 0.37425 0.0
C455 C 0.23138 0.2766 0.40025 0.0
C456 C 0.24339 0.28074 0.39054 0.0
C457 C 0.27839 0.27614 0.36228 0.0
C458 C 0.26627 0.28052 0.37198 0.0
H459 H 0.16226 0.30301 0.41476 0.0
H460 H 0.18534 0.31493 0.39928 0.0
H461 H 0.18779 0.27966 0.38492 0.0
H462 H 0.25991 0.22298 0.34354 0.0
H463 H 0.23706 0.23465 0.35897 0.0
C464 C 0.27585 0.20957 0.22139 0.0
C465 C 0.25408 0.17844 0.21931 0.0
C466 C 0.27926 0.22193 0.23045 0.0
C467 C 0.26889 0.18686 0.25424 0.0
H468 H 0.28944 0.28905 0.26064 0.0
C469 C 0.29408 0.23149 0.29163 0.0
C470 C 0.32736 0.25094 0.29301 0.0
C471 C 0.27986 0.22667 0.28279 0.0
C472 C 0.28367 0.26043 0.25894 0.0
H473 H 0.21682 0.13738 0.225 0.0
H474 H 0.22143 0.1598 0.24071 0.0
H475 H 0.27278 0.27333 0.24487 0.0
H476 H 0.37061 0.28235 0.28622 0.0
H477 H 0.34543 0.27429 0.2708 0.0
H478 H 0.2797 0.17407 0.26832 0.0
C479 C 0.23709 0.17391 0.23543 0.0
C480 C 0.27431 0.25132 0.2499 0.0
C481 C 0.23418 0.16119 0.2264 0.0
C482 C 0.34501 0.2671 0.2854 0.0
C483 C 0.33051 0.26266 0.27657 0.0
C484 C 0.27773 0.19604 0.26328 0.0
C485 C 0.26052 0.20378 0.23763 0.0
C486 C 0.26734 0.21429 0.24739 0.0
C487 C 0.2983 0.2416 0.27515 0.0
C488 C 0.28574 0.23281 0.26571 0.0
H489 H 0.2917 0.22337 0.21609 0.0
H490 H 0.29791 0.24471 0.23184 0.0
H491 H 0.26458 0.15795 0.25259 0.0
H492 H 0.27975 0.2187 0.29733 0.0
H493 H 0.2548 0.21058 0.2819 0.0
C494 C 0.84522 0.73445 0.4762 0.0
C495 C 0.82848 0.75488 0.46913 0.0
C496 C 0.83239 0.73732 0.48522 0.0
C497 C 0.75541 0.77558 0.49966 0.0
H498 H 0.83234 0.77891 0.51819 0.0
C499 C 0.74044 0.84562 0.53527 0.0
C500 C 0.75609 0.8274 0.54287 0.0
C501 C 0.74471 0.83126 0.52642 0.0
C502 C 0.81045 0.77752 0.51313 0.0
H503 H 0.78432 0.79341 0.46592 0.0
H504 H 0.7628 0.79955 0.48166 0.0
H505 H 0.84848 0.76395 0.50246 0.0
H506 H 0.78719 0.77896 0.54714 0.0
H507 H 0.79502 0.75426 0.53167 0.0
H508 H 0.71778 0.79115 0.51039 0.0
C509 C 0.78525 0.78052 0.48026 0.0
C510 C 0.81964 0.76877 0.50408 0.0
C511 C 0.79772 0.77715 0.47121 0.0
C512 C 0.77481 0.79373 0.54145 0.0
C513 C 0.77947 0.77965 0.53259 0.0
C514 C 0.74631 0.78487 0.50871 0.0
C515 C 0.80291 0.76124 0.48743 0.0
C516 C 0.79234 0.76796 0.49719 0.0
C517 C 0.76508 0.79864 0.52497 0.0
C518 C 0.77381 0.78619 0.51551 0.0
H519 H 0.86874 0.71671 0.4748 0.0
H520 H 0.8461 0.72125 0.49049 0.0
H521 H 0.73349 0.77463 0.4946 0.0
H522 H 0.72574 0.87154 0.53613 0.0
H523 H 0.73351 0.84661 0.52067 0.0
C524 C 0.25282 0.36259 0.7272 0.0
C525 C 0.25232 0.33771 0.71977 0.0
C526 C 0.24681 0.35007 0.73613 0.0
C527 C 0.24736 0.27034 0.75156 0.0
H528 H 0.16667 0.32159 0.7637 0.0
C529 C 0.20792 0.25883 0.79042 0.0
C530 C 0.16989 0.2549 0.79228 0.0
C531 C 0.22035 0.26429 0.78142 0.0
C532 C 0.18917 0.30695 0.76039 0.0
H533 H 0.24737 0.27977 0.71601 0.0
H534 H 0.23745 0.25785 0.73172 0.0
H535 H 0.18606 0.34108 0.74842 0.0
H536 H 0.11535 0.25179 0.78605 0.0
H537 H 0.13707 0.2619 0.77044 0.0
H538 H 0.25064 0.23653 0.76368 0.0
C539 C 0.24223 0.28708 0.73055 0.0
C540 C 0.20046 0.31829 0.75169 0.0
C541 C 0.24777 0.29968 0.72157 0.0
C542 C 0.14481 0.25485 0.78489 0.0
C543 C 0.15718 0.26078 0.77595 0.0
C544 C 0.23646 0.25937 0.76038 0.0
C545 C 0.24065 0.31234 0.73787 0.0
C546 C 0.22958 0.3001 0.74717 0.0
C547 C 0.19493 0.26638 0.77414 0.0
C548 C 0.20706 0.27747 0.76483 0.0
H549 H 0.25635 0.39204 0.72609 0.0
H550 H 0.24607 0.37005 0.74167 0.0
H551 H 0.26992 0.25593 0.74821 0.0
H552 H 0.22798 0.25887 0.79594 0.0
H553 H 0.24961 0.26864 0.7802 0.0
C554 C 0.75159 0.64564 0.03524 0.0
C555 C 0.75023 0.67064 0.04263 0.0
C556 C 0.74572 0.65786 0.02627 0.0
C557 C 0.74546 0.73722 0.01074 0.0
H558 H 0.66624 0.68427 0.99843 0.0
C559 C 0.70707 0.74752 0.97176 0.0
C560 C 0.66904 0.75121 0.96986 0.0
C561 C 0.71937 0.74215 0.98078 0.0
C562 C 0.68835 0.69936 1.00179 0.0
H563 H 0.7439 0.72854 0.04631 0.0
H564 H 0.73425 0.74995 0.03053 0.0
H565 H 0.68534 0.66542 0.01379 0.0
H566 H 0.61437 0.75384 0.97602 0.0
H567 H 0.63587 0.74383 0.99166 0.0
H568 H 0.74864 0.77084 0.99858 0.0
C569 C 0.73958 0.72084 0.03176 0.0
C570 C 0.69945 0.68841 0.01054 0.0
C571 C 0.74496 0.70853 0.04077 0.0
C572 C 0.64383 0.75099 0.97721 0.0
C573 C 0.65607 0.74513 0.98617 0.0
C574 C 0.73475 0.7478 1.00187 0.0
C575 C 0.73888 0.69542 0.02447 0.0
C576 C 0.72802 0.70724 0.01511 0.0
C577 C 0.69383 0.73988 0.98802 0.0
C578 C 0.70588 0.72909 0.99736 0.0
H579 H 0.75569 0.61629 0.03639 0.0
H580 H 0.74567 0.63777 0.02075 0.0
H581 H 0.76759 0.75212 0.01413 0.0
H582 H 0.72722 0.7477 0.96626 0.0
H583 H 0.74865 0.73808 0.98204 0.0
C584 C 0.2593 0.30199 0.03987 0.0
C585 C 0.25531 0.33998 0.0418 0.0
C586 C 0.26455 0.28982 0.03084 0.0
C587 C 0.30656 0.3216 0.00979 0.0
H588 H 0.25529 0.2411 0.99756 0.0
C589 C 0.36168 0.25801 0.97653 0.0
C590 C 0.33683 0.25876 0.96911 0.0
C591 C 0.34921 0.26407 0.98547 0.0
C592 C 0.26975 0.2636 1.00092 0.0
H593 H 0.25195 0.39471 0.03567 0.0
H594 H 0.26171 0.37343 0.02001 0.0
H595 H 0.23626 0.26002 0.01309 0.0
H596 H 0.27897 0.26425 0.96534 0.0
H597 H 0.25712 0.27423 0.98107 0.0
H598 H 0.34043 0.32496 0.99779 0.0
C599 C 0.26077 0.35316 0.02548 0.0
C600 C 0.259 0.27429 0.00978 0.0
C601 C 0.25505 0.36527 0.03446 0.0
C602 C 0.29885 0.26366 0.9709 0.0
C603 C 0.2863 0.26923 0.97989 0.0
C604 C 0.31769 0.31052 1.00106 0.0
C605 C 0.26638 0.31545 0.02361 0.0
C606 C 0.2772 0.30358 0.01426 0.0
C607 C 0.31155 0.27051 0.98721 0.0
C608 C 0.29942 0.28148 0.99653 0.0
H609 H 0.2595 0.28178 0.04536 0.0
H610 H 0.26891 0.26058 0.02956 0.0
H611 H 0.32127 0.34403 0.01313 0.0
H612 H 0.39109 0.25422 0.97543 0.0
H613 H 0.36918 0.26459 0.99101 0.0
C614 C 0.65114 0.75292 0.28458 0.0
C615 C 0.67478 0.75445 0.29223 0.0
C616 C 0.66521 0.75661 0.2757 0.0
C617 C 0.74576 0.79551 0.26339 0.0
H618 H 0.69729 0.75032 0.24247 0.0
C619 C 0.75615 0.85684 0.22711 0.0
C620 C 0.75375 0.83345 0.21942 0.0
C621 C 0.75235 0.84263 0.23596 0.0
C622 C 0.7117 0.76275 0.24821 0.0
H623 H 0.73211 0.75916 0.2965 0.0
H624 H 0.75682 0.7646 0.28098 0.0
H625 H 0.68018 0.73135 0.25789 0.0
H626 H 0.74739 0.77636 0.21507 0.0
H627 H 0.74178 0.75137 0.23055 0.0
H628 H 0.77769 0.82649 0.25371 0.0
C629 C 0.72722 0.76151 0.28186 0.0
C630 C 0.70144 0.75224 0.25709 0.0
C631 C 0.71307 0.75814 0.29076 0.0
C632 C 0.7491 0.79521 0.22083 0.0
C633 C 0.74562 0.78092 0.22972 0.0
C634 C 0.75628 0.80575 0.25452 0.0
C635 C 0.70337 0.76157 0.27422 0.0
C636 C 0.71761 0.76919 0.2648 0.0
C637 C 0.74643 0.80455 0.2374 0.0
C638 C 0.7387 0.79025 0.2468 0.0
H639 H 0.62148 0.75023 0.28544 0.0
H640 H 0.64583 0.75708 0.27004 0.0
H641 H 0.75872 0.80942 0.26913 0.0
H642 H 0.75959 0.88646 0.22629 0.0
H643 H 0.75257 0.86186 0.24166 0.0
C644 C 0.21013 0.2325 0.47159 0.0
C645 C 0.1791 0.25444 0.46954 0.0
C646 C 0.22266 0.22914 0.48063 0.0
C647 C 0.18824 0.24025 0.50448 0.0
H648 H 0.29027 0.21836 0.51073 0.0
C649 C 0.23354 0.21475 0.54179 0.0
C650 C 0.25219 0.181 0.54315 0.0
C651 C 0.22882 0.22906 0.53296 0.0
C652 C 0.2617 0.22452 0.50907 0.0
H653 H 0.13842 0.29205 0.47524 0.0
H654 H 0.16117 0.28758 0.49093 0.0
H655 H 0.27438 0.23514 0.49497 0.0
H656 H 0.28237 0.13696 0.53632 0.0
H657 H 0.27453 0.1623 0.52091 0.0
H658 H 0.1757 0.22975 0.51858 0.0
C659 C 0.17505 0.27173 0.48564 0.0
C660 C 0.25249 0.23394 0.50003 0.0
C661 C 0.16214 0.27456 0.47663 0.0
C662 C 0.26774 0.16294 0.53551 0.0
C663 C 0.26342 0.17753 0.52669 0.0
C664 C 0.19755 0.23138 0.51351 0.0
C665 C 0.20481 0.24811 0.48782 0.0
C666 C 0.21549 0.24135 0.49758 0.0
C667 C 0.24309 0.21022 0.52531 0.0
C668 C 0.23425 0.22288 0.51587 0.0
H669 H 0.22369 0.21646 0.46629 0.0
H670 H 0.24532 0.21033 0.48201 0.0
H671 H 0.15936 0.2449 0.50287 0.0
H672 H 0.22123 0.2294 0.54752 0.0
H673 H 0.21329 0.25449 0.53209 0.0
C674 C 0.74205 0.66143 0.72697 0.0
C675 C 0.75755 0.67995 0.71941 0.0
C676 C 0.74624 0.67558 0.73584 0.0
C677 C 0.81153 0.72959 0.74923 0.0
H678 H 0.73459 0.73108 0.76776 0.0
C679 C 0.84579 0.77215 0.78622 0.0
C680 C 0.82932 0.75135 0.79326 0.0
C681 C 0.83301 0.7693 0.7772 0.0
C682 C 0.7565 0.73052 0.7627 0.0
H683 H 0.7883 0.72871 0.7152 0.0
H684 H 0.79597 0.75308 0.73071 0.0
H685 H 0.71902 0.71489 0.75195 0.0
H686 H 0.78569 0.71215 0.79641 0.0
H687 H 0.76427 0.70606 0.78066 0.0
H688 H 0.84943 0.74326 0.75992 0.0
C689 C 0.78061 0.72761 0.72976 0.0
C690 C 0.74749 0.72143 0.75363 0.0
C691 C 0.77604 0.71371 0.72087 0.0
C692 C 0.79888 0.72869 0.79115 0.0
C693 C 0.78646 0.72536 0.78209 0.0
C694 C 0.82064 0.73817 0.75829 0.0
C695 C 0.76637 0.70832 0.73734 0.0
C696 C 0.77498 0.72061 0.74682 0.0
C697 C 0.80386 0.74505 0.77496 0.0
C698 C 0.79335 0.73846 0.76518 0.0
H699 H 0.72753 0.63543 0.72608 0.0
H700 H 0.73516 0.66001 0.74157 0.0
H701 H 0.83342 0.72859 0.74416 0.0
H702 H 0.86905 0.7902 0.78765 0.0
H703 H 0.84651 0.78568 0.77196 0.0
C704 C 0.12951 0.07359 0.18428 0.0
C705 C 0.15337 0.05572 0.19049 0.0
C706 C 0.09339 0.06058 0.18293 0.0
C707 C 0.01222 0.04296 0.18668 0.0
H708 H 0.9896 0.938 0.18702 0.0
C709 C 0.86678 0.98666 0.19507 0.0
C710 C 0.85423 0.95467 0.19055 0.0
C711 C 0.9028 0.99966 0.19371 0.0
C712 C 0.99538 0.96741 0.18678 0.0
H713 H 0.15829 0.00955 0.19993 0.0
H714 H 0.0955 0.98716 0.19764 0.0
H715 H 0.05393 0.95827 0.18679 0.0
H716 H 0.86939 0.91186 0.18081 0.0
H717 H 0.93225 0.93477 0.17837 0.0
H718 H 0.95366 0.0521 0.18668 0.0
C719 C 0.10467 0.01096 0.19373 0.0
C720 C 0.03231 0.97904 0.18677 0.0
C721 C 0.14068 0.02397 0.19509 0.0
C722 C 0.87823 0.93653 0.18443 0.0
C723 C 0.91433 0.94953 0.18307 0.0
C724 C 0.97528 0.03133 0.1867 0.0
C725 C 0.08038 0.02937 0.18773 0.0
C726 C 0.0412 0.01697 0.18687 0.0
C727 C 0.92721 0.98101 0.18778 0.0
C728 C 0.96639 0.99341 0.18691 0.0
H729 H 0.13845 0.09807 0.18061 0.0
H730 H 0.07555 0.07514 0.17817 0.0
H731 H 0.01801 0.07238 0.18683 0.0
H732 H 0.84906 1.00129 0.19985 0.0
H733 H 0.91188 0.02368 0.19755 0.0
C734 C 0.07263 0.37849 0.43472 0.0
C735 C 0.0549 0.35446 0.4409 0.0
C736 C 0.05944 0.41457 0.43339 0.0
C737 C 0.04139 0.49565 0.43718 0.0
H738 H 0.93636 0.51779 0.43731 0.0
C739 C 0.98407 0.641 0.44535 0.0
C740 C 0.95236 0.65344 0.44069 0.0
C741 C 0.99724 0.60498 0.44406 0.0
C742 C 0.96579 0.51213 0.43714 0.0
H743 H 0.00876 0.34917 0.45034 0.0
H744 H 0.98599 0.41192 0.44807 0.0
H745 H 0.95695 0.45349 0.43718 0.0
H746 H 0.91023 0.63805 0.4308 0.0
H747 H 0.93342 0.57514 0.4285 0.0
H748 H 0.05023 0.55429 0.43717 0.0
C749 C 0.00986 0.4029 0.44417 0.0
C750 C 0.9776 0.47523 0.43717 0.0
C751 C 0.02308 0.36693 0.44551 0.0
C752 C 0.93469 0.62931 0.43451 0.0
C753 C 0.94784 0.59318 0.43324 0.0
C754 C 0.02958 0.53254 0.43717 0.0
C755 C 0.02815 0.42737 0.43819 0.0
C756 C 0.01555 0.46652 0.43734 0.0
C757 C 0.97903 0.58043 0.43809 0.0
C758 C 0.99163 0.54126 0.43729 0.0
H759 H 0.09717 0.36973 0.43104 0.0
H760 H 0.07391 0.43254 0.42865 0.0
H761 H 0.07082 0.48999 0.43739 0.0
H762 H 0.99834 0.65883 0.45017 0.0
H763 H 0.02103 0.59601 0.448 0.0
C764 C 0.38031 0.43593 0.68461 0.0
C765 C 0.35578 0.45472 0.69048 0.0
C766 C 0.41657 0.44872 0.68339 0.0
C767 C 0.49729 0.46683 0.68747 0.0
H768 H 0.52008 0.57175 0.68701 0.0
C769 C 0.64221 0.52397 0.69603 0.0
C770 C 0.6552 0.55523 0.69127 0.0
C771 C 0.60624 0.51092 0.69463 0.0
C772 C 0.51426 0.54233 0.68701 0.0
H773 H 0.34983 0.50224 0.69947 0.0
H774 H 0.41292 0.52426 0.69741 0.0
H775 H 0.45573 0.55153 0.68663 0.0
H776 H 0.64088 0.59664 0.6811 0.0
H777 H 0.57809 0.57361 0.6786 0.0
H778 H 0.55581 0.45762 0.68784 0.0
C779 C 0.40415 0.49989 0.69366 0.0
C780 C 0.47732 0.53074 0.6869 0.0
C781 C 0.36797 0.48712 0.69489 0.0
C782 C 0.63169 0.57256 0.6849 0.0
C783 C 0.59563 0.5595 0.68351 0.0
C784 C 0.53423 0.47841 0.68758 0.0
C785 C 0.42907 0.48062 0.688 0.0
C786 C 0.46835 0.49287 0.68728 0.0
C787 C 0.58231 0.52877 0.68844 0.0
C788 C 0.54318 0.51632 0.6875 0.0
H789 H 0.37176 0.41094 0.68109 0.0
H790 H 0.4349 0.43347 0.67889 0.0
H791 H 0.49144 0.43745 0.68785 0.0
H792 H 0.65956 0.50998 0.701 0.0
H793 H 0.59681 0.48751 0.69865 0.0
C794 C 0.43511 0.12949 0.93387 0.0
C795 C 0.45336 0.15359 0.93994 0.0
C796 C 0.44787 0.09324 0.9326 0.0
C797 C 0.46528 0.01216 0.93639 0.0
H798 H 0.5701 0.9891 0.93673 0.0
C799 C 0.52071 0.86627 0.94464 0.0
C800 C 0.55281 0.85373 0.94017 0.0
C801 C 0.50791 0.90239 0.94331 0.0
C802 C 0.54073 0.995 0.93649 0.0
H803 H 0.49984 0.15877 0.94928 0.0
H804 H 0.52174 0.09567 0.94716 0.0
H805 H 0.55013 0.05352 0.93648 0.0
H806 H 0.59598 0.86895 0.93055 0.0
H807 H 0.57335 0.93193 0.92813 0.0
H808 H 0.45589 0.95363 0.93637 0.0
C809 C 0.49788 0.10479 0.94327 0.0
C810 C 0.52926 0.03199 0.93647 0.0
C811 C 0.48516 0.14097 0.94454 0.0
C812 C 0.57124 0.87781 0.93413 0.0
C813 C 0.5584 0.91398 0.93279 0.0
C814 C 0.47675 0.97517 0.93641 0.0
C815 C 0.47917 0.0803 0.93737 0.0
C816 C 0.49139 0.04104 0.93657 0.0
C817 C 0.52684 0.92687 0.93746 0.0
C818 C 0.51461 0.96612 0.93661 0.0
H819 H 0.4106 0.1384 0.9302 0.0
H820 H 0.43309 0.07527 0.92791 0.0
H821 H 0.4359 0.01807 0.93654 0.0
H822 H 0.50587 0.84848 0.94936 0.0
H823 H 0.48383 0.91147 0.94712 0.0
C824 C 0.14115 0.48744 0.06754 0.0
C825 C 0.15384 0.45513 0.0719 0.0
C826 C 0.10506 0.5001 0.06895 0.0
C827 C 0.03236 0.5308 0.07598 0.0
H828 H 0.95417 0.45727 0.07569 0.0
C829 C 0.87807 0.57237 0.07829 0.0
C830 C 0.85419 0.55423 0.07215 0.0
C831 C 0.91424 0.55953 0.07964 0.0
C832 C 0.97566 0.47818 0.07577 0.0
H833 H 0.13889 0.41143 0.0814 0.0
H834 H 0.07592 0.43382 0.08396 0.0
H835 H 0.01859 0.4374 0.07544 0.0
H836 H 0.8493 0.50784 0.06277 0.0
H837 H 0.91225 0.48583 0.06501 0.0
H838 H 0.98943 0.57161 0.07589 0.0
C839 C 0.09376 0.44905 0.07934 0.0
C840 C 0.01265 0.46677 0.07574 0.0
C841 C 0.12992 0.43634 0.07791 0.0
C842 C 0.86693 0.52244 0.06757 0.0
C843 C 0.90303 0.50965 0.0689 0.0
C844 C 0.99537 0.54222 0.07599 0.0
C845 C 0.08073 0.48084 0.07478 0.0
C846 C 0.04148 0.49294 0.07568 0.0
C847 C 0.92731 0.52827 0.07487 0.0
C848 C 0.96655 0.51606 0.07572 0.0
H849 H 0.1588 0.50256 0.06285 0.0
H850 H 0.09587 0.52435 0.06522 0.0
H851 H 0.05385 0.55171 0.07607 0.0
H852 H 0.86907 0.59687 0.08196 0.0
H853 H 0.93204 0.57424 0.08438 0.0
C854 C 0.57202 0.6308 0.32707 0.0
C855 C 0.5536 0.6553 0.32113 0.0
C856 C 0.55898 0.59463 0.32833 0.0
C857 C 0.54071 0.5139 0.32428 0.0
H858 H 0.43575 0.49142 0.32464 0.0
C859 C 0.48341 0.3689 0.31584 0.0
C860 C 0.45223 0.35595 0.32063 0.0
C861 C 0.49641 0.40494 0.31717 0.0
C862 C 0.46518 0.49716 0.32467 0.0
H863 H 0.50642 0.66129 0.31204 0.0
H864 H 0.48395 0.59836 0.31416 0.0
H865 H 0.45616 0.55577 0.32497 0.0
H866 H 0.41084 0.37048 0.33079 0.0
H867 H 0.43375 0.43343 0.33318 0.0
H868 H 0.54973 0.45531 0.32398 0.0
C869 C 0.50823 0.60709 0.31794 0.0
C870 C 0.47687 0.5341 0.32475 0.0
C871 C 0.52127 0.64318 0.31668 0.0
C872 C 0.43488 0.37962 0.32697 0.0
C873 C 0.44787 0.41578 0.32829 0.0
C874 C 0.52901 0.47698 0.3242 0.0
C875 C 0.52719 0.58218 0.32368 0.0
C876 C 0.51477 0.54294 0.32441 0.0
C877 C 0.47857 0.429 0.32334 0.0
C878 C 0.49109 0.46814 0.32424 0.0
H879 H 0.59695 0.63929 0.33063 0.0
H880 H 0.57398 0.57632 0.33289 0.0
H881 H 0.57009 0.51965 0.32394 0.0
H882 H 0.49742 0.35143 0.31089 0.0
H883 H 0.5198 0.41431 0.31315 0.0
C884 C 0.64055 0.9843 0.56609 0.0
C885 C 0.65312 0.9526 0.57074 0.0
C886 C 0.60453 0.99739 0.56741 0.0
C887 C 0.5322 0.02956 0.57441 0.0
H888 H 0.45329 0.95677 0.57437 0.0
C889 C 0.37815 0.07222 0.57705 0.0
C890 C 0.3541 0.0546 0.57085 0.0
C891 C 0.41426 0.05909 0.57833 0.0
C892 C 0.475 0.97746 0.57439 0.0
H893 H 0.63796 0.91036 0.58062 0.0
H894 H 0.57504 0.93338 0.58297 0.0
H895 H 0.5176 0.93627 0.57418 0.0
H896 H 0.34884 0.00872 0.56133 0.0
H897 H 0.41165 0.98605 0.56351 0.0
H898 H 0.48959 0.07075 0.57428 0.0
C899 C 0.59298 0.94787 0.57822 0.0
C900 C 0.5119 0.9657 0.57438 0.0
C901 C 0.62911 0.93481 0.57692 0.0
C902 C 0.3666 0.02295 0.56616 0.0
C903 C 0.40261 0.00979 0.56746 0.0
C904 C 0.4953 0.04131 0.57444 0.0
C905 C 0.58012 0.97908 0.5734 0.0
C906 C 0.54097 0.99161 0.57424 0.0
C907 C 0.42707 0.02796 0.57346 0.0
C908 C 0.46623 0.01541 0.57427 0.0
H909 H 0.65828 0.99866 0.56127 0.0
H910 H 0.59545 0.0212 0.56349 0.0
H911 H 0.5539 0.05025 0.57442 0.0
H912 H 0.36936 0.09662 0.58078 0.0
H913 H 0.43224 0.07347 0.58309 0.0
C914 C 0.02027 0.14151 0.81761 0.0
C915 C 0.05278 0.15374 0.82195 0.0
C916 C 0.00742 0.10539 0.81891 0.0
C917 C 0.97663 0.03233 0.82581 0.0
H918 H 0.04972 0.95378 0.82495 0.0
C919 C 0.93496 0.87786 0.82808 0.0
C920 C 0.95225 0.85421 0.82173 0.0
C921 C 0.94798 0.914 0.82941 0.0
C922 C 0.02893 0.97537 0.82519 0.0
H923 H 0.09666 0.1379 0.83132 0.0
H924 H 0.074 0.07489 0.83367 0.0
H925 H 0.06986 0.01817 0.82481 0.0
H926 H 0.99736 0.84969 0.81198 0.0
H927 H 0.01976 0.91254 0.81422 0.0
H928 H 0.93565 0.98953 0.8258 0.0
C929 C 0.05872 0.09312 0.82915 0.0
C930 C 0.04051 0.01233 0.82522 0.0
C931 C 0.07158 0.12932 0.82784 0.0
C932 C 0.98341 0.86713 0.81693 0.0
C933 C 0.99642 0.90318 0.81827 0.0
C934 C 0.96505 0.99536 0.82577 0.0
C935 C 0.02674 0.08056 0.8246 0.0
C936 C 0.01448 0.04129 0.82538 0.0
C937 C 0.97862 0.92724 0.82443 0.0
C938 C 0.99104 0.96642 0.82531 0.0
H939 H 0.00513 0.15957 0.81301 0.0
H940 H 0.98299 0.09656 0.8152 0.0
H941 H 0.95585 0.05393 0.82605 0.0
H942 H 0.91094 0.86872 0.83191 0.0
H943 H 0.9339 0.93165 0.8343 0.0
C944 C 0.61367 0.91362 0.18787 0.0
C945 C 0.6462 0.93483 0.18857 0.0
C946 C 0.57909 0.93079 0.18722 0.0
C947 C 0.53263 0.02012 0.19218 0.0
H948 H 0.45255 0.97715 0.178 0.0
C949 C 0.39328 0.09481 0.18729 0.0
C950 C 0.36118 0.07372 0.18889 0.0
C951 C 0.42785 0.07777 0.18661 0.0
C952 C 0.47462 0.9893 0.18203 0.0
H953 H 0.66792 0.9908 0.18879 0.0
H954 H 0.60774 0.02077 0.1874 0.0
H955 H 0.5137 0.94832 0.17772 0.0
H956 H 0.34025 0.01791 0.19076 0.0
H957 H 0.40086 0.98807 0.18949 0.0
H958 H 0.49358 0.06129 0.19641 0.0
C959 C 0.60882 0.99082 0.1876 0.0
C960 C 0.50966 0.97278 0.18189 0.0
C961 C 0.64341 0.97363 0.18834 0.0
C962 C 0.3644 0.03498 0.18954 0.0
C963 C 0.39907 0.01787 0.18877 0.0
C964 C 0.49774 0.03679 0.19225 0.0
C965 C 0.57614 0.96963 0.18717 0.0
C966 C 0.53911 0.98788 0.18701 0.0
C967 C 0.43121 0.03917 0.18744 0.0
C968 C 0.46832 0.02151 0.18721 0.0
H969 H 0.61475 0.88365 0.18807 0.0
H970 H 0.55461 0.91351 0.18704 0.0
H971 H 0.5543 0.03214 0.19636 0.0
H972 H 0.39189 0.12469 0.18673 0.0
H973 H 0.45206 0.09485 0.18546 0.0
C974 C 0.97358 0.86397 0.43933 0.0
C975 C 0.93476 0.86165 0.43906 0.0
C976 C 0.99133 0.89834 0.43866 0.0
C977 C 0.97525 0.99719 0.43216 0.0
H978 H 0.06135 0.01424 0.44746 0.0
C979 C 0.03615 0.14301 0.43973 0.0
C980 C 0.07491 0.14631 0.43932 0.0
C981 C 0.01923 0.10822 0.43902 0.0
C982 C 0.03753 0.00979 0.44308 0.0
H983 H 0.88421 0.89373 0.43778 0.0
H984 H 0.91493 0.95338 0.43686 0.0
H985 H 0.03196 0.95356 0.44744 0.0
H986 H 0.12617 0.11556 0.43769 0.0
H987 H 0.09663 0.05513 0.43654 0.0
H988 H 0.98042 0.05398 0.42804 0.0
C989 C 0.93186 0.92873 0.43738 0.0
C990 C 0.02074 0.97492 0.44303 0.0
C991 C 0.91417 0.89441 0.43796 0.0
C992 C 0.09625 0.11411 0.43804 0.0
C993 C 0.07938 0.07941 0.43744 0.0
C994 C 0.99183 0.03221 0.43229 0.0
C995 C 0.97068 0.93124 0.43778 0.0
C996 C 0.98931 0.96812 0.43758 0.0
C997 C 0.04074 0.07602 0.43799 0.0
C998 C 0.02314 0.03886 0.43776 0.0
H999 H 0.99029 0.83927 0.44012 0.0
H1000 H 0.02129 0.89906 0.43883 0.0
H1001 H 0.95151 0.9929 0.42775 0.0
H1002 H 0.0189 0.16722 0.44071 0.0
H1003 H 0.98937 0.1064 0.43953 0.0
C1004 C 0.11486 0.41399 0.68751 0.0
C1005 C 0.14749 0.43513 0.68801 0.0
C1006 C 0.08033 0.43122 0.68682 0.0
C1007 C 0.03444 0.52116 0.6914 0.0
H1008 H 0.95337 0.47688 0.67782 0.0
C1009 C 0.89427 0.59494 0.6869 0.0
C1010 C 0.86248 0.57375 0.68879 0.0
C1011 C 0.9289 0.57806 0.6861 0.0
C1012 C 0.97572 0.48942 0.68168 0.0
H1013 H 0.16945 0.49102 0.68781 0.0
H1014 H 0.10932 0.52108 0.68635 0.0
H1015 H 0.01451 0.44806 0.67742 0.0
H1016 H 0.84213 0.51795 0.69102 0.0
H1017 H 0.90277 0.48841 0.68952 0.0
H1018 H 0.99567 0.56267 0.69558 0.0
C1019 C 0.1103 0.49115 0.68674 0.0
C1020 C 0.01076 0.4729 0.68147 0.0
C1021 C 0.14485 0.47391 0.68751 0.0
C1022 C 0.86604 0.53509 0.68958 0.0
C1023 C 0.90072 0.51815 0.68869 0.0
C1024 C 0.99955 0.53782 0.69153 0.0
C1025 C 0.07753 0.47006 0.68653 0.0
C1026 C 0.04055 0.48843 0.68638 0.0
C1027 C 0.93258 0.53955 0.68707 0.0
C1028 C 0.96976 0.52206 0.68671 0.0
H1029 H 0.11583 0.38405 0.68792 0.0
H1030 H 0.05578 0.41403 0.68681 0.0
H1031 H 0.05639 0.53353 0.69542 0.0
H1032 H 0.89262 0.62476 0.68623 0.0
H1033 H 0.95288 0.59521 0.68474 0.0
C1034 C 0.47474 0.36355 0.93681 0.0
C1035 C 0.4359 0.36142 0.93702 0.0
C1036 C 0.49249 0.39777 0.93587 0.0
C1037 C 0.47638 0.49652 0.9295 0.0
H1038 H 0.56304 0.5133 0.94463 0.0
C1039 C 0.53599 0.64219 0.93741 0.0
C1040 C 0.57474 0.646 0.93741 0.0
C1041 C 0.51964 0.60729 0.9364 0.0
C1042 C 0.53914 0.50892 0.94028 0.0
H1043 H 0.38527 0.39362 0.93622 0.0
H1044 H 0.41612 0.45316 0.9348 0.0
H1045 H 0.53371 0.45265 0.94459 0.0
H1046 H 0.62662 0.61611 0.93607 0.0
H1047 H 0.59806 0.55541 0.93432 0.0
H1048 H 0.48143 0.55332 0.92541 0.0
C1049 C 0.43297 0.42841 0.93518 0.0
C1050 C 0.52235 0.47408 0.94023 0.0
C1051 C 0.41524 0.3942 0.93605 0.0
C1052 C 0.59669 0.61423 0.93614 0.0
C1053 C 0.58036 0.57938 0.93518 0.0
C1054 C 0.49305 0.53149 0.92961 0.0
C1055 C 0.47184 0.43072 0.93519 0.0
C1056 C 0.49064 0.46743 0.93488 0.0
C1057 C 0.54169 0.57545 0.93542 0.0
C1058 C 0.52454 0.53809 0.93502 0.0
H1059 H 0.4915 0.33883 0.93747 0.0
H1060 H 0.52245 0.39839 0.93573 0.0
H1061 H 0.45236 0.49227 0.92519 0.0
H1062 H 0.51825 0.66606 0.93837 0.0
H1063 H 0.48976 0.6051 0.93667 0.0
C1064 C 0.6442 0.53351 0.0748 0.0
C1065 C 0.64648 0.57236 0.07464 0.0
C1066 C 0.60992 0.51585 0.07569 0.0
C1067 C 0.51122 0.53216 0.08201 0.0
H1068 H 0.49431 0.44585 0.06675 0.0
C1069 C 0.36547 0.47284 0.07409 0.0
C1070 C 0.36165 0.43408 0.07405 0.0
C1071 C 0.40038 0.48916 0.07509 0.0
C1072 C 0.49872 0.46965 0.07114 0.0
H1073 H 0.61446 0.62311 0.07547 0.0
H1074 H 0.55482 0.59243 0.07681 0.0
H1075 H 0.55501 0.47504 0.06685 0.0
H1076 H 0.39153 0.38214 0.07529 0.0
H1077 H 0.45224 0.41064 0.077 0.0
H1078 H 0.45441 0.52714 0.08609 0.0
C1079 C 0.5795 0.57549 0.07642 0.0
C1080 C 0.53359 0.48636 0.07122 0.0
C1081 C 0.61378 0.59313 0.0756 0.0
C1082 C 0.39342 0.41208 0.07525 0.0
C1083 C 0.42828 0.42838 0.07619 0.0
C1084 C 0.47623 0.51557 0.08187 0.0
C1085 C 0.57706 0.53662 0.07637 0.0
C1086 C 0.54029 0.51793 0.07663 0.0
C1087 C 0.43222 0.46707 0.07601 0.0
C1088 C 0.46957 0.4842 0.07641 0.0
H1089 H 0.66886 0.51666 0.07414 0.0
H1090 H 0.60919 0.48588 0.07579 0.0
H1091 H 0.5155 0.55608 0.08636 0.0
H1092 H 0.3416 0.49062 0.07319 0.0
H1093 H 0.40258 0.51906 0.07486 0.0
C1094 C 0.47661 0.14632 0.32257 0.0
C1095 C 0.43784 0.14843 0.32318 0.0
C1096 C 0.49474 0.11222 0.32342 0.0
C1097 C 0.48049 0.01441 0.33102 0.0
H1098 H 0.56346 0.99513 0.31484 0.0
C1099 C 0.53805 0.86748 0.32356 0.0
C1100 C 0.57677 0.86352 0.32336 0.0
C1101 C 0.52192 0.90258 0.32437 0.0
C1102 C 0.54057 1.00023 0.31947 0.0
H1103 H 0.38778 0.11626 0.32526 0.0
H1104 H 0.41912 0.05702 0.32648 0.0
H1105 H 0.53417 0.05586 0.31473 0.0
H1106 H 0.62886 0.89341 0.32404 0.0
H1107 H 0.60065 0.95449 0.32539 0.0
H1108 H 0.48639 0.95819 0.33553 0.0
C1109 C 0.43576 0.08168 0.32556 0.0
C1110 C 0.52383 0.03513 0.31944 0.0
C1111 C 0.4177 0.11575 0.3248 0.0
C1112 C 0.59895 0.89539 0.32417 0.0
C1113 C 0.58283 0.93045 0.32488 0.0
C1114 C 0.49702 0.97938 0.33097 0.0
C1115 C 0.4745 0.07936 0.32482 0.0
C1116 C 0.49342 0.04267 0.32518 0.0
C1117 C 0.54416 0.93446 0.32491 0.0
C1118 C 0.52715 0.97189 0.32518 0.0
H1119 H 0.49299 0.17098 0.32139 0.0
H1120 H 0.52465 0.11165 0.32297 0.0
H1121 H 0.45759 0.01933 0.33565 0.0
H1122 H 0.52016 0.84353 0.32296 0.0
H1123 H 0.49202 0.90486 0.32432 0.0
C1124 C 0.86352 0.97422 0.5727 0.0
C1125 C 0.86096 0.9354 0.57294 0.0
C1126 C 0.89795 0.99176 0.57346 0.0
C1127 C 0.99659 0.97491 0.58005 0.0
H1128 H 0.01427 0.06147 0.56495 0.0
C1129 C 0.14268 0.03518 0.57253 0.0
C1130 C 0.14625 0.0739 0.57309 0.0
C1131 C 0.10782 0.01844 0.57323 0.0
C1132 C 0.00964 0.03751 0.56927 0.0
H1133 H 0.89266 0.88461 0.57424 0.0
H1134 H 0.95245 0.91495 0.57527 0.0
H1135 H 0.95347 0.03241 0.56486 0.0
H1136 H 0.11592 0.12529 0.57497 0.0
H1137 H 0.05533 0.09607 0.57608 0.0
H1138 H 0.05337 0.9796 0.58421 0.0
C1139 C 0.92793 0.93206 0.57473 0.0
C1140 C 0.9747 0.02091 0.56926 0.0
C1141 C 0.89353 0.91458 0.57408 0.0
C1142 C 0.11426 0.09539 0.5745 0.0
C1143 C 0.07947 0.07871 0.57509 0.0
C1144 C 0.03169 0.99129 0.57997 0.0
C1145 C 0.9307 0.97089 0.57437 0.0
C1146 C 0.96766 0.98932 0.57464 0.0
C1147 C 0.07581 0.04011 0.57439 0.0
C1148 C 0.03857 0.02276 0.57457 0.0
H1149 H 0.83894 0.99109 0.57189 0.0
H1150 H 0.89884 0.02173 0.57332 0.0
H1151 H 0.99213 0.95104 0.58441 0.0
H1152 H 0.16674 0.01782 0.57145 0.0
H1153 H 0.10578 0.98861 0.57261 0.0
C1154 C 0.97552 0.6447 0.82333 0.0
C1155 C 0.93671 0.64662 0.82384 0.0
C1156 C 0.99377 0.61069 0.82422 0.0
C1157 C 0.97979 0.51297 0.83186 0.0
H1158 H 0.06285 0.49365 0.81572 0.0
C1159 C 0.03735 0.36604 0.8245 0.0
C1160 C 0.07605 0.36206 0.82419 0.0
C1161 C 0.02128 0.40115 0.82534 0.0
C1162 C 0.03996 0.49877 0.82035 0.0
H1163 H 0.88672 0.61421 0.8258 0.0
H1164 H 0.91831 0.55513 0.82712 0.0
H1165 H 0.03346 0.55434 0.81556 0.0
H1166 H 0.12819 0.39192 0.82473 0.0
H1167 H 0.10009 0.453 0.82614 0.0
H1168 H 0.98579 0.45684 0.83642 0.0
C1169 C 0.93485 0.57987 0.82623 0.0
C1170 C 0.02316 0.53363 0.82029 0.0
C1171 C 0.91666 0.61384 0.82541 0.0
C1172 C 0.09828 0.39392 0.82493 0.0
C1173 C 0.08222 0.42898 0.82569 0.0
C1174 C 0.99641 0.47798 0.83185 0.0
C1175 C 0.97363 0.57775 0.82558 0.0
C1176 C 0.99269 0.54116 0.826 0.0
C1177 C 0.04355 0.43303 0.82581 0.0
C1178 C 0.02656 0.47047 0.82607 0.0
H1179 H 0.99183 0.66943 0.82217 0.0
H1180 H 0.0237 0.61024 0.82384 0.0
H1181 H 0.95684 0.51791 0.83648 0.0
H1182 H 0.01941 0.3421 0.82395 0.0
H1183 H 0.99138 0.40344 0.82536 0.0
loop_
_geom_bond_atom_site_label_1
_geom_bond_atom_site_label_2
_geom_bond_distance
_geom_bond_site_symmetry_2
_ccdc_geom_bond_type
O0 Cd1 2.223 . S
O0 C8 1.315 . S
Cd1 O0 2.223 . S
Cd1 O4 2.297 . S
Cd1 O5 2.439 . S
Cd1 O11 2.240 . S
Cd2 O3 2.240 . S
Cd2 O10 2.223 . S
Cd2 O12 2.297 . S
Cd2 O13 2.439 . S
O3 Cd2 2.240 . S
O3 C8 1.279 . S
O4 Cd1 2.297 . S
O4 C6 1.247 . S
O5 Cd1 2.439 . S
O5 C6 1.208 . S
C6 O4 1.247 . S
C6 O5 1.208 . S
C7 O12 1.247 . S
C7 O13 1.208 . S
C8 O0 1.315 . S
C8 O3 1.279 . S
C9 O10 1.315 . S
C9 O11 1.279 . S
O10 Cd2 2.223 . S
O10 C9 1.315 . S
O11 Cd1 2.240 . S
O11 C9 1.279 . S
O12 Cd2 2.297 . S
O12 C7 1.247 . S
O13 Cd2 2.439 . S
O13 C7 1.208 . S
O14 Cd15 2.223 . S
O14 C22 1.315 . S
Cd15 O14 2.223 . S
Cd15 O18 2.297 . S
Cd15 O19 2.439 . S
Cd15 O25 2.240 . S
Cd16 O17 2.240 . S
Cd16 O24 2.223 . S
Cd16 O26 2.297 . S
Cd16 O27 2.439 . S
O17 Cd16 2.240 . S
O17 C22 1.279 . S
O18 Cd15 2.297 . S
O18 C20 1.247 . S
O19 Cd15 2.439 . S
O19 C20 1.208 . S
C20 O18 1.247 . S
C20 O19 1.208 . S
C21 O26 1.247 . S
C21 O27 1.208 . S
C22 O14 1.315 . S
C22 O17 1.279 . S
C23 O24 1.315 . S
C23 O25 1.279 . S
O24 Cd16 2.223 . S
O24 C23 1.315 . S
O25 Cd15 2.240 . S
O25 C23 1.279 . S
O26 Cd16 2.297 . S
O26 C21 1.247 . S
O27 Cd16 2.439 . S
O27 C21 1.208 . S
O28 Cd29 2.223 . S
O28 C36 1.315 . S
Cd29 O28 2.223 . S
Cd29 O32 2.297 . S
Cd29 O33 2.439 . S
Cd29 O39 2.240 . S
Cd30 O31 2.240 . S
Cd30 O38 2.223 . S
Cd30 O40 2.297 . S
Cd30 O41 2.439 . S
O31 Cd30 2.240 . S
O31 C36 1.279 . S
O32 Cd29 2.297 . S
O32 C34 1.247 . S
O33 Cd29 2.439 . S
O33 C34 1.208 . S
C34 O32 1.247 . S
C34 O33 1.208 . S
C35 O40 1.247 . S
C35 O41 1.208 . S
C36 O28 1.315 . S
C36 O31 1.279 . S
C37 O38 1.315 . S
C37 O39 1.279 . S
O38 Cd30 2.223 . S
O38 C37 1.315 . S
O39 Cd29 2.240 . S
O39 C37 1.279 . S
O40 Cd30 2.297 . S
O40 C35 1.247 . S
O41 Cd30 2.439 . S
O41 C35 1.208 . S
O42 Cd43 2.223 . S
O42 C50 1.315 . S
Cd43 O42 2.223 . S
Cd43 O46 2.297 . S
Cd43 O47 2.439 . S
Cd43 O53 2.240 . S
Cd44 O45 2.240 . S
Cd44 O52 2.223 . S
Cd44 O54 2.297 . S
Cd44 O55 2.439 . S
O45 Cd44 2.240 . S
O45 C50 1.279 . S
O46 Cd43 2.297 . S
O46 C48 1.247 . S
O47 Cd43 2.439 . S
O47 C48 1.208 . S
C48 O46 1.247 . S
C48 O47 1.208 . S
C49 O54 1.247 . S
C49 O55 1.208 . S
C50 O42 1.315 . S
C50 O45 1.279 . S
C51 O52 1.315 . S
C51 O53 1.279 . S
O52 Cd44 2.223 . S
O52 C51 1.315 . S
O53 Cd43 2.240 . S
O53 C51 1.279 . S
O54 Cd44 2.297 . S
O54 C49 1.247 . S
O55 Cd44 2.439 . S
O55 C49 1.208 . S
O56 Cd57 2.223 . S
O56 C64 1.315 . S
Cd57 O56 2.223 . S
Cd57 O60 2.297 . S
Cd57 O61 2.439 . S
Cd57 O67 2.240 . S
Cd58 O59 2.240 . S
Cd58 O66 2.223 . S
Cd58 O68 2.297 . S
Cd58 O69 2.439 . S
O59 Cd58 2.240 . S
O59 C64 1.279 . S
O60 Cd57 2.297 . S
O60 C62 1.247 . S
O61 Cd57 2.439 . S
O61 C62 1.208 . S
C62 O60 1.247 . S
C62 O61 1.208 . S
C63 O68 1.247 . S
C63 O69 1.208 . S
C64 O56 1.315 . S
C64 O59 1.279 . S
C65 O66 1.315 . S
C65 O67 1.279 . S
O66 Cd58 2.223 . S
O66 C65 1.315 . S
O67 Cd57 2.240 . S
O67 C65 1.279 . S
O68 Cd58 2.297 . S
O68 C63 1.247 . S
O69 Cd58 2.439 . S
O69 C63 1.208 . S
O70 Cd71 2.223 . S
O70 C78 1.315 . S
Cd71 O70 2.223 . S
Cd71 O74 2.297 . S
Cd71 O75 2.439 . S
Cd71 O81 2.240 . S
Cd72 O73 2.240 . S
Cd72 O80 2.223 . S
Cd72 O82 2.297 . S
Cd72 O83 2.439 . S
O73 Cd72 2.240 . S
O73 C78 1.279 . S
O74 Cd71 2.297 . S
O74 C76 1.247 . S
O75 Cd71 2.439 . S
O75 C76 1.208 . S
C76 O74 1.247 . S
C76 O75 1.208 . S
C77 O82 1.247 . S
C77 O83 1.208 . S
C78 O70 1.315 . S
C78 O73 1.279 . S
C79 O80 1.315 . S
C79 O81 1.279 . S
O80 Cd72 2.223 . S
O80 C79 1.315 . S
O81 Cd71 2.240 . S
O81 C79 1.279 . S
O82 Cd72 2.297 . S
O82 C77 1.247 . S
O83 Cd72 2.439 . S
O83 C77 1.208 . S
O84 Cd85 2.223 . S
O84 C92 1.315 . S
Cd85 O84 2.223 . S
Cd85 O88 2.297 . S
Cd85 O89 2.439 . S
Cd85 O95 2.240 . S
Cd86 O87 2.240 . S
Cd86 O94 2.223 . S
Cd86 O96 2.297 . S
Cd86 O97 2.439 . S
O87 Cd86 2.240 . S
O87 C92 1.279 . S
O88 Cd85 2.297 . S
O88 C90 1.247 . S
O89 Cd85 2.439 . S
O89 C90 1.208 . S
C90 O88 1.247 . S
C90 O89 1.208 . S
C91 O96 1.247 . S
C91 O97 1.208 . S
C92 O84 1.315 . S
C92 O87 1.279 . S
C93 O94 1.315 . S
C93 O95 1.279 . S
O94 Cd86 2.223 . S
O94 C93 1.315 . S
O95 Cd85 2.240 . S
O95 C93 1.279 . S
O96 Cd86 2.297 . S
O96 C91 1.247 . S
O97 Cd86 2.439 . S
O97 C91 1.208 . S
O98 Cd99 2.223 . S
O98 C106 1.315 . S
Cd99 O98 2.223 . S
Cd99 O102 2.297 . S
Cd99 O103 2.439 . S
Cd99 O109 2.240 . S
Cd100 O101 2.240 . S
Cd100 O108 2.223 . S
Cd100 O110 2.297 . S
Cd100 O111 2.439 . S
O101 Cd100 2.240 . S
O101 C106 1.279 . S
O102 Cd99 2.297 . S
O102 C104 1.247 . S
O103 Cd99 2.439 . S
O103 C104 1.208 . S
C104 O102 1.247 . S
C104 O103 1.208 . S
C105 O110 1.247 . S
C105 O111 1.208 . S
C106 O98 1.315 . S
C106 O101 1.279 . S
C107 O108 1.315 . S
C107 O109 1.279 . S
O108 Cd100 2.223 . S
O108 C107 1.315 . S
O109 Cd99 2.240 . S
O109 C107 1.279 . S
O110 Cd100 2.297 . S
O110 C105 1.247 . S
O111 Cd100 2.439 . S
O111 C105 1.208 . S
O112 Cd113 2.223 . S
O112 C120 1.315 . S
Cd113 O112 2.223 . S
Cd113 O116 2.297 . S
Cd113 O117 2.439 . S
Cd113 O123 2.240 . S
Cd114 O115 2.240 . S
Cd114 O122 2.223 . S
Cd114 O124 2.297 . S
Cd114 O125 2.439 . S
O115 Cd114 2.240 . S
O115 C120 1.279 . S
O116 Cd113 2.297 . S
O116 C118 1.247 . S
O117 Cd113 2.439 . S
O117 C118 1.208 . S
C118 O116 1.247 . S
C118 O117 1.208 . S
C119 O124 1.247 . S
C119 O125 1.208 . S
C120 O112 1.315 . S
C120 O115 1.279 . S
C121 O122 1.315 . S
C121 O123 1.279 . S
O122 Cd114 2.223 . S
O122 C121 1.315 . S
O123 Cd113 2.240 . S
O123 C121 1.279 . S
O124 Cd114 2.297 . S
O124 C119 1.247 . S
O125 Cd114 2.439 . S
O125 C119 1.208 . S
O126 Cd127 2.223 . S
O126 C134 1.315 . S
Cd127 O126 2.223 . S
Cd127 O130 2.297 . S
Cd127 O131 2.439 . S
Cd127 O137 2.240 . S
Cd128 O129 2.240 . S
Cd128 O136 2.223 . S
Cd128 O138 2.297 . S
Cd128 O139 2.439 . S
O129 Cd128 2.240 . S
O129 C134 1.279 . S
O130 Cd127 2.297 . S
O130 C132 1.247 . S
O131 Cd127 2.439 . S
O131 C132 1.208 . S
C132 O130 1.247 . S
C132 O131 1.208 . S
C133 O138 1.247 . S
C133 O139 1.208 . S
C134 O126 1.315 . S
C134 O129 1.279 . S
C135 O136 1.315 . S
C135 O137 1.279 . S
O136 Cd128 2.223 . S
O136 C135 1.315 . S
O137 Cd127 2.240 . S
O137 C135 1.279 . S
O138 Cd128 2.297 . S
O138 C133 1.247 . S
O139 Cd128 2.439 . S
O139 C133 1.208 . S
O140 Cd141 2.223 . S
O140 C148 1.315 . S
Cd141 O140 2.223 . S
Cd141 O144 2.297 . S
Cd141 O145 2.439 . S
Cd141 O151 2.240 . S
Cd142 O143 2.240 . S
Cd142 O150 2.223 . S
Cd142 O152 2.297 . S
Cd142 O153 2.439 . S
O143 Cd142 2.240 . S
O143 C148 1.279 . S
O144 Cd141 2.297 . S
O144 C146 1.247 . S
O145 Cd141 2.439 . S
O145 C146 1.208 . S
C146 O144 1.247 . S
C146 O145 1.208 . S
C147 O152 1.247 . S
C147 O153 1.208 . S
C148 O140 1.315 . S
C148 O143 1.279 . S
C149 O150 1.315 . S
C149 O151 1.279 . S
O150 Cd142 2.223 . S
O150 C149 1.315 . S
O151 Cd141 2.240 . S
O151 C149 1.279 . S
O152 Cd142 2.297 . S
O152 C147 1.247 . S
O153 Cd142 2.439 . S
O153 C147 1.208 . S
O154 Cd155 2.223 . S
O154 C162 1.315 . S
Cd155 O154 2.223 . S
Cd155 O158 2.297 . S
Cd155 O159 2.439 . S
Cd155 O165 2.240 . S
Cd156 O157 2.240 . S
Cd156 O164 2.223 . S
Cd156 O166 2.297 . S
Cd156 O167 2.439 . S
O157 Cd156 2.240 . S
O157 C162 1.279 . S
O158 Cd155 2.297 . S
O158 C160 1.247 . S
O159 Cd155 2.439 . S
O159 C160 1.208 . S
C160 O158 1.247 . S
C160 O159 1.208 . S
C161 O166 1.247 . S
C161 O167 1.208 . S
C162 O154 1.315 . S
C162 O157 1.279 . S
C163 O164 1.315 . S
C163 O165 1.279 . S
O164 Cd156 2.223 . S
O164 C163 1.315 . S
O165 Cd155 2.240 . S
O165 C163 1.279 . S
O166 Cd156 2.297 . S
O166 C161 1.247 . S
O167 Cd156 2.439 . S
O167 C161 1.208 . S
O168 Cd169 2.223 . S
O168 C176 1.315 . S
Cd169 O168 2.223 . S
Cd169 O172 2.297 . S
Cd169 O173 2.439 . S
Cd169 O179 2.240 . S
Cd170 O171 2.240 . S
Cd170 O178 2.223 . S
Cd170 O180 2.297 . S
Cd170 O181 2.439 . S
O171 Cd170 2.240 . S
O171 C176 1.279 . S
O172 Cd169 2.297 . S
O172 C174 1.247 . S
O173 Cd169 2.439 . S
O173 C174 1.208 . S
C174 O172 1.247 . S
C174 O173 1.208 . S
C175 O180 1.247 . S
C175 O181 1.208 . S
C176 O168 1.315 . S
C176 O171 1.279 . S
C177 O178 1.315 . S
C177 O179 1.279 . S
O178 Cd170 2.223 . S
O178 C177 1.315 . S
O179 Cd169 2.240 . S
O179 C177 1.279 . S
O180 Cd170 2.297 . S
O180 C175 1.247 . S
O181 Cd170 2.439 . S
O181 C175 1.208 . S
O182 Cd183 2.223 . S
O182 C190 1.315 . S
Cd183 O182 2.223 . S
Cd183 O186 2.297 . S
Cd183 O187 2.439 . S
Cd183 O193 2.240 . S
Cd184 O185 2.240 . S
Cd184 O192 2.223 . S
Cd184 O194 2.297 . S
Cd184 O195 2.439 . S
O185 Cd184 2.240 . S
O185 C190 1.279 . S
O186 Cd183 2.297 . S
O186 C188 1.247 . S
O187 Cd183 2.439 . S
O187 C188 1.208 . S
C188 O186 1.247 . S
C188 O187 1.208 . S
C189 O194 1.247 . S
C189 O195 1.208 . S
C190 O182 1.315 . S
C190 O185 1.279 . S
C191 O192 1.315 . S
C191 O193 1.279 . S
O192 Cd184 2.223 . S
O192 C191 1.315 . S
O193 Cd183 2.240 . S
O193 C191 1.279 . S
O194 Cd184 2.297 . S
O194 C189 1.247 . S
O195 Cd184 2.439 . S
O195 C189 1.208 . S
O196 Cd197 2.223 . S
O196 C204 1.315 . S
Cd197 O196 2.223 . S
Cd197 O200 2.297 . S
Cd197 O201 2.439 . S
Cd197 O207 2.240 . S
Cd198 O199 2.240 . S
Cd198 O206 2.223 . S
Cd198 O208 2.297 . S
Cd198 O209 2.439 . S
O199 Cd198 2.240 . S
O199 C204 1.279 . S
O200 Cd197 2.297 . S
O200 C202 1.247 . S
O201 Cd197 2.439 . S
O201 C202 1.208 . S
C202 O200 1.247 . S
C202 O201 1.208 . S
C203 O208 1.247 . S
C203 O209 1.208 . S
C204 O196 1.315 . S
C204 O199 1.279 . S
C205 O206 1.315 . S
C205 O207 1.279 . S
O206 Cd198 2.223 . S
O206 C205 1.315 . S
O207 Cd197 2.240 . S
O207 C205 1.279 . S
O208 Cd198 2.297 . S
O208 C203 1.247 . S
O209 Cd198 2.439 . S
O209 C203 1.208 . S
O210 Cd211 2.223 . S
O210 C218 1.315 . S
Cd211 O210 2.223 . S
Cd211 O214 2.297 . S
Cd211 O215 2.439 . S
Cd211 O221 2.240 . S
Cd212 O213 2.240 . S
Cd212 O220 2.223 . S
Cd212 O222 2.297 . S
Cd212 O223 2.439 . S
O213 Cd212 2.240 . S
O213 C218 1.279 . S
O214 Cd211 2.297 . S
O214 C216 1.247 . S
O215 Cd211 2.439 . S
O215 C216 1.208 . S
C216 O214 1.247 . S
C216 O215 1.208 . S
C217 O222 1.247 . S
C217 O223 1.208 . S
C218 O210 1.315 . S
C218 O213 1.279 . S
C219 O220 1.315 . S
C219 O221 1.279 . S
O220 Cd212 2.223 . S
O220 C219 1.315 . S
O221 Cd211 2.240 . S
O221 C219 1.279 . S
O222 Cd212 2.297 . S
O222 C217 1.247 . S
O223 Cd212 2.439 . S
O223 C217 1.208 . S
C224 C225 1.349 . S
C224 C226 1.327 . S
C224 H249 0.950 . S
C225 C224 1.349 . S
C225 C241 1.349 . S
C226 C224 1.327 . S
C226 C245 1.429 . S
C226 H250 0.950 . S
C227 C244 1.574 . S
C227 C246 1.368 . S
C227 H251 0.949 . S
H228 C232 0.949 . S
C229 C230 1.349 . S
C229 C231 1.327 . S
C229 H252 0.950 . S
C230 C229 1.349 . S
C230 C242 1.349 . S
C231 C229 1.327 . S
C231 C247 1.429 . S
C231 H253 0.950 . S
C232 H228 0.949 . S
C232 C240 1.574 . S
C232 C248 1.368 . S
H233 C241 0.950 . S
H234 C239 0.950 . S
H235 C240 0.949 . S
H236 C242 0.950 . S
H237 C243 0.950 . S
H238 C244 0.949 . S
C239 H234 0.950 . S
C239 C241 1.327 . S
C239 C245 1.429 . S
C240 C232 1.574 . S
C240 H235 0.949 . S
C240 C246 1.368 . S
C241 C225 1.349 . S
C241 H233 0.950 . S
C241 C239 1.327 . S
C242 C230 1.349 . S
C242 H236 0.950 . S
C242 C243 1.327 . S
C243 H237 0.950 . S
C243 C242 1.327 . S
C243 C247 1.429 . S
C244 C227 1.574 . S
C244 H238 0.949 . S
C244 C248 1.368 . S
C245 C226 1.429 . S
C245 C239 1.429 . S
C245 C246 1.523 . S
C246 C227 1.368 . S
C246 C240 1.368 . S
C246 C245 1.523 . S
C247 C231 1.429 . S
C247 C243 1.429 . S
C247 C248 1.523 . S
C248 C232 1.368 . S
C248 C244 1.368 . S
C248 C247 1.523 . S
H249 C224 0.950 . S
H250 C226 0.950 . S
H251 C227 0.949 . S
H252 C229 0.950 . S
H253 C231 0.950 . S
C254 C255 1.349 . S
C254 C256 1.327 . S
C254 H279 0.950 . S
C255 C254 1.349 . S
C255 C271 1.349 . S
C256 C254 1.327 . S
C256 C275 1.429 . S
C256 H280 0.950 . S
C257 C274 1.574 . S
C257 C276 1.368 . S
C257 H281 0.949 . S
H258 C262 0.949 . S
C259 C260 1.349 . S
C259 C261 1.327 . S
C259 H282 0.950 . S
C260 C259 1.349 . S
C260 C272 1.349 . S
C261 C259 1.327 . S
C261 C277 1.429 . S
C261 H283 0.950 . S
C262 H258 0.949 . S
C262 C270 1.574 . S
C262 C278 1.368 . S
H263 C271 0.950 . S
H264 C269 0.950 . S
H265 C270 0.949 . S
H266 C272 0.950 . S
H267 C273 0.950 . S
H268 C274 0.949 . S
C269 H264 0.950 . S
C269 C271 1.327 . S
C269 C275 1.429 . S
C270 C262 1.574 . S
C270 H265 0.949 . S
C270 C276 1.368 . S
C271 C255 1.349 . S
C271 H263 0.950 . S
C271 C269 1.327 . S
C272 C260 1.349 . S
C272 H266 0.950 . S
C272 C273 1.327 . S
C273 H267 0.950 . S
C273 C272 1.327 . S
C273 C277 1.429 . S
C274 C257 1.574 . S
C274 H268 0.949 . S
C274 C278 1.368 . S
C275 C256 1.429 . S
C275 C269 1.429 . S
C275 C276 1.523 . S
C276 C257 1.368 . S
C276 C270 1.368 . S
C276 C275 1.523 . S
C277 C261 1.429 . S
C277 C273 1.429 . S
C277 C278 1.523 . S
C278 C262 1.368 . S
C278 C274 1.368 . S
C278 C277 1.523 . S
H279 C254 0.950 . S
H280 C256 0.950 . S
H281 C257 0.949 . S
H282 C259 0.950 . S
H283 C261 0.950 . S
C284 C285 1.349 . S
C284 C286 1.327 . S
C284 H309 0.950 . S
C285 C284 1.349 . S
C285 C301 1.349 . S
C286 C284 1.327 . S
C286 C305 1.429 . S
C286 H310 0.950 . S
C287 C304 1.574 . S
C287 C306 1.368 . S
C287 H311 0.949 . S
H288 C292 0.949 . S
C289 C290 1.349 . S
C289 C291 1.327 . S
C289 H312 0.950 . S
C290 C289 1.349 . S
C290 C302 1.349 . S
C291 C289 1.327 . S
C291 C307 1.429 . S
C291 H313 0.950 . S
C292 H288 0.949 . S
C292 C300 1.574 . S
C292 C308 1.368 . S
H293 C301 0.950 . S
H294 C299 0.950 . S
H295 C300 0.949 . S
H296 C302 0.950 . S
H297 C303 0.950 . S
H298 C304 0.949 . S
C299 H294 0.950 . S
C299 C301 1.327 . S
C299 C305 1.429 . S
C300 C292 1.574 . S
C300 H295 0.949 . S
C300 C306 1.368 . S
C301 C285 1.349 . S
C301 H293 0.950 . S
C301 C299 1.327 . S
C302 C290 1.349 . S
C302 H296 0.950 . S
C302 C303 1.327 . S
C303 H297 0.950 . S
C303 C302 1.327 . S
C303 C307 1.429 . S
C304 C287 1.574 . S
C304 H298 0.949 . S
C304 C308 1.368 . S
C305 C286 1.429 . S
C305 C299 1.429 . S
C305 C306 1.523 . S
C306 C287 1.368 . S
C306 C300 1.368 . S
C306 C305 1.523 . S
C307 C291 1.429 . S
C307 C303 1.429 . S
C307 C308 1.523 . S
C308 C292 1.368 . S
C308 C304 1.368 . S
C308 C307 1.523 . S
H309 C284 0.950 . S
H310 C286 0.950 . S
H311 C287 0.949 . S
H312 C289 0.950 . S
H313 C291 0.950 . S
C314 C315 1.349 . S
C314 C316 1.327 . S
C314 H339 0.950 . S
C315 C314 1.349 . S
C315 C331 1.349 . S
C316 C314 1.327 . S
C316 C335 1.429 . S
C316 H340 0.950 . S
C317 C334 1.574 . S
C317 C336 1.368 . S
C317 H341 0.949 . S
H318 C322 0.949 . S
C319 C320 1.349 . S
C319 C321 1.327 . S
C319 H342 0.950 . S
C320 C319 1.349 . S
C320 C332 1.349 . S
C321 C319 1.327 . S
C321 C337 1.429 . S
C321 H343 0.950 . S
C322 H318 0.949 . S
C322 C330 1.574 . S
C322 C338 1.368 . S
H323 C331 0.950 . S
H324 C329 0.950 . S
H325 C330 0.949 . S
H326 C332 0.950 . S
H327 C333 0.950 . S
H328 C334 0.949 . S
C329 H324 0.950 . S
C329 C331 1.327 . S
C329 C335 1.429 . S
C330 C322 1.574 . S
C330 H325 0.949 . S
C330 C336 1.368 . S
C331 C315 1.349 . S
C331 H323 0.950 . S
C331 C329 1.327 . S
C332 C320 1.349 . S
C332 H326 0.950 . S
C332 C333 1.327 . S
C333 H327 0.950 . S
C333 C332 1.327 . S
C333 C337 1.429 . S
C334 C317 1.574 . S
C334 H328 0.949 . S
C334 C338 1.368 . S
C335 C316 1.429 . S
C335 C329 1.429 . S
C335 C336 1.523 . S
C336 C317 1.368 . S
C336 C330 1.368 . S
C336 C335 1.523 . S
C337 C321 1.429 . S
C337 C333 1.429 . S
C337 C338 1.523 . S
C338 C322 1.368 . S
C338 C334 1.368 . S
C338 C337 1.523 . S
H339 C314 0.950 . S
H340 C316 0.950 . S
H341 C317 0.949 . S
H342 C319 0.950 . S
H343 C321 0.950 . S
C344 C345 1.349 . S
C344 C346 1.327 . S
C344 H369 0.950 . S
C345 C344 1.349 . S
C345 C361 1.349 . S
C346 C344 1.327 . S
C346 C365 1.429 . S
C346 H370 0.950 . S
C347 C364 1.574 . S
C347 C366 1.368 . S
C347 H371 0.949 . S
H348 C352 0.949 . S
C349 C350 1.349 . S
C349 C351 1.327 . S
C349 H372 0.950 . S
C350 C349 1.349 . S
C350 C362 1.349 . S
C351 C349 1.327 . S
C351 C367 1.429 . S
C351 H373 0.950 . S
C352 H348 0.949 . S
C352 C360 1.574 . S
C352 C368 1.368 . S
H353 C361 0.950 . S
H354 C359 0.950 . S
H355 C360 0.949 . S
H356 C362 0.950 . S
H357 C363 0.950 . S
H358 C364 0.949 . S
C359 H354 0.950 . S
C359 C361 1.327 . S
C359 C365 1.429 . S
C360 C352 1.574 . S
C360 H355 0.949 . S
C360 C366 1.368 . S
C361 C345 1.349 . S
C361 H353 0.950 . S
C361 C359 1.327 . S
C362 C350 1.349 . S
C362 H356 0.950 . S
C362 C363 1.327 . S
C363 H357 0.950 . S
C363 C362 1.327 . S
C363 C367 1.429 . S
C364 C347 1.574 . S
C364 H358 0.949 . S
C364 C368 1.368 . S
C365 C346 1.429 . S
C365 C359 1.429 . S
C365 C366 1.523 . S
C366 C347 1.368 . S
C366 C360 1.368 . S
C366 C365 1.523 . S
C367 C351 1.429 . S
C367 C363 1.429 . S
C367 C368 1.523 . S
C368 C352 1.368 . S
C368 C364 1.368 . S
C368 C367 1.523 . S
H369 C344 0.950 . S
H370 C346 0.950 . S
H371 C347 0.949 . S
H372 C349 0.950 . S
H373 C351 0.950 . S
C374 C375 1.349 . S
C374 C376 1.327 . S
C374 H399 0.950 . S
C375 C374 1.349 . S
C375 C391 1.349 . S
C376 C374 1.327 . S
C376 C395 1.429 . S
C376 H400 0.950 . S
C377 C394 1.574 . S
C377 C396 1.368 . S
C377 H401 0.949 . S
H378 C382 0.949 . S
C379 C380 1.349 . S
C379 C381 1.327 . S
C379 H402 0.950 . S
C380 C379 1.349 . S
C380 C392 1.349 . S
C381 C379 1.327 . S
C381 C397 1.429 . S
C381 H403 0.950 . S
C382 H378 0.949 . S
C382 C390 1.574 . S
C382 C398 1.368 . S
H383 C391 0.950 . S
H384 C389 0.950 . S
H385 C390 0.949 . S
H386 C392 0.950 . S
H387 C393 0.950 . S
H388 C394 0.949 . S
C389 H384 0.950 . S
C389 C391 1.327 . S
C389 C395 1.429 . S
C390 C382 1.574 . S
C390 H385 0.949 . S
C390 C396 1.368 . S
C391 C375 1.349 . S
C391 H383 0.950 . S
C391 C389 1.327 . S
C392 C380 1.349 . S
C392 H386 0.950 . S
C392 C393 1.327 . S
C393 H387 0.950 . S
C393 C392 1.327 . S
C393 C397 1.429 . S
C394 C377 1.574 . S
C394 H388 0.949 . S
C394 C398 1.368 . S
C395 C376 1.429 . S
C395 C389 1.429 . S
C395 C396 1.523 . S
C396 C377 1.368 . S
C396 C390 1.368 . S
C396 C395 1.523 . S
C397 C381 1.429 . S
C397 C393 1.429 . S
C397 C398 1.523 . S
C398 C382 1.368 . S
C398 C394 1.368 . S
C398 C397 1.523 . S
H399 C374 0.950 . S
H400 C376 0.950 . S
H401 C377 0.949 . S
H402 C379 0.950 . S
H403 C381 0.950 . S
C404 C405 1.349 . S
C404 C406 1.327 . S
C404 H429 0.950 . S
C405 C404 1.349 . S
C405 C421 1.349 . S
C406 C404 1.327 . S
C406 C425 1.429 . S
C406 H430 0.950 . S
C407 C424 1.574 . S
C407 C426 1.368 . S
C407 H431 0.949 . S
H408 C412 0.949 . S
C409 C410 1.349 . S
C409 C411 1.327 . S
C409 H432 0.950 . S
C410 C409 1.349 . S
C410 C422 1.349 . S
C411 C409 1.327 . S
C411 C427 1.429 . S
C411 H433 0.950 . S
C412 H408 0.949 . S
C412 C420 1.574 . S
C412 C428 1.368 . S
H413 C421 0.950 . S
H414 C419 0.950 . S
H415 C420 0.949 . S
H416 C422 0.950 . S
H417 C423 0.950 . S
H418 C424 0.949 . S
C419 H414 0.950 . S
C419 C421 1.327 . S
C419 C425 1.429 . S
C420 C412 1.574 . S
C420 H415 0.949 . S
C420 C426 1.368 . S
C421 C405 1.349 . S
C421 H413 0.950 . S
C421 C419 1.327 . S
C422 C410 1.349 . S
C422 H416 0.950 . S
C422 C423 1.327 . S
C423 H417 0.950 . S
C423 C422 1.327 . S
C423 C427 1.429 . S
C424 C407 1.574 . S
C424 H418 0.949 . S
C424 C428 1.368 . S
C425 C406 1.429 . S
C425 C419 1.429 . S
C425 C426 1.523 . S
C426 C407 1.368 . S
C426 C420 1.368 . S
C426 C425 1.523 . S
C427 C411 1.429 . S
C427 C423 1.429 . S
C427 C428 1.523 . S
C428 C412 1.368 . S
C428 C424 1.368 . S
C428 C427 1.523 . S
H429 C404 0.950 . S
H430 C406 0.950 . S
H431 C407 0.949 . S
H432 C409 0.950 . S
H433 C411 0.950 . S
C434 C435 1.349 . S
C434 C436 1.327 . S
C434 H459 0.950 . S
C435 C434 1.349 . S
C435 C451 1.349 . S
C436 C434 1.327 . S
C436 C455 1.429 . S
C436 H460 0.950 . S
C437 C454 1.574 . S
C437 C456 1.368 . S
C437 H461 0.949 . S
H438 C442 0.949 . S
C439 C440 1.349 . S
C439 C441 1.327 . S
C439 H462 0.950 . S
C440 C439 1.349 . S
C440 C452 1.349 . S
C441 C439 1.327 . S
C441 C457 1.429 . S
C441 H463 0.950 . S
C442 H438 0.949 . S
C442 C450 1.574 . S
C442 C458 1.368 . S
H443 C451 0.950 . S
H444 C449 0.950 . S
H445 C450 0.949 . S
H446 C452 0.950 . S
H447 C453 0.950 . S
H448 C454 0.949 . S
C449 H444 0.950 . S
C449 C451 1.327 . S
C449 C455 1.429 . S
C450 C442 1.574 . S
C450 H445 0.949 . S
C450 C456 1.368 . S
C451 C435 1.349 . S
C451 H443 0.950 . S
C451 C449 1.327 . S
C452 C440 1.349 . S
C452 H446 0.950 . S
C452 C453 1.327 . S
C453 H447 0.950 . S
C453 C452 1.327 . S
C453 C457 1.429 . S
C454 C437 1.574 . S
C454 H448 0.949 . S
C454 C458 1.368 . S
C455 C436 1.429 . S
C455 C449 1.429 . S
C455 C456 1.523 . S
C456 C437 1.368 . S
C456 C450 1.368 . S
C456 C455 1.523 . S
C457 C441 1.429 . S
C457 C453 1.429 . S
C457 C458 1.523 . S
C458 C442 1.368 . S
C458 C454 1.368 . S
C458 C457 1.523 . S
H459 C434 0.950 . S
H460 C436 0.950 . S
H461 C437 0.949 . S
H462 C439 0.950 . S
H463 C441 0.950 . S
C464 C465 1.349 . S
C464 C466 1.327 . S
C464 H489 0.950 . S
C465 C464 1.349 . S
C465 C481 1.349 . S
C466 C464 1.327 . S
C466 C485 1.429 . S
C466 H490 0.950 . S
C467 C484 1.574 . S
C467 C486 1.368 . S
C467 H491 0.949 . S
H468 C472 0.949 . S
C469 C470 1.349 . S
C469 C471 1.327 . S
C469 H492 0.950 . S
C470 C469 1.349 . S
C470 C482 1.349 . S
C471 C469 1.327 . S
C471 C487 1.429 . S
C471 H493 0.950 . S
C472 H468 0.949 . S
C472 C480 1.574 . S
C472 C488 1.368 . S
H473 C481 0.950 . S
H474 C479 0.950 . S
H475 C480 0.949 . S
H476 C482 0.950 . S
H477 C483 0.950 . S
H478 C484 0.949 . S
C479 H474 0.950 . S
C479 C481 1.327 . S
C479 C485 1.429 . S
C480 C472 1.574 . S
C480 H475 0.949 . S
C480 C486 1.368 . S
C481 C465 1.349 . S
C481 H473 0.950 . S
C481 C479 1.327 . S
C482 C470 1.349 . S
C482 H476 0.950 . S
C482 C483 1.327 . S
C483 H477 0.950 . S
C483 C482 1.327 . S
C483 C487 1.429 . S
C484 C467 1.574 . S
C484 H478 0.949 . S
C484 C488 1.368 . S
C485 C466 1.429 . S
C485 C479 1.429 . S
C485 C486 1.523 . S
C486 C467 1.368 . S
C486 C480 1.368 . S
C486 C485 1.523 . S
C487 C471 1.429 . S
C487 C483 1.429 . S
C487 C488 1.523 . S
C488 C472 1.368 . S
C488 C484 1.368 . S
C488 C487 1.523 . S
H489 C464 0.950 . S
H490 C466 0.950 . S
H491 C467 0.949 . S
H492 C469 0.950 . S
H493 C471 0.950 . S
C494 C495 1.349 . S
C494 C496 1.327 . S
C494 H519 0.950 . S
C495 C494 1.349 . S
C495 C511 1.349 . S
C496 C494 1.327 . S
C496 C515 1.429 . S
C496 H520 0.950 . S
C497 C514 1.574 . S
C497 C516 1.368 . S
C497 H521 0.949 . S
H498 C502 0.949 . S
C499 C500 1.349 . S
C499 C501 1.327 . S
C499 H522 0.950 . S
C500 C499 1.349 . S
C500 C512 1.349 . S
C501 C499 1.327 . S
C501 C517 1.429 . S
C501 H523 0.950 . S
C502 H498 0.949 . S
C502 C510 1.574 . S
C502 C518 1.368 . S
H503 C511 0.950 . S
H504 C509 0.950 . S
H505 C510 0.949 . S
H506 C512 0.950 . S
H507 C513 0.950 . S
H508 C514 0.949 . S
C509 H504 0.950 . S
C509 C511 1.327 . S
C509 C515 1.429 . S
C510 C502 1.574 . S
C510 H505 0.949 . S
C510 C516 1.368 . S
C511 C495 1.349 . S
C511 H503 0.950 . S
C511 C509 1.327 . S
C512 C500 1.349 . S
C512 H506 0.950 . S
C512 C513 1.327 . S
C513 H507 0.950 . S
C513 C512 1.327 . S
C513 C517 1.429 . S
C514 C497 1.574 . S
C514 H508 0.949 . S
C514 C518 1.368 . S
C515 C496 1.429 . S
C515 C509 1.429 . S
C515 C516 1.523 . S
C516 C497 1.368 . S
C516 C510 1.368 . S
C516 C515 1.523 . S
C517 C501 1.429 . S
C517 C513 1.429 . S
C517 C518 1.523 . S
C518 C502 1.368 . S
C518 C514 1.368 . S
C518 C517 1.523 . S
H519 C494 0.950 . S
H520 C496 0.950 . S
H521 C497 0.949 . S
H522 C499 0.950 . S
H523 C501 0.950 . S
C524 C525 1.349 . S
C524 C526 1.327 . S
C524 H549 0.950 . S
C525 C524 1.349 . S
C525 C541 1.349 . S
C526 C524 1.327 . S
C526 C545 1.429 . S
C526 H550 0.950 . S
C527 C544 1.574 . S
C527 C546 1.368 . S
C527 H551 0.949 . S
H528 C532 0.949 . S
C529 C530 1.349 . S
C529 C531 1.327 . S
C529 H552 0.950 . S
C530 C529 1.349 . S
C530 C542 1.349 . S
C531 C529 1.327 . S
C531 C547 1.429 . S
C531 H553 0.950 . S
C532 H528 0.949 . S
C532 C540 1.574 . S
C532 C548 1.368 . S
H533 C541 0.950 . S
H534 C539 0.950 . S
H535 C540 0.949 . S
H536 C542 0.950 . S
H537 C543 0.950 . S
H538 C544 0.949 . S
C539 H534 0.950 . S
C539 C541 1.327 . S
C539 C545 1.429 . S
C540 C532 1.574 . S
C540 H535 0.949 . S
C540 C546 1.368 . S
C541 C525 1.349 . S
C541 H533 0.950 . S
C541 C539 1.327 . S
C542 C530 1.349 . S
C542 H536 0.950 . S
C542 C543 1.327 . S
C543 H537 0.950 . S
C543 C542 1.327 . S
C543 C547 1.429 . S
C544 C527 1.574 . S
C544 H538 0.949 . S
C544 C548 1.368 . S
C545 C526 1.429 . S
C545 C539 1.429 . S
C545 C546 1.523 . S
C546 C527 1.368 . S
C546 C540 1.368 . S
C546 C545 1.523 . S
C547 C531 1.429 . S
C547 C543 1.429 . S
C547 C548 1.523 . S
C548 C532 1.368 . S
C548 C544 1.368 . S
C548 C547 1.523 . S
H549 C524 0.950 . S
H550 C526 0.950 . S
H551 C527 0.949 . S
H552 C529 0.950 . S
H553 C531 0.950 . S
C554 C555 1.349 . S
C554 C556 1.327 . S
C554 H579 0.950 . S
C555 C554 1.349 . S
C555 C571 1.349 . S
C556 C554 1.327 . S
C556 C575 1.429 . S
C556 H580 0.950 . S
C557 C574 1.574 1_554 S
C557 C576 1.368 . S
C557 H581 0.949 . S
H558 C562 0.949 . S
C559 C560 1.349 . S
C559 C561 1.327 . S
C559 H582 0.950 . S
C560 C559 1.349 . S
C560 C572 1.349 . S
C561 C559 1.327 . S
C561 C577 1.429 . S
C561 H583 0.950 . S
C562 H558 0.949 . S
C562 C570 1.574 1_556 S
C562 C578 1.368 . S
H563 C571 0.950 . S
H564 C569 0.950 . S
H565 C570 0.949 . S
H566 C572 0.950 . S
H567 C573 0.950 . S
H568 C574 0.949 . S
C569 H564 0.950 . S
C569 C571 1.327 . S
C569 C575 1.429 . S
C570 C562 1.574 1_554 S
C570 H565 0.949 . S
C570 C576 1.368 . S
C571 C555 1.349 . S
C571 H563 0.950 . S
C571 C569 1.327 . S
C572 C560 1.349 . S
C572 H566 0.950 . S
C572 C573 1.327 . S
C573 H567 0.950 . S
C573 C572 1.327 . S
C573 C577 1.429 . S
C574 C557 1.574 1_556 S
C574 H568 0.949 . S
C574 C578 1.368 . S
C575 C556 1.429 . S
C575 C569 1.429 . S
C575 C576 1.523 . S
C576 C557 1.368 . S
C576 C570 1.368 . S
C576 C575 1.523 . S
C577 C561 1.429 . S
C577 C573 1.429 . S
C577 C578 1.523 . S
C578 C562 1.368 . S
C578 C574 1.368 . S
C578 C577 1.523 . S
H579 C554 0.950 . S
H580 C556 0.950 . S
H581 C557 0.949 . S
H582 C559 0.950 . S
H583 C561 0.950 . S
C584 C585 1.349 . S
C584 C586 1.327 . S
C584 H609 0.950 . S
C585 C584 1.349 . S
C585 C601 1.349 . S
C586 C584 1.327 . S
C586 C605 1.429 . S
C586 H610 0.950 . S
C587 C604 1.574 1_554 S
C587 C606 1.368 . S
C587 H611 0.949 . S
H588 C592 0.949 . S
C589 C590 1.349 . S
C589 C591 1.327 . S
C589 H612 0.950 . S
C590 C589 1.349 . S
C590 C602 1.349 . S
C591 C589 1.327 . S
C591 C607 1.429 . S
C591 H613 0.950 . S
C592 H588 0.949 . S
C592 C600 1.574 1_556 S
C592 C608 1.368 . S
H593 C601 0.950 . S
H594 C599 0.950 . S
H595 C600 0.949 . S
H596 C602 0.950 . S
H597 C603 0.950 . S
H598 C604 0.949 . S
C599 H594 0.950 . S
C599 C601 1.327 . S
C599 C605 1.429 . S
C600 C592 1.574 1_554 S
C600 H595 0.949 . S
C600 C606 1.368 . S
C601 C585 1.349 . S
C601 H593 0.950 . S
C601 C599 1.327 . S
C602 C590 1.349 . S
C602 H596 0.950 . S
C602 C603 1.327 . S
C603 H597 0.950 . S
C603 C602 1.327 . S
C603 C607 1.429 . S
C604 C587 1.574 1_556 S
C604 H598 0.949 . S
C604 C608 1.368 . S
C605 C586 1.429 . S
C605 C599 1.429 . S
C605 C606 1.523 . S
C606 C587 1.368 . S
C606 C600 1.368 . S
C606 C605 1.523 . S
C607 C591 1.429 . S
C607 C603 1.429 . S
C607 C608 1.523 . S
C608 C592 1.368 . S
C608 C604 1.368 . S
C608 C607 1.523 . S
H609 C584 0.950 . S
H610 C586 0.950 . S
H611 C587 0.949 . S
H612 C589 0.950 . S
H613 C591 0.950 . S
C614 C615 1.349 . S
C614 C616 1.327 . S
C614 H639 0.950 . S
C615 C614 1.349 . S
C615 C631 1.349 . S
C616 C614 1.327 . S
C616 C635 1.429 . S
C616 H640 0.950 . S
C617 C634 1.574 . S
C617 C636 1.368 . S
C617 H641 0.949 . S
H618 C622 0.949 . S
C619 C620 1.349 . S
C619 C621 1.327 . S
C619 H642 0.950 . S
C620 C619 1.349 . S
C620 C632 1.349 . S
C621 C619 1.327 . S
C621 C637 1.429 . S
C621 H643 0.950 . S
C622 H618 0.949 . S
C622 C630 1.574 . S
C622 C638 1.368 . S
H623 C631 0.950 . S
H624 C629 0.950 . S
H625 C630 0.949 . S
H626 C632 0.950 . S
H627 C633 0.950 . S
H628 C634 0.949 . S
C629 H624 0.950 . S
C629 C631 1.327 . S
C629 C635 1.429 . S
C630 C622 1.574 . S
C630 H625 0.949 . S
C630 C636 1.368 . S
C631 C615 1.349 . S
C631 H623 0.950 . S
C631 C629 1.327 . S
C632 C620 1.349 . S
C632 H626 0.950 . S
C632 C633 1.327 . S
C633 H627 0.950 . S
C633 C632 1.327 . S
C633 C637 1.429 . S
C634 C617 1.574 . S
C634 H628 0.949 . S
C634 C638 1.368 . S
C635 C616 1.429 . S
C635 C629 1.429 . S
C635 C636 1.523 . S
C636 C617 1.368 . S
C636 C630 1.368 . S
C636 C635 1.523 . S
C637 C621 1.429 . S
C637 C633 1.429 . S
C637 C638 1.523 . S
C638 C622 1.368 . S
C638 C634 1.368 . S
C638 C637 1.523 . S
H639 C614 0.950 . S
H640 C616 0.950 . S
H641 C617 0.949 . S
H642 C619 0.950 . S
H643 C621 0.950 . S
C644 C645 1.349 . S
C644 C646 1.327 . S
C644 H669 0.950 . S
C645 C644 1.349 . S
C645 C661 1.349 . S
C646 C644 1.327 . S
C646 C665 1.429 . S
C646 H670 0.950 . S
C647 C664 1.574 . S
C647 C666 1.368 . S
C647 H671 0.949 . S
H648 C652 0.949 . S
C649 C650 1.349 . S
C649 C651 1.327 . S
C649 H672 0.950 . S
C650 C649 1.349 . S
C650 C662 1.349 . S
C651 C649 1.327 . S
C651 C667 1.429 . S
C651 H673 0.950 . S
C652 H648 0.949 . S
C652 C660 1.574 . S
C652 C668 1.368 . S
H653 C661 0.950 . S
H654 C659 0.950 . S
H655 C660 0.949 . S
H656 C662 0.950 . S
H657 C663 0.950 . S
H658 C664 0.949 . S
C659 H654 0.950 . S
C659 C661 1.327 . S
C659 C665 1.429 . S
C660 C652 1.574 . S
C660 H655 0.949 . S
C660 C666 1.368 . S
C661 C645 1.349 . S
C661 H653 0.950 . S
C661 C659 1.327 . S
C662 C650 1.349 . S
C662 H656 0.950 . S
C662 C663 1.327 . S
C663 H657 0.950 . S
C663 C662 1.327 . S
C663 C667 1.429 . S
C664 C647 1.574 . S
C664 H658 0.949 . S
C664 C668 1.368 . S
C665 C646 1.429 . S
C665 C659 1.429 . S
C665 C666 1.523 . S
C666 C647 1.368 . S
C666 C660 1.368 . S
C666 C665 1.523 . S
C667 C651 1.429 . S
C667 C663 1.429 . S
C667 C668 1.523 . S
C668 C652 1.368 . S
C668 C664 1.368 . S
C668 C667 1.523 . S
H669 C644 0.950 . S
H670 C646 0.950 . S
H671 C647 0.949 . S
H672 C649 0.950 . S
H673 C651 0.950 . S
C674 C675 1.349 . S
C674 C676 1.327 . S
C674 H699 0.950 . S
C675 C674 1.349 . S
C675 C691 1.349 . S
C676 C674 1.327 . S
C676 C695 1.429 . S
C676 H700 0.950 . S
C677 C694 1.574 . S
C677 C696 1.368 . S
C677 H701 0.949 . S
H678 C682 0.949 . S
C679 C680 1.349 . S
C679 C681 1.327 . S
C679 H702 0.950 . S
C680 C679 1.349 . S
C680 C692 1.349 . S
C681 C679 1.327 . S
C681 C697 1.429 . S
C681 H703 0.950 . S
C682 H678 0.949 . S
C682 C690 1.574 . S
C682 C698 1.368 . S
H683 C691 0.950 . S
H684 C689 0.950 . S
H685 C690 0.949 . S
H686 C692 0.950 . S
H687 C693 0.950 . S
H688 C694 0.949 . S
C689 H684 0.950 . S
C689 C691 1.327 . S
C689 C695 1.429 . S
C690 C682 1.574 . S
C690 H685 0.949 . S
C690 C696 1.368 . S
C691 C675 1.349 . S
C691 H683 0.950 . S
C691 C689 1.327 . S
C692 C680 1.349 . S
C692 H686 0.950 . S
C692 C693 1.327 . S
C693 H687 0.950 . S
C693 C692 1.327 . S
C693 C697 1.429 . S
C694 C677 1.574 . S
C694 H688 0.949 . S
C694 C698 1.368 . S
C695 C676 1.429 . S
C695 C689 1.429 . S
C695 C696 1.523 . S
C696 C677 1.368 . S
C696 C690 1.368 . S
C696 C695 1.523 . S
C697 C681 1.429 . S
C697 C693 1.429 . S
C697 C698 1.523 . S
C698 C682 1.368 . S
C698 C694 1.368 . S
C698 C697 1.523 . S
H699 C674 0.950 . S
H700 C676 0.950 . S
H701 C677 0.949 . S
H702 C679 0.950 . S
H703 C681 0.950 . S
C704 C705 1.349 . S
C704 C706 1.327 . S
C704 H729 0.950 . S
C705 C704 1.349 . S
C705 C721 1.349 . S
C706 C704 1.327 . S
C706 C725 1.429 . S
C706 H730 0.950 . S
C707 C724 1.574 1_455 S
C707 C726 1.368 . S
C707 H731 0.949 . S
H708 C712 0.949 . S
C709 C710 1.349 . S
C709 C711 1.327 . S
C709 H732 0.950 . S
C710 C709 1.349 . S
C710 C722 1.349 . S
C711 C709 1.327 . S
C711 C727 1.429 . S
C711 H733 0.950 . S
C712 H708 0.949 . S
C712 C720 1.574 1_655 S
C712 C728 1.368 . S
H713 C721 0.950 . S
H714 C719 0.950 . S
H715 C720 0.949 . S
H716 C722 0.950 . S
H717 C723 0.950 . S
H718 C724 0.949 . S
C719 H714 0.950 . S
C719 C721 1.327 . S
C719 C725 1.429 . S
C720 C712 1.574 1_455 S
C720 H715 0.949 . S
C720 C726 1.368 1_565 S
C721 C705 1.349 . S
C721 H713 0.950 . S
C721 C719 1.327 . S
C722 C710 1.349 . S
C722 H716 0.950 . S
C722 C723 1.327 . S
C723 H717 0.950 . S
C723 C722 1.327 . S
C723 C727 1.429 . S
C724 C707 1.574 1_655 S
C724 H718 0.949 . S
C724 C728 1.368 1_545 S
C725 C706 1.429 . S
C725 C719 1.429 . S
C725 C726 1.523 . S
C726 C707 1.368 . S
C726 C720 1.368 1_545 S
C726 C725 1.523 . S
C727 C711 1.429 . S
C727 C723 1.429 . S
C727 C728 1.523 . S
C728 C712 1.368 . S
C728 C724 1.368 1_565 S
C728 C727 1.523 . S
H729 C704 0.950 . S
H730 C706 0.950 . S
H731 C707 0.949 . S
H732 C709 0.950 . S
H733 C711 0.950 . S
C734 C735 1.349 . S
C734 C736 1.327 . S
C734 H759 0.950 . S
C735 C734 1.349 . S
C735 C751 1.349 . S
C736 C734 1.327 . S
C736 C755 1.429 . S
C736 H760 0.950 . S
C737 C754 1.574 . S
C737 C756 1.368 . S
C737 H761 0.949 . S
H738 C742 0.949 . S
C739 C740 1.349 . S
C739 C741 1.327 . S
C739 H762 0.950 . S
C740 C739 1.349 . S
C740 C752 1.349 . S
C741 C739 1.327 . S
C741 C757 1.429 . S
C741 H763 0.950 . S
C742 H738 0.949 . S
C742 C750 1.574 . S
C742 C758 1.368 . S
H743 C751 0.950 . S
H744 C749 0.950 . S
H745 C750 0.949 . S
H746 C752 0.950 . S
H747 C753 0.950 . S
H748 C754 0.949 . S
C749 H744 0.950 . S
C749 C751 1.327 . S
C749 C755 1.429 . S
C750 C742 1.574 . S
C750 H745 0.949 . S
C750 C756 1.368 1_655 S
C751 C735 1.349 . S
C751 H743 0.950 . S
C751 C749 1.327 . S
C752 C740 1.349 . S
C752 H746 0.950 . S
C752 C753 1.327 . S
C753 H747 0.950 . S
C753 C752 1.327 . S
C753 C757 1.429 . S
C754 C737 1.574 . S
C754 H748 0.949 . S
C754 C758 1.368 1_455 S
C755 C736 1.429 . S
C755 C749 1.429 . S
C755 C756 1.523 . S
C756 C737 1.368 . S
C756 C750 1.368 1_455 S
C756 C755 1.523 . S
C757 C741 1.429 . S
C757 C753 1.429 . S
C757 C758 1.523 . S
C758 C742 1.368 . S
C758 C754 1.368 1_655 S
C758 C757 1.523 . S
H759 C734 0.950 . S
H760 C736 0.950 . S
H761 C737 0.949 . S
H762 C739 0.950 . S
H763 C741 0.950 . S
C764 C765 1.349 . S
C764 C766 1.327 . S
C764 H789 0.950 . S
C765 C764 1.349 . S
C765 C781 1.349 . S
C766 C764 1.327 . S
C766 C785 1.429 . S
C766 H790 0.950 . S
C767 C784 1.574 . S
C767 C786 1.368 . S
C767 H791 0.949 . S
H768 C772 0.949 . S
C769 C770 1.349 . S
C769 C771 1.327 . S
C769 H792 0.950 . S
C770 C769 1.349 . S
C770 C782 1.349 . S
C771 C769 1.327 . S
C771 C787 1.429 . S
C771 H793 0.950 . S
C772 H768 0.949 . S
C772 C780 1.574 . S
C772 C788 1.368 . S
H773 C781 0.950 . S
H774 C779 0.950 . S
H775 C780 0.949 . S
H776 C782 0.950 . S
H777 C783 0.950 . S
H778 C784 0.949 . S
C779 H774 0.950 . S
C779 C781 1.327 . S
C779 C785 1.429 . S
C780 C772 1.574 . S
C780 H775 0.949 . S
C780 C786 1.368 . S
C781 C765 1.349 . S
C781 H773 0.950 . S
C781 C779 1.327 . S
C782 C770 1.349 . S
C782 H776 0.950 . S
C782 C783 1.327 . S
C783 H777 0.950 . S
C783 C782 1.327 . S
C783 C787 1.429 . S
C784 C767 1.574 . S
C784 H778 0.949 . S
C784 C788 1.368 . S
C785 C766 1.429 . S
C785 C779 1.429 . S
C785 C786 1.523 . S
C786 C767 1.368 . S
C786 C780 1.368 . S
C786 C785 1.523 . S
C787 C771 1.429 . S
C787 C783 1.429 . S
C787 C788 1.523 . S
C788 C772 1.368 . S
C788 C784 1.368 . S
C788 C787 1.523 . S
H789 C764 0.950 . S
H790 C766 0.950 . S
H791 C767 0.949 . S
H792 C769 0.950 . S
H793 C771 0.950 . S
C794 C795 1.349 . S
C794 C796 1.327 . S
C794 H819 0.950 . S
C795 C794 1.349 . S
C795 C811 1.349 . S
C796 C794 1.327 . S
C796 C815 1.429 . S
C796 H820 0.950 . S
C797 C814 1.574 1_545 S
C797 C816 1.368 . S
C797 H821 0.949 . S
H798 C802 0.949 . S
C799 C800 1.349 . S
C799 C801 1.327 . S
C799 H822 0.950 . S
C800 C799 1.349 . S
C800 C812 1.349 . S
C801 C799 1.327 . S
C801 C817 1.429 . S
C801 H823 0.950 . S
C802 H798 0.949 . S
C802 C810 1.574 1_565 S
C802 C818 1.368 . S
H803 C811 0.950 . S
H804 C809 0.950 . S
H805 C810 0.949 . S
H806 C812 0.950 . S
H807 C813 0.950 . S
H808 C814 0.949 . S
C809 H804 0.950 . S
C809 C811 1.327 . S
C809 C815 1.429 . S
C810 C802 1.574 1_545 S
C810 H805 0.949 . S
C810 C816 1.368 . S
C811 C795 1.349 . S
C811 H803 0.950 . S
C811 C809 1.327 . S
C812 C800 1.349 . S
C812 H806 0.950 . S
C812 C813 1.327 . S
C813 H807 0.950 . S
C813 C812 1.327 . S
C813 C817 1.429 . S
C814 C797 1.574 1_565 S
C814 H808 0.949 . S
C814 C818 1.368 . S
C815 C796 1.429 . S
C815 C809 1.429 . S
C815 C816 1.523 . S
C816 C797 1.368 . S
C816 C810 1.368 . S
C816 C815 1.523 . S
C817 C801 1.429 . S
C817 C813 1.429 . S
C817 C818 1.523 . S
C818 C802 1.368 . S
C818 C814 1.368 . S
C818 C817 1.523 . S
H819 C794 0.950 . S
H820 C796 0.950 . S
H821 C797 0.949 . S
H822 C799 0.950 . S
H823 C801 0.950 . S
C824 C825 1.349 . S
C824 C826 1.327 . S
C824 H849 0.950 . S
C825 C824 1.349 . S
C825 C841 1.349 . S
C826 C824 1.327 . S
C826 C845 1.429 . S
C826 H850 0.950 . S
C827 C844 1.574 1_455 S
C827 C846 1.368 . S
C827 H851 0.949 . S
H828 C832 0.949 . S
C829 C830 1.349 . S
C829 C831 1.327 . S
C829 H852 0.950 . S
C830 C829 1.349 . S
C830 C842 1.349 . S
C831 C829 1.327 . S
C831 C847 1.429 . S
C831 H853 0.950 . S
C832 H828 0.949 . S
C832 C840 1.574 1_655 S
C832 C848 1.368 . S
H833 C841 0.950 . S
H834 C839 0.950 . S
H835 C840 0.949 . S
H836 C842 0.950 . S
H837 C843 0.950 . S
H838 C844 0.949 . S
C839 H834 0.950 . S
C839 C841 1.327 . S
C839 C845 1.429 . S
C840 C832 1.574 1_455 S
C840 H835 0.949 . S
C840 C846 1.368 . S
C841 C825 1.349 . S
C841 H833 0.950 . S
C841 C839 1.327 . S
C842 C830 1.349 . S
C842 H836 0.950 . S
C842 C843 1.327 . S
C843 H837 0.950 . S
C843 C842 1.327 . S
C843 C847 1.429 . S
C844 C827 1.574 1_655 S
C844 H838 0.949 . S
C844 C848 1.368 . S
C845 C826 1.429 . S
C845 C839 1.429 . S
C845 C846 1.523 . S
C846 C827 1.368 . S
C846 C840 1.368 . S
C846 C845 1.523 . S
C847 C831 1.429 . S
C847 C843 1.429 . S
C847 C848 1.523 . S
C848 C832 1.368 . S
C848 C844 1.368 . S
C848 C847 1.523 . S
H849 C824 0.950 . S
H850 C826 0.950 . S
H851 C827 0.949 . S
H852 C829 0.950 . S
H853 C831 0.950 . S
C854 C855 1.349 . S
C854 C856 1.327 . S
C854 H879 0.950 . S
C855 C854 1.349 . S
C855 C871 1.349 . S
C856 C854 1.327 . S
C856 C875 1.429 . S
C856 H880 0.950 . S
C857 C874 1.574 . S
C857 C876 1.368 . S
C857 H881 0.949 . S
H858 C862 0.949 . S
C859 C860 1.349 . S
C859 C861 1.327 . S
C859 H882 0.950 . S
C860 C859 1.349 . S
C860 C872 1.349 . S
C861 C859 1.327 . S
C861 C877 1.429 . S
C861 H883 0.950 . S
C862 H858 0.949 . S
C862 C870 1.574 . S
C862 C878 1.368 . S
H863 C871 0.950 . S
H864 C869 0.950 . S
H865 C870 0.949 . S
H866 C872 0.950 . S
H867 C873 0.950 . S
H868 C874 0.949 . S
C869 H864 0.950 . S
C869 C871 1.327 . S
C869 C875 1.429 . S
C870 C862 1.574 . S
C870 H865 0.949 . S
C870 C876 1.368 . S
C871 C855 1.349 . S
C871 H863 0.950 . S
C871 C869 1.327 . S
C872 C860 1.349 . S
C872 H866 0.950 . S
C872 C873 1.327 . S
C873 H867 0.950 . S
C873 C872 1.327 . S
C873 C877 1.429 . S
C874 C857 1.574 . S
C874 H868 0.949 . S
C874 C878 1.368 . S
C875 C856 1.429 . S
C875 C869 1.429 . S
C875 C876 1.523 . S
C876 C857 1.368 . S
C876 C870 1.368 . S
C876 C875 1.523 . S
C877 C861 1.429 . S
C877 C873 1.429 . S
C877 C878 1.523 . S
C878 C862 1.368 . S
C878 C874 1.368 . S
C878 C877 1.523 . S
H879 C854 0.950 . S
H880 C856 0.950 . S
H881 C857 0.949 . S
H882 C859 0.950 . S
H883 C861 0.950 . S
C884 C885 1.349 . S
C884 C886 1.327 . S
C884 H909 0.950 . S
C885 C884 1.349 . S
C885 C901 1.349 . S
C886 C884 1.327 . S
C886 C905 1.429 . S
C886 H910 0.950 . S
C887 C904 1.574 . S
C887 C906 1.368 1_545 S
C887 H911 0.949 . S
H888 C892 0.949 . S
C889 C890 1.349 . S
C889 C891 1.327 . S
C889 H912 0.950 . S
C890 C889 1.349 . S
C890 C902 1.349 . S
C891 C889 1.327 . S
C891 C907 1.429 . S
C891 H913 0.950 . S
C892 H888 0.949 . S
C892 C900 1.574 . S
C892 C908 1.368 1_565 S
H893 C901 0.950 . S
H894 C899 0.950 . S
H895 C900 0.949 . S
H896 C902 0.950 . S
H897 C903 0.950 . S
H898 C904 0.949 . S
C899 H894 0.950 . S
C899 C901 1.327 . S
C899 C905 1.429 . S
C900 C892 1.574 . S
C900 H895 0.949 . S
C900 C906 1.368 . S
C901 C885 1.349 . S
C901 H893 0.950 . S
C901 C899 1.327 . S
C902 C890 1.349 . S
C902 H896 0.950 . S
C902 C903 1.327 . S
C903 H897 0.950 . S
C903 C902 1.327 . S
C903 C907 1.429 . S
C904 C887 1.574 . S
C904 H898 0.949 . S
C904 C908 1.368 . S
C905 C886 1.429 . S
C905 C899 1.429 . S
C905 C906 1.523 . S
C906 C887 1.368 1_565 S
C906 C900 1.368 . S
C906 C905 1.523 . S
C907 C891 1.429 . S
C907 C903 1.429 . S
C907 C908 1.523 . S
C908 C892 1.368 1_545 S
C908 C904 1.368 . S
C908 C907 1.523 . S
H909 C884 0.950 . S
H910 C886 0.950 . S
H911 C887 0.949 . S
H912 C889 0.950 . S
H913 C891 0.950 . S
C914 C915 1.349 . S
C914 C916 1.327 . S
C914 H939 0.950 . S
C915 C914 1.349 . S
C915 C931 1.349 . S
C916 C914 1.327 . S
C916 C935 1.429 . S
C916 H940 0.950 . S
C917 C934 1.574 1_545 S
C917 C936 1.368 1_655 S
C917 H941 0.949 . S
H918 C922 0.949 . S
C919 C920 1.349 . S
C919 C921 1.327 . S
C919 H942 0.950 . S
C920 C919 1.349 . S
C920 C932 1.349 . S
C921 C919 1.327 . S
C921 C937 1.429 . S
C921 H943 0.950 . S
C922 H918 0.949 . S
C922 C930 1.574 1_565 S
C922 C938 1.368 1_455 S
H923 C931 0.950 . S
H924 C929 0.950 . S
H925 C930 0.949 . S
H926 C932 0.950 . S
H927 C933 0.950 . S
H928 C934 0.949 . S
C929 H924 0.950 . S
C929 C931 1.327 . S
C929 C935 1.429 . S
C930 C922 1.574 1_545 S
C930 H925 0.949 . S
C930 C936 1.368 . S
C931 C915 1.349 . S
C931 H923 0.950 . S
C931 C929 1.327 . S
C932 C920 1.349 . S
C932 H926 0.950 . S
C932 C933 1.327 . S
C933 H927 0.950 . S
C933 C932 1.327 . S
C933 C937 1.429 . S
C934 C917 1.574 1_565 S
C934 H928 0.949 . S
C934 C938 1.368 . S
C935 C916 1.429 . S
C935 C929 1.429 . S
C935 C936 1.523 . S
C936 C917 1.368 1_455 S
C936 C930 1.368 . S
C936 C935 1.523 . S
C937 C921 1.429 . S
C937 C933 1.429 . S
C937 C938 1.523 . S
C938 C922 1.368 1_655 S
C938 C934 1.368 . S
C938 C937 1.523 . S
H939 C914 0.950 . S
H940 C916 0.950 . S
H941 C917 0.949 . S
H942 C919 0.950 . S
H943 C921 0.950 . S
C944 C945 1.349 . S
C944 C946 1.327 . S
C944 H969 0.950 . S
C945 C944 1.349 . S
C945 C961 1.349 . S
C946 C944 1.327 . S
C946 C965 1.429 . S
C946 H970 0.950 . S
C947 C964 1.574 . S
C947 C966 1.368 1_545 S
C947 H971 0.949 . S
H948 C952 0.949 . S
C949 C950 1.349 . S
C949 C951 1.327 . S
C949 H972 0.950 . S
C950 C949 1.349 . S
C950 C962 1.349 . S
C951 C949 1.327 . S
C951 C967 1.429 . S
C951 H973 0.950 . S
C952 H948 0.949 . S
C952 C960 1.574 . S
C952 C968 1.368 1_565 S
H953 C961 0.950 . S
H954 C959 0.950 . S
H955 C960 0.949 . S
H956 C962 0.950 . S
H957 C963 0.950 . S
H958 C964 0.949 . S
C959 H954 0.950 . S
C959 C961 1.327 . S
C959 C965 1.429 . S
C960 C952 1.574 . S
C960 H955 0.949 . S
C960 C966 1.368 . S
C961 C945 1.349 . S
C961 H953 0.950 . S
C961 C959 1.327 . S
C962 C950 1.349 . S
C962 H956 0.950 . S
C962 C963 1.327 . S
C963 H957 0.950 . S
C963 C962 1.327 . S
C963 C967 1.429 . S
C964 C947 1.574 . S
C964 H958 0.949 . S
C964 C968 1.368 . S
C965 C946 1.429 . S
C965 C959 1.429 . S
C965 C966 1.523 . S
C966 C947 1.368 1_565 S
C966 C960 1.368 . S
C966 C965 1.523 . S
C967 C951 1.429 . S
C967 C963 1.429 . S
C967 C968 1.523 . S
C968 C952 1.368 1_545 S
C968 C964 1.368 . S
C968 C967 1.523 . S
H969 C944 0.950 . S
H970 C946 0.950 . S
H971 C947 0.949 . S
H972 C949 0.950 . S
H973 C951 0.950 . S
C974 C975 1.349 . S
C974 C976 1.327 . S
C974 H999 0.950 . S
C975 C974 1.349 . S
C975 C991 1.349 . S
C976 C974 1.327 . S
C976 C995 1.429 . S
C976 H1000 0.950 . S
C977 C994 1.574 1_565 S
C977 C996 1.368 . S
C977 H1001 0.949 . S
H978 C982 0.949 . S
C979 C980 1.349 . S
C979 C981 1.327 . S
C979 H1002 0.950 . S
C980 C979 1.349 . S
C980 C992 1.349 . S
C981 C979 1.327 . S
C981 C997 1.429 . S
C981 H1003 0.950 . S
C982 H978 0.949 . S
C982 C990 1.574 1_545 S
C982 C998 1.368 . S
H983 C991 0.950 . S
H984 C989 0.950 . S
H985 C990 0.949 . S
H986 C992 0.950 . S
H987 C993 0.950 . S
H988 C994 0.949 . S
C989 H984 0.950 . S
C989 C991 1.327 . S
C989 C995 1.429 . S
C990 C982 1.574 1_565 S
C990 H985 0.949 . S
C990 C996 1.368 1_455 S
C991 C975 1.349 . S
C991 H983 0.950 . S
C991 C989 1.327 . S
C992 C980 1.349 . S
C992 H986 0.950 . S
C992 C993 1.327 . S
C993 H987 0.950 . S
C993 C992 1.327 . S
C993 C997 1.429 . S
C994 C977 1.574 1_545 S
C994 H988 0.949 . S
C994 C998 1.368 1_655 S
C995 C976 1.429 . S
C995 C989 1.429 . S
C995 C996 1.523 . S
C996 C977 1.368 . S
C996 C990 1.368 1_655 S
C996 C995 1.523 . S
C997 C981 1.429 . S
C997 C993 1.429 . S
C997 C998 1.523 . S
C998 C982 1.368 . S
C998 C994 1.368 1_455 S
C998 C997 1.523 . S
H999 C974 0.950 . S
H1000 C976 0.950 . S
H1001 C977 0.949 . S
H1002 C979 0.950 . S
H1003 C981 0.950 . S
C1004 C1005 1.349 . S
C1004 C1006 1.327 . S
C1004 H1029 0.950 . S
C1005 C1004 1.349 . S
C1005 C1021 1.349 . S
C1006 C1004 1.327 . S
C1006 C1025 1.429 . S
C1006 H1030 0.950 . S
C1007 C1024 1.574 1_455 S
C1007 C1026 1.368 . S
C1007 H1031 0.949 . S
H1008 C1012 0.949 . S
C1009 C1010 1.349 . S
C1009 C1011 1.327 . S
C1009 H1032 0.950 . S
C1010 C1009 1.349 . S
C1010 C1022 1.349 . S
C1011 C1009 1.327 . S
C1011 C1027 1.429 . S
C1011 H1033 0.950 . S
C1012 H1008 0.949 . S
C1012 C1020 1.574 1_655 S
C1012 C1028 1.368 . S
H1013 C1021 0.950 . S
H1014 C1019 0.950 . S
H1015 C1020 0.949 . S
H1016 C1022 0.950 . S
H1017 C1023 0.950 . S
H1018 C1024 0.949 . S
C1019 H1014 0.950 . S
C1019 C1021 1.327 . S
C1019 C1025 1.429 . S
C1020 C1012 1.574 1_455 S
C1020 H1015 0.949 . S
C1020 C1026 1.368 . S
C1021 C1005 1.349 . S
C1021 H1013 0.950 . S
C1021 C1019 1.327 . S
C1022 C1010 1.349 . S
C1022 H1016 0.950 . S
C1022 C1023 1.327 . S
C1023 H1017 0.950 . S
C1023 C1022 1.327 . S
C1023 C1027 1.429 . S
C1024 C1007 1.574 1_655 S
C1024 H1018 0.949 . S
C1024 C1028 1.368 . S
C1025 C1006 1.429 . S
C1025 C1019 1.429 . S
C1025 C1026 1.523 . S
C1026 C1007 1.368 . S
C1026 C1020 1.368 . S
C1026 C1025 1.523 . S
C1027 C1011 1.429 . S
C1027 C1023 1.429 . S
C1027 C1028 1.523 . S
C1028 C1012 1.368 . S
C1028 C1024 1.368 . S
C1028 C1027 1.523 . S
H1029 C1004 0.950 . S
H1030 C1006 0.950 . S
H1031 C1007 0.949 . S
H1032 C1009 0.950 . S
H1033 C1011 0.950 . S
C1034 C1035 1.349 . S
C1034 C1036 1.327 . S
C1034 H1059 0.950 . S
C1035 C1034 1.349 . S
C1035 C1051 1.349 . S
C1036 C1034 1.327 . S
C1036 C1055 1.429 . S
C1036 H1060 0.950 . S
C1037 C1054 1.574 . S
C1037 C1056 1.368 . S
C1037 H1061 0.949 . S
H1038 C1042 0.949 . S
C1039 C1040 1.349 . S
C1039 C1041 1.327 . S
C1039 H1062 0.950 . S
C1040 C1039 1.349 . S
C1040 C1052 1.349 . S
C1041 C1039 1.327 . S
C1041 C1057 1.429 . S
C1041 H1063 0.950 . S
C1042 H1038 0.949 . S
C1042 C1050 1.574 . S
C1042 C1058 1.368 . S
H1043 C1051 0.950 . S
H1044 C1049 0.950 . S
H1045 C1050 0.949 . S
H1046 C1052 0.950 . S
H1047 C1053 0.950 . S
H1048 C1054 0.949 . S
C1049 H1044 0.950 . S
C1049 C1051 1.327 . S
C1049 C1055 1.429 . S
C1050 C1042 1.574 . S
C1050 H1045 0.949 . S
C1050 C1056 1.368 . S
C1051 C1035 1.349 . S
C1051 H1043 0.950 . S
C1051 C1049 1.327 . S
C1052 C1040 1.349 . S
C1052 H1046 0.950 . S
C1052 C1053 1.327 . S
C1053 H1047 0.950 . S
C1053 C1052 1.327 . S
C1053 C1057 1.429 . S
C1054 C1037 1.574 . S
C1054 H1048 0.949 . S
C1054 C1058 1.368 . S
C1055 C1036 1.429 . S
C1055 C1049 1.429 . S
C1055 C1056 1.523 . S
C1056 C1037 1.368 . S
C1056 C1050 1.368 . S
C1056 C1055 1.523 . S
C1057 C1041 1.429 . S
C1057 C1053 1.429 . S
C1057 C1058 1.523 . S
C1058 C1042 1.368 . S
C1058 C1054 1.368 . S
C1058 C1057 1.523 . S
H1059 C1034 0.950 . S
H1060 C1036 0.950 . S
H1061 C1037 0.949 . S
H1062 C1039 0.950 . S
H1063 C1041 0.950 . S
C1064 C1065 1.349 . S
C1064 C1066 1.327 . S
C1064 H1089 0.950 . S
C1065 C1064 1.349 . S
C1065 C1081 1.349 . S
C1066 C1064 1.327 . S
C1066 C1085 1.429 . S
C1066 H1090 0.950 . S
C1067 C1084 1.574 . S
C1067 C1086 1.368 . S
C1067 H1091 0.949 . S
H1068 C1072 0.949 . S
C1069 C1070 1.349 . S
C1069 C1071 1.327 . S
C1069 H1092 0.950 . S
C1070 C1069 1.349 . S
C1070 C1082 1.349 . S
C1071 C1069 1.327 . S
C1071 C1087 1.429 . S
C1071 H1093 0.950 . S
C1072 H1068 0.949 . S
C1072 C1080 1.574 . S
C1072 C1088 1.368 . S
H1073 C1081 0.950 . S
H1074 C1079 0.950 . S
H1075 C1080 0.949 . S
H1076 C1082 0.950 . S
H1077 C1083 0.950 . S
H1078 C1084 0.949 . S
C1079 H1074 0.950 . S
C1079 C1081 1.327 . S
C1079 C1085 1.429 . S
C1080 C1072 1.574 . S
C1080 H1075 0.949 . S
C1080 C1086 1.368 . S
C1081 C1065 1.349 . S
C1081 H1073 0.950 . S
C1081 C1079 1.327 . S
C1082 C1070 1.349 . S
C1082 H1076 0.950 . S
C1082 C1083 1.327 . S
C1083 H1077 0.950 . S
C1083 C1082 1.327 . S
C1083 C1087 1.429 . S
C1084 C1067 1.574 . S
C1084 H1078 0.949 . S
C1084 C1088 1.368 . S
C1085 C1066 1.429 . S
C1085 C1079 1.429 . S
C1085 C1086 1.523 . S
C1086 C1067 1.368 . S
C1086 C1080 1.368 . S
C1086 C1085 1.523 . S
C1087 C1071 1.429 . S
C1087 C1083 1.429 . S
C1087 C1088 1.523 . S
C1088 C1072 1.368 . S
C1088 C1084 1.368 . S
C1088 C1087 1.523 . S
H1089 C1064 0.950 . S
H1090 C1066 0.950 . S
H1091 C1067 0.949 . S
H1092 C1069 0.950 . S
H1093 C1071 0.950 . S
C1094 C1095 1.349 . S
C1094 C1096 1.327 . S
C1094 H1119 0.950 . S
C1095 C1094 1.349 . S
C1095 C1111 1.349 . S
C1096 C1094 1.327 . S
C1096 C1115 1.429 . S
C1096 H1120 0.950 . S
C1097 C1114 1.574 1_545 S
C1097 C1116 1.368 . S
C1097 H1121 0.949 . S
H1098 C1102 0.949 . S
C1099 C1100 1.349 . S
C1099 C1101 1.327 . S
C1099 H1122 0.950 . S
C1100 C1099 1.349 . S
C1100 C1112 1.349 . S
C1101 C1099 1.327 . S
C1101 C1117 1.429 . S
C1101 H1123 0.950 . S
C1102 H1098 0.949 . S
C1102 C1110 1.574 1_565 S
C1102 C1118 1.368 . S
H1103 C1111 0.950 . S
H1104 C1109 0.950 . S
H1105 C1110 0.949 . S
H1106 C1112 0.950 . S
H1107 C1113 0.950 . S
H1108 C1114 0.949 . S
C1109 H1104 0.950 . S
C1109 C1111 1.327 . S
C1109 C1115 1.429 . S
C1110 C1102 1.574 1_545 S
C1110 H1105 0.949 . S
C1110 C1116 1.368 . S
C1111 C1095 1.349 . S
C1111 H1103 0.950 . S
C1111 C1109 1.327 . S
C1112 C1100 1.349 . S
C1112 H1106 0.950 . S
C1112 C1113 1.327 . S
C1113 H1107 0.950 . S
C1113 C1112 1.327 . S
C1113 C1117 1.429 . S
C1114 C1097 1.574 1_565 S
C1114 H1108 0.949 . S
C1114 C1118 1.368 . S
C1115 C1096 1.429 . S
C1115 C1109 1.429 . S
C1115 C1116 1.523 . S
C1116 C1097 1.368 . S
C1116 C1110 1.368 . S
C1116 C1115 1.523 . S
C1117 C1101 1.429 . S
C1117 C1113 1.429 . S
C1117 C1118 1.523 . S
C1118 C1102 1.368 . S
C1118 C1114 1.368 . S
C1118 C1117 1.523 . S
H1119 C1094 0.950 . S
H1120 C1096 0.950 . S
H1121 C1097 0.949 . S
H1122 C1099 0.950 . S
H1123 C1101 0.950 . S
C1124 C1125 1.349 . S
C1124 C1126 1.327 . S
C1124 H1149 0.950 . S
C1125 C1124 1.349 . S
C1125 C1141 1.349 . S
C1126 C1124 1.327 . S
C1126 C1145 1.429 . S
C1126 H1150 0.950 . S
C1127 C1144 1.574 1_655 S
C1127 C1146 1.368 . S
C1127 H1151 0.949 . S
H1128 C1132 0.949 . S
C1129 C1130 1.349 . S
C1129 C1131 1.327 . S
C1129 H1152 0.950 . S
C1130 C1129 1.349 . S
C1130 C1142 1.349 . S
C1131 C1129 1.327 . S
C1131 C1147 1.429 . S
C1131 H1153 0.950 . S
C1132 H1128 0.949 . S
C1132 C1140 1.574 1_455 S
C1132 C1148 1.368 . S
H1133 C1141 0.950 . S
H1134 C1139 0.950 . S
H1135 C1140 0.949 . S
H1136 C1142 0.950 . S
H1137 C1143 0.950 . S
H1138 C1144 0.949 . S
C1139 H1134 0.950 . S
C1139 C1141 1.327 . S
C1139 C1145 1.429 . S
C1140 C1132 1.574 1_655 S
C1140 H1135 0.949 . S
C1140 C1146 1.368 1_545 S
C1141 C1125 1.349 . S
C1141 H1133 0.950 . S
C1141 C1139 1.327 . S
C1142 C1130 1.349 . S
C1142 H1136 0.950 . S
C1142 C1143 1.327 . S
C1143 H1137 0.950 . S
C1143 C1142 1.327 . S
C1143 C1147 1.429 . S
C1144 C1127 1.574 1_455 S
C1144 H1138 0.949 . S
C1144 C1148 1.368 1_565 S
C1145 C1126 1.429 . S
C1145 C1139 1.429 . S
C1145 C1146 1.523 . S
C1146 C1127 1.368 . S
C1146 C1140 1.368 1_565 S
C1146 C1145 1.523 . S
C1147 C1131 1.429 . S
C1147 C1143 1.429 . S
C1147 C1148 1.523 . S
C1148 C1132 1.368 . S
C1148 C1144 1.368 1_545 S
C1148 C1147 1.523 . S
H1149 C1124 0.950 . S
H1150 C1126 0.950 . S
H1151 C1127 0.949 . S
H1152 C1129 0.950 . S
H1153 C1131 0.950 . S
C1154 C1155 1.349 . S
C1154 C1156 1.327 . S
C1154 H1179 0.950 . S
C1155 C1154 1.349 . S
C1155 C1171 1.349 . S
C1156 C1154 1.327 . S
C1156 C1175 1.429 . S
C1156 H1180 0.950 . S
C1157 C1174 1.574 . S
C1157 C1176 1.368 . S
C1157 H1181 0.949 . S
H1158 C1162 0.949 . S
C1159 C1160 1.349 . S
C1159 C1161 1.327 . S
C1159 H1182 0.950 . S
C1160 C1159 1.349 . S
C1160 C1172 1.349 . S
C1161 C1159 1.327 . S
C1161 C1177 1.429 . S
C1161 H1183 0.950 . S
C1162 H1158 0.949 . S
C1162 C1170 1.574 . S
C1162 C1178 1.368 . S
H1163 C1171 0.950 . S
H1164 C1169 0.950 . S
H1165 C1170 0.949 . S
H1166 C1172 0.950 . S
H1167 C1173 0.950 . S
H1168 C1174 0.949 . S
C1169 H1164 0.950 . S
C1169 C1171 1.327 . S
C1169 C1175 1.429 . S
C1170 C1162 1.574 . S
C1170 H1165 0.949 . S
C1170 C1176 1.368 1_455 S
C1171 C1155 1.349 . S
C1171 H1163 0.950 . S
C1171 C1169 1.327 . S
C1172 C1160 1.349 . S
C1172 H1166 0.950 . S
C1172 C1173 1.327 . S
C1173 H1167 0.950 . S
C1173 C1172 1.327 . S
C1173 C1177 1.429 . S
C1174 C1157 1.574 . S
C1174 H1168 0.949 . S
C1174 C1178 1.368 1_655 S
C1175 C1156 1.429 . S
C1175 C1169 1.429 . S
C1175 C1176 1.523 . S
C1176 C1157 1.368 . S
C1176 C1170 1.368 1_655 S
C1176 C1175 1.523 . S
C1177 C1161 1.429 . S
C1177 C1173 1.429 . S
C1177 C1178 1.523 . S
C1178 C1162 1.368 . S
C1178 C1174 1.368 1_455 S
C1178 C1177 1.523 . S
H1179 C1154 0.950 . S
H1180 C1156 0.950 . S
H1181 C1157 0.949 . S
H1182 C1159 0.950 . S
H1183 C1161 0.950 . S
C225 C63 1.471 . S
C230 C7 1.471 . S
C255 C21 1.471 . S
C260 C77 1.471 . S
C285 C91 1.471 . S
C290 C35 1.471 . S
C315 C105 1.471 . S
C320 C49 1.471 . S
C345 C175 1.471 . S
C350 C119 1.471 . S
C375 C133 1.471 . S
C380 C189 1.471 . S
C405 C203 1.471 . S
C410 C147 1.471 . S
C435 C161 1.471 . S
C440 C217 1.471 . S
C465 C8 1.448 . S
C470 C218 1.448 . S
C495 C22 1.448 . S
C500 C176 1.448 . S
C525 C36 1.448 . S
C530 C190 1.448 . S
C555 C204 1.448 . S
C560 C50 1.448 . S
C585 C64 1.448 . S
C590 C134 1.448 . S
C615 C78 1.448 . S
C620 C148 1.448 . S
C645 C162 1.448 . S
C650 C92 1.448 . S
C675 C120 1.448 . S
C680 C106 1.448 . S
C705 C6 1.674 . S
C710 C146 1.674 . S
C735 C160 1.674 . S
C740 C20 1.674 . S
C765 C34 1.674 . S
C770 C118 1.674 . S
C795 C132 1.674 . S
C800 C48 1.674 . S
C825 C62 1.674 . S
C830 C202 1.674 . S
C855 C76 1.674 . S
C860 C216 1.674 . S
C885 C174 1.674 . S
C890 C90 1.674 . S
C915 C188 1.674 . S
C920 C104 1.674 . S
C945 C149 1.426 . S
C950 C9 1.426 . S
C975 C23 1.427 . S
C980 C163 1.427 . S
C1005 C37 1.427 . S
C1010 C121 1.427 . S
C1035 C135 1.427 . S
C1040 C51 1.427 . S
C1065 C205 1.427 . S
C1070 C65 1.427 . S
C1095 C219 1.427 . S
C1100 C79 1.427 . S
C1125 C177 1.427 . S
C1130 C93 1.427 . S
C1155 C107 1.426 . S
C1160 C191 1.426 . S
