# Generated by pormake.
# Topology vcc, (6)-cn, num edge types: 1
# Building blocks:
#     Node 0, Type 0, BuildingBlock: GEDQOX_clean_sbu_0, # of connection points: 6
#     Node 1, Type 0, BuildingBlock: GEDQOX_clean_sbu_0, # of connection points: 6
#     Node 2, Type 0, BuildingBlock: GEDQOX_clean_sbu_0, # of connection points: 6
#     Node 3, Type 0, BuildingBlock: GEDQOX_clean_sbu_0, # of connection points: 6
#     Node 4, Type 0, BuildingBlock: GEDQOX_clean_sbu_0, # of connection points: 6
#     Node 5, Type 0, BuildingBlock: GEDQOX_clean_sbu_0, # of connection points: 6
#     Node 6, Type 0, BuildingBlock: GEDQOX_clean_sbu_0, # of connection points: 6
#     Node 7, Type 0, BuildingBlock: GEDQOX_clean_sbu_0, # of connection points: 6
#     Node 8, Type 0, BuildingBlock: GEDQOX_clean_sbu_0, # of connection points: 6
#     Node 9, Type 0, BuildingBlock: GEDQOX_clean_sbu_0, # of connection points: 6
#     Node 10, Type 0, BuildingBlock: GEDQOX_clean_sbu_0, # of connection points: 6
#     Node 11, Type 0, BuildingBlock: GEDQOX_clean_sbu_0, # of connection points: 6
#     Node 12, Type 0, BuildingBlock: GEDQOX_clean_sbu_0, # of connection points: 6
#     Node 13, Type 0, BuildingBlock: GEDQOX_clean_sbu_0, # of connection points: 6
#     Node 14, Type 0, BuildingBlock: GEDQOX_clean_sbu_0, # of connection points: 6
#     Node 15, Type 0, BuildingBlock: GEDQOX_clean_sbu_0, # of connection points: 6
#     Node 16, Type 0, BuildingBlock: GEDQOX_clean_sbu_0, # of connection points: 6
#     Node 17, Type 0, BuildingBlock: GEDQOX_clean_sbu_0, # of connection points: 6
#     Node 18, Type 0, BuildingBlock: GEDQOX_clean_sbu_0, # of connection points: 6
#     Node 19, Type 0, BuildingBlock: GEDQOX_clean_sbu_0, # of connection points: 6
#     Node 20, Type 0, BuildingBlock: GEDQOX_clean_sbu_0, # of connection points: 6
#     Node 21, Type 0, BuildingBlock: GEDQOX_clean_sbu_0, # of connection points: 6
#     Node 22, Type 0, BuildingBlock: GEDQOX_clean_sbu_0, # of connection points: 6
#     Node 23, Type 0, BuildingBlock: GEDQOX_clean_sbu_0, # of connection points: 6
#     Node 24, Type 0, BuildingBlock: GEDQOX_clean_sbu_0, # of connection points: 6
#     Node 25, Type 0, BuildingBlock: GEDQOX_clean_sbu_0, # of connection points: 6
#     Node 26, Type 0, BuildingBlock: GEDQOX_clean_sbu_0, # of connection points: 6
#     Node 27, Type 0, BuildingBlock: GEDQOX_clean_sbu_0, # of connection points: 6
#     Node 28, Type 0, BuildingBlock: GEDQOX_clean_sbu_0, # of connection points: 6
#     Node 29, Type 0, BuildingBlock: GEDQOX_clean_sbu_0, # of connection points: 6
#     Node 30, Type 0, BuildingBlock: GEDQOX_clean_sbu_0, # of connection points: 6
#     Node 31, Type 0, BuildingBlock: GEDQOX_clean_sbu_0, # of connection points: 6
#     Edge 32, Type (0, 0), BuildingBlock: OJICUG_clean_linker_0, # of connection points: 2
#     Edge 33, Type (0, 0), BuildingBlock: OJICUG_clean_linker_0, # of connection points: 2
#     Edge 34, Type (0, 0), BuildingBlock: OJICUG_clean_linker_0, # of connection points: 2
#     Edge 35, Type (0, 0), BuildingBlock: OJICUG_clean_linker_0, # of connection points: 2
#     Edge 36, Type (0, 0), BuildingBlock: OJICUG_clean_linker_0, # of connection points: 2
#     Edge 37, Type (0, 0), BuildingBlock: OJICUG_clean_linker_0, # of connection points: 2
#     Edge 38, Type (0, 0), BuildingBlock: OJICUG_clean_linker_0, # of connection points: 2
#     Edge 39, Type (0, 0), BuildingBlock: OJICUG_clean_linker_0, # of connection points: 2
#     Edge 40, Type (0, 0), BuildingBlock: OJICUG_clean_linker_0, # of connection points: 2
#     Edge 41, Type (0, 0), BuildingBlock: OJICUG_clean_linker_0, # of connection points: 2
#     Edge 42, Type (0, 0), BuildingBlock: OJICUG_clean_linker_0, # of connection points: 2
#     Edge 43, Type (0, 0), BuildingBlock: OJICUG_clean_linker_0, # of connection points: 2
#     Edge 44, Type (0, 0), BuildingBlock: OJICUG_clean_linker_0, # of connection points: 2
#     Edge 45, Type (0, 0), BuildingBlock: OJICUG_clean_linker_0, # of connection points: 2
#     Edge 46, Type (0, 0), BuildingBlock: OJICUG_clean_linker_0, # of connection points: 2
#     Edge 47, Type (0, 0), BuildingBlock: OJICUG_clean_linker_0, # of connection points: 2
#     Edge 48, Type (0, 0), BuildingBlock: OJICUG_clean_linker_0, # of connection points: 2
#     Edge 49, Type (0, 0), BuildingBlock: OJICUG_clean_linker_0, # of connection points: 2
#     Edge 50, Type (0, 0), BuildingBlock: OJICUG_clean_linker_0, # of connection points: 2
#     Edge 51, Type (0, 0), BuildingBlock: OJICUG_clean_linker_0, # of connection points: 2
#     Edge 52, Type (0, 0), BuildingBlock: OJICUG_clean_linker_0, # of connection points: 2
#     Edge 53, Type (0, 0), BuildingBlock: OJICUG_clean_linker_0, # of connection points: 2
#     Edge 54, Type (0, 0), BuildingBlock: OJICUG_clean_linker_0, # of connection points: 2
#     Edge 55, Type (0, 0), BuildingBlock: OJICUG_clean_linker_0, # of connection points: 2
#     Edge 56, Type (0, 0), BuildingBlock: OJICUG_clean_linker_0, # of connection points: 2
#     Edge 57, Type (0, 0), BuildingBlock: OJICUG_clean_linker_0, # of connection points: 2
#     Edge 58, Type (0, 0), BuildingBlock: OJICUG_clean_linker_0, # of connection points: 2
#     Edge 59, Type (0, 0), BuildingBlock: OJICUG_clean_linker_0, # of connection points: 2
#     Edge 60, Type (0, 0), BuildingBlock: OJICUG_clean_linker_0, # of connection points: 2
#     Edge 61, Type (0, 0), BuildingBlock: OJICUG_clean_linker_0, # of connection points: 2
#     Edge 62, Type (0, 0), BuildingBlock: OJICUG_clean_linker_0, # of connection points: 2
#     Edge 63, Type (0, 0), BuildingBlock: OJICUG_clean_linker_0, # of connection points: 2
#     Edge 64, Type (0, 0), BuildingBlock: OJICUG_clean_linker_0, # of connection points: 2
#     Edge 65, Type (0, 0), BuildingBlock: OJICUG_clean_linker_0, # of connection points: 2
#     Edge 66, Type (0, 0), BuildingBlock: OJICUG_clean_linker_0, # of connection points: 2
#     Edge 67, Type (0, 0), BuildingBlock: OJICUG_clean_linker_0, # of connection points: 2
#     Edge 68, Type (0, 0), BuildingBlock: OJICUG_clean_linker_0, # of connection points: 2
#     Edge 69, Type (0, 0), BuildingBlock: OJICUG_clean_linker_0, # of connection points: 2
#     Edge 70, Type (0, 0), BuildingBlock: OJICUG_clean_linker_0, # of connection points: 2
#     Edge 71, Type (0, 0), BuildingBlock: OJICUG_clean_linker_0, # of connection points: 2
#     Edge 72, Type (0, 0), BuildingBlock: OJICUG_clean_linker_0, # of connection points: 2
#     Edge 73, Type (0, 0), BuildingBlock: OJICUG_clean_linker_0, # of connection points: 2
#     Edge 74, Type (0, 0), BuildingBlock: OJICUG_clean_linker_0, # of connection points: 2
#     Edge 75, Type (0, 0), BuildingBlock: OJICUG_clean_linker_0, # of connection points: 2
#     Edge 76, Type (0, 0), BuildingBlock: OJICUG_clean_linker_0, # of connection points: 2
#     Edge 77, Type (0, 0), BuildingBlock: OJICUG_clean_linker_0, # of connection points: 2
#     Edge 78, Type (0, 0), BuildingBlock: OJICUG_clean_linker_0, # of connection points: 2
#     Edge 79, Type (0, 0), BuildingBlock: OJICUG_clean_linker_0, # of connection points: 2
#     Edge 80, Type (0, 0), BuildingBlock: OJICUG_clean_linker_0, # of connection points: 2
#     Edge 81, Type (0, 0), BuildingBlock: OJICUG_clean_linker_0, # of connection points: 2
#     Edge 82, Type (0, 0), BuildingBlock: OJICUG_clean_linker_0, # of connection points: 2
#     Edge 83, Type (0, 0), BuildingBlock: OJICUG_clean_linker_0, # of connection points: 2
#     Edge 84, Type (0, 0), BuildingBlock: OJICUG_clean_linker_0, # of connection points: 2
#     Edge 85, Type (0, 0), BuildingBlock: OJICUG_clean_linker_0, # of connection points: 2
#     Edge 86, Type (0, 0), BuildingBlock: OJICUG_clean_linker_0, # of connection points: 2
#     Edge 87, Type (0, 0), BuildingBlock: OJICUG_clean_linker_0, # of connection points: 2
#     Edge 88, Type (0, 0), BuildingBlock: OJICUG_clean_linker_0, # of connection points: 2
#     Edge 89, Type (0, 0), BuildingBlock: OJICUG_clean_linker_0, # of connection points: 2
#     Edge 90, Type (0, 0), BuildingBlock: OJICUG_clean_linker_0, # of connection points: 2
#     Edge 91, Type (0, 0), BuildingBlock: OJICUG_clean_linker_0, # of connection points: 2
#     Edge 92, Type (0, 0), BuildingBlock: OJICUG_clean_linker_0, # of connection points: 2
#     Edge 93, Type (0, 0), BuildingBlock: OJICUG_clean_linker_0, # of connection points: 2
#     Edge 94, Type (0, 0), BuildingBlock: OJICUG_clean_linker_0, # of connection points: 2
#     Edge 95, Type (0, 0), BuildingBlock: OJICUG_clean_linker_0, # of connection points: 2
#     Edge 96, Type (0, 0), BuildingBlock: OJICUG_clean_linker_0, # of connection points: 2
#     Edge 97, Type (0, 0), BuildingBlock: OJICUG_clean_linker_0, # of connection points: 2
#     Edge 98, Type (0, 0), BuildingBlock: OJICUG_clean_linker_0, # of connection points: 2
#     Edge 99, Type (0, 0), BuildingBlock: OJICUG_clean_linker_0, # of connection points: 2
#     Edge 100, Type (0, 0), BuildingBlock: OJICUG_clean_linker_0, # of connection points: 2
#     Edge 101, Type (0, 0), BuildingBlock: OJICUG_clean_linker_0, # of connection points: 2
#     Edge 102, Type (0, 0), BuildingBlock: OJICUG_clean_linker_0, # of connection points: 2
#     Edge 103, Type (0, 0), BuildingBlock: OJICUG_clean_linker_0, # of connection points: 2
#     Edge 104, Type (0, 0), BuildingBlock: OJICUG_clean_linker_0, # of connection points: 2
#     Edge 105, Type (0, 0), BuildingBlock: OJICUG_clean_linker_0, # of connection points: 2
#     Edge 106, Type (0, 0), BuildingBlock: OJICUG_clean_linker_0, # of connection points: 2
#     Edge 107, Type (0, 0), BuildingBlock: OJICUG_clean_linker_0, # of connection points: 2
#     Edge 108, Type (0, 0), BuildingBlock: OJICUG_clean_linker_0, # of connection points: 2
#     Edge 109, Type (0, 0), BuildingBlock: OJICUG_clean_linker_0, # of connection points: 2
#     Edge 110, Type (0, 0), BuildingBlock: OJICUG_clean_linker_0, # of connection points: 2
#     Edge 111, Type (0, 0), BuildingBlock: OJICUG_clean_linker_0, # of connection points: 2
#     Edge 112, Type (0, 0), BuildingBlock: OJICUG_clean_linker_0, # of connection points: 2
#     Edge 113, Type (0, 0), BuildingBlock: OJICUG_clean_linker_0, # of connection points: 2
#     Edge 114, Type (0, 0), BuildingBlock: OJICUG_clean_linker_0, # of connection points: 2
#     Edge 115, Type (0, 0), BuildingBlock: OJICUG_clean_linker_0, # of connection points: 2
#     Edge 116, Type (0, 0), BuildingBlock: OJICUG_clean_linker_0, # of connection points: 2
#     Edge 117, Type (0, 0), BuildingBlock: OJICUG_clean_linker_0, # of connection points: 2
#     Edge 118, Type (0, 0), BuildingBlock: OJICUG_clean_linker_0, # of connection points: 2
#     Edge 119, Type (0, 0), BuildingBlock: OJICUG_clean_linker_0, # of connection points: 2
#     Edge 120, Type (0, 0), BuildingBlock: OJICUG_clean_linker_0, # of connection points: 2
#     Edge 121, Type (0, 0), BuildingBlock: OJICUG_clean_linker_0, # of connection points: 2
#     Edge 122, Type (0, 0), BuildingBlock: OJICUG_clean_linker_0, # of connection points: 2
#     Edge 123, Type (0, 0), BuildingBlock: OJICUG_clean_linker_0, # of connection points: 2
#     Edge 124, Type (0, 0), BuildingBlock: OJICUG_clean_linker_0, # of connection points: 2
#     Edge 125, Type (0, 0), BuildingBlock: OJICUG_clean_linker_0, # of connection points: 2
#     Edge 126, Type (0, 0), BuildingBlock: OJICUG_clean_linker_0, # of connection points: 2
#     Edge 127, Type (0, 0), BuildingBlock: OJICUG_clean_linker_0, # of connection points: 2
# Relax obj value: 0.950
# Max RMSD: 0.309
# Mean RMSD: 0.309
data_MOF--net-vcc--node1-GEDQOX_clean_sbu_0--edge1-OJICUG_clean_linker_0
_symmetry_space_group_name_H-M    P1
_symmetry_Int_Tables_number       1
_symmetry_cell_setting            triclinic
loop_
_symmetry_equiv_pos_as_xyz
'x, y, z'
_cell_length_a     61.79998
_cell_length_b     41.632701
_cell_length_c     27.524167
_cell_angle_alpha  89.852543
_cell_angle_beta   90.075365
_cell_angle_gamma 90.058754
loop_
_atom_site_label
_atom_site_type_symbol
_atom_site_fract_x
_atom_site_fract_y
_atom_site_fract_z
_atom_type_partial_charge
Nd0 Nd 0.33013 0.96983 0.30516 0.0
Nd1 Nd 0.35127 0.97177 0.3373 0.0
C2 C 0.29242 0.96475 0.26152 0.0
C3 C 0.27396 -0.01372 0.26921 0.0
C4 C 0.26366 0.00051 1.22937 0.0
C5 C 0.248 0.02414 1.23664 0.0
C6 C 0.24262 0.03434 0.28399 0.0
C7 C 0.25359 0.02075 0.32364 0.0
C8 C 0.26879 -0.00336 0.31633 0.0
C9 C 0.33131 0.03716 0.3291 0.0
C10 C 0.36676 0.97456 1.21964 0.0
C11 C 0.37778 -0.0152 0.40978 0.0
C12 C 0.40142 -0.01346 0.40319 0.0
C13 C 0.41163 0.01664 0.40376 0.0
C14 C 0.43173 0.02082 0.38151 0.0
C15 C 0.44191 -0.00495 0.35756 0.0
C16 C 0.43227 0.9645 0.35997 0.0
C17 C 0.41253 0.96017 0.38347 0.0
C18 C 0.36822 0.91355 0.30705 0.0
C19 C 0.30677 0.98184 0.4172 0.0
O20 O 0.30905 0.9785 1.24128 0.0
O21 O 0.29788 0.94645 0.29807 0.0
O22 O 0.31602 0.0173 0.33846 0.0
O23 O 0.34622 0.02132 0.30923 0.0
O24 O 0.34643 0.96569 1.22476 0.0
O25 O 0.37423 0.98178 0.26396 0.0
O26 O 0.36716 0.00689 0.38648 0.0
O27 O 0.36881 0.95675 0.40448 0.0
O28 O 0.37885 0.9402 0.30878 0.0
O29 O 0.34801 0.91926 0.31537 0.0
O30 O 0.31682 0.96122 0.38584 0.0
O31 O 0.31623 0.96022 0.38721 0.0
H32 H 0.26773 -0.00664 1.19268 0.0
H33 H 0.23951 0.03332 1.20512 0.0
H34 H 0.24992 0.02799 0.3605 0.0
H35 H 0.27658 -0.01373 0.34771 0.0
H36 H 0.40344 0.03739 0.41873 0.0
H37 H 0.43906 0.04443 0.38256 0.0
H38 H 0.43952 0.94395 0.34238 0.0
H39 H 0.40531 0.93647 0.38301 0.0
Nd40 Nd 0.95404 0.23355 0.30168 0.0
Nd41 Nd 0.93343 0.23227 0.33555 0.0
C42 C 0.98901 0.25 0.25137 0.0
C43 C 0.99902 0.27898 1.23006 0.0
C44 C 1.01379 0.29687 0.25774 0.0
C45 C 0.02705 0.3196 1.23566 0.0
C46 C 0.026 0.32484 1.18514 0.0
C47 C 1.00923 0.30996 1.15872 0.0
C48 C 0.99604 0.28686 1.18087 0.0
C49 C 0.9533 0.16595 0.32444 0.0
C50 C 0.91678 0.22726 1.21795 0.0
C51 C 0.91091 0.22781 0.41669 0.0
C52 C 0.89181 0.24747 0.42799 0.0
C53 C 0.87157 0.23256 0.43095 0.0
C54 C 0.85284 0.2508 0.42644 0.0
C55 C 0.85411 0.28416 0.4191 0.0
C56 C 0.87412 0.29963 0.42069 0.0
C57 C 0.89295 0.28136 0.42515 0.0
C58 C 0.91548 0.29051 0.30788 0.0
C59 C 0.97922 0.21875 0.41108 0.0
O60 O 0.9884 0.24849 0.29842 0.0
O61 O 0.97154 0.23857 1.23132 0.0
O62 O 0.96975 0.18477 0.32716 0.0
O63 O 0.93755 0.18233 0.30963 0.0
O64 O 0.93781 0.23159 1.22126 0.0
O65 O 0.9091 0.22467 0.26332 0.0
O66 O 0.92905 0.24335 0.41387 0.0
O67 O 0.90856 0.20771 0.38086 0.0
O68 O 0.90492 0.26407 0.31277 0.0
O69 O 0.93598 0.28457 0.31261 0.0
O70 O 0.96912 0.24017 0.38087 0.0
O71 O 0.96983 0.24129 0.38231 0.0
H72 H 1.01636 0.29167 0.29591 0.0
H73 H 0.03964 0.33027 0.25772 0.0
H74 H 1.00751 0.31407 1.12004 0.0
H75 H 0.98451 0.2738 1.15876 0.0
H76 H 0.87027 0.20663 0.43306 0.0
H77 H 0.8373 0.23867 0.42618 0.0
H78 H 0.87523 0.32541 0.41576 0.0
H79 H 0.90836 0.29368 0.42277 0.0
Nd80 Nd 0.33019 0.23467 0.4334 0.0
Nd81 Nd 0.35093 0.23102 0.40051 0.0
C82 C 0.29661 0.24753 0.48933 0.0
C83 C 0.28542 0.22491 0.5211 0.0
C84 C 0.26677 0.23409 0.54589 0.0
C85 C 0.25409 0.21075 0.56852 0.0
C86 C 0.2598 0.17802 0.56558 0.0
C87 C 0.27957 0.16938 0.54466 0.0
C88 C 0.29246 0.19284 0.52299 0.0
C89 C 0.33041 0.16649 0.41761 0.0
C90 C 0.36753 0.22699 0.51758 0.0
C91 C 0.37645 0.21295 0.32877 0.0
C92 C 0.39956 0.20608 0.33651 0.0
C93 C 0.40737 0.17488 0.32918 0.0
C94 C 0.42703 0.16536 0.34985 0.0
C95 C 0.43897 0.18657 0.37957 0.0
C96 C 0.43128 0.21811 0.38535 0.0
C97 C 0.41224 0.22795 0.36291 0.0
C98 C 0.36755 0.29067 0.42448 0.0
C99 C 0.30424 0.22026 0.3264 0.0
O100 O 0.31644 0.25364 0.50185 0.0
O101 O 0.29478 0.24158 0.44312 0.0
O102 O 0.31477 0.18587 0.40814 0.0
O103 O 0.34571 0.18311 0.43454 0.0
O104 O 0.34655 0.23164 0.51382 0.0
O105 O 0.37531 0.22407 0.47248 0.0
O106 O 0.36359 0.19324 0.35112 0.0
O107 O 0.37034 0.24256 0.33443 0.0
O108 O 0.37794 0.26395 0.42897 0.0
O109 O 0.34765 0.28441 0.41381 0.0
O110 O 0.31606 0.24165 0.35329 0.0
O111 O 0.31552 0.24251 0.35188 0.0
H112 H 0.26131 0.2588 0.54509 0.0
H113 H 0.23869 0.21796 0.58377 0.0
H114 H 0.28414 0.14435 0.54161 0.0
H115 H 0.30718 0.18562 0.50485 0.0
H116 H 0.3978 0.15745 0.30936 0.0
H117 H 0.43268 0.14125 0.34262 0.0
H118 H 0.43961 0.23532 0.40805 0.0
H119 H 0.40693 0.25236 0.36866 0.0
Nd120 Nd 0.95258 0.96819 0.43402 0.0
Nd121 Nd 0.93233 0.97017 0.40021 0.0
C122 C 0.98615 0.95119 0.48791 0.0
C123 C 0.99001 0.94592 0.53992 0.0
C124 C 1.0041 0.92143 0.55423 0.0
C125 C 1.01374 0.92257 0.59996 0.0
C126 C 1.00988 0.94895 0.63079 0.0
C127 C 0.99231 0.9692 0.62042 0.0
C128 C 0.98265 0.96809 0.57465 0.0
C129 C 0.9525 0.03541 0.41035 0.0
C130 C 0.9155 0.97499 0.51779 0.0
C131 C 0.91042 0.97797 0.31878 0.0
C132 C 0.88995 0.96133 0.30772 0.0
C133 C 0.87046 0.97777 0.31477 0.0
C134 C 0.85143 0.96068 0.32224 0.0
C135 C 0.85152 0.92694 0.32206 0.0
C136 C 0.87033 0.91047 0.3092 0.0
C137 C 0.88954 0.92758 0.30223 0.0
C138 C 0.91325 0.91215 0.42379 0.0
C139 C 0.97789 0.9816 0.32416 0.0
O140 O 0.97409 0.93042 0.46538 0.0
O141 O 0.98217 0.98056 0.47477 0.0
O142 O 0.9683 0.01569 0.40382 0.0
O143 O 0.93689 0.01969 0.42793 0.0
O144 O 0.93659 0.97205 0.51434 0.0
O145 O 0.9077 0.97629 0.47236 0.0
O146 O 0.92737 0.95968 0.32186 0.0
O147 O 0.9096 -0.00151 0.35441 0.0
O148 O 0.90285 0.93868 0.41811 0.0
O149 O 0.9338 0.91786 0.4217 0.0
O150 O 0.96831 0.96089 0.35641 0.0
O151 O 0.9692 0.9596 0.35478 0.0
H152 H 1.0095 0.90358 0.52835 0.0
H153 H 0.02689 0.90604 0.6071 0.0
H154 H 0.98864 -0.01077 0.64408 0.0
H155 H 0.97129 -0.01321 0.56485 0.0
H156 H 0.87024 0.00367 0.31861 0.0
H157 H 0.83671 0.97381 0.33016 0.0
H158 H 0.87045 0.88447 0.30747 0.0
H159 H 0.90428 0.91412 0.29632 0.0
Nd160 Nd 0.67974 0.98015 1.14963 0.0
Nd161 Nd 0.70044 -0.01432 1.18141 0.0
C162 C 0.65798 0.95216 1.07812 0.0
C163 C 0.6417 0.92705 1.08588 0.0
C164 C 0.63035 0.91317 1.04731 0.0
C165 C 0.61301 0.89244 1.05696 0.0
C166 C 0.60692 0.88547 1.10529 0.0
C167 C 0.61954 0.89743 1.14343 0.0
C168 C 0.63654 0.91835 1.13376 0.0
C169 C 0.6621 0.04126 1.16303 0.0
C170 C 0.72658 0.9701 1.07572 0.0
C171 C 0.73439 0.00056 1.23521 0.0
C172 C 0.7451 0.97973 0.27047 0.0
C173 C 0.76233 -0.00884 0.29822 0.0
C174 C 0.77435 0.96978 0.32637 0.0
C175 C 0.76943 0.93667 0.32628 0.0
C176 C 0.75097 0.92586 0.30174 0.0
C177 C 0.73871 0.94741 0.27441 0.0
C178 C 0.70061 0.91679 1.17164 0.0
C179 C 0.66491 0.97736 0.26821 0.0
O180 O 0.65288 0.97999 1.09577 0.0
O181 O 0.67757 0.94416 1.08979 0.0
O182 O 0.65126 0.01471 1.16293 0.0
O183 O 0.68252 0.03465 1.1592 0.0
O184 O 0.71421 -0.00823 1.10097 0.0
O185 O 0.71475 -0.00755 1.09946 0.0
O186 O 0.71475 0.00854 0.24661 0.0
O187 O 0.736 -0.00855 1.19019 0.0
O188 O 0.7156 0.93636 1.15823 0.0
O189 O 0.68546 0.9338 1.18867 0.0
O190 O 0.68537 -0.01498 0.26287 0.0
O191 O 0.657 0.97144 1.22389 0.0
H192 H 0.63413 0.91961 1.01012 0.0
H193 H 0.60333 0.88401 1.02672 0.0
H194 H 0.61531 0.89245 1.1809 0.0
H195 H 0.64519 0.92868 1.164 0.0
H196 H 0.76722 0.01612 0.296 0.0
H197 H 0.78877 0.97871 0.34427 0.0
H198 H 0.74702 0.9005 0.30078 0.0
H199 H 0.72499 0.9385 0.25408 0.0
Nd200 Nd 0.10307 0.72595 1.15501 0.0
Nd201 Nd 0.08094 0.71721 1.18679 0.0
C202 C 0.12475 0.75506 1.08401 0.0
C203 C 0.1407 0.78084 1.08924 0.0
C204 C 0.15119 0.79384 1.04878 0.0
C205 C 0.16836 0.81531 1.05531 0.0
C206 C 0.17519 0.82395 1.10245 0.0
C207 C 0.1633 0.81292 1.14256 0.0
C208 C 0.14638 0.79124 1.13599 0.0
C209 C 0.12244 0.66681 1.17311 0.0
C210 C 0.05794 0.73326 1.07652 0.0
C211 C 0.04467 0.69183 1.22177 0.0
C212 C 0.02434 0.68144 1.19908 0.0
C213 C 1.01294 0.65556 1.219 0.0
C214 C 0.99337 0.64577 1.19848 0.0
C215 C 0.98488 0.6616 1.15731 0.0
C216 C 0.99708 0.68635 1.13576 0.0
C217 C 1.01656 0.69632 1.15671 0.0
C218 C 0.07875 0.7858 1.17511 0.0
C219 C 0.11648 0.72773 0.27407 0.0
O220 O 0.13041 0.72769 1.10261 0.0
O221 O 0.10517 0.76267 1.09605 0.0
O222 O 0.13222 0.69419 1.17551 0.0
O223 O 0.10213 0.67159 1.16454 0.0
O224 O 0.06969 0.71219 1.10441 0.0
O225 O 0.06915 0.71142 1.10275 0.0
O226 O 0.04873 0.72245 1.22182 0.0
O227 O 0.06155 0.67503 1.2103 0.0
O228 O 0.06485 0.76503 1.15971 0.0
O229 O 0.09392 0.77011 1.19502 0.0
O230 O 0.09663 0.7167 0.268 0.0
O231 O 0.12408 0.73671 1.2306 0.0
H232 H 0.1469 0.78612 1.01246 0.0
H233 H 0.17737 0.82296 1.0236 0.0
H234 H 0.16807 0.81925 1.1792 0.0
H235 H 0.13827 0.78156 1.16764 0.0
H236 H 0.01888 0.64351 0.25132 0.0
H237 H 0.98431 0.62707 1.21681 0.0
H238 H 0.99114 0.69893 1.10394 0.0
H239 H 0.02521 0.71623 1.14058 0.0
Nd240 Nd 0.68303 0.71776 1.09743 0.0
Nd241 Nd 0.70313 0.71725 1.06557 0.0
C242 C 0.6581 0.72884 1.17323 0.0
C243 C 0.63428 0.72746 1.17044 0.0
C244 C 0.62273 0.75616 1.16378 0.0
C245 C 0.60239 0.75574 1.14188 0.0
C246 C 0.59313 0.72659 1.12647 0.0
C247 C 0.60366 0.6977 1.1382 0.0
C248 C 0.62394 0.69811 1.16038 0.0
C249 C 0.66477 0.65959 1.06941 0.0
C250 C 0.72676 0.72875 1.17906 0.0
C251 C 0.74066 0.7132 1.02102 0.0
C252 C 0.7597 0.73334 1.03037 0.0
C253 C 0.77051 0.74803 0.99165 0.0
C254 C 0.78736 0.76953 1.00073 0.0
C255 C 0.79351 0.77696 1.0488 0.0
C256 C 0.78201 0.76315 1.08742 0.0
C257 C 0.76546 0.74132 1.07825 0.0
C258 C 0.70085 0.78454 1.091 0.0
C259 C 0.66711 0.72217 0.9792 0.0
O260 O 0.66839 0.70186 1.1675 0.0
O261 O 0.66672 0.75169 1.14751 0.0
O262 O 0.65423 0.6861 1.07463 0.0
O263 O 0.68531 0.66565 1.07334 0.0
O264 O 0.71845 0.70887 1.14406 0.0
O265 O 0.71935 0.70752 1.14554 0.0
O266 O 0.72423 0.72858 1.00274 0.0
O267 O 0.73504 0.69346 1.05567 0.0
O268 O 0.7165 0.7652 1.10017 0.0
O269 O 0.68618 0.76809 1.07108 0.0
O270 O 0.68774 0.71509 0.98412 0.0
O271 O 0.65942 0.72715 1.0241 0.0
H272 H 0.63017 0.77914 1.17178 0.0
H273 H 0.5942 0.77841 1.13597 0.0
H274 H 0.59678 0.67475 1.12821 0.0
H275 H 0.63224 0.67545 1.16561 0.0
H276 H 0.76603 0.7427 0.95446 0.0
H277 H 0.79622 0.77905 0.96996 0.0
H278 H 0.78634 0.76828 1.12476 0.0
H279 H 0.75727 0.73061 1.10877 0.0
Nd280 Nd 0.10033 0.98038 1.09218 0.0
Nd281 Nd 0.08042 0.98142 1.05759 0.0
C282 C 0.1201 0.97267 1.17705 0.0
C283 C 0.13534 -0.00581 1.20171 0.0
C284 C 0.15374 0.00558 1.17747 0.0
C285 C 0.16672 0.02888 1.19875 0.0
C286 C 0.16173 0.04124 0.245 0.0
C287 C 0.14292 0.0305 0.26862 0.0
C288 C 0.12985 0.00712 0.24712 0.0
C289 C 0.11781 0.03994 1.07095 0.0
C290 C 0.0538 0.96895 1.16505 0.0
C291 C 0.04685 -0.00057 1.00412 0.0
C292 C 0.03253 0.02758 1.00014 0.0
C293 C 1.01615 0.0328 1.0345 0.0
C294 C 1.00007 0.05548 1.02559 0.0
C295 C 1.00005 0.07329 0.9821 0.0
C296 C 0.01791 0.0708 0.95072 0.0
C297 C 0.0339 0.04782 0.9594 0.0
C298 C 0.08077 0.91409 1.08116 0.0
C299 C 0.11777 0.97413 0.97503 0.0
O300 O 0.10095 -0.01534 1.17249 0.0
O301 O 0.12647 0.9586 1.13741 0.0
O302 O 0.12875 0.01388 1.07577 0.0
O303 O 0.09737 0.03307 1.07301 0.0
O304 O 0.06384 -0.01024 1.13372 0.0
O305 O 0.0629 -0.00885 1.13529 0.0
O306 O 0.04516 0.98187 1.04303 0.0
O307 O 0.06683 0.00311 0.99033 0.0
O308 O 0.06438 0.93306 1.08322 0.0
O309 O 0.0967 0.93027 1.0663 0.0
O310 O 0.09655 0.9738 0.97799 0.0
O311 O 0.12539 0.97587 1.02056 0.0
H312 H 0.15823 -0.00355 1.14209 0.0
H313 H 0.18139 0.03577 1.1799 0.0
H314 H 0.13876 0.03935 0.30438 0.0
H315 H 0.11537 -0.00079 0.26585 0.0
H316 H 1.01484 0.01795 1.06674 0.0
H317 H 0.98657 0.05658 1.05056 0.0
H318 H 0.01857 0.08466 0.91738 0.0
H319 H 0.04659 0.0446 0.93273 0.0
Nd320 Nd 0.32807 0.46599 0.80271 0.0
Nd321 Nd 0.35957 0.48283 0.84691 0.0
C322 C 0.29721 0.43934 0.74977 0.0
C323 C 0.29083 0.41144 0.72008 0.0
C324 C 0.27949 0.38621 0.7424 0.0
C325 C 0.26635 0.36607 0.71498 0.0
C326 C 0.26413 0.37088 0.66451 0.0
C327 C 0.279 0.39173 0.64152 0.0
C328 C 0.29182 0.41255 0.6692 0.0
C329 C 0.32555 0.53333 0.82412 0.0
C330 C 0.36883 0.47829 0.72332 0.0
C331 C 0.39106 0.51223 0.89437 0.0
C332 C 0.41184 0.52267 0.87387 0.0
C333 C 0.42287 0.54897 0.89345 0.0
C334 C 0.44145 0.56079 0.87056 0.0
C335 C 0.44906 0.54688 0.82705 0.0
C336 C 0.43737 0.52127 0.80678 0.0
C337 C 0.41919 0.50905 0.83032 0.0
C338 C 0.37058 0.41945 0.82335 0.0
C339 C 0.31092 0.47351 0.91586 0.0
O340 O 0.29996 0.43419 0.79606 0.0
O341 O 0.31042 0.46095 0.73218 0.0
O342 O 0.3106 0.51239 0.83217 0.0
O343 O 0.34105 0.51865 0.80444 0.0
O344 O 0.34935 0.46497 0.7284 0.0
O345 O 0.3763 0.49025 0.76559 0.0
O346 O 0.38777 0.48134 0.89747 0.0
O347 O 0.37452 0.52712 0.87599 0.0
O348 O 0.38222 0.44466 0.81593 0.0
O349 O 0.35174 0.42834 0.83912 0.0
O350 O 0.33184 0.48394 0.91562 0.0
O351 O 0.30543 0.46143 0.87314 0.0
H352 H 0.27878 0.38413 0.78161 0.0
H353 H 0.25595 0.34986 0.73492 0.0
H354 H 0.27904 0.39466 0.60245 0.0
H355 H 0.30096 0.43118 0.65086 0.0
H356 H 0.41717 0.56026 0.92646 0.0
H357 H 0.45025 0.58005 0.88808 0.0
H358 H 0.44251 0.51011 0.77323 0.0
H359 H 0.41087 0.48892 0.81423 0.0
Nd360 Nd 0.95641 0.73175 0.80738 0.0
Nd361 Nd 0.93645 0.7297 0.8427 0.0
C362 C 0.99028 0.74549 0.75241 0.0
C363 C 0.99624 0.76883 0.7147 0.0
C364 C 0.99196 0.8018 0.71988 0.0
C365 C 1.00188 0.82405 0.68892 0.0
C366 C 1.01629 0.81353 0.65278 0.0
C367 C 0.01811 0.78026 0.64409 0.0
C368 C 1.00827 0.75817 0.67499 0.0
C369 C 0.95562 0.66428 0.83164 0.0
C370 C 0.91875 0.72585 0.72574 0.0
C371 C 0.9179 0.7197 0.92859 0.0
C372 C 0.90255 0.73899 0.95654 0.0
C373 C 0.88404 0.75168 0.9343 0.0
C374 C 0.87077 0.77269 0.95953 0.0
C375 C 0.87559 0.78133 1.00779 0.0
C376 C 0.89443 0.76917 1.02968 0.0
C377 C 0.90783 0.74818 1.00415 0.0
C378 C 0.91743 0.78828 0.82127 0.0
C379 C 0.98346 0.71818 0.91486 0.0
O380 O 0.98777 0.75651 0.7963 0.0
O381 O 0.97587 0.72405 0.74068 0.0
O382 O 0.97184 0.68342 0.83604 0.0
O383 O 0.94009 0.68043 0.81535 0.0
O384 O 0.93913 0.73441 0.72857 0.0
O385 O 0.91206 0.71943 0.77111 0.0
O386 O 0.93651 0.73329 0.92313 0.0
O387 O 0.91112 0.70651 0.88855 0.0
O388 O 0.90718 0.76216 0.8306 0.0
O389 O 0.93797 0.78228 0.81938 0.0
O390 O 0.97311 0.73901 0.88403 0.0
O391 O 0.97404 0.7403 0.88562 0.0
H392 H 0.98217 0.81049 0.74969 0.0
H393 H 0.99981 0.84944 0.696 0.0
H394 H 0.02906 0.77097 0.61686 0.0
H395 H 1.01142 0.73279 0.66999 0.0
H396 H 0.87963 0.7452 0.89753 0.0
H397 H 0.85604 0.78069 0.9419 0.0
H398 H 0.89839 0.7751 1.06695 0.0
H399 H 0.92235 0.73911 1.02153 0.0
Nd400 Nd 0.32726 0.7305 0.93969 0.0
Nd401 Nd 0.34737 0.72905 0.90537 0.0
C402 C 0.29319 0.74687 0.99277 0.0
C403 C 0.28458 0.77597 1.01637 0.0
C404 C 0.27054 0.79614 0.99037 0.0
C405 C 0.25874 0.8197 1.0142 0.0
C406 C 0.26049 0.82353 1.06489 0.0
C407 C 0.27667 0.80614 1.0897 0.0
C408 C 0.28841 0.78222 1.06576 0.0
C409 C 0.32709 0.66283 0.91563 0.0
C410 C 0.36476 0.72489 1.02284 0.0
C411 C 0.36712 0.723 0.82037 0.0
C412 C 0.38318 0.74397 0.79728 0.0
C413 C 0.40182 0.75335 0.82253 0.0
C414 C 0.41569 0.77614 0.80268 0.0
C415 C 0.41131 0.78996 0.75694 0.0
C416 C 0.39222 0.78137 0.73246 0.0
C417 C 0.37829 0.7585 0.75249 0.0
C418 C 0.36611 0.78747 0.9294 0.0
C419 C 0.30233 0.71741 0.82858 0.0
O420 O 0.29332 0.74697 0.94564 0.0
O421 O 0.31041 0.73345 1.0111 0.0
O422 O 0.31087 0.68211 0.91386 0.0
O423 O 0.34312 0.67881 0.93024 0.0
O424 O 0.34387 0.73027 1.01975 0.0
O425 O 0.37201 0.72084 0.97732 0.0
O426 O 0.34852 0.73659 0.82573 0.0
O427 O 0.37287 0.70693 0.85895 0.0
O428 O 0.37646 0.76101 0.92346 0.0
O429 O 0.3455 0.78154 0.92725 0.0
O430 O 0.31095 0.73754 0.86268 0.0
O431 O 0.30982 0.73921 0.86112 0.0
H432 H 0.26739 0.79229 0.9521 0.0
H433 H 0.24657 0.83229 0.99325 0.0
H434 H 0.27897 0.80905 1.12844 0.0
H435 H 0.29948 0.76741 1.08657 0.0
H436 H 0.40583 0.74301 0.85753 0.0
H437 H 0.43051 0.78143 0.82213 0.0
H438 H 0.38851 0.79145 0.6971 0.0
H439 H 0.36362 0.75221 0.73309 0.0
Nd440 Nd 0.95467 0.46665 0.93749 0.0
Nd441 Nd 0.93453 0.47149 0.90467 0.0
C442 C 0.99165 0.4588 0.98352 0.0
C443 C 1.01068 0.47956 0.97769 0.0
C444 C 0.02055 0.4932 1.01847 0.0
C445 C 0.03663 0.51645 1.01264 0.0
C446 C 0.04281 0.52692 0.96583 0.0
C447 C 0.03235 0.51382 0.92524 0.0
C448 C 1.0168 0.49001 0.93114 0.0
C449 C 0.95477 0.53499 0.92031 0.0
C450 C 0.91776 0.47366 1.02154 0.0
C451 C 0.91492 0.49455 0.82564 0.0
C452 C 0.90073 0.52225 0.81919 0.0
C453 C 0.89232 0.52979 0.77346 0.0
C454 C 0.87676 0.55391 0.76886 0.0
C455 C 0.86959 0.57105 0.81 0.0
C456 C 0.8797 0.56519 0.85497 0.0
C457 C 0.89472 0.54045 0.85967 0.0
C458 C 0.9158 0.41178 0.9237 0.0
C459 C 0.98083 0.48028 0.82875 0.0
O460 O 0.97509 0.47296 1.00311 0.0
O461 O 0.98623 0.44153 0.94599 0.0
O462 O 0.96924 0.5147 0.90728 0.0
O463 O 0.93964 0.51893 0.93935 0.0
O464 O 0.93663 0.45945 1.01571 0.0
O465 O 0.91231 0.48574 0.97796 0.0
O466 O 0.93471 0.50131 0.83728 0.0
O467 O 0.90716 0.47154 0.85228 0.0
O468 O 0.90543 0.43842 0.91823 0.0
O469 O 0.93638 0.41741 0.922 0.0
O470 O 0.96919 0.45919 0.85714 0.0
O471 O 0.96974 0.45846 0.85575 0.0
H472 H 1.01578 0.48594 1.05475 0.0
H473 H 0.04474 0.52527 1.04486 0.0
H474 H 0.03659 0.52129 0.88874 0.0
H475 H 1.00947 0.47997 0.89909 0.0
H476 H 0.8969 0.51593 0.74185 0.0
H477 H 0.86922 0.55723 0.7337 0.0
H478 H 0.87493 0.57821 0.88723 0.0
H479 H 0.90099 0.53459 0.89534 0.0
Nd480 Nd 0.6756 0.47564 0.64462 0.0
Nd481 Nd 0.70645 0.4864 0.6901 0.0
C482 C 0.64191 0.45954 0.59215 0.0
C483 C 0.61965 0.46507 0.6092 0.0
C484 C 0.60629 0.43865 0.61899 0.0
C485 C 0.58773 0.44233 0.64723 0.0
C486 C 0.58225 0.4725 0.66701 0.0
C487 C 0.59548 0.49902 0.65622 0.0
C488 C 0.61374 0.49545 0.62707 0.0
C489 C 0.66738 0.53857 0.67361 0.0
C490 C 0.7252 0.48322 0.57904 0.0
C491 C 0.73383 0.51133 0.75364 0.0
C492 C 0.74948 0.53775 0.75671 0.0
C493 C 0.76565 0.54178 0.72157 0.0
C494 C 0.78236 0.56367 0.72936 0.0
C495 C 0.78314 0.58192 0.77238 0.0
C496 C 0.76551 0.58045 0.80457 0.0
C497 C 0.74891 0.55827 0.79698 0.0
C498 C 0.70637 0.41994 0.66362 0.0
C499 C 0.66521 0.47196 0.76762 0.0
O500 O 0.65349 0.48498 0.58221 0.0
O501 O 0.65252 0.43885 0.61845 0.0
O502 O 0.65568 0.51389 0.68365 0.0
O503 O 0.68549 0.52856 0.65526 0.0
O504 O 0.70461 0.47145 0.5789 0.0
O505 O 0.72974 0.49643 0.6217 0.0
O506 O 0.7386 0.48701 0.72581 0.0
O507 O 0.71358 0.5197 0.75065 0.0
O508 O 0.72257 0.43945 0.6591 0.0
O509 O 0.69105 0.43521 0.68314 0.0
O510 O 0.68641 0.47699 0.7648 0.0
O511 O 0.65622 0.4693 0.72322 0.0
H512 H 0.61065 0.41488 0.60635 0.0
H513 H 0.57757 0.42146 0.6529 0.0
H514 H 0.59181 0.52262 0.6704 0.0
H515 H 0.62372 0.51635 0.62034 0.0
H516 H 0.76612 0.52671 0.68956 0.0
H517 H 0.79565 0.56391 0.70377 0.0
H518 H 0.76543 0.59457 0.83756 0.0
H519 H 0.73623 0.55596 0.82395 0.0
Nd520 Nd 0.10151 0.2171 0.64582 0.0
Nd521 Nd 0.08172 0.21809 0.67999 0.0
C522 C 0.12218 0.21677 0.5616 0.0
C523 C 0.13996 0.19536 0.54744 0.0
C524 C 0.15907 0.20846 0.52885 0.0
C525 C 0.1778 0.18989 0.52761 0.0
C526 C 0.17763 0.15821 0.54549 0.0
C527 C 0.15819 0.14419 0.56017 0.0
C528 C 0.13934 0.16255 0.56048 0.0
C529 C 0.11966 0.16021 0.67828 0.0
C530 C 0.05551 0.23053 0.57077 0.0
C531 C 0.04799 0.2062 0.7354 0.0
C532 C 0.04408 0.19107 0.78288 0.0
C533 C 0.02966 0.16524 0.78583 0.0
C534 C 0.01986 0.15792 0.83 0.0
C535 C 0.02367 0.17759 0.87075 0.0
C536 C 0.04168 0.19815 0.87014 0.0
C537 C 0.05165 0.20533 0.82601 0.0
C538 C 0.0831 0.28424 0.65016 0.0
C539 C 0.11899 0.22422 0.76291 0.0
O540 O 0.1037 0.20271 0.56837 0.0
O541 O 0.12658 0.23719 0.59603 0.0
O542 O 0.13034 0.18596 0.66854 0.0
O543 O 0.09918 0.16631 0.67518 0.0
O544 O 0.06478 0.20987 0.60366 0.0
O545 O 0.06385 0.2087 0.60214 0.0
O546 O 0.05334 0.18759 0.6993 0.0
O547 O 0.05854 0.23328 0.7358 0.0
O548 O 0.06643 0.26567 0.64938 0.0
O549 O 0.09894 0.26825 0.66573 0.0
O550 O 0.09804 0.21973 0.76002 0.0
O551 O 0.12637 0.22653 0.71718 0.0
H552 H 0.15991 0.23361 0.51879 0.0
H553 H 0.19287 0.20114 0.51673 0.0
H554 H 0.15788 0.11987 0.57428 0.0
H555 H 0.12471 0.15169 0.57455 0.0
H556 H 0.02412 0.15316 0.75326 0.0
H557 H 1.00656 0.14094 0.8295 0.0
H558 H 0.04545 0.21279 0.90153 0.0
H559 H 0.06346 0.22456 0.82514 0.0
Nd560 Nd 0.68006 0.22766 0.58997 0.0
Nd561 Nd 0.7005 0.22256 0.55626 0.0
C562 C 0.66117 0.25241 0.66844 0.0
C563 C 0.64695 0.28021 0.67424 0.0
C564 C 0.64004 0.28961 0.72035 0.0
C565 C 0.62473 0.31406 0.72512 0.0
C566 C 0.61629 0.32986 0.68373 0.0
C567 C 0.62486 0.32203 0.63791 0.0
C568 C 0.63956 0.29684 0.63317 0.0
C569 C 0.66204 0.16721 0.57524 0.0
C570 C 0.72706 0.23413 0.66252 0.0
C571 C 0.73378 0.2088 0.49971 0.0
C572 C 0.74554 0.23043 0.46738 0.0
C573 C 0.76266 0.21902 0.43939 0.0
C574 C 0.77552 0.24064 0.41365 0.0
C575 C 0.77154 0.27395 0.41631 0.0
C576 C 0.75331 0.28499 0.44133 0.0
C577 C 0.74021 0.26324 0.46628 0.0
C578 C 0.70222 0.29094 0.57135 0.0
C579 C 0.6635 0.23155 0.47269 0.0
O580 O 0.68087 0.25891 0.65562 0.0
O581 O 0.65319 0.22885 0.64346 0.0
O582 O 0.65125 0.19363 0.57885 0.0
O583 O 0.68257 0.17348 0.57669 0.0
O584 O 0.71482 0.21343 0.63525 0.0
O585 O 0.71541 0.21255 0.63674 0.0
O586 O 0.71382 0.20369 0.48734 0.0
O587 O 0.73581 0.21479 0.54585 0.0
O588 O 0.71712 0.27041 0.58124 0.0
O589 O 0.68625 0.2752 0.55481 0.0
O590 O 0.68387 0.22316 0.47651 0.0
O591 O 0.6564 0.23813 0.51754 0.0
H592 H 0.64566 0.277 0.75244 0.0
H593 H 0.61845 0.31876 0.76107 0.0
H594 H 0.61929 0.33404 0.60529 0.0
H595 H 0.64478 0.28975 0.59719 0.0
H596 H 0.76675 0.19372 0.43946 0.0
H597 H 0.78976 0.23151 0.39538 0.0
H598 H 0.75007 0.31048 0.44425 0.0
H599 H 0.7266 0.27222 0.48678 0.0
Nd600 Nd 0.10289 0.47692 0.59067 0.0
Nd601 Nd 0.08232 0.48379 0.55739 0.0
C602 C 0.12407 0.44853 0.66307 0.0
C603 C 0.14052 0.4235 0.65692 0.0
C604 C 0.15183 0.4106 0.69646 0.0
C605 C 0.16948 0.39019 0.68833 0.0
C606 C 0.17596 0.38269 0.64057 0.0
C607 C 0.16352 0.39384 0.60146 0.0
C608 C 0.14612 0.41425 0.60962 0.0
C609 C 0.12063 0.53788 0.57786 0.0
C610 C 0.05567 0.46763 0.66407 0.0
C611 C 0.04791 0.49698 0.50341 0.0
C612 C 0.03294 0.47446 0.48062 0.0
C613 C 1.0129 0.48502 0.46349 0.0
C614 C 0.99748 0.46261 0.44882 0.0
C615 C 1.00188 0.42951 0.45209 0.0
C616 C 0.02238 0.41905 0.46649 0.0
C617 C 0.038 0.44154 0.47982 0.0
C618 C 0.08169 0.41495 0.56669 0.0
C619 C 0.11983 0.47757 0.4736 0.0
O620 O 0.12938 0.47635 0.64542 0.0
O621 O 0.10462 0.44044 0.65021 0.0
O622 O 0.1314 0.51133 0.57718 0.0
O623 O 0.10022 0.53161 0.58153 0.0
O624 O 0.06819 0.48898 0.63827 0.0
O625 O 0.06766 0.48978 0.63974 0.0
O626 O 0.06747 0.4961 0.48651 0.0
O627 O 0.04756 0.49738 0.55063 0.0
O628 O 0.06707 0.43459 0.58124 0.0
O629 O 0.09685 0.43183 0.54966 0.0
O630 O 0.10052 0.49033 0.47922 0.0
O631 O 0.12572 0.46606 0.5171 0.0
H632 H 0.14775 0.41754 0.73322 0.0
H633 H 0.17903 0.38234 0.71917 0.0
H634 H 0.16813 0.38847 0.56439 0.0
H635 H 0.13755 0.42388 0.57867 0.0
H636 H 1.00883 0.51033 0.46372 0.0
H637 H 0.98151 0.471 0.43856 0.0
H638 H 0.02592 0.39365 0.4697 0.0
H639 H 0.05368 0.43313 0.49166 0.0
Nd640 Nd 0.82795 0.96536 0.80588 0.0
Nd641 Nd 0.84818 0.97241 0.83923 0.0
C642 C 0.79588 0.94379 0.75095 0.0
C643 C 0.79228 0.94645 0.69851 0.0
C644 C 0.77976 0.92343 0.67467 0.0
C645 C 0.77404 0.92802 0.62615 0.0
C646 C 0.7807 0.95593 0.6009 0.0
C647 C 0.79591 0.97631 0.62311 0.0
C648 C 0.80124 0.97204 0.67194 0.0
C649 C 0.82696 0.0342 0.81623 0.0
C650 C 0.865 0.97532 0.72212 0.0
C651 C 0.8663 -0.00215 0.91828 0.0
C652 C 0.88085 0.02501 0.92569 0.0
C653 C 0.88828 0.03244 0.97224 0.0
C654 C 0.90448 0.05546 0.97824 0.0
C655 C 0.91326 0.07159 0.93763 0.0
C656 C 0.90388 0.06641 0.89171 0.0
C657 C 0.88828 0.04258 0.88564 0.0
C658 C 0.86747 0.91292 0.82389 0.0
C659 C 0.80064 0.98104 0.91069 0.0
O660 O 0.81232 0.92635 0.76362 0.0
O661 O 0.7948 0.97032 0.77558 0.0
O662 O 0.81213 0.01411 0.82931 0.0
O663 O 0.84238 0.01777 0.79906 0.0
O664 O 0.8451 0.9647 0.72654 0.0
O665 O 0.87159 -0.01592 0.76663 0.0
O666 O 0.87437 0.97383 0.89455 0.0
O667 O 0.84712 0.00518 0.90297 0.0
O668 O 0.87749 0.94014 0.82249 0.0
O669 O 0.84707 0.91815 0.83047 0.0
O670 O 0.81301 0.9596 0.88486 0.0
O671 O 0.81233 0.95872 0.88659 0.0
H672 H 0.77325 0.90303 0.69436 0.0
H673 H 0.7624 0.91151 0.61062 0.0
H674 H 0.8017 -0.0024 0.60451 0.0
H675 H 0.81128 -0.01013 0.68956 0.0
H676 H 0.88254 0.01909 1.00353 0.0
H677 H 0.91133 0.05838 1.01417 0.0
H678 H 0.90984 0.07885 0.85981 0.0
H679 H 0.88279 0.03667 0.84937 0.0
Nd680 Nd 0.45559 0.23664 0.80467 0.0
Nd681 Nd 0.43478 0.23071 0.83812 0.0
C682 C 0.48981 0.25825 0.75629 0.0
C683 C 0.50235 0.28836 0.75209 0.0
C684 C 0.51929 0.29478 0.78464 0.0
C685 C 0.53391 0.31947 0.77511 0.0
C686 C 0.53206 0.33814 0.73254 0.0
C687 C 0.51354 0.33427 0.70332 0.0
C688 C 0.49895 0.30933 0.71269 0.0
C689 C 0.45602 0.16775 0.81701 0.0
C690 C 0.41862 0.22774 0.72061 0.0
C691 C 0.41543 0.20402 0.91464 0.0
C692 C 0.40042 0.17687 0.91665 0.0
C693 C 0.39213 0.16615 0.96102 0.0
C694 C 0.37568 0.14309 0.96177 0.0
C695 C 0.36741 0.13036 0.91804 0.0
C696 C 0.37723 0.13927 0.87399 0.0
C697 C 0.3933 0.16277 0.8733 0.0
C698 C 0.41692 0.29139 0.82462 0.0
C699 C 0.48091 0.22358 0.91289 0.0
O700 O 0.49116 0.2424 0.7969 0.0
O701 O 0.47031 0.25816 0.7386 0.0
O702 O 0.47105 0.18762 0.82918 0.0
O703 O 0.44078 0.18447 0.79959 0.0
O704 O 0.43894 0.23679 0.72468 0.0
O705 O 0.41152 0.22043 0.76525 0.0
O706 O 0.40818 0.22926 0.89226 0.0
O707 O 0.43498 0.19708 0.90133 0.0
O708 O 0.40609 0.26486 0.82585 0.0
O709 O 0.4374 0.28503 0.82737 0.0
O710 O 0.46941 0.24436 0.88418 0.0
O711 O 0.47004 0.2454 0.88576 0.0
H712 H 0.52221 0.27936 0.81572 0.0
H713 H 0.54792 0.32144 0.79859 0.0
H714 H 0.51137 0.34865 0.67082 0.0
H715 H 0.48582 0.30525 0.68733 0.0
H716 H 0.39752 0.17681 0.99481 0.0
H717 H 0.36834 0.13725 0.99638 0.0
H718 H 0.3715 0.12969 0.83976 0.0
H719 H 0.39958 0.17091 0.83866 0.0
Nd720 Nd 0.82786 0.23053 0.93104 0.0
Nd721 Nd 0.8485 0.22854 0.89785 0.0
C722 C 0.79334 0.24421 0.98321 0.0
C723 C 0.78888 0.26366 1.02644 0.0
C724 C 0.77266 0.28689 1.02385 0.0
C725 C 0.76554 0.3019 1.06588 0.0
C726 C 0.77458 0.29401 1.11142 0.0
C727 C 0.79223 0.2729 1.11336 0.0
C728 C 0.79934 0.25776 1.07109 0.0
C729 C 0.82824 0.16315 0.9074 0.0
C730 C 0.86529 0.22586 1.01496 0.0
C731 C 0.87352 0.21575 0.82277 0.0
C732 C 0.89727 0.21455 0.82635 0.0
C733 C 0.90767 0.18471 0.82338 0.0
C734 C 0.92818 0.18054 0.84363 0.0
C735 C 0.93857 0.20601 0.86804 0.0
C736 C 0.92868 0.2364 0.86783 0.0
C737 C 0.90854 0.24078 0.84613 0.0
C738 C 0.86641 0.28656 0.9267 0.0
C739 C 0.80205 0.21774 0.82285 0.0
O740 O 0.79824 0.2597 0.94349 0.0
O741 O 0.80503 0.2186 0.98979 0.0
O742 O 0.81249 0.18283 0.90068 0.0
O743 O 0.84369 0.17898 0.92541 0.0
O744 O 0.84483 0.23397 1.01068 0.0
O745 O 0.87244 0.21907 0.97022 0.0
O746 O 0.86447 0.24364 0.82882 0.0
O747 O 0.86381 0.19361 0.84783 0.0
O748 O 0.87682 0.25974 0.92473 0.0
O749 O 0.84611 0.28096 0.91938 0.0
O750 O 0.81332 0.23879 0.85156 0.0
O751 O 0.81276 0.23952 0.8502 0.0
H752 H 0.76443 0.29183 0.98983 0.0
H753 H 0.75135 0.31703 1.0631 0.0
H754 H 0.79925 0.26609 1.14797 0.0
H755 H 0.81208 0.24005 1.07406 0.0
H756 H 0.89934 0.16409 0.80829 0.0
H757 H 0.93564 0.15711 0.84077 0.0
H758 H 0.93602 0.25674 0.88585 0.0
H759 H 0.90116 0.2643 0.84827 0.0
Nd760 Nd 0.45526 0.97027 0.93447 0.0
Nd761 Nd 0.43572 0.97005 0.89982 0.0
C762 C 0.48903 0.95692 0.99044 0.0
C763 C 0.49711 0.92927 1.0187 0.0
C764 C 0.50964 0.90579 0.99559 0.0
C765 C 0.52136 0.88368 1.02274 0.0
C766 C 0.52101 0.88458 1.07393 0.0
C767 C 0.50592 0.90501 1.09662 0.0
C768 C 0.49435 0.9276 1.06926 0.0
C769 C 0.45423 0.0374 0.90642 0.0
C770 C 0.41791 0.9751 1.01672 0.0
C771 C 0.4168 0.97285 0.8133 0.0
C772 C 0.40142 0.9507 0.79041 0.0
C773 C 0.38276 0.94083 0.81509 0.0
C774 C 0.36958 0.91709 0.79553 0.0
C775 C 0.37463 0.90285 0.75055 0.0
C776 C 0.39378 0.91193 0.72675 0.0
C777 C 0.40706 0.9357 0.74656 0.0
C778 C 0.41709 0.91209 0.92642 0.0
C779 C 0.48104 0.98212 0.82431 0.0
O780 O 0.48904 0.95373 0.94353 0.0
O781 O 0.47194 0.97191 1.00624 0.0
O782 O 0.47081 0.01876 0.90647 0.0
O783 O 0.43838 0.02108 0.92122 0.0
O784 O 0.43887 0.97074 1.01422 0.0
O785 O 0.41068 0.97816 0.97094 0.0
O786 O 0.43553 0.96008 0.82085 0.0
O787 O 0.41029 -0.0103 0.85034 0.0
O788 O 0.40666 0.93822 0.91815 0.0
O789 O 0.4377 0.91829 0.92516 0.0
O790 O 0.47268 0.96236 0.8593 0.0
O791 O 0.47389 0.96072 0.85786 0.0
H792 H 0.51181 0.90592 0.95654 0.0
H793 H 0.53246 0.86851 1.00299 0.0
H794 H 0.50442 0.90557 1.13578 0.0
H795 H 0.48433 0.94494 1.08798 0.0
H796 H 0.37818 0.95157 0.84934 0.0
H797 H 0.35468 0.91144 0.81441 0.0
H798 H 0.39797 0.9016 0.69194 0.0
H799 H 0.42176 0.9424 0.72765 0.0
Nd800 Nd 0.18613 0.97697 0.65526 0.0
Nd801 Nd 0.2069 0.97863 0.68792 0.0
C802 C 0.16065 0.96574 0.58037 0.0
C803 C 0.13693 0.96864 0.5831 0.0
C804 C 0.12443 0.94062 0.58728 0.0
C805 C 0.10377 0.94192 0.60736 0.0
C806 C 0.09517 0.97129 0.6236 0.0
C807 C 0.10692 -0.00035 0.61531 0.0
C808 C 0.1275 -0.00161 0.59481 0.0
C809 C 0.16861 0.03507 0.68445 0.0
C810 C 0.23083 0.96661 0.57633 0.0
C811 C 0.24431 -0.01631 0.73287 0.0
C812 C 0.26285 0.96217 0.72581 0.0
C813 C 0.27282 0.94784 0.766 0.0
C814 C 0.28835 0.92396 0.75929 0.0
C815 C 0.29392 0.91353 0.71216 0.0
C816 C 0.28336 0.92736 0.67212 0.0
C817 C 0.26832 0.95177 0.67888 0.0
C818 C 0.20622 0.91131 0.66338 0.0
C819 C 0.16971 0.97441 0.77247 0.0
O820 O 0.17171 -0.00781 0.58464 0.0
O821 O 0.16865 0.94293 0.60721 0.0
O822 O 0.15799 0.00848 0.68113 0.0
O823 O 0.18898 0.02936 0.67808 0.0
O824 O 0.22087 -0.01279 0.60783 0.0
O825 O 0.22149 -0.01173 0.60648 0.0
O826 O 0.22754 0.96991 0.75251 0.0
O827 O 0.2391 0.00203 0.69616 0.0
O828 O 0.22167 0.93118 0.65564 0.0
O829 O 0.19095 0.92705 0.68206 0.0
O830 O 0.19016 -0.01713 0.76793 0.0
O831 O 0.16249 0.96733 0.72785 0.0
H832 H 0.13124 0.9174 0.57832 0.0
H833 H 0.09471 0.91975 0.61093 0.0
H834 H 0.10063 0.02274 0.62641 0.0
H835 H 0.1366 0.02055 0.59176 0.0
H836 H 0.26854 0.95506 0.80254 0.0
H837 H 0.29655 0.91464 0.79112 0.0
H838 H 0.28713 0.91996 0.63541 0.0
H839 H 0.26079 0.96222 0.64722 0.0
Nd840 Nd 0.6027 0.72682 0.65432 0.0
Nd841 Nd 0.58195 0.72186 0.68593 0.0
C842 C 0.62337 0.75152 0.57795 0.0
C843 C 0.63763 0.77947 0.57422 0.0
C844 C 0.6457 0.78931 0.52922 0.0
C845 C 0.6611 0.81385 0.5268 0.0
C846 C 0.66845 0.82927 0.56944 0.0
C847 C 0.65875 0.82095 0.61396 0.0
C848 C 0.64397 0.79568 0.61643 0.0
C849 C 0.62086 0.66644 0.66967 0.0
C850 C 0.55765 0.7345 0.57553 0.0
C851 C 0.54458 0.7138 0.73007 0.0
C852 C 0.52568 0.73484 0.72494 0.0
C853 C 0.51538 0.74674 0.76634 0.0
C854 C 0.49914 0.76981 0.76178 0.0
C855 C 0.49313 0.78172 0.71565 0.0
C856 C 0.504 0.7704 0.67444 0.0
C857 C 0.51988 0.74693 0.67902 0.0
C858 C 0.58099 0.79036 0.66849 0.0
C859 C 0.61795 0.72593 0.77241 0.0
O860 O 0.63078 0.72805 0.60414 0.0
O861 O 0.60333 0.75773 0.58796 0.0
O862 O 0.63155 0.69281 0.66393 0.0
O863 O 0.60031 0.67259 0.67025 0.0
O864 O 0.56867 0.7137 0.60536 0.0
O865 O 0.56809 0.71284 0.60385 0.0
O866 O 0.56115 0.72727 0.75095 0.0
O867 O 0.55004 0.69733 0.6918 0.0
O868 O 0.56679 0.76957 0.65554 0.0
O869 O 0.5964 0.7747 0.68769 0.0
O870 O 0.59874 0.71314 0.76502 0.0
O871 O 0.62434 0.73825 0.72968 0.0
H872 H 0.64092 0.77697 0.49629 0.0
H873 H 0.66829 0.81891 0.49179 0.0
H874 H 0.66346 0.83267 0.64741 0.0
H875 H 0.63783 0.78828 0.65157 0.0
H876 H 0.5199 0.73819 0.80216 0.0
H877 H 0.49072 0.77726 0.79433 0.0
H878 H 0.49979 0.779 0.63847 0.0
H879 H 0.5277 0.73844 0.64649 0.0
Nd880 Nd 0.1776 0.72959 0.60123 0.0
Nd881 Nd 0.2071 0.71422 0.55544 0.0
C882 C 0.15119 0.76041 0.66119 0.0
C883 C 0.13482 0.78523 0.65339 0.0
C884 C 0.13108 0.79775 0.60675 0.0
C885 C 0.11417 0.81939 0.59875 0.0
C886 C 0.10034 0.82808 0.63708 0.0
C887 C 0.10523 0.8169 0.68438 0.0
C888 C 0.12235 0.79578 0.69237 0.0
C889 C 0.16598 0.66609 0.58254 0.0
C890 C 0.22707 0.71743 0.66556 0.0
C891 C 0.23476 0.69668 0.48755 0.0
C892 C 0.24545 0.71816 0.4532 0.0
C893 C 0.26333 0.70769 0.42673 0.0
C894 C 0.27699 0.73023 0.40509 0.0
C895 C 0.27305 0.76336 0.41086 0.0
C896 C 0.25367 0.77344 0.43227 0.0
C897 C 0.23987 0.75087 0.45324 0.0
C898 C 0.20849 0.78202 0.57357 0.0
C899 C 0.16573 0.72853 0.47903 0.0
O900 O 0.1469 0.73231 0.64309 0.0
O901 O 0.17097 0.7692 0.65276 0.0
O902 O 0.15378 0.69104 0.57834 0.0
O903 O 0.18552 0.6749 0.59402 0.0
O904 O 0.20664 0.72931 0.66664 0.0
O905 O 0.2312 0.70434 0.62267 0.0
O906 O 0.21392 0.69437 0.48231 0.0
O907 O 0.24034 0.70102 0.5327 0.0
O908 O 0.22367 0.76174 0.58293 0.0
O909 O 0.19305 0.76637 0.5553 0.0
O910 O 0.18535 0.7159 0.48242 0.0
O911 O 0.15867 0.73923 0.52246 0.0
H912 H 0.14075 0.78991 0.57623 0.0
H913 H 0.11121 0.8278 0.56209 0.0
H914 H 0.09491 0.82233 0.71501 0.0
H915 H 0.12517 0.78647 0.72864 0.0
H916 H 0.26775 0.68251 0.42634 0.0
H917 H 0.29197 0.72181 0.3892 0.0
H918 H 0.25039 0.79877 0.43732 0.0
H919 H 0.22593 0.75922 0.4734 0.0
Nd920 Nd 0.60667 0.97675 0.59786 0.0
Nd921 Nd 0.57528 -0.01243 0.55243 0.0
C922 C 0.64009 0.96016 0.65104 0.0
C923 C 0.66254 0.96567 0.63547 0.0
C924 C 0.67589 0.9392 0.62643 0.0
C925 C 0.69477 0.9429 0.59931 0.0
C926 C 0.70057 0.97313 0.58001 0.0
C927 C 0.68745 -0.00025 0.59034 0.0
C928 C 0.66883 -0.00386 0.61832 0.0
C929 C 0.61549 0.03936 0.56808 0.0
C930 C 0.55694 -0.01671 0.66391 0.0
C931 C 0.54616 0.00885 0.4903 0.0
C932 C 0.54486 0.01994 0.43971 0.0
C933 C 0.53197 0.04662 0.4292 0.0
C934 C 0.52325 0.0502 0.38284 0.0
C935 C 0.52662 0.02621 0.34761 0.0
C936 C 0.54395 0.00482 0.35475 0.0
C937 C 0.55261 0.00097 0.40131 0.0
C938 C 0.5758 0.92131 0.58152 0.0
C939 C 0.61659 0.97654 0.47427 0.0
O940 O 0.62854 -0.01442 0.66077 0.0
O941 O 0.6297 0.93986 0.62374 0.0
O942 O 0.62738 0.01465 0.55998 0.0
O943 O 0.59707 0.02961 0.5853 0.0
O944 O 0.57795 0.97326 0.6646 0.0
O945 O 0.55168 -0.00532 0.62055 0.0
O946 O 0.55575 0.02758 0.52159 0.0
O947 O 0.55025 0.97844 0.49719 0.0
O948 O 0.5598 0.94099 0.5874 0.0
O949 O 0.59078 0.93651 0.56046 0.0
O950 O 0.59602 -0.01469 0.47782 0.0
O951 O 0.62517 0.96955 0.51815 0.0
H952 H 0.67127 0.9154 0.63868 0.0
H953 H 0.70492 0.92202 0.59408 0.0
H954 H 0.69147 0.0234 0.57664 0.0
H955 H 0.65887 0.01708 0.62465 0.0
H956 H 0.52641 0.06227 0.45801 0.0
H957 H 0.51075 0.06801 0.37826 0.0
H958 H 0.54781 -0.01292 0.32736 0.0
H959 H 0.56327 0.98085 0.40822 0.0
Nd960 Nd 0.82697 0.47306 0.30575 0.0
Nd961 Nd 0.84607 0.47169 0.34074 0.0
C962 C 0.79389 0.46399 0.24672 0.0
C963 C 0.78985 0.44765 1.20037 0.0
C964 C 0.772 0.42724 1.19699 0.0
C965 C 0.76528 0.41611 1.15192 0.0
C966 C 0.77655 0.42462 1.10928 0.0
C967 C 0.7955 0.44294 1.11313 0.0
C968 C 0.80208 0.45452 1.1584 0.0
C969 C 0.82764 0.5391 0.33755 0.0
C970 C 0.8653 0.47685 1.22452 0.0
C971 C 0.86456 0.47115 0.42782 0.0
C972 C 0.88123 0.44942 0.44683 0.0
C973 C 0.89819 0.46161 0.47485 0.0
C974 C 0.91627 0.44257 0.48416 0.0
C975 C 0.91768 0.41141 0.46467 0.0
C976 C 0.89996 0.39828 0.4402 0.0
C977 C 0.88165 0.41702 0.43208 0.0
C978 C 0.86508 0.41493 0.31108 0.0
C979 C 0.80124 0.48245 0.41746 0.0
O980 O 0.79735 0.44588 0.28474 0.0
O981 O 0.80637 0.48919 0.24515 0.0
O982 O 0.81127 0.51997 0.33795 0.0
O983 O 0.84367 0.52345 0.3219 0.0
O984 O 0.84426 0.47318 1.22659 0.0
O985 O 0.87212 0.47959 0.27071 0.0
O986 O 0.84623 0.45744 0.41835 0.0
O987 O 0.87052 0.49065 0.3932 0.0
O988 O 0.87545 0.44074 0.32201 0.0
O989 O 0.84447 0.42097 0.31157 0.0
O990 O 0.80867 0.46408 0.37976 0.0
O991 O 0.8073 0.46244 0.38112 0.0
H992 H 0.76225 0.42191 1.22872 0.0
H993 H 0.74985 0.40385 1.15012 0.0
H994 H 0.80405 0.45065 1.08078 0.0
H995 H 0.81584 0.47053 1.15978 0.0
H996 H 0.89809 0.48641 0.48673 0.0
H997 H 0.93002 0.45331 0.50245 0.0
H998 H 0.9009 0.37448 0.42449 0.0
H999 H 0.86846 0.40677 0.4114 0.0
Nd1000 Nd 0.45528 0.73122 0.30693 0.0
Nd1001 Nd 0.4354 0.73167 0.34201 0.0
C1002 C 0.48834 0.74295 0.24906 0.0
C1003 C 0.49093 0.75238 1.19784 0.0
C1004 C 0.50563 0.77669 1.18596 0.0
C1005 C 0.51448 0.77782 1.13941 0.0
C1006 C 0.50953 0.75335 1.1058 0.0
C1007 C 0.49105 0.73453 1.11396 0.0
C1008 C 0.48203 0.73352 1.16036 0.0
C1009 C 0.45462 0.66513 0.33744 0.0
C1010 C 0.41711 0.72532 1.2254 0.0
C1011 C 0.41495 0.73026 0.42648 0.0
C1012 C 0.39627 0.74982 0.44089 0.0
C1013 C 0.37767 0.73469 0.4586 0.0
C1014 C 0.35807 0.75119 0.45896 0.0
C1015 C 0.3569 0.78282 0.44114 0.0
C1016 C 0.37577 0.79898 0.4278 0.0
C1017 C 0.39546 0.78268 0.42828 0.0
C1018 C 0.41709 0.78861 0.31086 0.0
C1019 C 0.48172 0.71999 0.4161 0.0
O1020 O 0.48104 0.7643 0.27945 0.0
O1021 O 0.48039 0.71446 0.25662 0.0
O1022 O 0.47104 0.6842 0.33847 0.0
O1023 O 0.43863 0.68067 0.32127 0.0
O1024 O 0.43811 0.72942 1.22771 0.0
O1025 O 0.41 0.72295 0.27135 0.0
O1026 O 0.43277 0.74605 0.41939 0.0
O1027 O 0.41132 0.70948 0.39211 0.0
O1028 O 0.40647 0.76266 0.31975 0.0
O1029 O 0.43758 0.78268 0.31397 0.0
O1030 O 0.4722 0.74025 0.38303 0.0
O1031 O 0.47314 0.74151 0.38452 0.0
H1032 H 0.51218 0.79223 1.21388 0.0
H1033 H 0.52813 0.79371 1.1336 0.0
H1034 H 0.48641 0.71623 1.08801 0.0
H1035 H 0.47007 0.71519 1.16802 0.0
H1036 H 0.37793 0.70946 0.46837 0.0
H1037 H 0.34347 0.73834 0.46896 0.0
H1038 H 0.37505 0.82334 0.41397 0.0
H1039 H 0.40966 0.79511 0.41493 0.0
Nd1040 Nd 0.82492 0.73626 0.44829 0.0
Nd1041 Nd 0.8548 0.72248 0.40076 0.0
C1042 C 0.79924 0.76413 0.51244 0.0
C1043 C 0.78525 0.79251 0.51583 0.0
C1044 C 0.76943 0.79885 0.48061 0.0
C1045 C 0.75396 0.82255 0.48878 0.0
C1046 C 0.75405 0.84031 0.53236 0.0
C1047 C 0.77166 0.83667 0.56436 0.0
C1048 C 0.787 0.81266 0.55639 0.0
C1049 C 0.8239 0.66882 0.42733 0.0
C1050 C 0.86702 0.72241 0.52342 0.0
C1051 C 0.88201 0.69973 0.33528 0.0
C1052 C 0.88368 0.68053 0.29055 0.0
C1053 C 0.89594 0.6523 0.29173 0.0
C1054 C 0.9042 0.63953 0.24888 0.0
C1055 C 0.90057 0.65515 1.20409 0.0
C1056 C 0.88512 0.67996 1.20235 0.0
C1057 C 0.87693 0.69288 0.24541 0.0
C1058 C 0.86594 0.78516 0.42488 0.0
C1059 C 0.80407 0.73065 0.339 0.0
O1060 O 0.793 0.74066 0.48432 0.0
O1061 O 0.81989 0.76986 0.50949 0.0
O1062 O 0.80793 0.68858 0.42174 0.0
O1063 O 0.83952 0.6845 0.44465 0.0
O1064 O 0.84591 0.7282 0.52176 0.0
O1065 O 0.87534 0.71787 0.47859 0.0
O1066 O 0.87761 0.68482 0.37578 0.0
O1067 O 0.87309 0.72803 0.33234 0.0
O1068 O 0.87788 0.76009 0.43048 0.0
O1069 O 0.84675 0.77626 0.4108 0.0
O1070 O 0.82424 0.71757 0.33859 0.0
O1071 O 0.80066 0.74564 0.38085 0.0
H1072 H 0.76814 0.78419 0.44828 0.0
H1073 H 0.74075 0.82447 0.46308 0.0
H1074 H 0.77254 0.85043 0.59765 0.0
H1075 H 0.79951 0.80864 0.58335 0.0
H1076 H 0.90107 0.64201 0.32607 0.0
H1077 H 0.91577 0.62013 0.25216 0.0
H1078 H 0.88137 0.69185 1.16832 0.0
H1079 H 0.86698 0.71424 1.24333 0.0
Nd1080 Nd 0.457 0.46699 0.43758 0.0
Nd1081 Nd 0.43653 0.47417 0.40344 0.0
C1082 C 0.4889 0.44596 0.49354 0.0
C1083 C 0.49234 0.4489 0.54602 0.0
C1084 C 0.50424 0.42549 0.57066 0.0
C1085 C 0.50943 0.42975 0.61951 0.0
C1086 C 0.50289 0.45776 0.64445 0.0
C1087 C 0.48841 0.47881 0.62112 0.0
C1088 C 0.48356 0.4748 0.57198 0.0
C1089 C 0.45798 0.53556 0.42623 0.0
C1090 C 0.41949 0.47731 0.52012 0.0
C1091 C 0.41781 0.50165 0.32667 0.0
C1092 C 0.40261 0.52851 0.32554 0.0
C1093 C 0.39367 0.5392 0.28177 0.0
C1094 C 0.37707 0.56198 0.28222 0.0
C1095 C 0.36935 0.57451 0.32656 0.0
C1096 C 0.37991 0.56577 0.36985 0.0
C1097 C 0.39602 0.54241 0.36939 0.0
C1098 C 0.4172 0.41489 0.41841 0.0
C1099 C 0.48228 0.48039 0.3279 0.0
O1100 O 0.47251 0.42836 0.48102 0.0
O1101 O 0.49008 0.47232 0.46826 0.0
O1102 O 0.47244 0.51549 0.41118 0.0
O1103 O 0.44284 0.51906 0.44466 0.0
O1104 O 0.43966 0.46775 0.51664 0.0
O1105 O 0.41273 0.4848 0.47526 0.0
O1106 O 0.41063 0.47575 0.34736 0.0
O1107 O 0.43713 0.50875 0.34143 0.0
O1108 O 0.40707 0.44199 0.41814 0.0
O1109 O 0.4377 0.41999 0.41355 0.0
O1110 O 0.47163 0.46007 0.35902 0.0
O1111 O 0.47248 0.45864 0.35721 0.0
H1112 H 0.51057 0.40485 0.55146 0.0
H1113 H 0.52049 0.41265 0.63576 0.0
H1114 H 0.48265 0.50017 0.63938 0.0
H1115 H 0.47392 0.49288 0.55376 0.0
H1116 H 0.39865 0.52869 0.24761 0.0
H1117 H 0.36919 0.56767 0.24813 0.0
H1118 H 0.37467 0.57523 0.4045 0.0
H1119 H 0.40272 0.53416 0.40356 0.0
Nd1120 Nd 0.19064 0.48351 1.15416 0.0
Nd1121 Nd 0.20959 0.4831 1.18849 0.0
C1122 C 0.17198 0.47774 1.0678 0.0
C1123 C 0.15511 0.49707 1.0446 0.0
C1124 C 0.13631 0.50515 1.07012 0.0
C1125 C 0.12152 0.5265 1.0501 0.0
C1126 C 0.1251 0.54007 1.00388 0.0
C1127 C 0.14426 0.53268 0.97896 0.0
C1128 C 0.15918 0.51134 0.99926 0.0
C1129 C 0.17242 0.5421 1.17561 0.0
C1130 C 0.23579 0.47316 1.07855 0.0
C1131 C 0.24246 0.4987 0.24584 0.0
C1132 C 0.25467 0.52811 0.25773 0.0
C1133 C 0.27027 0.54023 1.22554 0.0
C1134 C 0.28442 0.56433 1.24039 0.0
C1135 C 0.28334 0.57678 0.28787 0.0
C1136 C 0.26602 0.56732 0.31785 0.0
C1137 C 0.25197 0.54288 0.30312 0.0
C1138 C 0.2082 0.41611 1.16151 0.0
C1139 C 0.17211 0.47674 0.27077 0.0
O1140 O 0.18973 0.49346 1.07514 0.0
O1141 O 0.16661 0.46018 1.10516 0.0
O1142 O 0.16169 0.51595 1.16923 0.0
O1143 O 0.19294 0.53554 1.17549 0.0
O1144 O 0.22758 0.49233 1.11429 0.0
O1145 O 0.2288 0.49402 1.11291 0.0
O1146 O 0.24489 0.48689 1.20254 0.0
O1147 O 0.22253 0.4972 0.26068 0.0
O1148 O 0.22481 0.43477 1.15979 0.0
O1149 O 0.19267 0.43254 1.17745 0.0
O1150 O 0.19328 0.47482 0.26793 0.0
O1151 O 0.16485 0.47994 1.22508 0.0
H1152 H 0.1329 0.49487 1.10547 0.0
H1153 H 0.10666 0.53082 1.06983 0.0
H1154 H 0.14732 0.54252 0.94314 0.0
H1155 H 0.17392 0.50598 0.97962 0.0
H1156 H 0.27254 0.52974 1.18993 0.0
H1157 H 0.2975 0.57068 1.21609 0.0
H1158 H 0.26442 0.57687 0.35423 0.0
H1159 H 0.2398 0.53434 0.32834 0.0
Nd1160 Nd 0.60429 0.23336 1.14444 0.0
Nd1161 Nd 0.57297 0.21703 1.18924 0.0
C1162 C 0.63571 0.26163 1.09522 0.0
C1163 C 0.65669 0.27134 1.11537 0.0
C1164 C 0.66837 0.29675 1.09495 0.0
C1165 C 0.6875 0.30726 1.11702 0.0
C1166 C 0.69496 0.29292 1.16052 0.0
C1167 C 0.68246 0.26864 1.182 0.0
C1168 C 0.66378 0.25764 1.15922 0.0
C1169 C 0.61535 0.16979 1.16766 0.0
C1170 C 0.55495 0.22438 1.07715 0.0
C1171 C 0.54415 0.18894 0.24556 0.0
C1172 C 0.54203 0.16935 0.28974 0.0
C1173 C 0.52763 0.14343 0.28874 0.0
C1174 C 0.51819 0.13272 0.33172 0.0
C1175 C 0.52257 0.14879 0.37565 0.0
C1176 C 0.54098 0.16871 0.37773 0.0
C1177 C 0.55033 0.17976 0.33457 0.0
C1178 C 0.57046 0.28429 1.1662 0.0
C1179 C 0.61364 0.2307 0.2683 0.0
O1180 O 0.63197 0.23086 1.0927 0.0
O1181 O 0.61949 0.27702 1.11372 0.0
O1182 O 0.62694 0.19495 1.17575 0.0
O1183 O 0.59646 0.17904 1.15227 0.0
O1184 O 0.57601 0.23424 1.07659 0.0
O1185 O 0.54947 0.21296 1.12034 0.0
O1186 O 0.55216 0.17516 1.20705 0.0
O1187 O 0.55013 0.21885 0.25064 0.0
O1188 O 0.55542 0.26326 1.15824 0.0
O1189 O 0.58604 0.26963 1.1862 0.0
O1190 O 0.59401 0.21799 0.26376 0.0
O1191 O 0.62132 0.24148 1.22545 0.0
H1192 H 0.66288 0.30815 1.06172 0.0
H1193 H 0.69692 0.32554 1.09861 0.0
H1194 H 0.68753 0.25722 1.21553 0.0
H1195 H 0.65501 0.2382 1.17593 0.0
H1196 H 0.52153 0.13435 0.25448 0.0
H1197 H 0.50459 0.11647 0.32852 0.0
H1198 H 0.5454 0.18039 0.41145 0.0
H1199 H 0.56212 0.19899 0.33626 0.0
Nd1200 Nd 0.18462 0.22636 1.08548 0.0
Nd1201 Nd 0.20599 0.21955 1.05354 0.0
C1202 C 0.16316 0.25346 1.15833 0.0
C1203 C 0.14704 0.2791 1.15524 0.0
C1204 C 0.13703 0.29098 1.19696 0.0
C1205 C 0.11968 0.31234 1.19259 0.0
C1206 C 0.11218 0.32198 1.14637 0.0
C1207 C 0.12355 0.312 1.10496 0.0
C1208 C 0.14067 0.29046 1.10938 0.0
C1209 C 0.16649 0.16607 1.06908 0.0
C1210 C 0.23095 0.23445 1.16085 0.0
C1211 C 0.24118 0.19862 1.00809 0.0
C1212 C 0.25235 0.16842 0.99569 0.0
C1213 C 0.26835 0.15631 1.02693 0.0
C1214 C 0.28277 0.13303 1.01076 0.0
C1215 C 0.28164 0.12152 0.96276 0.0
C1216 C 0.26377 0.13043 0.93395 0.0
C1217 C 0.2494 0.15403 0.95004 0.0
C1218 C 0.20764 0.28844 1.06509 0.0
C1219 C 0.16953 0.22667 0.96733 0.0
O1220 O 0.15748 0.22656 1.13837 0.0
O1221 O 0.18263 0.26168 1.14607 0.0
O1222 O 0.15608 0.19295 1.06757 0.0
O1223 O 0.18688 0.17186 1.0756 0.0
O1224 O 0.21822 0.21326 1.13559 0.0
O1225 O 0.21865 0.2127 1.13692 0.0
O1226 O 0.24082 0.20678 1.05352 0.0
O1227 O 0.22316 0.20533 0.98591 0.0
O1228 O 0.22237 0.26806 1.07668 0.0
O1229 O 0.19209 0.27236 1.04774 0.0
O1230 O 0.18929 0.21551 0.97348 0.0
O1231 O 0.16259 0.23683 1.01073 0.0
H1232 H 0.14184 0.2825 1.23261 0.0
H1233 H 0.11108 0.31915 1.22524 0.0
H1234 H 0.11827 0.31914 1.06898 0.0
H1235 H 0.1484 0.28163 1.07676 0.0
H1236 H 0.27094 0.16665 1.06256 0.0
H1237 H 0.29621 0.127 1.03433 0.0
H1238 H 0.26206 0.12144 0.89725 0.0
H1239 H 0.23698 0.16257 0.92538 0.0
Nd1240 Nd 0.6054 0.46972 1.09522 0.0
Nd1241 Nd 0.57427 0.48283 1.05054 0.0
C1242 C 0.63822 0.44721 1.1462 0.0
C1243 C 0.66046 0.44424 1.12794 0.0
C1244 C 0.6714 0.41498 1.13241 0.0
C1245 C 0.69029 0.40947 1.10589 0.0
C1246 C 0.69831 0.43273 1.07297 0.0
C1247 C 0.68691 0.46178 1.06824 0.0
C1248 C 0.66873 0.46778 1.0965 0.0
C1249 C 0.61587 0.53247 1.066 0.0
C1250 C 0.55619 0.47827 1.16268 0.0
C1251 C 0.5454 0.50647 0.9898 0.0
C1252 C 0.54453 0.52726 0.94648 0.0
C1253 C 0.53279 0.55589 0.94899 0.0
C1254 C 0.52659 0.57166 0.9066 0.0
C1255 C 0.53154 0.55849 0.86073 0.0
C1256 C 0.5467 0.53328 0.85881 0.0
C1257 C 0.55285 0.51734 0.90143 0.0
C1258 C 0.57195 0.41628 1.07849 0.0
C1259 C 0.61548 0.471 0.97207 0.0
O1260 O 0.63066 0.47618 1.15242 0.0
O1261 O 0.62462 0.42898 1.12319 0.0
O1262 O 0.62707 0.50705 1.058 0.0
O1263 O 0.59723 0.52357 1.08322 0.0
O1264 O 0.57724 0.46844 1.16325 0.0
O1265 O 0.55073 0.48915 1.11911 0.0
O1266 O 0.55036 0.52025 1.03091 0.0
O1267 O 0.55386 0.47792 0.98499 0.0
O1268 O 0.55671 0.43725 1.08361 0.0
O1269 O 0.58771 0.43039 1.05826 0.0
O1270 O 0.5955 0.48241 0.97622 0.0
O1271 O 0.6234 0.4614 1.01538 0.0
H1272 H 0.66508 0.39613 1.15566 0.0
H1273 H 0.69867 0.3871 1.11216 0.0
H1274 H 0.69197 0.48027 1.04306 0.0
H1275 H 0.66087 0.4907 1.09269 0.0
H1276 H 0.52668 0.5645 0.98346 0.0
H1277 H 0.51541 0.59148 0.91043 0.0
H1278 H 0.55167 0.52333 0.82425 0.0
H1279 H 0.56261 0.49584 0.89859 0.0
C1280 C 0.38204 0.82177 0.30728 0.0
C1281 C 0.40509 0.82101 0.30649 0.0
H1282 H 0.35247 0.84979 0.30873 0.0
C1283 C 0.41544 0.85115 0.30398 0.0
H1284 H 0.37312 0.79943 0.30912 0.0
C1285 C 0.40335 0.88035 0.30299 0.0
C1286 C 0.3803 0.88112 0.30501 0.0
H1287 H 0.43294 0.85229 0.30338 0.0
H1288 H 0.41229 0.9027 0.30137 0.0
C1289 C 0.36996 0.85096 0.30696 0.0
C1290 C 0.90056 0.38228 0.30952 0.0
C1291 C 0.87748 0.38263 0.30693 0.0
H1292 H 0.93046 0.35494 0.312 0.0
C1293 C 0.86758 0.3522 0.30306 0.0
H1294 H 0.90924 0.40477 0.3128 0.0
C1295 C 0.88006 0.32328 0.3022 0.0
C1296 C 0.90313 0.32293 0.3055 0.0
H1297 H 0.85011 0.35058 0.3014 0.0
H1298 H 0.87138 0.30073 0.29976 0.0
C1299 C 0.91303 0.35336 0.30896 0.0
C1300 C 0.41498 0.35262 0.42457 0.0
C1301 C 0.40482 0.38273 0.41952 0.0
H1302 H 0.41155 0.30126 0.43072 0.0
C1303 C 0.38181 0.38217 0.41644 0.0
H1304 H 0.43243 0.35141 0.42732 0.0
C1305 C 0.36959 0.35308 0.41796 0.0
C1306 C 0.37976 0.32298 0.42331 0.0
H1307 H 0.37305 0.40454 0.41261 0.0
H1308 H 0.35214 0.35427 0.41507 0.0
C1309 C 0.40276 0.32359 0.42667 0.0
C1310 C 0.90014 0.82024 0.42831 0.0
C1311 C 0.87714 0.81851 0.42401 0.0
H1312 H 0.9293 0.84914 0.4313 0.0
C1313 C 0.86644 0.84835 0.42032 0.0
H1314 H 0.90946 0.79832 0.43143 0.0
C1315 C 0.87818 0.87803 0.42121 0.0
C1316 C 0.90121 0.87955 0.42491 0.0
H1317 H 0.84898 0.84892 0.41721 0.0
H1318 H 0.86904 0.90013 0.41866 0.0
C1319 C 0.91183 0.84976 0.42841 0.0
C1320 C 0.62745 0.07668 1.15768 0.0
C1321 C 0.65042 0.07449 1.16286 0.0
H1322 H 0.5985 0.10638 1.15424 0.0
C1323 C 0.66114 0.10418 1.16886 0.0
H1324 H 0.61814 0.05487 1.15301 0.0
C1325 C 0.64962 0.134 1.1702 0.0
C1326 C 0.62666 0.1363 1.16494 0.0
H1327 H 0.67855 0.10446 1.17322 0.0
H1328 H 0.65901 0.15569 1.17544 0.0
C1329 C 0.61592 0.10663 1.15833 0.0
C1330 C 0.15802 0.63419 1.18068 0.0
C1331 C 0.1351 0.6347 1.17435 0.0
H1332 H 0.18771 0.60638 1.1861 0.0
C1333 C 0.12518 0.60441 1.16897 0.0
H1334 H 0.16665 0.65665 1.18497 0.0
C1335 C 0.13744 0.57539 1.16991 0.0
C1336 C 0.16036 0.57475 1.17607 0.0
H1337 H 0.10783 0.60302 1.16389 0.0
H1338 H 0.12869 0.55304 1.1654 0.0
C1339 C 0.17034 0.60506 1.1814 0.0
C1340 C 0.6628 0.59658 1.06338 0.0
C1341 C 0.65256 0.62673 1.06754 0.0
H1342 H 0.65983 0.54511 1.05885 0.0
C1343 C 0.6295 0.62537 1.07119 0.0
H1344 H 0.68025 0.59559 1.06036 0.0
C1345 C 0.61744 0.59585 1.07168 0.0
C1346 C 0.62771 0.56568 1.06736 0.0
H1347 H 0.62052 0.64755 1.07371 0.0
H1348 H 0.6 0.59682 1.07478 0.0
C1349 C 0.65075 0.56715 1.06276 0.0
C1350 C 0.1313 0.13232 1.06467 0.0
C1351 C 0.15431 0.13347 1.06903 0.0
H1352 H 0.10183 0.1038 1.06184 0.0
C1353 C 0.16462 0.10342 1.07378 0.0
H1354 H 0.12235 0.15454 1.06098 0.0
C1355 C 0.15263 0.07406 1.07406 0.0
C1356 C 0.12963 0.07284 1.06982 0.0
H1357 H 0.18205 0.10248 1.07742 0.0
H1358 H 0.16165 0.05191 1.07794 0.0
C1359 C 0.11928 0.1029 1.06516 0.0
C1360 C 0.38244 0.32655 0.83166 0.0
C1361 C 0.40532 0.32444 0.82534 0.0
H1362 H 0.35362 0.35631 0.83677 0.0
C1363 C 0.41609 0.35401 0.81902 0.0
H1364 H 0.37315 0.30473 0.83664 0.0
C1365 C 0.40465 0.38381 0.81852 0.0
C1366 C 0.38179 0.38606 0.82497 0.0
H1367 H 0.43346 0.35422 0.81384 0.0
H1368 H 0.41402 0.40551 0.81302 0.0
C1369 C 0.37099 0.35648 0.83181 0.0
C1370 C 0.87003 0.85038 0.82797 0.0
C1371 C 0.87995 0.88068 0.82242 0.0
H1372 H 0.87361 0.79896 0.83186 0.0
C1373 C 0.90283 0.88015 0.81562 0.0
H1374 H 0.8527 0.849 0.83337 0.0
C1375 C 0.91512 0.85105 0.81466 0.0
C1376 C 0.90518 0.82075 0.82041 0.0
H1377 H 0.91146 0.90261 0.81111 0.0
H1378 H 0.93247 0.8524 0.80965 0.0
C1379 C 0.88229 0.82134 0.82702 0.0
C1380 C 0.41441 0.84904 0.93099 0.0
C1381 C 0.40461 0.87964 0.9297 0.0
H1382 H 0.41045 0.79751 0.93201 0.0
C1383 C 0.38148 0.87939 0.92933 0.0
H1384 H 0.43188 0.8473 0.9309 0.0
C1385 C 0.36889 0.85048 0.93002 0.0
C1386 C 0.37868 0.81989 0.93104 0.0
H1387 H 0.37283 0.90198 0.928 0.0
H1388 H 0.35142 0.85223 0.92913 0.0
C1389 C 0.40181 0.82012 0.93159 0.0
C1390 C 0.90166 0.31986 0.93125 0.0
C1391 C 0.87864 0.31904 0.92812 0.0
H1392 H 0.93129 0.34795 0.93226 0.0
C1393 C 0.86841 0.34922 0.9243 0.0
H1394 H 0.91053 0.29753 0.93417 0.0
C1395 C 0.88055 0.37845 0.9234 0.0
C1396 C 0.90358 0.37929 0.92597 0.0
H1397 H 0.85095 0.35036 0.92156 0.0
H1398 H 0.87166 0.40076 0.92022 0.0
C1399 C 0.91381 0.3491 0.93011 0.0
C1400 C 0.66642 0.60103 0.6578 0.0
C1401 C 0.65637 0.57211 0.67237 0.0
H1402 H 0.66357 0.65224 0.64596 0.0
C1403 C 0.63416 0.57495 0.68591 0.0
H1404 H 0.68326 0.60074 0.64702 0.0
C1405 C 0.62255 0.60455 0.68438 0.0
C1406 C 0.63257 0.63348 0.67014 0.0
H1407 H 0.62541 0.55384 0.69789 0.0
H1408 H 0.6057 0.60475 0.69511 0.0
C1409 C 0.65487 0.63089 0.65714 0.0
C1410 C 0.13344 0.06839 0.68813 0.0
C1411 C 0.1565 0.06758 0.68631 0.0
H1412 H 0.10382 0.09641 0.68684 0.0
C1413 C 0.16681 0.09777 0.68414 0.0
H1414 H 0.12453 0.04605 0.69026 0.0
C1415 C 0.1547 0.12696 0.68322 0.0
C1416 C 0.13164 0.12775 0.68357 0.0
H1417 H 0.1843 0.09895 0.68259 0.0
H1418 H 0.1636 0.14931 0.68133 0.0
C1419 C 0.12132 0.09759 0.68645 0.0
C1420 C 0.66061 0.10531 0.56121 0.0
C1421 C 0.65036 0.13422 0.5743 0.0
H1422 H 0.65793 0.05462 0.54766 0.0
C1423 C 0.62783 0.13163 0.58512 0.0
H1424 H 0.67764 0.10553 0.55206 0.0
C1425 C 0.61627 0.10178 0.58351 0.0
C1426 C 0.62654 0.07287 0.57006 0.0
H1427 H 0.61895 0.15298 0.59526 0.0
H1428 H 0.59923 0.10148 0.59265 0.0
C1429 C 0.649 0.07571 0.55869 0.0
C1430 C 0.16643 0.60302 0.58468 0.0
C1431 C 0.15522 0.63251 0.58292 0.0
H1432 H 0.16468 0.55115 0.5841 0.0
C1433 C 0.13223 0.63014 0.57984 0.0
H1434 H 0.18392 0.60305 0.5868 0.0
C1435 C 0.12103 0.60024 0.57863 0.0
C1436 C 0.13217 0.57079 0.5799 0.0
H1437 H 0.12257 0.65179 0.57826 0.0
H1438 H 0.10354 0.6003 0.57626 0.0
C1439 C 0.15517 0.57297 0.58298 0.0
C1440 C 0.27939 0.00263 0.48698 0.0
C1441 C 0.28741 0.97607 0.45795 0.0
H1442 H 0.2578 0.02287 0.54271 0.0
C1443 C 0.27568 0.94736 0.47001 0.0
H1444 H 0.28684 0.02587 0.48117 0.0
C1445 C 0.25827 0.94576 0.5067 0.0
C1446 C 0.25026 0.97232 0.53574 0.0
H1447 H 0.27985 0.92553 0.45093 0.0
H1448 H 0.2508 0.92253 0.51247 0.0
C1449 C 0.26198 0.00103 0.52368 0.0
C1450 C 0.02339 0.19758 0.51868 0.0
C1451 C 0.03565 0.22579 0.53076 0.0
H1452 H 0.99818 0.17378 0.47586 0.0
C1453 C 0.0282 0.25267 0.50135 0.0
H1454 H 0.02719 0.17554 0.53777 0.0
C1455 C 1.01079 0.25181 0.46447 0.0
C1456 C 0.99857 0.2236 0.4523 0.0
H1457 H 0.03615 0.27554 0.5069 0.0
H1458 H 1.00708 0.27382 0.44519 0.0
C1459 C 1.00603 0.1967 0.48166 0.0
C1460 C 0.25771 0.19964 1.22414 0.0
C1461 C 0.24926 0.2289 1.20404 0.0
H1462 H 0.27968 0.17464 0.27391 0.0
C1463 C 0.25998 0.25623 1.22639 0.0
H1464 H 0.25129 0.17718 1.21062 0.0
C1465 C 0.27695 0.25488 0.26419 0.0
C1466 C 0.28543 0.22565 0.28423 0.0
H1467 H 0.25512 0.27988 1.21414 0.0
H1468 H 0.28344 0.27734 0.27753 0.0
C1469 C 0.27473 0.19829 0.26187 0.0
C1470 C 1.00962 0.94833 0.27216 0.0
C1471 C 0.9974 0.97658 0.28372 0.0
H1472 H 0.03486 0.92439 1.22994 0.0
C1473 C 1.00476 0.00331 0.25392 0.0
H1474 H 1.00591 0.92645 0.29174 0.0
C1475 C 0.02209 0.00227 1.21705 0.0
C1476 C 0.03431 0.97401 1.20549 0.0
H1477 H 0.99683 0.0262 0.25921 0.0
H1478 H 0.0258 0.02415 1.19744 0.0
C1479 C 0.02694 0.94729 1.23525 0.0
C1480 C 0.75596 0.94695 1.01181 0.0
C1481 C 0.74531 0.97475 1.033 0.0
H1482 H 0.77945 0.92472 0.96191 0.0
C1483 C 0.75401 0.00353 1.0118 0.0
H1484 H 0.75093 0.92355 1.02482 0.0
C1485 C 0.77112 0.00406 0.97424 0.0
C1486 C 0.78177 0.97627 0.95303 0.0
H1487 H 0.74767 0.02629 1.0242 0.0
H1488 H 0.77618 0.02746 0.96131 0.0
C1489 C 0.77307 0.94748 0.97423 0.0
C1490 C 0.03065 0.75433 1.007 0.0
C1491 C 0.03947 0.72736 1.03405 0.0
H1492 H 1.00852 0.7749 0.95244 0.0
C1493 C 0.02887 0.69824 1.01962 0.0
H1494 H 0.03718 0.77788 1.01499 0.0
C1495 C 1.01165 0.69667 0.98251 0.0
C1496 C 1.0029 0.72364 0.9553 0.0
H1497 H 0.03364 0.67615 1.03745 0.0
H1498 H 1.00489 0.67319 0.97505 0.0
C1499 C 1.0135 0.75274 0.96974 0.0
C1500 C 0.74784 0.74523 0.26093 0.0
C1501 C 0.74692 0.72451 1.21893 0.0
H1502 H 0.76337 0.7633 0.32686 0.0
C1503 C 0.76651 0.70539 1.21731 0.0
H1504 H 0.73438 0.76145 0.26628 0.0
C1505 C 0.78445 0.70711 0.25366 0.0
C1506 C 0.78495 0.72797 0.29605 0.0
H1507 H 0.76845 0.68918 1.18697 0.0
H1508 H 0.79822 0.69154 0.24807 0.0
C1509 C 0.76534 0.74658 0.29715 0.0
C1510 C 0.25588 0.45824 0.9958 0.0
C1511 C 0.25572 0.47788 1.03883 0.0
H1512 H 0.27046 0.44161 0.92828 0.0
C1513 C 0.27548 0.49659 1.0409 0.0
H1514 H 0.24214 0.44255 0.99006 0.0
C1515 C 0.29305 0.49534 1.00382 0.0
C1516 C 0.29277 0.47551 0.9604 0.0
H1517 H 0.27782 0.51206 1.072 0.0
H1518 H 0.30704 0.51052 1.00951 0.0
C1519 C 0.27295 0.45744 0.95891 0.0
C1520 C 0.24585 0.74022 0.75161 0.0
C1521 C 0.24563 0.71931 0.70938 0.0
H1522 H 0.26142 0.75797 0.81882 0.0
C1523 C 0.26501 0.70027 0.70899 0.0
H1524 H 0.23221 0.75616 0.75636 0.0
C1525 C 0.2821 0.70118 0.74604 0.0
C1526 C 0.28271 0.72193 0.78793 0.0
H1527 H 0.26709 0.68357 0.67929 0.0
H1528 H 0.29547 0.68469 0.74142 0.0
C1529 C 0.26342 0.74161 0.78868 0.0
C1530 C 0.02645 0.44516 0.72993 0.0
C1531 C 0.03686 0.47271 0.70691 0.0
H1532 H 1.00318 0.42337 0.78115 0.0
C1533 C 0.02769 0.50166 0.72649 0.0
H1534 H 0.03177 0.42161 0.71842 0.0
C1535 C 1.01046 0.50253 0.76394 0.0
C1536 C 1.00004 0.47499 0.78692 0.0
H1537 H 0.03373 0.52433 0.71276 0.0
H1538 H 1.00509 0.52608 0.77532 0.0
C1539 C 1.00926 0.44604 0.76751 0.0
C1540 C 0.76106 0.45987 0.45446 0.0
C1541 C 0.78094 0.47832 0.45663 0.0
H1542 H 0.72937 0.44629 0.48556 0.0
C1543 C 0.78079 0.49783 0.4999 0.0
H1544 H 0.75868 0.4444 0.42338 0.0
C1545 C 0.76363 0.49885 0.53669 0.0
C1546 C 0.7437 0.48102 0.53504 0.0
H1547 H 0.79464 0.51327 0.50591 0.0
H1548 H 0.76616 0.5146 0.56741 0.0
C1549 C 0.74344 0.46128 0.49147 0.0
C1550 C 0.75559 0.1985 0.72026 0.0
C1551 C 0.74598 0.22795 0.70395 0.0
H1552 H 0.77883 0.17291 0.76622 0.0
C1553 C 0.75589 0.25494 0.72888 0.0
H1554 H 0.74982 0.1763 0.70447 0.0
C1555 C 0.7732 0.25309 0.76574 0.0
C1556 C 0.78285 0.22366 0.78199 0.0
H1557 H 0.75007 0.27869 0.71956 0.0
H1558 H 0.77901 0.27529 0.78143 0.0
C1559 C 0.77295 0.19665 0.75704 0.0
C1560 C 0.5164 0.20962 1.03568 0.0
C1561 C 0.5366 0.22671 1.03316 0.0
H1562 H 0.48534 0.19528 1.00487 0.0
C1563 C 0.53719 0.24589 0.98909 0.0
H1564 H 0.51373 0.19424 1.06688 0.0
C1565 C 0.5196 0.24735 0.95218 0.0
C1566 C 0.4994 0.22979 0.95527 0.0
H1567 H 0.55154 0.26016 0.98253 0.0
H1568 H 0.52235 0.26178 0.92001 0.0
C1569 C 0.49925 0.21061 0.99887 0.0
C1570 C 0.5209 0.95937 0.78764 0.0
C1571 C 0.50107 0.9778 0.78492 0.0
H1572 H 0.55271 0.94604 0.75728 0.0
C1573 C 0.50134 -0.00244 0.74189 0.0
H1574 H 0.52314 0.94387 0.81885 0.0
C1575 C 0.51861 -0.00131 0.70552 0.0
C1576 C 0.53851 0.98093 0.70772 0.0
H1577 H 0.48755 0.01307 0.73576 0.0
H1578 H 0.51622 0.01456 0.67476 0.0
C1579 C 0.53866 0.961 0.75114 0.0
C1580 C 0.50955 0.69859 0.48487 0.0
C1581 C 0.50159 0.7253 0.45577 0.0
H1582 H 0.53107 0.67811 0.54084 0.0
C1583 C 0.51331 0.75394 0.46802 0.0
H1584 H 0.50198 0.67545 0.47921 0.0
C1585 C 0.53066 0.75536 0.50494 0.0
C1586 C 0.53867 0.72865 0.53392 0.0
H1587 H 0.50906 0.7759 0.44922 0.0
H1588 H 0.53804 0.7786 0.51107 0.0
C1589 C 0.52698 0.69999 0.52164 0.0
C1590 C 0.52089 0.45589 0.28822 0.0
C1591 C 0.501 0.47425 0.28586 0.0
H1592 H 0.55247 0.44214 0.25708 0.0
C1593 C 0.50104 0.49364 1.24239 0.0
H1594 H 0.52349 0.44102 0.31999 0.0
C1595 C 0.51803 0.49424 1.20522 0.0
C1596 C 0.53796 0.47644 1.20708 0.0
H1597 H 0.48734 0.5094 1.23669 0.0
H1598 H 0.51546 0.50984 1.17423 0.0
C1599 C 0.53837 0.457 0.25099 0.0
C1600 C 0.36972 0.97297 1.1204 0.0
C1601 C 0.37991 0.97545 1.16752 0.0
H1602 H 0.37162 0.97141 1.04075 0.0
C1603 C 0.40299 0.97816 1.1622 0.0
H1604 H 0.35228 0.9707 1.11938 0.0
C1605 C 0.4145 0.97804 1.11542 0.0
C1606 C 0.40434 0.97586 1.06828 0.0
H1607 H 0.41261 0.98002 1.19496 0.0
H1608 H 0.43197 0.97981 1.11654 0.0
C1609 C 0.38122 0.97345 1.07352 0.0
C1610 C 0.88019 0.22821 1.16081 0.0
C1611 C 0.90332 0.22608 1.16611 0.0
H1612 H 0.85117 0.23028 1.11507 0.0
C1613 C 0.91342 0.22361 1.11897 0.0
H1614 H 0.87063 0.2304 1.19355 0.0
C1615 C 0.90182 0.22301 1.07217 0.0
C1616 C 0.8787 0.22541 1.06687 0.0
H1617 H 0.93089 0.22199 1.11785 0.0
H1618 H 0.91139 0.22099 1.03941 0.0
C1619 C 0.86862 0.22816 1.11398 0.0
C1620 C 0.40397 0.22871 0.57477 0.0
C1621 C 0.38087 0.22618 0.56945 0.0
H1622 H 0.4329 0.23162 0.62064 0.0
C1623 C 0.3707 0.22376 0.61651 0.0
H1624 H 0.41355 0.23089 0.54203 0.0
C1625 C 0.38224 0.2236 0.66334 0.0
C1626 C 0.40532 0.22649 0.66869 0.0
H1627 H 0.35324 0.22185 0.61751 0.0
H1628 H 0.37265 0.22162 0.69609 0.0
C1629 C 0.41547 0.22916 0.62163 0.0
C1630 C 0.87926 0.97226 0.57595 0.0
C1631 C 0.90225 0.97609 0.56992 0.0
H1632 H 0.85061 0.96859 0.62252 0.0
C1633 C 0.9125 0.98013 0.61676 0.0
H1634 H 0.86959 0.96877 0.54357 0.0
C1635 C 0.90116 0.9806 0.66386 0.0
C1636 C 0.87818 0.97644 0.6699 0.0
H1637 H 0.92991 -0.0169 0.61738 0.0
H1638 H 0.91084 -0.01617 0.69627 0.0
C1639 C 0.86797 0.97214 0.62309 0.0
C1640 C 0.66321 0.97566 0.36737 0.0
C1641 C 0.65233 0.97606 0.32091 0.0
H1642 H 0.66242 0.97478 0.4471 0.0
C1643 C 0.62925 0.97616 0.32762 0.0
H1644 H 0.68072 0.97567 0.3673 0.0
C1645 C 0.61839 0.97632 0.37515 0.0
C1646 C 0.62924 0.97563 0.42162 0.0
H1647 H 0.61917 0.97666 0.29545 0.0
H1648 H 0.60089 0.97689 0.37513 0.0
C1649 C 0.65233 0.9751 0.41492 0.0
C1650 C 0.15223 0.72925 0.33295 0.0
C1651 C 0.12913 0.72924 0.32671 0.0
H1652 H 0.18085 0.72834 0.37992 0.0
C1653 C 0.11847 0.72966 0.37333 0.0
H1654 H 0.16215 0.72871 0.30058 0.0
C1655 C 0.1296 0.73047 0.42065 0.0
C1656 C 0.15272 0.72989 0.42684 0.0
H1657 H 0.10096 0.72956 0.37358 0.0
H1658 H 0.1197 0.7308 0.45304 0.0
C1659 C 0.16334 0.72904 0.38021 0.0
C1660 C 0.66476 0.72816 0.88001 0.0
C1661 C 0.65421 0.72403 0.92646 0.0
H1662 H 0.66361 0.73293 0.80053 0.0
C1663 C 0.63118 0.72095 0.91945 0.0
H1664 H 0.68219 0.73067 0.88005 0.0
C1665 C 0.62018 0.72141 0.87182 0.0
C1666 C 0.6307 0.72597 0.82542 0.0
H1667 H 0.62127 0.71749 0.95142 0.0
H1668 H 0.60279 0.71829 0.87171 0.0
C1669 C 0.65369 0.72954 0.8325 0.0
C1670 C 0.12163 0.96867 0.87625 0.0
C1671 C 0.13142 0.97344 0.92339 0.0
H1672 H 0.12398 0.96471 0.79689 0.0
C1673 C 0.15437 0.97837 0.91818 0.0
H1674 H 0.10431 0.96484 0.875 0.0
C1675 C 0.16605 0.97864 0.87149 0.0
C1676 C 0.15627 0.9737 0.82438 0.0
H1677 H 0.16371 -0.01754 0.95088 0.0
H1678 H 0.18332 -0.01716 0.87268 0.0
C1679 C 0.13333 0.96861 0.82962 0.0
C1680 C 0.4049 0.48185 0.6656 0.0
C1681 C 0.38182 0.47913 0.67107 0.0
H1682 H 0.43385 0.48279 0.61976 0.0
C1683 C 0.37156 0.47633 0.62411 0.0
H1684 H 0.41456 0.4839 0.69829 0.0
C1685 C 0.38299 0.4767 0.57719 0.0
C1686 C 0.40611 0.47888 0.57181 0.0
H1687 H 0.35412 0.47399 0.62324 0.0
H1688 H 0.37336 0.47451 0.5445 0.0
C1689 C 0.41637 0.48121 0.6188 0.0
C1690 C 0.91523 0.72523 0.62691 0.0
C1691 C 0.90517 0.72393 0.6742 0.0
H1692 H 0.91318 0.72528 0.54731 0.0
C1693 C 0.88205 0.72155 0.66923 0.0
H1694 H 0.93269 0.72718 0.62561 0.0
C1695 C 0.87042 0.72099 0.62249 0.0
C1696 C 0.8805 0.72203 0.57519 0.0
H1697 H 0.87251 0.72056 0.70214 0.0
H1698 H 0.85294 0.71964 0.62378 0.0
C1699 C 0.90364 0.72405 0.5802 0.0
C1700 C 0.36843 0.72508 1.12211 0.0
C1701 C 0.3784 0.72414 1.07463 0.0
H1702 H 0.37062 0.72578 1.20179 0.0
C1703 C 0.40159 0.72329 1.07962 0.0
H1704 H 0.35094 0.72593 1.12355 0.0
C1705 C 0.41331 0.72357 1.12633 0.0
C1706 C 0.40334 0.72431 1.17381 0.0
H1707 H 0.41113 0.72273 1.04668 0.0
H1708 H 0.43081 0.7232 1.12484 0.0
C1709 C 0.38014 0.72497 1.16885 0.0
C1710 C 0.91378 0.46953 1.121 0.0
C1711 C 0.90431 0.47544 1.07369 0.0
H1712 H 0.91124 0.46577 1.20051 0.0
C1713 C 0.88158 0.4823 1.07903 0.0
H1714 H 0.93087 0.46393 1.1223 0.0
C1715 C 0.86979 0.48266 1.12566 0.0
C1716 C 0.87928 0.47713 1.17303 0.0
H1717 H 0.87238 0.48703 1.04631 0.0
H1718 H 0.85262 0.48764 1.12421 0.0
C1719 C 0.90209 0.47068 1.16779 0.0
C1720 C 0.65137 0.46649 0.91366 0.0
C1721 C 0.62837 0.47014 0.9197 0.0
H1722 H 0.68006 0.46454 0.86708 0.0
C1723 C 0.61799 0.47392 0.87302 0.0
H1724 H 0.66112 0.46365 0.94609 0.0
C1725 C 0.6292 0.47376 0.82587 0.0
C1726 C 0.65223 0.4705 0.81986 0.0
H1727 H 0.60061 0.477 0.87253 0.0
H1728 H 0.61946 0.47681 0.79347 0.0
C1729 C 0.66263 0.46702 0.86656 0.0
C1730 C 0.13357 0.23122 0.90858 0.0
C1731 C 0.15654 0.22705 0.9148 0.0
H1732 H 0.10481 0.23326 0.86206 0.0
C1733 C 0.16673 0.22228 0.86815 0.0
H1734 H 0.12392 0.23481 0.94088 0.0
C1735 C 0.15541 0.22207 0.82094 0.0
C1736 C 0.1324 0.22588 0.81482 0.0
H1737 H 0.18407 0.21869 0.86774 0.0
H1738 H 0.16503 0.21827 0.78865 0.0
C1739 C 0.1222 0.23029 0.86153 0.0
C1740 C 0.616 0.22942 0.36751 0.0
C1741 C 0.62644 0.23212 0.32078 0.0
H1742 H 0.61746 0.22793 0.44719 0.0
C1743 C 0.64947 0.23522 0.3268 0.0
H1744 H 0.59858 0.22681 0.36796 0.0
C1745 C 0.66073 0.23502 0.37393 0.0
C1746 C 0.65029 0.23272 0.42069 0.0
H1747 H 0.65925 0.23723 0.29434 0.0
H1748 H 0.6782 0.23689 0.37342 0.0
C1749 C 0.62722 0.23014 0.41473 0.0
C1750 C 0.16752 0.46806 0.36913 0.0
C1751 C 0.15829 0.47615 0.32237 0.0
H1752 H 0.16468 0.46133 0.44806 0.0
C1753 C 0.13581 0.4845 0.32811 0.0
H1754 H 0.18444 0.46145 0.37008 0.0
C1755 C 0.12412 0.48494 0.37485 0.0
C1756 C 0.13331 0.47663 0.42156 0.0
H1757 H 0.1269 0.49133 0.29582 0.0
H1758 H 0.10727 0.49199 0.37401 0.0
C1759 C 0.15574 0.46801 0.41575 0.0
C1760 C 0.31223 0.11634 0.38569 0.0
C1761 C 0.33153 0.13261 0.39758 0.0
H1762 H 0.29714 0.07439 0.35537 0.0
C1763 C 0.35121 0.11744 0.38495 0.0
H1764 H 0.29674 0.12713 0.3941 0.0
C1765 C 0.35144 0.08718 0.36099 0.0
C1766 C 0.332 0.07094 0.34957 0.0
H1767 H 0.36645 0.12925 0.39266 0.0
H1768 H 0.36684 0.07625 0.35228 0.0
C1769 C 0.31247 0.08606 0.36282 0.0
C1770 C 0.97168 0.08474 0.3773 0.0
C1771 C 0.95216 0.06944 0.39044 0.0
H1772 H 0.98736 0.12639 0.34691 0.0
C1773 C 0.93274 0.08602 0.38023 0.0
H1774 H 0.98699 0.07285 0.38394 0.0
C1775 C 0.93294 0.11671 0.3575 0.0
C1776 C 0.95257 0.13204 0.34478 0.0
H1777 H 0.91734 0.07504 0.38901 0.0
H1778 H 0.91769 0.12867 0.35056 0.0
C1779 C 0.9719 0.11551 0.35551 0.0
C1780 C 0.68045 0.83322 1.12677 0.0
C1781 C 0.69978 0.81876 1.1102 0.0
H1782 H 0.66549 0.87389 1.16204 0.0
C1783 C 0.71908 0.8363 1.11701 0.0
H1784 H 0.66527 0.82038 1.12355 0.0
C1785 C 0.71908 0.86728 1.13785 0.0
C1786 C 0.69989 0.88196 1.1545 0.0
H1787 H 0.73437 0.82606 1.10571 0.0
H1788 H 0.73436 0.87993 1.1408 0.0
C1789 C 0.68057 0.86405 1.14923 0.0
C1790 C 0.09891 0.8381 1.15217 0.0
C1791 C 0.07969 0.81977 1.15457 0.0
H1792 H 0.11477 0.88116 1.1259 0.0
C1793 C 0.06121 0.83285 1.13167 0.0
H1794 H 0.11343 0.82934 1.1696 0.0
C1795 C 0.06183 0.86284 1.10756 0.0
C1796 C 0.08112 0.88077 1.10382 0.0
H1797 H 0.04608 0.81971 1.13215 0.0
H1798 H 0.04707 0.87196 1.0914 0.0
C1799 C 0.09971 0.86786 1.12666 0.0
C1800 C 0.30811 0.61062 0.89161 0.0
C1801 C 0.32726 0.62907 0.89421 0.0
H1802 H 0.29262 0.56669 0.86892 0.0
C1803 C 0.34585 0.61597 0.87192 0.0
H1804 H 0.29333 0.61979 0.90749 0.0
C1805 C 0.34523 0.58579 0.84781 0.0
C1806 C 0.32616 0.56696 0.84632 0.0
H1807 H 0.36082 0.62951 0.87187 0.0
H1808 H 0.3598 0.57719 0.83043 0.0
C1809 C 0.30766 0.58007 0.86892 0.0
C1810 C 0.97351 0.6122 0.85677 0.0
C1811 C 0.95464 0.63094 0.85346 0.0
H1812 H 0.98819 0.56797 0.87967 0.0
C1813 C 0.9357 0.61864 0.87551 0.0
H1814 H 0.9885 0.62094 0.84122 0.0
C1815 C 0.93573 0.58851 0.89984 0.0
C1816 C 0.95447 0.5692 0.90128 0.0
H1817 H 0.92097 0.63271 0.87509 0.0
H1818 H 0.92105 0.58032 0.91719 0.0
C1819 C 0.97335 0.58181 0.87947 0.0
C1820 C 0.68402 0.34342 0.60005 0.0
C1821 C 0.70281 0.32528 0.59064 0.0
H1822 H 0.67002 0.38542 0.63307 0.0
C1823 C 0.72271 0.33902 0.6054 0.0
H1824 H 0.66848 0.33449 0.58849 0.0
C1825 C 0.72377 0.36936 0.62858 0.0
C1826 C 0.70492 0.38686 0.63995 0.0
H1827 H 0.73766 0.32612 0.59924 0.0
H1828 H 0.73948 0.37888 0.63844 0.0
C1829 C 0.68499 0.37311 0.62541 0.0
C1830 C 0.06407 0.3353 0.62451 0.0
C1831 C 0.08348 0.31784 0.62916 0.0
H1832 H 0.04842 0.37882 0.60165 0.0
C1833 C 0.10243 0.3319 0.60978 0.0
H1834 H 0.04908 0.32527 0.63816 0.0
C1835 C 0.10189 0.36249 0.58683 0.0
C1836 C 0.08254 0.38038 0.58386 0.0
H1837 H 0.11761 0.31898 0.61147 0.0
H1838 H 0.11667 0.37223 0.57198 0.0
C1839 C 0.06367 0.36604 0.60296 0.0
C1840 C 0.80917 0.08155 0.85794 0.0
C1841 C 0.82781 0.0683 0.83615 0.0
H1842 H 0.79471 0.12097 0.89656 0.0
C1843 C 0.84698 0.08675 0.83878 0.0
H1844 H 0.79403 0.06844 0.85709 0.0
C1845 C 0.84763 0.11652 0.86405 0.0
C1846 C 0.82887 0.12961 0.88575 0.0
H1847 H 0.86154 0.07816 0.82152 0.0
H1848 H 0.86272 0.1297 0.86534 0.0
C1849 C 0.80961 0.1117 0.88137 0.0
C1850 C 0.43588 0.11485 0.83842 0.0
C1851 C 0.45506 0.13338 0.83663 0.0
H1852 H 0.42015 0.0712 0.86296 0.0
C1853 C 0.47362 0.11973 0.8585 0.0
H1854 H 0.42133 0.1238 0.82139 0.0
C1855 C 0.47312 0.08919 0.88116 0.0
C1856 C 0.45388 0.07108 0.88445 0.0
H1857 H 0.48876 0.13286 0.85834 0.0
H1858 H 0.48795 0.07981 0.89666 0.0
C1859 C 0.43521 0.08451 0.86253 0.0
C1860 C 0.22626 0.83025 0.614 0.0
C1861 C 0.20743 0.81558 0.59533 0.0
H1862 H 0.2406 0.87121 0.64927 0.0
C1863 C 0.18778 0.83255 0.60095 0.0
H1864 H 0.24173 0.81824 0.61077 0.0
C1865 C 0.18697 0.86266 0.62515 0.0
C1866 C 0.20593 0.87737 0.64327 0.0
H1867 H 0.17295 0.82242 0.58694 0.0
H1868 H 0.17157 0.87485 0.62832 0.0
C1869 C 0.22557 0.86067 0.6367 0.0
C1870 C 0.56014 0.839 0.63732 0.0
C1871 C 0.58019 0.82521 0.651 0.0
H1872 H 0.54297 0.87936 0.60653 0.0
C1873 C 0.59881 0.84384 0.64188 0.0
H1874 H 0.54529 0.82571 0.64327 0.0
C1875 C 0.59755 0.87405 0.61773 0.0
C1876 C 0.57747 0.88788 0.60436 0.0
H1877 H 0.61446 0.83488 0.6525 0.0
H1878 H 0.61242 0.88665 0.61 0.0
C1879 C 0.55878 0.86987 0.61559 0.0
C1880 C 0.80744 0.58896 0.36598 0.0
C1881 C 0.82732 0.57298 0.35843 0.0
H1882 H 0.79076 0.63088 0.39245 0.0
C1883 C 0.84619 0.58884 0.37474 0.0
H1884 H 0.79247 0.57772 0.35453 0.0
C1885 C 0.84511 0.61925 0.39809 0.0
C1886 C 0.82517 0.63532 0.40517 0.0
H1887 H 0.8618 0.57742 0.37046 0.0
H1888 H 0.86 0.63027 0.41036 0.0
C1889 C 0.80641 0.61957 0.38822 0.0
C1890 C 0.47484 0.58321 0.38315 0.0
C1891 C 0.45677 0.56983 0.40718 0.0
H1892 H 0.48834 0.62293 0.34316 0.0
C1893 C 0.43766 0.58842 0.40781 0.0
H1894 H 0.48991 0.56998 0.38157 0.0
C1895 C 0.43647 0.61855 0.3835 0.0
C1896 C 0.45463 0.63166 0.35931 0.0
H1897 H 0.42355 0.57963 0.42681 0.0
H1898 H 0.42149 0.63199 0.38479 0.0
C1899 C 0.47389 0.61362 0.36045 0.0
C1900 C 0.18794 0.36983 1.11864 0.0
C1901 C 0.20723 0.38305 1.13793 0.0
H1902 H 0.17287 0.33119 1.07842 0.0
C1903 C 0.22642 0.36549 1.1302 0.0
H1904 H 0.17284 0.38274 1.12261 0.0
C1905 C 0.22633 0.33569 1.10562 0.0
C1906 C 0.20716 0.3223 1.08628 0.0
H1907 H 0.24168 0.37474 1.14358 0.0
H1908 H 0.2415 0.32292 1.10201 0.0
C1909 C 0.18795 0.3402 1.0928 0.0
C1910 C 0.55173 0.33386 1.12857 0.0
C1911 C 0.5708 0.3186 1.14537 0.0
H1912 H 0.53694 0.37593 1.0963 0.0
C1913 C 0.59025 0.33607 1.13927 0.0
H1914 H 0.53632 0.32169 1.13225 0.0
C1915 C 0.59075 0.36645 1.1155 0.0
C1916 C 0.57168 0.38206 1.09967 0.0
H1917 H 0.60531 0.32619 1.15246 0.0
H1918 H 0.60624 0.37787 1.11041 0.0
C1919 C 0.5521 0.36514 1.10739 0.0
C1920 C 0.21563 0.07505 0.25591 0.0
C1921 C 0.22267 0.05332 0.29176 0.0
H1922 H 0.18853 0.09009 1.21331 0.0
C1923 C 0.20757 0.04209 0.32601 0.0
H1924 H 0.22704 0.08565 1.23067 0.0
C1925 C 0.18556 0.04489 0.31628 0.0
C1926 C 0.17886 0.05844 0.27202 0.0
H1927 H 0.21236 0.02632 0.35545 0.0
H1928 H 0.17451 0.03094 0.33839 0.0
C1929 C 0.19354 0.07784 0.24624 0.0
C1930 C 0.07548 0.31998 1.10995 0.0
C1931 C 0.09007 0.33532 1.14148 0.0
H1932 H 0.04307 0.30517 1.0984 0.0
C1933 C 0.08197 0.35705 1.17585 0.0
H1934 H 0.08112 0.3034 1.08249 0.0
C1935 C 0.05971 0.35866 1.18447 0.0
C1936 C 0.04553 0.33767 1.16 0.0
H1937 H 0.09288 0.37009 1.1995 0.0
H1938 H 0.05404 0.37309 1.21456 0.0
C1939 C 0.05335 0.32114 1.11911 0.0
C1940 C 0.22869 0.1557 0.61089 0.0
C1941 C 0.24242 0.15413 0.57049 0.0
H1942 H 0.1958 0.15686 0.634 0.0
C1943 C 0.2348 0.14009 0.5273 0.0
H1944 H 0.23433 0.1662 0.64459 0.0
C1945 C 0.21265 0.13539 0.52089 0.0
C1946 C 0.19842 0.14365 0.55827 0.0
H1947 H 0.24519 0.13835 0.49574 0.0
H1948 H 0.20656 0.13015 0.48484 0.0
C1949 C 0.20661 0.1503 0.60476 0.0
C1950 C 0.0367 -0.00795 0.63873 0.0
C1951 C 0.02892 0.96241 0.65621 0.0
H1952 H 0.06406 0.01744 0.6119 0.0
C1953 C 0.04348 0.94155 0.67935 0.0
H1954 H 0.02592 0.00927 0.6218 0.0
C1955 C 0.0657 0.94635 0.67377 0.0
C1956 C 0.07332 0.97226 0.64563 0.0
H1957 H 0.03778 0.91928 0.69509 0.0
H1958 H 0.07673 0.92818 0.68714 0.0
C1959 C 0.0588 -0.00334 0.63248 0.0
C1960 C 0.82145 0.91795 0.379 0.0
C1961 C 0.8315 0.91005 0.33488 0.0
H1962 H 0.79159 0.9315 0.41209 0.0
C1963 C 0.81922 0.89641 0.29752 0.0
H1964 H 0.83084 0.92787 0.40866 0.0
C1965 C 0.79671 0.89803 0.29983 0.0
C1966 C 0.78687 0.9141 0.33889 0.0
H1967 H 0.82678 0.88965 0.26355 0.0
H1968 H 0.7876 0.89263 0.26718 0.0
C1969 C 0.79897 0.91984 0.38111 0.0
C1970 C 0.94849 0.68364 1.13742 0.0
C1971 C 0.9618 0.65664 1.14409 0.0
H1972 H 0.91758 0.70409 1.14957 0.0
C1973 C 0.95193 0.62649 1.15075 0.0
H1974 H 0.95535 0.70722 1.13107 0.0
C1975 C 0.92984 0.6246 1.16131 0.0
C1976 C 0.91763 0.65293 1.16608 0.0
H1977 H 0.96166 0.60494 1.15369 0.0
H1978 H 0.92319 0.60168 1.17254 0.0
C1979 C 0.92649 0.68175 1.14802 0.0
C1980 C 0.8514 0.77961 1.07866 0.0
C1981 C 0.85837 0.79629 1.03716 0.0
H1982 H 0.82416 0.76038 1.11559 0.0
C1983 C 0.84415 0.81823 1.01497 0.0
H1984 H 0.86211 0.76329 1.09772 0.0
C1985 C 0.82207 0.81639 1.025 0.0
C1986 C 0.8145 0.793 1.0577 0.0
H1987 H 0.84942 0.83253 0.98421 0.0
H1988 H 0.81089 0.82957 1.00211 0.0
C1989 C 0.82939 0.77786 1.08886 0.0
C1990 C 0.94223 0.09991 0.98539 0.0
C1991 C 0.93511 0.08627 0.94146 0.0
H1992 H 0.96923 0.10741 1.03295 0.0
C1993 C 0.95057 0.0788 0.9058 0.0
H1994 H 0.93073 0.10721 1.01287 0.0
C1995 C 0.97246 0.07896 0.91722 0.0
C1996 C 0.97932 0.08679 0.9644 0.0
H1997 H 0.94594 0.06858 0.8712 0.0
H1998 H 0.98356 0.06901 0.89085 0.0
C1999 C 0.96426 0.10006 0.99689 0.0
C2000 C 0.23424 0.38441 0.60644 0.0
C2001 C 0.24297 0.36283 0.64081 0.0
H2002 H 0.20591 0.40749 0.57966 0.0
C2003 C 0.22877 0.34033 0.66236 0.0
H2004 H 0.24418 0.40176 0.58755 0.0
C2005 C 0.20636 0.34462 0.65908 0.0
C2006 C 0.19794 0.37009 0.63161 0.0
H2007 H 0.23479 0.3217 0.68628 0.0
H2008 H 0.19577 0.32973 0.68096 0.0
C2009 C 0.21195 0.38795 0.60192 0.0
C2010 C 0.06655 0.83077 0.58713 0.0
C2011 C 0.07856 0.84198 0.6272 0.0
H2012 H 0.03555 0.81495 0.56236 0.0
C2013 C 0.06737 0.85769 0.66464 0.0
H2014 H 0.07439 0.81961 0.55638 0.0
C2015 C 0.04506 0.85364 0.66897 0.0
C2016 C 0.03379 0.83495 0.63477 0.0
H2017 H 0.07608 0.86845 0.69464 0.0
H2018 H 0.0376 0.86061 0.70289 0.0
C2019 C 0.0441 0.82787 0.59061 0.0
C2020 C 0.22827 0.86017 1.06835 0.0
C2021 C 0.24183 0.83767 1.09159 0.0
H2022 H 0.19541 0.87333 1.05319 0.0
C2023 C 0.23359 0.82085 1.13193 0.0
H2024 H 0.23434 0.875 1.03899 0.0
C2025 C 0.21143 0.82052 1.14079 0.0
C2026 C 0.19728 0.837 1.10947 0.0
H2027 H 0.24344 0.80392 1.15202 0.0
H2028 H 0.20536 0.80355 1.16738 0.0
C2029 C 0.20596 0.85934 1.07652 0.0
C2030 C 0.09128 0.57233 1.00506 0.0
C2031 C 0.10656 0.55473 0.97831 0.0
H2032 H 0.05765 0.5775 1.02131 0.0
C2033 C 0.10009 0.54051 0.93449 0.0
H2034 H 0.09606 0.58482 1.03787 0.0
C2035 C 0.07818 0.53593 0.92534 0.0
C2036 C 0.06281 0.54609 0.95966 0.0
H2037 H 0.11155 0.52767 0.91203 0.0
H2038 H 0.07383 0.51998 0.8959 0.0
C2039 C 0.06929 0.56782 0.99588 0.0
C2040 C 0.81147 0.58668 0.83578 0.0
C2041 C 0.80431 0.59476 0.78886 0.0
H2042 H 0.83808 0.57277 0.87955 0.0
C2043 C 0.81952 0.60613 0.75496 0.0
H2044 H 0.8003 0.57821 0.86326 0.0
C2045 C 0.84163 0.60306 0.76449 0.0
C2046 C 0.84866 0.58854 0.80793 0.0
H2047 H 0.81441 0.61374 0.71907 0.0
H2048 H 0.85303 0.60866 0.73582 0.0
C2049 C 0.83347 0.58349 0.84521 0.0
C2050 C 0.99759 0.2192 0.89395 0.0
C2051 C 1.00438 0.18712 0.89894 0.0
H2052 H 0.9715 0.25018 0.87682 0.0
C2053 C 0.98895 0.1638 0.91107 0.0
H2054 H 1.00904 0.23816 0.88571 0.0
C2055 C 0.96695 0.17083 0.90665 0.0
C2056 C 0.96033 0.20131 0.89005 0.0
H2057 H 0.99395 0.13921 0.91629 0.0
H2058 H 0.95537 0.15159 0.91144 0.0
C2059 C 0.97574 0.22614 0.88831 0.0
C2060 C 0.79951 0.31129 0.44458 0.0
C2061 C 0.7895 0.29596 0.405 0.0
H2062 H 0.82977 0.31991 0.48007 0.0
C2063 C 0.80137 0.29108 0.36227 0.0
H2064 H 0.79059 0.31579 0.47774 0.0
C2065 C 0.82383 0.2938 0.36358 0.0
C2066 C 0.83415 0.30141 0.40752 0.0
H2067 H 0.79385 0.27982 0.33105 0.0
H2068 H 0.8331 0.2846 0.33325 0.0
C2069 C 0.822 0.31367 0.44606 0.0
C2070 C 0.94878 0.39986 0.41273 0.0
C2071 C 0.93927 0.39741 0.45891 0.0
H2072 H 0.97758 0.41241 0.37398 0.0
C2073 C 0.95244 0.39351 0.49993 0.0
H2074 H 0.93882 0.40296 0.38065 0.0
C2075 C 0.9747 0.39806 0.49584 0.0
C2076 C 0.98356 0.40726 0.45098 0.0
H2077 H 0.94532 0.39161 0.53578 0.0
H2078 H 0.98429 0.39951 0.52877 0.0
C2079 C 0.97095 0.40531 0.40881 0.0
C2080 C 0.754 0.9473 0.53442 0.0
C2081 C 0.76626 0.9689 0.56239 0.0
H2082 H 0.72178 0.93225 0.5172 0.0
C2083 C 0.75741 -0.00053 0.57125 0.0
H2084 H 0.76077 0.9244 0.52366 0.0
C2085 C 0.73507 0.00336 0.56971 0.0
C2086 C 0.72194 0.9773 0.55626 0.0
H2087 H 0.76667 0.01792 0.58958 0.0
H2088 H 0.72834 0.02458 0.58652 0.0
C2089 C 0.73161 0.95145 0.53172 0.0
C2090 C 0.55776 0.34654 0.66453 0.0
C2091 C 0.55188 0.35356 0.71265 0.0
H2092 H 0.58315 0.33327 0.61714 0.0
C2093 C 0.56791 0.36538 0.74424 0.0
H2094 H 0.54592 0.33817 0.63844 0.0
C2095 C 0.58975 0.36291 0.73162 0.0
C2096 C 0.59565 0.34822 0.6876 0.0
H2097 H 0.56378 0.37264 0.78083 0.0
H2098 H 0.60184 0.36875 0.75869 0.0
C2099 C 0.5795 0.34364 0.65217 0.0
C2100 C 0.74977 0.32881 1.15778 0.0
C2101 C 0.76127 0.29988 1.15498 0.0
H2102 H 0.71825 0.34965 1.16236 0.0
C2103 C 0.75259 0.2726 1.17776 0.0
H2104 H 0.75665 0.35032 1.14229 0.0
C2105 C 0.73055 0.2717 1.18811 0.0
C2106 C 0.71752 0.29847 1.17703 0.0
H2107 H 0.7614 0.25012 1.17814 0.0
H2108 H 0.72352 0.24857 1.19677 0.0
C2109 C 0.7277 0.32812 1.16825 0.0
C2110 C 0.55331 0.84819 1.08002 0.0
C2111 C 0.54012 0.87193 1.10115 0.0
H2112 H 0.58585 0.83401 1.06401 0.0
C2113 C 0.54905 0.89078 1.13855 0.0
H2114 H 0.54684 0.83209 1.05304 0.0
C2115 C 0.57135 0.89142 1.14555 0.0
C2116 C 0.58492 0.87319 1.11541 0.0
H2117 H 0.53961 0.90876 1.15727 0.0
H2118 H 0.57791 0.90968 1.16937 0.0
C2119 C 0.57572 0.84925 1.08625 0.0
C2120 C 0.32883 0.90343 0.67029 0.0
C2121 C 0.31353 0.89359 0.7051 0.0
H2122 H 0.36214 0.91207 0.65684 0.0
C2123 C 0.3201 0.87188 0.74145 0.0
H2124 H 0.32441 0.91913 0.64048 0.0
C2125 C 0.34212 0.86773 0.75077 0.0
C2126 C 0.35724 0.88584 0.72415 0.0
H2127 H 0.3085 0.86224 0.76714 0.0
H2128 H 0.34693 0.85566 0.784 0.0
C2129 C 0.35076 0.89916 0.67957 0.0
C2130 C 0.43556 0.79325 0.68639 0.0
C2131 C 0.42915 0.8063 0.73107 0.0
H2132 H 0.46199 0.77487 0.64601 0.0
C2133 C 0.44423 0.82436 0.75782 0.0
H2134 H 0.42421 0.78017 0.66384 0.0
C2135 C 0.46623 0.82112 0.74773 0.0
C2136 C 0.47288 0.80036 0.71044 0.0
H2137 H 0.43946 0.83604 0.79127 0.0
H2138 H 0.47788 0.83082 0.77325 0.0
C2139 C 0.45748 0.79006 0.6762 0.0
C2140 C 0.32844 0.78855 0.3797 0.0
C2141 C 0.33564 0.79517 0.42702 0.0
H2142 H 0.30151 0.77357 0.33636 0.0
C2143 C 0.32064 0.80265 0.46321 0.0
H2144 H 0.3399 0.78253 0.35143 0.0
C2145 C 0.29865 0.79821 0.45429 0.0
C2146 C 0.29179 0.78521 0.40969 0.0
H2147 H 0.326 0.80769 0.49991 0.0
H2148 H 0.28761 0.79991 0.48472 0.0
C2149 C 0.30649 0.78341 0.37104 0.0
C2150 C 0.49112 0.03713 0.30715 0.0
C2151 C 0.5071 0.01488 0.32098 0.0
H2152 H 0.45736 0.04837 0.30841 0.0
C2153 C 0.50073 -0.01721 0.32891 0.0
H2154 H 0.49551 0.06163 0.29827 0.0
C2155 C 0.47905 0.97544 0.33651 0.0
C2156 C 0.46331 -0.00031 0.33381 0.0
H2157 H 0.51242 0.96435 0.33784 0.0
H2158 H 0.47524 0.95171 0.35015 0.0
C2159 C 0.46928 0.02968 0.31411 0.0
C2160 C 0.72994 0.39835 1.04779 0.0
C2161 C 0.72018 0.42889 1.05064 0.0
H2162 H 0.75922 0.37232 1.06071 0.0
C2163 C 0.73354 0.45605 1.04397 0.0
H2164 H 0.72032 0.37661 1.04823 0.0
C2165 C 0.75588 0.45303 1.04847 0.0
C2166 C 0.76446 0.42343 1.06311 0.0
H2167 H 0.72714 0.48018 1.04306 0.0
H2168 H 0.76532 0.47485 1.05224 0.0
C2169 C 0.75234 0.39568 1.05343 0.0
C2170 C 0.56592 0.75234 1.07069 0.0
C2171 C 0.57196 0.72654 1.10103 0.0
H2172 H 0.53937 0.77988 1.04273 0.0
C2173 C 0.55648 0.70294 1.11198 0.0
H2174 H 0.57773 0.7699 1.0588 0.0
C2175 C 0.5348 0.70835 1.10126 0.0
C2176 C 0.52833 0.73818 1.08194 0.0
H2177 H 0.56047 0.68221 1.13402 0.0
H2178 H 0.52307 0.69185 1.11662 0.0
C2179 C 0.54408 0.75783 1.06053 0.0
C2180 C 0.69603 0.86306 0.52559 0.0
C2181 C 0.68908 0.84782 0.56851 0.0
H2182 H 0.72316 0.87396 0.4802 0.0
C2183 C 0.7043 0.8431 0.60595 0.0
H2184 H 0.68462 0.869 0.49707 0.0
C2185 C 0.72629 0.84665 0.59666 0.0
C2186 C 0.73339 0.85448 0.54959 0.0
H2187 H 0.6998 0.83223 0.64023 0.0
H2188 H 0.73747 0.83826 0.6242 0.0
C2189 C 0.71813 0.86615 0.51602 0.0
C2190 C 0.52857 0.44733 0.71241 0.0
C2191 C 0.51668 0.46973 0.68494 0.0
H2192 H 0.56054 0.43078 0.72852 0.0
C2193 C 0.52585 0.50038 0.67825 0.0
H2194 H 0.52148 0.42439 0.72214 0.0
C2195 C 0.54826 0.50364 0.67994 0.0
C2196 C 0.56106 0.47682 0.69164 0.0
H2197 H 0.51682 0.51959 0.6611 0.0
H2198 H 0.55522 0.52519 0.66439 0.0
C2199 C 0.55103 0.4507 0.7151 0.0
C2200 C 0.33273 0.57874 0.36338 0.0
C2201 C 0.34758 0.58957 0.32829 0.0
H2202 H 0.30005 0.56695 0.37852 0.0
C2203 C 0.33977 0.60764 0.28877 0.0
H2204 H 0.33797 0.5652 0.39488 0.0
C2205 C 0.31755 0.60884 0.27938 0.0
C2206 C 0.30308 0.5916 0.30909 0.0
H2207 H 0.35083 0.61759 0.2622 0.0
H2208 H 0.31208 0.61956 0.24565 0.0
C2209 C 0.31063 0.57984 0.35392 0.0
C2210 C 0.47693 0.19955 0.40563 0.0
C2211 C 0.46026 0.17679 0.40039 0.0
H2212 H 0.51066 0.20806 0.40724 0.0
C2213 C 0.46521 0.14422 0.40894 0.0
H2214 H 0.47413 0.22497 0.40068 0.0
C2215 C 0.48678 0.13432 0.41204 0.0
C2216 C 0.50352 0.15688 0.4061 0.0
H2217 H 0.45268 0.12605 0.40875 0.0
H2218 H 0.49024 0.10887 0.41187 0.0
C2219 C 0.49831 0.18966 0.4099 0.0
C2220 C 0.33919 0.09547 0.95748 0.0
C2221 C 0.34587 0.11449 0.91797 0.0
H2222 H 0.31253 0.08073 1.00178 0.0
C2223 C 0.33019 0.12493 0.88441 0.0
H2224 H 0.35094 0.08593 0.98293 0.0
C2225 C 0.30829 0.12209 0.89525 0.0
C2226 C 0.30172 0.1089 0.93996 0.0
H2227 H 0.33461 0.13927 0.85308 0.0
H2228 H 0.29699 0.13455 0.87181 0.0
C2229 C 0.31717 0.09244 0.96818 0.0
C2230 C 0.50201 0.58993 0.82064 0.0
C2231 C 0.51541 0.5626 0.82082 0.0
H2232 H 0.4692 0.60631 0.82352 0.0
C2233 C 0.50726 0.53443 0.79923 0.0
H2234 H 0.50813 0.61282 0.8333 0.0
C2235 C 0.48501 0.53053 0.79399 0.0
C2236 C 0.47093 0.55527 0.80834 0.0
H2237 H 0.51719 0.51319 0.79533 0.0
H2238 H 0.47908 0.50666 0.78591 0.0
C2239 C 0.47964 0.58611 0.81563 0.0
loop_
_geom_bond_atom_site_label_1
_geom_bond_atom_site_label_2
_geom_bond_distance
_geom_bond_site_symmetry_2
_ccdc_geom_bond_type
Nd0 C2 2.836 1_545 S
Nd0 O20 2.500 1_545 S
Nd0 O21 2.492 . S
Nd0 O22 2.487 . S
Nd0 O23 2.682 . S
Nd0 O24 2.410 . S
Nd0 O29 2.414 1_545 S
Nd0 O31 2.424 1_545 S
Nd1 C11 2.836 . S
Nd1 O23 2.414 . S
Nd1 O25 2.424 . S
Nd1 O26 2.500 . S
Nd1 O27 2.492 1_545 S
Nd1 O28 2.487 1_545 S
Nd1 O29 2.682 1_545 S
Nd1 O30 2.410 1_545 S
C2 Nd0 2.836 1_565 S
C2 C3 1.498 1_554 S
C2 O20 1.258 . S
C2 O21 1.239 1_565 S
C3 C2 1.498 1_556 S
C3 C4 1.366 . S
C3 C8 1.407 1_565 S
C4 C3 1.366 . S
C4 C5 1.392 . S
C4 H32 0.930 . S
C5 C4 1.392 . S
C5 C6 1.398 . S
C5 H33 0.929 . S
C6 C5 1.398 . S
C6 C7 1.352 1_565 S
C7 C6 1.352 1_545 S
C7 C8 1.384 . S
C7 H34 0.930 . S
C8 C3 1.407 1_545 S
C8 C7 1.384 . S
C8 H35 0.929 . S
C9 O22 1.241 . S
C9 O23 1.273 . S
C10 O24 1.251 . S
C10 O25 1.268 . S
C11 Nd1 2.836 . S
C11 C12 1.498 . S
C11 O26 1.258 . S
C11 O27 1.239 1_545 S
C12 C11 1.498 . S
C12 C13 1.366 . S
C12 C17 1.407 1_545 S
C13 C12 1.366 . S
C13 C14 1.392 . S
C13 H36 0.930 . S
C14 C13 1.392 . S
C14 C15 1.398 . S
C14 H37 0.929 . S
C15 C14 1.398 . S
C15 C16 1.352 1_545 S
C16 C15 1.352 1_565 S
C16 C17 1.384 . S
C16 H38 0.930 . S
C17 C12 1.407 1_565 S
C17 C16 1.384 . S
C17 H39 0.929 . S
C18 O28 1.241 . S
C18 O29 1.273 . S
C19 O30 1.251 . S
C19 O31 1.268 . S
O20 Nd0 2.500 1_565 S
O20 C2 1.258 . S
O21 Nd0 2.492 . S
O21 C2 1.239 1_545 S
O22 Nd0 2.487 . S
O22 C9 1.241 . S
O23 Nd0 2.682 . S
O23 Nd1 2.414 . S
O23 C9 1.273 . S
O24 Nd0 2.410 . S
O24 C10 1.251 . S
O25 Nd1 2.424 . S
O25 C10 1.268 . S
O26 Nd1 2.500 . S
O26 C11 1.258 . S
O27 Nd1 2.492 1_565 S
O27 C11 1.239 1_565 S
O28 Nd1 2.487 1_565 S
O28 C18 1.241 . S
O29 Nd0 2.414 1_565 S
O29 Nd1 2.682 1_565 S
O29 C18 1.273 . S
O30 Nd1 2.410 1_565 S
O30 C19 1.251 . S
O31 Nd0 2.424 1_565 S
O31 C19 1.268 . S
H32 C4 0.930 . S
H33 C5 0.929 . S
H34 C7 0.930 . S
H35 C8 0.929 . S
H36 C13 0.930 . S
H37 C14 0.929 . S
H38 C16 0.930 . S
H39 C17 0.929 . S
Nd40 C42 2.836 . S
Nd40 O60 2.500 . S
Nd40 O61 2.492 . S
Nd40 O62 2.487 . S
Nd40 O63 2.682 . S
Nd40 O64 2.410 . S
Nd40 O69 2.414 . S
Nd40 O71 2.424 . S
Nd41 C51 2.836 . S
Nd41 O63 2.414 . S
Nd41 O65 2.424 . S
Nd41 O66 2.500 . S
Nd41 O67 2.492 . S
Nd41 O68 2.487 . S
Nd41 O69 2.682 . S
Nd41 O70 2.410 . S
C42 Nd40 2.836 . S
C42 C43 1.498 1_554 S
C42 O60 1.258 . S
C42 O61 1.239 . S
C43 C42 1.498 1_556 S
C43 C44 1.366 . S
C43 C48 1.419 . S
C44 C43 1.366 . S
C44 C45 1.392 . S
C44 H72 0.930 . S
C45 C44 1.392 . S
C45 C46 1.398 1_655 S
C45 H73 0.929 . S
C46 C45 1.398 1_455 S
C46 C47 1.352 . S
C47 C46 1.352 . S
C47 C48 1.375 1_455 S
C47 H74 0.930 . S
C48 C43 1.419 . S
C48 C47 1.375 1_655 S
C48 H75 0.926 1_655 S
C49 O62 1.241 . S
C49 O63 1.273 . S
C50 O64 1.251 . S
C50 O65 1.268 . S
C51 Nd41 2.836 . S
C51 C52 1.498 . S
C51 O66 1.258 . S
C51 O67 1.239 . S
C52 C51 1.498 . S
C52 C53 1.366 . S
C52 C57 1.407 . S
C53 C52 1.366 . S
C53 C54 1.392 . S
C53 H76 0.930 . S
C54 C53 1.392 . S
C54 C55 1.398 . S
C54 H77 0.929 . S
C55 C54 1.398 . S
C55 C56 1.352 . S
C56 C55 1.352 . S
C56 C57 1.384 . S
C56 H78 0.930 . S
C57 C52 1.407 . S
C57 C56 1.384 . S
C57 H79 0.929 . S
C58 O68 1.241 . S
C58 O69 1.273 . S
C59 O70 1.251 . S
C59 O71 1.268 . S
O60 Nd40 2.500 . S
O60 C42 1.258 . S
O61 Nd40 2.492 . S
O61 C42 1.239 . S
O62 Nd40 2.487 . S
O62 C49 1.241 . S
O63 Nd40 2.682 . S
O63 Nd41 2.414 . S
O63 C49 1.273 . S
O64 Nd40 2.410 . S
O64 C50 1.251 . S
O65 Nd41 2.424 . S
O65 C50 1.268 . S
O66 Nd41 2.500 . S
O66 C51 1.258 . S
O67 Nd41 2.492 . S
O67 C51 1.239 . S
O68 Nd41 2.487 . S
O68 C58 1.241 . S
O69 Nd40 2.414 . S
O69 Nd41 2.682 . S
O69 C58 1.273 . S
O70 Nd41 2.410 . S
O70 C59 1.251 . S
O71 Nd40 2.424 . S
O71 C59 1.268 . S
H72 C44 0.930 . S
H73 C45 0.929 . S
H74 C47 0.930 . S
H75 C48 0.926 1_455 S
H76 C53 0.930 . S
H77 C54 0.929 . S
H78 C56 0.930 . S
H79 C57 0.929 . S
Nd80 C82 2.836 . S
Nd80 O100 2.500 . S
Nd80 O101 2.492 . S
Nd80 O102 2.487 . S
Nd80 O103 2.682 . S
Nd80 O104 2.410 . S
Nd80 O109 2.414 . S
Nd80 O111 2.424 . S
Nd81 C91 2.836 . S
Nd81 O103 2.414 . S
Nd81 O105 2.424 . S
Nd81 O106 2.500 . S
Nd81 O107 2.492 . S
Nd81 O108 2.487 . S
Nd81 O109 2.682 . S
Nd81 O110 2.410 . S
C82 Nd80 2.836 . S
C82 C83 1.498 . S
C82 O100 1.258 . S
C82 O101 1.239 . S
C83 C82 1.498 . S
C83 C84 1.366 . S
C83 C88 1.407 . S
C84 C83 1.366 . S
C84 C85 1.392 . S
C84 H112 0.930 . S
C85 C84 1.392 . S
C85 C86 1.398 . S
C85 H113 0.929 . S
C86 C85 1.398 . S
C86 C87 1.352 . S
C87 C86 1.352 . S
C87 C88 1.384 . S
C87 H114 0.930 . S
C88 C83 1.407 . S
C88 C87 1.384 . S
C88 H115 0.929 . S
C89 O102 1.241 . S
C89 O103 1.273 . S
C90 O104 1.251 . S
C90 O105 1.268 . S
C91 Nd81 2.836 . S
C91 C92 1.498 . S
C91 O106 1.258 . S
C91 O107 1.239 . S
C92 C91 1.498 . S
C92 C93 1.366 . S
C92 C97 1.407 . S
C93 C92 1.366 . S
C93 C94 1.392 . S
C93 H116 0.930 . S
C94 C93 1.392 . S
C94 C95 1.398 . S
C94 H117 0.929 . S
C95 C94 1.398 . S
C95 C96 1.352 . S
C96 C95 1.352 . S
C96 C97 1.384 . S
C96 H118 0.930 . S
C97 C92 1.407 . S
C97 C96 1.384 . S
C97 H119 0.929 . S
C98 O108 1.241 . S
C98 O109 1.273 . S
C99 O110 1.251 . S
C99 O111 1.268 . S
O100 Nd80 2.500 . S
O100 C82 1.258 . S
O101 Nd80 2.492 . S
O101 C82 1.239 . S
O102 Nd80 2.487 . S
O102 C89 1.241 . S
O103 Nd80 2.682 . S
O103 Nd81 2.414 . S
O103 C89 1.273 . S
O104 Nd80 2.410 . S
O104 C90 1.251 . S
O105 Nd81 2.424 . S
O105 C90 1.268 . S
O106 Nd81 2.500 . S
O106 C91 1.258 . S
O107 Nd81 2.492 . S
O107 C91 1.239 . S
O108 Nd81 2.487 . S
O108 C98 1.241 . S
O109 Nd80 2.414 . S
O109 Nd81 2.682 . S
O109 C98 1.273 . S
O110 Nd81 2.410 . S
O110 C99 1.251 . S
O111 Nd80 2.424 . S
O111 C99 1.268 . S
H112 C84 0.930 . S
H113 C85 0.929 . S
H114 C87 0.930 . S
H115 C88 0.929 . S
H116 C93 0.930 . S
H117 C94 0.929 . S
H118 C96 0.930 . S
H119 C97 0.929 . S
Nd120 C122 2.836 1_545 S
Nd120 O140 2.500 1_545 S
Nd120 O141 2.492 . S
Nd120 O142 2.487 . S
Nd120 O143 2.682 . S
Nd120 O144 2.410 . S
Nd120 O149 2.414 1_545 S
Nd120 O151 2.424 1_545 S
Nd121 C131 2.836 . S
Nd121 O143 2.414 . S
Nd121 O145 2.424 . S
Nd121 O146 2.500 . S
Nd121 O147 2.492 1_545 S
Nd121 O148 2.487 1_545 S
Nd121 O149 2.682 1_545 S
Nd121 O150 2.410 1_545 S
C122 Nd120 2.836 1_565 S
C122 C123 1.498 . S
C122 O140 1.258 . S
C122 O141 1.239 1_565 S
C123 C122 1.498 . S
C123 C124 1.366 . S
C123 C128 1.419 1_565 S
C124 C123 1.366 . S
C124 C125 1.392 . S
C124 H152 0.930 . S
C125 C124 1.392 . S
C125 C126 1.398 1_655 S
C125 H153 0.929 . S
C126 C125 1.398 1_455 S
C126 C127 1.352 1_565 S
C127 C126 1.352 1_545 S
C127 C128 1.375 1_455 S
C127 H154 0.930 . S
C128 C123 1.419 1_545 S
C128 C127 1.375 1_655 S
C128 H155 0.926 1_655 S
C129 O142 1.241 . S
C129 O143 1.273 . S
C130 O144 1.251 . S
C130 O145 1.268 . S
C131 Nd121 2.836 . S
C131 C132 1.498 . S
C131 O146 1.258 . S
C131 O147 1.239 1_545 S
C132 C131 1.498 . S
C132 C133 1.366 . S
C132 C137 1.407 1_545 S
C133 C132 1.366 . S
C133 C134 1.392 . S
C133 H156 0.930 . S
C134 C133 1.392 . S
C134 C135 1.398 . S
C134 H157 0.929 . S
C135 C134 1.398 . S
C135 C136 1.352 1_545 S
C136 C135 1.352 1_565 S
C136 C137 1.384 . S
C136 H158 0.930 . S
C137 C132 1.407 1_565 S
C137 C136 1.384 . S
C137 H159 0.929 . S
C138 O148 1.241 . S
C138 O149 1.273 . S
C139 O150 1.251 . S
C139 O151 1.268 . S
O140 Nd120 2.500 1_565 S
O140 C122 1.258 . S
O141 Nd120 2.492 . S
O141 C122 1.239 1_545 S
O142 Nd120 2.487 . S
O142 C129 1.241 . S
O143 Nd120 2.682 . S
O143 Nd121 2.414 . S
O143 C129 1.273 . S
O144 Nd120 2.410 . S
O144 C130 1.251 . S
O145 Nd121 2.424 . S
O145 C130 1.268 . S
O146 Nd121 2.500 . S
O146 C131 1.258 . S
O147 Nd121 2.492 1_565 S
O147 C131 1.239 1_565 S
O148 Nd121 2.487 1_565 S
O148 C138 1.241 . S
O149 Nd120 2.414 1_565 S
O149 Nd121 2.682 1_565 S
O149 C138 1.273 . S
O150 Nd121 2.410 1_565 S
O150 C139 1.251 . S
O151 Nd120 2.424 1_565 S
O151 C139 1.268 . S
H152 C124 0.930 . S
H153 C125 0.929 . S
H154 C127 0.930 . S
H155 C128 0.926 1_455 S
H156 C133 0.930 . S
H157 C134 0.929 . S
H158 C136 0.930 . S
H159 C137 0.929 . S
Nd160 C162 2.836 . S
Nd160 O180 2.500 . S
Nd160 O181 2.492 1_565 S
Nd160 O182 2.487 1_565 S
Nd160 O183 2.682 1_565 S
Nd160 O184 2.410 1_565 S
Nd160 O189 2.414 . S
Nd160 O191 2.424 . S
Nd161 C171 2.836 1_565 S
Nd161 O183 2.414 1_565 S
Nd161 O185 2.424 1_565 S
Nd161 O186 2.500 1_565 S
Nd161 O187 2.492 . S
Nd161 O188 2.487 . S
Nd161 O189 2.682 . S
Nd161 O190 2.410 . S
C162 Nd160 2.836 . S
C162 C163 1.498 . S
C162 O180 1.258 . S
C162 O181 1.239 1_565 S
C163 C162 1.498 . S
C163 C164 1.366 . S
C163 C168 1.407 1_565 S
C164 C163 1.366 . S
C164 C165 1.392 . S
C164 H192 0.930 . S
C165 C164 1.392 . S
C165 C166 1.398 . S
C165 H193 0.929 . S
C166 C165 1.398 . S
C166 C167 1.352 1_565 S
C167 C166 1.352 1_545 S
C167 C168 1.384 . S
C167 H194 0.930 . S
C168 C163 1.407 1_545 S
C168 C167 1.384 . S
C168 H195 0.929 . S
C169 O182 1.241 . S
C169 O183 1.273 . S
C170 O184 1.251 . S
C170 O185 1.268 . S
C171 Nd161 2.836 1_545 S
C171 C172 1.498 1_556 S
C171 O186 1.258 . S
C171 O187 1.239 1_545 S
C172 C171 1.498 1_554 S
C172 C173 1.366 . S
C172 C177 1.407 1_545 S
C173 C172 1.366 . S
C173 C174 1.392 . S
C173 H196 0.930 . S
C174 C173 1.392 . S
C174 C175 1.398 . S
C174 H197 0.929 . S
C175 C174 1.398 . S
C175 C176 1.352 1_545 S
C176 C175 1.352 1_565 S
C176 C177 1.384 . S
C176 H198 0.930 . S
C177 C172 1.407 1_565 S
C177 C176 1.384 . S
C177 H199 0.929 . S
C178 O188 1.241 . S
C178 O189 1.273 . S
C179 O190 1.251 . S
C179 O191 1.268 . S
O180 Nd160 2.500 . S
O180 C162 1.258 . S
O181 Nd160 2.492 1_545 S
O181 C162 1.239 1_545 S
O182 Nd160 2.487 1_545 S
O182 C169 1.241 . S
O183 Nd160 2.682 1_545 S
O183 Nd161 2.414 1_545 S
O183 C169 1.273 . S
O184 Nd160 2.410 1_545 S
O184 C170 1.251 . S
O185 Nd161 2.424 1_545 S
O185 C170 1.268 . S
O186 Nd161 2.500 1_545 S
O186 C171 1.258 . S
O187 Nd161 2.492 . S
O187 C171 1.239 1_565 S
O188 Nd161 2.487 . S
O188 C178 1.241 . S
O189 Nd160 2.414 . S
O189 Nd161 2.682 . S
O189 C178 1.273 . S
O190 Nd161 2.410 . S
O190 C179 1.251 . S
O191 Nd160 2.424 . S
O191 C179 1.268 . S
H192 C164 0.930 . S
H193 C165 0.929 . S
H194 C167 0.930 . S
H195 C168 0.929 . S
H196 C173 0.930 . S
H197 C174 0.929 . S
H198 C176 0.930 . S
H199 C177 0.929 . S
Nd200 C202 2.836 . S
Nd200 O220 2.500 . S
Nd200 O221 2.492 . S
Nd200 O222 2.487 . S
Nd200 O223 2.682 . S
Nd200 O224 2.410 . S
Nd200 O229 2.414 . S
Nd200 O231 2.424 . S
Nd201 C211 2.836 . S
Nd201 O223 2.414 . S
Nd201 O225 2.424 . S
Nd201 O226 2.500 . S
Nd201 O227 2.492 . S
Nd201 O228 2.487 . S
Nd201 O229 2.682 . S
Nd201 O230 2.410 . S
C202 Nd200 2.836 . S
C202 C203 1.498 . S
C202 O220 1.258 . S
C202 O221 1.239 . S
C203 C202 1.498 . S
C203 C204 1.366 . S
C203 C208 1.407 . S
C204 C203 1.366 . S
C204 C205 1.392 . S
C204 H232 0.930 . S
C205 C204 1.392 . S
C205 C206 1.398 . S
C205 H233 0.929 . S
C206 C205 1.398 . S
C206 C207 1.352 . S
C207 C206 1.352 . S
C207 C208 1.384 . S
C207 H234 0.930 . S
C208 C203 1.407 . S
C208 C207 1.384 . S
C208 H235 0.929 . S
C209 O222 1.241 . S
C209 O223 1.273 . S
C210 O224 1.251 . S
C210 O225 1.268 . S
C211 Nd201 2.836 . S
C211 C212 1.498 1_556 S
C211 O226 1.258 . S
C211 O227 1.239 . S
C212 C211 1.498 1_554 S
C212 C213 1.366 . S
C212 C217 1.419 . S
C213 C212 1.366 . S
C213 C214 1.392 . S
C213 H236 0.930 . S
C214 C213 1.392 . S
C214 C215 1.398 1_455 S
C214 H237 0.929 . S
C215 C214 1.398 1_655 S
C215 C216 1.352 . S
C216 C215 1.352 . S
C216 C217 1.375 1_655 S
C216 H238 0.930 . S
C217 C212 1.419 . S
C217 C216 1.375 1_455 S
C217 H239 0.926 1_455 S
C218 O228 1.241 . S
C218 O229 1.273 . S
C219 O230 1.251 . S
C219 O231 1.268 . S
O220 Nd200 2.500 . S
O220 C202 1.258 . S
O221 Nd200 2.492 . S
O221 C202 1.239 . S
O222 Nd200 2.487 . S
O222 C209 1.241 . S
O223 Nd200 2.682 . S
O223 Nd201 2.414 . S
O223 C209 1.273 . S
O224 Nd200 2.410 . S
O224 C210 1.251 . S
O225 Nd201 2.424 . S
O225 C210 1.268 . S
O226 Nd201 2.500 . S
O226 C211 1.258 . S
O227 Nd201 2.492 . S
O227 C211 1.239 . S
O228 Nd201 2.487 . S
O228 C218 1.241 . S
O229 Nd200 2.414 . S
O229 Nd201 2.682 . S
O229 C218 1.273 . S
O230 Nd201 2.410 . S
O230 C219 1.251 . S
O231 Nd200 2.424 . S
O231 C219 1.268 . S
H232 C204 0.930 . S
H233 C205 0.929 . S
H234 C207 0.930 . S
H235 C208 0.929 . S
H236 C213 0.930 . S
H237 C214 0.929 . S
H238 C216 0.930 . S
H239 C217 0.926 1_655 S
Nd240 C242 2.836 . S
Nd240 O260 2.500 . S
Nd240 O261 2.492 . S
Nd240 O262 2.487 . S
Nd240 O263 2.682 . S
Nd240 O264 2.410 . S
Nd240 O269 2.414 . S
Nd240 O271 2.424 . S
Nd241 C251 2.836 . S
Nd241 O263 2.414 . S
Nd241 O265 2.424 . S
Nd241 O266 2.500 . S
Nd241 O267 2.492 . S
Nd241 O268 2.487 . S
Nd241 O269 2.682 . S
Nd241 O270 2.410 . S
C242 Nd240 2.836 . S
C242 C243 1.498 . S
C242 O260 1.258 . S
C242 O261 1.239 . S
C243 C242 1.498 . S
C243 C244 1.366 . S
C243 C248 1.407 . S
C244 C243 1.366 . S
C244 C245 1.392 . S
C244 H272 0.930 . S
C245 C244 1.392 . S
C245 C246 1.398 . S
C245 H273 0.929 . S
C246 C245 1.398 . S
C246 C247 1.352 . S
C247 C246 1.352 . S
C247 C248 1.384 . S
C247 H274 0.930 . S
C248 C243 1.407 . S
C248 C247 1.384 . S
C248 H275 0.929 . S
C249 O262 1.241 . S
C249 O263 1.273 . S
C250 O264 1.251 . S
C250 O265 1.268 . S
C251 Nd241 2.836 . S
C251 C252 1.498 . S
C251 O266 1.258 . S
C251 O267 1.239 . S
C252 C251 1.498 . S
C252 C253 1.366 . S
C252 C257 1.407 . S
C253 C252 1.366 . S
C253 C254 1.392 . S
C253 H276 0.930 . S
C254 C253 1.392 . S
C254 C255 1.398 . S
C254 H277 0.929 . S
C255 C254 1.398 . S
C255 C256 1.352 . S
C256 C255 1.352 . S
C256 C257 1.384 . S
C256 H278 0.930 . S
C257 C252 1.407 . S
C257 C256 1.384 . S
C257 H279 0.929 . S
C258 O268 1.241 . S
C258 O269 1.273 . S
C259 O270 1.251 . S
C259 O271 1.268 . S
O260 Nd240 2.500 . S
O260 C242 1.258 . S
O261 Nd240 2.492 . S
O261 C242 1.239 . S
O262 Nd240 2.487 . S
O262 C249 1.241 . S
O263 Nd240 2.682 . S
O263 Nd241 2.414 . S
O263 C249 1.273 . S
O264 Nd240 2.410 . S
O264 C250 1.251 . S
O265 Nd241 2.424 . S
O265 C250 1.268 . S
O266 Nd241 2.500 . S
O266 C251 1.258 . S
O267 Nd241 2.492 . S
O267 C251 1.239 . S
O268 Nd241 2.487 . S
O268 C258 1.241 . S
O269 Nd240 2.414 . S
O269 Nd241 2.682 . S
O269 C258 1.273 . S
O270 Nd241 2.410 . S
O270 C259 1.251 . S
O271 Nd240 2.424 . S
O271 C259 1.268 . S
H272 C244 0.930 . S
H273 C245 0.929 . S
H274 C247 0.930 . S
H275 C248 0.929 . S
H276 C253 0.930 . S
H277 C254 0.929 . S
H278 C256 0.930 . S
H279 C257 0.929 . S
Nd280 C282 2.836 . S
Nd280 O300 2.500 . S
Nd280 O301 2.492 1_565 S
Nd280 O302 2.487 1_565 S
Nd280 O303 2.682 1_565 S
Nd280 O304 2.410 1_565 S
Nd280 O309 2.414 . S
Nd280 O311 2.424 . S
Nd281 C291 2.836 1_565 S
Nd281 O303 2.414 1_565 S
Nd281 O305 2.424 1_565 S
Nd281 O306 2.500 1_565 S
Nd281 O307 2.492 . S
Nd281 O308 2.487 . S
Nd281 O309 2.682 . S
Nd281 O310 2.410 . S
C282 Nd280 2.836 . S
C282 C283 1.498 . S
C282 O300 1.258 . S
C282 O301 1.239 1_565 S
C283 C282 1.498 . S
C283 C284 1.366 . S
C283 C288 1.407 1_565 S
C284 C283 1.366 . S
C284 C285 1.392 . S
C284 H312 0.930 . S
C285 C284 1.392 . S
C285 C286 1.398 . S
C285 H313 0.929 . S
C286 C285 1.398 . S
C286 C287 1.352 1_565 S
C287 C286 1.352 1_545 S
C287 C288 1.384 . S
C287 H314 0.930 . S
C288 C283 1.407 1_545 S
C288 C287 1.384 . S
C288 H315 0.929 . S
C289 O302 1.241 . S
C289 O303 1.273 . S
C290 O304 1.251 . S
C290 O305 1.268 . S
C291 Nd281 2.836 1_545 S
C291 C292 1.498 . S
C291 O306 1.258 . S
C291 O307 1.239 1_545 S
C292 C291 1.498 . S
C292 C293 1.366 . S
C292 C297 1.419 1_545 S
C293 C292 1.366 . S
C293 C294 1.392 . S
C293 H316 0.930 . S
C294 C293 1.392 . S
C294 C295 1.398 1_455 S
C294 H317 0.929 . S
C295 C294 1.398 1_655 S
C295 C296 1.352 1_545 S
C296 C295 1.352 1_565 S
C296 C297 1.375 1_655 S
C296 H318 0.930 . S
C297 C292 1.419 1_565 S
C297 C296 1.375 1_455 S
C297 H319 0.926 1_455 S
C298 O308 1.241 . S
C298 O309 1.273 . S
C299 O310 1.251 . S
C299 O311 1.268 . S
O300 Nd280 2.500 . S
O300 C282 1.258 . S
O301 Nd280 2.492 1_545 S
O301 C282 1.239 1_545 S
O302 Nd280 2.487 1_545 S
O302 C289 1.241 . S
O303 Nd280 2.682 1_545 S
O303 Nd281 2.414 1_545 S
O303 C289 1.273 . S
O304 Nd280 2.410 1_545 S
O304 C290 1.251 . S
O305 Nd281 2.424 1_545 S
O305 C290 1.268 . S
O306 Nd281 2.500 1_545 S
O306 C291 1.258 . S
O307 Nd281 2.492 . S
O307 C291 1.239 1_565 S
O308 Nd281 2.487 . S
O308 C298 1.241 . S
O309 Nd280 2.414 . S
O309 Nd281 2.682 . S
O309 C298 1.273 . S
O310 Nd281 2.410 . S
O310 C299 1.251 . S
O311 Nd280 2.424 . S
O311 C299 1.268 . S
H312 C284 0.930 . S
H313 C285 0.929 . S
H314 C287 0.930 . S
H315 C288 0.929 . S
H316 C293 0.930 . S
H317 C294 0.929 . S
H318 C296 0.930 . S
H319 C297 0.926 1_655 S
Nd320 C322 2.836 . S
Nd320 O340 2.500 . S
Nd320 O341 2.492 . S
Nd320 O342 2.487 . S
Nd320 O343 2.682 . S
Nd320 O344 2.410 . S
Nd320 O349 2.414 . S
Nd320 O351 2.424 . S
Nd321 C331 2.836 . S
Nd321 O343 2.414 . S
Nd321 O345 2.424 . S
Nd321 O346 2.500 . S
Nd321 O347 2.492 . S
Nd321 O348 2.487 . S
Nd321 O349 2.682 . S
Nd321 O350 2.410 . S
C322 Nd320 2.836 . S
C322 C323 1.498 . S
C322 O340 1.258 . S
C322 O341 1.239 . S
C323 C322 1.498 . S
C323 C324 1.366 . S
C323 C328 1.407 . S
C324 C323 1.366 . S
C324 C325 1.392 . S
C324 H352 0.930 . S
C325 C324 1.392 . S
C325 C326 1.398 . S
C325 H353 0.929 . S
C326 C325 1.398 . S
C326 C327 1.352 . S
C327 C326 1.352 . S
C327 C328 1.384 . S
C327 H354 0.930 . S
C328 C323 1.407 . S
C328 C327 1.384 . S
C328 H355 0.929 . S
C329 O342 1.241 . S
C329 O343 1.273 . S
C330 O344 1.251 . S
C330 O345 1.268 . S
C331 Nd321 2.836 . S
C331 C332 1.498 . S
C331 O346 1.258 . S
C331 O347 1.239 . S
C332 C331 1.498 . S
C332 C333 1.366 . S
C332 C337 1.407 . S
C333 C332 1.366 . S
C333 C334 1.392 . S
C333 H356 0.930 . S
C334 C333 1.392 . S
C334 C335 1.398 . S
C334 H357 0.929 . S
C335 C334 1.398 . S
C335 C336 1.352 . S
C336 C335 1.352 . S
C336 C337 1.384 . S
C336 H358 0.930 . S
C337 C332 1.407 . S
C337 C336 1.384 . S
C337 H359 0.929 . S
C338 O348 1.241 . S
C338 O349 1.273 . S
C339 O350 1.251 . S
C339 O351 1.268 . S
O340 Nd320 2.500 . S
O340 C322 1.258 . S
O341 Nd320 2.492 . S
O341 C322 1.239 . S
O342 Nd320 2.487 . S
O342 C329 1.241 . S
O343 Nd320 2.682 . S
O343 Nd321 2.414 . S
O343 C329 1.273 . S
O344 Nd320 2.410 . S
O344 C330 1.251 . S
O345 Nd321 2.424 . S
O345 C330 1.268 . S
O346 Nd321 2.500 . S
O346 C331 1.258 . S
O347 Nd321 2.492 . S
O347 C331 1.239 . S
O348 Nd321 2.487 . S
O348 C338 1.241 . S
O349 Nd320 2.414 . S
O349 Nd321 2.682 . S
O349 C338 1.273 . S
O350 Nd321 2.410 . S
O350 C339 1.251 . S
O351 Nd320 2.424 . S
O351 C339 1.268 . S
H352 C324 0.930 . S
H353 C325 0.929 . S
H354 C327 0.930 . S
H355 C328 0.929 . S
H356 C333 0.930 . S
H357 C334 0.929 . S
H358 C336 0.930 . S
H359 C337 0.929 . S
Nd360 C362 2.836 . S
Nd360 O380 2.500 . S
Nd360 O381 2.492 . S
Nd360 O382 2.487 . S
Nd360 O383 2.682 . S
Nd360 O384 2.410 . S
Nd360 O389 2.414 . S
Nd360 O391 2.424 . S
Nd361 C371 2.836 . S
Nd361 O383 2.414 . S
Nd361 O385 2.424 . S
Nd361 O386 2.500 . S
Nd361 O387 2.492 . S
Nd361 O388 2.487 . S
Nd361 O389 2.682 . S
Nd361 O390 2.410 . S
C362 Nd360 2.836 . S
C362 C363 1.498 . S
C362 O380 1.258 . S
C362 O381 1.239 . S
C363 C362 1.498 . S
C363 C364 1.366 . S
C363 C368 1.419 . S
C364 C363 1.366 . S
C364 C365 1.392 . S
C364 H392 0.930 . S
C365 C364 1.392 . S
C365 C366 1.398 1_655 S
C365 H393 0.929 . S
C366 C365 1.398 1_455 S
C366 C367 1.352 . S
C367 C366 1.352 . S
C367 C368 1.375 1_455 S
C367 H394 0.930 . S
C368 C363 1.419 . S
C368 C367 1.375 1_655 S
C368 H395 0.926 1_655 S
C369 O382 1.241 . S
C369 O383 1.273 . S
C370 O384 1.251 . S
C370 O385 1.268 . S
C371 Nd361 2.836 . S
C371 C372 1.498 . S
C371 O386 1.258 . S
C371 O387 1.239 . S
C372 C371 1.498 . S
C372 C373 1.366 . S
C372 C377 1.407 . S
C373 C372 1.366 . S
C373 C374 1.392 . S
C373 H396 0.930 . S
C374 C373 1.392 . S
C374 C375 1.398 . S
C374 H397 0.929 . S
C375 C374 1.398 . S
C375 C376 1.352 . S
C376 C375 1.352 . S
C376 C377 1.384 . S
C376 H398 0.930 . S
C377 C372 1.407 . S
C377 C376 1.384 . S
C377 H399 0.929 . S
C378 O388 1.241 . S
C378 O389 1.273 . S
C379 O390 1.251 . S
C379 O391 1.268 . S
O380 Nd360 2.500 . S
O380 C362 1.258 . S
O381 Nd360 2.492 . S
O381 C362 1.239 . S
O382 Nd360 2.487 . S
O382 C369 1.241 . S
O383 Nd360 2.682 . S
O383 Nd361 2.414 . S
O383 C369 1.273 . S
O384 Nd360 2.410 . S
O384 C370 1.251 . S
O385 Nd361 2.424 . S
O385 C370 1.268 . S
O386 Nd361 2.500 . S
O386 C371 1.258 . S
O387 Nd361 2.492 . S
O387 C371 1.239 . S
O388 Nd361 2.487 . S
O388 C378 1.241 . S
O389 Nd360 2.414 . S
O389 Nd361 2.682 . S
O389 C378 1.273 . S
O390 Nd361 2.410 . S
O390 C379 1.251 . S
O391 Nd360 2.424 . S
O391 C379 1.268 . S
H392 C364 0.930 . S
H393 C365 0.929 . S
H394 C367 0.930 . S
H395 C368 0.926 1_455 S
H396 C373 0.930 . S
H397 C374 0.929 . S
H398 C376 0.930 . S
H399 C377 0.929 . S
Nd400 C402 2.836 . S
Nd400 O420 2.500 . S
Nd400 O421 2.492 . S
Nd400 O422 2.487 . S
Nd400 O423 2.682 . S
Nd400 O424 2.410 . S
Nd400 O429 2.414 . S
Nd400 O431 2.424 . S
Nd401 C411 2.836 . S
Nd401 O423 2.414 . S
Nd401 O425 2.424 . S
Nd401 O426 2.500 . S
Nd401 O427 2.492 . S
Nd401 O428 2.487 . S
Nd401 O429 2.682 . S
Nd401 O430 2.410 . S
C402 Nd400 2.836 . S
C402 C403 1.498 . S
C402 O420 1.258 . S
C402 O421 1.239 . S
C403 C402 1.498 . S
C403 C404 1.366 . S
C403 C408 1.407 . S
C404 C403 1.366 . S
C404 C405 1.392 . S
C404 H432 0.930 . S
C405 C404 1.392 . S
C405 C406 1.398 . S
C405 H433 0.929 . S
C406 C405 1.398 . S
C406 C407 1.352 . S
C407 C406 1.352 . S
C407 C408 1.384 . S
C407 H434 0.930 . S
C408 C403 1.407 . S
C408 C407 1.384 . S
C408 H435 0.929 . S
C409 O422 1.241 . S
C409 O423 1.273 . S
C410 O424 1.251 . S
C410 O425 1.268 . S
C411 Nd401 2.836 . S
C411 C412 1.498 . S
C411 O426 1.258 . S
C411 O427 1.239 . S
C412 C411 1.498 . S
C412 C413 1.366 . S
C412 C417 1.407 . S
C413 C412 1.366 . S
C413 C414 1.392 . S
C413 H436 0.930 . S
C414 C413 1.392 . S
C414 C415 1.398 . S
C414 H437 0.929 . S
C415 C414 1.398 . S
C415 C416 1.352 . S
C416 C415 1.352 . S
C416 C417 1.384 . S
C416 H438 0.930 . S
C417 C412 1.407 . S
C417 C416 1.384 . S
C417 H439 0.929 . S
C418 O428 1.241 . S
C418 O429 1.273 . S
C419 O430 1.251 . S
C419 O431 1.268 . S
O420 Nd400 2.500 . S
O420 C402 1.258 . S
O421 Nd400 2.492 . S
O421 C402 1.239 . S
O422 Nd400 2.487 . S
O422 C409 1.241 . S
O423 Nd400 2.682 . S
O423 Nd401 2.414 . S
O423 C409 1.273 . S
O424 Nd400 2.410 . S
O424 C410 1.251 . S
O425 Nd401 2.424 . S
O425 C410 1.268 . S
O426 Nd401 2.500 . S
O426 C411 1.258 . S
O427 Nd401 2.492 . S
O427 C411 1.239 . S
O428 Nd401 2.487 . S
O428 C418 1.241 . S
O429 Nd400 2.414 . S
O429 Nd401 2.682 . S
O429 C418 1.273 . S
O430 Nd401 2.410 . S
O430 C419 1.251 . S
O431 Nd400 2.424 . S
O431 C419 1.268 . S
H432 C404 0.930 . S
H433 C405 0.929 . S
H434 C407 0.930 . S
H435 C408 0.929 . S
H436 C413 0.930 . S
H437 C414 0.929 . S
H438 C416 0.930 . S
H439 C417 0.929 . S
Nd440 C442 2.836 . S
Nd440 O460 2.500 . S
Nd440 O461 2.492 . S
Nd440 O462 2.487 . S
Nd440 O463 2.682 . S
Nd440 O464 2.410 . S
Nd440 O469 2.414 . S
Nd440 O471 2.424 . S
Nd441 C451 2.836 . S
Nd441 O463 2.414 . S
Nd441 O465 2.424 . S
Nd441 O466 2.500 . S
Nd441 O467 2.492 . S
Nd441 O468 2.487 . S
Nd441 O469 2.682 . S
Nd441 O470 2.410 . S
C442 Nd440 2.836 . S
C442 C443 1.498 . S
C442 O460 1.258 . S
C442 O461 1.239 . S
C443 C442 1.498 . S
C443 C444 1.366 . S
C443 C448 1.419 . S
C444 C443 1.366 . S
C444 C445 1.392 . S
C444 H472 0.930 . S
C445 C444 1.392 . S
C445 C446 1.398 1_655 S
C445 H473 0.929 . S
C446 C445 1.398 1_455 S
C446 C447 1.352 . S
C447 C446 1.352 . S
C447 C448 1.375 1_455 S
C447 H474 0.930 . S
C448 C443 1.419 . S
C448 C447 1.375 1_655 S
C448 H475 0.926 1_655 S
C449 O462 1.241 . S
C449 O463 1.273 . S
C450 O464 1.251 . S
C450 O465 1.268 . S
C451 Nd441 2.836 . S
C451 C452 1.498 . S
C451 O466 1.258 . S
C451 O467 1.239 . S
C452 C451 1.498 . S
C452 C453 1.366 . S
C452 C457 1.407 . S
C453 C452 1.366 . S
C453 C454 1.392 . S
C453 H476 0.930 . S
C454 C453 1.392 . S
C454 C455 1.398 . S
C454 H477 0.929 . S
C455 C454 1.398 . S
C455 C456 1.352 . S
C456 C455 1.352 . S
C456 C457 1.384 . S
C456 H478 0.930 . S
C457 C452 1.407 . S
C457 C456 1.384 . S
C457 H479 0.929 . S
C458 O468 1.241 . S
C458 O469 1.273 . S
C459 O470 1.251 . S
C459 O471 1.268 . S
O460 Nd440 2.500 . S
O460 C442 1.258 . S
O461 Nd440 2.492 . S
O461 C442 1.239 . S
O462 Nd440 2.487 . S
O462 C449 1.241 . S
O463 Nd440 2.682 . S
O463 Nd441 2.414 . S
O463 C449 1.273 . S
O464 Nd440 2.410 . S
O464 C450 1.251 . S
O465 Nd441 2.424 . S
O465 C450 1.268 . S
O466 Nd441 2.500 . S
O466 C451 1.258 . S
O467 Nd441 2.492 . S
O467 C451 1.239 . S
O468 Nd441 2.487 . S
O468 C458 1.241 . S
O469 Nd440 2.414 . S
O469 Nd441 2.682 . S
O469 C458 1.273 . S
O470 Nd441 2.410 . S
O470 C459 1.251 . S
O471 Nd440 2.424 . S
O471 C459 1.268 . S
H472 C444 0.930 . S
H473 C445 0.929 . S
H474 C447 0.930 . S
H475 C448 0.926 1_455 S
H476 C453 0.930 . S
H477 C454 0.929 . S
H478 C456 0.930 . S
H479 C457 0.929 . S
Nd480 C482 2.836 . S
Nd480 O500 2.500 . S
Nd480 O501 2.492 . S
Nd480 O502 2.487 . S
Nd480 O503 2.682 . S
Nd480 O504 2.410 . S
Nd480 O509 2.414 . S
Nd480 O511 2.424 . S
Nd481 C491 2.836 . S
Nd481 O503 2.414 . S
Nd481 O505 2.424 . S
Nd481 O506 2.500 . S
Nd481 O507 2.492 . S
Nd481 O508 2.487 . S
Nd481 O509 2.682 . S
Nd481 O510 2.410 . S
C482 Nd480 2.836 . S
C482 C483 1.498 . S
C482 O500 1.258 . S
C482 O501 1.239 . S
C483 C482 1.498 . S
C483 C484 1.366 . S
C483 C488 1.407 . S
C484 C483 1.366 . S
C484 C485 1.392 . S
C484 H512 0.930 . S
C485 C484 1.392 . S
C485 C486 1.398 . S
C485 H513 0.929 . S
C486 C485 1.398 . S
C486 C487 1.352 . S
C487 C486 1.352 . S
C487 C488 1.384 . S
C487 H514 0.930 . S
C488 C483 1.407 . S
C488 C487 1.384 . S
C488 H515 0.929 . S
C489 O502 1.241 . S
C489 O503 1.273 . S
C490 O504 1.251 . S
C490 O505 1.268 . S
C491 Nd481 2.836 . S
C491 C492 1.498 . S
C491 O506 1.258 . S
C491 O507 1.239 . S
C492 C491 1.498 . S
C492 C493 1.366 . S
C492 C497 1.407 . S
C493 C492 1.366 . S
C493 C494 1.392 . S
C493 H516 0.930 . S
C494 C493 1.392 . S
C494 C495 1.398 . S
C494 H517 0.929 . S
C495 C494 1.398 . S
C495 C496 1.352 . S
C496 C495 1.352 . S
C496 C497 1.384 . S
C496 H518 0.930 . S
C497 C492 1.407 . S
C497 C496 1.384 . S
C497 H519 0.929 . S
C498 O508 1.241 . S
C498 O509 1.273 . S
C499 O510 1.251 . S
C499 O511 1.268 . S
O500 Nd480 2.500 . S
O500 C482 1.258 . S
O501 Nd480 2.492 . S
O501 C482 1.239 . S
O502 Nd480 2.487 . S
O502 C489 1.241 . S
O503 Nd480 2.682 . S
O503 Nd481 2.414 . S
O503 C489 1.273 . S
O504 Nd480 2.410 . S
O504 C490 1.251 . S
O505 Nd481 2.424 . S
O505 C490 1.268 . S
O506 Nd481 2.500 . S
O506 C491 1.258 . S
O507 Nd481 2.492 . S
O507 C491 1.239 . S
O508 Nd481 2.487 . S
O508 C498 1.241 . S
O509 Nd480 2.414 . S
O509 Nd481 2.682 . S
O509 C498 1.273 . S
O510 Nd481 2.410 . S
O510 C499 1.251 . S
O511 Nd480 2.424 . S
O511 C499 1.268 . S
H512 C484 0.930 . S
H513 C485 0.929 . S
H514 C487 0.930 . S
H515 C488 0.929 . S
H516 C493 0.930 . S
H517 C494 0.929 . S
H518 C496 0.930 . S
H519 C497 0.929 . S
Nd520 C522 2.836 . S
Nd520 O540 2.500 . S
Nd520 O541 2.492 . S
Nd520 O542 2.487 . S
Nd520 O543 2.682 . S
Nd520 O544 2.410 . S
Nd520 O549 2.414 . S
Nd520 O551 2.424 . S
Nd521 C531 2.836 . S
Nd521 O543 2.414 . S
Nd521 O545 2.424 . S
Nd521 O546 2.500 . S
Nd521 O547 2.492 . S
Nd521 O548 2.487 . S
Nd521 O549 2.682 . S
Nd521 O550 2.410 . S
C522 Nd520 2.836 . S
C522 C523 1.498 . S
C522 O540 1.258 . S
C522 O541 1.239 . S
C523 C522 1.498 . S
C523 C524 1.366 . S
C523 C528 1.407 . S
C524 C523 1.366 . S
C524 C525 1.392 . S
C524 H552 0.930 . S
C525 C524 1.392 . S
C525 C526 1.398 . S
C525 H553 0.929 . S
C526 C525 1.398 . S
C526 C527 1.352 . S
C527 C526 1.352 . S
C527 C528 1.384 . S
C527 H554 0.930 . S
C528 C523 1.407 . S
C528 C527 1.384 . S
C528 H555 0.929 . S
C529 O542 1.241 . S
C529 O543 1.273 . S
C530 O544 1.251 . S
C530 O545 1.268 . S
C531 Nd521 2.836 . S
C531 C532 1.498 . S
C531 O546 1.258 . S
C531 O547 1.239 . S
C532 C531 1.498 . S
C532 C533 1.366 . S
C532 C537 1.419 . S
C533 C532 1.366 . S
C533 C534 1.392 . S
C533 H556 0.930 . S
C534 C533 1.392 . S
C534 C535 1.398 1_455 S
C534 H557 0.929 . S
C535 C534 1.398 1_655 S
C535 C536 1.352 . S
C536 C535 1.352 . S
C536 C537 1.375 1_655 S
C536 H558 0.930 . S
C537 C532 1.419 . S
C537 C536 1.375 1_455 S
C537 H559 0.926 1_455 S
C538 O548 1.241 . S
C538 O549 1.273 . S
C539 O550 1.251 . S
C539 O551 1.268 . S
O540 Nd520 2.500 . S
O540 C522 1.258 . S
O541 Nd520 2.492 . S
O541 C522 1.239 . S
O542 Nd520 2.487 . S
O542 C529 1.241 . S
O543 Nd520 2.682 . S
O543 Nd521 2.414 . S
O543 C529 1.273 . S
O544 Nd520 2.410 . S
O544 C530 1.251 . S
O545 Nd521 2.424 . S
O545 C530 1.268 . S
O546 Nd521 2.500 . S
O546 C531 1.258 . S
O547 Nd521 2.492 . S
O547 C531 1.239 . S
O548 Nd521 2.487 . S
O548 C538 1.241 . S
O549 Nd520 2.414 . S
O549 Nd521 2.682 . S
O549 C538 1.273 . S
O550 Nd521 2.410 . S
O550 C539 1.251 . S
O551 Nd520 2.424 . S
O551 C539 1.268 . S
H552 C524 0.930 . S
H553 C525 0.929 . S
H554 C527 0.930 . S
H555 C528 0.929 . S
H556 C533 0.930 . S
H557 C534 0.929 . S
H558 C536 0.930 . S
H559 C537 0.926 1_655 S
Nd560 C562 2.836 . S
Nd560 O580 2.500 . S
Nd560 O581 2.492 . S
Nd560 O582 2.487 . S
Nd560 O583 2.682 . S
Nd560 O584 2.410 . S
Nd560 O589 2.414 . S
Nd560 O591 2.424 . S
Nd561 C571 2.836 . S
Nd561 O583 2.414 . S
Nd561 O585 2.424 . S
Nd561 O586 2.500 . S
Nd561 O587 2.492 . S
Nd561 O588 2.487 . S
Nd561 O589 2.682 . S
Nd561 O590 2.410 . S
C562 Nd560 2.836 . S
C562 C563 1.498 . S
C562 O580 1.258 . S
C562 O581 1.239 . S
C563 C562 1.498 . S
C563 C564 1.366 . S
C563 C568 1.407 . S
C564 C563 1.366 . S
C564 C565 1.392 . S
C564 H592 0.930 . S
C565 C564 1.392 . S
C565 C566 1.398 . S
C565 H593 0.929 . S
C566 C565 1.398 . S
C566 C567 1.352 . S
C567 C566 1.352 . S
C567 C568 1.384 . S
C567 H594 0.930 . S
C568 C563 1.407 . S
C568 C567 1.384 . S
C568 H595 0.929 . S
C569 O582 1.241 . S
C569 O583 1.273 . S
C570 O584 1.251 . S
C570 O585 1.268 . S
C571 Nd561 2.836 . S
C571 C572 1.498 . S
C571 O586 1.258 . S
C571 O587 1.239 . S
C572 C571 1.498 . S
C572 C573 1.366 . S
C572 C577 1.407 . S
C573 C572 1.366 . S
C573 C574 1.392 . S
C573 H596 0.930 . S
C574 C573 1.392 . S
C574 C575 1.398 . S
C574 H597 0.929 . S
C575 C574 1.398 . S
C575 C576 1.352 . S
C576 C575 1.352 . S
C576 C577 1.384 . S
C576 H598 0.930 . S
C577 C572 1.407 . S
C577 C576 1.384 . S
C577 H599 0.929 . S
C578 O588 1.241 . S
C578 O589 1.273 . S
C579 O590 1.251 . S
C579 O591 1.268 . S
O580 Nd560 2.500 . S
O580 C562 1.258 . S
O581 Nd560 2.492 . S
O581 C562 1.239 . S
O582 Nd560 2.487 . S
O582 C569 1.241 . S
O583 Nd560 2.682 . S
O583 Nd561 2.414 . S
O583 C569 1.273 . S
O584 Nd560 2.410 . S
O584 C570 1.251 . S
O585 Nd561 2.424 . S
O585 C570 1.268 . S
O586 Nd561 2.500 . S
O586 C571 1.258 . S
O587 Nd561 2.492 . S
O587 C571 1.239 . S
O588 Nd561 2.487 . S
O588 C578 1.241 . S
O589 Nd560 2.414 . S
O589 Nd561 2.682 . S
O589 C578 1.273 . S
O590 Nd561 2.410 . S
O590 C579 1.251 . S
O591 Nd560 2.424 . S
O591 C579 1.268 . S
H592 C564 0.930 . S
H593 C565 0.929 . S
H594 C567 0.930 . S
H595 C568 0.929 . S
H596 C573 0.930 . S
H597 C574 0.929 . S
H598 C576 0.930 . S
H599 C577 0.929 . S
Nd600 C602 2.836 . S
Nd600 O620 2.500 . S
Nd600 O621 2.492 . S
Nd600 O622 2.487 . S
Nd600 O623 2.682 . S
Nd600 O624 2.410 . S
Nd600 O629 2.414 . S
Nd600 O631 2.424 . S
Nd601 C611 2.836 . S
Nd601 O623 2.414 . S
Nd601 O625 2.424 . S
Nd601 O626 2.500 . S
Nd601 O627 2.492 . S
Nd601 O628 2.487 . S
Nd601 O629 2.682 . S
Nd601 O630 2.410 . S
C602 Nd600 2.836 . S
C602 C603 1.498 . S
C602 O620 1.258 . S
C602 O621 1.239 . S
C603 C602 1.498 . S
C603 C604 1.366 . S
C603 C608 1.407 . S
C604 C603 1.366 . S
C604 C605 1.392 . S
C604 H632 0.930 . S
C605 C604 1.392 . S
C605 C606 1.398 . S
C605 H633 0.929 . S
C606 C605 1.398 . S
C606 C607 1.352 . S
C607 C606 1.352 . S
C607 C608 1.384 . S
C607 H634 0.930 . S
C608 C603 1.407 . S
C608 C607 1.384 . S
C608 H635 0.929 . S
C609 O622 1.241 . S
C609 O623 1.273 . S
C610 O624 1.251 . S
C610 O625 1.268 . S
C611 Nd601 2.836 . S
C611 C612 1.498 . S
C611 O626 1.258 . S
C611 O627 1.239 . S
C612 C611 1.498 . S
C612 C613 1.366 . S
C612 C617 1.419 . S
C613 C612 1.366 . S
C613 C614 1.392 . S
C613 H636 0.930 . S
C614 C613 1.392 . S
C614 C615 1.398 1_455 S
C614 H637 0.929 . S
C615 C614 1.398 1_655 S
C615 C616 1.352 . S
C616 C615 1.352 . S
C616 C617 1.375 1_655 S
C616 H638 0.930 . S
C617 C612 1.419 . S
C617 C616 1.375 1_455 S
C617 H639 0.926 1_455 S
C618 O628 1.241 . S
C618 O629 1.273 . S
C619 O630 1.251 . S
C619 O631 1.268 . S
O620 Nd600 2.500 . S
O620 C602 1.258 . S
O621 Nd600 2.492 . S
O621 C602 1.239 . S
O622 Nd600 2.487 . S
O622 C609 1.241 . S
O623 Nd600 2.682 . S
O623 Nd601 2.414 . S
O623 C609 1.273 . S
O624 Nd600 2.410 . S
O624 C610 1.251 . S
O625 Nd601 2.424 . S
O625 C610 1.268 . S
O626 Nd601 2.500 . S
O626 C611 1.258 . S
O627 Nd601 2.492 . S
O627 C611 1.239 . S
O628 Nd601 2.487 . S
O628 C618 1.241 . S
O629 Nd600 2.414 . S
O629 Nd601 2.682 . S
O629 C618 1.273 . S
O630 Nd601 2.410 . S
O630 C619 1.251 . S
O631 Nd600 2.424 . S
O631 C619 1.268 . S
H632 C604 0.930 . S
H633 C605 0.929 . S
H634 C607 0.930 . S
H635 C608 0.929 . S
H636 C613 0.930 . S
H637 C614 0.929 . S
H638 C616 0.930 . S
H639 C617 0.926 1_655 S
Nd640 C642 2.836 1_545 S
Nd640 O660 2.500 1_545 S
Nd640 O661 2.492 . S
Nd640 O662 2.487 . S
Nd640 O663 2.682 . S
Nd640 O664 2.410 . S
Nd640 O669 2.414 1_545 S
Nd640 O671 2.424 1_545 S
Nd641 C651 2.836 . S
Nd641 O663 2.414 . S
Nd641 O665 2.424 . S
Nd641 O666 2.500 . S
Nd641 O667 2.492 1_545 S
Nd641 O668 2.487 1_545 S
Nd641 O669 2.682 1_545 S
Nd641 O670 2.410 1_545 S
C642 Nd640 2.836 1_565 S
C642 C643 1.498 . S
C642 O660 1.258 . S
C642 O661 1.239 1_565 S
C643 C642 1.498 . S
C643 C644 1.366 . S
C643 C648 1.407 1_565 S
C644 C643 1.366 . S
C644 C645 1.392 . S
C644 H672 0.930 . S
C645 C644 1.392 . S
C645 C646 1.398 . S
C645 H673 0.929 . S
C646 C645 1.398 . S
C646 C647 1.352 1_565 S
C647 C646 1.352 1_545 S
C647 C648 1.384 . S
C647 H674 0.930 . S
C648 C643 1.407 1_545 S
C648 C647 1.384 . S
C648 H675 0.929 . S
C649 O662 1.241 . S
C649 O663 1.273 . S
C650 O664 1.251 . S
C650 O665 1.268 . S
C651 Nd641 2.836 . S
C651 C652 1.498 . S
C651 O666 1.258 . S
C651 O667 1.239 1_545 S
C652 C651 1.498 . S
C652 C653 1.366 . S
C652 C657 1.407 1_545 S
C653 C652 1.366 . S
C653 C654 1.392 . S
C653 H676 0.930 . S
C654 C653 1.392 . S
C654 C655 1.398 . S
C654 H677 0.929 . S
C655 C654 1.398 . S
C655 C656 1.352 1_545 S
C656 C655 1.352 1_565 S
C656 C657 1.384 . S
C656 H678 0.930 . S
C657 C652 1.407 1_565 S
C657 C656 1.384 . S
C657 H679 0.929 . S
C658 O668 1.241 . S
C658 O669 1.273 . S
C659 O670 1.251 . S
C659 O671 1.268 . S
O660 Nd640 2.500 1_565 S
O660 C642 1.258 . S
O661 Nd640 2.492 . S
O661 C642 1.239 1_545 S
O662 Nd640 2.487 . S
O662 C649 1.241 . S
O663 Nd640 2.682 . S
O663 Nd641 2.414 . S
O663 C649 1.273 . S
O664 Nd640 2.410 . S
O664 C650 1.251 . S
O665 Nd641 2.424 . S
O665 C650 1.268 . S
O666 Nd641 2.500 . S
O666 C651 1.258 . S
O667 Nd641 2.492 1_565 S
O667 C651 1.239 1_565 S
O668 Nd641 2.487 1_565 S
O668 C658 1.241 . S
O669 Nd640 2.414 1_565 S
O669 Nd641 2.682 1_565 S
O669 C658 1.273 . S
O670 Nd641 2.410 1_565 S
O670 C659 1.251 . S
O671 Nd640 2.424 1_565 S
O671 C659 1.268 . S
H672 C644 0.930 . S
H673 C645 0.929 . S
H674 C647 0.930 . S
H675 C648 0.929 . S
H676 C653 0.930 . S
H677 C654 0.929 . S
H678 C656 0.930 . S
H679 C657 0.929 . S
Nd680 C682 2.836 . S
Nd680 O700 2.500 . S
Nd680 O701 2.492 . S
Nd680 O702 2.487 . S
Nd680 O703 2.682 . S
Nd680 O704 2.410 . S
Nd680 O709 2.414 . S
Nd680 O711 2.424 . S
Nd681 C691 2.836 . S
Nd681 O703 2.414 . S
Nd681 O705 2.424 . S
Nd681 O706 2.500 . S
Nd681 O707 2.492 . S
Nd681 O708 2.487 . S
Nd681 O709 2.682 . S
Nd681 O710 2.410 . S
C682 Nd680 2.836 . S
C682 C683 1.498 . S
C682 O700 1.258 . S
C682 O701 1.239 . S
C683 C682 1.498 . S
C683 C684 1.366 . S
C683 C688 1.407 . S
C684 C683 1.366 . S
C684 C685 1.392 . S
C684 H712 0.930 . S
C685 C684 1.392 . S
C685 C686 1.398 . S
C685 H713 0.929 . S
C686 C685 1.398 . S
C686 C687 1.352 . S
C687 C686 1.352 . S
C687 C688 1.384 . S
C687 H714 0.930 . S
C688 C683 1.407 . S
C688 C687 1.384 . S
C688 H715 0.929 . S
C689 O702 1.241 . S
C689 O703 1.273 . S
C690 O704 1.251 . S
C690 O705 1.268 . S
C691 Nd681 2.836 . S
C691 C692 1.498 . S
C691 O706 1.258 . S
C691 O707 1.239 . S
C692 C691 1.498 . S
C692 C693 1.366 . S
C692 C697 1.407 . S
C693 C692 1.366 . S
C693 C694 1.392 . S
C693 H716 0.930 . S
C694 C693 1.392 . S
C694 C695 1.398 . S
C694 H717 0.929 . S
C695 C694 1.398 . S
C695 C696 1.352 . S
C696 C695 1.352 . S
C696 C697 1.384 . S
C696 H718 0.930 . S
C697 C692 1.407 . S
C697 C696 1.384 . S
C697 H719 0.929 . S
C698 O708 1.241 . S
C698 O709 1.273 . S
C699 O710 1.251 . S
C699 O711 1.268 . S
O700 Nd680 2.500 . S
O700 C682 1.258 . S
O701 Nd680 2.492 . S
O701 C682 1.239 . S
O702 Nd680 2.487 . S
O702 C689 1.241 . S
O703 Nd680 2.682 . S
O703 Nd681 2.414 . S
O703 C689 1.273 . S
O704 Nd680 2.410 . S
O704 C690 1.251 . S
O705 Nd681 2.424 . S
O705 C690 1.268 . S
O706 Nd681 2.500 . S
O706 C691 1.258 . S
O707 Nd681 2.492 . S
O707 C691 1.239 . S
O708 Nd681 2.487 . S
O708 C698 1.241 . S
O709 Nd680 2.414 . S
O709 Nd681 2.682 . S
O709 C698 1.273 . S
O710 Nd681 2.410 . S
O710 C699 1.251 . S
O711 Nd680 2.424 . S
O711 C699 1.268 . S
H712 C684 0.930 . S
H713 C685 0.929 . S
H714 C687 0.930 . S
H715 C688 0.929 . S
H716 C693 0.930 . S
H717 C694 0.929 . S
H718 C696 0.930 . S
H719 C697 0.929 . S
Nd720 C722 2.836 . S
Nd720 O740 2.500 . S
Nd720 O741 2.492 . S
Nd720 O742 2.487 . S
Nd720 O743 2.682 . S
Nd720 O744 2.410 . S
Nd720 O749 2.414 . S
Nd720 O751 2.424 . S
Nd721 C731 2.836 . S
Nd721 O743 2.414 . S
Nd721 O745 2.424 . S
Nd721 O746 2.500 . S
Nd721 O747 2.492 . S
Nd721 O748 2.487 . S
Nd721 O749 2.682 . S
Nd721 O750 2.410 . S
C722 Nd720 2.836 . S
C722 C723 1.498 . S
C722 O740 1.258 . S
C722 O741 1.239 . S
C723 C722 1.498 . S
C723 C724 1.366 . S
C723 C728 1.407 . S
C724 C723 1.366 . S
C724 C725 1.392 . S
C724 H752 0.930 . S
C725 C724 1.392 . S
C725 C726 1.398 . S
C725 H753 0.929 . S
C726 C725 1.398 . S
C726 C727 1.352 . S
C727 C726 1.352 . S
C727 C728 1.384 . S
C727 H754 0.930 . S
C728 C723 1.407 . S
C728 C727 1.384 . S
C728 H755 0.929 . S
C729 O742 1.241 . S
C729 O743 1.273 . S
C730 O744 1.251 . S
C730 O745 1.268 . S
C731 Nd721 2.836 . S
C731 C732 1.498 . S
C731 O746 1.258 . S
C731 O747 1.239 . S
C732 C731 1.498 . S
C732 C733 1.366 . S
C732 C737 1.407 . S
C733 C732 1.366 . S
C733 C734 1.392 . S
C733 H756 0.930 . S
C734 C733 1.392 . S
C734 C735 1.398 . S
C734 H757 0.929 . S
C735 C734 1.398 . S
C735 C736 1.352 . S
C736 C735 1.352 . S
C736 C737 1.384 . S
C736 H758 0.930 . S
C737 C732 1.407 . S
C737 C736 1.384 . S
C737 H759 0.929 . S
C738 O748 1.241 . S
C738 O749 1.273 . S
C739 O750 1.251 . S
C739 O751 1.268 . S
O740 Nd720 2.500 . S
O740 C722 1.258 . S
O741 Nd720 2.492 . S
O741 C722 1.239 . S
O742 Nd720 2.487 . S
O742 C729 1.241 . S
O743 Nd720 2.682 . S
O743 Nd721 2.414 . S
O743 C729 1.273 . S
O744 Nd720 2.410 . S
O744 C730 1.251 . S
O745 Nd721 2.424 . S
O745 C730 1.268 . S
O746 Nd721 2.500 . S
O746 C731 1.258 . S
O747 Nd721 2.492 . S
O747 C731 1.239 . S
O748 Nd721 2.487 . S
O748 C738 1.241 . S
O749 Nd720 2.414 . S
O749 Nd721 2.682 . S
O749 C738 1.273 . S
O750 Nd721 2.410 . S
O750 C739 1.251 . S
O751 Nd720 2.424 . S
O751 C739 1.268 . S
H752 C724 0.930 . S
H753 C725 0.929 . S
H754 C727 0.930 . S
H755 C728 0.929 . S
H756 C733 0.930 . S
H757 C734 0.929 . S
H758 C736 0.930 . S
H759 C737 0.929 . S
Nd760 C762 2.836 1_545 S
Nd760 O780 2.500 1_545 S
Nd760 O781 2.492 . S
Nd760 O782 2.487 . S
Nd760 O783 2.682 . S
Nd760 O784 2.410 . S
Nd760 O789 2.414 1_545 S
Nd760 O791 2.424 1_545 S
Nd761 C771 2.836 . S
Nd761 O783 2.414 . S
Nd761 O785 2.424 . S
Nd761 O786 2.500 . S
Nd761 O787 2.492 1_545 S
Nd761 O788 2.487 1_545 S
Nd761 O789 2.682 1_545 S
Nd761 O790 2.410 1_545 S
C762 Nd760 2.836 1_565 S
C762 C763 1.498 . S
C762 O780 1.258 . S
C762 O781 1.239 1_565 S
C763 C762 1.498 . S
C763 C764 1.366 . S
C763 C768 1.407 1_565 S
C764 C763 1.366 . S
C764 C765 1.392 . S
C764 H792 0.930 . S
C765 C764 1.392 . S
C765 C766 1.398 . S
C765 H793 0.929 . S
C766 C765 1.398 . S
C766 C767 1.352 1_565 S
C767 C766 1.352 1_545 S
C767 C768 1.384 . S
C767 H794 0.930 . S
C768 C763 1.407 1_545 S
C768 C767 1.384 . S
C768 H795 0.929 . S
C769 O782 1.241 . S
C769 O783 1.273 . S
C770 O784 1.251 . S
C770 O785 1.268 . S
C771 Nd761 2.836 . S
C771 C772 1.498 . S
C771 O786 1.258 . S
C771 O787 1.239 1_545 S
C772 C771 1.498 . S
C772 C773 1.366 . S
C772 C777 1.407 1_545 S
C773 C772 1.366 . S
C773 C774 1.392 . S
C773 H796 0.930 . S
C774 C773 1.392 . S
C774 C775 1.398 . S
C774 H797 0.929 . S
C775 C774 1.398 . S
C775 C776 1.352 1_545 S
C776 C775 1.352 1_565 S
C776 C777 1.384 . S
C776 H798 0.930 . S
C777 C772 1.407 1_565 S
C777 C776 1.384 . S
C777 H799 0.929 . S
C778 O788 1.241 . S
C778 O789 1.273 . S
C779 O790 1.251 . S
C779 O791 1.268 . S
O780 Nd760 2.500 1_565 S
O780 C762 1.258 . S
O781 Nd760 2.492 . S
O781 C762 1.239 1_545 S
O782 Nd760 2.487 . S
O782 C769 1.241 . S
O783 Nd760 2.682 . S
O783 Nd761 2.414 . S
O783 C769 1.273 . S
O784 Nd760 2.410 . S
O784 C770 1.251 . S
O785 Nd761 2.424 . S
O785 C770 1.268 . S
O786 Nd761 2.500 . S
O786 C771 1.258 . S
O787 Nd761 2.492 1_565 S
O787 C771 1.239 1_565 S
O788 Nd761 2.487 1_565 S
O788 C778 1.241 . S
O789 Nd760 2.414 1_565 S
O789 Nd761 2.682 1_565 S
O789 C778 1.273 . S
O790 Nd761 2.410 1_565 S
O790 C779 1.251 . S
O791 Nd760 2.424 1_565 S
O791 C779 1.268 . S
H792 C764 0.930 . S
H793 C765 0.929 . S
H794 C767 0.930 . S
H795 C768 0.929 . S
H796 C773 0.930 . S
H797 C774 0.929 . S
H798 C776 0.930 . S
H799 C777 0.929 . S
Nd800 C802 2.836 . S
Nd800 O820 2.500 . S
Nd800 O821 2.492 1_565 S
Nd800 O822 2.487 1_565 S
Nd800 O823 2.682 1_565 S
Nd800 O824 2.410 1_565 S
Nd800 O829 2.414 . S
Nd800 O831 2.424 . S
Nd801 C811 2.836 1_565 S
Nd801 O823 2.414 1_565 S
Nd801 O825 2.424 1_565 S
Nd801 O826 2.500 1_565 S
Nd801 O827 2.492 . S
Nd801 O828 2.487 . S
Nd801 O829 2.682 . S
Nd801 O830 2.410 . S
C802 Nd800 2.836 . S
C802 C803 1.498 . S
C802 O820 1.258 . S
C802 O821 1.239 1_565 S
C803 C802 1.498 . S
C803 C804 1.366 . S
C803 C808 1.407 1_565 S
C804 C803 1.366 . S
C804 C805 1.392 . S
C804 H832 0.930 . S
C805 C804 1.392 . S
C805 C806 1.398 . S
C805 H833 0.929 . S
C806 C805 1.398 . S
C806 C807 1.352 1_565 S
C807 C806 1.352 1_545 S
C807 C808 1.384 . S
C807 H834 0.930 . S
C808 C803 1.407 1_545 S
C808 C807 1.384 . S
C808 H835 0.929 . S
C809 O822 1.241 . S
C809 O823 1.273 . S
C810 O824 1.251 . S
C810 O825 1.268 . S
C811 Nd801 2.836 1_545 S
C811 C812 1.498 . S
C811 O826 1.258 . S
C811 O827 1.239 1_545 S
C812 C811 1.498 . S
C812 C813 1.366 . S
C812 C817 1.407 1_545 S
C813 C812 1.366 . S
C813 C814 1.392 . S
C813 H836 0.930 . S
C814 C813 1.392 . S
C814 C815 1.398 . S
C814 H837 0.929 . S
C815 C814 1.398 . S
C815 C816 1.352 1_545 S
C816 C815 1.352 1_565 S
C816 C817 1.384 . S
C816 H838 0.930 . S
C817 C812 1.407 1_565 S
C817 C816 1.384 . S
C817 H839 0.929 . S
C818 O828 1.241 . S
C818 O829 1.273 . S
C819 O830 1.251 . S
C819 O831 1.268 . S
O820 Nd800 2.500 . S
O820 C802 1.258 . S
O821 Nd800 2.492 1_545 S
O821 C802 1.239 1_545 S
O822 Nd800 2.487 1_545 S
O822 C809 1.241 . S
O823 Nd800 2.682 1_545 S
O823 Nd801 2.414 1_545 S
O823 C809 1.273 . S
O824 Nd800 2.410 1_545 S
O824 C810 1.251 . S
O825 Nd801 2.424 1_545 S
O825 C810 1.268 . S
O826 Nd801 2.500 1_545 S
O826 C811 1.258 . S
O827 Nd801 2.492 . S
O827 C811 1.239 1_565 S
O828 Nd801 2.487 . S
O828 C818 1.241 . S
O829 Nd800 2.414 . S
O829 Nd801 2.682 . S
O829 C818 1.273 . S
O830 Nd801 2.410 . S
O830 C819 1.251 . S
O831 Nd800 2.424 . S
O831 C819 1.268 . S
H832 C804 0.930 . S
H833 C805 0.929 . S
H834 C807 0.930 . S
H835 C808 0.929 . S
H836 C813 0.930 . S
H837 C814 0.929 . S
H838 C816 0.930 . S
H839 C817 0.929 . S
Nd840 C842 2.836 . S
Nd840 O860 2.500 . S
Nd840 O861 2.492 . S
Nd840 O862 2.487 . S
Nd840 O863 2.682 . S
Nd840 O864 2.410 . S
Nd840 O869 2.414 . S
Nd840 O871 2.424 . S
Nd841 C851 2.836 . S
Nd841 O863 2.414 . S
Nd841 O865 2.424 . S
Nd841 O866 2.500 . S
Nd841 O867 2.492 . S
Nd841 O868 2.487 . S
Nd841 O869 2.682 . S
Nd841 O870 2.410 . S
C842 Nd840 2.836 . S
C842 C843 1.498 . S
C842 O860 1.258 . S
C842 O861 1.239 . S
C843 C842 1.498 . S
C843 C844 1.366 . S
C843 C848 1.407 . S
C844 C843 1.366 . S
C844 C845 1.392 . S
C844 H872 0.930 . S
C845 C844 1.392 . S
C845 C846 1.398 . S
C845 H873 0.929 . S
C846 C845 1.398 . S
C846 C847 1.352 . S
C847 C846 1.352 . S
C847 C848 1.384 . S
C847 H874 0.930 . S
C848 C843 1.407 . S
C848 C847 1.384 . S
C848 H875 0.929 . S
C849 O862 1.241 . S
C849 O863 1.273 . S
C850 O864 1.251 . S
C850 O865 1.268 . S
C851 Nd841 2.836 . S
C851 C852 1.498 . S
C851 O866 1.258 . S
C851 O867 1.239 . S
C852 C851 1.498 . S
C852 C853 1.366 . S
C852 C857 1.407 . S
C853 C852 1.366 . S
C853 C854 1.392 . S
C853 H876 0.930 . S
C854 C853 1.392 . S
C854 C855 1.398 . S
C854 H877 0.929 . S
C855 C854 1.398 . S
C855 C856 1.352 . S
C856 C855 1.352 . S
C856 C857 1.384 . S
C856 H878 0.930 . S
C857 C852 1.407 . S
C857 C856 1.384 . S
C857 H879 0.929 . S
C858 O868 1.241 . S
C858 O869 1.273 . S
C859 O870 1.251 . S
C859 O871 1.268 . S
O860 Nd840 2.500 . S
O860 C842 1.258 . S
O861 Nd840 2.492 . S
O861 C842 1.239 . S
O862 Nd840 2.487 . S
O862 C849 1.241 . S
O863 Nd840 2.682 . S
O863 Nd841 2.414 . S
O863 C849 1.273 . S
O864 Nd840 2.410 . S
O864 C850 1.251 . S
O865 Nd841 2.424 . S
O865 C850 1.268 . S
O866 Nd841 2.500 . S
O866 C851 1.258 . S
O867 Nd841 2.492 . S
O867 C851 1.239 . S
O868 Nd841 2.487 . S
O868 C858 1.241 . S
O869 Nd840 2.414 . S
O869 Nd841 2.682 . S
O869 C858 1.273 . S
O870 Nd841 2.410 . S
O870 C859 1.251 . S
O871 Nd840 2.424 . S
O871 C859 1.268 . S
H872 C844 0.930 . S
H873 C845 0.929 . S
H874 C847 0.930 . S
H875 C848 0.929 . S
H876 C853 0.930 . S
H877 C854 0.929 . S
H878 C856 0.930 . S
H879 C857 0.929 . S
Nd880 C882 2.836 . S
Nd880 O900 2.500 . S
Nd880 O901 2.492 . S
Nd880 O902 2.487 . S
Nd880 O903 2.682 . S
Nd880 O904 2.410 . S
Nd880 O909 2.414 . S
Nd880 O911 2.424 . S
Nd881 C891 2.836 . S
Nd881 O903 2.414 . S
Nd881 O905 2.424 . S
Nd881 O906 2.500 . S
Nd881 O907 2.492 . S
Nd881 O908 2.487 . S
Nd881 O909 2.682 . S
Nd881 O910 2.410 . S
C882 Nd880 2.836 . S
C882 C883 1.498 . S
C882 O900 1.258 . S
C882 O901 1.239 . S
C883 C882 1.498 . S
C883 C884 1.366 . S
C883 C888 1.407 . S
C884 C883 1.366 . S
C884 C885 1.392 . S
C884 H912 0.930 . S
C885 C884 1.392 . S
C885 C886 1.398 . S
C885 H913 0.929 . S
C886 C885 1.398 . S
C886 C887 1.352 . S
C887 C886 1.352 . S
C887 C888 1.384 . S
C887 H914 0.930 . S
C888 C883 1.407 . S
C888 C887 1.384 . S
C888 H915 0.929 . S
C889 O902 1.241 . S
C889 O903 1.273 . S
C890 O904 1.251 . S
C890 O905 1.268 . S
C891 Nd881 2.836 . S
C891 C892 1.498 . S
C891 O906 1.258 . S
C891 O907 1.239 . S
C892 C891 1.498 . S
C892 C893 1.366 . S
C892 C897 1.407 . S
C893 C892 1.366 . S
C893 C894 1.392 . S
C893 H916 0.930 . S
C894 C893 1.392 . S
C894 C895 1.398 . S
C894 H917 0.929 . S
C895 C894 1.398 . S
C895 C896 1.352 . S
C896 C895 1.352 . S
C896 C897 1.384 . S
C896 H918 0.930 . S
C897 C892 1.407 . S
C897 C896 1.384 . S
C897 H919 0.929 . S
C898 O908 1.241 . S
C898 O909 1.273 . S
C899 O910 1.251 . S
C899 O911 1.268 . S
O900 Nd880 2.500 . S
O900 C882 1.258 . S
O901 Nd880 2.492 . S
O901 C882 1.239 . S
O902 Nd880 2.487 . S
O902 C889 1.241 . S
O903 Nd880 2.682 . S
O903 Nd881 2.414 . S
O903 C889 1.273 . S
O904 Nd880 2.410 . S
O904 C890 1.251 . S
O905 Nd881 2.424 . S
O905 C890 1.268 . S
O906 Nd881 2.500 . S
O906 C891 1.258 . S
O907 Nd881 2.492 . S
O907 C891 1.239 . S
O908 Nd881 2.487 . S
O908 C898 1.241 . S
O909 Nd880 2.414 . S
O909 Nd881 2.682 . S
O909 C898 1.273 . S
O910 Nd881 2.410 . S
O910 C899 1.251 . S
O911 Nd880 2.424 . S
O911 C899 1.268 . S
H912 C884 0.930 . S
H913 C885 0.929 . S
H914 C887 0.930 . S
H915 C888 0.929 . S
H916 C893 0.930 . S
H917 C894 0.929 . S
H918 C896 0.930 . S
H919 C897 0.929 . S
Nd920 C922 2.836 . S
Nd920 O940 2.500 . S
Nd920 O941 2.492 1_565 S
Nd920 O942 2.487 1_565 S
Nd920 O943 2.682 1_565 S
Nd920 O944 2.410 1_565 S
Nd920 O949 2.414 . S
Nd920 O951 2.424 . S
Nd921 C931 2.836 1_565 S
Nd921 O943 2.414 1_565 S
Nd921 O945 2.424 1_565 S
Nd921 O946 2.500 1_565 S
Nd921 O947 2.492 . S
Nd921 O948 2.487 . S
Nd921 O949 2.682 . S
Nd921 O950 2.410 . S
C922 Nd920 2.836 . S
C922 C923 1.498 . S
C922 O940 1.258 . S
C922 O941 1.239 1_565 S
C923 C922 1.498 . S
C923 C924 1.366 . S
C923 C928 1.407 1_565 S
C924 C923 1.366 . S
C924 C925 1.392 . S
C924 H952 0.930 . S
C925 C924 1.392 . S
C925 C926 1.398 . S
C925 H953 0.929 . S
C926 C925 1.398 . S
C926 C927 1.352 1_565 S
C927 C926 1.352 1_545 S
C927 C928 1.384 . S
C927 H954 0.930 . S
C928 C923 1.407 1_545 S
C928 C927 1.384 . S
C928 H955 0.929 . S
C929 O942 1.241 . S
C929 O943 1.273 . S
C930 O944 1.251 . S
C930 O945 1.268 . S
C931 Nd921 2.836 1_545 S
C931 C932 1.498 . S
C931 O946 1.258 . S
C931 O947 1.239 1_545 S
C932 C931 1.498 . S
C932 C933 1.366 . S
C932 C937 1.407 1_545 S
C933 C932 1.366 . S
C933 C934 1.392 . S
C933 H956 0.930 . S
C934 C933 1.392 . S
C934 C935 1.398 . S
C934 H957 0.929 . S
C935 C934 1.398 . S
C935 C936 1.352 1_545 S
C936 C935 1.352 1_565 S
C936 C937 1.384 . S
C936 H958 0.930 . S
C937 C932 1.407 1_565 S
C937 C936 1.384 . S
C937 H959 0.929 . S
C938 O948 1.241 . S
C938 O949 1.273 . S
C939 O950 1.251 . S
C939 O951 1.268 . S
O940 Nd920 2.500 . S
O940 C922 1.258 . S
O941 Nd920 2.492 1_545 S
O941 C922 1.239 1_545 S
O942 Nd920 2.487 1_545 S
O942 C929 1.241 . S
O943 Nd920 2.682 1_545 S
O943 Nd921 2.414 1_545 S
O943 C929 1.273 . S
O944 Nd920 2.410 1_545 S
O944 C930 1.251 . S
O945 Nd921 2.424 1_545 S
O945 C930 1.268 . S
O946 Nd921 2.500 1_545 S
O946 C931 1.258 . S
O947 Nd921 2.492 . S
O947 C931 1.239 1_565 S
O948 Nd921 2.487 . S
O948 C938 1.241 . S
O949 Nd920 2.414 . S
O949 Nd921 2.682 . S
O949 C938 1.273 . S
O950 Nd921 2.410 . S
O950 C939 1.251 . S
O951 Nd920 2.424 . S
O951 C939 1.268 . S
H952 C924 0.930 . S
H953 C925 0.929 . S
H954 C927 0.930 . S
H955 C928 0.929 . S
H956 C933 0.930 . S
H957 C934 0.929 . S
H958 C936 0.930 . S
H959 C937 0.929 . S
Nd960 C962 2.836 . S
Nd960 O980 2.500 . S
Nd960 O981 2.492 . S
Nd960 O982 2.487 . S
Nd960 O983 2.682 . S
Nd960 O984 2.410 . S
Nd960 O989 2.414 . S
Nd960 O991 2.424 . S
Nd961 C971 2.836 . S
Nd961 O983 2.414 . S
Nd961 O985 2.424 . S
Nd961 O986 2.500 . S
Nd961 O987 2.492 . S
Nd961 O988 2.487 . S
Nd961 O989 2.682 . S
Nd961 O990 2.410 . S
C962 Nd960 2.836 . S
C962 C963 1.498 1_554 S
C962 O980 1.258 . S
C962 O981 1.239 . S
C963 C962 1.498 1_556 S
C963 C964 1.366 . S
C963 C968 1.407 . S
C964 C963 1.366 . S
C964 C965 1.392 . S
C964 H992 0.930 . S
C965 C964 1.392 . S
C965 C966 1.398 . S
C965 H993 0.929 . S
C966 C965 1.398 . S
C966 C967 1.352 . S
C967 C966 1.352 . S
C967 C968 1.384 . S
C967 H994 0.930 . S
C968 C963 1.407 . S
C968 C967 1.384 . S
C968 H995 0.929 . S
C969 O982 1.241 . S
C969 O983 1.273 . S
C970 O984 1.251 . S
C970 O985 1.268 . S
C971 Nd961 2.836 . S
C971 C972 1.498 . S
C971 O986 1.258 . S
C971 O987 1.239 . S
C972 C971 1.498 . S
C972 C973 1.366 . S
C972 C977 1.407 . S
C973 C972 1.366 . S
C973 C974 1.392 . S
C973 H996 0.930 . S
C974 C973 1.392 . S
C974 C975 1.398 . S
C974 H997 0.929 . S
C975 C974 1.398 . S
C975 C976 1.352 . S
C976 C975 1.352 . S
C976 C977 1.384 . S
C976 H998 0.930 . S
C977 C972 1.407 . S
C977 C976 1.384 . S
C977 H999 0.929 . S
C978 O988 1.241 . S
C978 O989 1.273 . S
C979 O990 1.251 . S
C979 O991 1.268 . S
O980 Nd960 2.500 . S
O980 C962 1.258 . S
O981 Nd960 2.492 . S
O981 C962 1.239 . S
O982 Nd960 2.487 . S
O982 C969 1.241 . S
O983 Nd960 2.682 . S
O983 Nd961 2.414 . S
O983 C969 1.273 . S
O984 Nd960 2.410 . S
O984 C970 1.251 . S
O985 Nd961 2.424 . S
O985 C970 1.268 . S
O986 Nd961 2.500 . S
O986 C971 1.258 . S
O987 Nd961 2.492 . S
O987 C971 1.239 . S
O988 Nd961 2.487 . S
O988 C978 1.241 . S
O989 Nd960 2.414 . S
O989 Nd961 2.682 . S
O989 C978 1.273 . S
O990 Nd961 2.410 . S
O990 C979 1.251 . S
O991 Nd960 2.424 . S
O991 C979 1.268 . S
H992 C964 0.930 . S
H993 C965 0.929 . S
H994 C967 0.930 . S
H995 C968 0.929 . S
H996 C973 0.930 . S
H997 C974 0.929 . S
H998 C976 0.930 . S
H999 C977 0.929 . S
Nd1000 C1002 2.836 . S
Nd1000 O1020 2.500 . S
Nd1000 O1021 2.492 . S
Nd1000 O1022 2.487 . S
Nd1000 O1023 2.682 . S
Nd1000 O1024 2.410 . S
Nd1000 O1029 2.414 . S
Nd1000 O1031 2.424 . S
Nd1001 C1011 2.836 . S
Nd1001 O1023 2.414 . S
Nd1001 O1025 2.424 . S
Nd1001 O1026 2.500 . S
Nd1001 O1027 2.492 . S
Nd1001 O1028 2.487 . S
Nd1001 O1029 2.682 . S
Nd1001 O1030 2.410 . S
C1002 Nd1000 2.836 . S
C1002 C1003 1.498 1_554 S
C1002 O1020 1.258 . S
C1002 O1021 1.239 . S
C1003 C1002 1.498 1_556 S
C1003 C1004 1.366 . S
C1003 C1008 1.407 . S
C1004 C1003 1.366 . S
C1004 C1005 1.392 . S
C1004 H1032 0.930 . S
C1005 C1004 1.392 . S
C1005 C1006 1.398 . S
C1005 H1033 0.929 . S
C1006 C1005 1.398 . S
C1006 C1007 1.352 . S
C1007 C1006 1.352 . S
C1007 C1008 1.384 . S
C1007 H1034 0.930 . S
C1008 C1003 1.407 . S
C1008 C1007 1.384 . S
C1008 H1035 0.929 . S
C1009 O1022 1.241 . S
C1009 O1023 1.273 . S
C1010 O1024 1.251 . S
C1010 O1025 1.268 . S
C1011 Nd1001 2.836 . S
C1011 C1012 1.498 . S
C1011 O1026 1.258 . S
C1011 O1027 1.239 . S
C1012 C1011 1.498 . S
C1012 C1013 1.366 . S
C1012 C1017 1.407 . S
C1013 C1012 1.366 . S
C1013 C1014 1.392 . S
C1013 H1036 0.930 . S
C1014 C1013 1.392 . S
C1014 C1015 1.398 . S
C1014 H1037 0.929 . S
C1015 C1014 1.398 . S
C1015 C1016 1.352 . S
C1016 C1015 1.352 . S
C1016 C1017 1.384 . S
C1016 H1038 0.930 . S
C1017 C1012 1.407 . S
C1017 C1016 1.384 . S
C1017 H1039 0.929 . S
C1018 O1028 1.241 . S
C1018 O1029 1.273 . S
C1019 O1030 1.251 . S
C1019 O1031 1.268 . S
O1020 Nd1000 2.500 . S
O1020 C1002 1.258 . S
O1021 Nd1000 2.492 . S
O1021 C1002 1.239 . S
O1022 Nd1000 2.487 . S
O1022 C1009 1.241 . S
O1023 Nd1000 2.682 . S
O1023 Nd1001 2.414 . S
O1023 C1009 1.273 . S
O1024 Nd1000 2.410 . S
O1024 C1010 1.251 . S
O1025 Nd1001 2.424 . S
O1025 C1010 1.268 . S
O1026 Nd1001 2.500 . S
O1026 C1011 1.258 . S
O1027 Nd1001 2.492 . S
O1027 C1011 1.239 . S
O1028 Nd1001 2.487 . S
O1028 C1018 1.241 . S
O1029 Nd1000 2.414 . S
O1029 Nd1001 2.682 . S
O1029 C1018 1.273 . S
O1030 Nd1001 2.410 . S
O1030 C1019 1.251 . S
O1031 Nd1000 2.424 . S
O1031 C1019 1.268 . S
H1032 C1004 0.930 . S
H1033 C1005 0.929 . S
H1034 C1007 0.930 . S
H1035 C1008 0.929 . S
H1036 C1013 0.930 . S
H1037 C1014 0.929 . S
H1038 C1016 0.930 . S
H1039 C1017 0.929 . S
Nd1040 C1042 2.836 . S
Nd1040 O1060 2.500 . S
Nd1040 O1061 2.492 . S
Nd1040 O1062 2.487 . S
Nd1040 O1063 2.682 . S
Nd1040 O1064 2.410 . S
Nd1040 O1069 2.414 . S
Nd1040 O1071 2.424 . S
Nd1041 C1051 2.836 . S
Nd1041 O1063 2.414 . S
Nd1041 O1065 2.424 . S
Nd1041 O1066 2.500 . S
Nd1041 O1067 2.492 . S
Nd1041 O1068 2.487 . S
Nd1041 O1069 2.682 . S
Nd1041 O1070 2.410 . S
C1042 Nd1040 2.836 . S
C1042 C1043 1.498 . S
C1042 O1060 1.258 . S
C1042 O1061 1.239 . S
C1043 C1042 1.498 . S
C1043 C1044 1.366 . S
C1043 C1048 1.407 . S
C1044 C1043 1.366 . S
C1044 C1045 1.392 . S
C1044 H1072 0.930 . S
C1045 C1044 1.392 . S
C1045 C1046 1.398 . S
C1045 H1073 0.929 . S
C1046 C1045 1.398 . S
C1046 C1047 1.352 . S
C1047 C1046 1.352 . S
C1047 C1048 1.384 . S
C1047 H1074 0.930 . S
C1048 C1043 1.407 . S
C1048 C1047 1.384 . S
C1048 H1075 0.929 . S
C1049 O1062 1.241 . S
C1049 O1063 1.273 . S
C1050 O1064 1.251 . S
C1050 O1065 1.268 . S
C1051 Nd1041 2.836 . S
C1051 C1052 1.498 . S
C1051 O1066 1.258 . S
C1051 O1067 1.239 . S
C1052 C1051 1.498 . S
C1052 C1053 1.366 . S
C1052 C1057 1.407 . S
C1053 C1052 1.366 . S
C1053 C1054 1.392 . S
C1053 H1076 0.930 . S
C1054 C1053 1.392 . S
C1054 C1055 1.398 . S
C1054 H1077 0.929 . S
C1055 C1054 1.398 . S
C1055 C1056 1.352 . S
C1056 C1055 1.352 . S
C1056 C1057 1.384 . S
C1056 H1078 0.930 . S
C1057 C1052 1.407 . S
C1057 C1056 1.384 . S
C1057 H1079 0.929 . S
C1058 O1068 1.241 . S
C1058 O1069 1.273 . S
C1059 O1070 1.251 . S
C1059 O1071 1.268 . S
O1060 Nd1040 2.500 . S
O1060 C1042 1.258 . S
O1061 Nd1040 2.492 . S
O1061 C1042 1.239 . S
O1062 Nd1040 2.487 . S
O1062 C1049 1.241 . S
O1063 Nd1040 2.682 . S
O1063 Nd1041 2.414 . S
O1063 C1049 1.273 . S
O1064 Nd1040 2.410 . S
O1064 C1050 1.251 . S
O1065 Nd1041 2.424 . S
O1065 C1050 1.268 . S
O1066 Nd1041 2.500 . S
O1066 C1051 1.258 . S
O1067 Nd1041 2.492 . S
O1067 C1051 1.239 . S
O1068 Nd1041 2.487 . S
O1068 C1058 1.241 . S
O1069 Nd1040 2.414 . S
O1069 Nd1041 2.682 . S
O1069 C1058 1.273 . S
O1070 Nd1041 2.410 . S
O1070 C1059 1.251 . S
O1071 Nd1040 2.424 . S
O1071 C1059 1.268 . S
H1072 C1044 0.930 . S
H1073 C1045 0.929 . S
H1074 C1047 0.930 . S
H1075 C1048 0.929 . S
H1076 C1053 0.930 . S
H1077 C1054 0.929 . S
H1078 C1056 0.930 . S
H1079 C1057 0.929 . S
Nd1080 C1082 2.836 . S
Nd1080 O1100 2.500 . S
Nd1080 O1101 2.492 . S
Nd1080 O1102 2.487 . S
Nd1080 O1103 2.682 . S
Nd1080 O1104 2.410 . S
Nd1080 O1109 2.414 . S
Nd1080 O1111 2.424 . S
Nd1081 C1091 2.836 . S
Nd1081 O1103 2.414 . S
Nd1081 O1105 2.424 . S
Nd1081 O1106 2.500 . S
Nd1081 O1107 2.492 . S
Nd1081 O1108 2.487 . S
Nd1081 O1109 2.682 . S
Nd1081 O1110 2.410 . S
C1082 Nd1080 2.836 . S
C1082 C1083 1.498 . S
C1082 O1100 1.258 . S
C1082 O1101 1.239 . S
C1083 C1082 1.498 . S
C1083 C1084 1.366 . S
C1083 C1088 1.407 . S
C1084 C1083 1.366 . S
C1084 C1085 1.392 . S
C1084 H1112 0.930 . S
C1085 C1084 1.392 . S
C1085 C1086 1.398 . S
C1085 H1113 0.929 . S
C1086 C1085 1.398 . S
C1086 C1087 1.352 . S
C1087 C1086 1.352 . S
C1087 C1088 1.384 . S
C1087 H1114 0.930 . S
C1088 C1083 1.407 . S
C1088 C1087 1.384 . S
C1088 H1115 0.929 . S
C1089 O1102 1.241 . S
C1089 O1103 1.273 . S
C1090 O1104 1.251 . S
C1090 O1105 1.268 . S
C1091 Nd1081 2.836 . S
C1091 C1092 1.498 . S
C1091 O1106 1.258 . S
C1091 O1107 1.239 . S
C1092 C1091 1.498 . S
C1092 C1093 1.366 . S
C1092 C1097 1.407 . S
C1093 C1092 1.366 . S
C1093 C1094 1.392 . S
C1093 H1116 0.930 . S
C1094 C1093 1.392 . S
C1094 C1095 1.398 . S
C1094 H1117 0.929 . S
C1095 C1094 1.398 . S
C1095 C1096 1.352 . S
C1096 C1095 1.352 . S
C1096 C1097 1.384 . S
C1096 H1118 0.930 . S
C1097 C1092 1.407 . S
C1097 C1096 1.384 . S
C1097 H1119 0.929 . S
C1098 O1108 1.241 . S
C1098 O1109 1.273 . S
C1099 O1110 1.251 . S
C1099 O1111 1.268 . S
O1100 Nd1080 2.500 . S
O1100 C1082 1.258 . S
O1101 Nd1080 2.492 . S
O1101 C1082 1.239 . S
O1102 Nd1080 2.487 . S
O1102 C1089 1.241 . S
O1103 Nd1080 2.682 . S
O1103 Nd1081 2.414 . S
O1103 C1089 1.273 . S
O1104 Nd1080 2.410 . S
O1104 C1090 1.251 . S
O1105 Nd1081 2.424 . S
O1105 C1090 1.268 . S
O1106 Nd1081 2.500 . S
O1106 C1091 1.258 . S
O1107 Nd1081 2.492 . S
O1107 C1091 1.239 . S
O1108 Nd1081 2.487 . S
O1108 C1098 1.241 . S
O1109 Nd1080 2.414 . S
O1109 Nd1081 2.682 . S
O1109 C1098 1.273 . S
O1110 Nd1081 2.410 . S
O1110 C1099 1.251 . S
O1111 Nd1080 2.424 . S
O1111 C1099 1.268 . S
H1112 C1084 0.930 . S
H1113 C1085 0.929 . S
H1114 C1087 0.930 . S
H1115 C1088 0.929 . S
H1116 C1093 0.930 . S
H1117 C1094 0.929 . S
H1118 C1096 0.930 . S
H1119 C1097 0.929 . S
Nd1120 C1122 2.836 . S
Nd1120 O1140 2.500 . S
Nd1120 O1141 2.492 . S
Nd1120 O1142 2.487 . S
Nd1120 O1143 2.682 . S
Nd1120 O1144 2.410 . S
Nd1120 O1149 2.414 . S
Nd1120 O1151 2.424 . S
Nd1121 C1131 2.836 . S
Nd1121 O1143 2.414 . S
Nd1121 O1145 2.424 . S
Nd1121 O1146 2.500 . S
Nd1121 O1147 2.492 . S
Nd1121 O1148 2.487 . S
Nd1121 O1149 2.682 . S
Nd1121 O1150 2.410 . S
C1122 Nd1120 2.836 . S
C1122 C1123 1.498 . S
C1122 O1140 1.258 . S
C1122 O1141 1.239 . S
C1123 C1122 1.498 . S
C1123 C1124 1.366 . S
C1123 C1128 1.407 . S
C1124 C1123 1.366 . S
C1124 C1125 1.392 . S
C1124 H1152 0.930 . S
C1125 C1124 1.392 . S
C1125 C1126 1.398 . S
C1125 H1153 0.929 . S
C1126 C1125 1.398 . S
C1126 C1127 1.352 . S
C1127 C1126 1.352 . S
C1127 C1128 1.384 . S
C1127 H1154 0.930 . S
C1128 C1123 1.407 . S
C1128 C1127 1.384 . S
C1128 H1155 0.929 . S
C1129 O1142 1.241 . S
C1129 O1143 1.273 . S
C1130 O1144 1.251 . S
C1130 O1145 1.268 . S
C1131 Nd1121 2.836 . S
C1131 C1132 1.498 1_556 S
C1131 O1146 1.258 . S
C1131 O1147 1.239 . S
C1132 C1131 1.498 1_554 S
C1132 C1133 1.366 . S
C1132 C1137 1.407 . S
C1133 C1132 1.366 . S
C1133 C1134 1.392 . S
C1133 H1156 0.930 . S
C1134 C1133 1.392 . S
C1134 C1135 1.398 . S
C1134 H1157 0.929 . S
C1135 C1134 1.398 . S
C1135 C1136 1.352 . S
C1136 C1135 1.352 . S
C1136 C1137 1.384 . S
C1136 H1158 0.930 . S
C1137 C1132 1.407 . S
C1137 C1136 1.384 . S
C1137 H1159 0.929 . S
C1138 O1148 1.241 . S
C1138 O1149 1.273 . S
C1139 O1150 1.251 . S
C1139 O1151 1.268 . S
O1140 Nd1120 2.500 . S
O1140 C1122 1.258 . S
O1141 Nd1120 2.492 . S
O1141 C1122 1.239 . S
O1142 Nd1120 2.487 . S
O1142 C1129 1.241 . S
O1143 Nd1120 2.682 . S
O1143 Nd1121 2.414 . S
O1143 C1129 1.273 . S
O1144 Nd1120 2.410 . S
O1144 C1130 1.251 . S
O1145 Nd1121 2.424 . S
O1145 C1130 1.268 . S
O1146 Nd1121 2.500 . S
O1146 C1131 1.258 . S
O1147 Nd1121 2.492 . S
O1147 C1131 1.239 . S
O1148 Nd1121 2.487 . S
O1148 C1138 1.241 . S
O1149 Nd1120 2.414 . S
O1149 Nd1121 2.682 . S
O1149 C1138 1.273 . S
O1150 Nd1121 2.410 . S
O1150 C1139 1.251 . S
O1151 Nd1120 2.424 . S
O1151 C1139 1.268 . S
H1152 C1124 0.930 . S
H1153 C1125 0.929 . S
H1154 C1127 0.930 . S
H1155 C1128 0.929 . S
H1156 C1133 0.930 . S
H1157 C1134 0.929 . S
H1158 C1136 0.930 . S
H1159 C1137 0.929 . S
Nd1160 C1162 2.836 . S
Nd1160 O1180 2.500 . S
Nd1160 O1181 2.492 . S
Nd1160 O1182 2.487 . S
Nd1160 O1183 2.682 . S
Nd1160 O1184 2.410 . S
Nd1160 O1189 2.414 . S
Nd1160 O1191 2.424 . S
Nd1161 C1171 2.836 . S
Nd1161 O1183 2.414 . S
Nd1161 O1185 2.424 . S
Nd1161 O1186 2.500 . S
Nd1161 O1187 2.492 . S
Nd1161 O1188 2.487 . S
Nd1161 O1189 2.682 . S
Nd1161 O1190 2.410 . S
C1162 Nd1160 2.836 . S
C1162 C1163 1.498 . S
C1162 O1180 1.258 . S
C1162 O1181 1.239 . S
C1163 C1162 1.498 . S
C1163 C1164 1.366 . S
C1163 C1168 1.407 . S
C1164 C1163 1.366 . S
C1164 C1165 1.392 . S
C1164 H1192 0.930 . S
C1165 C1164 1.392 . S
C1165 C1166 1.398 . S
C1165 H1193 0.929 . S
C1166 C1165 1.398 . S
C1166 C1167 1.352 . S
C1167 C1166 1.352 . S
C1167 C1168 1.384 . S
C1167 H1194 0.930 . S
C1168 C1163 1.407 . S
C1168 C1167 1.384 . S
C1168 H1195 0.929 . S
C1169 O1182 1.241 . S
C1169 O1183 1.273 . S
C1170 O1184 1.251 . S
C1170 O1185 1.268 . S
C1171 Nd1161 2.836 . S
C1171 C1172 1.498 1_556 S
C1171 O1186 1.258 . S
C1171 O1187 1.239 . S
C1172 C1171 1.498 1_554 S
C1172 C1173 1.366 . S
C1172 C1177 1.407 . S
C1173 C1172 1.366 . S
C1173 C1174 1.392 . S
C1173 H1196 0.930 . S
C1174 C1173 1.392 . S
C1174 C1175 1.398 . S
C1174 H1197 0.929 . S
C1175 C1174 1.398 . S
C1175 C1176 1.352 . S
C1176 C1175 1.352 . S
C1176 C1177 1.384 . S
C1176 H1198 0.930 . S
C1177 C1172 1.407 . S
C1177 C1176 1.384 . S
C1177 H1199 0.929 . S
C1178 O1188 1.241 . S
C1178 O1189 1.273 . S
C1179 O1190 1.251 . S
C1179 O1191 1.268 . S
O1180 Nd1160 2.500 . S
O1180 C1162 1.258 . S
O1181 Nd1160 2.492 . S
O1181 C1162 1.239 . S
O1182 Nd1160 2.487 . S
O1182 C1169 1.241 . S
O1183 Nd1160 2.682 . S
O1183 Nd1161 2.414 . S
O1183 C1169 1.273 . S
O1184 Nd1160 2.410 . S
O1184 C1170 1.251 . S
O1185 Nd1161 2.424 . S
O1185 C1170 1.268 . S
O1186 Nd1161 2.500 . S
O1186 C1171 1.258 . S
O1187 Nd1161 2.492 . S
O1187 C1171 1.239 . S
O1188 Nd1161 2.487 . S
O1188 C1178 1.241 . S
O1189 Nd1160 2.414 . S
O1189 Nd1161 2.682 . S
O1189 C1178 1.273 . S
O1190 Nd1161 2.410 . S
O1190 C1179 1.251 . S
O1191 Nd1160 2.424 . S
O1191 C1179 1.268 . S
H1192 C1164 0.930 . S
H1193 C1165 0.929 . S
H1194 C1167 0.930 . S
H1195 C1168 0.929 . S
H1196 C1173 0.930 . S
H1197 C1174 0.929 . S
H1198 C1176 0.930 . S
H1199 C1177 0.929 . S
Nd1200 C1202 2.836 . S
Nd1200 O1220 2.500 . S
Nd1200 O1221 2.492 . S
Nd1200 O1222 2.487 . S
Nd1200 O1223 2.682 . S
Nd1200 O1224 2.410 . S
Nd1200 O1229 2.414 . S
Nd1200 O1231 2.424 . S
Nd1201 C1211 2.836 . S
Nd1201 O1223 2.414 . S
Nd1201 O1225 2.424 . S
Nd1201 O1226 2.500 . S
Nd1201 O1227 2.492 . S
Nd1201 O1228 2.487 . S
Nd1201 O1229 2.682 . S
Nd1201 O1230 2.410 . S
C1202 Nd1200 2.836 . S
C1202 C1203 1.498 . S
C1202 O1220 1.258 . S
C1202 O1221 1.239 . S
C1203 C1202 1.498 . S
C1203 C1204 1.366 . S
C1203 C1208 1.407 . S
C1204 C1203 1.366 . S
C1204 C1205 1.392 . S
C1204 H1232 0.930 . S
C1205 C1204 1.392 . S
C1205 C1206 1.398 . S
C1205 H1233 0.929 . S
C1206 C1205 1.398 . S
C1206 C1207 1.352 . S
C1207 C1206 1.352 . S
C1207 C1208 1.384 . S
C1207 H1234 0.930 . S
C1208 C1203 1.407 . S
C1208 C1207 1.384 . S
C1208 H1235 0.929 . S
C1209 O1222 1.241 . S
C1209 O1223 1.273 . S
C1210 O1224 1.251 . S
C1210 O1225 1.268 . S
C1211 Nd1201 2.836 . S
C1211 C1212 1.498 . S
C1211 O1226 1.258 . S
C1211 O1227 1.239 . S
C1212 C1211 1.498 . S
C1212 C1213 1.366 . S
C1212 C1217 1.407 . S
C1213 C1212 1.366 . S
C1213 C1214 1.392 . S
C1213 H1236 0.930 . S
C1214 C1213 1.392 . S
C1214 C1215 1.398 . S
C1214 H1237 0.929 . S
C1215 C1214 1.398 . S
C1215 C1216 1.352 . S
C1216 C1215 1.352 . S
C1216 C1217 1.384 . S
C1216 H1238 0.930 . S
C1217 C1212 1.407 . S
C1217 C1216 1.384 . S
C1217 H1239 0.929 . S
C1218 O1228 1.241 . S
C1218 O1229 1.273 . S
C1219 O1230 1.251 . S
C1219 O1231 1.268 . S
O1220 Nd1200 2.500 . S
O1220 C1202 1.258 . S
O1221 Nd1200 2.492 . S
O1221 C1202 1.239 . S
O1222 Nd1200 2.487 . S
O1222 C1209 1.241 . S
O1223 Nd1200 2.682 . S
O1223 Nd1201 2.414 . S
O1223 C1209 1.273 . S
O1224 Nd1200 2.410 . S
O1224 C1210 1.251 . S
O1225 Nd1201 2.424 . S
O1225 C1210 1.268 . S
O1226 Nd1201 2.500 . S
O1226 C1211 1.258 . S
O1227 Nd1201 2.492 . S
O1227 C1211 1.239 . S
O1228 Nd1201 2.487 . S
O1228 C1218 1.241 . S
O1229 Nd1200 2.414 . S
O1229 Nd1201 2.682 . S
O1229 C1218 1.273 . S
O1230 Nd1201 2.410 . S
O1230 C1219 1.251 . S
O1231 Nd1200 2.424 . S
O1231 C1219 1.268 . S
H1232 C1204 0.930 . S
H1233 C1205 0.929 . S
H1234 C1207 0.930 . S
H1235 C1208 0.929 . S
H1236 C1213 0.930 . S
H1237 C1214 0.929 . S
H1238 C1216 0.930 . S
H1239 C1217 0.929 . S
Nd1240 C1242 2.836 . S
Nd1240 O1260 2.500 . S
Nd1240 O1261 2.492 . S
Nd1240 O1262 2.487 . S
Nd1240 O1263 2.682 . S
Nd1240 O1264 2.410 . S
Nd1240 O1269 2.414 . S
Nd1240 O1271 2.424 . S
Nd1241 C1251 2.836 . S
Nd1241 O1263 2.414 . S
Nd1241 O1265 2.424 . S
Nd1241 O1266 2.500 . S
Nd1241 O1267 2.492 . S
Nd1241 O1268 2.487 . S
Nd1241 O1269 2.682 . S
Nd1241 O1270 2.410 . S
C1242 Nd1240 2.836 . S
C1242 C1243 1.498 . S
C1242 O1260 1.258 . S
C1242 O1261 1.239 . S
C1243 C1242 1.498 . S
C1243 C1244 1.366 . S
C1243 C1248 1.407 . S
C1244 C1243 1.366 . S
C1244 C1245 1.392 . S
C1244 H1272 0.930 . S
C1245 C1244 1.392 . S
C1245 C1246 1.398 . S
C1245 H1273 0.929 . S
C1246 C1245 1.398 . S
C1246 C1247 1.352 . S
C1247 C1246 1.352 . S
C1247 C1248 1.384 . S
C1247 H1274 0.930 . S
C1248 C1243 1.407 . S
C1248 C1247 1.384 . S
C1248 H1275 0.929 . S
C1249 O1262 1.241 . S
C1249 O1263 1.273 . S
C1250 O1264 1.251 . S
C1250 O1265 1.268 . S
C1251 Nd1241 2.836 . S
C1251 C1252 1.498 . S
C1251 O1266 1.258 . S
C1251 O1267 1.239 . S
C1252 C1251 1.498 . S
C1252 C1253 1.366 . S
C1252 C1257 1.407 . S
C1253 C1252 1.366 . S
C1253 C1254 1.392 . S
C1253 H1276 0.930 . S
C1254 C1253 1.392 . S
C1254 C1255 1.398 . S
C1254 H1277 0.929 . S
C1255 C1254 1.398 . S
C1255 C1256 1.352 . S
C1256 C1255 1.352 . S
C1256 C1257 1.384 . S
C1256 H1278 0.930 . S
C1257 C1252 1.407 . S
C1257 C1256 1.384 . S
C1257 H1279 0.929 . S
C1258 O1268 1.241 . S
C1258 O1269 1.273 . S
C1259 O1270 1.251 . S
C1259 O1271 1.268 . S
O1260 Nd1240 2.500 . S
O1260 C1242 1.258 . S
O1261 Nd1240 2.492 . S
O1261 C1242 1.239 . S
O1262 Nd1240 2.487 . S
O1262 C1249 1.241 . S
O1263 Nd1240 2.682 . S
O1263 Nd1241 2.414 . S
O1263 C1249 1.273 . S
O1264 Nd1240 2.410 . S
O1264 C1250 1.251 . S
O1265 Nd1241 2.424 . S
O1265 C1250 1.268 . S
O1266 Nd1241 2.500 . S
O1266 C1251 1.258 . S
O1267 Nd1241 2.492 . S
O1267 C1251 1.239 . S
O1268 Nd1241 2.487 . S
O1268 C1258 1.241 . S
O1269 Nd1240 2.414 . S
O1269 Nd1241 2.682 . S
O1269 C1258 1.273 . S
O1270 Nd1241 2.410 . S
O1270 C1259 1.251 . S
O1271 Nd1240 2.424 . S
O1271 C1259 1.268 . S
H1272 C1244 0.930 . S
H1273 C1245 0.929 . S
H1274 C1247 0.930 . S
H1275 C1248 0.929 . S
H1276 C1253 0.930 . S
H1277 C1254 0.929 . S
H1278 C1256 0.930 . S
H1279 C1257 0.929 . S
C1280 C1281 1.387 . S
C1280 H1284 0.950 . S
C1280 C1289 1.390 . S
C1281 C1280 1.387 . S
C1281 C1283 1.387 . S
H1282 C1289 0.950 . S
C1283 C1281 1.387 . S
C1283 C1285 1.390 . S
C1283 H1287 0.950 . S
H1284 C1280 0.950 . S
C1285 C1283 1.390 . S
C1285 C1286 1.387 . S
C1285 H1288 0.950 . S
C1286 C1285 1.387 . S
C1286 C1289 1.387 . S
H1287 C1283 0.950 . S
H1288 C1285 0.950 . S
C1289 C1280 1.390 . S
C1289 H1282 0.950 . S
C1289 C1286 1.387 . S
C1290 C1291 1.387 . S
C1290 H1294 0.950 . S
C1290 C1299 1.390 . S
C1291 C1290 1.387 . S
C1291 C1293 1.387 . S
H1292 C1299 0.950 . S
C1293 C1291 1.387 . S
C1293 C1295 1.390 . S
C1293 H1297 0.950 . S
H1294 C1290 0.950 . S
C1295 C1293 1.390 . S
C1295 C1296 1.387 . S
C1295 H1298 0.950 . S
C1296 C1295 1.387 . S
C1296 C1299 1.387 . S
H1297 C1293 0.950 . S
H1298 C1295 0.950 . S
C1299 C1290 1.390 . S
C1299 H1292 0.950 . S
C1299 C1296 1.387 . S
C1300 C1301 1.387 . S
C1300 H1304 0.950 . S
C1300 C1309 1.390 . S
C1301 C1300 1.387 . S
C1301 C1303 1.387 . S
H1302 C1309 0.950 . S
C1303 C1301 1.387 . S
C1303 C1305 1.390 . S
C1303 H1307 0.950 . S
H1304 C1300 0.950 . S
C1305 C1303 1.390 . S
C1305 C1306 1.387 . S
C1305 H1308 0.950 . S
C1306 C1305 1.387 . S
C1306 C1309 1.387 . S
H1307 C1303 0.950 . S
H1308 C1305 0.950 . S
C1309 C1300 1.390 . S
C1309 H1302 0.950 . S
C1309 C1306 1.387 . S
C1310 C1311 1.387 . S
C1310 H1314 0.950 . S
C1310 C1319 1.390 . S
C1311 C1310 1.387 . S
C1311 C1313 1.387 . S
H1312 C1319 0.950 . S
C1313 C1311 1.387 . S
C1313 C1315 1.390 . S
C1313 H1317 0.950 . S
H1314 C1310 0.950 . S
C1315 C1313 1.390 . S
C1315 C1316 1.387 . S
C1315 H1318 0.950 . S
C1316 C1315 1.387 . S
C1316 C1319 1.387 . S
H1317 C1313 0.950 . S
H1318 C1315 0.950 . S
C1319 C1310 1.390 . S
C1319 H1312 0.950 . S
C1319 C1316 1.387 . S
C1320 C1321 1.387 . S
C1320 H1324 0.950 . S
C1320 C1329 1.390 . S
C1321 C1320 1.387 . S
C1321 C1323 1.387 . S
H1322 C1329 0.950 . S
C1323 C1321 1.387 . S
C1323 C1325 1.390 . S
C1323 H1327 0.950 . S
H1324 C1320 0.950 . S
C1325 C1323 1.390 . S
C1325 C1326 1.387 . S
C1325 H1328 0.950 . S
C1326 C1325 1.387 . S
C1326 C1329 1.387 . S
H1327 C1323 0.950 . S
H1328 C1325 0.950 . S
C1329 C1320 1.390 . S
C1329 H1322 0.950 . S
C1329 C1326 1.387 . S
C1330 C1331 1.387 . S
C1330 H1334 0.950 . S
C1330 C1339 1.390 . S
C1331 C1330 1.387 . S
C1331 C1333 1.387 . S
H1332 C1339 0.950 . S
C1333 C1331 1.387 . S
C1333 C1335 1.390 . S
C1333 H1337 0.950 . S
H1334 C1330 0.950 . S
C1335 C1333 1.390 . S
C1335 C1336 1.387 . S
C1335 H1338 0.950 . S
C1336 C1335 1.387 . S
C1336 C1339 1.387 . S
H1337 C1333 0.950 . S
H1338 C1335 0.950 . S
C1339 C1330 1.390 . S
C1339 H1332 0.950 . S
C1339 C1336 1.387 . S
C1340 C1341 1.387 . S
C1340 H1344 0.950 . S
C1340 C1349 1.390 . S
C1341 C1340 1.387 . S
C1341 C1343 1.387 . S
H1342 C1349 0.950 . S
C1343 C1341 1.387 . S
C1343 C1345 1.390 . S
C1343 H1347 0.950 . S
H1344 C1340 0.950 . S
C1345 C1343 1.390 . S
C1345 C1346 1.387 . S
C1345 H1348 0.950 . S
C1346 C1345 1.387 . S
C1346 C1349 1.387 . S
H1347 C1343 0.950 . S
H1348 C1345 0.950 . S
C1349 C1340 1.390 . S
C1349 H1342 0.950 . S
C1349 C1346 1.387 . S
C1350 C1351 1.387 . S
C1350 H1354 0.950 . S
C1350 C1359 1.390 . S
C1351 C1350 1.387 . S
C1351 C1353 1.387 . S
H1352 C1359 0.950 . S
C1353 C1351 1.387 . S
C1353 C1355 1.390 . S
C1353 H1357 0.950 . S
H1354 C1350 0.950 . S
C1355 C1353 1.390 . S
C1355 C1356 1.387 . S
C1355 H1358 0.950 . S
C1356 C1355 1.387 . S
C1356 C1359 1.387 . S
H1357 C1353 0.950 . S
H1358 C1355 0.950 . S
C1359 C1350 1.390 . S
C1359 H1352 0.950 . S
C1359 C1356 1.387 . S
C1360 C1361 1.387 . S
C1360 H1364 0.950 . S
C1360 C1369 1.390 . S
C1361 C1360 1.387 . S
C1361 C1363 1.387 . S
H1362 C1369 0.950 . S
C1363 C1361 1.387 . S
C1363 C1365 1.390 . S
C1363 H1367 0.950 . S
H1364 C1360 0.950 . S
C1365 C1363 1.390 . S
C1365 C1366 1.387 . S
C1365 H1368 0.950 . S
C1366 C1365 1.387 . S
C1366 C1369 1.387 . S
H1367 C1363 0.950 . S
H1368 C1365 0.950 . S
C1369 C1360 1.390 . S
C1369 H1362 0.950 . S
C1369 C1366 1.387 . S
C1370 C1371 1.387 . S
C1370 H1374 0.950 . S
C1370 C1379 1.390 . S
C1371 C1370 1.387 . S
C1371 C1373 1.387 . S
H1372 C1379 0.950 . S
C1373 C1371 1.387 . S
C1373 C1375 1.390 . S
C1373 H1377 0.950 . S
H1374 C1370 0.950 . S
C1375 C1373 1.390 . S
C1375 C1376 1.387 . S
C1375 H1378 0.950 . S
C1376 C1375 1.387 . S
C1376 C1379 1.387 . S
H1377 C1373 0.950 . S
H1378 C1375 0.950 . S
C1379 C1370 1.390 . S
C1379 H1372 0.950 . S
C1379 C1376 1.387 . S
C1380 C1381 1.387 . S
C1380 H1384 0.950 . S
C1380 C1389 1.390 . S
C1381 C1380 1.387 . S
C1381 C1383 1.387 . S
H1382 C1389 0.950 . S
C1383 C1381 1.387 . S
C1383 C1385 1.390 . S
C1383 H1387 0.950 . S
H1384 C1380 0.950 . S
C1385 C1383 1.390 . S
C1385 C1386 1.387 . S
C1385 H1388 0.950 . S
C1386 C1385 1.387 . S
C1386 C1389 1.387 . S
H1387 C1383 0.950 . S
H1388 C1385 0.950 . S
C1389 C1380 1.390 . S
C1389 H1382 0.950 . S
C1389 C1386 1.387 . S
C1390 C1391 1.387 . S
C1390 H1394 0.950 . S
C1390 C1399 1.390 . S
C1391 C1390 1.387 . S
C1391 C1393 1.387 . S
H1392 C1399 0.950 . S
C1393 C1391 1.387 . S
C1393 C1395 1.390 . S
C1393 H1397 0.950 . S
H1394 C1390 0.950 . S
C1395 C1393 1.390 . S
C1395 C1396 1.387 . S
C1395 H1398 0.950 . S
C1396 C1395 1.387 . S
C1396 C1399 1.387 . S
H1397 C1393 0.950 . S
H1398 C1395 0.950 . S
C1399 C1390 1.390 . S
C1399 H1392 0.950 . S
C1399 C1396 1.387 . S
C1400 C1401 1.387 . S
C1400 H1404 0.950 . S
C1400 C1409 1.390 . S
C1401 C1400 1.387 . S
C1401 C1403 1.387 . S
H1402 C1409 0.950 . S
C1403 C1401 1.387 . S
C1403 C1405 1.390 . S
C1403 H1407 0.950 . S
H1404 C1400 0.950 . S
C1405 C1403 1.390 . S
C1405 C1406 1.387 . S
C1405 H1408 0.950 . S
C1406 C1405 1.387 . S
C1406 C1409 1.387 . S
H1407 C1403 0.950 . S
H1408 C1405 0.950 . S
C1409 C1400 1.390 . S
C1409 H1402 0.950 . S
C1409 C1406 1.387 . S
C1410 C1411 1.387 . S
C1410 H1414 0.950 . S
C1410 C1419 1.390 . S
C1411 C1410 1.387 . S
C1411 C1413 1.387 . S
H1412 C1419 0.950 . S
C1413 C1411 1.387 . S
C1413 C1415 1.390 . S
C1413 H1417 0.950 . S
H1414 C1410 0.950 . S
C1415 C1413 1.390 . S
C1415 C1416 1.387 . S
C1415 H1418 0.950 . S
C1416 C1415 1.387 . S
C1416 C1419 1.387 . S
H1417 C1413 0.950 . S
H1418 C1415 0.950 . S
C1419 C1410 1.390 . S
C1419 H1412 0.950 . S
C1419 C1416 1.387 . S
C1420 C1421 1.387 . S
C1420 H1424 0.950 . S
C1420 C1429 1.390 . S
C1421 C1420 1.387 . S
C1421 C1423 1.387 . S
H1422 C1429 0.950 . S
C1423 C1421 1.387 . S
C1423 C1425 1.390 . S
C1423 H1427 0.950 . S
H1424 C1420 0.950 . S
C1425 C1423 1.390 . S
C1425 C1426 1.387 . S
C1425 H1428 0.950 . S
C1426 C1425 1.387 . S
C1426 C1429 1.387 . S
H1427 C1423 0.950 . S
H1428 C1425 0.950 . S
C1429 C1420 1.390 . S
C1429 H1422 0.950 . S
C1429 C1426 1.387 . S
C1430 C1431 1.387 . S
C1430 H1434 0.950 . S
C1430 C1439 1.390 . S
C1431 C1430 1.387 . S
C1431 C1433 1.387 . S
H1432 C1439 0.950 . S
C1433 C1431 1.387 . S
C1433 C1435 1.390 . S
C1433 H1437 0.950 . S
H1434 C1430 0.950 . S
C1435 C1433 1.390 . S
C1435 C1436 1.387 . S
C1435 H1438 0.950 . S
C1436 C1435 1.387 . S
C1436 C1439 1.387 . S
H1437 C1433 0.950 . S
H1438 C1435 0.950 . S
C1439 C1430 1.390 . S
C1439 H1432 0.950 . S
C1439 C1436 1.387 . S
C1440 C1441 1.371 1_545 S
C1440 H1444 0.950 . S
C1440 C1449 1.390 . S
C1441 C1440 1.371 1_565 S
C1441 C1443 1.404 . S
H1442 C1449 0.950 . S
C1443 C1441 1.404 . S
C1443 C1445 1.390 . S
C1443 H1447 0.950 . S
H1444 C1440 0.950 . S
C1445 C1443 1.390 . S
C1445 C1446 1.370 1_565 S
C1445 H1448 0.950 . S
C1446 C1445 1.370 1_545 S
C1446 C1449 1.404 . S
H1447 C1443 0.950 . S
H1448 C1445 0.950 . S
C1449 C1440 1.390 . S
C1449 H1442 0.950 . S
C1449 C1446 1.404 . S
C1450 C1451 1.387 . S
C1450 H1454 0.950 . S
C1450 C1459 1.390 1_455 S
C1451 C1450 1.387 . S
C1451 C1453 1.387 . S
H1452 C1459 0.950 . S
C1453 C1451 1.387 . S
C1453 C1455 1.390 1_455 S
C1453 H1457 0.950 . S
H1454 C1450 0.950 . S
C1455 C1453 1.390 1_655 S
C1455 C1456 1.387 . S
C1455 H1458 0.950 . S
C1456 C1455 1.387 . S
C1456 C1459 1.387 . S
H1457 C1453 0.950 . S
H1458 C1455 0.950 . S
C1459 C1450 1.390 1_655 S
C1459 H1452 0.950 . S
C1459 C1456 1.387 . S
C1460 C1461 1.387 . S
C1460 H1464 0.950 . S
C1460 C1469 1.390 1_556 S
C1461 C1460 1.387 . S
C1461 C1463 1.387 . S
H1462 C1469 0.950 . S
C1463 C1461 1.387 . S
C1463 C1465 1.390 1_556 S
C1463 H1467 0.950 . S
H1464 C1460 0.950 . S
C1465 C1463 1.390 1_554 S
C1465 C1466 1.387 . S
C1465 H1468 0.950 . S
C1466 C1465 1.387 . S
C1466 C1469 1.387 . S
H1467 C1463 0.950 . S
H1468 C1465 0.950 . S
C1469 C1460 1.390 1_554 S
C1469 H1462 0.950 . S
C1469 C1466 1.387 . S
C1470 C1471 1.404 . S
C1470 H1474 0.950 . S
C1470 C1479 1.390 1_654 S
C1471 C1470 1.404 . S
C1471 C1473 1.370 1_565 S
H1472 C1479 0.950 . S
C1473 C1471 1.370 1_545 S
C1473 C1475 1.390 1_654 S
C1473 H1477 0.950 . S
H1474 C1470 0.950 . S
C1475 C1473 1.390 1_456 S
C1475 C1476 1.404 . S
C1475 H1478 0.950 . S
C1476 C1475 1.404 . S
C1476 C1479 1.370 1_545 S
H1477 C1473 0.950 . S
H1478 C1475 0.950 . S
C1479 C1470 1.390 1_456 S
C1479 H1472 0.950 . S
C1479 C1476 1.370 1_565 S
C1480 C1481 1.370 1_565 S
C1480 H1484 0.950 . S
C1480 C1489 1.390 . S
C1481 C1480 1.370 1_545 S
C1481 C1483 1.404 . S
H1482 C1489 0.950 . S
C1483 C1481 1.404 . S
C1483 C1485 1.390 . S
C1483 H1487 0.950 . S
H1484 C1480 0.950 . S
C1485 C1483 1.390 . S
C1485 C1486 1.370 1_545 S
C1485 H1488 0.950 . S
C1486 C1485 1.370 1_565 S
C1486 C1489 1.405 . S
H1487 C1483 0.950 . S
H1488 C1485 0.950 . S
C1489 C1480 1.390 . S
C1489 H1482 0.950 . S
C1489 C1486 1.405 . S
C1490 C1491 1.387 . S
C1490 H1494 0.950 . S
C1490 C1499 1.390 1_455 S
C1491 C1490 1.387 . S
C1491 C1493 1.387 . S
H1492 C1499 0.950 . S
C1493 C1491 1.387 . S
C1493 C1495 1.390 1_455 S
C1493 H1497 0.950 . S
H1494 C1490 0.950 . S
C1495 C1493 1.390 1_655 S
C1495 C1496 1.387 . S
C1495 H1498 0.950 . S
C1496 C1495 1.387 . S
C1496 C1499 1.387 . S
H1497 C1493 0.950 . S
H1498 C1495 0.950 . S
C1499 C1490 1.390 1_655 S
C1499 H1492 0.950 . S
C1499 C1496 1.387 . S
C1500 C1501 1.387 . S
C1500 H1504 0.950 . S
C1500 C1509 1.390 1_556 S
C1501 C1500 1.387 . S
C1501 C1503 1.387 . S
H1502 C1509 0.950 . S
C1503 C1501 1.387 . S
C1503 C1505 1.390 1_556 S
C1503 H1507 0.950 . S
H1504 C1500 0.950 . S
C1505 C1503 1.390 1_554 S
C1505 C1506 1.387 . S
C1505 H1508 0.950 . S
C1506 C1505 1.387 . S
C1506 C1509 1.387 . S
H1507 C1503 0.950 . S
H1508 C1505 0.950 . S
C1509 C1500 1.390 1_554 S
C1509 H1502 0.950 . S
C1509 C1506 1.387 . S
C1510 C1511 1.387 . S
C1510 H1514 0.950 . S
C1510 C1519 1.390 . S
C1511 C1510 1.387 . S
C1511 C1513 1.387 . S
H1512 C1519 0.950 . S
C1513 C1511 1.387 . S
C1513 C1515 1.390 . S
C1513 H1517 0.950 . S
H1514 C1510 0.950 . S
C1515 C1513 1.390 . S
C1515 C1516 1.387 . S
C1515 H1518 0.950 . S
C1516 C1515 1.387 . S
C1516 C1519 1.387 . S
H1517 C1513 0.950 . S
H1518 C1515 0.950 . S
C1519 C1510 1.390 . S
C1519 H1512 0.950 . S
C1519 C1516 1.387 . S
C1520 C1521 1.387 . S
C1520 H1524 0.950 . S
C1520 C1529 1.390 . S
C1521 C1520 1.387 . S
C1521 C1523 1.387 . S
H1522 C1529 0.950 . S
C1523 C1521 1.387 . S
C1523 C1525 1.390 . S
C1523 H1527 0.950 . S
H1524 C1520 0.950 . S
C1525 C1523 1.390 . S
C1525 C1526 1.387 . S
C1525 H1528 0.950 . S
C1526 C1525 1.387 . S
C1526 C1529 1.387 . S
H1527 C1523 0.950 . S
H1528 C1525 0.950 . S
C1529 C1520 1.390 . S
C1529 H1522 0.950 . S
C1529 C1526 1.387 . S
C1530 C1531 1.387 . S
C1530 H1534 0.950 . S
C1530 C1539 1.390 1_455 S
C1531 C1530 1.387 . S
C1531 C1533 1.387 . S
H1532 C1539 0.950 . S
C1533 C1531 1.387 . S
C1533 C1535 1.390 1_455 S
C1533 H1537 0.950 . S
H1534 C1530 0.950 . S
C1535 C1533 1.390 1_655 S
C1535 C1536 1.387 . S
C1535 H1538 0.950 . S
C1536 C1535 1.387 . S
C1536 C1539 1.387 . S
H1537 C1533 0.950 . S
H1538 C1535 0.950 . S
C1539 C1530 1.390 1_655 S
C1539 H1532 0.950 . S
C1539 C1536 1.387 . S
C1540 C1541 1.387 . S
C1540 H1544 0.950 . S
C1540 C1549 1.390 . S
C1541 C1540 1.387 . S
C1541 C1543 1.387 . S
H1542 C1549 0.950 . S
C1543 C1541 1.387 . S
C1543 C1545 1.390 . S
C1543 H1547 0.950 . S
H1544 C1540 0.950 . S
C1545 C1543 1.390 . S
C1545 C1546 1.387 . S
C1545 H1548 0.950 . S
C1546 C1545 1.387 . S
C1546 C1549 1.387 . S
H1547 C1543 0.950 . S
H1548 C1545 0.950 . S
C1549 C1540 1.390 . S
C1549 H1542 0.950 . S
C1549 C1546 1.387 . S
C1550 C1551 1.387 . S
C1550 H1554 0.950 . S
C1550 C1559 1.390 . S
C1551 C1550 1.387 . S
C1551 C1553 1.387 . S
H1552 C1559 0.950 . S
C1553 C1551 1.387 . S
C1553 C1555 1.390 . S
C1553 H1557 0.950 . S
H1554 C1550 0.950 . S
C1555 C1553 1.390 . S
C1555 C1556 1.387 . S
C1555 H1558 0.950 . S
C1556 C1555 1.387 . S
C1556 C1559 1.387 . S
H1557 C1553 0.950 . S
H1558 C1555 0.950 . S
C1559 C1550 1.390 . S
C1559 H1552 0.950 . S
C1559 C1556 1.387 . S
C1560 C1561 1.387 . S
C1560 H1564 0.950 . S
C1560 C1569 1.390 . S
C1561 C1560 1.387 . S
C1561 C1563 1.387 . S
H1562 C1569 0.950 . S
C1563 C1561 1.387 . S
C1563 C1565 1.390 . S
C1563 H1567 0.950 . S
H1564 C1560 0.950 . S
C1565 C1563 1.390 . S
C1565 C1566 1.387 . S
C1565 H1568 0.950 . S
C1566 C1565 1.387 . S
C1566 C1569 1.387 . S
H1567 C1563 0.950 . S
H1568 C1565 0.950 . S
C1569 C1560 1.390 . S
C1569 H1562 0.950 . S
C1569 C1566 1.387 . S
C1570 C1571 1.404 . S
C1570 H1574 0.950 . S
C1570 C1579 1.390 . S
C1571 C1570 1.404 . S
C1571 C1573 1.371 1_565 S
H1572 C1579 0.950 . S
C1573 C1571 1.371 1_545 S
C1573 C1575 1.390 . S
C1573 H1577 0.950 . S
H1574 C1570 0.950 . S
C1575 C1573 1.390 . S
C1575 C1576 1.404 . S
C1575 H1578 0.950 . S
C1576 C1575 1.404 . S
C1576 C1579 1.371 1_545 S
H1577 C1573 0.950 . S
H1578 C1575 0.950 . S
C1579 C1570 1.390 . S
C1579 H1572 0.950 . S
C1579 C1576 1.371 1_565 S
C1580 C1581 1.387 . S
C1580 H1584 0.950 . S
C1580 C1589 1.390 . S
C1581 C1580 1.387 . S
C1581 C1583 1.387 . S
H1582 C1589 0.950 . S
C1583 C1581 1.387 . S
C1583 C1585 1.390 . S
C1583 H1587 0.950 . S
H1584 C1580 0.950 . S
C1585 C1583 1.390 . S
C1585 C1586 1.387 . S
C1585 H1588 0.950 . S
C1586 C1585 1.387 . S
C1586 C1589 1.387 . S
H1587 C1583 0.950 . S
H1588 C1585 0.950 . S
C1589 C1580 1.390 . S
C1589 H1582 0.950 . S
C1589 C1586 1.387 . S
C1590 C1591 1.387 . S
C1590 H1594 0.950 . S
C1590 C1599 1.390 1_554 S
C1591 C1590 1.387 . S
C1591 C1593 1.387 . S
H1592 C1599 0.950 . S
C1593 C1591 1.387 . S
C1593 C1595 1.390 1_554 S
C1593 H1597 0.950 . S
H1594 C1590 0.950 . S
C1595 C1593 1.390 1_556 S
C1595 C1596 1.387 . S
C1595 H1598 0.950 . S
C1596 C1595 1.387 . S
C1596 C1599 1.387 . S
H1597 C1593 0.950 . S
H1598 C1595 0.950 . S
C1599 C1590 1.390 1_556 S
C1599 H1592 0.950 . S
C1599 C1596 1.387 . S
C1600 C1601 1.387 . S
C1600 H1604 0.950 . S
C1600 C1609 1.390 . S
C1601 C1600 1.387 . S
C1601 C1603 1.387 1_545 S
H1602 C1609 0.950 . S
C1603 C1601 1.387 1_565 S
C1603 C1605 1.390 . S
C1603 H1607 0.950 . S
H1604 C1600 0.950 . S
C1605 C1603 1.390 . S
C1605 C1606 1.387 1_565 S
C1605 H1608 0.950 . S
C1606 C1605 1.387 1_545 S
C1606 C1609 1.387 . S
H1607 C1603 0.950 . S
H1608 C1605 0.950 . S
C1609 C1600 1.390 . S
C1609 H1602 0.950 . S
C1609 C1606 1.387 . S
C1610 C1611 1.387 . S
C1610 H1614 0.950 . S
C1610 C1619 1.390 . S
C1611 C1610 1.387 . S
C1611 C1613 1.387 . S
H1612 C1619 0.950 . S
C1613 C1611 1.387 . S
C1613 C1615 1.390 . S
C1613 H1617 0.950 . S
H1614 C1610 0.950 . S
C1615 C1613 1.390 . S
C1615 C1616 1.387 . S
C1615 H1618 0.950 . S
C1616 C1615 1.387 . S
C1616 C1619 1.387 . S
H1617 C1613 0.950 . S
H1618 C1615 0.950 . S
C1619 C1610 1.390 . S
C1619 H1612 0.950 . S
C1619 C1616 1.387 . S
C1620 C1621 1.387 . S
C1620 H1624 0.950 . S
C1620 C1629 1.390 . S
C1621 C1620 1.387 . S
C1621 C1623 1.387 . S
H1622 C1629 0.950 . S
C1623 C1621 1.387 . S
C1623 C1625 1.390 . S
C1623 H1627 0.950 . S
H1624 C1620 0.950 . S
C1625 C1623 1.390 . S
C1625 C1626 1.387 . S
C1625 H1628 0.950 . S
C1626 C1625 1.387 . S
C1626 C1629 1.387 . S
H1627 C1623 0.950 . S
H1628 C1625 0.950 . S
C1629 C1620 1.390 . S
C1629 H1622 0.950 . S
C1629 C1626 1.387 . S
C1630 C1631 1.387 . S
C1630 H1634 0.950 . S
C1630 C1639 1.390 . S
C1631 C1630 1.387 . S
C1631 C1633 1.387 1_545 S
H1632 C1639 0.950 . S
C1633 C1631 1.387 1_565 S
C1633 C1635 1.390 . S
C1633 H1637 0.950 . S
H1634 C1630 0.950 . S
C1635 C1633 1.390 . S
C1635 C1636 1.387 1_565 S
C1635 H1638 0.950 . S
C1636 C1635 1.387 1_545 S
C1636 C1639 1.387 . S
H1637 C1633 0.950 . S
H1638 C1635 0.950 . S
C1639 C1630 1.390 . S
C1639 H1632 0.950 . S
C1639 C1636 1.387 . S
C1640 C1641 1.387 1_545 S
C1640 H1644 0.950 . S
C1640 C1649 1.390 . S
C1641 C1640 1.387 1_565 S
C1641 C1643 1.387 . S
H1642 C1649 0.950 . S
C1643 C1641 1.387 . S
C1643 C1645 1.390 . S
C1643 H1647 0.950 . S
H1644 C1640 0.950 . S
C1645 C1643 1.390 . S
C1645 C1646 1.387 . S
C1645 H1648 0.950 . S
C1646 C1645 1.387 . S
C1646 C1649 1.387 1_565 S
H1647 C1643 0.950 . S
H1648 C1645 0.950 . S
C1649 C1640 1.390 . S
C1649 H1642 0.950 . S
C1649 C1646 1.387 1_545 S
C1650 C1651 1.387 . S
C1650 H1654 0.950 . S
C1650 C1659 1.390 . S
C1651 C1650 1.387 . S
C1651 C1653 1.387 . S
H1652 C1659 0.950 . S
C1653 C1651 1.387 . S
C1653 C1655 1.390 . S
C1653 H1657 0.950 . S
H1654 C1650 0.950 . S
C1655 C1653 1.390 . S
C1655 C1656 1.387 . S
C1655 H1658 0.950 . S
C1656 C1655 1.387 . S
C1656 C1659 1.387 . S
H1657 C1653 0.950 . S
H1658 C1655 0.950 . S
C1659 C1650 1.390 . S
C1659 H1652 0.950 . S
C1659 C1656 1.387 . S
C1660 C1661 1.387 . S
C1660 H1664 0.950 . S
C1660 C1669 1.390 . S
C1661 C1660 1.387 . S
C1661 C1663 1.387 . S
H1662 C1669 0.950 . S
C1663 C1661 1.387 . S
C1663 C1665 1.390 . S
C1663 H1667 0.950 . S
H1664 C1660 0.950 . S
C1665 C1663 1.390 . S
C1665 C1666 1.387 . S
C1665 H1668 0.950 . S
C1666 C1665 1.387 . S
C1666 C1669 1.387 . S
H1667 C1663 0.950 . S
H1668 C1665 0.950 . S
C1669 C1660 1.390 . S
C1669 H1662 0.950 . S
C1669 C1666 1.387 . S
C1670 C1671 1.387 1_545 S
C1670 H1674 0.950 . S
C1670 C1679 1.390 . S
C1671 C1670 1.387 1_565 S
C1671 C1673 1.387 . S
H1672 C1679 0.950 . S
C1673 C1671 1.387 . S
C1673 C1675 1.390 . S
C1673 H1677 0.950 . S
H1674 C1670 0.950 . S
C1675 C1673 1.390 . S
C1675 C1676 1.387 . S
C1675 H1678 0.950 . S
C1676 C1675 1.387 . S
C1676 C1679 1.387 1_565 S
H1677 C1673 0.950 . S
H1678 C1675 0.950 . S
C1679 C1670 1.390 . S
C1679 H1672 0.950 . S
C1679 C1676 1.387 1_545 S
C1680 C1681 1.387 . S
C1680 H1684 0.950 . S
C1680 C1689 1.390 . S
C1681 C1680 1.387 . S
C1681 C1683 1.387 . S
H1682 C1689 0.950 . S
C1683 C1681 1.387 . S
C1683 C1685 1.390 . S
C1683 H1687 0.950 . S
H1684 C1680 0.950 . S
C1685 C1683 1.390 . S
C1685 C1686 1.387 . S
C1685 H1688 0.950 . S
C1686 C1685 1.387 . S
C1686 C1689 1.387 . S
H1687 C1683 0.950 . S
H1688 C1685 0.950 . S
C1689 C1680 1.390 . S
C1689 H1682 0.950 . S
C1689 C1686 1.387 . S
C1690 C1691 1.387 . S
C1690 H1694 0.950 . S
C1690 C1699 1.390 . S
C1691 C1690 1.387 . S
C1691 C1693 1.387 . S
H1692 C1699 0.950 . S
C1693 C1691 1.387 . S
C1693 C1695 1.390 . S
C1693 H1697 0.950 . S
H1694 C1690 0.950 . S
C1695 C1693 1.390 . S
C1695 C1696 1.387 . S
C1695 H1698 0.950 . S
C1696 C1695 1.387 . S
C1696 C1699 1.387 . S
H1697 C1693 0.950 . S
H1698 C1695 0.950 . S
C1699 C1690 1.390 . S
C1699 H1692 0.950 . S
C1699 C1696 1.387 . S
C1700 C1701 1.387 . S
C1700 H1704 0.950 . S
C1700 C1709 1.390 . S
C1701 C1700 1.387 . S
C1701 C1703 1.387 . S
H1702 C1709 0.950 . S
C1703 C1701 1.387 . S
C1703 C1705 1.390 . S
C1703 H1707 0.950 . S
H1704 C1700 0.950 . S
C1705 C1703 1.390 . S
C1705 C1706 1.387 . S
C1705 H1708 0.950 . S
C1706 C1705 1.387 . S
C1706 C1709 1.387 . S
H1707 C1703 0.950 . S
H1708 C1705 0.950 . S
C1709 C1700 1.390 . S
C1709 H1702 0.950 . S
C1709 C1706 1.387 . S
C1710 C1711 1.387 . S
C1710 H1714 0.950 . S
C1710 C1719 1.390 . S
C1711 C1710 1.387 . S
C1711 C1713 1.387 . S
H1712 C1719 0.950 . S
C1713 C1711 1.387 . S
C1713 C1715 1.390 . S
C1713 H1717 0.950 . S
H1714 C1710 0.950 . S
C1715 C1713 1.390 . S
C1715 C1716 1.387 . S
C1715 H1718 0.950 . S
C1716 C1715 1.387 . S
C1716 C1719 1.387 . S
H1717 C1713 0.950 . S
H1718 C1715 0.950 . S
C1719 C1710 1.390 . S
C1719 H1712 0.950 . S
C1719 C1716 1.387 . S
C1720 C1721 1.387 . S
C1720 H1724 0.950 . S
C1720 C1729 1.390 . S
C1721 C1720 1.387 . S
C1721 C1723 1.387 . S
H1722 C1729 0.950 . S
C1723 C1721 1.387 . S
C1723 C1725 1.390 . S
C1723 H1727 0.950 . S
H1724 C1720 0.950 . S
C1725 C1723 1.390 . S
C1725 C1726 1.387 . S
C1725 H1728 0.950 . S
C1726 C1725 1.387 . S
C1726 C1729 1.387 . S
H1727 C1723 0.950 . S
H1728 C1725 0.950 . S
C1729 C1720 1.390 . S
C1729 H1722 0.950 . S
C1729 C1726 1.387 . S
C1730 C1731 1.387 . S
C1730 H1734 0.950 . S
C1730 C1739 1.390 . S
C1731 C1730 1.387 . S
C1731 C1733 1.387 . S
H1732 C1739 0.950 . S
C1733 C1731 1.387 . S
C1733 C1735 1.390 . S
C1733 H1737 0.950 . S
H1734 C1730 0.950 . S
C1735 C1733 1.390 . S
C1735 C1736 1.387 . S
C1735 H1738 0.950 . S
C1736 C1735 1.387 . S
C1736 C1739 1.387 . S
H1737 C1733 0.950 . S
H1738 C1735 0.950 . S
C1739 C1730 1.390 . S
C1739 H1732 0.950 . S
C1739 C1736 1.387 . S
C1740 C1741 1.387 . S
C1740 H1744 0.950 . S
C1740 C1749 1.390 . S
C1741 C1740 1.387 . S
C1741 C1743 1.387 . S
H1742 C1749 0.950 . S
C1743 C1741 1.387 . S
C1743 C1745 1.390 . S
C1743 H1747 0.950 . S
H1744 C1740 0.950 . S
C1745 C1743 1.390 . S
C1745 C1746 1.387 . S
C1745 H1748 0.950 . S
C1746 C1745 1.387 . S
C1746 C1749 1.387 . S
H1747 C1743 0.950 . S
H1748 C1745 0.950 . S
C1749 C1740 1.390 . S
C1749 H1742 0.950 . S
C1749 C1746 1.387 . S
C1750 C1751 1.387 . S
C1750 H1754 0.950 . S
C1750 C1759 1.390 . S
C1751 C1750 1.387 . S
C1751 C1753 1.387 . S
H1752 C1759 0.950 . S
C1753 C1751 1.387 . S
C1753 C1755 1.390 . S
C1753 H1757 0.950 . S
H1754 C1750 0.950 . S
C1755 C1753 1.390 . S
C1755 C1756 1.387 . S
C1755 H1758 0.950 . S
C1756 C1755 1.387 . S
C1756 C1759 1.387 . S
H1757 C1753 0.950 . S
H1758 C1755 0.950 . S
C1759 C1750 1.390 . S
C1759 H1752 0.950 . S
C1759 C1756 1.387 . S
C1760 C1761 1.387 . S
C1760 H1764 0.950 . S
C1760 C1769 1.390 . S
C1761 C1760 1.387 . S
C1761 C1763 1.387 . S
H1762 C1769 0.950 . S
C1763 C1761 1.387 . S
C1763 C1765 1.390 . S
C1763 H1767 0.950 . S
H1764 C1760 0.950 . S
C1765 C1763 1.390 . S
C1765 C1766 1.387 . S
C1765 H1768 0.950 . S
C1766 C1765 1.387 . S
C1766 C1769 1.387 . S
H1767 C1763 0.950 . S
H1768 C1765 0.950 . S
C1769 C1760 1.390 . S
C1769 H1762 0.950 . S
C1769 C1766 1.387 . S
C1770 C1771 1.387 . S
C1770 H1774 0.950 . S
C1770 C1779 1.390 . S
C1771 C1770 1.387 . S
C1771 C1773 1.387 . S
H1772 C1779 0.950 . S
C1773 C1771 1.387 . S
C1773 C1775 1.390 . S
C1773 H1777 0.950 . S
H1774 C1770 0.950 . S
C1775 C1773 1.390 . S
C1775 C1776 1.387 . S
C1775 H1778 0.950 . S
C1776 C1775 1.387 . S
C1776 C1779 1.387 . S
H1777 C1773 0.950 . S
H1778 C1775 0.950 . S
C1779 C1770 1.390 . S
C1779 H1772 0.950 . S
C1779 C1776 1.387 . S
C1780 C1781 1.387 . S
C1780 H1784 0.950 . S
C1780 C1789 1.390 . S
C1781 C1780 1.387 . S
C1781 C1783 1.387 . S
H1782 C1789 0.950 . S
C1783 C1781 1.387 . S
C1783 C1785 1.390 . S
C1783 H1787 0.950 . S
H1784 C1780 0.950 . S
C1785 C1783 1.390 . S
C1785 C1786 1.387 . S
C1785 H1788 0.950 . S
C1786 C1785 1.387 . S
C1786 C1789 1.387 . S
H1787 C1783 0.950 . S
H1788 C1785 0.950 . S
C1789 C1780 1.390 . S
C1789 H1782 0.950 . S
C1789 C1786 1.387 . S
C1790 C1791 1.387 . S
C1790 H1794 0.950 . S
C1790 C1799 1.390 . S
C1791 C1790 1.387 . S
C1791 C1793 1.387 . S
H1792 C1799 0.950 . S
C1793 C1791 1.387 . S
C1793 C1795 1.390 . S
C1793 H1797 0.950 . S
H1794 C1790 0.950 . S
C1795 C1793 1.390 . S
C1795 C1796 1.387 . S
C1795 H1798 0.950 . S
C1796 C1795 1.387 . S
C1796 C1799 1.387 . S
H1797 C1793 0.950 . S
H1798 C1795 0.950 . S
C1799 C1790 1.390 . S
C1799 H1792 0.950 . S
C1799 C1796 1.387 . S
C1800 C1801 1.387 . S
C1800 H1804 0.950 . S
C1800 C1809 1.390 . S
C1801 C1800 1.387 . S
C1801 C1803 1.387 . S
H1802 C1809 0.950 . S
C1803 C1801 1.387 . S
C1803 C1805 1.390 . S
C1803 H1807 0.950 . S
H1804 C1800 0.950 . S
C1805 C1803 1.390 . S
C1805 C1806 1.387 . S
C1805 H1808 0.950 . S
C1806 C1805 1.387 . S
C1806 C1809 1.387 . S
H1807 C1803 0.950 . S
H1808 C1805 0.950 . S
C1809 C1800 1.390 . S
C1809 H1802 0.950 . S
C1809 C1806 1.387 . S
C1810 C1811 1.387 . S
C1810 H1814 0.950 . S
C1810 C1819 1.390 . S
C1811 C1810 1.387 . S
C1811 C1813 1.387 . S
H1812 C1819 0.950 . S
C1813 C1811 1.387 . S
C1813 C1815 1.390 . S
C1813 H1817 0.950 . S
H1814 C1810 0.950 . S
C1815 C1813 1.390 . S
C1815 C1816 1.387 . S
C1815 H1818 0.950 . S
C1816 C1815 1.387 . S
C1816 C1819 1.387 . S
H1817 C1813 0.950 . S
H1818 C1815 0.950 . S
C1819 C1810 1.390 . S
C1819 H1812 0.950 . S
C1819 C1816 1.387 . S
C1820 C1821 1.387 . S
C1820 H1824 0.950 . S
C1820 C1829 1.390 . S
C1821 C1820 1.387 . S
C1821 C1823 1.387 . S
H1822 C1829 0.950 . S
C1823 C1821 1.387 . S
C1823 C1825 1.390 . S
C1823 H1827 0.950 . S
H1824 C1820 0.950 . S
C1825 C1823 1.390 . S
C1825 C1826 1.387 . S
C1825 H1828 0.950 . S
C1826 C1825 1.387 . S
C1826 C1829 1.387 . S
H1827 C1823 0.950 . S
H1828 C1825 0.950 . S
C1829 C1820 1.390 . S
C1829 H1822 0.950 . S
C1829 C1826 1.387 . S
C1830 C1831 1.387 . S
C1830 H1834 0.950 . S
C1830 C1839 1.390 . S
C1831 C1830 1.387 . S
C1831 C1833 1.387 . S
H1832 C1839 0.950 . S
C1833 C1831 1.387 . S
C1833 C1835 1.390 . S
C1833 H1837 0.950 . S
H1834 C1830 0.950 . S
C1835 C1833 1.390 . S
C1835 C1836 1.387 . S
C1835 H1838 0.950 . S
C1836 C1835 1.387 . S
C1836 C1839 1.387 . S
H1837 C1833 0.950 . S
H1838 C1835 0.950 . S
C1839 C1830 1.390 . S
C1839 H1832 0.950 . S
C1839 C1836 1.387 . S
C1840 C1841 1.387 . S
C1840 H1844 0.950 . S
C1840 C1849 1.390 . S
C1841 C1840 1.387 . S
C1841 C1843 1.387 . S
H1842 C1849 0.950 . S
C1843 C1841 1.387 . S
C1843 C1845 1.390 . S
C1843 H1847 0.950 . S
H1844 C1840 0.950 . S
C1845 C1843 1.390 . S
C1845 C1846 1.387 . S
C1845 H1848 0.950 . S
C1846 C1845 1.387 . S
C1846 C1849 1.387 . S
H1847 C1843 0.950 . S
H1848 C1845 0.950 . S
C1849 C1840 1.390 . S
C1849 H1842 0.950 . S
C1849 C1846 1.387 . S
C1850 C1851 1.387 . S
C1850 H1854 0.950 . S
C1850 C1859 1.390 . S
C1851 C1850 1.387 . S
C1851 C1853 1.387 . S
H1852 C1859 0.950 . S
C1853 C1851 1.387 . S
C1853 C1855 1.390 . S
C1853 H1857 0.950 . S
H1854 C1850 0.950 . S
C1855 C1853 1.390 . S
C1855 C1856 1.387 . S
C1855 H1858 0.950 . S
C1856 C1855 1.387 . S
C1856 C1859 1.387 . S
H1857 C1853 0.950 . S
H1858 C1855 0.950 . S
C1859 C1850 1.390 . S
C1859 H1852 0.950 . S
C1859 C1856 1.387 . S
C1860 C1861 1.387 . S
C1860 H1864 0.950 . S
C1860 C1869 1.390 . S
C1861 C1860 1.387 . S
C1861 C1863 1.387 . S
H1862 C1869 0.950 . S
C1863 C1861 1.387 . S
C1863 C1865 1.390 . S
C1863 H1867 0.950 . S
H1864 C1860 0.950 . S
C1865 C1863 1.390 . S
C1865 C1866 1.387 . S
C1865 H1868 0.950 . S
C1866 C1865 1.387 . S
C1866 C1869 1.387 . S
H1867 C1863 0.950 . S
H1868 C1865 0.950 . S
C1869 C1860 1.390 . S
C1869 H1862 0.950 . S
C1869 C1866 1.387 . S
C1870 C1871 1.387 . S
C1870 H1874 0.950 . S
C1870 C1879 1.390 . S
C1871 C1870 1.387 . S
C1871 C1873 1.387 . S
H1872 C1879 0.950 . S
C1873 C1871 1.387 . S
C1873 C1875 1.390 . S
C1873 H1877 0.950 . S
H1874 C1870 0.950 . S
C1875 C1873 1.390 . S
C1875 C1876 1.387 . S
C1875 H1878 0.950 . S
C1876 C1875 1.387 . S
C1876 C1879 1.387 . S
H1877 C1873 0.950 . S
H1878 C1875 0.950 . S
C1879 C1870 1.390 . S
C1879 H1872 0.950 . S
C1879 C1876 1.387 . S
C1880 C1881 1.387 . S
C1880 H1884 0.950 . S
C1880 C1889 1.390 . S
C1881 C1880 1.387 . S
C1881 C1883 1.387 . S
H1882 C1889 0.950 . S
C1883 C1881 1.387 . S
C1883 C1885 1.390 . S
C1883 H1887 0.950 . S
H1884 C1880 0.950 . S
C1885 C1883 1.390 . S
C1885 C1886 1.387 . S
C1885 H1888 0.950 . S
C1886 C1885 1.387 . S
C1886 C1889 1.387 . S
H1887 C1883 0.950 . S
H1888 C1885 0.950 . S
C1889 C1880 1.390 . S
C1889 H1882 0.950 . S
C1889 C1886 1.387 . S
C1890 C1891 1.387 . S
C1890 H1894 0.950 . S
C1890 C1899 1.390 . S
C1891 C1890 1.387 . S
C1891 C1893 1.387 . S
H1892 C1899 0.950 . S
C1893 C1891 1.387 . S
C1893 C1895 1.390 . S
C1893 H1897 0.950 . S
H1894 C1890 0.950 . S
C1895 C1893 1.390 . S
C1895 C1896 1.387 . S
C1895 H1898 0.950 . S
C1896 C1895 1.387 . S
C1896 C1899 1.387 . S
H1897 C1893 0.950 . S
H1898 C1895 0.950 . S
C1899 C1890 1.390 . S
C1899 H1892 0.950 . S
C1899 C1896 1.387 . S
C1900 C1901 1.387 . S
C1900 H1904 0.950 . S
C1900 C1909 1.390 . S
C1901 C1900 1.387 . S
C1901 C1903 1.387 . S
H1902 C1909 0.950 . S
C1903 C1901 1.387 . S
C1903 C1905 1.390 . S
C1903 H1907 0.950 . S
H1904 C1900 0.950 . S
C1905 C1903 1.390 . S
C1905 C1906 1.387 . S
C1905 H1908 0.950 . S
C1906 C1905 1.387 . S
C1906 C1909 1.387 . S
H1907 C1903 0.950 . S
H1908 C1905 0.950 . S
C1909 C1900 1.390 . S
C1909 H1902 0.950 . S
C1909 C1906 1.387 . S
C1910 C1911 1.387 . S
C1910 H1914 0.950 . S
C1910 C1919 1.390 . S
C1911 C1910 1.387 . S
C1911 C1913 1.387 . S
H1912 C1919 0.950 . S
C1913 C1911 1.387 . S
C1913 C1915 1.390 . S
C1913 H1917 0.950 . S
H1914 C1910 0.950 . S
C1915 C1913 1.390 . S
C1915 C1916 1.387 . S
C1915 H1918 0.950 . S
C1916 C1915 1.387 . S
C1916 C1919 1.387 . S
H1917 C1913 0.950 . S
H1918 C1915 0.950 . S
C1919 C1910 1.390 . S
C1919 H1912 0.950 . S
C1919 C1916 1.387 . S
C1920 C1921 1.387 . S
C1920 H1924 0.950 . S
C1920 C1929 1.390 . S
C1921 C1920 1.387 . S
C1921 C1923 1.387 1_565 S
H1922 C1929 0.950 . S
C1923 C1921 1.387 1_545 S
C1923 C1925 1.390 . S
C1923 H1927 0.950 . S
H1924 C1920 0.950 . S
C1925 C1923 1.390 . S
C1925 C1926 1.387 1_545 S
C1925 H1928 0.950 . S
C1926 C1925 1.387 1_565 S
C1926 C1929 1.387 . S
H1927 C1923 0.950 . S
H1928 C1925 0.950 . S
C1929 C1920 1.390 . S
C1929 H1922 0.950 . S
C1929 C1926 1.387 . S
C1930 C1931 1.387 . S
C1930 H1934 0.950 . S
C1930 C1939 1.390 . S
C1931 C1930 1.387 . S
C1931 C1933 1.387 . S
H1932 C1939 0.950 . S
C1933 C1931 1.387 . S
C1933 C1935 1.390 . S
C1933 H1937 0.950 . S
H1934 C1930 0.950 . S
C1935 C1933 1.390 . S
C1935 C1936 1.387 . S
C1935 H1938 0.950 . S
C1936 C1935 1.387 . S
C1936 C1939 1.387 . S
H1937 C1933 0.950 . S
H1938 C1935 0.950 . S
C1939 C1930 1.390 . S
C1939 H1932 0.950 . S
C1939 C1936 1.387 . S
C1940 C1941 1.387 . S
C1940 H1944 0.950 . S
C1940 C1949 1.390 . S
C1941 C1940 1.387 . S
C1941 C1943 1.387 . S
H1942 C1949 0.950 . S
C1943 C1941 1.387 . S
C1943 C1945 1.390 . S
C1943 H1947 0.950 . S
H1944 C1940 0.950 . S
C1945 C1943 1.390 . S
C1945 C1946 1.387 . S
C1945 H1948 0.950 . S
C1946 C1945 1.387 . S
C1946 C1949 1.387 . S
H1947 C1943 0.950 . S
H1948 C1945 0.950 . S
C1949 C1940 1.390 . S
C1949 H1942 0.950 . S
C1949 C1946 1.387 . S
C1950 C1951 1.387 1_545 S
C1950 H1954 0.950 . S
C1950 C1959 1.390 . S
C1951 C1950 1.387 1_565 S
C1951 C1953 1.387 . S
H1952 C1959 0.950 . S
C1953 C1951 1.387 . S
C1953 C1955 1.390 . S
C1953 H1957 0.950 . S
H1954 C1950 0.950 . S
C1955 C1953 1.390 . S
C1955 C1956 1.387 . S
C1955 H1958 0.950 . S
C1956 C1955 1.387 . S
C1956 C1959 1.387 1_565 S
H1957 C1953 0.950 . S
H1958 C1955 0.950 . S
C1959 C1950 1.390 . S
C1959 H1952 0.950 . S
C1959 C1956 1.387 1_545 S
C1960 C1961 1.387 . S
C1960 H1964 0.950 . S
C1960 C1969 1.390 . S
C1961 C1960 1.387 . S
C1961 C1963 1.387 1_545 S
H1962 C1969 0.950 . S
C1963 C1961 1.387 1_565 S
C1963 C1965 1.390 . S
C1963 H1967 0.950 . S
H1964 C1960 0.950 . S
C1965 C1963 1.390 . S
C1965 C1966 1.387 1_565 S
C1965 H1968 0.950 . S
C1966 C1965 1.387 1_545 S
C1966 C1969 1.387 . S
H1967 C1963 0.950 . S
H1968 C1965 0.950 . S
C1969 C1960 1.390 . S
C1969 H1962 0.950 . S
C1969 C1966 1.387 . S
C1970 C1971 1.387 . S
C1970 H1974 0.950 . S
C1970 C1979 1.390 . S
C1971 C1970 1.387 . S
C1971 C1973 1.387 . S
H1972 C1979 0.950 . S
C1973 C1971 1.387 . S
C1973 C1975 1.390 . S
C1973 H1977 0.950 . S
H1974 C1970 0.950 . S
C1975 C1973 1.390 . S
C1975 C1976 1.387 . S
C1975 H1978 0.950 . S
C1976 C1975 1.387 . S
C1976 C1979 1.387 . S
H1977 C1973 0.950 . S
H1978 C1975 0.950 . S
C1979 C1970 1.390 . S
C1979 H1972 0.950 . S
C1979 C1976 1.387 . S
C1980 C1981 1.387 . S
C1980 H1984 0.950 . S
C1980 C1989 1.390 . S
C1981 C1980 1.387 . S
C1981 C1983 1.387 . S
H1982 C1989 0.950 . S
C1983 C1981 1.387 . S
C1983 C1985 1.390 . S
C1983 H1987 0.950 . S
H1984 C1980 0.950 . S
C1985 C1983 1.390 . S
C1985 C1986 1.387 . S
C1985 H1988 0.950 . S
C1986 C1985 1.387 . S
C1986 C1989 1.387 . S
H1987 C1983 0.950 . S
H1988 C1985 0.950 . S
C1989 C1980 1.390 . S
C1989 H1982 0.950 . S
C1989 C1986 1.387 . S
C1990 C1991 1.387 . S
C1990 H1994 0.950 . S
C1990 C1999 1.390 . S
C1991 C1990 1.387 . S
C1991 C1993 1.387 1_545 S
H1992 C1999 0.950 . S
C1993 C1991 1.387 1_565 S
C1993 C1995 1.390 . S
C1993 H1997 0.950 . S
H1994 C1990 0.950 . S
C1995 C1993 1.390 . S
C1995 C1996 1.387 1_565 S
C1995 H1998 0.950 . S
C1996 C1995 1.387 1_545 S
C1996 C1999 1.387 . S
H1997 C1993 0.950 . S
H1998 C1995 0.950 . S
C1999 C1990 1.390 . S
C1999 H1992 0.950 . S
C1999 C1996 1.387 . S
C2000 C2001 1.387 . S
C2000 H2004 0.950 . S
C2000 C2009 1.390 . S
C2001 C2000 1.387 . S
C2001 C2003 1.387 . S
H2002 C2009 0.950 . S
C2003 C2001 1.387 . S
C2003 C2005 1.390 . S
C2003 H2007 0.950 . S
H2004 C2000 0.950 . S
C2005 C2003 1.390 . S
C2005 C2006 1.387 . S
C2005 H2008 0.950 . S
C2006 C2005 1.387 . S
C2006 C2009 1.387 . S
H2007 C2003 0.950 . S
H2008 C2005 0.950 . S
C2009 C2000 1.390 . S
C2009 H2002 0.950 . S
C2009 C2006 1.387 . S
C2010 C2011 1.387 . S
C2010 H2014 0.950 . S
C2010 C2019 1.390 . S
C2011 C2010 1.387 . S
C2011 C2013 1.387 . S
H2012 C2019 0.950 . S
C2013 C2011 1.387 . S
C2013 C2015 1.390 . S
C2013 H2017 0.950 . S
H2014 C2010 0.950 . S
C2015 C2013 1.390 . S
C2015 C2016 1.387 . S
C2015 H2018 0.950 . S
C2016 C2015 1.387 . S
C2016 C2019 1.387 . S
H2017 C2013 0.950 . S
H2018 C2015 0.950 . S
C2019 C2010 1.390 . S
C2019 H2012 0.950 . S
C2019 C2016 1.387 . S
C2020 C2021 1.387 . S
C2020 H2024 0.950 . S
C2020 C2029 1.390 . S
C2021 C2020 1.387 . S
C2021 C2023 1.387 . S
H2022 C2029 0.950 . S
C2023 C2021 1.387 . S
C2023 C2025 1.390 . S
C2023 H2027 0.950 . S
H2024 C2020 0.950 . S
C2025 C2023 1.390 . S
C2025 C2026 1.387 . S
C2025 H2028 0.950 . S
C2026 C2025 1.387 . S
C2026 C2029 1.387 . S
H2027 C2023 0.950 . S
H2028 C2025 0.950 . S
C2029 C2020 1.390 . S
C2029 H2022 0.950 . S
C2029 C2026 1.387 . S
C2030 C2031 1.387 . S
C2030 H2034 0.950 . S
C2030 C2039 1.390 . S
C2031 C2030 1.387 . S
C2031 C2033 1.387 . S
H2032 C2039 0.950 . S
C2033 C2031 1.387 . S
C2033 C2035 1.390 . S
C2033 H2037 0.950 . S
H2034 C2030 0.950 . S
C2035 C2033 1.390 . S
C2035 C2036 1.387 . S
C2035 H2038 0.950 . S
C2036 C2035 1.387 . S
C2036 C2039 1.387 . S
H2037 C2033 0.950 . S
H2038 C2035 0.950 . S
C2039 C2030 1.390 . S
C2039 H2032 0.950 . S
C2039 C2036 1.387 . S
C2040 C2041 1.387 . S
C2040 H2044 0.950 . S
C2040 C2049 1.390 . S
C2041 C2040 1.387 . S
C2041 C2043 1.387 . S
H2042 C2049 0.950 . S
C2043 C2041 1.387 . S
C2043 C2045 1.390 . S
C2043 H2047 0.950 . S
H2044 C2040 0.950 . S
C2045 C2043 1.390 . S
C2045 C2046 1.387 . S
C2045 H2048 0.950 . S
C2046 C2045 1.387 . S
C2046 C2049 1.387 . S
H2047 C2043 0.950 . S
H2048 C2045 0.950 . S
C2049 C2040 1.390 . S
C2049 H2042 0.950 . S
C2049 C2046 1.387 . S
C2050 C2051 1.387 . S
C2050 H2054 0.950 . S
C2050 C2059 1.390 . S
C2051 C2050 1.387 . S
C2051 C2053 1.387 . S
H2052 C2059 0.950 . S
C2053 C2051 1.387 . S
C2053 C2055 1.390 . S
C2053 H2057 0.950 . S
H2054 C2050 0.950 . S
C2055 C2053 1.390 . S
C2055 C2056 1.387 . S
C2055 H2058 0.950 . S
C2056 C2055 1.387 . S
C2056 C2059 1.387 . S
H2057 C2053 0.950 . S
H2058 C2055 0.950 . S
C2059 C2050 1.390 . S
C2059 H2052 0.950 . S
C2059 C2056 1.387 . S
C2060 C2061 1.387 . S
C2060 H2064 0.950 . S
C2060 C2069 1.390 . S
C2061 C2060 1.387 . S
C2061 C2063 1.387 . S
H2062 C2069 0.950 . S
C2063 C2061 1.387 . S
C2063 C2065 1.390 . S
C2063 H2067 0.950 . S
H2064 C2060 0.950 . S
C2065 C2063 1.390 . S
C2065 C2066 1.387 . S
C2065 H2068 0.950 . S
C2066 C2065 1.387 . S
C2066 C2069 1.387 . S
H2067 C2063 0.950 . S
H2068 C2065 0.950 . S
C2069 C2060 1.390 . S
C2069 H2062 0.950 . S
C2069 C2066 1.387 . S
C2070 C2071 1.387 . S
C2070 H2074 0.950 . S
C2070 C2079 1.390 . S
C2071 C2070 1.387 . S
C2071 C2073 1.387 . S
H2072 C2079 0.950 . S
C2073 C2071 1.387 . S
C2073 C2075 1.390 . S
C2073 H2077 0.950 . S
H2074 C2070 0.950 . S
C2075 C2073 1.390 . S
C2075 C2076 1.387 . S
C2075 H2078 0.950 . S
C2076 C2075 1.387 . S
C2076 C2079 1.387 . S
H2077 C2073 0.950 . S
H2078 C2075 0.950 . S
C2079 C2070 1.390 . S
C2079 H2072 0.950 . S
C2079 C2076 1.387 . S
C2080 C2081 1.387 . S
C2080 H2084 0.950 . S
C2080 C2089 1.390 . S
C2081 C2080 1.387 . S
C2081 C2083 1.387 1_565 S
H2082 C2089 0.950 . S
C2083 C2081 1.387 1_545 S
C2083 C2085 1.390 . S
C2083 H2087 0.950 . S
H2084 C2080 0.950 . S
C2085 C2083 1.390 . S
C2085 C2086 1.387 1_545 S
C2085 H2088 0.950 . S
C2086 C2085 1.387 1_565 S
C2086 C2089 1.387 . S
H2087 C2083 0.950 . S
H2088 C2085 0.950 . S
C2089 C2080 1.390 . S
C2089 H2082 0.950 . S
C2089 C2086 1.387 . S
C2090 C2091 1.387 . S
C2090 H2094 0.950 . S
C2090 C2099 1.390 . S
C2091 C2090 1.387 . S
C2091 C2093 1.387 . S
H2092 C2099 0.950 . S
C2093 C2091 1.387 . S
C2093 C2095 1.390 . S
C2093 H2097 0.950 . S
H2094 C2090 0.950 . S
C2095 C2093 1.390 . S
C2095 C2096 1.387 . S
C2095 H2098 0.950 . S
C2096 C2095 1.387 . S
C2096 C2099 1.387 . S
H2097 C2093 0.950 . S
H2098 C2095 0.950 . S
C2099 C2090 1.390 . S
C2099 H2092 0.950 . S
C2099 C2096 1.387 . S
C2100 C2101 1.387 . S
C2100 H2104 0.950 . S
C2100 C2109 1.390 . S
C2101 C2100 1.387 . S
C2101 C2103 1.387 . S
H2102 C2109 0.950 . S
C2103 C2101 1.387 . S
C2103 C2105 1.390 . S
C2103 H2107 0.950 . S
H2104 C2100 0.950 . S
C2105 C2103 1.390 . S
C2105 C2106 1.387 . S
C2105 H2108 0.950 . S
C2106 C2105 1.387 . S
C2106 C2109 1.387 . S
H2107 C2103 0.950 . S
H2108 C2105 0.950 . S
C2109 C2100 1.390 . S
C2109 H2102 0.950 . S
C2109 C2106 1.387 . S
C2110 C2111 1.387 . S
C2110 H2114 0.950 . S
C2110 C2119 1.390 . S
C2111 C2110 1.387 . S
C2111 C2113 1.387 1_565 S
H2112 C2119 0.950 . S
C2113 C2111 1.387 1_545 S
C2113 C2115 1.390 . S
C2113 H2117 0.950 . S
H2114 C2110 0.950 . S
C2115 C2113 1.390 . S
C2115 C2116 1.387 1_545 S
C2115 H2118 0.950 . S
C2116 C2115 1.387 1_565 S
C2116 C2119 1.387 . S
H2117 C2113 0.950 . S
H2118 C2115 0.950 . S
C2119 C2110 1.390 . S
C2119 H2112 0.950 . S
C2119 C2116 1.387 . S
C2120 C2121 1.387 1_565 S
C2120 H2124 0.950 . S
C2120 C2129 1.390 . S
C2121 C2120 1.387 1_545 S
C2121 C2123 1.387 . S
H2122 C2129 0.950 . S
C2123 C2121 1.387 . S
C2123 C2125 1.390 . S
C2123 H2127 0.950 . S
H2124 C2120 0.950 . S
C2125 C2123 1.390 . S
C2125 C2126 1.387 . S
C2125 H2128 0.950 . S
C2126 C2125 1.387 . S
C2126 C2129 1.387 1_545 S
H2127 C2123 0.950 . S
H2128 C2125 0.950 . S
C2129 C2120 1.390 . S
C2129 H2122 0.950 . S
C2129 C2126 1.387 1_565 S
C2130 C2131 1.387 . S
C2130 H2134 0.950 . S
C2130 C2139 1.390 . S
C2131 C2130 1.387 . S
C2131 C2133 1.387 . S
H2132 C2139 0.950 . S
C2133 C2131 1.387 . S
C2133 C2135 1.390 . S
C2133 H2137 0.950 . S
H2134 C2130 0.950 . S
C2135 C2133 1.390 . S
C2135 C2136 1.387 . S
C2135 H2138 0.950 . S
C2136 C2135 1.387 . S
C2136 C2139 1.387 . S
H2137 C2133 0.950 . S
H2138 C2135 0.950 . S
C2139 C2130 1.390 . S
C2139 H2132 0.950 . S
C2139 C2136 1.387 . S
C2140 C2141 1.387 . S
C2140 H2144 0.950 . S
C2140 C2149 1.390 . S
C2141 C2140 1.387 . S
C2141 C2143 1.387 . S
H2142 C2149 0.950 . S
C2143 C2141 1.387 . S
C2143 C2145 1.390 . S
C2143 H2147 0.950 . S
H2144 C2140 0.950 . S
C2145 C2143 1.390 . S
C2145 C2146 1.387 . S
C2145 H2148 0.950 . S
C2146 C2145 1.387 . S
C2146 C2149 1.387 . S
H2147 C2143 0.950 . S
H2148 C2145 0.950 . S
C2149 C2140 1.390 . S
C2149 H2142 0.950 . S
C2149 C2146 1.387 . S
C2150 C2151 1.387 . S
C2150 H2154 0.950 . S
C2150 C2159 1.390 . S
C2151 C2150 1.387 . S
C2151 C2153 1.387 1_545 S
H2152 C2159 0.950 . S
C2153 C2151 1.387 1_565 S
C2153 C2155 1.390 . S
C2153 H2157 0.950 . S
H2154 C2150 0.950 . S
C2155 C2153 1.390 . S
C2155 C2156 1.387 1_565 S
C2155 H2158 0.950 . S
C2156 C2155 1.387 1_545 S
C2156 C2159 1.387 . S
H2157 C2153 0.950 . S
H2158 C2155 0.950 . S
C2159 C2150 1.390 . S
C2159 H2152 0.950 . S
C2159 C2156 1.387 . S
C2160 C2161 1.387 . S
C2160 H2164 0.950 . S
C2160 C2169 1.390 . S
C2161 C2160 1.387 . S
C2161 C2163 1.387 . S
H2162 C2169 0.950 . S
C2163 C2161 1.387 . S
C2163 C2165 1.390 . S
C2163 H2167 0.950 . S
H2164 C2160 0.950 . S
C2165 C2163 1.390 . S
C2165 C2166 1.387 . S
C2165 H2168 0.950 . S
C2166 C2165 1.387 . S
C2166 C2169 1.387 . S
H2167 C2163 0.950 . S
H2168 C2165 0.950 . S
C2169 C2160 1.390 . S
C2169 H2162 0.950 . S
C2169 C2166 1.387 . S
C2170 C2171 1.387 . S
C2170 H2174 0.950 . S
C2170 C2179 1.390 . S
C2171 C2170 1.387 . S
C2171 C2173 1.387 . S
H2172 C2179 0.950 . S
C2173 C2171 1.387 . S
C2173 C2175 1.390 . S
C2173 H2177 0.950 . S
H2174 C2170 0.950 . S
C2175 C2173 1.390 . S
C2175 C2176 1.387 . S
C2175 H2178 0.950 . S
C2176 C2175 1.387 . S
C2176 C2179 1.387 . S
H2177 C2173 0.950 . S
H2178 C2175 0.950 . S
C2179 C2170 1.390 . S
C2179 H2172 0.950 . S
C2179 C2176 1.387 . S
C2180 C2181 1.387 . S
C2180 H2184 0.950 . S
C2180 C2189 1.390 . S
C2181 C2180 1.387 . S
C2181 C2183 1.387 . S
H2182 C2189 0.950 . S
C2183 C2181 1.387 . S
C2183 C2185 1.390 . S
C2183 H2187 0.950 . S
H2184 C2180 0.950 . S
C2185 C2183 1.390 . S
C2185 C2186 1.387 . S
C2185 H2188 0.950 . S
C2186 C2185 1.387 . S
C2186 C2189 1.387 . S
H2187 C2183 0.950 . S
H2188 C2185 0.950 . S
C2189 C2180 1.390 . S
C2189 H2182 0.950 . S
C2189 C2186 1.387 . S
C2190 C2191 1.387 . S
C2190 H2194 0.950 . S
C2190 C2199 1.390 . S
C2191 C2190 1.387 . S
C2191 C2193 1.387 . S
H2192 C2199 0.950 . S
C2193 C2191 1.387 . S
C2193 C2195 1.390 . S
C2193 H2197 0.950 . S
H2194 C2190 0.950 . S
C2195 C2193 1.390 . S
C2195 C2196 1.387 . S
C2195 H2198 0.950 . S
C2196 C2195 1.387 . S
C2196 C2199 1.387 . S
H2197 C2193 0.950 . S
H2198 C2195 0.950 . S
C2199 C2190 1.390 . S
C2199 H2192 0.950 . S
C2199 C2196 1.387 . S
C2200 C2201 1.387 . S
C2200 H2204 0.950 . S
C2200 C2209 1.390 . S
C2201 C2200 1.387 . S
C2201 C2203 1.387 . S
H2202 C2209 0.950 . S
C2203 C2201 1.387 . S
C2203 C2205 1.390 . S
C2203 H2207 0.950 . S
H2204 C2200 0.950 . S
C2205 C2203 1.390 . S
C2205 C2206 1.387 . S
C2205 H2208 0.950 . S
C2206 C2205 1.387 . S
C2206 C2209 1.387 . S
H2207 C2203 0.950 . S
H2208 C2205 0.950 . S
C2209 C2200 1.390 . S
C2209 H2202 0.950 . S
C2209 C2206 1.387 . S
C2210 C2211 1.387 . S
C2210 H2214 0.950 . S
C2210 C2219 1.390 . S
C2211 C2210 1.387 . S
C2211 C2213 1.387 . S
H2212 C2219 0.950 . S
C2213 C2211 1.387 . S
C2213 C2215 1.390 . S
C2213 H2217 0.950 . S
H2214 C2210 0.950 . S
C2215 C2213 1.390 . S
C2215 C2216 1.387 . S
C2215 H2218 0.950 . S
C2216 C2215 1.387 . S
C2216 C2219 1.387 . S
H2217 C2213 0.950 . S
H2218 C2215 0.950 . S
C2219 C2210 1.390 . S
C2219 H2212 0.950 . S
C2219 C2216 1.387 . S
C2220 C2221 1.387 . S
C2220 H2224 0.950 . S
C2220 C2229 1.390 . S
C2221 C2220 1.387 . S
C2221 C2223 1.387 . S
H2222 C2229 0.950 . S
C2223 C2221 1.387 . S
C2223 C2225 1.390 . S
C2223 H2227 0.950 . S
H2224 C2220 0.950 . S
C2225 C2223 1.390 . S
C2225 C2226 1.387 . S
C2225 H2228 0.950 . S
C2226 C2225 1.387 . S
C2226 C2229 1.387 . S
H2227 C2223 0.950 . S
H2228 C2225 0.950 . S
C2229 C2220 1.390 . S
C2229 H2222 0.950 . S
C2229 C2226 1.387 . S
C2230 C2231 1.387 . S
C2230 H2234 0.950 . S
C2230 C2239 1.390 . S
C2231 C2230 1.387 . S
C2231 C2233 1.387 . S
H2232 C2239 0.950 . S
C2233 C2231 1.387 . S
C2233 C2235 1.390 . S
C2233 H2237 0.950 . S
H2234 C2230 0.950 . S
C2235 C2233 1.390 . S
C2235 C2236 1.387 . S
C2235 H2238 0.950 . S
C2236 C2235 1.387 . S
C2236 C2239 1.387 . S
H2237 C2233 0.950 . S
H2238 C2235 0.950 . S
C2239 C2230 1.390 . S
C2239 H2232 0.950 . S
C2239 C2236 1.387 . S
C1281 C1018 2.068 . S
C1286 C18 2.068 . S
C1291 C978 2.072 . S
C1296 C58 2.072 . S
C1301 C1098 2.068 . S
C1306 C98 2.068 . S
C1311 C1058 2.072 . S
C1316 C138 2.072 . S
C1321 C169 2.068 . S
C1326 C1169 2.068 . S
C1331 C209 2.072 . S
C1336 C1129 2.072 . S
C1341 C249 2.072 . S
C1346 C1249 2.072 . S
C1351 C1209 2.068 . S
C1356 C289 2.068 . S
C1361 C698 2.072 . S
C1366 C338 2.072 . S
C1371 C658 2.072 . S
C1376 C378 2.072 . S
C1381 C778 2.072 . S
C1386 C418 2.072 . S
C1391 C738 2.068 . S
C1396 C458 2.068 . S
C1401 C489 2.068 . S
C1406 C849 2.068 . S
C1411 C809 2.068 . S
C1416 C529 2.068 . S
C1421 C569 2.072 . S
C1426 C929 2.072 . S
C1431 C889 2.072 . S
C1436 C609 2.072 . S
C1441 C19 5.073 . S
C1446 C810 5.073 . S
C1451 C530 5.073 . S
C1456 C59 5.073 . S
C1461 C1210 5.073 . S
C1466 C99 5.073 . S
C1471 C139 5.072 . S
C1476 C290 5.072 . S
C1481 C170 5.072 . S
C1486 C659 5.072 . S
C1491 C210 5.071 . S
C1496 C379 5.071 . S
C1501 C250 5.071 . S
C1506 C1059 5.071 . S
C1511 C1130 5.072 . S
C1516 C339 5.072 . S
C1521 C890 5.071 . S
C1526 C419 5.071 . S
C1531 C610 5.072 . S
C1536 C459 5.072 . S
C1541 C979 5.072 . S
C1546 C490 5.072 . S
C1551 C570 5.073 . S
C1556 C739 5.073 . S
C1561 C1170 5.073 . S
C1566 C699 5.073 . S
C1571 C779 5.072 . S
C1576 C930 5.072 . S
C1581 C1019 5.073 . S
C1586 C850 5.073 . S
C1591 C1099 5.072 . S
C1596 C1250 5.072 . S
C1601 C10 4.513 1_556 S
C1606 C770 4.513 . S
C1611 C50 4.512 1_556 S
C1616 C730 4.512 . S
C1621 C90 4.512 . S
C1626 C690 4.512 . S
C1631 C130 4.513 . S
C1636 C650 4.513 . S
C1641 C179 4.513 1_554 S
C1646 C939 4.513 . S
C1651 C219 4.512 1_554 S
C1656 C899 4.512 . S
C1661 C259 4.512 . S
C1666 C859 4.512 . S
C1671 C299 4.513 . S
C1676 C819 4.513 . S
C1681 C330 4.513 . S
C1686 C1090 4.513 . S
C1691 C370 4.512 . S
C1696 C1050 4.512 . S
C1701 C410 4.512 . S
C1706 C1010 4.512 1_556 S
C1711 C450 4.513 . S
C1716 C970 4.513 1_556 S
C1721 C1259 4.512 . S
C1726 C499 4.512 . S
C1731 C1219 4.512 . S
C1736 C539 4.512 . S
C1741 C1179 4.513 1_554 S
C1746 C579 4.513 . S
C1751 C1139 4.513 1_554 S
C1756 C619 4.513 . S
C1761 C89 1.538 . S
C1766 C9 1.538 . S
C1771 C129 1.538 . S
C1776 C49 1.538 . S
C1781 C258 1.538 . S
C1786 C178 1.538 . S
C1791 C218 1.538 . S
C1796 C298 1.538 . S
C1801 C409 1.538 . S
C1806 C329 1.538 . S
C1811 C369 1.537 . S
C1816 C449 1.537 . S
C1821 C578 1.538 . S
C1826 C498 1.538 . S
C1831 C538 1.535 . S
C1836 C618 1.535 . S
C1841 C649 1.538 . S
C1846 C729 1.538 . S
C1851 C689 1.535 . S
C1856 C769 1.535 . S
C1861 C898 1.536 . S
C1866 C818 1.536 . S
C1871 C858 1.535 . S
C1876 C938 1.535 . S
C1881 C969 1.538 . S
C1886 C1049 1.538 . S
C1891 C1089 1.537 . S
C1896 C1009 1.537 . S
C1901 C1138 1.538 . S
C1906 C1218 1.538 . S
C1911 C1178 1.535 . S
C1916 C1258 1.535 . S
C1921 C6 1.387 . S
C1926 C286 1.378 . S
C1931 C1206 1.372 . S
C1936 C46 1.381 . S
C1941 C86 1.387 . S
C1946 C526 1.378 . S
C1951 C126 1.381 . S
C1956 C806 1.372 . S
C1961 C135 1.372 . S
C1966 C175 1.381 . S
C1971 C215 1.387 . S
C1976 C1055 1.378 . S
C1981 C375 1.378 . S
C1986 C255 1.387 . S
C1991 C655 1.372 . S
C1996 C295 1.381 . S
C2001 C326 1.381 . S
C2006 C606 1.372 . S
C2011 C886 1.372 . S
C2016 C366 1.381 . S
C2021 C406 1.387 . S
C2026 C206 1.378 . S
C2031 C1126 1.378 . S
C2036 C446 1.387 . S
C2041 C495 1.386 . S
C2046 C455 1.378 . S
C2051 C535 1.387 . S
C2056 C735 1.378 . S
C2061 C575 1.387 . S
C2066 C55 1.378 . S
C2071 C975 1.372 . S
C2076 C615 1.381 . S
C2081 C646 1.387 . S
C2086 C926 1.378 . S
C2091 C686 1.381 . S
C2096 C566 1.372 . S
C2101 C726 1.387 . S
C2106 C1166 1.378 . S
C2111 C766 1.387 . S
C2116 C166 1.378 . S
C2121 C815 1.387 . S
C2126 C775 1.378 . S
C2131 C415 1.378 . S
C2136 C855 1.387 . S
C2141 C1015 1.372 . S
C2146 C895 1.381 . S
C2151 C935 1.381 . S
C2156 C15 1.372 . S
C2161 C1246 1.378 . S
C2166 C966 1.387 . S
C2171 C246 1.378 . S
C2176 C1006 1.387 . S
C2181 C846 1.378 . S
C2186 C1046 1.387 . S
C2191 C1086 1.387 . S
C2196 C486 1.378 . S
C2201 C1095 1.378 . S
C2206 C1135 1.387 . S
C2211 C95 1.378 . S
C2216 C1175 1.387 . S
C2221 C695 1.372 . S
C2226 C1215 1.381 . S
C2231 C1255 1.381 . S
C2236 C335 1.372 . S
