# Generated by pormake.
# Topology ilc, (8)-cn, num edge types: 1
# Building blocks:
#     Node 0, Type 0, BuildingBlock: EBIMEJ_clean_sbu_0, # of connection points: 8
#     Node 1, Type 0, BuildingBlock: EBIMEJ_clean_sbu_0, # of connection points: 8
#     Node 2, Type 0, BuildingBlock: EBIMEJ_clean_sbu_0, # of connection points: 8
#     Edge 3, Type (0, 0), BuildingBlock: XUDNAN_clean_linker_2, # of connection points: 2
#     Edge 4, Type (0, 0), BuildingBlock: XUDNAN_clean_linker_2, # of connection points: 2
#     Edge 5, Type (0, 0), BuildingBlock: XUDNAN_clean_linker_2, # of connection points: 2
#     Edge 6, Type (0, 0), BuildingBlock: XUDNAN_clean_linker_2, # of connection points: 2
#     Edge 7, Type (0, 0), BuildingBlock: XUDNAN_clean_linker_2, # of connection points: 2
#     Edge 8, Type (0, 0), BuildingBlock: XUDNAN_clean_linker_2, # of connection points: 2
#     Edge 9, Type (0, 0), BuildingBlock: XUDNAN_clean_linker_2, # of connection points: 2
#     Edge 10, Type (0, 0), BuildingBlock: XUDNAN_clean_linker_2, # of connection points: 2
#     Edge 11, Type (0, 0), BuildingBlock: XUDNAN_clean_linker_2, # of connection points: 2
#     Edge 12, Type (0, 0), BuildingBlock: XUDNAN_clean_linker_2, # of connection points: 2
#     Edge 13, Type (0, 0), BuildingBlock: XUDNAN_clean_linker_2, # of connection points: 2
#     Edge 14, Type (0, 0), BuildingBlock: XUDNAN_clean_linker_2, # of connection points: 2
# Relax obj value: 0.144
# Max RMSD: 0.227
# Mean RMSD: 0.227
data_MOF--net-ilc--node1-EBIMEJ_clean_sbu_0--edge1-XUDNAN_clean_linker_2
_symmetry_space_group_name_H-M    P1
_symmetry_Int_Tables_number       1
_symmetry_cell_setting            triclinic
loop_
_symmetry_equiv_pos_as_xyz
'x, y, z'
_cell_length_a     25.681117
_cell_length_b     23.112404
_cell_length_c     16.790437
_cell_angle_alpha  85.540308
_cell_angle_beta   96.36782
_cell_angle_gamma 136.47705
loop_
_atom_site_label
_atom_site_type_symbol
_atom_site_fract_x
_atom_site_fract_y
_atom_site_fract_z
_atom_type_partial_charge
Co0 Co 0.98172 0.91885 0.17245 0.0
Co1 Co 0.08443 0.9929 1.01808 0.0
Co2 Co 0.96784 -0.00199 1.01897 0.0
H3 H 0.98048 0.95356 0.08021 0.0
O4 O 0.98455 0.92454 0.0585 0.0
H5 H 0.06357 0.02668 0.95314 0.0
O6 O 0.06424 0.06163 0.96989 0.0
Co7 Co 0.03413 0.02283 0.85755 0.0
O8 O 0.13823 0.07266 0.84316 0.0
O9 O 0.18045 0.06073 0.96162 0.0
O10 O 0.9845 0.06197 0.83417 0.0
O11 O 0.95069 0.0616 0.95285 0.0
O12 O 0.97125 0.83877 0.24832 0.0
O13 O 0.87577 0.79827 0.18481 0.0
O14 O 0.94871 0.90796 0.8995 0.0
O15 O 0.02853 0.90222 0.93485 0.0
C16 C 0.85893 0.91105 0.14938 0.0
C17 C 0.10063 0.91985 0.16259 0.0
C18 C 1.01254 0.9804 0.71721 0.0
C19 C 0.04562 0.08802 0.18208 0.0
C20 C 0.18828 0.0825 0.88717 0.0
C21 C 0.95587 0.07567 0.87646 0.0
C22 C 0.90051 0.77849 0.23523 0.0
C23 C 0.96397 0.86673 0.90246 0.0
O24 O 0.90278 0.91331 0.19668 0.0
O25 O 0.87031 0.93116 0.07466 0.0
O26 O 0.10532 0.93338 0.08638 0.0
O27 O 0.06592 0.92655 0.20342 0.0
O28 O 0.96861 0.97711 0.74948 0.0
O29 O 0.0687 0.00989 0.76376 0.0
O30 O 0.03476 0.02929 0.21588 0.0
O31 O 0.02641 0.08631 0.10759 0.0
Co32 Co 0.70925 0.32517 0.51945 0.0
Co33 Co 0.75428 0.33205 0.34996 0.0
Co34 Co 0.63985 0.33879 0.36405 0.0
H35 H 0.66894 0.31313 0.4278 0.0
O36 O 0.66667 0.27635 0.4129 0.0
H37 H 0.73143 0.36699 0.29003 0.0
O38 O 0.73225 0.40049 0.31114 0.0
Co39 Co 0.71 0.38338 0.19846 0.0
O40 O 0.77771 0.37809 0.15887 0.0
O41 O 0.83724 0.38655 0.27388 0.0
O42 O 0.62232 0.36906 0.1722 0.0
O43 O 0.61101 0.391 0.29386 0.0
O44 O 0.68126 0.29819 0.63512 0.0
O45 O 0.7947 0.39184 0.60923 0.0
O46 O 0.63047 0.25918 0.18513 0.0
O47 O 0.67926 0.23038 0.27712 0.0
C48 C 0.55894 0.27363 0.51098 0.0
C49 C 0.77659 0.26181 0.49341 0.0
C50 C 0.78863 0.52279 0.13469 0.0
C51 C 0.76898 0.48074 0.4724 0.0
C52 C 0.83167 0.39167 0.19663 0.0
C53 C 0.60144 0.39089 0.21631 0.0
C54 C 0.74925 0.35224 0.6631 0.0
C55 C 0.63152 0.20868 0.21822 0.0
O56 O 0.61462 0.28923 0.54669 0.0
O57 O 0.55307 0.28074 0.43433 0.0
O58 O 0.78485 0.28007 0.41761 0.0
O59 O 0.74118 0.26736 0.53361 0.0
O60 O 0.81283 0.50678 0.19135 0.0
O61 O 0.71901 0.45935 0.11717 0.0
O62 O 0.79102 0.44679 0.4901 0.0
O63 O 0.70386 0.43827 0.43595 0.0
Co64 Co 0.34163 0.62043 0.84749 0.0
Co65 Co 0.42356 0.66688 0.68857 0.0
Co66 Co 0.3054 0.67075 0.68883 0.0
H67 H 0.3237 0.63365 0.75224 0.0
O68 O 0.32546 0.60154 0.73343 0.0
H69 H 0.40915 0.70961 0.62542 0.0
O70 O 0.40584 0.73957 0.64703 0.0
Co71 Co 0.40149 0.73705 0.53131 0.0
O72 O 0.4784 0.7395 0.50787 0.0
O73 O 0.51718 0.72698 0.62829 0.0
O74 O 0.33373 0.75413 0.5078 0.0
O75 O 0.28196 0.72838 0.62237 0.0
O76 O 0.25544 0.53114 0.91987 0.0
O77 O 0.36089 0.57984 0.9462 0.0
O78 O 0.31765 0.61163 0.5162 0.0
O79 O 0.35855 0.57323 0.60745 0.0
C80 C 0.20457 0.59182 0.82139 0.0
C81 C 0.4587 0.62404 0.83778 0.0
C82 C 0.45939 0.83523 0.41545 0.0
C83 C 0.41443 0.78369 0.82286 0.0
C84 C 0.52366 0.74238 0.55237 0.0
C85 C 0.29348 0.75233 0.54862 0.0
C86 C 0.29662 0.53326 0.97047 0.0
C87 C 0.31435 0.55721 0.54746 0.0
O88 O 0.25524 0.60515 0.86823 0.0
O89 O 0.20861 0.60128 0.74474 0.0
O90 O 0.4444 0.60801 0.76157 0.0
O91 O 0.44212 0.65802 0.867 0.0
O92 O 0.48868 0.81633 0.45764 0.0
O93 O 0.40042 0.80356 0.44476 0.0
O94 O 0.42977 0.74257 0.82599 0.0
O95 O 0.35887 0.75823 0.77554 0.0
H96 H 0.90194 0.9238 0.59645 0.0
H97 H 0.08314 0.94527 0.66545 0.0
H98 H 0.04091 0.8546 0.55219 0.0
H99 H 0.75725 0.73406 0.53069 0.0
H100 H 0.73107 0.74054 0.42958 0.0
H101 H 0.77456 0.82253 0.50108 0.0
H102 H 0.89986 0.94964 0.43418 0.0
H103 H 0.84356 0.87902 0.34962 0.0
H104 H 0.93774 0.92709 0.37599 0.0
H105 H 0.96482 0.73808 0.45397 0.0
H106 H 0.91328 0.68053 0.317 0.0
H107 H 0.78926 0.74181 0.30441 0.0
C108 C 0.93169 0.90784 0.58886 0.0
C109 C 0.99362 0.93819 0.64205 0.0
C110 C 0.03446 0.92109 0.62678 0.0
C111 C 1.00978 0.86768 0.56436 0.0
C112 C 0.94367 0.83096 0.51905 0.0
C113 C 0.90876 0.85533 0.52605 0.0
C114 C 0.85236 0.82432 0.45532 0.0
C115 C 0.77423 0.77766 0.48073 0.0
C116 C 0.885 0.8993 0.40055 0.0
C117 C 0.85178 0.76711 0.41558 0.0
C118 C 0.90623 0.77324 0.45331 0.0
C119 C 0.92381 0.73517 0.42258 0.0
C120 C 0.89258 0.70041 0.34564 0.0
C121 C 0.85577 0.71739 0.29881 0.0
C122 C 0.82107 0.73269 0.33856 0.0
H123 H 0.67495 0.36029 0.75098 0.0
H124 H 0.8769 0.41657 0.75665 0.0
H125 H 0.9268 0.49914 0.88159 0.0
H126 H 0.76503 0.54778 0.77301 0.0
H127 H 0.71761 0.55059 0.83907 0.0
H128 H 0.66449 0.45997 0.77611 0.0
H129 H 0.61278 0.34349 0.87774 0.0
H130 H 0.63591 0.41469 0.94836 0.0
H131 H 0.66898 0.3682 0.96943 0.0
H132 H 0.94719 0.57084 1.00647 0.0
H133 H 0.94036 0.62273 0.1222 0.0
H134 H 0.74726 0.55904 1.00193 0.0
C135 C 0.72819 0.387 0.78017 0.0
C136 C 0.7717 0.38154 0.74567 0.0
C137 C 0.8423 0.41911 0.78391 0.0
C138 C 0.87073 0.46557 0.85481 0.0
C139 C 0.82882 0.47591 0.88338 0.0
C140 C 0.75921 0.43762 0.84686 0.0
C141 C 0.73063 0.4685 0.87939 0.0
C142 C 0.71837 0.50864 0.81329 0.0
C143 C 0.65789 0.39467 0.92112 0.0
C144 C 0.79638 0.53342 0.93856 0.0
C145 C 0.8513 0.53478 0.94147 0.0
C146 C 0.90822 0.57485 1.00327 0.0
C147 C 0.90384 0.60507 0.06845 0.0
C148 C 0.83738 0.58472 0.07261 0.0
C149 C 0.79577 0.56991 1.00034 0.0
H150 H 0.39654 0.57229 0.09592 0.0
H151 H 0.18472 0.49637 0.04206 0.0
H152 H 0.22944 0.60189 0.13885 0.0
H153 H 0.40961 0.6208 0.3111 0.0
H154 H 0.51056 0.70624 0.31849 0.0
H155 H 0.46367 0.61713 0.25611 0.0
H156 H 0.53406 0.7136 0.14329 0.0
H157 H 0.57835 0.8083 0.19022 0.0
H158 H 0.51834 0.77285 0.09884 0.0
H159 H 0.30672 0.74187 0.19693 0.0
H160 H 0.37974 0.845 0.30626 0.0
H161 H 0.53814 0.82839 0.32858 0.0
C162 C 0.35817 0.57593 0.1062 0.0
C163 C 0.29068 0.53257 0.05607 0.0
C164 C 0.23905 0.53306 0.07611 0.0
C165 C 0.26464 0.59516 0.12751 0.0
C166 C 0.3389 0.6517 0.16006 0.0
C167 C 0.38289 0.63852 0.15634 0.0
C168 C 0.45713 0.70244 0.2065 0.0
C169 C 0.46039 0.65877 0.27715 0.0
C170 C 0.5258 0.75241 0.15677 0.0
C171 C 0.44913 0.75641 0.23462 0.0
C172 C 0.38099 0.7268 0.20474 0.0
C173 C 0.35906 0.76401 0.22318 0.0
C174 C 0.40221 0.82452 0.2838 0.0
C175 C 0.46168 0.84046 0.32824 0.0
C176 C 0.49206 0.816 0.29612 0.0
H177 H 0.35455 0.88894 0.45122 0.0
H178 H 0.14198 0.65575 0.5369 0.0
H179 H 0.07214 0.66911 0.43785 0.0
H180 H 0.29433 0.99494 0.42237 0.0
H181 H 0.34709 0.05199 0.33551 0.0
H182 H 0.37984 0.02346 0.41249 0.0
H183 H 0.38147 0.95169 0.3049 0.0
H184 H 0.34409 0.97434 0.22734 0.0
H185 H 0.29524 0.86737 0.24522 0.0
H186 H 0.02517 0.6978 0.31695 0.0
H187 H 1.0024 0.75918 0.21138 0.0
H188 H 0.2438 0.98662 0.21629 0.0
C189 C 0.29333 0.84179 0.45045 0.0
C190 C 0.25372 0.77137 0.50288 0.0
C191 C 0.17366 0.71074 0.49893 0.0
C192 C 0.13351 0.7173 0.44182 0.0
C193 C 0.17404 0.78596 0.38969 0.0
C194 C 0.25234 0.84896 0.39545 0.0
C195 C 0.28179 0.91883 0.33533 0.0
C196 C 0.32849 0.00224 0.37903 0.0
C197 C 0.32838 0.92853 0.27464 0.0
C198 C 0.20776 0.8849 0.29447 0.0
C199 C 0.14661 0.80679 0.32527 0.0
C200 C 0.07259 0.75991 0.29428 0.0
C201 C 0.06021 0.79533 0.23395 0.0
C202 C 0.12077 0.87824 0.20609 0.0
C203 C 0.19608 0.92295 0.23565 0.0
H204 H 0.32507 0.53185 0.39991 0.0
H205 H 0.18793 0.40148 0.6019 0.0
H206 H 0.09717 0.26751 0.52439 0.0
H207 H 0.17064 0.41469 0.24594 0.0
H208 H 0.2211 0.41535 0.17885 0.0
H209 H 0.27242 0.49993 0.25045 0.0
H210 H 0.35277 0.47358 0.30751 0.0
H211 H 0.30277 0.39245 0.2333 0.0
H212 H 0.30376 0.36886 0.33807 0.0
H213 H 1.02086 0.14998 0.4215 0.0
H214 H 0.97451 0.05394 0.31122 0.0
H215 H 0.16654 0.26147 0.17856 0.0
C216 C 0.27619 0.47479 0.42751 0.0
C217 C 0.26306 0.47606 0.5061 0.0
C218 C 0.19875 0.4009 0.54157 0.0
C219 C 0.14694 0.32509 0.49784 0.0
C220 C 0.16135 0.32622 0.41954 0.0
C221 C 0.22521 0.39892 0.38544 0.0
C222 C 0.22912 0.38346 0.30151 0.0
C223 C 0.22303 0.43136 0.24044 0.0
C224 C 0.30137 0.40589 0.29469 0.0
C225 C 0.15868 0.29014 0.29366 0.0
C226 C 0.1193 0.25862 0.36179 0.0
C227 C 0.05185 0.17412 0.36851 0.0
C228 C 0.026 0.12019 0.30561 0.0
C229 C 0.06758 0.15048 0.23718 0.0
C230 C 0.1336 0.23696 0.22997 0.0
H231 H 0.64768 0.89039 0.48478 0.0
H232 H 0.51851 0.62789 0.50796 0.0
H233 H 0.57861 0.64074 0.39262 0.0
H234 H 0.6557 0.9176 0.27398 0.0
H235 H 0.75362 0.01679 0.27791 0.0
H236 H 0.69782 0.98406 0.36038 0.0
H237 H 0.804 0.01945 0.44268 0.0
H238 H 0.85504 0.02967 0.36859 0.0
H239 H 0.81552 0.95195 0.4469 0.0
H240 H 0.64 0.678 0.26306 0.0
H241 H 0.73034 0.74522 0.159 0.0
H242 H 0.83406 0.98872 0.22861 0.0
C243 C 0.63546 0.83704 0.46837 0.0
C244 C 0.58043 0.75878 0.50792 0.0
C245 C 0.56258 0.68907 0.4813 0.0
C246 C 0.59531 0.6955 0.4145 0.0
C247 C 0.64676 0.77257 0.37487 0.0
C248 C 0.66946 0.84321 0.40299 0.0
C249 C 0.73112 0.92009 0.35347 0.0
C250 C 0.70802 0.96188 0.31417 0.0
C251 C 0.80598 0.98384 0.40572 0.0
C252 C 0.73661 0.88071 0.29092 0.0
C253 C 0.68587 0.79513 0.30322 0.0
C254 C 0.6801 0.74494 0.25326 0.0
C255 C 0.73105 0.78366 0.19325 0.0
C256 C 0.78843 0.87211 0.18416 0.0
C257 C 0.78938 0.92081 0.23215 0.0
H258 H 0.79617 0.15399 0.48659 0.0
H259 H 0.86116 0.35078 0.62695 0.0
H260 H 0.90225 0.31731 0.74139 0.0
H261 H 0.74078 0.00476 0.64607 0.0
H262 H 0.7854 0.98295 0.60031 0.0
H263 H 0.75257 0.0216 0.54094 0.0
H264 H 0.90164 0.14947 0.49822 0.0
H265 H 0.92015 0.09975 0.56477 0.0
H266 H 0.97332 0.20786 0.5796 0.0
H267 H 0.92059 0.2496 0.85015 0.0
H268 H 0.95137 0.18184 0.93086 0.0
H269 H 0.89909 0.04662 0.7188 0.0
C270 C 0.82101 0.19156 0.54051 0.0
C271 C 0.8219 0.25321 0.5475 0.0
C272 C 0.8563 0.30101 0.61984 0.0
C273 C 0.88039 0.28269 0.68612 0.0
C274 C 0.87481 0.21903 0.67948 0.0
C275 C 0.84993 0.17715 0.60752 0.0
C276 C 0.85718 0.11705 0.61617 0.0
C277 C 0.77953 0.02614 0.59982 0.0
C278 C 0.91631 0.14479 0.56139 0.0
C279 C 0.886 0.12911 0.70421 0.0
C280 C 0.89462 0.18742 0.74003 0.0
C281 C 0.91637 0.20576 0.82202 0.0
C282 C 0.93294 0.16621 0.86789 0.0
C283 C 0.92886 0.10971 0.83163 0.0
C284 C 0.90394 0.09043 0.74861 0.0
H285 H 0.90056 0.58247 0.57446 0.0
H286 H 0.71197 0.54257 0.47794 0.0
H287 H 0.74178 0.63135 0.58243 0.0
H288 H 0.86438 0.56847 0.75534 0.0
H289 H 0.95494 0.64392 0.81319 0.0
H290 H 0.9451 0.59808 0.72291 0.0
H291 H 0.03545 0.74285 0.62859 0.0
H292 H 0.06351 0.76343 0.73403 0.0
H293 H 0.05216 0.82183 0.67935 0.0
H294 H 0.77781 0.70838 0.69723 0.0
H295 H 0.83037 0.78838 0.8213 0.0
H296 H 1.00519 0.79497 0.84608 0.0
C297 C 0.86912 0.59752 0.5719 0.0
C298 C 0.80381 0.55522 0.51782 0.0
C299 C 0.76208 0.5737 0.51835 0.0
C300 C 0.77925 0.62552 0.57687 0.0
C301 C 0.84166 0.66371 0.63084 0.0
C302 C 0.88855 0.654 0.62771 0.0
C303 C 0.94392 0.69164 0.70253 0.0
C304 C 0.92617 0.62142 0.75182 0.0
C305 C 0.02805 0.75856 0.68429 0.0
C306 C 0.92253 0.72764 0.74441 0.0
C307 C 0.86211 0.70815 0.70216 0.0
C308 C 0.82662 0.72661 0.73009 0.0
C309 C 0.85663 0.77152 0.8011 0.0
C310 C 0.92316 0.80013 0.84207 0.0
C311 C 0.95493 0.77501 0.81526 0.0
H312 H 0.39834 0.16308 0.50274 0.0
H313 H 0.60832 0.35752 0.64729 0.0
H314 H 0.53699 0.31822 0.76237 0.0
H315 H 0.30688 0.21417 0.58905 0.0
H316 H 0.21391 0.10714 0.58318 0.0
H317 H 0.28056 0.145 0.51192 0.0
H318 H 0.26506 0.02283 0.55063 0.0
H319 H 0.19985 0.98595 0.62334 0.0
H320 H 0.28348 0.01013 0.65379 0.0
H321 H 0.44458 0.2395 0.86987 0.0
H322 H 0.33678 0.17802 0.9477 0.0
H323 H 0.18781 0.05809 0.73011 0.0
C324 C 0.42912 0.19802 0.5582 0.0
C325 C 0.50956 0.26006 0.5673 0.0
C326 C 0.54705 0.306 0.64043 0.0
C327 C 0.50725 0.28436 0.70644 0.0
C328 C 0.42886 0.21913 0.69823 0.0
C329 C 0.38972 0.18012 0.62489 0.0
C330 C 0.30513 0.12063 0.63141 0.0
C331 C 0.27485 0.14841 0.57558 0.0
C332 C 0.26079 0.02949 0.61376 0.0
C333 C 0.30423 0.13223 0.71944 0.0
C334 C 0.37587 0.18656 0.75751 0.0
C335 C 0.38851 0.20126 0.84015 0.0
C336 C 0.32689 0.16492 0.88417 0.0
C337 C 0.25365 0.11476 0.84507 0.0
C338 C 0.24277 0.09726 0.7619 0.0
H339 H 0.57563 0.39739 0.05248 0.0
H340 H 0.56793 0.46781 0.27942 0.0
H341 H 0.53467 0.53582 0.20555 0.0
H342 H 0.66035 0.60199 0.95084 0.0
H343 H 0.61403 0.54829 0.85555 0.0
H344 H 0.64196 0.51359 0.93073 0.0
H345 H 0.50386 0.36594 0.91655 0.0
H346 H 0.47518 0.40352 0.84705 0.0
H347 H 0.42773 0.35162 0.938 0.0
H348 H 0.52332 0.61451 0.10677 0.0
H349 H 0.49995 0.66943 0.99536 0.0
H350 H 0.49304 0.53032 0.82642 0.0
C351 C 0.56715 0.42718 0.08699 0.0
C352 C 0.57455 0.42645 0.17279 0.0
C353 C 0.56238 0.46633 0.21454 0.0
C354 C 0.54431 0.50616 0.17274 0.0
C355 C 0.53915 0.5068 0.08869 0.0
C356 C 0.54984 0.4681 0.0461 0.0
C357 C 0.54166 0.4794 0.9558 0.0
C358 C 0.61904 0.53944 0.92094 0.0
C359 C 0.48332 0.39492 0.91162 0.0
C360 C 0.51663 0.52225 0.95371 0.0
C361 C 0.52122 0.5425 0.0314 0.0
C362 C 0.51585 0.5959 0.04609 0.0
C363 C 0.50205 0.62632 0.9811 0.0
C364 C 0.48846 0.60005 0.90026 0.0
C365 C 0.49868 0.54883 0.88664 0.0
H366 H 0.42688 0.9123 0.83559 0.0
H367 H 0.45313 0.76624 0.97249 0.0
H368 H 0.49338 0.84799 0.09308 0.0
H369 H 0.58955 0.10599 0.92584 0.0
H370 H 0.54972 0.14551 0.92782 0.0
H371 H 0.51382 0.06985 0.85297 0.0
H372 H 0.37826 0.97226 0.89861 0.0
H373 H 0.41432 0.04747 0.97448 0.0
H374 H 0.36114 0.94062 1.00208 0.0
H375 H 0.54592 0.9512 0.19351 0.0
H376 H 0.60822 0.07649 0.27135 0.0
H377 H 0.54695 0.15602 0.07423 0.0
C378 C 0.4402 0.89691 0.89131 0.0
C379 C 0.43809 0.83392 0.89413 0.0
C380 C 0.45601 0.8155 0.96809 0.0
C381 C 0.47759 0.86015 0.03742 0.0
C382 C 0.48042 0.92238 0.03282 0.0
C383 C 0.46237 0.94127 0.96199 0.0
C384 C 0.4774 0.01697 0.97311 0.0
C385 C 0.53611 0.0888 0.9166 0.0
C386 C 0.40335 0.99284 0.96139 0.0
C387 C 0.50929 0.0387 0.06011 0.0
C388 C 0.50941 0.98243 0.09352 0.0
C389 C 0.54359 0.99412 0.16976 0.0
C390 C 0.57951 0.06595 0.21319 0.0
C391 C 0.58218 0.12594 0.17937 0.0
C392 C 0.54463 0.11058 0.1027 0.0
H393 H 0.20072 0.65889 0.94662 0.0
H394 H 0.05699 0.44289 0.78794 0.0
H395 H 0.95001 0.36966 0.87225 0.0
H396 H 0.12028 0.55435 0.14126 0.0
H397 H 0.12756 0.63346 0.16884 0.0
H398 H 0.19228 0.66125 0.10125 0.0
H399 H 0.15185 0.71655 1.01416 0.0
H400 H 0.0734 0.67339 0.06828 0.0
H401 H 0.05947 0.64729 0.96337 0.0
H402 H 0.86646 0.31038 0.98307 0.0
H403 H 0.79538 0.28151 0.09463 0.0
H404 H 0.98296 0.54026 0.17405 0.0
C405 C 0.14624 0.59647 0.92907 0.0
C406 C 0.13698 0.55655 0.86023 0.0
C407 C 0.06508 0.47515 0.83915 0.0
C408 C 1.00453 0.4325 0.88743 0.0
C409 C 1.01606 0.47218 0.95592 0.0
C410 C 0.0843 0.55343 0.97571 0.0
C411 C 0.0777 0.58437 0.04741 0.0
C412 C 0.13317 0.60984 0.11883 0.0
C413 C 0.09078 0.65937 0.02196 0.0
C414 C 0.99667 0.50514 0.0681 0.0
C415 C 0.9632 0.44119 1.01492 0.0
C416 C 0.89168 0.36006 0.02465 0.0
C417 C 0.85234 0.34376 0.08923 0.0
C418 C 0.88422 0.40763 0.14449 0.0
C419 C 0.95785 0.48952 0.13402 0.0
loop_
_geom_bond_atom_site_label_1
_geom_bond_atom_site_label_2
_geom_bond_distance
_geom_bond_site_symmetry_2
_ccdc_geom_bond_type
Co0 H3 2.400 . S
Co0 O4 2.009 . S
Co0 O12 2.115 . S
Co0 O13 2.315 . S
Co0 O24 2.053 . S
Co0 O27 2.094 1_655 S
Co0 O30 2.122 1_665 S
Co1 O4 2.126 1_456 S
Co1 H5 2.388 1_565 S
Co1 O6 2.053 1_565 S
Co1 O9 2.047 1_565 S
Co1 O15 2.113 1_455 S
Co1 O26 2.063 1_556 S
Co2 H3 2.388 1_545 S
Co2 O4 2.053 1_545 S
Co2 O6 2.126 1_654 S
Co2 O11 2.063 1_554 S
Co2 O25 2.047 1_545 S
Co2 O31 2.113 1_655 S
H3 Co0 2.400 . S
H3 Co2 2.388 1_565 S
H3 O4 0.760 . S
O4 Co0 2.009 . S
O4 Co1 2.126 1_654 S
O4 Co2 2.053 1_565 S
O4 H3 0.760 . S
H5 Co1 2.388 1_545 S
H5 O6 0.760 . S
H5 Co7 2.400 . S
O6 Co1 2.053 1_545 S
O6 Co2 2.126 1_456 S
O6 H5 0.760 . S
O6 Co7 2.009 . S
Co7 H5 2.400 . S
Co7 O6 2.009 . S
Co7 O8 2.053 . S
Co7 O10 2.094 1_455 S
Co7 O14 2.122 1_445 S
Co7 O28 2.115 . S
Co7 O29 2.315 . S
O8 Co7 2.053 . S
O8 C20 1.259 . S
O9 Co1 2.047 1_545 S
O9 C20 1.257 . S
O10 Co7 2.094 1_655 S
O10 C21 1.253 . S
O11 Co2 2.063 1_556 S
O11 C21 1.268 . S
O12 Co0 2.115 . S
O12 C22 1.281 . S
O13 Co0 2.315 . S
O13 C22 1.252 . S
O14 Co7 2.122 1_665 S
O14 C23 1.272 . S
O15 Co1 2.113 1_655 S
O15 C23 1.245 . S
C16 O24 1.259 . S
C16 O25 1.257 . S
C17 O26 1.268 . S
C17 O27 1.253 . S
C18 O28 1.281 . S
C18 O29 1.252 . S
C19 O30 1.272 . S
C19 O31 1.245 . S
C20 O8 1.259 . S
C20 O9 1.257 . S
C21 O10 1.253 . S
C21 O11 1.268 . S
C22 O12 1.281 . S
C22 O13 1.252 . S
C23 O14 1.272 . S
C23 O15 1.245 . S
O24 Co0 2.053 . S
O24 C16 1.259 . S
O25 Co2 2.047 1_565 S
O25 C16 1.257 . S
O26 Co1 2.063 1_554 S
O26 C17 1.268 . S
O27 Co0 2.094 1_455 S
O27 C17 1.253 . S
O28 Co7 2.115 . S
O28 C18 1.281 . S
O29 Co7 2.315 . S
O29 C18 1.252 . S
O30 Co0 2.122 1_445 S
O30 C19 1.272 . S
O31 Co2 2.113 1_455 S
O31 C19 1.245 . S
Co32 H35 2.400 . S
Co32 O36 2.009 . S
Co32 O44 2.115 . S
Co32 O45 2.315 . S
Co32 O56 2.053 . S
Co32 O59 2.094 . S
Co32 O62 2.122 . S
Co33 O36 2.126 . S
Co33 H37 2.388 . S
Co33 O38 2.053 . S
Co33 O41 2.047 . S
Co33 O47 2.113 . S
Co33 O58 2.063 . S
Co34 H35 2.388 . S
Co34 O36 2.053 . S
Co34 O38 2.126 . S
Co34 O43 2.063 . S
Co34 O57 2.047 . S
Co34 O63 2.113 . S
H35 Co32 2.400 . S
H35 Co34 2.388 . S
H35 O36 0.760 . S
O36 Co32 2.009 . S
O36 Co33 2.126 . S
O36 Co34 2.053 . S
O36 H35 0.760 . S
H37 Co33 2.388 . S
H37 O38 0.760 . S
H37 Co39 2.400 . S
O38 Co33 2.053 . S
O38 Co34 2.126 . S
O38 H37 0.760 . S
O38 Co39 2.009 . S
Co39 H37 2.400 . S
Co39 O38 2.009 . S
Co39 O40 2.053 . S
Co39 O42 2.094 . S
Co39 O46 2.122 . S
Co39 O60 2.115 . S
Co39 O61 2.315 . S
O40 Co39 2.053 . S
O40 C52 1.259 . S
O41 Co33 2.047 . S
O41 C52 1.257 . S
O42 Co39 2.094 . S
O42 C53 1.253 . S
O43 Co34 2.063 . S
O43 C53 1.268 . S
O44 Co32 2.115 . S
O44 C54 1.281 . S
O45 Co32 2.315 . S
O45 C54 1.252 . S
O46 Co39 2.122 . S
O46 C55 1.272 . S
O47 Co33 2.113 . S
O47 C55 1.245 . S
C48 O56 1.259 . S
C48 O57 1.257 . S
C49 O58 1.268 . S
C49 O59 1.253 . S
C50 O60 1.281 . S
C50 O61 1.252 . S
C51 O62 1.272 . S
C51 O63 1.245 . S
C52 O40 1.259 . S
C52 O41 1.257 . S
C53 O42 1.253 . S
C53 O43 1.268 . S
C54 O44 1.281 . S
C54 O45 1.252 . S
C55 O46 1.272 . S
C55 O47 1.245 . S
O56 Co32 2.053 . S
O56 C48 1.259 . S
O57 Co34 2.047 . S
O57 C48 1.257 . S
O58 Co33 2.063 . S
O58 C49 1.268 . S
O59 Co32 2.094 . S
O59 C49 1.253 . S
O60 Co39 2.115 . S
O60 C50 1.281 . S
O61 Co39 2.315 . S
O61 C50 1.252 . S
O62 Co32 2.122 . S
O62 C51 1.272 . S
O63 Co34 2.113 . S
O63 C51 1.245 . S
Co64 H67 2.400 . S
Co64 O68 2.009 . S
Co64 O76 2.115 . S
Co64 O77 2.315 . S
Co64 O88 2.053 . S
Co64 O91 2.094 . S
Co64 O94 2.122 . S
Co65 O68 2.126 . S
Co65 H69 2.388 . S
Co65 O70 2.053 . S
Co65 O73 2.047 . S
Co65 O79 2.113 . S
Co65 O90 2.063 . S
Co66 H67 2.388 . S
Co66 O68 2.053 . S
Co66 O70 2.126 . S
Co66 O75 2.063 . S
Co66 O89 2.047 . S
Co66 O95 2.113 . S
H67 Co64 2.400 . S
H67 Co66 2.388 . S
H67 O68 0.760 . S
O68 Co64 2.009 . S
O68 Co65 2.126 . S
O68 Co66 2.053 . S
O68 H67 0.760 . S
H69 Co65 2.388 . S
H69 O70 0.760 . S
H69 Co71 2.400 . S
O70 Co65 2.053 . S
O70 Co66 2.126 . S
O70 H69 0.760 . S
O70 Co71 2.009 . S
Co71 H69 2.400 . S
Co71 O70 2.009 . S
Co71 O72 2.053 . S
Co71 O74 2.094 . S
Co71 O78 2.122 . S
Co71 O92 2.115 . S
Co71 O93 2.315 . S
O72 Co71 2.053 . S
O72 C84 1.259 . S
O73 Co65 2.047 . S
O73 C84 1.257 . S
O74 Co71 2.094 . S
O74 C85 1.253 . S
O75 Co66 2.063 . S
O75 C85 1.268 . S
O76 Co64 2.115 . S
O76 C86 1.281 . S
O77 Co64 2.315 . S
O77 C86 1.252 . S
O78 Co71 2.122 . S
O78 C87 1.272 . S
O79 Co65 2.113 . S
O79 C87 1.245 . S
C80 O88 1.259 . S
C80 O89 1.257 . S
C81 O90 1.268 . S
C81 O91 1.253 . S
C82 O92 1.281 . S
C82 O93 1.252 . S
C83 O94 1.272 . S
C83 O95 1.245 . S
C84 O72 1.259 . S
C84 O73 1.257 . S
C85 O74 1.253 . S
C85 O75 1.268 . S
C86 O76 1.281 . S
C86 O77 1.252 . S
C87 O78 1.272 . S
C87 O79 1.245 . S
O88 Co64 2.053 . S
O88 C80 1.259 . S
O89 Co66 2.047 . S
O89 C80 1.257 . S
O90 Co65 2.063 . S
O90 C81 1.268 . S
O91 Co64 2.094 . S
O91 C81 1.253 . S
O92 Co71 2.115 . S
O92 C82 1.281 . S
O93 Co71 2.315 . S
O93 C82 1.252 . S
O94 Co64 2.122 . S
O94 C83 1.272 . S
O95 Co66 2.113 . S
O95 C83 1.245 . S
H96 C108 0.930 . S
H97 C110 0.930 . S
H98 C111 0.930 . S
H99 C115 0.959 1_655 S
H100 C115 0.959 . S
H101 C115 0.961 . S
H102 C116 0.960 . S
H103 C116 0.961 . S
H104 C116 0.959 . S
H105 C119 0.929 . S
H106 C120 0.931 . S
H107 C122 0.930 1_455 S
C108 H96 0.930 . S
C108 C109 1.399 . S
C108 C113 1.399 . S
C109 C108 1.399 . S
C109 C110 1.376 . S
C110 H97 0.930 . S
C110 C109 1.376 . S
C110 C111 1.388 1_445 S
C111 H98 0.930 . S
C111 C110 1.388 1_665 S
C111 C112 1.390 1_655 S
C112 C111 1.390 1_455 S
C112 C113 1.394 1_565 S
C112 C118 1.465 1_455 S
C113 C108 1.399 . S
C113 C112 1.394 1_545 S
C113 C114 1.516 . S
C114 C113 1.516 . S
C114 C115 1.502 . S
C114 C116 1.561 . S
C114 C117 1.526 1_545 S
C115 H99 0.959 1_455 S
C115 H100 0.959 . S
C115 H101 0.961 . S
C115 C114 1.502 . S
C116 H102 0.960 . S
C116 H103 0.961 . S
C116 H104 0.959 . S
C116 C114 1.561 . S
C117 C114 1.526 1_565 S
C117 C118 1.396 1_455 S
C117 C122 1.390 1_455 S
C118 C112 1.465 1_655 S
C118 C117 1.396 1_655 S
C118 C119 1.399 . S
C119 H105 0.929 . S
C119 C118 1.399 . S
C119 C120 1.385 . S
C120 H106 0.931 . S
C120 C119 1.385 . S
C120 C121 1.389 . S
C121 C120 1.389 . S
C121 C122 1.387 . S
C122 H107 0.930 1_655 S
C122 C117 1.390 1_655 S
C122 C121 1.387 . S
H123 C135 0.930 . S
H124 C137 0.930 . S
H125 C138 0.930 . S
H126 C142 0.959 . S
H127 C142 0.959 . S
H128 C142 0.961 . S
H129 C143 0.960 . S
H130 C143 0.961 . S
H131 C143 0.959 . S
H132 C146 0.929 . S
H133 C147 0.931 . S
H134 C149 0.930 1_554 S
C135 H123 0.930 . S
C135 C136 1.399 . S
C135 C140 1.399 . S
C136 C135 1.399 . S
C136 C137 1.376 . S
C137 H124 0.930 . S
C137 C136 1.376 . S
C137 C138 1.388 . S
C138 H125 0.930 . S
C138 C137 1.388 . S
C138 C139 1.390 . S
C139 C138 1.390 . S
C139 C140 1.394 . S
C139 C145 1.465 . S
C140 C135 1.399 . S
C140 C139 1.394 . S
C140 C141 1.516 . S
C141 C140 1.516 . S
C141 C142 1.502 . S
C141 C143 1.561 . S
C141 C144 1.526 . S
C142 H126 0.959 . S
C142 H127 0.959 . S
C142 H128 0.961 . S
C142 C141 1.502 . S
C143 H129 0.960 . S
C143 H130 0.961 . S
C143 H131 0.959 . S
C143 C141 1.561 . S
C144 C141 1.526 . S
C144 C145 1.396 . S
C144 C149 1.390 . S
C145 C139 1.465 . S
C145 C144 1.396 . S
C145 C146 1.399 . S
C146 H132 0.929 . S
C146 C145 1.399 . S
C146 C147 1.385 . S
C147 H133 0.931 . S
C147 C146 1.385 . S
C147 C148 1.390 1_556 S
C148 C147 1.390 1_554 S
C148 C149 1.387 1_554 S
C149 H134 0.930 1_556 S
C149 C144 1.390 . S
C149 C148 1.387 1_556 S
H150 C162 0.930 1_556 S
H151 C164 0.930 . S
H152 C165 0.930 . S
H153 C169 0.959 . S
H154 C169 0.959 . S
H155 C169 0.961 . S
H156 C170 0.960 . S
H157 C170 0.961 . S
H158 C170 0.959 . S
H159 C173 0.929 . S
H160 C174 0.931 . S
H161 C176 0.930 . S
C162 H150 0.930 1_554 S
C162 C163 1.399 1_554 S
C162 C167 1.399 . S
C163 C162 1.399 1_556 S
C163 C164 1.376 1_556 S
C164 H151 0.930 . S
C164 C163 1.376 1_554 S
C164 C165 1.388 . S
C165 H152 0.930 . S
C165 C164 1.388 . S
C165 C166 1.390 . S
C166 C165 1.390 . S
C166 C167 1.394 . S
C166 C172 1.465 . S
C167 C162 1.399 . S
C167 C166 1.394 . S
C167 C168 1.516 . S
C168 C167 1.516 . S
C168 C169 1.502 . S
C168 C170 1.561 . S
C168 C171 1.526 . S
C169 H153 0.959 . S
C169 H154 0.959 . S
C169 H155 0.961 . S
C169 C168 1.502 . S
C170 H156 0.960 . S
C170 H157 0.961 . S
C170 H158 0.959 . S
C170 C168 1.561 . S
C171 C168 1.526 . S
C171 C172 1.396 . S
C171 C176 1.390 . S
C172 C166 1.465 . S
C172 C171 1.396 . S
C172 C173 1.399 . S
C173 H159 0.929 . S
C173 C172 1.399 . S
C173 C174 1.385 . S
C174 H160 0.931 . S
C174 C173 1.385 . S
C174 C175 1.389 . S
C175 C174 1.389 . S
C175 C176 1.387 . S
C176 H161 0.930 . S
C176 C171 1.390 . S
C176 C175 1.387 . S
H177 C189 0.930 . S
H178 C191 0.930 . S
H179 C192 0.930 . S
H180 C196 0.959 . S
H181 C196 0.959 1_545 S
H182 C196 0.961 . S
H183 C197 0.960 . S
H184 C197 0.961 1_545 S
H185 C197 0.959 . S
H186 C200 0.929 . S
H187 C201 0.931 . S
H188 C203 0.930 1_545 S
C189 H177 0.930 . S
C189 C190 1.399 . S
C189 C194 1.399 . S
C190 C189 1.399 . S
C190 C191 1.376 . S
C191 H178 0.930 . S
C191 C190 1.376 . S
C191 C192 1.388 . S
C192 H179 0.930 . S
C192 C191 1.388 . S
C192 C193 1.390 . S
C193 C192 1.390 . S
C193 C194 1.394 . S
C193 C199 1.465 . S
C194 C189 1.399 . S
C194 C193 1.394 . S
C194 C195 1.516 . S
C195 C194 1.516 . S
C195 C196 1.502 . S
C195 C197 1.561 . S
C195 C198 1.526 . S
C196 H180 0.959 . S
C196 H181 0.959 1_565 S
C196 H182 0.961 . S
C196 C195 1.502 . S
C197 H183 0.960 . S
C197 H184 0.961 1_565 S
C197 H185 0.959 . S
C197 C195 1.561 . S
C198 C195 1.526 . S
C198 C199 1.396 . S
C198 C203 1.390 . S
C199 C193 1.465 . S
C199 C198 1.396 . S
C199 C200 1.399 . S
C200 H186 0.929 . S
C200 C199 1.399 . S
C200 C201 1.385 . S
C201 H187 0.931 . S
C201 C200 1.385 . S
C201 C202 1.389 . S
C202 C201 1.389 . S
C202 C203 1.387 . S
C203 H188 0.930 1_565 S
C203 C198 1.390 . S
C203 C202 1.387 . S
H204 C216 0.930 . S
H205 C218 0.930 . S
H206 C219 0.930 . S
H207 C223 0.959 . S
H208 C223 0.959 . S
H209 C223 0.961 . S
H210 C224 0.960 . S
H211 C224 0.961 . S
H212 C224 0.959 . S
H213 C227 0.929 . S
H214 C228 0.931 . S
H215 C230 0.930 . S
C216 H204 0.930 . S
C216 C217 1.399 . S
C216 C221 1.399 . S
C217 C216 1.399 . S
C217 C218 1.376 . S
C218 H205 0.930 . S
C218 C217 1.376 . S
C218 C219 1.388 . S
C219 H206 0.930 . S
C219 C218 1.388 . S
C219 C220 1.390 . S
C220 C219 1.390 . S
C220 C221 1.394 . S
C220 C226 1.465 . S
C221 C216 1.399 . S
C221 C220 1.394 . S
C221 C222 1.516 . S
C222 C221 1.516 . S
C222 C223 1.502 . S
C222 C224 1.561 . S
C222 C225 1.526 . S
C223 H207 0.959 . S
C223 H208 0.959 . S
C223 H209 0.961 . S
C223 C222 1.502 . S
C224 H210 0.960 . S
C224 H211 0.961 . S
C224 H212 0.959 . S
C224 C222 1.561 . S
C225 C222 1.526 . S
C225 C226 1.396 . S
C225 C230 1.390 . S
C226 C220 1.465 . S
C226 C225 1.396 . S
C226 C227 1.399 . S
C227 H213 0.929 . S
C227 C226 1.399 . S
C227 C228 1.385 . S
C228 H214 0.931 . S
C228 C227 1.385 . S
C228 C229 1.389 . S
C229 C228 1.389 . S
C229 C230 1.387 . S
C230 H215 0.930 . S
C230 C225 1.390 . S
C230 C229 1.387 . S
H231 C243 0.930 . S
H232 C245 0.930 . S
H233 C246 0.930 . S
H234 C250 0.959 . S
H235 C250 0.959 1_545 S
H236 C250 0.961 . S
H237 C251 0.960 . S
H238 C251 0.961 1_545 S
H239 C251 0.959 . S
H240 C254 0.929 . S
H241 C255 0.931 . S
H242 C257 0.930 1_545 S
C243 H231 0.930 . S
C243 C244 1.399 . S
C243 C248 1.399 . S
C244 C243 1.399 . S
C244 C245 1.376 . S
C245 H232 0.930 . S
C245 C244 1.376 . S
C245 C246 1.388 . S
C246 H233 0.930 . S
C246 C245 1.388 . S
C246 C247 1.390 . S
C247 C246 1.390 . S
C247 C248 1.394 . S
C247 C253 1.465 . S
C248 C243 1.399 . S
C248 C247 1.394 . S
C248 C249 1.516 . S
C249 C248 1.516 . S
C249 C250 1.502 . S
C249 C251 1.561 . S
C249 C252 1.526 . S
C250 H234 0.959 . S
C250 H235 0.959 1_565 S
C250 H236 0.961 . S
C250 C249 1.502 . S
C251 H237 0.960 . S
C251 H238 0.961 1_565 S
C251 H239 0.959 . S
C251 C249 1.561 . S
C252 C249 1.526 . S
C252 C253 1.396 . S
C252 C257 1.390 . S
C253 C247 1.465 . S
C253 C252 1.396 . S
C253 C254 1.399 . S
C254 H240 0.929 . S
C254 C253 1.399 . S
C254 C255 1.385 . S
C255 H241 0.931 . S
C255 C254 1.385 . S
C255 C256 1.389 . S
C256 C255 1.389 . S
C256 C257 1.387 . S
C257 H242 0.930 1_565 S
C257 C252 1.390 . S
C257 C256 1.387 . S
H258 C270 0.930 . S
H259 C272 0.930 . S
H260 C273 0.930 . S
H261 C277 0.959 . S
H262 C277 0.959 . S
H263 C277 0.961 . S
H264 C278 0.960 . S
H265 C278 0.961 . S
H266 C278 0.959 . S
H267 C281 0.929 . S
H268 C282 0.931 . S
H269 C284 0.930 . S
C270 H258 0.930 . S
C270 C271 1.399 . S
C270 C275 1.399 . S
C271 C270 1.399 . S
C271 C272 1.376 . S
C272 H259 0.930 . S
C272 C271 1.376 . S
C272 C273 1.388 . S
C273 H260 0.930 . S
C273 C272 1.388 . S
C273 C274 1.390 . S
C274 C273 1.390 . S
C274 C275 1.394 . S
C274 C280 1.465 . S
C275 C270 1.399 . S
C275 C274 1.394 . S
C275 C276 1.516 . S
C276 C275 1.516 . S
C276 C277 1.502 . S
C276 C278 1.561 . S
C276 C279 1.526 . S
C277 H261 0.959 . S
C277 H262 0.959 . S
C277 H263 0.961 . S
C277 C276 1.502 . S
C278 H264 0.960 . S
C278 H265 0.961 . S
C278 H266 0.959 . S
C278 C276 1.561 . S
C279 C276 1.526 . S
C279 C280 1.396 . S
C279 C284 1.390 . S
C280 C274 1.465 . S
C280 C279 1.396 . S
C280 C281 1.399 . S
C281 H267 0.929 . S
C281 C280 1.399 . S
C281 C282 1.385 . S
C282 H268 0.931 . S
C282 C281 1.385 . S
C282 C283 1.389 . S
C283 C282 1.389 . S
C283 C284 1.387 . S
C284 H269 0.930 . S
C284 C279 1.390 . S
C284 C283 1.387 . S
H285 C297 0.930 . S
H286 C299 0.930 . S
H287 C300 0.930 . S
H288 C304 0.959 . S
H289 C304 0.959 1_455 S
H290 C304 0.961 . S
H291 C305 0.960 . S
H292 C305 0.961 1_455 S
H293 C305 0.959 . S
H294 C308 0.929 . S
H295 C309 0.931 . S
H296 C311 0.930 . S
C297 H285 0.930 . S
C297 C298 1.399 . S
C297 C302 1.399 . S
C298 C297 1.399 . S
C298 C299 1.376 . S
C299 H286 0.930 . S
C299 C298 1.376 . S
C299 C300 1.388 . S
C300 H287 0.930 . S
C300 C299 1.388 . S
C300 C301 1.390 . S
C301 C300 1.390 . S
C301 C302 1.394 . S
C301 C307 1.465 . S
C302 C297 1.399 . S
C302 C301 1.394 . S
C302 C303 1.516 . S
C303 C302 1.516 . S
C303 C304 1.502 . S
C303 C305 1.561 . S
C303 C306 1.526 . S
C304 H288 0.959 . S
C304 H289 0.959 1_655 S
C304 H290 0.961 . S
C304 C303 1.502 . S
C305 H291 0.960 . S
C305 H292 0.961 1_655 S
C305 H293 0.959 . S
C305 C303 1.561 . S
C306 C303 1.526 . S
C306 C307 1.396 . S
C306 C311 1.390 . S
C307 C301 1.465 . S
C307 C306 1.396 . S
C307 C308 1.399 . S
C308 H294 0.929 . S
C308 C307 1.399 . S
C308 C309 1.385 . S
C309 H295 0.931 . S
C309 C308 1.385 . S
C309 C310 1.389 . S
C310 C309 1.389 . S
C310 C311 1.387 . S
C311 H296 0.930 . S
C311 C306 1.390 . S
C311 C310 1.387 . S
H312 C324 0.930 . S
H313 C326 0.930 . S
H314 C327 0.930 . S
H315 C331 0.959 . S
H316 C331 0.959 1_565 S
H317 C331 0.961 . S
H318 C332 0.960 . S
H319 C332 0.961 1_565 S
H320 C332 0.959 . S
H321 C335 0.929 . S
H322 C336 0.931 . S
H323 C338 0.930 1_565 S
C324 H312 0.930 . S
C324 C325 1.399 . S
C324 C329 1.399 . S
C325 C324 1.399 . S
C325 C326 1.376 . S
C326 H313 0.930 . S
C326 C325 1.376 . S
C326 C327 1.388 . S
C327 H314 0.930 . S
C327 C326 1.388 . S
C327 C328 1.390 . S
C328 C327 1.390 . S
C328 C329 1.394 . S
C328 C334 1.465 . S
C329 C324 1.399 . S
C329 C328 1.394 . S
C329 C330 1.516 . S
C330 C329 1.516 . S
C330 C331 1.502 . S
C330 C332 1.561 . S
C330 C333 1.526 . S
C331 H315 0.959 . S
C331 H316 0.959 1_545 S
C331 H317 0.961 . S
C331 C330 1.502 . S
C332 H318 0.960 . S
C332 H319 0.961 1_545 S
C332 H320 0.959 . S
C332 C330 1.561 . S
C333 C330 1.526 . S
C333 C334 1.396 . S
C333 C338 1.390 . S
C334 C328 1.465 . S
C334 C333 1.396 . S
C334 C335 1.399 . S
C335 H321 0.929 . S
C335 C334 1.399 . S
C335 C336 1.385 . S
C336 H322 0.931 . S
C336 C335 1.385 . S
C336 C337 1.389 . S
C337 C336 1.389 . S
C337 C338 1.387 . S
C338 H323 0.930 1_545 S
C338 C333 1.390 . S
C338 C337 1.387 . S
H339 C351 0.930 . S
H340 C353 0.930 . S
H341 C354 0.930 . S
H342 C358 0.959 . S
H343 C358 0.959 . S
H344 C358 0.961 . S
H345 C359 0.960 . S
H346 C359 0.961 . S
H347 C359 0.959 . S
H348 C362 0.929 . S
H349 C363 0.931 . S
H350 C365 0.930 . S
C351 H339 0.930 . S
C351 C352 1.399 . S
C351 C356 1.399 . S
C352 C351 1.399 . S
C352 C353 1.376 . S
C353 H340 0.930 . S
C353 C352 1.376 . S
C353 C354 1.388 . S
C354 H341 0.930 . S
C354 C353 1.388 . S
C354 C355 1.390 . S
C355 C354 1.390 . S
C355 C356 1.394 . S
C355 C361 1.465 . S
C356 C351 1.399 . S
C356 C355 1.394 . S
C356 C357 1.516 1_554 S
C357 C356 1.516 1_556 S
C357 C358 1.502 . S
C357 C359 1.561 . S
C357 C360 1.526 . S
C358 H342 0.959 . S
C358 H343 0.959 . S
C358 H344 0.961 . S
C358 C357 1.502 . S
C359 H345 0.960 . S
C359 H346 0.961 . S
C359 H347 0.959 . S
C359 C357 1.561 . S
C360 C357 1.526 . S
C360 C361 1.396 1_556 S
C360 C365 1.390 . S
C361 C355 1.465 . S
C361 C360 1.396 1_554 S
C361 C362 1.399 . S
C362 H348 0.929 . S
C362 C361 1.399 . S
C362 C363 1.385 1_554 S
C363 H349 0.931 . S
C363 C362 1.385 1_556 S
C363 C364 1.389 . S
C364 C363 1.389 . S
C364 C365 1.387 . S
C365 H350 0.930 . S
C365 C360 1.390 . S
C365 C364 1.387 . S
H366 C378 0.930 . S
H367 C380 0.930 . S
H368 C381 0.930 . S
H369 C385 0.959 . S
H370 C385 0.959 . S
H371 C385 0.961 . S
H372 C386 0.960 . S
H373 C386 0.961 . S
H374 C386 0.959 . S
H375 C389 0.929 . S
H376 C390 0.931 . S
H377 C392 0.930 . S
C378 H366 0.930 . S
C378 C379 1.399 . S
C378 C383 1.399 . S
C379 C378 1.399 . S
C379 C380 1.376 . S
C380 H367 0.930 . S
C380 C379 1.376 . S
C380 C381 1.388 . S
C381 H368 0.930 . S
C381 C380 1.388 . S
C381 C382 1.390 . S
C382 C381 1.390 . S
C382 C383 1.394 . S
C382 C388 1.465 1_556 S
C383 C378 1.399 . S
C383 C382 1.394 . S
C383 C384 1.516 1_565 S
C384 C383 1.516 1_545 S
C384 C385 1.502 . S
C384 C386 1.561 . S
C384 C387 1.526 1_556 S
C385 H369 0.959 . S
C385 H370 0.959 . S
C385 H371 0.961 . S
C385 C384 1.502 . S
C386 H372 0.960 . S
C386 H373 0.961 . S
C386 H374 0.959 . S
C386 C384 1.561 . S
C387 C384 1.526 1_554 S
C387 C388 1.396 1_545 S
C387 C392 1.390 . S
C388 C382 1.465 1_554 S
C388 C387 1.396 1_565 S
C388 C389 1.399 . S
C389 H375 0.929 . S
C389 C388 1.399 . S
C389 C390 1.385 1_565 S
C390 H376 0.931 . S
C390 C389 1.385 1_545 S
C390 C391 1.389 . S
C391 C390 1.389 . S
C391 C392 1.387 . S
C392 H377 0.930 . S
C392 C387 1.390 . S
C392 C391 1.387 . S
H393 C405 0.930 . S
H394 C407 0.930 . S
H395 C408 0.930 . S
H396 C412 0.959 . S
H397 C412 0.959 . S
H398 C412 0.961 . S
H399 C413 0.960 . S
H400 C413 0.961 . S
H401 C413 0.959 . S
H402 C416 0.929 . S
H403 C417 0.931 . S
H404 C419 0.930 . S
C405 H393 0.930 . S
C405 C406 1.399 . S
C405 C410 1.399 . S
C406 C405 1.399 . S
C406 C407 1.376 . S
C407 H394 0.930 . S
C407 C406 1.376 . S
C407 C408 1.388 1_455 S
C408 H395 0.930 . S
C408 C407 1.388 1_655 S
C408 C409 1.387 . S
C409 C408 1.387 . S
C409 C410 1.392 1_655 S
C409 C415 1.465 1_556 S
C410 C405 1.399 . S
C410 C409 1.392 1_455 S
C410 C411 1.516 1_556 S
C411 C410 1.516 1_554 S
C411 C412 1.502 . S
C411 C413 1.561 . S
C411 C414 1.526 1_455 S
C412 H396 0.959 . S
C412 H397 0.959 . S
C412 H398 0.961 . S
C412 C411 1.502 . S
C413 H399 0.960 . S
C413 H400 0.961 . S
C413 H401 0.959 . S
C413 C411 1.561 . S
C414 C411 1.526 1_655 S
C414 C415 1.400 . S
C414 C419 1.390 . S
C415 C409 1.465 1_554 S
C415 C414 1.400 . S
C415 C416 1.399 1_554 S
C416 H402 0.929 . S
C416 C415 1.399 1_556 S
C416 C417 1.385 1_556 S
C417 H403 0.931 . S
C417 C416 1.385 1_554 S
C417 C418 1.389 . S
C418 C417 1.389 . S
C418 C419 1.387 . S
C419 H404 0.930 . S
C419 C414 1.390 . S
C419 C418 1.387 . S
C109 C18 0.737 . S
C121 C22 0.971 . S
C136 C54 0.850 . S
C148 C50 0.906 . S
C163 C86 0.882 . S
C175 C82 0.806 . S
C190 C85 2.504 . S
C202 C17 2.499 . S
C217 C87 1.044 . S
C229 C19 0.886 . S
C244 C84 1.782 . S
C256 C16 1.731 . S
C271 C49 2.504 . S
C283 C21 2.506 . S
C298 C51 0.987 . S
C310 C23 0.982 . S
C325 C48 1.747 . S
C337 C20 1.749 . S
C352 C53 2.509 . S
C364 C81 2.501 . S
C379 C83 0.913 . S
C391 C55 1.039 . S
C406 C80 1.757 . S
C418 C52 1.759 . S
