# Generated by pormake.
# Topology vci, (7)-cn, num edge types: 1
# Building blocks:
#     Node 0, Type 0, BuildingBlock: NUHQUE_clean_sbu_2, # of connection points: 7
#     Node 1, Type 0, BuildingBlock: NUHQUE_clean_sbu_2, # of connection points: 7
#     Node 2, Type 0, BuildingBlock: NUHQUE_clean_sbu_2, # of connection points: 7
#     Node 3, Type 0, BuildingBlock: NUHQUE_clean_sbu_2, # of connection points: 7
#     Node 4, Type 0, BuildingBlock: NUHQUE_clean_sbu_2, # of connection points: 7
#     Node 5, Type 0, BuildingBlock: NUHQUE_clean_sbu_2, # of connection points: 7
#     Node 6, Type 0, BuildingBlock: NUHQUE_clean_sbu_2, # of connection points: 7
#     Node 7, Type 0, BuildingBlock: NUHQUE_clean_sbu_2, # of connection points: 7
#     Node 8, Type 0, BuildingBlock: NUHQUE_clean_sbu_2, # of connection points: 7
#     Node 9, Type 0, BuildingBlock: NUHQUE_clean_sbu_2, # of connection points: 7
#     Node 10, Type 0, BuildingBlock: NUHQUE_clean_sbu_2, # of connection points: 7
#     Node 11, Type 0, BuildingBlock: NUHQUE_clean_sbu_2, # of connection points: 7
#     Node 12, Type 0, BuildingBlock: NUHQUE_clean_sbu_2, # of connection points: 7
#     Node 13, Type 0, BuildingBlock: NUHQUE_clean_sbu_2, # of connection points: 7
#     Node 14, Type 0, BuildingBlock: NUHQUE_clean_sbu_2, # of connection points: 7
#     Node 15, Type 0, BuildingBlock: NUHQUE_clean_sbu_2, # of connection points: 7
#     Edge 16, Type (0, 0), BuildingBlock: KIFKEQ_clean_linker_1, # of connection points: 2
#     Edge 17, Type (0, 0), BuildingBlock: KIFKEQ_clean_linker_1, # of connection points: 2
#     Edge 18, Type (0, 0), BuildingBlock: KIFKEQ_clean_linker_1, # of connection points: 2
#     Edge 19, Type (0, 0), BuildingBlock: KIFKEQ_clean_linker_1, # of connection points: 2
#     Edge 20, Type (0, 0), BuildingBlock: KIFKEQ_clean_linker_1, # of connection points: 2
#     Edge 21, Type (0, 0), BuildingBlock: KIFKEQ_clean_linker_1, # of connection points: 2
#     Edge 22, Type (0, 0), BuildingBlock: KIFKEQ_clean_linker_1, # of connection points: 2
#     Edge 23, Type (0, 0), BuildingBlock: KIFKEQ_clean_linker_1, # of connection points: 2
#     Edge 24, Type (0, 0), BuildingBlock: KIFKEQ_clean_linker_1, # of connection points: 2
#     Edge 25, Type (0, 0), BuildingBlock: KIFKEQ_clean_linker_1, # of connection points: 2
#     Edge 26, Type (0, 0), BuildingBlock: KIFKEQ_clean_linker_1, # of connection points: 2
#     Edge 27, Type (0, 0), BuildingBlock: KIFKEQ_clean_linker_1, # of connection points: 2
#     Edge 28, Type (0, 0), BuildingBlock: KIFKEQ_clean_linker_1, # of connection points: 2
#     Edge 29, Type (0, 0), BuildingBlock: KIFKEQ_clean_linker_1, # of connection points: 2
#     Edge 30, Type (0, 0), BuildingBlock: KIFKEQ_clean_linker_1, # of connection points: 2
#     Edge 31, Type (0, 0), BuildingBlock: KIFKEQ_clean_linker_1, # of connection points: 2
#     Edge 32, Type (0, 0), BuildingBlock: KIFKEQ_clean_linker_1, # of connection points: 2
#     Edge 33, Type (0, 0), BuildingBlock: KIFKEQ_clean_linker_1, # of connection points: 2
#     Edge 34, Type (0, 0), BuildingBlock: KIFKEQ_clean_linker_1, # of connection points: 2
#     Edge 35, Type (0, 0), BuildingBlock: KIFKEQ_clean_linker_1, # of connection points: 2
#     Edge 36, Type (0, 0), BuildingBlock: KIFKEQ_clean_linker_1, # of connection points: 2
#     Edge 37, Type (0, 0), BuildingBlock: KIFKEQ_clean_linker_1, # of connection points: 2
#     Edge 38, Type (0, 0), BuildingBlock: KIFKEQ_clean_linker_1, # of connection points: 2
#     Edge 39, Type (0, 0), BuildingBlock: KIFKEQ_clean_linker_1, # of connection points: 2
#     Edge 40, Type (0, 0), BuildingBlock: KIFKEQ_clean_linker_1, # of connection points: 2
#     Edge 41, Type (0, 0), BuildingBlock: KIFKEQ_clean_linker_1, # of connection points: 2
#     Edge 42, Type (0, 0), BuildingBlock: KIFKEQ_clean_linker_1, # of connection points: 2
#     Edge 43, Type (0, 0), BuildingBlock: KIFKEQ_clean_linker_1, # of connection points: 2
#     Edge 44, Type (0, 0), BuildingBlock: KIFKEQ_clean_linker_1, # of connection points: 2
#     Edge 45, Type (0, 0), BuildingBlock: KIFKEQ_clean_linker_1, # of connection points: 2
#     Edge 46, Type (0, 0), BuildingBlock: KIFKEQ_clean_linker_1, # of connection points: 2
#     Edge 47, Type (0, 0), BuildingBlock: KIFKEQ_clean_linker_1, # of connection points: 2
#     Edge 48, Type (0, 0), BuildingBlock: KIFKEQ_clean_linker_1, # of connection points: 2
#     Edge 49, Type (0, 0), BuildingBlock: KIFKEQ_clean_linker_1, # of connection points: 2
#     Edge 50, Type (0, 0), BuildingBlock: KIFKEQ_clean_linker_1, # of connection points: 2
#     Edge 51, Type (0, 0), BuildingBlock: KIFKEQ_clean_linker_1, # of connection points: 2
#     Edge 52, Type (0, 0), BuildingBlock: KIFKEQ_clean_linker_1, # of connection points: 2
#     Edge 53, Type (0, 0), BuildingBlock: KIFKEQ_clean_linker_1, # of connection points: 2
#     Edge 54, Type (0, 0), BuildingBlock: KIFKEQ_clean_linker_1, # of connection points: 2
#     Edge 55, Type (0, 0), BuildingBlock: KIFKEQ_clean_linker_1, # of connection points: 2
#     Edge 56, Type (0, 0), BuildingBlock: KIFKEQ_clean_linker_1, # of connection points: 2
#     Edge 57, Type (0, 0), BuildingBlock: KIFKEQ_clean_linker_1, # of connection points: 2
#     Edge 58, Type (0, 0), BuildingBlock: KIFKEQ_clean_linker_1, # of connection points: 2
#     Edge 59, Type (0, 0), BuildingBlock: KIFKEQ_clean_linker_1, # of connection points: 2
#     Edge 60, Type (0, 0), BuildingBlock: KIFKEQ_clean_linker_1, # of connection points: 2
#     Edge 61, Type (0, 0), BuildingBlock: KIFKEQ_clean_linker_1, # of connection points: 2
#     Edge 62, Type (0, 0), BuildingBlock: KIFKEQ_clean_linker_1, # of connection points: 2
#     Edge 63, Type (0, 0), BuildingBlock: KIFKEQ_clean_linker_1, # of connection points: 2
#     Edge 64, Type (0, 0), BuildingBlock: KIFKEQ_clean_linker_1, # of connection points: 2
#     Edge 65, Type (0, 0), BuildingBlock: KIFKEQ_clean_linker_1, # of connection points: 2
#     Edge 66, Type (0, 0), BuildingBlock: KIFKEQ_clean_linker_1, # of connection points: 2
#     Edge 67, Type (0, 0), BuildingBlock: KIFKEQ_clean_linker_1, # of connection points: 2
#     Edge 68, Type (0, 0), BuildingBlock: KIFKEQ_clean_linker_1, # of connection points: 2
#     Edge 69, Type (0, 0), BuildingBlock: KIFKEQ_clean_linker_1, # of connection points: 2
#     Edge 70, Type (0, 0), BuildingBlock: KIFKEQ_clean_linker_1, # of connection points: 2
#     Edge 71, Type (0, 0), BuildingBlock: KIFKEQ_clean_linker_1, # of connection points: 2
# Relax obj value: 0.144
# Max RMSD: 0.214
# Mean RMSD: 0.214
data_MOF--net-vci--node1-NUHQUE_clean_sbu_2--edge1-KIFKEQ_clean_linker_1
_symmetry_space_group_name_H-M    P1
_symmetry_Int_Tables_number       1
_symmetry_cell_setting            triclinic
loop_
_symmetry_equiv_pos_as_xyz
'x, y, z'
_cell_length_a     53.411399
_cell_length_b     67.626309
_cell_length_c     21.68948
_cell_angle_alpha  89.94463
_cell_angle_beta   89.964642
_cell_angle_gamma 89.974849
loop_
_atom_site_label
_atom_site_type_symbol
_atom_site_fract_x
_atom_site_fract_y
_atom_site_fract_z
_atom_type_partial_charge
O0 O 0.12132 0.18679 0.19581 0.0
Tb1 Tb 0.12727 0.15549 0.17976 0.0
Eu2 Eu 0.13978 0.124 0.99952 0.0
C3 C 0.12102 0.19373 0.25246 0.0
O4 O 0.12367 0.18139 0.29881 0.0
C5 C 0.17125 0.13753 0.10548 0.0
O6 O 0.13546 0.09159 0.02128 0.0
C7 C 0.15116 0.13124 0.88598 0.0
C8 C 0.11615 0.08098 1.00364 0.0
O9 O 0.09781 0.08953 0.97329 0.0
C10 C 0.0925 0.13894 0.07586 0.0
C11 C 0.14467 0.14393 0.83329 0.0
C12 C 0.14245 0.16467 0.83803 0.0
C13 C 0.13678 0.17606 0.78539 0.0
C14 C 0.1334 0.16646 0.72865 0.0
C15 C 0.13599 0.14591 0.72368 0.0
C16 C 0.1416 0.13475 0.77602 0.0
O17 O 0.15152 0.14897 0.10339 0.0
O18 O 0.17372 0.12517 0.05987 0.0
O19 O 0.1515 0.14616 0.25543 0.0
O20 O 0.11403 0.13567 0.25185 0.0
C21 C 0.13492 0.13504 0.28241 0.0
O22 O 0.10993 0.14476 0.03684 0.0
O23 O 0.09416 0.14356 0.13488 0.0
O24 O 0.13443 0.1179 0.90216 0.0
O25 O 0.16287 0.13945 0.93277 0.0
H26 H 0.14515 0.17188 0.88212 0.0
H27 H 0.12994 0.17509 0.68737 0.0
H28 H 0.14375 0.11885 0.77206 0.0
O29 O 0.34894 0.83114 0.67184 0.0
Tb30 Tb 0.3468 0.86321 0.66296 0.0
Eu31 Eu 0.34442 0.90065 0.49933 0.0
C32 C 0.35201 0.82328 0.72697 0.0
O33 O 0.35396 0.83507 0.77481 0.0
C34 C 0.30846 0.88857 0.5977 0.0
O35 O 0.34957 0.93376 0.49018 0.0
C36 C 0.33113 0.88425 0.39564 0.0
C37 C 0.35549 0.94438 0.53891 0.0
O38 O 0.35893 0.93527 0.59179 0.0
C39 C 0.39421 0.87992 0.57941 0.0
C40 C 0.33782 0.87187 0.34133 0.0
C41 C 0.34316 0.85145 0.3473 0.0
C42 C 0.34689 0.83967 0.29454 0.0
C43 C 0.34474 0.84831 0.2361 0.0
C44 C 0.3386 0.8683 0.22893 0.0
C45 C 0.33567 0.88015 0.28167 0.0
O46 O 0.32435 0.87417 0.58893 0.0
O47 O 0.3114 0.90394 0.56252 0.0
O48 O 0.32237 0.86862 0.74243 0.0
O49 O 0.3589 0.88078 0.74252 0.0
C50 C 0.33826 0.87907 0.77401 0.0
O51 O 0.3825 0.88985 0.5346 0.0
O52 O 0.38389 0.87039 0.62692 0.0
O53 O 0.34051 0.90219 0.39918 0.0
O54 O 0.32844 0.87565 0.44975 0.0
H55 H 0.34409 0.84467 0.39252 0.0
H56 H 0.34692 0.83915 0.19539 0.0
H57 H 0.33047 0.89555 0.27629 0.0
O58 O 0.12677 0.83499 0.87417 0.0
Tb59 Tb 0.13889 0.86531 0.88211 0.0
Eu60 Eu 0.15029 0.89029 0.06032 0.0
C61 C 0.14453 0.82161 0.87129 0.0
O62 O 0.16783 0.82732 0.87919 0.0
C63 C 0.18419 0.8811 0.94793 0.0
O64 O 0.14176 0.92272 0.07289 0.0
C65 C 0.16777 0.87174 0.15618 0.0
C66 C 0.13485 0.93277 0.02376 0.0
O67 O 0.13327 0.92339 0.9709 0.0
C68 C 0.10163 0.87891 0.98082 0.0
C69 C 0.16034 0.85916 0.20947 0.0
C70 C 0.15696 0.83849 0.20355 0.0
C71 C 0.15112 0.82676 0.25549 0.0
C72 C 0.14884 0.83594 0.31323 0.0
C73 C 0.15271 0.8563 0.32012 0.0
C74 C 0.15856 0.8678 0.2683 0.0
O75 O 0.16904 0.86594 0.94812 0.0
O76 O 0.18053 0.89495 0.98901 0.0
O77 O 0.16424 0.871 0.80474 0.0
O78 O 0.12615 0.87983 0.79807 0.0
C79 C 0.14752 0.87922 0.76937 0.0
O80 O 0.11162 0.87869 0.03643 0.0
O81 O 0.11479 0.88516 0.93354 0.0
O82 O 0.16088 0.89045 0.15715 0.0
O83 O 0.16696 0.86388 0.1007 0.0
H84 H 0.15895 0.8315 0.15889 0.0
H85 H 0.14514 0.82702 0.35382 0.0
H86 H 0.16182 0.88351 0.27402 0.0
O87 O 0.36179 0.16637 0.34905 0.0
Tb88 Tb 0.36423 0.13438 0.34141 0.0
Eu89 Eu 0.3526 0.13854 0.50397 0.0
C90 C 0.34397 0.17605 0.31989 0.0
O91 O 0.32589 0.166 0.2934 0.0
C92 C 0.31404 0.13018 0.40033 0.0
O93 O 0.35005 0.1051 0.5041 0.0
C94 C 0.34252 0.15428 0.61057 0.0
C95 C 0.368 0.09414 0.5279 0.0
O96 O 0.38748 0.10293 0.55267 0.0
C97 C 0.40589 0.13251 0.43892 0.0
C98 C 0.3514 0.1637 0.66852 0.0
C99 C 0.35333 0.18451 0.67286 0.0
C100 C 0.35755 0.19378 0.73016 0.0
C101 C 0.3597 0.18193 0.78303 0.0
C102 C 0.3579 0.16133 0.77965 0.0
C103 C 0.35401 0.15222 0.72244 0.0
O104 O 0.33227 0.1192 0.37937 0.0
O105 O 0.31922 0.14352 0.44217 0.0
O106 O 0.34647 0.12531 0.25526 0.0
O107 O 0.38544 0.13097 0.25525 0.0
C108 C 0.36645 0.12587 0.22126 0.0
O109 O 0.393 0.14391 0.47686 0.0
O110 O 0.39492 0.12243 0.39463 0.0
O111 O 0.34622 0.13521 0.60271 0.0
O112 O 0.34363 0.1645 0.55896 0.0
H113 H 0.3509 0.19353 0.63199 0.0
H114 H 0.36179 0.18875 0.82796 0.0
H115 H 0.3516 0.13631 0.72068 0.0
O116 O 0.86637 0.84536 0.83028 0.0
Tb117 Tb 0.87363 0.87686 0.82164 0.0
Eu118 Eu 0.85933 0.87346 0.98368 0.0
C119 C 0.85247 0.83687 0.78777 0.0
O120 O 0.84171 0.84811 0.74604 0.0
C121 C 0.82208 0.88258 0.87556 0.0
O122 O 0.85816 0.90691 0.98057 0.0
C123 C 0.84832 0.85941 0.0925 0.0
C124 C 0.87648 0.91763 1.0036 0.0
O125 O 0.8957 0.90859 0.02883 0.0
C126 C 0.91371 0.87639 0.92343 0.0
C127 C 0.85797 0.84895 0.14829 0.0
C128 C 0.85678 0.82811 0.15201 0.0
C129 C 0.8637 0.81816 0.20636 0.0
C130 C 0.87168 0.82917 0.25731 0.0
C131 C 0.87253 0.84991 0.25568 0.0
C132 C 0.86562 0.85974 0.20087 0.0
O133 O 0.84092 0.89273 0.85321 0.0
O134 O 0.82616 0.8697 0.91986 0.0
O135 O 0.86011 0.8881 0.73281 0.0
O136 O 0.89678 0.87653 0.73774 0.0
C137 C 0.88013 0.8842 0.70112 0.0
O138 O 0.89911 0.86525 0.95818 0.0
O139 O 0.90444 0.88716 0.87823 0.0
O140 O 0.85525 0.87783 0.08298 0.0
O141 O 0.84604 0.84922 0.04114 0.0
H142 H 0.8501 0.81959 0.11308 0.0
H143 H 0.87585 0.82148 0.29997 0.0
H144 H 0.86577 0.87575 0.19959 0.0
O145 O 0.636 0.16572 0.34093 0.0
Tb146 Tb 0.63482 0.13382 0.32935 0.0
Eu147 Eu 0.64803 0.13747 0.4922 0.0
C148 C 0.655 0.17599 0.31919 0.0
O149 O 0.67479 0.16655 0.2985 0.0
C150 C 0.68497 0.12668 0.3861 0.0
O151 O 0.6473 0.10398 0.49475 0.0
C152 C 0.65833 0.15324 0.59889 0.0
C153 C 0.62882 0.09439 0.52162 0.0
O154 O 0.61079 0.10457 0.5479 0.0
C155 C 0.59426 0.13279 0.43002 0.0
C156 C 0.648 0.16317 0.65479 0.0
C157 C 0.64755 0.18402 0.6584 0.0
C158 C 0.6401 0.19362 0.71293 0.0
C159 C 0.6331 0.18224 0.76409 0.0
C160 C 0.63408 0.1615 0.76252 0.0
C161 C 0.64153 0.15204 0.70763 0.0
O162 O 0.66552 0.11685 0.36623 0.0
O163 O 0.68163 0.14007 0.42912 0.0
O164 O 0.65247 0.1307 0.23892 0.0
O165 O 0.61318 0.12711 0.24568 0.0
C166 C 0.63216 0.12722 0.20794 0.0
O167 O 0.60811 0.14458 0.46447 0.0
O168 O 0.60386 0.12275 0.38368 0.0
O169 O 0.65395 0.13426 0.59125 0.0
O170 O 0.65848 0.1632 0.5467 0.0
H171 H 0.65346 0.19283 0.61927 0.0
H172 H 0.62844 0.18965 0.80689 0.0
H173 H 0.6428 0.13605 0.70661 0.0
O174 O 0.86163 0.18063 0.1547 0.0
Tb175 Tb 0.86571 0.14873 0.14383 0.0
Eu176 Eu 0.85603 0.11123 0.9742 0.0
C177 C 0.8576 0.18807 0.21002 0.0
O178 O 0.85517 0.17594 0.25692 0.0
C179 C 0.8252 0.12348 0.08044 0.0
O180 O 0.85967 0.07801 0.966 0.0
C181 C 0.84365 0.12786 0.87014 0.0
C182 C 0.86657 0.06743 0.01407 0.0
O183 O 0.87163 0.07661 0.06598 0.0
C184 C 0.90823 0.13246 0.04569 0.0
C185 C 0.85266 0.14002 0.8173 0.0
C186 C 0.85386 0.16084 0.82163 0.0
C187 C 0.86044 0.17238 0.77008 0.0
C188 C 0.86583 0.16294 0.71413 0.0
C189 C 0.86428 0.14235 0.70816 0.0
C190 C 0.85756 0.13094 0.75987 0.0
O191 O 0.84393 0.1356 0.07252 0.0
O192 O 0.82344 0.10973 0.03902 0.0
O193 O 0.84649 0.13593 0.22374 0.0
O194 O 0.88614 0.13583 0.22182 0.0
C195 C 0.86652 0.13107 0.25424 0.0
O196 O 0.89474 0.12118 0.0076 0.0
O197 O 0.90032 0.14373 0.09232 0.0
O198 O 0.85174 0.10954 0.8744 0.0
O199 O 0.84095 0.1365 0.92414 0.0
H200 H 0.84933 0.16815 0.86465 0.0
H201 H 0.86988 0.17183 0.67371 0.0
H202 H 0.85581 0.11505 0.75509 0.0
O203 O 0.63266 0.83142 0.68806 0.0
Tb204 Tb 0.62882 0.86334 0.67865 0.0
Eu205 Eu 0.63504 0.90005 0.50857 0.0
C206 C 0.63732 0.82357 0.7425 0.0
O207 O 0.64054 0.83532 0.78999 0.0
C208 C 0.66811 0.8889 0.61207 0.0
O209 O 0.63134 0.9332 0.49742 0.0
C210 C 0.64731 0.88276 0.40554 0.0
C211 C 0.62796 0.94453 0.54608 0.0
O212 O 0.62589 0.93612 0.6005 0.0
C213 C 0.58399 0.87893 0.58498 0.0
C214 C 0.63944 0.87063 0.35161 0.0
C215 C 0.63988 0.84973 0.35423 0.0
C216 C 0.63591 0.83845 0.30062 0.0
C217 C 0.63063 0.84809 0.24502 0.0
C218 C 0.63011 0.86874 0.24114 0.0
C219 C 0.63481 0.87997 0.29438 0.0
O220 O 0.64985 0.87626 0.60577 0.0
O221 O 0.66851 0.90266 0.57043 0.0
O222 O 0.6488 0.8757 0.7581 0.0
O223 O 0.60913 0.8766 0.7569 0.0
C224 C 0.62897 0.88096 0.78889 0.0
O225 O 0.59655 0.89014 0.54454 0.0
O226 O 0.59323 0.86819 0.63136 0.0
O227 O 0.63933 0.90114 0.40881 0.0
O228 O 0.64942 0.8742 0.45985 0.0
H229 H 0.64446 0.84223 0.39694 0.0
H230 H 0.62775 0.83935 0.20367 0.0
H231 H 0.63529 0.89596 0.29087 0.0
O232 O 0.63873 0.68397 0.17118 0.0
Tb233 Tb 0.63783 0.65203 0.15776 0.0
Eu234 Eu 0.64248 0.61457 0.98986 0.0
C235 C 0.63353 0.6911 0.2263 0.0
O236 O 0.62737 0.67871 0.27043 0.0
C237 C 0.67636 0.62662 0.0915 0.0
O238 O 0.63822 0.58136 0.98229 0.0
C239 C 0.65488 0.63041 0.88474 0.0
C240 C 0.63117 0.57076 0.03021 0.0
O241 O 0.62583 0.57989 0.08204 0.0
C242 C 0.59236 0.63691 0.06659 0.0
C243 C 0.64612 0.64274 0.83221 0.0
C244 C 0.64256 0.66333 0.8384 0.0
C245 C 0.63606 0.67497 0.787 0.0
C246 C 0.63304 0.66583 0.72945 0.0
C247 C 0.63691 0.64548 0.72195 0.0
C248 C 0.64357 0.63401 0.77347 0.0
O249 O 0.65949 0.64033 0.08362 0.0
O250 O 0.67549 0.61205 0.05273 0.0
O251 O 0.65907 0.64379 0.24025 0.0
O252 O 0.62137 0.63447 0.23261 0.0
C253 C 0.64111 0.63428 0.26777 0.0
O254 O 0.60471 0.62599 0.0252 0.0
O255 O 0.60174 0.64706 0.11393 0.0
O256 O 0.64552 0.6125 0.88991 0.0
O257 O 0.65877 0.63905 0.93829 0.0
H258 H 0.64512 0.67036 0.8828 0.0
H259 H 0.62899 0.67483 0.68925 0.0
H260 H 0.64706 0.61833 0.76764 0.0
O261 O 0.85335 0.32714 0.6498 0.0
Tb262 Tb 0.85715 0.35903 0.63916 0.0
Eu263 Eu 0.85263 0.39697 0.47107 0.0
C264 C 0.84649 0.31968 0.70337 0.0
O265 O 0.84056 0.33178 0.74838 0.0
C266 C 0.81873 0.38491 0.57184 0.0
O267 O 0.85695 0.43019 0.46437 0.0
C268 C 0.84046 0.38074 0.36663 0.0
C269 C 0.86437 0.44032 0.51282 0.0
O270 O 0.86981 0.43068 0.56372 0.0
C271 C 0.9026 0.37477 0.54801 0.0
C272 C 0.84825 0.36846 0.3132 0.0
C273 C 0.85224 0.34787 0.31887 0.0
C274 C 0.85672 0.3362 0.26619 0.0
C275 C 0.85669 0.34523 0.20801 0.0
C276 C 0.8523 0.36551 0.20142 0.0
C277 C 0.8485 0.37715 0.25405 0.0
O278 O 0.83654 0.37187 0.56502 0.0
O279 O 0.81911 0.39931 0.53237 0.0
O280 O 0.83652 0.37216 0.71611 0.0
O281 O 0.8761 0.37168 0.71971 0.0
C282 C 0.85589 0.37683 0.74913 0.0
O283 O 0.89051 0.3862 0.50749 0.0
O284 O 0.89301 0.364 0.59379 0.0
O285 O 0.84963 0.39874 0.37099 0.0
O286 O 0.8371 0.37207 0.42039 0.0
H287 H 0.85151 0.34086 0.36378 0.0
H288 H 0.85919 0.33627 0.16698 0.0
H289 H 0.84445 0.39277 0.24865 0.0
O290 O 0.6395 0.34895 0.84094 0.0
Tb291 Tb 0.63425 0.38087 0.8359 0.0
Eu292 Eu 0.64786 0.37705 1.00079 0.0
C293 C 0.65405 0.34045 0.7996 0.0
O294 O 0.66692 0.35177 0.76194 0.0
C295 C 0.68419 0.38695 0.89355 0.0
O296 O 0.64777 0.41056 1.00011 0.0
C297 C 0.65835 0.36232 0.10882 0.0
C298 C 0.62875 0.4207 0.02239 0.0
O299 O 0.60971 0.41107 0.04626 0.0
C300 C 0.59415 0.381 0.93839 0.0
C301 C 0.64819 0.35262 0.16527 0.0
C302 C 0.64708 0.33178 0.16937 0.0
C303 C 0.64029 0.32238 0.22491 0.0
C304 C 0.63453 0.33411 0.27631 0.0
C305 C 0.63532 0.35482 0.27355 0.0
C306 C 0.64236 0.36401 0.21793 0.0
O307 O 0.66476 0.39722 0.87587 0.0
O308 O 0.68106 0.37368 0.93704 0.0
O309 O 0.65043 0.39079 0.74843 0.0
O310 O 0.61157 0.38481 0.75232 0.0
C311 C 0.62989 0.39022 0.71649 0.0
O312 O 0.60814 0.36939 0.97315 0.0
O313 O 0.60361 0.39133 0.89249 0.0
O314 O 0.65329 0.38113 0.09962 0.0
O315 O 0.65911 0.35198 0.05744 0.0
H316 H 0.65193 0.32286 0.12968 0.0
H317 H 0.63061 0.32704 0.32012 0.0
H318 H 0.6437 0.37999 0.21607 0.0
O319 O 0.85704 0.66403 0.34408 0.0
Tb320 Tb 0.86263 0.63214 0.33992 0.0
Eu321 Eu 0.8511 0.63424 0.50603 0.0
C322 C 0.84283 0.67247 0.30191 0.0
O323 O 0.83009 0.66111 0.26419 0.0
C324 C 0.81351 0.62463 0.40139 0.0
O325 O 0.85094 0.6008 0.50075 0.0
C326 C 0.84089 0.64741 0.61587 0.0
C327 C 0.87028 0.59025 0.51909 0.0
O328 O 0.88997 0.59942 0.54141 0.0
C329 C 0.90394 0.63383 0.43799 0.0
C330 C 0.8514 0.65791 0.67021 0.0
C331 C 0.8521 0.67876 0.67205 0.0
C332 C 0.85982 0.68872 0.72561 0.0
C333 C 0.86679 0.6777 0.77757 0.0
C334 C 0.86583 0.65695 0.77739 0.0
C335 C 0.85819 0.64716 0.72335 0.0
O336 O 0.83275 0.61493 0.37969 0.0
O337 O 0.81725 0.63775 0.44488 0.0
O338 O 0.84718 0.62233 0.2517 0.0
O339 O 0.88608 0.62798 0.2579 0.0
C340 C 0.86808 0.62268 0.22111 0.0
O341 O 0.89 0.64376 0.47749 0.0
O342 O 0.89395 0.62255 0.39525 0.0
O343 O 0.84855 0.62924 0.60518 0.0
O344 O 0.83714 0.6577 0.56517 0.0
H345 H 0.84626 0.6873 0.63228 0.0
H346 H 0.87155 0.68544 0.81971 0.0
H347 H 0.85701 0.63116 0.72311 0.0
O348 O 0.36159 0.35005 0.84984 0.0
Tb349 Tb 0.36423 0.38199 0.84082 0.0
Eu350 Eu 0.35254 0.37811 1.00299 0.0
C351 C 0.34344 0.34029 0.82237 0.0
O352 O 0.32501 0.35023 0.79686 0.0
C353 C 0.31481 0.38858 0.90014 0.0
O354 O 0.35206 0.41162 1.00139 0.0
C355 C 0.34181 0.36286 0.10996 0.0
C356 C 0.37095 0.42213 0.02242 0.0
O357 O 0.39014 0.41293 0.04719 0.0
C358 C 0.4061 0.38222 0.93791 0.0
C359 C 0.35057 0.35303 0.16745 0.0
C360 C 0.35274 0.3322 0.1708 0.0
C361 C 0.35704 0.32265 0.22771 0.0
C362 C 0.35894 0.33423 0.28114 0.0
C363 C 0.35685 0.35483 0.27877 0.0
C364 C 0.35297 0.36423 0.22194 0.0
O365 O 0.33401 0.39875 0.88062 0.0
O366 O 0.31881 0.37473 0.94127 0.0
O367 O 0.34539 0.3894 0.75458 0.0
O368 O 0.38491 0.38674 0.75446 0.0
C369 C 0.36532 0.3903 0.7205 0.0
O370 O 0.39251 0.3712 0.97549 0.0
O371 O 0.39588 0.39259 0.89307 0.0
O372 O 0.34681 0.38174 0.10187 0.0
O373 O 0.34181 0.35263 0.05834 0.0
H374 H 0.35049 0.32339 0.1295 0.0
H375 H 0.36109 0.32718 0.32575 0.0
H376 H 0.35038 0.38013 0.22088 0.0
O377 O 0.13771 0.66753 0.3282 0.0
Tb378 Tb 0.13277 0.63542 0.325 0.0
Eu379 Eu 0.14453 0.63648 0.49116 0.0
C380 C 0.14465 0.67693 0.2776 0.0
O381 O 0.14935 0.6665 0.2279 0.0
C382 C 0.18199 0.62843 0.38668 0.0
O383 O 0.14208 0.60332 0.48138 0.0
C384 C 0.15281 0.64627 0.60502 0.0
C385 C 0.12273 0.59358 0.50343 0.0
O386 O 0.10447 0.6035 0.52974 0.0
C387 C 0.09187 0.6365 0.42573 0.0
C388 C 0.13977 0.65432 0.65986 0.0
C389 C 0.13508 0.67473 0.66478 0.0
C390 C 0.12526 0.68277 0.71927 0.0
C391 C 0.11945 0.67013 0.76841 0.0
C392 C 0.12396 0.64972 0.76481 0.0
C393 C 0.13425 0.64189 0.71033 0.0
O394 O 0.16252 0.6186 0.36695 0.0
O395 O 0.17887 0.64076 0.43253 0.0
O396 O 0.14933 0.62557 0.23807 0.0
O397 O 0.10988 0.62838 0.24403 0.0
C398 C 0.12844 0.62368 0.20804 0.0
O399 O 0.10626 0.64713 0.46213 0.0
O400 O 0.10124 0.62591 0.38037 0.0
O401 O 0.14703 0.6282 0.58805 0.0
O402 O 0.15656 0.6583 0.55816 0.0
H403 H 0.13984 0.68454 0.62704 0.0
H404 H 0.11318 0.67644 0.81167 0.0
H405 H 0.1385 0.62624 0.70778 0.0
O406 O 0.35434 0.68639 0.1613 0.0
Tb407 Tb 0.35914 0.65473 0.14577 0.0
Eu408 Eu 0.35418 0.61568 0.97784 0.0
C409 C 0.34958 0.69284 0.21749 0.0
O410 O 0.34656 0.67987 0.26195 0.0
C411 C 0.32022 0.62998 0.07661 0.0
O412 O 0.35432 0.58218 0.98031 0.0
C413 C 0.34309 0.6297 0.86971 0.0
C414 C 0.37507 0.5717 0.97805 0.0
O415 O 0.39662 0.5809 0.97267 0.0
C416 C 0.40394 0.63918 0.05284 0.0
C417 C 0.35052 0.64223 0.8166 0.0
C418 C 0.35396 0.66286 0.82259 0.0
C419 C 0.35779 0.67476 0.77001 0.0
C420 C 0.3578 0.66583 0.71167 0.0
C421 C 0.35424 0.64546 0.70492 0.0
C422 C 0.351 0.63365 0.75744 0.0
O423 O 0.33869 0.64247 0.07054 0.0
O424 O 0.32014 0.61552 0.03748 0.0
O425 O 0.33921 0.6398 0.22064 0.0
O426 O 0.37873 0.64169 0.22483 0.0
C427 C 0.35881 0.63541 0.25331 0.0
O428 O 0.39174 0.62718 0.01424 0.0
O429 O 0.39456 0.6504 0.0978 0.0
O430 O 0.35468 0.6127 0.87763 0.0
O431 O 0.33686 0.63849 0.92168 0.0
H432 H 0.35326 0.66969 0.86771 0.0
H433 H 0.35974 0.67489 0.67064 0.0
H434 H 0.34752 0.61794 0.75199 0.0
O435 O 0.13927 0.33168 0.67233 0.0
Tb436 Tb 0.13652 0.36365 0.66175 0.0
Eu437 Eu 0.14133 0.40066 0.49259 0.0
C438 C 0.14374 0.32407 0.72722 0.0
O439 O 0.14735 0.33605 0.77395 0.0
C440 C 0.17506 0.38914 0.59381 0.0
O441 O 0.13588 0.43353 0.48227 0.0
C442 C 0.15359 0.38468 0.38805 0.0
C443 C 0.12758 0.44432 0.52834 0.0
O444 O 0.12187 0.43558 0.58064 0.0
C445 C 0.0911 0.37883 0.56986 0.0
C446 C 0.14441 0.37259 0.33593 0.0
C447 C 0.13696 0.35276 0.34419 0.0
C448 C 0.13073 0.34098 0.29307 0.0
C449 C 0.1322 0.34914 0.23371 0.0
C450 C 0.13973 0.36875 0.22469 0.0
C451 C 0.1455 0.38052 0.27591 0.0
O452 O 0.15729 0.37607 0.58719 0.0
O453 O 0.17467 0.40347 0.55413 0.0
O454 O 0.15837 0.37527 0.73888 0.0
O455 O 0.11888 0.37768 0.74194 0.0
C456 C 0.13952 0.38135 0.7716 0.0
O457 O 0.10353 0.38936 0.52766 0.0
O458 O 0.10042 0.36909 0.61816 0.0
O459 O 0.14483 0.40278 0.3928 0.0
O460 O 0.15706 0.37593 0.44165 0.0
H461 H 0.13636 0.34639 0.39003 0.0
H462 H 0.12826 0.33999 0.19384 0.0
H463 H 0.15193 0.39556 0.26884 0.0
H464 H 0.9406 0.16334 0.05718 0.0
H465 H 0.93749 0.10122 0.01176 0.0
H466 H 0.98625 0.16255 0.04827 0.0
H467 H 0.98334 0.10036 1.00467 0.0
H468 H 0.06084 0.11166 0.12268 0.0
H469 H 0.01607 0.10835 0.10085 0.0
H470 H 0.02207 0.15322 0.96005 0.0
H471 H 0.06715 0.15605 0.98044 0.0
C472 C 0.94968 0.14958 0.0448 0.0
C473 C 0.93556 0.13233 0.03539 0.0
C474 C 0.97573 0.14917 0.03921 0.0
C475 C 0.98816 0.13142 0.02548 0.0
C476 C 0.97408 0.11423 0.0149 0.0
C477 C 0.94794 0.11475 0.01895 0.0
C478 C 0.05271 0.12031 0.08568 0.0
C479 C 0.0673 0.13407 0.05317 0.0
C480 C 0.02719 0.11841 0.07317 0.0
C481 C 0.01576 0.1306 0.02902 0.0
C482 C 0.03058 0.14366 0.99424 0.0
C483 C 0.05629 0.14519 0.00566 0.0
H484 H 0.4252 0.89045 0.48307 0.0
H485 H 0.42671 0.86888 0.67081 0.0
H486 H 0.47087 0.88963 0.48025 0.0
H487 H 0.47203 0.86861 0.6684 0.0
H488 H 0.55152 0.85126 0.63061 0.0
H489 H 0.50616 0.85111 0.62514 0.0
H490 H 0.50779 0.90547 0.52038 0.0
H491 H 0.55345 0.90534 0.5243 0.0
C492 C 0.43519 0.88562 0.52384 0.0
C493 C 0.42209 0.87961 0.57703 0.0
C494 C 0.46143 0.88524 0.52228 0.0
C495 C 0.47524 0.87893 0.57395 0.0
C496 C 0.46211 0.87313 0.6272 0.0
C497 C 0.43597 0.87339 0.62865 0.0
C498 C 0.5423 0.8632 0.60623 0.0
C499 C 0.55627 0.87841 0.57835 0.0
C500 C 0.51618 0.86315 0.60334 0.0
C501 C 0.50318 0.87842 0.57303 0.0
C502 C 0.51713 0.89338 0.54371 0.0
C503 C 0.54336 0.89334 0.54616 0.0
H504 H 0.94928 0.8979 0.86242 0.0
H505 H 0.94047 0.85475 0.00794 0.0
H506 H 0.99435 0.89748 0.87766 0.0
H507 H 0.98579 0.85402 0.02224 0.0
H508 H 0.06602 0.87489 0.07151 0.0
H509 H 0.02063 0.87386 0.05882 0.0
H510 H 0.02978 0.87617 0.86102 0.0
H511 H 0.07498 0.87764 0.87367 0.0
C512 C 0.95693 0.88826 0.89757 0.0
C513 C 0.94118 0.87632 0.93382 0.0
C514 C 0.98286 0.88791 0.90602 0.0
C515 C 0.99378 0.87559 0.95085 0.0
C516 C 0.97802 0.8638 0.98763 0.0
C517 C 0.95202 0.86416 0.97921 0.0
C518 C 0.05835 0.87505 0.02531 0.0
C519 C 0.07416 0.87657 0.97364 0.0
C520 C 0.0323 0.87439 0.01802 0.0
C521 C 0.02149 0.87516 0.9589 0.0
C522 C 0.0374 0.876 0.90727 0.0
C523 C 0.06337 0.87673 0.91454 0.0
H524 H 0.56305 0.10301 0.39641 0.0
H525 H 0.56394 0.15971 0.48777 0.0
H526 H 0.51776 0.10177 0.40601 0.0
H527 H 0.51831 0.15895 0.49508 0.0
H528 H 0.43586 0.14536 0.53371 0.0
H529 H 0.48158 0.14422 0.53894 0.0
H530 H 0.48369 0.11746 0.35805 0.0
H531 H 0.43844 0.11792 0.35394 0.0
C532 C 0.55352 0.11525 0.41844 0.0
C533 C 0.56699 0.13157 0.4406 0.0
C534 C 0.52751 0.11461 0.4237 0.0
C535 C 0.51426 0.13043 0.4503 0.0
C536 C 0.52787 0.14644 0.47468 0.0
C537 C 0.55401 0.14694 0.47022 0.0
C538 C 0.44616 0.13913 0.49533 0.0
C539 C 0.4335 0.13165 0.44356 0.0
C540 C 0.47236 0.13856 0.49817 0.0
C541 C 0.48639 0.13064 0.44909 0.0
C542 C 0.47359 0.12323 0.39742 0.0
C543 C 0.44753 0.12361 0.39487 0.0
H544 H 0.56371 0.62537 0.9675 0.0
H545 H 0.55822 0.65027 0.15075 0.0
H546 H 0.51824 0.6269 0.95776 0.0
H547 H 0.51311 0.65134 0.14132 0.0
H548 H 0.43541 0.66863 0.08998 0.0
H549 H 0.48085 0.66882 0.08731 0.0
H550 H 0.48058 0.61155 0.9991 0.0
H551 H 0.43491 0.61155 1.00028 0.0
C552 C 0.55289 0.63111 0.00575 0.0
C553 C 0.56475 0.63779 0.0598 0.0
C554 C 0.52682 0.63192 1.00018 0.0
C555 C 0.51206 0.63937 0.04856 0.0
C556 C 0.52393 0.64593 0.10259 0.0
C557 C 0.54989 0.64521 0.10808 0.0
C558 C 0.44498 0.6561 0.06967 0.0
C559 C 0.43149 0.63996 0.046 0.0
C560 C 0.47107 0.65619 0.06834 0.0
C561 C 0.48435 0.64006 0.04386 0.0
C562 C 0.4709 0.62426 0.01794 0.0
C563 C 0.44472 0.62424 0.0188 0.0
H564 H 0.05662 0.36633 0.65465 0.0
H565 H 0.0628 0.3893 0.46898 0.0
H566 H 0.01153 0.36492 0.64393 0.0
H567 H 0.01742 0.38742 0.45798 0.0
H568 H 0.93355 0.40215 0.49395 0.0
H569 H 0.97922 0.40275 0.49553 0.0
H570 H 0.97979 0.34664 0.59103 0.0
H571 H 0.93434 0.34626 0.5909 0.0
C572 C 0.04844 0.37091 0.61123 0.0
C573 C 0.06349 0.37788 0.56263 0.0
C574 C 0.0225 0.36999 0.60501 0.0
C575 C 0.01084 0.37589 0.54989 0.0
C576 C 0.0258 0.38292 0.50124 0.0
C577 C 0.05184 0.38394 0.50755 0.0
C578 C 0.94343 0.38984 0.51467 0.0
C579 C 0.93026 0.37428 0.54296 0.0
C580 C 0.96963 0.39016 0.51543 0.0
C581 C 0.98316 0.37487 0.54413 0.0
C582 C 0.96995 0.3589 0.5699 0.0
C583 C 0.94385 0.35865 0.56958 0.0
H584 H 0.43978 0.39666 0.85546 0.0
H585 H 0.4348 0.36824 0.03364 0.0
H586 H 0.48496 0.3967 0.86273 0.0
H587 H 0.4805 0.36887 0.04192 0.0
H588 H 0.56362 0.35342 0.99257 0.0
H589 H 0.51787 0.35415 0.99815 0.0
H590 H 0.51796 0.41246 0.91623 0.0
H591 H 0.56329 0.41133 0.90849 0.0
C592 C 0.44833 0.39063 0.89666 0.0
C593 C 0.43366 0.3825 0.94407 0.0
C594 C 0.47432 0.39077 0.90103 0.0
C595 C 0.48642 0.383 0.95327 0.0
C596 C 0.47178 0.37485 1.00087 0.0
C597 C 0.44562 0.37456 0.99625 0.0
C598 C 0.55379 0.36643 0.97636 0.0
C599 C 0.56692 0.38216 0.94905 0.0
C600 C 0.52761 0.3669 0.97977 0.0
C601 C 0.51421 0.38322 0.9566 0.0
C602 C 0.52761 0.39941 0.93281 0.0
C603 C 0.55362 0.39881 0.9286 0.0
H604 H 0.05984 0.60785 0.3888 0.0
H605 H 0.06245 0.66341 0.48678 0.0
H606 H 0.01461 0.60737 0.39812 0.0
H607 H 0.01666 0.6633 0.49434 0.0
H608 H 0.93346 0.6464 0.53415 0.0
H609 H 0.97937 0.64694 0.53765 0.0
H610 H 0.98185 0.6257 0.34983 0.0
H611 H 0.9366 0.6246 0.34705 0.0
C612 C 0.0507 0.62003 0.4122 0.0
C613 C 0.06461 0.63584 0.43616 0.0
C614 C 0.02475 0.61979 0.41736 0.0
C615 C 0.01199 0.63551 0.44578 0.0
C616 C 0.02596 0.65096 0.47223 0.0
C617 C 0.05212 0.65107 0.46768 0.0
C618 C 0.94393 0.64188 0.49377 0.0
C619 C 0.93148 0.63519 0.44067 0.0
C620 C 0.97015 0.64224 0.49568 0.0
C621 C 0.98424 0.63604 0.44437 0.0
C622 C 0.97161 0.63001 0.39081 0.0
C623 C 0.94561 0.62947 0.38912 0.0
H624 H 0.10185 0.20022 0.73295 0.0
H625 H 0.16989 0.20153 0.84018 0.0
H626 H 0.1037 0.23602 0.72086 0.0
H627 H 0.17184 0.23747 0.82795 0.0
H628 H 0.15411 0.30426 0.83404 0.0
H629 H 0.15137 0.26884 0.85351 0.0
H630 H 0.12997 0.25927 0.66385 0.0
H631 H 0.13234 0.29479 0.64452 0.0
C632 C 0.11711 0.20821 0.75439 0.0
C633 C 0.13583 0.19803 0.78714 0.0
C634 C 0.11826 0.22871 0.74709 0.0
C635 C 0.13815 0.23959 0.77247 0.0
C636 C 0.15622 0.22954 0.80794 0.0
C637 C 0.15506 0.20897 0.81522 0.0
C638 C 0.14888 0.29462 0.79636 0.0
C639 C 0.14335 0.30239 0.7377 0.0
C640 C 0.14741 0.27428 0.80755 0.0
C641 C 0.14028 0.26121 0.76042 0.0
C642 C 0.13511 0.26896 0.7015 0.0
C643 C 0.13666 0.28931 0.69023 0.0
H644 H 0.31843 0.81207 0.35466 0.0
H645 H 0.38355 0.81829 0.23861 0.0
H646 H 0.31928 0.77623 0.33876 0.0
H647 H 0.38473 0.78258 0.22326 0.0
H648 H 0.35851 0.72413 0.13982 0.0
H649 H 0.35948 0.75923 0.16582 0.0
H650 H 0.34137 0.74519 0.35498 0.0
H651 H 0.33993 0.71018 0.3288 0.0
C652 C 0.33339 0.80569 0.32742 0.0
C653 C 0.35088 0.81795 0.29778 0.0
C654 C 0.33382 0.78517 0.31792 0.0
C655 C 0.35179 0.77653 0.27864 0.0
C656 C 0.37024 0.78875 0.25242 0.0
C657 C 0.36977 0.80918 0.26182 0.0
C658 C 0.35462 0.72853 0.18686 0.0
C659 C 0.34917 0.7143 0.23212 0.0
C660 C 0.35541 0.74866 0.20198 0.0
C661 C 0.35074 0.75507 0.26274 0.0
C662 C 0.34491 0.74083 0.30773 0.0
C663 C 0.34418 0.72072 0.29265 0.0
H664 H 0.13484 0.70415 0.36897 0.0
H665 H 0.15743 0.69955 0.17827 0.0
H666 H 0.13607 0.74022 0.36082 0.0
H667 H 0.15805 0.73535 0.16972 0.0
H668 H 0.18156 0.80039 0.19515 0.0
H669 H 0.18045 0.7643 0.20088 0.0
H670 H 0.11399 0.76744 0.3141 0.0
H671 H 0.11533 0.80342 0.30879 0.0
C672 C 0.14006 0.7108 0.32538 0.0
C673 C 0.14603 0.69889 0.27439 0.0
C674 C 0.14058 0.7315 0.32047 0.0
C675 C 0.14708 0.7408 0.26444 0.0
C676 C 0.15327 0.72882 0.21377 0.0
C677 C 0.15277 0.7082 0.21868 0.0
C678 C 0.16648 0.79334 0.22031 0.0
C679 C 0.14861 0.80481 0.25169 0.0
C680 C 0.16586 0.77263 0.22385 0.0
C681 C 0.14729 0.76286 0.25866 0.0
C682 C 0.12893 0.77438 0.28816 0.0
C683 C 0.12958 0.79504 0.28472 0.0
H684 H 0.38562 0.31762 0.82929 0.0
H685 H 0.30658 0.31432 0.78931 0.0
H686 H 0.39045 0.28308 0.80097 0.0
H687 H 0.31099 0.27936 0.76426 0.0
H688 H 0.32817 0.22144 0.67106 0.0
H689 H 0.32568 0.2568 0.69151 0.0
H690 H 0.38343 0.25088 0.82998 0.0
H691 H 0.38731 0.21608 0.80579 0.0
C692 C 0.36914 0.30937 0.81568 0.0
C693 C 0.3457 0.3187 0.81176 0.0
C694 C 0.37188 0.28947 0.79945 0.0
C695 C 0.35115 0.27822 0.77998 0.0
C696 C 0.32755 0.28753 0.77755 0.0
C697 C 0.32492 0.30755 0.79271 0.0
C698 C 0.3408 0.22779 0.70466 0.0
C699 C 0.35781 0.21577 0.73705 0.0
C700 C 0.33904 0.24807 0.71736 0.0
C701 C 0.35406 0.25685 0.76324 0.0
C702 C 0.37164 0.24489 0.794 0.0
C703 C 0.37365 0.22475 0.78065 0.0
H704 H 0.8671 0.70099 0.36944 0.0
H705 H 0.8215 0.69293 0.20702 0.0
H706 H 0.87168 0.736 0.34427 0.0
H707 H 0.82685 0.72756 0.18054 0.0
H708 H 0.82285 0.79531 0.1799 0.0
H709 H 0.81652 0.76046 0.20516 0.0
H710 H 0.89241 0.75706 0.27368 0.0
H711 H 0.89826 0.79201 0.25015 0.0
C712 C 0.85799 0.70669 0.32851 0.0
C713 C 0.84395 0.69412 0.29034 0.0
C714 C 0.86082 0.72675 0.31361 0.0
C715 C 0.84986 0.7347 0.25986 0.0
C716 C 0.83535 0.72214 0.2226 0.0
C717 C 0.83236 0.70218 0.23776 0.0
C718 C 0.83826 0.78698 0.1994 0.0
C719 C 0.86104 0.79636 0.21301 0.0
C720 C 0.83466 0.76699 0.2141 0.0
C721 C 0.85385 0.75586 0.24226 0.0
C722 C 0.87695 0.76518 0.25361 0.0
C723 C 0.88044 0.78517 0.23947 0.0
H724 H 0.631 0.3118 0.86956 0.0
H725 H 0.67544 0.31997 0.70508 0.0
H726 H 0.62793 0.27649 0.8472 0.0
H727 H 0.67151 0.28508 0.68128 0.0
H728 H 0.67935 0.21786 0.68428 0.0
H729 H 0.68377 0.25296 0.70762 0.0
H730 H 0.60835 0.25384 0.78016 0.0
H731 H 0.60445 0.21858 0.75869 0.0
C732 C 0.64014 0.30607 0.82872 0.0
C733 C 0.65348 0.31874 0.78926 0.0
C734 C 0.63818 0.28583 0.81544 0.0
C735 C 0.64931 0.2778 0.76202 0.0
C736 C 0.66297 0.29052 0.72324 0.0
C737 C 0.66514 0.31065 0.73683 0.0
C738 C 0.66361 0.22567 0.70432 0.0
C739 C 0.64154 0.2155 0.71949 0.0
C740 C 0.66612 0.24582 0.71788 0.0
C741 C 0.64649 0.25637 0.74635 0.0
C742 C 0.62411 0.24622 0.75967 0.0
C743 C 0.62174 0.22604 0.74674 0.0
H744 H 0.83303 0.29998 0.80844 0.0
H745 H 0.86224 0.29043 0.62505 0.0
H746 H 0.83723 0.26479 0.83057 0.0
H747 H 0.86606 0.25517 0.64692 0.0
H748 H 0.89554 0.19778 0.72458 0.0
H749 H 0.89175 0.23342 0.7106 0.0
H750 H 0.82009 0.23238 0.80295 0.0
H751 H 0.82399 0.1966 0.81715 0.0
C752 C 0.84017 0.29036 0.77262 0.0
C753 C 0.8474 0.29806 0.71497 0.0
C754 C 0.84249 0.27015 0.78532 0.0
C755 C 0.85219 0.25716 0.74078 0.0
C756 C 0.85896 0.26482 0.68271 0.0
C757 C 0.85656 0.28502 0.66994 0.0
C758 C 0.8791 0.20521 0.7425 0.0
C759 C 0.85999 0.19437 0.77162 0.0
C760 C 0.87683 0.22561 0.73407 0.0
C761 C 0.8554 0.23572 0.7546 0.0
C762 C 0.83687 0.22506 0.78669 0.0
C763 C 0.83914 0.20458 0.79513 0.0
H764 H 0.64097 0.72168 0.14509 0.0
H765 H 0.62929 0.7092 0.33831 0.0
H766 H 0.6428 0.75695 0.16807 0.0
H767 H 0.6319 0.74433 0.36161 0.0
H768 H 0.6099 0.8108 0.36736 0.0
H769 H 0.60986 0.77492 0.35123 0.0
H770 H 0.6684 0.78136 0.21492 0.0
H771 H 0.66772 0.81705 0.22996 0.0
C772 C 0.63897 0.72644 0.1925 0.0
C773 C 0.63494 0.7126 0.23973 0.0
C774 C 0.64019 0.74668 0.20587 0.0
C775 C 0.6376 0.75358 0.26689 0.0
C776 C 0.63364 0.73967 0.31406 0.0
C777 C 0.63227 0.71946 0.30064 0.0
C778 C 0.62302 0.8044 0.33489 0.0
C779 C 0.63872 0.81663 0.29971 0.0
C780 C 0.62302 0.78387 0.32545 0.0
C781 C 0.63886 0.77519 0.28092 0.0
C782 C 0.65547 0.78748 0.2483 0.0
C783 C 0.6553 0.80792 0.25738 0.0
H784 H 0.64805 0.8031 0.84802 0.0
H785 H 0.62705 0.79478 0.65744 0.0
H786 H 0.64654 0.76744 0.86443 0.0
H787 H 0.62589 0.75908 0.67372 0.0
H788 H 0.60007 0.69874 0.7369 0.0
H789 H 0.60038 0.73468 0.72849 0.0
H790 H 0.66842 0.73684 0.83582 0.0
H791 H 0.66807 0.70077 0.84424 0.0
C792 C 0.64324 0.79367 0.80948 0.0
C793 C 0.63759 0.80182 0.7514 0.0
C794 C 0.64247 0.7732 0.81891 0.0
C795 C 0.63592 0.7604 0.77057 0.0
C796 C 0.63059 0.76855 0.71227 0.0
C797 C 0.63145 0.78901 0.70277 0.0
C798 C 0.61498 0.7069 0.75916 0.0
C799 C 0.63415 0.6969 0.79085 0.0
C800 C 0.61525 0.72749 0.75402 0.0
C801 C 0.63465 0.73863 0.78056 0.0
C802 C 0.65315 0.72871 0.81499 0.0
C803 C 0.6529 0.70805 0.82007 0.0
H804 H 0.89206 0.31351 0.20971 0.0
H805 H 0.82722 0.30953 0.32786 0.0
H806 H 0.89241 0.27765 0.19854 0.0
H807 H 0.82739 0.27352 0.31642 0.0
H808 H 0.84868 0.20742 0.31839 0.0
H809 H 0.84996 0.24287 0.33795 0.0
H810 H 0.86653 0.25339 0.14575 0.0
H811 H 0.86567 0.21784 0.12631 0.0
C812 C 0.87804 0.3049 0.23391 0.0
C813 C 0.85953 0.31434 0.2694 0.0
C814 C 0.8781 0.28437 0.22707 0.0
C815 C 0.85965 0.2727 0.25558 0.0
C816 C 0.84193 0.28204 0.29391 0.0
C817 C 0.84188 0.30267 0.30078 0.0
C818 C 0.85255 0.21728 0.28017 0.0
C819 C 0.85716 0.20975 0.22072 0.0
C820 C 0.85317 0.23764 0.29144 0.0
C821 C 0.85852 0.25101 0.2436 0.0
C822 C 0.8628 0.24349 0.18395 0.0
C823 C 0.8621 0.22311 0.17263 0.0
H824 H 0.67376 0.29559 0.17602 0.0
H825 H 0.60765 0.29919 0.29033 0.0
H826 H 0.6765 0.26026 0.19692 0.0
H827 H 0.61159 0.26446 0.3155 0.0
H828 H 0.612 0.1977 0.31354 0.0
H829 H 0.60742 0.23221 0.28452 0.0
H830 H 0.68799 0.2378 0.27325 0.0
H831 H 0.69231 0.20287 0.29878 0.0
C832 C 0.65969 0.28886 0.20524 0.0
C833 C 0.64061 0.30038 0.23185 0.0
C834 C 0.66154 0.2686 0.21829 0.0
C835 C 0.64452 0.25935 0.25884 0.0
C836 C 0.62499 0.27081 0.2837 0.0
C837 C 0.62291 0.29092 0.26988 0.0
C838 C 0.62874 0.20636 0.30541 0.0
C839 C 0.65252 0.19756 0.30868 0.0
C840 C 0.62615 0.22625 0.28879 0.0
C841 C 0.64731 0.23802 0.27616 0.0
C842 C 0.67117 0.22924 0.28107 0.0
C843 C 0.67371 0.20923 0.29656 0.0
H844 H 0.87201 0.80875 0.86539 0.0
H845 H 0.83133 0.81562 0.69462 0.0
H846 H 0.87323 0.77302 0.84948 0.0
H847 H 0.83334 0.78018 0.67753 0.0
H848 H 0.82158 0.71341 0.69246 0.0
H849 H 0.81847 0.74897 0.71 0.0
H850 H 0.89323 0.74903 0.78631 0.0
H851 H 0.89591 0.71341 0.77023 0.0
C852 C 0.86327 0.80264 0.82458 0.0
C853 C 0.8516 0.81506 0.78132 0.0
C854 C 0.86417 0.78216 0.81507 0.0
C855 C 0.85358 0.77364 0.76186 0.0
C856 C 0.84145 0.7861 0.71938 0.0
C857 C 0.84039 0.8065 0.72911 0.0
C858 C 0.83745 0.72111 0.71217 0.0
C859 C 0.85899 0.71065 0.7299 0.0
C860 C 0.83568 0.7415 0.72238 0.0
C861 C 0.85553 0.75194 0.7501 0.0
C862 C 0.87734 0.74148 0.76625 0.0
C863 C 0.87899 0.72108 0.75652 0.0
H864 H 0.38726 0.30033 0.30229 0.0
H865 H 0.3281 0.29494 0.16771 0.0
H866 H 0.38375 0.26548 0.32603 0.0
H867 H 0.32598 0.25951 0.18765 0.0
H868 H 0.30714 0.20188 0.28556 0.0
H869 H 0.31144 0.2368 0.25992 0.0
H870 H 0.39084 0.2333 0.29787 0.0
H871 H 0.38607 0.19879 0.32688 0.0
C872 C 0.37369 0.29163 0.27704 0.0
C873 C 0.35769 0.30063 0.23374 0.0
C874 C 0.37188 0.27146 0.29013 0.0
C875 C 0.35438 0.25946 0.25936 0.0
C876 C 0.33928 0.26826 0.21357 0.0
C877 C 0.34082 0.28858 0.20115 0.0
C878 C 0.32544 0.20869 0.28909 0.0
C879 C 0.34621 0.19761 0.30876 0.0
C880 C 0.32802 0.2287 0.27357 0.0
C881 C 0.35156 0.23807 0.27619 0.0
C882 C 0.3723 0.22688 0.29619 0.0
C883 C 0.3696 0.20699 0.31282 0.0
H884 H 0.17716 0.79086 0.8654 0.0
H885 H 0.1001 0.80653 0.82892 0.0
H886 H 0.1701 0.75834 0.82143 0.0
H887 H 0.09313 0.77387 0.78363 0.0
H888 H 0.08841 0.70438 0.77594 0.0
H889 H 0.09138 0.73854 0.8115 0.0
H890 H 0.16278 0.74439 0.71956 0.0
H891 H 0.16037 0.7101 0.6865 0.0
C892 C 0.15866 0.78734 0.84814 0.0
C893 C 0.13921 0.80129 0.8504 0.0
C894 C 0.15469 0.76876 0.82231 0.0
C895 C 0.13119 0.76369 0.79794 0.0
C896 C 0.11145 0.77739 0.80198 0.0
C897 C 0.11544 0.79605 0.82799 0.0
C898 C 0.10459 0.71307 0.76276 0.0
C899 C 0.1243 0.70447 0.72907 0.0
C900 C 0.10621 0.73266 0.78279 0.0
C901 C 0.12755 0.744 0.76935 0.0
C902 C 0.14636 0.73584 0.73181 0.0
C903 C 0.14479 0.71628 0.71201 0.0
H904 H 0.39035 0.69865 0.70775 0.0
H905 H 0.3297 0.70053 0.83938 0.0
H906 H 0.38926 0.73458 0.69931 0.0
H907 H 0.32887 0.73664 0.83155 0.0
H908 H 0.35105 0.80295 0.83578 0.0
H909 H 0.35395 0.7673 0.85153 0.0
H910 H 0.35885 0.75871 0.65466 0.0
H911 H 0.35599 0.79443 0.63875 0.0
C912 C 0.37693 0.70677 0.73536 0.0
C913 C 0.35992 0.69669 0.77376 0.0
C914 C 0.37625 0.72735 0.73028 0.0
C915 C 0.35871 0.73843 0.76392 0.0
C916 C 0.34263 0.7285 0.80506 0.0
C917 C 0.3432 0.70783 0.80984 0.0
C918 C 0.35275 0.79348 0.79576 0.0
C919 C 0.35336 0.80156 0.73593 0.0
C920 C 0.35429 0.77303 0.80488 0.0
C921 C 0.35675 0.76018 0.75443 0.0
C922 C 0.3573 0.76825 0.69456 0.0
C923 C 0.3555 0.7887 0.68539 0.0
H924 H 0.09297 0.32054 0.23754 0.0
H925 H 0.15523 0.31325 0.36238 0.0
H926 H 0.08763 0.28474 0.23327 0.0
H927 H 0.14997 0.27739 0.35802 0.0
H928 H 0.12408 0.21311 0.36294 0.0
H929 H 0.1229 0.24874 0.38085 0.0
H930 H 0.11275 0.25859 0.18564 0.0
H931 H 0.11362 0.22307 0.16778 0.0
C932 C 0.1053 0.31126 0.2647 0.0
C933 C 0.12468 0.31967 0.29979 0.0
C934 C 0.10231 0.29078 0.26207 0.0
C935 C 0.11862 0.27822 0.29451 0.0
C936 C 0.13701 0.28667 0.33274 0.0
C937 C 0.14 0.30721 0.33537 0.0
C938 C 0.12139 0.22288 0.3239 0.0
C939 C 0.11901 0.21525 0.26386 0.0
C940 C 0.12082 0.24329 0.3342 0.0
C941 C 0.11769 0.25649 0.28474 0.0
C942 C 0.11481 0.24882 0.2249 0.0
C943 C 0.11549 0.22844 0.21458 0.0
H944 H 0.11705 0.95614 0.93134 0.0
H945 H 0.14087 0.95816 0.12157 0.0
H946 H 0.11044 0.99168 0.93222 0.0
H947 H 0.13386 0.99394 0.12267 0.0
H948 H 0.15076 0.05918 0.06688 0.0
H949 H 0.15312 0.02336 0.07664 0.0
H950 H 0.08405 0.0177 0.9747 0.0
H951 H 0.08187 0.05361 0.964 0.0
C952 C 0.12069 0.96415 0.97363 0.0
C953 C 0.12962 0.95429 0.02634 0.0
C954 C 0.11669 0.98455 0.97423 0.0
C955 C 0.12157 0.9957 0.02752 0.0
C956 C 0.13013 0.98582 0.08067 0.0
C957 C 0.13404 0.96531 0.08015 0.0
C958 C 0.13593 0.05034 0.04693 0.0
C959 C 0.11622 0.05929 0.01415 0.0
C960 C 0.13722 0.02977 0.05294 0.0
C961 C 0.11885 0.01762 0.02621 0.0
C962 C 0.0987 0.02661 0.99512 0.0
C963 C 0.09738 0.04721 0.98925 0.0
H964 H 0.34575 0.96866 0.43996 0.0
H965 H 0.37008 0.96983 0.6298 0.0
H966 H 0.34892 1.00473 0.43545 0.0
H967 H 0.37295 1.00572 0.62548 0.0
H968 H 0.40075 0.06758 0.57837 0.0
H969 H 0.3981 0.03163 0.57858 0.0
H970 H 0.32876 0.03474 0.4767 0.0
H971 H 0.33158 0.07084 0.4758 0.0
C972 C 0.35179 0.97658 0.4807 0.0
C973 C 0.35771 0.96629 0.5352 0.0
C974 C 0.35345 0.99728 0.47823 0.0
C975 C 0.36124 0.00818 0.53007 0.0
C976 C 0.36722 0.99784 0.5844 0.0
C977 C 0.36544 0.97721 0.58696 0.0
C978 C 0.38493 0.06065 0.55591 0.0
C979 C 0.36633 0.07216 0.52729 0.0
C980 C 0.38334 0.03999 0.55631 0.0
C981 C 0.36315 0.03023 0.52791 0.0
C982 C 0.34469 0.04173 0.49855 0.0
C983 C 0.34622 0.06245 0.49839 0.0
H984 H 0.83995 0.9413 0.95359 0.0
H985 H 0.91043 0.94381 0.05081 0.0
H986 H 0.8377 0.9774 0.95452 0.0
H987 H 0.90836 0.97978 0.05091 0.0
H988 H 0.8821 0.04186 0.10389 0.0
H989 H 0.88441 1.00595 0.09954 0.0
H990 H 0.85745 0.00718 0.91189 0.0
H991 H 0.8548 0.04326 0.91652 0.0
C992 C 0.85502 0.94953 0.97492 0.0
C993 C 0.87531 0.9396 1.00241 0.0
C994 C 0.8538 0.97025 0.97512 0.0
C995 C 0.87279 0.98155 1.00302 0.0
C996 C 0.8932 0.97159 0.02985 0.0
C997 C 0.89445 0.95091 0.02948 0.0
C998 C 0.87668 0.03453 0.0616 0.0
C999 C 0.86828 0.0455 0.01053 0.0
C1000 C 0.87815 0.01388 0.05899 0.0
C1001 C 0.8712 1.0036 0.0053 0.0
C1002 C 0.86273 0.01458 0.95419 0.0
C1003 C 0.86135 0.03528 0.95672 0.0
H1004 H 0.61811 0.97155 0.63653 0.0
H1005 H 0.63667 0.96725 0.44314 0.0
H1006 H 0.61827 0.00747 0.62892 0.0
H1007 H 0.63658 1.00335 0.43542 0.0
H1008 H 0.66149 0.06846 0.46648 0.0
H1009 H 0.66086 0.03233 0.47064 0.0
H1010 H 0.59419 0.03441 0.58316 0.0
H1011 H 0.59494 0.07042 0.57959 0.0
C1012 C 0.62211 0.97825 0.59224 0.0
C1013 C 0.62735 0.96645 0.54043 0.0
C1014 C 0.62207 0.9989 0.58781 0.0
C1015 C 0.6274 0.00836 0.53153 0.0
C1016 C 0.63264 0.99657 0.47962 0.0
C1017 C 0.63252 0.97587 0.48397 0.0
C1018 C 0.64669 0.06121 0.49208 0.0
C1019 C 0.62835 0.07239 0.52295 0.0
C1020 C 0.64624 0.04048 0.49413 0.0
C1021 C 0.62752 0.03042 0.52741 0.0
C1022 C 0.60908 0.04164 0.55781 0.0
C1023 C 0.60946 0.06232 0.55549 0.0
H1024 H 0.59241 0.44578 0.06472 0.0
H1025 H 0.66502 0.44553 0.97691 0.0
H1026 H 0.59243 0.48181 0.06404 0.0
H1027 H 0.6652 0.48167 0.9771 0.0
H1028 H 0.64573 0.54667 0.93477 0.0
H1029 H 0.64479 0.51055 0.93087 0.0
H1030 H 0.61366 0.50903 0.11462 0.0
H1031 H 0.6143 0.54502 0.11823 0.0
C1032 C 0.60844 0.4534 0.04539 0.0
C1033 C 0.62877 0.4427 0.02114 0.0
C1034 C 0.6085 0.4741 0.04528 0.0
C1035 C 0.62887 0.48471 0.02079 0.0
C1036 C 0.64908 0.47401 0.99579 0.0
C1037 C 0.64905 0.45327 0.99604 0.0
C1038 C 0.63858 0.53863 0.97423 0.0
C1039 C 0.63007 0.5488 0.02679 0.0
C1040 C 0.6382 0.5179 0.97215 0.0
C1041 C 0.62915 0.50681 0.02243 0.0
C1042 C 0.62046 0.51703 0.07473 0.0
C1043 C 0.62097 0.53772 0.07693 0.0
H1044 H 0.88172 0.46496 0.60295 0.0
H1045 H 0.85035 0.4655 0.41945 0.0
H1046 H 0.88324 0.50093 0.60244 0.0
H1047 H 0.85216 0.50164 0.41869 0.0
H1048 H 0.83336 0.56648 0.47175 0.0
H1049 H 0.83235 0.53037 0.46823 0.0
H1050 H 0.90532 0.52822 0.55365 0.0
H1051 H 0.9062 0.56422 0.55794 0.0
C1052 C 0.87525 0.47274 0.56228 0.0
C1053 C 0.86591 0.46228 0.51121 0.0
C1054 C 0.87626 0.49341 0.56188 0.0
C1055 C 0.86787 0.50425 0.51049 0.0
C1056 C 0.85855 0.4938 0.45929 0.0
C1057 C 0.85766 0.47306 0.45957 0.0
C1058 C 0.84921 0.5583 0.48974 0.0
C1059 C 0.86981 0.56829 0.51544 0.0
C1060 C 0.84869 0.53758 0.48734 0.0
C1061 C 0.86872 0.52633 0.51084 0.0
C1062 C 0.88941 0.53637 0.53594 0.0
C1063 C 0.88996 0.55705 0.53811 0.0
H1064 H 0.33406 0.54812 0.99782 0.0
H1065 H 0.41406 0.54545 0.96992 0.0
H1066 H 0.33279 0.51226 0.00913 0.0
H1067 H 0.41272 0.50957 0.97962 0.0
H1068 H 0.40613 0.44817 0.06506 0.0
H1069 H 0.40675 0.48401 0.05428 0.0
H1070 H 0.33697 0.48172 0.95391 0.0
H1071 H 0.33606 0.44584 0.96609 0.0
C1072 C 0.35137 0.53989 0.99365 0.0
C1073 C 0.37418 0.54974 0.98309 0.0
C1074 C 0.35062 0.51926 0.99981 0.0
C1075 C 0.37265 0.50789 0.99547 0.0
C1076 C 0.39542 0.51778 0.98432 0.0
C1077 C 0.39617 0.53841 0.97832 0.0
C1078 C 0.39086 0.45529 0.04083 0.0
C1079 C 0.37102 0.44407 0.01655 0.0
C1080 C 0.39131 0.47589 0.03422 0.0
C1081 C 0.37197 0.48588 1.00296 0.0
C1082 C 0.35204 0.47463 0.97894 0.0
C1083 C 0.35157 0.45401 0.98568 0.0
H1084 H 0.14052 0.46716 0.42904 0.0
H1085 H 0.1101 0.47084 0.61331 0.0
H1086 H 0.13822 0.50306 0.41968 0.0
H1087 H 0.10817 0.50674 0.60426 0.0
H1088 H 0.08602 0.56907 0.54698 0.0
H1089 H 0.08611 0.53304 0.55004 0.0
H1090 H 0.15861 0.53237 0.46169 0.0
H1091 H 0.15835 0.56841 0.45764 0.0
C1092 C 0.13331 0.47561 0.46755 0.0
C1093 C 0.12552 0.4661 0.52198 0.0
C1094 C 0.13213 0.49621 0.46229 0.0
C1095 C 0.12305 0.50781 0.51123 0.0
C1096 C 0.11498 0.49826 0.56537 0.0
C1097 C 0.11623 0.47767 0.57071 0.0
C1098 C 0.10193 0.56125 0.52788 0.0
C1099 C 0.12223 0.57165 0.5023 0.0
C1100 C 0.10204 0.54058 0.52998 0.0
C1101 C 0.12242 0.52979 0.50646 0.0
C1102 C 0.14249 0.54019 0.47968 0.0
C1103 C 0.1424 0.56088 0.47765 0.0
H1104 H 0.1921 0.16783 0.16954 0.0
H1105 H 0.18773 0.10421 0.16135 0.0
H1106 H 0.22391 0.1654 0.2505 0.0
H1107 H 0.21858 0.10163 0.24384 0.0
H1108 H 0.27362 0.15483 0.41694 0.0
H1109 H 0.23534 0.15604 0.3549 0.0
H1110 H 0.26243 0.10697 0.24603 0.0
H1111 H 0.29979 0.10534 0.30862 0.0
C1112 C 0.19763 0.15336 0.18619 0.0
C1113 C 0.18775 0.1362 0.15937 0.0
C1114 C 0.21565 0.15194 0.23277 0.0
C1115 C 0.224 0.1333 0.25322 0.0
C1116 C 0.21298 0.11619 0.22826 0.0
C1117 C 0.19528 0.11763 0.18125 0.0
C1118 C 0.27113 0.14413 0.38034 0.0
C1119 C 0.28979 0.13006 0.36751 0.0
C1120 C 0.2493 0.1449 0.34458 0.0
C1121 C 0.24579 0.13161 0.29545 0.0
C1122 C 0.26421 0.11721 0.28411 0.0
C1123 C 0.28583 0.1164 0.3198 0.0
H1124 H 0.27844 0.85845 0.63097 0.0
H1125 H 0.29778 0.91835 0.67897 0.0
H1126 H 0.24787 0.85754 0.71393 0.0
H1127 H 0.26862 0.91712 0.76591 0.0
H1128 H 0.19801 0.91468 0.88582 0.0
H1129 H 0.22754 0.91713 0.79991 0.0
H1130 H 0.24369 0.85465 0.81789 0.0
H1131 H 0.21288 0.85218 0.89982 0.0
C1132 C 0.27631 0.87134 0.66017 0.0
C1133 C 0.29048 0.8884 0.64915 0.0
C1134 C 0.25895 0.87081 0.70826 0.0
C1135 C 0.25583 0.88716 0.7478 0.0
C1136 C 0.27009 0.90432 0.73623 0.0
C1137 C 0.28698 0.90503 0.68677 0.0
C1138 C 0.20796 0.90155 0.87101 0.0
C1139 C 0.20307 0.88321 0.89878 0.0
C1140 C 0.22501 0.90292 0.822 0.0
C1141 C 0.238 0.88605 0.80095 0.0
C1142 C 0.23358 0.86788 0.83086 0.0
C1143 C 0.21608 0.86644 0.87843 0.0
H1144 H 0.68644 0.85653 0.67214 0.0
H1145 H 0.69197 0.92012 0.66412 0.0
H1146 H 0.72176 0.85548 0.74398 0.0
H1147 H 0.72672 0.91924 0.73694 0.0
H1148 H 0.77905 0.86155 0.90005 0.0
H1149 H 0.73898 0.8636 0.84541 0.0
H1150 H 0.76947 0.90921 0.72767 0.0
H1151 H 0.80887 0.90752 0.78257 0.0
C1152 C 0.69485 0.87029 0.687 0.0
C1153 C 0.68654 0.8884 0.66271 0.0
C1154 C 0.71502 0.86973 0.72827 0.0
C1155 C 0.7273 0.88727 0.74573 0.0
C1156 C 0.71805 0.90542 0.72355 0.0
C1157 C 0.69805 0.90596 0.68213 0.0
C1158 C 0.77703 0.87216 0.86294 0.0
C1159 C 0.79719 0.88437 0.84576 0.0
C1160 C 0.75414 0.87325 0.83141 0.0
C1161 C 0.75092 0.88663 0.78225 0.0
C1162 C 0.77102 0.89901 0.76599 0.0
C1163 C 0.79377 0.89792 0.79731 0.0
H1164 H 0.72713 0.14997 0.39534 0.0
H1165 H 0.69624 0.10018 0.2965 0.0
H1166 H 0.76439 0.14882 0.32933 0.0
H1167 H 0.73264 0.09942 0.23026 0.0
H1168 H 0.80615 0.1557 0.13911 0.0
H1169 H 0.77488 0.15602 0.22178 0.0
H1170 H 0.77621 0.0921 0.2263 0.0
H1171 H 0.80669 0.09193 0.14252 0.0
C1172 C 0.72838 0.13869 0.36006 0.0
C1173 C 0.7087 0.12521 0.35109 0.0
C1174 C 0.74961 0.13812 0.32199 0.0
C1175 C 0.75154 0.12402 0.2745 0.0
C1176 C 0.73208 0.11026 0.26696 0.0
C1177 C 0.71103 0.11081 0.30479 0.0
C1178 C 0.79987 0.14179 0.15851 0.0
C1179 C 0.80866 0.12379 0.13466 0.0
C1180 C 0.78213 0.14194 0.20607 0.0
C1181 C 0.77287 0.12407 0.23036 0.0
C1182 C 0.78258 0.10612 0.2079 0.0
C1183 C 0.80007 0.10598 0.1601 0.0
H1184 H 0.80018 0.59707 0.3171 0.0
H1185 H 0.77308 0.64967 0.40847 0.0
H1186 H 0.76389 0.59721 0.25026 0.0
H1187 H 0.73606 0.64954 0.34175 0.0
H1188 H 0.68959 0.59432 0.15853 0.0
H1189 H 0.71891 0.59306 0.24492 0.0
H1190 H 0.72988 0.65623 0.23075 0.0
H1191 H 0.70004 0.65745 0.14533 0.0
C1192 C 0.78622 0.6085 0.32362 0.0
C1193 C 0.78962 0.6235 0.36757 0.0
C1194 C 0.76526 0.60847 0.28558 0.0
C1195 C 0.74714 0.62342 0.2906 0.0
C1196 C 0.7499 0.63796 0.33646 0.0
C1197 C 0.77097 0.63796 0.37484 0.0
C1198 C 0.69813 0.60791 0.17448 0.0
C1199 C 0.69266 0.62598 0.14579 0.0
C1200 C 0.71486 0.60722 0.22381 0.0
C1201 C 0.72672 0.62454 0.24454 0.0
C1202 C 0.72075 0.64269 0.21649 0.0
C1203 C 0.7039 0.64338 0.16734 0.0
H1204 H 0.80333 0.41701 0.6363 0.0
H1205 H 0.79586 0.35356 0.62631 0.0
H1206 H 0.77397 0.41784 0.7225 0.0
H1207 H 0.76579 0.35434 0.71164 0.0
H1208 H 0.69521 0.41358 0.80427 0.0
H1209 H 0.72966 0.41294 0.73187 0.0
H1210 H 0.75974 0.36115 0.82226 0.0
H1211 H 0.7244 0.36144 0.8945 0.0
C1212 C 0.79532 0.40325 0.6527 0.0
C1213 C 0.80176 0.38523 0.6251 0.0
C1214 C 0.77853 0.4037 0.70194 0.0
C1215 C 0.76746 0.38616 0.72375 0.0
C1216 C 0.77423 0.36806 0.69648 0.0
C1217 C 0.79121 0.36761 0.64739 0.0
C1218 C 0.70922 0.40211 0.80924 0.0
C1219 C 0.70696 0.38746 0.85488 0.0
C1220 C 0.72914 0.40184 0.7679 0.0
C1221 C 0.74747 0.387 0.77125 0.0
C1222 C 0.74573 0.37265 0.81814 0.0
C1223 C 0.72564 0.37291 0.85975 0.0
H1224 H 0.19122 0.421 0.65843 0.0
H1225 H 0.1981 0.35756 0.64603 0.0
H1226 H 0.22175 0.42142 0.74219 0.0
H1227 H 0.22928 0.35791 0.72872 0.0
H1228 H 0.27414 0.36368 0.90558 0.0
H1229 H 0.23726 0.36423 0.83842 0.0
H1230 H 0.26615 0.41627 0.74707 0.0
H1231 H 0.30221 0.41607 0.81459 0.0
C1232 C 0.1993 0.40716 0.67389 0.0
C1233 C 0.19239 0.38925 0.64629 0.0
C1234 C 0.21677 0.40737 0.7217 0.0
C1235 C 0.22802 0.3897 0.74197 0.0
C1236 C 0.22071 0.37173 0.71483 0.0
C1237 C 0.20308 0.37152 0.66722 0.0
C1238 C 0.27232 0.3754 0.87181 0.0
C1239 C 0.29114 0.38975 0.86512 0.0
C1240 C 0.25133 0.37563 0.83309 0.0
C1241 C 0.24882 0.39025 0.78727 0.0
C1242 C 0.26727 0.40496 0.78236 0.0
C1243 C 0.2881 0.40474 0.82087 0.0
H1244 H 0.30317 0.59797 0.13837 0.0
H1245 H 0.29912 0.6617 0.13376 0.0
H1246 H 0.2731 0.59727 0.22285 0.0
H1247 H 0.26823 0.66106 0.21747 0.0
H1248 H 0.22322 0.65265 0.39562 0.0
H1249 H 0.25986 0.65292 0.32729 0.0
H1250 H 0.22883 0.60373 0.22581 0.0
H1251 H 0.19307 0.60311 0.29412 0.0
C1252 C 0.29577 0.61182 0.15562 0.0
C1253 C 0.30323 0.62987 0.12972 0.0
C1254 C 0.27859 0.61145 0.20392 0.0
C1255 C 0.26813 0.6291 0.22639 0.0
C1256 C 0.27616 0.64724 0.20152 0.0
C1257 C 0.29359 0.64762 0.15338 0.0
C1258 C 0.22451 0.64176 0.3592 0.0
C1259 C 0.20524 0.62793 0.35002 0.0
C1260 C 0.24535 0.64199 0.31993 0.0
C1261 C 0.24723 0.62834 0.27125 0.0
C1262 C 0.2282 0.61424 0.26343 0.0
C1263 C 0.20755 0.614 0.30239 0.0
H1264 H 0.0987 0.14964 0.6397 0.0
H1265 H 0.17002 0.12127 0.67046 0.0
H1266 H 0.09924 0.13866 0.5328 0.0
H1267 H 0.17061 0.11012 0.56301 0.0
H1268 H 0.17571 0.13664 0.35716 0.0
H1269 H 0.1757 0.13157 0.4685 0.0
H1270 H 0.0996 0.11013 0.45932 0.0
H1271 H 0.09954 0.11541 0.348 0.0
C1272 C 0.1142 0.14066 0.62371 0.0
C1273 C 0.1344 0.13643 0.6627 0.0
C1274 C 0.11443 0.13418 0.56282 0.0
C1275 C 0.135 0.12353 0.53973 0.0
C1276 C 0.15457 0.11833 0.57978 0.0
C1277 C 0.15419 0.12464 0.64106 0.0
C1278 C 0.15929 0.13024 0.37877 0.0
C1279 C 0.13741 0.12687 0.3447 0.0
C1280 C 0.15933 0.12721 0.4424 0.0
C1281 C 0.13746 0.1208 0.47248 0.0
C1282 C 0.11654 0.11536 0.4372 0.0
C1283 C 0.11653 0.11837 0.37363 0.0
H1284 H 0.35958 0.90034 0.16994 0.0
H1285 H 0.30691 0.85274 0.1447 0.0
H1286 H 0.35645 0.90844 0.05977 0.0
H1287 H 0.30431 0.86017 0.03558 0.0
H1288 H 0.29555 0.87779 0.84265 0.0
H1289 H 0.29188 0.88089 0.95432 0.0
H1290 H 0.37102 0.89383 0.96595 0.0
H1291 H 0.37424 0.89163 0.85402 0.0
C1292 C 0.34698 0.8919 0.14106 0.0
C1293 C 0.33368 0.87581 0.16562 0.0
C1294 C 0.34535 0.89636 0.07787 0.0
C1295 C 0.33028 0.88487 0.03826 0.0
C1296 C 0.31587 0.86957 0.06419 0.0
C1297 C 0.31752 0.86515 0.12688 0.0
C1298 C 0.31199 0.8818 0.86904 0.0
C1299 C 0.33521 0.8843 0.83978 0.0
C1300 C 0.30998 0.88342 0.93318 0.0
C1301 C 0.33126 0.88725 0.9697 0.0
C1302 C 0.35416 0.89102 0.93969 0.0
C1303 C 0.35607 0.88965 0.87541 0.0
H1304 H 0.1891 0.87309 0.69849 0.0
H1305 H 0.11258 0.89357 0.69045 0.0
H1306 H 0.19069 0.87235 0.58576 0.0
H1307 H 0.11424 0.89309 0.57809 0.0
H1308 H 0.11531 0.8526 0.40407 0.0
H1309 H 0.11531 0.86347 0.51112 0.0
H1310 H 0.18775 0.89059 0.48453 0.0
H1311 H 0.18772 0.87951 0.37678 0.0
C1312 C 0.17288 0.87795 0.67257 0.0
C1313 C 0.15058 0.88307 0.70294 0.0
C1314 C 0.1738 0.87761 0.60808 0.0
C1315 C 0.15243 0.88235 0.57317 0.0
C1316 C 0.13084 0.88903 0.60383 0.0
C1317 C 0.12994 0.88939 0.66811 0.0
C1318 C 0.13105 0.86113 0.42092 0.0
C1319 C 0.15153 0.86517 0.38242 0.0
C1320 C 0.131 0.8675 0.48203 0.0
C1321 C 0.15153 0.87793 0.50621 0.0
C1322 C 0.17173 0.88253 0.46714 0.0
C1323 C 0.17163 0.87633 0.40555 0.0
H1324 H 0.39306 0.13523 0.82221 0.0
H1325 H 0.32272 0.16273 0.86859 0.0
H1326 H 0.39567 0.12132 0.92687 0.0
H1327 H 0.32517 0.14913 0.97239 0.0
H1328 H 0.32727 0.11621 0.14756 0.0
H1329 H 0.32481 0.11937 0.03566 0.0
H1330 H 0.40273 0.13638 0.02988 0.0
H1331 H 0.40525 0.13283 0.14194 0.0
C1332 C 0.37791 0.13784 0.85443 0.0
C1333 C 0.35765 0.14993 0.83778 0.0
C1334 C 0.37947 0.13007 0.9143 0.0
C1335 C 0.36065 0.13413 0.95802 0.0
C1336 C 0.33981 0.14543 0.9398 0.0
C1337 C 0.3384 0.1533 0.88046 0.0
C1338 C 0.34401 0.1202 0.1222 0.0
C1339 C 0.36638 0.12448 0.15335 0.0
C1340 C 0.34257 0.1221 0.05815 0.0
C1341 C 0.36348 0.12838 0.0239 0.0
C1342 C 0.38633 0.13138 0.05478 0.0
C1343 C 0.38776 0.12945 0.11899 0.0
H1344 H 0.90946 0.84154 0.33886 0.0
H1345 H 0.84906 0.88254 0.30489 0.0
H1346 H 0.91319 0.85362 0.44346 0.0
H1347 H 0.85389 0.89577 0.40889 0.0
H1348 H 0.84214 0.88984 0.6196 0.0
H1349 H 0.84334 0.88582 0.50828 0.0
H1350 H 0.92347 0.87683 0.517 0.0
H1351 H 0.92177 0.87974 0.62912 0.0
C1352 C 0.89733 0.85352 0.35336 0.0
C1353 C 0.8786 0.86076 0.31374 0.0
C1354 C 0.89966 0.86067 0.4135 0.0
C1355 C 0.88359 0.87556 0.4357 0.0
C1356 C 0.86621 0.88395 0.39427 0.0
C1357 C 0.86368 0.87659 0.3341 0.0
C1358 C 0.86006 0.88728 0.59754 0.0
C1359 C 0.88182 0.88491 0.63303 0.0
C1360 C 0.86082 0.8851 0.53339 0.0
C1361 C 0.88348 0.88077 0.50291 0.0
C1362 C 0.90553 0.87964 0.53854 0.0
C1363 C 0.90466 0.88148 0.60287 0.0
H1364 H 0.66247 0.13164 0.81189 0.0
H1365 H 0.59627 0.16658 0.84599 0.0
H1366 H 0.66008 0.11836 0.91656 0.0
H1367 H 0.59436 0.15398 0.95097 0.0
H1368 H 0.59043 0.12428 0.13515 0.0
H1369 H 0.58834 0.1274 0.02278 0.0
H1370 H 0.66896 0.13252 0.01558 0.0
H1371 H 0.67093 0.12893 0.1271 0.0
C1372 C 0.64706 0.13612 0.8412 0.0
C1373 C 0.62971 0.15032 0.82081 0.0
C1374 C 0.64586 0.12871 0.90153 0.0
C1375 C 0.62727 0.13532 0.94278 0.0
C1376 C 0.60888 0.14843 0.92071 0.0
C1377 C 0.61008 0.15581 0.86054 0.0
C1378 C 0.60768 0.1257 0.10924 0.0
C1379 C 0.63082 0.12649 0.13983 0.0
C1380 C 0.60651 0.12761 0.04491 0.0
C1381 C 0.62847 0.13035 0.00987 0.0
C1382 C 0.65166 0.13018 0.04063 0.0
C1383 C 0.65281 0.12826 0.10476 0.0
H1384 H 0.83391 0.11609 0.64737 0.0
H1385 H 0.90238 0.14932 0.62768 0.0
H1386 H 0.83555 0.10744 0.53782 0.0
H1387 H 0.90366 0.14141 0.51857 0.0
H1388 H 0.90713 0.12194 0.32502 0.0
H1389 H 0.90844 0.11849 0.43707 0.0
H1390 H 0.82802 0.12542 0.44445 0.0
H1391 H 0.82677 0.12811 0.33244 0.0
C1392 C 0.84963 0.12112 0.61998 0.0
C1393 C 0.86791 0.13351 0.64597 0.0
C1394 C 0.85043 0.1164 0.55701 0.0
C1395 C 0.86957 0.12391 0.51884 0.0
C1396 C 0.88874 0.13515 0.54618 0.0
C1397 C 0.88794 0.13984 0.60884 0.0
C1398 C 0.88971 0.12224 0.35061 0.0
C1399 C 0.86689 0.12547 0.32016 0.0
C1400 C 0.89044 0.12042 0.4149 0.0
C1401 C 0.86839 0.12198 0.45023 0.0
C1402 C 0.84538 0.12395 0.41907 0.0
C1403 C 0.84465 0.12562 0.35474 0.0
H1404 H 0.58856 0.89093 0.8589 0.0
H1405 H 0.66871 0.88333 0.86746 0.0
H1406 H 0.587 0.8943 0.97089 0.0
H1407 H 0.66718 0.88612 0.97958 0.0
H1408 H 0.6602 0.89569 0.18276 0.0
H1409 H 0.65907 0.90471 0.07325 0.0
H1410 H 0.59159 0.87019 0.05094 0.0
H1411 H 0.59256 0.86169 0.15981 0.0
C1412 C 0.6059 0.89034 0.88472 0.0
C1413 C 0.62871 0.88667 0.85464 0.0
C1414 C 0.60501 0.89214 0.94893 0.0
C1415 C 0.6269 0.89018 0.98454 0.0
C1416 C 0.64996 0.88787 0.95382 0.0
C1417 C 0.65085 0.88616 0.8895 0.0
C1418 C 0.64472 0.89063 0.15466 0.0
C1419 C 0.62652 0.87794 0.17959 0.0
C1420 C 0.64421 0.89558 0.09183 0.0
C1421 C 0.62538 0.88803 0.05295 0.0
C1422 C 0.60625 0.87648 0.07927 0.0
C1423 C 0.60683 0.8715 0.14172 0.0
H1424 H 0.59967 0.65017 0.63763 0.0
H1425 H 0.67156 0.62225 0.66324 0.0
H1426 H 0.60089 0.6421 0.52836 0.0
H1427 H 0.67268 0.61374 0.55343 0.0
H1428 H 0.60225 0.62013 0.33645 0.0
H1429 H 0.60047 0.61706 0.44864 0.0
H1430 H 0.67848 0.63358 0.46005 0.0
H1431 H 0.68029 0.63625 0.34792 0.0
C1432 C 0.61548 0.64187 0.62 0.0
C1433 C 0.63558 0.63696 0.65885 0.0
C1434 C 0.61613 0.6371 0.55737 0.0
C1435 C 0.63697 0.62736 0.53184 0.0
C1436 C 0.65648 0.62144 0.57146 0.0
C1437 C 0.65573 0.62612 0.63444 0.0
C1438 C 0.61915 0.62262 0.36292 0.0
C1439 C 0.64133 0.62863 0.33362 0.0
C1440 C 0.61811 0.62099 0.42722 0.0
C1441 C 0.63923 0.62535 0.46356 0.0
C1442 C 0.66188 0.62999 0.43367 0.0
C1443 C 0.66291 0.63163 0.36936 0.0
H1444 H 0.81429 0.38536 0.81642 0.0
H1445 H 0.89474 0.38104 0.8296 0.0
H1446 H 0.81147 0.3886 0.92831 0.0
H1447 H 0.89197 0.38389 0.94163 0.0
H1448 H 0.881 0.39389 0.14534 0.0
H1449 H 0.88079 0.40271 0.03529 0.0
H1450 H 0.81805 0.36343 0.00664 0.0
H1451 H 0.81832 0.35492 0.11564 0.0
C1452 C 0.83141 0.38553 0.8432 0.0
C1453 C 0.85472 0.38272 0.81455 0.0
C1454 C 0.8298 0.38728 0.90729 0.0
C1455 C 0.85147 0.38622 0.94404 0.0
C1456 C 0.87493 0.38491 0.91477 0.0
C1457 C 0.87653 0.38317 0.85059 0.0
C1458 C 0.86684 0.38763 0.11546 0.0
C1459 C 0.84973 0.37372 0.1385 0.0
C1460 C 0.8668 0.39252 0.05257 0.0
C1461 C 0.84944 0.38373 0.01208 0.0
C1462 C 0.83146 0.3707 0.0364 0.0
C1463 C 0.83167 0.36571 0.09878 0.0
H1464 H 0.66892 0.39261 0.63639 0.0
H1465 H 0.58826 0.3903 0.64331 0.0
H1466 H 0.66773 0.38883 0.52496 0.0
H1467 H 0.5868 0.38749 0.5311 0.0
H1468 H 0.59765 0.34927 0.35659 0.0
H1469 H 0.59479 0.36234 0.46035 0.0
H1470 H 0.65861 0.39999 0.42467 0.0
H1471 H 0.66224 0.3859 0.3213 0.0
C1472 C 0.65087 0.39185 0.61375 0.0
C1473 C 0.62869 0.39154 0.6485 0.0
C1474 C 0.65014 0.38981 0.54959 0.0
C1475 C 0.62716 0.38762 0.51852 0.0
C1476 C 0.60488 0.38866 0.55331 0.0
C1477 C 0.60566 0.39044 0.61763 0.0
C1478 C 0.61091 0.36052 0.37064 0.0
C1479 C 0.63045 0.36627 0.33102 0.0
C1480 C 0.60912 0.36822 0.43018 0.0
C1481 C 0.62667 0.38211 0.45172 0.0
C1482 C 0.64507 0.38901 0.41032 0.0
C1483 C 0.64697 0.38115 0.35065 0.0
H1484 H 0.9105 0.62302 0.15077 0.0
H1485 H 0.82999 0.61961 0.13889 0.0
H1486 H 0.9131 0.62581 0.03862 0.0
H1487 H 0.83231 0.62329 0.02758 0.0
H1488 H 0.83965 0.62555 0.82533 0.0
H1489 H 0.84301 0.61172 0.9288 0.0
H1490 H 0.90495 0.65098 0.96691 0.0
H1491 H 0.90257 0.66378 0.86258 0.0
C1492 C 0.89339 0.62261 0.124 0.0
C1493 C 0.87005 0.62124 0.15339 0.0
C1494 C 0.89483 0.62437 0.05977 0.0
C1495 C 0.87291 0.62505 0.0237 0.0
C1496 C 0.84964 0.62258 0.05332 0.0
C1497 C 0.84826 0.6206 0.11737 0.0
C1498 C 0.85451 0.63075 0.85513 0.0
C1499 C 0.87061 0.646 0.83589 0.0
C1500 C 0.85621 0.62302 0.91489 0.0
C1501 C 0.87394 0.63045 0.95697 0.0
C1502 C 0.89112 0.64474 0.93609 0.0
C1503 C 0.88957 0.65231 0.87629 0.0
H1504 H 0.32275 0.35145 0.36977 0.0
H1505 H 0.39041 0.38239 0.32028 0.0
H1506 H 0.32498 0.36499 0.47354 0.0
H1507 H 0.39277 0.39624 0.425 0.0
H1508 H 0.40434 0.38523 0.6403 0.0
H1509 H 0.40162 0.38155 0.52825 0.0
H1510 H 0.32256 0.39485 0.53602 0.0
H1511 H 0.32524 0.39812 0.64778 0.0
C1512 C 0.3378 0.36157 0.38101 0.0
C1513 C 0.35639 0.36594 0.33741 0.0
C1514 C 0.33906 0.36942 0.44032 0.0
C1515 C 0.35907 0.38172 0.45763 0.0
C1516 C 0.37721 0.38672 0.41311 0.0
C1517 C 0.37579 0.37897 0.35323 0.0
C1518 C 0.38654 0.38778 0.61775 0.0
C1519 C 0.36495 0.3917 0.65261 0.0
C1520 C 0.38498 0.38577 0.55358 0.0
C1521 C 0.36179 0.38766 0.52331 0.0
C1522 C 0.3406 0.39296 0.55805 0.0
C1523 C 0.34215 0.39492 0.62202 0.0
H1524 H 0.16636 0.6232 0.12484 0.0
H1525 H 0.08632 0.61633 0.14066 0.0
H1526 H 0.16297 0.62309 0.01327 0.0
H1527 H 0.08283 0.61504 0.02846 0.0
H1528 H 0.0847 0.6504 0.84525 0.0
H1529 H 0.08459 0.63839 0.95042 0.0
H1530 H 0.15507 0.60863 0.91776 0.0
H1531 H 0.15589 0.62195 0.81325 0.0
C1532 C 0.14808 0.62109 0.10425 0.0
C1533 C 0.12656 0.62007 0.14119 0.0
C1534 C 0.1461 0.62084 0.04004 0.0
C1535 C 0.12255 0.61926 0.01124 0.0
C1536 C 0.10121 0.61676 0.04873 0.0
C1537 C 0.10318 0.61736 0.11305 0.0
C1538 C 0.09999 0.64102 0.86024 0.0
C1539 C 0.12059 0.63756 0.82139 0.0
C1540 C 0.09983 0.6339 0.92064 0.0
C1541 C 0.12013 0.62284 0.94353 0.0
C1542 C 0.13946 0.61759 0.90242 0.0
C1543 C 0.13976 0.62496 0.84205 0.0
H1544 H 0.38411 0.61783 0.64909 0.0
H1545 H 0.31994 0.65529 0.61887 0.0
H1546 H 0.3844 0.60908 0.53905 0.0
H1547 H 0.32015 0.64682 0.50987 0.0
H1548 H 0.3176 0.62513 0.31966 0.0
H1549 H 0.31478 0.62142 0.43144 0.0
H1550 H 0.39496 0.62848 0.44569 0.0
H1551 H 0.39776 0.63182 0.33379 0.0
C1552 C 0.36974 0.62376 0.6191 0.0
C1553 C 0.35206 0.63724 0.64198 0.0
C1554 C 0.36998 0.61891 0.55622 0.0
C1555 C 0.35234 0.62729 0.51561 0.0
C1556 C 0.3338 0.63986 0.53976 0.0
C1557 C 0.33374 0.64483 0.60213 0.0
C1558 C 0.33468 0.62535 0.3466 0.0
C1559 C 0.35788 0.62898 0.31829 0.0
C1560 C 0.33306 0.62333 0.41063 0.0
C1561 C 0.3546 0.62495 0.4476 0.0
C1562 C 0.37803 0.62702 0.41863 0.0
C1563 C 0.37965 0.62903 0.35452 0.0
H1564 H 0.17023 0.35348 0.13746 0.0
H1565 H 0.11657 0.40009 0.16847 0.0
H1566 H 0.17208 0.36204 0.02844 0.0
H1567 H 0.1183 0.40881 0.05839 0.0
H1568 H 0.1011 0.38902 0.85101 0.0
H1569 H 0.10362 0.39097 0.96335 0.0
H1570 H 0.18427 0.38764 0.95268 0.0
H1571 H 0.1817 0.38552 0.84046 0.0
C1572 C 0.15917 0.36583 0.12085 0.0
C1573 C 0.14319 0.37609 0.16098 0.0
C1574 C 0.16034 0.37084 0.05855 0.0
C1575 C 0.14534 0.38612 0.03473 0.0
C1576 C 0.13 0.39692 0.07543 0.0
C1577 C 0.12909 0.39204 0.13826 0.0
C1578 C 0.11937 0.38924 0.87266 0.0
C1579 C 0.14117 0.38687 0.83725 0.0
C1580 C 0.12083 0.39044 0.93698 0.0
C1581 C 0.14414 0.38921 0.96692 0.0
C1582 C 0.16603 0.38834 0.93096 0.0
C1583 C 0.16457 0.38721 0.86673 0.0
loop_
_geom_bond_atom_site_label_1
_geom_bond_atom_site_label_2
_geom_bond_distance
_geom_bond_site_symmetry_2
_ccdc_geom_bond_type
O0 Tb1 2.292 . S
O0 C3 1.255 . S
Tb1 O0 2.292 . S
Tb1 O17 2.326 . S
Tb1 O19 2.500 . S
Tb1 O20 2.473 . S
Tb1 O23 2.324 . S
Eu2 O6 2.292 1_554 S
Eu2 C7 2.852 1_554 S
Eu2 O18 2.324 . S
Eu2 O22 2.326 . S
Eu2 O24 2.500 1_554 S
Eu2 O25 2.473 1_554 S
C3 O0 1.255 . S
C3 O4 1.247 . S
O4 C3 1.247 . S
C5 O17 1.242 . S
C5 O18 1.258 . S
O6 Eu2 2.292 1_556 S
O6 C8 1.255 1_556 S
C7 Eu2 2.852 1_556 S
C7 C11 1.503 . S
C7 O24 1.273 . S
C7 O25 1.257 . S
C8 O6 1.255 1_554 S
C8 O9 1.247 . S
O9 C8 1.247 . S
C10 O22 1.242 . S
C10 O23 1.258 . S
C11 C7 1.503 . S
C11 C12 1.379 . S
C11 C16 1.392 . S
C12 C11 1.379 . S
C12 C13 1.404 . S
C12 H26 0.929 . S
C13 C12 1.404 . S
C13 C14 1.389 . S
C14 C13 1.389 . S
C14 C15 1.399 . S
C14 H27 0.931 . S
C15 C14 1.399 . S
C15 C16 1.390 . S
C16 C11 1.392 . S
C16 C15 1.390 . S
C16 H28 0.929 . S
O17 Tb1 2.326 . S
O17 C5 1.242 . S
O18 Eu2 2.324 . S
O18 C5 1.258 . S
O19 Tb1 2.500 . S
O19 C21 1.273 . S
O20 Tb1 2.473 . S
O20 C21 1.257 . S
C21 O19 1.273 . S
C21 O20 1.257 . S
O22 Eu2 2.326 . S
O22 C10 1.242 . S
O23 Tb1 2.324 . S
O23 C10 1.258 . S
O24 Eu2 2.500 1_556 S
O24 C7 1.273 . S
O25 Eu2 2.473 1_556 S
O25 C7 1.257 . S
H26 C12 0.929 . S
H27 C14 0.931 . S
H28 C16 0.929 . S
O29 Tb30 2.292 . S
O29 C32 1.255 . S
Tb30 O29 2.292 . S
Tb30 O46 2.326 . S
Tb30 O48 2.500 . S
Tb30 O49 2.473 . S
Tb30 O52 2.324 . S
Eu31 O35 2.292 . S
Eu31 C36 2.852 . S
Eu31 O47 2.324 . S
Eu31 O51 2.326 . S
Eu31 O53 2.500 . S
Eu31 O54 2.473 . S
C32 O29 1.255 . S
C32 O33 1.247 . S
O33 C32 1.247 . S
C34 O46 1.242 . S
C34 O47 1.258 . S
O35 Eu31 2.292 . S
O35 C37 1.255 . S
C36 Eu31 2.852 . S
C36 C40 1.503 . S
C36 O53 1.273 . S
C36 O54 1.257 . S
C37 O35 1.255 . S
C37 O38 1.247 . S
O38 C37 1.247 . S
C39 O51 1.242 . S
C39 O52 1.258 . S
C40 C36 1.503 . S
C40 C41 1.379 . S
C40 C45 1.392 . S
C41 C40 1.379 . S
C41 C42 1.404 . S
C41 H55 0.929 . S
C42 C41 1.404 . S
C42 C43 1.389 . S
C43 C42 1.389 . S
C43 C44 1.399 . S
C43 H56 0.931 . S
C44 C43 1.399 . S
C44 C45 1.390 . S
C45 C40 1.392 . S
C45 C44 1.390 . S
C45 H57 0.929 . S
O46 Tb30 2.326 . S
O46 C34 1.242 . S
O47 Eu31 2.324 . S
O47 C34 1.258 . S
O48 Tb30 2.500 . S
O48 C50 1.273 . S
O49 Tb30 2.473 . S
O49 C50 1.257 . S
C50 O48 1.273 . S
C50 O49 1.257 . S
O51 Eu31 2.326 . S
O51 C39 1.242 . S
O52 Tb30 2.324 . S
O52 C39 1.258 . S
O53 Eu31 2.500 . S
O53 C36 1.273 . S
O54 Eu31 2.473 . S
O54 C36 1.257 . S
H55 C41 0.929 . S
H56 C43 0.931 . S
H57 C45 0.929 . S
O58 Tb59 2.292 . S
O58 C61 1.255 . S
Tb59 O58 2.292 . S
Tb59 O75 2.326 . S
Tb59 O77 2.500 . S
Tb59 O78 2.473 . S
Tb59 O81 2.324 . S
Eu60 O64 2.292 1_556 S
Eu60 C65 2.852 1_556 S
Eu60 O76 2.324 . S
Eu60 O80 2.326 . S
Eu60 O82 2.500 1_556 S
Eu60 O83 2.473 1_556 S
C61 O58 1.255 . S
C61 O62 1.247 . S
O62 C61 1.247 . S
C63 O75 1.242 . S
C63 O76 1.258 . S
O64 Eu60 2.292 1_554 S
O64 C66 1.255 1_554 S
C65 Eu60 2.852 1_554 S
C65 C69 1.503 . S
C65 O82 1.273 . S
C65 O83 1.257 . S
C66 O64 1.255 1_556 S
C66 O67 1.247 . S
O67 C66 1.247 . S
C68 O80 1.242 . S
C68 O81 1.258 . S
C69 C65 1.503 . S
C69 C70 1.379 . S
C69 C74 1.392 . S
C70 C69 1.379 . S
C70 C71 1.404 . S
C70 H84 0.929 . S
C71 C70 1.404 . S
C71 C72 1.389 . S
C72 C71 1.389 . S
C72 C73 1.399 . S
C72 H85 0.931 . S
C73 C72 1.399 . S
C73 C74 1.390 . S
C74 C69 1.392 . S
C74 C73 1.390 . S
C74 H86 0.929 . S
O75 Tb59 2.326 . S
O75 C63 1.242 . S
O76 Eu60 2.324 . S
O76 C63 1.258 . S
O77 Tb59 2.500 . S
O77 C79 1.273 . S
O78 Tb59 2.473 . S
O78 C79 1.257 . S
C79 O77 1.273 . S
C79 O78 1.257 . S
O80 Eu60 2.326 . S
O80 C68 1.242 . S
O81 Tb59 2.324 . S
O81 C68 1.258 . S
O82 Eu60 2.500 1_554 S
O82 C65 1.273 . S
O83 Eu60 2.473 1_554 S
O83 C65 1.257 . S
H84 C70 0.929 . S
H85 C72 0.931 . S
H86 C74 0.929 . S
O87 Tb88 2.292 . S
O87 C90 1.255 . S
Tb88 O87 2.292 . S
Tb88 O104 2.326 . S
Tb88 O106 2.500 . S
Tb88 O107 2.473 . S
Tb88 O110 2.324 . S
Eu89 O93 2.292 . S
Eu89 C94 2.852 . S
Eu89 O105 2.324 . S
Eu89 O109 2.326 . S
Eu89 O111 2.500 . S
Eu89 O112 2.473 . S
C90 O87 1.255 . S
C90 O91 1.247 . S
O91 C90 1.247 . S
C92 O104 1.242 . S
C92 O105 1.258 . S
O93 Eu89 2.292 . S
O93 C95 1.255 . S
C94 Eu89 2.852 . S
C94 C98 1.503 . S
C94 O111 1.273 . S
C94 O112 1.257 . S
C95 O93 1.255 . S
C95 O96 1.247 . S
O96 C95 1.247 . S
C97 O109 1.242 . S
C97 O110 1.258 . S
C98 C94 1.503 . S
C98 C99 1.379 . S
C98 C103 1.392 . S
C99 C98 1.379 . S
C99 C100 1.404 . S
C99 H113 0.929 . S
C100 C99 1.404 . S
C100 C101 1.389 . S
C101 C100 1.389 . S
C101 C102 1.399 . S
C101 H114 0.931 . S
C102 C101 1.399 . S
C102 C103 1.390 . S
C103 C98 1.392 . S
C103 C102 1.390 . S
C103 H115 0.929 . S
O104 Tb88 2.326 . S
O104 C92 1.242 . S
O105 Eu89 2.324 . S
O105 C92 1.258 . S
O106 Tb88 2.500 . S
O106 C108 1.273 . S
O107 Tb88 2.473 . S
O107 C108 1.257 . S
C108 O106 1.273 . S
C108 O107 1.257 . S
O109 Eu89 2.326 . S
O109 C97 1.242 . S
O110 Tb88 2.324 . S
O110 C97 1.258 . S
O111 Eu89 2.500 . S
O111 C94 1.273 . S
O112 Eu89 2.473 . S
O112 C94 1.257 . S
H113 C99 0.929 . S
H114 C101 0.931 . S
H115 C103 0.929 . S
O116 Tb117 2.292 . S
O116 C119 1.255 . S
Tb117 O116 2.292 . S
Tb117 O133 2.326 . S
Tb117 O135 2.500 . S
Tb117 O136 2.473 . S
Tb117 O139 2.324 . S
Eu118 O122 2.292 1_556 S
Eu118 C123 2.852 1_556 S
Eu118 O134 2.324 . S
Eu118 O138 2.326 . S
Eu118 O140 2.500 1_556 S
Eu118 O141 2.473 1_556 S
C119 O116 1.255 . S
C119 O120 1.247 . S
O120 C119 1.247 . S
C121 O133 1.242 . S
C121 O134 1.258 . S
O122 Eu118 2.292 1_554 S
O122 C124 1.255 1_554 S
C123 Eu118 2.852 1_554 S
C123 C127 1.503 . S
C123 O140 1.273 . S
C123 O141 1.257 . S
C124 O122 1.255 1_556 S
C124 O125 1.247 . S
O125 C124 1.247 . S
C126 O138 1.242 . S
C126 O139 1.258 . S
C127 C123 1.503 . S
C127 C128 1.379 . S
C127 C132 1.392 . S
C128 C127 1.379 . S
C128 C129 1.404 . S
C128 H142 0.929 . S
C129 C128 1.404 . S
C129 C130 1.389 . S
C130 C129 1.389 . S
C130 C131 1.399 . S
C130 H143 0.931 . S
C131 C130 1.399 . S
C131 C132 1.390 . S
C132 C127 1.392 . S
C132 C131 1.390 . S
C132 H144 0.929 . S
O133 Tb117 2.326 . S
O133 C121 1.242 . S
O134 Eu118 2.324 . S
O134 C121 1.258 . S
O135 Tb117 2.500 . S
O135 C137 1.273 . S
O136 Tb117 2.473 . S
O136 C137 1.257 . S
C137 O135 1.273 . S
C137 O136 1.257 . S
O138 Eu118 2.326 . S
O138 C126 1.242 . S
O139 Tb117 2.324 . S
O139 C126 1.258 . S
O140 Eu118 2.500 1_554 S
O140 C123 1.273 . S
O141 Eu118 2.473 1_554 S
O141 C123 1.257 . S
H142 C128 0.929 . S
H143 C130 0.931 . S
H144 C132 0.929 . S
O145 Tb146 2.292 . S
O145 C148 1.255 . S
Tb146 O145 2.292 . S
Tb146 O162 2.326 . S
Tb146 O164 2.500 . S
Tb146 O165 2.473 . S
Tb146 O168 2.324 . S
Eu147 O151 2.292 . S
Eu147 C152 2.852 . S
Eu147 O163 2.324 . S
Eu147 O167 2.326 . S
Eu147 O169 2.500 . S
Eu147 O170 2.473 . S
C148 O145 1.255 . S
C148 O149 1.247 . S
O149 C148 1.247 . S
C150 O162 1.242 . S
C150 O163 1.258 . S
O151 Eu147 2.292 . S
O151 C153 1.255 . S
C152 Eu147 2.852 . S
C152 C156 1.503 . S
C152 O169 1.273 . S
C152 O170 1.257 . S
C153 O151 1.255 . S
C153 O154 1.247 . S
O154 C153 1.247 . S
C155 O167 1.242 . S
C155 O168 1.258 . S
C156 C152 1.503 . S
C156 C157 1.379 . S
C156 C161 1.392 . S
C157 C156 1.379 . S
C157 C158 1.404 . S
C157 H171 0.929 . S
C158 C157 1.404 . S
C158 C159 1.389 . S
C159 C158 1.389 . S
C159 C160 1.399 . S
C159 H172 0.931 . S
C160 C159 1.399 . S
C160 C161 1.390 . S
C161 C156 1.392 . S
C161 C160 1.390 . S
C161 H173 0.929 . S
O162 Tb146 2.326 . S
O162 C150 1.242 . S
O163 Eu147 2.324 . S
O163 C150 1.258 . S
O164 Tb146 2.500 . S
O164 C166 1.273 . S
O165 Tb146 2.473 . S
O165 C166 1.257 . S
C166 O164 1.273 . S
C166 O165 1.257 . S
O167 Eu147 2.326 . S
O167 C155 1.242 . S
O168 Tb146 2.324 . S
O168 C155 1.258 . S
O169 Eu147 2.500 . S
O169 C152 1.273 . S
O170 Eu147 2.473 . S
O170 C152 1.257 . S
H171 C157 0.929 . S
H172 C159 0.931 . S
H173 C161 0.929 . S
O174 Tb175 2.292 . S
O174 C177 1.255 . S
Tb175 O174 2.292 . S
Tb175 O191 2.326 . S
Tb175 O193 2.500 . S
Tb175 O194 2.473 . S
Tb175 O197 2.324 . S
Eu176 O180 2.292 1_554 S
Eu176 C181 2.852 1_554 S
Eu176 O192 2.324 . S
Eu176 O196 2.326 . S
Eu176 O198 2.500 1_554 S
Eu176 O199 2.473 1_554 S
C177 O174 1.255 . S
C177 O178 1.247 . S
O178 C177 1.247 . S
C179 O191 1.242 . S
C179 O192 1.258 . S
O180 Eu176 2.292 1_556 S
O180 C182 1.255 1_556 S
C181 Eu176 2.852 1_556 S
C181 C185 1.503 . S
C181 O198 1.273 . S
C181 O199 1.257 . S
C182 O180 1.255 1_554 S
C182 O183 1.247 . S
O183 C182 1.247 . S
C184 O196 1.242 . S
C184 O197 1.258 . S
C185 C181 1.503 . S
C185 C186 1.379 . S
C185 C190 1.392 . S
C186 C185 1.379 . S
C186 C187 1.404 . S
C186 H200 0.929 . S
C187 C186 1.404 . S
C187 C188 1.389 . S
C188 C187 1.389 . S
C188 C189 1.399 . S
C188 H201 0.931 . S
C189 C188 1.399 . S
C189 C190 1.390 . S
C190 C185 1.392 . S
C190 C189 1.390 . S
C190 H202 0.929 . S
O191 Tb175 2.326 . S
O191 C179 1.242 . S
O192 Eu176 2.324 . S
O192 C179 1.258 . S
O193 Tb175 2.500 . S
O193 C195 1.273 . S
O194 Tb175 2.473 . S
O194 C195 1.257 . S
C195 O193 1.273 . S
C195 O194 1.257 . S
O196 Eu176 2.326 . S
O196 C184 1.242 . S
O197 Tb175 2.324 . S
O197 C184 1.258 . S
O198 Eu176 2.500 1_556 S
O198 C181 1.273 . S
O199 Eu176 2.473 1_556 S
O199 C181 1.257 . S
H200 C186 0.929 . S
H201 C188 0.931 . S
H202 C190 0.929 . S
O203 Tb204 2.292 . S
O203 C206 1.255 . S
Tb204 O203 2.292 . S
Tb204 O220 2.326 . S
Tb204 O222 2.500 . S
Tb204 O223 2.473 . S
Tb204 O226 2.324 . S
Eu205 O209 2.292 . S
Eu205 C210 2.852 . S
Eu205 O221 2.324 . S
Eu205 O225 2.326 . S
Eu205 O227 2.500 . S
Eu205 O228 2.473 . S
C206 O203 1.255 . S
C206 O207 1.247 . S
O207 C206 1.247 . S
C208 O220 1.242 . S
C208 O221 1.258 . S
O209 Eu205 2.292 . S
O209 C211 1.255 . S
C210 Eu205 2.852 . S
C210 C214 1.503 . S
C210 O227 1.273 . S
C210 O228 1.257 . S
C211 O209 1.255 . S
C211 O212 1.247 . S
O212 C211 1.247 . S
C213 O225 1.242 . S
C213 O226 1.258 . S
C214 C210 1.503 . S
C214 C215 1.379 . S
C214 C219 1.392 . S
C215 C214 1.379 . S
C215 C216 1.404 . S
C215 H229 0.929 . S
C216 C215 1.404 . S
C216 C217 1.389 . S
C217 C216 1.389 . S
C217 C218 1.399 . S
C217 H230 0.931 . S
C218 C217 1.399 . S
C218 C219 1.390 . S
C219 C214 1.392 . S
C219 C218 1.390 . S
C219 H231 0.929 . S
O220 Tb204 2.326 . S
O220 C208 1.242 . S
O221 Eu205 2.324 . S
O221 C208 1.258 . S
O222 Tb204 2.500 . S
O222 C224 1.273 . S
O223 Tb204 2.473 . S
O223 C224 1.257 . S
C224 O222 1.273 . S
C224 O223 1.257 . S
O225 Eu205 2.326 . S
O225 C213 1.242 . S
O226 Tb204 2.324 . S
O226 C213 1.258 . S
O227 Eu205 2.500 . S
O227 C210 1.273 . S
O228 Eu205 2.473 . S
O228 C210 1.257 . S
H229 C215 0.929 . S
H230 C217 0.931 . S
H231 C219 0.929 . S
O232 Tb233 2.292 . S
O232 C235 1.255 . S
Tb233 O232 2.292 . S
Tb233 O249 2.326 . S
Tb233 O251 2.500 . S
Tb233 O252 2.473 . S
Tb233 O255 2.324 . S
Eu234 O238 2.292 1_554 S
Eu234 C239 2.852 1_554 S
Eu234 O250 2.324 . S
Eu234 O254 2.326 . S
Eu234 O256 2.500 1_554 S
Eu234 O257 2.473 1_554 S
C235 O232 1.255 . S
C235 O236 1.247 . S
O236 C235 1.247 . S
C237 O249 1.242 . S
C237 O250 1.258 . S
O238 Eu234 2.292 1_556 S
O238 C240 1.255 1_556 S
C239 Eu234 2.852 1_556 S
C239 C243 1.503 . S
C239 O256 1.273 . S
C239 O257 1.257 . S
C240 O238 1.255 1_554 S
C240 O241 1.247 . S
O241 C240 1.247 . S
C242 O254 1.242 . S
C242 O255 1.258 . S
C243 C239 1.503 . S
C243 C244 1.379 . S
C243 C248 1.392 . S
C244 C243 1.379 . S
C244 C245 1.404 . S
C244 H258 0.929 . S
C245 C244 1.404 . S
C245 C246 1.389 . S
C246 C245 1.389 . S
C246 C247 1.399 . S
C246 H259 0.931 . S
C247 C246 1.399 . S
C247 C248 1.390 . S
C248 C243 1.392 . S
C248 C247 1.390 . S
C248 H260 0.929 . S
O249 Tb233 2.326 . S
O249 C237 1.242 . S
O250 Eu234 2.324 . S
O250 C237 1.258 . S
O251 Tb233 2.500 . S
O251 C253 1.273 . S
O252 Tb233 2.473 . S
O252 C253 1.257 . S
C253 O251 1.273 . S
C253 O252 1.257 . S
O254 Eu234 2.326 . S
O254 C242 1.242 . S
O255 Tb233 2.324 . S
O255 C242 1.258 . S
O256 Eu234 2.500 1_556 S
O256 C239 1.273 . S
O257 Eu234 2.473 1_556 S
O257 C239 1.257 . S
H258 C244 0.929 . S
H259 C246 0.931 . S
H260 C248 0.929 . S
O261 Tb262 2.292 . S
O261 C264 1.255 . S
Tb262 O261 2.292 . S
Tb262 O278 2.326 . S
Tb262 O280 2.500 . S
Tb262 O281 2.473 . S
Tb262 O284 2.324 . S
Eu263 O267 2.292 . S
Eu263 C268 2.852 . S
Eu263 O279 2.324 . S
Eu263 O283 2.326 . S
Eu263 O285 2.500 . S
Eu263 O286 2.473 . S
C264 O261 1.255 . S
C264 O265 1.247 . S
O265 C264 1.247 . S
C266 O278 1.242 . S
C266 O279 1.258 . S
O267 Eu263 2.292 . S
O267 C269 1.255 . S
C268 Eu263 2.852 . S
C268 C272 1.503 . S
C268 O285 1.273 . S
C268 O286 1.257 . S
C269 O267 1.255 . S
C269 O270 1.247 . S
O270 C269 1.247 . S
C271 O283 1.242 . S
C271 O284 1.258 . S
C272 C268 1.503 . S
C272 C273 1.379 . S
C272 C277 1.392 . S
C273 C272 1.379 . S
C273 C274 1.404 . S
C273 H287 0.929 . S
C274 C273 1.404 . S
C274 C275 1.389 . S
C275 C274 1.389 . S
C275 C276 1.399 . S
C275 H288 0.931 . S
C276 C275 1.399 . S
C276 C277 1.390 . S
C277 C272 1.392 . S
C277 C276 1.390 . S
C277 H289 0.929 . S
O278 Tb262 2.326 . S
O278 C266 1.242 . S
O279 Eu263 2.324 . S
O279 C266 1.258 . S
O280 Tb262 2.500 . S
O280 C282 1.273 . S
O281 Tb262 2.473 . S
O281 C282 1.257 . S
C282 O280 1.273 . S
C282 O281 1.257 . S
O283 Eu263 2.326 . S
O283 C271 1.242 . S
O284 Tb262 2.324 . S
O284 C271 1.258 . S
O285 Eu263 2.500 . S
O285 C268 1.273 . S
O286 Eu263 2.473 . S
O286 C268 1.257 . S
H287 C273 0.929 . S
H288 C275 0.931 . S
H289 C277 0.929 . S
O290 Tb291 2.292 . S
O290 C293 1.255 . S
Tb291 O290 2.292 . S
Tb291 O307 2.326 . S
Tb291 O309 2.500 . S
Tb291 O310 2.473 . S
Tb291 O313 2.324 . S
Eu292 O296 2.292 1_556 S
Eu292 C297 2.852 1_556 S
Eu292 O308 2.324 . S
Eu292 O312 2.326 . S
Eu292 O314 2.500 1_556 S
Eu292 O315 2.473 1_556 S
C293 O290 1.255 . S
C293 O294 1.247 . S
O294 C293 1.247 . S
C295 O307 1.242 . S
C295 O308 1.258 . S
O296 Eu292 2.292 1_554 S
O296 C298 1.255 1_554 S
C297 Eu292 2.852 1_554 S
C297 C301 1.503 . S
C297 O314 1.273 . S
C297 O315 1.257 . S
C298 O296 1.255 1_556 S
C298 O299 1.247 . S
O299 C298 1.247 . S
C300 O312 1.242 . S
C300 O313 1.258 . S
C301 C297 1.503 . S
C301 C302 1.379 . S
C301 C306 1.392 . S
C302 C301 1.379 . S
C302 C303 1.404 . S
C302 H316 0.929 . S
C303 C302 1.404 . S
C303 C304 1.389 . S
C304 C303 1.389 . S
C304 C305 1.399 . S
C304 H317 0.931 . S
C305 C304 1.399 . S
C305 C306 1.390 . S
C306 C301 1.392 . S
C306 C305 1.390 . S
C306 H318 0.929 . S
O307 Tb291 2.326 . S
O307 C295 1.242 . S
O308 Eu292 2.324 . S
O308 C295 1.258 . S
O309 Tb291 2.500 . S
O309 C311 1.273 . S
O310 Tb291 2.473 . S
O310 C311 1.257 . S
C311 O309 1.273 . S
C311 O310 1.257 . S
O312 Eu292 2.326 . S
O312 C300 1.242 . S
O313 Tb291 2.324 . S
O313 C300 1.258 . S
O314 Eu292 2.500 1_554 S
O314 C297 1.273 . S
O315 Eu292 2.473 1_554 S
O315 C297 1.257 . S
H316 C302 0.929 . S
H317 C304 0.931 . S
H318 C306 0.929 . S
O319 Tb320 2.292 . S
O319 C322 1.255 . S
Tb320 O319 2.292 . S
Tb320 O336 2.326 . S
Tb320 O338 2.500 . S
Tb320 O339 2.473 . S
Tb320 O342 2.324 . S
Eu321 O325 2.292 . S
Eu321 C326 2.852 . S
Eu321 O337 2.324 . S
Eu321 O341 2.326 . S
Eu321 O343 2.500 . S
Eu321 O344 2.473 . S
C322 O319 1.255 . S
C322 O323 1.247 . S
O323 C322 1.247 . S
C324 O336 1.242 . S
C324 O337 1.258 . S
O325 Eu321 2.292 . S
O325 C327 1.255 . S
C326 Eu321 2.852 . S
C326 C330 1.503 . S
C326 O343 1.273 . S
C326 O344 1.257 . S
C327 O325 1.255 . S
C327 O328 1.247 . S
O328 C327 1.247 . S
C329 O341 1.242 . S
C329 O342 1.258 . S
C330 C326 1.503 . S
C330 C331 1.379 . S
C330 C335 1.392 . S
C331 C330 1.379 . S
C331 C332 1.404 . S
C331 H345 0.929 . S
C332 C331 1.404 . S
C332 C333 1.389 . S
C333 C332 1.389 . S
C333 C334 1.399 . S
C333 H346 0.931 . S
C334 C333 1.399 . S
C334 C335 1.390 . S
C335 C330 1.392 . S
C335 C334 1.390 . S
C335 H347 0.929 . S
O336 Tb320 2.326 . S
O336 C324 1.242 . S
O337 Eu321 2.324 . S
O337 C324 1.258 . S
O338 Tb320 2.500 . S
O338 C340 1.273 . S
O339 Tb320 2.473 . S
O339 C340 1.257 . S
C340 O338 1.273 . S
C340 O339 1.257 . S
O341 Eu321 2.326 . S
O341 C329 1.242 . S
O342 Tb320 2.324 . S
O342 C329 1.258 . S
O343 Eu321 2.500 . S
O343 C326 1.273 . S
O344 Eu321 2.473 . S
O344 C326 1.257 . S
H345 C331 0.929 . S
H346 C333 0.931 . S
H347 C335 0.929 . S
O348 Tb349 2.292 . S
O348 C351 1.255 . S
Tb349 O348 2.292 . S
Tb349 O365 2.326 . S
Tb349 O367 2.500 . S
Tb349 O368 2.473 . S
Tb349 O371 2.324 . S
Eu350 O354 2.292 1_556 S
Eu350 C355 2.852 1_556 S
Eu350 O366 2.324 . S
Eu350 O370 2.326 . S
Eu350 O372 2.500 1_556 S
Eu350 O373 2.473 1_556 S
C351 O348 1.255 . S
C351 O352 1.247 . S
O352 C351 1.247 . S
C353 O365 1.242 . S
C353 O366 1.258 . S
O354 Eu350 2.292 1_554 S
O354 C356 1.255 1_554 S
C355 Eu350 2.852 1_554 S
C355 C359 1.503 . S
C355 O372 1.273 . S
C355 O373 1.257 . S
C356 O354 1.255 1_556 S
C356 O357 1.247 . S
O357 C356 1.247 . S
C358 O370 1.242 . S
C358 O371 1.258 . S
C359 C355 1.503 . S
C359 C360 1.379 . S
C359 C364 1.392 . S
C360 C359 1.379 . S
C360 C361 1.404 . S
C360 H374 0.929 . S
C361 C360 1.404 . S
C361 C362 1.389 . S
C362 C361 1.389 . S
C362 C363 1.399 . S
C362 H375 0.931 . S
C363 C362 1.399 . S
C363 C364 1.390 . S
C364 C359 1.392 . S
C364 C363 1.390 . S
C364 H376 0.929 . S
O365 Tb349 2.326 . S
O365 C353 1.242 . S
O366 Eu350 2.324 . S
O366 C353 1.258 . S
O367 Tb349 2.500 . S
O367 C369 1.273 . S
O368 Tb349 2.473 . S
O368 C369 1.257 . S
C369 O367 1.273 . S
C369 O368 1.257 . S
O370 Eu350 2.326 . S
O370 C358 1.242 . S
O371 Tb349 2.324 . S
O371 C358 1.258 . S
O372 Eu350 2.500 1_554 S
O372 C355 1.273 . S
O373 Eu350 2.473 1_554 S
O373 C355 1.257 . S
H374 C360 0.929 . S
H375 C362 0.931 . S
H376 C364 0.929 . S
O377 Tb378 2.292 . S
O377 C380 1.255 . S
Tb378 O377 2.292 . S
Tb378 O394 2.326 . S
Tb378 O396 2.500 . S
Tb378 O397 2.473 . S
Tb378 O400 2.324 . S
Eu379 O383 2.292 . S
Eu379 C384 2.852 . S
Eu379 O395 2.324 . S
Eu379 O399 2.326 . S
Eu379 O401 2.500 . S
Eu379 O402 2.473 . S
C380 O377 1.255 . S
C380 O381 1.247 . S
O381 C380 1.247 . S
C382 O394 1.242 . S
C382 O395 1.258 . S
O383 Eu379 2.292 . S
O383 C385 1.255 . S
C384 Eu379 2.852 . S
C384 C388 1.503 . S
C384 O401 1.273 . S
C384 O402 1.257 . S
C385 O383 1.255 . S
C385 O386 1.247 . S
O386 C385 1.247 . S
C387 O399 1.242 . S
C387 O400 1.258 . S
C388 C384 1.503 . S
C388 C389 1.379 . S
C388 C393 1.392 . S
C389 C388 1.379 . S
C389 C390 1.404 . S
C389 H403 0.929 . S
C390 C389 1.404 . S
C390 C391 1.389 . S
C391 C390 1.389 . S
C391 C392 1.399 . S
C391 H404 0.931 . S
C392 C391 1.399 . S
C392 C393 1.390 . S
C393 C388 1.392 . S
C393 C392 1.390 . S
C393 H405 0.929 . S
O394 Tb378 2.326 . S
O394 C382 1.242 . S
O395 Eu379 2.324 . S
O395 C382 1.258 . S
O396 Tb378 2.500 . S
O396 C398 1.273 . S
O397 Tb378 2.473 . S
O397 C398 1.257 . S
C398 O396 1.273 . S
C398 O397 1.257 . S
O399 Eu379 2.326 . S
O399 C387 1.242 . S
O400 Tb378 2.324 . S
O400 C387 1.258 . S
O401 Eu379 2.500 . S
O401 C384 1.273 . S
O402 Eu379 2.473 . S
O402 C384 1.257 . S
H403 C389 0.929 . S
H404 C391 0.931 . S
H405 C393 0.929 . S
O406 Tb407 2.292 . S
O406 C409 1.255 . S
Tb407 O406 2.292 . S
Tb407 O423 2.326 . S
Tb407 O425 2.500 . S
Tb407 O426 2.473 . S
Tb407 O429 2.324 . S
Eu408 O412 2.292 1_554 S
Eu408 C413 2.852 1_554 S
Eu408 O424 2.324 . S
Eu408 O428 2.326 . S
Eu408 O430 2.500 1_554 S
Eu408 O431 2.473 1_554 S
C409 O406 1.255 . S
C409 O410 1.247 . S
O410 C409 1.247 . S
C411 O423 1.242 . S
C411 O424 1.258 . S
O412 Eu408 2.292 1_556 S
O412 C414 1.255 1_556 S
C413 Eu408 2.852 1_556 S
C413 C417 1.503 . S
C413 O430 1.273 . S
C413 O431 1.257 . S
C414 O412 1.255 1_554 S
C414 O415 1.247 . S
O415 C414 1.247 . S
C416 O428 1.242 . S
C416 O429 1.258 . S
C417 C413 1.503 . S
C417 C418 1.379 . S
C417 C422 1.392 . S
C418 C417 1.379 . S
C418 C419 1.404 . S
C418 H432 0.929 . S
C419 C418 1.404 . S
C419 C420 1.389 . S
C420 C419 1.389 . S
C420 C421 1.399 . S
C420 H433 0.931 . S
C421 C420 1.399 . S
C421 C422 1.390 . S
C422 C417 1.392 . S
C422 C421 1.390 . S
C422 H434 0.929 . S
O423 Tb407 2.326 . S
O423 C411 1.242 . S
O424 Eu408 2.324 . S
O424 C411 1.258 . S
O425 Tb407 2.500 . S
O425 C427 1.273 . S
O426 Tb407 2.473 . S
O426 C427 1.257 . S
C427 O425 1.273 . S
C427 O426 1.257 . S
O428 Eu408 2.326 . S
O428 C416 1.242 . S
O429 Tb407 2.324 . S
O429 C416 1.258 . S
O430 Eu408 2.500 1_556 S
O430 C413 1.273 . S
O431 Eu408 2.473 1_556 S
O431 C413 1.257 . S
H432 C418 0.929 . S
H433 C420 0.931 . S
H434 C422 0.929 . S
O435 Tb436 2.292 . S
O435 C438 1.255 . S
Tb436 O435 2.292 . S
Tb436 O452 2.326 . S
Tb436 O454 2.500 . S
Tb436 O455 2.473 . S
Tb436 O458 2.324 . S
Eu437 O441 2.292 . S
Eu437 C442 2.852 . S
Eu437 O453 2.324 . S
Eu437 O457 2.326 . S
Eu437 O459 2.500 . S
Eu437 O460 2.473 . S
C438 O435 1.255 . S
C438 O439 1.247 . S
O439 C438 1.247 . S
C440 O452 1.242 . S
C440 O453 1.258 . S
O441 Eu437 2.292 . S
O441 C443 1.255 . S
C442 Eu437 2.852 . S
C442 C446 1.503 . S
C442 O459 1.273 . S
C442 O460 1.257 . S
C443 O441 1.255 . S
C443 O444 1.247 . S
O444 C443 1.247 . S
C445 O457 1.242 . S
C445 O458 1.258 . S
C446 C442 1.503 . S
C446 C447 1.379 . S
C446 C451 1.392 . S
C447 C446 1.379 . S
C447 C448 1.404 . S
C447 H461 0.929 . S
C448 C447 1.404 . S
C448 C449 1.389 . S
C449 C448 1.389 . S
C449 C450 1.399 . S
C449 H462 0.931 . S
C450 C449 1.399 . S
C450 C451 1.390 . S
C451 C446 1.392 . S
C451 C450 1.390 . S
C451 H463 0.929 . S
O452 Tb436 2.326 . S
O452 C440 1.242 . S
O453 Eu437 2.324 . S
O453 C440 1.258 . S
O454 Tb436 2.500 . S
O454 C456 1.273 . S
O455 Tb436 2.473 . S
O455 C456 1.257 . S
C456 O454 1.273 . S
C456 O455 1.257 . S
O457 Eu437 2.326 . S
O457 C445 1.242 . S
O458 Tb436 2.324 . S
O458 C445 1.258 . S
O459 Eu437 2.500 . S
O459 C442 1.273 . S
O460 Eu437 2.473 . S
O460 C442 1.257 . S
H461 C447 0.929 . S
H462 C449 0.931 . S
H463 C451 0.929 . S
H464 C472 0.950 . S
H465 C477 0.950 . S
H466 C474 0.950 . S
H467 C476 0.950 . S
H468 C478 0.950 . S
H469 C480 0.950 . S
H470 C482 0.950 . S
H471 C483 0.950 . S
C472 H464 0.950 . S
C472 C473 1.386 . S
C472 C474 1.391 . S
C473 C472 1.386 . S
C473 C477 1.393 . S
C474 H466 0.950 . S
C474 C472 1.391 . S
C474 C475 1.400 . S
C475 C474 1.400 . S
C475 C476 1.398 . S
C475 C481 1.491 1_655 S
C476 H467 0.950 . S
C476 C475 1.398 . S
C476 C477 1.391 . S
C477 H465 0.950 . S
C477 C473 1.393 . S
C477 C476 1.391 . S
C478 H468 0.950 . S
C478 C479 1.386 . S
C478 C480 1.391 . S
C479 C478 1.386 . S
C479 C483 1.393 . S
C480 H469 0.950 . S
C480 C478 1.391 . S
C480 C481 1.400 . S
C481 C475 1.491 1_455 S
C481 C480 1.400 . S
C481 C482 1.398 . S
C482 H470 0.950 . S
C482 C481 1.398 . S
C482 C483 1.391 . S
C483 H471 0.950 . S
C483 C479 1.393 . S
C483 C482 1.391 . S
H484 C492 0.950 . S
H485 C497 0.950 . S
H486 C494 0.950 . S
H487 C496 0.950 . S
H488 C498 0.950 . S
H489 C500 0.950 . S
H490 C502 0.950 . S
H491 C503 0.950 . S
C492 H484 0.950 . S
C492 C493 1.386 . S
C492 C494 1.391 . S
C493 C492 1.386 . S
C493 C497 1.393 . S
C494 H486 0.950 . S
C494 C492 1.391 . S
C494 C495 1.400 . S
C495 C494 1.400 . S
C495 C496 1.398 . S
C495 C501 1.491 . S
C496 H487 0.950 . S
C496 C495 1.398 . S
C496 C497 1.391 . S
C497 H485 0.950 . S
C497 C493 1.393 . S
C497 C496 1.391 . S
C498 H488 0.950 . S
C498 C499 1.386 . S
C498 C500 1.391 . S
C499 C498 1.386 . S
C499 C503 1.393 . S
C500 H489 0.950 . S
C500 C498 1.391 . S
C500 C501 1.400 . S
C501 C495 1.491 . S
C501 C500 1.400 . S
C501 C502 1.398 . S
C502 H490 0.950 . S
C502 C501 1.398 . S
C502 C503 1.391 . S
C503 H491 0.950 . S
C503 C499 1.393 . S
C503 C502 1.391 . S
H504 C512 0.950 . S
H505 C517 0.950 . S
H506 C514 0.950 . S
H507 C516 0.950 . S
H508 C518 0.950 . S
H509 C520 0.950 . S
H510 C522 0.950 . S
H511 C523 0.950 . S
C512 H504 0.950 . S
C512 C513 1.386 . S
C512 C514 1.391 . S
C513 C512 1.386 . S
C513 C517 1.393 1_556 S
C514 H506 0.950 . S
C514 C512 1.391 . S
C514 C515 1.400 . S
C515 C514 1.400 . S
C515 C516 1.398 1_556 S
C515 C521 1.491 1_655 S
C516 H507 0.950 . S
C516 C515 1.398 1_554 S
C516 C517 1.391 . S
C517 H505 0.950 . S
C517 C513 1.393 1_554 S
C517 C516 1.391 . S
C518 H508 0.950 . S
C518 C519 1.386 1_554 S
C518 C520 1.391 . S
C519 C518 1.386 1_556 S
C519 C523 1.393 . S
C520 H509 0.950 . S
C520 C518 1.391 . S
C520 C521 1.400 1_554 S
C521 C515 1.491 1_455 S
C521 C520 1.400 1_556 S
C521 C522 1.398 . S
C522 H510 0.950 . S
C522 C521 1.398 . S
C522 C523 1.391 . S
C523 H511 0.950 . S
C523 C519 1.393 . S
C523 C522 1.391 . S
H524 C532 0.950 . S
H525 C537 0.950 . S
H526 C534 0.950 . S
H527 C536 0.950 . S
H528 C538 0.950 . S
H529 C540 0.950 . S
H530 C542 0.950 . S
H531 C543 0.950 . S
C532 H524 0.950 . S
C532 C533 1.386 . S
C532 C534 1.391 . S
C533 C532 1.386 . S
C533 C537 1.393 . S
C534 H526 0.950 . S
C534 C532 1.391 . S
C534 C535 1.400 . S
C535 C534 1.400 . S
C535 C536 1.398 . S
C535 C541 1.491 . S
C536 H527 0.950 . S
C536 C535 1.398 . S
C536 C537 1.391 . S
C537 H525 0.950 . S
C537 C533 1.393 . S
C537 C536 1.391 . S
C538 H528 0.950 . S
C538 C539 1.386 . S
C538 C540 1.391 . S
C539 C538 1.386 . S
C539 C543 1.393 . S
C540 H529 0.950 . S
C540 C538 1.391 . S
C540 C541 1.400 . S
C541 C535 1.491 . S
C541 C540 1.400 . S
C541 C542 1.398 . S
C542 H530 0.950 . S
C542 C541 1.398 . S
C542 C543 1.391 . S
C543 H531 0.950 . S
C543 C539 1.393 . S
C543 C542 1.391 . S
H544 C552 0.950 . S
H545 C557 0.950 . S
H546 C554 0.950 . S
H547 C556 0.950 . S
H548 C558 0.950 . S
H549 C560 0.950 . S
H550 C562 0.950 . S
H551 C563 0.950 . S
C552 H544 0.950 . S
C552 C553 1.386 1_556 S
C552 C554 1.391 . S
C553 C552 1.386 1_554 S
C553 C557 1.393 . S
C554 H546 0.950 . S
C554 C552 1.391 . S
C554 C555 1.400 1_556 S
C555 C554 1.400 1_554 S
C555 C556 1.398 . S
C555 C561 1.491 . S
C556 H547 0.950 . S
C556 C555 1.398 . S
C556 C557 1.391 . S
C557 H545 0.950 . S
C557 C553 1.393 . S
C557 C556 1.391 . S
C558 H548 0.950 . S
C558 C559 1.386 . S
C558 C560 1.391 . S
C559 C558 1.386 . S
C559 C563 1.393 1_554 S
C560 H549 0.950 . S
C560 C558 1.391 . S
C560 C561 1.400 . S
C561 C555 1.491 . S
C561 C560 1.400 . S
C561 C562 1.398 1_554 S
C562 H550 0.950 . S
C562 C561 1.398 1_556 S
C562 C563 1.391 . S
C563 H551 0.950 . S
C563 C559 1.393 1_556 S
C563 C562 1.391 . S
H564 C572 0.950 . S
H565 C577 0.950 . S
H566 C574 0.950 . S
H567 C576 0.950 . S
H568 C578 0.950 . S
H569 C580 0.950 . S
H570 C582 0.950 . S
H571 C583 0.950 . S
C572 H564 0.950 . S
C572 C573 1.386 . S
C572 C574 1.391 . S
C573 C572 1.386 . S
C573 C577 1.393 . S
C574 H566 0.950 . S
C574 C572 1.391 . S
C574 C575 1.400 . S
C575 C574 1.400 . S
C575 C576 1.398 . S
C575 C581 1.491 1_455 S
C576 H567 0.950 . S
C576 C575 1.398 . S
C576 C577 1.391 . S
C577 H565 0.950 . S
C577 C573 1.393 . S
C577 C576 1.391 . S
C578 H568 0.950 . S
C578 C579 1.386 . S
C578 C580 1.391 . S
C579 C578 1.386 . S
C579 C583 1.393 . S
C580 H569 0.950 . S
C580 C578 1.391 . S
C580 C581 1.400 . S
C581 C575 1.491 1_655 S
C581 C580 1.400 . S
C581 C582 1.398 . S
C582 H570 0.950 . S
C582 C581 1.398 . S
C582 C583 1.391 . S
C583 H571 0.950 . S
C583 C579 1.393 . S
C583 C582 1.391 . S
H584 C592 0.950 . S
H585 C597 0.950 . S
H586 C594 0.950 . S
H587 C596 0.950 . S
H588 C598 0.950 . S
H589 C600 0.950 . S
H590 C602 0.950 . S
H591 C603 0.950 . S
C592 H584 0.950 . S
C592 C593 1.386 . S
C592 C594 1.391 . S
C593 C592 1.386 . S
C593 C597 1.393 . S
C594 H586 0.950 . S
C594 C592 1.391 . S
C594 C595 1.400 . S
C595 C594 1.400 . S
C595 C596 1.398 . S
C595 C601 1.491 . S
C596 H587 0.950 . S
C596 C595 1.398 . S
C596 C597 1.391 . S
C597 H585 0.950 . S
C597 C593 1.393 . S
C597 C596 1.391 . S
C598 H588 0.950 . S
C598 C599 1.386 . S
C598 C600 1.391 . S
C599 C598 1.386 . S
C599 C603 1.393 . S
C600 H589 0.950 . S
C600 C598 1.391 . S
C600 C601 1.400 . S
C601 C595 1.491 . S
C601 C600 1.400 . S
C601 C602 1.398 . S
C602 H590 0.950 . S
C602 C601 1.398 . S
C602 C603 1.391 . S
C603 H591 0.950 . S
C603 C599 1.393 . S
C603 C602 1.391 . S
H604 C612 0.950 . S
H605 C617 0.950 . S
H606 C614 0.950 . S
H607 C616 0.950 . S
H608 C618 0.950 . S
H609 C620 0.950 . S
H610 C622 0.950 . S
H611 C623 0.950 . S
C612 H604 0.950 . S
C612 C613 1.386 . S
C612 C614 1.391 . S
C613 C612 1.386 . S
C613 C617 1.393 . S
C614 H606 0.950 . S
C614 C612 1.391 . S
C614 C615 1.400 . S
C615 C614 1.400 . S
C615 C616 1.398 . S
C615 C621 1.491 1_455 S
C616 H607 0.950 . S
C616 C615 1.398 . S
C616 C617 1.391 . S
C617 H605 0.950 . S
C617 C613 1.393 . S
C617 C616 1.391 . S
C618 H608 0.950 . S
C618 C619 1.386 . S
C618 C620 1.391 . S
C619 C618 1.386 . S
C619 C623 1.393 . S
C620 H609 0.950 . S
C620 C618 1.391 . S
C620 C621 1.400 . S
C621 C615 1.491 1_655 S
C621 C620 1.400 . S
C621 C622 1.398 . S
C622 H610 0.950 . S
C622 C621 1.398 . S
C622 C623 1.391 . S
C623 H611 0.950 . S
C623 C619 1.393 . S
C623 C622 1.391 . S
H624 C632 0.950 . S
H625 C637 0.950 . S
H626 C634 0.950 . S
H627 C636 0.950 . S
H628 C638 0.950 . S
H629 C640 0.950 . S
H630 C642 0.950 . S
H631 C643 0.950 . S
C632 H624 0.950 . S
C632 C633 1.386 . S
C632 C634 1.391 . S
C633 C632 1.386 . S
C633 C637 1.393 . S
C634 H626 0.950 . S
C634 C632 1.391 . S
C634 C635 1.400 . S
C635 C634 1.400 . S
C635 C636 1.398 . S
C635 C641 1.491 . S
C636 H627 0.950 . S
C636 C635 1.398 . S
C636 C637 1.391 . S
C637 H625 0.950 . S
C637 C633 1.393 . S
C637 C636 1.391 . S
C638 H628 0.950 . S
C638 C639 1.386 . S
C638 C640 1.391 . S
C639 C638 1.386 . S
C639 C643 1.393 . S
C640 H629 0.950 . S
C640 C638 1.391 . S
C640 C641 1.400 . S
C641 C635 1.491 . S
C641 C640 1.400 . S
C641 C642 1.398 . S
C642 H630 0.950 . S
C642 C641 1.398 . S
C642 C643 1.391 . S
C643 H631 0.950 . S
C643 C639 1.393 . S
C643 C642 1.391 . S
H644 C652 0.950 . S
H645 C657 0.950 . S
H646 C654 0.950 . S
H647 C656 0.950 . S
H648 C658 0.950 . S
H649 C660 0.950 . S
H650 C662 0.950 . S
H651 C663 0.950 . S
C652 H644 0.950 . S
C652 C653 1.386 . S
C652 C654 1.391 . S
C653 C652 1.386 . S
C653 C657 1.393 . S
C654 H646 0.950 . S
C654 C652 1.391 . S
C654 C655 1.400 . S
C655 C654 1.400 . S
C655 C656 1.398 . S
C655 C661 1.491 . S
C656 H647 0.950 . S
C656 C655 1.398 . S
C656 C657 1.391 . S
C657 H645 0.950 . S
C657 C653 1.393 . S
C657 C656 1.391 . S
C658 H648 0.950 . S
C658 C659 1.386 . S
C658 C660 1.391 . S
C659 C658 1.386 . S
C659 C663 1.393 . S
C660 H649 0.950 . S
C660 C658 1.391 . S
C660 C661 1.400 . S
C661 C655 1.491 . S
C661 C660 1.400 . S
C661 C662 1.398 . S
C662 H650 0.950 . S
C662 C661 1.398 . S
C662 C663 1.391 . S
C663 H651 0.950 . S
C663 C659 1.393 . S
C663 C662 1.391 . S
H664 C672 0.950 . S
H665 C677 0.950 . S
H666 C674 0.950 . S
H667 C676 0.950 . S
H668 C678 0.950 . S
H669 C680 0.950 . S
H670 C682 0.950 . S
H671 C683 0.950 . S
C672 H664 0.950 . S
C672 C673 1.386 . S
C672 C674 1.391 . S
C673 C672 1.386 . S
C673 C677 1.393 . S
C674 H666 0.950 . S
C674 C672 1.391 . S
C674 C675 1.400 . S
C675 C674 1.400 . S
C675 C676 1.398 . S
C675 C681 1.491 . S
C676 H667 0.950 . S
C676 C675 1.398 . S
C676 C677 1.391 . S
C677 H665 0.950 . S
C677 C673 1.393 . S
C677 C676 1.391 . S
C678 H668 0.950 . S
C678 C679 1.386 . S
C678 C680 1.391 . S
C679 C678 1.386 . S
C679 C683 1.393 . S
C680 H669 0.950 . S
C680 C678 1.391 . S
C680 C681 1.400 . S
C681 C675 1.491 . S
C681 C680 1.400 . S
C681 C682 1.398 . S
C682 H670 0.950 . S
C682 C681 1.398 . S
C682 C683 1.391 . S
C683 H671 0.950 . S
C683 C679 1.393 . S
C683 C682 1.391 . S
H684 C692 0.950 . S
H685 C697 0.950 . S
H686 C694 0.950 . S
H687 C696 0.950 . S
H688 C698 0.950 . S
H689 C700 0.950 . S
H690 C702 0.950 . S
H691 C703 0.950 . S
C692 H684 0.950 . S
C692 C693 1.386 . S
C692 C694 1.391 . S
C693 C692 1.386 . S
C693 C697 1.393 . S
C694 H686 0.950 . S
C694 C692 1.391 . S
C694 C695 1.400 . S
C695 C694 1.400 . S
C695 C696 1.398 . S
C695 C701 1.491 . S
C696 H687 0.950 . S
C696 C695 1.398 . S
C696 C697 1.391 . S
C697 H685 0.950 . S
C697 C693 1.393 . S
C697 C696 1.391 . S
C698 H688 0.950 . S
C698 C699 1.386 . S
C698 C700 1.391 . S
C699 C698 1.386 . S
C699 C703 1.393 . S
C700 H689 0.950 . S
C700 C698 1.391 . S
C700 C701 1.400 . S
C701 C695 1.491 . S
C701 C700 1.400 . S
C701 C702 1.398 . S
C702 H690 0.950 . S
C702 C701 1.398 . S
C702 C703 1.391 . S
C703 H691 0.950 . S
C703 C699 1.393 . S
C703 C702 1.391 . S
H704 C712 0.950 . S
H705 C717 0.950 . S
H706 C714 0.950 . S
H707 C716 0.950 . S
H708 C718 0.950 . S
H709 C720 0.950 . S
H710 C722 0.950 . S
H711 C723 0.950 . S
C712 H704 0.950 . S
C712 C713 1.386 . S
C712 C714 1.391 . S
C713 C712 1.386 . S
C713 C717 1.393 . S
C714 H706 0.950 . S
C714 C712 1.391 . S
C714 C715 1.400 . S
C715 C714 1.400 . S
C715 C716 1.398 . S
C715 C721 1.491 . S
C716 H707 0.950 . S
C716 C715 1.398 . S
C716 C717 1.391 . S
C717 H705 0.950 . S
C717 C713 1.393 . S
C717 C716 1.391 . S
C718 H708 0.950 . S
C718 C719 1.386 . S
C718 C720 1.391 . S
C719 C718 1.386 . S
C719 C723 1.393 . S
C720 H709 0.950 . S
C720 C718 1.391 . S
C720 C721 1.400 . S
C721 C715 1.491 . S
C721 C720 1.400 . S
C721 C722 1.398 . S
C722 H710 0.950 . S
C722 C721 1.398 . S
C722 C723 1.391 . S
C723 H711 0.950 . S
C723 C719 1.393 . S
C723 C722 1.391 . S
H724 C732 0.950 . S
H725 C737 0.950 . S
H726 C734 0.950 . S
H727 C736 0.950 . S
H728 C738 0.950 . S
H729 C740 0.950 . S
H730 C742 0.950 . S
H731 C743 0.950 . S
C732 H724 0.950 . S
C732 C733 1.386 . S
C732 C734 1.391 . S
C733 C732 1.386 . S
C733 C737 1.393 . S
C734 H726 0.950 . S
C734 C732 1.391 . S
C734 C735 1.400 . S
C735 C734 1.400 . S
C735 C736 1.398 . S
C735 C741 1.491 . S
C736 H727 0.950 . S
C736 C735 1.398 . S
C736 C737 1.391 . S
C737 H725 0.950 . S
C737 C733 1.393 . S
C737 C736 1.391 . S
C738 H728 0.950 . S
C738 C739 1.386 . S
C738 C740 1.391 . S
C739 C738 1.386 . S
C739 C743 1.393 . S
C740 H729 0.950 . S
C740 C738 1.391 . S
C740 C741 1.400 . S
C741 C735 1.491 . S
C741 C740 1.400 . S
C741 C742 1.398 . S
C742 H730 0.950 . S
C742 C741 1.398 . S
C742 C743 1.391 . S
C743 H731 0.950 . S
C743 C739 1.393 . S
C743 C742 1.391 . S
H744 C752 0.950 . S
H745 C757 0.950 . S
H746 C754 0.950 . S
H747 C756 0.950 . S
H748 C758 0.950 . S
H749 C760 0.950 . S
H750 C762 0.950 . S
H751 C763 0.950 . S
C752 H744 0.950 . S
C752 C753 1.386 . S
C752 C754 1.391 . S
C753 C752 1.386 . S
C753 C757 1.393 . S
C754 H746 0.950 . S
C754 C752 1.391 . S
C754 C755 1.400 . S
C755 C754 1.400 . S
C755 C756 1.398 . S
C755 C761 1.491 . S
C756 H747 0.950 . S
C756 C755 1.398 . S
C756 C757 1.391 . S
C757 H745 0.950 . S
C757 C753 1.393 . S
C757 C756 1.391 . S
C758 H748 0.950 . S
C758 C759 1.386 . S
C758 C760 1.391 . S
C759 C758 1.386 . S
C759 C763 1.393 . S
C760 H749 0.950 . S
C760 C758 1.391 . S
C760 C761 1.400 . S
C761 C755 1.491 . S
C761 C760 1.400 . S
C761 C762 1.398 . S
C762 H750 0.950 . S
C762 C761 1.398 . S
C762 C763 1.391 . S
C763 H751 0.950 . S
C763 C759 1.393 . S
C763 C762 1.391 . S
H764 C772 0.950 . S
H765 C777 0.950 . S
H766 C774 0.950 . S
H767 C776 0.950 . S
H768 C778 0.950 . S
H769 C780 0.950 . S
H770 C782 0.950 . S
H771 C783 0.950 . S
C772 H764 0.950 . S
C772 C773 1.386 . S
C772 C774 1.391 . S
C773 C772 1.386 . S
C773 C777 1.393 . S
C774 H766 0.950 . S
C774 C772 1.391 . S
C774 C775 1.400 . S
C775 C774 1.400 . S
C775 C776 1.398 . S
C775 C781 1.491 . S
C776 H767 0.950 . S
C776 C775 1.398 . S
C776 C777 1.391 . S
C777 H765 0.950 . S
C777 C773 1.393 . S
C777 C776 1.391 . S
C778 H768 0.950 . S
C778 C779 1.386 . S
C778 C780 1.391 . S
C779 C778 1.386 . S
C779 C783 1.393 . S
C780 H769 0.950 . S
C780 C778 1.391 . S
C780 C781 1.400 . S
C781 C775 1.491 . S
C781 C780 1.400 . S
C781 C782 1.398 . S
C782 H770 0.950 . S
C782 C781 1.398 . S
C782 C783 1.391 . S
C783 H771 0.950 . S
C783 C779 1.393 . S
C783 C782 1.391 . S
H784 C792 0.950 . S
H785 C797 0.950 . S
H786 C794 0.950 . S
H787 C796 0.950 . S
H788 C798 0.950 . S
H789 C800 0.950 . S
H790 C802 0.950 . S
H791 C803 0.950 . S
C792 H784 0.950 . S
C792 C793 1.386 . S
C792 C794 1.391 . S
C793 C792 1.386 . S
C793 C797 1.393 . S
C794 H786 0.950 . S
C794 C792 1.391 . S
C794 C795 1.400 . S
C795 C794 1.400 . S
C795 C796 1.398 . S
C795 C801 1.491 . S
C796 H787 0.950 . S
C796 C795 1.398 . S
C796 C797 1.391 . S
C797 H785 0.950 . S
C797 C793 1.393 . S
C797 C796 1.391 . S
C798 H788 0.950 . S
C798 C799 1.386 . S
C798 C800 1.391 . S
C799 C798 1.386 . S
C799 C803 1.393 . S
C800 H789 0.950 . S
C800 C798 1.391 . S
C800 C801 1.400 . S
C801 C795 1.491 . S
C801 C800 1.400 . S
C801 C802 1.398 . S
C802 H790 0.950 . S
C802 C801 1.398 . S
C802 C803 1.391 . S
C803 H791 0.950 . S
C803 C799 1.393 . S
C803 C802 1.391 . S
H804 C812 0.950 . S
H805 C817 0.950 . S
H806 C814 0.950 . S
H807 C816 0.950 . S
H808 C818 0.950 . S
H809 C820 0.950 . S
H810 C822 0.950 . S
H811 C823 0.950 . S
C812 H804 0.950 . S
C812 C813 1.386 . S
C812 C814 1.391 . S
C813 C812 1.386 . S
C813 C817 1.393 . S
C814 H806 0.950 . S
C814 C812 1.391 . S
C814 C815 1.400 . S
C815 C814 1.400 . S
C815 C816 1.398 . S
C815 C821 1.491 . S
C816 H807 0.950 . S
C816 C815 1.398 . S
C816 C817 1.391 . S
C817 H805 0.950 . S
C817 C813 1.393 . S
C817 C816 1.391 . S
C818 H808 0.950 . S
C818 C819 1.386 . S
C818 C820 1.391 . S
C819 C818 1.386 . S
C819 C823 1.393 . S
C820 H809 0.950 . S
C820 C818 1.391 . S
C820 C821 1.400 . S
C821 C815 1.491 . S
C821 C820 1.400 . S
C821 C822 1.398 . S
C822 H810 0.950 . S
C822 C821 1.398 . S
C822 C823 1.391 . S
C823 H811 0.950 . S
C823 C819 1.393 . S
C823 C822 1.391 . S
H824 C832 0.950 . S
H825 C837 0.950 . S
H826 C834 0.950 . S
H827 C836 0.950 . S
H828 C838 0.950 . S
H829 C840 0.950 . S
H830 C842 0.950 . S
H831 C843 0.950 . S
C832 H824 0.950 . S
C832 C833 1.386 . S
C832 C834 1.391 . S
C833 C832 1.386 . S
C833 C837 1.393 . S
C834 H826 0.950 . S
C834 C832 1.391 . S
C834 C835 1.400 . S
C835 C834 1.400 . S
C835 C836 1.398 . S
C835 C841 1.491 . S
C836 H827 0.950 . S
C836 C835 1.398 . S
C836 C837 1.391 . S
C837 H825 0.950 . S
C837 C833 1.393 . S
C837 C836 1.391 . S
C838 H828 0.950 . S
C838 C839 1.386 . S
C838 C840 1.391 . S
C839 C838 1.386 . S
C839 C843 1.393 . S
C840 H829 0.950 . S
C840 C838 1.391 . S
C840 C841 1.400 . S
C841 C835 1.491 . S
C841 C840 1.400 . S
C841 C842 1.398 . S
C842 H830 0.950 . S
C842 C841 1.398 . S
C842 C843 1.391 . S
C843 H831 0.950 . S
C843 C839 1.393 . S
C843 C842 1.391 . S
H844 C852 0.950 . S
H845 C857 0.950 . S
H846 C854 0.950 . S
H847 C856 0.950 . S
H848 C858 0.950 . S
H849 C860 0.950 . S
H850 C862 0.950 . S
H851 C863 0.950 . S
C852 H844 0.950 . S
C852 C853 1.386 . S
C852 C854 1.391 . S
C853 C852 1.386 . S
C853 C857 1.393 . S
C854 H846 0.950 . S
C854 C852 1.391 . S
C854 C855 1.400 . S
C855 C854 1.400 . S
C855 C856 1.398 . S
C855 C861 1.491 . S
C856 H847 0.950 . S
C856 C855 1.398 . S
C856 C857 1.391 . S
C857 H845 0.950 . S
C857 C853 1.393 . S
C857 C856 1.391 . S
C858 H848 0.950 . S
C858 C859 1.386 . S
C858 C860 1.391 . S
C859 C858 1.386 . S
C859 C863 1.393 . S
C860 H849 0.950 . S
C860 C858 1.391 . S
C860 C861 1.400 . S
C861 C855 1.491 . S
C861 C860 1.400 . S
C861 C862 1.398 . S
C862 H850 0.950 . S
C862 C861 1.398 . S
C862 C863 1.391 . S
C863 H851 0.950 . S
C863 C859 1.393 . S
C863 C862 1.391 . S
H864 C872 0.950 . S
H865 C877 0.950 . S
H866 C874 0.950 . S
H867 C876 0.950 . S
H868 C878 0.950 . S
H869 C880 0.950 . S
H870 C882 0.950 . S
H871 C883 0.950 . S
C872 H864 0.950 . S
C872 C873 1.386 . S
C872 C874 1.391 . S
C873 C872 1.386 . S
C873 C877 1.393 . S
C874 H866 0.950 . S
C874 C872 1.391 . S
C874 C875 1.400 . S
C875 C874 1.400 . S
C875 C876 1.398 . S
C875 C881 1.491 . S
C876 H867 0.950 . S
C876 C875 1.398 . S
C876 C877 1.391 . S
C877 H865 0.950 . S
C877 C873 1.393 . S
C877 C876 1.391 . S
C878 H868 0.950 . S
C878 C879 1.386 . S
C878 C880 1.391 . S
C879 C878 1.386 . S
C879 C883 1.393 . S
C880 H869 0.950 . S
C880 C878 1.391 . S
C880 C881 1.400 . S
C881 C875 1.491 . S
C881 C880 1.400 . S
C881 C882 1.398 . S
C882 H870 0.950 . S
C882 C881 1.398 . S
C882 C883 1.391 . S
C883 H871 0.950 . S
C883 C879 1.393 . S
C883 C882 1.391 . S
H884 C892 0.950 . S
H885 C897 0.950 . S
H886 C894 0.950 . S
H887 C896 0.950 . S
H888 C898 0.950 . S
H889 C900 0.950 . S
H890 C902 0.950 . S
H891 C903 0.950 . S
C892 H884 0.950 . S
C892 C893 1.386 . S
C892 C894 1.391 . S
C893 C892 1.386 . S
C893 C897 1.393 . S
C894 H886 0.950 . S
C894 C892 1.391 . S
C894 C895 1.400 . S
C895 C894 1.400 . S
C895 C896 1.398 . S
C895 C901 1.491 . S
C896 H887 0.950 . S
C896 C895 1.398 . S
C896 C897 1.391 . S
C897 H885 0.950 . S
C897 C893 1.393 . S
C897 C896 1.391 . S
C898 H888 0.950 . S
C898 C899 1.386 . S
C898 C900 1.391 . S
C899 C898 1.386 . S
C899 C903 1.393 . S
C900 H889 0.950 . S
C900 C898 1.391 . S
C900 C901 1.400 . S
C901 C895 1.491 . S
C901 C900 1.400 . S
C901 C902 1.398 . S
C902 H890 0.950 . S
C902 C901 1.398 . S
C902 C903 1.391 . S
C903 H891 0.950 . S
C903 C899 1.393 . S
C903 C902 1.391 . S
H904 C912 0.950 . S
H905 C917 0.950 . S
H906 C914 0.950 . S
H907 C916 0.950 . S
H908 C918 0.950 . S
H909 C920 0.950 . S
H910 C922 0.950 . S
H911 C923 0.950 . S
C912 H904 0.950 . S
C912 C913 1.386 . S
C912 C914 1.391 . S
C913 C912 1.386 . S
C913 C917 1.393 . S
C914 H906 0.950 . S
C914 C912 1.391 . S
C914 C915 1.400 . S
C915 C914 1.400 . S
C915 C916 1.398 . S
C915 C921 1.491 . S
C916 H907 0.950 . S
C916 C915 1.398 . S
C916 C917 1.391 . S
C917 H905 0.950 . S
C917 C913 1.393 . S
C917 C916 1.391 . S
C918 H908 0.950 . S
C918 C919 1.386 . S
C918 C920 1.391 . S
C919 C918 1.386 . S
C919 C923 1.393 . S
C920 H909 0.950 . S
C920 C918 1.391 . S
C920 C921 1.400 . S
C921 C915 1.491 . S
C921 C920 1.400 . S
C921 C922 1.398 . S
C922 H910 0.950 . S
C922 C921 1.398 . S
C922 C923 1.391 . S
C923 H911 0.950 . S
C923 C919 1.393 . S
C923 C922 1.391 . S
H924 C932 0.950 . S
H925 C937 0.950 . S
H926 C934 0.950 . S
H927 C936 0.950 . S
H928 C938 0.950 . S
H929 C940 0.950 . S
H930 C942 0.950 . S
H931 C943 0.950 . S
C932 H924 0.950 . S
C932 C933 1.386 . S
C932 C934 1.391 . S
C933 C932 1.386 . S
C933 C937 1.393 . S
C934 H926 0.950 . S
C934 C932 1.391 . S
C934 C935 1.400 . S
C935 C934 1.400 . S
C935 C936 1.398 . S
C935 C941 1.491 . S
C936 H927 0.950 . S
C936 C935 1.398 . S
C936 C937 1.391 . S
C937 H925 0.950 . S
C937 C933 1.393 . S
C937 C936 1.391 . S
C938 H928 0.950 . S
C938 C939 1.386 . S
C938 C940 1.391 . S
C939 C938 1.386 . S
C939 C943 1.393 . S
C940 H929 0.950 . S
C940 C938 1.391 . S
C940 C941 1.400 . S
C941 C935 1.491 . S
C941 C940 1.400 . S
C941 C942 1.398 . S
C942 H930 0.950 . S
C942 C941 1.398 . S
C942 C943 1.391 . S
C943 H931 0.950 . S
C943 C939 1.393 . S
C943 C942 1.391 . S
H944 C952 0.950 . S
H945 C957 0.950 . S
H946 C954 0.950 . S
H947 C956 0.950 . S
H948 C958 0.950 . S
H949 C960 0.950 . S
H950 C962 0.950 . S
H951 C963 0.950 . S
C952 H944 0.950 . S
C952 C953 1.386 1_556 S
C952 C954 1.391 . S
C953 C952 1.386 1_554 S
C953 C957 1.393 . S
C954 H946 0.950 . S
C954 C952 1.391 . S
C954 C955 1.400 1_556 S
C955 C954 1.400 1_554 S
C955 C956 1.398 . S
C955 C961 1.491 1_564 S
C956 H947 0.950 . S
C956 C955 1.398 . S
C956 C957 1.391 . S
C957 H945 0.950 . S
C957 C953 1.393 . S
C957 C956 1.391 . S
C958 H948 0.950 . S
C958 C959 1.386 1_554 S
C958 C960 1.391 . S
C959 C958 1.386 1_556 S
C959 C963 1.393 . S
C960 H949 0.950 . S
C960 C958 1.391 . S
C960 C961 1.400 1_554 S
C961 C955 1.491 1_546 S
C961 C960 1.400 1_556 S
C961 C962 1.398 . S
C962 H950 0.950 . S
C962 C961 1.398 . S
C962 C963 1.391 . S
C963 H951 0.950 . S
C963 C959 1.393 . S
C963 C962 1.391 . S
H964 C972 0.950 . S
H965 C977 0.950 . S
H966 C974 0.950 . S
H967 C976 0.950 . S
H968 C978 0.950 . S
H969 C980 0.950 . S
H970 C982 0.950 . S
H971 C983 0.950 . S
C972 H964 0.950 . S
C972 C973 1.386 . S
C972 C974 1.391 . S
C973 C972 1.386 . S
C973 C977 1.393 . S
C974 H966 0.950 . S
C974 C972 1.391 . S
C974 C975 1.400 . S
C975 C974 1.400 . S
C975 C976 1.398 . S
C975 C981 1.491 1_565 S
C976 H967 0.950 . S
C976 C975 1.398 . S
C976 C977 1.391 . S
C977 H965 0.950 . S
C977 C973 1.393 . S
C977 C976 1.391 . S
C978 H968 0.950 . S
C978 C979 1.386 . S
C978 C980 1.391 . S
C979 C978 1.386 . S
C979 C983 1.393 . S
C980 H969 0.950 . S
C980 C978 1.391 . S
C980 C981 1.400 . S
C981 C975 1.491 1_545 S
C981 C980 1.400 . S
C981 C982 1.398 . S
C982 H970 0.950 . S
C982 C981 1.398 . S
C982 C983 1.391 . S
C983 H971 0.950 . S
C983 C979 1.393 . S
C983 C982 1.391 . S
H984 C992 0.950 . S
H985 C997 0.950 . S
H986 C994 0.950 . S
H987 C996 0.950 . S
H988 C998 0.950 . S
H989 C1000 0.950 . S
H990 C1002 0.950 . S
H991 C1003 0.950 . S
C992 H984 0.950 . S
C992 C993 1.386 1_556 S
C992 C994 1.391 . S
C993 C992 1.386 1_554 S
C993 C997 1.393 . S
C994 H986 0.950 . S
C994 C992 1.391 . S
C994 C995 1.400 1_556 S
C995 C994 1.400 1_554 S
C995 C996 1.398 . S
C995 C1001 1.491 1_564 S
C996 H987 0.950 . S
C996 C995 1.398 . S
C996 C997 1.391 . S
C997 H985 0.950 . S
C997 C993 1.393 . S
C997 C996 1.391 . S
C998 H988 0.950 . S
C998 C999 1.386 1_554 S
C998 C1000 1.391 . S
C999 C998 1.386 1_556 S
C999 C1003 1.393 . S
C1000 H989 0.950 . S
C1000 C998 1.391 . S
C1000 C1001 1.400 1_554 S
C1001 C995 1.491 1_546 S
C1001 C1000 1.400 1_556 S
C1001 C1002 1.398 . S
C1002 H990 0.950 . S
C1002 C1001 1.398 . S
C1002 C1003 1.391 . S
C1003 H991 0.950 . S
C1003 C999 1.393 . S
C1003 C1002 1.391 . S
H1004 C1012 0.950 . S
H1005 C1017 0.950 . S
H1006 C1014 0.950 . S
H1007 C1016 0.950 . S
H1008 C1018 0.950 . S
H1009 C1020 0.950 . S
H1010 C1022 0.950 . S
H1011 C1023 0.950 . S
C1012 H1004 0.950 . S
C1012 C1013 1.386 . S
C1012 C1014 1.391 . S
C1013 C1012 1.386 . S
C1013 C1017 1.393 . S
C1014 H1006 0.950 . S
C1014 C1012 1.391 . S
C1014 C1015 1.400 . S
C1015 C1014 1.400 . S
C1015 C1016 1.398 . S
C1015 C1021 1.491 1_565 S
C1016 H1007 0.950 . S
C1016 C1015 1.398 . S
C1016 C1017 1.391 . S
C1017 H1005 0.950 . S
C1017 C1013 1.393 . S
C1017 C1016 1.391 . S
C1018 H1008 0.950 . S
C1018 C1019 1.386 . S
C1018 C1020 1.391 . S
C1019 C1018 1.386 . S
C1019 C1023 1.393 . S
C1020 H1009 0.950 . S
C1020 C1018 1.391 . S
C1020 C1021 1.400 . S
C1021 C1015 1.491 1_545 S
C1021 C1020 1.400 . S
C1021 C1022 1.398 . S
C1022 H1010 0.950 . S
C1022 C1021 1.398 . S
C1022 C1023 1.391 . S
C1023 H1011 0.950 . S
C1023 C1019 1.393 . S
C1023 C1022 1.391 . S
H1024 C1032 0.950 . S
H1025 C1037 0.950 . S
H1026 C1034 0.950 . S
H1027 C1036 0.950 . S
H1028 C1038 0.950 . S
H1029 C1040 0.950 . S
H1030 C1042 0.950 . S
H1031 C1043 0.950 . S
C1032 H1024 0.950 . S
C1032 C1033 1.386 1_556 S
C1032 C1034 1.391 . S
C1033 C1032 1.386 1_554 S
C1033 C1037 1.393 . S
C1034 H1026 0.950 . S
C1034 C1032 1.391 . S
C1034 C1035 1.400 1_556 S
C1035 C1034 1.400 1_554 S
C1035 C1036 1.398 . S
C1035 C1041 1.491 1_554 S
C1036 H1027 0.950 . S
C1036 C1035 1.398 . S
C1036 C1037 1.391 . S
C1037 H1025 0.950 . S
C1037 C1033 1.393 . S
C1037 C1036 1.391 . S
C1038 H1028 0.950 . S
C1038 C1039 1.386 1_554 S
C1038 C1040 1.391 . S
C1039 C1038 1.386 1_556 S
C1039 C1043 1.393 . S
C1040 H1029 0.950 . S
C1040 C1038 1.391 . S
C1040 C1041 1.400 1_554 S
C1041 C1035 1.491 1_556 S
C1041 C1040 1.400 1_556 S
C1041 C1042 1.398 . S
C1042 H1030 0.950 . S
C1042 C1041 1.398 . S
C1042 C1043 1.391 . S
C1043 H1031 0.950 . S
C1043 C1039 1.393 . S
C1043 C1042 1.391 . S
H1044 C1052 0.950 . S
H1045 C1057 0.950 . S
H1046 C1054 0.950 . S
H1047 C1056 0.950 . S
H1048 C1058 0.950 . S
H1049 C1060 0.950 . S
H1050 C1062 0.950 . S
H1051 C1063 0.950 . S
C1052 H1044 0.950 . S
C1052 C1053 1.386 . S
C1052 C1054 1.391 . S
C1053 C1052 1.386 . S
C1053 C1057 1.393 . S
C1054 H1046 0.950 . S
C1054 C1052 1.391 . S
C1054 C1055 1.400 . S
C1055 C1054 1.400 . S
C1055 C1056 1.398 . S
C1055 C1061 1.491 . S
C1056 H1047 0.950 . S
C1056 C1055 1.398 . S
C1056 C1057 1.391 . S
C1057 H1045 0.950 . S
C1057 C1053 1.393 . S
C1057 C1056 1.391 . S
C1058 H1048 0.950 . S
C1058 C1059 1.386 . S
C1058 C1060 1.391 . S
C1059 C1058 1.386 . S
C1059 C1063 1.393 . S
C1060 H1049 0.950 . S
C1060 C1058 1.391 . S
C1060 C1061 1.400 . S
C1061 C1055 1.491 . S
C1061 C1060 1.400 . S
C1061 C1062 1.398 . S
C1062 H1050 0.950 . S
C1062 C1061 1.398 . S
C1062 C1063 1.391 . S
C1063 H1051 0.950 . S
C1063 C1059 1.393 . S
C1063 C1062 1.391 . S
H1064 C1072 0.950 . S
H1065 C1077 0.950 . S
H1066 C1074 0.950 . S
H1067 C1076 0.950 . S
H1068 C1078 0.950 . S
H1069 C1080 0.950 . S
H1070 C1082 0.950 . S
H1071 C1083 0.950 . S
C1072 H1064 0.950 . S
C1072 C1073 1.386 1_554 S
C1072 C1074 1.391 . S
C1073 C1072 1.386 1_556 S
C1073 C1077 1.393 . S
C1074 H1066 0.950 . S
C1074 C1072 1.391 . S
C1074 C1075 1.400 1_554 S
C1075 C1074 1.400 1_556 S
C1075 C1076 1.398 . S
C1075 C1081 1.491 1_556 S
C1076 H1067 0.950 . S
C1076 C1075 1.398 . S
C1076 C1077 1.391 . S
C1077 H1065 0.950 . S
C1077 C1073 1.393 . S
C1077 C1076 1.391 . S
C1078 H1068 0.950 . S
C1078 C1079 1.386 1_556 S
C1078 C1080 1.391 . S
C1079 C1078 1.386 1_554 S
C1079 C1083 1.393 . S
C1080 H1069 0.950 . S
C1080 C1078 1.391 . S
C1080 C1081 1.400 1_556 S
C1081 C1075 1.491 1_554 S
C1081 C1080 1.400 1_554 S
C1081 C1082 1.398 . S
C1082 H1070 0.950 . S
C1082 C1081 1.398 . S
C1082 C1083 1.391 . S
C1083 H1071 0.950 . S
C1083 C1079 1.393 . S
C1083 C1082 1.391 . S
H1084 C1092 0.950 . S
H1085 C1097 0.950 . S
H1086 C1094 0.950 . S
H1087 C1096 0.950 . S
H1088 C1098 0.950 . S
H1089 C1100 0.950 . S
H1090 C1102 0.950 . S
H1091 C1103 0.950 . S
C1092 H1084 0.950 . S
C1092 C1093 1.386 . S
C1092 C1094 1.391 . S
C1093 C1092 1.386 . S
C1093 C1097 1.393 . S
C1094 H1086 0.950 . S
C1094 C1092 1.391 . S
C1094 C1095 1.400 . S
C1095 C1094 1.400 . S
C1095 C1096 1.398 . S
C1095 C1101 1.491 . S
C1096 H1087 0.950 . S
C1096 C1095 1.398 . S
C1096 C1097 1.391 . S
C1097 H1085 0.950 . S
C1097 C1093 1.393 . S
C1097 C1096 1.391 . S
C1098 H1088 0.950 . S
C1098 C1099 1.386 . S
C1098 C1100 1.391 . S
C1099 C1098 1.386 . S
C1099 C1103 1.393 . S
C1100 H1089 0.950 . S
C1100 C1098 1.391 . S
C1100 C1101 1.400 . S
C1101 C1095 1.491 . S
C1101 C1100 1.400 . S
C1101 C1102 1.398 . S
C1102 H1090 0.950 . S
C1102 C1101 1.398 . S
C1102 C1103 1.391 . S
C1103 H1091 0.950 . S
C1103 C1099 1.393 . S
C1103 C1102 1.391 . S
H1104 C1112 0.950 . S
H1105 C1117 0.950 . S
H1106 C1114 0.950 . S
H1107 C1116 0.950 . S
H1108 C1118 0.950 . S
H1109 C1120 0.950 . S
H1110 C1122 0.950 . S
H1111 C1123 0.950 . S
C1112 H1104 0.950 . S
C1112 C1113 1.386 . S
C1112 C1114 1.391 . S
C1113 C1112 1.386 . S
C1113 C1117 1.393 . S
C1114 H1106 0.950 . S
C1114 C1112 1.391 . S
C1114 C1115 1.400 . S
C1115 C1114 1.400 . S
C1115 C1116 1.398 . S
C1115 C1121 1.491 . S
C1116 H1107 0.950 . S
C1116 C1115 1.398 . S
C1116 C1117 1.391 . S
C1117 H1105 0.950 . S
C1117 C1113 1.393 . S
C1117 C1116 1.391 . S
C1118 H1108 0.950 . S
C1118 C1119 1.386 . S
C1118 C1120 1.391 . S
C1119 C1118 1.386 . S
C1119 C1123 1.393 . S
C1120 H1109 0.950 . S
C1120 C1118 1.391 . S
C1120 C1121 1.400 . S
C1121 C1115 1.491 . S
C1121 C1120 1.400 . S
C1121 C1122 1.398 . S
C1122 H1110 0.950 . S
C1122 C1121 1.398 . S
C1122 C1123 1.391 . S
C1123 H1111 0.950 . S
C1123 C1119 1.393 . S
C1123 C1122 1.391 . S
H1124 C1132 0.950 . S
H1125 C1137 0.950 . S
H1126 C1134 0.950 . S
H1127 C1136 0.950 . S
H1128 C1138 0.950 . S
H1129 C1140 0.950 . S
H1130 C1142 0.950 . S
H1131 C1143 0.950 . S
C1132 H1124 0.950 . S
C1132 C1133 1.386 . S
C1132 C1134 1.391 . S
C1133 C1132 1.386 . S
C1133 C1137 1.393 . S
C1134 H1126 0.950 . S
C1134 C1132 1.391 . S
C1134 C1135 1.400 . S
C1135 C1134 1.400 . S
C1135 C1136 1.398 . S
C1135 C1141 1.491 . S
C1136 H1127 0.950 . S
C1136 C1135 1.398 . S
C1136 C1137 1.391 . S
C1137 H1125 0.950 . S
C1137 C1133 1.393 . S
C1137 C1136 1.391 . S
C1138 H1128 0.950 . S
C1138 C1139 1.386 . S
C1138 C1140 1.391 . S
C1139 C1138 1.386 . S
C1139 C1143 1.393 . S
C1140 H1129 0.950 . S
C1140 C1138 1.391 . S
C1140 C1141 1.400 . S
C1141 C1135 1.491 . S
C1141 C1140 1.400 . S
C1141 C1142 1.398 . S
C1142 H1130 0.950 . S
C1142 C1141 1.398 . S
C1142 C1143 1.391 . S
C1143 H1131 0.950 . S
C1143 C1139 1.393 . S
C1143 C1142 1.391 . S
H1144 C1152 0.950 . S
H1145 C1157 0.950 . S
H1146 C1154 0.950 . S
H1147 C1156 0.950 . S
H1148 C1158 0.950 . S
H1149 C1160 0.950 . S
H1150 C1162 0.950 . S
H1151 C1163 0.950 . S
C1152 H1144 0.950 . S
C1152 C1153 1.386 . S
C1152 C1154 1.391 . S
C1153 C1152 1.386 . S
C1153 C1157 1.393 . S
C1154 H1146 0.950 . S
C1154 C1152 1.391 . S
C1154 C1155 1.400 . S
C1155 C1154 1.400 . S
C1155 C1156 1.398 . S
C1155 C1161 1.491 . S
C1156 H1147 0.950 . S
C1156 C1155 1.398 . S
C1156 C1157 1.391 . S
C1157 H1145 0.950 . S
C1157 C1153 1.393 . S
C1157 C1156 1.391 . S
C1158 H1148 0.950 . S
C1158 C1159 1.386 . S
C1158 C1160 1.391 . S
C1159 C1158 1.386 . S
C1159 C1163 1.393 . S
C1160 H1149 0.950 . S
C1160 C1158 1.391 . S
C1160 C1161 1.400 . S
C1161 C1155 1.491 . S
C1161 C1160 1.400 . S
C1161 C1162 1.398 . S
C1162 H1150 0.950 . S
C1162 C1161 1.398 . S
C1162 C1163 1.391 . S
C1163 H1151 0.950 . S
C1163 C1159 1.393 . S
C1163 C1162 1.391 . S
H1164 C1172 0.950 . S
H1165 C1177 0.950 . S
H1166 C1174 0.950 . S
H1167 C1176 0.950 . S
H1168 C1178 0.950 . S
H1169 C1180 0.950 . S
H1170 C1182 0.950 . S
H1171 C1183 0.950 . S
C1172 H1164 0.950 . S
C1172 C1173 1.386 . S
C1172 C1174 1.391 . S
C1173 C1172 1.386 . S
C1173 C1177 1.393 . S
C1174 H1166 0.950 . S
C1174 C1172 1.391 . S
C1174 C1175 1.400 . S
C1175 C1174 1.400 . S
C1175 C1176 1.398 . S
C1175 C1181 1.491 . S
C1176 H1167 0.950 . S
C1176 C1175 1.398 . S
C1176 C1177 1.391 . S
C1177 H1165 0.950 . S
C1177 C1173 1.393 . S
C1177 C1176 1.391 . S
C1178 H1168 0.950 . S
C1178 C1179 1.386 . S
C1178 C1180 1.391 . S
C1179 C1178 1.386 . S
C1179 C1183 1.393 . S
C1180 H1169 0.950 . S
C1180 C1178 1.391 . S
C1180 C1181 1.400 . S
C1181 C1175 1.491 . S
C1181 C1180 1.400 . S
C1181 C1182 1.398 . S
C1182 H1170 0.950 . S
C1182 C1181 1.398 . S
C1182 C1183 1.391 . S
C1183 H1171 0.950 . S
C1183 C1179 1.393 . S
C1183 C1182 1.391 . S
H1184 C1192 0.950 . S
H1185 C1197 0.950 . S
H1186 C1194 0.950 . S
H1187 C1196 0.950 . S
H1188 C1198 0.950 . S
H1189 C1200 0.950 . S
H1190 C1202 0.950 . S
H1191 C1203 0.950 . S
C1192 H1184 0.950 . S
C1192 C1193 1.386 . S
C1192 C1194 1.391 . S
C1193 C1192 1.386 . S
C1193 C1197 1.393 . S
C1194 H1186 0.950 . S
C1194 C1192 1.391 . S
C1194 C1195 1.400 . S
C1195 C1194 1.400 . S
C1195 C1196 1.398 . S
C1195 C1201 1.491 . S
C1196 H1187 0.950 . S
C1196 C1195 1.398 . S
C1196 C1197 1.391 . S
C1197 H1185 0.950 . S
C1197 C1193 1.393 . S
C1197 C1196 1.391 . S
C1198 H1188 0.950 . S
C1198 C1199 1.386 . S
C1198 C1200 1.391 . S
C1199 C1198 1.386 . S
C1199 C1203 1.393 . S
C1200 H1189 0.950 . S
C1200 C1198 1.391 . S
C1200 C1201 1.400 . S
C1201 C1195 1.491 . S
C1201 C1200 1.400 . S
C1201 C1202 1.398 . S
C1202 H1190 0.950 . S
C1202 C1201 1.398 . S
C1202 C1203 1.391 . S
C1203 H1191 0.950 . S
C1203 C1199 1.393 . S
C1203 C1202 1.391 . S
H1204 C1212 0.950 . S
H1205 C1217 0.950 . S
H1206 C1214 0.950 . S
H1207 C1216 0.950 . S
H1208 C1218 0.950 . S
H1209 C1220 0.950 . S
H1210 C1222 0.950 . S
H1211 C1223 0.950 . S
C1212 H1204 0.950 . S
C1212 C1213 1.386 . S
C1212 C1214 1.391 . S
C1213 C1212 1.386 . S
C1213 C1217 1.393 . S
C1214 H1206 0.950 . S
C1214 C1212 1.391 . S
C1214 C1215 1.400 . S
C1215 C1214 1.400 . S
C1215 C1216 1.398 . S
C1215 C1221 1.491 . S
C1216 H1207 0.950 . S
C1216 C1215 1.398 . S
C1216 C1217 1.391 . S
C1217 H1205 0.950 . S
C1217 C1213 1.393 . S
C1217 C1216 1.391 . S
C1218 H1208 0.950 . S
C1218 C1219 1.386 . S
C1218 C1220 1.391 . S
C1219 C1218 1.386 . S
C1219 C1223 1.393 . S
C1220 H1209 0.950 . S
C1220 C1218 1.391 . S
C1220 C1221 1.400 . S
C1221 C1215 1.491 . S
C1221 C1220 1.400 . S
C1221 C1222 1.398 . S
C1222 H1210 0.950 . S
C1222 C1221 1.398 . S
C1222 C1223 1.391 . S
C1223 H1211 0.950 . S
C1223 C1219 1.393 . S
C1223 C1222 1.391 . S
H1224 C1232 0.950 . S
H1225 C1237 0.950 . S
H1226 C1234 0.950 . S
H1227 C1236 0.950 . S
H1228 C1238 0.950 . S
H1229 C1240 0.950 . S
H1230 C1242 0.950 . S
H1231 C1243 0.950 . S
C1232 H1224 0.950 . S
C1232 C1233 1.386 . S
C1232 C1234 1.391 . S
C1233 C1232 1.386 . S
C1233 C1237 1.393 . S
C1234 H1226 0.950 . S
C1234 C1232 1.391 . S
C1234 C1235 1.400 . S
C1235 C1234 1.400 . S
C1235 C1236 1.398 . S
C1235 C1241 1.491 . S
C1236 H1227 0.950 . S
C1236 C1235 1.398 . S
C1236 C1237 1.391 . S
C1237 H1225 0.950 . S
C1237 C1233 1.393 . S
C1237 C1236 1.391 . S
C1238 H1228 0.950 . S
C1238 C1239 1.386 . S
C1238 C1240 1.391 . S
C1239 C1238 1.386 . S
C1239 C1243 1.393 . S
C1240 H1229 0.950 . S
C1240 C1238 1.391 . S
C1240 C1241 1.400 . S
C1241 C1235 1.491 . S
C1241 C1240 1.400 . S
C1241 C1242 1.398 . S
C1242 H1230 0.950 . S
C1242 C1241 1.398 . S
C1242 C1243 1.391 . S
C1243 H1231 0.950 . S
C1243 C1239 1.393 . S
C1243 C1242 1.391 . S
H1244 C1252 0.950 . S
H1245 C1257 0.950 . S
H1246 C1254 0.950 . S
H1247 C1256 0.950 . S
H1248 C1258 0.950 . S
H1249 C1260 0.950 . S
H1250 C1262 0.950 . S
H1251 C1263 0.950 . S
C1252 H1244 0.950 . S
C1252 C1253 1.386 . S
C1252 C1254 1.391 . S
C1253 C1252 1.386 . S
C1253 C1257 1.393 . S
C1254 H1246 0.950 . S
C1254 C1252 1.391 . S
C1254 C1255 1.400 . S
C1255 C1254 1.400 . S
C1255 C1256 1.398 . S
C1255 C1261 1.491 . S
C1256 H1247 0.950 . S
C1256 C1255 1.398 . S
C1256 C1257 1.391 . S
C1257 H1245 0.950 . S
C1257 C1253 1.393 . S
C1257 C1256 1.391 . S
C1258 H1248 0.950 . S
C1258 C1259 1.386 . S
C1258 C1260 1.391 . S
C1259 C1258 1.386 . S
C1259 C1263 1.393 . S
C1260 H1249 0.950 . S
C1260 C1258 1.391 . S
C1260 C1261 1.400 . S
C1261 C1255 1.491 . S
C1261 C1260 1.400 . S
C1261 C1262 1.398 . S
C1262 H1250 0.950 . S
C1262 C1261 1.398 . S
C1262 C1263 1.391 . S
C1263 H1251 0.950 . S
C1263 C1259 1.393 . S
C1263 C1262 1.391 . S
H1264 C1272 0.950 . S
H1265 C1277 0.950 . S
H1266 C1274 0.950 . S
H1267 C1276 0.950 . S
H1268 C1278 0.950 . S
H1269 C1280 0.950 . S
H1270 C1282 0.950 . S
H1271 C1283 0.950 . S
C1272 H1264 0.950 . S
C1272 C1273 1.386 . S
C1272 C1274 1.391 . S
C1273 C1272 1.386 . S
C1273 C1277 1.393 . S
C1274 H1266 0.950 . S
C1274 C1272 1.391 . S
C1274 C1275 1.400 . S
C1275 C1274 1.400 . S
C1275 C1276 1.398 . S
C1275 C1281 1.491 . S
C1276 H1267 0.950 . S
C1276 C1275 1.398 . S
C1276 C1277 1.391 . S
C1277 H1265 0.950 . S
C1277 C1273 1.393 . S
C1277 C1276 1.391 . S
C1278 H1268 0.950 . S
C1278 C1279 1.386 . S
C1278 C1280 1.391 . S
C1279 C1278 1.386 . S
C1279 C1283 1.393 . S
C1280 H1269 0.950 . S
C1280 C1278 1.391 . S
C1280 C1281 1.400 . S
C1281 C1275 1.491 . S
C1281 C1280 1.400 . S
C1281 C1282 1.398 . S
C1282 H1270 0.950 . S
C1282 C1281 1.398 . S
C1282 C1283 1.391 . S
C1283 H1271 0.950 . S
C1283 C1279 1.393 . S
C1283 C1282 1.391 . S
H1284 C1292 0.950 . S
H1285 C1297 0.950 . S
H1286 C1294 0.950 . S
H1287 C1296 0.950 . S
H1288 C1298 0.950 . S
H1289 C1300 0.950 . S
H1290 C1302 0.950 . S
H1291 C1303 0.950 . S
C1292 H1284 0.950 . S
C1292 C1293 1.386 . S
C1292 C1294 1.391 . S
C1293 C1292 1.386 . S
C1293 C1297 1.393 . S
C1294 H1286 0.950 . S
C1294 C1292 1.391 . S
C1294 C1295 1.400 . S
C1295 C1294 1.400 . S
C1295 C1296 1.398 . S
C1295 C1301 1.491 1_554 S
C1296 H1287 0.950 . S
C1296 C1295 1.398 . S
C1296 C1297 1.391 . S
C1297 H1285 0.950 . S
C1297 C1293 1.393 . S
C1297 C1296 1.391 . S
C1298 H1288 0.950 . S
C1298 C1299 1.386 . S
C1298 C1300 1.391 . S
C1299 C1298 1.386 . S
C1299 C1303 1.393 . S
C1300 H1289 0.950 . S
C1300 C1298 1.391 . S
C1300 C1301 1.400 . S
C1301 C1295 1.491 1_556 S
C1301 C1300 1.400 . S
C1301 C1302 1.398 . S
C1302 H1290 0.950 . S
C1302 C1301 1.398 . S
C1302 C1303 1.391 . S
C1303 H1291 0.950 . S
C1303 C1299 1.393 . S
C1303 C1302 1.391 . S
H1304 C1312 0.950 . S
H1305 C1317 0.950 . S
H1306 C1314 0.950 . S
H1307 C1316 0.950 . S
H1308 C1318 0.950 . S
H1309 C1320 0.950 . S
H1310 C1322 0.950 . S
H1311 C1323 0.950 . S
C1312 H1304 0.950 . S
C1312 C1313 1.386 . S
C1312 C1314 1.391 . S
C1313 C1312 1.386 . S
C1313 C1317 1.393 . S
C1314 H1306 0.950 . S
C1314 C1312 1.391 . S
C1314 C1315 1.400 . S
C1315 C1314 1.400 . S
C1315 C1316 1.398 . S
C1315 C1321 1.491 . S
C1316 H1307 0.950 . S
C1316 C1315 1.398 . S
C1316 C1317 1.391 . S
C1317 H1305 0.950 . S
C1317 C1313 1.393 . S
C1317 C1316 1.391 . S
C1318 H1308 0.950 . S
C1318 C1319 1.386 . S
C1318 C1320 1.391 . S
C1319 C1318 1.386 . S
C1319 C1323 1.393 . S
C1320 H1309 0.950 . S
C1320 C1318 1.391 . S
C1320 C1321 1.400 . S
C1321 C1315 1.491 . S
C1321 C1320 1.400 . S
C1321 C1322 1.398 . S
C1322 H1310 0.950 . S
C1322 C1321 1.398 . S
C1322 C1323 1.391 . S
C1323 H1311 0.950 . S
C1323 C1319 1.393 . S
C1323 C1322 1.391 . S
H1324 C1332 0.950 . S
H1325 C1337 0.950 . S
H1326 C1334 0.950 . S
H1327 C1336 0.950 . S
H1328 C1338 0.950 . S
H1329 C1340 0.950 . S
H1330 C1342 0.950 . S
H1331 C1343 0.950 . S
C1332 H1324 0.950 . S
C1332 C1333 1.386 . S
C1332 C1334 1.391 . S
C1333 C1332 1.386 . S
C1333 C1337 1.393 . S
C1334 H1326 0.950 . S
C1334 C1332 1.391 . S
C1334 C1335 1.400 . S
C1335 C1334 1.400 . S
C1335 C1336 1.398 . S
C1335 C1341 1.491 1_556 S
C1336 H1327 0.950 . S
C1336 C1335 1.398 . S
C1336 C1337 1.391 . S
C1337 H1325 0.950 . S
C1337 C1333 1.393 . S
C1337 C1336 1.391 . S
C1338 H1328 0.950 . S
C1338 C1339 1.386 . S
C1338 C1340 1.391 . S
C1339 C1338 1.386 . S
C1339 C1343 1.393 . S
C1340 H1329 0.950 . S
C1340 C1338 1.391 . S
C1340 C1341 1.400 . S
C1341 C1335 1.491 1_554 S
C1341 C1340 1.400 . S
C1341 C1342 1.398 . S
C1342 H1330 0.950 . S
C1342 C1341 1.398 . S
C1342 C1343 1.391 . S
C1343 H1331 0.950 . S
C1343 C1339 1.393 . S
C1343 C1342 1.391 . S
H1344 C1352 0.950 . S
H1345 C1357 0.950 . S
H1346 C1354 0.950 . S
H1347 C1356 0.950 . S
H1348 C1358 0.950 . S
H1349 C1360 0.950 . S
H1350 C1362 0.950 . S
H1351 C1363 0.950 . S
C1352 H1344 0.950 . S
C1352 C1353 1.386 . S
C1352 C1354 1.391 . S
C1353 C1352 1.386 . S
C1353 C1357 1.393 . S
C1354 H1346 0.950 . S
C1354 C1352 1.391 . S
C1354 C1355 1.400 . S
C1355 C1354 1.400 . S
C1355 C1356 1.398 . S
C1355 C1361 1.491 . S
C1356 H1347 0.950 . S
C1356 C1355 1.398 . S
C1356 C1357 1.391 . S
C1357 H1345 0.950 . S
C1357 C1353 1.393 . S
C1357 C1356 1.391 . S
C1358 H1348 0.950 . S
C1358 C1359 1.386 . S
C1358 C1360 1.391 . S
C1359 C1358 1.386 . S
C1359 C1363 1.393 . S
C1360 H1349 0.950 . S
C1360 C1358 1.391 . S
C1360 C1361 1.400 . S
C1361 C1355 1.491 . S
C1361 C1360 1.400 . S
C1361 C1362 1.398 . S
C1362 H1350 0.950 . S
C1362 C1361 1.398 . S
C1362 C1363 1.391 . S
C1363 H1351 0.950 . S
C1363 C1359 1.393 . S
C1363 C1362 1.391 . S
H1364 C1372 0.950 . S
H1365 C1377 0.950 . S
H1366 C1374 0.950 . S
H1367 C1376 0.950 . S
H1368 C1378 0.950 . S
H1369 C1380 0.950 . S
H1370 C1382 0.950 . S
H1371 C1383 0.950 . S
C1372 H1364 0.950 . S
C1372 C1373 1.386 . S
C1372 C1374 1.391 . S
C1373 C1372 1.386 . S
C1373 C1377 1.393 . S
C1374 H1366 0.950 . S
C1374 C1372 1.391 . S
C1374 C1375 1.400 . S
C1375 C1374 1.400 . S
C1375 C1376 1.398 . S
C1375 C1381 1.491 1_556 S
C1376 H1367 0.950 . S
C1376 C1375 1.398 . S
C1376 C1377 1.391 . S
C1377 H1365 0.950 . S
C1377 C1373 1.393 . S
C1377 C1376 1.391 . S
C1378 H1368 0.950 . S
C1378 C1379 1.386 . S
C1378 C1380 1.391 . S
C1379 C1378 1.386 . S
C1379 C1383 1.393 . S
C1380 H1369 0.950 . S
C1380 C1378 1.391 . S
C1380 C1381 1.400 . S
C1381 C1375 1.491 1_554 S
C1381 C1380 1.400 . S
C1381 C1382 1.398 . S
C1382 H1370 0.950 . S
C1382 C1381 1.398 . S
C1382 C1383 1.391 . S
C1383 H1371 0.950 . S
C1383 C1379 1.393 . S
C1383 C1382 1.391 . S
H1384 C1392 0.950 . S
H1385 C1397 0.950 . S
H1386 C1394 0.950 . S
H1387 C1396 0.950 . S
H1388 C1398 0.950 . S
H1389 C1400 0.950 . S
H1390 C1402 0.950 . S
H1391 C1403 0.950 . S
C1392 H1384 0.950 . S
C1392 C1393 1.386 . S
C1392 C1394 1.391 . S
C1393 C1392 1.386 . S
C1393 C1397 1.393 . S
C1394 H1386 0.950 . S
C1394 C1392 1.391 . S
C1394 C1395 1.400 . S
C1395 C1394 1.400 . S
C1395 C1396 1.398 . S
C1395 C1401 1.491 . S
C1396 H1387 0.950 . S
C1396 C1395 1.398 . S
C1396 C1397 1.391 . S
C1397 H1385 0.950 . S
C1397 C1393 1.393 . S
C1397 C1396 1.391 . S
C1398 H1388 0.950 . S
C1398 C1399 1.386 . S
C1398 C1400 1.391 . S
C1399 C1398 1.386 . S
C1399 C1403 1.393 . S
C1400 H1389 0.950 . S
C1400 C1398 1.391 . S
C1400 C1401 1.400 . S
C1401 C1395 1.491 . S
C1401 C1400 1.400 . S
C1401 C1402 1.398 . S
C1402 H1390 0.950 . S
C1402 C1401 1.398 . S
C1402 C1403 1.391 . S
C1403 H1391 0.950 . S
C1403 C1399 1.393 . S
C1403 C1402 1.391 . S
H1404 C1412 0.950 . S
H1405 C1417 0.950 . S
H1406 C1414 0.950 . S
H1407 C1416 0.950 . S
H1408 C1418 0.950 . S
H1409 C1420 0.950 . S
H1410 C1422 0.950 . S
H1411 C1423 0.950 . S
C1412 H1404 0.950 . S
C1412 C1413 1.386 . S
C1412 C1414 1.391 . S
C1413 C1412 1.386 . S
C1413 C1417 1.393 . S
C1414 H1406 0.950 . S
C1414 C1412 1.391 . S
C1414 C1415 1.400 . S
C1415 C1414 1.400 . S
C1415 C1416 1.398 . S
C1415 C1421 1.491 1_556 S
C1416 H1407 0.950 . S
C1416 C1415 1.398 . S
C1416 C1417 1.391 . S
C1417 H1405 0.950 . S
C1417 C1413 1.393 . S
C1417 C1416 1.391 . S
C1418 H1408 0.950 . S
C1418 C1419 1.386 . S
C1418 C1420 1.391 . S
C1419 C1418 1.386 . S
C1419 C1423 1.393 . S
C1420 H1409 0.950 . S
C1420 C1418 1.391 . S
C1420 C1421 1.400 . S
C1421 C1415 1.491 1_554 S
C1421 C1420 1.400 . S
C1421 C1422 1.398 . S
C1422 H1410 0.950 . S
C1422 C1421 1.398 . S
C1422 C1423 1.391 . S
C1423 H1411 0.950 . S
C1423 C1419 1.393 . S
C1423 C1422 1.391 . S
H1424 C1432 0.950 . S
H1425 C1437 0.950 . S
H1426 C1434 0.950 . S
H1427 C1436 0.950 . S
H1428 C1438 0.950 . S
H1429 C1440 0.950 . S
H1430 C1442 0.950 . S
H1431 C1443 0.950 . S
C1432 H1424 0.950 . S
C1432 C1433 1.386 . S
C1432 C1434 1.391 . S
C1433 C1432 1.386 . S
C1433 C1437 1.393 . S
C1434 H1426 0.950 . S
C1434 C1432 1.391 . S
C1434 C1435 1.400 . S
C1435 C1434 1.400 . S
C1435 C1436 1.398 . S
C1435 C1441 1.491 . S
C1436 H1427 0.950 . S
C1436 C1435 1.398 . S
C1436 C1437 1.391 . S
C1437 H1425 0.950 . S
C1437 C1433 1.393 . S
C1437 C1436 1.391 . S
C1438 H1428 0.950 . S
C1438 C1439 1.386 . S
C1438 C1440 1.391 . S
C1439 C1438 1.386 . S
C1439 C1443 1.393 . S
C1440 H1429 0.950 . S
C1440 C1438 1.391 . S
C1440 C1441 1.400 . S
C1441 C1435 1.491 . S
C1441 C1440 1.400 . S
C1441 C1442 1.398 . S
C1442 H1430 0.950 . S
C1442 C1441 1.398 . S
C1442 C1443 1.391 . S
C1443 H1431 0.950 . S
C1443 C1439 1.393 . S
C1443 C1442 1.391 . S
H1444 C1452 0.950 . S
H1445 C1457 0.950 . S
H1446 C1454 0.950 . S
H1447 C1456 0.950 . S
H1448 C1458 0.950 . S
H1449 C1460 0.950 . S
H1450 C1462 0.950 . S
H1451 C1463 0.950 . S
C1452 H1444 0.950 . S
C1452 C1453 1.386 . S
C1452 C1454 1.391 . S
C1453 C1452 1.386 . S
C1453 C1457 1.393 . S
C1454 H1446 0.950 . S
C1454 C1452 1.391 . S
C1454 C1455 1.400 . S
C1455 C1454 1.400 . S
C1455 C1456 1.398 . S
C1455 C1461 1.491 1_556 S
C1456 H1447 0.950 . S
C1456 C1455 1.398 . S
C1456 C1457 1.391 . S
C1457 H1445 0.950 . S
C1457 C1453 1.393 . S
C1457 C1456 1.391 . S
C1458 H1448 0.950 . S
C1458 C1459 1.386 . S
C1458 C1460 1.391 . S
C1459 C1458 1.386 . S
C1459 C1463 1.393 . S
C1460 H1449 0.950 . S
C1460 C1458 1.391 . S
C1460 C1461 1.400 . S
C1461 C1455 1.491 1_554 S
C1461 C1460 1.400 . S
C1461 C1462 1.398 . S
C1462 H1450 0.950 . S
C1462 C1461 1.398 . S
C1462 C1463 1.391 . S
C1463 H1451 0.950 . S
C1463 C1459 1.393 . S
C1463 C1462 1.391 . S
H1464 C1472 0.950 . S
H1465 C1477 0.950 . S
H1466 C1474 0.950 . S
H1467 C1476 0.950 . S
H1468 C1478 0.950 . S
H1469 C1480 0.950 . S
H1470 C1482 0.950 . S
H1471 C1483 0.950 . S
C1472 H1464 0.950 . S
C1472 C1473 1.386 . S
C1472 C1474 1.391 . S
C1473 C1472 1.386 . S
C1473 C1477 1.393 . S
C1474 H1466 0.950 . S
C1474 C1472 1.391 . S
C1474 C1475 1.400 . S
C1475 C1474 1.400 . S
C1475 C1476 1.398 . S
C1475 C1481 1.491 . S
C1476 H1467 0.950 . S
C1476 C1475 1.398 . S
C1476 C1477 1.391 . S
C1477 H1465 0.950 . S
C1477 C1473 1.393 . S
C1477 C1476 1.391 . S
C1478 H1468 0.950 . S
C1478 C1479 1.386 . S
C1478 C1480 1.391 . S
C1479 C1478 1.386 . S
C1479 C1483 1.393 . S
C1480 H1469 0.950 . S
C1480 C1478 1.391 . S
C1480 C1481 1.400 . S
C1481 C1475 1.491 . S
C1481 C1480 1.400 . S
C1481 C1482 1.398 . S
C1482 H1470 0.950 . S
C1482 C1481 1.398 . S
C1482 C1483 1.391 . S
C1483 H1471 0.950 . S
C1483 C1479 1.393 . S
C1483 C1482 1.391 . S
H1484 C1492 0.950 . S
H1485 C1497 0.950 . S
H1486 C1494 0.950 . S
H1487 C1496 0.950 . S
H1488 C1498 0.950 . S
H1489 C1500 0.950 . S
H1490 C1502 0.950 . S
H1491 C1503 0.950 . S
C1492 H1484 0.950 . S
C1492 C1493 1.386 . S
C1492 C1494 1.391 . S
C1493 C1492 1.386 . S
C1493 C1497 1.393 . S
C1494 H1486 0.950 . S
C1494 C1492 1.391 . S
C1494 C1495 1.400 . S
C1495 C1494 1.400 . S
C1495 C1496 1.398 . S
C1495 C1501 1.491 1_554 S
C1496 H1487 0.950 . S
C1496 C1495 1.398 . S
C1496 C1497 1.391 . S
C1497 H1485 0.950 . S
C1497 C1493 1.393 . S
C1497 C1496 1.391 . S
C1498 H1488 0.950 . S
C1498 C1499 1.386 . S
C1498 C1500 1.391 . S
C1499 C1498 1.386 . S
C1499 C1503 1.393 . S
C1500 H1489 0.950 . S
C1500 C1498 1.391 . S
C1500 C1501 1.400 . S
C1501 C1495 1.491 1_556 S
C1501 C1500 1.400 . S
C1501 C1502 1.398 . S
C1502 H1490 0.950 . S
C1502 C1501 1.398 . S
C1502 C1503 1.391 . S
C1503 H1491 0.950 . S
C1503 C1499 1.393 . S
C1503 C1502 1.391 . S
H1504 C1512 0.950 . S
H1505 C1517 0.950 . S
H1506 C1514 0.950 . S
H1507 C1516 0.950 . S
H1508 C1518 0.950 . S
H1509 C1520 0.950 . S
H1510 C1522 0.950 . S
H1511 C1523 0.950 . S
C1512 H1504 0.950 . S
C1512 C1513 1.386 . S
C1512 C1514 1.391 . S
C1513 C1512 1.386 . S
C1513 C1517 1.393 . S
C1514 H1506 0.950 . S
C1514 C1512 1.391 . S
C1514 C1515 1.400 . S
C1515 C1514 1.400 . S
C1515 C1516 1.398 . S
C1515 C1521 1.491 . S
C1516 H1507 0.950 . S
C1516 C1515 1.398 . S
C1516 C1517 1.391 . S
C1517 H1505 0.950 . S
C1517 C1513 1.393 . S
C1517 C1516 1.391 . S
C1518 H1508 0.950 . S
C1518 C1519 1.386 . S
C1518 C1520 1.391 . S
C1519 C1518 1.386 . S
C1519 C1523 1.393 . S
C1520 H1509 0.950 . S
C1520 C1518 1.391 . S
C1520 C1521 1.400 . S
C1521 C1515 1.491 . S
C1521 C1520 1.400 . S
C1521 C1522 1.398 . S
C1522 H1510 0.950 . S
C1522 C1521 1.398 . S
C1522 C1523 1.391 . S
C1523 H1511 0.950 . S
C1523 C1519 1.393 . S
C1523 C1522 1.391 . S
H1524 C1532 0.950 . S
H1525 C1537 0.950 . S
H1526 C1534 0.950 . S
H1527 C1536 0.950 . S
H1528 C1538 0.950 . S
H1529 C1540 0.950 . S
H1530 C1542 0.950 . S
H1531 C1543 0.950 . S
C1532 H1524 0.950 . S
C1532 C1533 1.386 . S
C1532 C1534 1.391 . S
C1533 C1532 1.386 . S
C1533 C1537 1.393 . S
C1534 H1526 0.950 . S
C1534 C1532 1.391 . S
C1534 C1535 1.400 . S
C1535 C1534 1.400 . S
C1535 C1536 1.398 . S
C1535 C1541 1.491 1_554 S
C1536 H1527 0.950 . S
C1536 C1535 1.398 . S
C1536 C1537 1.391 . S
C1537 H1525 0.950 . S
C1537 C1533 1.393 . S
C1537 C1536 1.391 . S
C1538 H1528 0.950 . S
C1538 C1539 1.386 . S
C1538 C1540 1.391 . S
C1539 C1538 1.386 . S
C1539 C1543 1.393 . S
C1540 H1529 0.950 . S
C1540 C1538 1.391 . S
C1540 C1541 1.400 . S
C1541 C1535 1.491 1_556 S
C1541 C1540 1.400 . S
C1541 C1542 1.398 . S
C1542 H1530 0.950 . S
C1542 C1541 1.398 . S
C1542 C1543 1.391 . S
C1543 H1531 0.950 . S
C1543 C1539 1.393 . S
C1543 C1542 1.391 . S
H1544 C1552 0.950 . S
H1545 C1557 0.950 . S
H1546 C1554 0.950 . S
H1547 C1556 0.950 . S
H1548 C1558 0.950 . S
H1549 C1560 0.950 . S
H1550 C1562 0.950 . S
H1551 C1563 0.950 . S
C1552 H1544 0.950 . S
C1552 C1553 1.386 . S
C1552 C1554 1.391 . S
C1553 C1552 1.386 . S
C1553 C1557 1.393 . S
C1554 H1546 0.950 . S
C1554 C1552 1.391 . S
C1554 C1555 1.400 . S
C1555 C1554 1.400 . S
C1555 C1556 1.398 . S
C1555 C1561 1.491 . S
C1556 H1547 0.950 . S
C1556 C1555 1.398 . S
C1556 C1557 1.391 . S
C1557 H1545 0.950 . S
C1557 C1553 1.393 . S
C1557 C1556 1.391 . S
C1558 H1548 0.950 . S
C1558 C1559 1.386 . S
C1558 C1560 1.391 . S
C1559 C1558 1.386 . S
C1559 C1563 1.393 . S
C1560 H1549 0.950 . S
C1560 C1558 1.391 . S
C1560 C1561 1.400 . S
C1561 C1555 1.491 . S
C1561 C1560 1.400 . S
C1561 C1562 1.398 . S
C1562 H1550 0.950 . S
C1562 C1561 1.398 . S
C1562 C1563 1.391 . S
C1563 H1551 0.950 . S
C1563 C1559 1.393 . S
C1563 C1562 1.391 . S
H1564 C1572 0.950 . S
H1565 C1577 0.950 . S
H1566 C1574 0.950 . S
H1567 C1576 0.950 . S
H1568 C1578 0.950 . S
H1569 C1580 0.950 . S
H1570 C1582 0.950 . S
H1571 C1583 0.950 . S
C1572 H1564 0.950 . S
C1572 C1573 1.386 . S
C1572 C1574 1.391 . S
C1573 C1572 1.386 . S
C1573 C1577 1.393 . S
C1574 H1566 0.950 . S
C1574 C1572 1.391 . S
C1574 C1575 1.400 . S
C1575 C1574 1.400 . S
C1575 C1576 1.398 . S
C1575 C1581 1.491 1_554 S
C1576 H1567 0.950 . S
C1576 C1575 1.398 . S
C1576 C1577 1.391 . S
C1577 H1565 0.950 . S
C1577 C1573 1.393 . S
C1577 C1576 1.391 . S
C1578 H1568 0.950 . S
C1578 C1579 1.386 . S
C1578 C1580 1.391 . S
C1579 C1578 1.386 . S
C1579 C1583 1.393 . S
C1580 H1569 0.950 . S
C1580 C1578 1.391 . S
C1580 C1581 1.400 . S
C1581 C1575 1.491 1_556 S
C1581 C1580 1.400 . S
C1581 C1582 1.398 . S
C1582 H1570 0.950 . S
C1582 C1581 1.398 . S
C1582 C1583 1.391 . S
C1583 H1571 0.950 . S
C1583 C1579 1.393 . S
C1583 C1582 1.391 . S
C473 C184 1.547 . S
C479 C10 1.566 . S
C493 C39 1.554 . S
C499 C213 1.559 . S
C513 C126 1.564 . S
C519 C68 1.548 . S
C533 C155 1.569 . S
C539 C97 1.543 . S
C553 C242 1.549 . S
C559 C416 1.563 . S
C573 C445 1.571 . S
C579 C271 1.542 . S
C593 C358 1.568 . S
C599 C300 1.544 . S
C613 C387 1.551 . S
C619 C329 1.561 . S
C633 C13 1.033 . S
C639 C438 1.018 . S
C653 C42 0.998 . S
C659 C409 1.021 . S
C673 C380 1.034 . S
C679 C71 1.019 . S
C693 C351 1.004 . S
C699 C100 1.025 . S
C713 C322 1.023 . S
C719 C129 0.998 . S
C733 C293 1.032 . S
C739 C158 0.996 . S
C753 C264 1.007 . S
C759 C187 1.032 . S
C773 C235 1.006 . S
C779 C216 1.016 . S
C793 C206 1.029 . S
C799 C245 0.996 . S
C813 C274 1.029 . S
C819 C177 1.024 . S
C833 C303 1.006 . S
C839 C148 1.038 . S
C853 C119 1.015 . S
C859 C332 1.034 . S
C873 C361 0.999 . S
C879 C90 1.037 . S
C893 C61 1.005 . S
C899 C390 1.029 . S
C913 C419 0.999 . S
C919 C32 1.021 . S
C933 C448 0.996 . S
C939 C3 1.027 . S
C953 C66 1.366 1_554 S
C959 C8 1.355 1_556 S
C973 C37 1.327 . S
C979 C95 1.336 . S
C993 C124 1.362 1_554 S
C999 C182 1.367 1_556 S
C1013 C211 1.327 . S
C1019 C153 1.331 . S
C1033 C298 1.366 1_554 S
C1039 C240 1.354 1_556 S
C1053 C269 1.365 . S
C1059 C327 1.366 . S
C1073 C414 1.349 1_556 S
C1079 C356 1.364 1_554 S
C1093 C443 1.352 . S
C1099 C385 1.365 . S
C1113 C5 1.334 . S
C1119 C92 1.316 . S
C1133 C34 1.330 . S
C1139 C63 1.319 . S
C1153 C208 1.315 . S
C1159 C121 1.336 . S
C1173 C150 1.316 . S
C1179 C179 1.334 . S
C1193 C324 1.317 . S
C1199 C237 1.335 . S
C1213 C266 1.321 . S
C1219 C295 1.332 . S
C1233 C440 1.333 . S
C1239 C353 1.317 . S
C1253 C411 1.319 . S
C1259 C382 1.330 . S
C1273 C15 2.121 . S
C1279 C21 2.022 . S
C1293 C44 2.121 . S
C1299 C50 2.013 . S
C1313 C79 2.001 . S
C1319 C73 2.127 . S
C1333 C102 2.130 . S
C1339 C108 2.025 . S
C1353 C131 2.124 . S
C1359 C137 2.005 . S
C1373 C160 2.127 . S
C1379 C166 2.027 . S
C1393 C189 2.126 . S
C1399 C195 2.027 . S
C1413 C224 2.004 . S
C1419 C218 2.135 . S
C1433 C247 2.121 . S
C1439 C253 2.013 . S
C1453 C282 2.000 . S
C1459 C276 2.129 . S
C1473 C311 2.000 . S
C1479 C305 2.129 . S
C1493 C340 2.021 . S
C1499 C334 2.121 . S
C1513 C363 2.134 . S
C1519 C369 2.019 . S
C1533 C398 2.024 . S
C1539 C392 2.122 . S
C1553 C421 2.136 . S
C1559 C427 2.006 . S
C1573 C450 2.128 . S
C1579 C456 2.026 . S
