# Generated by pormake.
# Topology hjm, (4)-cn, num edge types: 1
# Building blocks:
#     Node 0, Type 0, BuildingBlock: QUQFOY_clean_sbu_3, # of connection points: 4
#     Node 1, Type 0, BuildingBlock: QUQFOY_clean_sbu_3, # of connection points: 4
#     Node 2, Type 0, BuildingBlock: QUQFOY_clean_sbu_3, # of connection points: 4
#     Node 3, Type 0, BuildingBlock: QUQFOY_clean_sbu_3, # of connection points: 4
#     Node 4, Type 0, BuildingBlock: QUQFOY_clean_sbu_3, # of connection points: 4
#     Node 5, Type 0, BuildingBlock: QUQFOY_clean_sbu_3, # of connection points: 4
#     Node 6, Type 0, BuildingBlock: QUQFOY_clean_sbu_3, # of connection points: 4
#     Node 7, Type 0, BuildingBlock: QUQFOY_clean_sbu_3, # of connection points: 4
#     Edge 8, Type (0, 0), BuildingBlock: XUDNAN_clean_linker_2, # of connection points: 2
#     Edge 9, Type (0, 0), BuildingBlock: XUDNAN_clean_linker_2, # of connection points: 2
#     Edge 10, Type (0, 0), BuildingBlock: XUDNAN_clean_linker_2, # of connection points: 2
#     Edge 11, Type (0, 0), BuildingBlock: XUDNAN_clean_linker_2, # of connection points: 2
#     Edge 12, Type (0, 0), BuildingBlock: XUDNAN_clean_linker_2, # of connection points: 2
#     Edge 13, Type (0, 0), BuildingBlock: XUDNAN_clean_linker_2, # of connection points: 2
#     Edge 14, Type (0, 0), BuildingBlock: XUDNAN_clean_linker_2, # of connection points: 2
#     Edge 15, Type (0, 0), BuildingBlock: XUDNAN_clean_linker_2, # of connection points: 2
#     Edge 16, Type (0, 0), BuildingBlock: XUDNAN_clean_linker_2, # of connection points: 2
#     Edge 17, Type (0, 0), BuildingBlock: XUDNAN_clean_linker_2, # of connection points: 2
#     Edge 18, Type (0, 0), BuildingBlock: XUDNAN_clean_linker_2, # of connection points: 2
#     Edge 19, Type (0, 0), BuildingBlock: XUDNAN_clean_linker_2, # of connection points: 2
#     Edge 20, Type (0, 0), BuildingBlock: XUDNAN_clean_linker_2, # of connection points: 2
#     Edge 21, Type (0, 0), BuildingBlock: XUDNAN_clean_linker_2, # of connection points: 2
#     Edge 22, Type (0, 0), BuildingBlock: XUDNAN_clean_linker_2, # of connection points: 2
#     Edge 23, Type (0, 0), BuildingBlock: XUDNAN_clean_linker_2, # of connection points: 2
# Relax obj value: 0.092
# Max RMSD: 0.137
# Mean RMSD: 0.137
data_MOF--net-hjm--node1-QUQFOY_clean_sbu_3--edge1-XUDNAN_clean_linker_2
_symmetry_space_group_name_H-M    P1
_symmetry_Int_Tables_number       1
_symmetry_cell_setting            triclinic
loop_
_symmetry_equiv_pos_as_xyz
'x, y, z'
_cell_length_a     27.4881
_cell_length_b     23.539447
_cell_length_c     26.898338
_cell_angle_alpha  90.008501
_cell_angle_beta   59.620888
_cell_angle_gamma 90.016172
loop_
_atom_site_label
_atom_site_type_symbol
_atom_site_fract_x
_atom_site_fract_y
_atom_site_fract_z
_atom_type_partial_charge
C0 C 0.20138 0.29728 0.19466 0.0
O1 O 0.19656 0.34368 0.22083 0.0
Cd2 Cd 0.16707 0.35559 0.3188 0.0
O3 O 0.19154 0.24959 0.22107 0.0
Cd4 Cd 0.16241 0.22241 0.32372 0.0
C5 C 0.27667 0.28972 0.31782 0.0
O6 O 0.08837 0.29096 0.35882 0.0
O7 O 0.09804 0.2551 0.42643 0.0
O8 O 0.11186 0.13311 0.32901 0.0
C9 C 0.06845 0.28453 0.41208 0.0
O10 O 0.25304 0.33735 0.32225 0.0
C11 C 0.13962 0.10292 0.34527 0.0
O12 O 0.25297 0.24396 0.31616 0.0
O13 O 0.17902 0.1276 0.34831 0.0
C14 C 0.77946 0.36248 0.31664 0.0
O15 O 0.76552 0.40964 0.30451 0.0
Cd16 Cd 0.76723 0.43015 0.21778 0.0
O17 O 0.79394 0.32024 0.28211 0.0
Cd18 Cd 0.80704 0.30558 0.18348 0.0
C19 C 0.66958 0.33654 0.22598 0.0
O20 O 0.85974 0.39195 0.15575 0.0
O21 O 0.848 0.35705 0.0887 0.0
O22 O 0.87897 0.23455 0.16803 0.0
C23 C 0.87428 0.39116 0.10328 0.0
O24 O 0.68154 0.38879 0.22555 0.0
C25 C 0.86849 0.20187 0.13704 0.0
O26 O 0.70665 0.29863 0.21502 0.0
O27 O 0.82747 0.21577 0.13052 0.0
C28 C 0.86836 0.60199 0.64959 0.0
O29 O 0.89651 0.61336 0.67393 0.0
Cd30 Cd 0.89452 0.70172 0.71697 0.0
O31 O 0.83468 0.63858 0.64824 0.0
Cd32 Cd 0.80117 0.73673 0.68726 0.0
C33 C 0.93315 0.79131 0.60184 0.0
O34 O 0.79537 0.71633 0.77926 0.0
O35 O 0.7838 0.80387 0.76497 0.0
O36 O 0.70647 0.71126 0.70353 0.0
C37 C 0.78159 0.76596 0.79944 0.0
O38 O 0.9462 0.76754 0.63603 0.0
C39 C 0.69791 0.75951 0.68819 0.0
O40 O 0.88379 0.78564 0.60937 0.0
O41 O 0.73804 0.79504 0.66992 0.0
C42 C 0.09452 0.70306 0.85297 0.0
O43 O 0.06349 0.72381 0.83502 0.0
Cd44 Cd 0.08335 0.80229 0.77312 0.0
O45 O 0.14207 0.72554 0.83956 0.0
Cd46 Cd 0.19933 0.80833 0.77876 0.0
C47 C 0.09188 0.90311 0.85957 0.0
O48 O 0.1785 0.77538 0.70844 0.0
O49 O 0.23074 0.84943 0.6797 0.0
O50 O 0.28602 0.76061 0.76486 0.0
C51 C 0.2072 0.80945 0.66808 0.0
O52 O 0.06481 0.88429 0.83619 0.0
C53 C 0.30862 0.80652 0.7682 0.0
O54 O 0.1393 0.88177 0.84694 0.0
O55 O 0.27997 0.85159 0.77748 0.0
C56 C 0.68425 0.7815 0.20474 0.0
O57 O 0.6741 0.82636 0.23457 0.0
Cd58 Cd 0.66404 0.83743 0.32628 0.0
O59 O 0.68913 0.7335 0.22422 0.0
Cd60 Cd 0.68196 0.70385 0.31846 0.0
C61 C 0.79481 0.78623 0.2914 0.0
O62 O 0.60121 0.76322 0.3806 0.0
O63 O 0.64676 0.73204 0.41998 0.0
O64 O 0.63138 0.61288 0.33107 0.0
C65 C 0.60352 0.75752 0.42598 0.0
O66 O 0.76025 0.82759 0.30754 0.0
C67 C 0.66399 0.58439 0.34223 0.0
O68 O 0.77882 0.73624 0.28811 0.0
O69 O 0.70697 0.61026 0.33672 0.0
C70 C 0.28934 0.79755 0.26818 0.0
O71 O 0.30233 0.84664 0.2457 0.0
Cd72 Cd 0.32093 0.86328 0.15071 0.0
O73 O 0.29099 0.75441 0.23847 0.0
Cd74 Cd 0.31811 0.72823 0.13731 0.0
C75 C 0.20038 0.79924 0.1642 0.0
O76 O 0.39363 0.7973 0.09362 0.0
O77 O 0.36858 0.76236 0.03615 0.0
O78 O 0.36984 0.6487 0.14719 0.0
C79 C 0.403 0.7928 0.04272 0.0
O80 O 0.22937 0.84309 0.16013 0.0
C81 C 0.35831 0.613 0.11927 0.0
O82 O 0.22118 0.74965 0.15886 0.0
O83 O 0.32487 0.62965 0.10261 0.0
C84 C 0.41289 0.08427 0.66297 0.0
O85 O 0.43114 0.10943 0.692 0.0
Cd86 Cd 0.40945 0.20049 0.7318 0.0
O87 O 0.37771 0.10881 0.65203 0.0
Cd88 Cd 0.3291 0.20567 0.68051 0.0
C89 C 0.45331 0.27703 0.60696 0.0
O90 O 0.30989 0.19844 0.77851 0.0
O91 O 0.30182 0.28271 0.75381 0.0
O92 O 0.239 0.167 0.69405 0.0
C93 C 0.29358 0.24872 0.79384 0.0
O94 O 0.45942 0.26359 0.64931 0.0
C95 C 0.22787 0.2108 0.67404 0.0
O96 O 0.4105 0.25971 0.60473 0.0
O97 O 0.26581 0.24876 0.65262 0.0
C98 C 0.63203 0.10865 0.81745 0.0
O99 O 0.60931 0.13551 0.79354 0.0
Cd100 Cd 0.62695 0.22948 0.75905 0.0
O101 O 0.66963 0.13193 0.82542 0.0
Cd102 Cd 0.71856 0.22775 0.79734 0.0
C103 C 0.59744 0.30234 0.88193 0.0
O104 O 0.72697 0.22709 0.70325 0.0
O105 O 0.74541 0.30743 0.72735 0.0
O106 O 0.80948 0.18342 0.77513 0.0
C107 C 0.74601 0.27676 0.68842 0.0
O108 O 0.58518 0.29236 0.84302 0.0
C109 C 0.82534 0.22553 0.79296 0.0
O110 O 0.64192 0.28125 0.8782 0.0
O111 O 0.7898 0.26526 0.81714 0.0
H112 H 0.03735 0.05117 0.38301 0.0
H113 H 0.20404 0.02289 0.35843 0.0
H114 H 0.17185 0.93199 0.41079 0.0
H115 H 0.96325 0.00871 0.52234 0.0
H116 H 0.9065 0.97358 0.51936 0.0
H117 H 0.94486 0.02973 0.46945 0.0
H118 H 0.96909 0.96293 0.38341 0.0
H119 H 0.93007 0.90651 0.4331 0.0
H120 H 0.00265 0.89565 0.37812 0.0
H121 H 0.11781 0.85499 0.48129 0.0
H122 H 0.04745 0.79287 0.55776 0.0
H123 H 0.91526 0.86994 0.53711 0.0
C124 C 0.06754 0.02483 0.38691 0.0
C125 C 0.12328 0.04393 0.36637 0.0
C126 C 0.16118 0.00903 0.37368 0.0
C127 C 0.14326 0.95734 0.40348 0.0
C128 C 0.08726 0.9411 0.42585 0.0
C129 C 0.05012 0.97328 0.41713 0.0
C130 C 0.99091 0.94902 0.45029 0.0
C131 C 0.94895 0.99287 0.49287 0.0
C132 C 0.97208 0.92722 0.40875 0.0
C133 C 0.99997 0.90026 0.48157 0.0
C134 C 0.05604 0.89587 0.46614 0.0
C135 C 0.07399 0.85724 0.49282 0.0
C136 C 0.03359 0.82237 0.53655 0.0
C137 C 0.97578 0.82629 0.55335 0.0
C138 C 0.95917 0.86528 0.5247 0.0
H139 H 0.99059 0.9581 0.89871 0.0
H140 H 0.1354 0.94943 0.92248 0.0
H141 H 0.09129 0.02068 0.00019 0.0
H142 H 0.96793 0.10811 0.92162 0.0
H143 H 0.89221 0.10217 0.95857 0.0
H144 H 0.93533 0.0499 0.90564 0.0
H145 H 0.88524 0.97048 0.98177 0.0
H146 H 0.84277 0.0228 0.03513 0.0
H147 H 0.88498 0.97378 0.04886 0.0
H148 H 0.03172 0.09371 0.0749 0.0
H149 H 0.96379 0.16718 0.13675 0.0
H150 H 0.85805 0.12786 0.0642 0.0
C151 C 0.01316 0.97115 0.92013 0.0
C152 C 0.06654 0.94799 0.90436 0.0
C153 C 0.09453 0.96648 0.9336 0.0
C154 C 0.0697 0.00678 0.97804 0.0
C155 C 0.01681 0.0282 -0.00713 0.0
C156 C 0.98901 0.01128 0.96458 0.0
C157 C 0.93315 0.04185 0.9879 0.0
C158 C 0.93212 0.07763 0.9406 0.0
C159 C 0.88362 -0.0003 0.01503 0.0
C160 C 0.93417 0.07909 0.03328 0.0
C161 C 0.98256 0.07025 0.03583 0.0
C162 C 0.99356 0.10082 0.07346 0.0
C163 C 0.95463 0.14236 0.10855 0.0
C164 C 0.90548 0.15317 0.10552 0.0
C165 C 0.89494 0.12034 0.06793 0.0
H166 H 0.44651 0.33823 0.52258 0.0
H167 H 0.55924 0.29795 0.58664 0.0
H168 H 0.63039 0.36289 0.51552 0.0
H169 H 0.56101 0.35549 0.36862 0.0
H170 H 0.52728 0.41448 0.35561 0.0
H171 H 0.48513 0.35968 0.4061 0.0
H172 H 0.43357 0.43348 0.48726 0.0
H173 H 0.47292 0.48909 0.43698 0.0
H174 H 0.47418 0.48271 0.50314 0.0
H175 H 0.68263 0.44061 0.44948 0.0
H176 H 0.71797 0.52436 0.38641 0.0
H177 H 0.57254 0.51751 0.36362 0.0
C178 C 0.48658 0.34231 0.52083 0.0
C179 C 0.49708 0.313 0.56045 0.0
C180 C 0.54988 0.32007 0.55715 0.0
C181 C 0.59084 0.35667 0.5166 0.0
C182 C 0.57868 0.38596 0.47926 0.0
C183 C 0.52815 0.37908 0.48051 0.0
C184 C 0.52486 0.41888 0.43781 0.0
C185 C 0.52447 0.38505 0.3892 0.0
C186 C 0.47334 0.45839 0.46814 0.0
C187 C 0.57981 0.45143 0.4152 0.0
C188 C 0.61057 0.43061 0.43888 0.0
C189 C 0.66052 0.45594 0.42848 0.0
C190 C 0.67994 0.50384 0.39284 0.0
C191 C 0.6485 0.5273 0.36928 0.0
C192 C 0.59821 0.49994 0.37988 0.0
H193 H 0.35914 0.53686 0.0414 0.0
H194 H 0.4268 0.5653 0.15424 0.0
H195 H 0.48869 0.48186 0.11245 0.0
H196 H 0.3674 0.37739 0.03959 0.0
H197 H 0.38771 0.37447 0.96458 0.0
H198 H 0.34249 0.43073 0.00973 0.0
H199 H 0.41214 0.50526 0.93866 0.0
H200 H 0.45796 0.44956 0.8936 0.0
H201 H 0.48484 0.50379 0.92069 0.0
H202 H 0.55134 0.40271 0.05063 0.0
H203 H 0.60953 0.33422 0.97351 0.0
H204 H 0.50155 0.35751 0.90054 0.0
C205 C 0.38555 0.52438 0.05873 0.0
C206 C 0.38773 0.55744 0.10147 0.0
C207 C 0.42399 0.54046 0.12189 0.0
C208 C 0.45924 0.49294 0.09852 0.0
C209 C 0.45742 0.46234 0.05514 0.0
C210 C 0.42109 0.47704 0.0358 0.0
C211 C 0.43108 0.44044 0.98508 0.0
C212 C 0.3791 0.40354 0.00069 0.0
C213 C 0.4475 0.47695 0.93136 0.0
C214 C 0.4802 0.40456 0.97745 0.0
C215 C 0.49419 0.41718 0.01884 0.0
C216 C 0.54028 0.39191 0.01846 0.0
C217 C 0.57325 0.35316 0.97432 0.0
C218 C 0.56027 0.34028 0.93083 0.0
C219 C 0.51253 0.36596 0.93323 0.0
H220 H 0.88332 0.44609 0.00882 0.0
H221 H 0.96588 0.42271 0.10852 0.0
H222 H 0.03773 0.49375 0.04848 0.0
H223 H 0.01268 0.47544 0.86747 0.0
H224 H 0.97786 0.5293 0.84905 0.0
H225 H 0.93811 0.4702 0.89384 0.0
H226 H 0.86931 0.54043 0.97232 0.0
H227 H 0.90911 0.59949 0.92797 0.0
H228 H 0.89692 0.59315 0.00016 0.0
H229 H 0.09549 0.57298 0.98391 0.0
H230 H 0.13331 0.65727 0.92058 0.0
H231 H 0.0106 0.63184 0.86618 0.0
C232 C 0.91749 0.45493 0.01673 0.0
C233 C 0.91965 0.42883 0.06267 0.0
C234 C 0.96384 0.4424 0.07321 0.0
C235 C 0.00493 0.48243 0.03926 0.0
C236 C 1.00097 0.50876 -0.00481 0.0
C237 C 0.95841 0.49569 0.9838 0.0
C238 C 0.96055 0.53433 0.93783 0.0
C239 C 0.97306 0.50028 0.88384 0.0
C240 C 0.90573 0.56887 0.961 0.0
C241 C 0.00985 0.57189 0.92648 0.0
C242 C 0.03325 0.55588 0.95919 0.0
C243 C 0.07794 0.58569 0.95755 0.0
C244 C 0.09907 0.63349 0.92162 0.0
C245 C 0.07478 0.65126 0.88874 0.0
C246 C 0.03001 0.61952 0.89097 0.0
H247 H 0.03955 0.31928 0.52131 0.0
H248 H 0.98764 0.32791 0.39374 0.0
H249 H 0.91649 0.39999 0.4518 0.0
H250 H 0.89236 0.35222 0.65194 0.0
H251 H 0.92395 0.39308 0.68498 0.0
H252 H 0.96034 0.33219 0.64113 0.0
H253 H 0.04736 0.39561 0.57847 0.0
H254 H 0.01098 0.45659 0.62121 0.0
H255 H 0.03928 0.45803 0.54439 0.0
H256 H 0.8697 0.48578 0.50872 0.0
H257 H 0.84028 0.57215 0.56881 0.0
H258 H 0.92101 0.50849 0.66075 0.0
C259 C 0.01162 0.33479 0.50694 0.0
C260 C 0.01912 0.31834 0.45309 0.0
C261 C 0.9827 0.34029 0.43484 0.0
C262 C 0.94195 0.38105 0.46764 0.0
C263 C 0.93774 0.39905 0.51892 0.0
C264 C 0.97064 0.37581 0.53929 0.0
C265 C 0.96212 0.40727 0.59224 0.0
C266 C 0.93294 0.3689 0.64574 0.0
C267 C 0.01826 0.43077 0.58348 0.0
C268 C 0.92317 0.45444 0.59533 0.0
C269 C 0.9086 0.44819 0.55346 0.0
C270 C 0.87855 0.48993 0.54344 0.0
C271 C 0.86234 0.53907 0.57751 0.0
C272 C 0.87792 0.54687 0.61975 0.0
C273 C 0.90776 0.50338 0.62933 0.0
H274 H 0.61367 0.05382 0.91592 0.0
H275 H 0.60484 0.03243 0.76057 0.0
H276 H 0.55605 0.94118 0.79699 0.0
H277 H 0.62623 0.89603 0.94123 0.0
H278 H 0.58199 0.90454 0.01804 0.0
H279 H 0.62709 0.96194 0.97493 0.0
H280 H 0.54 0.0286 0.01587 0.0
H281 H 0.49477 0.97129 0.05817 0.0
H282 H 0.48064 0.00878 0.00839 0.0
H283 H 0.49762 0.85997 0.85344 0.0
H284 H 0.43005 0.7956 0.9297 0.0
H285 H 0.4743 0.86915 0.04966 0.0
C286 C 0.60372 0.02848 0.88861 0.0
C287 C 0.61355 0.04964 0.83524 0.0
C288 C 0.59803 0.01661 0.80143 0.0
C289 C 0.57077 0.96446 0.82141 0.0
C290 C 0.5597 0.94546 0.87502 0.0
C291 C 0.57592 0.97614 0.90819 0.0
C292 C 0.5521 0.94974 0.96741 0.0
C293 C 0.59969 0.92671 0.97592 0.0
C294 C 0.51465 0.99213 0.01524 0.0
C295 C 0.51768 0.90165 0.96312 0.0
C296 C 0.52379 0.89909 0.90898 0.0
C297 C 0.49318 0.86084 0.89578 0.0
C298 C 0.4547 0.82464 0.9394 0.0
C299 C 0.44689 0.82743 -0.00446 0.0
C300 C 0.47965 0.86575 0.00702 0.0
H301 H 0.51294 0.82299 0.446 0.0
H302 H 0.61312 0.77118 0.52151 0.0
H303 H 0.56418 0.84187 0.59863 0.0
H304 H 0.51678 0.96397 0.46273 0.0
H305 H 0.44509 0.98053 0.48284 0.0
H306 H 0.47863 0.9185 0.4402 0.0
H307 H 0.39855 0.85431 0.51574 0.0
H308 H 0.36389 0.91675 0.55764 0.0
H309 H 0.37992 0.85828 0.59022 0.0
H310 H 0.52339 0.92988 0.65084 0.0
H311 H 0.47771 0.02078 0.69139 0.0
H312 H 0.40013 0.01734 0.58503 0.0
C313 C 0.52331 0.82539 0.47982 0.0
C314 C 0.56718 0.79196 0.47758 0.0
C315 C 0.57986 0.79642 0.52227 0.0
C316 C 0.55214 0.83638 0.56634 0.0
C317 C 0.51118 0.87067 0.56562 0.0
C318 C 0.49553 0.86472 0.52455 0.0
C319 C 0.45317 0.91005 0.53145 0.0
C320 C 0.47476 0.94534 0.47602 0.0
C321 C 0.39546 0.88326 0.54987 0.0
C322 C 0.45096 0.94498 0.57993 0.0
C323 C 0.48428 0.92075 0.5992 0.0
C324 C 0.49474 0.94782 0.63861 0.0
C325 C 0.46908 0.00011 0.66069 0.0
C326 C 0.43461 0.02629 0.64191 0.0
C327 C 0.42505 -0.00209 0.60128 0.0
H328 H 0.30758 0.87025 0.33698 0.0
H329 H 0.22851 0.70989 0.33867 0.0
H330 H 0.19534 0.69918 0.4422 0.0
H331 H 0.35765 0.82597 0.43033 0.0
H332 H 0.34541 0.89377 0.46589 0.0
H333 H 0.36001 0.8903 0.39277 0.0
H334 H 0.26593 0.94455 0.42317 0.0
H335 H 0.25353 0.94812 0.49561 0.0
H336 H 0.20105 0.91744 0.48252 0.0
H337 H 0.17131 0.705 0.5436 0.0
H338 H 0.16269 0.72294 0.63754 0.0
H339 H 0.26117 0.87766 0.57093 0.0
C340 C 0.28303 0.83303 0.35925 0.0
C341 C 0.27052 0.79084 0.32987 0.0
C342 C 0.2388 0.74251 0.36027 0.0
C343 C 0.21949 0.73625 0.4191 0.0
C344 C 0.23271 0.77844 0.44666 0.0
C345 C 0.26406 0.8257 0.41788 0.0
C346 C 0.27472 0.86314 0.45737 0.0
C347 C 0.33822 0.86856 0.43526 0.0
C348 C 0.24717 0.92179 0.46506 0.0
C349 C 0.24501 0.829 0.51265 0.0
C350 C 0.22041 0.78083 0.50543 0.0
C351 C 0.1904 0.74248 0.54986 0.0
C352 C 0.18579 0.75319 0.60311 0.0
C353 C 0.21142 0.80169 0.61157 0.0
C354 C 0.24121 0.84028 0.56571 0.0
H355 H 0.78064 0.6935 0.87987 0.0
H356 H 0.74436 0.86749 0.85536 0.0
H357 H 0.71394 0.8886 0.95685 0.0
H358 H 0.66361 0.67573 0.02386 0.0
H359 H 0.70274 0.63454 0.04837 0.0
H360 H 0.7222 0.63259 0.97359 0.0
H361 H 0.82396 0.66319 0.94352 0.0
H362 H 0.80496 0.6647 0.01816 0.0
H363 H 0.83501 0.72683 0.97379 0.0
H364 H 0.68479 0.89046 0.06007 0.0
H365 H 0.66561 0.87608 0.15862 0.0
H366 H 0.72181 0.70077 0.11776 0.0
C367 C 0.7662 0.73603 0.89589 0.0
C368 C 0.76469 0.77889 0.85979 0.0
C369 C 0.74585 0.83405 0.88222 0.0
C370 C 0.72824 0.84637 0.93983 0.0
C371 C 0.72957 0.80303 0.97437 0.0
C372 C 0.74848 0.74911 0.95333 0.0
C373 C 0.74669 0.71074 -0.00042 0.0
C374 C 0.7064 0.66043 0.01208 0.0
C375 C 0.80619 0.69018 0.98276 0.0
C376 C 0.72357 0.75161 0.05002 0.0
C377 C 0.7138 0.80444 0.0343 0.0
C378 C 0.6925 0.84942 0.07289 0.0
C379 C 0.6817 0.84063 0.12893 0.0
C380 C 0.69236 0.78724 0.14614 0.0
C381 C 0.71305 0.74196 0.10611 0.0
H382 H 0.7645 0.26815 0.38325 0.0
H383 H 0.80134 0.44865 0.36944 0.0
H384 H 0.8011 0.44561 0.46115 0.0
H385 H 0.67013 0.26573 0.53437 0.0
H386 H 0.69361 0.19793 0.5454 0.0
H387 H 0.69942 0.21394 0.47716 0.0
H388 H 0.80678 0.19207 0.42528 0.0
H389 H 0.80102 0.17641 0.49363 0.0
H390 H 0.85044 0.22931 0.44688 0.0
H391 H 0.78779 0.42513 0.55803 0.0
H392 H 0.77344 0.38635 0.64986 0.0
H393 H 0.74641 0.21889 0.60025 0.0
C394 C 0.77308 0.30678 0.39934 0.0
C395 C 0.78217 0.35874 0.36985 0.0
C396 C 0.79342 0.40853 0.39197 0.0
C397 C 0.79353 0.40726 0.44388 0.0
C398 C 0.7829 0.35574 0.4728 0.0
C399 C 0.77344 0.30628 0.4512 0.0
C400 C 0.76208 0.25683 0.49157 0.0
C401 C 0.70279 0.23218 0.5134 0.0
C402 C 0.80781 0.21095 0.4626 0.0
C403 C 0.76595 0.28649 0.53939 0.0
C404 C 0.77794 0.3435 0.52774 0.0
C405 C 0.78055 0.38023 0.56691 0.0
C406 C 0.77172 0.35794 0.61913 0.0
C407 C 0.75909 0.29965 0.63201 0.0
C408 C 0.75653 0.26361 0.59138 0.0
H409 H 0.2178 0.20903 0.11982 0.0
H410 H 0.21886 0.39324 0.13091 0.0
H411 H 0.23967 0.40074 0.03106 0.0
H412 H 0.33308 0.19985 0.97279 0.0
H413 H 0.30263 0.14145 0.95447 0.0
H414 H 0.28714 0.15018 0.02757 0.0
H415 H 0.18014 0.15092 0.06298 0.0
H416 H 0.19532 0.14254 -0.01007 0.0
H417 H 0.15292 0.20142 0.03274 0.0
H418 H 0.25903 0.38931 0.9305 0.0
H419 H 0.28092 0.35833 0.83339 0.0
H420 H 0.2693 0.18231 0.88658 0.0
C421 C 0.22259 0.25089 0.1012 0.0
C422 C 0.21641 0.30041 0.13353 0.0
C423 C 0.22319 0.35448 0.10734 0.0
C424 C 0.23495 0.35936 0.05053 0.0
C425 C 0.24028 0.30988 0.02008 0.0
C426 C 0.23474 0.25666 0.04419 0.0
C427 C 0.24336 0.21034 0.00145 0.0
C428 C 0.29461 0.17328 0.98829 0.0
C429 C 0.18974 0.17419 0.02308 0.0
C430 C 0.25455 0.24598 0.94984 0.0
C431 C 0.25226 0.30329 0.96157 0.0
C432 C 0.26107 0.34452 0.92061 0.0
C433 C 0.27329 0.32657 0.86575 0.0
C434 C 0.27695 0.268 0.8525 0.0
C435 C 0.26695 0.22739 0.89538 0.0
H436 H 0.35434 0.37609 0.28684 0.0
H437 H 0.32833 0.19713 0.33204 0.0
H438 H 0.42533 0.19049 0.3145 0.0
H439 H 0.49721 0.36128 0.17121 0.0
H440 H 0.52019 0.42779 0.18564 0.0
H441 H 0.44786 0.41886 0.20414 0.0
H442 H 0.41552 0.44803 0.30842 0.0
H443 H 0.4873 0.45525 0.29231 0.0
H444 H 0.43933 0.40858 0.34944 0.0
H445 H 0.52573 0.20183 0.28846 0.0
H446 H 0.62281 0.23105 0.25859 0.0
H447 H 0.58482 0.40289 0.22993 0.0
C448 C 0.36878 0.3357 0.29384 0.0
C449 C 0.33354 0.28718 0.3112 0.0
C450 C 0.35445 0.23489 0.31886 0.0
C451 C 0.40951 0.23067 0.30899 0.0
C452 C 0.44336 0.27902 0.29112 0.0
C453 C 0.42392 0.33056 0.2836 0.0
C454 C 0.46967 0.37554 0.26236 0.0
C455 C 0.48463 0.39711 0.20227 0.0
C456 C 0.45195 0.42475 0.30572 0.0
C457 C 0.5177 0.34129 0.2597 0.0
C458 C 0.50157 0.28564 0.27616 0.0
C459 C 0.53883 0.24534 0.27575 0.0
C460 C 0.59402 0.26233 0.2584 0.0
C461 C 0.61155 0.31926 0.24192 0.0
C462 C 0.5727 0.35912 0.24251 0.0
H463 H 0.61127 0.68994 0.70038 0.0
H464 H 0.65896 0.86682 0.69426 0.0
H465 H 0.56428 0.89637 0.71586 0.0
H466 H 0.52736 0.71614 0.63144 0.0
H467 H 0.47561 0.66272 0.67311 0.0
H468 H 0.5473 0.65474 0.65711 0.0
H469 H 0.51162 0.64501 0.76629 0.0
H470 H 0.4399 0.65363 0.78262 0.0
H471 H 0.46817 0.70027 0.81496 0.0
H472 H 0.46143 0.90675 0.75362 0.0
H473 H 0.36454 0.90043 0.77173 0.0
H474 H 0.38299 0.71767 0.74642 0.0
C475 C 0.60163 0.73486 0.70379 0.0
C476 C 0.64232 0.77605 0.69639 0.0
C477 C 0.6285 0.83446 0.70006 0.0
C478 C 0.57458 0.85174 0.71317 0.0
C479 C 0.53488 0.81025 0.72236 0.0
C480 C 0.54804 0.75312 0.71593 0.0
C481 C 0.49829 0.71786 0.72386 0.0
C482 C 0.51303 0.68599 0.66806 0.0
C483 C 0.47833 0.67676 0.77498 0.0
C484 C 0.45501 0.76418 0.73679 0.0
C485 C 0.4769 0.81694 0.73693 0.0
C486 C 0.44447 0.86604 0.75118 0.0
C487 C 0.38919 0.86185 0.76202 0.0
C488 C 0.36628 0.80868 0.75965 0.0
C489 C 0.39952 0.75904 0.74772 0.0
H490 H 0.12098 0.71731 0.17979 0.0
H491 H 0.14359 0.89952 0.18555 0.0
H492 H 0.04341 0.91455 0.21878 0.0
H493 H 0.02041 0.72646 0.12892 0.0
H494 H 0.97875 0.66723 0.17179 0.0
H495 H 0.05308 0.67005 0.14703 0.0
H496 H 0.03118 0.65985 0.25227 0.0
H497 H 0.95678 0.65742 0.2774 0.0
H498 H 0.98402 0.70968 0.30601 0.0
H499 H 0.94116 0.91101 0.25476 0.0
H500 H 0.84225 0.88941 0.28652 0.0
H501 H 0.88304 0.70966 0.25656 0.0
C502 C 0.10498 0.76038 0.18747 0.0
C503 C 0.14058 0.80717 0.17987 0.0
C504 C 0.11764 0.86284 0.19076 0.0
C505 C 0.06057 0.87195 0.20984 0.0
C506 C 0.02663 0.8251 0.21759 0.0
C507 C 0.04779 0.77042 0.20632 0.0
C508 C 1.00147 0.72782 0.21852 0.0
C509 C 0.0142 0.69602 0.16327 0.0
C510 C 0.99287 0.68624 0.2664 0.0
C511 C 0.95115 0.76724 0.2387 0.0
C512 C 0.96689 0.8231 0.23791 0.0
C513 C 0.92827 0.86746 0.25529 0.0
C514 C 0.87201 0.85462 0.27344 0.0
C515 C 0.85453 0.79779 0.27405 0.0
C516 C 0.89489 0.75353 0.25655 0.0
H517 H 0.14227 0.13354 0.69922 0.0
H518 H 0.18355 0.31314 0.67185 0.0
H519 H 0.08506 0.33531 0.70154 0.0
H520 H 0.04266 0.13821 0.64445 0.0
H521 H 0.99603 0.08634 0.69577 0.0
H522 H 0.07044 0.08412 0.67073 0.0
H523 H 0.04808 0.08824 0.77648 0.0
H524 H 0.97367 0.09177 0.80183 0.0
H525 H 0.00663 0.14632 0.82182 0.0
H526 H 0.98119 0.33963 0.74438 0.0
H527 H 0.8801 0.32492 0.78029 0.0
H528 H 0.90505 0.14229 0.77137 0.0
C529 C 0.13069 0.17738 0.69853 0.0
C530 C 0.17072 0.22162 0.68325 0.0
C531 C 0.1539 0.27847 0.68296 0.0
C532 C 0.09787 0.2916 0.7002 0.0
C533 C 0.05919 0.24734 0.71649 0.0
C534 C 0.07494 0.19124 0.71427 0.0
C535 C 0.02472 0.15198 0.73279 0.0
C536 C 0.03402 0.11286 0.68296 0.0
C537 C 0.01258 0.11752 0.78641 0.0
C538 C 0.97827 0.19498 0.74685 0.0
C539 C 0.99919 0.24973 0.73796 0.0
C540 C 0.96441 0.29696 0.75072 0.0
C541 C 0.90689 0.28813 0.77161 0.0
C542 C 0.88468 0.23251 0.77849 0.0
C543 C 0.92092 0.18529 0.76624 0.0
loop_
_geom_bond_atom_site_label_1
_geom_bond_atom_site_label_2
_geom_bond_distance
_geom_bond_site_symmetry_2
_ccdc_geom_bond_type
C0 O1 1.306 . S
C0 O3 1.160 . S
O1 C0 1.306 . S
O1 Cd2 2.228 . S
Cd2 O1 2.228 . S
Cd2 O6 2.273 . S
Cd2 O10 2.277 . S
O3 C0 1.160 . S
O3 Cd4 2.203 . S
Cd4 O3 2.203 . S
Cd4 O6 2.411 . S
Cd4 O7 2.333 . S
Cd4 O8 2.352 . S
Cd4 O12 2.277 . S
Cd4 O13 2.356 . S
C5 O10 1.209 . S
C5 O12 1.226 . S
O6 Cd2 2.273 . S
O6 Cd4 2.411 . S
O6 C9 1.320 . S
O7 Cd4 2.333 . S
O7 C9 1.214 . S
O8 Cd4 2.352 . S
O8 C11 1.258 . S
C9 O6 1.320 . S
C9 O7 1.214 . S
O10 Cd2 2.277 . S
O10 C5 1.209 . S
C11 O8 1.258 . S
C11 O13 1.282 . S
O12 Cd4 2.277 . S
O12 C5 1.226 . S
O13 Cd4 2.356 . S
O13 C11 1.282 . S
C14 O15 1.306 . S
C14 O17 1.160 . S
O15 C14 1.306 . S
O15 Cd16 2.228 . S
Cd16 O15 2.228 . S
Cd16 O20 2.273 . S
Cd16 O24 2.277 . S
O17 C14 1.160 . S
O17 Cd18 2.203 . S
Cd18 O17 2.203 . S
Cd18 O20 2.411 . S
Cd18 O21 2.333 . S
Cd18 O22 2.352 . S
Cd18 O26 2.277 . S
Cd18 O27 2.356 . S
C19 O24 1.209 . S
C19 O26 1.226 . S
O20 Cd16 2.273 . S
O20 Cd18 2.411 . S
O20 C23 1.320 . S
O21 Cd18 2.333 . S
O21 C23 1.214 . S
O22 Cd18 2.352 . S
O22 C25 1.258 . S
C23 O20 1.320 . S
C23 O21 1.214 . S
O24 Cd16 2.277 . S
O24 C19 1.209 . S
C25 O22 1.258 . S
C25 O27 1.282 . S
O26 Cd18 2.277 . S
O26 C19 1.226 . S
O27 Cd18 2.356 . S
O27 C25 1.282 . S
C28 O29 1.306 . S
C28 O31 1.160 . S
O29 C28 1.306 . S
O29 Cd30 2.228 . S
Cd30 O29 2.228 . S
Cd30 O34 2.273 . S
Cd30 O38 2.277 . S
O31 C28 1.160 . S
O31 Cd32 2.203 . S
Cd32 O31 2.203 . S
Cd32 O34 2.411 . S
Cd32 O35 2.333 . S
Cd32 O36 2.352 . S
Cd32 O40 2.277 . S
Cd32 O41 2.356 . S
C33 O38 1.209 . S
C33 O40 1.226 . S
O34 Cd30 2.273 . S
O34 Cd32 2.411 . S
O34 C37 1.320 . S
O35 Cd32 2.333 . S
O35 C37 1.214 . S
O36 Cd32 2.352 . S
O36 C39 1.258 . S
C37 O34 1.320 . S
C37 O35 1.214 . S
O38 Cd30 2.277 . S
O38 C33 1.209 . S
C39 O36 1.258 . S
C39 O41 1.282 . S
O40 Cd32 2.277 . S
O40 C33 1.226 . S
O41 Cd32 2.356 . S
O41 C39 1.282 . S
C42 O43 1.306 . S
C42 O45 1.160 . S
O43 C42 1.306 . S
O43 Cd44 2.228 . S
Cd44 O43 2.228 . S
Cd44 O48 2.273 . S
Cd44 O52 2.277 . S
O45 C42 1.160 . S
O45 Cd46 2.203 . S
Cd46 O45 2.203 . S
Cd46 O48 2.411 . S
Cd46 O49 2.333 . S
Cd46 O50 2.352 . S
Cd46 O54 2.277 . S
Cd46 O55 2.356 . S
C47 O52 1.209 . S
C47 O54 1.226 . S
O48 Cd44 2.273 . S
O48 Cd46 2.411 . S
O48 C51 1.320 . S
O49 Cd46 2.333 . S
O49 C51 1.214 . S
O50 Cd46 2.352 . S
O50 C53 1.258 . S
C51 O48 1.320 . S
C51 O49 1.214 . S
O52 Cd44 2.277 . S
O52 C47 1.209 . S
C53 O50 1.258 . S
C53 O55 1.282 . S
O54 Cd46 2.277 . S
O54 C47 1.226 . S
O55 Cd46 2.356 . S
O55 C53 1.282 . S
C56 O57 1.306 . S
C56 O59 1.160 . S
O57 C56 1.306 . S
O57 Cd58 2.228 . S
Cd58 O57 2.228 . S
Cd58 O62 2.273 . S
Cd58 O66 2.277 . S
O59 C56 1.160 . S
O59 Cd60 2.203 . S
Cd60 O59 2.203 . S
Cd60 O62 2.411 . S
Cd60 O63 2.333 . S
Cd60 O64 2.352 . S
Cd60 O68 2.277 . S
Cd60 O69 2.356 . S
C61 O66 1.209 . S
C61 O68 1.226 . S
O62 Cd58 2.273 . S
O62 Cd60 2.411 . S
O62 C65 1.320 . S
O63 Cd60 2.333 . S
O63 C65 1.214 . S
O64 Cd60 2.352 . S
O64 C67 1.258 . S
C65 O62 1.320 . S
C65 O63 1.214 . S
O66 Cd58 2.277 . S
O66 C61 1.209 . S
C67 O64 1.258 . S
C67 O69 1.282 . S
O68 Cd60 2.277 . S
O68 C61 1.226 . S
O69 Cd60 2.356 . S
O69 C67 1.282 . S
C70 O71 1.306 . S
C70 O73 1.160 . S
O71 C70 1.306 . S
O71 Cd72 2.228 . S
Cd72 O71 2.228 . S
Cd72 O76 2.273 . S
Cd72 O80 2.277 . S
O73 C70 1.160 . S
O73 Cd74 2.203 . S
Cd74 O73 2.203 . S
Cd74 O76 2.411 . S
Cd74 O77 2.333 . S
Cd74 O78 2.352 . S
Cd74 O82 2.277 . S
Cd74 O83 2.356 . S
C75 O80 1.209 . S
C75 O82 1.226 . S
O76 Cd72 2.273 . S
O76 Cd74 2.411 . S
O76 C79 1.320 . S
O77 Cd74 2.333 . S
O77 C79 1.214 . S
O78 Cd74 2.352 . S
O78 C81 1.258 . S
C79 O76 1.320 . S
C79 O77 1.214 . S
O80 Cd72 2.277 . S
O80 C75 1.209 . S
C81 O78 1.258 . S
C81 O83 1.282 . S
O82 Cd74 2.277 . S
O82 C75 1.226 . S
O83 Cd74 2.356 . S
O83 C81 1.282 . S
C84 O85 1.306 . S
C84 O87 1.160 . S
O85 C84 1.306 . S
O85 Cd86 2.228 . S
Cd86 O85 2.228 . S
Cd86 O90 2.273 . S
Cd86 O94 2.277 . S
O87 C84 1.160 . S
O87 Cd88 2.203 . S
Cd88 O87 2.203 . S
Cd88 O90 2.411 . S
Cd88 O91 2.333 . S
Cd88 O92 2.352 . S
Cd88 O96 2.277 . S
Cd88 O97 2.356 . S
C89 O94 1.209 . S
C89 O96 1.226 . S
O90 Cd86 2.273 . S
O90 Cd88 2.411 . S
O90 C93 1.320 . S
O91 Cd88 2.333 . S
O91 C93 1.214 . S
O92 Cd88 2.352 . S
O92 C95 1.258 . S
C93 O90 1.320 . S
C93 O91 1.214 . S
O94 Cd86 2.277 . S
O94 C89 1.209 . S
C95 O92 1.258 . S
C95 O97 1.282 . S
O96 Cd88 2.277 . S
O96 C89 1.226 . S
O97 Cd88 2.356 . S
O97 C95 1.282 . S
C98 O99 1.306 . S
C98 O101 1.160 . S
O99 C98 1.306 . S
O99 Cd100 2.228 . S
Cd100 O99 2.228 . S
Cd100 O104 2.273 . S
Cd100 O108 2.277 . S
O101 C98 1.160 . S
O101 Cd102 2.203 . S
Cd102 O101 2.203 . S
Cd102 O104 2.411 . S
Cd102 O105 2.333 . S
Cd102 O106 2.352 . S
Cd102 O110 2.277 . S
Cd102 O111 2.356 . S
C103 O108 1.209 . S
C103 O110 1.226 . S
O104 Cd100 2.273 . S
O104 Cd102 2.411 . S
O104 C107 1.320 . S
O105 Cd102 2.333 . S
O105 C107 1.214 . S
O106 Cd102 2.352 . S
O106 C109 1.258 . S
C107 O104 1.320 . S
C107 O105 1.214 . S
O108 Cd100 2.277 . S
O108 C103 1.209 . S
C109 O106 1.258 . S
C109 O111 1.282 . S
O110 Cd102 2.277 . S
O110 C103 1.226 . S
O111 Cd102 2.356 . S
O111 C109 1.282 . S
H112 C124 0.930 . S
H113 C126 0.930 . S
H114 C127 0.930 . S
H115 C131 0.959 . S
H116 C131 0.959 1_565 S
H117 C131 0.961 . S
H118 C132 0.957 . S
H119 C132 0.948 1_655 S
H120 C132 0.974 . S
H121 C135 0.929 . S
H122 C136 0.931 . S
H123 C138 0.930 . S
C124 H112 0.930 . S
C124 C125 1.399 . S
C124 C129 1.399 . S
C125 C124 1.399 . S
C125 C126 1.376 . S
C126 H113 0.930 . S
C126 C125 1.376 . S
C126 C127 1.388 . S
C127 H114 0.930 . S
C127 C126 1.388 . S
C127 C128 1.390 . S
C128 C127 1.390 . S
C128 C129 1.394 . S
C128 C134 1.465 1_545 S
C129 C124 1.399 . S
C129 C128 1.394 . S
C129 C130 1.516 1_445 S
C130 C129 1.516 1_665 S
C130 C131 1.502 1_565 S
C130 C132 1.562 1_655 S
C130 C133 1.526 . S
C131 H115 0.959 . S
C131 H116 0.959 1_545 S
C131 H117 0.961 . S
C131 C130 1.502 1_545 S
C132 H118 0.957 . S
C132 H119 0.948 1_455 S
C132 H120 0.974 . S
C132 C130 1.562 1_455 S
C133 C130 1.526 . S
C133 C134 1.396 1_655 S
C133 C138 1.390 . S
C134 C128 1.465 1_565 S
C134 C133 1.396 1_455 S
C134 C135 1.399 . S
C135 H121 0.929 . S
C135 C134 1.399 . S
C135 C136 1.385 1_455 S
C136 H122 0.931 . S
C136 C135 1.385 1_655 S
C136 C137 1.389 . S
C137 C136 1.389 . S
C137 C138 1.387 . S
C138 H123 0.930 . S
C138 C133 1.390 . S
C138 C137 1.387 . S
H139 C151 0.930 1_655 S
H140 C153 0.930 . S
H141 C154 0.930 . S
H142 C158 0.959 1_545 S
H143 C158 0.959 1_554 S
H144 C158 0.961 . S
H145 C159 0.960 . S
H146 C159 0.961 . S
H147 C159 0.959 . S
H148 C162 0.929 . S
H149 C163 0.931 1_455 S
H150 C165 0.930 . S
C151 H139 0.930 1_455 S
C151 C152 1.399 . S
C151 C156 1.399 1_455 S
C152 C151 1.399 . S
C152 C153 1.376 . S
C153 H140 0.930 . S
C153 C152 1.376 . S
C153 C154 1.388 . S
C154 H141 0.930 . S
C154 C153 1.388 . S
C154 C155 1.390 . S
C155 C154 1.390 . S
C155 C156 1.394 1_455 S
C155 C161 1.465 1_566 S
C156 C151 1.399 1_655 S
C156 C155 1.394 1_655 S
C156 C157 1.516 1_556 S
C157 C156 1.516 1_554 S
C157 C158 1.502 1_554 S
C157 C159 1.561 . S
C157 C160 1.526 1_565 S
C158 H142 0.959 1_565 S
C158 H143 0.959 1_556 S
C158 H144 0.961 . S
C158 C157 1.502 1_556 S
C159 H145 0.960 . S
C159 H146 0.961 . S
C159 H147 0.959 . S
C159 C157 1.561 . S
C160 C157 1.526 1_545 S
C160 C161 1.396 1_655 S
C160 C165 1.390 . S
C161 C155 1.465 1_544 S
C161 C160 1.396 1_455 S
C161 C162 1.399 . S
C162 H148 0.929 . S
C162 C161 1.399 . S
C162 C163 1.385 1_455 S
C163 H149 0.931 1_655 S
C163 C162 1.385 1_655 S
C163 C164 1.389 . S
C164 C163 1.389 . S
C164 C165 1.387 . S
C165 H150 0.930 . S
C165 C160 1.390 . S
C165 C164 1.387 . S
H166 C178 0.930 . S
H167 C180 0.930 . S
H168 C181 0.930 . S
H169 C185 0.959 . S
H170 C185 0.959 . S
H171 C185 0.961 . S
H172 C186 0.960 . S
H173 C186 0.961 . S
H174 C186 0.959 . S
H175 C189 0.929 . S
H176 C190 0.931 . S
H177 C192 0.930 . S
C178 H166 0.930 . S
C178 C179 1.399 . S
C178 C183 1.399 . S
C179 C178 1.399 . S
C179 C180 1.376 . S
C180 H167 0.930 . S
C180 C179 1.376 . S
C180 C181 1.388 . S
C181 H168 0.930 . S
C181 C180 1.388 . S
C181 C182 1.390 . S
C182 C181 1.390 . S
C182 C183 1.394 . S
C182 C188 1.465 . S
C183 C178 1.399 . S
C183 C182 1.394 . S
C183 C184 1.516 . S
C184 C183 1.516 . S
C184 C185 1.502 . S
C184 C186 1.561 . S
C184 C187 1.526 . S
C185 H169 0.959 . S
C185 H170 0.959 . S
C185 H171 0.961 . S
C185 C184 1.502 . S
C186 H172 0.960 . S
C186 H173 0.961 . S
C186 H174 0.959 . S
C186 C184 1.561 . S
C187 C184 1.526 . S
C187 C188 1.396 . S
C187 C192 1.390 . S
C188 C182 1.465 . S
C188 C187 1.396 . S
C188 C189 1.399 . S
C189 H175 0.929 . S
C189 C188 1.399 . S
C189 C190 1.385 . S
C190 H176 0.931 . S
C190 C189 1.385 . S
C190 C191 1.389 . S
C191 C190 1.389 . S
C191 C192 1.387 . S
C192 H177 0.930 . S
C192 C187 1.390 . S
C192 C191 1.387 . S
H193 C205 0.930 . S
H194 C207 0.930 . S
H195 C208 0.930 . S
H196 C212 0.967 . S
H197 C212 0.959 . S
H198 C212 0.961 . S
H199 C213 0.960 . S
H200 C213 0.961 . S
H201 C213 0.959 . S
H202 C216 0.929 1_554 S
H203 C217 0.931 . S
H204 C219 0.930 . S
C205 H193 0.930 . S
C205 C206 1.399 . S
C205 C210 1.399 . S
C206 C205 1.399 . S
C206 C207 1.376 . S
C207 H194 0.930 . S
C207 C206 1.376 . S
C207 C208 1.388 . S
C208 H195 0.930 . S
C208 C207 1.388 . S
C208 C209 1.390 . S
C209 C208 1.390 . S
C209 C210 1.394 . S
C209 C215 1.465 1_554 S
C210 C205 1.399 . S
C210 C209 1.394 . S
C210 C211 1.516 1_554 S
C211 C210 1.516 1_556 S
C211 C212 1.502 . S
C211 C213 1.561 . S
C211 C214 1.526 . S
C212 H196 0.967 . S
C212 H197 0.959 . S
C212 H198 0.961 . S
C212 C211 1.502 . S
C213 H199 0.960 . S
C213 H200 0.961 . S
C213 H201 0.959 . S
C213 C211 1.561 . S
C214 C211 1.526 . S
C214 C215 1.396 . S
C214 C219 1.390 . S
C215 C209 1.465 1_556 S
C215 C214 1.396 . S
C215 C216 1.399 . S
C216 H202 0.929 1_556 S
C216 C215 1.399 . S
C216 C217 1.385 . S
C217 H203 0.931 . S
C217 C216 1.385 . S
C217 C218 1.389 . S
C218 C217 1.389 . S
C218 C219 1.387 . S
C219 H204 0.930 . S
C219 C214 1.390 . S
C219 C218 1.387 . S
H220 C232 0.930 . S
H221 C234 0.930 . S
H222 C235 0.930 1_455 S
H223 C239 0.959 . S
H224 C239 0.959 . S
H225 C239 0.961 . S
H226 C240 0.960 . S
H227 C240 0.961 1_556 S
H228 C240 0.959 . S
H229 C243 0.929 1_554 S
H230 C244 0.931 . S
H231 C246 0.930 . S
C232 H220 0.930 . S
C232 C233 1.399 . S
C232 C237 1.399 . S
C233 C232 1.399 . S
C233 C234 1.376 . S
C234 H221 0.930 . S
C234 C233 1.376 . S
C234 C235 1.388 . S
C235 H222 0.930 1_655 S
C235 C234 1.388 . S
C235 C236 1.390 . S
C236 C235 1.390 . S
C236 C237 1.394 . S
C236 C242 1.463 1_654 S
C237 C232 1.399 . S
C237 C236 1.394 . S
C237 C238 1.516 1_554 S
C238 C237 1.516 1_556 S
C238 C239 1.502 . S
C238 C240 1.561 1_556 S
C238 C241 1.526 1_655 S
C239 H223 0.959 . S
C239 H224 0.959 . S
C239 H225 0.961 . S
C239 C238 1.502 . S
C240 H226 0.960 . S
C240 H227 0.961 1_554 S
C240 H228 0.959 . S
C240 C238 1.561 1_554 S
C241 C238 1.526 1_455 S
C241 C242 1.402 . S
C241 C246 1.390 . S
C242 C236 1.463 1_456 S
C242 C241 1.402 . S
C242 C243 1.395 . S
C243 H229 0.929 1_556 S
C243 C242 1.395 . S
C243 C244 1.385 . S
C244 H230 0.931 . S
C244 C243 1.385 . S
C244 C245 1.389 . S
C245 C244 1.389 . S
C245 C246 1.387 . S
C246 H231 0.930 . S
C246 C241 1.390 . S
C246 C245 1.387 . S
H247 C259 0.930 . S
H248 C261 0.930 . S
H249 C262 0.930 . S
H250 C266 0.959 1_655 S
H251 C266 0.959 . S
H252 C266 0.961 . S
H253 C267 0.960 . S
H254 C267 0.961 . S
H255 C267 0.959 . S
H256 C270 0.929 . S
H257 C271 0.931 . S
H258 C273 0.930 . S
C259 H247 0.930 . S
C259 C260 1.399 . S
C259 C264 1.399 . S
C260 C259 1.399 . S
C260 C261 1.376 . S
C261 H248 0.930 . S
C261 C260 1.376 . S
C261 C262 1.388 . S
C262 H249 0.930 . S
C262 C261 1.388 . S
C262 C263 1.390 . S
C263 C262 1.390 . S
C263 C264 1.394 . S
C263 C269 1.465 1_455 S
C264 C259 1.399 . S
C264 C263 1.394 . S
C264 C265 1.516 . S
C265 C264 1.516 . S
C265 C266 1.502 . S
C265 C267 1.561 . S
C265 C268 1.526 1_455 S
C266 H250 0.959 1_455 S
C266 H251 0.959 . S
C266 H252 0.961 . S
C266 C265 1.502 . S
C267 H253 0.960 . S
C267 H254 0.961 . S
C267 H255 0.959 . S
C267 C265 1.561 . S
C268 C265 1.526 1_655 S
C268 C269 1.396 . S
C268 C273 1.390 . S
C269 C263 1.465 1_655 S
C269 C268 1.396 . S
C269 C270 1.399 . S
C270 H256 0.929 . S
C270 C269 1.399 . S
C270 C271 1.385 . S
C271 H257 0.931 . S
C271 C270 1.385 . S
C271 C272 1.389 . S
C272 C271 1.389 . S
C272 C273 1.387 . S
C273 H258 0.930 . S
C273 C268 1.390 . S
C273 C272 1.387 . S
H274 C286 0.930 . S
H275 C288 0.930 . S
H276 C289 0.930 1_565 S
H277 C293 0.959 . S
H278 C293 0.959 . S
H279 C293 0.961 . S
H280 C294 0.960 . S
H281 C294 0.961 . S
H282 C294 0.959 . S
H283 C297 0.929 . S
H284 C298 0.931 . S
H285 C300 0.930 . S
C286 H274 0.930 . S
C286 C287 1.399 . S
C286 C291 1.399 . S
C287 C286 1.399 . S
C287 C288 1.376 . S
C288 H275 0.930 . S
C288 C287 1.376 . S
C288 C289 1.388 . S
C289 H276 0.930 1_545 S
C289 C288 1.388 . S
C289 C290 1.390 . S
C290 C289 1.390 . S
C290 C291 1.394 . S
C290 C296 1.465 1_545 S
C291 C286 1.399 . S
C291 C290 1.394 . S
C291 C292 1.516 1_556 S
C292 C291 1.516 1_554 S
C292 C293 1.502 . S
C292 C294 1.561 . S
C292 C295 1.526 1_545 S
C293 H277 0.959 . S
C293 H278 0.959 . S
C293 H279 0.961 . S
C293 C292 1.502 . S
C294 H280 0.960 . S
C294 H281 0.961 . S
C294 H282 0.959 . S
C294 C292 1.561 . S
C295 C292 1.526 1_565 S
C295 C296 1.396 1_554 S
C295 C300 1.390 . S
C296 C290 1.465 1_565 S
C296 C295 1.396 1_556 S
C296 C297 1.399 . S
C297 H283 0.929 . S
C297 C296 1.399 . S
C297 C298 1.385 1_556 S
C298 H284 0.931 . S
C298 C297 1.385 1_554 S
C298 C299 1.389 . S
C299 C298 1.389 . S
C299 C300 1.387 . S
C300 H285 0.930 . S
C300 C295 1.390 . S
C300 C299 1.387 . S
H301 C313 0.930 . S
H302 C315 0.930 . S
H303 C316 0.930 . S
H304 C320 0.959 . S
H305 C320 0.959 . S
H306 C320 0.961 . S
H307 C321 0.960 . S
H308 C321 0.961 . S
H309 C321 0.959 . S
H310 C324 0.929 . S
H311 C325 0.931 . S
H312 C327 0.930 . S
C313 H301 0.930 . S
C313 C314 1.399 . S
C313 C318 1.399 . S
C314 C313 1.399 . S
C314 C315 1.376 . S
C315 H302 0.930 . S
C315 C314 1.376 . S
C315 C316 1.388 1_565 S
C316 H303 0.930 . S
C316 C315 1.388 1_545 S
C316 C317 1.390 1_545 S
C317 C316 1.390 1_565 S
C317 C318 1.394 . S
C317 C323 1.465 1_565 S
C318 C313 1.399 . S
C318 C317 1.394 . S
C318 C319 1.516 . S
C319 C318 1.516 . S
C319 C320 1.502 . S
C319 C321 1.561 . S
C319 C322 1.526 1_565 S
C320 H304 0.959 . S
C320 H305 0.959 . S
C320 H306 0.961 . S
C320 C319 1.502 . S
C321 H307 0.960 . S
C321 H308 0.961 . S
C321 H309 0.959 . S
C321 C319 1.561 . S
C322 C319 1.526 1_545 S
C322 C323 1.396 . S
C322 C327 1.390 . S
C323 C317 1.465 1_545 S
C323 C322 1.396 . S
C323 C324 1.399 . S
C324 H310 0.929 . S
C324 C323 1.399 . S
C324 C325 1.385 . S
C325 H311 0.931 . S
C325 C324 1.385 . S
C325 C326 1.389 . S
C326 C325 1.389 . S
C326 C327 1.387 . S
C327 H312 0.930 . S
C327 C322 1.390 . S
C327 C326 1.387 . S
H328 C340 0.930 . S
H329 C342 0.930 . S
H330 C343 0.930 . S
H331 C347 0.959 . S
H332 C347 0.959 . S
H333 C347 0.961 . S
H334 C348 0.960 . S
H335 C348 0.961 . S
H336 C348 0.959 . S
H337 C351 0.929 . S
H338 C352 0.931 . S
H339 C354 0.930 . S
C340 H328 0.930 . S
C340 C341 1.399 . S
C340 C345 1.399 . S
C341 C340 1.399 . S
C341 C342 1.376 . S
C342 H329 0.930 . S
C342 C341 1.376 . S
C342 C343 1.388 . S
C343 H330 0.930 . S
C343 C342 1.388 . S
C343 C344 1.390 . S
C344 C343 1.390 . S
C344 C345 1.394 . S
C344 C350 1.465 . S
C345 C340 1.399 . S
C345 C344 1.394 . S
C345 C346 1.516 . S
C346 C345 1.516 . S
C346 C347 1.502 . S
C346 C348 1.561 . S
C346 C349 1.526 . S
C347 H331 0.959 . S
C347 H332 0.959 . S
C347 H333 0.961 . S
C347 C346 1.502 . S
C348 H334 0.960 . S
C348 H335 0.961 . S
C348 H336 0.959 . S
C348 C346 1.561 . S
C349 C346 1.526 . S
C349 C350 1.396 . S
C349 C354 1.390 . S
C350 C344 1.465 . S
C350 C349 1.396 . S
C350 C351 1.399 . S
C351 H337 0.929 . S
C351 C350 1.399 . S
C351 C352 1.385 . S
C352 H338 0.931 . S
C352 C351 1.385 . S
C352 C353 1.389 . S
C353 C352 1.389 . S
C353 C354 1.387 . S
C354 H339 0.930 . S
C354 C349 1.390 . S
C354 C353 1.387 . S
H355 C367 0.930 . S
H356 C369 0.930 . S
H357 C370 0.930 . S
H358 C374 0.959 . S
H359 C374 0.959 . S
H360 C374 0.961 1_556 S
H361 C375 0.960 . S
H362 C375 0.961 1_554 S
H363 C375 0.959 . S
H364 C378 0.929 . S
H365 C379 0.931 . S
H366 C381 0.930 . S
C367 H355 0.930 . S
C367 C368 1.399 . S
C367 C372 1.399 . S
C368 C367 1.399 . S
C368 C369 1.376 . S
C369 H356 0.930 . S
C369 C368 1.376 . S
C369 C370 1.388 . S
C370 H357 0.930 . S
C370 C369 1.388 . S
C370 C371 1.390 . S
C371 C370 1.390 . S
C371 C372 1.394 . S
C371 C377 1.465 1_556 S
C372 C367 1.399 . S
C372 C371 1.394 . S
C372 C373 1.516 1_556 S
C373 C372 1.516 1_554 S
C373 C374 1.502 . S
C373 C375 1.561 1_554 S
C373 C376 1.526 . S
C374 H358 0.959 . S
C374 H359 0.959 . S
C374 H360 0.961 1_554 S
C374 C373 1.502 . S
C375 H361 0.960 . S
C375 H362 0.961 1_556 S
C375 H363 0.959 . S
C375 C373 1.561 1_556 S
C376 C373 1.526 . S
C376 C377 1.396 . S
C376 C381 1.390 . S
C377 C371 1.465 1_554 S
C377 C376 1.396 . S
C377 C378 1.399 . S
C378 H364 0.929 . S
C378 C377 1.399 . S
C378 C379 1.385 . S
C379 H365 0.931 . S
C379 C378 1.385 . S
C379 C380 1.389 . S
C380 C379 1.389 . S
C380 C381 1.387 . S
C381 H366 0.930 . S
C381 C376 1.390 . S
C381 C380 1.387 . S
H382 C394 0.930 . S
H383 C396 0.930 . S
H384 C397 0.930 . S
H385 C401 0.959 . S
H386 C401 0.959 . S
H387 C401 0.961 . S
H388 C402 0.960 . S
H389 C402 0.961 . S
H390 C402 0.959 . S
H391 C405 0.929 . S
H392 C406 0.931 . S
H393 C408 0.930 . S
C394 H382 0.930 . S
C394 C395 1.399 . S
C394 C399 1.399 . S
C395 C394 1.399 . S
C395 C396 1.376 . S
C396 H383 0.930 . S
C396 C395 1.376 . S
C396 C397 1.388 . S
C397 H384 0.930 . S
C397 C396 1.388 . S
C397 C398 1.390 . S
C398 C397 1.390 . S
C398 C399 1.394 . S
C398 C404 1.465 . S
C399 C394 1.399 . S
C399 C398 1.394 . S
C399 C400 1.516 . S
C400 C399 1.516 . S
C400 C401 1.502 . S
C400 C402 1.561 . S
C400 C403 1.526 . S
C401 H385 0.959 . S
C401 H386 0.959 . S
C401 H387 0.961 . S
C401 C400 1.502 . S
C402 H388 0.960 . S
C402 H389 0.961 . S
C402 H390 0.959 . S
C402 C400 1.561 . S
C403 C400 1.526 . S
C403 C404 1.396 . S
C403 C408 1.390 . S
C404 C398 1.465 . S
C404 C403 1.396 . S
C404 C405 1.399 . S
C405 H391 0.929 . S
C405 C404 1.399 . S
C405 C406 1.385 . S
C406 H392 0.931 . S
C406 C405 1.385 . S
C406 C407 1.389 . S
C407 C406 1.389 . S
C407 C408 1.387 . S
C408 H393 0.930 . S
C408 C403 1.390 . S
C408 C407 1.387 . S
H409 C421 0.930 . S
H410 C423 0.930 . S
H411 C424 0.930 . S
H412 C428 0.959 . S
H413 C428 0.959 . S
H414 C428 0.961 1_554 S
H415 C429 0.960 . S
H416 C429 0.961 1_556 S
H417 C429 0.959 . S
H418 C432 0.929 . S
H419 C433 0.931 . S
H420 C435 0.930 . S
C421 H409 0.930 . S
C421 C422 1.399 . S
C421 C426 1.399 . S
C422 C421 1.399 . S
C422 C423 1.376 . S
C423 H410 0.930 . S
C423 C422 1.376 . S
C423 C424 1.388 . S
C424 H411 0.930 . S
C424 C423 1.388 . S
C424 C425 1.390 . S
C425 C424 1.390 . S
C425 C426 1.394 . S
C425 C431 1.465 1_554 S
C426 C421 1.399 . S
C426 C425 1.394 . S
C426 C427 1.516 1_554 S
C427 C426 1.516 1_556 S
C427 C428 1.502 . S
C427 C429 1.561 1_556 S
C427 C430 1.526 . S
C428 H412 0.959 . S
C428 H413 0.959 . S
C428 H414 0.961 1_556 S
C428 C427 1.502 . S
C429 H415 0.960 . S
C429 H416 0.961 1_554 S
C429 H417 0.959 . S
C429 C427 1.561 1_554 S
C430 C427 1.526 . S
C430 C431 1.396 . S
C430 C435 1.390 . S
C431 C425 1.465 1_556 S
C431 C430 1.396 . S
C431 C432 1.399 . S
C432 H418 0.929 . S
C432 C431 1.399 . S
C432 C433 1.385 . S
C433 H419 0.931 . S
C433 C432 1.385 . S
C433 C434 1.389 . S
C434 C433 1.389 . S
C434 C435 1.387 . S
C435 H420 0.930 . S
C435 C430 1.390 . S
C435 C434 1.387 . S
H436 C448 0.930 . S
H437 C450 0.930 . S
H438 C451 0.930 . S
H439 C455 0.959 . S
H440 C455 0.959 . S
H441 C455 0.961 . S
H442 C456 0.960 . S
H443 C456 0.961 . S
H444 C456 0.959 . S
H445 C459 0.929 . S
H446 C460 0.931 . S
H447 C462 0.930 . S
C448 H436 0.930 . S
C448 C449 1.399 . S
C448 C453 1.399 . S
C449 C448 1.399 . S
C449 C450 1.376 . S
C450 H437 0.930 . S
C450 C449 1.376 . S
C450 C451 1.388 . S
C451 H438 0.930 . S
C451 C450 1.388 . S
C451 C452 1.390 . S
C452 C451 1.390 . S
C452 C453 1.394 . S
C452 C458 1.465 . S
C453 C448 1.399 . S
C453 C452 1.394 . S
C453 C454 1.516 . S
C454 C453 1.516 . S
C454 C455 1.502 . S
C454 C456 1.561 . S
C454 C457 1.526 . S
C455 H439 0.959 . S
C455 H440 0.959 . S
C455 H441 0.961 . S
C455 C454 1.502 . S
C456 H442 0.960 . S
C456 H443 0.961 . S
C456 H444 0.959 . S
C456 C454 1.561 . S
C457 C454 1.526 . S
C457 C458 1.396 . S
C457 C462 1.390 . S
C458 C452 1.465 . S
C458 C457 1.396 . S
C458 C459 1.399 . S
C459 H445 0.929 . S
C459 C458 1.399 . S
C459 C460 1.385 . S
C460 H446 0.931 . S
C460 C459 1.385 . S
C460 C461 1.389 . S
C461 C460 1.389 . S
C461 C462 1.387 . S
C462 H447 0.930 . S
C462 C457 1.390 . S
C462 C461 1.387 . S
H463 C475 0.930 . S
H464 C477 0.930 . S
H465 C478 0.930 . S
H466 C482 0.959 . S
H467 C482 0.959 . S
H468 C482 0.961 . S
H469 C483 0.960 . S
H470 C483 0.961 . S
H471 C483 0.959 . S
H472 C486 0.929 . S
H473 C487 0.931 . S
H474 C489 0.930 . S
C475 H463 0.930 . S
C475 C476 1.399 . S
C475 C480 1.399 . S
C476 C475 1.399 . S
C476 C477 1.376 . S
C477 H464 0.930 . S
C477 C476 1.376 . S
C477 C478 1.388 . S
C478 H465 0.930 . S
C478 C477 1.388 . S
C478 C479 1.390 . S
C479 C478 1.390 . S
C479 C480 1.394 . S
C479 C485 1.465 . S
C480 C475 1.399 . S
C480 C479 1.394 . S
C480 C481 1.516 . S
C481 C480 1.516 . S
C481 C482 1.502 . S
C481 C483 1.561 . S
C481 C484 1.526 . S
C482 H466 0.959 . S
C482 H467 0.959 . S
C482 H468 0.961 . S
C482 C481 1.502 . S
C483 H469 0.960 . S
C483 H470 0.961 . S
C483 H471 0.959 . S
C483 C481 1.561 . S
C484 C481 1.526 . S
C484 C485 1.396 . S
C484 C489 1.390 . S
C485 C479 1.465 . S
C485 C484 1.396 . S
C485 C486 1.399 . S
C486 H472 0.929 . S
C486 C485 1.399 . S
C486 C487 1.385 . S
C487 H473 0.931 . S
C487 C486 1.385 . S
C487 C488 1.389 . S
C488 C487 1.389 . S
C488 C489 1.387 . S
C489 H474 0.930 . S
C489 C484 1.390 . S
C489 C488 1.387 . S
H490 C502 0.930 . S
H491 C504 0.930 . S
H492 C505 0.930 . S
H493 C509 0.959 . S
H494 C509 0.959 1_655 S
H495 C509 0.961 . S
H496 C510 0.960 1_455 S
H497 C510 0.961 . S
H498 C510 0.959 . S
H499 C513 0.929 . S
H500 C514 0.931 . S
H501 C516 0.930 . S
C502 H490 0.930 . S
C502 C503 1.399 . S
C502 C507 1.399 . S
C503 C502 1.399 . S
C503 C504 1.376 . S
C504 H491 0.930 . S
C504 C503 1.376 . S
C504 C505 1.388 . S
C505 H492 0.930 . S
C505 C504 1.388 . S
C505 C506 1.390 . S
C506 C505 1.390 . S
C506 C507 1.394 . S
C506 C512 1.465 1_455 S
C507 C502 1.399 . S
C507 C506 1.394 . S
C507 C508 1.516 . S
C508 C507 1.516 . S
C508 C509 1.502 . S
C508 C510 1.561 1_455 S
C508 C511 1.526 1_455 S
C509 H493 0.959 . S
C509 H494 0.959 1_455 S
C509 H495 0.961 . S
C509 C508 1.502 . S
C510 H496 0.960 1_655 S
C510 H497 0.961 . S
C510 H498 0.959 . S
C510 C508 1.561 1_655 S
C511 C508 1.526 1_655 S
C511 C512 1.396 . S
C511 C516 1.390 . S
C512 C506 1.465 1_655 S
C512 C511 1.396 . S
C512 C513 1.399 . S
C513 H499 0.929 . S
C513 C512 1.399 . S
C513 C514 1.385 . S
C514 H500 0.931 . S
C514 C513 1.385 . S
C514 C515 1.389 . S
C515 C514 1.389 . S
C515 C516 1.387 . S
C516 H501 0.930 . S
C516 C511 1.390 . S
C516 C515 1.387 . S
H517 C529 0.930 . S
H518 C531 0.930 . S
H519 C532 0.930 . S
H520 C536 0.959 . S
H521 C536 0.959 1_655 S
H522 C536 0.961 . S
H523 C537 0.960 1_455 S
H524 C537 0.961 . S
H525 C537 0.959 . S
H526 C540 0.929 . S
H527 C541 0.931 . S
H528 C543 0.930 . S
C529 H517 0.930 . S
C529 C530 1.399 . S
C529 C534 1.399 . S
C530 C529 1.399 . S
C530 C531 1.376 . S
C531 H518 0.930 . S
C531 C530 1.376 . S
C531 C532 1.388 . S
C532 H519 0.930 . S
C532 C531 1.388 . S
C532 C533 1.390 . S
C533 C532 1.390 . S
C533 C534 1.394 . S
C533 C539 1.465 1_455 S
C534 C529 1.399 . S
C534 C533 1.394 . S
C534 C535 1.516 . S
C535 C534 1.516 . S
C535 C536 1.502 . S
C535 C537 1.561 1_455 S
C535 C538 1.526 1_455 S
C536 H520 0.959 . S
C536 H521 0.959 1_455 S
C536 H522 0.961 . S
C536 C535 1.502 . S
C537 H523 0.960 1_655 S
C537 H524 0.961 . S
C537 H525 0.959 . S
C537 C535 1.561 1_655 S
C538 C535 1.526 1_655 S
C538 C539 1.396 . S
C538 C543 1.390 . S
C539 C533 1.465 1_655 S
C539 C538 1.396 . S
C539 C540 1.399 . S
C540 H526 0.929 . S
C540 C539 1.399 . S
C540 C541 1.385 . S
C541 H527 0.931 . S
C541 C540 1.385 . S
C541 C542 1.389 . S
C542 C541 1.389 . S
C542 C543 1.387 . S
C543 H528 0.930 . S
C543 C538 1.390 . S
C543 C542 1.387 . S
C125 C11 1.796 . S
C137 C33 1.844 . S
C152 C47 1.817 . S
C164 C25 1.834 . S
C179 C89 1.825 . S
C191 C67 1.817 . S
C206 C81 1.836 . S
C218 C103 1.818 . S
C233 C23 1.235 . S
C245 C42 1.272 . S
C260 C9 1.245 . S
C272 C28 1.268 . S
C287 C98 1.224 . S
C299 C79 1.240 . S
C314 C65 1.275 . S
C326 C84 1.215 . S
C341 C70 1.515 . S
C353 C51 1.511 . S
C368 C37 1.524 . S
C380 C56 1.484 . S
C395 C14 1.491 . S
C407 C107 1.513 . S
C422 C0 1.490 . S
C434 C93 1.514 . S
C449 C5 1.522 . S
C461 C19 1.520 . S
C476 C39 1.559 . S
C488 C53 1.566 . S
C503 C75 1.540 . S
C515 C61 1.542 . S
C530 C95 1.558 . S
C542 C109 1.555 . S
