# Generated by pormake.
# Topology ukp, (4)-cn, num edge types: 1
# Building blocks:
#     Node 0, Type 0, BuildingBlock: CEKHIL_clean_sbu_0, # of connection points: 4
#     Node 1, Type 0, BuildingBlock: CEKHIL_clean_sbu_0, # of connection points: 4
#     Node 2, Type 0, BuildingBlock: CEKHIL_clean_sbu_0, # of connection points: 4
#     Node 3, Type 0, BuildingBlock: CEKHIL_clean_sbu_0, # of connection points: 4
#     Node 4, Type 0, BuildingBlock: CEKHIL_clean_sbu_0, # of connection points: 4
#     Node 5, Type 0, BuildingBlock: CEKHIL_clean_sbu_0, # of connection points: 4
#     Node 6, Type 0, BuildingBlock: CEKHIL_clean_sbu_0, # of connection points: 4
#     Node 7, Type 0, BuildingBlock: CEKHIL_clean_sbu_0, # of connection points: 4
#     Node 8, Type 0, BuildingBlock: CEKHIL_clean_sbu_0, # of connection points: 4
#     Node 9, Type 0, BuildingBlock: CEKHIL_clean_sbu_0, # of connection points: 4
#     Node 10, Type 0, BuildingBlock: CEKHIL_clean_sbu_0, # of connection points: 4
#     Node 11, Type 0, BuildingBlock: CEKHIL_clean_sbu_0, # of connection points: 4
#     Node 12, Type 0, BuildingBlock: CEKHIL_clean_sbu_0, # of connection points: 4
#     Node 13, Type 0, BuildingBlock: CEKHIL_clean_sbu_0, # of connection points: 4
#     Node 14, Type 0, BuildingBlock: CEKHIL_clean_sbu_0, # of connection points: 4
#     Node 15, Type 0, BuildingBlock: CEKHIL_clean_sbu_0, # of connection points: 4
#     Node 16, Type 0, BuildingBlock: CEKHIL_clean_sbu_0, # of connection points: 4
#     Node 17, Type 0, BuildingBlock: CEKHIL_clean_sbu_0, # of connection points: 4
#     Node 18, Type 0, BuildingBlock: CEKHIL_clean_sbu_0, # of connection points: 4
#     Node 19, Type 0, BuildingBlock: CEKHIL_clean_sbu_0, # of connection points: 4
#     Node 20, Type 0, BuildingBlock: CEKHIL_clean_sbu_0, # of connection points: 4
#     Node 21, Type 0, BuildingBlock: CEKHIL_clean_sbu_0, # of connection points: 4
#     Node 22, Type 0, BuildingBlock: CEKHIL_clean_sbu_0, # of connection points: 4
#     Node 23, Type 0, BuildingBlock: CEKHIL_clean_sbu_0, # of connection points: 4
#     Node 24, Type 0, BuildingBlock: CEKHIL_clean_sbu_0, # of connection points: 4
#     Node 25, Type 0, BuildingBlock: CEKHIL_clean_sbu_0, # of connection points: 4
#     Node 26, Type 0, BuildingBlock: CEKHIL_clean_sbu_0, # of connection points: 4
#     Node 27, Type 0, BuildingBlock: CEKHIL_clean_sbu_0, # of connection points: 4
#     Node 28, Type 0, BuildingBlock: CEKHIL_clean_sbu_0, # of connection points: 4
#     Node 29, Type 0, BuildingBlock: CEKHIL_clean_sbu_0, # of connection points: 4
#     Node 30, Type 0, BuildingBlock: CEKHIL_clean_sbu_0, # of connection points: 4
#     Node 31, Type 0, BuildingBlock: CEKHIL_clean_sbu_0, # of connection points: 4
#     Node 32, Type 0, BuildingBlock: CEKHIL_clean_sbu_0, # of connection points: 4
#     Node 33, Type 0, BuildingBlock: CEKHIL_clean_sbu_0, # of connection points: 4
#     Node 34, Type 0, BuildingBlock: CEKHIL_clean_sbu_0, # of connection points: 4
#     Node 35, Type 0, BuildingBlock: CEKHIL_clean_sbu_0, # of connection points: 4
#     Node 36, Type 0, BuildingBlock: CEKHIL_clean_sbu_0, # of connection points: 4
#     Node 37, Type 0, BuildingBlock: CEKHIL_clean_sbu_0, # of connection points: 4
#     Node 38, Type 0, BuildingBlock: CEKHIL_clean_sbu_0, # of connection points: 4
#     Node 39, Type 0, BuildingBlock: CEKHIL_clean_sbu_0, # of connection points: 4
#     Node 40, Type 0, BuildingBlock: CEKHIL_clean_sbu_0, # of connection points: 4
#     Node 41, Type 0, BuildingBlock: CEKHIL_clean_sbu_0, # of connection points: 4
#     Node 42, Type 0, BuildingBlock: CEKHIL_clean_sbu_0, # of connection points: 4
#     Node 43, Type 0, BuildingBlock: CEKHIL_clean_sbu_0, # of connection points: 4
#     Node 44, Type 0, BuildingBlock: CEKHIL_clean_sbu_0, # of connection points: 4
#     Node 45, Type 0, BuildingBlock: CEKHIL_clean_sbu_0, # of connection points: 4
#     Node 46, Type 0, BuildingBlock: CEKHIL_clean_sbu_0, # of connection points: 4
#     Node 47, Type 0, BuildingBlock: CEKHIL_clean_sbu_0, # of connection points: 4
#     Edge 48, Type (0, 0), BuildingBlock: EZIPEK_clean_linker_0, # of connection points: 2
#     Edge 49, Type (0, 0), BuildingBlock: EZIPEK_clean_linker_0, # of connection points: 2
#     Edge 50, Type (0, 0), BuildingBlock: EZIPEK_clean_linker_0, # of connection points: 2
#     Edge 51, Type (0, 0), BuildingBlock: EZIPEK_clean_linker_0, # of connection points: 2
#     Edge 52, Type (0, 0), BuildingBlock: EZIPEK_clean_linker_0, # of connection points: 2
#     Edge 53, Type (0, 0), BuildingBlock: EZIPEK_clean_linker_0, # of connection points: 2
#     Edge 54, Type (0, 0), BuildingBlock: EZIPEK_clean_linker_0, # of connection points: 2
#     Edge 55, Type (0, 0), BuildingBlock: EZIPEK_clean_linker_0, # of connection points: 2
#     Edge 56, Type (0, 0), BuildingBlock: EZIPEK_clean_linker_0, # of connection points: 2
#     Edge 57, Type (0, 0), BuildingBlock: EZIPEK_clean_linker_0, # of connection points: 2
#     Edge 58, Type (0, 0), BuildingBlock: EZIPEK_clean_linker_0, # of connection points: 2
#     Edge 59, Type (0, 0), BuildingBlock: EZIPEK_clean_linker_0, # of connection points: 2
#     Edge 60, Type (0, 0), BuildingBlock: EZIPEK_clean_linker_0, # of connection points: 2
#     Edge 61, Type (0, 0), BuildingBlock: EZIPEK_clean_linker_0, # of connection points: 2
#     Edge 62, Type (0, 0), BuildingBlock: EZIPEK_clean_linker_0, # of connection points: 2
#     Edge 63, Type (0, 0), BuildingBlock: EZIPEK_clean_linker_0, # of connection points: 2
#     Edge 64, Type (0, 0), BuildingBlock: EZIPEK_clean_linker_0, # of connection points: 2
#     Edge 65, Type (0, 0), BuildingBlock: EZIPEK_clean_linker_0, # of connection points: 2
#     Edge 66, Type (0, 0), BuildingBlock: EZIPEK_clean_linker_0, # of connection points: 2
#     Edge 67, Type (0, 0), BuildingBlock: EZIPEK_clean_linker_0, # of connection points: 2
#     Edge 68, Type (0, 0), BuildingBlock: EZIPEK_clean_linker_0, # of connection points: 2
#     Edge 69, Type (0, 0), BuildingBlock: EZIPEK_clean_linker_0, # of connection points: 2
#     Edge 70, Type (0, 0), BuildingBlock: EZIPEK_clean_linker_0, # of connection points: 2
#     Edge 71, Type (0, 0), BuildingBlock: EZIPEK_clean_linker_0, # of connection points: 2
#     Edge 72, Type (0, 0), BuildingBlock: EZIPEK_clean_linker_0, # of connection points: 2
#     Edge 73, Type (0, 0), BuildingBlock: EZIPEK_clean_linker_0, # of connection points: 2
#     Edge 74, Type (0, 0), BuildingBlock: EZIPEK_clean_linker_0, # of connection points: 2
#     Edge 75, Type (0, 0), BuildingBlock: EZIPEK_clean_linker_0, # of connection points: 2
#     Edge 76, Type (0, 0), BuildingBlock: EZIPEK_clean_linker_0, # of connection points: 2
#     Edge 77, Type (0, 0), BuildingBlock: EZIPEK_clean_linker_0, # of connection points: 2
#     Edge 78, Type (0, 0), BuildingBlock: EZIPEK_clean_linker_0, # of connection points: 2
#     Edge 79, Type (0, 0), BuildingBlock: EZIPEK_clean_linker_0, # of connection points: 2
#     Edge 80, Type (0, 0), BuildingBlock: EZIPEK_clean_linker_0, # of connection points: 2
#     Edge 81, Type (0, 0), BuildingBlock: EZIPEK_clean_linker_0, # of connection points: 2
#     Edge 82, Type (0, 0), BuildingBlock: EZIPEK_clean_linker_0, # of connection points: 2
#     Edge 83, Type (0, 0), BuildingBlock: EZIPEK_clean_linker_0, # of connection points: 2
#     Edge 84, Type (0, 0), BuildingBlock: EZIPEK_clean_linker_0, # of connection points: 2
#     Edge 85, Type (0, 0), BuildingBlock: EZIPEK_clean_linker_0, # of connection points: 2
#     Edge 86, Type (0, 0), BuildingBlock: EZIPEK_clean_linker_0, # of connection points: 2
#     Edge 87, Type (0, 0), BuildingBlock: EZIPEK_clean_linker_0, # of connection points: 2
#     Edge 88, Type (0, 0), BuildingBlock: EZIPEK_clean_linker_0, # of connection points: 2
#     Edge 89, Type (0, 0), BuildingBlock: EZIPEK_clean_linker_0, # of connection points: 2
#     Edge 90, Type (0, 0), BuildingBlock: EZIPEK_clean_linker_0, # of connection points: 2
#     Edge 91, Type (0, 0), BuildingBlock: EZIPEK_clean_linker_0, # of connection points: 2
#     Edge 92, Type (0, 0), BuildingBlock: EZIPEK_clean_linker_0, # of connection points: 2
#     Edge 93, Type (0, 0), BuildingBlock: EZIPEK_clean_linker_0, # of connection points: 2
#     Edge 94, Type (0, 0), BuildingBlock: EZIPEK_clean_linker_0, # of connection points: 2
#     Edge 95, Type (0, 0), BuildingBlock: EZIPEK_clean_linker_0, # of connection points: 2
#     Edge 96, Type (0, 0), BuildingBlock: EZIPEK_clean_linker_0, # of connection points: 2
#     Edge 97, Type (0, 0), BuildingBlock: EZIPEK_clean_linker_0, # of connection points: 2
#     Edge 98, Type (0, 0), BuildingBlock: EZIPEK_clean_linker_0, # of connection points: 2
#     Edge 99, Type (0, 0), BuildingBlock: EZIPEK_clean_linker_0, # of connection points: 2
#     Edge 100, Type (0, 0), BuildingBlock: EZIPEK_clean_linker_0, # of connection points: 2
#     Edge 101, Type (0, 0), BuildingBlock: EZIPEK_clean_linker_0, # of connection points: 2
#     Edge 102, Type (0, 0), BuildingBlock: EZIPEK_clean_linker_0, # of connection points: 2
#     Edge 103, Type (0, 0), BuildingBlock: EZIPEK_clean_linker_0, # of connection points: 2
#     Edge 104, Type (0, 0), BuildingBlock: EZIPEK_clean_linker_0, # of connection points: 2
#     Edge 105, Type (0, 0), BuildingBlock: EZIPEK_clean_linker_0, # of connection points: 2
#     Edge 106, Type (0, 0), BuildingBlock: EZIPEK_clean_linker_0, # of connection points: 2
#     Edge 107, Type (0, 0), BuildingBlock: EZIPEK_clean_linker_0, # of connection points: 2
#     Edge 108, Type (0, 0), BuildingBlock: EZIPEK_clean_linker_0, # of connection points: 2
#     Edge 109, Type (0, 0), BuildingBlock: EZIPEK_clean_linker_0, # of connection points: 2
#     Edge 110, Type (0, 0), BuildingBlock: EZIPEK_clean_linker_0, # of connection points: 2
#     Edge 111, Type (0, 0), BuildingBlock: EZIPEK_clean_linker_0, # of connection points: 2
#     Edge 112, Type (0, 0), BuildingBlock: EZIPEK_clean_linker_0, # of connection points: 2
#     Edge 113, Type (0, 0), BuildingBlock: EZIPEK_clean_linker_0, # of connection points: 2
#     Edge 114, Type (0, 0), BuildingBlock: EZIPEK_clean_linker_0, # of connection points: 2
#     Edge 115, Type (0, 0), BuildingBlock: EZIPEK_clean_linker_0, # of connection points: 2
#     Edge 116, Type (0, 0), BuildingBlock: EZIPEK_clean_linker_0, # of connection points: 2
#     Edge 117, Type (0, 0), BuildingBlock: EZIPEK_clean_linker_0, # of connection points: 2
#     Edge 118, Type (0, 0), BuildingBlock: EZIPEK_clean_linker_0, # of connection points: 2
#     Edge 119, Type (0, 0), BuildingBlock: EZIPEK_clean_linker_0, # of connection points: 2
#     Edge 120, Type (0, 0), BuildingBlock: EZIPEK_clean_linker_0, # of connection points: 2
#     Edge 121, Type (0, 0), BuildingBlock: EZIPEK_clean_linker_0, # of connection points: 2
#     Edge 122, Type (0, 0), BuildingBlock: EZIPEK_clean_linker_0, # of connection points: 2
#     Edge 123, Type (0, 0), BuildingBlock: EZIPEK_clean_linker_0, # of connection points: 2
#     Edge 124, Type (0, 0), BuildingBlock: EZIPEK_clean_linker_0, # of connection points: 2
#     Edge 125, Type (0, 0), BuildingBlock: EZIPEK_clean_linker_0, # of connection points: 2
#     Edge 126, Type (0, 0), BuildingBlock: EZIPEK_clean_linker_0, # of connection points: 2
#     Edge 127, Type (0, 0), BuildingBlock: EZIPEK_clean_linker_0, # of connection points: 2
#     Edge 128, Type (0, 0), BuildingBlock: EZIPEK_clean_linker_0, # of connection points: 2
#     Edge 129, Type (0, 0), BuildingBlock: EZIPEK_clean_linker_0, # of connection points: 2
#     Edge 130, Type (0, 0), BuildingBlock: EZIPEK_clean_linker_0, # of connection points: 2
#     Edge 131, Type (0, 0), BuildingBlock: EZIPEK_clean_linker_0, # of connection points: 2
#     Edge 132, Type (0, 0), BuildingBlock: EZIPEK_clean_linker_0, # of connection points: 2
#     Edge 133, Type (0, 0), BuildingBlock: EZIPEK_clean_linker_0, # of connection points: 2
#     Edge 134, Type (0, 0), BuildingBlock: EZIPEK_clean_linker_0, # of connection points: 2
#     Edge 135, Type (0, 0), BuildingBlock: EZIPEK_clean_linker_0, # of connection points: 2
#     Edge 136, Type (0, 0), BuildingBlock: EZIPEK_clean_linker_0, # of connection points: 2
#     Edge 137, Type (0, 0), BuildingBlock: EZIPEK_clean_linker_0, # of connection points: 2
#     Edge 138, Type (0, 0), BuildingBlock: EZIPEK_clean_linker_0, # of connection points: 2
#     Edge 139, Type (0, 0), BuildingBlock: EZIPEK_clean_linker_0, # of connection points: 2
#     Edge 140, Type (0, 0), BuildingBlock: EZIPEK_clean_linker_0, # of connection points: 2
#     Edge 141, Type (0, 0), BuildingBlock: EZIPEK_clean_linker_0, # of connection points: 2
#     Edge 142, Type (0, 0), BuildingBlock: EZIPEK_clean_linker_0, # of connection points: 2
#     Edge 143, Type (0, 0), BuildingBlock: EZIPEK_clean_linker_0, # of connection points: 2
# Relax obj value: 0.211
# Max RMSD: 0.305
# Mean RMSD: 0.304
data_MOF--net-ukp--node1-CEKHIL_clean_sbu_0--edge1-EZIPEK_clean_linker_0
_symmetry_space_group_name_H-M    P1
_symmetry_Int_Tables_number       1
_symmetry_cell_setting            triclinic
loop_
_symmetry_equiv_pos_as_xyz
'x, y, z'
_cell_length_a     44.494332
_cell_length_b     44.516834
_cell_length_c     44.51494
_cell_angle_alpha  89.946569
_cell_angle_beta   89.992437
_cell_angle_gamma 90.021338
loop_
_atom_site_label
_atom_site_type_symbol
_atom_site_fract_x
_atom_site_fract_y
_atom_site_fract_z
_atom_type_partial_charge
Co0 Co 0.20586 0.27439 0.4005 0.0
O1 O 0.1995 0.25185 0.43736 0.0
O2 O 0.16331 0.26648 0.40676 0.0
C3 C 0.24194 0.24251 0.37917 0.0
O4 O 0.20652 0.29676 0.36206 0.0
Co5 Co 0.24007 0.29539 0.42288 0.0
O6 O 0.24558 0.31805 0.38317 0.0
C7 C 0.20444 0.3285 0.44492 0.0
C8 C 0.1711 0.25219 0.43097 0.0
C9 C 0.22803 0.31555 0.36053 0.0
O10 O 0.19605 0.31561 0.42053 0.0
O11 O 0.22677 0.31781 0.45844 0.0
O12 O 0.21383 0.23697 0.37984 0.0
O13 O 0.25132 0.26599 0.39325 0.0
Co14 Co 0.98378 0.95932 0.64067 0.0
O15 O 0.00541 0.95197 0.67752 0.0
O16 O 0.98805 0.9165 0.64728 0.0
C17 C 0.01561 0.99474 0.62243 0.0
O18 O 0.96164 0.95845 0.60064 0.0
Co19 Co 0.95704 0.02324 0.62872 0.0
O20 O 0.9472 0.00566 0.58893 0.0
C21 C 0.92383 0.98063 0.66689 0.0
C22 C 0.00334 0.92364 0.67116 0.0
C23 C 0.94929 0.97773 0.58298 0.0
O24 O 0.9435 0.95991 0.6619 0.0
O25 O 0.92724 0.00805 0.65889 0.0
O26 O 0.0218 0.96644 0.61951 0.0
O27 O 0.99239 1.00043 0.63883 0.0
Co28 Co 0.29071 0.738 0.89744 0.0
O29 O 0.29731 0.75924 0.93461 0.0
O30 O 0.33306 0.7447 0.90372 0.0
C31 C 0.25406 0.76761 0.87774 0.0
O32 O 0.29249 0.71581 0.85765 0.0
Co33 Co 0.22826 0.70755 0.88778 0.0
O34 O 0.24635 0.69667 0.84845 0.0
C35 C 0.27246 0.67825 0.92671 0.0
C36 C 0.32575 0.75879 0.92826 0.0
C37 C 0.27375 0.70112 0.84128 0.0
O38 O 0.29232 0.6979 0.91896 0.0
O39 O 0.24454 0.6808 0.92029 0.0
O40 O 0.28201 0.77557 0.87616 0.0
O41 O 0.2492 0.74476 0.89505 0.0
Co42 Co 0.50859 0.0476 0.14549 0.0
O43 O 0.48225 0.05641 0.17864 0.0
O44 O 0.50581 0.0907 0.15119 0.0
C45 C 0.47857 0.01352 0.12284 0.0
O46 O 0.53676 0.04637 0.10904 0.0
Co47 Co 0.53462 0.98306 0.13887 0.0
O48 O 0.54756 0.99783 0.09907 0.0
C49 C 0.56595 0.02717 0.17714 0.0
C50 C 0.48753 0.08451 0.17319 0.0
C51 C 0.5487 0.02567 0.09264 0.0
O52 O 0.5443 0.04592 0.17326 0.0
O53 O 0.56618 0.00079 0.16575 0.0
O54 O 0.47427 0.04204 0.11873 0.0
O55 O 0.49851 0.00694 0.14296 0.0
Co56 Co 0.21242 0.73255 0.09507 0.0
O57 O 0.20087 0.75431 0.05928 0.0
O58 O 0.17032 0.74394 0.0966 0.0
C59 C 0.25562 0.75844 0.10592 0.0
O60 O 0.21622 0.71074 0.1352 0.0
Co61 Co 0.2718 0.69571 0.09409 0.0
O62 O 0.26064 0.68613 0.13611 0.0
C63 C 0.21962 0.6722 0.06313 0.0
C64 C 0.17417 0.75694 0.07068 0.0
C65 C 0.23583 0.69379 0.14812 0.0
O66 O 0.20285 0.69256 0.07521 0.0
O67 O 0.24829 0.67337 0.06326 0.0
O68 O 0.22946 0.76894 0.11344 0.0
O69 O 0.25407 0.73488 0.08912 0.0
Co70 Co 0.5135 0.9496 0.36028 0.0
O71 O 0.48658 0.9447 0.32674 0.0
O72 O 0.50752 0.90732 0.35228 0.0
C73 C 0.48612 0.98434 0.38476 0.0
O74 O 0.5414 0.94583 0.39679 0.0
Co75 Co 0.54467 0.01065 0.37271 0.0
O76 O 0.55398 0.9924 0.41199 0.0
C77 C 0.57365 0.96659 0.33229 0.0
C78 C 0.48958 0.91603 0.33094 0.0
C79 C 0.55363 0.96407 0.41566 0.0
O80 O 0.54953 0.95059 0.33267 0.0
O81 O 0.57624 0.99102 0.34718 0.0
O82 O 0.4793 0.9561 0.38695 0.0
O83 O 0.50675 0.99083 0.36534 0.0
Co84 Co 0.28536 0.26451 0.59518 0.0
O85 O 0.2938 0.24377 0.55785 0.0
O86 O 0.32656 0.25157 0.59411 0.0
C87 C 0.2416 0.241 0.60847 0.0
O88 O 0.28596 0.28374 0.63657 0.0
Co89 Co 0.22924 0.30537 0.6009 0.0
O90 O 0.24248 0.30867 0.64342 0.0
C91 C 0.28062 0.32751 0.56679 0.0
C92 C 0.32103 0.24015 0.56785 0.0
C93 C 0.26792 0.29937 0.65275 0.0
O94 O 0.296 0.30464 0.57592 0.0
O95 O 0.25251 0.3306 0.57177 0.0
O96 O 0.26752 0.2284 0.61317 0.0
O97 O 0.24328 0.26511 0.59228 0.0
Co98 Co 0.99024 0.05012 0.86905 0.0
O99 O 0.01998 0.04728 0.83529 0.0
O100 O 0.99637 0.08827 0.84698 0.0
C101 C 0.01353 0.0024 0.86928 0.0
O102 O 0.96046 0.06476 0.89984 0.0
Co103 Co 0.95415 0.99182 0.88653 0.0
O104 O 0.94599 0.02033 0.92021 0.0
C105 C 0.93546 0.02063 0.83356 0.0
C106 C 0.01577 0.07562 0.82984 0.0
C107 C 0.94753 0.04904 0.92043 0.0
O108 O 0.95528 0.04074 0.84027 0.0
O109 O 0.93331 0.99587 0.84763 0.0
O110 O 0.02062 0.02217 0.84892 0.0
O111 O 0.99291 0.01106 0.88664 0.0
Co112 Co 0.39498 0.20825 0.26628 0.0
O113 O 0.43023 0.19953 0.24266 0.0
O114 O 0.39854 0.16527 0.26014 0.0
C115 C 0.37804 0.24617 0.23692 0.0
O116 O 0.3561 0.209 0.29054 0.0
Co117 Co 0.38861 0.27166 0.29608 0.0
O118 O 0.34828 0.25622 0.30732 0.0
C119 C 0.42651 0.22575 0.32468 0.0
C120 C 0.42239 0.17155 0.24443 0.0
C121 C 0.3404 0.22882 0.30457 0.0
O122 O 0.41842 0.20598 0.3051 0.0
O123 O 0.42011 0.2537 0.32274 0.0
O124 O 0.37252 0.21848 0.22971 0.0
O125 O 0.39573 0.2496 0.25957 0.0
Co126 Co 0.04538 0.15453 0.51793 0.0
O127 O 0.05461 0.19048 0.49528 0.0
O128 O 0.08856 0.16024 0.51532 0.0
C129 C 0.01055 0.1356 0.4856 0.0
O130 O 0.04453 0.11528 0.54141 0.0
Co131 Co 0.98031 0.14498 0.5429 0.0
O132 O 0.9966 0.10513 0.5547 0.0
C133 C 0.02262 0.18303 0.57641 0.0
C134 C 0.08275 0.18381 0.49901 0.0
C135 C 0.02444 0.09844 0.55362 0.0
O136 O 0.04375 0.17714 0.55741 0.0
O137 O 0.99513 0.17554 0.57245 0.0
O138 O 0.03905 0.13214 0.4805 0.0
O139 O 0.00451 0.15308 0.50791 0.0
Co140 Co 0.10263 0.80041 0.75805 0.0
O141 O 0.06937 0.80954 0.732 0.0
O142 O 0.09653 0.84355 0.75624 0.0
C143 C 0.12581 0.7675 0.72733 0.0
O144 O 0.13916 0.7985 0.78632 0.0
Co145 Co 0.10933 0.73506 0.78232 0.0
O146 O 0.14829 0.74988 0.79765 0.0
C147 C 0.07227 0.77892 0.81555 0.0
C148 C 0.0746 0.83755 0.73783 0.0
C149 C 0.15484 0.77769 0.79917 0.0
O150 O 0.07516 0.79789 0.79395 0.0
O151 O 0.08342 0.75242 0.81497 0.0
O152 O 0.12905 0.79614 0.72336 0.0
O153 O 0.10566 0.75999 0.74694 0.0
Co154 Co 0.45481 0.85638 0.01212 0.0
O155 O 0.44598 0.81961 0.99134 0.0
O156 O 0.4118 0.8513 0.00772 0.0
C157 C 0.49004 0.87382 0.97985 0.0
O158 O 0.45608 0.89635 0.03491 0.0
Co159 Co 0.51955 0.86639 0.03758 0.0
O160 O 0.50432 0.90722 0.04644 0.0
C161 C 0.47446 0.83223 0.07302 0.0
C162 C 0.4178 0.82665 0.99317 0.0
C163 C 0.47645 0.91372 0.0461 0.0
O164 O 0.45487 0.83457 0.05187 0.0
O165 O 0.50153 0.84178 0.0708 0.0
O166 O 0.46174 0.87726 0.97413 0.0
O167 O 0.49583 0.85687 0.00272 0.0
Co168 Co 0.39016 0.79651 0.23971 0.0
O169 O 0.42399 0.80427 0.26542 0.0
O170 O 0.39455 0.83937 0.24587 0.0
C171 C 0.36987 0.7602 0.26975 0.0
O172 O 0.35462 0.79278 0.21216 0.0
Co173 Co 0.41102 0.74421 0.21192 0.0
O174 O 0.37483 0.75465 0.18618 0.0
C175 C 0.43993 0.79197 0.19081 0.0
C176 C 0.41761 0.83246 0.26254 0.0
C177 C 0.35367 0.77382 0.19032 0.0
O178 O 0.41589 0.80282 0.20229 0.0
O179 O 0.44698 0.76507 0.19665 0.0
O180 O 0.36608 0.78832 0.27507 0.0
O181 O 0.38634 0.75377 0.24661 0.0
Co182 Co 0.45487 0.14287 0.49086 0.0
O183 O 0.44456 0.17908 0.51212 0.0
O184 O 0.41166 0.14643 0.49479 0.0
C185 C 0.49114 0.12574 0.52238 0.0
O186 O 0.457 0.10351 0.46802 0.0
Co187 Co 0.51973 0.1367 0.46435 0.0
O188 O 0.50486 0.09627 0.45269 0.0
C189 C 0.4754 0.17415 0.43323 0.0
C190 C 0.4166 0.17124 0.50941 0.0
C191 C 0.47753 0.08795 0.45496 0.0
O192 O 0.45466 0.16515 0.45136 0.0
O193 O 0.50335 0.16864 0.43709 0.0
O194 O 0.46296 0.12135 0.52843 0.0
O195 O 0.49592 0.14344 0.49989 0.0
Co196 Co 0.10684 0.20037 0.74112 0.0
O197 O 0.07574 0.18399 0.76627 0.0
O198 O 0.10595 0.15655 0.73795 0.0
C199 C 0.12658 0.23184 0.77615 0.0
O200 O 0.14142 0.21161 0.71249 0.0
Co201 Co 0.10133 0.26899 0.72751 0.0
O202 O 0.14246 0.26194 0.71198 0.0
C203 C 0.06794 0.22593 0.69028 0.0
C204 C 0.08404 0.15766 0.7574 0.0
C205 C 0.15354 0.23678 0.70423 0.0
O206 O 0.07856 0.20403 0.70592 0.0
O207 O 0.07216 0.25363 0.69672 0.0
O208 O 0.13373 0.20368 0.77584 0.0
O209 O 0.10495 0.23867 0.75803 0.0
Co210 Co 0.04293 0.85526 0.98744 0.0
O211 O 0.05115 0.82224 0.01461 0.0
O212 O 0.08581 0.85025 0.99339 0.0
C213 C 0.00672 0.87901 0.0145 0.0
O214 O 0.04358 0.89069 0.95764 0.0
Co215 Co 0.97973 0.86096 0.95747 0.0
O216 O 0.99705 0.8973 0.93867 0.0
C217 C 0.02651 0.82303 0.92937 0.0
C218 C 0.07958 0.82785 0.0111 0.0
C219 C 0.02477 0.90434 0.94019 0.0
O220 O 0.04382 0.82685 0.9522 0.0
O221 O 0.99994 0.83389 0.92761 0.0
O222 O 0.03491 0.88248 0.0211 0.0
O223 O 0.0013 0.85821 0.99497 0.0
Co224 Co 0.28132 0.41193 0.21922 0.0
O225 O 0.25495 0.44586 0.2121 0.0
O226 O 0.26932 0.41325 0.17746 0.0
C227 C 0.25781 0.39517 0.26171 0.0
O228 O 0.30625 0.37353 0.21731 0.0
Co229 Co 0.32095 0.40635 0.2756 0.0
O230 O 0.32802 0.36483 0.26209 0.0
C231 C 0.3407 0.44672 0.22721 0.0
C232 C 0.25327 0.43657 0.18449 0.0
C233 C 0.32138 0.35693 0.2355 0.0
O234 O 0.31848 0.43747 0.21086 0.0
O235 O 0.34446 0.43772 0.25413 0.0
O236 O 0.2476 0.38856 0.23518 0.0
O237 O 0.28038 0.41345 0.26154 0.0
Co238 Co 0.76644 0.09478 0.78828 0.0
O239 O 0.73992 0.06126 0.79601 0.0
O240 O 0.75962 0.09083 0.83093 0.0
C241 C 0.7402 0.11666 0.75058 0.0
O242 O 0.79357 0.13164 0.78956 0.0
Co243 Co 0.79943 0.10122 0.72689 0.0
O244 O 0.81112 0.14089 0.743 0.0
C245 C 0.82739 0.06553 0.77534 0.0
C246 C 0.74221 0.06839 0.82422 0.0
C247 C 0.80842 0.14767 0.77065 0.0
O248 O 0.80329 0.06824 0.79122 0.0
O249 O 0.83015 0.07664 0.74897 0.0
O250 O 0.73203 0.12021 0.77832 0.0
O251 O 0.76083 0.0966 0.74636 0.0
Co252 Co 0.1404 0.50155 0.05777 0.0
O253 O 0.17725 0.48044 0.06697 0.0
O254 O 0.14842 0.50285 0.10065 0.0
C255 C 0.12034 0.4663 0.02684 0.0
O256 O 0.10092 0.52467 0.05686 0.0
Co257 Co 0.12708 0.52076 0.99133 0.0
O258 O 0.08825 0.53414 0.00864 0.0
C259 C 0.16607 0.55871 0.02884 0.0
C260 C 0.17227 0.48692 0.09494 0.0
C261 C 0.08319 0.5356 0.03678 0.0
O262 O 0.16244 0.54086 0.05146 0.0
O263 O 0.15629 0.55318 0.00239 0.0
O264 O 0.11824 0.46334 0.05578 0.0
O265 O 0.13717 0.48823 0.01813 0.0
Co266 Co 0.74418 0.89321 0.2962 0.0
O267 O 0.76618 0.93055 0.29896 0.0
O268 O 0.75206 0.90293 0.33791 0.0
C269 C 0.77229 0.87212 0.2592 0.0
O270 O 0.72203 0.85342 0.30211 0.0
Co271 Co 0.71116 0.87765 0.23624 0.0
O272 O 0.70342 0.83899 0.25723 0.0
C273 C 0.68298 0.91956 0.27867 0.0
C274 C 0.76586 0.92665 0.32783 0.0
C275 C 0.70803 0.83463 0.28517 0.0
O276 O 0.70419 0.91491 0.29786 0.0
O277 O 0.68338 0.90957 0.25173 0.0
O278 O 0.78139 0.8712 0.28689 0.0
O279 O 0.74883 0.88848 0.2546 0.0
Co280 Co 0.85135 0.9958 0.04297 0.0
O281 O 0.81758 0.0221 0.04885 0.0
O282 O 0.84041 0.9967 0.08513 0.0
C283 C 0.87763 0.02809 0.01412 0.0
O284 O 0.8879 0.96725 0.04507 0.0
Co285 Co 0.86577 0.9722 0.98005 0.0
O286 O 0.90403 0.95907 0.99781 0.0
C287 C 0.82544 0.93741 0.01926 0.0
C288 C 0.81975 0.01582 0.07716 0.0
C289 C 0.90692 0.95627 0.02606 0.0
O290 O 0.8237 0.96061 0.03629 0.0
O291 O 0.84158 0.93706 0.99549 0.0
O292 O 0.87815 0.03002 0.0431 0.0
O293 O 0.85883 0.00858 0.00319 0.0
Co294 Co 0.24121 0.61442 0.69777 0.0
O295 O 0.26652 0.58007 0.69177 0.0
O296 O 0.24854 0.60902 0.65528 0.0
C297 C 0.26821 0.63548 0.73503 0.0
O298 O 0.21476 0.65205 0.69617 0.0
Co299 Co 0.20886 0.62194 0.75952 0.0
O300 O 0.19814 0.66173 0.7431 0.0
C301 C 0.17997 0.58717 0.71076 0.0
C302 C 0.26485 0.58613 0.66336 0.0
C303 C 0.20041 0.66833 0.71536 0.0
O304 O 0.20398 0.58889 0.6948 0.0
O305 O 0.17769 0.59816 0.73722 0.0
O306 O 0.27628 0.639 0.70728 0.0
O307 O 0.24685 0.61627 0.73945 0.0
Co308 Co 0.11311 0.49157 0.43541 0.0
O309 O 0.14453 0.52328 0.42939 0.0
O310 O 0.13509 0.48833 0.39682 0.0
C311 C 0.11308 0.52582 0.47599 0.0
O312 O 0.08511 0.45619 0.42923 0.0
Co313 Co 0.09346 0.47026 0.50022 0.0
O314 O 0.0629 0.45019 0.47467 0.0
C315 C 0.14314 0.44066 0.47135 0.0
C316 C 0.15066 0.51165 0.40339 0.0
C317 C 0.06528 0.44434 0.44672 0.0
O318 O 0.14461 0.46374 0.45392 0.0
O319 O 0.12372 0.43847 0.49223 0.0
O320 O 0.13226 0.52883 0.45418 0.0
O321 O 0.09556 0.50375 0.47271 0.0
Co322 Co 0.35711 0.51247 0.94621 0.0
O323 O 0.3224 0.49141 0.932 0.0
O324 O 0.35588 0.51365 0.90255 0.0
C325 C 0.37109 0.47513 0.97787 0.0
O326 O 0.39635 0.53528 0.95421 0.0
Co327 Co 0.35907 0.52994 0.01357 0.0
O328 O 0.40145 0.54005 0.00445 0.0
C329 C 0.32516 0.56796 0.97129 0.0
C330 C 0.33199 0.49688 0.90516 0.0
C331 C 0.4113 0.54323 0.97777 0.0
O332 O 0.3338 0.55119 0.94937 0.0
O333 O 0.33075 0.56206 0.9989 0.0
O334 O 0.37851 0.4747 0.94978 0.0
O335 O 0.35373 0.49725 0.98541 0.0
Co336 Co 0.70038 0.75539 0.89093 0.0
O337 O 0.69642 0.73376 0.92848 0.0
O338 O 0.65845 0.74661 0.89904 0.0
C339 C 0.73891 0.72781 0.87203 0.0
O340 O 0.69552 0.77673 0.85041 0.0
Co341 Co 0.76003 0.78943 0.87631 0.0
O342 O 0.74078 0.79471 0.83636 0.0
C343 C 0.71706 0.81602 0.91876 0.0
C344 C 0.66773 0.7333 0.92335 0.0
C345 C 0.71295 0.7899 0.8314 0.0
O346 O 0.6976 0.79545 0.91246 0.0
O347 O 0.74406 0.81607 0.90889 0.0
O348 O 0.71147 0.71811 0.86984 0.0
O349 O 0.74211 0.75176 0.88793 0.0
Co350 Co 0.48834 0.44177 0.12062 0.0
O351 O 0.51829 0.43584 0.15378 0.0
O352 O 0.48546 0.40227 0.14079 0.0
C353 C 0.52036 0.4839 0.12432 0.0
O354 O 0.4556 0.43494 0.09012 0.0
Co355 Co 0.46631 0.50701 0.10187 0.0
O356 O 0.44773 0.48132 0.07034 0.0
C357 C 0.4409 0.48144 0.155 0.0
C358 C 0.50783 0.40889 0.15768 0.0
C359 C 0.44358 0.45292 0.0709 0.0
O360 O 0.45672 0.4577 0.14989 0.0
O361 O 0.44375 0.50575 0.14016 0.0
O362 O 0.52287 0.46186 0.14334 0.0
O363 O 0.49991 0.48003 0.10507 0.0
Co364 Co 0.78234 0.23128 0.39986 0.0
O365 O 0.78585 0.25758 0.43409 0.0
O366 O 0.82427 0.2374 0.40963 0.0
C367 C 0.74835 0.25882 0.374 0.0
O368 O 0.78734 0.20409 0.36353 0.0
Co369 Co 0.72044 0.20073 0.38745 0.0
O370 O 0.74185 0.18516 0.35147 0.0
C371 C 0.75967 0.17557 0.43363 0.0
C372 C 0.8147 0.25503 0.43087 0.0
C373 C 0.77 0.1881 0.34685 0.0
O374 O 0.78053 0.19432 0.42625 0.0
O375 O 0.73261 0.17763 0.4242 0.0
O376 O 0.77662 0.26588 0.37308 0.0
O377 O 0.74141 0.23821 0.39319 0.0
Co378 Co 0.00995 0.55622 0.62825 0.0
O379 O 0.98244 0.56028 0.66167 0.0
O380 O 0.00174 0.59833 0.6361 0.0
C381 C 0.9854 0.51928 0.60303 0.0
O382 O 0.03903 0.56065 0.59288 0.0
Co383 Co 0.04412 0.49533 0.61986 0.0
O384 O 0.0603 0.51558 0.58384 0.0
C385 C 0.06951 0.54263 0.65885 0.0
C386 C 0.98484 0.58912 0.65813 0.0
C387 C 0.05698 0.54342 0.57805 0.0
O388 O 0.04557 0.55852 0.65604 0.0
O389 O 0.07285 0.51657 0.64725 0.0
O390 O 0.97684 0.54706 0.60046 0.0
O391 O 0.00538 0.51438 0.62348 0.0
Co392 Co 0.71109 0.23029 0.59425 0.0
O393 O 0.70261 0.25612 0.56048 0.0
O394 O 0.66793 0.23315 0.58774 0.0
C395 C 0.74452 0.26138 0.61723 0.0
O396 O 0.71199 0.20302 0.6311 0.0
Co397 Co 0.77651 0.20585 0.60106 0.0
O398 O 0.76036 0.18999 0.63957 0.0
C399 C 0.73534 0.17578 0.55948 0.0
C400 C 0.6744 0.25152 0.5659 0.0
C401 C 0.73257 0.18975 0.64657 0.0
O402 O 0.71384 0.19337 0.56785 0.0
O403 O 0.76282 0.17986 0.56686 0.0
O404 O 0.71588 0.26533 0.62037 0.0
O405 O 0.75164 0.24119 0.59763 0.0
Co406 Co 0.00808 0.43809 0.87203 0.0
O407 O 0.9843 0.43303 0.83637 0.0
O408 O 0.00225 0.39569 0.86415 0.0
C409 C 0.97914 0.47364 0.89322 0.0
O410 O 0.03341 0.43567 0.91061 0.0
Co411 Co 0.03826 0.50025 0.88377 0.0
O412 O 0.04639 0.48287 0.92383 0.0
C413 C 0.06857 0.4555 0.8452 0.0
C414 C 0.98674 0.40441 0.84091 0.0
C415 C 0.04554 0.45471 0.92886 0.0
O416 O 0.04608 0.43757 0.84766 0.0
O417 O 0.06939 0.48177 0.85686 0.0
O418 O 0.9718 0.44553 0.89561 0.0
O419 O 0.00125 0.47936 0.87531 0.0
Co420 Co 0.79822 0.76848 0.09701 0.0
O421 O 0.80686 0.74485 0.06175 0.0
O422 O 0.84118 0.76468 0.09191 0.0
C423 C 0.76299 0.73683 0.11622 0.0
O424 O 0.79798 0.79263 0.13598 0.0
Co425 Co 0.73444 0.7954 0.10622 0.0
O426 O 0.75033 0.80612 0.1466 0.0
C427 C 0.77657 0.82551 0.06515 0.0
C428 C 0.83497 0.74783 0.06886 0.0
C429 C 0.77818 0.80481 0.15318 0.0
O430 O 0.7975 0.80706 0.07292 0.0
O431 O 0.74918 0.82294 0.07356 0.0
O432 O 0.7914 0.73186 0.12015 0.0
O433 O 0.7571 0.75916 0.09855 0.0
Co434 Co 0.49562 0.55831 0.36468 0.0
O435 O 0.51735 0.56121 0.32732 0.0
O436 O 0.49978 0.60007 0.35298 0.0
C437 C 0.52769 0.52539 0.38691 0.0
O438 O 0.47351 0.56413 0.40447 0.0
Co439 Co 0.46855 0.49684 0.38405 0.0
O440 O 0.46202 0.51825 0.42261 0.0
C441 C 0.43575 0.53404 0.34032 0.0
C442 C 0.51487 0.59009 0.33003 0.0
C443 C 0.46321 0.54675 0.42517 0.0
O444 O 0.45556 0.55505 0.34303 0.0
O445 O 0.438 0.50828 0.35289 0.0
O446 O 0.53351 0.55392 0.38673 0.0
O447 O 0.50449 0.51756 0.37132 0.0
Co448 Co 0.90089 0.70738 0.7673 0.0
O449 O 0.93551 0.69954 0.74215 0.0
O450 O 0.90169 0.66547 0.75518 0.0
C451 C 0.88636 0.75049 0.74339 0.0
O452 O 0.86192 0.70712 0.79161 0.0
Co453 Co 0.89828 0.76542 0.80603 0.0
O454 O 0.85749 0.75099 0.81658 0.0
C455 C 0.93599 0.71606 0.82553 0.0
C456 C 0.92579 0.67215 0.74003 0.0
C457 C 0.84755 0.72525 0.809 0.0
O458 O 0.92426 0.69855 0.80556 0.0
O459 O 0.93309 0.74459 0.82504 0.0
O460 O 0.87906 0.72428 0.7328 0.0
O461 O 0.90398 0.74925 0.7663 0.0
Co462 Co 0.55111 0.63977 0.02637 0.0
O463 O 0.55713 0.67118 0.99696 0.0
O464 O 0.59379 0.64717 0.02047 0.0
C465 C 0.51625 0.61318 1.00026 0.0
O466 O 0.55353 0.606 0.05736 0.0
Co467 Co 0.488 0.63311 0.05609 0.0
O468 O 0.50699 0.59746 0.07528 0.0
C469 C 0.52845 0.68017 0.07722 0.0
C470 C 0.58575 0.66724 0.00078 0.0
C471 C 0.535 0.59133 0.07406 0.0
O472 O 0.54973 0.66966 0.06058 0.0
O473 O 0.501 0.67212 0.07451 0.0
O474 O 0.54465 0.61002 0.99428 0.0
O475 O 0.50994 0.63449 0.01881 0.0
Co476 Co 0.59239 0.28682 0.26166 0.0
O477 O 0.55942 0.29437 0.23451 0.0
O478 O 0.59175 0.32882 0.25028 0.0
C479 C 0.61017 0.24427 0.23916 0.0
O480 O 0.62981 0.28729 0.28836 0.0
Co481 Co 0.59333 0.22933 0.30096 0.0
O482 O 0.63497 0.24163 0.30976 0.0
C483 C 0.56116 0.2827 0.32294 0.0
C484 C 0.56841 0.32211 0.23404 0.0
C485 C 0.64448 0.26798 0.3042 0.0
O486 O 0.56604 0.29594 0.29766 0.0
O487 O 0.56984 0.25589 0.32846 0.0
O488 O 0.61689 0.27076 0.22887 0.0
O489 O 0.59025 0.24472 0.26035 0.0
Co490 Co 0.94383 0.35439 0.50594 0.0
O491 O 0.93063 0.31748 0.4878 0.0
O492 O 0.90039 0.35161 0.50771 0.0
C493 C 0.97587 0.36671 0.4683 0.0
O494 O 0.94966 0.39578 0.52531 0.0
Co495 Co 0.01066 0.36101 0.52451 0.0
O496 O 0.99895 0.4029 0.53429 0.0
C497 C 0.96973 0.327 0.56345 0.0
C498 C 0.90346 0.32646 0.49309 0.0
C499 C 0.97178 0.41198 0.53473 0.0
O500 O 0.94758 0.33448 0.54644 0.0
O501 O 0.99717 0.33336 0.55763 0.0
O502 O 0.94743 0.37275 0.4664 0.0
O503 O 0.98342 0.35148 0.4919 0.0
Co504 Co 0.89624 0.29057 0.73534 0.0
O505 O 0.9297 0.29735 0.76175 0.0
O506 O 0.90037 0.33317 0.74318 0.0
C507 C 0.87568 0.25271 0.76195 0.0
O508 O 0.85918 0.29129 0.70787 0.0
Co509 Co 0.89063 0.22889 0.7026 0.0
O510 O 0.85052 0.24413 0.69133 0.0
C511 C 0.9267 0.27773 0.67542 0.0
C512 C 0.92277 0.32557 0.76038 0.0
C513 C 0.84336 0.27173 0.69342 0.0
O514 O 0.92287 0.29405 0.69893 0.0
O515 O 0.91635 0.25102 0.67285 0.0
O516 O 0.87114 0.28036 0.76973 0.0
O517 O 0.89522 0.24891 0.74077 0.0
Co518 Co 0.95512 0.63616 0.99357 0.0
O519 O 0.95003 0.67359 0.01464 0.0
O520 O 0.91289 0.64639 0.99553 0.0
C521 C 0.98722 0.61447 0.02653 0.0
O522 O 0.95199 0.59656 0.97119 0.0
Co523 Co 0.01901 0.62034 0.96908 0.0
O524 O 0.99892 0.58196 0.95853 0.0
C525 C 0.98072 0.66149 0.93477 0.0
C526 C 0.9214 0.66996 0.01058 0.0
C527 C 0.97059 0.57777 0.95959 0.0
O528 O 0.95924 0.65738 0.95376 0.0
O529 O 0.00742 0.65157 0.93866 0.0
O530 O 0.95853 0.61428 0.03161 0.0
O531 O 0.99549 0.63079 0.00399 0.0
Co532 Co 0.6128 0.7075 0.23498 0.0
O533 O 0.57846 0.70001 0.26025 0.0
O534 O 0.60353 0.66496 0.2354 0.0
C535 C 0.63734 0.73771 0.26771 0.0
O536 O 0.64968 0.70707 0.2077 0.0
Co537 Co 0.62443 0.77297 0.21309 0.0
O538 O 0.66126 0.75498 0.19559 0.0
C539 C 0.58097 0.7356 0.18054 0.0
C540 C 0.58228 0.67178 0.25432 0.0
C541 C 0.66626 0.72682 0.19451 0.0
O542 O 0.58682 0.71349 0.19832 0.0
O543 O 0.5911 0.76219 0.18455 0.0
O544 O 0.63866 0.70876 0.27045 0.0
O545 O 0.6186 0.74725 0.24765 0.0
Co546 Co 0.5571 0.36463 0.4887 0.0
O547 O 0.5627 0.3268 0.50917 0.0
O548 O 0.59908 0.35283 0.48735 0.0
C549 C 0.52875 0.38618 0.52505 0.0
O550 O 0.55984 0.40491 0.46662 0.0
Co551 Co 0.49258 0.38443 0.47013 0.0
O552 O 0.51289 0.42288 0.4602 0.0
C553 C 0.52508 0.341 0.43244 0.0
C554 C 0.59107 0.32962 0.50329 0.0
C555 C 0.54134 0.42546 0.45797 0.0
O556 O 0.54855 0.34372 0.44923 0.0
O557 O 0.49984 0.35358 0.43804 0.0
O558 O 0.55779 0.38579 0.52723 0.0
O559 O 0.51793 0.37107 0.50276 0.0
Co560 Co 0.76074 0.8896 0.7049 0.0
O561 O 0.73649 0.92545 0.69983 0.0
O562 O 0.75546 0.89878 0.6626 0.0
C563 C 0.72754 0.86372 0.73655 0.0
O564 O 0.78545 0.85251 0.70376 0.0
Co565 Co 0.77967 0.90838 0.7428 0.0
O566 O 0.80773 0.87213 0.74284 0.0
C567 C 0.80909 0.93895 0.71136 0.0
C568 C 0.73927 0.9215 0.67109 0.0
C569 C 0.80555 0.85068 0.724 0.0
O570 O 0.80068 0.91382 0.70005 0.0
O571 O 0.79562 0.9485 0.73419 0.0
O572 O 0.72435 0.86601 0.70816 0.0
O573 O 0.74944 0.87812 0.74887 0.0
Co574 Co 0.2629 0.60368 0.29537 0.0
O575 O 0.23638 0.56939 0.2974 0.0
O576 O 0.25118 0.59619 0.33662 0.0
C577 C 0.23991 0.62709 0.25652 0.0
O578 O 0.28902 0.64085 0.3022 0.0
Co579 Co 0.30123 0.61555 0.2378 0.0
O580 O 0.30995 0.65402 0.25796 0.0
C581 C 0.32528 0.57663 0.28618 0.0
C582 C 0.23495 0.57429 0.3261 0.0
C583 C 0.30493 0.65856 0.28574 0.0
O584 O 0.2998 0.57737 0.30004 0.0
O585 O 0.33001 0.59016 0.26125 0.0
O586 O 0.2292 0.62949 0.28353 0.0
O587 O 0.26154 0.60803 0.25338 0.0
Co588 Co 0.64773 0.01355 0.54526 0.0
O589 O 0.68232 0.98911 0.55478 0.0
O590 O 0.65463 0.01322 0.58828 0.0
C591 C 0.6258 0.97998 0.51371 0.0
O592 O 0.61001 0.03962 0.54419 0.0
Co593 Co 0.63666 0.0349 0.47943 0.0
O594 O 0.59827 0.05044 0.49607 0.0
C595 C 0.68045 0.06723 0.51683 0.0
C596 C 0.67661 0.99475 0.58279 0.0
C597 C 0.59288 0.05157 0.52416 0.0
O598 O 0.67337 0.05086 0.53976 0.0
O599 O 0.67108 0.06201 0.49016 0.0
O600 O 0.62286 0.9773 0.54256 0.0
O601 O 0.64413 0.00088 0.50532 0.0
Co602 Co 0.2398 0.38569 0.79874 0.0
O603 O 0.26584 0.42018 0.79886 0.0
O604 O 0.25127 0.39547 0.83964 0.0
C605 C 0.26297 0.36094 0.76122 0.0
O606 O 0.21279 0.34887 0.80621 0.0
Co607 Co 0.20173 0.37475 0.74085 0.0
O608 O 0.18881 0.33842 0.76267 0.0
C609 C 0.17789 0.41276 0.78973 0.0
C610 C 0.26643 0.41756 0.8278 0.0
C611 C 0.19438 0.33307 0.79023 0.0
O612 O 0.20344 0.41211 0.80307 0.0
O613 O 0.17284 0.40006 0.76446 0.0
O614 O 0.27341 0.35931 0.78838 0.0
O615 O 0.24159 0.3801 0.75702 0.0
Co616 Co 0.37487 0.49337 0.55635 0.0
O617 O 0.33924 0.51763 0.5587 0.0
O618 O 0.36283 0.4976 0.59785 0.0
C619 C 0.39957 0.52434 0.52475 0.0
O620 O 0.41312 0.46814 0.56263 0.0
Co621 Co 0.39359 0.4648 0.49639 0.0
O622 O 0.43238 0.45798 0.51706 0.0
C623 C 0.34757 0.43446 0.53284 0.0
C624 C 0.34122 0.5144 0.58755 0.0
C625 C 0.43424 0.45797 0.54558 0.0
O626 O 0.34961 0.45589 0.55213 0.0
O627 O 0.36254 0.43406 0.50829 0.0
O628 O 0.39929 0.52948 0.55339 0.0
O629 O 0.38274 0.50231 0.51581 0.0
Co630 Co 0.7346 0.10168 0.20931 0.0
O631 O 0.75793 0.06884 0.19413 0.0
O632 O 0.7342 0.10219 0.16573 0.0
C633 C 0.76758 0.11822 0.24388 0.0
O634 O 0.70894 0.13879 0.21875 0.0
Co635 Co 0.7136 0.09727 0.27583 0.0
O636 O 0.70646 0.14072 0.26893 0.0
C637 C 0.67813 0.06738 0.22912 0.0
C638 C 0.75162 0.07871 0.16752 0.0
C639 C 0.70153 0.15242 0.24332 0.0
O640 O 0.69689 0.07674 0.20926 0.0
O641 O 0.6813 0.07169 0.25735 0.0
O642 O 0.77111 0.125 0.21581 0.0
O643 O 0.74755 0.09775 0.24894 0.0
Co644 Co 0.64427 0.98763 0.95336 0.0
O645 O 0.67847 0.01319 0.94532 0.0
O646 O 0.64947 0.99238 0.91057 0.0
C647 C 0.62214 0.0157 0.9895 0.0
O648 O 0.60712 0.96066 0.95246 0.0
Co649 Co 0.63601 0.95744 0.01603 0.0
O650 O 0.59686 0.94465 0.99938 0.0
C651 C 0.67264 0.92732 0.9696 0.0
C652 C 0.67234 0.00933 0.91705 0.0
C653 C 0.59071 0.94632 0.9715 0.0
O654 O 0.67044 0.95062 0.95259 0.0
O655 O 0.66106 0.92582 0.99587 0.0
O656 O 0.61904 0.02274 0.96137 0.0
O657 O 0.64176 0.99495 0.99488 0.0
Co658 Co 0.85659 0.02191 0.45062 0.0
O659 O 0.82338 0.99598 0.4403 0.0
O660 O 0.85011 0.02212 0.40745 0.0
C661 C 0.87991 0.98897 0.48156 0.0
O662 O 0.89295 0.04993 0.45296 0.0
Co663 Co 0.86516 0.04209 0.51716 0.0
O664 O 0.90357 0.05885 0.50174 0.0
C665 C 0.81999 0.07245 0.4799 0.0
C666 C 0.82884 0.00266 0.4125 0.0
C667 C 0.90947 0.06136 0.47383 0.0
O668 O 0.82877 0.05742 0.45668 0.0
O669 O 0.82914 0.06709 0.50662 0.0
O670 O 0.88347 0.98718 0.45272 0.0
O671 O 0.86025 0.00844 0.49024 0.0
C672 C 0.12486 0.18645 0.46115 0.0
C673 C 0.10679 0.20107 0.4831 0.0
C674 C 0.13245 0.24903 0.4722 0.0
C675 C 0.14902 0.23474 0.44906 0.0
N676 N 0.15925 0.19097 0.41902 0.0
N677 N 0.09188 0.24642 0.50862 0.0
C678 C 0.14491 0.20369 0.44304 0.0
C679 C 0.11017 0.23245 0.48831 0.0
N680 N 0.12267 0.15603 0.45732 0.0
N681 N 0.13865 0.27829 0.47925 0.0
H682 H 0.0771 0.23471 0.52245 0.0
H683 H 0.09032 0.26961 0.51103 0.0
H684 H 0.15421 0.29119 0.46737 0.0
H685 H 0.12993 0.2894 0.49785 0.0
H686 H 0.138 0.14338 0.44503 0.0
H687 H 0.10632 0.14281 0.46759 0.0
H688 H 0.15467 0.16955 0.4109 0.0
H689 H 0.17448 0.20262 0.4056 0.0
C690 C 0.06557 0.86869 0.69211 0.0
C691 C 0.05748 0.8613 0.72201 0.0
C692 C 0.01427 0.89551 0.71915 0.0
C693 C 0.02099 0.9011 0.68841 0.0
N694 N 0.05172 0.89158 0.64468 0.0
N695 N 0.02339 0.86522 0.76376 0.0
C696 C 0.04621 0.88717 0.6746 0.0
C697 C 0.03169 0.87417 0.73555 0.0
N698 N 0.09243 0.85885 0.68084 0.0
N699 N 0.99126 0.9107 0.73262 0.0
H700 H 0.03624 0.85049 0.77671 0.0
H701 H 0.00311 0.87101 0.77385 0.0
H702 H 0.97688 0.92486 0.72079 0.0
H703 H 0.9872 0.91051 0.75564 0.0
H704 H 0.10146 0.86598 0.66049 0.0
H705 H 0.10717 0.84533 0.69305 0.0
H706 H 0.06718 0.87909 0.63237 0.0
H707 H 0.03967 0.9066 0.63139 0.0
C708 C 0.36335 0.81023 0.98665 0.0
C709 C 0.39404 0.80807 0.97804 0.0
C710 C 0.37962 0.76715 0.94432 0.0
C711 C 0.34875 0.77467 0.94718 0.0
N712 N 0.31333 0.81186 0.96653 0.0
N713 N 0.42824 0.7897 0.93929 0.0
C714 C 0.34098 0.79859 0.9671 0.0
C715 C 0.40148 0.788 0.9542 0.0
N716 N 0.35518 0.82234 0.01359 0.0
N717 N 0.38848 0.74006 0.93308 0.0
H718 H 0.44323 0.80747 0.9417 0.0
H719 H 0.43309 0.77596 0.92093 0.0
H720 H 0.37348 0.72253 0.92904 0.0
H721 H 0.41105 0.73374 0.93221 0.0
H722 H 0.33291 0.8225 0.02093 0.0
H723 H 0.37066 0.82797 0.03022 0.0
H724 H 0.30823 0.83046 0.97984 0.0
H725 H 0.29728 0.80776 0.95009 0.0
C726 C 0.43026 0.14345 0.19645 0.0
C727 C 0.43862 0.14842 0.2268 0.0
C728 C 0.47972 0.11192 0.22188 0.0
C729 C 0.47229 0.10816 0.19105 0.0
N730 N 0.44299 0.12242 0.14778 0.0
N731 N 0.47216 0.1398 0.26827 0.0
C732 C 0.44835 0.12466 0.17796 0.0
C733 C 0.46361 0.13328 0.2395 0.0
N734 N 0.40434 0.15595 0.18562 0.0
N735 N 0.50202 0.0948 0.2343 0.0
H736 H 0.45976 0.15396 0.28219 0.0
H737 H 0.49207 0.13239 0.27804 0.0
H738 H 0.51557 0.08045 0.22168 0.0
H739 H 0.50646 0.09375 0.25722 0.0
H740 H 0.39502 0.15074 0.16483 0.0
H741 H 0.39061 0.16992 0.19844 0.0
H742 H 0.42829 0.13637 0.13612 0.0
H743 H 0.45476 0.10787 0.13372 0.0
C744 C 0.15688 0.79684 0.03308 0.0
C745 C 0.14976 0.77478 0.05524 0.0
C746 C 0.09742 0.792 0.05247 0.0
C747 C 0.10367 0.80937 0.02626 0.0
N748 N 0.13994 0.81772 0.98621 0.0
N749 N 0.10932 0.74548 0.07741 0.0
C750 C 0.13354 0.80863 0.0148 0.0
C751 C 0.11886 0.77047 0.0624 0.0
N752 N 0.18527 0.80812 0.03018 0.0
N753 N 0.07206 0.79669 0.06906 0.0
H754 H 0.12322 0.72722 0.0819 0.0
H755 H 0.08659 0.74117 0.08126 0.0
H756 H 0.05755 0.81467 0.06545 0.0
H757 H 0.06807 0.78536 0.08919 0.0
H758 H 0.19031 0.82536 0.0151 0.0
H759 H 0.20235 0.804 0.04561 0.0
H760 H 0.16143 0.81569 0.97705 0.0
H761 H 0.12345 0.82276 0.97041 0.0
C762 C 0.44139 0.88855 0.32221 0.0
C763 C 0.47147 0.89441 0.31339 0.0
C764 C 0.46631 0.85967 0.27099 0.0
C765 C 0.43559 0.85528 0.2787 0.0
N766 N 0.39282 0.86708 0.3098 0.0
N767 N 0.51208 0.88864 0.27815 0.0
C768 C 0.42278 0.87032 0.30369 0.0
C769 C 0.48384 0.88076 0.28745 0.0
N770 N 0.43101 0.8995 0.34897 0.0
N771 N 0.47879 0.84338 0.24814 0.0
H772 H 0.52581 0.90333 0.2902 0.0
H773 H 0.52132 0.88221 0.25767 0.0
H774 H 0.46628 0.82924 0.23433 0.0
H775 H 0.50173 0.84264 0.24367 0.0
H776 H 0.41057 0.89338 0.35855 0.0
H777 H 0.44389 0.91312 0.363 0.0
H778 H 0.38126 0.8801 0.32537 0.0
H779 H 0.37877 0.85254 0.298 0.0
C780 C 0.33818 0.20106 0.52904 0.0
C781 C 0.34498 0.2237 0.55067 0.0
C782 C 0.39761 0.20821 0.54841 0.0
C783 C 0.39178 0.18942 0.52324 0.0
N784 N 0.35611 0.17722 0.48381 0.0
N785 N 0.38451 0.25566 0.57047 0.0
C786 C 0.36197 0.1886 0.51167 0.0
C787 C 0.37571 0.22951 0.55712 0.0
N788 N 0.30976 0.18996 0.52583 0.0
N789 N 0.42296 0.20497 0.56538 0.0
H790 H 0.36993 0.27367 0.57386 0.0
H791 H 0.40711 0.26092 0.5739 0.0
H792 H 0.4378 0.18705 0.56295 0.0
H793 H 0.42661 0.21755 0.58481 0.0
H794 H 0.30494 0.172 0.51159 0.0
H795 H 0.29203 0.19548 0.54 0.0
H796 H 0.3348 0.17827 0.47411 0.0
H797 H 0.37294 0.1708 0.46888 0.0
C798 C 0.04176 0.12039 0.76134 0.0
C799 C 0.07018 0.13071 0.77149 0.0
C800 C 0.06401 0.10258 0.81858 0.0
C801 C 0.03521 0.09287 0.80881 0.0
N802 N 0.99888 0.08726 0.76921 0.0
N803 N 0.11141 0.12681 0.8061 0.0
C804 C 0.02479 0.10011 0.77956 0.0
C805 C 0.0823 0.12007 0.79893 0.0
N806 N 0.03079 0.13078 0.73462 0.0
N807 N 0.07328 0.09624 0.8472 0.0
H808 H 0.12521 0.13959 0.79208 0.0
H809 H 0.12278 0.1177 0.82438 0.0
H810 H 0.06091 0.08291 0.862 0.0
H811 H 0.09231 0.10555 0.85708 0.0
H812 H 0.00893 0.12717 0.72714 0.0
H813 H 0.04368 0.14396 0.7201 0.0
H814 H 0.99116 0.08936 0.74725 0.0
H815 H 0.98594 0.07262 0.78221 0.0
C816 C 0.20087 0.44802 0.16628 0.0
C817 C 0.23249 0.45071 0.16238 0.0
C818 C 0.22413 0.48098 0.117 0.0
C819 C 0.1927 0.47571 0.11913 0.0
N820 N 0.15167 0.44939 0.14293 0.0
N821 N 0.27443 0.4661 0.13169 0.0
C822 C 0.18113 0.45817 0.14317 0.0
C823 C 0.24417 0.46602 0.13697 0.0
N824 N 0.18959 0.43534 0.1919 0.0
N825 N 0.23477 0.50142 0.09673 0.0
H826 H 0.28995 0.45637 0.14628 0.0
H827 H 0.284 0.47383 0.11178 0.0
H828 H 0.22063 0.51346 0.08254 0.0
H829 H 0.25701 0.50868 0.09608 0.0
H830 H 0.16694 0.43619 0.19774 0.0
H831 H 0.20304 0.42564 0.20841 0.0
H832 H 0.14275 0.43375 0.15788 0.0
H833 H 0.13661 0.45541 0.12605 0.0
C834 C 0.73901 0.03412 0.86904 0.0
C835 C 0.72439 0.05273 0.84766 0.0
C836 C 0.67615 0.04469 0.87326 0.0
C837 C 0.69031 0.02418 0.89316 0.0
N838 N 0.73405 0.99548 0.90722 0.0
N839 N 0.67864 0.07328 0.82697 0.0
C840 C 0.72149 0.01793 0.89041 0.0
C841 C 0.6928 0.05712 0.84895 0.0
N842 N 0.76967 0.03196 0.86895 0.0
N843 N 0.64722 0.05362 0.8786 0.0
H844 H 0.69008 0.08441 0.80983 0.0
H845 H 0.65539 0.07407 0.82453 0.0
H846 H 0.63441 0.04553 0.89648 0.0
H847 H 0.63671 0.07104 0.86706 0.0
H848 H 0.78192 0.02176 0.88607 0.0
H849 H 0.78316 0.04205 0.85264 0.0
H850 H 0.75583 0.98757 0.90403 0.0
H851 H 0.72188 0.98282 0.92275 0.0
C852 C 0.81396 0.94559 0.35031 0.0
C853 C 0.78218 0.94751 0.34813 0.0
C854 C 0.7823 0.99019 0.38312 0.0
C855 C 0.81353 0.986 0.38791 0.0
N856 N 0.85893 0.95796 0.37847 0.0
N857 N 0.73547 0.97027 0.36323 0.0
C858 C 0.82941 0.96344 0.37191 0.0
C859 C 0.76615 0.96946 0.36476 0.0
N860 N 0.82945 0.92675 0.33164 0.0
N861 N 0.76839 0.01464 0.39538 0.0
H862 H 0.72307 0.95627 0.3491 0.0
H863 H 0.72214 0.98348 0.37716 0.0
H864 H 0.78 0.03049 0.40813 0.0
H865 H 0.74631 0.02078 0.39076 0.0
H866 H 0.85275 0.92693 0.32952 0.0
H867 H 0.81896 0.91224 0.31655 0.0
H868 H 0.87072 0.93939 0.37056 0.0
H869 H 0.87133 0.97088 0.39355 0.0
C870 C 0.7774 0.01688 0.11442 0.0
C871 C 0.801 0.03202 0.09933 0.0
C872 C 0.78671 0.07956 0.12344 0.0
C873 C 0.76518 0.06384 0.14095 0.0
N874 N 0.73931 0.01794 0.15352 0.0
N875 N 0.83056 0.07672 0.09126 0.0
C876 C 0.76027 0.03258 0.13645 0.0
C877 C 0.80608 0.06316 0.10403 0.0
N878 N 0.77086 0.98779 0.10699 0.0
N879 N 0.78898 0.11013 0.12556 0.0
H880 H 0.8454 0.06556 0.07703 0.0
H881 H 0.83777 0.09831 0.09656 0.0
H882 H 0.77666 0.12296 0.14072 0.0
H883 H 0.80147 0.12324 0.11075 0.0
H884 H 0.75214 0.97617 0.11479 0.0
H885 H 0.78327 0.97559 0.09129 0.0
H886 H 0.73706 0.99469 0.15435 0.0
H887 H 0.72449 0.02917 0.16779 0.0
C888 C 0.27183 0.54186 0.62936 0.0
C889 C 0.28313 0.56892 0.64177 0.0
C890 C 0.33309 0.55839 0.62125 0.0
C891 C 0.32152 0.53202 0.60758 0.0
N892 N 0.27962 0.50003 0.59519 0.0
N893 N 0.32244 0.6059 0.64567 0.0
C894 C 0.29074 0.52419 0.61056 0.0
C895 C 0.31319 0.57804 0.63657 0.0
N896 N 0.24327 0.53278 0.63621 0.0
N897 N 0.3632 0.56449 0.61987 0.0
H898 H 0.30845 0.62085 0.65705 0.0
H899 H 0.34302 0.61535 0.6398 0.0
H900 H 0.37843 0.55135 0.60791 0.0
H901 H 0.37359 0.58134 0.63229 0.0
H902 H 0.23465 0.51175 0.63078 0.0
H903 H 0.22849 0.54588 0.64884 0.0
H904 H 0.25684 0.49499 0.59362 0.0
H905 H 0.29317 0.4857 0.58253 0.0
C906 C 0.18246 0.55793 0.33893 0.0
C907 C 0.21372 0.5572 0.34547 0.0
C908 C 0.20367 0.52638 0.39022 0.0
C909 C 0.17268 0.5256 0.38253 0.0
N910 N 0.13295 0.53688 0.34739 0.0
N911 N 0.25483 0.537 0.37428 0.0
C912 C 0.16227 0.54001 0.35607 0.0
C913 C 0.22455 0.54047 0.37037 0.0
N914 N 0.17174 0.57729 0.31757 0.0
N915 N 0.21311 0.51372 0.41657 0.0
H916 H 0.27072 0.54673 0.36005 0.0
H917 H 0.2643 0.52255 0.39005 0.0
H918 H 0.19892 0.50145 0.43064 0.0
H919 H 0.23459 0.51665 0.42535 0.0
H920 H 0.14898 0.58152 0.31419 0.0
H921 H 0.1855 0.59144 0.30498 0.0
H922 H 0.12498 0.54354 0.32642 0.0
H923 H 0.11683 0.52571 0.36019 0.0
C924 C 0.33119 0.45261 0.87115 0.0
C925 C 0.31828 0.48043 0.87977 0.0
C926 C 0.27259 0.46839 0.85137 0.0
C927 C 0.28403 0.43906 0.84607 0.0
N928 N 0.32336 0.4023 0.85154 0.0
N929 N 0.27721 0.5154 0.87882 0.0
C930 C 0.31319 0.43095 0.856 0.0
C931 C 0.28918 0.4886 0.86982 0.0
N932 N 0.36074 0.44702 0.87744 0.0
N933 N 0.24594 0.47691 0.83865 0.0
H934 H 0.28971 0.53139 0.89056 0.0
H935 H 0.25484 0.52145 0.87567 0.0
H936 H 0.23254 0.4623 0.82617 0.0
H937 H 0.23784 0.49882 0.83892 0.0
H938 H 0.37246 0.42842 0.86952 0.0
H939 H 0.37449 0.46244 0.88844 0.0
H940 H 0.34293 0.3938 0.8611 0.0
H941 H 0.31118 0.38614 0.83974 0.0
C942 C 0.62447 0.708 0.99331 0.0
C943 C 0.60792 0.68337 0.98159 0.0
C944 C 0.63247 0.69013 0.93251 0.0
C945 C 0.64686 0.71643 0.94339 0.0
N946 N 0.65421 0.75265 0.98287 0.0
N947 N 0.59379 0.65238 0.93946 0.0
C948 C 0.64236 0.7259 0.97354 0.0
C949 C 0.61121 0.67491 0.95099 0.0
N950 N 0.62318 0.71412 0.02337 0.0
N951 N 0.64022 0.67882 0.90502 0.0
H952 H 0.57936 0.63936 0.95255 0.0
H953 H 0.59222 0.64771 0.9166 0.0
H954 H 0.65573 0.68916 0.89081 0.0
H955 H 0.63332 0.65788 0.89725 0.0
H956 H 0.63693 0.72975 0.03402 0.0
H957 H 0.60977 0.70194 0.03824 0.0
H958 H 0.64927 0.76253 0.00347 0.0
H959 H 0.66729 0.76632 0.96901 0.0
C960 C 0.55397 0.34118 0.18306 0.0
C961 C 0.55327 0.34473 0.21472 0.0
C962 C 0.52431 0.39143 0.20903 0.0
C963 C 0.52293 0.38657 0.17751 0.0
N964 N 0.5346 0.35583 0.13433 0.0
N965 N 0.5349 0.37074 0.25845 0.0
C966 C 0.53706 0.36103 0.16452 0.0
C967 C 0.53781 0.3693 0.22789 0.0
N968 N 0.57218 0.31977 0.1706 0.0
N969 N 0.51274 0.41724 0.22093 0.0
H970 H 0.5445 0.35501 0.27294 0.0
H971 H 0.52116 0.38609 0.26948 0.0
H972 H 0.50115 0.43305 0.20814 0.0
H973 H 0.51607 0.42394 0.24308 0.0
H974 H 0.57654 0.31812 0.1477 0.0
H975 H 0.5852 0.30504 0.18335 0.0
H976 H 0.54065 0.33566 0.12419 0.0
H977 H 0.52503 0.37104 0.11933 0.0
C978 C 0.85861 0.32321 0.45871 0.0
C979 C 0.87762 0.30948 0.48044 0.0
C980 C 0.8544 0.2603 0.47065 0.0
C981 C 0.83563 0.27385 0.44875 0.0
N982 N 0.81917 0.31748 0.42117 0.0
N983 N 0.88976 0.26705 0.5117 0.0
C984 C 0.83716 0.30527 0.44298 0.0
C985 C 0.87443 0.27856 0.48767 0.0
N986 N 0.86172 0.35321 0.45255 0.0
N987 N 0.85346 0.22984 0.47469 0.0
H988 H 0.90393 0.28006 0.5251 0.0
H989 H 0.8866 0.24549 0.52014 0.0
H990 H 0.83811 0.216 0.46364 0.0
H991 H 0.86883 0.2179 0.48764 0.0
H992 H 0.84776 0.36554 0.43852 0.0
H993 H 0.87854 0.36663 0.46166 0.0
H994 H 0.81933 0.33982 0.41451 0.0
H995 H 0.80378 0.305 0.40875 0.0
C996 C 0.93527 0.65275 0.68779 0.0
C997 C 0.94031 0.65033 0.71924 0.0
C998 C 0.97646 0.60957 0.71032 0.0
C999 C 0.96969 0.61044 0.67909 0.0
N1000 N 0.93894 0.62929 0.63872 0.0
N1001 N 0.96245 0.62412 0.76105 0.0
C1002 C 0.94817 0.63117 0.66796 0.0
C1003 C 0.95985 0.62793 0.73069 0.0
N1004 N 0.91831 0.67587 0.67679 0.0
N1005 N 0.99981 0.59231 0.72037 0.0
H1006 H 0.95139 0.63777 0.77656 0.0
H1007 H 0.9737 0.60613 0.77091 0.0
H1008 H 0.0129 0.57905 0.70619 0.0
H1009 H 0.00803 0.59312 0.74224 0.0
H1010 H 0.91682 0.6811 0.65404 0.0
H1011 H 0.90718 0.6912 0.69053 0.0
H1012 H 0.92091 0.6414 0.63004 0.0
H1013 H 0.9476 0.61365 0.62359 0.0
C1014 C 0.61679 0.27935 0.50839 0.0
C1015 C 0.61333 0.30957 0.51805 0.0
C1016 C 0.64561 0.29949 0.56163 0.0
C1017 C 0.65124 0.27013 0.55064 0.0
N1018 N 0.64438 0.2323 0.51273 0.0
N1019 N 0.62727 0.34975 0.55168 0.0
C1020 C 0.63737 0.26007 0.52377 0.0
C1021 C 0.62867 0.32003 0.54398 0.0
N1022 N 0.60016 0.26908 0.48471 0.0
N1023 N 0.6556 0.3074 0.58958 0.0
H1024 H 0.61429 0.36543 0.54012 0.0
H1025 H 0.64078 0.35947 0.56809 0.0
H1026 H 0.66765 0.29282 0.60336 0.0
H1027 H 0.64953 0.32722 0.6004 0.0
H1028 H 0.59906 0.24661 0.4784 0.0
H1029 H 0.58608 0.28299 0.47212 0.0
H1030 H 0.63783 0.22466 0.49164 0.0
H1031 H 0.65816 0.21727 0.52429 0.0
C1032 C 0.92636 0.35355 0.80878 0.0
C1033 C 0.93839 0.34738 0.77992 0.0
C1034 C 0.98238 0.37868 0.79102 0.0
C1035 C 0.97134 0.38307 0.82063 0.0
N1036 N 0.93483 0.37245 0.8592 0.0
N1037 N 0.97862 0.35123 0.74397 0.0
C1038 C 0.94392 0.36977 0.82997 0.0
C1039 C 0.96664 0.35919 0.77112 0.0
N1040 N 0.89781 0.34442 0.81564 0.0
N1041 N 0.00773 0.39347 0.78186 0.0
H1042 H 0.96704 0.33816 0.72834 0.0
H1043 H 1.00054 0.35614 0.73747 0.0
H1044 H 0.0208 0.4065 0.7963 0.0
H1045 H 0.01509 0.39416 0.75968 0.0
H1046 H 0.88637 0.35084 0.83498 0.0
H1047 H 0.88441 0.33223 0.8008 0.0
H1048 H 0.91691 0.36056 0.86839 0.0
H1049 H 0.94652 0.38504 0.87512 0.0
C1050 C 0.87397 0.7073 0.07099 0.0
C1051 C 0.85826 0.72923 0.05393 0.0
C1052 C 0.88213 0.71059 0.00772 0.0
C1053 C 0.89948 0.69032 0.02519 0.0
N1054 N 0.91512 0.67194 0.07383 0.0
N1055 N 0.84996 0.75475 0.00695 0.0
C1056 C 0.8965 0.68962 0.05694 0.0
C1057 C 0.86297 0.73164 0.02247 0.0
N1058 N 0.86603 0.70185 0.1002 0.0
N1059 N 0.88393 0.70964 0.97707 0.0
H1060 H 0.83616 0.77069 0.01718 0.0
H1061 H 0.85466 0.75967 0.98458 0.0
H1062 H 0.89867 0.69545 0.96565 0.0
H1063 H 0.86961 0.72146 0.96285 0.0
H1064 H 0.87399 0.68366 0.11257 0.0
H1065 H 0.84935 0.71374 0.11149 0.0
H1066 H 0.91682 0.67363 0.0971 0.0
H1067 H 0.93042 0.65683 0.0646 0.0
C1068 C 0.51651 0.62768 0.28781 0.0
C1069 C 0.5318 0.61048 0.30981 0.0
C1070 C 0.58038 0.62962 0.29174 0.0
C1071 C 0.56503 0.64865 0.2712 0.0
N1072 N 0.51868 0.6673 0.25031 0.0
N1073 N 0.57759 0.5979 0.33589 0.0
C1074 C 0.5331 0.6481 0.26946 0.0
C1075 C 0.56357 0.61199 0.31243 0.0
N1076 N 0.48627 0.62374 0.2839 0.0
N1077 N 0.61112 0.62861 0.29186 0.0
H1078 H 0.56622 0.58479 0.35156 0.0
H1079 H 0.60006 0.60112 0.3415 0.0
H1080 H 0.62466 0.64295 0.27929 0.0
H1081 H 0.62343 0.61222 0.30312 0.0
H1082 H 0.47405 0.63315 0.26634 0.0
H1083 H 0.47351 0.60929 0.29725 0.0
H1084 H 0.49558 0.67088 0.25032 0.0
H1085 H 0.53016 0.68074 0.23496 0.0
C1086 C 0.69134 0.94255 0.64951 0.0
C1087 C 0.72327 0.94106 0.64908 0.0
C1088 C 0.72432 0.97863 0.60853 0.0
C1089 C 0.69247 0.97802 0.6071 0.0
N1090 N 0.64578 0.95497 0.62247 0.0
N1091 N 0.77016 0.95445 0.62522 0.0
C1092 C 0.67595 0.95905 0.62679 0.0
C1093 C 0.73976 0.95807 0.62764 0.0
N1094 N 0.67549 0.92767 0.67124 0.0
N1095 N 0.73978 0.99979 0.59251 0.0
H1096 H 0.78264 0.94086 0.63963 0.0
H1097 H 0.78285 0.96345 0.60773 0.0
H1098 H 0.72907 0.0156 0.57895 0.0
H1099 H 0.76274 0.00363 0.5949 0.0
H1100 H 0.65274 0.93138 0.67531 0.0
H1101 H 0.68522 0.91272 0.6864 0.0
H1102 H 0.63321 0.93868 0.63361 0.0
H1103 H 0.63354 0.96586 0.60575 0.0
C1104 C 0.26881 0.3698 0.31108 0.0
C1105 C 0.2475 0.37869 0.2893 0.0
C1106 C 0.21001 0.34855 0.31685 0.0
C1107 C 0.23363 0.33468 0.33353 0.0
N1108 N 0.28738 0.32663 0.33733 0.0
N1109 N 0.19587 0.37689 0.27246 0.0
C1110 C 0.26364 0.34336 0.32751 0.0
C1111 C 0.21752 0.36777 0.29215 0.0
N1112 N 0.29228 0.38782 0.3187 0.0
N1113 N 0.18075 0.34555 0.32566 0.0
H1114 H 0.19907 0.39447 0.25733 0.0
H1115 H 0.17488 0.36658 0.27102 0.0
H1116 H 0.1741 0.33365 0.34464 0.0
H1117 H 0.16321 0.35764 0.31595 0.0
H1118 H 0.30771 0.38183 0.33533 0.0
H1119 H 0.29258 0.4105 0.31291 0.0
H1120 H 0.30952 0.33225 0.33196 0.0
H1121 H 0.28466 0.30555 0.34726 0.0
C1122 C 0.88474 0.96344 0.53121 0.0
C1123 C 0.89848 0.97232 0.50387 0.0
C1124 C 0.94801 0.97024 0.52738 0.0
C1125 C 0.93377 0.96726 0.55559 0.0
N1126 N 0.89091 0.95148 0.5843 0.0
N1127 N 0.9431 0.96853 0.47318 0.0
C1128 C 0.90278 0.96031 0.5574 0.0
C1129 C 0.93019 0.97065 0.5009 0.0
N1130 N 0.85446 0.95829 0.53171 0.0
N1131 N 0.97844 0.97356 0.52624 0.0
H1132 H 0.93063 0.96603 0.45358 0.0
H1133 H 0.96604 0.96561 0.46974 0.0
H1134 H 0.99171 0.97072 0.54531 0.0
H1135 H 0.99024 0.97954 0.50695 0.0
H1136 H 0.84211 0.95329 0.55089 0.0
H1137 H 0.84161 0.95823 0.51208 0.0
H1138 H 0.86845 0.94614 0.58782 0.0
H1139 H 0.90426 0.9482 0.60329 0.0
C1140 C 0.28797 0.65413 0.81472 0.0
C1141 C 0.28454 0.6857 0.81403 0.0
C1142 C 0.28198 0.68529 0.75929 0.0
C1143 C 0.28087 0.65328 0.76025 0.0
N1144 N 0.29416 0.6079 0.78642 0.0
N1145 N 0.29013 0.73177 0.78693 0.0
C1146 C 0.28765 0.6379 0.7873 0.0
C1147 C 0.28555 0.70145 0.7866 0.0
N1148 N 0.29073 0.63988 0.84176 0.0
N1149 N 0.27809 0.70033 0.73286 0.0
H1150 H 0.29376 0.74339 0.80692 0.0
H1151 H 0.2935 0.74476 0.76778 0.0
H1152 H 0.27826 0.68997 0.712 0.0
H1153 H 0.27427 0.72335 0.7315 0.0
H1154 H 0.28981 0.61669 0.84452 0.0
H1155 H 0.29359 0.65173 0.86178 0.0
H1156 H 0.30116 0.59546 0.80493 0.0
H1157 H 0.2952 0.59596 0.76627 0.0
C1158 C 0.61646 0.03419 0.04212 0.0
C1159 C 0.60273 0.02794 0.01404 0.0
C1160 C 0.55307 0.03443 0.03761 0.0
C1161 C 0.56694 0.03376 0.06609 0.0
N1162 N 0.61176 0.03367 0.09636 0.0
N1163 N 0.55692 0.0237 0.98462 0.0
C1164 C 0.59866 0.03436 0.06861 0.0
C1165 C 0.57073 0.02921 0.01143 0.0
N1166 N 0.6465 0.04046 0.04326 0.0
N1167 N 0.52292 0.03988 0.03577 0.0
H1168 H 0.56817 0.02222 0.9643 0.0
H1169 H 0.53398 0.01958 0.98257 0.0
H1170 H 0.50985 0.04396 0.05479 0.0
H1171 H 0.51151 0.04336 0.01564 0.0
H1172 H 0.65744 0.04766 0.06264 0.0
H1173 H 0.65983 0.04162 0.024 0.0
H1174 H 0.63467 0.03029 0.09975 0.0
H1175 H 0.59934 0.0349 0.11619 0.0
C1176 C 0.21743 0.65001 0.17753 0.0
C1177 C 0.22864 0.67981 0.1773 0.0
C1178 C 0.23521 0.67786 0.23177 0.0
C1179 C 0.23016 0.64634 0.23101 0.0
N1180 N 0.21416 0.60236 0.20388 0.0
N1181 N 0.249 0.72242 0.20352 0.0
C1182 C 0.22026 0.63246 0.20409 0.0
C1183 C 0.23735 0.69402 0.20431 0.0
N1184 N 0.20409 0.63869 0.1523 0.0
N1185 N 0.23769 0.69244 0.25857 0.0
H1186 H 0.2498 0.73525 0.18388 0.0
H1187 H 0.25947 0.73253 0.22184 0.0
H1188 H 0.23523 0.68158 0.27909 0.0
H1189 H 0.2387 0.71573 0.26043 0.0
H1190 H 0.19331 0.61796 0.15146 0.0
H1191 H 0.2015 0.65132 0.1327 0.0
H1192 H 0.21052 0.59 0.18439 0.0
H1193 H 0.21368 0.58942 0.22344 0.0
C1194 C 0.57759 0.95461 0.49487 0.0
C1195 C 0.60857 0.9621 0.49111 0.0
C1196 C 0.60427 0.95456 0.43688 0.0
C1197 C 0.57276 0.95261 0.44023 0.0
N1198 N 0.53145 0.93738 0.47078 0.0
N1199 N 0.65299 0.95436 0.4613 0.0
C1200 C 0.56006 0.94817 0.46886 0.0
C1201 C 0.62246 0.95705 0.46289 0.0
N1202 N 0.56465 0.9546 0.52265 0.0
N1203 N 0.61645 0.95551 0.40874 0.0
H1204 H 0.66648 0.95465 0.48049 0.0
H1205 H 0.66449 0.94868 0.44174 0.0
H1206 H 0.60356 0.95172 0.38954 0.0
H1207 H 0.63886 0.96073 0.40445 0.0
H1208 H 0.54153 0.95379 0.52611 0.0
H1209 H 0.57682 0.95528 0.54253 0.0
H1210 H 0.52091 0.9316 0.49084 0.0
H1211 H 0.51952 0.93126 0.45155 0.0
C1212 C 0.25935 0.29582 0.70795 0.0
C1213 C 0.27637 0.30738 0.68381 0.0
C1214 C 0.292 0.35013 0.71418 0.0
C1215 C 0.2726 0.34013 0.73727 0.0
N1216 N 0.24966 0.29759 0.76135 0.0
N1217 N 0.3201 0.33574 0.66985 0.0
C1218 C 0.26002 0.31097 0.73589 0.0
C1219 C 0.29643 0.33147 0.68875 0.0
N1220 N 0.24233 0.27068 0.70391 0.0
N1221 N 0.30557 0.37755 0.71619 0.0
H1222 H 0.32458 0.32098 0.65223 0.0
H1223 H 0.3369 0.35157 0.67378 0.0
H1224 H 0.3037 0.39111 0.73522 0.0
H1225 H 0.31742 0.38723 0.69845 0.0
H1226 H 0.22659 0.2631 0.71951 0.0
H1227 H 0.24372 0.25796 0.6843 0.0
H1228 H 0.24215 0.27545 0.76216 0.0
H1229 H 0.25227 0.3077 0.78224 0.0
C1230 C 0.92801 0.0504 0.99983 0.0
C1231 C 0.89657 0.04755 0.99461 0.0
C1232 C 0.90339 0.07057 0.94516 0.0
C1233 C 0.93404 0.06327 0.94692 0.0
N1234 N 0.9774 0.05206 0.9766 0.0
N1235 N 0.85341 0.06271 0.96554 0.0
C1236 C 0.94702 0.05603 0.97489 0.0
C1237 C 0.88388 0.06056 0.96836 0.0
N1238 N 0.93975 0.04783 0.02804 0.0
N1239 N 0.89333 0.08646 0.92101 0.0
H1240 H 0.83885 0.05802 0.98332 0.0
H1241 H 0.84267 0.06888 0.94569 0.0
H1242 H 0.90812 0.09364 0.90424 0.0
H1243 H 0.87144 0.09441 0.91888 0.0
H1244 H 0.96229 0.05178 0.03291 0.0
H1245 H 0.92677 0.04524 0.04724 0.0
H1246 H 0.98826 0.04261 0.99505 0.0
H1247 H 0.99146 0.05729 0.95854 0.0
C1248 C 0.28476 0.22689 0.30757 0.0
C1249 C 0.31273 0.21971 0.32055 0.0
C1250 C 0.2887 0.21348 0.36965 0.0
C1251 C 0.26254 0.22729 0.35795 0.0
N1252 N 0.23426 0.24541 0.31518 0.0
N1253 N 0.34151 0.20126 0.3623 0.0
C1254 C 0.25979 0.23272 0.32655 0.0
C1255 C 0.3146 0.21084 0.35106 0.0
N1256 N 0.2824 0.22808 0.27704 0.0
N1257 N 0.28858 0.20336 0.39864 0.0
H1258 H 0.36018 0.19766 0.34858 0.0
H1259 H 0.34563 0.19737 0.38497 0.0
H1260 H 0.26952 0.2049 0.41224 0.0
H1261 H 0.30616 0.19152 0.40848 0.0
H1262 H 0.26222 0.23107 0.2656 0.0
H1263 H 0.30056 0.22273 0.26324 0.0
H1264 H 0.23263 0.25391 0.29345 0.0
H1265 H 0.2148 0.24848 0.32774 0.0
C1266 C 0.03594 0.01666 0.57413 0.0
C1267 C 0.03101 0.01921 0.60552 0.0
C1268 C 0.03839 0.07358 0.6016 0.0
C1269 C 0.03388 0.07134 0.57024 0.0
N1270 N 0.03088 0.04108 0.52564 0.0
N1271 N 0.0341 0.04937 0.65027 0.0
C1272 C 0.03386 0.04293 0.55609 0.0
C1273 C 0.03471 0.04752 0.61965 0.0
N1274 N 0.04352 0.98973 0.56171 0.0
N1275 N 0.04629 0.10056 0.61384 0.0
H1276 H 0.03436 0.0303 0.66394 0.0
H1277 H 0.03283 0.06954 0.66203 0.0
H1278 H 0.04983 0.11964 0.60066 0.0
H1279 H 0.052 0.10346 0.63633 0.0
H1280 H 0.04938 0.98729 0.53919 0.0
H1281 H 0.0476 0.9706 0.57451 0.0
H1282 H 0.02734 0.02093 0.51431 0.0
H1283 H 0.03068 0.06009 0.51193 0.0
C1284 C 0.20803 0.79355 0.80937 0.0
C1285 C 0.17933 0.78562 0.82038 0.0
C1286 C 0.20013 0.78103 0.87115 0.0
C1287 C 0.22952 0.78112 0.85898 0.0
N1288 N 0.2619 0.79328 0.81664 0.0
N1289 N 0.14709 0.77358 0.86226 0.0
C1290 C 0.23373 0.78973 0.82826 0.0
C1291 C 0.17504 0.78037 0.85154 0.0
N1292 N 0.21056 0.80474 0.7809 0.0
N1293 N 0.19635 0.78236 0.90159 0.0
H1294 H 0.12795 0.7743 0.84886 0.0
H1295 H 0.14311 0.76579 0.88397 0.0
H1296 H 0.21447 0.78447 0.91634 0.0
H1297 H 0.1755 0.78498 0.91191 0.0
H1298 H 0.23029 0.81354 0.77195 0.0
H1299 H 0.19194 0.80789 0.76705 0.0
H1300 H 0.26636 0.79458 0.79373 0.0
H1301 H 0.28124 0.7949 0.82953 0.0
C1302 C 0.46072 0.99364 0.07209 0.0
C1303 C 0.46545 0.98957 0.10342 0.0
C1304 C 0.46708 0.93529 0.09693 0.0
C1305 C 0.4673 0.93932 0.06525 0.0
N1306 N 0.46273 0.97145 0.02212 0.0
N1307 N 0.45745 0.95723 0.14575 0.0
C1308 C 0.46302 0.96825 0.05263 0.0
C1309 C 0.46345 0.9605 0.11583 0.0
N1310 N 0.4525 0.02111 0.06122 0.0
N1311 N 0.47272 0.9077 0.10908 0.0
H1312 H 0.4534 0.9757 0.15964 0.0
H1313 H 0.45297 0.93661 0.15588 0.0
H1314 H 0.4758 0.88864 0.09603 0.0
H1315 H 0.47653 0.90406 0.13188 0.0
H1316 H 0.44729 0.02527 0.03882 0.0
H1317 H 0.44708 0.03907 0.07512 0.0
H1318 H 0.4637 0.99205 0.0111 0.0
H1319 H 0.46273 0.95302 0.0077 0.0
C1320 C 0.32223 0.74498 0.15363 0.0
C1321 C 0.32763 0.77253 0.16881 0.0
C1322 C 0.28628 0.7945 0.13898 0.0
C1323 C 0.28378 0.7672 0.12245 0.0
N1324 N 0.31444 0.72651 0.10384 0.0
N1325 N 0.31914 0.82648 0.16847 0.0
C1326 C 0.3064 0.74546 0.12641 0.0
C1327 C 0.31079 0.79832 0.15962 0.0
N1328 N 0.33109 0.71805 0.1653 0.0
N1329 N 0.2664 0.81727 0.13401 0.0
H1330 H 0.33821 0.83087 0.18122 0.0
H1331 H 0.30911 0.84594 0.16021 0.0
H1332 H 0.25165 0.8174 0.11581 0.0
H1333 H 0.26457 0.83584 0.14813 0.0
H1334 H 0.32632 0.69778 0.15451 0.0
H1335 H 0.33907 0.71579 0.18723 0.0
H1336 H 0.33191 0.71104 0.10628 0.0
H1337 H 0.30674 0.72952 0.0819 0.0
C1338 C 0.46488 0.03557 0.38986 0.0
C1339 C 0.4728 0.00816 0.40395 0.0
C1340 C 0.46958 0.03255 0.45327 0.0
C1341 C 0.46888 0.06059 0.4385 0.0
N1342 N 0.46116 0.08981 0.39373 0.0
N1343 N 0.47722 0.97886 0.44958 0.0
C1344 C 0.46455 0.06236 0.40706 0.0
C1345 C 0.47282 0.00592 0.43589 0.0
N1346 N 0.45726 0.0356 0.36011 0.0
N1347 N 0.467 0.03169 0.48384 0.0
H1348 H 0.47651 0.95852 0.43822 0.0
H1349 H 0.48157 0.97634 0.4724 0.0
H1350 H 0.46399 0.05113 0.49652 0.0
H1351 H 0.46512 0.01206 0.49639 0.0
H1352 H 0.44922 0.05434 0.34868 0.0
H1353 H 0.45628 0.01587 0.34748 0.0
H1354 H 0.46168 0.09328 0.37061 0.0
H1355 H 0.4585 0.1095 0.40615 0.0
C1356 C 0.19744 0.21203 0.67615 0.0
C1357 C 0.17821 0.23726 0.68079 0.0
C1358 C 0.19255 0.25652 0.63131 0.0
C1359 C 0.215 0.23451 0.62844 0.0
N1360 N 0.23081 0.18481 0.64215 0.0
N1361 N 0.17141 0.29007 0.66709 0.0
C1362 C 0.21521 0.21023 0.64923 0.0
C1363 C 0.17944 0.26141 0.65964 0.0
N1364 N 0.20099 0.19151 0.69871 0.0
N1365 N 0.1831 0.27252 0.60696 0.0
H1366 H 0.16938 0.29744 0.68916 0.0
H1367 H 0.1732 0.30787 0.65191 0.0
H1368 H 0.19016 0.2673 0.58522 0.0
H1369 H 0.16534 0.28778 0.60816 0.0
H1370 H 0.2161 0.17372 0.69797 0.0
H1371 H 0.19135 0.19431 0.71987 0.0
H1372 H 0.23056 0.16526 0.65495 0.0
H1373 H 0.24118 0.18208 0.62131 0.0
C1374 C 0.04815 0.9546 0.92636 0.0
C1375 C 0.03528 0.92683 0.91757 0.0
C1376 C 0.02305 0.94766 0.8679 0.0
C1377 C 0.03169 0.9762 0.87835 0.0
N1378 N 0.06162 0.00569 0.91185 0.0
N1379 N 0.02194 0.89392 0.87673 0.0
C1380 C 0.04783 0.97902 0.90562 0.0
C1381 C 0.02678 0.92237 0.88705 0.0
N1382 N 0.05884 0.95816 0.95486 0.0
N1383 N 0.00925 0.94531 0.84061 0.0
H1384 H 0.02485 0.87517 0.89042 0.0
H1385 H 0.0179 0.88877 0.85429 0.0
H1386 H 0.00744 0.96369 0.82611 0.0
H1387 H 0.99898 0.92579 0.83285 0.0
H1388 H 0.06496 0.97877 0.964 0.0
H1389 H 0.06128 0.94023 0.96967 0.0
H1390 H 0.07534 0.00928 0.93044 0.0
H1391 H 0.06116 0.02356 0.89663 0.0
C1392 C 0.317 0.30198 0.22423 0.0
C1393 C 0.33446 0.32855 0.22468 0.0
C1394 C 0.38059 0.29928 0.21954 0.0
C1395 C 0.36335 0.27269 0.22291 0.0
N1396 N 0.31573 0.24879 0.21297 0.0
N1397 N 0.38099 0.35359 0.21334 0.0
C1398 C 0.33166 0.27394 0.22012 0.0
C1399 C 0.36574 0.32751 0.21897 0.0
N1400 N 0.28678 0.30337 0.22938 0.0
N1401 N 0.41118 0.29725 0.21773 0.0
H1402 H 0.37028 0.37445 0.21261 0.0
H1403 H 0.40351 0.35454 0.20715 0.0
H1404 H 0.42213 0.27663 0.21545 0.0
H1405 H 0.42566 0.31558 0.21874 0.0
H1406 H 0.27352 0.28442 0.23307 0.0
H1407 H 0.27528 0.32367 0.23163 0.0
H1408 H 0.29275 0.24904 0.20853 0.0
H1409 H 0.32599 0.22842 0.20786 0.0
C1410 C 0.8125 0.20065 0.78825 0.0
C1411 C 0.82661 0.17326 0.78126 0.0
C1412 C 0.87478 0.19919 0.77782 0.0
C1413 C 0.85917 0.22685 0.77521 0.0
N1414 N 0.81193 0.25414 0.78063 0.0
N1415 N 0.87208 0.14499 0.77396 0.0
C1416 C 0.82778 0.22791 0.7819 0.0
C1417 C 0.85819 0.17205 0.77789 0.0
N1418 N 0.78484 0.20052 0.80139 0.0
N1419 N 0.90533 0.19906 0.78087 0.0
H1420 H 0.86063 0.12465 0.77616 0.0
H1421 H 0.8945 0.14281 0.76761 0.0
H1422 H 0.9178 0.21884 0.78267 0.0
H1423 H 0.91778 0.1797 0.78507 0.0
H1424 H 0.77425 0.21986 0.80923 0.0
H1425 H 0.77441 0.18057 0.80788 0.0
H1426 H 0.78852 0.25478 0.78082 0.0
H1427 H 0.8215 0.27522 0.77818 0.0
C1428 C 0.00325 0.56328 0.0448 0.0
C1429 C 0.00903 0.5945 0.04219 0.0
C1430 C 0.0622 0.58487 0.05273 0.0
C1431 C 0.05732 0.55412 0.04614 0.0
N1432 N 0.02312 0.51326 0.0371 0.0
N1433 N 0.04308 0.63585 0.04942 0.0
C1434 C 0.02774 0.54298 0.04295 0.0
C1435 C 0.03825 0.60556 0.04842 0.0
N1436 N 0.97485 0.55301 0.04993 0.0
N1437 N 0.08968 0.59417 0.06271 0.0
H1438 H 0.02543 0.6513 0.04906 0.0
H1439 H 0.06434 0.64561 0.04996 0.0
H1440 H 0.10756 0.57939 0.06598 0.0
H1441 H 0.09411 0.61589 0.07013 0.0
H1442 H 0.97007 0.5305 0.05422 0.0
H1443 H 0.95673 0.56726 0.05378 0.0
H1444 H 0.00228 0.50451 0.03096 0.0
H1445 H 0.04067 0.49775 0.03692 0.0
C1446 C 0.64307 0.7858 0.29653 0.0
C1447 C 0.65619 0.75878 0.28561 0.0
C1448 C 0.70613 0.77962 0.29481 0.0
C1449 C 0.69304 0.80809 0.29838 0.0
N1450 N 0.65159 0.83512 0.31865 0.0
N1451 N 0.70074 0.72696 0.28521 0.0
C1452 C 0.66213 0.81015 0.30449 0.0
C1453 C 0.68778 0.7545 0.2886 0.0
N1454 N 0.61255 0.7883 0.29849 0.0
N1455 N 0.7362 0.77598 0.2981 0.0
H1456 H 0.68864 0.70717 0.28262 0.0
H1457 H 0.72397 0.72386 0.28641 0.0
H1458 H 0.75018 0.79341 0.30522 0.0
H1459 H 0.75018 0.79341 0.30522 0.0
H1460 H 0.60149 0.80844 0.30278 0.0
H1461 H 0.59827 0.76993 0.29551 0.0
H1462 H 0.62972 0.83716 0.32668 0.0
H1463 H 0.66597 0.85265 0.32472 0.0
C1464 C 0.98612 0.93109 0.02735 0.0
C1465 C 0.98243 0.89921 0.02613 0.0
C1466 C 0.92843 0.90535 0.03603 0.0
C1467 C 0.93218 0.93693 0.03596 0.0
N1468 N 0.96481 0.97894 0.04282 0.0
N1469 N 0.95206 0.85642 0.03985 0.0
C1470 C 0.96126 0.94937 0.03564 0.0
C1471 C 0.95416 0.88646 0.0339 0.0
N1472 N 0.01229 0.94438 0.01836 0.0
N1473 N 0.90013 0.8935 0.03677 0.0
H1474 H 0.97072 0.84224 0.03981 0.0
H1475 H 0.9326 0.84624 0.04795 0.0
H1476 H 0.88113 0.9068 0.04005 0.0
H1477 H 0.8955 0.87089 0.03295 0.0
H1478 H 0.01454 0.96748 0.01537 0.0
H1479 H 0.03114 0.93263 0.01138 0.0
H1480 H 0.9857 0.98917 0.04548 0.0
H1481 H 0.94659 0.99206 0.04954 0.0
C1482 C 0.19429 0.72223 0.7018 0.0
C1483 C 0.18143 0.69353 0.70509 0.0
C1484 C 0.13153 0.71625 0.70637 0.0
C1485 C 0.14492 0.74445 0.71241 0.0
N1486 N 0.19031 0.77513 0.71251 0.0
N1487 N 0.13727 0.66236 0.70827 0.0
C1488 C 0.17661 0.748 0.70843 0.0
C1489 C 0.14979 0.69026 0.70607 0.0
N1490 N 0.22327 0.72465 0.6922 0.0
N1491 N 0.1014 0.71449 0.70077 0.0
H1492 H 0.15011 0.64288 0.70711 0.0
H1493 H 0.11458 0.65869 0.71274 0.0
H1494 H 0.08782 0.73358 0.69957 0.0
H1495 H 0.09073 0.6948 0.69396 0.0
H1496 H 0.23355 0.74504 0.68705 0.0
H1497 H 0.23565 0.70577 0.68597 0.0
H1498 H 0.21352 0.77749 0.71449 0.0
H1499 H 0.17897 0.79535 0.71478 0.0
C1500 C 0.02872 0.36992 0.44898 0.0
C1501 C 0.99873 0.38041 0.44794 0.0
C1502 C 0.01549 0.4285 0.42779 0.0
C1503 C 0.04517 0.42059 0.43578 0.0
N1504 N 0.08182 0.38284 0.44761 0.0
N1505 N 0.96451 0.41129 0.41939 0.0
C1506 C 0.05242 0.39058 0.44346 0.0
C1507 C 0.99223 0.40707 0.43178 0.0
N1508 N 0.03409 0.34026 0.45462 0.0
N1509 N 0.00945 0.45709 0.41848 0.0
H1510 H 0.94848 0.39423 0.41875 0.0
H1511 H 0.95904 0.42973 0.40607 0.0
H1512 H 0.02653 0.47263 0.41431 0.0
H1513 H 0.98777 0.46555 0.41604 0.0
H1514 H 0.05534 0.33052 0.45464 0.0
H1515 H 0.01659 0.32473 0.45645 0.0
H1516 H 0.08898 0.36236 0.45629 0.0
H1517 H 0.09924 0.39764 0.44246 0.0
C1518 C 0.46673 0.5444 0.9857 0.0
C1519 C 0.4406 0.55885 0.97473 0.0
C1520 C 0.46817 0.60653 0.97177 0.0
C1521 C 0.4924 0.59329 0.98771 0.0
N1522 N 0.51521 0.54936 0.00991 0.0
N1523 N 0.41572 0.60361 0.95717 0.0
C1524 C 0.49211 0.56198 0.99416 0.0
C1525 C 0.44128 0.58981 0.96716 0.0
N1526 N 0.46705 0.51377 0.98798 0.0
N1527 N 0.47117 0.63499 0.96059 0.0
H1528 H 0.396 0.5919 0.95234 0.0
H1529 H 0.41349 0.6268 0.95511 0.0
H1530 H 0.4908 0.64757 0.9632 0.0
H1531 H 0.45555 0.64502 0.94637 0.0
H1532 H 0.4861 0.50132 0.99335 0.0
H1533 H 0.44869 0.50057 0.98172 0.0
H1534 H 0.5146 0.52777 0.01887 0.0
H1535 H 0.5346 0.5611 0.0155 0.0
C1536 C 0.71239 0.79042 0.77582 0.0
C1537 C 0.70088 0.80209 0.8028 0.0
C1538 C 0.6931 0.85086 0.77895 0.0
C1539 C 0.71103 0.84107 0.75448 0.0
N1540 N 0.73453 0.80045 0.72715 0.0
N1541 N 0.66737 0.8374 0.82536 0.0
C1542 C 0.71888 0.81023 0.75165 0.0
C1543 C 0.68687 0.83048 0.80281 0.0
N1544 N 0.7164 0.7602 0.77362 0.0
N1545 N 0.68371 0.88003 0.78001 0.0
H1546 H 0.66226 0.82198 0.8423 0.0
H1547 H 0.65446 0.85688 0.82589 0.0
H1548 H 0.68694 0.89482 0.76207 0.0
H1549 H 0.67346 0.88971 0.79866 0.0
H1550 H 0.72281 0.74919 0.75403 0.0
H1551 H 0.70954 0.74613 0.79105 0.0
H1552 H 0.74434 0.77928 0.72564 0.0
H1553 H 0.73845 0.81385 0.70837 0.0
C1554 C 0.43373 0.43797 0.01845 0.0
C1555 C 0.42296 0.44138 0.04804 0.0
C1556 C 0.37253 0.45194 0.0295 0.0
C1557 C 0.38488 0.45437 1.00024 0.0
N1558 N 0.42046 0.43129 0.96624 0.0
N1559 N 0.38144 0.43974 0.08218 0.0
C1560 C 0.41334 0.44128 0.99431 0.0
C1561 C 0.39185 0.44403 0.05366 0.0
N1562 N 0.46364 0.43338 0.01352 0.0
N1563 N 0.34269 0.45749 0.03389 0.0
H1564 H 0.39585 0.43358 0.09965 0.0
H1565 H 0.35885 0.4402 0.08814 0.0
H1566 H 0.3278 0.45983 0.01592 0.0
H1567 H 0.33259 0.45909 0.0549 0.0
H1568 H 0.47346 0.43457 0.9923 0.0
H1569 H 0.47869 0.42964 0.03114 0.0
H1570 H 0.44056 0.42036 0.96132 0.0
H1571 H 0.40451 0.42971 0.94918 0.0
C1572 C 0.78307 0.13875 0.32381 0.0
C1573 C 0.78287 0.17042 0.32191 0.0
C1574 C 0.78381 0.16828 0.26728 0.0
C1575 C 0.78052 0.13631 0.26893 0.0
N1576 N 0.79039 0.09152 0.29768 0.0
N1577 N 0.79842 0.21353 0.29387 0.0
C1578 C 0.78468 0.12165 0.29696 0.0
C1579 C 0.78836 0.18461 0.29425 0.0
N1580 N 0.781 0.12523 0.35125 0.0
N1581 N 0.78077 0.18364 0.24088 0.0
H1582 H 0.80349 0.22494 0.31367 0.0
H1583 H 0.80529 0.22452 0.27436 0.0
H1584 H 0.78047 0.17396 0.21973 0.0
H1585 H 0.77782 0.20686 0.2401 0.0
H1586 H 0.77739 0.1023 0.35417 0.0
H1587 H 0.7822 0.13751 0.37119 0.0
H1588 H 0.79561 0.07981 0.31725 0.0
H1589 H 0.79305 0.07891 0.27809 0.0
C1590 C 0.1077 0.54722 0.5552 0.0
C1591 C 0.07692 0.55562 0.55422 0.0
C1592 C 0.08052 0.56322 0.50012 0.0
C1593 C 0.10804 0.54725 0.5006 0.0
N1594 N 0.15151 0.53021 0.52711 0.0
N1595 N 0.03805 0.58294 0.52847 0.0
C1596 C 0.1233 0.54224 0.52783 0.0
C1597 C 0.06472 0.56784 0.52754 0.0
N1598 N 0.12121 0.54307 0.58241 0.0
N1599 N 0.06888 0.57167 0.47302 0.0
H1600 H 0.02708 0.58765 0.54858 0.0
H1601 H 0.02775 0.59267 0.50991 0.0
H1602 H 0.08101 0.56887 0.45311 0.0
H1603 H 0.04786 0.58139 0.47002 0.0
H1604 H 0.14389 0.53818 0.58525 0.0
H1605 H 0.10968 0.54663 0.60249 0.0
H1606 H 0.16334 0.52315 0.54598 0.0
H1607 H 0.16303 0.52723 0.50688 0.0
C1608 C 0.72427 0.18593 0.70172 0.0
C1609 C 0.72423 0.17192 0.67334 0.0
C1610 C 0.72254 0.12247 0.69751 0.0
C1611 C 0.72931 0.13619 0.72549 0.0
N1612 N 0.7347 0.18198 0.75471 0.0
N1613 N 0.72011 0.12741 0.6432 0.0
C1614 C 0.72891 0.16822 0.72795 0.0
C1615 C 0.72198 0.1403 0.67097 0.0
N1616 N 0.71979 0.21625 0.70341 0.0
N1617 N 0.71585 0.09251 0.69658 0.0
H1618 H 0.71725 0.14012 0.62369 0.0
H1619 H 0.72225 0.10445 0.63935 0.0
H1620 H 0.71484 0.07924 0.71589 0.0
H1621 H 0.70841 0.08145 0.67739 0.0
H1622 H 0.71667 0.22787 0.72344 0.0
H1623 H 0.7161 0.22936 0.68433 0.0
H1624 H 0.73934 0.20481 0.75672 0.0
H1625 H 0.73596 0.17077 0.77506 0.0
C1626 C 0.05296 0.43826 0.98232 0.0
C1627 C 0.0652 0.44418 0.95361 0.0
C1628 C 0.1155 0.44569 0.97558 0.0
C1629 C 0.10249 0.44894 0.00433 0.0
N1630 N 0.05953 0.44023 0.03648 0.0
N1631 N 0.10873 0.45163 0.92214 0.0
C1632 C 0.07144 0.44216 0.00831 0.0
C1633 C 0.09678 0.44653 0.94993 0.0
N1634 N 0.02385 0.42891 0.9844 0.0
N1635 N 0.14588 0.44219 0.97304 0.0
H1636 H 0.09566 0.45206 0.90278 0.0
H1637 H 0.13119 0.45715 0.91853 0.0
H1638 H 0.15975 0.44079 0.99192 0.0
H1639 H 0.15665 0.43739 0.95283 0.0
H1640 H 0.01343 0.42263 0.00436 0.0
H1641 H 0.011 0.42471 0.96527 0.0
H1642 H 0.03658 0.43933 0.04086 0.0
H1643 H 0.07265 0.43911 0.05576 0.0
C1644 C 0.78564 0.82209 0.23627 0.0
C1645 C 0.78553 0.85386 0.23448 0.0
C1646 C 0.79708 0.84979 0.18085 0.0
C1647 C 0.78771 0.81945 0.18151 0.0
N1648 N 0.77474 0.77557 0.21031 0.0
N1649 N 0.79514 0.89841 0.20525 0.0
C1650 C 0.78282 0.80511 0.20943 0.0
C1651 C 0.79281 0.86788 0.20681 0.0
N1652 N 0.78953 0.80812 0.26319 0.0
N1653 N 0.81057 0.86098 0.15574 0.0
H1654 H 0.79434 0.91202 0.22433 0.0
H1655 H 0.79688 0.91011 0.18504 0.0
H1656 H 0.81495 0.84755 0.13705 0.0
H1657 H 0.82018 0.8823 0.15476 0.0
H1658 H 0.79248 0.78497 0.26512 0.0
H1659 H 0.79361 0.81991 0.28295 0.0
H1660 H 0.76744 0.76495 0.22987 0.0
H1661 H 0.77407 0.76227 0.19104 0.0
C1662 C 0.44724 0.54952 0.50635 0.0
C1663 C 0.41596 0.54377 0.50308 0.0
C1664 C 0.41816 0.56422 0.45218 0.0
C1665 C 0.44934 0.55946 0.45249 0.0
N1666 N 0.49473 0.55871 0.48061 0.0
N1667 N 0.37021 0.55356 0.47565 0.0
C1668 C 0.46429 0.556 0.4801 0.0
C1669 C 0.40085 0.55408 0.47694 0.0
N1670 N 0.46038 0.54917 0.53403 0.0
N1671 N 0.40565 0.57894 0.42848 0.0
H1672 H 0.35696 0.54872 0.49439 0.0
H1673 H 0.35811 0.55751 0.45601 0.0
H1674 H 0.41883 0.5867 0.41067 0.0
H1675 H 0.38328 0.58582 0.42793 0.0
H1676 H 0.48281 0.55452 0.53786 0.0
H1677 H 0.44836 0.54608 0.5538 0.0
H1678 H 0.50816 0.55376 0.49908 0.0
H1679 H 0.50614 0.56682 0.4618 0.0
C1680 C 0.79291 0.71228 0.8718 0.0
C1681 C 0.76524 0.71451 0.85614 0.0
C1682 C 0.79197 0.71423 0.80808 0.0
C1683 C 0.81955 0.71511 0.82384 0.0
N1684 N 0.84661 0.70285 0.86888 0.0
N1685 N 0.73905 0.70182 0.81045 0.0
C1686 C 0.8201 0.71012 0.85524 0.0
C1687 C 0.76483 0.71033 0.82456 0.0
N1688 N 0.79308 0.71269 0.90248 0.0
N1689 N 0.79149 0.7186 0.77773 0.0
H1690 H 0.71922 0.69732 0.82202 0.0
H1691 H 0.73833 0.69597 0.78779 0.0
H1692 H 0.81105 0.72097 0.76501 0.0
H1693 H 0.77169 0.72152 0.76559 0.0
H1694 H 0.81252 0.71497 0.91529 0.0
H1695 H 0.77335 0.71137 0.91511 0.0
H1696 H 0.84846 0.69698 0.89144 0.0
H1697 H 0.86632 0.69958 0.85659 0.0
C1698 C 0.55881 0.51332 0.09818 0.0
C1699 C 0.53907 0.51112 0.12295 0.0
C1700 C 0.53406 0.56554 0.12365 0.0
C1701 C 0.54571 0.56653 0.094 0.0
N1702 N 0.57633 0.54295 0.05585 0.0
N1703 N 0.51149 0.53465 0.16264 0.0
C1704 C 0.56111 0.54109 0.0824 0.0
C1705 C 0.52858 0.53725 0.13732 0.0
N1706 N 0.57413 0.48828 0.08936 0.0
N1707 N 0.52808 0.59178 0.13825 0.0
H1708 H 0.50821 0.51394 0.17321 0.0
H1709 H 0.50004 0.55254 0.17243 0.0
H1710 H 0.53342 0.61249 0.12862 0.0
H1711 H 0.52108 0.59291 0.16054 0.0
H1712 H 0.5903 0.48804 0.07249 0.0
H1713 H 0.5721 0.46801 0.10105 0.0
H1714 H 0.5847 0.52445 0.04433 0.0
H1715 H 0.58067 0.56322 0.04507 0.0
C1716 C 0.67261 0.28741 0.34828 0.0
C1717 C 0.67315 0.27642 0.31845 0.0
C1718 C 0.72728 0.26804 0.3223 0.0
C1719 C 0.72523 0.27206 0.35384 0.0
N1720 N 0.69779 0.29021 0.39668 0.0
N1721 N 0.70052 0.25682 0.27619 0.0
C1722 C 0.69847 0.28362 0.3667 0.0
C1723 C 0.70048 0.26739 0.30501 0.0
N1724 N 0.64715 0.30085 0.35893 0.0
N1725 N 0.75464 0.26531 0.30882 0.0
H1726 H 0.6815 0.25764 0.26249 0.0
H1727 H 0.71883 0.24597 0.26648 0.0
H1728 H 0.77469 0.26774 0.32055 0.0
H1729 H 0.75751 0.26452 0.28561 0.0
H1730 H 0.64563 0.31135 0.37974 0.0
H1731 H 0.62796 0.30351 0.34574 0.0
H1732 H 0.67832 0.29549 0.40848 0.0
H1733 H 0.71708 0.28985 0.41002 0.0
C1734 C 0.95739 0.4711 0.59357 0.0
C1735 C 0.97517 0.49503 0.58232 0.0
C1736 C 0.9829 0.46728 0.53524 0.0
C1737 C 0.96652 0.44267 0.54725 0.0
N1738 N 0.9285 0.42637 0.58229 0.0
N1739 N 0.99688 0.51983 0.5393 0.0
C1740 C 0.95056 0.44624 0.57462 0.0
C1741 C 0.98524 0.49446 0.55203 0.0
N1742 N 0.94756 0.47175 0.62265 0.0
N1743 N 0.99668 0.46433 0.50795 0.0
H1744 H 0.99828 0.54012 0.55077 0.0
H1745 H 0.00252 0.52169 0.51669 0.0
H1746 H 0.99321 0.44575 0.49409 0.0
H1747 H 0.01213 0.47969 0.49943 0.0
H1748 H 0.93788 0.45331 0.63336 0.0
H1749 H 0.95057 0.49031 0.63664 0.0
H1750 H 0.9143 0.42937 0.60064 0.0
H1751 H 0.92213 0.40857 0.56855 0.0
C1752 C 0.78897 0.2847 0.68659 0.0
C1753 C 0.81805 0.2815 0.67416 0.0
C1754 C 0.79673 0.2806 0.6235 0.0
C1755 C 0.76786 0.27649 0.63617 0.0
N1756 N 0.73504 0.28743 0.67819 0.0
N1757 N 0.85063 0.28012 0.631 0.0
C1758 C 0.76335 0.2827 0.66731 0.0
C1759 C 0.82221 0.28128 0.64258 0.0
N1760 N 0.78621 0.28887 0.71686 0.0
N1761 N 0.79941 0.2848 0.5932 0.0
H1762 H 0.86971 0.28232 0.64438 0.0
H1763 H 0.85537 0.27591 0.60849 0.0
H1764 H 0.78068 0.28617 0.57914 0.0
H1765 H 0.8195 0.29023 0.58251 0.0
H1766 H 0.76602 0.28914 0.72857 0.0
H1767 H 0.80489 0.29247 0.73052 0.0
H1768 H 0.72992 0.29118 0.70063 0.0
H1769 H 0.71645 0.29051 0.66445 0.0
C1770 C 0.95683 0.55234 0.91191 0.0
C1771 C 0.95908 0.55125 0.94355 0.0
C1772 C 0.96265 0.49665 0.94264 0.0
C1773 C 0.96474 0.49802 0.91074 0.0
N1774 N 0.95234 0.52445 0.86525 0.0
N1775 N 0.95125 0.52355 0.9888 0.0
C1776 C 0.95788 0.5251 0.89544 0.0
C1777 C 0.95765 0.52364 0.95885 0.0
N1778 N 0.95492 0.57954 0.89784 0.0
N1779 N 0.96716 0.47026 0.95758 0.0
H1780 H 0.94611 0.54342 1.00009 0.0
H1781 H 0.94766 0.50414 0.00136 0.0
H1782 H 0.96847 0.44956 0.94695 0.0
H1783 H 0.97026 0.46893 0.98072 0.0
H1784 H 0.95663 0.58243 0.8747 0.0
H1785 H 0.95217 0.59952 0.90978 0.0
H1786 H 0.94531 0.54299 0.85287 0.0
H1787 H 0.95211 0.50441 0.85308 0.0
C1788 C 0.68474 0.71687 0.1428 0.0
C1789 C 0.69049 0.71701 0.17404 0.0
C1790 C 0.74419 0.71193 0.16397 0.0
C1791 C 0.7389 0.7214 0.13392 0.0
N1792 N 0.7043 0.72405 0.09238 0.0
N1793 N 0.72496 0.71055 0.21495 0.0
C1794 C 0.7091 0.72077 0.12251 0.0
C1795 C 0.72004 0.71289 0.18482 0.0
N1796 N 0.65603 0.71259 0.13287 0.0
N1797 N 0.77157 0.70092 0.1723 0.0
H1798 H 0.70725 0.70887 0.23016 0.0
H1799 H 0.74623 0.7112 0.22468 0.0
H1800 H 0.78838 0.69596 0.15683 0.0
H1801 H 0.77603 0.6924 0.19362 0.0
H1802 H 0.65025 0.71 0.11038 0.0
H1803 H 0.63822 0.70885 0.14768 0.0
H1804 H 0.68326 0.72768 0.08284 0.0
H1805 H 0.7218 0.72301 0.07681 0.0
C1806 C 0.54757 0.50717 0.43669 0.0
C1807 C 0.54461 0.50316 0.4053 0.0
C1808 C 0.56048 0.45096 0.41188 0.0
C1809 C 0.55243 0.45284 0.44251 0.0
N1810 N 0.54135 0.48376 0.4853 0.0
N1811 N 0.55383 0.47197 0.36207 0.0
C1812 C 0.54735 0.4814 0.45541 0.0
C1813 C 0.55319 0.4753 0.39253 0.0
N1814 N 0.55161 0.53505 0.44854 0.0
N1815 N 0.5754 0.42634 0.40156 0.0
H1816 H 0.55072 0.49004 0.34744 0.0
H1817 H 0.5566 0.45123 0.35159 0.0
H1818 H 0.58145 0.40867 0.41573 0.0
H1819 H 0.5843 0.42499 0.37996 0.0
H1820 H 0.55661 0.53849 0.47116 0.0
H1821 H 0.55372 0.55421 0.4353 0.0
H1822 H 0.53425 0.50366 0.49534 0.0
H1823 H 0.54246 0.4652 0.49947 0.0
C1824 C 0.83616 0.80714 0.70136 0.0
C1825 C 0.82634 0.82436 0.72664 0.0
C1826 C 0.86628 0.80159 0.75592 0.0
C1827 C 0.87045 0.7788 0.73432 0.0
N1828 N 0.86052 0.76164 0.68378 0.0
N1829 N 0.82714 0.82813 0.78118 0.0
C1830 C 0.85537 0.78179 0.70626 0.0
C1831 C 0.83977 0.81854 0.75495 0.0
N1832 N 0.82943 0.81596 0.67274 0.0
N1833 N 0.88821 0.809 0.77589 0.0
H1834 H 0.80552 0.83711 0.78227 0.0
H1835 H 0.83663 0.82298 0.80201 0.0
H1836 H 0.91016 0.80113 0.77364 0.0
H1837 H 0.88556 0.82652 0.79126 0.0
H1838 H 0.83829 0.8055 0.65379 0.0
H1839 H 0.8182 0.83578 0.6676 0.0
H1840 H 0.84711 0.76034 0.66462 0.0
H1841 H 0.87807 0.74616 0.68442 0.0
C1842 C 0.3064 0.71178 0.30091 0.0
C1843 C 0.32124 0.68405 0.29918 0.0
C1844 C 0.36928 0.71016 0.29485 0.0
C1845 C 0.35345 0.73653 0.2866 0.0
N1846 N 0.30559 0.76309 0.2838 0.0
N1847 N 0.36712 0.65594 0.30078 0.0
C1848 C 0.32167 0.738 0.29112 0.0
C1849 C 0.35296 0.68307 0.29893 0.0
N1850 N 0.2777 0.71269 0.31151 0.0
N1851 N 0.39971 0.7112 0.29863 0.0
H1852 H 0.35524 0.63617 0.30512 0.0
H1853 H 0.39006 0.65299 0.29727 0.0
H1854 H 0.41184 0.73116 0.29641 0.0
H1855 H 0.41231 0.69323 0.30672 0.0
H1856 H 0.26609 0.73263 0.31545 0.0
H1857 H 0.26711 0.69332 0.31948 0.0
H1858 H 0.28218 0.76347 0.2834 0.0
H1859 H 0.31505 0.783 0.27616 0.0
C1860 C 0.5129 0.07642 0.54079 0.0
C1861 C 0.51625 0.1077 0.53555 0.0
C1862 C 0.5711 0.10171 0.53667 0.0
C1863 C 0.5671 0.07024 0.53383 0.0
N1864 N 0.53483 0.02691 0.53489 0.0
N1865 N 0.54795 0.15131 0.53756 0.0
C1866 C 0.53819 0.05733 0.53684 0.0
C1867 C 0.54535 0.12073 0.53662 0.0
N1868 N 0.48619 0.06511 0.55076 0.0
N1869 N 0.59954 0.11311 0.53909 0.0
H1870 H 0.5293 0.16523 0.54057 0.0
H1871 H 0.5681 0.163 0.53588 0.0
H1872 H 0.61851 0.09938 0.54005 0.0
H1873 H 0.60457 0.13574 0.54186 0.0
H1874 H 0.48316 0.04269 0.55671 0.0
H1875 H 0.46832 0.07873 0.55716 0.0
H1876 H 0.51403 0.01633 0.53308 0.0
H1877 H 0.55316 0.01241 0.53353 0.0
C1878 C 0.14493 0.30964 0.80137 0.0
C1879 C 0.17662 0.30824 0.80352 0.0
C1880 C 0.17513 0.25373 0.79907 0.0
C1881 C 0.14354 0.25544 0.79311 0.0
N1882 N 0.09791 0.28241 0.80429 0.0
N1883 N 0.21822 0.27918 0.821 0.0
C1884 C 0.12824 0.2826 0.79966 0.0
C1885 C 0.19054 0.28027 0.80799 0.0
N1886 N 0.13102 0.33686 0.79926 0.0
N1887 N 0.19107 0.2279 0.79479 0.0
H1888 H 0.22883 0.29862 0.82871 0.0
H1889 H 0.22876 0.25915 0.82701 0.0
H1890 H 0.18161 0.20697 0.79101 0.0
H1891 H 0.2145 0.22753 0.79445 0.0
H1892 H 0.10832 0.33938 0.79409 0.0
H1893 H 0.14287 0.35693 0.80136 0.0
H1894 H 0.08591 0.3013 0.81113 0.0
H1895 H 0.08553 0.26249 0.80479 0.0
C1896 C 0.45771 0.41102 0.56374 0.0
C1897 C 0.46062 0.44204 0.55836 0.0
C1898 C 0.51453 0.43485 0.55074 0.0
C1899 C 0.50882 0.40398 0.54512 0.0
N1900 N 0.4768 0.3611 0.55349 0.0
N1901 N 0.4927 0.48481 0.55363 0.0
C1902 C 0.48098 0.39146 0.55425 0.0
C1903 C 0.48955 0.45442 0.55449 0.0
N1904 N 0.43305 0.40075 0.57854 0.0
N1905 N 0.54325 0.44527 0.5531 0.0
H1906 H 0.4747 0.49881 0.55894 0.0
H1907 H 0.51251 0.4957 0.54755 0.0
H1908 H 0.56191 0.43124 0.55236 0.0
H1909 H 0.54839 0.4673 0.55907 0.0
H1910 H 0.42981 0.37839 0.58463 0.0
H1911 H 0.41827 0.41594 0.58836 0.0
H1912 H 0.45595 0.35092 0.55662 0.0
H1913 H 0.49438 0.3462 0.54914 0.0
C1914 C 0.63056 0.19488 0.2561 0.0
C1915 C 0.63054 0.21774 0.23428 0.0
C1916 C 0.67952 0.19836 0.21643 0.0
C1917 C 0.68106 0.17938 0.24224 0.0
N1918 N 0.66247 0.17389 0.29353 0.0
N1919 N 0.65253 0.23748 0.18895 0.0
C1920 C 0.65802 0.1818 0.26424 0.0
C1921 C 0.65441 0.21841 0.2129 0.0
N1922 N 0.6045 0.18505 0.26882 0.0
N1923 N 0.70248 0.19793 0.19608 0.0
H1924 H 0.63253 0.2483 0.18327 0.0
H1925 H 0.6701 0.24192 0.1742 0.0
H1926 H 0.72288 0.18729 0.2005 0.0
H1927 H 0.70181 0.2085 0.17525 0.0
H1928 H 0.60409 0.16733 0.2842 0.0
H1929 H 0.5835 0.19178 0.26084 0.0
H1930 H 0.64565 0.17632 0.3097 0.0
H1931 H 0.68377 0.17075 0.30272 0.0
C1932 C 0.54307 0.87703 0.96329 0.0
C1933 C 0.51447 0.89084 0.96449 0.0
C1934 C 0.53811 0.93931 0.95276 0.0
C1935 C 0.56608 0.92677 0.96077 0.0
N1936 N 0.59687 0.883 0.96864 0.0
N1937 N 0.48397 0.93476 0.95345 0.0
C1938 C 0.56913 0.89526 0.96394 0.0
C1939 C 0.51158 0.92178 0.95648 0.0
N1940 N 0.545 0.84647 0.96126 0.0
N1941 N 0.53715 0.96767 0.94116 0.0
H1942 H 0.46411 0.92268 0.95151 0.0
H1943 H 0.48067 0.9579 0.9526 0.0
H1944 H 0.55669 0.97985 0.93686 0.0
H1945 H 0.51779 0.9777 0.93272 0.0
H1946 H 0.56511 0.83494 0.9581 0.0
H1947 H 0.52591 0.83293 0.9595 0.0
H1948 H 0.60032 0.86073 0.9749 0.0
H1949 H 0.61651 0.89565 0.96711 0.0
C1950 C 0.98978 0.08751 0.46202 0.0
C1951 C 0.98611 0.11815 0.47038 0.0
C1952 C 0.93134 0.11257 0.46755 0.0
C1953 C 0.93511 0.08103 0.46567 0.0
N1954 N 0.9666 0.03819 0.45707 0.0
N1955 N 0.95473 0.16193 0.46738 0.0
C1956 C 0.96399 0.06847 0.46113 0.0
C1957 C 0.95715 0.13135 0.46881 0.0
N1958 N 0.01737 0.07696 0.45369 0.0
N1959 N 0.903 0.12427 0.4694 0.0
H1960 H 0.97359 0.17584 0.46625 0.0
H1961 H 0.9346 0.17339 0.46429 0.0
H1962 H 0.88382 0.11115 0.46625 0.0
H1963 H 0.89834 0.14656 0.47463 0.0
H1964 H 0.02127 0.05522 0.44613 0.0
H1965 H 0.0359 0.09082 0.45059 0.0
H1966 H 0.98687 0.02655 0.4576 0.0
H1967 H 0.94787 0.02448 0.45393 0.0
C1968 C 0.16752 0.40427 0.43513 0.0
C1969 C 0.16264 0.414 0.46516 0.0
C1970 C 0.18488 0.36657 0.48307 0.0
C1971 C 0.19214 0.35866 0.45303 0.0
N1972 N 0.2016 0.37769 0.40305 0.0
N1973 N 0.17497 0.40744 0.51764 0.0
C1974 C 0.18697 0.37989 0.42985 0.0
C1975 C 0.1739 0.39608 0.48919 0.0
N1976 N 0.15226 0.4165 0.41148 0.0
N1977 N 0.1872 0.34584 0.50557 0.0
H1978 H 0.16883 0.42949 0.5226 0.0
H1979 H 0.18524 0.3962 0.53544 0.0
H1980 H 0.19429 0.32384 0.50195 0.0
H1981 H 0.1794 0.34977 0.52728 0.0
H1982 H 0.15384 0.4079 0.38974 0.0
H1983 H 0.13506 0.43205 0.41384 0.0
H1984 H 0.19981 0.39392 0.38622 0.0
H1985 H 0.2189 0.36244 0.39978 0.0
C1986 C 0.8671 0.9805 0.66533 0.0
C1987 C 0.89432 0.97193 0.68001 0.0
C1988 C 0.86519 0.9426 0.71646 0.0
C1989 C 0.8382 0.95232 0.70245 0.0
N1990 N 0.81323 0.9872 0.6697 0.0
N1991 N 0.91847 0.95124 0.72379 0.0
C1992 C 0.8391 0.97345 0.67886 0.0
C1993 C 0.89318 0.95456 0.70669 0.0
N1994 N 0.8677 0.99365 0.63757 0.0
N1995 N 0.8641 0.92198 0.73916 0.0
H1996 H 0.93881 0.9615 0.71829 0.0
H1997 H 0.91857 0.94132 0.74498 0.0
H1998 H 0.84402 0.91494 0.7489 0.0
H1999 H 0.88301 0.91097 0.74745 0.0
H2000 H 0.84845 0.99717 0.62472 0.0
H2001 H 0.88738 0.9981 0.62572 0.0
H2002 H 0.81291 0.00513 0.65463 0.0
H2003 H 0.79238 0.98259 0.67941 0.0
C2004 C 0.27346 0.62138 0.93009 0.0
C2005 C 0.28295 0.6499 0.94126 0.0
C2006 C 0.32003 0.62455 0.97325 0.0
C2007 C 0.30889 0.59615 0.96372 0.0
N2008 N 0.26926 0.56806 0.93991 0.0
N2009 N 0.30948 0.67755 0.97958 0.0
C2010 C 0.2837 0.59478 0.9444 0.0
C2011 C 0.30442 0.65114 0.9648 0.0
N2012 N 0.2565 0.61922 0.90457 0.0
N2013 N 0.34643 0.6265 0.98882 0.0
H2014 H 0.29764 0.6972 0.97479 0.0
H2015 H 0.3229 0.67906 0.99871 0.0
H2016 H 0.35921 0.60787 0.9949 0.0
H2017 H 0.35713 0.64686 0.9932 0.0
H2018 H 0.25209 0.59881 0.89399 0.0
H2019 H 0.24961 0.63756 0.89184 0.0
H2020 H 0.24899 0.56634 0.9283 0.0
H2021 H 0.27581 0.54819 0.95051 0.0
C2022 C 0.63016 0.07762 0.20248 0.0
C2023 C 0.64862 0.05693 0.21807 0.0
C2024 C 0.60974 0.01853 0.21239 0.0
C2025 C 0.59359 0.03784 0.19265 0.0
N2026 N 0.59463 0.08335 0.16233 0.0
N2027 N 0.65851 0.006 0.23314 0.0
C2028 C 0.60535 0.06683 0.18592 0.0
C2029 C 0.63915 0.02684 0.22178 0.0
N2030 N 0.63603 0.10773 0.20366 0.0
N2031 N 0.59673 0.99286 0.22305 0.0
H2032 H 0.68022 0.0115 0.2401 0.0
H2033 H 0.65386 0.98305 0.23308 0.0
H2034 H 0.57456 0.98697 0.21824 0.0
H2035 H 0.60682 0.97924 0.23921 0.0
H2036 H 0.62145 0.12383 0.19489 0.0
H2037 H 0.65357 0.11673 0.21628 0.0
H2038 H 0.60471 0.10329 0.15526 0.0
H2039 H 0.57847 0.07564 0.14731 0.0
C2040 C 0.21846 0.61583 0.06265 0.0
C2041 C 0.20588 0.64357 0.0528 0.0
C2042 C 0.16604 0.61563 0.02706 0.0
C2043 C 0.18084 0.58813 0.03425 0.0
N2044 N 0.22631 0.5637 0.05022 0.0
N2045 N 0.1712 0.66944 0.02014 0.0
C2046 C 0.20869 0.58875 0.04932 0.0
C2047 C 0.18068 0.64339 0.03332 0.0
N2048 N 0.23834 0.61486 0.08605 0.0
N2049 N 0.13756 0.61552 0.01559 0.0
H2050 H 0.1818 0.69003 0.02362 0.0
H2051 H 0.15477 0.67004 0.00347 0.0
H2052 H 0.12554 0.59597 0.01106 0.0
H2053 H 0.1247 0.63494 0.01326 0.0
H2054 H 0.24582 0.59473 0.0954 0.0
H2055 H 0.24438 0.63367 0.09858 0.0
H2056 H 0.24808 0.56382 0.05889 0.0
H2057 H 0.22044 0.54392 0.03908 0.0
C2058 C 0.62951 0.91332 0.29474 0.0
C2059 C 0.65439 0.93258 0.28971 0.0
C2060 C 0.62334 0.97508 0.30521 0.0
C2061 C 0.60076 0.95501 0.316 0.0
N2062 N 0.58976 0.90314 0.32961 0.0
N2063 N 0.67649 0.98169 0.29526 0.0
C2064 C 0.60561 0.92354 0.31296 0.0
C2065 C 0.65191 0.96343 0.2968 0.0
N2066 N 0.6287 0.88503 0.28301 0.0
N2067 N 0.61719 0.00487 0.30122 0.0
H2068 H 0.69747 0.97408 0.28806 0.0
H2069 H 0.67625 0.0038 0.30297 0.0
H2070 H 0.59563 0.01373 0.30347 0.0
H2071 H 0.63252 0.01981 0.29169 0.0
H2072 H 0.60936 0.87178 0.28386 0.0
H2073 H 0.64616 0.87565 0.27058 0.0
H2074 H 0.59425 0.88017 0.32895 0.0
H2075 H 0.57576 0.90904 0.34738 0.0
C2076 C 0.30837 0.39469 0.52048 0.0
C2077 C 0.32931 0.40749 0.54105 0.0
C2078 C 0.31417 0.37047 0.57878 0.0
C2079 C 0.29713 0.35482 0.55707 0.0
N2080 N 0.27816 0.35118 0.50662 0.0
N2081 N 0.35597 0.40292 0.5884 0.0
C2082 C 0.29423 0.3667 0.52764 0.0
C2083 C 0.33329 0.39407 0.56976 0.0
N2084 N 0.30087 0.40996 0.49493 0.0
N2085 N 0.31061 0.36423 0.60858 0.0
H2086 H 0.37054 0.4204 0.58348 0.0
H2087 H 0.36191 0.39101 0.60769 0.0
H2088 H 0.29543 0.34822 0.61643 0.0
H2089 H 0.31977 0.37768 0.62541 0.0
H2090 H 0.2837 0.4033 0.48051 0.0
H2091 H 0.30985 0.43095 0.48962 0.0
H2092 H 0.27742 0.3571 0.484 0.0
H2093 H 0.26717 0.33105 0.51154 0.0
C2094 C 0.90322 0.02567 0.78668 0.0
C2095 C 0.90795 0.0309 0.81768 0.0
C2096 C 0.86193 0.06073 0.81979 0.0
C2097 C 0.85475 0.0525 0.78983 0.0
N2098 N 0.86664 0.02242 0.74631 0.0
N2099 N 0.88638 0.04552 0.86534 0.0
C2100 C 0.87494 0.03368 0.77358 0.0
C2101 C 0.8856 0.04586 0.8347 0.0
N2102 N 0.9256 0.01319 0.76987 0.0
N2103 N 0.84793 0.08433 0.8336 0.0
H2104 H 0.90333 0.0351 0.87763 0.0
H2105 H 0.86817 0.05268 0.87824 0.0
H2106 H 0.83273 0.09845 0.8228 0.0
H2107 H 0.85457 0.09236 0.85458 0.0
H2108 H 0.92483 0.01185 0.74653 0.0
H2109 H 0.946 0.00637 0.77925 0.0
H2110 H 0.87975 0.0074 0.73423 0.0
H2111 H 0.84538 0.02577 0.73707 0.0
C2112 C 0.44455 0.21344 0.40747 0.0
C2113 C 0.46606 0.1901 0.40546 0.0
C2114 C 0.46672 0.19605 0.35065 0.0
C2115 C 0.44145 0.21521 0.35252 0.0
N2116 N 0.40255 0.23768 0.38346 0.0
N2117 N 0.49399 0.15546 0.37382 0.0
C2118 C 0.42939 0.22293 0.38113 0.0
C2119 C 0.47643 0.18048 0.37672 0.0
N2120 N 0.43896 0.227 0.43444 0.0
N2121 N 0.48208 0.19341 0.32422 0.0
H2122 H 0.50088 0.14223 0.39182 0.0
H2123 H 0.49916 0.14599 0.35305 0.0
H2124 H 0.47613 0.2053 0.3049 0.0
H2125 H 0.50249 0.18206 0.32245 0.0
H2126 H 0.42546 0.24601 0.43653 0.0
H2127 H 0.45049 0.22138 0.45406 0.0
H2128 H 0.39151 0.24076 0.40388 0.0
H2129 H 0.38956 0.24399 0.36505 0.0
C2130 C 0.02183 0.1829 0.63333 0.0
C2131 C 0.03102 0.19659 0.6058 0.0
C2132 C 0.06415 0.23027 0.63386 0.0
C2133 C 0.05305 0.21834 0.66141 0.0
N2134 N 0.01526 0.18928 0.68696 0.0
N2135 N 0.05354 0.23929 0.58136 0.0
C2136 C 0.02995 0.19652 0.661 0.0
C2137 C 0.0499 0.22217 0.60654 0.0
N2138 N 0.00677 0.15613 0.63344 0.0
N2139 N 0.08946 0.24768 0.63329 0.0
H2140 H 0.04192 0.23488 0.5615 0.0
H2141 H 0.06503 0.2597 0.58139 0.0
H2142 H 0.10197 0.25297 0.65234 0.0
H2143 H 0.09989 0.25421 0.61335 0.0
H2144 H 0.00267 0.14396 0.65303 0.0
H2145 H 0.00112 0.1443 0.61411 0.0
H2146 H 0.99617 0.17572 0.68745 0.0
H2147 H 0.02025 0.19939 0.70751 0.0
C2148 C 0.06498 0.82348 0.88818 0.0
C2149 C 0.03943 0.80966 0.90161 0.0
C2150 C 0.03548 0.77498 0.85864 0.0
C2151 C 0.05994 0.78994 0.84459 0.0
N2152 N 0.09685 0.83005 0.84498 0.0
N2153 N 0.99951 0.77321 0.89971 0.0
C2154 C 0.07436 0.81453 0.85912 0.0
C2155 C 0.0245 0.78561 0.88685 0.0
N2156 N 0.0807 0.8453 0.90312 0.0
N2157 N 0.02287 0.75049 0.84505 0.0
H2158 H 0.99262 0.77818 0.92154 0.0
H2159 H 0.98489 0.75892 0.88846 0.0
H2160 H 0.02844 0.74369 0.82334 0.0
H2161 H 0.00776 0.73611 0.85556 0.0
H2162 H 0.10252 0.85164 0.89753 0.0
H2163 H 0.0729 0.85662 0.92192 0.0
H2164 H 0.10393 0.85139 0.8514 0.0
H2165 H 0.10799 0.82252 0.82597 0.0
C2166 C 0.44234 0.8374 0.11946 0.0
C2167 C 0.46495 0.82154 0.10321 0.0
C2168 C 0.47868 0.79458 0.14934 0.0
C2169 C 0.45376 0.80739 0.16419 0.0
N2170 N 0.42535 0.85317 0.16854 0.0
N2171 N 0.50225 0.78232 0.10203 0.0
C2172 C 0.4392 0.83232 0.15079 0.0
C2173 C 0.48269 0.79962 0.11809 0.0
N2174 N 0.42375 0.85739 0.10537 0.0
N2175 N 0.50019 0.78023 0.16575 0.0
H2176 H 0.50508 0.78447 0.07886 0.0
H2177 H 0.51309 0.76379 0.11127 0.0
H2178 H 0.4991 0.77877 0.18913 0.0
H2179 H 0.52094 0.77429 0.15678 0.0
H2180 H 0.40455 0.86612 0.11554 0.0
H2181 H 0.42605 0.86408 0.08313 0.0
H2182 H 0.41657 0.87327 0.16039 0.0
H2183 H 0.42714 0.85276 0.1919 0.0
C2184 C 0.41988 0.47175 0.20664 0.0
C2185 C 0.41505 0.47898 0.17601 0.0
C2186 C 0.36049 0.47848 0.1846 0.0
C2187 C 0.36526 0.46532 0.21306 0.0
N2188 N 0.3982 0.46665 0.25628 0.0
N2189 N 0.38015 0.48782 0.13502 0.0
C2190 C 0.39468 0.46672 0.22578 0.0
C2191 C 0.3852 0.48261 0.16488 0.0
N2192 N 0.44859 0.46969 0.21735 0.0
N2193 N 0.33257 0.48887 0.17729 0.0
H2194 H 0.39719 0.49011 0.11916 0.0
H2195 H 0.35883 0.4871 0.12539 0.0
H2196 H 0.31481 0.48853 0.19261 0.0
H2197 H 0.32814 0.50138 0.158 0.0
H2198 H 0.45405 0.46053 0.23816 0.0
H2199 H 0.46727 0.47609 0.20471 0.0
H2200 H 0.41882 0.4685 0.2671 0.0
H2201 H 0.38026 0.46994 0.27094 0.0
C2202 C 0.80002 0.88673 0.00947 0.0
C2203 C 0.81084 0.90895 0.02987 0.0
C2204 C 0.79088 0.87905 0.07136 0.0
C2205 C 0.7858 0.85457 0.05184 0.0
N2206 N 0.78913 0.83375 0.00206 0.0
N2207 N 0.82565 0.91867 0.08166 0.0
C2208 C 0.79167 0.85787 0.02076 0.0
C2209 C 0.80866 0.90322 0.06128 0.0
N2210 N 0.79608 0.89342 0.97981 0.0
N2211 N 0.77931 0.87932 0.09974 0.0
H2212 H 0.84304 0.93311 0.07561 0.0
H2213 H 0.82564 0.91347 0.10452 0.0
H2214 H 0.76647 0.86183 0.10857 0.0
H2215 H 0.78034 0.89838 0.11335 0.0
H2216 H 0.78593 0.87864 0.96476 0.0
H2217 H 0.79941 0.91491 0.97111 0.0
H2218 H 0.79576 0.83438 0.97961 0.0
H2219 H 0.78223 0.81265 0.00966 0.0
C2220 C 0.14028 0.58865 0.67054 0.0
C2221 C 0.15223 0.57483 0.69683 0.0
C2222 C 0.10787 0.54194 0.69987 0.0
C2223 C 0.09597 0.55598 0.67398 0.0
N2224 N 0.09779 0.59614 0.63746 0.0
N2225 N 0.14754 0.53941 0.73736 0.0
C2226 C 0.11127 0.58033 0.66016 0.0
C2227 C 0.13596 0.55179 0.71176 0.0
N2228 N 0.15665 0.60965 0.65511 0.0
N2229 N 0.0922 0.51891 0.71277 0.0
H2230 H 0.16945 0.5433 0.7447 0.0
H2231 H 0.13529 0.5261 0.75199 0.0
H2232 H 0.07052 0.51289 0.70619 0.0
H2233 H 0.10064 0.50519 0.72946 0.0
H2234 H 0.15161 0.61654 0.63334 0.0
H2235 H 0.17624 0.6195 0.66312 0.0
H2236 H 0.1056 0.6167 0.62951 0.0
H2237 H 0.0775 0.59003 0.62764 0.0
C2238 C 0.70382 0.87984 0.97432 0.0
C2239 C 0.68562 0.89932 0.9566 0.0
C2240 C 0.69238 0.86581 0.91368 0.0
C2241 C 0.70631 0.84429 0.93242 0.0
N2242 N 0.72213 0.82893 0.98174 0.0
N2243 N 0.65503 0.90456 0.91159 0.0
C2244 C 0.71106 0.85069 0.96319 0.0
C2245 C 0.67784 0.8907 0.92682 0.0
N2246 N 0.71524 0.88956 0.00108 0.0
N2247 N 0.6935 0.86298 0.88318 0.0
H2248 H 0.64114 0.9208 0.92102 0.0
H2249 H 0.6473 0.89694 0.89083 0.0
H2250 H 0.70451 0.84529 0.8725 0.0
H2251 H 0.68638 0.88002 0.86874 0.0
H2252 H 0.73021 0.87701 0.01394 0.0
H2253 H 0.71225 0.91142 0.00891 0.0
H2254 H 0.72307 0.83127 0.00501 0.0
H2255 H 0.72814 0.80765 0.97397 0.0
C2256 C 0.76107 0.11899 0.4416 0.0
C2257 C 0.76859 0.14862 0.45136 0.0
C2258 C 0.80696 0.1278 0.48479 0.0
C2259 C 0.79941 0.0983 0.47492 0.0
N2260 N 0.76144 0.06606 0.45412 0.0
N2261 N 0.79026 0.17934 0.49018 0.0
C2262 C 0.77373 0.09403 0.45681 0.0
C2263 C 0.78868 0.15234 0.47573 0.0
N2264 N 0.74413 0.11419 0.41645 0.0
N2265 N 0.83255 0.133 0.50094 0.0
H2266 H 0.77648 0.19743 0.4844 0.0
H2267 H 0.80266 0.1826 0.50977 0.0
H2268 H 0.84722 0.1162 0.50788 0.0
H2269 H 0.84059 0.15455 0.50533 0.0
H2270 H 0.74131 0.09293 0.40705 0.0
H2271 H 0.73537 0.13111 0.40297 0.0
H2272 H 0.74097 0.06218 0.4434 0.0
H2273 H 0.7701 0.04745 0.46549 0.0
C2274 C 0.73674 0.11895 0.55349 0.0
C2275 C 0.72702 0.14774 0.54316 0.0
C2276 C 0.68866 0.12351 0.51213 0.0
C2277 C 0.69877 0.09477 0.52203 0.0
N2278 N 0.73942 0.06573 0.54257 0.0
N2279 N 0.70175 0.1758 0.50449 0.0
C2280 C 0.7252 0.09272 0.53951 0.0
C2281 C 0.70568 0.14943 0.51967 0.0
N2282 N 0.75502 0.1161 0.578 0.0
N2283 N 0.66185 0.12668 0.49749 0.0
H2284 H 0.71453 0.19492 0.50912 0.0
H2285 H 0.68838 0.17758 0.48535 0.0
H2286 H 0.64762 0.10886 0.49238 0.0
H2287 H 0.65229 0.14758 0.493 0.0
H2288 H 0.75964 0.09541 0.58796 0.0
H2289 H 0.76318 0.13405 0.59047 0.0
H2290 H 0.76037 0.06348 0.55282 0.0
H2291 H 0.73187 0.04633 0.53178 0.0
C2292 C 0.11226 0.41996 0.84353 0.0
C2293 C 0.09622 0.44429 0.83046 0.0
C2294 C 0.13515 0.44932 0.79169 0.0
C2295 C 0.15187 0.42615 0.80563 0.0
N2296 N 0.15906 0.39299 0.84827 0.0
N2297 N 0.09329 0.4841 0.79409 0.0
C2298 C 0.14135 0.4127 0.83266 0.0
C2299 C 0.10799 0.45956 0.80514 0.0
N2300 N 0.09956 0.40312 0.86593 0.0
N2301 N 0.14498 0.4611 0.76514 0.0
H2302 H 0.07186 0.49052 0.80107 0.0
H2303 H 0.10318 0.49917 0.77935 0.0
H2304 H 0.16619 0.45663 0.75619 0.0
H2305 H 0.13139 0.47379 0.75114 0.0
H2306 H 0.10816 0.38255 0.87301 0.0
H2307 H 0.07927 0.4083 0.87631 0.0
H2308 H 0.15445 0.38617 0.87017 0.0
H2309 H 0.1795 0.3848 0.84054 0.0
C2310 C 0.37348 0.54681 0.28252 0.0
C2311 C 0.35171 0.56179 0.30065 0.0
C2312 C 0.3825 0.55102 0.34488 0.0
C2313 C 0.40649 0.54162 0.32624 0.0
N2314 N 0.42584 0.53223 0.27669 0.0
N2315 N 0.34086 0.58503 0.3489 0.0
C2316 C 0.40235 0.5401 0.29477 0.0
C2317 C 0.35741 0.56556 0.33187 0.0
N2318 N 0.36621 0.53816 0.25399 0.0
N2319 N 0.38342 0.54609 0.37511 0.0
H2320 H 0.32423 0.59902 0.34029 0.0
H2321 H 0.34641 0.59018 0.37107 0.0
H2322 H 0.40147 0.53568 0.38581 0.0
H2323 H 0.36479 0.54958 0.3889 0.0
H2324 H 0.38075 0.52647 0.23996 0.0
H2325 H 0.34449 0.54003 0.24539 0.0
H2326 H 0.4251 0.53359 0.25334 0.0
H2327 H 0.44681 0.52609 0.28522 0.0
C2328 C 0.98075 0.66491 0.87775 0.0
C2329 C 0.9733 0.67738 0.90633 0.0
C2330 C 0.93988 0.71324 0.88182 0.0
C2331 C 0.94952 0.7029 0.85308 0.0
N2332 N 0.98474 0.6737 0.82414 0.0
N2333 N 0.9531 0.71926 0.93407 0.0
C2334 C 0.97171 0.68019 0.85115 0.0
C2335 C 0.95521 0.70343 0.90785 0.0
N2336 N 0.9948 0.63769 0.87565 0.0
N2337 N 0.91509 0.73116 0.88473 0.0
H2338 H 0.96512 0.71347 0.95335 0.0
H2339 H 0.94229 0.73998 0.93554 0.0
H2340 H 0.90175 0.73792 0.86675 0.0
H2341 H 0.90567 0.73644 0.90551 0.0
H2342 H 0.99753 0.62638 0.85535 0.0
H2343 H 0.00106 0.62482 0.89412 0.0
H2344 H 0.00317 0.65942 0.822 0.0
H2345 H 0.97917 0.68493 0.80433 0.0
C2346 C 0.55825 0.72305 0.09855 0.0
C2347 C 0.53685 0.69985 0.10296 0.0
C2348 C 0.53657 0.71143 0.15682 0.0
C2349 C 0.56287 0.72879 0.15326 0.0
N2350 N 0.59956 0.75119 0.11961 0.0
N2351 N 0.50812 0.66951 0.13848 0.0
C2352 C 0.57372 0.73514 0.12379 0.0
C2353 C 0.52617 0.69367 0.13259 0.0
N2354 N 0.56323 0.734 0.07031 0.0
N2355 N 0.52138 0.7121 0.18346 0.0
H2356 H 0.50077 0.65429 0.12241 0.0
H2357 H 0.50293 0.66261 0.16025 0.0
H2358 H 0.5282 0.72568 0.20133 0.0
H2359 H 0.50038 0.70213 0.18642 0.0
H2360 H 0.5764 0.75288 0.066 0.0
H2361 H 0.55147 0.72624 0.05157 0.0
H2362 H 0.61011 0.75317 0.09881 0.0
H2363 H 0.61202 0.76059 0.13698 0.0
C2364 C 0.5276 0.28398 0.36857 0.0
C2365 C 0.54672 0.29957 0.3481 0.0
C2366 C 0.54099 0.34454 0.37906 0.0
C2367 C 0.52895 0.32699 0.40257 0.0
N2368 N 0.51008 0.27946 0.42008 0.0
N2369 N 0.57587 0.34493 0.33803 0.0
C2370 C 0.5219 0.29649 0.39745 0.0
C2371 C 0.55429 0.33009 0.35411 0.0
N2372 N 0.514 0.25788 0.36 0.0
N2373 N 0.53938 0.37509 0.38025 0.0
H2374 H 0.58879 0.33523 0.3212 0.0
H2375 H 0.58351 0.36626 0.34401 0.0
H2376 H 0.52921 0.38644 0.39805 0.0
H2377 H 0.54488 0.38862 0.3619 0.0
H2378 H 0.49811 0.24695 0.37323 0.0
H2379 H 0.51592 0.24925 0.3383 0.0
H2380 H 0.50735 0.25626 0.41854 0.0
H2381 H 0.50473 0.28843 0.44107 0.0
C2382 C 0.9614 0.27456 0.63076 0.0
C2383 C 0.941 0.29151 0.64853 0.0
C2384 C 0.94699 0.33371 0.61391 0.0
C2385 C 0.96245 0.31495 0.59353 0.0
N2386 N 0.98255 0.26632 0.58117 0.0
N2387 N 0.90882 0.33557 0.65196 0.0
C2388 C 0.96932 0.28499 0.60157 0.0
C2389 C 0.93238 0.32078 0.63895 0.0
N2390 N 0.97407 0.2491 0.64215 0.0
N2391 N 0.94671 0.36407 0.60969 0.0
H2392 H 0.89527 0.32639 0.66865 0.0
H2393 H 0.90035 0.3557 0.64348 0.0
H2394 H 0.95842 0.37436 0.59218 0.0
H2395 H 0.93807 0.37894 0.62558 0.0
H2396 H 0.99085 0.23744 0.63097 0.0
H2397 H 0.97028 0.24165 0.66405 0.0
H2398 H 0.98473 0.24327 0.58458 0.0
H2399 H 0.98923 0.27354 0.55988 0.0
loop_
_geom_bond_atom_site_label_1
_geom_bond_atom_site_label_2
_geom_bond_distance
_geom_bond_site_symmetry_2
_ccdc_geom_bond_type
Co0 O1 2.216 . S
Co0 O2 2.091 . S
Co0 O4 2.004 . S
Co0 O10 2.021 . S
Co0 O12 2.137 . S
Co0 O13 2.244 . S
O1 Co0 2.216 . S
O1 C8 1.247 . S
O2 Co0 2.091 . S
O2 C8 1.261 . S
C3 O12 1.247 . S
C3 O13 1.272 . S
O4 Co0 2.004 . S
O4 C9 1.259 . S
Co5 O6 2.061 . S
Co5 O11 2.052 . S
Co5 O13 2.135 . S
O6 Co5 2.061 . S
O6 C9 1.235 . S
C7 O10 1.238 . S
C7 O11 1.241 . S
C8 O1 1.247 . S
C8 O2 1.261 . S
C9 O4 1.259 . S
C9 O6 1.235 . S
O10 Co0 2.021 . S
O10 C7 1.238 . S
O11 Co5 2.052 . S
O11 C7 1.241 . S
O12 Co0 2.137 . S
O12 C3 1.247 . S
O13 Co0 2.244 . S
O13 C3 1.272 . S
O13 Co5 2.135 . S
Co14 O15 2.216 1_655 S
Co14 O16 2.091 1_655 S
Co14 O18 2.004 . S
Co14 O24 2.021 . S
Co14 O26 2.137 1_655 S
Co14 O27 2.244 . S
O15 Co14 2.216 1_455 S
O15 C22 1.247 . S
O16 Co14 2.091 1_455 S
O16 C22 1.261 . S
C17 O26 1.247 . S
C17 O27 1.272 1_455 S
O18 Co14 2.004 . S
O18 C23 1.259 . S
Co19 O20 2.061 . S
Co19 O25 2.052 . S
Co19 O27 2.135 . S
O20 Co19 2.061 . S
O20 C23 1.235 . S
C21 O24 1.238 . S
C21 O25 1.241 . S
C22 O15 1.247 . S
C22 O16 1.261 . S
C23 O18 1.259 . S
C23 O20 1.235 . S
O24 Co14 2.021 . S
O24 C21 1.238 . S
O25 Co19 2.052 . S
O25 C21 1.241 . S
O26 Co14 2.137 1_455 S
O26 C17 1.247 . S
O27 Co14 2.244 . S
O27 C17 1.272 1_655 S
O27 Co19 2.135 . S
Co28 O29 2.216 . S
Co28 O30 2.091 . S
Co28 O32 2.004 . S
Co28 O38 2.021 . S
Co28 O40 2.137 . S
Co28 O41 2.244 . S
O29 Co28 2.216 . S
O29 C36 1.247 . S
O30 Co28 2.091 . S
O30 C36 1.261 . S
C31 O40 1.247 . S
C31 O41 1.272 . S
O32 Co28 2.004 . S
O32 C37 1.259 . S
Co33 O34 2.061 . S
Co33 O39 2.052 . S
Co33 O41 2.135 . S
O34 Co33 2.061 . S
O34 C37 1.235 . S
C35 O38 1.238 . S
C35 O39 1.241 . S
C36 O29 1.247 . S
C36 O30 1.261 . S
C37 O32 1.259 . S
C37 O34 1.235 . S
O38 Co28 2.021 . S
O38 C35 1.238 . S
O39 Co33 2.052 . S
O39 C35 1.241 . S
O40 Co28 2.137 . S
O40 C31 1.247 . S
O41 Co28 2.244 . S
O41 C31 1.272 . S
O41 Co33 2.135 . S
Co42 O43 2.216 . S
Co42 O44 2.091 . S
Co42 O46 2.004 . S
Co42 O52 2.021 . S
Co42 O54 2.137 . S
Co42 O55 2.244 . S
O43 Co42 2.216 . S
O43 C50 1.247 . S
O44 Co42 2.091 . S
O44 C50 1.261 . S
C45 O54 1.247 . S
C45 O55 1.272 . S
O46 Co42 2.004 . S
O46 C51 1.259 . S
Co47 O48 2.061 . S
Co47 O53 2.052 . S
Co47 O55 2.135 . S
O48 Co47 2.061 . S
O48 C51 1.235 . S
C49 O52 1.238 . S
C49 O53 1.241 . S
C50 O43 1.247 . S
C50 O44 1.261 . S
C51 O46 1.259 . S
C51 O48 1.235 . S
O52 Co42 2.021 . S
O52 C49 1.238 . S
O53 Co47 2.052 . S
O53 C49 1.241 . S
O54 Co42 2.137 . S
O54 C45 1.247 . S
O55 Co42 2.244 . S
O55 C45 1.272 . S
O55 Co47 2.135 . S
Co56 O57 2.216 . S
Co56 O58 2.091 . S
Co56 O60 2.004 . S
Co56 O66 2.021 . S
Co56 O68 2.137 . S
Co56 O69 2.244 . S
O57 Co56 2.216 . S
O57 C64 1.247 . S
O58 Co56 2.091 . S
O58 C64 1.261 . S
C59 O68 1.247 . S
C59 O69 1.272 . S
O60 Co56 2.004 . S
O60 C65 1.259 . S
Co61 O62 2.061 . S
Co61 O67 2.052 . S
Co61 O69 2.135 . S
O62 Co61 2.061 . S
O62 C65 1.235 . S
C63 O66 1.238 . S
C63 O67 1.241 . S
C64 O57 1.247 . S
C64 O58 1.261 . S
C65 O60 1.259 . S
C65 O62 1.235 . S
O66 Co56 2.021 . S
O66 C63 1.238 . S
O67 Co61 2.052 . S
O67 C63 1.241 . S
O68 Co56 2.137 . S
O68 C59 1.247 . S
O69 Co56 2.244 . S
O69 C59 1.272 . S
O69 Co61 2.135 . S
Co70 O71 2.216 . S
Co70 O72 2.091 . S
Co70 O74 2.004 . S
Co70 O80 2.021 . S
Co70 O82 2.137 . S
Co70 O83 2.244 . S
O71 Co70 2.216 . S
O71 C78 1.247 . S
O72 Co70 2.091 . S
O72 C78 1.261 . S
C73 O82 1.247 . S
C73 O83 1.272 . S
O74 Co70 2.004 . S
O74 C79 1.259 . S
Co75 O76 2.061 . S
Co75 O81 2.052 . S
Co75 O83 2.135 . S
O76 Co75 2.061 . S
O76 C79 1.235 . S
C77 O80 1.238 . S
C77 O81 1.241 . S
C78 O71 1.247 . S
C78 O72 1.261 . S
C79 O74 1.259 . S
C79 O76 1.235 . S
O80 Co70 2.021 . S
O80 C77 1.238 . S
O81 Co75 2.052 . S
O81 C77 1.241 . S
O82 Co70 2.137 . S
O82 C73 1.247 . S
O83 Co70 2.244 . S
O83 C73 1.272 . S
O83 Co75 2.135 . S
Co84 O85 2.216 . S
Co84 O86 2.091 . S
Co84 O88 2.004 . S
Co84 O94 2.021 . S
Co84 O96 2.137 . S
Co84 O97 2.244 . S
O85 Co84 2.216 . S
O85 C92 1.247 . S
O86 Co84 2.091 . S
O86 C92 1.261 . S
C87 O96 1.247 . S
C87 O97 1.272 . S
O88 Co84 2.004 . S
O88 C93 1.259 . S
Co89 O90 2.061 . S
Co89 O95 2.052 . S
Co89 O97 2.135 . S
O90 Co89 2.061 . S
O90 C93 1.235 . S
C91 O94 1.238 . S
C91 O95 1.241 . S
C92 O85 1.247 . S
C92 O86 1.261 . S
C93 O88 1.259 . S
C93 O90 1.235 . S
O94 Co84 2.021 . S
O94 C91 1.238 . S
O95 Co89 2.052 . S
O95 C91 1.241 . S
O96 Co84 2.137 . S
O96 C87 1.247 . S
O97 Co84 2.244 . S
O97 C87 1.272 . S
O97 Co89 2.135 . S
Co98 O99 2.216 1_655 S
Co98 O100 2.091 1_655 S
Co98 O102 2.004 . S
Co98 O108 2.021 . S
Co98 O110 2.137 1_655 S
Co98 O111 2.244 . S
O99 Co98 2.216 1_455 S
O99 C106 1.247 . S
O100 Co98 2.091 1_455 S
O100 C106 1.261 . S
C101 O110 1.247 . S
C101 O111 1.272 1_455 S
O102 Co98 2.004 . S
O102 C107 1.259 . S
Co103 O104 2.061 . S
Co103 O109 2.052 . S
Co103 O111 2.135 . S
O104 Co103 2.061 . S
O104 C107 1.235 . S
C105 O108 1.238 . S
C105 O109 1.241 . S
C106 O99 1.247 . S
C106 O100 1.261 . S
C107 O102 1.259 . S
C107 O104 1.235 . S
O108 Co98 2.021 . S
O108 C105 1.238 . S
O109 Co103 2.052 . S
O109 C105 1.241 . S
O110 Co98 2.137 1_455 S
O110 C101 1.247 . S
O111 Co98 2.244 . S
O111 C101 1.272 1_655 S
O111 Co103 2.135 . S
Co112 O113 2.216 . S
Co112 O114 2.091 . S
Co112 O116 2.004 . S
Co112 O122 2.021 . S
Co112 O124 2.137 . S
Co112 O125 2.244 . S
O113 Co112 2.216 . S
O113 C120 1.247 . S
O114 Co112 2.091 . S
O114 C120 1.261 . S
C115 O124 1.247 . S
C115 O125 1.272 . S
O116 Co112 2.004 . S
O116 C121 1.259 . S
Co117 O118 2.061 . S
Co117 O123 2.052 . S
Co117 O125 2.135 . S
O118 Co117 2.061 . S
O118 C121 1.235 . S
C119 O122 1.238 . S
C119 O123 1.241 . S
C120 O113 1.247 . S
C120 O114 1.261 . S
C121 O116 1.259 . S
C121 O118 1.235 . S
O122 Co112 2.021 . S
O122 C119 1.238 . S
O123 Co117 2.052 . S
O123 C119 1.241 . S
O124 Co112 2.137 . S
O124 C115 1.247 . S
O125 Co112 2.244 . S
O125 C115 1.272 . S
O125 Co117 2.135 . S
Co126 O127 2.216 . S
Co126 O128 2.091 . S
Co126 O130 2.004 . S
Co126 O136 2.021 . S
Co126 O138 2.137 . S
Co126 O139 2.244 . S
O127 Co126 2.216 . S
O127 C134 1.247 . S
O128 Co126 2.091 . S
O128 C134 1.261 . S
C129 O138 1.247 . S
C129 O139 1.272 . S
O130 Co126 2.004 . S
O130 C135 1.259 . S
Co131 O132 2.061 . S
Co131 O137 2.052 . S
Co131 O139 2.135 . S
O132 Co131 2.061 . S
O132 C135 1.235 . S
C133 O136 1.238 . S
C133 O137 1.241 . S
C134 O127 1.247 . S
C134 O128 1.261 . S
C135 O130 1.259 . S
C135 O132 1.235 . S
O136 Co126 2.021 . S
O136 C133 1.238 . S
O137 Co131 2.052 . S
O137 C133 1.241 . S
O138 Co126 2.137 . S
O138 C129 1.247 . S
O139 Co126 2.244 . S
O139 C129 1.272 . S
O139 Co131 2.135 . S
Co140 O141 2.216 . S
Co140 O142 2.091 . S
Co140 O144 2.004 . S
Co140 O150 2.021 . S
Co140 O152 2.137 . S
Co140 O153 2.244 . S
O141 Co140 2.216 . S
O141 C148 1.247 . S
O142 Co140 2.091 . S
O142 C148 1.261 . S
C143 O152 1.247 . S
C143 O153 1.272 . S
O144 Co140 2.004 . S
O144 C149 1.259 . S
Co145 O146 2.061 . S
Co145 O151 2.052 . S
Co145 O153 2.135 . S
O146 Co145 2.061 . S
O146 C149 1.235 . S
C147 O150 1.238 . S
C147 O151 1.241 . S
C148 O141 1.247 . S
C148 O142 1.261 . S
C149 O144 1.259 . S
C149 O146 1.235 . S
O150 Co140 2.021 . S
O150 C147 1.238 . S
O151 Co145 2.052 . S
O151 C147 1.241 . S
O152 Co140 2.137 . S
O152 C143 1.247 . S
O153 Co140 2.244 . S
O153 C143 1.272 . S
O153 Co145 2.135 . S
Co154 O155 2.216 1_554 S
Co154 O156 2.091 1_554 S
Co154 O158 2.004 . S
Co154 O164 2.021 . S
Co154 O166 2.137 1_554 S
Co154 O167 2.244 . S
O155 Co154 2.216 1_556 S
O155 C162 1.247 . S
O156 Co154 2.091 1_556 S
O156 C162 1.261 . S
C157 O166 1.247 . S
C157 O167 1.272 1_556 S
O158 Co154 2.004 . S
O158 C163 1.259 . S
Co159 O160 2.061 . S
Co159 O165 2.052 . S
Co159 O167 2.135 . S
O160 Co159 2.061 . S
O160 C163 1.235 . S
C161 O164 1.238 . S
C161 O165 1.241 . S
C162 O155 1.247 . S
C162 O156 1.261 . S
C163 O158 1.259 . S
C163 O160 1.235 . S
O164 Co154 2.021 . S
O164 C161 1.238 . S
O165 Co159 2.052 . S
O165 C161 1.241 . S
O166 Co154 2.137 1_556 S
O166 C157 1.247 . S
O167 Co154 2.244 . S
O167 C157 1.272 1_554 S
O167 Co159 2.135 . S
Co168 O169 2.216 . S
Co168 O170 2.091 . S
Co168 O172 2.004 . S
Co168 O178 2.021 . S
Co168 O180 2.137 . S
Co168 O181 2.244 . S
O169 Co168 2.216 . S
O169 C176 1.247 . S
O170 Co168 2.091 . S
O170 C176 1.261 . S
C171 O180 1.247 . S
C171 O181 1.272 . S
O172 Co168 2.004 . S
O172 C177 1.259 . S
Co173 O174 2.061 . S
Co173 O179 2.052 . S
Co173 O181 2.135 . S
O174 Co173 2.061 . S
O174 C177 1.235 . S
C175 O178 1.238 . S
C175 O179 1.241 . S
C176 O169 1.247 . S
C176 O170 1.261 . S
C177 O172 1.259 . S
C177 O174 1.235 . S
O178 Co168 2.021 . S
O178 C175 1.238 . S
O179 Co173 2.052 . S
O179 C175 1.241 . S
O180 Co168 2.137 . S
O180 C171 1.247 . S
O181 Co168 2.244 . S
O181 C171 1.272 . S
O181 Co173 2.135 . S
Co182 O183 2.216 . S
Co182 O184 2.091 . S
Co182 O186 2.004 . S
Co182 O192 2.021 . S
Co182 O194 2.137 . S
Co182 O195 2.244 . S
O183 Co182 2.216 . S
O183 C190 1.247 . S
O184 Co182 2.091 . S
O184 C190 1.261 . S
C185 O194 1.247 . S
C185 O195 1.272 . S
O186 Co182 2.004 . S
O186 C191 1.259 . S
Co187 O188 2.061 . S
Co187 O193 2.052 . S
Co187 O195 2.135 . S
O188 Co187 2.061 . S
O188 C191 1.235 . S
C189 O192 1.238 . S
C189 O193 1.241 . S
C190 O183 1.247 . S
C190 O184 1.261 . S
C191 O186 1.259 . S
C191 O188 1.235 . S
O192 Co182 2.021 . S
O192 C189 1.238 . S
O193 Co187 2.052 . S
O193 C189 1.241 . S
O194 Co182 2.137 . S
O194 C185 1.247 . S
O195 Co182 2.244 . S
O195 C185 1.272 . S
O195 Co187 2.135 . S
Co196 O197 2.216 . S
Co196 O198 2.091 . S
Co196 O200 2.004 . S
Co196 O206 2.021 . S
Co196 O208 2.137 . S
Co196 O209 2.244 . S
O197 Co196 2.216 . S
O197 C204 1.247 . S
O198 Co196 2.091 . S
O198 C204 1.261 . S
C199 O208 1.247 . S
C199 O209 1.272 . S
O200 Co196 2.004 . S
O200 C205 1.259 . S
Co201 O202 2.061 . S
Co201 O207 2.052 . S
Co201 O209 2.135 . S
O202 Co201 2.061 . S
O202 C205 1.235 . S
C203 O206 1.238 . S
C203 O207 1.241 . S
C204 O197 1.247 . S
C204 O198 1.261 . S
C205 O200 1.259 . S
C205 O202 1.235 . S
O206 Co196 2.021 . S
O206 C203 1.238 . S
O207 Co201 2.052 . S
O207 C203 1.241 . S
O208 Co196 2.137 . S
O208 C199 1.247 . S
O209 Co196 2.244 . S
O209 C199 1.272 . S
O209 Co201 2.135 . S
Co210 O211 2.216 1_556 S
Co210 O212 2.091 1_556 S
Co210 O214 2.004 . S
Co210 O220 2.021 . S
Co210 O222 2.137 1_556 S
Co210 O223 2.244 . S
O211 Co210 2.216 1_554 S
O211 C218 1.247 . S
O212 Co210 2.091 1_554 S
O212 C218 1.261 . S
C213 O222 1.247 . S
C213 O223 1.272 1_554 S
O214 Co210 2.004 . S
O214 C219 1.259 . S
Co215 O216 2.061 . S
Co215 O221 2.052 . S
Co215 O223 2.135 . S
O216 Co215 2.061 . S
O216 C219 1.235 . S
C217 O220 1.238 . S
C217 O221 1.241 . S
C218 O211 1.247 . S
C218 O212 1.261 . S
C219 O214 1.259 . S
C219 O216 1.235 . S
O220 Co210 2.021 . S
O220 C217 1.238 . S
O221 Co215 2.052 . S
O221 C217 1.241 . S
O222 Co210 2.137 1_554 S
O222 C213 1.247 . S
O223 Co210 2.244 . S
O223 C213 1.272 1_556 S
O223 Co215 2.135 . S
Co224 O225 2.216 . S
Co224 O226 2.091 . S
Co224 O228 2.004 . S
Co224 O234 2.021 . S
Co224 O236 2.137 . S
Co224 O237 2.244 . S
O225 Co224 2.216 . S
O225 C232 1.247 . S
O226 Co224 2.091 . S
O226 C232 1.261 . S
C227 O236 1.247 . S
C227 O237 1.272 . S
O228 Co224 2.004 . S
O228 C233 1.259 . S
Co229 O230 2.061 . S
Co229 O235 2.052 . S
Co229 O237 2.135 . S
O230 Co229 2.061 . S
O230 C233 1.235 . S
C231 O234 1.238 . S
C231 O235 1.241 . S
C232 O225 1.247 . S
C232 O226 1.261 . S
C233 O228 1.259 . S
C233 O230 1.235 . S
O234 Co224 2.021 . S
O234 C231 1.238 . S
O235 Co229 2.052 . S
O235 C231 1.241 . S
O236 Co224 2.137 . S
O236 C227 1.247 . S
O237 Co224 2.244 . S
O237 C227 1.272 . S
O237 Co229 2.135 . S
Co238 O239 2.216 . S
Co238 O240 2.091 . S
Co238 O242 2.004 . S
Co238 O248 2.021 . S
Co238 O250 2.137 . S
Co238 O251 2.244 . S
O239 Co238 2.216 . S
O239 C246 1.247 . S
O240 Co238 2.091 . S
O240 C246 1.261 . S
C241 O250 1.247 . S
C241 O251 1.272 . S
O242 Co238 2.004 . S
O242 C247 1.259 . S
Co243 O244 2.061 . S
Co243 O249 2.052 . S
Co243 O251 2.135 . S
O244 Co243 2.061 . S
O244 C247 1.235 . S
C245 O248 1.238 . S
C245 O249 1.241 . S
C246 O239 1.247 . S
C246 O240 1.261 . S
C247 O242 1.259 . S
C247 O244 1.235 . S
O248 Co238 2.021 . S
O248 C245 1.238 . S
O249 Co243 2.052 . S
O249 C245 1.241 . S
O250 Co238 2.137 . S
O250 C241 1.247 . S
O251 Co238 2.244 . S
O251 C241 1.272 . S
O251 Co243 2.135 . S
Co252 O253 2.216 . S
Co252 O254 2.091 . S
Co252 O256 2.004 . S
Co252 O262 2.021 . S
Co252 O264 2.137 . S
Co252 O265 2.244 . S
O253 Co252 2.216 . S
O253 C260 1.247 . S
O254 Co252 2.091 . S
O254 C260 1.261 . S
C255 O264 1.247 . S
C255 O265 1.272 . S
O256 Co252 2.004 . S
O256 C261 1.259 . S
Co257 O258 2.061 . S
Co257 O263 2.052 . S
Co257 O265 2.135 . S
O258 Co257 2.061 . S
O258 C261 1.235 . S
C259 O262 1.238 . S
C259 O263 1.241 . S
C260 O253 1.247 . S
C260 O254 1.261 . S
C261 O256 1.259 . S
C261 O258 1.235 . S
O262 Co252 2.021 . S
O262 C259 1.238 . S
O263 Co257 2.052 . S
O263 C259 1.241 . S
O264 Co252 2.137 . S
O264 C255 1.247 . S
O265 Co252 2.244 . S
O265 C255 1.272 . S
O265 Co257 2.135 . S
Co266 O267 2.216 . S
Co266 O268 2.091 . S
Co266 O270 2.004 . S
Co266 O276 2.021 . S
Co266 O278 2.137 . S
Co266 O279 2.244 . S
O267 Co266 2.216 . S
O267 C274 1.247 . S
O268 Co266 2.091 . S
O268 C274 1.261 . S
C269 O278 1.247 . S
C269 O279 1.272 . S
O270 Co266 2.004 . S
O270 C275 1.259 . S
Co271 O272 2.061 . S
Co271 O277 2.052 . S
Co271 O279 2.135 . S
O272 Co271 2.061 . S
O272 C275 1.235 . S
C273 O276 1.238 . S
C273 O277 1.241 . S
C274 O267 1.247 . S
C274 O268 1.261 . S
C275 O270 1.259 . S
C275 O272 1.235 . S
O276 Co266 2.021 . S
O276 C273 1.238 . S
O277 Co271 2.052 . S
O277 C273 1.241 . S
O278 Co266 2.137 . S
O278 C269 1.247 . S
O279 Co266 2.244 . S
O279 C269 1.272 . S
O279 Co271 2.135 . S
Co280 O281 2.216 1_565 S
Co280 O282 2.091 1_565 S
Co280 O284 2.004 . S
Co280 O290 2.021 . S
Co280 O292 2.137 1_565 S
Co280 O293 2.244 . S
O281 Co280 2.216 1_545 S
O281 C288 1.247 . S
O282 Co280 2.091 1_545 S
O282 C288 1.261 . S
C283 O292 1.247 . S
C283 O293 1.272 1_545 S
O284 Co280 2.004 . S
O284 C289 1.259 . S
Co285 O286 2.061 . S
Co285 O291 2.052 . S
Co285 O293 2.135 . S
O286 Co285 2.061 . S
O286 C289 1.235 . S
C287 O290 1.238 . S
C287 O291 1.241 . S
C288 O281 1.247 . S
C288 O282 1.261 . S
C289 O284 1.259 . S
C289 O286 1.235 . S
O290 Co280 2.021 . S
O290 C287 1.238 . S
O291 Co285 2.052 . S
O291 C287 1.241 . S
O292 Co280 2.137 1_545 S
O292 C283 1.247 . S
O293 Co280 2.244 . S
O293 C283 1.272 1_565 S
O293 Co285 2.135 . S
Co294 O295 2.216 . S
Co294 O296 2.091 . S
Co294 O298 2.004 . S
Co294 O304 2.021 . S
Co294 O306 2.137 . S
Co294 O307 2.244 . S
O295 Co294 2.216 . S
O295 C302 1.247 . S
O296 Co294 2.091 . S
O296 C302 1.261 . S
C297 O306 1.247 . S
C297 O307 1.272 . S
O298 Co294 2.004 . S
O298 C303 1.259 . S
Co299 O300 2.061 . S
Co299 O305 2.052 . S
Co299 O307 2.135 . S
O300 Co299 2.061 . S
O300 C303 1.235 . S
C301 O304 1.238 . S
C301 O305 1.241 . S
C302 O295 1.247 . S
C302 O296 1.261 . S
C303 O298 1.259 . S
C303 O300 1.235 . S
O304 Co294 2.021 . S
O304 C301 1.238 . S
O305 Co299 2.052 . S
O305 C301 1.241 . S
O306 Co294 2.137 . S
O306 C297 1.247 . S
O307 Co294 2.244 . S
O307 C297 1.272 . S
O307 Co299 2.135 . S
Co308 O309 2.216 . S
Co308 O310 2.091 . S
Co308 O312 2.004 . S
Co308 O318 2.021 . S
Co308 O320 2.137 . S
Co308 O321 2.244 . S
O309 Co308 2.216 . S
O309 C316 1.247 . S
O310 Co308 2.091 . S
O310 C316 1.261 . S
C311 O320 1.247 . S
C311 O321 1.272 . S
O312 Co308 2.004 . S
O312 C317 1.259 . S
Co313 O314 2.061 . S
Co313 O319 2.052 . S
Co313 O321 2.135 . S
O314 Co313 2.061 . S
O314 C317 1.235 . S
C315 O318 1.238 . S
C315 O319 1.241 . S
C316 O309 1.247 . S
C316 O310 1.261 . S
C317 O312 1.259 . S
C317 O314 1.235 . S
O318 Co308 2.021 . S
O318 C315 1.238 . S
O319 Co313 2.052 . S
O319 C315 1.241 . S
O320 Co308 2.137 . S
O320 C311 1.247 . S
O321 Co308 2.244 . S
O321 C311 1.272 . S
O321 Co313 2.135 . S
Co322 O323 2.216 . S
Co322 O324 2.091 . S
Co322 O326 2.004 . S
Co322 O332 2.021 . S
Co322 O334 2.137 . S
Co322 O335 2.244 . S
O323 Co322 2.216 . S
O323 C330 1.247 . S
O324 Co322 2.091 . S
O324 C330 1.261 . S
C325 O334 1.247 . S
C325 O335 1.272 . S
O326 Co322 2.004 . S
O326 C331 1.259 . S
Co327 O328 2.061 . S
Co327 O333 2.052 . S
Co327 O335 2.135 . S
O328 Co327 2.061 . S
O328 C331 1.235 . S
C329 O332 1.238 . S
C329 O333 1.241 . S
C330 O323 1.247 . S
C330 O324 1.261 . S
C331 O326 1.259 . S
C331 O328 1.235 . S
O332 Co322 2.021 . S
O332 C329 1.238 . S
O333 Co327 2.052 . S
O333 C329 1.241 . S
O334 Co322 2.137 . S
O334 C325 1.247 . S
O335 Co322 2.244 . S
O335 C325 1.272 . S
O335 Co327 2.135 . S
Co336 O337 2.216 . S
Co336 O338 2.091 . S
Co336 O340 2.004 . S
Co336 O346 2.021 . S
Co336 O348 2.137 . S
Co336 O349 2.244 . S
O337 Co336 2.216 . S
O337 C344 1.247 . S
O338 Co336 2.091 . S
O338 C344 1.261 . S
C339 O348 1.247 . S
C339 O349 1.272 . S
O340 Co336 2.004 . S
O340 C345 1.259 . S
Co341 O342 2.061 . S
Co341 O347 2.052 . S
Co341 O349 2.135 . S
O342 Co341 2.061 . S
O342 C345 1.235 . S
C343 O346 1.238 . S
C343 O347 1.241 . S
C344 O337 1.247 . S
C344 O338 1.261 . S
C345 O340 1.259 . S
C345 O342 1.235 . S
O346 Co336 2.021 . S
O346 C343 1.238 . S
O347 Co341 2.052 . S
O347 C343 1.241 . S
O348 Co336 2.137 . S
O348 C339 1.247 . S
O349 Co336 2.244 . S
O349 C339 1.272 . S
O349 Co341 2.135 . S
Co350 O351 2.216 . S
Co350 O352 2.091 . S
Co350 O354 2.004 . S
Co350 O360 2.021 . S
Co350 O362 2.137 . S
Co350 O363 2.244 . S
O351 Co350 2.216 . S
O351 C358 1.247 . S
O352 Co350 2.091 . S
O352 C358 1.261 . S
C353 O362 1.247 . S
C353 O363 1.272 . S
O354 Co350 2.004 . S
O354 C359 1.259 . S
Co355 O356 2.061 . S
Co355 O361 2.052 . S
Co355 O363 2.135 . S
O356 Co355 2.061 . S
O356 C359 1.235 . S
C357 O360 1.238 . S
C357 O361 1.241 . S
C358 O351 1.247 . S
C358 O352 1.261 . S
C359 O354 1.259 . S
C359 O356 1.235 . S
O360 Co350 2.021 . S
O360 C357 1.238 . S
O361 Co355 2.052 . S
O361 C357 1.241 . S
O362 Co350 2.137 . S
O362 C353 1.247 . S
O363 Co350 2.244 . S
O363 C353 1.272 . S
O363 Co355 2.135 . S
Co364 O365 2.216 . S
Co364 O366 2.091 . S
Co364 O368 2.004 . S
Co364 O374 2.021 . S
Co364 O376 2.137 . S
Co364 O377 2.244 . S
O365 Co364 2.216 . S
O365 C372 1.247 . S
O366 Co364 2.091 . S
O366 C372 1.261 . S
C367 O376 1.247 . S
C367 O377 1.272 . S
O368 Co364 2.004 . S
O368 C373 1.259 . S
Co369 O370 2.061 . S
Co369 O375 2.052 . S
Co369 O377 2.135 . S
O370 Co369 2.061 . S
O370 C373 1.235 . S
C371 O374 1.238 . S
C371 O375 1.241 . S
C372 O365 1.247 . S
C372 O366 1.261 . S
C373 O368 1.259 . S
C373 O370 1.235 . S
O374 Co364 2.021 . S
O374 C371 1.238 . S
O375 Co369 2.052 . S
O375 C371 1.241 . S
O376 Co364 2.137 . S
O376 C367 1.247 . S
O377 Co364 2.244 . S
O377 C367 1.272 . S
O377 Co369 2.135 . S
Co378 O379 2.216 1_455 S
Co378 O380 2.091 1_455 S
Co378 O382 2.004 . S
Co378 O388 2.021 . S
Co378 O390 2.137 1_455 S
Co378 O391 2.244 . S
O379 Co378 2.216 1_655 S
O379 C386 1.247 . S
O380 Co378 2.091 1_655 S
O380 C386 1.261 . S
C381 O390 1.247 . S
C381 O391 1.272 1_655 S
O382 Co378 2.004 . S
O382 C387 1.259 . S
Co383 O384 2.061 . S
Co383 O389 2.052 . S
Co383 O391 2.135 . S
O384 Co383 2.061 . S
O384 C387 1.235 . S
C385 O388 1.238 . S
C385 O389 1.241 . S
C386 O379 1.247 . S
C386 O380 1.261 . S
C387 O382 1.259 . S
C387 O384 1.235 . S
O388 Co378 2.021 . S
O388 C385 1.238 . S
O389 Co383 2.052 . S
O389 C385 1.241 . S
O390 Co378 2.137 1_655 S
O390 C381 1.247 . S
O391 Co378 2.244 . S
O391 C381 1.272 1_455 S
O391 Co383 2.135 . S
Co392 O393 2.216 . S
Co392 O394 2.091 . S
Co392 O396 2.004 . S
Co392 O402 2.021 . S
Co392 O404 2.137 . S
Co392 O405 2.244 . S
O393 Co392 2.216 . S
O393 C400 1.247 . S
O394 Co392 2.091 . S
O394 C400 1.261 . S
C395 O404 1.247 . S
C395 O405 1.272 . S
O396 Co392 2.004 . S
O396 C401 1.259 . S
Co397 O398 2.061 . S
Co397 O403 2.052 . S
Co397 O405 2.135 . S
O398 Co397 2.061 . S
O398 C401 1.235 . S
C399 O402 1.238 . S
C399 O403 1.241 . S
C400 O393 1.247 . S
C400 O394 1.261 . S
C401 O396 1.259 . S
C401 O398 1.235 . S
O402 Co392 2.021 . S
O402 C399 1.238 . S
O403 Co397 2.052 . S
O403 C399 1.241 . S
O404 Co392 2.137 . S
O404 C395 1.247 . S
O405 Co392 2.244 . S
O405 C395 1.272 . S
O405 Co397 2.135 . S
Co406 O407 2.216 1_455 S
Co406 O408 2.091 1_455 S
Co406 O410 2.004 . S
Co406 O416 2.021 . S
Co406 O418 2.137 1_455 S
Co406 O419 2.244 . S
O407 Co406 2.216 1_655 S
O407 C414 1.247 . S
O408 Co406 2.091 1_655 S
O408 C414 1.261 . S
C409 O418 1.247 . S
C409 O419 1.272 1_655 S
O410 Co406 2.004 . S
O410 C415 1.259 . S
Co411 O412 2.061 . S
Co411 O417 2.052 . S
Co411 O419 2.135 . S
O412 Co411 2.061 . S
O412 C415 1.235 . S
C413 O416 1.238 . S
C413 O417 1.241 . S
C414 O407 1.247 . S
C414 O408 1.261 . S
C415 O410 1.259 . S
C415 O412 1.235 . S
O416 Co406 2.021 . S
O416 C413 1.238 . S
O417 Co411 2.052 . S
O417 C413 1.241 . S
O418 Co406 2.137 1_655 S
O418 C409 1.247 . S
O419 Co406 2.244 . S
O419 C409 1.272 1_455 S
O419 Co411 2.135 . S
Co420 O421 2.216 . S
Co420 O422 2.091 . S
Co420 O424 2.004 . S
Co420 O430 2.021 . S
Co420 O432 2.137 . S
Co420 O433 2.244 . S
O421 Co420 2.216 . S
O421 C428 1.247 . S
O422 Co420 2.091 . S
O422 C428 1.261 . S
C423 O432 1.247 . S
C423 O433 1.272 . S
O424 Co420 2.004 . S
O424 C429 1.259 . S
Co425 O426 2.061 . S
Co425 O431 2.052 . S
Co425 O433 2.135 . S
O426 Co425 2.061 . S
O426 C429 1.235 . S
C427 O430 1.238 . S
C427 O431 1.241 . S
C428 O421 1.247 . S
C428 O422 1.261 . S
C429 O424 1.259 . S
C429 O426 1.235 . S
O430 Co420 2.021 . S
O430 C427 1.238 . S
O431 Co425 2.052 . S
O431 C427 1.241 . S
O432 Co420 2.137 . S
O432 C423 1.247 . S
O433 Co420 2.244 . S
O433 C423 1.272 . S
O433 Co425 2.135 . S
Co434 O435 2.216 . S
Co434 O436 2.091 . S
Co434 O438 2.004 . S
Co434 O444 2.021 . S
Co434 O446 2.137 . S
Co434 O447 2.244 . S
O435 Co434 2.216 . S
O435 C442 1.247 . S
O436 Co434 2.091 . S
O436 C442 1.261 . S
C437 O446 1.247 . S
C437 O447 1.272 . S
O438 Co434 2.004 . S
O438 C443 1.259 . S
Co439 O440 2.061 . S
Co439 O445 2.052 . S
Co439 O447 2.135 . S
O440 Co439 2.061 . S
O440 C443 1.235 . S
C441 O444 1.238 . S
C441 O445 1.241 . S
C442 O435 1.247 . S
C442 O436 1.261 . S
C443 O438 1.259 . S
C443 O440 1.235 . S
O444 Co434 2.021 . S
O444 C441 1.238 . S
O445 Co439 2.052 . S
O445 C441 1.241 . S
O446 Co434 2.137 . S
O446 C437 1.247 . S
O447 Co434 2.244 . S
O447 C437 1.272 . S
O447 Co439 2.135 . S
Co448 O449 2.216 . S
Co448 O450 2.091 . S
Co448 O452 2.004 . S
Co448 O458 2.021 . S
Co448 O460 2.137 . S
Co448 O461 2.244 . S
O449 Co448 2.216 . S
O449 C456 1.247 . S
O450 Co448 2.091 . S
O450 C456 1.261 . S
C451 O460 1.247 . S
C451 O461 1.272 . S
O452 Co448 2.004 . S
O452 C457 1.259 . S
Co453 O454 2.061 . S
Co453 O459 2.052 . S
Co453 O461 2.135 . S
O454 Co453 2.061 . S
O454 C457 1.235 . S
C455 O458 1.238 . S
C455 O459 1.241 . S
C456 O449 1.247 . S
C456 O450 1.261 . S
C457 O452 1.259 . S
C457 O454 1.235 . S
O458 Co448 2.021 . S
O458 C455 1.238 . S
O459 Co453 2.052 . S
O459 C455 1.241 . S
O460 Co448 2.137 . S
O460 C451 1.247 . S
O461 Co448 2.244 . S
O461 C451 1.272 . S
O461 Co453 2.135 . S
Co462 O463 2.216 1_554 S
Co462 O464 2.091 1_554 S
Co462 O466 2.004 . S
Co462 O472 2.021 . S
Co462 O474 2.137 1_554 S
Co462 O475 2.244 . S
O463 Co462 2.216 1_556 S
O463 C470 1.247 . S
O464 Co462 2.091 1_556 S
O464 C470 1.261 . S
C465 O474 1.247 . S
C465 O475 1.272 1_556 S
O466 Co462 2.004 . S
O466 C471 1.259 . S
Co467 O468 2.061 . S
Co467 O473 2.052 . S
Co467 O475 2.135 . S
O468 Co467 2.061 . S
O468 C471 1.235 . S
C469 O472 1.238 . S
C469 O473 1.241 . S
C470 O463 1.247 . S
C470 O464 1.261 . S
C471 O466 1.259 . S
C471 O468 1.235 . S
O472 Co462 2.021 . S
O472 C469 1.238 . S
O473 Co467 2.052 . S
O473 C469 1.241 . S
O474 Co462 2.137 1_556 S
O474 C465 1.247 . S
O475 Co462 2.244 . S
O475 C465 1.272 1_554 S
O475 Co467 2.135 . S
Co476 O477 2.216 . S
Co476 O478 2.091 . S
Co476 O480 2.004 . S
Co476 O486 2.021 . S
Co476 O488 2.137 . S
Co476 O489 2.244 . S
O477 Co476 2.216 . S
O477 C484 1.247 . S
O478 Co476 2.091 . S
O478 C484 1.261 . S
C479 O488 1.247 . S
C479 O489 1.272 . S
O480 Co476 2.004 . S
O480 C485 1.259 . S
Co481 O482 2.061 . S
Co481 O487 2.052 . S
Co481 O489 2.135 . S
O482 Co481 2.061 . S
O482 C485 1.235 . S
C483 O486 1.238 . S
C483 O487 1.241 . S
C484 O477 1.247 . S
C484 O478 1.261 . S
C485 O480 1.259 . S
C485 O482 1.235 . S
O486 Co476 2.021 . S
O486 C483 1.238 . S
O487 Co481 2.052 . S
O487 C483 1.241 . S
O488 Co476 2.137 . S
O488 C479 1.247 . S
O489 Co476 2.244 . S
O489 C479 1.272 . S
O489 Co481 2.135 . S
Co490 O491 2.216 . S
Co490 O492 2.091 . S
Co490 O494 2.004 . S
Co490 O500 2.021 . S
Co490 O502 2.137 . S
Co490 O503 2.244 . S
O491 Co490 2.216 . S
O491 C498 1.247 . S
O492 Co490 2.091 . S
O492 C498 1.261 . S
C493 O502 1.247 . S
C493 O503 1.272 . S
O494 Co490 2.004 . S
O494 C499 1.259 . S
Co495 O496 2.061 . S
Co495 O501 2.052 . S
Co495 O503 2.135 . S
O496 Co495 2.061 . S
O496 C499 1.235 . S
C497 O500 1.238 . S
C497 O501 1.241 . S
C498 O491 1.247 . S
C498 O492 1.261 . S
C499 O494 1.259 . S
C499 O496 1.235 . S
O500 Co490 2.021 . S
O500 C497 1.238 . S
O501 Co495 2.052 . S
O501 C497 1.241 . S
O502 Co490 2.137 . S
O502 C493 1.247 . S
O503 Co490 2.244 . S
O503 C493 1.272 . S
O503 Co495 2.135 . S
Co504 O505 2.216 . S
Co504 O506 2.091 . S
Co504 O508 2.004 . S
Co504 O514 2.021 . S
Co504 O516 2.137 . S
Co504 O517 2.244 . S
O505 Co504 2.216 . S
O505 C512 1.247 . S
O506 Co504 2.091 . S
O506 C512 1.261 . S
C507 O516 1.247 . S
C507 O517 1.272 . S
O508 Co504 2.004 . S
O508 C513 1.259 . S
Co509 O510 2.061 . S
Co509 O515 2.052 . S
Co509 O517 2.135 . S
O510 Co509 2.061 . S
O510 C513 1.235 . S
C511 O514 1.238 . S
C511 O515 1.241 . S
C512 O505 1.247 . S
C512 O506 1.261 . S
C513 O508 1.259 . S
C513 O510 1.235 . S
O514 Co504 2.021 . S
O514 C511 1.238 . S
O515 Co509 2.052 . S
O515 C511 1.241 . S
O516 Co504 2.137 . S
O516 C507 1.247 . S
O517 Co504 2.244 . S
O517 C507 1.272 . S
O517 Co509 2.135 . S
Co518 O519 2.216 1_556 S
Co518 O520 2.091 1_556 S
Co518 O522 2.004 . S
Co518 O528 2.021 . S
Co518 O530 2.137 1_556 S
Co518 O531 2.244 . S
O519 Co518 2.216 1_554 S
O519 C526 1.247 . S
O520 Co518 2.091 1_554 S
O520 C526 1.261 . S
C521 O530 1.247 . S
C521 O531 1.272 1_554 S
O522 Co518 2.004 . S
O522 C527 1.259 . S
Co523 O524 2.061 . S
Co523 O529 2.052 . S
Co523 O531 2.135 . S
O524 Co523 2.061 . S
O524 C527 1.235 . S
C525 O528 1.238 . S
C525 O529 1.241 . S
C526 O519 1.247 . S
C526 O520 1.261 . S
C527 O522 1.259 . S
C527 O524 1.235 . S
O528 Co518 2.021 . S
O528 C525 1.238 . S
O529 Co523 2.052 . S
O529 C525 1.241 . S
O530 Co518 2.137 1_554 S
O530 C521 1.247 . S
O531 Co518 2.244 . S
O531 C521 1.272 1_556 S
O531 Co523 2.135 . S
Co532 O533 2.216 . S
Co532 O534 2.091 . S
Co532 O536 2.004 . S
Co532 O542 2.021 . S
Co532 O544 2.137 . S
Co532 O545 2.244 . S
O533 Co532 2.216 . S
O533 C540 1.247 . S
O534 Co532 2.091 . S
O534 C540 1.261 . S
C535 O544 1.247 . S
C535 O545 1.272 . S
O536 Co532 2.004 . S
O536 C541 1.259 . S
Co537 O538 2.061 . S
Co537 O543 2.052 . S
Co537 O545 2.135 . S
O538 Co537 2.061 . S
O538 C541 1.235 . S
C539 O542 1.238 . S
C539 O543 1.241 . S
C540 O533 1.247 . S
C540 O534 1.261 . S
C541 O536 1.259 . S
C541 O538 1.235 . S
O542 Co532 2.021 . S
O542 C539 1.238 . S
O543 Co537 2.052 . S
O543 C539 1.241 . S
O544 Co532 2.137 . S
O544 C535 1.247 . S
O545 Co532 2.244 . S
O545 C535 1.272 . S
O545 Co537 2.135 . S
Co546 O547 2.216 . S
Co546 O548 2.091 . S
Co546 O550 2.004 . S
Co546 O556 2.021 . S
Co546 O558 2.137 . S
Co546 O559 2.244 . S
O547 Co546 2.216 . S
O547 C554 1.247 . S
O548 Co546 2.091 . S
O548 C554 1.261 . S
C549 O558 1.247 . S
C549 O559 1.272 . S
O550 Co546 2.004 . S
O550 C555 1.259 . S
Co551 O552 2.061 . S
Co551 O557 2.052 . S
Co551 O559 2.135 . S
O552 Co551 2.061 . S
O552 C555 1.235 . S
C553 O556 1.238 . S
C553 O557 1.241 . S
C554 O547 1.247 . S
C554 O548 1.261 . S
C555 O550 1.259 . S
C555 O552 1.235 . S
O556 Co546 2.021 . S
O556 C553 1.238 . S
O557 Co551 2.052 . S
O557 C553 1.241 . S
O558 Co546 2.137 . S
O558 C549 1.247 . S
O559 Co546 2.244 . S
O559 C549 1.272 . S
O559 Co551 2.135 . S
Co560 O561 2.216 . S
Co560 O562 2.091 . S
Co560 O564 2.004 . S
Co560 O570 2.021 . S
Co560 O572 2.137 . S
Co560 O573 2.244 . S
O561 Co560 2.216 . S
O561 C568 1.247 . S
O562 Co560 2.091 . S
O562 C568 1.261 . S
C563 O572 1.247 . S
C563 O573 1.272 . S
O564 Co560 2.004 . S
O564 C569 1.259 . S
Co565 O566 2.061 . S
Co565 O571 2.052 . S
Co565 O573 2.135 . S
O566 Co565 2.061 . S
O566 C569 1.235 . S
C567 O570 1.238 . S
C567 O571 1.241 . S
C568 O561 1.247 . S
C568 O562 1.261 . S
C569 O564 1.259 . S
C569 O566 1.235 . S
O570 Co560 2.021 . S
O570 C567 1.238 . S
O571 Co565 2.052 . S
O571 C567 1.241 . S
O572 Co560 2.137 . S
O572 C563 1.247 . S
O573 Co560 2.244 . S
O573 C563 1.272 . S
O573 Co565 2.135 . S
Co574 O575 2.216 . S
Co574 O576 2.091 . S
Co574 O578 2.004 . S
Co574 O584 2.021 . S
Co574 O586 2.137 . S
Co574 O587 2.244 . S
O575 Co574 2.216 . S
O575 C582 1.247 . S
O576 Co574 2.091 . S
O576 C582 1.261 . S
C577 O586 1.247 . S
C577 O587 1.272 . S
O578 Co574 2.004 . S
O578 C583 1.259 . S
Co579 O580 2.061 . S
Co579 O585 2.052 . S
Co579 O587 2.135 . S
O580 Co579 2.061 . S
O580 C583 1.235 . S
C581 O584 1.238 . S
C581 O585 1.241 . S
C582 O575 1.247 . S
C582 O576 1.261 . S
C583 O578 1.259 . S
C583 O580 1.235 . S
O584 Co574 2.021 . S
O584 C581 1.238 . S
O585 Co579 2.052 . S
O585 C581 1.241 . S
O586 Co574 2.137 . S
O586 C577 1.247 . S
O587 Co574 2.244 . S
O587 C577 1.272 . S
O587 Co579 2.135 . S
Co588 O589 2.216 1_545 S
Co588 O590 2.091 1_545 S
Co588 O592 2.004 . S
Co588 O598 2.021 . S
Co588 O600 2.137 1_545 S
Co588 O601 2.244 . S
O589 Co588 2.216 1_565 S
O589 C596 1.247 . S
O590 Co588 2.091 1_565 S
O590 C596 1.261 . S
C591 O600 1.247 . S
C591 O601 1.272 1_565 S
O592 Co588 2.004 . S
O592 C597 1.259 . S
Co593 O594 2.061 . S
Co593 O599 2.052 . S
Co593 O601 2.135 . S
O594 Co593 2.061 . S
O594 C597 1.235 . S
C595 O598 1.238 . S
C595 O599 1.241 . S
C596 O589 1.247 . S
C596 O590 1.261 . S
C597 O592 1.259 . S
C597 O594 1.235 . S
O598 Co588 2.021 . S
O598 C595 1.238 . S
O599 Co593 2.052 . S
O599 C595 1.241 . S
O600 Co588 2.137 1_565 S
O600 C591 1.247 . S
O601 Co588 2.244 . S
O601 C591 1.272 1_545 S
O601 Co593 2.135 . S
Co602 O603 2.216 . S
Co602 O604 2.091 . S
Co602 O606 2.004 . S
Co602 O612 2.021 . S
Co602 O614 2.137 . S
Co602 O615 2.244 . S
O603 Co602 2.216 . S
O603 C610 1.247 . S
O604 Co602 2.091 . S
O604 C610 1.261 . S
C605 O614 1.247 . S
C605 O615 1.272 . S
O606 Co602 2.004 . S
O606 C611 1.259 . S
Co607 O608 2.061 . S
Co607 O613 2.052 . S
Co607 O615 2.135 . S
O608 Co607 2.061 . S
O608 C611 1.235 . S
C609 O612 1.238 . S
C609 O613 1.241 . S
C610 O603 1.247 . S
C610 O604 1.261 . S
C611 O606 1.259 . S
C611 O608 1.235 . S
O612 Co602 2.021 . S
O612 C609 1.238 . S
O613 Co607 2.052 . S
O613 C609 1.241 . S
O614 Co602 2.137 . S
O614 C605 1.247 . S
O615 Co602 2.244 . S
O615 C605 1.272 . S
O615 Co607 2.135 . S
Co616 O617 2.216 . S
Co616 O618 2.091 . S
Co616 O620 2.004 . S
Co616 O626 2.021 . S
Co616 O628 2.137 . S
Co616 O629 2.244 . S
O617 Co616 2.216 . S
O617 C624 1.247 . S
O618 Co616 2.091 . S
O618 C624 1.261 . S
C619 O628 1.247 . S
C619 O629 1.272 . S
O620 Co616 2.004 . S
O620 C625 1.259 . S
Co621 O622 2.061 . S
Co621 O627 2.052 . S
Co621 O629 2.135 . S
O622 Co621 2.061 . S
O622 C625 1.235 . S
C623 O626 1.238 . S
C623 O627 1.241 . S
C624 O617 1.247 . S
C624 O618 1.261 . S
C625 O620 1.259 . S
C625 O622 1.235 . S
O626 Co616 2.021 . S
O626 C623 1.238 . S
O627 Co621 2.052 . S
O627 C623 1.241 . S
O628 Co616 2.137 . S
O628 C619 1.247 . S
O629 Co616 2.244 . S
O629 C619 1.272 . S
O629 Co621 2.135 . S
Co630 O631 2.216 . S
Co630 O632 2.091 . S
Co630 O634 2.004 . S
Co630 O640 2.021 . S
Co630 O642 2.137 . S
Co630 O643 2.244 . S
O631 Co630 2.216 . S
O631 C638 1.247 . S
O632 Co630 2.091 . S
O632 C638 1.261 . S
C633 O642 1.247 . S
C633 O643 1.272 . S
O634 Co630 2.004 . S
O634 C639 1.259 . S
Co635 O636 2.061 . S
Co635 O641 2.052 . S
Co635 O643 2.135 . S
O636 Co635 2.061 . S
O636 C639 1.235 . S
C637 O640 1.238 . S
C637 O641 1.241 . S
C638 O631 1.247 . S
C638 O632 1.261 . S
C639 O634 1.259 . S
C639 O636 1.235 . S
O640 Co630 2.021 . S
O640 C637 1.238 . S
O641 Co635 2.052 . S
O641 C637 1.241 . S
O642 Co630 2.137 . S
O642 C633 1.247 . S
O643 Co630 2.244 . S
O643 C633 1.272 . S
O643 Co635 2.135 . S
Co644 O645 2.216 1_565 S
Co644 O646 2.091 1_565 S
Co644 O648 2.004 . S
Co644 O654 2.021 . S
Co644 O656 2.137 1_565 S
Co644 O657 2.244 . S
O645 Co644 2.216 1_545 S
O645 C652 1.247 . S
O646 Co644 2.091 1_545 S
O646 C652 1.261 . S
C647 O656 1.247 . S
C647 O657 1.272 1_545 S
O648 Co644 2.004 . S
O648 C653 1.259 . S
Co649 O650 2.061 . S
Co649 O655 2.052 . S
Co649 O657 2.135 . S
O650 Co649 2.061 . S
O650 C653 1.235 . S
C651 O654 1.238 . S
C651 O655 1.241 . S
C652 O645 1.247 . S
C652 O646 1.261 . S
C653 O648 1.259 . S
C653 O650 1.235 . S
O654 Co644 2.021 . S
O654 C651 1.238 . S
O655 Co649 2.052 . S
O655 C651 1.241 . S
O656 Co644 2.137 1_545 S
O656 C647 1.247 . S
O657 Co644 2.244 . S
O657 C647 1.272 1_565 S
O657 Co649 2.135 . S
Co658 O659 2.216 1_545 S
Co658 O660 2.091 1_545 S
Co658 O662 2.004 . S
Co658 O668 2.021 . S
Co658 O670 2.137 1_545 S
Co658 O671 2.244 . S
O659 Co658 2.216 1_565 S
O659 C666 1.247 . S
O660 Co658 2.091 1_565 S
O660 C666 1.261 . S
C661 O670 1.247 . S
C661 O671 1.272 1_565 S
O662 Co658 2.004 . S
O662 C667 1.259 . S
Co663 O664 2.061 . S
Co663 O669 2.052 . S
Co663 O671 2.135 . S
O664 Co663 2.061 . S
O664 C667 1.235 . S
C665 O668 1.238 . S
C665 O669 1.241 . S
C666 O659 1.247 . S
C666 O660 1.261 . S
C667 O662 1.259 . S
C667 O664 1.235 . S
O668 Co658 2.021 . S
O668 C665 1.238 . S
O669 Co663 2.052 . S
O669 C665 1.241 . S
O670 Co658 2.137 1_565 S
O670 C661 1.247 . S
O671 Co658 2.244 . S
O671 C661 1.272 1_545 S
O671 Co663 2.135 . S
C672 C673 1.363 . S
C672 C678 1.379 . S
C672 N680 1.356 . S
C673 C672 1.363 . S
C673 C679 1.363 . S
C674 C675 1.363 . S
C674 C679 1.379 . S
C674 N681 1.356 . S
C675 C674 1.363 . S
C675 C678 1.363 . S
N676 C678 1.356 . S
N676 H688 0.984 . S
N676 H689 0.985 . S
N677 C679 1.356 . S
N677 H682 0.984 . S
N677 H683 0.985 . S
C678 C672 1.379 . S
C678 C675 1.363 . S
C678 N676 1.356 . S
C679 C673 1.363 . S
C679 C674 1.379 . S
C679 N677 1.356 . S
N680 C672 1.356 . S
N680 H686 0.984 . S
N680 H687 0.984 . S
N681 C674 1.356 . S
N681 H684 0.984 . S
N681 H685 0.985 . S
H682 N677 0.984 . S
H683 N677 0.985 . S
H684 N681 0.984 . S
H685 N681 0.985 . S
H686 N680 0.984 . S
H687 N680 0.984 . S
H688 N676 0.984 . S
H689 N676 0.985 . S
C690 C691 1.363 . S
C690 C696 1.379 . S
C690 N698 1.356 . S
C691 C690 1.363 . S
C691 C697 1.363 . S
C692 C693 1.363 . S
C692 C697 1.379 . S
C692 N699 1.356 . S
C693 C692 1.363 . S
C693 C696 1.363 . S
N694 C696 1.356 . S
N694 H706 0.984 . S
N694 H707 0.985 . S
N695 C697 1.356 . S
N695 H700 0.984 . S
N695 H701 0.985 . S
C696 C690 1.379 . S
C696 C693 1.363 . S
C696 N694 1.356 . S
C697 C691 1.363 . S
C697 C692 1.379 . S
C697 N695 1.356 . S
N698 C690 1.356 . S
N698 H704 0.984 . S
N698 H705 0.984 . S
N699 C692 1.356 . S
N699 H702 0.984 . S
N699 H703 0.985 . S
H700 N695 0.984 . S
H701 N695 0.985 . S
H702 N699 0.984 . S
H703 N699 0.985 . S
H704 N698 0.984 . S
H705 N698 0.984 . S
H706 N694 0.984 . S
H707 N694 0.985 . S
C708 C709 1.363 . S
C708 C714 1.379 . S
C708 N716 1.356 . S
C709 C708 1.363 . S
C709 C715 1.363 . S
C710 C711 1.363 . S
C710 C715 1.379 . S
C710 N717 1.356 . S
C711 C710 1.363 . S
C711 C714 1.363 . S
N712 C714 1.356 . S
N712 H724 0.984 . S
N712 H725 0.985 . S
N713 C715 1.356 . S
N713 H718 0.984 . S
N713 H719 0.985 . S
C714 C708 1.379 . S
C714 C711 1.363 . S
C714 N712 1.356 . S
C715 C709 1.363 . S
C715 C710 1.379 . S
C715 N713 1.356 . S
N716 C708 1.356 . S
N716 H722 0.984 . S
N716 H723 0.984 . S
N717 C710 1.356 . S
N717 H720 0.984 . S
N717 H721 0.985 . S
H718 N713 0.984 . S
H719 N713 0.985 . S
H720 N717 0.984 . S
H721 N717 0.985 . S
H722 N716 0.984 . S
H723 N716 0.984 . S
H724 N712 0.984 . S
H725 N712 0.985 . S
C726 C727 1.363 . S
C726 C732 1.379 . S
C726 N734 1.356 . S
C727 C726 1.363 . S
C727 C733 1.363 . S
C728 C729 1.363 . S
C728 C733 1.379 . S
C728 N735 1.356 . S
C729 C728 1.363 . S
C729 C732 1.363 . S
N730 C732 1.356 . S
N730 H742 0.984 . S
N730 H743 0.985 . S
N731 C733 1.356 . S
N731 H736 0.984 . S
N731 H737 0.985 . S
C732 C726 1.379 . S
C732 C729 1.363 . S
C732 N730 1.356 . S
C733 C727 1.363 . S
C733 C728 1.379 . S
C733 N731 1.356 . S
N734 C726 1.356 . S
N734 H740 0.984 . S
N734 H741 0.984 . S
N735 C728 1.356 . S
N735 H738 0.984 . S
N735 H739 0.985 . S
H736 N731 0.984 . S
H737 N731 0.985 . S
H738 N735 0.984 . S
H739 N735 0.985 . S
H740 N734 0.984 . S
H741 N734 0.984 . S
H742 N730 0.984 . S
H743 N730 0.985 . S
C744 C745 1.363 . S
C744 C750 1.379 . S
C744 N752 1.356 . S
C745 C744 1.363 . S
C745 C751 1.363 . S
C746 C747 1.363 . S
C746 C751 1.379 . S
C746 N753 1.356 . S
C747 C746 1.363 . S
C747 C750 1.363 . S
N748 C750 1.356 . S
N748 H760 0.984 . S
N748 H761 0.985 . S
N749 C751 1.356 . S
N749 H754 0.984 . S
N749 H755 0.985 . S
C750 C744 1.379 . S
C750 C747 1.363 . S
C750 N748 1.356 . S
C751 C745 1.363 . S
C751 C746 1.379 . S
C751 N749 1.356 . S
N752 C744 1.356 . S
N752 H758 0.984 . S
N752 H759 0.984 . S
N753 C746 1.356 . S
N753 H756 0.984 . S
N753 H757 0.985 . S
H754 N749 0.984 . S
H755 N749 0.985 . S
H756 N753 0.984 . S
H757 N753 0.985 . S
H758 N752 0.984 . S
H759 N752 0.984 . S
H760 N748 0.984 . S
H761 N748 0.985 . S
C762 C763 1.363 . S
C762 C768 1.379 . S
C762 N770 1.356 . S
C763 C762 1.363 . S
C763 C769 1.363 . S
C764 C765 1.363 . S
C764 C769 1.379 . S
C764 N771 1.356 . S
C765 C764 1.363 . S
C765 C768 1.363 . S
N766 C768 1.356 . S
N766 H778 0.984 . S
N766 H779 0.985 . S
N767 C769 1.356 . S
N767 H772 0.984 . S
N767 H773 0.985 . S
C768 C762 1.379 . S
C768 C765 1.363 . S
C768 N766 1.356 . S
C769 C763 1.363 . S
C769 C764 1.379 . S
C769 N767 1.356 . S
N770 C762 1.356 . S
N770 H776 0.984 . S
N770 H777 0.984 . S
N771 C764 1.356 . S
N771 H774 0.984 . S
N771 H775 0.985 . S
H772 N767 0.984 . S
H773 N767 0.985 . S
H774 N771 0.984 . S
H775 N771 0.985 . S
H776 N770 0.984 . S
H777 N770 0.984 . S
H778 N766 0.984 . S
H779 N766 0.985 . S
C780 C781 1.363 . S
C780 C786 1.379 . S
C780 N788 1.356 . S
C781 C780 1.363 . S
C781 C787 1.363 . S
C782 C783 1.363 . S
C782 C787 1.379 . S
C782 N789 1.356 . S
C783 C782 1.363 . S
C783 C786 1.363 . S
N784 C786 1.356 . S
N784 H796 0.984 . S
N784 H797 0.985 . S
N785 C787 1.356 . S
N785 H790 0.984 . S
N785 H791 0.985 . S
C786 C780 1.379 . S
C786 C783 1.363 . S
C786 N784 1.356 . S
C787 C781 1.363 . S
C787 C782 1.379 . S
C787 N785 1.356 . S
N788 C780 1.356 . S
N788 H794 0.984 . S
N788 H795 0.984 . S
N789 C782 1.356 . S
N789 H792 0.984 . S
N789 H793 0.985 . S
H790 N785 0.984 . S
H791 N785 0.985 . S
H792 N789 0.984 . S
H793 N789 0.985 . S
H794 N788 0.984 . S
H795 N788 0.984 . S
H796 N784 0.984 . S
H797 N784 0.985 . S
C798 C799 1.363 . S
C798 C804 1.379 . S
C798 N806 1.356 . S
C799 C798 1.363 . S
C799 C805 1.363 . S
C800 C801 1.363 . S
C800 C805 1.379 . S
C800 N807 1.356 . S
C801 C800 1.363 . S
C801 C804 1.363 . S
N802 C804 1.356 . S
N802 H814 0.984 . S
N802 H815 0.985 . S
N803 C805 1.356 . S
N803 H808 0.984 . S
N803 H809 0.985 . S
C804 C798 1.379 . S
C804 C801 1.363 . S
C804 N802 1.356 . S
C805 C799 1.363 . S
C805 C800 1.379 . S
C805 N803 1.356 . S
N806 C798 1.356 . S
N806 H812 0.984 . S
N806 H813 0.984 . S
N807 C800 1.356 . S
N807 H810 0.984 . S
N807 H811 0.985 . S
H808 N803 0.984 . S
H809 N803 0.985 . S
H810 N807 0.984 . S
H811 N807 0.985 . S
H812 N806 0.984 . S
H813 N806 0.984 . S
H814 N802 0.984 . S
H815 N802 0.985 . S
C816 C817 1.363 . S
C816 C822 1.379 . S
C816 N824 1.356 . S
C817 C816 1.363 . S
C817 C823 1.363 . S
C818 C819 1.363 . S
C818 C823 1.379 . S
C818 N825 1.356 . S
C819 C818 1.363 . S
C819 C822 1.363 . S
N820 C822 1.356 . S
N820 H832 0.984 . S
N820 H833 0.985 . S
N821 C823 1.356 . S
N821 H826 0.984 . S
N821 H827 0.985 . S
C822 C816 1.379 . S
C822 C819 1.363 . S
C822 N820 1.356 . S
C823 C817 1.363 . S
C823 C818 1.379 . S
C823 N821 1.356 . S
N824 C816 1.356 . S
N824 H830 0.984 . S
N824 H831 0.984 . S
N825 C818 1.356 . S
N825 H828 0.984 . S
N825 H829 0.985 . S
H826 N821 0.984 . S
H827 N821 0.985 . S
H828 N825 0.984 . S
H829 N825 0.985 . S
H830 N824 0.984 . S
H831 N824 0.984 . S
H832 N820 0.984 . S
H833 N820 0.985 . S
C834 C835 1.363 . S
C834 C840 1.379 . S
C834 N842 1.356 . S
C835 C834 1.363 . S
C835 C841 1.363 . S
C836 C837 1.363 . S
C836 C841 1.379 . S
C836 N843 1.356 . S
C837 C836 1.363 . S
C837 C840 1.363 . S
N838 C840 1.356 . S
N838 H850 0.984 . S
N838 H851 0.985 . S
N839 C841 1.356 . S
N839 H844 0.984 . S
N839 H845 0.985 . S
C840 C834 1.379 . S
C840 C837 1.363 . S
C840 N838 1.356 . S
C841 C835 1.363 . S
C841 C836 1.379 . S
C841 N839 1.356 . S
N842 C834 1.356 . S
N842 H848 0.984 . S
N842 H849 0.984 . S
N843 C836 1.356 . S
N843 H846 0.984 . S
N843 H847 0.985 . S
H844 N839 0.984 . S
H845 N839 0.985 . S
H846 N843 0.984 . S
H847 N843 0.985 . S
H848 N842 0.984 . S
H849 N842 0.984 . S
H850 N838 0.984 . S
H851 N838 0.985 . S
C852 C853 1.363 . S
C852 C858 1.379 . S
C852 N860 1.356 . S
C853 C852 1.363 . S
C853 C859 1.363 . S
C854 C855 1.363 . S
C854 C859 1.379 . S
C854 N861 1.356 . S
C855 C854 1.363 . S
C855 C858 1.363 . S
N856 C858 1.356 . S
N856 H868 0.984 . S
N856 H869 0.985 . S
N857 C859 1.356 . S
N857 H862 0.984 . S
N857 H863 0.985 . S
C858 C852 1.379 . S
C858 C855 1.363 . S
C858 N856 1.356 . S
C859 C853 1.363 . S
C859 C854 1.379 . S
C859 N857 1.356 . S
N860 C852 1.356 . S
N860 H866 0.984 . S
N860 H867 0.984 . S
N861 C854 1.356 . S
N861 H864 0.984 . S
N861 H865 0.985 . S
H862 N857 0.984 . S
H863 N857 0.985 . S
H864 N861 0.984 . S
H865 N861 0.985 . S
H866 N860 0.984 . S
H867 N860 0.984 . S
H868 N856 0.984 . S
H869 N856 0.985 . S
C870 C871 1.363 . S
C870 C876 1.379 . S
C870 N878 1.356 . S
C871 C870 1.363 . S
C871 C877 1.363 . S
C872 C873 1.363 . S
C872 C877 1.379 . S
C872 N879 1.356 . S
C873 C872 1.363 . S
C873 C876 1.363 . S
N874 C876 1.356 . S
N874 H886 0.984 . S
N874 H887 0.985 . S
N875 C877 1.356 . S
N875 H880 0.984 . S
N875 H881 0.985 . S
C876 C870 1.379 . S
C876 C873 1.363 . S
C876 N874 1.356 . S
C877 C871 1.363 . S
C877 C872 1.379 . S
C877 N875 1.356 . S
N878 C870 1.356 . S
N878 H884 0.984 . S
N878 H885 0.984 . S
N879 C872 1.356 . S
N879 H882 0.984 . S
N879 H883 0.985 . S
H880 N875 0.984 . S
H881 N875 0.985 . S
H882 N879 0.984 . S
H883 N879 0.985 . S
H884 N878 0.984 . S
H885 N878 0.984 . S
H886 N874 0.984 . S
H887 N874 0.985 . S
C888 C889 1.363 . S
C888 C894 1.379 . S
C888 N896 1.356 . S
C889 C888 1.363 . S
C889 C895 1.363 . S
C890 C891 1.363 . S
C890 C895 1.379 . S
C890 N897 1.356 . S
C891 C890 1.363 . S
C891 C894 1.363 . S
N892 C894 1.356 . S
N892 H904 0.984 . S
N892 H905 0.985 . S
N893 C895 1.356 . S
N893 H898 0.984 . S
N893 H899 0.985 . S
C894 C888 1.379 . S
C894 C891 1.363 . S
C894 N892 1.356 . S
C895 C889 1.363 . S
C895 C890 1.379 . S
C895 N893 1.356 . S
N896 C888 1.356 . S
N896 H902 0.984 . S
N896 H903 0.984 . S
N897 C890 1.356 . S
N897 H900 0.984 . S
N897 H901 0.985 . S
H898 N893 0.984 . S
H899 N893 0.985 . S
H900 N897 0.984 . S
H901 N897 0.985 . S
H902 N896 0.984 . S
H903 N896 0.984 . S
H904 N892 0.984 . S
H905 N892 0.985 . S
C906 C907 1.363 . S
C906 C912 1.379 . S
C906 N914 1.356 . S
C907 C906 1.363 . S
C907 C913 1.363 . S
C908 C909 1.363 . S
C908 C913 1.379 . S
C908 N915 1.356 . S
C909 C908 1.363 . S
C909 C912 1.363 . S
N910 C912 1.356 . S
N910 H922 0.984 . S
N910 H923 0.985 . S
N911 C913 1.356 . S
N911 H916 0.984 . S
N911 H917 0.985 . S
C912 C906 1.379 . S
C912 C909 1.363 . S
C912 N910 1.356 . S
C913 C907 1.363 . S
C913 C908 1.379 . S
C913 N911 1.356 . S
N914 C906 1.356 . S
N914 H920 0.984 . S
N914 H921 0.984 . S
N915 C908 1.356 . S
N915 H918 0.984 . S
N915 H919 0.985 . S
H916 N911 0.984 . S
H917 N911 0.985 . S
H918 N915 0.984 . S
H919 N915 0.985 . S
H920 N914 0.984 . S
H921 N914 0.984 . S
H922 N910 0.984 . S
H923 N910 0.985 . S
C924 C925 1.363 . S
C924 C930 1.379 . S
C924 N932 1.356 . S
C925 C924 1.363 . S
C925 C931 1.363 . S
C926 C927 1.363 . S
C926 C931 1.379 . S
C926 N933 1.356 . S
C927 C926 1.363 . S
C927 C930 1.363 . S
N928 C930 1.356 . S
N928 H940 0.984 . S
N928 H941 0.985 . S
N929 C931 1.356 . S
N929 H934 0.984 . S
N929 H935 0.985 . S
C930 C924 1.379 . S
C930 C927 1.363 . S
C930 N928 1.356 . S
C931 C925 1.363 . S
C931 C926 1.379 . S
C931 N929 1.356 . S
N932 C924 1.356 . S
N932 H938 0.984 . S
N932 H939 0.984 . S
N933 C926 1.356 . S
N933 H936 0.984 . S
N933 H937 0.985 . S
H934 N929 0.984 . S
H935 N929 0.985 . S
H936 N933 0.984 . S
H937 N933 0.985 . S
H938 N932 0.984 . S
H939 N932 0.984 . S
H940 N928 0.984 . S
H941 N928 0.985 . S
C942 C943 1.363 . S
C942 C948 1.379 . S
C942 N950 1.356 . S
C943 C942 1.363 . S
C943 C949 1.363 . S
C944 C945 1.363 . S
C944 C949 1.379 . S
C944 N951 1.356 . S
C945 C944 1.363 . S
C945 C948 1.363 . S
N946 C948 1.356 . S
N946 H958 0.984 . S
N946 H959 0.985 . S
N947 C949 1.356 . S
N947 H952 0.984 . S
N947 H953 0.985 . S
C948 C942 1.379 . S
C948 C945 1.363 . S
C948 N946 1.356 . S
C949 C943 1.363 . S
C949 C944 1.379 . S
C949 N947 1.356 . S
N950 C942 1.356 . S
N950 H956 0.984 . S
N950 H957 0.984 . S
N951 C944 1.356 . S
N951 H954 0.984 . S
N951 H955 0.985 . S
H952 N947 0.984 . S
H953 N947 0.985 . S
H954 N951 0.984 . S
H955 N951 0.985 . S
H956 N950 0.984 . S
H957 N950 0.984 . S
H958 N946 0.984 . S
H959 N946 0.985 . S
C960 C961 1.363 . S
C960 C966 1.379 . S
C960 N968 1.356 . S
C961 C960 1.363 . S
C961 C967 1.363 . S
C962 C963 1.363 . S
C962 C967 1.379 . S
C962 N969 1.356 . S
C963 C962 1.363 . S
C963 C966 1.363 . S
N964 C966 1.356 . S
N964 H976 0.984 . S
N964 H977 0.985 . S
N965 C967 1.356 . S
N965 H970 0.984 . S
N965 H971 0.985 . S
C966 C960 1.379 . S
C966 C963 1.363 . S
C966 N964 1.356 . S
C967 C961 1.363 . S
C967 C962 1.379 . S
C967 N965 1.356 . S
N968 C960 1.356 . S
N968 H974 0.984 . S
N968 H975 0.984 . S
N969 C962 1.356 . S
N969 H972 0.984 . S
N969 H973 0.985 . S
H970 N965 0.984 . S
H971 N965 0.985 . S
H972 N969 0.984 . S
H973 N969 0.985 . S
H974 N968 0.984 . S
H975 N968 0.984 . S
H976 N964 0.984 . S
H977 N964 0.985 . S
C978 C979 1.363 . S
C978 C984 1.379 . S
C978 N986 1.356 . S
C979 C978 1.363 . S
C979 C985 1.363 . S
C980 C981 1.363 . S
C980 C985 1.379 . S
C980 N987 1.356 . S
C981 C980 1.363 . S
C981 C984 1.363 . S
N982 C984 1.356 . S
N982 H994 0.984 . S
N982 H995 0.985 . S
N983 C985 1.356 . S
N983 H988 0.984 . S
N983 H989 0.985 . S
C984 C978 1.379 . S
C984 C981 1.363 . S
C984 N982 1.356 . S
C985 C979 1.363 . S
C985 C980 1.379 . S
C985 N983 1.356 . S
N986 C978 1.356 . S
N986 H992 0.984 . S
N986 H993 0.984 . S
N987 C980 1.356 . S
N987 H990 0.984 . S
N987 H991 0.985 . S
H988 N983 0.984 . S
H989 N983 0.985 . S
H990 N987 0.984 . S
H991 N987 0.985 . S
H992 N986 0.984 . S
H993 N986 0.984 . S
H994 N982 0.984 . S
H995 N982 0.985 . S
C996 C997 1.363 . S
C996 C1002 1.379 . S
C996 N1004 1.356 . S
C997 C996 1.363 . S
C997 C1003 1.363 . S
C998 C999 1.363 . S
C998 C1003 1.379 . S
C998 N1005 1.356 . S
C999 C998 1.363 . S
C999 C1002 1.363 . S
N1000 C1002 1.356 . S
N1000 H1012 0.984 . S
N1000 H1013 0.985 . S
N1001 C1003 1.356 . S
N1001 H1006 0.984 . S
N1001 H1007 0.985 . S
C1002 C996 1.379 . S
C1002 C999 1.363 . S
C1002 N1000 1.356 . S
C1003 C997 1.363 . S
C1003 C998 1.379 . S
C1003 N1001 1.356 . S
N1004 C996 1.356 . S
N1004 H1010 0.984 . S
N1004 H1011 0.984 . S
N1005 C998 1.356 . S
N1005 H1008 0.984 . S
N1005 H1009 0.985 . S
H1006 N1001 0.984 . S
H1007 N1001 0.985 . S
H1008 N1005 0.984 . S
H1009 N1005 0.985 . S
H1010 N1004 0.984 . S
H1011 N1004 0.984 . S
H1012 N1000 0.984 . S
H1013 N1000 0.985 . S
C1014 C1015 1.363 . S
C1014 C1020 1.379 . S
C1014 N1022 1.356 . S
C1015 C1014 1.363 . S
C1015 C1021 1.363 . S
C1016 C1017 1.363 . S
C1016 C1021 1.379 . S
C1016 N1023 1.356 . S
C1017 C1016 1.363 . S
C1017 C1020 1.363 . S
N1018 C1020 1.356 . S
N1018 H1030 0.984 . S
N1018 H1031 0.985 . S
N1019 C1021 1.356 . S
N1019 H1024 0.984 . S
N1019 H1025 0.985 . S
C1020 C1014 1.379 . S
C1020 C1017 1.363 . S
C1020 N1018 1.356 . S
C1021 C1015 1.363 . S
C1021 C1016 1.379 . S
C1021 N1019 1.356 . S
N1022 C1014 1.356 . S
N1022 H1028 0.984 . S
N1022 H1029 0.984 . S
N1023 C1016 1.356 . S
N1023 H1026 0.984 . S
N1023 H1027 0.985 . S
H1024 N1019 0.984 . S
H1025 N1019 0.985 . S
H1026 N1023 0.984 . S
H1027 N1023 0.985 . S
H1028 N1022 0.984 . S
H1029 N1022 0.984 . S
H1030 N1018 0.984 . S
H1031 N1018 0.985 . S
C1032 C1033 1.363 . S
C1032 C1038 1.379 . S
C1032 N1040 1.356 . S
C1033 C1032 1.363 . S
C1033 C1039 1.363 . S
C1034 C1035 1.363 . S
C1034 C1039 1.379 . S
C1034 N1041 1.356 . S
C1035 C1034 1.363 . S
C1035 C1038 1.363 . S
N1036 C1038 1.356 . S
N1036 H1048 0.984 . S
N1036 H1049 0.985 . S
N1037 C1039 1.356 . S
N1037 H1042 0.984 . S
N1037 H1043 0.985 . S
C1038 C1032 1.379 . S
C1038 C1035 1.363 . S
C1038 N1036 1.356 . S
C1039 C1033 1.363 . S
C1039 C1034 1.379 . S
C1039 N1037 1.356 . S
N1040 C1032 1.356 . S
N1040 H1046 0.984 . S
N1040 H1047 0.984 . S
N1041 C1034 1.356 . S
N1041 H1044 0.984 . S
N1041 H1045 0.985 . S
H1042 N1037 0.984 . S
H1043 N1037 0.985 . S
H1044 N1041 0.984 . S
H1045 N1041 0.985 . S
H1046 N1040 0.984 . S
H1047 N1040 0.984 . S
H1048 N1036 0.984 . S
H1049 N1036 0.985 . S
C1050 C1051 1.363 . S
C1050 C1056 1.379 . S
C1050 N1058 1.356 . S
C1051 C1050 1.363 . S
C1051 C1057 1.363 . S
C1052 C1053 1.363 . S
C1052 C1057 1.379 . S
C1052 N1059 1.356 . S
C1053 C1052 1.363 . S
C1053 C1056 1.363 . S
N1054 C1056 1.356 . S
N1054 H1066 0.984 . S
N1054 H1067 0.985 . S
N1055 C1057 1.356 . S
N1055 H1060 0.984 . S
N1055 H1061 0.985 . S
C1056 C1050 1.379 . S
C1056 C1053 1.363 . S
C1056 N1054 1.356 . S
C1057 C1051 1.363 . S
C1057 C1052 1.379 . S
C1057 N1055 1.356 . S
N1058 C1050 1.356 . S
N1058 H1064 0.984 . S
N1058 H1065 0.984 . S
N1059 C1052 1.356 . S
N1059 H1062 0.984 . S
N1059 H1063 0.985 . S
H1060 N1055 0.984 . S
H1061 N1055 0.985 . S
H1062 N1059 0.984 . S
H1063 N1059 0.985 . S
H1064 N1058 0.984 . S
H1065 N1058 0.984 . S
H1066 N1054 0.984 . S
H1067 N1054 0.985 . S
C1068 C1069 1.363 . S
C1068 C1074 1.379 . S
C1068 N1076 1.356 . S
C1069 C1068 1.363 . S
C1069 C1075 1.363 . S
C1070 C1071 1.363 . S
C1070 C1075 1.379 . S
C1070 N1077 1.356 . S
C1071 C1070 1.363 . S
C1071 C1074 1.363 . S
N1072 C1074 1.356 . S
N1072 H1084 0.984 . S
N1072 H1085 0.985 . S
N1073 C1075 1.356 . S
N1073 H1078 0.984 . S
N1073 H1079 0.985 . S
C1074 C1068 1.379 . S
C1074 C1071 1.363 . S
C1074 N1072 1.356 . S
C1075 C1069 1.363 . S
C1075 C1070 1.379 . S
C1075 N1073 1.356 . S
N1076 C1068 1.356 . S
N1076 H1082 0.984 . S
N1076 H1083 0.984 . S
N1077 C1070 1.356 . S
N1077 H1080 0.984 . S
N1077 H1081 0.985 . S
H1078 N1073 0.984 . S
H1079 N1073 0.985 . S
H1080 N1077 0.984 . S
H1081 N1077 0.985 . S
H1082 N1076 0.984 . S
H1083 N1076 0.984 . S
H1084 N1072 0.984 . S
H1085 N1072 0.985 . S
C1086 C1087 1.363 . S
C1086 C1092 1.379 . S
C1086 N1094 1.356 . S
C1087 C1086 1.363 . S
C1087 C1093 1.363 . S
C1088 C1089 1.363 . S
C1088 C1093 1.379 . S
C1088 N1095 1.356 . S
C1089 C1088 1.363 . S
C1089 C1092 1.363 . S
N1090 C1092 1.356 . S
N1090 H1102 0.984 . S
N1090 H1103 0.985 . S
N1091 C1093 1.356 . S
N1091 H1096 0.984 . S
N1091 H1097 0.985 . S
C1092 C1086 1.379 . S
C1092 C1089 1.363 . S
C1092 N1090 1.356 . S
C1093 C1087 1.363 . S
C1093 C1088 1.379 . S
C1093 N1091 1.356 . S
N1094 C1086 1.356 . S
N1094 H1100 0.984 . S
N1094 H1101 0.984 . S
N1095 C1088 1.356 . S
N1095 H1098 0.984 . S
N1095 H1099 0.985 . S
H1096 N1091 0.984 . S
H1097 N1091 0.985 . S
H1098 N1095 0.984 . S
H1099 N1095 0.985 . S
H1100 N1094 0.984 . S
H1101 N1094 0.984 . S
H1102 N1090 0.984 . S
H1103 N1090 0.985 . S
C1104 C1105 1.363 . S
C1104 C1110 1.379 . S
C1104 N1112 1.356 . S
C1105 C1104 1.363 . S
C1105 C1111 1.363 . S
C1106 C1107 1.363 . S
C1106 C1111 1.379 . S
C1106 N1113 1.356 . S
C1107 C1106 1.363 . S
C1107 C1110 1.363 . S
N1108 C1110 1.356 . S
N1108 H1120 0.984 . S
N1108 H1121 0.985 . S
N1109 C1111 1.356 . S
N1109 H1114 0.984 . S
N1109 H1115 0.985 . S
C1110 C1104 1.379 . S
C1110 C1107 1.363 . S
C1110 N1108 1.356 . S
C1111 C1105 1.363 . S
C1111 C1106 1.379 . S
C1111 N1109 1.356 . S
N1112 C1104 1.356 . S
N1112 H1118 0.984 . S
N1112 H1119 0.984 . S
N1113 C1106 1.356 . S
N1113 H1116 0.984 . S
N1113 H1117 0.985 . S
H1114 N1109 0.984 . S
H1115 N1109 0.985 . S
H1116 N1113 0.984 . S
H1117 N1113 0.985 . S
H1118 N1112 0.984 . S
H1119 N1112 0.984 . S
H1120 N1108 0.984 . S
H1121 N1108 0.985 . S
C1122 C1123 1.363 . S
C1122 C1128 1.379 . S
C1122 N1130 1.356 . S
C1123 C1122 1.363 . S
C1123 C1129 1.363 . S
C1124 C1125 1.363 . S
C1124 C1129 1.379 . S
C1124 N1131 1.356 . S
C1125 C1124 1.363 . S
C1125 C1128 1.363 . S
N1126 C1128 1.356 . S
N1126 H1138 0.984 . S
N1126 H1139 0.985 . S
N1127 C1129 1.356 1_545 S
N1127 H1132 0.984 . S
N1127 H1133 0.985 . S
C1128 C1122 1.379 . S
C1128 C1125 1.363 . S
C1128 N1126 1.356 . S
C1129 C1123 1.363 . S
C1129 C1124 1.379 . S
C1129 N1127 1.356 1_565 S
N1130 C1122 1.356 . S
N1130 H1136 0.984 . S
N1130 H1137 0.984 . S
N1131 C1124 1.356 . S
N1131 H1134 0.984 . S
N1131 H1135 0.985 . S
H1132 N1127 0.984 . S
H1133 N1127 0.985 . S
H1134 N1131 0.984 . S
H1135 N1131 0.985 . S
H1136 N1130 0.984 . S
H1137 N1130 0.984 . S
H1138 N1126 0.984 . S
H1139 N1126 0.985 . S
C1140 C1141 1.363 . S
C1140 C1146 1.379 . S
C1140 N1148 1.356 . S
C1141 C1140 1.363 . S
C1141 C1147 1.363 . S
C1142 C1143 1.363 . S
C1142 C1147 1.379 . S
C1142 N1149 1.356 . S
C1143 C1142 1.363 . S
C1143 C1146 1.363 . S
N1144 C1146 1.356 . S
N1144 H1156 0.984 . S
N1144 H1157 0.985 . S
N1145 C1147 1.356 . S
N1145 H1150 0.984 . S
N1145 H1151 0.985 . S
C1146 C1140 1.379 . S
C1146 C1143 1.363 . S
C1146 N1144 1.356 . S
C1147 C1141 1.363 . S
C1147 C1142 1.379 . S
C1147 N1145 1.356 . S
N1148 C1140 1.356 . S
N1148 H1154 0.984 . S
N1148 H1155 0.984 . S
N1149 C1142 1.356 . S
N1149 H1152 0.984 . S
N1149 H1153 0.985 . S
H1150 N1145 0.984 . S
H1151 N1145 0.985 . S
H1152 N1149 0.984 . S
H1153 N1149 0.985 . S
H1154 N1148 0.984 . S
H1155 N1148 0.984 . S
H1156 N1144 0.984 . S
H1157 N1144 0.985 . S
C1158 C1159 1.363 . S
C1158 C1164 1.379 1_556 S
C1158 N1166 1.356 . S
C1159 C1158 1.363 . S
C1159 C1165 1.363 1_556 S
C1160 C1161 1.363 . S
C1160 C1165 1.379 . S
C1160 N1167 1.356 . S
C1161 C1160 1.363 . S
C1161 C1164 1.363 . S
N1162 C1164 1.356 . S
N1162 H1174 0.984 1_554 S
N1162 H1175 0.985 . S
N1163 C1165 1.356 1_565 S
N1163 H1168 0.984 1_554 S
N1163 H1169 0.985 . S
C1164 C1158 1.379 1_554 S
C1164 C1161 1.363 . S
C1164 N1162 1.356 . S
C1165 C1159 1.363 1_554 S
C1165 C1160 1.379 . S
C1165 N1163 1.356 1_545 S
N1166 C1158 1.356 . S
N1166 H1172 0.984 . S
N1166 H1173 0.984 . S
N1167 C1160 1.356 . S
N1167 H1170 0.984 . S
N1167 H1171 0.985 . S
H1168 N1163 0.984 1_556 S
H1169 N1163 0.985 . S
H1170 N1167 0.984 . S
H1171 N1167 0.985 . S
H1172 N1166 0.984 . S
H1173 N1166 0.984 . S
H1174 N1162 0.984 1_556 S
H1175 N1162 0.985 . S
C1176 C1177 1.363 . S
C1176 C1182 1.379 . S
C1176 N1184 1.356 . S
C1177 C1176 1.363 . S
C1177 C1183 1.363 . S
C1178 C1179 1.363 . S
C1178 C1183 1.379 . S
C1178 N1185 1.356 . S
C1179 C1178 1.363 . S
C1179 C1182 1.363 . S
N1180 C1182 1.356 . S
N1180 H1192 0.984 . S
N1180 H1193 0.985 . S
N1181 C1183 1.356 . S
N1181 H1186 0.984 . S
N1181 H1187 0.985 . S
C1182 C1176 1.379 . S
C1182 C1179 1.363 . S
C1182 N1180 1.356 . S
C1183 C1177 1.363 . S
C1183 C1178 1.379 . S
C1183 N1181 1.356 . S
N1184 C1176 1.356 . S
N1184 H1190 0.984 . S
N1184 H1191 0.984 . S
N1185 C1178 1.356 . S
N1185 H1188 0.984 . S
N1185 H1189 0.985 . S
H1186 N1181 0.984 . S
H1187 N1181 0.985 . S
H1188 N1185 0.984 . S
H1189 N1185 0.985 . S
H1190 N1184 0.984 . S
H1191 N1184 0.984 . S
H1192 N1180 0.984 . S
H1193 N1180 0.985 . S
C1194 C1195 1.363 . S
C1194 C1200 1.379 . S
C1194 N1202 1.356 1_565 S
C1195 C1194 1.363 . S
C1195 C1201 1.363 . S
C1196 C1197 1.363 . S
C1196 C1201 1.379 . S
C1196 N1203 1.356 . S
C1197 C1196 1.363 . S
C1197 C1200 1.363 . S
N1198 C1200 1.356 . S
N1198 H1210 0.984 . S
N1198 H1211 0.985 . S
N1199 C1201 1.356 . S
N1199 H1204 0.984 . S
N1199 H1205 0.985 . S
C1200 C1194 1.379 . S
C1200 C1197 1.363 . S
C1200 N1198 1.356 . S
C1201 C1195 1.363 . S
C1201 C1196 1.379 . S
C1201 N1199 1.356 . S
N1202 C1194 1.356 1_545 S
N1202 H1208 0.984 . S
N1202 H1209 0.984 . S
N1203 C1196 1.356 . S
N1203 H1206 0.984 . S
N1203 H1207 0.985 . S
H1204 N1199 0.984 . S
H1205 N1199 0.985 . S
H1206 N1203 0.984 . S
H1207 N1203 0.985 . S
H1208 N1202 0.984 . S
H1209 N1202 0.984 . S
H1210 N1198 0.984 . S
H1211 N1198 0.985 . S
C1212 C1213 1.363 . S
C1212 C1218 1.379 . S
C1212 N1220 1.356 . S
C1213 C1212 1.363 . S
C1213 C1219 1.363 . S
C1214 C1215 1.363 . S
C1214 C1219 1.379 . S
C1214 N1221 1.356 . S
C1215 C1214 1.363 . S
C1215 C1218 1.363 . S
N1216 C1218 1.356 . S
N1216 H1228 0.984 . S
N1216 H1229 0.985 . S
N1217 C1219 1.356 . S
N1217 H1222 0.984 . S
N1217 H1223 0.985 . S
C1218 C1212 1.379 . S
C1218 C1215 1.363 . S
C1218 N1216 1.356 . S
C1219 C1213 1.363 . S
C1219 C1214 1.379 . S
C1219 N1217 1.356 . S
N1220 C1212 1.356 . S
N1220 H1226 0.984 . S
N1220 H1227 0.984 . S
N1221 C1214 1.356 . S
N1221 H1224 0.984 . S
N1221 H1225 0.985 . S
H1222 N1217 0.984 . S
H1223 N1217 0.985 . S
H1224 N1221 0.984 . S
H1225 N1221 0.985 . S
H1226 N1220 0.984 . S
H1227 N1220 0.984 . S
H1228 N1216 0.984 . S
H1229 N1216 0.985 . S
C1230 C1231 1.363 1_556 S
C1230 C1236 1.379 . S
C1230 N1238 1.356 1_545 S
C1231 C1230 1.363 1_554 S
C1231 C1237 1.363 . S
C1232 C1233 1.363 . S
C1232 C1237 1.379 1_556 S
C1232 N1239 1.356 . S
C1233 C1232 1.363 . S
C1233 C1236 1.363 . S
N1234 C1236 1.356 . S
N1234 H1246 0.984 . S
N1234 H1247 0.985 . S
N1235 C1237 1.356 . S
N1235 H1240 0.984 . S
N1235 H1241 0.985 . S
C1236 C1230 1.379 . S
C1236 C1233 1.363 . S
C1236 N1234 1.356 . S
C1237 C1231 1.363 . S
C1237 C1232 1.379 1_554 S
C1237 N1235 1.356 . S
N1238 C1230 1.356 1_565 S
N1238 H1244 0.984 . S
N1238 H1245 0.984 1_556 S
N1239 C1232 1.356 . S
N1239 H1242 0.984 . S
N1239 H1243 0.985 1_556 S
H1240 N1235 0.984 . S
H1241 N1235 0.985 . S
H1242 N1239 0.984 . S
H1243 N1239 0.985 1_554 S
H1244 N1238 0.984 . S
H1245 N1238 0.984 1_554 S
H1246 N1234 0.984 . S
H1247 N1234 0.985 . S
C1248 C1249 1.363 . S
C1248 C1254 1.379 . S
C1248 N1256 1.356 . S
C1249 C1248 1.363 . S
C1249 C1255 1.363 . S
C1250 C1251 1.363 . S
C1250 C1255 1.379 . S
C1250 N1257 1.356 . S
C1251 C1250 1.363 . S
C1251 C1254 1.363 . S
N1252 C1254 1.356 . S
N1252 H1264 0.984 . S
N1252 H1265 0.985 . S
N1253 C1255 1.356 . S
N1253 H1258 0.984 . S
N1253 H1259 0.985 . S
C1254 C1248 1.379 . S
C1254 C1251 1.363 . S
C1254 N1252 1.356 . S
C1255 C1249 1.363 . S
C1255 C1250 1.379 . S
C1255 N1253 1.356 . S
N1256 C1248 1.356 . S
N1256 H1262 0.984 . S
N1256 H1263 0.984 . S
N1257 C1250 1.356 . S
N1257 H1260 0.984 . S
N1257 H1261 0.985 . S
H1258 N1253 0.984 . S
H1259 N1253 0.985 . S
H1260 N1257 0.984 . S
H1261 N1257 0.985 . S
H1262 N1256 0.984 . S
H1263 N1256 0.984 . S
H1264 N1252 0.984 . S
H1265 N1252 0.985 . S
C1266 C1267 1.363 1_545 S
C1266 C1272 1.379 . S
C1266 N1274 1.356 1_455 S
C1267 C1266 1.363 1_565 S
C1267 C1273 1.363 . S
C1268 C1269 1.363 . S
C1268 C1273 1.379 1_545 S
C1268 N1275 1.356 . S
C1269 C1268 1.363 . S
C1269 C1272 1.363 . S
N1270 C1272 1.356 . S
N1270 H1282 0.984 . S
N1270 H1283 0.985 . S
N1271 C1273 1.356 . S
N1271 H1276 0.984 . S
N1271 H1277 0.985 . S
C1272 C1266 1.379 . S
C1272 C1269 1.363 . S
C1272 N1270 1.356 . S
C1273 C1267 1.363 . S
C1273 C1268 1.379 1_565 S
C1273 N1271 1.356 . S
N1274 C1266 1.356 1_655 S
N1274 H1280 0.984 . S
N1274 H1281 0.985 1_545 S
N1275 C1268 1.356 . S
N1275 H1278 0.984 . S
N1275 H1279 0.985 . S
H1276 N1271 0.984 . S
H1277 N1271 0.985 . S
H1278 N1275 0.984 . S
H1279 N1275 0.985 . S
H1280 N1274 0.984 . S
H1281 N1274 0.985 1_565 S
H1282 N1270 0.984 . S
H1283 N1270 0.985 . S
C1284 C1285 1.363 . S
C1284 C1290 1.379 . S
C1284 N1292 1.356 . S
C1285 C1284 1.363 . S
C1285 C1291 1.363 . S
C1286 C1287 1.363 . S
C1286 C1291 1.379 . S
C1286 N1293 1.356 . S
C1287 C1286 1.363 . S
C1287 C1290 1.363 . S
N1288 C1290 1.356 . S
N1288 H1300 0.984 . S
N1288 H1301 0.985 . S
N1289 C1291 1.356 . S
N1289 H1294 0.984 . S
N1289 H1295 0.985 . S
C1290 C1284 1.379 . S
C1290 C1287 1.363 . S
C1290 N1288 1.356 . S
C1291 C1285 1.363 . S
C1291 C1286 1.379 . S
C1291 N1289 1.356 . S
N1292 C1284 1.356 . S
N1292 H1298 0.984 . S
N1292 H1299 0.984 . S
N1293 C1286 1.356 . S
N1293 H1296 0.984 . S
N1293 H1297 0.985 . S
H1294 N1289 0.984 . S
H1295 N1289 0.985 . S
H1296 N1293 0.984 . S
H1297 N1293 0.985 . S
H1298 N1292 0.984 . S
H1299 N1292 0.984 . S
H1300 N1288 0.984 . S
H1301 N1288 0.985 . S
C1302 C1303 1.363 . S
C1302 C1308 1.379 1_545 S
C1302 N1310 1.356 . S
C1303 C1302 1.363 . S
C1303 C1309 1.363 1_545 S
C1304 C1305 1.363 . S
C1304 C1309 1.379 . S
C1304 N1311 1.356 . S
C1305 C1304 1.363 . S
C1305 C1308 1.363 . S
N1306 C1308 1.356 . S
N1306 H1318 0.984 1_554 S
N1306 H1319 0.985 . S
N1307 C1309 1.350 1_545 S
N1307 H1312 1.004 . S
N1307 H1313 0.973 1_545 S
C1308 C1302 1.379 1_565 S
C1308 C1305 1.363 . S
C1308 N1306 1.356 . S
C1309 C1303 1.363 1_565 S
C1309 C1304 1.379 . S
C1309 N1307 1.350 1_565 S
N1310 C1302 1.356 . S
N1310 H1316 0.984 . S
N1310 H1317 0.984 . S
N1311 C1304 1.356 . S
N1311 H1314 0.984 . S
N1311 H1315 0.985 . S
H1312 N1307 1.004 . S
H1313 N1307 0.973 1_565 S
H1314 N1311 0.984 . S
H1315 N1311 0.985 . S
H1316 N1310 0.984 . S
H1317 N1310 0.984 . S
H1318 N1306 0.984 1_556 S
H1319 N1306 0.985 . S
C1320 C1321 1.363 . S
C1320 C1326 1.379 . S
C1320 N1328 1.356 . S
C1321 C1320 1.363 . S
C1321 C1327 1.363 . S
C1322 C1323 1.363 . S
C1322 C1327 1.379 . S
C1322 N1329 1.356 . S
C1323 C1322 1.363 . S
C1323 C1326 1.363 . S
N1324 C1326 1.356 . S
N1324 H1336 0.984 . S
N1324 H1337 0.985 . S
N1325 C1327 1.356 . S
N1325 H1330 0.984 . S
N1325 H1331 0.985 . S
C1326 C1320 1.379 . S
C1326 C1323 1.363 . S
C1326 N1324 1.356 . S
C1327 C1321 1.363 . S
C1327 C1322 1.379 . S
C1327 N1325 1.356 . S
N1328 C1320 1.356 . S
N1328 H1334 0.984 . S
N1328 H1335 0.984 . S
N1329 C1322 1.356 . S
N1329 H1332 0.984 . S
N1329 H1333 0.985 . S
H1330 N1325 0.984 . S
H1331 N1325 0.985 . S
H1332 N1329 0.984 . S
H1333 N1329 0.985 . S
H1334 N1328 0.984 . S
H1335 N1328 0.984 . S
H1336 N1324 0.984 . S
H1337 N1324 0.985 . S
C1338 C1339 1.363 1_545 S
C1338 C1344 1.379 . S
C1338 N1346 1.356 . S
C1339 C1338 1.363 1_565 S
C1339 C1345 1.363 . S
C1340 C1341 1.363 1_565 S
C1340 C1345 1.379 . S
C1340 N1347 1.356 . S
C1341 C1340 1.363 1_545 S
C1341 C1344 1.363 . S
N1342 C1344 1.356 . S
N1342 H1354 0.984 . S
N1342 H1355 0.985 . S
N1343 C1345 1.356 . S
N1343 H1348 0.984 . S
N1343 H1349 0.985 . S
C1344 C1338 1.379 . S
C1344 C1341 1.363 . S
C1344 N1342 1.356 . S
C1345 C1339 1.363 . S
C1345 C1340 1.379 . S
C1345 N1343 1.356 . S
N1346 C1338 1.356 . S
N1346 H1352 0.984 . S
N1346 H1353 0.984 . S
N1347 C1340 1.356 . S
N1347 H1350 0.992 . S
N1347 H1351 0.985 . S
H1348 N1343 0.984 . S
H1349 N1343 0.985 . S
H1350 N1347 0.992 . S
H1351 N1347 0.985 . S
H1352 N1346 0.984 . S
H1353 N1346 0.984 . S
H1354 N1342 0.984 . S
H1355 N1342 0.985 . S
C1356 C1357 1.363 . S
C1356 C1362 1.379 . S
C1356 N1364 1.356 . S
C1357 C1356 1.363 . S
C1357 C1363 1.363 . S
C1358 C1359 1.363 . S
C1358 C1363 1.379 . S
C1358 N1365 1.356 . S
C1359 C1358 1.363 . S
C1359 C1362 1.363 . S
N1360 C1362 1.356 . S
N1360 H1372 0.984 . S
N1360 H1373 0.985 . S
N1361 C1363 1.356 . S
N1361 H1366 0.984 . S
N1361 H1367 0.985 . S
C1362 C1356 1.379 . S
C1362 C1359 1.363 . S
C1362 N1360 1.356 . S
C1363 C1357 1.363 . S
C1363 C1358 1.379 . S
C1363 N1361 1.356 . S
N1364 C1356 1.356 . S
N1364 H1370 0.984 . S
N1364 H1371 0.984 . S
N1365 C1358 1.356 . S
N1365 H1368 0.984 . S
N1365 H1369 0.985 . S
H1366 N1361 0.984 . S
H1367 N1361 0.985 . S
H1368 N1365 0.984 . S
H1369 N1365 0.985 . S
H1370 N1364 0.984 . S
H1371 N1364 0.984 . S
H1372 N1360 0.984 . S
H1373 N1360 0.985 . S
C1374 C1375 1.363 1_545 S
C1374 C1380 1.379 . S
C1374 N1382 1.356 . S
C1375 C1374 1.363 1_565 S
C1375 C1381 1.363 . S
C1376 C1377 1.363 1_565 S
C1376 C1381 1.379 . S
C1376 N1383 1.356 . S
C1377 C1376 1.363 1_545 S
C1377 C1380 1.363 . S
N1378 C1380 1.356 . S
N1378 H1390 0.984 . S
N1378 H1391 0.985 . S
N1379 C1381 1.356 . S
N1379 H1384 0.984 . S
N1379 H1385 0.985 . S
C1380 C1374 1.379 . S
C1380 C1377 1.363 . S
C1380 N1378 1.356 . S
C1381 C1375 1.363 . S
C1381 C1376 1.379 . S
C1381 N1379 1.356 . S
N1382 C1374 1.356 . S
N1382 H1388 0.984 . S
N1382 H1389 0.986 1_545 S
N1383 C1376 1.356 . S
N1383 H1386 0.984 . S
N1383 H1387 0.985 . S
H1384 N1379 0.984 . S
H1385 N1379 0.985 . S
H1386 N1383 0.984 . S
H1387 N1383 0.985 . S
H1388 N1382 0.984 . S
H1389 N1382 0.986 1_565 S
H1390 N1378 0.984 . S
H1391 N1378 0.985 . S
C1392 C1393 1.363 . S
C1392 C1398 1.379 . S
C1392 N1400 1.356 . S
C1393 C1392 1.363 . S
C1393 C1399 1.363 . S
C1394 C1395 1.363 . S
C1394 C1399 1.379 . S
C1394 N1401 1.356 . S
C1395 C1394 1.363 . S
C1395 C1398 1.363 . S
N1396 C1398 1.356 . S
N1396 H1408 0.984 . S
N1396 H1409 0.985 . S
N1397 C1399 1.356 . S
N1397 H1402 0.984 . S
N1397 H1403 0.985 . S
C1398 C1392 1.379 . S
C1398 C1395 1.363 . S
C1398 N1396 1.356 . S
C1399 C1393 1.363 . S
C1399 C1394 1.379 . S
C1399 N1397 1.356 . S
N1400 C1392 1.356 . S
N1400 H1406 0.984 . S
N1400 H1407 0.984 . S
N1401 C1394 1.356 . S
N1401 H1404 0.984 . S
N1401 H1405 0.985 . S
H1402 N1397 0.984 . S
H1403 N1397 0.985 . S
H1404 N1401 0.984 . S
H1405 N1401 0.985 . S
H1406 N1400 0.984 . S
H1407 N1400 0.984 . S
H1408 N1396 0.984 . S
H1409 N1396 0.985 . S
C1410 C1411 1.363 . S
C1410 C1416 1.379 . S
C1410 N1418 1.356 . S
C1411 C1410 1.363 . S
C1411 C1417 1.363 . S
C1412 C1413 1.363 . S
C1412 C1417 1.379 . S
C1412 N1419 1.356 . S
C1413 C1412 1.363 . S
C1413 C1416 1.363 . S
N1414 C1416 1.356 . S
N1414 H1426 0.984 . S
N1414 H1427 0.985 . S
N1415 C1417 1.356 . S
N1415 H1420 0.984 . S
N1415 H1421 0.985 . S
C1416 C1410 1.379 . S
C1416 C1413 1.363 . S
C1416 N1414 1.356 . S
C1417 C1411 1.363 . S
C1417 C1412 1.379 . S
C1417 N1415 1.356 . S
N1418 C1410 1.356 . S
N1418 H1424 0.984 . S
N1418 H1425 0.984 . S
N1419 C1412 1.356 . S
N1419 H1422 0.984 . S
N1419 H1423 0.985 . S
H1420 N1415 0.984 . S
H1421 N1415 0.985 . S
H1422 N1419 0.984 . S
H1423 N1419 0.985 . S
H1424 N1418 0.984 . S
H1425 N1418 0.984 . S
H1426 N1414 0.984 . S
H1427 N1414 0.985 . S
C1428 C1429 1.363 . S
C1428 C1434 1.389 . S
C1428 N1436 1.356 . S
C1429 C1428 1.363 . S
C1429 C1435 1.363 1_655 S
C1430 C1431 1.363 . S
C1430 C1435 1.379 . S
C1430 N1437 1.356 . S
C1431 C1430 1.363 . S
C1431 C1434 1.348 1_455 S
N1432 C1434 1.356 . S
N1432 H1444 1.003 . S
N1432 H1445 0.967 1_655 S
N1433 C1435 1.356 . S
N1433 H1438 0.984 1_455 S
N1433 H1439 0.985 . S
C1434 C1428 1.389 . S
C1434 C1431 1.348 1_655 S
C1434 N1432 1.356 . S
C1435 C1429 1.363 1_455 S
C1435 C1430 1.379 . S
C1435 N1433 1.356 . S
N1436 C1428 1.356 . S
N1436 H1442 0.984 . S
N1436 H1443 0.984 1_554 S
N1437 C1430 1.356 . S
N1437 H1440 0.984 . S
N1437 H1441 0.985 . S
H1438 N1433 0.984 1_655 S
H1439 N1433 0.985 . S
H1440 N1437 0.984 . S
H1441 N1437 0.985 . S
H1442 N1436 0.984 . S
H1443 N1436 0.984 1_556 S
H1444 N1432 1.003 . S
H1445 N1432 0.967 1_455 S
C1446 C1447 1.363 . S
C1446 C1452 1.379 . S
C1446 N1454 1.356 . S
C1447 C1446 1.363 . S
C1447 C1453 1.363 . S
C1448 C1449 1.363 . S
C1448 C1453 1.379 . S
C1448 N1455 1.356 . S
C1449 C1448 1.363 . S
C1449 C1452 1.363 . S
N1450 C1452 1.356 . S
N1450 H1462 0.984 . S
N1450 H1463 0.985 . S
N1451 C1453 1.356 . S
N1451 H1456 0.984 . S
N1451 H1457 0.985 . S
C1452 C1446 1.379 . S
C1452 C1449 1.363 . S
C1452 N1450 1.356 . S
C1453 C1447 1.363 . S
C1453 C1448 1.379 . S
C1453 N1451 1.356 . S
N1454 C1446 1.356 . S
N1454 H1460 0.984 . S
N1454 H1461 0.984 . S
N1455 C1448 1.356 . S
N1455 H1458 0.984 . S
N1455 H1459 0.985 . S
H1456 N1451 0.984 . S
H1457 N1451 0.985 . S
H1458 N1455 0.984 . S
H1459 N1455 0.985 . S
H1460 N1454 0.984 . S
H1461 N1454 0.984 . S
H1462 N1450 0.984 . S
H1463 N1450 0.985 . S
C1464 C1465 1.363 . S
C1464 C1470 1.379 . S
C1464 N1472 1.356 . S
C1465 C1464 1.363 . S
C1465 C1471 1.363 1_455 S
C1466 C1467 1.363 . S
C1466 C1471 1.379 . S
C1466 N1473 1.356 . S
C1467 C1466 1.363 . S
C1467 C1470 1.363 1_655 S
N1468 C1470 1.356 . S
N1468 H1480 0.984 . S
N1468 H1481 0.985 . S
N1469 C1471 1.356 . S
N1469 H1474 0.984 1_554 S
N1469 H1475 0.985 . S
C1470 C1464 1.379 . S
C1470 C1467 1.363 1_455 S
C1470 N1468 1.356 . S
C1471 C1465 1.363 1_655 S
C1471 C1466 1.379 . S
C1471 N1469 1.356 . S
N1472 C1464 1.356 . S
N1472 H1478 0.984 . S
N1472 H1479 0.984 . S
N1473 C1466 1.356 . S
N1473 H1476 0.984 . S
N1473 H1477 0.985 . S
H1474 N1469 0.984 1_556 S
H1475 N1469 0.985 . S
H1476 N1473 0.984 . S
H1477 N1473 0.985 . S
H1478 N1472 0.984 . S
H1479 N1472 0.984 . S
H1480 N1468 0.984 . S
H1481 N1468 0.985 . S
C1482 C1483 1.363 . S
C1482 C1488 1.379 . S
C1482 N1490 1.356 . S
C1483 C1482 1.363 . S
C1483 C1489 1.363 . S
C1484 C1485 1.363 . S
C1484 C1489 1.379 . S
C1484 N1491 1.356 . S
C1485 C1484 1.363 . S
C1485 C1488 1.363 . S
N1486 C1488 1.356 . S
N1486 H1498 0.984 . S
N1486 H1499 0.985 . S
N1487 C1489 1.356 . S
N1487 H1492 0.984 . S
N1487 H1493 0.985 . S
C1488 C1482 1.379 . S
C1488 C1485 1.363 . S
C1488 N1486 1.356 . S
C1489 C1483 1.363 . S
C1489 C1484 1.379 . S
C1489 N1487 1.356 . S
N1490 C1482 1.356 . S
N1490 H1496 0.984 . S
N1490 H1497 0.984 . S
N1491 C1484 1.356 . S
N1491 H1494 0.984 . S
N1491 H1495 0.985 . S
H1492 N1487 0.984 . S
H1493 N1487 0.985 . S
H1494 N1491 0.984 . S
H1495 N1491 0.985 . S
H1496 N1490 0.984 . S
H1497 N1490 0.984 . S
H1498 N1486 0.984 . S
H1499 N1486 0.985 . S
C1500 C1501 1.363 1_455 S
C1500 C1506 1.379 . S
C1500 N1508 1.356 . S
C1501 C1500 1.363 1_655 S
C1501 C1507 1.363 . S
C1502 C1503 1.363 1_655 S
C1502 C1507 1.379 . S
C1502 N1509 1.356 . S
C1503 C1502 1.363 1_455 S
C1503 C1506 1.363 . S
N1504 C1506 1.356 . S
N1504 H1516 0.984 . S
N1504 H1517 0.985 . S
N1505 C1507 1.356 . S
N1505 H1510 0.984 . S
N1505 H1511 0.985 . S
C1506 C1500 1.379 . S
C1506 C1503 1.363 . S
C1506 N1504 1.356 . S
C1507 C1501 1.363 . S
C1507 C1502 1.379 . S
C1507 N1505 1.356 . S
N1508 C1500 1.356 . S
N1508 H1514 0.984 . S
N1508 H1515 0.984 . S
N1509 C1502 1.356 . S
N1509 H1512 0.984 1_655 S
N1509 H1513 0.985 . S
H1510 N1505 0.984 . S
H1511 N1505 0.985 . S
H1512 N1509 0.984 1_455 S
H1513 N1509 0.985 . S
H1514 N1508 0.984 . S
H1515 N1508 0.984 . S
H1516 N1504 0.984 . S
H1517 N1504 0.985 . S
C1518 C1519 1.363 . S
C1518 C1524 1.379 . S
C1518 N1526 1.356 . S
C1519 C1518 1.363 . S
C1519 C1525 1.363 . S
C1520 C1521 1.363 . S
C1520 C1525 1.379 . S
C1520 N1527 1.356 . S
C1521 C1520 1.363 . S
C1521 C1524 1.363 . S
N1522 C1524 1.356 1_554 S
N1522 H1534 0.984 . S
N1522 H1535 0.985 . S
N1523 C1525 1.356 . S
N1523 H1528 0.984 . S
N1523 H1529 0.985 . S
C1524 C1518 1.379 . S
C1524 C1521 1.363 . S
C1524 N1522 1.356 1_556 S
C1525 C1519 1.363 . S
C1525 C1520 1.379 . S
C1525 N1523 1.356 . S
N1526 C1518 1.356 . S
N1526 H1532 0.984 . S
N1526 H1533 0.984 . S
N1527 C1520 1.356 . S
N1527 H1530 0.984 . S
N1527 H1531 0.985 . S
H1528 N1523 0.984 . S
H1529 N1523 0.985 . S
H1530 N1527 0.984 . S
H1531 N1527 0.985 . S
H1532 N1526 0.984 . S
H1533 N1526 0.984 . S
H1534 N1522 0.984 . S
H1535 N1522 0.985 . S
C1536 C1537 1.363 . S
C1536 C1542 1.379 . S
C1536 N1544 1.356 . S
C1537 C1536 1.363 . S
C1537 C1543 1.363 . S
C1538 C1539 1.363 . S
C1538 C1543 1.379 . S
C1538 N1545 1.356 . S
C1539 C1538 1.363 . S
C1539 C1542 1.363 . S
N1540 C1542 1.356 . S
N1540 H1552 0.984 . S
N1540 H1553 0.985 . S
N1541 C1543 1.356 . S
N1541 H1546 0.984 . S
N1541 H1547 0.985 . S
C1542 C1536 1.379 . S
C1542 C1539 1.363 . S
C1542 N1540 1.356 . S
C1543 C1537 1.363 . S
C1543 C1538 1.379 . S
C1543 N1541 1.356 . S
N1544 C1536 1.356 . S
N1544 H1550 0.984 . S
N1544 H1551 0.984 . S
N1545 C1538 1.356 . S
N1545 H1548 0.984 . S
N1545 H1549 0.985 . S
H1546 N1541 0.984 . S
H1547 N1541 0.985 . S
H1548 N1545 0.984 . S
H1549 N1545 0.985 . S
H1550 N1544 0.984 . S
H1551 N1544 0.984 . S
H1552 N1540 0.984 . S
H1553 N1540 0.985 . S
C1554 C1555 1.381 . S
C1554 C1560 1.366 1_554 S
C1554 N1562 1.357 . S
C1555 C1554 1.381 . S
C1555 C1561 1.363 . S
C1556 C1557 1.363 1_554 S
C1556 C1561 1.379 . S
C1556 N1563 1.356 . S
C1557 C1556 1.363 1_556 S
C1557 C1560 1.363 . S
N1558 C1560 1.356 . S
N1558 H1570 0.984 . S
N1558 H1571 0.985 . S
N1559 C1561 1.356 . S
N1559 H1564 0.984 . S
N1559 H1565 0.985 . S
C1560 C1554 1.366 1_556 S
C1560 C1557 1.363 . S
C1560 N1558 1.356 . S
C1561 C1555 1.363 . S
C1561 C1556 1.379 . S
C1561 N1559 1.356 . S
N1562 C1554 1.357 . S
N1562 H1568 0.984 1_554 S
N1562 H1569 0.984 . S
N1563 C1556 1.356 . S
N1563 H1566 0.984 1_554 S
N1563 H1567 0.985 . S
H1564 N1559 0.984 . S
H1565 N1559 0.985 . S
H1566 N1563 0.984 1_556 S
H1567 N1563 0.985 . S
H1568 N1562 0.984 1_556 S
H1569 N1562 0.984 . S
H1570 N1558 0.984 . S
H1571 N1558 0.985 . S
C1572 C1573 1.363 . S
C1572 C1578 1.379 . S
C1572 N1580 1.356 . S
C1573 C1572 1.363 . S
C1573 C1579 1.363 . S
C1574 C1575 1.363 . S
C1574 C1579 1.379 . S
C1574 N1581 1.356 . S
C1575 C1574 1.363 . S
C1575 C1578 1.363 . S
N1576 C1578 1.356 . S
N1576 H1588 0.984 . S
N1576 H1589 0.985 . S
N1577 C1579 1.356 . S
N1577 H1582 0.984 . S
N1577 H1583 0.985 . S
C1578 C1572 1.379 . S
C1578 C1575 1.363 . S
C1578 N1576 1.356 . S
C1579 C1573 1.363 . S
C1579 C1574 1.379 . S
C1579 N1577 1.356 . S
N1580 C1572 1.356 . S
N1580 H1586 0.984 . S
N1580 H1587 0.984 . S
N1581 C1574 1.356 . S
N1581 H1584 0.984 . S
N1581 H1585 0.985 . S
H1582 N1577 0.984 . S
H1583 N1577 0.985 . S
H1584 N1581 0.984 . S
H1585 N1581 0.985 . S
H1586 N1580 0.984 . S
H1587 N1580 0.984 . S
H1588 N1576 0.984 . S
H1589 N1576 0.985 . S
C1590 C1591 1.363 . S
C1590 C1596 1.379 . S
C1590 N1598 1.356 . S
C1591 C1590 1.363 . S
C1591 C1597 1.363 . S
C1592 C1593 1.363 . S
C1592 C1597 1.379 . S
C1592 N1599 1.356 . S
C1593 C1592 1.363 . S
C1593 C1596 1.363 . S
N1594 C1596 1.356 . S
N1594 H1606 0.984 . S
N1594 H1607 0.985 . S
N1595 C1597 1.356 . S
N1595 H1600 0.984 . S
N1595 H1601 0.985 . S
C1596 C1590 1.379 . S
C1596 C1593 1.363 . S
C1596 N1594 1.356 . S
C1597 C1591 1.363 . S
C1597 C1592 1.379 . S
C1597 N1595 1.356 . S
N1598 C1590 1.356 . S
N1598 H1604 0.984 . S
N1598 H1605 0.984 . S
N1599 C1592 1.356 . S
N1599 H1602 0.984 . S
N1599 H1603 0.985 . S
H1600 N1595 0.984 . S
H1601 N1595 0.985 . S
H1602 N1599 0.984 . S
H1603 N1599 0.985 . S
H1604 N1598 0.984 . S
H1605 N1598 0.984 . S
H1606 N1594 0.984 . S
H1607 N1594 0.985 . S
C1608 C1609 1.363 . S
C1608 C1614 1.379 . S
C1608 N1616 1.356 . S
C1609 C1608 1.363 . S
C1609 C1615 1.363 . S
C1610 C1611 1.363 . S
C1610 C1615 1.379 . S
C1610 N1617 1.356 . S
C1611 C1610 1.363 . S
C1611 C1614 1.363 . S
N1612 C1614 1.356 . S
N1612 H1624 0.984 . S
N1612 H1625 0.985 . S
N1613 C1615 1.356 . S
N1613 H1618 0.984 . S
N1613 H1619 0.985 . S
C1614 C1608 1.379 . S
C1614 C1611 1.363 . S
C1614 N1612 1.356 . S
C1615 C1609 1.363 . S
C1615 C1610 1.379 . S
C1615 N1613 1.356 . S
N1616 C1608 1.356 . S
N1616 H1622 0.984 . S
N1616 H1623 0.984 . S
N1617 C1610 1.356 . S
N1617 H1620 0.984 . S
N1617 H1621 0.985 . S
H1618 N1613 0.984 . S
H1619 N1613 0.985 . S
H1620 N1617 0.984 . S
H1621 N1617 0.985 . S
H1622 N1616 0.984 . S
H1623 N1616 0.984 . S
H1624 N1612 0.984 . S
H1625 N1612 0.985 . S
C1626 C1627 1.363 1_554 S
C1626 C1632 1.379 . S
C1626 N1634 1.356 . S
C1627 C1626 1.363 1_556 S
C1627 C1633 1.363 . S
C1628 C1629 1.363 1_556 S
C1628 C1633 1.379 . S
C1628 N1635 1.356 . S
C1629 C1628 1.363 1_554 S
C1629 C1632 1.363 . S
N1630 C1632 1.356 . S
N1630 H1642 0.984 . S
N1630 H1643 0.985 . S
N1631 C1633 1.356 . S
N1631 H1636 0.984 . S
N1631 H1637 0.985 . S
C1632 C1626 1.379 . S
C1632 C1629 1.363 . S
C1632 N1630 1.356 . S
C1633 C1627 1.363 . S
C1633 C1628 1.379 . S
C1633 N1631 1.356 . S
N1634 C1626 1.356 . S
N1634 H1640 0.984 . S
N1634 H1641 0.984 . S
N1635 C1628 1.356 . S
N1635 H1638 0.984 . S
N1635 H1639 0.985 . S
H1636 N1631 0.984 . S
H1637 N1631 0.985 . S
H1638 N1635 0.984 . S
H1639 N1635 0.985 . S
H1640 N1634 0.984 . S
H1641 N1634 0.984 . S
H1642 N1630 0.984 . S
H1643 N1630 0.985 . S
C1644 C1645 1.363 . S
C1644 C1650 1.379 . S
C1644 N1652 1.356 . S
C1645 C1644 1.363 . S
C1645 C1651 1.363 . S
C1646 C1647 1.363 . S
C1646 C1651 1.379 . S
C1646 N1653 1.356 . S
C1647 C1646 1.363 . S
C1647 C1650 1.363 . S
N1648 C1650 1.356 . S
N1648 H1660 0.984 . S
N1648 H1661 0.985 . S
N1649 C1651 1.356 . S
N1649 H1654 0.984 . S
N1649 H1655 0.985 . S
C1650 C1644 1.379 . S
C1650 C1647 1.363 . S
C1650 N1648 1.356 . S
C1651 C1645 1.363 . S
C1651 C1646 1.379 . S
C1651 N1649 1.356 . S
N1652 C1644 1.356 . S
N1652 H1658 0.984 . S
N1652 H1659 0.984 . S
N1653 C1646 1.356 . S
N1653 H1656 0.984 . S
N1653 H1657 0.985 . S
H1654 N1649 0.984 . S
H1655 N1649 0.985 . S
H1656 N1653 0.984 . S
H1657 N1653 0.985 . S
H1658 N1652 0.984 . S
H1659 N1652 0.984 . S
H1660 N1648 0.984 . S
H1661 N1648 0.985 . S
C1662 C1663 1.363 . S
C1662 C1668 1.379 . S
C1662 N1670 1.356 . S
C1663 C1662 1.363 . S
C1663 C1669 1.363 . S
C1664 C1665 1.363 . S
C1664 C1669 1.379 . S
C1664 N1671 1.356 . S
C1665 C1664 1.363 . S
C1665 C1668 1.363 . S
N1666 C1668 1.356 . S
N1666 H1678 0.984 . S
N1666 H1679 0.985 . S
N1667 C1669 1.356 . S
N1667 H1672 0.984 . S
N1667 H1673 0.985 . S
C1668 C1662 1.379 . S
C1668 C1665 1.363 . S
C1668 N1666 1.356 . S
C1669 C1663 1.363 . S
C1669 C1664 1.379 . S
C1669 N1667 1.356 . S
N1670 C1662 1.356 . S
N1670 H1676 0.984 . S
N1670 H1677 0.984 . S
N1671 C1664 1.356 . S
N1671 H1674 0.984 . S
N1671 H1675 0.985 . S
H1672 N1667 0.984 . S
H1673 N1667 0.985 . S
H1674 N1671 0.984 . S
H1675 N1671 0.985 . S
H1676 N1670 0.984 . S
H1677 N1670 0.984 . S
H1678 N1666 0.984 . S
H1679 N1666 0.985 . S
C1680 C1681 1.363 . S
C1680 C1686 1.379 . S
C1680 N1688 1.356 . S
C1681 C1680 1.363 . S
C1681 C1687 1.363 . S
C1682 C1683 1.363 . S
C1682 C1687 1.379 . S
C1682 N1689 1.356 . S
C1683 C1682 1.363 . S
C1683 C1686 1.363 . S
N1684 C1686 1.356 . S
N1684 H1696 0.984 . S
N1684 H1697 0.985 . S
N1685 C1687 1.356 . S
N1685 H1690 0.984 . S
N1685 H1691 0.985 . S
C1686 C1680 1.379 . S
C1686 C1683 1.363 . S
C1686 N1684 1.356 . S
C1687 C1681 1.363 . S
C1687 C1682 1.379 . S
C1687 N1685 1.356 . S
N1688 C1680 1.356 . S
N1688 H1694 0.984 . S
N1688 H1695 0.984 . S
N1689 C1682 1.356 . S
N1689 H1692 0.984 . S
N1689 H1693 0.985 . S
H1690 N1685 0.984 . S
H1691 N1685 0.985 . S
H1692 N1689 0.984 . S
H1693 N1689 0.985 . S
H1694 N1688 0.984 . S
H1695 N1688 0.984 . S
H1696 N1684 0.984 . S
H1697 N1684 0.985 . S
C1698 C1699 1.363 . S
C1698 C1704 1.379 . S
C1698 N1706 1.356 . S
C1699 C1698 1.363 . S
C1699 C1705 1.363 . S
C1700 C1701 1.363 . S
C1700 C1705 1.379 . S
C1700 N1707 1.356 . S
C1701 C1700 1.363 . S
C1701 C1704 1.363 . S
N1702 C1704 1.356 . S
N1702 H1714 0.984 . S
N1702 H1715 0.985 . S
N1703 C1705 1.356 . S
N1703 H1708 0.984 . S
N1703 H1709 0.985 . S
C1704 C1698 1.379 . S
C1704 C1701 1.363 . S
C1704 N1702 1.356 . S
C1705 C1699 1.363 . S
C1705 C1700 1.379 . S
C1705 N1703 1.356 . S
N1706 C1698 1.356 . S
N1706 H1712 0.984 . S
N1706 H1713 0.984 . S
N1707 C1700 1.356 . S
N1707 H1710 0.984 . S
N1707 H1711 0.985 . S
H1708 N1703 0.984 . S
H1709 N1703 0.985 . S
H1710 N1707 0.984 . S
H1711 N1707 0.985 . S
H1712 N1706 0.984 . S
H1713 N1706 0.984 . S
H1714 N1702 0.984 . S
H1715 N1702 0.985 . S
C1716 C1717 1.363 . S
C1716 C1722 1.379 . S
C1716 N1724 1.356 . S
C1717 C1716 1.363 . S
C1717 C1723 1.363 . S
C1718 C1719 1.363 . S
C1718 C1723 1.379 . S
C1718 N1725 1.356 . S
C1719 C1718 1.363 . S
C1719 C1722 1.363 . S
N1720 C1722 1.356 . S
N1720 H1732 0.984 . S
N1720 H1733 0.985 . S
N1721 C1723 1.356 . S
N1721 H1726 0.984 . S
N1721 H1727 0.985 . S
C1722 C1716 1.379 . S
C1722 C1719 1.363 . S
C1722 N1720 1.356 . S
C1723 C1717 1.363 . S
C1723 C1718 1.379 . S
C1723 N1721 1.356 . S
N1724 C1716 1.356 . S
N1724 H1730 0.984 . S
N1724 H1731 0.984 . S
N1725 C1718 1.356 . S
N1725 H1728 0.984 . S
N1725 H1729 0.985 . S
H1726 N1721 0.984 . S
H1727 N1721 0.985 . S
H1728 N1725 0.984 . S
H1729 N1725 0.985 . S
H1730 N1724 0.984 . S
H1731 N1724 0.984 . S
H1732 N1720 0.984 . S
H1733 N1720 0.985 . S
C1734 C1735 1.363 . S
C1734 C1740 1.379 . S
C1734 N1742 1.356 . S
C1735 C1734 1.363 . S
C1735 C1741 1.363 . S
C1736 C1737 1.363 . S
C1736 C1741 1.379 . S
C1736 N1743 1.356 . S
C1737 C1736 1.363 . S
C1737 C1740 1.363 . S
N1738 C1740 1.356 . S
N1738 H1750 0.984 . S
N1738 H1751 0.985 . S
N1739 C1741 1.356 1_455 S
N1739 H1744 0.984 . S
N1739 H1745 0.985 . S
C1740 C1734 1.379 . S
C1740 C1737 1.363 . S
C1740 N1738 1.356 . S
C1741 C1735 1.363 . S
C1741 C1736 1.379 . S
C1741 N1739 1.356 1_655 S
N1742 C1734 1.356 . S
N1742 H1748 0.984 . S
N1742 H1749 0.984 . S
N1743 C1736 1.356 . S
N1743 H1746 0.984 . S
N1743 H1747 0.985 . S
H1744 N1739 0.984 . S
H1745 N1739 0.985 . S
H1746 N1743 0.984 . S
H1747 N1743 0.985 . S
H1748 N1742 0.984 . S
H1749 N1742 0.984 . S
H1750 N1738 0.984 . S
H1751 N1738 0.985 . S
C1752 C1753 1.363 . S
C1752 C1758 1.379 . S
C1752 N1760 1.356 . S
C1753 C1752 1.363 . S
C1753 C1759 1.363 . S
C1754 C1755 1.363 . S
C1754 C1759 1.379 . S
C1754 N1761 1.356 . S
C1755 C1754 1.363 . S
C1755 C1758 1.363 . S
N1756 C1758 1.356 . S
N1756 H1768 0.984 . S
N1756 H1769 0.985 . S
N1757 C1759 1.356 . S
N1757 H1762 0.984 . S
N1757 H1763 0.985 . S
C1758 C1752 1.379 . S
C1758 C1755 1.363 . S
C1758 N1756 1.356 . S
C1759 C1753 1.363 . S
C1759 C1754 1.379 . S
C1759 N1757 1.356 . S
N1760 C1752 1.356 . S
N1760 H1766 0.984 . S
N1760 H1767 0.984 . S
N1761 C1754 1.356 . S
N1761 H1764 0.984 . S
N1761 H1765 0.985 . S
H1762 N1757 0.984 . S
H1763 N1757 0.985 . S
H1764 N1761 0.984 . S
H1765 N1761 0.985 . S
H1766 N1760 0.984 . S
H1767 N1760 0.984 . S
H1768 N1756 0.984 . S
H1769 N1756 0.985 . S
C1770 C1771 1.363 . S
C1770 C1776 1.379 . S
C1770 N1778 1.356 . S
C1771 C1770 1.363 . S
C1771 C1777 1.363 . S
C1772 C1773 1.363 . S
C1772 C1777 1.379 . S
C1772 N1779 1.356 . S
C1773 C1772 1.363 . S
C1773 C1776 1.363 . S
N1774 C1776 1.356 . S
N1774 H1786 0.984 . S
N1774 H1787 0.985 . S
N1775 C1777 1.356 . S
N1775 H1780 0.984 . S
N1775 H1781 0.985 . S
C1776 C1770 1.379 . S
C1776 C1773 1.363 . S
C1776 N1774 1.356 . S
C1777 C1771 1.363 . S
C1777 C1772 1.379 . S
C1777 N1775 1.356 . S
N1778 C1770 1.356 . S
N1778 H1784 0.984 . S
N1778 H1785 0.984 . S
N1779 C1772 1.356 . S
N1779 H1782 0.984 . S
N1779 H1783 0.985 . S
H1780 N1775 0.984 . S
H1781 N1775 0.985 . S
H1782 N1779 0.984 . S
H1783 N1779 0.985 . S
H1784 N1778 0.984 . S
H1785 N1778 0.984 . S
H1786 N1774 0.984 . S
H1787 N1774 0.985 . S
C1788 C1789 1.363 . S
C1788 C1794 1.379 . S
C1788 N1796 1.356 . S
C1789 C1788 1.363 . S
C1789 C1795 1.363 . S
C1790 C1791 1.363 . S
C1790 C1795 1.379 . S
C1790 N1797 1.356 . S
C1791 C1790 1.363 . S
C1791 C1794 1.363 . S
N1792 C1794 1.356 . S
N1792 H1804 0.984 . S
N1792 H1805 0.985 . S
N1793 C1795 1.356 . S
N1793 H1798 0.984 . S
N1793 H1799 0.985 . S
C1794 C1788 1.379 . S
C1794 C1791 1.363 . S
C1794 N1792 1.356 . S
C1795 C1789 1.363 . S
C1795 C1790 1.379 . S
C1795 N1793 1.356 . S
N1796 C1788 1.356 . S
N1796 H1802 0.984 . S
N1796 H1803 0.984 . S
N1797 C1790 1.356 . S
N1797 H1800 0.984 . S
N1797 H1801 0.985 . S
H1798 N1793 0.984 . S
H1799 N1793 0.985 . S
H1800 N1797 0.984 . S
H1801 N1797 0.985 . S
H1802 N1796 0.984 . S
H1803 N1796 0.984 . S
H1804 N1792 0.984 . S
H1805 N1792 0.985 . S
C1806 C1807 1.363 . S
C1806 C1812 1.379 . S
C1806 N1814 1.356 . S
C1807 C1806 1.363 . S
C1807 C1813 1.363 . S
C1808 C1809 1.363 . S
C1808 C1813 1.379 . S
C1808 N1815 1.356 . S
C1809 C1808 1.363 . S
C1809 C1812 1.363 . S
N1810 C1812 1.356 . S
N1810 H1822 0.984 . S
N1810 H1823 0.985 . S
N1811 C1813 1.356 . S
N1811 H1816 0.984 . S
N1811 H1817 0.985 . S
C1812 C1806 1.379 . S
C1812 C1809 1.363 . S
C1812 N1810 1.356 . S
C1813 C1807 1.363 . S
C1813 C1808 1.379 . S
C1813 N1811 1.356 . S
N1814 C1806 1.356 . S
N1814 H1820 0.984 . S
N1814 H1821 0.984 . S
N1815 C1808 1.356 . S
N1815 H1818 0.984 . S
N1815 H1819 0.985 . S
H1816 N1811 0.984 . S
H1817 N1811 0.985 . S
H1818 N1815 0.984 . S
H1819 N1815 0.985 . S
H1820 N1814 0.984 . S
H1821 N1814 0.984 . S
H1822 N1810 0.984 . S
H1823 N1810 0.985 . S
C1824 C1825 1.363 . S
C1824 C1830 1.379 . S
C1824 N1832 1.356 . S
C1825 C1824 1.363 . S
C1825 C1831 1.363 . S
C1826 C1827 1.363 . S
C1826 C1831 1.379 . S
C1826 N1833 1.356 . S
C1827 C1826 1.363 . S
C1827 C1830 1.363 . S
N1828 C1830 1.356 . S
N1828 H1840 0.984 . S
N1828 H1841 0.985 . S
N1829 C1831 1.356 . S
N1829 H1834 0.984 . S
N1829 H1835 0.985 . S
C1830 C1824 1.379 . S
C1830 C1827 1.363 . S
C1830 N1828 1.356 . S
C1831 C1825 1.363 . S
C1831 C1826 1.379 . S
C1831 N1829 1.356 . S
N1832 C1824 1.356 . S
N1832 H1838 0.984 . S
N1832 H1839 0.984 . S
N1833 C1826 1.356 . S
N1833 H1836 0.984 . S
N1833 H1837 0.985 . S
H1834 N1829 0.984 . S
H1835 N1829 0.985 . S
H1836 N1833 0.984 . S
H1837 N1833 0.985 . S
H1838 N1832 0.984 . S
H1839 N1832 0.984 . S
H1840 N1828 0.984 . S
H1841 N1828 0.985 . S
C1842 C1843 1.363 . S
C1842 C1848 1.379 . S
C1842 N1850 1.356 . S
C1843 C1842 1.363 . S
C1843 C1849 1.363 . S
C1844 C1845 1.363 . S
C1844 C1849 1.379 . S
C1844 N1851 1.356 . S
C1845 C1844 1.363 . S
C1845 C1848 1.363 . S
N1846 C1848 1.356 . S
N1846 H1858 0.984 . S
N1846 H1859 0.985 . S
N1847 C1849 1.356 . S
N1847 H1852 0.984 . S
N1847 H1853 0.985 . S
C1848 C1842 1.379 . S
C1848 C1845 1.363 . S
C1848 N1846 1.356 . S
C1849 C1843 1.363 . S
C1849 C1844 1.379 . S
C1849 N1847 1.356 . S
N1850 C1842 1.356 . S
N1850 H1856 0.984 . S
N1850 H1857 0.984 . S
N1851 C1844 1.356 . S
N1851 H1854 0.984 . S
N1851 H1855 0.985 . S
H1852 N1847 0.984 . S
H1853 N1847 0.985 . S
H1854 N1851 0.984 . S
H1855 N1851 0.985 . S
H1856 N1850 0.984 . S
H1857 N1850 0.984 . S
H1858 N1846 0.984 . S
H1859 N1846 0.985 . S
C1860 C1861 1.363 . S
C1860 C1866 1.379 . S
C1860 N1868 1.356 . S
C1861 C1860 1.363 . S
C1861 C1867 1.363 . S
C1862 C1863 1.363 . S
C1862 C1867 1.379 . S
C1862 N1869 1.356 . S
C1863 C1862 1.363 . S
C1863 C1866 1.363 . S
N1864 C1866 1.356 . S
N1864 H1876 0.976 1_545 S
N1864 H1877 0.985 . S
N1865 C1867 1.356 . S
N1865 H1870 0.984 . S
N1865 H1871 0.985 . S
C1866 C1860 1.379 . S
C1866 C1863 1.363 . S
C1866 N1864 1.356 . S
C1867 C1861 1.363 . S
C1867 C1862 1.379 . S
C1867 N1865 1.356 . S
N1868 C1860 1.356 . S
N1868 H1874 0.984 . S
N1868 H1875 0.984 . S
N1869 C1862 1.356 . S
N1869 H1872 0.984 . S
N1869 H1873 0.985 . S
H1870 N1865 0.984 . S
H1871 N1865 0.985 . S
H1872 N1869 0.984 . S
H1873 N1869 0.985 . S
H1874 N1868 0.984 . S
H1875 N1868 0.984 . S
H1876 N1864 0.976 1_565 S
H1877 N1864 0.985 . S
C1878 C1879 1.363 . S
C1878 C1884 1.379 . S
C1878 N1886 1.356 . S
C1879 C1878 1.363 . S
C1879 C1885 1.363 . S
C1880 C1881 1.363 . S
C1880 C1885 1.379 . S
C1880 N1887 1.356 . S
C1881 C1880 1.363 . S
C1881 C1884 1.363 . S
N1882 C1884 1.356 . S
N1882 H1894 0.984 . S
N1882 H1895 0.985 . S
N1883 C1885 1.356 . S
N1883 H1888 0.984 . S
N1883 H1889 0.985 . S
C1884 C1878 1.379 . S
C1884 C1881 1.363 . S
C1884 N1882 1.356 . S
C1885 C1879 1.363 . S
C1885 C1880 1.379 . S
C1885 N1883 1.356 . S
N1886 C1878 1.356 . S
N1886 H1892 0.984 . S
N1886 H1893 0.984 . S
N1887 C1880 1.356 . S
N1887 H1890 0.984 . S
N1887 H1891 0.985 . S
H1888 N1883 0.984 . S
H1889 N1883 0.985 . S
H1890 N1887 0.984 . S
H1891 N1887 0.985 . S
H1892 N1886 0.984 . S
H1893 N1886 0.984 . S
H1894 N1882 0.984 . S
H1895 N1882 0.985 . S
C1896 C1897 1.363 . S
C1896 C1902 1.379 . S
C1896 N1904 1.356 . S
C1897 C1896 1.363 . S
C1897 C1903 1.363 . S
C1898 C1899 1.363 . S
C1898 C1903 1.379 . S
C1898 N1905 1.356 . S
C1899 C1898 1.363 . S
C1899 C1902 1.363 . S
N1900 C1902 1.356 . S
N1900 H1912 0.984 . S
N1900 H1913 0.985 . S
N1901 C1903 1.356 . S
N1901 H1906 0.984 . S
N1901 H1907 0.985 . S
C1902 C1896 1.379 . S
C1902 C1899 1.363 . S
C1902 N1900 1.356 . S
C1903 C1897 1.363 . S
C1903 C1898 1.379 . S
C1903 N1901 1.356 . S
N1904 C1896 1.356 . S
N1904 H1910 0.984 . S
N1904 H1911 0.984 . S
N1905 C1898 1.356 . S
N1905 H1908 0.984 . S
N1905 H1909 0.985 . S
H1906 N1901 0.984 . S
H1907 N1901 0.985 . S
H1908 N1905 0.984 . S
H1909 N1905 0.985 . S
H1910 N1904 0.984 . S
H1911 N1904 0.984 . S
H1912 N1900 0.984 . S
H1913 N1900 0.985 . S
C1914 C1915 1.363 . S
C1914 C1920 1.379 . S
C1914 N1922 1.356 . S
C1915 C1914 1.363 . S
C1915 C1921 1.363 . S
C1916 C1917 1.363 . S
C1916 C1921 1.379 . S
C1916 N1923 1.356 . S
C1917 C1916 1.363 . S
C1917 C1920 1.363 . S
N1918 C1920 1.356 . S
N1918 H1930 0.984 . S
N1918 H1931 0.985 . S
N1919 C1921 1.356 . S
N1919 H1924 0.984 . S
N1919 H1925 0.985 . S
C1920 C1914 1.379 . S
C1920 C1917 1.363 . S
C1920 N1918 1.356 . S
C1921 C1915 1.363 . S
C1921 C1916 1.379 . S
C1921 N1919 1.356 . S
N1922 C1914 1.356 . S
N1922 H1928 0.984 . S
N1922 H1929 0.984 . S
N1923 C1916 1.356 . S
N1923 H1926 0.984 . S
N1923 H1927 0.985 . S
H1924 N1919 0.984 . S
H1925 N1919 0.985 . S
H1926 N1923 0.984 . S
H1927 N1923 0.985 . S
H1928 N1922 0.984 . S
H1929 N1922 0.984 . S
H1930 N1918 0.984 . S
H1931 N1918 0.985 . S
C1932 C1933 1.363 . S
C1932 C1938 1.379 . S
C1932 N1940 1.356 . S
C1933 C1932 1.363 . S
C1933 C1939 1.363 . S
C1934 C1935 1.363 . S
C1934 C1939 1.379 . S
C1934 N1941 1.356 . S
C1935 C1934 1.363 . S
C1935 C1938 1.363 . S
N1936 C1938 1.356 . S
N1936 H1948 0.984 . S
N1936 H1949 0.985 . S
N1937 C1939 1.356 1_554 S
N1937 H1942 0.984 . S
N1937 H1943 0.985 . S
C1938 C1932 1.379 . S
C1938 C1935 1.363 . S
C1938 N1936 1.356 . S
C1939 C1933 1.363 . S
C1939 C1934 1.379 . S
C1939 N1937 1.356 1_556 S
N1940 C1932 1.356 . S
N1940 H1946 0.984 . S
N1940 H1947 0.984 . S
N1941 C1934 1.356 . S
N1941 H1944 0.984 . S
N1941 H1945 0.985 1_565 S
H1942 N1937 0.984 . S
H1943 N1937 0.985 . S
H1944 N1941 0.984 . S
H1945 N1941 0.985 1_545 S
H1946 N1940 0.984 . S
H1947 N1940 0.984 . S
H1948 N1936 0.984 . S
H1949 N1936 0.985 . S
C1950 C1951 1.363 . S
C1950 C1956 1.366 1_455 S
C1950 N1958 1.356 . S
C1951 C1950 1.363 . S
C1951 C1957 1.363 1_455 S
C1952 C1953 1.363 . S
C1952 C1957 1.379 . S
C1952 N1959 1.356 . S
C1953 C1952 1.363 . S
C1953 C1956 1.381 . S
N1954 C1956 1.357 . S
N1954 H1966 0.984 1_645 S
N1954 H1967 0.985 . S
N1955 C1957 1.356 . S
N1955 H1960 0.984 1_655 S
N1955 H1961 0.985 . S
C1956 C1950 1.366 1_655 S
C1956 C1953 1.381 . S
C1956 N1954 1.357 . S
C1957 C1951 1.363 1_655 S
C1957 C1952 1.379 . S
C1957 N1955 1.356 . S
N1958 C1950 1.356 . S
N1958 H1964 0.984 . S
N1958 H1965 0.984 . S
N1959 C1952 1.356 . S
N1959 H1962 0.984 . S
N1959 H1963 0.985 . S
H1960 N1955 0.984 1_455 S
H1961 N1955 0.985 . S
H1962 N1959 0.984 . S
H1963 N1959 0.985 . S
H1964 N1958 0.984 . S
H1965 N1958 0.984 . S
H1966 N1954 0.984 1_465 S
H1967 N1954 0.985 . S
C1968 C1969 1.363 . S
C1968 C1974 1.379 . S
C1968 N1976 1.356 . S
C1969 C1968 1.363 . S
C1969 C1975 1.363 . S
C1970 C1971 1.363 . S
C1970 C1975 1.379 . S
C1970 N1977 1.356 . S
C1971 C1970 1.363 . S
C1971 C1974 1.363 . S
N1972 C1974 1.356 . S
N1972 H1984 0.984 . S
N1972 H1985 0.985 . S
N1973 C1975 1.356 . S
N1973 H1978 0.984 . S
N1973 H1979 0.985 . S
C1974 C1968 1.379 . S
C1974 C1971 1.363 . S
C1974 N1972 1.356 . S
C1975 C1969 1.363 . S
C1975 C1970 1.379 . S
C1975 N1973 1.356 . S
N1976 C1968 1.356 . S
N1976 H1982 0.984 . S
N1976 H1983 0.984 . S
N1977 C1970 1.356 . S
N1977 H1980 0.984 . S
N1977 H1981 0.985 . S
H1978 N1973 0.984 . S
H1979 N1973 0.985 . S
H1980 N1977 0.984 . S
H1981 N1977 0.985 . S
H1982 N1976 0.984 . S
H1983 N1976 0.984 . S
H1984 N1972 0.984 . S
H1985 N1972 0.985 . S
C1986 C1987 1.363 . S
C1986 C1992 1.379 . S
C1986 N1994 1.356 . S
C1987 C1986 1.363 . S
C1987 C1993 1.363 . S
C1988 C1989 1.363 . S
C1988 C1993 1.379 . S
C1988 N1995 1.356 . S
C1989 C1988 1.363 . S
C1989 C1992 1.363 . S
N1990 C1992 1.356 . S
N1990 H2002 0.984 . S
N1990 H2003 0.985 . S
N1991 C1993 1.356 . S
N1991 H1996 0.984 . S
N1991 H1997 0.985 . S
C1992 C1986 1.379 . S
C1992 C1989 1.363 . S
C1992 N1990 1.356 . S
C1993 C1987 1.363 . S
C1993 C1988 1.379 . S
C1993 N1991 1.356 . S
N1994 C1986 1.356 . S
N1994 H2000 0.984 . S
N1994 H2001 0.984 . S
N1995 C1988 1.356 . S
N1995 H1998 0.984 . S
N1995 H1999 0.985 . S
H1996 N1991 0.984 . S
H1997 N1991 0.985 . S
H1998 N1995 0.984 . S
H1999 N1995 0.985 . S
H2000 N1994 0.984 . S
H2001 N1994 0.984 . S
H2002 N1990 0.984 . S
H2003 N1990 0.985 . S
C2004 C2005 1.363 . S
C2004 C2010 1.379 . S
C2004 N2012 1.356 . S
C2005 C2004 1.363 . S
C2005 C2011 1.363 . S
C2006 C2007 1.363 . S
C2006 C2011 1.379 . S
C2006 N2013 1.356 . S
C2007 C2006 1.363 . S
C2007 C2010 1.363 . S
N2008 C2010 1.356 . S
N2008 H2020 0.984 . S
N2008 H2021 0.985 . S
N2009 C2011 1.356 . S
N2009 H2014 0.984 . S
N2009 H2015 0.985 . S
C2010 C2004 1.379 . S
C2010 C2007 1.363 . S
C2010 N2008 1.356 . S
C2011 C2005 1.363 . S
C2011 C2006 1.379 . S
C2011 N2009 1.356 . S
N2012 C2004 1.356 . S
N2012 H2018 0.984 . S
N2012 H2019 0.984 . S
N2013 C2006 1.356 . S
N2013 H2016 0.984 . S
N2013 H2017 0.985 . S
H2014 N2009 0.984 . S
H2015 N2009 0.985 . S
H2016 N2013 0.984 . S
H2017 N2013 0.985 . S
H2018 N2012 0.984 . S
H2019 N2012 0.984 . S
H2020 N2008 0.984 . S
H2021 N2008 0.985 . S
C2022 C2023 1.363 . S
C2022 C2028 1.379 . S
C2022 N2030 1.356 . S
C2023 C2022 1.363 . S
C2023 C2029 1.363 . S
C2024 C2025 1.363 . S
C2024 C2029 1.379 . S
C2024 N2031 1.356 . S
C2025 C2024 1.363 . S
C2025 C2028 1.363 . S
N2026 C2028 1.356 . S
N2026 H2038 0.984 . S
N2026 H2039 0.985 . S
N2027 C2029 1.356 . S
N2027 H2032 0.984 . S
N2027 H2033 0.985 . S
C2028 C2022 1.379 . S
C2028 C2025 1.363 . S
C2028 N2026 1.356 . S
C2029 C2023 1.363 . S
C2029 C2024 1.379 . S
C2029 N2027 1.356 . S
N2030 C2022 1.356 . S
N2030 H2036 0.984 . S
N2030 H2037 0.984 . S
N2031 C2024 1.356 . S
N2031 H2034 0.984 . S
N2031 H2035 0.985 . S
H2032 N2027 0.984 . S
H2033 N2027 0.985 . S
H2034 N2031 0.984 . S
H2035 N2031 0.985 . S
H2036 N2030 0.984 . S
H2037 N2030 0.984 . S
H2038 N2026 0.984 . S
H2039 N2026 0.985 . S
C2040 C2041 1.363 . S
C2040 C2046 1.379 . S
C2040 N2048 1.356 . S
C2041 C2040 1.363 . S
C2041 C2047 1.363 . S
C2042 C2043 1.363 . S
C2042 C2047 1.379 . S
C2042 N2049 1.356 . S
C2043 C2042 1.363 . S
C2043 C2046 1.363 . S
N2044 C2046 1.356 . S
N2044 H2056 0.984 . S
N2044 H2057 0.985 . S
N2045 C2047 1.356 . S
N2045 H2050 0.984 . S
N2045 H2051 0.985 . S
C2046 C2040 1.379 . S
C2046 C2043 1.363 . S
C2046 N2044 1.356 . S
C2047 C2041 1.363 . S
C2047 C2042 1.379 . S
C2047 N2045 1.356 . S
N2048 C2040 1.356 . S
N2048 H2054 0.984 . S
N2048 H2055 0.984 . S
N2049 C2042 1.356 . S
N2049 H2052 0.984 . S
N2049 H2053 0.985 . S
H2050 N2045 0.984 . S
H2051 N2045 0.985 . S
H2052 N2049 0.984 . S
H2053 N2049 0.985 . S
H2054 N2048 0.984 . S
H2055 N2048 0.984 . S
H2056 N2044 0.984 . S
H2057 N2044 0.985 . S
C2058 C2059 1.363 . S
C2058 C2064 1.379 . S
C2058 N2066 1.356 . S
C2059 C2058 1.363 . S
C2059 C2065 1.363 . S
C2060 C2061 1.363 . S
C2060 C2065 1.379 . S
C2060 N2067 1.356 . S
C2061 C2060 1.363 . S
C2061 C2064 1.363 . S
N2062 C2064 1.356 . S
N2062 H2074 0.984 . S
N2062 H2075 0.985 . S
N2063 C2065 1.356 . S
N2063 H2068 0.984 . S
N2063 H2069 0.985 . S
C2064 C2058 1.379 . S
C2064 C2061 1.363 . S
C2064 N2062 1.356 . S
C2065 C2059 1.363 . S
C2065 C2060 1.379 . S
C2065 N2063 1.356 . S
N2066 C2058 1.356 . S
N2066 H2072 0.984 . S
N2066 H2073 0.984 . S
N2067 C2060 1.356 . S
N2067 H2070 0.984 . S
N2067 H2071 0.985 . S
H2068 N2063 0.984 . S
H2069 N2063 0.985 . S
H2070 N2067 0.984 . S
H2071 N2067 0.985 . S
H2072 N2066 0.984 . S
H2073 N2066 0.984 . S
H2074 N2062 0.984 . S
H2075 N2062 0.985 . S
C2076 C2077 1.363 . S
C2076 C2082 1.379 . S
C2076 N2084 1.356 . S
C2077 C2076 1.363 . S
C2077 C2083 1.363 . S
C2078 C2079 1.363 . S
C2078 C2083 1.379 . S
C2078 N2085 1.356 . S
C2079 C2078 1.363 . S
C2079 C2082 1.363 . S
N2080 C2082 1.356 . S
N2080 H2092 0.984 . S
N2080 H2093 0.985 . S
N2081 C2083 1.356 . S
N2081 H2086 0.984 . S
N2081 H2087 0.985 . S
C2082 C2076 1.379 . S
C2082 C2079 1.363 . S
C2082 N2080 1.356 . S
C2083 C2077 1.363 . S
C2083 C2078 1.379 . S
C2083 N2081 1.356 . S
N2084 C2076 1.356 . S
N2084 H2090 0.984 . S
N2084 H2091 0.984 . S
N2085 C2078 1.356 . S
N2085 H2088 0.984 . S
N2085 H2089 0.985 . S
H2086 N2081 0.984 . S
H2087 N2081 0.985 . S
H2088 N2085 0.984 . S
H2089 N2085 0.985 . S
H2090 N2084 0.984 . S
H2091 N2084 0.984 . S
H2092 N2080 0.984 . S
H2093 N2080 0.985 . S
C2094 C2095 1.363 . S
C2094 C2100 1.379 . S
C2094 N2102 1.356 . S
C2095 C2094 1.363 . S
C2095 C2101 1.363 . S
C2096 C2097 1.363 . S
C2096 C2101 1.379 . S
C2096 N2103 1.356 . S
C2097 C2096 1.363 . S
C2097 C2100 1.363 . S
N2098 C2100 1.356 . S
N2098 H2110 0.984 . S
N2098 H2111 0.985 . S
N2099 C2101 1.356 . S
N2099 H2104 0.984 . S
N2099 H2105 0.985 . S
C2100 C2094 1.379 . S
C2100 C2097 1.363 . S
C2100 N2098 1.356 . S
C2101 C2095 1.363 . S
C2101 C2096 1.379 . S
C2101 N2099 1.356 . S
N2102 C2094 1.356 . S
N2102 H2108 0.984 . S
N2102 H2109 0.984 . S
N2103 C2096 1.356 . S
N2103 H2106 0.984 . S
N2103 H2107 0.985 . S
H2104 N2099 0.984 . S
H2105 N2099 0.985 . S
H2106 N2103 0.984 . S
H2107 N2103 0.985 . S
H2108 N2102 0.984 . S
H2109 N2102 0.984 . S
H2110 N2098 0.984 . S
H2111 N2098 0.985 . S
C2112 C2113 1.363 . S
C2112 C2118 1.379 . S
C2112 N2120 1.356 . S
C2113 C2112 1.363 . S
C2113 C2119 1.363 . S
C2114 C2115 1.363 . S
C2114 C2119 1.379 . S
C2114 N2121 1.356 . S
C2115 C2114 1.363 . S
C2115 C2118 1.363 . S
N2116 C2118 1.356 . S
N2116 H2128 0.984 . S
N2116 H2129 0.985 . S
N2117 C2119 1.356 . S
N2117 H2122 0.984 . S
N2117 H2123 0.985 . S
C2118 C2112 1.379 . S
C2118 C2115 1.363 . S
C2118 N2116 1.356 . S
C2119 C2113 1.363 . S
C2119 C2114 1.379 . S
C2119 N2117 1.356 . S
N2120 C2112 1.356 . S
N2120 H2126 0.984 . S
N2120 H2127 0.984 . S
N2121 C2114 1.356 . S
N2121 H2124 0.984 . S
N2121 H2125 0.985 . S
H2122 N2117 0.984 . S
H2123 N2117 0.985 . S
H2124 N2121 0.984 . S
H2125 N2121 0.985 . S
H2126 N2120 0.984 . S
H2127 N2120 0.984 . S
H2128 N2116 0.984 . S
H2129 N2116 0.985 . S
C2130 C2131 1.363 . S
C2130 C2136 1.379 . S
C2130 N2138 1.356 . S
C2131 C2130 1.363 . S
C2131 C2137 1.363 . S
C2132 C2133 1.363 . S
C2132 C2137 1.379 . S
C2132 N2139 1.356 . S
C2133 C2132 1.363 . S
C2133 C2136 1.363 . S
N2134 C2136 1.356 . S
N2134 H2146 0.984 . S
N2134 H2147 0.985 . S
N2135 C2137 1.356 . S
N2135 H2140 0.984 . S
N2135 H2141 0.985 . S
C2136 C2130 1.379 . S
C2136 C2133 1.363 . S
C2136 N2134 1.356 . S
C2137 C2131 1.363 . S
C2137 C2132 1.379 . S
C2137 N2135 1.356 . S
N2138 C2130 1.356 . S
N2138 H2144 0.984 . S
N2138 H2145 0.984 . S
N2139 C2132 1.356 . S
N2139 H2142 0.984 . S
N2139 H2143 0.985 . S
H2140 N2135 0.984 . S
H2141 N2135 0.985 . S
H2142 N2139 0.984 . S
H2143 N2139 0.985 . S
H2144 N2138 0.984 . S
H2145 N2138 0.984 . S
H2146 N2134 0.984 . S
H2147 N2134 0.985 . S
C2148 C2149 1.363 . S
C2148 C2154 1.379 . S
C2148 N2156 1.356 . S
C2149 C2148 1.363 . S
C2149 C2155 1.363 . S
C2150 C2151 1.363 . S
C2150 C2155 1.379 . S
C2150 N2157 1.356 . S
C2151 C2150 1.363 . S
C2151 C2154 1.363 . S
N2152 C2154 1.356 . S
N2152 H2164 0.984 . S
N2152 H2165 0.985 . S
N2153 C2155 1.356 . S
N2153 H2158 0.984 . S
N2153 H2159 0.985 . S
C2154 C2148 1.379 . S
C2154 C2151 1.363 . S
C2154 N2152 1.356 . S
C2155 C2149 1.363 . S
C2155 C2150 1.379 . S
C2155 N2153 1.356 . S
N2156 C2148 1.356 . S
N2156 H2162 0.984 . S
N2156 H2163 0.984 . S
N2157 C2150 1.356 . S
N2157 H2160 0.984 . S
N2157 H2161 0.985 . S
H2158 N2153 0.984 . S
H2159 N2153 0.985 . S
H2160 N2157 0.984 . S
H2161 N2157 0.985 . S
H2162 N2156 0.984 . S
H2163 N2156 0.984 . S
H2164 N2152 0.984 . S
H2165 N2152 0.985 . S
C2166 C2167 1.363 . S
C2166 C2172 1.379 . S
C2166 N2174 1.356 . S
C2167 C2166 1.363 . S
C2167 C2173 1.363 . S
C2168 C2169 1.363 . S
C2168 C2173 1.379 . S
C2168 N2175 1.356 . S
C2169 C2168 1.363 . S
C2169 C2172 1.363 . S
N2170 C2172 1.356 . S
N2170 H2182 0.984 . S
N2170 H2183 0.985 . S
N2171 C2173 1.356 . S
N2171 H2176 0.984 . S
N2171 H2177 0.985 . S
C2172 C2166 1.379 . S
C2172 C2169 1.363 . S
C2172 N2170 1.356 . S
C2173 C2167 1.363 . S
C2173 C2168 1.379 . S
C2173 N2171 1.356 . S
N2174 C2166 1.356 . S
N2174 H2180 0.984 . S
N2174 H2181 0.984 . S
N2175 C2168 1.356 . S
N2175 H2178 0.984 . S
N2175 H2179 0.985 . S
H2176 N2171 0.984 . S
H2177 N2171 0.985 . S
H2178 N2175 0.984 . S
H2179 N2175 0.985 . S
H2180 N2174 0.984 . S
H2181 N2174 0.984 . S
H2182 N2170 0.984 . S
H2183 N2170 0.985 . S
C2184 C2185 1.363 . S
C2184 C2190 1.379 . S
C2184 N2192 1.356 . S
C2185 C2184 1.363 . S
C2185 C2191 1.363 . S
C2186 C2187 1.363 . S
C2186 C2191 1.379 . S
C2186 N2193 1.356 . S
C2187 C2186 1.363 . S
C2187 C2190 1.363 . S
N2188 C2190 1.356 . S
N2188 H2200 0.984 . S
N2188 H2201 0.985 . S
N2189 C2191 1.356 . S
N2189 H2194 0.984 . S
N2189 H2195 0.985 . S
C2190 C2184 1.379 . S
C2190 C2187 1.363 . S
C2190 N2188 1.356 . S
C2191 C2185 1.363 . S
C2191 C2186 1.379 . S
C2191 N2189 1.356 . S
N2192 C2184 1.356 . S
N2192 H2198 0.984 . S
N2192 H2199 0.984 . S
N2193 C2186 1.356 . S
N2193 H2196 0.984 . S
N2193 H2197 0.985 . S
H2194 N2189 0.984 . S
H2195 N2189 0.985 . S
H2196 N2193 0.984 . S
H2197 N2193 0.985 . S
H2198 N2192 0.984 . S
H2199 N2192 0.984 . S
H2200 N2188 0.984 . S
H2201 N2188 0.985 . S
C2202 C2203 1.363 . S
C2202 C2208 1.379 . S
C2202 N2210 1.356 . S
C2203 C2202 1.363 . S
C2203 C2209 1.363 . S
C2204 C2205 1.363 . S
C2204 C2209 1.379 . S
C2204 N2211 1.356 . S
C2205 C2204 1.363 . S
C2205 C2208 1.363 . S
N2206 C2208 1.356 . S
N2206 H2218 0.984 . S
N2206 H2219 0.985 . S
N2207 C2209 1.356 . S
N2207 H2212 0.984 . S
N2207 H2213 0.985 . S
C2208 C2202 1.379 . S
C2208 C2205 1.363 . S
C2208 N2206 1.356 . S
C2209 C2203 1.363 . S
C2209 C2204 1.379 . S
C2209 N2207 1.356 . S
N2210 C2202 1.356 . S
N2210 H2216 0.984 . S
N2210 H2217 0.984 . S
N2211 C2204 1.356 . S
N2211 H2214 0.984 . S
N2211 H2215 0.985 . S
H2212 N2207 0.984 . S
H2213 N2207 0.985 . S
H2214 N2211 0.984 . S
H2215 N2211 0.985 . S
H2216 N2210 0.984 . S
H2217 N2210 0.984 . S
H2218 N2206 0.984 . S
H2219 N2206 0.985 . S
C2220 C2221 1.363 . S
C2220 C2226 1.379 . S
C2220 N2228 1.356 . S
C2221 C2220 1.363 . S
C2221 C2227 1.363 . S
C2222 C2223 1.363 . S
C2222 C2227 1.379 . S
C2222 N2229 1.356 . S
C2223 C2222 1.363 . S
C2223 C2226 1.363 . S
N2224 C2226 1.356 . S
N2224 H2236 0.984 . S
N2224 H2237 0.985 . S
N2225 C2227 1.356 . S
N2225 H2230 0.984 . S
N2225 H2231 0.985 . S
C2226 C2220 1.379 . S
C2226 C2223 1.363 . S
C2226 N2224 1.356 . S
C2227 C2221 1.363 . S
C2227 C2222 1.379 . S
C2227 N2225 1.356 . S
N2228 C2220 1.356 . S
N2228 H2234 0.984 . S
N2228 H2235 0.984 . S
N2229 C2222 1.356 . S
N2229 H2232 0.984 . S
N2229 H2233 0.985 . S
H2230 N2225 0.984 . S
H2231 N2225 0.985 . S
H2232 N2229 0.984 . S
H2233 N2229 0.985 . S
H2234 N2228 0.984 . S
H2235 N2228 0.984 . S
H2236 N2224 0.984 . S
H2237 N2224 0.985 . S
C2238 C2239 1.363 . S
C2238 C2244 1.379 . S
C2238 N2246 1.356 . S
C2239 C2238 1.363 . S
C2239 C2245 1.363 . S
C2240 C2241 1.363 . S
C2240 C2245 1.379 . S
C2240 N2247 1.356 . S
C2241 C2240 1.363 . S
C2241 C2244 1.363 . S
N2242 C2244 1.356 . S
N2242 H2254 0.984 . S
N2242 H2255 0.985 . S
N2243 C2245 1.356 . S
N2243 H2248 0.984 . S
N2243 H2249 0.985 . S
C2244 C2238 1.379 . S
C2244 C2241 1.363 . S
C2244 N2242 1.356 . S
C2245 C2239 1.363 . S
C2245 C2240 1.379 . S
C2245 N2243 1.356 . S
N2246 C2238 1.356 . S
N2246 H2252 0.984 . S
N2246 H2253 0.984 . S
N2247 C2240 1.356 . S
N2247 H2250 0.984 . S
N2247 H2251 0.985 . S
H2248 N2243 0.984 . S
H2249 N2243 0.985 . S
H2250 N2247 0.984 . S
H2251 N2247 0.985 . S
H2252 N2246 0.984 . S
H2253 N2246 0.984 . S
H2254 N2242 0.984 . S
H2255 N2242 0.985 . S
C2256 C2257 1.363 . S
C2256 C2262 1.379 . S
C2256 N2264 1.356 . S
C2257 C2256 1.363 . S
C2257 C2263 1.363 . S
C2258 C2259 1.363 . S
C2258 C2263 1.379 . S
C2258 N2265 1.356 . S
C2259 C2258 1.363 . S
C2259 C2262 1.363 . S
N2260 C2262 1.356 . S
N2260 H2272 0.984 . S
N2260 H2273 0.985 . S
N2261 C2263 1.356 . S
N2261 H2266 0.984 . S
N2261 H2267 0.985 . S
C2262 C2256 1.379 . S
C2262 C2259 1.363 . S
C2262 N2260 1.356 . S
C2263 C2257 1.363 . S
C2263 C2258 1.379 . S
C2263 N2261 1.356 . S
N2264 C2256 1.356 . S
N2264 H2270 0.984 . S
N2264 H2271 0.984 . S
N2265 C2258 1.356 . S
N2265 H2268 0.984 . S
N2265 H2269 0.985 . S
H2266 N2261 0.984 . S
H2267 N2261 0.985 . S
H2268 N2265 0.984 . S
H2269 N2265 0.985 . S
H2270 N2264 0.984 . S
H2271 N2264 0.984 . S
H2272 N2260 0.984 . S
H2273 N2260 0.985 . S
C2274 C2275 1.363 . S
C2274 C2280 1.379 . S
C2274 N2282 1.356 . S
C2275 C2274 1.363 . S
C2275 C2281 1.363 . S
C2276 C2277 1.363 . S
C2276 C2281 1.379 . S
C2276 N2283 1.356 . S
C2277 C2276 1.363 . S
C2277 C2280 1.363 . S
N2278 C2280 1.356 . S
N2278 H2290 0.984 . S
N2278 H2291 0.985 . S
N2279 C2281 1.356 . S
N2279 H2284 0.984 . S
N2279 H2285 0.985 . S
C2280 C2274 1.379 . S
C2280 C2277 1.363 . S
C2280 N2278 1.356 . S
C2281 C2275 1.363 . S
C2281 C2276 1.379 . S
C2281 N2279 1.356 . S
N2282 C2274 1.356 . S
N2282 H2288 0.984 . S
N2282 H2289 0.984 . S
N2283 C2276 1.356 . S
N2283 H2286 0.984 . S
N2283 H2287 0.985 . S
H2284 N2279 0.984 . S
H2285 N2279 0.985 . S
H2286 N2283 0.984 . S
H2287 N2283 0.985 . S
H2288 N2282 0.984 . S
H2289 N2282 0.984 . S
H2290 N2278 0.984 . S
H2291 N2278 0.985 . S
C2292 C2293 1.363 . S
C2292 C2298 1.379 . S
C2292 N2300 1.356 . S
C2293 C2292 1.363 . S
C2293 C2299 1.363 . S
C2294 C2295 1.363 . S
C2294 C2299 1.379 . S
C2294 N2301 1.356 . S
C2295 C2294 1.363 . S
C2295 C2298 1.363 . S
N2296 C2298 1.356 . S
N2296 H2308 0.984 . S
N2296 H2309 0.985 . S
N2297 C2299 1.356 . S
N2297 H2302 0.984 . S
N2297 H2303 0.985 . S
C2298 C2292 1.379 . S
C2298 C2295 1.363 . S
C2298 N2296 1.356 . S
C2299 C2293 1.363 . S
C2299 C2294 1.379 . S
C2299 N2297 1.356 . S
N2300 C2292 1.356 . S
N2300 H2306 0.984 . S
N2300 H2307 0.984 . S
N2301 C2294 1.356 . S
N2301 H2304 0.984 . S
N2301 H2305 0.985 . S
H2302 N2297 0.984 . S
H2303 N2297 0.985 . S
H2304 N2301 0.984 . S
H2305 N2301 0.985 . S
H2306 N2300 0.984 . S
H2307 N2300 0.984 . S
H2308 N2296 0.984 . S
H2309 N2296 0.985 . S
C2310 C2311 1.363 . S
C2310 C2316 1.379 . S
C2310 N2318 1.356 . S
C2311 C2310 1.363 . S
C2311 C2317 1.363 . S
C2312 C2313 1.363 . S
C2312 C2317 1.379 . S
C2312 N2319 1.356 . S
C2313 C2312 1.363 . S
C2313 C2316 1.363 . S
N2314 C2316 1.356 . S
N2314 H2326 0.984 . S
N2314 H2327 0.985 . S
N2315 C2317 1.356 . S
N2315 H2320 0.984 . S
N2315 H2321 0.985 . S
C2316 C2310 1.379 . S
C2316 C2313 1.363 . S
C2316 N2314 1.356 . S
C2317 C2311 1.363 . S
C2317 C2312 1.379 . S
C2317 N2315 1.356 . S
N2318 C2310 1.356 . S
N2318 H2324 0.984 . S
N2318 H2325 0.984 . S
N2319 C2312 1.356 . S
N2319 H2322 0.984 . S
N2319 H2323 0.985 . S
H2320 N2315 0.984 . S
H2321 N2315 0.985 . S
H2322 N2319 0.984 . S
H2323 N2319 0.985 . S
H2324 N2318 0.984 . S
H2325 N2318 0.984 . S
H2326 N2314 0.984 . S
H2327 N2314 0.985 . S
C2328 C2329 1.363 . S
C2328 C2334 1.379 . S
C2328 N2336 1.356 . S
C2329 C2328 1.363 . S
C2329 C2335 1.363 . S
C2330 C2331 1.363 . S
C2330 C2335 1.379 . S
C2330 N2337 1.356 . S
C2331 C2330 1.363 . S
C2331 C2334 1.363 . S
N2332 C2334 1.356 . S
N2332 H2344 0.984 . S
N2332 H2345 0.985 . S
N2333 C2335 1.356 . S
N2333 H2338 0.984 . S
N2333 H2339 0.985 . S
C2334 C2328 1.379 . S
C2334 C2331 1.363 . S
C2334 N2332 1.356 . S
C2335 C2329 1.363 . S
C2335 C2330 1.379 . S
C2335 N2333 1.356 . S
N2336 C2328 1.356 . S
N2336 H2342 0.984 . S
N2336 H2343 0.984 . S
N2337 C2330 1.356 . S
N2337 H2340 0.984 . S
N2337 H2341 0.985 . S
H2338 N2333 0.984 . S
H2339 N2333 0.985 . S
H2340 N2337 0.984 . S
H2341 N2337 0.985 . S
H2342 N2336 0.984 . S
H2343 N2336 0.984 . S
H2344 N2332 0.984 . S
H2345 N2332 0.985 . S
C2346 C2347 1.363 . S
C2346 C2352 1.379 . S
C2346 N2354 1.356 . S
C2347 C2346 1.363 . S
C2347 C2353 1.363 . S
C2348 C2349 1.363 . S
C2348 C2353 1.379 . S
C2348 N2355 1.356 . S
C2349 C2348 1.363 . S
C2349 C2352 1.363 . S
N2350 C2352 1.356 . S
N2350 H2362 0.984 . S
N2350 H2363 0.985 . S
N2351 C2353 1.356 . S
N2351 H2356 0.984 . S
N2351 H2357 0.985 . S
C2352 C2346 1.379 . S
C2352 C2349 1.363 . S
C2352 N2350 1.356 . S
C2353 C2347 1.363 . S
C2353 C2348 1.379 . S
C2353 N2351 1.356 . S
N2354 C2346 1.356 . S
N2354 H2360 0.984 . S
N2354 H2361 0.984 . S
N2355 C2348 1.356 . S
N2355 H2358 0.984 . S
N2355 H2359 0.985 . S
H2356 N2351 0.984 . S
H2357 N2351 0.985 . S
H2358 N2355 0.984 . S
H2359 N2355 0.985 . S
H2360 N2354 0.984 . S
H2361 N2354 0.984 . S
H2362 N2350 0.984 . S
H2363 N2350 0.985 . S
C2364 C2365 1.363 . S
C2364 C2370 1.379 . S
C2364 N2372 1.356 . S
C2365 C2364 1.363 . S
C2365 C2371 1.363 . S
C2366 C2367 1.363 . S
C2366 C2371 1.379 . S
C2366 N2373 1.356 . S
C2367 C2366 1.363 . S
C2367 C2370 1.363 . S
N2368 C2370 1.356 . S
N2368 H2380 0.984 . S
N2368 H2381 0.985 . S
N2369 C2371 1.356 . S
N2369 H2374 0.984 . S
N2369 H2375 0.985 . S
C2370 C2364 1.379 . S
C2370 C2367 1.363 . S
C2370 N2368 1.356 . S
C2371 C2365 1.363 . S
C2371 C2366 1.379 . S
C2371 N2369 1.356 . S
N2372 C2364 1.356 . S
N2372 H2378 0.984 . S
N2372 H2379 0.984 . S
N2373 C2366 1.356 . S
N2373 H2376 0.984 . S
N2373 H2377 0.985 . S
H2374 N2369 0.984 . S
H2375 N2369 0.985 . S
H2376 N2373 0.984 . S
H2377 N2373 0.985 . S
H2378 N2372 0.984 . S
H2379 N2372 0.984 . S
H2380 N2368 0.984 . S
H2381 N2368 0.985 . S
C2382 C2383 1.363 . S
C2382 C2388 1.379 . S
C2382 N2390 1.356 . S
C2383 C2382 1.363 . S
C2383 C2389 1.363 . S
C2384 C2385 1.363 . S
C2384 C2389 1.379 . S
C2384 N2391 1.356 . S
C2385 C2384 1.363 . S
C2385 C2388 1.363 . S
N2386 C2388 1.356 . S
N2386 H2398 0.984 . S
N2386 H2399 0.985 . S
N2387 C2389 1.356 . S
N2387 H2392 0.984 . S
N2387 H2393 0.985 . S
C2388 C2382 1.379 . S
C2388 C2385 1.363 . S
C2388 N2386 1.356 . S
C2389 C2383 1.363 . S
C2389 C2384 1.379 . S
C2389 N2387 1.356 . S
N2390 C2382 1.356 . S
N2390 H2396 0.984 . S
N2390 H2397 0.984 . S
N2391 C2384 1.356 . S
N2391 H2394 0.984 . S
N2391 H2395 0.985 . S
H2392 N2387 0.984 . S
H2393 N2387 0.985 . S
H2394 N2391 0.984 . S
H2395 N2391 0.985 . S
H2396 N2390 0.984 . S
H2397 N2390 0.984 . S
H2398 N2386 0.984 . S
H2399 N2386 0.985 . S
C673 C134 1.722 . S
C675 C8 1.722 . S
C691 C148 1.722 . S
C693 C22 1.722 . S
C709 C162 1.722 . S
C711 C36 1.722 . S
C727 C120 1.722 . S
C729 C50 1.722 . S
C745 C64 1.722 . S
C747 C218 1.722 . S
C763 C78 1.722 . S
C765 C176 1.722 . S
C781 C92 1.722 . S
C783 C190 1.722 . S
C799 C204 1.722 . S
C801 C106 1.722 . S
C817 C232 1.722 . S
C819 C260 1.722 . S
C835 C246 1.722 . S
C837 C652 1.722 . S
C853 C274 1.722 . S
C855 C666 1.722 . S
C871 C288 1.722 . S
C873 C638 1.722 . S
C889 C302 1.722 . S
C891 C624 1.722 . S
C907 C582 1.722 . S
C909 C316 1.722 . S
C925 C330 1.722 . S
C927 C610 1.722 . S
C943 C470 1.722 . S
C945 C344 1.722 . S
C961 C484 1.722 . S
C963 C358 1.722 . S
C979 C498 1.722 . S
C981 C372 1.722 . S
C997 C456 1.722 . S
C999 C386 1.722 . S
C1015 C554 1.722 . S
C1017 C400 1.722 . S
C1033 C512 1.722 . S
C1035 C414 1.722 . S
C1051 C428 1.722 . S
C1053 C526 1.722 . S
C1069 C442 1.722 . S
C1071 C540 1.722 . S
C1087 C568 1.722 . S
C1089 C596 1.722 . S
C1105 C227 1.290 . S
C1107 C9 1.161 . S
C1123 C661 1.290 . S
C1125 C23 1.161 . S
C1141 C37 1.161 . S
C1143 C297 1.290 . S
C1159 C647 1.290 . S
C1161 C51 1.161 . S
C1177 C65 1.161 . S
C1179 C577 1.290 . S
C1195 C591 1.290 . S
C1197 C79 1.161 . S
C1213 C93 1.161 . S
C1215 C605 1.290 . S
C1231 C283 1.290 . S
C1233 C107 1.161 . S
C1249 C121 1.161 . S
C1251 C3 1.290 . S
C1267 C17 1.290 . S
C1269 C135 1.161 . S
C1285 C149 1.161 . S
C1287 C31 1.290 . S
C1303 C45 1.290 . S
C1305 C163 1.161 . S
C1321 C177 1.161 . S
C1323 C59 1.290 . S
C1339 C73 1.290 . S
C1341 C191 1.161 . S
C1357 C205 1.161 . S
C1359 C87 1.290 . S
C1375 C219 1.161 . S
C1377 C101 1.290 . S
C1393 C233 1.161 . S
C1395 C115 1.290 . S
C1411 C247 1.161 . S
C1413 C507 1.290 . S
C1429 C521 1.290 . S
C1431 C261 1.161 . S
C1447 C535 1.290 . S
C1449 C275 1.161 . S
C1465 C213 1.290 . S
C1467 C289 1.161 . S
C1483 C303 1.161 . S
C1485 C143 1.290 . S
C1501 C493 1.290 . S
C1503 C317 1.161 . S
C1519 C331 1.161 . S
C1521 C465 1.290 . S
C1537 C345 1.161 . S
C1539 C563 1.290 . S
C1555 C359 1.161 . S
C1557 C325 1.290 . S
C1573 C373 1.161 . S
C1575 C633 1.290 . S
C1591 C387 1.161 . S
C1593 C311 1.290 . S
C1609 C401 1.161 . S
C1611 C241 1.290 . S
C1627 C415 1.161 . S
C1629 C255 1.290 . S
C1645 C269 1.290 . S
C1647 C429 1.161 . S
C1663 C619 1.290 . S
C1665 C443 1.161 . S
C1681 C339 1.290 . S
C1683 C457 1.161 . S
C1699 C353 1.290 . S
C1701 C471 1.161 . S
C1717 C485 1.161 . S
C1719 C367 1.290 . S
C1735 C381 1.290 . S
C1737 C499 1.161 . S
C1753 C513 1.161 . S
C1755 C395 1.290 . S
C1771 C527 1.161 . S
C1773 C409 1.290 . S
C1789 C541 1.161 . S
C1791 C423 1.290 . S
C1807 C437 1.290 . S
C1809 C555 1.161 . S
C1825 C569 1.161 . S
C1827 C451 1.290 . S
C1843 C583 1.161 . S
C1845 C171 1.290 . S
C1861 C185 1.290 . S
C1863 C597 1.161 . S
C1879 C611 1.161 . S
C1881 C199 1.290 . S
C1897 C625 1.161 . S
C1899 C549 1.290 . S
C1915 C479 1.290 . S
C1917 C639 1.161 . S
C1933 C157 1.290 . S
C1935 C653 1.161 . S
C1951 C129 1.290 . S
C1953 C667 1.161 . S
C1969 C315 1.341 . S
C1971 C7 1.341 . S
C1987 C21 1.341 . S
C1989 C567 1.341 . S
C2005 C35 1.341 . S
C2007 C329 1.341 . S
C2023 C637 1.341 . S
C2025 C49 1.341 . S
C2041 C63 1.341 . S
C2043 C259 1.341 . S
C2059 C273 1.341 . S
C2061 C77 1.341 . S
C2077 C623 1.341 . S
C2079 C91 1.341 . S
C2095 C105 1.341 . S
C2097 C245 1.341 . S
C2113 C189 1.341 . S
C2115 C119 1.341 . S
C2131 C133 1.341 . S
C2133 C203 1.341 . S
C2149 C217 1.341 . S
C2151 C147 1.341 . S
C2167 C161 1.341 . S
C2169 C175 1.341 . S
C2185 C357 1.341 . S
C2187 C231 1.341 . S
C2203 C287 1.341 . S
C2205 C427 1.341 . S
C2221 C301 1.341 . S
C2223 C385 1.341 . S
C2239 C651 1.341 . S
C2241 C343 1.341 . S
C2257 C371 1.341 . S
C2259 C665 1.341 . S
C2275 C399 1.341 . S
C2277 C595 1.341 . S
C2293 C413 1.341 . S
C2295 C609 1.341 . S
C2311 C581 1.341 . S
C2313 C441 1.341 . S
C2329 C525 1.341 . S
C2331 C455 1.341 . S
C2347 C469 1.341 . S
C2349 C539 1.341 . S
C2365 C483 1.341 . S
C2367 C553 1.341 . S
C2383 C511 1.341 . S
C2385 C497 1.341 . S
