# Generated by pormake.
# Topology smd, (6)-cn, num edge types: 1
# Building blocks:
#     Node 0, Type 0, BuildingBlock: VOLQOD_clean_sbu_1, # of connection points: 6
#     Node 1, Type 0, BuildingBlock: VOLQOD_clean_sbu_1, # of connection points: 6
#     Node 2, Type 0, BuildingBlock: VOLQOD_clean_sbu_1, # of connection points: 6
#     Node 3, Type 0, BuildingBlock: VOLQOD_clean_sbu_1, # of connection points: 6
#     Node 4, Type 0, BuildingBlock: VOLQOD_clean_sbu_1, # of connection points: 6
#     Node 5, Type 0, BuildingBlock: VOLQOD_clean_sbu_1, # of connection points: 6
#     Node 6, Type 0, BuildingBlock: VOLQOD_clean_sbu_1, # of connection points: 6
#     Node 7, Type 0, BuildingBlock: VOLQOD_clean_sbu_1, # of connection points: 6
#     Node 8, Type 0, BuildingBlock: VOLQOD_clean_sbu_1, # of connection points: 6
#     Node 9, Type 0, BuildingBlock: VOLQOD_clean_sbu_1, # of connection points: 6
#     Node 10, Type 0, BuildingBlock: VOLQOD_clean_sbu_1, # of connection points: 6
#     Node 11, Type 0, BuildingBlock: VOLQOD_clean_sbu_1, # of connection points: 6
#     Node 12, Type 0, BuildingBlock: VOLQOD_clean_sbu_1, # of connection points: 6
#     Node 13, Type 0, BuildingBlock: VOLQOD_clean_sbu_1, # of connection points: 6
#     Node 14, Type 0, BuildingBlock: VOLQOD_clean_sbu_1, # of connection points: 6
#     Node 15, Type 0, BuildingBlock: VOLQOD_clean_sbu_1, # of connection points: 6
#     Node 16, Type 0, BuildingBlock: VOLQOD_clean_sbu_1, # of connection points: 6
#     Node 17, Type 0, BuildingBlock: VOLQOD_clean_sbu_1, # of connection points: 6
#     Edge 18, Type (0, 0), BuildingBlock: KIFKEQ_clean_linker_1, # of connection points: 2
#     Edge 19, Type (0, 0), BuildingBlock: KIFKEQ_clean_linker_1, # of connection points: 2
#     Edge 20, Type (0, 0), BuildingBlock: KIFKEQ_clean_linker_1, # of connection points: 2
#     Edge 21, Type (0, 0), BuildingBlock: KIFKEQ_clean_linker_1, # of connection points: 2
#     Edge 22, Type (0, 0), BuildingBlock: KIFKEQ_clean_linker_1, # of connection points: 2
#     Edge 23, Type (0, 0), BuildingBlock: KIFKEQ_clean_linker_1, # of connection points: 2
#     Edge 24, Type (0, 0), BuildingBlock: KIFKEQ_clean_linker_1, # of connection points: 2
#     Edge 25, Type (0, 0), BuildingBlock: KIFKEQ_clean_linker_1, # of connection points: 2
#     Edge 26, Type (0, 0), BuildingBlock: KIFKEQ_clean_linker_1, # of connection points: 2
#     Edge 27, Type (0, 0), BuildingBlock: KIFKEQ_clean_linker_1, # of connection points: 2
#     Edge 28, Type (0, 0), BuildingBlock: KIFKEQ_clean_linker_1, # of connection points: 2
#     Edge 29, Type (0, 0), BuildingBlock: KIFKEQ_clean_linker_1, # of connection points: 2
#     Edge 30, Type (0, 0), BuildingBlock: KIFKEQ_clean_linker_1, # of connection points: 2
#     Edge 31, Type (0, 0), BuildingBlock: KIFKEQ_clean_linker_1, # of connection points: 2
#     Edge 32, Type (0, 0), BuildingBlock: KIFKEQ_clean_linker_1, # of connection points: 2
#     Edge 33, Type (0, 0), BuildingBlock: KIFKEQ_clean_linker_1, # of connection points: 2
#     Edge 34, Type (0, 0), BuildingBlock: KIFKEQ_clean_linker_1, # of connection points: 2
#     Edge 35, Type (0, 0), BuildingBlock: KIFKEQ_clean_linker_1, # of connection points: 2
#     Edge 36, Type (0, 0), BuildingBlock: KIFKEQ_clean_linker_1, # of connection points: 2
#     Edge 37, Type (0, 0), BuildingBlock: KIFKEQ_clean_linker_1, # of connection points: 2
#     Edge 38, Type (0, 0), BuildingBlock: KIFKEQ_clean_linker_1, # of connection points: 2
#     Edge 39, Type (0, 0), BuildingBlock: KIFKEQ_clean_linker_1, # of connection points: 2
#     Edge 40, Type (0, 0), BuildingBlock: KIFKEQ_clean_linker_1, # of connection points: 2
#     Edge 41, Type (0, 0), BuildingBlock: KIFKEQ_clean_linker_1, # of connection points: 2
#     Edge 42, Type (0, 0), BuildingBlock: KIFKEQ_clean_linker_1, # of connection points: 2
#     Edge 43, Type (0, 0), BuildingBlock: KIFKEQ_clean_linker_1, # of connection points: 2
#     Edge 44, Type (0, 0), BuildingBlock: KIFKEQ_clean_linker_1, # of connection points: 2
#     Edge 45, Type (0, 0), BuildingBlock: KIFKEQ_clean_linker_1, # of connection points: 2
#     Edge 46, Type (0, 0), BuildingBlock: KIFKEQ_clean_linker_1, # of connection points: 2
#     Edge 47, Type (0, 0), BuildingBlock: KIFKEQ_clean_linker_1, # of connection points: 2
#     Edge 48, Type (0, 0), BuildingBlock: KIFKEQ_clean_linker_1, # of connection points: 2
#     Edge 49, Type (0, 0), BuildingBlock: KIFKEQ_clean_linker_1, # of connection points: 2
#     Edge 50, Type (0, 0), BuildingBlock: KIFKEQ_clean_linker_1, # of connection points: 2
#     Edge 51, Type (0, 0), BuildingBlock: KIFKEQ_clean_linker_1, # of connection points: 2
#     Edge 52, Type (0, 0), BuildingBlock: KIFKEQ_clean_linker_1, # of connection points: 2
#     Edge 53, Type (0, 0), BuildingBlock: KIFKEQ_clean_linker_1, # of connection points: 2
#     Edge 54, Type (0, 0), BuildingBlock: KIFKEQ_clean_linker_1, # of connection points: 2
#     Edge 55, Type (0, 0), BuildingBlock: KIFKEQ_clean_linker_1, # of connection points: 2
#     Edge 56, Type (0, 0), BuildingBlock: KIFKEQ_clean_linker_1, # of connection points: 2
#     Edge 57, Type (0, 0), BuildingBlock: KIFKEQ_clean_linker_1, # of connection points: 2
#     Edge 58, Type (0, 0), BuildingBlock: KIFKEQ_clean_linker_1, # of connection points: 2
#     Edge 59, Type (0, 0), BuildingBlock: KIFKEQ_clean_linker_1, # of connection points: 2
#     Edge 60, Type (0, 0), BuildingBlock: KIFKEQ_clean_linker_1, # of connection points: 2
#     Edge 61, Type (0, 0), BuildingBlock: KIFKEQ_clean_linker_1, # of connection points: 2
#     Edge 62, Type (0, 0), BuildingBlock: KIFKEQ_clean_linker_1, # of connection points: 2
#     Edge 63, Type (0, 0), BuildingBlock: KIFKEQ_clean_linker_1, # of connection points: 2
#     Edge 64, Type (0, 0), BuildingBlock: KIFKEQ_clean_linker_1, # of connection points: 2
#     Edge 65, Type (0, 0), BuildingBlock: KIFKEQ_clean_linker_1, # of connection points: 2
#     Edge 66, Type (0, 0), BuildingBlock: KIFKEQ_clean_linker_1, # of connection points: 2
#     Edge 67, Type (0, 0), BuildingBlock: KIFKEQ_clean_linker_1, # of connection points: 2
#     Edge 68, Type (0, 0), BuildingBlock: KIFKEQ_clean_linker_1, # of connection points: 2
#     Edge 69, Type (0, 0), BuildingBlock: KIFKEQ_clean_linker_1, # of connection points: 2
#     Edge 70, Type (0, 0), BuildingBlock: KIFKEQ_clean_linker_1, # of connection points: 2
#     Edge 71, Type (0, 0), BuildingBlock: KIFKEQ_clean_linker_1, # of connection points: 2
# Relax obj value: 0.180
# Max RMSD: 0.177
# Mean RMSD: 0.174
data_MOF--net-smd--node1-VOLQOD_clean_sbu_1--edge1-KIFKEQ_clean_linker_1
_symmetry_space_group_name_H-M    P1
_symmetry_Int_Tables_number       1
_symmetry_cell_setting            triclinic
loop_
_symmetry_equiv_pos_as_xyz
'x, y, z'
_cell_length_a     78.494947
_cell_length_b     78.491872
_cell_length_c     17.277692
_cell_angle_alpha  90.109694
_cell_angle_beta   90.018624
_cell_angle_gamma 120.00464
loop_
_atom_site_label
_atom_site_type_symbol
_atom_site_fract_x
_atom_site_fract_y
_atom_site_fract_z
_atom_type_partial_charge
O0 O 0.01058 0.21722 0.29595 0.0
Zn1 Zn 0.00879 0.20852 0.40572 0.0
O2 O 0.00748 0.22736 0.47418 0.0
Zn3 Zn 0.03267 0.24342 0.52653 0.0
Zn4 Zn 0.0003 0.24381 0.41502 0.0
Zn5 Zn 0.98752 0.21288 0.54957 0.0
O6 O 0.02866 0.24495 0.64237 0.0
O7 O -0.00175 0.21974 0.6554 0.0
O8 O 0.03253 0.20636 0.43068 0.0
O9 O 0.04917 0.23058 0.51488 0.0
O10 O 0.04712 0.27084 0.47937 0.0
O11 O 0.02241 0.27157 0.41915 0.0
O12 O 0.97577 0.24309 0.45639 0.0
O13 O 0.98514 0.18133 0.41721 0.0
O14 O 0.96696 0.22063 0.5485 0.0
O15 O 0.97434 0.18392 0.53293 0.0
C16 C 0.00487 0.22795 0.26264 0.0
C17 C 0.01404 0.23347 0.68452 0.0
C18 C 0.04029 0.27999 0.44096 0.0
C19 C 0.0472 0.21597 0.47542 0.0
C20 C 0.96419 0.23292 0.51083 0.0
C21 C 0.97386 0.17362 0.4752 0.0
O22 O -0.00171 0.2373 0.30119 0.0
O23 O 0.80142 0.80973 0.61827 0.0
Zn24 Zn 0.80746 0.81705 0.50648 0.0
O25 O 0.78569 0.79831 0.44334 0.0
Zn26 Zn 0.7926 0.78095 0.38736 0.0
Zn27 Zn 0.76346 0.78322 0.51008 0.0
Zn28 Zn 0.77855 0.81234 0.37213 0.0
O29 O 0.78741 0.78107 0.27205 0.0
O30 O 0.78374 0.80738 0.26549 0.0
O31 O 0.83228 0.81697 0.47893 0.0
O32 O 0.82164 0.79139 0.39912 0.0
O33 O 0.779 0.75341 0.43454 0.0
O34 O 0.76054 0.7568 0.52399 0.0
O35 O 0.73813 0.78033 0.4675 0.0
O36 O 0.81189 0.84453 0.49393 0.0
O37 O 0.74964 0.80235 0.37323 0.0
O38 O 0.79271 0.84114 0.39371 0.0
C39 C 0.78506 0.80187 0.65408 0.0
C40 C 0.78544 0.79376 0.23297 0.0
C41 C 0.76721 0.74676 0.49183 0.0
C42 C 0.8355 0.80566 0.43607 0.0
C43 C 0.7353 0.78938 0.41226 0.0
C44 C 0.80519 0.85179 0.44489 0.0
O45 O 0.76873 0.79395 0.61782 0.0
O46 O 0.20299 0.00331 0.32806 0.0
Zn47 Zn 0.19678 0.00456 0.43902 0.0
O48 O 0.2186 0.00754 0.50127 0.0
Zn49 Zn 0.2123 0.98311 0.55349 0.0
Zn50 Zn 0.24177 0.01658 0.43704 0.0
Zn51 Zn 0.2236 0.02689 0.57844 0.0
O52 O 0.21647 0.9873 0.67034 0.0
O53 O 0.2146 0.01456 0.68092 0.0
O54 O 0.17193 0.97948 0.4668 0.0
O55 O 0.1835 0.96403 0.53884 0.0
O56 O 0.22751 0.97093 0.50619 0.0
O57 O 0.24871 -0.00455 0.43173 0.0
O58 O 0.2655 0.04079 0.482 0.0
O59 O 0.19279 0.02801 0.44995 0.0
O60 O 0.25239 0.04533 0.58832 0.0
O61 O 0.21099 0.04274 0.55357 0.0
C62 C 0.2191 0.01081 0.29059 0.0
C63 C 0.21459 -0.00018 0.71131 0.0
C64 C 0.24185 0.97817 0.45859 0.0
C65 C 0.16925 0.96453 0.50558 0.0
C66 C 0.26725 0.04975 0.54581 0.0
C67 C 0.19942 0.04177 0.50008 0.0
O68 O 0.23571 0.01906 0.32513 0.0
O69 O 0.01631 0.79148 0.6926 0.0
Zn70 Zn 0.02211 0.79674 0.5778 0.0
O71 O -0.00214 0.78856 0.52076 0.0
Zn72 Zn 0.99133 0.76589 0.45671 0.0
Zn73 Zn 0.97672 0.78097 0.59209 0.0
Zn74 Zn 8e-05 0.80987 0.45703 0.0
O75 O 0.98653 0.77055 0.34653 0.0
O76 O 0.00146 0.80326 0.34632 0.0
O77 O 0.03708 0.78397 0.53261 0.0
O78 O 0.0149 0.76291 0.44957 0.0
O79 O 0.96962 0.74045 0.50183 0.0
O80 O 0.96041 0.7518 0.60108 0.0
O81 O 0.95934 0.7914 0.56056 0.0
O82 O 0.03963 0.82589 0.56679 0.0
O83 O 0.97596 0.81282 0.46751 0.0
O84 O 0.02475 0.83544 0.48215 0.0
C85 C 0.00202 0.79065 0.73109 0.0
C86 C -0.00592 0.78688 0.3105 0.0
C87 C 0.95908 0.73748 0.56189 0.0
C88 C 0.03185 0.77071 0.48056 0.0
C89 C 0.96083 0.80396 0.51063 0.0
C90 C 0.03907 0.8393 0.5274 0.0
O91 O 0.987 0.78947 0.69783 0.0
O92 O 0.23962 0.22173 0.31216 0.0
Zn93 Zn 0.23785 0.21597 0.42867 0.0
O94 O 0.22059 0.22407 0.47934 0.0
Zn95 Zn 0.2352 0.24702 0.5438 0.0
Zn96 Zn 0.20685 0.23019 0.40304 0.0
Zn97 Zn 0.20152 0.20341 0.54474 0.0
O98 O 0.22581 0.24229 0.65425 0.0
O99 O 0.20937 0.20964 0.65619 0.0
O100 O 0.26491 0.22921 0.48269 0.0
O101 O 0.26193 0.25097 0.55552 0.0
O102 O 0.23689 0.2717 0.49914 0.0
O103 O 0.2157 0.25881 0.40218 0.0
O104 O 0.1779 0.21552 0.41952 0.0
O105 O 0.22548 0.1864 0.43903 0.0
O106 O 0.17442 0.1999 0.53052 0.0
O107 O 0.20018 0.17802 0.5182 0.0
C108 C 0.22755 0.22397 0.26966 0.0
C109 C 0.21796 0.22611 0.69141 0.0
C110 C 0.22785 0.27365 0.44154 0.0
C111 C 0.27177 0.24305 0.53296 0.0
C112 C 0.16721 0.20486 0.47475 0.0
C113 C 0.21053 0.17341 0.47588 0.0
O114 O 0.21344 0.22542 0.29845 0.0
O115 O 0.77459 -0.00382 0.64572 0.0
Zn116 Zn 0.77497 0.99101 0.53051 0.0
O117 O 0.79035 0.01581 0.47441 0.0
Zn118 Zn 0.7734 0.021 0.40966 0.0
Zn119 Zn 0.80313 0.03731 0.54571 0.0
Zn120 Zn 0.81015 0.01497 0.41025 0.0
O121 O 0.78343 0.02726 0.30072 0.0
O122 O 0.8031 0.01446 0.29876 0.0
O123 O 0.74731 0.975 0.48454 0.0
O124 O 0.74797 -0.00386 0.39755 0.0
O125 O 0.76789 0.04151 0.45633 0.0
O126 O 0.7909 0.05426 0.54697 0.0
O127 O 0.83183 0.0537 0.52529 0.0
O128 O 0.78806 0.97465 0.51906 0.0
O129 O 0.83714 0.03851 0.42785 0.0
O130 O 0.81177 0.99084 0.43291 0.0
C131 C 0.78631 0.01142 0.68482 0.0
C132 C 0.79337 0.02111 0.26375 0.0
C133 C 0.77652 0.05376 0.51117 0.0
C134 C 0.73936 0.97927 0.42908 0.0
C135 C 0.84338 0.05253 0.47677 0.0
C136 C 0.80229 0.97629 0.47805 0.0
O137 O 0.79898 0.02725 0.65238 0.0
O138 O 0.67466 0.5498 0.96766 0.0
Zn139 Zn 0.67518 0.5442 0.85442 0.0
O140 O 0.67789 0.5664 0.79569 0.0
Zn141 Zn 0.6535 0.5605 0.74307 0.0
Zn142 Zn 0.68664 0.58871 0.8636 0.0
Zn143 Zn 0.69787 0.57306 0.71973 0.0
O144 O 0.6579 0.56408 0.62578 0.0
O145 O 0.68564 0.56299 0.61732 0.0
O146 O 0.64975 0.51973 0.82682 0.0
O147 O 0.63413 0.53181 0.75862 0.0
O148 O 0.64136 0.57609 0.79026 0.0
O149 O 0.66502 0.59441 0.87383 0.0
O150 O 0.70912 0.61351 0.81837 0.0
O151 O 0.69844 0.54009 0.83796 0.0
O152 O 0.71447 0.60227 0.70856 0.0
O153 O 0.71513 0.56216 0.74708 0.0
C154 C 0.68239 0.56576 0.00653 0.0
C155 C 0.67065 0.5623 0.58592 0.0
C156 C 0.64829 0.589 0.84404 0.0
C157 C 0.63461 0.51739 0.79023 0.0
C158 C 0.71775 0.6165 0.75315 0.0
C159 C 0.71342 0.54895 0.79414 0.0
O160 O 0.69041 0.5825 0.97323 0.0
O161 O 0.46758 0.1438 0.9867 0.0
Zn162 Zn 0.47397 0.15108 0.87519 0.0
O163 O 0.45283 0.132 0.81068 0.0
Zn164 Zn 0.4608 0.11531 0.75542 0.0
Zn165 Zn 0.43038 0.1163 0.87588 0.0
Zn166 Zn 0.44552 0.14566 0.73814 0.0
O167 O 0.45517 0.11467 0.64009 0.0
O168 O 0.45083 0.14055 0.63193 0.0
O169 O 0.49914 0.15159 0.85022 0.0
O170 O 0.4901 0.12711 0.76589 0.0
O171 O 0.448 0.08786 0.80353 0.0
O172 O 0.42779 0.08998 0.88801 0.0
O173 O 0.40503 0.11289 0.83111 0.0
O174 O 0.47815 0.17843 0.86014 0.0
O175 O 0.41653 0.13511 0.73753 0.0
O176 O 0.45939 0.17455 0.75788 0.0
C177 C 0.45114 0.13506 0.02182 0.0
C178 C 0.45274 0.12697 0.60026 0.0
C179 C 0.43542 0.08055 0.85813 0.0
C180 C 0.50331 0.14129 0.80542 0.0
C181 C 0.40218 0.12178 0.77533 0.0
C182 C 0.47165 0.18545 0.80922 0.0
O183 O 0.43492 0.12639 0.98484 0.0
O184 O 0.87478 0.34017 0.96898 0.0
Zn185 Zn 0.86658 0.33853 0.85832 0.0
O186 O 0.88476 0.33534 0.79349 0.0
Zn187 Zn 0.90262 0.35977 0.74001 0.0
Zn188 Zn 0.89903 0.32679 0.85851 0.0
Zn189 Zn 0.87009 0.31515 0.71944 0.0
O190 O 0.90288 0.35477 0.62407 0.0
O191 O 0.8749 0.32617 0.61426 0.0
O192 O 0.86659 0.3633 0.83081 0.0
O193 O 0.89239 0.37858 0.7525 0.0
O194 O 0.92993 0.37282 0.78993 0.0
O195 O 0.92591 0.34948 0.87296 0.0
O196 O 0.90098 0.30419 0.81104 0.0
O197 O 0.83904 0.31552 0.84803 0.0
O198 O 0.87979 0.29611 0.71412 0.0
O199 O 0.8414 0.30054 0.74285 0.0
C200 C 0.88206 0.33107 0.00439 0.0
C201 C 0.8895 0.34094 0.58337 0.0
C202 C 0.93631 0.36659 0.84469 0.0
C203 C 0.87796 0.37796 0.78892 0.0
C204 C 0.8922 0.29359 0.75213 0.0
C205 C 0.83127 0.30198 0.79722 0.0
O206 O 0.88873 0.32155 0.96755 0.0
O207 O 0.68689 0.12773 -0.00083 0.0
Zn208 Zn 0.69101 0.13246 0.88266 0.0
O209 O 0.66602 0.12412 0.83015 0.0
Zn210 Zn 0.65832 0.10087 0.7674 0.0
Zn211 Zn 0.6465 0.11849 0.90712 0.0
Zn212 Zn 0.66729 0.14474 0.76598 0.0
O213 O 0.65487 0.10564 0.65446 0.0
O214 O 0.66838 0.1382 0.65589 0.0
O215 O 0.70496 0.11896 0.83461 0.0
O216 O 0.68085 0.09603 0.76289 0.0
O217 O 0.6354 0.07653 0.815 0.0
O218 O 0.62948 0.08957 0.91845 0.0
O219 O 0.62951 0.12997 0.88275 0.0
O220 O 0.70832 0.16178 0.86934 0.0
O221 O 0.64352 0.14791 0.77829 0.0
O222 O 0.69144 0.17028 0.79047 0.0
C223 C 0.67388 0.12876 0.04006 0.0
C224 C 0.6619 0.12206 0.61912 0.0
C225 C 0.62624 0.07466 0.87828 0.0
C226 C 0.69839 0.10428 0.78845 0.0
C227 C 0.62998 0.14123 0.82902 0.0
C228 C 0.7065 0.17479 0.83208 0.0
O229 O 0.65882 0.12805 0.00945 0.0
O230 O 0.88402 0.57041 0.03445 0.0
Zn231 Zn 0.88064 0.57149 0.91773 0.0
O232 O 0.88847 0.55472 0.86351 0.0
Zn233 Zn 0.91084 0.57006 0.7972 0.0
Zn234 Zn 0.89618 0.54207 0.93844 0.0
Zn235 Zn 0.8669 0.53447 0.80371 0.0
O236 O 0.90491 0.56085 0.68648 0.0
O237 O 0.87248 0.54095 0.69127 0.0
O238 O 0.89487 0.59944 0.87469 0.0
O239 O 0.91538 0.59726 0.79218 0.0
O240 O 0.93606 0.57259 0.83965 0.0
O241 O 0.92537 0.55592 0.94924 0.0
O242 O 0.88716 0.51443 0.90845 0.0
O243 O 0.85181 0.56075 0.89962 0.0
O244 O 0.86464 0.50783 0.81793 0.0
O245 O 0.84139 0.53357 0.8291 0.0
C246 C 0.88362 0.55643 0.07363 0.0
C247 C 0.88833 0.55067 0.65289 0.0
C248 C 0.93939 0.56702 0.90439 0.0
C249 C 0.90838 0.60708 0.82361 0.0
C250 C 0.87443 0.50257 0.86058 0.0
C251 C 0.83803 0.54567 0.86601 0.0
O252 O 0.88572 0.54299 0.04157 0.0
O253 O 0.44112 0.32797 -0.00972 0.0
Zn254 Zn 0.44092 0.32345 0.8739 0.0
O255 O 0.45606 0.3485 0.81987 0.0
Zn256 Zn 0.43911 0.3535 0.75431 0.0
Zn257 Zn 0.46756 0.36922 0.89476 0.0
Zn258 Zn 0.47722 0.3492 0.7593 0.0
O259 O 0.44801 0.35736 0.64325 0.0
O260 O 0.47053 0.34805 0.64702 0.0
O261 O 0.41295 0.30735 0.8301 0.0
O262 O 0.41287 0.32959 0.75099 0.0
O263 O 0.43411 0.37454 0.79764 0.0
O264 O 0.45227 0.38315 0.90437 0.0
O265 O 0.49508 0.38897 0.86797 0.0
O266 O 0.45457 0.30782 0.85992 0.0
O267 O 0.50309 0.37449 0.77605 0.0
O268 O 0.48032 0.32585 0.78411 0.0
C269 C 0.45431 0.34224 0.02986 0.0
C270 C 0.45947 0.35263 0.60916 0.0
C271 C 0.43978 0.38421 0.86083 0.0
C272 C 0.40429 0.31257 0.78104 0.0
C273 C 0.50753 0.38907 0.82065 0.0
C274 C 0.46997 0.31051 0.82461 0.0
O275 O 0.46697 0.35822 -0.00186 0.0
O276 O 0.34273 0.88493 0.96857 0.0
Zn277 Zn 0.34157 0.87729 0.07983 0.0
O278 O 0.33958 0.89622 0.14533 0.0
Zn279 Zn 0.36441 0.91317 0.19951 0.0
Zn280 Zn 0.33229 0.91152 0.08062 0.0
Zn281 Zn 0.319 0.8824 0.21895 0.0
O282 O 0.35969 0.91449 0.31495 0.0
O283 O 0.32964 0.88846 0.32482 0.0
O284 O 0.36591 0.87643 0.1068 0.0
O285 O 0.38161 0.90094 0.19086 0.0
O286 O 0.37882 0.94044 0.14944 0.0
O287 O 0.35581 0.93789 0.06738 0.0
O288 O 0.31052 0.91478 0.12808 0.0
O289 O 0.31852 0.84983 0.09428 0.0
O290 O 0.29969 0.89193 0.21932 0.0
O291 O 0.30523 0.85345 0.2022 0.0
C292 C 0.33462 0.89333 0.93387 0.0
C293 C 0.34507 0.90232 0.3556 0.0
C294 C 0.37306 0.94751 0.09555 0.0
C295 C 0.38031 0.88647 0.15222 0.0
C296 C 0.2987 0.90551 0.18321 0.0
C297 C 0.30609 0.84266 0.14913 0.0
O298 O 0.32652 0.90138 0.97141 0.0
O299 O 0.13312 0.47552 0.32678 0.0
Zn300 Zn 0.139 0.48306 0.21509 0.0
O301 O 0.1186 0.46313 0.15096 0.0
Zn302 Zn 0.12798 0.44746 0.09641 0.0
Zn303 Zn 0.09696 0.44681 0.21744 0.0
Zn304 Zn 0.10931 0.47527 0.07911 0.0
O305 O 0.12206 0.44656 0.98085 0.0
O306 O 0.11598 0.47138 0.97316 0.0
O307 O 0.16513 0.48576 0.18909 0.0
O308 O 0.15753 0.46125 0.10625 0.0
O309 O 0.11696 0.42007 0.14639 0.0
O310 O 0.09724 0.42216 0.23327 0.0
O311 O 0.07081 0.43979 0.17002 0.0
O312 O 0.14063 0.50933 0.20058 0.0
O313 O 0.07985 0.46182 0.0762 0.0
O314 O 0.12059 0.50392 0.10106 0.0
C315 C 0.11672 0.46654 0.36217 0.0
C316 C 0.11889 0.45844 0.94123 0.0
C317 C 0.10526 0.41307 0.20396 0.0
C318 C 0.1702 0.47609 0.14471 0.0
C319 C 0.06651 0.44736 0.11357 0.0
C320 C 0.13265 0.51537 0.15184 0.0
O321 O 0.10051 0.4576 0.32523 0.0
O322 O 0.53542 0.67264 0.97939 0.0
Zn323 Zn 0.5293 0.67309 0.09129 0.0
O324 O 0.55168 0.67731 0.15279 0.0
Zn325 Zn 0.54725 0.65324 0.20405 0.0
Zn326 Zn 0.57458 0.68803 0.0869 0.0
Zn327 Zn 0.55597 0.6962 0.23107 0.0
O328 O 0.55146 0.65735 0.3213 0.0
O329 O 0.54752 0.68339 0.33285 0.0
O330 O 0.50577 0.64699 0.1182 0.0
O331 O 0.51866 0.63289 0.19115 0.0
O332 O 0.56401 0.64283 0.15436 0.0
O333 O 0.58314 0.66831 0.07954 0.0
O334 O 0.5976 0.7127 0.13154 0.0
O335 O 0.52322 0.69514 0.10609 0.0
O336 O 0.58459 0.71585 0.24081 0.0
O337 O 0.54165 0.71048 0.20862 0.0
C338 C 0.55146 0.68114 0.94145 0.0
C339 C 0.5485 0.66913 0.3627 0.0
C340 C 0.57797 0.65126 0.1054 0.0
C341 C 0.50398 0.63246 0.15757 0.0
C342 C 0.59932 0.72119 0.19645 0.0
C343 C 0.52933 0.7087 0.15704 0.0
O344 O 0.56807 0.69032 0.97568 0.0
O345 O 0.34916 0.45855 0.34321 0.0
Zn346 Zn 0.35369 0.46233 0.22645 0.0
O347 O 0.32982 0.45747 0.17231 0.0
Zn348 Zn 0.32061 0.43496 0.10462 0.0
Zn349 Zn 0.31002 0.45205 0.24769 0.0
Zn350 Zn 0.3338 0.47989 0.11206 0.0
O351 O 0.31616 0.44104 -0.00424 0.0
O352 O 0.33379 0.47372 -0.0003 0.0
O353 O 0.3652 0.44645 0.17911 0.0
O354 O 0.34248 0.42953 0.09001 0.0
O355 O 0.29768 0.41057 0.15122 0.0
O356 O 0.29178 0.42308 0.25632 0.0
O357 O 0.29474 0.46534 0.22295 0.0
O358 O 0.37407 0.49073 0.21109 0.0
O359 O 0.31166 0.48571 0.12744 0.0
O360 O 0.35994 0.50361 0.13835 0.0
C361 C 0.33663 0.46074 0.38279 0.0
C362 C 0.32499 0.45766 0.96168 0.0
C363 C 0.28833 0.40837 0.21423 0.0
C364 C 0.35898 0.43465 0.12157 0.0
C365 C 0.29717 0.47847 0.17411 0.0
C366 C 0.3746 0.50535 0.17678 0.0
O367 O 0.32208 0.46084 0.35099 0.0
O368 O 0.57096 0.88757 -0.00836 0.0
Zn369 Zn 0.56946 0.88184 0.1074 0.0
O370 O 0.55349 0.89102 0.16051 0.0
Zn371 Zn 0.56956 0.91379 0.22437 0.0
Zn372 Zn 0.54015 0.89791 0.08535 0.0
Zn373 Zn 0.53387 0.87078 0.22592 0.0
O374 O 0.56031 0.90943 0.33483 0.0
O375 O 0.54224 0.8768 0.33676 0.0
O376 O 0.59684 0.89414 0.15677 0.0
O377 O 0.59594 0.91637 0.23414 0.0
O378 O 0.57252 0.93904 0.17923 0.0
O379 O 0.5507 0.92671 0.08406 0.0
O380 O 0.51141 0.88494 0.10399 0.0
O381 O 0.55589 0.85229 0.11739 0.0
O382 O 0.50731 0.86888 0.21424 0.0
O383 O 0.53095 0.84469 0.19773 0.0
C384 C 0.55906 0.89024 0.95006 0.0
C385 C 0.55166 0.89324 0.37187 0.0
C386 C 0.5636 0.94136 0.12207 0.0
C387 C 0.60479 0.90779 0.20748 0.0
C388 C 0.50054 0.87462 0.15943 0.0
C389 C 0.54072 0.83961 0.15406 0.0
O390 O 0.54542 0.89232 0.97989 0.0
O391 O 0.10926 0.66545 0.34698 0.0
Zn392 Zn 0.109 0.66019 0.23185 0.0
O393 O 0.12515 0.68476 0.17572 0.0
Zn394 Zn 0.10887 0.69117 0.11206 0.0
Zn395 Zn 0.13885 0.70605 0.24736 0.0
Zn396 Zn 0.14424 0.68261 0.11117 0.0
O397 O 0.11782 0.69554 0.00161 0.0
O398 O 0.13716 0.68235 -1e-05 0.0
O399 O 0.08114 0.64558 0.1882 0.0
O400 O 0.08205 0.66786 0.10675 0.0
O401 O 0.10592 0.71344 0.15571 0.0
O402 O 0.12781 0.72409 0.2506 0.0
O403 O 0.16745 0.72143 0.22466 0.0
O404 O 0.12036 0.6424 0.21893 0.0
O405 O 0.17175 0.70548 0.1274 0.0
O406 O 0.14438 0.65759 0.13305 0.0
C407 C 0.12162 0.68035 0.38614 0.0
C408 C 0.12749 0.68905 0.96487 0.0
C409 C 0.1145 0.72505 0.21231 0.0
C410 C 0.07291 0.65093 0.13768 0.0
C411 C 0.17856 0.71965 0.17569 0.0
C412 C 0.13416 0.64313 0.17769 0.0
O413 O 0.1348 0.69591 0.3538 0.0
H414 H 0.10529 0.38047 0.14188 0.0
H415 H 0.09589 0.40392 0.35388 0.0
H416 H 0.09286 0.3483 0.20584 0.0
H417 H 0.08364 0.37227 0.41616 0.0
H418 H 0.03037 0.3081 0.4245 0.0
H419 H 0.05001 0.34075 0.36887 0.0
H420 H 0.09886 0.33063 0.34014 0.0
H421 H 0.07912 0.29769 0.3978 0.0
C422 C 0.101 0.37889 0.20218 0.0
C423 C 0.10109 0.39453 0.24224 0.0
C424 C 0.09399 0.36059 0.23873 0.0
C425 C 0.08712 0.35789 0.31549 0.0
C426 C 0.08864 0.37395 0.35673 0.0
C427 C 0.09556 0.39203 0.32069 0.0
C428 C 0.04538 0.31291 0.40736 0.0
C429 C 0.05329 0.30047 0.41599 0.0
C430 C 0.05659 0.33155 0.37538 0.0
C431 C 0.07587 0.33809 0.35008 0.0
C432 C 0.08397 0.3258 0.35901 0.0
C433 C 0.0728 0.30715 0.3927 0.0
H434 H 0.72415 0.80234 0.28589 0.0
H435 H 0.70052 0.76268 0.48052 0.0
H436 H 0.69108 0.78932 0.23397 0.0
H437 H 0.66743 0.74968 0.42807 0.0
H438 H 0.60882 0.73861 0.33915 0.0
H439 H 0.64155 0.75836 0.39456 0.0
H440 H 0.66739 0.7564 0.17656 0.0
H441 H 0.63466 0.73663 0.12064 0.0
C442 C 0.7119 0.79106 0.31833 0.0
C443 C 0.71502 0.78342 0.38715 0.0
C444 C 0.69297 0.78356 0.28822 0.0
C445 C 0.67673 0.7684 0.3266 0.0
C446 C 0.67969 0.76147 0.39748 0.0
C447 C 0.69866 0.76886 0.42737 0.0
C448 C 0.62145 0.74265 0.30242 0.0
C449 C 0.61909 0.73585 0.22552 0.0
C450 C 0.64019 0.75389 0.33447 0.0
C451 C 0.65698 0.75874 0.29016 0.0
C452 C 0.65469 0.75296 0.212 0.0
C453 C 0.63593 0.74158 0.18003 0.0
H454 H 0.22431 0.93783 0.45692 0.0
H455 H 0.2766 0.99083 0.38425 0.0
H456 H 0.23508 0.91811 0.38413 0.0
H457 H 0.28744 0.97127 0.31337 0.0
H458 H 0.29374 0.93555 0.12908 0.0
H459 H 0.27828 0.95154 0.19682 0.0
H460 H 0.26011 0.90843 0.3795 0.0
H461 H 0.27503 0.8921 0.31098 0.0
C462 C 0.23825 0.94524 0.42673 0.0
C463 C 0.24954 0.96589 0.42599 0.0
C464 C 0.24437 0.93396 0.38472 0.0
C465 C 0.2619 0.94314 0.34147 0.0
C466 C 0.27356 0.96374 0.34395 0.0
C467 C 0.26745 0.97495 0.38545 0.0
C468 C 0.28607 0.92921 0.18277 0.0
C469 C 0.28589 0.9127 0.21496 0.0
C470 C 0.27738 0.93849 0.22207 0.0
C471 C 0.26839 0.93153 0.29454 0.0
C472 C 0.26693 0.91419 0.32392 0.0
C473 C 0.27554 0.90485 0.28449 0.0
H474 H 0.27615 0.06843 0.68581 0.0
H475 H 0.3031 0.06349 0.47499 0.0
H476 H 0.30852 0.08857 0.74321 0.0
H477 H 0.33558 0.08378 0.53303 0.0
H478 H 0.39131 0.13272 0.64265 0.0
H479 H 0.35855 0.11801 0.58593 0.0
H480 H 0.33447 0.08037 0.78537 0.0
H481 H 0.36728 0.09499 0.84253 0.0
C482 C 0.28896 0.07185 0.65116 0.0
C483 C 0.287 0.06418 0.57582 0.0
C484 C 0.3075 0.08332 0.6844 0.0
C485 C 0.32451 0.08758 0.64286 0.0
C486 C 0.32267 0.08079 0.56622 0.0
C487 C 0.30407 0.06913 0.53307 0.0
C488 C 0.37902 0.12153 0.67522 0.0
C489 C 0.38195 0.11494 0.7471 0.0
C490 C 0.36029 0.11304 0.6423 0.0
C491 C 0.34404 0.09797 0.68092 0.0
C492 C 0.34675 0.09206 0.7545 0.0
C493 C 0.36554 0.1004 0.78715 0.0
H494 H 0.88214 0.27477 0.61249 0.0
H495 H 0.9164 0.28182 0.81858 0.0
H496 H 0.89618 0.2567 0.55066 0.0
H497 H 0.93027 0.2635 0.7563 0.0
H498 H 0.94131 0.21826 0.63965 0.0
H499 H 0.92056 0.22954 0.6988 0.0
H500 H 0.93176 0.26876 0.50649 0.0
H501 H 0.95278 0.25767 0.44697 0.0
C502 C 0.89236 0.27215 0.64532 0.0
C503 C 0.89827 0.27989 0.72047 0.0
C504 C 0.90046 0.26188 0.60952 0.0
C505 C 0.91438 0.25886 0.64847 0.0
C506 C 0.91946 0.26556 0.72515 0.0
C507 C 0.91156 0.27609 0.76072 0.0
C508 C 0.93912 0.22904 0.60899 0.0
C509 C 0.9489 0.23722 0.53874 0.0
C510 C 0.9273 0.23554 0.6433 0.0
C511 C 0.92475 0.25012 0.6076 0.0
C512 C 0.93345 0.25742 0.53507 0.0
C513 C 0.94551 0.2511 0.50108 0.0
H514 H 0.76608 0.74043 0.64494 0.0
H515 H 0.75939 0.71173 0.42471 0.0
H516 H 0.75823 0.71031 0.71199 0.0
H517 H 0.75006 0.68079 0.49181 0.0
H518 H 0.7438 0.62961 0.63234 0.0
H519 H 0.75861 0.66179 0.57036 0.0
H520 H 0.73095 0.68064 0.74026 0.0
H521 H 0.7172 0.64907 0.8039 0.0
C522 C 0.76268 0.72749 0.61087 0.0
C523 C 0.76301 0.72825 0.52969 0.0
C524 C 0.75806 0.71015 0.64934 0.0
C525 C 0.75308 0.69287 0.6077 0.0
C526 C 0.75398 0.6938 0.52606 0.0
C527 C 0.75914 0.71143 0.48739 0.0
C528 C 0.7413 0.64084 0.6573 0.0
C529 C 0.72937 0.6368 0.72318 0.0
C530 C 0.74959 0.65922 0.6212 0.0
C531 C 0.74591 0.67388 0.64956 0.0
C532 C 0.73451 0.66997 0.71717 0.0
C533 C 0.72653 0.65176 0.75389 0.0
H534 H 0.93741 0.72635 0.69521 0.0
H535 H 0.95439 0.70304 0.50187 0.0
H536 H 0.92385 0.69482 0.7608 0.0
H537 H 0.94033 0.67134 0.56688 0.0
H538 H 0.9421 0.6303 0.74519 0.0
H539 H 0.95146 0.6609 0.67868 0.0
H540 H 0.89909 0.65967 0.76363 0.0
H541 H 0.88977 0.62888 0.83192 0.0
C542 C 0.93785 0.71438 0.66578 0.0
C543 C 0.94729 0.71734 0.59365 0.0
C544 C 0.93001 0.69627 0.70349 0.0
C545 C 0.93138 0.68071 0.66982 0.0
C546 C 0.9395 0.68323 0.59524 0.0
C547 C 0.9474 0.70135 0.5576 0.0
C548 C 0.93261 0.63659 0.75038 0.0
C549 C 0.91512 0.62709 0.79352 0.0
C550 C 0.93788 0.65404 0.71144 0.0
C551 C 0.92578 0.66247 0.71423 0.0
C552 C 0.90869 0.65348 0.76014 0.0
C553 C 0.9034 0.63592 0.79955 0.0
H554 H 0.30432 0.24075 0.48446 0.0
H555 H 0.28143 0.2587 0.6761 0.0
H556 H 0.33618 0.25443 0.55259 0.0
H557 H 0.3126 0.2719 0.74269 0.0
H558 H 0.37673 0.32246 0.75294 0.0
H559 H 0.34448 0.30241 0.6952 0.0
H560 H 0.35342 0.25243 0.69052 0.0
H561 H 0.38621 0.27281 0.74982 0.0
C562 C 0.30598 0.24732 0.54114 0.0
C563 C 0.29057 0.24917 0.57377 0.0
C564 C 0.32408 0.25498 0.58026 0.0
C565 C 0.32682 0.2644 0.6524 0.0
C566 C 0.31097 0.26498 0.68671 0.0
C567 C 0.29314 0.25753 0.648 0.0
C568 C 0.37176 0.30712 0.7407 0.0
C569 C 0.38386 0.29912 0.75638 0.0
C570 C 0.35331 0.29566 0.70751 0.0
C571 C 0.34651 0.27591 0.68832 0.0
C572 C 0.35844 0.26768 0.70456 0.0
C573 C 0.37698 0.2792 0.73927 0.0
H574 H 0.73878 0.12474 0.77954 0.0
H575 H 0.68764 0.06904 0.72137 0.0
H576 H 0.75949 0.11534 0.70585 0.0
H577 H 0.70818 0.05958 0.64965 0.0
H578 H 0.74368 0.05442 0.46132 0.0
H579 H 0.72628 0.06836 0.52936 0.0
H580 H 0.77201 0.09254 0.70314 0.0
H581 H 0.7897 0.07915 0.63421 0.0
C582 C 0.73203 0.11036 0.75242 0.0
C583 C 0.71157 0.09769 0.75591 0.0
C584 C 0.74385 0.10502 0.70986 0.0
C585 C 0.73541 0.08689 0.67032 0.0
C586 C 0.71509 0.0739 0.67721 0.0
C587 C 0.70333 0.07924 0.71922 0.0
C588 C 0.75025 0.06307 0.51304 0.0
C589 C 0.76796 0.06541 0.54269 0.0
C590 C 0.74018 0.0709 0.55257 0.0
C591 C 0.74753 0.08117 0.62274 0.0
C592 C 0.76592 0.0847 0.64939 0.0
C593 C 0.77604 0.07695 0.60975 0.0
H594 H 0.63613 0.90708 0.13901 0.0
H595 H 0.61716 0.92099 0.35272 0.0
H596 H 0.66927 0.92004 0.19392 0.0
H597 H 0.64985 0.93365 0.4071 0.0
H598 H 0.70879 0.94755 0.50202 0.0
H599 H 0.67594 0.92541 0.44826 0.0
H600 H 0.69429 0.95541 0.22876 0.0
H601 H 0.72672 0.97739 0.28197 0.0
C602 C 0.63895 0.91257 0.19791 0.0
C603 C 0.62421 0.91336 0.24108 0.0
C604 C 0.65784 0.91997 0.2293 0.0
C605 C 0.6621 0.92785 0.30482 0.0
C606 C 0.64699 0.9275 0.3492 0.0
C607 C 0.62832 0.92047 0.31756 0.0
C608 C 0.70582 0.94916 0.44207 0.0
C609 C 0.72016 0.96439 0.39665 0.0
C610 C 0.68708 0.93653 0.41131 0.0
C611 C 0.68259 0.93871 0.33429 0.0
C612 C 0.69735 0.95322 0.28792 0.0
C613 C 0.71586 0.96597 0.31884 0.0
H614 H 0.02318 0.7379 0.39839 0.0
H615 H 0.07233 0.79131 0.48857 0.0
H616 H 0.04561 0.73065 0.32893 0.0
H617 H 0.09503 0.78406 0.41742 0.0
H618 H 0.1254 0.74726 0.34474 0.0
H619 H 0.10701 0.76028 0.41126 0.0
H620 H 0.0672 0.74375 0.21682 0.0
H621 H 0.08525 0.73024 0.15087 0.0
C622 C 0.03883 0.74808 0.40371 0.0
C623 C 0.04596 0.76525 0.44869 0.0
C624 C 0.05169 0.74403 0.36306 0.0
C625 C 0.07207 0.75705 0.36597 0.0
C626 C 0.07937 0.77381 0.4137 0.0
C627 C 0.0664 0.7779 0.45477 0.0
C628 C 0.11299 0.74678 0.31525 0.0
C629 C 0.10656 0.73732 0.243 0.0
C630 C 0.10247 0.7543 0.35352 0.0
C631 C 0.08537 0.75258 0.32017 0.0
C632 C 0.08002 0.74477 0.24493 0.0
C633 C 0.09047 0.73719 0.2068 0.0
H634 H 0.27629 0.37297 0.14211 0.0
H635 H 0.27059 0.39842 0.35595 0.0
H636 H 0.25866 0.34032 0.20033 0.0
H637 H 0.25304 0.36581 0.41367 0.0
H638 H 0.25287 0.30943 0.5083 0.0
H639 H 0.26427 0.34194 0.45254 0.0
H640 H 0.22593 0.31527 0.25599 0.0
H641 H 0.21449 0.28284 0.31118 0.0
C642 C 0.27099 0.3716 0.20093 0.0
C643 C 0.27501 0.38835 0.24442 0.0
C644 C 0.26085 0.35289 0.23422 0.0
C645 C 0.25466 0.35058 0.31178 0.0
C646 C 0.25787 0.3672 0.35412 0.0
C647 C 0.26783 0.38586 0.32069 0.0
C648 C 0.24663 0.31051 0.45385 0.0
C649 C 0.23289 0.2935 0.41406 0.0
C650 C 0.25311 0.32913 0.42204 0.0
C651 C 0.24608 0.33108 0.34961 0.0
C652 C 0.23176 0.31416 0.31142 0.0
C653 C 0.22515 0.29559 0.34343 0.0
H654 H 0.97014 0.39762 0.78427 0.0
H655 H 0.94434 0.36602 -0.00407 0.0
H656 H 0.00109 0.41844 0.85332 0.0
H657 H 0.9744 0.38723 0.06535 0.0
H658 H 0.03695 0.41029 0.14567 0.0
H659 H 0.00565 0.39191 0.07992 0.0
H660 H 0.01831 0.4435 0.94644 0.0
H661 H 0.05029 0.46168 0.01004 0.0
C662 C 0.97106 0.39527 0.84552 0.0
C663 C 0.95503 0.37995 0.88429 0.0
C664 C 0.98869 0.40727 0.88539 0.0
C665 C 0.9904 0.4044 0.96502 0.0
C666 C 0.97396 0.38955 0.0038 0.0
C667 C 0.95664 0.37738 0.96388 0.0
C668 C 0.03295 0.41785 0.10331 0.0
C669 C 0.04613 0.43746 0.08323 0.0
C670 C 0.0149 0.40729 0.06543 0.0
C671 C 0.00935 0.41615 0.00742 0.0
C672 C 0.02221 0.43605 -0.01038 0.0
C673 C 0.04045 0.44656 0.0268 0.0
H674 H 0.6083 0.57549 0.83445 0.0
H675 H 0.66262 0.62197 0.93118 0.0
H676 H 0.59019 0.58935 0.90098 0.0
H677 H 0.64476 0.63519 -0.00223 0.0
H678 H 0.61213 0.66797 0.02526 0.0
H679 H 0.62729 0.65201 0.9579 0.0
H680 H 0.58184 0.59544 0.04018 0.0
H681 H 0.56603 0.61159 0.10733 0.0
C682 C 0.61636 0.58867 0.86914 0.0
C683 C 0.6369 0.59767 0.87709 0.0
C684 C 0.60599 0.59643 0.90796 0.0
C685 C 0.61608 0.61336 0.95451 0.0
C686 C 0.63657 0.62228 0.9617 0.0
C687 C 0.64681 0.61462 0.92345 0.0
C688 C 0.60529 0.65212 0.02965 0.0
C689 C 0.58787 0.64107 0.07214 0.0
C690 C 0.61405 0.64297 -0.00907 0.0
C691 C 0.60579 0.62248 -0.0062 0.0
C692 C 0.58842 0.61127 0.0365 0.0
C693 C 0.57955 0.62052 0.07574 0.0
H694 H 0.43723 0.04952 0.79185 0.0
H695 H 0.42234 0.06838 0.00377 0.0
H696 H 0.42646 0.01716 0.8501 0.0
H697 H 0.41184 0.03646 0.0613 0.0
H698 H 0.40388 0.98017 0.16341 0.0
H699 H 0.42338 0.01292 0.10496 0.0
H700 H 0.39211 0.99047 0.88935 0.0
H701 H 0.37274 0.95814 0.94722 0.0
C702 C 0.43189 0.04684 0.85088 0.0
C703 C 0.4303 0.06134 0.89269 0.0
C704 C 0.42577 0.0284 0.88422 0.0
C705 C 0.41838 0.02436 0.96034 0.0
C706 C 0.41769 0.0392 0.00301 0.0
C707 C 0.42346 0.05741 0.96948 0.0
C708 C 0.40146 0.98225 0.10329 0.0
C709 C 0.3866 0.96675 0.06028 0.0
C710 C 0.41256 0.00092 0.06988 0.0
C711 C 0.40922 0.0042 -0.00738 0.0
C712 C 0.39516 0.98836 0.94864 0.0
C713 C 0.38391 0.9699 0.9822 0.0
H714 H 0.6141 0.03865 0.81095 0.0
H715 H 0.60962 0.06594 0.02187 0.0
H716 H 0.59661 0.00649 0.87359 0.0
H717 H 0.59235 0.03389 0.0839 0.0
H718 H 0.59076 0.97712 0.18382 0.0
H719 H 0.60345 0.00948 0.12407 0.0
H720 H 0.56311 0.98289 0.93306 0.0
H721 H 0.55032 0.95071 -0.0078 0.0
C722 C 0.60916 0.03779 0.87007 0.0
C723 C 0.61335 0.05489 0.91134 0.0
C724 C 0.59913 0.01939 0.90588 0.0
C725 C 0.59332 0.01779 0.98376 0.0
C726 C 0.59689 0.03477 0.02413 0.0
C727 C 0.60667 0.0531 -0.01181 0.0
C728 C 0.58438 0.97822 0.12978 0.0
C729 C 0.56963 0.9613 0.09271 0.0
C730 C 0.59162 -0.00328 0.09566 0.0
C731 C 0.58435 -0.00142 0.02362 0.0
C732 C 0.56912 0.9818 -0.0119 0.0
C733 C 0.56175 0.9634 0.02244 0.0
H734 H 0.04991 0.65951 0.04718 0.0
H735 H 0.05077 0.61091 0.1609 0.0
H736 H 0.01869 0.63691 0.98756 0.0
H737 H 0.01925 0.58805 0.09969 0.0
H738 H 0.95168 0.56048 0.04369 0.0
H739 H 0.98431 0.57924 0.10075 0.0
H740 H 0.00619 0.61157 0.88741 0.0
H741 H 0.97345 0.59316 0.83065 0.0
C742 C 0.04342 0.64397 0.05962 0.0
C743 C 0.05292 0.63702 0.10864 0.0
C744 C 0.02558 0.63097 0.02465 0.0
C745 C 0.0167 0.61065 0.03755 0.0
C746 C 0.0258 0.60365 0.08849 0.0
C747 C 0.04378 0.61673 0.12372 0.0
C748 C 0.9635 0.57135 0.00832 0.0
C749 C 0.95985 0.57555 0.93293 0.0
C750 C 0.98224 0.58205 0.0411 0.0
C751 C -0.00228 0.59714 -0.00087 0.0
C752 C -0.00559 0.60033 0.92183 0.0
C753 C 0.97568 0.58968 0.88908 0.0
H754 H 0.3589 0.4262 0.97008 0.0
H755 H 0.3884 0.42976 0.18563 0.0
H756 H 0.37997 0.41683 0.90286 0.0
H757 H 0.40896 0.41906 0.11881 0.0
H758 H 0.45319 0.41358 0.96895 0.0
H759 H 0.43471 0.42726 0.03063 0.0
H760 H 0.3846 0.39036 0.88547 0.0
H761 H 0.40343 0.37766 0.82146 0.0
C762 C 0.36972 0.42462 0.00346 0.0
C763 C 0.37183 0.42844 0.08343 0.0
C764 C 0.3818 0.41916 0.96479 0.0
C765 C 0.39607 0.41689 0.00521 0.0
C766 C 0.39831 0.42088 0.08541 0.0
C767 C 0.38643 0.42682 0.12402 0.0
C768 C 0.43834 0.40874 0.94931 0.0
C769 C 0.42979 0.39463 0.89007 0.0
C770 C 0.42765 0.41638 0.98535 0.0
C771 C 0.40805 0.40984 0.96379 0.0
C772 C 0.39974 0.39609 0.90296 0.0
C773 C 0.41055 0.38874 0.86605 0.0
H774 H 0.07758 0.22922 0.57868 0.0
H775 H 0.05087 0.18922 0.38593 0.0
H776 H 0.10371 0.2211 0.58281 0.0
H777 H 0.07704 0.18107 0.39067 0.0
H778 H 0.14316 0.19543 0.60097 0.0
H779 H 0.11115 0.19364 0.6063 0.0
H780 H 0.11287 0.20186 0.3587 0.0
H781 H 0.14465 0.2036 0.35321 0.0
C782 C 0.07717 0.21856 0.53769 0.0
C783 C 0.0623 0.21008 0.4813 0.0
C784 C 0.09201 0.21374 0.54069 0.0
C785 C 0.09235 0.20044 0.48709 0.0
C786 C 0.07714 0.19144 0.43241 0.0
C787 C 0.0622 0.19614 0.42974 0.0
C788 C 0.13644 0.19635 0.54753 0.0
C789 C 0.14648 0.19992 0.47681 0.0
C790 C 0.11822 0.19544 0.55068 0.0
C791 C 0.10968 0.1978 0.48303 0.0
C792 C 0.11905 0.19988 0.41168 0.0
C793 C 0.13732 0.20101 0.40864 0.0
H794 H 0.82644 0.97094 0.37947 0.0
H795 H 0.78969 0.94603 0.58142 0.0
H796 H 0.83214 0.94312 0.37504 0.0
H797 H 0.79547 0.91827 0.57664 0.0
H798 H 0.80382 0.87476 0.33045 0.0
H799 H 0.80763 0.90737 0.34366 0.0
H800 H 0.82213 0.90847 0.58544 0.0
H801 H 0.81842 0.8757 0.57222 0.0
C802 C 0.8198 0.9597 0.42356 0.0
C803 C 0.80739 0.96055 0.48023 0.0
C804 C 0.82308 0.9438 0.4209 0.0
C805 C 0.8142 0.92859 0.47535 0.0
C806 C 0.80264 0.92993 0.53441 0.0
C807 C 0.79919 0.94572 0.53665 0.0
C808 C 0.80819 0.8821 0.38609 0.0
C809 C 0.81065 0.87265 0.45049 0.0
C810 C 0.8105 0.90081 0.39351 0.0
C811 C 0.81507 0.91034 0.46567 0.0
C812 C 0.81848 0.90133 0.52932 0.0
C813 C 0.81646 0.88267 0.52162 0.0
H814 H 0.05049 0.86865 0.42023 0.0
H815 H 0.06629 0.85538 0.64241 0.0
H816 H 0.08127 0.90004 0.41823 0.0
H817 H 0.09661 0.88697 0.64196 0.0
H818 H 0.15916 0.92853 0.56433 0.0
H819 H 0.1267 0.89977 0.57336 0.0
H820 H 0.10129 0.93241 0.47276 0.0
H821 H 0.13412 0.96125 0.46131 0.0
C822 C 0.06034 0.87264 0.4694 0.0
C823 C 0.05613 0.85945 0.53095 0.0
C824 C 0.07795 0.89066 0.4684 0.0
C825 C 0.09157 0.89589 0.52937 0.0
C826 C 0.08671 0.88317 0.59306 0.0
C827 C 0.06928 0.86511 0.59357 0.0
C828 C 0.14669 0.92967 0.54432 0.0
C829 C 0.14926 0.94722 0.51208 0.0
C830 C 0.128 0.91317 0.5501 0.0
C831 C 0.11132 0.9138 0.5245 0.0
C832 C 0.11384 0.93138 0.49247 0.0
C833 C 0.13264 0.94792 0.48615 0.0
H834 H 0.2258 0.15661 0.37953 0.0
H835 H 0.18318 0.14284 0.56208 0.0
H836 H 0.21855 0.1225 0.37972 0.0
H837 H 0.17604 0.10887 0.56188 0.0
H838 H 0.19156 0.0559 0.36845 0.0
H839 H 0.19087 0.08667 0.3557 0.0
H840 H 0.19786 0.0952 0.60316 0.0
H841 H 0.19871 0.06476 0.61584 0.0
C842 C 0.21477 0.1463 0.41909 0.0
C843 C 0.20525 0.15251 0.47142 0.0
C844 C 0.21049 0.12675 0.41864 0.0
C845 C 0.19676 0.11312 0.47092 0.0
C846 C 0.18676 0.11914 0.52131 0.0
C847 C 0.19089 0.13861 0.52133 0.0
C848 C 0.19247 0.06415 0.42015 0.0
C849 C 0.1953 0.05806 0.49308 0.0
C850 C 0.19223 0.08177 0.41277 0.0
C851 C 0.19441 0.0933 0.4784 0.0
C852 C 0.196 0.08653 0.55169 0.0
C853 C 0.19657 0.06915 0.5589 0.0
H854 H 0.87287 0.05665 0.37904 0.0
H855 H 0.86137 0.08341 0.5763 0.0
H856 H 0.90723 0.0832 0.37919 0.0
H857 H 0.89517 0.10981 0.57523 0.0
H858 H 0.95784 0.14951 0.59858 0.0
H859 H 0.92832 0.11722 0.59962 0.0
H860 H 0.92526 0.1186 0.35009 0.0
H861 H 0.95535 0.15069 0.34906 0.0
C862 C 0.87766 0.0681 0.42254 0.0
C863 C 0.86436 0.06795 0.47747 0.0
C864 C 0.8973 0.08329 0.42248 0.0
C865 C 0.90395 0.09851 0.47756 0.0
C866 C 0.89067 0.0981 0.53303 0.0
C867 C 0.87117 0.08302 0.53311 0.0
C868 C 0.9511 0.14269 0.54386 0.0
C869 C 0.95861 0.15269 0.47384 0.0
C870 C 0.93417 0.12426 0.54444 0.0
C871 C 0.92419 0.11561 0.4751 0.0
C872 C 0.93262 0.12488 0.40448 0.0
C873 C 0.94981 0.14327 0.40385 0.0
H874 H 0.95936 0.8335 0.43065 0.0
H875 H 0.92356 0.7805 0.56222 0.0
H876 H 0.92997 0.83612 0.40406 0.0
H877 H 0.89459 0.78304 0.53432 0.0
H878 H 0.84598 0.77967 0.38068 0.0
H879 H 0.87774 0.78147 0.39386 0.0
H880 H 0.90201 0.83878 0.49966 0.0
H881 H 0.87005 0.83703 0.48772 0.0
C882 C 0.94533 0.82252 0.45412 0.0
C883 C 0.94378 0.80679 0.49845 0.0
C884 C 0.92861 0.82405 0.43894 0.0
C885 C 0.91015 0.80964 0.46655 0.0
C886 C 0.90869 0.79418 0.5118 0.0
C887 C 0.92533 0.79284 0.5281 0.0
C888 C 0.85811 0.79282 0.40561 0.0
C889 C 0.85542 0.8081 0.43408 0.0
C890 C 0.87625 0.79381 0.41314 0.0
C891 C 0.89212 0.8102 0.44811 0.0
C892 C 0.88991 0.82604 0.47228 0.0
C893 C 0.87163 0.82495 0.46579 0.0
H894 H 0.8036 0.51385 0.81475 0.0
H895 H 0.82734 0.57205 0.91393 0.0
H896 H 0.77158 0.51193 0.79936 0.0
H897 H 0.79562 0.57006 0.89724 0.0
H898 H 0.7496 0.56968 0.72838 0.0
H899 H 0.77828 0.56629 0.75163 0.0
H900 H 0.74405 0.51648 0.89983 0.0
H901 H 0.71499 0.51995 0.8779 0.0
C902 C 0.80195 0.52608 0.83412 0.0
C903 C 0.81808 0.54319 0.86485 0.0
C904 C 0.78366 0.52491 0.82557 0.0
C905 C 0.78137 0.54091 0.84671 0.0
C906 C 0.79718 0.5576 0.88028 0.0
C907 C 0.8153 0.55869 0.88982 0.0
C908 C 0.74799 0.55783 0.76532 0.0
C909 C 0.73001 0.54518 0.80187 0.0
C910 C 0.76445 0.55596 0.77865 0.0
C911 C 0.76326 0.54125 0.82784 0.0
C912 C 0.74518 0.52793 0.86164 0.0
C913 C 0.72865 0.52997 0.84919 0.0
H914 H 0.45809 0.28134 0.93163 0.0
H915 H 0.49401 0.30469 0.72681 0.0
H916 H 0.46387 0.25361 0.93052 0.0
H917 H 0.4997 0.27676 0.7258 0.0
H918 H 0.47019 0.20758 0.69134 0.0
H919 H 0.47486 0.24062 0.69936 0.0
H920 H 0.49032 0.24375 0.94093 0.0
H921 H 0.48574 0.21057 0.93299 0.0
C922 C 0.46743 0.28068 0.88696 0.0
C923 C 0.47539 0.29505 0.82872 0.0
C924 C 0.4709 0.26491 0.88684 0.0
C925 C 0.48221 0.26308 0.82802 0.0
C926 C 0.49087 0.27785 0.77162 0.0
C927 C 0.48763 0.2938 0.77231 0.0
C928 C 0.47492 0.21544 0.74586 0.0
C929 C 0.47736 0.20643 0.8118 0.0
C930 C 0.47776 0.23441 0.75023 0.0
C931 C 0.48286 0.24466 0.82084 0.0
C932 C 0.48629 0.23607 0.88592 0.0
C933 C 0.48372 0.21715 0.88128 0.0
H934 H 0.73804 0.1914 0.93038 0.0
H935 H 0.71121 0.20501 0.73953 0.0
H936 H 0.76601 0.22483 0.92628 0.0
H937 H 0.73923 0.23841 0.73575 0.0
H938 H 0.80865 0.29041 0.92783 0.0
H939 H 0.776 0.2613 0.94228 0.0
H940 H 0.77464 0.24965 0.69731 0.0
H941 H 0.80715 0.27851 0.68281 0.0
C942 C 0.738 0.20157 0.88821 0.0
C943 C 0.72254 0.19548 0.83467 0.0
C944 C 0.75391 0.22075 0.8864 0.0
C945 C 0.75473 0.23412 0.83061 0.0
C946 C 0.73895 0.2283 0.77906 0.0
C947 C 0.72294 0.2092 0.78135 0.0
C948 C 0.80117 0.28185 0.87689 0.0
C949 C 0.81047 0.28657 0.80432 0.0
C950 C 0.78258 0.26519 0.88528 0.0
C951 C 0.77292 0.25325 0.82098 0.0
C952 C 0.78172 0.2587 0.7477 0.0
C953 C 0.80037 0.27513 0.73952 0.0
H954 H 0.89904 0.49041 0.91501 0.0
H955 H 0.84583 0.47066 0.78085 0.0
H956 H 0.89815 0.4596 0.88833 0.0
H957 H 0.84491 0.43941 0.75533 0.0
H958 H 0.84558 0.37997 0.834 0.0
H959 H 0.84284 0.4096 0.84606 0.0
H960 H 0.90142 0.44449 0.75382 0.0
H961 H 0.90422 0.41506 0.74072 0.0
C962 C 0.88701 0.47942 0.88053 0.0
C963 C 0.87252 0.48302 0.8498 0.0
C964 C 0.88662 0.46185 0.86488 0.0
C965 C 0.87162 0.44737 0.81911 0.0
C966 C 0.85666 0.45049 0.79056 0.0
C967 C 0.85721 0.46831 0.80519 0.0
C968 C 0.85776 0.39392 0.8152 0.0
C969 C 0.87521 0.39523 0.78721 0.0
C970 C 0.85611 0.41079 0.82174 0.0
C971 C 0.87198 0.42919 0.80143 0.0
C972 C 0.88906 0.4304 0.77029 0.0
C973 C 0.89061 0.41355 0.76267 0.0
H974 H 0.51843 0.425 0.88184 0.0
H975 H 0.54076 0.39385 0.74738 0.0
H976 H 0.54981 0.45518 0.86905 0.0
H977 H 0.57251 0.42442 0.73544 0.0
H978 H 0.63099 0.48184 0.82938 0.0
H979 H 0.6007 0.44976 0.83279 0.0
H980 H 0.56785 0.47653 0.74834 0.0
H981 H 0.59785 0.50841 0.74419 0.0
C982 C 0.53007 0.42453 0.84997 0.0
C983 C 0.52707 0.40701 0.81536 0.0
C984 C 0.54799 0.44187 0.84237 0.0
C985 C 0.56343 0.44208 0.80079 0.0
C986 C 0.56076 0.42454 0.76781 0.0
C987 C 0.54262 0.40713 0.77446 0.0
C988 C 0.61733 0.48083 0.81089 0.0
C989 C 0.6168 0.4977 0.78714 0.0
C990 C 0.60008 0.46249 0.81245 0.0
C991 C 0.58204 0.46082 0.79134 0.0
C992 C 0.5816 0.47753 0.76553 0.0
C993 C 0.5988 0.49575 0.76301 0.0
H994 H 0.61804 0.1533 0.70205 0.0
H995 H 0.60544 0.13903 0.94447 0.0
H996 H 0.58894 0.15699 0.69142 0.0
H997 H 0.57659 0.14282 0.93374 0.0
H998 H 0.53366 0.16448 0.90272 0.0
H999 H 0.56652 0.16841 0.90478 0.0
H1000 H 0.55216 0.13117 0.70295 0.0
H1001 H 0.51927 0.12714 0.70058 0.0
C1002 C 0.60927 0.15128 0.75323 0.0
C1003 C 0.61389 0.14572 0.82394 0.0
C1004 C 0.59262 0.15331 0.74702 0.0
C1005 C 0.58057 0.15016 0.81173 0.0
C1006 C 0.58574 0.14551 0.88315 0.0
C1007 C 0.60217 0.1432 0.8891 0.0
C1008 C 0.53757 0.15734 0.85811 0.0
C1009 C 0.52379 0.1453 0.80199 0.0
C1010 C 0.55636 0.15958 0.85947 0.0
C1011 C 0.56178 0.15004 0.8042 0.0
C1012 C 0.54837 0.13881 0.74582 0.0
C1013 C 0.5295 0.13638 0.74492 0.0
H1014 H 0.47812 0.87334 0.03776 0.0
H1015 H 0.47721 0.86768 0.28668 0.0
H1016 H 0.44683 0.87266 0.04204 0.0
H1017 H 0.44565 0.86699 0.29089 0.0
H1018 H 0.41113 0.90149 0.25432 0.0
H1019 H 0.43776 0.89406 0.26148 0.0
H1020 H 0.41118 0.85192 0.07571 0.0
H1021 H 0.38458 0.85937 0.06789 0.0
C1022 C 0.47102 0.87158 0.0933 0.0
C1023 C 0.48015 0.87074 0.16197 0.0
C1024 C 0.45305 0.87107 0.09568 0.0
C1025 C 0.44391 0.86989 0.16685 0.0
C1026 C 0.45252 0.86806 0.23536 0.0
C1027 C 0.47046 0.86831 0.23289 0.0
C1028 C 0.41087 0.89054 0.21535 0.0
C1029 C 0.39587 0.88122 0.15986 0.0
C1030 C 0.42601 0.88613 0.22008 0.0
C1031 C 0.42649 0.87242 0.16913 0.0
C1032 C 0.41119 0.86264 0.11535 0.0
C1033 C 0.39599 0.86694 0.11092 0.0
H1034 H 0.15474 0.63443 0.07277 0.0
H1035 H 0.1215 0.61384 0.28519 0.0
H1036 H 0.15783 0.60499 0.06835 0.0
H1037 H 0.12473 0.58451 0.28062 0.0
H1038 H 0.14708 0.54074 0.27469 0.0
H1039 H 0.15079 0.57356 0.28414 0.0
H1040 H 0.13119 0.5689 0.04752 0.0
H1041 H 0.12733 0.53618 0.03799 0.0
C1042 C 0.14834 0.62378 0.11906 0.0
C1043 C 0.13771 0.62635 0.17897 0.0
C1044 C 0.15008 0.60694 0.11633 0.0
C1045 C 0.14148 0.59253 0.17403 0.0
C1046 C 0.13163 0.5955 0.23578 0.0
C1047 C 0.12966 0.61221 0.23801 0.0
C1048 C 0.14382 0.54685 0.22443 0.0
C1049 C 0.13678 0.53586 0.15578 0.0
C1050 C 0.14587 0.56556 0.22999 0.0
C1051 C 0.14126 0.57368 0.16658 0.0
C1052 C 0.13501 0.56303 0.09702 0.0
C1053 C 0.13267 0.54425 0.09181 0.0
H1054 H 0.49189 0.60379 0.267 0.0
H1055 H 0.47197 0.62088 0.06393 0.0
H1056 H 0.46003 0.57398 0.27717 0.0
H1057 H 0.44034 0.59059 0.07181 0.0
H1058 H 0.37979 0.54162 0.14081 0.0
H1059 H 0.41051 0.57304 0.1414 0.0
H1060 H 0.44179 0.5435 0.21462 0.0
H1061 H 0.4111 0.51242 0.21731 0.0
C1062 C 0.48072 0.60109 0.22419 0.0
C1063 C 0.48446 0.61461 0.1644 0.0
C1064 C 0.46247 0.58395 0.22976 0.0
C1065 C 0.44762 0.57975 0.17493 0.0
C1066 C 0.4513 0.59344 0.11571 0.0
C1067 C 0.46948 0.61076 0.11083 0.0
C1068 C 0.39324 0.54191 0.15751 0.0
C1069 C 0.39301 0.52455 0.17915 0.0
C1070 C 0.41087 0.55989 0.1574 0.0
C1071 C 0.42867 0.56084 0.178 0.0
C1072 C 0.42835 0.54344 0.19994 0.0
C1073 C 0.41073 0.52556 0.20104 0.0
H1074 H 0.52008 0.72276 0.02864 0.0
H1075 H 0.52667 0.72954 0.27685 0.0
H1076 H 0.51821 0.75296 0.02104 0.0
H1077 H 0.52472 0.75946 0.26936 0.0
H1078 H 0.55436 0.82242 0.05249 0.0
H1079 H 0.54575 0.788 0.04737 0.0
H1080 H 0.50414 0.77454 0.23304 0.0
H1081 H 0.51273 0.80898 0.23869 0.0
C1082 C 0.52052 0.73036 0.08163 0.0
C1083 C 0.52372 0.72399 0.15324 0.0
C1084 C 0.51959 0.74768 0.07724 0.0
C1085 C 0.52149 0.7586 0.14453 0.0
C1086 C 0.52309 0.75129 0.21661 0.0
C1087 C 0.52431 0.73422 0.22086 0.0
C1088 C 0.54323 0.81211 0.09174 0.0
C1089 C 0.53445 0.8185 0.14675 0.0
C1090 C 0.53814 0.79235 0.08813 0.0
C1091 C 0.52428 0.77864 0.1398 0.0
C1092 C 0.51493 0.78486 0.19278 0.0
C1093 C 0.5199 0.80458 0.196 0.0
H1094 H 0.28678 0.81853 0.02702 0.0
H1095 H 0.2929 0.81945 0.27547 0.0
H1096 H 0.25781 0.78562 0.03452 0.0
H1097 H 0.26473 0.7863 0.28302 0.0
H1098 H 0.1977 0.75023 0.27549 0.0
H1099 H 0.23114 0.77705 0.26806 0.0
H1100 H 0.24113 0.75065 0.06604 0.0
H1101 H 0.207 0.72368 0.07218 0.0
C1102 C 0.28229 0.81138 0.08284 0.0
C1103 C 0.29167 0.82154 0.15085 0.0
C1104 C 0.26579 0.79252 0.08721 0.0
C1105 C 0.25872 0.78355 0.15961 0.0
C1106 C 0.26946 0.79306 0.22663 0.0
C1107 C 0.28561 0.81198 0.22238 0.0
C1108 C 0.20698 0.74995 0.22973 0.0
C1109 C 0.19959 0.73488 0.17403 0.0
C1110 C 0.22632 0.76528 0.22598 0.0
C1111 C 0.23889 0.76594 0.16673 0.0
C1112 C 0.23175 0.75058 0.11212 0.0
C1113 C 0.21225 0.73514 0.11583 0.0
H1114 H 0.27294 0.47729 0.28854 0.0
H1115 H 0.28688 0.49216 0.04735 0.0
H1116 H 0.24441 0.48158 0.27578 0.0
H1117 H 0.25805 0.49628 0.03446 0.0
H1118 H 0.18779 0.46373 0.03975 0.0
H1119 H 0.22138 0.46963 0.04325 0.0
H1120 H 0.23353 0.50651 0.24497 0.0
H1121 H 0.19996 0.50072 0.2417 0.0
C1122 C 0.27008 0.48182 0.23312 0.0
C1123 C 0.28199 0.48423 0.16876 0.0
C1124 C 0.25384 0.4844 0.22598 0.0
C1125 C 0.24903 0.48918 0.15406 0.0
C1126 C 0.26145 0.49251 0.09043 0.0
C1127 C 0.27795 0.49025 0.09792 0.0
C1128 C 0.19769 0.47333 0.08418 0.0
C1129 C 0.19113 0.48154 0.14106 0.0
C1130 C 0.21697 0.47685 0.08569 0.0
C1131 C 0.22997 0.48847 0.14453 0.0
C1132 C 0.22372 0.49742 0.19925 0.0
C1133 C 0.20452 0.4941 0.19724 0.0
H1134 H 0.99045 0.2457 0.16782 0.0
H1135 H 0.02488 0.21657 0.16595 0.0
H1136 H -0.00515 0.25048 0.02808 0.0
H1137 H 0.0292 0.22139 0.0265 0.0
H1138 H 0.04587 0.24793 0.78264 0.0
H1139 H 0.04507 0.24901 0.92482 0.0
H1140 H 0.98235 0.22624 0.91695 0.0
H1141 H 0.98309 0.22507 0.77661 0.0
C1142 C -0.00105 0.24033 0.13774 0.0
C1143 C 0.00712 0.23056 0.17788 0.0
C1144 C 0.0015 0.24312 0.05789 0.0
C1145 C 0.01245 0.23639 0.01684 0.0
C1146 C 0.02093 0.22696 0.05702 0.0
C1147 C 0.01822 0.22399 0.13669 0.0
C1148 C 0.03202 0.24343 0.81159 0.0
C1149 C 0.01453 0.23623 0.76897 0.0
C1150 C 0.03154 0.24395 0.89258 0.0
C1151 C 0.01363 0.23767 0.93153 0.0
C1152 C -0.00364 0.23132 0.88843 0.0
C1153 C -0.00322 0.2305 0.80812 0.0
H1154 H 0.80036 0.77711 0.13346 0.0
H1155 H 0.76797 0.8083 0.14079 0.0
H1156 H 0.7999 0.77793 -0.00875 0.0
H1157 H 0.7676 0.80912 0.00062 0.0
H1158 H 0.75358 0.78952 0.75058 0.0
H1159 H 0.75291 0.78518 0.89027 0.0
H1160 H 0.81526 0.80585 0.88976 0.0
H1161 H 0.81604 0.81015 0.74964 0.0
C1162 C 0.79303 0.78394 0.10479 0.0
C1163 C 0.78433 0.79275 0.14795 0.0
C1164 C 0.79287 0.78452 0.02383 0.0
C1165 C 0.78372 0.7936 0.98543 0.0
C1166 C 0.7746 0.80189 0.02881 0.0
C1167 C 0.77496 0.80153 0.10909 0.0
C1168 C 0.76717 0.79321 0.78013 0.0
C1169 C 0.78489 0.80035 0.73914 0.0
C1170 C 0.76676 0.79067 0.86 0.0
C1171 C 0.78402 0.7951 0.90037 0.0
C1172 C 0.80172 0.8021 0.85961 0.0
C1173 C 0.80218 0.80479 0.77967 0.0
H1174 H 0.18695 -0.00143 0.19803 0.0
H1175 H 0.24901 0.01754 0.19077 0.0
H1176 H 0.18472 0.99315 0.05898 0.0
H1177 H 0.2467 0.01224 0.05062 0.0
H1178 H 0.22933 0.98265 0.80869 0.0
H1179 H 0.23019 0.9842 0.95085 0.0
H1180 H 0.19795 0.01549 0.94581 0.0
H1181 H 0.19703 0.01391 0.8055 0.0
C1182 C 0.20016 0.00167 0.16678 0.0
C1183 C 0.21821 0.00864 0.20546 0.0
C1184 C 0.19885 -0.00147 0.08712 0.0
C1185 C 0.21552 0.00222 0.04423 0.0
C1186 C 0.23358 0.00906 0.08262 0.0
C1187 C 0.23493 0.01233 0.16257 0.0
C1188 C 0.22217 0.98953 0.83833 0.0
C1189 C 0.21317 -0.0018 0.79628 0.0
C1190 C 0.22283 0.9906 0.91933 0.0
C1191 C 0.2142 4e-05 0.95907 0.0
C1192 C 0.20459 0.008 0.9168 0.0
C1193 C 0.20414 0.00715 0.83641 0.0
H1194 H 0.03343 0.8033 0.83029 0.0
H1195 H 0.96999 0.77553 0.82375 0.0
H1196 H 0.03222 0.80178 0.97236 0.0
H1197 H 0.96888 0.77394 0.96408 0.0
H1198 H 0.97422 0.756 0.21091 0.0
H1199 H 0.97741 0.7563 0.07015 0.0
H1200 H 0.0208 0.81813 0.07773 0.0
H1201 H 0.01762 0.81799 0.21817 0.0
C1202 C 0.0193 0.79683 0.85907 0.0
C1203 C 0.00185 0.78969 0.81617 0.0
C1204 C 0.01861 0.79601 0.93996 0.0
C1205 C 0.00044 0.78768 0.97856 0.0
C1206 C 0.98304 0.78025 0.93552 0.0
C1207 C 0.98373 0.78135 0.85523 0.0
C1208 C 0.98442 0.76965 0.18256 0.0
C1209 C -0.00448 0.787 0.22545 0.0
C1210 C 0.98626 0.7698 0.10223 0.0
C1211 C -0.00058 0.78723 0.06368 0.0
C1212 C 0.01073 0.80449 0.10647 0.0
C1213 C 0.00871 0.80442 0.18663 0.0
H1214 H 0.21937 0.24687 0.17954 0.0
H1215 H 0.24087 0.20588 0.16923 0.0
H1216 H 0.21891 0.24804 0.03941 0.0
H1217 H 0.24046 0.2071 0.02686 0.0
H1218 H 0.20718 0.19478 0.78817 0.0
H1219 H 0.21289 0.19553 0.92722 0.0
H1220 H 0.2409 0.25891 0.92555 0.0
H1221 H 0.23509 0.25826 0.78677 0.0
C1222 C 0.22423 0.23826 0.14703 0.0
C1223 C 0.23001 0.22614 0.18507 0.0
C1224 C 0.22409 0.23905 0.06671 0.0
C1225 C 0.22958 0.22763 0.02225 0.0
C1226 C 0.23601 0.21595 0.06002 0.0
C1227 C 0.2364 0.21535 0.14113 0.0
C1228 C 0.21448 0.20889 0.81742 0.0
C1229 C 0.22048 0.22646 0.77639 0.0
C1230 C 0.21799 0.2093 0.89688 0.0
C1231 C 0.22744 0.22727 0.93701 0.0
C1232 C 0.2335 0.24483 0.89606 0.0
C1233 C 0.23009 0.24444 0.81662 0.0
H1234 H 0.80606 0.00212 0.1676 0.0
H1235 H 0.77715 0.03678 0.16747 0.0
H1236 H 0.80195 -0.00178 0.02765 0.0
H1237 H 0.77309 0.03279 0.02743 0.0
H1238 H 0.79661 0.04315 0.77558 0.0
H1239 H 0.7971 0.04476 0.91588 0.0
H1240 H 0.77374 0.98198 0.92745 0.0
H1241 H 0.7732 0.98028 0.78532 0.0
C1242 C 0.79893 0.009 0.13777 0.0
C1243 C 0.79206 0.0199 0.17857 0.0
C1244 C 0.79637 0.00653 0.05785 0.0
C1245 C 0.78708 0.01507 0.01721 0.0
C1246 C 0.78033 0.02608 0.05768 0.0
C1247 C 0.78272 0.02841 0.1377 0.0
C1248 C 0.79148 0.02963 0.80787 0.0
C1249 C 0.78502 0.01158 0.76972 0.0
C1250 C 0.79163 0.03057 0.88817 0.0
C1251 C 0.78549 0.01352 0.93217 0.0
C1252 C 0.77866 -0.00466 0.8944 0.0
C1253 C 0.77824 0.99435 0.81347 0.0
H1254 H 0.67079 0.53357 0.09858 0.0
H1255 H 0.68884 0.5954 0.10723 0.0
H1256 H 0.66519 0.5312 0.23785 0.0
H1257 H 0.68329 0.59295 0.24688 0.0
H1258 H 0.68499 0.54436 0.49473 0.0
H1259 H 0.68673 0.54458 0.3543 0.0
H1260 H 0.65494 0.57627 0.34344 0.0
H1261 H 0.65318 0.57606 0.48543 0.0
C1262 C 0.67367 0.54669 0.13018 0.0
C1263 C 0.6804 0.56471 0.09181 0.0
C1264 C 0.67043 0.5453 0.20991 0.0
C1265 C 0.67368 0.56186 0.25297 0.0
C1266 C 0.6804 0.57989 0.21484 0.0
C1267 C 0.68382 0.58133 0.13508 0.0
C1268 C 0.67814 0.55117 0.46246 0.0
C1269 C 0.66902 0.56028 0.50094 0.0
C1270 C 0.67907 0.55121 0.38201 0.0
C1271 C 0.67108 0.56054 0.33806 0.0
C1272 C 0.66138 0.56914 0.37619 0.0
C1273 C 0.66021 0.56886 0.45716 0.0
H1274 H 0.4326 0.13866 0.50918 0.0
H1275 H 0.46925 0.11202 0.50021 0.0
H1276 H 0.4317 0.13919 0.36896 0.0
H1277 H 0.46829 0.11256 0.35798 0.0
H1278 H 0.48245 0.14536 0.11809 0.0
H1279 H 0.48179 0.14068 0.25783 0.0
H1280 H 0.4187 0.11554 0.25719 0.0
H1281 H 0.41924 0.12024 0.11763 0.0
C1282 C 0.44039 0.1328 0.47705 0.0
C1283 C 0.45116 0.12545 0.51541 0.0
C1284 C 0.43973 0.13297 0.39676 0.0
C1285 C 0.44994 0.12595 0.35291 0.0
C1286 C 0.4604 0.11817 0.39089 0.0
C1287 C 0.46086 0.11775 0.47187 0.0
C1288 C 0.46844 0.13893 0.14774 0.0
C1289 C 0.45091 0.13333 0.10687 0.0
C1290 C 0.46806 0.13602 0.2275 0.0
C1291 C 0.45019 0.12764 0.26787 0.0
C1292 C 0.43268 0.12209 0.22722 0.0
C1293 C 0.43302 0.12484 0.14744 0.0
H1294 H 0.87584 0.35535 0.09891 0.0
H1295 H 0.89383 0.31149 0.10185 0.0
H1296 H 0.88058 0.35934 0.23864 0.0
H1297 H 0.89858 0.3156 0.24163 0.0
H1298 H 0.87451 0.30888 0.49128 0.0
H1299 H 0.87463 0.30753 0.35115 0.0
H1300 H 0.90805 0.37099 0.34177 0.0
H1301 H 0.90798 0.37241 0.48407 0.0
C1302 C 0.88075 0.34653 0.12929 0.0
C1303 C 0.88424 0.33292 0.08937 0.0
C1304 C 0.88371 0.34903 0.20909 0.0
C1305 C 0.89003 0.33786 0.25058 0.0
C1306 C 0.89364 0.32435 0.21081 0.0
C1307 C 0.89085 0.32196 0.13092 0.0
C1308 C 0.88197 0.3226 0.45959 0.0
C1309 C 0.89107 0.34079 0.49846 0.0
C1310 C 0.88218 0.32178 0.37932 0.0
C1311 C 0.89134 0.33913 0.33584 0.0
C1312 C 0.9008 0.3574 0.37434 0.0
C1313 C 0.90084 0.35823 0.45537 0.0
H1314 H 0.69213 0.11499 0.13675 0.0
H1315 H 0.65796 0.14433 0.13522 0.0
H1316 H 0.69006 0.11327 0.27881 0.0
H1317 H 0.65579 0.14247 0.27519 0.0
H1318 H 0.67207 0.15373 0.52692 0.0
H1319 H 0.67765 0.15636 0.38838 0.0
H1320 H 0.66234 0.09535 0.37854 0.0
H1321 H 0.65698 0.09267 0.51882 0.0
C1322 C 0.68448 0.12132 0.16676 0.0
C1323 C 0.6752 0.12977 0.12517 0.0
C1324 C 0.6831 0.12014 0.24766 0.0
C1325 C 0.67269 0.12767 0.28775 0.0
C1326 C 0.66403 0.13668 0.24596 0.0
C1327 C 0.66523 0.13768 0.16572 0.0
C1328 C 0.66982 0.1408 0.49556 0.0
C1329 C 0.66392 0.12293 0.53395 0.0
C1330 C 0.67304 0.14235 0.41608 0.0
C1331 C 0.67045 0.12607 0.37284 0.0
C1332 C 0.66465 0.10818 0.41083 0.0
C1333 C 0.66134 0.10659 0.4908 0.0
H1334 H 0.86971 0.52431 0.16547 0.0
H1335 H 0.89358 0.58725 0.17336 0.0
H1336 H 0.87015 0.52328 0.306 0.0
H1337 H 0.894 0.58617 0.31528 0.0
H1338 H 0.9166 0.57611 0.55272 0.0
H1339 H 0.9137 0.57819 0.41273 0.0
H1340 H 0.85427 0.52914 0.42102 0.0
H1341 H 0.8571 0.52692 0.5606 0.0
C1342 C 0.87485 0.53791 0.19739 0.0
C1343 C 0.88172 0.55589 0.15856 0.0
C1344 C 0.87502 0.53729 0.27785 0.0
C1345 C 0.88221 0.55465 0.32131 0.0
C1346 C 0.88856 0.57261 0.28282 0.0
C1347 C 0.88815 0.5732 0.20191 0.0
C1348 C 0.90296 0.56568 0.52463 0.0
C1349 C 0.88713 0.55126 0.5677 0.0
C1350 C 0.90123 0.56705 0.44472 0.0
C1351 C 0.88372 0.55391 0.40637 0.0
C1352 C 0.86796 0.53941 0.44924 0.0
C1353 C 0.86961 0.53814 0.52911 0.0
H1354 H 0.486 0.36263 0.12247 0.0
H1355 H 0.42397 0.31958 0.12879 0.0
H1356 H 0.48686 0.36413 0.26291 0.0
H1357 H 0.42489 0.32109 0.2708 0.0
H1358 H 0.43246 0.35286 0.50947 0.0
H1359 H 0.4306 0.34796 0.36936 0.0
H1360 H 0.48287 0.34287 0.37681 0.0
H1361 H 0.48489 0.34788 0.51636 0.0
C1362 C 0.47257 0.35332 0.15404 0.0
C1363 C 0.45488 0.34106 0.1148 0.0
C1364 C 0.4731 0.35412 0.23446 0.0
C1365 C 0.45593 0.3428 0.27751 0.0
C1366 C 0.4383 0.33009 0.23863 0.0
C1367 C 0.4378 0.3291 0.1577 0.0
C1368 C 0.44363 0.35084 0.48115 0.0
C1369 C 0.45891 0.3509 0.52396 0.0
C1370 C 0.44241 0.34778 0.40119 0.0
C1371 C 0.45652 0.34492 0.36259 0.0
C1372 C 0.47184 0.34511 0.40523 0.0
C1373 C 0.47299 0.34801 0.48509 0.0
H1374 H 0.37647 0.91698 0.45608 0.0
H1375 H 0.31337 0.8918 0.44598 0.0
H1376 H 0.37485 0.91647 0.59831 0.0
H1377 H 0.31179 0.89126 0.58619 0.0
H1378 H 0.31786 0.90871 0.83887 0.0
H1379 H 0.32231 0.91399 0.69963 0.0
H1380 H 0.35997 0.88852 0.69735 0.0
H1381 H 0.35568 0.8833 0.83671 0.0
C1382 C 0.36237 0.91162 0.48419 0.0
C1383 C 0.34505 0.90427 0.44034 0.0
C1384 C 0.36141 0.9112 0.56519 0.0
C1385 C 0.34317 0.90376 0.60294 0.0
C1386 C 0.32604 0.89721 0.55871 0.0
C1387 C 0.32696 0.89739 0.4784 0.0
C1388 C 0.32703 0.90415 0.80876 0.0
C1389 C 0.33627 0.89542 0.84883 0.0
C1390 C 0.32962 0.90725 0.72913 0.0
C1391 C 0.34159 0.90178 0.68803 0.0
C1392 C 0.35091 0.89315 0.72794 0.0
C1393 C 0.34822 0.88992 0.80753 0.0
H1394 H 0.09765 0.46881 0.85026 0.0
H1395 H 0.13681 0.44506 0.8406 0.0
H1396 H 0.09672 0.46943 0.7101 0.0
H1397 H 0.13582 0.44568 0.69836 0.0
H1398 H 0.14833 0.47809 0.45821 0.0
H1399 H 0.14799 0.47352 0.59791 0.0
H1400 H 0.08466 0.446 0.59809 0.0
H1401 H 0.08487 0.45059 0.45852 0.0
C1402 C 0.10601 0.46361 0.818 0.0
C1403 C 0.11746 0.45704 0.85623 0.0
C1404 C 0.10532 0.46383 0.7377 0.0
C1405 C 0.1162 0.45763 0.69359 0.0
C1406 C 0.12739 0.45065 0.73141 0.0
C1407 C 0.12788 0.45018 0.81242 0.0
C1408 C 0.13432 0.47115 0.48801 0.0
C1409 C 0.11662 0.46486 0.44731 0.0
C1410 C 0.13415 0.46832 0.56779 0.0
C1411 C 0.11631 0.4593 0.60845 0.0
C1412 C 0.09862 0.45305 0.56797 0.0
C1413 C 0.09877 0.45574 0.48816 0.0
H1414 H 0.58204 0.69053 0.84148 0.0
H1415 H 0.51894 0.66585 0.84906 0.0
H1416 H 0.58009 0.6847 0.70184 0.0
H1417 H 0.51708 0.65989 0.71034 0.0
H1418 H 0.52767 0.67972 0.45513 0.0
H1419 H 0.52812 0.68145 0.59538 0.0
H1420 H 0.56619 0.65647 0.60373 0.0
H1421 H 0.56582 0.6548 0.46153 0.0
C1422 C 0.56779 0.68396 0.81344 0.0
C1423 C 0.55066 0.67882 0.85633 0.0
C1424 C 0.56666 0.68038 0.73375 0.0
C1425 C 0.54843 0.67175 0.69547 0.0
C1426 C 0.53135 0.66666 0.73832 0.0
C1427 C 0.53244 0.67012 0.8178 0.0
C1428 C 0.53595 0.67434 0.48679 0.0
C1429 C 0.54678 0.66719 0.44755 0.0
C1430 C 0.53613 0.67527 0.56717 0.0
C1431 C 0.54726 0.66919 0.61038 0.0
C1432 C 0.55763 0.66142 0.57152 0.0
C1433 C 0.55726 0.66026 0.4905 0.0
H1434 H 0.33748 0.4898 0.86906 0.0
H1435 H 0.31704 0.42742 0.86184 0.0
H1436 H 0.3429 0.49177 0.72984 0.0
H1437 H 0.32239 0.42947 0.72198 0.0
H1438 H 0.35293 0.44572 0.48315 0.0
H1439 H 0.35095 0.44534 0.62514 0.0
H1440 H 0.32102 0.47885 0.61427 0.0
H1441 H 0.323 0.47927 0.47397 0.0
C1442 C 0.33402 0.47648 0.83774 0.0
C1443 C 0.32669 0.45842 0.87645 0.0
C1444 C 0.33716 0.47763 0.75806 0.0
C1445 C 0.33318 0.4608 0.71538 0.0
C1446 C 0.32583 0.44272 0.7538 0.0
C1447 C 0.32252 0.44151 0.83361 0.0
C1448 C 0.34626 0.45326 0.51147 0.0
C1449 C 0.33805 0.46245 0.46777 0.0
C1450 C 0.34495 0.45288 0.59237 0.0
C1451 C 0.33574 0.46198 0.63041 0.0
C1452 C 0.3283 0.47183 0.58656 0.0
C1453 C 0.32938 0.47199 0.5062 0.0
H1454 H 0.54993 0.91233 0.85889 0.0
H1455 H 0.57299 0.87258 0.85069 0.0
H1456 H 0.55014 0.91375 0.71869 0.0
H1457 H 0.57317 0.87402 0.70838 0.0
H1458 H 0.54046 0.86171 0.4676 0.0
H1459 H 0.54547 0.86213 0.60705 0.0
H1460 H 0.57369 0.92553 0.60735 0.0
H1461 H 0.56865 0.92523 0.468 0.0
C1462 C 0.55519 0.90398 0.82689 0.0
C1463 C 0.56127 0.89217 0.86545 0.0
C1464 C 0.55546 0.90494 0.74661 0.0
C1465 C 0.56164 0.89398 0.70286 0.0
C1466 C 0.56823 0.88252 0.74113 0.0
C1467 C 0.56824 0.88178 0.82216 0.0
C1468 C 0.54768 0.87575 0.49734 0.0
C1469 C 0.55396 0.89344 0.45678 0.0
C1470 C 0.55078 0.87598 0.57698 0.0
C1471 C 0.56005 0.89386 0.61766 0.0
C1472 C 0.56643 0.91153 0.57722 0.0
C1473 C 0.56348 0.91134 0.49754 0.0
H1474 H 0.13398 0.71228 0.47789 0.0
H1475 H 0.10655 0.64889 0.4855 0.0
H1476 H 0.13401 0.71356 0.61824 0.0
H1477 H 0.10668 0.65027 0.62766 0.0
H1478 H 0.13875 0.6687 0.86966 0.0
H1479 H 0.13497 0.6651 0.7295 0.0
H1480 H 0.10897 0.70228 0.72771 0.0
H1481 H 0.11268 0.70595 0.868 0.0
C1482 C 0.12791 0.69859 0.5097 0.0
C1483 C 0.12041 0.68047 0.471 0.0
C1484 C 0.12779 0.69935 0.58998 0.0
C1485 C 0.12036 0.68203 0.63333 0.0
C1486 C 0.11257 0.66382 0.59502 0.0
C1487 C 0.11241 0.66302 0.51412 0.0
C1488 C 0.1323 0.67619 0.83944 0.0
C1489 C 0.12615 0.68775 0.87979 0.0
C1490 C 0.12993 0.6739 0.75945 0.0
C1491 C 0.12157 0.6833 0.71837 0.0
C1492 C 0.11548 0.69491 0.75842 0.0
C1493 C 0.11766 0.69704 0.83852 0.0
loop_
_geom_bond_atom_site_label_1
_geom_bond_atom_site_label_2
_geom_bond_distance
_geom_bond_site_symmetry_2
_ccdc_geom_bond_type
O0 Zn1 1.953 . S
O0 C16 1.225 . S
Zn1 O0 1.953 . S
Zn1 O2 1.949 . S
Zn1 O8 1.919 . S
Zn1 O13 1.924 1_455 S
O2 Zn1 1.949 . S
O2 Zn3 1.923 . S
O2 Zn4 1.950 . S
O2 Zn5 1.945 1_455 S
Zn3 O2 1.923 . S
Zn3 O6 1.933 . S
Zn3 O9 1.941 . S
Zn3 O10 1.965 . S
Zn4 O2 1.950 . S
Zn4 O11 1.938 . S
Zn4 O12 1.906 1_455 S
Zn4 O22 1.953 1_455 S
Zn5 O2 1.945 1_655 S
Zn5 O7 1.932 1_655 S
Zn5 O14 1.977 . S
Zn5 O15 1.910 . S
O6 Zn3 1.933 . S
O6 C17 1.226 . S
O7 Zn5 1.932 1_455 S
O7 C17 1.307 . S
O8 Zn1 1.919 . S
O8 C19 1.253 . S
O9 Zn3 1.941 . S
O9 C19 1.283 . S
O10 Zn3 1.965 . S
O10 C18 1.303 . S
O11 Zn4 1.938 . S
O11 C18 1.247 . S
O12 Zn4 1.906 1_655 S
O12 C20 1.304 . S
O13 Zn1 1.924 1_655 S
O13 C21 1.311 . S
O14 Zn5 1.977 . S
O14 C20 1.272 . S
O15 Zn5 1.910 . S
O15 C21 1.231 . S
C16 O0 1.225 . S
C16 O22 1.275 1_455 S
C17 O6 1.226 . S
C17 O7 1.307 . S
C18 O10 1.303 . S
C18 O11 1.247 . S
C19 O8 1.253 . S
C19 O9 1.283 . S
C20 O12 1.304 . S
C20 O14 1.272 . S
C21 O13 1.311 . S
C21 O15 1.231 . S
O22 Zn4 1.953 1_655 S
O22 C16 1.275 1_655 S
O23 Zn24 1.953 . S
O23 C39 1.225 . S
Zn24 O23 1.953 . S
Zn24 O25 1.949 . S
Zn24 O31 1.919 . S
Zn24 O36 1.924 . S
O25 Zn24 1.949 . S
O25 Zn26 1.923 . S
O25 Zn27 1.950 . S
O25 Zn28 1.945 . S
Zn26 O25 1.923 . S
Zn26 O29 1.933 . S
Zn26 O32 1.941 . S
Zn26 O33 1.965 . S
Zn27 O25 1.950 . S
Zn27 O34 1.938 . S
Zn27 O35 1.906 . S
Zn27 O45 1.953 . S
Zn28 O25 1.945 . S
Zn28 O30 1.932 . S
Zn28 O37 1.977 . S
Zn28 O38 1.910 . S
O29 Zn26 1.933 . S
O29 C40 1.226 . S
O30 Zn28 1.932 . S
O30 C40 1.307 . S
O31 Zn24 1.919 . S
O31 C42 1.253 . S
O32 Zn26 1.941 . S
O32 C42 1.283 . S
O33 Zn26 1.965 . S
O33 C41 1.303 . S
O34 Zn27 1.938 . S
O34 C41 1.247 . S
O35 Zn27 1.906 . S
O35 C43 1.304 . S
O36 Zn24 1.924 . S
O36 C44 1.311 . S
O37 Zn28 1.977 . S
O37 C43 1.272 . S
O38 Zn28 1.910 . S
O38 C44 1.231 . S
C39 O23 1.225 . S
C39 O45 1.298 . S
C40 O29 1.226 . S
C40 O30 1.307 . S
C41 O33 1.303 . S
C41 O34 1.247 . S
C42 O31 1.253 . S
C42 O32 1.283 . S
C43 O35 1.304 . S
C43 O37 1.272 . S
C44 O36 1.311 . S
C44 O38 1.231 . S
O45 Zn27 1.953 . S
O45 C39 1.298 . S
O46 Zn47 1.953 . S
O46 C62 1.225 . S
Zn47 O46 1.953 . S
Zn47 O48 1.949 . S
Zn47 O54 1.919 1_545 S
Zn47 O59 1.924 . S
O48 Zn47 1.949 . S
O48 Zn49 1.923 1_545 S
O48 Zn50 1.950 . S
O48 Zn51 1.945 . S
Zn49 O48 1.923 1_565 S
Zn49 O52 1.933 . S
Zn49 O55 1.941 . S
Zn49 O56 1.965 . S
Zn50 O48 1.950 . S
Zn50 O57 1.914 1_545 S
Zn50 O58 1.906 . S
Zn50 O68 1.953 . S
Zn51 O48 1.945 . S
Zn51 O53 1.932 . S
Zn51 O60 1.977 . S
Zn51 O61 1.910 . S
O52 Zn49 1.933 . S
O52 C63 1.226 1_565 S
O53 Zn51 1.932 . S
O53 C63 1.307 . S
O54 Zn47 1.919 1_565 S
O54 C65 1.253 . S
O55 Zn49 1.941 . S
O55 C65 1.283 . S
O56 Zn49 1.965 . S
O56 C64 1.303 . S
O57 Zn50 1.914 1_565 S
O57 C64 1.266 . S
O58 Zn50 1.906 . S
O58 C66 1.304 . S
O59 Zn47 1.924 . S
O59 C67 1.311 . S
O60 Zn51 1.977 . S
O60 C66 1.272 . S
O61 Zn51 1.910 . S
O61 C67 1.231 . S
C62 O46 1.225 . S
C62 O68 1.298 . S
C63 O52 1.226 1_545 S
C63 O53 1.307 . S
C64 O56 1.303 . S
C64 O57 1.266 . S
C65 O54 1.253 . S
C65 O55 1.283 . S
C66 O58 1.304 . S
C66 O60 1.272 . S
C67 O59 1.311 . S
C67 O61 1.231 . S
O68 Zn50 1.953 . S
O68 C62 1.298 . S
O69 Zn70 1.953 . S
O69 C85 1.225 . S
Zn70 O69 1.953 . S
Zn70 O71 1.949 . S
Zn70 O77 1.919 . S
Zn70 O82 1.924 . S
O71 Zn70 1.949 . S
O71 Zn72 1.923 . S
O71 Zn73 1.950 1_455 S
O71 Zn74 1.945 . S
Zn72 O71 1.923 . S
Zn72 O75 1.933 . S
Zn72 O78 1.941 . S
Zn72 O79 1.965 1_455 S
Zn73 O71 1.950 1_655 S
Zn73 O80 1.938 . S
Zn73 O81 1.906 . S
Zn73 O91 1.953 1_655 S
Zn74 O71 1.945 . S
Zn74 O76 1.932 . S
Zn74 O83 1.977 1_455 S
Zn74 O84 1.910 . S
O75 Zn72 1.933 . S
O75 C86 1.226 . S
O76 Zn74 1.932 . S
O76 C86 1.307 . S
O77 Zn70 1.919 . S
O77 C88 1.253 . S
O78 Zn72 1.941 . S
O78 C88 1.283 . S
O79 Zn72 1.965 1_655 S
O79 C87 1.303 . S
O80 Zn73 1.938 . S
O80 C87 1.247 . S
O81 Zn73 1.906 . S
O81 C89 1.304 . S
O82 Zn70 1.924 . S
O82 C90 1.311 . S
O83 Zn74 1.977 1_655 S
O83 C89 1.272 . S
O84 Zn74 1.910 . S
O84 C90 1.231 . S
C85 O69 1.225 . S
C85 O91 1.298 . S
C86 O75 1.226 . S
C86 O76 1.307 . S
C87 O79 1.303 . S
C87 O80 1.247 . S
C88 O77 1.253 . S
C88 O78 1.283 . S
C89 O81 1.304 . S
C89 O83 1.272 . S
C90 O82 1.311 . S
C90 O84 1.231 . S
O91 Zn73 1.953 1_455 S
O91 C85 1.298 . S
O92 Zn93 1.953 . S
O92 C108 1.225 . S
Zn93 O92 1.953 . S
Zn93 O94 1.949 . S
Zn93 O100 1.919 . S
Zn93 O105 1.924 . S
O94 Zn93 1.949 . S
O94 Zn95 1.923 . S
O94 Zn96 1.950 . S
O94 Zn97 1.945 . S
Zn95 O94 1.923 . S
Zn95 O98 1.933 . S
Zn95 O101 1.941 . S
Zn95 O102 1.965 . S
Zn96 O94 1.950 . S
Zn96 O103 1.938 . S
Zn96 O104 1.906 . S
Zn96 O114 1.953 . S
Zn97 O94 1.945 . S
Zn97 O99 1.932 . S
Zn97 O106 1.977 . S
Zn97 O107 1.910 . S
O98 Zn95 1.933 . S
O98 C109 1.226 . S
O99 Zn97 1.932 . S
O99 C109 1.307 . S
O100 Zn93 1.919 . S
O100 C111 1.253 . S
O101 Zn95 1.941 . S
O101 C111 1.283 . S
O102 Zn95 1.965 . S
O102 C110 1.303 . S
O103 Zn96 1.938 . S
O103 C110 1.247 . S
O104 Zn96 1.906 . S
O104 C112 1.304 . S
O105 Zn93 1.924 . S
O105 C113 1.311 . S
O106 Zn97 1.977 . S
O106 C112 1.272 . S
O107 Zn97 1.910 . S
O107 C113 1.231 . S
C108 O92 1.225 . S
C108 O114 1.298 . S
C109 O98 1.226 . S
C109 O99 1.307 . S
C110 O102 1.303 . S
C110 O103 1.247 . S
C111 O100 1.253 . S
C111 O101 1.283 . S
C112 O104 1.304 . S
C112 O106 1.272 . S
C113 O105 1.311 . S
C113 O107 1.231 . S
O114 Zn96 1.953 . S
O114 C108 1.298 . S
O115 Zn116 1.953 . S
O115 C131 1.225 1_565 S
Zn116 O115 1.953 . S
Zn116 O117 1.949 1_565 S
Zn116 O123 1.919 . S
Zn116 O128 1.924 . S
O117 Zn116 1.949 1_545 S
O117 Zn118 1.923 . S
O117 Zn119 1.950 . S
O117 Zn120 1.945 . S
Zn118 O117 1.923 . S
Zn118 O121 1.933 . S
Zn118 O124 1.941 . S
Zn118 O125 1.965 . S
Zn119 O117 1.950 . S
Zn119 O126 1.938 . S
Zn119 O127 1.906 . S
Zn119 O137 1.953 . S
Zn120 O117 1.945 . S
Zn120 O122 1.932 . S
Zn120 O129 1.977 . S
Zn120 O130 1.910 1_545 S
O121 Zn118 1.933 . S
O121 C132 1.226 . S
O122 Zn120 1.932 . S
O122 C132 1.307 . S
O123 Zn116 1.919 . S
O123 C134 1.253 . S
O124 Zn118 1.941 . S
O124 C134 1.283 1_545 S
O125 Zn118 1.965 . S
O125 C133 1.303 . S
O126 Zn119 1.938 . S
O126 C133 1.247 . S
O127 Zn119 1.906 . S
O127 C135 1.304 . S
O128 Zn116 1.924 . S
O128 C136 1.311 . S
O129 Zn120 1.977 . S
O129 C135 1.272 . S
O130 Zn120 1.910 1_565 S
O130 C136 1.231 . S
C131 O115 1.225 1_545 S
C131 O137 1.298 . S
C132 O121 1.226 . S
C132 O122 1.307 . S
C133 O125 1.303 . S
C133 O126 1.247 . S
C134 O123 1.253 . S
C134 O124 1.283 1_565 S
C135 O127 1.304 . S
C135 O129 1.272 . S
C136 O128 1.311 . S
C136 O130 1.231 . S
O137 Zn119 1.953 . S
O137 C131 1.298 . S
O138 Zn139 1.953 1_554 S
O138 C154 1.225 . S
Zn139 O138 1.953 1_556 S
Zn139 O140 1.949 . S
Zn139 O146 1.919 . S
Zn139 O151 1.924 . S
O140 Zn139 1.949 . S
O140 Zn141 1.923 . S
O140 Zn142 1.950 . S
O140 Zn143 1.945 . S
Zn141 O140 1.923 . S
Zn141 O144 1.933 . S
Zn141 O147 1.941 . S
Zn141 O148 1.965 . S
Zn142 O140 1.950 . S
Zn142 O149 1.938 . S
Zn142 O150 1.906 . S
Zn142 O160 1.953 1_556 S
Zn143 O140 1.945 . S
Zn143 O145 1.932 . S
Zn143 O152 1.977 . S
Zn143 O153 1.910 . S
O144 Zn141 1.933 . S
O144 C155 1.226 . S
O145 Zn143 1.932 . S
O145 C155 1.307 . S
O146 Zn139 1.919 . S
O146 C157 1.253 . S
O147 Zn141 1.941 . S
O147 C157 1.283 . S
O148 Zn141 1.965 . S
O148 C156 1.303 . S
O149 Zn142 1.938 . S
O149 C156 1.247 . S
O150 Zn142 1.906 . S
O150 C158 1.304 . S
O151 Zn139 1.924 . S
O151 C159 1.311 . S
O152 Zn143 1.977 . S
O152 C158 1.272 . S
O153 Zn143 1.910 . S
O153 C159 1.231 . S
C154 O138 1.225 . S
C154 O160 1.298 . S
C155 O144 1.226 . S
C155 O145 1.307 . S
C156 O148 1.303 . S
C156 O149 1.247 . S
C157 O146 1.253 . S
C157 O147 1.283 . S
C158 O150 1.304 . S
C158 O152 1.272 . S
C159 O151 1.311 . S
C159 O153 1.231 . S
O160 Zn142 1.953 1_554 S
O160 C154 1.298 . S
O161 Zn162 1.953 1_554 S
O161 C177 1.225 . S
Zn162 O161 1.953 1_556 S
Zn162 O163 1.949 . S
Zn162 O169 1.919 . S
Zn162 O174 1.924 . S
O163 Zn162 1.949 . S
O163 Zn164 1.923 . S
O163 Zn165 1.950 . S
O163 Zn166 1.945 . S
Zn164 O163 1.923 . S
Zn164 O167 1.933 . S
Zn164 O170 1.941 . S
Zn164 O171 1.965 . S
Zn165 O163 1.950 . S
Zn165 O172 1.938 . S
Zn165 O173 1.906 . S
Zn165 O183 1.953 1_556 S
Zn166 O163 1.945 . S
Zn166 O168 1.932 . S
Zn166 O175 1.977 . S
Zn166 O176 1.910 . S
O167 Zn164 1.933 . S
O167 C178 1.226 . S
O168 Zn166 1.932 . S
O168 C178 1.307 . S
O169 Zn162 1.919 . S
O169 C180 1.253 . S
O170 Zn164 1.941 . S
O170 C180 1.283 . S
O171 Zn164 1.965 . S
O171 C179 1.303 . S
O172 Zn165 1.938 . S
O172 C179 1.247 . S
O173 Zn165 1.906 . S
O173 C181 1.304 . S
O174 Zn162 1.924 . S
O174 C182 1.311 . S
O175 Zn166 1.977 . S
O175 C181 1.272 . S
O176 Zn166 1.910 . S
O176 C182 1.231 . S
C177 O161 1.225 . S
C177 O183 1.298 . S
C178 O167 1.226 . S
C178 O168 1.307 . S
C179 O171 1.303 . S
C179 O172 1.247 . S
C180 O169 1.253 . S
C180 O170 1.283 . S
C181 O173 1.304 . S
C181 O175 1.272 . S
C182 O174 1.311 . S
C182 O176 1.231 . S
O183 Zn165 1.953 1_554 S
O183 C177 1.298 . S
O184 Zn185 1.953 1_554 S
O184 C200 1.225 . S
Zn185 O184 1.953 1_556 S
Zn185 O186 1.949 . S
Zn185 O192 1.919 . S
Zn185 O197 1.924 . S
O186 Zn185 1.949 . S
O186 Zn187 1.923 . S
O186 Zn188 1.950 . S
O186 Zn189 1.945 . S
Zn187 O186 1.923 . S
Zn187 O190 1.933 . S
Zn187 O193 1.941 . S
Zn187 O194 1.965 . S
Zn188 O186 1.950 . S
Zn188 O195 1.938 . S
Zn188 O196 1.906 . S
Zn188 O206 1.953 1_556 S
Zn189 O186 1.945 . S
Zn189 O191 1.932 . S
Zn189 O198 1.977 . S
Zn189 O199 1.910 . S
O190 Zn187 1.933 . S
O190 C201 1.226 . S
O191 Zn189 1.932 . S
O191 C201 1.307 . S
O192 Zn185 1.919 . S
O192 C203 1.253 . S
O193 Zn187 1.941 . S
O193 C203 1.283 . S
O194 Zn187 1.965 . S
O194 C202 1.303 . S
O195 Zn188 1.938 . S
O195 C202 1.247 . S
O196 Zn188 1.906 . S
O196 C204 1.304 . S
O197 Zn185 1.924 . S
O197 C205 1.311 . S
O198 Zn189 1.977 . S
O198 C204 1.272 . S
O199 Zn189 1.910 . S
O199 C205 1.231 . S
C200 O184 1.225 . S
C200 O206 1.298 . S
C201 O190 1.226 . S
C201 O191 1.307 . S
C202 O194 1.303 . S
C202 O195 1.247 . S
C203 O192 1.253 . S
C203 O193 1.283 . S
C204 O196 1.304 . S
C204 O198 1.272 . S
C205 O197 1.311 . S
C205 O199 1.231 . S
O206 Zn188 1.953 1_554 S
O206 C200 1.298 . S
O207 Zn208 1.953 . S
O207 C223 1.225 1_556 S
Zn208 O207 1.953 . S
Zn208 O209 1.949 . S
Zn208 O215 1.919 . S
Zn208 O220 1.924 . S
O209 Zn208 1.949 . S
O209 Zn210 1.923 . S
O209 Zn211 1.950 . S
O209 Zn212 1.945 . S
Zn210 O209 1.923 . S
Zn210 O213 1.933 . S
Zn210 O216 1.941 . S
Zn210 O217 1.965 . S
Zn211 O209 1.950 . S
Zn211 O218 1.938 . S
Zn211 O219 1.906 . S
Zn211 O229 1.953 1_556 S
Zn212 O209 1.945 . S
Zn212 O214 1.932 . S
Zn212 O221 1.977 . S
Zn212 O222 1.910 . S
O213 Zn210 1.933 . S
O213 C224 1.226 . S
O214 Zn212 1.932 . S
O214 C224 1.307 . S
O215 Zn208 1.919 . S
O215 C226 1.253 . S
O216 Zn210 1.941 . S
O216 C226 1.283 . S
O217 Zn210 1.965 . S
O217 C225 1.303 . S
O218 Zn211 1.938 . S
O218 C225 1.247 . S
O219 Zn211 1.906 . S
O219 C227 1.304 . S
O220 Zn208 1.924 . S
O220 C228 1.311 . S
O221 Zn212 1.977 . S
O221 C227 1.272 . S
O222 Zn212 1.910 . S
O222 C228 1.231 . S
C223 O207 1.225 1_554 S
C223 O229 1.298 . S
C224 O213 1.226 . S
C224 O214 1.307 . S
C225 O217 1.303 . S
C225 O218 1.247 . S
C226 O215 1.253 . S
C226 O216 1.283 . S
C227 O219 1.304 . S
C227 O221 1.272 . S
C228 O220 1.311 . S
C228 O222 1.231 . S
O229 Zn211 1.953 1_554 S
O229 C223 1.298 . S
O230 Zn231 1.953 . S
O230 C246 1.225 1_556 S
Zn231 O230 1.953 . S
Zn231 O232 1.949 . S
Zn231 O238 1.919 . S
Zn231 O243 1.924 . S
O232 Zn231 1.949 . S
O232 Zn233 1.923 . S
O232 Zn234 1.950 . S
O232 Zn235 1.945 . S
Zn233 O232 1.923 . S
Zn233 O236 1.933 . S
Zn233 O239 1.941 . S
Zn233 O240 1.965 . S
Zn234 O232 1.950 . S
Zn234 O241 1.938 . S
Zn234 O242 1.906 . S
Zn234 O252 1.953 1_556 S
Zn235 O232 1.945 . S
Zn235 O237 1.932 . S
Zn235 O244 1.977 . S
Zn235 O245 1.910 . S
O236 Zn233 1.933 . S
O236 C247 1.226 . S
O237 Zn235 1.932 . S
O237 C247 1.307 . S
O238 Zn231 1.919 . S
O238 C249 1.253 . S
O239 Zn233 1.941 . S
O239 C249 1.283 . S
O240 Zn233 1.965 . S
O240 C248 1.303 . S
O241 Zn234 1.938 . S
O241 C248 1.247 . S
O242 Zn234 1.906 . S
O242 C250 1.304 . S
O243 Zn231 1.924 . S
O243 C251 1.311 . S
O244 Zn235 1.977 . S
O244 C250 1.272 . S
O245 Zn235 1.910 . S
O245 C251 1.231 . S
C246 O230 1.225 1_554 S
C246 O252 1.298 . S
C247 O236 1.226 . S
C247 O237 1.307 . S
C248 O240 1.303 . S
C248 O241 1.247 . S
C249 O238 1.253 . S
C249 O239 1.283 . S
C250 O242 1.304 . S
C250 O244 1.272 . S
C251 O243 1.311 . S
C251 O245 1.231 . S
O252 Zn234 1.953 1_554 S
O252 C246 1.298 . S
O253 Zn254 1.953 . S
O253 C269 1.225 1_556 S
Zn254 O253 1.953 . S
Zn254 O255 1.949 . S
Zn254 O261 1.919 . S
Zn254 O266 1.924 . S
O255 Zn254 1.949 . S
O255 Zn256 1.923 . S
O255 Zn257 1.950 . S
O255 Zn258 1.945 . S
Zn256 O255 1.923 . S
Zn256 O259 1.933 . S
Zn256 O262 1.941 . S
Zn256 O263 1.965 . S
Zn257 O255 1.950 . S
Zn257 O264 1.938 . S
Zn257 O265 1.906 . S
Zn257 O275 1.953 1_556 S
Zn258 O255 1.945 . S
Zn258 O260 1.932 . S
Zn258 O267 1.977 . S
Zn258 O268 1.910 . S
O259 Zn256 1.933 . S
O259 C270 1.226 . S
O260 Zn258 1.932 . S
O260 C270 1.307 . S
O261 Zn254 1.919 . S
O261 C272 1.253 . S
O262 Zn256 1.941 . S
O262 C272 1.283 . S
O263 Zn256 1.965 . S
O263 C271 1.303 . S
O264 Zn257 1.938 . S
O264 C271 1.247 . S
O265 Zn257 1.906 . S
O265 C273 1.304 . S
O266 Zn254 1.924 . S
O266 C274 1.311 . S
O267 Zn258 1.977 . S
O267 C273 1.272 . S
O268 Zn258 1.910 . S
O268 C274 1.231 . S
C269 O253 1.225 1_554 S
C269 O275 1.298 . S
C270 O259 1.226 . S
C270 O260 1.307 . S
C271 O263 1.303 . S
C271 O264 1.247 . S
C272 O261 1.253 . S
C272 O262 1.283 . S
C273 O265 1.304 . S
C273 O267 1.272 . S
C274 O266 1.311 . S
C274 O268 1.231 . S
O275 Zn257 1.953 1_554 S
O275 C269 1.298 . S
O276 Zn277 1.953 1_556 S
O276 C292 1.225 . S
Zn277 O276 1.953 1_554 S
Zn277 O278 1.949 . S
Zn277 O284 1.919 . S
Zn277 O289 1.924 . S
O278 Zn277 1.949 . S
O278 Zn279 1.923 . S
O278 Zn280 1.950 . S
O278 Zn281 1.945 . S
Zn279 O278 1.923 . S
Zn279 O282 1.933 . S
Zn279 O285 1.941 . S
Zn279 O286 1.965 . S
Zn280 O278 1.950 . S
Zn280 O287 1.938 . S
Zn280 O288 1.906 . S
Zn280 O298 1.953 1_554 S
Zn281 O278 1.945 . S
Zn281 O283 1.932 . S
Zn281 O290 1.977 . S
Zn281 O291 1.910 . S
O282 Zn279 1.933 . S
O282 C293 1.226 . S
O283 Zn281 1.932 . S
O283 C293 1.307 . S
O284 Zn277 1.919 . S
O284 C295 1.253 . S
O285 Zn279 1.941 . S
O285 C295 1.283 . S
O286 Zn279 1.965 . S
O286 C294 1.303 . S
O287 Zn280 1.938 . S
O287 C294 1.247 . S
O288 Zn280 1.906 . S
O288 C296 1.304 . S
O289 Zn277 1.924 . S
O289 C297 1.311 . S
O290 Zn281 1.977 . S
O290 C296 1.272 . S
O291 Zn281 1.910 . S
O291 C297 1.231 . S
C292 O276 1.225 . S
C292 O298 1.298 . S
C293 O282 1.226 . S
C293 O283 1.307 . S
C294 O286 1.303 . S
C294 O287 1.247 . S
C295 O284 1.253 . S
C295 O285 1.283 . S
C296 O288 1.304 . S
C296 O290 1.272 . S
C297 O289 1.311 . S
C297 O291 1.231 . S
O298 Zn280 1.953 1_556 S
O298 C292 1.298 . S
O299 Zn300 1.953 . S
O299 C315 1.225 . S
Zn300 O299 1.953 . S
Zn300 O301 1.949 . S
Zn300 O307 1.919 . S
Zn300 O312 1.924 . S
O301 Zn300 1.949 . S
O301 Zn302 1.923 . S
O301 Zn303 1.950 . S
O301 Zn304 1.945 . S
Zn302 O301 1.923 . S
Zn302 O305 1.933 1_554 S
Zn302 O308 1.941 . S
Zn302 O309 1.965 . S
Zn303 O301 1.950 . S
Zn303 O310 1.938 . S
Zn303 O311 1.906 . S
Zn303 O321 1.953 . S
Zn304 O301 1.945 . S
Zn304 O306 1.932 1_554 S
Zn304 O313 1.977 . S
Zn304 O314 1.910 . S
O305 Zn302 1.933 1_556 S
O305 C316 1.226 . S
O306 Zn304 1.932 1_556 S
O306 C316 1.307 . S
O307 Zn300 1.919 . S
O307 C318 1.253 . S
O308 Zn302 1.941 . S
O308 C318 1.283 . S
O309 Zn302 1.965 . S
O309 C317 1.303 . S
O310 Zn303 1.938 . S
O310 C317 1.247 . S
O311 Zn303 1.906 . S
O311 C319 1.304 . S
O312 Zn300 1.924 . S
O312 C320 1.311 . S
O313 Zn304 1.977 . S
O313 C319 1.272 . S
O314 Zn304 1.910 . S
O314 C320 1.231 . S
C315 O299 1.225 . S
C315 O321 1.298 . S
C316 O305 1.226 . S
C316 O306 1.307 . S
C317 O309 1.303 . S
C317 O310 1.247 . S
C318 O307 1.253 . S
C318 O308 1.283 . S
C319 O311 1.304 . S
C319 O313 1.272 . S
C320 O312 1.311 . S
C320 O314 1.231 . S
O321 Zn303 1.953 . S
O321 C315 1.298 . S
O322 Zn323 1.953 1_556 S
O322 C338 1.225 . S
Zn323 O322 1.953 1_554 S
Zn323 O324 1.949 . S
Zn323 O330 1.919 . S
Zn323 O335 1.924 . S
O324 Zn323 1.949 . S
O324 Zn325 1.923 . S
O324 Zn326 1.950 . S
O324 Zn327 1.945 . S
Zn325 O324 1.923 . S
Zn325 O328 1.933 . S
Zn325 O331 1.941 . S
Zn325 O332 1.965 . S
Zn326 O324 1.950 . S
Zn326 O333 1.938 . S
Zn326 O334 1.906 . S
Zn326 O344 1.953 1_554 S
Zn327 O324 1.945 . S
Zn327 O329 1.932 . S
Zn327 O336 1.977 . S
Zn327 O337 1.910 . S
O328 Zn325 1.933 . S
O328 C339 1.226 . S
O329 Zn327 1.932 . S
O329 C339 1.307 . S
O330 Zn323 1.919 . S
O330 C341 1.253 . S
O331 Zn325 1.941 . S
O331 C341 1.283 . S
O332 Zn325 1.965 . S
O332 C340 1.303 . S
O333 Zn326 1.938 . S
O333 C340 1.247 . S
O334 Zn326 1.906 . S
O334 C342 1.304 . S
O335 Zn323 1.924 . S
O335 C343 1.311 . S
O336 Zn327 1.977 . S
O336 C342 1.272 . S
O337 Zn327 1.910 . S
O337 C343 1.231 . S
C338 O322 1.225 . S
C338 O344 1.298 . S
C339 O328 1.226 . S
C339 O329 1.307 . S
C340 O332 1.303 . S
C340 O333 1.247 . S
C341 O330 1.253 . S
C341 O331 1.283 . S
C342 O334 1.304 . S
C342 O336 1.272 . S
C343 O335 1.311 . S
C343 O337 1.231 . S
O344 Zn326 1.953 1_556 S
O344 C338 1.298 . S
O345 Zn346 1.953 . S
O345 C361 1.225 . S
Zn346 O345 1.953 . S
Zn346 O347 1.949 . S
Zn346 O353 1.919 . S
Zn346 O358 1.924 . S
O347 Zn346 1.949 . S
O347 Zn348 1.923 . S
O347 Zn349 1.950 . S
O347 Zn350 1.945 . S
Zn348 O347 1.923 . S
Zn348 O351 1.933 1_554 S
Zn348 O354 1.941 . S
Zn348 O355 1.965 . S
Zn349 O347 1.950 . S
Zn349 O356 1.938 . S
Zn349 O357 1.906 . S
Zn349 O367 1.953 . S
Zn350 O347 1.945 . S
Zn350 O352 1.932 1_554 S
Zn350 O359 1.977 . S
Zn350 O360 1.910 . S
O351 Zn348 1.933 1_556 S
O351 C362 1.226 . S
O352 Zn350 1.932 1_556 S
O352 C362 1.307 . S
O353 Zn346 1.919 . S
O353 C364 1.253 . S
O354 Zn348 1.941 . S
O354 C364 1.283 . S
O355 Zn348 1.965 . S
O355 C363 1.303 . S
O356 Zn349 1.938 . S
O356 C363 1.247 . S
O357 Zn349 1.906 . S
O357 C365 1.304 . S
O358 Zn346 1.924 . S
O358 C366 1.311 . S
O359 Zn350 1.977 . S
O359 C365 1.272 . S
O360 Zn350 1.910 . S
O360 C366 1.231 . S
C361 O345 1.225 . S
C361 O367 1.298 . S
C362 O351 1.226 . S
C362 O352 1.307 . S
C363 O355 1.303 . S
C363 O356 1.247 . S
C364 O353 1.253 . S
C364 O354 1.283 . S
C365 O357 1.304 . S
C365 O359 1.272 . S
C366 O358 1.311 . S
C366 O360 1.231 . S
O367 Zn349 1.953 . S
O367 C361 1.298 . S
O368 Zn369 1.953 . S
O368 C384 1.225 1_554 S
Zn369 O368 1.953 . S
Zn369 O370 1.949 . S
Zn369 O376 1.919 . S
Zn369 O381 1.924 . S
O370 Zn369 1.949 . S
O370 Zn371 1.923 . S
O370 Zn372 1.950 . S
O370 Zn373 1.945 . S
Zn371 O370 1.923 . S
Zn371 O374 1.933 . S
Zn371 O377 1.941 . S
Zn371 O378 1.965 . S
Zn372 O370 1.950 . S
Zn372 O379 1.938 . S
Zn372 O380 1.906 . S
Zn372 O390 1.953 1_554 S
Zn373 O370 1.945 . S
Zn373 O375 1.932 . S
Zn373 O382 1.977 . S
Zn373 O383 1.910 . S
O374 Zn371 1.933 . S
O374 C385 1.226 . S
O375 Zn373 1.932 . S
O375 C385 1.307 . S
O376 Zn369 1.919 . S
O376 C387 1.253 . S
O377 Zn371 1.941 . S
O377 C387 1.283 . S
O378 Zn371 1.965 . S
O378 C386 1.303 . S
O379 Zn372 1.938 . S
O379 C386 1.247 . S
O380 Zn372 1.906 . S
O380 C388 1.304 . S
O381 Zn369 1.924 . S
O381 C389 1.311 . S
O382 Zn373 1.977 . S
O382 C388 1.272 . S
O383 Zn373 1.910 . S
O383 C389 1.231 . S
C384 O368 1.225 1_556 S
C384 O390 1.298 . S
C385 O374 1.226 . S
C385 O375 1.307 . S
C386 O378 1.303 . S
C386 O379 1.247 . S
C387 O376 1.253 . S
C387 O377 1.283 . S
C388 O380 1.304 . S
C388 O382 1.272 . S
C389 O381 1.311 . S
C389 O383 1.231 . S
O390 Zn372 1.953 1_556 S
O390 C384 1.298 . S
O391 Zn392 1.953 . S
O391 C407 1.225 . S
Zn392 O391 1.953 . S
Zn392 O393 1.949 . S
Zn392 O399 1.919 . S
Zn392 O404 1.924 . S
O393 Zn392 1.949 . S
O393 Zn394 1.923 . S
O393 Zn395 1.950 . S
O393 Zn396 1.945 . S
Zn394 O393 1.923 . S
Zn394 O397 1.933 1_554 S
Zn394 O400 1.941 . S
Zn394 O401 1.965 . S
Zn395 O393 1.950 . S
Zn395 O402 1.938 . S
Zn395 O403 1.906 . S
Zn395 O413 1.953 . S
Zn396 O393 1.945 . S
Zn396 O398 1.932 1_554 S
Zn396 O405 1.977 . S
Zn396 O406 1.910 . S
O397 Zn394 1.933 1_556 S
O397 C408 1.226 . S
O398 Zn396 1.932 1_556 S
O398 C408 1.307 . S
O399 Zn392 1.919 . S
O399 C410 1.253 . S
O400 Zn394 1.941 . S
O400 C410 1.283 . S
O401 Zn394 1.965 . S
O401 C409 1.303 . S
O402 Zn395 1.938 . S
O402 C409 1.247 . S
O403 Zn395 1.906 . S
O403 C411 1.304 . S
O404 Zn392 1.924 . S
O404 C412 1.311 . S
O405 Zn396 1.977 . S
O405 C411 1.272 . S
O406 Zn396 1.910 . S
O406 C412 1.231 . S
C407 O391 1.225 . S
C407 O413 1.298 . S
C408 O397 1.226 . S
C408 O398 1.307 . S
C409 O401 1.303 . S
C409 O402 1.247 . S
C410 O399 1.253 . S
C410 O400 1.283 . S
C411 O403 1.304 . S
C411 O405 1.272 . S
C412 O404 1.311 . S
C412 O406 1.231 . S
O413 Zn395 1.953 . S
O413 C407 1.298 . S
H414 C422 0.950 . S
H415 C427 0.950 . S
H416 C424 0.950 . S
H417 C426 0.950 . S
H418 C428 0.950 . S
H419 C430 0.950 . S
H420 C432 0.950 . S
H421 C433 0.950 . S
C422 H414 0.950 . S
C422 C423 1.386 . S
C422 C424 1.391 . S
C423 C422 1.386 . S
C423 C427 1.393 . S
C424 H416 0.950 . S
C424 C422 1.391 . S
C424 C425 1.400 . S
C425 C424 1.400 . S
C425 C426 1.398 . S
C425 C431 1.491 . S
C426 H417 0.950 . S
C426 C425 1.398 . S
C426 C427 1.391 . S
C427 H415 0.950 . S
C427 C423 1.393 . S
C427 C426 1.391 . S
C428 H418 0.950 . S
C428 C429 1.386 . S
C428 C430 1.391 . S
C429 C428 1.386 . S
C429 C433 1.393 . S
C430 H419 0.950 . S
C430 C428 1.391 . S
C430 C431 1.400 . S
C431 C425 1.491 . S
C431 C430 1.400 . S
C431 C432 1.398 . S
C432 H420 0.950 . S
C432 C431 1.398 . S
C432 C433 1.391 . S
C433 H421 0.950 . S
C433 C429 1.393 . S
C433 C432 1.391 . S
H434 C442 0.950 . S
H435 C447 0.950 . S
H436 C444 0.950 . S
H437 C446 0.950 . S
H438 C448 0.950 . S
H439 C450 0.950 . S
H440 C452 0.950 . S
H441 C453 0.950 . S
C442 H434 0.950 . S
C442 C443 1.386 . S
C442 C444 1.391 . S
C443 C442 1.386 . S
C443 C447 1.393 . S
C444 H436 0.950 . S
C444 C442 1.391 . S
C444 C445 1.400 . S
C445 C444 1.400 . S
C445 C446 1.398 . S
C445 C451 1.491 . S
C446 H437 0.950 . S
C446 C445 1.398 . S
C446 C447 1.391 . S
C447 H435 0.950 . S
C447 C443 1.393 . S
C447 C446 1.391 . S
C448 H438 0.950 . S
C448 C449 1.386 . S
C448 C450 1.391 . S
C449 C448 1.386 . S
C449 C453 1.393 . S
C450 H439 0.950 . S
C450 C448 1.391 . S
C450 C451 1.400 . S
C451 C445 1.491 . S
C451 C450 1.400 . S
C451 C452 1.398 . S
C452 H440 0.950 . S
C452 C451 1.398 . S
C452 C453 1.391 . S
C453 H441 0.950 . S
C453 C449 1.393 . S
C453 C452 1.391 . S
H454 C462 0.950 . S
H455 C467 0.950 . S
H456 C464 0.950 . S
H457 C466 0.950 . S
H458 C468 0.950 . S
H459 C470 0.950 . S
H460 C472 0.950 . S
H461 C473 0.950 . S
C462 H454 0.950 . S
C462 C463 1.386 . S
C462 C464 1.391 . S
C463 C462 1.386 . S
C463 C467 1.393 . S
C464 H456 0.950 . S
C464 C462 1.391 . S
C464 C465 1.400 . S
C465 C464 1.400 . S
C465 C466 1.398 . S
C465 C471 1.491 . S
C466 H457 0.950 . S
C466 C465 1.398 . S
C466 C467 1.391 . S
C467 H455 0.950 . S
C467 C463 1.393 . S
C467 C466 1.391 . S
C468 H458 0.950 . S
C468 C469 1.386 . S
C468 C470 1.391 . S
C469 C468 1.386 . S
C469 C473 1.393 . S
C470 H459 0.950 . S
C470 C468 1.391 . S
C470 C471 1.400 . S
C471 C465 1.491 . S
C471 C470 1.400 . S
C471 C472 1.398 . S
C472 H460 0.950 . S
C472 C471 1.398 . S
C472 C473 1.391 . S
C473 H461 0.950 . S
C473 C469 1.393 . S
C473 C472 1.391 . S
H474 C482 0.950 . S
H475 C487 0.950 . S
H476 C484 0.950 . S
H477 C486 0.950 . S
H478 C488 0.950 . S
H479 C490 0.950 . S
H480 C492 0.950 . S
H481 C493 0.950 . S
C482 H474 0.950 . S
C482 C483 1.386 . S
C482 C484 1.391 . S
C483 C482 1.386 . S
C483 C487 1.393 . S
C484 H476 0.950 . S
C484 C482 1.391 . S
C484 C485 1.400 . S
C485 C484 1.400 . S
C485 C486 1.398 . S
C485 C491 1.491 . S
C486 H477 0.950 . S
C486 C485 1.398 . S
C486 C487 1.391 . S
C487 H475 0.950 . S
C487 C483 1.393 . S
C487 C486 1.391 . S
C488 H478 0.950 . S
C488 C489 1.386 . S
C488 C490 1.391 . S
C489 C488 1.386 . S
C489 C493 1.393 . S
C490 H479 0.950 . S
C490 C488 1.391 . S
C490 C491 1.400 . S
C491 C485 1.491 . S
C491 C490 1.400 . S
C491 C492 1.398 . S
C492 H480 0.950 . S
C492 C491 1.398 . S
C492 C493 1.391 . S
C493 H481 0.950 . S
C493 C489 1.393 . S
C493 C492 1.391 . S
H494 C502 0.950 . S
H495 C507 0.950 . S
H496 C504 0.950 . S
H497 C506 0.950 . S
H498 C508 0.950 . S
H499 C510 0.950 . S
H500 C512 0.950 . S
H501 C513 0.950 . S
C502 H494 0.950 . S
C502 C503 1.386 . S
C502 C504 1.391 . S
C503 C502 1.386 . S
C503 C507 1.393 . S
C504 H496 0.950 . S
C504 C502 1.391 . S
C504 C505 1.400 . S
C505 C504 1.400 . S
C505 C506 1.398 . S
C505 C511 1.491 . S
C506 H497 0.950 . S
C506 C505 1.398 . S
C506 C507 1.391 . S
C507 H495 0.950 . S
C507 C503 1.393 . S
C507 C506 1.391 . S
C508 H498 0.950 . S
C508 C509 1.386 . S
C508 C510 1.391 . S
C509 C508 1.386 . S
C509 C513 1.393 . S
C510 H499 0.950 . S
C510 C508 1.391 . S
C510 C511 1.400 . S
C511 C505 1.491 . S
C511 C510 1.400 . S
C511 C512 1.398 . S
C512 H500 0.950 . S
C512 C511 1.398 . S
C512 C513 1.391 . S
C513 H501 0.950 . S
C513 C509 1.393 . S
C513 C512 1.391 . S
H514 C522 0.950 . S
H515 C527 0.950 . S
H516 C524 0.950 . S
H517 C526 0.950 . S
H518 C528 0.950 . S
H519 C530 0.950 . S
H520 C532 0.950 . S
H521 C533 0.950 . S
C522 H514 0.950 . S
C522 C523 1.386 . S
C522 C524 1.391 . S
C523 C522 1.386 . S
C523 C527 1.393 . S
C524 H516 0.950 . S
C524 C522 1.391 . S
C524 C525 1.400 . S
C525 C524 1.400 . S
C525 C526 1.398 . S
C525 C531 1.491 . S
C526 H517 0.950 . S
C526 C525 1.398 . S
C526 C527 1.391 . S
C527 H515 0.950 . S
C527 C523 1.393 . S
C527 C526 1.391 . S
C528 H518 0.950 . S
C528 C529 1.386 . S
C528 C530 1.391 . S
C529 C528 1.386 . S
C529 C533 1.393 . S
C530 H519 0.950 . S
C530 C528 1.391 . S
C530 C531 1.400 . S
C531 C525 1.491 . S
C531 C530 1.400 . S
C531 C532 1.398 . S
C532 H520 0.950 . S
C532 C531 1.398 . S
C532 C533 1.391 . S
C533 H521 0.950 . S
C533 C529 1.393 . S
C533 C532 1.391 . S
H534 C542 0.950 . S
H535 C547 0.950 . S
H536 C544 0.950 . S
H537 C546 0.950 . S
H538 C548 0.950 . S
H539 C550 0.950 . S
H540 C552 0.950 . S
H541 C553 0.950 . S
C542 H534 0.950 . S
C542 C543 1.386 . S
C542 C544 1.391 . S
C543 C542 1.386 . S
C543 C547 1.393 . S
C544 H536 0.950 . S
C544 C542 1.391 . S
C544 C545 1.400 . S
C545 C544 1.400 . S
C545 C546 1.398 . S
C545 C551 1.491 . S
C546 H537 0.950 . S
C546 C545 1.398 . S
C546 C547 1.391 . S
C547 H535 0.950 . S
C547 C543 1.393 . S
C547 C546 1.391 . S
C548 H538 0.950 . S
C548 C549 1.386 . S
C548 C550 1.391 . S
C549 C548 1.386 . S
C549 C553 1.393 . S
C550 H539 0.950 . S
C550 C548 1.391 . S
C550 C551 1.400 . S
C551 C545 1.491 . S
C551 C550 1.400 . S
C551 C552 1.398 . S
C552 H540 0.950 . S
C552 C551 1.398 . S
C552 C553 1.391 . S
C553 H541 0.950 . S
C553 C549 1.393 . S
C553 C552 1.391 . S
H554 C562 0.950 . S
H555 C567 0.950 . S
H556 C564 0.950 . S
H557 C566 0.950 . S
H558 C568 0.950 . S
H559 C570 0.950 . S
H560 C572 0.950 . S
H561 C573 0.950 . S
C562 H554 0.950 . S
C562 C563 1.386 . S
C562 C564 1.391 . S
C563 C562 1.386 . S
C563 C567 1.393 . S
C564 H556 0.950 . S
C564 C562 1.391 . S
C564 C565 1.400 . S
C565 C564 1.400 . S
C565 C566 1.398 . S
C565 C571 1.491 . S
C566 H557 0.950 . S
C566 C565 1.398 . S
C566 C567 1.391 . S
C567 H555 0.950 . S
C567 C563 1.393 . S
C567 C566 1.391 . S
C568 H558 0.950 . S
C568 C569 1.386 . S
C568 C570 1.391 . S
C569 C568 1.386 . S
C569 C573 1.393 . S
C570 H559 0.950 . S
C570 C568 1.391 . S
C570 C571 1.400 . S
C571 C565 1.491 . S
C571 C570 1.400 . S
C571 C572 1.398 . S
C572 H560 0.950 . S
C572 C571 1.398 . S
C572 C573 1.391 . S
C573 H561 0.950 . S
C573 C569 1.393 . S
C573 C572 1.391 . S
H574 C582 0.950 . S
H575 C587 0.950 . S
H576 C584 0.950 . S
H577 C586 0.950 . S
H578 C588 0.950 . S
H579 C590 0.950 . S
H580 C592 0.950 . S
H581 C593 0.950 . S
C582 H574 0.950 . S
C582 C583 1.386 . S
C582 C584 1.391 . S
C583 C582 1.386 . S
C583 C587 1.393 . S
C584 H576 0.950 . S
C584 C582 1.391 . S
C584 C585 1.400 . S
C585 C584 1.400 . S
C585 C586 1.398 . S
C585 C591 1.491 . S
C586 H577 0.950 . S
C586 C585 1.398 . S
C586 C587 1.391 . S
C587 H575 0.950 . S
C587 C583 1.393 . S
C587 C586 1.391 . S
C588 H578 0.950 . S
C588 C589 1.386 . S
C588 C590 1.391 . S
C589 C588 1.386 . S
C589 C593 1.393 . S
C590 H579 0.950 . S
C590 C588 1.391 . S
C590 C591 1.400 . S
C591 C585 1.491 . S
C591 C590 1.400 . S
C591 C592 1.398 . S
C592 H580 0.950 . S
C592 C591 1.398 . S
C592 C593 1.391 . S
C593 H581 0.950 . S
C593 C589 1.393 . S
C593 C592 1.391 . S
H594 C602 0.950 . S
H595 C607 0.950 . S
H596 C604 0.950 . S
H597 C606 0.950 . S
H598 C608 0.950 . S
H599 C610 0.950 . S
H600 C612 0.950 . S
H601 C613 0.950 . S
C602 H594 0.950 . S
C602 C603 1.386 . S
C602 C604 1.391 . S
C603 C602 1.386 . S
C603 C607 1.393 . S
C604 H596 0.950 . S
C604 C602 1.391 . S
C604 C605 1.400 . S
C605 C604 1.400 . S
C605 C606 1.398 . S
C605 C611 1.491 . S
C606 H597 0.950 . S
C606 C605 1.398 . S
C606 C607 1.391 . S
C607 H595 0.950 . S
C607 C603 1.393 . S
C607 C606 1.391 . S
C608 H598 0.950 . S
C608 C609 1.386 . S
C608 C610 1.391 . S
C609 C608 1.386 . S
C609 C613 1.393 . S
C610 H599 0.950 . S
C610 C608 1.391 . S
C610 C611 1.400 . S
C611 C605 1.491 . S
C611 C610 1.400 . S
C611 C612 1.398 . S
C612 H600 0.950 . S
C612 C611 1.398 . S
C612 C613 1.391 . S
C613 H601 0.950 . S
C613 C609 1.393 . S
C613 C612 1.391 . S
H614 C622 0.950 . S
H615 C627 0.950 . S
H616 C624 0.950 . S
H617 C626 0.950 . S
H618 C628 0.950 . S
H619 C630 0.950 . S
H620 C632 0.950 . S
H621 C633 0.950 . S
C622 H614 0.950 . S
C622 C623 1.386 . S
C622 C624 1.391 . S
C623 C622 1.386 . S
C623 C627 1.393 . S
C624 H616 0.950 . S
C624 C622 1.391 . S
C624 C625 1.400 . S
C625 C624 1.400 . S
C625 C626 1.398 . S
C625 C631 1.491 . S
C626 H617 0.950 . S
C626 C625 1.398 . S
C626 C627 1.391 . S
C627 H615 0.950 . S
C627 C623 1.393 . S
C627 C626 1.391 . S
C628 H618 0.950 . S
C628 C629 1.386 . S
C628 C630 1.391 . S
C629 C628 1.386 . S
C629 C633 1.393 . S
C630 H619 0.950 . S
C630 C628 1.391 . S
C630 C631 1.400 . S
C631 C625 1.491 . S
C631 C630 1.400 . S
C631 C632 1.398 . S
C632 H620 0.950 . S
C632 C631 1.398 . S
C632 C633 1.391 . S
C633 H621 0.950 . S
C633 C629 1.393 . S
C633 C632 1.391 . S
H634 C642 0.950 . S
H635 C647 0.950 . S
H636 C644 0.950 . S
H637 C646 0.950 . S
H638 C648 0.950 . S
H639 C650 0.950 . S
H640 C652 0.950 . S
H641 C653 0.950 . S
C642 H634 0.950 . S
C642 C643 1.386 . S
C642 C644 1.391 . S
C643 C642 1.386 . S
C643 C647 1.393 . S
C644 H636 0.950 . S
C644 C642 1.391 . S
C644 C645 1.400 . S
C645 C644 1.400 . S
C645 C646 1.398 . S
C645 C651 1.491 . S
C646 H637 0.950 . S
C646 C645 1.398 . S
C646 C647 1.391 . S
C647 H635 0.950 . S
C647 C643 1.393 . S
C647 C646 1.391 . S
C648 H638 0.950 . S
C648 C649 1.386 . S
C648 C650 1.391 . S
C649 C648 1.386 . S
C649 C653 1.393 . S
C650 H639 0.950 . S
C650 C648 1.391 . S
C650 C651 1.400 . S
C651 C645 1.491 . S
C651 C650 1.400 . S
C651 C652 1.398 . S
C652 H640 0.950 . S
C652 C651 1.398 . S
C652 C653 1.391 . S
C653 H641 0.950 . S
C653 C649 1.393 . S
C653 C652 1.391 . S
H654 C662 0.950 . S
H655 C667 0.950 . S
H656 C664 0.950 1_455 S
H657 C666 0.950 . S
H658 C668 0.950 . S
H659 C670 0.950 . S
H660 C672 0.950 . S
H661 C673 0.950 . S
C662 H654 0.950 . S
C662 C663 1.386 . S
C662 C664 1.391 . S
C663 C662 1.386 . S
C663 C667 1.393 . S
C664 H656 0.950 1_655 S
C664 C662 1.391 . S
C664 C665 1.421 . S
C665 C664 1.421 . S
C665 C666 1.408 1_556 S
C665 C671 1.462 1_656 S
C666 H657 0.950 . S
C666 C665 1.408 1_554 S
C666 C667 1.391 1_554 S
C667 H655 0.950 . S
C667 C663 1.393 . S
C667 C666 1.391 1_556 S
C668 H658 0.950 . S
C668 C669 1.386 . S
C668 C670 1.391 . S
C669 C668 1.386 . S
C669 C673 1.393 . S
C670 H659 0.950 . S
C670 C668 1.391 . S
C670 C671 1.400 . S
C671 C665 1.462 1_454 S
C671 C670 1.400 . S
C671 C672 1.398 1_554 S
C672 H660 0.950 . S
C672 C671 1.398 1_556 S
C672 C673 1.391 1_556 S
C673 H661 0.950 . S
C673 C669 1.393 . S
C673 C672 1.391 1_554 S
H674 C682 0.950 . S
H675 C687 0.950 . S
H676 C684 0.950 . S
H677 C686 0.950 . S
H678 C688 0.950 . S
H679 C690 0.950 . S
H680 C692 0.950 . S
H681 C693 0.950 . S
C682 H674 0.950 . S
C682 C683 1.386 . S
C682 C684 1.391 . S
C683 C682 1.386 . S
C683 C687 1.393 . S
C684 H676 0.950 . S
C684 C682 1.391 . S
C684 C685 1.400 . S
C685 C684 1.400 . S
C685 C686 1.398 1_556 S
C685 C691 1.491 1_556 S
C686 H677 0.950 . S
C686 C685 1.398 1_554 S
C686 C687 1.391 1_554 S
C687 H675 0.950 . S
C687 C683 1.393 . S
C687 C686 1.391 1_556 S
C688 H678 0.950 . S
C688 C689 1.386 . S
C688 C690 1.391 . S
C689 C688 1.386 . S
C689 C693 1.393 . S
C690 H679 0.950 . S
C690 C688 1.391 . S
C690 C691 1.400 . S
C691 C685 1.491 1_554 S
C691 C690 1.400 . S
C691 C692 1.398 1_554 S
C692 H680 0.950 . S
C692 C691 1.398 1_556 S
C692 C693 1.391 1_556 S
C693 H681 0.950 . S
C693 C689 1.393 . S
C693 C692 1.391 1_554 S
H694 C702 0.950 . S
H695 C707 0.950 . S
H696 C704 0.950 . S
H697 C706 0.950 . S
H698 C708 0.950 . S
H699 C710 0.950 . S
H700 C712 0.950 . S
H701 C713 0.950 . S
C702 H694 0.950 . S
C702 C703 1.386 . S
C702 C704 1.391 . S
C703 C702 1.386 . S
C703 C707 1.393 1_556 S
C704 H696 0.950 . S
C704 C702 1.391 . S
C704 C705 1.400 . S
C705 C704 1.400 . S
C705 C706 1.398 1_556 S
C705 C711 1.491 1_556 S
C706 H697 0.950 . S
C706 C705 1.398 1_554 S
C706 C707 1.391 . S
C707 H695 0.950 . S
C707 C703 1.393 1_554 S
C707 C706 1.391 . S
C708 H698 0.950 . S
C708 C709 1.386 . S
C708 C710 1.391 1_565 S
C709 C708 1.386 . S
C709 C713 1.393 1_554 S
C710 H699 0.950 . S
C710 C708 1.391 1_545 S
C710 C711 1.400 . S
C711 C705 1.491 1_554 S
C711 C710 1.400 . S
C711 C712 1.398 1_544 S
C712 H700 0.950 . S
C712 C711 1.398 1_566 S
C712 C713 1.391 . S
C713 H701 0.950 . S
C713 C709 1.393 1_556 S
C713 C712 1.391 . S
H714 C722 0.950 . S
H715 C727 0.950 1_554 S
H716 C724 0.950 . S
H717 C726 0.950 . S
H718 C728 0.950 . S
H719 C730 0.950 . S
H720 C732 0.950 . S
H721 C733 0.950 1_556 S
C722 H714 0.950 . S
C722 C723 1.386 . S
C722 C724 1.391 . S
C723 C722 1.386 . S
C723 C727 1.393 . S
C724 H716 0.950 . S
C724 C722 1.391 . S
C724 C725 1.400 . S
C725 C724 1.400 . S
C725 C726 1.398 1_556 S
C725 C731 1.491 1_556 S
C726 H717 0.950 . S
C726 C725 1.398 1_554 S
C726 C727 1.391 1_554 S
C727 H715 0.950 1_556 S
C727 C723 1.393 . S
C727 C726 1.391 1_556 S
C728 H718 0.950 . S
C728 C729 1.386 . S
C728 C730 1.391 1_565 S
C729 C728 1.386 . S
C729 C733 1.393 . S
C730 H719 0.950 . S
C730 C728 1.391 1_545 S
C730 C731 1.400 . S
C731 C725 1.491 1_554 S
C731 C730 1.400 . S
C731 C732 1.398 1_544 S
C732 H720 0.950 . S
C732 C731 1.398 1_566 S
C732 C733 1.391 1_556 S
C733 H721 0.950 1_554 S
C733 C729 1.393 . S
C733 C732 1.391 1_554 S
H734 C742 0.950 1_556 S
H735 C747 0.950 . S
H736 C744 0.950 . S
H737 C746 0.950 . S
H738 C748 0.950 . S
H739 C750 0.950 . S
H740 C752 0.950 1_455 S
H741 C753 0.950 . S
C742 H734 0.950 1_554 S
C742 C743 1.386 . S
C742 C744 1.391 1_554 S
C743 C742 1.386 . S
C743 C747 1.393 . S
C744 H736 0.950 . S
C744 C742 1.391 1_556 S
C744 C745 1.400 1_556 S
C745 C744 1.400 1_554 S
C745 C746 1.398 . S
C745 C751 1.491 1_554 S
C746 H737 0.950 . S
C746 C745 1.398 . S
C746 C747 1.391 . S
C747 H735 0.950 . S
C747 C743 1.393 . S
C747 C746 1.391 . S
C748 H738 0.950 . S
C748 C749 1.386 1_554 S
C748 C750 1.391 . S
C749 C748 1.386 1_556 S
C749 C753 1.393 . S
C750 H739 0.950 . S
C750 C748 1.391 . S
C750 C751 1.400 1_654 S
C751 C745 1.491 1_556 S
C751 C750 1.400 1_456 S
C751 C752 1.398 1_455 S
C752 H740 0.950 1_655 S
C752 C751 1.398 1_655 S
C752 C753 1.391 . S
C753 H741 0.950 . S
C753 C749 1.393 . S
C753 C752 1.391 . S
H754 C762 0.950 . S
H755 C767 0.950 . S
H756 C764 0.950 . S
H757 C766 0.950 . S
H758 C768 0.950 . S
H759 C770 0.950 . S
H760 C772 0.950 . S
H761 C773 0.950 . S
C762 H754 0.950 . S
C762 C763 1.386 . S
C762 C764 1.391 1_554 S
C763 C762 1.386 . S
C763 C767 1.393 . S
C764 H756 0.950 . S
C764 C762 1.391 1_556 S
C764 C765 1.400 1_556 S
C765 C764 1.400 1_554 S
C765 C766 1.398 . S
C765 C771 1.491 1_554 S
C766 H757 0.950 . S
C766 C765 1.398 . S
C766 C767 1.391 . S
C767 H755 0.950 . S
C767 C763 1.393 . S
C767 C766 1.391 . S
C768 H758 0.950 . S
C768 C769 1.386 . S
C768 C770 1.391 1_556 S
C769 C768 1.386 . S
C769 C773 1.393 . S
C770 H759 0.950 . S
C770 C768 1.391 1_554 S
C770 C771 1.400 1_554 S
C771 C765 1.491 1_556 S
C771 C770 1.400 1_556 S
C771 C772 1.398 . S
C772 H760 0.950 . S
C772 C771 1.398 . S
C772 C773 1.391 . S
C773 H761 0.950 . S
C773 C769 1.393 . S
C773 C772 1.391 . S
H774 C782 0.950 . S
H775 C787 0.950 . S
H776 C784 0.950 . S
H777 C786 0.950 . S
H778 C788 0.950 . S
H779 C790 0.950 . S
H780 C792 0.950 . S
H781 C793 0.950 . S
C782 H774 0.950 . S
C782 C783 1.386 . S
C782 C784 1.391 . S
C783 C782 1.386 . S
C783 C787 1.393 . S
C784 H776 0.950 . S
C784 C782 1.391 . S
C784 C785 1.400 . S
C785 C784 1.400 . S
C785 C786 1.398 . S
C785 C791 1.491 . S
C786 H777 0.950 . S
C786 C785 1.398 . S
C786 C787 1.391 . S
C787 H775 0.950 . S
C787 C783 1.393 . S
C787 C786 1.391 . S
C788 H778 0.950 . S
C788 C789 1.386 . S
C788 C790 1.391 . S
C789 C788 1.386 . S
C789 C793 1.393 . S
C790 H779 0.950 . S
C790 C788 1.391 . S
C790 C791 1.400 . S
C791 C785 1.491 . S
C791 C790 1.400 . S
C791 C792 1.398 . S
C792 H780 0.950 . S
C792 C791 1.398 . S
C792 C793 1.391 . S
C793 H781 0.950 . S
C793 C789 1.393 . S
C793 C792 1.391 . S
H794 C802 0.950 . S
H795 C807 0.950 . S
H796 C804 0.950 . S
H797 C806 0.950 . S
H798 C808 0.950 . S
H799 C810 0.950 . S
H800 C812 0.950 . S
H801 C813 0.950 . S
C802 H794 0.950 . S
C802 C803 1.386 . S
C802 C804 1.391 . S
C803 C802 1.386 . S
C803 C807 1.393 . S
C804 H796 0.950 . S
C804 C802 1.391 . S
C804 C805 1.400 . S
C805 C804 1.400 . S
C805 C806 1.398 . S
C805 C811 1.491 . S
C806 H797 0.950 . S
C806 C805 1.398 . S
C806 C807 1.391 . S
C807 H795 0.950 . S
C807 C803 1.393 . S
C807 C806 1.391 . S
C808 H798 0.950 . S
C808 C809 1.386 . S
C808 C810 1.391 . S
C809 C808 1.386 . S
C809 C813 1.393 . S
C810 H799 0.950 . S
C810 C808 1.391 . S
C810 C811 1.400 . S
C811 C805 1.491 . S
C811 C810 1.400 . S
C811 C812 1.398 . S
C812 H800 0.950 . S
C812 C811 1.398 . S
C812 C813 1.391 . S
C813 H801 0.950 . S
C813 C809 1.393 . S
C813 C812 1.391 . S
H814 C822 0.950 . S
H815 C827 0.950 . S
H816 C824 0.950 . S
H817 C826 0.950 . S
H818 C828 0.950 . S
H819 C830 0.950 . S
H820 C832 0.950 . S
H821 C833 0.950 . S
C822 H814 0.950 . S
C822 C823 1.386 . S
C822 C824 1.391 . S
C823 C822 1.386 . S
C823 C827 1.393 . S
C824 H816 0.950 . S
C824 C822 1.391 . S
C824 C825 1.400 . S
C825 C824 1.400 . S
C825 C826 1.398 . S
C825 C831 1.491 . S
C826 H817 0.950 . S
C826 C825 1.398 . S
C826 C827 1.391 . S
C827 H815 0.950 . S
C827 C823 1.393 . S
C827 C826 1.391 . S
C828 H818 0.950 . S
C828 C829 1.386 . S
C828 C830 1.391 . S
C829 C828 1.386 . S
C829 C833 1.393 . S
C830 H819 0.950 . S
C830 C828 1.391 . S
C830 C831 1.400 . S
C831 C825 1.491 . S
C831 C830 1.400 . S
C831 C832 1.398 . S
C832 H820 0.950 . S
C832 C831 1.398 . S
C832 C833 1.391 . S
C833 H821 0.950 . S
C833 C829 1.393 . S
C833 C832 1.391 . S
H834 C842 0.950 . S
H835 C847 0.950 . S
H836 C844 0.950 . S
H837 C846 0.950 . S
H838 C848 0.950 . S
H839 C850 0.950 . S
H840 C852 0.950 . S
H841 C853 0.950 . S
C842 H834 0.950 . S
C842 C843 1.386 . S
C842 C844 1.391 . S
C843 C842 1.386 . S
C843 C847 1.393 . S
C844 H836 0.950 . S
C844 C842 1.391 . S
C844 C845 1.400 . S
C845 C844 1.400 . S
C845 C846 1.398 . S
C845 C851 1.491 . S
C846 H837 0.950 . S
C846 C845 1.398 . S
C846 C847 1.391 . S
C847 H835 0.950 . S
C847 C843 1.393 . S
C847 C846 1.391 . S
C848 H838 0.950 . S
C848 C849 1.386 . S
C848 C850 1.391 . S
C849 C848 1.386 . S
C849 C853 1.393 . S
C850 H839 0.950 . S
C850 C848 1.391 . S
C850 C851 1.400 . S
C851 C845 1.491 . S
C851 C850 1.400 . S
C851 C852 1.398 . S
C852 H840 0.950 . S
C852 C851 1.398 . S
C852 C853 1.391 . S
C853 H841 0.950 . S
C853 C849 1.393 . S
C853 C852 1.391 . S
H854 C862 0.950 . S
H855 C867 0.950 . S
H856 C864 0.950 . S
H857 C866 0.950 . S
H858 C868 0.950 . S
H859 C870 0.950 . S
H860 C872 0.950 . S
H861 C873 0.950 . S
C862 H854 0.950 . S
C862 C863 1.386 . S
C862 C864 1.391 . S
C863 C862 1.386 . S
C863 C867 1.393 . S
C864 H856 0.950 . S
C864 C862 1.391 . S
C864 C865 1.400 . S
C865 C864 1.400 . S
C865 C866 1.398 . S
C865 C871 1.491 . S
C866 H857 0.950 . S
C866 C865 1.398 . S
C866 C867 1.391 . S
C867 H855 0.950 . S
C867 C863 1.393 . S
C867 C866 1.391 . S
C868 H858 0.950 . S
C868 C869 1.386 . S
C868 C870 1.391 . S
C869 C868 1.386 . S
C869 C873 1.393 . S
C870 H859 0.950 . S
C870 C868 1.391 . S
C870 C871 1.400 . S
C871 C865 1.491 . S
C871 C870 1.400 . S
C871 C872 1.398 . S
C872 H860 0.950 . S
C872 C871 1.398 . S
C872 C873 1.391 . S
C873 H861 0.950 . S
C873 C869 1.393 . S
C873 C872 1.391 . S
H874 C882 0.950 . S
H875 C887 0.950 . S
H876 C884 0.950 . S
H877 C886 0.950 . S
H878 C888 0.950 . S
H879 C890 0.950 . S
H880 C892 0.950 . S
H881 C893 0.950 . S
C882 H874 0.950 . S
C882 C883 1.386 . S
C882 C884 1.391 . S
C883 C882 1.386 . S
C883 C887 1.393 . S
C884 H876 0.950 . S
C884 C882 1.391 . S
C884 C885 1.400 . S
C885 C884 1.400 . S
C885 C886 1.398 . S
C885 C891 1.491 . S
C886 H877 0.950 . S
C886 C885 1.398 . S
C886 C887 1.391 . S
C887 H875 0.950 . S
C887 C883 1.393 . S
C887 C886 1.391 . S
C888 H878 0.950 . S
C888 C889 1.386 . S
C888 C890 1.391 . S
C889 C888 1.386 . S
C889 C893 1.393 . S
C890 H879 0.950 . S
C890 C888 1.391 . S
C890 C891 1.400 . S
C891 C885 1.491 . S
C891 C890 1.400 . S
C891 C892 1.398 . S
C892 H880 0.950 . S
C892 C891 1.398 . S
C892 C893 1.391 . S
C893 H881 0.950 . S
C893 C889 1.393 . S
C893 C892 1.391 . S
H894 C902 0.950 . S
H895 C907 0.950 . S
H896 C904 0.950 . S
H897 C906 0.950 . S
H898 C908 0.950 . S
H899 C910 0.950 . S
H900 C912 0.950 . S
H901 C913 0.950 . S
C902 H894 0.950 . S
C902 C903 1.386 . S
C902 C904 1.391 . S
C903 C902 1.386 . S
C903 C907 1.393 . S
C904 H896 0.950 . S
C904 C902 1.391 . S
C904 C905 1.400 . S
C905 C904 1.400 . S
C905 C906 1.398 . S
C905 C911 1.491 . S
C906 H897 0.950 . S
C906 C905 1.398 . S
C906 C907 1.391 . S
C907 H895 0.950 . S
C907 C903 1.393 . S
C907 C906 1.391 . S
C908 H898 0.950 . S
C908 C909 1.386 . S
C908 C910 1.391 . S
C909 C908 1.386 . S
C909 C913 1.393 . S
C910 H899 0.950 . S
C910 C908 1.391 . S
C910 C911 1.400 . S
C911 C905 1.491 . S
C911 C910 1.400 . S
C911 C912 1.398 . S
C912 H900 0.950 . S
C912 C911 1.398 . S
C912 C913 1.391 . S
C913 H901 0.950 . S
C913 C909 1.393 . S
C913 C912 1.391 . S
H914 C922 0.950 . S
H915 C927 0.950 . S
H916 C924 0.950 . S
H917 C926 0.950 . S
H918 C928 0.950 . S
H919 C930 0.950 . S
H920 C932 0.950 . S
H921 C933 0.950 . S
C922 H914 0.950 . S
C922 C923 1.386 . S
C922 C924 1.391 . S
C923 C922 1.386 . S
C923 C927 1.393 . S
C924 H916 0.950 . S
C924 C922 1.391 . S
C924 C925 1.400 . S
C925 C924 1.400 . S
C925 C926 1.398 . S
C925 C931 1.491 . S
C926 H917 0.950 . S
C926 C925 1.398 . S
C926 C927 1.391 . S
C927 H915 0.950 . S
C927 C923 1.393 . S
C927 C926 1.391 . S
C928 H918 0.950 . S
C928 C929 1.386 . S
C928 C930 1.391 . S
C929 C928 1.386 . S
C929 C933 1.393 . S
C930 H919 0.950 . S
C930 C928 1.391 . S
C930 C931 1.400 . S
C931 C925 1.491 . S
C931 C930 1.400 . S
C931 C932 1.398 . S
C932 H920 0.950 . S
C932 C931 1.398 . S
C932 C933 1.391 . S
C933 H921 0.950 . S
C933 C929 1.393 . S
C933 C932 1.391 . S
H934 C942 0.950 . S
H935 C947 0.950 . S
H936 C944 0.950 . S
H937 C946 0.950 . S
H938 C948 0.950 . S
H939 C950 0.950 . S
H940 C952 0.950 . S
H941 C953 0.950 . S
C942 H934 0.950 . S
C942 C943 1.386 . S
C942 C944 1.391 . S
C943 C942 1.386 . S
C943 C947 1.393 . S
C944 H936 0.950 . S
C944 C942 1.391 . S
C944 C945 1.400 . S
C945 C944 1.400 . S
C945 C946 1.398 . S
C945 C951 1.491 . S
C946 H937 0.950 . S
C946 C945 1.398 . S
C946 C947 1.391 . S
C947 H935 0.950 . S
C947 C943 1.393 . S
C947 C946 1.391 . S
C948 H938 0.950 . S
C948 C949 1.386 . S
C948 C950 1.391 . S
C949 C948 1.386 . S
C949 C953 1.393 . S
C950 H939 0.950 . S
C950 C948 1.391 . S
C950 C951 1.400 . S
C951 C945 1.491 . S
C951 C950 1.400 . S
C951 C952 1.398 . S
C952 H940 0.950 . S
C952 C951 1.398 . S
C952 C953 1.391 . S
C953 H941 0.950 . S
C953 C949 1.393 . S
C953 C952 1.391 . S
H954 C962 0.950 . S
H955 C967 0.950 . S
H956 C964 0.950 . S
H957 C966 0.950 . S
H958 C968 0.950 . S
H959 C970 0.950 . S
H960 C972 0.950 . S
H961 C973 0.950 . S
C962 H954 0.950 . S
C962 C963 1.386 . S
C962 C964 1.391 . S
C963 C962 1.386 . S
C963 C967 1.393 . S
C964 H956 0.950 . S
C964 C962 1.391 . S
C964 C965 1.400 . S
C965 C964 1.400 . S
C965 C966 1.398 . S
C965 C971 1.491 . S
C966 H957 0.950 . S
C966 C965 1.398 . S
C966 C967 1.391 . S
C967 H955 0.950 . S
C967 C963 1.393 . S
C967 C966 1.391 . S
C968 H958 0.950 . S
C968 C969 1.386 . S
C968 C970 1.391 . S
C969 C968 1.386 . S
C969 C973 1.393 . S
C970 H959 0.950 . S
C970 C968 1.391 . S
C970 C971 1.400 . S
C971 C965 1.491 . S
C971 C970 1.400 . S
C971 C972 1.398 . S
C972 H960 0.950 . S
C972 C971 1.398 . S
C972 C973 1.391 . S
C973 H961 0.950 . S
C973 C969 1.393 . S
C973 C972 1.391 . S
H974 C982 0.950 . S
H975 C987 0.950 . S
H976 C984 0.950 . S
H977 C986 0.950 . S
H978 C988 0.950 . S
H979 C990 0.950 . S
H980 C992 0.950 . S
H981 C993 0.950 . S
C982 H974 0.950 . S
C982 C983 1.386 . S
C982 C984 1.391 . S
C983 C982 1.386 . S
C983 C987 1.393 . S
C984 H976 0.950 . S
C984 C982 1.391 . S
C984 C985 1.400 . S
C985 C984 1.400 . S
C985 C986 1.398 . S
C985 C991 1.491 . S
C986 H977 0.950 . S
C986 C985 1.398 . S
C986 C987 1.391 . S
C987 H975 0.950 . S
C987 C983 1.393 . S
C987 C986 1.391 . S
C988 H978 0.950 . S
C988 C989 1.386 . S
C988 C990 1.391 . S
C989 C988 1.386 . S
C989 C993 1.393 . S
C990 H979 0.950 . S
C990 C988 1.391 . S
C990 C991 1.400 . S
C991 C985 1.491 . S
C991 C990 1.400 . S
C991 C992 1.398 . S
C992 H980 0.950 . S
C992 C991 1.398 . S
C992 C993 1.391 . S
C993 H981 0.950 . S
C993 C989 1.393 . S
C993 C992 1.391 . S
H994 C1002 0.950 . S
H995 C1007 0.950 . S
H996 C1004 0.950 . S
H997 C1006 0.950 . S
H998 C1008 0.950 . S
H999 C1010 0.950 . S
H1000 C1012 0.950 . S
H1001 C1013 0.950 . S
C1002 H994 0.950 . S
C1002 C1003 1.386 . S
C1002 C1004 1.391 . S
C1003 C1002 1.386 . S
C1003 C1007 1.393 . S
C1004 H996 0.950 . S
C1004 C1002 1.391 . S
C1004 C1005 1.400 . S
C1005 C1004 1.400 . S
C1005 C1006 1.398 . S
C1005 C1011 1.491 . S
C1006 H997 0.950 . S
C1006 C1005 1.398 . S
C1006 C1007 1.391 . S
C1007 H995 0.950 . S
C1007 C1003 1.393 . S
C1007 C1006 1.391 . S
C1008 H998 0.950 . S
C1008 C1009 1.386 . S
C1008 C1010 1.391 . S
C1009 C1008 1.386 . S
C1009 C1013 1.393 . S
C1010 H999 0.950 . S
C1010 C1008 1.391 . S
C1010 C1011 1.400 . S
C1011 C1005 1.491 . S
C1011 C1010 1.400 . S
C1011 C1012 1.398 . S
C1012 H1000 0.950 . S
C1012 C1011 1.398 . S
C1012 C1013 1.391 . S
C1013 H1001 0.950 . S
C1013 C1009 1.393 . S
C1013 C1012 1.391 . S
H1014 C1022 0.950 . S
H1015 C1027 0.950 . S
H1016 C1024 0.950 . S
H1017 C1026 0.950 . S
H1018 C1028 0.950 . S
H1019 C1030 0.950 . S
H1020 C1032 0.950 . S
H1021 C1033 0.950 . S
C1022 H1014 0.950 . S
C1022 C1023 1.386 . S
C1022 C1024 1.391 . S
C1023 C1022 1.386 . S
C1023 C1027 1.393 . S
C1024 H1016 0.950 . S
C1024 C1022 1.391 . S
C1024 C1025 1.400 . S
C1025 C1024 1.400 . S
C1025 C1026 1.398 . S
C1025 C1031 1.491 . S
C1026 H1017 0.950 . S
C1026 C1025 1.398 . S
C1026 C1027 1.391 . S
C1027 H1015 0.950 . S
C1027 C1023 1.393 . S
C1027 C1026 1.391 . S
C1028 H1018 0.950 . S
C1028 C1029 1.386 . S
C1028 C1030 1.391 . S
C1029 C1028 1.386 . S
C1029 C1033 1.393 . S
C1030 H1019 0.950 . S
C1030 C1028 1.391 . S
C1030 C1031 1.400 . S
C1031 C1025 1.491 . S
C1031 C1030 1.400 . S
C1031 C1032 1.398 . S
C1032 H1020 0.950 . S
C1032 C1031 1.398 . S
C1032 C1033 1.391 . S
C1033 H1021 0.950 . S
C1033 C1029 1.393 . S
C1033 C1032 1.391 . S
H1034 C1042 0.950 . S
H1035 C1047 0.950 . S
H1036 C1044 0.950 . S
H1037 C1046 0.950 . S
H1038 C1048 0.950 . S
H1039 C1050 0.950 . S
H1040 C1052 0.950 . S
H1041 C1053 0.950 . S
C1042 H1034 0.950 . S
C1042 C1043 1.386 . S
C1042 C1044 1.391 . S
C1043 C1042 1.386 . S
C1043 C1047 1.393 . S
C1044 H1036 0.950 . S
C1044 C1042 1.391 . S
C1044 C1045 1.400 . S
C1045 C1044 1.400 . S
C1045 C1046 1.398 . S
C1045 C1051 1.491 . S
C1046 H1037 0.950 . S
C1046 C1045 1.398 . S
C1046 C1047 1.391 . S
C1047 H1035 0.950 . S
C1047 C1043 1.393 . S
C1047 C1046 1.391 . S
C1048 H1038 0.950 . S
C1048 C1049 1.386 . S
C1048 C1050 1.391 . S
C1049 C1048 1.386 . S
C1049 C1053 1.393 . S
C1050 H1039 0.950 . S
C1050 C1048 1.391 . S
C1050 C1051 1.400 . S
C1051 C1045 1.491 . S
C1051 C1050 1.400 . S
C1051 C1052 1.398 . S
C1052 H1040 0.950 . S
C1052 C1051 1.398 . S
C1052 C1053 1.391 . S
C1053 H1041 0.950 . S
C1053 C1049 1.393 . S
C1053 C1052 1.391 . S
H1054 C1062 0.950 . S
H1055 C1067 0.950 . S
H1056 C1064 0.950 . S
H1057 C1066 0.950 . S
H1058 C1068 0.950 . S
H1059 C1070 0.950 . S
H1060 C1072 0.950 . S
H1061 C1073 0.950 . S
C1062 H1054 0.950 . S
C1062 C1063 1.386 . S
C1062 C1064 1.391 . S
C1063 C1062 1.386 . S
C1063 C1067 1.393 . S
C1064 H1056 0.950 . S
C1064 C1062 1.391 . S
C1064 C1065 1.400 . S
C1065 C1064 1.400 . S
C1065 C1066 1.398 . S
C1065 C1071 1.491 . S
C1066 H1057 0.950 . S
C1066 C1065 1.398 . S
C1066 C1067 1.391 . S
C1067 H1055 0.950 . S
C1067 C1063 1.393 . S
C1067 C1066 1.391 . S
C1068 H1058 0.950 . S
C1068 C1069 1.386 . S
C1068 C1070 1.391 . S
C1069 C1068 1.386 . S
C1069 C1073 1.393 . S
C1070 H1059 0.950 . S
C1070 C1068 1.391 . S
C1070 C1071 1.400 . S
C1071 C1065 1.491 . S
C1071 C1070 1.400 . S
C1071 C1072 1.398 . S
C1072 H1060 0.950 . S
C1072 C1071 1.398 . S
C1072 C1073 1.391 . S
C1073 H1061 0.950 . S
C1073 C1069 1.393 . S
C1073 C1072 1.391 . S
H1074 C1082 0.950 . S
H1075 C1087 0.950 . S
H1076 C1084 0.950 . S
H1077 C1086 0.950 . S
H1078 C1088 0.950 . S
H1079 C1090 0.950 . S
H1080 C1092 0.950 . S
H1081 C1093 0.950 . S
C1082 H1074 0.950 . S
C1082 C1083 1.386 . S
C1082 C1084 1.391 . S
C1083 C1082 1.386 . S
C1083 C1087 1.393 . S
C1084 H1076 0.950 . S
C1084 C1082 1.391 . S
C1084 C1085 1.400 . S
C1085 C1084 1.400 . S
C1085 C1086 1.398 . S
C1085 C1091 1.491 . S
C1086 H1077 0.950 . S
C1086 C1085 1.398 . S
C1086 C1087 1.391 . S
C1087 H1075 0.950 . S
C1087 C1083 1.393 . S
C1087 C1086 1.391 . S
C1088 H1078 0.950 . S
C1088 C1089 1.386 . S
C1088 C1090 1.391 . S
C1089 C1088 1.386 . S
C1089 C1093 1.393 . S
C1090 H1079 0.950 . S
C1090 C1088 1.391 . S
C1090 C1091 1.400 . S
C1091 C1085 1.491 . S
C1091 C1090 1.400 . S
C1091 C1092 1.398 . S
C1092 H1080 0.950 . S
C1092 C1091 1.398 . S
C1092 C1093 1.391 . S
C1093 H1081 0.950 . S
C1093 C1089 1.393 . S
C1093 C1092 1.391 . S
H1094 C1102 0.950 . S
H1095 C1107 0.950 . S
H1096 C1104 0.950 . S
H1097 C1106 0.950 . S
H1098 C1108 0.950 . S
H1099 C1110 0.950 . S
H1100 C1112 0.950 . S
H1101 C1113 0.950 . S
C1102 H1094 0.950 . S
C1102 C1103 1.386 . S
C1102 C1104 1.391 . S
C1103 C1102 1.386 . S
C1103 C1107 1.393 . S
C1104 H1096 0.950 . S
C1104 C1102 1.391 . S
C1104 C1105 1.400 . S
C1105 C1104 1.400 . S
C1105 C1106 1.398 . S
C1105 C1111 1.491 . S
C1106 H1097 0.950 . S
C1106 C1105 1.398 . S
C1106 C1107 1.391 . S
C1107 H1095 0.950 . S
C1107 C1103 1.393 . S
C1107 C1106 1.391 . S
C1108 H1098 0.950 . S
C1108 C1109 1.386 . S
C1108 C1110 1.391 . S
C1109 C1108 1.386 . S
C1109 C1113 1.393 . S
C1110 H1099 0.950 . S
C1110 C1108 1.391 . S
C1110 C1111 1.400 . S
C1111 C1105 1.491 . S
C1111 C1110 1.400 . S
C1111 C1112 1.398 . S
C1112 H1100 0.950 . S
C1112 C1111 1.398 . S
C1112 C1113 1.391 . S
C1113 H1101 0.950 . S
C1113 C1109 1.393 . S
C1113 C1112 1.391 . S
H1114 C1122 0.950 . S
H1115 C1127 0.950 . S
H1116 C1124 0.950 . S
H1117 C1126 0.950 . S
H1118 C1128 0.950 . S
H1119 C1130 0.950 . S
H1120 C1132 0.950 . S
H1121 C1133 0.950 . S
C1122 H1114 0.950 . S
C1122 C1123 1.386 . S
C1122 C1124 1.391 . S
C1123 C1122 1.386 . S
C1123 C1127 1.393 . S
C1124 H1116 0.950 . S
C1124 C1122 1.391 . S
C1124 C1125 1.400 . S
C1125 C1124 1.400 . S
C1125 C1126 1.398 . S
C1125 C1131 1.491 . S
C1126 H1117 0.950 . S
C1126 C1125 1.398 . S
C1126 C1127 1.391 . S
C1127 H1115 0.950 . S
C1127 C1123 1.393 . S
C1127 C1126 1.391 . S
C1128 H1118 0.950 . S
C1128 C1129 1.386 . S
C1128 C1130 1.391 . S
C1129 C1128 1.386 . S
C1129 C1133 1.393 . S
C1130 H1119 0.950 . S
C1130 C1128 1.391 . S
C1130 C1131 1.400 . S
C1131 C1125 1.491 . S
C1131 C1130 1.400 . S
C1131 C1132 1.398 . S
C1132 H1120 0.950 . S
C1132 C1131 1.398 . S
C1132 C1133 1.391 . S
C1133 H1121 0.950 . S
C1133 C1129 1.393 . S
C1133 C1132 1.391 . S
H1134 C1142 0.950 . S
H1135 C1147 0.950 . S
H1136 C1144 0.950 . S
H1137 C1146 0.950 . S
H1138 C1148 0.950 . S
H1139 C1150 0.950 . S
H1140 C1152 0.950 . S
H1141 C1153 0.950 1_655 S
C1142 H1134 0.950 . S
C1142 C1143 1.386 1_655 S
C1142 C1144 1.391 . S
C1143 C1142 1.386 1_455 S
C1143 C1147 1.393 . S
C1144 H1136 0.950 . S
C1144 C1142 1.391 . S
C1144 C1145 1.400 1_655 S
C1145 C1144 1.400 1_455 S
C1145 C1146 1.398 . S
C1145 C1151 1.491 1_554 S
C1146 H1137 0.950 . S
C1146 C1145 1.398 . S
C1146 C1147 1.391 . S
C1147 H1135 0.950 . S
C1147 C1143 1.393 . S
C1147 C1146 1.391 . S
C1148 H1138 0.950 . S
C1148 C1149 1.386 . S
C1148 C1150 1.391 . S
C1149 C1148 1.386 . S
C1149 C1153 1.393 . S
C1150 H1139 0.950 . S
C1150 C1148 1.391 . S
C1150 C1151 1.400 . S
C1151 C1145 1.491 1_556 S
C1151 C1150 1.400 . S
C1151 C1152 1.398 1_455 S
C1152 H1140 0.950 . S
C1152 C1151 1.398 1_655 S
C1152 C1153 1.391 1_655 S
C1153 H1141 0.950 1_455 S
C1153 C1149 1.393 . S
C1153 C1152 1.391 1_455 S
H1154 C1162 0.950 . S
H1155 C1167 0.950 . S
H1156 C1164 0.950 . S
H1157 C1166 0.950 . S
H1158 C1168 0.950 . S
H1159 C1170 0.950 . S
H1160 C1172 0.950 . S
H1161 C1173 0.950 . S
C1162 H1154 0.950 . S
C1162 C1163 1.386 . S
C1162 C1164 1.391 . S
C1163 C1162 1.386 . S
C1163 C1167 1.393 . S
C1164 H1156 0.950 . S
C1164 C1162 1.391 . S
C1164 C1165 1.400 . S
C1165 C1164 1.400 . S
C1165 C1166 1.398 . S
C1165 C1171 1.491 1_554 S
C1166 H1157 0.950 . S
C1166 C1165 1.398 . S
C1166 C1167 1.391 . S
C1167 H1155 0.950 . S
C1167 C1163 1.393 . S
C1167 C1166 1.391 . S
C1168 H1158 0.950 . S
C1168 C1169 1.386 . S
C1168 C1170 1.391 . S
C1169 C1168 1.386 . S
C1169 C1173 1.393 . S
C1170 H1159 0.950 . S
C1170 C1168 1.391 . S
C1170 C1171 1.400 . S
C1171 C1165 1.491 1_556 S
C1171 C1170 1.400 . S
C1171 C1172 1.398 . S
C1172 H1160 0.950 . S
C1172 C1171 1.398 . S
C1172 C1173 1.391 . S
C1173 H1161 0.950 . S
C1173 C1169 1.393 . S
C1173 C1172 1.391 . S
H1174 C1182 0.950 . S
H1175 C1187 0.950 . S
H1176 C1184 0.950 . S
H1177 C1186 0.950 . S
H1178 C1188 0.950 1_565 S
H1179 C1190 0.972 . S
H1180 C1192 0.950 . S
H1181 C1193 0.950 . S
C1182 H1174 0.950 . S
C1182 C1183 1.386 . S
C1182 C1184 1.391 . S
C1183 C1182 1.386 . S
C1183 C1187 1.393 . S
C1184 H1176 0.950 . S
C1184 C1182 1.391 . S
C1184 C1185 1.400 . S
C1185 C1184 1.400 . S
C1185 C1186 1.398 . S
C1185 C1191 1.491 1_554 S
C1186 H1177 0.950 . S
C1186 C1185 1.398 . S
C1186 C1187 1.391 . S
C1187 H1175 0.950 . S
C1187 C1183 1.393 . S
C1187 C1186 1.391 . S
C1188 H1178 0.950 1_545 S
C1188 C1189 1.386 . S
C1188 C1190 1.391 . S
C1189 C1188 1.386 . S
C1189 C1193 1.393 . S
C1190 H1179 0.972 . S
C1190 C1188 1.391 . S
C1190 C1191 1.400 . S
C1191 C1185 1.491 1_556 S
C1191 C1190 1.400 . S
C1191 C1192 1.398 . S
C1192 H1180 0.950 . S
C1192 C1191 1.398 . S
C1192 C1193 1.391 . S
C1193 H1181 0.950 . S
C1193 C1189 1.393 . S
C1193 C1192 1.391 . S
H1194 C1202 0.950 . S
H1195 C1207 0.950 1_655 S
H1196 C1204 0.950 . S
H1197 C1206 0.957 1_655 S
H1198 C1208 0.950 . S
H1199 C1210 0.950 . S
H1200 C1212 0.950 . S
H1201 C1213 0.950 . S
C1202 H1194 0.950 . S
C1202 C1203 1.386 . S
C1202 C1204 1.391 . S
C1203 C1202 1.386 . S
C1203 C1207 1.393 . S
C1204 H1196 0.950 . S
C1204 C1202 1.391 . S
C1204 C1205 1.400 . S
C1205 C1204 1.400 . S
C1205 C1206 1.392 . S
C1205 C1211 1.491 1_556 S
C1206 H1197 0.957 1_455 S
C1206 C1205 1.392 . S
C1206 C1207 1.390 . S
C1207 H1195 0.950 1_455 S
C1207 C1203 1.393 . S
C1207 C1206 1.390 . S
C1208 H1198 0.950 . S
C1208 C1209 1.386 1_655 S
C1208 C1210 1.391 . S
C1209 C1208 1.386 1_455 S
C1209 C1213 1.393 . S
C1210 H1199 0.950 . S
C1210 C1208 1.391 . S
C1210 C1211 1.400 1_655 S
C1211 C1205 1.491 1_554 S
C1211 C1210 1.400 1_455 S
C1211 C1212 1.398 . S
C1212 H1200 0.950 . S
C1212 C1211 1.398 . S
C1212 C1213 1.391 . S
C1213 H1201 0.950 . S
C1213 C1209 1.393 . S
C1213 C1212 1.391 . S
H1214 C1222 0.950 . S
H1215 C1227 0.950 . S
H1216 C1224 0.950 . S
H1217 C1226 0.950 . S
H1218 C1228 0.950 . S
H1219 C1230 0.950 . S
H1220 C1232 0.950 . S
H1221 C1233 0.950 . S
C1222 H1214 0.950 . S
C1222 C1223 1.386 . S
C1222 C1224 1.391 . S
C1223 C1222 1.386 . S
C1223 C1227 1.393 . S
C1224 H1216 0.950 . S
C1224 C1222 1.391 . S
C1224 C1225 1.400 . S
C1225 C1224 1.400 . S
C1225 C1226 1.398 . S
C1225 C1231 1.491 1_554 S
C1226 H1217 0.950 . S
C1226 C1225 1.398 . S
C1226 C1227 1.391 . S
C1227 H1215 0.950 . S
C1227 C1223 1.393 . S
C1227 C1226 1.391 . S
C1228 H1218 0.950 . S
C1228 C1229 1.386 . S
C1228 C1230 1.391 . S
C1229 C1228 1.386 . S
C1229 C1233 1.393 . S
C1230 H1219 0.950 . S
C1230 C1228 1.391 . S
C1230 C1231 1.400 . S
C1231 C1225 1.491 1_556 S
C1231 C1230 1.400 . S
C1231 C1232 1.398 . S
C1232 H1220 0.950 . S
C1232 C1231 1.398 . S
C1232 C1233 1.391 . S
C1233 H1221 0.950 . S
C1233 C1229 1.393 . S
C1233 C1232 1.391 . S
H1234 C1242 0.950 1_565 S
H1235 C1247 0.950 . S
H1236 C1244 0.950 1_565 S
H1237 C1246 0.950 . S
H1238 C1248 0.950 . S
H1239 C1250 0.950 . S
H1240 C1252 0.950 . S
H1241 C1253 0.950 . S
C1242 H1234 0.950 1_545 S
C1242 C1243 1.386 . S
C1242 C1244 1.391 . S
C1243 C1242 1.386 . S
C1243 C1247 1.393 . S
C1244 H1236 0.950 1_545 S
C1244 C1242 1.391 . S
C1244 C1245 1.400 . S
C1245 C1244 1.400 . S
C1245 C1246 1.398 . S
C1245 C1251 1.491 1_554 S
C1246 H1237 0.950 . S
C1246 C1245 1.398 . S
C1246 C1247 1.391 . S
C1247 H1235 0.950 . S
C1247 C1243 1.393 . S
C1247 C1246 1.391 . S
C1248 H1238 0.950 . S
C1248 C1249 1.386 . S
C1248 C1250 1.391 . S
C1249 C1248 1.386 . S
C1249 C1253 1.393 1_545 S
C1250 H1239 0.950 . S
C1250 C1248 1.391 . S
C1250 C1251 1.400 . S
C1251 C1245 1.491 1_556 S
C1251 C1250 1.400 . S
C1251 C1252 1.398 1_545 S
C1252 H1240 0.950 . S
C1252 C1251 1.398 1_565 S
C1252 C1253 1.391 . S
C1253 H1241 0.950 . S
C1253 C1249 1.393 1_565 S
C1253 C1252 1.391 . S
H1254 C1262 0.950 . S
H1255 C1267 0.950 . S
H1256 C1264 0.950 . S
H1257 C1266 0.950 . S
H1258 C1268 0.950 . S
H1259 C1270 0.950 . S
H1260 C1272 0.950 . S
H1261 C1273 0.950 . S
C1262 H1254 0.950 . S
C1262 C1263 1.386 . S
C1262 C1264 1.391 . S
C1263 C1262 1.386 . S
C1263 C1267 1.393 . S
C1264 H1256 0.950 . S
C1264 C1262 1.391 . S
C1264 C1265 1.400 . S
C1265 C1264 1.400 . S
C1265 C1266 1.398 . S
C1265 C1271 1.491 . S
C1266 H1257 0.950 . S
C1266 C1265 1.398 . S
C1266 C1267 1.391 . S
C1267 H1255 0.950 . S
C1267 C1263 1.393 . S
C1267 C1266 1.391 . S
C1268 H1258 0.950 . S
C1268 C1269 1.386 . S
C1268 C1270 1.391 . S
C1269 C1268 1.386 . S
C1269 C1273 1.393 . S
C1270 H1259 0.950 . S
C1270 C1268 1.391 . S
C1270 C1271 1.400 . S
C1271 C1265 1.491 . S
C1271 C1270 1.400 . S
C1271 C1272 1.398 . S
C1272 H1260 0.950 . S
C1272 C1271 1.398 . S
C1272 C1273 1.391 . S
C1273 H1261 0.950 . S
C1273 C1269 1.393 . S
C1273 C1272 1.391 . S
H1274 C1282 0.950 . S
H1275 C1287 0.950 . S
H1276 C1284 0.950 . S
H1277 C1286 0.950 . S
H1278 C1288 0.950 . S
H1279 C1290 0.950 . S
H1280 C1292 0.950 . S
H1281 C1293 0.950 . S
C1282 H1274 0.950 . S
C1282 C1283 1.386 . S
C1282 C1284 1.391 . S
C1283 C1282 1.386 . S
C1283 C1287 1.393 . S
C1284 H1276 0.950 . S
C1284 C1282 1.391 . S
C1284 C1285 1.400 . S
C1285 C1284 1.400 . S
C1285 C1286 1.398 . S
C1285 C1291 1.491 . S
C1286 H1277 0.950 . S
C1286 C1285 1.398 . S
C1286 C1287 1.391 . S
C1287 H1275 0.950 . S
C1287 C1283 1.393 . S
C1287 C1286 1.391 . S
C1288 H1278 0.950 . S
C1288 C1289 1.386 . S
C1288 C1290 1.391 . S
C1289 C1288 1.386 . S
C1289 C1293 1.393 . S
C1290 H1279 0.950 . S
C1290 C1288 1.391 . S
C1290 C1291 1.400 . S
C1291 C1285 1.491 . S
C1291 C1290 1.400 . S
C1291 C1292 1.398 . S
C1292 H1280 0.950 . S
C1292 C1291 1.398 . S
C1292 C1293 1.391 . S
C1293 H1281 0.950 . S
C1293 C1289 1.393 . S
C1293 C1292 1.391 . S
H1294 C1302 0.950 . S
H1295 C1307 0.950 . S
H1296 C1304 0.950 . S
H1297 C1306 0.950 . S
H1298 C1308 0.950 . S
H1299 C1310 0.950 . S
H1300 C1312 0.950 . S
H1301 C1313 0.950 . S
C1302 H1294 0.950 . S
C1302 C1303 1.386 . S
C1302 C1304 1.391 . S
C1303 C1302 1.386 . S
C1303 C1307 1.393 . S
C1304 H1296 0.950 . S
C1304 C1302 1.391 . S
C1304 C1305 1.400 . S
C1305 C1304 1.400 . S
C1305 C1306 1.398 . S
C1305 C1311 1.491 . S
C1306 H1297 0.950 . S
C1306 C1305 1.398 . S
C1306 C1307 1.391 . S
C1307 H1295 0.950 . S
C1307 C1303 1.393 . S
C1307 C1306 1.391 . S
C1308 H1298 0.950 . S
C1308 C1309 1.386 . S
C1308 C1310 1.391 . S
C1309 C1308 1.386 . S
C1309 C1313 1.393 . S
C1310 H1299 0.950 . S
C1310 C1308 1.391 . S
C1310 C1311 1.400 . S
C1311 C1305 1.491 . S
C1311 C1310 1.400 . S
C1311 C1312 1.398 . S
C1312 H1300 0.950 . S
C1312 C1311 1.398 . S
C1312 C1313 1.391 . S
C1313 H1301 0.950 . S
C1313 C1309 1.393 . S
C1313 C1312 1.391 . S
H1314 C1322 0.950 . S
H1315 C1327 0.950 . S
H1316 C1324 0.950 . S
H1317 C1326 0.950 . S
H1318 C1328 0.950 . S
H1319 C1330 0.950 . S
H1320 C1332 0.950 . S
H1321 C1333 0.950 . S
C1322 H1314 0.950 . S
C1322 C1323 1.386 . S
C1322 C1324 1.391 . S
C1323 C1322 1.386 . S
C1323 C1327 1.393 . S
C1324 H1316 0.950 . S
C1324 C1322 1.391 . S
C1324 C1325 1.400 . S
C1325 C1324 1.400 . S
C1325 C1326 1.398 . S
C1325 C1331 1.491 . S
C1326 H1317 0.950 . S
C1326 C1325 1.398 . S
C1326 C1327 1.391 . S
C1327 H1315 0.950 . S
C1327 C1323 1.393 . S
C1327 C1326 1.391 . S
C1328 H1318 0.950 . S
C1328 C1329 1.386 . S
C1328 C1330 1.391 . S
C1329 C1328 1.386 . S
C1329 C1333 1.393 . S
C1330 H1319 0.950 . S
C1330 C1328 1.391 . S
C1330 C1331 1.400 . S
C1331 C1325 1.491 . S
C1331 C1330 1.400 . S
C1331 C1332 1.398 . S
C1332 H1320 0.950 . S
C1332 C1331 1.398 . S
C1332 C1333 1.391 . S
C1333 H1321 0.950 . S
C1333 C1329 1.393 . S
C1333 C1332 1.391 . S
H1334 C1342 0.950 . S
H1335 C1347 0.950 . S
H1336 C1344 0.950 . S
H1337 C1346 0.950 . S
H1338 C1348 0.950 . S
H1339 C1350 0.950 . S
H1340 C1352 0.950 . S
H1341 C1353 0.950 . S
C1342 H1334 0.950 . S
C1342 C1343 1.386 . S
C1342 C1344 1.391 . S
C1343 C1342 1.386 . S
C1343 C1347 1.393 . S
C1344 H1336 0.950 . S
C1344 C1342 1.391 . S
C1344 C1345 1.400 . S
C1345 C1344 1.400 . S
C1345 C1346 1.398 . S
C1345 C1351 1.491 . S
C1346 H1337 0.950 . S
C1346 C1345 1.398 . S
C1346 C1347 1.391 . S
C1347 H1335 0.950 . S
C1347 C1343 1.393 . S
C1347 C1346 1.391 . S
C1348 H1338 0.950 . S
C1348 C1349 1.386 . S
C1348 C1350 1.391 . S
C1349 C1348 1.386 . S
C1349 C1353 1.393 . S
C1350 H1339 0.950 . S
C1350 C1348 1.391 . S
C1350 C1351 1.400 . S
C1351 C1345 1.491 . S
C1351 C1350 1.400 . S
C1351 C1352 1.398 . S
C1352 H1340 0.950 . S
C1352 C1351 1.398 . S
C1352 C1353 1.391 . S
C1353 H1341 0.950 . S
C1353 C1349 1.393 . S
C1353 C1352 1.391 . S
H1354 C1362 0.950 . S
H1355 C1367 0.950 . S
H1356 C1364 0.950 . S
H1357 C1366 0.950 . S
H1358 C1368 0.950 . S
H1359 C1370 0.950 . S
H1360 C1372 0.950 . S
H1361 C1373 0.950 . S
C1362 H1354 0.950 . S
C1362 C1363 1.386 . S
C1362 C1364 1.391 . S
C1363 C1362 1.386 . S
C1363 C1367 1.393 . S
C1364 H1356 0.950 . S
C1364 C1362 1.391 . S
C1364 C1365 1.400 . S
C1365 C1364 1.400 . S
C1365 C1366 1.398 . S
C1365 C1371 1.491 . S
C1366 H1357 0.950 . S
C1366 C1365 1.398 . S
C1366 C1367 1.391 . S
C1367 H1355 0.950 . S
C1367 C1363 1.393 . S
C1367 C1366 1.391 . S
C1368 H1358 0.950 . S
C1368 C1369 1.386 . S
C1368 C1370 1.391 . S
C1369 C1368 1.386 . S
C1369 C1373 1.393 . S
C1370 H1359 0.950 . S
C1370 C1368 1.391 . S
C1370 C1371 1.400 . S
C1371 C1365 1.491 . S
C1371 C1370 1.400 . S
C1371 C1372 1.398 . S
C1372 H1360 0.950 . S
C1372 C1371 1.398 . S
C1372 C1373 1.391 . S
C1373 H1361 0.950 . S
C1373 C1369 1.393 . S
C1373 C1372 1.391 . S
H1374 C1382 0.950 . S
H1375 C1387 0.950 . S
H1376 C1384 0.950 . S
H1377 C1386 0.950 . S
H1378 C1388 0.950 . S
H1379 C1390 0.950 . S
H1380 C1392 0.950 . S
H1381 C1393 0.950 . S
C1382 H1374 0.950 . S
C1382 C1383 1.386 . S
C1382 C1384 1.391 . S
C1383 C1382 1.386 . S
C1383 C1387 1.393 . S
C1384 H1376 0.950 . S
C1384 C1382 1.391 . S
C1384 C1385 1.400 . S
C1385 C1384 1.400 . S
C1385 C1386 1.398 . S
C1385 C1391 1.491 . S
C1386 H1377 0.950 . S
C1386 C1385 1.398 . S
C1386 C1387 1.391 . S
C1387 H1375 0.950 . S
C1387 C1383 1.393 . S
C1387 C1386 1.391 . S
C1388 H1378 0.950 . S
C1388 C1389 1.386 . S
C1388 C1390 1.391 . S
C1389 C1388 1.386 . S
C1389 C1393 1.393 . S
C1390 H1379 0.950 . S
C1390 C1388 1.391 . S
C1390 C1391 1.400 . S
C1391 C1385 1.491 . S
C1391 C1390 1.400 . S
C1391 C1392 1.398 . S
C1392 H1380 0.950 . S
C1392 C1391 1.398 . S
C1392 C1393 1.391 . S
C1393 H1381 0.950 . S
C1393 C1389 1.393 . S
C1393 C1392 1.391 . S
H1394 C1402 0.950 . S
H1395 C1407 0.950 . S
H1396 C1404 0.950 . S
H1397 C1406 0.950 . S
H1398 C1408 0.950 . S
H1399 C1410 0.950 . S
H1400 C1412 0.950 . S
H1401 C1413 0.950 . S
C1402 H1394 0.950 . S
C1402 C1403 1.386 . S
C1402 C1404 1.391 . S
C1403 C1402 1.386 . S
C1403 C1407 1.393 . S
C1404 H1396 0.950 . S
C1404 C1402 1.391 . S
C1404 C1405 1.400 . S
C1405 C1404 1.400 . S
C1405 C1406 1.398 . S
C1405 C1411 1.491 . S
C1406 H1397 0.950 . S
C1406 C1405 1.398 . S
C1406 C1407 1.391 . S
C1407 H1395 0.950 . S
C1407 C1403 1.393 . S
C1407 C1406 1.391 . S
C1408 H1398 0.950 . S
C1408 C1409 1.386 . S
C1408 C1410 1.391 . S
C1409 C1408 1.386 . S
C1409 C1413 1.393 . S
C1410 H1399 0.950 . S
C1410 C1408 1.391 . S
C1410 C1411 1.400 . S
C1411 C1405 1.491 . S
C1411 C1410 1.400 . S
C1411 C1412 1.398 . S
C1412 H1400 0.950 . S
C1412 C1411 1.398 . S
C1412 C1413 1.391 . S
C1413 H1401 0.950 . S
C1413 C1409 1.393 . S
C1413 C1412 1.391 . S
H1414 C1422 0.950 . S
H1415 C1427 0.950 . S
H1416 C1424 0.950 . S
H1417 C1426 0.950 . S
H1418 C1428 0.950 . S
H1419 C1430 0.950 . S
H1420 C1432 0.950 . S
H1421 C1433 0.950 . S
C1422 H1414 0.950 . S
C1422 C1423 1.386 . S
C1422 C1424 1.391 . S
C1423 C1422 1.386 . S
C1423 C1427 1.393 . S
C1424 H1416 0.950 . S
C1424 C1422 1.391 . S
C1424 C1425 1.400 . S
C1425 C1424 1.400 . S
C1425 C1426 1.398 . S
C1425 C1431 1.491 . S
C1426 H1417 0.950 . S
C1426 C1425 1.398 . S
C1426 C1427 1.391 . S
C1427 H1415 0.950 . S
C1427 C1423 1.393 . S
C1427 C1426 1.391 . S
C1428 H1418 0.950 . S
C1428 C1429 1.386 . S
C1428 C1430 1.391 . S
C1429 C1428 1.386 . S
C1429 C1433 1.393 . S
C1430 H1419 0.950 . S
C1430 C1428 1.391 . S
C1430 C1431 1.400 . S
C1431 C1425 1.491 . S
C1431 C1430 1.400 . S
C1431 C1432 1.398 . S
C1432 H1420 0.950 . S
C1432 C1431 1.398 . S
C1432 C1433 1.391 . S
C1433 H1421 0.950 . S
C1433 C1429 1.393 . S
C1433 C1432 1.391 . S
H1434 C1442 0.950 . S
H1435 C1447 0.950 . S
H1436 C1444 0.950 . S
H1437 C1446 0.950 . S
H1438 C1448 0.950 . S
H1439 C1450 0.950 . S
H1440 C1452 0.950 . S
H1441 C1453 0.950 . S
C1442 H1434 0.950 . S
C1442 C1443 1.386 . S
C1442 C1444 1.391 . S
C1443 C1442 1.386 . S
C1443 C1447 1.393 . S
C1444 H1436 0.950 . S
C1444 C1442 1.391 . S
C1444 C1445 1.400 . S
C1445 C1444 1.400 . S
C1445 C1446 1.398 . S
C1445 C1451 1.491 . S
C1446 H1437 0.950 . S
C1446 C1445 1.398 . S
C1446 C1447 1.391 . S
C1447 H1435 0.950 . S
C1447 C1443 1.393 . S
C1447 C1446 1.391 . S
C1448 H1438 0.950 . S
C1448 C1449 1.386 . S
C1448 C1450 1.391 . S
C1449 C1448 1.386 . S
C1449 C1453 1.393 . S
C1450 H1439 0.950 . S
C1450 C1448 1.391 . S
C1450 C1451 1.400 . S
C1451 C1445 1.491 . S
C1451 C1450 1.400 . S
C1451 C1452 1.398 . S
C1452 H1440 0.950 . S
C1452 C1451 1.398 . S
C1452 C1453 1.391 . S
C1453 H1441 0.950 . S
C1453 C1449 1.393 . S
C1453 C1452 1.391 . S
H1454 C1462 0.950 . S
H1455 C1467 0.950 . S
H1456 C1464 0.950 . S
H1457 C1466 0.950 . S
H1458 C1468 0.950 . S
H1459 C1470 0.950 . S
H1460 C1472 0.950 . S
H1461 C1473 0.950 . S
C1462 H1454 0.950 . S
C1462 C1463 1.386 . S
C1462 C1464 1.391 . S
C1463 C1462 1.386 . S
C1463 C1467 1.393 . S
C1464 H1456 0.950 . S
C1464 C1462 1.391 . S
C1464 C1465 1.400 . S
C1465 C1464 1.400 . S
C1465 C1466 1.398 . S
C1465 C1471 1.491 . S
C1466 H1457 0.950 . S
C1466 C1465 1.398 . S
C1466 C1467 1.391 . S
C1467 H1455 0.950 . S
C1467 C1463 1.393 . S
C1467 C1466 1.391 . S
C1468 H1458 0.950 . S
C1468 C1469 1.386 . S
C1468 C1470 1.391 . S
C1469 C1468 1.386 . S
C1469 C1473 1.393 . S
C1470 H1459 0.950 . S
C1470 C1468 1.391 . S
C1470 C1471 1.400 . S
C1471 C1465 1.491 . S
C1471 C1470 1.400 . S
C1471 C1472 1.398 . S
C1472 H1460 0.950 . S
C1472 C1471 1.398 . S
C1472 C1473 1.391 . S
C1473 H1461 0.950 . S
C1473 C1469 1.393 . S
C1473 C1472 1.391 . S
H1474 C1482 0.950 . S
H1475 C1487 0.950 . S
H1476 C1484 0.950 . S
H1477 C1486 0.950 . S
H1478 C1488 0.950 . S
H1479 C1490 0.950 . S
H1480 C1492 0.950 . S
H1481 C1493 0.950 . S
C1482 H1474 0.950 . S
C1482 C1483 1.386 . S
C1482 C1484 1.391 . S
C1483 C1482 1.386 . S
C1483 C1487 1.393 . S
C1484 H1476 0.950 . S
C1484 C1482 1.391 . S
C1484 C1485 1.400 . S
C1485 C1484 1.400 . S
C1485 C1486 1.398 . S
C1485 C1491 1.491 . S
C1486 H1477 0.950 . S
C1486 C1485 1.398 . S
C1486 C1487 1.391 . S
C1487 H1475 0.950 . S
C1487 C1483 1.393 . S
C1487 C1486 1.391 . S
C1488 H1478 0.950 . S
C1488 C1489 1.386 . S
C1488 C1490 1.391 . S
C1489 C1488 1.386 . S
C1489 C1493 1.393 . S
C1490 H1479 0.950 . S
C1490 C1488 1.391 . S
C1490 C1491 1.400 . S
C1491 C1485 1.491 . S
C1491 C1490 1.400 . S
C1491 C1492 1.398 . S
C1492 H1480 0.950 . S
C1492 C1491 1.398 . S
C1492 C1493 1.391 . S
C1493 H1481 0.950 . S
C1493 C1489 1.393 . S
C1493 C1492 1.391 . S
C423 C317 1.585 . S
C429 C18 1.567 . S
C443 C43 1.523 . S
C449 C342 1.524 . S
C463 C64 1.529 . S
C469 C296 1.577 . S
C483 C66 1.516 . S
C489 C181 1.516 . S
C503 C204 1.510 . S
C509 C20 1.511 . S
C523 C41 1.504 . S
C529 C158 1.573 . S
C543 C87 1.482 . S
C549 C249 1.457 . S
C563 C111 1.441 . S
C569 C272 1.451 . S
C583 C226 1.458 . S
C589 C133 1.484 . S
C603 C387 1.451 . S
C609 C134 1.463 . S
C623 C88 1.471 . S
C629 C409 1.488 . S
C643 C363 1.492 . S
C649 C110 1.486 . S
C663 C202 1.534 . S
C669 C319 1.583 . S
C683 C156 1.596 . S
C689 C340 1.583 . S
C703 C179 1.591 . S
C709 C294 1.572 . S
C723 C225 1.502 . S
C729 C386 1.496 . S
C743 C410 1.473 . S
C749 C248 1.490 . S
C763 C364 1.471 . S
C769 C271 1.487 . S
C783 C19 1.373 . S
C789 C112 1.395 . S
C803 C136 1.363 . S
C809 C44 1.394 . S
C823 C90 1.397 . S
C829 C65 1.384 . S
C843 C113 1.375 . S
C849 C67 1.418 . S
C863 C135 1.419 . S
C869 C21 1.413 . S
C883 C89 1.441 . S
C889 C42 1.389 . S
C903 C251 1.388 . S
C909 C159 1.400 . S
C923 C274 1.390 . S
C929 C182 1.427 . S
C943 C228 1.374 . S
C949 C205 1.417 . S
C963 C250 1.419 . S
C969 C203 1.396 . S
C983 C273 1.420 . S
C989 C157 1.388 . S
C1003 C227 1.402 . S
C1009 C180 1.385 . S
C1023 C388 1.427 . S
C1029 C295 1.381 . S
C1043 C412 1.372 . S
C1049 C320 1.401 . S
C1063 C341 1.397 . S
C1069 C366 1.374 . S
C1083 C343 1.424 . S
C1089 C389 1.416 . S
C1103 C297 1.401 . S
C1109 C411 1.418 . S
C1123 C365 1.441 . S
C1129 C318 1.391 . S
C1143 C16 1.368 . S
C1149 C17 1.371 . S
C1163 C40 1.363 . S
C1169 C39 1.361 . S
C1183 C62 1.373 . S
C1189 C63 1.375 . S
C1203 C85 1.371 . S
C1209 C86 1.373 . S
C1223 C108 1.375 . S
C1229 C109 1.376 . S
C1243 C132 1.368 . S
C1249 C131 1.366 . S
C1263 C154 1.365 . S
C1269 C155 1.366 . S
C1283 C178 1.370 . S
C1289 C177 1.367 . S
C1303 C200 1.372 . S
C1309 C201 1.373 . S
C1323 C223 1.378 . S
C1329 C224 1.379 . S
C1343 C246 1.365 . S
C1349 C247 1.369 . S
C1363 C269 1.361 . S
C1369 C270 1.365 . S
C1383 C293 1.363 . S
C1389 C292 1.361 . S
C1403 C316 1.371 . S
C1409 C315 1.368 . S
C1423 C338 1.358 . S
C1429 C339 1.360 . S
C1443 C362 1.367 . S
C1449 C361 1.364 . S
C1463 C384 1.376 . S
C1469 C385 1.377 . S
C1483 C407 1.372 . S
C1489 C408 1.375 . S
