# Generated by pormake.
# Topology uoz, (4)-cn, num edge types: 1
# Building blocks:
#     Node 0, Type 0, BuildingBlock: UXUYUI_clean_sbu_0, # of connection points: 4
#     Node 1, Type 0, BuildingBlock: UXUYUI_clean_sbu_0, # of connection points: 4
#     Node 2, Type 0, BuildingBlock: UXUYUI_clean_sbu_0, # of connection points: 4
#     Node 3, Type 0, BuildingBlock: UXUYUI_clean_sbu_0, # of connection points: 4
#     Node 4, Type 0, BuildingBlock: UXUYUI_clean_sbu_0, # of connection points: 4
#     Node 5, Type 0, BuildingBlock: UXUYUI_clean_sbu_0, # of connection points: 4
#     Node 6, Type 0, BuildingBlock: UXUYUI_clean_sbu_0, # of connection points: 4
#     Node 7, Type 0, BuildingBlock: UXUYUI_clean_sbu_0, # of connection points: 4
#     Node 8, Type 0, BuildingBlock: UXUYUI_clean_sbu_0, # of connection points: 4
#     Node 9, Type 0, BuildingBlock: UXUYUI_clean_sbu_0, # of connection points: 4
#     Node 10, Type 0, BuildingBlock: UXUYUI_clean_sbu_0, # of connection points: 4
#     Node 11, Type 0, BuildingBlock: UXUYUI_clean_sbu_0, # of connection points: 4
#     Node 12, Type 0, BuildingBlock: UXUYUI_clean_sbu_0, # of connection points: 4
#     Node 13, Type 0, BuildingBlock: UXUYUI_clean_sbu_0, # of connection points: 4
#     Node 14, Type 0, BuildingBlock: UXUYUI_clean_sbu_0, # of connection points: 4
#     Node 15, Type 0, BuildingBlock: UXUYUI_clean_sbu_0, # of connection points: 4
#     Edge 16, Type (0, 0), BuildingBlock: XUDNAN_clean_linker_2, # of connection points: 2
#     Edge 17, Type (0, 0), BuildingBlock: XUDNAN_clean_linker_2, # of connection points: 2
#     Edge 18, Type (0, 0), BuildingBlock: XUDNAN_clean_linker_2, # of connection points: 2
#     Edge 19, Type (0, 0), BuildingBlock: XUDNAN_clean_linker_2, # of connection points: 2
#     Edge 20, Type (0, 0), BuildingBlock: XUDNAN_clean_linker_2, # of connection points: 2
#     Edge 21, Type (0, 0), BuildingBlock: XUDNAN_clean_linker_2, # of connection points: 2
#     Edge 22, Type (0, 0), BuildingBlock: XUDNAN_clean_linker_2, # of connection points: 2
#     Edge 23, Type (0, 0), BuildingBlock: XUDNAN_clean_linker_2, # of connection points: 2
#     Edge 24, Type (0, 0), BuildingBlock: XUDNAN_clean_linker_2, # of connection points: 2
#     Edge 25, Type (0, 0), BuildingBlock: XUDNAN_clean_linker_2, # of connection points: 2
#     Edge 26, Type (0, 0), BuildingBlock: XUDNAN_clean_linker_2, # of connection points: 2
#     Edge 27, Type (0, 0), BuildingBlock: XUDNAN_clean_linker_2, # of connection points: 2
#     Edge 28, Type (0, 0), BuildingBlock: XUDNAN_clean_linker_2, # of connection points: 2
#     Edge 29, Type (0, 0), BuildingBlock: XUDNAN_clean_linker_2, # of connection points: 2
#     Edge 30, Type (0, 0), BuildingBlock: XUDNAN_clean_linker_2, # of connection points: 2
#     Edge 31, Type (0, 0), BuildingBlock: XUDNAN_clean_linker_2, # of connection points: 2
#     Edge 32, Type (0, 0), BuildingBlock: XUDNAN_clean_linker_2, # of connection points: 2
#     Edge 33, Type (0, 0), BuildingBlock: XUDNAN_clean_linker_2, # of connection points: 2
#     Edge 34, Type (0, 0), BuildingBlock: XUDNAN_clean_linker_2, # of connection points: 2
#     Edge 35, Type (0, 0), BuildingBlock: XUDNAN_clean_linker_2, # of connection points: 2
#     Edge 36, Type (0, 0), BuildingBlock: XUDNAN_clean_linker_2, # of connection points: 2
#     Edge 37, Type (0, 0), BuildingBlock: XUDNAN_clean_linker_2, # of connection points: 2
#     Edge 38, Type (0, 0), BuildingBlock: XUDNAN_clean_linker_2, # of connection points: 2
#     Edge 39, Type (0, 0), BuildingBlock: XUDNAN_clean_linker_2, # of connection points: 2
#     Edge 40, Type (0, 0), BuildingBlock: XUDNAN_clean_linker_2, # of connection points: 2
#     Edge 41, Type (0, 0), BuildingBlock: XUDNAN_clean_linker_2, # of connection points: 2
#     Edge 42, Type (0, 0), BuildingBlock: XUDNAN_clean_linker_2, # of connection points: 2
#     Edge 43, Type (0, 0), BuildingBlock: XUDNAN_clean_linker_2, # of connection points: 2
#     Edge 44, Type (0, 0), BuildingBlock: XUDNAN_clean_linker_2, # of connection points: 2
#     Edge 45, Type (0, 0), BuildingBlock: XUDNAN_clean_linker_2, # of connection points: 2
#     Edge 46, Type (0, 0), BuildingBlock: XUDNAN_clean_linker_2, # of connection points: 2
#     Edge 47, Type (0, 0), BuildingBlock: XUDNAN_clean_linker_2, # of connection points: 2
# Relax obj value: 0.206
# Max RMSD: 0.135
# Mean RMSD: 0.135
data_MOF--net-uoz--node1-UXUYUI_clean_sbu_0--edge1-XUDNAN_clean_linker_2
_symmetry_space_group_name_H-M    P1
_symmetry_Int_Tables_number       1
_symmetry_cell_setting            triclinic
loop_
_symmetry_equiv_pos_as_xyz
'x, y, z'
_cell_length_a     86.53402
_cell_length_b     86.397396
_cell_length_c     33.168095
_cell_angle_alpha  89.981291
_cell_angle_beta   90.024573
_cell_angle_gamma 90.017199
loop_
_atom_site_label
_atom_site_type_symbol
_atom_site_fract_x
_atom_site_fract_y
_atom_site_fract_z
_atom_type_partial_charge
Li0 Li 0.98617 0.59597 0.31401 0.0
Li1 Li 0.01431 0.59562 0.31325 0.0
Li2 Li 0.99884 0.573 0.28655 0.0
Li3 Li 1.00086 0.5771 0.35969 0.0
C4 C 0.99379 0.60381 0.23745 0.0
N5 N 0.98077 0.62291 0.17977 0.0
C6 C 0.99826 0.61932 0.23469 0.0
C7 C 0.98286 0.59797 0.21037 0.0
C8 C 0.99151 0.6288 0.20547 0.0
C9 C 0.97636 0.60782 0.18157 0.0
C10 C 0.00874 0.61055 0.38486 0.0
C11 C 0.02801 0.61506 0.4361 0.0
N12 N 0.02536 0.63054 0.43337 0.0
C13 C 0.00607 0.62649 0.38294 0.0
C14 C 0.01967 0.60477 0.41197 0.0
C15 C 0.01465 0.63641 0.40755 0.0
C16 C 0.95455 0.60251 0.29794 0.0
N17 N 0.96855 0.60914 0.30486 0.0
C18 C 0.95865 0.63394 0.28539 0.0
C19 C 0.97068 0.62462 0.29974 0.0
C20 C 0.94424 0.62728 0.27625 0.0
C21 C 0.94222 0.61137 0.2835 0.0
H22 H 0.95307 0.59023 0.30215 0.0
H23 H 0.98194 0.62964 0.30491 0.0
C24 C 0.04378 0.59894 0.28097 0.0
N25 N 0.0325 0.60726 0.29948 0.0
C26 C 0.05589 0.60641 0.26111 0.0
C27 C 0.04485 0.63097 0.28036 0.0
C28 C 0.03304 0.62299 0.30047 0.0
C29 C 0.05622 0.62266 0.25912 0.0
H30 H 0.04293 0.58648 0.27956 0.0
H31 H 0.02372 0.62942 0.31412 0.0
C32 C 0.97119 0.56257 0.3175 0.0
N33 N 0.94996 0.53976 0.29865 0.0
C34 C 0.96682 0.55167 0.34651 0.0
C35 C 0.96451 0.56202 0.27916 0.0
C36 C 0.95614 0.54019 0.33634 0.0
C37 C 0.95387 0.55036 0.27012 0.0
C38 C 0.02966 0.56508 0.33677 0.0
C39 C 0.03132 0.54924 0.32936 0.0
C40 C 0.04052 0.57272 0.3608 0.0
C41 C 0.04355 0.54121 0.34721 0.0
C42 C 0.05261 0.56428 0.37802 0.0
N43 N 0.05384 0.54883 0.37102 0.0
C44 C 0.00304 0.56024 0.20936 0.0
C45 C 0.99635 0.54223 0.26045 0.0
C46 C 0.00446 0.54834 0.18122 0.0
N47 N 0.99903 0.55697 0.24802 0.0
C48 C 0.99768 0.52998 0.2334 0.0
C49 C 0.00191 0.53297 0.19331 0.0
H50 H 0.0055 0.57205 0.20066 0.0
H51 H 0.99347 0.53995 0.29159 0.0
C52 C 0.00257 0.56719 0.44605 0.0
N53 N 0.00194 0.56353 0.40611 0.0
C54 C 0.00432 0.55542 0.47511 0.0
C55 C 0.00425 0.53657 0.42144 0.0
C56 C 0.00242 0.54855 0.39379 0.0
C57 C 0.00552 0.53988 0.46269 0.0
H58 H 0.00194 0.57916 0.45541 0.0
H59 H 1.00146 0.5459 0.36207 0.0
O60 O 1.00009 0.5944 0.2664 0.0
O61 O 1.00045 0.60065 0.36099 0.0
O62 O 0.98178 0.57381 0.32687 0.0
O63 O 0.01761 0.57311 0.31999 0.0
H64 H 0.00664 0.62408 0.25533 0.0
H65 H 0.97946 0.58596 0.21135 0.0
H66 H 0.99476 0.64086 0.20333 0.0
H67 H 0.96784 0.60345 0.16059 0.0
H68 H 0.03656 0.61073 0.45707 0.0
H69 H 0.99753 0.63117 0.36254 0.0
H70 H 0.02166 0.59247 0.41446 0.0
H71 H 0.01278 0.64878 0.40614 0.0
H72 H 0.96072 0.64618 0.28088 0.0
H73 H 0.93142 0.60563 0.27656 0.0
H74 H 0.06453 0.59946 0.24602 0.0
H75 H 0.04446 0.64349 0.27935 0.0
H76 H 0.97148 0.55215 0.37671 0.0
H77 H 0.96756 0.57045 0.25656 0.0
H78 H 0.95271 0.53165 0.35848 0.0
H79 H 0.94873 0.54975 0.24044 0.0
H80 H 0.02319 0.54318 0.31033 0.0
H81 H 0.03974 0.58505 0.36573 0.0
H82 H 0.04486 0.52891 0.34208 0.0
H83 H 0.06105 0.57005 0.39683 0.0
H84 H 0.00798 0.55109 0.15071 0.0
H85 H 0.99551 0.51829 0.2438 0.0
H86 H 0.0052 0.55846 0.5067 0.0
H87 H 0.00476 0.52476 0.4105 0.0
Li88 Li 0.67681 0.7503 0.60455 0.0
Li89 Li 0.65702 0.76493 0.56273 0.0
Li90 Li 0.6577 0.73559 0.56482 0.0
Li91 Li 0.67798 0.75017 0.53396 0.0
C92 C 0.64898 0.75708 0.64547 0.0
N93 N 0.64031 0.77043 0.71762 0.0
C94 C 0.65187 0.77276 0.6525 0.0
C95 C 0.64166 0.74818 0.67503 0.0
C96 C 0.64739 0.7793 0.68919 0.0
C97 C 0.63739 0.75514 0.71135 0.0
C98 C 0.6898 0.77781 0.54871 0.0
C99 C 0.69545 0.79697 0.49784 0.0
N100 N 0.71075 0.79583 0.50673 0.0
C101 C 0.70558 0.77689 0.55744 0.0
C102 C 0.68469 0.78797 0.51873 0.0
C103 C 0.71598 0.78606 0.53583 0.0
C104 C 0.70537 0.74681 0.63948 0.0
N105 N 0.69067 0.75044 0.6505 0.0
C106 C 0.6991 0.7552 0.71836 0.0
C107 C 0.68728 0.75428 0.68936 0.0
C108 C 0.71448 0.75235 0.70694 0.0
C109 C 0.71748 0.74785 0.66711 0.0
H110 H 0.70775 0.74354 0.60863 0.0
H111 H 0.67554 0.75697 0.69781 0.0
C112 C 0.62928 0.77689 0.53581 0.0
N113 N 0.64286 0.78149 0.55257 0.0
C114 C 0.61965 0.78762 0.51685 0.0
C115 C 0.6376 0.80786 0.53531 0.0
C116 C 0.64688 0.79672 0.55416 0.0
C117 C 0.62408 0.8032 0.51535 0.0
H118 H 0.62649 0.76469 0.53448 0.0
H119 H 0.6578 0.80007 0.56741 0.0
C120 C 0.68202 0.71902 0.59323 0.0
N121 N 0.68549 0.69303 0.64103 0.0
C122 C 0.6916 0.7069 0.58081 0.0
C123 C 0.67416 0.71787 0.62994 0.0
C124 C 0.69321 0.69386 0.60539 0.0
C125 C 0.67609 0.70466 0.65369 0.0
C126 C 0.65535 0.74716 0.47847 0.0
C127 C 0.66 0.7329 0.46275 0.0
C128 C 0.6502 0.7588 0.45245 0.0
C129 C 0.65948 0.73053 0.42111 0.0
C130 C 0.64983 0.75597 0.41099 0.0
N131 N 0.65445 0.74202 0.39632 0.0
C132 C 0.62879 0.72143 0.56507 0.0
C133 C 0.64872 0.70492 0.54169 0.0
C134 C 0.61758 0.71057 0.55422 0.0
N135 N 0.64398 0.71852 0.55824 0.0
C136 C 0.63787 0.69373 0.53023 0.0
C137 C 0.62202 0.69659 0.53586 0.0
H138 H 0.62534 0.7325 0.57737 0.0
H139 H 0.66086 0.70301 0.5358 0.0
C140 C 0.7033 0.73867 0.49147 0.0
N141 N 0.69202 0.74959 0.48973 0.0
C142 C 0.71343 0.73671 0.45922 0.0
C143 C 0.70061 0.75775 0.42465 0.0
C144 C 0.69054 0.75911 0.45727 0.0
C145 C 0.71205 0.74628 0.42528 0.0
H146 H 0.7043 0.73135 0.51772 0.0
H147 H 0.68141 0.7676 0.45631 0.0
O148 O 0.65329 0.75039 0.60991 0.0
O149 O 0.67941 0.76891 0.56954 0.0
O150 O 0.68032 0.73179 0.56913 0.0
O151 O 0.65601 0.74979 0.51908 0.0
H152 H 0.65765 0.77976 0.63005 0.0
H153 H 0.63936 0.73602 0.66995 0.0
H154 H 0.64958 0.79141 0.69513 0.0
H155 H 0.63175 0.7484 0.73456 0.0
H156 H 0.69164 0.80477 0.47434 0.0
H157 H 0.70978 0.76921 0.58065 0.0
H158 H 0.6726 0.78859 0.51078 0.0
H159 H 0.72823 0.78542 0.54225 0.0
H160 H 0.69635 0.75871 0.74887 0.0
H161 H 0.72916 0.74541 0.65723 0.0
H162 H 0.60938 0.78366 0.50127 0.0
H163 H 0.64138 0.81981 0.53425 0.0
H164 H 0.69768 0.7075 0.55236 0.0
H165 H 0.6667 0.72705 0.64021 0.0
H166 H 0.70058 0.6844 0.59609 0.0
H167 H 0.67011 0.70365 0.6822 0.0
H168 H 0.66424 0.72387 0.48243 0.0
H169 H 0.64671 0.76997 0.46407 0.0
H170 H 0.66314 0.71959 0.4085 0.0
H171 H 0.64594 0.76489 0.39048 0.0
H172 H 0.60551 0.71343 0.55854 0.0
H173 H 0.64184 0.68308 0.51649 0.0
H174 H 0.72224 0.72782 0.46075 0.0
H175 H 0.69917 0.76524 0.39873 0.0
Li176 Li 0.50211 0.43022 0.79357 0.0
Li177 Li 0.50283 0.42365 0.86444 0.0
Li178 Li 0.51558 0.40661 0.81282 0.0
Li179 Li 0.48703 0.40751 0.81653 0.0
C180 C 0.532 0.43789 0.81497 0.0
N181 N 0.55477 0.45758 0.78684 0.0
C182 C 0.5361 0.45105 0.83708 0.0
C183 C 0.53958 0.43471 0.77872 0.0
C184 C 0.54761 0.46088 0.8223 0.0
C185 C 0.55103 0.4448 0.76496 0.0
C186 C 0.47812 0.44412 0.83222 0.0
C187 C 0.4569 0.46136 0.81791 0.0
N188 N 0.46551 0.4735 0.83118 0.0
C189 C 0.48675 0.45677 0.84578 0.0
C190 C 0.46306 0.44641 0.81823 0.0
C191 C 0.48018 0.47153 0.845 0.0
C192 C 0.493 0.44428 0.72146 0.0
N193 N 0.50106 0.44679 0.75602 0.0
C194 C 0.50614 0.47291 0.73677 0.0
C195 C 0.50742 0.46082 0.76428 0.0
C196 C 0.49807 0.47061 0.70057 0.0
C197 C 0.49143 0.45607 0.69301 0.0
H198 H 0.48765 0.43315 0.71619 0.0
H199 H 0.51323 0.46278 0.79251 0.0
C200 C 0.51873 0.43706 0.92989 0.0
N201 N 0.5043 0.43368 0.91628 0.0
C202 C 0.52087 0.44834 0.95962 0.0
C203 C 0.49318 0.45137 0.96382 0.0
C204 C 0.49157 0.44007 0.93375 0.0
C205 C 0.50802 0.45614 0.97577 0.0
H206 H 0.52867 0.43188 0.91543 0.0
H207 H 0.48021 0.43736 0.92211 0.0
C208 C 0.50311 0.40307 0.73292 0.0
N209 N 0.50869 0.38935 0.65906 0.0
C210 C 0.49577 0.3892 0.72267 0.0
C211 C 0.51309 0.41009 0.70527 0.0
C212 C 0.4988 0.38241 0.68529 0.0
C213 C 0.51581 0.40295 0.66818 0.0
C214 C 0.49401 0.39429 0.89176 0.0
C215 C 0.49994 0.38185 0.91377 0.0
C216 C 0.47986 0.40083 0.90289 0.0
C217 C 0.49162 0.37615 0.94668 0.0
C218 C 0.4719 0.39481 0.936 0.0
N219 N 0.4779 0.3827 0.95703 0.0
C220 C 0.54732 0.39774 0.80488 0.0
C221 C 0.52921 0.38026 0.7769 0.0
C222 C 0.55954 0.38954 0.78744 0.0
N223 N 0.53246 0.39333 0.79805 0.0
C224 C 0.54103 0.37182 0.75847 0.0
C225 C 0.55647 0.37668 0.7626 0.0
H226 H 0.54968 0.40796 0.82265 0.0
H227 H 0.51735 0.37669 0.77297 0.0
C228 C 0.45942 0.40294 0.77619 0.0
N229 N 0.46898 0.39596 0.80312 0.0
C230 C 0.44713 0.3948 0.75908 0.0
C231 C 0.45475 0.37229 0.79754 0.0
C232 C 0.46687 0.38095 0.81422 0.0
C233 C 0.44477 0.37919 0.76925 0.0
H234 H 0.46179 0.41466 0.76658 0.0
H235 H 0.47493 0.37551 0.83472 0.0
O236 O 0.52068 0.42817 0.82885 0.0
O237 O 0.48443 0.4296 0.83226 0.0
O238 O 0.50025 0.40989 0.76944 0.0
O239 O 0.50205 0.39992 0.85943 0.0
H240 H 0.53026 0.45386 0.86492 0.0
H241 H 0.53672 0.4245 0.76151 0.0
H242 H 0.5508 0.47116 0.83895 0.0
H243 H 0.55697 0.44246 0.73692 0.0
H244 H 0.44526 0.4633 0.80714 0.0
H245 H 0.49849 0.45524 0.85628 0.0
H246 H 0.45617 0.43676 0.80785 0.0
H247 H 0.48677 0.48142 0.85524 0.0
H248 H 0.51149 0.48393 0.74373 0.0
H249 H 0.48487 0.4539 0.66577 0.0
H250 H 0.53251 0.45149 0.96837 0.0
H251 H 0.48297 0.45711 0.97531 0.0
H252 H 0.48796 0.38361 0.74355 0.0
H253 H 0.51853 0.42103 0.7121 0.0
H254 H 0.4933 0.37161 0.67715 0.0
H255 H 0.52354 0.40824 0.64657 0.0
H256 H 0.51087 0.37664 0.90546 0.0
H257 H 0.47501 0.4104 0.88614 0.0
H258 H 0.49608 0.36652 0.96399 0.0
H259 H 0.46095 0.39976 0.94495 0.0
H260 H 0.57125 0.39347 0.79268 0.0
H261 H 0.53798 0.36203 0.73974 0.0
H262 H 0.43997 0.40049 0.73678 0.0
H263 H 0.45334 0.36029 0.80623 0.0
Li264 Li 0.82659 0.25223 0.10954 0.0
Li265 Li 0.84512 0.23587 0.06733 0.0
Li266 Li 0.8479 0.26497 0.06861 0.0
Li267 Li 0.82561 0.25277 0.03797 0.0
C268 C 0.85588 0.2569 0.14821 0.0
N269 N 0.86727 0.27146 0.21612 0.0
C270 C 0.86607 0.24912 0.17383 0.0
C271 C 0.85156 0.27213 0.15692 0.0
C272 C 0.87168 0.25667 0.20808 0.0
C273 C 0.85742 0.27928 0.19146 0.0
C274 C 0.81157 0.22616 0.05175 0.0
C275 C 0.8042 0.2125 0.99129 0.0
N276 N 0.78982 0.21032 0.00679 0.0
C277 C 0.79677 0.22364 0.06725 0.0
C278 C 0.81537 0.22042 0.01363 0.0
C279 C 0.78592 0.21565 0.044 0.0
C280 C 0.79814 0.25403 0.15009 0.0
N281 N 0.81361 0.25293 0.15707 0.0
C282 C 0.80917 0.25361 0.22838 0.0
C283 C 0.81922 0.25246 0.1954 0.0
C284 C 0.79316 0.25497 0.22198 0.0
C285 C 0.78767 0.25496 0.18216 0.0
H286 H 0.79393 0.25437 0.11941 0.0
H287 H 0.83148 0.25128 0.20059 0.0
C288 C 0.87234 0.2197 0.0507 0.0
N289 N 0.85704 0.21765 0.05828 0.0
C290 C 0.88093 0.20795 0.03236 0.0
C291 C 0.8581 0.19184 0.03257 0.0
C292 C 0.84996 0.20388 0.05105 0.0
C293 C 0.87365 0.19401 0.02158 0.0
H294 H 0.87757 0.2309 0.05592 0.0
H295 H 0.83776 0.20257 0.05715 0.0
C296 C 0.81663 0.28128 0.05511 0.0
N297 N 0.79753 0.30127 0.01327 0.0
C298 C 0.82122 0.28721 0.01776 0.0
C299 C 0.80241 0.28569 0.07143 0.0
C300 C 0.81137 0.29724 0.99699 0.0
C301 C 0.7929 0.29578 0.04976 0.0
C302 C 0.85487 0.25015 0.98713 0.0
C303 C 0.86008 0.26381 0.96902 0.0
C304 C 0.85731 0.23601 0.96759 0.0
C305 C 0.86797 0.26307 0.93234 0.0
C306 C 0.86523 0.23575 0.9309 0.0
N307 N 0.87037 0.24917 0.91422 0.0
C308 C 0.87806 0.27461 0.05697 0.0
C309 C 0.86004 0.29507 0.04981 0.0
C310 C 0.8895 0.2834 0.03813 0.0
N311 N 0.86351 0.2803 0.06081 0.0
C312 C 0.87111 0.30422 0.0303 0.0
C313 C 0.88588 0.2981 0.02244 0.0
H314 H 0.88042 0.26276 0.06552 0.0
H315 H 0.84836 0.29931 0.05305 0.0
C316 C 0.79604 0.25597 1.0013 0.0
N317 N 0.81145 0.25476 0.99369 0.0
C318 C 0.78562 0.25831 0.96969 0.0
C319 C 0.8071 0.25798 0.92316 0.0
C320 C 0.81703 0.25558 0.95547 0.0
C321 C 0.79121 0.25953 0.9301 0.0
H322 H 0.79189 0.25537 0.03201 0.0
H323 H 0.82919 0.2546 0.94978 0.0
O324 O 0.85035 0.24968 0.11451 0.0
O325 O 0.8223 0.2342 0.07373 0.0
O326 O 0.82596 0.27116 0.07548 0.0
O327 O 0.84727 0.25063 0.0234 0.0
H328 H 0.86957 0.23735 0.16733 0.0
H329 H 0.84374 0.27836 0.13734 0.0
H330 H 0.87954 0.25077 0.22826 0.0
H331 H 0.85415 0.29104 0.19866 0.0
H332 H 0.80695 0.20814 0.96158 0.0
H333 H 0.79368 0.22776 0.09694 0.0
H334 H 0.82675 0.22229 1.00115 0.0
H335 H 0.77439 0.21368 0.05556 0.0
H336 H 0.81389 0.2534 0.25863 0.0
H337 H 0.77545 0.25612 0.17582 0.0
H338 H 0.89283 0.21019 0.02413 0.0
H339 H 0.8521 0.18119 0.02535 0.0
H340 H 0.83212 0.28382 0.00454 0.0
H341 H 0.79875 0.28141 0.10052 0.0
H342 H 0.81471 0.30175 0.96784 0.0
H343 H 0.78183 0.29923 0.06195 0.0
H344 H 0.85795 0.27492 0.98279 0.0
H345 H 0.85309 0.22532 0.98034 0.0
H346 H 0.87212 0.27357 0.91821 0.0
H347 H 0.86725 0.22487 0.91565 0.0
H348 H 0.90083 0.27834 0.03383 0.0
H349 H 0.86775 0.31546 0.01882 0.0
H350 H 0.77342 0.25949 0.9762 0.0
H351 H 0.81183 0.25856 0.89296 0.0
Li352 Li 0.00345 0.42492 0.78279 0.0
Li353 Li 1.00152 0.42777 0.85456 0.0
Li354 Li 0.01721 0.40732 0.82844 0.0
Li355 Li 0.9885 0.40491 0.82602 0.0
C356 C 0.02482 0.4448 0.81586 0.0
N357 N 0.03348 0.47523 0.80359 0.0
C358 C 0.0137 0.45652 0.81571 0.0
C359 C 0.04035 0.44856 0.80982 0.0
C360 C 0.0183 0.47183 0.80946 0.0
C361 C 0.0445 0.46401 0.80365 0.0
C362 C 0.97145 0.43596 0.82746 0.0
C363 C 0.94822 0.43875 0.86705 0.0
N364 N 0.94602 0.45308 0.85112 0.0
C365 C 0.96892 0.45072 0.81141 0.0
C366 C 0.961 0.42993 0.8555 0.0
C367 C 0.95603 0.4592 0.82381 0.0
C368 C 0.99156 0.44298 0.71662 0.0
N369 N 0.00446 0.43661 0.73324 0.0
C370 C 0.02045 0.44983 0.68546 0.0
C371 C 0.01871 0.43968 0.71794 0.0
C372 C 0.0074 0.45693 0.66818 0.0
C373 C 0.99277 0.45327 0.68404 0.0
H374 H 0.98033 0.44033 0.72914 0.0
H375 H 0.02882 0.43462 0.73182 0.0
C376 C 0.01587 0.4429 0.91703 0.0
N377 N 1.00179 0.44183 0.89904 0.0
C378 C 0.01781 0.45176 0.95173 0.0
C379 C 0.99084 0.45888 0.94795 0.0
C380 C 0.9894 0.44975 0.9135 0.0
C381 C 0.00514 0.45977 0.96775 0.0
H382 H 0.02557 0.43657 0.90477 0.0
H383 H 0.97835 0.44893 0.899 0.0
C384 C 0.01296 0.39044 0.76391 0.0
N385 N 0.03197 0.36789 0.73204 0.0
C386 C 0.00838 0.37493 0.76462 0.0
C387 C 0.02713 0.39451 0.74674 0.0
C388 C 0.01818 0.36369 0.74841 0.0
C389 C 0.0366 0.38293 0.73087 0.0
C390 C 0.00208 0.40575 0.91308 0.0
C391 C 0.0159 0.40585 0.93492 0.0
C392 C 0.98798 0.40546 0.93358 0.0
C393 C 0.01536 0.40596 0.97701 0.0
C394 C 0.98793 0.40557 0.97569 0.0
N395 N 1.00151 0.40584 0.99636 0.0
C396 C 0.04852 0.40236 0.84998 0.0
C397 C 0.03275 0.37993 0.85084 0.0
C398 C 0.06046 0.39435 0.86928 0.0
N399 N 0.03491 0.39514 0.84191 0.0
C400 C 0.04443 0.37144 0.86977 0.0
C401 C 0.05834 0.37879 0.88038 0.0
H402 H 0.04976 0.41457 0.8437 0.0
H403 H 0.02162 0.37463 0.8455 0.0
C404 C 0.95744 0.39115 0.82942 0.0
N405 N 0.97296 0.38949 0.8347 0.0
C406 C 0.94727 0.3797 0.84345 0.0
C407 C 0.96931 0.3647 0.86531 0.0
C408 C 0.97897 0.37652 0.85182 0.0
C409 C 0.95325 0.36633 0.86187 0.0
H410 H 0.95291 0.40154 0.81558 0.0
H411 H 0.99133 0.37558 0.85601 0.0
O412 O 0.02056 0.42967 0.82126 0.0
O413 O 0.98386 0.42734 0.81511 0.0
O414 O 0.00368 0.40158 0.78028 0.0
O415 O 0.00235 0.40592 0.87184 0.0
H416 H 1.00167 0.45383 0.82041 0.0
H417 H 0.04911 0.43963 0.80953 0.0
H418 H 0.0098 0.48101 0.80926 0.0
H419 H 0.05648 0.46707 0.79882 0.0
H420 H 0.94009 0.43422 0.88886 0.0
H421 H 0.97681 0.45564 0.78963 0.0
H422 H 0.96287 0.4187 0.86879 0.0
H423 H 0.95396 0.47064 0.81168 0.0
H424 H 0.03198 0.45241 0.67472 0.0
H425 H 0.98237 0.45827 0.67139 0.0
H426 H 0.02907 0.45232 0.96589 0.0
H427 H 0.98078 0.46484 0.95957 0.0
H428 H 0.99742 0.3716 0.77767 0.0
H429 H 0.03085 0.40646 0.74618 0.0
H430 H 0.01483 0.35163 0.74887 0.0
H431 H 0.04765 0.38589 0.71772 0.0
H432 H 0.02692 0.40603 0.91958 0.0
H433 H 0.97719 0.40514 0.91718 0.0
H434 H 0.02596 0.40618 0.9943 0.0
H435 H 0.9771 0.40542 0.99195 0.0
H436 H 0.07102 0.40044 0.87679 0.0
H437 H 0.04222 0.35955 0.87833 0.0
H438 H 0.93492 0.38127 0.84009 0.0
H439 H 0.97434 0.3546 0.87956 0.0
Li440 Li 0.84568 0.73873 0.07774 0.0
Li441 Li 0.82446 0.75391 0.10427 0.0
Li442 Li 0.82773 0.75301 0.03195 0.0
Li443 Li 0.8465 0.76776 0.0769 0.0
C444 C 0.81686 0.72221 0.08138 0.0
N445 N 0.80387 0.69476 0.10734 0.0
C446 C 0.8182 0.71773 0.1217 0.0
C447 C 0.80886 0.71278 0.05427 0.0
C448 C 0.81156 0.7038 0.13425 0.0
C449 C 0.80239 0.69893 0.06797 0.0
C450 C 0.84949 0.75394 0.16254 0.0
C451 C 0.85622 0.76831 0.22241 0.0
N452 N 0.857 0.75484 0.24353 0.0
C453 C 0.8505 0.74023 0.18479 0.0
C454 C 0.85251 0.7681 0.18143 0.0
C455 C 0.85426 0.74093 0.22571 0.0
C456 C 0.87217 0.72443 0.10767 0.0
N457 N 0.85849 0.72117 0.08932 0.0
C458 C 0.86175 0.69418 0.103 0.0
C459 C 0.85346 0.70633 0.0854 0.0
C460 C 0.87544 0.69733 0.12437 0.0
C461 C 0.8809 0.71263 0.12538 0.0
H462 H 0.87584 0.73635 0.11067 0.0
H463 H 0.84267 0.70394 0.07026 0.0
C464 C 0.79482 0.74766 0.13208 0.0
N465 N 0.80852 0.75384 0.14402 0.0
C466 C 0.78289 0.74561 0.15973 0.0
C467 C 0.79892 0.75749 0.21083 0.0
C468 C 0.81064 0.75909 0.18227 0.0
C469 C 0.785 0.75031 0.19979 0.0
H470 H 0.7933 0.74395 0.1012 0.0
H471 H 0.82142 0.76436 0.19088 0.0
C472 C 0.85635 0.74401 0.99933 0.0
N473 N 0.86627 0.72645 0.93476 0.0
C474 C 0.86869 0.74908 0.97562 0.0
C475 C 0.84906 0.72998 0.99027 0.0
C476 C 0.87354 0.74004 0.94308 0.0
C477 C 0.85425 0.72128 0.95749 0.0
C478 C 0.81315 0.78055 0.08446 0.0
C479 C 0.79811 0.78093 0.06912 0.0
C480 C 0.81666 0.78873 0.11964 0.0
C481 C 0.78679 0.7894 0.08945 0.0
C482 C 0.80502 0.79707 0.13909 0.0
N483 N 0.79044 0.79722 0.12374 0.0
C484 C 0.80043 0.7499 0.98768 0.0
C485 C 0.82185 0.7556 0.94591 0.0
C486 C 0.79036 0.75062 0.95473 0.0
N487 N 0.8158 0.75266 0.98294 0.0
C488 C 0.81223 0.75613 0.91191 0.0
C489 C 0.79613 0.75394 0.916 0.0
H490 H 0.79591 0.74753 0.01746 0.0
H491 H 0.8341 0.75774 0.94274 0.0
C492 C 0.87463 0.78168 0.09816 0.0
N493 N 0.86001 0.78486 0.08569 0.0
C494 C 0.88426 0.79356 0.11191 0.0
C495 C 0.86373 0.81182 0.09875 0.0
C496 C 0.85455 0.7996 0.08489 0.0
C497 C 0.87874 0.80887 0.11325 0.0
H498 H 0.8786 0.76981 0.0989 0.0
H499 H 0.84284 0.80181 0.07512 0.0
O500 O 0.82318 0.73583 0.06835 0.0
O501 O 0.84606 0.7535 0.12226 0.0
O502 O 0.85147 0.75278 0.03119 0.0
O503 O 0.82432 0.77198 0.06562 0.0
H504 H 0.82417 0.72499 0.14312 0.0
H505 H 0.80769 0.71612 0.02295 0.0
H506 H 0.8125 0.7002 0.16539 0.0
H507 H 0.79618 0.69149 0.04731 0.0
H508 H 0.85849 0.77919 0.23742 0.0
H509 H 0.84855 0.72913 0.17064 0.0
H510 H 0.85187 0.77883 0.16478 0.0
H511 H 0.85505 0.7304 0.24327 0.0
H512 H 0.85726 0.68251 0.10097 0.0
H513 H 0.89131 0.7156 0.14176 0.0
H514 H 0.77219 0.74025 0.15006 0.0
H515 H 0.80091 0.76129 0.2415 0.0
H516 H 0.87445 0.75991 0.98229 0.0
H517 H 0.8395 0.72585 0.0082 0.0
H518 H 0.88307 0.74383 0.92443 0.0
H519 H 0.84871 0.71042 0.9501 0.0
H520 H 0.79519 0.77474 0.04186 0.0
H521 H 0.82818 0.78842 0.13222 0.0
H522 H 0.77509 0.78975 0.07798 0.0
H523 H 0.80756 0.80336 0.16651 0.0
H524 H 0.77813 0.74905 0.96 0.0
H525 H 0.81742 0.75832 0.88279 0.0
H526 H 0.89581 0.7907 0.12202 0.0
H527 H 0.85882 0.82333 0.0996 0.0
Li528 Li 0.4869 0.59305 0.32617 0.0
Li529 Li 0.51555 0.59472 0.32889 0.0
Li530 Li 0.50305 0.57561 0.2821 0.0
Li531 Li 0.50268 0.57162 0.35359 0.0
C532 C 0.49332 0.60388 0.24836 0.0
N533 N 0.4767 0.61302 0.18134 0.0
C534 C 0.49892 0.61568 0.22354 0.0
C535 C 0.47925 0.59674 0.23918 0.0
C536 C 0.49034 0.62014 0.18977 0.0
C537 C 0.47103 0.60151 0.20513 0.0
C538 C 0.50474 0.59972 0.40762 0.0
C539 C 0.52088 0.60087 0.46683 0.0
N540 N 0.514 0.6144 0.47756 0.0
C541 C 0.4977 0.61355 0.41945 0.0
C542 C 0.51631 0.59323 0.43168 0.0
C543 C 0.50259 0.62083 0.45484 0.0
C544 C 0.459 0.59785 0.36496 0.0
N545 N 0.46881 0.60469 0.33841 0.0
C546 C 0.45489 0.62856 0.3434 0.0
C547 C 0.467 0.61974 0.32728 0.0
C548 C 0.44458 0.62173 0.37095 0.0
C549 C 0.44665 0.60611 0.38124 0.0
H550 H 0.46122 0.58616 0.37496 0.0
H551 H 0.47531 0.62507 0.30723 0.0
C552 C 0.54631 0.60594 0.34747 0.0
N553 N 0.53114 0.60961 0.34246 0.0
C554 C 0.55616 0.61602 0.36839 0.0
C555 C 0.53485 0.63385 0.37572 0.0
C556 C 0.52552 0.62357 0.35429 0.0
C557 C 0.55022 0.62985 0.38435 0.0
H558 H 0.55058 0.59486 0.33732 0.0
H559 H 0.51343 0.62623 0.34964 0.0
C560 C 0.47854 0.55604 0.32079 0.0
N561 N 0.46608 0.52692 0.33233 0.0
C562 C 0.48764 0.54287 0.31517 0.0
C563 C 0.46304 0.5544 0.33186 0.0
C564 C 0.48116 0.52825 0.32128 0.0
C565 C 0.45697 0.53958 0.33764 0.0
C566 C 0.53176 0.56176 0.32917 0.0
C567 C 0.53293 0.54797 0.30725 0.0
C568 C 0.54157 0.56421 0.36207 0.0
C569 C 0.54377 0.53685 0.31883 0.0
C570 C 0.55226 0.55281 0.37271 0.0
N571 N 0.55313 0.53947 0.35106 0.0
C572 C 0.51815 0.56277 0.21376 0.0
C573 C 0.49147 0.55693 0.21772 0.0
C574 C 0.5199 0.55264 0.18116 0.0
N575 N 0.50417 0.56447 0.23187 0.0
C576 C 0.49267 0.54675 0.18501 0.0
C577 C 0.5071 0.54424 0.1666 0.0
H578 H 0.52812 0.56872 0.22589 0.0
H579 H 0.48046 0.55845 0.23259 0.0
C580 C 0.49037 0.56193 0.4244 0.0
N581 N 0.50137 0.55761 0.39748 0.0
C582 C 0.48837 0.55373 0.46009 0.0
C583 C 0.5087 0.53632 0.43915 0.0
C584 C 0.5102 0.54481 0.40356 0.0
C585 C 0.49785 0.54094 0.4683 0.0
H586 H 0.48326 0.57196 0.4183 0.0
H587 H 0.51851 0.54123 0.38129 0.0
O588 O 0.5016 0.59947 0.28157 0.0
O589 O 0.50036 0.59263 0.37253 0.0
O590 O 0.48479 0.57046 0.3156 0.0
O591 O 0.52137 0.5729 0.31786 0.0
H592 H 0.50977 0.62134 0.23033 0.0
H593 H 0.47466 0.58766 0.25812 0.0
H594 H 0.49453 0.62926 0.17028 0.0
H595 H 0.46013 0.59609 0.19764 0.0
H596 H 0.52988 0.59602 0.48562 0.0
H597 H 0.48868 0.6187 0.40124 0.0
H598 H 0.52166 0.5824 0.42338 0.0
H599 H 0.49733 0.6316 0.46419 0.0
H600 H 0.45371 0.6406 0.33487 0.0
H601 H 0.4392 0.60052 0.40306 0.0
H602 H 0.56798 0.61256 0.37432 0.0
H603 H 0.5299 0.64451 0.38702 0.0
H604 H 0.49962 0.54395 0.30652 0.0
H605 H 0.45572 0.56443 0.33563 0.0
H606 H 0.48812 0.51797 0.31728 0.0
H607 H 0.445 0.53814 0.34626 0.0
H608 H 0.52552 0.54581 0.28166 0.0
H609 H 0.54092 0.57478 0.37937 0.0
H610 H 0.54473 0.52612 0.3022 0.0
H611 H 0.55987 0.55456 0.39819 0.0
H612 H 0.53132 0.551 0.16858 0.0
H613 H 0.48241 0.54081 0.17456 0.0
H614 H 0.47956 0.55745 0.48113 0.0
H615 H 0.51626 0.52651 0.44419 0.0
Li616 Li 0.65742 0.26502 0.58041 0.0
Li617 Li 0.67866 0.24906 0.61091 0.0
Li618 Li 0.6757 0.24947 0.53691 0.0
Li619 Li 0.65635 0.23679 0.58309 0.0
C620 C 0.68846 0.27998 0.57262 0.0
N621 N 0.70589 0.3068 0.5707 0.0
C622 C 0.69433 0.28627 0.60834 0.0
C623 C 0.69152 0.28733 0.53591 0.0
C624 C 0.70309 0.29983 0.60675 0.0
C625 C 0.70034 0.30087 0.53558 0.0
C626 C 0.6466 0.24714 0.65654 0.0
C627 C 0.63868 0.2305 0.71124 0.0
N628 N 0.62481 0.23787 0.71255 0.0
C629 C 0.63226 0.25455 0.65853 0.0
C630 C 0.64986 0.23505 0.68328 0.0
C631 C 0.6214 0.24969 0.68699 0.0
C632 C 0.631 0.2851 0.57651 0.0
N633 N 0.64591 0.28369 0.58905 0.0
C634 C 0.64403 0.30726 0.62648 0.0
C635 C 0.6525 0.29449 0.61339 0.0
C636 C 0.62847 0.30876 0.61529 0.0
C637 C 0.62196 0.29757 0.58964 0.0
H638 H 0.62589 0.27614 0.55803 0.0
H639 H 0.66413 0.29282 0.62425 0.0
C640 C 0.70903 0.25016 0.63922 0.0
N641 N 0.69402 0.24983 0.65114 0.0
C642 C 0.72073 0.25248 0.66744 0.0
C643 C 0.70128 0.25375 0.71976 0.0
C644 C 0.68995 0.25151 0.69045 0.0
C645 C 0.71686 0.25451 0.7082 0.0
H646 H 0.71186 0.24905 0.60761 0.0
H647 H 0.6779 0.25165 0.69887 0.0
C648 C 0.64803 0.25815 0.50005 0.0
N649 N 0.64044 0.2732 0.42927 0.0
C650 C 0.6392 0.25062 0.47073 0.0
C651 C 0.65298 0.27333 0.49343 0.0
C652 C 0.63549 0.25842 0.43513 0.0
C653 C 0.64902 0.28075 0.45745 0.0
C654 C 0.6901 0.22194 0.58698 0.0
C655 C 0.70292 0.21885 0.56264 0.0
C656 C 0.68943 0.21568 0.6258 0.0
C657 C 0.71504 0.20995 0.57798 0.0
C658 C 0.70179 0.20684 0.64009 0.0
N659 N 0.71425 0.20421 0.6161 0.0
C660 C 0.70405 0.25261 0.50256 0.0
C661 C 0.68548 0.2496 0.45075 0.0
C662 C 0.71582 0.2545 0.47439 0.0
N663 N 0.68921 0.25029 0.49063 0.0
C664 C 0.69701 0.25151 0.42121 0.0
C665 C 0.71243 0.25424 0.43298 0.0
H666 H 0.70673 0.25315 0.53437 0.0
H667 H 0.67358 0.24787 0.44182 0.0
C668 C 0.62675 0.22477 0.59576 0.0
N669 N 0.64186 0.22054 0.59406 0.0
C670 C 0.61601 0.21536 0.61547 0.0
C671 C 0.63624 0.19665 0.6276 0.0
C672 C 0.64668 0.20656 0.60818 0.0
C673 C 0.62085 0.20137 0.63293 0.0
H674 H 0.62329 0.23605 0.58484 0.0
H675 H 0.65878 0.20355 0.60694 0.0
O676 O 0.68008 0.26653 0.5735 0.0
O677 O 0.65741 0.2518 0.62886 0.0
O678 O 0.65197 0.25052 0.53469 0.0
O679 O 0.67819 0.23083 0.57264 0.0
H680 H 0.69201 0.28083 0.63708 0.0
H681 H 0.68722 0.28261 0.50787 0.0
H682 H 0.70765 0.30484 0.63418 0.0
H683 H 0.7028 0.30666 0.50737 0.0
H684 H 0.64103 0.22111 0.73193 0.0
H685 H 0.62948 0.26391 0.63826 0.0
H686 H 0.66087 0.22922 0.68252 0.0
H687 H 0.61025 0.25531 0.68872 0.0
H688 H 0.64938 0.31549 0.64678 0.0
H689 H 0.60997 0.29833 0.58047 0.0
H690 H 0.73263 0.25288 0.65745 0.0
H691 H 0.69786 0.25549 0.75084 0.0
H692 H 0.63533 0.23884 0.4754 0.0
H693 H 0.65974 0.27935 0.51584 0.0
H694 H 0.62869 0.25273 0.41212 0.0
H695 H 0.65277 0.2925 0.45194 0.0
H696 H 0.70345 0.22313 0.53207 0.0
H697 H 0.67956 0.21776 0.64487 0.0
H698 H 0.72506 0.20755 0.5595 0.0
H699 H 0.70147 0.20209 0.67025 0.0
H700 H 0.72752 0.25622 0.48512 0.0
H701 H 0.69383 0.25129 0.38964 0.0
H702 H 0.60423 0.21937 0.61893 0.0
H703 H 0.64041 0.186 0.64094 0.0
Li704 Li 0.32599 0.25033 0.6094 0.0
Li705 Li 0.34632 0.23525 0.57787 0.0
Li706 Li 0.34748 0.26414 0.57963 0.0
Li707 Li 0.32778 0.25116 0.5358 0.0
C708 C 0.34943 0.24892 0.66508 0.0
N709 N 0.35252 0.24845 0.74798 0.0
C710 C 0.3531 0.23512 0.68492 0.0
C711 C 0.34748 0.26251 0.68736 0.0
C712 C 0.35458 0.23512 0.72686 0.0
C713 C 0.34904 0.26202 0.72926 0.0
C714 C 0.31263 0.22393 0.58947 0.0
C715 C 0.28628 0.21509 0.59521 0.0
N716 N 0.29021 0.20674 0.62843 0.0
C717 C 0.31641 0.2152 0.62356 0.0
C718 C 0.29745 0.22383 0.57505 0.0
C719 C 0.30492 0.2066 0.64287 0.0
C720 C 0.299 0.26127 0.64497 0.0
N721 N 0.31103 0.25147 0.65157 0.0
C722 C 0.30128 0.24515 0.7169 0.0
C723 C 0.31221 0.24326 0.68644 0.0
C724 C 0.28915 0.25569 0.71144 0.0
C725 C 0.28796 0.26371 0.67485 0.0
H726 H 0.29806 0.26734 0.6166 0.0
H727 H 0.32161 0.23526 0.69082 0.0
C728 C 0.37386 0.22016 0.59703 0.0
N729 N 0.35898 0.2174 0.58586 0.0
C730 C 0.38266 0.20843 0.6148 0.0
C731 C 0.36093 0.19107 0.60734 0.0
C732 C 0.35265 0.20304 0.58895 0.0
C733 C 0.37594 0.19389 0.62154 0.0
H734 H 0.37847 0.23177 0.59499 0.0
H735 H 0.34081 0.20116 0.57982 0.0
C736 C 0.32209 0.28378 0.57454 0.0
N737 N 0.31595 0.31515 0.57572 0.0
C738 C 0.31908 0.29167 0.53859 0.0
C739 C 0.32187 0.29181 0.61111 0.0
C740 C 0.31602 0.30754 0.53983 0.0
C741 C 0.31879 0.30768 0.61106 0.0
C742 C 0.35507 0.24212 0.49753 0.0
C743 C 0.36505 0.24857 0.469 0.0
C744 C 0.34885 0.22739 0.49098 0.0
C745 C 0.36865 0.24017 0.43427 0.0
C746 C 0.35274 0.21936 0.45588 0.0
N747 N 0.36247 0.22586 0.42848 0.0
C748 C 0.3723 0.27847 0.61824 0.0
C749 C 0.35914 0.29566 0.57455 0.0
C750 C 0.38103 0.29062 0.63415 0.0
N751 N 0.3612 0.28124 0.59011 0.0
C752 C 0.36764 0.30818 0.58959 0.0
C753 C 0.37846 0.30582 0.6207 0.0
H754 H 0.37394 0.26689 0.62975 0.0
H755 H 0.35055 0.29759 0.5515 0.0
C756 C 0.29961 0.25703 0.50257 0.0
N757 N 0.31406 0.2531 0.49031 0.0
C758 C 0.28772 0.25902 0.47472 0.0
C759 C 0.30569 0.25306 0.4213 0.0
C760 C 0.31733 0.25108 0.45048 0.0
C761 C 0.29062 0.25721 0.4333 0.0
H762 H 0.29731 0.25859 0.53437 0.0
H763 H 0.32891 0.24805 0.44123 0.0
O764 O 0.34799 0.24917 0.624 0.0
O765 O 0.32372 0.23254 0.57042 0.0
O766 O 0.32504 0.26823 0.57393 0.0
O767 O 0.35142 0.25028 0.53153 0.0
H768 H 0.35463 0.22448 0.66824 0.0
H769 H 0.3448 0.27331 0.67246 0.0
H770 H 0.35733 0.22451 0.74263 0.0
H771 H 0.34751 0.27244 0.74689 0.0
H772 H 0.27448 0.21493 0.58441 0.0
H773 H 0.32803 0.21532 0.63554 0.0
H774 H 0.29432 0.23035 0.54849 0.0
H775 H 0.30767 0.1999 0.66947 0.0
H776 H 0.30252 0.23875 0.74481 0.0
H777 H 0.27859 0.27176 0.66944 0.0
H778 H 0.39416 0.21101 0.62587 0.0
H779 H 0.35542 0.17997 0.61227 0.0
H780 H 0.31921 0.28562 0.51002 0.0
H781 H 0.32402 0.28585 0.63922 0.0
H782 H 0.31372 0.31381 0.51224 0.0
H783 H 0.31863 0.31405 0.63913 0.0
H784 H 0.36994 0.25997 0.47364 0.0
H785 H 0.34108 0.22221 0.5126 0.0
H786 H 0.37635 0.24503 0.4119 0.0
H787 H 0.34801 0.20796 0.4504 0.0
H788 H 0.38916 0.28817 0.65814 0.0
H789 H 0.36552 0.31964 0.57755 0.0
H790 H 0.2763 0.26185 0.48578 0.0
H791 H 0.30853 0.25164 0.38973 0.0
Li792 Li 0.15832 0.76258 0.08265 0.0
Li793 Li 0.17928 0.74854 0.11052 0.0
Li794 Li 0.17766 0.75113 0.03716 0.0
Li795 Li 0.15815 0.7343 0.07863 0.0
C796 C 0.18237 0.78298 0.0761 0.0
N797 N 0.18621 0.8147 0.07276 0.0
C798 C 0.18281 0.79167 0.11162 0.0
C799 C 0.18406 0.79039 0.0389 0.0
C800 C 0.1847 0.80771 0.10929 0.0
C801 C 0.18595 0.80645 0.03784 0.0
C802 C 0.1568 0.74723 0.16708 0.0
C803 C 0.1526 0.73367 0.22969 0.0
N804 N 0.1553 0.74701 0.25027 0.0
C805 C 0.15944 0.76082 0.18883 0.0
C806 C 0.15326 0.73354 0.18761 0.0
C807 C 0.15867 0.76047 0.23088 0.0
C808 C 0.13304 0.77452 0.12262 0.0
N809 N 0.14403 0.77911 0.09585 0.0
C810 C 0.1364 0.80559 0.10421 0.0
C811 C 0.14533 0.79425 0.08485 0.0
C812 C 0.12615 0.80116 0.13491 0.0
C813 C 0.1241 0.78539 0.14297 0.0
H814 H 0.13174 0.76241 0.12986 0.0
H815 H 0.15372 0.79768 0.06253 0.0
C816 C 0.20503 0.7598 0.15098 0.0
N817 N 0.19405 0.74859 0.15311 0.0
C818 C 0.21527 0.76204 0.18281 0.0
C819 C 0.20346 0.74043 0.2174 0.0
C820 C 0.19332 0.73872 0.18501 0.0
C821 C 0.21434 0.75247 0.21684 0.0
H822 H 0.20564 0.76725 0.12487 0.0
H823 H 0.18466 0.72974 0.18588 0.0
C824 C 0.14348 0.75927 0.01679 0.0
N825 N 0.12173 0.77979 0.9876 0.0
C826 C 0.12794 0.75759 0.02735 0.0
C827 C 0.14796 0.7713 0.99117 0.0
C828 C 0.11712 0.76811 0.01234 0.0
C829 C 0.13678 0.78158 0.97677 0.0
C830 C 0.19148 0.7221 0.08835 0.0
C831 C 0.2072 0.72358 0.07954 0.0
C832 C 0.18665 0.71118 0.11677 0.0
C833 C 0.21785 0.71415 0.09952 0.0
C834 C 0.19765 0.70194 0.13606 0.0
N835 N 0.2129 0.70362 0.12713 0.0
C836 C 0.20597 0.75717 0.00487 0.0
C837 C 0.1885 0.75084 0.95247 0.0
C838 C 0.218 0.75894 0.97738 0.0
N839 N 0.19159 0.75314 0.99228 0.0
C840 C 0.20028 0.75265 0.92359 0.0
C841 C 0.21532 0.75684 0.93593 0.0
H842 H 0.20812 0.75894 0.03667 0.0
H843 H 0.17695 0.74765 0.94312 0.0
C844 C 0.13113 0.72028 0.10309 0.0
N845 N 0.14473 0.71694 0.08455 0.0
C846 C 0.12136 0.70842 0.11592 0.0
C847 C 0.13943 0.68982 0.08882 0.0
C848 C 0.1489 0.7021 0.07645 0.0
C849 C 0.12561 0.69292 0.1097 0.0
H850 H 0.12821 0.73219 0.1096 0.0
H851 H 0.15988 0.69975 0.0621 0.0
O852 O 0.18068 0.76725 0.07779 0.0
O853 O 0.15748 0.74734 0.12586 0.0
O854 O 0.15434 0.74946 0.03231 0.0
O855 O 0.18087 0.73138 0.06957 0.0
H856 H 0.18172 0.78611 0.14068 0.0
H857 H 0.18387 0.78386 0.01112 0.0
H858 H 0.18498 0.81458 0.13652 0.0
H859 H 0.18721 0.81235 0.00926 0.0
H860 H 0.14997 0.72315 0.24599 0.0
H861 H 0.16204 0.77153 0.17339 0.0
H862 H 0.15127 0.72289 0.1713 0.0
H863 H 0.16073 0.7709 0.24809 0.0
H864 H 0.13814 0.81769 0.09699 0.0
H865 H 0.11607 0.78155 0.16597 0.0
H866 H 0.22373 0.77127 0.18104 0.0
H867 H 0.20243 0.73281 0.2432 0.0
H868 H 0.12431 0.74836 0.04727 0.0
H869 H 0.15995 0.77272 0.98271 0.0
H870 H 0.10506 0.76702 0.02045 0.0
H871 H 0.14009 0.79099 0.95706 0.0
H872 H 0.21117 0.73191 0.05758 0.0
H873 H 0.17457 0.71007 0.12457 0.0
H874 H 0.23006 0.7152 0.09307 0.0
H875 H 0.19408 0.69353 0.15833 0.0
H876 H 0.22938 0.76178 0.98879 0.0
H877 H 0.19758 0.75101 0.89201 0.0
H878 H 0.11071 0.71138 0.13121 0.0
H879 H 0.14323 0.67805 0.08361 0.0
Li880 Li 0.17654 0.25076 0.11069 0.0
Li881 Li 0.15789 0.26552 0.06682 0.0
Li882 Li 0.15728 0.23645 0.06715 0.0
Li883 Li 0.17877 0.25036 0.03759 0.0
C884 C 0.14788 0.24344 0.1465 0.0
N885 N 0.13765 0.22739 0.21341 0.0
C886 C 0.13667 0.24991 0.17167 0.0
C887 C 0.15385 0.22878 0.15523 0.0
C888 C 0.13166 0.24162 0.2054 0.0
C889 C 0.14853 0.22086 0.18923 0.0
C890 C 0.18631 0.28249 0.06674 0.0
C891 C 0.19204 0.30343 0.02104 0.0
N892 N 0.19808 0.31168 0.05222 0.0
C893 C 0.19263 0.29113 0.09829 0.0
C894 C 0.18604 0.28864 0.02777 0.0
C895 C 0.1985 0.30589 0.09035 0.0
C896 C 0.20464 0.25235 0.15186 0.0
N897 N 0.18913 0.25187 0.15855 0.0
C898 C 0.19329 0.25462 0.22961 0.0
C899 C 0.18332 0.253 0.19655 0.0
C900 C 0.20938 0.25506 0.22355 0.0
C901 C 0.21501 0.25376 0.18401 0.0
H902 H 0.20896 0.25198 0.12129 0.0
H903 H 0.17098 0.25294 0.2013 0.0
C904 C 0.13111 0.27991 0.03952 0.0
N905 N 0.14489 0.28311 0.05737 0.0
C906 C 0.12159 0.29187 0.02587 0.0
C907 C 0.14039 0.31029 0.05019 0.0
C908 C 0.14948 0.29796 0.06377 0.0
C909 C 0.12631 0.30736 0.0303 0.0
H910 H 0.12773 0.26799 0.03478 0.0
H911 H 0.16039 0.3003 0.07831 0.0
C912 C 0.18975 0.22293 0.05455 0.0
N913 N 0.21027 0.20503 0.01098 0.0
C914 C 0.18496 0.21558 0.01914 0.0
C915 C 0.20494 0.22106 0.06798 0.0
C916 C 0.19551 0.20661 0.9975 0.0
C917 C 0.21515 0.212 0.04548 0.0
C918 C 0.15337 0.25141 0.98201 0.0
C919 C 0.14889 0.23794 0.96177 0.0
C920 C 0.15382 0.26547 0.96124 0.0
C921 C 0.14522 0.23873 0.92081 0.0
C922 C 0.15005 0.26579 0.9203 0.0
N923 N 0.14588 0.25252 0.90109 0.0
C924 C 0.12807 0.22502 0.05416 0.0
C925 C 0.14677 0.20498 0.05395 0.0
C926 C 0.11659 0.21471 0.04196 0.0
N927 N 0.14284 0.22008 0.05935 0.0
C928 C 0.13563 0.19424 0.04129 0.0
C929 C 0.12034 0.19913 0.03471 0.0
H930 H 0.12537 0.23715 0.05802 0.0
H931 H 0.15861 0.20134 0.0582 0.0
C932 C 0.20733 0.25809 0.00471 0.0
N933 N 0.19381 0.25084 0.99575 0.0
C934 C 0.21844 0.26037 0.97492 0.0
C935 C 0.2021 0.24652 0.92802 0.0
C936 C 0.19115 0.24479 0.95853 0.0
C937 C 0.21574 0.25472 0.93597 0.0
H938 H 0.20932 0.26242 0.03483 0.0
H939 H 0.18054 0.23871 0.95233 0.0
O940 O 0.15287 0.25144 0.1134 0.0
O941 O 0.18047 0.26806 0.07414 0.0
O942 O 0.17963 0.23201 0.07566 0.0
O943 O 0.1569 0.25085 0.02219 0.0
H944 H 0.13192 0.26124 0.16523 0.0
H945 H 0.16249 0.22355 0.13607 0.0
H946 H 0.12301 0.2465 0.22521 0.0
H947 H 0.15306 0.20952 0.1964 0.0
H948 H 0.1919 0.30834 0.99104 0.0
H949 H 0.19294 0.2865 0.12862 0.0
H950 H 0.18134 0.28204 0.00296 0.0
H951 H 0.20339 0.31273 0.11449 0.0
H952 H 0.18844 0.25559 0.2596 0.0
H953 H 0.22729 0.25436 0.17786 0.0
H954 H 0.11071 0.28896 0.01163 0.0
H955 H 0.14466 0.32198 0.05409 0.0
H956 H 0.1733 0.21705 0.00806 0.0
H957 H 0.20881 0.22648 0.09554 0.0
H958 H 0.19199 0.20098 0.96986 0.0
H959 H 0.22696 0.21048 0.05548 0.0
H960 H 0.14836 0.22696 0.97741 0.0
H961 H 0.15693 0.27606 0.97658 0.0
H962 H 0.14183 0.22838 0.90471 0.0
H963 H 0.15039 0.27659 0.90382 0.0
H964 H 0.10502 0.21905 0.03672 0.0
H965 H 0.13896 0.18231 0.03635 0.0
H966 H 0.22897 0.26657 0.98211 0.0
H967 H 0.19972 0.24196 0.89824 0.0
Li968 Li 0.34767 0.73515 0.56674 0.0
Li969 Li 0.32912 0.74954 0.61358 0.0
Li970 Li 0.32559 0.74952 0.54091 0.0
Li971 Li 0.34694 0.76419 0.56864 0.0
C972 C 0.31535 0.72179 0.55752 0.0
N973 N 0.29479 0.70371 0.51455 0.0
C974 C 0.29984 0.72105 0.56908 0.0
C975 C 0.32042 0.71329 0.52421 0.0
C976 C 0.28962 0.71186 0.54693 0.0
C977 C 0.30984 0.70422 0.50287 0.0
C978 C 0.35822 0.7573 0.64657 0.0
C979 C 0.35774 0.77947 0.69066 0.0
N980 N 0.36914 0.77299 0.7133 0.0
C981 C 0.36996 0.75087 0.67017 0.0
C982 C 0.35207 0.77172 0.6568 0.0
C983 C 0.37531 0.75898 0.70384 0.0
C984 C 0.3734 0.72118 0.53178 0.0
N985 N 0.36096 0.71807 0.55543 0.0
C986 C 0.36552 0.69088 0.54947 0.0
C987 C 0.35712 0.70331 0.56537 0.0
C988 C 0.37785 0.69368 0.52268 0.0
C989 C 0.38198 0.70914 0.51483 0.0
H990 H 0.37611 0.73305 0.5241 0.0
H991 H 0.34711 0.70115 0.58405 0.0
C992 C 0.30158 0.75188 0.65584 0.0
N993 N 0.317 0.75001 0.66224 0.0
C994 C 0.29134 0.75308 0.68828 0.0
C995 C 0.31304 0.75074 0.73369 0.0
C996 C 0.32286 0.74927 0.70027 0.0
C997 C 0.29705 0.75271 0.72785 0.0
H998 H 0.29726 0.75276 0.62533 0.0
H999 H 0.33514 0.74777 0.70478 0.0
C1000 C 0.34883 0.75254 0.48181 0.0
N1001 N 0.35256 0.75759 0.4001 0.0
C1002 C 0.34763 0.7675 0.46607 0.0
C1003 C 0.35213 0.74018 0.45603 0.0
C1004 C 0.34951 0.76981 0.42467 0.0
C1005 C 0.35391 0.74296 0.4148 0.0
C1006 C 0.31867 0.78158 0.57456 0.0
C1007 C 0.31734 0.78853 0.53666 0.0
C1008 C 0.31379 0.7896 0.60887 0.0
C1009 C 0.31132 0.80348 0.53375 0.0
C1010 C 0.30784 0.80454 0.60471 0.0
N1011 N 0.30675 0.81112 0.56756 0.0
C1012 C 0.29642 0.75746 0.51178 0.0
C1013 C 0.3112 0.74303 0.46487 0.0
C1014 C 0.28458 0.75928 0.48372 0.0
N1015 N 0.3096 0.74988 0.50152 0.0
C1016 C 0.29958 0.74442 0.43598 0.0
C1017 C 0.28622 0.75292 0.44507 0.0
H1018 H 0.29519 0.76231 0.54164 0.0
H1019 H 0.32147 0.73652 0.45791 0.0
C1020 C 0.37347 0.77868 0.54013 0.0
N1021 N 0.36 0.7818 0.55959 0.0
C1022 C 0.38306 0.7907 0.52719 0.0
C1023 C 0.36502 0.809 0.55568 0.0
C1024 C 0.35579 0.7966 0.56822 0.0
C1025 C 0.37877 0.80616 0.53428 0.0
H1026 H 0.37654 0.76681 0.53363 0.0
H1027 H 0.34512 0.79888 0.58395 0.0
O1028 O 0.32548 0.73103 0.57815 0.0
O1029 O 0.35284 0.74946 0.61362 0.0
O1030 O 0.34721 0.75004 0.52235 0.0
O1031 O 0.32453 0.76694 0.5782 0.0
H1032 H 0.29571 0.72752 0.5948 0.0
H1033 H 0.33232 0.71393 0.5144 0.0
H1034 H 0.27757 0.71122 0.55546 0.0
H1035 H 0.31359 0.69767 0.47687 0.0
H1036 H 0.35306 0.79064 0.69896 0.0
H1037 H 0.37484 0.73971 0.66259 0.0
H1038 H 0.34301 0.77685 0.63889 0.0
H1039 H 0.38437 0.75414 0.72244 0.0
H1040 H 0.36207 0.67921 0.5572 0.0
H1041 H 0.3912 0.71199 0.49409 0.0
H1042 H 0.27915 0.75482 0.68244 0.0
H1043 H 0.31789 0.75038 0.76378 0.0
H1044 H 0.34542 0.77726 0.48557 0.0
H1045 H 0.35305 0.72851 0.46761 0.0
H1046 H 0.34858 0.78133 0.4121 0.0
H1047 H 0.35634 0.73347 0.39449 0.0
H1048 H 0.32076 0.78239 0.50973 0.0
H1049 H 0.31463 0.78435 0.63842 0.0
H1050 H 0.31024 0.809 0.50461 0.0
H1051 H 0.30408 0.8109 0.63102 0.0
H1052 H 0.27428 0.76564 0.49207 0.0
H1053 H 0.30123 0.73928 0.40651 0.0
H1054 H 0.39367 0.78789 0.51155 0.0
H1055 H 0.36113 0.82069 0.56163 0.0
Li1056 Li 0.51605 0.09408 0.81755 0.0
Li1057 Li 0.48709 0.09293 0.81047 0.0
Li1058 Li 0.5014 0.0752 0.85824 0.0
Li1059 Li 0.50365 0.07193 0.78714 0.0
C1060 C 0.50652 0.10382 0.89446 0.0
N1061 N 0.52008 0.11438 0.96466 0.0
C1062 C 0.49881 0.11455 0.91873 0.0
C1063 C 0.52113 0.09849 0.90582 0.0
C1064 C 0.50587 0.11974 0.95412 0.0
C1065 C 0.52779 0.10395 0.94145 0.0
C1066 C 0.50468 0.09241 0.72813 0.0
C1067 C 0.4936 0.0875 0.66265 0.0
N1068 N 0.50791 0.08852 0.6459 0.0
C1069 C 0.51926 0.09355 0.71025 0.0
C1070 C 0.49172 0.08948 0.70416 0.0
C1071 C 0.52065 0.09151 0.66863 0.0
C1072 C 0.54688 0.10422 0.80022 0.0
N1073 N 0.5324 0.10858 0.81135 0.0
C1074 C 0.53858 0.1352 0.80066 0.0
C1075 C 0.52817 0.1237 0.81223 0.0
C1076 C 0.55354 0.13113 0.78786 0.0
C1077 C 0.55772 0.11539 0.78835 0.0
H1078 H 0.5498 0.09206 0.79885 0.0
H1079 H 0.51644 0.12676 0.82016 0.0
C1080 C 0.45521 0.10315 0.81139 0.0
N1081 N 0.46978 0.10574 0.79765 0.0
C1082 C 0.44292 0.1123 0.79764 0.0
C1083 C 0.461 0.12689 0.75714 0.0
C1084 C 0.47286 0.11746 0.77149 0.0
C1085 C 0.44571 0.12427 0.76971 0.0
H1086 H 0.45306 0.09373 0.83214 0.0
H1087 H 0.48458 0.11935 0.7613 0.0
C1088 C 0.52698 0.05773 0.83401 0.0
N1089 N 0.53929 0.02883 0.84942 0.0
C1090 C 0.51762 0.04458 0.83198 0.0
C1091 C 0.54262 0.05619 0.84369 0.0
C1092 C 0.52405 0.03007 0.83992 0.0
C1093 C 0.54863 0.04148 0.85143 0.0
C1094 C 0.47305 0.06074 0.80722 0.0
C1095 C 0.47184 0.04587 0.8236 0.0
C1096 C 0.46223 0.06566 0.77862 0.0
C1097 C 0.45996 0.03611 0.81066 0.0
C1098 C 0.45051 0.05556 0.76651 0.0
N1099 N 0.44963 0.04111 0.78262 0.0
C1100 C 0.48507 0.05969 0.91941 0.0
C1101 C 0.51218 0.05836 0.92829 0.0
C1102 C 0.48275 0.04946 0.95151 0.0
N1103 N 0.4996 0.06371 0.90793 0.0
C1104 C 0.51039 0.04805 0.96061 0.0
C1105 C 0.49551 0.04329 0.97235 0.0
H1106 H 0.47525 0.06401 0.90266 0.0
H1107 H 0.52364 0.06174 0.91883 0.0
C1108 C 0.52185 0.05626 0.73143 0.0
N1109 N 0.50697 0.05756 0.74421 0.0
C1110 C 0.52547 0.04706 0.69823 0.0
C1111 C 0.49844 0.04034 0.69254 0.0
C1112 C 0.49534 0.04978 0.72557 0.0
C1113 C 0.51364 0.03903 0.67829 0.0
H1114 H 0.53088 0.06272 0.74648 0.0
H1115 H 0.4836 0.05113 0.73538 0.0
O1116 O 0.49973 0.09863 0.85977 0.0
O1117 O 0.50314 0.09385 0.76899 0.0
O1118 O 0.52095 0.07208 0.82667 0.0
O1119 O 0.48443 0.07059 0.82008 0.0
H1120 H 0.4875 0.11879 0.91028 0.0
H1121 H 0.52731 0.09023 0.88739 0.0
H1122 H 0.50004 0.12804 0.97322 0.0
H1123 H 0.53909 0.09991 0.95064 0.0
H1124 H 0.48369 0.08511 0.64378 0.0
H1125 H 0.52941 0.09577 0.72838 0.0
H1126 H 0.48036 0.0886 0.71751 0.0
H1127 H 0.53188 0.09223 0.65442 0.0
H1128 H 0.53467 0.1471 0.80003 0.0
H1129 H 0.56913 0.1117 0.77899 0.0
H1130 H 0.43133 0.10976 0.80799 0.0
H1131 H 0.46381 0.13616 0.73644 0.0
H1132 H 0.50556 0.04558 0.82424 0.0
H1133 H 0.55002 0.06628 0.84538 0.0
H1134 H 0.51692 0.0198 0.8385 0.0
H1135 H 0.5607 0.04011 0.85906 0.0
H1136 H 0.47992 0.04189 0.8462 0.0
H1137 H 0.46298 0.07706 0.76543 0.0
H1138 H 0.45892 0.02456 0.82302 0.0
H1139 H 0.44213 0.05919 0.74422 0.0
H1140 H 0.47106 0.04603 0.95898 0.0
H1141 H 0.52056 0.04382 0.9761 0.0
H1142 H 0.53735 0.04628 0.68817 0.0
H1143 H 0.48896 0.03451 0.67752 0.0
Li1144 Li 0.00295 0.92985 0.28739 0.0
Li1145 Li 0.00275 0.92528 0.35906 0.0
Li1146 Li 0.01748 0.90724 0.312 0.0
Li1147 Li 0.98878 0.90755 0.31516 0.0
C1148 C 0.03419 0.93696 0.31138 0.0
N1149 N 0.06092 0.95154 0.28602 0.0
C1150 C 0.03954 0.95015 0.33142 0.0
C1151 C 0.04253 0.93112 0.27866 0.0
C1152 C 0.05304 0.95739 0.31805 0.0
C1153 C 0.056 0.93866 0.26627 0.0
C1154 C 0.97588 0.93957 0.34478 0.0
C1155 C 0.95767 0.94439 0.39834 0.0
N1156 N 0.95833 0.95981 0.39015 0.0
C1157 C 0.97629 0.95545 0.33668 0.0
C1158 C 0.96642 0.93397 0.37565 0.0
C1159 C 0.96736 0.96549 0.36003 0.0
C1160 C 0.98662 0.94684 0.23176 0.0
N1161 N 1.00112 0.94532 0.247 0.0
C1162 C 0.01031 0.96566 0.2046 0.0
C1163 C 0.0129 0.95449 0.23418 0.0
C1164 C 0.99546 0.96738 0.18807 0.0
C1165 C 0.98353 0.95777 0.20198 0.0
H1166 H 0.97742 0.93954 0.24291 0.0
H1167 H 0.02427 0.95335 0.24696 0.0
C1168 C 1.00073 0.93083 0.44549 0.0
N1169 N 0.00285 0.93709 0.40831 0.0
C1170 C 0.99994 0.94041 0.47957 0.0
C1171 C 0.00361 0.96262 0.43644 0.0
C1172 C 0.00451 0.95263 0.40344 0.0
C1173 C 1.00118 0.95662 0.47532 0.0
H1174 H 0.99947 0.91843 0.44868 0.0
H1175 H 0.00611 0.95734 0.37352 0.0
C1176 C 1.00019 0.90909 0.22711 0.0
N1177 N 0.99536 0.91168 0.14498 0.0
C1178 C 0.98516 0.90943 0.21163 0.0
C1179 C 0.01276 0.90991 0.20072 0.0
C1180 C 0.98296 0.91079 0.17006 0.0
C1181 C 0.01008 0.91126 0.15933 0.0
C1182 C 0.9973 0.88874 0.37376 0.0
C1183 C 0.0032 0.87436 0.36211 0.0
C1184 C 0.98457 0.88943 0.39957 0.0
C1185 C 0.99608 0.86087 0.37608 0.0
C1186 C 0.97777 0.87568 0.41288 0.0
N1187 N 0.98361 0.86181 0.40092 0.0
C1188 C 0.04863 0.89522 0.31806 0.0
C1189 C 0.0318 0.8833 0.27097 0.0
C1190 C 0.06082 0.88569 0.3056 0.0
N1191 N 0.0345 0.89391 0.3004 0.0
C1192 C 0.04363 0.87365 0.25748 0.0
C1193 C 0.05842 0.87482 0.2746 0.0
H1194 H 0.05049 0.90383 0.34121 0.0
H1195 H 0.02043 0.88242 0.25766 0.0
C1196 C 0.95699 0.90093 0.30212 0.0
N1197 N 0.97137 0.89464 0.30382 0.0
C1198 C 0.94489 0.89284 0.28373 0.0
C1199 C 0.96242 0.87162 0.27117 0.0
C1200 C 0.97422 0.88019 0.28934 0.0
C1201 C 0.94765 0.87815 0.26698 0.0
H1202 H 0.95514 0.91264 0.3125 0.0
H1203 H 0.98589 0.87573 0.28939 0.0
O1204 O 0.02106 0.92966 0.32435 0.0
O1205 O 0.98475 0.92958 0.32275 0.0
O1206 O 0.00259 0.90801 0.26783 0.0
O1207 O 0.00399 0.90206 0.36 0.0
H1208 H 0.03337 0.95475 0.35709 0.0
H1209 H 0.03859 0.92097 0.26278 0.0
H1210 H 0.05727 0.96763 0.33322 0.0
H1211 H 0.06251 0.93429 0.24088 0.0
H1212 H 0.95036 0.94023 0.42247 0.0
H1213 H 0.9836 0.95999 0.31301 0.0
H1214 H 0.96589 0.92172 0.38211 0.0
H1215 H 0.96765 0.97781 0.3543 0.0
H1216 H 0.01979 0.97302 0.19527 0.0
H1217 H 0.97195 0.95857 0.18979 0.0
H1218 H 0.99833 0.93514 0.50888 0.0
H1219 H 0.00434 0.97496 0.43116 0.0
H1220 H 0.97528 0.90891 0.23147 0.0
H1221 H 0.02446 0.90948 0.21195 0.0
H1222 H 0.97139 0.91118 0.15774 0.0
H1223 H 0.0197 0.91196 0.13861 0.0
H1224 H 0.01309 0.87363 0.34228 0.0
H1225 H 0.97998 0.90047 0.4092 0.0
H1226 H 1.00045 0.84966 0.36712 0.0
H1227 H 0.96787 0.87604 0.43274 0.0
H1228 H 0.07207 0.88702 0.31949 0.0
H1229 H 0.04117 0.86525 0.23411 0.0
H1230 H 0.93366 0.89827 0.28114 0.0
H1231 H 0.96511 0.86046 0.25805 0.0
Li1232 Li 0.49974 0.92491 0.28118 0.0
Li1233 Li 0.50225 0.93 0.35207 0.0
Li1234 Li 0.51433 0.90622 0.3273 0.0
Li1235 Li 0.48614 0.90879 0.3334 0.0
C1236 C 0.52878 0.94013 0.32004 0.0
N1237 N 0.54782 0.96482 0.33866 0.0
C1238 C 0.52573 0.95481 0.3042 0.0
C1239 C 0.54159 0.938 0.34511 0.0
C1240 C 0.53547 0.96715 0.314 0.0
C1241 C 0.55105 0.95063 0.35426 0.0
C1242 C 0.47609 0.94416 0.33274 0.0
C1243 C 0.46303 0.95849 0.38508 0.0
N1244 N 0.4623 0.97102 0.36034 0.0
C1245 C 0.47522 0.95721 0.30786 0.0
C1246 C 0.46993 0.94481 0.37167 0.0
C1247 C 0.4682 0.97066 0.32235 0.0
C1248 C 0.48388 0.93754 0.21426 0.0
N1249 N 0.49826 0.93512 0.2295 0.0
C1250 C 0.50909 0.95293 0.18181 0.0
C1251 C 0.51086 0.94202 0.21274 0.0
C1252 C 0.49421 0.95672 0.16789 0.0
C1253 C 0.48158 0.94832 0.18335 0.0
H1254 H 0.47404 0.93196 0.22815 0.0
H1255 H 0.5222 0.9399 0.22524 0.0
C1256 C 0.51035 0.94135 0.42836 0.0
N1257 N 0.50581 0.94592 0.39097 0.0
C1258 C 0.51364 0.95232 0.45799 0.0
C1259 C 0.50789 0.97252 0.40983 0.0
C1260 C 0.50458 0.96117 0.38129 0.0
C1261 C 0.51245 0.96812 0.44873 0.0
H1262 H 0.51161 0.92918 0.43508 0.0
H1263 H 0.5012 0.96459 0.35129 0.0
C1264 C 0.50461 0.89443 0.25219 0.0
N1265 N 0.51782 0.88066 0.18543 0.0
C1266 C 0.49829 0.88085 0.2363 0.0
C1267 C 0.51764 0.90101 0.23414 0.0
C1268 C 0.50515 0.87406 0.20254 0.0
C1269 C 0.52415 0.89388 0.20039 0.0
C1270 C 0.49647 0.89987 0.40539 0.0
C1271 C 0.50049 0.8842 0.40567 0.0
C1272 C 0.48641 0.90559 0.4348 0.0
C1273 C 0.49424 0.87448 0.43513 0.0
C1274 C 0.48036 0.89549 0.46365 0.0
N1275 N 0.48436 0.88027 0.46321 0.0
C1276 C 0.53803 0.89523 0.37478 0.0
C1277 C 0.53566 0.88035 0.31515 0.0
C1278 C 0.54965 0.8855 0.38919 0.0
N1279 N 0.53129 0.89256 0.33838 0.0
C1280 C 0.54731 0.8703 0.32842 0.0
C1281 C 0.5544 0.87275 0.3661 0.0
H1282 H 0.53408 0.90477 0.39317 0.0
H1283 H 0.5299 0.87811 0.28687 0.0
C1284 C 0.45557 0.9042 0.36304 0.0
N1285 N 0.46829 0.89687 0.34846 0.0
C1286 C 0.44414 0.89585 0.38331 0.0
C1287 C 0.45845 0.87238 0.37038 0.0
C1288 C 0.46961 0.8812 0.35029 0.0
C1289 C 0.44577 0.87979 0.38852 0.0
H1290 H 0.4546 0.9166 0.36058 0.0
H1291 H 0.47986 0.87565 0.3385 0.0
O1292 O 0.5193 0.92792 0.31103 0.0
O1293 O 0.48288 0.93084 0.31901 0.0
O1294 O 0.49797 0.90118 0.28519 0.0
O1295 O 0.50217 0.90952 0.37619 0.0
H1296 H 0.51571 0.95679 0.28545 0.0
H1297 H 0.54423 0.92673 0.35738 0.0
H1298 H 0.53315 0.9786 0.30226 0.0
H1299 H 0.56096 0.94914 0.37374 0.0
H1300 H 0.4583 0.95915 0.41522 0.0
H1301 H 0.48009 0.95708 0.27791 0.0
H1302 H 0.47068 0.93495 0.39158 0.0
H1303 H 0.4675 0.98084 0.30345 0.0
H1304 H 0.51917 0.95907 0.17096 0.0
H1305 H 0.46993 0.95058 0.173 0.0
H1306 H 0.5173 0.9485 0.48759 0.0
H1307 H 0.50673 0.9846 0.40166 0.0
H1308 H 0.4882 0.87562 0.24999 0.0
H1309 H 0.52278 0.91143 0.24618 0.0
H1310 H 0.50039 0.86354 0.18993 0.0
H1311 H 0.53425 0.89883 0.18616 0.0
H1312 H 0.50809 0.87949 0.38292 0.0
H1313 H 0.48325 0.91769 0.43527 0.0
H1314 H 0.49715 0.8623 0.43548 0.0
H1315 H 0.47247 0.89975 0.48638 0.0
H1316 H 0.55485 0.88797 0.41819 0.0
H1317 H 0.55042 0.86047 0.30987 0.0
H1318 H 0.43437 0.902 0.39593 0.0
H1319 H 0.46022 0.86004 0.37373 0.0
Li1320 Li 0.01582 0.09667 0.82639 0.0
Li1321 Li 0.98717 0.0966 0.82785 0.0
Li1322 Li 0.00221 0.07486 0.85423 0.0
Li1323 Li 1.00124 0.07731 0.78174 0.0
C1324 C 0.0083 0.10398 0.90391 0.0
N1325 N 0.02208 0.12001 0.96642 0.0
C1326 C 0.0037 0.11912 0.91271 0.0
C1327 C 0.01981 0.09697 0.92713 0.0
C1328 C 0.01081 0.12703 0.94441 0.0
C1329 C 0.02668 0.10528 0.95849 0.0
C1330 C 0.99349 0.10965 0.75227 0.0
C1331 C 0.97456 0.11157 0.69909 0.0
N1332 N 0.97763 0.12695 0.69568 0.0
C1333 C 0.9965 0.12546 0.74814 0.0
C1334 C 0.98244 0.10263 0.72755 0.0
C1335 C 0.98833 0.13402 0.71942 0.0
C1336 C 0.04672 0.10643 0.84799 0.0
N1337 N 0.03236 0.11101 0.83619 0.0
C1338 C 0.03704 0.13661 0.86052 0.0
C1339 C 0.02772 0.12594 0.84043 0.0
C1340 C 0.05132 0.13188 0.87642 0.0
C1341 C 0.05649 0.11678 0.86825 0.0
H1342 H 0.05017 0.09451 0.84435 0.0
H1343 H 0.01612 0.12919 0.83178 0.0
C1344 C 0.96614 0.10877 0.88117 0.0
N1345 N 0.96945 0.109 0.84109 0.0
C1346 C 0.95408 0.11764 0.89671 0.0
C1347 C 0.94853 0.12657 0.82926 0.0
C1348 C 0.96086 0.1176 0.815 0.0
C1349 C 0.94512 0.12677 0.87072 0.0
H1350 H 0.97298 0.10169 0.90129 0.0
H1351 H 0.96357 0.11764 0.78327 0.0
C1352 C 0.02868 0.06156 0.82741 0.0
N1353 N 0.04623 0.03618 0.84954 0.0
C1354 C 0.02741 0.04764 0.80612 0.0
C1355 C 0.0389 0.06253 0.85997 0.0
C1356 C 0.03639 0.03496 0.81772 0.0
C1357 C 0.04764 0.04957 0.87073 0.0
C1358 C 0.97569 0.06198 0.83471 0.0
C1359 C 0.97953 0.04684 0.82368 0.0
C1360 C 0.96411 0.06451 0.8633 0.0
C1361 C 0.97174 0.03447 0.84166 0.0
C1362 C 0.95663 0.05183 0.88067 0.0
N1363 N 0.96057 0.0372 0.86959 0.0
C1364 C 0.99427 0.06666 0.93227 0.0
C1365 C 0.00489 0.04552 0.89623 0.0
C1366 C 0.99158 0.05729 0.96567 0.0
N1367 N 1.00096 0.06074 0.89854 0.0
C1368 C 0.0024 0.03571 0.92896 0.0
C1369 C 0.99561 0.04158 0.9642 0.0
H1370 H 0.99067 0.07862 0.93295 0.0
H1371 H 0.00935 0.04079 0.8686 0.0
C1372 C 0.01274 0.06074 0.71177 0.0
N1373 N 0.99998 0.06505 0.73299 0.0
C1374 C 0.01179 0.04885 0.683 0.0
C1375 C 0.98441 0.04708 0.696 0.0
C1376 C 0.9859 0.05882 0.72463 0.0
C1377 C 0.99755 0.04144 0.67587 0.0
H1378 H 0.02385 0.06572 0.71921 0.0
H1379 H 0.9759 0.06239 0.7418 0.0
O1380 O 1.00157 0.09609 0.87267 0.0
O1381 O 1.00137 0.10108 0.78021 0.0
O1382 O 0.02022 0.07422 0.8159 0.0
O1383 O 0.98346 0.07424 0.81822 0.0
H1384 H 0.99488 0.12478 0.89489 0.0
H1385 H 0.02336 0.08521 0.92113 0.0
H1386 H 0.00745 0.13878 0.95138 0.0
H1387 H 0.03566 0.1 0.97657 0.0
H1388 H 0.96594 0.10629 0.67987 0.0
H1389 H 0.00506 0.13109 0.7668 0.0
H1390 H 0.97981 0.09049 0.73068 0.0
H1391 H 0.99053 0.14628 0.71596 0.0
H1392 H 0.03269 0.14819 0.86581 0.0
H1393 H 0.06743 0.11268 0.88002 0.0
H1394 H 0.9517 0.11722 0.92875 0.0
H1395 H 0.94191 0.13349 0.8082 0.0
H1396 H 0.01937 0.04648 0.78148 0.0
H1397 H 0.04007 0.07312 0.87692 0.0
H1398 H 0.03545 0.02412 0.8016 0.0
H1399 H 0.05556 0.05018 0.89593 0.0
H1400 H 0.98863 0.04465 0.80209 0.0
H1401 H 0.96101 0.07614 0.87222 0.0
H1402 H 0.97468 0.0227 0.83364 0.0
H1403 H 0.9477 0.05362 0.90302 0.0
H1404 H 0.98636 0.0623 0.99231 0.0
H1405 H 0.00532 0.02356 0.92625 0.0
H1406 H 0.02226 0.0449 0.66839 0.0
H1407 H 0.97311 0.04208 0.69083 0.0
H1408 H 0.11079 0.69174 0.18304 0.0
H1409 H 0.11846 0.66516 0.07379 0.0
H1410 H 0.10227 0.64407 0.10113 0.0
H1411 H 0.11127 0.65957 0.25226 0.0
H1412 H 0.09621 0.66736 0.28384 0.0
H1413 H 0.10868 0.68022 0.25611 0.0
H1414 H 0.08479 0.69303 0.22286 0.0
H1415 H 0.07225 0.68022 0.25051 0.0
H1416 H 0.07103 0.68112 0.19631 0.0
H1417 H 0.08453 0.62634 0.13921 0.0
H1418 H 0.0667 0.61299 0.18523 0.0
H1419 H 0.07086 0.65087 0.27071 0.0
C1420 C 0.10899 0.68154 0.16467 0.0
C1421 C 0.1159 0.68015 0.12612 0.0
C1422 C 0.11344 0.66646 0.10349 0.0
C1423 C 0.1042 0.65444 0.11871 0.0
C1424 C 0.09753 0.65625 0.15668 0.0
C1425 C 0.09982 0.66944 0.1794 0.0
C1426 C 0.09122 0.66853 0.21918 0.0
C1427 C 0.10252 0.66894 0.25496 0.0
C1428 C 0.0791 0.68149 0.22238 0.0
C1429 C 0.08363 0.65279 0.21517 0.0
C1430 C 0.08745 0.64592 0.17891 0.0
C1431 C 0.08161 0.63153 0.1679 0.0
C1432 C 0.07156 0.62396 0.19456 0.0
C1433 C 0.06747 0.63071 0.23211 0.0
C1434 C 0.07368 0.64536 0.24235 0.0
H1435 H 0.55826 0.86204 0.44374 0.0
H1436 H 0.57801 0.85916 0.32366 0.0
H1437 H 0.5982 0.84154 0.3494 0.0
H1438 H 0.59459 0.86208 0.49793 0.0
H1439 H 0.58732 0.85053 0.53901 0.0
H1440 H 0.57442 0.86296 0.51124 0.0
H1441 H 0.55669 0.83954 0.49571 0.0
H1442 H 0.56951 0.82705 0.52348 0.0
H1443 H 0.56476 0.82263 0.47183 0.0
H1444 H 0.61626 0.82428 0.38803 0.0
H1445 H 0.63047 0.80786 0.43676 0.0
H1446 H 0.59923 0.822 0.53183 0.0
C1447 C 0.56691 0.85784 0.42288 0.0
C1448 C 0.56653 0.86203 0.38159 0.0
C1449 C 0.57793 0.85601 0.35526 0.0
C1450 C 0.58952 0.84607 0.36967 0.0
C1451 C 0.58958 0.84226 0.41051 0.0
C1452 C 0.57856 0.84792 0.43675 0.0
C1453 C 0.5811 0.84183 0.47916 0.0
C1454 C 0.58456 0.85515 0.50857 0.0
C1455 C 0.56719 0.83218 0.49336 0.0
C1456 C 0.59523 0.83178 0.47265 0.0
C1457 C 0.59998 0.83227 0.43283 0.0
C1458 C 0.61269 0.82386 0.41927 0.0
C1459 C 0.6207 0.81461 0.44706 0.0
C1460 C 0.61595 0.81386 0.48779 0.0
C1461 C 0.6031 0.82256 0.50082 0.0
H1462 H 0.44653 0.34964 0.73852 0.0
H1463 H 0.41508 0.38834 0.75335 0.0
H1464 H 0.39497 0.37404 0.71582 0.0
H1465 H 0.43502 0.33972 0.63823 0.0
H1466 H 0.43673 0.31913 0.64579 0.0
H1467 H 0.44859 0.33222 0.67458 0.0
H1468 H 0.4384 0.32017 0.74101 0.0
H1469 H 0.42659 0.30697 0.71242 0.0
H1470 H 0.41787 0.31929 0.74989 0.0
H1471 H 0.37834 0.35565 0.67621 0.0
H1472 H 0.36606 0.33416 0.63925 0.0
H1473 H 0.40848 0.30755 0.64896 0.0
C1474 C 0.43534 0.35502 0.73439 0.0
C1475 C 0.43238 0.37012 0.74895 0.0
C1476 C 0.41766 0.37684 0.74221 0.0
C1477 C 0.40615 0.3688 0.72101 0.0
C1478 C 0.40952 0.35403 0.70662 0.0
C1479 C 0.42373 0.34717 0.71313 0.0
C1480 C 0.42441 0.33123 0.69407 0.0
C1481 C 0.43693 0.33055 0.66122 0.0
C1482 C 0.42697 0.31868 0.72627 0.0
C1483 C 0.40835 0.33019 0.67598 0.0
C1484 C 0.39997 0.34348 0.6835 0.0
C1485 C 0.38482 0.34521 0.67 0.0
C1486 C 0.37799 0.33297 0.64866 0.0
C1487 C 0.38629 0.31913 0.64086 0.0
C1488 C 0.40174 0.31787 0.65459 0.0
H1489 H 0.90374 0.18368 0.02736 0.0
H1490 H 0.86195 0.1788 0.95606 0.0
H1491 H 0.8756 0.16113 0.90977 0.0
H1492 H 0.93019 0.18403 0.94459 0.0
H1493 H 0.9449 0.17305 0.97038 0.0
H1494 H 0.93173 0.18496 0.99875 0.0
H1495 H 0.92369 0.1612 0.0416 0.0
H1496 H 0.93689 0.14924 0.01348 0.0
H1497 H 0.91677 0.14399 0.01673 0.0
H1498 H 0.89413 0.14487 0.86933 0.0
H1499 H 0.91579 0.12983 0.84046 0.0
H1500 H 0.94543 0.14518 0.93814 0.0
C1501 C 0.89745 0.17885 0.0021 0.0
C1502 C 0.88172 0.18255 0.99556 0.0
C1503 C 0.8739 0.17592 0.96218 0.0
C1504 C 0.8816 0.16597 0.93548 0.0
C1505 C 0.89711 0.16268 0.94258 0.0
C1506 C 0.90493 0.16881 0.97525 0.0
C1507 C 0.92159 0.16341 0.97602 0.0
C1508 C 0.93276 0.17718 0.9722 0.0
C1509 C 0.92493 0.15389 0.01422 0.0
C1510 C 0.92193 0.15336 0.9386 0.0
C1511 C 0.90772 0.15316 0.9196 0.0
C1512 C 0.9053 0.14489 0.88404 0.0
C1513 C 0.91768 0.13647 0.86772 0.0
C1514 C 0.93227 0.13629 0.88709 0.0
C1515 C 0.93436 0.14494 0.9229 0.0
H1516 H 0.06936 0.34897 0.87314 0.0
H1517 H 0.07298 0.39029 0.94689 0.0
H1518 H 0.09081 0.37666 0.99285 0.0
H1519 H 0.06959 0.32162 0.9538 0.0
H1520 H 0.08113 0.30751 0.92747 0.0
H1521 H 0.06899 0.32061 0.89953 0.0
H1522 H 0.09265 0.32985 0.85815 0.0
H1523 H 0.10484 0.31669 0.88578 0.0
H1524 H 0.1095 0.33702 0.88414 0.0
H1525 H 0.10715 0.35814 0.03284 0.0
H1526 H 0.12209 0.33656 0.06181 0.0
H1527 H 0.10889 0.30758 0.96041 0.0
C1528 C 0.07397 0.35516 0.89887 0.0
C1529 C 0.06985 0.37074 0.90627 0.0
C1530 C 0.07617 0.37845 0.94021 0.0
C1531 C 0.08622 0.37077 0.96668 0.0
C1532 C 0.08995 0.35539 0.95871 0.0
C1533 C 0.08415 0.3477 0.92543 0.0
C1534 C 0.09006 0.33119 0.92376 0.0
C1535 C 0.07664 0.31955 0.9263 0.0
C1536 C 0.09985 0.32854 0.8857 0.0
C1537 C 0.09992 0.33076 0.96154 0.0
C1538 C 0.09966 0.34482 0.98131 0.0
C1539 C 0.1076 0.34713 0.01735 0.0
C1540 C 0.11615 0.33479 0.03347 0.0
C1541 C 0.11683 0.32029 0.01346 0.0
C1542 C 0.10853 0.31837 0.97694 0.0
H1543 H 0.9389 0.84746 0.26752 0.0
H1544 H 0.92991 0.89133 0.20826 0.0
H1545 H 0.91145 0.87844 0.16248 0.0
H1546 H 0.93748 0.82377 0.17942 0.0
H1547 H 0.92784 0.8078 0.20376 0.0
H1548 H 0.9401 0.82049 0.23267 0.0
H1549 H 0.9175 0.82614 0.28175 0.0
H1550 H 0.90522 0.81337 0.25318 0.0
H1551 H 0.89938 0.8331 0.26201 0.0
H1552 H 0.89501 0.86058 0.12084 0.0
H1553 H 0.88029 0.83937 0.08933 0.0
H1554 H 0.89893 0.80726 0.17773 0.0
C1555 C 0.93298 0.85435 0.24502 0.0
C1556 C 0.93577 0.87042 0.24161 0.0
C1557 C 0.92776 0.87905 0.21186 0.0
C1558 C 0.91735 0.87181 0.18551 0.0
C1559 C 0.91496 0.85594 0.18942 0.0
C1560 C 0.9224 0.84733 0.2187 0.0
C1561 C 0.91763 0.83046 0.21666 0.0
C1562 C 0.9316 0.82002 0.20758 0.0
C1563 C 0.90944 0.82548 0.25572 0.0
C1564 C 0.90649 0.83091 0.18138 0.0
C1565 C 0.90517 0.84571 0.16601 0.0
C1566 C 0.8958 0.84897 0.13292 0.0
C1567 C 0.8874 0.83682 0.11535 0.0
C1568 C 0.88829 0.82157 0.13102 0.0
C1569 C 0.89806 0.81868 0.16449 0.0
H1570 H 0.40851 0.69131 0.49916 0.0
H1571 H 0.36472 0.66669 0.49513 0.0
H1572 H 0.377 0.64584 0.45613 0.0
H1573 H 0.41963 0.6824 0.39744 0.0
H1574 H 0.43987 0.68039 0.40919 0.0
H1575 H 0.42791 0.69312 0.43878 0.0
H1576 H 0.43594 0.6786 0.50386 0.0
H1577 H 0.44799 0.66589 0.47451 0.0
H1578 H 0.43327 0.65794 0.50689 0.0
H1579 H 0.39387 0.62768 0.41684 0.0
H1580 H 0.41433 0.61347 0.38037 0.0
H1581 H 0.44679 0.65039 0.40659 0.0
C1582 C 0.40143 0.68159 0.49004 0.0
C1583 C 0.3856 0.6807 0.50079 0.0
C1584 C 0.37692 0.66759 0.48836 0.0
C1585 C 0.38376 0.65572 0.46574 0.0
C1586 C 0.39929 0.65709 0.45536 0.0
C1587 C 0.40803 0.66969 0.46706 0.0
C1588 C 0.42444 0.66845 0.45127 0.0
C1589 C 0.42818 0.68189 0.42245 0.0
C1590 C 0.4361 0.66767 0.48622 0.0
C1591 C 0.42354 0.65318 0.42887 0.0
C1592 C 0.40893 0.6468 0.43175 0.0
C1593 C 0.40534 0.63258 0.41429 0.0
C1594 C 0.41702 0.62459 0.39369 0.0
C1595 C 0.4321 0.63086 0.39045 0.0
C1596 C 0.43531 0.64543 0.40802 0.0
H1597 H 0.61313 0.17033 0.63251 0.0
H1598 H 0.60521 0.21336 0.69646 0.0
H1599 H 0.58861 0.1997 0.74528 0.0
H1600 H 0.57402 0.15638 0.64315 0.0
H1601 H 0.57954 0.13639 0.64891 0.0
H1602 H 0.59155 0.14937 0.62019 0.0
H1603 H 0.61494 0.14239 0.66546 0.0
H1604 H 0.60296 0.12947 0.69452 0.0
H1605 H 0.61346 0.14477 0.71933 0.0
H1606 H 0.57315 0.18158 0.78745 0.0
H1607 H 0.5576 0.16057 0.81693 0.0
H1608 H 0.57377 0.12932 0.72342 0.0
C1609 C 0.60791 0.1768 0.65692 0.0
C1610 C 0.61047 0.1929 0.66087 0.0
C1611 C 0.60335 0.20106 0.69286 0.0
C1612 C 0.59397 0.19338 0.72086 0.0
C1613 C 0.59166 0.17753 0.71623 0.0
C1614 C 0.59823 0.16934 0.68481 0.0
C1615 C 0.59307 0.15254 0.68563 0.0
C1616 C 0.584 0.14843 0.64719 0.0
C1617 C 0.60694 0.14165 0.6916 0.0
C1618 C 0.58265 0.15262 0.72245 0.0
C1619 C 0.58217 0.16713 0.73982 0.0
C1620 C 0.57333 0.17018 0.77396 0.0
C1621 C 0.56446 0.15816 0.79037 0.0
C1622 C 0.56429 0.14327 0.77241 0.0
C1623 C 0.57374 0.14048 0.73826 0.0
H1624 H 0.92983 0.36955 0.9172 0.0
H1625 H 0.95414 0.33556 0.84499 0.0
H1626 H 0.93903 0.31463 0.87703 0.0
H1627 H 0.92923 0.34728 0.00709 0.0
H1628 H 0.91028 0.35343 0.02296 0.0
H1629 H 0.92195 0.36596 0.99204 0.0
H1630 H 0.89997 0.36755 0.93917 0.0
H1631 H 0.88818 0.35511 0.97009 0.0
H1632 H 0.89208 0.34995 0.91843 0.0
H1633 H 0.92212 0.29744 0.91796 0.0
H1634 H 0.9044 0.28474 0.96542 0.0
H1635 H 0.89173 0.32959 0.01462 0.0
C1636 C 0.93169 0.35771 0.90762 0.0
C1637 C 0.94301 0.35412 0.87834 0.0
C1638 C 0.94546 0.3385 0.86723 0.0
C1639 C 0.93694 0.32656 0.88524 0.0
C1640 C 0.92608 0.33043 0.91455 0.0
C1641 C 0.92339 0.3456 0.92573 0.0
C1642 C 0.91161 0.34644 0.95959 0.0
C1643 C 0.9187 0.3537 0.99767 0.0
C1644 C 0.8971 0.35528 0.94599 0.0
C1645 C 0.90818 0.32937 0.96578 0.0
C1646 C 0.91661 0.32039 0.93927 0.0
C1647 C 0.91552 0.30433 0.93904 0.0
C1648 C 0.90553 0.29721 0.96658 0.0
C1649 C 0.89681 0.30608 0.99449 0.0
C1650 C 0.89818 0.32243 0.99379 0.0
H1651 H 0.44214 0.13555 0.69252 0.0
H1652 H 0.42021 0.13517 0.81028 0.0
H1653 H 0.3993 0.15173 0.78382 0.0
H1654 H 0.43477 0.17509 0.67037 0.0
H1655 H 0.43126 0.17191 0.61744 0.0
H1656 H 0.44389 0.1591 0.64479 0.0
H1657 H 0.4273 0.13562 0.62262 0.0
H1658 H 0.41459 0.14837 0.59522 0.0
H1659 H 0.40686 0.13555 0.63304 0.0
H1660 H 0.38104 0.16883 0.74499 0.0
H1661 H 0.36741 0.18617 0.69729 0.0
H1662 H 0.40199 0.17672 0.60616 0.0
C1663 C 0.433 0.13898 0.7129 0.0
C1664 C 0.43286 0.13397 0.75358 0.0
C1665 C 0.4205 0.1386 0.77889 0.0
C1666 C 0.40859 0.14808 0.76417 0.0
C1667 C 0.40917 0.15286 0.72406 0.0
C1668 C 0.42108 0.14851 0.6988 0.0
C1669 C 0.41926 0.15565 0.65728 0.0
C1670 C 0.43312 0.16606 0.64688 0.0
C1671 C 0.41686 0.14305 0.62514 0.0
C1672 C 0.40466 0.16504 0.66342 0.0
C1673 C 0.39888 0.16304 0.70197 0.0
C1674 C 0.38544 0.17043 0.71474 0.0
C1675 C 0.37776 0.18019 0.68751 0.0
C1676 C 0.38366 0.18262 0.64826 0.0
C1677 C 0.39727 0.17495 0.63605 0.0
H1678 H 0.57998 0.64099 0.37592 0.0
H1679 H 0.54099 0.63991 0.45805 0.0
H1680 H 0.55564 0.65565 0.50699 0.0
H1681 H 0.6103 0.63924 0.45208 0.0
H1682 H 0.62283 0.65255 0.42595 0.0
H1683 H 0.6096 0.64058 0.39786 0.0
H1684 H 0.59783 0.66499 0.36444 0.0
H1685 H 0.61106 0.67702 0.39228 0.0
H1686 H 0.59055 0.68038 0.39584 0.0
H1687 H 0.57417 0.67172 0.54662 0.0
H1688 H 0.59501 0.68829 0.57322 0.0
H1689 H 0.62187 0.67992 0.46484 0.0
C1690 C 0.57462 0.644 0.40435 0.0
C1691 C 0.55933 0.6393 0.41319 0.0
C1692 C 0.55262 0.64356 0.45052 0.0
C1693 C 0.56088 0.6524 0.47861 0.0
C1694 C 0.57586 0.65695 0.46894 0.0
C1695 C 0.58267 0.653 0.43267 0.0
C1696 C 0.59869 0.66003 0.42922 0.0
C1697 C 0.61109 0.64734 0.4261 0.0
C1698 C 0.59958 0.67127 0.39332 0.0
C1699 C 0.59976 0.66856 0.46912 0.0
C1700 C 0.5865 0.66651 0.49165 0.0
C1701 C 0.58461 0.67344 0.52924 0.0
C1702 C 0.59649 0.6829 0.54401 0.0
C1703 C 0.61009 0.68549 0.52117 0.0
C1704 C 0.61175 0.67803 0.48338 0.0
H1705 H 0.10552 0.8241 0.1141 0.0
H1706 H 0.12975 0.80382 0.21557 0.0
H1707 H 0.11639 0.82176 0.26194 0.0
H1708 H 0.10439 0.86416 0.1522 0.0
H1709 H 0.08514 0.8676 0.13347 0.0
H1710 H 0.09769 0.8542 0.10776 0.0
H1711 H 0.07694 0.83273 0.1147 0.0
H1712 H 0.06437 0.84603 0.14051 0.0
H1713 H 0.06955 0.82794 0.16396 0.0
H1714 H 0.09962 0.84093 0.29762 0.0
H1715 H 0.07964 0.85932 0.32068 0.0
H1716 H 0.06564 0.86686 0.19653 0.0
C1717 C 0.10816 0.82369 0.14601 0.0
C1718 C 0.1187 0.81272 0.16143 0.0
C1719 C 0.1217 0.81221 0.20337 0.0
C1720 C 0.11421 0.82237 0.22985 0.0
C1721 C 0.10369 0.83291 0.21393 0.0
C1722 C 0.1006 0.83364 0.17303 0.0
C1723 C 0.088 0.84536 0.16425 0.0
C1724 C 0.09418 0.85862 0.13786 0.0
C1725 C 0.07388 0.83754 0.14471 0.0
C1726 C 0.08438 0.85092 0.20659 0.0
C1727 C 0.0937 0.84373 0.23472 0.0
C1728 C 0.09232 0.84672 0.27586 0.0
C1729 C 0.08099 0.85724 0.28867 0.0
C1730 C 0.07108 0.86454 0.26048 0.0
C1731 C 0.07296 0.86139 0.21887 0.0
H1732 H 0.94662 0.6507 0.21987 0.0
H1733 H 0.91304 0.62514 0.29091 0.0
H1734 H 0.89196 0.63962 0.25809 0.0
H1735 H 0.92676 0.68755 0.22475 0.0
H1736 H 0.93195 0.69299 0.17406 0.0
H1737 H 0.94441 0.68042 0.20268 0.0
H1738 H 0.94306 0.65997 0.14567 0.0
H1739 H 0.93049 0.67243 0.11699 0.0
H1740 H 0.92448 0.653 0.12903 0.0
H1741 H 0.87444 0.65654 0.2169 0.0
H1742 H 0.86178 0.67592 0.17332 0.0
H1743 H 0.90666 0.69123 0.1307 0.0
C1744 C 0.93486 0.64827 0.22903 0.0
C1745 C 0.93155 0.63666 0.25797 0.0
C1746 C 0.91593 0.63374 0.2684 0.0
C1747 C 0.90385 0.64197 0.25004 0.0
C1748 C 0.90753 0.65318 0.22142 0.0
C1749 C 0.92265 0.65645 0.2112 0.0
C1750 C 0.92345 0.66921 0.17984 0.0
C1751 C 0.93216 0.68338 0.19633 0.0
C1752 C 0.93081 0.6633 0.14056 0.0
C1753 C 0.9064 0.67264 0.17415 0.0
C1754 C 0.89743 0.66316 0.19818 0.0
C1755 C 0.88135 0.66403 0.19794 0.0
C1756 C 0.87426 0.67499 0.17284 0.0
C1757 C 0.88321 0.68504 0.14842 0.0
C1758 C 0.89951 0.68376 0.14912 0.0
H1759 H 0.08258 0.13875 0.87947 0.0
H1760 H 0.03889 0.1478 0.93918 0.0
H1761 H 0.05214 0.1645 0.98837 0.0
H1762 H 0.10657 0.1383 0.97005 0.0
H1763 H 0.12256 0.14814 0.94642 0.0
H1764 H 0.10985 0.13618 0.91667 0.0
H1765 H 0.10439 0.1593 0.86899 0.0
H1766 H 0.11712 0.17128 0.89847 0.0
H1767 H 0.09744 0.17727 0.88983 0.0
H1768 H 0.06967 0.18062 0.03013 0.0
H1769 H 0.09044 0.19641 0.06014 0.0
H1770 H 0.123 0.17776 0.9733 0.0
C1771 C 0.07586 0.14418 0.90309 0.0
C1772 C 0.05968 0.14201 0.90537 0.0
C1773 C 0.05125 0.14942 0.93651 0.0
C1774 C 0.05869 0.15885 0.96481 0.0
C1775 C 0.0746 0.16083 0.96164 0.0
C1776 C 0.08312 0.15381 0.93151 0.0
C1777 C 0.09999 0.15855 0.93404 0.0
C1778 C 0.11035 0.14445 0.94229 0.0
C1779 C 0.10503 0.16711 0.89555 0.0
C1780 C 0.09955 0.16937 0.97009 0.0
C1781 C 0.08478 0.17039 0.98567 0.0
C1782 C 0.0813 0.17992 0.01826 0.0
C1783 C 0.09316 0.18889 0.035 0.0
C1784 C 0.10834 0.18836 0.01908 0.0
C1785 C 0.11158 0.17826 0.98653 0.0
H1786 H 0.60037 0.30652 0.65306 0.0
H1787 H 0.63555 0.33955 0.61747 0.0
H1788 H 0.62086 0.36053 0.65073 0.0
H1789 H 0.56711 0.3321 0.64178 0.0
H1790 H 0.55739 0.32451 0.68558 0.0
H1791 H 0.57022 0.31231 0.65696 0.0
H1792 H 0.58598 0.30656 0.7217 0.0
H1793 H 0.57326 0.31881 0.75046 0.0
H1794 H 0.59378 0.32242 0.75057 0.0
H1795 H 0.60257 0.37778 0.68857 0.0
H1796 H 0.58207 0.3902 0.72847 0.0
H1797 H 0.55945 0.34563 0.74306 0.0
C1798 C 0.6048 0.31823 0.65167 0.0
C1799 C 0.619 0.32148 0.63238 0.0
C1800 C 0.62467 0.33686 0.63203 0.0
C1801 C 0.61641 0.34883 0.65079 0.0
C1802 C 0.60256 0.3452 0.67006 0.0
C1803 C 0.59679 0.33028 0.67069 0.0
C1804 C 0.58196 0.32941 0.69493 0.0
C1805 C 0.56837 0.32428 0.66821 0.0
C1806 C 0.58387 0.31866 0.73159 0.0
C1807 C 0.58029 0.34616 0.70779 0.0
C1808 C 0.59226 0.35507 0.69297 0.0
C1809 C 0.59319 0.37089 0.70056 0.0
C1810 C 0.58153 0.37782 0.72371 0.0
C1811 C 0.56911 0.36895 0.73946 0.0
C1812 C 0.56863 0.35285 0.73133 0.0
H1813 H 0.39452 0.8079 0.4621 0.0
H1814 H 0.38489 0.834 0.57115 0.0
H1815 H 0.40035 0.85577 0.54485 0.0
H1816 H 0.43413 0.82041 0.45177 0.0
H1817 H 0.43337 0.8212 0.3975 0.0
H1818 H 0.42124 0.80778 0.42449 0.0
H1819 H 0.39706 0.81931 0.38954 0.0
H1820 H 0.4091 0.83279 0.36254 0.0
H1821 H 0.39336 0.8398 0.3931 0.0
H1822 H 0.41697 0.87465 0.50705 0.0
H1823 H 0.43412 0.88911 0.46117 0.0
H1824 H 0.43337 0.85063 0.37702 0.0
C1825 C 0.39577 0.81811 0.48075 0.0
C1826 C 0.3884 0.81919 0.51877 0.0
C1827 C 0.39019 0.83292 0.54172 0.0
C1828 C 0.39903 0.84534 0.52713 0.0
C1829 C 0.40608 0.84386 0.48957 0.0
C1830 C 0.40462 0.83058 0.46674 0.0
C1831 C 0.41353 0.83191 0.42752 0.0
C1832 C 0.42633 0.81959 0.4252 0.0
C1833 C 0.40261 0.83089 0.39102 0.0
C1834 C 0.42025 0.84803 0.43188 0.0
C1835 C 0.41576 0.85473 0.46784 0.0
C1836 C 0.42051 0.86955 0.47872 0.0
C1837 C 0.43016 0.87772 0.45226 0.0
C1838 C 0.435 0.87109 0.41524 0.0
C1839 C 0.42993 0.85601 0.4051 0.0
H1840 H 0.99216 0.53144 0.11487 0.0
H1841 H 0.01665 0.50547 0.20692 0.0
H1842 H 0.02041 0.48396 0.15889 0.0
H1843 H 0.97239 0.4993 0.07085 0.0
H1844 H 0.97407 0.50641 0.01995 0.0
H1845 H 0.97348 0.51983 0.06146 0.0
H1846 H 0.9994 0.53186 0.03794 0.0
H1847 H 1.00007 0.51849 0.99632 0.0
H1848 H 0.01602 0.51956 0.03118 0.0
H1849 H 0.02163 0.46544 0.10091 0.0
H1850 H 0.01947 0.45073 0.03724 0.0
H1851 H 0.99429 0.4889 0.98321 0.0
C1852 C 0.99841 0.52127 0.1248 0.0
C1853 C 0.0041 0.52008 0.16457 0.0
C1854 C 0.01204 0.50651 0.17668 0.0
C1855 C 0.01431 0.4943 0.14959 0.0
C1856 C 0.00856 0.49585 0.1106 0.0
C1857 C 1.00074 0.50897 0.09823 0.0
C1858 C 0.99554 0.50764 0.05483 0.0
C1859 C 0.97782 0.50833 0.05161 0.0
C1860 C 0.00322 0.52013 0.02852 0.0
C1861 C 1.0016 0.49169 0.04479 0.0
C1862 C 0.00915 0.48513 0.07728 0.0
C1863 C 0.01577 0.47046 0.07521 0.0
C1864 C 0.01456 0.46224 0.03895 0.0
C1865 C 0.00673 0.46872 0.00545 0.0
C1866 C 1.00022 0.48364 0.0085 0.0
H1867 H 0.77266 0.77028 0.25526 0.0
H1868 H 0.77073 0.72276 0.21335 0.0
H1869 H 0.75161 0.71661 0.26631 0.0
H1870 H 0.76967 0.76221 0.3605 0.0
H1871 H 0.75756 0.77865 0.37144 0.0
H1872 H 0.7709 0.7794 0.32985 0.0
H1873 H 0.74844 0.78614 0.28123 0.0
H1874 H 0.73502 0.78545 0.3227 0.0
H1875 H 0.73181 0.7736 0.27877 0.0
H1876 H 0.73393 0.71529 0.32562 0.0
H1877 H 0.71717 0.71935 0.38508 0.0
H1878 H 0.72971 0.76795 0.38674 0.0
C1879 C 0.76816 0.75861 0.25729 0.0
C1880 C 0.77309 0.74697 0.23038 0.0
C1881 C 0.76693 0.73184 0.23356 0.0
C1882 C 0.75615 0.72824 0.26359 0.0
C1883 C 0.75158 0.73994 0.28983 0.0
C1884 C 0.75724 0.75486 0.28676 0.0
C1885 C 0.75029 0.7653 0.31858 0.0
C1886 C 0.76285 0.77176 0.34676 0.0
C1887 C 0.74082 0.77839 0.29915 0.0
C1888 C 0.73997 0.75387 0.34027 0.0
C1889 C 0.74098 0.73929 0.32335 0.0
C1890 C 0.73294 0.72667 0.33897 0.0
C1891 C 0.72353 0.72905 0.37275 0.0
C1892 C 0.72218 0.74394 0.39012 0.0
C1893 C 0.73046 0.75649 0.37361 0.0
H1894 H 0.50013 0.50966 0.4829 0.0
H1895 H 0.49324 0.55387 0.54266 0.0
H1896 H 0.49139 0.54052 0.60809 0.0
H1897 H 0.47482 0.48702 0.54577 0.0
H1898 H 0.48732 0.47034 0.54617 0.0
H1899 H 0.48738 0.48326 0.50355 0.0
H1900 H 0.51693 0.48719 0.51156 0.0
H1901 H 0.51696 0.47423 0.55408 0.0
H1902 H 0.52456 0.49356 0.55935 0.0
H1903 H 0.49082 0.5226 0.667 0.0
H1904 H 0.49217 0.50116 0.71604 0.0
H1905 H 0.5007 0.46883 0.61834 0.0
C1906 C 0.4983 0.51656 0.50972 0.0
C1907 C 0.49668 0.53281 0.50754 0.0
C1908 C 0.49417 0.54138 0.5434 0.0
C1909 C 0.4932 0.53392 0.58077 0.0
C1910 C 0.49485 0.51791 0.5818 0.0
C1911 C 0.4974 0.50933 0.54731 0.0
C1912 C 0.49925 0.49231 0.55695 0.0
C1913 C 0.48642 0.48267 0.53692 0.0
C1914 C 0.51538 0.48649 0.54477 0.0
C1915 C 0.49738 0.4927 0.60228 0.0
C1916 C 0.49479 0.50758 0.61596 0.0
C1917 C 0.49288 0.51089 0.65671 0.0
C1918 C 0.49376 0.49867 0.68432 0.0
C1919 C 0.49659 0.48335 0.671 0.0
C1920 C 0.49833 0.48038 0.62938 0.0
H1921 H 0.76354 0.24535 0.91414 0.0
H1922 H 0.79537 0.28 0.86848 0.0
H1923 H 0.77919 0.28316 0.80776 0.0
H1924 H 0.75605 0.22727 0.82152 0.0
H1925 H 0.73585 0.22372 0.83103 0.0
H1926 H 0.7492 0.225 0.87251 0.0
H1927 H 0.73266 0.24671 0.90479 0.0
H1928 H 0.71917 0.24541 0.86353 0.0
H1929 H 0.72802 0.26372 0.87571 0.0
H1930 H 0.7608 0.28126 0.75037 0.0
H1931 H 0.74049 0.2752 0.7005 0.0
H1932 H 0.72046 0.24193 0.78348 0.0
C1933 C 0.7669 0.25384 0.89175 0.0
C1934 C 0.78069 0.26241 0.89583 0.0
C1935 C 0.7849 0.27321 0.86561 0.0
C1936 C 0.77577 0.27514 0.83118 0.0
C1937 C 0.76243 0.26625 0.82761 0.0
C1938 C 0.75791 0.25591 0.85714 0.0
C1939 C 0.74338 0.24733 0.845 0.0
C1940 C 0.7463 0.22979 0.84235 0.0
C1941 C 0.73002 0.25102 0.87398 0.0
C1942 C 0.74062 0.25429 0.80375 0.0
C1943 C 0.75172 0.26521 0.79439 0.0
C1944 C 0.75196 0.27282 0.7574 0.0
C1945 C 0.74048 0.26921 0.7292 0.0
C1946 C 0.72896 0.25809 0.73821 0.0
C1947 C 0.72903 0.2506 0.77604 0.0
H1948 H 0.22952 0.23383 0.88573 0.0
H1949 H 0.2268 0.28281 0.91318 0.0
H1950 H 0.24496 0.28848 0.85748 0.0
H1951 H 0.27025 0.23365 0.86299 0.0
H1952 H 0.26851 0.21958 0.82313 0.0
H1953 H 0.25498 0.21946 0.86436 0.0
H1954 H 0.23224 0.2216 0.81375 0.0
H1955 H 0.24571 0.22175 0.77236 0.0
H1956 H 0.23195 0.23727 0.77786 0.0
H1957 H 0.2627 0.28883 0.79808 0.0
H1958 H 0.28065 0.2837 0.74164 0.0
H1959 H 0.2728 0.23438 0.75496 0.0
C1960 C 0.23276 0.24572 0.87979 0.0
C1961 C 0.22683 0.25793 0.90337 0.0
C1962 C 0.23136 0.27335 0.89535 0.0
C1963 C 0.24157 0.27667 0.86378 0.0
C1964 C 0.24722 0.26438 0.84097 0.0
C1965 C 0.24312 0.24921 0.84882 0.0
C1966 C 0.25128 0.23812 0.82064 0.0
C1967 C 0.26188 0.22706 0.84419 0.0
C1968 C 0.2396 0.22916 0.79461 0.0
C1969 C 0.26053 0.24945 0.7956 0.0
C1970 C 0.2579 0.26454 0.80758 0.0
C1971 C 0.26491 0.27707 0.78849 0.0
C1972 C 0.275 0.27406 0.75645 0.0
C1973 C 0.27806 0.25867 0.74425 0.0
C1974 C 0.27072 0.24624 0.76406 0.0
H1975 H 0.27353 0.73179 0.39312 0.0
H1976 H 0.27243 0.78035 0.42642 0.0
H1977 H 0.25348 0.7854 0.37229 0.0
H1978 H 0.27126 0.73733 0.28688 0.0
H1979 H 0.25898 0.72082 0.27812 0.0
H1980 H 0.27206 0.7209 0.32034 0.0
H1981 H 0.2492 0.71566 0.36895 0.0
H1982 H 0.23604 0.71553 0.32684 0.0
H1983 H 0.23275 0.72847 0.36859 0.0
H1984 H 0.23584 0.78543 0.31285 0.0
H1985 H 0.21936 0.78018 0.25356 0.0
H1986 H 0.23156 0.73153 0.25956 0.0
C1987 C 0.26926 0.74347 0.389 0.0
C1988 C 0.27437 0.75569 0.41387 0.0
C1989 C 0.26848 0.77081 0.40791 0.0
C1990 C 0.2578 0.77379 0.37717 0.0
C1991 C 0.25308 0.76151 0.35297 0.0
C1992 C 0.2585 0.74663 0.35868 0.0
C1993 C 0.25159 0.73553 0.32834 0.0
C1994 C 0.26423 0.72822 0.30185 0.0
C1995 C 0.24181 0.72306 0.34945 0.0
C1996 C 0.24158 0.74654 0.30437 0.0
C1997 C 0.24265 0.76148 0.31903 0.0
C1998 C 0.23482 0.77378 0.30119 0.0
C1999 C 0.22559 0.77071 0.26748 0.0
C2000 C 0.22425 0.75547 0.25218 0.0
C2001 C 0.2323 0.74325 0.27099 0.0
H2002 H 0.50222 0.96876 0.52651 0.0
H2003 H 0.52995 0.99427 0.44015 0.0
H2004 H 0.53464 0.01461 0.49119 0.0
H2005 H 0.48384 1.00116 0.5694 0.0
H2006 H 0.4837 0.99358 0.62003 0.0
H2007 H 0.48352 0.98054 0.57775 0.0
H2008 H 0.50805 0.96691 0.60525 0.0
H2009 H 0.50829 0.97991 0.64773 0.0
H2010 H 0.52508 0.97821 0.61591 0.0
H2011 H 0.53546 0.03252 0.55076 0.0
H2012 H 0.53143 0.04731 0.61372 0.0
H2013 H 0.50303 0.01002 0.66058 0.0
C2014 C 0.5095 0.9785 0.51861 0.0
C2015 C 0.5158 0.97997 0.47959 0.0
C2016 C 0.52497 0.99303 0.46993 0.0
C2017 C 0.52777 0.00456 0.49874 0.0
C2018 C 0.52129 0.00281 0.53691 0.0
C2019 C 0.51232 0.99013 0.54686 0.0
C2020 C 0.506 0.99142 0.58922 0.0
C2021 C 0.48821 0.9917 0.58906 0.0
C2022 C 0.51223 0.97833 0.61611 0.0
C2023 C 0.51263 0.00692 0.60134 0.0
C2024 C 0.52156 0.01323 0.57096 0.0
C2025 C 0.5286 0.02765 0.57491 0.0
C2026 C 0.52631 0.03592 0.61076 0.0
C2027 C 0.51696 0.02976 0.6419 0.0
C2028 C 0.51018 0.01502 0.63715 0.0
H2029 H 0.01441 0.01905 0.99531 0.0
H2030 H 0.9697 0.04097 0.01156 0.0
H2031 H 0.96474 0.0243 0.07061 0.0
H2032 H 0.00209 0.98035 0.02177 0.0
H2033 H 0.01993 0.97572 0.04715 0.0
H2034 H 0.01989 0.98938 0.00611 0.0
H2035 H 0.03274 0.00989 0.0523 0.0
H2036 H 0.03275 0.99632 0.09354 0.0
H2037 H 0.02366 0.01496 0.09939 0.0
H2038 H 0.96488 0.00567 0.12842 0.0
H2039 H 0.96997 0.98603 0.18077 0.0
H2040 H 0.0141 0.97558 0.1247 0.0
C2041 C 0.00351 0.02023 0.01101 0.0
C2042 C 0.99247 0.03134 0.999 0.0
C2043 C 0.97842 0.03269 0.02067 0.0
C2044 C 0.97546 0.02322 0.05405 0.0
C2045 C 0.98663 0.01245 0.06521 0.0
C2046 C 1.00034 0.01087 0.04429 0.0
C2047 C 0.01047 0.99847 0.06266 0.0
C2048 C 0.01325 0.98519 0.03263 0.0
C2049 C 0.02581 0.00532 0.07788 0.0
C2050 C 1.00031 0.99336 0.09727 0.0
C2051 C 0.98662 1.00157 0.09823 0.0
C2052 C 0.97551 0.99907 0.12784 0.0
C2053 C 0.97846 0.98783 0.15728 0.0
C2054 C 0.9924 0.97922 0.15675 0.0
C2055 C 0.00341 0.98206 0.12621 0.0
H2056 H 0.99183 0.48451 0.65461 0.0
H2057 H 0.02699 0.45444 0.60375 0.0
H2058 H 0.03091 0.47294 0.54818 0.0
H2059 H 0.97526 0.49644 0.55933 0.0
H2060 H 0.97165 0.51604 0.57537 0.0
H2061 H 0.9717 0.50057 0.61179 0.0
H2062 H 0.99248 0.51508 0.65338 0.0
H2063 H 0.99258 0.53055 0.61691 0.0
H2064 H 0.01032 0.52074 0.6295 0.0
H2065 H 0.03107 0.4943 0.49795 0.0
H2066 H 0.02683 0.51698 0.45432 0.0
H2067 H 0.99134 0.53359 0.53597 0.0
C2068 C 1.00027 0.48176 0.63161 0.0
C2069 C 0.00919 0.468 0.63386 0.0
C2070 C 0.0202 0.46497 0.60324 0.0
C2071 C 0.02248 0.47539 0.57139 0.0
C2072 C 0.01366 0.48886 0.57035 0.0
C2073 C 0.00272 0.49209 0.59947 0.0
C2074 C 0.99471 0.50739 0.59071 0.0
C2075 C 0.9773 0.50496 0.58389 0.0
C2076 C 0.9977 0.51913 0.62465 0.0
C2077 C 0.00279 0.51218 0.55199 0.0
C2078 C 0.01371 0.50129 0.541 0.0
C2079 C 0.02254 0.50289 0.50619 0.0
C2080 C 0.02001 0.5158 0.48154 0.0
C2081 C 0.0087 0.52703 0.49156 0.0
C2082 C 1.00015 0.52528 0.52768 0.0
H2083 H 0.76813 0.73901 0.90128 0.0
H2084 H 0.79943 0.77318 0.85023 0.0
H2085 H 0.78204 0.77625 0.79226 0.0
H2086 H 0.75592 0.72155 0.80887 0.0
H2087 H 0.73607 0.71931 0.82421 0.0
H2088 H 0.75121 0.71929 0.86149 0.0
H2089 H 0.73764 0.74169 0.89934 0.0
H2090 H 0.72245 0.74179 0.86216 0.0
H2091 H 0.73307 0.75929 0.87265 0.0
H2092 H 0.76166 0.7754 0.73883 0.0
H2093 H 0.73904 0.77127 0.69467 0.0
H2094 H 0.71966 0.73936 0.78199 0.0
C2095 C 0.77134 0.74727 0.87826 0.0
C2096 C 0.78543 0.75568 0.88061 0.0
C2097 C 0.78905 0.76621 0.84911 0.0
C2098 C 0.77913 0.7682 0.81605 0.0
C2099 C 0.76542 0.75976 0.81488 0.0
C2100 C 0.76143 0.7496 0.84525 0.0
C2101 C 0.74581 0.7422 0.83685 0.0
C2102 C 0.74735 0.72454 0.8326 0.0
C2103 C 0.73405 0.7465 0.86971 0.0
C2104 C 0.74173 0.74971 0.79682 0.0
C2105 C 0.75328 0.75974 0.78469 0.0
C2106 C 0.7525 0.76766 0.74816 0.0
C2107 C 0.73963 0.76523 0.72326 0.0
C2108 C 0.72759 0.75508 0.73503 0.0
C2109 C 0.72861 0.74733 0.77253 0.0
H2110 H 0.49226 0.51602 0.15668 0.0
H2111 H 0.52611 0.54622 0.10035 0.0
H2112 H 0.53027 0.5268 0.04716 0.0
H2113 H 0.51121 0.48014 0.13582 0.0
H2114 H 0.49368 0.46966 0.12506 0.0
H2115 H 0.4933 0.48586 0.15923 0.0
H2116 H 0.47207 0.49896 0.11605 0.0
H2117 H 0.47231 0.48276 0.08187 0.0
H2118 H 0.4754 0.50209 0.06301 0.0
H2119 H 0.53132 0.50397 1.00082 0.0
H2120 H 0.52806 0.47988 0.96195 0.0
H2121 H 0.49269 0.46465 0.0458 0.0
C2122 C 0.5004 0.51869 0.13291 0.0
C2123 C 0.50895 0.53272 0.13318 0.0
C2124 C 0.51964 0.53552 0.10158 0.0
C2125 C 0.52202 0.52457 0.07097 0.0
C2126 C 0.51356 0.51085 0.07196 0.0
C2127 C 0.50285 0.50792 0.10185 0.0
C2128 C 0.49518 0.49227 0.0955 0.0
C2129 C 0.49855 0.48134 0.13102 0.0
C2130 C 0.4777 0.49414 0.08869 0.0
C2131 C 0.50327 0.48689 0.05738 0.0
C2132 C 0.51391 0.49777 0.04457 0.0
C2133 C 0.52302 0.49538 0.01054 0.0
C2134 C 0.52116 0.48158 0.98883 0.0
C2135 C 0.51022 0.47028 1.00094 0.0
C2136 C 0.50113 0.47306 0.03572 0.0
H2137 H 0.76527 0.24028 0.23631 0.0
H2138 H 0.79661 0.27461 0.28569 0.0
H2139 H 0.77882 0.27879 0.34279 0.0
H2140 H 0.72948 0.25927 0.2649 0.0
H2141 H 0.71971 0.24153 0.27794 0.0
H2142 H 0.73463 0.24144 0.24007 0.0
H2143 H 0.74946 0.22033 0.27979 0.0
H2144 H 0.73455 0.22031 0.31766 0.0
H2145 H 0.75437 0.22368 0.33189 0.0
H2146 H 0.75774 0.27959 0.39383 0.0
H2147 H 0.73555 0.27567 0.43896 0.0
H2148 H 0.71789 0.23995 0.35917 0.0
C2149 C 0.76832 0.24874 0.25906 0.0
C2150 C 0.78236 0.25714 0.25653 0.0
C2151 C 0.78602 0.26795 0.28717 0.0
C2152 C 0.77593 0.27048 0.31957 0.0
C2153 C 0.76222 0.26204 0.32119 0.0
C2154 C 0.75842 0.25129 0.29201 0.0
C2155 C 0.74319 0.24337 0.30202 0.0
C2156 C 0.73103 0.2466 0.26928 0.0
C2157 C 0.74554 0.22589 0.30821 0.0
C2158 C 0.73905 0.25137 0.34136 0.0
C2159 C 0.75016 0.26218 0.35153 0.0
C2160 C 0.74903 0.27107 0.38637 0.0
C2161 C 0.73639 0.26867 0.41198 0.0
C2162 C 0.72501 0.25733 0.40312 0.0
C2163 C 0.7263 0.24875 0.36683 0.0
H2164 H 0.28436 0.24127 0.36231 0.0
H2165 H 0.268 0.27937 0.43633 0.0
H2166 H 0.24571 0.2827 0.39122 0.0
H2167 H 0.27308 0.25878 0.26571 0.0
H2168 H 0.26756 0.24053 0.24365 0.0
H2169 H 0.2825 0.24117 0.28148 0.0
H2170 H 0.26736 0.22124 0.3244 0.0
H2171 H 0.25233 0.22061 0.28686 0.0
H2172 H 0.24764 0.22528 0.33839 0.0
H2173 H 0.22441 0.2812 0.34061 0.0
H2174 H 0.20644 0.27619 0.28428 0.0
H2175 H 0.2368 0.23996 0.24036 0.0
C2176 C 0.27623 0.25047 0.36873 0.0
C2177 C 0.27791 0.25988 0.40348 0.0
C2178 C 0.26686 0.27171 0.41068 0.0
C2179 C 0.25417 0.27379 0.38501 0.0
C2180 C 0.25267 0.26411 0.35172 0.0
C2181 C 0.26348 0.25281 0.34311 0.0
C2182 C 0.25904 0.24403 0.30514 0.0
C2183 C 0.27127 0.24627 0.27203 0.0
C2184 C 0.25644 0.22677 0.31426 0.0
C2185 C 0.24398 0.25204 0.29419 0.0
C2186 C 0.24052 0.26355 0.32163 0.0
C2187 C 0.22703 0.27228 0.31876 0.0
C2188 C 0.21683 0.26928 0.28682 0.0
C2189 C 0.22017 0.25769 0.25791 0.0
C2190 C 0.23399 0.24899 0.26176 0.0
H2191 H 0.26927 0.73829 0.74398 0.0
H2192 H 0.30087 0.77307 0.78981 0.0
H2193 H 0.28292 0.77849 0.84601 0.0
H2194 H 0.23374 0.75789 0.76894 0.0
H2195 H 0.22372 0.74055 0.78415 0.0
H2196 H 0.23884 0.73951 0.74692 0.0
H2197 H 0.25328 0.71916 0.79018 0.0
H2198 H 0.23814 0.72005 0.82737 0.0
H2199 H 0.25791 0.72356 0.84193 0.0
H2200 H 0.26125 0.7809 0.8954 0.0
H2201 H 0.23857 0.7784 0.93944 0.0
H2202 H 0.22147 0.74069 0.86511 0.0
C2203 C 0.27237 0.74704 0.7659 0.0
C2204 C 0.28647 0.75529 0.76256 0.0
C2205 C 0.29021 0.76654 0.792 0.0
C2206 C 0.28004 0.76977 0.82384 0.0
C2207 C 0.26621 0.76152 0.82615 0.0
C2208 C 0.26244 0.75024 0.79834 0.0
C2209 C 0.24709 0.74268 0.80884 0.0
C2210 C 0.23514 0.74532 0.7752 0.0
C2211 C 0.24924 0.72534 0.81761 0.0
C2212 C 0.24281 0.75154 0.84678 0.0
C2213 C 0.25396 0.76246 0.85585 0.0
C2214 C 0.25256 0.77224 0.88894 0.0
C2215 C 0.23963 0.77063 0.91401 0.0
C2216 C 0.22826 0.75913 0.9065 0.0
C2217 C 0.22984 0.74963 0.87186 0.0
H2218 H 0.51171 0.96632 0.10228 0.0
H2219 H 0.47122 0.97834 0.17296 0.0
H2220 H 0.46735 1.00154 0.1311 0.0
H2221 H 0.52572 0.00522 0.0895 0.0
H2222 H 0.53225 0.00228 0.03848 0.0
H2223 H 0.53175 0.98625 0.07321 0.0
H2224 H 0.51448 0.97081 0.02368 0.0
H2225 H 0.51501 0.98676 0.9887 0.0
H2226 H 0.49671 0.97927 0.00583 0.0
H2227 H 0.46812 0.02387 0.08317 0.0
H2228 H 0.47294 0.04337 0.03041 0.0
H2229 H 0.51278 0.01713 0.98968 0.0
C2230 C 0.50202 0.97382 0.10893 0.0
C2231 C 0.49168 0.97032 0.1408 0.0
C2232 C 0.47912 0.98048 0.14827 0.0
C2233 C 0.47689 0.99381 0.12486 0.0
C2234 C 0.4873 0.99693 0.09391 0.0
C2235 C 0.49958 0.98721 0.0857 0.0
C2236 C 0.50904 0.99333 0.05054 0.0
C2237 C 0.52568 0.99699 0.06373 0.0
C2238 C 0.50879 0.98186 0.01509 0.0
C2239 C 0.50018 0.00801 0.0405 0.0
C2240 C 0.4877 0.00985 0.06599 0.0
C2241 C 0.4778 0.0225 0.06284 0.0
C2242 C 0.4806 0.03349 0.03258 0.0
C2243 C 0.49319 0.03182 0.00556 0.0
C2244 C 0.50315 0.01889 0.00998 0.0
H2245 H 0.01284 0.03462 0.60431 0.0
H2246 H 0.98007 0.01562 0.69029 0.0
H2247 H 0.97777 0.99207 0.64915 0.0
H2248 H 0.99483 0.01946 0.51513 0.0
H2249 H 0.01276 0.01509 0.48995 0.0
H2250 H 0.01194 0.03062 0.52607 0.0
H2251 H 0.03423 0.01804 0.56663 0.0
H2252 H 0.03513 0.00247 0.53057 0.0
H2253 H 0.03239 0.99826 0.58332 0.0
H2254 H 0.97844 0.97071 0.59829 0.0
H2255 H 0.98221 0.95293 0.5412 0.0
H2256 H 0.01571 0.98477 0.4896 0.0
C2257 C 0.00525 0.02548 0.61463 0.0
C2258 C 0.99646 0.02719 0.65041 0.0
C2259 C 0.98663 0.01488 0.66257 0.0
C2260 C 0.98534 1.00134 0.63957 0.0
C2261 C 0.99403 1.0001 0.60444 0.0
C2262 C 0.00385 0.01178 0.59201 0.0
C2263 C 0.01184 0.00743 0.55287 0.0
C2264 C 0.00758 0.01883 0.51901 0.0
C2265 C 0.02944 0.00649 0.55871 0.0
C2266 C 0.00492 0.99154 0.54528 0.0
C2267 C 0.99467 0.98756 0.57543 0.0
C2268 C 0.98656 0.97363 0.57468 0.0
C2269 C 0.9889 0.96351 0.54216 0.0
C2270 C 0.99936 0.96725 0.51069 0.0
C2271 C 0.00752 0.9815 0.51272 0.0
loop_
_geom_bond_atom_site_label_1
_geom_bond_atom_site_label_2
_geom_bond_distance
_geom_bond_site_symmetry_2
_ccdc_geom_bond_type
Li0 N17 1.990 . S
Li0 O60 1.919 1_655 S
Li0 O61 1.994 . S
Li0 O62 1.961 . S
Li1 N25 1.990 . S
Li1 O60 2.005 . S
Li1 O61 1.931 1_455 S
Li1 O63 1.961 . S
Li2 N47 1.993 . S
Li2 O60 1.958 1_655 S
Li2 O62 1.986 . S
Li2 O63 1.939 1_655 S
Li3 N53 1.994 . S
Li3 O61 1.958 1_455 S
Li3 O62 1.926 1_455 S
Li3 O63 1.998 . S
C4 C6 1.348 . S
C4 C7 1.356 1_455 S
C4 O60 1.324 . S
N5 C8 1.314 1_655 S
N5 C9 1.279 . S
C6 C4 1.348 . S
C6 C8 1.353 . S
C6 H64 0.929 . S
C7 C4 1.356 1_655 S
C7 C9 1.358 . S
C7 H65 0.930 . S
C8 N5 1.314 1_455 S
C8 C6 1.353 . S
C8 H66 0.930 . S
C9 N5 1.279 . S
C9 C7 1.358 . S
C9 H67 0.930 . S
C10 C13 1.348 1_455 S
C10 C14 1.356 . S
C10 O61 1.324 1_455 S
C11 N12 1.279 . S
C11 C14 1.358 . S
C11 H68 0.930 . S
N12 C11 1.279 . S
N12 C15 1.314 1_455 S
C13 C10 1.348 1_655 S
C13 C15 1.353 . S
C13 H69 0.929 . S
C14 C10 1.356 . S
C14 C11 1.358 . S
C14 H70 0.930 . S
C15 N12 1.314 1_655 S
C15 C13 1.353 . S
C15 H71 0.930 . S
C16 N17 1.314 . S
C16 C21 1.353 . S
C16 H22 0.930 . S
N17 Li0 1.990 . S
N17 C16 1.314 . S
N17 C19 1.279 . S
C18 C19 1.358 . S
C18 C20 1.356 . S
C18 H72 0.930 . S
C19 N17 1.279 . S
C19 C18 1.358 . S
C19 H23 0.930 . S
C20 C18 1.356 . S
C20 C21 1.348 . S
C21 C16 1.353 . S
C21 C20 1.348 . S
C21 H73 0.929 . S
H22 C16 0.930 . S
H23 C19 0.930 . S
C24 N25 1.314 . S
C24 C26 1.353 . S
C24 H30 0.930 . S
N25 Li1 1.990 . S
N25 C24 1.314 . S
N25 C28 1.279 . S
C26 C24 1.353 . S
C26 C29 1.348 . S
C26 H74 0.929 . S
C27 C28 1.358 . S
C27 C29 1.356 . S
C27 H75 0.930 . S
C28 N25 1.279 . S
C28 C27 1.358 . S
C28 H31 0.930 . S
C29 C26 1.348 . S
C29 C27 1.356 . S
H30 C24 0.930 . S
H31 C28 0.930 . S
C32 C34 1.348 . S
C32 C35 1.356 . S
C32 O62 1.325 . S
N33 C36 1.314 . S
N33 C37 1.279 . S
C34 C32 1.348 . S
C34 C36 1.353 . S
C34 H76 0.929 . S
C35 C32 1.356 . S
C35 C37 1.358 . S
C35 H77 0.930 . S
C36 N33 1.314 . S
C36 C34 1.353 . S
C36 H78 0.930 . S
C37 N33 1.279 . S
C37 C35 1.358 . S
C37 H79 0.930 . S
C38 C39 1.348 . S
C38 C40 1.356 . S
C38 O63 1.325 . S
C39 C38 1.348 . S
C39 C41 1.353 . S
C39 H80 0.929 . S
C40 C38 1.356 . S
C40 C42 1.358 . S
C40 H81 0.930 . S
C41 C39 1.353 . S
C41 N43 1.314 . S
C41 H82 0.930 . S
C42 C40 1.358 . S
C42 N43 1.279 . S
C42 H83 0.930 . S
N43 C41 1.314 . S
N43 C42 1.279 . S
C44 C46 1.353 . S
C44 N47 1.314 1_455 S
C44 H50 0.930 . S
C45 N47 1.279 . S
C45 C48 1.358 . S
C45 H51 0.930 . S
C46 C44 1.353 . S
C46 C49 1.348 . S
C46 H84 0.929 . S
N47 Li2 1.993 . S
N47 C44 1.314 1_655 S
N47 C45 1.279 . S
C48 C45 1.358 . S
C48 C49 1.356 1_655 S
C48 H85 0.930 . S
C49 C46 1.348 . S
C49 C48 1.356 1_455 S
H50 C44 0.930 . S
H51 C45 0.930 . S
C52 N53 1.314 1_655 S
C52 C54 1.353 . S
C52 H58 0.930 . S
N53 Li3 1.994 . S
N53 C52 1.314 1_455 S
N53 C56 1.279 . S
C54 C52 1.353 . S
C54 C57 1.348 1_655 S
C54 H86 0.929 . S
C55 C56 1.358 . S
C55 C57 1.356 . S
C55 H87 0.930 . S
C56 N53 1.279 . S
C56 C55 1.358 . S
C56 H59 0.930 . S
C57 C54 1.348 1_455 S
C57 C55 1.356 . S
H58 C52 0.930 . S
H59 C56 0.930 . S
O60 Li0 1.919 1_455 S
O60 Li1 2.005 . S
O60 Li2 1.958 1_455 S
O60 C4 1.324 . S
O61 Li0 1.994 . S
O61 Li1 1.931 1_655 S
O61 Li3 1.958 1_655 S
O61 C10 1.324 1_655 S
O62 Li0 1.961 . S
O62 Li2 1.986 . S
O62 Li3 1.926 1_655 S
O62 C32 1.325 . S
O63 Li1 1.961 . S
O63 Li2 1.939 1_455 S
O63 Li3 1.998 . S
O63 C38 1.325 . S
H64 C6 0.929 . S
H65 C7 0.930 . S
H66 C8 0.930 . S
H67 C9 0.930 . S
H68 C11 0.930 . S
H69 C13 0.929 . S
H70 C14 0.930 . S
H71 C15 0.930 . S
H72 C18 0.930 . S
H73 C21 0.929 . S
H74 C26 0.929 . S
H75 C27 0.930 . S
H76 C34 0.929 . S
H77 C35 0.930 . S
H78 C36 0.930 . S
H79 C37 0.930 . S
H80 C39 0.929 . S
H81 C40 0.930 . S
H82 C41 0.930 . S
H83 C42 0.930 . S
H84 C46 0.929 . S
H85 C48 0.930 . S
H86 C54 0.929 . S
H87 C55 0.930 . S
Li88 N105 1.990 . S
Li88 O148 1.956 . S
Li88 O149 1.970 . S
Li88 O150 1.961 . S
Li89 N113 1.990 . S
Li89 O148 1.970 . S
Li89 O149 1.956 . S
Li89 O151 1.961 . S
Li90 N135 1.990 . S
Li90 O148 1.961 . S
Li90 O150 1.956 . S
Li90 O151 1.970 . S
Li91 N141 1.990 . S
Li91 O149 1.961 . S
Li91 O150 1.970 . S
Li91 O151 1.956 . S
C92 C94 1.348 . S
C92 C95 1.356 . S
C92 O148 1.325 . S
N93 C96 1.314 . S
N93 C97 1.279 . S
C94 C92 1.348 . S
C94 C96 1.353 . S
C94 H152 0.929 . S
C95 C92 1.356 . S
C95 C97 1.358 . S
C95 H153 0.930 . S
C96 N93 1.314 . S
C96 C94 1.353 . S
C96 H154 0.930 . S
C97 N93 1.279 . S
C97 C95 1.358 . S
C97 H155 0.930 . S
C98 C101 1.348 . S
C98 C102 1.356 . S
C98 O149 1.325 . S
C99 N100 1.279 . S
C99 C102 1.358 . S
C99 H156 0.930 . S
N100 C99 1.279 . S
N100 C103 1.314 . S
C101 C98 1.348 . S
C101 C103 1.353 . S
C101 H157 0.929 . S
C102 C98 1.356 . S
C102 C99 1.358 . S
C102 H158 0.930 . S
C103 N100 1.314 . S
C103 C101 1.353 . S
C103 H159 0.930 . S
C104 N105 1.314 . S
C104 C109 1.353 . S
C104 H110 0.930 . S
N105 Li88 1.990 . S
N105 C104 1.314 . S
N105 C107 1.279 . S
C106 C107 1.358 . S
C106 C108 1.356 . S
C106 H160 0.930 . S
C107 N105 1.279 . S
C107 C106 1.358 . S
C107 H111 0.930 . S
C108 C106 1.356 . S
C108 C109 1.348 . S
C109 C104 1.353 . S
C109 C108 1.348 . S
C109 H161 0.929 . S
H110 C104 0.930 . S
H111 C107 0.930 . S
C112 N113 1.314 . S
C112 C114 1.353 . S
C112 H118 0.930 . S
N113 Li89 1.990 . S
N113 C112 1.314 . S
N113 C116 1.279 . S
C114 C112 1.353 . S
C114 C117 1.348 . S
C114 H162 0.929 . S
C115 C116 1.358 . S
C115 C117 1.356 . S
C115 H163 0.930 . S
C116 N113 1.279 . S
C116 C115 1.358 . S
C116 H119 0.930 . S
C117 C114 1.348 . S
C117 C115 1.356 . S
H118 C112 0.930 . S
H119 C116 0.930 . S
C120 C122 1.348 . S
C120 C123 1.356 . S
C120 O150 1.325 . S
N121 C124 1.314 . S
N121 C125 1.279 . S
C122 C120 1.348 . S
C122 C124 1.353 . S
C122 H164 0.929 . S
C123 C120 1.356 . S
C123 C125 1.358 . S
C123 H165 0.930 . S
C124 N121 1.314 . S
C124 C122 1.353 . S
C124 H166 0.930 . S
C125 N121 1.279 . S
C125 C123 1.358 . S
C125 H167 0.930 . S
C126 C127 1.348 . S
C126 C128 1.356 . S
C126 O151 1.325 . S
C127 C126 1.348 . S
C127 C129 1.353 . S
C127 H168 0.929 . S
C128 C126 1.356 . S
C128 C130 1.358 . S
C128 H169 0.930 . S
C129 C127 1.353 . S
C129 N131 1.314 . S
C129 H170 0.930 . S
C130 C128 1.358 . S
C130 N131 1.279 . S
C130 H171 0.930 . S
N131 C129 1.314 . S
N131 C130 1.279 . S
C132 C134 1.353 . S
C132 N135 1.314 . S
C132 H138 0.930 . S
C133 N135 1.279 . S
C133 C136 1.358 . S
C133 H139 0.930 . S
C134 C132 1.353 . S
C134 C137 1.348 . S
C134 H172 0.929 . S
N135 Li90 1.990 . S
N135 C132 1.314 . S
N135 C133 1.279 . S
C136 C133 1.358 . S
C136 C137 1.356 . S
C136 H173 0.930 . S
C137 C134 1.348 . S
C137 C136 1.356 . S
H138 C132 0.930 . S
H139 C133 0.930 . S
C140 N141 1.314 . S
C140 C142 1.353 . S
C140 H146 0.930 . S
N141 Li91 1.990 . S
N141 C140 1.314 . S
N141 C144 1.279 . S
C142 C140 1.353 . S
C142 C145 1.348 . S
C142 H174 0.929 . S
C143 C144 1.358 . S
C143 C145 1.356 . S
C143 H175 0.930 . S
C144 N141 1.279 . S
C144 C143 1.358 . S
C144 H147 0.930 . S
C145 C142 1.348 . S
C145 C143 1.356 . S
H146 C140 0.930 . S
H147 C144 0.930 . S
O148 Li88 1.956 . S
O148 Li89 1.970 . S
O148 Li90 1.961 . S
O148 C92 1.325 . S
O149 Li88 1.970 . S
O149 Li89 1.956 . S
O149 Li91 1.961 . S
O149 C98 1.325 . S
O150 Li88 1.961 . S
O150 Li90 1.956 . S
O150 Li91 1.970 . S
O150 C120 1.325 . S
O151 Li89 1.961 . S
O151 Li90 1.970 . S
O151 Li91 1.956 . S
O151 C126 1.325 . S
H152 C94 0.929 . S
H153 C95 0.930 . S
H154 C96 0.930 . S
H155 C97 0.930 . S
H156 C99 0.930 . S
H157 C101 0.929 . S
H158 C102 0.930 . S
H159 C103 0.930 . S
H160 C106 0.930 . S
H161 C109 0.929 . S
H162 C114 0.929 . S
H163 C115 0.930 . S
H164 C122 0.929 . S
H165 C123 0.930 . S
H166 C124 0.930 . S
H167 C125 0.930 . S
H168 C127 0.929 . S
H169 C128 0.930 . S
H170 C129 0.930 . S
H171 C130 0.930 . S
H172 C134 0.929 . S
H173 C136 0.930 . S
H174 C142 0.929 . S
H175 C143 0.930 . S
Li176 N193 1.990 . S
Li176 O236 1.956 . S
Li176 O237 1.970 . S
Li176 O238 1.961 . S
Li177 N201 1.990 . S
Li177 O236 1.970 . S
Li177 O237 1.956 . S
Li177 O239 1.961 . S
Li178 N223 1.990 . S
Li178 O236 1.961 . S
Li178 O238 1.956 . S
Li178 O239 1.970 . S
Li179 N229 1.990 . S
Li179 O237 1.961 . S
Li179 O238 1.970 . S
Li179 O239 1.956 . S
C180 C182 1.348 . S
C180 C183 1.356 . S
C180 O236 1.325 . S
N181 C184 1.314 . S
N181 C185 1.279 . S
C182 C180 1.348 . S
C182 C184 1.353 . S
C182 H240 0.929 . S
C183 C180 1.356 . S
C183 C185 1.358 . S
C183 H241 0.930 . S
C184 N181 1.314 . S
C184 C182 1.353 . S
C184 H242 0.930 . S
C185 N181 1.279 . S
C185 C183 1.358 . S
C185 H243 0.930 . S
C186 C189 1.348 . S
C186 C190 1.356 . S
C186 O237 1.325 . S
C187 N188 1.279 . S
C187 C190 1.358 . S
C187 H244 0.930 . S
N188 C187 1.279 . S
N188 C191 1.314 . S
C189 C186 1.348 . S
C189 C191 1.353 . S
C189 H245 0.929 . S
C190 C186 1.356 . S
C190 C187 1.358 . S
C190 H246 0.930 . S
C191 N188 1.314 . S
C191 C189 1.353 . S
C191 H247 0.930 . S
C192 N193 1.314 . S
C192 C197 1.353 . S
C192 H198 0.930 . S
N193 Li176 1.990 . S
N193 C192 1.314 . S
N193 C195 1.279 . S
C194 C195 1.358 . S
C194 C196 1.356 . S
C194 H248 0.930 . S
C195 N193 1.279 . S
C195 C194 1.358 . S
C195 H199 0.930 . S
C196 C194 1.356 . S
C196 C197 1.348 . S
C197 C192 1.353 . S
C197 C196 1.348 . S
C197 H249 0.929 . S
H198 C192 0.930 . S
H199 C195 0.930 . S
C200 N201 1.314 . S
C200 C202 1.353 . S
C200 H206 0.930 . S
N201 Li177 1.990 . S
N201 C200 1.314 . S
N201 C204 1.279 . S
C202 C200 1.353 . S
C202 C205 1.348 . S
C202 H250 0.929 . S
C203 C204 1.358 . S
C203 C205 1.356 . S
C203 H251 0.930 . S
C204 N201 1.279 . S
C204 C203 1.358 . S
C204 H207 0.930 . S
C205 C202 1.348 . S
C205 C203 1.356 . S
H206 C200 0.930 . S
H207 C204 0.930 . S
C208 C210 1.348 . S
C208 C211 1.356 . S
C208 O238 1.325 . S
N209 C212 1.314 . S
N209 C213 1.279 . S
C210 C208 1.348 . S
C210 C212 1.353 . S
C210 H252 0.929 . S
C211 C208 1.356 . S
C211 C213 1.358 . S
C211 H253 0.930 . S
C212 N209 1.314 . S
C212 C210 1.353 . S
C212 H254 0.930 . S
C213 N209 1.279 . S
C213 C211 1.358 . S
C213 H255 0.930 . S
C214 C215 1.348 . S
C214 C216 1.356 . S
C214 O239 1.325 . S
C215 C214 1.348 . S
C215 C217 1.353 . S
C215 H256 0.929 . S
C216 C214 1.356 . S
C216 C218 1.358 . S
C216 H257 0.930 . S
C217 C215 1.353 . S
C217 N219 1.314 . S
C217 H258 0.930 . S
C218 C216 1.358 . S
C218 N219 1.279 . S
C218 H259 0.930 . S
N219 C217 1.314 . S
N219 C218 1.279 . S
C220 C222 1.353 . S
C220 N223 1.314 . S
C220 H226 0.930 . S
C221 N223 1.279 . S
C221 C224 1.358 . S
C221 H227 0.930 . S
C222 C220 1.353 . S
C222 C225 1.348 . S
C222 H260 0.929 . S
N223 Li178 1.990 . S
N223 C220 1.314 . S
N223 C221 1.279 . S
C224 C221 1.358 . S
C224 C225 1.356 . S
C224 H261 0.930 . S
C225 C222 1.348 . S
C225 C224 1.356 . S
H226 C220 0.930 . S
H227 C221 0.930 . S
C228 N229 1.314 . S
C228 C230 1.353 . S
C228 H234 0.930 . S
N229 Li179 1.990 . S
N229 C228 1.314 . S
N229 C232 1.279 . S
C230 C228 1.353 . S
C230 C233 1.348 . S
C230 H262 0.929 . S
C231 C232 1.358 . S
C231 C233 1.356 . S
C231 H263 0.930 . S
C232 N229 1.279 . S
C232 C231 1.358 . S
C232 H235 0.930 . S
C233 C230 1.348 . S
C233 C231 1.356 . S
H234 C228 0.930 . S
H235 C232 0.930 . S
O236 Li176 1.956 . S
O236 Li177 1.970 . S
O236 Li178 1.961 . S
O236 C180 1.325 . S
O237 Li176 1.970 . S
O237 Li177 1.956 . S
O237 Li179 1.961 . S
O237 C186 1.325 . S
O238 Li176 1.961 . S
O238 Li178 1.956 . S
O238 Li179 1.970 . S
O238 C208 1.325 . S
O239 Li177 1.961 . S
O239 Li178 1.970 . S
O239 Li179 1.956 . S
O239 C214 1.325 . S
H240 C182 0.929 . S
H241 C183 0.930 . S
H242 C184 0.930 . S
H243 C185 0.930 . S
H244 C187 0.930 . S
H245 C189 0.929 . S
H246 C190 0.930 . S
H247 C191 0.930 . S
H248 C194 0.930 . S
H249 C197 0.929 . S
H250 C202 0.929 . S
H251 C203 0.930 . S
H252 C210 0.929 . S
H253 C211 0.930 . S
H254 C212 0.930 . S
H255 C213 0.930 . S
H256 C215 0.929 . S
H257 C216 0.930 . S
H258 C217 0.930 . S
H259 C218 0.930 . S
H260 C222 0.929 . S
H261 C224 0.930 . S
H262 C230 0.929 . S
H263 C231 0.930 . S
Li264 N281 1.990 . S
Li264 O324 1.956 . S
Li264 O325 1.970 . S
Li264 O326 1.961 . S
Li265 N289 1.990 . S
Li265 O324 1.970 . S
Li265 O325 1.956 . S
Li265 O327 1.961 1_554 S
Li266 N311 1.990 . S
Li266 O324 1.961 . S
Li266 O326 1.956 . S
Li266 O327 1.970 1_554 S
Li267 N317 1.990 . S
Li267 O325 1.961 1_556 S
Li267 O326 1.970 1_556 S
Li267 O327 1.956 . S
C268 C270 1.348 . S
C268 C271 1.356 . S
C268 O324 1.325 . S
N269 C272 1.314 . S
N269 C273 1.279 . S
C270 C268 1.348 . S
C270 C272 1.353 . S
C270 H328 0.929 . S
C271 C268 1.356 . S
C271 C273 1.358 . S
C271 H329 0.930 . S
C272 N269 1.314 . S
C272 C270 1.353 . S
C272 H330 0.930 . S
C273 N269 1.279 . S
C273 C271 1.358 . S
C273 H331 0.930 . S
C274 C277 1.348 . S
C274 C278 1.356 1_554 S
C274 O325 1.325 . S
C275 N276 1.279 . S
C275 C278 1.358 1_554 S
C275 H332 0.930 1_554 S
N276 C275 1.279 . S
N276 C279 1.314 . S
C277 C274 1.348 . S
C277 C279 1.353 . S
C277 H333 0.929 . S
C278 C274 1.356 1_556 S
C278 C275 1.358 1_556 S
C278 H334 0.930 . S
C279 N276 1.314 . S
C279 C277 1.353 . S
C279 H335 0.930 . S
C280 N281 1.314 . S
C280 C285 1.353 . S
C280 H286 0.930 . S
N281 Li264 1.990 . S
N281 C280 1.314 . S
N281 C283 1.279 . S
C282 C283 1.358 . S
C282 C284 1.356 . S
C282 H336 0.930 . S
C283 N281 1.279 . S
C283 C282 1.358 . S
C283 H287 0.930 . S
C284 C282 1.356 . S
C284 C285 1.348 . S
C285 C280 1.353 . S
C285 C284 1.348 . S
C285 H337 0.929 . S
H286 C280 0.930 . S
H287 C283 0.930 . S
C288 N289 1.314 1_556 S
C288 C290 1.353 . S
C288 H294 0.930 . S
N289 Li265 1.990 . S
N289 C288 1.314 1_554 S
N289 C292 1.279 . S
C290 C288 1.353 . S
C290 C293 1.348 1_556 S
C290 H338 0.929 . S
C291 C292 1.358 . S
C291 C293 1.356 . S
C291 H339 0.930 . S
C292 N289 1.279 . S
C292 C291 1.358 . S
C292 H295 0.930 . S
C293 C290 1.348 1_554 S
C293 C291 1.356 . S
H294 C288 0.930 . S
H295 C292 0.930 . S
C296 C298 1.355 . S
C296 C299 1.356 . S
C296 O326 1.325 . S
N297 C300 1.314 . S
N297 C301 1.279 . S
C298 C296 1.355 . S
C298 C300 1.355 . S
C298 H340 0.921 1_554 S
C299 C296 1.356 . S
C299 C301 1.358 . S
C299 H341 0.930 . S
C300 N297 1.314 . S
C300 C298 1.355 . S
C300 H342 0.930 1_554 S
C301 N297 1.279 . S
C301 C299 1.358 . S
C301 H343 0.930 . S
C302 C303 1.348 . S
C302 C304 1.356 . S
C302 O327 1.325 . S
C303 C302 1.348 . S
C303 C305 1.353 . S
C303 H344 0.929 . S
C304 C302 1.356 . S
C304 C306 1.358 . S
C304 H345 0.930 . S
C305 C303 1.353 . S
C305 N307 1.314 . S
C305 H346 0.930 . S
C306 C304 1.358 . S
C306 N307 1.279 . S
C306 H347 0.930 . S
N307 C305 1.314 . S
N307 C306 1.279 . S
C308 C310 1.353 . S
C308 N311 1.314 . S
C308 H314 0.930 . S
C309 N311 1.279 . S
C309 C312 1.358 . S
C309 H315 0.930 . S
C310 C308 1.353 . S
C310 C313 1.348 . S
C310 H348 0.929 . S
N311 Li266 1.990 . S
N311 C308 1.314 . S
N311 C309 1.279 . S
C312 C309 1.358 . S
C312 C313 1.356 . S
C312 H349 0.930 1_554 S
C313 C310 1.348 . S
C313 C312 1.356 . S
H314 C308 0.930 . S
H315 C309 0.930 . S
C316 N317 1.314 . S
C316 C318 1.353 . S
C316 H322 0.930 . S
N317 Li267 1.990 . S
N317 C316 1.314 . S
N317 C320 1.279 . S
C318 C316 1.353 . S
C318 C321 1.348 . S
C318 H350 0.929 . S
C319 C320 1.358 . S
C319 C321 1.356 . S
C319 H351 0.930 . S
C320 N317 1.279 . S
C320 C319 1.358 . S
C320 H323 0.930 . S
C321 C318 1.348 . S
C321 C319 1.356 . S
H322 C316 0.930 . S
H323 C320 0.930 . S
O324 Li264 1.956 . S
O324 Li265 1.970 . S
O324 Li266 1.961 . S
O324 C268 1.325 . S
O325 Li264 1.970 . S
O325 Li265 1.956 . S
O325 Li267 1.961 1_554 S
O325 C274 1.325 . S
O326 Li264 1.961 . S
O326 Li266 1.956 . S
O326 Li267 1.970 1_554 S
O326 C296 1.325 . S
O327 Li265 1.961 1_556 S
O327 Li266 1.970 1_556 S
O327 Li267 1.956 . S
O327 C302 1.325 . S
H328 C270 0.929 . S
H329 C271 0.930 . S
H330 C272 0.930 . S
H331 C273 0.930 . S
H332 C275 0.930 1_556 S
H333 C277 0.929 . S
H334 C278 0.930 . S
H335 C279 0.930 . S
H336 C282 0.930 . S
H337 C285 0.929 . S
H338 C290 0.929 . S
H339 C291 0.930 . S
H340 C298 0.921 1_556 S
H341 C299 0.930 . S
H342 C300 0.930 1_556 S
H343 C301 0.930 . S
H344 C303 0.929 . S
H345 C304 0.930 . S
H346 C305 0.930 . S
H347 C306 0.930 . S
H348 C310 0.929 . S
H349 C312 0.930 1_556 S
H350 C318 0.929 . S
H351 C319 0.930 . S
Li352 N369 1.994 . S
Li352 O412 1.998 . S
Li352 O413 1.926 1_455 S
Li352 O414 1.958 1_455 S
Li353 N377 1.993 . S
Li353 O412 1.939 1_655 S
Li353 O413 1.986 . S
Li353 O415 1.958 1_655 S
Li354 N399 1.990 . S
Li354 O412 1.961 . S
Li354 O414 1.931 1_455 S
Li354 O415 2.005 . S
Li355 N405 1.990 . S
Li355 O413 1.961 . S
Li355 O414 1.994 . S
Li355 O415 1.919 1_655 S
C356 C358 1.348 . S
C356 C359 1.356 . S
C356 O412 1.325 . S
N357 C360 1.314 . S
N357 C361 1.279 . S
C358 C356 1.348 . S
C358 C360 1.353 . S
C358 H416 0.929 . S
C359 C356 1.356 . S
C359 C361 1.358 . S
C359 H417 0.930 . S
C360 N357 1.314 . S
C360 C358 1.353 . S
C360 H418 0.930 . S
C361 N357 1.279 . S
C361 C359 1.358 . S
C361 H419 0.930 . S
C362 C365 1.348 . S
C362 C366 1.356 . S
C362 O413 1.325 . S
C363 N364 1.279 . S
C363 C366 1.358 . S
C363 H420 0.930 . S
N364 C363 1.279 . S
N364 C367 1.314 . S
C365 C362 1.348 . S
C365 C367 1.353 . S
C365 H421 0.929 . S
C366 C362 1.356 . S
C366 C363 1.358 . S
C366 H422 0.930 . S
C367 N364 1.314 . S
C367 C365 1.353 . S
C367 H423 0.930 . S
C368 N369 1.314 1_655 S
C368 C373 1.353 . S
C368 H374 0.930 . S
N369 Li352 1.994 . S
N369 C368 1.314 1_455 S
N369 C371 1.279 . S
C370 C371 1.358 . S
C370 C372 1.356 . S
C370 H424 0.930 . S
C371 N369 1.279 . S
C371 C370 1.358 . S
C371 H375 0.930 . S
C372 C370 1.356 . S
C372 C373 1.348 1_455 S
C373 C368 1.353 . S
C373 C372 1.348 1_655 S
C373 H425 0.929 . S
H374 C368 0.930 . S
H375 C371 0.930 . S
C376 N377 1.314 1_455 S
C376 C378 1.353 1_556 S
C376 H382 0.930 . S
N377 Li353 1.993 . S
N377 C376 1.314 1_655 S
N377 C380 1.279 . S
C378 C376 1.353 1_554 S
C378 C381 1.348 . S
C378 H426 0.929 . S
C379 C380 1.358 . S
C379 C381 1.356 1_656 S
C379 H427 0.930 . S
C380 N377 1.279 . S
C380 C379 1.358 . S
C380 H383 0.930 . S
C381 C378 1.348 . S
C381 C379 1.356 1_454 S
H382 C376 0.930 . S
H383 C380 0.930 . S
C384 C386 1.348 1_455 S
C384 C387 1.356 . S
C384 O414 1.324 1_455 S
N385 C388 1.314 1_455 S
N385 C389 1.279 . S
C386 C384 1.348 1_655 S
C386 C388 1.353 . S
C386 H428 0.929 . S
C387 C384 1.356 . S
C387 C389 1.358 . S
C387 H429 0.930 . S
C388 N385 1.314 1_655 S
C388 C386 1.353 . S
C388 H430 0.930 . S
C389 N385 1.279 . S
C389 C387 1.358 . S
C389 H431 0.930 . S
C390 C391 1.348 . S
C390 C392 1.356 1_455 S
C390 O415 1.324 . S
C391 C390 1.348 . S
C391 C393 1.353 1_556 S
C391 H432 0.929 . S
C392 C390 1.356 1_655 S
C392 C394 1.358 1_556 S
C392 H433 0.930 . S
C393 C391 1.353 1_554 S
C393 N395 1.314 1_455 S
C393 H434 0.930 . S
C394 C392 1.358 1_554 S
C394 N395 1.279 . S
C394 H435 0.930 . S
N395 C393 1.314 1_655 S
N395 C394 1.279 . S
C396 C398 1.353 . S
C396 N399 1.314 . S
C396 H402 0.930 . S
C397 N399 1.279 . S
C397 C400 1.358 . S
C397 H403 0.930 . S
C398 C396 1.353 . S
C398 C401 1.348 . S
C398 H436 0.929 . S
N399 Li354 1.990 . S
N399 C396 1.314 . S
N399 C397 1.279 . S
C400 C397 1.358 . S
C400 C401 1.356 . S
C400 H437 0.930 . S
C401 C398 1.348 . S
C401 C400 1.356 . S
H402 C396 0.930 . S
H403 C397 0.930 . S
C404 N405 1.314 . S
C404 C406 1.353 . S
C404 H410 0.930 . S
N405 Li355 1.990 . S
N405 C404 1.314 . S
N405 C408 1.279 . S
C406 C404 1.353 . S
C406 C409 1.348 . S
C406 H438 0.929 . S
C407 C408 1.358 . S
C407 C409 1.356 . S
C407 H439 0.930 . S
C408 N405 1.279 . S
C408 C407 1.358 . S
C408 H411 0.930 . S
C409 C406 1.348 . S
C409 C407 1.356 . S
H410 C404 0.930 . S
H411 C408 0.930 . S
O412 Li352 1.998 . S
O412 Li353 1.939 1_455 S
O412 Li354 1.961 . S
O412 C356 1.325 . S
O413 Li352 1.926 1_655 S
O413 Li353 1.986 . S
O413 Li355 1.961 . S
O413 C362 1.325 . S
O414 Li352 1.958 1_655 S
O414 Li354 1.931 1_655 S
O414 Li355 1.994 . S
O414 C384 1.324 1_655 S
O415 Li353 1.958 1_455 S
O415 Li354 2.005 . S
O415 Li355 1.919 1_455 S
O415 C390 1.324 . S
H416 C358 0.929 . S
H417 C359 0.930 . S
H418 C360 0.930 . S
H419 C361 0.930 . S
H420 C363 0.930 . S
H421 C365 0.929 . S
H422 C366 0.930 . S
H423 C367 0.930 . S
H424 C370 0.930 . S
H425 C373 0.929 . S
H426 C378 0.929 . S
H427 C379 0.930 . S
H428 C386 0.929 . S
H429 C387 0.930 . S
H430 C388 0.930 . S
H431 C389 0.930 . S
H432 C391 0.929 . S
H433 C392 0.930 . S
H434 C393 0.930 . S
H435 C394 0.930 . S
H436 C398 0.929 . S
H437 C400 0.930 . S
H438 C406 0.929 . S
H439 C407 0.930 . S
Li440 N457 1.990 . S
Li440 O500 1.956 . S
Li440 O501 1.970 . S
Li440 O502 1.961 . S
Li441 N465 1.990 . S
Li441 O500 1.970 . S
Li441 O501 1.956 . S
Li441 O503 1.961 . S
Li442 N487 1.990 . S
Li442 O500 1.961 . S
Li442 O502 1.956 . S
Li442 O503 1.970 . S
Li443 N493 1.990 . S
Li443 O501 1.961 . S
Li443 O502 1.970 . S
Li443 O503 1.956 . S
C444 C446 1.348 . S
C444 C447 1.356 . S
C444 O500 1.325 . S
N445 C448 1.314 . S
N445 C449 1.279 . S
C446 C444 1.348 . S
C446 C448 1.353 . S
C446 H504 0.929 . S
C447 C444 1.356 . S
C447 C449 1.358 . S
C447 H505 0.930 . S
C448 N445 1.314 . S
C448 C446 1.353 . S
C448 H506 0.930 . S
C449 N445 1.279 . S
C449 C447 1.358 . S
C449 H507 0.930 . S
C450 C453 1.348 . S
C450 C454 1.356 . S
C450 O501 1.325 . S
C451 N452 1.279 . S
C451 C454 1.358 . S
C451 H508 0.930 . S
N452 C451 1.279 . S
N452 C455 1.314 . S
C453 C450 1.348 . S
C453 C455 1.353 . S
C453 H509 0.929 . S
C454 C450 1.356 . S
C454 C451 1.358 . S
C454 H510 0.930 . S
C455 N452 1.314 . S
C455 C453 1.353 . S
C455 H511 0.930 . S
C456 N457 1.314 . S
C456 C461 1.353 . S
C456 H462 0.930 . S
N457 Li440 1.990 . S
N457 C456 1.314 . S
N457 C459 1.279 . S
C458 C459 1.358 . S
C458 C460 1.356 . S
C458 H512 0.930 . S
C459 N457 1.279 . S
C459 C458 1.358 . S
C459 H463 0.930 . S
C460 C458 1.356 . S
C460 C461 1.348 . S
C461 C456 1.353 . S
C461 C460 1.348 . S
C461 H513 0.929 . S
H462 C456 0.930 . S
H463 C459 0.930 . S
C464 N465 1.314 . S
C464 C466 1.353 . S
C464 H470 0.930 . S
N465 Li441 1.990 . S
N465 C464 1.314 . S
N465 C468 1.279 . S
C466 C464 1.353 . S
C466 C469 1.348 . S
C466 H514 0.929 . S
C467 C468 1.358 . S
C467 C469 1.356 . S
C467 H515 0.930 . S
C468 N465 1.279 . S
C468 C467 1.358 . S
C468 H471 0.930 . S
C469 C466 1.348 . S
C469 C467 1.356 . S
H470 C464 0.930 . S
H471 C468 0.930 . S
C472 C474 1.348 . S
C472 C475 1.356 . S
C472 O502 1.325 . S
N473 C476 1.314 1_556 S
N473 C477 1.279 1_556 S
C474 C472 1.348 . S
C474 C476 1.353 . S
C474 H516 0.929 . S
C475 C472 1.356 . S
C475 C477 1.358 . S
C475 H517 0.930 . S
C476 N473 1.314 1_554 S
C476 C474 1.353 . S
C476 H518 0.930 . S
C477 N473 1.279 1_554 S
C477 C475 1.358 . S
C477 H519 0.930 1_554 S
C478 C479 1.348 . S
C478 C480 1.356 . S
C478 O503 1.325 . S
C479 C478 1.348 . S
C479 C481 1.353 . S
C479 H520 0.929 . S
C480 C478 1.356 . S
C480 C482 1.358 . S
C480 H521 0.930 . S
C481 C479 1.353 . S
C481 N483 1.314 . S
C481 H522 0.930 . S
C482 C480 1.358 . S
C482 N483 1.279 . S
C482 H523 0.930 . S
N483 C481 1.314 . S
N483 C482 1.279 . S
C484 C486 1.353 1_554 S
C484 N487 1.314 . S
C484 H490 0.930 . S
C485 N487 1.279 1_556 S
C485 C488 1.358 . S
C485 H491 0.930 . S
C486 C484 1.353 1_556 S
C486 C489 1.348 . S
C486 H524 0.929 . S
N487 Li442 1.990 . S
N487 C484 1.314 . S
N487 C485 1.279 1_554 S
C488 C485 1.358 . S
C488 C489 1.356 . S
C488 H525 0.930 . S
C489 C486 1.348 . S
C489 C488 1.356 . S
H490 C484 0.930 . S
H491 C485 0.930 . S
C492 N493 1.314 . S
C492 C494 1.353 . S
C492 H498 0.930 . S
N493 Li443 1.990 . S
N493 C492 1.314 . S
N493 C496 1.279 . S
C494 C492 1.353 . S
C494 C497 1.348 . S
C494 H526 0.929 . S
C495 C496 1.358 . S
C495 C497 1.356 . S
C495 H527 0.930 . S
C496 N493 1.279 . S
C496 C495 1.358 . S
C496 H499 0.930 . S
C497 C494 1.348 . S
C497 C495 1.356 . S
H498 C492 0.930 . S
H499 C496 0.930 . S
O500 Li440 1.956 . S
O500 Li441 1.970 . S
O500 Li442 1.961 . S
O500 C444 1.325 . S
O501 Li440 1.970 . S
O501 Li441 1.956 . S
O501 Li443 1.961 . S
O501 C450 1.325 . S
O502 Li440 1.961 . S
O502 Li442 1.956 . S
O502 Li443 1.970 . S
O502 C472 1.325 . S
O503 Li441 1.961 . S
O503 Li442 1.970 . S
O503 Li443 1.956 . S
O503 C478 1.325 . S
H504 C446 0.929 . S
H505 C447 0.930 . S
H506 C448 0.930 . S
H507 C449 0.930 . S
H508 C451 0.930 . S
H509 C453 0.929 . S
H510 C454 0.930 . S
H511 C455 0.930 . S
H512 C458 0.930 . S
H513 C461 0.929 . S
H514 C466 0.929 . S
H515 C467 0.930 . S
H516 C474 0.929 . S
H517 C475 0.930 . S
H518 C476 0.930 . S
H519 C477 0.930 1_556 S
H520 C479 0.929 . S
H521 C480 0.930 . S
H522 C481 0.930 . S
H523 C482 0.930 . S
H524 C486 0.929 . S
H525 C488 0.930 . S
H526 C494 0.929 . S
H527 C495 0.930 . S
Li528 N545 1.990 . S
Li528 O588 1.956 . S
Li528 O589 1.970 . S
Li528 O590 1.961 . S
Li529 N553 1.990 . S
Li529 O588 1.970 . S
Li529 O589 1.956 . S
Li529 O591 1.961 . S
Li530 N575 1.990 . S
Li530 O588 1.961 . S
Li530 O590 1.956 . S
Li530 O591 1.970 . S
Li531 N581 1.990 . S
Li531 O589 1.961 . S
Li531 O590 1.970 . S
Li531 O591 1.956 . S
C532 C534 1.348 . S
C532 C535 1.356 . S
C532 O588 1.325 . S
N533 C536 1.314 . S
N533 C537 1.279 . S
C534 C532 1.348 . S
C534 C536 1.353 . S
C534 H592 0.929 . S
C535 C532 1.356 . S
C535 C537 1.358 . S
C535 H593 0.930 . S
C536 N533 1.314 . S
C536 C534 1.353 . S
C536 H594 0.930 . S
C537 N533 1.279 . S
C537 C535 1.358 . S
C537 H595 0.930 . S
C538 C541 1.348 . S
C538 C542 1.356 . S
C538 O589 1.325 . S
C539 N540 1.279 . S
C539 C542 1.358 . S
C539 H596 0.930 . S
N540 C539 1.279 . S
N540 C543 1.314 . S
C541 C538 1.348 . S
C541 C543 1.353 . S
C541 H597 0.929 . S
C542 C538 1.356 . S
C542 C539 1.358 . S
C542 H598 0.930 . S
C543 N540 1.314 . S
C543 C541 1.353 . S
C543 H599 0.930 . S
C544 N545 1.314 . S
C544 C549 1.353 . S
C544 H550 0.930 . S
N545 Li528 1.990 . S
N545 C544 1.314 . S
N545 C547 1.279 . S
C546 C547 1.358 . S
C546 C548 1.356 . S
C546 H600 0.930 . S
C547 N545 1.279 . S
C547 C546 1.358 . S
C547 H551 0.930 . S
C548 C546 1.356 . S
C548 C549 1.348 . S
C549 C544 1.353 . S
C549 C548 1.348 . S
C549 H601 0.929 . S
H550 C544 0.930 . S
H551 C547 0.930 . S
C552 N553 1.314 . S
C552 C554 1.353 . S
C552 H558 0.930 . S
N553 Li529 1.990 . S
N553 C552 1.314 . S
N553 C556 1.279 . S
C554 C552 1.353 . S
C554 C557 1.348 . S
C554 H602 0.929 . S
C555 C556 1.358 . S
C555 C557 1.356 . S
C555 H603 0.930 . S
C556 N553 1.279 . S
C556 C555 1.358 . S
C556 H559 0.930 . S
C557 C554 1.348 . S
C557 C555 1.356 . S
H558 C552 0.930 . S
H559 C556 0.930 . S
C560 C562 1.348 . S
C560 C563 1.356 . S
C560 O590 1.325 . S
N561 C564 1.314 . S
N561 C565 1.279 . S
C562 C560 1.348 . S
C562 C564 1.353 . S
C562 H604 0.929 . S
C563 C560 1.356 . S
C563 C565 1.358 . S
C563 H605 0.930 . S
C564 N561 1.314 . S
C564 C562 1.353 . S
C564 H606 0.930 . S
C565 N561 1.279 . S
C565 C563 1.358 . S
C565 H607 0.930 . S
C566 C567 1.348 . S
C566 C568 1.356 . S
C566 O591 1.325 . S
C567 C566 1.348 . S
C567 C569 1.353 . S
C567 H608 0.929 . S
C568 C566 1.356 . S
C568 C570 1.358 . S
C568 H609 0.930 . S
C569 C567 1.353 . S
C569 N571 1.314 . S
C569 H610 0.930 . S
C570 C568 1.358 . S
C570 N571 1.279 . S
C570 H611 0.930 . S
N571 C569 1.314 . S
N571 C570 1.279 . S
C572 C574 1.353 . S
C572 N575 1.314 . S
C572 H578 0.930 . S
C573 N575 1.279 . S
C573 C576 1.358 . S
C573 H579 0.930 . S
C574 C572 1.353 . S
C574 C577 1.348 . S
C574 H612 0.929 . S
N575 Li530 1.990 . S
N575 C572 1.314 . S
N575 C573 1.279 . S
C576 C573 1.358 . S
C576 C577 1.356 . S
C576 H613 0.930 . S
C577 C574 1.348 . S
C577 C576 1.356 . S
H578 C572 0.930 . S
H579 C573 0.930 . S
C580 N581 1.314 . S
C580 C582 1.353 . S
C580 H586 0.930 . S
N581 Li531 1.990 . S
N581 C580 1.314 . S
N581 C584 1.279 . S
C582 C580 1.353 . S
C582 C585 1.348 . S
C582 H614 0.929 . S
C583 C584 1.358 . S
C583 C585 1.356 . S
C583 H615 0.930 . S
C584 N581 1.279 . S
C584 C583 1.358 . S
C584 H587 0.930 . S
C585 C582 1.348 . S
C585 C583 1.356 . S
H586 C580 0.930 . S
H587 C584 0.930 . S
O588 Li528 1.956 . S
O588 Li529 1.970 . S
O588 Li530 1.961 . S
O588 C532 1.325 . S
O589 Li528 1.970 . S
O589 Li529 1.956 . S
O589 Li531 1.961 . S
O589 C538 1.325 . S
O590 Li528 1.961 . S
O590 Li530 1.956 . S
O590 Li531 1.970 . S
O590 C560 1.325 . S
O591 Li529 1.961 . S
O591 Li530 1.970 . S
O591 Li531 1.956 . S
O591 C566 1.325 . S
H592 C534 0.929 . S
H593 C535 0.930 . S
H594 C536 0.930 . S
H595 C537 0.930 . S
H596 C539 0.930 . S
H597 C541 0.929 . S
H598 C542 0.930 . S
H599 C543 0.930 . S
H600 C546 0.930 . S
H601 C549 0.929 . S
H602 C554 0.929 . S
H603 C555 0.930 . S
H604 C562 0.929 . S
H605 C563 0.930 . S
H606 C564 0.930 . S
H607 C565 0.930 . S
H608 C567 0.929 . S
H609 C568 0.930 . S
H610 C569 0.930 . S
H611 C570 0.930 . S
H612 C574 0.929 . S
H613 C576 0.930 . S
H614 C582 0.929 . S
H615 C583 0.930 . S
Li616 N633 1.990 . S
Li616 O676 1.956 . S
Li616 O677 1.970 . S
Li616 O678 1.961 . S
Li617 N641 1.990 . S
Li617 O676 1.970 . S
Li617 O677 1.956 . S
Li617 O679 1.961 . S
Li618 N663 1.990 . S
Li618 O676 1.961 . S
Li618 O678 1.956 . S
Li618 O679 1.970 . S
Li619 N669 1.990 . S
Li619 O677 1.961 . S
Li619 O678 1.970 . S
Li619 O679 1.956 . S
C620 C622 1.348 . S
C620 C623 1.356 . S
C620 O676 1.325 . S
N621 C624 1.314 . S
N621 C625 1.279 . S
C622 C620 1.348 . S
C622 C624 1.353 . S
C622 H680 0.929 . S
C623 C620 1.356 . S
C623 C625 1.358 . S
C623 H681 0.930 . S
C624 N621 1.314 . S
C624 C622 1.353 . S
C624 H682 0.930 . S
C625 N621 1.279 . S
C625 C623 1.358 . S
C625 H683 0.930 . S
C626 C629 1.348 . S
C626 C630 1.356 . S
C626 O677 1.325 . S
C627 N628 1.279 . S
C627 C630 1.358 . S
C627 H684 0.930 . S
N628 C627 1.279 . S
N628 C631 1.314 . S
C629 C626 1.348 . S
C629 C631 1.353 . S
C629 H685 0.929 . S
C630 C626 1.356 . S
C630 C627 1.358 . S
C630 H686 0.930 . S
C631 N628 1.314 . S
C631 C629 1.353 . S
C631 H687 0.930 . S
C632 N633 1.314 . S
C632 C637 1.353 . S
C632 H638 0.930 . S
N633 Li616 1.990 . S
N633 C632 1.314 . S
N633 C635 1.279 . S
C634 C635 1.358 . S
C634 C636 1.356 . S
C634 H688 0.930 . S
C635 N633 1.279 . S
C635 C634 1.358 . S
C635 H639 0.930 . S
C636 C634 1.356 . S
C636 C637 1.348 . S
C637 C632 1.353 . S
C637 C636 1.348 . S
C637 H689 0.929 . S
H638 C632 0.930 . S
H639 C635 0.930 . S
C640 N641 1.314 . S
C640 C642 1.353 . S
C640 H646 0.930 . S
N641 Li617 1.990 . S
N641 C640 1.314 . S
N641 C644 1.279 . S
C642 C640 1.353 . S
C642 C645 1.348 . S
C642 H690 0.929 . S
C643 C644 1.358 . S
C643 C645 1.356 . S
C643 H691 0.930 . S
C644 N641 1.279 . S
C644 C643 1.358 . S
C644 H647 0.930 . S
C645 C642 1.348 . S
C645 C643 1.356 . S
H646 C640 0.930 . S
H647 C644 0.930 . S
C648 C650 1.348 . S
C648 C651 1.356 . S
C648 O678 1.325 . S
N649 C652 1.314 . S
N649 C653 1.279 . S
C650 C648 1.348 . S
C650 C652 1.353 . S
C650 H692 0.929 . S
C651 C648 1.356 . S
C651 C653 1.358 . S
C651 H693 0.930 . S
C652 N649 1.314 . S
C652 C650 1.353 . S
C652 H694 0.930 . S
C653 N649 1.279 . S
C653 C651 1.358 . S
C653 H695 0.930 . S
C654 C655 1.348 . S
C654 C656 1.356 . S
C654 O679 1.325 . S
C655 C654 1.348 . S
C655 C657 1.353 . S
C655 H696 0.929 . S
C656 C654 1.356 . S
C656 C658 1.358 . S
C656 H697 0.930 . S
C657 C655 1.353 . S
C657 N659 1.314 . S
C657 H698 0.930 . S
C658 C656 1.358 . S
C658 N659 1.279 . S
C658 H699 0.930 . S
N659 C657 1.314 . S
N659 C658 1.279 . S
C660 C662 1.353 . S
C660 N663 1.314 . S
C660 H666 0.930 . S
C661 N663 1.279 . S
C661 C664 1.358 . S
C661 H667 0.930 . S
C662 C660 1.353 . S
C662 C665 1.348 . S
C662 H700 0.929 . S
N663 Li618 1.990 . S
N663 C660 1.314 . S
N663 C661 1.279 . S
C664 C661 1.358 . S
C664 C665 1.356 . S
C664 H701 0.930 . S
C665 C662 1.348 . S
C665 C664 1.356 . S
H666 C660 0.930 . S
H667 C661 0.930 . S
C668 N669 1.314 . S
C668 C670 1.353 . S
C668 H674 0.930 . S
N669 Li619 1.990 . S
N669 C668 1.314 . S
N669 C672 1.279 . S
C670 C668 1.353 . S
C670 C673 1.348 . S
C670 H702 0.929 . S
C671 C672 1.358 . S
C671 C673 1.356 . S
C671 H703 0.930 . S
C672 N669 1.279 . S
C672 C671 1.358 . S
C672 H675 0.930 . S
C673 C670 1.348 . S
C673 C671 1.356 . S
H674 C668 0.930 . S
H675 C672 0.930 . S
O676 Li616 1.956 . S
O676 Li617 1.970 . S
O676 Li618 1.961 . S
O676 C620 1.325 . S
O677 Li616 1.970 . S
O677 Li617 1.956 . S
O677 Li619 1.961 . S
O677 C626 1.325 . S
O678 Li616 1.961 . S
O678 Li618 1.956 . S
O678 Li619 1.970 . S
O678 C648 1.325 . S
O679 Li617 1.961 . S
O679 Li618 1.970 . S
O679 Li619 1.956 . S
O679 C654 1.325 . S
H680 C622 0.929 . S
H681 C623 0.930 . S
H682 C624 0.930 . S
H683 C625 0.930 . S
H684 C627 0.930 . S
H685 C629 0.929 . S
H686 C630 0.930 . S
H687 C631 0.930 . S
H688 C634 0.930 . S
H689 C637 0.929 . S
H690 C642 0.929 . S
H691 C643 0.930 . S
H692 C650 0.929 . S
H693 C651 0.930 . S
H694 C652 0.930 . S
H695 C653 0.930 . S
H696 C655 0.929 . S
H697 C656 0.930 . S
H698 C657 0.930 . S
H699 C658 0.930 . S
H700 C662 0.929 . S
H701 C664 0.930 . S
H702 C670 0.929 . S
H703 C671 0.930 . S
Li704 N721 1.990 . S
Li704 O764 1.956 . S
Li704 O765 1.970 . S
Li704 O766 1.961 . S
Li705 N729 1.990 . S
Li705 O764 1.970 . S
Li705 O765 1.956 . S
Li705 O767 1.961 . S
Li706 N751 1.990 . S
Li706 O764 1.961 . S
Li706 O766 1.956 . S
Li706 O767 1.970 . S
Li707 N757 1.990 . S
Li707 O765 1.961 . S
Li707 O766 1.970 . S
Li707 O767 1.956 . S
C708 C710 1.348 . S
C708 C711 1.356 . S
C708 O764 1.325 . S
N709 C712 1.314 . S
N709 C713 1.279 . S
C710 C708 1.348 . S
C710 C712 1.353 . S
C710 H768 0.929 . S
C711 C708 1.356 . S
C711 C713 1.358 . S
C711 H769 0.930 . S
C712 N709 1.314 . S
C712 C710 1.353 . S
C712 H770 0.930 . S
C713 N709 1.279 . S
C713 C711 1.358 . S
C713 H771 0.930 . S
C714 C717 1.348 . S
C714 C718 1.356 . S
C714 O765 1.325 . S
C715 N716 1.279 . S
C715 C718 1.358 . S
C715 H772 0.930 . S
N716 C715 1.279 . S
N716 C719 1.314 . S
C717 C714 1.348 . S
C717 C719 1.353 . S
C717 H773 0.929 . S
C718 C714 1.356 . S
C718 C715 1.358 . S
C718 H774 0.930 . S
C719 N716 1.314 . S
C719 C717 1.353 . S
C719 H775 0.930 . S
C720 N721 1.314 . S
C720 C725 1.353 . S
C720 H726 0.930 . S
N721 Li704 1.990 . S
N721 C720 1.314 . S
N721 C723 1.279 . S
C722 C723 1.358 . S
C722 C724 1.356 . S
C722 H776 0.930 . S
C723 N721 1.279 . S
C723 C722 1.358 . S
C723 H727 0.930 . S
C724 C722 1.356 . S
C724 C725 1.348 . S
C725 C720 1.353 . S
C725 C724 1.348 . S
C725 H777 0.929 . S
H726 C720 0.930 . S
H727 C723 0.930 . S
C728 N729 1.314 . S
C728 C730 1.353 . S
C728 H734 0.930 . S
N729 Li705 1.990 . S
N729 C728 1.314 . S
N729 C732 1.279 . S
C730 C728 1.353 . S
C730 C733 1.348 . S
C730 H778 0.929 . S
C731 C732 1.358 . S
C731 C733 1.356 . S
C731 H779 0.930 . S
C732 N729 1.279 . S
C732 C731 1.358 . S
C732 H735 0.930 . S
C733 C730 1.348 . S
C733 C731 1.356 . S
H734 C728 0.930 . S
H735 C732 0.930 . S
C736 C738 1.348 . S
C736 C739 1.356 . S
C736 O766 1.325 . S
N737 C740 1.314 . S
N737 C741 1.279 . S
C738 C736 1.348 . S
C738 C740 1.353 . S
C738 H780 0.929 . S
C739 C736 1.356 . S
C739 C741 1.358 . S
C739 H781 0.930 . S
C740 N737 1.314 . S
C740 C738 1.353 . S
C740 H782 0.930 . S
C741 N737 1.279 . S
C741 C739 1.358 . S
C741 H783 0.930 . S
C742 C743 1.348 . S
C742 C744 1.356 . S
C742 O767 1.325 . S
C743 C742 1.348 . S
C743 C745 1.353 . S
C743 H784 0.929 . S
C744 C742 1.356 . S
C744 C746 1.358 . S
C744 H785 0.930 . S
C745 C743 1.353 . S
C745 N747 1.314 . S
C745 H786 0.930 . S
C746 C744 1.358 . S
C746 N747 1.279 . S
C746 H787 0.930 . S
N747 C745 1.314 . S
N747 C746 1.279 . S
C748 C750 1.353 . S
C748 N751 1.314 . S
C748 H754 0.930 . S
C749 N751 1.279 . S
C749 C752 1.358 . S
C749 H755 0.930 . S
C750 C748 1.353 . S
C750 C753 1.348 . S
C750 H788 0.929 . S
N751 Li706 1.990 . S
N751 C748 1.314 . S
N751 C749 1.279 . S
C752 C749 1.358 . S
C752 C753 1.356 . S
C752 H789 0.930 . S
C753 C750 1.348 . S
C753 C752 1.356 . S
H754 C748 0.930 . S
H755 C749 0.930 . S
C756 N757 1.314 . S
C756 C758 1.353 . S
C756 H762 0.930 . S
N757 Li707 1.990 . S
N757 C756 1.314 . S
N757 C760 1.279 . S
C758 C756 1.353 . S
C758 C761 1.348 . S
C758 H790 0.929 . S
C759 C760 1.358 . S
C759 C761 1.356 . S
C759 H791 0.930 . S
C760 N757 1.279 . S
C760 C759 1.358 . S
C760 H763 0.930 . S
C761 C758 1.348 . S
C761 C759 1.356 . S
H762 C756 0.930 . S
H763 C760 0.930 . S
O764 Li704 1.956 . S
O764 Li705 1.970 . S
O764 Li706 1.961 . S
O764 C708 1.325 . S
O765 Li704 1.970 . S
O765 Li705 1.956 . S
O765 Li707 1.961 . S
O765 C714 1.325 . S
O766 Li704 1.961 . S
O766 Li706 1.956 . S
O766 Li707 1.970 . S
O766 C736 1.325 . S
O767 Li705 1.961 . S
O767 Li706 1.970 . S
O767 Li707 1.956 . S
O767 C742 1.325 . S
H768 C710 0.929 . S
H769 C711 0.930 . S
H770 C712 0.930 . S
H771 C713 0.930 . S
H772 C715 0.930 . S
H773 C717 0.929 . S
H774 C718 0.930 . S
H775 C719 0.930 . S
H776 C722 0.930 . S
H777 C725 0.929 . S
H778 C730 0.929 . S
H779 C731 0.930 . S
H780 C738 0.929 . S
H781 C739 0.930 . S
H782 C740 0.930 . S
H783 C741 0.930 . S
H784 C743 0.929 . S
H785 C744 0.930 . S
H786 C745 0.930 . S
H787 C746 0.930 . S
H788 C750 0.929 . S
H789 C752 0.930 . S
H790 C758 0.929 . S
H791 C759 0.930 . S
Li792 N809 1.990 . S
Li792 O852 1.956 . S
Li792 O853 1.970 . S
Li792 O854 1.961 . S
Li793 N817 1.990 . S
Li793 O852 1.970 . S
Li793 O853 1.956 . S
Li793 O855 1.961 . S
Li794 N839 1.990 . S
Li794 O852 1.961 . S
Li794 O854 1.956 . S
Li794 O855 1.970 . S
Li795 N845 1.990 . S
Li795 O853 1.961 . S
Li795 O854 1.970 . S
Li795 O855 1.956 . S
C796 C798 1.348 . S
C796 C799 1.356 . S
C796 O852 1.325 . S
N797 C800 1.314 . S
N797 C801 1.279 . S
C798 C796 1.348 . S
C798 C800 1.353 . S
C798 H856 0.929 . S
C799 C796 1.356 . S
C799 C801 1.358 . S
C799 H857 0.930 . S
C800 N797 1.314 . S
C800 C798 1.353 . S
C800 H858 0.930 . S
C801 N797 1.279 . S
C801 C799 1.358 . S
C801 H859 0.930 . S
C802 C805 1.348 . S
C802 C806 1.356 . S
C802 O853 1.325 . S
C803 N804 1.279 . S
C803 C806 1.358 . S
C803 H860 0.930 . S
N804 C803 1.279 . S
N804 C807 1.314 . S
C805 C802 1.348 . S
C805 C807 1.353 . S
C805 H861 0.929 . S
C806 C802 1.356 . S
C806 C803 1.358 . S
C806 H862 0.930 . S
C807 N804 1.314 . S
C807 C805 1.353 . S
C807 H863 0.930 . S
C808 N809 1.314 . S
C808 C813 1.353 . S
C808 H814 0.930 . S
N809 Li792 1.990 . S
N809 C808 1.314 . S
N809 C811 1.279 . S
C810 C811 1.358 . S
C810 C812 1.356 . S
C810 H864 0.930 . S
C811 N809 1.279 . S
C811 C810 1.358 . S
C811 H815 0.930 . S
C812 C810 1.356 . S
C812 C813 1.348 . S
C813 C808 1.353 . S
C813 C812 1.348 . S
C813 H865 0.929 . S
H814 C808 0.930 . S
H815 C811 0.930 . S
C816 N817 1.314 . S
C816 C818 1.353 . S
C816 H822 0.930 . S
N817 Li793 1.990 . S
N817 C816 1.314 . S
N817 C820 1.279 . S
C818 C816 1.353 . S
C818 C821 1.348 . S
C818 H866 0.929 . S
C819 C820 1.358 . S
C819 C821 1.356 . S
C819 H867 0.930 . S
C820 N817 1.279 . S
C820 C819 1.358 . S
C820 H823 0.930 . S
C821 C818 1.348 . S
C821 C819 1.356 . S
H822 C816 0.930 . S
H823 C820 0.930 . S
C824 C826 1.348 . S
C824 C827 1.356 . S
C824 O854 1.325 . S
N825 C828 1.314 1_556 S
N825 C829 1.279 1_556 S
C826 C824 1.348 . S
C826 C828 1.353 . S
C826 H868 0.929 . S
C827 C824 1.356 . S
C827 C829 1.358 . S
C827 H869 0.930 . S
C828 N825 1.314 1_554 S
C828 C826 1.353 . S
C828 H870 0.930 . S
C829 N825 1.279 1_554 S
C829 C827 1.358 . S
C829 H871 0.930 1_554 S
C830 C831 1.348 . S
C830 C832 1.356 . S
C830 O855 1.325 . S
C831 C830 1.348 . S
C831 C833 1.353 . S
C831 H872 0.929 . S
C832 C830 1.356 . S
C832 C834 1.358 . S
C832 H873 0.930 . S
C833 C831 1.353 . S
C833 N835 1.314 . S
C833 H874 0.930 . S
C834 C832 1.358 . S
C834 N835 1.279 . S
C834 H875 0.930 . S
N835 C833 1.314 . S
N835 C834 1.279 . S
C836 C838 1.353 1_554 S
C836 N839 1.314 . S
C836 H842 0.930 . S
C837 N839 1.279 1_556 S
C837 C840 1.358 . S
C837 H843 0.930 . S
C838 C836 1.353 1_556 S
C838 C841 1.348 . S
C838 H876 0.929 . S
N839 Li794 1.990 . S
N839 C836 1.314 . S
N839 C837 1.279 1_554 S
C840 C837 1.358 . S
C840 C841 1.356 . S
C840 H877 0.930 . S
C841 C838 1.348 . S
C841 C840 1.356 . S
H842 C836 0.930 . S
H843 C837 0.930 . S
C844 N845 1.314 . S
C844 C846 1.353 . S
C844 H850 0.930 . S
N845 Li795 1.990 . S
N845 C844 1.314 . S
N845 C848 1.279 . S
C846 C844 1.353 . S
C846 C849 1.348 . S
C846 H878 0.929 . S
C847 C848 1.358 . S
C847 C849 1.356 . S
C847 H879 0.930 . S
C848 N845 1.279 . S
C848 C847 1.358 . S
C848 H851 0.930 . S
C849 C846 1.348 . S
C849 C847 1.356 . S
H850 C844 0.930 . S
H851 C848 0.930 . S
O852 Li792 1.956 . S
O852 Li793 1.970 . S
O852 Li794 1.961 . S
O852 C796 1.325 . S
O853 Li792 1.970 . S
O853 Li793 1.956 . S
O853 Li795 1.961 . S
O853 C802 1.325 . S
O854 Li792 1.961 . S
O854 Li794 1.956 . S
O854 Li795 1.970 . S
O854 C824 1.325 . S
O855 Li793 1.961 . S
O855 Li794 1.970 . S
O855 Li795 1.956 . S
O855 C830 1.325 . S
H856 C798 0.929 . S
H857 C799 0.930 . S
H858 C800 0.930 . S
H859 C801 0.930 . S
H860 C803 0.930 . S
H861 C805 0.929 . S
H862 C806 0.930 . S
H863 C807 0.930 . S
H864 C810 0.930 . S
H865 C813 0.929 . S
H866 C818 0.929 . S
H867 C819 0.930 . S
H868 C826 0.929 . S
H869 C827 0.930 . S
H870 C828 0.930 . S
H871 C829 0.930 1_556 S
H872 C831 0.929 . S
H873 C832 0.930 . S
H874 C833 0.930 . S
H875 C834 0.930 . S
H876 C838 0.929 . S
H877 C840 0.930 . S
H878 C846 0.929 . S
H879 C847 0.930 . S
Li880 N897 1.990 . S
Li880 O940 1.956 . S
Li880 O941 1.970 . S
Li880 O942 1.961 . S
Li881 N905 1.990 . S
Li881 O940 1.970 . S
Li881 O941 1.956 . S
Li881 O943 1.961 1_554 S
Li882 N927 1.990 . S
Li882 O940 1.961 . S
Li882 O942 1.956 . S
Li882 O943 1.970 1_554 S
Li883 N933 1.990 . S
Li883 O941 1.961 1_556 S
Li883 O942 1.970 1_556 S
Li883 O943 1.956 . S
C884 C886 1.348 . S
C884 C887 1.356 . S
C884 O940 1.325 . S
N885 C888 1.314 . S
N885 C889 1.279 . S
C886 C884 1.348 . S
C886 C888 1.353 . S
C886 H944 0.929 . S
C887 C884 1.356 . S
C887 C889 1.358 . S
C887 H945 0.930 . S
C888 N885 1.314 . S
C888 C886 1.353 . S
C888 H946 0.930 . S
C889 N885 1.279 . S
C889 C887 1.358 . S
C889 H947 0.930 . S
C890 C893 1.348 . S
C890 C894 1.356 1_554 S
C890 O941 1.325 . S
C891 N892 1.279 . S
C891 C894 1.358 1_554 S
C891 H948 0.930 1_554 S
N892 C891 1.279 . S
N892 C895 1.314 . S
C893 C890 1.348 . S
C893 C895 1.353 . S
C893 H949 0.929 . S
C894 C890 1.356 1_556 S
C894 C891 1.358 1_556 S
C894 H950 0.930 . S
C895 N892 1.314 . S
C895 C893 1.353 . S
C895 H951 0.930 . S
C896 N897 1.314 . S
C896 C901 1.353 . S
C896 H902 0.930 . S
N897 Li880 1.990 . S
N897 C896 1.314 . S
N897 C899 1.279 . S
C898 C899 1.358 . S
C898 C900 1.356 . S
C898 H952 0.930 . S
C899 N897 1.279 . S
C899 C898 1.358 . S
C899 H903 0.930 . S
C900 C898 1.356 . S
C900 C901 1.348 . S
C901 C896 1.353 . S
C901 C900 1.348 . S
C901 H953 0.929 . S
H902 C896 0.930 . S
H903 C899 0.930 . S
C904 N905 1.314 1_556 S
C904 C906 1.353 . S
C904 H910 0.930 . S
N905 Li881 1.990 . S
N905 C904 1.314 1_554 S
N905 C908 1.279 . S
C906 C904 1.353 . S
C906 C909 1.348 1_556 S
C906 H954 0.929 . S
C907 C908 1.358 . S
C907 C909 1.356 . S
C907 H955 0.930 . S
C908 N905 1.279 . S
C908 C907 1.358 . S
C908 H911 0.930 . S
C909 C906 1.348 1_554 S
C909 C907 1.356 . S
H910 C904 0.930 . S
H911 C908 0.930 . S
C912 C914 1.355 . S
C912 C915 1.356 . S
C912 O942 1.325 . S
N913 C916 1.314 . S
N913 C917 1.279 . S
C914 C912 1.355 . S
C914 C916 1.355 . S
C914 H956 0.921 1_554 S
C915 C912 1.356 . S
C915 C917 1.358 . S
C915 H957 0.930 . S
C916 N913 1.314 . S
C916 C914 1.355 . S
C916 H958 0.930 1_554 S
C917 N913 1.279 . S
C917 C915 1.358 . S
C917 H959 0.930 . S
C918 C919 1.348 . S
C918 C920 1.356 . S
C918 O943 1.325 . S
C919 C918 1.348 . S
C919 C921 1.353 . S
C919 H960 0.929 . S
C920 C918 1.356 . S
C920 C922 1.358 . S
C920 H961 0.930 . S
C921 C919 1.353 . S
C921 N923 1.314 . S
C921 H962 0.930 . S
C922 C920 1.358 . S
C922 N923 1.279 . S
C922 H963 0.930 . S
N923 C921 1.314 . S
N923 C922 1.279 . S
C924 C926 1.353 . S
C924 N927 1.314 . S
C924 H930 0.930 . S
C925 N927 1.279 . S
C925 C928 1.358 . S
C925 H931 0.930 . S
C926 C924 1.353 . S
C926 C929 1.348 . S
C926 H964 0.929 . S
N927 Li882 1.990 . S
N927 C924 1.314 . S
N927 C925 1.279 . S
C928 C925 1.358 . S
C928 C929 1.356 . S
C928 H965 0.930 1_554 S
C929 C926 1.348 . S
C929 C928 1.356 . S
H930 C924 0.930 . S
H931 C925 0.930 . S
C932 N933 1.314 . S
C932 C934 1.353 . S
C932 H938 0.930 . S
N933 Li883 1.990 . S
N933 C932 1.314 . S
N933 C936 1.279 . S
C934 C932 1.353 . S
C934 C937 1.348 . S
C934 H966 0.929 . S
C935 C936 1.358 . S
C935 C937 1.356 . S
C935 H967 0.930 . S
C936 N933 1.279 . S
C936 C935 1.358 . S
C936 H939 0.930 . S
C937 C934 1.348 . S
C937 C935 1.356 . S
H938 C932 0.930 . S
H939 C936 0.930 . S
O940 Li880 1.956 . S
O940 Li881 1.970 . S
O940 Li882 1.961 . S
O940 C884 1.325 . S
O941 Li880 1.970 . S
O941 Li881 1.956 . S
O941 Li883 1.961 1_554 S
O941 C890 1.325 . S
O942 Li880 1.961 . S
O942 Li882 1.956 . S
O942 Li883 1.970 1_554 S
O942 C912 1.325 . S
O943 Li881 1.961 1_556 S
O943 Li882 1.970 1_556 S
O943 Li883 1.956 . S
O943 C918 1.325 . S
H944 C886 0.929 . S
H945 C887 0.930 . S
H946 C888 0.930 . S
H947 C889 0.930 . S
H948 C891 0.930 1_556 S
H949 C893 0.929 . S
H950 C894 0.930 . S
H951 C895 0.930 . S
H952 C898 0.930 . S
H953 C901 0.929 . S
H954 C906 0.929 . S
H955 C907 0.930 . S
H956 C914 0.921 1_556 S
H957 C915 0.930 . S
H958 C916 0.930 1_556 S
H959 C917 0.930 . S
H960 C919 0.929 . S
H961 C920 0.930 . S
H962 C921 0.930 . S
H963 C922 0.930 . S
H964 C926 0.929 . S
H965 C928 0.930 1_556 S
H966 C934 0.929 . S
H967 C935 0.930 . S
Li968 N985 1.990 . S
Li968 O1028 1.956 . S
Li968 O1029 1.970 . S
Li968 O1030 1.961 . S
Li969 N993 1.990 . S
Li969 O1028 1.970 . S
Li969 O1029 1.956 . S
Li969 O1031 1.961 . S
Li970 N1015 1.990 . S
Li970 O1028 1.961 . S
Li970 O1030 1.956 . S
Li970 O1031 1.970 . S
Li971 N1021 1.990 . S
Li971 O1029 1.961 . S
Li971 O1030 1.970 . S
Li971 O1031 1.956 . S
C972 C974 1.348 . S
C972 C975 1.356 . S
C972 O1028 1.325 . S
N973 C976 1.314 . S
N973 C977 1.279 . S
C974 C972 1.348 . S
C974 C976 1.353 . S
C974 H1032 0.929 . S
C975 C972 1.356 . S
C975 C977 1.358 . S
C975 H1033 0.930 . S
C976 N973 1.314 . S
C976 C974 1.353 . S
C976 H1034 0.930 . S
C977 N973 1.279 . S
C977 C975 1.358 . S
C977 H1035 0.930 . S
C978 C981 1.348 . S
C978 C982 1.356 . S
C978 O1029 1.325 . S
C979 N980 1.279 . S
C979 C982 1.358 . S
C979 H1036 0.930 . S
N980 C979 1.279 . S
N980 C983 1.314 . S
C981 C978 1.348 . S
C981 C983 1.353 . S
C981 H1037 0.929 . S
C982 C978 1.356 . S
C982 C979 1.358 . S
C982 H1038 0.930 . S
C983 N980 1.314 . S
C983 C981 1.353 . S
C983 H1039 0.930 . S
C984 N985 1.314 . S
C984 C989 1.353 . S
C984 H990 0.930 . S
N985 Li968 1.990 . S
N985 C984 1.314 . S
N985 C987 1.279 . S
C986 C987 1.358 . S
C986 C988 1.356 . S
C986 H1040 0.930 . S
C987 N985 1.279 . S
C987 C986 1.358 . S
C987 H991 0.930 . S
C988 C986 1.356 . S
C988 C989 1.348 . S
C989 C984 1.353 . S
C989 C988 1.348 . S
C989 H1041 0.929 . S
H990 C984 0.930 . S
H991 C987 0.930 . S
C992 N993 1.314 . S
C992 C994 1.353 . S
C992 H998 0.930 . S
N993 Li969 1.990 . S
N993 C992 1.314 . S
N993 C996 1.279 . S
C994 C992 1.353 . S
C994 C997 1.348 . S
C994 H1042 0.929 . S
C995 C996 1.358 . S
C995 C997 1.356 . S
C995 H1043 0.930 . S
C996 N993 1.279 . S
C996 C995 1.358 . S
C996 H999 0.930 . S
C997 C994 1.348 . S
C997 C995 1.356 . S
H998 C992 0.930 . S
H999 C996 0.930 . S
C1000 C1002 1.348 . S
C1000 C1003 1.356 . S
C1000 O1030 1.325 . S
N1001 C1004 1.314 . S
N1001 C1005 1.279 . S
C1002 C1000 1.348 . S
C1002 C1004 1.353 . S
C1002 H1044 0.929 . S
C1003 C1000 1.356 . S
C1003 C1005 1.358 . S
C1003 H1045 0.930 . S
C1004 N1001 1.314 . S
C1004 C1002 1.353 . S
C1004 H1046 0.930 . S
C1005 N1001 1.279 . S
C1005 C1003 1.358 . S
C1005 H1047 0.930 . S
C1006 C1007 1.348 . S
C1006 C1008 1.356 . S
C1006 O1031 1.325 . S
C1007 C1006 1.348 . S
C1007 C1009 1.353 . S
C1007 H1048 0.929 . S
C1008 C1006 1.356 . S
C1008 C1010 1.358 . S
C1008 H1049 0.930 . S
C1009 C1007 1.353 . S
C1009 N1011 1.314 . S
C1009 H1050 0.930 . S
C1010 C1008 1.358 . S
C1010 N1011 1.279 . S
C1010 H1051 0.930 . S
N1011 C1009 1.314 . S
N1011 C1010 1.279 . S
C1012 C1014 1.353 . S
C1012 N1015 1.314 . S
C1012 H1018 0.930 . S
C1013 N1015 1.279 . S
C1013 C1016 1.358 . S
C1013 H1019 0.930 . S
C1014 C1012 1.353 . S
C1014 C1017 1.348 . S
C1014 H1052 0.929 . S
N1015 Li970 1.990 . S
N1015 C1012 1.314 . S
N1015 C1013 1.279 . S
C1016 C1013 1.358 . S
C1016 C1017 1.356 . S
C1016 H1053 0.930 . S
C1017 C1014 1.348 . S
C1017 C1016 1.356 . S
H1018 C1012 0.930 . S
H1019 C1013 0.930 . S
C1020 N1021 1.314 . S
C1020 C1022 1.353 . S
C1020 H1026 0.930 . S
N1021 Li971 1.990 . S
N1021 C1020 1.314 . S
N1021 C1024 1.279 . S
C1022 C1020 1.353 . S
C1022 C1025 1.348 . S
C1022 H1054 0.929 . S
C1023 C1024 1.358 . S
C1023 C1025 1.356 . S
C1023 H1055 0.930 . S
C1024 N1021 1.279 . S
C1024 C1023 1.358 . S
C1024 H1027 0.930 . S
C1025 C1022 1.348 . S
C1025 C1023 1.356 . S
H1026 C1020 0.930 . S
H1027 C1024 0.930 . S
O1028 Li968 1.956 . S
O1028 Li969 1.970 . S
O1028 Li970 1.961 . S
O1028 C972 1.325 . S
O1029 Li968 1.970 . S
O1029 Li969 1.956 . S
O1029 Li971 1.961 . S
O1029 C978 1.325 . S
O1030 Li968 1.961 . S
O1030 Li970 1.956 . S
O1030 Li971 1.970 . S
O1030 C1000 1.325 . S
O1031 Li969 1.961 . S
O1031 Li970 1.970 . S
O1031 Li971 1.956 . S
O1031 C1006 1.325 . S
H1032 C974 0.929 . S
H1033 C975 0.930 . S
H1034 C976 0.930 . S
H1035 C977 0.930 . S
H1036 C979 0.930 . S
H1037 C981 0.929 . S
H1038 C982 0.930 . S
H1039 C983 0.930 . S
H1040 C986 0.930 . S
H1041 C989 0.929 . S
H1042 C994 0.929 . S
H1043 C995 0.930 . S
H1044 C1002 0.929 . S
H1045 C1003 0.930 . S
H1046 C1004 0.930 . S
H1047 C1005 0.930 . S
H1048 C1007 0.929 . S
H1049 C1008 0.930 . S
H1050 C1009 0.930 . S
H1051 C1010 0.930 . S
H1052 C1014 0.929 . S
H1053 C1016 0.930 . S
H1054 C1022 0.929 . S
H1055 C1023 0.930 . S
Li1056 N1073 1.990 . S
Li1056 O1116 1.956 . S
Li1056 O1117 1.970 . S
Li1056 O1118 1.961 . S
Li1057 N1081 1.990 . S
Li1057 O1116 1.970 . S
Li1057 O1117 1.956 . S
Li1057 O1119 1.961 . S
Li1058 N1103 1.990 . S
Li1058 O1116 1.961 . S
Li1058 O1118 1.956 . S
Li1058 O1119 1.970 . S
Li1059 N1109 1.990 . S
Li1059 O1117 1.961 . S
Li1059 O1118 1.970 . S
Li1059 O1119 1.956 . S
C1060 C1062 1.348 . S
C1060 C1063 1.356 . S
C1060 O1116 1.325 . S
N1061 C1064 1.314 . S
N1061 C1065 1.279 . S
C1062 C1060 1.348 . S
C1062 C1064 1.353 . S
C1062 H1120 0.929 . S
C1063 C1060 1.356 . S
C1063 C1065 1.358 . S
C1063 H1121 0.930 . S
C1064 N1061 1.314 . S
C1064 C1062 1.353 . S
C1064 H1122 0.930 . S
C1065 N1061 1.279 . S
C1065 C1063 1.358 . S
C1065 H1123 0.930 . S
C1066 C1069 1.348 . S
C1066 C1070 1.356 . S
C1066 O1117 1.325 . S
C1067 N1068 1.279 . S
C1067 C1070 1.358 . S
C1067 H1124 0.930 . S
N1068 C1067 1.279 . S
N1068 C1071 1.314 . S
C1069 C1066 1.348 . S
C1069 C1071 1.353 . S
C1069 H1125 0.929 . S
C1070 C1066 1.356 . S
C1070 C1067 1.358 . S
C1070 H1126 0.930 . S
C1071 N1068 1.314 . S
C1071 C1069 1.353 . S
C1071 H1127 0.930 . S
C1072 N1073 1.314 . S
C1072 C1077 1.353 . S
C1072 H1078 0.930 . S
N1073 Li1056 1.990 . S
N1073 C1072 1.314 . S
N1073 C1075 1.279 . S
C1074 C1075 1.358 . S
C1074 C1076 1.356 . S
C1074 H1128 0.930 . S
C1075 N1073 1.279 . S
C1075 C1074 1.358 . S
C1075 H1079 0.930 . S
C1076 C1074 1.356 . S
C1076 C1077 1.348 . S
C1077 C1072 1.353 . S
C1077 C1076 1.348 . S
C1077 H1129 0.929 . S
H1078 C1072 0.930 . S
H1079 C1075 0.930 . S
C1080 N1081 1.314 . S
C1080 C1082 1.353 . S
C1080 H1086 0.930 . S
N1081 Li1057 1.990 . S
N1081 C1080 1.314 . S
N1081 C1084 1.279 . S
C1082 C1080 1.353 . S
C1082 C1085 1.348 . S
C1082 H1130 0.929 . S
C1083 C1084 1.358 . S
C1083 C1085 1.356 . S
C1083 H1131 0.930 . S
C1084 N1081 1.279 . S
C1084 C1083 1.358 . S
C1084 H1087 0.930 . S
C1085 C1082 1.348 . S
C1085 C1083 1.356 . S
H1086 C1080 0.930 . S
H1087 C1084 0.930 . S
C1088 C1090 1.348 . S
C1088 C1091 1.356 . S
C1088 O1118 1.325 . S
N1089 C1092 1.314 . S
N1089 C1093 1.279 . S
C1090 C1088 1.348 . S
C1090 C1092 1.353 . S
C1090 H1132 0.929 . S
C1091 C1088 1.356 . S
C1091 C1093 1.358 . S
C1091 H1133 0.930 . S
C1092 N1089 1.314 . S
C1092 C1090 1.353 . S
C1092 H1134 0.930 . S
C1093 N1089 1.279 . S
C1093 C1091 1.358 . S
C1093 H1135 0.930 . S
C1094 C1095 1.348 . S
C1094 C1096 1.356 . S
C1094 O1119 1.325 . S
C1095 C1094 1.348 . S
C1095 C1097 1.353 . S
C1095 H1136 0.929 . S
C1096 C1094 1.356 . S
C1096 C1098 1.358 . S
C1096 H1137 0.930 . S
C1097 C1095 1.353 . S
C1097 N1099 1.314 . S
C1097 H1138 0.930 . S
C1098 C1096 1.358 . S
C1098 N1099 1.279 . S
C1098 H1139 0.930 . S
N1099 C1097 1.314 . S
N1099 C1098 1.279 . S
C1100 C1102 1.353 . S
C1100 N1103 1.314 . S
C1100 H1106 0.930 . S
C1101 N1103 1.279 . S
C1101 C1104 1.358 . S
C1101 H1107 0.930 . S
C1102 C1100 1.353 . S
C1102 C1105 1.348 . S
C1102 H1140 0.929 . S
N1103 Li1058 1.990 . S
N1103 C1100 1.314 . S
N1103 C1101 1.279 . S
C1104 C1101 1.358 . S
C1104 C1105 1.356 . S
C1104 H1141 0.930 . S
C1105 C1102 1.348 . S
C1105 C1104 1.356 . S
H1106 C1100 0.930 . S
H1107 C1101 0.930 . S
C1108 N1109 1.314 . S
C1108 C1110 1.353 . S
C1108 H1114 0.930 . S
N1109 Li1059 1.990 . S
N1109 C1108 1.314 . S
N1109 C1112 1.279 . S
C1110 C1108 1.353 . S
C1110 C1113 1.348 . S
C1110 H1142 0.929 . S
C1111 C1112 1.358 . S
C1111 C1113 1.356 . S
C1111 H1143 0.930 . S
C1112 N1109 1.279 . S
C1112 C1111 1.358 . S
C1112 H1115 0.930 . S
C1113 C1110 1.348 . S
C1113 C1111 1.356 . S
H1114 C1108 0.930 . S
H1115 C1112 0.930 . S
O1116 Li1056 1.956 . S
O1116 Li1057 1.970 . S
O1116 Li1058 1.961 . S
O1116 C1060 1.325 . S
O1117 Li1056 1.970 . S
O1117 Li1057 1.956 . S
O1117 Li1059 1.961 . S
O1117 C1066 1.325 . S
O1118 Li1056 1.961 . S
O1118 Li1058 1.956 . S
O1118 Li1059 1.970 . S
O1118 C1088 1.325 . S
O1119 Li1057 1.961 . S
O1119 Li1058 1.970 . S
O1119 Li1059 1.956 . S
O1119 C1094 1.325 . S
H1120 C1062 0.929 . S
H1121 C1063 0.930 . S
H1122 C1064 0.930 . S
H1123 C1065 0.930 . S
H1124 C1067 0.930 . S
H1125 C1069 0.929 . S
H1126 C1070 0.930 . S
H1127 C1071 0.930 . S
H1128 C1074 0.930 . S
H1129 C1077 0.929 . S
H1130 C1082 0.929 . S
H1131 C1083 0.930 . S
H1132 C1090 0.929 . S
H1133 C1091 0.930 . S
H1134 C1092 0.930 . S
H1135 C1093 0.930 . S
H1136 C1095 0.929 . S
H1137 C1096 0.930 . S
H1138 C1097 0.930 . S
H1139 C1098 0.930 . S
H1140 C1102 0.929 . S
H1141 C1104 0.930 . S
H1142 C1110 0.929 . S
H1143 C1111 0.930 . S
Li1144 N1161 1.994 . S
Li1144 O1204 1.998 . S
Li1144 O1205 1.926 1_455 S
Li1144 O1206 1.958 1_455 S
Li1145 N1169 1.993 . S
Li1145 O1204 1.939 1_655 S
Li1145 O1205 1.986 . S
Li1145 O1207 1.958 1_655 S
Li1146 N1191 1.990 . S
Li1146 O1204 1.961 . S
Li1146 O1206 1.931 1_455 S
Li1146 O1207 2.005 . S
Li1147 N1197 1.990 . S
Li1147 O1205 1.961 . S
Li1147 O1206 1.994 . S
Li1147 O1207 1.919 1_655 S
C1148 C1150 1.348 . S
C1148 C1151 1.356 . S
C1148 O1204 1.325 . S
N1149 C1152 1.314 . S
N1149 C1153 1.279 . S
C1150 C1148 1.348 . S
C1150 C1152 1.353 . S
C1150 H1208 0.929 . S
C1151 C1148 1.356 . S
C1151 C1153 1.358 . S
C1151 H1209 0.930 . S
C1152 N1149 1.314 . S
C1152 C1150 1.353 . S
C1152 H1210 0.930 . S
C1153 N1149 1.279 . S
C1153 C1151 1.358 . S
C1153 H1211 0.930 . S
C1154 C1157 1.348 . S
C1154 C1158 1.356 . S
C1154 O1205 1.325 . S
C1155 N1156 1.279 . S
C1155 C1158 1.358 . S
C1155 H1212 0.930 . S
N1156 C1155 1.279 . S
N1156 C1159 1.314 . S
C1157 C1154 1.348 . S
C1157 C1159 1.353 . S
C1157 H1213 0.929 . S
C1158 C1154 1.356 . S
C1158 C1155 1.358 . S
C1158 H1214 0.930 . S
C1159 N1156 1.314 . S
C1159 C1157 1.353 . S
C1159 H1215 0.930 . S
C1160 N1161 1.314 1_655 S
C1160 C1165 1.353 . S
C1160 H1166 0.930 . S
N1161 Li1144 1.994 . S
N1161 C1160 1.314 1_455 S
N1161 C1163 1.279 . S
C1162 C1163 1.358 . S
C1162 C1164 1.356 . S
C1162 H1216 0.930 . S
C1163 N1161 1.279 . S
C1163 C1162 1.358 . S
C1163 H1167 0.930 . S
C1164 C1162 1.356 . S
C1164 C1165 1.348 1_455 S
C1165 C1160 1.353 . S
C1165 C1164 1.348 1_655 S
C1165 H1217 0.929 . S
H1166 C1160 0.930 . S
H1167 C1163 0.930 . S
C1168 N1169 1.314 1_455 S
C1168 C1170 1.353 . S
C1168 H1174 0.930 . S
N1169 Li1145 1.993 . S
N1169 C1168 1.314 1_655 S
N1169 C1172 1.279 . S
C1170 C1168 1.353 . S
C1170 C1173 1.348 . S
C1170 H1218 0.929 . S
C1171 C1172 1.358 . S
C1171 C1173 1.356 1_655 S
C1171 H1219 0.930 . S
C1172 N1169 1.279 . S
C1172 C1171 1.358 . S
C1172 H1175 0.930 . S
C1173 C1170 1.348 . S
C1173 C1171 1.356 1_455 S
H1174 C1168 0.930 . S
H1175 C1172 0.930 . S
C1176 C1178 1.348 1_455 S
C1176 C1179 1.356 . S
C1176 O1206 1.324 1_455 S
N1177 C1180 1.314 1_455 S
N1177 C1181 1.279 . S
C1178 C1176 1.348 1_655 S
C1178 C1180 1.353 . S
C1178 H1220 0.929 . S
C1179 C1176 1.356 . S
C1179 C1181 1.358 . S
C1179 H1221 0.930 . S
C1180 N1177 1.314 1_655 S
C1180 C1178 1.353 . S
C1180 H1222 0.930 . S
C1181 N1177 1.279 . S
C1181 C1179 1.358 . S
C1181 H1223 0.930 . S
C1182 C1183 1.348 . S
C1182 C1184 1.356 1_455 S
C1182 O1207 1.324 . S
C1183 C1182 1.348 . S
C1183 C1185 1.353 . S
C1183 H1224 0.929 . S
C1184 C1182 1.356 1_655 S
C1184 C1186 1.358 . S
C1184 H1225 0.930 . S
C1185 C1183 1.353 . S
C1185 N1187 1.314 1_455 S
C1185 H1226 0.930 . S
C1186 C1184 1.358 . S
C1186 N1187 1.279 . S
C1186 H1227 0.930 . S
N1187 C1185 1.314 1_655 S
N1187 C1186 1.279 . S
C1188 C1190 1.353 . S
C1188 N1191 1.314 . S
C1188 H1194 0.930 . S
C1189 N1191 1.279 . S
C1189 C1192 1.358 . S
C1189 H1195 0.930 . S
C1190 C1188 1.353 . S
C1190 C1193 1.348 . S
C1190 H1228 0.929 . S
N1191 Li1146 1.990 . S
N1191 C1188 1.314 . S
N1191 C1189 1.279 . S
C1192 C1189 1.358 . S
C1192 C1193 1.356 . S
C1192 H1229 0.930 . S
C1193 C1190 1.348 . S
C1193 C1192 1.356 . S
H1194 C1188 0.930 . S
H1195 C1189 0.930 . S
C1196 N1197 1.314 . S
C1196 C1198 1.353 . S
C1196 H1202 0.930 . S
N1197 Li1147 1.990 . S
N1197 C1196 1.314 . S
N1197 C1200 1.279 . S
C1198 C1196 1.353 . S
C1198 C1201 1.348 . S
C1198 H1230 0.929 . S
C1199 C1200 1.358 . S
C1199 C1201 1.356 . S
C1199 H1231 0.930 . S
C1200 N1197 1.279 . S
C1200 C1199 1.358 . S
C1200 H1203 0.930 . S
C1201 C1198 1.348 . S
C1201 C1199 1.356 . S
H1202 C1196 0.930 . S
H1203 C1200 0.930 . S
O1204 Li1144 1.998 . S
O1204 Li1145 1.939 1_455 S
O1204 Li1146 1.961 . S
O1204 C1148 1.325 . S
O1205 Li1144 1.926 1_655 S
O1205 Li1145 1.986 . S
O1205 Li1147 1.961 . S
O1205 C1154 1.325 . S
O1206 Li1144 1.958 1_655 S
O1206 Li1146 1.931 1_655 S
O1206 Li1147 1.994 . S
O1206 C1176 1.324 1_655 S
O1207 Li1145 1.958 1_455 S
O1207 Li1146 2.005 . S
O1207 Li1147 1.919 1_455 S
O1207 C1182 1.324 . S
H1208 C1150 0.929 . S
H1209 C1151 0.930 . S
H1210 C1152 0.930 . S
H1211 C1153 0.930 . S
H1212 C1155 0.930 . S
H1213 C1157 0.929 . S
H1214 C1158 0.930 . S
H1215 C1159 0.930 . S
H1216 C1162 0.930 . S
H1217 C1165 0.929 . S
H1218 C1170 0.929 . S
H1219 C1171 0.930 . S
H1220 C1178 0.929 . S
H1221 C1179 0.930 . S
H1222 C1180 0.930 . S
H1223 C1181 0.930 . S
H1224 C1183 0.929 . S
H1225 C1184 0.930 . S
H1226 C1185 0.930 . S
H1227 C1186 0.930 . S
H1228 C1190 0.929 . S
H1229 C1192 0.930 . S
H1230 C1198 0.929 . S
H1231 C1199 0.930 . S
Li1232 N1249 1.990 . S
Li1232 O1292 1.956 . S
Li1232 O1293 1.970 . S
Li1232 O1294 1.961 . S
Li1233 N1257 1.990 . S
Li1233 O1292 1.970 . S
Li1233 O1293 1.956 . S
Li1233 O1295 1.961 . S
Li1234 N1279 1.990 . S
Li1234 O1292 1.961 . S
Li1234 O1294 1.956 . S
Li1234 O1295 1.970 . S
Li1235 N1285 1.990 . S
Li1235 O1293 1.961 . S
Li1235 O1294 1.970 . S
Li1235 O1295 1.956 . S
C1236 C1238 1.348 . S
C1236 C1239 1.356 . S
C1236 O1292 1.325 . S
N1237 C1240 1.314 . S
N1237 C1241 1.279 . S
C1238 C1236 1.348 . S
C1238 C1240 1.353 . S
C1238 H1296 0.929 . S
C1239 C1236 1.356 . S
C1239 C1241 1.358 . S
C1239 H1297 0.930 . S
C1240 N1237 1.314 . S
C1240 C1238 1.353 . S
C1240 H1298 0.930 . S
C1241 N1237 1.279 . S
C1241 C1239 1.358 . S
C1241 H1299 0.930 . S
C1242 C1245 1.348 . S
C1242 C1246 1.356 . S
C1242 O1293 1.325 . S
C1243 N1244 1.279 . S
C1243 C1246 1.358 . S
C1243 H1300 0.930 . S
N1244 C1243 1.279 . S
N1244 C1247 1.314 . S
C1245 C1242 1.348 . S
C1245 C1247 1.353 . S
C1245 H1301 0.929 . S
C1246 C1242 1.356 . S
C1246 C1243 1.358 . S
C1246 H1302 0.930 . S
C1247 N1244 1.314 . S
C1247 C1245 1.353 . S
C1247 H1303 0.930 . S
C1248 N1249 1.314 . S
C1248 C1253 1.353 . S
C1248 H1254 0.930 . S
N1249 Li1232 1.990 . S
N1249 C1248 1.314 . S
N1249 C1251 1.279 . S
C1250 C1251 1.358 . S
C1250 C1252 1.356 . S
C1250 H1304 0.930 . S
C1251 N1249 1.279 . S
C1251 C1250 1.358 . S
C1251 H1255 0.930 . S
C1252 C1250 1.356 . S
C1252 C1253 1.348 . S
C1253 C1248 1.353 . S
C1253 C1252 1.348 . S
C1253 H1305 0.929 . S
H1254 C1248 0.930 . S
H1255 C1251 0.930 . S
C1256 N1257 1.314 . S
C1256 C1258 1.353 . S
C1256 H1262 0.930 . S
N1257 Li1233 1.990 . S
N1257 C1256 1.314 . S
N1257 C1260 1.279 . S
C1258 C1256 1.353 . S
C1258 C1261 1.348 . S
C1258 H1306 0.929 . S
C1259 C1260 1.358 . S
C1259 C1261 1.356 . S
C1259 H1307 0.930 . S
C1260 N1257 1.279 . S
C1260 C1259 1.358 . S
C1260 H1263 0.930 . S
C1261 C1258 1.348 . S
C1261 C1259 1.356 . S
H1262 C1256 0.930 . S
H1263 C1260 0.930 . S
C1264 C1266 1.348 . S
C1264 C1267 1.356 . S
C1264 O1294 1.325 . S
N1265 C1268 1.314 . S
N1265 C1269 1.279 . S
C1266 C1264 1.348 . S
C1266 C1268 1.353 . S
C1266 H1308 0.929 . S
C1267 C1264 1.356 . S
C1267 C1269 1.358 . S
C1267 H1309 0.930 . S
C1268 N1265 1.314 . S
C1268 C1266 1.353 . S
C1268 H1310 0.930 . S
C1269 N1265 1.279 . S
C1269 C1267 1.358 . S
C1269 H1311 0.930 . S
C1270 C1271 1.348 . S
C1270 C1272 1.356 . S
C1270 O1295 1.325 . S
C1271 C1270 1.348 . S
C1271 C1273 1.353 . S
C1271 H1312 0.929 . S
C1272 C1270 1.356 . S
C1272 C1274 1.358 . S
C1272 H1313 0.930 . S
C1273 C1271 1.353 . S
C1273 N1275 1.314 . S
C1273 H1314 0.930 . S
C1274 C1272 1.358 . S
C1274 N1275 1.279 . S
C1274 H1315 0.930 . S
N1275 C1273 1.314 . S
N1275 C1274 1.279 . S
C1276 C1278 1.353 . S
C1276 N1279 1.314 . S
C1276 H1282 0.930 . S
C1277 N1279 1.279 . S
C1277 C1280 1.358 . S
C1277 H1283 0.930 . S
C1278 C1276 1.353 . S
C1278 C1281 1.348 . S
C1278 H1316 0.929 . S
N1279 Li1234 1.990 . S
N1279 C1276 1.314 . S
N1279 C1277 1.279 . S
C1280 C1277 1.358 . S
C1280 C1281 1.356 . S
C1280 H1317 0.930 . S
C1281 C1278 1.348 . S
C1281 C1280 1.356 . S
H1282 C1276 0.930 . S
H1283 C1277 0.930 . S
C1284 N1285 1.314 . S
C1284 C1286 1.353 . S
C1284 H1290 0.930 . S
N1285 Li1235 1.990 . S
N1285 C1284 1.314 . S
N1285 C1288 1.279 . S
C1286 C1284 1.353 . S
C1286 C1289 1.348 . S
C1286 H1318 0.929 . S
C1287 C1288 1.358 . S
C1287 C1289 1.356 . S
C1287 H1319 0.930 . S
C1288 N1285 1.279 . S
C1288 C1287 1.358 . S
C1288 H1291 0.930 . S
C1289 C1286 1.348 . S
C1289 C1287 1.356 . S
H1290 C1284 0.930 . S
H1291 C1288 0.930 . S
O1292 Li1232 1.956 . S
O1292 Li1233 1.970 . S
O1292 Li1234 1.961 . S
O1292 C1236 1.325 . S
O1293 Li1232 1.970 . S
O1293 Li1233 1.956 . S
O1293 Li1235 1.961 . S
O1293 C1242 1.325 . S
O1294 Li1232 1.961 . S
O1294 Li1234 1.956 . S
O1294 Li1235 1.970 . S
O1294 C1264 1.325 . S
O1295 Li1233 1.961 . S
O1295 Li1234 1.970 . S
O1295 Li1235 1.956 . S
O1295 C1270 1.325 . S
H1296 C1238 0.929 . S
H1297 C1239 0.930 . S
H1298 C1240 0.930 . S
H1299 C1241 0.930 . S
H1300 C1243 0.930 . S
H1301 C1245 0.929 . S
H1302 C1246 0.930 . S
H1303 C1247 0.930 . S
H1304 C1250 0.930 . S
H1305 C1253 0.929 . S
H1306 C1258 0.929 . S
H1307 C1259 0.930 . S
H1308 C1266 0.929 . S
H1309 C1267 0.930 . S
H1310 C1268 0.930 . S
H1311 C1269 0.930 . S
H1312 C1271 0.929 . S
H1313 C1272 0.930 . S
H1314 C1273 0.930 . S
H1315 C1274 0.930 . S
H1316 C1278 0.929 . S
H1317 C1280 0.930 . S
H1318 C1286 0.929 . S
H1319 C1287 0.930 . S
Li1320 N1337 1.990 . S
Li1320 O1380 1.931 1_455 S
Li1320 O1381 2.005 . S
Li1320 O1382 1.961 . S
Li1321 N1345 1.990 . S
Li1321 O1380 1.994 . S
Li1321 O1381 1.919 1_655 S
Li1321 O1383 1.961 . S
Li1322 N1367 1.994 . S
Li1322 O1380 1.958 1_455 S
Li1322 O1382 1.998 . S
Li1322 O1383 1.926 1_455 S
Li1323 N1373 1.993 . S
Li1323 O1381 1.958 1_655 S
Li1323 O1382 1.939 1_655 S
Li1323 O1383 1.986 . S
C1324 C1326 1.348 1_455 S
C1324 C1327 1.356 . S
C1324 O1380 1.324 1_455 S
N1325 C1328 1.314 1_455 S
N1325 C1329 1.279 . S
C1326 C1324 1.348 1_655 S
C1326 C1328 1.353 1_556 S
C1326 H1384 0.929 . S
C1327 C1324 1.356 . S
C1327 C1329 1.358 1_556 S
C1327 H1385 0.930 . S
C1328 N1325 1.314 1_655 S
C1328 C1326 1.353 1_554 S
C1328 H1386 0.930 . S
C1329 N1325 1.279 . S
C1329 C1327 1.358 1_554 S
C1329 H1387 0.930 . S
C1330 C1333 1.348 . S
C1330 C1334 1.356 1_455 S
C1330 O1381 1.324 . S
C1331 N1332 1.279 . S
C1331 C1334 1.358 . S
C1331 H1388 0.930 . S
N1332 C1331 1.279 . S
N1332 C1335 1.314 1_655 S
C1333 C1330 1.348 . S
C1333 C1335 1.353 . S
C1333 H1389 0.929 . S
C1334 C1330 1.356 1_655 S
C1334 C1331 1.358 . S
C1334 H1390 0.930 . S
C1335 N1332 1.314 1_455 S
C1335 C1333 1.353 . S
C1335 H1391 0.930 . S
C1336 N1337 1.314 . S
C1336 C1341 1.353 . S
C1336 H1342 0.930 . S
N1337 Li1320 1.990 . S
N1337 C1336 1.314 . S
N1337 C1339 1.279 . S
C1338 C1339 1.358 . S
C1338 C1340 1.356 . S
C1338 H1392 0.930 . S
C1339 N1337 1.279 . S
C1339 C1338 1.358 . S
C1339 H1343 0.930 . S
C1340 C1338 1.356 . S
C1340 C1341 1.348 . S
C1341 C1336 1.353 . S
C1341 C1340 1.348 . S
C1341 H1393 0.929 . S
H1342 C1336 0.930 . S
H1343 C1339 0.930 . S
C1344 N1345 1.314 . S
C1344 C1346 1.353 . S
C1344 H1350 0.930 . S
N1345 Li1321 1.990 . S
N1345 C1344 1.314 . S
N1345 C1348 1.279 . S
C1346 C1344 1.353 . S
C1346 C1349 1.348 . S
C1346 H1394 0.929 . S
C1347 C1348 1.358 . S
C1347 C1349 1.356 . S
C1347 H1395 0.930 . S
C1348 N1345 1.279 . S
C1348 C1347 1.358 . S
C1348 H1351 0.930 . S
C1349 C1346 1.348 . S
C1349 C1347 1.356 . S
H1350 C1344 0.930 . S
H1351 C1348 0.930 . S
C1352 C1354 1.348 . S
C1352 C1355 1.356 . S
C1352 O1382 1.325 . S
N1353 C1356 1.314 . S
N1353 C1357 1.279 . S
C1354 C1352 1.348 . S
C1354 C1356 1.353 . S
C1354 H1396 0.929 . S
C1355 C1352 1.356 . S
C1355 C1357 1.358 . S
C1355 H1397 0.930 . S
C1356 N1353 1.314 . S
C1356 C1354 1.353 . S
C1356 H1398 0.930 . S
C1357 N1353 1.279 . S
C1357 C1355 1.358 . S
C1357 H1399 0.930 . S
C1358 C1359 1.348 . S
C1358 C1360 1.356 . S
C1358 O1383 1.325 . S
C1359 C1358 1.348 . S
C1359 C1361 1.353 . S
C1359 H1400 0.929 . S
C1360 C1358 1.356 . S
C1360 C1362 1.358 . S
C1360 H1401 0.930 . S
C1361 C1359 1.353 . S
C1361 N1363 1.314 . S
C1361 H1402 0.930 . S
C1362 C1360 1.358 . S
C1362 N1363 1.279 . S
C1362 H1403 0.930 . S
N1363 C1361 1.314 . S
N1363 C1362 1.279 . S
C1364 C1366 1.353 1_556 S
C1364 N1367 1.314 1_655 S
C1364 H1370 0.930 . S
C1365 N1367 1.279 . S
C1365 C1368 1.358 . S
C1365 H1371 0.930 . S
C1366 C1364 1.353 1_554 S
C1366 C1369 1.348 1_655 S
C1366 H1404 0.929 . S
N1367 Li1322 1.994 . S
N1367 C1364 1.314 1_455 S
N1367 C1365 1.279 . S
C1368 C1365 1.358 . S
C1368 C1369 1.356 1_556 S
C1368 H1405 0.930 . S
C1369 C1366 1.348 1_455 S
C1369 C1368 1.356 1_554 S
H1370 C1364 0.930 . S
H1371 C1365 0.930 . S
C1372 N1373 1.314 1_455 S
C1372 C1374 1.353 . S
C1372 H1378 0.930 . S
N1373 Li1323 1.993 . S
N1373 C1372 1.314 1_655 S
N1373 C1376 1.279 . S
C1374 C1372 1.353 . S
C1374 C1377 1.348 . S
C1374 H1406 0.929 . S
C1375 C1376 1.358 . S
C1375 C1377 1.356 1_655 S
C1375 H1407 0.930 . S
C1376 N1373 1.279 . S
C1376 C1375 1.358 . S
C1376 H1379 0.930 . S
C1377 C1374 1.348 . S
C1377 C1375 1.356 1_455 S
H1378 C1372 0.930 . S
H1379 C1376 0.930 . S
O1380 Li1320 1.931 1_655 S
O1380 Li1321 1.994 . S
O1380 Li1322 1.958 1_655 S
O1380 C1324 1.324 1_655 S
O1381 Li1320 2.005 . S
O1381 Li1321 1.919 1_455 S
O1381 Li1323 1.958 1_455 S
O1381 C1330 1.324 . S
O1382 Li1320 1.961 . S
O1382 Li1322 1.998 . S
O1382 Li1323 1.939 1_455 S
O1382 C1352 1.325 . S
O1383 Li1321 1.961 . S
O1383 Li1322 1.926 1_655 S
O1383 Li1323 1.986 . S
O1383 C1358 1.325 . S
H1384 C1326 0.929 . S
H1385 C1327 0.930 . S
H1386 C1328 0.930 . S
H1387 C1329 0.930 . S
H1388 C1331 0.930 . S
H1389 C1333 0.929 . S
H1390 C1334 0.930 . S
H1391 C1335 0.930 . S
H1392 C1338 0.930 . S
H1393 C1341 0.929 . S
H1394 C1346 0.929 . S
H1395 C1347 0.930 . S
H1396 C1354 0.929 . S
H1397 C1355 0.930 . S
H1398 C1356 0.930 . S
H1399 C1357 0.930 . S
H1400 C1359 0.929 . S
H1401 C1360 0.930 . S
H1402 C1361 0.930 . S
H1403 C1362 0.930 . S
H1404 C1366 0.929 . S
H1405 C1368 0.930 . S
H1406 C1374 0.929 . S
H1407 C1375 0.930 . S
H1408 C1420 0.930 . S
H1409 C1422 0.930 . S
H1410 C1423 0.930 . S
H1411 C1427 0.959 . S
H1412 C1427 0.959 . S
H1413 C1427 0.961 . S
H1414 C1428 0.960 . S
H1415 C1428 0.961 . S
H1416 C1428 0.959 . S
H1417 C1431 0.929 . S
H1418 C1432 0.931 . S
H1419 C1434 0.930 . S
C1420 H1408 0.930 . S
C1420 C1421 1.399 . S
C1420 C1425 1.399 . S
C1421 C1420 1.399 . S
C1421 C1422 1.376 . S
C1422 H1409 0.930 . S
C1422 C1421 1.376 . S
C1422 C1423 1.388 . S
C1423 H1410 0.930 . S
C1423 C1422 1.388 . S
C1423 C1424 1.390 . S
C1424 C1423 1.390 . S
C1424 C1425 1.394 . S
C1424 C1430 1.465 . S
C1425 C1420 1.399 . S
C1425 C1424 1.394 . S
C1425 C1426 1.516 . S
C1426 C1425 1.516 . S
C1426 C1427 1.502 . S
C1426 C1428 1.561 . S
C1426 C1429 1.526 . S
C1427 H1411 0.959 . S
C1427 H1412 0.959 . S
C1427 H1413 0.961 . S
C1427 C1426 1.502 . S
C1428 H1414 0.960 . S
C1428 H1415 0.961 . S
C1428 H1416 0.959 . S
C1428 C1426 1.561 . S
C1429 C1426 1.526 . S
C1429 C1430 1.396 . S
C1429 C1434 1.390 . S
C1430 C1424 1.465 . S
C1430 C1429 1.396 . S
C1430 C1431 1.399 . S
C1431 H1417 0.929 . S
C1431 C1430 1.399 . S
C1431 C1432 1.385 . S
C1432 H1418 0.931 . S
C1432 C1431 1.385 . S
C1432 C1433 1.389 . S
C1433 C1432 1.389 . S
C1433 C1434 1.387 . S
C1434 H1419 0.930 . S
C1434 C1429 1.390 . S
C1434 C1433 1.387 . S
H1435 C1447 0.930 . S
H1436 C1449 0.930 . S
H1437 C1450 0.930 . S
H1438 C1454 0.959 . S
H1439 C1454 0.959 . S
H1440 C1454 0.961 . S
H1441 C1455 0.960 . S
H1442 C1455 0.961 . S
H1443 C1455 0.959 . S
H1444 C1458 0.929 . S
H1445 C1459 0.931 . S
H1446 C1461 0.930 . S
C1447 H1435 0.930 . S
C1447 C1448 1.399 . S
C1447 C1452 1.399 . S
C1448 C1447 1.399 . S
C1448 C1449 1.376 . S
C1449 H1436 0.930 . S
C1449 C1448 1.376 . S
C1449 C1450 1.388 . S
C1450 H1437 0.930 . S
C1450 C1449 1.388 . S
C1450 C1451 1.390 . S
C1451 C1450 1.390 . S
C1451 C1452 1.394 . S
C1451 C1457 1.465 . S
C1452 C1447 1.399 . S
C1452 C1451 1.394 . S
C1452 C1453 1.516 . S
C1453 C1452 1.516 . S
C1453 C1454 1.502 . S
C1453 C1455 1.561 . S
C1453 C1456 1.526 . S
C1454 H1438 0.959 . S
C1454 H1439 0.959 . S
C1454 H1440 0.961 . S
C1454 C1453 1.502 . S
C1455 H1441 0.960 . S
C1455 H1442 0.961 . S
C1455 H1443 0.959 . S
C1455 C1453 1.561 . S
C1456 C1453 1.526 . S
C1456 C1457 1.396 . S
C1456 C1461 1.390 . S
C1457 C1451 1.465 . S
C1457 C1456 1.396 . S
C1457 C1458 1.399 . S
C1458 H1444 0.929 . S
C1458 C1457 1.399 . S
C1458 C1459 1.385 . S
C1459 H1445 0.931 . S
C1459 C1458 1.385 . S
C1459 C1460 1.389 . S
C1460 C1459 1.389 . S
C1460 C1461 1.387 . S
C1461 H1446 0.930 . S
C1461 C1456 1.390 . S
C1461 C1460 1.387 . S
H1462 C1474 0.930 . S
H1463 C1476 0.930 . S
H1464 C1477 0.930 . S
H1465 C1481 0.959 . S
H1466 C1481 0.959 . S
H1467 C1481 0.961 . S
H1468 C1482 0.960 . S
H1469 C1482 0.961 . S
H1470 C1482 0.959 . S
H1471 C1485 0.929 . S
H1472 C1486 0.931 . S
H1473 C1488 0.930 . S
C1474 H1462 0.930 . S
C1474 C1475 1.399 . S
C1474 C1479 1.399 . S
C1475 C1474 1.399 . S
C1475 C1476 1.376 . S
C1476 H1463 0.930 . S
C1476 C1475 1.376 . S
C1476 C1477 1.388 . S
C1477 H1464 0.930 . S
C1477 C1476 1.388 . S
C1477 C1478 1.390 . S
C1478 C1477 1.390 . S
C1478 C1479 1.394 . S
C1478 C1484 1.465 . S
C1479 C1474 1.399 . S
C1479 C1478 1.394 . S
C1479 C1480 1.516 . S
C1480 C1479 1.516 . S
C1480 C1481 1.502 . S
C1480 C1482 1.561 . S
C1480 C1483 1.526 . S
C1481 H1465 0.959 . S
C1481 H1466 0.959 . S
C1481 H1467 0.961 . S
C1481 C1480 1.502 . S
C1482 H1468 0.960 . S
C1482 H1469 0.961 . S
C1482 H1470 0.959 . S
C1482 C1480 1.561 . S
C1483 C1480 1.526 . S
C1483 C1484 1.396 . S
C1483 C1488 1.390 . S
C1484 C1478 1.465 . S
C1484 C1483 1.396 . S
C1484 C1485 1.399 . S
C1485 H1471 0.929 . S
C1485 C1484 1.399 . S
C1485 C1486 1.385 . S
C1486 H1472 0.931 . S
C1486 C1485 1.385 . S
C1486 C1487 1.389 . S
C1487 C1486 1.389 . S
C1487 C1488 1.387 . S
C1488 H1473 0.930 . S
C1488 C1483 1.390 . S
C1488 C1487 1.387 . S
H1489 C1501 0.930 . S
H1490 C1503 0.930 . S
H1491 C1504 0.930 . S
H1492 C1508 0.959 1_556 S
H1493 C1508 0.959 . S
H1494 C1508 0.961 . S
H1495 C1509 0.960 . S
H1496 C1509 0.961 . S
H1497 C1509 0.959 . S
H1498 C1512 0.929 . S
H1499 C1513 0.931 . S
H1500 C1515 0.930 . S
C1501 H1489 0.930 . S
C1501 C1502 1.399 1_554 S
C1501 C1506 1.399 1_554 S
C1502 C1501 1.399 1_556 S
C1502 C1503 1.376 . S
C1503 H1490 0.930 . S
C1503 C1502 1.376 . S
C1503 C1504 1.388 . S
C1504 H1491 0.930 . S
C1504 C1503 1.388 . S
C1504 C1505 1.390 . S
C1505 C1504 1.390 . S
C1505 C1506 1.394 . S
C1505 C1511 1.465 . S
C1506 C1501 1.399 1_556 S
C1506 C1505 1.394 . S
C1506 C1507 1.516 . S
C1507 C1506 1.516 . S
C1507 C1508 1.502 1_556 S
C1507 C1509 1.561 1_556 S
C1507 C1510 1.526 . S
C1508 H1492 0.959 1_554 S
C1508 H1493 0.959 . S
C1508 H1494 0.961 . S
C1508 C1507 1.502 1_554 S
C1509 H1495 0.960 . S
C1509 H1496 0.961 . S
C1509 H1497 0.959 . S
C1509 C1507 1.561 1_554 S
C1510 C1507 1.526 . S
C1510 C1511 1.396 . S
C1510 C1515 1.390 . S
C1511 C1505 1.465 . S
C1511 C1510 1.396 . S
C1511 C1512 1.399 . S
C1512 H1498 0.929 . S
C1512 C1511 1.399 . S
C1512 C1513 1.385 . S
C1513 H1499 0.931 . S
C1513 C1512 1.385 . S
C1513 C1514 1.389 . S
C1514 C1513 1.389 . S
C1514 C1515 1.387 . S
C1515 H1500 0.930 . S
C1515 C1510 1.390 . S
C1515 C1514 1.387 . S
H1516 C1528 0.930 . S
H1517 C1530 0.930 . S
H1518 C1531 0.930 . S
H1519 C1535 0.959 . S
H1520 C1535 0.959 . S
H1521 C1535 0.961 . S
H1522 C1536 0.960 . S
H1523 C1536 0.961 . S
H1524 C1536 0.959 . S
H1525 C1539 0.929 . S
H1526 C1540 0.931 . S
H1527 C1542 0.930 . S
C1528 H1516 0.930 . S
C1528 C1529 1.399 . S
C1528 C1533 1.399 . S
C1529 C1528 1.399 . S
C1529 C1530 1.376 . S
C1530 H1517 0.930 . S
C1530 C1529 1.376 . S
C1530 C1531 1.388 . S
C1531 H1518 0.930 . S
C1531 C1530 1.388 . S
C1531 C1532 1.390 . S
C1532 C1531 1.390 . S
C1532 C1533 1.394 . S
C1532 C1538 1.465 . S
C1533 C1528 1.399 . S
C1533 C1532 1.394 . S
C1533 C1534 1.516 . S
C1534 C1533 1.516 . S
C1534 C1535 1.502 . S
C1534 C1536 1.561 . S
C1534 C1537 1.526 . S
C1535 H1519 0.959 . S
C1535 H1520 0.959 . S
C1535 H1521 0.961 . S
C1535 C1534 1.502 . S
C1536 H1522 0.960 . S
C1536 H1523 0.961 . S
C1536 H1524 0.959 . S
C1536 C1534 1.561 . S
C1537 C1534 1.526 . S
C1537 C1538 1.396 . S
C1537 C1542 1.390 . S
C1538 C1532 1.465 . S
C1538 C1537 1.396 . S
C1538 C1539 1.399 1_556 S
C1539 H1525 0.929 . S
C1539 C1538 1.399 1_554 S
C1539 C1540 1.385 . S
C1540 H1526 0.931 . S
C1540 C1539 1.385 . S
C1540 C1541 1.389 1_554 S
C1541 C1540 1.389 1_556 S
C1541 C1542 1.387 . S
C1542 H1527 0.930 . S
C1542 C1537 1.390 . S
C1542 C1541 1.387 . S
H1543 C1555 0.930 . S
H1544 C1557 0.930 . S
H1545 C1558 0.930 . S
H1546 C1562 0.959 . S
H1547 C1562 0.959 . S
H1548 C1562 0.961 . S
H1549 C1563 0.960 . S
H1550 C1563 0.961 . S
H1551 C1563 0.959 . S
H1552 C1566 0.929 . S
H1553 C1567 0.931 . S
H1554 C1569 0.930 . S
C1555 H1543 0.930 . S
C1555 C1556 1.399 . S
C1555 C1560 1.399 . S
C1556 C1555 1.399 . S
C1556 C1557 1.376 . S
C1557 H1544 0.930 . S
C1557 C1556 1.376 . S
C1557 C1558 1.388 . S
C1558 H1545 0.930 . S
C1558 C1557 1.388 . S
C1558 C1559 1.390 . S
C1559 C1558 1.390 . S
C1559 C1560 1.394 . S
C1559 C1565 1.465 . S
C1560 C1555 1.399 . S
C1560 C1559 1.394 . S
C1560 C1561 1.516 . S
C1561 C1560 1.516 . S
C1561 C1562 1.502 . S
C1561 C1563 1.561 . S
C1561 C1564 1.526 . S
C1562 H1546 0.959 . S
C1562 H1547 0.959 . S
C1562 H1548 0.961 . S
C1562 C1561 1.502 . S
C1563 H1549 0.960 . S
C1563 H1550 0.961 . S
C1563 H1551 0.959 . S
C1563 C1561 1.561 . S
C1564 C1561 1.526 . S
C1564 C1565 1.396 . S
C1564 C1569 1.390 . S
C1565 C1559 1.465 . S
C1565 C1564 1.396 . S
C1565 C1566 1.399 . S
C1566 H1552 0.929 . S
C1566 C1565 1.399 . S
C1566 C1567 1.385 . S
C1567 H1553 0.931 . S
C1567 C1566 1.385 . S
C1567 C1568 1.389 . S
C1568 C1567 1.389 . S
C1568 C1569 1.387 . S
C1569 H1554 0.930 . S
C1569 C1564 1.390 . S
C1569 C1568 1.387 . S
H1570 C1582 0.930 . S
H1571 C1584 0.930 . S
H1572 C1585 0.930 . S
H1573 C1589 0.959 . S
H1574 C1589 0.959 . S
H1575 C1589 0.961 . S
H1576 C1590 0.960 . S
H1577 C1590 0.961 . S
H1578 C1590 0.959 . S
H1579 C1593 0.929 . S
H1580 C1594 0.931 . S
H1581 C1596 0.930 . S
C1582 H1570 0.930 . S
C1582 C1583 1.399 . S
C1582 C1587 1.399 . S
C1583 C1582 1.399 . S
C1583 C1584 1.376 . S
C1584 H1571 0.930 . S
C1584 C1583 1.376 . S
C1584 C1585 1.388 . S
C1585 H1572 0.930 . S
C1585 C1584 1.388 . S
C1585 C1586 1.390 . S
C1586 C1585 1.390 . S
C1586 C1587 1.394 . S
C1586 C1592 1.465 . S
C1587 C1582 1.399 . S
C1587 C1586 1.394 . S
C1587 C1588 1.516 . S
C1588 C1587 1.516 . S
C1588 C1589 1.502 . S
C1588 C1590 1.561 . S
C1588 C1591 1.526 . S
C1589 H1573 0.959 . S
C1589 H1574 0.959 . S
C1589 H1575 0.961 . S
C1589 C1588 1.502 . S
C1590 H1576 0.960 . S
C1590 H1577 0.961 . S
C1590 H1578 0.959 . S
C1590 C1588 1.561 . S
C1591 C1588 1.526 . S
C1591 C1592 1.396 . S
C1591 C1596 1.390 . S
C1592 C1586 1.465 . S
C1592 C1591 1.396 . S
C1592 C1593 1.399 . S
C1593 H1579 0.929 . S
C1593 C1592 1.399 . S
C1593 C1594 1.385 . S
C1594 H1580 0.931 . S
C1594 C1593 1.385 . S
C1594 C1595 1.389 . S
C1595 C1594 1.389 . S
C1595 C1596 1.387 . S
C1596 H1581 0.930 . S
C1596 C1591 1.390 . S
C1596 C1595 1.387 . S
H1597 C1609 0.930 . S
H1598 C1611 0.930 . S
H1599 C1612 0.930 . S
H1600 C1616 0.959 . S
H1601 C1616 0.959 . S
H1602 C1616 0.961 . S
H1603 C1617 0.960 . S
H1604 C1617 0.961 . S
H1605 C1617 0.959 . S
H1606 C1620 0.929 . S
H1607 C1621 0.931 . S
H1608 C1623 0.930 . S
C1609 H1597 0.930 . S
C1609 C1610 1.399 . S
C1609 C1614 1.399 . S
C1610 C1609 1.399 . S
C1610 C1611 1.376 . S
C1611 H1598 0.930 . S
C1611 C1610 1.376 . S
C1611 C1612 1.388 . S
C1612 H1599 0.930 . S
C1612 C1611 1.388 . S
C1612 C1613 1.390 . S
C1613 C1612 1.390 . S
C1613 C1614 1.394 . S
C1613 C1619 1.465 . S
C1614 C1609 1.399 . S
C1614 C1613 1.394 . S
C1614 C1615 1.516 . S
C1615 C1614 1.516 . S
C1615 C1616 1.502 . S
C1615 C1617 1.561 . S
C1615 C1618 1.526 . S
C1616 H1600 0.959 . S
C1616 H1601 0.959 . S
C1616 H1602 0.961 . S
C1616 C1615 1.502 . S
C1617 H1603 0.960 . S
C1617 H1604 0.961 . S
C1617 H1605 0.959 . S
C1617 C1615 1.561 . S
C1618 C1615 1.526 . S
C1618 C1619 1.396 . S
C1618 C1623 1.390 . S
C1619 C1613 1.465 . S
C1619 C1618 1.396 . S
C1619 C1620 1.399 . S
C1620 H1606 0.929 . S
C1620 C1619 1.399 . S
C1620 C1621 1.385 . S
C1621 H1607 0.931 . S
C1621 C1620 1.385 . S
C1621 C1622 1.389 . S
C1622 C1621 1.389 . S
C1622 C1623 1.387 . S
C1623 H1608 0.930 . S
C1623 C1618 1.390 . S
C1623 C1622 1.387 . S
H1624 C1636 0.930 . S
H1625 C1638 0.930 . S
H1626 C1639 0.930 . S
H1627 C1643 0.959 1_554 S
H1628 C1643 0.959 . S
H1629 C1643 0.961 . S
H1630 C1644 0.960 . S
H1631 C1644 0.961 . S
H1632 C1644 0.959 . S
H1633 C1647 0.929 . S
H1634 C1648 0.931 . S
H1635 C1650 0.930 . S
C1636 H1624 0.930 . S
C1636 C1637 1.399 . S
C1636 C1641 1.399 . S
C1637 C1636 1.399 . S
C1637 C1638 1.376 . S
C1638 H1625 0.930 . S
C1638 C1637 1.376 . S
C1638 C1639 1.388 . S
C1639 H1626 0.930 . S
C1639 C1638 1.388 . S
C1639 C1640 1.390 . S
C1640 C1639 1.390 . S
C1640 C1641 1.394 . S
C1640 C1646 1.465 . S
C1641 C1636 1.399 . S
C1641 C1640 1.394 . S
C1641 C1642 1.516 . S
C1642 C1641 1.516 . S
C1642 C1643 1.502 . S
C1642 C1644 1.561 . S
C1642 C1645 1.526 . S
C1643 H1627 0.959 1_556 S
C1643 H1628 0.959 . S
C1643 H1629 0.961 . S
C1643 C1642 1.502 . S
C1644 H1630 0.960 . S
C1644 H1631 0.961 . S
C1644 H1632 0.959 . S
C1644 C1642 1.561 . S
C1645 C1642 1.526 . S
C1645 C1646 1.396 . S
C1645 C1650 1.390 . S
C1646 C1640 1.465 . S
C1646 C1645 1.396 . S
C1646 C1647 1.399 . S
C1647 H1633 0.929 . S
C1647 C1646 1.399 . S
C1647 C1648 1.385 . S
C1648 H1634 0.931 . S
C1648 C1647 1.385 . S
C1648 C1649 1.389 . S
C1649 C1648 1.389 . S
C1649 C1650 1.387 . S
C1650 H1635 0.930 . S
C1650 C1645 1.390 . S
C1650 C1649 1.387 . S
H1651 C1663 0.930 . S
H1652 C1665 0.930 . S
H1653 C1666 0.930 . S
H1654 C1670 0.959 . S
H1655 C1670 0.959 . S
H1656 C1670 0.961 . S
H1657 C1671 0.960 . S
H1658 C1671 0.961 . S
H1659 C1671 0.959 . S
H1660 C1674 0.929 . S
H1661 C1675 0.931 . S
H1662 C1677 0.930 . S
C1663 H1651 0.930 . S
C1663 C1664 1.399 . S
C1663 C1668 1.399 . S
C1664 C1663 1.399 . S
C1664 C1665 1.376 . S
C1665 H1652 0.930 . S
C1665 C1664 1.376 . S
C1665 C1666 1.388 . S
C1666 H1653 0.930 . S
C1666 C1665 1.388 . S
C1666 C1667 1.390 . S
C1667 C1666 1.390 . S
C1667 C1668 1.394 . S
C1667 C1673 1.465 . S
C1668 C1663 1.399 . S
C1668 C1667 1.394 . S
C1668 C1669 1.516 . S
C1669 C1668 1.516 . S
C1669 C1670 1.502 . S
C1669 C1671 1.561 . S
C1669 C1672 1.526 . S
C1670 H1654 0.959 . S
C1670 H1655 0.959 . S
C1670 H1656 0.961 . S
C1670 C1669 1.502 . S
C1671 H1657 0.960 . S
C1671 H1658 0.961 . S
C1671 H1659 0.959 . S
C1671 C1669 1.561 . S
C1672 C1669 1.526 . S
C1672 C1673 1.396 . S
C1672 C1677 1.390 . S
C1673 C1667 1.465 . S
C1673 C1672 1.396 . S
C1673 C1674 1.399 . S
C1674 H1660 0.929 . S
C1674 C1673 1.399 . S
C1674 C1675 1.385 . S
C1675 H1661 0.931 . S
C1675 C1674 1.385 . S
C1675 C1676 1.389 . S
C1676 C1675 1.389 . S
C1676 C1677 1.387 . S
C1677 H1662 0.930 . S
C1677 C1672 1.390 . S
C1677 C1676 1.387 . S
H1678 C1690 0.930 . S
H1679 C1692 0.930 . S
H1680 C1693 0.930 . S
H1681 C1697 0.959 . S
H1682 C1697 0.959 . S
H1683 C1697 0.961 . S
H1684 C1698 0.960 . S
H1685 C1698 0.961 . S
H1686 C1698 0.959 . S
H1687 C1701 0.929 . S
H1688 C1702 0.931 . S
H1689 C1704 0.930 . S
C1690 H1678 0.930 . S
C1690 C1691 1.399 . S
C1690 C1695 1.399 . S
C1691 C1690 1.399 . S
C1691 C1692 1.376 . S
C1692 H1679 0.930 . S
C1692 C1691 1.376 . S
C1692 C1693 1.388 . S
C1693 H1680 0.930 . S
C1693 C1692 1.388 . S
C1693 C1694 1.390 . S
C1694 C1693 1.390 . S
C1694 C1695 1.394 . S
C1694 C1700 1.465 . S
C1695 C1690 1.399 . S
C1695 C1694 1.394 . S
C1695 C1696 1.516 . S
C1696 C1695 1.516 . S
C1696 C1697 1.502 . S
C1696 C1698 1.561 . S
C1696 C1699 1.526 . S
C1697 H1681 0.959 . S
C1697 H1682 0.959 . S
C1697 H1683 0.961 . S
C1697 C1696 1.502 . S
C1698 H1684 0.960 . S
C1698 H1685 0.961 . S
C1698 H1686 0.959 . S
C1698 C1696 1.561 . S
C1699 C1696 1.526 . S
C1699 C1700 1.396 . S
C1699 C1704 1.390 . S
C1700 C1694 1.465 . S
C1700 C1699 1.396 . S
C1700 C1701 1.399 . S
C1701 H1687 0.929 . S
C1701 C1700 1.399 . S
C1701 C1702 1.385 . S
C1702 H1688 0.931 . S
C1702 C1701 1.385 . S
C1702 C1703 1.389 . S
C1703 C1702 1.389 . S
C1703 C1704 1.387 . S
C1704 H1689 0.930 . S
C1704 C1699 1.390 . S
C1704 C1703 1.387 . S
H1705 C1717 0.930 . S
H1706 C1719 0.930 . S
H1707 C1720 0.930 . S
H1708 C1724 0.959 . S
H1709 C1724 0.959 . S
H1710 C1724 0.961 . S
H1711 C1725 0.960 . S
H1712 C1725 0.961 . S
H1713 C1725 0.959 . S
H1714 C1728 0.929 . S
H1715 C1729 0.931 . S
H1716 C1731 0.930 . S
C1717 H1705 0.930 . S
C1717 C1718 1.399 . S
C1717 C1722 1.399 . S
C1718 C1717 1.399 . S
C1718 C1719 1.376 . S
C1719 H1706 0.930 . S
C1719 C1718 1.376 . S
C1719 C1720 1.388 . S
C1720 H1707 0.930 . S
C1720 C1719 1.388 . S
C1720 C1721 1.390 . S
C1721 C1720 1.390 . S
C1721 C1722 1.394 . S
C1721 C1727 1.465 . S
C1722 C1717 1.399 . S
C1722 C1721 1.394 . S
C1722 C1723 1.516 . S
C1723 C1722 1.516 . S
C1723 C1724 1.502 . S
C1723 C1725 1.561 . S
C1723 C1726 1.526 . S
C1724 H1708 0.959 . S
C1724 H1709 0.959 . S
C1724 H1710 0.961 . S
C1724 C1723 1.502 . S
C1725 H1711 0.960 . S
C1725 H1712 0.961 . S
C1725 H1713 0.959 . S
C1725 C1723 1.561 . S
C1726 C1723 1.526 . S
C1726 C1727 1.396 . S
C1726 C1731 1.390 . S
C1727 C1721 1.465 . S
C1727 C1726 1.396 . S
C1727 C1728 1.399 . S
C1728 H1714 0.929 . S
C1728 C1727 1.399 . S
C1728 C1729 1.385 . S
C1729 H1715 0.931 . S
C1729 C1728 1.385 . S
C1729 C1730 1.389 . S
C1730 C1729 1.389 . S
C1730 C1731 1.387 . S
C1731 H1716 0.930 . S
C1731 C1726 1.390 . S
C1731 C1730 1.387 . S
H1732 C1744 0.930 . S
H1733 C1746 0.930 . S
H1734 C1747 0.930 . S
H1735 C1751 0.959 . S
H1736 C1751 0.959 . S
H1737 C1751 0.961 . S
H1738 C1752 0.960 . S
H1739 C1752 0.961 . S
H1740 C1752 0.959 . S
H1741 C1755 0.929 . S
H1742 C1756 0.931 . S
H1743 C1758 0.930 . S
C1744 H1732 0.930 . S
C1744 C1745 1.399 . S
C1744 C1749 1.399 . S
C1745 C1744 1.399 . S
C1745 C1746 1.376 . S
C1746 H1733 0.930 . S
C1746 C1745 1.376 . S
C1746 C1747 1.388 . S
C1747 H1734 0.930 . S
C1747 C1746 1.388 . S
C1747 C1748 1.390 . S
C1748 C1747 1.390 . S
C1748 C1749 1.394 . S
C1748 C1754 1.465 . S
C1749 C1744 1.399 . S
C1749 C1748 1.394 . S
C1749 C1750 1.516 . S
C1750 C1749 1.516 . S
C1750 C1751 1.502 . S
C1750 C1752 1.561 . S
C1750 C1753 1.526 . S
C1751 H1735 0.959 . S
C1751 H1736 0.959 . S
C1751 H1737 0.961 . S
C1751 C1750 1.502 . S
C1752 H1738 0.960 . S
C1752 H1739 0.961 . S
C1752 H1740 0.959 . S
C1752 C1750 1.561 . S
C1753 C1750 1.526 . S
C1753 C1754 1.396 . S
C1753 C1758 1.390 . S
C1754 C1748 1.465 . S
C1754 C1753 1.396 . S
C1754 C1755 1.399 . S
C1755 H1741 0.929 . S
C1755 C1754 1.399 . S
C1755 C1756 1.385 . S
C1756 H1742 0.931 . S
C1756 C1755 1.385 . S
C1756 C1757 1.389 . S
C1757 C1756 1.389 . S
C1757 C1758 1.387 . S
C1758 H1743 0.930 . S
C1758 C1753 1.390 . S
C1758 C1757 1.387 . S
H1759 C1771 0.930 . S
H1760 C1773 0.930 . S
H1761 C1774 0.930 . S
H1762 C1778 0.959 . S
H1763 C1778 0.959 . S
H1764 C1778 0.961 . S
H1765 C1779 0.960 . S
H1766 C1779 0.961 . S
H1767 C1779 0.959 . S
H1768 C1782 0.929 . S
H1769 C1783 0.931 . S
H1770 C1785 0.930 . S
C1771 H1759 0.930 . S
C1771 C1772 1.399 . S
C1771 C1776 1.399 . S
C1772 C1771 1.399 . S
C1772 C1773 1.376 . S
C1773 H1760 0.930 . S
C1773 C1772 1.376 . S
C1773 C1774 1.388 . S
C1774 H1761 0.930 . S
C1774 C1773 1.388 . S
C1774 C1775 1.390 . S
C1775 C1774 1.390 . S
C1775 C1776 1.394 . S
C1775 C1781 1.465 . S
C1776 C1771 1.399 . S
C1776 C1775 1.394 . S
C1776 C1777 1.516 . S
C1777 C1776 1.516 . S
C1777 C1778 1.502 . S
C1777 C1779 1.561 . S
C1777 C1780 1.526 . S
C1778 H1762 0.959 . S
C1778 H1763 0.959 . S
C1778 H1764 0.961 . S
C1778 C1777 1.502 . S
C1779 H1765 0.960 . S
C1779 H1766 0.961 . S
C1779 H1767 0.959 . S
C1779 C1777 1.561 . S
C1780 C1777 1.526 . S
C1780 C1781 1.396 . S
C1780 C1785 1.390 . S
C1781 C1775 1.465 . S
C1781 C1780 1.396 . S
C1781 C1782 1.399 1_556 S
C1782 H1768 0.929 . S
C1782 C1781 1.399 1_554 S
C1782 C1783 1.385 . S
C1783 H1769 0.931 . S
C1783 C1782 1.385 . S
C1783 C1784 1.389 1_554 S
C1784 C1783 1.389 1_556 S
C1784 C1785 1.387 . S
C1785 H1770 0.930 . S
C1785 C1780 1.390 . S
C1785 C1784 1.387 . S
H1786 C1798 0.930 . S
H1787 C1800 0.930 . S
H1788 C1801 0.930 . S
H1789 C1805 0.959 . S
H1790 C1805 0.959 . S
H1791 C1805 0.961 . S
H1792 C1806 0.960 . S
H1793 C1806 0.961 . S
H1794 C1806 0.959 . S
H1795 C1809 0.929 . S
H1796 C1810 0.931 . S
H1797 C1812 0.930 . S
C1798 H1786 0.930 . S
C1798 C1799 1.399 . S
C1798 C1803 1.399 . S
C1799 C1798 1.399 . S
C1799 C1800 1.376 . S
C1800 H1787 0.930 . S
C1800 C1799 1.376 . S
C1800 C1801 1.388 . S
C1801 H1788 0.930 . S
C1801 C1800 1.388 . S
C1801 C1802 1.390 . S
C1802 C1801 1.390 . S
C1802 C1803 1.394 . S
C1802 C1808 1.465 . S
C1803 C1798 1.399 . S
C1803 C1802 1.394 . S
C1803 C1804 1.516 . S
C1804 C1803 1.516 . S
C1804 C1805 1.502 . S
C1804 C1806 1.561 . S
C1804 C1807 1.526 . S
C1805 H1789 0.959 . S
C1805 H1790 0.959 . S
C1805 H1791 0.961 . S
C1805 C1804 1.502 . S
C1806 H1792 0.960 . S
C1806 H1793 0.961 . S
C1806 H1794 0.959 . S
C1806 C1804 1.561 . S
C1807 C1804 1.526 . S
C1807 C1808 1.396 . S
C1807 C1812 1.390 . S
C1808 C1802 1.465 . S
C1808 C1807 1.396 . S
C1808 C1809 1.399 . S
C1809 H1795 0.929 . S
C1809 C1808 1.399 . S
C1809 C1810 1.385 . S
C1810 H1796 0.931 . S
C1810 C1809 1.385 . S
C1810 C1811 1.389 . S
C1811 C1810 1.389 . S
C1811 C1812 1.387 . S
C1812 H1797 0.930 . S
C1812 C1807 1.390 . S
C1812 C1811 1.387 . S
H1813 C1825 0.930 . S
H1814 C1827 0.930 . S
H1815 C1828 0.930 . S
H1816 C1832 0.959 . S
H1817 C1832 0.959 . S
H1818 C1832 0.961 . S
H1819 C1833 0.960 . S
H1820 C1833 0.961 . S
H1821 C1833 0.959 . S
H1822 C1836 0.929 . S
H1823 C1837 0.931 . S
H1824 C1839 0.930 . S
C1825 H1813 0.930 . S
C1825 C1826 1.399 . S
C1825 C1830 1.399 . S
C1826 C1825 1.399 . S
C1826 C1827 1.376 . S
C1827 H1814 0.930 . S
C1827 C1826 1.376 . S
C1827 C1828 1.388 . S
C1828 H1815 0.930 . S
C1828 C1827 1.388 . S
C1828 C1829 1.390 . S
C1829 C1828 1.390 . S
C1829 C1830 1.394 . S
C1829 C1835 1.465 . S
C1830 C1825 1.399 . S
C1830 C1829 1.394 . S
C1830 C1831 1.516 . S
C1831 C1830 1.516 . S
C1831 C1832 1.502 . S
C1831 C1833 1.561 . S
C1831 C1834 1.526 . S
C1832 H1816 0.959 . S
C1832 H1817 0.959 . S
C1832 H1818 0.961 . S
C1832 C1831 1.502 . S
C1833 H1819 0.960 . S
C1833 H1820 0.961 . S
C1833 H1821 0.959 . S
C1833 C1831 1.561 . S
C1834 C1831 1.526 . S
C1834 C1835 1.396 . S
C1834 C1839 1.390 . S
C1835 C1829 1.465 . S
C1835 C1834 1.396 . S
C1835 C1836 1.399 . S
C1836 H1822 0.929 . S
C1836 C1835 1.399 . S
C1836 C1837 1.385 . S
C1837 H1823 0.931 . S
C1837 C1836 1.385 . S
C1837 C1838 1.389 . S
C1838 C1837 1.389 . S
C1838 C1839 1.387 . S
C1839 H1824 0.930 . S
C1839 C1834 1.390 . S
C1839 C1838 1.387 . S
H1840 C1852 0.930 . S
H1841 C1854 0.930 . S
H1842 C1855 0.930 . S
H1843 C1859 0.959 . S
H1844 C1859 0.959 . S
H1845 C1859 0.961 . S
H1846 C1860 0.960 . S
H1847 C1860 0.961 1_556 S
H1848 C1860 0.959 . S
H1849 C1863 0.929 . S
H1850 C1864 0.931 . S
H1851 C1866 0.930 . S
C1852 H1840 0.930 . S
C1852 C1853 1.399 1_655 S
C1852 C1857 1.403 . S
C1853 C1852 1.399 1_455 S
C1853 C1854 1.376 . S
C1854 H1841 0.930 . S
C1854 C1853 1.376 . S
C1854 C1855 1.388 . S
C1855 H1842 0.930 . S
C1855 C1854 1.388 . S
C1855 C1856 1.390 . S
C1856 C1855 1.390 . S
C1856 C1857 1.384 1_455 S
C1856 C1862 1.465 . S
C1857 C1852 1.403 . S
C1857 C1856 1.384 1_655 S
C1857 C1858 1.521 . S
C1858 C1857 1.521 . S
C1858 C1859 1.502 . S
C1858 C1860 1.561 1_655 S
C1858 C1861 1.531 . S
C1859 H1843 0.959 . S
C1859 H1844 0.959 . S
C1859 H1845 0.961 . S
C1859 C1858 1.502 . S
C1860 H1846 0.960 . S
C1860 H1847 0.961 1_554 S
C1860 H1848 0.959 . S
C1860 C1858 1.561 1_455 S
C1861 C1858 1.531 . S
C1861 C1862 1.386 1_655 S
C1861 C1866 1.393 1_554 S
C1862 C1856 1.465 . S
C1862 C1861 1.386 1_455 S
C1862 C1863 1.399 . S
C1863 H1849 0.929 . S
C1863 C1862 1.399 . S
C1863 C1864 1.385 . S
C1864 H1850 0.931 . S
C1864 C1863 1.385 . S
C1864 C1865 1.389 1_554 S
C1865 C1864 1.389 1_556 S
C1865 C1866 1.387 1_455 S
C1866 H1851 0.930 . S
C1866 C1861 1.393 1_556 S
C1866 C1865 1.387 1_655 S
H1867 C1879 0.930 . S
H1868 C1881 0.930 . S
H1869 C1882 0.930 . S
H1870 C1886 0.959 . S
H1871 C1886 0.959 . S
H1872 C1886 0.961 . S
H1873 C1887 0.960 . S
H1874 C1887 0.961 . S
H1875 C1887 0.959 . S
H1876 C1890 0.929 . S
H1877 C1891 0.931 . S
H1878 C1893 0.930 . S
C1879 H1867 0.930 . S
C1879 C1880 1.399 . S
C1879 C1884 1.399 . S
C1880 C1879 1.399 . S
C1880 C1881 1.376 . S
C1881 H1868 0.930 . S
C1881 C1880 1.376 . S
C1881 C1882 1.388 . S
C1882 H1869 0.930 . S
C1882 C1881 1.388 . S
C1882 C1883 1.390 . S
C1883 C1882 1.390 . S
C1883 C1884 1.394 . S
C1883 C1889 1.465 . S
C1884 C1879 1.399 . S
C1884 C1883 1.394 . S
C1884 C1885 1.516 . S
C1885 C1884 1.516 . S
C1885 C1886 1.502 . S
C1885 C1887 1.561 . S
C1885 C1888 1.526 . S
C1886 H1870 0.959 . S
C1886 H1871 0.959 . S
C1886 H1872 0.961 . S
C1886 C1885 1.502 . S
C1887 H1873 0.960 . S
C1887 H1874 0.961 . S
C1887 H1875 0.959 . S
C1887 C1885 1.561 . S
C1888 C1885 1.526 . S
C1888 C1889 1.396 . S
C1888 C1893 1.390 . S
C1889 C1883 1.465 . S
C1889 C1888 1.396 . S
C1889 C1890 1.399 . S
C1890 H1876 0.929 . S
C1890 C1889 1.399 . S
C1890 C1891 1.385 . S
C1891 H1877 0.931 . S
C1891 C1890 1.385 . S
C1891 C1892 1.389 . S
C1892 C1891 1.389 . S
C1892 C1893 1.387 . S
C1893 H1878 0.930 . S
C1893 C1888 1.390 . S
C1893 C1892 1.387 . S
H1894 C1906 0.930 . S
H1895 C1908 0.930 . S
H1896 C1909 0.930 . S
H1897 C1913 0.959 . S
H1898 C1913 0.959 . S
H1899 C1913 0.961 . S
H1900 C1914 0.960 . S
H1901 C1914 0.961 . S
H1902 C1914 0.959 . S
H1903 C1917 0.929 . S
H1904 C1918 0.931 . S
H1905 C1920 0.930 . S
C1906 H1894 0.930 . S
C1906 C1907 1.399 . S
C1906 C1911 1.399 . S
C1907 C1906 1.399 . S
C1907 C1908 1.376 . S
C1908 H1895 0.930 . S
C1908 C1907 1.376 . S
C1908 C1909 1.388 . S
C1909 H1896 0.930 . S
C1909 C1908 1.388 . S
C1909 C1910 1.390 . S
C1910 C1909 1.390 . S
C1910 C1911 1.394 . S
C1910 C1916 1.465 . S
C1911 C1906 1.399 . S
C1911 C1910 1.394 . S
C1911 C1912 1.516 . S
C1912 C1911 1.516 . S
C1912 C1913 1.502 . S
C1912 C1914 1.561 . S
C1912 C1915 1.526 . S
C1913 H1897 0.959 . S
C1913 H1898 0.959 . S
C1913 H1899 0.961 . S
C1913 C1912 1.502 . S
C1914 H1900 0.960 . S
C1914 H1901 0.961 . S
C1914 H1902 0.959 . S
C1914 C1912 1.561 . S
C1915 C1912 1.526 . S
C1915 C1916 1.396 . S
C1915 C1920 1.390 . S
C1916 C1910 1.465 . S
C1916 C1915 1.396 . S
C1916 C1917 1.399 . S
C1917 H1903 0.929 . S
C1917 C1916 1.399 . S
C1917 C1918 1.385 . S
C1918 H1904 0.931 . S
C1918 C1917 1.385 . S
C1918 C1919 1.389 . S
C1919 C1918 1.389 . S
C1919 C1920 1.387 . S
C1920 H1905 0.930 . S
C1920 C1915 1.390 . S
C1920 C1919 1.387 . S
H1921 C1933 0.930 . S
H1922 C1935 0.930 . S
H1923 C1936 0.930 . S
H1924 C1940 0.959 . S
H1925 C1940 0.959 . S
H1926 C1940 0.961 . S
H1927 C1941 0.960 . S
H1928 C1941 0.961 . S
H1929 C1941 0.959 . S
H1930 C1944 0.929 . S
H1931 C1945 0.931 . S
H1932 C1947 0.930 . S
C1933 H1921 0.930 . S
C1933 C1934 1.399 . S
C1933 C1938 1.399 . S
C1934 C1933 1.399 . S
C1934 C1935 1.376 . S
C1935 H1922 0.930 . S
C1935 C1934 1.376 . S
C1935 C1936 1.388 . S
C1936 H1923 0.930 . S
C1936 C1935 1.388 . S
C1936 C1937 1.390 . S
C1937 C1936 1.390 . S
C1937 C1938 1.394 . S
C1937 C1943 1.465 . S
C1938 C1933 1.399 . S
C1938 C1937 1.394 . S
C1938 C1939 1.516 . S
C1939 C1938 1.516 . S
C1939 C1940 1.502 . S
C1939 C1941 1.561 . S
C1939 C1942 1.526 . S
C1940 H1924 0.959 . S
C1940 H1925 0.959 . S
C1940 H1926 0.961 . S
C1940 C1939 1.502 . S
C1941 H1927 0.960 . S
C1941 H1928 0.961 . S
C1941 H1929 0.959 . S
C1941 C1939 1.561 . S
C1942 C1939 1.526 . S
C1942 C1943 1.396 . S
C1942 C1947 1.390 . S
C1943 C1937 1.465 . S
C1943 C1942 1.396 . S
C1943 C1944 1.399 . S
C1944 H1930 0.929 . S
C1944 C1943 1.399 . S
C1944 C1945 1.385 . S
C1945 H1931 0.931 . S
C1945 C1944 1.385 . S
C1945 C1946 1.389 . S
C1946 C1945 1.389 . S
C1946 C1947 1.387 . S
C1947 H1932 0.930 . S
C1947 C1942 1.390 . S
C1947 C1946 1.387 . S
H1948 C1960 0.930 . S
H1949 C1962 0.930 . S
H1950 C1963 0.930 . S
H1951 C1967 0.959 . S
H1952 C1967 0.959 . S
H1953 C1967 0.961 . S
H1954 C1968 0.960 . S
H1955 C1968 0.961 . S
H1956 C1968 0.959 . S
H1957 C1971 0.929 . S
H1958 C1972 0.931 . S
H1959 C1974 0.930 . S
C1960 H1948 0.930 . S
C1960 C1961 1.399 . S
C1960 C1965 1.399 . S
C1961 C1960 1.399 . S
C1961 C1962 1.376 . S
C1962 H1949 0.930 . S
C1962 C1961 1.376 . S
C1962 C1963 1.388 . S
C1963 H1950 0.930 . S
C1963 C1962 1.388 . S
C1963 C1964 1.390 . S
C1964 C1963 1.390 . S
C1964 C1965 1.394 . S
C1964 C1970 1.465 . S
C1965 C1960 1.399 . S
C1965 C1964 1.394 . S
C1965 C1966 1.516 . S
C1966 C1965 1.516 . S
C1966 C1967 1.502 . S
C1966 C1968 1.561 . S
C1966 C1969 1.526 . S
C1967 H1951 0.959 . S
C1967 H1952 0.959 . S
C1967 H1953 0.961 . S
C1967 C1966 1.502 . S
C1968 H1954 0.960 . S
C1968 H1955 0.961 . S
C1968 H1956 0.959 . S
C1968 C1966 1.561 . S
C1969 C1966 1.526 . S
C1969 C1970 1.396 . S
C1969 C1974 1.390 . S
C1970 C1964 1.465 . S
C1970 C1969 1.396 . S
C1970 C1971 1.399 . S
C1971 H1957 0.929 . S
C1971 C1970 1.399 . S
C1971 C1972 1.385 . S
C1972 H1958 0.931 . S
C1972 C1971 1.385 . S
C1972 C1973 1.389 . S
C1973 C1972 1.389 . S
C1973 C1974 1.387 . S
C1974 H1959 0.930 . S
C1974 C1969 1.390 . S
C1974 C1973 1.387 . S
H1975 C1987 0.930 . S
H1976 C1989 0.930 . S
H1977 C1990 0.930 . S
H1978 C1994 0.959 . S
H1979 C1994 0.959 . S
H1980 C1994 0.961 . S
H1981 C1995 0.960 . S
H1982 C1995 0.961 . S
H1983 C1995 0.959 . S
H1984 C1998 0.929 . S
H1985 C1999 0.931 . S
H1986 C2001 0.930 . S
C1987 H1975 0.930 . S
C1987 C1988 1.399 . S
C1987 C1992 1.399 . S
C1988 C1987 1.399 . S
C1988 C1989 1.376 . S
C1989 H1976 0.930 . S
C1989 C1988 1.376 . S
C1989 C1990 1.388 . S
C1990 H1977 0.930 . S
C1990 C1989 1.388 . S
C1990 C1991 1.390 . S
C1991 C1990 1.390 . S
C1991 C1992 1.394 . S
C1991 C1997 1.465 . S
C1992 C1987 1.399 . S
C1992 C1991 1.394 . S
C1992 C1993 1.516 . S
C1993 C1992 1.516 . S
C1993 C1994 1.502 . S
C1993 C1995 1.561 . S
C1993 C1996 1.526 . S
C1994 H1978 0.959 . S
C1994 H1979 0.959 . S
C1994 H1980 0.961 . S
C1994 C1993 1.502 . S
C1995 H1981 0.960 . S
C1995 H1982 0.961 . S
C1995 H1983 0.959 . S
C1995 C1993 1.561 . S
C1996 C1993 1.526 . S
C1996 C1997 1.396 . S
C1996 C2001 1.390 . S
C1997 C1991 1.465 . S
C1997 C1996 1.396 . S
C1997 C1998 1.399 . S
C1998 H1984 0.929 . S
C1998 C1997 1.399 . S
C1998 C1999 1.385 . S
C1999 H1985 0.931 . S
C1999 C1998 1.385 . S
C1999 C2000 1.389 . S
C2000 C1999 1.389 . S
C2000 C2001 1.387 . S
C2001 H1986 0.930 . S
C2001 C1996 1.390 . S
C2001 C2000 1.387 . S
H2002 C2014 0.930 . S
H2003 C2016 0.930 . S
H2004 C2017 0.930 . S
H2005 C2021 0.959 . S
H2006 C2021 0.959 . S
H2007 C2021 0.961 . S
H2008 C2022 0.960 . S
H2009 C2022 0.961 . S
H2010 C2022 0.959 . S
H2011 C2025 0.929 . S
H2012 C2026 0.931 . S
H2013 C2028 0.930 . S
C2014 H2002 0.930 . S
C2014 C2015 1.399 . S
C2014 C2019 1.399 . S
C2015 C2014 1.399 . S
C2015 C2016 1.376 . S
C2016 H2003 0.930 . S
C2016 C2015 1.376 . S
C2016 C2017 1.388 1_565 S
C2017 H2004 0.930 . S
C2017 C2016 1.388 1_545 S
C2017 C2018 1.390 . S
C2018 C2017 1.390 . S
C2018 C2019 1.394 1_545 S
C2018 C2024 1.465 . S
C2019 C2014 1.399 . S
C2019 C2018 1.394 1_565 S
C2019 C2020 1.516 . S
C2020 C2019 1.516 . S
C2020 C2021 1.502 . S
C2020 C2022 1.561 . S
C2020 C2023 1.526 1_565 S
C2021 H2005 0.959 . S
C2021 H2006 0.959 . S
C2021 H2007 0.961 . S
C2021 C2020 1.502 . S
C2022 H2008 0.960 . S
C2022 H2009 0.961 . S
C2022 H2010 0.959 . S
C2022 C2020 1.561 . S
C2023 C2020 1.526 1_545 S
C2023 C2024 1.396 . S
C2023 C2028 1.390 . S
C2024 C2018 1.465 . S
C2024 C2023 1.396 . S
C2024 C2025 1.399 . S
C2025 H2011 0.929 . S
C2025 C2024 1.399 . S
C2025 C2026 1.385 . S
C2026 H2012 0.931 . S
C2026 C2025 1.385 . S
C2026 C2027 1.389 . S
C2027 C2026 1.389 . S
C2027 C2028 1.387 . S
C2028 H2013 0.930 . S
C2028 C2023 1.390 . S
C2028 C2027 1.387 . S
H2029 C2041 0.930 . S
H2030 C2043 0.930 . S
H2031 C2044 0.953 . S
H2032 C2048 0.959 1_565 S
H2033 C2048 0.967 . S
H2034 C2048 0.961 . S
H2035 C2049 0.960 . S
H2036 C2049 0.961 . S
H2037 C2049 0.959 . S
H2038 C2052 0.929 . S
H2039 C2053 0.931 . S
H2040 C2055 0.930 . S
C2041 H2029 0.930 . S
C2041 C2042 1.399 1_454 S
C2041 C2046 1.399 . S
C2042 C2041 1.399 1_656 S
C2042 C2043 1.376 . S
C2043 H2030 0.930 . S
C2043 C2042 1.376 . S
C2043 C2044 1.388 1_556 S
C2044 H2031 0.953 . S
C2044 C2043 1.388 1_554 S
C2044 C2045 1.390 . S
C2045 C2044 1.390 . S
C2045 C2046 1.394 1_655 S
C2045 C2051 1.465 1_545 S
C2046 C2041 1.399 . S
C2046 C2045 1.394 1_455 S
C2046 C2047 1.516 . S
C2047 C2046 1.516 . S
C2047 C2048 1.502 . S
C2047 C2049 1.561 . S
C2047 C2050 1.526 1_545 S
C2048 H2032 0.959 1_545 S
C2048 H2033 0.967 . S
C2048 H2034 0.961 . S
C2048 C2047 1.502 . S
C2049 H2035 0.960 . S
C2049 H2036 0.961 . S
C2049 H2037 0.959 . S
C2049 C2047 1.561 . S
C2050 C2047 1.526 1_565 S
C2050 C2051 1.396 1_455 S
C2050 C2055 1.390 . S
C2051 C2045 1.465 1_565 S
C2051 C2050 1.396 1_655 S
C2051 C2052 1.399 . S
C2052 H2038 0.929 . S
C2052 C2051 1.399 . S
C2052 C2053 1.385 . S
C2053 H2039 0.931 . S
C2053 C2052 1.385 . S
C2053 C2054 1.389 . S
C2054 C2053 1.389 . S
C2054 C2055 1.387 1_655 S
C2055 H2040 0.930 . S
C2055 C2050 1.390 . S
C2055 C2054 1.387 1_455 S
H2056 C2068 0.930 . S
H2057 C2070 0.930 . S
H2058 C2071 0.930 . S
H2059 C2075 0.959 . S
H2060 C2075 0.959 . S
H2061 C2075 0.961 . S
H2062 C2076 0.960 . S
H2063 C2076 0.961 . S
H2064 C2076 0.959 . S
H2065 C2079 0.929 . S
H2066 C2080 0.931 . S
H2067 C2082 0.930 . S
C2068 H2056 0.930 . S
C2068 C2069 1.399 1_655 S
C2068 C2073 1.399 . S
C2069 C2068 1.399 1_455 S
C2069 C2070 1.376 . S
C2070 H2057 0.930 . S
C2070 C2069 1.376 . S
C2070 C2071 1.388 . S
C2071 H2058 0.930 . S
C2071 C2070 1.388 . S
C2071 C2072 1.390 . S
C2072 C2071 1.390 . S
C2072 C2073 1.394 1_455 S
C2072 C2078 1.465 . S
C2073 C2068 1.399 . S
C2073 C2072 1.394 1_655 S
C2073 C2074 1.516 . S
C2074 C2073 1.516 . S
C2074 C2075 1.502 . S
C2074 C2076 1.561 . S
C2074 C2077 1.526 . S
C2075 H2059 0.959 . S
C2075 H2060 0.959 . S
C2075 H2061 0.961 . S
C2075 C2074 1.502 . S
C2076 H2062 0.960 . S
C2076 H2063 0.961 . S
C2076 H2064 0.959 . S
C2076 C2074 1.561 . S
C2077 C2074 1.526 . S
C2077 C2078 1.396 1_655 S
C2077 C2082 1.390 . S
C2078 C2072 1.465 . S
C2078 C2077 1.396 1_455 S
C2078 C2079 1.399 . S
C2079 H2065 0.929 . S
C2079 C2078 1.399 . S
C2079 C2080 1.385 . S
C2080 H2066 0.931 . S
C2080 C2079 1.385 . S
C2080 C2081 1.389 . S
C2081 C2080 1.389 . S
C2081 C2082 1.387 1_455 S
C2082 H2067 0.930 . S
C2082 C2077 1.390 . S
C2082 C2081 1.387 1_655 S
H2083 C2095 0.930 . S
H2084 C2097 0.930 . S
H2085 C2098 0.930 . S
H2086 C2102 0.959 . S
H2087 C2102 0.959 . S
H2088 C2102 0.961 . S
H2089 C2103 0.960 . S
H2090 C2103 0.961 . S
H2091 C2103 0.959 . S
H2092 C2106 0.929 . S
H2093 C2107 0.931 . S
H2094 C2109 0.930 . S
C2095 H2083 0.930 . S
C2095 C2096 1.399 . S
C2095 C2100 1.399 . S
C2096 C2095 1.399 . S
C2096 C2097 1.376 . S
C2097 H2084 0.930 . S
C2097 C2096 1.376 . S
C2097 C2098 1.388 . S
C2098 H2085 0.930 . S
C2098 C2097 1.388 . S
C2098 C2099 1.390 . S
C2099 C2098 1.390 . S
C2099 C2100 1.394 . S
C2099 C2105 1.465 . S
C2100 C2095 1.399 . S
C2100 C2099 1.394 . S
C2100 C2101 1.516 . S
C2101 C2100 1.516 . S
C2101 C2102 1.502 . S
C2101 C2103 1.561 . S
C2101 C2104 1.526 . S
C2102 H2086 0.959 . S
C2102 H2087 0.959 . S
C2102 H2088 0.961 . S
C2102 C2101 1.502 . S
C2103 H2089 0.960 . S
C2103 H2090 0.961 . S
C2103 H2091 0.959 . S
C2103 C2101 1.561 . S
C2104 C2101 1.526 . S
C2104 C2105 1.396 . S
C2104 C2109 1.390 . S
C2105 C2099 1.465 . S
C2105 C2104 1.396 . S
C2105 C2106 1.399 . S
C2106 H2092 0.929 . S
C2106 C2105 1.399 . S
C2106 C2107 1.385 . S
C2107 H2093 0.931 . S
C2107 C2106 1.385 . S
C2107 C2108 1.389 . S
C2108 C2107 1.389 . S
C2108 C2109 1.387 . S
C2109 H2094 0.930 . S
C2109 C2104 1.390 . S
C2109 C2108 1.387 . S
H2110 C2122 0.930 . S
H2111 C2124 0.930 . S
H2112 C2125 0.930 . S
H2113 C2129 0.959 . S
H2114 C2129 0.959 . S
H2115 C2129 0.961 . S
H2116 C2130 0.960 . S
H2117 C2130 0.961 . S
H2118 C2130 0.959 . S
H2119 C2133 0.931 . S
H2120 C2134 0.931 . S
H2121 C2136 0.930 . S
C2122 H2110 0.930 . S
C2122 C2123 1.399 . S
C2122 C2127 1.399 . S
C2123 C2122 1.399 . S
C2123 C2124 1.376 . S
C2124 H2111 0.930 . S
C2124 C2123 1.376 . S
C2124 C2125 1.388 . S
C2125 H2112 0.930 . S
C2125 C2124 1.388 . S
C2125 C2126 1.390 . S
C2126 C2125 1.390 . S
C2126 C2127 1.394 . S
C2126 C2132 1.465 . S
C2127 C2122 1.399 . S
C2127 C2126 1.394 . S
C2127 C2128 1.516 . S
C2128 C2127 1.516 . S
C2128 C2129 1.502 . S
C2128 C2130 1.561 . S
C2128 C2131 1.526 . S
C2129 H2113 0.959 . S
C2129 H2114 0.959 . S
C2129 H2115 0.961 . S
C2129 C2128 1.502 . S
C2130 H2116 0.960 . S
C2130 H2117 0.961 . S
C2130 H2118 0.959 . S
C2130 C2128 1.561 . S
C2131 C2128 1.526 . S
C2131 C2132 1.396 . S
C2131 C2136 1.390 . S
C2132 C2126 1.465 . S
C2132 C2131 1.396 . S
C2132 C2133 1.395 1_554 S
C2133 H2119 0.931 . S
C2133 C2132 1.395 1_556 S
C2133 C2134 1.387 . S
C2134 H2120 0.931 . S
C2134 C2133 1.387 . S
C2134 C2135 1.389 . S
C2135 C2134 1.389 . S
C2135 C2136 1.387 1_556 S
C2136 H2121 0.930 . S
C2136 C2131 1.390 . S
C2136 C2135 1.387 1_554 S
H2137 C2149 0.930 . S
H2138 C2151 0.930 . S
H2139 C2152 0.930 . S
H2140 C2156 0.959 . S
H2141 C2156 0.959 . S
H2142 C2156 0.961 . S
H2143 C2157 0.960 . S
H2144 C2157 0.961 . S
H2145 C2157 0.959 . S
H2146 C2160 0.929 . S
H2147 C2161 0.931 . S
H2148 C2163 0.930 . S
C2149 H2137 0.930 . S
C2149 C2150 1.399 . S
C2149 C2154 1.399 . S
C2150 C2149 1.399 . S
C2150 C2151 1.376 . S
C2151 H2138 0.930 . S
C2151 C2150 1.376 . S
C2151 C2152 1.388 . S
C2152 H2139 0.930 . S
C2152 C2151 1.388 . S
C2152 C2153 1.390 . S
C2153 C2152 1.390 . S
C2153 C2154 1.394 . S
C2153 C2159 1.465 . S
C2154 C2149 1.399 . S
C2154 C2153 1.394 . S
C2154 C2155 1.516 . S
C2155 C2154 1.516 . S
C2155 C2156 1.502 . S
C2155 C2157 1.561 . S
C2155 C2158 1.526 . S
C2156 H2140 0.959 . S
C2156 H2141 0.959 . S
C2156 H2142 0.961 . S
C2156 C2155 1.502 . S
C2157 H2143 0.960 . S
C2157 H2144 0.961 . S
C2157 H2145 0.959 . S
C2157 C2155 1.561 . S
C2158 C2155 1.526 . S
C2158 C2159 1.396 . S
C2158 C2163 1.390 . S
C2159 C2153 1.465 . S
C2159 C2158 1.396 . S
C2159 C2160 1.399 . S
C2160 H2146 0.929 . S
C2160 C2159 1.399 . S
C2160 C2161 1.385 . S
C2161 H2147 0.931 . S
C2161 C2160 1.385 . S
C2161 C2162 1.389 . S
C2162 C2161 1.389 . S
C2162 C2163 1.387 . S
C2163 H2148 0.930 . S
C2163 C2158 1.390 . S
C2163 C2162 1.387 . S
H2164 C2176 0.930 . S
H2165 C2178 0.930 . S
H2166 C2179 0.930 . S
H2167 C2183 0.959 . S
H2168 C2183 0.959 . S
H2169 C2183 0.961 . S
H2170 C2184 0.960 . S
H2171 C2184 0.961 . S
H2172 C2184 0.959 . S
H2173 C2187 0.929 . S
H2174 C2188 0.931 . S
H2175 C2190 0.930 . S
C2176 H2164 0.930 . S
C2176 C2177 1.399 . S
C2176 C2181 1.399 . S
C2177 C2176 1.399 . S
C2177 C2178 1.376 . S
C2178 H2165 0.930 . S
C2178 C2177 1.376 . S
C2178 C2179 1.388 . S
C2179 H2166 0.930 . S
C2179 C2178 1.388 . S
C2179 C2180 1.390 . S
C2180 C2179 1.390 . S
C2180 C2181 1.394 . S
C2180 C2186 1.465 . S
C2181 C2176 1.399 . S
C2181 C2180 1.394 . S
C2181 C2182 1.516 . S
C2182 C2181 1.516 . S
C2182 C2183 1.502 . S
C2182 C2184 1.561 . S
C2182 C2185 1.526 . S
C2183 H2167 0.959 . S
C2183 H2168 0.959 . S
C2183 H2169 0.961 . S
C2183 C2182 1.502 . S
C2184 H2170 0.960 . S
C2184 H2171 0.961 . S
C2184 H2172 0.959 . S
C2184 C2182 1.561 . S
C2185 C2182 1.526 . S
C2185 C2186 1.396 . S
C2185 C2190 1.390 . S
C2186 C2180 1.465 . S
C2186 C2185 1.396 . S
C2186 C2187 1.399 . S
C2187 H2173 0.929 . S
C2187 C2186 1.399 . S
C2187 C2188 1.385 . S
C2188 H2174 0.931 . S
C2188 C2187 1.385 . S
C2188 C2189 1.389 . S
C2189 C2188 1.389 . S
C2189 C2190 1.387 . S
C2190 H2175 0.930 . S
C2190 C2185 1.390 . S
C2190 C2189 1.387 . S
H2191 C2203 0.930 . S
H2192 C2205 0.930 . S
H2193 C2206 0.930 . S
H2194 C2210 0.959 . S
H2195 C2210 0.959 . S
H2196 C2210 0.961 . S
H2197 C2211 0.960 . S
H2198 C2211 0.961 . S
H2199 C2211 0.959 . S
H2200 C2214 0.929 . S
H2201 C2215 0.931 . S
H2202 C2217 0.930 . S
C2203 H2191 0.930 . S
C2203 C2204 1.399 . S
C2203 C2208 1.399 . S
C2204 C2203 1.399 . S
C2204 C2205 1.376 . S
C2205 H2192 0.930 . S
C2205 C2204 1.376 . S
C2205 C2206 1.388 . S
C2206 H2193 0.930 . S
C2206 C2205 1.388 . S
C2206 C2207 1.390 . S
C2207 C2206 1.390 . S
C2207 C2208 1.394 . S
C2207 C2213 1.465 . S
C2208 C2203 1.399 . S
C2208 C2207 1.394 . S
C2208 C2209 1.516 . S
C2209 C2208 1.516 . S
C2209 C2210 1.502 . S
C2209 C2211 1.561 . S
C2209 C2212 1.526 . S
C2210 H2194 0.959 . S
C2210 H2195 0.959 . S
C2210 H2196 0.961 . S
C2210 C2209 1.502 . S
C2211 H2197 0.960 . S
C2211 H2198 0.961 . S
C2211 H2199 0.959 . S
C2211 C2209 1.561 . S
C2212 C2209 1.526 . S
C2212 C2213 1.396 . S
C2212 C2217 1.390 . S
C2213 C2207 1.465 . S
C2213 C2212 1.396 . S
C2213 C2214 1.399 . S
C2214 H2200 0.929 . S
C2214 C2213 1.399 . S
C2214 C2215 1.385 . S
C2215 H2201 0.931 . S
C2215 C2214 1.385 . S
C2215 C2216 1.389 . S
C2216 C2215 1.389 . S
C2216 C2217 1.387 . S
C2217 H2202 0.930 . S
C2217 C2212 1.390 . S
C2217 C2216 1.387 . S
H2218 C2230 0.930 . S
H2219 C2232 0.930 . S
H2220 C2233 0.930 . S
H2221 C2237 0.959 . S
H2222 C2237 0.959 1_556 S
H2223 C2237 0.961 . S
H2224 C2238 0.960 . S
H2225 C2238 0.961 1_556 S
H2226 C2238 0.959 . S
H2227 C2241 0.929 . S
H2228 C2242 0.931 . S
H2229 C2244 0.930 . S
C2230 H2218 0.930 . S
C2230 C2231 1.399 . S
C2230 C2235 1.399 . S
C2231 C2230 1.399 . S
C2231 C2232 1.376 . S
C2232 H2219 0.930 . S
C2232 C2231 1.376 . S
C2232 C2233 1.388 1_565 S
C2233 H2220 0.930 . S
C2233 C2232 1.388 1_545 S
C2233 C2234 1.388 1_545 S
C2234 C2233 1.388 1_565 S
C2234 C2235 1.406 . S
C2234 C2240 1.456 1_565 S
C2235 C2230 1.399 . S
C2235 C2234 1.406 . S
C2235 C2236 1.516 . S
C2236 C2235 1.516 . S
C2236 C2237 1.502 . S
C2236 C2238 1.561 . S
C2236 C2239 1.526 1_565 S
C2237 H2221 0.959 . S
C2237 H2222 0.959 1_554 S
C2237 H2223 0.961 . S
C2237 C2236 1.502 . S
C2238 H2224 0.960 . S
C2238 H2225 0.961 1_554 S
C2238 H2226 0.959 . S
C2238 C2236 1.561 . S
C2239 C2236 1.526 1_545 S
C2239 C2240 1.396 . S
C2239 C2244 1.390 1_554 S
C2240 C2234 1.456 1_545 S
C2240 C2239 1.396 . S
C2240 C2241 1.399 . S
C2241 H2227 0.929 . S
C2241 C2240 1.399 . S
C2241 C2242 1.385 . S
C2242 H2228 0.931 . S
C2242 C2241 1.385 . S
C2242 C2243 1.389 1_554 S
C2243 C2242 1.389 1_556 S
C2243 C2244 1.387 . S
C2244 H2229 0.930 . S
C2244 C2239 1.390 1_556 S
C2244 C2243 1.387 . S
H2245 C2257 0.930 . S
H2246 C2259 0.930 . S
H2247 C2260 0.930 . S
H2248 C2264 0.959 . S
H2249 C2264 0.959 . S
H2250 C2264 0.961 . S
H2251 C2265 0.960 . S
H2252 C2265 0.961 . S
H2253 C2265 0.959 . S
H2254 C2268 0.929 . S
H2255 C2269 0.929 1_655 S
H2256 C2271 0.930 . S
C2257 H2245 0.930 . S
C2257 C2258 1.399 . S
C2257 C2262 1.399 . S
C2258 C2257 1.399 . S
C2258 C2259 1.376 . S
C2259 H2246 0.930 . S
C2259 C2258 1.376 . S
C2259 C2260 1.388 1_545 S
C2260 H2247 0.930 . S
C2260 C2259 1.388 1_565 S
C2260 C2261 1.392 . S
C2261 C2260 1.392 . S
C2261 C2262 1.377 1_565 S
C2261 C2267 1.477 . S
C2262 C2257 1.399 . S
C2262 C2261 1.377 1_545 S
C2262 C2263 1.516 . S
C2263 C2262 1.516 . S
C2263 C2264 1.502 1_455 S
C2263 C2265 1.561 . S
C2263 C2266 1.526 1_545 S
C2264 H2248 0.959 . S
C2264 H2249 0.959 . S
C2264 H2250 0.961 . S
C2264 C2263 1.502 1_655 S
C2265 H2251 0.960 . S
C2265 H2252 0.961 . S
C2265 H2253 0.959 . S
C2265 C2263 1.561 . S
C2266 C2263 1.526 1_565 S
C2266 C2267 1.396 . S
C2266 C2271 1.390 . S
C2267 C2261 1.477 . S
C2267 C2266 1.396 . S
C2267 C2268 1.402 . S
C2268 H2254 0.929 . S
C2268 C2267 1.402 . S
C2268 C2269 1.384 . S
C2269 H2255 0.929 1_455 S
C2269 C2268 1.384 . S
C2269 C2270 1.389 . S
C2270 C2269 1.389 . S
C2270 C2271 1.390 . S
C2271 H2256 0.930 . S
C2271 C2266 1.390 . S
C2271 C2270 1.390 . S
C1421 C849 1.568 . S
C1433 C29 1.533 . S
C1448 C1281 1.568 . S
C1460 C117 1.528 . S
C1475 C233 1.574 . S
C1487 C753 1.565 . S
C1502 C293 1.540 1_556 S
C1514 C1349 1.585 . S
C1529 C401 1.554 . S
C1541 C909 1.573 1_556 S
C1556 C1201 1.555 . S
C1568 C497 1.581 . S
C1583 C988 1.575 . S
C1595 C548 1.562 . S
C1610 C673 1.529 . S
C1622 C1076 1.574 . S
C1637 C409 1.557 . S
C1649 C313 1.549 1_556 S
C1664 C1085 1.576 . S
C1676 C733 1.539 . S
C1691 C557 1.525 . S
C1703 C137 1.574 . S
C1718 C812 1.538 . S
C1730 C1193 1.564 . S
C1745 C20 1.577 . S
C1757 C460 1.550 . S
C1772 C1340 1.524 . S
C1784 C929 1.572 1_556 S
C1799 C636 1.569 . S
C1811 C225 1.556 . S
C1826 C1025 1.581 . S
C1838 C1289 1.538 . S
C1853 C49 0.836 . S
C1865 C381 0.796 1_556 S
C1880 C469 0.835 . S
C1892 C145 0.799 . S
C1907 C585 0.794 . S
C1919 C196 0.834 . S
C1934 C321 0.793 . S
C1946 C645 0.836 . S
C1961 C937 0.785 . S
C1973 C724 0.830 . S
C1988 C1017 0.831 . S
C2000 C821 0.806 . S
C2015 C1261 0.837 . S
C2027 C1113 0.794 . S
C2042 C1369 0.821 1_656 S
C2054 C1164 0.813 1_655 S
C2069 C372 1.993 . S
C2081 C57 1.985 . S
C2096 C489 2.009 . S
C2108 C108 1.994 . S
C2123 C577 2.005 . S
C2135 C205 1.978 . S
C2150 C284 2.008 . S
C2162 C665 1.996 . S
C2177 C761 1.988 . S
C2189 C900 2.014 . S
C2204 C997 2.008 . S
C2216 C841 1.997 . S
C2231 C1252 1.982 . S
C2243 C1105 2.007 . S
C2258 C1377 1.980 . S
C2270 C1173 2.008 . S
