# Generated by pormake.
# Topology ske, (6)-cn, num edge types: 1
# Building blocks:
#     Node 0, Type 0, BuildingBlock: BETFAJ_clean_sbu_0, # of connection points: 6
#     Node 1, Type 0, BuildingBlock: BETFAJ_clean_sbu_0, # of connection points: 6
#     Node 2, Type 0, BuildingBlock: BETFAJ_clean_sbu_0, # of connection points: 6
#     Node 3, Type 0, BuildingBlock: BETFAJ_clean_sbu_0, # of connection points: 6
#     Node 4, Type 0, BuildingBlock: BETFAJ_clean_sbu_0, # of connection points: 6
#     Node 5, Type 0, BuildingBlock: BETFAJ_clean_sbu_0, # of connection points: 6
#     Node 6, Type 0, BuildingBlock: BETFAJ_clean_sbu_0, # of connection points: 6
#     Node 7, Type 0, BuildingBlock: BETFAJ_clean_sbu_0, # of connection points: 6
#     Edge 8, Type (0, 0), BuildingBlock: EZIPEK_clean_linker_0, # of connection points: 2
#     Edge 9, Type (0, 0), BuildingBlock: EZIPEK_clean_linker_0, # of connection points: 2
#     Edge 10, Type (0, 0), BuildingBlock: EZIPEK_clean_linker_0, # of connection points: 2
#     Edge 11, Type (0, 0), BuildingBlock: EZIPEK_clean_linker_0, # of connection points: 2
#     Edge 12, Type (0, 0), BuildingBlock: EZIPEK_clean_linker_0, # of connection points: 2
#     Edge 13, Type (0, 0), BuildingBlock: EZIPEK_clean_linker_0, # of connection points: 2
#     Edge 14, Type (0, 0), BuildingBlock: EZIPEK_clean_linker_0, # of connection points: 2
#     Edge 15, Type (0, 0), BuildingBlock: EZIPEK_clean_linker_0, # of connection points: 2
#     Edge 16, Type (0, 0), BuildingBlock: EZIPEK_clean_linker_0, # of connection points: 2
#     Edge 17, Type (0, 0), BuildingBlock: EZIPEK_clean_linker_0, # of connection points: 2
#     Edge 18, Type (0, 0), BuildingBlock: EZIPEK_clean_linker_0, # of connection points: 2
#     Edge 19, Type (0, 0), BuildingBlock: EZIPEK_clean_linker_0, # of connection points: 2
#     Edge 20, Type (0, 0), BuildingBlock: EZIPEK_clean_linker_0, # of connection points: 2
#     Edge 21, Type (0, 0), BuildingBlock: EZIPEK_clean_linker_0, # of connection points: 2
#     Edge 22, Type (0, 0), BuildingBlock: EZIPEK_clean_linker_0, # of connection points: 2
#     Edge 23, Type (0, 0), BuildingBlock: EZIPEK_clean_linker_0, # of connection points: 2
#     Edge 24, Type (0, 0), BuildingBlock: EZIPEK_clean_linker_0, # of connection points: 2
#     Edge 25, Type (0, 0), BuildingBlock: EZIPEK_clean_linker_0, # of connection points: 2
#     Edge 26, Type (0, 0), BuildingBlock: EZIPEK_clean_linker_0, # of connection points: 2
#     Edge 27, Type (0, 0), BuildingBlock: EZIPEK_clean_linker_0, # of connection points: 2
#     Edge 28, Type (0, 0), BuildingBlock: EZIPEK_clean_linker_0, # of connection points: 2
#     Edge 29, Type (0, 0), BuildingBlock: EZIPEK_clean_linker_0, # of connection points: 2
#     Edge 30, Type (0, 0), BuildingBlock: EZIPEK_clean_linker_0, # of connection points: 2
#     Edge 31, Type (0, 0), BuildingBlock: EZIPEK_clean_linker_0, # of connection points: 2
# Relax obj value: 0.204
# Max RMSD: 0.213
# Mean RMSD: 0.206
data_MOF--net-ske--node1-BETFAJ_clean_sbu_0--edge1-EZIPEK_clean_linker_0
_symmetry_space_group_name_H-M    P1
_symmetry_Int_Tables_number       1
_symmetry_cell_setting            triclinic
loop_
_symmetry_equiv_pos_as_xyz
'x, y, z'
_cell_length_a     88.383729
_cell_length_b     21.536246
_cell_length_c     11.650594
_cell_angle_alpha  89.972409
_cell_angle_beta   90.278995
_cell_angle_gamma 84.88079
loop_
_atom_site_label
_atom_site_type_symbol
_atom_site_fract_x
_atom_site_fract_y
_atom_site_fract_z
_atom_type_partial_charge
Sm0 Sm 0.16042 0.25043 0.54021 0.0
Sm1 Sm 0.1245 0.25217 0.54088 0.0
C2 C 0.18873 0.28225 0.54802 0.0
C3 C 0.20412 0.2676 0.59795 0.0
C4 C 0.20712 0.27814 0.71485 0.0
C5 C 0.22203 0.27091 0.75736 0.0
C6 C 0.23419 0.25303 0.68394 0.0
C7 C 0.23122 0.24114 0.56801 0.0
C8 C 0.21633 0.24854 0.52536 0.0
C9 C 0.1517 0.12838 0.55914 0.0
C10 C 0.14261 0.24907 0.78633 0.0
C11 C 0.09567 0.22662 0.53146 0.0
C12 C 0.07956 0.24318 0.49997 0.0
C13 C 0.07192 0.20132 0.43334 0.0
C14 C 0.0561 0.20904 0.42114 0.0
C15 C 0.04765 0.25862 0.47589 0.0
C16 C 0.05528 0.30229 0.53788 0.0
C17 C 0.07111 0.29472 0.54979 0.0
C18 C 0.1355 0.36967 0.53948 0.0
C19 C 0.14247 0.24835 0.28984 0.0
O20 O 0.17791 0.30607 0.61583 0.0
O21 O 0.18395 0.24414 0.47078 0.0
O22 O 0.14359 0.17912 0.55442 0.0
O23 O 0.16568 0.14239 0.5624 0.0
O24 O 0.15428 0.26922 0.73126 0.0
O25 O 0.13093 0.22929 0.73035 0.0
O26 O 0.10553 0.20869 0.45203 0.0
O27 O 0.10149 0.25717 0.61533 0.0
O28 O 0.14097 0.32193 0.4861 0.0
O29 O 0.12337 0.35598 0.59293 0.0
O30 O 0.12949 0.24359 0.34507 0.0
O31 O 0.15542 0.25563 0.34443 0.0
H32 H 0.19802 0.29336 0.77305 0.0
H33 H 0.22413 0.28036 0.84707 0.0
H34 H 0.24047 0.22745 0.5101 0.0
H35 H 0.21439 0.24088 0.43477 0.0
H36 H 0.07812 0.1608 0.39539 0.0
H37 H 0.05039 0.17476 0.37342 0.0
H38 H 0.04891 0.34074 0.58091 0.0
H39 H 0.07663 0.32759 0.60232 0.0
Sm40 Sm 0.87013 0.25762 0.5168 0.0
Sm41 Sm 0.90396 0.24586 0.52364 0.0
C42 C 0.84064 0.24242 0.53195 0.0
C43 C 0.82621 0.25061 0.59739 0.0
C44 C 0.82088 0.19932 0.65461 0.0
C45 C 0.80624 0.20325 0.70109 0.0
C46 C 0.79662 0.25841 0.6908 0.0
C47 C 0.80202 0.31035 0.63698 0.0
C48 C 0.81667 0.30648 0.59042 0.0
C49 C 0.88225 0.37211 0.50142 0.0
C50 C 0.88744 0.25188 0.7714 0.0
C51 C 0.93353 0.25375 0.50381 0.0
C52 C 0.95012 0.25741 0.4923 0.0
C53 C 0.9567 0.31293 0.51779 0.0
C54 C 0.97247 0.31533 0.51144 0.0
C55 C 0.98189 0.26225 0.47981 0.0
C56 C 0.97535 0.20705 0.45286 0.0
C57 C 0.9596 0.20467 0.45877 0.0
C58 C 0.89166 0.13259 0.54291 0.0
C59 C 0.88663 0.25275 0.27287 0.0
O60 O 0.85136 0.20108 0.56771 0.0
O61 O 0.84592 0.29114 0.48486 0.0
O62 O 0.88706 0.32777 0.56725 0.0
O63 O 0.87016 0.35798 0.44755 0.0
O64 O 0.87454 0.24993 0.71368 0.0
O65 O 0.90053 0.25469 0.71853 0.0
O66 O 0.92443 0.29867 0.54779 0.0
O67 O 0.92687 0.20515 0.46985 0.0
O68 O 0.88709 0.17585 0.47374 0.0
O69 O 0.90334 0.14777 0.60052 0.0
O70 O 0.89856 0.26826 0.3314 0.0
O71 O 0.87459 0.23568 0.32639 0.0
H72 H 0.82782 0.15533 0.65987 0.0
H73 H 0.80226 0.16266 0.74218 0.0
H74 H 0.79474 0.35328 0.62809 0.0
H75 H 0.8203 0.3466 0.54561 0.0
H76 H 0.94969 0.35432 0.54372 0.0
H77 H 0.97735 0.35826 0.53286 0.0
H78 H 0.98247 0.16561 0.42866 0.0
H79 H 0.95488 0.1612 0.43883 0.0
Sm80 Sm 0.126 0.75157 0.53039 0.0
Sm81 Sm 0.16008 0.74573 0.53163 0.0
C82 C 0.09716 0.73131 0.56912 0.0
C83 C 0.08046 0.74231 0.56098 0.0
C84 C 0.0717 0.71105 0.6386 0.0
C85 C 0.05583 0.71764 0.6322 0.0
C86 C 0.04838 0.75592 0.54817 0.0
C87 C 0.05713 0.78809 0.47111 0.0
C88 C 0.07309 0.78118 0.47723 0.0
C89 C 0.13684 0.86873 0.52646 0.0
C90 C 0.14423 0.74523 0.77655 0.0
C91 C 0.18907 0.76721 0.50492 0.0
C92 C 0.20428 0.75462 0.45237 0.0
C93 C 0.21141 0.80518 0.40811 0.0
C94 C 0.22632 0.79702 0.36754 0.0
C95 C 0.23445 0.73803 0.37033 0.0
C96 C 0.22727 0.68694 0.41237 0.0
C97 C 0.2123 0.69517 0.45349 0.0
C98 C 0.14925 0.62889 0.54232 0.0
C99 C 0.1418 0.75073 0.27955 0.0
O100 O 0.10469 0.76794 0.6326 0.0
O101 O 0.10486 0.70837 0.48111 0.0
O102 O 0.14225 0.82265 0.5853 0.0
O103 O 0.12508 0.85388 0.4686 0.0
O104 O 0.13315 0.72267 0.71755 0.0
O105 O 0.15539 0.76925 0.72206 0.0
O106 O 0.17803 0.7938 0.4421 0.0
O107 O 0.18448 0.72846 0.58112 0.0
O108 O 0.14377 0.67398 0.4814 0.0
O109 O 0.1616 0.64314 0.59236 0.0
O110 O 0.15462 0.75636 0.33634 0.0
O111 O 0.12895 0.74437 0.33403 0.0
H112 H 0.07717 0.68075 0.70372 0.0
H113 H 0.04935 0.69238 0.69229 0.0
H114 H 0.0516 0.81785 0.40558 0.0
H115 H 0.07965 0.80564 0.41644 0.0
H116 H 0.20553 0.85155 0.4073 0.0
H117 H 0.23162 0.83699 0.33538 0.0
H118 H 0.23334 0.64099 0.41485 0.0
H119 H 0.20711 0.65541 0.48761 0.0
Sm120 Sm 0.90545 0.75015 0.49137 0.0
Sm121 Sm 0.8692 0.75108 0.48695 0.0
C122 C 0.93412 0.77424 0.4606 0.0
C123 C 0.95035 0.77081 0.49532 0.0
C124 C 0.95783 0.82571 0.49434 0.0
C125 C 0.9736 0.82349 0.50958 0.0
C126 C 0.98223 0.76624 0.52627 0.0
C127 C 0.97472 0.71139 0.53157 0.0
C128 C 0.95892 0.71359 0.51585 0.0
C129 C 0.89437 0.63501 0.52747 0.0
C130 C 0.88808 0.75307 0.73598 0.0
C131 C 0.84129 0.71417 0.4892 0.0
C132 C 0.82505 0.72737 0.4578 0.0
C133 C 0.81401 0.71472 0.53868 0.0
C134 C 0.7986 0.71937 0.50877 0.0
C135 C 0.7939 0.73679 0.39722 0.0
C136 C 0.80485 0.75131 0.3167 0.0
C137 C 0.82033 0.74655 0.34669 0.0
C138 C 0.8776 0.87329 0.49095 0.0
C139 C 0.88641 0.75661 0.23935 0.0
O140 O 0.9242 0.81222 0.51507 0.0
O141 O 0.9285 0.72372 0.4229 0.0
O142 O 0.8889 0.67686 0.45858 0.0
O143 O 0.90664 0.6525 0.57543 0.0
O144 O 0.9003 0.76938 0.68231 0.0
O145 O 0.87612 0.73521 0.67948 0.0
O146 O 0.85107 0.70038 0.4071 0.0
O147 O 0.8468 0.74606 0.57285 0.0
O148 O 0.88594 0.82278 0.48976 0.0
O149 O 0.86357 0.85965 0.48441 0.0
O150 O 0.8733 0.75262 0.29196 0.0
O151 O 0.89944 0.7589 0.2959 0.0
H152 H 0.95154 0.87031 0.47746 0.0
H153 H 0.97914 0.8663 0.50509 0.0
H154 H 0.98117 0.66674 0.54445 0.0
H155 H 0.9535 0.67043 0.51636 0.0
H156 H 0.81735 0.69933 0.62442 0.0
H157 H 0.79035 0.70781 0.57197 0.0
H158 H 0.80144 0.76472 0.23012 0.0
H159 H 0.82861 0.75633 0.28242 0.0
Sm160 Sm 0.65962 0.74941 0.02819 0.0
Sm161 Sm 0.62578 0.75695 0.03558 0.0
C162 C 0.68935 0.76206 0.04347 0.0
C163 C 0.7033 0.75398 0.11592 0.0
C164 C 0.70706 0.80049 0.19242 0.0
C165 C 0.7209 0.79472 0.25282 0.0
C166 C 0.73124 0.74058 0.24399 0.0
C167 C 0.72786 0.69753 0.15748 0.0
C168 C 0.71407 0.70328 0.09707 0.0
C169 C 0.6481 0.6341 1.00961 0.0
C170 C 0.64295 0.74687 0.28037 0.0
C171 C 0.59629 0.7404 0.02874 0.0
C172 C 0.57993 0.75388 0.99992 0.0
C173 C 0.57244 0.71004 0.93673 0.0
C174 C 0.55655 0.71517 0.928 0.0
C175 C 0.54784 0.76408 0.98281 0.0
C176 C 0.55528 0.80949 0.04171 0.0
C177 C 0.57117 0.80449 0.05021 0.0
C178 C 0.63709 0.87324 0.04642 0.0
C179 C 0.64274 0.75614 0.78202 0.0
O180 O 0.67884 0.80643 0.06871 0.0
O181 O 0.68371 0.71208 1.00467 0.0
O182 O 0.64326 0.67676 0.07848 0.0
O183 O 0.65969 0.65052 0.95356 0.0
O184 O 0.65506 0.76182 0.2241 0.0
O185 O 0.63086 0.73139 0.22459 0.0
O186 O 0.60595 0.71474 0.95431 0.0
O187 O 0.60249 0.77548 0.10364 0.0
O188 O 0.64206 0.829 0.98175 0.0
O189 O 0.62512 0.85852 0.09965 0.0
O190 O 0.63036 0.74475 0.83907 0.0
O191 O 0.65516 0.7694 0.83641 0.0
H192 H 0.69954 0.84261 0.2031 0.0
H193 H 0.72343 0.83484 0.30199 0.0
H194 H 0.73598 0.65982 0.1316 0.0
H195 H 0.71207 0.66873 0.03246 0.0
H196 H 0.57884 0.67005 0.89865 0.0
H197 H 0.55102 0.67954 0.88255 0.0
H198 H 0.54875 0.84749 0.08478 0.0
H199 H 0.57653 0.83876 0.10054 0.0
Sm200 Sm 0.36995 0.74755 0.03406 0.0
Sm201 Sm 0.40416 0.73832 0.04062 0.0
C202 C 0.34035 0.73365 0.04736 0.0
C203 C 0.32636 0.72892 0.11579 0.0
C204 C 0.31809 0.67666 0.1009 0.0
C205 C 0.30362 0.67507 0.14896 0.0
C206 C 0.29712 0.72582 0.21271 0.0
C207 C 0.30557 0.77714 0.23165 0.0
C208 C 0.32006 0.77878 0.1835 0.0
C209 C 0.38177 0.86137 1.00642 0.0
C210 C 0.38747 0.74229 0.28754 0.0
C211 C 0.43368 0.74905 1.02158 0.0
C212 C 0.45029 0.75372 1.01049 0.0
C213 C 0.45651 0.81126 1.02352 0.0
C214 C 0.47225 0.81488 1.01637 0.0
C215 C 0.48206 0.76104 0.99624 0.0
C216 C 0.47588 0.70371 0.98218 0.0
C217 C 0.46017 0.70007 0.98905 0.0
C218 C 0.39214 0.62459 0.06204 0.0
C219 C 0.38664 0.74258 0.78819 0.0
O220 O 0.35078 0.6866 0.04578 0.0
O221 O 0.34594 0.78765 0.03966 0.0
O222 O 0.38672 0.81962 0.07752 0.0
O223 O 0.36984 0.84484 0.9536 0.0
O224 O 0.37471 0.73672 0.23 0.0
O225 O 0.40041 0.7491 0.23493 0.0
O226 O 0.42403 0.79615 0.04979 0.0
O227 O 0.42757 0.69693 1.00297 0.0
O228 O 0.38747 0.66749 0.99269 0.0
O229 O 0.40382 0.64045 0.11923 0.0
O230 O 0.39911 0.75264 0.84574 0.0
O231 O 0.37403 0.73139 0.84123 0.0
H232 H 0.32256 0.63795 0.04809 0.0
H233 H 0.29729 0.6351 0.13323 0.0
H234 H 0.30075 0.81678 0.28057 0.0
H235 H 0.32608 0.81993 0.19603 0.0
H236 H 0.44922 0.85341 0.04007 0.0
H237 H 0.47681 0.85952 0.02777 0.0
H238 H 0.48326 0.66164 0.96689 0.0
H239 H 0.45578 0.65503 0.97878 0.0
Sm240 Sm 0.62613 0.25217 1.00181 0.0
Sm241 Sm 0.66096 0.25245 1.01169 0.0
C242 C 0.59735 0.22528 1.00569 0.0
C243 C 0.58122 0.24138 0.03679 0.0
C244 C 0.57365 0.19938 0.10318 0.0
C245 C 0.55782 0.20704 0.11509 0.0
C246 C 0.54929 0.25665 0.0602 0.0
C247 C 0.55685 0.30029 0.99817 0.0
C248 C 0.57268 0.29284 0.98665 0.0
C249 C 0.63627 0.37108 0.9971 0.0
C250 C 0.64295 0.25118 0.25577 0.0
C251 C 0.68963 0.28049 1.00086 0.0
C252 C 0.70458 0.27069 0.94265 0.0
C253 C 0.70771 0.3045 0.84334 0.0
C254 C 0.72245 0.30104 0.79832 0.0
C255 C 0.73432 0.26401 0.852 0.0
C256 C 0.73118 0.22915 0.94935 0.0
C257 C 0.71647 0.23258 0.9944 0.0
C258 C 0.65071 0.13419 0.02448 0.0
C259 C 0.64433 0.24867 0.75784 0.0
O260 O 0.60724 0.20561 0.08463 0.0
O261 O 0.60316 0.25781 0.92503 0.0
O262 O 0.6419 0.32539 0.05595 0.0
O263 O 0.62353 0.35649 0.95355 0.0
O264 O 0.63068 0.23929 0.19706 0.0
O265 O 0.65535 0.2667 0.20373 0.0
O266 O 0.67837 0.31268 0.94827 0.0
O267 O 0.6852 0.235 0.06322 0.0
O268 O 0.64517 0.17859 0.96172 0.0
O269 O 0.6635 0.1493 0.06651 0.0
O270 O 0.65666 0.26051 0.81557 0.0
O271 O 0.63189 0.23485 0.81089 0.0
H272 H 0.57989 0.15889 0.14134 0.0
H273 H 0.55216 0.17274 0.16283 0.0
H274 H 0.55044 0.33875 0.95498 0.0
H275 H 0.57812 0.32583 0.93418 0.0
H276 H 0.69889 0.33497 0.80217 0.0
H277 H 0.72468 0.32838 0.7232 0.0
H278 H 0.7402 0.20042 0.99204 0.0
H279 H 0.71452 0.20678 0.07197 0.0
Sm280 Sm 0.40578 0.23873 1.00851 0.0
Sm281 Sm 0.36946 0.24464 1.01041 0.0
C282 C 0.4351 0.25122 0.02997 0.0
C283 C 0.45164 0.25667 0.04332 0.0
C284 C 0.45826 0.30967 1.00374 0.0
C285 C 0.47403 0.31266 1.01036 0.0
C286 C 0.48342 0.2626 0.0562 0.0
C287 C 0.47683 0.21016 0.09751 0.0
C288 C 0.46109 0.20726 0.09143 0.0
C289 C 0.39336 0.12488 0.98166 0.0
C290 C 0.38751 0.24563 0.25719 0.0
C291 C 0.34127 0.21179 1.00115 0.0
C292 C 0.32602 0.2255 0.94815 0.0
C293 C 0.32325 0.21081 0.83255 0.0
C294 C 0.30845 0.21749 0.78772 0.0
C295 C 0.29618 0.23892 0.85751 0.0
C296 C 0.29892 0.25488 0.97195 0.0
C297 C 0.3137 0.24806 1.01694 0.0
C298 C 0.37873 0.3654 1.01007 0.0
C299 C 0.38754 0.24614 0.76046 0.0
O300 O 0.42594 0.29196 0.97372 0.0
O301 O 0.42855 0.20507 0.07598 0.0
O302 O 0.38854 0.16924 0.04692 0.0
O303 O 0.40596 0.13926 0.93585 0.0
O304 O 0.40005 0.25623 0.20104 0.0
O305 O 0.37492 0.23251 0.20367 0.0
O306 O 0.35229 0.18701 0.93619 0.0
O307 O 0.3458 0.25129 0.07692 0.0
O308 O 0.38689 0.31436 1.0076 0.0
O309 O 0.36459 0.35311 1.0082 0.0
O310 O 0.37481 0.23816 0.816 0.0
O311 O 0.40052 0.25371 0.81443 0.0
H312 H 0.45129 0.34843 0.96614 0.0
H313 H 0.47894 0.35342 0.9777 0.0
H314 H 0.48391 0.17104 0.13279 0.0
H315 H 0.45637 0.16569 0.12232 0.0
H316 H 0.33243 0.19279 0.77731 0.0
H317 H 0.30652 0.20484 0.69921 0.0
H318 H 0.28958 0.27131 0.02708 0.0
H319 H 0.31544 0.25895 0.10654 0.0
C320 C 0.25886 0.30083 0.71391 0.0
C321 C 0.25014 0.24896 0.72751 0.0
C322 C 0.27159 0.19053 0.82655 0.0
C323 C 0.28032 0.24233 0.81217 0.0
N324 N 0.28333 0.34351 0.732 0.0
N325 N 0.24735 0.14627 0.80151 0.0
C326 C 0.27422 0.29665 0.75311 0.0
C327 C 0.25631 0.19416 0.78497 0.0
N328 N 0.25218 0.35497 0.6675 0.0
N329 N 0.27816 0.13728 0.87697 0.0
H330 H 0.23635 0.14661 0.76859 0.0
H331 H 0.2504 0.10691 0.85088 0.0
H332 H 0.28922 0.13342 0.90965 0.0
H333 H 0.27311 0.09567 0.88296 0.0
H334 H 0.25718 0.39686 0.66592 0.0
H335 H 0.24106 0.35946 0.63615 0.0
H336 H 0.28033 0.38137 0.6786 0.0
H337 H 0.29444 0.34297 0.76287 0.0
C338 C 0.75472 0.22864 0.70987 0.0
C339 C 0.75021 0.26352 0.80919 0.0
C340 C 0.77637 0.2917 0.83541 0.0
C341 C 0.78059 0.26071 0.73142 0.0
N342 N 0.77336 0.20847 0.55921 0.0
N343 N 0.75596 0.33673 0.95623 0.0
C344 C 0.76963 0.23162 0.66565 0.0
C345 C 0.76083 0.29747 0.86913 0.0
N346 N 0.74488 0.19109 0.65989 0.0
N347 N 0.78728 0.31395 0.90371 0.0
H348 H 0.7447 0.34208 0.98361 0.0
H349 H 0.76275 0.36786 0.99504 0.0
H350 H 0.79874 0.3111 0.88126 0.0
H351 H 0.78523 0.33073 0.98648 0.0
H352 H 0.74801 0.15914 0.59537 0.0
H353 H 0.73383 0.1882 0.68912 0.0
H354 H 0.76547 0.19294 0.50177 0.0
H355 H 0.78417 0.20951 0.52405 0.0
C356 C 0.278 0.71605 0.37086 0.0
C357 C 0.28108 0.72682 0.25339 0.0
C358 C 0.25368 0.73515 0.21094 0.0
C359 C 0.25055 0.73073 0.32994 0.0
N360 N 0.25965 0.72564 0.52557 0.0
N361 N 0.27189 0.75594 0.06385 0.0
C362 C 0.2627 0.72328 0.41065 0.0
C363 C 0.26891 0.7388 0.17393 0.0
N364 N 0.28969 0.69746 0.44389 0.0
N365 N 0.24209 0.73425 0.13297 0.0
H366 H 0.28286 0.75905 0.03322 0.0
H367 H 0.26348 0.77213 1.00554 0.0
H368 H 0.23081 0.73142 0.1569 0.0
H369 H 0.24378 0.73066 0.04476 0.0
H370 H 0.28809 0.68225 0.52744 0.0
H371 H 0.30101 0.69236 0.41799 0.0
H372 H 0.26798 0.72763 0.58856 0.0
H373 H 0.24864 0.73056 0.55816 0.0
C374 C 0.75641 0.67774 0.30142 0.0
C375 C 0.74625 0.73245 0.31182 0.0
C376 C 0.76686 0.78534 0.40046 0.0
C377 C 0.77755 0.73608 0.36505 0.0
N378 N 0.7824 0.63339 0.28257 0.0
N379 N 0.74094 0.80947 0.45929 0.0
C380 C 0.7723 0.68161 0.31579 0.0
C381 C 0.75107 0.77934 0.38592 0.0
N382 N 0.75076 0.62086 0.29791 0.0
N383 N 0.77171 0.83807 0.44781 0.0
H384 H 0.73002 0.79538 0.46913 0.0
H385 H 0.74406 0.8403 0.52228 0.0
H386 H 0.78318 0.84406 0.46095 0.0
H387 H 0.76434 0.87746 0.46511 0.0
H388 H 0.75758 0.57883 0.30123 0.0
H389 H 0.73919 0.61626 0.30862 0.0
H390 H 0.77917 0.59562 0.23529 0.0
H391 H 0.7941 0.63328 0.29494 0.0
C392 C 0.12847 0.98306 0.5694 0.0
C393 C 0.14026 0.935 0.54831 0.0
C394 C 0.15778 0.01437 0.51392 0.0
C395 C 0.14682 0.06298 0.54879 0.0
N396 N 0.12162 0.0898 0.62665 0.0
N397 N 0.16736 0.90861 0.55229 0.0
C398 C 0.13206 0.04648 0.58056 0.0
C399 C 0.15529 0.95167 0.53714 0.0
N400 N 0.11388 0.96826 0.5833 0.0
N401 N 0.17022 0.02689 0.45181 0.0
H402 H 0.16607 0.86447 0.58469 0.0
H403 H 0.17857 0.92022 0.55056 0.0
H404 H 0.17151 0.0706 0.41674 0.0
H405 H 0.17793 0.99166 0.41986 0.0
H406 H 0.10451 0.00121 0.58014 0.0
H407 H 0.11107 0.92278 0.59592 0.0
H408 H 0.11158 0.07865 0.66489 0.0
H409 H 0.12327 0.13647 0.63497 0.0
C410 C 0.89928 0.45865 0.464 0.0
C411 C 0.88599 0.43843 0.51491 0.0
C412 C 0.87749 0.54755 0.56337 0.0
C413 C 0.89122 0.56754 0.51917 0.0
N414 N 0.91561 0.54177 0.43039 0.0
N415 N 0.86372 0.46188 0.63067 0.0
C416 C 0.90227 0.52282 0.47104 0.0
C417 C 0.87545 0.4825 0.56937 0.0
N418 N 0.90872 0.41686 0.40399 0.0
N419 N 0.86621 0.59088 0.59761 0.0
H420 H 0.8619 0.41484 0.63756 0.0
H421 H 0.85661 0.49046 0.68322 0.0
H422 H 0.86737 0.63845 0.59582 0.0
H423 H 0.85528 0.58032 0.61834 0.0
H424 H 0.91759 0.42898 0.35264 0.0
H425 H 0.90714 0.36963 0.40019 0.0
H426 H 0.92502 0.51135 0.40998 0.0
H427 H 0.91754 0.58846 0.42014 0.0
C428 C 0.89429 0.96143 0.44521 0.0
C429 C 0.88236 0.93812 0.50989 0.0
C430 C 0.87711 0.04184 0.60023 0.0
C431 C 0.88833 0.06587 0.53036 0.0
N432 N 0.90727 0.05067 0.38305 0.0
N433 N 0.86538 0.9517 0.67141 0.0
C434 C 0.8969 0.02604 0.45259 0.0
C435 C 0.87449 0.97736 0.59295 0.0
N436 N 0.90352 0.92154 0.37972 0.0
N437 N 0.8688 0.08118 0.67295 0.0
H438 H 0.86396 0.90423 0.67481 0.0
H439 H 0.86044 0.97557 0.74125 0.0
H440 H 0.8712 0.1271 0.68688 0.0
H441 H 0.85906 0.06992 0.71498 0.0
H442 H 0.91344 0.9333 0.34087 0.0
H443 H 0.902 0.87458 0.37041 0.0
H444 H 0.9125 0.02743 0.31364 0.0
H445 H 0.9101 0.09645 0.39061 0.0
C446 C 0.13064 0.54646 0.54962 0.0
C447 C 0.14544 0.56318 0.52595 0.0
C448 C 0.15375 0.45277 0.48831 0.0
C449 C 0.13889 0.43605 0.51518 0.0
N450 N 0.11224 0.47292 0.51032 0.0
N451 N 0.16952 0.53501 0.43526 0.0
C452 C 0.12702 0.48464 0.52776 0.0
C453 C 0.15658 0.51711 0.48446 0.0
N454 N 0.12005 0.58882 0.5965 0.0
N455 N 0.16525 0.40801 0.46645 0.0
H456 H 0.17165 0.58158 0.42586 0.0
H457 H 0.17736 0.50449 0.39238 0.0
H458 H 0.16355 0.36184 0.45039 0.0
H459 H 0.17666 0.41677 0.46568 0.0
H460 H 0.10957 0.57698 0.62613 0.0
H461 H 0.12229 0.63431 0.61512 0.0
H462 H 0.10329 0.50789 0.51004 0.0
H463 H 0.10923 0.43046 0.47852 0.0
C464 C 0.65236 0.52507 0.09159 0.0
C465 C 0.64446 0.56754 1.01426 0.0
C466 C 0.63433 0.47988 0.91341 0.0
C467 C 0.64105 0.43707 0.99635 0.0
N468 N 0.66126 0.41813 0.13666 0.0
N469 N 0.62574 0.58639 0.86519 0.0
C470 C 0.65135 0.4593 0.07874 0.0
C471 C 0.63484 0.5451 0.9293 0.0
N472 N 0.66068 0.54786 0.17873 0.0
N473 N 0.62871 0.45823 0.8129 0.0
H474 H 0.62589 0.6343 0.87417 0.0
H475 H 0.61708 0.57335 0.81175 0.0
H476 H 0.62966 0.41129 0.79041 0.0
H477 H 0.62513 0.48705 0.74436 0.0
H478 H 0.6651 0.5211 0.24749 0.0
H479 H 0.66213 0.59515 0.18769 0.0
H480 H 0.66977 0.43113 0.19127 0.0
H481 H 0.66259 0.37085 0.11871 0.0
C482 C 0.39569 0.94883 0.92888 0.0
C483 C 0.38527 0.92818 1.00886 0.0
C484 C 0.37792 0.03785 0.06334 0.0
C485 C 0.38867 0.05851 0.98313 0.0
N486 N 0.40234 0.03243 0.80719 0.0
N487 N 0.36693 0.95101 0.1576 0.0
C488 C 0.39605 0.01364 0.90697 0.0
C489 C 0.37651 0.97229 0.07761 0.0
N490 N 0.40561 0.90634 0.87495 0.0
N491 N 0.36814 0.08045 0.11864 0.0
H492 H 0.36506 0.90409 0.16522 0.0
H493 H 0.36146 0.97834 0.22102 0.0
H494 H 0.36717 0.12766 0.10012 0.0
H495 H 0.35961 0.06939 0.17401 0.0
H496 H 0.41465 0.91871 0.82533 0.0
H497 H 0.40585 0.85872 0.89062 0.0
H498 H 0.40649 0.00156 0.74357 0.0
H499 H 0.40143 0.07845 0.77916 0.0
C500 C 0.3759 0.46832 0.11401 0.0
C501 C 0.38377 0.42943 0.03084 0.0
C502 C 0.39841 0.51743 0.97678 0.0
C503 C 0.38905 0.55781 0.04883 0.0
N504 N 0.3683 0.57294 0.18173 0.0
N505 N 0.40283 0.4168 0.88324 0.0
C506 C 0.37762 0.53353 0.11602 0.0
C507 C 0.39524 0.45378 0.96315 0.0
N508 N 0.3675 0.44212 0.19643 0.0
N509 N 0.41056 0.53967 0.92315 0.0
H510 H 0.40178 0.3693 0.87679 0.0
H511 H 0.4097 0.43338 0.81992 0.0
H512 H 0.41287 0.58626 0.92694 0.0
H513 H 0.41894 0.51157 0.88073 0.0
H514 H 0.36274 0.46662 0.26636 0.0
H515 H 0.36678 0.39418 0.20306 0.0
H516 H 0.35852 0.55983 0.2212 0.0
H517 H 0.36973 0.62021 0.19025 0.0
C518 C 0.6343 0.0462 0.96071 0.0
C519 C 0.64542 0.06924 0.03539 0.0
C520 C 0.65116 0.963 0.11322 0.0
C521 C 0.64075 0.93951 0.03536 0.0
N522 N 0.62313 0.95654 0.87841 0.0
N523 N 0.65876 0.05205 0.21641 0.0
C524 C 0.63252 0.9806 0.95726 0.0
C525 C 0.65233 0.02828 0.12081 0.0
N526 N 0.62443 0.08697 0.90139 0.0
N527 N 0.66027 0.92264 0.17922 0.0
H528 H 0.65828 0.09949 0.23444 0.0
H529 H 0.66255 0.02496 0.28667 0.0
H530 H 0.65947 0.87478 0.17841 0.0
H531 H 0.66948 0.9359 0.22654 0.0
H532 H 0.61548 0.0739 0.85139 0.0
H533 H 0.62365 0.13477 0.91404 0.0
H534 H 0.6183 0.98143 0.80886 0.0
H535 H 0.62104 0.90963 0.87716 0.0
C536 C 0.13355 0.2956 0.09901 0.0
C537 C 0.14242 0.24822 0.16074 0.0
C538 C 0.15235 0.20438 0.97709 0.0
C539 C 0.14258 0.2488 0.91537 0.0
N540 N 0.1225 0.33225 0.91718 0.0
N541 N 0.15848 0.15179 0.15848 0.0
C542 C 0.13273 0.29287 0.97641 0.0
C543 C 0.15141 0.20123 0.09964 0.0
N544 N 0.12655 0.3452 0.15722 0.0
N545 N 0.16258 0.1651 0.91851 0.0
H546 H 0.1579 0.14737 0.24748 0.0
H547 H 0.16385 0.1125 0.119 0.0
H548 H 0.16305 0.16352 0.82911 0.0
H549 H 0.17125 0.13685 0.95815 0.0
H550 H 0.12134 0.38476 0.11715 0.0
H551 H 0.12708 0.34959 0.24626 0.0
H552 H 0.11376 0.36006 0.95625 0.0
H553 H 0.12209 0.33424 0.82781 0.0
C554 C 0.89644 0.20738 0.08472 0.0
C555 C 0.88693 0.25309 0.14445 0.0
C556 C 0.8787 0.30106 0.95964 0.0
C557 C 0.88715 0.25207 0.89993 0.0
N558 N 0.9017 0.15197 0.90626 0.0
N559 N 0.86748 0.33909 0.13879 0.0
C560 C 0.89544 0.20356 0.96269 0.0
C561 C 0.87754 0.29843 0.08177 0.0
N562 N 0.90646 0.1674 0.14445 0.0
N563 N 0.8724 0.35178 0.90018 0.0
H564 H 0.86681 0.34092 0.22794 0.0
H565 H 0.85907 0.36811 0.09776 0.0
H566 H 0.87324 0.35603 0.81135 0.0
H567 H 0.86755 0.39215 0.93936 0.0
H568 H 0.91493 0.13806 0.10551 0.0
H569 H 0.90708 0.16673 0.23373 0.0
H570 H 0.90643 0.11196 0.94774 0.0
H571 H 0.90082 0.14653 0.81779 0.0
C572 C 0.1328 0.79279 0.08445 0.0
C573 C 0.14216 0.74884 0.15039 0.0
C574 C 0.15378 0.70597 0.97129 0.0
C575 C 0.1436 0.74661 0.90531 0.0
N576 N 0.1222 0.82427 0.8982 0.0
N577 N 0.1595 0.65575 0.15508 0.0
C578 C 0.13269 0.7884 0.96182 0.0
C579 C 0.15216 0.70347 0.09331 0.0
N580 N 0.12462 0.84096 0.13866 0.0
N581 N 0.16507 0.66968 0.91741 0.0
H582 H 0.15826 0.65092 0.24352 0.0
H583 H 0.16566 0.61758 0.11778 0.0
H584 H 0.16619 0.66787 0.82838 0.0
H585 H 0.17397 0.64474 0.96092 0.0
H586 H 0.11889 0.87846 0.09567 0.0
H587 H 0.12461 0.84656 0.22751 0.0
H588 H 0.11278 0.84962 0.93356 0.0
H589 H 0.12236 0.82585 0.80875 0.0
C590 C 0.88859 0.81117 0.92527 0.0
C591 C 0.8878 0.75402 0.86509 0.0
C592 C 0.88489 0.69983 0.04978 0.0
C593 C 0.88663 0.75617 0.11025 0.0
N594 N 0.89087 0.86495 0.10725 0.0
N595 N 0.88744 0.64231 0.87028 0.0
C596 C 0.88876 0.81159 0.04822 0.0
C597 C 0.88645 0.69797 0.92751 0.0
N598 N 0.88842 0.86567 0.86468 0.0
N599 N 0.88166 0.64794 0.1094 0.0
H600 H 0.88878 0.63886 0.78162 0.0
H601 H 0.88822 0.59905 0.91072 0.0
H602 H 0.8813 0.64621 0.1988 0.0
H603 H 0.87837 0.6077 0.07067 0.0
H604 H 0.88721 0.90973 0.90184 0.0
H605 H 0.88844 0.86737 0.7753 0.0
H606 H 0.89451 0.90487 0.06987 0.0
H607 H 0.88951 0.86852 0.19578 0.0
C608 C 0.64204 0.8078 0.46625 0.0
C609 C 0.64273 0.7492 0.40899 0.0
C610 C 0.64406 0.69544 0.59606 0.0
C611 C 0.64274 0.75394 0.65345 0.0
N612 N 0.63959 0.86594 0.64564 0.0
N613 N 0.64223 0.63763 0.41814 0.0
C614 C 0.64158 0.8102 0.589 0.0
C615 C 0.64305 0.69316 0.4737 0.0
N616 N 0.64164 0.8613 0.40267 0.0
N617 N 0.64707 0.64198 0.6585 0.0
H618 H 0.64213 0.63367 0.329 0.0
H619 H 0.64058 0.59599 0.45969 0.0
H620 H 0.64813 0.64197 0.7475 0.0
H621 H 0.64979 0.59823 0.62249 0.0
H622 H 0.64302 0.90515 0.43634 0.0
H623 H 0.64022 0.86173 0.31389 0.0
H624 H 0.6371 0.90887 0.60584 0.0
H625 H 0.63973 0.86924 0.73486 0.0
C626 C 0.39356 0.68948 0.60043 0.0
C627 C 0.38695 0.74262 0.66 0.0
C628 C 0.38055 0.79514 0.47573 0.0
C629 C 0.38717 0.74207 0.41594 0.0
N630 N 0.39791 0.63533 0.41882 0.0
N631 N 0.37648 0.84971 0.65698 0.0
C632 C 0.39324 0.68846 0.47774 0.0
C633 C 0.38096 0.79631 0.59825 0.0
N634 N 0.40044 0.6405 0.66168 0.0
N635 N 0.37359 0.84408 0.41493 0.0
H636 H 0.37689 0.85249 0.74606 0.0
H637 H 0.37351 0.89267 0.61847 0.0
H638 H 0.37379 0.84625 0.32568 0.0
H639 H 0.36688 0.88089 0.45154 0.0
H640 H 0.40704 0.60325 0.62541 0.0
H641 H 0.40031 0.63858 0.75109 0.0
H642 H 0.40108 0.59248 0.45707 0.0
H643 H 0.39755 0.63266 0.32969 0.0
C644 C 0.63979 0.19586 0.44596 0.0
C645 C 0.64265 0.25081 0.38459 0.0
C646 C 0.64716 0.30398 0.56779 0.0
C647 C 0.64445 0.24886 0.6291 0.0
N648 N 0.64116 0.13907 0.62675 0.0
N649 N 0.64545 0.36097 0.38741 0.0
C650 C 0.64141 0.19409 0.56816 0.0
C651 C 0.64552 0.30574 0.44569 0.0
N652 N 0.63521 0.14557 0.38787 0.0
N653 N 0.65148 0.35467 0.62601 0.0
H654 H 0.64338 0.36481 0.29943 0.0
H655 H 0.64586 0.40419 0.42656 0.0
H656 H 0.65197 0.35722 0.71513 0.0
H657 H 0.65558 0.39308 0.58645 0.0
H658 H 0.63108 0.10729 0.42754 0.0
H659 H 0.63449 0.14337 0.29884 0.0
H660 H 0.64071 0.09586 0.58765 0.0
H661 H 0.64288 0.13533 0.71518 0.0
C662 C 0.38979 0.30187 0.44718 0.0
C663 C 0.38766 0.24606 0.38608 0.0
C664 C 0.38453 0.19138 0.56974 0.0
C665 C 0.38717 0.24653 0.63123 0.0
N666 N 0.38859 0.35745 0.6292 0.0
N667 N 0.38565 0.13526 0.38855 0.0
C668 C 0.38896 0.30256 0.56998 0.0
C669 C 0.38561 0.1903 0.44729 0.0
N670 N 0.39265 0.35427 0.38759 0.0
N671 N 0.38046 0.14039 0.62814 0.0
H672 H 0.38674 0.13217 0.29961 0.0
H673 H 0.38599 0.09175 0.42778 0.0
H674 H 0.37978 0.13855 0.71726 0.0
H675 H 0.37656 0.10148 0.58868 0.0
H676 H 0.39611 0.3944 0.42551 0.0
H677 H 0.39236 0.3569 0.29827 0.0
H678 H 0.38854 0.40118 0.59128 0.0
H679 H 0.38675 0.35994 0.71734 0.0
C680 C 0.02214 0.2892 0.3848 0.0
C681 C 0.03076 0.26132 0.47738 0.0
C682 C 1.00727 0.24029 0.57629 0.0
C683 C 0.99871 0.26343 0.47957 0.0
N684 N 0.99778 0.30357 0.28638 0.0
N685 N 0.0319 0.20286 0.65437 0.0
C686 C 1.00609 0.28631 0.38229 0.0
C687 C 0.02341 0.23488 0.5714 0.0
N688 N 0.02931 0.31956 0.30064 0.0
N689 N 0.99993 0.22493 0.674 0.0
H690 H 0.04374 0.1989 0.65534 0.0
H691 H 0.02728 0.17623 0.71764 0.0
H692 H 0.98812 0.22731 0.68028 0.0
H693 H 1.00544 0.21454 0.75174 0.0
H694 H 0.02361 0.3466 0.23721 0.0
H695 H 0.04106 0.32148 0.29892 0.0
H696 H 1.00258 0.31413 0.20816 0.0
H697 H 0.98599 0.30325 0.28246 0.0
C698 C 1.00648 0.7875 0.62942 0.0
C699 C 0.9992 0.7637 0.53199 0.0
C700 C 0.02416 0.73183 0.44785 0.0
C701 C 0.0314 0.76064 0.54026 0.0
N702 N 0.02935 0.82534 0.70926 0.0
N703 N 1.00102 0.72408 0.33838 0.0
C704 C 0.02251 0.7912 0.62838 0.0
C705 C 1.00803 0.73891 0.43829 0.0
N706 N 0.99813 0.8047 0.72451 0.0
N707 N 0.03266 0.69553 0.37149 0.0
H708 H 0.98926 0.72886 0.32742 0.0
H709 H 1.0069 0.71241 0.26304 0.0
H710 H 0.04448 0.6888 0.37558 0.0
H711 H 0.02794 0.66768 0.31028 0.0
H712 H 1.00296 0.81605 0.80259 0.0
H713 H 0.98641 0.80241 0.72855 0.0
H714 H 0.02335 0.85394 0.7686 0.0
H715 H 0.04101 0.82958 0.71059 0.0
C716 C 0.52197 0.78912 0.89256 0.0
C717 C 0.53093 0.76485 0.98648 0.0
C718 C 0.50776 0.74481 0.09115 0.0
C719 C 0.49888 0.76402 0.99346 0.0
N720 N 0.49744 0.79743 0.796 0.0
N721 N 0.53269 0.71155 0.16881 0.0
C722 C 0.50596 0.78443 0.89271 0.0
C723 C 0.52391 0.74054 0.08417 0.0
N724 N 0.52875 0.81791 0.80443 0.0
N725 N 0.50073 0.73224 0.19177 0.0
H726 H 0.54454 0.70828 0.16792 0.0
H727 H 0.52833 0.68647 0.23549 0.0
H728 H 0.48894 0.73431 0.19996 0.0
H729 H 0.50646 0.7248 0.26952 0.0
H730 H 0.52274 0.84258 0.7394 0.0
H731 H 0.54044 0.82117 0.80079 0.0
H732 H 0.50207 0.80581 0.7161 0.0
H733 H 0.48569 0.79544 0.79352 0.0
C734 C 0.50873 0.23609 0.96276 0.0
C735 C 0.50027 0.26341 0.05599 0.0
C736 C 0.52387 0.29125 0.14758 0.0
C737 C 0.53237 0.25964 0.05882 0.0
N738 N 0.53327 0.19555 0.88887 0.0
N739 N 0.49951 0.31138 0.24282 0.0
C740 C 0.52489 0.23036 0.96817 0.0
C741 C 0.50777 0.2896 0.14999 0.0
N742 N 0.50128 0.21688 0.86778 0.0
N743 N 0.53119 0.32386 0.22817 0.0
H744 H 0.4877 0.31245 0.24601 0.0
H745 H 0.50435 0.32468 0.31959 0.0
H746 H 0.54298 0.32471 0.23038 0.0
H747 H 0.52562 0.35346 0.28802 0.0
H748 H 0.50668 0.20319 0.79156 0.0
H749 H 0.48946 0.21898 0.86167 0.0
H750 H 0.52859 0.16693 0.82887 0.0
H751 H 0.54512 0.19162 0.88779 0.0
loop_
_geom_bond_atom_site_label_1
_geom_bond_atom_site_label_2
_geom_bond_distance
_geom_bond_site_symmetry_2
_ccdc_geom_bond_type
Sm0 C2 2.846 . S
Sm0 O20 2.543 . S
Sm0 O21 2.450 . S
Sm0 O22 2.681 . S
Sm0 O23 2.464 . S
Sm0 O24 2.396 . S
Sm0 O28 2.386 . S
Sm0 O31 2.408 . S
Sm1 C11 2.846 . S
Sm1 O22 2.386 . S
Sm1 O25 2.408 . S
Sm1 O26 2.543 . S
Sm1 O27 2.450 . S
Sm1 O28 2.681 . S
Sm1 O29 2.464 . S
Sm1 O30 2.396 . S
C2 Sm0 2.846 . S
C2 C3 1.506 . S
C2 O20 1.261 . S
C2 O21 1.242 . S
C3 C2 1.506 . S
C3 C4 1.358 . S
C3 C8 1.382 . S
C4 C3 1.358 . S
C4 C5 1.385 . S
C4 H32 0.930 . S
C5 C4 1.385 . S
C5 C6 1.395 . S
C5 H33 0.929 . S
C6 C5 1.395 . S
C6 C7 1.335 . S
C7 C6 1.335 . S
C7 C8 1.398 . S
C7 H34 0.930 . S
C8 C3 1.382 . S
C8 C7 1.398 . S
C8 H35 0.929 . S
C9 O22 1.271 . S
C9 O23 1.251 . S
C10 O24 1.252 . S
C10 O25 1.272 . S
C11 Sm1 2.846 . S
C11 C12 1.506 . S
C11 O26 1.261 . S
C11 O27 1.242 . S
C12 C11 1.506 . S
C12 C13 1.358 . S
C12 C17 1.382 . S
C13 C12 1.358 . S
C13 C14 1.385 . S
C13 H36 0.930 . S
C14 C13 1.385 . S
C14 C15 1.395 . S
C14 H37 0.929 . S
C15 C14 1.395 . S
C15 C16 1.335 . S
C16 C15 1.335 . S
C16 C17 1.398 . S
C16 H38 0.930 . S
C17 C12 1.382 . S
C17 C16 1.398 . S
C17 H39 0.929 . S
C18 O28 1.271 . S
C18 O29 1.251 . S
C19 O30 1.252 . S
C19 O31 1.272 . S
O20 Sm0 2.543 . S
O20 C2 1.261 . S
O21 Sm0 2.450 . S
O21 C2 1.242 . S
O22 Sm0 2.681 . S
O22 Sm1 2.386 . S
O22 C9 1.271 . S
O23 Sm0 2.464 . S
O23 C9 1.251 . S
O24 Sm0 2.396 . S
O24 C10 1.252 . S
O25 Sm1 2.408 . S
O25 C10 1.272 . S
O26 Sm1 2.543 . S
O26 C11 1.261 . S
O27 Sm1 2.450 . S
O27 C11 1.242 . S
O28 Sm0 2.386 . S
O28 Sm1 2.681 . S
O28 C18 1.271 . S
O29 Sm1 2.464 . S
O29 C18 1.251 . S
O30 Sm1 2.396 . S
O30 C19 1.252 . S
O31 Sm0 2.408 . S
O31 C19 1.272 . S
H32 C4 0.930 . S
H33 C5 0.929 . S
H34 C7 0.930 . S
H35 C8 0.929 . S
H36 C13 0.930 . S
H37 C14 0.929 . S
H38 C16 0.930 . S
H39 C17 0.929 . S
Sm40 C42 2.846 . S
Sm40 O60 2.543 . S
Sm40 O61 2.450 . S
Sm40 O62 2.681 . S
Sm40 O63 2.464 . S
Sm40 O64 2.396 . S
Sm40 O68 2.386 . S
Sm40 O71 2.408 . S
Sm41 C51 2.846 . S
Sm41 O62 2.386 . S
Sm41 O65 2.408 . S
Sm41 O66 2.543 . S
Sm41 O67 2.450 . S
Sm41 O68 2.681 . S
Sm41 O69 2.464 . S
Sm41 O70 2.396 . S
C42 Sm40 2.846 . S
C42 C43 1.506 . S
C42 O60 1.261 . S
C42 O61 1.242 . S
C43 C42 1.506 . S
C43 C44 1.358 . S
C43 C48 1.382 . S
C44 C43 1.358 . S
C44 C45 1.385 . S
C44 H72 0.930 . S
C45 C44 1.385 . S
C45 C46 1.395 . S
C45 H73 0.929 . S
C46 C45 1.395 . S
C46 C47 1.335 . S
C47 C46 1.335 . S
C47 C48 1.398 . S
C47 H74 0.930 . S
C48 C43 1.382 . S
C48 C47 1.398 . S
C48 H75 0.929 . S
C49 O62 1.271 . S
C49 O63 1.251 . S
C50 O64 1.252 . S
C50 O65 1.272 . S
C51 Sm41 2.846 . S
C51 C52 1.506 . S
C51 O66 1.261 . S
C51 O67 1.242 . S
C52 C51 1.506 . S
C52 C53 1.358 . S
C52 C57 1.382 . S
C53 C52 1.358 . S
C53 C54 1.385 . S
C53 H76 0.930 . S
C54 C53 1.385 . S
C54 C55 1.395 . S
C54 H77 0.929 . S
C55 C54 1.395 . S
C55 C56 1.335 . S
C56 C55 1.335 . S
C56 C57 1.398 . S
C56 H78 0.930 . S
C57 C52 1.382 . S
C57 C56 1.398 . S
C57 H79 0.929 . S
C58 O68 1.271 . S
C58 O69 1.251 . S
C59 O70 1.252 . S
C59 O71 1.272 . S
O60 Sm40 2.543 . S
O60 C42 1.261 . S
O61 Sm40 2.450 . S
O61 C42 1.242 . S
O62 Sm40 2.681 . S
O62 Sm41 2.386 . S
O62 C49 1.271 . S
O63 Sm40 2.464 . S
O63 C49 1.251 . S
O64 Sm40 2.396 . S
O64 C50 1.252 . S
O65 Sm41 2.408 . S
O65 C50 1.272 . S
O66 Sm41 2.543 . S
O66 C51 1.261 . S
O67 Sm41 2.450 . S
O67 C51 1.242 . S
O68 Sm40 2.386 . S
O68 Sm41 2.681 . S
O68 C58 1.271 . S
O69 Sm41 2.464 . S
O69 C58 1.251 . S
O70 Sm41 2.396 . S
O70 C59 1.252 . S
O71 Sm40 2.408 . S
O71 C59 1.272 . S
H72 C44 0.930 . S
H73 C45 0.929 . S
H74 C47 0.930 . S
H75 C48 0.929 . S
H76 C53 0.930 . S
H77 C54 0.929 . S
H78 C56 0.930 . S
H79 C57 0.929 . S
Sm80 C82 2.846 . S
Sm80 O100 2.543 . S
Sm80 O101 2.450 . S
Sm80 O102 2.681 . S
Sm80 O103 2.464 . S
Sm80 O104 2.396 . S
Sm80 O108 2.386 . S
Sm80 O111 2.408 . S
Sm81 C91 2.846 . S
Sm81 O102 2.386 . S
Sm81 O105 2.408 . S
Sm81 O106 2.543 . S
Sm81 O107 2.450 . S
Sm81 O108 2.681 . S
Sm81 O109 2.464 . S
Sm81 O110 2.396 . S
C82 Sm80 2.846 . S
C82 C83 1.506 . S
C82 O100 1.261 . S
C82 O101 1.242 . S
C83 C82 1.506 . S
C83 C84 1.358 . S
C83 C88 1.382 . S
C84 C83 1.358 . S
C84 C85 1.385 . S
C84 H112 0.930 . S
C85 C84 1.385 . S
C85 C86 1.395 . S
C85 H113 0.929 . S
C86 C85 1.395 . S
C86 C87 1.335 . S
C87 C86 1.335 . S
C87 C88 1.398 . S
C87 H114 0.930 . S
C88 C83 1.382 . S
C88 C87 1.398 . S
C88 H115 0.929 . S
C89 O102 1.271 . S
C89 O103 1.251 . S
C90 O104 1.252 . S
C90 O105 1.272 . S
C91 Sm81 2.846 . S
C91 C92 1.506 . S
C91 O106 1.261 . S
C91 O107 1.242 . S
C92 C91 1.506 . S
C92 C93 1.358 . S
C92 C97 1.382 . S
C93 C92 1.358 . S
C93 C94 1.385 . S
C93 H116 0.930 . S
C94 C93 1.385 . S
C94 C95 1.395 . S
C94 H117 0.929 . S
C95 C94 1.395 . S
C95 C96 1.335 . S
C96 C95 1.335 . S
C96 C97 1.398 . S
C96 H118 0.930 . S
C97 C92 1.382 . S
C97 C96 1.398 . S
C97 H119 0.929 . S
C98 O108 1.271 . S
C98 O109 1.251 . S
C99 O110 1.252 . S
C99 O111 1.272 . S
O100 Sm80 2.543 . S
O100 C82 1.261 . S
O101 Sm80 2.450 . S
O101 C82 1.242 . S
O102 Sm80 2.681 . S
O102 Sm81 2.386 . S
O102 C89 1.271 . S
O103 Sm80 2.464 . S
O103 C89 1.251 . S
O104 Sm80 2.396 . S
O104 C90 1.252 . S
O105 Sm81 2.408 . S
O105 C90 1.272 . S
O106 Sm81 2.543 . S
O106 C91 1.261 . S
O107 Sm81 2.450 . S
O107 C91 1.242 . S
O108 Sm80 2.386 . S
O108 Sm81 2.681 . S
O108 C98 1.271 . S
O109 Sm81 2.464 . S
O109 C98 1.251 . S
O110 Sm81 2.396 . S
O110 C99 1.252 . S
O111 Sm80 2.408 . S
O111 C99 1.272 . S
H112 C84 0.930 . S
H113 C85 0.929 . S
H114 C87 0.930 . S
H115 C88 0.929 . S
H116 C93 0.930 . S
H117 C94 0.929 . S
H118 C96 0.930 . S
H119 C97 0.929 . S
Sm120 C122 2.846 . S
Sm120 O140 2.543 . S
Sm120 O141 2.450 . S
Sm120 O142 2.681 . S
Sm120 O143 2.464 . S
Sm120 O144 2.396 . S
Sm120 O148 2.386 . S
Sm120 O151 2.408 . S
Sm121 C131 2.846 . S
Sm121 O142 2.386 . S
Sm121 O145 2.408 . S
Sm121 O146 2.543 . S
Sm121 O147 2.450 . S
Sm121 O148 2.681 . S
Sm121 O149 2.464 . S
Sm121 O150 2.396 . S
C122 Sm120 2.846 . S
C122 C123 1.506 . S
C122 O140 1.261 . S
C122 O141 1.242 . S
C123 C122 1.506 . S
C123 C124 1.358 . S
C123 C128 1.382 . S
C124 C123 1.358 . S
C124 C125 1.385 . S
C124 H152 0.930 . S
C125 C124 1.385 . S
C125 C126 1.395 . S
C125 H153 0.929 . S
C126 C125 1.395 . S
C126 C127 1.335 . S
C127 C126 1.335 . S
C127 C128 1.398 . S
C127 H154 0.930 . S
C128 C123 1.382 . S
C128 C127 1.398 . S
C128 H155 0.929 . S
C129 O142 1.271 . S
C129 O143 1.251 . S
C130 O144 1.252 . S
C130 O145 1.272 . S
C131 Sm121 2.846 . S
C131 C132 1.506 . S
C131 O146 1.261 . S
C131 O147 1.242 . S
C132 C131 1.506 . S
C132 C133 1.358 . S
C132 C137 1.382 . S
C133 C132 1.358 . S
C133 C134 1.385 . S
C133 H156 0.930 . S
C134 C133 1.385 . S
C134 C135 1.395 . S
C134 H157 0.929 . S
C135 C134 1.395 . S
C135 C136 1.335 . S
C136 C135 1.335 . S
C136 C137 1.398 . S
C136 H158 0.930 . S
C137 C132 1.382 . S
C137 C136 1.398 . S
C137 H159 0.929 . S
C138 O148 1.271 . S
C138 O149 1.251 . S
C139 O150 1.252 . S
C139 O151 1.272 . S
O140 Sm120 2.543 . S
O140 C122 1.261 . S
O141 Sm120 2.450 . S
O141 C122 1.242 . S
O142 Sm120 2.681 . S
O142 Sm121 2.386 . S
O142 C129 1.271 . S
O143 Sm120 2.464 . S
O143 C129 1.251 . S
O144 Sm120 2.396 . S
O144 C130 1.252 . S
O145 Sm121 2.408 . S
O145 C130 1.272 . S
O146 Sm121 2.543 . S
O146 C131 1.261 . S
O147 Sm121 2.450 . S
O147 C131 1.242 . S
O148 Sm120 2.386 . S
O148 Sm121 2.681 . S
O148 C138 1.271 . S
O149 Sm121 2.464 . S
O149 C138 1.251 . S
O150 Sm121 2.396 . S
O150 C139 1.252 . S
O151 Sm120 2.408 . S
O151 C139 1.272 . S
H152 C124 0.930 . S
H153 C125 0.929 . S
H154 C127 0.930 . S
H155 C128 0.929 . S
H156 C133 0.930 . S
H157 C134 0.929 . S
H158 C136 0.930 . S
H159 C137 0.929 . S
Sm160 C162 2.846 1_556 S
Sm160 O180 2.543 1_556 S
Sm160 O181 2.450 1_556 S
Sm160 O182 2.681 . S
Sm160 O183 2.464 . S
Sm160 O184 2.396 1_556 S
Sm160 O188 2.386 1_556 S
Sm160 O191 2.408 . S
Sm161 C171 2.846 1_554 S
Sm161 O182 2.386 1_554 S
Sm161 O185 2.408 . S
Sm161 O186 2.543 1_554 S
Sm161 O187 2.450 1_554 S
Sm161 O188 2.681 . S
Sm161 O189 2.464 . S
Sm161 O190 2.396 1_554 S
C162 Sm160 2.846 1_554 S
C162 C163 1.506 . S
C162 O180 1.261 . S
C162 O181 1.242 . S
C163 C162 1.506 . S
C163 C164 1.358 . S
C163 C168 1.382 . S
C164 C163 1.358 . S
C164 C165 1.385 . S
C164 H192 0.930 . S
C165 C164 1.385 . S
C165 C166 1.395 . S
C165 H193 0.929 . S
C166 C165 1.395 . S
C166 C167 1.335 . S
C167 C166 1.335 . S
C167 C168 1.398 . S
C167 H194 0.930 . S
C168 C163 1.382 . S
C168 C167 1.398 . S
C168 H195 0.929 . S
C169 O182 1.271 . S
C169 O183 1.251 . S
C170 O184 1.252 . S
C170 O185 1.272 . S
C171 Sm161 2.846 1_556 S
C171 C172 1.506 . S
C171 O186 1.261 . S
C171 O187 1.242 . S
C172 C171 1.506 . S
C172 C173 1.358 . S
C172 C177 1.382 . S
C173 C172 1.358 . S
C173 C174 1.385 . S
C173 H196 0.930 . S
C174 C173 1.385 . S
C174 C175 1.395 . S
C174 H197 0.929 . S
C175 C174 1.395 . S
C175 C176 1.335 . S
C176 C175 1.335 . S
C176 C177 1.398 . S
C176 H198 0.930 . S
C177 C172 1.382 . S
C177 C176 1.398 . S
C177 H199 0.929 . S
C178 O188 1.271 . S
C178 O189 1.251 . S
C179 O190 1.252 . S
C179 O191 1.272 . S
O180 Sm160 2.543 1_554 S
O180 C162 1.261 . S
O181 Sm160 2.450 1_554 S
O181 C162 1.242 . S
O182 Sm160 2.681 . S
O182 Sm161 2.386 1_556 S
O182 C169 1.271 . S
O183 Sm160 2.464 . S
O183 C169 1.251 . S
O184 Sm160 2.396 1_554 S
O184 C170 1.252 . S
O185 Sm161 2.408 . S
O185 C170 1.272 . S
O186 Sm161 2.543 1_556 S
O186 C171 1.261 . S
O187 Sm161 2.450 1_556 S
O187 C171 1.242 . S
O188 Sm160 2.386 1_554 S
O188 Sm161 2.681 . S
O188 C178 1.271 . S
O189 Sm161 2.464 . S
O189 C178 1.251 . S
O190 Sm161 2.396 1_556 S
O190 C179 1.252 . S
O191 Sm160 2.408 . S
O191 C179 1.272 . S
H192 C164 0.930 . S
H193 C165 0.929 . S
H194 C167 0.930 . S
H195 C168 0.929 . S
H196 C173 0.930 . S
H197 C174 0.929 . S
H198 C176 0.930 . S
H199 C177 0.929 . S
Sm200 C202 2.846 1_556 S
Sm200 O220 2.543 1_556 S
Sm200 O221 2.450 1_556 S
Sm200 O222 2.681 . S
Sm200 O223 2.464 . S
Sm200 O224 2.396 1_556 S
Sm200 O228 2.386 1_556 S
Sm200 O231 2.408 . S
Sm201 C211 2.846 1_554 S
Sm201 O222 2.386 1_554 S
Sm201 O225 2.408 . S
Sm201 O226 2.543 1_554 S
Sm201 O227 2.450 1_554 S
Sm201 O228 2.681 . S
Sm201 O229 2.464 . S
Sm201 O230 2.396 1_554 S
C202 Sm200 2.846 1_554 S
C202 C203 1.506 . S
C202 O220 1.261 . S
C202 O221 1.242 . S
C203 C202 1.506 . S
C203 C204 1.358 . S
C203 C208 1.382 . S
C204 C203 1.358 . S
C204 C205 1.385 . S
C204 H232 0.930 . S
C205 C204 1.385 . S
C205 C206 1.395 . S
C205 H233 0.929 . S
C206 C205 1.395 . S
C206 C207 1.335 . S
C207 C206 1.335 . S
C207 C208 1.398 . S
C207 H234 0.930 . S
C208 C203 1.382 . S
C208 C207 1.398 . S
C208 H235 0.929 . S
C209 O222 1.271 . S
C209 O223 1.251 . S
C210 O224 1.252 . S
C210 O225 1.272 . S
C211 Sm201 2.846 1_556 S
C211 C212 1.506 . S
C211 O226 1.261 . S
C211 O227 1.242 . S
C212 C211 1.506 . S
C212 C213 1.358 . S
C212 C217 1.382 . S
C213 C212 1.358 . S
C213 C214 1.385 . S
C213 H236 0.930 . S
C214 C213 1.385 . S
C214 C215 1.395 . S
C214 H237 0.929 . S
C215 C214 1.395 . S
C215 C216 1.335 . S
C216 C215 1.335 . S
C216 C217 1.398 . S
C216 H238 0.930 . S
C217 C212 1.382 . S
C217 C216 1.398 . S
C217 H239 0.929 . S
C218 O228 1.271 . S
C218 O229 1.251 . S
C219 O230 1.252 . S
C219 O231 1.272 . S
O220 Sm200 2.543 1_554 S
O220 C202 1.261 . S
O221 Sm200 2.450 1_554 S
O221 C202 1.242 . S
O222 Sm200 2.681 . S
O222 Sm201 2.386 1_556 S
O222 C209 1.271 . S
O223 Sm200 2.464 . S
O223 C209 1.251 . S
O224 Sm200 2.396 1_554 S
O224 C210 1.252 . S
O225 Sm201 2.408 . S
O225 C210 1.272 . S
O226 Sm201 2.543 1_556 S
O226 C211 1.261 . S
O227 Sm201 2.450 1_556 S
O227 C211 1.242 . S
O228 Sm200 2.386 1_554 S
O228 Sm201 2.681 . S
O228 C218 1.271 . S
O229 Sm201 2.464 . S
O229 C218 1.251 . S
O230 Sm201 2.396 1_556 S
O230 C219 1.252 . S
O231 Sm200 2.408 . S
O231 C219 1.272 . S
H232 C204 0.930 . S
H233 C205 0.929 . S
H234 C207 0.930 . S
H235 C208 0.929 . S
H236 C213 0.930 . S
H237 C214 0.929 . S
H238 C216 0.930 . S
H239 C217 0.929 . S
Sm240 C242 2.846 1_556 S
Sm240 O260 2.543 1_556 S
Sm240 O261 2.450 1_556 S
Sm240 O262 2.681 . S
Sm240 O263 2.464 . S
Sm240 O264 2.396 1_556 S
Sm240 O268 2.386 1_556 S
Sm240 O271 2.408 . S
Sm241 C251 2.846 1_554 S
Sm241 O262 2.386 1_554 S
Sm241 O265 2.408 . S
Sm241 O266 2.543 1_554 S
Sm241 O267 2.450 1_554 S
Sm241 O268 2.681 . S
Sm241 O269 2.464 . S
Sm241 O270 2.396 1_554 S
C242 Sm240 2.846 1_554 S
C242 C243 1.506 . S
C242 O260 1.261 . S
C242 O261 1.242 . S
C243 C242 1.506 . S
C243 C244 1.358 . S
C243 C248 1.382 . S
C244 C243 1.358 . S
C244 C245 1.385 . S
C244 H272 0.930 . S
C245 C244 1.385 . S
C245 C246 1.395 . S
C245 H273 0.929 . S
C246 C245 1.395 . S
C246 C247 1.335 . S
C247 C246 1.335 . S
C247 C248 1.398 . S
C247 H274 0.930 . S
C248 C243 1.382 . S
C248 C247 1.398 . S
C248 H275 0.929 . S
C249 O262 1.271 . S
C249 O263 1.251 . S
C250 O264 1.252 . S
C250 O265 1.272 . S
C251 Sm241 2.846 1_556 S
C251 C252 1.506 . S
C251 O266 1.261 . S
C251 O267 1.242 . S
C252 C251 1.506 . S
C252 C253 1.358 . S
C252 C257 1.382 . S
C253 C252 1.358 . S
C253 C254 1.385 . S
C253 H276 0.930 . S
C254 C253 1.385 . S
C254 C255 1.395 . S
C254 H277 0.929 . S
C255 C254 1.395 . S
C255 C256 1.335 . S
C256 C255 1.335 . S
C256 C257 1.398 . S
C256 H278 0.930 . S
C257 C252 1.382 . S
C257 C256 1.398 . S
C257 H279 0.929 . S
C258 O268 1.271 . S
C258 O269 1.251 . S
C259 O270 1.252 . S
C259 O271 1.272 . S
O260 Sm240 2.543 1_554 S
O260 C242 1.261 . S
O261 Sm240 2.450 1_554 S
O261 C242 1.242 . S
O262 Sm240 2.681 . S
O262 Sm241 2.386 1_556 S
O262 C249 1.271 . S
O263 Sm240 2.464 . S
O263 C249 1.251 . S
O264 Sm240 2.396 1_554 S
O264 C250 1.252 . S
O265 Sm241 2.408 . S
O265 C250 1.272 . S
O266 Sm241 2.543 1_556 S
O266 C251 1.261 . S
O267 Sm241 2.450 1_556 S
O267 C251 1.242 . S
O268 Sm240 2.386 1_554 S
O268 Sm241 2.681 . S
O268 C258 1.271 . S
O269 Sm241 2.464 . S
O269 C258 1.251 . S
O270 Sm241 2.396 1_556 S
O270 C259 1.252 . S
O271 Sm240 2.408 . S
O271 C259 1.272 . S
H272 C244 0.930 . S
H273 C245 0.929 . S
H274 C247 0.930 . S
H275 C248 0.929 . S
H276 C253 0.930 . S
H277 C254 0.929 . S
H278 C256 0.930 . S
H279 C257 0.929 . S
Sm280 C282 2.846 1_556 S
Sm280 O300 2.543 1_556 S
Sm280 O301 2.450 1_556 S
Sm280 O302 2.681 . S
Sm280 O303 2.464 . S
Sm280 O304 2.396 1_556 S
Sm280 O308 2.386 1_556 S
Sm280 O311 2.408 . S
Sm281 C291 2.846 1_554 S
Sm281 O302 2.386 1_554 S
Sm281 O305 2.408 . S
Sm281 O306 2.543 1_554 S
Sm281 O307 2.450 1_554 S
Sm281 O308 2.681 . S
Sm281 O309 2.464 . S
Sm281 O310 2.396 1_554 S
C282 Sm280 2.846 1_554 S
C282 C283 1.506 . S
C282 O300 1.261 . S
C282 O301 1.242 . S
C283 C282 1.506 . S
C283 C284 1.358 . S
C283 C288 1.382 . S
C284 C283 1.358 . S
C284 C285 1.385 . S
C284 H312 0.930 . S
C285 C284 1.385 . S
C285 C286 1.395 . S
C285 H313 0.929 . S
C286 C285 1.395 . S
C286 C287 1.335 . S
C287 C286 1.335 . S
C287 C288 1.398 . S
C287 H314 0.930 . S
C288 C283 1.382 . S
C288 C287 1.398 . S
C288 H315 0.929 . S
C289 O302 1.271 . S
C289 O303 1.251 . S
C290 O304 1.252 . S
C290 O305 1.272 . S
C291 Sm281 2.846 1_556 S
C291 C292 1.506 . S
C291 O306 1.261 . S
C291 O307 1.242 . S
C292 C291 1.506 . S
C292 C293 1.358 . S
C292 C297 1.382 . S
C293 C292 1.358 . S
C293 C294 1.385 . S
C293 H316 0.930 . S
C294 C293 1.385 . S
C294 C295 1.395 . S
C294 H317 0.929 . S
C295 C294 1.395 . S
C295 C296 1.335 . S
C296 C295 1.335 . S
C296 C297 1.398 . S
C296 H318 0.930 . S
C297 C292 1.382 . S
C297 C296 1.398 . S
C297 H319 0.929 . S
C298 O308 1.271 . S
C298 O309 1.251 . S
C299 O310 1.252 . S
C299 O311 1.272 . S
O300 Sm280 2.543 1_554 S
O300 C282 1.261 . S
O301 Sm280 2.450 1_554 S
O301 C282 1.242 . S
O302 Sm280 2.681 . S
O302 Sm281 2.386 1_556 S
O302 C289 1.271 . S
O303 Sm280 2.464 . S
O303 C289 1.251 . S
O304 Sm280 2.396 1_554 S
O304 C290 1.252 . S
O305 Sm281 2.408 . S
O305 C290 1.272 . S
O306 Sm281 2.543 1_556 S
O306 C291 1.261 . S
O307 Sm281 2.450 1_556 S
O307 C291 1.242 . S
O308 Sm280 2.386 1_554 S
O308 Sm281 2.681 . S
O308 C298 1.271 . S
O309 Sm281 2.464 . S
O309 C298 1.251 . S
O310 Sm281 2.396 1_556 S
O310 C299 1.252 . S
O311 Sm280 2.408 . S
O311 C299 1.272 . S
H312 C284 0.930 . S
H313 C285 0.929 . S
H314 C287 0.930 . S
H315 C288 0.929 . S
H316 C293 0.930 . S
H317 C294 0.929 . S
H318 C296 0.930 . S
H319 C297 0.929 . S
C320 C321 1.363 . S
C320 C326 1.379 . S
C320 N328 1.356 . S
C321 C320 1.363 . S
C321 C327 1.363 . S
C322 C323 1.363 . S
C322 C327 1.379 . S
C322 N329 1.356 . S
C323 C322 1.363 . S
C323 C326 1.363 . S
N324 C326 1.356 . S
N324 H336 0.984 . S
N324 H337 0.985 . S
N325 C327 1.356 . S
N325 H330 0.984 . S
N325 H331 0.985 . S
C326 C320 1.379 . S
C326 C323 1.363 . S
C326 N324 1.356 . S
C327 C321 1.363 . S
C327 C322 1.379 . S
C327 N325 1.356 . S
N328 C320 1.356 . S
N328 H334 0.984 . S
N328 H335 0.984 . S
N329 C322 1.356 . S
N329 H332 0.984 . S
N329 H333 0.985 . S
H330 N325 0.984 . S
H331 N325 0.985 . S
H332 N329 0.984 . S
H333 N329 0.985 . S
H334 N328 0.984 . S
H335 N328 0.984 . S
H336 N324 0.984 . S
H337 N324 0.985 . S
C338 C339 1.363 . S
C338 C344 1.379 . S
C338 N346 1.356 . S
C339 C338 1.363 . S
C339 C345 1.363 . S
C340 C341 1.363 . S
C340 C345 1.379 . S
C340 N347 1.356 . S
C341 C340 1.363 . S
C341 C344 1.363 . S
N342 C344 1.356 . S
N342 H354 0.984 . S
N342 H355 0.985 . S
N343 C345 1.356 . S
N343 H348 0.984 . S
N343 H349 0.985 . S
C344 C338 1.379 . S
C344 C341 1.363 . S
C344 N342 1.356 . S
C345 C339 1.363 . S
C345 C340 1.379 . S
C345 N343 1.356 . S
N346 C338 1.356 . S
N346 H352 0.984 . S
N346 H353 0.984 . S
N347 C340 1.356 . S
N347 H350 0.984 . S
N347 H351 0.985 . S
H348 N343 0.984 . S
H349 N343 0.985 . S
H350 N347 0.984 . S
H351 N347 0.985 . S
H352 N346 0.984 . S
H353 N346 0.984 . S
H354 N342 0.984 . S
H355 N342 0.985 . S
C356 C357 1.363 . S
C356 C362 1.379 . S
C356 N364 1.356 . S
C357 C356 1.363 . S
C357 C363 1.363 . S
C358 C359 1.363 . S
C358 C363 1.379 . S
C358 N365 1.356 . S
C359 C358 1.363 . S
C359 C362 1.363 . S
N360 C362 1.356 . S
N360 H372 0.984 . S
N360 H373 0.985 . S
N361 C363 1.356 . S
N361 H366 0.984 . S
N361 H367 0.985 . S
C362 C356 1.379 . S
C362 C359 1.363 . S
C362 N360 1.356 . S
C363 C357 1.363 . S
C363 C358 1.379 . S
C363 N361 1.356 . S
N364 C356 1.356 . S
N364 H370 0.984 . S
N364 H371 0.984 . S
N365 C358 1.356 . S
N365 H368 0.984 . S
N365 H369 0.985 . S
H366 N361 0.984 . S
H367 N361 0.985 . S
H368 N365 0.984 . S
H369 N365 0.985 . S
H370 N364 0.984 . S
H371 N364 0.984 . S
H372 N360 0.984 . S
H373 N360 0.985 . S
C374 C375 1.363 . S
C374 C380 1.379 . S
C374 N382 1.356 . S
C375 C374 1.363 . S
C375 C381 1.363 . S
C376 C377 1.363 . S
C376 C381 1.379 . S
C376 N383 1.356 . S
C377 C376 1.363 . S
C377 C380 1.363 . S
N378 C380 1.356 . S
N378 H390 0.984 . S
N378 H391 0.985 . S
N379 C381 1.356 . S
N379 H384 0.984 . S
N379 H385 0.985 . S
C380 C374 1.379 . S
C380 C377 1.363 . S
C380 N378 1.356 . S
C381 C375 1.363 . S
C381 C376 1.379 . S
C381 N379 1.356 . S
N382 C374 1.356 . S
N382 H388 0.984 . S
N382 H389 0.984 . S
N383 C376 1.356 . S
N383 H386 0.984 . S
N383 H387 0.985 . S
H384 N379 0.984 . S
H385 N379 0.985 . S
H386 N383 0.984 . S
H387 N383 0.985 . S
H388 N382 0.984 . S
H389 N382 0.984 . S
H390 N378 0.984 . S
H391 N378 0.985 . S
C392 C393 1.363 . S
C392 C398 1.379 1_565 S
C392 N400 1.356 . S
C393 C392 1.363 . S
C393 C399 1.363 . S
C394 C395 1.363 . S
C394 C399 1.379 1_545 S
C394 N401 1.356 . S
C395 C394 1.363 . S
C395 C398 1.363 . S
N396 C398 1.356 . S
N396 H408 0.984 . S
N396 H409 0.985 . S
N397 C399 1.356 . S
N397 H402 0.984 . S
N397 H403 0.985 . S
C398 C392 1.379 1_545 S
C398 C395 1.363 . S
C398 N396 1.356 . S
C399 C393 1.363 . S
C399 C394 1.379 1_565 S
C399 N397 1.356 . S
N400 C392 1.356 . S
N400 H406 0.984 . S
N400 H407 0.984 . S
N401 C394 1.356 . S
N401 H404 0.984 . S
N401 H405 0.985 . S
H402 N397 0.984 . S
H403 N397 0.985 . S
H404 N401 0.984 . S
H405 N401 0.985 . S
H406 N400 0.984 . S
H407 N400 0.984 . S
H408 N396 0.984 . S
H409 N396 0.985 . S
C410 C411 1.363 . S
C410 C416 1.379 . S
C410 N418 1.356 . S
C411 C410 1.363 . S
C411 C417 1.363 . S
C412 C413 1.363 . S
C412 C417 1.379 . S
C412 N419 1.356 . S
C413 C412 1.363 . S
C413 C416 1.363 . S
N414 C416 1.356 . S
N414 H426 0.984 . S
N414 H427 0.985 . S
N415 C417 1.356 . S
N415 H420 0.984 . S
N415 H421 0.985 . S
C416 C410 1.379 . S
C416 C413 1.363 . S
C416 N414 1.356 . S
C417 C411 1.363 . S
C417 C412 1.379 . S
C417 N415 1.356 . S
N418 C410 1.356 . S
N418 H424 0.984 . S
N418 H425 0.984 . S
N419 C412 1.356 . S
N419 H422 0.984 . S
N419 H423 0.985 . S
H420 N415 0.984 . S
H421 N415 0.985 . S
H422 N419 0.984 . S
H423 N419 0.985 . S
H424 N418 0.984 . S
H425 N418 0.984 . S
H426 N414 0.984 . S
H427 N414 0.985 . S
C428 C429 1.363 . S
C428 C434 1.379 1_565 S
C428 N436 1.356 . S
C429 C428 1.363 . S
C429 C435 1.363 . S
C430 C431 1.363 . S
C430 C435 1.379 1_545 S
C430 N437 1.356 . S
C431 C430 1.363 . S
C431 C434 1.363 . S
N432 C434 1.356 . S
N432 H444 0.984 . S
N432 H445 0.985 . S
N433 C435 1.356 . S
N433 H438 0.984 . S
N433 H439 0.985 . S
C434 C428 1.379 1_545 S
C434 C431 1.363 . S
C434 N432 1.356 . S
C435 C429 1.363 . S
C435 C430 1.379 1_565 S
C435 N433 1.356 . S
N436 C428 1.356 . S
N436 H442 0.984 . S
N436 H443 0.984 . S
N437 C430 1.356 . S
N437 H440 0.984 . S
N437 H441 0.985 . S
H438 N433 0.984 . S
H439 N433 0.985 . S
H440 N437 0.984 . S
H441 N437 0.985 . S
H442 N436 0.984 . S
H443 N436 0.984 . S
H444 N432 0.984 . S
H445 N432 0.985 . S
C446 C447 1.363 . S
C446 C452 1.379 . S
C446 N454 1.356 . S
C447 C446 1.363 . S
C447 C453 1.363 . S
C448 C449 1.363 . S
C448 C453 1.379 . S
C448 N455 1.356 . S
C449 C448 1.363 . S
C449 C452 1.363 . S
N450 C452 1.356 . S
N450 H462 0.984 . S
N450 H463 0.985 . S
N451 C453 1.356 . S
N451 H456 0.984 . S
N451 H457 0.985 . S
C452 C446 1.379 . S
C452 C449 1.363 . S
C452 N450 1.356 . S
C453 C447 1.363 . S
C453 C448 1.379 . S
C453 N451 1.356 . S
N454 C446 1.356 . S
N454 H460 0.984 . S
N454 H461 0.984 . S
N455 C448 1.356 . S
N455 H458 0.984 . S
N455 H459 0.985 . S
H456 N451 0.984 . S
H457 N451 0.985 . S
H458 N455 0.984 . S
H459 N455 0.985 . S
H460 N454 0.984 . S
H461 N454 0.984 . S
H462 N450 0.984 . S
H463 N450 0.985 . S
C464 C465 1.363 1_554 S
C464 C470 1.379 . S
C464 N472 1.356 . S
C465 C464 1.363 1_556 S
C465 C471 1.363 . S
C466 C467 1.363 . S
C466 C471 1.379 . S
C466 N473 1.356 . S
C467 C466 1.363 . S
C467 C470 1.363 1_556 S
N468 C470 1.356 . S
N468 H480 0.984 . S
N468 H481 0.985 . S
N469 C471 1.356 . S
N469 H474 0.984 . S
N469 H475 0.985 . S
C470 C464 1.379 . S
C470 C467 1.363 1_554 S
C470 N468 1.356 . S
C471 C465 1.363 . S
C471 C466 1.379 . S
C471 N469 1.356 . S
N472 C464 1.356 . S
N472 H478 0.984 . S
N472 H479 0.984 . S
N473 C466 1.356 . S
N473 H476 0.984 . S
N473 H477 0.985 . S
H474 N469 0.984 . S
H475 N469 0.985 . S
H476 N473 0.984 . S
H477 N473 0.985 . S
H478 N472 0.984 . S
H479 N472 0.984 . S
H480 N468 0.984 . S
H481 N468 0.985 . S
C482 C483 1.363 . S
C482 C488 1.379 1_565 S
C482 N490 1.356 . S
C483 C482 1.363 . S
C483 C489 1.363 1_556 S
C484 C485 1.363 1_554 S
C484 C489 1.379 1_545 S
C484 N491 1.356 . S
C485 C484 1.363 1_556 S
C485 C488 1.363 . S
N486 C488 1.356 . S
N486 H498 0.984 . S
N486 H499 0.985 . S
N487 C489 1.356 . S
N487 H492 0.984 . S
N487 H493 0.985 . S
C488 C482 1.379 1_545 S
C488 C485 1.363 . S
C488 N486 1.356 . S
C489 C483 1.363 1_554 S
C489 C484 1.379 1_565 S
C489 N487 1.356 . S
N490 C482 1.356 . S
N490 H496 0.984 . S
N490 H497 0.984 . S
N491 C484 1.356 . S
N491 H494 0.984 . S
N491 H495 0.985 . S
H492 N487 0.984 . S
H493 N487 0.985 . S
H494 N491 0.984 . S
H495 N491 0.985 . S
H496 N490 0.984 . S
H497 N490 0.984 . S
H498 N486 0.984 . S
H499 N486 0.985 . S
C500 C501 1.363 . S
C500 C506 1.379 . S
C500 N508 1.356 . S
C501 C500 1.363 . S
C501 C507 1.363 1_554 S
C502 C503 1.363 1_556 S
C502 C507 1.379 . S
C502 N509 1.356 . S
C503 C502 1.363 1_554 S
C503 C506 1.363 . S
N504 C506 1.356 . S
N504 H516 0.984 . S
N504 H517 0.985 . S
N505 C507 1.356 . S
N505 H510 0.984 . S
N505 H511 0.985 . S
C506 C500 1.379 . S
C506 C503 1.363 . S
C506 N504 1.356 . S
C507 C501 1.363 1_556 S
C507 C502 1.379 . S
C507 N505 1.356 . S
N508 C500 1.356 . S
N508 H514 0.984 . S
N508 H515 0.984 . S
N509 C502 1.356 . S
N509 H512 0.984 . S
N509 H513 0.985 . S
H510 N505 0.984 . S
H511 N505 0.985 . S
H512 N509 0.984 . S
H513 N509 0.985 . S
H514 N508 0.984 . S
H515 N508 0.984 . S
H516 N504 0.984 . S
H517 N504 0.985 . S
C518 C519 1.363 1_556 S
C518 C524 1.379 1_545 S
C518 N526 1.356 . S
C519 C518 1.363 1_554 S
C519 C525 1.363 . S
C520 C521 1.363 . S
C520 C525 1.379 1_565 S
C520 N527 1.356 . S
C521 C520 1.363 . S
C521 C524 1.363 1_554 S
N522 C524 1.356 . S
N522 H534 0.984 . S
N522 H535 0.985 . S
N523 C525 1.356 . S
N523 H528 0.984 . S
N523 H529 0.985 . S
C524 C518 1.379 1_565 S
C524 C521 1.363 1_556 S
C524 N522 1.356 . S
C525 C519 1.363 . S
C525 C520 1.379 1_545 S
C525 N523 1.356 . S
N526 C518 1.356 . S
N526 H532 0.984 . S
N526 H533 0.984 . S
N527 C520 1.356 . S
N527 H530 0.984 . S
N527 H531 0.985 . S
H528 N523 0.984 . S
H529 N523 0.985 . S
H530 N527 0.984 . S
H531 N527 0.985 . S
H532 N526 0.984 . S
H533 N526 0.984 . S
H534 N522 0.984 . S
H535 N522 0.985 . S
C536 C537 1.363 1_556 S
C536 C542 1.379 . S
C536 N544 1.356 1_556 S
C537 C536 1.363 1_554 S
C537 C543 1.363 1_554 S
C538 C539 1.363 . S
C538 C543 1.379 . S
C538 N545 1.356 . S
C539 C538 1.363 . S
C539 C542 1.363 . S
N540 C542 1.356 . S
N540 H552 0.984 . S
N540 H553 0.985 . S
N541 C543 1.356 1_554 S
N541 H546 0.984 . S
N541 H547 0.985 . S
C542 C536 1.379 . S
C542 C539 1.363 . S
C542 N540 1.356 . S
C543 C537 1.363 1_556 S
C543 C538 1.379 . S
C543 N541 1.356 1_556 S
N544 C536 1.356 1_554 S
N544 H550 0.984 1_554 S
N544 H551 0.984 . S
N545 C538 1.356 . S
N545 H548 0.984 . S
N545 H549 0.985 . S
H546 N541 0.984 . S
H547 N541 0.985 . S
H548 N545 0.984 . S
H549 N545 0.985 . S
H550 N544 0.984 1_556 S
H551 N544 0.984 . S
H552 N540 0.984 . S
H553 N540 0.985 . S
C554 C555 1.363 1_556 S
C554 C560 1.379 . S
C554 N562 1.356 1_556 S
C555 C554 1.363 1_554 S
C555 C561 1.363 1_554 S
C556 C557 1.363 . S
C556 C561 1.379 . S
C556 N563 1.356 . S
C557 C556 1.363 . S
C557 C560 1.363 . S
N558 C560 1.356 . S
N558 H570 0.984 . S
N558 H571 0.985 . S
N559 C561 1.356 1_554 S
N559 H564 0.984 . S
N559 H565 0.985 . S
C560 C554 1.379 . S
C560 C557 1.363 . S
C560 N558 1.356 . S
C561 C555 1.363 1_556 S
C561 C556 1.379 . S
C561 N559 1.356 1_556 S
N562 C554 1.356 1_554 S
N562 H568 0.984 1_554 S
N562 H569 0.984 . S
N563 C556 1.356 . S
N563 H566 0.984 . S
N563 H567 0.985 . S
H564 N559 0.984 . S
H565 N559 0.985 . S
H566 N563 0.984 . S
H567 N563 0.985 . S
H568 N562 0.984 1_556 S
H569 N562 0.984 . S
H570 N558 0.984 . S
H571 N558 0.985 . S
C572 C573 1.363 . S
C572 C578 1.379 . S
C572 N580 1.356 . S
C573 C572 1.363 . S
C573 C579 1.363 . S
C574 C575 1.363 1_554 S
C574 C579 1.379 . S
C574 N581 1.356 1_554 S
C575 C574 1.363 1_556 S
C575 C578 1.363 1_556 S
N576 C578 1.356 1_556 S
N576 H588 0.984 1_556 S
N576 H589 0.985 . S
N577 C579 1.356 . S
N577 H582 0.984 . S
N577 H583 0.985 . S
C578 C572 1.379 . S
C578 C575 1.363 1_554 S
C578 N576 1.356 1_554 S
C579 C573 1.363 . S
C579 C574 1.379 . S
C579 N577 1.356 . S
N580 C572 1.356 . S
N580 H586 0.984 . S
N580 H587 0.984 . S
N581 C574 1.356 1_556 S
N581 H584 0.984 . S
N581 H585 0.985 . S
H582 N577 0.984 . S
H583 N577 0.985 . S
H584 N581 0.984 . S
H585 N581 0.985 . S
H586 N580 0.984 . S
H587 N580 0.984 . S
H588 N576 0.984 1_554 S
H589 N576 0.985 . S
C590 C591 1.363 1_554 S
C590 C596 1.379 . S
C590 N598 1.356 1_554 S
C591 C590 1.363 1_556 S
C591 C597 1.363 1_556 S
C592 C593 1.363 . S
C592 C597 1.379 . S
C592 N599 1.356 . S
C593 C592 1.363 . S
C593 C596 1.363 . S
N594 C596 1.356 . S
N594 H606 0.984 . S
N594 H607 0.985 . S
N595 C597 1.356 1_556 S
N595 H600 0.984 . S
N595 H601 0.985 . S
C596 C590 1.379 . S
C596 C593 1.363 . S
C596 N594 1.356 . S
C597 C591 1.363 1_554 S
C597 C592 1.379 . S
C597 N595 1.356 1_554 S
N598 C590 1.356 1_556 S
N598 H604 0.984 1_556 S
N598 H605 0.984 . S
N599 C592 1.356 . S
N599 H602 0.984 . S
N599 H603 0.985 . S
H600 N595 0.984 . S
H601 N595 0.985 . S
H602 N599 0.984 . S
H603 N599 0.985 . S
H604 N598 0.984 1_554 S
H605 N598 0.984 . S
H606 N594 0.984 . S
H607 N594 0.985 . S
C608 C609 1.363 . S
C608 C614 1.379 . S
C608 N616 1.356 . S
C609 C608 1.363 . S
C609 C615 1.363 . S
C610 C611 1.363 . S
C610 C615 1.379 . S
C610 N617 1.356 . S
C611 C610 1.363 . S
C611 C614 1.363 . S
N612 C614 1.356 . S
N612 H624 0.984 . S
N612 H625 0.985 . S
N613 C615 1.356 . S
N613 H618 0.984 . S
N613 H619 0.985 . S
C614 C608 1.379 . S
C614 C611 1.363 . S
C614 N612 1.356 . S
C615 C609 1.363 . S
C615 C610 1.379 . S
C615 N613 1.356 . S
N616 C608 1.356 . S
N616 H622 0.984 . S
N616 H623 0.984 . S
N617 C610 1.356 . S
N617 H620 0.984 . S
N617 H621 0.985 . S
H618 N613 0.984 . S
H619 N613 0.985 . S
H620 N617 0.984 . S
H621 N617 0.985 . S
H622 N616 0.984 . S
H623 N616 0.984 . S
H624 N612 0.984 . S
H625 N612 0.985 . S
C626 C627 1.363 . S
C626 C632 1.379 . S
C626 N634 1.356 . S
C627 C626 1.363 . S
C627 C633 1.363 . S
C628 C629 1.363 . S
C628 C633 1.379 . S
C628 N635 1.356 . S
C629 C628 1.363 . S
C629 C632 1.363 . S
N630 C632 1.356 . S
N630 H642 0.984 . S
N630 H643 0.985 . S
N631 C633 1.356 . S
N631 H636 0.984 . S
N631 H637 0.985 . S
C632 C626 1.379 . S
C632 C629 1.363 . S
C632 N630 1.356 . S
C633 C627 1.363 . S
C633 C628 1.379 . S
C633 N631 1.356 . S
N634 C626 1.356 . S
N634 H640 0.984 . S
N634 H641 0.984 . S
N635 C628 1.356 . S
N635 H638 0.984 . S
N635 H639 0.985 . S
H636 N631 0.984 . S
H637 N631 0.985 . S
H638 N635 0.984 . S
H639 N635 0.985 . S
H640 N634 0.984 . S
H641 N634 0.984 . S
H642 N630 0.984 . S
H643 N630 0.985 . S
C644 C645 1.363 . S
C644 C650 1.379 . S
C644 N652 1.356 . S
C645 C644 1.363 . S
C645 C651 1.363 . S
C646 C647 1.363 . S
C646 C651 1.379 . S
C646 N653 1.356 . S
C647 C646 1.363 . S
C647 C650 1.363 . S
N648 C650 1.356 . S
N648 H660 0.984 . S
N648 H661 0.985 . S
N649 C651 1.356 . S
N649 H654 0.984 . S
N649 H655 0.985 . S
C650 C644 1.379 . S
C650 C647 1.363 . S
C650 N648 1.356 . S
C651 C645 1.363 . S
C651 C646 1.379 . S
C651 N649 1.356 . S
N652 C644 1.356 . S
N652 H658 0.984 . S
N652 H659 0.984 . S
N653 C646 1.356 . S
N653 H656 0.984 . S
N653 H657 0.985 . S
H654 N649 0.984 . S
H655 N649 0.985 . S
H656 N653 0.984 . S
H657 N653 0.985 . S
H658 N652 0.984 . S
H659 N652 0.984 . S
H660 N648 0.984 . S
H661 N648 0.985 . S
C662 C663 1.363 . S
C662 C668 1.379 . S
C662 N670 1.356 . S
C663 C662 1.363 . S
C663 C669 1.363 . S
C664 C665 1.363 . S
C664 C669 1.379 . S
C664 N671 1.356 . S
C665 C664 1.363 . S
C665 C668 1.363 . S
N666 C668 1.356 . S
N666 H678 0.984 . S
N666 H679 0.985 . S
N667 C669 1.356 . S
N667 H672 0.984 . S
N667 H673 0.985 . S
C668 C662 1.379 . S
C668 C665 1.363 . S
C668 N666 1.356 . S
C669 C663 1.363 . S
C669 C664 1.379 . S
C669 N667 1.356 . S
N670 C662 1.356 . S
N670 H676 0.984 . S
N670 H677 0.984 . S
N671 C664 1.356 . S
N671 H674 0.984 . S
N671 H675 0.985 . S
H672 N667 0.984 . S
H673 N667 0.985 . S
H674 N671 0.984 . S
H675 N671 0.985 . S
H676 N670 0.984 . S
H677 N670 0.984 . S
H678 N666 0.984 . S
H679 N666 0.985 . S
C680 C681 1.363 . S
C680 C686 1.379 1_455 S
C680 N688 1.356 1_554 S
C681 C680 1.363 . S
C681 C687 1.363 . S
C682 C683 1.363 . S
C682 C687 1.379 1_655 S
C682 N689 1.356 . S
C683 C682 1.363 . S
C683 C686 1.363 . S
N684 C686 1.356 1_556 S
N684 H696 0.984 . S
N684 H697 0.985 1_556 S
N685 C687 1.356 . S
N685 H690 0.984 . S
N685 H691 0.985 . S
C686 C680 1.379 1_655 S
C686 C683 1.363 . S
C686 N684 1.356 1_554 S
C687 C681 1.363 . S
C687 C682 1.379 1_455 S
C687 N685 1.356 . S
N688 C680 1.356 1_556 S
N688 H694 0.984 . S
N688 H695 0.984 1_556 S
N689 C682 1.356 . S
N689 H692 0.984 . S
N689 H693 0.985 . S
H690 N685 0.984 . S
H691 N685 0.985 . S
H692 N689 0.984 . S
H693 N689 0.985 . S
H694 N688 0.984 . S
H695 N688 0.984 1_554 S
H696 N684 0.984 . S
H697 N684 0.985 1_554 S
C698 C699 1.363 . S
C698 C704 1.379 1_655 S
C698 N706 1.356 1_556 S
C699 C698 1.363 . S
C699 C705 1.363 . S
C700 C701 1.363 . S
C700 C705 1.379 1_455 S
C700 N707 1.356 . S
C701 C700 1.363 . S
C701 C704 1.363 . S
N702 C704 1.356 1_554 S
N702 H714 0.984 . S
N702 H715 0.985 1_554 S
N703 C705 1.356 . S
N703 H708 0.984 . S
N703 H709 0.985 . S
C704 C698 1.379 1_455 S
C704 C701 1.363 . S
C704 N702 1.356 1_556 S
C705 C699 1.363 . S
C705 C700 1.379 1_655 S
C705 N703 1.356 . S
N706 C698 1.356 1_554 S
N706 H712 0.984 . S
N706 H713 0.984 1_554 S
N707 C700 1.356 . S
N707 H710 0.984 . S
N707 H711 0.985 . S
H708 N703 0.984 . S
H709 N703 0.985 . S
H710 N707 0.984 . S
H711 N707 0.985 . S
H712 N706 0.984 . S
H713 N706 0.984 1_556 S
H714 N702 0.984 . S
H715 N702 0.985 1_556 S
C716 C717 1.363 . S
C716 C722 1.379 . S
C716 N724 1.356 . S
C717 C716 1.363 . S
C717 C723 1.363 . S
C718 C719 1.363 . S
C718 C723 1.379 . S
C718 N725 1.356 . S
C719 C718 1.363 . S
C719 C722 1.363 . S
N720 C722 1.356 . S
N720 H732 0.984 . S
N720 H733 0.985 . S
N721 C723 1.356 . S
N721 H726 0.984 . S
N721 H727 0.985 . S
C722 C716 1.379 . S
C722 C719 1.363 . S
C722 N720 1.356 . S
C723 C717 1.363 . S
C723 C718 1.379 . S
C723 N721 1.356 . S
N724 C716 1.356 . S
N724 H730 0.984 . S
N724 H731 0.984 . S
N725 C718 1.356 . S
N725 H728 0.984 . S
N725 H729 0.985 . S
H726 N721 0.984 . S
H727 N721 0.985 . S
H728 N725 0.984 . S
H729 N725 0.985 . S
H730 N724 0.984 . S
H731 N724 0.984 . S
H732 N720 0.984 . S
H733 N720 0.985 . S
C734 C735 1.363 . S
C734 C740 1.379 . S
C734 N742 1.356 . S
C735 C734 1.363 . S
C735 C741 1.363 . S
C736 C737 1.363 . S
C736 C741 1.379 . S
C736 N743 1.356 . S
C737 C736 1.363 . S
C737 C740 1.363 . S
N738 C740 1.356 . S
N738 H750 0.984 . S
N738 H751 0.985 . S
N739 C741 1.356 . S
N739 H744 0.984 . S
N739 H745 0.985 . S
C740 C734 1.379 . S
C740 C737 1.363 . S
C740 N738 1.356 . S
C741 C735 1.363 . S
C741 C736 1.379 . S
C741 N739 1.356 . S
N742 C734 1.356 . S
N742 H748 0.984 . S
N742 H749 0.984 . S
N743 C736 1.356 . S
N743 H746 0.984 . S
N743 H747 0.985 . S
H744 N739 0.984 . S
H745 N739 0.985 . S
H746 N743 0.984 . S
H747 N743 0.985 . S
H748 N742 0.984 . S
H749 N742 0.984 . S
H750 N738 0.984 . S
H751 N738 0.985 . S
C321 C6 1.707 . S
C323 C295 1.707 . S
C339 C255 1.707 . S
C341 C46 1.707 . S
C357 C206 1.707 . S
C359 C95 1.707 . S
C375 C166 1.707 . S
C377 C135 1.707 . S
C393 C89 1.612 . S
C395 C9 1.644 . S
C411 C49 1.644 . S
C413 C129 1.613 . S
C429 C138 1.643 . S
C431 C58 1.611 . S
C447 C98 1.643 . S
C449 C18 1.611 . S
C465 C169 1.440 . S
C467 C249 1.440 . S
C483 C209 1.440 . S
C485 C289 1.441 . S
C501 C298 1.440 . S
C503 C218 1.440 . S
C519 C258 1.440 . S
C521 C178 1.440 . S
C537 C19 2.072 . S
C539 C10 2.072 . S
C555 C59 2.072 . S
C557 C50 2.072 . S
C573 C99 2.072 . S
C575 C90 2.072 . S
C591 C130 2.072 . S
C593 C139 2.072 . S
C609 C170 2.071 . S
C611 C179 2.071 . S
C627 C219 2.071 . S
C629 C210 2.071 . S
C645 C250 2.071 . S
C647 C259 2.071 . S
C663 C290 2.071 . S
C665 C299 2.071 . S
C681 C15 2.248 . S
C683 C55 2.248 . S
C699 C126 2.248 . S
C701 C86 2.248 . S
C717 C175 2.250 . S
C719 C215 2.250 . S
C735 C286 2.250 . S
C737 C246 2.250 . S
