# Generated by pormake.
# Topology sra, (4)-cn, num edge types: 1
# Building blocks:
#     Node 0, Type 0, BuildingBlock: UXUYUI_clean_sbu_0, # of connection points: 4
#     Node 1, Type 0, BuildingBlock: UXUYUI_clean_sbu_0, # of connection points: 4
#     Node 2, Type 0, BuildingBlock: UXUYUI_clean_sbu_0, # of connection points: 4
#     Node 3, Type 0, BuildingBlock: UXUYUI_clean_sbu_0, # of connection points: 4
#     Node 4, Type 0, BuildingBlock: UXUYUI_clean_sbu_0, # of connection points: 4
#     Node 5, Type 0, BuildingBlock: UXUYUI_clean_sbu_0, # of connection points: 4
#     Node 6, Type 0, BuildingBlock: UXUYUI_clean_sbu_0, # of connection points: 4
#     Node 7, Type 0, BuildingBlock: UXUYUI_clean_sbu_0, # of connection points: 4
#     Edge 8, Type (0, 0), BuildingBlock: OJICUG_clean_linker_0, # of connection points: 2
#     Edge 9, Type (0, 0), BuildingBlock: OJICUG_clean_linker_0, # of connection points: 2
#     Edge 10, Type (0, 0), BuildingBlock: OJICUG_clean_linker_0, # of connection points: 2
#     Edge 11, Type (0, 0), BuildingBlock: OJICUG_clean_linker_0, # of connection points: 2
#     Edge 12, Type (0, 0), BuildingBlock: OJICUG_clean_linker_0, # of connection points: 2
#     Edge 13, Type (0, 0), BuildingBlock: OJICUG_clean_linker_0, # of connection points: 2
#     Edge 14, Type (0, 0), BuildingBlock: OJICUG_clean_linker_0, # of connection points: 2
#     Edge 15, Type (0, 0), BuildingBlock: OJICUG_clean_linker_0, # of connection points: 2
#     Edge 16, Type (0, 0), BuildingBlock: OJICUG_clean_linker_0, # of connection points: 2
#     Edge 17, Type (0, 0), BuildingBlock: OJICUG_clean_linker_0, # of connection points: 2
#     Edge 18, Type (0, 0), BuildingBlock: OJICUG_clean_linker_0, # of connection points: 2
#     Edge 19, Type (0, 0), BuildingBlock: OJICUG_clean_linker_0, # of connection points: 2
#     Edge 20, Type (0, 0), BuildingBlock: OJICUG_clean_linker_0, # of connection points: 2
#     Edge 21, Type (0, 0), BuildingBlock: OJICUG_clean_linker_0, # of connection points: 2
#     Edge 22, Type (0, 0), BuildingBlock: OJICUG_clean_linker_0, # of connection points: 2
#     Edge 23, Type (0, 0), BuildingBlock: OJICUG_clean_linker_0, # of connection points: 2
# Relax obj value: 0.133
# Max RMSD: 0.099
# Mean RMSD: 0.099
data_MOF--net-sra--node1-UXUYUI_clean_sbu_0--edge1-OJICUG_clean_linker_0
_symmetry_space_group_name_H-M    P1
_symmetry_Int_Tables_number       1
_symmetry_cell_setting            triclinic
loop_
_symmetry_equiv_pos_as_xyz
'x, y, z'
_cell_length_a     31.085634
_cell_length_b     51.899285
_cell_length_c     51.377456
_cell_angle_alpha  90.000374
_cell_angle_beta   89.999989
_cell_angle_gamma 89.999686
loop_
_atom_site_label
_atom_site_type_symbol
_atom_site_fract_x
_atom_site_fract_y
_atom_site_fract_z
_atom_type_partial_charge
Li0 Li 0.99903 0.10409 0.15723 0.0
Li1 Li 0.04161 0.06867 0.17642 0.0
Li2 Li 0.00064 0.06378 0.136 0.0
Li3 Li 0.96079 0.06856 0.17718 0.0
C4 C 0.07542 0.08203 0.12165 0.0
N5 N 0.12425 0.07047 0.07822 0.0
C6 C 0.11108 0.06578 0.12379 0.0
C7 C 0.06487 0.09262 0.09745 0.0
C8 C 0.13533 0.06013 0.10161 0.0
C9 C 0.08984 0.08646 0.07572 0.0
C10 C 0.00274 0.0887 0.22046 0.0
C11 C 0.00483 0.05962 0.25706 0.0
N12 N 0.00642 0.08014 0.27349 0.0
C13 C 0.00438 0.1095 0.23771 0.0
C14 C 0.00295 0.06353 0.23019 0.0
C15 C 0.00623 0.10478 0.26445 0.0
C16 C 0.97249 0.15387 0.17104 0.0
N17 N 0.99821 0.14061 0.15437 0.0
C18 C 0.02402 0.17982 0.13567 0.0
C19 C 0.02375 0.15293 0.13688 0.0
C20 C 0.99807 0.19408 0.15281 0.0
C21 C 0.97185 0.18075 0.17057 0.0
H22 H 0.95268 0.1435 0.18483 0.0
H23 H 0.04436 0.14192 0.12414 0.0
C24 C 0.11684 0.0403 0.19434 0.0
N25 N 0.09297 0.06221 0.19583 0.0
C26 C 0.15554 0.03825 0.20827 0.0
C27 C 0.14224 0.08046 0.22629 0.0
C28 C 0.10531 0.08216 0.21116 0.0
C29 C 0.16906 0.05866 0.22452 0.0
H30 H 0.10655 0.02476 0.18175 0.0
H31 H 0.08653 0.09965 0.21155 0.0
C32 C 0.92412 0.10514 0.13537 0.0
N33 N 0.87581 0.14744 0.12069 0.0
C34 C 0.88811 0.1124 0.14991 0.0
C35 C 0.93521 0.11923 0.11316 0.0
C36 C 0.86417 0.13388 0.14222 0.0
C37 C 0.91051 0.14061 0.10613 0.0
C38 C 0.98502 0.01624 0.16402 0.0
C39 C 0.95192 0.01212 0.1461 0.0
C40 C 0.00124 0.99555 0.17838 0.0
C41 C 0.93535 0.98729 0.14296 0.0
C42 C 0.98374 0.97102 0.17473 0.0
N43 N 0.95144 0.96743 0.15723 0.0
C44 C 0.02946 0.02753 0.09795 0.0
C45 C 0.97193 0.05441 0.08462 0.0
C46 C 0.03046 0.01568 0.07351 0.0
N47 N 0.00076 0.04669 0.1029 0.0
C48 C 0.9717 0.04307 0.05999 0.0
C49 C 0.00133 0.02348 0.0541 0.0
H50 H 0.05171 0.02155 0.11297 0.0
H51 H 0.94913 0.06945 0.08912 0.0
C52 C 0.89951 0.08006 0.21518 0.0
N53 N 0.90981 0.06151 0.19757 0.0
C54 C 0.86213 0.07827 0.22996 0.0
C55 C 0.84466 0.03882 0.20754 0.0
C56 C 0.88331 0.041 0.19365 0.0
C57 C 0.83328 0.05781 0.22586 0.0
H58 H 0.9195 0.09692 0.21721 0.0
H59 H 0.89113 0.02674 0.17918 0.0
O60 O 0.05076 0.08734 0.14307 0.0
O61 O 0.00108 0.09314 0.1942 0.0
O62 O 0.94854 0.08449 0.14292 0.0
O63 O 0.00258 0.04021 0.167 0.0
H64 H 0.11981 0.05745 0.14231 0.0
H65 H 0.0373 0.10513 0.09536 0.0
H66 H 0.16288 0.04747 0.10297 0.0
H67 H 0.08177 0.09433 0.05684 0.0
H68 H 0.00503 0.04026 0.26486 0.0
H69 H 0.00425 0.12909 0.23047 0.0
H70 H 0.00168 0.04717 0.21719 0.0
H71 H 0.00753 0.12069 0.27803 0.0
H72 H 0.04514 0.18933 0.12193 0.0
H73 H 0.95102 0.19099 0.18393 0.0
H74 H 0.1749 0.02112 0.20574 0.0
H75 H 0.14945 0.09642 0.23907 0.0
H76 H 0.87869 0.10164 0.16696 0.0
H77 H 0.963 0.11398 0.10169 0.0
H78 H 0.83634 0.13976 0.15337 0.0
H79 H 0.919 0.15181 0.08914 0.0
H80 H 0.93877 0.02796 0.13497 0.0
H81 H 0.02709 0.99844 0.19221 0.0
H82 H 0.9096 0.98383 0.12923 0.0
H83 H 0.99589 0.95483 0.18576 0.0
H84 H 0.05343 0.0004 0.06995 0.0
H85 H 0.94891 0.04986 0.0456 0.0
H86 H 0.85576 0.0932 0.24414 0.0
H87 H 0.82337 0.02288 0.20322 0.0
Li88 Li 0.00069 0.43602 0.13602 0.0
Li89 Li 0.0407 0.4313 0.17713 0.0
Li90 Li 0.00243 0.39573 0.15724 0.0
Li91 Li 0.95991 0.43115 0.17648 0.0
C92 C 0.07728 0.39472 0.13525 0.0
N93 N 0.12564 0.35248 0.12043 0.0
C94 C 0.11353 0.38756 0.14963 0.0
C95 C 0.066 0.38057 0.11311 0.0
C96 C 0.13748 0.36611 0.14187 0.0
C97 C 0.09073 0.35923 0.10601 0.0
C98 C 0.01656 0.48354 0.16376 0.0
C99 C 0.01795 0.5289 0.17385 0.0
N100 N 0.0504 0.53221 0.1564 0.0
C101 C 0.04982 0.48738 0.14587 0.0
C102 C 1.00032 0.50444 0.17778 0.0
C103 C 0.06652 0.51214 0.14244 0.0
C104 C 0.97179 0.47225 0.09795 0.0
N105 N 0.00047 0.45307 0.1029 0.0
C106 C 0.02948 0.45666 0.05997 0.0
C107 C 0.02926 0.44533 0.0846 0.0
C108 C 0.99988 0.47628 0.05409 0.0
C109 C 0.97078 0.48409 0.07351 0.0
H110 H 0.94957 0.47825 0.11298 0.0
H111 H 0.05205 0.43029 0.08909 0.0
C112 C 0.10221 0.41954 0.21482 0.0
N113 N 0.09165 0.43833 0.19753 0.0
C114 C 0.13955 0.42127 0.22964 0.0
C115 C 0.15643 0.46122 0.20794 0.0
C116 C 0.11781 0.45908 0.19402 0.0
C117 C 0.16809 0.44195 0.22591 0.0
H118 H 0.08242 0.40256 0.21655 0.0
H119 H 0.10973 0.47358 0.17986 0.0
C120 C 0.9259 0.41775 0.12176 0.0
N121 N 0.87693 0.42929 0.07839 0.0
C122 C 0.89027 0.43403 0.12393 0.0
C123 C 0.93634 0.40712 0.09756 0.0
C124 C 0.86596 0.43966 0.10177 0.0
C125 C 0.9113 0.41327 0.07585 0.0
C126 C 0.99907 0.41115 0.22047 0.0
C127 C 0.9977 0.39035 0.23773 0.0
C128 C 0.99879 0.43633 0.23019 0.0
C129 C 0.99604 0.39508 0.26448 0.0
C130 C 0.99711 0.44024 0.25706 0.0
N131 N 0.99579 0.41972 0.27351 0.0
C132 C 0.0292 0.34596 0.17096 0.0
C133 C 0.97756 0.34688 0.13701 0.0
C134 C 0.02988 0.31907 0.17047 0.0
N135 N 0.00328 0.35921 0.1544 0.0
C136 C 0.97731 0.32 0.13579 0.0
C137 C 0.00347 0.30573 0.15282 0.0
H138 H 0.04915 0.35634 0.18467 0.0
H139 H 0.95679 0.35788 0.12435 0.0
C140 C 0.88467 0.45947 0.19444 0.0
N141 N 0.90863 0.43759 0.19596 0.0
C142 C 0.84601 0.4615 0.20841 0.0
C143 C 0.85952 0.41937 0.22654 0.0
C144 C 0.89641 0.41767 0.21138 0.0
C145 C 0.83261 0.44113 0.22473 0.0
H146 H 0.89486 0.47498 0.18179 0.0
H147 H 0.91525 0.4002 0.2118 0.0
O148 O 0.05286 0.41535 0.14287 0.0
O149 O 0.99885 0.45965 0.16699 0.0
O150 O 0.95063 0.41245 0.14316 0.0
O151 O 0.00055 0.40671 0.1942 0.0
H152 H 0.12312 0.39838 0.16661 0.0
H153 H 0.03806 0.38576 0.10176 0.0
H154 H 0.16548 0.3603 0.15291 0.0
H155 H 0.08208 0.34797 0.08908 0.0
H156 H 0.00578 0.54525 0.18462 0.0
H157 H 0.06299 0.47137 0.13499 0.0
H158 H 0.97434 0.50178 0.19157 0.0
H159 H 0.09238 0.51538 0.12874 0.0
H160 H 0.05224 0.44986 0.04557 0.0
H161 H 0.94782 0.49939 0.06996 0.0
H162 H 0.14614 0.40612 0.24355 0.0
H163 H 0.17746 0.47735 0.20394 0.0
H164 H 0.88163 0.44239 0.14245 0.0
H165 H 0.96387 0.39459 0.09545 0.0
H166 H 0.83844 0.45234 0.10316 0.0
H167 H 0.91928 0.40538 0.05698 0.0
H168 H 0.99789 0.37076 0.23049 0.0
H169 H 0.99985 0.45268 0.21718 0.0
H170 H 0.99496 0.37917 0.27806 0.0
H171 H 0.99687 0.45961 0.26485 0.0
H172 H 0.05086 0.30885 0.18375 0.0
H173 H 0.95605 0.31048 0.12214 0.0
H174 H 0.82658 0.4786 0.20585 0.0
H175 H 0.85241 0.40343 0.23938 0.0
Li176 Li 0.00065 0.93599 0.86968 0.0
Li177 Li 0.9607 0.93126 0.82855 0.0
Li178 Li 0.99897 0.8957 0.84845 0.0
Li179 Li 0.0415 0.93112 0.82924 0.0
C180 C 0.92411 0.89466 0.8704 0.0
N181 N 0.87579 0.85238 0.88517 0.0
C182 C 0.88795 0.88745 0.85596 0.0
C183 C 0.93533 0.88053 0.89256 0.0
C184 C 0.86401 0.86599 0.8637 0.0
C185 C 0.91063 0.85916 0.89964 0.0
C186 C 0.98488 0.98352 0.84189 0.0
C187 C 0.9836 0.02886 0.83168 0.0
N188 N 0.95117 0.03224 0.84913 0.0
C189 C 0.95164 0.98743 0.85977 0.0
C190 C 0.00116 0.00438 0.8278 0.0
C191 C 0.935 0.01221 0.86314 0.0
C192 C 0.0295 0.97223 0.90775 0.0
N193 N 0.00083 0.95305 0.9028 0.0
C194 C 0.97178 0.95665 0.94571 0.0
C195 C 0.97202 0.94531 0.92109 0.0
C196 C 0.00138 0.97626 0.9516 0.0
C197 C 0.03049 0.98407 0.93219 0.0
H198 H 0.05173 0.97822 0.89273 0.0
H199 H 0.94923 0.93027 0.91659 0.0
C200 C 0.89926 0.91957 0.79076 0.0
N201 N 0.90974 0.93829 0.80815 0.0
C202 C 0.86191 0.92132 0.77595 0.0
C203 C 0.84486 0.96113 0.79786 0.0
C204 C 0.88349 0.95897 0.81177 0.0
C205 C 0.83328 0.94194 0.77979 0.0
H206 H 0.91911 0.90262 0.78895 0.0
H207 H 0.89149 0.97341 0.82602 0.0
C208 C 0.07545 0.91774 0.88397 0.0
N209 N 0.12437 0.92929 0.92736 0.0
C210 C 0.11108 0.93401 0.88181 0.0
C211 C 0.06498 0.90712 0.90817 0.0
C212 C 0.13537 0.93965 0.90397 0.0
C213 C 0.08999 0.91328 0.92988 0.0
C214 C 0.00243 0.91112 0.78522 0.0
C215 C 0.00388 0.89032 0.76796 0.0
C216 C 0.00269 0.9363 0.77551 0.0
C217 C 0.00559 0.89506 0.74122 0.0
C218 C 0.00442 0.94022 0.74863 0.0
N219 N 0.00582 0.9197 0.73219 0.0
C220 C 0.97233 0.84592 0.83468 0.0
C221 C 0.02379 0.84685 0.86872 0.0
C222 C 0.97168 0.81903 0.83515 0.0
N223 N 0.99815 0.85917 0.85129 0.0
C224 C 0.02405 0.81996 0.86994 0.0
C225 C 0.998 0.8057 0.85285 0.0
H226 H 0.95244 0.8563 0.82093 0.0
H227 H 0.04448 0.85786 0.88143 0.0
C228 C 0.11674 0.95946 0.81129 0.0
N229 N 0.09281 0.93758 0.80977 0.0
C230 C 0.15541 0.9615 0.79733 0.0
C231 C 0.14196 0.91935 0.77923 0.0
C232 C 0.10506 0.91765 0.79438 0.0
C233 C 0.16884 0.94112 0.78103 0.0
H234 H 0.10652 0.97498 0.82392 0.0
H235 H 0.08624 0.90017 0.79397 0.0
O236 O 0.94852 0.9153 0.8628 0.0
O237 O 0.00252 0.9596 0.8387 0.0
O238 O 0.05075 0.91243 0.86256 0.0
O239 O 0.0009 0.90667 0.81149 0.0
H240 H 0.8784 0.89826 0.83896 0.0
H241 H 0.96322 0.88574 0.90395 0.0
H242 H 0.83607 0.86015 0.85262 0.0
H243 H 0.91924 0.84793 0.91659 0.0
H244 H 0.9958 0.04517 0.82086 0.0
H245 H 0.93844 0.97146 0.87069 0.0
H246 H 0.02712 0.00165 0.81402 0.0
H247 H 0.90915 0.01551 0.87684 0.0
H248 H 0.949 0.94985 0.96011 0.0
H249 H 0.05344 0.99937 0.93575 0.0
H250 H 0.85539 0.90623 0.76196 0.0
H251 H 0.82376 0.9772 0.80195 0.0
H252 H 0.11975 0.94236 0.86328 0.0
H253 H 0.03744 0.8946 0.91028 0.0
H254 H 0.1629 0.95233 0.90259 0.0
H255 H 0.08199 0.9054 0.94876 0.0
H256 H 0.00371 0.87073 0.7752 0.0
H257 H 0.00157 0.95265 0.78852 0.0
H258 H 0.00674 0.87915 0.72763 0.0
H259 H 0.00465 0.95958 0.74085 0.0
H260 H 0.95078 0.8088 0.82183 0.0
H261 H 0.04525 0.81045 0.88363 0.0
H262 H 0.17482 0.97861 0.79988 0.0
H263 H 0.1491 0.9034 0.7664 0.0
Li264 Li 0.9599 0.56863 0.82921 0.0
Li265 Li 0.00241 0.60405 0.84844 0.0
Li266 Li 0.04069 0.56848 0.82855 0.0
Li267 Li 0.00069 0.56376 0.86967 0.0
C268 C 0.99903 0.58862 0.78521 0.0
N269 N 0.99571 0.58004 0.73218 0.0
C270 C 0.99762 0.60942 0.76795 0.0
C271 C 0.99876 0.56345 0.7755 0.0
C272 C 0.99595 0.60468 0.7412 0.0
C273 C 0.99707 0.55952 0.74863 0.0
C274 C 0.92589 0.58203 0.88393 0.0
C275 C 0.91131 0.5865 0.92984 0.0
N276 N 0.87693 0.57049 0.92731 0.0
C277 C 0.89025 0.56576 0.88177 0.0
C278 C 0.93635 0.59265 0.90813 0.0
C279 C 0.86594 0.56012 0.90392 0.0
C280 C 0.88466 0.5403 0.81126 0.0
N281 N 0.90861 0.56218 0.80973 0.0
C282 C 0.85949 0.58039 0.77916 0.0
C283 C 0.89637 0.58209 0.79432 0.0
C284 C 0.83259 0.55863 0.78097 0.0
C285 C 0.846 0.53825 0.79729 0.0
H286 H 0.89486 0.52479 0.8239 0.0
H287 H 0.91521 0.59957 0.7939 0.0
C288 C 0.02911 0.65383 0.83469 0.0
N289 N 0.00325 0.64058 0.85128 0.0
C290 C 0.02976 0.68071 0.83516 0.0
C291 C 0.97732 0.67979 0.86991 0.0
C292 C 0.97757 0.6529 0.86869 0.0
C293 C 0.00341 0.69405 0.85284 0.0
H294 H 0.04901 0.64345 0.82095 0.0
H295 H 0.95685 0.6419 0.88138 0.0
C296 C 0.01652 0.51624 0.84191 0.0
N297 N 0.05029 0.46755 0.84922 0.0
C298 C 0.04977 0.51236 0.8598 0.0
C299 C 1.00026 0.49535 0.82786 0.0
C300 C 0.06644 0.48759 0.8632 0.0
C301 C 0.01786 0.47089 0.83177 0.0
C302 C 0.07726 0.60508 0.87042 0.0
C303 C 0.11346 0.61227 0.85601 0.0
C304 C 0.066 0.61922 0.89257 0.0
C305 C 0.1374 0.63372 0.86376 0.0
C306 C 0.09071 0.64057 0.89966 0.0
N307 N 0.12558 0.64734 0.88521 0.0
C308 C 0.10218 0.58021 0.79082 0.0
C309 C 0.11785 0.54073 0.81173 0.0
C310 C 0.13952 0.57846 0.77601 0.0
N311 N 0.09165 0.56145 0.80816 0.0
C312 C 0.15647 0.53858 0.79781 0.0
C313 C 0.1681 0.55781 0.77979 0.0
H314 H 0.08236 0.59717 0.78905 0.0
H315 H 0.1098 0.52626 0.82593 0.0
C316 C 0.97179 0.52754 0.90774 0.0
N317 N 0.00048 0.54671 0.90279 0.0
C318 C 0.97078 0.5157 0.93218 0.0
C319 C 0.0295 0.54311 0.94571 0.0
C320 C 0.02928 0.55444 0.92109 0.0
C321 C 0.99988 0.5235 0.9516 0.0
H322 H 0.94957 0.52154 0.89271 0.0
H323 H 0.05208 0.56948 0.91659 0.0
O324 O 0.00052 0.59307 0.81148 0.0
O325 O 0.95062 0.58732 0.86253 0.0
O326 O 0.99885 0.54014 0.8387 0.0
O327 O 0.05285 0.58444 0.86281 0.0
H328 H 0.9978 0.62902 0.77518 0.0
H329 H 0.99984 0.5471 0.78851 0.0
H330 H 0.99484 0.62059 0.72762 0.0
H331 H 0.99683 0.54016 0.74084 0.0
H332 H 0.9193 0.59438 0.94872 0.0
H333 H 0.8816 0.55741 0.86324 0.0
H334 H 0.96388 0.60517 0.91025 0.0
H335 H 0.83841 0.54745 0.90253 0.0
H336 H 0.85236 0.59633 0.76632 0.0
H337 H 0.82658 0.52116 0.79985 0.0
H338 H 0.05069 0.69094 0.82186 0.0
H339 H 0.9561 0.6893 0.88359 0.0
H340 H 0.06295 0.52836 0.8707 0.0
H341 H 0.9743 0.49805 0.81407 0.0
H342 H 0.09228 0.48433 0.87691 0.0
H343 H 0.00568 0.45455 0.82097 0.0
H344 H 0.12303 0.60145 0.83902 0.0
H345 H 0.03809 0.61402 0.90395 0.0
H346 H 0.16537 0.63955 0.8527 0.0
H347 H 0.08208 0.65182 0.9166 0.0
H348 H 0.14609 0.59358 0.76206 0.0
H349 H 0.17754 0.52248 0.80186 0.0
H350 H 0.94782 0.50041 0.93573 0.0
H351 H 0.05226 0.54991 0.96011 0.0
Li352 Li 0.54151 0.56862 0.67645 0.0
Li353 Li 0.49898 0.60405 0.65723 0.0
Li354 Li 0.46071 0.56849 0.67714 0.0
Li355 Li 0.50067 0.56375 0.636 0.0
C356 C 0.50245 0.58863 0.72046 0.0
N357 N 0.50586 0.58006 0.7735 0.0
C358 C 0.50392 0.60943 0.73772 0.0
C359 C 0.5027 0.56346 0.73018 0.0
C360 C 0.50563 0.6047 0.76447 0.0
C361 C 0.50444 0.55954 0.75705 0.0
C362 C 0.57546 0.58201 0.62172 0.0
C363 C 0.59 0.58646 0.5758 0.0
N364 N 0.62439 0.57046 0.57833 0.0
C365 C 0.6111 0.56574 0.62388 0.0
C366 C 0.56498 0.59262 0.59752 0.0
C367 C 0.63539 0.5601 0.60171 0.0
C368 C 0.61675 0.54029 0.6944 0.0
N369 N 0.59282 0.56217 0.69591 0.0
C370 C 0.64198 0.5804 0.72645 0.0
C371 C 0.60508 0.5821 0.7113 0.0
C372 C 0.66886 0.55863 0.72465 0.0
C373 C 0.65542 0.53824 0.70836 0.0
H374 H 0.60652 0.52477 0.68177 0.0
H375 H 0.58626 0.59958 0.71171 0.0
C376 C 0.47233 0.65383 0.671 0.0
N377 N 0.49815 0.64057 0.65439 0.0
C378 C 0.47169 0.68071 0.67053 0.0
C379 C 0.52405 0.67978 0.63574 0.0
C380 C 0.52379 0.6529 0.63695 0.0
C381 C 0.498 0.69405 0.65283 0.0
H382 H 0.45245 0.64345 0.68475 0.0
H383 H 0.54448 0.64189 0.62425 0.0
C384 C 0.48489 0.51622 0.66383 0.0
N385 N 0.45118 0.4675 0.65664 0.0
C386 C 0.45168 0.51229 0.64594 0.0
C387 C 0.50115 0.49539 0.67795 0.0
C388 C 0.43504 0.48751 0.64259 0.0
C389 C 0.48358 0.4709 0.6741 0.0
C390 C 0.42412 0.60509 0.63528 0.0
C391 C 0.38797 0.61229 0.64973 0.0
C392 C 0.43533 0.61921 0.61312 0.0
C393 C 0.36403 0.63375 0.64199 0.0
C394 C 0.41063 0.64057 0.60604 0.0
N395 N 0.3758 0.64736 0.62052 0.0
C396 C 0.39928 0.58017 0.71494 0.0
C397 C 0.38348 0.54079 0.69388 0.0
C398 C 0.36193 0.57841 0.72974 0.0
N399 N 0.40975 0.56146 0.69753 0.0
C400 C 0.34485 0.53863 0.70779 0.0
C401 C 0.33328 0.55781 0.72588 0.0
H402 H 0.41914 0.5971 0.71677 0.0
H403 H 0.39146 0.52637 0.67962 0.0
C404 C 0.52953 0.52751 0.59794 0.0
N405 N 0.50085 0.54669 0.60289 0.0
C406 C 0.53053 0.51567 0.5735 0.0
C407 C 0.47181 0.54308 0.55997 0.0
C408 C 0.47204 0.55442 0.5846 0.0
C409 C 0.50142 0.52347 0.55409 0.0
H410 H 0.55176 0.52152 0.61297 0.0
H411 H 0.44925 0.56946 0.58909 0.0
O412 O 0.50092 0.59308 0.6942 0.0
O413 O 0.55076 0.58731 0.64312 0.0
O414 O 0.50254 0.54014 0.66698 0.0
O415 O 0.44853 0.58444 0.64288 0.0
H416 H 0.50375 0.62902 0.73048 0.0
H417 H 0.50157 0.5471 0.71717 0.0
H418 H 0.50679 0.62061 0.77805 0.0
H419 H 0.50467 0.54017 0.76484 0.0
H420 H 0.58199 0.59435 0.55692 0.0
H421 H 0.61977 0.55739 0.6424 0.0
H422 H 0.53744 0.60514 0.59541 0.0
H423 H 0.66292 0.54742 0.6031 0.0
H424 H 0.64912 0.59635 0.73927 0.0
H425 H 0.67483 0.52114 0.70581 0.0
H426 H 0.45079 0.69094 0.68385 0.0
H427 H 0.54524 0.68929 0.62204 0.0
H428 H 0.4385 0.52825 0.63498 0.0
H429 H 0.52709 0.49813 0.69174 0.0
H430 H 0.40921 0.48419 0.62889 0.0
H431 H 0.49577 0.4546 0.68495 0.0
H432 H 0.37843 0.60149 0.66673 0.0
H433 H 0.46321 0.61399 0.60172 0.0
H434 H 0.3361 0.6396 0.65308 0.0
H435 H 0.41923 0.6518 0.58909 0.0
H436 H 0.35541 0.59348 0.74375 0.0
H437 H 0.32373 0.52257 0.70368 0.0
H438 H 0.55349 0.50037 0.56995 0.0
H439 H 0.44904 0.54988 0.54558 0.0
Li440 Li 0.50068 0.93598 0.63601 0.0
Li441 Li 0.54067 0.93126 0.67713 0.0
Li442 Li 0.5024 0.89569 0.65724 0.0
Li443 Li 0.45988 0.93111 0.67647 0.0
C444 C 0.57725 0.89466 0.63526 0.0
N445 N 0.62557 0.85241 0.62047 0.0
C446 C 0.61344 0.88747 0.64968 0.0
C447 C 0.566 0.88054 0.61311 0.0
C448 C 0.63738 0.86602 0.64193 0.0
C449 C 0.59071 0.85918 0.60602 0.0
C450 C 0.51651 0.98351 0.6638 0.0
C451 C 0.51787 0.02884 0.674 0.0
N452 N 0.55028 0.03221 0.65654 0.0
C453 C 0.54973 0.9874 0.6459 0.0
C454 C 0.50027 0.00437 0.67789 0.0
C455 C 0.5664 0.01217 0.64252 0.0
C456 C 0.47177 0.97221 0.59796 0.0
N457 N 0.50046 0.95304 0.6029 0.0
C458 C 0.52946 0.95665 0.55997 0.0
C459 C 0.52925 0.94531 0.5846 0.0
C460 C 0.49984 0.97625 0.55409 0.0
C461 C 0.47074 0.98405 0.57351 0.0
H462 H 0.44954 0.9782 0.61298 0.0
H463 H 0.55206 0.93028 0.58909 0.0
C464 C 0.60216 0.91955 0.71487 0.0
N465 N 0.59164 0.93829 0.69752 0.0
C466 C 0.63951 0.92129 0.72968 0.0
C467 C 0.65649 0.96115 0.70784 0.0
C468 C 0.61786 0.959 0.69393 0.0
C469 C 0.66811 0.94193 0.72588 0.0
H470 H 0.58233 0.90259 0.71667 0.0
H471 H 0.60983 0.97345 0.67971 0.0
C472 C 0.42588 0.91771 0.62176 0.0
N473 N 0.37691 0.92925 0.57838 0.0
C474 C 0.39024 0.93398 0.62392 0.0
C475 C 0.43634 0.9071 0.59755 0.0
C476 C 0.36592 0.93961 0.60177 0.0
C477 C 0.4113 0.91325 0.57584 0.0
C478 C 0.49901 0.91111 0.72047 0.0
C479 C 0.49759 0.89032 0.73773 0.0
C480 C 0.49875 0.93629 0.73018 0.0
C481 C 0.49591 0.89505 0.76448 0.0
C482 C 0.49705 0.94021 0.75706 0.0
N483 N 0.49568 0.91969 0.77351 0.0
C484 C 0.5291 0.84592 0.67099 0.0
C485 C 0.47757 0.84684 0.63698 0.0
C486 C 0.52976 0.81903 0.67051 0.0
N487 N 0.50324 0.85917 0.6544 0.0
C488 C 0.47732 0.81996 0.63576 0.0
C489 C 0.50341 0.80569 0.65283 0.0
H490 H 0.549 0.85629 0.68473 0.0
H491 H 0.45685 0.85785 0.62429 0.0
C492 C 0.38465 0.95945 0.69443 0.0
N493 N 0.40859 0.93756 0.69595 0.0
C494 C 0.34599 0.96149 0.7084 0.0
C495 C 0.35947 0.91935 0.72652 0.0
C496 C 0.39636 0.91765 0.71136 0.0
C497 C 0.33257 0.94111 0.72471 0.0
H498 H 0.39486 0.97496 0.68179 0.0
H499 H 0.41519 0.90017 0.71178 0.0
O500 O 0.55283 0.9153 0.64287 0.0
O501 O 0.49883 0.9596 0.66699 0.0
O502 O 0.4506 0.91242 0.64315 0.0
O503 O 0.5005 0.90667 0.69421 0.0
H504 H 0.623 0.89828 0.66667 0.0
H505 H 0.53809 0.88574 0.60173 0.0
H506 H 0.66534 0.86019 0.65299 0.0
H507 H 0.58209 0.84794 0.58907 0.0
H508 H 0.5057 0.04517 0.68482 0.0
H509 H 0.5629 0.97142 0.63497 0.0
H510 H 0.47433 0.00166 0.69168 0.0
H511 H 0.59223 0.01546 0.62881 0.0
H512 H 0.55223 0.94985 0.54557 0.0
H513 H 0.44777 0.99934 0.56996 0.0
H514 H 0.64606 0.90619 0.74365 0.0
H515 H 0.67757 0.97724 0.70377 0.0
H516 H 0.38158 0.94233 0.64245 0.0
H517 H 0.46388 0.89458 0.59543 0.0
H518 H 0.33839 0.95228 0.60316 0.0
H519 H 0.41929 0.90536 0.55696 0.0
H520 H 0.49776 0.87072 0.7305 0.0
H521 H 0.49984 0.95264 0.71718 0.0
H522 H 0.49479 0.87914 0.77806 0.0
H523 H 0.49681 0.95958 0.76485 0.0
H524 H 0.55069 0.8088 0.68382 0.0
H525 H 0.4561 0.81044 0.62208 0.0
H526 H 0.32657 0.97859 0.70584 0.0
H527 H 0.35234 0.90341 0.73936 0.0
Li528 Li 0.46072 0.43121 0.32854 0.0
Li529 Li 0.50067 0.43595 0.36968 0.0
Li530 Li 0.54153 0.43108 0.32924 0.0
Li531 Li 0.499 0.39566 0.34845 0.0
C532 C 0.48493 0.48349 0.34183 0.0
N533 N 0.45127 0.53223 0.34896 0.0
C534 C 0.45173 0.48746 0.35973 0.0
C535 C 0.50119 0.5043 0.32767 0.0
C536 C 0.43512 0.51226 0.36304 0.0
C537 C 0.48366 0.52879 0.33149 0.0
C538 C 0.42414 0.3946 0.37039 0.0
C539 C 0.41064 0.35912 0.39963 0.0
N540 N 0.37586 0.35231 0.38513 0.0
C541 C 0.38803 0.38737 0.35592 0.0
C542 C 0.43533 0.38049 0.39257 0.0
C543 C 0.36411 0.3659 0.36364 0.0
C544 C 0.39931 0.41957 0.29071 0.0
N545 N 0.40975 0.43825 0.30816 0.0
C546 C 0.3448 0.46105 0.29796 0.0
C547 C 0.38344 0.45889 0.31186 0.0
C548 C 0.33327 0.44192 0.27982 0.0
C549 C 0.36195 0.42134 0.27591 0.0
H550 H 0.4192 0.40265 0.28883 0.0
H551 H 0.39139 0.47327 0.32618 0.0
C552 C 0.52952 0.47219 0.40774 0.0
N553 N 0.50084 0.45302 0.40279 0.0
C554 C 0.53053 0.48404 0.43219 0.0
C555 C 0.47179 0.45663 0.44571 0.0
C556 C 0.47202 0.44529 0.42109 0.0
C557 C 0.50141 0.47624 0.4516 0.0
H558 H 0.55176 0.47818 0.39272 0.0
H559 H 0.44922 0.43026 0.41659 0.0
C560 C 0.5025 0.41108 0.28522 0.0
N561 N 0.50594 0.41966 0.23219 0.0
C562 C 0.50399 0.39028 0.26796 0.0
C563 C 0.50273 0.43625 0.27551 0.0
C564 C 0.50573 0.39502 0.24122 0.0
C565 C 0.50449 0.44018 0.24864 0.0
C566 C 0.57547 0.4177 0.38397 0.0
C567 C 0.61112 0.43396 0.38182 0.0
C568 C 0.56498 0.4071 0.40818 0.0
C569 C 0.63541 0.4396 0.40398 0.0
C570 C 0.58999 0.41326 0.4299 0.0
N571 N 0.62438 0.42926 0.42737 0.0
C572 C 0.61676 0.45944 0.3113 0.0
C573 C 0.60512 0.41762 0.2944 0.0
C574 C 0.65543 0.46148 0.29734 0.0
N575 N 0.59284 0.43754 0.30979 0.0
C576 C 0.64202 0.41932 0.27925 0.0
C577 C 0.66888 0.4411 0.28105 0.0
H578 H 0.60652 0.47496 0.32392 0.0
H579 H 0.58631 0.40013 0.29399 0.0
C580 C 0.47243 0.34588 0.33464 0.0
N581 N 0.49819 0.35913 0.35129 0.0
C582 C 0.4718 0.31899 0.33511 0.0
C583 C 0.52404 0.31992 0.36997 0.0
C584 C 0.52377 0.34681 0.36876 0.0
C585 C 0.49806 0.30566 0.35284 0.0
H586 H 0.45259 0.35625 0.32087 0.0
H587 H 0.5444 0.35782 0.38149 0.0
O588 O 0.50254 0.45956 0.3387 0.0
O589 O 0.44854 0.41525 0.3628 0.0
O590 O 0.50095 0.40663 0.31149 0.0
O591 O 0.55077 0.4124 0.36257 0.0
H592 H 0.43855 0.47153 0.37071 0.0
H593 H 0.52712 0.50152 0.31387 0.0
H594 H 0.40931 0.5156 0.37675 0.0
H595 H 0.49585 0.54508 0.32061 0.0
H596 H 0.41922 0.3479 0.41659 0.0
H597 H 0.37852 0.39816 0.3389 0.0
H598 H 0.46318 0.38573 0.40398 0.0
H599 H 0.33621 0.36003 0.35253 0.0
H600 H 0.32365 0.47709 0.30212 0.0
H601 H 0.35547 0.4063 0.26186 0.0
H602 H 0.55349 0.49933 0.43574 0.0
H603 H 0.44901 0.44984 0.4601 0.0
H604 H 0.50384 0.37069 0.2752 0.0
H605 H 0.50158 0.4526 0.28851 0.0
H606 H 0.50691 0.37911 0.22763 0.0
H607 H 0.50471 0.45954 0.24085 0.0
H608 H 0.6198 0.4423 0.36329 0.0
H609 H 0.53742 0.39459 0.41029 0.0
H610 H 0.66294 0.45227 0.40259 0.0
H611 H 0.58197 0.40539 0.44878 0.0
H612 H 0.67483 0.47859 0.29989 0.0
H613 H 0.64917 0.40337 0.26643 0.0
H614 H 0.45095 0.30876 0.32176 0.0
H615 H 0.54519 0.31041 0.38369 0.0
Li616 Li 0.50246 0.10401 0.34844 0.0
Li617 Li 0.46 0.06858 0.32918 0.0
Li618 Li 0.50067 0.06373 0.36967 0.0
Li619 Li 0.54076 0.06842 0.32859 0.0
C620 C 0.42586 0.082 0.38386 0.0
N621 N 0.3768 0.07047 0.4272 0.0
C622 C 0.39024 0.06571 0.38168 0.0
C623 C 0.43624 0.09264 0.40807 0.0
C624 C 0.36588 0.06009 0.40381 0.0
C625 C 0.41116 0.0865 0.42976 0.0
C626 C 0.49931 0.08856 0.28521 0.0
C627 C 0.49744 0.05945 0.24863 0.0
N628 N 0.49626 0.07997 0.23217 0.0
C629 C 0.49809 0.10935 0.26794 0.0
C630 C 0.499 0.06338 0.27551 0.0
C631 C 0.49655 0.10461 0.24119 0.0
C632 C 0.52927 0.15379 0.33472 0.0
N633 N 0.50331 0.14054 0.35126 0.0
C634 C 0.47729 0.17975 0.36984 0.0
C635 C 0.47754 0.15287 0.36862 0.0
C636 C 0.50348 0.19401 0.35283 0.0
C637 C 0.52993 0.18067 0.3352 0.0
H638 H 0.54925 0.1434 0.32103 0.0
H639 H 0.45674 0.14186 0.38127 0.0
C640 C 0.38476 0.04028 0.31119 0.0
N641 N 0.40876 0.06214 0.30965 0.0
C642 C 0.34612 0.03825 0.2972 0.0
C643 C 0.35974 0.08034 0.279 0.0
C644 C 0.3966 0.08204 0.29419 0.0
C645 C 0.33279 0.0586 0.28084 0.0
H646 H 0.3949 0.02478 0.32387 0.0
H647 H 0.41548 0.09949 0.29375 0.0
C648 C 0.57727 0.10502 0.3705 0.0
N649 N 0.6256 0.14725 0.38539 0.0
C650 C 0.61361 0.11215 0.35619 0.0
C651 C 0.56589 0.11919 0.39261 0.0
C652 C 0.63755 0.13359 0.36398 0.0
C653 C 0.5906 0.14053 0.39974 0.0
C654 C 0.51667 0.01622 0.3421 0.0
C655 C 0.55003 0.01254 0.35995 0.0
C656 C 0.50039 0.9952 0.32827 0.0
C657 C 0.56678 0.98782 0.36355 0.0
C658 C 0.51808 0.97078 0.33238 0.0
N659 N 0.55062 0.96763 0.34979 0.0
C660 C 0.47173 0.02752 0.40774 0.0
C661 C 0.52917 0.05445 0.42111 0.0
C662 C 0.47071 0.01568 0.43219 0.0
N663 N 0.5004 0.0467 0.4028 0.0
C664 C 0.52938 0.04312 0.44574 0.0
C665 C 0.49979 0.0235 0.45161 0.0
H666 H 0.44953 0.02151 0.39271 0.0
H667 H 0.55196 0.06949 0.41662 0.0
C668 C 0.6024 0.0803 0.29107 0.0
N669 N 0.59171 0.06139 0.30819 0.0
C670 C 0.63973 0.0786 0.27623 0.0
C671 C 0.65628 0.0384 0.29755 0.0
C672 C 0.61768 0.04053 0.3115 0.0
C673 C 0.66811 0.0578 0.27977 0.0
H674 H 0.58272 0.09734 0.28948 0.0
H675 H 0.60946 0.0259 0.3255 0.0
O676 O 0.45062 0.0873 0.36248 0.0
O677 O 0.50068 0.09301 0.31148 0.0
O678 O 0.55286 0.0844 0.36285 0.0
O679 O 0.49889 0.04007 0.33871 0.0
H680 H 0.38164 0.05735 0.36315 0.0
H681 H 0.46375 0.10518 0.4102 0.0
H682 H 0.33837 0.0474 0.40241 0.0
H683 H 0.41909 0.0944 0.44864 0.0
H684 H 0.49718 0.04009 0.24085 0.0
H685 H 0.4983 0.12895 0.27517 0.0
H686 H 0.49995 0.04703 0.28852 0.0
H687 H 0.49558 0.12052 0.2276 0.0
H688 H 0.45599 0.18927 0.38348 0.0
H689 H 0.55094 0.1909 0.32194 0.0
H690 H 0.32665 0.02117 0.29979 0.0
H691 H 0.35269 0.09625 0.26612 0.0
H692 H 0.6233 0.1013 0.33925 0.0
H693 H 0.53788 0.11403 0.40391 0.0
H694 H 0.66562 0.13938 0.353 0.0
H695 H 0.58187 0.1518 0.41665 0.0
H696 H 0.56322 0.02864 0.37068 0.0
H697 H 0.47434 0.99774 0.31452 0.0
H698 H 0.59272 0.9847 0.37723 0.0
H699 H 0.50588 0.95434 0.32176 0.0
H700 H 0.44776 0.00038 0.43573 0.0
H701 H 0.55214 0.04993 0.46014 0.0
H702 H 0.64643 0.09384 0.26245 0.0
H703 H 0.67717 0.02217 0.3014 0.0
C704 C 0.00172 0.26335 0.17624 0.0
C705 C 0.00233 0.27713 0.15269 0.0
H706 H 1.00009 0.22643 0.19473 0.0
C707 C 0.00135 0.26338 0.12912 0.0
H708 H 0.00195 0.27337 0.19473 0.0
C709 C 0.99996 0.23645 0.12912 0.0
C710 C 0.99924 0.22269 0.15269 0.0
H711 H 0.0021 0.27344 0.11065 0.0
H712 H 0.99901 0.22639 0.11065 0.0
C713 C 1.00012 0.23646 0.17624 0.0
C714 C 0.99999 0.76334 0.87655 0.0
C715 C 0.99916 0.77709 0.85297 0.0
H716 H 0.00222 0.72635 0.89501 0.0
C717 C 0.99993 0.76332 0.82942 0.0
H718 H 0.99912 0.7734 0.89501 0.0
C719 C 0.00154 0.73643 0.82942 0.0
C720 C 0.00226 0.72266 0.85297 0.0
H721 H 0.99982 0.77335 0.81093 0.0
H722 H 0.00169 0.7264 0.81093 0.0
C723 C 0.00138 0.73641 0.87655 0.0
C724 C 0.49999 0.7364 0.62913 0.0
C725 C 0.49916 0.72265 0.6527 0.0
H726 H 0.50221 0.7734 0.61067 0.0
C727 C 0.49993 0.73642 0.67626 0.0
H728 H 0.49912 0.72635 0.61066 0.0
C729 C 0.50154 0.76331 0.67626 0.0
C730 C 0.50226 0.77709 0.6527 0.0
H731 H 0.49982 0.72639 0.69474 0.0
H732 H 0.50168 0.77334 0.69475 0.0
C733 C 0.50138 0.76334 0.62913 0.0
C734 C 0.50012 0.26328 0.32941 0.0
C735 C 0.49924 0.27705 0.35296 0.0
H736 H 0.50197 0.22637 0.31092 0.0
C737 C 0.49996 0.2633 0.37654 0.0
H738 H 0.50009 0.27332 0.31092 0.0
C739 C 0.50136 0.23636 0.37653 0.0
C740 C 0.50234 0.22262 0.35296 0.0
H741 H 0.49901 0.27335 0.395 0.0
H742 H 0.5021 0.2263 0.395 0.0
C743 C 0.50173 0.23639 0.32941 0.0
C744 C 0.2706 0.03467 0.25937 0.0
C745 C 0.29072 0.05799 0.26648 0.0
H746 H 0.21632 0.01633 0.24172 0.0
C747 C 0.2701 0.08117 0.25966 0.0
H748 H 0.28525 0.0163 0.26384 0.0
C749 C 0.23196 0.08118 0.24551 0.0
C750 C 0.21115 0.05802 0.23884 0.0
H751 H 0.28293 0.0997 0.26528 0.0
H752 H 0.21925 0.09971 0.23977 0.0
C753 C 0.23111 0.03469 0.24608 0.0
C754 C 0.73098 0.46506 0.25952 0.0
C755 C 0.71096 0.44173 0.26671 0.0
H756 H 0.78517 0.48344 0.24181 0.0
C757 C 0.73171 0.41856 0.25998 0.0
H758 H 0.71624 0.48342 0.26393 0.0
C759 C 0.76985 0.41857 0.24584 0.0
C760 C 0.79054 0.44175 0.23907 0.0
H761 H 0.71896 0.40003 0.26568 0.0
H762 H 0.78264 0.40004 0.24017 0.0
C763 C 0.77047 0.46506 0.24623 0.0
C764 C 0.23096 0.96506 0.75951 0.0
C765 C 0.21092 0.94174 0.76669 0.0
H766 H 0.28516 0.98343 0.7418 0.0
C767 C 0.23165 0.91857 0.75996 0.0
H768 H 0.21623 0.98343 0.76392 0.0
C769 C 0.26979 0.91857 0.74581 0.0
C770 C 0.2905 0.94174 0.73905 0.0
H771 H 0.21888 0.90004 0.76565 0.0
H772 H 0.28257 0.90003 0.74014 0.0
C773 C 0.27045 0.96506 0.74622 0.0
C774 C 0.73097 0.53468 0.74618 0.0
C775 C 0.71094 0.558 0.73899 0.0
H776 H 0.78517 0.51631 0.76389 0.0
C777 C 0.73167 0.58117 0.74572 0.0
H778 H 0.71624 0.51631 0.74177 0.0
C779 C 0.76981 0.58118 0.75987 0.0
C780 C 0.79051 0.558 0.76663 0.0
H781 H 0.7189 0.59971 0.74003 0.0
H782 H 0.78259 0.59971 0.76554 0.0
C783 C 0.77046 0.53468 0.75947 0.0
C784 C 0.7312 0.91921 0.74617 0.0
C785 C 0.71045 0.94244 0.73969 0.0
H786 H 0.78384 0.90076 0.76477 0.0
C787 C 0.73074 0.96577 0.74645 0.0
H788 H 0.71762 0.90076 0.74083 0.0
C789 C 0.77062 0.96577 0.75924 0.0
C790 C 0.79094 0.94244 0.76597 0.0
H791 H 0.71578 0.9841 0.7421 0.0
H792 H 0.78555 0.9841 0.76363 0.0
C793 C 0.77023 0.91921 0.75946 0.0
C794 C 0.27025 0.58053 0.74623 0.0
C795 C 0.29094 0.55731 0.7397 0.0
H796 H 0.21765 0.59899 0.76488 0.0
C797 C 0.27059 0.53397 0.7464 0.0
H798 H 0.28386 0.59899 0.74094 0.0
C799 C 0.23071 0.53397 0.75919 0.0
C800 C 0.21045 0.55731 0.76597 0.0
H801 H 0.28551 0.51564 0.74199 0.0
H802 H 0.21573 0.51565 0.76353 0.0
C803 C 0.23121 0.58053 0.75952 0.0
C804 C 0.73047 0.03397 0.25887 0.0
C805 C 0.71044 0.0573 0.26593 0.0
H806 H 0.78509 0.01564 0.24147 0.0
C807 C 0.73143 0.08052 0.25975 0.0
H808 H 0.71531 0.01565 0.263 0.0
C809 C 0.77047 0.08053 0.24646 0.0
C810 C 0.79093 0.05731 0.23966 0.0
H811 H 0.71806 0.09896 0.26532 0.0
H812 H 0.78427 0.099 0.24138 0.0
C813 C 0.77035 0.03397 0.24609 0.0
C814 C 0.23124 0.41922 0.24612 0.0
C815 C 0.21043 0.44244 0.23973 0.0
H816 H 0.28393 0.40075 0.26466 0.0
C817 C 0.23066 0.46577 0.24658 0.0
H818 H 0.21772 0.40077 0.24071 0.0
C819 C 0.27054 0.46577 0.25937 0.0
C820 C 0.29092 0.44243 0.266 0.0
H821 H 0.21565 0.4841 0.24229 0.0
H822 H 0.28542 0.48409 0.26382 0.0
C823 C 0.27028 0.41921 0.25941 0.0
C824 C 0.0405 0.00548 0.01525 0.0
C825 C 0.00155 0.01124 0.0279 0.0
H826 H 0.07105 0.98988 0.98134 0.0
C827 C 0.96265 0.00547 0.01521 0.0
H828 H 0.07103 0.00991 0.02437 0.0
C829 C 0.96266 0.99425 0.99049 0.0
C830 C 0.00157 0.9885 0.9778 0.0
H831 H 0.93206 0.00941 0.02449 0.0
H832 H 0.93208 0.9903 0.98121 0.0
C833 C 0.04052 0.99429 0.99046 0.0
C834 C 0.96072 0.50549 0.99045 0.0
C835 C 0.99967 0.51127 0.9778 0.0
H836 H 0.93018 0.48988 0.02436 0.0
C837 C 0.03857 0.5055 0.99048 0.0
H838 H 0.93019 0.50992 0.98133 0.0
C839 C 0.03857 0.49428 0.0152 0.0
C840 C 0.99966 0.48852 0.02789 0.0
H841 H 0.06915 0.50944 0.9812 0.0
H842 H 0.06915 0.49033 0.02448 0.0
C843 C 0.96072 0.4943 0.01524 0.0
C844 C 0.46272 0.49424 0.49048 0.0
C845 C 0.50162 0.48848 0.47779 0.0
H846 H 0.43214 0.50942 0.52448 0.0
C847 C 0.54057 0.49425 0.49045 0.0
H848 H 0.43214 0.4903 0.4812 0.0
C849 C 0.54058 0.50545 0.51524 0.0
C850 C 0.50163 0.51123 0.52789 0.0
H851 H 0.5711 0.48983 0.48133 0.0
H852 H 0.57111 0.50987 0.52436 0.0
C853 C 0.46272 0.50547 0.5152 0.0
C854 C 0.46066 0.99426 0.51524 0.0
C855 C 0.49961 0.98849 0.5279 0.0
H856 H 0.43011 0.00987 0.48134 0.0
C857 C 0.53851 0.99427 0.51521 0.0
H858 H 0.43013 0.98983 0.52436 0.0
C859 C 0.5385 0.0055 0.49049 0.0
C860 C 0.49959 0.01125 0.4778 0.0
H861 H 0.5691 0.99033 0.52448 0.0
H862 H 0.56908 0.00945 0.48121 0.0
C863 C 0.46065 0.00546 0.49046 0.0
loop_
_geom_bond_atom_site_label_1
_geom_bond_atom_site_label_2
_geom_bond_distance
_geom_bond_site_symmetry_2
_ccdc_geom_bond_type
Li0 N17 1.990 . S
Li0 O60 1.956 . S
Li0 O61 1.970 1_455 S
Li0 O62 1.961 1_455 S
Li1 N25 1.990 . S
Li1 O60 1.970 . S
Li1 O61 1.941 1_455 S
Li1 O63 1.961 . S
Li2 N47 1.991 . S
Li2 O60 1.945 1_655 S
Li2 O62 1.971 . S
Li2 O63 1.970 1_655 S
Li3 N53 1.990 . S
Li3 O61 1.975 . S
Li3 O62 1.970 . S
Li3 O63 1.956 1_655 S
C4 C6 1.348 . S
C4 C7 1.356 . S
C4 O60 1.325 . S
N5 C8 1.314 . S
N5 C9 1.279 . S
C6 C4 1.348 . S
C6 C8 1.353 . S
C6 H64 0.929 . S
C7 C4 1.356 . S
C7 C9 1.358 . S
C7 H65 0.930 . S
C8 N5 1.314 . S
C8 C6 1.353 . S
C8 H66 0.930 . S
C9 N5 1.279 . S
C9 C7 1.358 . S
C9 H67 0.930 . S
C10 C13 1.349 . S
C10 C14 1.355 1_455 S
C10 O61 1.324 1_455 S
C11 N12 1.279 1_655 S
C11 C14 1.358 . S
C11 H68 0.930 . S
N12 C11 1.279 1_455 S
N12 C15 1.314 . S
C13 C10 1.349 . S
C13 C15 1.353 . S
C13 H69 0.929 . S
C14 C10 1.355 1_655 S
C14 C11 1.358 . S
C14 H70 0.930 . S
C15 N12 1.314 . S
C15 C13 1.353 . S
C15 H71 0.930 . S
C16 N17 1.314 1_655 S
C16 C21 1.353 . S
C16 H22 0.930 . S
N17 Li0 1.990 . S
N17 C16 1.314 1_455 S
N17 C19 1.279 . S
C18 C19 1.358 . S
C18 C20 1.366 . S
C18 H72 0.930 . S
C19 N17 1.279 . S
C19 C18 1.358 . S
C19 H23 0.930 . S
C20 C18 1.366 . S
C20 C21 1.337 1_455 S
C21 C16 1.353 . S
C21 C20 1.337 1_655 S
C21 H73 0.929 . S
H22 C16 0.930 . S
H23 C19 0.930 . S
C24 N25 1.314 . S
C24 C26 1.353 . S
C24 H30 0.930 . S
N25 Li1 1.990 . S
N25 C24 1.314 . S
N25 C28 1.279 . S
C26 C24 1.353 . S
C26 C29 1.348 . S
C26 H74 0.929 . S
C27 C28 1.358 . S
C27 C29 1.356 . S
C27 H75 0.930 . S
C28 N25 1.279 . S
C28 C27 1.358 . S
C28 H31 0.930 . S
C29 C26 1.348 . S
C29 C27 1.356 . S
H30 C24 0.930 . S
H31 C28 0.930 . S
C32 C34 1.348 . S
C32 C35 1.356 . S
C32 O62 1.325 . S
N33 C36 1.314 . S
N33 C37 1.279 . S
C34 C32 1.348 . S
C34 C36 1.353 . S
C34 H76 0.929 . S
C35 C32 1.356 . S
C35 C37 1.358 . S
C35 H77 0.930 . S
C36 N33 1.314 . S
C36 C34 1.353 . S
C36 H78 0.930 . S
C37 N33 1.279 . S
C37 C35 1.358 . S
C37 H79 0.930 . S
C38 C39 1.344 1_445 S
C38 C40 1.359 . S
C38 O63 1.325 . S
C39 C38 1.344 1_665 S
C39 C41 1.353 . S
C39 H80 0.926 1_565 S
C40 C38 1.359 . S
C40 C42 1.358 1_545 S
C40 H81 0.930 . S
C41 C39 1.353 . S
C41 N43 1.314 . S
C41 H82 0.930 . S
C42 C40 1.358 1_565 S
C42 N43 1.279 1_455 S
C42 H83 0.930 . S
N43 C41 1.314 . S
N43 C42 1.279 1_655 S
C44 C46 1.353 . S
C44 N47 1.314 1_455 S
C44 H50 0.930 . S
C45 N47 1.279 . S
C45 C48 1.358 . S
C45 H51 0.930 . S
C46 C44 1.353 . S
C46 C49 1.354 . S
C46 H84 0.929 . S
N47 Li2 1.991 . S
N47 C44 1.314 1_655 S
N47 C45 1.279 . S
C48 C45 1.358 . S
C48 C49 1.350 1_655 S
C48 H85 0.930 . S
C49 C46 1.354 . S
C49 C48 1.350 1_455 S
H50 C44 0.930 . S
H51 C45 0.930 . S
C52 N53 1.314 . S
C52 C54 1.353 . S
C52 H58 0.930 . S
N53 Li3 1.990 . S
N53 C52 1.314 . S
N53 C56 1.279 . S
C54 C52 1.353 . S
C54 C57 1.348 . S
C54 H86 0.929 . S
C55 C56 1.358 . S
C55 C57 1.356 . S
C55 H87 0.930 . S
C56 N53 1.279 . S
C56 C55 1.358 . S
C56 H59 0.930 . S
C57 C54 1.348 . S
C57 C55 1.356 . S
H58 C52 0.930 . S
H59 C56 0.930 . S
O60 Li0 1.956 . S
O60 Li1 1.970 . S
O60 Li2 1.945 1_455 S
O60 C4 1.325 . S
O61 Li0 1.970 1_655 S
O61 Li1 1.941 1_655 S
O61 Li3 1.975 . S
O61 C10 1.324 1_655 S
O62 Li0 1.961 1_655 S
O62 Li2 1.971 . S
O62 Li3 1.970 . S
O62 C32 1.325 . S
O63 Li1 1.961 . S
O63 Li2 1.970 1_455 S
O63 Li3 1.956 1_455 S
O63 C38 1.325 . S
H64 C6 0.929 . S
H65 C7 0.930 . S
H66 C8 0.930 . S
H67 C9 0.930 . S
H68 C11 0.930 . S
H69 C13 0.929 . S
H70 C14 0.930 . S
H71 C15 0.930 . S
H72 C18 0.930 . S
H73 C21 0.929 . S
H74 C26 0.929 . S
H75 C27 0.930 . S
H76 C34 0.929 . S
H77 C35 0.930 . S
H78 C36 0.930 . S
H79 C37 0.930 . S
H80 C39 0.926 1_545 S
H81 C40 0.930 . S
H82 C41 0.930 . S
H83 C42 0.930 . S
H84 C46 0.929 . S
H85 C48 0.930 . S
H86 C54 0.929 . S
H87 C55 0.930 . S
Li88 N105 1.990 . S
Li88 O148 1.956 . S
Li88 O149 1.970 1_455 S
Li88 O150 1.961 1_455 S
Li89 N113 1.990 . S
Li89 O148 1.970 . S
Li89 O149 1.956 1_455 S
Li89 O151 1.961 . S
Li90 N135 1.990 . S
Li90 O148 1.961 1_655 S
Li90 O150 1.956 . S
Li90 O151 1.970 1_655 S
Li91 N141 1.990 . S
Li91 O149 1.961 . S
Li91 O150 1.970 . S
Li91 O151 1.956 1_655 S
C92 C94 1.348 . S
C92 C95 1.356 . S
C92 O148 1.325 . S
N93 C96 1.314 . S
N93 C97 1.279 . S
C94 C92 1.348 . S
C94 C96 1.353 . S
C94 H152 0.929 . S
C95 C92 1.356 . S
C95 C97 1.358 . S
C95 H153 0.930 . S
C96 N93 1.314 . S
C96 C94 1.353 . S
C96 H154 0.930 . S
C97 N93 1.279 . S
C97 C95 1.358 . S
C97 H155 0.930 . S
C98 C101 1.347 . S
C98 C102 1.356 1_455 S
C98 O149 1.325 1_455 S
C99 N100 1.279 1_655 S
C99 C102 1.358 . S
C99 H156 0.930 . S
N100 C99 1.279 1_455 S
N100 C103 1.314 . S
C101 C98 1.347 . S
C101 C103 1.353 . S
C101 H157 0.929 . S
C102 C98 1.356 1_655 S
C102 C99 1.358 . S
C102 H158 0.930 . S
C103 N100 1.314 . S
C103 C101 1.353 . S
C103 H159 0.930 . S
C104 N105 1.314 1_655 S
C104 C109 1.353 . S
C104 H110 0.930 . S
N105 Li88 1.990 . S
N105 C104 1.314 1_455 S
N105 C107 1.279 . S
C106 C107 1.358 . S
C106 C108 1.359 . S
C106 H160 0.930 . S
C107 N105 1.279 . S
C107 C106 1.358 . S
C107 H111 0.930 . S
C108 C106 1.359 . S
C108 C109 1.344 1_455 S
C109 C104 1.353 . S
C109 C108 1.344 1_655 S
C109 H161 0.929 . S
H110 C104 0.930 . S
H111 C107 0.930 . S
C112 N113 1.314 . S
C112 C114 1.353 . S
C112 H118 0.930 . S
N113 Li89 1.990 . S
N113 C112 1.314 . S
N113 C116 1.279 . S
C114 C112 1.353 . S
C114 C117 1.348 . S
C114 H162 0.929 . S
C115 C116 1.358 . S
C115 C117 1.356 . S
C115 H163 0.930 . S
C116 N113 1.279 . S
C116 C115 1.358 . S
C116 H119 0.930 . S
C117 C114 1.348 . S
C117 C115 1.356 . S
H118 C112 0.930 . S
H119 C116 0.930 . S
C120 C122 1.348 . S
C120 C123 1.356 . S
C120 O150 1.325 . S
N121 C124 1.314 . S
N121 C125 1.279 . S
C122 C120 1.348 . S
C122 C124 1.353 . S
C122 H164 0.929 . S
C123 C120 1.356 . S
C123 C125 1.358 . S
C123 H165 0.930 . S
C124 N121 1.314 . S
C124 C122 1.353 . S
C124 H166 0.930 . S
C125 N121 1.279 . S
C125 C123 1.358 . S
C125 H167 0.930 . S
C126 C127 1.346 1_455 S
C126 C128 1.357 . S
C126 O151 1.325 . S
C127 C126 1.346 1_655 S
C127 C129 1.353 . S
C127 H168 0.929 . S
C128 C126 1.357 . S
C128 C130 1.358 . S
C128 H169 0.930 . S
C129 C127 1.353 . S
C129 N131 1.314 . S
C129 H170 0.930 . S
C130 C128 1.358 . S
C130 N131 1.279 1_455 S
C130 H171 0.930 . S
N131 C129 1.314 . S
N131 C130 1.279 1_655 S
C132 C134 1.353 . S
C132 N135 1.314 1_455 S
C132 H138 0.930 . S
C133 N135 1.279 . S
C133 C136 1.358 . S
C133 H139 0.930 . S
C134 C132 1.353 . S
C134 C137 1.347 . S
C134 H172 0.929 . S
N135 Li90 1.990 . S
N135 C132 1.314 1_655 S
N135 C133 1.279 . S
C136 C133 1.358 . S
C136 C137 1.357 1_655 S
C136 H173 0.930 . S
C137 C134 1.347 . S
C137 C136 1.357 1_455 S
H138 C132 0.930 . S
H139 C133 0.930 . S
C140 N141 1.314 . S
C140 C142 1.353 . S
C140 H146 0.930 . S
N141 Li91 1.990 . S
N141 C140 1.314 . S
N141 C144 1.279 . S
C142 C140 1.353 . S
C142 C145 1.348 . S
C142 H174 0.929 . S
C143 C144 1.358 . S
C143 C145 1.356 . S
C143 H175 0.930 . S
C144 N141 1.279 . S
C144 C143 1.358 . S
C144 H147 0.930 . S
C145 C142 1.348 . S
C145 C143 1.356 . S
H146 C140 0.930 . S
H147 C144 0.930 . S
O148 Li88 1.956 . S
O148 Li89 1.970 . S
O148 Li90 1.961 1_455 S
O148 C92 1.325 . S
O149 Li88 1.970 1_655 S
O149 Li89 1.956 1_655 S
O149 Li91 1.961 . S
O149 C98 1.325 1_655 S
O150 Li88 1.961 1_655 S
O150 Li90 1.956 . S
O150 Li91 1.970 . S
O150 C120 1.325 . S
O151 Li89 1.961 . S
O151 Li90 1.970 1_455 S
O151 Li91 1.956 1_455 S
O151 C126 1.325 . S
H152 C94 0.929 . S
H153 C95 0.930 . S
H154 C96 0.930 . S
H155 C97 0.930 . S
H156 C99 0.930 . S
H157 C101 0.929 . S
H158 C102 0.930 . S
H159 C103 0.930 . S
H160 C106 0.930 . S
H161 C109 0.929 . S
H162 C114 0.929 . S
H163 C115 0.930 . S
H164 C122 0.929 . S
H165 C123 0.930 . S
H166 C124 0.930 . S
H167 C125 0.930 . S
H168 C127 0.929 . S
H169 C128 0.930 . S
H170 C129 0.930 . S
H171 C130 0.930 . S
H172 C134 0.929 . S
H173 C136 0.930 . S
H174 C142 0.929 . S
H175 C143 0.930 . S
Li176 N193 1.991 . S
Li176 O236 1.971 . S
Li176 O237 1.970 1_655 S
Li176 O238 1.945 1_655 S
Li177 N201 1.990 . S
Li177 O236 1.970 . S
Li177 O237 1.956 1_655 S
Li177 O239 1.975 . S
Li178 N223 1.990 . S
Li178 O236 1.961 1_455 S
Li178 O238 1.956 . S
Li178 O239 1.970 1_455 S
Li179 N229 1.990 . S
Li179 O237 1.961 . S
Li179 O238 1.970 . S
Li179 O239 1.941 1_455 S
C180 C182 1.348 . S
C180 C183 1.356 . S
C180 O236 1.325 . S
N181 C184 1.314 . S
N181 C185 1.279 . S
C182 C180 1.348 . S
C182 C184 1.353 . S
C182 H240 0.929 . S
C183 C180 1.356 . S
C183 C185 1.358 . S
C183 H241 0.930 . S
C184 N181 1.314 . S
C184 C182 1.353 . S
C184 H242 0.930 . S
C185 N181 1.279 . S
C185 C183 1.358 . S
C185 H243 0.930 . S
C186 C189 1.344 1_465 S
C186 C190 1.359 . S
C186 O237 1.325 . S
C187 N188 1.279 1_455 S
C187 C190 1.358 1_545 S
C187 H244 0.930 . S
N188 C187 1.279 1_655 S
N188 C191 1.314 . S
C189 C186 1.344 1_645 S
C189 C191 1.353 . S
C189 H245 0.926 1_545 S
C190 C186 1.359 . S
C190 C187 1.358 1_565 S
C190 H246 0.930 . S
C191 N188 1.314 . S
C191 C189 1.353 . S
C191 H247 0.930 . S
C192 N193 1.314 1_455 S
C192 C197 1.353 . S
C192 H198 0.930 . S
N193 Li176 1.991 . S
N193 C192 1.314 1_655 S
N193 C195 1.279 . S
C194 C195 1.358 . S
C194 C196 1.350 1_655 S
C194 H248 0.930 . S
C195 N193 1.279 . S
C195 C194 1.358 . S
C195 H199 0.930 . S
C196 C194 1.350 1_455 S
C196 C197 1.354 . S
C197 C192 1.353 . S
C197 C196 1.354 . S
C197 H249 0.929 . S
H198 C192 0.930 . S
H199 C195 0.930 . S
C200 N201 1.314 . S
C200 C202 1.353 . S
C200 H206 0.930 . S
N201 Li177 1.990 . S
N201 C200 1.314 . S
N201 C204 1.279 . S
C202 C200 1.353 . S
C202 C205 1.348 . S
C202 H250 0.929 . S
C203 C204 1.358 . S
C203 C205 1.356 . S
C203 H251 0.930 . S
C204 N201 1.279 . S
C204 C203 1.358 . S
C204 H207 0.930 . S
C205 C202 1.348 . S
C205 C203 1.356 . S
H206 C200 0.930 . S
H207 C204 0.930 . S
C208 C210 1.348 . S
C208 C211 1.356 . S
C208 O238 1.325 . S
N209 C212 1.314 . S
N209 C213 1.279 . S
C210 C208 1.348 . S
C210 C212 1.353 . S
C210 H252 0.929 . S
C211 C208 1.356 . S
C211 C213 1.358 . S
C211 H253 0.930 . S
C212 N209 1.314 . S
C212 C210 1.353 . S
C212 H254 0.930 . S
C213 N209 1.279 . S
C213 C211 1.358 . S
C213 H255 0.930 . S
C214 C215 1.349 . S
C214 C216 1.355 1_455 S
C214 O239 1.324 1_455 S
C215 C214 1.349 . S
C215 C217 1.353 . S
C215 H256 0.929 . S
C216 C214 1.355 1_655 S
C216 C218 1.358 . S
C216 H257 0.930 . S
C217 C215 1.353 . S
C217 N219 1.314 . S
C217 H258 0.930 . S
C218 C216 1.358 . S
C218 N219 1.279 1_655 S
C218 H259 0.930 . S
N219 C217 1.314 . S
N219 C218 1.279 1_455 S
C220 C222 1.353 . S
C220 N223 1.314 1_655 S
C220 H226 0.930 . S
C221 N223 1.279 . S
C221 C224 1.358 . S
C221 H227 0.930 . S
C222 C220 1.353 . S
C222 C225 1.337 1_655 S
C222 H260 0.929 . S
N223 Li178 1.990 . S
N223 C220 1.314 1_455 S
N223 C221 1.279 . S
C224 C221 1.358 . S
C224 C225 1.366 . S
C224 H261 0.930 . S
C225 C222 1.337 1_455 S
C225 C224 1.366 . S
H226 C220 0.930 . S
H227 C221 0.930 . S
C228 N229 1.314 . S
C228 C230 1.353 . S
C228 H234 0.930 . S
N229 Li179 1.990 . S
N229 C228 1.314 . S
N229 C232 1.279 . S
C230 C228 1.353 . S
C230 C233 1.348 . S
C230 H262 0.929 . S
C231 C232 1.358 . S
C231 C233 1.356 . S
C231 H263 0.930 . S
C232 N229 1.279 . S
C232 C231 1.358 . S
C232 H235 0.930 . S
C233 C230 1.348 . S
C233 C231 1.356 . S
H234 C228 0.930 . S
H235 C232 0.930 . S
O236 Li176 1.971 . S
O236 Li177 1.970 . S
O236 Li178 1.961 1_655 S
O236 C180 1.325 . S
O237 Li176 1.970 1_455 S
O237 Li177 1.956 1_455 S
O237 Li179 1.961 . S
O237 C186 1.325 . S
O238 Li176 1.945 1_455 S
O238 Li178 1.956 . S
O238 Li179 1.970 . S
O238 C208 1.325 . S
O239 Li177 1.975 . S
O239 Li178 1.970 1_655 S
O239 Li179 1.941 1_655 S
O239 C214 1.324 1_655 S
H240 C182 0.929 . S
H241 C183 0.930 . S
H242 C184 0.930 . S
H243 C185 0.930 . S
H244 C187 0.930 . S
H245 C189 0.926 1_565 S
H246 C190 0.930 . S
H247 C191 0.930 . S
H248 C194 0.930 . S
H249 C197 0.929 . S
H250 C202 0.929 . S
H251 C203 0.930 . S
H252 C210 0.929 . S
H253 C211 0.930 . S
H254 C212 0.930 . S
H255 C213 0.930 . S
H256 C215 0.929 . S
H257 C216 0.930 . S
H258 C217 0.930 . S
H259 C218 0.930 . S
H260 C222 0.929 . S
H261 C224 0.930 . S
H262 C230 0.929 . S
H263 C231 0.930 . S
Li264 N281 1.990 . S
Li264 O324 1.956 1_655 S
Li264 O325 1.970 . S
Li264 O326 1.961 . S
Li265 N289 1.990 . S
Li265 O324 1.970 1_655 S
Li265 O325 1.956 . S
Li265 O327 1.961 1_655 S
Li266 N311 1.990 . S
Li266 O324 1.961 . S
Li266 O326 1.956 1_455 S
Li266 O327 1.970 . S
Li267 N317 1.990 . S
Li267 O325 1.961 1_455 S
Li267 O326 1.970 1_455 S
Li267 O327 1.956 . S
C268 C270 1.346 1_455 S
C268 C271 1.357 . S
C268 O324 1.325 . S
N269 C272 1.314 . S
N269 C273 1.279 1_655 S
C270 C268 1.346 1_655 S
C270 C272 1.353 . S
C270 H328 0.929 . S
C271 C268 1.357 . S
C271 C273 1.358 . S
C271 H329 0.930 . S
C272 N269 1.314 . S
C272 C270 1.353 . S
C272 H330 0.930 . S
C273 N269 1.279 1_455 S
C273 C271 1.358 . S
C273 H331 0.930 . S
C274 C277 1.348 . S
C274 C278 1.356 . S
C274 O325 1.325 . S
C275 N276 1.279 . S
C275 C278 1.358 . S
C275 H332 0.930 . S
N276 C275 1.279 . S
N276 C279 1.314 . S
C277 C274 1.348 . S
C277 C279 1.353 . S
C277 H333 0.929 . S
C278 C274 1.356 . S
C278 C275 1.358 . S
C278 H334 0.930 . S
C279 N276 1.314 . S
C279 C277 1.353 . S
C279 H335 0.930 . S
C280 N281 1.314 . S
C280 C285 1.353 . S
C280 H286 0.930 . S
N281 Li264 1.990 . S
N281 C280 1.314 . S
N281 C283 1.279 . S
C282 C283 1.358 . S
C282 C284 1.356 . S
C282 H336 0.930 . S
C283 N281 1.279 . S
C283 C282 1.358 . S
C283 H287 0.930 . S
C284 C282 1.356 . S
C284 C285 1.348 . S
C285 C280 1.353 . S
C285 C284 1.348 . S
C285 H337 0.929 . S
H286 C280 0.930 . S
H287 C283 0.930 . S
C288 N289 1.314 1_455 S
C288 C290 1.353 . S
C288 H294 0.930 . S
N289 Li265 1.990 . S
N289 C288 1.314 1_655 S
N289 C292 1.279 . S
C290 C288 1.353 . S
C290 C293 1.347 . S
C290 H338 0.929 . S
C291 C292 1.358 . S
C291 C293 1.357 1_655 S
C291 H339 0.930 . S
C292 N289 1.279 . S
C292 C291 1.358 . S
C292 H295 0.930 . S
C293 C290 1.347 . S
C293 C291 1.357 1_455 S
H294 C288 0.930 . S
H295 C292 0.930 . S
C296 C298 1.347 . S
C296 C299 1.356 1_455 S
C296 O326 1.325 1_455 S
N297 C300 1.314 . S
N297 C301 1.279 1_455 S
C298 C296 1.347 . S
C298 C300 1.353 . S
C298 H340 0.929 . S
C299 C296 1.356 1_655 S
C299 C301 1.358 . S
C299 H341 0.930 . S
C300 N297 1.314 . S
C300 C298 1.353 . S
C300 H342 0.930 . S
C301 N297 1.279 1_655 S
C301 C299 1.358 . S
C301 H343 0.930 . S
C302 C303 1.348 . S
C302 C304 1.356 . S
C302 O327 1.325 . S
C303 C302 1.348 . S
C303 C305 1.353 . S
C303 H344 0.929 . S
C304 C302 1.356 . S
C304 C306 1.358 . S
C304 H345 0.930 . S
C305 C303 1.353 . S
C305 N307 1.314 . S
C305 H346 0.930 . S
C306 C304 1.358 . S
C306 N307 1.279 . S
C306 H347 0.930 . S
N307 C305 1.314 . S
N307 C306 1.279 . S
C308 C310 1.353 . S
C308 N311 1.314 . S
C308 H314 0.930 . S
C309 N311 1.279 . S
C309 C312 1.358 . S
C309 H315 0.930 . S
C310 C308 1.353 . S
C310 C313 1.348 . S
C310 H348 0.929 . S
N311 Li266 1.990 . S
N311 C308 1.314 . S
N311 C309 1.279 . S
C312 C309 1.358 . S
C312 C313 1.356 . S
C312 H349 0.930 . S
C313 C310 1.348 . S
C313 C312 1.356 . S
H314 C308 0.930 . S
H315 C309 0.930 . S
C316 N317 1.314 1_655 S
C316 C318 1.353 . S
C316 H322 0.930 . S
N317 Li267 1.990 . S
N317 C316 1.314 1_455 S
N317 C320 1.279 . S
C318 C316 1.353 . S
C318 C321 1.344 1_655 S
C318 H350 0.929 . S
C319 C320 1.358 . S
C319 C321 1.359 . S
C319 H351 0.930 . S
C320 N317 1.279 . S
C320 C319 1.358 . S
C320 H323 0.930 . S
C321 C318 1.344 1_455 S
C321 C319 1.359 . S
H322 C316 0.930 . S
H323 C320 0.930 . S
O324 Li264 1.956 1_455 S
O324 Li265 1.970 1_455 S
O324 Li266 1.961 . S
O324 C268 1.325 . S
O325 Li264 1.970 . S
O325 Li265 1.956 . S
O325 Li267 1.961 1_655 S
O325 C274 1.325 . S
O326 Li264 1.961 . S
O326 Li266 1.956 1_655 S
O326 Li267 1.970 1_655 S
O326 C296 1.325 1_655 S
O327 Li265 1.961 1_455 S
O327 Li266 1.970 . S
O327 Li267 1.956 . S
O327 C302 1.325 . S
H328 C270 0.929 . S
H329 C271 0.930 . S
H330 C272 0.930 . S
H331 C273 0.930 . S
H332 C275 0.930 . S
H333 C277 0.929 . S
H334 C278 0.930 . S
H335 C279 0.930 . S
H336 C282 0.930 . S
H337 C285 0.929 . S
H338 C290 0.929 . S
H339 C291 0.930 . S
H340 C298 0.929 . S
H341 C299 0.930 . S
H342 C300 0.930 . S
H343 C301 0.930 . S
H344 C303 0.929 . S
H345 C304 0.930 . S
H346 C305 0.930 . S
H347 C306 0.930 . S
H348 C310 0.929 . S
H349 C312 0.930 . S
H350 C318 0.929 . S
H351 C319 0.930 . S
Li352 N369 1.990 . S
Li352 O412 1.956 . S
Li352 O413 1.970 . S
Li352 O414 1.961 . S
Li353 N377 1.990 . S
Li353 O412 1.970 . S
Li353 O413 1.956 . S
Li353 O415 1.961 . S
Li354 N399 1.990 . S
Li354 O412 1.961 . S
Li354 O414 1.956 . S
Li354 O415 1.970 . S
Li355 N405 1.990 . S
Li355 O413 1.961 . S
Li355 O414 1.970 . S
Li355 O415 1.956 . S
C356 C358 1.348 . S
C356 C359 1.356 . S
C356 O412 1.325 . S
N357 C360 1.314 . S
N357 C361 1.279 . S
C358 C356 1.348 . S
C358 C360 1.353 . S
C358 H416 0.929 . S
C359 C356 1.356 . S
C359 C361 1.358 . S
C359 H417 0.930 . S
C360 N357 1.314 . S
C360 C358 1.353 . S
C360 H418 0.930 . S
C361 N357 1.279 . S
C361 C359 1.358 . S
C361 H419 0.930 . S
C362 C365 1.348 . S
C362 C366 1.356 . S
C362 O413 1.325 . S
C363 N364 1.279 . S
C363 C366 1.358 . S
C363 H420 0.930 . S
N364 C363 1.279 . S
N364 C367 1.314 . S
C365 C362 1.348 . S
C365 C367 1.353 . S
C365 H421 0.929 . S
C366 C362 1.356 . S
C366 C363 1.358 . S
C366 H422 0.930 . S
C367 N364 1.314 . S
C367 C365 1.353 . S
C367 H423 0.930 . S
C368 N369 1.314 . S
C368 C373 1.353 . S
C368 H374 0.930 . S
N369 Li352 1.990 . S
N369 C368 1.314 . S
N369 C371 1.279 . S
C370 C371 1.358 . S
C370 C372 1.356 . S
C370 H424 0.930 . S
C371 N369 1.279 . S
C371 C370 1.358 . S
C371 H375 0.930 . S
C372 C370 1.356 . S
C372 C373 1.348 . S
C373 C368 1.353 . S
C373 C372 1.348 . S
C373 H425 0.929 . S
H374 C368 0.930 . S
H375 C371 0.930 . S
C376 N377 1.314 . S
C376 C378 1.353 . S
C376 H382 0.930 . S
N377 Li353 1.990 . S
N377 C376 1.314 . S
N377 C380 1.279 . S
C378 C376 1.353 . S
C378 C381 1.348 . S
C378 H426 0.929 . S
C379 C380 1.358 . S
C379 C381 1.356 . S
C379 H427 0.930 . S
C380 N377 1.279 . S
C380 C379 1.358 . S
C380 H383 0.930 . S
C381 C378 1.348 . S
C381 C379 1.356 . S
H382 C376 0.930 . S
H383 C380 0.930 . S
C384 C386 1.348 . S
C384 C387 1.356 . S
C384 O414 1.325 . S
N385 C388 1.314 . S
N385 C389 1.279 . S
C386 C384 1.348 . S
C386 C388 1.353 . S
C386 H428 0.929 . S
C387 C384 1.356 . S
C387 C389 1.358 . S
C387 H429 0.930 . S
C388 N385 1.314 . S
C388 C386 1.353 . S
C388 H430 0.930 . S
C389 N385 1.279 . S
C389 C387 1.358 . S
C389 H431 0.930 . S
C390 C391 1.348 . S
C390 C392 1.356 . S
C390 O415 1.325 . S
C391 C390 1.348 . S
C391 C393 1.353 . S
C391 H432 0.929 . S
C392 C390 1.356 . S
C392 C394 1.358 . S
C392 H433 0.930 . S
C393 C391 1.353 . S
C393 N395 1.314 . S
C393 H434 0.930 . S
C394 C392 1.358 . S
C394 N395 1.279 . S
C394 H435 0.930 . S
N395 C393 1.314 . S
N395 C394 1.279 . S
C396 C398 1.353 . S
C396 N399 1.314 . S
C396 H402 0.930 . S
C397 N399 1.279 . S
C397 C400 1.358 . S
C397 H403 0.930 . S
C398 C396 1.353 . S
C398 C401 1.348 . S
C398 H436 0.929 . S
N399 Li354 1.990 . S
N399 C396 1.314 . S
N399 C397 1.279 . S
C400 C397 1.358 . S
C400 C401 1.356 . S
C400 H437 0.930 . S
C401 C398 1.348 . S
C401 C400 1.356 . S
H402 C396 0.930 . S
H403 C397 0.930 . S
C404 N405 1.314 . S
C404 C406 1.353 . S
C404 H410 0.930 . S
N405 Li355 1.990 . S
N405 C404 1.314 . S
N405 C408 1.279 . S
C406 C404 1.353 . S
C406 C409 1.348 . S
C406 H438 0.929 . S
C407 C408 1.358 . S
C407 C409 1.356 . S
C407 H439 0.930 . S
C408 N405 1.279 . S
C408 C407 1.358 . S
C408 H411 0.930 . S
C409 C406 1.348 . S
C409 C407 1.356 . S
H410 C404 0.930 . S
H411 C408 0.930 . S
O412 Li352 1.956 . S
O412 Li353 1.970 . S
O412 Li354 1.961 . S
O412 C356 1.325 . S
O413 Li352 1.970 . S
O413 Li353 1.956 . S
O413 Li355 1.961 . S
O413 C362 1.325 . S
O414 Li352 1.961 . S
O414 Li354 1.956 . S
O414 Li355 1.970 . S
O414 C384 1.325 . S
O415 Li353 1.961 . S
O415 Li354 1.970 . S
O415 Li355 1.956 . S
O415 C390 1.325 . S
H416 C358 0.929 . S
H417 C359 0.930 . S
H418 C360 0.930 . S
H419 C361 0.930 . S
H420 C363 0.930 . S
H421 C365 0.929 . S
H422 C366 0.930 . S
H423 C367 0.930 . S
H424 C370 0.930 . S
H425 C373 0.929 . S
H426 C378 0.929 . S
H427 C379 0.930 . S
H428 C386 0.929 . S
H429 C387 0.930 . S
H430 C388 0.930 . S
H431 C389 0.930 . S
H432 C391 0.929 . S
H433 C392 0.930 . S
H434 C393 0.930 . S
H435 C394 0.930 . S
H436 C398 0.929 . S
H437 C400 0.930 . S
H438 C406 0.929 . S
H439 C407 0.930 . S
Li440 N457 1.990 . S
Li440 O500 1.956 . S
Li440 O501 1.970 . S
Li440 O502 1.961 . S
Li441 N465 1.990 . S
Li441 O500 1.970 . S
Li441 O501 1.956 . S
Li441 O503 1.961 . S
Li442 N487 1.990 . S
Li442 O500 1.961 . S
Li442 O502 1.956 . S
Li442 O503 1.970 . S
Li443 N493 1.990 . S
Li443 O501 1.961 . S
Li443 O502 1.970 . S
Li443 O503 1.956 . S
C444 C446 1.348 . S
C444 C447 1.356 . S
C444 O500 1.325 . S
N445 C448 1.314 . S
N445 C449 1.279 . S
C446 C444 1.348 . S
C446 C448 1.353 . S
C446 H504 0.929 . S
C447 C444 1.356 . S
C447 C449 1.358 . S
C447 H505 0.930 . S
C448 N445 1.314 . S
C448 C446 1.353 . S
C448 H506 0.930 . S
C449 N445 1.279 . S
C449 C447 1.358 . S
C449 H507 0.930 . S
C450 C453 1.348 1_565 S
C450 C454 1.356 . S
C450 O501 1.325 . S
C451 N452 1.279 . S
C451 C454 1.358 1_545 S
C451 H508 0.930 . S
N452 C451 1.279 . S
N452 C455 1.314 . S
C453 C450 1.348 1_545 S
C453 C455 1.353 . S
C453 H509 0.926 1_545 S
C454 C450 1.356 . S
C454 C451 1.358 1_565 S
C454 H510 0.930 . S
C455 N452 1.314 . S
C455 C453 1.353 . S
C455 H511 0.930 . S
C456 N457 1.314 . S
C456 C461 1.353 . S
C456 H462 0.930 . S
N457 Li440 1.990 . S
N457 C456 1.314 . S
N457 C459 1.279 . S
C458 C459 1.358 . S
C458 C460 1.356 . S
C458 H512 0.930 . S
C459 N457 1.279 . S
C459 C458 1.358 . S
C459 H463 0.930 . S
C460 C458 1.356 . S
C460 C461 1.348 . S
C461 C456 1.353 . S
C461 C460 1.348 . S
C461 H513 0.929 . S
H462 C456 0.930 . S
H463 C459 0.930 . S
C464 N465 1.314 . S
C464 C466 1.353 . S
C464 H470 0.930 . S
N465 Li441 1.990 . S
N465 C464 1.314 . S
N465 C468 1.279 . S
C466 C464 1.353 . S
C466 C469 1.348 . S
C466 H514 0.929 . S
C467 C468 1.358 . S
C467 C469 1.356 . S
C467 H515 0.930 . S
C468 N465 1.279 . S
C468 C467 1.358 . S
C468 H471 0.930 . S
C469 C466 1.348 . S
C469 C467 1.356 . S
H470 C464 0.930 . S
H471 C468 0.930 . S
C472 C474 1.348 . S
C472 C475 1.356 . S
C472 O502 1.325 . S
N473 C476 1.314 . S
N473 C477 1.279 . S
C474 C472 1.348 . S
C474 C476 1.353 . S
C474 H516 0.929 . S
C475 C472 1.356 . S
C475 C477 1.358 . S
C475 H517 0.930 . S
C476 N473 1.314 . S
C476 C474 1.353 . S
C476 H518 0.930 . S
C477 N473 1.279 . S
C477 C475 1.358 . S
C477 H519 0.930 . S
C478 C479 1.348 . S
C478 C480 1.356 . S
C478 O503 1.325 . S
C479 C478 1.348 . S
C479 C481 1.353 . S
C479 H520 0.929 . S
C480 C478 1.356 . S
C480 C482 1.358 . S
C480 H521 0.930 . S
C481 C479 1.353 . S
C481 N483 1.314 . S
C481 H522 0.930 . S
C482 C480 1.358 . S
C482 N483 1.279 . S
C482 H523 0.930 . S
N483 C481 1.314 . S
N483 C482 1.279 . S
C484 C486 1.353 . S
C484 N487 1.314 . S
C484 H490 0.930 . S
C485 N487 1.279 . S
C485 C488 1.358 . S
C485 H491 0.930 . S
C486 C484 1.353 . S
C486 C489 1.348 . S
C486 H524 0.929 . S
N487 Li442 1.990 . S
N487 C484 1.314 . S
N487 C485 1.279 . S
C488 C485 1.358 . S
C488 C489 1.356 . S
C488 H525 0.930 . S
C489 C486 1.348 . S
C489 C488 1.356 . S
H490 C484 0.930 . S
H491 C485 0.930 . S
C492 N493 1.314 . S
C492 C494 1.353 . S
C492 H498 0.930 . S
N493 Li443 1.990 . S
N493 C492 1.314 . S
N493 C496 1.279 . S
C494 C492 1.353 . S
C494 C497 1.348 . S
C494 H526 0.929 . S
C495 C496 1.358 . S
C495 C497 1.356 . S
C495 H527 0.930 . S
C496 N493 1.279 . S
C496 C495 1.358 . S
C496 H499 0.930 . S
C497 C494 1.348 . S
C497 C495 1.356 . S
H498 C492 0.930 . S
H499 C496 0.930 . S
O500 Li440 1.956 . S
O500 Li441 1.970 . S
O500 Li442 1.961 . S
O500 C444 1.325 . S
O501 Li440 1.970 . S
O501 Li441 1.956 . S
O501 Li443 1.961 . S
O501 C450 1.325 . S
O502 Li440 1.961 . S
O502 Li442 1.956 . S
O502 Li443 1.970 . S
O502 C472 1.325 . S
O503 Li441 1.961 . S
O503 Li442 1.970 . S
O503 Li443 1.956 . S
O503 C478 1.325 . S
H504 C446 0.929 . S
H505 C447 0.930 . S
H506 C448 0.930 . S
H507 C449 0.930 . S
H508 C451 0.930 . S
H509 C453 0.926 1_565 S
H510 C454 0.930 . S
H511 C455 0.930 . S
H512 C458 0.930 . S
H513 C461 0.929 . S
H514 C466 0.929 . S
H515 C467 0.930 . S
H516 C474 0.929 . S
H517 C475 0.930 . S
H518 C476 0.930 . S
H519 C477 0.930 . S
H520 C479 0.929 . S
H521 C480 0.930 . S
H522 C481 0.930 . S
H523 C482 0.930 . S
H524 C486 0.929 . S
H525 C488 0.930 . S
H526 C494 0.929 . S
H527 C495 0.930 . S
Li528 N545 1.990 . S
Li528 O588 1.956 . S
Li528 O589 1.970 . S
Li528 O590 1.961 . S
Li529 N553 1.990 . S
Li529 O588 1.970 . S
Li529 O589 1.956 . S
Li529 O591 1.961 . S
Li530 N575 1.990 . S
Li530 O588 1.961 . S
Li530 O590 1.956 . S
Li530 O591 1.970 . S
Li531 N581 1.990 . S
Li531 O589 1.961 . S
Li531 O590 1.970 . S
Li531 O591 1.956 . S
C532 C534 1.348 . S
C532 C535 1.356 . S
C532 O588 1.325 . S
N533 C536 1.314 . S
N533 C537 1.279 . S
C534 C532 1.348 . S
C534 C536 1.353 . S
C534 H592 0.929 . S
C535 C532 1.356 . S
C535 C537 1.358 . S
C535 H593 0.930 . S
C536 N533 1.314 . S
C536 C534 1.353 . S
C536 H594 0.930 . S
C537 N533 1.279 . S
C537 C535 1.358 . S
C537 H595 0.930 . S
C538 C541 1.348 . S
C538 C542 1.356 . S
C538 O589 1.325 . S
C539 N540 1.279 . S
C539 C542 1.358 . S
C539 H596 0.930 . S
N540 C539 1.279 . S
N540 C543 1.314 . S
C541 C538 1.348 . S
C541 C543 1.353 . S
C541 H597 0.929 . S
C542 C538 1.356 . S
C542 C539 1.358 . S
C542 H598 0.930 . S
C543 N540 1.314 . S
C543 C541 1.353 . S
C543 H599 0.930 . S
C544 N545 1.314 . S
C544 C549 1.353 . S
C544 H550 0.930 . S
N545 Li528 1.990 . S
N545 C544 1.314 . S
N545 C547 1.279 . S
C546 C547 1.358 . S
C546 C548 1.356 . S
C546 H600 0.930 . S
C547 N545 1.279 . S
C547 C546 1.358 . S
C547 H551 0.930 . S
C548 C546 1.356 . S
C548 C549 1.348 . S
C549 C544 1.353 . S
C549 C548 1.348 . S
C549 H601 0.929 . S
H550 C544 0.930 . S
H551 C547 0.930 . S
C552 N553 1.314 . S
C552 C554 1.353 . S
C552 H558 0.930 . S
N553 Li529 1.990 . S
N553 C552 1.314 . S
N553 C556 1.279 . S
C554 C552 1.353 . S
C554 C557 1.348 . S
C554 H602 0.929 . S
C555 C556 1.358 . S
C555 C557 1.356 . S
C555 H603 0.930 . S
C556 N553 1.279 . S
C556 C555 1.358 . S
C556 H559 0.930 . S
C557 C554 1.348 . S
C557 C555 1.356 . S
H558 C552 0.930 . S
H559 C556 0.930 . S
C560 C562 1.348 . S
C560 C563 1.356 . S
C560 O590 1.325 . S
N561 C564 1.314 . S
N561 C565 1.279 . S
C562 C560 1.348 . S
C562 C564 1.353 . S
C562 H604 0.929 . S
C563 C560 1.356 . S
C563 C565 1.358 . S
C563 H605 0.930 . S
C564 N561 1.314 . S
C564 C562 1.353 . S
C564 H606 0.930 . S
C565 N561 1.279 . S
C565 C563 1.358 . S
C565 H607 0.930 . S
C566 C567 1.348 . S
C566 C568 1.356 . S
C566 O591 1.325 . S
C567 C566 1.348 . S
C567 C569 1.353 . S
C567 H608 0.929 . S
C568 C566 1.356 . S
C568 C570 1.358 . S
C568 H609 0.930 . S
C569 C567 1.353 . S
C569 N571 1.314 . S
C569 H610 0.930 . S
C570 C568 1.358 . S
C570 N571 1.279 . S
C570 H611 0.930 . S
N571 C569 1.314 . S
N571 C570 1.279 . S
C572 C574 1.353 . S
C572 N575 1.314 . S
C572 H578 0.930 . S
C573 N575 1.279 . S
C573 C576 1.358 . S
C573 H579 0.930 . S
C574 C572 1.353 . S
C574 C577 1.348 . S
C574 H612 0.929 . S
N575 Li530 1.990 . S
N575 C572 1.314 . S
N575 C573 1.279 . S
C576 C573 1.358 . S
C576 C577 1.356 . S
C576 H613 0.930 . S
C577 C574 1.348 . S
C577 C576 1.356 . S
H578 C572 0.930 . S
H579 C573 0.930 . S
C580 N581 1.314 . S
C580 C582 1.353 . S
C580 H586 0.930 . S
N581 Li531 1.990 . S
N581 C580 1.314 . S
N581 C584 1.279 . S
C582 C580 1.353 . S
C582 C585 1.348 . S
C582 H614 0.929 . S
C583 C584 1.358 . S
C583 C585 1.356 . S
C583 H615 0.930 . S
C584 N581 1.279 . S
C584 C583 1.358 . S
C584 H587 0.930 . S
C585 C582 1.348 . S
C585 C583 1.356 . S
H586 C580 0.930 . S
H587 C584 0.930 . S
O588 Li528 1.956 . S
O588 Li529 1.970 . S
O588 Li530 1.961 . S
O588 C532 1.325 . S
O589 Li528 1.970 . S
O589 Li529 1.956 . S
O589 Li531 1.961 . S
O589 C538 1.325 . S
O590 Li528 1.961 . S
O590 Li530 1.956 . S
O590 Li531 1.970 . S
O590 C560 1.325 . S
O591 Li529 1.961 . S
O591 Li530 1.970 . S
O591 Li531 1.956 . S
O591 C566 1.325 . S
H592 C534 0.929 . S
H593 C535 0.930 . S
H594 C536 0.930 . S
H595 C537 0.930 . S
H596 C539 0.930 . S
H597 C541 0.929 . S
H598 C542 0.930 . S
H599 C543 0.930 . S
H600 C546 0.930 . S
H601 C549 0.929 . S
H602 C554 0.929 . S
H603 C555 0.930 . S
H604 C562 0.929 . S
H605 C563 0.930 . S
H606 C564 0.930 . S
H607 C565 0.930 . S
H608 C567 0.929 . S
H609 C568 0.930 . S
H610 C569 0.930 . S
H611 C570 0.930 . S
H612 C574 0.929 . S
H613 C576 0.930 . S
H614 C582 0.929 . S
H615 C583 0.930 . S
Li616 N633 1.990 . S
Li616 O676 1.956 . S
Li616 O677 1.970 . S
Li616 O678 1.961 . S
Li617 N641 1.990 . S
Li617 O676 1.970 . S
Li617 O677 1.956 . S
Li617 O679 1.961 . S
Li618 N663 1.990 . S
Li618 O676 1.961 . S
Li618 O678 1.956 . S
Li618 O679 1.970 . S
Li619 N669 1.990 . S
Li619 O677 1.961 . S
Li619 O678 1.970 . S
Li619 O679 1.956 . S
C620 C622 1.348 . S
C620 C623 1.356 . S
C620 O676 1.325 . S
N621 C624 1.314 . S
N621 C625 1.279 . S
C622 C620 1.348 . S
C622 C624 1.353 . S
C622 H680 0.929 . S
C623 C620 1.356 . S
C623 C625 1.358 . S
C623 H681 0.930 . S
C624 N621 1.314 . S
C624 C622 1.353 . S
C624 H682 0.930 . S
C625 N621 1.279 . S
C625 C623 1.358 . S
C625 H683 0.930 . S
C626 C629 1.348 . S
C626 C630 1.356 . S
C626 O677 1.325 . S
C627 N628 1.279 . S
C627 C630 1.358 . S
C627 H684 0.930 . S
N628 C627 1.279 . S
N628 C631 1.314 . S
C629 C626 1.348 . S
C629 C631 1.353 . S
C629 H685 0.929 . S
C630 C626 1.356 . S
C630 C627 1.358 . S
C630 H686 0.930 . S
C631 N628 1.314 . S
C631 C629 1.353 . S
C631 H687 0.930 . S
C632 N633 1.314 . S
C632 C637 1.353 . S
C632 H638 0.930 . S
N633 Li616 1.990 . S
N633 C632 1.314 . S
N633 C635 1.279 . S
C634 C635 1.358 . S
C634 C636 1.356 . S
C634 H688 0.930 . S
C635 N633 1.279 . S
C635 C634 1.358 . S
C635 H639 0.930 . S
C636 C634 1.356 . S
C636 C637 1.348 . S
C637 C632 1.353 . S
C637 C636 1.348 . S
C637 H689 0.929 . S
H638 C632 0.930 . S
H639 C635 0.930 . S
C640 N641 1.314 . S
C640 C642 1.353 . S
C640 H646 0.930 . S
N641 Li617 1.990 . S
N641 C640 1.314 . S
N641 C644 1.279 . S
C642 C640 1.353 . S
C642 C645 1.348 . S
C642 H690 0.929 . S
C643 C644 1.358 . S
C643 C645 1.356 . S
C643 H691 0.930 . S
C644 N641 1.279 . S
C644 C643 1.358 . S
C644 H647 0.930 . S
C645 C642 1.348 . S
C645 C643 1.356 . S
H646 C640 0.930 . S
H647 C644 0.930 . S
C648 C650 1.348 . S
C648 C651 1.356 . S
C648 O678 1.325 . S
N649 C652 1.314 . S
N649 C653 1.279 . S
C650 C648 1.348 . S
C650 C652 1.353 . S
C650 H692 0.929 . S
C651 C648 1.356 . S
C651 C653 1.358 . S
C651 H693 0.930 . S
C652 N649 1.314 . S
C652 C650 1.353 . S
C652 H694 0.930 . S
C653 N649 1.279 . S
C653 C651 1.358 . S
C653 H695 0.930 . S
C654 C655 1.348 1_545 S
C654 C656 1.356 . S
C654 O679 1.325 . S
C655 C654 1.348 1_565 S
C655 C657 1.353 . S
C655 H696 0.926 1_565 S
C656 C654 1.356 . S
C656 C658 1.358 1_545 S
C656 H697 0.930 . S
C657 C655 1.353 . S
C657 N659 1.314 . S
C657 H698 0.930 . S
C658 C656 1.358 1_565 S
C658 N659 1.279 . S
C658 H699 0.930 . S
N659 C657 1.314 . S
N659 C658 1.279 . S
C660 C662 1.353 . S
C660 N663 1.314 . S
C660 H666 0.930 . S
C661 N663 1.279 . S
C661 C664 1.358 . S
C661 H667 0.930 . S
C662 C660 1.353 . S
C662 C665 1.348 . S
C662 H700 0.929 . S
N663 Li618 1.990 . S
N663 C660 1.314 . S
N663 C661 1.279 . S
C664 C661 1.358 . S
C664 C665 1.356 . S
C664 H701 0.930 . S
C665 C662 1.348 . S
C665 C664 1.356 . S
H666 C660 0.930 . S
H667 C661 0.930 . S
C668 N669 1.314 . S
C668 C670 1.353 . S
C668 H674 0.930 . S
N669 Li619 1.990 . S
N669 C668 1.314 . S
N669 C672 1.279 . S
C670 C668 1.353 . S
C670 C673 1.348 . S
C670 H702 0.929 . S
C671 C672 1.358 . S
C671 C673 1.356 . S
C671 H703 0.930 . S
C672 N669 1.279 . S
C672 C671 1.358 . S
C672 H675 0.930 . S
C673 C670 1.348 . S
C673 C671 1.356 . S
H674 C668 0.930 . S
H675 C672 0.930 . S
O676 Li616 1.956 . S
O676 Li617 1.970 . S
O676 Li618 1.961 . S
O676 C620 1.325 . S
O677 Li616 1.970 . S
O677 Li617 1.956 . S
O677 Li619 1.961 . S
O677 C626 1.325 . S
O678 Li616 1.961 . S
O678 Li618 1.956 . S
O678 Li619 1.970 . S
O678 C648 1.325 . S
O679 Li617 1.961 . S
O679 Li618 1.970 . S
O679 Li619 1.956 . S
O679 C654 1.325 . S
H680 C622 0.929 . S
H681 C623 0.930 . S
H682 C624 0.930 . S
H683 C625 0.930 . S
H684 C627 0.930 . S
H685 C629 0.929 . S
H686 C630 0.930 . S
H687 C631 0.930 . S
H688 C634 0.930 . S
H689 C637 0.929 . S
H690 C642 0.929 . S
H691 C643 0.930 . S
H692 C650 0.929 . S
H693 C651 0.930 . S
H694 C652 0.930 . S
H695 C653 0.930 . S
H696 C655 0.926 1_545 S
H697 C656 0.930 . S
H698 C657 0.930 . S
H699 C658 0.930 . S
H700 C662 0.929 . S
H701 C664 0.930 . S
H702 C670 0.929 . S
H703 C671 0.930 . S
C704 C705 1.387 . S
C704 H708 0.950 . S
C704 C713 1.390 . S
C705 C704 1.387 . S
C705 C707 1.387 . S
H706 C713 0.950 1_655 S
C707 C705 1.387 . S
C707 C709 1.390 . S
C707 H711 0.950 . S
H708 C704 0.950 . S
C709 C707 1.390 . S
C709 C710 1.387 . S
C709 H712 0.950 1_455 S
C710 C709 1.387 . S
C710 C713 1.387 . S
H711 C707 0.950 . S
H712 C709 0.950 1_655 S
C713 C704 1.390 . S
C713 H706 0.950 1_455 S
C713 C710 1.387 . S
C714 C715 1.387 . S
C714 H718 0.950 . S
C714 C723 1.390 1_455 S
C715 C714 1.387 . S
C715 C717 1.387 . S
H716 C723 0.950 . S
C717 C715 1.387 . S
C717 C719 1.390 . S
C717 H721 0.950 . S
H718 C714 0.950 . S
C719 C717 1.390 . S
C719 C720 1.387 . S
C719 H722 0.950 . S
C720 C719 1.387 . S
C720 C723 1.387 1_455 S
H721 C717 0.950 . S
H722 C719 0.950 . S
C723 C714 1.390 1_655 S
C723 H716 0.950 . S
C723 C720 1.387 1_655 S
C724 C725 1.387 . S
C724 H728 0.950 . S
C724 C733 1.390 . S
C725 C724 1.387 . S
C725 C727 1.387 . S
H726 C733 0.950 . S
C727 C725 1.387 . S
C727 C729 1.390 . S
C727 H731 0.950 . S
H728 C724 0.950 . S
C729 C727 1.390 . S
C729 C730 1.387 . S
C729 H732 0.950 . S
C730 C729 1.387 . S
C730 C733 1.387 . S
H731 C727 0.950 . S
H732 C729 0.950 . S
C733 C724 1.390 . S
C733 H726 0.950 . S
C733 C730 1.387 . S
C734 C735 1.387 . S
C734 H738 0.950 . S
C734 C743 1.390 . S
C735 C734 1.387 . S
C735 C737 1.387 . S
H736 C743 0.950 . S
C737 C735 1.387 . S
C737 C739 1.390 . S
C737 H741 0.950 . S
H738 C734 0.950 . S
C739 C737 1.390 . S
C739 C740 1.387 . S
C739 H742 0.950 . S
C740 C739 1.387 . S
C740 C743 1.387 . S
H741 C737 0.950 . S
H742 C739 0.950 . S
C743 C734 1.390 . S
C743 H736 0.950 . S
C743 C740 1.387 . S
C744 C745 1.387 . S
C744 H748 0.950 1_545 S
C744 C753 1.390 . S
C745 C744 1.387 . S
C745 C747 1.387 . S
H746 C753 0.950 1_565 S
C747 C745 1.387 . S
C747 C749 1.390 . S
C747 H751 0.950 . S
H748 C744 0.950 1_565 S
C749 C747 1.390 . S
C749 C750 1.387 . S
C749 H752 0.950 . S
C750 C749 1.387 . S
C750 C753 1.387 . S
H751 C747 0.950 . S
H752 C749 0.950 . S
C753 C744 1.390 . S
C753 H746 0.950 1_545 S
C753 C750 1.387 . S
C754 C755 1.387 . S
C754 H758 0.950 . S
C754 C763 1.390 . S
C755 C754 1.387 . S
C755 C757 1.387 . S
H756 C763 0.950 . S
C757 C755 1.387 . S
C757 C759 1.390 . S
C757 H761 0.950 . S
H758 C754 0.950 . S
C759 C757 1.390 . S
C759 C760 1.387 . S
C759 H762 0.950 . S
C760 C759 1.387 . S
C760 C763 1.387 . S
H761 C757 0.950 . S
H762 C759 0.950 . S
C763 C754 1.390 . S
C763 H756 0.950 . S
C763 C760 1.387 . S
C764 C765 1.387 . S
C764 H768 0.950 1_565 S
C764 C773 1.390 . S
C765 C764 1.387 . S
C765 C767 1.387 . S
H766 C773 0.950 1_545 S
C767 C765 1.387 . S
C767 C769 1.390 . S
C767 H771 0.950 . S
H768 C764 0.950 1_545 S
C769 C767 1.390 . S
C769 C770 1.387 . S
C769 H772 0.950 . S
C770 C769 1.387 . S
C770 C773 1.387 . S
H771 C767 0.950 . S
H772 C769 0.950 . S
C773 C764 1.390 . S
C773 H766 0.950 1_565 S
C773 C770 1.387 . S
C774 C775 1.387 . S
C774 H778 0.950 . S
C774 C783 1.390 . S
C775 C774 1.387 . S
C775 C777 1.387 . S
H776 C783 0.950 . S
C777 C775 1.387 . S
C777 C779 1.390 . S
C777 H781 0.950 . S
H778 C774 0.950 . S
C779 C777 1.390 . S
C779 C780 1.387 . S
C779 H782 0.950 . S
C780 C779 1.387 . S
C780 C783 1.387 . S
H781 C777 0.950 . S
H782 C779 0.950 . S
C783 C774 1.390 . S
C783 H776 0.950 . S
C783 C780 1.387 . S
C784 C785 1.387 . S
C784 H788 0.950 . S
C784 C793 1.390 . S
C785 C784 1.387 . S
C785 C787 1.387 . S
H786 C793 0.950 . S
C787 C785 1.387 . S
C787 C789 1.390 . S
C787 H791 0.950 1_565 S
H788 C784 0.950 . S
C789 C787 1.390 . S
C789 C790 1.387 . S
C789 H792 0.950 1_565 S
C790 C789 1.387 . S
C790 C793 1.387 . S
H791 C787 0.950 1_545 S
H792 C789 0.950 1_545 S
C793 C784 1.390 . S
C793 H786 0.950 . S
C793 C790 1.387 . S
C794 C795 1.387 . S
C794 H798 0.950 . S
C794 C803 1.390 . S
C795 C794 1.387 . S
C795 C797 1.387 . S
H796 C803 0.950 . S
C797 C795 1.387 . S
C797 C799 1.390 . S
C797 H801 0.950 . S
H798 C794 0.950 . S
C799 C797 1.390 . S
C799 C800 1.387 . S
C799 H802 0.950 . S
C800 C799 1.387 . S
C800 C803 1.387 . S
H801 C797 0.950 . S
H802 C799 0.950 . S
C803 C794 1.390 . S
C803 H796 0.950 . S
C803 C800 1.387 . S
C804 C805 1.387 . S
C804 H808 0.950 1_545 S
C804 C813 1.390 . S
C805 C804 1.387 . S
C805 C807 1.387 . S
H806 C813 0.950 1_565 S
C807 C805 1.387 . S
C807 C809 1.390 . S
C807 H811 0.950 . S
H808 C804 0.950 1_565 S
C809 C807 1.390 . S
C809 C810 1.387 . S
C809 H812 0.950 . S
C810 C809 1.387 . S
C810 C813 1.387 . S
H811 C807 0.950 . S
H812 C809 0.950 . S
C813 C804 1.390 . S
C813 H806 0.950 1_545 S
C813 C810 1.387 . S
C814 C815 1.387 . S
C814 H818 0.950 . S
C814 C823 1.390 . S
C815 C814 1.387 . S
C815 C817 1.387 . S
H816 C823 0.950 . S
C817 C815 1.387 . S
C817 C819 1.390 . S
C817 H821 0.950 . S
H818 C814 0.950 . S
C819 C817 1.390 . S
C819 C820 1.387 . S
C819 H822 0.950 . S
C820 C819 1.387 . S
C820 C823 1.387 . S
H821 C817 0.950 . S
H822 C819 0.950 . S
C823 C814 1.390 . S
C823 H816 0.950 . S
C823 C820 1.387 . S
C824 C825 1.403 . S
C824 H828 0.950 . S
C824 C833 1.390 1_544 S
C825 C824 1.403 . S
C825 C827 1.372 1_455 S
H826 C833 0.950 . S
C827 C825 1.372 1_655 S
C827 C829 1.390 1_544 S
C827 H831 0.950 . S
H828 C824 0.950 . S
C829 C827 1.390 1_566 S
C829 C830 1.372 1_655 S
C829 H832 0.950 . S
C830 C829 1.372 1_455 S
C830 C833 1.403 . S
H831 C827 0.950 . S
H832 C829 0.950 . S
C833 C824 1.390 1_566 S
C833 H826 0.950 . S
C833 C830 1.403 . S
C834 C835 1.388 . S
C834 H838 0.950 . S
C834 C843 1.390 1_556 S
C835 C834 1.388 . S
C835 C837 1.387 1_655 S
H836 C843 0.950 . S
C837 C835 1.387 1_455 S
C837 C839 1.390 1_556 S
C837 H841 0.950 . S
H838 C834 0.950 . S
C839 C837 1.390 1_554 S
C839 C840 1.387 1_455 S
C839 H842 0.950 . S
C840 C839 1.387 1_655 S
C840 C843 1.388 . S
H841 C837 0.950 . S
H842 C839 0.950 . S
C843 C834 1.390 1_554 S
C843 H836 0.950 . S
C843 C840 1.388 . S
C844 C845 1.387 . S
C844 H848 0.950 . S
C844 C853 1.390 . S
C845 C844 1.387 . S
C845 C847 1.387 . S
H846 C853 0.950 . S
C847 C845 1.387 . S
C847 C849 1.390 . S
C847 H851 0.950 . S
H848 C844 0.950 . S
C849 C847 1.390 . S
C849 C850 1.387 . S
C849 H852 0.950 . S
C850 C849 1.387 . S
C850 C853 1.387 . S
H851 C847 0.950 . S
H852 C849 0.950 . S
C853 C844 1.390 . S
C853 H846 0.950 . S
C853 C850 1.387 . S
C854 C855 1.387 . S
C854 H858 0.950 . S
C854 C863 1.390 1_565 S
C855 C854 1.387 . S
C855 C857 1.387 . S
H856 C863 0.950 . S
C857 C855 1.387 . S
C857 C859 1.390 1_565 S
C857 H861 0.950 . S
H858 C854 0.950 . S
C859 C857 1.390 1_545 S
C859 C860 1.387 . S
C859 H862 0.950 . S
C860 C859 1.387 . S
C860 C863 1.387 . S
H861 C857 0.950 . S
H862 C859 0.950 . S
C863 C854 1.390 1_545 S
C863 H856 0.950 . S
C863 C860 1.387 . S
C705 C137 1.537 . S
C710 C20 1.537 . S
C715 C225 1.537 . S
C720 C293 1.537 . S
C725 C381 1.537 . S
C730 C489 1.537 . S
C735 C585 1.537 . S
C740 C636 1.537 . S
C745 C645 1.485 . S
C750 C29 1.485 . S
C755 C577 1.485 . S
C760 C145 1.485 . S
C765 C233 1.485 . S
C770 C497 1.485 . S
C775 C372 1.485 . S
C780 C284 1.485 . S
C785 C469 1.490 . S
C790 C205 1.490 . S
C795 C401 1.490 . S
C800 C313 1.490 . S
C805 C673 1.490 . S
C810 C57 1.490 . S
C815 C117 1.490 . S
C820 C548 1.490 . S
C825 C49 1.276 . S
C830 C196 1.276 . S
C835 C321 1.276 1_655 S
C840 C108 1.276 1_655 S
C845 C557 1.279 . S
C850 C409 1.279 . S
C855 C460 1.276 . S
C860 C665 1.276 . S
