# Generated by pormake.
# Topology wlj, (5)-cn, num edge types: 1
# Building blocks:
#     Node 0, Type 0, BuildingBlock: BEQFEK_clean_sbu_0, # of connection points: 5
#     Node 1, Type 0, BuildingBlock: BEQFEK_clean_sbu_0, # of connection points: 5
#     Node 2, Type 0, BuildingBlock: BEQFEK_clean_sbu_0, # of connection points: 5
#     Node 3, Type 0, BuildingBlock: BEQFEK_clean_sbu_0, # of connection points: 5
#     Node 4, Type 0, BuildingBlock: BEQFEK_clean_sbu_0, # of connection points: 5
#     Node 5, Type 0, BuildingBlock: BEQFEK_clean_sbu_0, # of connection points: 5
#     Edge 6, Type (0, 0), BuildingBlock: CIFDUS_clean_linker_0, # of connection points: 2
#     Edge 7, Type (0, 0), BuildingBlock: CIFDUS_clean_linker_0, # of connection points: 2
#     Edge 8, Type (0, 0), BuildingBlock: CIFDUS_clean_linker_0, # of connection points: 2
#     Edge 9, Type (0, 0), BuildingBlock: CIFDUS_clean_linker_0, # of connection points: 2
#     Edge 10, Type (0, 0), BuildingBlock: CIFDUS_clean_linker_0, # of connection points: 2
#     Edge 11, Type (0, 0), BuildingBlock: CIFDUS_clean_linker_0, # of connection points: 2
#     Edge 12, Type (0, 0), BuildingBlock: CIFDUS_clean_linker_0, # of connection points: 2
#     Edge 13, Type (0, 0), BuildingBlock: CIFDUS_clean_linker_0, # of connection points: 2
#     Edge 14, Type (0, 0), BuildingBlock: CIFDUS_clean_linker_0, # of connection points: 2
#     Edge 15, Type (0, 0), BuildingBlock: CIFDUS_clean_linker_0, # of connection points: 2
#     Edge 16, Type (0, 0), BuildingBlock: CIFDUS_clean_linker_0, # of connection points: 2
#     Edge 17, Type (0, 0), BuildingBlock: CIFDUS_clean_linker_0, # of connection points: 2
#     Edge 18, Type (0, 0), BuildingBlock: CIFDUS_clean_linker_0, # of connection points: 2
#     Edge 19, Type (0, 0), BuildingBlock: CIFDUS_clean_linker_0, # of connection points: 2
#     Edge 20, Type (0, 0), BuildingBlock: CIFDUS_clean_linker_0, # of connection points: 2
# Relax obj value: 0.052
# Max RMSD: 0.095
# Mean RMSD: 0.094
data_MOF--net-wlj--node1-BEQFEK_clean_sbu_0--edge1-CIFDUS_clean_linker_0
_symmetry_space_group_name_H-M    P1
_symmetry_Int_Tables_number       1
_symmetry_cell_setting            triclinic
loop_
_symmetry_equiv_pos_as_xyz
'x, y, z'
_cell_length_a     21.14561
_cell_length_b     21.49316
_cell_length_c     60.357289
_cell_angle_alpha  89.520269
_cell_angle_beta   90.188113
_cell_angle_gamma 120.4641
loop_
_atom_site_label
_atom_site_type_symbol
_atom_site_fract_x
_atom_site_fract_y
_atom_site_fract_z
_atom_type_partial_charge
Co0 Co 0.47699 0.32681 0.22382 0.0
Co1 Co 0.53359 0.2491 0.25587 0.0
C2 C 0.42471 0.16858 0.2201 0.0
O3 O 0.42253 0.22438 0.21411 0.0
O4 O 0.46622 0.17075 0.23578 0.0
C5 C 0.36483 0.35106 0.20726 0.0
O6 O 0.32216 0.2908 0.21813 0.0
C7 C 0.53272 0.14508 0.2888 0.0
C8 C 0.63695 0.21414 0.30639 0.0
C9 C 0.57565 0.14545 0.30641 0.0
N10 N 0.56651 0.21105 0.27924 0.0
N11 N 0.62917 0.25165 0.2897 0.0
C12 C 0.46219 0.08285 0.2806 0.0
H13 H 0.46415 0.07974 0.26233 0.0
H14 H 0.41625 0.09154 0.28486 0.0
H15 H 0.45183 0.0308 0.28772 0.0
C16 C 0.444 0.37015 0.26686 0.0
N17 N 0.46773 0.33348 0.25481 0.0
N18 N 0.48707 0.29749 0.26825 0.0
C19 C 0.4736 0.30811 0.28932 0.0
C20 C 0.44608 0.35479 0.28917 0.0
C21 C 0.4272 0.42477 0.25737 0.0
H22 H 0.46149 0.45097 0.24253 0.0
H23 H 0.36854 0.39742 0.25254 0.0
H24 H 0.43761 0.46703 0.26967 0.0
O25 O 0.58229 0.37306 0.21576 0.0
O26 O 0.62229 0.31864 0.23853 0.0
H27 H 0.54319 0.29759 0.31294 0.0
H28 H 0.45438 0.27484 0.32382 0.0
C29 C 0.48384 0.27167 0.3091 0.0
H30 H 0.46273 0.21408 0.3054 0.0
H31 H 0.66592 0.30561 0.28574 0.0
O32 O 0.43384 0.37679 0.20747 0.0
C33 C 0.63381 0.36429 0.22314 0.0
Co34 Co 0.68116 0.15982 0.894 0.0
Co35 Co 0.74398 0.29964 0.92209 0.0
C36 C 0.83581 0.27476 0.88855 0.0
O37 O 0.78404 0.21141 0.88412 0.0
O38 O 0.82714 0.31479 0.90225 0.0
C39 C 0.65051 0.02826 0.87113 0.0
O40 O 0.71905 0.04595 0.87444 0.0
C41 C 0.84025 0.39996 0.95636 0.0
C42 C 0.7903 0.46738 0.96174 0.0
C43 C 0.84705 0.45736 0.96861 0.0
N44 N 0.78165 0.37663 0.94298 0.0
N45 N 0.75219 0.41732 0.94625 0.0
C46 C 0.89135 0.37095 0.95619 0.0
H47 H 0.87056 0.3237 0.94507 0.0
H48 H 0.89786 0.35483 0.97314 0.0
H49 H 0.9463 0.41393 0.95046 0.0
C50 C 0.64227 0.09025 0.93796 0.0
N51 N 0.67412 0.14946 0.92497 0.0
N52 N 0.69957 0.20762 0.93725 0.0
C53 C 0.68412 0.18676 0.95871 0.0
C54 C 0.64775 0.11158 0.95987 0.0
C55 C 0.60188 0.01487 0.92918 0.0
H56 H 0.56314 0.01098 0.91609 0.0
H57 H 0.64173 0.00227 0.92155 0.0
H58 H 0.57043 0.9744 0.94227 0.0
O59 O 0.62902 0.20821 0.88391 0.0
O60 O 0.66845 0.30681 0.90395 0.0
H61 H 0.6893 0.279 0.97393 0.0
H62 H 0.67903 0.20995 0.99343 0.0
C63 C 0.70489 0.23793 0.97768 0.0
H64 H 0.76509 0.26606 0.97994 0.0
H65 H 0.70601 0.41094 0.93789 0.0
O66 O 0.62686 0.06727 0.87886 0.0
C67 C 0.62666 0.2641 0.88902 0.0
Co68 Co 0.85583 0.49558 0.55771 0.0
Co69 Co 0.72289 0.44454 0.59058 0.0
C70 C 0.75312 0.55331 0.55457 0.0
O71 O 0.81003 0.55252 0.54815 0.0
O72 O 0.71372 0.51389 0.57062 0.0
C73 C 0.99331 0.5951 0.53567 0.0
O74 O 0.98193 0.64608 0.54292 0.0
C75 C 0.63121 0.4467 0.62758 0.0
C76 C 0.56046 0.32974 0.63377 0.0
C77 C 0.57405 0.39639 0.64121 0.0
N78 N 0.64942 0.41055 0.61326 0.0
N79 N 0.60663 0.34078 0.61704 0.0
C80 C 0.67045 0.52734 0.62808 0.0
H81 H 0.71845 0.55071 0.61673 0.0
H82 H 0.68966 0.54679 0.64513 0.0
H83 H 0.63266 0.54608 0.62264 0.0
C84 C 0.93635 0.52492 0.60037 0.0
N85 N 0.87446 0.50466 0.58874 0.0
N86 N 0.8192 0.48398 0.60263 0.0
C87 C 0.84448 0.49026 0.62355 0.0
C88 C 0.91946 0.5168 0.62278 0.0
C89 C 0.01003 0.55108 0.5901 0.0
H90 H 0.00624 0.51109 0.57787 0.0
H91 H 0.02721 0.60252 0.58119 0.0
H92 H 0.05238 0.56063 0.60264 0.0
O93 O 0.79153 0.39182 0.54993 0.0
O94 O 0.69948 0.3579 0.5735 0.0
H95 H 0.74734 0.41126 0.64052 0.0
H96 H 0.8266 0.45861 0.65817 0.0
C97 C 0.79699 0.46421 0.64378 0.0
H98 H 0.77982 0.50349 0.64805 0.0
H99 H 0.60935 0.3005 0.60832 0.0
O100 O 0.94766 0.52955 0.54047 0.0
C101 C 0.73038 0.34343 0.55799 0.0
Co102 Co 0.34454 0.49826 0.80575 0.0
Co103 Co 0.28558 0.57897 0.77637 0.0
C104 C 0.19575 0.47477 0.81335 0.0
O105 O 0.24323 0.45665 0.81777 0.0
O106 O 0.2069 0.52087 0.79821 0.0
C107 C 0.37872 0.39417 0.82713 0.0
O108 O 0.31409 0.34096 0.82112 0.0
C109 C 0.18579 0.57869 0.74241 0.0
C110 C 0.23527 0.69473 0.73452 0.0
C111 C 0.17783 0.62699 0.72901 0.0
N112 N 0.24589 0.61603 0.75502 0.0
N113 N 0.27493 0.68543 0.75033 0.0
C114 C 0.13552 0.49863 0.74389 0.0
H115 H 0.14799 0.47616 0.75876 0.0
H116 H 0.14225 0.47258 0.72903 0.0
H117 H 0.0776 0.48565 0.74436 0.0
C118 C 0.38396 0.46837 0.7617 0.0
N119 N 0.34777 0.49114 0.77454 0.0
N120 N 0.32392 0.52574 0.76216 0.0
C121 C 0.34429 0.52606 0.74097 0.0
C122 C 0.38314 0.48983 0.73994 0.0
C123 C 0.42808 0.43719 0.77076 0.0
H124 H 0.46503 0.47275 0.78396 0.0
H125 H 0.39045 0.38364 0.7783 0.0
H126 H 0.46171 0.43121 0.75784 0.0
O127 O 0.40308 0.60066 0.8134 0.0
O128 O 0.36599 0.6613 0.79237 0.0
H129 H 0.35268 0.62158 0.72667 0.0
H130 H 0.35449 0.56052 0.70647 0.0
C131 C 0.33044 0.56411 0.72234 0.0
H132 H 0.27066 0.53895 0.71981 0.0
H133 H 0.32209 0.72645 0.75783 0.0
O134 O 0.3981 0.45851 0.82166 0.0
C135 C 0.40833 0.65962 0.80711 0.0
Co136 Co 0.54498 0.84435 0.47104 0.0
Co137 Co 0.45635 0.70412 0.44275 0.0
C138 C 0.56275 0.718 0.47896 0.0
O139 O 0.58315 0.78345 0.48324 0.0
O140 O 0.51504 0.68329 0.4641 0.0
C141 C 0.58073 0.95854 0.50149 0.0
O142 O 0.52174 0.90849 0.5117 0.0
C143 C 0.45552 0.60571 0.4099 0.0
C144 C 0.33848 0.53923 0.40102 0.0
C145 C 0.40737 0.54944 0.39624 0.0
N146 N 0.41681 0.62716 0.42196 0.0
N147 N 0.34677 0.58689 0.41674 0.0
C148 C 0.53754 0.64319 0.41056 0.0
H149 H 0.56074 0.69714 0.41824 0.0
H150 H 0.56023 0.64919 0.39361 0.0
H151 H 0.55433 0.6109 0.4208 0.0
C152 C 0.58414 0.91076 0.42641 0.0
N153 N 0.55248 0.85224 0.43979 0.0
N154 N 0.51258 0.79437 0.42779 0.0
C155 C 0.51616 0.8146 0.40638 0.0
C156 C 0.56223 0.88893 0.40478 0.0
C157 C 0.62713 0.98668 0.43462 0.0
H158 H 0.59099 0.99823 0.44494 0.0
H159 H 0.67277 0.99261 0.44524 0.0
H160 H 0.64964 0.02648 0.42082 0.0
O161 O 0.43979 0.80225 0.47996 0.0
O162 O 0.37625 0.70358 0.45965 0.0
H163 H 0.41607 0.72666 0.39365 0.0
H164 H 0.47193 0.79391 0.37302 0.0
C165 C 0.47299 0.76434 0.38802 0.0
H166 H 0.49856 0.73219 0.38349 0.0
H167 H 0.30489 0.59267 0.42365 0.0
O168 O 0.60202 0.94235 0.48394 0.0
C169 C 0.37903 0.74716 0.47434 0.0
Co170 Co 0.14694 0.65696 0.14263 0.0
Co171 Co 0.28441 0.73055 0.11093 0.0
C172 C 0.26392 0.81008 0.1486 0.0
O173 O 0.20131 0.75762 0.15417 0.0
O174 O 0.30004 0.80516 0.13261 0.0
C175 C 0.01213 0.63272 0.16168 0.0
O176 O 0.03537 0.6982 0.15399 0.0
C177 C 0.37224 0.83543 0.07645 0.0
C178 C 0.45565 0.80594 0.06887 0.0
C179 C 0.43395 0.85522 0.06322 0.0
N180 N 0.35927 0.77808 0.08899 0.0
N181 N 0.40945 0.76086 0.08445 0.0
C182 C 0.3238 0.86742 0.07713 0.0
H183 H 0.27273 0.83171 0.0865 0.0
H184 H 0.30936 0.87549 0.06008 0.0
H185 H 0.35286 0.92021 0.08566 0.0
C186 C 0.07059 0.61536 0.09913 0.0
N187 N 0.13164 0.65377 0.11139 0.0
N188 N 0.18907 0.68388 0.09812 0.0
C189 C 0.16628 0.66512 0.07703 0.0
C190 C 0.09047 0.62149 0.07697 0.0
C191 C 0.99511 0.57049 0.10861 0.0
H192 H 0.97957 0.60629 0.1171 0.0
H193 H 0.95361 0.54039 0.09565 0.0
H194 H 0.99484 0.53198 0.12102 0.0
O195 O 0.20375 0.60799 0.14977 0.0
O196 O 0.29923 0.65832 0.12674 0.0
H197 H 0.18769 0.64186 0.04395 0.0
H198 H 0.23757 0.73537 0.05169 0.0
C199 C 0.2165 0.67948 0.05779 0.0
H200 H 0.26373 0.67397 0.06302 0.0
H201 H 0.41226 0.7185 0.09202 0.0
O202 O 0.05124 0.60404 0.15864 0.0
C203 C 0.26269 0.61349 0.14215 0.0
H204 H 0.46843 0.07575 0.20843 0.0
H205 H 0.28613 0.11171 0.20341 0.0
H206 H 0.21715 0.00082 0.18177 0.0
H207 H 0.21059 0.89457 0.16341 0.0
H208 H 0.40011 0.86916 0.16517 0.0
H209 H 0.46448 0.97463 0.1889 0.0
C210 C 0.41335 0.05888 0.20273 0.0
C211 C 0.38189 0.10099 0.20765 0.0
C212 C 0.37559 0.9971 0.18961 0.0
C213 C 0.31118 0.0797 0.19981 0.0
C214 C 0.27186 0.01645 0.18746 0.0
C215 C 0.26588 0.91241 0.16908 0.0
C216 C 0.30073 0.87445 0.16269 0.0
C217 C 0.30371 0.97487 0.18212 0.0
C218 C 0.3726 0.89806 0.16985 0.0
C219 C 0.4093 0.95813 0.18345 0.0
H220 H 0.12113 0.34486 0.83499 0.0
H221 H 0.12058 0.54265 0.82274 0.0
H222 H 0.01305 0.50083 0.8464 0.0
H223 H 0.91742 0.4073 0.87016 0.0
H224 H 0.90917 0.20437 0.87944 0.0
H225 H 0.02182 0.24877 0.85764 0.0
C226 C 0.09733 0.37863 0.83753 0.0
C227 C 0.12883 0.44673 0.82714 0.0
C228 C 0.03409 0.35344 0.85075 0.0
C229 C 0.09706 0.48974 0.83041 0.0
C230 C 0.03575 0.46607 0.84404 0.0
C231 C 0.94092 0.37327 0.86758 0.0
C232 C 0.90598 0.30321 0.87658 0.0
C233 C 1.00373 0.39804 0.85428 0.0
C234 C 0.93566 0.25875 0.87272 0.0
C235 C 0.99985 0.28404 0.86024 0.0
H236 H 0.69837 0.76966 0.49749 0.0
H237 H 0.48506 0.57798 0.49172 0.0
H238 H 0.52348 0.512 0.51602 0.0
H239 H 0.6178 0.50787 0.53868 0.0
H240 H 0.83554 0.69383 0.54126 0.0
H241 H 0.7957 0.76327 0.51866 0.0
C242 C 0.66058 0.71345 0.50157 0.0
C243 C 0.589 0.67875 0.49288 0.0
C244 C 0.68377 0.67502 0.51509 0.0
C245 C 0.54063 0.6057 0.49808 0.0
C246 C 0.56239 0.568 0.51207 0.0
C247 C 0.65617 0.56383 0.53443 0.0
C248 C 0.72895 0.59635 0.54184 0.0
C249 C 0.63372 0.60205 0.52067 0.0
C250 C 0.77898 0.66817 0.53582 0.0
C251 C 0.75626 0.70767 0.52288 0.0
H252 H 0.19172 0.49767 0.17008 0.0
H253 H 0.39766 0.62877 0.13599 0.0
H254 H 0.44685 0.55887 0.15292 0.0
H255 H 0.43282 0.46246 0.17802 0.0
H256 H 0.22638 0.32913 0.21149 0.0
H257 H 0.17611 0.39789 0.19415 0.0
C258 C 0.24732 0.51091 0.16632 0.0
C259 C 0.29092 0.56869 0.15185 0.0
C260 C 0.27532 0.47016 0.17602 0.0
C261 C 0.3627 0.58461 0.14704 0.0
C262 C 0.39106 0.54475 0.15676 0.0
C263 C 0.37678 0.44835 0.1815 0.0
C264 C 0.33357 0.39096 0.1961 0.0
C265 C 0.34806 0.48774 0.17137 0.0
C266 C 0.26085 0.373 0.20029 0.0
C267 C 0.23207 0.4124 0.19042 0.0
H268 H 0.40371 0.78193 0.81325 0.0
H269 H 0.53757 0.6863 0.82508 0.0
H270 H 0.62678 0.79357 0.84513 0.0
H271 H 0.66397 0.91253 0.86079 0.0
H272 H 0.52536 0.00407 0.85086 0.0
H273 H 0.44103 0.90069 0.82869 0.0
C274 C 0.45284 0.78507 0.82002 0.0
C275 C 0.46421 0.72665 0.81771 0.0
C276 C 0.50282 0.84594 0.83205 0.0
C277 C 0.52757 0.73075 0.82677 0.0
C278 C 0.57858 0.79196 0.83823 0.0
C279 C 0.61549 0.90986 0.85367 0.0
C280 C 0.60086 0.96561 0.85751 0.0
C281 C 0.5663 0.84953 0.84124 0.0
C282 C 0.53759 0.96142 0.8483 0.0
C283 C 0.48936 0.90247 0.83554 0.0
H284 H 0.11797 0.72635 0.53108 0.0
H285 H 0.01702 0.50423 0.51053 0.0
H286 H 0.12578 0.53257 0.48892 0.0
H287 H 0.25049 0.61938 0.4765 0.0
H288 H 0.35467 0.84029 0.49843 0.0
H289 H 0.24372 0.8135 0.51874 0.0
C290 C 0.11968 0.68426 0.52179 0.0
C291 C 0.05937 0.61332 0.52241 0.0
C292 C 0.183 0.70066 0.50963 0.0
C293 C 0.06273 0.55925 0.51042 0.0
C294 C 0.12488 0.57539 0.49801 0.0
C295 C 0.2488 0.66187 0.48557 0.0
C296 C 0.31074 0.73179 0.48586 0.0
C297 C 0.18543 0.64579 0.49757 0.0
C298 C 0.30782 0.78595 0.49795 0.0
C299 C 0.24437 0.77069 0.50957 0.0
H300 H 0.62645 0.39076 0.88509 0.0
H301 H 0.50497 0.16594 0.86688 0.0
H302 H 0.41637 0.18539 0.84683 0.0
H303 H 0.37425 0.26649 0.8336 0.0
H304 H 0.49835 0.49243 0.85027 0.0
H305 H 0.58442 0.47223 0.87165 0.0
C306 C 0.58038 0.34607 0.87682 0.0
C307 C 0.57256 0.27718 0.87748 0.0
C308 C 0.52994 0.35774 0.86493 0.0
C309 C 0.51273 0.21979 0.86654 0.0
C310 C 0.46179 0.23071 0.85507 0.0
C311 C 0.41992 0.31118 0.842 0.0
C312 C 0.42973 0.3807 0.84033 0.0
C313 C 0.47004 0.29951 0.85402 0.0
C314 C 0.48961 0.43826 0.85118 0.0
C315 C 0.53891 0.42683 0.86347 0.0
H316 H 0.77518 0.2902 0.52425 0.0
H317 H 0.60415 0.22717 0.57319 0.0
H318 H 0.54456 0.10326 0.56039 0.0
H319 H 0.53983 0.01244 0.53538 0.0
H320 H 0.70836 0.07375 0.48581 0.0
H321 H 0.76996 0.19833 0.49886 0.0
C322 C 0.72488 0.24939 0.53211 0.0
C323 C 0.69444 0.26836 0.54968 0.0
C324 C 0.69036 0.17772 0.52461 0.0
C325 C 0.62906 0.21454 0.55963 0.0
C326 C 0.59478 0.1434 0.55234 0.0
C327 C 0.5902 0.05288 0.52746 0.0
C328 C 0.61948 0.03365 0.5097 0.0
C329 C 0.62489 0.12438 0.53488 0.0
C330 C 0.68462 0.08701 0.49956 0.0
C331 C 0.71987 0.15833 0.50699 0.0
H332 H 0.95875 0.50989 0.18662 0.0
H333 H 0.90113 0.66234 0.16065 0.0
H334 H 0.77928 0.59274 0.17719 0.0
H335 H 0.68839 0.48795 0.19868 0.0
H336 H 0.74725 0.33792 0.22599 0.0
H337 H 0.86911 0.40726 0.20934 0.0
C338 C 0.91952 0.52788 0.18459 0.0
C339 C 0.93904 0.59113 0.17234 0.0
C340 C 0.84967 0.48801 0.19439 0.0
C341 C 0.88773 0.61401 0.17004 0.0
C342 C 0.81788 0.57412 0.17945 0.0
C343 C 0.72781 0.47031 0.20098 0.0
C344 C 0.70841 0.40752 0.21347 0.0
C345 C 0.79816 0.51093 0.1916 0.0
C346 C 0.76061 0.38604 0.21649 0.0
C347 C 0.83034 0.4256 0.20693 0.0
H348 H 0.46263 0.90841 0.38237 0.0
H349 H 0.69218 0.97598 0.3843 0.0
H350 H 0.71633 0.05941 0.35321 0.0
H351 H 0.67221 0.11555 0.32628 0.0
H352 H 0.44343 0.05268 0.32599 0.0
H353 H 0.41841 0.96417 0.35526 0.0
C354 C 0.51765 0.94091 0.37571 0.0
C355 C 0.57559 0.93602 0.38529 0.0
C356 C 0.53102 0.98915 0.35808 0.0
C357 C 0.64694 0.97896 0.37697 0.0
C358 C 0.66064 0.02655 0.35927 0.0
C359 C 0.61678 0.08196 0.33251 0.0
C360 C 0.55938 0.08902 0.32341 0.0
C361 C 0.60316 0.03248 0.3498 0.0
C362 C 0.48807 0.04614 0.33194 0.0
C363 C 0.47387 0.99619 0.34894 0.0
H364 H 0.87703 0.40366 1.00531 0.0
H365 H 0.93192 0.60275 0.97193 0.0
H366 H 0.01438 0.67192 1.00231 0.0
H367 H 0.06844 0.67532 0.03896 0.0
H368 H 0.00959 0.47593 0.0728 0.0
H369 H 0.93167 0.40691 0.04163 0.0
C370 C 0.90848 0.46212 1.00449 0.0
C371 C 0.90014 0.49831 0.98626 0.0
C372 C 0.95441 0.50126 0.0222 0.0
C373 C 0.93843 0.57405 0.98577 0.0
C374 C 0.98534 0.61347 1.00312 0.0
C375 C 0.03844 0.61676 0.03938 0.0
C376 C 0.04369 0.58041 0.05808 0.0
C377 C 0.99335 0.57766 0.0215 0.0
C378 C 0.00518 0.50468 0.0586 0.0
C379 C 0.96101 0.46536 0.04079 0.0
H380 H 0.37754 0.3701 0.7239 0.0
H381 H 0.48304 0.60004 0.71383 0.0
H382 H 0.54943 0.5923 0.68184 0.0
H383 H 0.57579 0.51986 0.65679 0.0
H384 H 0.47835 0.29065 0.66911 0.0
H385 H 0.41018 0.29872 0.69998 0.0
C386 C 0.41534 0.41841 0.71469 0.0
C387 C 0.42439 0.48522 0.72085 0.0
C388 C 0.45477 0.4138 0.69673 0.0
C389 C 0.47383 0.54766 0.70898 0.0
C390 C 0.51216 0.54332 0.69081 0.0
C391 C 0.54145 0.4716 0.66623 0.0
C392 C 0.5341 0.40491 0.66032 0.0
C393 C 0.50301 0.47654 0.68449 0.0
C394 C 0.48604 0.34317 0.67294 0.0
C395 C 0.44671 0.34747 0.69078 0.0
H396 H 0.13997 0.53053 0.69577 0.0
H397 H 0.09784 0.69188 0.72202 0.0
H398 H 0.01194 0.67065 0.69169 0.0
H399 H 0.95062 0.60733 0.65722 0.0
H400 H 0.99705 0.44973 0.63033 0.0
H401 H 0.07895 0.46739 0.6615 0.0
C402 C 0.11068 0.55978 0.6951 0.0
C403 C 0.1236 0.61141 0.71131 0.0
C404 C 0.06271 0.54824 0.67742 0.0
C405 C 0.08795 0.65137 0.70976 0.0
C406 C 0.03901 0.63928 0.69246 0.0
C407 C 0.97878 0.57698 0.65832 0.0
C408 C 0.96866 0.52774 0.64161 0.0
C409 C 0.02627 0.58812 0.67612 0.0
C410 C 0.005 0.48845 0.643 0.0
C411 C 0.05148 0.49838 0.66081 0.0
H412 H 0.52304 0.40962 0.3273 0.0
H413 H 0.32486 0.36701 0.29373 0.0
H414 H 0.29562 0.42355 0.32386 0.0
H415 H 0.32819 0.48791 0.35922 0.0
H416 H 0.52011 0.51958 0.39448 0.0
H417 H 0.5496 0.46415 0.36437 0.0
C418 C 0.47279 0.41155 0.32679 0.0
C419 C 0.42637 0.38457 0.30827 0.0
C420 C 0.45562 0.44288 0.34438 0.0
C421 C 0.36204 0.38845 0.30767 0.0
C422 C 0.34512 0.42043 0.32493 0.0
C423 C 0.37635 0.48246 0.36041 0.0
C424 C 0.4235 0.51103 0.37877 0.0
C425 C 0.39187 0.4484 0.34328 0.0
C426 C 0.48486 0.5021 0.38013 0.0
C427 C 0.50126 0.46918 0.363 0.0
H428 H 0.55588 0.10922 0.99187 0.0
H429 H 0.67448 0.00509 0.97148 0.0
H430 H 0.61839 0.91668 1.00154 0.0
H431 H 0.53244 0.86662 0.0325 0.0
H432 H 0.42373 0.97873 0.05534 0.0
H433 H 0.47893 0.06575 0.02555 0.0
C434 C 0.57062 0.06813 0.99437 0.0
C435 C 0.61922 0.06354 0.97956 0.0
C436 C 0.53893 0.01808 1.01189 0.0
C437 C 0.63685 0.00928 0.98266 0.0
C438 C 0.60481 0.9588 0.99981 0.0
C439 C 0.52062 0.91005 0.03116 0.0
C440 C 0.47057 0.91296 0.04591 0.0
C441 C 0.55507 0.96218 1.01436 0.0
C442 C 0.45795 0.97114 0.04385 0.0
C443 C 0.49087 0.02241 0.02687 0.0
loop_
_geom_bond_atom_site_label_1
_geom_bond_atom_site_label_2
_geom_bond_distance
_geom_bond_site_symmetry_2
_ccdc_geom_bond_type
Co0 O3 1.970 . S
Co0 N17 1.989 . S
Co0 O25 1.967 . S
Co0 O32 1.920 . S
Co1 O4 1.966 . S
Co1 N10 2.022 . S
Co1 N18 1.993 . S
Co1 O26 1.941 . S
C2 O3 1.258 . S
C2 O4 1.263 . S
O3 Co0 1.970 . S
O3 C2 1.258 . S
O4 Co1 1.966 . S
O4 C2 1.263 . S
C5 O6 1.235 . S
C5 O32 1.289 . S
O6 C5 1.235 . S
C7 C9 1.400 . S
C7 N10 1.351 . S
C7 C12 1.501 . S
C8 C9 1.387 . S
C8 N11 1.341 . S
C9 C7 1.400 . S
C9 C8 1.387 . S
N10 Co1 2.022 . S
N10 C7 1.351 . S
N10 N11 1.365 . S
N11 C8 1.341 . S
N11 N10 1.365 . S
N11 H31 0.862 . S
C12 C7 1.501 . S
C12 H13 0.961 . S
C12 H14 0.961 . S
C12 H15 0.960 . S
H13 C12 0.961 . S
H14 C12 0.961 . S
H15 C12 0.960 . S
C16 N17 1.342 . S
C16 C20 1.401 . S
C16 C21 1.499 . S
N17 Co0 1.989 . S
N17 C16 1.342 . S
N17 N18 1.388 . S
N18 Co1 1.993 . S
N18 N17 1.388 . S
N18 C19 1.346 . S
C19 N18 1.346 . S
C19 C20 1.396 . S
C19 C29 1.510 . S
C20 C16 1.401 . S
C20 C19 1.396 . S
C21 C16 1.499 . S
C21 H22 0.959 . S
C21 H23 0.960 . S
C21 H24 0.961 . S
H22 C21 0.959 . S
H23 C21 0.960 . S
H24 C21 0.961 . S
O25 Co0 1.967 . S
O25 C33 1.258 . S
O26 Co1 1.941 . S
O26 C33 1.266 . S
H27 C29 0.959 . S
H28 C29 0.961 . S
C29 C19 1.510 . S
C29 H27 0.959 . S
C29 H28 0.961 . S
C29 H30 0.960 . S
H30 C29 0.960 . S
H31 N11 0.862 . S
O32 Co0 1.920 . S
O32 C5 1.289 . S
C33 O25 1.258 . S
C33 O26 1.266 . S
Co34 O37 1.970 . S
Co34 N51 1.989 . S
Co34 O59 1.967 . S
Co34 O66 1.920 . S
Co35 O38 1.966 . S
Co35 N44 2.022 . S
Co35 N52 1.993 . S
Co35 O60 1.941 . S
C36 O37 1.258 . S
C36 O38 1.263 . S
O37 Co34 1.970 . S
O37 C36 1.258 . S
O38 Co35 1.966 . S
O38 C36 1.263 . S
C39 O40 1.235 . S
C39 O66 1.289 1_565 S
O40 C39 1.235 . S
C41 C43 1.400 . S
C41 N44 1.351 . S
C41 C46 1.501 . S
C42 C43 1.387 . S
C42 N45 1.341 . S
C43 C41 1.400 . S
C43 C42 1.387 . S
N44 Co35 2.022 . S
N44 C41 1.351 . S
N44 N45 1.365 . S
N45 C42 1.341 . S
N45 N44 1.365 . S
N45 H65 0.862 . S
C46 C41 1.501 . S
C46 H47 0.961 . S
C46 H48 0.961 . S
C46 H49 0.960 . S
H47 C46 0.961 . S
H48 C46 0.961 . S
H49 C46 0.960 . S
C50 N51 1.342 . S
C50 C54 1.401 . S
C50 C55 1.499 1_545 S
N51 Co34 1.989 . S
N51 C50 1.342 . S
N51 N52 1.388 . S
N52 Co35 1.993 . S
N52 N51 1.388 . S
N52 C53 1.346 . S
C53 N52 1.346 . S
C53 C54 1.396 . S
C53 C63 1.510 . S
C54 C50 1.401 . S
C54 C53 1.396 . S
C55 C50 1.499 1_565 S
C55 H56 0.959 . S
C55 H57 0.960 . S
C55 H58 0.961 . S
H56 C55 0.959 . S
H57 C55 0.960 . S
H58 C55 0.961 . S
O59 Co34 1.967 . S
O59 C67 1.258 . S
O60 Co35 1.941 . S
O60 C67 1.266 . S
H61 C63 0.959 . S
H62 C63 0.961 . S
C63 C53 1.510 . S
C63 H61 0.959 . S
C63 H62 0.961 . S
C63 H64 0.960 . S
H64 C63 0.960 . S
H65 N45 0.862 . S
O66 Co34 1.920 . S
O66 C39 1.289 1_545 S
C67 O59 1.258 . S
C67 O60 1.266 . S
Co68 O71 1.970 . S
Co68 N85 1.989 . S
Co68 O93 1.967 . S
Co68 O100 1.920 . S
Co69 O72 1.966 . S
Co69 N78 2.022 . S
Co69 N86 1.993 . S
Co69 O94 1.941 . S
C70 O71 1.258 . S
C70 O72 1.263 . S
O71 Co68 1.970 . S
O71 C70 1.258 . S
O72 Co69 1.966 . S
O72 C70 1.263 . S
C73 O74 1.235 . S
C73 O100 1.289 1_455 S
O74 C73 1.235 . S
C75 C77 1.400 . S
C75 N78 1.351 . S
C75 C80 1.501 . S
C76 C77 1.387 . S
C76 N79 1.341 . S
C77 C75 1.400 . S
C77 C76 1.387 . S
N78 Co69 2.022 . S
N78 C75 1.351 . S
N78 N79 1.365 . S
N79 C76 1.341 . S
N79 N78 1.365 . S
N79 H99 0.862 . S
C80 C75 1.501 . S
C80 H81 0.961 . S
C80 H82 0.961 . S
C80 H83 0.960 . S
H81 C80 0.961 . S
H82 C80 0.961 . S
H83 C80 0.960 . S
C84 N85 1.342 . S
C84 C88 1.401 . S
C84 C89 1.499 1_655 S
N85 Co68 1.989 . S
N85 C84 1.342 . S
N85 N86 1.388 . S
N86 Co69 1.993 . S
N86 N85 1.388 . S
N86 C87 1.346 . S
C87 N86 1.346 . S
C87 C88 1.396 . S
C87 C97 1.510 . S
C88 C84 1.401 . S
C88 C87 1.396 . S
C89 C84 1.499 1_455 S
C89 H90 0.959 . S
C89 H91 0.960 . S
C89 H92 0.961 . S
H90 C89 0.959 . S
H91 C89 0.960 . S
H92 C89 0.961 . S
O93 Co68 1.967 . S
O93 C101 1.258 . S
O94 Co69 1.941 . S
O94 C101 1.266 . S
H95 C97 0.959 . S
H96 C97 0.961 . S
C97 C87 1.510 . S
C97 H95 0.959 . S
C97 H96 0.961 . S
C97 H98 0.960 . S
H98 C97 0.960 . S
H99 N79 0.862 . S
O100 Co68 1.920 . S
O100 C73 1.289 1_655 S
C101 O93 1.258 . S
C101 O94 1.266 . S
Co102 O105 1.970 . S
Co102 N119 1.989 . S
Co102 O127 1.967 . S
Co102 O134 1.920 . S
Co103 O106 1.966 . S
Co103 N112 2.022 . S
Co103 N120 1.993 . S
Co103 O128 1.941 . S
C104 O105 1.258 . S
C104 O106 1.263 . S
O105 Co102 1.970 . S
O105 C104 1.258 . S
O106 Co103 1.966 . S
O106 C104 1.263 . S
C107 O108 1.235 . S
C107 O134 1.289 . S
O108 C107 1.235 . S
C109 C111 1.400 . S
C109 N112 1.351 . S
C109 C114 1.501 . S
C110 C111 1.387 . S
C110 N113 1.341 . S
C111 C109 1.400 . S
C111 C110 1.387 . S
N112 Co103 2.022 . S
N112 C109 1.351 . S
N112 N113 1.365 . S
N113 C110 1.341 . S
N113 N112 1.365 . S
N113 H133 0.862 . S
C114 C109 1.501 . S
C114 H115 0.961 . S
C114 H116 0.961 . S
C114 H117 0.960 . S
H115 C114 0.961 . S
H116 C114 0.961 . S
H117 C114 0.960 . S
C118 N119 1.342 . S
C118 C122 1.401 . S
C118 C123 1.499 . S
N119 Co102 1.989 . S
N119 C118 1.342 . S
N119 N120 1.388 . S
N120 Co103 1.993 . S
N120 N119 1.388 . S
N120 C121 1.346 . S
C121 N120 1.346 . S
C121 C122 1.396 . S
C121 C131 1.510 . S
C122 C118 1.401 . S
C122 C121 1.396 . S
C123 C118 1.499 . S
C123 H124 0.959 . S
C123 H125 0.960 . S
C123 H126 0.961 . S
H124 C123 0.959 . S
H125 C123 0.960 . S
H126 C123 0.961 . S
O127 Co102 1.967 . S
O127 C135 1.258 . S
O128 Co103 1.941 . S
O128 C135 1.266 . S
H129 C131 0.959 . S
H130 C131 0.961 . S
C131 C121 1.510 . S
C131 H129 0.959 . S
C131 H130 0.961 . S
C131 H132 0.960 . S
H132 C131 0.960 . S
H133 N113 0.862 . S
O134 Co102 1.920 . S
O134 C107 1.289 . S
C135 O127 1.258 . S
C135 O128 1.266 . S
Co136 O139 1.970 . S
Co136 N153 1.989 . S
Co136 O161 1.967 . S
Co136 O168 1.920 . S
Co137 O140 1.966 . S
Co137 N146 2.022 . S
Co137 N154 1.993 . S
Co137 O162 1.941 . S
C138 O139 1.258 . S
C138 O140 1.263 . S
O139 Co136 1.970 . S
O139 C138 1.258 . S
O140 Co137 1.966 . S
O140 C138 1.263 . S
C141 O142 1.235 . S
C141 O168 1.289 1_545 S
O142 C141 1.235 . S
C143 C145 1.400 . S
C143 N146 1.351 . S
C143 C148 1.501 . S
C144 C145 1.387 . S
C144 N147 1.341 . S
C145 C143 1.400 . S
C145 C144 1.387 . S
N146 Co137 2.022 . S
N146 C143 1.351 . S
N146 N147 1.365 . S
N147 C144 1.341 . S
N147 N146 1.365 . S
N147 H167 0.862 . S
C148 C143 1.501 . S
C148 H149 0.961 . S
C148 H150 0.961 . S
C148 H151 0.960 . S
H149 C148 0.961 . S
H150 C148 0.961 . S
H151 C148 0.960 . S
C152 N153 1.342 . S
C152 C156 1.401 . S
C152 C157 1.499 1_565 S
N153 Co136 1.989 . S
N153 C152 1.342 . S
N153 N154 1.388 . S
N154 Co137 1.993 . S
N154 N153 1.388 . S
N154 C155 1.346 . S
C155 N154 1.346 . S
C155 C156 1.396 . S
C155 C165 1.510 . S
C156 C152 1.401 . S
C156 C155 1.396 . S
C157 C152 1.499 1_545 S
C157 H158 0.959 . S
C157 H159 0.960 . S
C157 H160 0.961 . S
H158 C157 0.959 . S
H159 C157 0.960 . S
H160 C157 0.961 . S
O161 Co136 1.967 . S
O161 C169 1.258 . S
O162 Co137 1.941 . S
O162 C169 1.266 . S
H163 C165 0.959 . S
H164 C165 0.961 . S
C165 C155 1.510 . S
C165 H163 0.959 . S
C165 H164 0.961 . S
C165 H166 0.960 . S
H166 C165 0.960 . S
H167 N147 0.862 . S
O168 Co136 1.920 . S
O168 C141 1.289 1_565 S
C169 O161 1.258 . S
C169 O162 1.266 . S
Co170 O173 1.970 . S
Co170 N187 1.989 . S
Co170 O195 1.967 . S
Co170 O202 1.920 . S
Co171 O174 1.966 . S
Co171 N180 2.022 . S
Co171 N188 1.993 . S
Co171 O196 1.941 . S
C172 O173 1.258 . S
C172 O174 1.263 . S
O173 Co170 1.970 . S
O173 C172 1.258 . S
O174 Co171 1.966 . S
O174 C172 1.263 . S
C175 O176 1.235 . S
C175 O202 1.289 1_655 S
O176 C175 1.235 . S
C177 C179 1.400 . S
C177 N180 1.351 . S
C177 C182 1.501 . S
C178 C179 1.387 . S
C178 N181 1.341 . S
C179 C177 1.400 . S
C179 C178 1.387 . S
N180 Co171 2.022 . S
N180 C177 1.351 . S
N180 N181 1.365 . S
N181 C178 1.341 . S
N181 N180 1.365 . S
N181 H201 0.862 . S
C182 C177 1.501 . S
C182 H183 0.961 . S
C182 H184 0.961 . S
C182 H185 0.960 . S
H183 C182 0.961 . S
H184 C182 0.961 . S
H185 C182 0.960 . S
C186 N187 1.342 . S
C186 C190 1.401 . S
C186 C191 1.499 1_455 S
N187 Co170 1.989 . S
N187 C186 1.342 . S
N187 N188 1.388 . S
N188 Co171 1.993 . S
N188 N187 1.388 . S
N188 C189 1.346 . S
C189 N188 1.346 . S
C189 C190 1.396 . S
C189 C199 1.510 . S
C190 C186 1.401 . S
C190 C189 1.396 . S
C191 C186 1.499 1_655 S
C191 H192 0.959 . S
C191 H193 0.960 . S
C191 H194 0.961 . S
H192 C191 0.959 . S
H193 C191 0.960 . S
H194 C191 0.961 . S
O195 Co170 1.967 . S
O195 C203 1.258 . S
O196 Co171 1.941 . S
O196 C203 1.266 . S
H197 C199 0.959 . S
H198 C199 0.961 . S
C199 C189 1.510 . S
C199 H197 0.959 . S
C199 H198 0.961 . S
C199 H200 0.960 . S
H200 C199 0.960 . S
H201 N181 0.862 . S
O202 Co170 1.920 . S
O202 C175 1.289 1_455 S
C203 O195 1.258 . S
C203 O196 1.266 . S
H204 C210 0.930 . S
H205 C213 0.930 . S
H206 C214 0.930 . S
H207 C215 0.930 . S
H208 C218 0.930 . S
H209 C219 0.930 . S
C210 H204 0.930 . S
C210 C211 1.355 . S
C210 C212 1.419 . S
C211 C210 1.355 . S
C211 C213 1.419 . S
C212 C210 1.419 . S
C212 C217 1.432 1_545 S
C212 C219 1.401 1_545 S
C213 H205 0.930 . S
C213 C211 1.419 . S
C213 C214 1.362 . S
C214 H206 0.930 . S
C214 C213 1.362 . S
C214 C217 1.401 1_545 S
C215 H207 0.930 . S
C215 C216 1.355 . S
C215 C217 1.420 . S
C216 C215 1.355 . S
C216 C218 1.419 . S
C217 C212 1.432 1_565 S
C217 C214 1.401 1_565 S
C217 C215 1.420 . S
C218 H208 0.930 . S
C218 C216 1.419 . S
C218 C219 1.362 . S
C219 H209 0.930 . S
C219 C212 1.401 1_565 S
C219 C218 1.362 . S
H220 C226 0.930 . S
H221 C229 0.930 . S
H222 C230 0.930 . S
H223 C231 0.930 . S
H224 C234 0.930 . S
H225 C235 0.930 . S
C226 H220 0.930 . S
C226 C227 1.355 . S
C226 C228 1.415 . S
C227 C226 1.355 . S
C227 C229 1.419 . S
C228 C226 1.415 . S
C228 C233 1.425 1_455 S
C228 C235 1.409 1_455 S
C229 H221 0.930 . S
C229 C227 1.419 . S
C229 C230 1.362 . S
C230 H222 0.930 . S
C230 C229 1.362 . S
C230 C233 1.409 1_455 S
C231 H223 0.930 . S
C231 C232 1.355 . S
C231 C233 1.415 . S
C232 C231 1.355 . S
C232 C234 1.419 . S
C233 C228 1.425 1_655 S
C233 C230 1.409 1_655 S
C233 C231 1.415 . S
C234 H224 0.930 . S
C234 C232 1.419 . S
C234 C235 1.362 . S
C235 H225 0.930 . S
C235 C228 1.409 1_655 S
C235 C234 1.362 . S
H236 C242 0.930 . S
H237 C245 0.930 . S
H238 C246 0.930 . S
H239 C247 0.930 . S
H240 C250 0.930 . S
H241 C251 0.930 . S
C242 H236 0.930 . S
C242 C243 1.355 . S
C242 C244 1.415 . S
C243 C242 1.355 . S
C243 C245 1.419 . S
C244 C242 1.415 . S
C244 C249 1.425 . S
C244 C251 1.409 . S
C245 H237 0.930 . S
C245 C243 1.419 . S
C245 C246 1.362 . S
C246 H238 0.930 . S
C246 C245 1.362 . S
C246 C249 1.409 . S
C247 H239 0.930 . S
C247 C248 1.355 . S
C247 C249 1.415 . S
C248 C247 1.355 . S
C248 C250 1.419 . S
C249 C244 1.425 . S
C249 C246 1.409 . S
C249 C247 1.415 . S
C250 H240 0.930 . S
C250 C248 1.419 . S
C250 C251 1.362 . S
C251 H241 0.930 . S
C251 C244 1.409 . S
C251 C250 1.362 . S
H252 C258 0.930 . S
H253 C261 0.930 . S
H254 C262 0.930 . S
H255 C263 0.930 . S
H256 C266 0.930 . S
H257 C267 0.930 . S
C258 H252 0.930 . S
C258 C259 1.355 . S
C258 C260 1.415 . S
C259 C258 1.355 . S
C259 C261 1.419 . S
C260 C258 1.415 . S
C260 C265 1.425 . S
C260 C267 1.409 . S
C261 H253 0.930 . S
C261 C259 1.419 . S
C261 C262 1.362 . S
C262 H254 0.930 . S
C262 C261 1.362 . S
C262 C265 1.409 . S
C263 H255 0.930 . S
C263 C264 1.355 . S
C263 C265 1.415 . S
C264 C263 1.355 . S
C264 C266 1.419 . S
C265 C260 1.425 . S
C265 C262 1.409 . S
C265 C263 1.415 . S
C266 H256 0.930 . S
C266 C264 1.419 . S
C266 C267 1.362 . S
C267 H257 0.930 . S
C267 C260 1.409 . S
C267 C266 1.362 . S
H268 C274 0.930 . S
H269 C277 0.930 . S
H270 C278 0.930 . S
H271 C279 0.930 . S
H272 C282 0.930 . S
H273 C283 0.930 . S
C274 H268 0.930 . S
C274 C275 1.355 . S
C274 C276 1.415 . S
C275 C274 1.355 . S
C275 C277 1.419 . S
C276 C274 1.415 . S
C276 C281 1.425 . S
C276 C283 1.409 . S
C277 H269 0.930 . S
C277 C275 1.419 . S
C277 C278 1.362 . S
C278 H270 0.930 . S
C278 C277 1.362 . S
C278 C281 1.409 . S
C279 H271 0.930 . S
C279 C280 1.355 . S
C279 C281 1.415 . S
C280 C279 1.355 . S
C280 C282 1.419 . S
C281 C276 1.425 . S
C281 C278 1.409 . S
C281 C279 1.415 . S
C282 H272 0.930 . S
C282 C280 1.419 . S
C282 C283 1.362 . S
C283 H273 0.930 . S
C283 C276 1.409 . S
C283 C282 1.362 . S
H284 C290 0.930 . S
H285 C293 0.930 . S
H286 C294 0.930 . S
H287 C295 0.930 . S
H288 C298 0.930 . S
H289 C299 0.930 . S
C290 H284 0.930 . S
C290 C291 1.355 . S
C290 C292 1.415 . S
C291 C290 1.355 . S
C291 C293 1.419 . S
C292 C290 1.415 . S
C292 C297 1.425 . S
C292 C299 1.409 . S
C293 H285 0.930 . S
C293 C291 1.419 . S
C293 C294 1.362 . S
C294 H286 0.930 . S
C294 C293 1.362 . S
C294 C297 1.409 . S
C295 H287 0.930 . S
C295 C296 1.355 . S
C295 C297 1.415 . S
C296 C295 1.355 . S
C296 C298 1.419 . S
C297 C292 1.425 . S
C297 C294 1.409 . S
C297 C295 1.415 . S
C298 H288 0.930 . S
C298 C296 1.419 . S
C298 C299 1.362 . S
C299 H289 0.930 . S
C299 C292 1.409 . S
C299 C298 1.362 . S
H300 C306 0.930 . S
H301 C309 0.930 . S
H302 C310 0.930 . S
H303 C311 0.930 . S
H304 C314 0.930 . S
H305 C315 0.930 . S
C306 H300 0.930 . S
C306 C307 1.355 . S
C306 C308 1.415 . S
C307 C306 1.355 . S
C307 C309 1.419 . S
C308 C306 1.415 . S
C308 C313 1.425 . S
C308 C315 1.409 . S
C309 H301 0.930 . S
C309 C307 1.419 . S
C309 C310 1.362 . S
C310 H302 0.930 . S
C310 C309 1.362 . S
C310 C313 1.409 . S
C311 H303 0.930 . S
C311 C312 1.355 . S
C311 C313 1.415 . S
C312 C311 1.355 . S
C312 C314 1.419 . S
C313 C308 1.425 . S
C313 C310 1.409 . S
C313 C311 1.415 . S
C314 H304 0.930 . S
C314 C312 1.419 . S
C314 C315 1.362 . S
C315 H305 0.930 . S
C315 C308 1.409 . S
C315 C314 1.362 . S
H316 C322 0.930 . S
H317 C325 0.930 . S
H318 C326 0.930 . S
H319 C327 0.930 . S
H320 C330 0.930 . S
H321 C331 0.930 . S
C322 H316 0.930 . S
C322 C323 1.355 . S
C322 C324 1.415 . S
C323 C322 1.355 . S
C323 C325 1.419 . S
C324 C322 1.415 . S
C324 C329 1.425 . S
C324 C331 1.409 . S
C325 H317 0.930 . S
C325 C323 1.419 . S
C325 C326 1.362 . S
C326 H318 0.930 . S
C326 C325 1.362 . S
C326 C329 1.409 . S
C327 H319 0.930 . S
C327 C328 1.355 . S
C327 C329 1.415 . S
C328 C327 1.355 . S
C328 C330 1.419 . S
C329 C324 1.425 . S
C329 C326 1.409 . S
C329 C327 1.415 . S
C330 H320 0.930 . S
C330 C328 1.419 . S
C330 C331 1.362 . S
C331 H321 0.930 . S
C331 C324 1.409 . S
C331 C330 1.362 . S
H332 C338 0.930 . S
H333 C341 0.930 . S
H334 C342 0.930 . S
H335 C343 0.930 . S
H336 C346 0.930 . S
H337 C347 0.930 . S
C338 H332 0.930 . S
C338 C339 1.355 . S
C338 C340 1.415 . S
C339 C338 1.355 . S
C339 C341 1.419 . S
C340 C338 1.415 . S
C340 C345 1.425 . S
C340 C347 1.409 . S
C341 H333 0.930 . S
C341 C339 1.419 . S
C341 C342 1.362 . S
C342 H334 0.930 . S
C342 C341 1.362 . S
C342 C345 1.409 . S
C343 H335 0.930 . S
C343 C344 1.355 . S
C343 C345 1.415 . S
C344 C343 1.355 . S
C344 C346 1.419 . S
C345 C340 1.425 . S
C345 C342 1.409 . S
C345 C343 1.415 . S
C346 H336 0.930 . S
C346 C344 1.419 . S
C346 C347 1.362 . S
C347 H337 0.930 . S
C347 C340 1.409 . S
C347 C346 1.362 . S
H348 C354 0.930 . S
H349 C357 0.930 . S
H350 C358 0.930 . S
H351 C359 0.930 . S
H352 C362 0.930 . S
H353 C363 0.930 1_565 S
C354 H348 0.930 . S
C354 C355 1.355 . S
C354 C356 1.415 1_565 S
C355 C354 1.355 . S
C355 C357 1.419 1_565 S
C356 C354 1.415 1_545 S
C356 C361 1.425 . S
C356 C363 1.409 . S
C357 H349 0.930 . S
C357 C355 1.419 1_545 S
C357 C358 1.362 . S
C358 H350 0.930 . S
C358 C357 1.362 . S
C358 C361 1.409 . S
C359 H351 0.930 . S
C359 C360 1.355 . S
C359 C361 1.415 . S
C360 C359 1.355 . S
C360 C362 1.419 . S
C361 C356 1.425 . S
C361 C358 1.409 . S
C361 C359 1.415 . S
C362 H352 0.930 . S
C362 C360 1.419 . S
C362 C363 1.362 . S
C363 H353 0.930 1_545 S
C363 C356 1.409 . S
C363 C362 1.362 . S
H364 C370 0.930 . S
H365 C373 0.930 . S
H366 C374 0.930 . S
H367 C375 0.930 . S
H368 C378 0.930 . S
H369 C379 0.930 . S
C370 H364 0.930 . S
C370 C371 1.355 . S
C370 C372 1.415 1_556 S
C371 C370 1.355 . S
C371 C373 1.419 . S
C372 C370 1.415 1_554 S
C372 C377 1.425 . S
C372 C379 1.409 . S
C373 H365 0.930 . S
C373 C371 1.419 . S
C373 C374 1.362 1_655 S
C374 H366 0.930 . S
C374 C373 1.362 1_455 S
C374 C377 1.409 1_456 S
C375 H367 0.930 . S
C375 C376 1.355 . S
C375 C377 1.415 1_455 S
C376 C375 1.355 . S
C376 C378 1.419 1_455 S
C377 C372 1.425 . S
C377 C374 1.409 1_654 S
C377 C375 1.415 1_655 S
C378 H368 0.930 . S
C378 C376 1.419 1_655 S
C378 C379 1.362 . S
C379 H369 0.930 . S
C379 C372 1.409 . S
C379 C378 1.362 . S
H380 C386 0.930 . S
H381 C389 0.930 . S
H382 C390 0.930 . S
H383 C391 0.930 . S
H384 C394 0.930 . S
H385 C395 0.930 . S
C386 H380 0.930 . S
C386 C387 1.355 . S
C386 C388 1.415 . S
C387 C386 1.355 . S
C387 C389 1.419 . S
C388 C386 1.415 . S
C388 C393 1.425 . S
C388 C395 1.409 . S
C389 H381 0.930 . S
C389 C387 1.419 . S
C389 C390 1.362 . S
C390 H382 0.930 . S
C390 C389 1.362 . S
C390 C393 1.409 . S
C391 H383 0.930 . S
C391 C392 1.355 . S
C391 C393 1.415 . S
C392 C391 1.355 . S
C392 C394 1.419 . S
C393 C388 1.425 . S
C393 C390 1.409 . S
C393 C391 1.415 . S
C394 H384 0.930 . S
C394 C392 1.419 . S
C394 C395 1.362 . S
C395 H385 0.930 . S
C395 C388 1.409 . S
C395 C394 1.362 . S
H396 C402 0.930 . S
H397 C405 0.930 . S
H398 C406 0.930 . S
H399 C407 0.930 . S
H400 C410 0.930 . S
H401 C411 0.930 . S
C402 H396 0.930 . S
C402 C403 1.355 . S
C402 C404 1.415 . S
C403 C402 1.355 . S
C403 C405 1.419 . S
C404 C402 1.415 . S
C404 C409 1.425 . S
C404 C411 1.409 1_455 S
C405 H397 0.930 . S
C405 C403 1.419 . S
C405 C406 1.362 . S
C406 H398 0.930 . S
C406 C405 1.362 . S
C406 C409 1.409 . S
C407 H399 0.930 . S
C407 C408 1.355 1_455 S
C407 C409 1.415 . S
C408 C407 1.355 1_655 S
C408 C410 1.419 . S
C409 C404 1.425 . S
C409 C406 1.409 . S
C409 C407 1.415 . S
C410 H400 0.930 . S
C410 C408 1.419 . S
C410 C411 1.362 . S
C411 H401 0.930 . S
C411 C404 1.409 1_655 S
C411 C410 1.362 . S
H412 C418 0.930 . S
H413 C421 0.930 . S
H414 C422 0.930 . S
H415 C423 0.930 . S
H416 C426 0.930 . S
H417 C427 0.930 . S
C418 H412 0.930 . S
C418 C419 1.355 . S
C418 C420 1.415 . S
C419 C418 1.355 . S
C419 C421 1.419 . S
C420 C418 1.415 . S
C420 C425 1.425 . S
C420 C427 1.409 . S
C421 H413 0.930 . S
C421 C419 1.419 . S
C421 C422 1.362 . S
C422 H414 0.930 . S
C422 C421 1.362 . S
C422 C425 1.409 . S
C423 H415 0.930 . S
C423 C424 1.355 . S
C423 C425 1.415 . S
C424 C423 1.355 . S
C424 C426 1.419 . S
C425 C420 1.425 . S
C425 C422 1.409 . S
C425 C423 1.415 . S
C426 H416 0.930 . S
C426 C424 1.419 . S
C426 C427 1.362 . S
C427 H417 0.930 . S
C427 C420 1.409 . S
C427 C426 1.362 . S
H428 C434 0.930 . S
H429 C437 0.930 . S
H430 C438 0.930 . S
H431 C439 0.930 . S
H432 C442 0.930 . S
H433 C443 0.930 . S
C434 H428 0.930 . S
C434 C435 1.355 . S
C434 C436 1.415 1_545 S
C435 C434 1.355 . S
C435 C437 1.419 1_545 S
C436 C434 1.415 1_565 S
C436 C441 1.425 . S
C436 C443 1.409 1_566 S
C437 H429 0.930 . S
C437 C435 1.419 1_565 S
C437 C438 1.362 . S
C438 H430 0.930 . S
C438 C437 1.362 . S
C438 C441 1.409 . S
C439 H431 0.930 . S
C439 C440 1.355 . S
C439 C441 1.415 1_554 S
C440 C439 1.355 . S
C440 C442 1.419 . S
C441 C436 1.425 . S
C441 C438 1.409 . S
C441 C439 1.415 1_556 S
C442 H432 0.930 . S
C442 C440 1.419 . S
C442 C443 1.362 1_565 S
C443 H433 0.930 . S
C443 C436 1.409 1_544 S
C443 C442 1.362 1_545 S
C211 C2 1.956 . S
C216 C172 1.951 . S
C227 C104 1.955 . S
C232 C36 1.962 . S
C243 C138 1.959 . S
C248 C70 1.964 . S
C259 C203 1.517 . S
C264 C5 1.493 . S
C275 C135 1.514 . S
C280 C39 1.509 . S
C291 C73 1.522 . S
C296 C169 1.516 . S
C307 C67 1.524 . S
C312 C107 1.520 . S
C323 C101 1.516 . S
C328 C141 1.498 . S
C339 C175 1.492 . S
C344 C33 1.524 . S
C355 C156 1.311 . S
C360 C9 1.301 . S
C371 C43 1.276 . S
C376 C190 1.315 . S
C387 C122 1.307 . S
C392 C77 1.234 . S
C403 C111 1.234 . S
C408 C88 1.307 . S
C419 C20 1.311 . S
C424 C145 1.300 . S
C435 C54 1.314 . S
C440 C179 1.310 . S
