# Generated by pormake.
# Topology wfz, (7)-cn, num edge types: 1
# Building blocks:
#     Node 0, Type 0, BuildingBlock: HICVOG_clean_sbu_0, # of connection points: 7
#     Node 1, Type 0, BuildingBlock: HICVOG_clean_sbu_0, # of connection points: 7
#     Node 2, Type 0, BuildingBlock: HICVOG_clean_sbu_0, # of connection points: 7
#     Node 3, Type 0, BuildingBlock: HICVOG_clean_sbu_0, # of connection points: 7
#     Node 4, Type 0, BuildingBlock: HICVOG_clean_sbu_0, # of connection points: 7
#     Node 5, Type 0, BuildingBlock: HICVOG_clean_sbu_0, # of connection points: 7
#     Node 6, Type 0, BuildingBlock: HICVOG_clean_sbu_0, # of connection points: 7
#     Node 7, Type 0, BuildingBlock: HICVOG_clean_sbu_0, # of connection points: 7
#     Edge 8, Type (0, 0), None
#     Edge 9, Type (0, 0), None
#     Edge 10, Type (0, 0), None
#     Edge 11, Type (0, 0), None
#     Edge 12, Type (0, 0), None
#     Edge 13, Type (0, 0), None
#     Edge 14, Type (0, 0), None
#     Edge 15, Type (0, 0), None
#     Edge 16, Type (0, 0), None
#     Edge 17, Type (0, 0), None
#     Edge 18, Type (0, 0), None
#     Edge 19, Type (0, 0), None
#     Edge 20, Type (0, 0), None
#     Edge 21, Type (0, 0), None
#     Edge 22, Type (0, 0), None
#     Edge 23, Type (0, 0), None
#     Edge 24, Type (0, 0), None
#     Edge 25, Type (0, 0), None
#     Edge 26, Type (0, 0), None
#     Edge 27, Type (0, 0), None
#     Edge 28, Type (0, 0), None
#     Edge 29, Type (0, 0), None
#     Edge 30, Type (0, 0), None
#     Edge 31, Type (0, 0), None
#     Edge 32, Type (0, 0), None
#     Edge 33, Type (0, 0), None
#     Edge 34, Type (0, 0), None
#     Edge 35, Type (0, 0), None
# Relax obj value: 0.202
# Max RMSD: 0.270
# Mean RMSD: 0.270
data_MOF--net-wfz--node1-HICVOG_clean_sbu_0--edge1-none
_symmetry_space_group_name_H-M    P1
_symmetry_Int_Tables_number       1
_symmetry_cell_setting            triclinic
loop_
_symmetry_equiv_pos_as_xyz
'x, y, z'
_cell_length_a     12.116505
_cell_length_b     12.411408
_cell_length_c     31.943873
_cell_angle_alpha  90.126157
_cell_angle_beta   89.552777
_cell_angle_gamma 90.110314
loop_
_atom_site_label
_atom_site_type_symbol
_atom_site_fract_x
_atom_site_fract_y
_atom_site_fract_z
_atom_type_partial_charge
Zn0 Zn 0.29022 0.43772 0.40136 0.0
C1 C 0.44666 0.41876 0.51315 0.0
N2 N 0.48254 0.32406 0.4983 0.0
C3 C 0.44422 0.32344 0.45894 0.0
N4 N 0.38454 0.41289 0.45042 0.0
N5 N 0.38963 0.47496 0.48413 0.0
C6 C 0.31518 0.74095 0.54904 0.0
O7 O 0.22566 0.68311 0.54346 0.0
O8 O 0.3682 0.365 0.35149 0.0
Zn9 Zn 0.41817 0.62785 0.47543 0.0
N10 N 0.14794 0.37718 0.41566 0.0
C11 C 0.97473 0.39786 0.45064 0.0
C12 C 0.08606 0.42582 0.44594 0.0
C13 C 0.1042 0.29943 0.39126 0.0
N14 N 0.92872 0.326 0.42362 0.0
C15 C 0.99131 0.27621 0.39396 0.0
O16 O 0.31722 0.69738 0.43394 0.0
C17 C 0.25812 0.68446 0.40162 0.0
O18 O 0.24718 0.59224 0.38468 0.0
H19 H 0.12178 0.48863 0.46511 0.0
H20 H 0.15573 0.26003 0.36838 0.0
C21 C 0.61233 0.73911 0.44068 0.0
C22 C 0.71589 0.74274 0.42021 0.0
C23 C 0.7281 0.55304 0.42426 0.0
C24 C 0.6267 0.54955 0.44468 0.0
N25 N 0.56897 0.64178 0.45209 0.0
N26 N 0.76998 0.64913 0.4122 0.0
H27 H 0.56519 0.81191 0.44607 0.0
C28 C 0.35935 0.31158 0.31749 0.0
O29 O 0.44994 0.27891 0.29856 0.0
O30 O 0.40139 0.72291 0.52694 0.0
H31 H 0.59493 0.47291 0.45387 0.0
H32 H 0.92415 0.43672 0.47428 0.0
H33 H 0.77208 0.4796 0.41725 0.0
Zn34 Zn 0.92142 0.87699 0.71655 0.0
C35 C 0.22689 0.96532 0.70853 0.0
N36 N 0.20729 1.01235 0.74561 0.0
C37 C 0.1148 0.96342 0.75858 0.0
N38 N 0.07844 0.88966 0.73038 0.0
N39 N 0.15196 0.88819 0.69953 0.0
C40 C 0.3098 0.84271 0.57265 0.0
O41 O 0.36946 0.92411 0.55911 0.0
O42 O 0.81438 0.84632 0.76567 0.0
Zn43 Zn 0.1436 0.79621 0.64977 0.0
N44 N 0.89375 1.01601 0.68776 0.0
C45 C 0.98576 0.13352 0.63983 0.0
C46 C 0.97493 0.03407 0.65888 0.0
C47 C 0.814 0.09239 0.69482 0.0
N48 N 0.90757 0.20874 0.64666 0.0
C49 C 0.81962 0.19114 0.67249 0.0
O50 O 0.99396 0.77931 0.62206 0.0
C51 C 0.9063 0.73959 0.63791 0.0
O52 O 0.8804 0.75563 0.67605 0.0
H53 H 0.032 0.97174 0.65043 0.0
H54 H 0.74569 0.07504 0.71578 0.0
C55 C 0.27155 0.60747 0.64628 0.0
C56 C 0.28857 0.4962 0.64796 0.0
C57 C 0.1365 0.47985 0.69435 0.0
C58 C 0.11696 0.59067 0.691 0.0
N59 N 0.18369 0.65162 0.66606 0.0
N60 N 0.21971 0.43429 0.67159 0.0
H61 H 0.32307 0.65765 0.62669 0.0
C62 C 0.80724 0.75827 0.78645 0.0
O63 O 0.88415 0.68465 0.78212 0.0
O64 O 0.24991 0.85671 0.60529 0.0
H65 H 0.04678 0.62679 0.7067 0.0
H66 H 0.05288 0.14921 0.61814 0.0
H67 H 0.08282 0.4298 0.71333 0.0
Zn68 Zn 0.66962 0.3997 0.97887 0.0
C69 C 0.59989 0.6959 0.9436 0.0
N70 N 0.56646 0.7066 0.98355 0.0
C71 C 0.60571 0.61799 1.00166 0.0
N72 N 0.65845 0.55419 0.97348 0.0
N73 N 0.65971 0.60556 0.93696 0.0
C74 C 0.69947 0.72832 0.80515 0.0
O75 O 0.61005 0.76731 0.78789 0.0
O76 O 0.76495 0.35779 1.02887 0.0
Zn77 Zn 0.75446 0.57876 0.88581 0.0
N78 N 0.52187 0.33161 0.98365 0.0
C79 C 0.37423 0.289 0.03055 0.0
C80 C 0.47413 0.34084 1.02212 0.0
C81 C 0.4712 0.27364 0.95256 0.0
N82 N 0.32563 0.22905 1.00023 0.0
C83 C 0.37011 0.21998 0.96113 0.0
O84 O 0.78856 0.42128 0.86873 0.0
C85 C 0.7877 0.33968 0.89282 0.0
O86 O 0.74581 0.34528 0.92911 0.0
H87 H 0.51483 0.38668 0.04638 0.0
H88 H 0.5109 0.26579 0.92224 0.0
C89 C 0.93475 0.72797 0.88096 0.0
C90 C 0.04764 0.75218 0.87792 0.0
C91 C 0.08991 0.58414 0.9086 0.0
C92 C 0.97759 0.55972 0.911 0.0
N93 N 0.90236 0.63101 0.89615 0.0
N94 N 0.12262 0.67857 0.89103 0.0
H95 H 0.87357 0.7827 0.8688 0.0
C96 C 0.86908 0.34631 1.02486 0.0
O97 O 0.91596 0.36356 0.98835 0.0
O98 O 0.68772 0.66625 0.83692 0.0
H99 H 0.95119 0.48211 0.92243 0.0
H100 H 0.33631 0.29498 0.06126 0.0
H101 H 0.15073 0.52683 0.9192 0.0
Zn102 Zn 0.1491 0.21515 0.22348 0.0
C103 C 0.85609 0.13988 0.1979 0.0
N104 N 0.85225 0.09021 0.23549 0.0
C105 C 0.93828 0.13317 0.25561 0.0
N106 N 0.99177 0.20558 0.23121 0.0
N107 N 0.93547 0.21608 0.19626 0.0
C108 C 0.9389 0.33255 0.06186 0.0
O109 O 0.0384 0.3745 0.06183 0.0
O110 O 0.24514 0.20522 0.27435 0.0
Zn111 Zn 0.96982 0.32764 0.15206 0.0
N112 N 0.19906 0.12055 0.17647 0.0
C113 C 0.16285 0.08008 0.10478 0.0
C114 C 0.13671 0.13295 0.14155 0.0
C115 C 0.28804 0.05214 0.1758 0.0
N116 N 0.24955 1.01268 0.10416 0.0
C117 C 0.31323 0.99543 0.13835 0.0
O118 O 0.13216 0.37192 0.14161 0.0
C119 C 0.1966 0.39854 0.17105 0.0
O120 O 0.18282 0.36256 0.20759 0.0
H121 H 0.06741 0.18484 0.14137 0.0
H122 H 0.33682 0.04113 0.2037 0.0
C123 C 0.82302 0.49488 0.13999 0.0
C124 C 0.80109 0.60366 0.13329 0.0
C125 C 0.93432 0.64972 0.18406 0.0
C126 C 0.9598 0.54059 0.18914 0.0
N127 N 0.90525 0.46549 0.16607 0.0
N128 N 0.85718 0.67917 0.15553 0.0
H129 H 0.77952 0.43428 0.12227 0.0
C130 C 0.25335 0.28848 0.29767 0.0
O131 O 0.18019 0.36595 0.29482 0.0
O132 O 0.89816 0.29584 0.09574 0.0
H133 H 1.02673 0.5171 0.20926 0.0
H134 H 0.11392 0.09147 0.07694 0.0
H135 H 0.97853 0.71071 0.20146 0.0
Zn136 Zn 0.91464 0.91288 0.32851 0.0
C137 C 0.94227 0.21276 0.36028 0.0
N138 N 0.97657 0.22696 0.32064 0.0
C139 C 0.94085 0.13772 0.3015 0.0
N140 N 0.88849 0.06974 0.32853 0.0
N141 N 0.88509 0.12027 0.36524 0.0
C142 C 0.85419 0.18968 0.50365 0.0
O143 O 0.9449 0.20991 0.52449 0.0
O144 O 0.87205 0.83532 0.27447 0.0
Zn145 Zn 0.79101 0.08663 0.41434 0.0
N146 N 0.0685 0.88432 0.34757 0.0
C147 C 0.22375 0.97284 0.37744 0.0
C148 C 0.12718 0.97593 0.35468 0.0
C149 C 0.10876 0.78656 0.36068 0.0
N150 N 0.26281 0.8773 0.39093 0.0
C151 C 0.21009 0.78293 0.38279 0.0
O152 O 0.75334 0.93038 0.42408 0.0
C153 C 0.76452 0.84271 0.40403 0.0
O154 O 0.82016 0.83674 0.37032 0.0
H155 H 0.09726 0.05271 0.34488 0.0
H156 H 0.06006 0.71427 0.35632 0.0
C157 C 0.60454 0.22493 0.42968 0.0
C158 C 0.49155 0.24916 0.42777 0.0
C159 C 0.47271 0.12322 0.37259 0.0
C160 C 0.58406 0.09686 0.37568 0.0
N161 N 0.64729 0.14699 0.40472 0.0
N162 N 0.4279 0.19688 0.39941 0.0
H163 H 0.65748 0.26581 0.45147 0.0
C164 C 0.77587 0.84207 0.25859 0.0
O165 O 0.70755 0.91555 0.27295 0.0
O166 O 0.86307 0.14382 0.46793 0.0
H167 H 0.61929 0.0345 0.35601 0.0
H168 H 0.26457 0.04677 0.38589 0.0
H169 H 0.42234 0.08418 0.34925 0.0
Zn170 Zn 0.664 0.39155 0.58358 0.0
C171 C 0.36081 0.44925 0.61607 0.0
N172 N 0.35159 0.48034 0.57595 0.0
C173 C 0.44204 0.43864 0.55822 0.0
N174 N 0.50461 0.3857 0.5863 0.0
N175 N 0.45156 0.38855 0.6228 0.0
C176 C 0.33164 0.35159 0.75625 0.0
O177 O 0.29249 0.44047 0.77304 0.0
O178 O 0.74162 0.32438 0.5327 0.0
Zn179 Zn 0.47955 0.2964 0.67315 0.0
N180 N 0.71276 0.54294 0.58613 0.0
C181 C 0.70718 0.71274 0.55138 0.0
C182 C 0.67208 0.60623 0.55522 0.0
C183 C 0.78712 0.58347 0.6141 0.0
N184 N 0.78283 0.75229 0.57844 0.0
C185 C 0.8238 0.69111 0.60991 0.0
O186 O 0.63955 0.26181 0.68973 0.0
C187 C 0.72437 0.26296 0.66602 0.0
O188 O 0.72205 0.30838 0.63061 0.0
H189 H 0.61406 0.57342 0.5332 0.0
H190 H 0.81985 0.53198 0.63832 0.0
C191 C 0.3356 0.1156 0.67947 0.0
C192 C 0.31515 1.00448 0.68114 0.0
C193 C 0.47933 0.97263 0.64262 0.0
C194 C 0.50012 0.08333 0.64151 0.0
N195 N 0.42913 0.15227 0.661 0.0
N196 N 0.38858 0.93537 0.6633 0.0
H197 H 0.28131 0.17213 0.69508 0.0
C198 C 0.74891 0.22536 0.52231 0.0
O199 O 0.68612 0.15407 0.54129 0.0
O200 O 0.39125 0.35979 0.72311 0.0
H201 H 0.57514 0.11342 0.62719 0.0
H202 H 0.67539 0.76349 0.52683 0.0
H203 H 0.5367 0.91659 0.62833 0.0
Zn204 Zn 0.18248 0.13965 0.84845 0.0
C205 C 0.08314 0.8449 0.85316 0.0
N206 N 0.03809 0.86555 0.81602 0.0
C207 C 0.09358 0.95308 0.80324 0.0
N208 N 0.16793 0.98694 0.83217 0.0
N209 N 0.16403 0.91533 0.86269 0.0
C210 C 0.19979 0.75183 0.98488 0.0
O211 O 0.12184 0.6855 0.99753 0.0
O212 O 0.21755 0.24405 0.80009 0.0
Zn213 Zn 0.25313 0.91828 0.91263 0.0
N214 N 0.0361 0.16726 0.87429 0.0
C215 C 0.90297 0.07748 0.91717 0.0
C216 C 1.00938 0.08701 0.90157 0.0
C217 C 0.96179 0.24747 0.86606 0.0
N218 N 0.82973 0.15635 0.90925 0.0
C219 C 0.85608 0.24349 0.88539 0.0
O220 O 0.27117 0.06097 0.94365 0.0
C221 C 0.31372 0.14858 0.93043 0.0
O222 O 0.30171 0.17842 0.89256 0.0
H223 H 0.07012 0.0298 0.91135 0.0
H224 H 0.98621 0.31521 0.8468 0.0
C225 C 0.44245 0.7869 0.9132 0.0
C226 C 0.55615 0.76811 0.91192 0.0
C227 C 0.5798 0.92296 0.8698 0.0
C228 C 0.46668 0.94458 0.87323 0.0
N229 N 0.40103 0.87734 0.89603 0.0
N230 N 0.62288 0.83752 0.89069 0.0
H231 H 0.38848 0.73497 0.93112 0.0
C232 C 0.30386 0.24834 0.77675 0.0
O233 O 0.37783 0.17139 0.77853 0.0
O234 O 0.18219 0.80993 0.95282 0.0
H235 H 0.43254 1.01648 0.85938 0.0
H236 H 0.88029 1.01101 0.93736 0.0
H237 H 0.63367 0.97693 0.85261 0.0
Zn238 Zn 0.62538 0.81489 0.15033 0.0
C239 C 0.62344 0.61792 0.04719 0.0
N240 N 0.71611 0.578 0.06398 0.0
C241 C 0.72352 0.63338 0.10036 0.0
N242 N 0.64238 0.70633 0.10496 0.0
N243 N 0.57729 0.69306 0.07249 0.0
C244 C 0.30168 0.75835 1.00899 0.0
O245 O 0.35721 0.84919 1.01053 0.0
O246 O 0.67864 0.74281 0.20463 0.0
Zn247 Zn 0.42391 0.70734 0.08291 0.0
N248 N 0.72084 0.92974 0.13572 0.0
C249 C 0.84059 0.02821 0.09081 0.0
C250 C 0.76919 0.94155 0.09748 0.0
C251 C 0.73618 1.00229 0.16663 0.0
N252 N 0.86278 0.09617 0.1231 0.0
C253 C 0.81162 0.0859 0.16092 0.0
O254 O 0.38659 0.85286 0.10094 0.0
C255 C 0.39791 0.91102 0.13324 0.0
O256 O 0.47456 0.894 0.15955 0.0
H257 H 0.75327 0.88413 0.07273 0.0
H258 H 0.69442 0.99025 0.19626 0.0
C259 C 0.30463 0.53708 0.12915 0.0
C260 C 0.2854 0.47719 0.16584 0.0
C261 C 0.43011 0.57045 0.19982 0.0
C262 C 0.44693 0.63106 0.16412 0.0
N263 N 0.38595 0.61316 0.12929 0.0
N264 N 0.34963 0.49548 0.19989 0.0
H265 H 0.25508 0.52514 0.10147 0.0
C266 C 0.72879 0.7443 0.23965 0.0
O267 O 0.73984 0.65301 0.25987 0.0
O268 O 0.32445 0.6821 0.03409 0.0
H269 H 0.5073 0.69287 0.16456 0.0
H270 H 0.88135 0.03902 0.06085 0.0
H271 H 0.4791 0.58398 0.22752 0.0
loop_
_geom_bond_atom_site_label_1
_geom_bond_atom_site_label_2
_geom_bond_distance
_geom_bond_site_symmetry_2
_ccdc_geom_bond_type
Zn0 N4 2.020 . S
Zn0 O8 2.019 . S
Zn0 N10 2.119 . S
Zn0 O18 1.975 . S
C1 N2 1.334 . S
C1 N5 1.336 . S
N2 C1 1.334 . S
N2 C3 1.334 . S
C3 N2 1.334 . S
C3 N4 1.336 . S
N4 Zn0 2.020 . S
N4 C3 1.336 . S
N4 N5 1.354 . S
N5 C1 1.336 . S
N5 N4 1.354 . S
N5 Zn9 2.020 . S
C6 O7 1.244 . S
C6 O30 1.257 . S
O7 C6 1.244 . S
O8 Zn0 2.019 . S
O8 C28 1.257 . S
Zn9 N5 2.020 . S
Zn9 O16 1.975 . S
Zn9 N25 2.119 . S
Zn9 O30 2.019 . S
N10 Zn0 2.119 . S
N10 C12 1.334 . S
N10 C13 1.328 . S
C11 C12 1.391 1_655 S
C11 N14 1.329 . S
C11 H32 0.930 . S
C12 N10 1.334 . S
C12 C11 1.391 1_455 S
C12 H19 0.930 . S
C13 N10 1.328 . S
C13 C15 1.392 1_455 S
C13 H20 0.930 . S
N14 C11 1.329 . S
N14 C15 1.331 . S
C15 C13 1.392 1_655 S
C15 N14 1.331 . S
O16 Zn9 1.975 . S
O16 C17 1.252 . S
C17 O16 1.252 . S
C17 O18 1.252 . S
O18 Zn0 1.975 . S
O18 C17 1.252 . S
H19 C12 0.930 . S
H20 C13 0.930 . S
C21 C22 1.392 . S
C21 N25 1.328 . S
C21 H27 0.930 . S
C22 C21 1.392 . S
C22 N26 1.331 . S
C23 C24 1.391 . S
C23 N26 1.329 . S
C23 H33 0.930 . S
C24 C23 1.391 . S
C24 N25 1.334 . S
C24 H31 0.930 . S
N25 Zn9 2.119 . S
N25 C21 1.328 . S
N25 C24 1.334 . S
N26 C22 1.331 . S
N26 C23 1.329 . S
H27 C21 0.930 . S
C28 O8 1.257 . S
C28 O29 1.244 . S
O29 C28 1.244 . S
O30 C6 1.257 . S
O30 Zn9 2.019 . S
H31 C24 0.930 . S
H32 C11 0.930 . S
H33 C23 0.930 . S
Zn34 N38 2.020 1_655 S
Zn34 O42 2.019 . S
Zn34 N44 2.119 . S
Zn34 O52 1.975 . S
C35 N36 1.334 . S
C35 N39 1.336 . S
N36 C35 1.334 . S
N36 C37 1.334 . S
C37 N36 1.334 . S
C37 N38 1.336 . S
N38 Zn34 2.020 1_455 S
N38 C37 1.336 . S
N38 N39 1.354 . S
N39 C35 1.336 . S
N39 N38 1.354 . S
N39 Zn43 2.020 . S
C40 O41 1.244 . S
C40 O64 1.257 . S
O41 C40 1.244 . S
O42 Zn34 2.019 . S
O42 C62 1.257 . S
Zn43 N39 2.020 . S
Zn43 O50 1.975 1_455 S
Zn43 N59 2.119 . S
Zn43 O64 2.019 . S
N44 Zn34 2.119 . S
N44 C46 1.334 . S
N44 C47 1.328 . S
C45 C46 1.391 . S
C45 N48 1.329 1_565 S
C45 H66 0.929 1_565 S
C46 N44 1.334 . S
C46 C45 1.391 . S
C46 H53 0.930 . S
C47 N44 1.328 . S
C47 C49 1.392 1_565 S
C47 H54 0.930 . S
N48 C45 1.329 1_545 S
N48 C49 1.331 . S
C49 C47 1.392 1_545 S
C49 N48 1.331 . S
O50 Zn43 1.975 1_655 S
O50 C51 1.252 . S
C51 O50 1.252 . S
C51 O52 1.252 . S
O52 Zn34 1.975 . S
O52 C51 1.252 . S
H53 C46 0.930 . S
H54 C47 0.930 . S
C55 C56 1.392 . S
C55 N59 1.328 . S
C55 H61 0.930 . S
C56 C55 1.392 . S
C56 N60 1.331 . S
C57 C58 1.391 . S
C57 N60 1.329 . S
C57 H67 0.930 . S
C58 C57 1.391 . S
C58 N59 1.334 . S
C58 H65 0.930 . S
N59 Zn43 2.119 . S
N59 C55 1.328 . S
N59 C58 1.334 . S
N60 C56 1.331 . S
N60 C57 1.329 . S
H61 C55 0.930 . S
C62 O42 1.257 . S
C62 O63 1.244 . S
O63 C62 1.244 . S
O64 C40 1.257 . S
O64 Zn43 2.019 . S
H65 C58 0.930 . S
H66 C45 0.929 1_545 S
H67 C57 0.930 . S
Zn68 N72 2.020 . S
Zn68 O76 2.019 . S
Zn68 N78 2.119 . S
Zn68 O86 1.975 . S
C69 N70 1.334 . S
C69 N73 1.336 . S
N70 C69 1.334 . S
N70 C71 1.334 . S
C71 N70 1.334 . S
C71 N72 1.336 . S
N72 Zn68 2.020 . S
N72 C71 1.336 . S
N72 N73 1.354 . S
N73 C69 1.336 . S
N73 N72 1.354 . S
N73 Zn77 2.020 . S
C74 O75 1.244 . S
C74 O98 1.257 . S
O75 C74 1.244 . S
O76 Zn68 2.019 . S
O76 C96 1.257 1_556 S
Zn77 N73 2.020 . S
Zn77 O84 1.975 . S
Zn77 N93 2.119 . S
Zn77 O98 2.019 . S
N78 Zn68 2.119 . S
N78 C80 1.334 . S
N78 C81 1.328 . S
C79 C80 1.391 . S
C79 N82 1.329 . S
C79 H100 0.930 . S
C80 N78 1.334 . S
C80 C79 1.391 . S
C80 H87 0.930 . S
C81 N78 1.328 . S
C81 C83 1.392 . S
C81 H88 0.930 . S
N82 C79 1.329 . S
N82 C83 1.331 . S
C83 C81 1.392 . S
C83 N82 1.331 . S
O84 Zn77 1.975 . S
O84 C85 1.252 . S
C85 O84 1.252 . S
C85 O86 1.252 . S
O86 Zn68 1.975 . S
O86 C85 1.252 . S
H87 C80 0.930 . S
H88 C81 0.930 . S
C89 C90 1.392 1_655 S
C89 N93 1.328 . S
C89 H95 0.930 . S
C90 C89 1.392 1_455 S
C90 N94 1.331 . S
C91 C92 1.391 1_455 S
C91 N94 1.329 . S
C91 H101 0.930 . S
C92 C91 1.391 1_655 S
C92 N93 1.334 . S
C92 H99 0.930 . S
N93 Zn77 2.119 . S
N93 C89 1.328 . S
N93 C92 1.334 . S
N94 C90 1.331 . S
N94 C91 1.329 . S
H95 C89 0.930 . S
C96 O76 1.257 1_554 S
C96 O97 1.244 . S
O97 C96 1.244 . S
O98 C74 1.257 . S
O98 Zn77 2.019 . S
H99 C92 0.930 . S
H100 C79 0.930 . S
H101 C91 0.930 . S
Zn102 N106 2.020 1_455 S
Zn102 O110 2.019 . S
Zn102 N112 2.119 . S
Zn102 O120 1.975 . S
C103 N104 1.334 . S
C103 N107 1.336 . S
N104 C103 1.334 . S
N104 C105 1.334 . S
C105 N104 1.334 . S
C105 N106 1.336 . S
N106 Zn102 2.020 1_655 S
N106 C105 1.336 . S
N106 N107 1.354 . S
N107 C103 1.336 . S
N107 N106 1.354 . S
N107 Zn111 2.020 . S
C108 O109 1.244 . S
C108 O132 1.257 . S
O109 C108 1.244 . S
O110 Zn102 2.019 . S
O110 C130 1.257 . S
Zn111 N107 2.020 . S
Zn111 O118 1.975 1_655 S
Zn111 N127 2.119 . S
Zn111 O132 2.019 . S
N112 Zn102 2.119 . S
N112 C114 1.334 . S
N112 C115 1.328 . S
C113 C114 1.391 . S
C113 N116 1.329 1_545 S
C113 H134 0.930 . S
C114 N112 1.334 . S
C114 C113 1.391 . S
C114 H121 0.930 . S
C115 N112 1.328 . S
C115 C117 1.392 . S
C115 H122 0.930 . S
N116 C113 1.329 1_565 S
N116 C117 1.331 1_565 S
C117 C115 1.392 . S
C117 N116 1.331 1_545 S
O118 Zn111 1.975 1_455 S
O118 C119 1.252 . S
C119 O118 1.252 . S
C119 O120 1.252 . S
O120 Zn102 1.975 . S
O120 C119 1.252 . S
H121 C114 0.930 . S
H122 C115 0.930 . S
C123 C124 1.392 . S
C123 N127 1.328 . S
C123 H129 0.930 . S
C124 C123 1.392 . S
C124 N128 1.331 . S
C125 C126 1.391 . S
C125 N128 1.329 . S
C125 H135 0.930 . S
C126 C125 1.391 . S
C126 N127 1.334 . S
C126 H133 0.930 . S
N127 Zn111 2.119 . S
N127 C123 1.328 . S
N127 C126 1.334 . S
N128 C124 1.331 . S
N128 C125 1.329 . S
H129 C123 0.930 . S
C130 O110 1.257 . S
C130 O131 1.244 . S
O131 C130 1.244 . S
O132 C108 1.257 . S
O132 Zn111 2.019 . S
H133 C126 0.930 . S
H134 C113 0.930 . S
H135 C125 0.930 . S
Zn136 N140 2.020 1_565 S
Zn136 O144 2.019 . S
Zn136 N146 2.119 . S
Zn136 O154 1.975 . S
C137 N138 1.334 . S
C137 N141 1.336 . S
N138 C137 1.334 . S
N138 C139 1.334 . S
C139 N138 1.334 . S
C139 N140 1.336 . S
N140 Zn136 2.020 1_545 S
N140 C139 1.336 . S
N140 N141 1.354 . S
N141 C137 1.336 . S
N141 N140 1.354 . S
N141 Zn145 2.020 . S
C142 O143 1.244 . S
C142 O166 1.257 . S
O143 C142 1.244 . S
O144 Zn136 2.019 . S
O144 C164 1.257 . S
Zn145 N141 2.020 . S
Zn145 O152 1.975 1_545 S
Zn145 N161 2.119 . S
Zn145 O166 2.019 . S
N146 Zn136 2.119 . S
N146 C148 1.334 . S
N146 C149 1.328 . S
C147 C148 1.391 . S
C147 N150 1.329 1_655 S
C147 H168 0.929 1_655 S
C148 N146 1.334 . S
C148 C147 1.391 . S
C148 H155 0.930 . S
C149 N146 1.328 . S
C149 C151 1.392 1_655 S
C149 H156 0.930 . S
N150 C147 1.329 1_455 S
N150 C151 1.331 . S
C151 C149 1.392 1_455 S
C151 N150 1.331 . S
O152 Zn145 1.975 1_565 S
O152 C153 1.252 . S
C153 O152 1.252 . S
C153 O154 1.252 . S
O154 Zn136 1.975 . S
O154 C153 1.252 . S
H155 C148 0.930 . S
H156 C149 0.930 . S
C157 C158 1.392 . S
C157 N161 1.328 . S
C157 H163 0.930 . S
C158 C157 1.392 . S
C158 N162 1.331 . S
C159 C160 1.391 . S
C159 N162 1.329 . S
C159 H169 0.930 . S
C160 C159 1.391 . S
C160 N161 1.334 . S
C160 H167 0.930 . S
N161 Zn145 2.119 . S
N161 C157 1.328 . S
N161 C160 1.334 . S
N162 C158 1.331 . S
N162 C159 1.329 . S
H163 C157 0.930 . S
C164 O144 1.257 . S
C164 O165 1.244 . S
O165 C164 1.244 . S
O166 C142 1.257 . S
O166 Zn145 2.019 . S
H167 C160 0.930 . S
H168 C147 0.929 1_455 S
H169 C159 0.930 . S
Zn170 N174 2.020 . S
Zn170 O178 2.019 . S
Zn170 N180 2.119 . S
Zn170 O188 1.975 . S
C171 N172 1.334 . S
C171 N175 1.336 . S
N172 C171 1.334 . S
N172 C173 1.334 . S
C173 N172 1.334 . S
C173 N174 1.336 . S
N174 Zn170 2.020 . S
N174 C173 1.336 . S
N174 N175 1.354 . S
N175 C171 1.336 . S
N175 N174 1.354 . S
N175 Zn179 2.020 . S
C176 O177 1.244 . S
C176 O200 1.257 . S
O177 C176 1.244 . S
O178 Zn170 2.019 . S
O178 C198 1.257 . S
Zn179 N175 2.020 . S
Zn179 O186 1.975 . S
Zn179 N195 2.119 . S
Zn179 O200 2.019 . S
N180 Zn170 2.119 . S
N180 C182 1.334 . S
N180 C183 1.328 . S
C181 C182 1.391 . S
C181 N184 1.329 . S
C181 H202 0.930 . S
C182 N180 1.334 . S
C182 C181 1.391 . S
C182 H189 0.930 . S
C183 N180 1.328 . S
C183 C185 1.392 . S
C183 H190 0.930 . S
N184 C181 1.329 . S
N184 C185 1.331 . S
C185 C183 1.392 . S
C185 N184 1.331 . S
O186 Zn179 1.975 . S
O186 C187 1.252 . S
C187 O186 1.252 . S
C187 O188 1.252 . S
O188 Zn170 1.975 . S
O188 C187 1.252 . S
H189 C182 0.930 . S
H190 C183 0.930 . S
C191 C192 1.392 1_545 S
C191 N195 1.328 . S
C191 H197 0.930 . S
C192 C191 1.392 1_565 S
C192 N196 1.331 . S
C193 C194 1.391 1_565 S
C193 N196 1.329 . S
C193 H203 0.930 . S
C194 C193 1.391 1_545 S
C194 N195 1.334 . S
C194 H201 0.930 . S
N195 Zn179 2.119 . S
N195 C191 1.328 . S
N195 C194 1.334 . S
N196 C192 1.331 . S
N196 C193 1.329 . S
H197 C191 0.930 . S
C198 O178 1.257 . S
C198 O199 1.244 . S
O199 C198 1.244 . S
O200 C176 1.257 . S
O200 Zn179 2.019 . S
H201 C194 0.930 . S
H202 C181 0.930 . S
H203 C193 0.930 . S
Zn204 N208 2.020 1_545 S
Zn204 O212 2.019 . S
Zn204 N214 2.119 . S
Zn204 O222 1.975 . S
C205 N206 1.334 . S
C205 N209 1.336 . S
N206 C205 1.334 . S
N206 C207 1.334 . S
C207 N206 1.334 . S
C207 N208 1.336 . S
N208 Zn204 2.020 1_565 S
N208 C207 1.336 . S
N208 N209 1.354 . S
N209 C205 1.336 . S
N209 N208 1.354 . S
N209 Zn213 2.020 . S
C210 O211 1.244 . S
C210 O234 1.257 . S
O211 C210 1.244 . S
O212 Zn204 2.019 . S
O212 C232 1.257 . S
Zn213 N209 2.020 . S
Zn213 O220 1.975 1_565 S
Zn213 N229 2.119 . S
Zn213 O234 2.019 . S
N214 Zn204 2.119 . S
N214 C216 1.334 . S
N214 C217 1.328 . S
C215 C216 1.391 . S
C215 N218 1.329 1_455 S
C215 H236 0.930 . S
C216 N214 1.334 . S
C216 C215 1.391 . S
C216 H223 0.930 . S
C217 N214 1.328 . S
C217 C219 1.392 . S
C217 H224 0.930 . S
N218 C215 1.329 1_655 S
N218 C219 1.331 1_655 S
C219 C217 1.392 . S
C219 N218 1.331 1_455 S
O220 Zn213 1.975 1_545 S
O220 C221 1.252 . S
C221 O220 1.252 . S
C221 O222 1.252 . S
O222 Zn204 1.975 . S
O222 C221 1.252 . S
H223 C216 0.930 . S
H224 C217 0.930 . S
C225 C226 1.392 . S
C225 N229 1.328 . S
C225 H231 0.930 . S
C226 C225 1.392 . S
C226 N230 1.331 . S
C227 C228 1.391 . S
C227 N230 1.329 . S
C227 H237 0.930 . S
C228 C227 1.391 . S
C228 N229 1.334 . S
C228 H235 0.930 . S
N229 Zn213 2.119 . S
N229 C225 1.328 . S
N229 C228 1.334 . S
N230 C226 1.331 . S
N230 C227 1.329 . S
H231 C225 0.930 . S
C232 O212 1.257 . S
C232 O233 1.244 . S
O233 C232 1.244 . S
O234 C210 1.257 . S
O234 Zn213 2.019 . S
H235 C228 0.930 . S
H236 C215 0.930 . S
H237 C227 0.930 . S
Zn238 N242 2.020 . S
Zn238 O246 2.019 . S
Zn238 N248 2.119 . S
Zn238 O256 1.975 . S
C239 N240 1.334 . S
C239 N243 1.336 . S
N240 C239 1.334 . S
N240 C241 1.334 . S
C241 N240 1.334 . S
C241 N242 1.336 . S
N242 Zn238 2.020 . S
N242 C241 1.336 . S
N242 N243 1.354 . S
N243 C239 1.336 . S
N243 N242 1.354 . S
N243 Zn247 2.020 . S
C244 O245 1.244 . S
C244 O268 1.257 1_556 S
O245 C244 1.244 . S
O246 Zn238 2.019 . S
O246 C266 1.257 . S
Zn247 N243 2.020 . S
Zn247 O254 1.975 . S
Zn247 N263 2.119 . S
Zn247 O268 2.019 . S
N248 Zn238 2.119 . S
N248 C250 1.334 . S
N248 C251 1.328 . S
C249 C250 1.391 1_545 S
C249 N252 1.329 . S
C249 H270 0.930 . S
C250 N248 1.334 . S
C250 C249 1.391 1_565 S
C250 H257 0.930 . S
C251 N248 1.328 . S
C251 C253 1.392 1_565 S
C251 H258 0.930 . S
N252 C249 1.329 . S
N252 C253 1.331 . S
C253 C251 1.392 1_545 S
C253 N252 1.331 . S
O254 Zn247 1.975 . S
O254 C255 1.252 . S
C255 O254 1.252 . S
C255 O256 1.252 . S
O256 Zn238 1.975 . S
O256 C255 1.252 . S
H257 C250 0.930 . S
H258 C251 0.930 . S
C259 C260 1.392 . S
C259 N263 1.328 . S
C259 H265 0.930 . S
C260 C259 1.392 . S
C260 N264 1.331 . S
C261 C262 1.391 . S
C261 N264 1.329 . S
C261 H271 0.930 . S
C262 C261 1.391 . S
C262 N263 1.334 . S
C262 H269 0.930 . S
N263 Zn247 2.119 . S
N263 C259 1.328 . S
N263 C262 1.334 . S
N264 C260 1.331 . S
N264 C261 1.329 . S
H265 C259 0.930 . S
C266 O246 1.257 . S
C266 O267 1.244 . S
O267 C266 1.244 . S
O268 C244 1.257 1_554 S
O268 Zn247 2.019 . S
H269 C262 0.930 . S
H270 C249 0.930 . S
H271 C261 0.930 . S
C3 C158 1.474 . S
C192 C35 1.474 . S
C226 C69 1.474 . S
C103 C253 1.474 . S
C15 C137 1.474 . S
C56 C171 1.473 . S
C205 C90 1.474 . S
C124 C241 1.474 . S
C40 C6 1.970 . S
C74 C62 1.971 . S
C96 C108 1.971 . S
C130 C28 1.971 . S
C266 C164 1.971 . S
C198 C142 1.970 . S
C232 C176 1.970 . S
C244 C210 1.971 . S
C153 C22 2.377 . S
C187 C49 2.377 . S
C83 C221 2.376 . S
C117 C255 2.376 1_545 S
C151 C17 2.377 . S
C185 C51 2.376 . S
C219 C85 2.376 1_455 S
C260 C119 2.376 . S
C173 C1 3.345 . S
C207 C37 3.344 . S
C239 C71 3.344 1_554 S
C105 C139 3.344 . S
