# Generated by pormake.
# Topology loh, (5)-cn, num edge types: 1
# Building blocks:
#     Node 0, Type 0, BuildingBlock: BEQFEK_clean_sbu_0, # of connection points: 5
#     Node 1, Type 0, BuildingBlock: BEQFEK_clean_sbu_0, # of connection points: 5
#     Node 2, Type 0, BuildingBlock: BEQFEK_clean_sbu_0, # of connection points: 5
#     Node 3, Type 0, BuildingBlock: BEQFEK_clean_sbu_0, # of connection points: 5
#     Node 4, Type 0, BuildingBlock: BEQFEK_clean_sbu_0, # of connection points: 5
#     Node 5, Type 0, BuildingBlock: BEQFEK_clean_sbu_0, # of connection points: 5
#     Node 6, Type 0, BuildingBlock: BEQFEK_clean_sbu_0, # of connection points: 5
#     Node 7, Type 0, BuildingBlock: BEQFEK_clean_sbu_0, # of connection points: 5
#     Edge 8, Type (0, 0), BuildingBlock: TEMPAE_clean_linker_10, # of connection points: 2
#     Edge 9, Type (0, 0), BuildingBlock: TEMPAE_clean_linker_10, # of connection points: 2
#     Edge 10, Type (0, 0), BuildingBlock: TEMPAE_clean_linker_10, # of connection points: 2
#     Edge 11, Type (0, 0), BuildingBlock: TEMPAE_clean_linker_10, # of connection points: 2
#     Edge 12, Type (0, 0), BuildingBlock: TEMPAE_clean_linker_10, # of connection points: 2
#     Edge 13, Type (0, 0), BuildingBlock: TEMPAE_clean_linker_10, # of connection points: 2
#     Edge 14, Type (0, 0), BuildingBlock: TEMPAE_clean_linker_10, # of connection points: 2
#     Edge 15, Type (0, 0), BuildingBlock: TEMPAE_clean_linker_10, # of connection points: 2
#     Edge 16, Type (0, 0), BuildingBlock: TEMPAE_clean_linker_10, # of connection points: 2
#     Edge 17, Type (0, 0), BuildingBlock: TEMPAE_clean_linker_10, # of connection points: 2
#     Edge 18, Type (0, 0), BuildingBlock: TEMPAE_clean_linker_10, # of connection points: 2
#     Edge 19, Type (0, 0), BuildingBlock: TEMPAE_clean_linker_10, # of connection points: 2
#     Edge 20, Type (0, 0), BuildingBlock: TEMPAE_clean_linker_10, # of connection points: 2
#     Edge 21, Type (0, 0), BuildingBlock: TEMPAE_clean_linker_10, # of connection points: 2
#     Edge 22, Type (0, 0), BuildingBlock: TEMPAE_clean_linker_10, # of connection points: 2
#     Edge 23, Type (0, 0), BuildingBlock: TEMPAE_clean_linker_10, # of connection points: 2
#     Edge 24, Type (0, 0), BuildingBlock: TEMPAE_clean_linker_10, # of connection points: 2
#     Edge 25, Type (0, 0), BuildingBlock: TEMPAE_clean_linker_10, # of connection points: 2
#     Edge 26, Type (0, 0), BuildingBlock: TEMPAE_clean_linker_10, # of connection points: 2
#     Edge 27, Type (0, 0), BuildingBlock: TEMPAE_clean_linker_10, # of connection points: 2
# Relax obj value: 0.183
# Max RMSD: 0.139
# Mean RMSD: 0.139
data_MOF--net-loh--node1-BEQFEK_clean_sbu_0--edge1-TEMPAE_clean_linker_10
_symmetry_space_group_name_H-M    P1
_symmetry_Int_Tables_number       1
_symmetry_cell_setting            triclinic
loop_
_symmetry_equiv_pos_as_xyz
'x, y, z'
_cell_length_a     22.022845
_cell_length_b     28.465157
_cell_length_c     44.189331
_cell_angle_alpha  89.980716
_cell_angle_beta   89.99782
_cell_angle_gamma 90.033771
loop_
_atom_site_label
_atom_site_type_symbol
_atom_site_fract_x
_atom_site_fract_y
_atom_site_fract_z
_atom_type_partial_charge
Co0 Co 0.99385 0.33224 0.11872 0.0
Co1 Co 0.0441 0.2398 0.14821 0.0
C2 C 0.93198 0.24013 0.10913 0.0
O3 O 0.93709 0.28412 0.10609 0.0
O4 O 0.97014 0.21652 0.12468 0.0
C5 C 0.90123 0.39581 0.1009 0.0
O6 O 0.86503 0.36078 0.1079 0.0
C7 C 0.0438 0.15334 0.18597 0.0
C8 C 0.14143 0.14399 0.19543 0.0
C9 C 0.08494 0.12409 0.20083 0.0
N10 N 0.07473 0.18838 0.17235 0.0
N11 N 0.1331 0.18238 0.17808 0.0
C12 C 0.97603 0.15021 0.18632 0.0
H13 H 0.95583 0.18564 0.18338 0.0
H14 H 0.95977 0.1344 0.20781 0.0
H15 H 0.96088 0.12775 0.16724 0.0
C16 C 1.00237 0.36727 0.18046 0.0
N17 N 1.00582 0.33176 0.16053 0.0
N18 N 0.02728 0.29392 0.1739 0.0
C19 C 0.03851 0.30479 0.20327 0.0
C20 C 0.02334 0.35184 0.20825 0.0
C21 C 0.98104 0.4157 0.17252 0.0
H22 H 0.93489 0.41351 0.16261 0.0
H23 H 0.97928 0.43917 0.19254 0.0
H24 H 0.01175 0.43103 0.15523 0.0
O25 O 0.07116 0.32269 0.09714 0.0
O26 O 0.10847 0.25724 0.11729 0.0
H27 H 0.07149 0.28821 0.24811 0.0
H28 H 0.04148 0.23911 0.22663 0.0
C29 C 0.06806 0.27217 0.22528 0.0
H30 H 0.11418 0.26315 0.21703 0.0
H31 H 0.1673 0.2047 0.17028 0.0
O32 O 0.95818 0.39183 0.10501 0.0
C33 C 0.11229 0.29132 0.09847 0.0
Co34 Co 0.58484 0.66745 0.62415 0.0
Co35 Co 0.53581 0.76266 0.65008 0.0
C36 C 0.64736 0.75884 0.61138 0.0
O37 O 0.64083 0.71482 0.60977 0.0
O38 O 0.61015 0.78418 0.6263 0.0
C39 C 0.68303 0.60695 0.61437 0.0
O40 O 0.71269 0.64142 0.62748 0.0
C41 C 0.53592 0.85252 0.68412 0.0
C42 C 0.43893 0.86096 0.6954 0.0
C43 C 0.49523 0.88215 0.69885 0.0
N44 N 0.50498 0.81589 0.67239 0.0
N45 N 0.44696 0.8214 0.67915 0.0
C46 C 0.60356 0.85687 0.68308 0.0
H47 H 0.62469 0.82151 0.68213 0.0
H48 H 0.6208 0.87625 0.70311 0.0
H49 H 0.61666 0.87644 0.66236 0.0
C50 C 0.57525 0.63771 0.68684 0.0
N51 N 0.5726 0.67157 0.66574 0.0
N52 N 0.55199 0.71075 0.67774 0.0
C53 C 0.54074 0.70251 0.70747 0.0
C54 C 0.555 0.65579 0.71406 0.0
C55 C 0.59448 0.58819 0.68049 0.0
H56 H 0.64285 0.58811 0.67359 0.0
H57 H 0.58959 0.56503 0.70052 0.0
H58 H 0.56728 0.5739 0.66147 0.0
O59 O 0.50761 0.6744 0.60194 0.0
O60 O 0.47238 0.74254 0.61926 0.0
H61 H 0.46529 0.74475 0.72067 0.0
H62 H 0.51079 0.72375 0.75198 0.0
C63 C 0.51221 0.73726 0.72842 0.0
H64 H 0.53815 0.77066 0.72772 0.0
H65 H 0.41285 0.79779 0.67295 0.0
O66 O 0.62535 0.60865 0.61278 0.0
C67 C 0.46755 0.70671 0.60186 0.0
Co68 Co 0.98445 0.70922 0.93252 0.0
Co69 Co 0.03533 0.80157 0.90312 0.0
C70 C 0.92264 0.80134 0.94184 0.0
O71 O 0.92761 0.75735 0.94492 0.0
O72 O 0.96107 0.82492 0.92641 0.0
C73 C 0.89246 0.64542 0.95148 0.0
O74 O 0.85579 0.68065 0.9457 0.0
C75 C 0.0359 0.88788 0.86516 0.0
C76 C 0.13376 0.89719 0.85625 0.0
C77 C 0.07743 0.91707 0.85048 0.0
N78 N 0.06646 0.85291 0.87903 0.0
N79 N 0.12497 0.85889 0.87362 0.0
C80 C 0.96815 0.89102 0.86444 0.0
H81 H 0.94782 0.85563 0.86744 0.0
H82 H 0.95239 0.90659 0.84279 0.0
H83 H 0.95263 0.91371 0.88333 0.0
C84 C 0.99362 0.67404 0.87087 0.0
N85 N 0.99684 0.70962 0.89075 0.0
N86 N 0.01874 0.74736 0.87743 0.0
C87 C 0.0306 0.73633 0.84815 0.0
C88 C 0.01533 0.68927 0.84317 0.0
C89 C 0.97191 0.62568 0.87879 0.0
H90 H 1.00294 0.61001 0.89581 0.0
H91 H 0.92607 0.62805 0.88904 0.0
H92 H 0.96937 0.60241 0.8587 0.0
O93 O 0.06165 0.71875 0.95422 0.0
O94 O 0.09934 0.78419 0.93421 0.0
H95 H 0.10688 0.77773 0.83484 0.0
H96 H 0.06499 0.75257 0.80351 0.0
C97 C 0.06097 0.76875 0.82627 0.0
H98 H 0.03459 0.80185 0.82465 0.0
H99 H 0.15895 0.8366 0.88166 0.0
O100 O 0.94902 0.64949 0.94627 0.0
C101 C 0.10292 0.75005 0.953 0.0
Co102 Co 0.58286 0.37392 0.42687 0.0
Co103 Co 0.53345 0.27862 0.40122 0.0
C104 C 0.64555 0.28256 0.43949 0.0
O105 O 0.63899 0.32658 0.44109 0.0
O106 O 0.60817 0.25714 0.42471 0.0
C107 C 0.68131 0.43445 0.43611 0.0
O108 O 0.71065 0.39996 0.42287 0.0
C109 C 0.53273 0.18908 0.36682 0.0
C110 C 0.43525 0.18001 0.35685 0.0
C111 C 0.49155 0.15926 0.35254 0.0
N112 N 0.50206 0.22536 0.3791 0.0
N113 N 0.44375 0.21949 0.37312 0.0
C114 C 0.60045 0.18526 0.36692 0.0
H115 H 0.61485 0.16499 0.38714 0.0
H116 H 0.62124 0.22073 0.36818 0.0
H117 H 0.61683 0.16678 0.34637 0.0
C118 C 0.57234 0.40349 0.36417 0.0
N119 N 0.57003 0.36968 0.38532 0.0
N120 N 0.54921 0.33045 0.37345 0.0
C121 C 0.53743 0.33863 0.34376 0.0
C122 C 0.55162 0.38534 0.33706 0.0
C123 C 0.59156 0.45307 0.3704 0.0
H124 H 0.56474 0.46731 0.38957 0.0
H125 H 0.64008 0.45328 0.37705 0.0
H126 H 0.58616 0.47619 0.35039 0.0
O127 O 0.50593 0.36706 0.44936 0.0
O128 O 0.47053 0.29881 0.43226 0.0
H129 H 0.46193 0.2959 0.33117 0.0
H130 H 0.50598 0.31748 0.29948 0.0
C131 C 0.50844 0.30383 0.32298 0.0
H132 H 0.53478 0.27062 0.32333 0.0
H133 H 0.40973 0.2428 0.37988 0.0
O134 O 0.62366 0.43274 0.438 0.0
C135 C 0.46589 0.33469 0.44962 0.0
Co136 Co 0.48711 0.87354 0.12346 0.0
Co137 Co 0.53731 0.7786 0.14931 0.0
C138 C 0.42507 0.78189 0.11105 0.0
O139 O 0.43119 0.82594 0.10937 0.0
O140 O 0.46274 0.75675 0.12583 0.0
C141 C 0.3885 0.93386 0.11363 0.0
O142 O 0.35872 0.89919 0.12647 0.0
C143 C 0.53831 0.68898 0.18364 0.0
C144 C 0.63569 0.68051 0.19404 0.0
C145 C 0.57951 0.65937 0.19807 0.0
N146 N 0.56886 0.72551 0.17154 0.0
N147 N 0.62711 0.72 0.17777 0.0
C148 C 0.47064 0.68469 0.18322 0.0
H149 H 0.44953 0.72004 0.18212 0.0
H150 H 0.45408 0.66575 0.20358 0.0
H151 H 0.4568 0.66468 0.16281 0.0
C152 C 0.49767 0.90345 0.18607 0.0
N153 N 0.50006 0.86953 0.16502 0.0
N154 N 0.52129 0.83049 0.17696 0.0
C155 C 0.5333 0.83892 0.20659 0.0
C156 C 0.51882 0.88559 0.21319 0.0
C157 C 0.47796 0.95287 0.17974 0.0
H158 H 0.50511 0.96737 0.16076 0.0
H159 H 0.42963 0.95268 0.17277 0.0
H160 H 0.48255 0.97599 0.1998 0.0
O161 O 0.56407 0.86681 0.10093 0.0
O162 O 0.60013 0.79893 0.11827 0.0
H163 H 0.60949 0.797 0.21919 0.0
H164 H 0.56516 0.81814 0.25088 0.0
C165 C 0.56286 0.80443 0.22739 0.0
H166 H 0.53706 0.77095 0.22708 0.0
H167 H 0.66103 0.74354 0.17119 0.0
O168 O 0.4462 0.93225 0.1122 0.0
C169 C 0.60441 0.83469 0.10078 0.0
Co170 Co 0.08637 0.20957 0.61806 0.0
Co171 Co 0.03522 0.30172 0.64748 0.0
C172 C 0.14771 0.30192 0.60864 0.0
O173 O 0.1429 0.25792 0.60556 0.0
O174 O 0.10929 0.32534 0.62414 0.0
C175 C 0.17923 0.14631 0.59981 0.0
O176 O 0.21541 0.18162 0.60617 0.0
C177 C 0.03456 0.38796 0.68543 0.0
C178 C 0.9367 0.3972 0.69432 0.0
C179 C 0.99303 0.41711 0.70009 0.0
N180 N 1.004 0.35297 0.67157 0.0
N181 N 0.94549 0.3589 0.67696 0.0
C182 C 0.10231 0.39113 0.68617 0.0
H183 H 0.12263 0.35575 0.68317 0.0
H184 H 0.11806 0.40668 0.70782 0.0
H185 H 0.11786 0.41385 0.66728 0.0
C186 C 0.0773 0.17429 0.67972 0.0
N187 N 0.07403 0.20989 0.65985 0.0
N188 N 0.05204 0.24757 0.67317 0.0
C189 C 0.04018 0.23647 0.70245 0.0
C190 C 0.05554 0.18944 0.70742 0.0
C191 C 0.09902 0.12596 0.67179 0.0
H192 H 0.14506 0.12838 0.66177 0.0
H193 H 0.10112 0.10255 0.69183 0.0
H194 H 0.06829 0.11044 0.65458 0.0
O195 O 0.00911 0.21882 0.59635 0.0
O196 O 0.97126 0.28412 0.61641 0.0
H197 H 1.00565 0.25256 0.74707 0.0
H198 H 0.03598 0.30194 0.72596 0.0
C199 C 0.00969 0.26879 0.72432 0.0
H200 H 0.96377 0.27767 0.71573 0.0
H201 H 0.9115 0.3366 0.66892 0.0
O202 O 0.12241 0.15008 0.60439 0.0
C203 C 0.96776 0.25003 0.5976 0.0
Co204 Co 0.49755 0.16668 0.92719 0.0
Co205 Co 0.54604 0.26236 0.90167 0.0
C206 C 0.43434 0.25773 0.94016 0.0
O207 O 0.44126 0.21374 0.94163 0.0
O208 O 0.47138 0.28342 0.92535 0.0
C209 C 0.39922 0.10611 0.93574 0.0
O210 O 0.37048 0.1405 0.92205 0.0
C211 C 0.54596 0.35224 0.8676 0.0
C212 C 0.64319 0.36139 0.85706 0.0
C213 C 0.58678 0.38216 0.85316 0.0
N214 N 0.57693 0.31586 0.8796 0.0
N215 N 0.63509 0.32179 0.87328 0.0
C216 C 0.47825 0.35605 0.86811 0.0
H217 H 0.4575 0.32055 0.86921 0.0
H218 H 0.4614 0.37491 0.84779 0.0
H219 H 0.4643 0.37592 0.88855 0.0
C220 C 0.50776 0.13758 0.8644 0.0
N221 N 0.51012 0.17123 0.88564 0.0
N222 N 0.53033 0.21067 0.87379 0.0
C223 C 0.54156 0.20284 0.84402 0.0
C224 C 0.52769 0.15611 0.83724 0.0
C225 C 0.48911 0.08784 0.87055 0.0
H226 H 0.44037 0.08719 0.87677 0.0
H227 H 0.49553 0.06471 0.85063 0.0
H228 H 0.51549 0.07388 0.88996 0.0
O229 O 0.5745 0.17366 0.94961 0.0
O230 O 0.60927 0.24217 0.93258 0.0
H231 H 0.57135 0.22468 0.79959 0.0
H232 H 0.54296 0.27111 0.82389 0.0
C233 C 0.56955 0.23804 0.82317 0.0
H234 H 0.61627 0.2461 0.831 0.0
H235 H 0.66926 0.29843 0.87975 0.0
O236 O 0.45679 0.1078 0.93817 0.0
C237 C 0.61427 0.20622 0.94988 0.0
Co238 Co 0.08816 0.83199 0.43302 0.0
Co239 Co 0.0375 0.73964 0.4036 0.0
C240 C 0.14953 0.73983 0.44277 0.0
O241 O 0.14469 0.78384 0.44576 0.0
O242 O 0.11128 0.71629 0.42722 0.0
C243 C 0.18053 0.89567 0.45138 0.0
O244 O 0.21696 0.86047 0.44515 0.0
C245 C 0.03771 0.65315 0.36591 0.0
C246 C 0.94012 0.64392 0.35628 0.0
C247 C 0.99658 0.62395 0.35099 0.0
N248 N 1.00681 0.68823 0.37946 0.0
N249 N 0.94846 0.68229 0.37363 0.0
C250 C 0.10547 0.64994 0.36567 0.0
H251 H 0.12578 0.68535 0.3686 0.0
H252 H 0.12182 0.63406 0.34423 0.0
H253 H 0.12042 0.6275 0.38481 0.0
C254 C 0.07996 0.86699 0.37127 0.0
N255 N 0.07636 0.83148 0.3912 0.0
N256 N 0.0546 0.79371 0.37787 0.0
C257 C 0.04327 0.80465 0.34851 0.0
C258 C 0.05872 0.85166 0.3435 0.0
C259 C 0.10155 0.91537 0.37918 0.0
H260 H 0.07064 0.93091 0.39629 0.0
H261 H 0.1475 0.91306 0.38931 0.0
H262 H 0.10384 0.93872 0.35911 0.0
O263 O 0.01066 0.82262 0.4545 0.0
O264 O 0.97307 0.7572 0.43443 0.0
H265 H 0.96712 0.76336 0.33489 0.0
H266 H 0.00984 0.78822 0.30373 0.0
C267 C 0.01327 0.77216 0.32656 0.0
H268 H 0.03953 0.73899 0.32519 0.0
H269 H 0.91429 0.70466 0.38135 0.0
O270 O 0.12378 0.89165 0.44669 0.0
C271 C 0.96935 0.79136 0.45318 0.0
C272 C 0.32774 0.25443 0.9574 0.0
C273 C 0.38411 0.2773 0.95834 0.0
C274 C 0.28413 0.26136 0.98008 0.0
C275 C 0.29739 0.29156 1.00466 0.0
C276 C 0.35299 0.31684 1.00488 0.0
C277 C 0.39573 0.30955 0.98157 0.0
C278 C 0.22536 0.23406 0.97859 0.0
C279 C 0.36909 0.34905 0.03077 0.0
C280 C 0.16242 0.32762 0.0531 0.0
C281 C 0.16321 0.29362 0.07622 0.0
C282 C 0.20686 0.32836 0.03029 0.0
C283 C 0.25394 0.29461 0.0306 0.0
C284 C 0.25644 0.26122 0.05442 0.0
C285 C 0.21097 0.261 0.07687 0.0
C286 C 0.20182 0.36404 1.00511 0.0
C287 C 0.3063 0.22488 0.05574 0.0
H288 H 0.31908 0.22899 0.93965 0.0
H289 H 0.43989 0.3263 0.98277 0.0
H290 H 0.22435 0.20748 0.99696 0.0
H291 H 0.18606 0.25784 0.98204 0.0
H292 H 0.21965 0.2156 0.95663 0.0
H293 H 0.41088 0.36971 0.02613 0.0
H294 H 0.33127 0.37367 0.03553 0.0
H295 H 0.37651 0.32786 0.05153 0.0
H296 H 0.12589 0.35308 0.05222 0.0
H297 H 0.21233 0.23475 0.09463 0.0
H298 H 0.19227 0.34575 0.98345 0.0
H299 H 0.24537 0.38314 1.0023 0.0
H300 H 0.16516 0.39004 1.00927 0.0
H301 H 0.30362 0.20159 0.03566 0.0
H302 H 0.30357 0.20279 0.07643 0.0
H303 H 0.35132 0.24238 0.05514 0.0
C304 C 0.4141 0.66577 0.55904 0.0
C305 C 0.41682 0.70356 0.57953 0.0
C306 C 0.37016 0.66406 0.53597 0.0
C307 C 0.3274 0.70088 0.53324 0.0
C308 C 0.32839 0.73829 0.55446 0.0
C309 C 0.37307 0.73923 0.57727 0.0
C310 C 0.37108 0.62375 0.51378 0.0
C311 C 0.2834 0.7782 0.55249 0.0
C312 C 0.25737 0.73471 0.45776 0.0
C313 C 0.1981 0.71735 0.46061 0.0
C314 C 0.30094 0.72706 0.48041 0.0
C315 C 0.28449 0.70227 0.50699 0.0
C316 C 0.22569 0.68213 0.50913 0.0
C317 C 0.18317 0.68974 0.48578 0.0
C318 C 0.36326 0.7485 0.47681 0.0
C319 C 0.20606 0.65577 0.5371 0.0
H320 H 0.44743 0.63787 0.56046 0.0
H321 H 0.37447 0.76852 0.59292 0.0
H322 H 0.32537 0.60758 0.51203 0.0
H323 H 0.38323 0.63704 0.49096 0.0
H324 H 0.40421 0.59611 0.52028 0.0
H325 H 0.2871 0.80267 0.57198 0.0
H326 H 0.29116 0.79839 0.53135 0.0
H327 H 0.23639 0.76423 0.55157 0.0
H328 H 0.26852 0.7569 0.43858 0.0
H329 H 0.13684 0.6775 0.48844 0.0
H330 H 0.39895 0.72233 0.48225 0.0
H331 H 0.36846 0.7782 0.49285 0.0
H332 H 0.37107 0.76186 0.45351 0.0
H333 H 0.24088 0.6296 0.54375 0.0
H334 H 0.16202 0.63743 0.53378 0.0
H335 H 0.20114 0.68084 0.55617 0.0
C336 C 0.3178 0.78282 0.09486 0.0
C337 C 0.3751 0.7616 0.09304 0.0
C338 C 0.27399 0.77606 0.07225 0.0
C339 C 0.28804 0.74784 0.04682 0.0
C340 C 0.34464 0.72406 0.0457 0.0
C341 C 0.38755 0.73108 0.06897 0.0
C342 C 0.21414 0.80168 0.07469 0.0
C343 C 0.3616 0.69394 1.01893 0.0
C344 C 0.15421 0.71204 0.99746 0.0
C345 C 0.15383 0.74748 0.97524 0.0
C346 C 0.19868 0.71081 1.02024 0.0
C347 C 0.24452 0.7456 1.02088 0.0
C348 C 0.24579 0.78056 0.99798 0.0
C349 C 0.20042 0.78116 0.97549 0.0
C350 C 0.19504 0.67336 0.0444 0.0
C351 C 0.29422 0.81815 0.99772 0.0
H352 H 0.30853 0.80702 0.11324 0.0
H353 H 0.43242 0.7157 0.0671 0.0
H354 H 0.21195 0.82965 0.05723 0.0
H355 H 0.17579 0.77724 0.07051 0.0
H356 H 0.20786 0.81821 0.09725 0.0
H357 H 0.40411 0.67389 1.02294 0.0
H358 H 0.32458 0.66886 1.01355 0.0
H359 H 0.36814 0.71663 0.99876 0.0
H360 H 0.11865 0.68571 0.99761 0.0
H361 H 0.20085 0.80855 0.95846 0.0
H362 H 0.185 0.68993 0.06657 0.0
H363 H 0.23925 0.65504 0.04662 0.0
H364 H 0.15926 0.64688 0.03954 0.0
H365 H 0.29066 0.83994 1.01846 0.0
H366 H 0.2906 0.84158 0.97769 0.0
H367 H 0.3399 0.80172 0.99783 0.0
C368 C 0.41283 0.37571 0.49252 0.0
C369 C 0.41537 0.33787 0.47207 0.0
C370 C 0.36897 0.3775 0.51563 0.0
C371 C 0.32612 0.34072 0.51844 0.0
C372 C 0.327 0.30322 0.49729 0.0
C373 C 0.37158 0.3022 0.47443 0.0
C374 C 0.37003 0.4179 0.53776 0.0
C375 C 0.28193 0.26333 0.49935 0.0
C376 C 0.25569 0.3072 0.5939 0.0
C377 C 0.19644 0.32451 0.59094 0.0
C378 C 0.29941 0.3148 0.5713 0.0
C379 C 0.28314 0.3395 0.54467 0.0
C380 C 0.22438 0.35964 0.54243 0.0
C381 C 0.18171 0.35207 0.56573 0.0
C382 C 0.36167 0.29337 0.57501 0.0
C383 C 0.20495 0.38591 0.5144 0.0
H384 H 0.44621 0.4036 0.49102 0.0
H385 H 0.37285 0.27287 0.45881 0.0
H386 H 0.32439 0.43415 0.53946 0.0
H387 H 0.38206 0.40467 0.56061 0.0
H388 H 0.40331 0.44545 0.53124 0.0
H389 H 0.28562 0.23873 0.47993 0.0
H390 H 0.28961 0.24328 0.52054 0.0
H391 H 0.23494 0.27732 0.5002 0.0
H392 H 0.26669 0.28505 0.61312 0.0
H393 H 0.1354 0.36427 0.56298 0.0
H394 H 0.39744 0.31946 0.56951 0.0
H395 H 0.36683 0.26353 0.55907 0.0
H396 H 0.36938 0.28018 0.59836 0.0
H397 H 0.23986 0.41205 0.50775 0.0
H398 H 0.16094 0.40429 0.51765 0.0
H399 H 0.20005 0.36079 0.49536 0.0
C400 C 0.69968 0.80305 0.07648 0.0
C401 C 0.65486 0.83799 0.07829 0.0
C402 C 0.74427 0.80407 0.05364 0.0
C403 C 0.74407 0.84077 0.03189 0.0
C404 C 0.70017 0.87686 0.03413 0.0
C405 C 0.65636 0.87513 0.05727 0.0
C406 C 0.79049 0.76495 0.0522 0.0
C407 C 0.69793 0.91638 1.01135 0.0
C408 C 0.88783 0.85255 0.98411 0.0
C409 C 0.87358 0.82374 0.95941 0.0
C410 C 0.84514 0.8604 1.00735 0.0
C411 C 0.78689 0.83922 1.0056 0.0
C412 C 0.77103 0.8132 0.97944 0.0
C413 C 0.81473 0.80541 0.95688 0.0
C414 C 0.8641 0.88814 0.03486 0.0
C415 C 0.70931 0.7906 0.97625 0.0
H416 H 0.69924 0.77429 0.09256 0.0
H417 H 0.62217 0.90244 0.05832 0.0
H418 H 0.78327 0.74389 0.03138 0.0
H419 H 0.83705 0.77975 0.05102 0.0
H420 H 0.78762 0.7411 0.07206 0.0
H421 H 0.66401 0.94363 1.01751 0.0
H422 H 0.74313 0.93329 1.00929 0.0
H423 H 0.68604 0.90209 0.98875 0.0
H424 H 0.93383 0.86562 0.98653 0.0
H425 H 0.80409 0.78238 0.93805 0.0
H426 H 0.86993 0.86389 0.05431 0.0
H427 H 0.82851 0.9139 0.04116 0.0
H428 H 0.90753 0.90718 0.03117 0.0
H429 H 0.70501 0.76139 0.99274 0.0
H430 H 0.70177 0.77629 0.95316 0.0
H431 H 0.67291 0.81634 0.98134 0.0
C432 C 0.86954 0.28047 0.57557 0.0
C433 C 0.91689 0.24748 0.57534 0.0
C434 C 0.82415 0.28 0.55309 0.0
C435 C 0.82623 0.24592 0.52968 0.0
C436 C 0.87288 0.2118 0.52981 0.0
C437 C 0.91731 0.21285 0.55262 0.0
C438 C 0.77481 0.31681 0.55392 0.0
C439 C 0.87743 0.17534 0.50509 0.0
C440 C 0.68384 0.23107 0.48111 0.0
C441 C 0.69575 0.26264 0.45753 0.0
C442 C 0.72673 0.22386 0.50437 0.0
C443 C 0.78276 0.24854 0.50373 0.0
C444 C 0.7963 0.27793 0.47877 0.0
C445 C 0.75254 0.28481 0.45616 0.0
C446 C 0.71033 0.19248 0.53065 0.0
C447 C 0.85553 0.30457 0.47684 0.0
H448 H 0.86847 0.30723 0.59301 0.0
H449 H 0.9535 0.18709 0.55207 0.0
H450 H 0.77773 0.33937 0.5335 0.0
H451 H 0.72955 0.29967 0.55362 0.0
H452 H 0.77794 0.33958 0.57428 0.0
H453 H 0.91375 0.14919 0.50958 0.0
H454 H 0.83363 0.15651 0.50252 0.0
H455 H 0.88721 0.1929 0.4832 0.0
H456 H 0.63937 0.21489 0.48264 0.0
H457 H 0.76142 0.30976 0.43813 0.0
H458 H 0.70319 0.2143 0.55115 0.0
H459 H 0.74788 0.16773 0.53568 0.0
H460 H 0.66829 0.17199 0.52627 0.0
H461 H 0.85703 0.33177 0.49481 0.0
H462 H 0.86146 0.3222 0.4546 0.0
H463 H 0.89444 0.28053 0.48061 0.0
C464 C 0.89787 0.18959 0.06643 0.0
C465 C 0.8832 0.21775 0.09137 0.0
C466 C 0.85536 0.18186 0.04309 0.0
C467 C 0.79682 0.20246 0.04501 0.0
C468 C 0.78058 0.22785 0.07136 0.0
C469 C 0.82415 0.23558 0.09401 0.0
C470 C 0.87475 0.15488 1.01535 0.0
C471 C 0.71853 0.24978 0.07473 0.0
C472 C 0.70891 0.2387 0.97437 0.0
C473 C 0.66481 0.20322 0.97232 0.0
C474 C 0.75349 0.2379 0.99722 0.0
C475 C 0.75398 0.20087 1.01873 0.0
C476 C 0.71081 0.16425 1.01625 0.0
C477 C 0.66703 0.16578 0.9931 0.0
C478 C 0.79895 0.27756 0.99892 0.0
C479 C 0.7093 0.12437 0.03878 0.0
H480 H 0.94404 0.17696 0.06393 0.0
H481 H 0.8132 0.25817 0.11301 0.0
H482 H 0.83965 0.12878 1.00889 0.0
H483 H 0.88 0.17955 0.99608 0.0
H484 H 0.91857 0.13633 1.01885 0.0
H485 H 0.71079 0.26359 0.09792 0.0
H486 H 0.7138 0.27925 0.05846 0.0
H487 H 0.68252 0.22378 0.06944 0.0
H488 H 0.70791 0.26771 0.95848 0.0
H489 H 0.63339 0.13805 0.99186 0.0
H490 H 0.84579 0.26332 1.00003 0.0
H491 H 0.7913 0.29822 1.01986 0.0
H492 H 0.79566 0.30166 0.97921 0.0
H493 H 0.7548 0.10794 0.04071 0.0
H494 H 0.67585 0.09683 0.03247 0.0
H495 H 0.69723 0.13818 0.06147 0.0
C496 C 0.68502 0.80995 0.56944 0.0
C497 C 0.69733 0.77886 0.59323 0.0
C498 C 0.72778 0.8171 0.54611 0.0
C499 C 0.78408 0.79287 0.5469 0.0
C500 C 0.798 0.76398 0.57205 0.0
C501 C 0.75434 0.75712 0.59472 0.0
C502 C 0.71096 0.84791 0.51963 0.0
C503 C 0.85754 0.73785 0.57413 0.0
C504 C 0.87132 0.76055 0.47529 0.0
C505 C 0.9183 0.7939 0.47534 0.0
C506 C 0.82588 0.761 0.49774 0.0
C507 C 0.82751 0.79545 0.52093 0.0
C508 C 0.87373 0.82996 0.5206 0.0
C509 C 0.91822 0.8289 0.49782 0.0
C510 C 0.77699 0.72378 0.49713 0.0
C511 C 0.87778 0.86684 0.54507 0.0
H512 H 0.64036 0.82576 0.56783 0.0
H513 H 0.7635 0.73251 0.6129 0.0
H514 H 0.74821 0.87287 0.51441 0.0
H515 H 0.70405 0.8257 0.49928 0.0
H516 H 0.66869 0.86814 0.52388 0.0
H517 H 0.86371 0.72064 0.59649 0.0
H518 H 0.85933 0.71037 0.55635 0.0
H519 H 0.89616 0.76214 0.57019 0.0
H520 H 0.87063 0.7335 0.45803 0.0
H521 H 0.95409 0.85498 0.49822 0.0
H522 H 0.73152 0.74055 0.49733 0.0
H523 H 0.78019 0.70155 0.5177 0.0
H524 H 0.78041 0.70074 0.47692 0.0
H525 H 0.83374 0.88534 0.54751 0.0
H526 H 0.91377 0.89324 0.54042 0.0
H527 H 0.88777 0.84972 0.56708 0.0
C528 C 0.07381 0.42069 0.23216 0.0
C529 C 0.03428 0.38233 0.23496 0.0
C530 C 0.07371 0.45731 0.25347 0.0
C531 C 0.0332 0.45548 0.27835 0.0
C532 C 0.99654 0.41493 0.2825 0.0
C533 C 0.99734 0.37884 0.26064 0.0
C534 C 0.11351 0.49967 0.24797 0.0
C535 C 0.9533 0.41114 0.30886 0.0
C536 C 0.05135 0.54757 0.34083 0.0
C537 C 1.00769 0.58106 0.33246 0.0
C538 C 0.0598 0.50621 0.32377 0.0
C539 C 0.02396 0.49821 0.29761 0.0
C540 C 0.97977 0.53195 0.28917 0.0
C541 C 0.97187 0.57259 0.3068 0.0
C542 C 0.10673 0.4709 0.33382 0.0
C543 C 0.94098 0.52533 0.26129 0.0
H544 H 0.10207 0.42348 0.21213 0.0
H545 H 0.96635 0.34939 0.26265 0.0
H546 H 0.08476 0.52993 0.24124 0.0
H547 H 0.13786 0.50974 0.26895 0.0
H548 H 0.14741 0.49333 0.2298 0.0
H549 H 0.93498 0.37498 0.31144 0.0
H550 H 0.97614 0.42149 0.33022 0.0
H551 H 0.91465 0.43553 0.30537 0.0
H552 H 0.07798 0.55307 0.36112 0.0
H553 H 0.93789 0.59819 0.30024 0.0
H554 H 0.14091 0.4657 0.31569 0.0
H555 H 0.08477 0.43639 0.33793 0.0
H556 H 0.13055 0.48202 0.35479 0.0
H557 H 0.97033 0.52219 0.24098 0.0
H558 H 0.90884 0.55489 0.25775 0.0
H559 H 0.91453 0.49228 0.26318 0.0
C560 C 0.58507 0.6292 0.7658 0.0
C561 C 0.54385 0.62762 0.74173 0.0
C562 C 0.58646 0.59309 0.78763 0.0
C563 C 0.54631 0.55429 0.78491 0.0
C564 C 0.50145 0.55473 0.76192 0.0
C565 C 0.50061 0.59153 0.74073 0.0
C566 C 0.63416 0.59465 0.8121 0.0
C567 C 0.45802 0.51417 0.75787 0.0
C568 C 0.6067 0.43458 0.80893 0.0
C569 C 0.57495 0.42608 0.83587 0.0
C570 C 0.59754 0.476 0.79223 0.0
C571 C 0.5566 0.51057 0.80306 0.0
C572 C 0.52508 0.50255 0.83055 0.0
C573 C 0.53432 0.46025 0.84653 0.0
C574 C 0.63137 0.48255 0.76279 0.0
C575 C 0.48208 0.53881 0.8432 0.0
H576 H 0.61896 0.65684 0.76635 0.0
H577 H 0.46923 0.5901 0.72183 0.0
H578 H 0.61461 0.58399 0.83421 0.0
H579 H 0.67098 0.56949 0.80657 0.0
H580 H 0.65445 0.63021 0.8144 0.0
H581 H 0.42101 0.52263 0.74168 0.0
H582 H 0.48325 0.48326 0.74915 0.0
H583 H 0.4375 0.50393 0.77982 0.0
H584 H 0.63823 0.40834 0.80062 0.0
H585 H 0.51079 0.45441 0.86773 0.0
H586 H 0.66005 0.51455 0.76394 0.0
H587 H 0.59863 0.4876 0.74397 0.0
H588 H 0.6609 0.45209 0.7573 0.0
H589 H 0.50654 0.57245 0.84677 0.0
H590 H 0.46161 0.52757 0.86501 0.0
H591 H 0.44505 0.5458 0.82679 0.0
C592 C 0.04786 0.49332 0.71096 0.0
C593 C 1.00358 0.45994 0.71878 0.0
C594 C 0.05577 0.53463 0.72815 0.0
C595 C 0.01872 0.54272 0.75386 0.0
C596 C 0.97389 0.50911 0.76175 0.0
C597 C 0.9666 0.46851 0.74402 0.0
C598 C 0.10346 0.56977 0.7187 0.0
C599 C 0.93376 0.51585 0.78914 0.0
C600 C 0.066 0.62 0.81993 0.0
C601 C 0.02703 0.65858 0.81664 0.0
C602 C 0.06658 0.58336 0.79863 0.0
C603 C 0.02733 0.58539 0.77326 0.0
C604 C 0.99127 0.62612 0.76867 0.0
C605 C 0.99138 0.66223 0.79052 0.0
C606 C 0.10571 0.54083 0.80461 0.0
C607 C 0.94936 0.6301 0.74179 0.0
H608 H 0.0754 0.48778 0.69098 0.0
H609 H 0.93213 0.44301 0.75016 0.0
H610 H 0.08197 0.60436 0.71432 0.0
H611 H 0.13675 0.57484 0.73726 0.0
H612 H 0.12826 0.55858 0.69803 0.0
H613 H 0.90119 0.48643 0.79225 0.0
H614 H 0.9621 0.51883 0.80981 0.0
H615 H 0.9077 0.54902 0.78695 0.0
H616 H 0.0933 0.6171 0.84027 0.0
H617 H 0.96082 0.69185 0.78813 0.0
H618 H 0.13106 0.5307 0.78393 0.0
H619 H 0.07636 0.51067 0.81093 0.0
H620 H 0.1387 0.54698 0.82321 0.0
H621 H 0.97317 0.61971 0.72071 0.0
H622 H 0.93144 0.66633 0.73903 0.0
H623 H 0.91038 0.60583 0.7448 0.0
C624 C 0.5809 0.41222 0.28528 0.0
C625 C 0.53989 0.41346 0.30944 0.0
C626 C 0.58175 0.44838 0.26349 0.0
C627 C 0.54126 0.48692 0.26634 0.0
C628 C 0.49663 0.48614 0.28944 0.0
C629 C 0.49634 0.44928 0.3106 0.0
C630 C 0.62924 0.4472 0.2389 0.0
C631 C 0.45286 0.5264 0.29363 0.0
C632 C 0.60028 0.60706 0.24224 0.0
C633 C 0.56823 0.61538 0.21538 0.0
C634 C 0.59166 0.56556 0.25894 0.0
C635 C 0.55096 0.53074 0.24819 0.0
C636 C 0.51913 0.53858 0.22077 0.0
C637 C 0.52784 0.58095 0.20478 0.0
C638 C 0.62583 0.55921 0.28831 0.0
C639 C 0.47636 0.50204 0.20821 0.0
H640 H 0.61504 0.3848 0.28461 0.0
H641 H 0.46515 0.45047 0.32958 0.0
H642 H 0.60938 0.45775 0.21685 0.0
H643 H 0.66585 0.47261 0.24436 0.0
H644 H 0.64986 0.41178 0.23652 0.0
H645 H 0.41609 0.51767 0.3099 0.0
H646 H 0.47789 0.55746 0.30231 0.0
H647 H 0.43204 0.53654 0.27173 0.0
H648 H 0.63164 0.6335 0.25049 0.0
H649 H 0.50408 0.58664 0.18363 0.0
H650 H 0.65478 0.52739 0.28707 0.0
H651 H 0.5933 0.55393 0.30719 0.0
H652 H 0.65513 0.58985 0.29373 0.0
H653 H 0.50111 0.46858 0.20455 0.0
H654 H 0.45556 0.51318 0.18646 0.0
H655 H 0.43956 0.49478 0.2247 0.0
C656 C 0.49068 0.91228 0.26518 0.0
C657 C 0.53084 0.91397 0.24066 0.0
C658 C 0.49001 0.94841 0.28698 0.0
C659 C 0.52983 0.98735 0.2838 0.0
C660 C 0.57366 0.98706 0.26032 0.0
C661 C 0.57377 0.95024 0.23915 0.0
C662 C 0.4434 0.94672 0.31197 0.0
C663 C 0.61669 0.02775 0.25579 0.0
C664 C 0.47005 0.10689 0.30849 0.0
C665 C 0.50288 0.11542 0.33509 0.0
C666 C 0.47864 0.06551 0.29169 0.0
C667 C 0.52015 0.03102 0.30207 0.0
C668 C 0.55281 0.03907 0.32922 0.0
C669 C 0.54407 0.08131 0.34532 0.0
C670 C 0.44354 0.05892 0.26262 0.0
C671 C 0.59651 1.00289 0.34138 0.0
H672 H 0.45702 0.8845 0.26613 0.0
H673 H 0.60433 0.95175 0.21992 0.0
H674 H 0.46387 0.95738 0.33385 0.0
H675 H 0.40626 0.97182 0.30684 0.0
H676 H 0.42334 0.91111 0.31448 0.0
H677 H 0.65299 1.01942 0.23917 0.0
H678 H 0.59092 0.05859 0.24737 0.0
H679 H 0.63816 0.038 0.2775 0.0
H680 H 0.43808 0.13307 0.30052 0.0
H681 H 0.56844 0.08713 0.36628 0.0
H682 H 0.41507 0.02684 0.26408 0.0
H683 H 0.47547 0.05398 0.24345 0.0
H684 H 0.41364 0.08931 0.25747 0.0
H685 H 0.57235 0.9692 0.34524 0.0
H686 H 0.61794 1.01417 0.36295 0.0
H687 H 0.63281 0.99599 0.32456 0.0
C688 C 0.02268 0.99327 0.8396 0.0
C689 C 0.06689 0.9599 0.83177 0.0
C690 C 0.01482 0.03459 0.8224 0.0
C691 C 0.05187 0.0427 0.79668 0.0
C692 C 0.09662 1.00909 0.78878 0.0
C693 C 0.10386 0.96847 0.80652 0.0
C694 C 0.96721 0.06974 0.83186 0.0
C695 C 0.13673 1.01584 0.76139 0.0
C696 C 1.00473 0.12013 0.73064 0.0
C697 C 0.0438 0.15868 0.73394 0.0
C698 C 1.00408 0.08345 0.75193 0.0
C699 C 0.04336 0.08541 0.77729 0.0
C700 C 0.07952 0.12611 0.78189 0.0
C701 C 0.07948 0.16226 0.76004 0.0
C702 C 0.96485 0.04095 0.74594 0.0
C703 C 0.12146 0.13002 0.80876 0.0
H704 H 0.99514 0.98772 0.85958 0.0
H705 H 0.13828 0.94298 0.80038 0.0
H706 H 0.98878 0.10431 0.83624 0.0
H707 H 0.93394 0.07486 0.8133 0.0
H708 H 0.94239 0.05853 0.85252 0.0
H709 H 0.16921 0.98639 0.75825 0.0
H710 H 0.10838 1.01887 0.74072 0.0
H711 H 0.16289 0.04898 0.76357 0.0
H712 H 0.97742 0.11728 0.7103 0.0
H713 H 0.11011 0.19185 0.76245 0.0
H714 H 0.93948 0.0308 0.76662 0.0
H715 H 0.99412 1.01079 0.7396 0.0
H716 H 0.93186 0.04715 0.72735 0.0
H717 H 0.09762 0.11962 0.82984 0.0
H718 H 0.1395 0.16622 0.81153 0.0
H719 H 0.16036 0.10571 0.80574 0.0
C720 C 0.5467 0.96078 0.70477 0.0
C721 C 0.50714 0.92621 0.71596 0.0
C722 C 0.55596 1.00322 0.72058 0.0
C723 C 0.52561 1.01097 0.74842 0.0
C724 C 0.48581 0.97598 0.75978 0.0
C725 C 0.47655 0.93442 0.74325 0.0
C726 C 0.59769 0.03995 0.70737 0.0
C727 C 0.45329 0.98221 0.78962 0.0
C728 C 0.58272 0.09292 0.80996 0.0
C729 C 0.53861 0.12836 0.8094 0.0
C730 C 0.58176 0.05605 0.78882 0.0
C731 C 0.53587 0.05491 0.76635 0.0
C732 C 0.49477 0.09315 0.76402 0.0
C733 C 0.49631 0.1293 0.78579 0.0
C734 C 0.62621 1.01611 0.79245 0.0
C735 C 0.44596 0.09396 0.74008 0.0
H736 H 0.56934 0.95512 0.68332 0.0
H737 H 0.44585 0.90786 0.75195 0.0
H738 H 0.57242 0.07325 0.70397 0.0
H739 H 0.63529 0.0475 0.72334 0.0
H740 H 0.61741 0.02883 0.68537 0.0
H741 H 0.42462 0.95142 0.79551 0.0
H742 H 0.48684 0.98774 0.80802 0.0
H743 H 0.42396 1.01385 0.78875 0.0
H744 H 0.6149 0.09195 0.82853 0.0
H745 H 0.46175 0.15641 0.7856 0.0
H746 H 0.64582 1.00596 0.77029 0.0
H747 H 0.60207 0.98495 0.8016 0.0
H748 H 0.66385 0.02519 0.80814 0.0
H749 H 0.46472 0.08346 0.71778 0.0
H750 H 0.42487 0.12925 0.73793 0.0
H751 H 0.40991 0.06836 0.74608 0.0
C752 C 0.0299 0.0478 0.21115 0.0
C753 C 0.07385 0.08119 0.21938 0.0
C754 C 0.02148 1.00642 0.22823 0.0
C755 C 0.05765 0.99829 0.25425 0.0
C756 C 0.10213 0.03192 0.26256 0.0
C757 C 0.10997 0.07258 0.24492 0.0
C758 C 0.97422 0.97124 0.21833 0.0
C759 C 0.14129 0.02514 0.29028 0.0
C760 C 0.00833 0.92071 0.31983 0.0
C761 C 0.0476 0.88225 0.31686 0.0
C762 C 0.00833 0.95739 0.29855 0.0
C763 C 0.04847 0.95553 0.27352 0.0
C764 C 0.08485 0.9149 0.26921 0.0
C765 C 0.08415 0.87875 0.29105 0.0
C766 C 0.96884 0.99982 0.30422 0.0
C767 C 0.12769 0.91108 0.2427 0.0
H768 H 1.00303 0.05339 0.19095 0.0
H769 H 0.14417 0.0981 0.25137 0.0
H770 H 0.99594 0.9367 0.2141 0.0
H771 H 0.94029 0.96605 0.23659 0.0
H772 H 0.95012 0.98247 0.19746 0.0
H773 H 0.17364 0.05462 0.29373 0.0
H774 H 0.11223 0.02202 0.3107 0.0
H775 H 0.16754 0.99204 0.28829 0.0
H776 H 0.98036 0.92351 0.33995 0.0
H777 H 0.11495 0.84923 0.28891 0.0
H778 H 0.94423 1.01 0.28333 0.0
H779 H 0.99786 0.03 0.31086 0.0
H780 H 0.93518 0.99352 0.32251 0.0
H781 H 0.10459 0.92153 0.22142 0.0
H782 H 0.14579 0.8749 0.24004 0.0
H783 H 0.16651 0.9354 0.24607 0.0
C784 C 0.82519 0.61128 0.99094 0.0
C785 C 0.87109 0.60519 0.96932 0.0
C786 C 0.81468 0.57693 1.01308 0.0
C787 C 0.85039 0.53566 1.01304 0.0
C788 C 0.89221 0.5274 0.98928 0.0
C789 C 0.90251 0.5626 0.96782 0.0
C790 C 0.76965 0.58691 0.038 0.0
C791 C 0.9301 0.48322 0.98802 0.0
C792 C 0.91025 0.47819 0.08348 0.0
C793 C 0.87828 0.43575 0.0833 0.0
C794 C 0.89739 0.51316 0.06222 0.0
C795 C 0.85231 0.50485 0.03999 0.0
C796 C 0.81643 0.46368 0.04132 0.0
C797 C 0.82962 0.42956 0.06324 0.0
C798 C 0.9357 0.55722 0.06199 0.0
C799 C 0.768 0.45363 1.01805 0.0
H800 H 0.80083 0.64433 0.99208 0.0
H801 H 0.9374 0.55778 0.95078 0.0
H802 H 0.74398 0.55479 0.04421 0.0
H803 H 0.79446 0.59888 0.05845 0.0
H804 H 0.73698 0.61484 0.03141 0.0
H805 H 0.95398 0.47939 0.96601 0.0
H806 H 0.96467 0.48413 1.00629 0.0
H807 H 0.90135 0.45173 0.99174 0.0
H808 H 0.94731 0.48312 0.09933 0.0
H809 H 0.80485 0.39662 0.06311 0.0
H810 H 0.90668 0.58879 0.05932 0.0
H811 H 0.9674 0.55614 0.04248 0.0
H812 H 0.96286 0.56103 0.08304 0.0
H813 H 0.74186 0.4858 1.01252 0.0
H814 H 0.73602 0.42597 0.02589 0.0
H815 H 0.78985 0.44123 0.99688 0.0
C816 C 0.68829 0.53168 0.58674 0.0
C817 C 0.71513 0.57466 0.59406 0.0
C818 C 0.70545 0.50761 0.56056 0.0
C819 C 0.74971 0.52777 0.54118 0.0
C820 C 0.78265 0.56778 0.55067 0.0
C821 C 0.76501 0.59086 0.57729 0.0
C822 C 0.67045 0.46402 0.55176 0.0
C823 C 0.83138 0.58941 0.53112 0.0
C824 C 0.76398 0.45055 0.4728 0.0
C825 C 0.71385 0.46676 0.45623 0.0
C826 C 0.78213 0.47365 0.49933 0.0
C827 C 0.74943 0.51368 0.50895 0.0
C828 C 0.70489 0.53384 0.48976 0.0
C829 C 0.68724 0.50976 0.46365 0.0
C830 C 0.8311 0.45194 0.51867 0.0
C831 C 0.6701 0.57743 0.4987 0.0
H832 H 0.65041 0.51891 0.60012 0.0
H833 H 0.78616 0.62408 0.58309 0.0
H834 H 0.63848 0.47263 0.53314 0.0
H835 H 0.70162 0.43631 0.54346 0.0
H836 H 0.64381 0.44963 0.571 0.0
H837 H 0.86262 0.6117 0.54467 0.0
H838 H 0.85812 0.562 0.51927 0.0
H839 H 0.80993 0.61194 0.51365 0.0
H840 H 0.78495 0.41731 0.46693 0.0
H841 H 0.64916 0.52253 0.45043 0.0
H842 H 0.80992 0.42853 0.53575 0.0
H843 H 0.85736 0.47919 0.53096 0.0
H844 H 0.86277 0.43046 0.50484 0.0
H845 H 0.63834 0.56879 0.51741 0.0
H846 H 0.64325 0.59187 0.47956 0.0
H847 H 0.70142 0.60512 0.50693 0.0
C848 C 0.39236 0.03126 0.96378 0.0
C849 C 0.36579 0.07394 0.95562 0.0
C850 C 0.37319 1.00742 0.98972 0.0
C851 C 0.327 0.02747 1.00798 0.0
C852 C 0.29459 0.06715 0.99755 0.0
C853 C 0.31437 0.09003 0.97123 0.0
C854 C 0.40789 0.96422 0.99953 0.0
C855 C 0.24396 0.08882 1.01581 0.0
C856 C 0.30795 0.94986 0.0758 0.0
C857 C 0.35666 0.96629 0.09331 0.0
C858 C 0.29146 0.97313 0.04906 0.0
C859 C 0.32436 1.01352 0.04021 0.0
C860 C 0.36696 0.03396 0.06036 0.0
C861 C 0.38307 1.00969 0.08664 0.0
C862 C 0.24423 0.95138 0.02868 0.0
C863 C 0.40155 0.07809 0.0523 0.0
H864 H 0.43147 1.01856 0.9513 0.0
H865 H 0.2934 0.12303 0.96478 0.0
H866 H 0.43796 0.97328 1.01883 0.0
H867 H 0.37636 0.93629 1.00721 0.0
H868 H 0.43652 0.94988 0.981 0.0
H869 H 0.21151 0.1078 1.00094 0.0
H870 H 0.21889 0.06199 0.02907 0.0
H871 H 0.26337 0.11468 0.03191 0.0
H872 H 0.28708 0.91634 0.08113 0.0
H873 H 0.41998 0.02263 0.1006 0.0
H874 H 0.26707 0.93078 1.01068 0.0
H875 H 0.21649 0.97886 1.01747 0.0
H876 H 0.21374 0.92732 0.0414 0.0
H877 H 0.43488 0.07011 0.03417 0.0
H878 H 0.4266 0.0926 0.07202 0.0
H879 H 0.3703 0.10547 0.04361 0.0
C880 C 0.17096 0.97843 0.46787 0.0
C881 C 0.20273 0.93596 0.4689 0.0
C882 C 0.18251 1.01374 0.48908 0.0
C883 C 0.22603 1.00573 0.51211 0.0
C884 C 0.26196 0.96457 0.51161 0.0
C885 C 0.25011 0.9301 0.48974 0.0
C886 C 0.14425 0.05777 0.48841 0.0
C887 C 0.30882 0.95487 0.53573 0.0
C888 C 0.24913 0.11242 0.56143 0.0
C889 C 0.20178 0.1062 0.58225 0.0
C890 C 0.26134 0.07807 0.53953 0.0
C891 C 0.22583 0.03667 0.539 0.0
C892 C 0.18233 0.02834 0.562 0.0
C893 C 0.17041 0.06353 0.58323 0.0
C894 C 0.30813 0.08814 0.51543 0.0
C895 C 0.14452 0.98404 0.56264 0.0
H896 H 0.13492 0.9831 0.45141 0.0
H897 H 0.27475 0.89715 0.4905 0.0
H898 H 0.11109 0.05684 0.50732 0.0
H899 H 0.17306 0.08938 0.49149 0.0
H900 H 0.1187 0.06136 0.46685 0.0
H901 H 0.34133 0.92718 0.52856 0.0
H902 H 0.33454 0.98716 0.54152 0.0
H903 H 0.28559 0.94268 0.55659 0.0
H904 H 0.27345 0.14554 0.56069 0.0
H905 H 0.13439 0.0586 0.59968 0.0
H906 H 0.2848 0.10021 0.49457 0.0
H907 H 0.33418 0.05604 0.50962 0.0
H908 H 0.34035 0.11604 0.52262 0.0
H909 H 0.11143 0.98474 0.5437 0.0
H910 H 0.11894 0.98026 0.58418 0.0
H911 H 0.17367 0.95263 0.55958 0.0
loop_
_geom_bond_atom_site_label_1
_geom_bond_atom_site_label_2
_geom_bond_distance
_geom_bond_site_symmetry_2
_ccdc_geom_bond_type
Co0 O3 1.970 1_455 S
Co0 N17 1.989 . S
Co0 O25 1.967 . S
Co0 O32 1.920 . S
Co1 O4 1.966 1_455 S
Co1 N10 2.022 . S
Co1 N18 1.993 . S
Co1 O26 1.941 . S
C2 O3 1.258 . S
C2 O4 1.263 . S
O3 Co0 1.970 1_655 S
O3 C2 1.258 . S
O4 Co1 1.966 1_655 S
O4 C2 1.263 . S
C5 O6 1.235 . S
C5 O32 1.289 1_655 S
O6 C5 1.235 . S
C7 C9 1.400 1_655 S
C7 N10 1.351 1_655 S
C7 C12 1.501 . S
C8 C9 1.387 . S
C8 N11 1.341 . S
C9 C7 1.400 1_455 S
C9 C8 1.387 . S
N10 Co1 2.022 . S
N10 C7 1.351 1_455 S
N10 N11 1.365 . S
N11 C8 1.341 . S
N11 N10 1.365 . S
N11 H31 0.862 . S
C12 C7 1.501 . S
C12 H13 0.961 . S
C12 H14 0.961 . S
C12 H15 0.960 . S
H13 C12 0.961 . S
H14 C12 0.961 . S
H15 C12 0.960 . S
C16 N17 1.342 . S
C16 C20 1.401 . S
C16 C21 1.499 . S
N17 Co0 1.989 . S
N17 C16 1.342 . S
N17 N18 1.388 . S
N18 Co1 1.993 . S
N18 N17 1.388 . S
N18 C19 1.346 . S
C19 N18 1.346 . S
C19 C20 1.396 . S
C19 C29 1.510 . S
C20 C16 1.401 . S
C20 C19 1.396 . S
C21 C16 1.499 . S
C21 H22 0.959 . S
C21 H23 0.960 . S
C21 H24 0.961 . S
H22 C21 0.959 . S
H23 C21 0.960 . S
H24 C21 0.961 . S
O25 Co0 1.967 . S
O25 C33 1.258 . S
O26 Co1 1.941 . S
O26 C33 1.266 . S
H27 C29 0.959 . S
H28 C29 0.964 . S
C29 C19 1.510 . S
C29 H27 0.959 . S
C29 H28 0.964 . S
C29 H30 0.960 . S
H30 C29 0.960 . S
H31 N11 0.862 . S
O32 Co0 1.920 . S
O32 C5 1.289 1_455 S
C33 O25 1.258 . S
C33 O26 1.266 . S
Co34 O37 1.970 . S
Co34 N51 1.989 . S
Co34 O59 1.967 . S
Co34 O66 1.920 . S
Co35 O38 1.966 . S
Co35 N44 2.022 . S
Co35 N52 1.993 . S
Co35 O60 1.941 . S
C36 O37 1.258 . S
C36 O38 1.263 . S
O37 Co34 1.970 . S
O37 C36 1.258 . S
O38 Co35 1.966 . S
O38 C36 1.263 . S
C39 O40 1.235 . S
C39 O66 1.289 . S
O40 C39 1.235 . S
C41 C43 1.400 . S
C41 N44 1.351 . S
C41 C46 1.501 . S
C42 C43 1.387 . S
C42 N45 1.341 . S
C43 C41 1.400 . S
C43 C42 1.387 . S
N44 Co35 2.022 . S
N44 C41 1.351 . S
N44 N45 1.365 . S
N45 C42 1.341 . S
N45 N44 1.365 . S
N45 H65 0.862 . S
C46 C41 1.501 . S
C46 H47 0.961 . S
C46 H48 0.961 . S
C46 H49 0.960 . S
H47 C46 0.961 . S
H48 C46 0.961 . S
H49 C46 0.960 . S
C50 N51 1.342 . S
C50 C54 1.401 . S
C50 C55 1.499 . S
N51 Co34 1.989 . S
N51 C50 1.342 . S
N51 N52 1.388 . S
N52 Co35 1.993 . S
N52 N51 1.388 . S
N52 C53 1.346 . S
C53 N52 1.346 . S
C53 C54 1.396 . S
C53 C63 1.510 . S
C54 C50 1.401 . S
C54 C53 1.396 . S
C55 C50 1.499 . S
C55 H56 0.959 . S
C55 H57 0.960 . S
C55 H58 0.961 . S
H56 C55 0.959 . S
H57 C55 0.960 . S
H58 C55 0.961 . S
O59 Co34 1.967 . S
O59 C67 1.258 . S
O60 Co35 1.941 . S
O60 C67 1.266 . S
H61 C63 0.959 . S
H62 C63 0.961 . S
C63 C53 1.510 . S
C63 H61 0.959 . S
C63 H62 0.961 . S
C63 H64 0.960 . S
H64 C63 0.960 . S
H65 N45 0.862 . S
O66 Co34 1.920 . S
O66 C39 1.289 . S
C67 O59 1.258 . S
C67 O60 1.266 . S
Co68 O71 1.970 1_455 S
Co68 N85 1.989 . S
Co68 O93 1.967 . S
Co68 O100 1.920 . S
Co69 O72 1.966 1_455 S
Co69 N78 2.022 . S
Co69 N86 1.993 . S
Co69 O94 1.941 . S
C70 O71 1.258 . S
C70 O72 1.263 . S
O71 Co68 1.970 1_655 S
O71 C70 1.258 . S
O72 Co69 1.966 1_655 S
O72 C70 1.263 . S
C73 O74 1.235 . S
C73 O100 1.289 1_655 S
O74 C73 1.235 . S
C75 C77 1.400 1_655 S
C75 N78 1.351 1_655 S
C75 C80 1.501 . S
C76 C77 1.387 . S
C76 N79 1.341 . S
C77 C75 1.400 1_455 S
C77 C76 1.387 . S
N78 Co69 2.022 . S
N78 C75 1.351 1_455 S
N78 N79 1.365 . S
N79 C76 1.341 . S
N79 N78 1.365 . S
N79 H99 0.862 . S
C80 C75 1.501 . S
C80 H81 0.961 . S
C80 H82 0.961 . S
C80 H83 0.960 . S
H81 C80 0.961 . S
H82 C80 0.961 . S
H83 C80 0.960 . S
C84 N85 1.342 . S
C84 C88 1.401 . S
C84 C89 1.499 . S
N85 Co68 1.989 . S
N85 C84 1.342 . S
N85 N86 1.388 . S
N86 Co69 1.993 . S
N86 N85 1.388 . S
N86 C87 1.346 . S
C87 N86 1.346 . S
C87 C88 1.396 . S
C87 C97 1.510 . S
C88 C84 1.401 . S
C88 C87 1.396 . S
C89 C84 1.499 . S
C89 H90 0.959 . S
C89 H91 0.960 . S
C89 H92 0.961 . S
H90 C89 0.959 . S
H91 C89 0.960 . S
H92 C89 0.961 . S
O93 Co68 1.967 . S
O93 C101 1.258 . S
O94 Co69 1.941 . S
O94 C101 1.266 . S
H95 C97 0.959 . S
H96 C97 0.964 . S
C97 C87 1.510 . S
C97 H95 0.959 . S
C97 H96 0.964 . S
C97 H98 0.960 . S
H98 C97 0.960 . S
H99 N79 0.862 . S
O100 Co68 1.920 . S
O100 C73 1.289 1_455 S
C101 O93 1.258 . S
C101 O94 1.266 . S
Co102 O105 1.970 . S
Co102 N119 1.989 . S
Co102 O127 1.967 . S
Co102 O134 1.920 . S
Co103 O106 1.966 . S
Co103 N112 2.022 . S
Co103 N120 1.993 . S
Co103 O128 1.941 . S
C104 O105 1.258 . S
C104 O106 1.263 . S
O105 Co102 1.970 . S
O105 C104 1.258 . S
O106 Co103 1.966 . S
O106 C104 1.263 . S
C107 O108 1.235 . S
C107 O134 1.289 . S
O108 C107 1.235 . S
C109 C111 1.400 . S
C109 N112 1.351 . S
C109 C114 1.501 . S
C110 C111 1.387 . S
C110 N113 1.341 . S
C111 C109 1.400 . S
C111 C110 1.387 . S
N112 Co103 2.022 . S
N112 C109 1.351 . S
N112 N113 1.365 . S
N113 C110 1.341 . S
N113 N112 1.365 . S
N113 H133 0.862 . S
C114 C109 1.501 . S
C114 H115 0.961 . S
C114 H116 0.961 . S
C114 H117 0.960 . S
H115 C114 0.961 . S
H116 C114 0.961 . S
H117 C114 0.960 . S
C118 N119 1.342 . S
C118 C122 1.401 . S
C118 C123 1.499 . S
N119 Co102 1.989 . S
N119 C118 1.342 . S
N119 N120 1.388 . S
N120 Co103 1.993 . S
N120 N119 1.388 . S
N120 C121 1.346 . S
C121 N120 1.346 . S
C121 C122 1.396 . S
C121 C131 1.510 . S
C122 C118 1.401 . S
C122 C121 1.396 . S
C123 C118 1.499 . S
C123 H124 0.959 . S
C123 H125 0.960 . S
C123 H126 0.961 . S
H124 C123 0.959 . S
H125 C123 0.960 . S
H126 C123 0.961 . S
O127 Co102 1.967 . S
O127 C135 1.258 . S
O128 Co103 1.941 . S
O128 C135 1.266 . S
H129 C131 0.959 . S
H130 C131 0.961 . S
C131 C121 1.510 . S
C131 H129 0.959 . S
C131 H130 0.961 . S
C131 H132 0.960 . S
H132 C131 0.960 . S
H133 N113 0.862 . S
O134 Co102 1.920 . S
O134 C107 1.289 . S
C135 O127 1.258 . S
C135 O128 1.266 . S
Co136 O139 1.970 . S
Co136 N153 1.989 . S
Co136 O161 1.967 . S
Co136 O168 1.920 . S
Co137 O140 1.966 . S
Co137 N146 2.022 . S
Co137 N154 1.993 . S
Co137 O162 1.941 . S
C138 O139 1.258 . S
C138 O140 1.263 . S
O139 Co136 1.970 . S
O139 C138 1.258 . S
O140 Co137 1.966 . S
O140 C138 1.263 . S
C141 O142 1.235 . S
C141 O168 1.289 . S
O142 C141 1.235 . S
C143 C145 1.400 . S
C143 N146 1.351 . S
C143 C148 1.501 . S
C144 C145 1.387 . S
C144 N147 1.341 . S
C145 C143 1.400 . S
C145 C144 1.387 . S
N146 Co137 2.022 . S
N146 C143 1.351 . S
N146 N147 1.365 . S
N147 C144 1.341 . S
N147 N146 1.365 . S
N147 H167 0.862 . S
C148 C143 1.501 . S
C148 H149 0.961 . S
C148 H150 0.961 . S
C148 H151 0.960 . S
H149 C148 0.961 . S
H150 C148 0.961 . S
H151 C148 0.960 . S
C152 N153 1.342 . S
C152 C156 1.401 . S
C152 C157 1.499 . S
N153 Co136 1.989 . S
N153 C152 1.342 . S
N153 N154 1.388 . S
N154 Co137 1.993 . S
N154 N153 1.388 . S
N154 C155 1.346 . S
C155 N154 1.346 . S
C155 C156 1.396 . S
C155 C165 1.510 . S
C156 C152 1.401 . S
C156 C155 1.396 . S
C157 C152 1.499 . S
C157 H158 0.959 . S
C157 H159 0.960 . S
C157 H160 0.961 . S
H158 C157 0.959 . S
H159 C157 0.960 . S
H160 C157 0.961 . S
O161 Co136 1.967 . S
O161 C169 1.258 . S
O162 Co137 1.941 . S
O162 C169 1.266 . S
H163 C165 0.959 . S
H164 C165 0.961 . S
C165 C155 1.510 . S
C165 H163 0.959 . S
C165 H164 0.961 . S
C165 H166 0.960 . S
H166 C165 0.960 . S
H167 N147 0.862 . S
O168 Co136 1.920 . S
O168 C141 1.289 . S
C169 O161 1.258 . S
C169 O162 1.266 . S
Co170 O173 1.970 . S
Co170 N187 1.989 . S
Co170 O195 1.967 1_455 S
Co170 O202 1.920 . S
Co171 O174 1.966 . S
Co171 N180 2.022 . S
Co171 N188 1.993 . S
Co171 O196 1.941 1_455 S
C172 O173 1.258 . S
C172 O174 1.263 . S
O173 Co170 1.970 . S
O173 C172 1.258 . S
O174 Co171 1.966 . S
O174 C172 1.263 . S
C175 O176 1.235 . S
C175 O202 1.289 . S
O176 C175 1.235 . S
C177 C179 1.400 . S
C177 N180 1.351 . S
C177 C182 1.501 . S
C178 C179 1.387 1_655 S
C178 N181 1.341 . S
C179 C177 1.400 . S
C179 C178 1.387 1_455 S
N180 Co171 2.022 . S
N180 C177 1.351 . S
N180 N181 1.365 1_455 S
N181 C178 1.341 . S
N181 N180 1.365 1_655 S
N181 H201 0.862 . S
C182 C177 1.501 . S
C182 H183 0.961 . S
C182 H184 0.961 . S
C182 H185 0.960 . S
H183 C182 0.961 . S
H184 C182 0.961 . S
H185 C182 0.960 . S
C186 N187 1.342 . S
C186 C190 1.401 . S
C186 C191 1.499 . S
N187 Co170 1.989 . S
N187 C186 1.342 . S
N187 N188 1.388 . S
N188 Co171 1.993 . S
N188 N187 1.388 . S
N188 C189 1.346 . S
C189 N188 1.346 . S
C189 C190 1.396 . S
C189 C199 1.510 . S
C190 C186 1.401 . S
C190 C189 1.396 . S
C191 C186 1.499 . S
C191 H192 0.959 . S
C191 H193 0.960 . S
C191 H194 0.961 1_455 S
H192 C191 0.959 . S
H193 C191 0.960 . S
H194 C191 0.961 1_655 S
O195 Co170 1.967 1_655 S
O195 C203 1.258 . S
O196 Co171 1.941 1_655 S
O196 C203 1.266 . S
H197 C199 0.959 1_655 S
H198 C199 0.961 . S
C199 C189 1.510 . S
C199 H197 0.959 1_455 S
C199 H198 0.961 . S
C199 H200 0.960 . S
H200 C199 0.960 . S
H201 N181 0.862 . S
O202 Co170 1.920 . S
O202 C175 1.289 . S
C203 O195 1.258 . S
C203 O196 1.266 . S
Co204 O207 1.970 . S
Co204 N221 1.989 . S
Co204 O229 1.967 . S
Co204 O236 1.920 . S
Co205 O208 1.966 . S
Co205 N214 2.022 . S
Co205 N222 1.993 . S
Co205 O230 1.941 . S
C206 O207 1.258 . S
C206 O208 1.263 . S
O207 Co204 1.970 . S
O207 C206 1.258 . S
O208 Co205 1.966 . S
O208 C206 1.263 . S
C209 O210 1.235 . S
C209 O236 1.289 . S
O210 C209 1.235 . S
C211 C213 1.400 . S
C211 N214 1.351 . S
C211 C216 1.501 . S
C212 C213 1.387 . S
C212 N215 1.341 . S
C213 C211 1.400 . S
C213 C212 1.387 . S
N214 Co205 2.022 . S
N214 C211 1.351 . S
N214 N215 1.365 . S
N215 C212 1.341 . S
N215 N214 1.365 . S
N215 H235 0.862 . S
C216 C211 1.501 . S
C216 H217 0.961 . S
C216 H218 0.961 . S
C216 H219 0.960 . S
H217 C216 0.961 . S
H218 C216 0.961 . S
H219 C216 0.960 . S
C220 N221 1.342 . S
C220 C224 1.401 . S
C220 C225 1.499 . S
N221 Co204 1.989 . S
N221 C220 1.342 . S
N221 N222 1.388 . S
N222 Co205 1.993 . S
N222 N221 1.388 . S
N222 C223 1.346 . S
C223 N222 1.346 . S
C223 C224 1.396 . S
C223 C233 1.510 . S
C224 C220 1.401 . S
C224 C223 1.396 . S
C225 C220 1.499 . S
C225 H226 0.959 . S
C225 H227 0.960 . S
C225 H228 0.961 . S
H226 C225 0.959 . S
H227 C225 0.960 . S
H228 C225 0.961 . S
O229 Co204 1.967 . S
O229 C237 1.258 . S
O230 Co205 1.941 . S
O230 C237 1.266 . S
H231 C233 0.959 . S
H232 C233 0.961 . S
C233 C223 1.510 . S
C233 H231 0.959 . S
C233 H232 0.961 . S
C233 H234 0.960 . S
H234 C233 0.960 . S
H235 N215 0.862 . S
O236 Co204 1.920 . S
O236 C209 1.289 . S
C237 O229 1.258 . S
C237 O230 1.266 . S
Co238 O241 1.970 . S
Co238 N255 1.989 . S
Co238 O263 1.967 1_455 S
Co238 O270 1.920 . S
Co239 O242 1.966 . S
Co239 N248 2.022 . S
Co239 N256 1.993 . S
Co239 O264 1.941 1_455 S
C240 O241 1.258 . S
C240 O242 1.263 . S
O241 Co238 1.970 . S
O241 C240 1.258 . S
O242 Co239 1.966 . S
O242 C240 1.263 . S
C243 O244 1.235 . S
C243 O270 1.289 . S
O244 C243 1.235 . S
C245 C247 1.400 . S
C245 N248 1.351 . S
C245 C250 1.501 . S
C246 C247 1.387 1_655 S
C246 N249 1.341 . S
C247 C245 1.400 . S
C247 C246 1.387 1_455 S
N248 Co239 2.022 . S
N248 C245 1.351 . S
N248 N249 1.365 1_455 S
N249 C246 1.341 . S
N249 N248 1.365 1_655 S
N249 H269 0.862 . S
C250 C245 1.501 . S
C250 H251 0.961 . S
C250 H252 0.961 . S
C250 H253 0.960 . S
H251 C250 0.961 . S
H252 C250 0.961 . S
H253 C250 0.960 . S
C254 N255 1.342 . S
C254 C258 1.401 . S
C254 C259 1.499 . S
N255 Co238 1.989 . S
N255 C254 1.342 . S
N255 N256 1.388 . S
N256 Co239 1.993 . S
N256 N255 1.388 . S
N256 C257 1.346 . S
C257 N256 1.346 . S
C257 C258 1.396 . S
C257 C267 1.510 . S
C258 C254 1.401 . S
C258 C257 1.396 . S
C259 C254 1.499 . S
C259 H260 0.959 . S
C259 H261 0.960 . S
C259 H262 0.961 1_455 S
H260 C259 0.959 . S
H261 C259 0.960 . S
H262 C259 0.961 1_655 S
O263 Co238 1.967 1_655 S
O263 C271 1.258 . S
O264 Co239 1.941 1_655 S
O264 C271 1.266 . S
H265 C267 0.959 1_655 S
H266 C267 0.961 . S
C267 C257 1.510 . S
C267 H265 0.959 1_455 S
C267 H266 0.961 . S
C267 H268 0.960 . S
H268 C267 0.960 . S
H269 N249 0.862 . S
O270 Co238 1.920 . S
O270 C243 1.289 . S
C271 O263 1.258 . S
C271 O264 1.266 . S
C272 C273 1.391 . S
C272 C274 1.394 . S
C272 H288 0.931 . S
C273 C272 1.391 . S
C273 C277 1.376 . S
C274 C272 1.394 . S
C274 C275 1.369 . S
C274 C278 1.531 . S
C275 C274 1.369 . S
C275 C276 1.410 . S
C275 C283 1.503 1_556 S
C276 C275 1.410 . S
C276 C277 1.392 . S
C276 C279 1.511 1_556 S
C277 C273 1.376 . S
C277 C276 1.392 . S
C277 H289 0.929 . S
C278 C274 1.531 . S
C278 H290 0.960 1_556 S
C278 H291 0.962 . S
C278 H292 0.960 . S
C279 C276 1.511 1_554 S
C279 H293 0.961 1_554 S
C279 H294 0.961 . S
C279 H295 0.961 . S
C280 C281 1.370 . S
C280 C282 1.363 . S
C280 H296 0.931 . S
C281 C280 1.370 . S
C281 C285 1.408 . S
C282 C280 1.363 . S
C282 C283 1.370 . S
C282 C286 1.524 1_554 S
C283 C275 1.503 1_554 S
C283 C282 1.370 . S
C283 C284 1.403 . S
C284 C283 1.403 . S
C284 C285 1.404 . S
C284 C287 1.539 . S
C285 C281 1.408 . S
C285 C284 1.404 . S
C285 H297 0.930 . S
C286 C282 1.524 1_556 S
C286 H298 0.956 . S
C286 H299 0.961 . S
C286 H300 0.961 . S
C287 C284 1.539 . S
C287 H301 0.958 . S
C287 H302 0.961 . S
C287 H303 0.960 . S
H288 C272 0.931 . S
H289 C277 0.929 . S
H290 C278 0.960 1_554 S
H291 C278 0.962 . S
H292 C278 0.960 . S
H293 C279 0.961 1_556 S
H294 C279 0.961 . S
H295 C279 0.961 . S
H296 C280 0.931 . S
H297 C285 0.930 . S
H298 C286 0.956 . S
H299 C286 0.961 . S
H300 C286 0.961 . S
H301 C287 0.958 . S
H302 C287 0.961 . S
H303 C287 0.960 . S
C304 C305 1.391 . S
C304 C306 1.394 . S
C304 H320 0.931 . S
C305 C304 1.391 . S
C305 C309 1.376 . S
C306 C304 1.394 . S
C306 C307 1.369 . S
C306 C310 1.531 . S
C307 C306 1.369 . S
C307 C308 1.410 . S
C307 C315 1.503 . S
C308 C307 1.410 . S
C308 C309 1.392 . S
C308 C311 1.511 . S
C309 C305 1.376 . S
C309 C308 1.392 . S
C309 H321 0.929 . S
C310 C306 1.531 . S
C310 H322 0.960 . S
C310 H323 0.962 . S
C310 H324 0.960 . S
C311 C308 1.511 . S
C311 H325 0.961 . S
C311 H326 0.961 . S
C311 H327 0.961 . S
C312 C313 1.370 . S
C312 C314 1.363 . S
C312 H328 0.931 . S
C313 C312 1.370 . S
C313 C317 1.408 . S
C314 C312 1.363 . S
C314 C315 1.370 . S
C314 C318 1.524 . S
C315 C307 1.503 . S
C315 C314 1.370 . S
C315 C316 1.403 . S
C316 C315 1.403 . S
C316 C317 1.404 . S
C316 C319 1.539 . S
C317 C313 1.408 . S
C317 C316 1.404 . S
C317 H329 0.930 . S
C318 C314 1.524 . S
C318 H330 0.956 . S
C318 H331 0.961 . S
C318 H332 0.961 . S
C319 C316 1.539 . S
C319 H333 0.958 . S
C319 H334 0.961 . S
C319 H335 0.960 . S
H320 C304 0.931 . S
H321 C309 0.929 . S
H322 C310 0.960 . S
H323 C310 0.962 . S
H324 C310 0.960 . S
H325 C311 0.961 . S
H326 C311 0.961 . S
H327 C311 0.961 . S
H328 C312 0.931 . S
H329 C317 0.930 . S
H330 C318 0.956 . S
H331 C318 0.961 . S
H332 C318 0.961 . S
H333 C319 0.958 . S
H334 C319 0.961 . S
H335 C319 0.960 . S
C336 C337 1.391 . S
C336 C338 1.394 . S
C336 H352 0.931 . S
C337 C336 1.391 . S
C337 C341 1.376 . S
C338 C336 1.394 . S
C338 C339 1.369 . S
C338 C342 1.531 . S
C339 C338 1.369 . S
C339 C340 1.410 . S
C339 C347 1.503 1_554 S
C340 C339 1.410 . S
C340 C341 1.392 . S
C340 C343 1.511 1_554 S
C341 C337 1.376 . S
C341 C340 1.392 . S
C341 H353 0.929 . S
C342 C338 1.531 . S
C342 H354 0.960 1_554 S
C342 H355 0.962 . S
C342 H356 0.960 . S
C343 C340 1.511 1_556 S
C343 H357 0.961 1_556 S
C343 H358 0.961 . S
C343 H359 0.961 . S
C344 C345 1.370 . S
C344 C346 1.363 . S
C344 H360 0.931 . S
C345 C344 1.370 . S
C345 C349 1.408 . S
C346 C344 1.363 . S
C346 C347 1.370 . S
C346 C350 1.524 1_556 S
C347 C339 1.503 1_556 S
C347 C346 1.370 . S
C347 C348 1.403 . S
C348 C347 1.403 . S
C348 C349 1.404 . S
C348 C351 1.539 . S
C349 C345 1.408 . S
C349 C348 1.404 . S
C349 H361 0.930 . S
C350 C346 1.524 1_554 S
C350 H362 0.956 . S
C350 H363 0.961 . S
C350 H364 0.961 . S
C351 C348 1.539 . S
C351 H365 0.958 . S
C351 H366 0.961 . S
C351 H367 0.960 . S
H352 C336 0.931 . S
H353 C341 0.929 . S
H354 C342 0.960 1_556 S
H355 C342 0.962 . S
H356 C342 0.960 . S
H357 C343 0.961 1_554 S
H358 C343 0.961 . S
H359 C343 0.961 . S
H360 C344 0.931 . S
H361 C349 0.930 . S
H362 C350 0.956 . S
H363 C350 0.961 . S
H364 C350 0.961 . S
H365 C351 0.958 . S
H366 C351 0.961 . S
H367 C351 0.960 . S
C368 C369 1.391 . S
C368 C370 1.394 . S
C368 H384 0.931 . S
C369 C368 1.391 . S
C369 C373 1.376 . S
C370 C368 1.394 . S
C370 C371 1.369 . S
C370 C374 1.531 . S
C371 C370 1.369 . S
C371 C372 1.410 . S
C371 C379 1.503 . S
C372 C371 1.410 . S
C372 C373 1.392 . S
C372 C375 1.511 . S
C373 C369 1.376 . S
C373 C372 1.392 . S
C373 H385 0.929 . S
C374 C370 1.531 . S
C374 H386 0.960 . S
C374 H387 0.962 . S
C374 H388 0.960 . S
C375 C372 1.511 . S
C375 H389 0.961 . S
C375 H390 0.961 . S
C375 H391 0.961 . S
C376 C377 1.370 . S
C376 C378 1.363 . S
C376 H392 0.931 . S
C377 C376 1.370 . S
C377 C381 1.408 . S
C378 C376 1.363 . S
C378 C379 1.370 . S
C378 C382 1.524 . S
C379 C371 1.503 . S
C379 C378 1.370 . S
C379 C380 1.403 . S
C380 C379 1.403 . S
C380 C381 1.404 . S
C380 C383 1.539 . S
C381 C377 1.408 . S
C381 C380 1.404 . S
C381 H393 0.930 . S
C382 C378 1.524 . S
C382 H394 0.956 . S
C382 H395 0.961 . S
C382 H396 0.961 . S
C383 C380 1.539 . S
C383 H397 0.958 . S
C383 H398 0.961 . S
C383 H399 0.960 . S
H384 C368 0.931 . S
H385 C373 0.929 . S
H386 C374 0.960 . S
H387 C374 0.962 . S
H388 C374 0.960 . S
H389 C375 0.961 . S
H390 C375 0.961 . S
H391 C375 0.961 . S
H392 C376 0.931 . S
H393 C381 0.930 . S
H394 C382 0.956 . S
H395 C382 0.961 . S
H396 C382 0.961 . S
H397 C383 0.958 . S
H398 C383 0.961 . S
H399 C383 0.960 . S
C400 C401 1.391 . S
C400 C402 1.394 . S
C400 H416 0.931 . S
C401 C400 1.391 . S
C401 C405 1.376 . S
C402 C400 1.394 . S
C402 C403 1.369 . S
C402 C406 1.531 . S
C403 C402 1.369 . S
C403 C404 1.410 . S
C403 C411 1.503 1_554 S
C404 C403 1.410 . S
C404 C405 1.392 . S
C404 C407 1.511 1_554 S
C405 C401 1.376 . S
C405 C404 1.392 . S
C405 H417 0.929 . S
C406 C402 1.531 . S
C406 H418 0.960 1_554 S
C406 H419 0.962 . S
C406 H420 0.960 . S
C407 C404 1.511 1_556 S
C407 H421 0.961 1_556 S
C407 H422 0.961 . S
C407 H423 0.961 . S
C408 C409 1.370 . S
C408 C410 1.363 . S
C408 H424 0.931 . S
C409 C408 1.370 . S
C409 C413 1.408 . S
C410 C408 1.363 . S
C410 C411 1.370 . S
C410 C414 1.524 1_556 S
C411 C403 1.503 1_556 S
C411 C410 1.370 . S
C411 C412 1.403 . S
C412 C411 1.403 . S
C412 C413 1.404 . S
C412 C415 1.539 . S
C413 C409 1.408 . S
C413 C412 1.404 . S
C413 H425 0.930 . S
C414 C410 1.524 1_554 S
C414 H426 0.956 . S
C414 H427 0.961 . S
C414 H428 0.961 . S
C415 C412 1.539 . S
C415 H429 0.958 . S
C415 H430 0.961 . S
C415 H431 0.960 . S
H416 C400 0.931 . S
H417 C405 0.929 . S
H418 C406 0.960 1_556 S
H419 C406 0.962 . S
H420 C406 0.960 . S
H421 C407 0.961 1_554 S
H422 C407 0.961 . S
H423 C407 0.961 . S
H424 C408 0.931 . S
H425 C413 0.930 . S
H426 C414 0.956 . S
H427 C414 0.961 . S
H428 C414 0.961 . S
H429 C415 0.958 . S
H430 C415 0.961 . S
H431 C415 0.960 . S
C432 C433 1.391 . S
C432 C434 1.394 . S
C432 H448 0.931 . S
C433 C432 1.391 . S
C433 C437 1.376 . S
C434 C432 1.394 . S
C434 C435 1.369 . S
C434 C438 1.531 . S
C435 C434 1.369 . S
C435 C436 1.410 . S
C435 C443 1.503 . S
C436 C435 1.410 . S
C436 C437 1.392 . S
C436 C439 1.511 . S
C437 C433 1.376 . S
C437 C436 1.392 . S
C437 H449 0.929 . S
C438 C434 1.531 . S
C438 H450 0.960 . S
C438 H451 0.962 . S
C438 H452 0.960 . S
C439 C436 1.511 . S
C439 H453 0.961 . S
C439 H454 0.961 . S
C439 H455 0.961 . S
C440 C441 1.370 . S
C440 C442 1.363 . S
C440 H456 0.931 . S
C441 C440 1.370 . S
C441 C445 1.408 . S
C442 C440 1.363 . S
C442 C443 1.370 . S
C442 C446 1.524 . S
C443 C435 1.503 . S
C443 C442 1.370 . S
C443 C444 1.403 . S
C444 C443 1.403 . S
C444 C445 1.404 . S
C444 C447 1.539 . S
C445 C441 1.408 . S
C445 C444 1.404 . S
C445 H457 0.930 . S
C446 C442 1.524 . S
C446 H458 0.956 . S
C446 H459 0.961 . S
C446 H460 0.961 . S
C447 C444 1.539 . S
C447 H461 0.958 . S
C447 H462 0.961 . S
C447 H463 0.960 . S
H448 C432 0.931 . S
H449 C437 0.929 . S
H450 C438 0.960 . S
H451 C438 0.962 . S
H452 C438 0.960 . S
H453 C439 0.961 . S
H454 C439 0.961 . S
H455 C439 0.961 . S
H456 C440 0.931 . S
H457 C445 0.930 . S
H458 C446 0.956 . S
H459 C446 0.961 . S
H460 C446 0.961 . S
H461 C447 0.958 . S
H462 C447 0.961 . S
H463 C447 0.960 . S
C464 C465 1.391 . S
C464 C466 1.394 . S
C464 H480 0.931 . S
C465 C464 1.391 . S
C465 C469 1.376 . S
C466 C464 1.394 . S
C466 C467 1.369 . S
C466 C470 1.531 1_554 S
C467 C466 1.369 . S
C467 C468 1.410 . S
C467 C475 1.503 1_554 S
C468 C467 1.410 . S
C468 C469 1.392 . S
C468 C471 1.511 . S
C469 C465 1.376 . S
C469 C468 1.392 . S
C469 H481 0.929 . S
C470 C466 1.531 1_556 S
C470 H482 0.960 . S
C470 H483 0.962 . S
C470 H484 0.960 . S
C471 C468 1.511 . S
C471 H485 0.961 . S
C471 H486 0.961 . S
C471 H487 0.961 . S
C472 C473 1.370 . S
C472 C474 1.363 . S
C472 H488 0.931 . S
C473 C472 1.370 . S
C473 C477 1.408 . S
C474 C472 1.363 . S
C474 C475 1.370 . S
C474 C478 1.524 1_556 S
C475 C467 1.503 1_556 S
C475 C474 1.370 . S
C475 C476 1.403 . S
C476 C475 1.403 . S
C476 C477 1.404 . S
C476 C479 1.539 . S
C477 C473 1.408 . S
C477 C476 1.404 . S
C477 H489 0.930 . S
C478 C474 1.524 1_554 S
C478 H490 0.956 . S
C478 H491 0.961 . S
C478 H492 0.961 . S
C479 C476 1.539 . S
C479 H493 0.958 . S
C479 H494 0.961 . S
C479 H495 0.960 . S
H480 C464 0.931 . S
H481 C469 0.929 . S
H482 C470 0.960 . S
H483 C470 0.962 . S
H484 C470 0.960 . S
H485 C471 0.961 . S
H486 C471 0.961 . S
H487 C471 0.961 . S
H488 C472 0.931 . S
H489 C477 0.930 . S
H490 C478 0.956 . S
H491 C478 0.961 . S
H492 C478 0.961 . S
H493 C479 0.958 . S
H494 C479 0.961 . S
H495 C479 0.960 . S
C496 C497 1.391 . S
C496 C498 1.394 . S
C496 H512 0.931 . S
C497 C496 1.391 . S
C497 C501 1.376 . S
C498 C496 1.394 . S
C498 C499 1.369 . S
C498 C502 1.531 . S
C499 C498 1.369 . S
C499 C500 1.410 . S
C499 C507 1.503 . S
C500 C499 1.410 . S
C500 C501 1.392 . S
C500 C503 1.511 . S
C501 C497 1.376 . S
C501 C500 1.392 . S
C501 H513 0.929 . S
C502 C498 1.531 . S
C502 H514 0.960 . S
C502 H515 0.962 . S
C502 H516 0.960 . S
C503 C500 1.511 . S
C503 H517 0.961 . S
C503 H518 0.961 . S
C503 H519 0.961 . S
C504 C505 1.370 . S
C504 C506 1.363 . S
C504 H520 0.931 . S
C505 C504 1.370 . S
C505 C509 1.408 . S
C506 C504 1.363 . S
C506 C507 1.370 . S
C506 C510 1.524 . S
C507 C499 1.503 . S
C507 C506 1.370 . S
C507 C508 1.403 . S
C508 C507 1.403 . S
C508 C509 1.404 . S
C508 C511 1.539 . S
C509 C505 1.408 . S
C509 C508 1.404 . S
C509 H521 0.930 . S
C510 C506 1.524 . S
C510 H522 0.956 . S
C510 H523 0.961 . S
C510 H524 0.961 . S
C511 C508 1.539 . S
C511 H525 0.958 . S
C511 H526 0.961 . S
C511 H527 0.960 . S
H512 C496 0.931 . S
H513 C501 0.929 . S
H514 C502 0.960 . S
H515 C502 0.962 . S
H516 C502 0.960 . S
H517 C503 0.961 . S
H518 C503 0.961 . S
H519 C503 0.961 . S
H520 C504 0.931 . S
H521 C509 0.930 . S
H522 C510 0.956 . S
H523 C510 0.961 . S
H524 C510 0.961 . S
H525 C511 0.958 . S
H526 C511 0.961 . S
H527 C511 0.960 . S
C528 C529 1.391 . S
C528 C530 1.394 . S
C528 H544 0.931 . S
C529 C528 1.391 . S
C529 C533 1.376 . S
C530 C528 1.394 . S
C530 C531 1.369 . S
C530 C534 1.531 . S
C531 C530 1.369 . S
C531 C532 1.410 . S
C531 C539 1.503 . S
C532 C531 1.410 . S
C532 C533 1.392 . S
C532 C535 1.511 1_455 S
C533 C529 1.376 . S
C533 C532 1.392 . S
C533 H545 0.929 . S
C534 C530 1.531 . S
C534 H546 0.960 . S
C534 H547 0.962 . S
C534 H548 0.960 . S
C535 C532 1.511 1_655 S
C535 H549 0.961 . S
C535 H550 0.961 1_655 S
C535 H551 0.961 . S
C536 C537 1.370 . S
C536 C538 1.363 . S
C536 H552 0.931 . S
C537 C536 1.370 . S
C537 C541 1.408 . S
C538 C536 1.363 . S
C538 C539 1.370 . S
C538 C542 1.524 . S
C539 C531 1.503 . S
C539 C538 1.370 . S
C539 C540 1.403 . S
C540 C539 1.403 . S
C540 C541 1.404 . S
C540 C543 1.539 1_455 S
C541 C537 1.408 . S
C541 C540 1.404 . S
C541 H553 0.930 1_455 S
C542 C538 1.524 . S
C542 H554 0.956 . S
C542 H555 0.961 . S
C542 H556 0.961 . S
C543 C540 1.539 1_655 S
C543 H557 0.958 . S
C543 H558 0.961 . S
C543 H559 0.960 . S
H544 C528 0.931 . S
H545 C533 0.929 . S
H546 C534 0.960 . S
H547 C534 0.962 . S
H548 C534 0.960 . S
H549 C535 0.961 . S
H550 C535 0.961 1_455 S
H551 C535 0.961 . S
H552 C536 0.931 . S
H553 C541 0.930 1_655 S
H554 C542 0.956 . S
H555 C542 0.961 . S
H556 C542 0.961 . S
H557 C543 0.958 . S
H558 C543 0.961 . S
H559 C543 0.960 . S
C560 C561 1.391 . S
C560 C562 1.394 . S
C560 H576 0.931 . S
C561 C560 1.391 . S
C561 C565 1.376 . S
C562 C560 1.394 . S
C562 C563 1.369 . S
C562 C566 1.531 . S
C563 C562 1.369 . S
C563 C564 1.410 . S
C563 C571 1.503 . S
C564 C563 1.410 . S
C564 C565 1.392 . S
C564 C567 1.511 . S
C565 C561 1.376 . S
C565 C564 1.392 . S
C565 H577 0.929 . S
C566 C562 1.531 . S
C566 H578 0.960 . S
C566 H579 0.962 . S
C566 H580 0.960 . S
C567 C564 1.511 . S
C567 H581 0.961 . S
C567 H582 0.961 . S
C567 H583 0.961 . S
C568 C569 1.370 . S
C568 C570 1.363 . S
C568 H584 0.931 . S
C569 C568 1.370 . S
C569 C573 1.408 . S
C570 C568 1.363 . S
C570 C571 1.370 . S
C570 C574 1.524 . S
C571 C563 1.503 . S
C571 C570 1.370 . S
C571 C572 1.403 . S
C572 C571 1.403 . S
C572 C573 1.404 . S
C572 C575 1.539 . S
C573 C569 1.408 . S
C573 C572 1.404 . S
C573 H585 0.930 . S
C574 C570 1.524 . S
C574 H586 0.956 . S
C574 H587 0.961 . S
C574 H588 0.961 . S
C575 C572 1.539 . S
C575 H589 0.958 . S
C575 H590 0.961 . S
C575 H591 0.960 . S
H576 C560 0.931 . S
H577 C565 0.929 . S
H578 C566 0.960 . S
H579 C566 0.962 . S
H580 C566 0.960 . S
H581 C567 0.961 . S
H582 C567 0.961 . S
H583 C567 0.961 . S
H584 C568 0.931 . S
H585 C573 0.930 . S
H586 C574 0.956 . S
H587 C574 0.961 . S
H588 C574 0.961 . S
H589 C575 0.958 . S
H590 C575 0.961 . S
H591 C575 0.960 . S
C592 C593 1.391 . S
C592 C594 1.394 . S
C592 H608 0.931 . S
C593 C592 1.391 . S
C593 C597 1.376 . S
C594 C592 1.394 . S
C594 C595 1.369 . S
C594 C598 1.531 . S
C595 C594 1.369 . S
C595 C596 1.410 . S
C595 C603 1.503 . S
C596 C595 1.410 . S
C596 C597 1.392 . S
C596 C599 1.511 1_455 S
C597 C593 1.376 . S
C597 C596 1.392 . S
C597 H609 0.929 . S
C598 C594 1.531 . S
C598 H610 0.960 . S
C598 H611 0.962 . S
C598 H612 0.960 . S
C599 C596 1.511 1_655 S
C599 H613 0.961 . S
C599 H614 0.961 . S
C599 H615 0.961 . S
C600 C601 1.370 . S
C600 C602 1.363 . S
C600 H616 0.931 . S
C601 C600 1.370 . S
C601 C605 1.408 . S
C602 C600 1.363 . S
C602 C603 1.370 . S
C602 C606 1.524 . S
C603 C595 1.503 . S
C603 C602 1.370 . S
C603 C604 1.403 . S
C604 C603 1.403 . S
C604 C605 1.404 . S
C604 C607 1.539 1_455 S
C605 C601 1.408 . S
C605 C604 1.404 . S
C605 H617 0.930 1_455 S
C606 C602 1.524 . S
C606 H618 0.956 . S
C606 H619 0.961 . S
C606 H620 0.961 . S
C607 C604 1.539 1_655 S
C607 H621 0.958 . S
C607 H622 0.961 . S
C607 H623 0.960 . S
H608 C592 0.931 . S
H609 C597 0.929 . S
H610 C598 0.960 . S
H611 C598 0.962 . S
H612 C598 0.960 . S
H613 C599 0.961 . S
H614 C599 0.961 . S
H615 C599 0.961 . S
H616 C600 0.931 . S
H617 C605 0.930 1_655 S
H618 C606 0.956 . S
H619 C606 0.961 . S
H620 C606 0.961 . S
H621 C607 0.958 . S
H622 C607 0.961 . S
H623 C607 0.960 . S
C624 C625 1.391 . S
C624 C626 1.394 . S
C624 H640 0.931 . S
C625 C624 1.391 . S
C625 C629 1.376 . S
C626 C624 1.394 . S
C626 C627 1.369 . S
C626 C630 1.531 . S
C627 C626 1.369 . S
C627 C628 1.410 . S
C627 C635 1.503 . S
C628 C627 1.410 . S
C628 C629 1.392 . S
C628 C631 1.511 . S
C629 C625 1.376 . S
C629 C628 1.392 . S
C629 H641 0.929 . S
C630 C626 1.531 . S
C630 H642 0.960 . S
C630 H643 0.962 . S
C630 H644 0.960 . S
C631 C628 1.511 . S
C631 H645 0.961 . S
C631 H646 0.961 . S
C631 H647 0.961 . S
C632 C633 1.370 . S
C632 C634 1.363 . S
C632 H648 0.931 . S
C633 C632 1.370 . S
C633 C637 1.408 . S
C634 C632 1.363 . S
C634 C635 1.370 . S
C634 C638 1.524 . S
C635 C627 1.503 . S
C635 C634 1.370 . S
C635 C636 1.403 . S
C636 C635 1.403 . S
C636 C637 1.404 . S
C636 C639 1.539 . S
C637 C633 1.408 . S
C637 C636 1.404 . S
C637 H649 0.930 . S
C638 C634 1.524 . S
C638 H650 0.956 . S
C638 H651 0.961 . S
C638 H652 0.961 . S
C639 C636 1.539 . S
C639 H653 0.958 . S
C639 H654 0.961 . S
C639 H655 0.960 . S
H640 C624 0.931 . S
H641 C629 0.929 . S
H642 C630 0.960 . S
H643 C630 0.962 . S
H644 C630 0.960 . S
H645 C631 0.961 . S
H646 C631 0.961 . S
H647 C631 0.961 . S
H648 C632 0.931 . S
H649 C637 0.930 . S
H650 C638 0.956 . S
H651 C638 0.961 . S
H652 C638 0.961 . S
H653 C639 0.958 . S
H654 C639 0.961 . S
H655 C639 0.960 . S
C656 C657 1.391 . S
C656 C658 1.394 . S
C656 H672 0.931 . S
C657 C656 1.391 . S
C657 C661 1.376 . S
C658 C656 1.394 . S
C658 C659 1.369 . S
C658 C662 1.531 1_565 S
C659 C658 1.369 . S
C659 C660 1.410 . S
C659 C667 1.503 1_565 S
C660 C659 1.410 . S
C660 C661 1.392 . S
C660 C663 1.511 . S
C661 C657 1.376 . S
C661 C660 1.392 . S
C661 H673 0.929 . S
C662 C658 1.531 1_545 S
C662 H674 0.960 . S
C662 H675 0.962 . S
C662 H676 0.960 1_545 S
C663 C660 1.511 . S
C663 H677 0.961 . S
C663 H678 0.961 1_565 S
C663 H679 0.961 . S
C664 C665 1.370 . S
C664 C666 1.363 . S
C664 H680 0.931 . S
C665 C664 1.370 . S
C665 C669 1.408 . S
C666 C664 1.363 . S
C666 C667 1.370 . S
C666 C670 1.524 . S
C667 C659 1.503 1_545 S
C667 C666 1.370 . S
C667 C668 1.403 . S
C668 C667 1.403 . S
C668 C669 1.404 . S
C668 C671 1.539 1_545 S
C669 C665 1.408 . S
C669 C668 1.404 . S
C669 H681 0.930 . S
C670 C666 1.524 . S
C670 H682 0.956 . S
C670 H683 0.961 . S
C670 H684 0.961 . S
C671 C668 1.539 1_565 S
C671 H685 0.958 . S
C671 H686 0.961 . S
C671 H687 0.960 . S
H672 C656 0.931 . S
H673 C661 0.929 . S
H674 C662 0.960 . S
H675 C662 0.962 . S
H676 C662 0.960 1_565 S
H677 C663 0.961 . S
H678 C663 0.961 1_545 S
H679 C663 0.961 . S
H680 C664 0.931 . S
H681 C669 0.930 . S
H682 C670 0.956 . S
H683 C670 0.961 . S
H684 C670 0.961 . S
H685 C671 0.958 . S
H686 C671 0.961 . S
H687 C671 0.960 . S
C688 C689 1.391 . S
C688 C690 1.394 . S
C688 H704 0.931 . S
C689 C688 1.391 . S
C689 C693 1.376 1_655 S
C690 C688 1.394 . S
C690 C691 1.384 . S
C690 C694 1.531 . S
C691 C690 1.384 . S
C691 C692 1.396 1_655 S
C691 C699 1.502 1_665 S
C692 C691 1.396 1_455 S
C692 C693 1.392 . S
C692 C695 1.511 . S
C693 C689 1.376 1_455 S
C693 C692 1.392 . S
C693 H705 0.929 . S
C694 C690 1.531 . S
C694 H706 0.960 1_565 S
C694 H707 0.962 . S
C694 H708 0.960 . S
C695 C692 1.511 . S
C695 H709 0.961 . S
C695 H710 0.961 . S
C695 H711 0.961 . S
C696 C697 1.370 1_655 S
C696 C698 1.363 1_545 S
C696 H712 0.931 . S
C697 C696 1.370 1_455 S
C697 C701 1.408 . S
C698 C696 1.363 1_565 S
C698 C699 1.370 1_665 S
C698 C702 1.524 . S
C699 C691 1.502 1_445 S
C699 C698 1.370 1_445 S
C699 C700 1.403 . S
C700 C699 1.403 . S
C700 C701 1.404 . S
C700 C703 1.539 . S
C701 C697 1.408 . S
C701 C700 1.404 . S
C701 H713 0.930 . S
C702 C698 1.524 . S
C702 H714 0.956 . S
C702 H715 0.961 1_655 S
C702 H716 0.961 . S
C703 C700 1.539 . S
C703 H717 0.969 . S
C703 H718 0.961 . S
C703 H719 0.960 . S
H704 C688 0.931 . S
H705 C693 0.929 . S
H706 C694 0.960 1_545 S
H707 C694 0.962 . S
H708 C694 0.960 . S
H709 C695 0.961 . S
H710 C695 0.961 . S
H711 C695 0.961 . S
H712 C696 0.931 . S
H713 C701 0.930 . S
H714 C702 0.956 . S
H715 C702 0.961 1_455 S
H716 C702 0.961 . S
H717 C703 0.969 . S
H718 C703 0.961 . S
H719 C703 0.960 . S
C720 C721 1.391 . S
C720 C722 1.394 . S
C720 H736 0.931 . S
C721 C720 1.391 . S
C721 C725 1.376 . S
C722 C720 1.394 . S
C722 C723 1.369 . S
C722 C726 1.531 . S
C723 C722 1.369 . S
C723 C724 1.410 . S
C723 C731 1.503 1_565 S
C724 C723 1.410 . S
C724 C725 1.392 . S
C724 C727 1.511 . S
C725 C721 1.376 . S
C725 C724 1.392 . S
C725 H737 0.929 . S
C726 C722 1.531 . S
C726 H738 0.960 1_565 S
C726 H739 0.962 . S
C726 H740 0.960 . S
C727 C724 1.511 . S
C727 H741 0.961 . S
C727 H742 0.961 . S
C727 H743 0.961 . S
C728 C729 1.370 . S
C728 C730 1.363 1_545 S
C728 H744 0.931 . S
C729 C728 1.370 . S
C729 C733 1.408 . S
C730 C728 1.363 1_565 S
C730 C731 1.370 1_565 S
C730 C734 1.524 . S
C731 C723 1.503 1_545 S
C731 C730 1.370 1_545 S
C731 C732 1.403 . S
C732 C731 1.403 . S
C732 C733 1.404 . S
C732 C735 1.539 . S
C733 C729 1.408 . S
C733 C732 1.404 . S
C733 H745 0.930 . S
C734 C730 1.524 . S
C734 H746 0.956 . S
C734 H747 0.961 . S
C734 H748 0.961 . S
C735 C732 1.539 . S
C735 H749 0.958 . S
C735 H750 0.961 . S
C735 H751 0.960 . S
H736 C720 0.931 . S
H737 C725 0.929 . S
H738 C726 0.960 1_545 S
H739 C726 0.962 . S
H740 C726 0.960 . S
H741 C727 0.961 . S
H742 C727 0.961 . S
H743 C727 0.961 . S
H744 C728 0.931 . S
H745 C733 0.930 . S
H746 C734 0.956 . S
H747 C734 0.961 . S
H748 C734 0.961 . S
H749 C735 0.958 . S
H750 C735 0.961 . S
H751 C735 0.960 . S
C752 C753 1.391 . S
C752 C754 1.394 . S
C752 H768 0.931 . S
C753 C752 1.391 . S
C753 C757 1.376 1_655 S
C754 C752 1.394 . S
C754 C755 1.369 1_655 S
C754 C758 1.531 1_545 S
C755 C754 1.369 1_455 S
C755 C756 1.410 . S
C755 C763 1.503 1_545 S
C756 C755 1.410 . S
C756 C757 1.392 . S
C756 C759 1.511 . S
C757 C753 1.376 1_455 S
C757 C756 1.392 . S
C757 H769 0.929 . S
C758 C754 1.531 1_565 S
C758 H770 0.960 . S
C758 H771 0.962 . S
C758 H772 0.960 . S
C759 C756 1.511 . S
C759 H773 0.961 . S
C759 H774 0.961 . S
C759 H775 0.961 . S
C760 C761 1.370 1_655 S
C760 C762 1.363 . S
C760 H776 0.931 . S
C761 C760 1.370 1_455 S
C761 C765 1.408 . S
C762 C760 1.363 . S
C762 C763 1.370 1_655 S
C762 C766 1.524 1_565 S
C763 C755 1.503 1_565 S
C763 C762 1.370 1_455 S
C763 C764 1.403 . S
C764 C763 1.403 . S
C764 C765 1.404 . S
C764 C767 1.539 . S
C765 C761 1.408 . S
C765 C764 1.404 . S
C765 H777 0.930 . S
C766 C762 1.524 1_545 S
C766 H778 0.956 . S
C766 H779 0.961 . S
C766 H780 0.961 . S
C767 C764 1.539 . S
C767 H781 0.958 . S
C767 H782 0.961 . S
C767 H783 0.960 1_565 S
H768 C752 0.931 . S
H769 C757 0.929 . S
H770 C758 0.960 . S
H771 C758 0.962 . S
H772 C758 0.960 . S
H773 C759 0.961 . S
H774 C759 0.961 . S
H775 C759 0.961 . S
H776 C760 0.931 . S
H777 C765 0.930 . S
H778 C766 0.956 . S
H779 C766 0.961 . S
H780 C766 0.961 . S
H781 C767 0.958 . S
H782 C767 0.961 . S
H783 C767 0.960 1_545 S
C784 C785 1.391 1_455 S
C784 C786 1.394 . S
C784 H800 0.931 . S
C785 C784 1.391 1_655 S
C785 C789 1.376 . S
C786 C784 1.394 . S
C786 C787 1.369 1_455 S
C786 C790 1.531 1_556 S
C787 C786 1.369 1_655 S
C787 C788 1.410 . S
C787 C795 1.503 1_556 S
C788 C787 1.410 . S
C788 C789 1.392 . S
C788 C791 1.511 . S
C789 C785 1.376 . S
C789 C788 1.392 . S
C789 H801 0.929 . S
C790 C786 1.531 1_554 S
C790 H802 0.960 . S
C790 H803 0.962 . S
C790 H804 0.960 . S
C791 C788 1.511 . S
C791 H805 0.961 . S
C791 H806 0.961 . S
C791 H807 0.961 . S
C792 C793 1.370 1_455 S
C792 C794 1.363 . S
C792 H808 0.931 . S
C793 C792 1.370 1_655 S
C793 C797 1.408 . S
C794 C792 1.363 . S
C794 C795 1.370 1_455 S
C794 C798 1.524 1_554 S
C795 C787 1.503 1_554 S
C795 C794 1.370 1_655 S
C795 C796 1.403 . S
C796 C795 1.403 . S
C796 C797 1.404 . S
C796 C799 1.539 . S
C797 C793 1.408 . S
C797 C796 1.404 . S
C797 H809 0.930 . S
C798 C794 1.524 1_556 S
C798 H810 0.956 . S
C798 H811 0.961 . S
C798 H812 0.961 . S
C799 C796 1.539 . S
C799 H813 0.958 . S
C799 H814 0.961 . S
C799 H815 0.960 . S
H800 C784 0.931 . S
H801 C789 0.929 . S
H802 C790 0.960 . S
H803 C790 0.962 . S
H804 C790 0.960 . S
H805 C791 0.961 . S
H806 C791 0.961 . S
H807 C791 0.961 . S
H808 C792 0.931 . S
H809 C797 0.930 . S
H810 C798 0.956 . S
H811 C798 0.961 . S
H812 C798 0.961 . S
H813 C799 0.958 . S
H814 C799 0.961 . S
H815 C799 0.960 . S
C816 C817 1.391 . S
C816 C818 1.394 . S
C816 H832 0.931 . S
C817 C816 1.391 . S
C817 C821 1.376 . S
C818 C816 1.394 . S
C818 C819 1.369 . S
C818 C822 1.531 . S
C819 C818 1.369 . S
C819 C820 1.410 . S
C819 C827 1.503 . S
C820 C819 1.410 . S
C820 C821 1.392 . S
C820 C823 1.511 . S
C821 C817 1.376 . S
C821 C820 1.392 . S
C821 H833 0.929 . S
C822 C818 1.531 . S
C822 H834 0.960 . S
C822 H835 0.962 . S
C822 H836 0.960 . S
C823 C820 1.511 . S
C823 H837 0.961 . S
C823 H838 0.961 . S
C823 H839 0.961 . S
C824 C825 1.370 . S
C824 C826 1.363 . S
C824 H840 0.931 . S
C825 C824 1.370 . S
C825 C829 1.408 . S
C826 C824 1.363 . S
C826 C827 1.370 . S
C826 C830 1.524 . S
C827 C819 1.503 . S
C827 C826 1.370 . S
C827 C828 1.403 . S
C828 C827 1.403 . S
C828 C829 1.404 . S
C828 C831 1.539 . S
C829 C825 1.408 . S
C829 C828 1.404 . S
C829 H841 0.930 . S
C830 C826 1.524 . S
C830 H842 0.956 . S
C830 H843 0.961 . S
C830 H844 0.961 . S
C831 C828 1.539 . S
C831 H845 0.958 . S
C831 H846 0.961 . S
C831 H847 0.960 . S
H832 C816 0.931 . S
H833 C821 0.929 . S
H834 C822 0.960 . S
H835 C822 0.962 . S
H836 C822 0.960 . S
H837 C823 0.961 . S
H838 C823 0.961 . S
H839 C823 0.961 . S
H840 C824 0.931 . S
H841 C829 0.930 . S
H842 C830 0.956 . S
H843 C830 0.961 . S
H844 C830 0.961 . S
H845 C831 0.958 . S
H846 C831 0.961 . S
H847 C831 0.960 . S
C848 C849 1.391 . S
C848 C850 1.394 . S
C848 H864 0.931 . S
C849 C848 1.391 . S
C849 C853 1.376 . S
C850 C848 1.394 . S
C850 C851 1.369 . S
C850 C854 1.531 . S
C851 C850 1.369 . S
C851 C852 1.410 . S
C851 C859 1.503 1_546 S
C852 C851 1.410 . S
C852 C853 1.392 . S
C852 C855 1.511 1_556 S
C853 C849 1.376 . S
C853 C852 1.392 . S
C853 H865 0.929 . S
C854 C850 1.531 . S
C854 H866 0.960 1_546 S
C854 H867 0.962 1_545 S
C854 H868 0.960 . S
C855 C852 1.511 1_554 S
C855 H869 0.961 1_554 S
C855 H870 0.961 . S
C855 H871 0.961 . S
C856 C857 1.370 . S
C856 C858 1.363 . S
C856 H872 0.931 . S
C857 C856 1.370 . S
C857 C861 1.408 . S
C858 C856 1.363 . S
C858 C859 1.370 . S
C858 C862 1.524 1_554 S
C859 C851 1.503 1_564 S
C859 C858 1.370 . S
C859 C860 1.403 1_565 S
C860 C859 1.403 1_545 S
C860 C861 1.404 1_545 S
C860 C863 1.539 . S
C861 C857 1.408 . S
C861 C860 1.404 1_565 S
C861 H873 0.930 . S
C862 C858 1.524 1_556 S
C862 H874 0.956 . S
C862 H875 0.961 . S
C862 H876 0.961 . S
C863 C860 1.539 . S
C863 H877 0.958 . S
C863 H878 0.961 . S
C863 H879 0.960 . S
H864 C848 0.931 . S
H865 C853 0.929 . S
H866 C854 0.960 1_564 S
H867 C854 0.962 1_565 S
H868 C854 0.960 . S
H869 C855 0.961 1_556 S
H870 C855 0.961 . S
H871 C855 0.961 . S
H872 C856 0.931 . S
H873 C861 0.930 . S
H874 C862 0.956 . S
H875 C862 0.961 . S
H876 C862 0.961 . S
H877 C863 0.958 . S
H878 C863 0.961 . S
H879 C863 0.960 . S
C880 C881 1.391 . S
C880 C882 1.394 . S
C880 H896 0.926 1_455 S
C881 C880 1.391 . S
C881 C885 1.376 . S
C882 C880 1.394 . S
C882 C883 1.369 . S
C882 C886 1.531 1_455 S
C883 C882 1.369 . S
C883 C884 1.410 . S
C883 C891 1.503 1_565 S
C884 C883 1.410 . S
C884 C885 1.392 . S
C884 C887 1.511 1_565 S
C885 C881 1.376 . S
C885 C884 1.392 . S
C885 H897 0.929 . S
C886 C882 1.531 1_655 S
C886 H898 0.960 . S
C886 H899 0.962 . S
C886 H900 0.960 . S
C887 C884 1.511 1_545 S
C887 H901 0.961 . S
C887 H902 0.961 . S
C887 H903 0.961 1_545 S
C888 C889 1.370 . S
C888 C890 1.363 . S
C888 H904 0.931 . S
C889 C888 1.370 . S
C889 C893 1.408 . S
C890 C888 1.363 . S
C890 C891 1.370 . S
C890 C894 1.524 . S
C891 C883 1.503 1_545 S
C891 C890 1.370 . S
C891 C892 1.402 1_545 S
C892 C891 1.402 1_565 S
C892 C893 1.402 1_565 S
C892 C895 1.541 . S
C893 C889 1.408 . S
C893 C892 1.402 1_545 S
C893 H905 0.930 . S
C894 C890 1.524 . S
C894 H906 0.956 1_455 S
C894 H907 0.961 . S
C894 H908 0.961 . S
C895 C892 1.541 . S
C895 H909 0.958 . S
C895 H910 0.961 . S
C895 H911 0.960 . S
H896 C880 0.926 1_655 S
H897 C885 0.929 . S
H898 C886 0.960 . S
H899 C886 0.962 . S
H900 C886 0.960 . S
H901 C887 0.961 . S
H902 C887 0.961 . S
H903 C887 0.961 1_565 S
H904 C888 0.931 . S
H905 C893 0.930 . S
H906 C894 0.956 1_655 S
H907 C894 0.961 . S
H908 C894 0.961 . S
H909 C895 0.958 . S
H910 C895 0.961 . S
H911 C895 0.960 . S
C273 C206 1.558 . S
C281 C33 1.620 . S
C305 C67 1.625 . S
C313 C240 1.569 . S
C337 C138 1.560 . S
C345 C101 1.619 . S
C369 C135 1.625 . S
C377 C172 1.568 . S
C401 C169 1.604 . S
C409 C70 1.582 . S
C433 C203 1.621 . S
C441 C104 1.569 . S
C465 C2 1.585 . S
C473 C237 1.614 . S
C497 C36 1.599 . S
C505 C271 1.609 . S
C529 C20 1.961 . S
C537 C247 1.866 . S
C561 C54 1.989 . S
C569 C213 1.888 . S
C593 C179 1.844 . S
C601 C88 1.980 . S
C625 C122 1.990 . S
C633 C145 1.886 . S
C657 C156 1.988 . S
C665 C111 1.875 . S
C689 C77 1.856 1_655 S
C697 C190 1.983 . S
C721 C43 1.852 . S
C729 C224 1.982 . S
C753 C9 1.842 1_655 S
C761 C258 1.979 . S
C785 C73 0.092 . S
C793 C5 0.187 . S
C817 C39 0.212 . S
C825 C107 0.227 . S
C849 C209 0.163 . S
C857 C141 0.222 . S
C881 C243 0.096 . S
C889 C175 0.197 . S
