# Generated by pormake.
# Topology vby, (6)-cn, num edge types: 1
# Building blocks:
#     Node 0, Type 0, BuildingBlock: BETFAJ_clean_sbu_0, # of connection points: 6
#     Node 1, Type 0, BuildingBlock: BETFAJ_clean_sbu_0, # of connection points: 6
#     Node 2, Type 0, BuildingBlock: BETFAJ_clean_sbu_0, # of connection points: 6
#     Node 3, Type 0, BuildingBlock: BETFAJ_clean_sbu_0, # of connection points: 6
#     Node 4, Type 0, BuildingBlock: BETFAJ_clean_sbu_0, # of connection points: 6
#     Node 5, Type 0, BuildingBlock: BETFAJ_clean_sbu_0, # of connection points: 6
#     Node 6, Type 0, BuildingBlock: BETFAJ_clean_sbu_0, # of connection points: 6
#     Node 7, Type 0, BuildingBlock: BETFAJ_clean_sbu_0, # of connection points: 6
#     Edge 8, Type (0, 0), BuildingBlock: CIFDUS_clean_linker_0, # of connection points: 2
#     Edge 9, Type (0, 0), BuildingBlock: CIFDUS_clean_linker_0, # of connection points: 2
#     Edge 10, Type (0, 0), BuildingBlock: CIFDUS_clean_linker_0, # of connection points: 2
#     Edge 11, Type (0, 0), BuildingBlock: CIFDUS_clean_linker_0, # of connection points: 2
#     Edge 12, Type (0, 0), BuildingBlock: CIFDUS_clean_linker_0, # of connection points: 2
#     Edge 13, Type (0, 0), BuildingBlock: CIFDUS_clean_linker_0, # of connection points: 2
#     Edge 14, Type (0, 0), BuildingBlock: CIFDUS_clean_linker_0, # of connection points: 2
#     Edge 15, Type (0, 0), BuildingBlock: CIFDUS_clean_linker_0, # of connection points: 2
#     Edge 16, Type (0, 0), BuildingBlock: CIFDUS_clean_linker_0, # of connection points: 2
#     Edge 17, Type (0, 0), BuildingBlock: CIFDUS_clean_linker_0, # of connection points: 2
#     Edge 18, Type (0, 0), BuildingBlock: CIFDUS_clean_linker_0, # of connection points: 2
#     Edge 19, Type (0, 0), BuildingBlock: CIFDUS_clean_linker_0, # of connection points: 2
#     Edge 20, Type (0, 0), BuildingBlock: CIFDUS_clean_linker_0, # of connection points: 2
#     Edge 21, Type (0, 0), BuildingBlock: CIFDUS_clean_linker_0, # of connection points: 2
#     Edge 22, Type (0, 0), BuildingBlock: CIFDUS_clean_linker_0, # of connection points: 2
#     Edge 23, Type (0, 0), BuildingBlock: CIFDUS_clean_linker_0, # of connection points: 2
#     Edge 24, Type (0, 0), BuildingBlock: CIFDUS_clean_linker_0, # of connection points: 2
#     Edge 25, Type (0, 0), BuildingBlock: CIFDUS_clean_linker_0, # of connection points: 2
#     Edge 26, Type (0, 0), BuildingBlock: CIFDUS_clean_linker_0, # of connection points: 2
#     Edge 27, Type (0, 0), BuildingBlock: CIFDUS_clean_linker_0, # of connection points: 2
#     Edge 28, Type (0, 0), BuildingBlock: CIFDUS_clean_linker_0, # of connection points: 2
#     Edge 29, Type (0, 0), BuildingBlock: CIFDUS_clean_linker_0, # of connection points: 2
#     Edge 30, Type (0, 0), BuildingBlock: CIFDUS_clean_linker_0, # of connection points: 2
#     Edge 31, Type (0, 0), BuildingBlock: CIFDUS_clean_linker_0, # of connection points: 2
# Relax obj value: 0.204
# Max RMSD: 0.220
# Mean RMSD: 0.220
data_MOF--net-vby--node1-BETFAJ_clean_sbu_0--edge1-CIFDUS_clean_linker_0
_symmetry_space_group_name_H-M    P1
_symmetry_Int_Tables_number       1
_symmetry_cell_setting            triclinic
loop_
_symmetry_equiv_pos_as_xyz
'x, y, z'
_cell_length_a     13.739408
_cell_length_b     96.569155
_cell_length_c     25.611319
_cell_angle_alpha  89.900768
_cell_angle_beta   86.600886
_cell_angle_gamma 89.750692
loop_
_atom_site_label
_atom_site_type_symbol
_atom_site_fract_x
_atom_site_fract_y
_atom_site_fract_z
_atom_type_partial_charge
Sm0 Sm 0.09168 0.40749 0.02118 0.0
Sm1 Sm 0.08479 0.37513 0.01749 0.0
C2 C 0.06505 0.43447 0.01599 0.0
C3 C 0.05079 0.44962 0.01569 0.0
C4 C 1.03081 0.45666 0.96947 0.0
C5 C 1.01641 0.47103 0.96998 0.0
C6 C 1.02267 0.4785 0.01658 0.0
C7 C 0.04183 0.47149 0.06278 0.0
C8 C 0.05528 0.45715 0.06243 0.0
C9 C 0.09918 0.39396 0.11555 0.0
C10 C 0.87762 0.39168 0.02062 0.0
C11 C 0.09896 0.34922 0.04947 0.0
C12 C 0.14929 0.33595 0.03706 0.0
C13 C 0.19836 0.32909 0.07626 0.0
C14 C 0.23094 0.31544 0.06892 0.0
C15 C 0.21391 0.30841 0.02245 0.0
C16 C 0.17128 0.31557 0.98182 0.0
C17 C 0.13985 0.32927 0.98887 0.0
C18 C 0.10055 0.38433 0.9158 0.0
C19 C 0.29826 0.3916 0.00817 0.0
O20 O 0.09069 0.42717 0.97422 0.0
O21 O 0.05524 0.42744 0.05956 0.0
O22 O 0.04515 0.39095 0.07926 0.0
O23 O 0.15465 0.40438 0.10196 0.0
O24 O 0.92754 0.4033 0.01475 0.0
O25 O 0.91985 0.37948 0.02597 0.0
O26 O 0.15072 0.35928 0.06796 0.0
O27 O 1.03328 0.35348 0.01779 0.0
O28 O 0.09686 0.392 0.9558 0.0
O29 O 0.09746 0.37136 0.92903 0.0
O30 O 0.24969 0.37999 0.01805 0.0
O31 O 0.25474 0.4037 1.00285 0.0
H32 H 1.02595 0.45107 0.9331 0.0
H33 H 1.00159 0.47633 0.93398 0.0
H34 H 0.04692 0.47713 0.09905 0.0
H35 H 0.07025 0.45198 0.09868 0.0
H36 H 0.20683 0.33403 0.11366 0.0
H37 H 0.26345 0.31007 0.10079 0.0
H38 H 0.15815 0.31033 0.94555 0.0
H39 H 0.10365 0.33435 0.9576 0.0
Sm40 Sm 0.99536 0.66019 0.02042 0.0
Sm41 Sm 0.9712 0.63015 0.02201 0.0
C42 C 0.98702 0.68741 1.00398 0.0
C43 C 0.92692 0.70022 0.01107 0.0
C44 C 0.86741 0.70489 0.97165 0.0
C45 C 0.82352 0.71804 0.97483 0.0
C46 C 0.83959 0.72686 0.01699 0.0
C47 C 0.89567 0.72201 0.05734 0.0
C48 C 0.9385 0.70884 0.05453 0.0
C49 C 1.02352 0.64899 0.11718 0.0
C50 C 0.77253 0.64719 0.03458 0.0
C51 C 0.97059 0.6029 0.03722 0.0
C52 C 1.01569 0.58905 0.02904 0.0
C53 C 0.04907 0.58177 0.07215 0.0
C54 C 0.07278 0.56769 0.06802 0.0
C55 C 0.06273 0.56065 0.02084 0.0
C56 C 1.03412 0.568 0.97701 0.0
C57 C 1.01111 0.5821 0.98096 0.0
C58 C 0.96417 0.64169 0.92286 0.0
C59 C 0.19451 0.64279 0.01021 0.0
O60 O 0.96339 0.67824 0.96942 0.0
O61 O 1.02144 0.68178 0.04549 0.0
O62 O 0.95415 0.6455 0.08915 0.0
O63 O 0.07531 0.6588 0.09541 0.0
O64 O 0.82725 0.65789 0.02028 0.0
O65 O 0.81235 0.63525 0.04588 0.0
O66 O 1.00812 0.6116 0.06945 0.0
O67 O 0.9321 0.60898 0.9978 0.0
O68 O 1.02583 0.64463 0.95565 0.0
O69 O 0.90345 0.63255 0.94206 0.0
O70 O 0.13918 0.63203 0.02346 0.0
O71 O 0.1554 0.65483 0.99858 0.0
H72 H 0.85773 0.69862 0.93734 0.0
H73 H 0.78094 0.72157 0.94308 0.0
H74 H 0.90844 0.72858 0.09049 0.0
H75 H 0.98411 0.70565 0.0855 0.0
H76 H 0.052 0.58678 0.10983 0.0
H77 H 0.09423 0.56214 0.10232 0.0
H78 H 1.02599 0.56269 0.94029 0.0
H79 H 0.98511 0.58735 0.94705 0.0
Sm80 Sm 0.07958 0.66095 0.51851 0.0
Sm81 Sm 0.10236 0.63098 0.51898 0.0
C82 C 0.09019 0.68822 0.53372 0.0
C83 C 0.15023 0.70098 0.52648 0.0
C84 C 0.1802 0.70812 0.57052 0.0
C85 C 0.22133 0.72136 0.56551 0.0
C86 C 0.23366 0.72782 0.51627 0.0
C87 C 0.20865 0.72035 0.47186 0.0
C88 C 0.16712 0.70713 0.47689 0.0
C89 C 0.05881 0.64965 0.42107 0.0
C90 C 0.30213 0.64689 0.51228 0.0
C91 C 0.07903 0.60387 0.51542 0.0
C92 C 0.06527 0.58871 0.51672 0.0
C93 C 0.05892 0.58104 0.4705 0.0
C94 C 0.04177 0.56675 0.47283 0.0
C95 C 1.03005 0.55995 0.52142 0.0
C96 C 1.03523 0.56768 0.56747 0.0
C97 C 0.05278 0.58188 0.56515 0.0
C98 C 0.11029 0.64284 0.61685 0.0
C99 C 0.88317 0.64415 0.52135 0.0
O100 O 0.114 0.67907 0.56847 0.0
O101 O 0.05505 0.68258 0.49258 0.0
O102 O 0.12486 0.64603 0.45111 0.0
O103 O 1.00598 0.65963 0.44116 0.0
O104 O 0.2459 0.65772 0.52379 0.0
O105 O 0.26438 0.63485 0.50075 0.0
O106 O 0.09849 0.61111 0.47284 0.0
O107 O 0.07681 0.61098 0.55867 0.0
O108 O 0.04743 0.64575 0.58429 0.0
O109 O 0.17351 0.63401 0.59716 0.0
O110 O 0.94123 0.63425 0.50274 0.0
O111 O 0.92008 0.65546 0.54092 0.0
H112 H 0.1682 0.70369 0.60925 0.0
H113 H 0.24152 0.72669 0.60043 0.0
H114 H 0.21681 0.72499 0.43333 0.0
H115 H 0.14475 0.70198 0.44205 0.0
H116 H 0.06652 0.58608 0.43267 0.0
H117 H 1.0372 0.56102 0.43673 0.0
H118 H 1.02772 0.56269 0.60541 0.0
H119 H 0.05656 0.5875 0.60153 0.0
Sm120 Sm 0.98469 0.40642 0.52061 0.0
Sm121 Sm 0.97572 0.37607 0.52286 0.0
C122 C 1.01408 0.43337 0.52417 0.0
C123 C 1.03062 0.44846 0.52268 0.0
C124 C 1.03609 0.4562 0.56879 0.0
C125 C 0.04786 0.4706 0.56629 0.0
C126 C 0.05531 0.47741 0.51763 0.0
C127 C 0.05115 0.46961 0.47169 0.0
C128 C 1.0387 0.45531 0.47418 0.0
C129 C 0.98079 0.39413 0.42269 0.0
C130 C 0.18928 0.38913 0.51764 0.0
C131 C 0.9545 0.34914 0.50603 0.0
C132 C 0.90003 0.33599 0.51351 0.0
C133 C 0.84395 0.33091 0.47362 0.0
C134 C 0.80694 0.31742 0.47614 0.0
C135 C 0.82668 0.30867 0.51815 0.0
C136 C 0.87995 0.31387 0.55885 0.0
C137 C 0.91595 0.3274 0.55668 0.0
C138 C 1.0006 0.38718 0.61968 0.0
C139 C 0.76945 0.3941 0.52904 0.0
O140 O 1.01394 0.42574 0.56648 0.0
O141 O 0.99893 0.42663 0.4814 0.0
O142 O 1.0319 0.39038 0.45926 0.0
O143 O 0.92496 0.40431 0.43844 0.0
O144 O 0.14488 0.40058 0.53432 0.0
O145 O 0.13841 0.37873 0.50038 0.0
O146 O 0.92294 0.35868 0.47469 0.0
O147 O 0.99811 0.35423 0.54564 0.0
O148 O 0.94155 0.39203 0.58801 0.0
O149 O 0.0419 0.37595 0.60186 0.0
O150 O 0.8124 0.3821 0.51758 0.0
O151 O 0.82098 0.4051 0.53927 0.0
H152 H 1.03018 0.45117 0.60667 0.0
H153 H 0.05148 0.47641 0.60227 0.0
H154 H 0.05547 0.47461 0.43373 0.0
H155 H 1.03459 0.44965 0.4379 0.0
H156 H 0.83192 0.33715 0.43939 0.0
H157 H 0.76651 0.31362 0.4441 0.0
H158 H 0.89529 0.30737 0.59192 0.0
H159 H 0.95965 0.33091 0.58786 0.0
Sm160 Sm 0.58284 0.90652 0.01504 0.0
Sm161 Sm 0.60297 0.87503 0.02417 0.0
C162 C 0.53002 0.93257 0.9989 0.0
C163 C 0.54031 0.94766 0.00587 0.0
C164 C 0.53375 0.95621 0.96188 0.0
C165 C 0.53737 0.9706 0.96665 0.0
C166 C 0.54805 0.97669 0.01556 0.0
C167 C 0.55336 0.96822 0.05994 0.0
C168 C 0.54895 0.95376 0.05524 0.0
C169 C 0.60439 0.8964 0.11489 0.0
C170 C 0.38528 0.88796 0.01895 0.0
C171 C 0.62065 0.84928 0.05829 0.0
C172 C 0.66707 0.83575 0.04486 0.0
C173 C 0.73024 0.82978 0.07973 0.0
C174 C 0.76728 0.81641 0.0713 0.0
C175 C 0.74096 0.8086 0.02813 0.0
C176 C 0.67965 0.81466 0.99235 0.0
C177 C 0.64346 0.82815 1.00043 0.0
C178 C 0.60148 0.88036 0.91861 0.0
C179 C 0.80201 0.89421 0.01186 0.0
O180 O 0.59337 0.92596 0.96771 0.0
O181 O 0.49646 0.92515 0.03869 0.0
O182 O 0.5522 0.8913 0.08123 0.0
O183 O 0.64632 0.90757 0.09674 0.0
O184 O 0.42838 0.89911 0.99915 0.0
O185 O 0.43676 0.87782 0.03847 0.0
O186 O 0.67709 0.85939 0.07226 0.0
O187 O 0.54936 0.85347 0.0303 0.0
O188 O 0.59475 0.88977 0.95317 0.0
O189 O 0.61802 0.86849 0.93955 0.0
O190 O 0.76145 0.88264 0.03017 0.0
O191 O 0.74847 0.90472 0.99649 0.0
H192 H 0.52527 0.95174 0.92366 0.0
H193 H 0.53331 0.97699 0.93201 0.0
H194 H 0.56136 0.97279 0.09804 0.0
H195 H 0.5524 0.94741 0.08998 0.0
H196 H 0.74898 0.83533 0.11443 0.0
H197 H 0.81391 0.81197 0.09966 0.0
H198 H 0.65917 0.80891 0.95843 0.0
H199 H 0.59529 0.83247 0.97259 0.0
Sm200 Sm 0.49716 0.16065 0.02329 0.0
Sm201 Sm 0.47992 0.13038 0.01835 0.0
C202 C 0.48374 0.18778 0.00867 0.0
C203 C 0.42503 0.20064 0.01545 0.0
C204 C 0.38592 0.20692 0.97166 0.0
C205 C 0.352 0.22061 0.97422 0.0
C206 C 0.35746 0.22823 0.02048 0.0
C207 C 0.38928 0.22168 0.06532 0.0
C208 C 0.42237 0.20797 0.06296 0.0
C209 C 0.50822 0.14799 0.11917 0.0
C210 C 0.27685 0.14629 0.03127 0.0
C211 C 0.50426 0.10335 0.02433 0.0
C212 C 0.51784 0.08819 0.02465 0.0
C213 C 0.53076 0.08094 0.07138 0.0
C214 C 0.53697 0.06645 0.07116 0.0
C215 C 0.53076 0.05912 0.02423 0.0
C216 C 0.52334 0.06638 0.97727 0.0
C217 C 0.51736 0.0808 0.97742 0.0
C218 C 0.4753 0.14305 0.92227 0.0
C219 C 0.69907 0.14434 0.01351 0.0
O220 O 0.45948 0.1787 0.97394 0.0
O221 O 0.51964 0.18216 0.04988 0.0
O222 O 0.44704 0.14501 0.08603 0.0
O223 O 0.5627 0.1582 0.1028 0.0
O224 O 0.33007 0.1575 0.02198 0.0
O225 O 0.31746 0.13407 0.03766 0.0
O226 O 0.51577 0.11137 0.06465 0.0
O227 O 0.47486 0.10964 0.98295 0.0
O228 O 0.53351 0.14605 0.95681 0.0
O229 O 0.41726 0.13317 0.9382 0.0
O230 O 0.64517 0.13341 0.02531 0.0
O231 O 0.65901 0.15639 1.0035 0.0
H232 H 0.38749 0.20158 0.93445 0.0
H233 H 0.32804 0.22553 0.93914 0.0
H234 H 0.39377 0.22742 0.10139 0.0
H235 H 0.45174 0.20346 0.09747 0.0
H236 H 0.53308 0.08641 0.10817 0.0
H237 H 0.54265 0.06096 0.10777 0.0
H238 H 0.51876 0.06086 0.94071 0.0
H239 H 0.50982 0.08612 0.94061 0.0
Sm240 Sm 0.58934 0.16024 0.5191 0.0
Sm241 Sm 0.61186 0.12965 0.51643 0.0
C242 C 0.59711 0.18732 0.53723 0.0
C243 C 0.65626 0.2001 0.52918 0.0
C244 C 0.71497 0.20492 0.56848 0.0
C245 C 0.75775 0.21807 0.56468 0.0
C246 C 0.7414 0.22674 0.52194 0.0
C247 C 0.68647 0.22171 0.48159 0.0
C248 C 0.64463 0.20853 0.48507 0.0
C249 C 0.57191 0.14927 0.42155 0.0
C250 C 0.81139 0.14672 0.50624 0.0
C251 C 0.61156 0.10248 0.49964 0.0
C252 C 0.56694 0.08859 0.50696 0.0
C253 C 0.53259 0.08168 0.46353 0.0
C254 C 0.51021 0.06756 0.46619 0.0
C255 C 0.52234 0.05997 0.51231 0.0
C256 C 0.55097 0.06707 0.55677 0.0
C257 C 0.57305 0.08122 0.55416 0.0
C258 C 0.61057 0.14078 0.61651 0.0
C259 C 0.38944 0.14304 0.5266 0.0
O260 O 0.62469 0.17796 0.57044 0.0
O261 O 0.55877 0.18192 0.49649 0.0
O262 O 0.63635 0.14554 0.45219 0.0
O263 O 0.51954 0.15939 0.44095 0.0
O264 O 0.75711 0.15762 0.51938 0.0
O265 O 0.77192 0.13473 0.49587 0.0
O266 O 0.57382 0.11142 0.46802 0.0
O267 O 0.65091 0.10829 0.53924 0.0
O268 O 0.55455 0.14419 0.58146 0.0
O269 O 0.66967 0.13122 0.59851 0.0
O270 O 0.44421 0.13212 0.51379 0.0
O271 O 0.4285 0.15502 0.53826 0.0
H272 H 0.72465 0.19877 0.60322 0.0
H273 H 0.79944 0.22174 0.59646 0.0
H274 H 0.67363 0.22815 0.44797 0.0
H275 H 0.59972 0.20521 0.4541 0.0
H276 H 0.52814 0.08701 0.4265 0.0
H277 H 0.48885 0.06244 0.43111 0.0
H278 H 0.5592 0.06159 0.59319 0.0
H279 H 0.5993 0.08621 0.58845 0.0
Sm280 Sm 0.46509 0.90739 0.52119 0.0
Sm281 Sm 0.48949 0.87705 0.52008 0.0
C282 C 0.46437 0.93463 0.53692 0.0
C283 C 0.5101 0.94847 0.53021 0.0
C284 C 0.54442 0.95524 0.57396 0.0
C285 C 0.56768 0.96934 0.57179 0.0
C286 C 0.55642 0.97704 0.52586 0.0
C287 C 0.52809 0.97006 0.48105 0.0
C288 C 0.50511 0.95593 0.48317 0.0
C289 C 0.46949 0.89623 0.42103 0.0
C290 C 0.68817 0.89432 0.51254 0.0
C291 C 0.48417 0.84968 0.50608 0.0
C292 C 0.42642 0.83668 0.51318 0.0
C293 C 0.39813 0.82938 0.46911 0.0
C294 C 0.35855 0.81604 0.47413 0.0
C295 C 0.34615 0.8096 0.52342 0.0
C296 C 0.37012 0.81716 0.56781 0.0
C297 C 0.4101 0.83049 0.56277 0.0
C298 C 0.50456 0.88863 0.61749 0.0
C299 C 0.26703 0.89018 0.52956 0.0
O300 O 0.49942 0.92575 0.56966 0.0
O301 O 0.42797 0.92873 0.49663 0.0
O302 O 0.52485 0.89282 0.45648 0.0
O303 O 0.40828 0.90553 0.43909 0.0
O304 O 0.63233 0.90508 0.52588 0.0
O305 O 0.64984 0.88235 0.50008 0.0
O306 O 0.46082 0.85861 0.47034 0.0
O307 O 0.51594 0.85561 0.54754 0.0
O308 O 0.43931 0.89189 0.58665 0.0
O309 O 0.55966 0.87883 0.59775 0.0
O310 O 0.32264 0.87949 0.51556 0.0
O311 O 0.30545 0.90211 0.5417 0.0
H312 H 0.54811 0.94983 0.61089 0.0
H313 H 0.58887 0.97437 0.60711 0.0
H314 H 0.52056 0.97563 0.44475 0.0
H315 H 0.47895 0.95106 0.44865 0.0
H316 H 0.40999 0.8338 0.43036 0.0
H317 H 0.33928 0.81064 0.43919 0.0
H318 H 0.36209 0.81254 0.60638 0.0
H319 H 0.4315 0.83571 0.59766 0.0
H320 H 0.42914 0.40434 0.06721 0.0
H321 H 0.40659 0.37666 0.93689 0.0
H322 H 0.58437 0.37396 0.92916 0.0
H323 H 0.74689 0.37909 0.96096 0.0
H324 H 0.76942 0.40676 0.09131 0.0
H325 H 0.59175 0.40951 0.09896 0.0
C326 C 0.46365 0.39782 0.03698 0.0
C327 C 0.40564 0.39075 1.00244 0.0
C328 C 0.56577 0.39611 0.03352 0.0
C329 C 0.45038 0.38216 0.96386 0.0
C330 C 0.55181 0.38059 0.95955 0.0
C331 C 0.71239 0.38566 0.99104 0.0
C332 C 0.77035 0.39273 0.02552 0.0
C333 C 0.6103 0.3874 0.99448 0.0
C334 C 0.72565 0.40131 0.06417 0.0
C335 C 0.62426 0.4029 0.06849 0.0
H336 H 0.32592 0.66305 0.02721 0.0
H337 H 0.30407 0.61928 0.99726 0.0
H338 H 0.48007 0.61664 1.00393 0.0
H339 H 0.6408 0.62677 0.01882 0.0
H340 H 0.66227 0.67057 0.04853 0.0
H341 H 0.48614 0.67314 0.04253 0.0
C342 C 0.35988 0.65296 0.02162 0.0
C343 C 0.30202 0.6414 0.01128 0.0
C344 C 0.46106 0.65148 0.02633 0.0
C345 C 0.34691 0.62835 0.00518 0.0
C346 C 0.44759 0.62682 0.00913 0.0
C347 C 0.60675 0.63685 0.02449 0.0
C348 C 0.6647 0.64846 0.03439 0.0
C349 C 0.5054 0.6383 0.02005 0.0
C350 C 0.61951 0.66148 0.04081 0.0
C351 C 0.51875 0.66296 0.03725 0.0
H352 H 0.73627 0.66085 0.56135 0.0
H353 H 0.79132 0.62407 0.46848 0.0
H354 H 0.61767 0.62157 0.45723 0.0
H355 H 0.44868 0.62985 0.47333 0.0
H356 H 0.39437 0.66681 0.56519 0.0
H357 H 0.56788 0.66909 0.57739 0.0
C358 C 0.71022 0.65229 0.53876 0.0
C359 C 0.77692 0.64267 0.51612 0.0
C360 C 0.60984 0.6509 0.53212 0.0
C361 C 0.74176 0.63161 0.48685 0.0
C362 C 0.64222 0.63016 0.48017 0.0
C363 C 0.47493 0.63842 0.49583 0.0
C364 C 0.4085 0.64822 0.51773 0.0
C365 C 0.57542 0.63975 0.50257 0.0
C366 C 0.44384 0.65923 0.54705 0.0
C367 C 0.54322 0.66053 0.55435 0.0
H368 H 0.63671 0.37362 0.5157 0.0
H369 H 0.65911 0.41764 0.54145 0.0
H370 H 0.48259 0.42004 0.53987 0.0
H371 H 0.32102 0.40966 0.53153 0.0
H372 H 0.29903 0.36569 0.5049 0.0
H373 H 0.47557 0.3633 0.50668 0.0
C374 C 0.60312 0.38374 0.52112 0.0
C375 C 0.66156 0.39539 0.52905 0.0
C376 C 0.50124 0.38508 0.52004 0.0
C377 C 0.6163 0.40844 0.53573 0.0
C378 C 0.51511 0.40985 0.53471 0.0
C379 C 0.35486 0.39956 0.52612 0.0
C380 C 0.29674 0.38789 0.51798 0.0
C381 C 0.45678 0.39824 0.527 0.0
C382 C 0.34193 0.37488 0.51086 0.0
C383 C 0.44301 0.37348 0.51202 0.0
H384 H 0.93286 0.87584 0.04904 0.0
H385 H 0.91683 0.91512 0.96919 0.0
H386 H 0.09484 0.91664 0.96412 0.0
H387 H 0.25565 0.90671 0.98176 0.0
H388 H 0.26988 0.86745 0.06204 0.0
H389 H 0.09236 0.86611 0.06747 0.0
C390 C 0.96793 0.88476 0.03041 0.0
C391 C 0.91068 0.89532 0.00935 0.0
C392 C 0.07046 0.88557 0.02762 0.0
C393 C 0.95835 0.90681 0.98575 0.0
C394 C 0.06044 0.90768 0.98277 0.0
C395 C 0.22009 0.89782 1.00032 0.0
C396 C 0.27679 0.88713 0.02113 0.0
C397 C 0.11734 0.8971 1.00342 0.0
C398 C 0.22877 0.87578 0.04529 0.0
C399 C 0.12694 0.87501 0.04854 0.0
H400 H 0.14438 0.12751 1.00094 0.0
H401 H 0.16912 0.16836 0.06641 0.0
H402 H 0.99261 0.17158 0.06574 0.0
H403 H 0.83098 0.16298 0.04463 0.0
H404 H 0.80584 0.12211 0.97961 0.0
H405 H 0.98237 0.11882 0.98058 0.0
C406 C 0.11082 0.13706 0.01543 0.0
C407 C 0.16947 0.14769 0.0337 0.0
C408 C 1.00936 0.13893 0.01406 0.0
C409 C 0.12539 0.16007 0.05182 0.0
C410 C 1.02453 0.16193 0.05137 0.0
C411 C 0.86456 0.15342 0.03035 0.0
C412 C 0.80605 0.14282 0.01188 0.0
C413 C 0.96588 0.1515 0.032 0.0
C414 C 0.84978 0.13038 0.99419 0.0
C415 C 0.95058 0.12849 0.99482 0.0
H416 H 0.25931 0.1621 0.49521 0.0
H417 H 0.2798 0.12093 0.55899 0.0
H418 H 0.1028 0.11828 0.55743 0.0
H419 H 0.94192 0.12758 0.53671 0.0
H420 H 0.9213 0.16877 0.47316 0.0
H421 H 0.09843 0.17138 0.47424 0.0
C422 C 0.22468 0.1526 0.50906 0.0
C423 C 0.28214 0.14174 0.52739 0.0
C424 C 0.12306 0.15107 0.50714 0.0
C425 C 0.23689 0.1294 0.5445 0.0
C426 C 0.13579 0.12787 0.54354 0.0
C427 C 0.97651 0.13708 0.52278 0.0
C428 C 0.9189 0.14797 0.50474 0.0
C429 C 0.07817 0.13859 0.52453 0.0
C430 C 0.96424 0.16029 0.48747 0.0
C431 C 0.06542 0.16178 0.48815 0.0
H432 H 0.82189 0.87401 0.52672 0.0
H433 H 0.79483 0.91793 0.49977 0.0
H434 H 0.97102 0.92062 0.50396 0.0
H435 H 0.13312 0.91051 0.516 0.0
H436 H 0.16024 0.86659 0.5428 0.0
H437 H 0.98393 0.86392 0.53901 0.0
C438 C 0.85474 0.88415 0.52137 0.0
C439 C 0.79543 0.89574 0.51274 0.0
C440 C 0.95606 0.88565 0.52454 0.0
C441 C 0.83886 0.90884 0.50663 0.0
C442 C 0.93962 0.91039 0.50908 0.0
C443 C 0.10027 0.90038 0.5214 0.0
C444 C 0.15966 0.88877 0.52978 0.0
C445 C 0.99891 0.89889 0.51838 0.0
C446 C 0.11618 0.87568 0.53606 0.0
C447 C 1.01536 0.87414 0.53384 0.0
H448 H 0.9171 0.54211 0.02565 0.0
H449 H 0.22999 0.54543 0.01188 0.0
H450 H 0.24518 0.52008 0.00849 0.0
H451 H 0.16849 0.497 0.0101 0.0
H452 H 0.8557 0.49368 0.02494 0.0
H453 H 0.84036 0.51902 0.02779 0.0
C454 C 0.98836 0.53721 0.0218 0.0
C455 C 0.07244 0.54545 0.01875 0.0
C456 C 0.99613 0.52271 0.02027 0.0
C457 C 0.16467 0.53916 0.0142 0.0
C458 C 0.17317 0.52473 0.01228 0.0
C459 C 0.09726 0.50192 0.01371 0.0
C460 C 1.01324 0.49369 0.01691 0.0
C461 C 0.08942 0.51641 0.01532 0.0
C462 C 0.92097 0.49996 0.02196 0.0
C463 C 0.91239 0.51439 0.02368 0.0
H464 H 0.94665 0.49686 0.57117 0.0
H465 H 0.18479 0.49202 0.4551 0.0
H466 H 0.19428 0.51712 0.44397 0.0
H467 H 0.13554 0.54042 0.46744 0.0
H468 H 0.89789 0.54544 0.58364 0.0
H469 H 0.88698 0.52029 0.59438 0.0
C470 C 1.00121 0.50134 0.54392 0.0
C471 C 0.065 0.49265 0.51404 0.0
C472 C 1.00568 0.51578 0.53739 0.0
C473 C 0.13457 0.49854 0.47828 0.0
C474 C 0.13998 0.51287 0.47188 0.0
C475 C 0.08057 0.53599 0.49458 0.0
C476 C 1.01762 0.54473 0.52463 0.0
C477 C 0.07554 0.52157 0.50096 0.0
C478 C 0.94758 0.53888 0.56028 0.0
C479 C 0.94139 0.52453 0.56648 0.0
H480 H 0.40657 0.9964 0.01825 0.0
H481 H 0.71723 0.99057 0.01941 0.0
H482 H 0.74124 1.0157 0.02218 0.0
H483 H 0.67289 0.03945 0.02455 0.0
H484 H 0.36214 0.04522 0.02351 0.0
H485 H 0.33816 0.02012 0.02101 0.0
C486 C 0.47918 1.00071 0.01954 0.0
C487 C 0.56019 0.99181 0.0193 0.0
C488 C 0.49208 1.01514 0.02139 0.0
C489 C 0.65416 0.99736 0.02031 0.0
C490 C 0.66777 1.01168 0.02175 0.0
C491 C 0.60024 0.03511 0.02414 0.0
C492 C 0.51911 0.04398 0.02462 0.0
C493 C 0.5873 0.02068 0.0225 0.0
C494 C 0.42516 0.03843 0.02344 0.0
C495 C 0.41158 0.02413 0.02193 0.0
H496 H 0.64143 0.04093 0.55511 0.0
H497 H 0.382 0.04436 0.46882 0.0
H498 H 0.37246 0.01914 0.46354 0.0
H499 H 0.43721 0.9961 0.48366 0.0
H500 H 0.69638 0.99261 0.57009 0.0
H501 H 0.70588 1.01784 0.57557 0.0
C502 C 0.58193 0.03617 0.5358 0.0
C503 C 0.51238 0.04458 0.51251 0.0
C504 C 0.5771 0.02164 0.53271 0.0
C505 C 0.43692 0.03818 0.48677 0.0
C506 C 0.43136 0.02375 0.48378 0.0
C507 C 0.49665 1.00085 0.50305 0.0
C508 C 0.56627 0.99242 0.52619 0.0
C509 C 0.50139 1.01537 0.50629 0.0
C510 C 0.64152 0.9988 0.55215 0.0
C511 C 0.64705 1.01325 0.55527 0.0
H512 H 0.38318 0.29352 0.02039 0.0
H513 H 0.07128 0.28949 0.01937 0.0
H514 H 0.08624 0.26422 0.01889 0.0
H515 H 0.18878 0.24312 0.01914 0.0
H516 H 0.50068 0.24713 0.01953 0.0
H517 H 0.48601 0.27242 0.01874 0.0
C518 C 0.31895 0.28704 0.01972 0.0
C519 C 0.22636 0.29323 0.01951 0.0
C520 C 0.32829 0.27252 0.01907 0.0
C521 C 0.14327 0.28484 0.01884 0.0
C522 C 0.15178 0.27043 0.01876 0.0
C523 C 0.25308 0.2496 0.01906 0.0
C524 C 0.34554 0.24343 0.01982 0.0
C525 C 0.24388 0.26413 0.01887 0.0
C526 C 0.42881 0.2518 0.01953 0.0
C527 C 0.42043 0.26621 0.019 0.0
H528 H 0.63104 0.78557 0.01529 0.0
H529 H 0.92734 0.799 0.02859 0.0
H530 H 0.98363 0.77493 0.02633 0.0
H531 H 0.9481 0.75 0.02364 0.0
H532 H 0.6527 0.73633 0.01004 0.0
H533 H 0.59599 0.76048 0.01011 0.0
C534 C 0.708 0.78319 0.01706 0.0
C535 C 0.77506 0.79403 0.02212 0.0
C536 C 0.73964 0.76928 0.01646 0.0
C537 C 0.87443 0.79082 0.025 0.0
C538 C 0.90655 0.77707 0.02379 0.0
C539 C 0.87129 0.75235 0.02082 0.0
C540 C 0.80449 0.74145 0.01711 0.0
C541 C 0.83973 0.76621 0.02025 0.0
C542 C 0.70535 0.74457 0.01279 0.0
C543 C 0.67306 0.75836 0.01283 0.0
H544 H 0.17685 0.74982 0.57794 0.0
H545 H 0.36478 0.73902 0.44313 0.0
H546 H 0.41349 0.76325 0.43264 0.0
H547 H 0.40335 0.78756 0.46185 0.0
H548 H 0.21524 0.79835 0.59661 0.0
H549 H 0.16665 0.77413 0.60712 0.0
C550 C 0.22933 0.75273 0.54659 0.0
C551 C 0.26709 0.74253 0.51144 0.0
C552 C 0.25677 0.76673 0.54062 0.0
C553 C 0.3338 0.74661 0.47053 0.0
C554 C 0.36188 0.76048 0.46456 0.0
C555 C 0.3509 0.78466 0.49321 0.0
C556 C 0.31312 0.79486 0.52835 0.0
C557 C 0.32348 0.77065 0.49919 0.0
C558 C 0.24636 0.79078 0.56925 0.0
C559 C 0.21831 0.7769 0.57523 0.0
H560 H 0.93898 0.28579 0.5303 0.0
H561 H 0.64436 0.2987 0.50596 0.0
H562 H 0.59255 0.27448 0.50438 0.0
H563 H 0.63123 0.24964 0.50947 0.0
H564 H 0.92529 0.23657 0.53405 0.0
H565 H 0.97782 0.26081 0.53536 0.0
C566 C 0.86338 0.28326 0.52496 0.0
C567 C 0.79536 0.29398 0.51835 0.0
C568 C 0.83446 0.26931 0.52362 0.0
C569 C 0.69792 0.2906 0.51081 0.0
C570 C 0.66837 0.27678 0.50995 0.0
C571 C 0.70694 0.25213 0.51474 0.0
C572 C 0.77448 0.24137 0.52142 0.0
C573 C 0.73607 0.26605 0.51602 0.0
C574 C 0.87206 0.2447 0.52902 0.0
C575 C 0.90198 0.25854 0.52975 0.0
H576 H 0.19617 0.40103 0.20076 0.0
H577 H 0.94135 0.37941 0.15423 0.0
H578 H 0.88209 0.37717 0.24568 0.0
H579 H 0.89611 0.38315 0.33898 0.0
H580 H 0.15404 0.40393 0.38523 0.0
H581 H 0.21851 0.40479 0.29417 0.0
C582 C 0.12843 0.39565 0.21076 0.0
C583 C 0.07272 0.39056 0.17085 0.0
C584 C 0.09468 0.39442 0.26343 0.0
C585 C 0.98546 0.38349 0.1843 0.0
C586 C 0.95115 0.38227 0.23658 0.0
C587 C 0.96665 0.38774 0.32883 0.0
C588 C 1.0202 0.39357 0.36814 0.0
C589 C 1.00391 0.388 0.27643 0.0
C590 C 0.11187 0.3994 0.35517 0.0
C591 C 0.14864 0.3999 0.30324 0.0
H592 H 0.89443 0.64223 0.20013 0.0
H593 H 0.20023 0.64497 0.15366 0.0
H594 H 0.2423 0.64275 0.24447 0.0
H595 H 0.19113 0.64439 0.33856 0.0
H596 H 0.88511 0.6431 0.38533 0.0
H597 H 0.84463 0.64005 0.29449 0.0
C598 C 0.97014 0.64188 0.20988 0.0
C599 C 0.04402 0.6439 0.17024 0.0
C600 C 0.99403 0.64106 0.26287 0.0
C601 C 0.14192 0.64356 0.18358 0.0
C602 C 0.16618 0.64235 0.23564 0.0
C603 C 0.11603 0.64298 0.32888 0.0
C604 C 0.04118 0.64406 0.36851 0.0
C605 C 0.09283 0.64175 0.27596 0.0
C606 C 0.94398 0.64239 0.35533 0.0
C607 C 0.92065 0.64072 0.30327 0.0
H608 H 0.13346 0.6447 0.86252 0.0
H609 H 0.82104 0.64477 0.85531 0.0
H610 H 0.83767 0.647 0.7599 0.0
H611 H 0.94142 0.64669 0.67752 0.0
H612 H 0.25345 0.64402 0.68479 0.0
H613 H 0.23721 0.64512 0.78035 0.0
C614 C 0.06918 0.64543 0.84002 0.0
C615 C 0.97606 0.64462 0.86589 0.0
C616 C 0.07945 0.64612 0.78487 0.0
C617 C 0.89342 0.64536 0.83621 0.0
C618 C 0.90295 0.6466 0.78163 0.0
C619 C 1.00577 0.64661 0.70009 0.0
C620 C 0.09862 0.64537 0.6741 0.0
C621 C 0.99558 0.64668 0.75533 0.0
C622 C 0.18126 0.64501 0.7039 0.0
C623 C 0.17198 0.6456 0.75859 0.0
H624 H 0.15202 0.38092 0.67511 0.0
H625 H 0.88411 0.40436 0.68456 0.0
H626 H 0.90182 0.40815 0.77874 0.0
H627 H 0.98073 0.40105 0.86075 0.0
H628 H 0.24233 0.37618 0.84729 0.0
H629 H 0.24056 0.37674 0.75234 0.0
C630 C 0.09779 0.38701 0.69757 0.0
C631 C 1.01561 0.39204 0.6734 0.0
C632 C 0.10745 0.3888 0.75117 0.0
C633 C 0.94737 0.40021 0.70259 0.0
C634 C 0.95742 0.40231 0.75642 0.0
C635 C 1.03905 0.39625 0.8367 0.0
C636 C 0.11223 0.38867 0.86068 0.0
C637 C 1.03531 0.39616 0.7816 0.0
C638 C 0.18618 0.38218 0.82948 0.0
C639 C 0.18467 0.38239 0.77524 0.0
H640 H 0.62947 0.91361 0.19579 0.0
H641 H 0.54438 0.87197 0.15995 0.0
H642 H 0.50117 0.8676 0.2529 0.0
H643 H 0.47539 0.87647 0.34418 0.0
H644 H 0.54937 0.91882 0.37618 0.0
H645 H 0.60831 0.92214 0.2853 0.0
C646 C 0.60282 0.90352 0.20843 0.0
C647 C 0.59012 0.89314 0.17126 0.0
C648 C 0.57473 0.90129 0.26134 0.0
C649 C 0.55455 0.88014 0.18804 0.0
C650 C 0.52949 0.87766 0.24111 0.0
C651 C 0.50511 0.88634 0.33098 0.0
C652 C 0.50793 0.89743 0.36636 0.0
C653 C 0.53716 0.88828 0.27807 0.0
C654 C 0.54623 0.9102 0.34925 0.0
C655 C 0.58007 0.9121 0.29741 0.0
H656 H 0.62415 0.13386 0.18259 0.0
H657 H 0.35849 0.15768 0.18121 0.0
H658 H 0.35076 0.15907 0.27672 0.0
H659 H 0.43001 0.15596 0.35862 0.0
H660 H 0.69614 0.13223 0.36219 0.0
H661 H 0.69183 0.12785 0.26781 0.0
C662 C 0.56324 0.13896 0.20362 0.0
C663 C 0.4915 0.14559 0.17552 0.0
C664 C 0.55994 0.13979 0.25855 0.0
C665 C 0.41329 0.15233 0.20247 0.0
C666 C 0.40949 0.15323 0.25691 0.0
C667 C 0.48679 0.14971 0.3389 0.0
C668 C 0.5648 0.14473 0.36685 0.0
C669 C 0.48407 0.14739 0.28508 0.0
C670 C 0.63641 0.13638 0.34116 0.0
C671 C 0.63394 0.13391 0.28729 0.0
H672 H 0.44391 0.12588 0.84261 0.0
H673 H 0.5582 0.16613 0.87679 0.0
H674 H 0.60508 0.16964 0.78359 0.0
H675 H 0.6217 0.16043 0.69256 0.0
H676 H 0.5178 0.11933 0.66242 0.0
H677 H 0.45927 0.11687 0.75382 0.0
C678 C 0.47803 0.1355 0.82959 0.0
C679 C 0.49715 0.14579 0.86617 0.0
C680 C 0.50765 0.13718 0.77672 0.0
C681 C 0.54285 0.15809 0.84903 0.0
C682 C 0.56978 0.16006 0.79589 0.0
C683 C 0.58577 0.15101 0.70634 0.0
C684 C 0.57389 0.14004 0.6714 0.0
C685 C 0.55397 0.14957 0.75941 0.0
C686 C 0.52763 0.12785 0.68909 0.0
C687 C 0.49415 0.12645 0.74118 0.0
H688 H 0.49898 0.86881 0.68795 0.0
H689 H 0.50297 0.91318 0.67427 0.0
H690 H 0.53119 0.91518 0.76846 0.0
H691 H 0.56874 0.90352 0.85423 0.0
H692 H 0.57563 0.85869 0.8574 0.0
H693 H 0.53069 0.85774 0.76855 0.0
C694 C 0.50442 0.87896 0.70574 0.0
C695 C 0.49845 0.89078 0.67465 0.0
C696 C 0.52458 0.87993 0.75832 0.0
C697 C 0.50577 0.90389 0.69791 0.0
C698 C 0.5233 0.905 0.75156 0.0
C699 C 0.56041 0.89361 0.83521 0.0
C700 C 0.57642 0.8812 0.86299 0.0
C701 C 0.53543 0.893 0.78213 0.0
C702 C 0.56496 0.86845 0.83758 0.0
C703 C 0.5385 0.86782 0.78645 0.0
loop_
_geom_bond_atom_site_label_1
_geom_bond_atom_site_label_2
_geom_bond_distance
_geom_bond_site_symmetry_2
_ccdc_geom_bond_type
Sm0 C2 2.846 1_455 S
Sm0 O20 2.543 1_454 S
Sm0 O21 2.450 . S
Sm0 O22 2.681 . S
Sm0 O23 2.464 . S
Sm0 O24 2.396 1_455 S
Sm0 O28 2.386 1_554 S
Sm0 O31 2.408 . S
Sm1 C11 2.846 . S
Sm1 O22 2.386 . S
Sm1 O25 2.408 1_455 S
Sm1 O26 2.543 . S
Sm1 O27 2.450 1_554 S
Sm1 O28 2.681 1_554 S
Sm1 O29 2.464 1_554 S
Sm1 O30 2.396 1_554 S
C2 Sm0 2.846 1_655 S
C2 C3 1.506 . S
C2 O20 1.261 1_554 S
C2 O21 1.242 1_655 S
C3 C2 1.506 . S
C3 C4 1.358 1_554 S
C3 C8 1.382 . S
C4 C3 1.358 1_556 S
C4 C5 1.385 . S
C4 H32 0.930 . S
C5 C4 1.385 . S
C5 C6 1.395 1_556 S
C5 H33 0.929 . S
C6 C5 1.395 1_554 S
C6 C7 1.335 . S
C7 C6 1.335 . S
C7 C8 1.398 . S
C7 H34 0.930 . S
C8 C3 1.382 . S
C8 C7 1.398 . S
C8 H35 0.929 . S
C9 O22 1.271 . S
C9 O23 1.251 . S
C10 O24 1.252 . S
C10 O25 1.272 . S
C11 Sm1 2.846 . S
C11 C12 1.506 . S
C11 O26 1.261 . S
C11 O27 1.242 1_554 S
C12 C11 1.506 . S
C12 C13 1.358 . S
C12 C17 1.382 1_554 S
C13 C12 1.358 . S
C13 C14 1.385 . S
C13 H36 0.930 . S
C14 C13 1.385 . S
C14 C15 1.395 . S
C14 H37 0.929 . S
C15 C14 1.395 . S
C15 C16 1.335 1_554 S
C16 C15 1.335 1_556 S
C16 C17 1.398 . S
C16 H38 0.930 . S
C17 C12 1.382 1_556 S
C17 C16 1.398 . S
C17 H39 0.929 . S
C18 O28 1.271 . S
C18 O29 1.251 . S
C19 O30 1.252 1_554 S
C19 O31 1.272 . S
O20 Sm0 2.543 1_656 S
O20 C2 1.261 1_556 S
O21 Sm0 2.450 . S
O21 C2 1.242 1_455 S
O22 Sm0 2.681 . S
O22 Sm1 2.386 . S
O22 C9 1.271 . S
O23 Sm0 2.464 . S
O23 C9 1.251 . S
O24 Sm0 2.396 1_655 S
O24 C10 1.252 . S
O25 Sm1 2.408 1_655 S
O25 C10 1.272 . S
O26 Sm1 2.543 . S
O26 C11 1.261 . S
O27 Sm1 2.450 1_556 S
O27 C11 1.242 1_556 S
O28 Sm0 2.386 1_556 S
O28 Sm1 2.681 1_556 S
O28 C18 1.271 . S
O29 Sm1 2.464 1_556 S
O29 C18 1.251 . S
O30 Sm1 2.396 1_556 S
O30 C19 1.252 1_556 S
O31 Sm0 2.408 . S
O31 C19 1.272 . S
H32 C4 0.930 . S
H33 C5 0.929 . S
H34 C7 0.930 . S
H35 C8 0.929 . S
H36 C13 0.930 . S
H37 C14 0.929 . S
H38 C16 0.930 . S
H39 C17 0.929 . S
Sm40 C42 2.846 . S
Sm40 O60 2.543 1_554 S
Sm40 O61 2.450 . S
Sm40 O62 2.681 . S
Sm40 O63 2.464 . S
Sm40 O64 2.396 . S
Sm40 O68 2.386 1_554 S
Sm40 O71 2.408 1_655 S
Sm41 C51 2.846 1_655 S
Sm41 O62 2.386 . S
Sm41 O65 2.408 . S
Sm41 O66 2.543 1_655 S
Sm41 O67 2.450 1_554 S
Sm41 O68 2.681 1_554 S
Sm41 O69 2.464 1_554 S
Sm41 O70 2.396 1_654 S
C42 Sm40 2.846 . S
C42 C43 1.506 . S
C42 O60 1.261 1_554 S
C42 O61 1.242 . S
C43 C42 1.506 . S
C43 C44 1.358 1_554 S
C43 C48 1.382 . S
C44 C43 1.358 1_556 S
C44 C45 1.385 . S
C44 H72 0.930 . S
C45 C44 1.385 . S
C45 C46 1.395 1_556 S
C45 H73 0.929 . S
C46 C45 1.395 1_554 S
C46 C47 1.335 . S
C47 C46 1.335 . S
C47 C48 1.398 . S
C47 H74 0.930 . S
C48 C43 1.382 . S
C48 C47 1.398 . S
C48 H75 0.929 . S
C49 O62 1.271 . S
C49 O63 1.251 . S
C50 O64 1.252 . S
C50 O65 1.272 . S
C51 Sm41 2.846 1_455 S
C51 C52 1.506 . S
C51 O66 1.261 . S
C51 O67 1.242 1_454 S
C52 C51 1.506 . S
C52 C53 1.358 . S
C52 C57 1.382 1_554 S
C53 C52 1.358 . S
C53 C54 1.385 . S
C53 H76 0.930 . S
C54 C53 1.385 . S
C54 C55 1.395 . S
C54 H77 0.929 . S
C55 C54 1.395 . S
C55 C56 1.335 1_554 S
C56 C55 1.335 1_556 S
C56 C57 1.398 . S
C56 H78 0.930 . S
C57 C52 1.382 1_556 S
C57 C56 1.398 . S
C57 H79 0.929 . S
C58 O68 1.271 . S
C58 O69 1.251 . S
C59 O70 1.252 1_554 S
C59 O71 1.272 . S
O60 Sm40 2.543 1_556 S
O60 C42 1.261 1_556 S
O61 Sm40 2.450 . S
O61 C42 1.242 . S
O62 Sm40 2.681 . S
O62 Sm41 2.386 . S
O62 C49 1.271 . S
O63 Sm40 2.464 . S
O63 C49 1.251 . S
O64 Sm40 2.396 . S
O64 C50 1.252 . S
O65 Sm41 2.408 . S
O65 C50 1.272 . S
O66 Sm41 2.543 1_455 S
O66 C51 1.261 . S
O67 Sm41 2.450 1_556 S
O67 C51 1.242 1_656 S
O68 Sm40 2.386 1_556 S
O68 Sm41 2.681 1_556 S
O68 C58 1.271 . S
O69 Sm41 2.464 1_556 S
O69 C58 1.251 . S
O70 Sm41 2.396 1_456 S
O70 C59 1.252 1_556 S
O71 Sm40 2.408 1_455 S
O71 C59 1.272 . S
H72 C44 0.930 . S
H73 C45 0.929 . S
H74 C47 0.930 . S
H75 C48 0.929 . S
H76 C53 0.930 . S
H77 C54 0.929 . S
H78 C56 0.930 . S
H79 C57 0.929 . S
Sm80 C82 2.846 . S
Sm80 O100 2.543 . S
Sm80 O101 2.450 . S
Sm80 O102 2.681 . S
Sm80 O103 2.464 . S
Sm80 O104 2.396 . S
Sm80 O108 2.386 . S
Sm80 O111 2.408 1_455 S
Sm81 C91 2.846 1_455 S
Sm81 O102 2.386 . S
Sm81 O105 2.408 . S
Sm81 O106 2.543 1_455 S
Sm81 O107 2.450 . S
Sm81 O108 2.681 . S
Sm81 O109 2.464 . S
Sm81 O110 2.396 1_455 S
C82 Sm80 2.846 . S
C82 C83 1.506 . S
C82 O100 1.261 . S
C82 O101 1.242 . S
C83 C82 1.506 . S
C83 C84 1.358 . S
C83 C88 1.382 . S
C84 C83 1.358 . S
C84 C85 1.385 . S
C84 H112 0.930 . S
C85 C84 1.385 . S
C85 C86 1.395 . S
C85 H113 0.929 . S
C86 C85 1.395 . S
C86 C87 1.335 . S
C87 C86 1.335 . S
C87 C88 1.398 . S
C87 H114 0.930 . S
C88 C83 1.382 . S
C88 C87 1.398 . S
C88 H115 0.929 . S
C89 O102 1.271 . S
C89 O103 1.251 . S
C90 O104 1.252 . S
C90 O105 1.272 . S
C91 Sm81 2.846 1_655 S
C91 C92 1.506 . S
C91 O106 1.261 . S
C91 O107 1.242 1_655 S
C92 C91 1.506 . S
C92 C93 1.358 . S
C92 C97 1.382 . S
C93 C92 1.358 . S
C93 C94 1.385 . S
C93 H116 0.930 . S
C94 C93 1.385 . S
C94 C95 1.395 . S
C94 H117 0.929 . S
C95 C94 1.395 . S
C95 C96 1.335 . S
C96 C95 1.335 . S
C96 C97 1.398 . S
C96 H118 0.930 . S
C97 C92 1.382 . S
C97 C96 1.398 . S
C97 H119 0.929 . S
C98 O108 1.271 . S
C98 O109 1.251 . S
C99 O110 1.252 . S
C99 O111 1.272 . S
O100 Sm80 2.543 . S
O100 C82 1.261 . S
O101 Sm80 2.450 . S
O101 C82 1.242 . S
O102 Sm80 2.681 . S
O102 Sm81 2.386 . S
O102 C89 1.271 . S
O103 Sm80 2.464 . S
O103 C89 1.251 . S
O104 Sm80 2.396 . S
O104 C90 1.252 . S
O105 Sm81 2.408 . S
O105 C90 1.272 . S
O106 Sm81 2.543 1_655 S
O106 C91 1.261 . S
O107 Sm81 2.450 . S
O107 C91 1.242 1_455 S
O108 Sm80 2.386 . S
O108 Sm81 2.681 . S
O108 C98 1.271 . S
O109 Sm81 2.464 . S
O109 C98 1.251 . S
O110 Sm81 2.396 1_655 S
O110 C99 1.252 . S
O111 Sm80 2.408 1_655 S
O111 C99 1.272 . S
H112 C84 0.930 . S
H113 C85 0.929 . S
H114 C87 0.930 . S
H115 C88 0.929 . S
H116 C93 0.930 . S
H117 C94 0.929 . S
H118 C96 0.930 . S
H119 C97 0.929 . S
Sm120 C122 2.846 1_655 S
Sm120 O140 2.543 1_655 S
Sm120 O141 2.450 . S
Sm120 O142 2.681 . S
Sm120 O143 2.464 . S
Sm120 O144 2.396 1_655 S
Sm120 O148 2.386 . S
Sm120 O151 2.408 . S
Sm121 C131 2.846 . S
Sm121 O142 2.386 . S
Sm121 O145 2.408 1_655 S
Sm121 O146 2.543 . S
Sm121 O147 2.450 . S
Sm121 O148 2.681 . S
Sm121 O149 2.464 . S
Sm121 O150 2.396 . S
C122 Sm120 2.846 1_455 S
C122 C123 1.506 . S
C122 O140 1.261 . S
C122 O141 1.242 1_455 S
C123 C122 1.506 . S
C123 C124 1.358 . S
C123 C128 1.382 . S
C124 C123 1.358 . S
C124 C125 1.385 . S
C124 H152 0.930 . S
C125 C124 1.385 . S
C125 C126 1.395 . S
C125 H153 0.929 . S
C126 C125 1.395 . S
C126 C127 1.335 . S
C127 C126 1.335 . S
C127 C128 1.398 . S
C127 H154 0.930 . S
C128 C123 1.382 . S
C128 C127 1.398 . S
C128 H155 0.929 . S
C129 O142 1.271 . S
C129 O143 1.251 . S
C130 O144 1.252 . S
C130 O145 1.272 . S
C131 Sm121 2.846 . S
C131 C132 1.506 . S
C131 O146 1.261 . S
C131 O147 1.242 . S
C132 C131 1.506 . S
C132 C133 1.358 . S
C132 C137 1.382 . S
C133 C132 1.358 . S
C133 C134 1.385 . S
C133 H156 0.930 . S
C134 C133 1.385 . S
C134 C135 1.395 . S
C134 H157 0.929 . S
C135 C134 1.395 . S
C135 C136 1.335 . S
C136 C135 1.335 . S
C136 C137 1.398 . S
C136 H158 0.930 . S
C137 C132 1.382 . S
C137 C136 1.398 . S
C137 H159 0.929 . S
C138 O148 1.271 . S
C138 O149 1.251 . S
C139 O150 1.252 . S
C139 O151 1.272 . S
O140 Sm120 2.543 1_455 S
O140 C122 1.261 . S
O141 Sm120 2.450 . S
O141 C122 1.242 1_655 S
O142 Sm120 2.681 . S
O142 Sm121 2.386 . S
O142 C129 1.271 . S
O143 Sm120 2.464 . S
O143 C129 1.251 . S
O144 Sm120 2.396 1_455 S
O144 C130 1.252 . S
O145 Sm121 2.408 1_455 S
O145 C130 1.272 . S
O146 Sm121 2.543 . S
O146 C131 1.261 . S
O147 Sm121 2.450 . S
O147 C131 1.242 . S
O148 Sm120 2.386 . S
O148 Sm121 2.681 . S
O148 C138 1.271 . S
O149 Sm121 2.464 . S
O149 C138 1.251 . S
O150 Sm121 2.396 . S
O150 C139 1.252 . S
O151 Sm120 2.408 . S
O151 C139 1.272 . S
H152 C124 0.930 . S
H153 C125 0.929 . S
H154 C127 0.930 . S
H155 C128 0.929 . S
H156 C133 0.930 . S
H157 C134 0.929 . S
H158 C136 0.930 . S
H159 C137 0.929 . S
Sm160 C162 2.846 . S
Sm160 O180 2.543 1_554 S
Sm160 O181 2.450 . S
Sm160 O182 2.681 . S
Sm160 O183 2.464 . S
Sm160 O184 2.396 . S
Sm160 O188 2.386 1_554 S
Sm160 O191 2.408 . S
Sm161 C171 2.846 . S
Sm161 O182 2.386 . S
Sm161 O185 2.408 . S
Sm161 O186 2.543 . S
Sm161 O187 2.450 1_554 S
Sm161 O188 2.681 1_554 S
Sm161 O189 2.464 1_554 S
Sm161 O190 2.396 1_554 S
C162 Sm160 2.846 . S
C162 C163 1.506 . S
C162 O180 1.261 1_554 S
C162 O181 1.242 . S
C163 C162 1.506 . S
C163 C164 1.358 1_554 S
C163 C168 1.382 . S
C164 C163 1.358 1_556 S
C164 C165 1.385 . S
C164 H192 0.930 . S
C165 C164 1.385 . S
C165 C166 1.395 1_556 S
C165 H193 0.929 . S
C166 C165 1.395 1_554 S
C166 C167 1.335 . S
C167 C166 1.335 . S
C167 C168 1.398 . S
C167 H194 0.930 . S
C168 C163 1.382 . S
C168 C167 1.398 . S
C168 H195 0.929 . S
C169 O182 1.271 . S
C169 O183 1.251 . S
C170 O184 1.252 . S
C170 O185 1.272 . S
C171 Sm161 2.846 . S
C171 C172 1.506 . S
C171 O186 1.261 . S
C171 O187 1.242 1_554 S
C172 C171 1.506 . S
C172 C173 1.358 . S
C172 C177 1.382 1_554 S
C173 C172 1.358 . S
C173 C174 1.385 . S
C173 H196 0.930 . S
C174 C173 1.385 . S
C174 C175 1.395 . S
C174 H197 0.929 . S
C175 C174 1.395 . S
C175 C176 1.335 1_554 S
C176 C175 1.335 1_556 S
C176 C177 1.398 . S
C176 H198 0.930 . S
C177 C172 1.382 1_556 S
C177 C176 1.398 . S
C177 H199 0.929 . S
C178 O188 1.271 . S
C178 O189 1.251 . S
C179 O190 1.252 1_554 S
C179 O191 1.272 . S
O180 Sm160 2.543 1_556 S
O180 C162 1.261 1_556 S
O181 Sm160 2.450 . S
O181 C162 1.242 . S
O182 Sm160 2.681 . S
O182 Sm161 2.386 . S
O182 C169 1.271 . S
O183 Sm160 2.464 . S
O183 C169 1.251 . S
O184 Sm160 2.396 . S
O184 C170 1.252 . S
O185 Sm161 2.408 . S
O185 C170 1.272 . S
O186 Sm161 2.543 . S
O186 C171 1.261 . S
O187 Sm161 2.450 1_556 S
O187 C171 1.242 1_556 S
O188 Sm160 2.386 1_556 S
O188 Sm161 2.681 1_556 S
O188 C178 1.271 . S
O189 Sm161 2.464 1_556 S
O189 C178 1.251 . S
O190 Sm161 2.396 1_556 S
O190 C179 1.252 1_556 S
O191 Sm160 2.408 . S
O191 C179 1.272 . S
H192 C164 0.930 . S
H193 C165 0.929 . S
H194 C167 0.930 . S
H195 C168 0.929 . S
H196 C173 0.930 . S
H197 C174 0.929 . S
H198 C176 0.930 . S
H199 C177 0.929 . S
Sm200 C202 2.846 . S
Sm200 O220 2.543 1_554 S
Sm200 O221 2.450 . S
Sm200 O222 2.681 . S
Sm200 O223 2.464 . S
Sm200 O224 2.396 . S
Sm200 O228 2.386 1_554 S
Sm200 O231 2.408 . S
Sm201 C211 2.846 . S
Sm201 O222 2.386 . S
Sm201 O225 2.408 . S
Sm201 O226 2.543 . S
Sm201 O227 2.450 1_554 S
Sm201 O228 2.681 1_554 S
Sm201 O229 2.464 1_554 S
Sm201 O230 2.396 1_554 S
C202 Sm200 2.846 . S
C202 C203 1.506 . S
C202 O220 1.261 1_554 S
C202 O221 1.242 . S
C203 C202 1.506 . S
C203 C204 1.358 1_554 S
C203 C208 1.382 . S
C204 C203 1.358 1_556 S
C204 C205 1.385 . S
C204 H232 0.930 . S
C205 C204 1.385 . S
C205 C206 1.395 1_556 S
C205 H233 0.929 . S
C206 C205 1.395 1_554 S
C206 C207 1.335 . S
C207 C206 1.335 . S
C207 C208 1.398 . S
C207 H234 0.930 . S
C208 C203 1.382 . S
C208 C207 1.398 . S
C208 H235 0.929 . S
C209 O222 1.271 . S
C209 O223 1.251 . S
C210 O224 1.252 . S
C210 O225 1.272 . S
C211 Sm201 2.846 . S
C211 C212 1.506 . S
C211 O226 1.261 . S
C211 O227 1.242 1_554 S
C212 C211 1.506 . S
C212 C213 1.358 . S
C212 C217 1.382 1_554 S
C213 C212 1.358 . S
C213 C214 1.385 . S
C213 H236 0.930 . S
C214 C213 1.385 . S
C214 C215 1.395 . S
C214 H237 0.929 . S
C215 C214 1.395 . S
C215 C216 1.335 1_554 S
C216 C215 1.335 1_556 S
C216 C217 1.398 . S
C216 H238 0.930 . S
C217 C212 1.382 1_556 S
C217 C216 1.398 . S
C217 H239 0.929 . S
C218 O228 1.271 . S
C218 O229 1.251 . S
C219 O230 1.252 1_554 S
C219 O231 1.272 . S
O220 Sm200 2.543 1_556 S
O220 C202 1.261 1_556 S
O221 Sm200 2.450 . S
O221 C202 1.242 . S
O222 Sm200 2.681 . S
O222 Sm201 2.386 . S
O222 C209 1.271 . S
O223 Sm200 2.464 . S
O223 C209 1.251 . S
O224 Sm200 2.396 . S
O224 C210 1.252 . S
O225 Sm201 2.408 . S
O225 C210 1.272 . S
O226 Sm201 2.543 . S
O226 C211 1.261 . S
O227 Sm201 2.450 1_556 S
O227 C211 1.242 1_556 S
O228 Sm200 2.386 1_556 S
O228 Sm201 2.681 1_556 S
O228 C218 1.271 . S
O229 Sm201 2.464 1_556 S
O229 C218 1.251 . S
O230 Sm201 2.396 1_556 S
O230 C219 1.252 1_556 S
O231 Sm200 2.408 . S
O231 C219 1.272 . S
H232 C204 0.930 . S
H233 C205 0.929 . S
H234 C207 0.930 . S
H235 C208 0.929 . S
H236 C213 0.930 . S
H237 C214 0.929 . S
H238 C216 0.930 . S
H239 C217 0.929 . S
Sm240 C242 2.846 . S
Sm240 O260 2.543 . S
Sm240 O261 2.450 . S
Sm240 O262 2.681 . S
Sm240 O263 2.464 . S
Sm240 O264 2.396 . S
Sm240 O268 2.386 . S
Sm240 O271 2.408 . S
Sm241 C251 2.846 . S
Sm241 O262 2.386 . S
Sm241 O265 2.408 . S
Sm241 O266 2.543 . S
Sm241 O267 2.450 . S
Sm241 O268 2.681 . S
Sm241 O269 2.464 . S
Sm241 O270 2.396 . S
C242 Sm240 2.846 . S
C242 C243 1.506 . S
C242 O260 1.261 . S
C242 O261 1.242 . S
C243 C242 1.506 . S
C243 C244 1.358 . S
C243 C248 1.382 . S
C244 C243 1.358 . S
C244 C245 1.385 . S
C244 H272 0.930 . S
C245 C244 1.385 . S
C245 C246 1.395 . S
C245 H273 0.929 . S
C246 C245 1.395 . S
C246 C247 1.335 . S
C247 C246 1.335 . S
C247 C248 1.398 . S
C247 H274 0.930 . S
C248 C243 1.382 . S
C248 C247 1.398 . S
C248 H275 0.929 . S
C249 O262 1.271 . S
C249 O263 1.251 . S
C250 O264 1.252 . S
C250 O265 1.272 . S
C251 Sm241 2.846 . S
C251 C252 1.506 . S
C251 O266 1.261 . S
C251 O267 1.242 . S
C252 C251 1.506 . S
C252 C253 1.358 . S
C252 C257 1.382 . S
C253 C252 1.358 . S
C253 C254 1.385 . S
C253 H276 0.930 . S
C254 C253 1.385 . S
C254 C255 1.395 . S
C254 H277 0.929 . S
C255 C254 1.395 . S
C255 C256 1.335 . S
C256 C255 1.335 . S
C256 C257 1.398 . S
C256 H278 0.930 . S
C257 C252 1.382 . S
C257 C256 1.398 . S
C257 H279 0.929 . S
C258 O268 1.271 . S
C258 O269 1.251 . S
C259 O270 1.252 . S
C259 O271 1.272 . S
O260 Sm240 2.543 . S
O260 C242 1.261 . S
O261 Sm240 2.450 . S
O261 C242 1.242 . S
O262 Sm240 2.681 . S
O262 Sm241 2.386 . S
O262 C249 1.271 . S
O263 Sm240 2.464 . S
O263 C249 1.251 . S
O264 Sm240 2.396 . S
O264 C250 1.252 . S
O265 Sm241 2.408 . S
O265 C250 1.272 . S
O266 Sm241 2.543 . S
O266 C251 1.261 . S
O267 Sm241 2.450 . S
O267 C251 1.242 . S
O268 Sm240 2.386 . S
O268 Sm241 2.681 . S
O268 C258 1.271 . S
O269 Sm241 2.464 . S
O269 C258 1.251 . S
O270 Sm241 2.396 . S
O270 C259 1.252 . S
O271 Sm240 2.408 . S
O271 C259 1.272 . S
H272 C244 0.930 . S
H273 C245 0.929 . S
H274 C247 0.930 . S
H275 C248 0.929 . S
H276 C253 0.930 . S
H277 C254 0.929 . S
H278 C256 0.930 . S
H279 C257 0.929 . S
Sm280 C282 2.846 . S
Sm280 O300 2.543 . S
Sm280 O301 2.450 . S
Sm280 O302 2.681 . S
Sm280 O303 2.464 . S
Sm280 O304 2.396 . S
Sm280 O308 2.386 . S
Sm280 O311 2.408 . S
Sm281 C291 2.846 . S
Sm281 O302 2.386 . S
Sm281 O305 2.408 . S
Sm281 O306 2.543 . S
Sm281 O307 2.450 . S
Sm281 O308 2.681 . S
Sm281 O309 2.464 . S
Sm281 O310 2.396 . S
C282 Sm280 2.846 . S
C282 C283 1.506 . S
C282 O300 1.261 . S
C282 O301 1.242 . S
C283 C282 1.506 . S
C283 C284 1.358 . S
C283 C288 1.382 . S
C284 C283 1.358 . S
C284 C285 1.385 . S
C284 H312 0.930 . S
C285 C284 1.385 . S
C285 C286 1.395 . S
C285 H313 0.929 . S
C286 C285 1.395 . S
C286 C287 1.335 . S
C287 C286 1.335 . S
C287 C288 1.398 . S
C287 H314 0.930 . S
C288 C283 1.382 . S
C288 C287 1.398 . S
C288 H315 0.929 . S
C289 O302 1.271 . S
C289 O303 1.251 . S
C290 O304 1.252 . S
C290 O305 1.272 . S
C291 Sm281 2.846 . S
C291 C292 1.506 . S
C291 O306 1.261 . S
C291 O307 1.242 . S
C292 C291 1.506 . S
C292 C293 1.358 . S
C292 C297 1.382 . S
C293 C292 1.358 . S
C293 C294 1.385 . S
C293 H316 0.930 . S
C294 C293 1.385 . S
C294 C295 1.395 . S
C294 H317 0.929 . S
C295 C294 1.395 . S
C295 C296 1.335 . S
C296 C295 1.335 . S
C296 C297 1.398 . S
C296 H318 0.930 . S
C297 C292 1.382 . S
C297 C296 1.398 . S
C297 H319 0.929 . S
C298 O308 1.271 . S
C298 O309 1.251 . S
C299 O310 1.252 . S
C299 O311 1.272 . S
O300 Sm280 2.543 . S
O300 C282 1.261 . S
O301 Sm280 2.450 . S
O301 C282 1.242 . S
O302 Sm280 2.681 . S
O302 Sm281 2.386 . S
O302 C289 1.271 . S
O303 Sm280 2.464 . S
O303 C289 1.251 . S
O304 Sm280 2.396 . S
O304 C290 1.252 . S
O305 Sm281 2.408 . S
O305 C290 1.272 . S
O306 Sm281 2.543 . S
O306 C291 1.261 . S
O307 Sm281 2.450 . S
O307 C291 1.242 . S
O308 Sm280 2.386 . S
O308 Sm281 2.681 . S
O308 C298 1.271 . S
O309 Sm281 2.464 . S
O309 C298 1.251 . S
O310 Sm281 2.396 . S
O310 C299 1.252 . S
O311 Sm280 2.408 . S
O311 C299 1.272 . S
H312 C284 0.930 . S
H313 C285 0.929 . S
H314 C287 0.930 . S
H315 C288 0.929 . S
H316 C293 0.930 . S
H317 C294 0.929 . S
H318 C296 0.930 . S
H319 C297 0.929 . S
H320 C326 0.930 . S
H321 C329 0.930 . S
H322 C330 0.930 . S
H323 C331 0.930 . S
H324 C334 0.930 . S
H325 C335 0.930 . S
C326 H320 0.930 . S
C326 C327 1.355 . S
C326 C328 1.415 . S
C327 C326 1.355 . S
C327 C329 1.419 1_554 S
C328 C326 1.415 . S
C328 C333 1.425 1_554 S
C328 C335 1.409 . S
C329 H321 0.930 . S
C329 C327 1.419 1_556 S
C329 C330 1.362 . S
C330 H322 0.930 . S
C330 C329 1.362 . S
C330 C333 1.409 . S
C331 H323 0.930 . S
C331 C332 1.355 1_556 S
C331 C333 1.415 . S
C332 C331 1.355 1_554 S
C332 C334 1.419 . S
C333 C328 1.425 1_556 S
C333 C330 1.409 . S
C333 C331 1.415 . S
C334 H324 0.930 . S
C334 C332 1.419 . S
C334 C335 1.362 . S
C335 H325 0.930 . S
C335 C328 1.409 . S
C335 C334 1.362 . S
H336 C342 0.930 . S
H337 C345 0.930 . S
H338 C346 0.930 . S
H339 C347 0.926 1_556 S
H340 C350 0.930 . S
H341 C351 0.930 . S
C342 H336 0.930 . S
C342 C343 1.355 . S
C342 C344 1.415 . S
C343 C342 1.355 . S
C343 C345 1.419 1_554 S
C344 C342 1.415 . S
C344 C349 1.425 . S
C344 C351 1.409 . S
C345 H337 0.930 . S
C345 C343 1.419 1_556 S
C345 C346 1.362 . S
C346 H338 0.930 . S
C346 C345 1.362 . S
C346 C349 1.409 1_556 S
C347 H339 0.926 1_554 S
C347 C348 1.355 . S
C347 C349 1.415 . S
C348 C347 1.355 . S
C348 C350 1.419 . S
C349 C344 1.425 . S
C349 C346 1.409 1_554 S
C349 C347 1.415 . S
C350 H340 0.930 . S
C350 C348 1.419 . S
C350 C351 1.362 . S
C351 H341 0.930 . S
C351 C344 1.409 . S
C351 C350 1.362 . S
H352 C358 0.930 . S
H353 C361 0.930 . S
H354 C362 0.930 . S
H355 C363 0.930 . S
H356 C366 0.930 . S
H357 C367 0.930 . S
C358 H352 0.930 . S
C358 C359 1.355 . S
C358 C360 1.415 . S
C359 C358 1.355 . S
C359 C361 1.419 . S
C360 C358 1.415 . S
C360 C365 1.425 . S
C360 C367 1.409 . S
C361 H353 0.930 . S
C361 C359 1.419 . S
C361 C362 1.362 . S
C362 H354 0.930 . S
C362 C361 1.362 . S
C362 C365 1.409 . S
C363 H355 0.930 . S
C363 C364 1.355 . S
C363 C365 1.415 . S
C364 C363 1.355 . S
C364 C366 1.419 . S
C365 C360 1.425 . S
C365 C362 1.409 . S
C365 C363 1.415 . S
C366 H356 0.930 . S
C366 C364 1.419 . S
C366 C367 1.362 . S
C367 H357 0.930 . S
C367 C360 1.409 . S
C367 C366 1.362 . S
H368 C374 0.930 . S
H369 C377 0.930 . S
H370 C378 0.930 . S
H371 C379 0.930 . S
H372 C382 0.930 . S
H373 C383 0.930 . S
C374 H368 0.930 . S
C374 C375 1.355 . S
C374 C376 1.415 . S
C375 C374 1.355 . S
C375 C377 1.419 . S
C376 C374 1.415 . S
C376 C381 1.425 . S
C376 C383 1.409 . S
C377 H369 0.930 . S
C377 C375 1.419 . S
C377 C378 1.362 . S
C378 H370 0.930 . S
C378 C377 1.362 . S
C378 C381 1.409 . S
C379 H371 0.930 . S
C379 C380 1.355 . S
C379 C381 1.415 . S
C380 C379 1.355 . S
C380 C382 1.419 . S
C381 C376 1.425 . S
C381 C378 1.409 . S
C381 C379 1.415 . S
C382 H372 0.930 . S
C382 C380 1.419 . S
C382 C383 1.362 . S
C383 H373 0.930 . S
C383 C376 1.409 . S
C383 C382 1.362 . S
H384 C390 0.930 . S
H385 C393 0.930 . S
H386 C394 0.930 . S
H387 C395 0.930 . S
H388 C398 0.930 . S
H389 C399 0.930 . S
C390 H384 0.930 . S
C390 C391 1.355 . S
C390 C392 1.415 1_655 S
C391 C390 1.355 . S
C391 C393 1.419 1_554 S
C392 C390 1.415 1_455 S
C392 C397 1.415 1_554 S
C392 C399 1.409 . S
C393 H385 0.930 . S
C393 C391 1.419 1_556 S
C393 C394 1.362 1_655 S
C394 H386 0.930 . S
C394 C393 1.362 1_455 S
C394 C397 1.419 . S
C395 H387 0.930 . S
C395 C396 1.355 1_556 S
C395 C397 1.415 . S
C396 C395 1.355 1_554 S
C396 C398 1.419 . S
C397 C392 1.415 1_556 S
C397 C394 1.419 . S
C397 C395 1.415 . S
C398 H388 0.930 . S
C398 C396 1.419 . S
C398 C399 1.362 . S
C399 H389 0.930 . S
C399 C392 1.409 . S
C399 C398 1.362 . S
H400 C406 0.930 . S
H401 C409 0.930 . S
H402 C410 0.930 . S
H403 C411 0.930 . S
H404 C414 0.930 . S
H405 C415 0.930 . S
C406 H400 0.930 . S
C406 C407 1.355 1_556 S
C406 C408 1.414 1_456 S
C407 C406 1.355 1_554 S
C407 C409 1.419 . S
C408 C406 1.414 1_654 S
C408 C413 1.434 . S
C408 C415 1.401 1_554 S
C409 H401 0.930 . S
C409 C407 1.419 . S
C409 C410 1.362 1_455 S
C410 H402 0.930 . S
C410 C409 1.362 1_655 S
C410 C413 1.409 . S
C411 H403 0.930 . S
C411 C412 1.355 . S
C411 C413 1.415 . S
C412 C411 1.355 . S
C412 C414 1.419 1_554 S
C413 C408 1.434 . S
C413 C410 1.409 . S
C413 C411 1.415 . S
C414 H404 0.930 . S
C414 C412 1.419 1_556 S
C414 C415 1.362 . S
C415 H405 0.930 . S
C415 C408 1.401 1_556 S
C415 C414 1.362 . S
H416 C422 0.930 . S
H417 C425 0.930 . S
H418 C426 0.930 . S
H419 C427 0.930 . S
H420 C430 0.930 . S
H421 C431 0.930 . S
C422 H416 0.930 . S
C422 C423 1.355 . S
C422 C424 1.415 . S
C423 C422 1.355 . S
C423 C425 1.419 . S
C424 C422 1.415 . S
C424 C429 1.425 . S
C424 C431 1.409 . S
C425 H417 0.930 . S
C425 C423 1.419 . S
C425 C426 1.362 . S
C426 H418 0.930 . S
C426 C425 1.362 . S
C426 C429 1.409 . S
C427 H419 0.930 . S
C427 C428 1.355 . S
C427 C429 1.415 1_655 S
C428 C427 1.355 . S
C428 C430 1.419 . S
C429 C424 1.425 . S
C429 C426 1.409 . S
C429 C427 1.415 1_455 S
C430 H420 0.930 . S
C430 C428 1.419 . S
C430 C431 1.362 1_655 S
C431 H421 0.930 . S
C431 C424 1.409 . S
C431 C430 1.362 1_455 S
H432 C438 0.930 . S
H433 C441 0.930 . S
H434 C442 0.930 . S
H435 C443 0.930 . S
H436 C446 0.930 . S
H437 C447 0.930 . S
C438 H432 0.930 . S
C438 C439 1.355 . S
C438 C440 1.415 . S
C439 C438 1.355 . S
C439 C441 1.419 . S
C440 C438 1.415 . S
C440 C445 1.425 . S
C440 C447 1.409 . S
C441 H433 0.930 . S
C441 C439 1.419 . S
C441 C442 1.362 . S
C442 H434 0.930 . S
C442 C441 1.362 . S
C442 C445 1.409 . S
C443 H435 0.930 . S
C443 C444 1.355 . S
C443 C445 1.415 1_455 S
C444 C443 1.355 . S
C444 C446 1.419 . S
C445 C440 1.425 . S
C445 C442 1.409 . S
C445 C443 1.415 1_655 S
C446 H436 0.930 . S
C446 C444 1.419 . S
C446 C447 1.362 1_455 S
C447 H437 0.930 . S
C447 C440 1.409 . S
C447 C446 1.362 1_655 S
H448 C454 0.930 1_655 S
H449 C457 0.930 . S
H450 C458 0.930 1_556 S
H451 C459 0.929 1_456 S
H452 C462 0.930 . S
H453 C463 0.930 . S
C454 H448 0.930 1_455 S
C454 C455 1.355 . S
C454 C456 1.415 1_455 S
C455 C454 1.355 . S
C455 C457 1.419 . S
C456 C454 1.415 1_655 S
C456 C461 1.425 1_655 S
C456 C463 1.409 . S
C457 H449 0.930 . S
C457 C455 1.419 . S
C457 C458 1.362 . S
C458 H450 0.930 1_554 S
C458 C457 1.362 . S
C458 C461 1.409 . S
C459 H451 0.929 1_654 S
C459 C460 1.355 . S
C459 C461 1.415 1_655 S
C460 C459 1.355 . S
C460 C462 1.419 . S
C461 C456 1.425 1_455 S
C461 C458 1.409 . S
C461 C459 1.415 1_455 S
C462 H452 0.930 . S
C462 C460 1.419 . S
C462 C463 1.362 . S
C463 H453 0.930 . S
C463 C456 1.409 . S
C463 C462 1.362 . S
H464 C470 0.930 1_655 S
H465 C473 0.930 . S
H466 C474 0.930 . S
H467 C475 0.930 1_455 S
H468 C478 0.930 . S
H469 C479 0.930 . S
C470 H464 0.930 1_455 S
C470 C471 1.355 . S
C470 C472 1.415 1_455 S
C471 C470 1.355 . S
C471 C473 1.419 . S
C472 C470 1.415 1_655 S
C472 C477 1.425 1_655 S
C472 C479 1.409 . S
C473 H465 0.930 . S
C473 C471 1.419 . S
C473 C474 1.362 . S
C474 H466 0.930 . S
C474 C473 1.362 . S
C474 C477 1.409 . S
C475 H467 0.930 1_655 S
C475 C476 1.355 . S
C475 C477 1.415 1_655 S
C476 C475 1.355 . S
C476 C478 1.419 . S
C477 C472 1.425 1_455 S
C477 C474 1.409 . S
C477 C475 1.415 1_455 S
C478 H468 0.930 . S
C478 C476 1.419 . S
C478 C479 1.362 . S
C479 H469 0.930 . S
C479 C472 1.409 . S
C479 C478 1.362 . S
H480 C486 0.930 . S
H481 C489 0.930 . S
H482 C490 0.930 . S
H483 C491 0.930 . S
H484 C494 0.930 . S
H485 C495 0.930 . S
C486 H480 0.930 . S
C486 C487 1.355 . S
C486 C488 1.415 1_565 S
C487 C486 1.355 . S
C487 C489 1.419 . S
C488 C486 1.415 1_545 S
C488 C493 1.425 1_545 S
C488 C495 1.409 . S
C489 H481 0.930 . S
C489 C487 1.419 . S
C489 C490 1.362 . S
C490 H482 0.930 . S
C490 C489 1.362 . S
C490 C493 1.409 . S
C491 H483 0.930 . S
C491 C492 1.355 . S
C491 C493 1.415 1_545 S
C492 C491 1.355 . S
C492 C494 1.419 . S
C493 C488 1.425 1_565 S
C493 C490 1.409 . S
C493 C491 1.415 1_565 S
C494 H484 0.930 . S
C494 C492 1.419 . S
C494 C495 1.362 . S
C495 H485 0.930 . S
C495 C488 1.409 . S
C495 C494 1.362 . S
H496 C502 0.930 . S
H497 C505 0.930 . S
H498 C506 0.930 . S
H499 C507 0.930 . S
H500 C510 0.930 . S
H501 C511 0.930 . S
C502 H496 0.930 . S
C502 C503 1.355 . S
C502 C504 1.415 . S
C503 C502 1.355 . S
C503 C505 1.419 . S
C504 C502 1.415 . S
C504 C509 1.425 1_545 S
C504 C511 1.409 . S
C505 H497 0.930 . S
C505 C503 1.419 . S
C505 C506 1.362 1_545 S
C506 H498 0.930 . S
C506 C505 1.362 1_565 S
C506 C509 1.409 . S
C507 H499 0.930 . S
C507 C508 1.355 . S
C507 C509 1.415 . S
C508 C507 1.355 . S
C508 C510 1.419 . S
C509 C504 1.425 1_565 S
C509 C506 1.409 . S
C509 C507 1.415 . S
C510 H500 0.930 . S
C510 C508 1.419 . S
C510 C511 1.362 1_565 S
C511 H501 0.930 . S
C511 C504 1.409 . S
C511 C510 1.362 1_545 S
H512 C518 0.930 . S
H513 C521 0.930 . S
H514 C522 0.930 . S
H515 C523 0.930 . S
H516 C526 0.930 . S
H517 C527 0.930 . S
C518 H512 0.930 . S
C518 C519 1.355 . S
C518 C520 1.415 . S
C519 C518 1.355 . S
C519 C521 1.419 . S
C520 C518 1.415 . S
C520 C525 1.425 . S
C520 C527 1.409 . S
C521 H513 0.930 . S
C521 C519 1.419 . S
C521 C522 1.362 . S
C522 H514 0.930 . S
C522 C521 1.362 . S
C522 C525 1.409 . S
C523 H515 0.930 . S
C523 C524 1.355 . S
C523 C525 1.415 . S
C524 C523 1.355 . S
C524 C526 1.419 . S
C525 C520 1.425 . S
C525 C522 1.409 . S
C525 C523 1.415 . S
C526 H516 0.930 . S
C526 C524 1.419 . S
C526 C527 1.362 . S
C527 H517 0.930 . S
C527 C520 1.409 . S
C527 C526 1.362 . S
H528 C534 0.930 . S
H529 C537 0.930 . S
H530 C538 0.930 . S
H531 C539 0.930 1_556 S
H532 C542 0.930 . S
H533 C543 0.930 . S
C534 H528 0.930 . S
C534 C535 1.355 . S
C534 C536 1.415 . S
C535 C534 1.355 . S
C535 C537 1.419 . S
C536 C534 1.415 . S
C536 C541 1.425 . S
C536 C543 1.409 . S
C537 H529 0.930 . S
C537 C535 1.419 . S
C537 C538 1.362 . S
C538 H530 0.930 . S
C538 C537 1.362 . S
C538 C541 1.409 . S
C539 H531 0.930 1_554 S
C539 C540 1.355 . S
C539 C541 1.415 . S
C540 C539 1.355 . S
C540 C542 1.419 . S
C541 C536 1.425 . S
C541 C538 1.409 . S
C541 C539 1.415 . S
C542 H532 0.930 . S
C542 C540 1.419 . S
C542 C543 1.362 . S
C543 H533 0.930 . S
C543 C536 1.409 . S
C543 C542 1.362 . S
H544 C550 0.930 . S
H545 C553 0.930 . S
H546 C554 0.930 . S
H547 C555 0.930 . S
H548 C558 0.930 . S
H549 C559 0.930 . S
C550 H544 0.930 . S
C550 C551 1.355 . S
C550 C552 1.415 . S
C551 C550 1.355 . S
C551 C553 1.419 . S
C552 C550 1.415 . S
C552 C557 1.425 . S
C552 C559 1.409 . S
C553 H545 0.930 . S
C553 C551 1.419 . S
C553 C554 1.362 . S
C554 H546 0.930 . S
C554 C553 1.362 . S
C554 C557 1.409 . S
C555 H547 0.930 . S
C555 C556 1.355 . S
C555 C557 1.415 . S
C556 C555 1.355 . S
C556 C558 1.419 . S
C557 C552 1.425 . S
C557 C554 1.409 . S
C557 C555 1.415 . S
C558 H548 0.930 . S
C558 C556 1.419 . S
C558 C559 1.362 . S
C559 H549 0.930 . S
C559 C552 1.409 . S
C559 C558 1.362 . S
H560 C566 0.930 . S
H561 C569 0.930 . S
H562 C570 0.930 . S
H563 C571 0.930 . S
H564 C574 0.930 . S
H565 C575 0.930 . S
C566 H560 0.930 . S
C566 C567 1.355 . S
C566 C568 1.415 . S
C567 C566 1.355 . S
C567 C569 1.419 . S
C568 C566 1.415 . S
C568 C573 1.425 . S
C568 C575 1.409 . S
C569 H561 0.930 . S
C569 C567 1.419 . S
C569 C570 1.362 . S
C570 H562 0.930 . S
C570 C569 1.362 . S
C570 C573 1.409 . S
C571 H563 0.930 . S
C571 C572 1.355 . S
C571 C573 1.415 . S
C572 C571 1.355 . S
C572 C574 1.419 . S
C573 C568 1.425 . S
C573 C570 1.409 . S
C573 C571 1.415 . S
C574 H564 0.930 . S
C574 C572 1.419 . S
C574 C575 1.362 . S
C575 H565 0.930 . S
C575 C568 1.409 . S
C575 C574 1.362 . S
H576 C582 0.930 . S
H577 C585 0.930 . S
H578 C586 0.930 . S
H579 C587 0.930 . S
H580 C590 0.930 . S
H581 C591 0.930 . S
C582 H576 0.930 . S
C582 C583 1.355 . S
C582 C584 1.415 . S
C583 C582 1.355 . S
C583 C585 1.419 1_455 S
C584 C582 1.415 . S
C584 C589 1.425 1_455 S
C584 C591 1.409 . S
C585 H577 0.930 . S
C585 C583 1.419 1_655 S
C585 C586 1.362 . S
C586 H578 0.930 . S
C586 C585 1.362 . S
C586 C589 1.409 . S
C587 H579 0.930 . S
C587 C588 1.355 . S
C587 C589 1.415 . S
C588 C587 1.355 . S
C588 C590 1.419 1_655 S
C589 C584 1.425 1_655 S
C589 C586 1.409 . S
C589 C587 1.415 . S
C590 H580 0.930 . S
C590 C588 1.419 1_455 S
C590 C591 1.362 . S
C591 H581 0.930 . S
C591 C584 1.409 . S
C591 C590 1.362 . S
H592 C598 0.930 . S
H593 C601 0.930 . S
H594 C602 0.930 . S
H595 C603 0.930 . S
H596 C606 0.930 . S
H597 C607 0.930 . S
C598 H592 0.930 . S
C598 C599 1.355 . S
C598 C600 1.415 . S
C599 C598 1.355 . S
C599 C601 1.419 1_655 S
C600 C598 1.415 . S
C600 C605 1.425 1_655 S
C600 C607 1.409 . S
C601 H593 0.930 . S
C601 C599 1.419 1_455 S
C601 C602 1.362 . S
C602 H594 0.930 . S
C602 C601 1.362 . S
C602 C605 1.409 . S
C603 H595 0.930 . S
C603 C604 1.355 . S
C603 C605 1.415 . S
C604 C603 1.355 . S
C604 C606 1.419 1_455 S
C605 C600 1.425 1_455 S
C605 C602 1.409 . S
C605 C603 1.415 . S
C606 H596 0.930 . S
C606 C604 1.419 1_655 S
C606 C607 1.362 . S
C607 H597 0.930 . S
C607 C600 1.409 . S
C607 C606 1.362 . S
H608 C614 0.930 . S
H609 C617 0.930 . S
H610 C618 0.930 . S
H611 C619 0.930 . S
H612 C622 0.930 . S
H613 C623 0.930 . S
C614 H608 0.930 . S
C614 C615 1.355 1_455 S
C614 C616 1.415 . S
C615 C614 1.355 1_655 S
C615 C617 1.419 . S
C616 C614 1.415 . S
C616 C621 1.425 1_455 S
C616 C623 1.409 . S
C617 H609 0.930 . S
C617 C615 1.419 . S
C617 C618 1.362 . S
C618 H610 0.930 . S
C618 C617 1.362 . S
C618 C621 1.409 . S
C619 H611 0.930 . S
C619 C620 1.355 1_655 S
C619 C621 1.415 . S
C620 C619 1.355 1_455 S
C620 C622 1.419 . S
C621 C616 1.425 1_655 S
C621 C618 1.409 . S
C621 C619 1.415 . S
C622 H612 0.930 . S
C622 C620 1.419 . S
C622 C623 1.362 . S
C623 H613 0.930 . S
C623 C616 1.409 . S
C623 C622 1.362 . S
H624 C630 0.930 1_455 S
H625 C633 0.930 . S
H626 C634 0.930 . S
H627 C635 0.930 1_655 S
H628 C638 0.930 . S
H629 C639 0.930 . S
C630 H624 0.930 1_655 S
C630 C631 1.355 . S
C630 C632 1.415 1_655 S
C631 C630 1.355 . S
C631 C633 1.419 . S
C632 C630 1.415 1_455 S
C632 C637 1.425 1_455 S
C632 C639 1.409 . S
C633 H625 0.930 . S
C633 C631 1.419 . S
C633 C634 1.362 . S
C634 H626 0.930 . S
C634 C633 1.362 . S
C634 C637 1.409 . S
C635 H627 0.930 1_455 S
C635 C636 1.355 . S
C635 C637 1.415 1_455 S
C636 C635 1.355 . S
C636 C638 1.419 . S
C637 C632 1.425 1_655 S
C637 C634 1.409 . S
C637 C635 1.415 1_655 S
C638 H628 0.930 . S
C638 C636 1.419 . S
C638 C639 1.362 . S
C639 H629 0.930 . S
C639 C632 1.409 . S
C639 C638 1.362 . S
H640 C646 0.930 . S
H641 C649 0.930 . S
H642 C650 0.930 . S
H643 C651 0.930 . S
H644 C654 0.930 . S
H645 C655 0.930 . S
C646 H640 0.930 . S
C646 C647 1.355 . S
C646 C648 1.415 . S
C647 C646 1.355 . S
C647 C649 1.419 . S
C648 C646 1.415 . S
C648 C653 1.425 . S
C648 C655 1.409 . S
C649 H641 0.930 . S
C649 C647 1.419 . S
C649 C650 1.362 . S
C650 H642 0.930 . S
C650 C649 1.362 . S
C650 C653 1.409 . S
C651 H643 0.930 . S
C651 C652 1.355 . S
C651 C653 1.415 . S
C652 C651 1.355 . S
C652 C654 1.419 . S
C653 C648 1.425 . S
C653 C650 1.409 . S
C653 C651 1.415 . S
C654 H644 0.930 . S
C654 C652 1.419 . S
C654 C655 1.362 . S
C655 H645 0.930 . S
C655 C648 1.409 . S
C655 C654 1.362 . S
H656 C662 0.930 . S
H657 C665 0.930 . S
H658 C666 0.930 . S
H659 C667 0.930 . S
H660 C670 0.930 . S
H661 C671 0.930 . S
C662 H656 0.930 . S
C662 C663 1.355 . S
C662 C664 1.415 . S
C663 C662 1.355 . S
C663 C665 1.419 . S
C664 C662 1.415 . S
C664 C669 1.425 . S
C664 C671 1.409 . S
C665 H657 0.930 . S
C665 C663 1.419 . S
C665 C666 1.362 . S
C666 H658 0.930 . S
C666 C665 1.362 . S
C666 C669 1.409 . S
C667 H659 0.930 . S
C667 C668 1.355 . S
C667 C669 1.415 . S
C668 C667 1.355 . S
C668 C670 1.419 . S
C669 C664 1.425 . S
C669 C666 1.409 . S
C669 C667 1.415 . S
C670 H660 0.930 . S
C670 C668 1.419 . S
C670 C671 1.362 . S
C671 H661 0.930 . S
C671 C664 1.409 . S
C671 C670 1.362 . S
H672 C678 0.930 . S
H673 C681 0.930 . S
H674 C682 0.930 . S
H675 C683 0.930 . S
H676 C686 0.930 . S
H677 C687 0.930 . S
C678 H672 0.930 . S
C678 C679 1.355 . S
C678 C680 1.415 . S
C679 C678 1.355 . S
C679 C681 1.419 . S
C680 C678 1.415 . S
C680 C685 1.425 . S
C680 C687 1.409 . S
C681 H673 0.930 . S
C681 C679 1.419 . S
C681 C682 1.362 . S
C682 H674 0.930 . S
C682 C681 1.362 . S
C682 C685 1.409 . S
C683 H675 0.930 . S
C683 C684 1.355 . S
C683 C685 1.415 . S
C684 C683 1.355 . S
C684 C686 1.419 . S
C685 C680 1.425 . S
C685 C682 1.409 . S
C685 C683 1.415 . S
C686 H676 0.930 . S
C686 C684 1.419 . S
C686 C687 1.362 . S
C687 H677 0.930 . S
C687 C680 1.409 . S
C687 C686 1.362 . S
H688 C694 0.930 . S
H689 C697 0.930 . S
H690 C698 0.930 . S
H691 C699 0.930 . S
H692 C702 0.930 . S
H693 C703 0.930 . S
C694 H688 0.930 . S
C694 C695 1.355 . S
C694 C696 1.415 . S
C695 C694 1.355 . S
C695 C697 1.419 . S
C696 C694 1.415 . S
C696 C701 1.425 . S
C696 C703 1.409 . S
C697 H689 0.930 . S
C697 C695 1.419 . S
C697 C698 1.362 . S
C698 H690 0.930 . S
C698 C697 1.362 . S
C698 C701 1.409 . S
C699 H691 0.930 . S
C699 C700 1.355 . S
C699 C701 1.415 . S
C700 C699 1.355 . S
C700 C702 1.419 . S
C701 C696 1.425 . S
C701 C698 1.409 . S
C701 C699 1.415 . S
C702 H692 0.930 . S
C702 C700 1.419 . S
C702 C703 1.362 . S
C703 H693 0.930 . S
C703 C696 1.409 . S
C703 C702 1.362 . S
C327 C19 2.281 . S
C332 C10 2.281 . S
C343 C59 2.299 . S
C348 C50 2.299 . S
C359 C99 2.310 . S
C364 C90 2.310 . S
C375 C139 2.267 . S
C380 C130 2.267 . S
C391 C179 2.263 . S
C396 C170 2.263 . S
C407 C210 2.305 . S
C412 C219 2.305 . S
C423 C259 2.292 . S
C428 C250 2.292 . S
C439 C290 2.309 . S
C444 C299 2.309 . S
C455 C55 2.765 . S
C460 C6 2.765 . S
C471 C126 2.744 . S
C476 C95 2.744 . S
C487 C166 2.703 . S
C492 C215 2.703 . S
C503 C255 2.759 . S
C508 C286 2.759 . S
C519 C15 1.871 . S
C524 C206 1.871 . S
C535 C175 1.938 . S
C540 C46 1.938 . S
C551 C86 1.908 . S
C556 C295 1.908 . S
C567 C135 1.938 . S
C572 C246 1.938 . S
C583 C9 1.501 . S
C588 C129 1.448 . S
C599 C49 1.542 . S
C604 C89 1.570 . S
C615 C58 1.499 . S
C620 C98 1.474 . S
C631 C138 1.614 . S
C636 C18 1.575 . S
C647 C169 1.514 . S
C652 C289 1.447 . S
C663 C209 1.578 . S
C668 C249 1.612 . S
C679 C218 1.505 . S
C684 C258 1.446 . S
C695 C298 1.614 . S
C700 C178 1.553 . S
