# Generated by pormake.
# Topology uos, (4)-cn, num edge types: 1
# Building blocks:
#     Node 0, Type 0, BuildingBlock: QUQFOY_clean_sbu_1, # of connection points: 4
#     Node 1, Type 0, BuildingBlock: QUQFOY_clean_sbu_1, # of connection points: 4
#     Node 2, Type 0, BuildingBlock: QUQFOY_clean_sbu_1, # of connection points: 4
#     Node 3, Type 0, BuildingBlock: QUQFOY_clean_sbu_1, # of connection points: 4
#     Node 4, Type 0, BuildingBlock: QUQFOY_clean_sbu_1, # of connection points: 4
#     Node 5, Type 0, BuildingBlock: QUQFOY_clean_sbu_1, # of connection points: 4
#     Node 6, Type 0, BuildingBlock: QUQFOY_clean_sbu_1, # of connection points: 4
#     Node 7, Type 0, BuildingBlock: QUQFOY_clean_sbu_1, # of connection points: 4
#     Node 8, Type 0, BuildingBlock: QUQFOY_clean_sbu_1, # of connection points: 4
#     Node 9, Type 0, BuildingBlock: QUQFOY_clean_sbu_1, # of connection points: 4
#     Node 10, Type 0, BuildingBlock: QUQFOY_clean_sbu_1, # of connection points: 4
#     Node 11, Type 0, BuildingBlock: QUQFOY_clean_sbu_1, # of connection points: 4
#     Node 12, Type 0, BuildingBlock: QUQFOY_clean_sbu_1, # of connection points: 4
#     Node 13, Type 0, BuildingBlock: QUQFOY_clean_sbu_1, # of connection points: 4
#     Node 14, Type 0, BuildingBlock: QUQFOY_clean_sbu_1, # of connection points: 4
#     Node 15, Type 0, BuildingBlock: QUQFOY_clean_sbu_1, # of connection points: 4
#     Node 16, Type 0, BuildingBlock: QUQFOY_clean_sbu_1, # of connection points: 4
#     Node 17, Type 0, BuildingBlock: QUQFOY_clean_sbu_1, # of connection points: 4
#     Node 18, Type 0, BuildingBlock: QUQFOY_clean_sbu_1, # of connection points: 4
#     Node 19, Type 0, BuildingBlock: QUQFOY_clean_sbu_1, # of connection points: 4
#     Node 20, Type 0, BuildingBlock: QUQFOY_clean_sbu_1, # of connection points: 4
#     Node 21, Type 0, BuildingBlock: QUQFOY_clean_sbu_1, # of connection points: 4
#     Node 22, Type 0, BuildingBlock: QUQFOY_clean_sbu_1, # of connection points: 4
#     Node 23, Type 0, BuildingBlock: QUQFOY_clean_sbu_1, # of connection points: 4
#     Node 24, Type 0, BuildingBlock: QUQFOY_clean_sbu_1, # of connection points: 4
#     Node 25, Type 0, BuildingBlock: QUQFOY_clean_sbu_1, # of connection points: 4
#     Node 26, Type 0, BuildingBlock: QUQFOY_clean_sbu_1, # of connection points: 4
#     Node 27, Type 0, BuildingBlock: QUQFOY_clean_sbu_1, # of connection points: 4
#     Node 28, Type 0, BuildingBlock: QUQFOY_clean_sbu_1, # of connection points: 4
#     Node 29, Type 0, BuildingBlock: QUQFOY_clean_sbu_1, # of connection points: 4
#     Node 30, Type 0, BuildingBlock: QUQFOY_clean_sbu_1, # of connection points: 4
#     Node 31, Type 0, BuildingBlock: QUQFOY_clean_sbu_1, # of connection points: 4
#     Edge 32, Type (0, 0), BuildingBlock: TEMPAE_clean_linker_10, # of connection points: 2
#     Edge 33, Type (0, 0), BuildingBlock: TEMPAE_clean_linker_10, # of connection points: 2
#     Edge 34, Type (0, 0), BuildingBlock: TEMPAE_clean_linker_10, # of connection points: 2
#     Edge 35, Type (0, 0), BuildingBlock: TEMPAE_clean_linker_10, # of connection points: 2
#     Edge 36, Type (0, 0), BuildingBlock: TEMPAE_clean_linker_10, # of connection points: 2
#     Edge 37, Type (0, 0), BuildingBlock: TEMPAE_clean_linker_10, # of connection points: 2
#     Edge 38, Type (0, 0), BuildingBlock: TEMPAE_clean_linker_10, # of connection points: 2
#     Edge 39, Type (0, 0), BuildingBlock: TEMPAE_clean_linker_10, # of connection points: 2
#     Edge 40, Type (0, 0), BuildingBlock: TEMPAE_clean_linker_10, # of connection points: 2
#     Edge 41, Type (0, 0), BuildingBlock: TEMPAE_clean_linker_10, # of connection points: 2
#     Edge 42, Type (0, 0), BuildingBlock: TEMPAE_clean_linker_10, # of connection points: 2
#     Edge 43, Type (0, 0), BuildingBlock: TEMPAE_clean_linker_10, # of connection points: 2
#     Edge 44, Type (0, 0), BuildingBlock: TEMPAE_clean_linker_10, # of connection points: 2
#     Edge 45, Type (0, 0), BuildingBlock: TEMPAE_clean_linker_10, # of connection points: 2
#     Edge 46, Type (0, 0), BuildingBlock: TEMPAE_clean_linker_10, # of connection points: 2
#     Edge 47, Type (0, 0), BuildingBlock: TEMPAE_clean_linker_10, # of connection points: 2
#     Edge 48, Type (0, 0), BuildingBlock: TEMPAE_clean_linker_10, # of connection points: 2
#     Edge 49, Type (0, 0), BuildingBlock: TEMPAE_clean_linker_10, # of connection points: 2
#     Edge 50, Type (0, 0), BuildingBlock: TEMPAE_clean_linker_10, # of connection points: 2
#     Edge 51, Type (0, 0), BuildingBlock: TEMPAE_clean_linker_10, # of connection points: 2
#     Edge 52, Type (0, 0), BuildingBlock: TEMPAE_clean_linker_10, # of connection points: 2
#     Edge 53, Type (0, 0), BuildingBlock: TEMPAE_clean_linker_10, # of connection points: 2
#     Edge 54, Type (0, 0), BuildingBlock: TEMPAE_clean_linker_10, # of connection points: 2
#     Edge 55, Type (0, 0), BuildingBlock: TEMPAE_clean_linker_10, # of connection points: 2
#     Edge 56, Type (0, 0), BuildingBlock: TEMPAE_clean_linker_10, # of connection points: 2
#     Edge 57, Type (0, 0), BuildingBlock: TEMPAE_clean_linker_10, # of connection points: 2
#     Edge 58, Type (0, 0), BuildingBlock: TEMPAE_clean_linker_10, # of connection points: 2
#     Edge 59, Type (0, 0), BuildingBlock: TEMPAE_clean_linker_10, # of connection points: 2
#     Edge 60, Type (0, 0), BuildingBlock: TEMPAE_clean_linker_10, # of connection points: 2
#     Edge 61, Type (0, 0), BuildingBlock: TEMPAE_clean_linker_10, # of connection points: 2
#     Edge 62, Type (0, 0), BuildingBlock: TEMPAE_clean_linker_10, # of connection points: 2
#     Edge 63, Type (0, 0), BuildingBlock: TEMPAE_clean_linker_10, # of connection points: 2
#     Edge 64, Type (0, 0), BuildingBlock: TEMPAE_clean_linker_10, # of connection points: 2
#     Edge 65, Type (0, 0), BuildingBlock: TEMPAE_clean_linker_10, # of connection points: 2
#     Edge 66, Type (0, 0), BuildingBlock: TEMPAE_clean_linker_10, # of connection points: 2
#     Edge 67, Type (0, 0), BuildingBlock: TEMPAE_clean_linker_10, # of connection points: 2
#     Edge 68, Type (0, 0), BuildingBlock: TEMPAE_clean_linker_10, # of connection points: 2
#     Edge 69, Type (0, 0), BuildingBlock: TEMPAE_clean_linker_10, # of connection points: 2
#     Edge 70, Type (0, 0), BuildingBlock: TEMPAE_clean_linker_10, # of connection points: 2
#     Edge 71, Type (0, 0), BuildingBlock: TEMPAE_clean_linker_10, # of connection points: 2
#     Edge 72, Type (0, 0), BuildingBlock: TEMPAE_clean_linker_10, # of connection points: 2
#     Edge 73, Type (0, 0), BuildingBlock: TEMPAE_clean_linker_10, # of connection points: 2
#     Edge 74, Type (0, 0), BuildingBlock: TEMPAE_clean_linker_10, # of connection points: 2
#     Edge 75, Type (0, 0), BuildingBlock: TEMPAE_clean_linker_10, # of connection points: 2
#     Edge 76, Type (0, 0), BuildingBlock: TEMPAE_clean_linker_10, # of connection points: 2
#     Edge 77, Type (0, 0), BuildingBlock: TEMPAE_clean_linker_10, # of connection points: 2
#     Edge 78, Type (0, 0), BuildingBlock: TEMPAE_clean_linker_10, # of connection points: 2
#     Edge 79, Type (0, 0), BuildingBlock: TEMPAE_clean_linker_10, # of connection points: 2
#     Edge 80, Type (0, 0), BuildingBlock: TEMPAE_clean_linker_10, # of connection points: 2
#     Edge 81, Type (0, 0), BuildingBlock: TEMPAE_clean_linker_10, # of connection points: 2
#     Edge 82, Type (0, 0), BuildingBlock: TEMPAE_clean_linker_10, # of connection points: 2
#     Edge 83, Type (0, 0), BuildingBlock: TEMPAE_clean_linker_10, # of connection points: 2
#     Edge 84, Type (0, 0), BuildingBlock: TEMPAE_clean_linker_10, # of connection points: 2
#     Edge 85, Type (0, 0), BuildingBlock: TEMPAE_clean_linker_10, # of connection points: 2
#     Edge 86, Type (0, 0), BuildingBlock: TEMPAE_clean_linker_10, # of connection points: 2
#     Edge 87, Type (0, 0), BuildingBlock: TEMPAE_clean_linker_10, # of connection points: 2
#     Edge 88, Type (0, 0), BuildingBlock: TEMPAE_clean_linker_10, # of connection points: 2
#     Edge 89, Type (0, 0), BuildingBlock: TEMPAE_clean_linker_10, # of connection points: 2
#     Edge 90, Type (0, 0), BuildingBlock: TEMPAE_clean_linker_10, # of connection points: 2
#     Edge 91, Type (0, 0), BuildingBlock: TEMPAE_clean_linker_10, # of connection points: 2
#     Edge 92, Type (0, 0), BuildingBlock: TEMPAE_clean_linker_10, # of connection points: 2
#     Edge 93, Type (0, 0), BuildingBlock: TEMPAE_clean_linker_10, # of connection points: 2
#     Edge 94, Type (0, 0), BuildingBlock: TEMPAE_clean_linker_10, # of connection points: 2
#     Edge 95, Type (0, 0), BuildingBlock: TEMPAE_clean_linker_10, # of connection points: 2
# Relax obj value: 0.057
# Max RMSD: 0.126
# Mean RMSD: 0.126
data_MOF--net-uos--node1-QUQFOY_clean_sbu_1--edge1-TEMPAE_clean_linker_10
_symmetry_space_group_name_H-M    P1
_symmetry_Int_Tables_number       1
_symmetry_cell_setting            triclinic
loop_
_symmetry_equiv_pos_as_xyz
'x, y, z'
_cell_length_a     91.196461
_cell_length_b     91.198767
_cell_length_c     24.389561
_cell_angle_alpha  89.994702
_cell_angle_beta   89.99697
_cell_angle_gamma 89.990019
loop_
_atom_site_label
_atom_site_type_symbol
_atom_site_fract_x
_atom_site_fract_y
_atom_site_fract_z
_atom_type_partial_charge
O0 O 0.15952 0.14033 0.18404 0.0
Cd1 Cd 0.17349 0.14504 0.12018 0.0
Cd2 Cd 0.17013 0.17317 0.16271 0.0
O3 O 0.15422 0.16295 0.20864 0.0
O4 O 0.17223 0.12704 0.07406 0.0
O5 O 0.16475 0.1488 0.04553 0.0
C6 C 0.16599 0.13488 0.03676 0.0
C7 C 0.16508 0.19724 0.13534 0.0
C8 C 0.15234 0.14923 0.21369 0.0
C9 C 0.20013 0.15874 0.16984 0.0
O10 O 0.19164 0.1691 0.18441 0.0
O11 O 0.19537 0.14835 0.13985 0.0
O12 O 0.16705 0.19383 0.18596 0.0
O13 O 0.16593 0.18693 0.09922 0.0
O14 O 0.11124 0.90854 0.44139 0.0
Cd15 Cd 0.10679 0.9225 0.37719 0.0
Cd16 Cd 0.07864 0.9194 0.4184 0.0
O17 O 0.0885 0.90335 0.46466 0.0
O18 O 0.12478 0.92094 0.33116 0.0
O19 O 0.10292 0.91373 0.30272 0.0
C20 C 0.11686 0.91478 0.29395 0.0
C21 C 0.05462 0.91461 0.38978 0.0
C22 C 0.10218 0.90139 0.47051 0.0
C23 C 0.0933 0.94923 0.42647 0.0
O24 O 0.08287 0.94082 0.44082 0.0
O25 O 0.10367 0.94442 0.39647 0.0
O26 O 0.05787 0.91655 0.44056 0.0
O27 O 0.06507 0.91536 0.35419 0.0
O28 O 0.34037 0.85983 0.68529 0.0
Cd29 Cd 0.32627 0.85541 0.62162 0.0
Cd30 Cd 0.32979 0.82712 0.66085 0.0
O31 O 0.3459 0.83704 0.70663 0.0
O32 O 0.32758 0.87338 0.57547 0.0
O33 O 0.33487 0.85154 0.54696 0.0
C34 C 0.33371 0.86547 0.53813 0.0
C35 C 0.33488 0.80312 0.6327 0.0
C36 C 0.34773 0.85071 0.71333 0.0
C37 C 0.29984 0.84151 0.67122 0.0
O38 O 0.30838 0.83105 0.68424 0.0
O39 O 0.30446 0.85208 0.64188 0.0
O40 O 0.33295 0.80643 0.68341 0.0
O41 O 0.33389 0.81348 0.59684 0.0
O42 O 0.38949 0.09036 0.93669 0.0
Cd43 Cd 0.3924 0.0763 0.87147 0.0
Cd44 Cd 0.42131 0.07772 0.91236 0.0
O45 O 0.41241 0.09326 0.96369 0.0
O46 O 0.37419 0.07922 0.82755 0.0
O47 O 0.39626 0.08487 0.79662 0.0
C48 C 0.38222 0.08478 0.78935 0.0
C49 C 0.4459 0.08087 0.88721 0.0
C50 C 0.39887 0.0963 0.96822 0.0
C51 C 0.40463 0.04854 0.91597 0.0
O52 O 0.41575 0.05627 0.92819 0.0
O53 O 0.39399 0.05412 0.88947 0.0
O54 O 0.44215 0.07701 0.93589 0.0
O55 O 0.43563 0.08338 0.85206 0.0
O56 O 0.15726 0.86081 0.8191 0.0
Cd57 Cd 0.17132 0.85587 0.88243 0.0
Cd58 Cd 0.16733 0.82793 0.84016 0.0
O59 O 0.15119 0.83828 0.79585 0.0
O60 O 0.17043 0.87384 0.92877 0.0
O61 O 0.16272 0.85216 0.95731 0.0
C62 C 0.16417 0.86606 0.96618 0.0
C63 C 0.16245 0.80381 0.86747 0.0
C64 C 0.14966 0.85203 0.79038 0.0
C65 C 0.19743 0.84197 0.83049 0.0
O66 O 0.18866 0.83184 0.81604 0.0
O67 O 0.19307 0.85228 0.8617 0.0
O68 O 0.16401 0.80732 0.81676 0.0
O69 O 0.16357 0.81405 0.90372 0.0
O70 O 0.38784 0.90473 0.06281 0.0
Cd71 Cd 0.39217 0.91936 0.12489 0.0
Cd72 Cd 0.42027 0.91642 0.08178 0.0
O73 O 0.41056 0.89977 0.03832 0.0
O74 O 0.37406 0.91814 0.17034 0.0
O75 O 0.39589 0.91147 0.20088 0.0
C76 C 0.38191 0.91248 0.20885 0.0
C77 C 0.44456 0.91246 0.10918 0.0
C78 C 0.39688 0.89752 0.0338 0.0
C79 C 0.4048 0.94579 0.07049 0.0
O80 O 0.41536 0.93747 0.05659 0.0
O81 O 0.39475 0.9411 0.10218 0.0
O82 O 0.441 0.91385 0.05844 0.0
O83 O 0.43428 0.91331 0.14542 0.0
O84 O 0.34362 0.13876 0.31353 0.0
Cd85 Cd 0.32933 0.1441 0.37576 0.0
Cd86 Cd 0.33353 0.17179 0.33068 0.0
O87 O 0.34983 0.16109 0.2882 0.0
O88 O 0.32983 0.12622 0.42277 0.0
O89 O 0.33771 0.14786 0.45102 0.0
C90 C 0.33604 0.134 0.46027 0.0
C91 C 0.33834 0.19592 0.35804 0.0
C92 C 0.35136 0.14729 0.28434 0.0
C93 C 0.30336 0.15786 0.32182 0.0
O94 O 0.3122 0.16782 0.30633 0.0
O95 O 0.30766 0.14776 0.35408 0.0
O96 O 0.33699 0.1924 0.30724 0.0
O97 O 0.33709 0.18568 0.39427 0.0
O98 O 0.11261 0.09311 0.56187 0.0
Cd99 Cd 0.10788 0.07918 0.62582 0.0
Cd100 Cd 0.07979 0.08272 0.58392 0.0
O101 O 0.08999 0.09867 0.53809 0.0
O102 O 0.12585 0.08043 0.6721 0.0
O103 O 0.10407 0.08796 0.70035 0.0
C104 C 0.11799 0.0867 0.70927 0.0
C105 C 0.05578 0.08773 0.61204 0.0
C106 C 0.10371 0.10042 0.5326 0.0
C107 C 0.09405 0.05267 0.57612 0.0
O108 O 0.08375 0.06124 0.56167 0.0
O109 O 0.10447 0.05733 0.6062 0.0
O110 O 0.05909 0.08588 0.56128 0.0
O111 O 0.06615 0.08682 0.64787 0.0
O112 O 0.84425 0.86106 0.81224 0.0
Cd113 Cd 0.82938 0.85782 0.87457 0.0
Cd114 Cd 0.8308 0.82949 0.83009 0.0
O115 O 0.84734 0.83837 0.78325 0.0
O116 O 0.83169 0.87593 0.91933 0.0
O117 O 0.83705 0.85384 0.95069 0.0
C118 C 0.8368 0.86787 0.95826 0.0
C119 C 0.83326 0.80495 0.85669 0.0
C120 C 0.85058 0.8519 0.78095 0.0
C121 C 0.80202 0.84661 0.82336 0.0
O122 O 0.8097 0.83555 0.81003 0.0
O123 O 0.80745 0.85671 0.85304 0.0
O124 O 0.83029 0.80861 0.807 0.0
O125 O 0.83523 0.81529 0.89205 0.0
O126 O 0.89154 0.09558 0.56326 0.0
Cd127 Cd 0.89468 0.08056 0.62518 0.0
Cd128 Cd 0.92298 0.08182 0.58053 0.0
O129 O 0.91427 0.09861 0.53456 0.0
O130 O 0.87657 0.0829 0.66993 0.0
O131 O 0.89869 0.08805 0.70149 0.0
C132 C 0.88466 0.08788 0.70902 0.0
C133 C 0.94755 0.08392 0.60705 0.0
C134 C 0.90077 0.10195 0.5323 0.0
C135 C 0.90557 0.05324 0.57287 0.0
O136 O 0.91666 0.06087 0.55945 0.0
O137 O 0.8956 0.05866 0.60316 0.0
O138 O 0.94384 0.08114 0.55727 0.0
O139 O 0.93724 0.0859 0.64257 0.0
O140 O 0.65782 0.1409 0.31641 0.0
Cd141 Cd 0.67257 0.14345 0.37959 0.0
Cd142 Cd 0.67166 0.17206 0.33894 0.0
O143 O 0.65507 0.16392 0.29075 0.0
O144 O 0.66962 0.12532 0.42374 0.0
O145 O 0.66482 0.14752 0.45544 0.0
C146 C 0.66463 0.13348 0.46265 0.0
C147 C 0.66963 0.19655 0.36674 0.0
C148 C 0.65168 0.15047 0.28631 0.0
C149 C 0.70011 0.15447 0.32997 0.0
O150 O 0.6926 0.16576 0.31802 0.0
O151 O 0.69457 0.14424 0.35871 0.0
O152 O 0.67263 0.193 0.31698 0.0
O153 O 0.66743 0.18613 0.40156 0.0
O154 O 0.60944 0.90967 0.06254 0.0
Cd155 Cd 0.60594 0.92393 0.12673 0.0
Cd156 Cd 0.57742 0.92207 0.0826 0.0
O157 O 0.58677 0.90619 0.03382 0.0
O158 O 0.62413 0.92162 0.17118 0.0
O159 O 0.60217 0.9155 0.20188 0.0
C160 C 0.61619 0.91598 0.20945 0.0
C161 C 0.55284 0.91891 0.1076 0.0
C162 C 0.60038 0.90335 0.03081 0.0
C163 C 0.59373 0.95142 0.07961 0.0
O164 O 0.5829 0.94351 0.06558 0.0
O165 O 0.60409 0.94603 0.10812 0.0
O166 O 0.55662 0.92237 0.05849 0.0
O167 O 0.56309 0.91679 0.1432 0.0
O168 O 0.84512 0.14153 0.18819 0.0
Cd169 Cd 0.83021 0.14422 0.12565 0.0
Cd170 Cd 0.83115 0.17273 0.16789 0.0
O171 O 0.84776 0.16441 0.2158 0.0
O172 O 0.83296 0.12604 0.08163 0.0
O173 O 0.83777 0.14818 0.04943 0.0
C174 C 0.83787 0.13413 0.0424 0.0
C175 C 0.8332 0.19718 0.13978 0.0
C176 C 0.85123 0.15095 0.21901 0.0
C177 C 0.80267 0.15515 0.17591 0.0
O178 O 0.81015 0.16643 0.18813 0.0
O179 O 0.80827 0.14495 0.14717 0.0
O180 O 0.8302 0.1937 0.18961 0.0
O181 O 0.83544 0.18673 0.10513 0.0
O182 O 0.61054 0.09627 0.94052 0.0
Cd183 Cd 0.60607 0.08153 0.87899 0.0
Cd184 Cd 0.57812 0.08449 0.92268 0.0
O185 O 0.58789 0.10125 0.96565 0.0
O186 O 0.62411 0.08256 0.83318 0.0
O187 O 0.60228 0.08933 0.80298 0.0
C188 C 0.61623 0.0882 0.7947 0.0
C189 C 0.55397 0.08848 0.89391 0.0
C190 C 0.60157 0.10356 0.96954 0.0
C191 C 0.59343 0.05505 0.93318 0.0
O192 O 0.58292 0.06337 0.94756 0.0
O193 O 0.60347 0.05981 0.90161 0.0
O194 O 0.55732 0.08711 0.94488 0.0
O195 O 0.56441 0.08763 0.85828 0.0
O196 O 0.65688 0.8626 0.68687 0.0
Cd197 Cd 0.67149 0.85913 0.62377 0.0
Cd198 Cd 0.66979 0.8308 0.66851 0.0
O199 O 0.65344 0.83993 0.71568 0.0
O200 O 0.66916 0.87718 0.57857 0.0
O201 O 0.66349 0.85506 0.54817 0.0
C202 C 0.66381 0.86907 0.54019 0.0
C203 C 0.66722 0.80618 0.64301 0.0
C204 C 0.65046 0.85352 0.71828 0.0
C205 C 0.69881 0.84758 0.67403 0.0
O206 O 0.69097 0.83668 0.68784 0.0
O207 O 0.6935 0.85772 0.64426 0.0
O208 O 0.67023 0.80999 0.69251 0.0
O209 O 0.66521 0.81642 0.60726 0.0
O210 O 0.89043 0.90797 0.43692 0.0
Cd211 Cd 0.89339 0.92267 0.37384 0.0
Cd212 Cd 0.92195 0.92136 0.41652 0.0
O213 O 0.91326 0.90499 0.46469 0.0
O214 O 0.87523 0.92007 0.32954 0.0
O215 O 0.89735 0.91481 0.29803 0.0
C216 C 0.88331 0.91491 0.2907 0.0
C217 C 0.94649 0.91894 0.38995 0.0
C218 C 0.89974 0.90175 0.46793 0.0
C219 C 0.9048 0.95018 0.42292 0.0
O220 O 0.91594 0.94252 0.4356 0.0
O221 O 0.89452 0.94467 0.39439 0.0
O222 O 0.94284 0.92211 0.43945 0.0
O223 O 0.93616 0.91672 0.35477 0.0
O224 O 0.65809 0.64087 0.68388 0.0
Cd225 Cd 0.67249 0.64601 0.62188 0.0
Cd226 Cd 0.6685 0.6738 0.66556 0.0
O227 O 0.65209 0.66333 0.70817 0.0
O228 O 0.67192 0.62812 0.57508 0.0
O229 O 0.66425 0.64981 0.54653 0.0
C230 C 0.66583 0.63593 0.53741 0.0
C231 C 0.66362 0.69786 0.63774 0.0
C232 C 0.65039 0.64957 0.71254 0.0
C233 C 0.69853 0.65966 0.67554 0.0
O234 O 0.6898 0.6698 0.69037 0.0
O235 O 0.69415 0.64949 0.64381 0.0
O236 O 0.66502 0.69442 0.68859 0.0
O237 O 0.66494 0.68759 0.60166 0.0
O238 O 0.61012 0.40592 0.94218 0.0
Cd239 Cd 0.60773 0.42052 0.87841 0.0
Cd240 Cd 0.579 0.42012 0.9208 0.0
O241 O 0.58725 0.40396 0.97082 0.0
O242 O 0.62612 0.41744 0.83579 0.0
O243 O 0.60412 0.41269 0.80222 0.0
C244 C 0.6182 0.41247 0.7962 0.0
C245 C 0.55443 0.41795 0.89397 0.0
C246 C 0.60065 0.40028 0.97408 0.0
C247 C 0.59693 0.44844 0.92653 0.0
O248 O 0.5855 0.44119 0.93877 0.0
O249 O 0.60714 0.44256 0.89865 0.0
O250 O 0.55808 0.42142 0.94319 0.0
O251 O 0.56478 0.41535 0.8592 0.0
O252 O 0.84123 0.36209 0.18443 0.0
Cd253 Cd 0.8274 0.35727 0.12026 0.0
Cd254 Cd 0.83117 0.32921 0.16128 0.0
O255 O 0.84702 0.33946 0.20738 0.0
O256 O 0.82861 0.37519 0.07372 0.0
O257 O 0.83631 0.35341 0.04604 0.0
C258 C 0.83499 0.36731 0.03685 0.0
C259 C 0.83645 0.30525 0.13318 0.0
C260 C 0.84863 0.35319 0.21336 0.0
C261 C 0.80098 0.34316 0.16929 0.0
O262 O 0.80964 0.33292 0.18355 0.0
O263 O 0.80555 0.35367 0.13948 0.0
O264 O 0.83449 0.30854 0.1839 0.0
O265 O 0.83547 0.31562 0.09735 0.0
O266 O 0.88827 0.59221 0.43504 0.0
Cd267 Cd 0.89311 0.57822 0.37134 0.0
Cd268 Cd 0.92107 0.58199 0.41261 0.0
O269 O 0.91089 0.59805 0.45788 0.0
O270 O 0.87522 0.57938 0.32461 0.0
O271 O 0.89703 0.58696 0.29686 0.0
C272 C 0.88313 0.58565 0.2876 0.0
C273 C 0.94499 0.58701 0.38349 0.0
C274 C 0.89716 0.59968 0.46374 0.0
C275 C 0.90702 0.55191 0.42194 0.0
O276 O 0.91724 0.56059 0.43621 0.0
O277 O 0.89662 0.55641 0.39141 0.0
O278 O 0.9418 0.58534 0.43445 0.0
O279 O 0.93455 0.5859 0.34802 0.0
O280 O 0.65765 0.361 0.31811 0.0
Cd281 Cd 0.67224 0.35607 0.37972 0.0
Cd282 Cd 0.66838 0.32835 0.33832 0.0
O283 O 0.65159 0.33838 0.29633 0.0
O284 O 0.6714 0.37374 0.42752 0.0
O285 O 0.6641 0.35179 0.45477 0.0
C286 C 0.66543 0.36565 0.4647 0.0
C287 C 0.66395 0.30445 0.36873 0.0
C288 C 0.64981 0.3521 0.29086 0.0
C289 C 0.69823 0.34262 0.32555 0.0
O290 O 0.6895 0.33241 0.3115 0.0
O291 O 0.69389 0.35281 0.35728 0.0
O292 O 0.66501 0.30757 0.31747 0.0
O293 O 0.66536 0.31497 0.40376 0.0
O294 O 0.88892 0.4085 0.56233 0.0
Cd295 Cd 0.89371 0.42246 0.62614 0.0
Cd296 Cd 0.92172 0.41888 0.58395 0.0
O297 O 0.91151 0.40298 0.53797 0.0
O298 O 0.87569 0.42131 0.67219 0.0
O299 O 0.89742 0.41375 0.70085 0.0
C300 C 0.8835 0.41506 0.70956 0.0
C301 C 0.94571 0.41381 0.6123 0.0
C302 C 0.89778 0.40123 0.53279 0.0
C303 C 0.9075 0.44894 0.57604 0.0
O304 O 0.9178 0.44035 0.56159 0.0
O305 O 0.89711 0.4443 0.60628 0.0
O306 O 0.94244 0.41572 0.56153 0.0
O307 O 0.9353 0.4147 0.648 0.0
O308 O 0.84186 0.63994 0.81301 0.0
Cd309 Cd 0.82808 0.64476 0.87733 0.0
Cd310 Cd 0.83186 0.67286 0.83568 0.0
O311 O 0.84756 0.66252 0.78914 0.0
O312 O 0.82917 0.62669 0.92316 0.0
O313 O 0.83698 0.64833 0.9518 0.0
C314 C 0.83557 0.63441 0.96042 0.0
C315 C 0.8372 0.69681 0.86379 0.0
C316 C 0.84917 0.64878 0.78354 0.0
C317 C 0.80163 0.65897 0.82852 0.0
O318 O 0.81029 0.66919 0.81403 0.0
O319 O 0.80623 0.64846 0.85826 0.0
O320 O 0.83521 0.69354 0.81307 0.0
O321 O 0.83625 0.68643 0.89958 0.0
O322 O 0.61237 0.59354 0.06046 0.0
Cd323 Cd 0.60978 0.57906 0.12453 0.0
Cd324 Cd 0.58104 0.58001 0.08353 0.0
O325 O 0.5894 0.59617 0.03382 0.0
O326 O 0.628 0.58207 0.16819 0.0
O327 O 0.60588 0.58709 0.20016 0.0
C328 C 0.61993 0.58723 0.20705 0.0
C329 C 0.55651 0.58235 0.1106 0.0
C330 C 0.60288 0.5995 0.02949 0.0
C331 C 0.59848 0.55138 0.07672 0.0
O332 O 0.58721 0.5589 0.06464 0.0
O333 O 0.60881 0.55699 0.10471 0.0
O334 O 0.56012 0.57902 0.06121 0.0
O335 O 0.56689 0.58475 0.14541 0.0
O336 O 0.3431 0.36076 0.31476 0.0
Cd337 Cd 0.32882 0.35794 0.37929 0.0
Cd338 Cd 0.32966 0.3291 0.3355 0.0
O339 O 0.34531 0.33804 0.28472 0.0
O340 O 0.33171 0.37631 0.42228 0.0
O341 O 0.33704 0.35435 0.45496 0.0
C342 C 0.33701 0.36842 0.46135 0.0
C343 C 0.33249 0.30435 0.35939 0.0
C344 C 0.34873 0.35152 0.28194 0.0
C345 C 0.30088 0.34648 0.33304 0.0
O346 O 0.30832 0.33521 0.32026 0.0
O347 O 0.3067 0.35686 0.36022 0.0
O348 O 0.32865 0.30833 0.31091 0.0
O349 O 0.33511 0.31448 0.39503 0.0
O350 O 0.39154 0.59324 0.06719 0.0
Cd351 Cd 0.39664 0.57892 0.12951 0.0
Cd352 Cd 0.42437 0.58259 0.08559 0.0
O353 O 0.41403 0.59902 0.04255 0.0
O354 O 0.37884 0.57973 0.17665 0.0
O355 O 0.40063 0.58731 0.20449 0.0
C356 C 0.38675 0.58585 0.21395 0.0
C357 C 0.44839 0.58735 0.11397 0.0
C358 C 0.40028 0.60083 0.0383 0.0
C359 C 0.41009 0.55262 0.07678 0.0
O360 O 0.42026 0.56125 0.06149 0.0
O361 O 0.39996 0.55718 0.10836 0.0
O362 O 0.44504 0.58588 0.06305 0.0
O363 O 0.43803 0.58618 0.14978 0.0
O364 O 0.15626 0.64034 0.80665 0.0
Cd365 Cd 0.17103 0.64296 0.86965 0.0
Cd366 Cd 0.17032 0.67147 0.82771 0.0
O367 O 0.15383 0.66324 0.77904 0.0
O368 O 0.16814 0.6248 0.91368 0.0
O369 O 0.16332 0.64697 0.94563 0.0
C370 C 0.16318 0.63292 0.95274 0.0
C371 C 0.16805 0.69582 0.85675 0.0
C372 C 0.15028 0.64981 0.77565 0.0
C373 C 0.19877 0.65384 0.82057 0.0
O374 O 0.19139 0.66517 0.80818 0.0
O375 O 0.19303 0.64364 0.84891 0.0
O376 O 0.17126 0.69251 0.80693 0.0
O377 O 0.16578 0.68524 0.89087 0.0
O378 O 0.10981 0.40791 0.56303 0.0
Cd379 Cd 0.10701 0.4226 0.62622 0.0
Cd380 Cd 0.0783 0.42131 0.58459 0.0
O381 O 0.08692 0.40505 0.53578 0.0
O382 O 0.12526 0.42001 0.67004 0.0
O383 O 0.10321 0.41478 0.70219 0.0
C384 C 0.11726 0.41488 0.70915 0.0
C385 C 0.05379 0.41875 0.61154 0.0
C386 C 0.10042 0.40177 0.53212 0.0
C387 C 0.09543 0.45013 0.5777 0.0
O388 O 0.08423 0.44251 0.5657 0.0
O389 O 0.10584 0.44459 0.60555 0.0
O390 O 0.05738 0.42205 0.56209 0.0
O391 O 0.06418 0.4165 0.64648 0.0
O392 O 0.34444 0.63948 0.69123 0.0
Cd393 Cd 0.33002 0.64206 0.62694 0.0
Cd394 Cd 0.33068 0.67061 0.66865 0.0
O395 O 0.34695 0.66242 0.71832 0.0
O396 O 0.3332 0.62387 0.58331 0.0
O397 O 0.33813 0.64602 0.55148 0.0
C398 C 0.33836 0.63197 0.54456 0.0
C399 C 0.33269 0.69506 0.64042 0.0
C400 C 0.35034 0.64896 0.72239 0.0
C401 C 0.30218 0.65302 0.67465 0.0
O402 O 0.30963 0.66427 0.68756 0.0
O403 O 0.30789 0.64284 0.64615 0.0
O404 O 0.32949 0.69158 0.69007 0.0
O405 O 0.33521 0.68459 0.60606 0.0
O406 O 0.10924 0.59501 0.4316 0.0
Cd407 Cd 0.10598 0.57988 0.37012 0.0
Cd408 Cd 0.07775 0.58142 0.41504 0.0
O409 O 0.08654 0.59831 0.46025 0.0
O410 O 0.12411 0.58204 0.32532 0.0
O411 O 0.10202 0.58726 0.2936 0.0
C412 C 0.11605 0.58701 0.28611 0.0
C413 C 0.05317 0.58348 0.3886 0.0
C414 C 0.10007 0.60153 0.46235 0.0
C415 C 0.09503 0.55279 0.42373 0.0
O416 O 0.08401 0.56053 0.43713 0.0
O417 O 0.10496 0.55804 0.39285 0.0
O418 O 0.0569 0.58089 0.4385 0.0
O419 O 0.06346 0.5853 0.3529 0.0
O420 O 0.15591 0.36151 0.18781 0.0
Cd421 Cd 0.17109 0.35835 0.12642 0.0
Cd422 Cd 0.16953 0.33007 0.1707 0.0
O423 O 0.15256 0.33875 0.21577 0.0
O424 O 0.16887 0.37644 0.08141 0.0
O425 O 0.16378 0.3543 0.04987 0.0
C426 C 0.16397 0.36832 0.04225 0.0
C427 C 0.16761 0.30552 0.14364 0.0
C428 C 0.14935 0.35229 0.21822 0.0
C429 C 0.19811 0.34738 0.18043 0.0
O430 O 0.19036 0.33636 0.19345 0.0
O431 O 0.19293 0.35734 0.14951 0.0
O432 O 0.17012 0.30918 0.19368 0.0
O433 O 0.16578 0.31586 0.10816 0.0
O434 O 0.38909 0.40906 0.93801 0.0
Cd435 Cd 0.3944 0.42313 0.87511 0.0
Cd436 Cd 0.42217 0.41889 0.91807 0.0
O437 O 0.41152 0.40269 0.96131 0.0
O438 O 0.37671 0.42239 0.82725 0.0
O439 O 0.39849 0.41442 0.80075 0.0
C440 C 0.38467 0.41602 0.79062 0.0
C441 C 0.4462 0.41374 0.89051 0.0
C442 C 0.39775 0.40124 0.9664 0.0
C443 C 0.40851 0.4492 0.92668 0.0
O444 O 0.4185 0.44034 0.9418 0.0
O445 O 0.39819 0.44485 0.8955 0.0
O446 O 0.44275 0.4153 0.9413 0.0
O447 O 0.43594 0.415 0.85437 0.0
C448 C 0.28443 0.16687 0.25561 0.0
C449 C 0.28816 0.15779 0.3 0.0
C450 C 0.27026 0.16674 0.23316 0.0
C451 C 0.25945 0.15744 0.25601 0.0
C452 C 0.26309 0.14829 0.30095 0.0
C453 C 0.27742 0.1485 0.32219 0.0
C454 C 0.26687 0.17656 0.18493 0.0
C455 C 0.2518 0.13837 0.32688 0.0
C456 C 0.2197 0.1682 0.23243 0.0
C457 C 0.21544 0.15851 0.19061 0.0
C458 C 0.23391 0.16783 0.25443 0.0
C459 C 0.24423 0.15765 0.23376 0.0
C460 C 0.24007 0.14791 0.19124 0.0
C461 C 0.2257 0.1484 0.17038 0.0
C462 C 0.23786 0.17832 0.30004 0.0
C463 C 0.25083 0.13702 0.16766 0.0
H464 H 0.29265 0.17401 0.23781 0.0
H465 H 0.28019 0.14146 0.35648 0.0
H466 H 0.26268 0.16993 0.15018 0.0
H467 H 0.25814 0.18448 0.19618 0.0
H468 H 0.27663 0.18281 0.17085 0.0
H469 H 0.25639 0.13185 0.36132 0.0
H470 H 0.24249 0.145 0.34253 0.0
H471 H 0.24731 0.13071 0.29576 0.0
H472 H 0.21186 0.17599 0.24869 0.0
H473 H 0.22252 0.14087 0.1381 0.0
H474 H 0.24702 0.18551 0.28689 0.0
H475 H 0.24169 0.17211 0.33646 0.0
H476 H 0.22847 0.18534 0.31239 0.0
H477 H 0.26048 0.14289 0.15073 0.0
H478 H 0.2459 0.13023 0.13463 0.0
H479 H 0.25489 0.12964 0.20045 0.0
C480 C 0.10315 0.97498 0.42493 0.0
C481 C 0.09364 0.9645 0.44751 0.0
C482 C 0.10363 0.98937 0.44563 0.0
C483 C 0.09457 0.99329 0.49049 0.0
C484 C 0.08507 0.98272 0.51375 0.0
C485 C 0.08464 0.96851 0.49175 0.0
C486 C 0.11374 0.00041 0.41921 0.0
C487 C 0.07535 0.9864 0.562 0.0
C488 C 0.10416 0.02701 0.57543 0.0
C489 C 0.09415 0.03737 0.55524 0.0
C490 C 0.10447 0.01262 0.55466 0.0
C491 C 0.09465 0.00856 0.51227 0.0
C492 C 0.0846 0.01899 0.49153 0.0
C493 C 0.08441 0.03321 0.51344 0.0
C494 C 0.11522 0.00173 0.57833 0.0
C495 C 0.07403 0.01514 0.44605 0.0
H496 H 0.11012 0.97198 0.39075 0.0
H497 H 0.07736 0.96047 0.50988 0.0
H498 H 0.10726 0.0098 0.40336 0.0
H499 H 0.1215 0.00482 0.45007 0.0
H500 H 0.12012 0.99562 0.38481 0.0
H501 H 0.06895 0.97679 0.57648 0.0
H502 H 0.0821 0.99055 0.59653 0.0
H503 H 0.06759 0.99525 0.55057 0.0
H504 H 0.11173 0.03011 0.60768 0.0
H505 H 0.07669 0.04114 0.4972 0.0
H506 H 0.12247 0.99746 0.54549 0.0
H507 H 0.10921 0.99223 0.59574 0.0
H508 H 0.12215 0.00662 0.61101 0.0
H509 H 0.08016 0.01109 0.40978 0.0
H510 H 0.06721 0.02464 0.43335 0.0
H511 H 0.06665 0.00617 0.45956 0.0
C512 C 0.21615 0.83297 0.76355 0.0
C513 C 0.21257 0.84204 0.80813 0.0
C514 C 0.23021 0.83317 0.74021 0.0
C515 C 0.24107 0.84252 0.7624 0.0
C516 C 0.2376 0.85163 0.80763 0.0
C517 C 0.22335 0.85137 0.82972 0.0
C518 C 0.23341 0.8234 0.69165 0.0
C519 C 0.24897 0.86158 0.83291 0.0
C520 C 0.28069 0.83192 0.73532 0.0
C521 C 0.28466 0.84166 0.69327 0.0
C522 C 0.26663 0.83224 0.75863 0.0
C523 C 0.25616 0.84242 0.73901 0.0
C524 C 0.26002 0.85221 0.69627 0.0
C525 C 0.27426 0.85178 0.67414 0.0
C526 C 0.263 0.82171 0.80446 0.0
C527 C 0.24909 0.86308 0.67374 0.0
H528 H 0.20788 0.82581 0.7462 0.0
H529 H 0.22069 0.85839 0.86414 0.0
H530 H 0.23736 0.83009 0.65665 0.0
H531 H 0.24226 0.81554 0.70216 0.0
H532 H 0.22363 0.81709 0.67825 0.0
H533 H 0.24452 0.868 0.86788 0.0
H534 H 0.25841 0.85499 0.84763 0.0
H535 H 0.25322 0.86933 0.80163 0.0
H536 H 0.28866 0.82413 0.75076 0.0
H537 H 0.27722 0.85934 0.64169 0.0
H538 H 0.25382 0.81446 0.79195 0.0
H539 H 0.25933 0.82787 0.8412 0.0
H540 H 0.2725 0.81474 0.81606 0.0
H541 H 0.23937 0.85719 0.65746 0.0
H542 H 0.2538 0.86994 0.64045 0.0
H543 H 0.24517 0.8704 0.70698 0.0
C544 C 0.41379 0.02864 0.97725 0.0
C545 C 0.40394 0.03323 0.93641 0.0
C546 C 0.41319 0.01445 0.99912 0.0
C547 C 0.40262 0.00443 0.97919 0.0
C548 C 0.39267 0.00891 0.93778 0.0
C549 C 0.39337 0.02331 0.91714 0.0
C550 C 0.42389 0.01019 0.04366 0.0
C551 C 0.38141 0.99844 0.91496 0.0
C552 C 0.41239 0.96442 0.00092 0.0
C553 C 0.40394 0.96078 0.04708 0.0
C554 C 0.41164 0.97842 0.9773 0.0
C555 C 0.4024 0.98917 0.00086 0.0
C556 C 0.39376 0.98557 0.04722 0.0
C557 C 0.39454 0.97137 0.06954 0.0
C558 C 0.42092 0.98176 0.92752 0.0
C559 C 0.38395 0.99681 0.07403 0.0
H560 H 0.42191 0.03624 0.99291 0.0
H561 H 0.38573 0.02677 0.88565 0.0
H562 H 0.41786 0.00625 0.08033 0.0
H563 H 0.43093 0.00104 0.02932 0.0
H564 H 0.43108 0.01945 0.05606 0.0
H565 H 0.3744 0.00363 0.88316 0.0
H566 H 0.38697 0.98879 0.89667 0.0
H567 H 0.37427 0.99432 0.94843 0.0
H568 H 0.41955 0.95626 0.98281 0.0
H569 H 0.38796 0.96864 0.10512 0.0
H570 H 0.42918 0.99025 0.93788 0.0
H571 H 0.41398 0.98625 0.89414 0.0
H572 H 0.42675 0.97191 0.91193 0.0
H573 H 0.3907 0.00598 0.09007 0.0
H574 H 0.37748 0.99212 0.10839 0.0
H575 H 0.37627 0.00151 0.04344 0.0
C576 C 0.77695 0.85814 0.82273 0.0
C577 C 0.78689 0.84787 0.80149 0.0
C578 C 0.7626 0.8592 0.80184 0.0
C579 C 0.7582 0.84992 0.75824 0.0
C580 C 0.76831 0.83978 0.73589 0.0
C581 C 0.78246 0.83881 0.75799 0.0
C582 C 0.75206 0.87 0.82721 0.0
C583 C 0.76411 0.82978 0.68907 0.0
C584 C 0.71827 0.83957 0.73942 0.0
C585 C 0.714 0.84857 0.69551 0.0
C586 C 0.73247 0.84026 0.76119 0.0
C587 C 0.74279 0.85005 0.73807 0.0
C588 C 0.73857 0.85926 0.694 0.0
C589 C 0.72417 0.85849 0.67347 0.0
C590 C 0.73648 0.83035 0.80854 0.0
C591 C 0.74935 0.86968 0.66784 0.0
H592 H 0.78029 0.86519 0.85625 0.0
H593 H 0.7901 0.83095 0.7408 0.0
H594 H 0.74744 0.87731 0.79518 0.0
H595 H 0.74274 0.86402 0.84603 0.0
H596 H 0.75734 0.87687 0.85922 0.0
H597 H 0.77352 0.82316 0.67411 0.0
H598 H 0.75531 0.82218 0.70244 0.0
H599 H 0.75972 0.8363 0.65436 0.0
H600 H 0.71046 0.83199 0.75723 0.0
H601 H 0.72095 0.86549 0.63961 0.0
H602 H 0.74101 0.83692 0.84288 0.0
H603 H 0.74512 0.82252 0.79557 0.0
H604 H 0.72693 0.82399 0.8239 0.0
H605 H 0.75414 0.87704 0.69933 0.0
H606 H 0.74421 0.87651 0.63536 0.0
H607 H 0.75853 0.86339 0.64943 0.0
C608 C 0.89323 0.97524 0.42416 0.0
C609 C 0.90373 0.96537 0.44431 0.0
C610 C 0.89234 0.98963 0.44475 0.0
C611 C 0.90204 0.99414 0.48691 0.0
C612 C 0.91243 0.98412 0.5081 0.0
C613 C 0.91321 0.96993 0.48634 0.0
C614 C 0.88125 1.0001 0.42067 0.0
C615 C 0.92289 0.98844 0.55338 0.0
C616 C 0.91262 0.03402 0.50503 0.0
C617 C 0.90415 0.03819 0.5505 0.0
C618 C 0.91159 0.0199 0.48274 0.0
C619 C 0.90202 0.00956 0.50698 0.0
C620 C 0.89329 0.01371 0.55247 0.0
C621 C 0.89437 0.02804 0.57346 0.0
C622 C 0.92097 0.01598 0.43383 0.0
C623 C 0.88312 0.0029 0.57985 0.0
H624 H 0.88586 0.9718 0.39179 0.0
H625 H 0.92126 0.96235 0.50269 0.0
H626 H 0.87423 0.0047 0.45357 0.0
H627 H 0.88701 0.00943 0.40098 0.0
H628 H 0.87413 0.99474 0.38964 0.0
H629 H 0.92973 0.97909 0.56747 0.0
H630 H 0.93027 0.99729 0.53882 0.0
H631 H 0.9167 0.99281 0.58897 0.0
H632 H 0.92007 0.04185 0.4865 0.0
H633 H 0.88778 0.0312 0.60851 0.0
H634 H 0.91406 0.01136 0.4006 0.0
H635 H 0.92903 0.00743 0.44557 0.0
H636 H 0.92705 0.02558 0.41743 0.0
H637 H 0.87556 0.99803 0.54923 0.0
H638 H 0.87651 0.00805 0.61295 0.0
H639 H 0.8896 0.99379 0.59777 0.0
C640 C 0.72538 0.14339 0.32973 0.0
C641 C 0.71512 0.15313 0.30722 0.0
C642 C 0.73968 0.14246 0.30832 0.0
C643 C 0.74367 0.15127 0.26283 0.0
C644 C 0.73319 0.16076 0.23898 0.0
C645 C 0.71912 0.16166 0.26172 0.0
C646 C 0.75064 0.13237 0.3353 0.0
C647 C 0.73692 0.17021 0.19003 0.0
C648 C 0.78304 0.16309 0.24067 0.0
C649 C 0.7876 0.15376 0.19817 0.0
C650 C 0.76896 0.16202 0.26322 0.0
C651 C 0.75904 0.15148 0.24235 0.0
C652 C 0.76356 0.14192 0.19979 0.0
C653 C 0.77785 0.1431 0.17842 0.0
C654 C 0.76462 0.17235 0.30888 0.0
C655 C 0.7532 0.13069 0.17601 0.0
H656 H 0.72234 0.13675 0.36479 0.0
H657 H 0.71119 0.16906 0.2435 0.0
H658 H 0.75557 0.12492 0.30445 0.0
H659 H 0.7597 0.13894 0.35319 0.0
H660 H 0.74562 0.12566 0.36836 0.0
H661 H 0.72722 0.17618 0.17389 0.0
H662 H 0.74539 0.17837 0.20162 0.0
H663 H 0.74156 0.16337 0.15664 0.0
H664 H 0.79053 0.17125 0.25673 0.0
H665 H 0.78129 0.13583 0.1457 0.0
H666 H 0.76038 0.16605 0.34444 0.0
H667 H 0.75567 0.17967 0.29473 0.0
H668 H 0.77392 0.17926 0.32289 0.0
H669 H 0.74874 0.12362 0.20904 0.0
H670 H 0.7586 0.12362 0.1449 0.0
H671 H 0.74377 0.13632 0.15648 0.0
C672 C 0.6041 0.02965 0.93373 0.0
C673 C 0.59419 0.03991 0.9553 0.0
C674 C 0.60485 0.01531 0.95476 0.0
C675 C 0.59559 0.0112 0.99882 0.0
C676 C 0.58578 0.02159 0.0214 0.0
C677 C 0.58513 0.03576 0.99917 0.0
C678 C 0.61531 0.00447 0.92911 0.0
C679 C 0.57581 0.01769 0.06868 0.0
C680 C 0.58507 0.97128 0.01709 0.0
C681 C 0.59439 0.96678 0.05973 0.0
C682 C 0.58557 0.9856 0.99635 0.0
C683 C 0.5955 0.99581 0.01926 0.0
C684 C 0.60494 0.99141 0.06238 0.0
C685 C 0.60435 0.97689 0.08186 0.0
C686 C 0.57543 0.98979 0.94991 0.0
C687 C 0.61553 0.00207 0.08829 0.0
H688 H 0.61115 0.03275 0.8999 0.0
H689 H 0.57754 0.04364 0.01653 0.0
H690 H 0.62268 0.99981 0.96084 0.0
H691 H 0.60906 0.99522 0.91108 0.0
H692 H 0.62213 0.00952 0.89643 0.0
H693 H 0.56943 0.02726 0.08361 0.0
H694 H 0.56801 0.00901 0.05584 0.0
H695 H 0.58234 0.01323 0.10326 0.0
H696 H 0.57742 0.96353 0.99926 0.0
H697 H 0.61159 0.97351 0.11479 0.0
H698 H 0.58189 0.9941 0.91487 0.0
H699 H 0.56792 0.99865 0.96337 0.0
H700 H 0.56873 0.98039 0.93535 0.0
H701 H 0.62299 0.00662 0.05666 0.0
H702 H 0.62223 0.9969 0.12102 0.0
H703 H 0.6094 0.01142 0.10623 0.0
C704 C 0.72433 0.64996 0.6759 0.0
C705 C 0.71371 0.65946 0.6976 0.0
C706 C 0.73862 0.64956 0.69746 0.0
C707 C 0.74233 0.65874 0.74222 0.0
C708 C 0.73163 0.66825 0.76456 0.0
C709 C 0.7175 0.66857 0.7418 0.0
C710 C 0.74979 0.6394 0.67204 0.0
C711 C 0.7351 0.67811 0.8126 0.0
C712 C 0.77585 0.64918 0.82831 0.0
C713 C 0.78631 0.65905 0.80788 0.0
C714 C 0.76147 0.64897 0.80748 0.0
C715 C 0.75752 0.65873 0.76476 0.0
C716 C 0.76803 0.66868 0.74393 0.0
C717 C 0.78224 0.66879 0.76594 0.0
C718 C 0.7505 0.63833 0.83124 0.0
C719 C 0.7643 0.67918 0.69808 0.0
H720 H 0.7215 0.64289 0.64177 0.0
H721 H 0.70936 0.67587 0.7592 0.0
H722 H 0.75924 0.64585 0.65648 0.0
H723 H 0.75409 0.63173 0.70344 0.0
H724 H 0.74515 0.63291 0.63763 0.0
H725 H 0.72542 0.68454 0.82628 0.0
H726 H 0.73913 0.67147 0.84763 0.0
H727 H 0.74398 0.68586 0.80135 0.0
H728 H 0.77888 0.64163 0.86071 0.0
H729 H 0.79025 0.67639 0.74953 0.0
H730 H 0.74637 0.63093 0.79862 0.0
H731 H 0.74092 0.6444 0.84771 0.0
H732 H 0.75526 0.63155 0.86463 0.0
H733 H 0.76044 0.67298 0.66169 0.0
H734 H 0.77381 0.68605 0.6858 0.0
H735 H 0.75523 0.68652 0.71091 0.0
C736 C 0.58951 0.46815 0.9917 0.0
C737 C 0.5985 0.46354 0.94824 0.0
C738 C 0.59075 0.48226 0.01387 0.0
C739 C 0.60109 0.49216 0.99157 0.0
C740 C 0.61032 0.48759 0.94806 0.0
C741 C 0.609 0.47326 0.92716 0.0
C742 C 0.5808 0.48664 0.06063 0.0
C743 C 0.62131 0.49793 0.92272 0.0
C744 C 0.59081 0.53207 0.01041 0.0
C745 C 0.59968 0.53627 0.05474 0.0
C746 C 0.59161 0.51793 0.98822 0.0
C747 C 0.60136 0.50759 0.01143 0.0
C748 C 0.6105 0.51177 0.05576 0.0
C749 C 0.60964 0.52613 0.07665 0.0
C750 C 0.58179 0.51399 0.94054 0.0
C751 C 0.62087 0.50096 0.08206 0.0
H752 H 0.58149 0.46066 0.00884 0.0
H753 H 0.616 0.46977 0.89371 0.0
H754 H 0.58737 0.49102 0.09524 0.0
H755 H 0.57329 0.49549 0.04706 0.0
H756 H 0.57409 0.47732 0.07583 0.0
H757 H 0.62818 0.49248 0.89112 0.0
H758 H 0.61548 0.50728 0.90338 0.0
H759 H 0.62859 0.50254 0.95482 0.0
H760 H 0.58322 0.53989 0.99263 0.0
H761 H 0.61655 0.52933 0.11079 0.0
H762 H 0.5738 0.50549 0.95341 0.0
H763 H 0.58839 0.5093 0.90657 0.0
H764 H 0.57561 0.5236 0.9247 0.0
H765 H 0.61451 0.4919 0.10098 0.0
H766 H 0.62779 0.50612 0.11418 0.0
H767 H 0.62812 0.496 0.0506 0.0
C768 C 0.71703 0.33367 0.25868 0.0
C769 C 0.71332 0.34285 0.30277 0.0
C770 C 0.7311 0.33397 0.23539 0.0
C771 C 0.74183 0.34355 0.2571 0.0
C772 C 0.73821 0.35282 0.30171 0.0
C773 C 0.72397 0.35243 0.32379 0.0
C774 C 0.73447 0.32401 0.18753 0.0
C775 C 0.74942 0.36304 0.32645 0.0
C776 C 0.7817 0.33346 0.23261 0.0
C777 C 0.78569 0.34311 0.19029 0.0
C778 C 0.76753 0.3336 0.25497 0.0
C779 C 0.75697 0.34351 0.23413 0.0
C780 C 0.76084 0.35318 0.19102 0.0
C781 C 0.77519 0.35294 0.16985 0.0
C782 C 0.76389 0.3232 0.30124 0.0
C783 C 0.74981 0.36376 0.16722 0.0
H784 H 0.70886 0.32631 0.2418 0.0
H785 H 0.72122 0.35955 0.35783 0.0
H786 H 0.73844 0.33058 0.15222 0.0
H787 H 0.74337 0.31628 0.19877 0.0
H788 H 0.72476 0.31757 0.17428 0.0
H789 H 0.74485 0.36962 0.36074 0.0
H790 H 0.7589 0.35663 0.342 0.0
H791 H 0.75366 0.37063 0.29466 0.0
H792 H 0.78975 0.32589 0.24903 0.0
H793 H 0.77816 0.36042 0.13716 0.0
H794 H 0.7548 0.31583 0.28887 0.0
H795 H 0.7601 0.32948 0.33755 0.0
H796 H 0.77343 0.31636 0.31347 0.0
H797 H 0.74021 0.35764 0.15122 0.0
H798 H 0.7545 0.37046 0.13348 0.0
H799 H 0.74574 0.37124 0.19971 0.0
C800 C 0.91683 0.46822 0.51199 0.0
C801 C 0.90734 0.46419 0.55476 0.0
C802 C 0.91651 0.48237 0.48949 0.0
C803 C 0.9066 0.49287 0.51067 0.0
C804 C 0.89706 0.48895 0.55414 0.0
C805 C 0.89748 0.47463 0.57544 0.0
C806 C 0.92677 0.48607 0.44285 0.0
C807 C 0.88648 0.49992 0.57831 0.0
C808 C 0.91629 0.53288 0.48715 0.0
C809 C 0.90696 0.5367 0.44362 0.0
C810 C 0.9161 0.51875 0.50983 0.0
C811 C 0.90649 0.50805 0.48804 0.0
C812 C 0.89711 0.51177 0.44388 0.0
C813 C 0.89738 0.52608 0.42242 0.0
C814 C 0.92618 0.51527 0.55725 0.0
C815 C 0.88686 0.50059 0.41904 0.0
H816 H 0.92442 0.46023 0.49536 0.0
H817 H 0.89012 0.47162 0.60847 0.0
H818 H 0.92039 0.48994 0.4069 0.0
H819 H 0.9342 0.49513 0.45512 0.0
H820 H 0.93356 0.47654 0.43011 0.0
H821 H 0.87981 0.49516 0.61202 0.0
H822 H 0.89259 0.50951 0.59448 0.0
H823 H 0.87897 0.50404 0.54602 0.0
H824 H 0.92365 0.54102 0.50419 0.0
H825 H 0.89014 0.52893 0.38881 0.0
H826 H 0.93387 0.50638 0.54554 0.0
H827 H 0.91969 0.51126 0.5927 0.0
H828 H 0.93267 0.52494 0.5705 0.0
H829 H 0.89325 0.49114 0.4032 0.0
H830 H 0.88024 0.50522 0.38495 0.0
H831 H 0.87931 0.4963 0.45087 0.0
C832 C 0.28071 0.33802 0.27163 0.0
C833 C 0.28561 0.3477 0.31246 0.0
C834 C 0.26654 0.33908 0.24981 0.0
C835 C 0.25688 0.34998 0.26974 0.0
C836 C 0.26171 0.35983 0.31092 0.0
C837 C 0.27607 0.35864 0.33156 0.0
C838 C 0.26189 0.32844 0.20563 0.0
C839 C 0.25162 0.37145 0.3337 0.0
C840 C 0.22354 0.35807 0.18071 0.0
C841 C 0.21304 0.34872 0.20397 0.0
C842 C 0.2378 0.35893 0.20254 0.0
C843 C 0.24152 0.35043 0.24919 0.0
C844 C 0.23079 0.34138 0.27386 0.0
C845 C 0.21675 0.34055 0.25073 0.0
C846 C 0.24902 0.36854 0.17466 0.0
C847 C 0.23423 0.33228 0.32402 0.0
H848 H 0.28802 0.32962 0.25607 0.0
H849 H 0.27978 0.36618 0.36299 0.0
H850 H 0.25271 0.32155 0.22072 0.0
H851 H 0.25785 0.33451 0.1692 0.0
H852 H 0.27097 0.3211 0.19262 0.0
H853 H 0.25716 0.37852 0.36445 0.0
H854 H 0.24741 0.37847 0.30006 0.0
H855 H 0.24199 0.36618 0.35335 0.0
H856 H 0.22073 0.36444 0.14468 0.0
H857 H 0.20864 0.33346 0.26951 0.0
H858 H 0.25791 0.36162 0.15747 0.0
H859 H 0.25413 0.37608 0.20478 0.0
H860 H 0.24418 0.37514 0.14091 0.0
H861 H 0.24245 0.32377 0.3135 0.0
H862 H 0.22435 0.32676 0.34084 0.0
H863 H 0.23907 0.33927 0.35654 0.0
C864 C 0.40013 0.52693 0.07743 0.0
C865 C 0.40981 0.53736 0.05556 0.0
C866 C 0.39963 0.51256 0.05662 0.0
C867 C 0.4089 0.50857 0.01245 0.0
C868 C 0.41863 0.51907 0.99002 0.0
C869 C 0.41903 0.53328 0.01203 0.0
C870 C 0.38924 0.50161 0.08208 0.0
C871 C 0.4286 0.5153 0.94262 0.0
C872 C 0.41832 0.46843 0.99005 0.0
C873 C 0.40868 0.46449 0.94763 0.0
C874 C 0.41838 0.48267 0.01183 0.0
C875 C 0.40869 0.49334 0.99035 0.0
C876 C 0.399 0.4895 0.94728 0.0
C877 C 0.39905 0.4751 0.92663 0.0
C878 C 0.4288 0.48629 0.05804 0.0
C879 C 0.38862 0.50062 0.92286 0.0
H880 H 0.39298 0.52996 0.11107 0.0
H881 H 0.42648 0.54127 0.99452 0.0
H882 H 0.38156 0.49738 0.05058 0.0
H883 H 0.3955 0.49209 0.09808 0.0
H884 H 0.38276 0.50643 0.11618 0.0
H885 H 0.43528 0.52481 0.92902 0.0
H886 H 0.43612 0.50628 0.9545 0.0
H887 H 0.42201 0.51135 0.90735 0.0
H888 H 0.42575 0.46031 0.00687 0.0
H889 H 0.39157 0.47217 0.89386 0.0
H890 H 0.42257 0.49035 0.09404 0.0
H891 H 0.43636 0.49518 0.04526 0.0
H892 H 0.43543 0.47666 0.07091 0.0
H893 H 0.38123 0.50498 0.95512 0.0
H894 H 0.38181 0.49591 0.88944 0.0
H895 H 0.39491 0.51003 0.90622 0.0
C896 C 0.28268 0.66033 0.74077 0.0
C897 C 0.28702 0.6517 0.69594 0.0
C898 C 0.26845 0.65946 0.76212 0.0
C899 C 0.25816 0.6499 0.73757 0.0
C900 C 0.26248 0.641 0.69272 0.0
C901 C 0.27693 0.64191 0.67269 0.0
C902 C 0.26437 0.66901 0.81041 0.0
C903 C 0.25173 0.63083 0.66502 0.0
C904 C 0.22359 0.64178 0.81973 0.0
C905 C 0.21392 0.65239 0.7991 0.0
C906 C 0.23797 0.64058 0.7993 0.0
C907 C 0.24267 0.65007 0.75678 0.0
C908 C 0.23283 0.66053 0.73493 0.0
C909 C 0.21864 0.66163 0.75658 0.0
C910 C 0.24825 0.62943 0.82412 0.0
C911 C 0.23735 0.67078 0.68926 0.0
H912 H 0.29046 0.66778 0.75956 0.0
H913 H 0.28022 0.6352 0.63813 0.0
H914 H 0.25591 0.67708 0.79783 0.0
H915 H 0.25957 0.66222 0.84364 0.0
H916 H 0.27393 0.67508 0.82715 0.0
H917 H 0.25698 0.6241 0.63253 0.0
H918 H 0.24666 0.6234 0.69561 0.0
H919 H 0.24275 0.63733 0.64627 0.0
H920 H 0.22002 0.63458 0.85248 0.0
H921 H 0.2112 0.66975 0.73983 0.0
H922 H 0.25753 0.63514 0.84437 0.0
H923 H 0.25296 0.62235 0.7916 0.0
H924 H 0.2427 0.62236 0.85488 0.0
H925 H 0.24616 0.67819 0.70387 0.0
H926 H 0.22808 0.67759 0.67427 0.0
H927 H 0.24184 0.66443 0.65428 0.0
C928 C 0.10721 0.47509 0.575 0.0
C929 C 0.09648 0.4653 0.55606 0.0
C930 C 0.10815 0.48942 0.55388 0.0
C931 C 0.09826 0.49396 0.5124 0.0
C932 C 0.0876 0.48404 0.49251 0.0
C933 C 0.08678 0.4699 0.51479 0.0
C934 C 0.11953 0.49979 0.5766 0.0
C935 C 0.07693 0.48839 0.448 0.0
C936 C 0.08816 0.53393 0.49319 0.0
C937 C 0.09641 0.53781 0.44681 0.0
C938 C 0.08913 0.51988 0.51613 0.0
C939 C 0.0984 0.50931 0.49162 0.0
C940 C 0.10692 0.51318 0.44521 0.0
C941 C 0.10592 0.52745 0.42359 0.0
C942 C 0.07999 0.51627 0.56602 0.0
C943 C 0.11676 0.50212 0.41752 0.0
H944 H 0.11476 0.47162 0.60678 0.0
H945 H 0.07855 0.46239 0.49937 0.0
H946 H 0.12646 0.50414 0.54295 0.0
H947 H 0.11403 0.5093 0.59618 0.0
H948 H 0.12673 0.49443 0.60741 0.0
H949 H 0.06984 0.47912 0.43496 0.0
H950 H 0.06979 0.49741 0.46279 0.0
H951 H 0.08296 0.49253 0.41165 0.0
H952 H 0.08093 0.54193 0.51192 0.0
H953 H 0.11233 0.53038 0.38783 0.0
H954 H 0.08703 0.51164 0.59885 0.0
H955 H 0.07172 0.50782 0.55537 0.0
H956 H 0.07418 0.52603 0.5825 0.0
H957 H 0.12442 0.49723 0.44774 0.0
H958 H 0.12325 0.50705 0.38366 0.0
H959 H 0.11003 0.49306 0.40056 0.0
C960 C 0.15445 0.13628 0.94337 0.0
C961 C 0.1596 0.12784 0.98741 0.0
C962 C 0.14768 0.12962 0.89789 0.0
C963 C 0.14581 0.1142 0.89688 0.0
C964 C 0.151 0.10564 0.94121 0.0
C965 C 0.15793 0.11254 0.98565 0.0
C966 C 0.14251 0.1391 0.85096 0.0
C967 C 0.14908 0.08919 0.94205 0.0
C968 C 0.11654 0.09822 0.80268 0.0
C969 C 0.125 0.09311 0.75864 0.0
C970 C 0.12317 0.10501 0.84818 0.0
C971 C 0.13859 0.10695 0.84919 0.0
C972 C 0.14717 0.10179 0.80485 0.0
C973 C 0.14029 0.09484 0.76041 0.0
C974 C 0.11367 0.11013 0.89512 0.0
C975 C 0.16361 0.10378 0.80401 0.0
H976 H 0.1557 0.14809 0.94444 0.0
H977 H 0.16176 0.10593 0.0197 0.0
H978 H 0.14777 0.13549 0.81222 0.0
H979 H 0.13049 0.13788 0.84559 0.0
H980 H 0.14504 0.15089 0.85752 0.0
H981 H 0.15355 0.08414 0.97999 0.0
H982 H 0.13727 0.08639 0.93883 0.0
H983 H 0.15468 0.08421 0.90621 0.0
H984 H 0.10473 0.09693 0.8016 0.0
H985 H 0.14692 0.09104 0.72635 0.0
H986 H 0.11484 0.12215 0.9005 0.0
H987 H 0.11731 0.10489 0.93385 0.0
H988 H 0.10189 0.10755 0.88857 0.0
H989 H 0.16635 0.1156 0.80723 0.0
H990 H 0.16868 0.09934 0.76607 0.0
H991 H 0.16861 0.09821 0.83985 0.0
C992 C 0.15269 0.86476 0.05969 0.0
C993 C 0.15796 0.87316 0.01574 0.0
C994 C 0.14603 0.87147 0.10527 0.0
C995 C 0.1444 0.88692 0.10649 0.0
C996 C 0.14973 0.89544 0.06229 0.0
C997 C 0.15654 0.88848 0.01774 0.0
C998 C 0.1407 0.86203 0.15205 0.0
C999 C 0.14807 0.91192 0.06169 0.0
C1000 C 0.11531 0.90329 0.20051 0.0
C1001 C 0.12381 0.90825 0.24467 0.0
C1002 C 0.12186 0.89642 0.15506 0.0
C1003 C 0.13725 0.89424 0.1542 0.0
C1004 C 0.14587 0.89923 0.19867 0.0
C1005 C 0.13907 0.90627 0.24308 0.0
C1006 C 0.11232 0.89147 0.10797 0.0
C1007 C 0.16228 0.89698 0.19967 0.0
H1008 H 0.15374 0.85292 0.05843 0.0
H1009 H 0.16046 0.89506 0.98377 0.0
H1010 H 0.14598 0.86555 0.19089 0.0
H1011 H 0.1287 0.86341 0.15731 0.0
H1012 H 0.14308 0.85022 0.1454 0.0
H1013 H 0.15265 0.91695 0.02389 0.0
H1014 H 0.1363 0.9149 0.06479 0.0
H1015 H 0.1537 0.91677 0.09769 0.0
H1016 H 0.10352 0.90478 0.20146 0.0
H1017 H 0.14573 0.90995 0.27723 0.0
H1018 H 0.11333 0.87944 0.10245 0.0
H1019 H 0.11606 0.8967 0.06934 0.0
H1020 H 0.10058 0.89421 0.11446 0.0
H1021 H 0.16485 0.88512 0.19631 0.0
H1022 H 0.16739 0.9013 0.23773 0.0
H1023 H 0.1674 0.90251 0.16396 0.0
C1024 C 0.38325 0.90162 0.30338 0.0
C1025 C 0.37484 0.90641 0.2587 0.0
C1026 C 0.37658 0.89505 0.34923 0.0
C1027 C 0.36117 0.89304 0.35 0.0
C1028 C 0.35264 0.89793 0.30514 0.0
C1029 C 0.35955 0.90465 0.26029 0.0
C1030 C 0.38602 0.8902 0.39671 0.0
C1031 C 0.3362 0.89587 0.3041 0.0
C1032 C 0.34534 0.8639 0.44498 0.0
C1033 C 0.34009 0.87243 0.4886 0.0
C1034 C 0.35214 0.87046 0.3994 0.0
C1035 C 0.35392 0.8859 0.39783 0.0
C1036 C 0.3486 0.89455 0.44168 0.0
C1037 C 0.34166 0.88773 0.48627 0.0
C1038 C 0.35746 0.86088 0.353 0.0
C1039 C 0.3504 0.91101 0.44185 0.0
H1040 H 0.39506 0.90295 0.30245 0.0
H1041 H 0.35296 0.90821 0.22579 0.0
H1042 H 0.38224 0.89554 0.43508 0.0
H1043 H 0.38497 0.87818 0.40264 0.0
H1044 H 0.39778 0.89288 0.39039 0.0
H1045 H 0.33116 0.9002 0.26593 0.0
H1046 H 0.33351 0.88404 0.30765 0.0
H1047 H 0.33113 0.9015 0.33968 0.0
H1048 H 0.34417 0.85208 0.44649 0.0
H1049 H 0.33775 0.89441 0.51999 0.0
H1050 H 0.36948 0.86218 0.34787 0.0
H1051 H 0.35225 0.86434 0.31398 0.0
H1052 H 0.35501 0.8491 0.36 0.0
H1053 H 0.3622 0.91388 0.4389 0.0
H1054 H 0.34581 0.91615 0.47941 0.0
H1055 H 0.34486 0.91584 0.4056 0.0
C1056 C 0.36019 0.09418 0.73949 0.0
C1057 C 0.37536 0.09157 0.74038 0.0
C1058 C 0.35351 0.10132 0.69504 0.0
C1059 C 0.36216 0.1058 0.64987 0.0
C1060 C 0.37745 0.10304 0.65013 0.0
C1061 C 0.38389 0.09605 0.69557 0.0
C1062 C 0.3372 0.10419 0.69664 0.0
C1063 C 0.38701 0.10746 0.60236 0.0
C1064 C 0.34283 0.11158 0.51349 0.0
C1065 C 0.34198 0.12693 0.51039 0.0
C1066 C 0.34941 0.1046 0.55847 0.0
C1067 C 0.35512 0.11314 0.60195 0.0
C1068 C 0.35404 0.12863 0.59967 0.0
C1069 C 0.34757 0.13535 0.55372 0.0
C1070 C 0.35046 0.08807 0.55903 0.0
C1071 C 0.35979 0.1381 0.64564 0.0
H1072 H 0.35351 0.09087 0.77411 0.0
H1073 H 0.39561 0.09408 0.69596 0.0
H1074 H 0.33505 0.11611 0.69246 0.0
H1075 H 0.33176 0.09865 0.66161 0.0
H1076 H 0.33207 0.10026 0.73526 0.0
H1077 H 0.39868 0.10439 0.60862 0.0
H1078 H 0.38301 0.10214 0.56426 0.0
H1079 H 0.38635 0.11948 0.59596 0.0
H1080 H 0.33864 0.10497 0.48005 0.0
H1081 H 0.34696 0.14721 0.55163 0.0
H1082 H 0.34479 0.08362 0.59568 0.0
H1083 H 0.36212 0.08467 0.56175 0.0
H1084 H 0.34556 0.08302 0.52186 0.0
H1085 H 0.35452 0.13494 0.68489 0.0
H1086 H 0.35778 0.14995 0.6383 0.0
H1087 H 0.37176 0.13635 0.65054 0.0
C1088 C 0.84796 0.86605 0.05216 0.0
C1089 C 0.84298 0.87469 0.00838 0.0
C1090 C 0.85454 0.8725 0.09839 0.0
C1091 C 0.85631 0.88792 0.10059 0.0
C1092 C 0.85123 0.89669 0.05665 0.0
C1093 C 0.84457 0.88998 0.01128 0.0
C1094 C 0.85967 0.86281 0.14477 0.0
C1095 C 0.85297 0.91316 0.05728 0.0
C1096 C 0.86124 0.90651 0.23873 0.0
C1097 C 0.87649 0.90854 0.24091 0.0
C1098 C 0.85457 0.89972 0.19356 0.0
C1099 C 0.86332 0.89496 0.14908 0.0
C1100 C 0.8787 0.89714 0.15063 0.0
C1101 C 0.88512 0.90384 0.19669 0.0
C1102 C 0.83815 0.89752 0.19366 0.0
C1103 C 0.88837 0.89237 0.10366 0.0
H1104 H 0.84678 0.85424 0.05021 0.0
H1105 H 0.84083 0.89675 0.97755 0.0
H1106 H 0.87165 0.86414 0.15082 0.0
H1107 H 0.85424 0.86612 0.18355 0.0
H1108 H 0.85731 0.85103 0.13713 0.0
H1109 H 0.84853 0.9184 0.01965 0.0
H1110 H 0.84725 0.91785 0.09338 0.0
H1111 H 0.86474 0.91607 0.0611 0.0
H1112 H 0.85449 0.91002 0.27286 0.0
H1113 H 0.8969 0.90535 0.19809 0.0
H1114 H 0.83556 0.88569 0.18941 0.0
H1115 H 0.83317 0.90324 0.15809 0.0
H1116 H 0.83293 0.90168 0.23176 0.0
H1117 H 0.88728 0.88038 0.09713 0.0
H1118 H 0.90011 0.89497 0.11094 0.0
H1119 H 0.88482 0.89785 0.06526 0.0
C1120 C 0.84869 0.13597 0.948 0.0
C1121 C 0.84417 0.12734 0.99247 0.0
C1122 C 0.85534 0.12958 0.9018 0.0
C1123 C 0.85766 0.11422 0.90035 0.0
C1124 C 0.85307 0.10546 0.94505 0.0
C1125 C 0.84633 0.1121 0.99037 0.0
C1126 C 0.85993 0.13925 0.8546 0.0
C1127 C 0.85541 0.08906 0.94524 0.0
C1128 C 0.86256 0.09546 0.76256 0.0
C1129 C 0.87786 0.09399 0.7593 0.0
C1130 C 0.85587 0.10207 0.80807 0.0
C1131 C 0.86467 0.10724 0.85176 0.0
C1132 C 0.88011 0.1056 0.8492 0.0
C1133 C 0.88653 0.09905 0.80287 0.0
C1134 C 0.83939 0.10366 0.80911 0.0
C1135 C 0.88983 0.11083 0.8953 0.0
H1136 H 0.84708 0.14774 0.94933 0.0
H1137 H 0.84296 0.10534 0.02468 0.0
H1138 H 0.87192 0.13827 0.84775 0.0
H1139 H 0.85441 0.13563 0.81639 0.0
H1140 H 0.85723 0.15098 0.86184 0.0
H1141 H 0.85136 0.08383 0.98348 0.0
H1142 H 0.84968 0.08401 0.90984 0.0
H1143 H 0.86726 0.08656 0.94074 0.0
H1144 H 0.85576 0.09165 0.729 0.0
H1145 H 0.89835 0.09797 0.80064 0.0
H1146 H 0.83638 0.11541 0.81285 0.0
H1147 H 0.83482 0.09793 0.84541 0.0
H1148 H 0.83412 0.09914 0.77168 0.0
H1149 H 0.8884 0.12281 0.90126 0.0
H1150 H 0.90161 0.10856 0.88739 0.0
H1151 H 0.88663 0.1054 0.93421 0.0
C1152 C 0.61479 0.09932 0.70066 0.0
C1153 C 0.62326 0.09405 0.74443 0.0
C1154 C 0.62145 0.10569 0.65445 0.0
C1155 C 0.63693 0.10698 0.65231 0.0
C1156 C 0.64552 0.1016 0.69623 0.0
C1157 C 0.6386 0.09513 0.74153 0.0
C1158 C 0.61194 0.11113 0.60804 0.0
C1159 C 0.66204 0.10286 0.69572 0.0
C1160 C 0.6557 0.11157 0.51433 0.0
C1161 C 0.65811 0.12677 0.51237 0.0
C1162 C 0.64873 0.10503 0.5594 0.0
C1163 C 0.64419 0.11385 0.60399 0.0
C1164 C 0.64678 0.12917 0.6027 0.0
C1165 C 0.65364 0.13546 0.55673 0.0
C1166 C 0.64609 0.08868 0.55902 0.0
C1167 C 0.64227 0.13891 0.64983 0.0
H1168 H 0.60294 0.09853 0.70262 0.0
H1169 H 0.64524 0.09119 0.7753 0.0
H1170 H 0.61358 0.12308 0.60227 0.0
H1171 H 0.61516 0.10567 0.5692 0.0
H1172 H 0.6001 0.10905 0.6155 0.0
H1173 H 0.66713 0.0982 0.73326 0.0
H1174 H 0.66658 0.09707 0.6595 0.0
H1175 H 0.66528 0.11455 0.69223 0.0
H1176 H 0.65903 0.10477 0.4801 0.0
H1177 H 0.65545 0.1472 0.55551 0.0
H1178 H 0.63418 0.0864 0.56313 0.0
H1179 H 0.65164 0.08351 0.59456 0.0
H1180 H 0.65013 0.08339 0.52087 0.0
H1181 H 0.63025 0.13817 0.65622 0.0
H1182 H 0.64522 0.15058 0.6428 0.0
H1183 H 0.64761 0.13514 0.6882 0.0
C1184 C 0.65561 0.89111 0.4876 0.0
C1185 C 0.65746 0.87584 0.49025 0.0
C1186 C 0.64877 0.89776 0.44244 0.0
C1187 C 0.64381 0.88896 0.39841 0.0
C1188 C 0.64584 0.87357 0.40035 0.0
C1189 C 0.65257 0.86717 0.44642 0.0
C1190 C 0.64673 0.91419 0.44215 0.0
C1191 C 0.64087 0.86385 0.35384 0.0
C1192 C 0.61464 0.90455 0.30297 0.0
C1193 C 0.62315 0.90954 0.25887 0.0
C1194 C 0.62121 0.89785 0.34875 0.0
C1195 C 0.63663 0.89595 0.35011 0.0
C1196 C 0.64526 0.90096 0.30569 0.0
C1197 C 0.63843 0.90777 0.26084 0.0
C1198 C 0.61166 0.89282 0.39568 0.0
C1199 C 0.66171 0.89905 0.30534 0.0
H1200 H 0.65926 0.8979 0.5214 0.0
H1201 H 0.65395 0.85538 0.44817 0.0
H1202 H 0.65235 0.91904 0.40613 0.0
H1203 H 0.63491 0.91689 0.43845 0.0
H1204 H 0.65108 0.91946 0.47986 0.0
H1205 H 0.64345 0.85211 0.36124 0.0
H1206 H 0.62886 0.86497 0.34793 0.0
H1207 H 0.6462 0.86732 0.31507 0.0
H1208 H 0.60283 0.90587 0.30174 0.0
H1209 H 0.6451 0.91149 0.22678 0.0
H1210 H 0.61512 0.8983 0.43417 0.0
H1211 H 0.61299 0.88084 0.40193 0.0
H1212 H 0.59987 0.8952 0.38853 0.0
H1213 H 0.66662 0.90482 0.34091 0.0
H1214 H 0.66682 0.90333 0.26722 0.0
H1215 H 0.66452 0.88726 0.30943 0.0
C1216 C 0.65429 0.63735 0.44404 0.0
C1217 C 0.65993 0.6289 0.48722 0.0
C1218 C 0.64784 0.63066 0.39802 0.0
C1219 C 0.64684 0.61517 0.39549 0.0
C1220 C 0.6526 0.6066 0.43879 0.0
C1221 C 0.65915 0.61355 0.48388 0.0
C1222 C 0.64202 0.64017 0.35225 0.0
C1223 C 0.65165 0.59006 0.43789 0.0
C1224 C 0.61819 0.59814 0.30137 0.0
C1225 C 0.62675 0.59386 0.25638 0.0
C1226 C 0.62459 0.60503 0.34708 0.0
C1227 C 0.63987 0.60788 0.34743 0.0
C1228 C 0.64855 0.60356 0.30213 0.0
C1229 C 0.64191 0.59653 0.25739 0.0
C1230 C 0.615 0.60928 0.39498 0.0
C1231 C 0.66484 0.6065 0.30068 0.0
H1232 H 0.65485 0.64921 0.44633 0.0
H1233 H 0.66337 0.60692 0.5172 0.0
H1234 H 0.64733 0.63711 0.31293 0.0
H1235 H 0.63007 0.63834 0.34729 0.0
H1236 H 0.64395 0.65202 0.35985 0.0
H1237 H 0.65659 0.58499 0.47495 0.0
H1238 H 0.64001 0.5866 0.43513 0.0
H1239 H 0.65734 0.5857 0.40115 0.0
H1240 H 0.60648 0.59612 0.30089 0.0
H1241 H 0.64861 0.59336 0.22264 0.0
H1242 H 0.61556 0.6213 0.40166 0.0
H1243 H 0.61904 0.60393 0.43294 0.0
H1244 H 0.60335 0.60614 0.38866 0.0
H1245 H 0.66693 0.61843 0.30504 0.0
H1246 H 0.67001 0.60264 0.26203 0.0
H1247 H 0.67029 0.60096 0.33566 0.0
C1248 C 0.64039 0.40342 0.7465 0.0
C1249 C 0.62521 0.40602 0.74693 0.0
C1250 C 0.64722 0.39662 0.70166 0.0
C1251 C 0.63872 0.39246 0.6557 0.0
C1252 C 0.62342 0.39519 0.65554 0.0
C1253 C 0.61683 0.40186 0.70132 0.0
C1254 C 0.66353 0.39379 0.70365 0.0
C1255 C 0.61402 0.39108 0.60696 0.0
C1256 C 0.65844 0.38768 0.51968 0.0
C1257 C 0.65938 0.37236 0.51525 0.0
C1258 C 0.65171 0.39434 0.56502 0.0
C1259 C 0.64591 0.38548 0.60744 0.0
C1260 C 0.64708 0.37002 0.60383 0.0
C1261 C 0.65372 0.36363 0.55759 0.0
C1262 C 0.6506 0.41085 0.56711 0.0
C1263 C 0.64121 0.36022 0.64864 0.0
H1264 H 0.64695 0.40649 0.78172 0.0
H1265 H 0.6051 0.40382 0.70137 0.0
H1266 H 0.66573 0.3819 0.69844 0.0
H1267 H 0.66905 0.39957 0.66938 0.0
H1268 H 0.66853 0.39747 0.74284 0.0
H1269 H 0.60232 0.39406 0.61304 0.0
H1270 H 0.6181 0.39668 0.56956 0.0
H1271 H 0.61475 0.37911 0.5994 0.0
H1272 H 0.66269 0.39453 0.48702 0.0
H1273 H 0.65439 0.3518 0.55445 0.0
H1274 H 0.65612 0.41507 0.60444 0.0
H1275 H 0.63892 0.41419 0.56957 0.0
H1276 H 0.65561 0.41617 0.53067 0.0
H1277 H 0.64635 0.36313 0.68841 0.0
H1278 H 0.64328 0.34842 0.64027 0.0
H1279 H 0.62922 0.3619 0.65318 0.0
C1280 C 0.88481 0.40366 0.8032 0.0
C1281 C 0.87641 0.40872 0.75891 0.0
C1282 C 0.87812 0.39693 0.84869 0.0
C1283 C 0.86269 0.39501 0.84944 0.0
C1284 C 0.85418 0.40012 0.80485 0.0
C1285 C 0.86112 0.40701 0.76042 0.0
C1286 C 0.88754 0.39186 0.89591 0.0
C1287 C 0.83774 0.39814 0.80372 0.0
C1288 C 0.84667 0.3658 0.94375 0.0
C1289 C 0.84145 0.37429 0.98752 0.0
C1290 C 0.85352 0.37239 0.89832 0.0
C1291 C 0.8554 0.38782 0.89709 0.0
C1292 C 0.85014 0.39643 0.94116 0.0
C1293 C 0.84313 0.38959 0.98555 0.0
C1294 C 0.85876 0.36286 0.85166 0.0
C1295 C 0.85207 0.41288 0.94177 0.0
H1296 H 0.89662 0.40494 0.80232 0.0
H1297 H 0.85454 0.41076 0.72617 0.0
H1298 H 0.88385 0.39715 0.93448 0.0
H1299 H 0.88636 0.37985 0.90147 0.0
H1300 H 0.89933 0.39443 0.88956 0.0
H1301 H 0.83272 0.40253 0.76561 0.0
H1302 H 0.83498 0.38632 0.8071 0.0
H1303 H 0.83269 0.40375 0.83937 0.0
H1304 H 0.84542 0.35398 0.945 0.0
H1305 H 0.83925 0.39624 0.0194 0.0
H1306 H 0.87078 0.36407 0.84653 0.0
H1307 H 0.85356 0.36644 0.81274 0.0
H1308 H 0.85621 0.35109 0.85835 0.0
H1309 H 0.86388 0.41567 0.93874 0.0
H1310 H 0.84755 0.41798 0.97953 0.0
H1311 H 0.84653 0.41782 0.90573 0.0
C1312 C 0.88472 0.5972 0.19426 0.0
C1313 C 0.87619 0.59205 0.23807 0.0
C1314 C 0.87816 0.60404 0.14872 0.0
C1315 C 0.86275 0.60599 0.14743 0.0
C1316 C 0.8541 0.60078 0.19148 0.0
C1317 C 0.8609 0.59378 0.23597 0.0
C1318 C 0.88773 0.60921 0.10207 0.0
C1319 C 0.83766 0.60278 0.19203 0.0
C1320 C 0.84706 0.63557 0.05392 0.0
C1321 C 0.84192 0.62724 0.00958 0.0
C1322 C 0.85377 0.6288 0.09927 0.0
C1323 C 0.85561 0.61336 0.09984 0.0
C1324 C 0.85044 0.60492 0.05517 0.0
C1325 C 0.84356 0.61194 0.01087 0.0
C1326 C 0.85891 0.63815 0.14658 0.0
C1327 C 0.85233 0.58847 0.05383 0.0
H1328 H 0.89653 0.59591 0.19559 0.0
H1329 H 0.85423 0.58995 0.26984 0.0
H1330 H 0.88411 0.60408 0.06312 0.0
H1331 H 0.88663 0.62125 0.09705 0.0
H1332 H 0.89949 0.60656 0.10871 0.0
H1333 H 0.83252 0.59825 0.22969 0.0
H1334 H 0.83493 0.61462 0.18917 0.0
H1335 H 0.83271 0.59731 0.15588 0.0
H1336 H 0.84584 0.64739 0.0532 0.0
H1337 H 0.83975 0.60542 0.97657 0.0
H1338 H 0.87092 0.63688 0.15213 0.0
H1339 H 0.85359 0.63447 0.18511 0.0
H1340 H 0.85643 0.64996 0.14033 0.0
H1341 H 0.86413 0.58564 0.0572 0.0
H1342 H 0.84791 0.58352 0.01564 0.0
H1343 H 0.84667 0.58342 0.0894 0.0
C1344 C 0.34627 0.39062 0.51043 0.0
C1345 C 0.34359 0.37546 0.51036 0.0
C1346 C 0.35319 0.39747 0.55499 0.0
C1347 C 0.35736 0.38902 0.60106 0.0
C1348 C 0.35452 0.37374 0.60161 0.0
C1349 C 0.34776 0.36712 0.55606 0.0
C1350 C 0.35614 0.41376 0.55253 0.0
C1351 C 0.35861 0.36439 0.65036 0.0
C1352 C 0.38645 0.40397 0.69824 0.0
C1353 C 0.37783 0.40983 0.74051 0.0
C1354 C 0.37994 0.39727 0.65233 0.0
C1355 C 0.36446 0.39624 0.64903 0.0
C1356 C 0.35572 0.40222 0.69143 0.0
C1357 C 0.3625 0.40902 0.73639 0.0
C1358 C 0.38963 0.39123 0.60752 0.0
C1359 C 0.33919 0.40124 0.68972 0.0
H1360 H 0.34319 0.39715 0.47512 0.0
H1361 H 0.34573 0.35541 0.5563 0.0
H1362 H 0.35044 0.41939 0.58675 0.0
H1363 H 0.36805 0.41586 0.55748 0.0
H1364 H 0.35245 0.41872 0.51327 0.0
H1365 H 0.35552 0.35271 0.64464 0.0
H1366 H 0.3706 0.36502 0.65767 0.0
H1367 H 0.3531 0.3686 0.68775 0.0
H1368 H 0.3983 0.40455 0.70112 0.0
H1369 H 0.35573 0.41342 0.76902 0.0
H1370 H 0.38672 0.39633 0.56767 0.0
H1371 H 0.38783 0.37925 0.60332 0.0
H1372 H 0.40145 0.3932 0.61563 0.0
H1373 H 0.33497 0.40675 0.65238 0.0
H1374 H 0.33397 0.40635 0.72618 0.0
H1375 H 0.33576 0.38958 0.68753 0.0
C1376 C 0.34929 0.63376 0.45028 0.0
C1377 C 0.34507 0.62519 0.49531 0.0
C1378 C 0.3562 0.62739 0.40454 0.0
C1379 C 0.35911 0.61212 0.40421 0.0
C1380 C 0.35489 0.60344 0.44961 0.0
C1381 C 0.34785 0.61005 0.49438 0.0
C1382 C 0.36035 0.63698 0.35654 0.0
C1383 C 0.35791 0.58716 0.4511 0.0
C1384 C 0.3645 0.59271 0.26789 0.0
C1385 C 0.37984 0.59189 0.26414 0.0
C1386 C 0.35764 0.59934 0.31304 0.0
C1387 C 0.36631 0.60515 0.35596 0.0
C1388 C 0.3818 0.60413 0.35297 0.0
C1389 C 0.38839 0.5976 0.3069 0.0
C1390 C 0.34111 0.60029 0.31443 0.0
C1391 C 0.3914 0.61002 0.39833 0.0
H1392 H 0.3472 0.64546 0.45072 0.0
H1393 H 0.34473 0.60335 0.52917 0.0
H1394 H 0.37236 0.6364 0.34946 0.0
H1395 H 0.35491 0.63295 0.31874 0.0
H1396 H 0.35724 0.64863 0.36298 0.0
H1397 H 0.35419 0.582 0.48995 0.0
H1398 H 0.35228 0.58166 0.4164 0.0
H1399 H 0.36984 0.58512 0.44624 0.0
H1400 H 0.35779 0.58843 0.23489 0.0
H1401 H 0.40024 0.59702 0.30428 0.0
H1402 H 0.33765 0.61194 0.31735 0.0
H1403 H 0.33683 0.59459 0.35128 0.0
H1404 H 0.33595 0.59537 0.27751 0.0
H1405 H 0.38954 0.62196 0.40328 0.0
H1406 H 0.40324 0.60813 0.39029 0.0
H1407 H 0.38847 0.60472 0.43779 0.0
C1408 C 0.15468 0.61093 0.0049 0.0
C1409 C 0.15679 0.62616 0.0026 0.0
C1410 C 0.14789 0.60431 0.05019 0.0
C1411 C 0.14319 0.61311 0.09463 0.0
C1412 C 0.14545 0.62848 0.09295 0.0
C1413 C 0.15216 0.63484 0.0468 0.0
C1414 C 0.14561 0.5879 0.05025 0.0
C1415 C 0.14074 0.6382 0.13987 0.0
C1416 C 0.11425 0.59798 0.19192 0.0
C1417 C 0.12288 0.59303 0.23576 0.0
C1418 C 0.12071 0.60448 0.14553 0.0
C1419 C 0.13615 0.60617 0.14322 0.0
C1420 C 0.1449 0.60109 0.18717 0.0
C1421 C 0.13818 0.59453 0.23272 0.0
C1422 C 0.11103 0.6096 0.09914 0.0
C1423 C 0.16139 0.60275 0.18641 0.0
H1424 H 0.15814 0.60414 0.97081 0.0
H1425 H 0.15373 0.64661 0.04531 0.0
H1426 H 0.15132 0.58293 0.08584 0.0
H1427 H 0.13377 0.58536 0.0546 0.0
H1428 H 0.14974 0.58264 0.01218 0.0
H1429 H 0.14339 0.64992 0.13245 0.0
H1430 H 0.12875 0.63717 0.1465 0.0
H1431 H 0.14623 0.63465 0.17825 0.0
H1432 H 0.10243 0.59688 0.19398 0.0
H1433 H 0.14495 0.59081 0.26649 0.0
H1434 H 0.11432 0.60414 0.0604 0.0
H1435 H 0.1124 0.62158 0.09297 0.0
H1436 H 0.09925 0.60729 0.10685 0.0
H1437 H 0.16603 0.59699 0.15029 0.0
H1438 H 0.16662 0.59829 0.22401 0.0
H1439 H 0.16435 0.6145 0.18252 0.0
C1440 C 0.11562 0.40382 0.80322 0.0
C1441 C 0.12417 0.40858 0.7589 0.0
C1442 C 0.12212 0.3972 0.84927 0.0
C1443 C 0.13752 0.39516 0.85074 0.0
C1444 C 0.14621 0.39999 0.80617 0.0
C1445 C 0.13944 0.4067 0.76099 0.0
C1446 C 0.11252 0.39235 0.89632 0.0
C1447 C 0.16264 0.39795 0.80599 0.0
C1448 C 0.15623 0.39037 0.98874 0.0
C1449 C 0.1579 0.37509 0.99181 0.0
C1450 C 0.14959 0.39702 0.94318 0.0
C1451 C 0.14461 0.3882 0.89923 0.0
C1452 C 0.1465 0.37279 0.90155 0.0
C1453 C 0.15306 0.36641 0.94796 0.0
C1454 C 0.14772 0.41348 0.94243 0.0
C1455 C 0.1415 0.36304 0.85516 0.0
H1456 H 0.10382 0.40522 0.8019 0.0
H1457 H 0.14615 0.41026 0.7268 0.0
H1458 H 0.11373 0.38037 0.9029 0.0
H1459 H 0.11602 0.39787 0.93467 0.0
H1460 H 0.10075 0.39483 0.88908 0.0
H1461 H 0.16781 0.40216 0.76785 0.0
H1462 H 0.16758 0.40372 0.84153 0.0
H1463 H 0.16536 0.38615 0.81027 0.0
H1464 H 0.15986 0.39719 0.02252 0.0
H1465 H 0.15431 0.3546 0.95003 0.0
H1466 H 0.13593 0.41629 0.93877 0.0
H1467 H 0.15337 0.41819 0.90621 0.0
H1468 H 0.15216 0.41877 0.97995 0.0
H1469 H 0.1295 0.36423 0.84916 0.0
H1470 H 0.14401 0.3513 0.86278 0.0
H1471 H 0.14687 0.36644 0.81637 0.0
C1472 C 0.15737 0.28458 0.08895 0.0
C1473 C 0.16719 0.28987 0.12843 0.0
C1474 C 0.15593 0.26941 0.07964 0.0
C1475 C 0.1648 0.25946 0.10958 0.0
C1476 C 0.17536 0.26491 0.14694 0.0
C1477 C 0.17626 0.28002 0.15645 0.0
C1478 C 0.14437 0.26401 0.04025 0.0
C1479 C 0.18531 0.25476 0.17879 0.0
C1480 C 0.15382 0.22143 0.15422 0.0
C1481 C 0.16257 0.21268 0.12031 0.0
C1482 C 0.15334 0.23667 0.14741 0.0
C1483 C 0.16223 0.24335 0.1069 0.0
C1484 C 0.17038 0.23446 0.07023 0.0
C1485 C 0.17031 0.21913 0.07698 0.0
C1486 C 0.14417 0.24569 0.18643 0.0
C1487 C 0.18018 0.24113 0.02709 0.0
H1488 H 0.15032 0.29223 0.0674 0.0
H1489 H 0.18401 0.28413 0.18648 0.0
H1490 H 0.14891 0.25546 0.01275 0.0
H1491 H 0.13527 0.25893 0.06374 0.0
H1492 H 0.13981 0.27304 0.01486 0.0
H1493 H 0.19397 0.2608 0.20147 0.0
H1494 H 0.17875 0.24839 0.20881 0.0
H1495 H 0.19065 0.2468 0.15078 0.0
H1496 H 0.14775 0.21638 0.18746 0.0
H1497 H 0.17714 0.21232 0.05099 0.0
H1498 H 0.1381 0.25435 0.16393 0.0
H1499 H 0.15143 0.25121 0.21652 0.0
H1500 H 0.13617 0.23884 0.20936 0.0
H1501 H 0.17455 0.25028 0.00572 0.0
H1502 H 0.18373 0.23291 0.99623 0.0
H1503 H 0.19009 0.24573 0.04709 0.0
C1504 C 0.96744 0.90767 0.33823 0.0
C1505 C 0.96214 0.91822 0.375 0.0
C1506 C 0.98263 0.90593 0.32995 0.0
C1507 C 0.99257 0.91519 0.35815 0.0
C1508 C 0.98712 0.92648 0.39241 0.0
C1509 C 0.972 0.9277 0.401 0.0
C1510 C 0.98802 0.89363 0.29381 0.0
C1511 C 0.99728 0.93685 0.42228 0.0
C1512 C 0.03004 0.90425 0.40893 0.0
C1513 C 0.03921 0.91225 0.37395 0.0
C1514 C 0.01485 0.90397 0.4008 0.0
C1515 C 0.00863 0.91228 0.3576 0.0
C1516 C 0.01794 0.91959 0.31994 0.0
C1517 C 0.03321 0.91935 0.32824 0.0
C1518 C 0.00538 0.8957 0.44112 0.0
C1519 C 0.01176 0.92871 0.27378 0.0
H1520 H 0.95979 0.90032 0.31824 0.0
H1521 H 0.96787 0.93599 0.42889 0.0
H1522 H 0.99687 0.89751 0.26621 0.0
H1523 H 0.9927 0.88482 0.31983 0.0
H1524 H 0.97906 0.88887 0.26861 0.0
H1525 H 0.99126 0.94601 0.44216 0.0
H1526 H 0.00337 0.93077 0.45445 0.0
H1527 H 0.00547 0.94152 0.39354 0.0
H1528 H 0.03473 0.89863 0.44398 0.0
H1529 H 0.04033 0.92559 0.30133 0.0
H1530 H 0.99678 0.88937 0.41932 0.0
H1531 H 0.99978 0.90359 0.46867 0.0
H1532 H 0.01191 0.88803 0.46677 0.0
H1533 H 0.00261 0.9229 0.25311 0.0
H1534 H 0.02025 0.93149 0.24282 0.0
H1535 H 0.00729 0.93908 0.29075 0.0
C1536 C 0.346 0.77891 0.65213 0.0
C1537 C 0.33757 0.78774 0.61735 0.0
C1538 C 0.3466 0.7637 0.64487 0.0
C1539 C 0.33817 0.75711 0.60281 0.0
C1540 C 0.33042 0.76608 0.56519 0.0
C1541 C 0.33035 0.78139 0.57259 0.0
C1542 C 0.35531 0.7546 0.68508 0.0
C1543 C 0.32118 0.7595 0.5202 0.0
C1544 C 0.34338 0.7159 0.58637 0.0
C1545 C 0.33312 0.71064 0.62436 0.0
C1546 C 0.34482 0.73106 0.57673 0.0
C1547 C 0.33554 0.74101 0.60486 0.0
C1548 C 0.32454 0.73557 0.64044 0.0
C1549 C 0.32362 0.72049 0.65029 0.0
C1550 C 0.3568 0.73644 0.53915 0.0
C1551 C 0.31418 0.74574 0.67036 0.0
H1552 H 0.35172 0.78388 0.68643 0.0
H1553 H 0.32378 0.78824 0.54583 0.0
H1554 H 0.34771 0.749 0.71376 0.0
H1555 H 0.36166 0.746 0.66333 0.0
H1556 H 0.36302 0.7614 0.70952 0.0
H1557 H 0.3181 0.76777 0.48883 0.0
H1558 H 0.32704 0.75034 0.49979 0.0
H1559 H 0.31098 0.75495 0.53827 0.0
H1560 H 0.35075 0.70825 0.56639 0.0
H1561 H 0.31554 0.71639 0.67911 0.0
H1562 H 0.36569 0.7414 0.56404 0.0
H1563 H 0.35261 0.74508 0.51122 0.0
H1564 H 0.36155 0.72742 0.51422 0.0
H1565 H 0.32034 0.75213 0.70145 0.0
H1566 H 0.30525 0.73969 0.69154 0.0
H1567 H 0.30918 0.75366 0.64136 0.0
C1568 C 0.47156 0.07256 0.89825 0.0
C1569 C 0.46158 0.08209 0.87317 0.0
C1570 C 0.48668 0.07424 0.89085 0.0
C1571 C 0.492 0.08603 0.85875 0.0
C1572 C 0.48194 0.09536 0.83134 0.0
C1573 C 0.46677 0.09316 0.83838 0.0
C1574 C 0.49697 0.06381 0.9198 0.0
C1575 C 0.48718 0.10817 0.79745 0.0
C1576 C 0.5289 0.0976 0.91347 0.0
C1577 C 0.53848 0.09028 0.87793 0.0
C1578 C 0.51373 0.09743 0.90457 0.0
C1579 C 0.50797 0.08938 0.85983 0.0
C1580 C 0.51767 0.08275 0.82176 0.0
C1581 C 0.53289 0.08342 0.83099 0.0
C1582 C 0.50383 0.10496 0.94547 0.0
C1583 C 0.51198 0.07395 0.77392 0.0
H1584 H 0.46753 0.06386 0.92458 0.0
H1585 H 0.45902 0.10055 0.81909 0.0
H1586 H 0.50542 0.05967 0.89094 0.0
H1587 H 0.50275 0.06968 0.95328 0.0
H1588 H 0.49111 0.05428 0.93783 0.0
H1589 H 0.47821 0.11298 0.77242 0.0
H1590 H 0.49153 0.1168 0.82508 0.0
H1591 H 0.49624 0.10481 0.76984 0.0
H1592 H 0.53325 0.10307 0.94945 0.0
H1593 H 0.54031 0.07772 0.80357 0.0
H1594 H 0.4983 0.09659 0.97124 0.0
H1595 H 0.49517 0.1113 0.92405 0.0
H1596 H 0.50999 0.11248 0.97286 0.0
H1597 H 0.50769 0.06331 0.78909 0.0
H1598 H 0.5207 0.07171 0.74324 0.0
H1599 H 0.50279 0.07973 0.75338 0.0
C1600 C 0.16779 0.78208 0.92665 0.0
C1601 C 0.16024 0.78831 0.88239 0.0
C1602 C 0.16825 0.76676 0.93347 0.0
C1603 C 0.16072 0.75763 0.89581 0.0
C1604 C 0.15196 0.76405 0.85431 0.0
C1605 C 0.15202 0.7793 0.8476 0.0
C1606 C 0.17784 0.76037 0.97787 0.0
C1607 C 0.14344 0.75477 0.81412 0.0
C1608 C 0.17632 0.72155 0.84703 0.0
C1609 C 0.16721 0.71136 0.87317 0.0
C1610 C 0.17492 0.73659 0.85715 0.0
C1611 C 0.16385 0.74163 0.89324 0.0
C1612 C 0.15498 0.73135 0.92154 0.0
C1613 C 0.15689 0.71625 0.91161 0.0
C1614 C 0.18486 0.74712 0.82703 0.0
C1615 C 0.14292 0.73629 0.95966 0.0
H1616 H 0.17421 0.78907 0.95341 0.0
H1617 H 0.14606 0.78416 0.81368 0.0
H1618 H 0.17234 0.75099 0.99825 0.0
H1619 H 0.18812 0.75617 0.95923 0.0
H1620 H 0.18076 0.76867 0.00935 0.0
H1621 H 0.13545 0.76138 0.79016 0.0
H1622 H 0.15115 0.74948 0.78499 0.0
H1623 H 0.13743 0.74593 0.83581 0.0
H1624 H 0.18444 0.71775 0.81783 0.0
H1625 H 0.14982 0.70835 0.93173 0.0
H1626 H 0.18969 0.75516 0.856 0.0
H1627 H 0.17841 0.75336 0.79633 0.0
H1628 H 0.19392 0.74139 0.80536 0.0
H1629 H 0.14691 0.745 0.98766 0.0
H1630 H 0.13851 0.72708 0.98452 0.0
H1631 H 0.13382 0.74102 0.93518 0.0
C1632 C 0.46932 0.9026 0.08925 0.0
C1633 C 0.4601 0.91056 0.12418 0.0
C1634 C 0.48454 0.90262 0.09676 0.0
C1635 C 0.49073 0.91119 0.13927 0.0
C1636 C 0.48139 0.91853 0.17681 0.0
C1637 C 0.46611 0.91798 0.16916 0.0
C1638 C 0.49404 0.89433 0.05662 0.0
C1639 C 0.48755 0.92794 0.22217 0.0
C1640 C 0.532 0.9073 0.1589 0.0
C1641 C 0.53715 0.91782 0.12173 0.0
C1642 C 0.51684 0.9053 0.167 0.0
C1643 C 0.50675 0.91429 0.13824 0.0
C1644 C 0.51204 0.92552 0.10336 0.0
C1645 C 0.52715 0.92699 0.09497 0.0
C1646 C 0.51163 0.89306 0.20377 0.0
C1647 C 0.50172 0.9356 0.07285 0.0
H1648 H 0.46463 0.89673 0.05477 0.0
H1649 H 0.45896 0.92419 0.19605 0.0
H1650 H 0.49948 0.9022 0.0285 0.0
H1651 H 0.50277 0.8882 0.07851 0.0
H1652 H 0.48758 0.88647 0.03155 0.0
H1653 H 0.47906 0.93083 0.25303 0.0
H1654 H 0.49675 0.92231 0.24317 0.0
H1655 H 0.49193 0.93824 0.20436 0.0
H1656 H 0.53977 0.90018 0.1795 0.0
H1657 H 0.53115 0.93527 0.06678 0.0
H1658 H 0.5069 0.88416 0.17825 0.0
H1659 H 0.50284 0.89696 0.2316 0.0
H1660 H 0.52068 0.8884 0.22878 0.0
H1661 H 0.49568 0.92929 0.04119 0.0
H1662 H 0.5076 0.94474 0.05226 0.0
H1663 H 0.49349 0.94031 0.10134 0.0
C1664 C 0.34841 0.22062 0.33821 0.0
C1665 C 0.34043 0.21144 0.37318 0.0
C1666 C 0.3485 0.23585 0.34585 0.0
C1667 C 0.34 0.24207 0.38852 0.0
C1668 C 0.33264 0.23276 0.42608 0.0
C1669 C 0.33309 0.21748 0.4183 0.0
C1670 C 0.35681 0.24532 0.30569 0.0
C1671 C 0.3233 0.23895 0.4716 0.0
C1672 C 0.34413 0.28329 0.4094 0.0
C1673 C 0.33356 0.2886 0.37271 0.0
C1674 C 0.34609 0.26809 0.4168 0.0
C1675 C 0.33703 0.25813 0.38782 0.0
C1676 C 0.32578 0.26356 0.35333 0.0
C1677 C 0.32433 0.2787 0.34566 0.0
C1678 C 0.35835 0.26273 0.45317 0.0
C1679 C 0.31562 0.25337 0.3226 0.0
H1680 H 0.35422 0.21592 0.3036 0.0
H1681 H 0.32685 0.21036 0.4452 0.0
H1682 H 0.34896 0.25084 0.27774 0.0
H1683 H 0.36301 0.25399 0.32759 0.0
H1684 H 0.3646 0.23882 0.28046 0.0
H1685 H 0.32035 0.23045 0.50234 0.0
H1686 H 0.32902 0.24807 0.49271 0.0
H1687 H 0.31303 0.24345 0.45392 0.0
H1688 H 0.3513 0.29096 0.43021 0.0
H1689 H 0.31602 0.28282 0.31782 0.0
H1690 H 0.36715 0.25791 0.42738 0.0
H1691 H 0.3544 0.25397 0.48104 0.0
H1692 H 0.36316 0.27171 0.47813 0.0
H1693 H 0.32189 0.24734 0.29079 0.0
H1694 H 0.30652 0.25934 0.30218 0.0
H1695 H 0.31087 0.24512 0.35092 0.0
C1696 C 0.97313 0.07551 0.594 0.0
C1697 C 0.96321 0.08454 0.62192 0.0
C1698 C 0.98824 0.07663 0.60307 0.0
C1699 C 0.99363 0.08735 0.63989 0.0
C1700 C 0.98363 0.09618 0.66977 0.0
C1701 C 0.96846 0.09453 0.6609 0.0
C1702 C 0.99846 0.06673 0.57128 0.0
C1703 C 0.98896 0.10789 0.70862 0.0
C1704 C 0.03409 0.08241 0.67137 0.0
C1705 C 0.04035 0.09012 0.62757 0.0
C1706 C 0.01879 0.08217 0.67864 0.0
C1707 C 0.00971 0.09013 0.64199 0.0
C1708 C 0.01618 0.09902 0.601 0.0
C1709 C 0.03141 0.0987 0.59372 0.0
C1710 C 0.01233 0.07241 0.72232 0.0
C1711 C 0.00697 0.10798 0.56197 0.0
H1712 H 0.96905 0.06764 0.56436 0.0
H1713 H 0.96077 0.10155 0.68238 0.0
H1714 H 0.00468 0.0733 0.54087 0.0
H1715 H 0.00653 0.06155 0.59925 0.0
H1716 H 0.99247 0.05794 0.54905 0.0
H1717 H 0.97993 0.1124 0.73413 0.0
H1718 H 0.99763 0.10353 0.73601 0.0
H1719 H 0.99387 0.117 0.68469 0.0
H1720 H 0.04104 0.07571 0.69733 0.0
H1721 H 0.03631 0.10476 0.56012 0.0
H1722 H 0.00782 0.06238 0.70281 0.0
H1723 H 0.00316 0.07797 0.74377 0.0
H1724 H 0.02066 0.06904 0.75306 0.0
H1725 H 0.00147 0.10058 0.5323 0.0
H1726 H 0.01366 0.116 0.53856 0.0
H1727 H 0.99829 0.114 0.58455 0.0
C1728 C 0.83201 0.71855 0.92289 0.0
C1729 C 0.83974 0.7122 0.87932 0.0
C1730 C 0.83183 0.73387 0.92988 0.0
C1731 C 0.83986 0.74286 0.89316 0.0
C1732 C 0.84879 0.73629 0.85252 0.0
C1733 C 0.84842 0.72105 0.84551 0.0
C1734 C 0.82202 0.74042 0.97322 0.0
C1735 C 0.85783 0.74542 0.81346 0.0
C1736 C 0.82513 0.77928 0.84381 0.0
C1737 C 0.83405 0.7893 0.87169 0.0
C1738 C 0.82634 0.76419 0.85323 0.0
C1739 C 0.83704 0.75893 0.8904 0.0
C1740 C 0.84578 0.76903 0.92017 0.0
C1741 C 0.84404 0.78418 0.91092 0.0
C1742 C 0.81654 0.75386 0.82152 0.0
C1743 C 0.85747 0.76383 0.95938 0.0
H1744 H 0.82523 0.71167 0.94882 0.0
H1745 H 0.85449 0.71609 0.81208 0.0
H1746 H 0.82755 0.74965 0.99443 0.0
H1747 H 0.812 0.74487 0.95343 0.0
H1748 H 0.81863 0.73216 0.00419 0.0
H1749 H 0.86592 0.73866 0.79057 0.0
H1750 H 0.85049 0.75083 0.78334 0.0
H1751 H 0.86379 0.75416 0.8359 0.0
H1752 H 0.81726 0.78325 0.81398 0.0
H1753 H 0.85096 0.79195 0.93238 0.0
H1754 H 0.81133 0.74584 0.84964 0.0
H1755 H 0.82319 0.74758 0.79154 0.0
H1756 H 0.80778 0.75976 0.79881 0.0
H1757 H 0.85311 0.7552 0.98697 0.0
H1758 H 0.8619 0.77294 0.98468 0.0
H1759 H 0.86663 0.75891 0.93576 0.0
C1760 C 0.65898 0.21724 0.42169 0.0
C1761 C 0.66893 0.21217 0.3822 0.0
C1762 C 0.65714 0.23238 0.43077 0.0
C1763 C 0.66569 0.24252 0.40043 0.0
C1764 C 0.67641 0.23731 0.36322 0.0
C1765 C 0.67775 0.22223 0.3541 0.0
C1766 C 0.64549 0.23751 0.47024 0.0
C1767 C 0.68599 0.24769 0.33083 0.0
C1768 C 0.6533 0.27983 0.35299 0.0
C1769 C 0.6619 0.28908 0.38557 0.0
C1770 C 0.65331 0.26464 0.36127 0.0
C1771 C 0.66252 0.25852 0.40206 0.0
C1772 C 0.67044 0.26791 0.43765 0.0
C1773 C 0.66991 0.28317 0.42932 0.0
C1774 C 0.64439 0.25507 0.3233 0.0
C1775 C 0.68048 0.26184 0.48123 0.0
H1776 H 0.65214 0.20944 0.44337 0.0
H1777 H 0.68559 0.21829 0.32408 0.0
H1778 H 0.64971 0.24643 0.49679 0.0
H1779 H 0.63609 0.24202 0.44676 0.0
H1780 H 0.64142 0.22845 0.49661 0.0
H1781 H 0.69483 0.24186 0.30831 0.0
H1782 H 0.6792 0.25374 0.3006 0.0
H1783 H 0.69109 0.25591 0.35841 0.0
H1784 H 0.64699 0.28445 0.31949 0.0
H1785 H 0.6766 0.29035 0.45438 0.0
H1786 H 0.63864 0.24637 0.34671 0.0
H1787 H 0.65179 0.2496 0.29354 0.0
H1788 H 0.63614 0.26151 0.29995 0.0
H1789 H 0.67522 0.25259 0.50324 0.0
H1790 H 0.6837 0.27035 0.5115 0.0
H1791 H 0.69058 0.25755 0.46155 0.0
C1792 C 0.84738 0.28093 0.15243 0.0
C1793 C 0.83904 0.28985 0.1177 0.0
C1794 C 0.84781 0.2657 0.14509 0.0
C1795 C 0.83929 0.25922 0.10304 0.0
C1796 C 0.83164 0.26829 0.06549 0.0
C1797 C 0.83174 0.28359 0.07294 0.0
C1798 C 0.85644 0.2565 0.18519 0.0
C1799 C 0.8223 0.26182 0.02055 0.0
C1800 C 0.84404 0.21797 0.0859 0.0
C1801 C 0.83375 0.21278 0.12391 0.0
C1802 C 0.84565 0.23313 0.07654 0.0
C1803 C 0.8365 0.24315 0.10494 0.0
C1804 C 0.82547 0.23779 0.14055 0.0
C1805 C 0.82438 0.2227 0.15015 0.0
C1806 C 0.85767 0.23842 0.03896 0.0
C1807 C 0.81523 0.24802 0.17072 0.0
H1808 H 0.85314 0.28582 0.18675 0.0
H1809 H 0.82523 0.29052 0.04625 0.0
H1810 H 0.84879 0.25098 0.21391 0.0
H1811 H 0.86268 0.24784 0.16336 0.0
H1812 H 0.86424 0.26321 0.20961 0.0
H1813 H 0.81927 0.27014 0.98926 0.0
H1814 H 0.82805 0.25262 1e-05 0.0
H1815 H 0.81207 0.25736 0.03868 0.0
H1816 H 0.85131 0.21027 0.06572 0.0
H1817 H 0.81629 0.21865 0.179 0.0
H1818 H 0.86662 0.24327 0.06388 0.0
H1819 H 0.85356 0.24713 0.01117 0.0
H1820 H 0.86232 0.22937 0.01389 0.0
H1821 H 0.82148 0.25431 0.20186 0.0
H1822 H 0.80625 0.24205 0.19187 0.0
H1823 H 0.81031 0.25604 0.14188 0.0
C1824 C 0.66903 0.71965 0.579 0.0
C1825 C 0.66125 0.71331 0.62246 0.0
C1826 C 0.6692 0.73496 0.57187 0.0
C1827 C 0.6611 0.74397 0.60833 0.0
C1828 C 0.65216 0.73741 0.64896 0.0
C1829 C 0.65254 0.72218 0.6561 0.0
C1830 C 0.67903 0.7415 0.52856 0.0
C1831 C 0.64305 0.74655 0.68779 0.0
C1832 C 0.6755 0.78059 0.65685 0.0
C1833 C 0.66652 0.79049 0.62861 0.0
C1834 C 0.67442 0.76548 0.64782 0.0
C1835 C 0.66379 0.76006 0.61068 0.0
C1836 C 0.655 0.77003 0.58057 0.0
C1837 C 0.6566 0.78521 0.58942 0.0
C1838 C 0.68429 0.75528 0.67988 0.0
C1839 C 0.64338 0.76467 0.54137 0.0
H1840 H 0.67583 0.71276 0.55316 0.0
H1841 H 0.64641 0.71723 0.6894 0.0
H1842 H 0.67346 0.75065 0.50702 0.0
H1843 H 0.68898 0.74606 0.54843 0.0
H1844 H 0.68251 0.73321 0.49785 0.0
H1845 H 0.63501 0.7398 0.71087 0.0
H1846 H 0.65036 0.75207 0.71775 0.0
H1847 H 0.63704 0.75522 0.6651 0.0
H1848 H 0.68333 0.78468 0.68662 0.0
H1849 H 0.64964 0.79289 0.56765 0.0
H1850 H 0.68959 0.74726 0.65202 0.0
H1851 H 0.67767 0.74899 0.70995 0.0
H1852 H 0.69298 0.76129 0.70253 0.0
H1853 H 0.64786 0.75607 0.51391 0.0
H1854 H 0.63885 0.7737 0.51592 0.0
H1855 H 0.63427 0.75966 0.56499 0.0
C1856 C 0.53352 0.40672 0.84191 0.0
C1857 C 0.53878 0.41722 0.87892 0.0
C1858 C 0.51835 0.40497 0.83336 0.0
C1859 C 0.50836 0.4142 0.86156 0.0
C1860 C 0.51377 0.42543 0.89619 0.0
C1861 C 0.52888 0.42665 0.90499 0.0
C1862 C 0.51301 0.39274 0.79683 0.0
C1863 C 0.50356 0.43574 0.92611 0.0
C1864 C 0.46782 0.41853 0.83011 0.0
C1865 C 0.46166 0.41134 0.87533 0.0
C1866 C 0.48312 0.41875 0.82249 0.0
C1867 C 0.49229 0.41134 0.86035 0.0
C1868 C 0.48593 0.40296 0.90303 0.0
C1869 C 0.4707 0.40325 0.91047 0.0
C1870 C 0.48947 0.42795 0.77687 0.0
C1871 C 0.49525 0.39458 0.94351 0.0
H1872 H 0.5412 0.3994 0.82186 0.0
H1873 H 0.53297 0.43492 0.93309 0.0
H1874 H 0.50818 0.38393 0.82252 0.0
H1875 H 0.50427 0.3967 0.76888 0.0
H1876 H 0.52202 0.38795 0.77196 0.0
H1877 H 0.50955 0.44484 0.94652 0.0
H1878 H 0.49545 0.44051 0.89727 0.0
H1879 H 0.49737 0.4296 0.95784 0.0
H1880 H 0.46081 0.42485 0.80306 0.0
H1881 H 0.46589 0.39756 0.94513 0.0
H1882 H 0.49863 0.42214 0.75631 0.0
H1883 H 0.49395 0.43825 0.79435 0.0
H1884 H 0.48107 0.43085 0.74571 0.0
H1885 H 0.5039 0.38827 0.9219 0.0
H1886 H 0.48863 0.38688 0.96868 0.0
H1887 H 0.50079 0.40241 0.9715 0.0
C1888 C 0.96665 0.58135 0.32455 0.0
C1889 C 0.96037 0.58941 0.36738 0.0
C1890 C 0.98196 0.58113 0.31723 0.0
C1891 C 0.991 0.58946 0.35281 0.0
C1892 C 0.98449 0.59869 0.39262 0.0
C1893 C 0.96926 0.59835 0.40004 0.0
C1894 C 0.98846 0.571 0.27483 0.0
C1895 C 0.99366 0.60806 0.43044 0.0
C1896 C 0.02757 0.57529 0.40283 0.0
C1897 C 0.03749 0.58404 0.3738 0.0
C1898 C 0.01246 0.57634 0.39361 0.0
C1899 C 0.00708 0.58672 0.35541 0.0
C1900 C 0.01709 0.59527 0.32446 0.0
C1901 C 0.03226 0.59369 0.33358 0.0
C1902 C 0.00223 0.56674 0.42662 0.0
C1903 C 0.01177 0.60662 0.28409 0.0
H1904 H 0.95974 0.57436 0.29954 0.0
H1905 H 0.96434 0.60468 0.43289 0.0
H1906 H 0.99763 0.57638 0.25277 0.0
H1907 H 0.99297 0.56115 0.29561 0.0
H1908 H 0.98015 0.56734 0.24447 0.0
H1909 H 0.98693 0.61629 0.45268 0.0
H1910 H 0.99916 0.60096 0.46116 0.0
H1911 H 0.00234 0.61387 0.40712 0.0
H1912 H 0.03163 0.56767 0.43343 0.0
H1913 H 0.03996 0.60049 0.31122 0.0
H1914 H 0.99418 0.56129 0.39929 0.0
H1915 H 0.99598 0.57359 0.45606 0.0
H1916 H 0.00821 0.55818 0.45009 0.0
H1917 H 0.00312 0.602 0.25721 0.0
H1918 H 0.02081 0.61089 0.25808 0.0
H1919 H 0.00684 0.61594 0.30679 0.0
C1920 C 0.96712 0.41841 0.674 0.0
C1921 C 0.96114 0.41143 0.62802 0.0
C1922 C 0.98239 0.4187 0.68225 0.0
C1923 C 0.99173 0.41155 0.64421 0.0
C1924 C 0.98554 0.40334 0.60072 0.0
C1925 C 0.97033 0.40357 0.59269 0.0
C1926 C 0.98855 0.4277 0.72877 0.0
C1927 C 0.99503 0.39524 0.56 0.0
C1928 C 0.02822 0.42738 0.60119 0.0
C1929 C 0.03816 0.41789 0.62668 0.0
C1930 C 0.01311 0.42602 0.60984 0.0
C1931 C 0.00776 0.41458 0.64364 0.0
C1932 C 0.0178 0.4053 0.67135 0.0
C1933 C 0.03297 0.40719 0.66303 0.0
C1934 C 0.00285 0.4364 0.5805 0.0
C1935 C 0.01253 0.39285 0.70699 0.0
H1936 H 0.95999 0.42454 0.70121 0.0
H1937 H 0.96566 0.39803 0.55743 0.0
H1938 H 0.99774 0.42188 0.74909 0.0
H1939 H 0.99293 0.43815 0.71224 0.0
H1940 H 0.98005 0.43032 0.75993 0.0
H1941 H 0.98854 0.38761 0.53409 0.0
H1942 H 0.00056 0.40326 0.53271 0.0
H1943 H 0.00369 0.38891 0.58146 0.0
H1944 H 0.03227 0.43579 0.57362 0.0
H1945 H 0.04069 0.39982 0.68262 0.0
H1946 H 0.99465 0.44094 0.60951 0.0
H1947 H 0.99678 0.43038 0.54815 0.0
H1948 H 0.00879 0.44567 0.56094 0.0
H1949 H 0.00364 0.39657 0.73478 0.0
H1950 H 0.02153 0.3881 0.73198 0.0
H1951 H 0.00792 0.38408 0.68062 0.0
C1952 C 0.47295 0.59787 0.09542 0.0
C1953 C 0.46383 0.58958 0.12966 0.0
C1954 C 0.48816 0.59804 0.10311 0.0
C1955 C 0.49445 0.58933 0.14506 0.0
C1956 C 0.4852 0.58172 0.18211 0.0
C1957 C 0.46991 0.58208 0.1743 0.0
C1958 C 0.49757 0.60663 0.06354 0.0
C1959 C 0.49145 0.57219 0.22692 0.0
C1960 C 0.53088 0.57398 0.0989 0.0
C1961 C 0.54087 0.58315 0.12577 0.0
C1962 C 0.51578 0.57529 0.10788 0.0
C1963 C 0.51049 0.58633 0.14357 0.0
C1964 C 0.52056 0.59527 0.17259 0.0
C1965 C 0.53572 0.59345 0.16378 0.0
C1966 C 0.50548 0.56528 0.07701 0.0
C1967 C 0.51534 0.60729 0.21032 0.0
H1968 H 0.4682 0.6038 0.06121 0.0
H1969 H 0.46284 0.57562 0.20065 0.0
H1970 H 0.50626 0.61271 0.08582 0.0
H1971 H 0.50306 0.59896 0.03479 0.0
H1972 H 0.49101 0.61456 0.03914 0.0
H1973 H 0.48302 0.56917 0.25779 0.0
H1974 H 0.49584 0.56195 0.20855 0.0
H1975 H 0.50067 0.57777 0.24799 0.0
H1976 H 0.53488 0.56586 0.07004 0.0
H1977 H 0.54347 0.60056 0.18448 0.0
H1978 H 0.49934 0.57169 0.0459 0.0
H1979 H 0.49733 0.56039 0.10541 0.0
H1980 H 0.51138 0.55627 0.05572 0.0
H1981 H 0.51064 0.61635 0.1855 0.0
H1982 H 0.52439 0.61179 0.23575 0.0
H1983 H 0.50653 0.60324 0.23778 0.0
C1984 C 0.1374 0.15285 0.29874 0.0
C1985 C 0.14264 0.14352 0.25738 0.0
C1986 C 0.12976 0.14724 0.34406 0.0
C1987 C 0.12724 0.13197 0.34779 0.0
C1988 C 0.13181 0.1226 0.30479 0.0
C1989 C 0.1395 0.12848 0.26017 0.0
C1990 C 0.12503 0.15755 0.38916 0.0
C1991 C 0.12917 0.10626 0.30702 0.0
C1992 C 0.12449 0.11301 0.48539 0.0
C1993 C 0.10942 0.11011 0.48887 0.0
C1994 C 0.13033 0.1207 0.44073 0.0
C1995 C 0.12089 0.12554 0.39838 0.0
C1996 C 0.10559 0.12324 0.40278 0.0
C1997 C 0.10002 0.11558 0.44813 0.0
C1998 C 0.14671 0.12309 0.43775 0.0
C1999 C 0.0952 0.12825 0.35839 0.0
H2000 H 0.13977 0.16449 0.29689 0.0
H2001 H 0.14338 0.12122 0.22814 0.0
H2002 H 0.11337 0.15567 0.39992 0.0
H2003 H 0.13162 0.15539 0.42655 0.0
H2004 H 0.12646 0.16924 0.3775 0.0
H2005 H 0.13237 0.10068 0.26834 0.0
H2006 H 0.13558 0.10142 0.34118 0.0
H2007 H 0.11742 0.10397 0.3152 0.0
H2008 H 0.13181 0.10894 0.51693 0.0
H2009 H 0.08836 0.1134 0.45051 0.0
H2010 H 0.14916 0.13483 0.43005 0.0
H2011 H 0.15132 0.11673 0.40301 0.0
H2012 H 0.15238 0.11966 0.47596 0.0
H2013 H 0.0972 0.13993 0.34805 0.0
H2014 H 0.08353 0.12694 0.37054 0.0
H2015 H 0.09714 0.12176 0.32061 0.0
C2016 C 0.0981 0.88653 0.55541 0.0
C2017 C 0.10764 0.89166 0.51452 0.0
C2018 C 0.10346 0.87884 0.60101 0.0
C2019 C 0.11869 0.87614 0.6055 0.0
C2020 C 0.12826 0.88063 0.56301 0.0
C2021 C 0.12263 0.88838 0.51811 0.0
C2022 C 0.09293 0.87422 0.64558 0.0
C2023 C 0.14456 0.87779 0.56606 0.0
C2024 C 0.13724 0.873 0.7437 0.0
C2025 C 0.13999 0.85789 0.74692 0.0
C2026 C 0.1297 0.87899 0.69897 0.0
C2027 C 0.12485 0.86965 0.65629 0.0
C2028 C 0.12695 0.85433 0.6605 0.0
C2029 C 0.13446 0.84861 0.70594 0.0
C2030 C 0.1275 0.89539 0.69623 0.0
C2031 C 0.12193 0.84405 0.61575 0.0
H2032 H 0.08649 0.88902 0.55295 0.0
H2033 H 0.13005 0.89219 0.48646 0.0
H2034 H 0.09461 0.86252 0.65629 0.0
H2035 H 0.09506 0.88074 0.68314 0.0
H2036 H 0.0813 0.87583 0.6334 0.0
H2037 H 0.15033 0.88097 0.52774 0.0
H2038 H 0.14935 0.8841 0.60059 0.0
H2039 H 0.14669 0.86601 0.57416 0.0
H2040 H 0.14136 0.88023 0.77544 0.0
H2041 H 0.13652 0.83692 0.70812 0.0
H2042 H 0.11583 0.89799 0.68787 0.0
H2043 H 0.13406 0.89998 0.66198 0.0
H2044 H 0.13083 0.90096 0.73477 0.0
H2045 H 0.11033 0.84624 0.60485 0.0
H2046 H 0.12302 0.83235 0.62782 0.0
H2047 H 0.12859 0.84592 0.57832 0.0
C2048 C 0.37639 0.88404 0.98858 0.0
C2049 C 0.39133 0.8876 0.99062 0.0
C2050 C 0.37051 0.87649 0.94365 0.0
C2051 C 0.3798 0.8725 0.89961 0.0
C2052 C 0.39503 0.87532 0.90278 0.0
C2053 C 0.40064 0.8828 0.94844 0.0
C2054 C 0.35423 0.8735 0.94204 0.0
C2055 C 0.40526 0.8712 0.8566 0.0
C2056 C 0.36337 0.84625 0.79599 0.0
C2057 C 0.35757 0.85604 0.7572 0.0
C2058 C 0.37118 0.85139 0.84166 0.0
C2059 C 0.37328 0.86665 0.8484 0.0
C2060 C 0.36812 0.87651 0.80795 0.0
C2061 C 0.3603 0.87109 0.76288 0.0
C2062 C 0.37655 0.84056 0.88397 0.0
C2063 C 0.37029 0.89287 0.81347 0.0
H2064 H 0.36916 0.88757 0.02129 0.0
H2065 H 0.41221 0.88549 0.94974 0.0
H2066 H 0.34908 0.88024 0.90942 0.0
H2067 H 0.35214 0.86182 0.93191 0.0
H2068 H 0.34878 0.87608 0.98163 0.0
H2069 H 0.41696 0.87253 0.86818 0.0
H2070 H 0.4034 0.85968 0.84377 0.0
H2071 H 0.403 0.87826 0.82053 0.0
H2072 H 0.36134 0.83459 0.79186 0.0
H2073 H 0.35598 0.87871 0.73285 0.0
H2074 H 0.37014 0.84189 0.92232 0.0
H2075 H 0.38821 0.84267 0.89415 0.0
H2076 H 0.37543 0.82903 0.86985 0.0
H2077 H 0.36403 0.89697 0.84933 0.0
H2078 H 0.36661 0.89894 0.77645 0.0
H2079 H 0.38203 0.8954 0.82083 0.0
C2080 C 0.40332 0.11041 0.05488 0.0
C2081 C 0.39375 0.10605 0.01283 0.0
C2082 C 0.39814 0.1183 0.10037 0.0
C2083 C 0.38307 0.12192 0.10365 0.0
C2084 C 0.37352 0.11815 0.06015 0.0
C2085 C 0.37897 0.11025 0.01533 0.0
C2086 C 0.40864 0.12219 0.14595 0.0
C2087 C 0.3574 0.12192 0.06195 0.0
C2088 C 0.36346 0.12585 0.2395 0.0
C2089 C 0.3613 0.14106 0.24238 0.0
C2090 C 0.37123 0.11955 0.1959 0.0
C2091 C 0.37694 0.12867 0.15408 0.0
C2092 C 0.37551 0.14408 0.15825 0.0
C2093 C 0.36771 0.1501 0.20246 0.0
C2094 C 0.37264 0.10306 0.19312 0.0
C2095 C 0.38151 0.15414 0.11453 0.0
H2096 H 0.41476 0.10724 0.05324 0.0
H2097 H 0.37153 0.10705 0.98282 0.0
H2098 H 0.40756 0.13395 0.15695 0.0
H2099 H 0.40591 0.11572 0.18309 0.0
H2100 H 0.42022 0.11995 0.13465 0.0
H2101 H 0.35167 0.11907 0.02319 0.0
H2102 H 0.35206 0.11591 0.0961 0.0
H2103 H 0.35591 0.13381 0.06986 0.0
H2104 H 0.35868 0.11878 0.27043 0.0
H2105 H 0.36615 0.16187 0.20444 0.0
H2106 H 0.38422 0.09988 0.18584 0.0
H2107 H 0.36609 0.09883 0.1582 0.0
H2108 H 0.36877 0.09763 0.23125 0.0
H2109 H 0.39303 0.15125 0.10472 0.0
H2110 H 0.38107 0.16585 0.12707 0.0
H2111 H 0.37503 0.15282 0.07636 0.0
C2112 C 0.9041 0.88618 0.55119 0.0
C2113 C 0.89453 0.89147 0.51069 0.0
C2114 C 0.89881 0.87796 0.59567 0.0
C2115 C 0.8836 0.87503 0.59964 0.0
C2116 C 0.87404 0.87963 0.55731 0.0
C2117 C 0.87962 0.88776 0.51335 0.0
C2118 C 0.90934 0.87309 0.63979 0.0
C2119 C 0.85775 0.87667 0.55992 0.0
C2120 C 0.86648 0.84786 0.69836 0.0
C2121 C 0.86092 0.85731 0.73877 0.0
C2122 C 0.87469 0.85334 0.65416 0.0
C2123 C 0.87733 0.8686 0.65037 0.0
C2124 C 0.8725 0.87805 0.69271 0.0
C2125 C 0.86439 0.87229 0.73641 0.0
C2126 C 0.87983 0.84293 0.61008 0.0
C2127 C 0.87513 0.89439 0.69027 0.0
H2128 H 0.91566 0.88891 0.5493 0.0
H2129 H 0.87215 0.89165 0.48196 0.0
H2130 H 0.90756 0.87975 0.67726 0.0
H2131 H 0.90737 0.86146 0.65089 0.0
H2132 H 0.92096 0.87436 0.62692 0.0
H2133 H 0.85201 0.87995 0.52165 0.0
H2134 H 0.85567 0.86486 0.56739 0.0
H2135 H 0.85288 0.88285 0.59465 0.0
H2136 H 0.86396 0.83626 0.70005 0.0
H2137 H 0.8603 0.87966 0.76773 0.0
H2138 H 0.89142 0.84517 0.59906 0.0
H2139 H 0.87315 0.84456 0.57256 0.0
H2140 H 0.87883 0.83128 0.62294 0.0
H2141 H 0.8869 0.89671 0.68265 0.0
H2142 H 0.87178 0.90003 0.72866 0.0
H2143 H 0.86882 0.89917 0.6557 0.0
C2144 C 0.86671 0.15554 0.3023 0.0
C2145 C 0.8616 0.1459 0.26173 0.0
C2146 C 0.87492 0.15034 0.34698 0.0
C2147 C 0.878 0.13517 0.35107 0.0
C2148 C 0.87362 0.12556 0.30861 0.0
C2149 C 0.8655 0.13104 0.26444 0.0
C2150 C 0.87959 0.16094 0.3912 0.0
C2151 C 0.87674 0.1093 0.31134 0.0
C2152 C 0.90498 0.11811 0.45057 0.0
C2153 C 0.89544 0.11242 0.49042 0.0
C2154 C 0.89959 0.12639 0.40641 0.0
C2155 C 0.88433 0.12895 0.40207 0.0
C2156 C 0.87479 0.12403 0.44396 0.0
C2157 C 0.88047 0.11586 0.48766 0.0
C2158 C 0.91011 0.13165 0.36286 0.0
C2159 C 0.85844 0.12659 0.44093 0.0
H2160 H 0.86383 0.16706 0.30037 0.0
H2161 H 0.86175 0.12352 0.23299 0.0
H2162 H 0.87278 0.15918 0.42832 0.0
H2163 H 0.89118 0.15901 0.40299 0.0
H2164 H 0.87834 0.17254 0.37806 0.0
H2165 H 0.87362 0.10353 0.27297 0.0
H2166 H 0.88855 0.10734 0.31924 0.0
H2167 H 0.87052 0.10437 0.34585 0.0
H2168 H 0.91659 0.11561 0.4526 0.0
H2169 H 0.87302 0.11167 0.51857 0.0
H2170 H 0.90777 0.14321 0.35171 0.0
H2171 H 0.9087 0.12495 0.32528 0.0
H2172 H 0.92171 0.13079 0.37634 0.0
H2173 H 0.85608 0.13834 0.43326 0.0
H2174 H 0.85272 0.1232 0.47911 0.0
H2175 H 0.85379 0.12026 0.40617 0.0
C2176 C 0.6366 0.15552 0.20247 0.0
C2177 C 0.64143 0.14567 0.24287 0.0
C2178 C 0.6285 0.15059 0.15713 0.0
C2179 C 0.62519 0.13549 0.15226 0.0
C2180 C 0.6293 0.12567 0.19448 0.0
C2181 C 0.63735 0.13088 0.23926 0.0
C2182 C 0.62418 0.1614 0.11311 0.0
C2183 C 0.62587 0.10948 0.19097 0.0
C2184 C 0.59783 0.11965 0.05156 0.0
C2185 C 0.60723 0.11377 0.01162 0.0
C2186 C 0.60343 0.12754 0.0963 0.0
C2187 C 0.61876 0.12958 0.10098 0.0
C2188 C 0.62819 0.1245 0.05897 0.0
C2189 C 0.62231 0.11666 0.0148 0.0
C2190 C 0.59304 0.13291 0.14011 0.0
C2191 C 0.6446 0.12657 0.06229 0.0
H2192 H 0.63963 0.16699 0.20508 0.0
H2193 H 0.64088 0.12322 0.27057 0.0
H2194 H 0.63093 0.15947 0.07596 0.0
H2195 H 0.61254 0.15984 0.10126 0.0
H2196 H 0.62577 0.17293 0.12644 0.0
H2197 H 0.62879 0.10354 0.2292 0.0
H2198 H 0.61404 0.10779 0.18263 0.0
H2199 H 0.63206 0.10454 0.15645 0.0
H2200 H 0.58615 0.11755 0.04928 0.0
H2201 H 0.62963 0.11231 0.9838 0.0
H2202 H 0.59565 0.14437 0.15184 0.0
H2203 H 0.59429 0.12604 0.17737 0.0
H2204 H 0.58142 0.13237 0.12664 0.0
H2205 H 0.64729 0.13822 0.07073 0.0
H2206 H 0.65024 0.12319 0.02394 0.0
H2207 H 0.64904 0.11995 0.09667 0.0
C2208 C 0.63479 0.84973 0.80163 0.0
C2209 C 0.64028 0.85908 0.76076 0.0
C2210 C 0.62662 0.85532 0.84578 0.0
C2211 C 0.62395 0.87058 0.84902 0.0
C2212 C 0.62877 0.87993 0.80637 0.0
C2213 C 0.63686 0.87407 0.76278 0.0
C2214 C 0.62153 0.84501 0.89029 0.0
C2215 C 0.62608 0.89627 0.8082 0.0
C2216 C 0.59661 0.88791 0.94681 0.0
C2217 C 0.60596 0.89333 0.98779 0.0
C2218 C 0.60219 0.87981 0.9025 0.0
C2219 C 0.61744 0.8771 0.89922 0.0
C2220 C 0.62681 0.88189 0.94189 0.0
C2221 C 0.62095 0.88993 0.98563 0.0
C2222 C 0.59187 0.87476 0.85794 0.0
C2223 C 0.64314 0.87916 0.94002 0.0
H2224 H 0.6373 0.83812 0.80028 0.0
H2225 H 0.64092 0.88136 0.73113 0.0
H2226 H 0.62805 0.84693 0.92802 0.0
H2227 H 0.60987 0.8471 0.90061 0.0
H2228 H 0.62277 0.83333 0.87825 0.0
H2229 H 0.62951 0.90183 0.76975 0.0
H2230 H 0.61429 0.89857 0.81535 0.0
H2231 H 0.63229 0.90114 0.84285 0.0
H2232 H 0.585 0.89042 0.94827 0.0
H2233 H 0.62825 0.89393 0.01735 0.0
H2234 H 0.59389 0.86308 0.84773 0.0
H2235 H 0.59386 0.88124 0.82017 0.0
H2236 H 0.58019 0.87609 0.86987 0.0
H2237 H 0.64541 0.86736 0.93298 0.0
H2238 H 0.64872 0.8826 0.97841 0.0
H2239 H 0.64802 0.88533 0.90529 0.0
C2240 C 0.59821 0.61367 0.94319 0.0
C2241 C 0.60781 0.60946 0.98532 0.0
C2242 C 0.60332 0.62154 0.89754 0.0
C2243 C 0.61835 0.62526 0.89418 0.0
C2244 C 0.62791 0.62173 0.93793 0.0
C2245 C 0.62253 0.61387 0.98292 0.0
C2246 C 0.5928 0.6252 0.85175 0.0
C2247 C 0.64401 0.62563 0.93605 0.0
C2248 C 0.63812 0.62841 0.75848 0.0
C2249 C 0.64032 0.64359 0.75454 0.0
C2250 C 0.63026 0.62237 0.80234 0.0
C2251 C 0.62448 0.63173 0.84327 0.0
C2252 C 0.62592 0.64711 0.83791 0.0
C2253 C 0.63382 0.65287 0.7935 0.0
C2254 C 0.62885 0.6059 0.80641 0.0
C2255 C 0.61983 0.65742 0.88064 0.0
H2256 H 0.5868 0.61035 0.94478 0.0
H2257 H 0.63 0.6108 0.01553 0.0
H2258 H 0.59395 0.63686 0.83953 0.0
H2259 H 0.59542 0.61843 0.81526 0.0
H2260 H 0.58121 0.62313 0.86347 0.0
H2261 H 0.64972 0.62306 0.97514 0.0
H2262 H 0.64943 0.61944 0.90252 0.0
H2263 H 0.64541 0.63747 0.92713 0.0
H2264 H 0.64297 0.62116 0.72827 0.0
H2265 H 0.6354 0.66462 0.79065 0.0
H2266 H 0.61726 0.60276 0.81374 0.0
H2267 H 0.63536 0.60187 0.84177 0.0
H2268 H 0.63277 0.60025 0.76879 0.0
H2269 H 0.60833 0.65451 0.89074 0.0
H2270 H 0.62018 0.66904 0.86696 0.0
H2271 H 0.62632 0.65641 0.91891 0.0
C2272 C 0.63738 0.37293 0.24342 0.0
C2273 C 0.63945 0.35778 0.24926 0.0
C2274 C 0.6292 0.37862 0.19972 0.0
C2275 C 0.62294 0.36892 0.16093 0.0
C2276 C 0.62423 0.35359 0.16836 0.0
C2277 C 0.63248 0.34819 0.21253 0.0
C2278 C 0.62797 0.39506 0.19339 0.0
C2279 C 0.61762 0.34293 0.12802 0.0
C2280 C 0.59625 0.38664 0.06178 0.0
C2281 C 0.60562 0.39035 0.01829 0.0
C2282 C 0.60153 0.37898 0.10764 0.0
C2283 C 0.61651 0.37495 0.1098 0.0
C2284 C 0.62578 0.37789 0.06462 0.0
C2285 C 0.62023 0.38555 0.01944 0.0
C2286 C 0.5913 0.37591 0.15492 0.0
C2287 C 0.6418 0.37365 0.06517 0.0
H2288 H 0.64258 0.38042 0.27192 0.0
H2289 H 0.63395 0.33645 0.2169 0.0
H2290 H 0.63421 0.39861 0.15666 0.0
H2291 H 0.61637 0.39829 0.18705 0.0
H2292 H 0.6323 0.40103 0.22963 0.0
H2293 H 0.61785 0.33148 0.14356 0.0
H2294 H 0.60611 0.34596 0.11864 0.0
H2295 H 0.62384 0.34335 0.08896 0.0
H2296 H 0.58493 0.39026 0.06114 0.0
H2297 H 0.62751 0.38821 0.98574 0.0
H2298 H 0.59422 0.38308 0.19004 0.0
H2299 H 0.59245 0.36439 0.16889 0.0
H2300 H 0.57966 0.37796 0.14395 0.0
H2301 H 0.64764 0.38006 0.09711 0.0
H2302 H 0.64722 0.37568 0.02509 0.0
H2303 H 0.64304 0.36188 0.07566 0.0
C2304 C 0.90127 0.3865 0.4472 0.0
C2305 C 0.892 0.39162 0.48899 0.0
C2306 C 0.89558 0.37899 0.40173 0.0
C2307 C 0.8803 0.37646 0.39832 0.0
C2308 C 0.87101 0.38091 0.44172 0.0
C2309 C 0.87697 0.38848 0.48646 0.0
C2310 C 0.90581 0.3744 0.35618 0.0
C2311 C 0.85467 0.37825 0.43983 0.0
C2312 C 0.86111 0.37394 0.26109 0.0
C2313 C 0.85829 0.35887 0.2572 0.0
C2314 C 0.86884 0.37972 0.30577 0.0
C2315 C 0.87379 0.3702 0.34772 0.0
C2316 C 0.87155 0.35491 0.34293 0.0
C2317 C 0.86385 0.34941 0.29756 0.0
C2318 C 0.87118 0.3961 0.30917 0.0
C2319 C 0.87666 0.34444 0.38692 0.0
H2320 H 0.91291 0.38888 0.44884 0.0
H2321 H 0.86975 0.39228 0.51881 0.0
H2322 H 0.90395 0.36275 0.34509 0.0
H2323 H 0.90354 0.38106 0.31906 0.0
H2324 H 0.91752 0.37585 0.36752 0.0
H2325 H 0.84916 0.38135 0.47877 0.0
H2326 H 0.84975 0.38474 0.40602 0.0
H2327 H 0.85237 0.36653 0.4313 0.0
H2328 H 0.85697 0.38131 0.22985 0.0
H2329 H 0.86173 0.33774 0.29486 0.0
H2330 H 0.88292 0.39857 0.31664 0.0
H2331 H 0.86487 0.40061 0.34422 0.0
H2332 H 0.86766 0.40184 0.27122 0.0
H2333 H 0.88836 0.34643 0.39689 0.0
H2334 H 0.87532 0.33279 0.37456 0.0
H2335 H 0.87027 0.34633 0.42497 0.0
C2336 C 0.86176 0.62796 0.7366 0.0
C2337 C 0.85868 0.643 0.73942 0.0
C2338 C 0.86929 0.62203 0.69173 0.0
C2339 C 0.87377 0.63136 0.64846 0.0
C2340 C 0.87127 0.64663 0.65209 0.0
C2341 C 0.8638 0.6523 0.69771 0.0
C2342 C 0.87193 0.60568 0.6896 0.0
C2343 C 0.87587 0.6569 0.60666 0.0
C2344 C 0.90089 0.61496 0.54783 0.0
C2345 C 0.89146 0.6094 0.50737 0.0
C2346 C 0.89536 0.62264 0.59317 0.0
C2347 C 0.88006 0.62489 0.59783 0.0
C2348 C 0.87057 0.61997 0.55574 0.0
C2349 C 0.87638 0.61225 0.51109 0.0
C2350 C 0.90579 0.62772 0.63731 0.0
C2351 C 0.8542 0.62232 0.55898 0.0
H2352 H 0.85796 0.62073 0.76889 0.0
H2353 H 0.86146 0.66394 0.69956 0.0
H2354 H 0.86546 0.60082 0.65562 0.0
H2355 H 0.88366 0.60338 0.68118 0.0
H2356 H 0.86879 0.60013 0.7284 0.0
H2357 H 0.87439 0.6686 0.61807 0.0
H2358 H 0.88753 0.65507 0.5957 0.0
H2359 H 0.86924 0.65464 0.56945 0.0
H2360 H 0.91256 0.61282 0.54526 0.0
H2361 H 0.86904 0.60811 0.47977 0.0
H2362 H 0.90389 0.62128 0.67526 0.0
H2363 H 0.90379 0.63941 0.64744 0.0
H2364 H 0.91745 0.6264 0.62503 0.0
H2365 H 0.84965 0.61596 0.59384 0.0
H2366 H 0.84849 0.61886 0.52089 0.0
H2367 H 0.85172 0.63405 0.56666 0.0
C2368 C 0.36206 0.34771 0.19318 0.0
C2369 C 0.35845 0.35682 0.23757 0.0
C2370 C 0.36968 0.35326 0.14764 0.0
C2371 C 0.37379 0.36822 0.14674 0.0
C2372 C 0.37086 0.37725 0.19265 0.0
C2373 C 0.36322 0.37144 0.23746 0.0
C2374 C 0.37269 0.34331 0.09948 0.0
C2375 C 0.37518 0.39324 0.19344 0.0
C2376 C 0.4011 0.38405 0.04557 0.0
C2377 C 0.39174 0.39119 0.00845 0.0
C2378 C 0.39542 0.3759 0.08953 0.0
C2379 C 0.38006 0.37488 0.09638 0.0
C2380 C 0.37057 0.38141 0.05746 0.0
C2381 C 0.37653 0.38949 0.01398 0.0
C2382 C 0.40586 0.36902 0.1301 0.0
C2383 C 0.35411 0.38048 0.06321 0.0
H2384 H 0.35845 0.33639 0.19298 0.0
H2385 H 0.36061 0.37852 0.27181 0.0
H2386 H 0.36578 0.34668 0.06423 0.0
H2387 H 0.3843 0.34427 0.08638 0.0
H2388 H 0.37031 0.33164 0.10905 0.0
H2389 H 0.37307 0.39846 0.23384 0.0
H2390 H 0.38698 0.39446 0.18345 0.0
H2391 H 0.36889 0.39928 0.16171 0.0
H2392 H 0.41287 0.38524 0.04149 0.0
H2393 H 0.36921 0.39485 0.98525 0.0
H2394 H 0.40278 0.35745 0.13811 0.0
H2395 H 0.4052 0.37496 0.16972 0.0
H2396 H 0.4174 0.36934 0.11555 0.0
H2397 H 0.35064 0.36891 0.06861 0.0
H2398 H 0.34829 0.38511 0.02711 0.0
H2399 H 0.35058 0.38659 0.10028 0.0
C2400 C 0.37916 0.61314 0.99216 0.0
C2401 C 0.39434 0.61096 0.99639 0.0
C2402 C 0.37317 0.62112 0.94851 0.0
C2403 C 0.38259 0.62706 0.90808 0.0
C2404 C 0.39796 0.62565 0.91375 0.0
C2405 C 0.40367 0.61761 0.95793 0.0
C2406 C 0.3567 0.62249 0.94408 0.0
C2407 C 0.40833 0.63193 0.87162 0.0
C2408 C 0.36489 0.62931 0.76822 0.0
C2409 C 0.36035 0.64399 0.76641 0.0
C2410 C 0.37277 0.62386 0.81306 0.0
C2411 C 0.37618 0.63332 0.85725 0.0
C2412 C 0.37234 0.64833 0.85446 0.0
C2413 C 0.36446 0.65351 0.80894 0.0
C2414 C 0.37679 0.60779 0.81432 0.0
C2415 C 0.37589 0.65874 0.90069 0.0
H2416 H 0.37187 0.60818 0.02199 0.0
H2417 H 0.41542 0.61606 0.96103 0.0
H2418 H 0.35353 0.63408 0.93726 0.0
H2419 H 0.35277 0.61609 0.90827 0.0
H2420 H 0.351 0.61841 0.98134 0.0
H2421 H 0.41992 0.6316 0.88565 0.0
H2422 H 0.40745 0.62554 0.83304 0.0
H2423 H 0.40538 0.64344 0.86192 0.0
H2424 H 0.3619 0.62191 0.73528 0.0
H2425 H 0.36103 0.66489 0.80779 0.0
H2426 H 0.37059 0.60222 0.84747 0.0
H2427 H 0.38863 0.60644 0.82343 0.0
H2428 H 0.37433 0.60219 0.77493 0.0
H2429 H 0.36905 0.65602 0.93689 0.0
H2430 H 0.37382 0.67035 0.8893 0.0
H2431 H 0.38753 0.65758 0.91323 0.0
C2432 C 0.13473 0.65463 0.6927 0.0
C2433 C 0.13994 0.64486 0.73268 0.0
C2434 C 0.12644 0.64958 0.64799 0.0
C2435 C 0.12339 0.63442 0.64324 0.0
C2436 C 0.1279 0.62466 0.68506 0.0
C2437 C 0.13609 0.63 0.72929 0.0
C2438 C 0.12164 0.66033 0.60448 0.0
C2439 C 0.12481 0.6084 0.68161 0.0
C2440 C 0.09609 0.61761 0.54445 0.0
C2441 C 0.1055 0.61201 0.504 0.0
C2442 C 0.10162 0.6258 0.58858 0.0
C2443 C 0.11689 0.62838 0.59226 0.0
C2444 C 0.12628 0.62358 0.54972 0.0
C2445 C 0.12047 0.61549 0.50607 0.0
C2446 C 0.09125 0.63093 0.63284 0.0
C2447 C 0.14264 0.62616 0.552 0.0
H2448 H 0.13757 0.66615 0.69517 0.0
H2449 H 0.13991 0.62238 0.76026 0.0
H2450 H 0.12832 0.65868 0.56696 0.0
H2451 H 0.11001 0.65845 0.59316 0.0
H2452 H 0.12295 0.67188 0.61807 0.0
H2453 H 0.12809 0.60248 0.71949 0.0
H2454 H 0.11297 0.60645 0.67424 0.0
H2455 H 0.13091 0.60362 0.6465 0.0
H2456 H 0.08448 0.61508 0.54295 0.0
H2457 H 0.12782 0.61138 0.47468 0.0
H2458 H 0.09363 0.64245 0.64446 0.0
H2459 H 0.09277 0.62409 0.67003 0.0
H2460 H 0.0796 0.63012 0.61984 0.0
H2461 H 0.14501 0.63789 0.56021 0.0
H2462 H 0.14821 0.62294 0.51334 0.0
H2463 H 0.14743 0.6197 0.58614 0.0
C2464 C 0.13326 0.34816 0.30019 0.0
C2465 C 0.13884 0.35764 0.25992 0.0
C2466 C 0.12502 0.35361 0.34437 0.0
C2467 C 0.12238 0.36886 0.34827 0.0
C2468 C 0.12717 0.37833 0.30592 0.0
C2469 C 0.13531 0.3726 0.26223 0.0
C2470 C 0.11993 0.34317 0.38845 0.0
C2471 C 0.1245 0.39467 0.30843 0.0
C2472 C 0.09585 0.38635 0.44866 0.0
C2473 C 0.10553 0.39156 0.48895 0.0
C2474 C 0.10104 0.3782 0.4038 0.0
C2475 C 0.11623 0.37527 0.39924 0.0
C2476 C 0.1259 0.3798 0.44133 0.0
C2477 C 0.12043 0.38786 0.48567 0.0
C2478 C 0.09039 0.37339 0.35997 0.0
C2479 C 0.14218 0.37685 0.43808 0.0
H2480 H 0.13583 0.33657 0.29852 0.0
H2481 H 0.13941 0.37999 0.23098 0.0
H2482 H 0.1267 0.34472 0.42578 0.0
H2483 H 0.10837 0.34545 0.39987 0.0
H2484 H 0.12085 0.33154 0.37537 0.0
H2485 H 0.12774 0.4003 0.26988 0.0
H2486 H 0.11276 0.39698 0.31654 0.0
H2487 H 0.13091 0.39945 0.34272 0.0
H2488 H 0.0843 0.38907 0.45102 0.0
H2489 H 0.12798 0.3917 0.51687 0.0
H2490 H 0.09233 0.36178 0.34857 0.0
H2491 H 0.09208 0.38011 0.32256 0.0
H2492 H 0.0788 0.37464 0.37328 0.0
H2493 H 0.14424 0.36503 0.43051 0.0
H2494 H 0.14803 0.38012 0.47613 0.0
H2495 H 0.14696 0.38303 0.40318 0.0
loop_
_geom_bond_atom_site_label_1
_geom_bond_atom_site_label_2
_geom_bond_distance
_geom_bond_site_symmetry_2
_ccdc_geom_bond_type
O0 Cd1 2.223 . S
O0 C8 1.315 . S
Cd1 O0 2.223 . S
Cd1 O4 2.297 . S
Cd1 O5 2.439 . S
Cd1 O11 2.240 . S
Cd2 O3 2.240 . S
Cd2 O10 2.223 . S
Cd2 O12 2.297 . S
Cd2 O13 2.439 . S
O3 Cd2 2.240 . S
O3 C8 1.279 . S
O4 Cd1 2.297 . S
O4 C6 1.247 . S
O5 Cd1 2.439 . S
O5 C6 1.208 . S
C6 O4 1.247 . S
C6 O5 1.208 . S
C7 O12 1.247 . S
C7 O13 1.208 . S
C8 O0 1.315 . S
C8 O3 1.279 . S
C9 O10 1.315 . S
C9 O11 1.279 . S
O10 Cd2 2.223 . S
O10 C9 1.315 . S
O11 Cd1 2.240 . S
O11 C9 1.279 . S
O12 Cd2 2.297 . S
O12 C7 1.247 . S
O13 Cd2 2.439 . S
O13 C7 1.208 . S
O14 Cd15 2.223 . S
O14 C22 1.315 . S
Cd15 O14 2.223 . S
Cd15 O18 2.297 . S
Cd15 O19 2.439 . S
Cd15 O25 2.240 . S
Cd16 O17 2.240 . S
Cd16 O24 2.223 . S
Cd16 O26 2.297 . S
Cd16 O27 2.439 . S
O17 Cd16 2.240 . S
O17 C22 1.279 . S
O18 Cd15 2.297 . S
O18 C20 1.247 . S
O19 Cd15 2.439 . S
O19 C20 1.208 . S
C20 O18 1.247 . S
C20 O19 1.208 . S
C21 O26 1.247 . S
C21 O27 1.208 . S
C22 O14 1.315 . S
C22 O17 1.279 . S
C23 O24 1.315 . S
C23 O25 1.279 . S
O24 Cd16 2.223 . S
O24 C23 1.315 . S
O25 Cd15 2.240 . S
O25 C23 1.279 . S
O26 Cd16 2.297 . S
O26 C21 1.247 . S
O27 Cd16 2.439 . S
O27 C21 1.208 . S
O28 Cd29 2.223 . S
O28 C36 1.315 . S
Cd29 O28 2.223 . S
Cd29 O32 2.297 . S
Cd29 O33 2.439 . S
Cd29 O39 2.240 . S
Cd30 O31 2.240 . S
Cd30 O38 2.223 . S
Cd30 O40 2.297 . S
Cd30 O41 2.439 . S
O31 Cd30 2.240 . S
O31 C36 1.279 . S
O32 Cd29 2.297 . S
O32 C34 1.247 . S
O33 Cd29 2.439 . S
O33 C34 1.208 . S
C34 O32 1.247 . S
C34 O33 1.208 . S
C35 O40 1.247 . S
C35 O41 1.208 . S
C36 O28 1.315 . S
C36 O31 1.279 . S
C37 O38 1.315 . S
C37 O39 1.279 . S
O38 Cd30 2.223 . S
O38 C37 1.315 . S
O39 Cd29 2.240 . S
O39 C37 1.279 . S
O40 Cd30 2.297 . S
O40 C35 1.247 . S
O41 Cd30 2.439 . S
O41 C35 1.208 . S
O42 Cd43 2.223 . S
O42 C50 1.315 . S
Cd43 O42 2.223 . S
Cd43 O46 2.297 . S
Cd43 O47 2.439 . S
Cd43 O53 2.240 . S
Cd44 O45 2.240 . S
Cd44 O52 2.223 . S
Cd44 O54 2.297 . S
Cd44 O55 2.439 . S
O45 Cd44 2.240 . S
O45 C50 1.279 . S
O46 Cd43 2.297 . S
O46 C48 1.247 . S
O47 Cd43 2.439 . S
O47 C48 1.208 . S
C48 O46 1.247 . S
C48 O47 1.208 . S
C49 O54 1.247 . S
C49 O55 1.208 . S
C50 O42 1.315 . S
C50 O45 1.279 . S
C51 O52 1.315 . S
C51 O53 1.279 . S
O52 Cd44 2.223 . S
O52 C51 1.315 . S
O53 Cd43 2.240 . S
O53 C51 1.279 . S
O54 Cd44 2.297 . S
O54 C49 1.247 . S
O55 Cd44 2.439 . S
O55 C49 1.208 . S
O56 Cd57 2.223 . S
O56 C64 1.315 . S
Cd57 O56 2.223 . S
Cd57 O60 2.297 . S
Cd57 O61 2.439 . S
Cd57 O67 2.240 . S
Cd58 O59 2.240 . S
Cd58 O66 2.223 . S
Cd58 O68 2.297 . S
Cd58 O69 2.439 . S
O59 Cd58 2.240 . S
O59 C64 1.279 . S
O60 Cd57 2.297 . S
O60 C62 1.247 . S
O61 Cd57 2.439 . S
O61 C62 1.208 . S
C62 O60 1.247 . S
C62 O61 1.208 . S
C63 O68 1.247 . S
C63 O69 1.208 . S
C64 O56 1.315 . S
C64 O59 1.279 . S
C65 O66 1.315 . S
C65 O67 1.279 . S
O66 Cd58 2.223 . S
O66 C65 1.315 . S
O67 Cd57 2.240 . S
O67 C65 1.279 . S
O68 Cd58 2.297 . S
O68 C63 1.247 . S
O69 Cd58 2.439 . S
O69 C63 1.208 . S
O70 Cd71 2.223 . S
O70 C78 1.315 . S
Cd71 O70 2.223 . S
Cd71 O74 2.297 . S
Cd71 O75 2.439 . S
Cd71 O81 2.240 . S
Cd72 O73 2.240 . S
Cd72 O80 2.223 . S
Cd72 O82 2.297 . S
Cd72 O83 2.439 . S
O73 Cd72 2.240 . S
O73 C78 1.279 . S
O74 Cd71 2.297 . S
O74 C76 1.247 . S
O75 Cd71 2.439 . S
O75 C76 1.208 . S
C76 O74 1.247 . S
C76 O75 1.208 . S
C77 O82 1.247 . S
C77 O83 1.208 . S
C78 O70 1.315 . S
C78 O73 1.279 . S
C79 O80 1.315 . S
C79 O81 1.279 . S
O80 Cd72 2.223 . S
O80 C79 1.315 . S
O81 Cd71 2.240 . S
O81 C79 1.279 . S
O82 Cd72 2.297 . S
O82 C77 1.247 . S
O83 Cd72 2.439 . S
O83 C77 1.208 . S
O84 Cd85 2.223 . S
O84 C92 1.315 . S
Cd85 O84 2.223 . S
Cd85 O88 2.297 . S
Cd85 O89 2.439 . S
Cd85 O95 2.240 . S
Cd86 O87 2.240 . S
Cd86 O94 2.223 . S
Cd86 O96 2.297 . S
Cd86 O97 2.439 . S
O87 Cd86 2.240 . S
O87 C92 1.279 . S
O88 Cd85 2.297 . S
O88 C90 1.247 . S
O89 Cd85 2.439 . S
O89 C90 1.208 . S
C90 O88 1.247 . S
C90 O89 1.208 . S
C91 O96 1.247 . S
C91 O97 1.208 . S
C92 O84 1.315 . S
C92 O87 1.279 . S
C93 O94 1.315 . S
C93 O95 1.279 . S
O94 Cd86 2.223 . S
O94 C93 1.315 . S
O95 Cd85 2.240 . S
O95 C93 1.279 . S
O96 Cd86 2.297 . S
O96 C91 1.247 . S
O97 Cd86 2.439 . S
O97 C91 1.208 . S
O98 Cd99 2.223 . S
O98 C106 1.315 . S
Cd99 O98 2.223 . S
Cd99 O102 2.297 . S
Cd99 O103 2.439 . S
Cd99 O109 2.240 . S
Cd100 O101 2.240 . S
Cd100 O108 2.223 . S
Cd100 O110 2.297 . S
Cd100 O111 2.439 . S
O101 Cd100 2.240 . S
O101 C106 1.279 . S
O102 Cd99 2.297 . S
O102 C104 1.247 . S
O103 Cd99 2.439 . S
O103 C104 1.208 . S
C104 O102 1.247 . S
C104 O103 1.208 . S
C105 O110 1.247 . S
C105 O111 1.208 . S
C106 O98 1.315 . S
C106 O101 1.279 . S
C107 O108 1.315 . S
C107 O109 1.279 . S
O108 Cd100 2.223 . S
O108 C107 1.315 . S
O109 Cd99 2.240 . S
O109 C107 1.279 . S
O110 Cd100 2.297 . S
O110 C105 1.247 . S
O111 Cd100 2.439 . S
O111 C105 1.208 . S
O112 Cd113 2.223 . S
O112 C120 1.315 . S
Cd113 O112 2.223 . S
Cd113 O116 2.297 . S
Cd113 O117 2.439 . S
Cd113 O123 2.240 . S
Cd114 O115 2.240 . S
Cd114 O122 2.223 . S
Cd114 O124 2.297 . S
Cd114 O125 2.439 . S
O115 Cd114 2.240 . S
O115 C120 1.279 . S
O116 Cd113 2.297 . S
O116 C118 1.247 . S
O117 Cd113 2.439 . S
O117 C118 1.208 . S
C118 O116 1.247 . S
C118 O117 1.208 . S
C119 O124 1.247 . S
C119 O125 1.208 . S
C120 O112 1.315 . S
C120 O115 1.279 . S
C121 O122 1.315 . S
C121 O123 1.279 . S
O122 Cd114 2.223 . S
O122 C121 1.315 . S
O123 Cd113 2.240 . S
O123 C121 1.279 . S
O124 Cd114 2.297 . S
O124 C119 1.247 . S
O125 Cd114 2.439 . S
O125 C119 1.208 . S
O126 Cd127 2.223 . S
O126 C134 1.315 . S
Cd127 O126 2.223 . S
Cd127 O130 2.297 . S
Cd127 O131 2.439 . S
Cd127 O137 2.240 . S
Cd128 O129 2.240 . S
Cd128 O136 2.223 . S
Cd128 O138 2.297 . S
Cd128 O139 2.439 . S
O129 Cd128 2.240 . S
O129 C134 1.279 . S
O130 Cd127 2.297 . S
O130 C132 1.247 . S
O131 Cd127 2.439 . S
O131 C132 1.208 . S
C132 O130 1.247 . S
C132 O131 1.208 . S
C133 O138 1.247 . S
C133 O139 1.208 . S
C134 O126 1.315 . S
C134 O129 1.279 . S
C135 O136 1.315 . S
C135 O137 1.279 . S
O136 Cd128 2.223 . S
O136 C135 1.315 . S
O137 Cd127 2.240 . S
O137 C135 1.279 . S
O138 Cd128 2.297 . S
O138 C133 1.247 . S
O139 Cd128 2.439 . S
O139 C133 1.208 . S
O140 Cd141 2.223 . S
O140 C148 1.315 . S
Cd141 O140 2.223 . S
Cd141 O144 2.297 . S
Cd141 O145 2.439 . S
Cd141 O151 2.240 . S
Cd142 O143 2.240 . S
Cd142 O150 2.223 . S
Cd142 O152 2.297 . S
Cd142 O153 2.439 . S
O143 Cd142 2.240 . S
O143 C148 1.279 . S
O144 Cd141 2.297 . S
O144 C146 1.247 . S
O145 Cd141 2.439 . S
O145 C146 1.208 . S
C146 O144 1.247 . S
C146 O145 1.208 . S
C147 O152 1.247 . S
C147 O153 1.208 . S
C148 O140 1.315 . S
C148 O143 1.279 . S
C149 O150 1.315 . S
C149 O151 1.279 . S
O150 Cd142 2.223 . S
O150 C149 1.315 . S
O151 Cd141 2.240 . S
O151 C149 1.279 . S
O152 Cd142 2.297 . S
O152 C147 1.247 . S
O153 Cd142 2.439 . S
O153 C147 1.208 . S
O154 Cd155 2.223 . S
O154 C162 1.315 . S
Cd155 O154 2.223 . S
Cd155 O158 2.297 . S
Cd155 O159 2.439 . S
Cd155 O165 2.240 . S
Cd156 O157 2.240 . S
Cd156 O164 2.223 . S
Cd156 O166 2.297 . S
Cd156 O167 2.439 . S
O157 Cd156 2.240 . S
O157 C162 1.279 . S
O158 Cd155 2.297 . S
O158 C160 1.247 . S
O159 Cd155 2.439 . S
O159 C160 1.208 . S
C160 O158 1.247 . S
C160 O159 1.208 . S
C161 O166 1.247 . S
C161 O167 1.208 . S
C162 O154 1.315 . S
C162 O157 1.279 . S
C163 O164 1.315 . S
C163 O165 1.279 . S
O164 Cd156 2.223 . S
O164 C163 1.315 . S
O165 Cd155 2.240 . S
O165 C163 1.279 . S
O166 Cd156 2.297 . S
O166 C161 1.247 . S
O167 Cd156 2.439 . S
O167 C161 1.208 . S
O168 Cd169 2.223 . S
O168 C176 1.315 . S
Cd169 O168 2.223 . S
Cd169 O172 2.297 . S
Cd169 O173 2.439 . S
Cd169 O179 2.240 . S
Cd170 O171 2.240 . S
Cd170 O178 2.223 . S
Cd170 O180 2.297 . S
Cd170 O181 2.439 . S
O171 Cd170 2.240 . S
O171 C176 1.279 . S
O172 Cd169 2.297 . S
O172 C174 1.247 . S
O173 Cd169 2.439 . S
O173 C174 1.208 . S
C174 O172 1.247 . S
C174 O173 1.208 . S
C175 O180 1.247 . S
C175 O181 1.208 . S
C176 O168 1.315 . S
C176 O171 1.279 . S
C177 O178 1.315 . S
C177 O179 1.279 . S
O178 Cd170 2.223 . S
O178 C177 1.315 . S
O179 Cd169 2.240 . S
O179 C177 1.279 . S
O180 Cd170 2.297 . S
O180 C175 1.247 . S
O181 Cd170 2.439 . S
O181 C175 1.208 . S
O182 Cd183 2.223 . S
O182 C190 1.315 . S
Cd183 O182 2.223 . S
Cd183 O186 2.297 . S
Cd183 O187 2.439 . S
Cd183 O193 2.240 . S
Cd184 O185 2.240 . S
Cd184 O192 2.223 . S
Cd184 O194 2.297 . S
Cd184 O195 2.439 . S
O185 Cd184 2.240 . S
O185 C190 1.279 . S
O186 Cd183 2.297 . S
O186 C188 1.247 . S
O187 Cd183 2.439 . S
O187 C188 1.208 . S
C188 O186 1.247 . S
C188 O187 1.208 . S
C189 O194 1.247 . S
C189 O195 1.208 . S
C190 O182 1.315 . S
C190 O185 1.279 . S
C191 O192 1.315 . S
C191 O193 1.279 . S
O192 Cd184 2.223 . S
O192 C191 1.315 . S
O193 Cd183 2.240 . S
O193 C191 1.279 . S
O194 Cd184 2.297 . S
O194 C189 1.247 . S
O195 Cd184 2.439 . S
O195 C189 1.208 . S
O196 Cd197 2.223 . S
O196 C204 1.315 . S
Cd197 O196 2.223 . S
Cd197 O200 2.297 . S
Cd197 O201 2.439 . S
Cd197 O207 2.240 . S
Cd198 O199 2.240 . S
Cd198 O206 2.223 . S
Cd198 O208 2.297 . S
Cd198 O209 2.439 . S
O199 Cd198 2.240 . S
O199 C204 1.279 . S
O200 Cd197 2.297 . S
O200 C202 1.247 . S
O201 Cd197 2.439 . S
O201 C202 1.208 . S
C202 O200 1.247 . S
C202 O201 1.208 . S
C203 O208 1.247 . S
C203 O209 1.208 . S
C204 O196 1.315 . S
C204 O199 1.279 . S
C205 O206 1.315 . S
C205 O207 1.279 . S
O206 Cd198 2.223 . S
O206 C205 1.315 . S
O207 Cd197 2.240 . S
O207 C205 1.279 . S
O208 Cd198 2.297 . S
O208 C203 1.247 . S
O209 Cd198 2.439 . S
O209 C203 1.208 . S
O210 Cd211 2.223 . S
O210 C218 1.315 . S
Cd211 O210 2.223 . S
Cd211 O214 2.297 . S
Cd211 O215 2.439 . S
Cd211 O221 2.240 . S
Cd212 O213 2.240 . S
Cd212 O220 2.223 . S
Cd212 O222 2.297 . S
Cd212 O223 2.439 . S
O213 Cd212 2.240 . S
O213 C218 1.279 . S
O214 Cd211 2.297 . S
O214 C216 1.247 . S
O215 Cd211 2.439 . S
O215 C216 1.208 . S
C216 O214 1.247 . S
C216 O215 1.208 . S
C217 O222 1.247 . S
C217 O223 1.208 . S
C218 O210 1.315 . S
C218 O213 1.279 . S
C219 O220 1.315 . S
C219 O221 1.279 . S
O220 Cd212 2.223 . S
O220 C219 1.315 . S
O221 Cd211 2.240 . S
O221 C219 1.279 . S
O222 Cd212 2.297 . S
O222 C217 1.247 . S
O223 Cd212 2.439 . S
O223 C217 1.208 . S
O224 Cd225 2.223 . S
O224 C232 1.315 . S
Cd225 O224 2.223 . S
Cd225 O228 2.297 . S
Cd225 O229 2.439 . S
Cd225 O235 2.240 . S
Cd226 O227 2.240 . S
Cd226 O234 2.223 . S
Cd226 O236 2.297 . S
Cd226 O237 2.439 . S
O227 Cd226 2.240 . S
O227 C232 1.279 . S
O228 Cd225 2.297 . S
O228 C230 1.247 . S
O229 Cd225 2.439 . S
O229 C230 1.208 . S
C230 O228 1.247 . S
C230 O229 1.208 . S
C231 O236 1.247 . S
C231 O237 1.208 . S
C232 O224 1.315 . S
C232 O227 1.279 . S
C233 O234 1.315 . S
C233 O235 1.279 . S
O234 Cd226 2.223 . S
O234 C233 1.315 . S
O235 Cd225 2.240 . S
O235 C233 1.279 . S
O236 Cd226 2.297 . S
O236 C231 1.247 . S
O237 Cd226 2.439 . S
O237 C231 1.208 . S
O238 Cd239 2.223 . S
O238 C246 1.315 . S
Cd239 O238 2.223 . S
Cd239 O242 2.297 . S
Cd239 O243 2.439 . S
Cd239 O249 2.240 . S
Cd240 O241 2.240 . S
Cd240 O248 2.223 . S
Cd240 O250 2.297 . S
Cd240 O251 2.439 . S
O241 Cd240 2.240 . S
O241 C246 1.279 . S
O242 Cd239 2.297 . S
O242 C244 1.247 . S
O243 Cd239 2.439 . S
O243 C244 1.208 . S
C244 O242 1.247 . S
C244 O243 1.208 . S
C245 O250 1.247 . S
C245 O251 1.208 . S
C246 O238 1.315 . S
C246 O241 1.279 . S
C247 O248 1.315 . S
C247 O249 1.279 . S
O248 Cd240 2.223 . S
O248 C247 1.315 . S
O249 Cd239 2.240 . S
O249 C247 1.279 . S
O250 Cd240 2.297 . S
O250 C245 1.247 . S
O251 Cd240 2.439 . S
O251 C245 1.208 . S
O252 Cd253 2.223 . S
O252 C260 1.315 . S
Cd253 O252 2.223 . S
Cd253 O256 2.297 . S
Cd253 O257 2.439 . S
Cd253 O263 2.240 . S
Cd254 O255 2.240 . S
Cd254 O262 2.223 . S
Cd254 O264 2.297 . S
Cd254 O265 2.439 . S
O255 Cd254 2.240 . S
O255 C260 1.279 . S
O256 Cd253 2.297 . S
O256 C258 1.247 . S
O257 Cd253 2.439 . S
O257 C258 1.208 . S
C258 O256 1.247 . S
C258 O257 1.208 . S
C259 O264 1.247 . S
C259 O265 1.208 . S
C260 O252 1.315 . S
C260 O255 1.279 . S
C261 O262 1.315 . S
C261 O263 1.279 . S
O262 Cd254 2.223 . S
O262 C261 1.315 . S
O263 Cd253 2.240 . S
O263 C261 1.279 . S
O264 Cd254 2.297 . S
O264 C259 1.247 . S
O265 Cd254 2.439 . S
O265 C259 1.208 . S
O266 Cd267 2.223 . S
O266 C274 1.315 . S
Cd267 O266 2.223 . S
Cd267 O270 2.297 . S
Cd267 O271 2.439 . S
Cd267 O277 2.240 . S
Cd268 O269 2.240 . S
Cd268 O276 2.223 . S
Cd268 O278 2.297 . S
Cd268 O279 2.439 . S
O269 Cd268 2.240 . S
O269 C274 1.279 . S
O270 Cd267 2.297 . S
O270 C272 1.247 . S
O271 Cd267 2.439 . S
O271 C272 1.208 . S
C272 O270 1.247 . S
C272 O271 1.208 . S
C273 O278 1.247 . S
C273 O279 1.208 . S
C274 O266 1.315 . S
C274 O269 1.279 . S
C275 O276 1.315 . S
C275 O277 1.279 . S
O276 Cd268 2.223 . S
O276 C275 1.315 . S
O277 Cd267 2.240 . S
O277 C275 1.279 . S
O278 Cd268 2.297 . S
O278 C273 1.247 . S
O279 Cd268 2.439 . S
O279 C273 1.208 . S
O280 Cd281 2.223 . S
O280 C288 1.315 . S
Cd281 O280 2.223 . S
Cd281 O284 2.297 . S
Cd281 O285 2.439 . S
Cd281 O291 2.240 . S
Cd282 O283 2.240 . S
Cd282 O290 2.223 . S
Cd282 O292 2.297 . S
Cd282 O293 2.439 . S
O283 Cd282 2.240 . S
O283 C288 1.279 . S
O284 Cd281 2.297 . S
O284 C286 1.247 . S
O285 Cd281 2.439 . S
O285 C286 1.208 . S
C286 O284 1.247 . S
C286 O285 1.208 . S
C287 O292 1.247 . S
C287 O293 1.208 . S
C288 O280 1.315 . S
C288 O283 1.279 . S
C289 O290 1.315 . S
C289 O291 1.279 . S
O290 Cd282 2.223 . S
O290 C289 1.315 . S
O291 Cd281 2.240 . S
O291 C289 1.279 . S
O292 Cd282 2.297 . S
O292 C287 1.247 . S
O293 Cd282 2.439 . S
O293 C287 1.208 . S
O294 Cd295 2.223 . S
O294 C302 1.315 . S
Cd295 O294 2.223 . S
Cd295 O298 2.297 . S
Cd295 O299 2.439 . S
Cd295 O305 2.240 . S
Cd296 O297 2.240 . S
Cd296 O304 2.223 . S
Cd296 O306 2.297 . S
Cd296 O307 2.439 . S
O297 Cd296 2.240 . S
O297 C302 1.279 . S
O298 Cd295 2.297 . S
O298 C300 1.247 . S
O299 Cd295 2.439 . S
O299 C300 1.208 . S
C300 O298 1.247 . S
C300 O299 1.208 . S
C301 O306 1.247 . S
C301 O307 1.208 . S
C302 O294 1.315 . S
C302 O297 1.279 . S
C303 O304 1.315 . S
C303 O305 1.279 . S
O304 Cd296 2.223 . S
O304 C303 1.315 . S
O305 Cd295 2.240 . S
O305 C303 1.279 . S
O306 Cd296 2.297 . S
O306 C301 1.247 . S
O307 Cd296 2.439 . S
O307 C301 1.208 . S
O308 Cd309 2.223 . S
O308 C316 1.315 . S
Cd309 O308 2.223 . S
Cd309 O312 2.297 . S
Cd309 O313 2.439 . S
Cd309 O319 2.240 . S
Cd310 O311 2.240 . S
Cd310 O318 2.223 . S
Cd310 O320 2.297 . S
Cd310 O321 2.439 . S
O311 Cd310 2.240 . S
O311 C316 1.279 . S
O312 Cd309 2.297 . S
O312 C314 1.247 . S
O313 Cd309 2.439 . S
O313 C314 1.208 . S
C314 O312 1.247 . S
C314 O313 1.208 . S
C315 O320 1.247 . S
C315 O321 1.208 . S
C316 O308 1.315 . S
C316 O311 1.279 . S
C317 O318 1.315 . S
C317 O319 1.279 . S
O318 Cd310 2.223 . S
O318 C317 1.315 . S
O319 Cd309 2.240 . S
O319 C317 1.279 . S
O320 Cd310 2.297 . S
O320 C315 1.247 . S
O321 Cd310 2.439 . S
O321 C315 1.208 . S
O322 Cd323 2.223 . S
O322 C330 1.315 . S
Cd323 O322 2.223 . S
Cd323 O326 2.297 . S
Cd323 O327 2.439 . S
Cd323 O333 2.240 . S
Cd324 O325 2.240 . S
Cd324 O332 2.223 . S
Cd324 O334 2.297 . S
Cd324 O335 2.439 . S
O325 Cd324 2.240 . S
O325 C330 1.279 . S
O326 Cd323 2.297 . S
O326 C328 1.247 . S
O327 Cd323 2.439 . S
O327 C328 1.208 . S
C328 O326 1.247 . S
C328 O327 1.208 . S
C329 O334 1.247 . S
C329 O335 1.208 . S
C330 O322 1.315 . S
C330 O325 1.279 . S
C331 O332 1.315 . S
C331 O333 1.279 . S
O332 Cd324 2.223 . S
O332 C331 1.315 . S
O333 Cd323 2.240 . S
O333 C331 1.279 . S
O334 Cd324 2.297 . S
O334 C329 1.247 . S
O335 Cd324 2.439 . S
O335 C329 1.208 . S
O336 Cd337 2.223 . S
O336 C344 1.315 . S
Cd337 O336 2.223 . S
Cd337 O340 2.297 . S
Cd337 O341 2.439 . S
Cd337 O347 2.240 . S
Cd338 O339 2.240 . S
Cd338 O346 2.223 . S
Cd338 O348 2.297 . S
Cd338 O349 2.439 . S
O339 Cd338 2.240 . S
O339 C344 1.279 . S
O340 Cd337 2.297 . S
O340 C342 1.247 . S
O341 Cd337 2.439 . S
O341 C342 1.208 . S
C342 O340 1.247 . S
C342 O341 1.208 . S
C343 O348 1.247 . S
C343 O349 1.208 . S
C344 O336 1.315 . S
C344 O339 1.279 . S
C345 O346 1.315 . S
C345 O347 1.279 . S
O346 Cd338 2.223 . S
O346 C345 1.315 . S
O347 Cd337 2.240 . S
O347 C345 1.279 . S
O348 Cd338 2.297 . S
O348 C343 1.247 . S
O349 Cd338 2.439 . S
O349 C343 1.208 . S
O350 Cd351 2.223 . S
O350 C358 1.315 . S
Cd351 O350 2.223 . S
Cd351 O354 2.297 . S
Cd351 O355 2.439 . S
Cd351 O361 2.240 . S
Cd352 O353 2.240 . S
Cd352 O360 2.223 . S
Cd352 O362 2.297 . S
Cd352 O363 2.439 . S
O353 Cd352 2.240 . S
O353 C358 1.279 . S
O354 Cd351 2.297 . S
O354 C356 1.247 . S
O355 Cd351 2.439 . S
O355 C356 1.208 . S
C356 O354 1.247 . S
C356 O355 1.208 . S
C357 O362 1.247 . S
C357 O363 1.208 . S
C358 O350 1.315 . S
C358 O353 1.279 . S
C359 O360 1.315 . S
C359 O361 1.279 . S
O360 Cd352 2.223 . S
O360 C359 1.315 . S
O361 Cd351 2.240 . S
O361 C359 1.279 . S
O362 Cd352 2.297 . S
O362 C357 1.247 . S
O363 Cd352 2.439 . S
O363 C357 1.208 . S
O364 Cd365 2.223 . S
O364 C372 1.315 . S
Cd365 O364 2.223 . S
Cd365 O368 2.297 . S
Cd365 O369 2.439 . S
Cd365 O375 2.240 . S
Cd366 O367 2.240 . S
Cd366 O374 2.223 . S
Cd366 O376 2.297 . S
Cd366 O377 2.439 . S
O367 Cd366 2.240 . S
O367 C372 1.279 . S
O368 Cd365 2.297 . S
O368 C370 1.247 . S
O369 Cd365 2.439 . S
O369 C370 1.208 . S
C370 O368 1.247 . S
C370 O369 1.208 . S
C371 O376 1.247 . S
C371 O377 1.208 . S
C372 O364 1.315 . S
C372 O367 1.279 . S
C373 O374 1.315 . S
C373 O375 1.279 . S
O374 Cd366 2.223 . S
O374 C373 1.315 . S
O375 Cd365 2.240 . S
O375 C373 1.279 . S
O376 Cd366 2.297 . S
O376 C371 1.247 . S
O377 Cd366 2.439 . S
O377 C371 1.208 . S
O378 Cd379 2.223 . S
O378 C386 1.315 . S
Cd379 O378 2.223 . S
Cd379 O382 2.297 . S
Cd379 O383 2.439 . S
Cd379 O389 2.240 . S
Cd380 O381 2.240 . S
Cd380 O388 2.223 . S
Cd380 O390 2.297 . S
Cd380 O391 2.439 . S
O381 Cd380 2.240 . S
O381 C386 1.279 . S
O382 Cd379 2.297 . S
O382 C384 1.247 . S
O383 Cd379 2.439 . S
O383 C384 1.208 . S
C384 O382 1.247 . S
C384 O383 1.208 . S
C385 O390 1.247 . S
C385 O391 1.208 . S
C386 O378 1.315 . S
C386 O381 1.279 . S
C387 O388 1.315 . S
C387 O389 1.279 . S
O388 Cd380 2.223 . S
O388 C387 1.315 . S
O389 Cd379 2.240 . S
O389 C387 1.279 . S
O390 Cd380 2.297 . S
O390 C385 1.247 . S
O391 Cd380 2.439 . S
O391 C385 1.208 . S
O392 Cd393 2.223 . S
O392 C400 1.315 . S
Cd393 O392 2.223 . S
Cd393 O396 2.297 . S
Cd393 O397 2.439 . S
Cd393 O403 2.240 . S
Cd394 O395 2.240 . S
Cd394 O402 2.223 . S
Cd394 O404 2.297 . S
Cd394 O405 2.439 . S
O395 Cd394 2.240 . S
O395 C400 1.279 . S
O396 Cd393 2.297 . S
O396 C398 1.247 . S
O397 Cd393 2.439 . S
O397 C398 1.208 . S
C398 O396 1.247 . S
C398 O397 1.208 . S
C399 O404 1.247 . S
C399 O405 1.208 . S
C400 O392 1.315 . S
C400 O395 1.279 . S
C401 O402 1.315 . S
C401 O403 1.279 . S
O402 Cd394 2.223 . S
O402 C401 1.315 . S
O403 Cd393 2.240 . S
O403 C401 1.279 . S
O404 Cd394 2.297 . S
O404 C399 1.247 . S
O405 Cd394 2.439 . S
O405 C399 1.208 . S
O406 Cd407 2.223 . S
O406 C414 1.315 . S
Cd407 O406 2.223 . S
Cd407 O410 2.297 . S
Cd407 O411 2.439 . S
Cd407 O417 2.240 . S
Cd408 O409 2.240 . S
Cd408 O416 2.223 . S
Cd408 O418 2.297 . S
Cd408 O419 2.439 . S
O409 Cd408 2.240 . S
O409 C414 1.279 . S
O410 Cd407 2.297 . S
O410 C412 1.247 . S
O411 Cd407 2.439 . S
O411 C412 1.208 . S
C412 O410 1.247 . S
C412 O411 1.208 . S
C413 O418 1.247 . S
C413 O419 1.208 . S
C414 O406 1.315 . S
C414 O409 1.279 . S
C415 O416 1.315 . S
C415 O417 1.279 . S
O416 Cd408 2.223 . S
O416 C415 1.315 . S
O417 Cd407 2.240 . S
O417 C415 1.279 . S
O418 Cd408 2.297 . S
O418 C413 1.247 . S
O419 Cd408 2.439 . S
O419 C413 1.208 . S
O420 Cd421 2.223 . S
O420 C428 1.315 . S
Cd421 O420 2.223 . S
Cd421 O424 2.297 . S
Cd421 O425 2.439 . S
Cd421 O431 2.240 . S
Cd422 O423 2.240 . S
Cd422 O430 2.223 . S
Cd422 O432 2.297 . S
Cd422 O433 2.439 . S
O423 Cd422 2.240 . S
O423 C428 1.279 . S
O424 Cd421 2.297 . S
O424 C426 1.247 . S
O425 Cd421 2.439 . S
O425 C426 1.208 . S
C426 O424 1.247 . S
C426 O425 1.208 . S
C427 O432 1.247 . S
C427 O433 1.208 . S
C428 O420 1.315 . S
C428 O423 1.279 . S
C429 O430 1.315 . S
C429 O431 1.279 . S
O430 Cd422 2.223 . S
O430 C429 1.315 . S
O431 Cd421 2.240 . S
O431 C429 1.279 . S
O432 Cd422 2.297 . S
O432 C427 1.247 . S
O433 Cd422 2.439 . S
O433 C427 1.208 . S
O434 Cd435 2.223 . S
O434 C442 1.315 . S
Cd435 O434 2.223 . S
Cd435 O438 2.297 . S
Cd435 O439 2.439 . S
Cd435 O445 2.240 . S
Cd436 O437 2.240 . S
Cd436 O444 2.223 . S
Cd436 O446 2.297 . S
Cd436 O447 2.439 . S
O437 Cd436 2.240 . S
O437 C442 1.279 . S
O438 Cd435 2.297 . S
O438 C440 1.247 . S
O439 Cd435 2.439 . S
O439 C440 1.208 . S
C440 O438 1.247 . S
C440 O439 1.208 . S
C441 O446 1.247 . S
C441 O447 1.208 . S
C442 O434 1.315 . S
C442 O437 1.279 . S
C443 O444 1.315 . S
C443 O445 1.279 . S
O444 Cd436 2.223 . S
O444 C443 1.315 . S
O445 Cd435 2.240 . S
O445 C443 1.279 . S
O446 Cd436 2.297 . S
O446 C441 1.247 . S
O447 Cd436 2.439 . S
O447 C441 1.208 . S
C448 C449 1.391 . S
C448 C450 1.394 . S
C448 H464 0.931 . S
C449 C448 1.391 . S
C449 C453 1.376 . S
C450 C448 1.394 . S
C450 C451 1.369 . S
C450 C454 1.531 . S
C451 C450 1.369 . S
C451 C452 1.410 . S
C451 C459 1.503 . S
C452 C451 1.410 . S
C452 C453 1.392 . S
C452 C455 1.511 . S
C453 C449 1.376 . S
C453 C452 1.392 . S
C453 H465 0.929 . S
C454 C450 1.531 . S
C454 H466 0.960 . S
C454 H467 0.962 . S
C454 H468 0.960 . S
C455 C452 1.511 . S
C455 H469 0.961 . S
C455 H470 0.961 . S
C455 H471 0.961 . S
C456 C457 1.370 . S
C456 C458 1.363 . S
C456 H472 0.931 . S
C457 C456 1.370 . S
C457 C461 1.408 . S
C458 C456 1.363 . S
C458 C459 1.370 . S
C458 C462 1.524 . S
C459 C451 1.503 . S
C459 C458 1.370 . S
C459 C460 1.403 . S
C460 C459 1.403 . S
C460 C461 1.404 . S
C460 C463 1.539 . S
C461 C457 1.408 . S
C461 C460 1.404 . S
C461 H473 0.930 . S
C462 C458 1.524 . S
C462 H474 0.956 . S
C462 H475 0.961 . S
C462 H476 0.961 . S
C463 C460 1.539 . S
C463 H477 0.958 . S
C463 H478 0.961 . S
C463 H479 0.960 . S
H464 C448 0.931 . S
H465 C453 0.929 . S
H466 C454 0.960 . S
H467 C454 0.962 . S
H468 C454 0.960 . S
H469 C455 0.961 . S
H470 C455 0.961 . S
H471 C455 0.961 . S
H472 C456 0.931 . S
H473 C461 0.930 . S
H474 C462 0.956 . S
H475 C462 0.961 . S
H476 C462 0.961 . S
H477 C463 0.958 . S
H478 C463 0.961 . S
H479 C463 0.960 . S
C480 C481 1.391 . S
C480 C482 1.394 . S
C480 H496 0.931 . S
C481 C480 1.391 . S
C481 C485 1.376 . S
C482 C480 1.394 . S
C482 C483 1.369 . S
C482 C486 1.566 . S
C483 C482 1.369 . S
C483 C484 1.410 . S
C483 C491 1.503 1_565 S
C484 C483 1.410 . S
C484 C485 1.392 . S
C484 C487 1.511 . S
C485 C481 1.376 . S
C485 C484 1.392 . S
C485 H497 0.929 . S
C486 C482 1.566 . S
C486 H498 0.928 1_565 S
C486 H499 0.939 1_565 S
C486 H500 0.984 . S
C487 C484 1.511 . S
C487 H501 0.961 . S
C487 H502 0.961 . S
C487 H503 0.961 . S
C488 C489 1.370 . S
C488 C490 1.363 . S
C488 H504 0.931 . S
C489 C488 1.370 . S
C489 C493 1.408 . S
C490 C488 1.363 . S
C490 C491 1.370 . S
C490 C494 1.524 . S
C491 C483 1.503 1_545 S
C491 C490 1.370 . S
C491 C492 1.403 . S
C492 C491 1.403 . S
C492 C493 1.404 . S
C492 C495 1.539 . S
C493 C489 1.408 . S
C493 C492 1.404 . S
C493 H505 0.930 . S
C494 C490 1.524 . S
C494 H506 0.956 . S
C494 H507 0.961 . S
C494 H508 0.961 . S
C495 C492 1.539 . S
C495 H509 0.958 . S
C495 H510 0.961 . S
C495 H511 0.960 1_545 S
H496 C480 0.931 . S
H497 C485 0.929 . S
H498 C486 0.928 1_545 S
H499 C486 0.939 1_545 S
H500 C486 0.984 . S
H501 C487 0.961 . S
H502 C487 0.961 . S
H503 C487 0.961 . S
H504 C488 0.931 . S
H505 C493 0.930 . S
H506 C494 0.956 . S
H507 C494 0.961 . S
H508 C494 0.961 . S
H509 C495 0.958 . S
H510 C495 0.961 . S
H511 C495 0.960 1_565 S
C512 C513 1.391 . S
C512 C514 1.394 . S
C512 H528 0.931 . S
C513 C512 1.391 . S
C513 C517 1.376 . S
C514 C512 1.394 . S
C514 C515 1.369 . S
C514 C518 1.531 . S
C515 C514 1.369 . S
C515 C516 1.410 . S
C515 C523 1.503 . S
C516 C515 1.410 . S
C516 C517 1.392 . S
C516 C519 1.511 . S
C517 C513 1.376 . S
C517 C516 1.392 . S
C517 H529 0.929 . S
C518 C514 1.531 . S
C518 H530 0.960 . S
C518 H531 0.962 . S
C518 H532 0.960 . S
C519 C516 1.511 . S
C519 H533 0.961 . S
C519 H534 0.961 . S
C519 H535 0.961 . S
C520 C521 1.370 . S
C520 C522 1.363 . S
C520 H536 0.931 . S
C521 C520 1.370 . S
C521 C525 1.408 . S
C522 C520 1.363 . S
C522 C523 1.370 . S
C522 C526 1.524 . S
C523 C515 1.503 . S
C523 C522 1.370 . S
C523 C524 1.403 . S
C524 C523 1.403 . S
C524 C525 1.404 . S
C524 C527 1.539 . S
C525 C521 1.408 . S
C525 C524 1.404 . S
C525 H537 0.930 . S
C526 C522 1.524 . S
C526 H538 0.956 . S
C526 H539 0.961 . S
C526 H540 0.961 . S
C527 C524 1.539 . S
C527 H541 0.958 . S
C527 H542 0.961 . S
C527 H543 0.960 . S
H528 C512 0.931 . S
H529 C517 0.929 . S
H530 C518 0.960 . S
H531 C518 0.962 . S
H532 C518 0.960 . S
H533 C519 0.961 . S
H534 C519 0.961 . S
H535 C519 0.961 . S
H536 C520 0.931 . S
H537 C525 0.930 . S
H538 C526 0.956 . S
H539 C526 0.961 . S
H540 C526 0.961 . S
H541 C527 0.958 . S
H542 C527 0.961 . S
H543 C527 0.960 . S
C544 C545 1.391 . S
C544 C546 1.394 1_556 S
C544 H560 0.931 . S
C545 C544 1.391 . S
C545 C549 1.376 . S
C546 C544 1.394 1_554 S
C546 C547 1.369 . S
C546 C550 1.531 . S
C547 C546 1.369 . S
C547 C548 1.410 1_554 S
C547 C555 1.503 1_545 S
C548 C547 1.410 1_556 S
C548 C549 1.392 . S
C548 C551 1.511 . S
C549 C545 1.376 . S
C549 C548 1.392 . S
C549 H561 0.929 . S
C550 C546 1.531 . S
C550 H562 0.960 . S
C550 H563 0.962 . S
C550 H564 0.960 . S
C551 C548 1.511 . S
C551 H565 0.961 . S
C551 H566 0.961 1_545 S
C551 H567 0.961 . S
C552 C553 1.370 1_556 S
C552 C554 1.363 . S
C552 H568 0.931 . S
C553 C552 1.370 1_554 S
C553 C557 1.408 . S
C554 C552 1.363 . S
C554 C555 1.370 1_556 S
C554 C558 1.524 . S
C555 C547 1.503 1_565 S
C555 C554 1.370 1_554 S
C555 C556 1.403 . S
C556 C555 1.403 . S
C556 C557 1.404 . S
C556 C559 1.520 1_565 S
C557 C553 1.408 . S
C557 C556 1.404 . S
C557 H569 0.930 . S
C558 C554 1.524 . S
C558 H570 0.956 . S
C558 H571 0.961 . S
C558 H572 0.961 . S
C559 C556 1.520 1_545 S
C559 H573 0.969 . S
C559 H574 0.949 1_545 S
C559 H575 0.981 . S
H560 C544 0.931 . S
H561 C549 0.929 . S
H562 C550 0.960 . S
H563 C550 0.962 . S
H564 C550 0.960 . S
H565 C551 0.961 . S
H566 C551 0.961 1_565 S
H567 C551 0.961 . S
H568 C552 0.931 . S
H569 C557 0.930 . S
H570 C558 0.956 . S
H571 C558 0.961 . S
H572 C558 0.961 . S
H573 C559 0.969 . S
H574 C559 0.949 1_565 S
H575 C559 0.981 . S
C576 C577 1.391 . S
C576 C578 1.394 . S
C576 H592 0.931 . S
C577 C576 1.391 . S
C577 C581 1.376 . S
C578 C576 1.394 . S
C578 C579 1.369 . S
C578 C582 1.531 . S
C579 C578 1.369 . S
C579 C580 1.410 . S
C579 C587 1.503 . S
C580 C579 1.410 . S
C580 C581 1.392 . S
C580 C583 1.511 . S
C581 C577 1.376 . S
C581 C580 1.392 . S
C581 H593 0.929 . S
C582 C578 1.531 . S
C582 H594 0.960 . S
C582 H595 0.962 . S
C582 H596 0.960 . S
C583 C580 1.511 . S
C583 H597 0.961 . S
C583 H598 0.961 . S
C583 H599 0.961 . S
C584 C585 1.370 . S
C584 C586 1.363 . S
C584 H600 0.931 . S
C585 C584 1.370 . S
C585 C589 1.408 . S
C586 C584 1.363 . S
C586 C587 1.370 . S
C586 C590 1.524 . S
C587 C579 1.503 . S
C587 C586 1.370 . S
C587 C588 1.403 . S
C588 C587 1.403 . S
C588 C589 1.404 . S
C588 C591 1.539 . S
C589 C585 1.408 . S
C589 C588 1.404 . S
C589 H601 0.930 . S
C590 C586 1.524 . S
C590 H602 0.956 . S
C590 H603 0.961 . S
C590 H604 0.961 . S
C591 C588 1.539 . S
C591 H605 0.958 . S
C591 H606 0.961 . S
C591 H607 0.960 . S
H592 C576 0.931 . S
H593 C581 0.929 . S
H594 C582 0.960 . S
H595 C582 0.962 . S
H596 C582 0.960 . S
H597 C583 0.961 . S
H598 C583 0.961 . S
H599 C583 0.961 . S
H600 C584 0.931 . S
H601 C589 0.930 . S
H602 C590 0.956 . S
H603 C590 0.961 . S
H604 C590 0.961 . S
H605 C591 0.958 . S
H606 C591 0.961 . S
H607 C591 0.960 . S
C608 C609 1.391 . S
C608 C610 1.394 . S
C608 H624 0.931 . S
C609 C608 1.391 . S
C609 C613 1.376 . S
C610 C608 1.394 . S
C610 C611 1.369 . S
C610 C614 1.531 . S
C611 C610 1.369 . S
C611 C612 1.410 . S
C611 C619 1.503 1_565 S
C612 C611 1.410 . S
C612 C613 1.392 . S
C612 C615 1.511 . S
C613 C609 1.376 . S
C613 C612 1.392 . S
C613 H625 0.929 . S
C614 C610 1.531 . S
C614 H626 0.992 . S
C614 H627 0.962 . S
C614 H628 0.960 . S
C615 C612 1.511 . S
C615 H629 0.961 . S
C615 H630 0.931 1_565 S
C615 H631 0.961 . S
C616 C617 1.370 . S
C616 C618 1.363 . S
C616 H632 0.931 . S
C617 C616 1.370 . S
C617 C621 1.408 . S
C618 C616 1.363 . S
C618 C619 1.370 . S
C618 C622 1.524 . S
C619 C611 1.503 1_545 S
C619 C618 1.370 . S
C619 C620 1.403 . S
C620 C619 1.403 . S
C620 C621 1.404 . S
C620 C623 1.539 1_545 S
C621 C617 1.408 . S
C621 C620 1.404 . S
C621 H633 0.930 . S
C622 C618 1.524 . S
C622 H634 0.956 . S
C622 H635 0.961 . S
C622 H636 0.961 . S
C623 C620 1.539 1_565 S
C623 H637 0.958 . S
C623 H638 0.961 1_565 S
C623 H639 0.960 . S
H624 C608 0.931 . S
H625 C613 0.929 . S
H626 C614 0.992 . S
H627 C614 0.962 . S
H628 C614 0.960 . S
H629 C615 0.961 . S
H630 C615 0.931 1_545 S
H631 C615 0.961 . S
H632 C616 0.931 . S
H633 C621 0.930 . S
H634 C622 0.956 . S
H635 C622 0.961 . S
H636 C622 0.961 . S
H637 C623 0.958 . S
H638 C623 0.961 1_545 S
H639 C623 0.960 . S
C640 C641 1.391 . S
C640 C642 1.394 . S
C640 H656 0.931 . S
C641 C640 1.391 . S
C641 C645 1.376 . S
C642 C640 1.394 . S
C642 C643 1.369 . S
C642 C646 1.531 . S
C643 C642 1.369 . S
C643 C644 1.410 . S
C643 C651 1.503 . S
C644 C643 1.410 . S
C644 C645 1.392 . S
C644 C647 1.511 . S
C645 C641 1.376 . S
C645 C644 1.392 . S
C645 H657 0.929 . S
C646 C642 1.531 . S
C646 H658 0.960 . S
C646 H659 0.962 . S
C646 H660 0.960 . S
C647 C644 1.511 . S
C647 H661 0.961 . S
C647 H662 0.961 . S
C647 H663 0.961 . S
C648 C649 1.370 . S
C648 C650 1.363 . S
C648 H664 0.931 . S
C649 C648 1.370 . S
C649 C653 1.408 . S
C650 C648 1.363 . S
C650 C651 1.370 . S
C650 C654 1.524 . S
C651 C643 1.503 . S
C651 C650 1.370 . S
C651 C652 1.403 . S
C652 C651 1.403 . S
C652 C653 1.404 . S
C652 C655 1.539 . S
C653 C649 1.408 . S
C653 C652 1.404 . S
C653 H665 0.930 . S
C654 C650 1.524 . S
C654 H666 0.956 . S
C654 H667 0.961 . S
C654 H668 0.961 . S
C655 C652 1.539 . S
C655 H669 0.958 . S
C655 H670 0.961 . S
C655 H671 0.960 . S
H656 C640 0.931 . S
H657 C645 0.929 . S
H658 C646 0.960 . S
H659 C646 0.962 . S
H660 C646 0.960 . S
H661 C647 0.961 . S
H662 C647 0.961 . S
H663 C647 0.961 . S
H664 C648 0.931 . S
H665 C653 0.930 . S
H666 C654 0.956 . S
H667 C654 0.961 . S
H668 C654 0.961 . S
H669 C655 0.958 . S
H670 C655 0.961 . S
H671 C655 0.960 . S
C672 C673 1.391 . S
C672 C674 1.394 . S
C672 H688 0.931 . S
C673 C672 1.391 . S
C673 C677 1.376 . S
C674 C672 1.394 . S
C674 C675 1.369 1_556 S
C674 C678 1.531 1_556 S
C675 C674 1.369 1_554 S
C675 C676 1.410 1_554 S
C675 C683 1.503 1_545 S
C676 C675 1.410 1_556 S
C676 C677 1.392 . S
C676 C679 1.511 . S
C677 C673 1.376 . S
C677 C676 1.392 . S
C677 H689 0.929 . S
C678 C674 1.531 1_554 S
C678 H690 0.960 . S
C678 H691 0.962 1_554 S
C678 H692 0.960 . S
C679 C676 1.511 . S
C679 H693 0.961 . S
C679 H694 0.961 1_545 S
C679 H695 0.961 1_556 S
C680 C681 1.370 1_556 S
C680 C682 1.363 . S
C680 H696 0.931 . S
C681 C680 1.370 1_554 S
C681 C685 1.408 . S
C682 C680 1.363 . S
C682 C683 1.370 1_556 S
C682 C686 1.524 . S
C683 C675 1.503 1_565 S
C683 C682 1.370 1_554 S
C683 C684 1.403 . S
C684 C683 1.403 . S
C684 C685 1.404 . S
C684 C687 1.539 1_565 S
C685 C681 1.408 . S
C685 C684 1.404 . S
C685 H697 0.930 . S
C686 C682 1.524 . S
C686 H698 0.956 . S
C686 H699 0.961 . S
C686 H700 0.961 . S
C687 C684 1.539 1_545 S
C687 H701 0.958 . S
C687 H702 0.961 1_545 S
C687 H703 0.960 . S
H688 C672 0.931 . S
H689 C677 0.929 . S
H690 C678 0.960 . S
H691 C678 0.962 1_556 S
H692 C678 0.960 . S
H693 C679 0.961 . S
H694 C679 0.961 1_565 S
H695 C679 0.961 1_554 S
H696 C680 0.931 . S
H697 C685 0.930 . S
H698 C686 0.956 . S
H699 C686 0.961 . S
H700 C686 0.961 . S
H701 C687 0.958 . S
H702 C687 0.961 1_565 S
H703 C687 0.960 . S
C704 C705 1.391 . S
C704 C706 1.394 . S
C704 H720 0.931 . S
C705 C704 1.391 . S
C705 C709 1.376 . S
C706 C704 1.394 . S
C706 C707 1.369 . S
C706 C710 1.531 . S
C707 C706 1.369 . S
C707 C708 1.410 . S
C707 C715 1.503 . S
C708 C707 1.410 . S
C708 C709 1.392 . S
C708 C711 1.511 . S
C709 C705 1.376 . S
C709 C708 1.392 . S
C709 H721 0.929 . S
C710 C706 1.531 . S
C710 H722 0.960 . S
C710 H723 0.962 . S
C710 H724 0.960 . S
C711 C708 1.511 . S
C711 H725 0.961 . S
C711 H726 0.961 . S
C711 H727 0.961 . S
C712 C713 1.370 . S
C712 C714 1.363 . S
C712 H728 0.931 . S
C713 C712 1.370 . S
C713 C717 1.408 . S
C714 C712 1.363 . S
C714 C715 1.370 . S
C714 C718 1.524 . S
C715 C707 1.503 . S
C715 C714 1.370 . S
C715 C716 1.403 . S
C716 C715 1.403 . S
C716 C717 1.404 . S
C716 C719 1.539 . S
C717 C713 1.408 . S
C717 C716 1.404 . S
C717 H729 0.930 . S
C718 C714 1.524 . S
C718 H730 0.956 . S
C718 H731 0.961 . S
C718 H732 0.961 . S
C719 C716 1.539 . S
C719 H733 0.958 . S
C719 H734 0.961 . S
C719 H735 0.960 . S
H720 C704 0.931 . S
H721 C709 0.929 . S
H722 C710 0.960 . S
H723 C710 0.962 . S
H724 C710 0.960 . S
H725 C711 0.961 . S
H726 C711 0.961 . S
H727 C711 0.961 . S
H728 C712 0.931 . S
H729 C717 0.930 . S
H730 C718 0.956 . S
H731 C718 0.961 . S
H732 C718 0.961 . S
H733 C719 0.958 . S
H734 C719 0.961 . S
H735 C719 0.960 . S
C736 C737 1.391 . S
C736 C738 1.394 1_556 S
C736 H752 0.928 1_556 S
C737 C736 1.391 . S
C737 C741 1.376 . S
C738 C736 1.394 1_554 S
C738 C739 1.371 . S
C738 C742 1.531 . S
C739 C738 1.371 . S
C739 C740 1.404 1_554 S
C739 C747 1.506 . S
C740 C739 1.404 1_556 S
C740 C741 1.392 . S
C740 C743 1.511 . S
C741 C737 1.376 . S
C741 C740 1.392 . S
C741 H753 0.929 . S
C742 C738 1.531 . S
C742 H754 0.960 . S
C742 H755 0.962 . S
C742 H756 0.960 . S
C743 C740 1.511 . S
C743 H757 0.961 . S
C743 H758 0.961 . S
C743 H759 0.961 . S
C744 C745 1.370 . S
C744 C746 1.363 1_554 S
C744 H760 0.931 1_554 S
C745 C744 1.370 . S
C745 C749 1.408 . S
C746 C744 1.363 1_556 S
C746 C747 1.370 1_556 S
C746 C750 1.524 . S
C747 C739 1.506 . S
C747 C746 1.370 1_554 S
C747 C748 1.403 . S
C748 C747 1.403 . S
C748 C749 1.404 . S
C748 C751 1.539 . S
C749 C745 1.408 . S
C749 C748 1.404 . S
C749 H761 0.930 . S
C750 C746 1.524 . S
C750 H762 0.956 . S
C750 H763 0.961 . S
C750 H764 0.961 . S
C751 C748 1.539 . S
C751 H765 0.958 . S
C751 H766 0.961 . S
C751 H767 0.960 . S
H752 C736 0.928 1_554 S
H753 C741 0.929 . S
H754 C742 0.960 . S
H755 C742 0.962 . S
H756 C742 0.960 . S
H757 C743 0.961 . S
H758 C743 0.961 . S
H759 C743 0.961 . S
H760 C744 0.931 1_556 S
H761 C749 0.930 . S
H762 C750 0.956 . S
H763 C750 0.961 . S
H764 C750 0.961 . S
H765 C751 0.958 . S
H766 C751 0.961 . S
H767 C751 0.960 . S
C768 C769 1.391 . S
C768 C770 1.394 . S
C768 H784 0.931 . S
C769 C768 1.391 . S
C769 C773 1.376 . S
C770 C768 1.394 . S
C770 C771 1.369 . S
C770 C774 1.531 . S
C771 C770 1.369 . S
C771 C772 1.410 . S
C771 C779 1.503 . S
C772 C771 1.410 . S
C772 C773 1.392 . S
C772 C775 1.511 . S
C773 C769 1.376 . S
C773 C772 1.392 . S
C773 H785 0.929 . S
C774 C770 1.531 . S
C774 H786 0.960 . S
C774 H787 0.962 . S
C774 H788 0.960 . S
C775 C772 1.511 . S
C775 H789 0.961 . S
C775 H790 0.961 . S
C775 H791 0.961 . S
C776 C777 1.370 . S
C776 C778 1.363 . S
C776 H792 0.931 . S
C777 C776 1.370 . S
C777 C781 1.408 . S
C778 C776 1.363 . S
C778 C779 1.370 . S
C778 C782 1.524 . S
C779 C771 1.503 . S
C779 C778 1.370 . S
C779 C780 1.403 . S
C780 C779 1.403 . S
C780 C781 1.404 . S
C780 C783 1.539 . S
C781 C777 1.408 . S
C781 C780 1.404 . S
C781 H793 0.930 . S
C782 C778 1.524 . S
C782 H794 0.956 . S
C782 H795 0.961 . S
C782 H796 0.961 . S
C783 C780 1.539 . S
C783 H797 0.958 . S
C783 H798 0.961 . S
C783 H799 0.960 . S
H784 C768 0.931 . S
H785 C773 0.929 . S
H786 C774 0.960 . S
H787 C774 0.962 . S
H788 C774 0.960 . S
H789 C775 0.961 . S
H790 C775 0.961 . S
H791 C775 0.961 . S
H792 C776 0.931 . S
H793 C781 0.930 . S
H794 C782 0.956 . S
H795 C782 0.961 . S
H796 C782 0.961 . S
H797 C783 0.958 . S
H798 C783 0.961 . S
H799 C783 0.960 . S
C800 C801 1.391 . S
C800 C802 1.394 . S
C800 H816 0.931 . S
C801 C800 1.391 . S
C801 C805 1.376 . S
C802 C800 1.394 . S
C802 C803 1.369 . S
C802 C806 1.531 . S
C803 C802 1.369 . S
C803 C804 1.410 . S
C803 C811 1.503 . S
C804 C803 1.410 . S
C804 C805 1.392 . S
C804 C807 1.511 . S
C805 C801 1.376 . S
C805 C804 1.392 . S
C805 H817 0.929 . S
C806 C802 1.531 . S
C806 H818 0.960 . S
C806 H819 0.962 . S
C806 H820 0.960 . S
C807 C804 1.511 . S
C807 H821 0.961 . S
C807 H822 0.961 . S
C807 H823 0.961 . S
C808 C809 1.370 . S
C808 C810 1.363 . S
C808 H824 0.931 . S
C809 C808 1.370 . S
C809 C813 1.408 . S
C810 C808 1.363 . S
C810 C811 1.370 . S
C810 C814 1.524 . S
C811 C803 1.503 . S
C811 C810 1.370 . S
C811 C812 1.403 . S
C812 C811 1.403 . S
C812 C813 1.404 . S
C812 C815 1.539 . S
C813 C809 1.408 . S
C813 C812 1.404 . S
C813 H825 0.930 . S
C814 C810 1.524 . S
C814 H826 0.956 . S
C814 H827 0.961 . S
C814 H828 0.961 . S
C815 C812 1.539 . S
C815 H829 0.958 . S
C815 H830 0.961 . S
C815 H831 0.960 . S
H816 C800 0.931 . S
H817 C805 0.929 . S
H818 C806 0.960 . S
H819 C806 0.962 . S
H820 C806 0.960 . S
H821 C807 0.961 . S
H822 C807 0.961 . S
H823 C807 0.961 . S
H824 C808 0.931 . S
H825 C813 0.930 . S
H826 C814 0.956 . S
H827 C814 0.961 . S
H828 C814 0.961 . S
H829 C815 0.958 . S
H830 C815 0.961 . S
H831 C815 0.960 . S
C832 C833 1.391 . S
C832 C834 1.394 . S
C832 H848 0.931 . S
C833 C832 1.391 . S
C833 C837 1.376 . S
C834 C832 1.394 . S
C834 C835 1.369 . S
C834 C838 1.531 . S
C835 C834 1.369 . S
C835 C836 1.410 . S
C835 C843 1.503 . S
C836 C835 1.410 . S
C836 C837 1.392 . S
C836 C839 1.511 . S
C837 C833 1.376 . S
C837 C836 1.392 . S
C837 H849 0.929 . S
C838 C834 1.531 . S
C838 H850 0.960 . S
C838 H851 0.962 . S
C838 H852 0.960 . S
C839 C836 1.511 . S
C839 H853 0.961 . S
C839 H854 0.961 . S
C839 H855 0.961 . S
C840 C841 1.370 . S
C840 C842 1.363 . S
C840 H856 0.931 . S
C841 C840 1.370 . S
C841 C845 1.408 . S
C842 C840 1.363 . S
C842 C843 1.370 . S
C842 C846 1.524 . S
C843 C835 1.503 . S
C843 C842 1.370 . S
C843 C844 1.403 . S
C844 C843 1.403 . S
C844 C845 1.404 . S
C844 C847 1.539 . S
C845 C841 1.408 . S
C845 C844 1.404 . S
C845 H857 0.930 . S
C846 C842 1.524 . S
C846 H858 0.956 . S
C846 H859 0.961 . S
C846 H860 0.961 . S
C847 C844 1.539 . S
C847 H861 0.958 . S
C847 H862 0.961 . S
C847 H863 0.960 . S
H848 C832 0.931 . S
H849 C837 0.929 . S
H850 C838 0.960 . S
H851 C838 0.962 . S
H852 C838 0.960 . S
H853 C839 0.961 . S
H854 C839 0.961 . S
H855 C839 0.961 . S
H856 C840 0.931 . S
H857 C845 0.930 . S
H858 C846 0.956 . S
H859 C846 0.961 . S
H860 C846 0.961 . S
H861 C847 0.958 . S
H862 C847 0.961 . S
H863 C847 0.960 . S
C864 C865 1.391 . S
C864 C866 1.394 . S
C864 H880 0.931 . S
C865 C864 1.391 . S
C865 C869 1.375 1_554 S
C866 C864 1.394 . S
C866 C867 1.369 . S
C866 C870 1.531 . S
C867 C866 1.369 . S
C867 C868 1.410 1_554 S
C867 C875 1.503 1_554 S
C868 C867 1.410 1_556 S
C868 C869 1.393 . S
C868 C871 1.511 . S
C869 C865 1.375 1_556 S
C869 C868 1.393 . S
C869 H881 0.930 . S
C870 C866 1.531 . S
C870 H882 0.960 . S
C870 H883 0.962 . S
C870 H884 0.960 . S
C871 C868 1.511 . S
C871 H885 0.961 . S
C871 H886 0.961 . S
C871 H887 0.961 . S
C872 C873 1.370 . S
C872 C874 1.363 . S
C872 H888 0.931 . S
C873 C872 1.370 . S
C873 C877 1.408 . S
C874 C872 1.363 . S
C874 C875 1.370 . S
C874 C878 1.524 . S
C875 C867 1.503 1_556 S
C875 C874 1.370 . S
C875 C876 1.403 1_556 S
C876 C875 1.403 1_554 S
C876 C877 1.404 1_554 S
C876 C879 1.539 . S
C877 C873 1.408 . S
C877 C876 1.404 1_556 S
C877 H889 0.930 . S
C878 C874 1.524 . S
C878 H890 0.956 . S
C878 H891 0.961 . S
C878 H892 0.961 . S
C879 C876 1.539 . S
C879 H893 0.958 . S
C879 H894 0.961 . S
C879 H895 0.960 . S
H880 C864 0.931 . S
H881 C869 0.930 . S
H882 C870 0.960 . S
H883 C870 0.962 . S
H884 C870 0.960 . S
H885 C871 0.961 . S
H886 C871 0.961 . S
H887 C871 0.961 . S
H888 C872 0.931 . S
H889 C877 0.930 . S
H890 C878 0.956 . S
H891 C878 0.961 . S
H892 C878 0.961 . S
H893 C879 0.958 . S
H894 C879 0.961 . S
H895 C879 0.960 . S
C896 C897 1.391 . S
C896 C898 1.394 . S
C896 H912 0.931 . S
C897 C896 1.391 . S
C897 C901 1.376 . S
C898 C896 1.394 . S
C898 C899 1.369 . S
C898 C902 1.531 . S
C899 C898 1.369 . S
C899 C900 1.410 . S
C899 C907 1.503 . S
C900 C899 1.410 . S
C900 C901 1.392 . S
C900 C903 1.511 . S
C901 C897 1.376 . S
C901 C900 1.392 . S
C901 H913 0.929 . S
C902 C898 1.531 . S
C902 H914 0.960 . S
C902 H915 0.962 . S
C902 H916 0.960 . S
C903 C900 1.511 . S
C903 H917 0.961 . S
C903 H918 0.961 . S
C903 H919 0.961 . S
C904 C905 1.370 . S
C904 C906 1.363 . S
C904 H920 0.931 . S
C905 C904 1.370 . S
C905 C909 1.408 . S
C906 C904 1.363 . S
C906 C907 1.370 . S
C906 C910 1.524 . S
C907 C899 1.503 . S
C907 C906 1.370 . S
C907 C908 1.403 . S
C908 C907 1.403 . S
C908 C909 1.404 . S
C908 C911 1.539 . S
C909 C905 1.408 . S
C909 C908 1.404 . S
C909 H921 0.930 . S
C910 C906 1.524 . S
C910 H922 0.956 . S
C910 H923 0.961 . S
C910 H924 0.961 . S
C911 C908 1.539 . S
C911 H925 0.958 . S
C911 H926 0.961 . S
C911 H927 0.960 . S
H912 C896 0.931 . S
H913 C901 0.929 . S
H914 C902 0.960 . S
H915 C902 0.962 . S
H916 C902 0.960 . S
H917 C903 0.961 . S
H918 C903 0.961 . S
H919 C903 0.961 . S
H920 C904 0.931 . S
H921 C909 0.930 . S
H922 C910 0.956 . S
H923 C910 0.961 . S
H924 C910 0.961 . S
H925 C911 0.958 . S
H926 C911 0.961 . S
H927 C911 0.960 . S
C928 C929 1.391 . S
C928 C930 1.394 . S
C928 H944 0.931 . S
C929 C928 1.391 . S
C929 C933 1.376 . S
C930 C928 1.394 . S
C930 C931 1.369 . S
C930 C934 1.531 . S
C931 C930 1.369 . S
C931 C932 1.410 . S
C931 C939 1.503 . S
C932 C931 1.410 . S
C932 C933 1.392 . S
C932 C935 1.511 . S
C933 C929 1.376 . S
C933 C932 1.392 . S
C933 H945 0.929 . S
C934 C930 1.531 . S
C934 H946 0.960 . S
C934 H947 0.962 . S
C934 H948 0.960 . S
C935 C932 1.511 . S
C935 H949 0.961 . S
C935 H950 0.961 . S
C935 H951 0.961 . S
C936 C937 1.370 . S
C936 C938 1.363 . S
C936 H952 0.931 . S
C937 C936 1.370 . S
C937 C941 1.408 . S
C938 C936 1.363 . S
C938 C939 1.370 . S
C938 C942 1.524 . S
C939 C931 1.503 . S
C939 C938 1.370 . S
C939 C940 1.403 . S
C940 C939 1.403 . S
C940 C941 1.404 . S
C940 C943 1.539 . S
C941 C937 1.408 . S
C941 C940 1.404 . S
C941 H953 0.930 . S
C942 C938 1.524 . S
C942 H954 0.956 . S
C942 H955 0.961 . S
C942 H956 0.961 . S
C943 C940 1.539 . S
C943 H957 0.958 . S
C943 H958 0.961 . S
C943 H959 0.960 . S
H944 C928 0.931 . S
H945 C933 0.929 . S
H946 C934 0.960 . S
H947 C934 0.962 . S
H948 C934 0.960 . S
H949 C935 0.961 . S
H950 C935 0.961 . S
H951 C935 0.961 . S
H952 C936 0.931 . S
H953 C941 0.930 . S
H954 C942 0.956 . S
H955 C942 0.961 . S
H956 C942 0.961 . S
H957 C943 0.958 . S
H958 C943 0.961 . S
H959 C943 0.960 . S
C960 C961 1.391 . S
C960 C962 1.394 . S
C960 H976 0.931 . S
C961 C960 1.391 . S
C961 C965 1.376 . S
C962 C960 1.394 . S
C962 C963 1.369 . S
C962 C966 1.531 . S
C963 C962 1.369 . S
C963 C964 1.410 . S
C963 C971 1.503 . S
C964 C963 1.410 . S
C964 C965 1.392 . S
C964 C967 1.511 . S
C965 C961 1.376 . S
C965 C964 1.392 . S
C965 H977 0.929 . S
C966 C962 1.531 . S
C966 H978 0.960 . S
C966 H979 0.962 . S
C966 H980 0.960 . S
C967 C964 1.511 . S
C967 H981 0.961 . S
C967 H982 0.961 . S
C967 H983 0.961 . S
C968 C969 1.370 . S
C968 C970 1.363 . S
C968 H984 0.931 . S
C969 C968 1.370 . S
C969 C973 1.408 . S
C970 C968 1.363 . S
C970 C971 1.370 . S
C970 C974 1.524 . S
C971 C963 1.503 . S
C971 C970 1.370 . S
C971 C972 1.403 . S
C972 C971 1.403 . S
C972 C973 1.404 . S
C972 C975 1.539 . S
C973 C969 1.408 . S
C973 C972 1.404 . S
C973 H985 0.930 . S
C974 C970 1.524 . S
C974 H986 0.956 . S
C974 H987 0.961 . S
C974 H988 0.961 . S
C975 C972 1.539 . S
C975 H989 0.958 . S
C975 H990 0.961 . S
C975 H991 0.960 . S
H976 C960 0.931 . S
H977 C965 0.929 . S
H978 C966 0.960 . S
H979 C966 0.962 . S
H980 C966 0.960 . S
H981 C967 0.961 . S
H982 C967 0.961 . S
H983 C967 0.961 . S
H984 C968 0.931 . S
H985 C973 0.930 . S
H986 C974 0.956 . S
H987 C974 0.961 . S
H988 C974 0.961 . S
H989 C975 0.958 . S
H990 C975 0.961 . S
H991 C975 0.960 . S
C992 C993 1.391 . S
C992 C994 1.394 . S
C992 H1008 0.931 . S
C993 C992 1.391 . S
C993 C997 1.376 . S
C994 C992 1.394 . S
C994 C995 1.369 . S
C994 C998 1.531 . S
C995 C994 1.369 . S
C995 C996 1.410 . S
C995 C1003 1.503 . S
C996 C995 1.410 . S
C996 C997 1.392 . S
C996 C999 1.511 . S
C997 C993 1.376 . S
C997 C996 1.392 . S
C997 H1009 0.929 . S
C998 C994 1.531 . S
C998 H1010 0.960 . S
C998 H1011 0.962 . S
C998 H1012 0.960 . S
C999 C996 1.511 . S
C999 H1013 0.961 . S
C999 H1014 0.961 . S
C999 H1015 0.961 . S
C1000 C1001 1.370 . S
C1000 C1002 1.363 . S
C1000 H1016 0.931 . S
C1001 C1000 1.370 . S
C1001 C1005 1.408 . S
C1002 C1000 1.363 . S
C1002 C1003 1.370 . S
C1002 C1006 1.524 . S
C1003 C995 1.503 . S
C1003 C1002 1.370 . S
C1003 C1004 1.403 . S
C1004 C1003 1.403 . S
C1004 C1005 1.404 . S
C1004 C1007 1.539 . S
C1005 C1001 1.408 . S
C1005 C1004 1.404 . S
C1005 H1017 0.930 . S
C1006 C1002 1.524 . S
C1006 H1018 0.956 . S
C1006 H1019 0.961 . S
C1006 H1020 0.961 . S
C1007 C1004 1.539 . S
C1007 H1021 0.958 . S
C1007 H1022 0.961 . S
C1007 H1023 0.960 . S
H1008 C992 0.931 . S
H1009 C997 0.929 . S
H1010 C998 0.960 . S
H1011 C998 0.962 . S
H1012 C998 0.960 . S
H1013 C999 0.961 . S
H1014 C999 0.961 . S
H1015 C999 0.961 . S
H1016 C1000 0.931 . S
H1017 C1005 0.930 . S
H1018 C1006 0.956 . S
H1019 C1006 0.961 . S
H1020 C1006 0.961 . S
H1021 C1007 0.958 . S
H1022 C1007 0.961 . S
H1023 C1007 0.960 . S
C1024 C1025 1.391 . S
C1024 C1026 1.394 . S
C1024 H1040 0.931 . S
C1025 C1024 1.391 . S
C1025 C1029 1.376 . S
C1026 C1024 1.394 . S
C1026 C1027 1.369 . S
C1026 C1030 1.531 . S
C1027 C1026 1.369 . S
C1027 C1028 1.410 . S
C1027 C1035 1.503 . S
C1028 C1027 1.410 . S
C1028 C1029 1.392 . S
C1028 C1031 1.511 . S
C1029 C1025 1.376 . S
C1029 C1028 1.392 . S
C1029 H1041 0.929 . S
C1030 C1026 1.531 . S
C1030 H1042 0.960 . S
C1030 H1043 0.962 . S
C1030 H1044 0.960 . S
C1031 C1028 1.511 . S
C1031 H1045 0.961 . S
C1031 H1046 0.961 . S
C1031 H1047 0.961 . S
C1032 C1033 1.370 . S
C1032 C1034 1.363 . S
C1032 H1048 0.931 . S
C1033 C1032 1.370 . S
C1033 C1037 1.408 . S
C1034 C1032 1.363 . S
C1034 C1035 1.370 . S
C1034 C1038 1.524 . S
C1035 C1027 1.503 . S
C1035 C1034 1.370 . S
C1035 C1036 1.403 . S
C1036 C1035 1.403 . S
C1036 C1037 1.404 . S
C1036 C1039 1.539 . S
C1037 C1033 1.408 . S
C1037 C1036 1.404 . S
C1037 H1049 0.930 . S
C1038 C1034 1.524 . S
C1038 H1050 0.956 . S
C1038 H1051 0.961 . S
C1038 H1052 0.961 . S
C1039 C1036 1.539 . S
C1039 H1053 0.958 . S
C1039 H1054 0.961 . S
C1039 H1055 0.960 . S
H1040 C1024 0.931 . S
H1041 C1029 0.929 . S
H1042 C1030 0.960 . S
H1043 C1030 0.962 . S
H1044 C1030 0.960 . S
H1045 C1031 0.961 . S
H1046 C1031 0.961 . S
H1047 C1031 0.961 . S
H1048 C1032 0.931 . S
H1049 C1037 0.930 . S
H1050 C1038 0.956 . S
H1051 C1038 0.961 . S
H1052 C1038 0.961 . S
H1053 C1039 0.958 . S
H1054 C1039 0.961 . S
H1055 C1039 0.960 . S
C1056 C1057 1.391 . S
C1056 C1058 1.394 . S
C1056 H1072 0.931 . S
C1057 C1056 1.391 . S
C1057 C1061 1.376 . S
C1058 C1056 1.394 . S
C1058 C1059 1.369 . S
C1058 C1062 1.531 . S
C1059 C1058 1.369 . S
C1059 C1060 1.410 . S
C1059 C1067 1.503 . S
C1060 C1059 1.410 . S
C1060 C1061 1.392 . S
C1060 C1063 1.511 . S
C1061 C1057 1.376 . S
C1061 C1060 1.392 . S
C1061 H1073 0.929 . S
C1062 C1058 1.531 . S
C1062 H1074 0.960 . S
C1062 H1075 0.962 . S
C1062 H1076 0.960 . S
C1063 C1060 1.511 . S
C1063 H1077 0.961 . S
C1063 H1078 0.961 . S
C1063 H1079 0.961 . S
C1064 C1065 1.370 . S
C1064 C1066 1.363 . S
C1064 H1080 0.931 . S
C1065 C1064 1.370 . S
C1065 C1069 1.408 . S
C1066 C1064 1.363 . S
C1066 C1067 1.370 . S
C1066 C1070 1.524 . S
C1067 C1059 1.503 . S
C1067 C1066 1.370 . S
C1067 C1068 1.403 . S
C1068 C1067 1.403 . S
C1068 C1069 1.404 . S
C1068 C1071 1.539 . S
C1069 C1065 1.408 . S
C1069 C1068 1.404 . S
C1069 H1081 0.930 . S
C1070 C1066 1.524 . S
C1070 H1082 0.956 . S
C1070 H1083 0.961 . S
C1070 H1084 0.961 . S
C1071 C1068 1.539 . S
C1071 H1085 0.958 . S
C1071 H1086 0.961 . S
C1071 H1087 0.960 . S
H1072 C1056 0.931 . S
H1073 C1061 0.929 . S
H1074 C1062 0.960 . S
H1075 C1062 0.962 . S
H1076 C1062 0.960 . S
H1077 C1063 0.961 . S
H1078 C1063 0.961 . S
H1079 C1063 0.961 . S
H1080 C1064 0.931 . S
H1081 C1069 0.930 . S
H1082 C1070 0.956 . S
H1083 C1070 0.961 . S
H1084 C1070 0.961 . S
H1085 C1071 0.958 . S
H1086 C1071 0.961 . S
H1087 C1071 0.960 . S
C1088 C1089 1.391 . S
C1088 C1090 1.394 . S
C1088 H1104 0.931 . S
C1089 C1088 1.391 . S
C1089 C1093 1.376 . S
C1090 C1088 1.394 . S
C1090 C1091 1.369 . S
C1090 C1094 1.531 . S
C1091 C1090 1.369 . S
C1091 C1092 1.410 . S
C1091 C1099 1.503 . S
C1092 C1091 1.410 . S
C1092 C1093 1.392 . S
C1092 C1095 1.511 . S
C1093 C1089 1.376 . S
C1093 C1092 1.392 . S
C1093 H1105 0.929 . S
C1094 C1090 1.531 . S
C1094 H1106 0.960 . S
C1094 H1107 0.962 . S
C1094 H1108 0.960 . S
C1095 C1092 1.511 . S
C1095 H1109 0.961 . S
C1095 H1110 0.961 . S
C1095 H1111 0.961 . S
C1096 C1097 1.370 . S
C1096 C1098 1.363 . S
C1096 H1112 0.931 . S
C1097 C1096 1.370 . S
C1097 C1101 1.408 . S
C1098 C1096 1.363 . S
C1098 C1099 1.370 . S
C1098 C1102 1.524 . S
C1099 C1091 1.503 . S
C1099 C1098 1.370 . S
C1099 C1100 1.403 . S
C1100 C1099 1.403 . S
C1100 C1101 1.404 . S
C1100 C1103 1.539 . S
C1101 C1097 1.408 . S
C1101 C1100 1.404 . S
C1101 H1113 0.930 . S
C1102 C1098 1.524 . S
C1102 H1114 0.956 . S
C1102 H1115 0.961 . S
C1102 H1116 0.961 . S
C1103 C1100 1.539 . S
C1103 H1117 0.958 . S
C1103 H1118 0.961 . S
C1103 H1119 0.960 . S
H1104 C1088 0.931 . S
H1105 C1093 0.929 . S
H1106 C1094 0.960 . S
H1107 C1094 0.962 . S
H1108 C1094 0.960 . S
H1109 C1095 0.961 . S
H1110 C1095 0.961 . S
H1111 C1095 0.961 . S
H1112 C1096 0.931 . S
H1113 C1101 0.930 . S
H1114 C1102 0.956 . S
H1115 C1102 0.961 . S
H1116 C1102 0.961 . S
H1117 C1103 0.958 . S
H1118 C1103 0.961 . S
H1119 C1103 0.960 . S
C1120 C1121 1.391 . S
C1120 C1122 1.394 . S
C1120 H1136 0.931 . S
C1121 C1120 1.391 . S
C1121 C1125 1.376 . S
C1122 C1120 1.394 . S
C1122 C1123 1.369 . S
C1122 C1126 1.531 . S
C1123 C1122 1.369 . S
C1123 C1124 1.410 . S
C1123 C1131 1.503 . S
C1124 C1123 1.410 . S
C1124 C1125 1.392 . S
C1124 C1127 1.511 . S
C1125 C1121 1.376 . S
C1125 C1124 1.392 . S
C1125 H1137 0.929 1_556 S
C1126 C1122 1.531 . S
C1126 H1138 0.960 . S
C1126 H1139 0.962 . S
C1126 H1140 0.960 . S
C1127 C1124 1.511 . S
C1127 H1141 0.961 . S
C1127 H1142 0.961 . S
C1127 H1143 0.961 . S
C1128 C1129 1.370 . S
C1128 C1130 1.363 . S
C1128 H1144 0.931 . S
C1129 C1128 1.370 . S
C1129 C1133 1.408 . S
C1130 C1128 1.363 . S
C1130 C1131 1.370 . S
C1130 C1134 1.524 . S
C1131 C1123 1.503 . S
C1131 C1130 1.370 . S
C1131 C1132 1.403 . S
C1132 C1131 1.403 . S
C1132 C1133 1.404 . S
C1132 C1135 1.539 . S
C1133 C1129 1.408 . S
C1133 C1132 1.404 . S
C1133 H1145 0.930 . S
C1134 C1130 1.524 . S
C1134 H1146 0.956 . S
C1134 H1147 0.961 . S
C1134 H1148 0.961 . S
C1135 C1132 1.539 . S
C1135 H1149 0.958 . S
C1135 H1150 0.961 . S
C1135 H1151 0.960 . S
H1136 C1120 0.931 . S
H1137 C1125 0.929 1_554 S
H1138 C1126 0.960 . S
H1139 C1126 0.962 . S
H1140 C1126 0.960 . S
H1141 C1127 0.961 . S
H1142 C1127 0.961 . S
H1143 C1127 0.961 . S
H1144 C1128 0.931 . S
H1145 C1133 0.930 . S
H1146 C1134 0.956 . S
H1147 C1134 0.961 . S
H1148 C1134 0.961 . S
H1149 C1135 0.958 . S
H1150 C1135 0.961 . S
H1151 C1135 0.960 . S
C1152 C1153 1.391 . S
C1152 C1154 1.394 . S
C1152 H1168 0.931 . S
C1153 C1152 1.391 . S
C1153 C1157 1.376 . S
C1154 C1152 1.394 . S
C1154 C1155 1.369 . S
C1154 C1158 1.531 . S
C1155 C1154 1.369 . S
C1155 C1156 1.410 . S
C1155 C1163 1.503 . S
C1156 C1155 1.410 . S
C1156 C1157 1.392 . S
C1156 C1159 1.511 . S
C1157 C1153 1.376 . S
C1157 C1156 1.392 . S
C1157 H1169 0.929 . S
C1158 C1154 1.531 . S
C1158 H1170 0.960 . S
C1158 H1171 0.962 . S
C1158 H1172 0.960 . S
C1159 C1156 1.511 . S
C1159 H1173 0.961 . S
C1159 H1174 0.961 . S
C1159 H1175 0.961 . S
C1160 C1161 1.370 . S
C1160 C1162 1.363 . S
C1160 H1176 0.931 . S
C1161 C1160 1.370 . S
C1161 C1165 1.408 . S
C1162 C1160 1.363 . S
C1162 C1163 1.370 . S
C1162 C1166 1.524 . S
C1163 C1155 1.503 . S
C1163 C1162 1.370 . S
C1163 C1164 1.403 . S
C1164 C1163 1.403 . S
C1164 C1165 1.404 . S
C1164 C1167 1.539 . S
C1165 C1161 1.408 . S
C1165 C1164 1.404 . S
C1165 H1177 0.930 . S
C1166 C1162 1.524 . S
C1166 H1178 0.956 . S
C1166 H1179 0.961 . S
C1166 H1180 0.961 . S
C1167 C1164 1.539 . S
C1167 H1181 0.958 . S
C1167 H1182 0.961 . S
C1167 H1183 0.960 . S
H1168 C1152 0.931 . S
H1169 C1157 0.929 . S
H1170 C1158 0.960 . S
H1171 C1158 0.962 . S
H1172 C1158 0.960 . S
H1173 C1159 0.961 . S
H1174 C1159 0.961 . S
H1175 C1159 0.961 . S
H1176 C1160 0.931 . S
H1177 C1165 0.930 . S
H1178 C1166 0.956 . S
H1179 C1166 0.961 . S
H1180 C1166 0.961 . S
H1181 C1167 0.958 . S
H1182 C1167 0.961 . S
H1183 C1167 0.960 . S
C1184 C1185 1.391 . S
C1184 C1186 1.394 . S
C1184 H1200 0.931 . S
C1185 C1184 1.391 . S
C1185 C1189 1.376 . S
C1186 C1184 1.394 . S
C1186 C1187 1.369 . S
C1186 C1190 1.531 . S
C1187 C1186 1.369 . S
C1187 C1188 1.410 . S
C1187 C1195 1.503 . S
C1188 C1187 1.410 . S
C1188 C1189 1.392 . S
C1188 C1191 1.511 . S
C1189 C1185 1.376 . S
C1189 C1188 1.392 . S
C1189 H1201 0.929 . S
C1190 C1186 1.531 . S
C1190 H1202 0.960 . S
C1190 H1203 0.962 . S
C1190 H1204 0.960 . S
C1191 C1188 1.511 . S
C1191 H1205 0.961 . S
C1191 H1206 0.961 . S
C1191 H1207 0.961 . S
C1192 C1193 1.370 . S
C1192 C1194 1.363 . S
C1192 H1208 0.931 . S
C1193 C1192 1.370 . S
C1193 C1197 1.408 . S
C1194 C1192 1.363 . S
C1194 C1195 1.370 . S
C1194 C1198 1.524 . S
C1195 C1187 1.503 . S
C1195 C1194 1.370 . S
C1195 C1196 1.403 . S
C1196 C1195 1.403 . S
C1196 C1197 1.404 . S
C1196 C1199 1.539 . S
C1197 C1193 1.408 . S
C1197 C1196 1.404 . S
C1197 H1209 0.930 . S
C1198 C1194 1.524 . S
C1198 H1210 0.956 . S
C1198 H1211 0.961 . S
C1198 H1212 0.961 . S
C1199 C1196 1.539 . S
C1199 H1213 0.958 . S
C1199 H1214 0.961 . S
C1199 H1215 0.960 . S
H1200 C1184 0.931 . S
H1201 C1189 0.929 . S
H1202 C1190 0.960 . S
H1203 C1190 0.962 . S
H1204 C1190 0.960 . S
H1205 C1191 0.961 . S
H1206 C1191 0.961 . S
H1207 C1191 0.961 . S
H1208 C1192 0.931 . S
H1209 C1197 0.930 . S
H1210 C1198 0.956 . S
H1211 C1198 0.961 . S
H1212 C1198 0.961 . S
H1213 C1199 0.958 . S
H1214 C1199 0.961 . S
H1215 C1199 0.960 . S
C1216 C1217 1.391 . S
C1216 C1218 1.394 . S
C1216 H1232 0.931 . S
C1217 C1216 1.391 . S
C1217 C1221 1.376 . S
C1218 C1216 1.394 . S
C1218 C1219 1.369 . S
C1218 C1222 1.531 . S
C1219 C1218 1.369 . S
C1219 C1220 1.410 . S
C1219 C1227 1.503 . S
C1220 C1219 1.410 . S
C1220 C1221 1.392 . S
C1220 C1223 1.511 . S
C1221 C1217 1.376 . S
C1221 C1220 1.392 . S
C1221 H1233 0.929 . S
C1222 C1218 1.531 . S
C1222 H1234 0.960 . S
C1222 H1235 0.962 . S
C1222 H1236 0.960 . S
C1223 C1220 1.511 . S
C1223 H1237 0.961 . S
C1223 H1238 0.961 . S
C1223 H1239 0.961 . S
C1224 C1225 1.370 . S
C1224 C1226 1.363 . S
C1224 H1240 0.931 . S
C1225 C1224 1.370 . S
C1225 C1229 1.408 . S
C1226 C1224 1.363 . S
C1226 C1227 1.370 . S
C1226 C1230 1.524 . S
C1227 C1219 1.503 . S
C1227 C1226 1.370 . S
C1227 C1228 1.403 . S
C1228 C1227 1.403 . S
C1228 C1229 1.404 . S
C1228 C1231 1.539 . S
C1229 C1225 1.408 . S
C1229 C1228 1.404 . S
C1229 H1241 0.930 . S
C1230 C1226 1.524 . S
C1230 H1242 0.956 . S
C1230 H1243 0.961 . S
C1230 H1244 0.961 . S
C1231 C1228 1.539 . S
C1231 H1245 0.958 . S
C1231 H1246 0.961 . S
C1231 H1247 0.960 . S
H1232 C1216 0.931 . S
H1233 C1221 0.929 . S
H1234 C1222 0.960 . S
H1235 C1222 0.962 . S
H1236 C1222 0.960 . S
H1237 C1223 0.961 . S
H1238 C1223 0.961 . S
H1239 C1223 0.961 . S
H1240 C1224 0.931 . S
H1241 C1229 0.930 . S
H1242 C1230 0.956 . S
H1243 C1230 0.961 . S
H1244 C1230 0.961 . S
H1245 C1231 0.958 . S
H1246 C1231 0.961 . S
H1247 C1231 0.960 . S
C1248 C1249 1.391 . S
C1248 C1250 1.394 . S
C1248 H1264 0.931 . S
C1249 C1248 1.391 . S
C1249 C1253 1.376 . S
C1250 C1248 1.394 . S
C1250 C1251 1.369 . S
C1250 C1254 1.531 . S
C1251 C1250 1.369 . S
C1251 C1252 1.410 . S
C1251 C1259 1.503 . S
C1252 C1251 1.410 . S
C1252 C1253 1.392 . S
C1252 C1255 1.511 . S
C1253 C1249 1.376 . S
C1253 C1252 1.392 . S
C1253 H1265 0.929 . S
C1254 C1250 1.531 . S
C1254 H1266 0.960 . S
C1254 H1267 0.962 . S
C1254 H1268 0.960 . S
C1255 C1252 1.511 . S
C1255 H1269 0.961 . S
C1255 H1270 0.961 . S
C1255 H1271 0.961 . S
C1256 C1257 1.370 . S
C1256 C1258 1.363 . S
C1256 H1272 0.931 . S
C1257 C1256 1.370 . S
C1257 C1261 1.408 . S
C1258 C1256 1.363 . S
C1258 C1259 1.370 . S
C1258 C1262 1.524 . S
C1259 C1251 1.503 . S
C1259 C1258 1.370 . S
C1259 C1260 1.403 . S
C1260 C1259 1.403 . S
C1260 C1261 1.404 . S
C1260 C1263 1.539 . S
C1261 C1257 1.408 . S
C1261 C1260 1.404 . S
C1261 H1273 0.930 . S
C1262 C1258 1.524 . S
C1262 H1274 0.956 . S
C1262 H1275 0.961 . S
C1262 H1276 0.961 . S
C1263 C1260 1.539 . S
C1263 H1277 0.958 . S
C1263 H1278 0.961 . S
C1263 H1279 0.960 . S
H1264 C1248 0.931 . S
H1265 C1253 0.929 . S
H1266 C1254 0.960 . S
H1267 C1254 0.962 . S
H1268 C1254 0.960 . S
H1269 C1255 0.961 . S
H1270 C1255 0.961 . S
H1271 C1255 0.961 . S
H1272 C1256 0.931 . S
H1273 C1261 0.930 . S
H1274 C1262 0.956 . S
H1275 C1262 0.961 . S
H1276 C1262 0.961 . S
H1277 C1263 0.958 . S
H1278 C1263 0.961 . S
H1279 C1263 0.960 . S
C1280 C1281 1.391 . S
C1280 C1282 1.394 . S
C1280 H1296 0.931 . S
C1281 C1280 1.391 . S
C1281 C1285 1.376 . S
C1282 C1280 1.394 . S
C1282 C1283 1.369 . S
C1282 C1286 1.531 . S
C1283 C1282 1.369 . S
C1283 C1284 1.410 . S
C1283 C1291 1.503 . S
C1284 C1283 1.410 . S
C1284 C1285 1.392 . S
C1284 C1287 1.511 . S
C1285 C1281 1.376 . S
C1285 C1284 1.392 . S
C1285 H1297 0.929 . S
C1286 C1282 1.531 . S
C1286 H1298 0.960 . S
C1286 H1299 0.962 . S
C1286 H1300 0.960 . S
C1287 C1284 1.511 . S
C1287 H1301 0.961 . S
C1287 H1302 0.961 . S
C1287 H1303 0.961 . S
C1288 C1289 1.370 . S
C1288 C1290 1.363 . S
C1288 H1304 0.931 . S
C1289 C1288 1.370 . S
C1289 C1293 1.408 . S
C1290 C1288 1.363 . S
C1290 C1291 1.370 . S
C1290 C1294 1.524 . S
C1291 C1283 1.503 . S
C1291 C1290 1.370 . S
C1291 C1292 1.403 . S
C1292 C1291 1.403 . S
C1292 C1293 1.404 . S
C1292 C1295 1.539 . S
C1293 C1289 1.408 . S
C1293 C1292 1.404 . S
C1293 H1305 0.930 1_556 S
C1294 C1290 1.524 . S
C1294 H1306 0.956 . S
C1294 H1307 0.961 . S
C1294 H1308 0.961 . S
C1295 C1292 1.539 . S
C1295 H1309 0.958 . S
C1295 H1310 0.961 . S
C1295 H1311 0.960 . S
H1296 C1280 0.931 . S
H1297 C1285 0.929 . S
H1298 C1286 0.960 . S
H1299 C1286 0.962 . S
H1300 C1286 0.960 . S
H1301 C1287 0.961 . S
H1302 C1287 0.961 . S
H1303 C1287 0.961 . S
H1304 C1288 0.931 . S
H1305 C1293 0.930 1_554 S
H1306 C1294 0.956 . S
H1307 C1294 0.961 . S
H1308 C1294 0.961 . S
H1309 C1295 0.958 . S
H1310 C1295 0.961 . S
H1311 C1295 0.960 . S
C1312 C1313 1.391 . S
C1312 C1314 1.394 . S
C1312 H1328 0.931 . S
C1313 C1312 1.391 . S
C1313 C1317 1.376 . S
C1314 C1312 1.394 . S
C1314 C1315 1.369 . S
C1314 C1318 1.531 . S
C1315 C1314 1.369 . S
C1315 C1316 1.410 . S
C1315 C1323 1.503 . S
C1316 C1315 1.410 . S
C1316 C1317 1.392 . S
C1316 C1319 1.511 . S
C1317 C1313 1.376 . S
C1317 C1316 1.392 . S
C1317 H1329 0.929 . S
C1318 C1314 1.531 . S
C1318 H1330 0.960 . S
C1318 H1331 0.962 . S
C1318 H1332 0.960 . S
C1319 C1316 1.511 . S
C1319 H1333 0.961 . S
C1319 H1334 0.961 . S
C1319 H1335 0.961 . S
C1320 C1321 1.370 . S
C1320 C1322 1.363 . S
C1320 H1336 0.931 . S
C1321 C1320 1.370 . S
C1321 C1325 1.408 . S
C1322 C1320 1.363 . S
C1322 C1323 1.370 . S
C1322 C1326 1.524 . S
C1323 C1315 1.503 . S
C1323 C1322 1.370 . S
C1323 C1324 1.403 . S
C1324 C1323 1.403 . S
C1324 C1325 1.404 . S
C1324 C1327 1.539 . S
C1325 C1321 1.408 . S
C1325 C1324 1.404 . S
C1325 H1337 0.930 . S
C1326 C1322 1.524 . S
C1326 H1338 0.956 . S
C1326 H1339 0.961 . S
C1326 H1340 0.961 . S
C1327 C1324 1.539 . S
C1327 H1341 0.958 . S
C1327 H1342 0.961 . S
C1327 H1343 0.960 . S
H1328 C1312 0.931 . S
H1329 C1317 0.929 . S
H1330 C1318 0.960 . S
H1331 C1318 0.962 . S
H1332 C1318 0.960 . S
H1333 C1319 0.961 . S
H1334 C1319 0.961 . S
H1335 C1319 0.961 . S
H1336 C1320 0.931 . S
H1337 C1325 0.930 . S
H1338 C1326 0.956 . S
H1339 C1326 0.961 . S
H1340 C1326 0.961 . S
H1341 C1327 0.958 . S
H1342 C1327 0.961 . S
H1343 C1327 0.960 . S
C1344 C1345 1.391 . S
C1344 C1346 1.394 . S
C1344 H1360 0.931 . S
C1345 C1344 1.391 . S
C1345 C1349 1.376 . S
C1346 C1344 1.394 . S
C1346 C1347 1.369 . S
C1346 C1350 1.531 . S
C1347 C1346 1.369 . S
C1347 C1348 1.410 . S
C1347 C1355 1.503 . S
C1348 C1347 1.410 . S
C1348 C1349 1.392 . S
C1348 C1351 1.511 . S
C1349 C1345 1.376 . S
C1349 C1348 1.392 . S
C1349 H1361 0.929 . S
C1350 C1346 1.531 . S
C1350 H1362 0.960 . S
C1350 H1363 0.962 . S
C1350 H1364 0.960 . S
C1351 C1348 1.511 . S
C1351 H1365 0.961 . S
C1351 H1366 0.961 . S
C1351 H1367 0.961 . S
C1352 C1353 1.370 . S
C1352 C1354 1.363 . S
C1352 H1368 0.931 . S
C1353 C1352 1.370 . S
C1353 C1357 1.408 . S
C1354 C1352 1.363 . S
C1354 C1355 1.370 . S
C1354 C1358 1.524 . S
C1355 C1347 1.503 . S
C1355 C1354 1.370 . S
C1355 C1356 1.403 . S
C1356 C1355 1.403 . S
C1356 C1357 1.404 . S
C1356 C1359 1.539 . S
C1357 C1353 1.408 . S
C1357 C1356 1.404 . S
C1357 H1369 0.930 . S
C1358 C1354 1.524 . S
C1358 H1370 0.956 . S
C1358 H1371 0.961 . S
C1358 H1372 0.961 . S
C1359 C1356 1.539 . S
C1359 H1373 0.958 . S
C1359 H1374 0.961 . S
C1359 H1375 0.960 . S
H1360 C1344 0.931 . S
H1361 C1349 0.929 . S
H1362 C1350 0.960 . S
H1363 C1350 0.962 . S
H1364 C1350 0.960 . S
H1365 C1351 0.961 . S
H1366 C1351 0.961 . S
H1367 C1351 0.961 . S
H1368 C1352 0.931 . S
H1369 C1357 0.930 . S
H1370 C1358 0.956 . S
H1371 C1358 0.961 . S
H1372 C1358 0.961 . S
H1373 C1359 0.958 . S
H1374 C1359 0.961 . S
H1375 C1359 0.960 . S
C1376 C1377 1.391 . S
C1376 C1378 1.394 . S
C1376 H1392 0.931 . S
C1377 C1376 1.391 . S
C1377 C1381 1.376 . S
C1378 C1376 1.394 . S
C1378 C1379 1.369 . S
C1378 C1382 1.531 . S
C1379 C1378 1.369 . S
C1379 C1380 1.410 . S
C1379 C1387 1.503 . S
C1380 C1379 1.410 . S
C1380 C1381 1.392 . S
C1380 C1383 1.511 . S
C1381 C1377 1.376 . S
C1381 C1380 1.392 . S
C1381 H1393 0.929 . S
C1382 C1378 1.531 . S
C1382 H1394 0.960 . S
C1382 H1395 0.962 . S
C1382 H1396 0.960 . S
C1383 C1380 1.511 . S
C1383 H1397 0.961 . S
C1383 H1398 0.961 . S
C1383 H1399 0.961 . S
C1384 C1385 1.370 . S
C1384 C1386 1.363 . S
C1384 H1400 0.931 . S
C1385 C1384 1.370 . S
C1385 C1389 1.408 . S
C1386 C1384 1.363 . S
C1386 C1387 1.370 . S
C1386 C1390 1.524 . S
C1387 C1379 1.503 . S
C1387 C1386 1.370 . S
C1387 C1388 1.403 . S
C1388 C1387 1.403 . S
C1388 C1389 1.404 . S
C1388 C1391 1.539 . S
C1389 C1385 1.408 . S
C1389 C1388 1.404 . S
C1389 H1401 0.930 . S
C1390 C1386 1.524 . S
C1390 H1402 0.956 . S
C1390 H1403 0.961 . S
C1390 H1404 0.961 . S
C1391 C1388 1.539 . S
C1391 H1405 0.958 . S
C1391 H1406 0.961 . S
C1391 H1407 0.960 . S
H1392 C1376 0.931 . S
H1393 C1381 0.929 . S
H1394 C1382 0.960 . S
H1395 C1382 0.962 . S
H1396 C1382 0.960 . S
H1397 C1383 0.961 . S
H1398 C1383 0.961 . S
H1399 C1383 0.961 . S
H1400 C1384 0.931 . S
H1401 C1389 0.930 . S
H1402 C1390 0.956 . S
H1403 C1390 0.961 . S
H1404 C1390 0.961 . S
H1405 C1391 0.958 . S
H1406 C1391 0.961 . S
H1407 C1391 0.960 . S
C1408 C1409 1.391 . S
C1408 C1410 1.394 . S
C1408 H1424 0.931 1_554 S
C1409 C1408 1.391 . S
C1409 C1413 1.376 . S
C1410 C1408 1.394 . S
C1410 C1411 1.369 . S
C1410 C1414 1.531 . S
C1411 C1410 1.369 . S
C1411 C1412 1.410 . S
C1411 C1419 1.503 . S
C1412 C1411 1.410 . S
C1412 C1413 1.392 . S
C1412 C1415 1.511 . S
C1413 C1409 1.376 . S
C1413 C1412 1.392 . S
C1413 H1425 0.929 . S
C1414 C1410 1.531 . S
C1414 H1426 0.960 . S
C1414 H1427 0.962 . S
C1414 H1428 0.978 . S
C1415 C1412 1.511 . S
C1415 H1429 0.961 . S
C1415 H1430 0.961 . S
C1415 H1431 0.961 . S
C1416 C1417 1.370 . S
C1416 C1418 1.363 . S
C1416 H1432 0.931 . S
C1417 C1416 1.370 . S
C1417 C1421 1.408 . S
C1418 C1416 1.363 . S
C1418 C1419 1.370 . S
C1418 C1422 1.524 . S
C1419 C1411 1.503 . S
C1419 C1418 1.370 . S
C1419 C1420 1.403 . S
C1420 C1419 1.403 . S
C1420 C1421 1.404 . S
C1420 C1423 1.539 . S
C1421 C1417 1.408 . S
C1421 C1420 1.404 . S
C1421 H1433 0.930 . S
C1422 C1418 1.524 . S
C1422 H1434 0.956 . S
C1422 H1435 0.961 . S
C1422 H1436 0.961 . S
C1423 C1420 1.539 . S
C1423 H1437 0.958 . S
C1423 H1438 0.961 . S
C1423 H1439 0.960 . S
H1424 C1408 0.931 1_556 S
H1425 C1413 0.929 . S
H1426 C1414 0.960 . S
H1427 C1414 0.962 . S
H1428 C1414 0.978 . S
H1429 C1415 0.961 . S
H1430 C1415 0.961 . S
H1431 C1415 0.961 . S
H1432 C1416 0.931 . S
H1433 C1421 0.930 . S
H1434 C1422 0.956 . S
H1435 C1422 0.961 . S
H1436 C1422 0.961 . S
H1437 C1423 0.958 . S
H1438 C1423 0.961 . S
H1439 C1423 0.960 . S
C1440 C1441 1.391 . S
C1440 C1442 1.394 . S
C1440 H1456 0.931 . S
C1441 C1440 1.391 . S
C1441 C1445 1.376 . S
C1442 C1440 1.394 . S
C1442 C1443 1.369 . S
C1442 C1446 1.531 . S
C1443 C1442 1.369 . S
C1443 C1444 1.410 . S
C1443 C1451 1.503 . S
C1444 C1443 1.410 . S
C1444 C1445 1.392 . S
C1444 C1447 1.511 . S
C1445 C1441 1.376 . S
C1445 C1444 1.392 . S
C1445 H1457 0.929 . S
C1446 C1442 1.531 . S
C1446 H1458 0.960 . S
C1446 H1459 0.962 . S
C1446 H1460 0.960 . S
C1447 C1444 1.511 . S
C1447 H1461 0.961 . S
C1447 H1462 0.961 . S
C1447 H1463 0.961 . S
C1448 C1449 1.370 . S
C1448 C1450 1.363 . S
C1448 H1464 0.931 1_556 S
C1449 C1448 1.370 . S
C1449 C1453 1.408 . S
C1450 C1448 1.363 . S
C1450 C1451 1.370 . S
C1450 C1454 1.524 . S
C1451 C1443 1.503 . S
C1451 C1450 1.370 . S
C1451 C1452 1.403 . S
C1452 C1451 1.403 . S
C1452 C1453 1.404 . S
C1452 C1455 1.539 . S
C1453 C1449 1.408 . S
C1453 C1452 1.404 . S
C1453 H1465 0.930 . S
C1454 C1450 1.524 . S
C1454 H1466 0.956 . S
C1454 H1467 0.961 . S
C1454 H1468 0.961 . S
C1455 C1452 1.539 . S
C1455 H1469 0.958 . S
C1455 H1470 0.961 . S
C1455 H1471 0.960 . S
H1456 C1440 0.931 . S
H1457 C1445 0.929 . S
H1458 C1446 0.960 . S
H1459 C1446 0.962 . S
H1460 C1446 0.960 . S
H1461 C1447 0.961 . S
H1462 C1447 0.961 . S
H1463 C1447 0.961 . S
H1464 C1448 0.931 1_554 S
H1465 C1453 0.930 . S
H1466 C1454 0.956 . S
H1467 C1454 0.961 . S
H1468 C1454 0.961 . S
H1469 C1455 0.958 . S
H1470 C1455 0.961 . S
H1471 C1455 0.960 . S
C1472 C1473 1.391 . S
C1472 C1474 1.394 . S
C1472 H1488 0.931 . S
C1473 C1472 1.391 . S
C1473 C1477 1.376 . S
C1474 C1472 1.394 . S
C1474 C1475 1.369 . S
C1474 C1478 1.531 . S
C1475 C1474 1.369 . S
C1475 C1476 1.410 . S
C1475 C1483 1.503 . S
C1476 C1475 1.410 . S
C1476 C1477 1.392 . S
C1476 C1479 1.511 . S
C1477 C1473 1.376 . S
C1477 C1476 1.392 . S
C1477 H1489 0.929 . S
C1478 C1474 1.531 . S
C1478 H1490 0.960 . S
C1478 H1491 0.962 . S
C1478 H1492 0.960 1_554 S
C1479 C1476 1.511 . S
C1479 H1493 0.961 . S
C1479 H1494 0.961 . S
C1479 H1495 0.961 . S
C1480 C1481 1.370 . S
C1480 C1482 1.363 . S
C1480 H1496 0.931 . S
C1481 C1480 1.370 . S
C1481 C1485 1.408 . S
C1482 C1480 1.363 . S
C1482 C1483 1.370 . S
C1482 C1486 1.524 . S
C1483 C1475 1.503 . S
C1483 C1482 1.370 . S
C1483 C1484 1.403 . S
C1484 C1483 1.403 . S
C1484 C1485 1.404 . S
C1484 C1487 1.539 . S
C1485 C1481 1.408 . S
C1485 C1484 1.404 . S
C1485 H1497 0.930 . S
C1486 C1482 1.524 . S
C1486 H1498 0.956 . S
C1486 H1499 0.961 . S
C1486 H1500 0.961 . S
C1487 C1484 1.539 . S
C1487 H1501 0.958 . S
C1487 H1502 0.961 . S
C1487 H1503 0.960 . S
H1488 C1472 0.931 . S
H1489 C1477 0.929 . S
H1490 C1478 0.960 . S
H1491 C1478 0.962 . S
H1492 C1478 0.960 1_556 S
H1493 C1479 0.961 . S
H1494 C1479 0.961 . S
H1495 C1479 0.961 . S
H1496 C1480 0.931 . S
H1497 C1485 0.930 . S
H1498 C1486 0.956 . S
H1499 C1486 0.961 . S
H1500 C1486 0.961 . S
H1501 C1487 0.958 . S
H1502 C1487 0.961 . S
H1503 C1487 0.960 . S
C1504 C1505 1.391 . S
C1504 C1506 1.394 . S
C1504 H1520 0.931 . S
C1505 C1504 1.391 . S
C1505 C1509 1.376 . S
C1506 C1504 1.394 . S
C1506 C1507 1.369 . S
C1506 C1510 1.531 . S
C1507 C1506 1.369 . S
C1507 C1508 1.410 . S
C1507 C1515 1.503 1_655 S
C1508 C1507 1.410 . S
C1508 C1509 1.392 . S
C1508 C1511 1.511 . S
C1509 C1505 1.376 . S
C1509 C1508 1.392 . S
C1509 H1521 0.929 . S
C1510 C1506 1.531 . S
C1510 H1522 0.960 1_655 S
C1510 H1523 0.962 . S
C1510 H1524 0.960 . S
C1511 C1508 1.511 . S
C1511 H1525 0.961 . S
C1511 H1526 0.961 1_655 S
C1511 H1527 0.961 . S
C1512 C1513 1.370 . S
C1512 C1514 1.363 . S
C1512 H1528 0.931 . S
C1513 C1512 1.370 . S
C1513 C1517 1.408 . S
C1514 C1512 1.363 . S
C1514 C1515 1.370 . S
C1514 C1518 1.524 . S
C1515 C1507 1.503 1_455 S
C1515 C1514 1.370 . S
C1515 C1516 1.403 . S
C1516 C1515 1.403 . S
C1516 C1517 1.404 . S
C1516 C1519 1.539 . S
C1517 C1513 1.408 . S
C1517 C1516 1.404 . S
C1517 H1529 0.930 . S
C1518 C1514 1.524 . S
C1518 H1530 0.982 . S
C1518 H1531 0.919 1_455 S
C1518 H1532 0.961 . S
C1519 C1516 1.539 . S
C1519 H1533 0.958 . S
C1519 H1534 0.961 . S
C1519 H1535 0.967 . S
H1520 C1504 0.931 . S
H1521 C1509 0.929 . S
H1522 C1510 0.960 1_455 S
H1523 C1510 0.962 . S
H1524 C1510 0.960 . S
H1525 C1511 0.961 . S
H1526 C1511 0.961 1_455 S
H1527 C1511 0.961 . S
H1528 C1512 0.931 . S
H1529 C1517 0.930 . S
H1530 C1518 0.982 . S
H1531 C1518 0.919 1_655 S
H1532 C1518 0.961 . S
H1533 C1519 0.958 . S
H1534 C1519 0.961 . S
H1535 C1519 0.967 . S
C1536 C1537 1.391 . S
C1536 C1538 1.394 . S
C1536 H1552 0.931 . S
C1537 C1536 1.391 . S
C1537 C1541 1.376 . S
C1538 C1536 1.394 . S
C1538 C1539 1.369 . S
C1538 C1542 1.531 . S
C1539 C1538 1.369 . S
C1539 C1540 1.410 . S
C1539 C1547 1.503 . S
C1540 C1539 1.410 . S
C1540 C1541 1.392 . S
C1540 C1543 1.511 . S
C1541 C1537 1.376 . S
C1541 C1540 1.392 . S
C1541 H1553 0.929 . S
C1542 C1538 1.531 . S
C1542 H1554 0.960 . S
C1542 H1555 0.962 . S
C1542 H1556 0.960 . S
C1543 C1540 1.511 . S
C1543 H1557 0.961 . S
C1543 H1558 0.961 . S
C1543 H1559 0.961 . S
C1544 C1545 1.370 . S
C1544 C1546 1.363 . S
C1544 H1560 0.931 . S
C1545 C1544 1.370 . S
C1545 C1549 1.408 . S
C1546 C1544 1.363 . S
C1546 C1547 1.370 . S
C1546 C1550 1.524 . S
C1547 C1539 1.503 . S
C1547 C1546 1.370 . S
C1547 C1548 1.403 . S
C1548 C1547 1.403 . S
C1548 C1549 1.404 . S
C1548 C1551 1.539 . S
C1549 C1545 1.408 . S
C1549 C1548 1.404 . S
C1549 H1561 0.930 . S
C1550 C1546 1.524 . S
C1550 H1562 0.956 . S
C1550 H1563 0.961 . S
C1550 H1564 0.961 . S
C1551 C1548 1.539 . S
C1551 H1565 0.958 . S
C1551 H1566 0.961 . S
C1551 H1567 0.960 . S
H1552 C1536 0.931 . S
H1553 C1541 0.929 . S
H1554 C1542 0.960 . S
H1555 C1542 0.962 . S
H1556 C1542 0.960 . S
H1557 C1543 0.961 . S
H1558 C1543 0.961 . S
H1559 C1543 0.961 . S
H1560 C1544 0.931 . S
H1561 C1549 0.930 . S
H1562 C1550 0.956 . S
H1563 C1550 0.961 . S
H1564 C1550 0.961 . S
H1565 C1551 0.958 . S
H1566 C1551 0.961 . S
H1567 C1551 0.960 . S
C1568 C1569 1.391 . S
C1568 C1570 1.394 . S
C1568 H1584 0.931 . S
C1569 C1568 1.391 . S
C1569 C1573 1.376 . S
C1570 C1568 1.394 . S
C1570 C1571 1.369 . S
C1570 C1574 1.531 . S
C1571 C1570 1.369 . S
C1571 C1572 1.410 . S
C1571 C1579 1.503 . S
C1572 C1571 1.410 . S
C1572 C1573 1.392 . S
C1572 C1575 1.511 . S
C1573 C1569 1.376 . S
C1573 C1572 1.392 . S
C1573 H1585 0.929 . S
C1574 C1570 1.531 . S
C1574 H1586 0.960 . S
C1574 H1587 0.962 . S
C1574 H1588 0.960 . S
C1575 C1572 1.511 . S
C1575 H1589 0.961 . S
C1575 H1590 0.961 . S
C1575 H1591 0.961 . S
C1576 C1577 1.370 . S
C1576 C1578 1.363 . S
C1576 H1592 0.931 . S
C1577 C1576 1.370 . S
C1577 C1581 1.408 . S
C1578 C1576 1.363 . S
C1578 C1579 1.370 . S
C1578 C1582 1.524 . S
C1579 C1571 1.503 . S
C1579 C1578 1.370 . S
C1579 C1580 1.403 . S
C1580 C1579 1.403 . S
C1580 C1581 1.404 . S
C1580 C1583 1.539 . S
C1581 C1577 1.408 . S
C1581 C1580 1.404 . S
C1581 H1593 0.930 . S
C1582 C1578 1.524 . S
C1582 H1594 0.956 . S
C1582 H1595 0.961 . S
C1582 H1596 0.961 . S
C1583 C1580 1.539 . S
C1583 H1597 0.958 . S
C1583 H1598 0.961 . S
C1583 H1599 0.960 . S
H1584 C1568 0.931 . S
H1585 C1573 0.929 . S
H1586 C1574 0.960 . S
H1587 C1574 0.962 . S
H1588 C1574 0.960 . S
H1589 C1575 0.961 . S
H1590 C1575 0.961 . S
H1591 C1575 0.961 . S
H1592 C1576 0.931 . S
H1593 C1581 0.930 . S
H1594 C1582 0.956 . S
H1595 C1582 0.961 . S
H1596 C1582 0.961 . S
H1597 C1583 0.958 . S
H1598 C1583 0.961 . S
H1599 C1583 0.960 . S
C1600 C1601 1.391 . S
C1600 C1602 1.394 . S
C1600 H1616 0.931 . S
C1601 C1600 1.391 . S
C1601 C1605 1.376 . S
C1602 C1600 1.394 . S
C1602 C1603 1.369 . S
C1602 C1606 1.531 . S
C1603 C1602 1.369 . S
C1603 C1604 1.410 . S
C1603 C1611 1.503 . S
C1604 C1603 1.410 . S
C1604 C1605 1.392 . S
C1604 C1607 1.511 . S
C1605 C1601 1.376 . S
C1605 C1604 1.392 . S
C1605 H1617 0.929 . S
C1606 C1602 1.531 . S
C1606 H1618 0.960 . S
C1606 H1619 0.962 . S
C1606 H1620 0.960 1_556 S
C1607 C1604 1.511 . S
C1607 H1621 0.961 . S
C1607 H1622 0.961 . S
C1607 H1623 0.961 . S
C1608 C1609 1.370 . S
C1608 C1610 1.363 . S
C1608 H1624 0.931 . S
C1609 C1608 1.370 . S
C1609 C1613 1.408 . S
C1610 C1608 1.363 . S
C1610 C1611 1.370 . S
C1610 C1614 1.524 . S
C1611 C1603 1.503 . S
C1611 C1610 1.370 . S
C1611 C1612 1.403 . S
C1612 C1611 1.403 . S
C1612 C1613 1.404 . S
C1612 C1615 1.539 . S
C1613 C1609 1.408 . S
C1613 C1612 1.404 . S
C1613 H1625 0.930 . S
C1614 C1610 1.524 . S
C1614 H1626 0.956 . S
C1614 H1627 0.961 . S
C1614 H1628 0.961 . S
C1615 C1612 1.539 . S
C1615 H1629 0.958 1_556 S
C1615 H1630 0.961 . S
C1615 H1631 0.960 . S
H1616 C1600 0.931 . S
H1617 C1605 0.929 . S
H1618 C1606 0.960 . S
H1619 C1606 0.962 . S
H1620 C1606 0.960 1_554 S
H1621 C1607 0.961 . S
H1622 C1607 0.961 . S
H1623 C1607 0.961 . S
H1624 C1608 0.931 . S
H1625 C1613 0.930 . S
H1626 C1614 0.956 . S
H1627 C1614 0.961 . S
H1628 C1614 0.961 . S
H1629 C1615 0.958 1_554 S
H1630 C1615 0.961 . S
H1631 C1615 0.960 . S
C1632 C1633 1.391 . S
C1632 C1634 1.394 . S
C1632 H1648 0.931 . S
C1633 C1632 1.391 . S
C1633 C1637 1.376 . S
C1634 C1632 1.394 . S
C1634 C1635 1.369 . S
C1634 C1638 1.531 . S
C1635 C1634 1.369 . S
C1635 C1636 1.410 . S
C1635 C1643 1.503 . S
C1636 C1635 1.410 . S
C1636 C1637 1.392 . S
C1636 C1639 1.511 . S
C1637 C1633 1.376 . S
C1637 C1636 1.392 . S
C1637 H1649 0.929 . S
C1638 C1634 1.531 . S
C1638 H1650 0.960 . S
C1638 H1651 0.962 . S
C1638 H1652 0.960 . S
C1639 C1636 1.511 . S
C1639 H1653 0.961 . S
C1639 H1654 0.961 . S
C1639 H1655 0.961 . S
C1640 C1641 1.370 . S
C1640 C1642 1.363 . S
C1640 H1656 0.931 . S
C1641 C1640 1.370 . S
C1641 C1645 1.408 . S
C1642 C1640 1.363 . S
C1642 C1643 1.370 . S
C1642 C1646 1.524 . S
C1643 C1635 1.503 . S
C1643 C1642 1.370 . S
C1643 C1644 1.403 . S
C1644 C1643 1.403 . S
C1644 C1645 1.404 . S
C1644 C1647 1.539 . S
C1645 C1641 1.408 . S
C1645 C1644 1.404 . S
C1645 H1657 0.930 . S
C1646 C1642 1.524 . S
C1646 H1658 0.956 . S
C1646 H1659 0.961 . S
C1646 H1660 0.961 . S
C1647 C1644 1.539 . S
C1647 H1661 0.958 . S
C1647 H1662 0.961 . S
C1647 H1663 0.960 . S
H1648 C1632 0.931 . S
H1649 C1637 0.929 . S
H1650 C1638 0.960 . S
H1651 C1638 0.962 . S
H1652 C1638 0.960 . S
H1653 C1639 0.961 . S
H1654 C1639 0.961 . S
H1655 C1639 0.961 . S
H1656 C1640 0.931 . S
H1657 C1645 0.930 . S
H1658 C1646 0.956 . S
H1659 C1646 0.961 . S
H1660 C1646 0.961 . S
H1661 C1647 0.958 . S
H1662 C1647 0.961 . S
H1663 C1647 0.960 . S
C1664 C1665 1.391 . S
C1664 C1666 1.394 . S
C1664 H1680 0.931 . S
C1665 C1664 1.391 . S
C1665 C1669 1.376 . S
C1666 C1664 1.394 . S
C1666 C1667 1.369 . S
C1666 C1670 1.531 . S
C1667 C1666 1.369 . S
C1667 C1668 1.410 . S
C1667 C1675 1.503 . S
C1668 C1667 1.410 . S
C1668 C1669 1.392 . S
C1668 C1671 1.511 . S
C1669 C1665 1.376 . S
C1669 C1668 1.392 . S
C1669 H1681 0.929 . S
C1670 C1666 1.531 . S
C1670 H1682 0.960 . S
C1670 H1683 0.962 . S
C1670 H1684 0.960 . S
C1671 C1668 1.511 . S
C1671 H1685 0.961 . S
C1671 H1686 0.961 . S
C1671 H1687 0.961 . S
C1672 C1673 1.370 . S
C1672 C1674 1.363 . S
C1672 H1688 0.931 . S
C1673 C1672 1.370 . S
C1673 C1677 1.408 . S
C1674 C1672 1.363 . S
C1674 C1675 1.370 . S
C1674 C1678 1.524 . S
C1675 C1667 1.503 . S
C1675 C1674 1.370 . S
C1675 C1676 1.403 . S
C1676 C1675 1.403 . S
C1676 C1677 1.404 . S
C1676 C1679 1.539 . S
C1677 C1673 1.408 . S
C1677 C1676 1.404 . S
C1677 H1689 0.930 . S
C1678 C1674 1.524 . S
C1678 H1690 0.956 . S
C1678 H1691 0.961 . S
C1678 H1692 0.961 . S
C1679 C1676 1.539 . S
C1679 H1693 0.958 . S
C1679 H1694 0.961 . S
C1679 H1695 0.960 . S
H1680 C1664 0.931 . S
H1681 C1669 0.929 . S
H1682 C1670 0.960 . S
H1683 C1670 0.962 . S
H1684 C1670 0.960 . S
H1685 C1671 0.961 . S
H1686 C1671 0.961 . S
H1687 C1671 0.961 . S
H1688 C1672 0.931 . S
H1689 C1677 0.930 . S
H1690 C1678 0.956 . S
H1691 C1678 0.961 . S
H1692 C1678 0.961 . S
H1693 C1679 0.958 . S
H1694 C1679 0.961 . S
H1695 C1679 0.960 . S
C1696 C1697 1.391 . S
C1696 C1698 1.394 . S
C1696 H1712 0.931 . S
C1697 C1696 1.391 . S
C1697 C1701 1.376 . S
C1698 C1696 1.394 . S
C1698 C1699 1.369 . S
C1698 C1702 1.531 . S
C1699 C1698 1.369 . S
C1699 C1700 1.410 . S
C1699 C1707 1.503 1_655 S
C1700 C1699 1.410 . S
C1700 C1701 1.392 . S
C1700 C1703 1.511 . S
C1701 C1697 1.376 . S
C1701 C1700 1.392 . S
C1701 H1713 0.929 . S
C1702 C1698 1.531 . S
C1702 H1714 0.960 1_655 S
C1702 H1715 0.962 . S
C1702 H1716 0.960 . S
C1703 C1700 1.511 . S
C1703 H1717 0.961 . S
C1703 H1718 0.961 1_655 S
C1703 H1719 0.961 . S
C1704 C1705 1.370 . S
C1704 C1706 1.363 . S
C1704 H1720 0.931 . S
C1705 C1704 1.370 . S
C1705 C1709 1.408 . S
C1706 C1704 1.363 . S
C1706 C1707 1.370 . S
C1706 C1710 1.524 . S
C1707 C1699 1.503 1_455 S
C1707 C1706 1.370 . S
C1707 C1708 1.403 . S
C1708 C1707 1.403 . S
C1708 C1709 1.404 . S
C1708 C1711 1.539 . S
C1709 C1705 1.408 . S
C1709 C1708 1.404 . S
C1709 H1721 0.930 . S
C1710 C1706 1.524 . S
C1710 H1722 0.982 . S
C1710 H1723 0.919 1_455 S
C1710 H1724 0.961 . S
C1711 C1708 1.539 . S
C1711 H1725 0.958 . S
C1711 H1726 0.961 . S
C1711 H1727 0.967 . S
H1712 C1696 0.931 . S
H1713 C1701 0.929 . S
H1714 C1702 0.960 1_455 S
H1715 C1702 0.962 . S
H1716 C1702 0.960 . S
H1717 C1703 0.961 . S
H1718 C1703 0.961 1_455 S
H1719 C1703 0.961 . S
H1720 C1704 0.931 . S
H1721 C1709 0.930 . S
H1722 C1710 0.982 . S
H1723 C1710 0.919 1_655 S
H1724 C1710 0.961 . S
H1725 C1711 0.958 . S
H1726 C1711 0.961 . S
H1727 C1711 0.967 . S
C1728 C1729 1.391 . S
C1728 C1730 1.394 . S
C1728 H1744 0.931 . S
C1729 C1728 1.391 . S
C1729 C1733 1.376 . S
C1730 C1728 1.394 . S
C1730 C1731 1.369 . S
C1730 C1734 1.531 . S
C1731 C1730 1.369 . S
C1731 C1732 1.410 . S
C1731 C1739 1.503 . S
C1732 C1731 1.410 . S
C1732 C1733 1.392 . S
C1732 C1735 1.511 . S
C1733 C1729 1.376 . S
C1733 C1732 1.392 . S
C1733 H1745 0.929 . S
C1734 C1730 1.531 . S
C1734 H1746 0.960 . S
C1734 H1747 0.962 . S
C1734 H1748 0.960 . S
C1735 C1732 1.511 . S
C1735 H1749 0.961 . S
C1735 H1750 0.961 . S
C1735 H1751 0.961 . S
C1736 C1737 1.370 . S
C1736 C1738 1.363 . S
C1736 H1752 0.931 . S
C1737 C1736 1.370 . S
C1737 C1741 1.408 . S
C1738 C1736 1.363 . S
C1738 C1739 1.370 . S
C1738 C1742 1.524 . S
C1739 C1731 1.503 . S
C1739 C1738 1.370 . S
C1739 C1740 1.403 . S
C1740 C1739 1.403 . S
C1740 C1741 1.404 . S
C1740 C1743 1.539 . S
C1741 C1737 1.408 . S
C1741 C1740 1.404 . S
C1741 H1753 0.930 . S
C1742 C1738 1.524 . S
C1742 H1754 0.956 . S
C1742 H1755 0.961 . S
C1742 H1756 0.961 . S
C1743 C1740 1.539 . S
C1743 H1757 0.958 1_556 S
C1743 H1758 0.961 1_556 S
C1743 H1759 0.960 . S
H1744 C1728 0.931 . S
H1745 C1733 0.929 . S
H1746 C1734 0.960 . S
H1747 C1734 0.962 . S
H1748 C1734 0.960 . S
H1749 C1735 0.961 . S
H1750 C1735 0.961 . S
H1751 C1735 0.961 . S
H1752 C1736 0.931 . S
H1753 C1741 0.930 . S
H1754 C1742 0.956 . S
H1755 C1742 0.961 . S
H1756 C1742 0.961 . S
H1757 C1743 0.958 1_554 S
H1758 C1743 0.961 1_554 S
H1759 C1743 0.960 . S
C1760 C1761 1.391 . S
C1760 C1762 1.394 . S
C1760 H1776 0.931 . S
C1761 C1760 1.391 . S
C1761 C1765 1.376 . S
C1762 C1760 1.394 . S
C1762 C1763 1.369 . S
C1762 C1766 1.531 . S
C1763 C1762 1.369 . S
C1763 C1764 1.410 . S
C1763 C1771 1.503 . S
C1764 C1763 1.410 . S
C1764 C1765 1.392 . S
C1764 C1767 1.511 . S
C1765 C1761 1.376 . S
C1765 C1764 1.392 . S
C1765 H1777 0.929 . S
C1766 C1762 1.531 . S
C1766 H1778 0.960 . S
C1766 H1779 0.962 . S
C1766 H1780 0.960 . S
C1767 C1764 1.511 . S
C1767 H1781 0.961 . S
C1767 H1782 0.961 . S
C1767 H1783 0.961 . S
C1768 C1769 1.370 . S
C1768 C1770 1.363 . S
C1768 H1784 0.931 . S
C1769 C1768 1.370 . S
C1769 C1773 1.408 . S
C1770 C1768 1.363 . S
C1770 C1771 1.370 . S
C1770 C1774 1.524 . S
C1771 C1763 1.503 . S
C1771 C1770 1.370 . S
C1771 C1772 1.403 . S
C1772 C1771 1.403 . S
C1772 C1773 1.404 . S
C1772 C1775 1.539 . S
C1773 C1769 1.408 . S
C1773 C1772 1.404 . S
C1773 H1785 0.930 . S
C1774 C1770 1.524 . S
C1774 H1786 0.956 . S
C1774 H1787 0.961 . S
C1774 H1788 0.961 . S
C1775 C1772 1.539 . S
C1775 H1789 0.958 . S
C1775 H1790 0.961 . S
C1775 H1791 0.960 . S
H1776 C1760 0.931 . S
H1777 C1765 0.929 . S
H1778 C1766 0.960 . S
H1779 C1766 0.962 . S
H1780 C1766 0.960 . S
H1781 C1767 0.961 . S
H1782 C1767 0.961 . S
H1783 C1767 0.961 . S
H1784 C1768 0.931 . S
H1785 C1773 0.930 . S
H1786 C1774 0.956 . S
H1787 C1774 0.961 . S
H1788 C1774 0.961 . S
H1789 C1775 0.958 . S
H1790 C1775 0.961 . S
H1791 C1775 0.960 . S
C1792 C1793 1.391 . S
C1792 C1794 1.394 . S
C1792 H1808 0.931 . S
C1793 C1792 1.391 . S
C1793 C1797 1.376 . S
C1794 C1792 1.394 . S
C1794 C1795 1.369 . S
C1794 C1798 1.531 . S
C1795 C1794 1.369 . S
C1795 C1796 1.410 . S
C1795 C1803 1.503 . S
C1796 C1795 1.410 . S
C1796 C1797 1.392 . S
C1796 C1799 1.511 . S
C1797 C1793 1.376 . S
C1797 C1796 1.392 . S
C1797 H1809 0.929 . S
C1798 C1794 1.531 . S
C1798 H1810 0.960 . S
C1798 H1811 0.962 . S
C1798 H1812 0.960 . S
C1799 C1796 1.511 . S
C1799 H1813 0.961 . S
C1799 H1814 0.961 . S
C1799 H1815 0.961 . S
C1800 C1801 1.370 . S
C1800 C1802 1.363 . S
C1800 H1816 0.931 . S
C1801 C1800 1.370 . S
C1801 C1805 1.408 . S
C1802 C1800 1.363 . S
C1802 C1803 1.370 . S
C1802 C1806 1.524 . S
C1803 C1795 1.503 . S
C1803 C1802 1.370 . S
C1803 C1804 1.403 . S
C1804 C1803 1.403 . S
C1804 C1805 1.404 . S
C1804 C1807 1.539 . S
C1805 C1801 1.408 . S
C1805 C1804 1.404 . S
C1805 H1817 0.930 . S
C1806 C1802 1.524 . S
C1806 H1818 0.956 . S
C1806 H1819 0.961 . S
C1806 H1820 0.961 . S
C1807 C1804 1.539 . S
C1807 H1821 0.958 . S
C1807 H1822 0.961 . S
C1807 H1823 0.960 . S
H1808 C1792 0.931 . S
H1809 C1797 0.929 . S
H1810 C1798 0.960 . S
H1811 C1798 0.962 . S
H1812 C1798 0.960 . S
H1813 C1799 0.961 . S
H1814 C1799 0.961 . S
H1815 C1799 0.961 . S
H1816 C1800 0.931 . S
H1817 C1805 0.930 . S
H1818 C1806 0.956 . S
H1819 C1806 0.961 . S
H1820 C1806 0.961 . S
H1821 C1807 0.958 . S
H1822 C1807 0.961 . S
H1823 C1807 0.960 . S
C1824 C1825 1.391 . S
C1824 C1826 1.394 . S
C1824 H1840 0.931 . S
C1825 C1824 1.391 . S
C1825 C1829 1.376 . S
C1826 C1824 1.394 . S
C1826 C1827 1.369 . S
C1826 C1830 1.531 . S
C1827 C1826 1.369 . S
C1827 C1828 1.410 . S
C1827 C1835 1.503 . S
C1828 C1827 1.410 . S
C1828 C1829 1.392 . S
C1828 C1831 1.511 . S
C1829 C1825 1.376 . S
C1829 C1828 1.392 . S
C1829 H1841 0.929 . S
C1830 C1826 1.531 . S
C1830 H1842 0.960 . S
C1830 H1843 0.962 . S
C1830 H1844 0.960 . S
C1831 C1828 1.511 . S
C1831 H1845 0.961 . S
C1831 H1846 0.961 . S
C1831 H1847 0.961 . S
C1832 C1833 1.370 . S
C1832 C1834 1.363 . S
C1832 H1848 0.931 . S
C1833 C1832 1.370 . S
C1833 C1837 1.408 . S
C1834 C1832 1.363 . S
C1834 C1835 1.370 . S
C1834 C1838 1.524 . S
C1835 C1827 1.503 . S
C1835 C1834 1.370 . S
C1835 C1836 1.403 . S
C1836 C1835 1.403 . S
C1836 C1837 1.404 . S
C1836 C1839 1.539 . S
C1837 C1833 1.408 . S
C1837 C1836 1.404 . S
C1837 H1849 0.930 . S
C1838 C1834 1.524 . S
C1838 H1850 0.956 . S
C1838 H1851 0.961 . S
C1838 H1852 0.961 . S
C1839 C1836 1.539 . S
C1839 H1853 0.958 . S
C1839 H1854 0.961 . S
C1839 H1855 0.960 . S
H1840 C1824 0.931 . S
H1841 C1829 0.929 . S
H1842 C1830 0.960 . S
H1843 C1830 0.962 . S
H1844 C1830 0.960 . S
H1845 C1831 0.961 . S
H1846 C1831 0.961 . S
H1847 C1831 0.961 . S
H1848 C1832 0.931 . S
H1849 C1837 0.930 . S
H1850 C1838 0.956 . S
H1851 C1838 0.961 . S
H1852 C1838 0.961 . S
H1853 C1839 0.958 . S
H1854 C1839 0.961 . S
H1855 C1839 0.960 . S
C1856 C1857 1.391 . S
C1856 C1858 1.394 . S
C1856 H1872 0.931 . S
C1857 C1856 1.391 . S
C1857 C1861 1.376 . S
C1858 C1856 1.394 . S
C1858 C1859 1.369 . S
C1858 C1862 1.531 . S
C1859 C1858 1.369 . S
C1859 C1860 1.410 . S
C1859 C1867 1.503 . S
C1860 C1859 1.410 . S
C1860 C1861 1.392 . S
C1860 C1863 1.511 . S
C1861 C1857 1.376 . S
C1861 C1860 1.392 . S
C1861 H1873 0.929 . S
C1862 C1858 1.531 . S
C1862 H1874 0.960 . S
C1862 H1875 0.962 . S
C1862 H1876 0.960 . S
C1863 C1860 1.511 . S
C1863 H1877 0.961 . S
C1863 H1878 0.961 . S
C1863 H1879 0.961 . S
C1864 C1865 1.370 . S
C1864 C1866 1.363 . S
C1864 H1880 0.931 . S
C1865 C1864 1.370 . S
C1865 C1869 1.408 . S
C1866 C1864 1.363 . S
C1866 C1867 1.370 . S
C1866 C1870 1.524 . S
C1867 C1859 1.503 . S
C1867 C1866 1.370 . S
C1867 C1868 1.403 . S
C1868 C1867 1.403 . S
C1868 C1869 1.404 . S
C1868 C1871 1.539 . S
C1869 C1865 1.408 . S
C1869 C1868 1.404 . S
C1869 H1881 0.930 . S
C1870 C1866 1.524 . S
C1870 H1882 0.956 . S
C1870 H1883 0.961 . S
C1870 H1884 0.961 . S
C1871 C1868 1.539 . S
C1871 H1885 0.958 . S
C1871 H1886 0.961 1_556 S
C1871 H1887 0.960 . S
H1872 C1856 0.931 . S
H1873 C1861 0.929 . S
H1874 C1862 0.960 . S
H1875 C1862 0.962 . S
H1876 C1862 0.960 . S
H1877 C1863 0.961 . S
H1878 C1863 0.961 . S
H1879 C1863 0.961 . S
H1880 C1864 0.931 . S
H1881 C1869 0.930 . S
H1882 C1870 0.956 . S
H1883 C1870 0.961 . S
H1884 C1870 0.961 . S
H1885 C1871 0.958 . S
H1886 C1871 0.961 1_554 S
H1887 C1871 0.960 . S
C1888 C1889 1.391 . S
C1888 C1890 1.394 . S
C1888 H1904 0.931 . S
C1889 C1888 1.391 . S
C1889 C1893 1.376 . S
C1890 C1888 1.394 . S
C1890 C1891 1.369 . S
C1890 C1894 1.531 . S
C1891 C1890 1.369 . S
C1891 C1892 1.410 . S
C1891 C1899 1.503 1_655 S
C1892 C1891 1.410 . S
C1892 C1893 1.392 . S
C1892 C1895 1.511 . S
C1893 C1889 1.376 . S
C1893 C1892 1.392 . S
C1893 H1905 0.929 . S
C1894 C1890 1.531 . S
C1894 H1906 0.960 1_655 S
C1894 H1907 0.962 . S
C1894 H1908 0.960 . S
C1895 C1892 1.511 . S
C1895 H1909 0.961 . S
C1895 H1910 0.961 1_655 S
C1895 H1911 0.961 . S
C1896 C1897 1.370 . S
C1896 C1898 1.363 . S
C1896 H1912 0.931 . S
C1897 C1896 1.370 . S
C1897 C1901 1.408 . S
C1898 C1896 1.363 . S
C1898 C1899 1.370 . S
C1898 C1902 1.524 . S
C1899 C1891 1.503 1_455 S
C1899 C1898 1.370 . S
C1899 C1900 1.403 . S
C1900 C1899 1.403 . S
C1900 C1901 1.404 . S
C1900 C1903 1.539 . S
C1901 C1897 1.408 . S
C1901 C1900 1.404 . S
C1901 H1913 0.930 . S
C1902 C1898 1.524 . S
C1902 H1914 0.982 . S
C1902 H1915 0.919 1_455 S
C1902 H1916 0.961 . S
C1903 C1900 1.539 . S
C1903 H1917 0.958 . S
C1903 H1918 0.961 . S
C1903 H1919 0.967 . S
H1904 C1888 0.931 . S
H1905 C1893 0.929 . S
H1906 C1894 0.960 1_455 S
H1907 C1894 0.962 . S
H1908 C1894 0.960 . S
H1909 C1895 0.961 . S
H1910 C1895 0.961 1_455 S
H1911 C1895 0.961 . S
H1912 C1896 0.931 . S
H1913 C1901 0.930 . S
H1914 C1902 0.982 . S
H1915 C1902 0.919 1_655 S
H1916 C1902 0.961 . S
H1917 C1903 0.958 . S
H1918 C1903 0.961 . S
H1919 C1903 0.967 . S
C1920 C1921 1.391 . S
C1920 C1922 1.394 . S
C1920 H1936 0.931 . S
C1921 C1920 1.391 . S
C1921 C1925 1.376 . S
C1922 C1920 1.394 . S
C1922 C1923 1.369 . S
C1922 C1926 1.531 . S
C1923 C1922 1.369 . S
C1923 C1924 1.410 . S
C1923 C1931 1.503 1_655 S
C1924 C1923 1.410 . S
C1924 C1925 1.392 . S
C1924 C1927 1.511 . S
C1925 C1921 1.376 . S
C1925 C1924 1.392 . S
C1925 H1937 0.929 . S
C1926 C1922 1.531 . S
C1926 H1938 0.960 1_655 S
C1926 H1939 0.962 . S
C1926 H1940 0.960 . S
C1927 C1924 1.511 . S
C1927 H1941 0.961 . S
C1927 H1942 0.961 1_655 S
C1927 H1943 0.961 . S
C1928 C1929 1.370 . S
C1928 C1930 1.363 . S
C1928 H1944 0.931 . S
C1929 C1928 1.370 . S
C1929 C1933 1.408 . S
C1930 C1928 1.363 . S
C1930 C1931 1.370 . S
C1930 C1934 1.524 . S
C1931 C1923 1.503 1_455 S
C1931 C1930 1.370 . S
C1931 C1932 1.403 . S
C1932 C1931 1.403 . S
C1932 C1933 1.404 . S
C1932 C1935 1.539 . S
C1933 C1929 1.408 . S
C1933 C1932 1.404 . S
C1933 H1945 0.930 . S
C1934 C1930 1.524 . S
C1934 H1946 0.982 . S
C1934 H1947 0.919 1_455 S
C1934 H1948 0.961 . S
C1935 C1932 1.539 . S
C1935 H1949 0.958 . S
C1935 H1950 0.961 . S
C1935 H1951 0.967 . S
H1936 C1920 0.931 . S
H1937 C1925 0.929 . S
H1938 C1926 0.960 1_455 S
H1939 C1926 0.962 . S
H1940 C1926 0.960 . S
H1941 C1927 0.961 . S
H1942 C1927 0.961 1_455 S
H1943 C1927 0.961 . S
H1944 C1928 0.931 . S
H1945 C1933 0.930 . S
H1946 C1934 0.982 . S
H1947 C1934 0.919 1_655 S
H1948 C1934 0.961 . S
H1949 C1935 0.958 . S
H1950 C1935 0.961 . S
H1951 C1935 0.967 . S
C1952 C1953 1.391 . S
C1952 C1954 1.394 . S
C1952 H1968 0.931 . S
C1953 C1952 1.391 . S
C1953 C1957 1.376 . S
C1954 C1952 1.394 . S
C1954 C1955 1.369 . S
C1954 C1958 1.531 . S
C1955 C1954 1.369 . S
C1955 C1956 1.410 . S
C1955 C1963 1.503 . S
C1956 C1955 1.410 . S
C1956 C1957 1.392 . S
C1956 C1959 1.511 . S
C1957 C1953 1.376 . S
C1957 C1956 1.392 . S
C1957 H1969 0.929 . S
C1958 C1954 1.531 . S
C1958 H1970 0.960 . S
C1958 H1971 0.962 . S
C1958 H1972 0.960 . S
C1959 C1956 1.511 . S
C1959 H1973 0.961 . S
C1959 H1974 0.961 . S
C1959 H1975 0.961 . S
C1960 C1961 1.370 . S
C1960 C1962 1.363 . S
C1960 H1976 0.931 . S
C1961 C1960 1.370 . S
C1961 C1965 1.408 . S
C1962 C1960 1.363 . S
C1962 C1963 1.370 . S
C1962 C1966 1.524 . S
C1963 C1955 1.503 . S
C1963 C1962 1.370 . S
C1963 C1964 1.403 . S
C1964 C1963 1.403 . S
C1964 C1965 1.404 . S
C1964 C1967 1.539 . S
C1965 C1961 1.408 . S
C1965 C1964 1.404 . S
C1965 H1977 0.930 . S
C1966 C1962 1.524 . S
C1966 H1978 0.956 . S
C1966 H1979 0.961 . S
C1966 H1980 0.961 . S
C1967 C1964 1.539 . S
C1967 H1981 0.958 . S
C1967 H1982 0.961 . S
C1967 H1983 0.960 . S
H1968 C1952 0.931 . S
H1969 C1957 0.929 . S
H1970 C1958 0.960 . S
H1971 C1958 0.962 . S
H1972 C1958 0.960 . S
H1973 C1959 0.961 . S
H1974 C1959 0.961 . S
H1975 C1959 0.961 . S
H1976 C1960 0.931 . S
H1977 C1965 0.930 . S
H1978 C1966 0.956 . S
H1979 C1966 0.961 . S
H1980 C1966 0.961 . S
H1981 C1967 0.958 . S
H1982 C1967 0.961 . S
H1983 C1967 0.960 . S
C1984 C1985 1.391 . S
C1984 C1986 1.394 . S
C1984 H2000 0.931 . S
C1985 C1984 1.391 . S
C1985 C1989 1.376 . S
C1986 C1984 1.394 . S
C1986 C1987 1.369 . S
C1986 C1990 1.531 . S
C1987 C1986 1.369 . S
C1987 C1988 1.410 . S
C1987 C1995 1.503 . S
C1988 C1987 1.410 . S
C1988 C1989 1.392 . S
C1988 C1991 1.511 . S
C1989 C1985 1.376 . S
C1989 C1988 1.392 . S
C1989 H2001 0.929 . S
C1990 C1986 1.531 . S
C1990 H2002 0.960 . S
C1990 H2003 0.962 . S
C1990 H2004 0.960 . S
C1991 C1988 1.511 . S
C1991 H2005 0.961 . S
C1991 H2006 0.961 . S
C1991 H2007 0.961 . S
C1992 C1993 1.370 . S
C1992 C1994 1.363 . S
C1992 H2008 0.931 . S
C1993 C1992 1.370 . S
C1993 C1997 1.408 . S
C1994 C1992 1.363 . S
C1994 C1995 1.370 . S
C1994 C1998 1.524 . S
C1995 C1987 1.503 . S
C1995 C1994 1.370 . S
C1995 C1996 1.403 . S
C1996 C1995 1.403 . S
C1996 C1997 1.404 . S
C1996 C1999 1.539 . S
C1997 C1993 1.408 . S
C1997 C1996 1.404 . S
C1997 H2009 0.930 . S
C1998 C1994 1.524 . S
C1998 H2010 0.956 . S
C1998 H2011 0.961 . S
C1998 H2012 0.961 . S
C1999 C1996 1.539 . S
C1999 H2013 0.958 . S
C1999 H2014 0.961 . S
C1999 H2015 0.960 . S
H2000 C1984 0.931 . S
H2001 C1989 0.929 . S
H2002 C1990 0.960 . S
H2003 C1990 0.962 . S
H2004 C1990 0.960 . S
H2005 C1991 0.961 . S
H2006 C1991 0.961 . S
H2007 C1991 0.961 . S
H2008 C1992 0.931 . S
H2009 C1997 0.930 . S
H2010 C1998 0.956 . S
H2011 C1998 0.961 . S
H2012 C1998 0.961 . S
H2013 C1999 0.958 . S
H2014 C1999 0.961 . S
H2015 C1999 0.960 . S
C2016 C2017 1.391 . S
C2016 C2018 1.394 . S
C2016 H2032 0.931 . S
C2017 C2016 1.391 . S
C2017 C2021 1.376 . S
C2018 C2016 1.394 . S
C2018 C2019 1.369 . S
C2018 C2022 1.531 . S
C2019 C2018 1.369 . S
C2019 C2020 1.410 . S
C2019 C2027 1.503 . S
C2020 C2019 1.410 . S
C2020 C2021 1.392 . S
C2020 C2023 1.511 . S
C2021 C2017 1.376 . S
C2021 C2020 1.392 . S
C2021 H2033 0.929 . S
C2022 C2018 1.531 . S
C2022 H2034 0.960 . S
C2022 H2035 0.962 . S
C2022 H2036 0.960 . S
C2023 C2020 1.511 . S
C2023 H2037 0.961 . S
C2023 H2038 0.961 . S
C2023 H2039 0.961 . S
C2024 C2025 1.370 . S
C2024 C2026 1.363 . S
C2024 H2040 0.931 . S
C2025 C2024 1.370 . S
C2025 C2029 1.408 . S
C2026 C2024 1.363 . S
C2026 C2027 1.370 . S
C2026 C2030 1.524 . S
C2027 C2019 1.503 . S
C2027 C2026 1.370 . S
C2027 C2028 1.403 . S
C2028 C2027 1.403 . S
C2028 C2029 1.404 . S
C2028 C2031 1.539 . S
C2029 C2025 1.408 . S
C2029 C2028 1.404 . S
C2029 H2041 0.930 . S
C2030 C2026 1.524 . S
C2030 H2042 0.956 . S
C2030 H2043 0.961 . S
C2030 H2044 0.961 . S
C2031 C2028 1.539 . S
C2031 H2045 0.958 . S
C2031 H2046 0.961 . S
C2031 H2047 0.960 . S
H2032 C2016 0.931 . S
H2033 C2021 0.929 . S
H2034 C2022 0.960 . S
H2035 C2022 0.962 . S
H2036 C2022 0.960 . S
H2037 C2023 0.961 . S
H2038 C2023 0.961 . S
H2039 C2023 0.961 . S
H2040 C2024 0.931 . S
H2041 C2029 0.930 . S
H2042 C2030 0.956 . S
H2043 C2030 0.961 . S
H2044 C2030 0.961 . S
H2045 C2031 0.958 . S
H2046 C2031 0.961 . S
H2047 C2031 0.960 . S
C2048 C2049 1.391 . S
C2048 C2050 1.394 . S
C2048 H2064 0.931 1_556 S
C2049 C2048 1.391 . S
C2049 C2053 1.376 . S
C2050 C2048 1.394 . S
C2050 C2051 1.369 . S
C2050 C2054 1.531 . S
C2051 C2050 1.369 . S
C2051 C2052 1.410 . S
C2051 C2059 1.503 . S
C2052 C2051 1.410 . S
C2052 C2053 1.392 . S
C2052 C2055 1.511 . S
C2053 C2049 1.376 . S
C2053 C2052 1.392 . S
C2053 H2065 0.929 . S
C2054 C2050 1.531 . S
C2054 H2066 0.960 . S
C2054 H2067 0.962 . S
C2054 H2068 0.960 . S
C2055 C2052 1.511 . S
C2055 H2069 0.961 . S
C2055 H2070 0.961 . S
C2055 H2071 0.961 . S
C2056 C2057 1.370 . S
C2056 C2058 1.363 . S
C2056 H2072 0.931 . S
C2057 C2056 1.370 . S
C2057 C2061 1.408 . S
C2058 C2056 1.363 . S
C2058 C2059 1.370 . S
C2058 C2062 1.524 . S
C2059 C2051 1.503 . S
C2059 C2058 1.370 . S
C2059 C2060 1.403 . S
C2060 C2059 1.403 . S
C2060 C2061 1.404 . S
C2060 C2063 1.539 . S
C2061 C2057 1.408 . S
C2061 C2060 1.404 . S
C2061 H2073 0.930 . S
C2062 C2058 1.524 . S
C2062 H2074 0.956 . S
C2062 H2075 0.961 . S
C2062 H2076 0.961 . S
C2063 C2060 1.539 . S
C2063 H2077 0.958 . S
C2063 H2078 0.961 . S
C2063 H2079 0.960 . S
H2064 C2048 0.931 1_554 S
H2065 C2053 0.929 . S
H2066 C2054 0.960 . S
H2067 C2054 0.962 . S
H2068 C2054 0.960 . S
H2069 C2055 0.961 . S
H2070 C2055 0.961 . S
H2071 C2055 0.961 . S
H2072 C2056 0.931 . S
H2073 C2061 0.930 . S
H2074 C2062 0.956 . S
H2075 C2062 0.961 . S
H2076 C2062 0.961 . S
H2077 C2063 0.958 . S
H2078 C2063 0.961 . S
H2079 C2063 0.960 . S
C2080 C2081 1.391 . S
C2080 C2082 1.394 . S
C2080 H2096 0.931 . S
C2081 C2080 1.391 . S
C2081 C2085 1.376 . S
C2082 C2080 1.394 . S
C2082 C2083 1.369 . S
C2082 C2086 1.531 . S
C2083 C2082 1.369 . S
C2083 C2084 1.410 . S
C2083 C2091 1.503 . S
C2084 C2083 1.410 . S
C2084 C2085 1.392 . S
C2084 C2087 1.511 . S
C2085 C2081 1.376 . S
C2085 C2084 1.392 . S
C2085 H2097 0.929 . S
C2086 C2082 1.531 . S
C2086 H2098 0.960 . S
C2086 H2099 0.962 . S
C2086 H2100 0.960 . S
C2087 C2084 1.511 . S
C2087 H2101 0.961 . S
C2087 H2102 0.961 . S
C2087 H2103 0.961 . S
C2088 C2089 1.370 . S
C2088 C2090 1.363 . S
C2088 H2104 0.931 . S
C2089 C2088 1.370 . S
C2089 C2093 1.408 . S
C2090 C2088 1.363 . S
C2090 C2091 1.370 . S
C2090 C2094 1.524 . S
C2091 C2083 1.503 . S
C2091 C2090 1.370 . S
C2091 C2092 1.403 . S
C2092 C2091 1.403 . S
C2092 C2093 1.404 . S
C2092 C2095 1.539 . S
C2093 C2089 1.408 . S
C2093 C2092 1.404 . S
C2093 H2105 0.930 . S
C2094 C2090 1.524 . S
C2094 H2106 0.956 . S
C2094 H2107 0.961 . S
C2094 H2108 0.961 . S
C2095 C2092 1.539 . S
C2095 H2109 0.958 . S
C2095 H2110 0.961 . S
C2095 H2111 0.960 . S
H2096 C2080 0.931 . S
H2097 C2085 0.929 . S
H2098 C2086 0.960 . S
H2099 C2086 0.962 . S
H2100 C2086 0.960 . S
H2101 C2087 0.961 . S
H2102 C2087 0.961 . S
H2103 C2087 0.961 . S
H2104 C2088 0.931 . S
H2105 C2093 0.930 . S
H2106 C2094 0.956 . S
H2107 C2094 0.961 . S
H2108 C2094 0.961 . S
H2109 C2095 0.958 . S
H2110 C2095 0.961 . S
H2111 C2095 0.960 . S
C2112 C2113 1.391 . S
C2112 C2114 1.394 . S
C2112 H2128 0.931 . S
C2113 C2112 1.391 . S
C2113 C2117 1.376 . S
C2114 C2112 1.394 . S
C2114 C2115 1.369 . S
C2114 C2118 1.531 . S
C2115 C2114 1.369 . S
C2115 C2116 1.410 . S
C2115 C2123 1.503 . S
C2116 C2115 1.410 . S
C2116 C2117 1.392 . S
C2116 C2119 1.511 . S
C2117 C2113 1.376 . S
C2117 C2116 1.392 . S
C2117 H2129 0.929 . S
C2118 C2114 1.531 . S
C2118 H2130 0.960 . S
C2118 H2131 0.962 . S
C2118 H2132 0.960 . S
C2119 C2116 1.511 . S
C2119 H2133 0.961 . S
C2119 H2134 0.961 . S
C2119 H2135 0.961 . S
C2120 C2121 1.370 . S
C2120 C2122 1.363 . S
C2120 H2136 0.931 . S
C2121 C2120 1.370 . S
C2121 C2125 1.408 . S
C2122 C2120 1.363 . S
C2122 C2123 1.370 . S
C2122 C2126 1.524 . S
C2123 C2115 1.503 . S
C2123 C2122 1.370 . S
C2123 C2124 1.403 . S
C2124 C2123 1.403 . S
C2124 C2125 1.404 . S
C2124 C2127 1.539 . S
C2125 C2121 1.408 . S
C2125 C2124 1.404 . S
C2125 H2137 0.930 . S
C2126 C2122 1.524 . S
C2126 H2138 0.956 . S
C2126 H2139 0.961 . S
C2126 H2140 0.961 . S
C2127 C2124 1.539 . S
C2127 H2141 0.958 . S
C2127 H2142 0.961 . S
C2127 H2143 0.960 . S
H2128 C2112 0.931 . S
H2129 C2117 0.929 . S
H2130 C2118 0.960 . S
H2131 C2118 0.962 . S
H2132 C2118 0.960 . S
H2133 C2119 0.961 . S
H2134 C2119 0.961 . S
H2135 C2119 0.961 . S
H2136 C2120 0.931 . S
H2137 C2125 0.930 . S
H2138 C2126 0.956 . S
H2139 C2126 0.961 . S
H2140 C2126 0.961 . S
H2141 C2127 0.958 . S
H2142 C2127 0.961 . S
H2143 C2127 0.960 . S
C2144 C2145 1.391 . S
C2144 C2146 1.394 . S
C2144 H2160 0.931 . S
C2145 C2144 1.391 . S
C2145 C2149 1.376 . S
C2146 C2144 1.394 . S
C2146 C2147 1.369 . S
C2146 C2150 1.531 . S
C2147 C2146 1.369 . S
C2147 C2148 1.410 . S
C2147 C2155 1.503 . S
C2148 C2147 1.410 . S
C2148 C2149 1.392 . S
C2148 C2151 1.511 . S
C2149 C2145 1.376 . S
C2149 C2148 1.392 . S
C2149 H2161 0.929 . S
C2150 C2146 1.531 . S
C2150 H2162 0.960 . S
C2150 H2163 0.962 . S
C2150 H2164 0.960 . S
C2151 C2148 1.511 . S
C2151 H2165 0.961 . S
C2151 H2166 0.961 . S
C2151 H2167 0.961 . S
C2152 C2153 1.370 . S
C2152 C2154 1.363 . S
C2152 H2168 0.931 . S
C2153 C2152 1.370 . S
C2153 C2157 1.408 . S
C2154 C2152 1.363 . S
C2154 C2155 1.370 . S
C2154 C2158 1.524 . S
C2155 C2147 1.503 . S
C2155 C2154 1.370 . S
C2155 C2156 1.403 . S
C2156 C2155 1.403 . S
C2156 C2157 1.404 . S
C2156 C2159 1.539 . S
C2157 C2153 1.408 . S
C2157 C2156 1.404 . S
C2157 H2169 0.930 . S
C2158 C2154 1.524 . S
C2158 H2170 0.956 . S
C2158 H2171 0.961 . S
C2158 H2172 0.961 . S
C2159 C2156 1.539 . S
C2159 H2173 0.958 . S
C2159 H2174 0.961 . S
C2159 H2175 0.960 . S
H2160 C2144 0.931 . S
H2161 C2149 0.929 . S
H2162 C2150 0.960 . S
H2163 C2150 0.962 . S
H2164 C2150 0.960 . S
H2165 C2151 0.961 . S
H2166 C2151 0.961 . S
H2167 C2151 0.961 . S
H2168 C2152 0.931 . S
H2169 C2157 0.930 . S
H2170 C2158 0.956 . S
H2171 C2158 0.961 . S
H2172 C2158 0.961 . S
H2173 C2159 0.958 . S
H2174 C2159 0.961 . S
H2175 C2159 0.960 . S
C2176 C2177 1.391 . S
C2176 C2178 1.394 . S
C2176 H2192 0.931 . S
C2177 C2176 1.391 . S
C2177 C2181 1.376 . S
C2178 C2176 1.394 . S
C2178 C2179 1.369 . S
C2178 C2182 1.531 . S
C2179 C2178 1.369 . S
C2179 C2180 1.410 . S
C2179 C2187 1.503 . S
C2180 C2179 1.410 . S
C2180 C2181 1.392 . S
C2180 C2183 1.511 . S
C2181 C2177 1.376 . S
C2181 C2180 1.392 . S
C2181 H2193 0.929 . S
C2182 C2178 1.531 . S
C2182 H2194 0.960 . S
C2182 H2195 0.962 . S
C2182 H2196 0.960 . S
C2183 C2180 1.511 . S
C2183 H2197 0.961 . S
C2183 H2198 0.961 . S
C2183 H2199 0.961 . S
C2184 C2185 1.370 . S
C2184 C2186 1.363 . S
C2184 H2200 0.931 . S
C2185 C2184 1.370 . S
C2185 C2189 1.413 . S
C2186 C2184 1.363 . S
C2186 C2187 1.370 . S
C2186 C2190 1.524 . S
C2187 C2179 1.503 . S
C2187 C2186 1.370 . S
C2187 C2188 1.403 . S
C2188 C2187 1.403 . S
C2188 C2189 1.417 . S
C2188 C2191 1.539 . S
C2189 C2185 1.413 . S
C2189 C2188 1.417 . S
C2189 H2201 0.913 1_554 S
C2190 C2186 1.524 . S
C2190 H2202 0.956 . S
C2190 H2203 0.961 . S
C2190 H2204 0.961 . S
C2191 C2188 1.539 . S
C2191 H2205 0.958 . S
C2191 H2206 0.961 1_554 S
C2191 H2207 0.960 . S
H2192 C2176 0.931 . S
H2193 C2181 0.929 . S
H2194 C2182 0.960 . S
H2195 C2182 0.962 . S
H2196 C2182 0.960 . S
H2197 C2183 0.961 . S
H2198 C2183 0.961 . S
H2199 C2183 0.961 . S
H2200 C2184 0.931 . S
H2201 C2189 0.913 1_556 S
H2202 C2190 0.956 . S
H2203 C2190 0.961 . S
H2204 C2190 0.961 . S
H2205 C2191 0.958 . S
H2206 C2191 0.961 1_556 S
H2207 C2191 0.960 . S
C2208 C2209 1.391 . S
C2208 C2210 1.394 . S
C2208 H2224 0.931 . S
C2209 C2208 1.391 . S
C2209 C2213 1.376 . S
C2210 C2208 1.394 . S
C2210 C2211 1.369 . S
C2210 C2214 1.531 . S
C2211 C2210 1.369 . S
C2211 C2212 1.410 . S
C2211 C2219 1.503 . S
C2212 C2211 1.410 . S
C2212 C2213 1.392 . S
C2212 C2215 1.511 . S
C2213 C2209 1.376 . S
C2213 C2212 1.392 . S
C2213 H2225 0.929 . S
C2214 C2210 1.531 . S
C2214 H2226 0.960 . S
C2214 H2227 0.962 . S
C2214 H2228 0.960 . S
C2215 C2212 1.511 . S
C2215 H2229 0.961 . S
C2215 H2230 0.961 . S
C2215 H2231 0.961 . S
C2216 C2217 1.370 . S
C2216 C2218 1.363 . S
C2216 H2232 0.931 . S
C2217 C2216 1.370 . S
C2217 C2221 1.404 1_556 S
C2218 C2216 1.363 . S
C2218 C2219 1.370 . S
C2218 C2222 1.524 . S
C2219 C2211 1.503 . S
C2219 C2218 1.370 . S
C2219 C2220 1.403 . S
C2220 C2219 1.403 . S
C2220 C2221 1.393 1_556 S
C2220 C2223 1.539 . S
C2221 C2217 1.404 1_554 S
C2221 C2220 1.393 1_554 S
C2221 H2233 0.944 . S
C2222 C2218 1.524 . S
C2222 H2234 0.956 . S
C2222 H2235 0.961 . S
C2222 H2236 0.961 . S
C2223 C2220 1.539 . S
C2223 H2237 0.958 . S
C2223 H2238 0.961 1_556 S
C2223 H2239 0.960 . S
H2224 C2208 0.931 . S
H2225 C2213 0.929 . S
H2226 C2214 0.960 . S
H2227 C2214 0.962 . S
H2228 C2214 0.960 . S
H2229 C2215 0.961 . S
H2230 C2215 0.961 . S
H2231 C2215 0.961 . S
H2232 C2216 0.931 . S
H2233 C2221 0.944 . S
H2234 C2222 0.956 . S
H2235 C2222 0.961 . S
H2236 C2222 0.961 . S
H2237 C2223 0.958 . S
H2238 C2223 0.961 1_554 S
H2239 C2223 0.960 . S
C2240 C2241 1.391 . S
C2240 C2242 1.394 . S
C2240 H2256 0.931 . S
C2241 C2240 1.391 . S
C2241 C2245 1.376 . S
C2242 C2240 1.394 . S
C2242 C2243 1.369 . S
C2242 C2246 1.531 . S
C2243 C2242 1.369 . S
C2243 C2244 1.410 . S
C2243 C2251 1.503 . S
C2244 C2243 1.410 . S
C2244 C2245 1.392 . S
C2244 C2247 1.511 . S
C2245 C2241 1.376 . S
C2245 C2244 1.392 . S
C2245 H2257 0.929 . S
C2246 C2242 1.531 . S
C2246 H2258 0.960 . S
C2246 H2259 0.962 . S
C2246 H2260 0.960 . S
C2247 C2244 1.511 . S
C2247 H2261 0.961 . S
C2247 H2262 0.961 . S
C2247 H2263 0.961 . S
C2248 C2249 1.370 . S
C2248 C2250 1.363 . S
C2248 H2264 0.931 . S
C2249 C2248 1.370 . S
C2249 C2253 1.408 . S
C2250 C2248 1.363 . S
C2250 C2251 1.370 . S
C2250 C2254 1.524 . S
C2251 C2243 1.503 . S
C2251 C2250 1.370 . S
C2251 C2252 1.403 . S
C2252 C2251 1.403 . S
C2252 C2253 1.404 . S
C2252 C2255 1.539 . S
C2253 C2249 1.408 . S
C2253 C2252 1.404 . S
C2253 H2265 0.930 . S
C2254 C2250 1.524 . S
C2254 H2266 0.956 . S
C2254 H2267 0.961 . S
C2254 H2268 0.961 . S
C2255 C2252 1.539 . S
C2255 H2269 0.958 . S
C2255 H2270 0.961 . S
C2255 H2271 0.960 . S
H2256 C2240 0.931 . S
H2257 C2245 0.929 . S
H2258 C2246 0.960 . S
H2259 C2246 0.962 . S
H2260 C2246 0.960 . S
H2261 C2247 0.961 . S
H2262 C2247 0.961 . S
H2263 C2247 0.961 . S
H2264 C2248 0.931 . S
H2265 C2253 0.930 . S
H2266 C2254 0.956 . S
H2267 C2254 0.961 . S
H2268 C2254 0.961 . S
H2269 C2255 0.958 . S
H2270 C2255 0.961 . S
H2271 C2255 0.960 . S
C2272 C2273 1.391 . S
C2272 C2274 1.394 . S
C2272 H2288 0.931 . S
C2273 C2272 1.391 . S
C2273 C2277 1.376 . S
C2274 C2272 1.394 . S
C2274 C2275 1.369 . S
C2274 C2278 1.531 . S
C2275 C2274 1.369 . S
C2275 C2276 1.410 . S
C2275 C2283 1.503 . S
C2276 C2275 1.410 . S
C2276 C2277 1.392 . S
C2276 C2279 1.511 . S
C2277 C2273 1.376 . S
C2277 C2276 1.392 . S
C2277 H2289 0.929 . S
C2278 C2274 1.531 . S
C2278 H2290 0.960 . S
C2278 H2291 0.962 . S
C2278 H2292 0.960 . S
C2279 C2276 1.511 . S
C2279 H2293 0.961 . S
C2279 H2294 0.961 . S
C2279 H2295 0.961 . S
C2280 C2281 1.370 . S
C2280 C2282 1.363 . S
C2280 H2296 0.931 . S
C2281 C2280 1.370 . S
C2281 C2285 1.408 . S
C2282 C2280 1.363 . S
C2282 C2283 1.370 . S
C2282 C2286 1.524 . S
C2283 C2275 1.503 . S
C2283 C2282 1.370 . S
C2283 C2284 1.403 . S
C2284 C2283 1.403 . S
C2284 C2285 1.404 . S
C2284 C2287 1.539 . S
C2285 C2281 1.408 . S
C2285 C2284 1.404 . S
C2285 H2297 0.930 1_554 S
C2286 C2282 1.524 . S
C2286 H2298 0.956 . S
C2286 H2299 0.961 . S
C2286 H2300 0.961 . S
C2287 C2284 1.539 . S
C2287 H2301 0.958 . S
C2287 H2302 0.961 . S
C2287 H2303 0.960 . S
H2288 C2272 0.931 . S
H2289 C2277 0.929 . S
H2290 C2278 0.960 . S
H2291 C2278 0.962 . S
H2292 C2278 0.960 . S
H2293 C2279 0.961 . S
H2294 C2279 0.961 . S
H2295 C2279 0.961 . S
H2296 C2280 0.931 . S
H2297 C2285 0.930 1_556 S
H2298 C2286 0.956 . S
H2299 C2286 0.961 . S
H2300 C2286 0.961 . S
H2301 C2287 0.958 . S
H2302 C2287 0.961 . S
H2303 C2287 0.960 . S
C2304 C2305 1.391 . S
C2304 C2306 1.394 . S
C2304 H2320 0.931 . S
C2305 C2304 1.391 . S
C2305 C2309 1.376 . S
C2306 C2304 1.394 . S
C2306 C2307 1.369 . S
C2306 C2310 1.531 . S
C2307 C2306 1.369 . S
C2307 C2308 1.410 . S
C2307 C2315 1.503 . S
C2308 C2307 1.410 . S
C2308 C2309 1.392 . S
C2308 C2311 1.511 . S
C2309 C2305 1.376 . S
C2309 C2308 1.392 . S
C2309 H2321 0.929 . S
C2310 C2306 1.531 . S
C2310 H2322 0.960 . S
C2310 H2323 0.962 . S
C2310 H2324 0.960 . S
C2311 C2308 1.511 . S
C2311 H2325 0.961 . S
C2311 H2326 0.961 . S
C2311 H2327 0.961 . S
C2312 C2313 1.370 . S
C2312 C2314 1.363 . S
C2312 H2328 0.931 . S
C2313 C2312 1.370 . S
C2313 C2317 1.408 . S
C2314 C2312 1.363 . S
C2314 C2315 1.370 . S
C2314 C2318 1.524 . S
C2315 C2307 1.503 . S
C2315 C2314 1.370 . S
C2315 C2316 1.403 . S
C2316 C2315 1.403 . S
C2316 C2317 1.404 . S
C2316 C2319 1.539 . S
C2317 C2313 1.408 . S
C2317 C2316 1.404 . S
C2317 H2329 0.930 . S
C2318 C2314 1.524 . S
C2318 H2330 0.956 . S
C2318 H2331 0.961 . S
C2318 H2332 0.961 . S
C2319 C2316 1.539 . S
C2319 H2333 0.958 . S
C2319 H2334 0.961 . S
C2319 H2335 0.960 . S
H2320 C2304 0.931 . S
H2321 C2309 0.929 . S
H2322 C2310 0.960 . S
H2323 C2310 0.962 . S
H2324 C2310 0.960 . S
H2325 C2311 0.961 . S
H2326 C2311 0.961 . S
H2327 C2311 0.961 . S
H2328 C2312 0.931 . S
H2329 C2317 0.930 . S
H2330 C2318 0.956 . S
H2331 C2318 0.961 . S
H2332 C2318 0.961 . S
H2333 C2319 0.958 . S
H2334 C2319 0.961 . S
H2335 C2319 0.960 . S
C2336 C2337 1.391 . S
C2336 C2338 1.394 . S
C2336 H2352 0.931 . S
C2337 C2336 1.391 . S
C2337 C2341 1.376 . S
C2338 C2336 1.394 . S
C2338 C2339 1.369 . S
C2338 C2342 1.531 . S
C2339 C2338 1.369 . S
C2339 C2340 1.410 . S
C2339 C2347 1.503 . S
C2340 C2339 1.410 . S
C2340 C2341 1.392 . S
C2340 C2343 1.511 . S
C2341 C2337 1.376 . S
C2341 C2340 1.392 . S
C2341 H2353 0.929 . S
C2342 C2338 1.531 . S
C2342 H2354 0.960 . S
C2342 H2355 0.962 . S
C2342 H2356 0.960 . S
C2343 C2340 1.511 . S
C2343 H2357 0.961 . S
C2343 H2358 0.961 . S
C2343 H2359 0.961 . S
C2344 C2345 1.370 . S
C2344 C2346 1.363 . S
C2344 H2360 0.931 . S
C2345 C2344 1.370 . S
C2345 C2349 1.408 . S
C2346 C2344 1.363 . S
C2346 C2347 1.370 . S
C2346 C2350 1.524 . S
C2347 C2339 1.503 . S
C2347 C2346 1.370 . S
C2347 C2348 1.403 . S
C2348 C2347 1.403 . S
C2348 C2349 1.404 . S
C2348 C2351 1.539 . S
C2349 C2345 1.408 . S
C2349 C2348 1.404 . S
C2349 H2361 0.930 . S
C2350 C2346 1.524 . S
C2350 H2362 0.956 . S
C2350 H2363 0.961 . S
C2350 H2364 0.961 . S
C2351 C2348 1.539 . S
C2351 H2365 0.958 . S
C2351 H2366 0.961 . S
C2351 H2367 0.960 . S
H2352 C2336 0.931 . S
H2353 C2341 0.929 . S
H2354 C2342 0.960 . S
H2355 C2342 0.962 . S
H2356 C2342 0.960 . S
H2357 C2343 0.961 . S
H2358 C2343 0.961 . S
H2359 C2343 0.961 . S
H2360 C2344 0.931 . S
H2361 C2349 0.930 . S
H2362 C2350 0.956 . S
H2363 C2350 0.961 . S
H2364 C2350 0.961 . S
H2365 C2351 0.958 . S
H2366 C2351 0.961 . S
H2367 C2351 0.960 . S
C2368 C2369 1.391 . S
C2368 C2370 1.394 . S
C2368 H2384 0.931 . S
C2369 C2368 1.391 . S
C2369 C2373 1.376 . S
C2370 C2368 1.394 . S
C2370 C2371 1.369 . S
C2370 C2374 1.531 . S
C2371 C2370 1.369 . S
C2371 C2372 1.410 . S
C2371 C2379 1.503 . S
C2372 C2371 1.410 . S
C2372 C2373 1.392 . S
C2372 C2375 1.511 . S
C2373 C2369 1.376 . S
C2373 C2372 1.392 . S
C2373 H2385 0.929 . S
C2374 C2370 1.531 . S
C2374 H2386 0.960 . S
C2374 H2387 0.962 . S
C2374 H2388 0.960 . S
C2375 C2372 1.511 . S
C2375 H2389 0.961 . S
C2375 H2390 0.961 . S
C2375 H2391 0.961 . S
C2376 C2377 1.370 . S
C2376 C2378 1.363 . S
C2376 H2392 0.931 . S
C2377 C2376 1.370 . S
C2377 C2381 1.408 . S
C2378 C2376 1.363 . S
C2378 C2379 1.370 . S
C2378 C2382 1.524 . S
C2379 C2371 1.503 . S
C2379 C2378 1.370 . S
C2379 C2380 1.403 . S
C2380 C2379 1.403 . S
C2380 C2381 1.404 . S
C2380 C2383 1.539 . S
C2381 C2377 1.408 . S
C2381 C2380 1.404 . S
C2381 H2393 0.930 . S
C2382 C2378 1.524 . S
C2382 H2394 0.956 . S
C2382 H2395 0.961 . S
C2382 H2396 0.961 . S
C2383 C2380 1.539 . S
C2383 H2397 0.958 . S
C2383 H2398 0.961 . S
C2383 H2399 0.960 . S
H2384 C2368 0.931 . S
H2385 C2373 0.929 . S
H2386 C2374 0.960 . S
H2387 C2374 0.962 . S
H2388 C2374 0.960 . S
H2389 C2375 0.961 . S
H2390 C2375 0.961 . S
H2391 C2375 0.961 . S
H2392 C2376 0.931 . S
H2393 C2381 0.930 . S
H2394 C2382 0.956 . S
H2395 C2382 0.961 . S
H2396 C2382 0.961 . S
H2397 C2383 0.958 . S
H2398 C2383 0.961 . S
H2399 C2383 0.960 . S
C2400 C2401 1.391 . S
C2400 C2402 1.394 . S
C2400 H2416 0.931 1_556 S
C2401 C2400 1.391 . S
C2401 C2405 1.376 . S
C2402 C2400 1.394 . S
C2402 C2403 1.369 . S
C2402 C2406 1.531 . S
C2403 C2402 1.369 . S
C2403 C2404 1.410 . S
C2403 C2411 1.503 . S
C2404 C2403 1.410 . S
C2404 C2405 1.392 . S
C2404 C2407 1.511 . S
C2405 C2401 1.376 . S
C2405 C2404 1.392 . S
C2405 H2417 0.929 . S
C2406 C2402 1.531 . S
C2406 H2418 0.960 . S
C2406 H2419 0.962 . S
C2406 H2420 0.958 1_556 S
C2407 C2404 1.511 . S
C2407 H2421 0.961 . S
C2407 H2422 0.961 . S
C2407 H2423 0.961 . S
C2408 C2409 1.370 . S
C2408 C2410 1.363 . S
C2408 H2424 0.931 . S
C2409 C2408 1.370 . S
C2409 C2413 1.408 . S
C2410 C2408 1.363 . S
C2410 C2411 1.370 . S
C2410 C2414 1.524 . S
C2411 C2403 1.503 . S
C2411 C2410 1.370 . S
C2411 C2412 1.403 . S
C2412 C2411 1.403 . S
C2412 C2413 1.404 . S
C2412 C2415 1.539 . S
C2413 C2409 1.408 . S
C2413 C2412 1.404 . S
C2413 H2425 0.930 . S
C2414 C2410 1.524 . S
C2414 H2426 0.956 . S
C2414 H2427 0.961 . S
C2414 H2428 0.961 . S
C2415 C2412 1.539 . S
C2415 H2429 0.958 . S
C2415 H2430 0.961 . S
C2415 H2431 0.960 . S
H2416 C2400 0.931 1_554 S
H2417 C2405 0.929 . S
H2418 C2406 0.960 . S
H2419 C2406 0.962 . S
H2420 C2406 0.958 1_554 S
H2421 C2407 0.961 . S
H2422 C2407 0.961 . S
H2423 C2407 0.961 . S
H2424 C2408 0.931 . S
H2425 C2413 0.930 . S
H2426 C2414 0.956 . S
H2427 C2414 0.961 . S
H2428 C2414 0.961 . S
H2429 C2415 0.958 . S
H2430 C2415 0.961 . S
H2431 C2415 0.960 . S
C2432 C2433 1.391 . S
C2432 C2434 1.394 . S
C2432 H2448 0.931 . S
C2433 C2432 1.391 . S
C2433 C2437 1.376 . S
C2434 C2432 1.394 . S
C2434 C2435 1.369 . S
C2434 C2438 1.531 . S
C2435 C2434 1.369 . S
C2435 C2436 1.410 . S
C2435 C2443 1.503 . S
C2436 C2435 1.410 . S
C2436 C2437 1.392 . S
C2436 C2439 1.511 . S
C2437 C2433 1.376 . S
C2437 C2436 1.392 . S
C2437 H2449 0.929 . S
C2438 C2434 1.531 . S
C2438 H2450 0.960 . S
C2438 H2451 0.962 . S
C2438 H2452 0.960 . S
C2439 C2436 1.511 . S
C2439 H2453 0.961 . S
C2439 H2454 0.961 . S
C2439 H2455 0.961 . S
C2440 C2441 1.370 . S
C2440 C2442 1.363 . S
C2440 H2456 0.931 . S
C2441 C2440 1.370 . S
C2441 C2445 1.408 . S
C2442 C2440 1.363 . S
C2442 C2443 1.370 . S
C2442 C2446 1.524 . S
C2443 C2435 1.503 . S
C2443 C2442 1.370 . S
C2443 C2444 1.403 . S
C2444 C2443 1.403 . S
C2444 C2445 1.404 . S
C2444 C2447 1.539 . S
C2445 C2441 1.408 . S
C2445 C2444 1.404 . S
C2445 H2457 0.930 . S
C2446 C2442 1.524 . S
C2446 H2458 0.956 . S
C2446 H2459 0.961 . S
C2446 H2460 0.961 . S
C2447 C2444 1.539 . S
C2447 H2461 0.958 . S
C2447 H2462 0.961 . S
C2447 H2463 0.960 . S
H2448 C2432 0.931 . S
H2449 C2437 0.929 . S
H2450 C2438 0.960 . S
H2451 C2438 0.962 . S
H2452 C2438 0.960 . S
H2453 C2439 0.961 . S
H2454 C2439 0.961 . S
H2455 C2439 0.961 . S
H2456 C2440 0.931 . S
H2457 C2445 0.930 . S
H2458 C2446 0.956 . S
H2459 C2446 0.961 . S
H2460 C2446 0.961 . S
H2461 C2447 0.958 . S
H2462 C2447 0.961 . S
H2463 C2447 0.960 . S
C2464 C2465 1.391 . S
C2464 C2466 1.394 . S
C2464 H2480 0.931 . S
C2465 C2464 1.391 . S
C2465 C2469 1.376 . S
C2466 C2464 1.394 . S
C2466 C2467 1.369 . S
C2466 C2470 1.531 . S
C2467 C2466 1.369 . S
C2467 C2468 1.410 . S
C2467 C2475 1.503 . S
C2468 C2467 1.410 . S
C2468 C2469 1.392 . S
C2468 C2471 1.511 . S
C2469 C2465 1.376 . S
C2469 C2468 1.392 . S
C2469 H2481 0.929 . S
C2470 C2466 1.531 . S
C2470 H2482 0.960 . S
C2470 H2483 0.962 . S
C2470 H2484 0.960 . S
C2471 C2468 1.511 . S
C2471 H2485 0.961 . S
C2471 H2486 0.961 . S
C2471 H2487 0.961 . S
C2472 C2473 1.370 . S
C2472 C2474 1.363 . S
C2472 H2488 0.931 . S
C2473 C2472 1.370 . S
C2473 C2477 1.408 . S
C2474 C2472 1.363 . S
C2474 C2475 1.370 . S
C2474 C2478 1.524 . S
C2475 C2467 1.503 . S
C2475 C2474 1.370 . S
C2475 C2476 1.403 . S
C2476 C2475 1.403 . S
C2476 C2477 1.404 . S
C2476 C2479 1.539 . S
C2477 C2473 1.408 . S
C2477 C2476 1.404 . S
C2477 H2489 0.930 . S
C2478 C2474 1.524 . S
C2478 H2490 0.956 . S
C2478 H2491 0.961 . S
C2478 H2492 0.961 . S
C2479 C2476 1.539 . S
C2479 H2493 0.958 . S
C2479 H2494 0.961 . S
C2479 H2495 0.960 . S
H2480 C2464 0.931 . S
H2481 C2469 0.929 . S
H2482 C2470 0.960 . S
H2483 C2470 0.962 . S
H2484 C2470 0.960 . S
H2485 C2471 0.961 . S
H2486 C2471 0.961 . S
H2487 C2471 0.961 . S
H2488 C2472 0.931 . S
H2489 C2477 0.930 . S
H2490 C2478 0.956 . S
H2491 C2478 0.961 . S
H2492 C2478 0.961 . S
H2493 C2479 0.958 . S
H2494 C2479 0.961 . S
H2495 C2479 0.960 . S
C449 C93 1.346 . S
C457 C9 1.334 . S
C481 C23 1.299 . S
C489 C107 1.320 . S
C513 C65 1.345 . S
C521 C37 1.330 . S
C545 C51 1.325 . S
C553 C79 1.332 . S
C577 C121 1.321 . S
C585 C205 1.328 . S
C609 C219 1.318 . S
C617 C135 1.327 . S
C641 C149 1.346 . S
C649 C177 1.334 . S
C673 C191 1.311 . S
C681 C163 1.324 . S
C705 C233 1.304 . S
C713 C317 1.314 . S
C737 C247 1.329 . S
C745 C331 1.333 . S
C769 C289 1.330 . S
C777 C261 1.333 . S
C801 C303 1.330 . S
C809 C275 1.334 . S
C833 C345 1.326 . S
C841 C429 1.323 . S
C865 C359 1.346 . S
C873 C443 1.334 . S
C897 C401 1.296 . S
C905 C373 1.315 . S
C929 C387 1.307 . S
C937 C415 1.322 . S
C961 C6 1.294 1_556 S
C969 C104 1.291 . S
C993 C62 1.283 1_554 S
C1001 C20 1.286 . S
C1025 C76 1.267 . S
C1033 C34 1.280 . S
C1057 C48 1.305 . S
C1065 C90 1.300 . S
C1089 C118 1.282 1_554 S
C1097 C216 1.287 . S
C1121 C174 1.311 1_556 S
C1129 C132 1.301 . S
C1153 C188 1.290 . S
C1161 C146 1.291 . S
C1185 C202 1.261 . S
C1193 C160 1.280 . S
C1217 C230 1.286 . S
C1225 C328 1.287 . S
C1249 C244 1.301 . S
C1257 C286 1.298 . S
C1281 C300 1.268 . S
C1289 C258 1.281 1_556 S
C1313 C272 1.261 . S
C1321 C314 1.279 1_554 S
C1345 C342 1.261 . S
C1353 C440 1.280 . S
C1377 C398 1.314 . S
C1385 C356 1.302 . S
C1409 C370 1.261 1_554 S
C1417 C412 1.279 . S
C1441 C384 1.302 . S
C1449 C426 1.296 1_556 S
C1473 C427 1.613 . S
C1481 C7 1.605 . S
C1505 C217 1.622 . S
C1513 C21 1.610 . S
C1537 C35 1.589 . S
C1545 C399 1.599 . S
C1569 C49 1.623 . S
C1577 C189 1.611 . S
C1601 C63 1.610 . S
C1609 C371 1.604 . S
C1633 C77 1.593 . S
C1641 C161 1.600 . S
C1665 C91 1.573 . S
C1673 C343 1.591 . S
C1697 C133 1.575 . S
C1705 C105 1.592 . S
C1729 C315 1.618 . S
C1737 C119 1.607 . S
C1761 C147 1.609 . S
C1769 C287 1.603 . S
C1793 C259 1.577 . S
C1801 C175 1.593 . S
C1825 C231 1.616 . S
C1833 C203 1.606 . S
C1857 C245 1.567 . S
C1865 C441 1.588 . S
C1889 C273 1.620 . S
C1897 C413 1.608 . S
C1921 C301 1.593 . S
C1929 C385 1.597 . S
C1953 C357 1.616 . S
C1961 C329 1.609 . S
C1985 C8 2.049 . S
C1993 C106 2.045 . S
C2017 C22 2.040 . S
C2025 C64 2.049 . S
C2049 C78 2.033 1_556 S
C2057 C36 2.046 . S
C2081 C50 2.033 1_554 S
C2089 C92 2.049 . S
C2113 C218 2.041 . S
C2121 C120 2.044 . S
C2145 C176 2.047 . S
C2153 C134 2.043 . S
C2177 C148 2.050 . S
C2185 C190 2.042 1_554 S
C2209 C204 2.050 . S
C2217 C162 2.042 1_556 S
C2241 C330 2.032 1_556 S
C2249 C232 2.049 . S
C2273 C288 2.042 . S
C2281 C246 2.043 1_554 S
C2305 C302 2.040 . S
C2313 C260 2.049 . S
C2337 C316 2.035 . S
C2345 C274 2.046 . S
C2369 C344 2.034 . S
C2377 C442 2.047 1_554 S
C2401 C358 2.043 1_556 S
C2409 C400 2.047 . S
C2433 C372 2.048 . S
C2441 C414 2.042 . S
C2465 C428 2.045 . S
C2473 C386 2.043 . S
