# Generated by pormake.
# Topology uoa, (4)-cn, num edge types: 1
# Building blocks:
#     Node 0, Type 0, BuildingBlock: MUDLON_clean_sbu_0, # of connection points: 4
#     Node 1, Type 0, BuildingBlock: MUDLON_clean_sbu_0, # of connection points: 4
#     Node 2, Type 0, BuildingBlock: MUDLON_clean_sbu_0, # of connection points: 4
#     Node 3, Type 0, BuildingBlock: MUDLON_clean_sbu_0, # of connection points: 4
#     Node 4, Type 0, BuildingBlock: MUDLON_clean_sbu_0, # of connection points: 4
#     Node 5, Type 0, BuildingBlock: MUDLON_clean_sbu_0, # of connection points: 4
#     Node 6, Type 0, BuildingBlock: MUDLON_clean_sbu_0, # of connection points: 4
#     Node 7, Type 0, BuildingBlock: MUDLON_clean_sbu_0, # of connection points: 4
#     Node 8, Type 0, BuildingBlock: MUDLON_clean_sbu_0, # of connection points: 4
#     Node 9, Type 0, BuildingBlock: MUDLON_clean_sbu_0, # of connection points: 4
#     Node 10, Type 0, BuildingBlock: MUDLON_clean_sbu_0, # of connection points: 4
#     Node 11, Type 0, BuildingBlock: MUDLON_clean_sbu_0, # of connection points: 4
#     Node 12, Type 0, BuildingBlock: MUDLON_clean_sbu_0, # of connection points: 4
#     Node 13, Type 0, BuildingBlock: MUDLON_clean_sbu_0, # of connection points: 4
#     Node 14, Type 0, BuildingBlock: MUDLON_clean_sbu_0, # of connection points: 4
#     Node 15, Type 0, BuildingBlock: MUDLON_clean_sbu_0, # of connection points: 4
#     Node 16, Type 0, BuildingBlock: MUDLON_clean_sbu_0, # of connection points: 4
#     Node 17, Type 0, BuildingBlock: MUDLON_clean_sbu_0, # of connection points: 4
#     Node 18, Type 0, BuildingBlock: MUDLON_clean_sbu_0, # of connection points: 4
#     Node 19, Type 0, BuildingBlock: MUDLON_clean_sbu_0, # of connection points: 4
#     Node 20, Type 0, BuildingBlock: MUDLON_clean_sbu_0, # of connection points: 4
#     Node 21, Type 0, BuildingBlock: MUDLON_clean_sbu_0, # of connection points: 4
#     Node 22, Type 0, BuildingBlock: MUDLON_clean_sbu_0, # of connection points: 4
#     Node 23, Type 0, BuildingBlock: MUDLON_clean_sbu_0, # of connection points: 4
#     Node 24, Type 0, BuildingBlock: MUDLON_clean_sbu_0, # of connection points: 4
#     Node 25, Type 0, BuildingBlock: MUDLON_clean_sbu_0, # of connection points: 4
#     Node 26, Type 0, BuildingBlock: MUDLON_clean_sbu_0, # of connection points: 4
#     Node 27, Type 0, BuildingBlock: MUDLON_clean_sbu_0, # of connection points: 4
#     Node 28, Type 0, BuildingBlock: MUDLON_clean_sbu_0, # of connection points: 4
#     Node 29, Type 0, BuildingBlock: MUDLON_clean_sbu_0, # of connection points: 4
#     Node 30, Type 0, BuildingBlock: MUDLON_clean_sbu_0, # of connection points: 4
#     Node 31, Type 0, BuildingBlock: MUDLON_clean_sbu_0, # of connection points: 4
#     Edge 32, Type (0, 0), BuildingBlock: UVAHIK_clean_linker_0, # of connection points: 2
#     Edge 33, Type (0, 0), BuildingBlock: UVAHIK_clean_linker_0, # of connection points: 2
#     Edge 34, Type (0, 0), BuildingBlock: UVAHIK_clean_linker_0, # of connection points: 2
#     Edge 35, Type (0, 0), BuildingBlock: UVAHIK_clean_linker_0, # of connection points: 2
#     Edge 36, Type (0, 0), BuildingBlock: UVAHIK_clean_linker_0, # of connection points: 2
#     Edge 37, Type (0, 0), BuildingBlock: UVAHIK_clean_linker_0, # of connection points: 2
#     Edge 38, Type (0, 0), BuildingBlock: UVAHIK_clean_linker_0, # of connection points: 2
#     Edge 39, Type (0, 0), BuildingBlock: UVAHIK_clean_linker_0, # of connection points: 2
#     Edge 40, Type (0, 0), BuildingBlock: UVAHIK_clean_linker_0, # of connection points: 2
#     Edge 41, Type (0, 0), BuildingBlock: UVAHIK_clean_linker_0, # of connection points: 2
#     Edge 42, Type (0, 0), BuildingBlock: UVAHIK_clean_linker_0, # of connection points: 2
#     Edge 43, Type (0, 0), BuildingBlock: UVAHIK_clean_linker_0, # of connection points: 2
#     Edge 44, Type (0, 0), BuildingBlock: UVAHIK_clean_linker_0, # of connection points: 2
#     Edge 45, Type (0, 0), BuildingBlock: UVAHIK_clean_linker_0, # of connection points: 2
#     Edge 46, Type (0, 0), BuildingBlock: UVAHIK_clean_linker_0, # of connection points: 2
#     Edge 47, Type (0, 0), BuildingBlock: UVAHIK_clean_linker_0, # of connection points: 2
#     Edge 48, Type (0, 0), BuildingBlock: UVAHIK_clean_linker_0, # of connection points: 2
#     Edge 49, Type (0, 0), BuildingBlock: UVAHIK_clean_linker_0, # of connection points: 2
#     Edge 50, Type (0, 0), BuildingBlock: UVAHIK_clean_linker_0, # of connection points: 2
#     Edge 51, Type (0, 0), BuildingBlock: UVAHIK_clean_linker_0, # of connection points: 2
#     Edge 52, Type (0, 0), BuildingBlock: UVAHIK_clean_linker_0, # of connection points: 2
#     Edge 53, Type (0, 0), BuildingBlock: UVAHIK_clean_linker_0, # of connection points: 2
#     Edge 54, Type (0, 0), BuildingBlock: UVAHIK_clean_linker_0, # of connection points: 2
#     Edge 55, Type (0, 0), BuildingBlock: UVAHIK_clean_linker_0, # of connection points: 2
#     Edge 56, Type (0, 0), BuildingBlock: UVAHIK_clean_linker_0, # of connection points: 2
#     Edge 57, Type (0, 0), BuildingBlock: UVAHIK_clean_linker_0, # of connection points: 2
#     Edge 58, Type (0, 0), BuildingBlock: UVAHIK_clean_linker_0, # of connection points: 2
#     Edge 59, Type (0, 0), BuildingBlock: UVAHIK_clean_linker_0, # of connection points: 2
#     Edge 60, Type (0, 0), BuildingBlock: UVAHIK_clean_linker_0, # of connection points: 2
#     Edge 61, Type (0, 0), BuildingBlock: UVAHIK_clean_linker_0, # of connection points: 2
#     Edge 62, Type (0, 0), BuildingBlock: UVAHIK_clean_linker_0, # of connection points: 2
#     Edge 63, Type (0, 0), BuildingBlock: UVAHIK_clean_linker_0, # of connection points: 2
#     Edge 64, Type (0, 0), BuildingBlock: UVAHIK_clean_linker_0, # of connection points: 2
#     Edge 65, Type (0, 0), BuildingBlock: UVAHIK_clean_linker_0, # of connection points: 2
#     Edge 66, Type (0, 0), BuildingBlock: UVAHIK_clean_linker_0, # of connection points: 2
#     Edge 67, Type (0, 0), BuildingBlock: UVAHIK_clean_linker_0, # of connection points: 2
#     Edge 68, Type (0, 0), BuildingBlock: UVAHIK_clean_linker_0, # of connection points: 2
#     Edge 69, Type (0, 0), BuildingBlock: UVAHIK_clean_linker_0, # of connection points: 2
#     Edge 70, Type (0, 0), BuildingBlock: UVAHIK_clean_linker_0, # of connection points: 2
#     Edge 71, Type (0, 0), BuildingBlock: UVAHIK_clean_linker_0, # of connection points: 2
#     Edge 72, Type (0, 0), BuildingBlock: UVAHIK_clean_linker_0, # of connection points: 2
#     Edge 73, Type (0, 0), BuildingBlock: UVAHIK_clean_linker_0, # of connection points: 2
#     Edge 74, Type (0, 0), BuildingBlock: UVAHIK_clean_linker_0, # of connection points: 2
#     Edge 75, Type (0, 0), BuildingBlock: UVAHIK_clean_linker_0, # of connection points: 2
#     Edge 76, Type (0, 0), BuildingBlock: UVAHIK_clean_linker_0, # of connection points: 2
#     Edge 77, Type (0, 0), BuildingBlock: UVAHIK_clean_linker_0, # of connection points: 2
#     Edge 78, Type (0, 0), BuildingBlock: UVAHIK_clean_linker_0, # of connection points: 2
#     Edge 79, Type (0, 0), BuildingBlock: UVAHIK_clean_linker_0, # of connection points: 2
#     Edge 80, Type (0, 0), BuildingBlock: UVAHIK_clean_linker_0, # of connection points: 2
#     Edge 81, Type (0, 0), BuildingBlock: UVAHIK_clean_linker_0, # of connection points: 2
#     Edge 82, Type (0, 0), BuildingBlock: UVAHIK_clean_linker_0, # of connection points: 2
#     Edge 83, Type (0, 0), BuildingBlock: UVAHIK_clean_linker_0, # of connection points: 2
#     Edge 84, Type (0, 0), BuildingBlock: UVAHIK_clean_linker_0, # of connection points: 2
#     Edge 85, Type (0, 0), BuildingBlock: UVAHIK_clean_linker_0, # of connection points: 2
#     Edge 86, Type (0, 0), BuildingBlock: UVAHIK_clean_linker_0, # of connection points: 2
#     Edge 87, Type (0, 0), BuildingBlock: UVAHIK_clean_linker_0, # of connection points: 2
#     Edge 88, Type (0, 0), BuildingBlock: UVAHIK_clean_linker_0, # of connection points: 2
#     Edge 89, Type (0, 0), BuildingBlock: UVAHIK_clean_linker_0, # of connection points: 2
#     Edge 90, Type (0, 0), BuildingBlock: UVAHIK_clean_linker_0, # of connection points: 2
#     Edge 91, Type (0, 0), BuildingBlock: UVAHIK_clean_linker_0, # of connection points: 2
#     Edge 92, Type (0, 0), BuildingBlock: UVAHIK_clean_linker_0, # of connection points: 2
#     Edge 93, Type (0, 0), BuildingBlock: UVAHIK_clean_linker_0, # of connection points: 2
#     Edge 94, Type (0, 0), BuildingBlock: UVAHIK_clean_linker_0, # of connection points: 2
#     Edge 95, Type (0, 0), BuildingBlock: UVAHIK_clean_linker_0, # of connection points: 2
# Relax obj value: 0.110
# Max RMSD: 0.249
# Mean RMSD: 0.249
data_MOF--net-uoa--node1-MUDLON_clean_sbu_0--edge1-UVAHIK_clean_linker_0
_symmetry_space_group_name_H-M    P1
_symmetry_Int_Tables_number       1
_symmetry_cell_setting            triclinic
loop_
_symmetry_equiv_pos_as_xyz
'x, y, z'
_cell_length_a     101.42888
_cell_length_b     101.48237
_cell_length_c     38.249383
_cell_angle_alpha  90.031032
_cell_angle_beta   89.969319
_cell_angle_gamma 89.990767
loop_
_atom_site_label
_atom_site_type_symbol
_atom_site_fract_x
_atom_site_fract_y
_atom_site_fract_z
_atom_type_partial_charge
Mg0 Mg 0.02525 0.09064 0.07885 0.0
C1 C 0.01551 0.06268 0.0853 0.0
O2 O 0.00684 0.06868 0.10527 0.0
C3 C 0.04609 0.11046 0.08798 0.0
O4 O 0.03534 0.1176 0.08481 0.0
C5 C 0.00942 0.09187 0.01281 0.0
O6 O 0.00567 0.08045 0.02552 0.0
O7 O 0.0171 0.09905 0.03095 0.0
O8 O 0.0249 0.06937 0.07217 0.0
O9 O 0.0152 0.09602 0.1271 0.0
C10 C 0.02177 0.09313 0.15438 0.0
O11 O 0.03317 0.08715 0.15053 0.0
O12 O 0.04516 0.09801 0.08533 0.0
Mg13 Mg 0.1568 0.77353 0.31944 0.0
C14 C 0.15403 0.77009 0.39572 0.0
O15 O 0.1595 0.78177 0.39277 0.0
C16 C 0.14348 0.76836 0.24959 0.0
O17 O 0.13795 0.77976 0.25661 0.0
C18 C 0.15165 0.80331 0.33274 0.0
O19 O 0.16376 0.80362 0.34486 0.0
O20 O 0.14709 0.79262 0.3203 0.0
O21 O 0.15158 0.7636 0.36801 0.0
O22 O 0.17813 0.77409 0.31514 0.0
C23 C 0.18367 0.763 0.3202 0.0
O24 O 0.17633 0.75299 0.33006 0.0
O25 O 0.1509 0.76305 0.27239 0.0
Mg26 Mg 0.47353 0.90874 0.56258 0.0
C27 C 0.48556 0.93489 0.55339 0.0
O28 O 0.49517 0.92789 0.56701 0.0
C29 C 0.45277 0.89074 0.58649 0.0
O30 O 0.46376 0.88472 0.59505 0.0
C31 C 0.47467 0.89536 0.49364 0.0
O32 O 0.46193 0.89677 0.49858 0.0
O33 O 0.48249 0.89873 0.5181 0.0
O34 O 0.4744 0.92945 0.54889 0.0
O35 O 0.48292 0.90683 0.61361 0.0
C36 C 0.48991 0.89749 0.62574 0.0
O37 O 0.49316 0.88759 0.60534 0.0
O38 O 0.45349 0.90169 0.57048 0.0
Mg39 Mg 0.34186 0.22634 0.82102 0.0
C40 C 0.34308 0.23013 0.8964 0.0
O41 O 0.33837 0.21818 0.89211 0.0
C42 C 0.35189 0.2282 0.74841 0.0
O43 O 0.35105 0.2154 0.75296 0.0
C44 C 0.34778 0.19624 0.83088 0.0
O45 O 0.33511 0.19406 0.82678 0.0
O46 O 0.35225 0.2079 0.82838 0.0
O47 O 0.34556 0.23699 0.86936 0.0
O48 O 0.3207 0.22513 0.81337 0.0
C49 C 0.31492 0.2362 0.81628 0.0
O50 O 0.32195 0.24652 0.82545 0.0
O51 O 0.34925 0.23576 0.77401 0.0
Mg52 Mg 0.02547 0.90789 0.44233 0.0
C53 C 0.01685 0.93599 0.43949 0.0
O54 O 0.00834 0.93033 0.41838 0.0
C55 C 0.0452 0.888 0.42323 0.0
O56 O 0.03386 0.88226 0.41668 0.0
C57 C 0.00791 0.90589 0.50537 0.0
O58 O 0.00438 0.91739 0.49275 0.0
O59 O 0.01594 0.89886 0.48782 0.0
O60 O 0.02595 0.92899 0.45288 0.0
O61 O 0.01656 0.90556 0.39072 0.0
C62 C 0.00949 0.89638 0.37808 0.0
O63 O 0.00567 0.88663 0.39827 0.0
O64 O 0.04511 0.89952 0.43637 0.0
Mg65 Mg 0.341 0.77966 0.6933 0.0
C66 C 0.34235 0.77628 0.6173 0.0
O67 O 0.33608 0.78748 0.62165 0.0
C68 C 0.35205 0.77736 0.76517 0.0
O69 O 0.35206 0.79019 0.76053 0.0
C70 C 0.34485 0.80972 0.67855 0.0
O71 O 0.33267 0.80973 0.6669 0.0
O72 O 0.34978 0.79917 0.6908 0.0
O73 O 0.34593 0.7699 0.64428 0.0
O74 O 0.31976 0.77907 0.69946 0.0
C75 C 0.31521 0.76739 0.6988 0.0
O76 O 0.32342 0.75762 0.69291 0.0
O77 O 0.34851 0.76997 0.73997 0.0
Mg78 Mg 0.47184 0.08962 0.94074 0.0
C79 C 0.48305 0.06318 0.9488 0.0
O80 O 0.49296 0.07022 0.93691 0.0
C81 C 0.45125 0.11017 0.93716 0.0
O82 O 0.46177 0.11684 0.94659 0.0
C83 C 0.47294 0.09948 0.01309 0.0
O84 O 0.46053 0.09609 0.00907 0.0
O85 O 0.48069 0.09847 0.98703 0.0
O86 O 0.47188 0.06871 0.95243 0.0
O87 O 0.48235 0.09201 0.89147 0.0
C88 C 0.48489 0.1029 0.87643 0.0
O89 O 0.48211 0.11401 0.89244 0.0
O90 O 0.45223 0.09777 0.93317 0.0
Mg91 Mg 0.16243 0.21895 0.18703 0.0
C92 C 0.1595 0.22166 0.11158 0.0
O93 O 0.16491 0.21001 0.11608 0.0
C94 C 0.1449 0.22476 0.25214 0.0
O95 O 0.13728 0.21521 0.24085 0.0
C96 C 0.15255 0.19026 0.20302 0.0
O97 O 0.15429 0.19284 0.23635 0.0
O98 O 0.15554 0.19886 0.18022 0.0
O99 O 0.15711 0.22868 0.13842 0.0
O100 O 0.18362 0.22057 0.193 0.0
C101 C 0.18796 0.23231 0.19141 0.0
O102 O 0.17962 0.24187 0.18435 0.0
O103 O 0.15477 0.22832 0.23392 0.0
Mg104 Mg 0.97626 0.90697 0.94236 0.0
C105 C 0.98726 0.89349 0.87575 0.0
O106 O 0.98356 0.88253 0.89117 0.0
C107 C 0.99375 0.90422 0.00559 0.0
O108 O 0.99827 0.91531 0.9926 0.0
C109 C 0.95099 0.89832 0.90735 0.0
O110 O 0.95713 0.90319 0.88 0.0
O111 O 0.95647 0.89903 0.93718 0.0
O112 O 0.98611 0.90437 0.89202 0.0
O113 O 0.97589 0.92796 0.95401 0.0
C114 C 0.98491 0.93521 0.94124 0.0
O115 O 0.99347 0.92995 0.91955 0.0
O116 O 0.98518 0.89779 0.98826 0.0
Mg117 Mg 0.84088 0.22276 0.6904 0.0
C118 C 0.81588 0.23686 0.69845 0.0
O119 O 0.8248 0.24625 0.69839 0.0
C120 C 0.8576 0.19875 0.69833 0.0
O121 O 0.86317 0.20689 0.72056 0.0
C122 C 0.84305 0.22341 0.76655 0.0
O123 O 0.83469 0.21383 0.75993 0.0
O124 O 0.84808 0.22961 0.74088 0.0
O125 O 0.81966 0.225 0.6943 0.0
O126 O 0.8473 0.23426 0.64534 0.0
C127 C 0.85476 0.22899 0.62249 0.0
O128 O 0.85943 0.21712 0.62827 0.0
O129 O 0.84728 0.20248 0.68224 0.0
Mg130 Mg 0.5243 0.09356 0.4404 0.0
C131 C 0.52022 0.09618 0.365 0.0
O132 O 0.53188 0.09064 0.36814 0.0
C133 C 0.50853 0.09384 0.50685 0.0
O134 O 0.50457 0.08271 0.49285 0.0
C135 C 0.54455 0.1129 0.42071 0.0
O136 O 0.53342 0.11914 0.41481 0.0
O137 O 0.54409 0.10133 0.43344 0.0
O138 O 0.51377 0.09884 0.39268 0.0
O139 O 0.52422 0.0722 0.44463 0.0
C140 C 0.5145 0.06596 0.43169 0.0
O141 O 0.50548 0.07258 0.4144 0.0
O142 O 0.51626 0.10121 0.48941 0.0
Mg143 Mg 0.6582 0.77656 0.20484 0.0
C144 C 0.68387 0.76449 0.21629 0.0
O145 O 0.67556 0.75456 0.21554 0.0
C146 C 0.63736 0.7963 0.1982 0.0
O147 O 0.6311 0.78546 0.20703 0.0
C148 C 0.64987 0.77658 0.27893 0.0
O149 O 0.6532 0.78893 0.27356 0.0
O150 O 0.65038 0.76856 0.25337 0.0
O151 O 0.67942 0.77606 0.21139 0.0
O152 O 0.65334 0.76545 0.15778 0.0
C153 C 0.65381 0.77219 0.12975 0.0
O154 O 0.65707 0.7847 0.13181 0.0
O155 O 0.64988 0.79602 0.19664 0.0
Mg156 Mg 0.97798 0.09258 0.57848 0.0
C157 C 0.98953 0.10557 0.6434 0.0
O158 O 0.98404 0.11611 0.62976 0.0
C159 C 0.97937 0.10676 0.50915 0.0
O160 O 0.96678 0.10828 0.51606 0.0
C161 C 0.94781 0.10011 0.57828 0.0
O162 O 0.94617 0.0921 0.55165 0.0
O163 O 0.95918 0.10152 0.59173 0.0
O164 O 0.98936 0.09484 0.62624 0.0
O165 O 0.97727 0.07161 0.56716 0.0
C166 C 0.98791 0.06543 0.57357 0.0
O167 O 0.99775 0.07189 0.58789 0.0
O168 O 0.98673 0.10139 0.532 0.0
Mg169 Mg 0.6579 0.22369 0.31438 0.0
C170 C 0.6842 0.23482 0.30819 0.0
O171 O 0.67642 0.24499 0.31338 0.0
C172 C 0.65296 0.19372 0.32727 0.0
O173 O 0.66523 0.19317 0.33817 0.0
C174 C 0.64857 0.22625 0.24118 0.0
O175 O 0.64922 0.2134 0.24513 0.0
O176 O 0.65107 0.23359 0.26733 0.0
O177 O 0.67916 0.22334 0.30849 0.0
O178 O 0.65307 0.23375 0.36319 0.0
C179 C 0.6541 0.22665 0.39047 0.0
O180 O 0.65792 0.21436 0.38694 0.0
O181 O 0.64831 0.20457 0.31615 0.0
Mg182 Mg 0.52322 0.9051 0.06436 0.0
C183 C 0.51975 0.90175 0.13975 0.0
O184 O 0.53131 0.90745 0.13622 0.0
C185 C 0.50707 0.90351 0.99818 0.0
O186 O 0.50202 0.91419 0.01226 0.0
C187 C 0.54839 0.88971 0.05157 0.0
O188 O 0.54163 0.88563 0.02436 0.0
O189 O 0.54339 0.89841 0.07147 0.0
O190 O 0.51312 0.89922 0.11229 0.0
O191 O 0.52213 0.9264 0.05969 0.0
C192 C 0.51203 0.93229 0.07175 0.0
O193 O 0.50308 0.9254 0.08856 0.0
O194 O 0.51559 0.897 0.01541 0.0
Mg195 Mg 0.84652 0.7748 0.81449 0.0
C196 C 0.82097 0.76213 0.80226 0.0
O197 O 0.82928 0.75222 0.80416 0.0
C198 C 0.85212 0.80094 0.85015 0.0
O199 O 0.84533 0.79535 0.87537 0.0
C200 C 0.85543 0.77445 0.74066 0.0
O201 O 0.85194 0.78681 0.74502 0.0
O202 O 0.85489 0.7667 0.76677 0.0
O203 O 0.82537 0.77376 0.80643 0.0
O204 O 0.85081 0.76353 0.86158 0.0
C205 C 0.86034 0.76635 0.88189 0.0
O206 O 0.86867 0.77564 0.87273 0.0
O207 O 0.85365 0.7948 0.82145 0.0
Mg208 Mg 0.52391 0.59431 0.56314 0.0
C209 C 0.51434 0.56644 0.565 0.0
O210 O 0.50513 0.57241 0.58325 0.0
C211 C 0.54752 0.61236 0.56012 0.0
O212 O 0.53977 0.6185 0.53794 0.0
C213 C 0.50739 0.59693 0.49823 0.0
O214 O 0.50223 0.5863 0.51224 0.0
O215 O 0.5162 0.60316 0.51519 0.0
O216 O 0.52407 0.57315 0.55386 0.0
O217 O 0.5129 0.59765 0.61128 0.0
C218 C 0.51424 0.608 0.62975 0.0
O219 O 0.52123 0.61786 0.61742 0.0
O220 O 0.54363 0.6016 0.57362 0.0
Mg221 Mg 0.65665 0.27839 0.8131 0.0
C222 C 0.65724 0.27384 0.88793 0.0
O223 O 0.66248 0.28555 0.88325 0.0
C224 C 0.64659 0.27727 0.74015 0.0
O225 O 0.64945 0.28982 0.74356 0.0
C226 C 0.65021 0.30894 0.81476 0.0
O227 O 0.65949 0.31096 0.7914 0.0
O228 O 0.64779 0.29732 0.82532 0.0
O229 O 0.65364 0.26733 0.86113 0.0
O230 O 0.67768 0.27837 0.80263 0.0
C231 C 0.68206 0.26677 0.79761 0.0
O232 O 0.67381 0.25684 0.80036 0.0
O233 O 0.64784 0.26977 0.76658 0.0
Mg234 Mg 0.97382 0.40973 0.05756 0.0
C235 C 0.98499 0.43535 0.03962 0.0
O236 O 0.99464 0.42694 0.03433 0.0
C237 C 0.95258 0.38964 0.05475 0.0
O238 O 0.96234 0.38372 0.03851 0.0
C239 C 0.97435 0.40366 0.98219 0.0
O240 O 0.96254 0.40866 0.98701 0.0
O241 O 0.98187 0.40226 0.00856 0.0
O242 O 0.97401 0.43098 0.05082 0.0
O243 O 0.98549 0.40529 0.10416 0.0
C244 C 0.98063 0.39804 0.12808 0.0
O245 O 0.96909 0.39252 0.12289 0.0
O246 O 0.95421 0.40143 0.06514 0.0
Mg247 Mg 0.84396 0.72221 0.31505 0.0
C248 C 0.84997 0.72548 0.38958 0.0
O249 O 0.8456 0.71334 0.38694 0.0
C250 C 0.84543 0.72448 0.23915 0.0
O251 O 0.83581 0.71611 0.24519 0.0
C252 C 0.85666 0.69516 0.30211 0.0
O253 O 0.86063 0.70064 0.27286 0.0
O254 O 0.84923 0.70163 0.32267 0.0
O255 O 0.85067 0.73248 0.36199 0.0
O256 O 0.8228 0.72498 0.3114 0.0
C257 C 0.81901 0.73676 0.30625 0.0
O258 O 0.82791 0.74616 0.30507 0.0
O259 O 0.85165 0.72922 0.26517 0.0
Mg260 Mg 0.52357 0.40702 0.93443 0.0
C261 C 0.50987 0.43316 0.93467 0.0
O262 O 0.50037 0.42558 0.92277 0.0
C263 C 0.5485 0.39133 0.94194 0.0
O264 O 0.54036 0.38419 0.96077 0.0
C265 C 0.52304 0.40391 0.01005 0.0
O266 O 0.53287 0.41197 1.00341 0.0
O267 O 0.51657 0.39924 0.98434 0.0
O268 O 0.52115 0.42813 0.94033 0.0
O269 O 0.51336 0.40067 0.88673 0.0
C270 C 0.51996 0.39419 0.86416 0.0
O271 O 0.53203 0.39057 0.87196 0.0
O272 O 0.54432 0.40201 0.92853 0.0
Mg273 Mg 0.84348 0.27351 0.19135 0.0
C274 C 0.85645 0.26628 0.12274 0.0
O275 O 0.86218 0.27768 0.12848 0.0
C276 C 0.84688 0.2734 0.26701 0.0
O277 O 0.83949 0.28375 0.26045 0.0
C278 C 0.86174 0.29646 0.196 0.0
O279 O 0.8676 0.28784 0.21635 0.0
O280 O 0.85071 0.29343 0.18239 0.0
O281 O 0.84871 0.26163 0.14585 0.0
O282 O 0.82224 0.27236 0.19719 0.0
C283 C 0.81778 0.26067 0.19936 0.0
O284 O 0.82606 0.25079 0.19613 0.0
O285 O 0.85088 0.26647 0.24137 0.0
Mg286 Mg 0.97423 0.5944 0.44704 0.0
C287 C 0.98936 0.56924 0.45418 0.0
O288 O 0.99881 0.57733 0.44462 0.0
C289 C 0.94571 0.60402 0.44886 0.0
O290 O 0.94871 0.60703 0.48131 0.0
C291 C 0.98867 0.60475 0.51211 0.0
O292 O 0.99919 0.60048 0.49558 0.0
O293 O 0.97754 0.60425 0.49687 0.0
O294 O 0.97764 0.5736 0.45659 0.0
O295 O 0.98596 0.60038 0.402 0.0
C296 C 0.98354 0.59309 0.37568 0.0
O297 O 0.97542 0.58312 0.37981 0.0
O298 O 0.95418 0.59812 0.43004 0.0
Mg299 Mg 0.6597 0.72329 0.7039 0.0
C300 C 0.65461 0.72743 0.62911 0.0
O301 O 0.65845 0.71508 0.63105 0.0
C302 C 0.65281 0.72312 0.77887 0.0
O303 O 0.65727 0.71113 0.77345 0.0
C304 C 0.64001 0.70177 0.70319 0.0
O305 O 0.63328 0.71165 0.71647 0.0
O306 O 0.65216 0.70345 0.69637 0.0
O307 O 0.65399 0.73416 0.65717 0.0
O308 O 0.68096 0.7244 0.70885 0.0
C309 C 0.68542 0.73604 0.71221 0.0
O310 O 0.67708 0.74595 0.71102 0.0
O311 O 0.65211 0.731 0.75306 0.0
Mg312 Mg 0.47335 0.4094 0.43572 0.0
C313 C 0.48019 0.39568 0.36804 0.0
O314 O 0.46867 0.3903 0.37459 0.0
C315 C 0.48989 0.39972 0.49849 0.0
O316 O 0.49999 0.40327 0.47918 0.0
C317 C 0.44705 0.39582 0.44105 0.0
O318 O 0.4532 0.39036 0.46755 0.0
O319 O 0.45293 0.4047 0.42352 0.0
O320 O 0.48516 0.40349 0.39053 0.0
O321 O 0.47586 0.43039 0.44397 0.0
C322 C 0.48716 0.43548 0.43889 0.0
O323 O 0.4967 0.42801 0.42675 0.0
O324 O 0.47832 0.40054 0.48592 0.0
Mg325 Mg 0.34189 0.72571 0.19282 0.0
C326 C 0.31497 0.73556 0.19642 0.0
O327 O 0.32205 0.74568 0.1861 0.0
C328 C 0.34845 0.69619 0.17695 0.0
O329 O 0.33579 0.69447 0.17134 0.0
C330 C 0.3521 0.72832 0.26521 0.0
O331 O 0.35173 0.71546 0.26122 0.0
O332 O 0.34908 0.73561 0.23938 0.0
O333 O 0.32071 0.72451 0.2005 0.0
O334 O 0.34559 0.73623 0.1443 0.0
C335 C 0.34234 0.72982 0.11704 0.0
O336 O 0.33688 0.71818 0.12088 0.0
O337 O 0.35264 0.70737 0.18696 0.0
Mg338 Mg 0.0238 0.59698 0.9446 0.0
C339 C 0.00421 0.60085 0.8832 0.0
O340 O 0.99682 0.59232 0.89998 0.0
C341 C 0.0248 0.6032 0.01958 0.0
O342 O 0.03601 0.59711 0.01345 0.0
C343 C 0.04982 0.60087 0.90877 0.0
O344 O 0.04275 0.59633 0.88262 0.0
O345 O 0.0446 0.60154 0.93895 0.0
O346 O 0.01494 0.60474 0.89698 0.0
O347 O 0.02035 0.57591 0.94854 0.0
C348 C 0.00965 0.57229 0.96298 0.0
O349 O 0.00131 0.58135 0.97367 0.0
O350 O 0.01708 0.60536 0.99398 0.0
Mg351 Mg 0.15603 0.26919 0.68607 0.0
C352 C 0.18284 0.259 0.69185 0.0
O353 O 0.17573 0.24872 0.68285 0.0
C354 C 0.15064 0.29857 0.66795 0.0
O355 O 0.16319 0.29925 0.65973 0.0
C356 C 0.14619 0.26717 0.75863 0.0
O357 O 0.14724 0.27997 0.75427 0.0
O358 O 0.14858 0.25963 0.7328 0.0
O359 O 0.17717 0.27014 0.69429 0.0
O360 O 0.15238 0.2587 0.63748 0.0
C361 C 0.15846 0.2636 0.61146 0.0
O362 O 0.16638 0.27364 0.61688 0.0
O363 O 0.14596 0.2879 0.68013 0.0
Mg364 Mg 0.47411 0.59134 0.06233 0.0
C365 C 0.4887 0.60406 0.12648 0.0
O366 O 0.49055 0.61448 0.10672 0.0
C367 C 0.49097 0.59188 0.99771 0.0
O368 O 0.49309 0.57986 0.00898 0.0
C369 C 0.45477 0.61293 0.06792 0.0
O370 O 0.46604 0.61921 0.06486 0.0
O371 O 0.4548 0.60042 0.06658 0.0
O372 O 0.48313 0.59392 0.11368 0.0
O373 O 0.47261 0.57021 0.05327 0.0
C374 C 0.48155 0.56295 0.06641 0.0
O375 O 0.49055 0.56843 0.0864 0.0
O376 O 0.48412 0.59965 0.01655 0.0
Mg377 Mg 0.15772 0.72162 0.81777 0.0
C378 C 0.18261 0.73545 0.8049 0.0
O379 O 0.17403 0.74499 0.80963 0.0
C380 C 0.14952 0.69603 0.85293 0.0
O381 O 0.15279 0.70276 0.88093 0.0
C382 C 0.14583 0.72231 0.74656 0.0
O383 O 0.1474 0.70958 0.75134 0.0
O384 O 0.1486 0.73012 0.77153 0.0
O385 O 0.17868 0.72359 0.80755 0.0
O386 O 0.15331 0.73192 0.86647 0.0
C387 C 0.162 0.7309 0.89031 0.0
O388 O 0.17294 0.72449 0.88325 0.0
O389 O 0.15111 0.70125 0.82299 0.0
Mg390 Mg 0.0296 0.4094 0.5578 0.0
C391 C 0.02521 0.40439 0.63272 0.0
O392 O 0.03773 0.40762 0.6309 0.0
C393 C 0.02801 0.40705 0.48207 0.0
O394 O 0.03866 0.41406 0.48812 0.0
C395 C 0.04815 0.38795 0.56807 0.0
O396 O 0.03644 0.38239 0.56793 0.0
O397 O 0.04887 0.40033 0.5633 0.0
O398 O 0.0185 0.40409 0.60459 0.0
O399 O 0.0298 0.43072 0.55431 0.0
C400 C 0.01847 0.43594 0.55771 0.0
O401 O 0.00838 0.42828 0.56485 0.0
O402 O 0.02139 0.40291 0.50813 0.0
Mg403 Mg 0.34382 0.27899 0.3195 0.0
C404 C 0.31832 0.26626 0.31047 0.0
O405 O 0.32647 0.2566 0.318 0.0
C406 C 0.349 0.30964 0.31558 0.0
O407 O 0.34066 0.31033 0.28938 0.0
C408 C 0.35648 0.27743 0.24829 0.0
O409 O 0.35653 0.29025 0.25274 0.0
O410 O 0.35264 0.27011 0.27329 0.0
O411 O 0.32278 0.27797 0.31003 0.0
O412 O 0.34764 0.2685 0.36801 0.0
C413 C 0.34436 0.27517 0.39484 0.0
O414 O 0.33902 0.28683 0.39018 0.0
O415 O 0.35146 0.29859 0.3298 0.0
C416 C 0.99509 0.11742 0.69922 0.0
C417 C 0.99362 0.10555 0.68059 0.0
C418 C 0.99725 0.11728 0.73541 0.0
C419 C 0.98887 0.0981 0.81135 0.0
H420 H 0.01824 0.11445 0.85953 0.0
C421 C 0.00032 0.08584 0.95433 0.0
C422 C 0.00619 0.09531 0.97612 0.0
C423 C 0.99835 0.08838 0.91888 0.0
C424 C 0.00982 0.11006 0.84664 0.0
H425 H 0.99373 0.08422 0.68523 0.0
H426 H 0.99718 0.08405 0.74833 0.0
H427 H 0.01631 0.11657 0.79598 0.0
H428 H 0.01422 0.11509 0.97789 0.0
H429 H 0.01034 0.11975 0.91602 0.0
H430 H 0.98208 0.09185 0.86145 0.0
C431 C 0.99673 0.09343 0.73485 0.0
C432 C 0.00879 0.11121 0.81023 0.0
C433 C 0.99483 0.09355 0.6987 0.0
C434 C 0.00969 0.10758 0.96177 0.0
C435 C 0.00757 0.11019 0.92621 0.0
C436 C 0.98974 0.09716 0.84767 0.0
C437 C 0.99772 0.10528 0.75361 0.0
C438 C 0.99846 0.10498 0.79226 0.0
C439 C 0.00201 0.10055 0.90417 0.0
C440 C 0.0004 0.10283 0.86583 0.0
H441 H 0.99423 0.12681 0.686 0.0
H442 H 0.99799 0.12654 0.74937 0.0
H443 H 0.98068 0.09342 0.79808 0.0
H444 H 0.99759 0.07624 0.96436 0.0
H445 H 0.99432 0.08057 0.90284 0.0
C446 C 0.14823 0.74306 0.93472 0.0
C447 C 0.15943 0.7355 0.92646 0.0
C448 C 0.14573 0.74683 0.96937 0.0
C449 C 0.16225 0.7498 0.05615 0.0
H450 H 0.12652 0.74984 0.09231 0.0
C451 C 0.15184 0.75303 0.20325 0.0
C452 C 0.143 0.76298 0.21357 0.0
C453 C 0.15286 0.74936 0.16814 0.0
C454 C 0.13654 0.74992 0.08246 0.0
H455 H 0.17671 0.72591 0.94819 0.0
H456 H 0.1722 0.73212 0.00813 0.0
H457 H 0.13045 0.74459 0.03072 0.0
H458 H 0.12774 0.77629 0.19535 0.0
H459 H 0.12941 0.76968 0.13399 0.0
H460 H 0.16835 0.75482 0.10801 0.0
C461 C 0.1655 0.73549 0.988 0.0
C462 C 0.1388 0.747 0.04715 0.0
C463 C 0.16805 0.73185 0.9535 0.0
C464 C 0.13468 0.76862 0.18825 0.0
C465 C 0.1356 0.76483 0.15313 0.0
C466 C 0.16001 0.75254 0.0914 0.0
C467 C 0.15432 0.74305 0.9965 0.0
C468 C 0.15172 0.74679 0.0336 0.0
C469 C 0.14497 0.75543 0.14262 0.0
C470 C 0.14715 0.75254 0.10501 0.0
H471 H 0.1414 0.74604 0.91446 0.0
H472 H 0.13711 0.75279 0.97483 0.0
H473 H 0.1723 0.75008 0.04658 0.0
H474 H 0.15838 0.74845 0.22203 0.0
H475 H 0.16004 0.74195 0.16081 0.0
C476 C 0.52301 0.90048 0.20439 0.0
C477 C 0.51478 0.89856 0.17524 0.0
C478 C 0.51848 0.89789 0.23815 0.0
C479 C 0.48809 0.8956 0.29002 0.0
H480 H 0.51135 0.8803 0.35952 0.0
C481 C 0.47083 0.88803 0.432 0.0
C482 C 0.47967 0.89201 0.45827 0.0
C483 C 0.47503 0.88669 0.39737 0.0
C484 C 0.50475 0.88466 0.3405 0.0
H485 H 0.49534 0.89223 0.15878 0.0
H486 H 0.48738 0.88768 0.21807 0.0
H487 H 0.5186 0.88193 0.29883 0.0
H488 H 0.50003 0.89711 0.46895 0.0
H489 H 0.50736 0.8949 0.40845 0.0
H490 H 0.47436 0.89863 0.3317 0.0
C491 C 0.49734 0.89128 0.21463 0.0
C492 C 0.5089 0.88558 0.30569 0.0
C493 C 0.50192 0.89383 0.18067 0.0
C494 C 0.49297 0.89399 0.44939 0.0
C495 C 0.49718 0.89269 0.41466 0.0
C496 C 0.48394 0.8947 0.32482 0.0
C497 C 0.50558 0.89333 0.24378 0.0
C498 C 0.5007 0.89125 0.28011 0.0
C499 C 0.48818 0.88933 0.38807 0.0
C500 C 0.49229 0.88937 0.35062 0.0
H501 H 0.53298 0.90411 0.20125 0.0
H502 H 0.52502 0.89978 0.25996 0.0
H503 H 0.48159 0.90018 0.27113 0.0
H504 H 0.46053 0.88631 0.43796 0.0
H505 H 0.4679 0.88382 0.37774 0.0
C506 C 0.35075 0.25724 0.43715 0.0
C507 C 0.34657 0.27023 0.43079 0.0
C508 C 0.35248 0.25274 0.4715 0.0
C509 C 0.34236 0.26046 0.5624 0.0
H510 H 0.37123 0.23738 0.58816 0.0
C511 C 0.35219 0.24706 0.70601 0.0
C512 C 0.35408 0.23359 0.7129 0.0
C513 C 0.3526 0.25179 0.67168 0.0
C514 C 0.36309 0.24378 0.58129 0.0
H515 H 0.34131 0.28877 0.45547 0.0
H516 H 0.34455 0.28105 0.51482 0.0
H517 H 0.3691 0.24484 0.52763 0.0
H518 H 0.35859 0.21466 0.68932 0.0
H519 H 0.3593 0.22293 0.62955 0.0
H520 H 0.33632 0.25941 0.61588 0.0
C521 C 0.34619 0.27421 0.49352 0.0
C522 C 0.36184 0.24801 0.5466 0.0
C523 C 0.34439 0.27866 0.45938 0.0
C524 C 0.35704 0.22509 0.68491 0.0
C525 C 0.35751 0.22983 0.65064 0.0
C526 C 0.34365 0.25629 0.59699 0.0
C527 C 0.35011 0.26116 0.50011 0.0
C528 C 0.35146 0.25643 0.53677 0.0
C529 C 0.35498 0.24318 0.64355 0.0
C530 C 0.35402 0.24792 0.60688 0.0
H531 H 0.3525 0.25051 0.41566 0.0
H532 H 0.35541 0.2426 0.47565 0.0
H533 H 0.33409 0.2667 0.55566 0.0
H534 H 0.34994 0.25389 0.72696 0.0
H535 H 0.35081 0.26217 0.6671 0.0
C536 C 0.99024 0.90534 0.81887 0.0
C537 C 0.9907 0.89352 0.83801 0.0
C538 C 0.99196 0.90529 0.78262 0.0
C539 C 0.00619 0.88776 0.70873 0.0
H540 H 0.97881 0.90512 0.6551 0.0
C541 C 0.00827 0.89038 0.55698 0.0
C542 C 0.00425 0.90234 0.54179 0.0
C543 C 0.00591 0.88786 0.59253 0.0
C544 C 0.98666 0.90037 0.66955 0.0
H545 H 0.99389 0.87244 0.83412 0.0
H546 H 0.9973 0.87245 0.77058 0.0
H547 H 0.97698 0.90392 0.71846 0.0
H548 H 0.99437 0.92092 0.55209 0.0
H549 H 0.99064 0.91676 0.61351 0.0
H550 H 0.0162 0.8847 0.66008 0.0
C551 C 0.99543 0.8817 0.78383 0.0
C552 C 0.98555 0.89964 0.7059 0.0
C553 C 0.99347 0.88171 0.82014 0.0
C554 C 0.99754 0.91155 0.56273 0.0
C555 C 0.99531 0.90911 0.59815 0.0
C556 C 0.00743 0.88869 0.67228 0.0
C557 C 0.99441 0.89347 0.76466 0.0
C558 C 0.99538 0.89349 0.72591 0.0
C559 C 0.99956 0.89729 0.61376 0.0
C560 C 0.99777 0.89519 0.6522 0.0
H561 H 0.9881 0.91462 0.83169 0.0
H562 H 0.99126 0.91452 0.76851 0.0
H563 H 0.01392 0.88298 0.72359 0.0
H564 H 0.01345 0.88307 0.54159 0.0
H565 H 0.00915 0.87856 0.60338 0.0
C566 C 0.35871 0.78019 0.82766 0.0
C567 C 0.35438 0.7719 0.80054 0.0
C568 C 0.35935 0.77561 0.86204 0.0
C569 C 0.35878 0.74534 0.91664 0.0
H570 H 0.34454 0.76891 0.98706 0.0
C571 C 0.34205 0.72718 0.0521 0.0
C572 C 0.34492 0.73501 0.08148 0.0
C573 C 0.34454 0.73182 0.01839 0.0
C574 C 0.34873 0.76228 0.96785 0.0
H575 H 0.34783 0.75211 0.78809 0.0
H576 H 0.3488 0.74413 0.84818 0.0
H577 H 0.34685 0.77652 0.92699 0.0
H578 H 0.35267 0.75387 0.09843 0.0
H579 H 0.35701 0.762 0.0393 0.0
H580 H 0.36039 0.73101 0.95749 0.0
C581 C 0.35184 0.75416 0.84283 0.0
C582 C 0.35007 0.76664 0.93337 0.0
C583 C 0.35124 0.75874 0.80835 0.0
C584 C 0.35033 0.74761 0.07634 0.0
C585 C 0.35277 0.75228 0.04249 0.0
C586 C 0.35741 0.74097 0.95112 0.0
C587 C 0.35562 0.76263 0.8702 0.0
C588 C 0.35499 0.75818 0.90725 0.0
C589 C 0.34992 0.74441 0.01314 0.0
C590 C 0.35223 0.74934 0.97704 0.0
H591 H 0.36131 0.79036 0.82251 0.0
H592 H 0.36257 0.78231 0.88235 0.0
H593 H 0.3628 0.73864 0.89733 0.0
H594 H 0.33787 0.71743 0.05505 0.0
H595 H 0.34203 0.72559 0.99637 0.0
C596 C 0.49136 0.10235 0.05636 0.0
C597 C 0.47786 0.10291 0.0484 0.0
C598 C 0.49569 0.10387 0.09091 0.0
C599 C 0.48334 0.10025 0.1815 0.0
H600 H 0.51682 0.11616 0.20603 0.0
C601 C 0.50181 0.10304 0.32474 0.0
C602 C 0.51496 0.09912 0.32972 0.0
C603 C 0.49693 0.10524 0.29096 0.0
C604 C 0.50745 0.11165 0.19956 0.0
H605 H 0.45838 0.10634 0.07002 0.0
H606 H 0.46592 0.10933 0.12986 0.0
H607 H 0.50906 0.11716 0.14568 0.0
H608 H 0.53338 0.09477 0.30318 0.0
H609 H 0.5249 0.09856 0.24467 0.0
H610 H 0.48181 0.09462 0.23529 0.0
C611 C 0.47317 0.10732 0.10974 0.0
C612 C 0.50302 0.1122 0.16495 0.0
C613 C 0.46885 0.10569 0.07535 0.0
C614 C 0.52318 0.09774 0.30033 0.0
C615 C 0.51835 0.10002 0.26672 0.0
C616 C 0.48774 0.09977 0.21611 0.0
C617 C 0.4866 0.10609 0.11816 0.0
C618 C 0.49098 0.10635 0.15537 0.0
C619 C 0.50515 0.10369 0.26156 0.0
C620 C 0.49994 0.10529 0.22546 0.0
H621 H 0.49854 0.10016 0.0362 0.0
H622 H 0.5061 0.10276 0.09641 0.0
H623 H 0.47413 0.09544 0.17507 0.0
H624 H 0.49524 0.10421 0.34686 0.0
H625 H 0.48672 0.10815 0.28782 0.0
C626 C 0.16345 0.26429 0.54762 0.0
C627 C 0.15635 0.25868 0.57542 0.0
C628 C 0.16134 0.26014 0.51332 0.0
C629 C 0.13722 0.24385 0.45573 0.0
H630 H 0.16755 0.2405 0.39461 0.0
C631 C 0.13532 0.22359 0.31272 0.0
C632 C 0.14358 0.22986 0.2883 0.0
C633 C 0.13574 0.22714 0.34813 0.0
C634 C 0.15896 0.24153 0.41121 0.0
H635 H 0.14144 0.24424 0.58894 0.0
H636 H 0.13781 0.23686 0.52867 0.0
H637 H 0.17079 0.24585 0.45595 0.0
H638 H 0.15807 0.24539 0.28154 0.0
H639 H 0.15867 0.25163 0.34288 0.0
H640 H 0.12541 0.23948 0.41061 0.0
C641 C 0.14495 0.24458 0.53358 0.0
C642 C 0.16082 0.24458 0.44642 0.0
C643 C 0.14709 0.24874 0.56809 0.0
C644 C 0.15168 0.24024 0.29968 0.0
C645 C 0.1521 0.24377 0.33491 0.0
C646 C 0.13535 0.24076 0.42034 0.0
C647 C 0.15208 0.25024 0.50582 0.0
C648 C 0.14998 0.24599 0.46901 0.0
C649 C 0.14445 0.237 0.35972 0.0
C650 C 0.14621 0.23978 0.3976 0.0
H651 H 0.17062 0.27201 0.55222 0.0
H652 H 0.16684 0.26487 0.49256 0.0
H653 H 0.12866 0.24495 0.47241 0.0
H654 H 0.12896 0.21555 0.30482 0.0
H655 H 0.12973 0.22174 0.36662 0.0
C656 C 0.01244 0.90589 0.3182 0.0
C657 C 0.00698 0.89609 0.3398 0.0
C658 C 0.01116 0.90519 0.28191 0.0
C659 C 0.99151 0.89108 0.21053 0.0
H660 H 0.02269 0.89869 0.15538 0.0
C661 C 0.99055 0.88999 0.0589 0.0
C662 C 0.99695 0.90056 0.04222 0.0
C663 C 0.99235 0.88772 0.09475 0.0
C664 C 0.01385 0.89664 0.17031 0.0
H665 H 0.99551 0.87805 0.33999 0.0
H666 H 0.99315 0.87693 0.27628 0.0
H667 H 0.02415 0.89839 0.21892 0.0
H668 H 0.01065 0.91671 0.05 0.0
H669 H 0.01366 0.91288 0.11209 0.0
H670 H 0.98112 0.8897 0.16191 0.0
C671 C 0.99847 0.88513 0.28768 0.0
C672 C 0.0147 0.89645 0.20677 0.0
C673 C 0.99984 0.88576 0.32415 0.0
C674 C 0.00558 0.90846 0.0619 0.0
C675 C 0.00736 0.90621 0.09762 0.0
C676 C 0.99063 0.89136 0.17396 0.0
C677 C 0.00432 0.89473 0.26614 0.0
C678 C 0.0035 0.8939 0.22734 0.0
C679 C 0.0006 0.89596 0.1147 0.0
C680 C 0.00176 0.89437 0.15338 0.0
H681 H 0.01796 0.91403 0.32923 0.0
H682 H 0.01557 0.91288 0.26612 0.0
H683 H 0.98269 0.88915 0.22566 0.0
H684 H 0.98384 0.8837 0.04453 0.0
H685 H 0.98714 0.87961 0.1069 0.0
C686 C 0.85035 0.24851 0.07996 0.0
C687 C 0.85752 0.25998 0.08785 0.0
C688 C 0.85009 0.24355 0.04582 0.0
C689 C 0.86641 0.2457 0.95872 0.0
H690 H 0.832 0.23501 0.92503 0.0
C691 C 0.85434 0.23765 0.81148 0.0
C692 C 0.84612 0.22693 0.80327 0.0
C693 C 0.85664 0.24113 0.84644 0.0
C694 C 0.84172 0.2378 0.93408 0.0
H695 H 0.87055 0.27488 0.06629 0.0
H696 H 0.86997 0.26633 0.00686 0.0
H697 H 0.83464 0.24154 0.98577 0.0
H698 H 0.83417 0.21126 0.8254 0.0
H699 H 0.83825 0.21725 0.8859 0.0
H700 H 0.87341 0.24211 0.90664 0.0
C701 C 0.86463 0.26108 0.02703 0.0
C702 C 0.84325 0.24152 0.969 0.0
C703 C 0.8649 0.26603 0.06116 0.0
C704 C 0.84048 0.21964 0.83071 0.0
C705 C 0.84276 0.22311 0.86548 0.0
C706 C 0.86488 0.242 0.92367 0.0
C707 C 0.85699 0.24995 0.01877 0.0
C708 C 0.8556 0.24552 0.98181 0.0
C709 C 0.85073 0.23399 0.87382 0.0
C710 C 0.8525 0.23799 0.91097 0.0
H711 H 0.84462 0.24356 0.09991 0.0
H712 H 0.84431 0.23481 0.04051 0.0
H713 H 0.8761 0.24861 0.96778 0.0
H714 H 0.85883 0.24346 0.79095 0.0
H715 H 0.86276 0.24962 0.85198 0.0
C716 C 0.48967 0.09113 0.8203 0.0
C717 C 0.48944 0.10293 0.83955 0.0
C718 C 0.49276 0.09118 0.78473 0.0
C719 C 0.49408 0.11331 0.70742 0.0
H720 H 0.51134 0.08304 0.66572 0.0
C721 C 0.50946 0.10854 0.56 0.0
C722 C 0.50559 0.09663 0.54413 0.0
C723 C 0.50782 0.11041 0.59608 0.0
C724 C 0.50649 0.09155 0.67702 0.0
H725 H 0.49274 0.12401 0.83663 0.0
H726 H 0.49857 0.12405 0.77465 0.0
H727 H 0.50896 0.08427 0.72896 0.0
H728 H 0.49659 0.07755 0.55366 0.0
H729 H 0.49394 0.08078 0.6163 0.0
H730 H 0.49187 0.12061 0.65501 0.0
C731 C 0.49602 0.11478 0.7869 0.0
C732 C 0.50505 0.09224 0.71328 0.0
C733 C 0.49278 0.11475 0.82254 0.0
C734 C 0.49971 0.08684 0.56493 0.0
C735 C 0.49826 0.08863 0.60089 0.0
C736 C 0.49571 0.1127 0.67106 0.0
C737 C 0.49589 0.10301 0.7674 0.0
C738 C 0.49856 0.10298 0.72899 0.0
C739 C 0.50248 0.10033 0.61694 0.0
C740 C 0.50167 0.10167 0.65551 0.0
H741 H 0.48706 0.08185 0.83244 0.0
H742 H 0.49229 0.08194 0.77064 0.0
H743 H 0.48891 0.12167 0.71843 0.0
H744 H 0.51401 0.11628 0.5447 0.0
H745 H 0.51114 0.11953 0.60786 0.0
C746 C 0.65097 0.72507 0.56485 0.0
C747 C 0.65149 0.73323 0.59455 0.0
C748 C 0.64866 0.73038 0.53177 0.0
C749 C 0.6522 0.761 0.48191 0.0
H750 H 0.63086 0.74256 0.41344 0.0
C751 C 0.6458 0.78116 0.34228 0.0
C752 C 0.64699 0.77199 0.3149 0.0
C753 C 0.64446 0.77694 0.37686 0.0
C754 C 0.63692 0.74779 0.43217 0.0
H755 H 0.64971 0.75338 0.61282 0.0
H756 H 0.64568 0.76271 0.55473 0.0
H757 H 0.63187 0.73445 0.47344 0.0
H758 H 0.64724 0.75116 0.30229 0.0
H759 H 0.64508 0.74377 0.36273 0.0
H760 H 0.65753 0.77415 0.44059 0.0
C761 C 0.64715 0.75218 0.55719 0.0
C762 C 0.63748 0.74315 0.46658 0.0
C763 C 0.64939 0.74684 0.59045 0.0
C764 C 0.64632 0.75848 0.32276 0.0
C765 C 0.64502 0.75425 0.35744 0.0
C766 C 0.65167 0.76562 0.44751 0.0
C767 C 0.64685 0.744 0.52744 0.0
C768 C 0.64528 0.7496 0.49174 0.0
C769 C 0.64433 0.76344 0.38498 0.0
C770 C 0.64415 0.75898 0.42208 0.0
H771 H 0.65251 0.71454 0.56702 0.0
H772 H 0.64868 0.72382 0.50942 0.0
H773 H 0.65845 0.76609 0.50049 0.0
H774 H 0.64617 0.79165 0.33712 0.0
H775 H 0.64368 0.78429 0.39731 0.0
C776 C 0.99718 0.1054 0.46364 0.0
C777 C 0.98436 0.10922 0.47328 0.0
C778 C 0.0012 0.10599 0.42869 0.0
C779 C 0.98724 0.10522 0.33981 0.0
H780 H 0.02308 0.11338 0.31208 0.0
C781 C 0.00477 0.1027 0.19527 0.0
C782 C 0.01704 0.09657 0.18992 0.0
C783 C 0.00055 0.10588 0.22915 0.0
C784 C 0.01304 0.11101 0.31942 0.0
H785 H 0.96597 0.11737 0.45394 0.0
H786 H 0.97307 0.11857 0.39314 0.0
H787 H 0.01637 0.11647 0.37278 0.0
H788 H 0.03448 0.08901 0.216 0.0
H789 H 0.0271 0.09442 0.27462 0.0
H790 H 0.98398 0.09953 0.28658 0.0
C791 C 0.97992 0.11486 0.41249 0.0
C792 C 0.0092 0.11278 0.35422 0.0
C793 C 0.97589 0.11426 0.44742 0.0
C794 C 0.02498 0.09375 0.21909 0.0
C795 C 0.0208 0.09696 0.25278 0.0
C796 C 0.99108 0.10346 0.30498 0.0
C797 C 0.99251 0.11044 0.40256 0.0
C798 C 0.99631 0.10971 0.36498 0.0
C799 C 0.00854 0.10307 0.2583 0.0
C800 C 0.00409 0.1061 0.29451 0.0
H801 H 0.00395 0.10144 0.48285 0.0
H802 H 0.01094 0.10241 0.42197 0.0
H803 H 0.97728 0.10258 0.34724 0.0
H804 H 0.99844 0.10503 0.17334 0.0
H805 H 0.99108 0.11066 0.23251 0.0
C806 C 0.64342 0.22359 0.17761 0.0
C807 C 0.6467 0.23187 0.20579 0.0
C808 C 0.6432 0.22844 0.14343 0.0
C809 C 0.65818 0.2544 0.0901 0.0
H810 H 0.63222 0.24414 0.02083 0.0
C811 C 0.65805 0.27701 0.95258 0.0
C812 C 0.65531 0.26878 0.92391 0.0
C813 C 0.6563 0.27253 0.98672 0.0
C814 C 0.63963 0.24696 0.03976 0.0
H815 H 0.65177 0.2519 0.2203 0.0
H816 H 0.65135 0.26039 0.16054 0.0
H817 H 0.62981 0.23671 0.08129 0.0
H818 H 0.64851 0.24937 0.9087 0.0
H819 H 0.64567 0.2414 0.96866 0.0
H820 H 0.66815 0.26444 0.04876 0.0
C821 C 0.64908 0.25009 0.16493 0.0
C822 C 0.63822 0.24276 0.07442 0.0
C823 C 0.64923 0.24525 0.19918 0.0
C824 C 0.6507 0.25594 0.93023 0.0
C825 C 0.649 0.25142 0.96457 0.0
C826 C 0.65963 0.25854 0.05551 0.0
C827 C 0.64632 0.24168 0.13661 0.0
C828 C 0.64746 0.24646 0.1 0.0
C829 C 0.65185 0.25966 0.99324 0.0
C830 C 0.65035 0.25493 0.02989 0.0
H831 H 0.64138 0.21323 0.18178 0.0
H832 H 0.64111 0.22169 0.12222 0.0
H833 H 0.66563 0.25719 0.10897 0.0
H834 H 0.6615 0.28701 0.94874 0.0
H835 H 0.65834 0.27925 0.00806 0.0
C836 C 0.48762 0.90692 0.68592 0.0
C837 C 0.49282 0.89714 0.66379 0.0
C838 C 0.48921 0.90611 0.72209 0.0
C839 C 0.50929 0.89182 0.79213 0.0
H840 H 0.47829 0.89877 0.84863 0.0
C841 C 0.5108 0.88997 0.94382 0.0
C842 C 0.50419 0.90028 0.96111 0.0
C843 C 0.50903 0.88795 0.90786 0.0
C844 C 0.48708 0.8969 0.83332 0.0
H845 H 0.50421 0.87905 0.66248 0.0
H846 H 0.50714 0.87775 0.72601 0.0
H847 H 0.47651 0.89875 0.78515 0.0
H848 H 0.49025 0.91629 0.95422 0.0
H849 H 0.48731 0.9129 0.89195 0.0
H850 H 0.51995 0.89037 0.84033 0.0
C851 C 0.50176 0.886 0.71511 0.0
C852 C 0.48605 0.89687 0.79691 0.0
C853 C 0.50006 0.88674 0.67875 0.0
C854 C 0.49547 0.90823 0.94185 0.0
C855 C 0.49373 0.90623 0.90603 0.0
C856 C 0.51035 0.89195 0.82867 0.0
C857 C 0.49612 0.89556 0.73718 0.0
C858 C 0.49717 0.89457 0.77587 0.0
C859 C 0.5006 0.89617 0.88841 0.0
C860 C 0.49929 0.89473 0.84973 0.0
H861 H 0.48203 0.91511 0.67541 0.0
H862 H 0.48496 0.91376 0.73834 0.0
H863 H 0.51805 0.89006 0.7766 0.0
H864 H 0.51758 0.88366 0.95787 0.0
H865 H 0.51434 0.88 0.89526 0.0
C866 C 0.85954 0.75583 0.69874 0.0
C867 C 0.85827 0.76941 0.70505 0.0
C868 C 0.86063 0.75105 0.66453 0.0
C869 C 0.86746 0.76079 0.57258 0.0
H870 H 0.84479 0.73114 0.55098 0.0
C871 C 0.85472 0.74438 0.43052 0.0
C872 C 0.85335 0.73079 0.42454 0.0
C873 C 0.85675 0.74918 0.46452 0.0
C874 C 0.85134 0.7393 0.55657 0.0
H875 H 0.85781 0.78867 0.68043 0.0
H876 H 0.85964 0.78034 0.62092 0.0
H877 H 0.84624 0.73906 0.61078 0.0
H878 H 0.85377 0.71154 0.44921 0.0
H879 H 0.85755 0.71982 0.50785 0.0
H880 H 0.87245 0.76105 0.51808 0.0
C881 C 0.85986 0.77337 0.64235 0.0
C882 C 0.85218 0.74383 0.59095 0.0
C883 C 0.85873 0.77814 0.67651 0.0
C884 C 0.85459 0.72209 0.45293 0.0
C885 C 0.85669 0.72684 0.48667 0.0
C886 C 0.86665 0.75621 0.53807 0.0
C887 C 0.86052 0.75976 0.63588 0.0
C888 C 0.86022 0.75464 0.59942 0.0
C889 C 0.85751 0.74045 0.49308 0.0
C890 C 0.85857 0.7454 0.52966 0.0
H891 H 0.85928 0.74884 0.72012 0.0
H892 H 0.86133 0.74052 0.66046 0.0
H893 H 0.87381 0.76908 0.57829 0.0
H894 H 0.8538 0.75133 0.40918 0.0
H895 H 0.85727 0.75973 0.46855 0.0
C896 C 0.48722 0.59428 0.18644 0.0
C897 C 0.49164 0.6045 0.16452 0.0
C898 C 0.48888 0.59506 0.22262 0.0
C899 C 0.50834 0.61005 0.29256 0.0
H900 H 0.47787 0.60164 0.34964 0.0
C901 C 0.51065 0.61087 0.44432 0.0
C902 C 0.50429 0.60036 0.46139 0.0
C903 C 0.50864 0.61308 0.40851 0.0
C904 C 0.48652 0.6039 0.33419 0.0
H905 H 0.50168 0.62337 0.16356 0.0
H906 H 0.50479 0.62458 0.22707 0.0
H907 H 0.47585 0.60183 0.28622 0.0
H908 H 0.49057 0.58417 0.45425 0.0
H909 H 0.4873 0.58784 0.3923 0.0
H910 H 0.51915 0.61166 0.34048 0.0
C911 C 0.49995 0.61603 0.21601 0.0
C912 C 0.48534 0.60404 0.29781 0.0
C913 C 0.49815 0.61533 0.17968 0.0
C914 C 0.4956 0.59239 0.44208 0.0
C915 C 0.49366 0.59456 0.40641 0.0
C916 C 0.50957 0.60977 0.32907 0.0
C917 C 0.49511 0.606 0.23788 0.0
C918 C 0.49628 0.60689 0.27656 0.0
C919 C 0.50026 0.60483 0.38897 0.0
C920 C 0.49872 0.60645 0.35036 0.0
H921 H 0.48219 0.58577 0.17578 0.0
H922 H 0.48523 0.58708 0.23875 0.0
H923 H 0.51694 0.61223 0.27682 0.0
H924 H 0.51739 0.6172 0.45842 0.0
H925 H 0.51375 0.6212 0.39611 0.0
C926 C 0.65116 0.22334 0.45466 0.0
C927 C 0.65131 0.23193 0.42585 0.0
C928 C 0.64907 0.22812 0.4884 0.0
C929 C 0.63668 0.25679 0.53874 0.0
H930 H 0.65845 0.24192 0.61212 0.0
C931 C 0.64268 0.28022 0.67601 0.0
C932 C 0.64392 0.27176 0.70495 0.0
C933 C 0.64191 0.27513 0.6421 0.0
C934 C 0.65213 0.24604 0.59208 0.0
H935 H 0.64914 0.25231 0.40988 0.0
H936 H 0.64569 0.26075 0.46916 0.0
H937 H 0.66064 0.23381 0.55261 0.0
H938 H 0.64465 0.25129 0.72104 0.0
H939 H 0.64323 0.2424 0.66182 0.0
H940 H 0.62836 0.26921 0.57842 0.0
C941 C 0.64703 0.25025 0.46548 0.0
C942 C 0.6534 0.2414 0.55788 0.0
C943 C 0.64907 0.24543 0.43153 0.0
C944 C 0.64375 0.25808 0.69933 0.0
C945 C 0.64304 0.25299 0.66537 0.0
C946 C 0.63544 0.26148 0.57304 0.0
C947 C 0.64716 0.24165 0.49437 0.0
C948 C 0.64569 0.2467 0.53075 0.0
C949 C 0.64241 0.26147 0.63632 0.0
C950 C 0.64317 0.25615 0.60011 0.0
H951 H 0.6527 0.21286 0.45124 0.0
H952 H 0.64895 0.22117 0.50988 0.0
H953 H 0.63047 0.26099 0.51858 0.0
H954 H 0.64273 0.29082 0.6794 0.0
H955 H 0.64153 0.28194 0.62034 0.0
C956 C 0.00541 0.40079 0.67133 0.0
C957 C 0.01915 0.4017 0.66726 0.0
C958 C 0.99986 0.3991 0.7046 0.0
C959 C 0.00777 0.38891 0.79543 0.0
H960 H 0.97882 0.41195 0.82064 0.0
C961 C 0.99239 0.3986 0.93908 0.0
C962 C 0.97897 0.40072 0.94626 0.0
C963 C 0.99676 0.39711 0.90455 0.0
C964 C 0.98675 0.40526 0.81397 0.0
H965 H 0.03785 0.4011 0.6948 0.0
H966 H 0.02821 0.39819 0.75246 0.0
H967 H 0.98713 0.412 0.76095 0.0
H968 H 0.95953 0.40227 0.92298 0.0
H969 H 0.96708 0.39938 0.8631 0.0
H970 H 0.00748 0.38226 0.84857 0.0
C971 C 0.0217 0.39872 0.73008 0.0
C972 C 0.99151 0.4053 0.77967 0.0
C973 C 0.02722 0.40049 0.69697 0.0
C974 C 0.96996 0.4008 0.91834 0.0
C975 C 0.9743 0.39922 0.88393 0.0
C976 C 0.00297 0.38882 0.82974 0.0
C977 C 0.00796 0.39816 0.73439 0.0
C978 C 0.00219 0.39725 0.77009 0.0
C979 C 0.98778 0.39763 0.87648 0.0
C980 C 0.99249 0.39711 0.83956 0.0
H981 H 0.99893 0.40167 0.64895 0.0
H982 H 0.98924 0.3986 0.70705 0.0
H983 H 0.01591 0.38246 0.78877 0.0
H984 H 0.99958 0.39854 0.96001 0.0
H985 H 0.00723 0.39603 0.89982 0.0
C986 C 0.84136 0.72271 0.17498 0.0
C987 C 0.84853 0.72834 0.20267 0.0
C988 C 0.84369 0.72654 0.14052 0.0
C989 C 0.86777 0.74238 0.08178 0.0
H990 H 0.83691 0.74792 0.0238 0.0
C991 C 0.86973 0.76548 0.94259 0.0
C992 C 0.86089 0.76055 0.91745 0.0
C993 C 0.86918 0.7611 0.97727 0.0
C994 C 0.84565 0.74623 0.03942 0.0
H995 H 0.864 0.74223 0.21567 0.0
H996 H 0.86805 0.74901 0.15506 0.0
H997 H 0.83418 0.74153 0.08458 0.0
H998 H 0.845 0.74664 0.90871 0.0
H999 H 0.84419 0.73885 0.96886 0.0
H1000 H 0.87923 0.74711 0.03634 0.0
C1001 C 0.86066 0.74156 0.16024 0.0
C1002 C 0.84408 0.7426 0.07435 0.0
C1003 C 0.8583 0.73773 0.19494 0.0
C1004 C 0.85188 0.75073 0.92743 0.0
C1005 C 0.85135 0.74633 0.96202 0.0
C1006 C 0.86935 0.74601 0.04666 0.0
C1007 C 0.85324 0.73611 0.13269 0.0
C1008 C 0.8551 0.74051 0.09591 0.0
C1009 C 0.85978 0.75167 0.98757 0.0
C1010 C 0.85829 0.74787 0.02498 0.0
H1011 H 0.83383 0.71537 0.17986 0.0
H1012 H 0.83797 0.72195 0.11991 0.0
H1013 H 0.87646 0.74074 0.09764 0.0
H1014 H 0.87679 0.77307 0.93582 0.0
H1015 H 0.87577 0.76548 0.99627 0.0
C1016 C 0.50822 0.39356 0.05551 0.0
C1017 C 0.51942 0.40107 0.04691 0.0
C1018 C 0.5046 0.39172 0.09061 0.0
C1019 C 0.50875 0.40726 0.17732 0.0
H1020 H 0.49612 0.37393 0.21371 0.0
C1021 C 0.49794 0.4008 0.32415 0.0
C1022 C 0.48627 0.39411 0.33295 0.0
C1023 C 0.50275 0.40053 0.28983 0.0
C1024 C 0.49952 0.38334 0.2039 0.0
H1025 H 0.5358 0.41215 0.06859 0.0
H1026 H 0.52956 0.40889 0.12921 0.0
H1027 H 0.50262 0.37561 0.1523 0.0
H1028 H 0.47082 0.38142 0.31275 0.0
H1029 H 0.47909 0.3811 0.25306 0.0
H1030 H 0.5055 0.41509 0.22847 0.0
C1031 C 0.52344 0.40459 0.10901 0.0
C1032 C 0.50324 0.3843 0.16868 0.0
C1033 C 0.52705 0.4064 0.07414 0.0
C1034 C 0.47984 0.3867 0.30695 0.0
C1035 C 0.48462 0.38646 0.27265 0.0
C1036 C 0.50501 0.40632 0.21239 0.0
C1037 C 0.51207 0.39741 0.11774 0.0
C1038 C 0.50793 0.39627 0.15501 0.0
C1039 C 0.49599 0.39359 0.26344 0.0
C1040 C 0.50036 0.39435 0.22623 0.0
H1041 H 0.50213 0.38932 0.03517 0.0
H1042 H 0.49575 0.38618 0.09645 0.0
H1043 H 0.51208 0.4167 0.16752 0.0
H1044 H 0.50319 0.40655 0.34354 0.0
H1045 H 0.51168 0.40593 0.28387 0.0
C1046 C 0.85667 0.25812 0.31198 0.0
C1047 C 0.84981 0.26975 0.30371 0.0
C1048 C 0.85861 0.25447 0.34695 0.0
C1049 C 0.84416 0.25965 0.43433 0.0
H1050 H 0.87688 0.24471 0.4685 0.0
C1051 C 0.85082 0.24746 0.58007 0.0
C1052 C 0.85664 0.23525 0.58781 0.0
C1053 C 0.85129 0.25255 0.5461 0.0
C1054 C 0.86764 0.24878 0.45931 0.0
H1055 H 0.84003 0.28688 0.32576 0.0
H1056 H 0.84349 0.28058 0.3863 0.0
H1057 H 0.87517 0.25158 0.40741 0.0
H1058 H 0.86804 0.21908 0.56618 0.0
H1059 H 0.86869 0.22783 0.50703 0.0
H1060 H 0.8365 0.25667 0.48576 0.0
C1061 C 0.84718 0.27416 0.3659 0.0
C1062 C 0.86667 0.2527 0.4243 0.0
C1063 C 0.84526 0.2778 0.33111 0.0
C1064 C 0.86343 0.22851 0.56116 0.0
C1065 C 0.86387 0.23358 0.52719 0.0
C1066 C 0.84511 0.2557 0.4692 0.0
C1067 C 0.8537 0.26237 0.37429 0.0
C1068 C 0.85491 0.25819 0.41143 0.0
C1069 C 0.85756 0.24552 0.51905 0.0
C1070 C 0.85685 0.25021 0.48219 0.0
H1071 H 0.8603 0.25171 0.29148 0.0
H1072 H 0.86362 0.24529 0.35256 0.0
H1073 H 0.83487 0.26361 0.42512 0.0
H1074 H 0.84558 0.25295 0.60002 0.0
H1075 H 0.84655 0.26191 0.54091 0.0
C1076 C 0.01101 0.60975 0.82484 0.0
C1077 C 0.00114 0.60449 0.84654 0.0
C1078 C 0.00867 0.61181 0.78925 0.0
C1079 C 0.98617 0.60094 0.71799 0.0
H1080 H 0.00468 0.62784 0.66529 0.0
C1081 C 0.9778 0.60849 0.57018 0.0
C1082 C 0.98936 0.60807 0.54985 0.0
C1083 C 0.9785 0.60982 0.60652 0.0
C1084 C 0.99946 0.62029 0.67972 0.0
H1085 H 0.98084 0.5979 0.84818 0.0
H1086 H 0.97653 0.60202 0.78643 0.0
H1087 H 0.00672 0.62723 0.72887 0.0
H1088 H 0.01069 0.60944 0.55167 0.0
H1089 H 0.01187 0.61206 0.61519 0.0
H1090 H 0.97879 0.59416 0.6687 0.0
C1091 C 0.98626 0.60413 0.79657 0.0
C1092 C 0.00067 0.61986 0.71617 0.0
C1093 C 0.98868 0.60187 0.83211 0.0
C1094 C 0.0016 0.6097 0.56656 0.0
C1095 C 0.00228 0.61124 0.6029 0.0
C1096 C 0.9848 0.60151 0.68165 0.0
C1097 C 0.99632 0.60886 0.77442 0.0
C1098 C 0.9942 0.61005 0.73583 0.0
C1099 C 0.99076 0.61099 0.62331 0.0
C1100 C 0.99156 0.61107 0.66209 0.0
H1101 H 0.02077 0.61179 0.83502 0.0
H1102 H 0.01676 0.61525 0.77319 0.0
H1103 H 0.98125 0.59306 0.73186 0.0
H1104 H 0.9682 0.60725 0.5582 0.0
H1105 H 0.96946 0.60971 0.6216 0.0
C1106 C 0.64999 0.75254 0.09078 0.0
C1107 C 0.65114 0.76625 0.09507 0.0
C1108 C 0.64821 0.74711 0.0574 0.0
C1109 C 0.63815 0.75551 0.96678 0.0
H1110 H 0.6606 0.72621 0.94071 0.0
C1111 C 0.64802 0.74092 0.82281 0.0
C1112 C 0.6498 0.72751 0.81495 0.0
C1113 C 0.64648 0.74505 0.85751 0.0
C1114 C 0.65407 0.73424 0.94764 0.0
H1115 H 0.65095 0.785 0.06781 0.0
H1116 H 0.64789 0.77557 0.01001 0.0
H1117 H 0.66078 0.73423 1.00071 0.0
H1118 H 0.6507 0.70787 0.8372 0.0
H1119 H 0.64776 0.71503 0.8974 0.0
H1120 H 0.63156 0.75564 0.91359 0.0
C1121 C 0.64828 0.769 0.03229 0.0
C1122 C 0.65419 0.73884 0.9821 0.0
C1123 C 0.65014 0.7744 0.06548 0.0
C1124 C 0.64949 0.71829 0.84236 0.0
C1125 C 0.64788 0.72241 0.87695 0.0
C1126 C 0.638 0.75089 0.93232 0.0
C1127 C 0.64743 0.75529 0.02776 0.0
C1128 C 0.64637 0.74965 0.99196 0.0
C1129 C 0.64662 0.73586 0.88508 0.0
C1130 C 0.64609 0.7403 0.92219 0.0
H1131 H 0.6507 0.746 0.11307 0.0
H1132 H 0.64748 0.73651 0.05477 0.0
H1133 H 0.63187 0.76375 0.97368 0.0
H1134 H 0.64825 0.74827 0.8023 0.0
H1135 H 0.64565 0.7555 0.86279 0.0
C1136 C 0.50215 0.39593 0.81832 0.0
C1137 C 0.51496 0.39213 0.82808 0.0
C1138 C 0.49806 0.39496 0.78338 0.0
C1139 C 0.50777 0.38045 0.69667 0.0
H1140 H 0.48647 0.40893 0.65969 0.0
C1141 C 0.50435 0.3937 0.54939 0.0
C1142 C 0.49173 0.39639 0.53595 0.0
C1143 C 0.50617 0.39165 0.58527 0.0
C1144 C 0.49231 0.40083 0.66972 0.0
H1145 H 0.53339 0.38405 0.80875 0.0
H1146 H 0.5265 0.38277 0.74833 0.0
H1147 H 0.49126 0.40814 0.72208 0.0
H1148 H 0.47111 0.39881 0.54972 0.0
H1149 H 0.47438 0.39548 0.61234 0.0
H1150 H 0.50927 0.37355 0.64379 0.0
C1151 C 0.51942 0.3862 0.76747 0.0
C1152 C 0.49501 0.40032 0.70558 0.0
C1153 C 0.52343 0.38703 0.8023 0.0
C1154 C 0.48096 0.39673 0.55914 0.0
C1155 C 0.48282 0.3949 0.59505 0.0
C1156 C 0.50523 0.38109 0.66075 0.0
C1157 C 0.50673 0.39028 0.75733 0.0
C1158 C 0.50291 0.39021 0.71956 0.0
C1159 C 0.49546 0.39247 0.60853 0.0
C1160 C 0.49758 0.39135 0.64686 0.0
H1161 H 0.49536 0.39985 0.83755 0.0
H1162 H 0.48814 0.39799 0.77678 0.0
H1163 H 0.51363 0.37233 0.7064 0.0
H1164 H 0.51285 0.39337 0.53226 0.0
H1165 H 0.51605 0.38987 0.59498 0.0
C1166 C 0.35754 0.72581 0.3287 0.0
C1167 C 0.3542 0.73402 0.30044 0.0
C1168 C 0.35792 0.73079 0.36277 0.0
C1169 C 0.34315 0.75702 0.41554 0.0
H1170 H 0.36903 0.74686 0.48512 0.0
C1171 C 0.34269 0.77976 0.55277 0.0
C1172 C 0.3451 0.77147 0.58147 0.0
C1173 C 0.34484 0.77536 0.51871 0.0
C1174 C 0.36165 0.74967 0.46608 0.0
H1175 H 0.34928 0.75406 0.28563 0.0
H1176 H 0.35 0.76275 0.34512 0.0
H1177 H 0.37143 0.73921 0.4248 0.0
H1178 H 0.35189 0.75207 0.59691 0.0
H1179 H 0.35542 0.74423 0.53708 0.0
H1180 H 0.33319 0.76724 0.45661 0.0
C1181 C 0.35216 0.75242 0.34092 0.0
C1182 C 0.36305 0.74533 0.43152 0.0
C1183 C 0.35184 0.74745 0.30681 0.0
C1184 C 0.34994 0.75869 0.57533 0.0
C1185 C 0.35202 0.75424 0.54106 0.0
C1186 C 0.34171 0.76129 0.45001 0.0
C1187 C 0.35492 0.74407 0.36936 0.0
C1188 C 0.35383 0.74899 0.40585 0.0
C1189 C 0.34936 0.76249 0.51232 0.0
C1190 C 0.35095 0.75772 0.47573 0.0
H1191 H 0.35946 0.71542 0.3247 0.0
H1192 H 0.36001 0.72409 0.38409 0.0
H1193 H 0.3357 0.75977 0.39661 0.0
H1194 H 0.33911 0.78972 0.55652 0.0
H1195 H 0.34296 0.78209 0.49732 0.0
C1196 C 0.00815 0.61072 0.06422 0.0
C1197 C 0.02086 0.60611 0.05613 0.0
C1198 C 0.00413 0.61204 0.09912 0.0
C1199 C 0.01654 0.61234 0.19126 0.0
H1200 H 0.98199 0.59805 0.21207 0.0
C1201 C 0.99552 0.60785 0.33304 0.0
C1202 C 0.98876 0.59607 0.34031 0.0
C1203 C 0.99944 0.61083 0.29872 0.0
C1204 C 0.99169 0.60205 0.20674 0.0
H1205 H 0.03951 0.59987 0.07846 0.0
H1206 H 0.03249 0.60196 0.13886 0.0
H1207 H 0.98882 0.60062 0.15153 0.0
H1208 H 0.98124 0.57799 0.31741 0.0
H1209 H 0.98818 0.58307 0.25829 0.0
H1210 H 0.01957 0.61319 0.2467 0.0
C1211 C 0.02563 0.60471 0.11845 0.0
C1212 C 0.99554 0.6037 0.17195 0.0
C1213 C 0.02962 0.60341 0.08368 0.0
C1214 C 0.98632 0.58722 0.31279 0.0
C1215 C 0.9902 0.59018 0.27872 0.0
C1216 C 0.01268 0.61067 0.22615 0.0
C1217 C 0.01275 0.60879 0.12669 0.0
C1218 C 0.00812 0.60861 0.1637 0.0
C1219 C 0.99663 0.6021 0.27108 0.0
C1220 C 0.00032 0.60521 0.23429 0.0
H1221 H 0.00117 0.61294 0.04363 0.0
H1222 H 0.9942 0.61539 0.1045 0.0
H1223 H 0.02623 0.61633 0.18588 0.0
H1224 H 0.99753 0.61488 0.35366 0.0
H1225 H 0.00436 0.62011 0.29371 0.0
C1226 C 0.14166 0.27025 0.82242 0.0
C1227 C 0.14418 0.26174 0.79417 0.0
C1228 C 0.14151 0.26548 0.85668 0.0
C1229 C 0.15575 0.2388 0.90881 0.0
H1230 H 0.13186 0.25105 0.98108 0.0
C1231 C 0.15761 0.21747 0.04753 0.0
C1232 C 0.15633 0.22623 0.0758 0.0
C1233 C 0.15502 0.22161 0.01347 0.0
C1234 C 0.13868 0.24764 0.96125 0.0
H1235 H 0.14784 0.2414 0.77963 0.0
H1236 H 0.1475 0.23305 0.83948 0.0
H1237 H 0.12872 0.25826 0.92065 0.0
H1238 H 0.1511 0.24619 0.09052 0.0
H1239 H 0.14679 0.25354 0.03065 0.0
H1240 H 0.16589 0.2284 0.94919 0.0
C1241 C 0.14582 0.24346 0.83511 0.0
C1242 C 0.13685 0.25173 0.92664 0.0
C1243 C 0.14592 0.24823 0.8008 0.0
C1244 C 0.15218 0.23921 0.06927 0.0
C1245 C 0.14964 0.24339 0.03501 0.0
C1246 C 0.1576 0.23476 0.94333 0.0
C1247 C 0.14393 0.25209 0.86348 0.0
C1248 C 0.14537 0.24734 0.90003 0.0
C1249 C 0.15116 0.23466 0.00667 0.0
C1250 C 0.1491 0.2391 0.97 0.0
H1251 H 0.14024 0.28071 0.81823 0.0
H1252 H 0.14011 0.2724 0.87793 0.0
H1253 H 0.16267 0.23547 0.88911 0.0
H1254 H 0.16064 0.20735 0.05161 0.0
H1255 H 0.15602 0.21454 0.99242 0.0
C1256 C 0.50716 0.59598 0.68376 0.0
C1257 C 0.51003 0.60796 0.66692 0.0
C1258 C 0.50508 0.59559 0.71986 0.0
C1259 C 0.49506 0.61377 0.79688 0.0
H1260 H 0.51869 0.59035 0.8467 0.0
C1261 C 0.49287 0.60823 0.94818 0.0
C1262 C 0.4948 0.59545 0.96145 0.0
C1263 C 0.49545 0.61102 0.91288 0.0
C1264 C 0.51186 0.59681 0.83332 0.0
H1265 H 0.51223 0.62903 0.67459 0.0
H1266 H 0.50813 0.62834 0.73781 0.0
H1267 H 0.52058 0.59253 0.78356 0.0
H1268 H 0.5011 0.57565 0.94798 0.0
H1269 H 0.50512 0.58032 0.88701 0.0
H1270 H 0.48589 0.61761 0.8463 0.0
C1271 C 0.50771 0.61927 0.72291 0.0
C1272 C 0.51302 0.5981 0.7971 0.0
C1273 C 0.51006 0.61964 0.68679 0.0
C1274 C 0.4996 0.58564 0.93884 0.0
C1275 C 0.502 0.58837 0.90367 0.0
C1276 C 0.4937 0.61228 0.83317 0.0
C1277 C 0.50555 0.60719 0.73985 0.0
C1278 C 0.50455 0.60645 0.77848 0.0
C1279 C 0.49991 0.60107 0.89 0.0
C1280 C 0.50198 0.60362 0.85186 0.0
H1281 H 0.50709 0.5868 0.66933 0.0
H1282 H 0.50332 0.58617 0.73232 0.0
H1283 H 0.4884 0.62028 0.78303 0.0
H1284 H 0.48919 0.61602 0.96491 0.0
H1285 H 0.4939 0.62097 0.90355 0.0
C1286 C 0.15255 0.77282 0.46052 0.0
C1287 C 0.15086 0.76481 0.43085 0.0
C1288 C 0.14985 0.76798 0.49391 0.0
C1289 C 0.14778 0.73722 0.54379 0.0
H1290 H 0.13115 0.75944 0.61362 0.0
C1291 C 0.1394 0.71862 0.68416 0.0
C1292 C 0.14282 0.72739 0.71114 0.0
C1293 C 0.13827 0.72303 0.64969 0.0
C1294 C 0.13588 0.75314 0.59451 0.0
H1295 H 0.14486 0.74544 0.41302 0.0
H1296 H 0.14016 0.73693 0.47162 0.0
H1297 H 0.13321 0.76727 0.55355 0.0
H1298 H 0.14716 0.74781 0.72324 0.0
H1299 H 0.14536 0.75549 0.66306 0.0
H1300 H 0.15078 0.72323 0.58479 0.0
C1301 C 0.14364 0.74697 0.4689 0.0
C1302 C 0.13704 0.75762 0.56007 0.0
C1303 C 0.14629 0.75185 0.43535 0.0
C1304 C 0.14448 0.7408 0.7031 0.0
C1305 C 0.14341 0.74521 0.66855 0.0
C1306 C 0.14665 0.73275 0.57824 0.0
C1307 C 0.14542 0.75499 0.49856 0.0
C1308 C 0.14317 0.74978 0.53442 0.0
C1309 C 0.14058 0.73632 0.6413 0.0
C1310 C 0.14084 0.74072 0.60415 0.0
H1311 H 0.15605 0.78286 0.45806 0.0
H1312 H 0.15152 0.77436 0.51619 0.0
H1313 H 0.15271 0.73101 0.5248 0.0
H1314 H 0.13794 0.70824 0.68948 0.0
H1315 H 0.13581 0.71597 0.62949 0.0
C1316 C 0.99868 0.40394 0.17039 0.0
C1317 C 0.98701 0.39702 0.16288 0.0
C1318 C 0.00387 0.40397 0.20431 0.0
C1319 C 0.00197 0.38702 0.29067 0.0
H1320 H 0.0146 0.42059 0.3256 0.0
C1321 C 0.01232 0.39733 0.43788 0.0
C1322 C 0.02371 0.40468 0.44554 0.0
C1323 C 0.00821 0.39565 0.40316 0.0
C1324 C 0.01124 0.4111 0.31617 0.0
H1325 H 0.97194 0.38431 0.18495 0.0
H1326 H 0.98087 0.38452 0.24389 0.0
H1327 H 0.00726 0.41879 0.26524 0.0
H1328 H 0.03982 0.41581 0.42259 0.0
H1329 H 0.03269 0.41285 0.36251 0.0
H1330 H 0.00579 0.37942 0.34199 0.0
C1331 C 0.98611 0.38982 0.22362 0.0
C1332 C 0.00707 0.41005 0.28147 0.0
C1333 C 0.98094 0.38976 0.18976 0.0
C1334 C 0.03097 0.41014 0.41775 0.0
C1335 C 0.02684 0.40851 0.38322 0.0
C1336 C 0.0061 0.38809 0.32549 0.0
C1337 C 0.99752 0.3971 0.2315 0.0
C1338 C 0.00238 0.39801 0.26821 0.0
C1339 C 0.01536 0.40135 0.37547 0.0
C1340 C 0.0108 0.40014 0.33862 0.0
H1341 H 0.00364 0.40958 0.15028 0.0
H1342 H 0.01281 0.4095 0.20928 0.0
H1343 H 0.99856 0.37755 0.28126 0.0
H1344 H 0.00651 0.393 0.45868 0.0
H1345 H 0.99926 0.39015 0.39805 0.0
C1346 C 0.3561 0.25842 0.20633 0.0
C1347 C 0.35854 0.27183 0.2129 0.0
C1348 C 0.35602 0.25359 0.17208 0.0
C1349 C 0.3654 0.26116 0.08041 0.0
H1350 H 0.33532 0.23909 0.05849 0.0
C1351 C 0.3501 0.24806 0.93803 0.0
C1352 C 0.34568 0.23512 0.93215 0.0
C1353 C 0.35248 0.25254 0.97214 0.0
C1354 C 0.34388 0.2451 0.06418 0.0
H1355 H 0.36362 0.2905 0.18875 0.0
H1356 H 0.36343 0.28208 0.12909 0.0
H1357 H 0.33881 0.24636 0.11831 0.0
H1358 H 0.34052 0.21668 0.95746 0.0
H1359 H 0.3448 0.22439 0.01639 0.0
H1360 H 0.3704 0.25991 0.02604 0.0
C1361 C 0.3616 0.27529 0.15038 0.0
C1362 C 0.34589 0.24925 0.09855 0.0
C1363 C 0.36165 0.28012 0.18462 0.0
C1364 C 0.34381 0.22675 0.96099 0.0
C1365 C 0.3462 0.23119 0.9949 0.0
C1366 C 0.3634 0.25697 0.04592 0.0
C1367 C 0.35841 0.26205 0.14365 0.0
C1368 C 0.35668 0.25731 0.10713 0.0
C1369 C 0.35048 0.24416 1.00099 0.0
C1370 C 0.35262 0.24886 0.03742 0.0
H1371 H 0.35374 0.25174 0.22749 0.0
H1372 H 0.35377 0.24328 0.1678 0.0
H1373 H 0.37385 0.26731 0.08622 0.0
H1374 H 0.35165 0.25475 0.91635 0.0
H1375 H 0.35565 0.26263 0.97593 0.0
C1376 C 0.00233 0.04181 0.0867 0.0
C1377 C 0.01318 0.04893 0.07381 0.0
C1378 C 0.99923 0.0294 0.07308 0.0
C1379 C 0.00368 0.00943 0.99354 0.0
H1380 H 0.99188 0.98056 0.05207 0.0
C1381 C 0.99739 0.95648 0.94118 0.0
C1382 C 0.98686 0.94887 0.95397 0.0
C1383 C 1.00008 0.96889 0.95531 0.0
C1384 C 0.99498 0.98858 0.0353 0.0
H1385 H 0.02957 0.04838 0.03734 0.0
H1386 H 0.02423 0.02669 0.01386 0.0
H1387 H 0.99815 0.00146 0.07888 0.0
H1388 H 0.97065 0.94852 0.99096 0.0
H1389 H 0.97524 0.97028 0.0153 0.0
H1390 H 0.00049 0.9966 0.94996 0.0
C1391 C 0.018 0.03079 0.03414 0.0
C1392 C 0.99861 0.00055 0.05069 0.0
C1393 C 0.02112 0.04318 0.04782 0.0
C1394 C 0.97885 0.95411 0.98055 0.0
C1395 C 0.98155 0.96654 0.99471 0.0
C1396 C 1.00003 0.99749 0.97815 0.0
C1397 C 0.00689 0.02385 0.0462 0.0
C1398 C 0.00307 0.01109 0.03 0.0
C1399 C 0.9923 0.97401 0.98256 0.0
C1400 C 0.99569 0.98689 0.99884 0.0
H1401 H 0.996 0.04595 0.10668 0.0
H1402 H 0.99056 0.02435 0.08279 0.0
H1403 H 0.00682 0.01744 0.97679 0.0
H1404 H 0.00378 0.95274 0.92077 0.0
H1405 H 0.00852 0.97429 0.94557 0.0
C1406 C 0.20514 0.7706 0.2942 0.0
C1407 C 0.19771 0.76081 0.31115 0.0
C1408 C 0.21793 0.76791 0.28245 0.0
C1409 C 0.24583 0.74454 0.2924 0.0
H1410 H 0.25515 0.75646 0.19933 0.0
C1411 C 0.29378 0.72764 0.22348 0.0
C1412 C 0.30099 0.73754 0.20633 0.0
C1413 C 0.28097 0.73013 0.23552 0.0
C1414 C 0.25275 0.75315 0.22548 0.0
H1415 H 0.1981 0.74067 0.33016 0.0
H1416 H 0.2203 0.73599 0.30965 0.0
H1417 H 0.23366 0.76209 0.22362 0.0
H1418 H 0.30023 0.7577 0.18746 0.0
H1419 H 0.27806 0.76203 0.2085 0.0
H1420 H 0.26495 0.73561 0.29426 0.0
C1421 C 0.21631 0.74577 0.30555 0.0
C1422 C 0.24044 0.75642 0.23946 0.0
C1423 C 0.20353 0.74844 0.31718 0.0
C1424 C 0.29497 0.74983 0.20058 0.0
C1425 C 0.2822 0.75231 0.21249 0.0
C1426 C 0.25816 0.74127 0.27842 0.0
C1427 C 0.22359 0.75539 0.28755 0.0
C1428 C 0.23684 0.75218 0.27311 0.0
C1429 C 0.27509 0.74256 0.2305 0.0
C1430 C 0.26178 0.74556 0.24482 0.0
H1431 H 0.20095 0.78024 0.28918 0.0
H1432 H 0.22337 0.7756 0.26913 0.0
H1433 H 0.24343 0.74123 0.31855 0.0
H1434 H 0.29813 0.71806 0.22831 0.0
H1435 H 0.27569 0.72235 0.24889 0.0
C1436 C 0.50072 0.04554 0.42914 0.0
C1437 C 0.51233 0.05188 0.44007 0.0
C1438 C 0.49795 0.03268 0.43987 0.0
C1439 C 0.51296 0.00248 0.47577 0.0
H1440 H 0.47763 0.99553 0.50997 0.0
C1441 C 0.50022 0.95461 0.549 0.0
C1442 C 0.48809 0.94854 0.54153 0.0
C1443 C 0.50304 0.9672 0.5363 0.0
C1444 C 0.48749 0.99724 0.50009 0.0
H1445 H 0.53036 0.04952 0.46992 0.0
H1446 H 0.52552 0.02702 0.48857 0.0
H1447 H 0.48307 0.01727 0.48703 0.0
H1448 H 0.46933 0.951 0.5152 0.0
H1449 H 0.47431 0.97293 0.49258 0.0
H1450 H 0.51738 0.98246 0.48864 0.0
C1451 C 0.51858 0.03201 0.47161 0.0
C1452 C 0.49061 0.00971 0.48696 0.0
C1453 C 0.52133 0.04491 0.461 0.0
C1454 C 0.47874 0.95543 0.52154 0.0
C1455 C 0.48159 0.96802 0.50867 0.0
C1456 C 0.50983 0.99 0.48875 0.0
C1457 C 0.50675 0.02584 0.46164 0.0
C1458 C 0.50339 0.01248 0.47477 0.0
C1459 C 0.49383 0.97401 0.51565 0.0
C1460 C 0.49707 0.98724 0.50125 0.0
H1461 H 0.49359 0.05059 0.41291 0.0
H1462 H 0.48885 0.02811 0.4313 0.0
H1463 H 0.52285 0.00427 0.46614 0.0
H1464 H 0.50762 0.94962 0.56453 0.0
H1465 H 0.51245 0.9716 0.5428 0.0
C1466 C 0.29367 0.22756 0.79127 0.0
C1467 C 0.3009 0.2379 0.80643 0.0
C1468 C 0.28079 0.22968 0.77939 0.0
C1469 C 0.25242 0.25263 0.78681 0.0
H1470 H 0.24269 0.23827 0.6965 0.0
C1471 C 0.2041 0.26751 0.71703 0.0
C1472 C 0.19683 0.25719 0.70191 0.0
C1473 C 0.21696 0.26532 0.72905 0.0
C1474 C 0.24521 0.24226 0.7219 0.0
H1475 H 0.30011 0.25847 0.82189 0.0
H1476 H 0.27778 0.26215 0.8011 0.0
H1477 H 0.26444 0.23359 0.72058 0.0
H1478 H 0.19749 0.23659 0.6867 0.0
H1479 H 0.21977 0.2328 0.70771 0.0
H1480 H 0.23319 0.26131 0.7881 0.0
C1481 C 0.28198 0.25238 0.79857 0.0
C1482 C 0.25766 0.23953 0.73576 0.0
C1483 C 0.29483 0.25028 0.81034 0.0
C1484 C 0.20281 0.24477 0.69821 0.0
C1485 C 0.21563 0.2426 0.71011 0.0
C1486 C 0.23997 0.25536 0.77294 0.0
C1487 C 0.27485 0.24216 0.78257 0.0
C1488 C 0.26143 0.2447 0.76837 0.0
C1489 C 0.22282 0.2528 0.72605 0.0
C1490 C 0.23621 0.25021 0.74032 0.0
H1491 H 0.29806 0.21791 0.78791 0.0
H1492 H 0.27549 0.22155 0.76761 0.0
H1493 H 0.25494 0.25662 0.81221 0.0
H1494 H 0.19979 0.2772 0.72023 0.0
H1495 H 0.2223 0.27344 0.74079 0.0
C1496 C 0.02292 0.95567 0.47599 0.0
C1497 C 0.01467 0.94976 0.451 0.0
C1498 C 0.02005 0.96825 0.489 0.0
C1499 C 0.00015 0.99829 0.47131 0.0
H1500 H 0.00463 0.00433 0.57071 0.0
C1501 C 0.98088 0.04539 0.53968 0.0
C1502 C 0.98982 0.05158 0.56243 0.0
C1503 C 0.98348 0.03274 0.52679 0.0
C1504 C 0.0034 0.00282 0.54286 0.0
H1505 H 0.99711 0.95258 0.41946 0.0
H1506 H 0.99204 0.97433 0.44239 0.0
H1507 H 0.01061 0.98304 0.54574 0.0
H1508 H 0.00828 0.04917 0.5904 0.0
H1509 H 0.01275 0.02717 0.56809 0.0
H1510 H 0.99286 0.01808 0.46857 0.0
C1511 C 0.00082 0.96937 0.45169 0.0
C1512 C 0.00689 0.99064 0.5285 0.0
C1513 C 0.0037 0.95684 0.43864 0.0
C1514 C 0.00118 0.0447 0.57288 0.0
C1515 C 0.00373 0.03204 0.56023 0.0
C1516 C 0.9966 0.01046 0.48572 0.0
C1517 C 0.00886 0.97517 0.47735 0.0
C1518 C 0.00534 0.98823 0.49252 0.0
C1519 C 0.99501 0.02599 0.53666 0.0
C1520 C 0.99823 0.01287 0.52164 0.0
H1521 H 0.03146 0.9505 0.486 0.0
H1522 H 0.02659 0.97252 0.50831 0.0
H1523 H 0.99899 0.99686 0.44342 0.0
H1524 H 0.97204 0.05045 0.53112 0.0
H1525 H 0.9765 0.02826 0.50896 0.0
C1526 C 0.2054 0.72864 0.78637 0.0
C1527 C 0.19639 0.73862 0.79524 0.0
C1528 C 0.21823 0.73184 0.77583 0.0
C1529 C 0.23798 0.75947 0.74017 0.0
H1530 H 0.26768 0.73837 0.77063 0.0
C1531 C 0.29246 0.77466 0.71674 0.0
C1532 C 0.30123 0.76456 0.70715 0.0
C1533 C 0.27952 0.77167 0.72678 0.0
C1534 C 0.25947 0.74429 0.7616 0.0
H1535 H 0.19389 0.75977 0.80068 0.0
H1536 H 0.21623 0.76529 0.78291 0.0
H1537 H 0.24553 0.73268 0.79011 0.0
H1538 H 0.30315 0.74343 0.69963 0.0
H1539 H 0.28066 0.73829 0.71678 0.0
H1540 H 0.25198 0.77111 0.71178 0.0
C1541 C 0.21334 0.75501 0.7834 0.0
C1542 C 0.24677 0.74101 0.77274 0.0
C1543 C 0.20054 0.75183 0.79384 0.0
C1544 C 0.2967 0.75146 0.70706 0.0
C1545 C 0.28381 0.74849 0.71713 0.0
C1546 C 0.2507 0.76277 0.72909 0.0
C1547 C 0.22232 0.74508 0.774 0.0
C1548 C 0.23586 0.74855 0.76214 0.0
C1549 C 0.27512 0.75852 0.72751 0.0
C1550 C 0.26159 0.75518 0.73958 0.0
H1551 H 0.2025 0.71838 0.78706 0.0
H1552 H 0.22485 0.72394 0.76843 0.0
H1553 H 0.22978 0.76537 0.73106 0.0
H1554 H 0.29566 0.78484 0.71713 0.0
H1555 H 0.27307 0.77962 0.73484 0.0
C1556 C 0.51865 0.95356 0.04326 0.0
C1557 C 0.50953 0.9463 0.06312 0.0
C1558 C 0.51572 0.9664 0.03257 0.0
C1559 C 0.48751 0.98821 0.01495 0.0
H1560 H 0.5139 0.01583 0.01603 0.0
C1561 C 0.47569 0.04251 0.9793 0.0
C1562 C 0.48531 0.04944 0.96027 0.0
C1563 C 0.47837 0.0299 0.9923 0.0
C1564 C 0.50645 0.00819 0.01516 0.0
H1565 H 0.49033 0.94699 0.08817 0.0
H1566 H 0.48528 0.9694 0.06966 0.0
H1567 H 0.51934 0.9941 0.03899 0.0
H1568 H 0.5051 0.04836 0.9389 0.0
H1569 H 0.50966 0.02636 0.96087 0.0
H1570 H 0.47466 0.00225 0.99075 0.0
C1571 C 0.49462 0.9651 0.062 0.0
C1572 C 0.50957 0.99574 0.0284 0.0
C1573 C 0.49757 0.95229 0.07281 0.0
C1574 C 0.49751 0.04335 0.95371 0.0
C1575 C 0.50016 0.03075 0.96655 0.0
C1576 C 0.4844 0.00065 1.00158 0.0
C1577 C 0.50359 0.97225 0.04139 0.0
C1578 C 0.50016 0.9856 0.02831 0.0
C1579 C 0.49071 0.02394 0.98643 0.0
C1580 C 0.49386 0.01077 1.00133 0.0
H1581 H 0.52794 0.94923 0.0353 0.0
H1582 H 0.52279 0.97161 0.01648 0.0
H1583 H 0.48009 0.98054 0.01406 0.0
H1584 H 0.46621 0.04696 0.9849 0.0
H1585 H 0.4709 0.02497 0.00772 0.0
C1586 C 0.20626 0.24858 0.19875 0.0
C1587 C 0.20179 0.23548 0.20052 0.0
C1588 C 0.21895 0.25188 0.20988 0.0
C1589 C 0.2455 0.24029 0.26781 0.0
H1590 H 0.26667 0.26597 0.21795 0.0
C1591 C 0.29997 0.25019 0.30162 0.0
C1592 C 0.30456 0.26325 0.30031 0.0
C1593 C 0.2873 0.24703 0.29012 0.0
C1594 C 0.2608 0.25892 0.23243 0.0
H1595 H 0.20728 0.21551 0.21449 0.0
H1596 H 0.22953 0.22128 0.23365 0.0
H1597 H 0.24515 0.25963 0.19494 0.0
H1598 H 0.29933 0.2833 0.28648 0.0
H1599 H 0.27709 0.27779 0.26661 0.0
H1600 H 0.26113 0.23957 0.30529 0.0
C1601 C 0.22312 0.22902 0.22408 0.0
C1602 C 0.24849 0.25525 0.21918 0.0
C1603 C 0.21042 0.2257 0.21285 0.0
C1604 C 0.29609 0.27315 0.2878 0.0
C1605 C 0.28339 0.26997 0.27619 0.0
C1606 C 0.2578 0.24395 0.28104 0.0
C1607 C 0.22748 0.24218 0.22309 0.0
C1608 C 0.2407 0.24588 0.2367 0.0
C1609 C 0.27889 0.25685 0.27698 0.0
C1610 C 0.26562 0.25329 0.26348 0.0
H1611 H 0.19988 0.25637 0.1894 0.0
H1612 H 0.22193 0.26213 0.20909 0.0
H1613 H 0.23964 0.23323 0.28229 0.0
H1614 H 0.30623 0.24232 0.31106 0.0
H1615 H 0.28423 0.23682 0.29071 0.0
C1616 C 0.79237 0.23016 0.70937 0.0
C1617 C 0.80188 0.24011 0.70546 0.0
C1618 C 0.77933 0.23336 0.71795 0.0
C1619 C 0.75943 0.25988 0.75826 0.0
H1620 H 0.73005 0.24124 0.71643 0.0
C1621 C 0.70487 0.27469 0.78234 0.0
C1622 C 0.69594 0.26429 0.78748 0.0
C1623 C 0.71784 0.27212 0.77163 0.0
C1624 C 0.73816 0.24646 0.72859 0.0
H1625 H 0.80508 0.26126 0.70665 0.0
H1626 H 0.7824 0.26681 0.72112 0.0
H1627 H 0.7525 0.2359 0.69854 0.0
H1628 H 0.69368 0.24302 0.78591 0.0
H1629 H 0.71618 0.23858 0.76772 0.0
H1630 H 0.74508 0.2704 0.78843 0.0
C1631 C 0.78502 0.25652 0.71819 0.0
C1632 C 0.75102 0.24339 0.71834 0.0
C1633 C 0.79803 0.25333 0.70965 0.0
C1634 C 0.70027 0.25129 0.78204 0.0
C1635 C 0.71317 0.24873 0.77135 0.0
C1636 C 0.74656 0.26296 0.7685 0.0
C1637 C 0.77554 0.24658 0.72278 0.0
C1638 C 0.76182 0.25001 0.73317 0.0
C1639 C 0.72209 0.2591 0.76578 0.0
C1640 C 0.73577 0.25622 0.75396 0.0
H1641 H 0.79503 0.21988 0.70643 0.0
H1642 H 0.7723 0.22545 0.72162 0.0
H1643 H 0.76754 0.26504 0.77058 0.0
H1644 H 0.70183 0.28482 0.78623 0.0
H1645 H 0.72446 0.28033 0.76734 0.0
C1646 C 0.70242 0.7492 0.23032 0.0
C1647 C 0.69794 0.76212 0.22453 0.0
C1648 C 0.7155 0.74681 0.23964 0.0
C1649 C 0.74883 0.76123 0.23805 0.0
H1650 H 0.7558 0.73534 0.3103 0.0
C1651 C 0.801 0.75296 0.29403 0.0
C1652 C 0.80497 0.73985 0.29952 0.0
C1653 C 0.7879 0.75592 0.28596 0.0
C1654 C 0.75404 0.7425 0.28984 0.0
H1655 H 0.70375 0.78268 0.22352 0.0
H1656 H 0.72668 0.77849 0.23998 0.0
H1657 H 0.73312 0.74019 0.29366 0.0
H1658 H 0.79825 0.71958 0.30126 0.0
H1659 H 0.77539 0.72474 0.28686 0.0
H1660 H 0.76976 0.76348 0.23408 0.0
C1661 C 0.72004 0.7702 0.23706 0.0
C1662 C 0.74104 0.74528 0.2803 0.0
C1663 C 0.70691 0.77261 0.22775 0.0
C1664 C 0.7955 0.72978 0.2973 0.0
C1665 C 0.78238 0.73275 0.28919 0.0
C1666 C 0.76184 0.75844 0.24757 0.0
C1667 C 0.72445 0.75727 0.24342 0.0
C1668 C 0.73828 0.75463 0.25416 0.0
C1669 C 0.77845 0.74585 0.28315 0.0
C1670 C 0.7646 0.74899 0.27348 0.0
H1671 H 0.69581 0.74087 0.2279 0.0
H1672 H 0.71863 0.73672 0.24372 0.0
H1673 H 0.74705 0.76836 0.21752 0.0
H1674 H 0.80802 0.76097 0.29569 0.0
H1675 H 0.78517 0.76613 0.28204 0.0
C1676 C 0.70649 0.22643 0.28969 0.0
C1677 C 0.69825 0.23697 0.29926 0.0
C1678 C 0.71948 0.22877 0.27889 0.0
C1679 C 0.7405 0.25507 0.2421 0.0
H1680 H 0.76942 0.23282 0.27201 0.0
C1681 C 0.79514 0.26843 0.21649 0.0
C1682 C 0.80377 0.25809 0.20791 0.0
C1683 C 0.78216 0.26577 0.22677 0.0
C1684 C 0.76143 0.23903 0.26305 0.0
H1685 H 0.69733 0.25819 0.30597 0.0
H1686 H 0.71991 0.26222 0.28756 0.0
H1687 H 0.74711 0.22812 0.29232 0.0
H1688 H 0.80542 0.23686 0.20243 0.0
H1689 H 0.7828 0.23227 0.21975 0.0
H1690 H 0.75479 0.26598 0.21279 0.0
C1691 C 0.7163 0.25218 0.28777 0.0
C1692 C 0.74865 0.23634 0.27473 0.0
C1693 C 0.70337 0.24984 0.29858 0.0
C1694 C 0.79906 0.24507 0.20907 0.0
C1695 C 0.78611 0.24241 0.21926 0.0
C1696 C 0.75327 0.25775 0.23037 0.0
C1697 C 0.72447 0.2417 0.27738 0.0
C1698 C 0.73804 0.24437 0.26452 0.0
C1699 C 0.77754 0.25271 0.22861 0.0
C1700 C 0.76391 0.24979 0.24077 0.0
H1701 H 0.70284 0.2164 0.28986 0.0
H1702 H 0.72551 0.22049 0.27085 0.0
H1703 H 0.73251 0.26132 0.23326 0.0
H1704 H 0.79848 0.27857 0.21599 0.0
H1705 H 0.77586 0.27393 0.23411 0.0
C1706 C 0.7085 0.72808 0.72359 0.0
C1707 C 0.69956 0.73854 0.71928 0.0
C1708 C 0.7217 0.73059 0.73195 0.0
C1709 C 0.74711 0.75685 0.73079 0.0
H1710 H 0.76401 0.73532 0.80145 0.0
C1711 C 0.79799 0.77012 0.78955 0.0
C1712 C 0.80691 0.75966 0.7941 0.0
C1713 C 0.78483 0.76761 0.78067 0.0
C1714 C 0.75948 0.74135 0.78143 0.0
H1715 H 0.69754 0.75983 0.71986 0.0
H1716 H 0.72044 0.76416 0.73462 0.0
H1717 H 0.74136 0.73058 0.78422 0.0
H1718 H 0.80896 0.73837 0.79316 0.0
H1719 H 0.78614 0.73405 0.77751 0.0
H1720 H 0.76522 0.76763 0.72805 0.0
C1721 C 0.71733 0.75404 0.73123 0.0
C1722 C 0.7465 0.73861 0.77149 0.0
C1723 C 0.70416 0.75154 0.72294 0.0
C1724 C 0.80236 0.74666 0.78994 0.0
C1725 C 0.78924 0.74417 0.78115 0.0
C1726 C 0.76008 0.75959 0.74074 0.0
C1727 C 0.72625 0.7436 0.73607 0.0
C1728 C 0.74015 0.74633 0.74606 0.0
C1729 C 0.78032 0.75461 0.77626 0.0
C1730 C 0.76643 0.75187 0.76616 0.0
H1731 H 0.70528 0.71796 0.72089 0.0
H1732 H 0.72836 0.72233 0.73508 0.0
H1733 H 0.74257 0.76289 0.71078 0.0
H1734 H 0.80118 0.78024 0.79261 0.0
H1735 H 0.77817 0.77587 0.77749 0.0
C1736 C 0.50096 0.54576 0.56328 0.0
C1737 C 0.51258 0.55251 0.55437 0.0
C1738 C 0.49871 0.53297 0.55118 0.0
C1739 C 0.50886 0.50981 0.48149 0.0
H1740 H 0.4908 0.48423 0.5396 0.0
C1741 C 0.50223 0.45499 0.44259 0.0
C1742 C 0.48987 0.44926 0.44943 0.0
C1743 C 0.50515 0.46766 0.45466 0.0
C1744 C 0.49574 0.49131 0.52294 0.0
H1745 H 0.53114 0.55097 0.5265 0.0
H1746 H 0.52735 0.5285 0.50594 0.0
H1747 H 0.49617 0.50584 0.56342 0.0
H1748 H 0.4708 0.45247 0.4737 0.0
H1749 H 0.47592 0.47458 0.49474 0.0
H1750 H 0.5085 0.49517 0.44111 0.0
C1751 C 0.51984 0.53321 0.52174 0.0
C1752 C 0.49882 0.50371 0.53658 0.0
C1753 C 0.52207 0.54605 0.53376 0.0
C1754 C 0.48042 0.45658 0.46801 0.0
C1755 C 0.48338 0.46922 0.48028 0.0
C1756 C 0.50584 0.49737 0.46792 0.0
C1757 C 0.50807 0.52657 0.53 0.0
C1758 C 0.50534 0.51316 0.51596 0.0
C1759 C 0.49583 0.47484 0.47405 0.0
C1760 C 0.49916 0.48803 0.48842 0.0
H1761 H 0.49341 0.55045 0.57899 0.0
H1762 H 0.48946 0.52826 0.55767 0.0
H1763 H 0.51369 0.51691 0.46466 0.0
H1764 H 0.50974 0.44962 0.42835 0.0
H1765 H 0.51486 0.4717 0.44963 0.0
C1766 C 0.99906 0.45378 0.01773 0.0
C1767 C 0.98702 0.44952 0.03197 0.0
C1768 C 0.00117 0.46706 0.01019 0.0
C1769 C 0.98383 0.49848 0.99379 0.0
H1770 H 0.0182 0.51359 0.01312 0.0
C1771 C 0.99463 0.55435 0.98381 0.0
C1772 C 0.00673 0.55816 0.96899 0.0
C1773 C 0.99197 0.5411 0.9908 0.0
C1774 C 0.0086 0.50948 0.00718 0.0
H1775 H 0.96771 0.45592 0.04944 0.0
H1776 H 0.97147 0.47924 0.03666 0.0
H1777 H 0.01391 0.49063 0.02774 0.0
H1778 H 0.02548 0.55098 0.94942 0.0
H1779 H 0.02082 0.52782 0.96155 0.0
H1780 H 0.97853 0.51741 0.97342 0.0
C1781 C 0.97923 0.47223 0.03094 0.0
C1782 C 0.00613 0.49632 0.01558 0.0
C1783 C 0.97709 0.45888 0.03845 0.0
C1784 C 0.01607 0.54839 0.96092 0.0
C1785 C 0.01343 0.53513 0.96806 0.0
C1786 C 0.9863 0.51168 0.98547 0.0
C1787 C 0.99132 0.47647 0.0168 0.0
C1788 C 0.99374 0.49062 0.00882 0.0
C1789 C 0.00138 0.53134 0.98328 0.0
C1790 C 0.99873 0.51731 0.99194 0.0
H1791 H 0.0069 0.44684 0.01217 0.0
H1792 H 0.01051 0.46992 0.99873 0.0
H1793 H 0.97425 0.49437 0.98778 0.0
H1794 H 0.98721 0.56162 0.99037 0.0
H1795 H 0.98265 0.53854 1.00285 0.0
C1796 C 0.49484 0.45274 0.93685 0.0
C1797 C 0.50702 0.44692 0.94514 0.0
C1798 C 0.49166 0.4653 0.94936 0.0
C1799 C 0.49933 0.48787 0.0213 0.0
H1800 H 0.48335 0.51461 0.96266 0.0
C1801 C 0.49408 0.54174 0.06628 0.0
C1802 C 0.48302 0.54902 0.05548 0.0
C1803 C 0.49627 0.52904 0.05355 0.0
C1804 C 0.4876 0.50719 0.97957 0.0
H1805 H 0.52555 0.44985 0.97235 0.0
H1806 H 0.51998 0.47175 0.99423 0.0
H1807 H 0.48891 0.49316 0.93777 0.0
H1808 H 0.46533 0.54847 0.02369 0.0
H1809 H 0.46898 0.52612 1.00207 0.0
H1810 H 0.49792 0.50174 0.06321 0.0
C1811 C 0.51286 0.46655 0.97825 0.0
C1812 C 0.49085 0.49492 0.96522 0.0
C1813 C 0.51609 0.45405 0.96548 0.0
C1814 C 0.47397 0.54314 0.03245 0.0
C1815 C 0.47613 0.53036 0.01983 0.0
C1816 C 0.496 0.50007 0.03571 0.0
C1817 C 0.50055 0.47224 0.97069 0.0
C1818 C 0.49687 0.48519 0.98587 0.0
C1819 C 0.4874 0.52322 0.02986 0.0
C1820 C 0.49021 0.50995 0.01496 0.0
H1821 H 0.48764 0.44751 0.92122 0.0
H1822 H 0.48208 0.46941 0.94324 0.0
H1823 H 0.50374 0.48047 0.03802 0.0
H1824 H 0.50129 0.54598 0.08388 0.0
H1825 H 0.50515 0.52394 0.0615 0.0
C1826 C 0.00362 0.45553 0.5545 0.0
C1827 C 0.01628 0.4501 0.55049 0.0
C1828 C 0.0011 0.46854 0.54487 0.0
C1829 C 0.01681 0.50054 0.52581 0.0
H1830 H 0.9846 0.5069 0.47385 0.0
C1831 C 0.00548 0.55071 0.46097 0.0
C1832 C 0.99249 0.55545 0.46373 0.0
C1833 C 0.00858 0.53787 0.47125 0.0
C1834 C 0.99356 0.50533 0.48867 0.0
H1835 H 0.03635 0.45425 0.53422 0.0
H1836 H 0.03191 0.47705 0.51725 0.0
H1837 H 0.98981 0.48467 0.49343 0.0
H1838 H 0.97256 0.55037 0.47927 0.0
H1839 H 0.978 0.52801 0.49751 0.0
H1840 H 0.02053 0.52123 0.52112 0.0
C1841 C 0.02395 0.47121 0.52803 0.0
C1842 C 0.99655 0.49259 0.4999 0.0
C1843 C 0.02649 0.45814 0.53767 0.0
C1844 C 0.98265 0.54701 0.47666 0.0
C1845 C 0.98576 0.53417 0.48698 0.0
C1846 C 0.0138 0.51331 0.51462 0.0
C1847 C 0.01117 0.47647 0.53098 0.0
C1848 C 0.00817 0.49004 0.51875 0.0
C1849 C 0.99878 0.52946 0.48455 0.0
C1850 C 0.00211 0.51586 0.49602 0.0
H1851 H 0.99555 0.44966 0.56454 0.0
H1852 H 0.99121 0.47238 0.54814 0.0
H1853 H 0.02577 0.49892 0.54058 0.0
H1854 H 0.01329 0.55694 0.45101 0.0
H1855 H 0.01866 0.53449 0.46854 0.0
C1856 C 0.05968 0.13068 0.09702 0.0
C1857 C 0.05878 0.11687 0.0967 0.0
C1858 C 0.07137 0.13689 0.10686 0.0
C1859 C 0.10158 0.13214 0.15804 0.0
H1860 H 0.11284 0.16338 0.10798 0.0
C1861 C 0.13695 0.17159 0.21502 0.0
C1862 C 0.14515 0.17844 0.19165 0.0
C1863 C 0.12814 0.16204 0.20263 0.0
C1864 C 0.10999 0.15456 0.12201 0.0
H1865 H 0.06949 0.09872 0.10626 0.0
H1866 H 0.09002 0.10965 0.12347 0.0
H1867 H 0.09417 0.15077 0.08652 0.0
H1868 H 0.15141 0.17984 0.13753 0.0
H1869 H 0.13632 0.16304 0.11616 0.0
H1870 H 0.11743 0.13605 0.19371 0.0
C1871 C 0.08161 0.11563 0.11623 0.0
C1872 C 0.09917 0.14743 0.10991 0.0
C1873 C 0.06989 0.10939 0.10615 0.0
C1874 C 0.14508 0.17487 0.15614 0.0
C1875 C 0.13637 0.16529 0.14385 0.0
C1876 C 0.11244 0.13932 0.17024 0.0
C1877 C 0.08245 0.12946 0.11674 0.0
C1878 C 0.0947 0.13627 0.12807 0.0
C1879 C 0.12745 0.15912 0.16669 0.0
C1880 C 0.11667 0.15072 0.15257 0.0
H1881 H 0.05131 0.13674 0.08999 0.0
H1882 H 0.07163 0.14756 0.10746 0.0
H1883 H 0.09832 0.12362 0.17271 0.0
H1884 H 0.13677 0.17414 0.24252 0.0
H1885 H 0.12137 0.15752 0.22093 0.0
C1886 C 0.14655 0.82584 0.35673 0.0
C1887 C 0.14274 0.81478 0.337 0.0
C1888 C 0.13755 0.83599 0.36361 0.0
C1889 C 0.10504 0.84941 0.33562 0.0
H1890 H 0.10236 0.86151 0.43158 0.0
C1891 C 0.05717 0.86995 0.39241 0.0
C1892 C 0.05764 0.88136 0.4132 0.0
C1893 C 0.06873 0.86371 0.38174 0.0
C1894 C 0.10313 0.8584 0.40456 0.0
H1895 H 0.12661 0.80597 0.30795 0.0
H1896 H 0.11099 0.82347 0.32013 0.0
H1897 H 0.12074 0.84733 0.41427 0.0
H1898 H 0.07069 0.8951 0.43946 0.0
H1899 H 0.09105 0.88395 0.42115 0.0
H1900 H 0.08715 0.86001 0.32629 0.0
C1901 C 0.12094 0.82444 0.33006 0.0
C1902 C 0.11366 0.8503 0.39459 0.0
C1903 C 0.1299 0.81433 0.32326 0.0
C1904 C 0.07001 0.88632 0.42342 0.0
C1905 C 0.08164 0.87995 0.41303 0.0
C1906 C 0.0945 0.85741 0.34563 0.0
C1907 C 0.12457 0.83531 0.35073 0.0
C1908 C 0.11454 0.84541 0.36021 0.0
C1909 C 0.08109 0.86864 0.3918 0.0
C1910 C 0.09324 0.8617 0.3804 0.0
H1911 H 0.15638 0.8265 0.36767 0.0
H1912 H 0.14069 0.84429 0.37932 0.0
H1913 H 0.10558 0.84608 0.30875 0.0
H1914 H 0.04783 0.86585 0.38401 0.0
H1915 H 0.06798 0.8549 0.36587 0.0
C1916 C 0.34978 0.83188 0.65217 0.0
C1917 C 0.35346 0.82138 0.67406 0.0
C1918 C 0.35869 0.84208 0.64496 0.0
C1919 C 0.39031 0.85686 0.6749 0.0
H1920 H 0.39534 0.86558 0.57707 0.0
C1921 C 0.43969 0.87453 0.62096 0.0
C1922 C 0.43995 0.88501 0.597 0.0
C1923 C 0.42775 0.86905 0.63162 0.0
C1924 C 0.39391 0.86344 0.60455 0.0
H1925 H 0.36913 0.81367 0.70681 0.0
H1926 H 0.38456 0.83127 0.69418 0.0
H1927 H 0.37653 0.85204 0.59459 0.0
H1928 H 0.42786 0.89793 0.56521 0.0
H1929 H 0.40684 0.88809 0.58356 0.0
H1930 H 0.40801 0.86774 0.68464 0.0
C1931 C 0.37482 0.83176 0.6827 0.0
C1932 C 0.38312 0.85571 0.61462 0.0
C1933 C 0.36598 0.82158 0.68975 0.0
C1934 C 0.42796 0.88986 0.58375 0.0
C1935 C 0.41596 0.88423 0.59416 0.0
C1936 C 0.4011 0.86451 0.66482 0.0
C1937 C 0.37139 0.84202 0.65976 0.0
C1938 C 0.38145 0.85199 0.64979 0.0
C1939 C 0.41576 0.87382 0.61839 0.0
C1940 C 0.40323 0.86753 0.62943 0.0
H1941 H 0.3402 0.83201 0.63968 0.0
H1942 H 0.35572 0.84991 0.62741 0.0
H1943 H 0.38915 0.85442 0.70229 0.0
H1944 H 0.44873 0.87055 0.63173 0.0
H1945 H 0.42793 0.86089 0.64988 0.0
C1946 C 0.42751 0.11048 0.91789 0.0
C1947 C 0.43875 0.1172 0.93 0.0
C1948 C 0.41595 0.11742 0.90982 0.0
C1949 C 0.39958 0.14972 0.9245 0.0
H1950 H 0.38157 0.14246 0.83713 0.0
C1951 C 0.3696 0.18877 0.8534 0.0
C1952 C 0.35683 0.18556 0.84189 0.0
C1953 C 0.37805 0.17904 0.86591 0.0
C1954 C 0.38638 0.14445 0.86186 0.0
H1955 H 0.4466 0.13644 0.94344 0.0
H1956 H 0.42669 0.14845 0.92907 0.0
H1957 H 0.39927 0.12781 0.85685 0.0
H1958 H 0.34307 0.1695 0.83365 0.0
H1959 H 0.35813 0.15231 0.85507 0.0
H1960 H 0.38714 0.16667 0.92872 0.0
C1961 C 0.42664 0.13783 0.9263 0.0
C1962 C 0.39649 0.13606 0.87321 0.0
C1963 C 0.43813 0.13093 0.93431 0.0
C1964 C 0.35283 0.17228 0.8424 0.0
C1965 C 0.36142 0.16246 0.85457 0.0
C1966 C 0.3896 0.15811 0.91305 0.0
C1967 C 0.41542 0.13119 0.91387 0.0
C1968 C 0.40346 0.13885 0.90416 0.0
C1969 C 0.37403 0.16582 0.86695 0.0
C1970 C 0.38316 0.15578 0.88117 0.0
H1971 H 0.42768 0.0999 0.9143 0.0
H1972 H 0.40745 0.11202 0.9005 0.0
H1973 H 0.40451 0.15196 0.94889 0.0
H1974 H 0.37305 0.19887 0.85339 0.0
H1975 H 0.38779 0.18187 0.87478 0.0
C1976 C 0.86027 0.81862 0.89049 0.0
C1977 C 0.85936 0.81338 0.85655 0.0
C1978 C 0.86834 0.8295 0.89725 0.0
C1979 C 0.88628 0.85711 0.85571 0.0
H1980 H 0.91042 0.85292 0.93348 0.0
C1981 C 0.93391 0.88776 0.8693 0.0
C1982 C 0.93851 0.89093 0.90291 0.0
C1983 C 0.92283 0.87974 0.86499 0.0
C1984 C 0.9036 0.85442 0.91208 0.0
H1985 H 0.86575 0.81583 0.80279 0.0
H1986 H 0.87977 0.83483 0.81461 0.0
H1987 H 0.89336 0.83651 0.92354 0.0
H1988 H 0.93472 0.88866 0.95839 0.0
H1989 H 0.91521 0.87493 0.95089 0.0
H1990 H 0.89659 0.87497 0.84405 0.0
C1991 C 0.87423 0.83054 0.83598 0.0
C1992 C 0.89382 0.84497 0.90635 0.0
C1993 C 0.86625 0.81961 0.82925 0.0
C1994 C 0.93149 0.88632 0.93213 0.0
C1995 C 0.92035 0.87837 0.92781 0.0
C1996 C 0.89601 0.86662 0.86158 0.0
C1997 C 0.87558 0.83543 0.87017 0.0
C1998 C 0.88518 0.84611 0.87782 0.0
C1999 C 0.91602 0.87477 0.89419 0.0
C2000 C 0.90493 0.86529 0.88954 0.0
H2001 H 0.85508 0.81407 0.91211 0.0
H2002 H 0.86907 0.83314 0.9238 0.0
H2003 H 0.87966 0.85832 0.83375 0.0
H2004 H 0.9391 0.89112 0.84622 0.0
H2005 H 0.91991 0.87705 0.8387 0.0
C2006 C 0.9383 0.11506 0.62351 0.0
C2007 C 0.93678 0.10821 0.59182 0.0
C2008 C 0.92851 0.12359 0.63541 0.0
C2009 C 0.89358 0.13342 0.62546 0.0
H2010 H 0.90667 0.16641 0.66312 0.0
C2011 C 0.86088 0.17924 0.65865 0.0
C2012 C 0.86439 0.18634 0.68885 0.0
C2013 C 0.86861 0.1686 0.64732 0.0
C2014 C 0.90283 0.15719 0.65309 0.0
H2015 H 0.92353 0.1046 0.54839 0.0
H2016 H 0.9064 0.11977 0.56907 0.0
H2017 H 0.92215 0.15004 0.64184 0.0
H2018 H 0.87819 0.18728 0.73209 0.0
H2019 H 0.89148 0.16874 0.71263 0.0
H2020 H 0.87417 0.1408 0.63656 0.0
C2021 C 0.91517 0.11839 0.58479 0.0
C2022 C 0.91172 0.14779 0.64087 0.0
C2023 C 0.92499 0.10974 0.5729 0.0
C2024 C 0.8753 0.18214 0.70848 0.0
C2025 C 0.88297 0.17154 0.69723 0.0
C2026 C 0.88463 0.1429 0.63767 0.0
C2027 C 0.91697 0.12562 0.61584 0.0
C2028 C 0.90725 0.13571 0.62737 0.0
C2029 C 0.87996 0.1649 0.66599 0.0
C2030 C 0.88919 0.15482 0.65207 0.0
H2031 H 0.94716 0.11398 0.63903 0.0
H2032 H 0.93008 0.12874 0.65988 0.0
H2033 H 0.88982 0.1242 0.61529 0.0
H2034 H 0.85252 0.18224 0.64294 0.0
H2035 H 0.86604 0.16369 0.62311 0.0
C2036 C 0.64765 0.17127 0.35138 0.0
C2037 C 0.64398 0.18233 0.33148 0.0
C2038 C 0.63849 0.16126 0.35837 0.0
C2039 C 0.60574 0.14834 0.33074 0.0
H2040 H 0.60257 0.1372 0.42737 0.0
C2041 C 0.55714 0.13026 0.38892 0.0
C2042 C 0.5572 0.11897 0.41017 0.0
C2043 C 0.56893 0.13592 0.37779 0.0
C2044 C 0.60347 0.14004 0.40018 0.0
H2045 H 0.62802 0.19125 0.30206 0.0
H2046 H 0.61216 0.17402 0.31441 0.0
H2047 H 0.62141 0.15062 0.4094 0.0
H2048 H 0.56973 0.10485 0.43676 0.0
H2049 H 0.59049 0.11501 0.41771 0.0
H2050 H 0.5875 0.13829 0.32192 0.0
C2051 C 0.62209 0.17293 0.32443 0.0
C2052 C 0.61427 0.1477 0.38983 0.0
C2053 C 0.63118 0.1829 0.31756 0.0
C2054 C 0.56937 0.11354 0.42038 0.0
C2055 C 0.58123 0.11935 0.40956 0.0
C2056 C 0.59493 0.14079 0.34113 0.0
C2057 C 0.62554 0.16209 0.34537 0.0
C2058 C 0.61531 0.15226 0.35519 0.0
C2059 C 0.5811 0.13054 0.38789 0.0
C2060 C 0.59349 0.13689 0.37614 0.0
H2061 H 0.65744 0.17053 0.36247 0.0
H2062 H 0.6415 0.15298 0.37432 0.0
H2063 H 0.6064 0.15144 0.3037 0.0
H2064 H 0.54796 0.13468 0.38052 0.0
H2065 H 0.56853 0.14466 0.36156 0.0
C2066 C 0.56664 0.88553 0.09441 0.0
C2067 C 0.56058 0.88274 0.06216 0.0
C2068 C 0.57685 0.87756 0.10692 0.0
C2069 C 0.58798 0.84342 0.09973 0.0
H2070 H 0.61776 0.85525 0.15506 0.0
C2071 C 0.61597 0.8078 0.18812 0.0
C2072 C 0.6298 0.8079 0.1861 0.0
C2073 C 0.60858 0.81788 0.17305 0.0
C2074 C 0.60954 0.85182 0.13946 0.0
H2075 H 0.56117 0.86999 0.01663 0.0
H2076 H 0.57905 0.8562 0.03831 0.0
H2077 H 0.60367 0.87147 0.12575 0.0
H2078 H 0.64675 0.81903 0.16806 0.0
H2079 H 0.63373 0.83675 0.14164 0.0
H2080 H 0.59373 0.82384 0.11341 0.0
C2081 C 0.57572 0.86439 0.05423 0.0
C2082 C 0.60144 0.86109 0.12288 0.0
C2083 C 0.56552 0.87234 0.04173 0.0
C2084 C 0.6361 0.81867 0.17005 0.0
C2085 C 0.62866 0.82882 0.15497 0.0
C2086 C 0.596 0.8342 0.11639 0.0
C2087 C 0.58122 0.86665 0.08744 0.0
C2088 C 0.59051 0.85698 0.10303 0.0
C2089 C 0.61481 0.82834 0.15559 0.0
C2090 C 0.60676 0.83829 0.1368 0.0
H2091 H 0.56309 0.89349 0.11078 0.0
H2092 H 0.58082 0.87953 0.13268 0.0
H2093 H 0.57956 0.8399 0.08506 0.0
H2094 H 0.6108 0.79973 0.20058 0.0
H2095 H 0.59792 0.81739 0.17461 0.0
C2096 C 0.5641 0.63061 0.55749 0.0
C2097 C 0.55985 0.61868 0.57233 0.0
C2098 C 0.57492 0.63734 0.57138 0.0
C2099 C 0.59245 0.64162 0.65416 0.0
H2100 H 0.61705 0.66147 0.59716 0.0
C2101 C 0.62008 0.68734 0.70386 0.0
C2102 C 0.63308 0.68957 0.69266 0.0
C2103 C 0.61287 0.67668 0.69096 0.0
C2104 C 0.61039 0.65583 0.61349 0.0
H2105 H 0.56399 0.60417 0.61252 0.0
H2106 H 0.58289 0.61593 0.63671 0.0
H2107 H 0.6016 0.6463 0.56928 0.0
H2108 H 0.6489 0.68208 0.66007 0.0
H2109 H 0.63625 0.66341 0.63737 0.0
H2110 H 0.60105 0.65134 0.6983 0.0
C2111 C 0.57777 0.62013 0.61453 0.0
C2112 C 0.60146 0.64725 0.59748 0.0
C2113 C 0.56698 0.61337 0.60052 0.0
C2114 C 0.6389 0.68061 0.66923 0.0
C2115 C 0.63164 0.66998 0.65606 0.0
C2116 C 0.60133 0.65024 0.67014 0.0
C2117 C 0.58171 0.63232 0.60051 0.0
C2118 C 0.59221 0.64025 0.61758 0.0
C2119 C 0.61847 0.66804 0.66637 0.0
C2120 C 0.61022 0.65765 0.64992 0.0
H2121 H 0.55885 0.63497 0.53573 0.0
H2122 H 0.57761 0.64677 0.56018 0.0
H2123 H 0.58539 0.63645 0.67039 0.0
H2124 H 0.61531 0.69404 0.72195 0.0
H2125 H 0.60271 0.67555 0.69915 0.0
C2126 C 0.56934 0.392 0.90644 0.0
C2127 C 0.5617 0.38611 0.93283 0.0
C2128 C 0.5811 0.38612 0.89524 0.0
C2129 C 0.60596 0.36078 0.91931 0.0
H2130 H 0.60992 0.35637 0.81912 0.0
C2131 C 0.63463 0.31792 0.85923 0.0
C2132 C 0.64241 0.32 0.82931 0.0
C2133 C 0.62679 0.32799 0.8727 0.0
C2134 C 0.60912 0.35773 0.84713 0.0
H2135 H 0.56069 0.36973 0.96916 0.0
H2136 H 0.58106 0.3595 0.94964 0.0
H2137 H 0.59253 0.37064 0.8419 0.0
H2138 H 0.6482 0.33439 0.79035 0.0
H2139 H 0.63429 0.35208 0.81389 0.0
H2140 H 0.62222 0.34749 0.92456 0.0
C2141 C 0.57808 0.3687 0.93769 0.0
C2142 C 0.59916 0.36591 0.86021 0.0
C2143 C 0.56633 0.37453 0.94875 0.0
C2144 C 0.64232 0.33249 0.81344 0.0
C2145 C 0.63432 0.34259 0.82681 0.0
C2146 C 0.61588 0.35261 0.90625 0.0
C2147 C 0.58549 0.37428 0.91038 0.0
C2148 C 0.59723 0.36722 0.89648 0.0
C2149 C 0.62645 0.34041 0.85656 0.0
C2150 C 0.61732 0.35068 0.87005 0.0
H2151 H 0.56605 0.40093 0.89364 0.0
H2152 H 0.58665 0.39073 0.87438 0.0
H2153 H 0.60491 0.3618 0.94736 0.0
H2154 H 0.63449 0.30844 0.87223 0.0
H2155 H 0.62069 0.32592 0.8953 0.0
C2156 C 0.86419 0.31648 0.15779 0.0
C2157 C 0.86886 0.30854 0.18528 0.0
C2158 C 0.87195 0.32677 0.14466 0.0
C2159 C 0.90679 0.33536 0.13608 0.0
H2160 H 0.89431 0.36976 0.10682 0.0
C2161 C 0.93932 0.36893 0.05318 0.0
C2162 C 0.94079 0.38195 0.06507 0.0
C2163 C 0.92932 0.36092 0.06637 0.0
C2164 C 0.89791 0.3602 0.11498 0.0
H2165 H 0.88491 0.30577 0.22205 0.0
H2166 H 0.89832 0.32369 0.19931 0.0
H2167 H 0.87906 0.35436 0.13542 0.0
H2168 H 0.93242 0.39701 0.09868 0.0
H2169 H 0.91488 0.38292 0.12183 0.0
H2170 H 0.92557 0.34107 0.11592 0.0
C2171 C 0.8888 0.32182 0.18748 0.0
C2172 C 0.88919 0.35137 0.13113 0.0
C2173 C 0.88108 0.31158 0.20059 0.0
C2174 C 0.93156 0.38702 0.08903 0.0
C2175 C 0.9215 0.37896 0.10223 0.0
C2176 C 0.91542 0.34409 0.11976 0.0
C2177 C 0.8845 0.32928 0.15873 0.0
C2178 C 0.89357 0.33888 0.14196 0.0
C2179 C 0.92053 0.36571 0.09175 0.0
C2180 C 0.9111 0.35658 0.10892 0.0
H2181 H 0.85481 0.3144 0.14545 0.0
H2182 H 0.86839 0.33234 0.12242 0.0
H2183 H 0.91043 0.32574 0.14367 0.0
H2184 H 0.94616 0.36476 0.03445 0.0
H2185 H 0.92866 0.35083 0.05728 0.0
C2186 C 0.92441 0.61653 0.45256 0.0
C2187 C 0.93353 0.60928 0.43263 0.0
C2188 C 0.91395 0.6231 0.43629 0.0
C2189 C 0.9065 0.6388 0.35313 0.0
H2190 H 0.87114 0.64226 0.39056 0.0
C2191 C 0.86973 0.67467 0.29032 0.0
C2192 C 0.86236 0.68244 0.3136 0.0
C2193 C 0.87654 0.66357 0.3023 0.0
C2194 C 0.881 0.64147 0.37987 0.0
H2195 H 0.93834 0.60259 0.38021 0.0
H2196 H 0.92015 0.6141 0.35197 0.0
H2197 H 0.88651 0.62663 0.41707 0.0
H2198 H 0.85588 0.68433 0.36744 0.0
H2199 H 0.86802 0.66531 0.38849 0.0
H2200 H 0.90136 0.654 0.31712 0.0
C2201 C 0.92116 0.61479 0.38011 0.0
C2202 C 0.88977 0.63248 0.39501 0.0
C2203 C 0.93155 0.60816 0.39636 0.0
C2204 C 0.86145 0.67854 0.34877 0.0
C2205 C 0.86837 0.66754 0.36083 0.0
C2206 C 0.8978 0.64786 0.33825 0.0
C2207 C 0.91246 0.62261 0.39978 0.0
C2208 C 0.90267 0.63118 0.38204 0.0
C2209 C 0.87627 0.66009 0.33793 0.0
C2210 C 0.88499 0.64946 0.3517 0.0
H2211 H 0.92562 0.61755 0.48056 0.0
H2212 H 0.90744 0.62911 0.45212 0.0
H2213 H 0.91644 0.63818 0.3429 0.0
H2214 H 0.87052 0.67734 0.26299 0.0
H2215 H 0.88226 0.65789 0.28373 0.0
C2216 C 0.3621 0.32117 0.36142 0.0
C2217 C 0.35596 0.32149 0.3285 0.0
C2218 C 0.36945 0.33188 0.37326 0.0
C2219 C 0.38943 0.35907 0.34157 0.0
H2220 H 0.38904 0.36948 0.43915 0.0
C2221 C 0.42833 0.39486 0.39809 0.0
C2222 C 0.43412 0.39061 0.42954 0.0
C2223 C 0.41682 0.38887 0.38561 0.0
C2224 C 0.38929 0.36668 0.41183 0.0
H2225 H 0.35246 0.33344 0.28248 0.0
H2226 H 0.36556 0.35223 0.30314 0.0
H2227 H 0.37219 0.35448 0.41713 0.0
H2228 H 0.43207 0.37712 0.47317 0.0
H2229 H 0.41219 0.36665 0.45135 0.0
H2230 H 0.40686 0.37079 0.33657 0.0
C2231 C 0.3646 0.34363 0.31971 0.0
C2232 C 0.37962 0.35812 0.39921 0.0
C2233 C 0.35708 0.33292 0.30797 0.0
C2234 C 0.42788 0.38063 0.44885 0.0
C2235 C 0.4164 0.37468 0.43643 0.0
C2236 C 0.39915 0.3676 0.35423 0.0
C2237 C 0.37094 0.34316 0.3524 0.0
C2238 C 0.37981 0.35391 0.3642 0.0
C2239 C 0.41084 0.37856 0.40438 0.0
C2240 C 0.39942 0.37119 0.38976 0.0
H2241 H 0.36139 0.31254 0.37798 0.0
H2242 H 0.37435 0.33113 0.39834 0.0
H2243 H 0.3899 0.35591 0.31453 0.0
H2244 H 0.43287 0.40255 0.38261 0.0
H2245 H 0.4127 0.39219 0.36101 0.0
C2246 C 0.35413 0.67334 0.15583 0.0
C2247 C 0.35815 0.6859 0.16719 0.0
C2248 C 0.36343 0.6642 0.14359 0.0
C2249 C 0.39556 0.66329 0.10128 0.0
H2250 H 0.39956 0.62781 0.13727 0.0
C2251 C 0.44305 0.63408 0.07993 0.0
C2252 C 0.4425 0.62037 0.07512 0.0
C2253 C 0.43173 0.64119 0.08842 0.0
C2254 C 0.39842 0.6376 0.12643 0.0
H2255 H 0.37518 0.69851 0.17563 0.0
H2256 H 0.3912 0.68272 0.15395 0.0
H2257 H 0.38138 0.64166 0.15811 0.0
H2258 H 0.42953 0.60338 0.07494 0.0
H2259 H 0.40961 0.6159 0.08919 0.0
H2260 H 0.41244 0.65939 0.06958 0.0
C2261 C 0.38089 0.67995 0.15438 0.0
C2262 C 0.38804 0.64551 0.13847 0.0
C2263 C 0.37168 0.68897 0.16698 0.0
C2264 C 0.43028 0.61394 0.07852 0.0
C2265 C 0.41889 0.6211 0.08689 0.0
C2266 C 0.40579 0.65537 0.08899 0.0
C2267 C 0.37686 0.66758 0.14204 0.0
C2268 C 0.38676 0.65855 0.12666 0.0
C2269 C 0.41949 0.63482 0.09206 0.0
C2270 C 0.4076 0.64255 0.10213 0.0
H2271 H 0.34379 0.67066 0.15573 0.0
H2272 H 0.3601 0.65468 0.13425 0.0
H2273 H 0.39463 0.67323 0.0913 0.0
H2274 H 0.4523 0.63935 0.07777 0.0
H2275 H 0.43266 0.65168 0.09292 0.0
C2276 C 0.06784 0.60773 0.86785 0.0
C2277 C 0.06288 0.60689 0.90212 0.0
C2278 C 0.07926 0.61496 0.86078 0.0
C2279 C 0.10832 0.63107 0.90143 0.0
H2280 H 0.10462 0.65577 0.82475 0.0
C2281 C 0.13938 0.67839 0.88989 0.0
C2282 C 0.14256 0.68327 0.85654 0.0
C2283 C 0.13149 0.6672 0.89356 0.0
C2284 C 0.10598 0.64877 0.8458 0.0
H2285 H 0.06648 0.61238 0.95611 0.0
H2286 H 0.08637 0.62502 0.94373 0.0
H2287 H 0.08761 0.63934 0.83476 0.0
H2288 H 0.14053 0.67977 0.80085 0.0
H2289 H 0.12694 0.66008 0.80727 0.0
H2290 H 0.12659 0.6407 0.91287 0.0
C2291 C 0.08145 0.62005 0.92233 0.0
C2292 C 0.0962 0.63934 0.85157 0.0
C2293 C 0.07 0.61285 0.92941 0.0
C2294 C 0.13819 0.67633 0.82693 0.0
C2295 C 0.13033 0.66509 0.83061 0.0
C2296 C 0.11815 0.64047 0.89556 0.0
C2297 C 0.08602 0.62146 0.88781 0.0
C2298 C 0.09713 0.63053 0.8798 0.0
C2299 C 0.12663 0.66056 0.86398 0.0
C2300 C 0.11698 0.64961 0.86806 0.0
H2301 H 0.06265 0.60319 0.84623 0.0
H2302 H 0.08264 0.61569 0.83398 0.0
H2303 H 0.1094 0.6243 0.92312 0.0
H2304 H 0.14259 0.68348 0.91328 0.0
H2305 H 0.12874 0.66411 0.91966 0.0
C2306 C 0.07273 0.38539 0.57494 0.0
C2307 C 0.06 0.3799 0.57538 0.0
C2308 C 0.08377 0.37758 0.58261 0.0
C2309 C 0.09408 0.34249 0.58806 0.0
H2310 H 0.12176 0.35544 0.64903 0.0
C2311 C 0.12782 0.30758 0.66264 0.0
C2312 C 0.14149 0.30947 0.65919 0.0
C2313 C 0.11898 0.31714 0.65111 0.0
C2314 C 0.11416 0.35178 0.63166 0.0
H2315 H 0.04889 0.36195 0.58455 0.0
H2316 H 0.06791 0.34854 0.59842 0.0
H2317 H 0.10416 0.37039 0.63007 0.0
H2318 H 0.15659 0.32323 0.6424 0.0
H2319 H 0.14097 0.34017 0.62273 0.0
H2320 H 0.10376 0.3238 0.59073 0.0
C2321 C 0.0695 0.35876 0.5914 0.0
C2322 C 0.10412 0.36032 0.6207 0.0
C2323 C 0.05854 0.3665 0.58365 0.0
C2324 C 0.14612 0.32145 0.64531 0.0
C2325 C 0.13722 0.33114 0.63412 0.0
C2326 C 0.10399 0.33398 0.59927 0.0
C2327 C 0.08226 0.36415 0.59085 0.0
C2328 C 0.09378 0.35567 0.59944 0.0
C2329 C 0.12357 0.32891 0.6362 0.0
C2330 C 0.11396 0.33845 0.62177 0.0
H2331 H 0.07417 0.3957 0.56869 0.0
H2332 H 0.09347 0.38202 0.58177 0.0
H2333 H 0.0865 0.33867 0.57092 0.0
H2334 H 0.12388 0.29852 0.67335 0.0
H2335 H 0.1085 0.31527 0.65349 0.0
loop_
_geom_bond_atom_site_label_1
_geom_bond_atom_site_label_2
_geom_bond_distance
_geom_bond_site_symmetry_2
_ccdc_geom_bond_type
Mg0 O7 2.141 . S
Mg0 O8 2.048 . S
Mg0 O9 2.048 . S
Mg0 O12 2.141 . S
C1 O2 1.385 . S
C1 O8 1.112 1_655 S
O2 C1 1.385 . S
C3 O4 1.245 . S
C3 O12 1.289 . S
O4 C3 1.245 . S
C5 O6 1.245 . S
C5 O7 1.289 1_556 S
O6 C5 1.245 . S
O7 Mg0 2.141 . S
O7 C5 1.289 1_554 S
O8 Mg0 2.048 . S
O8 C1 1.112 1_455 S
O9 Mg0 2.048 . S
O9 C10 1.195 . S
C10 O9 1.195 . S
C10 O11 1.313 1_455 S
O11 C10 1.313 1_655 S
O12 Mg0 2.141 . S
O12 C3 1.289 . S
Mg13 O20 2.141 . S
Mg13 O21 2.048 . S
Mg13 O22 2.048 . S
Mg13 O25 2.141 . S
C14 O15 1.313 . S
C14 O21 1.195 . S
O15 C14 1.313 . S
C16 O17 1.245 . S
C16 O25 1.289 . S
O17 C16 1.245 . S
C18 O19 1.245 . S
C18 O20 1.289 . S
O19 C18 1.245 . S
O20 Mg13 2.141 . S
O20 C18 1.289 . S
O21 Mg13 2.048 . S
O21 C14 1.195 . S
O22 Mg13 2.048 . S
O22 C23 1.195 . S
C23 O22 1.195 . S
C23 O24 1.313 . S
O24 C23 1.313 . S
O25 Mg13 2.141 . S
O25 C16 1.289 . S
Mg26 O33 2.141 . S
Mg26 O34 2.048 . S
Mg26 O35 2.048 . S
Mg26 O38 2.141 . S
C27 O28 1.313 . S
C27 O34 1.195 . S
O28 C27 1.313 . S
C29 O30 1.245 . S
C29 O38 1.289 . S
O30 C29 1.245 . S
C31 O32 1.245 . S
C31 O33 1.289 . S
O32 C31 1.245 . S
O33 Mg26 2.141 . S
O33 C31 1.289 . S
O34 Mg26 2.048 . S
O34 C27 1.195 . S
O35 Mg26 2.048 . S
O35 C36 1.195 . S
C36 O35 1.195 . S
C36 O37 1.313 . S
O37 C36 1.313 . S
O38 Mg26 2.141 . S
O38 C29 1.289 . S
Mg39 O46 2.141 . S
Mg39 O47 2.048 . S
Mg39 O48 2.048 . S
Mg39 O51 2.141 . S
C40 O41 1.313 . S
C40 O47 1.195 . S
O41 C40 1.313 . S
C42 O43 1.245 . S
C42 O51 1.289 . S
O43 C42 1.245 . S
C44 O45 1.245 . S
C44 O46 1.289 . S
O45 C44 1.245 . S
O46 Mg39 2.141 . S
O46 C44 1.289 . S
O47 Mg39 2.048 . S
O47 C40 1.195 . S
O48 Mg39 2.048 . S
O48 C49 1.195 . S
C49 O48 1.195 . S
C49 O50 1.313 . S
O50 C49 1.313 . S
O51 Mg39 2.141 . S
O51 C42 1.289 . S
Mg52 O59 2.141 . S
Mg52 O60 2.048 . S
Mg52 O61 2.048 . S
Mg52 O64 2.141 . S
C53 O54 1.385 . S
C53 O60 1.112 1_655 S
O54 C53 1.385 . S
C55 O56 1.245 . S
C55 O64 1.289 . S
O56 C55 1.245 . S
C57 O58 1.245 . S
C57 O59 1.289 . S
O58 C57 1.245 . S
O59 Mg52 2.141 . S
O59 C57 1.289 . S
O60 Mg52 2.048 . S
O60 C53 1.112 1_455 S
O61 Mg52 2.048 . S
O61 C62 1.195 . S
C62 O61 1.195 . S
C62 O63 1.313 1_455 S
O63 C62 1.313 1_655 S
O64 Mg52 2.141 . S
O64 C55 1.289 . S
Mg65 O72 2.141 . S
Mg65 O73 2.048 . S
Mg65 O74 2.048 . S
Mg65 O77 2.141 . S
C66 O67 1.313 . S
C66 O73 1.195 . S
O67 C66 1.313 . S
C68 O69 1.245 . S
C68 O77 1.289 . S
O69 C68 1.245 . S
C70 O71 1.245 . S
C70 O72 1.289 . S
O71 C70 1.245 . S
O72 Mg65 2.141 . S
O72 C70 1.289 . S
O73 Mg65 2.048 . S
O73 C66 1.195 . S
O74 Mg65 2.048 . S
O74 C75 1.195 . S
C75 O74 1.195 . S
C75 O76 1.313 . S
O76 C75 1.313 . S
O77 Mg65 2.141 . S
O77 C68 1.289 . S
Mg78 O85 2.141 . S
Mg78 O86 2.048 . S
Mg78 O87 2.048 . S
Mg78 O90 2.141 . S
C79 O80 1.313 . S
C79 O86 1.195 . S
O80 C79 1.313 . S
C81 O82 1.245 . S
C81 O90 1.289 . S
O82 C81 1.245 . S
C83 O84 1.245 . S
C83 O85 1.289 1_554 S
O84 C83 1.245 . S
O85 Mg78 2.141 . S
O85 C83 1.289 1_556 S
O86 Mg78 2.048 . S
O86 C79 1.195 . S
O87 Mg78 2.048 . S
O87 C88 1.195 . S
C88 O87 1.195 . S
C88 O89 1.313 . S
O89 C88 1.313 . S
O90 Mg78 2.141 . S
O90 C81 1.289 . S
Mg91 O98 2.141 . S
Mg91 O99 2.048 . S
Mg91 O100 2.048 . S
Mg91 O103 2.141 . S
C92 O93 1.313 . S
C92 O99 1.195 . S
O93 C92 1.313 . S
C94 O95 1.245 . S
C94 O103 1.289 . S
O95 C94 1.245 . S
C96 O97 1.245 . S
C96 O98 1.289 . S
O97 C96 1.245 . S
O98 Mg91 2.141 . S
O98 C96 1.289 . S
O99 Mg91 2.048 . S
O99 C92 1.195 . S
O100 Mg91 2.048 . S
O100 C101 1.195 . S
C101 O100 1.195 . S
C101 O102 1.313 . S
O102 C101 1.313 . S
O103 Mg91 2.141 . S
O103 C94 1.289 . S
Mg104 O111 2.141 . S
Mg104 O112 2.048 . S
Mg104 O113 2.048 . S
Mg104 O116 2.141 . S
C105 O106 1.313 1_655 S
C105 O112 1.195 . S
O106 C105 1.313 1_455 S
C107 O108 1.245 . S
C107 O116 1.289 1_554 S
O108 C107 1.245 . S
C109 O110 1.245 . S
C109 O111 1.289 . S
O110 C109 1.245 . S
O111 Mg104 2.141 . S
O111 C109 1.289 . S
O112 Mg104 2.048 . S
O112 C105 1.195 . S
O113 Mg104 2.048 . S
O113 C114 1.112 1_655 S
C114 O113 1.112 1_455 S
C114 O115 1.385 . S
O115 C114 1.385 . S
O116 Mg104 2.141 . S
O116 C107 1.289 1_556 S
Mg117 O124 2.141 . S
Mg117 O125 2.048 . S
Mg117 O126 2.048 . S
Mg117 O129 2.141 . S
C118 O119 1.313 . S
C118 O125 1.195 . S
O119 C118 1.313 . S
C120 O121 1.245 . S
C120 O129 1.289 . S
O121 C120 1.245 . S
C122 O123 1.245 . S
C122 O124 1.289 . S
O123 C122 1.245 . S
O124 Mg117 2.141 . S
O124 C122 1.289 . S
O125 Mg117 2.048 . S
O125 C118 1.195 . S
O126 Mg117 2.048 . S
O126 C127 1.195 . S
C127 O126 1.195 . S
C127 O128 1.313 . S
O128 C127 1.313 . S
O129 Mg117 2.141 . S
O129 C120 1.289 . S
Mg130 O137 2.141 . S
Mg130 O138 2.048 . S
Mg130 O139 2.048 . S
Mg130 O142 2.141 . S
C131 O132 1.313 . S
C131 O138 1.195 . S
O132 C131 1.313 . S
C133 O134 1.245 . S
C133 O142 1.289 . S
O134 C133 1.245 . S
C135 O136 1.245 . S
C135 O137 1.289 . S
O136 C135 1.245 . S
O137 Mg130 2.141 . S
O137 C135 1.289 . S
O138 Mg130 2.048 . S
O138 C131 1.195 . S
O139 Mg130 2.048 . S
O139 C140 1.195 . S
C140 O139 1.195 . S
C140 O141 1.313 . S
O141 C140 1.313 . S
O142 Mg130 2.141 . S
O142 C133 1.289 . S
Mg143 O150 2.141 . S
Mg143 O151 2.048 . S
Mg143 O152 2.048 . S
Mg143 O155 2.141 . S
C144 O145 1.313 . S
C144 O151 1.195 . S
O145 C144 1.313 . S
C146 O147 1.245 . S
C146 O155 1.289 . S
O147 C146 1.245 . S
C148 O149 1.245 . S
C148 O150 1.289 . S
O149 C148 1.245 . S
O150 Mg143 2.141 . S
O150 C148 1.289 . S
O151 Mg143 2.048 . S
O151 C144 1.195 . S
O152 Mg143 2.048 . S
O152 C153 1.195 . S
C153 O152 1.195 . S
C153 O154 1.313 . S
O154 C153 1.313 . S
O155 Mg143 2.141 . S
O155 C146 1.289 . S
Mg156 O163 2.141 . S
Mg156 O164 2.048 . S
Mg156 O165 2.048 . S
Mg156 O168 2.141 . S
C157 O158 1.313 1_655 S
C157 O164 1.195 . S
O158 C157 1.313 1_455 S
C159 O160 1.245 . S
C159 O168 1.289 . S
O160 C159 1.245 . S
C161 O162 1.245 . S
C161 O163 1.289 . S
O162 C161 1.245 . S
O163 Mg156 2.141 . S
O163 C161 1.289 . S
O164 Mg156 2.048 . S
O164 C157 1.195 . S
O165 Mg156 2.048 . S
O165 C166 1.112 1_655 S
C166 O165 1.112 1_455 S
C166 O167 1.385 . S
O167 C166 1.385 . S
O168 Mg156 2.141 . S
O168 C159 1.289 . S
Mg169 O176 2.141 . S
Mg169 O177 2.048 . S
Mg169 O178 2.048 . S
Mg169 O181 2.141 . S
C170 O171 1.313 . S
C170 O177 1.195 . S
O171 C170 1.313 . S
C172 O173 1.245 . S
C172 O181 1.289 . S
O173 C172 1.245 . S
C174 O175 1.245 . S
C174 O176 1.289 . S
O175 C174 1.245 . S
O176 Mg169 2.141 . S
O176 C174 1.289 . S
O177 Mg169 2.048 . S
O177 C170 1.195 . S
O178 Mg169 2.048 . S
O178 C179 1.195 . S
C179 O178 1.195 . S
C179 O180 1.313 . S
O180 C179 1.313 . S
O181 Mg169 2.141 . S
O181 C172 1.289 . S
Mg182 O189 2.141 . S
Mg182 O190 2.048 . S
Mg182 O191 2.048 . S
Mg182 O194 2.141 . S
C183 O184 1.313 . S
C183 O190 1.195 . S
O184 C183 1.313 . S
C185 O186 1.245 . S
C185 O194 1.289 1_556 S
O186 C185 1.245 . S
C187 O188 1.245 . S
C187 O189 1.289 . S
O188 C187 1.245 . S
O189 Mg182 2.141 . S
O189 C187 1.289 . S
O190 Mg182 2.048 . S
O190 C183 1.195 . S
O191 Mg182 2.048 . S
O191 C192 1.195 . S
C192 O191 1.195 . S
C192 O193 1.313 . S
O193 C192 1.313 . S
O194 Mg182 2.141 . S
O194 C185 1.289 1_554 S
Mg195 O202 2.141 . S
Mg195 O203 2.048 . S
Mg195 O204 2.048 . S
Mg195 O207 2.141 . S
C196 O197 1.313 . S
C196 O203 1.195 . S
O197 C196 1.313 . S
C198 O199 1.245 . S
C198 O207 1.289 . S
O199 C198 1.245 . S
C200 O201 1.245 . S
C200 O202 1.289 . S
O201 C200 1.245 . S
O202 Mg195 2.141 . S
O202 C200 1.289 . S
O203 Mg195 2.048 . S
O203 C196 1.195 . S
O204 Mg195 2.048 . S
O204 C205 1.195 . S
C205 O204 1.195 . S
C205 O206 1.313 . S
O206 C205 1.313 . S
O207 Mg195 2.141 . S
O207 C198 1.289 . S
Mg208 O215 2.141 . S
Mg208 O216 2.048 . S
Mg208 O217 2.048 . S
Mg208 O220 2.141 . S
C209 O210 1.313 . S
C209 O216 1.195 . S
O210 C209 1.313 . S
C211 O212 1.245 . S
C211 O220 1.289 . S
O212 C211 1.245 . S
C213 O214 1.245 . S
C213 O215 1.289 . S
O214 C213 1.245 . S
O215 Mg208 2.141 . S
O215 C213 1.289 . S
O216 Mg208 2.048 . S
O216 C209 1.195 . S
O217 Mg208 2.048 . S
O217 C218 1.195 . S
C218 O217 1.195 . S
C218 O219 1.313 . S
O219 C218 1.313 . S
O220 Mg208 2.141 . S
O220 C211 1.289 . S
Mg221 O228 2.141 . S
Mg221 O229 2.048 . S
Mg221 O230 2.048 . S
Mg221 O233 2.141 . S
C222 O223 1.313 . S
C222 O229 1.195 . S
O223 C222 1.313 . S
C224 O225 1.245 . S
C224 O233 1.289 . S
O225 C224 1.245 . S
C226 O227 1.245 . S
C226 O228 1.289 . S
O227 C226 1.245 . S
O228 Mg221 2.141 . S
O228 C226 1.289 . S
O229 Mg221 2.048 . S
O229 C222 1.195 . S
O230 Mg221 2.048 . S
O230 C231 1.195 . S
C231 O230 1.195 . S
C231 O232 1.313 . S
O232 C231 1.313 . S
O233 Mg221 2.141 . S
O233 C224 1.289 . S
Mg234 O241 2.141 . S
Mg234 O242 2.048 . S
Mg234 O243 2.048 . S
Mg234 O246 2.141 . S
C235 O236 1.385 . S
C235 O242 1.112 1_455 S
O236 C235 1.385 . S
C237 O238 1.245 . S
C237 O246 1.289 . S
O238 C237 1.245 . S
C239 O240 1.245 . S
C239 O241 1.289 1_556 S
O240 C239 1.245 . S
O241 Mg234 2.141 . S
O241 C239 1.289 1_554 S
O242 Mg234 2.048 . S
O242 C235 1.112 1_655 S
O243 Mg234 2.048 . S
O243 C244 1.195 . S
C244 O243 1.195 . S
C244 O245 1.313 1_655 S
O245 C244 1.313 1_455 S
O246 Mg234 2.141 . S
O246 C237 1.289 . S
Mg247 O254 2.141 . S
Mg247 O255 2.048 . S
Mg247 O256 2.048 . S
Mg247 O259 2.141 . S
C248 O249 1.313 . S
C248 O255 1.195 . S
O249 C248 1.313 . S
C250 O251 1.245 . S
C250 O259 1.289 . S
O251 C250 1.245 . S
C252 O253 1.245 . S
C252 O254 1.289 . S
O253 C252 1.245 . S
O254 Mg247 2.141 . S
O254 C252 1.289 . S
O255 Mg247 2.048 . S
O255 C248 1.195 . S
O256 Mg247 2.048 . S
O256 C257 1.195 . S
C257 O256 1.195 . S
C257 O258 1.313 . S
O258 C257 1.313 . S
O259 Mg247 2.141 . S
O259 C250 1.289 . S
Mg260 O267 2.141 . S
Mg260 O268 2.048 . S
Mg260 O269 2.048 . S
Mg260 O272 2.141 . S
C261 O262 1.313 . S
C261 O268 1.195 . S
O262 C261 1.313 . S
C263 O264 1.245 . S
C263 O272 1.289 . S
O264 C263 1.245 . S
C265 O266 1.245 . S
C265 O267 1.289 1_554 S
O266 C265 1.245 . S
O267 Mg260 2.141 . S
O267 C265 1.289 1_556 S
O268 Mg260 2.048 . S
O268 C261 1.195 . S
O269 Mg260 2.048 . S
O269 C270 1.195 . S
C270 O269 1.195 . S
C270 O271 1.313 . S
O271 C270 1.313 . S
O272 Mg260 2.141 . S
O272 C263 1.289 . S
Mg273 O280 2.141 . S
Mg273 O281 2.048 . S
Mg273 O282 2.048 . S
Mg273 O285 2.141 . S
C274 O275 1.313 . S
C274 O281 1.195 . S
O275 C274 1.313 . S
C276 O277 1.245 . S
C276 O285 1.289 . S
O277 C276 1.245 . S
C278 O279 1.245 . S
C278 O280 1.289 . S
O279 C278 1.245 . S
O280 Mg273 2.141 . S
O280 C278 1.289 . S
O281 Mg273 2.048 . S
O281 C274 1.195 . S
O282 Mg273 2.048 . S
O282 C283 1.195 . S
C283 O282 1.195 . S
C283 O284 1.313 . S
O284 C283 1.313 . S
O285 Mg273 2.141 . S
O285 C276 1.289 . S
Mg286 O293 2.141 . S
Mg286 O294 2.048 . S
Mg286 O295 2.048 . S
Mg286 O298 2.141 . S
C287 O288 1.385 . S
C287 O294 1.112 1_455 S
O288 C287 1.385 . S
C289 O290 1.245 . S
C289 O298 1.289 . S
O290 C289 1.245 . S
C291 O292 1.245 . S
C291 O293 1.289 . S
O292 C291 1.245 . S
O293 Mg286 2.141 . S
O293 C291 1.289 . S
O294 Mg286 2.048 . S
O294 C287 1.112 1_655 S
O295 Mg286 2.048 . S
O295 C296 1.195 . S
C296 O295 1.195 . S
C296 O297 1.313 1_655 S
O297 C296 1.313 1_455 S
O298 Mg286 2.141 . S
O298 C289 1.289 . S
Mg299 O306 2.141 . S
Mg299 O307 2.048 . S
Mg299 O308 2.048 . S
Mg299 O311 2.141 . S
C300 O301 1.313 . S
C300 O307 1.195 . S
O301 C300 1.313 . S
C302 O303 1.245 . S
C302 O311 1.289 . S
O303 C302 1.245 . S
C304 O305 1.245 . S
C304 O306 1.289 . S
O305 C304 1.245 . S
O306 Mg299 2.141 . S
O306 C304 1.289 . S
O307 Mg299 2.048 . S
O307 C300 1.195 . S
O308 Mg299 2.048 . S
O308 C309 1.195 . S
C309 O308 1.195 . S
C309 O310 1.313 . S
O310 C309 1.313 . S
O311 Mg299 2.141 . S
O311 C302 1.289 . S
Mg312 O319 2.141 . S
Mg312 O320 2.048 . S
Mg312 O321 2.048 . S
Mg312 O324 2.141 . S
C313 O314 1.313 . S
C313 O320 1.195 . S
O314 C313 1.313 . S
C315 O316 1.245 . S
C315 O324 1.289 . S
O316 C315 1.245 . S
C317 O318 1.245 . S
C317 O319 1.289 . S
O318 C317 1.245 . S
O319 Mg312 2.141 . S
O319 C317 1.289 . S
O320 Mg312 2.048 . S
O320 C313 1.195 . S
O321 Mg312 2.048 . S
O321 C322 1.195 . S
C322 O321 1.195 . S
C322 O323 1.313 . S
O323 C322 1.313 . S
O324 Mg312 2.141 . S
O324 C315 1.289 . S
Mg325 O332 2.141 . S
Mg325 O333 2.048 . S
Mg325 O334 2.048 . S
Mg325 O337 2.141 . S
C326 O327 1.313 . S
C326 O333 1.195 . S
O327 C326 1.313 . S
C328 O329 1.245 . S
C328 O337 1.289 . S
O329 C328 1.245 . S
C330 O331 1.245 . S
C330 O332 1.289 . S
O331 C330 1.245 . S
O332 Mg325 2.141 . S
O332 C330 1.289 . S
O333 Mg325 2.048 . S
O333 C326 1.195 . S
O334 Mg325 2.048 . S
O334 C335 1.195 . S
C335 O334 1.195 . S
C335 O336 1.313 . S
O336 C335 1.313 . S
O337 Mg325 2.141 . S
O337 C328 1.289 . S
Mg338 O345 2.141 . S
Mg338 O346 2.048 . S
Mg338 O347 2.048 . S
Mg338 O350 2.141 . S
C339 O340 1.313 1_455 S
C339 O346 1.195 . S
O340 C339 1.313 1_655 S
C341 O342 1.245 . S
C341 O350 1.289 1_554 S
O342 C341 1.245 . S
C343 O344 1.245 . S
C343 O345 1.289 . S
O344 C343 1.245 . S
O345 Mg338 2.141 . S
O345 C343 1.289 . S
O346 Mg338 2.048 . S
O346 C339 1.195 . S
O347 Mg338 2.048 . S
O347 C348 1.112 1_455 S
C348 O347 1.112 1_655 S
C348 O349 1.385 . S
O349 C348 1.385 . S
O350 Mg338 2.141 . S
O350 C341 1.289 1_556 S
Mg351 O358 2.141 . S
Mg351 O359 2.048 . S
Mg351 O360 2.048 . S
Mg351 O363 2.141 . S
C352 O353 1.313 . S
C352 O359 1.195 . S
O353 C352 1.313 . S
C354 O355 1.245 . S
C354 O363 1.289 . S
O355 C354 1.245 . S
C356 O357 1.245 . S
C356 O358 1.289 . S
O357 C356 1.245 . S
O358 Mg351 2.141 . S
O358 C356 1.289 . S
O359 Mg351 2.048 . S
O359 C352 1.195 . S
O360 Mg351 2.048 . S
O360 C361 1.195 . S
C361 O360 1.195 . S
C361 O362 1.313 . S
O362 C361 1.313 . S
O363 Mg351 2.141 . S
O363 C354 1.289 . S
Mg364 O371 2.141 . S
Mg364 O372 2.048 . S
Mg364 O373 2.048 . S
Mg364 O376 2.141 . S
C365 O366 1.313 . S
C365 O372 1.195 . S
O366 C365 1.313 . S
C367 O368 1.245 . S
C367 O376 1.289 1_556 S
O368 C367 1.245 . S
C369 O370 1.245 . S
C369 O371 1.289 . S
O370 C369 1.245 . S
O371 Mg364 2.141 . S
O371 C369 1.289 . S
O372 Mg364 2.048 . S
O372 C365 1.195 . S
O373 Mg364 2.048 . S
O373 C374 1.195 . S
C374 O373 1.195 . S
C374 O375 1.313 . S
O375 C374 1.313 . S
O376 Mg364 2.141 . S
O376 C367 1.289 1_554 S
Mg377 O384 2.141 . S
Mg377 O385 2.048 . S
Mg377 O386 2.048 . S
Mg377 O389 2.141 . S
C378 O379 1.313 . S
C378 O385 1.195 . S
O379 C378 1.313 . S
C380 O381 1.245 . S
C380 O389 1.289 . S
O381 C380 1.245 . S
C382 O383 1.245 . S
C382 O384 1.289 . S
O383 C382 1.245 . S
O384 Mg377 2.141 . S
O384 C382 1.289 . S
O385 Mg377 2.048 . S
O385 C378 1.195 . S
O386 Mg377 2.048 . S
O386 C387 1.195 . S
C387 O386 1.195 . S
C387 O388 1.313 . S
O388 C387 1.313 . S
O389 Mg377 2.141 . S
O389 C380 1.289 . S
Mg390 O397 2.141 . S
Mg390 O398 2.048 . S
Mg390 O399 2.048 . S
Mg390 O402 2.141 . S
C391 O392 1.313 1_455 S
C391 O398 1.195 . S
O392 C391 1.313 1_655 S
C393 O394 1.245 . S
C393 O402 1.289 . S
O394 C393 1.245 . S
C395 O396 1.245 . S
C395 O397 1.289 . S
O396 C395 1.245 . S
O397 Mg390 2.141 . S
O397 C395 1.289 . S
O398 Mg390 2.048 . S
O398 C391 1.195 . S
O399 Mg390 2.048 . S
O399 C400 1.112 1_455 S
C400 O399 1.112 1_655 S
C400 O401 1.385 . S
O401 C400 1.385 . S
O402 Mg390 2.141 . S
O402 C393 1.289 . S
Mg403 O410 2.141 . S
Mg403 O411 2.048 . S
Mg403 O412 2.048 . S
Mg403 O415 2.141 . S
C404 O405 1.313 . S
C404 O411 1.195 . S
O405 C404 1.313 . S
C406 O407 1.245 . S
C406 O415 1.289 . S
O407 C406 1.245 . S
C408 O409 1.245 . S
C408 O410 1.289 . S
O409 C408 1.245 . S
O410 Mg403 2.141 . S
O410 C408 1.289 . S
O411 Mg403 2.048 . S
O411 C404 1.195 . S
O412 Mg403 2.048 . S
O412 C413 1.195 . S
C413 O412 1.195 . S
C413 O414 1.313 . S
O414 C413 1.313 . S
O415 Mg403 2.141 . S
O415 C406 1.289 . S
C416 C417 1.349 . S
C416 C418 1.327 1_655 S
C416 H441 0.950 1_655 S
C417 C416 1.349 . S
C417 C433 1.349 . S
C418 C416 1.327 1_455 S
C418 C437 1.429 1_455 S
C418 H442 0.950 . S
C419 C436 1.574 . S
C419 C438 1.408 . S
C419 H443 0.949 . S
H420 C424 0.949 . S
C421 C422 1.349 . S
C421 C423 1.327 . S
C421 H444 0.982 . S
C422 C421 1.349 . S
C422 C434 1.349 . S
C423 C421 1.327 . S
C423 C439 1.429 . S
C423 H445 0.950 1_455 S
C424 H420 0.949 . S
C424 C432 1.574 . S
C424 C440 1.368 . S
H425 C433 0.950 . S
H426 C431 0.950 . S
H427 C432 0.949 . S
H428 C434 0.950 . S
H429 C435 0.950 . S
H430 C436 0.949 . S
C431 H426 0.950 . S
C431 C433 1.327 . S
C431 C437 1.429 . S
C432 C424 1.574 . S
C432 H427 0.949 . S
C432 C438 1.319 1_455 S
C433 C417 1.349 . S
C433 H425 0.950 . S
C433 C431 1.327 . S
C434 C422 1.349 . S
C434 H428 0.950 . S
C434 C435 1.327 . S
C435 H429 0.950 . S
C435 C434 1.327 . S
C435 C439 1.429 . S
C436 C419 1.574 . S
C436 H430 0.949 . S
C436 C440 1.368 1_655 S
C437 C418 1.429 1_655 S
C437 C431 1.429 . S
C437 C438 1.541 . S
C438 C419 1.408 . S
C438 C432 1.319 1_655 S
C438 C437 1.541 . S
C439 C423 1.429 . S
C439 C435 1.429 . S
C439 C440 1.523 . S
C440 C424 1.368 . S
C440 C436 1.368 1_455 S
C440 C439 1.523 . S
H441 C416 0.950 1_455 S
H442 C418 0.950 . S
H443 C419 0.949 . S
H444 C421 0.982 . S
H445 C423 0.950 1_655 S
C446 C447 1.349 . S
C446 C448 1.327 . S
C446 H471 0.950 . S
C447 C446 1.349 . S
C447 C463 1.349 . S
C448 C446 1.327 . S
C448 C467 1.429 . S
C448 H472 0.950 . S
C449 C466 1.574 . S
C449 C468 1.368 . S
C449 H473 0.949 . S
H450 C454 0.949 . S
C451 C452 1.349 . S
C451 C453 1.327 . S
C451 H474 0.950 . S
C452 C451 1.349 . S
C452 C464 1.349 . S
C453 C451 1.327 . S
C453 C469 1.429 . S
C453 H475 0.950 . S
C454 H450 0.949 . S
C454 C462 1.574 . S
C454 C470 1.368 . S
H455 C463 0.950 . S
H456 C461 0.950 . S
H457 C462 0.949 . S
H458 C464 0.950 . S
H459 C465 0.950 . S
H460 C466 0.949 . S
C461 H456 0.950 . S
C461 C463 1.327 . S
C461 C467 1.429 . S
C462 C454 1.574 . S
C462 H457 0.949 . S
C462 C468 1.368 . S
C463 C447 1.349 . S
C463 H455 0.950 . S
C463 C461 1.327 . S
C464 C452 1.349 . S
C464 H458 0.950 . S
C464 C465 1.327 . S
C465 H459 0.950 . S
C465 C464 1.327 . S
C465 C469 1.429 . S
C466 C449 1.574 . S
C466 H460 0.949 . S
C466 C470 1.368 . S
C467 C448 1.429 . S
C467 C461 1.429 . S
C467 C468 1.523 1_556 S
C468 C449 1.368 . S
C468 C462 1.368 . S
C468 C467 1.523 1_554 S
C469 C453 1.429 . S
C469 C465 1.429 . S
C469 C470 1.523 . S
C470 C454 1.368 . S
C470 C466 1.368 . S
C470 C469 1.523 . S
H471 C446 0.950 . S
H472 C448 0.950 . S
H473 C449 0.949 . S
H474 C451 0.950 . S
H475 C453 0.950 . S
C476 C477 1.349 . S
C476 C478 1.327 . S
C476 H501 0.950 . S
C477 C476 1.349 . S
C477 C493 1.349 . S
C478 C476 1.327 . S
C478 C497 1.429 . S
C478 H502 0.950 . S
C479 C496 1.574 . S
C479 C498 1.368 . S
C479 H503 0.949 . S
H480 C484 0.949 . S
C481 C482 1.349 . S
C481 C483 1.327 . S
C481 H504 0.950 . S
C482 C481 1.349 . S
C482 C494 1.349 . S
C483 C481 1.327 . S
C483 C499 1.429 . S
C483 H505 0.950 . S
C484 H480 0.949 . S
C484 C492 1.574 . S
C484 C500 1.368 . S
H485 C493 0.950 . S
H486 C491 0.950 . S
H487 C492 0.949 . S
H488 C494 0.950 . S
H489 C495 0.950 . S
H490 C496 0.949 . S
C491 H486 0.950 . S
C491 C493 1.327 . S
C491 C497 1.429 . S
C492 C484 1.574 . S
C492 H487 0.949 . S
C492 C498 1.368 . S
C493 C477 1.349 . S
C493 H485 0.950 . S
C493 C491 1.327 . S
C494 C482 1.349 . S
C494 H488 0.950 . S
C494 C495 1.327 . S
C495 H489 0.950 . S
C495 C494 1.327 . S
C495 C499 1.429 . S
C496 C479 1.574 . S
C496 H490 0.949 . S
C496 C500 1.368 . S
C497 C478 1.429 . S
C497 C491 1.429 . S
C497 C498 1.523 . S
C498 C479 1.368 . S
C498 C492 1.368 . S
C498 C497 1.523 . S
C499 C483 1.429 . S
C499 C495 1.429 . S
C499 C500 1.523 . S
C500 C484 1.368 . S
C500 C496 1.368 . S
C500 C499 1.523 . S
H501 C476 0.950 . S
H502 C478 0.950 . S
H503 C479 0.949 . S
H504 C481 0.950 . S
H505 C483 0.950 . S
C506 C507 1.349 . S
C506 C508 1.327 . S
C506 H531 0.950 . S
C507 C506 1.349 . S
C507 C523 1.349 . S
C508 C506 1.327 . S
C508 C527 1.429 . S
C508 H532 0.950 . S
C509 C526 1.574 . S
C509 C528 1.368 . S
C509 H533 0.949 . S
H510 C514 0.949 . S
C511 C512 1.349 . S
C511 C513 1.327 . S
C511 H534 0.950 . S
C512 C511 1.349 . S
C512 C524 1.349 . S
C513 C511 1.327 . S
C513 C529 1.429 . S
C513 H535 0.950 . S
C514 H510 0.949 . S
C514 C522 1.574 . S
C514 C530 1.368 . S
H515 C523 0.950 . S
H516 C521 0.950 . S
H517 C522 0.949 . S
H518 C524 0.950 . S
H519 C525 0.950 . S
H520 C526 0.949 . S
C521 H516 0.950 . S
C521 C523 1.327 . S
C521 C527 1.429 . S
C522 C514 1.574 . S
C522 H517 0.949 . S
C522 C528 1.368 . S
C523 C507 1.349 . S
C523 H515 0.950 . S
C523 C521 1.327 . S
C524 C512 1.349 . S
C524 H518 0.950 . S
C524 C525 1.327 . S
C525 H519 0.950 . S
C525 C524 1.327 . S
C525 C529 1.429 . S
C526 C509 1.574 . S
C526 H520 0.949 . S
C526 C530 1.368 . S
C527 C508 1.429 . S
C527 C521 1.429 . S
C527 C528 1.523 . S
C528 C509 1.368 . S
C528 C522 1.368 . S
C528 C527 1.523 . S
C529 C513 1.429 . S
C529 C525 1.429 . S
C529 C530 1.523 . S
C530 C514 1.368 . S
C530 C526 1.368 . S
C530 C529 1.523 . S
H531 C506 0.950 . S
H532 C508 0.950 . S
H533 C509 0.949 . S
H534 C511 0.950 . S
H535 C513 0.950 . S
C536 C537 1.349 . S
C536 C538 1.327 . S
C536 H561 0.950 . S
C537 C536 1.349 . S
C537 C553 1.349 . S
C538 C536 1.327 . S
C538 C557 1.429 . S
C538 H562 0.950 . S
C539 C556 1.574 . S
C539 C558 1.320 1_455 S
C539 H563 0.949 . S
H540 C544 0.949 . S
C541 C542 1.349 . S
C541 C543 1.327 . S
C541 H564 0.950 . S
C542 C541 1.349 . S
C542 C554 1.349 . S
C543 C541 1.327 . S
C543 C559 1.429 . S
C543 H565 0.950 . S
C544 H540 0.949 . S
C544 C552 1.574 . S
C544 C560 1.368 1_655 S
H545 C553 0.950 1_455 S
H546 C551 0.950 . S
H547 C552 0.949 . S
H548 C554 0.950 . S
H549 C555 0.950 1_655 S
H550 C556 0.949 . S
C551 H546 0.950 . S
C551 C553 1.327 1_455 S
C551 C557 1.429 1_455 S
C552 C544 1.574 . S
C552 H547 0.949 . S
C552 C558 1.407 . S
C553 C537 1.349 . S
C553 H545 0.950 1_655 S
C553 C551 1.327 1_655 S
C554 C542 1.349 . S
C554 H548 0.950 . S
C554 C555 1.327 . S
C555 H549 0.950 1_455 S
C555 C554 1.327 . S
C555 C559 1.429 . S
C556 C539 1.574 . S
C556 H550 0.949 . S
C556 C560 1.368 . S
C557 C538 1.429 . S
C557 C551 1.429 1_655 S
C557 C558 1.541 . S
C558 C539 1.320 1_655 S
C558 C552 1.407 . S
C558 C557 1.541 . S
C559 C543 1.429 . S
C559 C555 1.429 . S
C559 C560 1.523 . S
C560 C544 1.368 1_455 S
C560 C556 1.368 . S
C560 C559 1.523 . S
H561 C536 0.950 . S
H562 C538 0.950 . S
H563 C539 0.949 . S
H564 C541 0.950 . S
H565 C543 0.950 . S
C566 C567 1.349 . S
C566 C568 1.327 . S
C566 H591 0.950 . S
C567 C566 1.349 . S
C567 C583 1.349 . S
C568 C566 1.327 . S
C568 C587 1.429 . S
C568 H592 0.950 . S
C569 C586 1.574 . S
C569 C588 1.368 . S
C569 H593 0.949 . S
H570 C574 0.949 . S
C571 C572 1.349 . S
C571 C573 1.327 . S
C571 H594 0.950 . S
C572 C571 1.349 . S
C572 C584 1.349 . S
C573 C571 1.327 . S
C573 C589 1.429 . S
C573 H595 0.950 . S
C574 H570 0.949 . S
C574 C582 1.574 . S
C574 C590 1.368 . S
H575 C583 0.950 . S
H576 C581 0.950 . S
H577 C582 0.949 . S
H578 C584 0.950 . S
H579 C585 0.950 . S
H580 C586 0.949 . S
C581 H576 0.950 . S
C581 C583 1.327 . S
C581 C587 1.429 . S
C582 C574 1.574 . S
C582 H577 0.949 . S
C582 C588 1.368 . S
C583 C567 1.349 . S
C583 H575 0.950 . S
C583 C581 1.327 . S
C584 C572 1.349 . S
C584 H578 0.950 . S
C584 C585 1.327 . S
C585 H579 0.950 . S
C585 C584 1.327 . S
C585 C589 1.429 . S
C586 C569 1.574 . S
C586 H580 0.949 . S
C586 C590 1.368 . S
C587 C568 1.429 . S
C587 C581 1.429 . S
C587 C588 1.523 . S
C588 C569 1.368 . S
C588 C582 1.368 . S
C588 C587 1.523 . S
C589 C573 1.429 . S
C589 C585 1.429 . S
C589 C590 1.523 1_554 S
C590 C574 1.368 . S
C590 C586 1.368 . S
C590 C589 1.523 1_556 S
H591 C566 0.950 . S
H592 C568 0.950 . S
H593 C569 0.949 . S
H594 C571 0.950 . S
H595 C573 0.950 . S
C596 C597 1.349 . S
C596 C598 1.327 . S
C596 H621 0.950 . S
C597 C596 1.349 . S
C597 C613 1.349 . S
C598 C596 1.327 . S
C598 C617 1.429 . S
C598 H622 0.950 . S
C599 C616 1.574 . S
C599 C618 1.368 . S
C599 H623 0.949 . S
H600 C604 0.949 . S
C601 C602 1.349 . S
C601 C603 1.327 . S
C601 H624 0.950 . S
C602 C601 1.349 . S
C602 C614 1.349 . S
C603 C601 1.327 . S
C603 C619 1.429 . S
C603 H625 0.950 . S
C604 H600 0.949 . S
C604 C612 1.574 . S
C604 C620 1.368 . S
H605 C613 0.950 . S
H606 C611 0.950 . S
H607 C612 0.949 . S
H608 C614 0.950 . S
H609 C615 0.950 . S
H610 C616 0.949 . S
C611 H606 0.950 . S
C611 C613 1.327 . S
C611 C617 1.429 . S
C612 C604 1.574 . S
C612 H607 0.949 . S
C612 C618 1.368 . S
C613 C597 1.349 . S
C613 H605 0.950 . S
C613 C611 1.327 . S
C614 C602 1.349 . S
C614 H608 0.950 . S
C614 C615 1.327 . S
C615 H609 0.950 . S
C615 C614 1.327 . S
C615 C619 1.429 . S
C616 C599 1.574 . S
C616 H610 0.949 . S
C616 C620 1.368 . S
C617 C598 1.429 . S
C617 C611 1.429 . S
C617 C618 1.523 . S
C618 C599 1.368 . S
C618 C612 1.368 . S
C618 C617 1.523 . S
C619 C603 1.429 . S
C619 C615 1.429 . S
C619 C620 1.523 . S
C620 C604 1.368 . S
C620 C616 1.368 . S
C620 C619 1.523 . S
H621 C596 0.950 . S
H622 C598 0.950 . S
H623 C599 0.949 . S
H624 C601 0.950 . S
H625 C603 0.950 . S
C626 C627 1.349 . S
C626 C628 1.327 . S
C626 H651 0.950 . S
C627 C626 1.349 . S
C627 C643 1.349 . S
C628 C626 1.327 . S
C628 C647 1.429 . S
C628 H652 0.950 . S
C629 C646 1.574 . S
C629 C648 1.368 . S
C629 H653 0.949 . S
H630 C634 0.949 . S
C631 C632 1.349 . S
C631 C633 1.327 . S
C631 H654 0.950 . S
C632 C631 1.349 . S
C632 C644 1.349 . S
C633 C631 1.327 . S
C633 C649 1.429 . S
C633 H655 0.950 . S
C634 H630 0.949 . S
C634 C642 1.574 . S
C634 C650 1.368 . S
H635 C643 0.950 . S
H636 C641 0.950 . S
H637 C642 0.949 . S
H638 C644 0.950 . S
H639 C645 0.950 . S
H640 C646 0.949 . S
C641 H636 0.950 . S
C641 C643 1.327 . S
C641 C647 1.429 . S
C642 C634 1.574 . S
C642 H637 0.949 . S
C642 C648 1.368 . S
C643 C627 1.349 . S
C643 H635 0.950 . S
C643 C641 1.327 . S
C644 C632 1.349 . S
C644 H638 0.950 . S
C644 C645 1.327 . S
C645 H639 0.950 . S
C645 C644 1.327 . S
C645 C649 1.429 . S
C646 C629 1.574 . S
C646 H640 0.949 . S
C646 C650 1.368 . S
C647 C628 1.429 . S
C647 C641 1.429 . S
C647 C648 1.523 . S
C648 C629 1.368 . S
C648 C642 1.368 . S
C648 C647 1.523 . S
C649 C633 1.429 . S
C649 C645 1.429 . S
C649 C650 1.523 . S
C650 C634 1.368 . S
C650 C646 1.368 . S
C650 C649 1.523 . S
H651 C626 0.950 . S
H652 C628 0.950 . S
H653 C629 0.949 . S
H654 C631 0.950 . S
H655 C633 0.950 . S
C656 C657 1.349 . S
C656 C658 1.327 . S
C656 H681 0.950 . S
C657 C656 1.349 . S
C657 C673 1.349 . S
C658 C656 1.327 . S
C658 C677 1.429 . S
C658 H682 0.950 . S
C659 C676 1.574 . S
C659 C678 1.321 1_655 S
C659 H683 0.949 . S
H660 C664 0.949 . S
C661 C662 1.349 . S
C661 C663 1.327 . S
C661 H684 0.950 . S
C662 C661 1.349 . S
C662 C674 1.349 . S
C663 C661 1.327 . S
C663 C679 1.429 . S
C663 H685 0.950 . S
C664 H660 0.949 . S
C664 C672 1.574 . S
C664 C680 1.368 1_455 S
H665 C673 0.950 1_655 S
H666 C671 0.950 . S
H667 C672 0.949 . S
H668 C674 0.950 . S
H669 C675 0.950 1_455 S
H670 C676 0.949 . S
C671 H666 0.950 . S
C671 C673 1.327 1_655 S
C671 C677 1.429 1_655 S
C672 C664 1.574 . S
C672 H667 0.949 . S
C672 C678 1.406 . S
C673 C657 1.349 . S
C673 H665 0.950 1_455 S
C673 C671 1.327 1_455 S
C674 C662 1.349 . S
C674 H668 0.950 . S
C674 C675 1.327 . S
C675 H669 0.950 1_655 S
C675 C674 1.327 . S
C675 C679 1.429 . S
C676 C659 1.574 . S
C676 H670 0.949 . S
C676 C680 1.368 . S
C677 C658 1.429 . S
C677 C671 1.429 1_455 S
C677 C678 1.541 . S
C678 C659 1.321 1_455 S
C678 C672 1.406 . S
C678 C677 1.541 . S
C679 C663 1.429 . S
C679 C675 1.429 . S
C679 C680 1.523 . S
C680 C664 1.368 1_655 S
C680 C676 1.368 . S
C680 C679 1.523 . S
H681 C656 0.950 . S
H682 C658 0.950 . S
H683 C659 0.949 . S
H684 C661 0.950 . S
H685 C663 0.950 . S
C686 C687 1.349 . S
C686 C688 1.327 . S
C686 H711 0.950 . S
C687 C686 1.349 . S
C687 C703 1.349 . S
C688 C686 1.327 . S
C688 C707 1.429 . S
C688 H712 0.950 . S
C689 C706 1.574 . S
C689 C708 1.368 . S
C689 H713 0.949 . S
H690 C694 0.949 . S
C691 C692 1.349 . S
C691 C693 1.327 . S
C691 H714 0.950 . S
C692 C691 1.349 . S
C692 C704 1.349 . S
C693 C691 1.327 . S
C693 C709 1.429 . S
C693 H715 0.950 . S
C694 H690 0.949 . S
C694 C702 1.574 . S
C694 C710 1.368 . S
H695 C703 0.950 . S
H696 C701 0.950 . S
H697 C702 0.949 . S
H698 C704 0.950 . S
H699 C705 0.950 . S
H700 C706 0.949 . S
C701 H696 0.950 . S
C701 C703 1.327 . S
C701 C707 1.429 . S
C702 C694 1.574 . S
C702 H697 0.949 . S
C702 C708 1.368 . S
C703 C687 1.349 . S
C703 H695 0.950 . S
C703 C701 1.327 . S
C704 C692 1.349 . S
C704 H698 0.950 . S
C704 C705 1.327 . S
C705 H699 0.950 . S
C705 C704 1.327 . S
C705 C709 1.429 . S
C706 C689 1.574 . S
C706 H700 0.949 . S
C706 C710 1.368 . S
C707 C688 1.429 . S
C707 C701 1.429 . S
C707 C708 1.523 1_554 S
C708 C689 1.368 . S
C708 C702 1.368 . S
C708 C707 1.523 1_556 S
C709 C693 1.429 . S
C709 C705 1.429 . S
C709 C710 1.523 . S
C710 C694 1.368 . S
C710 C706 1.368 . S
C710 C709 1.523 . S
H711 C686 0.950 . S
H712 C688 0.950 . S
H713 C689 0.949 . S
H714 C691 0.950 . S
H715 C693 0.950 . S
C716 C717 1.349 . S
C716 C718 1.327 . S
C716 H741 0.950 . S
C717 C716 1.349 . S
C717 C733 1.349 . S
C718 C716 1.327 . S
C718 C737 1.429 . S
C718 H742 0.950 . S
C719 C736 1.574 . S
C719 C738 1.368 . S
C719 H743 0.949 . S
H720 C724 0.949 . S
C721 C722 1.349 . S
C721 C723 1.327 . S
C721 H744 0.950 . S
C722 C721 1.349 . S
C722 C734 1.349 . S
C723 C721 1.327 . S
C723 C739 1.429 . S
C723 H745 0.950 . S
C724 H720 0.949 . S
C724 C732 1.574 . S
C724 C740 1.368 . S
H725 C733 0.950 . S
H726 C731 0.950 . S
H727 C732 0.949 . S
H728 C734 0.950 . S
H729 C735 0.950 . S
H730 C736 0.949 . S
C731 H726 0.950 . S
C731 C733 1.327 . S
C731 C737 1.429 . S
C732 C724 1.574 . S
C732 H727 0.949 . S
C732 C738 1.368 . S
C733 C717 1.349 . S
C733 H725 0.950 . S
C733 C731 1.327 . S
C734 C722 1.349 . S
C734 H728 0.950 . S
C734 C735 1.327 . S
C735 H729 0.950 . S
C735 C734 1.327 . S
C735 C739 1.429 . S
C736 C719 1.574 . S
C736 H730 0.949 . S
C736 C740 1.368 . S
C737 C718 1.429 . S
C737 C731 1.429 . S
C737 C738 1.523 . S
C738 C719 1.368 . S
C738 C732 1.368 . S
C738 C737 1.523 . S
C739 C723 1.429 . S
C739 C735 1.429 . S
C739 C740 1.523 . S
C740 C724 1.368 . S
C740 C736 1.368 . S
C740 C739 1.523 . S
H741 C716 0.950 . S
H742 C718 0.950 . S
H743 C719 0.949 . S
H744 C721 0.950 . S
H745 C723 0.950 . S
C746 C747 1.349 . S
C746 C748 1.327 . S
C746 H771 0.950 . S
C747 C746 1.349 . S
C747 C763 1.349 . S
C748 C746 1.327 . S
C748 C767 1.429 . S
C748 H772 0.950 . S
C749 C766 1.574 . S
C749 C768 1.368 . S
C749 H773 0.949 . S
H750 C754 0.949 . S
C751 C752 1.349 . S
C751 C753 1.327 . S
C751 H774 0.950 . S
C752 C751 1.349 . S
C752 C764 1.349 . S
C753 C751 1.327 . S
C753 C769 1.429 . S
C753 H775 0.950 . S
C754 H750 0.949 . S
C754 C762 1.574 . S
C754 C770 1.368 . S
H755 C763 0.950 . S
H756 C761 0.950 . S
H757 C762 0.949 . S
H758 C764 0.950 . S
H759 C765 0.950 . S
H760 C766 0.949 . S
C761 H756 0.950 . S
C761 C763 1.327 . S
C761 C767 1.429 . S
C762 C754 1.574 . S
C762 H757 0.949 . S
C762 C768 1.368 . S
C763 C747 1.349 . S
C763 H755 0.950 . S
C763 C761 1.327 . S
C764 C752 1.349 . S
C764 H758 0.950 . S
C764 C765 1.327 . S
C765 H759 0.950 . S
C765 C764 1.327 . S
C765 C769 1.429 . S
C766 C749 1.574 . S
C766 H760 0.949 . S
C766 C770 1.368 . S
C767 C748 1.429 . S
C767 C761 1.429 . S
C767 C768 1.523 . S
C768 C749 1.368 . S
C768 C762 1.368 . S
C768 C767 1.523 . S
C769 C753 1.429 . S
C769 C765 1.429 . S
C769 C770 1.523 . S
C770 C754 1.368 . S
C770 C766 1.368 . S
C770 C769 1.523 . S
H771 C746 0.950 . S
H772 C748 0.950 . S
H773 C749 0.949 . S
H774 C751 0.950 . S
H775 C753 0.950 . S
C776 C777 1.349 . S
C776 C778 1.327 . S
C776 H801 0.950 . S
C777 C776 1.349 . S
C777 C793 1.349 . S
C778 C776 1.327 . S
C778 C797 1.429 . S
C778 H802 0.950 . S
C779 C796 1.574 . S
C779 C798 1.368 1_455 S
C779 H803 0.949 . S
H780 C784 0.949 . S
C781 C782 1.349 . S
C781 C783 1.327 . S
C781 H804 0.950 . S
C782 C781 1.349 . S
C782 C794 1.349 . S
C783 C781 1.327 . S
C783 C799 1.429 . S
C783 H805 0.950 . S
C784 H780 0.949 . S
C784 C792 1.574 . S
C784 C800 1.323 1_655 S
H785 C793 0.950 . S
H786 C791 0.950 1_455 S
H787 C792 0.949 . S
H788 C794 0.950 1_655 S
H789 C795 0.950 . S
H790 C796 0.949 . S
C791 H786 0.950 1_655 S
C791 C793 1.327 . S
C791 C797 1.429 . S
C792 C784 1.574 . S
C792 H787 0.949 . S
C792 C798 1.368 . S
C793 C777 1.349 . S
C793 H785 0.950 . S
C793 C791 1.327 . S
C794 C782 1.349 . S
C794 H788 0.950 1_455 S
C794 C795 1.327 1_455 S
C795 H789 0.950 . S
C795 C794 1.327 1_655 S
C795 C799 1.429 1_655 S
C796 C779 1.574 . S
C796 H790 0.949 . S
C796 C800 1.405 . S
C797 C778 1.429 . S
C797 C791 1.429 . S
C797 C798 1.523 . S
C798 C779 1.368 1_655 S
C798 C792 1.368 . S
C798 C797 1.523 . S
C799 C783 1.429 . S
C799 C795 1.429 1_455 S
C799 C800 1.541 . S
C800 C784 1.323 1_455 S
C800 C796 1.405 . S
C800 C799 1.541 . S
H801 C776 0.950 . S
H802 C778 0.950 . S
H803 C779 0.949 . S
H804 C781 0.950 . S
H805 C783 0.950 . S
C806 C807 1.349 . S
C806 C808 1.327 . S
C806 H831 0.950 . S
C807 C806 1.349 . S
C807 C823 1.349 . S
C808 C806 1.327 . S
C808 C827 1.429 . S
C808 H832 0.950 . S
C809 C826 1.574 . S
C809 C828 1.368 . S
C809 H833 0.949 . S
H810 C814 0.949 . S
C811 C812 1.349 . S
C811 C813 1.327 . S
C811 H834 0.950 . S
C812 C811 1.349 . S
C812 C824 1.349 . S
C813 C811 1.327 . S
C813 C829 1.429 . S
C813 H835 0.950 . S
C814 H810 0.949 . S
C814 C822 1.574 . S
C814 C830 1.368 . S
H815 C823 0.950 . S
H816 C821 0.950 . S
H817 C822 0.949 . S
H818 C824 0.950 . S
H819 C825 0.950 . S
H820 C826 0.949 . S
C821 H816 0.950 . S
C821 C823 1.327 . S
C821 C827 1.429 . S
C822 C814 1.574 . S
C822 H817 0.949 . S
C822 C828 1.368 . S
C823 C807 1.349 . S
C823 H815 0.950 . S
C823 C821 1.327 . S
C824 C812 1.349 . S
C824 H818 0.950 . S
C824 C825 1.327 . S
C825 H819 0.950 . S
C825 C824 1.327 . S
C825 C829 1.429 . S
C826 C809 1.574 . S
C826 H820 0.949 . S
C826 C830 1.368 . S
C827 C808 1.429 . S
C827 C821 1.429 . S
C827 C828 1.523 . S
C828 C809 1.368 . S
C828 C822 1.368 . S
C828 C827 1.523 . S
C829 C813 1.429 . S
C829 C825 1.429 . S
C829 C830 1.523 1_556 S
C830 C814 1.368 . S
C830 C826 1.368 . S
C830 C829 1.523 1_554 S
H831 C806 0.950 . S
H832 C808 0.950 . S
H833 C809 0.949 . S
H834 C811 0.950 . S
H835 C813 0.950 . S
C836 C837 1.349 . S
C836 C838 1.327 . S
C836 H861 0.950 . S
C837 C836 1.349 . S
C837 C853 1.349 . S
C838 C836 1.327 . S
C838 C857 1.429 . S
C838 H862 0.950 . S
C839 C856 1.574 . S
C839 C858 1.368 . S
C839 H863 0.949 . S
H840 C844 0.949 . S
C841 C842 1.349 . S
C841 C843 1.327 . S
C841 H864 0.950 . S
C842 C841 1.349 . S
C842 C854 1.349 . S
C843 C841 1.327 . S
C843 C859 1.429 . S
C843 H865 0.950 . S
C844 H840 0.949 . S
C844 C852 1.574 . S
C844 C860 1.368 . S
H845 C853 0.950 . S
H846 C851 0.950 . S
H847 C852 0.949 . S
H848 C854 0.950 . S
H849 C855 0.950 . S
H850 C856 0.949 . S
C851 H846 0.950 . S
C851 C853 1.327 . S
C851 C857 1.429 . S
C852 C844 1.574 . S
C852 H847 0.949 . S
C852 C858 1.368 . S
C853 C837 1.349 . S
C853 H845 0.950 . S
C853 C851 1.327 . S
C854 C842 1.349 . S
C854 H848 0.950 . S
C854 C855 1.327 . S
C855 H849 0.950 . S
C855 C854 1.327 . S
C855 C859 1.429 . S
C856 C839 1.574 . S
C856 H850 0.949 . S
C856 C860 1.368 . S
C857 C838 1.429 . S
C857 C851 1.429 . S
C857 C858 1.523 . S
C858 C839 1.368 . S
C858 C852 1.368 . S
C858 C857 1.523 . S
C859 C843 1.429 . S
C859 C855 1.429 . S
C859 C860 1.523 . S
C860 C844 1.368 . S
C860 C856 1.368 . S
C860 C859 1.523 . S
H861 C836 0.950 . S
H862 C838 0.950 . S
H863 C839 0.949 . S
H864 C841 0.950 . S
H865 C843 0.950 . S
C866 C867 1.349 . S
C866 C868 1.327 . S
C866 H891 0.950 . S
C867 C866 1.349 . S
C867 C883 1.349 . S
C868 C866 1.327 . S
C868 C887 1.429 . S
C868 H892 0.950 . S
C869 C886 1.574 . S
C869 C888 1.368 . S
C869 H893 0.949 . S
H870 C874 0.949 . S
C871 C872 1.349 . S
C871 C873 1.327 . S
C871 H894 0.950 . S
C872 C871 1.349 . S
C872 C884 1.349 . S
C873 C871 1.327 . S
C873 C889 1.429 . S
C873 H895 0.950 . S
C874 H870 0.949 . S
C874 C882 1.574 . S
C874 C890 1.368 . S
H875 C883 0.950 . S
H876 C881 0.950 . S
H877 C882 0.949 . S
H878 C884 0.950 . S
H879 C885 0.950 . S
H880 C886 0.949 . S
C881 H876 0.950 . S
C881 C883 1.327 . S
C881 C887 1.429 . S
C882 C874 1.574 . S
C882 H877 0.949 . S
C882 C888 1.368 . S
C883 C867 1.349 . S
C883 H875 0.950 . S
C883 C881 1.327 . S
C884 C872 1.349 . S
C884 H878 0.950 . S
C884 C885 1.327 . S
C885 H879 0.950 . S
C885 C884 1.327 . S
C885 C889 1.429 . S
C886 C869 1.574 . S
C886 H880 0.949 . S
C886 C890 1.368 . S
C887 C868 1.429 . S
C887 C881 1.429 . S
C887 C888 1.523 . S
C888 C869 1.368 . S
C888 C882 1.368 . S
C888 C887 1.523 . S
C889 C873 1.429 . S
C889 C885 1.429 . S
C889 C890 1.523 . S
C890 C874 1.368 . S
C890 C886 1.368 . S
C890 C889 1.523 . S
H891 C866 0.950 . S
H892 C868 0.950 . S
H893 C869 0.949 . S
H894 C871 0.950 . S
H895 C873 0.950 . S
C896 C897 1.349 . S
C896 C898 1.327 . S
C896 H921 0.950 . S
C897 C896 1.349 . S
C897 C913 1.349 . S
C898 C896 1.327 . S
C898 C917 1.429 . S
C898 H922 0.950 . S
C899 C916 1.574 . S
C899 C918 1.368 . S
C899 H923 0.949 . S
H900 C904 0.949 . S
C901 C902 1.349 . S
C901 C903 1.327 . S
C901 H924 0.950 . S
C902 C901 1.349 . S
C902 C914 1.349 . S
C903 C901 1.327 . S
C903 C919 1.429 . S
C903 H925 0.950 . S
C904 H900 0.949 . S
C904 C912 1.574 . S
C904 C920 1.368 . S
H905 C913 0.950 . S
H906 C911 0.950 . S
H907 C912 0.949 . S
H908 C914 0.950 . S
H909 C915 0.950 . S
H910 C916 0.949 . S
C911 H906 0.950 . S
C911 C913 1.327 . S
C911 C917 1.429 . S
C912 C904 1.574 . S
C912 H907 0.949 . S
C912 C918 1.368 . S
C913 C897 1.349 . S
C913 H905 0.950 . S
C913 C911 1.327 . S
C914 C902 1.349 . S
C914 H908 0.950 . S
C914 C915 1.327 . S
C915 H909 0.950 . S
C915 C914 1.327 . S
C915 C919 1.429 . S
C916 C899 1.574 . S
C916 H910 0.949 . S
C916 C920 1.368 . S
C917 C898 1.429 . S
C917 C911 1.429 . S
C917 C918 1.523 . S
C918 C899 1.368 . S
C918 C912 1.368 . S
C918 C917 1.523 . S
C919 C903 1.429 . S
C919 C915 1.429 . S
C919 C920 1.523 . S
C920 C904 1.368 . S
C920 C916 1.368 . S
C920 C919 1.523 . S
H921 C896 0.950 . S
H922 C898 0.950 . S
H923 C899 0.949 . S
H924 C901 0.950 . S
H925 C903 0.950 . S
C926 C927 1.349 . S
C926 C928 1.327 . S
C926 H951 0.950 . S
C927 C926 1.349 . S
C927 C943 1.349 . S
C928 C926 1.327 . S
C928 C947 1.429 . S
C928 H952 0.950 . S
C929 C946 1.574 . S
C929 C948 1.368 . S
C929 H953 0.949 . S
H930 C934 0.949 . S
C931 C932 1.349 . S
C931 C933 1.327 . S
C931 H954 0.950 . S
C932 C931 1.349 . S
C932 C944 1.349 . S
C933 C931 1.327 . S
C933 C949 1.429 . S
C933 H955 0.950 . S
C934 H930 0.949 . S
C934 C942 1.574 . S
C934 C950 1.368 . S
H935 C943 0.950 . S
H936 C941 0.950 . S
H937 C942 0.949 . S
H938 C944 0.950 . S
H939 C945 0.950 . S
H940 C946 0.949 . S
C941 H936 0.950 . S
C941 C943 1.327 . S
C941 C947 1.429 . S
C942 C934 1.574 . S
C942 H937 0.949 . S
C942 C948 1.368 . S
C943 C927 1.349 . S
C943 H935 0.950 . S
C943 C941 1.327 . S
C944 C932 1.349 . S
C944 H938 0.950 . S
C944 C945 1.327 . S
C945 H939 0.950 . S
C945 C944 1.327 . S
C945 C949 1.429 . S
C946 C929 1.574 . S
C946 H940 0.949 . S
C946 C950 1.368 . S
C947 C928 1.429 . S
C947 C941 1.429 . S
C947 C948 1.523 . S
C948 C929 1.368 . S
C948 C942 1.368 . S
C948 C947 1.523 . S
C949 C933 1.429 . S
C949 C945 1.429 . S
C949 C950 1.523 . S
C950 C934 1.368 . S
C950 C946 1.368 . S
C950 C949 1.523 . S
H951 C926 0.950 . S
H952 C928 0.950 . S
H953 C929 0.949 . S
H954 C931 0.950 . S
H955 C933 0.950 . S
C956 C957 1.349 . S
C956 C958 1.327 . S
C956 H981 0.950 . S
C957 C956 1.349 . S
C957 C973 1.349 . S
C958 C956 1.327 . S
C958 C977 1.429 . S
C958 H982 0.950 . S
C959 C976 1.574 . S
C959 C978 1.320 1_655 S
C959 H983 0.949 . S
H960 C964 0.949 . S
C961 C962 1.349 . S
C961 C963 1.327 . S
C961 H984 0.950 . S
C962 C961 1.349 . S
C962 C974 1.349 . S
C963 C961 1.327 . S
C963 C979 1.429 . S
C963 H985 0.950 . S
C964 H960 0.949 . S
C964 C972 1.574 . S
C964 C980 1.368 1_455 S
H965 C973 0.950 1_655 S
H966 C971 0.950 . S
H967 C972 0.949 . S
H968 C974 0.950 . S
H969 C975 0.950 1_455 S
H970 C976 0.949 . S
C971 H966 0.950 . S
C971 C973 1.327 1_655 S
C971 C977 1.429 1_655 S
C972 C964 1.574 . S
C972 H967 0.949 . S
C972 C978 1.407 . S
C973 C957 1.349 . S
C973 H965 0.950 1_455 S
C973 C971 1.327 1_455 S
C974 C962 1.349 . S
C974 H968 0.950 . S
C974 C975 1.327 . S
C975 H969 0.950 1_655 S
C975 C974 1.327 . S
C975 C979 1.429 . S
C976 C959 1.574 . S
C976 H970 0.949 . S
C976 C980 1.368 . S
C977 C958 1.429 . S
C977 C971 1.429 1_455 S
C977 C978 1.541 . S
C978 C959 1.320 1_455 S
C978 C972 1.407 . S
C978 C977 1.541 . S
C979 C963 1.429 . S
C979 C975 1.429 . S
C979 C980 1.523 . S
C980 C964 1.368 1_655 S
C980 C976 1.368 . S
C980 C979 1.523 . S
H981 C956 0.950 . S
H982 C958 0.950 . S
H983 C959 0.949 . S
H984 C961 0.950 . S
H985 C963 0.950 . S
C986 C987 1.349 . S
C986 C988 1.327 . S
C986 H1011 0.950 . S
C987 C986 1.349 . S
C987 C1003 1.349 . S
C988 C986 1.327 . S
C988 C1007 1.429 . S
C988 H1012 0.950 . S
C989 C1006 1.574 . S
C989 C1008 1.368 . S
C989 H1013 0.949 . S
H990 C994 0.949 . S
C991 C992 1.349 . S
C991 C993 1.327 . S
C991 H1014 0.950 . S
C992 C991 1.349 . S
C992 C1004 1.349 . S
C993 C991 1.327 . S
C993 C1009 1.429 . S
C993 H1015 0.950 . S
C994 H990 0.949 . S
C994 C1002 1.574 . S
C994 C1010 1.368 . S
H995 C1003 0.950 . S
H996 C1001 0.950 . S
H997 C1002 0.949 . S
H998 C1004 0.950 . S
H999 C1005 0.950 . S
H1000 C1006 0.949 . S
C1001 H996 0.950 . S
C1001 C1003 1.327 . S
C1001 C1007 1.429 . S
C1002 C994 1.574 . S
C1002 H997 0.949 . S
C1002 C1008 1.368 . S
C1003 C987 1.349 . S
C1003 H995 0.950 . S
C1003 C1001 1.327 . S
C1004 C992 1.349 . S
C1004 H998 0.950 . S
C1004 C1005 1.327 . S
C1005 H999 0.950 . S
C1005 C1004 1.327 . S
C1005 C1009 1.429 . S
C1006 C989 1.574 . S
C1006 H1000 0.949 . S
C1006 C1010 1.368 . S
C1007 C988 1.429 . S
C1007 C1001 1.429 . S
C1007 C1008 1.523 . S
C1008 C989 1.368 . S
C1008 C1002 1.368 . S
C1008 C1007 1.523 . S
C1009 C993 1.429 . S
C1009 C1005 1.429 . S
C1009 C1010 1.523 1_556 S
C1010 C994 1.368 . S
C1010 C1006 1.368 . S
C1010 C1009 1.523 1_554 S
H1011 C986 0.950 . S
H1012 C988 0.950 . S
H1013 C989 0.949 . S
H1014 C991 0.950 . S
H1015 C993 0.950 . S
C1016 C1017 1.349 . S
C1016 C1018 1.327 . S
C1016 H1041 0.950 . S
C1017 C1016 1.349 . S
C1017 C1033 1.349 . S
C1018 C1016 1.327 . S
C1018 C1037 1.429 . S
C1018 H1042 0.950 . S
C1019 C1036 1.574 . S
C1019 C1038 1.368 . S
C1019 H1043 0.949 . S
H1020 C1024 0.949 . S
C1021 C1022 1.349 . S
C1021 C1023 1.327 . S
C1021 H1044 0.950 . S
C1022 C1021 1.349 . S
C1022 C1034 1.349 . S
C1023 C1021 1.327 . S
C1023 C1039 1.429 . S
C1023 H1045 0.950 . S
C1024 H1020 0.949 . S
C1024 C1032 1.574 . S
C1024 C1040 1.368 . S
H1025 C1033 0.950 . S
H1026 C1031 0.950 . S
H1027 C1032 0.949 . S
H1028 C1034 0.950 . S
H1029 C1035 0.950 . S
H1030 C1036 0.949 . S
C1031 H1026 0.950 . S
C1031 C1033 1.327 . S
C1031 C1037 1.429 . S
C1032 C1024 1.574 . S
C1032 H1027 0.949 . S
C1032 C1038 1.368 . S
C1033 C1017 1.349 . S
C1033 H1025 0.950 . S
C1033 C1031 1.327 . S
C1034 C1022 1.349 . S
C1034 H1028 0.950 . S
C1034 C1035 1.327 . S
C1035 H1029 0.950 . S
C1035 C1034 1.327 . S
C1035 C1039 1.429 . S
C1036 C1019 1.574 . S
C1036 H1030 0.949 . S
C1036 C1040 1.368 . S
C1037 C1018 1.429 . S
C1037 C1031 1.429 . S
C1037 C1038 1.523 . S
C1038 C1019 1.368 . S
C1038 C1032 1.368 . S
C1038 C1037 1.523 . S
C1039 C1023 1.429 . S
C1039 C1035 1.429 . S
C1039 C1040 1.523 . S
C1040 C1024 1.368 . S
C1040 C1036 1.368 . S
C1040 C1039 1.523 . S
H1041 C1016 0.950 . S
H1042 C1018 0.950 . S
H1043 C1019 0.949 . S
H1044 C1021 0.950 . S
H1045 C1023 0.950 . S
C1046 C1047 1.349 . S
C1046 C1048 1.327 . S
C1046 H1071 0.950 . S
C1047 C1046 1.349 . S
C1047 C1063 1.349 . S
C1048 C1046 1.327 . S
C1048 C1067 1.429 . S
C1048 H1072 0.950 . S
C1049 C1066 1.574 . S
C1049 C1068 1.368 . S
C1049 H1073 0.949 . S
H1050 C1054 0.949 . S
C1051 C1052 1.349 . S
C1051 C1053 1.327 . S
C1051 H1074 0.950 . S
C1052 C1051 1.349 . S
C1052 C1064 1.349 . S
C1053 C1051 1.327 . S
C1053 C1069 1.429 . S
C1053 H1075 0.950 . S
C1054 H1050 0.949 . S
C1054 C1062 1.574 . S
C1054 C1070 1.368 . S
H1055 C1063 0.950 . S
H1056 C1061 0.950 . S
H1057 C1062 0.949 . S
H1058 C1064 0.950 . S
H1059 C1065 0.950 . S
H1060 C1066 0.949 . S
C1061 H1056 0.950 . S
C1061 C1063 1.327 . S
C1061 C1067 1.429 . S
C1062 C1054 1.574 . S
C1062 H1057 0.949 . S
C1062 C1068 1.368 . S
C1063 C1047 1.349 . S
C1063 H1055 0.950 . S
C1063 C1061 1.327 . S
C1064 C1052 1.349 . S
C1064 H1058 0.950 . S
C1064 C1065 1.327 . S
C1065 H1059 0.950 . S
C1065 C1064 1.327 . S
C1065 C1069 1.429 . S
C1066 C1049 1.574 . S
C1066 H1060 0.949 . S
C1066 C1070 1.368 . S
C1067 C1048 1.429 . S
C1067 C1061 1.429 . S
C1067 C1068 1.523 . S
C1068 C1049 1.368 . S
C1068 C1062 1.368 . S
C1068 C1067 1.523 . S
C1069 C1053 1.429 . S
C1069 C1065 1.429 . S
C1069 C1070 1.523 . S
C1070 C1054 1.368 . S
C1070 C1066 1.368 . S
C1070 C1069 1.523 . S
H1071 C1046 0.950 . S
H1072 C1048 0.950 . S
H1073 C1049 0.949 . S
H1074 C1051 0.950 . S
H1075 C1053 0.950 . S
C1076 C1077 1.349 . S
C1076 C1078 1.327 . S
C1076 H1101 0.950 . S
C1077 C1076 1.349 . S
C1077 C1093 1.349 . S
C1078 C1076 1.327 . S
C1078 C1097 1.429 . S
C1078 H1102 0.950 . S
C1079 C1096 1.574 . S
C1079 C1098 1.325 1_655 S
C1079 H1103 0.949 . S
H1080 C1084 0.949 . S
C1081 C1082 1.349 . S
C1081 C1083 1.327 . S
C1081 H1104 0.950 . S
C1082 C1081 1.349 . S
C1082 C1094 1.349 . S
C1083 C1081 1.327 . S
C1083 C1099 1.429 . S
C1083 H1105 0.950 . S
C1084 H1080 0.949 . S
C1084 C1092 1.574 . S
C1084 C1100 1.368 1_455 S
H1085 C1093 0.950 1_655 S
H1086 C1091 0.982 . S
H1087 C1092 0.949 . S
H1088 C1094 0.950 . S
H1089 C1095 0.950 1_455 S
H1090 C1096 0.949 . S
C1091 H1086 0.982 . S
C1091 C1093 1.316 1_655 S
C1091 C1097 1.411 1_655 S
C1092 C1084 1.574 . S
C1092 H1087 0.949 . S
C1092 C1098 1.402 . S
C1093 C1077 1.349 . S
C1093 H1085 0.950 1_455 S
C1093 C1091 1.316 1_455 S
C1094 C1082 1.349 . S
C1094 H1088 0.950 . S
C1094 C1095 1.327 . S
C1095 H1089 0.950 1_655 S
C1095 C1094 1.327 . S
C1095 C1099 1.429 . S
C1096 C1079 1.574 . S
C1096 H1090 0.949 . S
C1096 C1100 1.368 . S
C1097 C1078 1.429 . S
C1097 C1091 1.411 1_455 S
C1097 C1098 1.541 . S
C1098 C1079 1.325 1_455 S
C1098 C1092 1.402 . S
C1098 C1097 1.541 . S
C1099 C1083 1.429 . S
C1099 C1095 1.429 . S
C1099 C1100 1.523 . S
C1100 C1084 1.368 1_655 S
C1100 C1096 1.368 . S
C1100 C1099 1.523 . S
H1101 C1076 0.950 . S
H1102 C1078 0.950 . S
H1103 C1079 0.949 . S
H1104 C1081 0.950 . S
H1105 C1083 0.950 . S
C1106 C1107 1.349 . S
C1106 C1108 1.327 . S
C1106 H1131 0.950 . S
C1107 C1106 1.349 . S
C1107 C1123 1.349 . S
C1108 C1106 1.327 . S
C1108 C1127 1.429 . S
C1108 H1132 0.950 . S
C1109 C1126 1.574 . S
C1109 C1128 1.368 . S
C1109 H1133 0.949 . S
H1110 C1114 0.949 . S
C1111 C1112 1.349 . S
C1111 C1113 1.327 . S
C1111 H1134 0.950 . S
C1112 C1111 1.349 . S
C1112 C1124 1.349 . S
C1113 C1111 1.327 . S
C1113 C1129 1.429 . S
C1113 H1135 0.950 . S
C1114 H1110 0.949 . S
C1114 C1122 1.574 . S
C1114 C1130 1.368 . S
H1115 C1123 0.950 . S
H1116 C1121 0.950 . S
H1117 C1122 0.949 . S
H1118 C1124 0.950 . S
H1119 C1125 0.950 . S
H1120 C1126 0.949 . S
C1121 H1116 0.950 . S
C1121 C1123 1.327 . S
C1121 C1127 1.429 . S
C1122 C1114 1.574 . S
C1122 H1117 0.949 . S
C1122 C1128 1.368 . S
C1123 C1107 1.349 . S
C1123 H1115 0.950 . S
C1123 C1121 1.327 . S
C1124 C1112 1.349 . S
C1124 H1118 0.950 . S
C1124 C1125 1.327 . S
C1125 H1119 0.950 . S
C1125 C1124 1.327 . S
C1125 C1129 1.429 . S
C1126 C1109 1.574 . S
C1126 H1120 0.949 . S
C1126 C1130 1.368 . S
C1127 C1108 1.429 . S
C1127 C1121 1.429 . S
C1127 C1128 1.523 1_554 S
C1128 C1109 1.368 . S
C1128 C1122 1.368 . S
C1128 C1127 1.523 1_556 S
C1129 C1113 1.429 . S
C1129 C1125 1.429 . S
C1129 C1130 1.523 . S
C1130 C1114 1.368 . S
C1130 C1126 1.368 . S
C1130 C1129 1.523 . S
H1131 C1106 0.950 . S
H1132 C1108 0.950 . S
H1133 C1109 0.949 . S
H1134 C1111 0.950 . S
H1135 C1113 0.950 . S
C1136 C1137 1.349 . S
C1136 C1138 1.327 . S
C1136 H1161 0.950 . S
C1137 C1136 1.349 . S
C1137 C1153 1.349 . S
C1138 C1136 1.327 . S
C1138 C1157 1.429 . S
C1138 H1162 0.950 . S
C1139 C1156 1.574 . S
C1139 C1158 1.368 . S
C1139 H1163 0.949 . S
H1140 C1144 0.949 . S
C1141 C1142 1.349 . S
C1141 C1143 1.327 . S
C1141 H1164 0.950 . S
C1142 C1141 1.349 . S
C1142 C1154 1.349 . S
C1143 C1141 1.327 . S
C1143 C1159 1.429 . S
C1143 H1165 0.950 . S
C1144 H1140 0.949 . S
C1144 C1152 1.574 . S
C1144 C1160 1.368 . S
H1145 C1153 0.950 . S
H1146 C1151 0.950 . S
H1147 C1152 0.949 . S
H1148 C1154 0.950 . S
H1149 C1155 0.950 . S
H1150 C1156 0.949 . S
C1151 H1146 0.950 . S
C1151 C1153 1.327 . S
C1151 C1157 1.429 . S
C1152 C1144 1.574 . S
C1152 H1147 0.949 . S
C1152 C1158 1.368 . S
C1153 C1137 1.349 . S
C1153 H1145 0.950 . S
C1153 C1151 1.327 . S
C1154 C1142 1.349 . S
C1154 H1148 0.950 . S
C1154 C1155 1.327 . S
C1155 H1149 0.950 . S
C1155 C1154 1.327 . S
C1155 C1159 1.429 . S
C1156 C1139 1.574 . S
C1156 H1150 0.949 . S
C1156 C1160 1.368 . S
C1157 C1138 1.429 . S
C1157 C1151 1.429 . S
C1157 C1158 1.523 . S
C1158 C1139 1.368 . S
C1158 C1152 1.368 . S
C1158 C1157 1.523 . S
C1159 C1143 1.429 . S
C1159 C1155 1.429 . S
C1159 C1160 1.523 . S
C1160 C1144 1.368 . S
C1160 C1156 1.368 . S
C1160 C1159 1.523 . S
H1161 C1136 0.950 . S
H1162 C1138 0.950 . S
H1163 C1139 0.949 . S
H1164 C1141 0.950 . S
H1165 C1143 0.950 . S
C1166 C1167 1.349 . S
C1166 C1168 1.327 . S
C1166 H1191 0.950 . S
C1167 C1166 1.349 . S
C1167 C1183 1.349 . S
C1168 C1166 1.327 . S
C1168 C1187 1.429 . S
C1168 H1192 0.950 . S
C1169 C1186 1.574 . S
C1169 C1188 1.368 . S
C1169 H1193 0.949 . S
H1170 C1174 0.949 . S
C1171 C1172 1.349 . S
C1171 C1173 1.327 . S
C1171 H1194 0.950 . S
C1172 C1171 1.349 . S
C1172 C1184 1.349 . S
C1173 C1171 1.327 . S
C1173 C1189 1.429 . S
C1173 H1195 0.950 . S
C1174 H1170 0.949 . S
C1174 C1182 1.574 . S
C1174 C1190 1.368 . S
H1175 C1183 0.950 . S
H1176 C1181 0.950 . S
H1177 C1182 0.949 . S
H1178 C1184 0.950 . S
H1179 C1185 0.950 . S
H1180 C1186 0.949 . S
C1181 H1176 0.950 . S
C1181 C1183 1.327 . S
C1181 C1187 1.429 . S
C1182 C1174 1.574 . S
C1182 H1177 0.949 . S
C1182 C1188 1.368 . S
C1183 C1167 1.349 . S
C1183 H1175 0.950 . S
C1183 C1181 1.327 . S
C1184 C1172 1.349 . S
C1184 H1178 0.950 . S
C1184 C1185 1.327 . S
C1185 H1179 0.950 . S
C1185 C1184 1.327 . S
C1185 C1189 1.429 . S
C1186 C1169 1.574 . S
C1186 H1180 0.949 . S
C1186 C1190 1.368 . S
C1187 C1168 1.429 . S
C1187 C1181 1.429 . S
C1187 C1188 1.523 . S
C1188 C1169 1.368 . S
C1188 C1182 1.368 . S
C1188 C1187 1.523 . S
C1189 C1173 1.429 . S
C1189 C1185 1.429 . S
C1189 C1190 1.523 . S
C1190 C1174 1.368 . S
C1190 C1186 1.368 . S
C1190 C1189 1.523 . S
H1191 C1166 0.950 . S
H1192 C1168 0.950 . S
H1193 C1169 0.949 . S
H1194 C1171 0.950 . S
H1195 C1173 0.950 . S
C1196 C1197 1.349 . S
C1196 C1198 1.327 . S
C1196 H1221 0.950 . S
C1197 C1196 1.349 . S
C1197 C1213 1.349 . S
C1198 C1196 1.327 . S
C1198 C1217 1.429 . S
C1198 H1222 0.950 . S
C1199 C1216 1.574 . S
C1199 C1218 1.368 1_655 S
C1199 H1223 0.949 . S
H1200 C1204 0.949 . S
C1201 C1202 1.349 . S
C1201 C1203 1.327 . S
C1201 H1224 0.950 . S
C1202 C1201 1.349 . S
C1202 C1214 1.342 . S
C1203 C1201 1.327 . S
C1203 C1219 1.429 . S
C1203 H1225 0.950 . S
C1204 H1200 0.949 . S
C1204 C1212 1.574 . S
C1204 C1220 1.311 1_455 S
H1205 C1213 0.950 1_655 S
H1206 C1211 0.913 1_655 S
H1207 C1212 0.949 . S
H1208 C1214 0.955 1_455 S
H1209 C1215 0.950 . S
H1210 C1216 0.949 . S
C1211 H1206 0.913 1_455 S
C1211 C1213 1.340 . S
C1211 C1217 1.455 . S
C1212 C1204 1.574 . S
C1212 H1207 0.949 . S
C1212 C1218 1.368 . S
C1213 C1197 1.349 . S
C1213 H1205 0.950 1_455 S
C1213 C1211 1.340 . S
C1214 C1202 1.342 . S
C1214 H1208 0.955 1_655 S
C1214 C1215 1.329 1_655 S
C1215 H1209 0.950 . S
C1215 C1214 1.329 1_455 S
C1215 C1219 1.429 1_455 S
C1216 C1199 1.574 . S
C1216 H1210 0.949 . S
C1216 C1220 1.416 . S
C1217 C1198 1.429 . S
C1217 C1211 1.455 . S
C1217 C1218 1.523 . S
C1218 C1199 1.368 1_455 S
C1218 C1212 1.368 . S
C1218 C1217 1.523 . S
C1219 C1203 1.429 . S
C1219 C1215 1.429 1_655 S
C1219 C1220 1.541 . S
C1220 C1204 1.311 1_655 S
C1220 C1216 1.416 . S
C1220 C1219 1.541 . S
H1221 C1196 0.950 . S
H1222 C1198 0.950 . S
H1223 C1199 0.949 . S
H1224 C1201 0.950 . S
H1225 C1203 0.950 . S
C1226 C1227 1.349 . S
C1226 C1228 1.327 . S
C1226 H1251 0.950 . S
C1227 C1226 1.349 . S
C1227 C1243 1.349 . S
C1228 C1226 1.327 . S
C1228 C1247 1.429 . S
C1228 H1252 0.950 . S
C1229 C1246 1.574 . S
C1229 C1248 1.368 . S
C1229 H1253 0.949 . S
H1230 C1234 0.949 . S
C1231 C1232 1.349 . S
C1231 C1233 1.327 . S
C1231 H1254 0.950 . S
C1232 C1231 1.349 . S
C1232 C1244 1.349 . S
C1233 C1231 1.327 . S
C1233 C1249 1.429 . S
C1233 H1255 0.950 . S
C1234 H1230 0.949 . S
C1234 C1242 1.574 . S
C1234 C1250 1.368 . S
H1235 C1243 0.950 . S
H1236 C1241 0.950 . S
H1237 C1242 0.949 . S
H1238 C1244 0.950 . S
H1239 C1245 0.950 . S
H1240 C1246 0.949 . S
C1241 H1236 0.950 . S
C1241 C1243 1.327 . S
C1241 C1247 1.429 . S
C1242 C1234 1.574 . S
C1242 H1237 0.949 . S
C1242 C1248 1.368 . S
C1243 C1227 1.349 . S
C1243 H1235 0.950 . S
C1243 C1241 1.327 . S
C1244 C1232 1.349 . S
C1244 H1238 0.950 . S
C1244 C1245 1.327 . S
C1245 H1239 0.950 . S
C1245 C1244 1.327 . S
C1245 C1249 1.429 . S
C1246 C1229 1.574 . S
C1246 H1240 0.949 . S
C1246 C1250 1.368 . S
C1247 C1228 1.429 . S
C1247 C1241 1.429 . S
C1247 C1248 1.523 . S
C1248 C1229 1.368 . S
C1248 C1242 1.368 . S
C1248 C1247 1.523 . S
C1249 C1233 1.429 . S
C1249 C1245 1.429 . S
C1249 C1250 1.523 1_554 S
C1250 C1234 1.368 . S
C1250 C1246 1.368 . S
C1250 C1249 1.523 1_556 S
H1251 C1226 0.950 . S
H1252 C1228 0.950 . S
H1253 C1229 0.949 . S
H1254 C1231 0.950 . S
H1255 C1233 0.950 . S
C1256 C1257 1.349 . S
C1256 C1258 1.327 . S
C1256 H1281 0.950 . S
C1257 C1256 1.349 . S
C1257 C1273 1.349 . S
C1258 C1256 1.327 . S
C1258 C1277 1.429 . S
C1258 H1282 0.950 . S
C1259 C1276 1.574 . S
C1259 C1278 1.368 . S
C1259 H1283 0.949 . S
H1260 C1264 0.949 . S
C1261 C1262 1.349 . S
C1261 C1263 1.327 . S
C1261 H1284 0.950 . S
C1262 C1261 1.349 . S
C1262 C1274 1.349 . S
C1263 C1261 1.327 . S
C1263 C1279 1.429 . S
C1263 H1285 0.950 . S
C1264 H1260 0.949 . S
C1264 C1272 1.574 . S
C1264 C1280 1.368 . S
H1265 C1273 0.950 . S
H1266 C1271 0.950 . S
H1267 C1272 0.949 . S
H1268 C1274 0.950 . S
H1269 C1275 0.950 . S
H1270 C1276 0.949 . S
C1271 H1266 0.950 . S
C1271 C1273 1.327 . S
C1271 C1277 1.429 . S
C1272 C1264 1.574 . S
C1272 H1267 0.949 . S
C1272 C1278 1.368 . S
C1273 C1257 1.349 . S
C1273 H1265 0.950 . S
C1273 C1271 1.327 . S
C1274 C1262 1.349 . S
C1274 H1268 0.950 . S
C1274 C1275 1.327 . S
C1275 H1269 0.950 . S
C1275 C1274 1.327 . S
C1275 C1279 1.429 . S
C1276 C1259 1.574 . S
C1276 H1270 0.949 . S
C1276 C1280 1.368 . S
C1277 C1258 1.429 . S
C1277 C1271 1.429 . S
C1277 C1278 1.523 . S
C1278 C1259 1.368 . S
C1278 C1272 1.368 . S
C1278 C1277 1.523 . S
C1279 C1263 1.429 . S
C1279 C1275 1.429 . S
C1279 C1280 1.523 . S
C1280 C1264 1.368 . S
C1280 C1276 1.368 . S
C1280 C1279 1.523 . S
H1281 C1256 0.950 . S
H1282 C1258 0.950 . S
H1283 C1259 0.949 . S
H1284 C1261 0.950 . S
H1285 C1263 0.950 . S
C1286 C1287 1.349 . S
C1286 C1288 1.327 . S
C1286 H1311 0.950 . S
C1287 C1286 1.349 . S
C1287 C1303 1.349 . S
C1288 C1286 1.327 . S
C1288 C1307 1.429 . S
C1288 H1312 0.950 . S
C1289 C1306 1.574 . S
C1289 C1308 1.368 . S
C1289 H1313 0.949 . S
H1290 C1294 0.949 . S
C1291 C1292 1.349 . S
C1291 C1293 1.327 . S
C1291 H1314 0.950 . S
C1292 C1291 1.349 . S
C1292 C1304 1.349 . S
C1293 C1291 1.327 . S
C1293 C1309 1.429 . S
C1293 H1315 0.950 . S
C1294 H1290 0.949 . S
C1294 C1302 1.574 . S
C1294 C1310 1.368 . S
H1295 C1303 0.950 . S
H1296 C1301 0.950 . S
H1297 C1302 0.949 . S
H1298 C1304 0.950 . S
H1299 C1305 0.950 . S
H1300 C1306 0.949 . S
C1301 H1296 0.950 . S
C1301 C1303 1.327 . S
C1301 C1307 1.429 . S
C1302 C1294 1.574 . S
C1302 H1297 0.949 . S
C1302 C1308 1.368 . S
C1303 C1287 1.349 . S
C1303 H1295 0.950 . S
C1303 C1301 1.327 . S
C1304 C1292 1.349 . S
C1304 H1298 0.950 . S
C1304 C1305 1.327 . S
C1305 H1299 0.950 . S
C1305 C1304 1.327 . S
C1305 C1309 1.429 . S
C1306 C1289 1.574 . S
C1306 H1300 0.949 . S
C1306 C1310 1.368 . S
C1307 C1288 1.429 . S
C1307 C1301 1.429 . S
C1307 C1308 1.523 . S
C1308 C1289 1.368 . S
C1308 C1302 1.368 . S
C1308 C1307 1.523 . S
C1309 C1293 1.429 . S
C1309 C1305 1.429 . S
C1309 C1310 1.523 . S
C1310 C1294 1.368 . S
C1310 C1306 1.368 . S
C1310 C1309 1.523 . S
H1311 C1286 0.950 . S
H1312 C1288 0.950 . S
H1313 C1289 0.949 . S
H1314 C1291 0.950 . S
H1315 C1293 0.950 . S
C1316 C1317 1.349 . S
C1316 C1318 1.327 . S
C1316 H1341 0.950 . S
C1317 C1316 1.349 . S
C1317 C1333 1.349 . S
C1318 C1316 1.327 . S
C1318 C1337 1.429 . S
C1318 H1342 0.950 . S
C1319 C1336 1.574 . S
C1319 C1338 1.320 1_455 S
C1319 H1343 0.949 . S
H1320 C1324 0.949 . S
C1321 C1322 1.349 . S
C1321 C1323 1.327 . S
C1321 H1344 0.950 . S
C1322 C1321 1.349 . S
C1322 C1334 1.349 . S
C1323 C1321 1.327 . S
C1323 C1339 1.429 . S
C1323 H1345 0.950 . S
C1324 H1320 0.949 . S
C1324 C1332 1.574 . S
C1324 C1340 1.368 1_655 S
H1325 C1333 0.950 1_455 S
H1326 C1331 0.950 . S
H1327 C1332 0.949 . S
H1328 C1334 0.950 . S
H1329 C1335 0.950 1_655 S
H1330 C1336 0.949 . S
C1331 H1326 0.950 . S
C1331 C1333 1.327 1_455 S
C1331 C1337 1.429 1_455 S
C1332 C1324 1.574 . S
C1332 H1327 0.949 . S
C1332 C1338 1.407 . S
C1333 C1317 1.349 . S
C1333 H1325 0.950 1_655 S
C1333 C1331 1.327 1_655 S
C1334 C1322 1.349 . S
C1334 H1328 0.950 . S
C1334 C1335 1.327 . S
C1335 H1329 0.950 1_455 S
C1335 C1334 1.327 . S
C1335 C1339 1.429 . S
C1336 C1319 1.574 . S
C1336 H1330 0.949 . S
C1336 C1340 1.368 . S
C1337 C1318 1.429 . S
C1337 C1331 1.429 1_655 S
C1337 C1338 1.541 . S
C1338 C1319 1.320 1_655 S
C1338 C1332 1.407 . S
C1338 C1337 1.541 . S
C1339 C1323 1.429 . S
C1339 C1335 1.429 . S
C1339 C1340 1.523 . S
C1340 C1324 1.368 1_455 S
C1340 C1336 1.368 . S
C1340 C1339 1.523 . S
H1341 C1316 0.950 . S
H1342 C1318 0.950 . S
H1343 C1319 0.949 . S
H1344 C1321 0.950 . S
H1345 C1323 0.950 . S
C1346 C1347 1.349 . S
C1346 C1348 1.327 . S
C1346 H1371 0.950 . S
C1347 C1346 1.349 . S
C1347 C1363 1.349 . S
C1348 C1346 1.327 . S
C1348 C1367 1.429 . S
C1348 H1372 0.950 . S
C1349 C1366 1.574 . S
C1349 C1368 1.368 . S
C1349 H1373 0.949 . S
H1350 C1354 0.949 . S
C1351 C1352 1.349 . S
C1351 C1353 1.327 . S
C1351 H1374 0.950 . S
C1352 C1351 1.349 . S
C1352 C1364 1.349 . S
C1353 C1351 1.327 . S
C1353 C1369 1.429 . S
C1353 H1375 0.950 . S
C1354 H1350 0.949 . S
C1354 C1362 1.574 . S
C1354 C1370 1.368 . S
H1355 C1363 0.950 . S
H1356 C1361 0.950 . S
H1357 C1362 0.949 . S
H1358 C1364 0.950 . S
H1359 C1365 0.950 . S
H1360 C1366 0.949 . S
C1361 H1356 0.950 . S
C1361 C1363 1.327 . S
C1361 C1367 1.429 . S
C1362 C1354 1.574 . S
C1362 H1357 0.949 . S
C1362 C1368 1.368 . S
C1363 C1347 1.349 . S
C1363 H1355 0.950 . S
C1363 C1361 1.327 . S
C1364 C1352 1.349 . S
C1364 H1358 0.950 . S
C1364 C1365 1.327 . S
C1365 H1359 0.950 . S
C1365 C1364 1.327 . S
C1365 C1369 1.429 . S
C1366 C1349 1.574 . S
C1366 H1360 0.949 . S
C1366 C1370 1.368 . S
C1367 C1348 1.429 . S
C1367 C1361 1.429 . S
C1367 C1368 1.523 . S
C1368 C1349 1.368 . S
C1368 C1362 1.368 . S
C1368 C1367 1.523 . S
C1369 C1353 1.429 . S
C1369 C1365 1.429 . S
C1369 C1370 1.523 1_556 S
C1370 C1354 1.368 . S
C1370 C1366 1.368 . S
C1370 C1369 1.523 1_554 S
H1371 C1346 0.950 . S
H1372 C1348 0.950 . S
H1373 C1349 0.949 . S
H1374 C1351 0.950 . S
H1375 C1353 0.950 . S
C1376 C1377 1.349 . S
C1376 C1378 1.327 . S
C1376 H1401 0.950 . S
C1377 C1376 1.349 . S
C1377 C1393 1.349 1_655 S
C1378 C1376 1.327 . S
C1378 C1397 1.429 . S
C1378 H1402 0.950 . S
C1379 C1396 1.574 1_545 S
C1379 C1398 1.343 1_456 S
C1379 H1403 0.949 . S
H1380 C1384 0.949 . S
C1381 C1382 1.349 . S
C1381 C1383 1.327 . S
C1381 H1404 0.950 . S
C1382 C1381 1.349 . S
C1382 C1394 1.349 1_455 S
C1383 C1381 1.327 . S
C1383 C1399 1.429 . S
C1383 H1405 0.950 . S
C1384 H1380 0.949 . S
C1384 C1392 1.574 1_565 S
C1384 C1400 1.343 1_654 S
H1385 C1393 0.950 1_556 S
H1386 C1391 0.937 1_556 S
H1387 C1392 0.949 . S
H1388 C1394 0.950 1_554 S
H1389 C1395 0.937 1_554 S
H1390 C1396 0.949 . S
C1391 H1386 0.937 1_554 S
C1391 C1393 1.332 . S
C1391 C1397 1.437 1_455 S
C1392 C1384 1.574 1_545 S
C1392 H1387 0.949 . S
C1392 C1398 1.393 . S
C1393 C1377 1.349 1_455 S
C1393 H1385 0.950 1_554 S
C1393 C1391 1.332 . S
C1394 C1382 1.349 1_655 S
C1394 H1388 0.950 1_556 S
C1394 C1395 1.332 . S
C1395 H1389 0.937 1_556 S
C1395 C1394 1.332 . S
C1395 C1399 1.437 1_655 S
C1396 C1379 1.574 1_565 S
C1396 H1390 0.949 . S
C1396 C1400 1.393 . S
C1397 C1378 1.429 . S
C1397 C1391 1.437 1_655 S
C1397 C1398 1.526 . S
C1398 C1379 1.343 1_654 S
C1398 C1392 1.393 . S
C1398 C1397 1.526 . S
C1399 C1383 1.429 . S
C1399 C1395 1.437 1_455 S
C1399 C1400 1.526 . S
C1400 C1384 1.343 1_456 S
C1400 C1396 1.393 . S
C1400 C1399 1.526 . S
H1401 C1376 0.950 . S
H1402 C1378 0.950 . S
H1403 C1379 0.949 . S
H1404 C1381 0.950 . S
H1405 C1383 0.950 . S
C1406 C1407 1.349 . S
C1406 C1408 1.327 . S
C1406 H1431 0.950 . S
C1407 C1406 1.349 . S
C1407 C1423 1.349 . S
C1408 C1406 1.327 . S
C1408 C1427 1.429 . S
C1408 H1432 0.950 . S
C1409 C1426 1.574 . S
C1409 C1428 1.368 . S
C1409 H1433 0.949 . S
H1410 C1414 0.949 . S
C1411 C1412 1.349 . S
C1411 C1413 1.327 . S
C1411 H1434 0.950 . S
C1412 C1411 1.349 . S
C1412 C1424 1.349 . S
C1413 C1411 1.327 . S
C1413 C1429 1.429 . S
C1413 H1435 0.950 . S
C1414 H1410 0.949 . S
C1414 C1422 1.574 . S
C1414 C1430 1.368 . S
H1415 C1423 0.950 . S
H1416 C1421 0.950 . S
H1417 C1422 0.949 . S
H1418 C1424 0.950 . S
H1419 C1425 0.950 . S
H1420 C1426 0.949 . S
C1421 H1416 0.950 . S
C1421 C1423 1.327 . S
C1421 C1427 1.429 . S
C1422 C1414 1.574 . S
C1422 H1417 0.949 . S
C1422 C1428 1.368 . S
C1423 C1407 1.349 . S
C1423 H1415 0.950 . S
C1423 C1421 1.327 . S
C1424 C1412 1.349 . S
C1424 H1418 0.950 . S
C1424 C1425 1.327 . S
C1425 H1419 0.950 . S
C1425 C1424 1.327 . S
C1425 C1429 1.429 . S
C1426 C1409 1.574 . S
C1426 H1420 0.949 . S
C1426 C1430 1.368 . S
C1427 C1408 1.429 . S
C1427 C1421 1.429 . S
C1427 C1428 1.523 . S
C1428 C1409 1.368 . S
C1428 C1422 1.368 . S
C1428 C1427 1.523 . S
C1429 C1413 1.429 . S
C1429 C1425 1.429 . S
C1429 C1430 1.523 . S
C1430 C1414 1.368 . S
C1430 C1426 1.368 . S
C1430 C1429 1.523 . S
H1431 C1406 0.950 . S
H1432 C1408 0.950 . S
H1433 C1409 0.949 . S
H1434 C1411 0.950 . S
H1435 C1413 0.950 . S
C1436 C1437 1.349 . S
C1436 C1438 1.327 . S
C1436 H1461 0.950 . S
C1437 C1436 1.349 . S
C1437 C1453 1.349 . S
C1438 C1436 1.327 . S
C1438 C1457 1.429 . S
C1438 H1462 0.950 . S
C1439 C1456 1.574 1_545 S
C1439 C1458 1.368 . S
C1439 H1463 0.949 . S
H1440 C1444 0.949 . S
C1441 C1442 1.349 . S
C1441 C1443 1.327 . S
C1441 H1464 0.950 . S
C1442 C1441 1.349 . S
C1442 C1454 1.349 . S
C1443 C1441 1.327 . S
C1443 C1459 1.429 . S
C1443 H1465 0.950 . S
C1444 H1440 0.949 . S
C1444 C1452 1.574 1_565 S
C1444 C1460 1.368 . S
H1445 C1453 0.950 . S
H1446 C1451 0.950 . S
H1447 C1452 0.949 . S
H1448 C1454 0.950 . S
H1449 C1455 0.950 . S
H1450 C1456 0.949 . S
C1451 H1446 0.950 . S
C1451 C1453 1.327 . S
C1451 C1457 1.429 . S
C1452 C1444 1.574 1_545 S
C1452 H1447 0.949 . S
C1452 C1458 1.368 . S
C1453 C1437 1.349 . S
C1453 H1445 0.950 . S
C1453 C1451 1.327 . S
C1454 C1442 1.349 . S
C1454 H1448 0.950 . S
C1454 C1455 1.327 . S
C1455 H1449 0.950 . S
C1455 C1454 1.327 . S
C1455 C1459 1.429 . S
C1456 C1439 1.574 1_565 S
C1456 H1450 0.949 . S
C1456 C1460 1.368 . S
C1457 C1438 1.429 . S
C1457 C1451 1.429 . S
C1457 C1458 1.523 . S
C1458 C1439 1.368 . S
C1458 C1452 1.368 . S
C1458 C1457 1.523 . S
C1459 C1443 1.429 . S
C1459 C1455 1.429 . S
C1459 C1460 1.523 . S
C1460 C1444 1.368 . S
C1460 C1456 1.368 . S
C1460 C1459 1.523 . S
H1461 C1436 0.950 . S
H1462 C1438 0.950 . S
H1463 C1439 0.949 . S
H1464 C1441 0.950 . S
H1465 C1443 0.950 . S
C1466 C1467 1.349 . S
C1466 C1468 1.327 . S
C1466 H1491 0.950 . S
C1467 C1466 1.349 . S
C1467 C1483 1.349 . S
C1468 C1466 1.327 . S
C1468 C1487 1.429 . S
C1468 H1492 0.950 . S
C1469 C1486 1.574 . S
C1469 C1488 1.368 . S
C1469 H1493 0.949 . S
H1470 C1474 0.949 . S
C1471 C1472 1.349 . S
C1471 C1473 1.327 . S
C1471 H1494 0.950 . S
C1472 C1471 1.349 . S
C1472 C1484 1.349 . S
C1473 C1471 1.327 . S
C1473 C1489 1.429 . S
C1473 H1495 0.950 . S
C1474 H1470 0.949 . S
C1474 C1482 1.574 . S
C1474 C1490 1.368 . S
H1475 C1483 0.950 . S
H1476 C1481 0.950 . S
H1477 C1482 0.949 . S
H1478 C1484 0.950 . S
H1479 C1485 0.950 . S
H1480 C1486 0.949 . S
C1481 H1476 0.950 . S
C1481 C1483 1.327 . S
C1481 C1487 1.429 . S
C1482 C1474 1.574 . S
C1482 H1477 0.949 . S
C1482 C1488 1.368 . S
C1483 C1467 1.349 . S
C1483 H1475 0.950 . S
C1483 C1481 1.327 . S
C1484 C1472 1.349 . S
C1484 H1478 0.950 . S
C1484 C1485 1.327 . S
C1485 H1479 0.950 . S
C1485 C1484 1.327 . S
C1485 C1489 1.429 . S
C1486 C1469 1.574 . S
C1486 H1480 0.949 . S
C1486 C1490 1.368 . S
C1487 C1468 1.429 . S
C1487 C1481 1.429 . S
C1487 C1488 1.523 . S
C1488 C1469 1.368 . S
C1488 C1482 1.368 . S
C1488 C1487 1.523 . S
C1489 C1473 1.429 . S
C1489 C1485 1.429 . S
C1489 C1490 1.523 . S
C1490 C1474 1.368 . S
C1490 C1486 1.368 . S
C1490 C1489 1.523 . S
H1491 C1466 0.950 . S
H1492 C1468 0.950 . S
H1493 C1469 0.949 . S
H1494 C1471 0.950 . S
H1495 C1473 0.950 . S
C1496 C1497 1.349 1_455 S
C1496 C1498 1.327 . S
C1496 H1521 0.950 . S
C1497 C1496 1.349 1_655 S
C1497 C1513 1.349 . S
C1498 C1496 1.327 . S
C1498 C1517 1.429 1_455 S
C1498 H1522 0.950 . S
C1499 C1516 1.574 1_565 S
C1499 C1518 1.385 . S
C1499 H1523 0.949 . S
H1500 C1504 0.949 . S
C1501 C1502 1.349 1_655 S
C1501 C1503 1.327 . S
C1501 H1524 0.950 . S
C1502 C1501 1.349 1_455 S
C1502 C1514 1.349 . S
C1503 C1501 1.327 . S
C1503 C1519 1.429 1_655 S
C1503 H1525 0.950 . S
C1504 H1500 0.949 . S
C1504 C1512 1.574 1_545 S
C1504 C1520 1.385 . S
H1505 C1513 0.950 . S
H1506 C1511 0.950 . S
H1507 C1512 0.949 . S
H1508 C1514 0.950 . S
H1509 C1515 0.950 . S
H1510 C1516 0.949 . S
C1511 H1506 0.950 . S
C1511 C1513 1.327 . S
C1511 C1517 1.429 . S
C1512 C1504 1.574 1_565 S
C1512 H1507 0.949 . S
C1512 C1518 1.351 1_455 S
C1513 C1497 1.349 . S
C1513 H1505 0.950 . S
C1513 C1511 1.327 . S
C1514 C1502 1.349 . S
C1514 H1508 0.950 . S
C1514 C1515 1.327 . S
C1515 H1509 0.950 . S
C1515 C1514 1.327 . S
C1515 C1519 1.429 . S
C1516 C1499 1.574 1_545 S
C1516 H1510 0.949 . S
C1516 C1520 1.351 1_655 S
C1517 C1498 1.429 1_655 S
C1517 C1511 1.429 . S
C1517 C1518 1.526 . S
C1518 C1499 1.385 . S
C1518 C1512 1.351 1_655 S
C1518 C1517 1.526 . S
C1519 C1503 1.429 1_455 S
C1519 C1515 1.429 . S
C1519 C1520 1.526 . S
C1520 C1504 1.385 . S
C1520 C1516 1.351 1_455 S
C1520 C1519 1.526 . S
H1521 C1496 0.950 . S
H1522 C1498 0.950 . S
H1523 C1499 0.949 . S
H1524 C1501 0.950 . S
H1525 C1503 0.950 . S
C1526 C1527 1.349 . S
C1526 C1528 1.327 . S
C1526 H1551 0.950 . S
C1527 C1526 1.349 . S
C1527 C1543 1.349 . S
C1528 C1526 1.327 . S
C1528 C1547 1.429 . S
C1528 H1552 0.950 . S
C1529 C1546 1.574 . S
C1529 C1548 1.368 . S
C1529 H1553 0.949 . S
H1530 C1534 0.949 . S
C1531 C1532 1.349 . S
C1531 C1533 1.327 . S
C1531 H1554 0.950 . S
C1532 C1531 1.349 . S
C1532 C1544 1.349 . S
C1533 C1531 1.327 . S
C1533 C1549 1.429 . S
C1533 H1555 0.950 . S
C1534 H1530 0.949 . S
C1534 C1542 1.574 . S
C1534 C1550 1.368 . S
H1535 C1543 0.950 . S
H1536 C1541 0.950 . S
H1537 C1542 0.949 . S
H1538 C1544 0.950 . S
H1539 C1545 0.950 . S
H1540 C1546 0.949 . S
C1541 H1536 0.950 . S
C1541 C1543 1.327 . S
C1541 C1547 1.429 . S
C1542 C1534 1.574 . S
C1542 H1537 0.949 . S
C1542 C1548 1.368 . S
C1543 C1527 1.349 . S
C1543 H1535 0.950 . S
C1543 C1541 1.327 . S
C1544 C1532 1.349 . S
C1544 H1538 0.950 . S
C1544 C1545 1.327 . S
C1545 H1539 0.950 . S
C1545 C1544 1.327 . S
C1545 C1549 1.429 . S
C1546 C1529 1.574 . S
C1546 H1540 0.949 . S
C1546 C1550 1.368 . S
C1547 C1528 1.429 . S
C1547 C1541 1.429 . S
C1547 C1548 1.523 . S
C1548 C1529 1.368 . S
C1548 C1542 1.368 . S
C1548 C1547 1.523 . S
C1549 C1533 1.429 . S
C1549 C1545 1.429 . S
C1549 C1550 1.523 . S
C1550 C1534 1.368 . S
C1550 C1546 1.368 . S
C1550 C1549 1.523 . S
H1551 C1526 0.950 . S
H1552 C1528 0.950 . S
H1553 C1529 0.949 . S
H1554 C1531 0.950 . S
H1555 C1533 0.950 . S
C1556 C1557 1.349 . S
C1556 C1558 1.327 . S
C1556 H1581 0.950 . S
C1557 C1556 1.349 . S
C1557 C1573 1.349 . S
C1558 C1556 1.327 . S
C1558 C1577 1.429 . S
C1558 H1582 0.950 . S
C1559 C1576 1.574 1_565 S
C1559 C1578 1.368 1_556 S
C1559 H1583 0.949 . S
H1560 C1564 0.949 . S
C1561 C1562 1.349 . S
C1561 C1563 1.327 . S
C1561 H1584 0.950 . S
C1562 C1561 1.349 . S
C1562 C1574 1.349 . S
C1563 C1561 1.327 . S
C1563 C1579 1.429 . S
C1563 H1585 0.950 . S
C1564 H1560 0.949 . S
C1564 C1572 1.574 1_545 S
C1564 C1580 1.368 1_554 S
H1565 C1573 0.950 . S
H1566 C1571 0.950 1_556 S
H1567 C1572 0.949 . S
H1568 C1574 0.950 . S
H1569 C1575 0.950 1_554 S
H1570 C1576 0.949 . S
C1571 H1566 0.950 1_554 S
C1571 C1573 1.327 . S
C1571 C1577 1.429 . S
C1572 C1564 1.574 1_565 S
C1572 H1567 0.949 . S
C1572 C1578 1.368 . S
C1573 C1557 1.349 . S
C1573 H1565 0.950 . S
C1573 C1571 1.327 . S
C1574 C1562 1.349 . S
C1574 H1568 0.950 . S
C1574 C1575 1.327 . S
C1575 H1569 0.950 1_556 S
C1575 C1574 1.327 . S
C1575 C1579 1.429 . S
C1576 C1559 1.574 1_545 S
C1576 H1570 0.949 . S
C1576 C1580 1.368 . S
C1577 C1558 1.429 . S
C1577 C1571 1.429 . S
C1577 C1578 1.523 . S
C1578 C1559 1.368 1_554 S
C1578 C1572 1.368 . S
C1578 C1577 1.523 . S
C1579 C1563 1.429 . S
C1579 C1575 1.429 . S
C1579 C1580 1.523 . S
C1580 C1564 1.368 1_556 S
C1580 C1576 1.368 . S
C1580 C1579 1.523 . S
H1581 C1556 0.950 . S
H1582 C1558 0.950 . S
H1583 C1559 0.949 . S
H1584 C1561 0.950 . S
H1585 C1563 0.950 . S
C1586 C1587 1.349 . S
C1586 C1588 1.327 . S
C1586 H1611 0.950 . S
C1587 C1586 1.349 . S
C1587 C1603 1.349 . S
C1588 C1586 1.327 . S
C1588 C1607 1.429 . S
C1588 H1612 0.950 . S
C1589 C1606 1.574 . S
C1589 C1608 1.368 . S
C1589 H1613 0.949 . S
H1590 C1594 0.949 . S
C1591 C1592 1.349 . S
C1591 C1593 1.327 . S
C1591 H1614 0.950 . S
C1592 C1591 1.349 . S
C1592 C1604 1.349 . S
C1593 C1591 1.327 . S
C1593 C1609 1.429 . S
C1593 H1615 0.950 . S
C1594 H1590 0.949 . S
C1594 C1602 1.574 . S
C1594 C1610 1.368 . S
H1595 C1603 0.950 . S
H1596 C1601 0.950 . S
H1597 C1602 0.949 . S
H1598 C1604 0.950 . S
H1599 C1605 0.950 . S
H1600 C1606 0.949 . S
C1601 H1596 0.950 . S
C1601 C1603 1.327 . S
C1601 C1607 1.429 . S
C1602 C1594 1.574 . S
C1602 H1597 0.949 . S
C1602 C1608 1.368 . S
C1603 C1587 1.349 . S
C1603 H1595 0.950 . S
C1603 C1601 1.327 . S
C1604 C1592 1.349 . S
C1604 H1598 0.950 . S
C1604 C1605 1.327 . S
C1605 H1599 0.950 . S
C1605 C1604 1.327 . S
C1605 C1609 1.429 . S
C1606 C1589 1.574 . S
C1606 H1600 0.949 . S
C1606 C1610 1.368 . S
C1607 C1588 1.429 . S
C1607 C1601 1.429 . S
C1607 C1608 1.523 . S
C1608 C1589 1.368 . S
C1608 C1602 1.368 . S
C1608 C1607 1.523 . S
C1609 C1593 1.429 . S
C1609 C1605 1.429 . S
C1609 C1610 1.523 . S
C1610 C1594 1.368 . S
C1610 C1606 1.368 . S
C1610 C1609 1.523 . S
H1611 C1586 0.950 . S
H1612 C1588 0.950 . S
H1613 C1589 0.949 . S
H1614 C1591 0.950 . S
H1615 C1593 0.950 . S
C1616 C1617 1.349 . S
C1616 C1618 1.327 . S
C1616 H1641 0.950 . S
C1617 C1616 1.349 . S
C1617 C1633 1.349 . S
C1618 C1616 1.327 . S
C1618 C1637 1.429 . S
C1618 H1642 0.950 . S
C1619 C1636 1.574 . S
C1619 C1638 1.368 . S
C1619 H1643 0.949 . S
H1620 C1624 0.949 . S
C1621 C1622 1.349 . S
C1621 C1623 1.327 . S
C1621 H1644 0.950 . S
C1622 C1621 1.349 . S
C1622 C1634 1.349 . S
C1623 C1621 1.327 . S
C1623 C1639 1.429 . S
C1623 H1645 0.950 . S
C1624 H1620 0.949 . S
C1624 C1632 1.574 . S
C1624 C1640 1.368 . S
H1625 C1633 0.950 . S
H1626 C1631 0.950 . S
H1627 C1632 0.949 . S
H1628 C1634 0.950 . S
H1629 C1635 0.950 . S
H1630 C1636 0.949 . S
C1631 H1626 0.950 . S
C1631 C1633 1.327 . S
C1631 C1637 1.429 . S
C1632 C1624 1.574 . S
C1632 H1627 0.949 . S
C1632 C1638 1.368 . S
C1633 C1617 1.349 . S
C1633 H1625 0.950 . S
C1633 C1631 1.327 . S
C1634 C1622 1.349 . S
C1634 H1628 0.950 . S
C1634 C1635 1.327 . S
C1635 H1629 0.950 . S
C1635 C1634 1.327 . S
C1635 C1639 1.429 . S
C1636 C1619 1.574 . S
C1636 H1630 0.949 . S
C1636 C1640 1.368 . S
C1637 C1618 1.429 . S
C1637 C1631 1.429 . S
C1637 C1638 1.523 . S
C1638 C1619 1.368 . S
C1638 C1632 1.368 . S
C1638 C1637 1.523 . S
C1639 C1623 1.429 . S
C1639 C1635 1.429 . S
C1639 C1640 1.523 . S
C1640 C1624 1.368 . S
C1640 C1636 1.368 . S
C1640 C1639 1.523 . S
H1641 C1616 0.950 . S
H1642 C1618 0.950 . S
H1643 C1619 0.949 . S
H1644 C1621 0.950 . S
H1645 C1623 0.950 . S
C1646 C1647 1.349 . S
C1646 C1648 1.327 . S
C1646 H1671 0.950 . S
C1647 C1646 1.349 . S
C1647 C1663 1.349 . S
C1648 C1646 1.327 . S
C1648 C1667 1.429 . S
C1648 H1672 0.950 . S
C1649 C1666 1.574 . S
C1649 C1668 1.368 . S
C1649 H1673 0.949 . S
H1650 C1654 0.949 . S
C1651 C1652 1.349 . S
C1651 C1653 1.327 . S
C1651 H1674 0.950 . S
C1652 C1651 1.349 . S
C1652 C1664 1.349 . S
C1653 C1651 1.327 . S
C1653 C1669 1.429 . S
C1653 H1675 0.950 . S
C1654 H1650 0.949 . S
C1654 C1662 1.574 . S
C1654 C1670 1.368 . S
H1655 C1663 0.950 . S
H1656 C1661 0.950 . S
H1657 C1662 0.949 . S
H1658 C1664 0.950 . S
H1659 C1665 0.950 . S
H1660 C1666 0.949 . S
C1661 H1656 0.950 . S
C1661 C1663 1.327 . S
C1661 C1667 1.429 . S
C1662 C1654 1.574 . S
C1662 H1657 0.949 . S
C1662 C1668 1.368 . S
C1663 C1647 1.349 . S
C1663 H1655 0.950 . S
C1663 C1661 1.327 . S
C1664 C1652 1.349 . S
C1664 H1658 0.950 . S
C1664 C1665 1.327 . S
C1665 H1659 0.950 . S
C1665 C1664 1.327 . S
C1665 C1669 1.429 . S
C1666 C1649 1.574 . S
C1666 H1660 0.949 . S
C1666 C1670 1.368 . S
C1667 C1648 1.429 . S
C1667 C1661 1.429 . S
C1667 C1668 1.523 . S
C1668 C1649 1.368 . S
C1668 C1662 1.368 . S
C1668 C1667 1.523 . S
C1669 C1653 1.429 . S
C1669 C1665 1.429 . S
C1669 C1670 1.523 . S
C1670 C1654 1.368 . S
C1670 C1666 1.368 . S
C1670 C1669 1.523 . S
H1671 C1646 0.950 . S
H1672 C1648 0.950 . S
H1673 C1649 0.949 . S
H1674 C1651 0.950 . S
H1675 C1653 0.950 . S
C1676 C1677 1.349 . S
C1676 C1678 1.327 . S
C1676 H1701 0.950 . S
C1677 C1676 1.349 . S
C1677 C1693 1.349 . S
C1678 C1676 1.327 . S
C1678 C1697 1.429 . S
C1678 H1702 0.950 . S
C1679 C1696 1.574 . S
C1679 C1698 1.368 . S
C1679 H1703 0.949 . S
H1680 C1684 0.949 . S
C1681 C1682 1.349 . S
C1681 C1683 1.327 . S
C1681 H1704 0.950 . S
C1682 C1681 1.349 . S
C1682 C1694 1.349 . S
C1683 C1681 1.327 . S
C1683 C1699 1.429 . S
C1683 H1705 0.950 . S
C1684 H1680 0.949 . S
C1684 C1692 1.574 . S
C1684 C1700 1.368 . S
H1685 C1693 0.950 . S
H1686 C1691 0.950 . S
H1687 C1692 0.949 . S
H1688 C1694 0.950 . S
H1689 C1695 0.950 . S
H1690 C1696 0.949 . S
C1691 H1686 0.950 . S
C1691 C1693 1.327 . S
C1691 C1697 1.429 . S
C1692 C1684 1.574 . S
C1692 H1687 0.949 . S
C1692 C1698 1.368 . S
C1693 C1677 1.349 . S
C1693 H1685 0.950 . S
C1693 C1691 1.327 . S
C1694 C1682 1.349 . S
C1694 H1688 0.950 . S
C1694 C1695 1.327 . S
C1695 H1689 0.950 . S
C1695 C1694 1.327 . S
C1695 C1699 1.429 . S
C1696 C1679 1.574 . S
C1696 H1690 0.949 . S
C1696 C1700 1.368 . S
C1697 C1678 1.429 . S
C1697 C1691 1.429 . S
C1697 C1698 1.523 . S
C1698 C1679 1.368 . S
C1698 C1692 1.368 . S
C1698 C1697 1.523 . S
C1699 C1683 1.429 . S
C1699 C1695 1.429 . S
C1699 C1700 1.523 . S
C1700 C1684 1.368 . S
C1700 C1696 1.368 . S
C1700 C1699 1.523 . S
H1701 C1676 0.950 . S
H1702 C1678 0.950 . S
H1703 C1679 0.949 . S
H1704 C1681 0.950 . S
H1705 C1683 0.950 . S
C1706 C1707 1.349 . S
C1706 C1708 1.327 . S
C1706 H1731 0.950 . S
C1707 C1706 1.349 . S
C1707 C1723 1.349 . S
C1708 C1706 1.327 . S
C1708 C1727 1.429 . S
C1708 H1732 0.950 . S
C1709 C1726 1.574 . S
C1709 C1728 1.368 . S
C1709 H1733 0.949 . S
H1710 C1714 0.949 . S
C1711 C1712 1.349 . S
C1711 C1713 1.327 . S
C1711 H1734 0.950 . S
C1712 C1711 1.349 . S
C1712 C1724 1.349 . S
C1713 C1711 1.327 . S
C1713 C1729 1.429 . S
C1713 H1735 0.950 . S
C1714 H1710 0.949 . S
C1714 C1722 1.574 . S
C1714 C1730 1.368 . S
H1715 C1723 0.950 . S
H1716 C1721 0.950 . S
H1717 C1722 0.949 . S
H1718 C1724 0.950 . S
H1719 C1725 0.950 . S
H1720 C1726 0.949 . S
C1721 H1716 0.950 . S
C1721 C1723 1.327 . S
C1721 C1727 1.429 . S
C1722 C1714 1.574 . S
C1722 H1717 0.949 . S
C1722 C1728 1.368 . S
C1723 C1707 1.349 . S
C1723 H1715 0.950 . S
C1723 C1721 1.327 . S
C1724 C1712 1.349 . S
C1724 H1718 0.950 . S
C1724 C1725 1.327 . S
C1725 H1719 0.950 . S
C1725 C1724 1.327 . S
C1725 C1729 1.429 . S
C1726 C1709 1.574 . S
C1726 H1720 0.949 . S
C1726 C1730 1.368 . S
C1727 C1708 1.429 . S
C1727 C1721 1.429 . S
C1727 C1728 1.523 . S
C1728 C1709 1.368 . S
C1728 C1722 1.368 . S
C1728 C1727 1.523 . S
C1729 C1713 1.429 . S
C1729 C1725 1.429 . S
C1729 C1730 1.523 . S
C1730 C1714 1.368 . S
C1730 C1726 1.368 . S
C1730 C1729 1.523 . S
H1731 C1706 0.950 . S
H1732 C1708 0.950 . S
H1733 C1709 0.949 . S
H1734 C1711 0.950 . S
H1735 C1713 0.950 . S
C1736 C1737 1.349 . S
C1736 C1738 1.327 . S
C1736 H1761 0.950 . S
C1737 C1736 1.349 . S
C1737 C1753 1.349 . S
C1738 C1736 1.327 . S
C1738 C1757 1.429 . S
C1738 H1762 0.950 . S
C1739 C1756 1.574 . S
C1739 C1758 1.368 . S
C1739 H1763 0.949 . S
H1740 C1744 0.949 . S
C1741 C1742 1.349 . S
C1741 C1743 1.327 . S
C1741 H1764 0.950 . S
C1742 C1741 1.349 . S
C1742 C1754 1.349 . S
C1743 C1741 1.327 . S
C1743 C1759 1.429 . S
C1743 H1765 0.950 . S
C1744 H1740 0.949 . S
C1744 C1752 1.574 . S
C1744 C1760 1.368 . S
H1745 C1753 0.950 . S
H1746 C1751 0.950 . S
H1747 C1752 0.949 . S
H1748 C1754 0.950 . S
H1749 C1755 0.950 . S
H1750 C1756 0.949 . S
C1751 H1746 0.950 . S
C1751 C1753 1.327 . S
C1751 C1757 1.429 . S
C1752 C1744 1.574 . S
C1752 H1747 0.949 . S
C1752 C1758 1.368 . S
C1753 C1737 1.349 . S
C1753 H1745 0.950 . S
C1753 C1751 1.327 . S
C1754 C1742 1.349 . S
C1754 H1748 0.950 . S
C1754 C1755 1.327 . S
C1755 H1749 0.950 . S
C1755 C1754 1.327 . S
C1755 C1759 1.429 . S
C1756 C1739 1.574 . S
C1756 H1750 0.949 . S
C1756 C1760 1.368 . S
C1757 C1738 1.429 . S
C1757 C1751 1.429 . S
C1757 C1758 1.523 . S
C1758 C1739 1.368 . S
C1758 C1752 1.368 . S
C1758 C1757 1.523 . S
C1759 C1743 1.429 . S
C1759 C1755 1.429 . S
C1759 C1760 1.523 . S
C1760 C1744 1.368 . S
C1760 C1756 1.368 . S
C1760 C1759 1.523 . S
H1761 C1736 0.950 . S
H1762 C1738 0.950 . S
H1763 C1739 0.949 . S
H1764 C1741 0.950 . S
H1765 C1743 0.950 . S
C1766 C1767 1.349 . S
C1766 C1768 1.327 . S
C1766 H1791 0.950 . S
C1767 C1766 1.349 . S
C1767 C1783 1.349 1_455 S
C1768 C1766 1.327 . S
C1768 C1787 1.429 . S
C1768 H1792 0.950 . S
C1769 C1786 1.574 . S
C1769 C1788 1.343 1_656 S
C1769 H1793 0.949 . S
H1770 C1774 0.949 . S
C1771 C1772 1.349 . S
C1771 C1773 1.327 . S
C1771 H1794 0.950 . S
C1772 C1771 1.349 . S
C1772 C1784 1.349 1_655 S
C1773 C1771 1.327 . S
C1773 C1789 1.429 . S
C1773 H1795 0.950 . S
C1774 H1770 0.949 . S
C1774 C1782 1.574 . S
C1774 C1790 1.343 1_454 S
H1775 C1783 0.950 1_556 S
H1776 C1781 0.936 1_556 S
H1777 C1782 0.949 . S
H1778 C1784 0.950 1_554 S
H1779 C1785 0.936 1_554 S
H1780 C1786 0.949 . S
C1781 H1776 0.936 1_554 S
C1781 C1783 1.332 . S
C1781 C1787 1.437 1_655 S
C1782 C1774 1.574 . S
C1782 H1777 0.949 . S
C1782 C1788 1.393 . S
C1783 C1767 1.349 1_655 S
C1783 H1775 0.950 1_554 S
C1783 C1781 1.332 . S
C1784 C1772 1.349 1_455 S
C1784 H1778 0.950 1_556 S
C1784 C1785 1.332 . S
C1785 H1779 0.936 1_556 S
C1785 C1784 1.332 . S
C1785 C1789 1.437 1_455 S
C1786 C1769 1.574 . S
C1786 H1780 0.949 . S
C1786 C1790 1.393 . S
C1787 C1768 1.429 . S
C1787 C1781 1.437 1_455 S
C1787 C1788 1.526 . S
C1788 C1769 1.343 1_454 S
C1788 C1782 1.393 . S
C1788 C1787 1.526 . S
C1789 C1773 1.429 . S
C1789 C1785 1.437 1_655 S
C1789 C1790 1.526 . S
C1790 C1774 1.343 1_656 S
C1790 C1786 1.393 . S
C1790 C1789 1.526 . S
H1791 C1766 0.950 . S
H1792 C1768 0.950 . S
H1793 C1769 0.949 . S
H1794 C1771 0.950 . S
H1795 C1773 0.950 . S
C1796 C1797 1.349 . S
C1796 C1798 1.327 . S
C1796 H1821 0.950 . S
C1797 C1796 1.349 . S
C1797 C1813 1.349 . S
C1798 C1796 1.327 . S
C1798 C1817 1.429 . S
C1798 H1822 0.950 . S
C1799 C1816 1.574 . S
C1799 C1818 1.368 1_554 S
C1799 H1823 0.949 . S
H1800 C1804 0.949 . S
C1801 C1802 1.349 . S
C1801 C1803 1.327 . S
C1801 H1824 0.950 . S
C1802 C1801 1.349 . S
C1802 C1814 1.349 . S
C1803 C1801 1.327 . S
C1803 C1819 1.429 . S
C1803 H1825 0.950 . S
C1804 H1800 0.949 . S
C1804 C1812 1.574 . S
C1804 C1820 1.368 1_556 S
H1805 C1813 0.950 1_554 S
H1806 C1811 0.950 . S
H1807 C1812 0.949 . S
H1808 C1814 0.950 1_556 S
H1809 C1815 0.950 . S
H1810 C1816 0.949 . S
C1811 H1806 0.950 . S
C1811 C1813 1.327 1_554 S
C1811 C1817 1.429 1_554 S
C1812 C1804 1.574 . S
C1812 H1807 0.949 . S
C1812 C1818 1.368 . S
C1813 C1797 1.349 . S
C1813 H1805 0.950 1_556 S
C1813 C1811 1.327 1_556 S
C1814 C1802 1.349 . S
C1814 H1808 0.950 1_554 S
C1814 C1815 1.327 1_554 S
C1815 H1809 0.950 . S
C1815 C1814 1.327 1_556 S
C1815 C1819 1.429 1_556 S
C1816 C1799 1.574 . S
C1816 H1810 0.949 . S
C1816 C1820 1.368 . S
C1817 C1798 1.429 . S
C1817 C1811 1.429 1_556 S
C1817 C1818 1.523 . S
C1818 C1799 1.368 1_556 S
C1818 C1812 1.368 . S
C1818 C1817 1.523 . S
C1819 C1803 1.429 . S
C1819 C1815 1.429 1_554 S
C1819 C1820 1.523 . S
C1820 C1804 1.368 1_554 S
C1820 C1816 1.368 . S
C1820 C1819 1.523 . S
H1821 C1796 0.950 . S
H1822 C1798 0.950 . S
H1823 C1799 0.949 . S
H1824 C1801 0.950 . S
H1825 C1803 0.950 . S
C1826 C1827 1.349 . S
C1826 C1828 1.327 . S
C1826 H1851 0.950 . S
C1827 C1826 1.349 . S
C1827 C1843 1.349 1_655 S
C1828 C1826 1.327 . S
C1828 C1847 1.429 . S
C1828 H1852 0.950 . S
C1829 C1846 1.574 . S
C1829 C1848 1.334 1_455 S
C1829 H1853 0.949 . S
H1830 C1834 0.949 . S
C1831 C1832 1.349 . S
C1831 C1833 1.327 . S
C1831 H1854 0.950 . S
C1832 C1831 1.349 . S
C1832 C1844 1.349 1_455 S
C1833 C1831 1.327 . S
C1833 C1849 1.429 . S
C1833 H1855 0.950 . S
C1834 H1830 0.949 . S
C1834 C1842 1.574 . S
C1834 C1850 1.334 1_655 S
H1835 C1843 0.950 . S
H1836 C1841 0.950 . S
H1837 C1842 0.949 . S
H1838 C1844 0.950 . S
H1839 C1845 0.950 . S
H1840 C1846 0.949 . S
C1841 H1836 0.950 . S
C1841 C1843 1.327 . S
C1841 C1847 1.429 1_455 S
C1842 C1834 1.574 . S
C1842 H1837 0.949 . S
C1842 C1848 1.402 . S
C1843 C1827 1.349 1_455 S
C1843 H1835 0.950 . S
C1843 C1841 1.327 . S
C1844 C1832 1.349 1_655 S
C1844 H1838 0.950 . S
C1844 C1845 1.327 . S
C1845 H1839 0.950 . S
C1845 C1844 1.327 . S
C1845 C1849 1.429 1_655 S
C1846 C1829 1.574 . S
C1846 H1840 0.949 . S
C1846 C1850 1.402 . S
C1847 C1828 1.429 . S
C1847 C1841 1.429 1_655 S
C1847 C1848 1.526 . S
C1848 C1829 1.334 1_655 S
C1848 C1842 1.402 . S
C1848 C1847 1.526 . S
C1849 C1833 1.429 . S
C1849 C1845 1.429 1_455 S
C1849 C1850 1.526 . S
C1850 C1834 1.334 1_455 S
C1850 C1846 1.402 . S
C1850 C1849 1.526 . S
H1851 C1826 0.950 . S
H1852 C1828 0.950 . S
H1853 C1829 0.949 . S
H1854 C1831 0.950 . S
H1855 C1833 0.950 . S
C1856 C1857 1.349 . S
C1856 C1858 1.327 . S
C1856 H1881 0.950 . S
C1857 C1856 1.349 . S
C1857 C1873 1.349 . S
C1858 C1856 1.327 . S
C1858 C1877 1.429 . S
C1858 H1882 0.950 . S
C1859 C1876 1.574 . S
C1859 C1878 1.368 . S
C1859 H1883 0.949 . S
H1860 C1864 0.949 . S
C1861 C1862 1.349 . S
C1861 C1863 1.327 . S
C1861 H1884 0.950 . S
C1862 C1861 1.349 . S
C1862 C1874 1.349 . S
C1863 C1861 1.327 . S
C1863 C1879 1.429 . S
C1863 H1885 0.950 . S
C1864 H1860 0.949 . S
C1864 C1872 1.574 . S
C1864 C1880 1.368 . S
H1865 C1873 0.950 . S
H1866 C1871 0.950 . S
H1867 C1872 0.949 . S
H1868 C1874 0.950 . S
H1869 C1875 0.950 . S
H1870 C1876 0.949 . S
C1871 H1866 0.950 . S
C1871 C1873 1.327 . S
C1871 C1877 1.429 . S
C1872 C1864 1.574 . S
C1872 H1867 0.949 . S
C1872 C1878 1.368 . S
C1873 C1857 1.349 . S
C1873 H1865 0.950 . S
C1873 C1871 1.327 . S
C1874 C1862 1.349 . S
C1874 H1868 0.950 . S
C1874 C1875 1.327 . S
C1875 H1869 0.950 . S
C1875 C1874 1.327 . S
C1875 C1879 1.429 . S
C1876 C1859 1.574 . S
C1876 H1870 0.949 . S
C1876 C1880 1.368 . S
C1877 C1858 1.429 . S
C1877 C1871 1.429 . S
C1877 C1878 1.523 . S
C1878 C1859 1.368 . S
C1878 C1872 1.368 . S
C1878 C1877 1.523 . S
C1879 C1863 1.429 . S
C1879 C1875 1.429 . S
C1879 C1880 1.523 . S
C1880 C1864 1.368 . S
C1880 C1876 1.368 . S
C1880 C1879 1.523 . S
H1881 C1856 0.950 . S
H1882 C1858 0.950 . S
H1883 C1859 0.949 . S
H1884 C1861 0.950 . S
H1885 C1863 0.950 . S
C1886 C1887 1.349 . S
C1886 C1888 1.327 . S
C1886 H1911 0.950 . S
C1887 C1886 1.349 . S
C1887 C1903 1.349 . S
C1888 C1886 1.327 . S
C1888 C1907 1.429 . S
C1888 H1912 0.950 . S
C1889 C1906 1.574 . S
C1889 C1908 1.368 . S
C1889 H1913 0.949 . S
H1890 C1894 0.949 . S
C1891 C1892 1.349 . S
C1891 C1893 1.327 . S
C1891 H1914 0.950 . S
C1892 C1891 1.349 . S
C1892 C1904 1.349 . S
C1893 C1891 1.327 . S
C1893 C1909 1.429 . S
C1893 H1915 0.950 . S
C1894 H1890 0.949 . S
C1894 C1902 1.574 . S
C1894 C1910 1.368 . S
H1895 C1903 0.950 . S
H1896 C1901 0.950 . S
H1897 C1902 0.949 . S
H1898 C1904 0.950 . S
H1899 C1905 0.950 . S
H1900 C1906 0.949 . S
C1901 H1896 0.950 . S
C1901 C1903 1.327 . S
C1901 C1907 1.429 . S
C1902 C1894 1.574 . S
C1902 H1897 0.949 . S
C1902 C1908 1.368 . S
C1903 C1887 1.349 . S
C1903 H1895 0.950 . S
C1903 C1901 1.327 . S
C1904 C1892 1.349 . S
C1904 H1898 0.950 . S
C1904 C1905 1.327 . S
C1905 H1899 0.950 . S
C1905 C1904 1.327 . S
C1905 C1909 1.429 . S
C1906 C1889 1.574 . S
C1906 H1900 0.949 . S
C1906 C1910 1.368 . S
C1907 C1888 1.429 . S
C1907 C1901 1.429 . S
C1907 C1908 1.523 . S
C1908 C1889 1.368 . S
C1908 C1902 1.368 . S
C1908 C1907 1.523 . S
C1909 C1893 1.429 . S
C1909 C1905 1.429 . S
C1909 C1910 1.523 . S
C1910 C1894 1.368 . S
C1910 C1906 1.368 . S
C1910 C1909 1.523 . S
H1911 C1886 0.950 . S
H1912 C1888 0.950 . S
H1913 C1889 0.949 . S
H1914 C1891 0.950 . S
H1915 C1893 0.950 . S
C1916 C1917 1.349 . S
C1916 C1918 1.327 . S
C1916 H1941 0.950 . S
C1917 C1916 1.349 . S
C1917 C1933 1.349 . S
C1918 C1916 1.327 . S
C1918 C1937 1.429 . S
C1918 H1942 0.950 . S
C1919 C1936 1.574 . S
C1919 C1938 1.368 . S
C1919 H1943 0.949 . S
H1920 C1924 0.949 . S
C1921 C1922 1.349 . S
C1921 C1923 1.327 . S
C1921 H1944 0.950 . S
C1922 C1921 1.349 . S
C1922 C1934 1.349 . S
C1923 C1921 1.327 . S
C1923 C1939 1.429 . S
C1923 H1945 0.950 . S
C1924 H1920 0.949 . S
C1924 C1932 1.574 . S
C1924 C1940 1.368 . S
H1925 C1933 0.950 . S
H1926 C1931 0.950 . S
H1927 C1932 0.949 . S
H1928 C1934 0.950 . S
H1929 C1935 0.950 . S
H1930 C1936 0.949 . S
C1931 H1926 0.950 . S
C1931 C1933 1.327 . S
C1931 C1937 1.429 . S
C1932 C1924 1.574 . S
C1932 H1927 0.949 . S
C1932 C1938 1.368 . S
C1933 C1917 1.349 . S
C1933 H1925 0.950 . S
C1933 C1931 1.327 . S
C1934 C1922 1.349 . S
C1934 H1928 0.950 . S
C1934 C1935 1.327 . S
C1935 H1929 0.950 . S
C1935 C1934 1.327 . S
C1935 C1939 1.429 . S
C1936 C1919 1.574 . S
C1936 H1930 0.949 . S
C1936 C1940 1.368 . S
C1937 C1918 1.429 . S
C1937 C1931 1.429 . S
C1937 C1938 1.523 . S
C1938 C1919 1.368 . S
C1938 C1932 1.368 . S
C1938 C1937 1.523 . S
C1939 C1923 1.429 . S
C1939 C1935 1.429 . S
C1939 C1940 1.523 . S
C1940 C1924 1.368 . S
C1940 C1936 1.368 . S
C1940 C1939 1.523 . S
H1941 C1916 0.950 . S
H1942 C1918 0.950 . S
H1943 C1919 0.949 . S
H1944 C1921 0.950 . S
H1945 C1923 0.950 . S
C1946 C1947 1.349 . S
C1946 C1948 1.327 . S
C1946 H1971 0.950 . S
C1947 C1946 1.349 . S
C1947 C1963 1.349 . S
C1948 C1946 1.327 . S
C1948 C1967 1.429 . S
C1948 H1972 0.950 . S
C1949 C1966 1.574 . S
C1949 C1968 1.368 . S
C1949 H1973 0.949 . S
H1950 C1954 0.949 . S
C1951 C1952 1.349 . S
C1951 C1953 1.327 . S
C1951 H1974 0.950 . S
C1952 C1951 1.349 . S
C1952 C1964 1.349 . S
C1953 C1951 1.327 . S
C1953 C1969 1.429 . S
C1953 H1975 0.950 . S
C1954 H1950 0.949 . S
C1954 C1962 1.574 . S
C1954 C1970 1.368 . S
H1955 C1963 0.950 . S
H1956 C1961 0.950 . S
H1957 C1962 0.949 . S
H1958 C1964 0.950 . S
H1959 C1965 0.950 . S
H1960 C1966 0.949 . S
C1961 H1956 0.950 . S
C1961 C1963 1.327 . S
C1961 C1967 1.429 . S
C1962 C1954 1.574 . S
C1962 H1957 0.949 . S
C1962 C1968 1.368 . S
C1963 C1947 1.349 . S
C1963 H1955 0.950 . S
C1963 C1961 1.327 . S
C1964 C1952 1.349 . S
C1964 H1958 0.950 . S
C1964 C1965 1.327 . S
C1965 H1959 0.950 . S
C1965 C1964 1.327 . S
C1965 C1969 1.429 . S
C1966 C1949 1.574 . S
C1966 H1960 0.949 . S
C1966 C1970 1.368 . S
C1967 C1948 1.429 . S
C1967 C1961 1.429 . S
C1967 C1968 1.523 . S
C1968 C1949 1.368 . S
C1968 C1962 1.368 . S
C1968 C1967 1.523 . S
C1969 C1953 1.429 . S
C1969 C1965 1.429 . S
C1969 C1970 1.523 . S
C1970 C1954 1.368 . S
C1970 C1966 1.368 . S
C1970 C1969 1.523 . S
H1971 C1946 0.950 . S
H1972 C1948 0.950 . S
H1973 C1949 0.949 . S
H1974 C1951 0.950 . S
H1975 C1953 0.950 . S
C1976 C1977 1.349 . S
C1976 C1978 1.327 . S
C1976 H2001 0.950 . S
C1977 C1976 1.349 . S
C1977 C1993 1.349 . S
C1978 C1976 1.327 . S
C1978 C1997 1.429 . S
C1978 H2002 0.950 . S
C1979 C1996 1.574 . S
C1979 C1998 1.368 . S
C1979 H2003 0.949 . S
H1980 C1984 0.949 . S
C1981 C1982 1.349 . S
C1981 C1983 1.327 . S
C1981 H2004 0.950 . S
C1982 C1981 1.349 . S
C1982 C1994 1.349 . S
C1983 C1981 1.327 . S
C1983 C1999 1.429 . S
C1983 H2005 0.950 . S
C1984 H1980 0.949 . S
C1984 C1992 1.574 . S
C1984 C2000 1.368 . S
H1985 C1993 0.950 . S
H1986 C1991 0.950 . S
H1987 C1992 0.949 . S
H1988 C1994 0.950 . S
H1989 C1995 0.950 . S
H1990 C1996 0.949 . S
C1991 H1986 0.950 . S
C1991 C1993 1.327 . S
C1991 C1997 1.429 . S
C1992 C1984 1.574 . S
C1992 H1987 0.949 . S
C1992 C1998 1.368 . S
C1993 C1977 1.349 . S
C1993 H1985 0.950 . S
C1993 C1991 1.327 . S
C1994 C1982 1.349 . S
C1994 H1988 0.950 . S
C1994 C1995 1.327 . S
C1995 H1989 0.950 . S
C1995 C1994 1.327 . S
C1995 C1999 1.429 . S
C1996 C1979 1.574 . S
C1996 H1990 0.949 . S
C1996 C2000 1.368 . S
C1997 C1978 1.429 . S
C1997 C1991 1.429 . S
C1997 C1998 1.523 . S
C1998 C1979 1.368 . S
C1998 C1992 1.368 . S
C1998 C1997 1.523 . S
C1999 C1983 1.429 . S
C1999 C1995 1.429 . S
C1999 C2000 1.523 . S
C2000 C1984 1.368 . S
C2000 C1996 1.368 . S
C2000 C1999 1.523 . S
H2001 C1976 0.950 . S
H2002 C1978 0.950 . S
H2003 C1979 0.949 . S
H2004 C1981 0.950 . S
H2005 C1983 0.950 . S
C2006 C2007 1.349 . S
C2006 C2008 1.327 . S
C2006 H2031 0.950 . S
C2007 C2006 1.349 . S
C2007 C2023 1.349 . S
C2008 C2006 1.327 . S
C2008 C2027 1.429 . S
C2008 H2032 0.950 . S
C2009 C2026 1.574 . S
C2009 C2028 1.368 . S
C2009 H2033 0.949 . S
H2010 C2014 0.949 . S
C2011 C2012 1.349 . S
C2011 C2013 1.327 . S
C2011 H2034 0.950 . S
C2012 C2011 1.349 . S
C2012 C2024 1.349 . S
C2013 C2011 1.327 . S
C2013 C2029 1.429 . S
C2013 H2035 0.950 . S
C2014 H2010 0.949 . S
C2014 C2022 1.574 . S
C2014 C2030 1.368 . S
H2015 C2023 0.950 . S
H2016 C2021 0.950 . S
H2017 C2022 0.949 . S
H2018 C2024 0.950 . S
H2019 C2025 0.950 . S
H2020 C2026 0.949 . S
C2021 H2016 0.950 . S
C2021 C2023 1.327 . S
C2021 C2027 1.429 . S
C2022 C2014 1.574 . S
C2022 H2017 0.949 . S
C2022 C2028 1.368 . S
C2023 C2007 1.349 . S
C2023 H2015 0.950 . S
C2023 C2021 1.327 . S
C2024 C2012 1.349 . S
C2024 H2018 0.950 . S
C2024 C2025 1.327 . S
C2025 H2019 0.950 . S
C2025 C2024 1.327 . S
C2025 C2029 1.429 . S
C2026 C2009 1.574 . S
C2026 H2020 0.949 . S
C2026 C2030 1.368 . S
C2027 C2008 1.429 . S
C2027 C2021 1.429 . S
C2027 C2028 1.523 . S
C2028 C2009 1.368 . S
C2028 C2022 1.368 . S
C2028 C2027 1.523 . S
C2029 C2013 1.429 . S
C2029 C2025 1.429 . S
C2029 C2030 1.523 . S
C2030 C2014 1.368 . S
C2030 C2026 1.368 . S
C2030 C2029 1.523 . S
H2031 C2006 0.950 . S
H2032 C2008 0.950 . S
H2033 C2009 0.949 . S
H2034 C2011 0.950 . S
H2035 C2013 0.950 . S
C2036 C2037 1.349 . S
C2036 C2038 1.327 . S
C2036 H2061 0.950 . S
C2037 C2036 1.349 . S
C2037 C2053 1.349 . S
C2038 C2036 1.327 . S
C2038 C2057 1.429 . S
C2038 H2062 0.950 . S
C2039 C2056 1.574 . S
C2039 C2058 1.368 . S
C2039 H2063 0.949 . S
H2040 C2044 0.949 . S
C2041 C2042 1.349 . S
C2041 C2043 1.327 . S
C2041 H2064 0.950 . S
C2042 C2041 1.349 . S
C2042 C2054 1.349 . S
C2043 C2041 1.327 . S
C2043 C2059 1.429 . S
C2043 H2065 0.950 . S
C2044 H2040 0.949 . S
C2044 C2052 1.574 . S
C2044 C2060 1.368 . S
H2045 C2053 0.950 . S
H2046 C2051 0.950 . S
H2047 C2052 0.949 . S
H2048 C2054 0.950 . S
H2049 C2055 0.950 . S
H2050 C2056 0.949 . S
C2051 H2046 0.950 . S
C2051 C2053 1.327 . S
C2051 C2057 1.429 . S
C2052 C2044 1.574 . S
C2052 H2047 0.949 . S
C2052 C2058 1.368 . S
C2053 C2037 1.349 . S
C2053 H2045 0.950 . S
C2053 C2051 1.327 . S
C2054 C2042 1.349 . S
C2054 H2048 0.950 . S
C2054 C2055 1.327 . S
C2055 H2049 0.950 . S
C2055 C2054 1.327 . S
C2055 C2059 1.429 . S
C2056 C2039 1.574 . S
C2056 H2050 0.949 . S
C2056 C2060 1.368 . S
C2057 C2038 1.429 . S
C2057 C2051 1.429 . S
C2057 C2058 1.523 . S
C2058 C2039 1.368 . S
C2058 C2052 1.368 . S
C2058 C2057 1.523 . S
C2059 C2043 1.429 . S
C2059 C2055 1.429 . S
C2059 C2060 1.523 . S
C2060 C2044 1.368 . S
C2060 C2056 1.368 . S
C2060 C2059 1.523 . S
H2061 C2036 0.950 . S
H2062 C2038 0.950 . S
H2063 C2039 0.949 . S
H2064 C2041 0.950 . S
H2065 C2043 0.950 . S
C2066 C2067 1.349 . S
C2066 C2068 1.327 . S
C2066 H2091 0.950 . S
C2067 C2066 1.349 . S
C2067 C2083 1.349 . S
C2068 C2066 1.327 . S
C2068 C2087 1.429 . S
C2068 H2092 0.950 . S
C2069 C2086 1.574 . S
C2069 C2088 1.368 . S
C2069 H2093 0.949 . S
H2070 C2074 0.949 . S
C2071 C2072 1.349 . S
C2071 C2073 1.327 . S
C2071 H2094 0.950 . S
C2072 C2071 1.349 . S
C2072 C2084 1.349 . S
C2073 C2071 1.327 . S
C2073 C2089 1.429 . S
C2073 H2095 0.950 . S
C2074 H2070 0.949 . S
C2074 C2082 1.574 . S
C2074 C2090 1.368 . S
H2075 C2083 0.950 . S
H2076 C2081 0.950 . S
H2077 C2082 0.949 . S
H2078 C2084 0.950 . S
H2079 C2085 0.950 . S
H2080 C2086 0.949 . S
C2081 H2076 0.950 . S
C2081 C2083 1.327 . S
C2081 C2087 1.429 . S
C2082 C2074 1.574 . S
C2082 H2077 0.949 . S
C2082 C2088 1.368 . S
C2083 C2067 1.349 . S
C2083 H2075 0.950 . S
C2083 C2081 1.327 . S
C2084 C2072 1.349 . S
C2084 H2078 0.950 . S
C2084 C2085 1.327 . S
C2085 H2079 0.950 . S
C2085 C2084 1.327 . S
C2085 C2089 1.429 . S
C2086 C2069 1.574 . S
C2086 H2080 0.949 . S
C2086 C2090 1.368 . S
C2087 C2068 1.429 . S
C2087 C2081 1.429 . S
C2087 C2088 1.523 . S
C2088 C2069 1.368 . S
C2088 C2082 1.368 . S
C2088 C2087 1.523 . S
C2089 C2073 1.429 . S
C2089 C2085 1.429 . S
C2089 C2090 1.523 . S
C2090 C2074 1.368 . S
C2090 C2086 1.368 . S
C2090 C2089 1.523 . S
H2091 C2066 0.950 . S
H2092 C2068 0.950 . S
H2093 C2069 0.949 . S
H2094 C2071 0.950 . S
H2095 C2073 0.950 . S
C2096 C2097 1.349 . S
C2096 C2098 1.327 . S
C2096 H2121 0.950 . S
C2097 C2096 1.349 . S
C2097 C2113 1.349 . S
C2098 C2096 1.327 . S
C2098 C2117 1.429 . S
C2098 H2122 0.950 . S
C2099 C2116 1.574 . S
C2099 C2118 1.368 . S
C2099 H2123 0.949 . S
H2100 C2104 0.949 . S
C2101 C2102 1.349 . S
C2101 C2103 1.327 . S
C2101 H2124 0.950 . S
C2102 C2101 1.349 . S
C2102 C2114 1.349 . S
C2103 C2101 1.327 . S
C2103 C2119 1.429 . S
C2103 H2125 0.950 . S
C2104 H2100 0.949 . S
C2104 C2112 1.574 . S
C2104 C2120 1.368 . S
H2105 C2113 0.950 . S
H2106 C2111 0.950 . S
H2107 C2112 0.949 . S
H2108 C2114 0.950 . S
H2109 C2115 0.950 . S
H2110 C2116 0.949 . S
C2111 H2106 0.950 . S
C2111 C2113 1.327 . S
C2111 C2117 1.429 . S
C2112 C2104 1.574 . S
C2112 H2107 0.949 . S
C2112 C2118 1.368 . S
C2113 C2097 1.349 . S
C2113 H2105 0.950 . S
C2113 C2111 1.327 . S
C2114 C2102 1.349 . S
C2114 H2108 0.950 . S
C2114 C2115 1.327 . S
C2115 H2109 0.950 . S
C2115 C2114 1.327 . S
C2115 C2119 1.429 . S
C2116 C2099 1.574 . S
C2116 H2110 0.949 . S
C2116 C2120 1.368 . S
C2117 C2098 1.429 . S
C2117 C2111 1.429 . S
C2117 C2118 1.523 . S
C2118 C2099 1.368 . S
C2118 C2112 1.368 . S
C2118 C2117 1.523 . S
C2119 C2103 1.429 . S
C2119 C2115 1.429 . S
C2119 C2120 1.523 . S
C2120 C2104 1.368 . S
C2120 C2116 1.368 . S
C2120 C2119 1.523 . S
H2121 C2096 0.950 . S
H2122 C2098 0.950 . S
H2123 C2099 0.949 . S
H2124 C2101 0.950 . S
H2125 C2103 0.950 . S
C2126 C2127 1.349 . S
C2126 C2128 1.327 . S
C2126 H2151 0.950 . S
C2127 C2126 1.349 . S
C2127 C2143 1.349 . S
C2128 C2126 1.327 . S
C2128 C2147 1.429 . S
C2128 H2152 0.950 . S
C2129 C2146 1.574 . S
C2129 C2148 1.368 . S
C2129 H2153 0.949 . S
H2130 C2134 0.949 . S
C2131 C2132 1.349 . S
C2131 C2133 1.327 . S
C2131 H2154 0.950 . S
C2132 C2131 1.349 . S
C2132 C2144 1.349 . S
C2133 C2131 1.327 . S
C2133 C2149 1.429 . S
C2133 H2155 0.950 . S
C2134 H2130 0.949 . S
C2134 C2142 1.574 . S
C2134 C2150 1.368 . S
H2135 C2143 0.950 . S
H2136 C2141 0.950 . S
H2137 C2142 0.949 . S
H2138 C2144 0.950 . S
H2139 C2145 0.950 . S
H2140 C2146 0.949 . S
C2141 H2136 0.950 . S
C2141 C2143 1.327 . S
C2141 C2147 1.429 . S
C2142 C2134 1.574 . S
C2142 H2137 0.949 . S
C2142 C2148 1.368 . S
C2143 C2127 1.349 . S
C2143 H2135 0.950 . S
C2143 C2141 1.327 . S
C2144 C2132 1.349 . S
C2144 H2138 0.950 . S
C2144 C2145 1.327 . S
C2145 H2139 0.950 . S
C2145 C2144 1.327 . S
C2145 C2149 1.429 . S
C2146 C2129 1.574 . S
C2146 H2140 0.949 . S
C2146 C2150 1.368 . S
C2147 C2128 1.429 . S
C2147 C2141 1.429 . S
C2147 C2148 1.523 . S
C2148 C2129 1.368 . S
C2148 C2142 1.368 . S
C2148 C2147 1.523 . S
C2149 C2133 1.429 . S
C2149 C2145 1.429 . S
C2149 C2150 1.523 . S
C2150 C2134 1.368 . S
C2150 C2146 1.368 . S
C2150 C2149 1.523 . S
H2151 C2126 0.950 . S
H2152 C2128 0.950 . S
H2153 C2129 0.949 . S
H2154 C2131 0.950 . S
H2155 C2133 0.950 . S
C2156 C2157 1.349 . S
C2156 C2158 1.327 . S
C2156 H2181 0.950 . S
C2157 C2156 1.349 . S
C2157 C2173 1.349 . S
C2158 C2156 1.327 . S
C2158 C2177 1.429 . S
C2158 H2182 0.950 . S
C2159 C2176 1.574 . S
C2159 C2178 1.368 . S
C2159 H2183 0.949 . S
H2160 C2164 0.949 . S
C2161 C2162 1.349 . S
C2161 C2163 1.327 . S
C2161 H2184 0.950 . S
C2162 C2161 1.349 . S
C2162 C2174 1.349 . S
C2163 C2161 1.327 . S
C2163 C2179 1.429 . S
C2163 H2185 0.950 . S
C2164 H2160 0.949 . S
C2164 C2172 1.574 . S
C2164 C2180 1.368 . S
H2165 C2173 0.950 . S
H2166 C2171 0.950 . S
H2167 C2172 0.949 . S
H2168 C2174 0.950 . S
H2169 C2175 0.950 . S
H2170 C2176 0.949 . S
C2171 H2166 0.950 . S
C2171 C2173 1.327 . S
C2171 C2177 1.429 . S
C2172 C2164 1.574 . S
C2172 H2167 0.949 . S
C2172 C2178 1.368 . S
C2173 C2157 1.349 . S
C2173 H2165 0.950 . S
C2173 C2171 1.327 . S
C2174 C2162 1.349 . S
C2174 H2168 0.950 . S
C2174 C2175 1.327 . S
C2175 H2169 0.950 . S
C2175 C2174 1.327 . S
C2175 C2179 1.429 . S
C2176 C2159 1.574 . S
C2176 H2170 0.949 . S
C2176 C2180 1.368 . S
C2177 C2158 1.429 . S
C2177 C2171 1.429 . S
C2177 C2178 1.523 . S
C2178 C2159 1.368 . S
C2178 C2172 1.368 . S
C2178 C2177 1.523 . S
C2179 C2163 1.429 . S
C2179 C2175 1.429 . S
C2179 C2180 1.523 . S
C2180 C2164 1.368 . S
C2180 C2176 1.368 . S
C2180 C2179 1.523 . S
H2181 C2156 0.950 . S
H2182 C2158 0.950 . S
H2183 C2159 0.949 . S
H2184 C2161 0.950 . S
H2185 C2163 0.950 . S
C2186 C2187 1.349 . S
C2186 C2188 1.327 . S
C2186 H2211 0.950 . S
C2187 C2186 1.349 . S
C2187 C2203 1.349 . S
C2188 C2186 1.327 . S
C2188 C2207 1.429 . S
C2188 H2212 0.950 . S
C2189 C2206 1.574 . S
C2189 C2208 1.368 . S
C2189 H2213 0.949 . S
H2190 C2194 0.949 . S
C2191 C2192 1.349 . S
C2191 C2193 1.327 . S
C2191 H2214 0.950 . S
C2192 C2191 1.349 . S
C2192 C2204 1.349 . S
C2193 C2191 1.327 . S
C2193 C2209 1.429 . S
C2193 H2215 0.950 . S
C2194 H2190 0.949 . S
C2194 C2202 1.574 . S
C2194 C2210 1.368 . S
H2195 C2203 0.950 . S
H2196 C2201 0.950 . S
H2197 C2202 0.949 . S
H2198 C2204 0.950 . S
H2199 C2205 0.950 . S
H2200 C2206 0.949 . S
C2201 H2196 0.950 . S
C2201 C2203 1.327 . S
C2201 C2207 1.429 . S
C2202 C2194 1.574 . S
C2202 H2197 0.949 . S
C2202 C2208 1.368 . S
C2203 C2187 1.349 . S
C2203 H2195 0.950 . S
C2203 C2201 1.327 . S
C2204 C2192 1.349 . S
C2204 H2198 0.950 . S
C2204 C2205 1.327 . S
C2205 H2199 0.950 . S
C2205 C2204 1.327 . S
C2205 C2209 1.429 . S
C2206 C2189 1.574 . S
C2206 H2200 0.949 . S
C2206 C2210 1.368 . S
C2207 C2188 1.429 . S
C2207 C2201 1.429 . S
C2207 C2208 1.523 . S
C2208 C2189 1.368 . S
C2208 C2202 1.368 . S
C2208 C2207 1.523 . S
C2209 C2193 1.429 . S
C2209 C2205 1.429 . S
C2209 C2210 1.523 . S
C2210 C2194 1.368 . S
C2210 C2206 1.368 . S
C2210 C2209 1.523 . S
H2211 C2186 0.950 . S
H2212 C2188 0.950 . S
H2213 C2189 0.949 . S
H2214 C2191 0.950 . S
H2215 C2193 0.950 . S
C2216 C2217 1.349 . S
C2216 C2218 1.327 . S
C2216 H2241 0.950 . S
C2217 C2216 1.349 . S
C2217 C2233 1.349 . S
C2218 C2216 1.327 . S
C2218 C2237 1.429 . S
C2218 H2242 0.950 . S
C2219 C2236 1.574 . S
C2219 C2238 1.368 . S
C2219 H2243 0.949 . S
H2220 C2224 0.949 . S
C2221 C2222 1.349 . S
C2221 C2223 1.327 . S
C2221 H2244 0.950 . S
C2222 C2221 1.349 . S
C2222 C2234 1.349 . S
C2223 C2221 1.327 . S
C2223 C2239 1.429 . S
C2223 H2245 0.950 . S
C2224 H2220 0.949 . S
C2224 C2232 1.574 . S
C2224 C2240 1.368 . S
H2225 C2233 0.950 . S
H2226 C2231 0.950 . S
H2227 C2232 0.949 . S
H2228 C2234 0.950 . S
H2229 C2235 0.950 . S
H2230 C2236 0.949 . S
C2231 H2226 0.950 . S
C2231 C2233 1.327 . S
C2231 C2237 1.429 . S
C2232 C2224 1.574 . S
C2232 H2227 0.949 . S
C2232 C2238 1.368 . S
C2233 C2217 1.349 . S
C2233 H2225 0.950 . S
C2233 C2231 1.327 . S
C2234 C2222 1.349 . S
C2234 H2228 0.950 . S
C2234 C2235 1.327 . S
C2235 H2229 0.950 . S
C2235 C2234 1.327 . S
C2235 C2239 1.429 . S
C2236 C2219 1.574 . S
C2236 H2230 0.949 . S
C2236 C2240 1.368 . S
C2237 C2218 1.429 . S
C2237 C2231 1.429 . S
C2237 C2238 1.523 . S
C2238 C2219 1.368 . S
C2238 C2232 1.368 . S
C2238 C2237 1.523 . S
C2239 C2223 1.429 . S
C2239 C2235 1.429 . S
C2239 C2240 1.523 . S
C2240 C2224 1.368 . S
C2240 C2236 1.368 . S
C2240 C2239 1.523 . S
H2241 C2216 0.950 . S
H2242 C2218 0.950 . S
H2243 C2219 0.949 . S
H2244 C2221 0.950 . S
H2245 C2223 0.950 . S
C2246 C2247 1.349 . S
C2246 C2248 1.327 . S
C2246 H2271 0.950 . S
C2247 C2246 1.349 . S
C2247 C2263 1.349 . S
C2248 C2246 1.327 . S
C2248 C2267 1.429 . S
C2248 H2272 0.950 . S
C2249 C2266 1.574 . S
C2249 C2268 1.368 . S
C2249 H2273 0.949 . S
H2250 C2254 0.949 . S
C2251 C2252 1.349 . S
C2251 C2253 1.327 . S
C2251 H2274 0.950 . S
C2252 C2251 1.349 . S
C2252 C2264 1.349 . S
C2253 C2251 1.327 . S
C2253 C2269 1.429 . S
C2253 H2275 0.950 . S
C2254 H2250 0.949 . S
C2254 C2262 1.574 . S
C2254 C2270 1.368 . S
H2255 C2263 0.950 . S
H2256 C2261 0.950 . S
H2257 C2262 0.949 . S
H2258 C2264 0.950 . S
H2259 C2265 0.950 . S
H2260 C2266 0.949 . S
C2261 H2256 0.950 . S
C2261 C2263 1.327 . S
C2261 C2267 1.429 . S
C2262 C2254 1.574 . S
C2262 H2257 0.949 . S
C2262 C2268 1.368 . S
C2263 C2247 1.349 . S
C2263 H2255 0.950 . S
C2263 C2261 1.327 . S
C2264 C2252 1.349 . S
C2264 H2258 0.950 . S
C2264 C2265 1.327 . S
C2265 H2259 0.950 . S
C2265 C2264 1.327 . S
C2265 C2269 1.429 . S
C2266 C2249 1.574 . S
C2266 H2260 0.949 . S
C2266 C2270 1.368 . S
C2267 C2248 1.429 . S
C2267 C2261 1.429 . S
C2267 C2268 1.523 . S
C2268 C2249 1.368 . S
C2268 C2262 1.368 . S
C2268 C2267 1.523 . S
C2269 C2253 1.429 . S
C2269 C2265 1.429 . S
C2269 C2270 1.523 . S
C2270 C2254 1.368 . S
C2270 C2266 1.368 . S
C2270 C2269 1.523 . S
H2271 C2246 0.950 . S
H2272 C2248 0.950 . S
H2273 C2249 0.949 . S
H2274 C2251 0.950 . S
H2275 C2253 0.950 . S
C2276 C2277 1.349 . S
C2276 C2278 1.327 . S
C2276 H2301 0.950 . S
C2277 C2276 1.349 . S
C2277 C2293 1.349 . S
C2278 C2276 1.327 . S
C2278 C2297 1.429 . S
C2278 H2302 0.950 . S
C2279 C2296 1.574 . S
C2279 C2298 1.368 . S
C2279 H2303 0.949 . S
H2280 C2284 0.949 . S
C2281 C2282 1.349 . S
C2281 C2283 1.327 . S
C2281 H2304 0.950 . S
C2282 C2281 1.349 . S
C2282 C2294 1.349 . S
C2283 C2281 1.327 . S
C2283 C2299 1.429 . S
C2283 H2305 0.950 . S
C2284 H2280 0.949 . S
C2284 C2292 1.574 . S
C2284 C2300 1.368 . S
H2285 C2293 0.950 . S
H2286 C2291 0.950 . S
H2287 C2292 0.949 . S
H2288 C2294 0.950 . S
H2289 C2295 0.950 . S
H2290 C2296 0.949 . S
C2291 H2286 0.950 . S
C2291 C2293 1.327 . S
C2291 C2297 1.429 . S
C2292 C2284 1.574 . S
C2292 H2287 0.949 . S
C2292 C2298 1.368 . S
C2293 C2277 1.349 . S
C2293 H2285 0.950 . S
C2293 C2291 1.327 . S
C2294 C2282 1.349 . S
C2294 H2288 0.950 . S
C2294 C2295 1.327 . S
C2295 H2289 0.950 . S
C2295 C2294 1.327 . S
C2295 C2299 1.429 . S
C2296 C2279 1.574 . S
C2296 H2290 0.949 . S
C2296 C2300 1.368 . S
C2297 C2278 1.429 . S
C2297 C2291 1.429 . S
C2297 C2298 1.523 . S
C2298 C2279 1.368 . S
C2298 C2292 1.368 . S
C2298 C2297 1.523 . S
C2299 C2283 1.429 . S
C2299 C2295 1.429 . S
C2299 C2300 1.523 . S
C2300 C2284 1.368 . S
C2300 C2296 1.368 . S
C2300 C2299 1.523 . S
H2301 C2276 0.950 . S
H2302 C2278 0.950 . S
H2303 C2279 0.949 . S
H2304 C2281 0.950 . S
H2305 C2283 0.950 . S
C2306 C2307 1.349 . S
C2306 C2308 1.327 . S
C2306 H2331 0.950 . S
C2307 C2306 1.349 . S
C2307 C2323 1.349 . S
C2308 C2306 1.327 . S
C2308 C2327 1.429 . S
C2308 H2332 0.950 . S
C2309 C2326 1.574 . S
C2309 C2328 1.368 . S
C2309 H2333 0.949 . S
H2310 C2314 0.949 . S
C2311 C2312 1.349 . S
C2311 C2313 1.327 . S
C2311 H2334 0.950 . S
C2312 C2311 1.349 . S
C2312 C2324 1.349 . S
C2313 C2311 1.327 . S
C2313 C2329 1.429 . S
C2313 H2335 0.950 . S
C2314 H2310 0.949 . S
C2314 C2322 1.574 . S
C2314 C2330 1.368 . S
H2315 C2323 0.950 . S
H2316 C2321 0.950 . S
H2317 C2322 0.949 . S
H2318 C2324 0.950 . S
H2319 C2325 0.950 . S
H2320 C2326 0.949 . S
C2321 H2316 0.950 . S
C2321 C2323 1.327 . S
C2321 C2327 1.429 . S
C2322 C2314 1.574 . S
C2322 H2317 0.949 . S
C2322 C2328 1.368 . S
C2323 C2307 1.349 . S
C2323 H2315 0.950 . S
C2323 C2321 1.327 . S
C2324 C2312 1.349 . S
C2324 H2318 0.950 . S
C2324 C2325 1.327 . S
C2325 H2319 0.950 . S
C2325 C2324 1.327 . S
C2325 C2329 1.429 . S
C2326 C2309 1.574 . S
C2326 H2320 0.949 . S
C2326 C2330 1.368 . S
C2327 C2308 1.429 . S
C2327 C2321 1.429 . S
C2327 C2328 1.523 . S
C2328 C2309 1.368 . S
C2328 C2322 1.368 . S
C2328 C2327 1.523 . S
C2329 C2313 1.429 . S
C2329 C2325 1.429 . S
C2329 C2330 1.523 . S
C2330 C2314 1.368 . S
C2330 C2326 1.368 . S
C2330 C2329 1.523 . S
H2331 C2306 0.950 . S
H2332 C2308 0.950 . S
H2333 C2309 0.949 . S
H2334 C2311 0.950 . S
H2335 C2313 0.950 . S
C417 C157 1.258 . S
C422 C5 1.251 . S
C447 C387 1.282 . S
C452 C16 1.274 . S
C477 C183 1.258 . S
C482 C31 1.251 . S
C507 C413 1.281 . S
C512 C42 1.274 . S
C537 C105 1.258 . S
C542 C57 1.251 . S
C567 C68 1.274 . S
C572 C335 1.281 . S
C597 C83 1.251 . S
C602 C131 1.258 . S
C627 C361 1.282 . S
C632 C94 1.274 . S
C657 C62 1.258 . S
C662 C107 1.251 . S
C687 C274 1.282 . S
C692 C122 1.274 . S
C717 C88 1.258 . S
C722 C133 1.251 . S
C747 C300 1.281 . S
C752 C148 1.274 . S
C777 C159 1.251 . S
C782 C10 1.258 . S
C807 C174 1.274 . S
C812 C222 1.281 . S
C837 C36 1.258 . S
C842 C185 1.251 . S
C867 C200 1.274 . S
C872 C248 1.282 . S
C897 C365 1.258 . S
C902 C213 1.251 . S
C927 C179 1.281 . S
C932 C224 1.274 . S
C957 C391 1.258 . S
C962 C239 1.251 . S
C987 C250 1.274 . S
C992 C205 1.282 . S
C1017 C265 1.251 . S
C1022 C313 1.258 . S
C1047 C276 1.274 . S
C1052 C127 1.282 . S
C1077 C339 1.258 . S
C1082 C291 1.251 . S
C1107 C153 1.281 . S
C1112 C302 1.274 . S
C1137 C270 1.258 . S
C1142 C315 1.251 . S
C1167 C330 1.274 . S
C1172 C66 1.281 . S
C1197 C341 1.251 . S
C1202 C296 1.258 . S
C1227 C356 1.274 . S
C1232 C92 1.282 . S
C1257 C218 1.258 . S
C1262 C367 1.251 . S
C1287 C14 1.282 . S
C1292 C382 1.274 . S
C1317 C244 1.258 . S
C1322 C393 1.251 . S
C1347 C408 1.274 . S
C1352 C40 1.281 . S
C1377 C1 2.065 . S
C1382 C114 2.065 . S
C1407 C23 1.976 . S
C1412 C326 1.976 . S
C1437 C140 2.057 . S
C1442 C27 2.057 . S
C1467 C49 1.976 . S
C1472 C352 1.976 . S
C1497 C53 2.064 . S
C1502 C166 2.064 . S
C1527 C378 1.976 . S
C1532 C75 1.976 . S
C1557 C192 2.056 . S
C1562 C79 2.056 . S
C1587 C101 1.976 . S
C1592 C404 1.976 . S
C1617 C118 1.976 . S
C1622 C231 1.976 . S
C1647 C144 1.976 . S
C1652 C257 1.976 . S
C1677 C170 1.976 . S
C1682 C283 1.976 . S
C1707 C309 1.976 . S
C1712 C196 1.976 . S
C1737 C209 2.057 . S
C1742 C322 2.057 . S
C1767 C235 2.065 . S
C1772 C348 2.065 . S
C1797 C261 2.056 . S
C1802 C374 2.056 . S
C1827 C400 2.065 . S
C1832 C287 2.065 . S
C1857 C3 1.980 . S
C1862 C96 1.910 . S
C1887 C18 1.910 . S
C1892 C55 1.980 . S
C1917 C70 1.910 . S
C1922 C29 1.980 . S
C1947 C81 1.980 . S
C1952 C44 1.910 . S
C1977 C198 1.910 . S
C1982 C109 1.980 . S
C2007 C161 1.980 . S
C2012 C120 1.910 . S
C2037 C172 1.910 . S
C2042 C135 1.980 . S
C2067 C187 1.980 . S
C2072 C146 1.910 . S
C2097 C211 1.980 . S
C2102 C304 1.910 . S
C2127 C263 1.980 . S
C2132 C226 1.910 . S
C2157 C278 1.910 . S
C2162 C237 1.980 . S
C2187 C289 1.980 . S
C2192 C252 1.910 . S
C2217 C406 1.910 . S
C2222 C317 1.980 . S
C2247 C328 1.910 . S
C2252 C369 1.980 . S
C2277 C343 1.980 . S
C2282 C380 1.910 . S
C2307 C395 1.980 . S
C2312 C354 1.910 . S
