# Generated by pormake.
# Topology snx, (6)-cn, num edge types: 1
# Building blocks:
#     Node 0, Type 0, BuildingBlock: OJICUG_clean_sbu_0, # of connection points: 6
#     Node 1, Type 0, BuildingBlock: OJICUG_clean_sbu_0, # of connection points: 6
#     Node 2, Type 0, BuildingBlock: OJICUG_clean_sbu_0, # of connection points: 6
#     Node 3, Type 0, BuildingBlock: OJICUG_clean_sbu_0, # of connection points: 6
#     Node 4, Type 0, BuildingBlock: OJICUG_clean_sbu_0, # of connection points: 6
#     Node 5, Type 0, BuildingBlock: OJICUG_clean_sbu_0, # of connection points: 6
#     Edge 6, Type (0, 0), BuildingBlock: UVAHIK_clean_linker_0, # of connection points: 2
#     Edge 7, Type (0, 0), BuildingBlock: UVAHIK_clean_linker_0, # of connection points: 2
#     Edge 8, Type (0, 0), BuildingBlock: UVAHIK_clean_linker_0, # of connection points: 2
#     Edge 9, Type (0, 0), BuildingBlock: UVAHIK_clean_linker_0, # of connection points: 2
#     Edge 10, Type (0, 0), BuildingBlock: UVAHIK_clean_linker_0, # of connection points: 2
#     Edge 11, Type (0, 0), BuildingBlock: UVAHIK_clean_linker_0, # of connection points: 2
#     Edge 12, Type (0, 0), BuildingBlock: UVAHIK_clean_linker_0, # of connection points: 2
#     Edge 13, Type (0, 0), BuildingBlock: UVAHIK_clean_linker_0, # of connection points: 2
#     Edge 14, Type (0, 0), BuildingBlock: UVAHIK_clean_linker_0, # of connection points: 2
#     Edge 15, Type (0, 0), BuildingBlock: UVAHIK_clean_linker_0, # of connection points: 2
#     Edge 16, Type (0, 0), BuildingBlock: UVAHIK_clean_linker_0, # of connection points: 2
#     Edge 17, Type (0, 0), BuildingBlock: UVAHIK_clean_linker_0, # of connection points: 2
#     Edge 18, Type (0, 0), BuildingBlock: UVAHIK_clean_linker_0, # of connection points: 2
#     Edge 19, Type (0, 0), BuildingBlock: UVAHIK_clean_linker_0, # of connection points: 2
#     Edge 20, Type (0, 0), BuildingBlock: UVAHIK_clean_linker_0, # of connection points: 2
#     Edge 21, Type (0, 0), BuildingBlock: UVAHIK_clean_linker_0, # of connection points: 2
#     Edge 22, Type (0, 0), BuildingBlock: UVAHIK_clean_linker_0, # of connection points: 2
#     Edge 23, Type (0, 0), BuildingBlock: UVAHIK_clean_linker_0, # of connection points: 2
# Relax obj value: 0.060
# Max RMSD: 0.112
# Mean RMSD: 0.112
data_MOF--net-snx--node1-OJICUG_clean_sbu_0--edge1-UVAHIK_clean_linker_0
_symmetry_space_group_name_H-M    P1
_symmetry_Int_Tables_number       1
_symmetry_cell_setting            triclinic
loop_
_symmetry_equiv_pos_as_xyz
'x, y, z'
_cell_length_a     49.000489
_cell_length_b     48.95807
_cell_length_c     27.079039
_cell_angle_alpha  89.997557
_cell_angle_beta   90.010874
_cell_angle_gamma 119.95295
loop_
_atom_site_label
_atom_site_type_symbol
_atom_site_fract_x
_atom_site_fract_y
_atom_site_fract_z
_atom_type_partial_charge
Sc0 Sc 0.18928 0.39885 0.18234 0.0
Sc1 Sc 0.19192 0.39826 0.31248 0.0
Sc2 Sc 0.15542 0.32683 0.24653 0.0
O3 O 0.17889 0.37467 0.24711 0.0
C4 C 0.12098 0.34224 0.15924 0.0
C5 C 0.1699 0.4394 0.25167 0.0
C6 C 0.12286 0.34119 0.33614 0.0
C7 C 0.25191 0.44 0.24415 0.0
C8 C 0.20235 0.3426 0.1567 0.0
C9 C 0.20509 0.34227 0.33402 0.0
O10 O 0.14244 0.37079 0.15413 0.0
O11 O 0.17388 0.42861 0.29201 0.0
O12 O 0.12173 0.32429 0.29973 0.0
O13 O 0.23739 0.42942 0.20358 0.0
O14 O 0.18701 0.32536 0.19308 0.0
O15 O 0.21129 0.37051 0.3401 0.0
O16 O 0.20399 0.3688 0.14701 0.0
O17 O 0.23837 0.43171 0.28597 0.0
O18 O 0.18469 0.32366 0.3032 0.0
O19 O 0.17549 0.43159 0.20971 0.0
O20 O 0.12311 0.32359 0.18962 0.0
O21 O 0.14703 0.36749 0.34666 0.0
Sc22 Sc 0.82079 0.15984 0.74133 0.0
Sc23 Sc 0.78299 0.19486 0.67875 0.0
Sc24 Sc 0.78669 0.19656 0.8089 0.0
O25 O 0.79681 0.18374 0.74299 0.0
C26 C 0.77481 0.12745 0.83219 0.0
C27 C 0.77032 0.12602 0.65479 0.0
C28 C 0.72343 0.17531 0.74866 0.0
C29 C 0.85189 0.20761 0.65194 0.0
C30 C 0.85575 0.20901 0.82901 0.0
C31 C 0.80503 0.25719 0.74201 0.0
O32 O 0.79049 0.12636 0.79561 0.0
O33 O 0.76424 0.1482 0.64931 0.0
O34 O 0.73838 0.17932 0.78884 0.0
O35 O 0.85337 0.19117 0.68705 0.0
O36 O 0.8337 0.21504 0.83623 0.0
O37 O 0.80027 0.24289 0.701 0.0
O38 O 0.85395 0.1891 0.79715 0.0
O39 O 0.82773 0.21013 0.64337 0.0
O40 O 0.80042 0.24335 0.78345 0.0
O41 O 0.79066 0.12744 0.6854 0.0
O42 O 0.77227 0.15144 0.84239 0.0
O43 O 0.73659 0.18071 0.70654 0.0
Sc44 Sc 0.65389 0.82459 0.24508 0.0
Sc45 Sc 0.58385 0.78991 0.17518 0.0
Sc46 Sc 0.58036 0.78905 0.30536 0.0
O47 O 0.60604 0.80121 0.24186 0.0
C48 C 0.63557 0.77531 0.33344 0.0
C49 C 0.64029 0.77656 0.15637 0.0
C50 C 0.54045 0.72812 0.23845 0.0
C51 C 0.64155 0.85868 0.15442 0.0
C52 C 0.6368 0.85768 0.33175 0.0
C53 C 0.54139 0.81037 0.23664 0.0
O54 O 0.65461 0.79377 0.30103 0.0
O55 O 0.61337 0.77291 0.14623 0.0
O56 O 0.54878 0.74192 0.28002 0.0
O57 O 0.65852 0.85815 0.1895 0.0
O58 O 0.60905 0.83474 0.33804 0.0
O59 O 0.55181 0.80585 0.1963 0.0
O60 O 0.65556 0.85739 0.29959 0.0
O61 O 0.61424 0.83587 0.14482 0.0
O62 O 0.54961 0.80534 0.27866 0.0
O63 O 0.65754 0.79419 0.19111 0.0
O64 O 0.60807 0.77127 0.33934 0.0
O65 O 0.5511 0.7424 0.19768 0.0
Sc66 Sc 0.81875 0.65839 0.74391 0.0
Sc67 Sc 0.78607 0.58714 0.67719 0.0
Sc68 Sc 0.78791 0.58631 0.80727 0.0
O69 O 0.79758 0.6106 0.74275 0.0
C70 C 0.85484 0.64496 0.83071 0.0
C71 C 0.85375 0.64673 0.65453 0.0
C72 C 0.80988 0.5477 0.73858 0.0
C73 C 0.76934 0.64085 0.65557 0.0
C74 C 0.77145 0.64013 0.83374 0.0
C75 C 0.72616 0.54344 0.74448 0.0
O76 O 0.85149 0.66325 0.80117 0.0
O77 O 0.8308 0.61955 0.64424 0.0
O78 O 0.8037 0.55533 0.78015 0.0
O79 O 0.78859 0.65982 0.68728 0.0
O80 O 0.77133 0.61462 0.84299 0.0
O81 O 0.73999 0.55252 0.70299 0.0
O82 O 0.78605 0.65783 0.79735 0.0
O83 O 0.76514 0.61336 0.64876 0.0
O84 O 0.74015 0.55404 0.78549 0.0
O85 O 0.85346 0.66324 0.69058 0.0
O86 O 0.83459 0.61592 0.83519 0.0
O87 O 0.80553 0.55788 0.69788 0.0
Sc88 Sc 0.15701 0.82664 0.24516 0.0
Sc89 Sc 0.19211 0.79018 0.31065 0.0
Sc90 Sc 0.18727 0.78539 0.18082 0.0
O91 O 0.1788 0.80071 0.24559 0.0
C92 C 0.11993 0.77619 0.15987 0.0
C93 C 0.12434 0.78132 0.33619 0.0
C94 C 0.16762 0.72609 0.25172 0.0
C95 C 0.20784 0.86009 0.33137 0.0
C96 C 0.20266 0.85537 0.1539 0.0
C97 C 0.25054 0.80586 0.23985 0.0
O98 O 0.12414 0.79868 0.18816 0.0
O99 O 0.14828 0.7787 0.34648 0.0
O100 O 0.1735 0.73927 0.20958 0.0
O101 O 0.18698 0.85839 0.30166 0.0
O102 O 0.20196 0.82966 0.1437 0.0
O103 O 0.23751 0.80084 0.2821 0.0
O104 O 0.18932 0.85888 0.19165 0.0
O105 O 0.21384 0.83787 0.33685 0.0
O106 O 0.2357 0.80251 0.19975 0.0
O107 O 0.12301 0.79637 0.29885 0.0
O108 O 0.13971 0.76677 0.15581 0.0
O109 O 0.17183 0.74119 0.29178 0.0
Sc110 Sc 0.32194 0.159 0.74646 0.0
Sc111 Sc 0.39259 0.19467 0.81493 0.0
Sc112 Sc 0.39484 0.19485 0.68464 0.0
O113 O 0.3698 0.18287 0.74869 0.0
C114 C 0.33894 0.12593 0.65948 0.0
C115 C 0.33571 0.12537 0.83606 0.0
C116 C 0.43498 0.17457 0.75279 0.0
C117 C 0.33577 0.20712 0.83529 0.0
C118 C 0.33862 0.20746 0.65762 0.0
C119 C 0.43482 0.25628 0.75034 0.0
O120 O 0.32014 0.12654 0.69121 0.0
O121 O 0.36266 0.14871 0.84596 0.0
O122 O 0.42668 0.17978 0.71098 0.0
O123 O 0.31822 0.18886 0.80134 0.0
O124 O 0.36595 0.21128 0.65056 0.0
O125 O 0.42525 0.24214 0.79151 0.0
O126 O 0.32027 0.1897 0.69129 0.0
O127 O 0.36315 0.21166 0.84437 0.0
O128 O 0.42563 0.2423 0.70903 0.0
O129 O 0.31849 0.12549 0.80107 0.0
O130 O 0.36677 0.14871 0.65323 0.0
O131 O 0.42447 0.17869 0.79332 0.0
C132 C 0.15781 0.47814 0.21078 0.0
C133 C 0.15945 0.46303 0.25391 0.0
C134 C 0.1505 0.50225 0.21349 0.0
C135 C 0.15662 0.5625 0.29967 0.0
H136 H 0.10938 0.57767 0.19912 0.0
C137 C 0.15025 0.67634 0.30002 0.0
C138 C 0.15696 0.69199 0.25427 0.0
C139 C 0.14323 0.645 0.30276 0.0
C140 C 0.12265 0.57374 0.22745 0.0
H141 H 0.15294 0.46031 0.33349 0.0
H142 H 0.14002 0.50222 0.338 0.0
H143 H 0.11029 0.52822 0.19876 0.0
H144 H 0.15989 0.68632 0.17523 0.0
H145 H 0.14823 0.63201 0.1802 0.0
H146 H 0.16993 0.6083 0.32742 0.0
C147 C 0.14492 0.49575 0.30222 0.0
C148 C 0.12317 0.54546 0.22723 0.0
C149 C 0.15227 0.47167 0.29955 0.0
C150 C 0.155 0.6751 0.21114 0.0
C151 C 0.14805 0.64381 0.21392 0.0
C152 C 0.15613 0.59073 0.29986 0.0
C153 C 0.1446 0.51174 0.25935 0.0
C154 C 0.14072 0.53985 0.26274 0.0
C155 C 0.14279 0.62864 0.25985 0.0
C156 C 0.13971 0.59697 0.26314 0.0
H157 H 0.16309 0.47204 0.17499 0.0
H158 H 0.15077 0.51434 0.17983 0.0
H159 H 0.17075 0.55912 0.32712 0.0
H160 H 0.15119 0.68849 0.33396 0.0
H161 H 0.13879 0.63378 0.33863 0.0
C162 C 0.67383 0.15822 0.79694 0.0
C163 C 0.68949 0.16517 0.7512 0.0
C164 C 0.64256 0.15128 0.7998 0.0
C165 C 0.57128 0.13053 0.72506 0.0
H166 H 0.55611 0.17767 0.82581 0.0
C167 C 0.47384 0.16313 0.71102 0.0
C168 C 0.45892 0.16456 0.7545 0.0
C169 C 0.49834 0.15639 0.71313 0.0
C170 C 0.55965 0.1638 0.79807 0.0
H171 H 0.68399 0.16882 0.6723 0.0
H172 H 0.62971 0.15725 0.67749 0.0
H173 H 0.60574 0.1778 0.8251 0.0
H174 H 0.45693 0.15822 0.83408 0.0
H175 H 0.4995 0.14624 0.83756 0.0
H176 H 0.52543 0.11738 0.69718 0.0
C177 C 0.64149 0.15682 0.71108 0.0
C178 C 0.58814 0.16388 0.79766 0.0
C179 C 0.67273 0.1637 0.70818 0.0
C180 C 0.46813 0.1577 0.7999 0.0
C181 C 0.49259 0.1509 0.80196 0.0
C182 C 0.54272 0.13045 0.72547 0.0
C183 C 0.62628 0.15116 0.75703 0.0
C184 C 0.59454 0.14778 0.76058 0.0
C185 C 0.5084 0.15084 0.75873 0.0
C186 C 0.53689 0.14762 0.76141 0.0
H187 H 0.68587 0.15877 0.83079 0.0
H188 H 0.6313 0.14654 0.83566 0.0
H189 H 0.57537 0.11752 0.69646 0.0
H190 H 0.46732 0.16818 0.67539 0.0
H191 H 0.51026 0.15686 0.67919 0.0
C192 C 0.30198 0.47238 0.19703 0.0
C193 C 0.28581 0.46399 0.24236 0.0
C194 C 0.33317 0.49683 0.19459 0.0
C195 C 0.40358 0.5484 0.27008 0.0
H196 H 0.41924 0.60944 0.16688 0.0
C197 C 0.50128 0.67841 0.28115 0.0
C198 C 0.51635 0.69423 0.2374 0.0
C199 C 0.47671 0.64722 0.27971 0.0
C200 C 0.41558 0.59239 0.19533 0.0
H201 H 0.29033 0.47383 0.32105 0.0
H202 H 0.34457 0.51682 0.31657 0.0
H203 H 0.36966 0.55997 0.16814 0.0
H204 H 0.51849 0.68898 0.15808 0.0
H205 H 0.47578 0.63445 0.15575 0.0
H206 H 0.4493 0.58142 0.29802 0.0
C207 C 0.3332 0.50425 0.283 0.0
C208 C 0.3871 0.56399 0.19607 0.0
C209 C 0.302 0.47973 0.2855 0.0
C210 C 0.50717 0.67766 0.19244 0.0
C211 C 0.48264 0.64643 0.19104 0.0
C212 C 0.43214 0.57686 0.26932 0.0
C213 C 0.34889 0.51348 0.23737 0.0
C214 C 0.38054 0.54194 0.23395 0.0
C215 C 0.4667 0.6311 0.23452 0.0
C216 C 0.43817 0.5994 0.23245 0.0
H217 H 0.29038 0.46051 0.16313 0.0
H218 H 0.34482 0.50308 0.15901 0.0
H219 H 0.39935 0.53166 0.29934 0.0
H220 H 0.50777 0.69038 0.31648 0.0
H221 H 0.46469 0.63621 0.3138 0.0
C222 C 0.83049 0.51656 0.78186 0.0
C223 C 0.82086 0.52451 0.73786 0.0
C224 C 0.83717 0.49202 0.78271 0.0
C225 C 0.85073 0.43765 0.70441 0.0
H226 H 0.80825 0.37911 0.81174 0.0
C227 C 0.81508 0.30626 0.69748 0.0
C228 C 0.81539 0.29123 0.74157 0.0
C229 C 0.82241 0.33773 0.69781 0.0
C230 C 0.82083 0.39542 0.78205 0.0
H231 H 0.81257 0.51413 0.65957 0.0
H232 H 0.82367 0.47085 0.6613 0.0
H233 H 0.80992 0.42944 0.81068 0.0
H234 H 0.82551 0.29812 0.8201 0.0
H235 H 0.83869 0.35309 0.82046 0.0
H236 H 0.86083 0.40299 0.67516 0.0
C237 C 0.82636 0.48384 0.69505 0.0
C238 C 0.82179 0.42434 0.78144 0.0
C239 C 0.81983 0.50855 0.69412 0.0
C240 C 0.82458 0.30881 0.78558 0.0
C241 C 0.83208 0.34031 0.78584 0.0
C242 C 0.84981 0.40864 0.70506 0.0
C243 C 0.83422 0.47475 0.73966 0.0
C244 C 0.83631 0.44559 0.74227 0.0
C245 C 0.83039 0.35491 0.74216 0.0
C246 C 0.83439 0.38701 0.74352 0.0
H247 H 0.83206 0.52874 0.81607 0.0
H248 H 0.84382 0.48599 0.81744 0.0
H249 H 0.8624 0.4537 0.67403 0.0
H250 H 0.80816 0.29346 0.66288 0.0
H251 H 0.82055 0.34815 0.66361 0.0
C252 C 0.50753 0.82605 0.18884 0.0
C253 C 0.51733 0.82021 0.23451 0.0
C254 C 0.48261 0.83216 0.18648 0.0
C255 C 0.43171 0.85208 0.26215 0.0
H256 H 0.36843 0.802 0.16441 0.0
C257 C 0.30117 0.817 0.28014 0.0
C258 C 0.28428 0.81516 0.2371 0.0
C259 C 0.33239 0.82379 0.27719 0.0
C260 C 0.38608 0.81663 0.19132 0.0
H261 H 0.50959 0.81785 0.31375 0.0
H262 H 0.46589 0.82799 0.30946 0.0
H263 H 0.41878 0.80358 0.16371 0.0
H264 H 0.28754 0.82047 0.1573 0.0
H265 H 0.34203 0.83249 0.15235 0.0
H266 H 0.39843 0.86429 0.29065 0.0
C267 C 0.47767 0.82817 0.27551 0.0
C268 C 0.41498 0.81757 0.1909 0.0
C269 C 0.50261 0.82211 0.27791 0.0
C270 C 0.2997 0.82137 0.1912 0.0
C271 C 0.33092 0.82818 0.18828 0.0
C272 C 0.40274 0.85112 0.26259 0.0
C273 C 0.46693 0.83255 0.22969 0.0
C274 C 0.43789 0.83479 0.22688 0.0
C275 C 0.34743 0.82896 0.23116 0.0
C276 C 0.3794 0.83289 0.22774 0.0
H277 H 0.51854 0.82513 0.15469 0.0
H278 H 0.47519 0.83596 0.15069 0.0
H279 H 0.44909 0.86594 0.2899 0.0
H280 H 0.2901 0.81244 0.31613 0.0
H281 H 0.34436 0.82385 0.31086 0.0
C282 C 0.6752 0.50912 0.7007 0.0
C283 C 0.6925 0.51875 0.74494 0.0
C284 C 0.64408 0.48442 0.70057 0.0
C285 C 0.57582 0.43448 0.78131 0.0
H286 H 0.55625 0.37236 0.67832 0.0
C287 C 0.4749 0.30524 0.79392 0.0
C288 C 0.45905 0.29012 0.75021 0.0
C289 C 0.50017 0.33613 0.79263 0.0
C290 C 0.56104 0.38971 0.70682 0.0
H291 H 0.69021 0.51063 0.82405 0.0
H292 H 0.63613 0.46711 0.82358 0.0
H293 H 0.6065 0.42106 0.67708 0.0
H294 H 0.45595 0.29643 0.67141 0.0
H295 H 0.49975 0.35032 0.66939 0.0
H296 H 0.53049 0.40245 0.81172 0.0
C297 C 0.6465 0.47898 0.78909 0.0
C298 C 0.5899 0.41768 0.70611 0.0
C299 C 0.6776 0.5038 0.78929 0.0
C300 C 0.46793 0.30716 0.70568 0.0
C301 C 0.49309 0.33804 0.70445 0.0
C302 C 0.54688 0.40639 0.78205 0.0
C303 C 0.62959 0.46866 0.7446 0.0
C304 C 0.5978 0.44022 0.74364 0.0
C305 C 0.51002 0.35255 0.74765 0.0
C306 C 0.53936 0.38357 0.74509 0.0
H307 H 0.68579 0.52037 0.66594 0.0
H308 H 0.63148 0.47738 0.6658 0.0
H309 H 0.58108 0.45159 0.8104 0.0
H310 H 0.46864 0.29284 0.82889 0.0
H311 H 0.5129 0.34658 0.8265 0.0
C312 C 0.30109 0.2305 0.84825 0.0
C313 C 0.32348 0.22315 0.86667 0.0
C314 C 0.28916 0.2452 0.87854 0.0
C315 C 0.26814 0.24936 0.00248 0.0
H316 H 0.28157 0.33294 0.97524 0.0
C317 C 0.22963 0.31189 0.14176 0.0
C318 C 0.21834 0.3312 0.12351 0.0
C319 C 0.24376 0.30012 0.11007 0.0
C320 C 0.27709 0.30937 0.98303 0.0
H321 H 0.3508 0.22516 0.93105 0.0
H322 H 0.329 0.24989 0.9844 0.0
H323 H 0.30277 0.30915 0.91893 0.0
H324 H 0.21282 0.35339 0.05799 0.0
H325 H 0.23599 0.33162 0.0021 0.0
H326 H 0.24135 0.24851 0.06507 0.0
C327 C 0.32122 0.24472 0.94636 0.0
C328 C 0.28942 0.29593 0.95091 0.0
C329 C 0.33369 0.23072 0.91583 0.0
C330 C 0.22159 0.33874 0.07305 0.0
C331 C 0.23506 0.32637 0.0411 0.0
C332 C 0.25521 0.26243 0.03399 0.0
C333 C 0.29891 0.25204 0.9279 0.0
C334 C 0.28522 0.26598 0.96073 0.0
C335 C 0.24621 0.30675 0.05914 0.0
C336 C 0.25974 0.29275 0.02501 0.0
H337 H 0.29295 0.22504 0.81041 0.0
H338 H 0.27185 0.25064 0.86382 0.0
H339 H 0.26446 0.22605 0.01033 0.0
H340 H 0.22774 0.30604 0.18067 0.0
H341 H 0.2528 0.28585 0.12568 0.0
C342 C 0.90988 0.23411 0.63713 0.0
C343 C 0.87943 0.22422 0.61921 0.0
C344 C 0.93591 0.24922 0.60587 0.0
C345 C 0.95976 0.2512 0.48121 0.0
H346 H 0.03026 0.33438 0.50895 0.0
C347 C 0.06457 0.31086 0.34743 0.0
C348 C 0.0947 0.32975 0.36757 0.0
C349 C 0.03784 0.29983 0.37712 0.0
C350 C 0.01105 0.31093 0.50098 0.0
H351 H 0.85224 0.22232 0.55475 0.0
H352 H 0.89788 0.24783 0.49959 0.0
H353 H 0.9846 0.31153 0.56374 0.0
H354 H 0.12068 0.35181 0.43444 0.0
H355 H 0.07427 0.33123 0.48697 0.0
H356 H 0.98638 0.24944 0.42027 0.0
C357 C 0.90145 0.24427 0.53801 0.0
C358 C 0.98485 0.29805 0.53218 0.0
C359 C 0.87548 0.22981 0.56953 0.0
C360 C 0.09766 0.33745 0.41793 0.0
C361 C 0.07098 0.32581 0.44792 0.0
C362 C 0.98619 0.26372 0.45063 0.0
C363 C 0.9318 0.25403 0.55601 0.0
C364 C 0.95907 0.26813 0.52243 0.0
C365 C 0.04067 0.30681 0.42793 0.0
C366 C 0.01224 0.29378 0.46007 0.0
H367 H 0.91358 0.23024 0.67535 0.0
H368 H 0.95917 0.25647 0.62031 0.0
H369 H 0.94017 0.22788 0.47344 0.0
H370 H 0.06162 0.30494 0.3085 0.0
H371 H 0.01497 0.28597 0.36001 0.0
C372 C 0.75566 0.10378 0.91551 0.0
C373 C 0.75953 0.09986 0.86514 0.0
C374 C 0.74256 0.07786 0.94726 0.0
C375 C 0.72405 -0.00574 0.95474 0.0
H376 H 0.67456 -0.00764 0.06787 0.0
C377 C 0.64526 0.88371 0.07261 0.0
C378 C 0.65442 0.88675 0.12241 0.0
C379 C 0.65811 0.91001 0.04167 0.0
C380 C 0.68845 -0.00723 0.03645 0.0
H381 H 0.75184 0.06577 0.808 0.0
H382 H 0.72743 0.02029 0.86267 0.0
H383 H 0.69567 0.03728 0.01158 0.0
H384 H 0.68357 0.91963 0.17925 0.0
H385 H 0.70526 0.96599 0.1251 0.0
H386 H 0.71537 0.9489 0.97894 0.0
C387 C 0.73564 0.04344 0.87834 0.0
C388 C 0.70075 0.01853 0.00434 0.0
C389 C 0.74941 0.06947 0.84683 0.0
C390 C 0.67623 0.91665 0.14094 0.0
C391 C 0.68851 0.94309 0.1102 0.0
C392 C 0.71114 0.96823 0.98625 0.0
C393 C 0.73238 0.04731 0.92914 0.0
C394 C 0.71884 0.01969 0.9631 0.0
C395 C 0.67973 0.93983 0.06031 0.0
C396 C 0.69339 0.96741 0.02735 0.0
H397 H 0.76357 0.12703 0.93067 0.0
H398 H 0.74107 0.08197 0.98618 0.0
H399 H 0.73842 -0.00549 0.92421 0.0
H400 H 0.62863 0.86091 0.05731 0.0
H401 H 0.65104 0.90712 0.00323 0.0
C402 C 0.67506 0.75946 0.35772 0.0
C403 C 0.64606 0.75804 0.36606 0.0
C404 C 0.68532 0.7438 0.38907 0.0
C405 C 0.6763 0.71354 0.51515 0.0
H406 H 0.71734 0.66956 0.46241 0.0
C407 C 0.75389 0.68093 0.63283 0.0
C408 C 0.75148 0.65145 0.62457 0.0
C409 C 0.73798 0.69142 0.60242 0.0
C410 C 0.70563 0.68146 0.4777 0.0
H411 H 0.60491 0.73863 0.4137 0.0
H412 H 0.62296 0.71131 0.4684 0.0
H413 H 0.69477 0.69186 0.40602 0.0
H414 H 0.72979 0.60956 0.57843 0.0
H415 H 0.70206 0.62796 0.52548 0.0
H416 H 0.68729 0.70324 0.58685 0.0
C417 C 0.63778 0.72476 0.43773 0.0
C418 C 0.69301 0.69449 0.44542 0.0
C419 C 0.62741 0.7403 0.40622 0.0
C420 C 0.73231 0.63246 0.58575 0.0
C421 C 0.71652 0.64302 0.55524 0.0
C422 C 0.68905 0.70063 0.54744 0.0
C423 C 0.66689 0.72646 0.42956 0.0
C424 C 0.67853 0.71096 0.46381 0.0
C425 C 0.7194 0.67271 0.56302 0.0
C426 C 0.70413 0.68474 0.52902 0.0
H427 H 0.69001 0.77283 0.32712 0.0
H428 H 0.70804 0.74583 0.3822 0.0
H429 H 0.66546 0.7263 0.53037 0.0
H430 H 0.76836 0.69615 0.66245 0.0
H431 H 0.74091 0.71456 0.60899 0.0
C432 C 0.89302 0.63842 0.88363 0.0
C433 C 0.88302 0.6582 0.86256 0.0
C434 C 0.91886 0.65074 0.91548 0.0
C435 C 0.96135 0.71371 0.00324 0.0
H436 H 0.0307 0.69805 0.9832 0.0
C437 C 0.07531 0.77744 0.11747 0.0
C438 C 0.09136 0.76119 0.12887 0.0
C439 C 0.0494 0.76412 0.08581 0.0
C440 C 0.01129 0.7022 0.98992 0.0
H441 H 0.89229 0.70636 0.85809 0.0
H442 H 0.93715 0.72772 0.91464 0.0
H443 H 0.98659 0.67613 0.92548 0.0
H444 H 0.09224 0.71779 0.1175 0.0
H445 H 0.04624 0.69396 0.06378 0.0
H446 H 0.98527 0.73894 0.06831 0.0
C447 C 0.92502 0.70277 0.90614 0.0
C448 C 0.98618 0.6898 0.95664 0.0
C449 C 0.89952 0.69057 0.87362 0.0
C450 C 0.0805 0.731 0.10897 0.0
C451 C 0.05426 0.71745 0.07791 0.0
C452 C 0.98618 0.72568 0.03698 0.0
C453 C 0.93478 0.68292 0.92744 0.0
C454 C 0.96117 0.69568 0.96286 0.0
C455 C 0.03862 0.73401 0.06544 0.0
C456 C 0.0116 0.72029 0.03054 0.0
H457 H 0.88083 0.61341 0.8756 0.0
H458 H 0.92595 0.63501 0.93167 0.0
H459 H 0.94203 0.71816 0.00908 0.0
H460 H 0.0833 0.80088 0.13188 0.0
H461 H 0.03834 0.77784 0.0764 0.0
C462 C 0.34652 0.09719 0.58894 0.0
C463 C 0.32763 0.09778 0.62757 0.0
C464 C 0.33519 0.07125 0.55732 0.0
C465 C 0.26081 0.00544 0.51151 0.0
H466 H 0.31359 0.97266 0.46428 0.0
C467 C 0.24531 0.89015 0.40004 0.0
C468 C 0.22496 0.88871 0.36219 0.0
C469 C 0.25968 0.91631 0.43126 0.0
C470 C 0.29854 0.98147 0.47737 0.0
H471 H 0.28239 0.071 0.66424 0.0
H472 H 0.26285 0.02572 0.6094 0.0
H473 H 0.33477 0.01602 0.52368 0.0
H474 H 0.20491 0.91433 0.32619 0.0
H475 H 0.23026 0.95999 0.38027 0.0
H476 H 0.2244 0.97061 0.46614 0.0
C477 C 0.2862 0.04559 0.60305 0.0
C478 C 0.31074 0.00645 0.511 0.0
C479 C 0.29748 0.07151 0.63461 0.0
C480 C 0.22015 0.91446 0.35528 0.0
C481 C 0.23456 0.94059 0.38641 0.0
C482 C 0.24864 0.98053 0.47795 0.0
C483 C 0.30476 0.04536 0.5637 0.0
C484 C 0.29196 0.01865 0.52845 0.0
C485 C 0.25405 0.94157 0.42523 0.0
C486 C 0.26737 0.9683 0.46045 0.0
H487 H 0.36988 0.117 0.58244 0.0
H488 H 0.34994 0.07188 0.52706 0.0
H489 H 0.24587 0.01458 0.52377 0.0
H490 H 0.24957 0.87075 0.40639 0.0
H491 H 0.2744 0.91629 0.46109 0.0
C492 C 0.64252 0.75275 0.07622 0.0
C493 C 0.65217 0.7599 0.1256 0.0
C494 C 0.65404 0.73751 0.04652 0.0
C495 C 0.7186 0.71852 0.03966 0.0
H496 H 0.66679 0.66349 0.93401 0.0
C497 C 0.75202 0.64203 0.91816 0.0
C498 C 0.75484 0.65028 0.86794 0.0
C499 C 0.73805 0.65325 0.95125 0.0
C500 C 0.68139 0.67878 0.96348 0.0
H501 H 0.6808 0.75609 0.18318 0.0
H502 H 0.69985 0.72809 0.13209 0.0
H503 H 0.6447 0.68621 0.99051 0.0
H504 H 0.7444 0.67577 0.81258 0.0
H505 H 0.71893 0.69452 0.87049 0.0
H506 H 0.7549 0.70999 0.01303 0.0
C507 C 0.68425 0.73522 0.11559 0.0
C508 C 0.66893 0.69204 -0.00437 0.0
C509 C 0.67323 0.75111 0.14502 0.0
C510 C 0.74263 0.66918 0.85114 0.0
C511 C 0.728 0.67977 0.88406 0.0
C512 C 0.73078 0.70466 0.00815 0.0
C513 C 0.67498 0.7284 0.0658 0.0
C514 C 0.68755 0.71255 0.03366 0.0
C515 C 0.72602 0.67222 0.93439 0.0
C516 C 0.7124 0.6851 0.96947 0.0
H517 H 0.62655 0.75957 0.06015 0.0
H518 H 0.64692 0.73345 0.00815 0.0
H519 H 0.73389 0.73456 0.06781 0.0
H520 H 0.7614 0.62764 0.93212 0.0
H521 H 0.73668 0.64719 0.99001 0.0
C522 C 0.91174 0.68112 0.6421 0.0
C523 C 0.88196 0.65982 0.62283 0.0
C524 C 0.93845 0.69338 0.61205 0.0
C525 C 0.96645 0.68103 0.49015 0.0
H526 H 0.03432 0.76655 0.51232 0.0
C527 C 0.0664 0.75585 0.35106 0.0
C528 C 0.09689 0.76643 0.36945 0.0
C529 C 0.04042 0.74186 0.38261 0.0
C530 C 0.01554 0.74259 0.50602 0.0
H531 H 0.85656 0.63503 0.55696 0.0
H532 H 0.90272 0.65755 0.50388 0.0
H533 H -0.0119 0.74443 0.56575 0.0
H534 H 0.12421 0.77107 0.43516 0.0
H535 H 0.07864 0.7475 0.49069 0.0
H536 H -0.00637 0.68012 0.42872 0.0
C537 C 0.90588 0.66396 0.54257 0.0
C538 C -0.01086 0.72976 0.53676 0.0
C539 C 0.87931 0.65118 0.5729 0.0
C540 C 0.10094 0.76296 0.42 0.0
C541 C 0.07502 0.74965 0.45174 0.0
C542 C -0.00745 0.69415 0.45878 0.0
C543 C 0.93587 0.68514 0.56174 0.0
C544 C 0.96421 0.69876 0.5293 0.0
C545 C 0.04461 0.73892 0.43318 0.0
C546 C 0.01725 0.72497 0.4666 0.0
H547 H 0.91448 0.68793 0.68065 0.0
H548 H 0.96113 0.70905 0.62854 0.0
H549 H 0.94819 0.65688 0.48379 0.0
H550 H 0.06262 0.75811 0.31221 0.0
H551 H 0.01709 0.73378 0.36772 0.0
C552 C 0.22118 0.87709 0.06927 0.0
C553 C 0.21922 0.88224 0.11988 0.0
C554 C 0.23545 0.90256 0.03669 0.0
C555 C 0.29363 0.98492 0.02663 0.0
H556 H 0.24172 0.98975 0.92276 0.0
C557 C 0.33348 0.09899 0.91605 0.0
C558 C 0.32387 0.09678 0.8667 0.0
C559 C 0.32183 0.07203 0.9454 0.0
C560 C 0.25685 0.98858 0.95079 0.0
H561 H 0.23151 0.91788 0.17644 0.0
H562 H 0.25737 0.96248 0.11944 0.0
H563 H 0.22028 0.94358 0.9762 0.0
H564 H 0.29536 0.06465 0.80872 0.0
H565 H 0.27613 0.01738 0.85907 0.0
H566 H 0.33056 0.02929 0.00082 0.0
C567 C 0.24746 0.93873 0.10513 0.0
C568 C 0.24443 0.96218 0.98152 0.0
C569 C 0.23256 0.91328 0.13755 0.0
C570 C 0.30285 0.06705 0.8469 0.0
C571 C 0.29171 0.03998 0.87592 0.0
C572 C 0.30633 0.01103 -0.00474 0.0
C573 C 0.24864 0.93351 0.05445 0.0
C574 C 0.26259 0.96039 0.02003 0.0
C575 C 0.30081 0.04212 0.92573 0.0
C576 C 0.28795 0.01346 0.95736 0.0
H577 H 0.21097 0.85339 0.05468 0.0
H578 H 0.23619 0.89812 -0.00234 0.0
H579 H 0.30807 0.9838 0.05599 0.0
H580 H 0.34949 0.12168 0.93236 0.0
H581 H 0.32889 0.07482 0.98378 0.0
C582 C 0.29884 0.22315 0.63449 0.0
C583 C 0.32738 0.22391 0.62464 0.0
C584 C 0.28775 0.23788 0.60269 0.0
C585 C 0.29297 0.26403 0.47457 0.0
H586 H 0.25627 0.31218 0.52703 0.0
C587 C 0.21715 0.29989 0.35793 0.0
C588 C 0.22188 0.33042 0.36499 0.0
C589 C 0.23215 0.28839 0.3884 0.0
C590 C 0.26669 0.29904 0.5118 0.0
H591 H 0.36681 0.24109 0.57374 0.0
H592 H 0.34734 0.26678 0.51828 0.0
H593 H 0.27897 0.29 0.58338 0.0
H594 H 0.24668 0.37301 0.40911 0.0
H595 H 0.27278 0.35287 0.46207 0.0
H596 H 0.28065 0.27308 0.40296 0.0
C597 C 0.33351 0.25458 0.5505 0.0
C598 C 0.2794 0.28609 0.54408 0.0
C599 C 0.34472 0.24001 0.58246 0.0
C600 C 0.24236 0.34934 0.4027 0.0
C601 C 0.25723 0.33777 0.43325 0.0
C602 C 0.2801 0.27684 0.44228 0.0
C603 C 0.30487 0.25356 0.56023 0.0
C604 C 0.2925 0.26831 0.52582 0.0
C605 C 0.25208 0.30711 0.42668 0.0
C606 C 0.2667 0.29435 0.46061 0.0
H607 H 0.28488 0.21103 0.66666 0.0
H608 H 0.26542 0.23643 0.61085 0.0
H609 H 0.30269 0.25021 0.4595 0.0
H610 H 0.20161 0.28469 0.32919 0.0
H611 H 0.22753 0.26455 0.38276 0.0
C612 C 0.88568 0.24484 0.8992 0.0
C613 C 0.88424 0.2251 0.86035 0.0
C614 C 0.91175 0.25871 0.93051 0.0
C615 C 0.97722 0.24875 0.97482 0.0
H616 H 0.01005 0.33405 0.02327 0.0
C617 C 0.06783 0.29886 0.13261 0.0
C618 C 0.09289 0.3299 0.12701 0.0
C619 C 0.04216 0.28674 0.10042 0.0
C620 C 0.0013 0.31027 0.00981 0.0
H621 H 0.90962 0.20524 0.82312 0.0
H622 H 0.95533 0.22986 0.87742 0.0
H623 H 0.96698 0.31248 0.96374 0.0
H624 H 0.11025 0.37272 0.08356 0.0
H625 H 0.0657 0.35141 0.02719 0.0
H626 H 0.01197 0.24676 0.02 0.0
C627 C 0.93596 0.23409 0.88415 0.0
C628 C 0.97642 0.29781 0.9761 0.0
C629 C 0.90983 0.22013 0.85287 0.0
C630 C 0.09136 0.34872 0.08908 0.0
C631 C 0.06573 0.33657 0.05684 0.0
C632 C 0.00212 0.26123 0.00844 0.0
C633 C 0.93705 0.25327 0.92362 0.0
C634 C 0.96406 0.26688 0.95833 0.0
C635 C 0.04099 0.30536 0.06187 0.0
C636 C 0.01438 0.29209 0.02641 0.0
H637 H 0.8664 0.24918 0.90615 0.0
H638 H 0.9117 0.27305 0.96091 0.0
H639 H 0.96798 0.2247 0.9623 0.0
H640 H 0.06812 0.28377 0.16161 0.0
H641 H 0.02319 0.26277 0.10577 0.0
C642 C 0.6771 0.913 0.35487 0.0
C643 C 0.648 0.88569 0.36397 0.0
C644 C 0.6881 0.93903 0.38618 0.0
C645 C 0.68107 0.96064 0.51299 0.0
H646 H 0.72087 0.04563 0.46037 0.0
C647 C 0.75727 0.07131 0.63093 0.0
C648 C 0.75346 0.09763 0.62335 0.0
C649 C 0.74222 0.04501 0.60013 0.0
C650 C 0.70957 0.02203 0.4756 0.0
H651 H 0.60746 0.8646 0.41289 0.0
H652 H 0.62679 0.91011 0.46748 0.0
H653 H 0.69822 0.00076 0.40392 0.0
H654 H 0.73032 0.11662 0.57784 0.0
H655 H 0.70414 0.07069 0.5242 0.0
H656 H 0.69251 0.98192 0.58468 0.0
C657 C 0.64112 0.91119 0.43626 0.0
C658 C 0.69689 -0.00361 0.4433 0.0
C659 C 0.63 0.8852 0.40479 0.0
C660 C 0.73387 0.09683 0.5847 0.0
C661 C 0.71898 0.07059 0.55376 0.0
C662 C 0.69393 0.9863 0.54529 0.0
C663 C 0.67034 0.93829 0.4274 0.0
C664 C 0.68268 0.96545 0.46166 0.0
C665 C 0.72317 0.04452 0.56097 0.0
C666 C 0.70846 0.01724 0.5269 0.0
H667 H 0.69155 0.91424 0.32373 0.0
H668 H 0.71086 0.95952 0.37873 0.0
H669 H 0.67048 0.93705 0.52816 0.0
H670 H 0.7721 0.07108 0.6604 0.0
H671 H 0.7461 0.02534 0.60626 0.0
loop_
_geom_bond_atom_site_label_1
_geom_bond_atom_site_label_2
_geom_bond_distance
_geom_bond_site_symmetry_2
_ccdc_geom_bond_type
Sc0 O3 2.025 . S
Sc0 O10 2.105 . S
Sc0 O13 2.105 . S
Sc0 O16 2.105 . S
Sc0 O19 2.105 . S
Sc1 O3 2.025 . S
Sc1 O11 2.105 . S
Sc1 O15 2.105 . S
Sc1 O17 2.105 . S
Sc1 O21 2.105 . S
Sc2 O3 2.025 . S
Sc2 O12 2.105 . S
Sc2 O14 2.105 . S
Sc2 O18 2.105 . S
Sc2 O20 2.105 . S
O3 Sc0 2.025 . S
O3 Sc1 2.025 . S
O3 Sc2 2.025 . S
C4 O10 1.268 . S
C4 O20 1.268 . S
C5 O11 1.268 . S
C5 O19 1.268 . S
C6 O12 1.268 . S
C6 O21 1.268 . S
C7 O13 1.268 . S
C7 O17 1.268 . S
C8 O14 1.268 . S
C8 O16 1.268 . S
C9 O15 1.268 . S
C9 O18 1.268 . S
O10 Sc0 2.105 . S
O10 C4 1.268 . S
O11 Sc1 2.105 . S
O11 C5 1.268 . S
O12 Sc2 2.105 . S
O12 C6 1.268 . S
O13 Sc0 2.105 . S
O13 C7 1.268 . S
O14 Sc2 2.105 . S
O14 C8 1.268 . S
O15 Sc1 2.105 . S
O15 C9 1.268 . S
O16 Sc0 2.105 . S
O16 C8 1.268 . S
O17 Sc1 2.105 . S
O17 C7 1.268 . S
O18 Sc2 2.105 . S
O18 C9 1.268 . S
O19 Sc0 2.105 . S
O19 C5 1.268 . S
O20 Sc2 2.105 . S
O20 C4 1.268 . S
O21 Sc1 2.105 . S
O21 C6 1.268 . S
Sc22 O25 2.025 . S
Sc22 O32 2.105 . S
Sc22 O35 2.105 . S
Sc22 O38 2.105 . S
Sc22 O41 2.105 . S
Sc23 O25 2.025 . S
Sc23 O33 2.105 . S
Sc23 O37 2.105 . S
Sc23 O39 2.105 . S
Sc23 O43 2.105 . S
Sc24 O25 2.025 . S
Sc24 O34 2.105 . S
Sc24 O36 2.105 . S
Sc24 O40 2.105 . S
Sc24 O42 2.105 . S
O25 Sc22 2.025 . S
O25 Sc23 2.025 . S
O25 Sc24 2.025 . S
C26 O32 1.268 . S
C26 O42 1.268 . S
C27 O33 1.268 . S
C27 O41 1.268 . S
C28 O34 1.268 . S
C28 O43 1.268 . S
C29 O35 1.268 . S
C29 O39 1.268 . S
C30 O36 1.268 . S
C30 O38 1.268 . S
C31 O37 1.268 . S
C31 O40 1.268 . S
O32 Sc22 2.105 . S
O32 C26 1.268 . S
O33 Sc23 2.105 . S
O33 C27 1.268 . S
O34 Sc24 2.105 . S
O34 C28 1.268 . S
O35 Sc22 2.105 . S
O35 C29 1.268 . S
O36 Sc24 2.105 . S
O36 C30 1.268 . S
O37 Sc23 2.105 . S
O37 C31 1.268 . S
O38 Sc22 2.105 . S
O38 C30 1.268 . S
O39 Sc23 2.105 . S
O39 C29 1.268 . S
O40 Sc24 2.105 . S
O40 C31 1.268 . S
O41 Sc22 2.105 . S
O41 C27 1.268 . S
O42 Sc24 2.105 . S
O42 C26 1.268 . S
O43 Sc23 2.105 . S
O43 C28 1.268 . S
Sc44 O47 2.025 . S
Sc44 O54 2.105 . S
Sc44 O57 2.105 . S
Sc44 O60 2.105 . S
Sc44 O63 2.105 . S
Sc45 O47 2.025 . S
Sc45 O55 2.105 . S
Sc45 O59 2.105 . S
Sc45 O61 2.105 . S
Sc45 O65 2.105 . S
Sc46 O47 2.025 . S
Sc46 O56 2.105 . S
Sc46 O58 2.105 . S
Sc46 O62 2.105 . S
Sc46 O64 2.105 . S
O47 Sc44 2.025 . S
O47 Sc45 2.025 . S
O47 Sc46 2.025 . S
C48 O54 1.268 . S
C48 O64 1.268 . S
C49 O55 1.268 . S
C49 O63 1.268 . S
C50 O56 1.268 . S
C50 O65 1.268 . S
C51 O57 1.268 . S
C51 O61 1.268 . S
C52 O58 1.268 . S
C52 O60 1.268 . S
C53 O59 1.268 . S
C53 O62 1.268 . S
O54 Sc44 2.105 . S
O54 C48 1.268 . S
O55 Sc45 2.105 . S
O55 C49 1.268 . S
O56 Sc46 2.105 . S
O56 C50 1.268 . S
O57 Sc44 2.105 . S
O57 C51 1.268 . S
O58 Sc46 2.105 . S
O58 C52 1.268 . S
O59 Sc45 2.105 . S
O59 C53 1.268 . S
O60 Sc44 2.105 . S
O60 C52 1.268 . S
O61 Sc45 2.105 . S
O61 C51 1.268 . S
O62 Sc46 2.105 . S
O62 C53 1.268 . S
O63 Sc44 2.105 . S
O63 C49 1.268 . S
O64 Sc46 2.105 . S
O64 C48 1.268 . S
O65 Sc45 2.105 . S
O65 C50 1.268 . S
Sc66 O69 2.025 . S
Sc66 O76 2.105 . S
Sc66 O79 2.105 . S
Sc66 O82 2.105 . S
Sc66 O85 2.105 . S
Sc67 O69 2.025 . S
Sc67 O77 2.105 . S
Sc67 O81 2.105 . S
Sc67 O83 2.105 . S
Sc67 O87 2.105 . S
Sc68 O69 2.025 . S
Sc68 O78 2.105 . S
Sc68 O80 2.105 . S
Sc68 O84 2.105 . S
Sc68 O86 2.105 . S
O69 Sc66 2.025 . S
O69 Sc67 2.025 . S
O69 Sc68 2.025 . S
C70 O76 1.268 . S
C70 O86 1.268 . S
C71 O77 1.268 . S
C71 O85 1.268 . S
C72 O78 1.268 . S
C72 O87 1.268 . S
C73 O79 1.268 . S
C73 O83 1.268 . S
C74 O80 1.268 . S
C74 O82 1.268 . S
C75 O81 1.268 . S
C75 O84 1.268 . S
O76 Sc66 2.105 . S
O76 C70 1.268 . S
O77 Sc67 2.105 . S
O77 C71 1.268 . S
O78 Sc68 2.105 . S
O78 C72 1.268 . S
O79 Sc66 2.105 . S
O79 C73 1.268 . S
O80 Sc68 2.105 . S
O80 C74 1.268 . S
O81 Sc67 2.105 . S
O81 C75 1.268 . S
O82 Sc66 2.105 . S
O82 C74 1.268 . S
O83 Sc67 2.105 . S
O83 C73 1.268 . S
O84 Sc68 2.105 . S
O84 C75 1.268 . S
O85 Sc66 2.105 . S
O85 C71 1.268 . S
O86 Sc68 2.105 . S
O86 C70 1.268 . S
O87 Sc67 2.105 . S
O87 C72 1.268 . S
Sc88 O91 2.025 . S
Sc88 O98 2.105 . S
Sc88 O101 2.105 . S
Sc88 O104 2.105 . S
Sc88 O107 2.105 . S
Sc89 O91 2.025 . S
Sc89 O99 2.105 . S
Sc89 O103 2.105 . S
Sc89 O105 2.105 . S
Sc89 O109 2.105 . S
Sc90 O91 2.025 . S
Sc90 O100 2.105 . S
Sc90 O102 2.105 . S
Sc90 O106 2.105 . S
Sc90 O108 2.105 . S
O91 Sc88 2.025 . S
O91 Sc89 2.025 . S
O91 Sc90 2.025 . S
C92 O98 1.268 . S
C92 O108 1.268 . S
C93 O99 1.268 . S
C93 O107 1.268 . S
C94 O100 1.268 . S
C94 O109 1.268 . S
C95 O101 1.268 . S
C95 O105 1.268 . S
C96 O102 1.268 . S
C96 O104 1.268 . S
C97 O103 1.268 . S
C97 O106 1.268 . S
O98 Sc88 2.105 . S
O98 C92 1.268 . S
O99 Sc89 2.105 . S
O99 C93 1.268 . S
O100 Sc90 2.105 . S
O100 C94 1.268 . S
O101 Sc88 2.105 . S
O101 C95 1.268 . S
O102 Sc90 2.105 . S
O102 C96 1.268 . S
O103 Sc89 2.105 . S
O103 C97 1.268 . S
O104 Sc88 2.105 . S
O104 C96 1.268 . S
O105 Sc89 2.105 . S
O105 C95 1.268 . S
O106 Sc90 2.105 . S
O106 C97 1.268 . S
O107 Sc88 2.105 . S
O107 C93 1.268 . S
O108 Sc90 2.105 . S
O108 C92 1.268 . S
O109 Sc89 2.105 . S
O109 C94 1.268 . S
Sc110 O113 2.025 . S
Sc110 O120 2.105 . S
Sc110 O123 2.105 . S
Sc110 O126 2.105 . S
Sc110 O129 2.105 . S
Sc111 O113 2.025 . S
Sc111 O121 2.105 . S
Sc111 O125 2.105 . S
Sc111 O127 2.105 . S
Sc111 O131 2.105 . S
Sc112 O113 2.025 . S
Sc112 O122 2.105 . S
Sc112 O124 2.105 . S
Sc112 O128 2.105 . S
Sc112 O130 2.105 . S
O113 Sc110 2.025 . S
O113 Sc111 2.025 . S
O113 Sc112 2.025 . S
C114 O120 1.268 . S
C114 O130 1.268 . S
C115 O121 1.268 . S
C115 O129 1.268 . S
C116 O122 1.268 . S
C116 O131 1.268 . S
C117 O123 1.268 . S
C117 O127 1.268 . S
C118 O124 1.268 . S
C118 O126 1.268 . S
C119 O125 1.268 . S
C119 O128 1.268 . S
O120 Sc110 2.105 . S
O120 C114 1.268 . S
O121 Sc111 2.105 . S
O121 C115 1.268 . S
O122 Sc112 2.105 . S
O122 C116 1.268 . S
O123 Sc110 2.105 . S
O123 C117 1.268 . S
O124 Sc112 2.105 . S
O124 C118 1.268 . S
O125 Sc111 2.105 . S
O125 C119 1.268 . S
O126 Sc110 2.105 . S
O126 C118 1.268 . S
O127 Sc111 2.105 . S
O127 C117 1.268 . S
O128 Sc112 2.105 . S
O128 C119 1.268 . S
O129 Sc110 2.105 . S
O129 C115 1.268 . S
O130 Sc112 2.105 . S
O130 C114 1.268 . S
O131 Sc111 2.105 . S
O131 C116 1.268 . S
C132 C133 1.349 . S
C132 C134 1.327 . S
C132 H157 0.950 . S
C133 C132 1.349 . S
C133 C149 1.349 . S
C134 C132 1.327 . S
C134 C153 1.429 . S
C134 H158 0.950 . S
C135 C152 1.574 . S
C135 C154 1.368 . S
C135 H159 0.949 . S
H136 C140 0.949 . S
C137 C138 1.349 . S
C137 C139 1.327 . S
C137 H160 0.950 . S
C138 C137 1.349 . S
C138 C150 1.349 . S
C139 C137 1.327 . S
C139 C155 1.429 . S
C139 H161 0.950 . S
C140 H136 0.949 . S
C140 C148 1.574 . S
C140 C156 1.368 . S
H141 C149 0.950 . S
H142 C147 0.950 . S
H143 C148 0.949 . S
H144 C150 0.950 . S
H145 C151 0.950 . S
H146 C152 0.949 . S
C147 H142 0.950 . S
C147 C149 1.327 . S
C147 C153 1.429 . S
C148 C140 1.574 . S
C148 H143 0.949 . S
C148 C154 1.368 . S
C149 C133 1.349 . S
C149 H141 0.950 . S
C149 C147 1.327 . S
C150 C138 1.349 . S
C150 H144 0.950 . S
C150 C151 1.327 . S
C151 H145 0.950 . S
C151 C150 1.327 . S
C151 C155 1.429 . S
C152 C135 1.574 . S
C152 H146 0.949 . S
C152 C156 1.368 . S
C153 C134 1.429 . S
C153 C147 1.429 . S
C153 C154 1.523 . S
C154 C135 1.368 . S
C154 C148 1.368 . S
C154 C153 1.523 . S
C155 C139 1.429 . S
C155 C151 1.429 . S
C155 C156 1.523 . S
C156 C140 1.368 . S
C156 C152 1.368 . S
C156 C155 1.523 . S
H157 C132 0.950 . S
H158 C134 0.950 . S
H159 C135 0.949 . S
H160 C137 0.950 . S
H161 C139 0.950 . S
C162 C163 1.349 . S
C162 C164 1.327 . S
C162 H187 0.950 . S
C163 C162 1.349 . S
C163 C179 1.349 . S
C164 C162 1.327 . S
C164 C183 1.429 . S
C164 H188 0.950 . S
C165 C182 1.574 . S
C165 C184 1.368 . S
C165 H189 0.949 . S
H166 C170 0.949 . S
C167 C168 1.349 . S
C167 C169 1.327 . S
C167 H190 0.950 . S
C168 C167 1.349 . S
C168 C180 1.349 . S
C169 C167 1.327 . S
C169 C185 1.429 . S
C169 H191 0.950 . S
C170 H166 0.949 . S
C170 C178 1.574 . S
C170 C186 1.368 . S
H171 C179 0.950 . S
H172 C177 0.950 . S
H173 C178 0.949 . S
H174 C180 0.950 . S
H175 C181 0.950 . S
H176 C182 0.949 . S
C177 H172 0.950 . S
C177 C179 1.327 . S
C177 C183 1.429 . S
C178 C170 1.574 . S
C178 H173 0.949 . S
C178 C184 1.368 . S
C179 C163 1.349 . S
C179 H171 0.950 . S
C179 C177 1.327 . S
C180 C168 1.349 . S
C180 H174 0.950 . S
C180 C181 1.327 . S
C181 H175 0.950 . S
C181 C180 1.327 . S
C181 C185 1.429 . S
C182 C165 1.574 . S
C182 H176 0.949 . S
C182 C186 1.368 . S
C183 C164 1.429 . S
C183 C177 1.429 . S
C183 C184 1.523 . S
C184 C165 1.368 . S
C184 C178 1.368 . S
C184 C183 1.523 . S
C185 C169 1.429 . S
C185 C181 1.429 . S
C185 C186 1.523 . S
C186 C170 1.368 . S
C186 C182 1.368 . S
C186 C185 1.523 . S
H187 C162 0.950 . S
H188 C164 0.950 . S
H189 C165 0.949 . S
H190 C167 0.950 . S
H191 C169 0.950 . S
C192 C193 1.349 . S
C192 C194 1.327 . S
C192 H217 0.950 . S
C193 C192 1.349 . S
C193 C209 1.349 . S
C194 C192 1.327 . S
C194 C213 1.429 . S
C194 H218 0.950 . S
C195 C212 1.574 . S
C195 C214 1.368 . S
C195 H219 0.949 . S
H196 C200 0.949 . S
C197 C198 1.349 . S
C197 C199 1.327 . S
C197 H220 0.950 . S
C198 C197 1.349 . S
C198 C210 1.349 . S
C199 C197 1.327 . S
C199 C215 1.429 . S
C199 H221 0.950 . S
C200 H196 0.949 . S
C200 C208 1.574 . S
C200 C216 1.368 . S
H201 C209 0.950 . S
H202 C207 0.950 . S
H203 C208 0.949 . S
H204 C210 0.950 . S
H205 C211 0.950 . S
H206 C212 0.949 . S
C207 H202 0.950 . S
C207 C209 1.327 . S
C207 C213 1.429 . S
C208 C200 1.574 . S
C208 H203 0.949 . S
C208 C214 1.368 . S
C209 C193 1.349 . S
C209 H201 0.950 . S
C209 C207 1.327 . S
C210 C198 1.349 . S
C210 H204 0.950 . S
C210 C211 1.327 . S
C211 H205 0.950 . S
C211 C210 1.327 . S
C211 C215 1.429 . S
C212 C195 1.574 . S
C212 H206 0.949 . S
C212 C216 1.368 . S
C213 C194 1.429 . S
C213 C207 1.429 . S
C213 C214 1.523 . S
C214 C195 1.368 . S
C214 C208 1.368 . S
C214 C213 1.523 . S
C215 C199 1.429 . S
C215 C211 1.429 . S
C215 C216 1.523 . S
C216 C200 1.368 . S
C216 C212 1.368 . S
C216 C215 1.523 . S
H217 C192 0.950 . S
H218 C194 0.950 . S
H219 C195 0.949 . S
H220 C197 0.950 . S
H221 C199 0.950 . S
C222 C223 1.349 . S
C222 C224 1.327 . S
C222 H247 0.950 . S
C223 C222 1.349 . S
C223 C239 1.349 . S
C224 C222 1.327 . S
C224 C243 1.429 . S
C224 H248 0.950 . S
C225 C242 1.574 . S
C225 C244 1.368 . S
C225 H249 0.949 . S
H226 C230 0.949 . S
C227 C228 1.349 . S
C227 C229 1.327 . S
C227 H250 0.950 . S
C228 C227 1.349 . S
C228 C240 1.349 . S
C229 C227 1.327 . S
C229 C245 1.429 . S
C229 H251 0.950 . S
C230 H226 0.949 . S
C230 C238 1.574 . S
C230 C246 1.368 . S
H231 C239 0.950 . S
H232 C237 0.950 . S
H233 C238 0.949 . S
H234 C240 0.950 . S
H235 C241 0.950 . S
H236 C242 0.949 . S
C237 H232 0.950 . S
C237 C239 1.327 . S
C237 C243 1.429 . S
C238 C230 1.574 . S
C238 H233 0.949 . S
C238 C244 1.368 . S
C239 C223 1.349 . S
C239 H231 0.950 . S
C239 C237 1.327 . S
C240 C228 1.349 . S
C240 H234 0.950 . S
C240 C241 1.327 . S
C241 H235 0.950 . S
C241 C240 1.327 . S
C241 C245 1.429 . S
C242 C225 1.574 . S
C242 H236 0.949 . S
C242 C246 1.368 . S
C243 C224 1.429 . S
C243 C237 1.429 . S
C243 C244 1.523 . S
C244 C225 1.368 . S
C244 C238 1.368 . S
C244 C243 1.523 . S
C245 C229 1.429 . S
C245 C241 1.429 . S
C245 C246 1.523 . S
C246 C230 1.368 . S
C246 C242 1.368 . S
C246 C245 1.523 . S
H247 C222 0.950 . S
H248 C224 0.950 . S
H249 C225 0.949 . S
H250 C227 0.950 . S
H251 C229 0.950 . S
C252 C253 1.349 . S
C252 C254 1.327 . S
C252 H277 0.950 . S
C253 C252 1.349 . S
C253 C269 1.349 . S
C254 C252 1.327 . S
C254 C273 1.429 . S
C254 H278 0.950 . S
C255 C272 1.574 . S
C255 C274 1.368 . S
C255 H279 0.949 . S
H256 C260 0.949 . S
C257 C258 1.349 . S
C257 C259 1.327 . S
C257 H280 0.950 . S
C258 C257 1.349 . S
C258 C270 1.349 . S
C259 C257 1.327 . S
C259 C275 1.429 . S
C259 H281 0.950 . S
C260 H256 0.949 . S
C260 C268 1.574 . S
C260 C276 1.368 . S
H261 C269 0.950 . S
H262 C267 0.950 . S
H263 C268 0.949 . S
H264 C270 0.950 . S
H265 C271 0.950 . S
H266 C272 0.949 . S
C267 H262 0.950 . S
C267 C269 1.327 . S
C267 C273 1.429 . S
C268 C260 1.574 . S
C268 H263 0.949 . S
C268 C274 1.368 . S
C269 C253 1.349 . S
C269 H261 0.950 . S
C269 C267 1.327 . S
C270 C258 1.349 . S
C270 H264 0.950 . S
C270 C271 1.327 . S
C271 H265 0.950 . S
C271 C270 1.327 . S
C271 C275 1.429 . S
C272 C255 1.574 . S
C272 H266 0.949 . S
C272 C276 1.368 . S
C273 C254 1.429 . S
C273 C267 1.429 . S
C273 C274 1.523 . S
C274 C255 1.368 . S
C274 C268 1.368 . S
C274 C273 1.523 . S
C275 C259 1.429 . S
C275 C271 1.429 . S
C275 C276 1.523 . S
C276 C260 1.368 . S
C276 C272 1.368 . S
C276 C275 1.523 . S
H277 C252 0.950 . S
H278 C254 0.950 . S
H279 C255 0.949 . S
H280 C257 0.950 . S
H281 C259 0.950 . S
C282 C283 1.349 . S
C282 C284 1.327 . S
C282 H307 0.950 . S
C283 C282 1.349 . S
C283 C299 1.349 . S
C284 C282 1.327 . S
C284 C303 1.429 . S
C284 H308 0.950 . S
C285 C302 1.574 . S
C285 C304 1.368 . S
C285 H309 0.949 . S
H286 C290 0.949 . S
C287 C288 1.349 . S
C287 C289 1.327 . S
C287 H310 0.950 . S
C288 C287 1.349 . S
C288 C300 1.349 . S
C289 C287 1.327 . S
C289 C305 1.429 . S
C289 H311 0.950 . S
C290 H286 0.949 . S
C290 C298 1.574 . S
C290 C306 1.368 . S
H291 C299 0.950 . S
H292 C297 0.950 . S
H293 C298 0.949 . S
H294 C300 0.950 . S
H295 C301 0.950 . S
H296 C302 0.949 . S
C297 H292 0.950 . S
C297 C299 1.327 . S
C297 C303 1.429 . S
C298 C290 1.574 . S
C298 H293 0.949 . S
C298 C304 1.368 . S
C299 C283 1.349 . S
C299 H291 0.950 . S
C299 C297 1.327 . S
C300 C288 1.349 . S
C300 H294 0.950 . S
C300 C301 1.327 . S
C301 H295 0.950 . S
C301 C300 1.327 . S
C301 C305 1.429 . S
C302 C285 1.574 . S
C302 H296 0.949 . S
C302 C306 1.368 . S
C303 C284 1.429 . S
C303 C297 1.429 . S
C303 C304 1.523 . S
C304 C285 1.368 . S
C304 C298 1.368 . S
C304 C303 1.523 . S
C305 C289 1.429 . S
C305 C301 1.429 . S
C305 C306 1.523 . S
C306 C290 1.368 . S
C306 C302 1.368 . S
C306 C305 1.523 . S
H307 C282 0.950 . S
H308 C284 0.950 . S
H309 C285 0.949 . S
H310 C287 0.950 . S
H311 C289 0.950 . S
C312 C313 1.349 . S
C312 C314 1.327 . S
C312 H337 0.950 . S
C313 C312 1.349 . S
C313 C329 1.349 . S
C314 C312 1.327 . S
C314 C333 1.429 . S
C314 H338 0.950 . S
C315 C332 1.574 . S
C315 C334 1.368 1_554 S
C315 H339 0.949 . S
H316 C320 0.949 . S
C317 C318 1.349 . S
C317 C319 1.327 . S
C317 H340 0.950 . S
C318 C317 1.349 . S
C318 C330 1.349 . S
C319 C317 1.327 . S
C319 C335 1.429 . S
C319 H341 0.950 . S
C320 H316 0.949 . S
C320 C328 1.574 . S
C320 C336 1.368 1_556 S
H321 C329 0.950 . S
H322 C327 0.950 . S
H323 C328 0.949 . S
H324 C330 0.950 . S
H325 C331 0.950 . S
H326 C332 0.949 . S
C327 H322 0.950 . S
C327 C329 1.327 . S
C327 C333 1.429 . S
C328 C320 1.574 . S
C328 H323 0.949 . S
C328 C334 1.368 . S
C329 C313 1.349 . S
C329 H321 0.950 . S
C329 C327 1.327 . S
C330 C318 1.349 . S
C330 H324 0.950 . S
C330 C331 1.327 . S
C331 H325 0.950 . S
C331 C330 1.327 . S
C331 C335 1.429 . S
C332 C315 1.574 . S
C332 H326 0.949 . S
C332 C336 1.368 . S
C333 C314 1.429 . S
C333 C327 1.429 . S
C333 C334 1.523 . S
C334 C315 1.368 1_556 S
C334 C328 1.368 . S
C334 C333 1.523 . S
C335 C319 1.429 . S
C335 C331 1.429 . S
C335 C336 1.523 . S
C336 C320 1.368 1_554 S
C336 C332 1.368 . S
C336 C335 1.523 . S
H337 C312 0.950 . S
H338 C314 0.950 . S
H339 C315 0.949 . S
H340 C317 0.950 . S
H341 C319 0.950 . S
C342 C343 1.349 . S
C342 C344 1.327 . S
C342 H367 0.950 . S
C343 C342 1.349 . S
C343 C359 1.349 . S
C344 C342 1.327 . S
C344 C363 1.429 . S
C344 H368 0.950 . S
C345 C362 1.574 . S
C345 C364 1.368 . S
C345 H369 0.949 . S
H346 C350 0.949 . S
C347 C348 1.349 . S
C347 C349 1.327 . S
C347 H370 0.950 . S
C348 C347 1.349 . S
C348 C360 1.349 . S
C349 C347 1.327 . S
C349 C365 1.429 . S
C349 H371 0.950 . S
C350 H346 0.949 . S
C350 C358 1.574 . S
C350 C366 1.368 . S
H351 C359 0.950 . S
H352 C357 0.950 . S
H353 C358 0.949 . S
H354 C360 0.950 . S
H355 C361 0.950 . S
H356 C362 0.949 . S
C357 H352 0.950 . S
C357 C359 1.327 . S
C357 C363 1.429 . S
C358 C350 1.574 . S
C358 H353 0.949 . S
C358 C364 1.368 1_455 S
C359 C343 1.349 . S
C359 H351 0.950 . S
C359 C357 1.327 . S
C360 C348 1.349 . S
C360 H354 0.950 . S
C360 C361 1.327 . S
C361 H355 0.950 . S
C361 C360 1.327 . S
C361 C365 1.429 . S
C362 C345 1.574 . S
C362 H356 0.949 . S
C362 C366 1.368 1_655 S
C363 C344 1.429 . S
C363 C357 1.429 . S
C363 C364 1.523 . S
C364 C345 1.368 . S
C364 C358 1.368 1_655 S
C364 C363 1.523 . S
C365 C349 1.429 . S
C365 C361 1.429 . S
C365 C366 1.523 . S
C366 C350 1.368 . S
C366 C362 1.368 1_455 S
C366 C365 1.523 . S
H367 C342 0.950 . S
H368 C344 0.950 . S
H369 C345 0.949 . S
H370 C347 0.950 . S
H371 C349 0.950 . S
C372 C373 1.349 . S
C372 C374 1.327 . S
C372 H397 0.950 . S
C373 C372 1.349 . S
C373 C389 1.349 . S
C374 C372 1.327 . S
C374 C393 1.429 . S
C374 H398 0.950 . S
C375 C392 1.574 . S
C375 C394 1.368 1_565 S
C375 H399 0.949 . S
H376 C380 0.949 . S
C377 C378 1.349 . S
C377 C379 1.327 . S
C377 H400 0.950 . S
C378 C377 1.349 . S
C378 C390 1.349 . S
C379 C377 1.327 . S
C379 C395 1.429 . S
C379 H401 0.950 . S
C380 H376 0.949 . S
C380 C388 1.574 . S
C380 C396 1.368 1_545 S
H381 C389 0.950 . S
H382 C387 0.950 . S
H383 C388 0.949 . S
H384 C390 0.950 . S
H385 C391 0.950 . S
H386 C392 0.949 . S
C387 H382 0.950 . S
C387 C389 1.327 . S
C387 C393 1.429 . S
C388 C380 1.574 . S
C388 H383 0.949 . S
C388 C394 1.368 1_554 S
C389 C373 1.349 . S
C389 H381 0.950 . S
C389 C387 1.327 . S
C390 C378 1.349 . S
C390 H384 0.950 . S
C390 C391 1.327 . S
C391 H385 0.950 . S
C391 C390 1.327 . S
C391 C395 1.429 . S
C392 C375 1.574 . S
C392 H386 0.949 . S
C392 C396 1.368 1_556 S
C393 C374 1.429 . S
C393 C387 1.429 . S
C393 C394 1.523 . S
C394 C375 1.368 1_545 S
C394 C388 1.368 1_556 S
C394 C393 1.523 . S
C395 C379 1.429 . S
C395 C391 1.429 . S
C395 C396 1.523 . S
C396 C380 1.368 1_565 S
C396 C392 1.368 1_554 S
C396 C395 1.523 . S
H397 C372 0.950 . S
H398 C374 0.950 . S
H399 C375 0.949 . S
H400 C377 0.950 . S
H401 C379 0.950 . S
C402 C403 1.349 . S
C402 C404 1.327 . S
C402 H427 0.950 . S
C403 C402 1.349 . S
C403 C419 1.349 . S
C404 C402 1.327 . S
C404 C423 1.429 . S
C404 H428 0.950 . S
C405 C422 1.574 . S
C405 C424 1.368 . S
C405 H429 0.949 . S
H406 C410 0.949 . S
C407 C408 1.349 . S
C407 C409 1.327 . S
C407 H430 0.950 . S
C408 C407 1.349 . S
C408 C420 1.349 . S
C409 C407 1.327 . S
C409 C425 1.429 . S
C409 H431 0.950 . S
C410 H406 0.949 . S
C410 C418 1.574 . S
C410 C426 1.368 . S
H411 C419 0.950 . S
H412 C417 0.950 . S
H413 C418 0.949 . S
H414 C420 0.950 . S
H415 C421 0.950 . S
H416 C422 0.949 . S
C417 H412 0.950 . S
C417 C419 1.327 . S
C417 C423 1.429 . S
C418 C410 1.574 . S
C418 H413 0.949 . S
C418 C424 1.368 . S
C419 C403 1.349 . S
C419 H411 0.950 . S
C419 C417 1.327 . S
C420 C408 1.349 . S
C420 H414 0.950 . S
C420 C421 1.327 . S
C421 H415 0.950 . S
C421 C420 1.327 . S
C421 C425 1.429 . S
C422 C405 1.574 . S
C422 H416 0.949 . S
C422 C426 1.368 . S
C423 C404 1.429 . S
C423 C417 1.429 . S
C423 C424 1.523 . S
C424 C405 1.368 . S
C424 C418 1.368 . S
C424 C423 1.523 . S
C425 C409 1.429 . S
C425 C421 1.429 . S
C425 C426 1.523 . S
C426 C410 1.368 . S
C426 C422 1.368 . S
C426 C425 1.523 . S
H427 C402 0.950 . S
H428 C404 0.950 . S
H429 C405 0.949 . S
H430 C407 0.950 . S
H431 C409 0.950 . S
C432 C433 1.349 . S
C432 C434 1.327 . S
C432 H457 0.950 . S
C433 C432 1.349 . S
C433 C449 1.349 . S
C434 C432 1.327 . S
C434 C453 1.429 . S
C434 H458 0.950 . S
C435 C452 1.574 1_655 S
C435 C454 1.368 . S
C435 H459 0.949 . S
H436 C440 0.949 . S
C437 C438 1.349 . S
C437 C439 1.327 . S
C437 H460 0.950 . S
C438 C437 1.349 . S
C438 C450 1.349 . S
C439 C437 1.327 . S
C439 C455 1.429 . S
C439 H461 0.950 . S
C440 H436 0.949 . S
C440 C448 1.574 1_455 S
C440 C456 1.368 . S
H441 C449 0.950 . S
H442 C447 0.950 . S
H443 C448 0.949 . S
H444 C450 0.950 . S
H445 C451 0.950 . S
H446 C452 0.949 . S
C447 H442 0.950 . S
C447 C449 1.327 . S
C447 C453 1.429 . S
C448 C440 1.574 1_655 S
C448 H443 0.949 . S
C448 C454 1.368 1_554 S
C449 C433 1.349 . S
C449 H441 0.950 . S
C449 C447 1.327 . S
C450 C438 1.349 . S
C450 H444 0.950 . S
C450 C451 1.327 . S
C451 H445 0.950 . S
C451 C450 1.327 . S
C451 C455 1.429 . S
C452 C435 1.574 1_455 S
C452 H446 0.949 . S
C452 C456 1.368 1_556 S
C453 C434 1.429 . S
C453 C447 1.429 . S
C453 C454 1.523 . S
C454 C435 1.368 . S
C454 C448 1.368 1_556 S
C454 C453 1.523 . S
C455 C439 1.429 . S
C455 C451 1.429 . S
C455 C456 1.523 . S
C456 C440 1.368 . S
C456 C452 1.368 1_554 S
C456 C455 1.523 . S
H457 C432 0.950 . S
H458 C434 0.950 . S
H459 C435 0.949 . S
H460 C437 0.950 . S
H461 C439 0.950 . S
C462 C463 1.349 . S
C462 C464 1.327 . S
C462 H487 0.950 . S
C463 C462 1.349 . S
C463 C479 1.349 . S
C464 C462 1.327 . S
C464 C483 1.429 . S
C464 H488 0.950 . S
C465 C482 1.574 . S
C465 C484 1.368 1_565 S
C465 H489 0.949 . S
H466 C470 0.949 . S
C467 C468 1.349 . S
C467 C469 1.327 . S
C467 H490 0.950 . S
C468 C467 1.349 . S
C468 C480 1.349 . S
C469 C467 1.327 . S
C469 C485 1.429 . S
C469 H491 0.950 . S
C470 H466 0.949 . S
C470 C478 1.574 . S
C470 C486 1.368 1_545 S
H471 C479 0.950 . S
H472 C477 0.950 . S
H473 C478 0.949 . S
H474 C480 0.950 . S
H475 C481 0.950 . S
H476 C482 0.949 . S
C477 H472 0.950 . S
C477 C479 1.327 . S
C477 C483 1.429 . S
C478 C470 1.574 . S
C478 H473 0.949 . S
C478 C484 1.368 . S
C479 C463 1.349 . S
C479 H471 0.950 . S
C479 C477 1.327 . S
C480 C468 1.349 . S
C480 H474 0.950 . S
C480 C481 1.327 . S
C481 H475 0.950 . S
C481 C480 1.327 . S
C481 C485 1.429 . S
C482 C465 1.574 . S
C482 H476 0.949 . S
C482 C486 1.368 . S
C483 C464 1.429 . S
C483 C477 1.429 . S
C483 C484 1.523 . S
C484 C465 1.368 1_545 S
C484 C478 1.368 . S
C484 C483 1.523 . S
C485 C469 1.429 . S
C485 C481 1.429 . S
C485 C486 1.523 . S
C486 C470 1.368 1_565 S
C486 C482 1.368 . S
C486 C485 1.523 . S
H487 C462 0.950 . S
H488 C464 0.950 . S
H489 C465 0.949 . S
H490 C467 0.950 . S
H491 C469 0.950 . S
C492 C493 1.349 . S
C492 C494 1.327 . S
C492 H517 0.950 . S
C493 C492 1.349 . S
C493 C509 1.349 . S
C494 C492 1.327 . S
C494 C513 1.429 . S
C494 H518 0.950 . S
C495 C512 1.574 . S
C495 C514 1.368 . S
C495 H519 0.949 . S
H496 C500 0.949 . S
C497 C498 1.349 . S
C497 C499 1.327 . S
C497 H520 0.950 . S
C498 C497 1.349 . S
C498 C510 1.349 . S
C499 C497 1.327 . S
C499 C515 1.429 . S
C499 H521 0.950 . S
C500 H496 0.949 . S
C500 C508 1.574 . S
C500 C516 1.368 . S
H501 C509 0.950 . S
H502 C507 0.950 . S
H503 C508 0.949 . S
H504 C510 0.950 . S
H505 C511 0.950 . S
H506 C512 0.949 . S
C507 H502 0.950 . S
C507 C509 1.327 . S
C507 C513 1.429 . S
C508 C500 1.574 . S
C508 H503 0.949 . S
C508 C514 1.368 1_556 S
C509 C493 1.349 . S
C509 H501 0.950 . S
C509 C507 1.327 . S
C510 C498 1.349 . S
C510 H504 0.950 . S
C510 C511 1.327 . S
C511 H505 0.950 . S
C511 C510 1.327 . S
C511 C515 1.429 . S
C512 C495 1.574 . S
C512 H506 0.949 . S
C512 C516 1.368 1_554 S
C513 C494 1.429 . S
C513 C507 1.429 . S
C513 C514 1.523 . S
C514 C495 1.368 . S
C514 C508 1.368 1_554 S
C514 C513 1.523 . S
C515 C499 1.429 . S
C515 C511 1.429 . S
C515 C516 1.523 . S
C516 C500 1.368 . S
C516 C512 1.368 1_556 S
C516 C515 1.523 . S
H517 C492 0.950 . S
H518 C494 0.950 . S
H519 C495 0.949 . S
H520 C497 0.950 . S
H521 C499 0.950 . S
C522 C523 1.349 . S
C522 C524 1.327 . S
C522 H547 0.950 . S
C523 C522 1.349 . S
C523 C539 1.349 . S
C524 C522 1.327 . S
C524 C543 1.429 . S
C524 H548 0.950 . S
C525 C542 1.574 . S
C525 C544 1.368 . S
C525 H549 0.949 . S
H526 C530 0.949 . S
C527 C528 1.349 . S
C527 C529 1.327 . S
C527 H550 0.950 . S
C528 C527 1.349 . S
C528 C540 1.349 . S
C529 C527 1.327 . S
C529 C545 1.429 . S
C529 H551 0.950 . S
C530 H526 0.949 . S
C530 C538 1.574 . S
C530 C546 1.368 . S
H531 C539 0.950 . S
H532 C537 0.950 . S
H533 C538 0.949 . S
H534 C540 0.950 . S
H535 C541 0.950 . S
H536 C542 0.949 . S
C537 H532 0.950 . S
C537 C539 1.327 . S
C537 C543 1.429 . S
C538 C530 1.574 . S
C538 H533 0.949 . S
C538 C544 1.368 1_455 S
C539 C523 1.349 . S
C539 H531 0.950 . S
C539 C537 1.327 . S
C540 C528 1.349 . S
C540 H534 0.950 . S
C540 C541 1.327 . S
C541 H535 0.950 . S
C541 C540 1.327 . S
C541 C545 1.429 . S
C542 C525 1.574 . S
C542 H536 0.949 . S
C542 C546 1.368 1_655 S
C543 C524 1.429 . S
C543 C537 1.429 . S
C543 C544 1.523 . S
C544 C525 1.368 . S
C544 C538 1.368 1_655 S
C544 C543 1.523 . S
C545 C529 1.429 . S
C545 C541 1.429 . S
C545 C546 1.523 . S
C546 C530 1.368 . S
C546 C542 1.368 1_455 S
C546 C545 1.523 . S
H547 C522 0.950 . S
H548 C524 0.950 . S
H549 C525 0.949 . S
H550 C527 0.950 . S
H551 C529 0.950 . S
C552 C553 1.349 . S
C552 C554 1.327 . S
C552 H577 0.950 . S
C553 C552 1.349 . S
C553 C569 1.349 . S
C554 C552 1.327 . S
C554 C573 1.429 . S
C554 H578 0.950 . S
C555 C572 1.574 . S
C555 C574 1.368 1_545 S
C555 H579 0.949 . S
H556 C560 0.949 . S
C557 C558 1.349 . S
C557 C559 1.327 . S
C557 H580 0.950 . S
C558 C557 1.349 . S
C558 C570 1.349 . S
C559 C557 1.327 . S
C559 C575 1.429 . S
C559 H581 0.950 . S
C560 H556 0.949 . S
C560 C568 1.574 . S
C560 C576 1.368 1_565 S
H561 C569 0.950 . S
H562 C567 0.950 . S
H563 C568 0.949 . S
H564 C570 0.950 . S
H565 C571 0.950 . S
H566 C572 0.949 . S
C567 H562 0.950 . S
C567 C569 1.327 . S
C567 C573 1.429 . S
C568 C560 1.574 . S
C568 H563 0.949 . S
C568 C574 1.368 1_556 S
C569 C553 1.349 . S
C569 H561 0.950 . S
C569 C567 1.327 . S
C570 C558 1.349 . S
C570 H564 0.950 . S
C570 C571 1.327 . S
C571 H565 0.950 . S
C571 C570 1.327 . S
C571 C575 1.429 . S
C572 C555 1.574 . S
C572 H566 0.949 . S
C572 C576 1.368 1_554 S
C573 C554 1.429 . S
C573 C567 1.429 . S
C573 C574 1.523 . S
C574 C555 1.368 1_565 S
C574 C568 1.368 1_554 S
C574 C573 1.523 . S
C575 C559 1.429 . S
C575 C571 1.429 . S
C575 C576 1.523 . S
C576 C560 1.368 1_545 S
C576 C572 1.368 1_556 S
C576 C575 1.523 . S
H577 C552 0.950 . S
H578 C554 0.950 . S
H579 C555 0.949 . S
H580 C557 0.950 . S
H581 C559 0.950 . S
C582 C583 1.349 . S
C582 C584 1.327 . S
C582 H607 0.950 . S
C583 C582 1.349 . S
C583 C599 1.349 . S
C584 C582 1.327 . S
C584 C603 1.429 . S
C584 H608 0.950 . S
C585 C602 1.574 . S
C585 C604 1.368 . S
C585 H609 0.949 . S
H586 C590 0.949 . S
C587 C588 1.349 . S
C587 C589 1.327 . S
C587 H610 0.950 . S
C588 C587 1.349 . S
C588 C600 1.349 . S
C589 C587 1.327 . S
C589 C605 1.429 . S
C589 H611 0.950 . S
C590 H586 0.949 . S
C590 C598 1.574 . S
C590 C606 1.368 . S
H591 C599 0.950 . S
H592 C597 0.950 . S
H593 C598 0.949 . S
H594 C600 0.950 . S
H595 C601 0.950 . S
H596 C602 0.949 . S
C597 H592 0.950 . S
C597 C599 1.327 . S
C597 C603 1.429 . S
C598 C590 1.574 . S
C598 H593 0.949 . S
C598 C604 1.368 . S
C599 C583 1.349 . S
C599 H591 0.950 . S
C599 C597 1.327 . S
C600 C588 1.349 . S
C600 H594 0.950 . S
C600 C601 1.327 . S
C601 H595 0.950 . S
C601 C600 1.327 . S
C601 C605 1.429 . S
C602 C585 1.574 . S
C602 H596 0.949 . S
C602 C606 1.368 . S
C603 C584 1.429 . S
C603 C597 1.429 . S
C603 C604 1.523 . S
C604 C585 1.368 . S
C604 C598 1.368 . S
C604 C603 1.523 . S
C605 C589 1.429 . S
C605 C601 1.429 . S
C605 C606 1.523 . S
C606 C590 1.368 . S
C606 C602 1.368 . S
C606 C605 1.523 . S
H607 C582 0.950 . S
H608 C584 0.950 . S
H609 C585 0.949 . S
H610 C587 0.950 . S
H611 C589 0.950 . S
C612 C613 1.349 . S
C612 C614 1.327 . S
C612 H637 0.950 . S
C613 C612 1.349 . S
C613 C629 1.349 . S
C614 C612 1.327 . S
C614 C633 1.429 . S
C614 H638 0.950 . S
C615 C632 1.574 1_656 S
C615 C634 1.368 . S
C615 H639 0.949 . S
H616 C620 0.949 . S
C617 C618 1.349 . S
C617 C619 1.327 . S
C617 H640 0.950 . S
C618 C617 1.349 . S
C618 C630 1.349 . S
C619 C617 1.327 . S
C619 C635 1.429 . S
C619 H641 0.950 . S
C620 H616 0.949 . S
C620 C628 1.574 1_454 S
C620 C636 1.368 . S
H621 C629 0.950 . S
H622 C627 0.950 . S
H623 C628 0.949 . S
H624 C630 0.950 . S
H625 C631 0.950 . S
H626 C632 0.949 . S
C627 H622 0.950 . S
C627 C629 1.327 . S
C627 C633 1.429 . S
C628 C620 1.574 1_656 S
C628 H623 0.949 . S
C628 C634 1.368 . S
C629 C613 1.349 . S
C629 H621 0.950 . S
C629 C627 1.327 . S
C630 C618 1.349 . S
C630 H624 0.950 . S
C630 C631 1.327 . S
C631 H625 0.950 . S
C631 C630 1.327 . S
C631 C635 1.429 . S
C632 C615 1.574 1_454 S
C632 H626 0.949 . S
C632 C636 1.368 . S
C633 C614 1.429 . S
C633 C627 1.429 . S
C633 C634 1.523 . S
C634 C615 1.368 . S
C634 C628 1.368 . S
C634 C633 1.523 . S
C635 C619 1.429 . S
C635 C631 1.429 . S
C635 C636 1.523 . S
C636 C620 1.368 . S
C636 C632 1.368 . S
C636 C635 1.523 . S
H637 C612 0.950 . S
H638 C614 0.950 . S
H639 C615 0.949 . S
H640 C617 0.950 . S
H641 C619 0.950 . S
C642 C643 1.349 . S
C642 C644 1.327 . S
C642 H667 0.950 . S
C643 C642 1.349 . S
C643 C659 1.349 . S
C644 C642 1.327 . S
C644 C663 1.429 . S
C644 H668 0.950 . S
C645 C662 1.574 . S
C645 C664 1.368 . S
C645 H669 0.949 . S
H646 C650 0.949 . S
C647 C648 1.349 . S
C647 C649 1.327 . S
C647 H670 0.950 . S
C648 C647 1.349 . S
C648 C660 1.349 . S
C649 C647 1.327 . S
C649 C665 1.429 . S
C649 H671 0.950 . S
C650 H646 0.949 . S
C650 C658 1.574 . S
C650 C666 1.368 . S
H651 C659 0.950 . S
H652 C657 0.950 . S
H653 C658 0.949 . S
H654 C660 0.950 . S
H655 C661 0.950 . S
H656 C662 0.949 . S
C657 H652 0.950 . S
C657 C659 1.327 . S
C657 C663 1.429 . S
C658 C650 1.574 . S
C658 H653 0.949 . S
C658 C664 1.368 1_545 S
C659 C643 1.349 . S
C659 H651 0.950 . S
C659 C657 1.327 . S
C660 C648 1.349 . S
C660 H654 0.950 . S
C660 C661 1.327 . S
C661 H655 0.950 . S
C661 C660 1.327 . S
C661 C665 1.429 . S
C662 C645 1.574 . S
C662 H656 0.949 . S
C662 C666 1.368 1_565 S
C663 C644 1.429 . S
C663 C657 1.429 . S
C663 C664 1.523 . S
C664 C645 1.368 . S
C664 C658 1.368 1_565 S
C664 C663 1.523 . S
C665 C649 1.429 . S
C665 C661 1.429 . S
C665 C666 1.523 . S
C666 C650 1.368 . S
C666 C662 1.368 1_545 S
C666 C665 1.523 . S
H667 C642 0.950 . S
H668 C644 0.950 . S
H669 C645 0.949 . S
H670 C647 0.950 . S
H671 C649 0.950 . S
C133 C5 1.296 . S
C138 C94 1.296 . S
C163 C28 1.296 . S
C168 C116 1.296 . S
C193 C7 1.296 . S
C198 C50 1.296 . S
C223 C72 1.296 . S
C228 C31 1.296 . S
C253 C53 1.296 . S
C258 C97 1.296 . S
C283 C75 1.296 . S
C288 C119 1.296 . S
C313 C117 1.577 . S
C318 C8 1.577 . S
C343 C29 1.577 . S
C348 C6 1.577 . S
C373 C26 1.577 . S
C378 C51 1.577 . S
C403 C48 1.577 . S
C408 C73 1.577 . S
C433 C70 1.577 . S
C438 C92 1.577 . S
C463 C114 1.577 . S
C468 C95 1.577 . S
C493 C49 1.577 . S
C498 C74 1.577 . S
C523 C71 1.577 . S
C528 C93 1.577 . S
C553 C96 1.577 . S
C558 C115 1.577 . S
C583 C118 1.577 . S
C588 C9 1.577 . S
C613 C30 1.577 . S
C618 C4 1.577 . S
C643 C52 1.577 . S
C648 C27 1.577 . S
