# Generated by pormake.
# Topology mdf, (4)-cn, num edge types: 1
# Building blocks:
#     Node 0, Type 0, BuildingBlock: GALJAG_clean_sbu_0, # of connection points: 4
#     Node 1, Type 0, BuildingBlock: GALJAG_clean_sbu_0, # of connection points: 4
#     Node 2, Type 0, BuildingBlock: GALJAG_clean_sbu_0, # of connection points: 4
#     Node 3, Type 0, BuildingBlock: GALJAG_clean_sbu_0, # of connection points: 4
#     Node 4, Type 0, BuildingBlock: GALJAG_clean_sbu_0, # of connection points: 4
#     Node 5, Type 0, BuildingBlock: GALJAG_clean_sbu_0, # of connection points: 4
#     Node 6, Type 0, BuildingBlock: GALJAG_clean_sbu_0, # of connection points: 4
#     Node 7, Type 0, BuildingBlock: GALJAG_clean_sbu_0, # of connection points: 4
#     Edge 8, Type (0, 0), BuildingBlock: FUNLAD_clean_linker_1, # of connection points: 2
#     Edge 9, Type (0, 0), BuildingBlock: FUNLAD_clean_linker_1, # of connection points: 2
#     Edge 10, Type (0, 0), BuildingBlock: FUNLAD_clean_linker_1, # of connection points: 2
#     Edge 11, Type (0, 0), BuildingBlock: FUNLAD_clean_linker_1, # of connection points: 2
#     Edge 12, Type (0, 0), BuildingBlock: FUNLAD_clean_linker_1, # of connection points: 2
#     Edge 13, Type (0, 0), BuildingBlock: FUNLAD_clean_linker_1, # of connection points: 2
#     Edge 14, Type (0, 0), BuildingBlock: FUNLAD_clean_linker_1, # of connection points: 2
#     Edge 15, Type (0, 0), BuildingBlock: FUNLAD_clean_linker_1, # of connection points: 2
#     Edge 16, Type (0, 0), BuildingBlock: FUNLAD_clean_linker_1, # of connection points: 2
#     Edge 17, Type (0, 0), BuildingBlock: FUNLAD_clean_linker_1, # of connection points: 2
#     Edge 18, Type (0, 0), BuildingBlock: FUNLAD_clean_linker_1, # of connection points: 2
#     Edge 19, Type (0, 0), BuildingBlock: FUNLAD_clean_linker_1, # of connection points: 2
#     Edge 20, Type (0, 0), BuildingBlock: FUNLAD_clean_linker_1, # of connection points: 2
#     Edge 21, Type (0, 0), BuildingBlock: FUNLAD_clean_linker_1, # of connection points: 2
#     Edge 22, Type (0, 0), BuildingBlock: FUNLAD_clean_linker_1, # of connection points: 2
#     Edge 23, Type (0, 0), BuildingBlock: FUNLAD_clean_linker_1, # of connection points: 2
# Relax obj value: 0.054
# Max RMSD: 0.086
# Mean RMSD: 0.086
data_MOF--net-mdf--node1-GALJAG_clean_sbu_0--edge1-FUNLAD_clean_linker_1
_symmetry_space_group_name_H-M    P1
_symmetry_Int_Tables_number       1
_symmetry_cell_setting            triclinic
loop_
_symmetry_equiv_pos_as_xyz
'x, y, z'
_cell_length_a     40.326907
_cell_length_b     40.635803
_cell_length_c     11.234756
_cell_angle_alpha  90.184808
_cell_angle_beta   89.948392
_cell_angle_gamma 89.98031
loop_
_atom_site_label
_atom_site_type_symbol
_atom_site_fract_x
_atom_site_fract_y
_atom_site_fract_z
_atom_type_partial_charge
In0 In 0.2528 0.52133 0.38186 0.0
O1 O 0.25755 0.54496 0.19782 0.0
O2 O 0.28478 0.56572 0.34237 0.0
C3 C 0.20812 0.4729 0.35426 0.0
C4 C 0.30653 0.48229 0.40484 0.0
C5 C 0.21673 0.56173 0.52198 0.0
O6 O 0.21487 0.49278 0.27103 0.0
O7 O 0.22386 0.47747 0.44998 0.0
O8 O 0.24571 0.55285 0.55144 0.0
O9 O 0.20635 0.55001 0.42501 0.0
C10 C 0.2777 0.56675 0.23303 0.0
O11 O 0.29329 0.49605 0.49455 0.0
O12 O 0.29301 0.48861 0.30655 0.0
In13 In 0.48315 0.75151 0.64427 0.0
O14 O 0.46108 0.74884 0.83244 0.0
O15 O 0.44231 0.71637 0.69963 0.0
C16 C 0.52515 0.80274 0.66112 0.0
C17 C 0.52756 0.70225 0.6323 0.0
C18 C 0.4437 0.77574 0.47262 0.0
O19 O 0.50251 0.79814 0.73741 0.0
O20 O 0.52608 0.78207 0.57742 0.0
O21 O 0.46585 0.75464 0.45055 0.0
O22 O 0.44149 0.78436 0.58025 0.0
C23 C 0.44091 0.72618 0.8061 0.0
O24 O 0.50356 0.70412 0.56028 0.0
O25 O 0.52861 0.72452 0.71041 0.0
In26 In 0.26838 0.97711 0.83034 0.0
O27 O 0.27355 0.95785 0.02077 0.0
O28 O 0.30102 0.93409 0.8835 0.0
C29 C 0.22019 0.02182 0.86586 0.0
C30 C 0.32259 0.01495 0.79683 0.0
C31 C 0.23604 0.93907 0.67071 0.0
O32 O 0.22509 0.99834 0.9373 0.0
O33 O 0.23953 0.02278 0.77767 0.0
O34 O 0.25892 0.95847 0.63999 0.0
O35 O 0.22984 0.93878 0.78059 0.0
C36 C 0.2938 0.93546 0.99253 0.0
O37 O 0.31634 0.99036 0.73158 0.0
O38 O 0.30168 0.02038 0.8781 0.0
In39 In 0.02008 0.75641 0.10279 0.0
O40 O 0.99971 0.72128 0.24326 0.0
O41 O 0.9801 0.71756 0.06792 0.0
C42 C 0.06084 0.78863 0.25406 0.0
C43 C 0.06692 0.72711 0.96534 0.0
C44 C 0.97555 0.80221 0.02952 0.0
O45 O 0.03835 0.76956 0.29029 0.0
O46 O 0.06254 0.79165 0.14263 0.0
O47 O 0.98948 0.78248 0.95846 0.0
O48 O 0.98411 0.79902 0.13668 0.0
C49 C 0.97967 0.70715 0.17372 0.0
O50 O 0.05446 0.71344 0.05551 0.0
O51 O 0.05522 0.75514 0.94215 0.0
In52 In 0.74934 0.02747 0.83862 0.0
O53 O 0.77111 0.03957 0.65591 0.0
O54 O 0.78617 0.06884 0.80377 0.0
C55 C 0.69922 0.98665 0.77874 0.0
C56 C 0.79596 0.98665 0.92734 0.0
C57 C 0.7117 0.07319 0.94946 0.0
O58 O 0.7086 0.00978 0.71218 0.0
O59 O 0.71551 0.98353 0.87376 0.0
O60 O 0.73237 0.05583 0.00621 0.0
O61 O 0.71058 0.06772 0.83929 0.0
C62 C 0.7885 0.06323 0.69355 0.0
O63 O 0.7809 0.00738 0.99207 0.0
O64 O 0.78743 0.98656 0.81921 0.0
In65 In 0.99545 0.24219 0.08797 0.0
O66 O 0.9813 0.2334 0.28343 0.0
O67 O 0.95178 0.21121 0.14865 0.0
C68 C 0.04041 0.29057 0.11745 0.0
C69 C 0.03154 0.18847 0.03067 0.0
C70 C 0.9544 0.27523 0.94162 0.0
O71 O 0.02047 0.28248 0.19928 0.0
O72 O 0.03773 0.27428 0.02226 0.0
O73 O 0.97456 0.25389 0.90363 0.0
O74 O 0.95475 0.27966 0.05278 0.0
C75 C 0.9568 0.21534 0.25835 0.0
O76 O 1.00458 0.19521 0.97946 0.0
O77 O 0.04028 0.2087 0.1099 0.0
In78 In 0.75586 0.48473 0.42218 0.0
O79 O 0.77743 0.46959 0.60185 0.0
O80 O 0.79185 0.44209 0.44901 0.0
C81 C 0.7086 0.52584 0.5044 0.0
C82 C 0.80015 0.52628 0.32235 0.0
C83 C 0.71617 0.44168 0.3067 0.0
O84 O 0.71933 0.502 0.56469 0.0
O85 O 0.7223 0.52958 0.40433 0.0
O86 O 0.74216 0.45299 0.25907 0.0
O87 O 0.71059 0.45182 0.41057 0.0
C88 C 0.79424 0.44609 0.56004 0.0
O89 O 0.78012 0.50943 0.26098 0.0
O90 O 0.79787 0.52219 0.4334 0.0
In91 In 0.52833 0.25796 0.6381 0.0
O92 O 0.50656 0.21762 0.75816 0.0
O93 O 0.48228 0.22863 0.59435 0.0
C94 C 0.57526 0.29057 0.75976 0.0
C95 C 0.56834 0.22007 0.50381 0.0
C96 C 0.48813 0.3102 0.60892 0.0
O97 O 0.5528 0.27434 0.81244 0.0
O98 O 0.57406 0.28998 0.64752 0.0
O99 O 0.50249 0.29668 0.52081 0.0
O100 O 0.49435 0.29757 0.70881 0.0
C101 C 0.48302 0.2113 0.68709 0.0
O102 O 0.54981 0.2417 0.45687 0.0
O103 O 0.56643 0.21793 0.61552 0.0
H104 H 0.42073 0.71842 0.98711 0.0
C105 C 0.41836 0.7113 0.89417 0.0
H106 H 0.393 0.68167 0.76897 0.0
H107 H 0.37118 0.58937 0.24114 0.0
H108 H 0.43041 0.58 0.23039 0.0
H109 H 0.46524 0.61126 0.0901 0.0
H110 H 0.44109 0.65216 0.96037 0.0
C111 C 0.39622 0.68818 0.86214 0.0
C112 C 0.37556 0.67044 0.95089 0.0
C113 C 0.39018 0.6465 0.0261 0.0
C114 C 0.37003 0.62819 0.10597 0.0
C115 C 0.38525 0.6042 0.17928 0.0
C116 C 0.41926 0.59844 0.17377 0.0
C117 C 0.43886 0.61605 0.09487 0.0
C118 C 0.42464 0.63967 0.02131 0.0
H119 H 0.28913 0.58765 0.05618 0.0
C120 C 0.29353 0.59029 0.15117 0.0
H121 H 0.31966 0.61549 0.28614 0.0
H122 H 0.33986 0.71449 0.81938 0.0
H123 H 0.2804 0.72365 0.82911 0.0
H124 H 0.24551 0.69224 0.96909 0.0
H125 H 0.26987 0.65157 0.10016 0.0
C126 C 0.31457 0.61344 0.1914 0.0
C127 C 0.33525 0.63342 0.10906 0.0
C128 C 0.32066 0.65753 0.03464 0.0
C129 C 0.34084 0.67589 0.95484 0.0
C130 C 0.32566 0.69973 0.8811 0.0
C131 C 0.29158 0.70531 0.88609 0.0
C132 C 0.27194 0.68764 0.96491 0.0
C133 C 0.2862 0.66416 0.03906 0.0
H134 H 0.43025 0.78667 0.28632 0.0
C135 C 0.42333 0.79075 0.37872 0.0
H136 H 0.39135 0.81516 0.49846 0.0
H137 H 0.36528 0.93646 0.16661 0.0
H138 H 0.39843 0.9608 0.32304 0.0
H139 H 0.42407 0.92623 0.47772 0.0
H140 H 0.41692 0.8671 0.47589 0.0
C141 C 0.39779 0.81063 0.40585 0.0
C142 C 0.38109 0.83099 0.31403 0.0
C143 C 0.3848 0.86569 0.31835 0.0
C144 C 0.3694 0.8857 0.23083 0.0
C145 C 0.37515 0.92012 0.2335 0.0
C146 C 0.39448 0.93445 0.32225 0.0
C147 C 0.40895 0.91499 0.40917 0.0
C148 C 0.40447 0.88102 0.40727 0.0
H149 H 0.30129 0.91595 0.17367 0.0
C150 C 0.30881 0.91345 0.08115 0.0
H151 H 0.33979 0.88871 0.95824 0.0
H152 H 0.36742 0.76535 0.28392 0.0
H153 H 0.33488 0.74086 0.12535 0.0
H154 H 0.30846 0.77558 0.97265 0.0
H155 H 0.31434 0.83497 0.97786 0.0
C156 C 0.33261 0.8918 0.05088 0.0
C157 C 0.34945 0.871 0.14122 0.0
C158 C 0.3461 0.83627 0.13598 0.0
C159 C 0.36171 0.81622 0.22308 0.0
C160 C 0.35694 0.78169 0.21817 0.0
C161 C 0.33809 0.76731 0.12808 0.0
C162 C 0.32319 0.78685 0.04218 0.0
C163 C 0.32687 0.82093 0.04605 0.0
H164 H 0.0784 0.80481 0.43103 0.0
C165 C 0.08324 0.80619 0.33599 0.0
H166 H 0.11381 0.82548 0.20055 0.0
H167 H 0.16307 0.94749 0.50008 0.0
H168 H 0.12917 0.97375 0.35038 0.0
H169 H 0.09567 0.9407 0.21075 0.0
H170 H 0.09573 0.88117 0.22084 0.0
C171 C 0.10928 0.82356 0.29567 0.0
C172 C 0.13086 0.84302 0.37713 0.0
C173 C 0.13124 0.87784 0.36803 0.0
C174 C 0.15108 0.89688 0.44707 0.0
C175 C 0.14953 0.93167 0.43985 0.0
C176 C 0.12989 0.94715 0.35485 0.0
C177 C 0.111 0.92855 0.27636 0.0
C178 C 0.11139 0.89433 0.28291 0.0
H179 H 0.22409 0.92012 0.49096 0.0
C180 C 0.21725 0.91903 0.58445 0.0
H181 H 0.18482 0.8989 0.7127 0.0
H182 H 0.13874 0.77657 0.41037 0.0
H183 H 0.17255 0.75022 0.5605 0.0
H184 H 0.2063 0.78327 0.69954 0.0
H185 H 0.20648 0.84287 0.68879 0.0
C186 C 0.19126 0.90062 0.61896 0.0
C187 C 0.17117 0.88099 0.53324 0.0
C188 C 0.17097 0.84615 0.54172 0.0
C189 C 0.15108 0.82711 0.46283 0.0
C190 C 0.15244 0.79232 0.47043 0.0
C191 C 0.17201 0.77683 0.55562 0.0
C192 C 0.19102 0.79543 0.6338 0.0
C193 C 0.19078 0.82966 0.62691 0.0
H194 H 0.10817 0.72835 0.83604 0.0
C195 C 0.09434 0.71248 0.89585 0.0
H196 H 0.08897 0.66507 0.96763 0.0
H197 H 0.18718 0.64326 0.49002 0.0
H198 H 0.14597 0.67219 0.37266 0.0
H199 H 0.09611 0.69569 0.46785 0.0
H200 H 0.08784 0.69156 0.68036 0.0
C201 C 0.10258 0.68052 0.90569 0.0
C202 C 0.13176 0.66553 0.84336 0.0
C203 C 0.13454 0.66584 0.71713 0.0
C204 C 0.16173 0.64974 0.66069 0.0
C205 C 0.16582 0.6532 0.53609 0.0
C206 C 0.14253 0.66997 0.46789 0.0
C207 C 0.11458 0.68337 0.52158 0.0
C208 C 0.11038 0.68119 0.64443 0.0
H209 H 0.16909 0.58304 0.57499 0.0
C210 C 0.19558 0.58398 0.59267 0.0
H211 H 0.23377 0.60842 0.68592 0.0
H212 H 0.13736 0.66445 0.08656 0.0
H213 H 0.17855 0.635 0.20161 0.0
H214 H 0.22224 0.60265 0.10214 0.0
H215 H 0.22566 0.60011 0.8869 0.0
C216 C 0.20735 0.60694 0.66796 0.0
C217 C 0.18407 0.63036 0.72867 0.0
C218 C 0.18235 0.63141 0.85459 0.0
C219 C 0.15647 0.64935 0.91193 0.0
C220 C 0.15585 0.65052 0.03806 0.0
C221 C 0.17946 0.63386 0.10535 0.0
C222 C 0.20413 0.61569 0.04932 0.0
C223 C 0.20572 0.6144 0.92554 0.0
H224 H 0.81249 0.0747 0.52194 0.0
C225 C 0.81023 0.08241 0.61433 0.0
H226 H 0.82443 0.11741 0.74439 0.0
H227 H 0.94837 0.13108 0.36249 0.0
H228 H 0.96662 0.07911 0.44569 0.0
H229 H 0.9317 0.04912 0.5895 0.0
H230 H 0.8782 0.07079 0.65025 0.0
C231 C 0.8272 0.10877 0.65329 0.0
C232 C 0.84916 0.12769 0.5721 0.0
C233 C 0.88066 0.11498 0.53951 0.0
C234 C 0.90107 0.13259 0.45839 0.0
C235 C 0.93205 0.11896 0.425 0.0
C236 C 0.94282 0.08912 0.47197 0.0
C237 C 0.92314 0.07221 0.5528 0.0
C238 C 0.89242 0.08487 0.58659 0.0
H239 H 0.94274 0.20281 0.44326 0.0
C240 C 0.93622 0.19943 0.35018 0.0
H241 H 0.90323 0.17722 0.22778 0.0
H242 H 0.79087 0.15953 0.62056 0.0
H243 H 0.77294 0.2119 0.53907 0.0
H244 H 0.80839 0.24238 0.39835 0.0
H245 H 0.86217 0.22095 0.3393 0.0
C246 C 0.91029 0.18036 0.32044 0.0
C247 C 0.89012 0.16306 0.41151 0.0
C248 C 0.85895 0.17607 0.446 0.0
C249 C 0.83851 0.15844 0.52692 0.0
C250 C 0.8074 0.17193 0.55945 0.0
C251 C 0.79679 0.20193 0.51326 0.0
C252 C 0.81676 0.21912 0.4341 0.0
C253 C 0.84754 0.20651 0.40076 0.0
H254 H 0.93521 0.29023 0.76593 0.0
C255 C 0.93288 0.29421 0.8613 0.0
H256 H 0.90965 0.32148 0.99815 0.0
H257 H 0.87757 0.44365 0.67302 0.0
H258 H 0.92078 0.46574 0.79971 0.0
H259 H 0.95132 0.42983 0.93817 0.0
H260 H 0.93901 0.37157 0.94983 0.0
C261 C 0.91134 0.31668 0.9031 0.0
C262 C 0.89194 0.33813 0.82176 0.0
C263 C 0.89896 0.37231 0.81792 0.0
C264 C 0.88084 0.39315 0.74005 0.0
C265 C 0.88958 0.42688 0.73379 0.0
C266 C 0.9146 0.43986 0.80525 0.0
C267 C 0.93183 0.41964 0.88305 0.0
C268 C 0.92439 0.38622 0.88912 0.0
H269 H 0.81416 0.42902 0.73181 0.0
C270 C 0.81498 0.42505 0.63612 0.0
H271 H 0.83524 0.39701 0.49524 0.0
H272 H 0.87055 0.27409 0.81366 0.0
H273 H 0.82697 0.25206 0.68853 0.0
H274 H 0.79556 0.28817 0.5531 0.0
H275 H 0.80768 0.34647 0.54186 0.0
C276 C 0.83487 0.40165 0.59057 0.0
C277 C 0.85501 0.3799 0.66873 0.0
C278 C 0.84811 0.34568 0.67216 0.0
C279 C 0.86643 0.32479 0.74938 0.0
C280 C 0.8581 0.29095 0.75437 0.0
C281 C 0.83294 0.27799 0.68353 0.0
C282 C 0.81526 0.29831 0.60734 0.0
C283 C 0.82254 0.33177 0.60165 0.0
H284 H 0.66987 0.41366 0.29294 0.0
C285 C 0.69312 0.41886 0.24765 0.0
H286 H 0.72236 0.40961 0.09529 0.0
H287 H 0.60523 0.29168 0.12827 0.0
H288 H 0.63193 0.27543 0.31245 0.0
H289 H 0.68 0.30618 0.3897 0.0
H290 H 0.70079 0.3542 0.28637 0.0
C291 C 0.69958 0.40418 0.14305 0.0
C292 C 0.67432 0.38238 0.0864 0.0
C293 C 0.66358 0.35325 0.14437 0.0
C294 C 0.63686 0.33458 0.09651 0.0
C295 C 0.62574 0.3065 0.15939 0.0
C296 C 0.6409 0.29681 0.26503 0.0
C297 C 0.66787 0.31421 0.30892 0.0
C298 C 0.67933 0.34196 0.24929 0.0
H299 H 0.62334 0.31565 0.77252 0.0
C300 C 0.60099 0.30961 0.82201 0.0
H301 H 0.57402 0.31675 0.9808 0.0
H302 H 0.68938 0.43637 0.95132 0.0
H303 H 0.66132 0.45397 0.77185 0.0
H304 H 0.61386 0.42263 0.69231 0.0
H305 H 0.59452 0.37334 0.79069 0.0
C306 C 0.59648 0.32233 0.93128 0.0
C307 C 0.62208 0.34398 0.98724 0.0
C308 C 0.63247 0.37346 0.93032 0.0
C309 C 0.65906 0.39224 0.97865 0.0
C310 C 0.66919 0.42126 0.91911 0.0
C311 C 0.65325 0.43173 0.81607 0.0
C312 C 0.62661 0.41403 0.77107 0.0
C313 C 0.61606 0.38543 0.82763 0.0
H314 H 0.67163 0.10973 0.94656 0.0
C315 C 0.68937 0.09757 0.00454 0.0
H316 H 0.70617 0.09214 0.18115 0.0
H317 H 0.61739 0.23222 0.16479 0.0
H318 H 0.66021 0.25291 0.03247 0.0
H319 H 0.7062 0.21712 0.96761 0.0
H320 H 0.70929 0.16033 0.03205 0.0
C321 C 0.68944 0.10486 0.12107 0.0
C322 C 0.66416 0.12786 0.17157 0.0
C323 C 0.66343 0.16143 0.1367 0.0
C324 C 0.63769 0.18252 0.17845 0.0
C325 C 0.63691 0.21551 0.13858 0.0
C326 C 0.66125 0.22764 0.06237 0.0
C327 C 0.68706 0.20744 0.02535 0.0
C328 C 0.68836 0.17476 0.06216 0.0
H329 H 0.60885 0.18439 0.48938 0.0
C330 C 0.59116 0.19849 0.43722 0.0
H331 H 0.57295 0.20808 0.26471 0.0
H332 H 0.65788 0.06485 0.25454 0.0
H333 H 0.61436 0.04411 0.38285 0.0
H334 H 0.56931 0.0805 0.45235 0.0
H335 H 0.56771 0.1379 0.39478 0.0
C336 C 0.5902 0.19406 0.3188 0.0
C337 C 0.61375 0.1706 0.26011 0.0
C338 C 0.61392 0.13679 0.29214 0.0
C339 C 0.63942 0.11558 0.24939 0.0
C340 C 0.6391 0.08207 0.28401 0.0
C341 C 0.6142 0.06979 0.35745 0.0
C342 C 0.5889 0.09029 0.39682 0.0
C343 C 0.58851 0.12332 0.36425 0.0
H344 H 0.34389 0.44941 0.32651 0.0
C345 C 0.33474 0.45923 0.41051 0.0
H346 H 0.34002 0.4583 0.59755 0.0
H347 H 0.40553 0.31579 0.4165 0.0
H348 H 0.34898 0.30084 0.36702 0.0
H349 H 0.30361 0.34126 0.38557 0.0
H350 H 0.31453 0.3969 0.45297 0.0
C351 C 0.3482 0.44847 0.51241 0.0
C352 C 0.37511 0.42318 0.50998 0.0
C353 C 0.36822 0.3905 0.47206 0.0
C354 C 0.3943 0.36697 0.46357 0.0
C355 C 0.3867 0.33462 0.42489 0.0
C356 C 0.35432 0.32568 0.39634 0.0
C357 C 0.32879 0.34845 0.40659 0.0
C358 C 0.33547 0.38044 0.44448 0.0
H359 H 0.45544 0.34837 0.68278 0.0
C360 C 0.46489 0.33813 0.59988 0.0
H361 H 0.46145 0.33926 0.41248 0.0
H362 H 0.39671 0.48324 0.58808 0.0
H363 H 0.45325 0.49803 0.63935 0.0
H364 H 0.49846 0.45732 0.62375 0.0
H365 H 0.48744 0.40154 0.55697 0.0
C366 C 0.45365 0.35015 0.49641 0.0
C367 C 0.42709 0.37578 0.49609 0.0
C368 C 0.43396 0.40839 0.53445 0.0
C369 C 0.40791 0.43201 0.54218 0.0
C370 C 0.41553 0.46435 0.5806 0.0
C371 C 0.44788 0.47318 0.61018 0.0
C372 C 0.47333 0.45024 0.60153 0.0
C373 C 0.46662 0.41824 0.5638 0.0
H374 H 0.65031 0.97763 0.69829 0.0
C375 C 0.66976 0.96663 0.7519 0.0
H376 H 0.68623 0.92533 0.84673 0.0
H377 H 0.55507 0.85307 0.96964 0.0
H378 H 0.57988 0.86243 0.16272 0.0
H379 H 0.62935 0.89754 0.18389 0.0
H380 H 0.65438 0.92339 0.01265 0.0
C381 C 0.66639 0.93584 0.79357 0.0
C382 C 0.63514 0.91638 0.77918 0.0
C383 C 0.6197 0.90277 0.88169 0.0
C384 C 0.59053 0.88329 0.86994 0.0
C385 C 0.57677 0.86864 0.97317 0.0
C386 C 0.59078 0.87377 0.0849 0.0
C387 C 0.61862 0.89354 0.09687 0.0
C388 C 0.63291 0.90805 0.99715 0.0
H389 H 0.57279 0.82549 0.61693 0.0
C390 C 0.5506 0.82851 0.6709 0.0
H391 H 0.52582 0.85783 0.79775 0.0
H392 H 0.66101 0.93254 0.55974 0.0
H393 H 0.63286 0.92864 0.37054 0.0
H394 H 0.57709 0.90387 0.35619 0.0
H395 H 0.54988 0.8819 0.53162 0.0
C396 C 0.5478 0.85482 0.74276 0.0
C397 C 0.576 0.87843 0.75633 0.0
C398 C 0.59008 0.89397 0.65514 0.0
C399 C 0.6207 0.91114 0.66524 0.0
C400 C 0.6364 0.92207 0.55963 0.0
C401 C 0.62073 0.91943 0.44964 0.0
C402 C 0.58945 0.90534 0.44153 0.0
C403 C 0.57425 0.89259 0.54271 0.0
H404 H 0.03875 0.13882 0.9545 0.0
C405 C 0.05094 0.15881 0.00172 0.0
H406 H 0.09495 0.17645 0.0795 0.0
H407 H 0.17122 0.04728 0.18515 0.0
H408 H 0.1618 0.06939 0.38268 0.0
H409 H 0.12471 0.11692 0.41357 0.0
H410 H 0.09689 0.14263 0.24741 0.0
C411 C 0.0831 0.15636 0.03164 0.0
C412 C 0.10287 0.12579 0.01159 0.0
C413 C 0.11806 0.11021 0.11054 0.0
C414 C 0.13885 0.0823 0.09299 0.0
C415 C 0.15473 0.06815 0.19308 0.0
C416 C 0.14958 0.08062 0.30725 0.0
C417 C 0.12871 0.10736 0.32469 0.0
C418 C 0.11303 0.12203 0.22808 0.0
H419 H 0.19675 0.06976 0.83365 0.0
C420 C 0.19453 0.04705 0.88395 0.0
H421 H 0.16631 0.02004 0.00775 0.0
H422 H 0.08143 0.15164 0.79863 0.0
H423 H 0.08591 0.12598 0.60463 0.0
H424 H 0.11454 0.0727 0.57987 0.0
H425 H 0.14007 0.04565 0.74862 0.0
C426 C 0.16856 0.04269 0.9572 0.0
C427 C 0.14376 0.06946 0.97679 0.0
C428 C 0.1265 0.08347 0.87915 0.0
C429 C 0.10745 0.11263 0.89539 0.0
C430 C 0.09401 0.12821 0.79357 0.0
C431 C 0.09675 0.11393 0.68109 0.0
C432 C 0.11304 0.08407 0.66697 0.0
C433 C 0.12785 0.06895 0.76443 0.0
H434 H 0.95766 0.67457 0.3091 0.0
C435 C 0.95696 0.68114 0.21542 0.0
H436 H 0.93468 0.67183 0.04849 0.0
H437 H 0.88507 0.52967 0.2063 0.0
H438 H 0.9293 0.51515 0.0698 0.0
H439 H 0.96582 0.55784 0.98555 0.0
H440 H 0.95843 0.61535 0.03804 0.0
C441 C 0.93507 0.66621 0.14297 0.0
C442 C 0.91164 0.64079 0.18871 0.0
C443 C 0.91569 0.60738 0.15485 0.0
C444 C 0.8942 0.5828 0.20186 0.0
C445 C 0.89992 0.54947 0.17069 0.0
C446 C 0.92541 0.54075 0.093 0.0
C447 C 0.946 0.56478 0.04568 0.0
C448 C 0.94143 0.59771 0.07636 0.0
H449 H 0.82295 0.55309 0.1721 0.0
C450 C 0.82386 0.54949 0.26785 0.0
H451 H 0.84627 0.56355 0.42975 0.0
H452 H 0.89456 0.70299 0.26136 0.0
H453 H 0.84987 0.7177 0.3956 0.0
H454 H 0.81301 0.67515 0.47882 0.0
H455 H 0.82051 0.61765 0.42768 0.0
C456 C 0.84595 0.56639 0.33359 0.0
C457 C 0.86817 0.59182 0.28071 0.0
C458 C 0.8638 0.62534 0.31289 0.0
C459 C 0.88534 0.64986 0.26614 0.0
C460 C 0.87958 0.68323 0.29671 0.0
C461 C 0.85383 0.69208 0.37308 0.0
C462 C 0.83306 0.66813 0.41983 0.0
C463 C 0.83776 0.63516 0.39003 0.0
H464 H 0.37328 0.02533 0.73225 0.0
C465 C 0.35222 0.03567 0.77979 0.0
H466 H 0.33174 0.07694 0.86607 0.0
H467 H 0.45492 0.15984 0.00345 0.0
H468 H 0.43038 0.14772 0.19522 0.0
H469 H 0.38465 0.10777 0.21254 0.0
H470 H 0.36316 0.07971 0.03874 0.0
C471 C 0.35307 0.06701 0.81878 0.0
C472 C 0.3829 0.08864 0.80718 0.0
C473 C 0.39621 0.10385 0.91079 0.0
C474 C 0.42313 0.12638 0.90121 0.0
C475 C 0.43489 0.14217 0.00558 0.0
C476 C 0.42103 0.13545 0.11642 0.0
C477 C 0.39529 0.11295 0.12622 0.0
C478 C 0.38303 0.09718 0.02523 0.0
H479 H 0.43516 0.18717 0.65591 0.0
C480 C 0.45797 0.18558 0.7071 0.0
H481 H 0.48589 0.15739 0.82836 0.0
H482 H 0.36087 0.06857 0.58621 0.0
H483 H 0.38914 0.07607 0.39877 0.0
H484 H 0.44115 0.1079 0.38767 0.0
H485 H 0.46451 0.13314 0.5647 0.0
C486 C 0.46314 0.15935 0.77714 0.0
C487 C 0.43738 0.13307 0.78852 0.0
C488 C 0.42568 0.11605 0.68615 0.0
C489 C 0.39736 0.09526 0.69427 0.0
C490 C 0.38383 0.08223 0.58772 0.0
C491 C 0.39955 0.08683 0.47865 0.0
C492 C 0.42871 0.10487 0.47235 0.0
C493 C 0.44168 0.11945 0.5745 0.0
H494 H 0.82701 0.9649 0.06939 0.0
C495 C 0.82146 0.96408 0.97479 0.0
H496 H 0.83147 0.94117 0.80977 0.0
H497 H 0.96765 0.90025 0.10439 0.0
H498 H 0.98008 0.95863 0.10834 0.0
H499 H 0.93925 0.99928 0.03742 0.0
H500 H 0.88567 0.98186 0.96303 0.0
C501 C 0.83768 0.94271 0.90374 0.0
C502 C 0.86234 0.91858 0.95039 0.0
C503 C 0.89371 0.92921 0.99289 0.0
C504 C 0.91751 0.90569 0.0321 0.0
C505 C 0.94864 0.917 0.0738 0.0
C506 C 0.95615 0.95045 0.07623 0.0
C507 C 0.93315 0.97333 0.03641 0.0
C508 C 0.90235 0.96299 0.99459 0.0
H509 H 0.94433 0.82733 0.89606 0.0
C510 C 0.9507 0.82657 0.98998 0.0
H511 H 0.9424 0.84719 0.16024 0.0
H512 H 0.80457 0.88986 0.87576 0.0
H513 H 0.79202 0.83153 0.87334 0.0
H514 H 0.83292 0.79091 0.94398 0.0
H515 H 0.88668 0.80833 0.01658 0.0
C516 C 0.9355 0.84713 0.06675 0.0
C517 C 0.91023 0.87156 0.02666 0.0
C518 C 0.8787 0.86097 0.98566 0.0
C519 C 0.8549 0.88446 0.94655 0.0
C520 C 0.82365 0.87314 0.90595 0.0
C521 C 0.81605 0.83971 0.90451 0.0
C522 C 0.83908 0.81684 0.94416 0.0
C523 C 0.86999 0.82719 0.98486 0.0
H524 H 0.08222 0.32085 0.05573 0.0
C525 C 0.06538 0.31679 0.12989 0.0
H526 H 0.05058 0.33284 0.30095 0.0
H527 H 0.20493 0.38992 0.23846 0.0
H528 H 0.22161 0.33278 0.25351 0.0
H529 H 0.1798 0.28858 0.26417 0.0
H530 H 0.12107 0.30126 0.25789 0.0
C531 C 0.06796 0.33566 0.22771 0.0
C532 C 0.09318 0.36239 0.23436 0.0
C533 C 0.12741 0.35462 0.24263 0.0
C534 C 0.15148 0.38022 0.24176 0.0
C535 C 0.18553 0.37161 0.24367 0.0
C536 C 0.19548 0.33886 0.25143 0.0
C537 C 0.17195 0.31397 0.25701 0.0
C538 C 0.13829 0.3216 0.25264 0.0
H539 H 0.18006 0.43018 0.41964 0.0
C540 C 0.18372 0.4461 0.34314 0.0
H541 H 0.16864 0.45702 0.16771 0.0
H542 H 0.02967 0.38568 0.21854 0.0
H543 H 0.01284 0.44296 0.21004 0.0
H544 H 0.05445 0.48743 0.21536 0.0
H545 H 0.11316 0.47492 0.22837 0.0
C546 C 0.16616 0.44067 0.24355 0.0
C547 C 0.14123 0.41362 0.23777 0.0
C548 C 0.10699 0.42137 0.23073 0.0
C549 C 0.08296 0.39573 0.22906 0.0
C550 C 0.04896 0.40418 0.22102 0.0
C551 C 0.03895 0.43696 0.21603 0.0
C552 C 0.06238 0.46199 0.21893 0.0
C553 C 0.09602 0.45446 0.22629 0.0
H554 H 0.57829 0.68471 0.65914 0.0
C555 C 0.5544 0.67801 0.62147 0.0
H556 H 0.52664 0.64199 0.53096 0.0
H557 H 0.64678 0.57045 0.28174 0.0
H558 H 0.61002 0.58248 0.11775 0.0
H559 H 0.55957 0.61581 0.14823 0.0
H560 H 0.5451 0.63633 0.34379 0.0
C561 C 0.55058 0.64863 0.56827 0.0
C562 C 0.57949 0.62603 0.55155 0.0
C563 C 0.58807 0.6151 0.43547 0.0
C564 C 0.6179 0.59706 0.41687 0.0
C565 C 0.62508 0.58519 0.30081 0.0
C566 C 0.60409 0.59183 0.20555 0.0
C567 C 0.57565 0.61047 0.22285 0.0
C568 C 0.56762 0.62207 0.33606 0.0
H569 H 0.66424 0.53573 0.61322 0.0
C570 C 0.67992 0.54555 0.54311 0.0
H571 H 0.68755 0.58328 0.41849 0.0
H572 H 0.56566 0.63359 0.78915 0.0
H573 H 0.60364 0.62451 0.95291 0.0
H574 H 0.65981 0.60251 0.91656 0.0
H575 H 0.67777 0.58851 0.71689 0.0
C576 C 0.67192 0.57399 0.48977 0.0
C577 C 0.63988 0.59122 0.51328 0.0
C578 C 0.63106 0.60182 0.62969 0.0
C579 C 0.59995 0.61738 0.64956 0.0
C580 C 0.59005 0.62413 0.76817 0.0
C581 C 0.61145 0.61861 0.86318 0.0
C582 C 0.64298 0.60609 0.8427 0.0
C583 C 0.65283 0.5978 0.72754 0.0
loop_
_geom_bond_atom_site_label_1
_geom_bond_atom_site_label_2
_geom_bond_distance
_geom_bond_site_symmetry_2
_ccdc_geom_bond_type
In0 O1 2.294 . S
In0 O2 2.326 . S
In0 O6 2.266 . S
In0 O7 2.326 . S
In0 O8 2.266 . S
In0 O9 2.326 . S
In0 O11 2.294 . S
In0 O12 2.326 . S
O1 In0 2.294 . S
O1 C10 1.240 . S
O2 In0 2.326 . S
O2 C10 1.252 . S
C3 O6 1.252 . S
C3 O7 1.260 . S
C4 O11 1.240 . S
C4 O12 1.252 . S
C5 O8 1.252 . S
C5 O9 1.260 . S
O6 In0 2.266 . S
O6 C3 1.252 . S
O7 In0 2.326 . S
O7 C3 1.260 . S
O8 In0 2.266 . S
O8 C5 1.252 . S
O9 In0 2.326 . S
O9 C5 1.260 . S
C10 O1 1.240 . S
C10 O2 1.252 . S
O11 In0 2.294 . S
O11 C4 1.240 . S
O12 In0 2.326 . S
O12 C4 1.252 . S
In13 O14 2.294 . S
In13 O15 2.326 . S
In13 O19 2.266 . S
In13 O20 2.326 . S
In13 O21 2.266 . S
In13 O22 2.326 . S
In13 O24 2.294 . S
In13 O25 2.326 . S
O14 In13 2.294 . S
O14 C23 1.240 . S
O15 In13 2.326 . S
O15 C23 1.252 . S
C16 O19 1.252 . S
C16 O20 1.260 . S
C17 O24 1.240 . S
C17 O25 1.252 . S
C18 O21 1.252 . S
C18 O22 1.260 . S
O19 In13 2.266 . S
O19 C16 1.252 . S
O20 In13 2.326 . S
O20 C16 1.260 . S
O21 In13 2.266 . S
O21 C18 1.252 . S
O22 In13 2.326 . S
O22 C18 1.260 . S
C23 O14 1.240 . S
C23 O15 1.252 . S
O24 In13 2.294 . S
O24 C17 1.240 . S
O25 In13 2.326 . S
O25 C17 1.252 . S
In26 O27 2.294 1_556 S
In26 O28 2.326 . S
In26 O32 2.266 1_565 S
In26 O33 2.326 1_565 S
In26 O34 2.266 . S
In26 O35 2.326 . S
In26 O37 2.294 1_565 S
In26 O38 2.326 1_565 S
O27 In26 2.294 1_554 S
O27 C36 1.240 . S
O28 In26 2.326 . S
O28 C36 1.252 1_556 S
C29 O32 1.252 . S
C29 O33 1.260 . S
C30 O37 1.240 . S
C30 O38 1.252 . S
C31 O34 1.252 . S
C31 O35 1.260 . S
O32 In26 2.266 1_545 S
O32 C29 1.252 . S
O33 In26 2.326 1_545 S
O33 C29 1.260 . S
O34 In26 2.266 . S
O34 C31 1.252 . S
O35 In26 2.326 . S
O35 C31 1.260 . S
C36 O27 1.240 . S
C36 O28 1.252 1_554 S
O37 In26 2.294 1_545 S
O37 C30 1.240 . S
O38 In26 2.326 1_545 S
O38 C30 1.252 . S
In39 O40 2.294 1_455 S
In39 O41 2.326 1_455 S
In39 O45 2.266 . S
In39 O46 2.326 . S
In39 O47 2.266 1_455 S
In39 O48 2.326 1_455 S
In39 O50 2.294 1_554 S
In39 O51 2.326 . S
O40 In39 2.294 1_655 S
O40 C49 1.240 . S
O41 In39 2.326 1_655 S
O41 C49 1.252 . S
C42 O45 1.252 . S
C42 O46 1.260 . S
C43 O50 1.240 . S
C43 O51 1.252 1_556 S
C44 O47 1.252 . S
C44 O48 1.260 . S
O45 In39 2.266 . S
O45 C42 1.252 . S
O46 In39 2.326 . S
O46 C42 1.260 . S
O47 In39 2.266 1_655 S
O47 C44 1.252 . S
O48 In39 2.326 1_655 S
O48 C44 1.260 . S
C49 O40 1.240 . S
C49 O41 1.252 . S
O50 In39 2.294 1_556 S
O50 C43 1.240 . S
O51 In39 2.326 . S
O51 C43 1.252 1_554 S
In52 O53 2.294 . S
In52 O54 2.326 . S
In52 O58 2.253 1_545 S
In52 O59 2.326 1_545 S
In52 O60 2.266 1_556 S
In52 O61 2.326 . S
In52 O63 2.294 1_545 S
In52 O64 2.326 1_545 S
O53 In52 2.294 . S
O53 C62 1.240 . S
O54 In52 2.326 . S
O54 C62 1.252 . S
C55 O58 1.273 . S
C55 O59 1.260 . S
C56 O63 1.240 . S
C56 O64 1.252 . S
C57 O60 1.252 1_556 S
C57 O61 1.260 . S
O58 In52 2.253 1_565 S
O58 C55 1.273 . S
O59 In52 2.326 1_565 S
O59 C55 1.260 . S
O60 In52 2.266 1_554 S
O60 C57 1.252 1_554 S
O61 In52 2.326 . S
O61 C57 1.260 . S
C62 O53 1.240 . S
C62 O54 1.252 . S
O63 In52 2.294 1_565 S
O63 C56 1.240 . S
O64 In52 2.326 1_565 S
O64 C56 1.252 . S
In65 O66 2.294 . S
In65 O67 2.326 . S
In65 O71 2.253 1_655 S
In65 O72 2.326 1_655 S
In65 O73 2.266 1_554 S
In65 O74 2.326 . S
In65 O76 2.294 1_655 S
In65 O77 2.326 1_655 S
O66 In65 2.294 . S
O66 C75 1.240 . S
O67 In65 2.326 . S
O67 C75 1.252 . S
C68 O71 1.273 . S
C68 O72 1.260 . S
C69 O76 1.240 . S
C69 O77 1.252 . S
C70 O73 1.252 1_554 S
C70 O74 1.260 . S
O71 In65 2.253 1_455 S
O71 C68 1.273 . S
O72 In65 2.326 1_455 S
O72 C68 1.260 . S
O73 In65 2.266 1_556 S
O73 C70 1.252 1_556 S
O74 In65 2.326 . S
O74 C70 1.260 . S
C75 O66 1.240 . S
C75 O67 1.252 . S
O76 In65 2.294 1_455 S
O76 C69 1.240 . S
O77 In65 2.326 1_455 S
O77 C69 1.252 . S
In78 O79 2.294 . S
In78 O80 2.326 . S
In78 O84 2.266 . S
In78 O85 2.326 . S
In78 O86 2.266 . S
In78 O87 2.326 . S
In78 O89 2.294 . S
In78 O90 2.326 . S
O79 In78 2.294 . S
O79 C88 1.240 . S
O80 In78 2.326 . S
O80 C88 1.252 . S
C81 O84 1.252 . S
C81 O85 1.260 . S
C82 O89 1.240 . S
C82 O90 1.252 . S
C83 O86 1.252 . S
C83 O87 1.260 . S
O84 In78 2.266 . S
O84 C81 1.252 . S
O85 In78 2.326 . S
O85 C81 1.260 . S
O86 In78 2.266 . S
O86 C83 1.252 . S
O87 In78 2.326 . S
O87 C83 1.260 . S
C88 O79 1.240 . S
C88 O80 1.252 . S
O89 In78 2.294 . S
O89 C82 1.240 . S
O90 In78 2.326 . S
O90 C82 1.252 . S
In91 O92 2.294 . S
In91 O93 2.326 . S
In91 O97 2.266 . S
In91 O98 2.326 . S
In91 O99 2.266 . S
In91 O100 2.326 . S
In91 O102 2.294 . S
In91 O103 2.326 . S
O92 In91 2.294 . S
O92 C101 1.240 . S
O93 In91 2.326 . S
O93 C101 1.252 . S
C94 O97 1.252 . S
C94 O98 1.260 . S
C95 O102 1.240 . S
C95 O103 1.252 . S
C96 O99 1.252 . S
C96 O100 1.260 . S
O97 In91 2.266 . S
O97 C94 1.252 . S
O98 In91 2.326 . S
O98 C94 1.260 . S
O99 In91 2.266 . S
O99 C96 1.252 . S
O100 In91 2.326 . S
O100 C96 1.260 . S
C101 O92 1.240 . S
C101 O93 1.252 . S
O102 In91 2.294 . S
O102 C95 1.240 . S
O103 In91 2.326 . S
O103 C95 1.252 . S
H104 C105 0.951 . S
C105 H104 0.951 . S
C105 C111 1.265 . S
H106 C111 0.950 . S
H107 C115 0.949 1_554 S
H108 C116 0.950 . S
H109 C117 0.951 . S
H110 C118 0.951 . S
C111 C105 1.265 . S
C111 H106 0.950 . S
C111 C112 1.478 . S
C112 C111 1.478 . S
C112 C113 1.397 . S
C112 C129 1.394 1_556 S
C113 C112 1.397 . S
C113 C114 1.438 . S
C113 C118 1.429 . S
C114 C113 1.438 . S
C114 C115 1.428 . S
C114 C127 1.394 1_556 S
C115 H107 0.949 1_556 S
C115 C114 1.428 . S
C115 C116 1.345 . S
C116 H108 0.950 . S
C116 C115 1.345 . S
C116 C117 1.424 . S
C117 H109 0.951 . S
C117 C116 1.424 . S
C117 C118 1.347 . S
C118 H110 0.951 . S
C118 C113 1.429 . S
C118 C117 1.347 . S
H119 C120 0.951 . S
C120 H119 0.951 . S
C120 C126 1.265 . S
H121 C126 0.950 . S
H122 C130 0.949 1_556 S
H123 C131 0.950 . S
H124 C132 0.951 . S
H125 C133 0.951 . S
C126 C120 1.265 . S
C126 H121 0.950 . S
C126 C127 1.478 . S
C127 C114 1.394 1_554 S
C127 C126 1.478 . S
C127 C128 1.397 . S
C128 C127 1.397 . S
C128 C129 1.438 . S
C128 C133 1.429 . S
C129 C112 1.394 1_554 S
C129 C128 1.438 . S
C129 C130 1.428 . S
C130 H122 0.949 1_554 S
C130 C129 1.428 . S
C130 C131 1.345 . S
C131 H123 0.950 . S
C131 C130 1.345 . S
C131 C132 1.424 . S
C132 H124 0.951 . S
C132 C131 1.424 . S
C132 C133 1.347 . S
C133 H125 0.951 . S
C133 C128 1.429 . S
C133 C132 1.347 . S
H134 C135 0.951 . S
C135 H134 0.951 . S
C135 C141 1.265 . S
H136 C141 0.950 . S
H137 C145 0.949 . S
H138 C146 0.950 . S
H139 C147 0.951 . S
H140 C148 0.951 . S
C141 C135 1.265 . S
C141 H136 0.950 . S
C141 C142 1.478 . S
C142 C141 1.478 . S
C142 C143 1.397 . S
C142 C159 1.394 . S
C143 C142 1.397 . S
C143 C144 1.438 . S
C143 C148 1.429 . S
C144 C143 1.438 . S
C144 C145 1.428 . S
C144 C157 1.394 . S
C145 H137 0.949 . S
C145 C144 1.428 . S
C145 C146 1.345 . S
C146 H138 0.950 . S
C146 C145 1.345 . S
C146 C147 1.424 . S
C147 H139 0.951 . S
C147 C146 1.424 . S
C147 C148 1.347 . S
C148 H140 0.951 . S
C148 C143 1.429 . S
C148 C147 1.347 . S
H149 C150 0.951 . S
C150 H149 0.951 . S
C150 C156 1.265 . S
H151 C156 0.950 . S
H152 C160 0.949 . S
H153 C161 0.950 . S
H154 C162 0.951 . S
H155 C163 0.951 1_556 S
C156 C150 1.265 . S
C156 H151 0.950 . S
C156 C157 1.478 . S
C157 C144 1.394 . S
C157 C156 1.478 . S
C157 C158 1.397 . S
C158 C157 1.397 . S
C158 C159 1.438 . S
C158 C163 1.429 . S
C159 C142 1.394 . S
C159 C158 1.438 . S
C159 C160 1.428 . S
C160 H152 0.949 . S
C160 C159 1.428 . S
C160 C161 1.345 . S
C161 H153 0.950 . S
C161 C160 1.345 . S
C161 C162 1.424 1_554 S
C162 H154 0.951 . S
C162 C161 1.424 1_556 S
C162 C163 1.347 1_556 S
C163 H155 0.951 1_554 S
C163 C158 1.429 . S
C163 C162 1.347 1_554 S
H164 C165 0.951 . S
C165 H164 0.951 . S
C165 C171 1.265 . S
H166 C171 0.950 . S
H167 C175 0.949 . S
H168 C176 0.950 . S
H169 C177 0.951 . S
H170 C178 0.951 . S
C171 C165 1.265 . S
C171 H166 0.950 . S
C171 C172 1.478 . S
C172 C171 1.478 . S
C172 C173 1.397 . S
C172 C189 1.394 . S
C173 C172 1.397 . S
C173 C174 1.438 . S
C173 C178 1.429 . S
C174 C173 1.438 . S
C174 C175 1.428 . S
C174 C187 1.394 . S
C175 H167 0.949 . S
C175 C174 1.428 . S
C175 C176 1.345 . S
C176 H168 0.950 . S
C176 C175 1.345 . S
C176 C177 1.424 . S
C177 H169 0.951 . S
C177 C176 1.424 . S
C177 C178 1.347 . S
C178 H170 0.951 . S
C178 C173 1.429 . S
C178 C177 1.347 . S
H179 C180 0.951 . S
C180 H179 0.951 . S
C180 C186 1.265 . S
H181 C186 0.950 . S
H182 C190 0.949 . S
H183 C191 0.950 . S
H184 C192 0.951 . S
H185 C193 0.951 . S
C186 C180 1.265 . S
C186 H181 0.950 . S
C186 C187 1.478 . S
C187 C174 1.394 . S
C187 C186 1.478 . S
C187 C188 1.397 . S
C188 C187 1.397 . S
C188 C189 1.438 . S
C188 C193 1.429 . S
C189 C172 1.394 . S
C189 C188 1.438 . S
C189 C190 1.428 . S
C190 H182 0.949 . S
C190 C189 1.428 . S
C190 C191 1.345 . S
C191 H183 0.950 . S
C191 C190 1.345 . S
C191 C192 1.424 . S
C192 H184 0.951 . S
C192 C191 1.424 . S
C192 C193 1.347 . S
C193 H185 0.951 . S
C193 C188 1.429 . S
C193 C192 1.347 . S
H194 C195 0.951 . S
C195 H194 0.951 . S
C195 C201 1.265 . S
H196 C201 0.950 . S
H197 C205 0.949 . S
H198 C206 0.950 . S
H199 C207 0.951 . S
H200 C208 0.951 . S
C201 C195 1.265 . S
C201 H196 0.950 . S
C201 C202 1.478 . S
C202 C201 1.478 . S
C202 C203 1.397 . S
C202 C219 1.394 . S
C203 C202 1.397 . S
C203 C204 1.438 . S
C203 C208 1.429 . S
C204 C203 1.438 . S
C204 C205 1.428 . S
C204 C217 1.394 . S
C205 H197 0.949 . S
C205 C204 1.428 . S
C205 C206 1.345 . S
C206 H198 0.950 . S
C206 C205 1.345 . S
C206 C207 1.424 . S
C207 H199 0.951 . S
C207 C206 1.424 . S
C207 C208 1.347 . S
C208 H200 0.951 . S
C208 C203 1.429 . S
C208 C207 1.347 . S
H209 C210 0.951 . S
C210 H209 0.951 . S
C210 C216 1.265 . S
H211 C216 0.950 . S
H212 C220 0.949 1_554 S
H213 C221 0.950 . S
H214 C222 0.951 1_554 S
H215 C223 0.951 . S
C216 C210 1.265 . S
C216 H211 0.950 . S
C216 C217 1.478 . S
C217 C204 1.394 . S
C217 C216 1.478 . S
C217 C218 1.397 . S
C218 C217 1.397 . S
C218 C219 1.438 . S
C218 C223 1.429 . S
C219 C202 1.394 . S
C219 C218 1.438 . S
C219 C220 1.428 . S
C220 H212 0.949 1_556 S
C220 C219 1.428 . S
C220 C221 1.345 1_556 S
C221 H213 0.950 . S
C221 C220 1.345 1_554 S
C221 C222 1.424 1_554 S
C222 H214 0.951 1_556 S
C222 C221 1.424 1_556 S
C222 C223 1.347 . S
C223 H215 0.951 . S
C223 C218 1.429 . S
C223 C222 1.347 . S
H224 C225 0.951 . S
C225 H224 0.951 . S
C225 C231 1.265 . S
H226 C231 0.950 . S
H227 C235 0.949 . S
H228 C236 0.950 . S
H229 C237 0.951 . S
H230 C238 0.951 . S
C231 C225 1.265 . S
C231 H226 0.950 . S
C231 C232 1.478 . S
C232 C231 1.478 . S
C232 C233 1.397 . S
C232 C249 1.394 . S
C233 C232 1.397 . S
C233 C234 1.438 . S
C233 C238 1.429 . S
C234 C233 1.438 . S
C234 C235 1.428 . S
C234 C247 1.394 . S
C235 H227 0.949 . S
C235 C234 1.428 . S
C235 C236 1.345 . S
C236 H228 0.950 . S
C236 C235 1.345 . S
C236 C237 1.424 . S
C237 H229 0.951 . S
C237 C236 1.424 . S
C237 C238 1.347 . S
C238 H230 0.951 . S
C238 C233 1.429 . S
C238 C237 1.347 . S
H239 C240 0.951 . S
C240 H239 0.951 . S
C240 C246 1.265 . S
H241 C246 0.950 . S
H242 C250 0.949 . S
H243 C251 0.950 . S
H244 C252 0.951 . S
H245 C253 0.951 . S
C246 C240 1.265 . S
C246 H241 0.950 . S
C246 C247 1.478 . S
C247 C234 1.394 . S
C247 C246 1.478 . S
C247 C248 1.397 . S
C248 C247 1.397 . S
C248 C249 1.438 . S
C248 C253 1.429 . S
C249 C232 1.394 . S
C249 C248 1.438 . S
C249 C250 1.428 . S
C250 H242 0.949 . S
C250 C249 1.428 . S
C250 C251 1.345 . S
C251 H243 0.950 . S
C251 C250 1.345 . S
C251 C252 1.424 . S
C252 H244 0.951 . S
C252 C251 1.424 . S
C252 C253 1.347 . S
C253 H245 0.951 . S
C253 C248 1.429 . S
C253 C252 1.347 . S
H254 C255 0.951 . S
C255 H254 0.951 . S
C255 C261 1.265 . S
H256 C261 0.950 . S
H257 C265 0.949 . S
H258 C266 0.950 . S
H259 C267 0.951 . S
H260 C268 0.951 1_554 S
C261 C255 1.265 . S
C261 H256 0.950 . S
C261 C262 1.478 . S
C262 C261 1.478 . S
C262 C263 1.397 . S
C262 C279 1.394 . S
C263 C262 1.397 . S
C263 C264 1.438 . S
C263 C268 1.429 . S
C264 C263 1.438 . S
C264 C265 1.428 . S
C264 C277 1.394 . S
C265 H257 0.949 . S
C265 C264 1.428 . S
C265 C266 1.345 . S
C266 H258 0.950 . S
C266 C265 1.345 . S
C266 C267 1.424 1_556 S
C267 H259 0.951 . S
C267 C266 1.424 1_554 S
C267 C268 1.347 1_554 S
C268 H260 0.951 1_556 S
C268 C263 1.429 . S
C268 C267 1.347 1_556 S
H269 C270 0.951 . S
C270 H269 0.951 . S
C270 C276 1.265 . S
H271 C276 0.950 . S
H272 C280 0.949 . S
H273 C281 0.950 . S
H274 C282 0.951 . S
H275 C283 0.951 . S
C276 C270 1.265 . S
C276 H271 0.950 . S
C276 C277 1.478 . S
C277 C264 1.394 . S
C277 C276 1.478 . S
C277 C278 1.397 . S
C278 C277 1.397 . S
C278 C279 1.438 . S
C278 C283 1.429 . S
C279 C262 1.394 . S
C279 C278 1.438 . S
C279 C280 1.428 . S
C280 H272 0.949 . S
C280 C279 1.428 . S
C280 C281 1.345 . S
C281 H273 0.950 . S
C281 C280 1.345 . S
C281 C282 1.424 . S
C282 H274 0.951 . S
C282 C281 1.424 . S
C282 C283 1.347 . S
C283 H275 0.951 . S
C283 C278 1.429 . S
C283 C282 1.347 . S
H284 C285 0.951 . S
C285 H284 0.951 . S
C285 C291 1.265 . S
H286 C291 0.950 . S
H287 C295 0.949 . S
H288 C296 0.950 . S
H289 C297 0.951 . S
H290 C298 0.951 . S
C291 C285 1.265 . S
C291 H286 0.950 . S
C291 C292 1.478 . S
C292 C291 1.478 . S
C292 C293 1.397 . S
C292 C309 1.394 1_554 S
C293 C292 1.397 . S
C293 C294 1.438 . S
C293 C298 1.429 . S
C294 C293 1.438 . S
C294 C295 1.428 . S
C294 C307 1.394 1_554 S
C295 H287 0.949 . S
C295 C294 1.428 . S
C295 C296 1.345 . S
C296 H288 0.950 . S
C296 C295 1.345 . S
C296 C297 1.424 . S
C297 H289 0.951 . S
C297 C296 1.424 . S
C297 C298 1.347 . S
C298 H290 0.951 . S
C298 C293 1.429 . S
C298 C297 1.347 . S
H299 C300 0.951 . S
C300 H299 0.951 . S
C300 C306 1.265 . S
H301 C306 0.950 . S
H302 C310 0.949 . S
H303 C311 0.950 . S
H304 C312 0.951 . S
H305 C313 0.951 . S
C306 C300 1.265 . S
C306 H301 0.950 . S
C306 C307 1.478 . S
C307 C294 1.394 1_556 S
C307 C306 1.478 . S
C307 C308 1.397 . S
C308 C307 1.397 . S
C308 C309 1.438 . S
C308 C313 1.429 . S
C309 C292 1.394 1_556 S
C309 C308 1.438 . S
C309 C310 1.428 . S
C310 H302 0.949 . S
C310 C309 1.428 . S
C310 C311 1.345 . S
C311 H303 0.950 . S
C311 C310 1.345 . S
C311 C312 1.424 . S
C312 H304 0.951 . S
C312 C311 1.424 . S
C312 C313 1.347 . S
C313 H305 0.951 . S
C313 C308 1.429 . S
C313 C312 1.347 . S
H314 C315 0.951 . S
C315 H314 0.951 . S
C315 C321 1.265 . S
H316 C321 0.950 . S
H317 C325 0.949 . S
H318 C326 0.950 . S
H319 C327 0.951 1_556 S
H320 C328 0.951 . S
C321 C315 1.265 . S
C321 H316 0.950 . S
C321 C322 1.478 . S
C322 C321 1.478 . S
C322 C323 1.397 . S
C322 C339 1.394 . S
C323 C322 1.397 . S
C323 C324 1.438 . S
C323 C328 1.429 . S
C324 C323 1.438 . S
C324 C325 1.428 . S
C324 C337 1.394 . S
C325 H317 0.949 . S
C325 C324 1.428 . S
C325 C326 1.345 . S
C326 H318 0.950 . S
C326 C325 1.345 . S
C326 C327 1.424 . S
C327 H319 0.951 1_554 S
C327 C326 1.424 . S
C327 C328 1.347 . S
C328 H320 0.951 . S
C328 C323 1.429 . S
C328 C327 1.347 . S
H329 C330 0.951 . S
C330 H329 0.951 . S
C330 C336 1.265 . S
H331 C336 0.950 . S
H332 C340 0.949 . S
H333 C341 0.950 . S
H334 C342 0.951 . S
H335 C343 0.951 . S
C336 C330 1.265 . S
C336 H331 0.950 . S
C336 C337 1.478 . S
C337 C324 1.394 . S
C337 C336 1.478 . S
C337 C338 1.397 . S
C338 C337 1.397 . S
C338 C339 1.438 . S
C338 C343 1.429 . S
C339 C322 1.394 . S
C339 C338 1.438 . S
C339 C340 1.428 . S
C340 H332 0.949 . S
C340 C339 1.428 . S
C340 C341 1.345 . S
C341 H333 0.950 . S
C341 C340 1.345 . S
C341 C342 1.424 . S
C342 H334 0.951 . S
C342 C341 1.424 . S
C342 C343 1.347 . S
C343 H335 0.951 . S
C343 C338 1.429 . S
C343 C342 1.347 . S
H344 C345 0.951 . S
C345 H344 0.951 . S
C345 C351 1.265 . S
H346 C351 0.950 . S
H347 C355 0.949 . S
H348 C356 0.950 . S
H349 C357 0.951 . S
H350 C358 0.951 . S
C351 C345 1.265 . S
C351 H346 0.950 . S
C351 C352 1.478 . S
C352 C351 1.478 . S
C352 C353 1.397 . S
C352 C369 1.394 . S
C353 C352 1.397 . S
C353 C354 1.438 . S
C353 C358 1.429 . S
C354 C353 1.438 . S
C354 C355 1.428 . S
C354 C367 1.394 . S
C355 H347 0.949 . S
C355 C354 1.428 . S
C355 C356 1.345 . S
C356 H348 0.950 . S
C356 C355 1.345 . S
C356 C357 1.424 . S
C357 H349 0.951 . S
C357 C356 1.424 . S
C357 C358 1.347 . S
C358 H350 0.951 . S
C358 C353 1.429 . S
C358 C357 1.347 . S
H359 C360 0.951 . S
C360 H359 0.951 . S
C360 C366 1.265 . S
H361 C366 0.950 . S
H362 C370 0.949 . S
H363 C371 0.950 . S
H364 C372 0.951 . S
H365 C373 0.951 . S
C366 C360 1.265 . S
C366 H361 0.950 . S
C366 C367 1.478 . S
C367 C354 1.394 . S
C367 C366 1.478 . S
C367 C368 1.397 . S
C368 C367 1.397 . S
C368 C369 1.438 . S
C368 C373 1.429 . S
C369 C352 1.394 . S
C369 C368 1.438 . S
C369 C370 1.428 . S
C370 H362 0.949 . S
C370 C369 1.428 . S
C370 C371 1.345 . S
C371 H363 0.950 . S
C371 C370 1.345 . S
C371 C372 1.424 . S
C372 H364 0.951 . S
C372 C371 1.424 . S
C372 C373 1.347 . S
C373 H365 0.951 . S
C373 C368 1.429 . S
C373 C372 1.347 . S
H374 C375 0.951 . S
C375 H374 0.951 . S
C375 C381 1.265 . S
H376 C381 0.950 . S
H377 C385 0.949 . S
H378 C386 0.950 . S
H379 C387 0.951 . S
H380 C388 0.951 . S
C381 C375 1.265 . S
C381 H376 0.950 . S
C381 C382 1.478 . S
C382 C381 1.478 . S
C382 C383 1.397 . S
C382 C399 1.394 . S
C383 C382 1.397 . S
C383 C384 1.438 . S
C383 C388 1.429 . S
C384 C383 1.438 . S
C384 C385 1.428 . S
C384 C397 1.394 . S
C385 H377 0.949 . S
C385 C384 1.428 . S
C385 C386 1.345 1_556 S
C386 H378 0.950 . S
C386 C385 1.345 1_554 S
C386 C387 1.424 . S
C387 H379 0.951 . S
C387 C386 1.424 . S
C387 C388 1.347 1_554 S
C388 H380 0.951 . S
C388 C383 1.429 . S
C388 C387 1.347 1_556 S
H389 C390 0.951 . S
C390 H389 0.951 . S
C390 C396 1.265 . S
H391 C396 0.950 . S
H392 C400 0.949 . S
H393 C401 0.950 . S
H394 C402 0.951 . S
H395 C403 0.951 . S
C396 C390 1.265 . S
C396 H391 0.950 . S
C396 C397 1.478 . S
C397 C384 1.394 . S
C397 C396 1.478 . S
C397 C398 1.397 . S
C398 C397 1.397 . S
C398 C399 1.438 . S
C398 C403 1.429 . S
C399 C382 1.394 . S
C399 C398 1.438 . S
C399 C400 1.428 . S
C400 H392 0.949 . S
C400 C399 1.428 . S
C400 C401 1.345 . S
C401 H393 0.950 . S
C401 C400 1.345 . S
C401 C402 1.424 . S
C402 H394 0.951 . S
C402 C401 1.424 . S
C402 C403 1.347 . S
C403 H395 0.951 . S
C403 C398 1.429 . S
C403 C402 1.347 . S
H404 C405 0.951 . S
C405 H404 0.951 . S
C405 C411 1.265 . S
H406 C411 0.950 1_556 S
H407 C415 0.949 . S
H408 C416 0.950 . S
H409 C417 0.951 . S
H410 C418 0.951 . S
C411 C405 1.265 . S
C411 H406 0.950 1_554 S
C411 C412 1.478 . S
C412 C411 1.478 . S
C412 C413 1.397 . S
C412 C429 1.394 1_554 S
C413 C412 1.397 . S
C413 C414 1.438 . S
C413 C418 1.429 . S
C414 C413 1.438 . S
C414 C415 1.428 . S
C414 C427 1.394 1_554 S
C415 H407 0.949 . S
C415 C414 1.428 . S
C415 C416 1.345 . S
C416 H408 0.950 . S
C416 C415 1.345 . S
C416 C417 1.424 . S
C417 H409 0.951 . S
C417 C416 1.424 . S
C417 C418 1.347 . S
C418 H410 0.951 . S
C418 C413 1.429 . S
C418 C417 1.347 . S
H419 C420 0.951 . S
C420 H419 0.951 . S
C420 C426 1.265 . S
H421 C426 0.950 1_554 S
H422 C430 0.949 . S
H423 C431 0.950 . S
H424 C432 0.951 . S
H425 C433 0.951 . S
C426 C420 1.265 . S
C426 H421 0.950 1_556 S
C426 C427 1.478 . S
C427 C414 1.394 1_556 S
C427 C426 1.478 . S
C427 C428 1.397 . S
C428 C427 1.397 . S
C428 C429 1.438 . S
C428 C433 1.429 . S
C429 C412 1.394 1_556 S
C429 C428 1.438 . S
C429 C430 1.428 . S
C430 H422 0.949 . S
C430 C429 1.428 . S
C430 C431 1.345 . S
C431 H423 0.950 . S
C431 C430 1.345 . S
C431 C432 1.424 . S
C432 H424 0.951 . S
C432 C431 1.424 . S
C432 C433 1.347 . S
C433 H425 0.951 . S
C433 C428 1.429 . S
C433 C432 1.347 . S
H434 C435 0.951 . S
C435 H434 0.951 . S
C435 C441 1.265 . S
H436 C441 0.950 . S
H437 C445 0.949 . S
H438 C446 0.950 . S
H439 C447 0.951 . S
H440 C448 0.951 1_556 S
C441 C435 1.265 . S
C441 H436 0.950 . S
C441 C442 1.478 . S
C442 C441 1.478 . S
C442 C443 1.397 . S
C442 C459 1.394 . S
C443 C442 1.397 . S
C443 C444 1.438 . S
C443 C448 1.429 . S
C444 C443 1.438 . S
C444 C445 1.428 . S
C444 C457 1.394 . S
C445 H437 0.949 . S
C445 C444 1.428 . S
C445 C446 1.345 1_554 S
C446 H438 0.950 . S
C446 C445 1.345 1_556 S
C446 C447 1.424 . S
C447 H439 0.951 . S
C447 C446 1.424 . S
C447 C448 1.347 1_556 S
C448 H440 0.951 1_554 S
C448 C443 1.429 . S
C448 C447 1.347 1_554 S
H449 C450 0.951 . S
C450 H449 0.951 . S
C450 C456 1.265 . S
H451 C456 0.950 . S
H452 C460 0.949 . S
H453 C461 0.950 . S
H454 C462 0.951 . S
H455 C463 0.951 . S
C456 C450 1.265 . S
C456 H451 0.950 . S
C456 C457 1.478 . S
C457 C444 1.394 . S
C457 C456 1.478 . S
C457 C458 1.397 . S
C458 C457 1.397 . S
C458 C459 1.438 . S
C458 C463 1.429 . S
C459 C442 1.394 . S
C459 C458 1.438 . S
C459 C460 1.428 . S
C460 H452 0.949 . S
C460 C459 1.428 . S
C460 C461 1.345 . S
C461 H453 0.950 . S
C461 C460 1.345 . S
C461 C462 1.424 . S
C462 H454 0.951 . S
C462 C461 1.424 . S
C462 C463 1.347 . S
C463 H455 0.951 . S
C463 C458 1.429 . S
C463 C462 1.347 . S
H464 C465 0.951 . S
C465 H464 0.951 . S
C465 C471 1.265 . S
H466 C471 0.950 . S
H467 C475 0.949 . S
H468 C476 0.950 . S
H469 C477 0.951 . S
H470 C478 0.951 . S
C471 C465 1.265 . S
C471 H466 0.950 . S
C471 C472 1.478 . S
C472 C471 1.478 . S
C472 C473 1.397 . S
C472 C489 1.394 . S
C473 C472 1.397 . S
C473 C474 1.438 . S
C473 C478 1.429 . S
C474 C473 1.438 . S
C474 C475 1.428 . S
C474 C487 1.394 . S
C475 H467 0.949 . S
C475 C474 1.428 . S
C475 C476 1.345 1_556 S
C476 H468 0.950 . S
C476 C475 1.345 1_554 S
C476 C477 1.424 . S
C477 H469 0.951 . S
C477 C476 1.424 . S
C477 C478 1.347 1_554 S
C478 H470 0.951 . S
C478 C473 1.429 . S
C478 C477 1.347 1_556 S
H479 C480 0.951 . S
C480 H479 0.951 . S
C480 C486 1.265 . S
H481 C486 0.950 . S
H482 C490 0.949 . S
H483 C491 0.950 . S
H484 C492 0.951 . S
H485 C493 0.951 . S
C486 C480 1.265 . S
C486 H481 0.950 . S
C486 C487 1.478 . S
C487 C474 1.394 . S
C487 C486 1.478 . S
C487 C488 1.397 . S
C488 C487 1.397 . S
C488 C489 1.438 . S
C488 C493 1.429 . S
C489 C472 1.394 . S
C489 C488 1.438 . S
C489 C490 1.428 . S
C490 H482 0.949 . S
C490 C489 1.428 . S
C490 C491 1.345 . S
C491 H483 0.950 . S
C491 C490 1.345 . S
C491 C492 1.424 . S
C492 H484 0.951 . S
C492 C491 1.424 . S
C492 C493 1.347 . S
C493 H485 0.951 . S
C493 C488 1.429 . S
C493 C492 1.347 . S
H494 C495 0.951 . S
C495 H494 0.951 . S
C495 C501 1.265 . S
H496 C501 0.950 . S
H497 C505 0.949 . S
H498 C506 0.950 . S
H499 C507 0.951 . S
H500 C508 0.951 . S
C501 C495 1.265 . S
C501 H496 0.950 . S
C501 C502 1.478 . S
C502 C501 1.478 . S
C502 C503 1.397 1_556 S
C502 C519 1.394 . S
C503 C502 1.397 1_554 S
C503 C504 1.438 . S
C503 C508 1.429 . S
C504 C503 1.438 . S
C504 C505 1.428 . S
C504 C517 1.394 . S
C505 H497 0.949 . S
C505 C504 1.428 . S
C505 C506 1.345 . S
C506 H498 0.950 . S
C506 C505 1.345 . S
C506 C507 1.424 . S
C507 H499 0.951 . S
C507 C506 1.424 . S
C507 C508 1.347 . S
C508 H500 0.951 . S
C508 C503 1.429 . S
C508 C507 1.347 . S
H509 C510 0.951 . S
C510 H509 0.951 . S
C510 C516 1.265 . S
H511 C516 0.950 . S
H512 C520 0.949 . S
H513 C521 0.950 . S
H514 C522 0.951 . S
H515 C523 0.951 . S
C516 C510 1.265 . S
C516 H511 0.950 . S
C516 C517 1.478 . S
C517 C504 1.394 . S
C517 C516 1.478 . S
C517 C518 1.397 1_554 S
C518 C517 1.397 1_556 S
C518 C519 1.438 . S
C518 C523 1.429 . S
C519 C502 1.394 . S
C519 C518 1.438 . S
C519 C520 1.428 . S
C520 H512 0.949 . S
C520 C519 1.428 . S
C520 C521 1.345 . S
C521 H513 0.950 . S
C521 C520 1.345 . S
C521 C522 1.424 . S
C522 H514 0.951 . S
C522 C521 1.424 . S
C522 C523 1.347 . S
C523 H515 0.951 . S
C523 C518 1.429 . S
C523 C522 1.347 . S
H524 C525 0.951 . S
C525 H524 0.951 . S
C525 C531 1.265 . S
H526 C531 0.950 . S
H527 C535 0.949 . S
H528 C536 0.950 . S
H529 C537 0.951 . S
H530 C538 0.951 . S
C531 C525 1.265 . S
C531 H526 0.950 . S
C531 C532 1.478 . S
C532 C531 1.478 . S
C532 C533 1.397 . S
C532 C549 1.394 . S
C533 C532 1.397 . S
C533 C534 1.438 . S
C533 C538 1.429 . S
C534 C533 1.438 . S
C534 C535 1.428 . S
C534 C547 1.394 . S
C535 H527 0.949 . S
C535 C534 1.428 . S
C535 C536 1.345 . S
C536 H528 0.950 . S
C536 C535 1.345 . S
C536 C537 1.424 . S
C537 H529 0.951 . S
C537 C536 1.424 . S
C537 C538 1.347 . S
C538 H530 0.951 . S
C538 C533 1.429 . S
C538 C537 1.347 . S
H539 C540 0.951 . S
C540 H539 0.951 . S
C540 C546 1.265 . S
H541 C546 0.950 . S
H542 C550 0.949 . S
H543 C551 0.950 . S
H544 C552 0.951 . S
H545 C553 0.951 . S
C546 C540 1.265 . S
C546 H541 0.950 . S
C546 C547 1.478 . S
C547 C534 1.394 . S
C547 C546 1.478 . S
C547 C548 1.397 . S
C548 C547 1.397 . S
C548 C549 1.438 . S
C548 C553 1.429 . S
C549 C532 1.394 . S
C549 C548 1.438 . S
C549 C550 1.428 . S
C550 H542 0.949 . S
C550 C549 1.428 . S
C550 C551 1.345 . S
C551 H543 0.950 . S
C551 C550 1.345 . S
C551 C552 1.424 . S
C552 H544 0.951 . S
C552 C551 1.424 . S
C552 C553 1.347 . S
C553 H545 0.951 . S
C553 C548 1.429 . S
C553 C552 1.347 . S
H554 C555 0.951 . S
C555 H554 0.951 . S
C555 C561 1.265 . S
H556 C561 0.950 . S
H557 C565 0.949 . S
H558 C566 0.950 . S
H559 C567 0.951 . S
H560 C568 0.951 . S
C561 C555 1.265 . S
C561 H556 0.950 . S
C561 C562 1.478 . S
C562 C561 1.478 . S
C562 C563 1.397 . S
C562 C579 1.394 . S
C563 C562 1.397 . S
C563 C564 1.438 . S
C563 C568 1.429 . S
C564 C563 1.438 . S
C564 C565 1.428 . S
C564 C577 1.394 . S
C565 H557 0.949 . S
C565 C564 1.428 . S
C565 C566 1.345 . S
C566 H558 0.950 . S
C566 C565 1.345 . S
C566 C567 1.424 . S
C567 H559 0.951 . S
C567 C566 1.424 . S
C567 C568 1.347 . S
C568 H560 0.951 . S
C568 C563 1.429 . S
C568 C567 1.347 . S
H569 C570 0.951 . S
C570 H569 0.951 . S
C570 C576 1.265 . S
H571 C576 0.950 . S
H572 C580 0.949 . S
H573 C581 0.950 . S
H574 C582 0.951 . S
H575 C583 0.951 . S
C576 C570 1.265 . S
C576 H571 0.950 . S
C576 C577 1.478 . S
C577 C564 1.394 . S
C577 C576 1.478 . S
C577 C578 1.397 . S
C578 C577 1.397 . S
C578 C579 1.438 . S
C578 C583 1.429 . S
C579 C562 1.394 . S
C579 C578 1.438 . S
C579 C580 1.428 . S
C580 H572 0.949 . S
C580 C579 1.428 . S
C580 C581 1.345 . S
C581 H573 0.950 . S
C581 C580 1.345 . S
C581 C582 1.424 . S
C582 H574 0.951 . S
C582 C581 1.424 . S
C582 C583 1.347 . S
C583 H575 0.951 . S
C583 C578 1.429 . S
C583 C582 1.347 . S
C105 C23 1.462 . S
C120 C10 1.465 . S
C135 C18 1.465 . S
C150 C36 1.465 . S
C165 C42 1.464 . S
C180 C31 1.464 . S
C195 C43 1.466 . S
C210 C5 1.462 . S
C225 C62 1.466 . S
C240 C75 1.459 . S
C255 C70 1.464 1_556 S
C270 C88 1.466 . S
C285 C83 1.461 . S
C300 C94 1.461 . S
C315 C57 1.461 1_554 S
C330 C95 1.465 . S
C345 C4 1.506 . S
C360 C96 1.488 . S
C375 C55 1.520 . S
C390 C16 1.497 . S
C405 C69 1.508 . S
C420 C29 1.488 . S
C435 C49 1.505 . S
C450 C82 1.490 . S
C465 C30 1.503 . S
C480 C101 1.487 . S
C495 C56 1.496 . S
C510 C44 1.514 . S
C525 C68 1.506 . S
C540 C3 1.499 . S
C555 C17 1.495 . S
C570 C81 1.512 . S
