# Generated by pormake.
# Topology vcc, (6)-cn, num edge types: 1
# Building blocks:
#     Node 0, Type 0, BuildingBlock: MIFKUJ_clean_sbu_0, # of connection points: 6
#     Node 1, Type 0, BuildingBlock: MIFKUJ_clean_sbu_0, # of connection points: 6
#     Node 2, Type 0, BuildingBlock: MIFKUJ_clean_sbu_0, # of connection points: 6
#     Node 3, Type 0, BuildingBlock: MIFKUJ_clean_sbu_0, # of connection points: 6
#     Node 4, Type 0, BuildingBlock: MIFKUJ_clean_sbu_0, # of connection points: 6
#     Node 5, Type 0, BuildingBlock: MIFKUJ_clean_sbu_0, # of connection points: 6
#     Node 6, Type 0, BuildingBlock: MIFKUJ_clean_sbu_0, # of connection points: 6
#     Node 7, Type 0, BuildingBlock: MIFKUJ_clean_sbu_0, # of connection points: 6
#     Node 8, Type 0, BuildingBlock: MIFKUJ_clean_sbu_0, # of connection points: 6
#     Node 9, Type 0, BuildingBlock: MIFKUJ_clean_sbu_0, # of connection points: 6
#     Node 10, Type 0, BuildingBlock: MIFKUJ_clean_sbu_0, # of connection points: 6
#     Node 11, Type 0, BuildingBlock: MIFKUJ_clean_sbu_0, # of connection points: 6
#     Node 12, Type 0, BuildingBlock: MIFKUJ_clean_sbu_0, # of connection points: 6
#     Node 13, Type 0, BuildingBlock: MIFKUJ_clean_sbu_0, # of connection points: 6
#     Node 14, Type 0, BuildingBlock: MIFKUJ_clean_sbu_0, # of connection points: 6
#     Node 15, Type 0, BuildingBlock: MIFKUJ_clean_sbu_0, # of connection points: 6
#     Node 16, Type 0, BuildingBlock: MIFKUJ_clean_sbu_0, # of connection points: 6
#     Node 17, Type 0, BuildingBlock: MIFKUJ_clean_sbu_0, # of connection points: 6
#     Node 18, Type 0, BuildingBlock: MIFKUJ_clean_sbu_0, # of connection points: 6
#     Node 19, Type 0, BuildingBlock: MIFKUJ_clean_sbu_0, # of connection points: 6
#     Node 20, Type 0, BuildingBlock: MIFKUJ_clean_sbu_0, # of connection points: 6
#     Node 21, Type 0, BuildingBlock: MIFKUJ_clean_sbu_0, # of connection points: 6
#     Node 22, Type 0, BuildingBlock: MIFKUJ_clean_sbu_0, # of connection points: 6
#     Node 23, Type 0, BuildingBlock: MIFKUJ_clean_sbu_0, # of connection points: 6
#     Node 24, Type 0, BuildingBlock: MIFKUJ_clean_sbu_0, # of connection points: 6
#     Node 25, Type 0, BuildingBlock: MIFKUJ_clean_sbu_0, # of connection points: 6
#     Node 26, Type 0, BuildingBlock: MIFKUJ_clean_sbu_0, # of connection points: 6
#     Node 27, Type 0, BuildingBlock: MIFKUJ_clean_sbu_0, # of connection points: 6
#     Node 28, Type 0, BuildingBlock: MIFKUJ_clean_sbu_0, # of connection points: 6
#     Node 29, Type 0, BuildingBlock: MIFKUJ_clean_sbu_0, # of connection points: 6
#     Node 30, Type 0, BuildingBlock: MIFKUJ_clean_sbu_0, # of connection points: 6
#     Node 31, Type 0, BuildingBlock: MIFKUJ_clean_sbu_0, # of connection points: 6
#     Edge 32, Type (0, 0), BuildingBlock: AJUNOK_clean_linker_0, # of connection points: 2
#     Edge 33, Type (0, 0), BuildingBlock: AJUNOK_clean_linker_0, # of connection points: 2
#     Edge 34, Type (0, 0), BuildingBlock: AJUNOK_clean_linker_0, # of connection points: 2
#     Edge 35, Type (0, 0), BuildingBlock: AJUNOK_clean_linker_0, # of connection points: 2
#     Edge 36, Type (0, 0), BuildingBlock: AJUNOK_clean_linker_0, # of connection points: 2
#     Edge 37, Type (0, 0), BuildingBlock: AJUNOK_clean_linker_0, # of connection points: 2
#     Edge 38, Type (0, 0), BuildingBlock: AJUNOK_clean_linker_0, # of connection points: 2
#     Edge 39, Type (0, 0), BuildingBlock: AJUNOK_clean_linker_0, # of connection points: 2
#     Edge 40, Type (0, 0), BuildingBlock: AJUNOK_clean_linker_0, # of connection points: 2
#     Edge 41, Type (0, 0), BuildingBlock: AJUNOK_clean_linker_0, # of connection points: 2
#     Edge 42, Type (0, 0), BuildingBlock: AJUNOK_clean_linker_0, # of connection points: 2
#     Edge 43, Type (0, 0), BuildingBlock: AJUNOK_clean_linker_0, # of connection points: 2
#     Edge 44, Type (0, 0), BuildingBlock: AJUNOK_clean_linker_0, # of connection points: 2
#     Edge 45, Type (0, 0), BuildingBlock: AJUNOK_clean_linker_0, # of connection points: 2
#     Edge 46, Type (0, 0), BuildingBlock: AJUNOK_clean_linker_0, # of connection points: 2
#     Edge 47, Type (0, 0), BuildingBlock: AJUNOK_clean_linker_0, # of connection points: 2
#     Edge 48, Type (0, 0), BuildingBlock: AJUNOK_clean_linker_0, # of connection points: 2
#     Edge 49, Type (0, 0), BuildingBlock: AJUNOK_clean_linker_0, # of connection points: 2
#     Edge 50, Type (0, 0), BuildingBlock: AJUNOK_clean_linker_0, # of connection points: 2
#     Edge 51, Type (0, 0), BuildingBlock: AJUNOK_clean_linker_0, # of connection points: 2
#     Edge 52, Type (0, 0), BuildingBlock: AJUNOK_clean_linker_0, # of connection points: 2
#     Edge 53, Type (0, 0), BuildingBlock: AJUNOK_clean_linker_0, # of connection points: 2
#     Edge 54, Type (0, 0), BuildingBlock: AJUNOK_clean_linker_0, # of connection points: 2
#     Edge 55, Type (0, 0), BuildingBlock: AJUNOK_clean_linker_0, # of connection points: 2
#     Edge 56, Type (0, 0), BuildingBlock: AJUNOK_clean_linker_0, # of connection points: 2
#     Edge 57, Type (0, 0), BuildingBlock: AJUNOK_clean_linker_0, # of connection points: 2
#     Edge 58, Type (0, 0), BuildingBlock: AJUNOK_clean_linker_0, # of connection points: 2
#     Edge 59, Type (0, 0), BuildingBlock: AJUNOK_clean_linker_0, # of connection points: 2
#     Edge 60, Type (0, 0), BuildingBlock: AJUNOK_clean_linker_0, # of connection points: 2
#     Edge 61, Type (0, 0), BuildingBlock: AJUNOK_clean_linker_0, # of connection points: 2
#     Edge 62, Type (0, 0), BuildingBlock: AJUNOK_clean_linker_0, # of connection points: 2
#     Edge 63, Type (0, 0), BuildingBlock: AJUNOK_clean_linker_0, # of connection points: 2
#     Edge 64, Type (0, 0), BuildingBlock: AJUNOK_clean_linker_0, # of connection points: 2
#     Edge 65, Type (0, 0), BuildingBlock: AJUNOK_clean_linker_0, # of connection points: 2
#     Edge 66, Type (0, 0), BuildingBlock: AJUNOK_clean_linker_0, # of connection points: 2
#     Edge 67, Type (0, 0), BuildingBlock: AJUNOK_clean_linker_0, # of connection points: 2
#     Edge 68, Type (0, 0), BuildingBlock: AJUNOK_clean_linker_0, # of connection points: 2
#     Edge 69, Type (0, 0), BuildingBlock: AJUNOK_clean_linker_0, # of connection points: 2
#     Edge 70, Type (0, 0), BuildingBlock: AJUNOK_clean_linker_0, # of connection points: 2
#     Edge 71, Type (0, 0), BuildingBlock: AJUNOK_clean_linker_0, # of connection points: 2
#     Edge 72, Type (0, 0), BuildingBlock: AJUNOK_clean_linker_0, # of connection points: 2
#     Edge 73, Type (0, 0), BuildingBlock: AJUNOK_clean_linker_0, # of connection points: 2
#     Edge 74, Type (0, 0), BuildingBlock: AJUNOK_clean_linker_0, # of connection points: 2
#     Edge 75, Type (0, 0), BuildingBlock: AJUNOK_clean_linker_0, # of connection points: 2
#     Edge 76, Type (0, 0), BuildingBlock: AJUNOK_clean_linker_0, # of connection points: 2
#     Edge 77, Type (0, 0), BuildingBlock: AJUNOK_clean_linker_0, # of connection points: 2
#     Edge 78, Type (0, 0), BuildingBlock: AJUNOK_clean_linker_0, # of connection points: 2
#     Edge 79, Type (0, 0), BuildingBlock: AJUNOK_clean_linker_0, # of connection points: 2
#     Edge 80, Type (0, 0), BuildingBlock: AJUNOK_clean_linker_0, # of connection points: 2
#     Edge 81, Type (0, 0), BuildingBlock: AJUNOK_clean_linker_0, # of connection points: 2
#     Edge 82, Type (0, 0), BuildingBlock: AJUNOK_clean_linker_0, # of connection points: 2
#     Edge 83, Type (0, 0), BuildingBlock: AJUNOK_clean_linker_0, # of connection points: 2
#     Edge 84, Type (0, 0), BuildingBlock: AJUNOK_clean_linker_0, # of connection points: 2
#     Edge 85, Type (0, 0), BuildingBlock: AJUNOK_clean_linker_0, # of connection points: 2
#     Edge 86, Type (0, 0), BuildingBlock: AJUNOK_clean_linker_0, # of connection points: 2
#     Edge 87, Type (0, 0), BuildingBlock: AJUNOK_clean_linker_0, # of connection points: 2
#     Edge 88, Type (0, 0), BuildingBlock: AJUNOK_clean_linker_0, # of connection points: 2
#     Edge 89, Type (0, 0), BuildingBlock: AJUNOK_clean_linker_0, # of connection points: 2
#     Edge 90, Type (0, 0), BuildingBlock: AJUNOK_clean_linker_0, # of connection points: 2
#     Edge 91, Type (0, 0), BuildingBlock: AJUNOK_clean_linker_0, # of connection points: 2
#     Edge 92, Type (0, 0), BuildingBlock: AJUNOK_clean_linker_0, # of connection points: 2
#     Edge 93, Type (0, 0), BuildingBlock: AJUNOK_clean_linker_0, # of connection points: 2
#     Edge 94, Type (0, 0), BuildingBlock: AJUNOK_clean_linker_0, # of connection points: 2
#     Edge 95, Type (0, 0), BuildingBlock: AJUNOK_clean_linker_0, # of connection points: 2
#     Edge 96, Type (0, 0), BuildingBlock: AJUNOK_clean_linker_0, # of connection points: 2
#     Edge 97, Type (0, 0), BuildingBlock: AJUNOK_clean_linker_0, # of connection points: 2
#     Edge 98, Type (0, 0), BuildingBlock: AJUNOK_clean_linker_0, # of connection points: 2
#     Edge 99, Type (0, 0), BuildingBlock: AJUNOK_clean_linker_0, # of connection points: 2
#     Edge 100, Type (0, 0), BuildingBlock: AJUNOK_clean_linker_0, # of connection points: 2
#     Edge 101, Type (0, 0), BuildingBlock: AJUNOK_clean_linker_0, # of connection points: 2
#     Edge 102, Type (0, 0), BuildingBlock: AJUNOK_clean_linker_0, # of connection points: 2
#     Edge 103, Type (0, 0), BuildingBlock: AJUNOK_clean_linker_0, # of connection points: 2
#     Edge 104, Type (0, 0), BuildingBlock: AJUNOK_clean_linker_0, # of connection points: 2
#     Edge 105, Type (0, 0), BuildingBlock: AJUNOK_clean_linker_0, # of connection points: 2
#     Edge 106, Type (0, 0), BuildingBlock: AJUNOK_clean_linker_0, # of connection points: 2
#     Edge 107, Type (0, 0), BuildingBlock: AJUNOK_clean_linker_0, # of connection points: 2
#     Edge 108, Type (0, 0), BuildingBlock: AJUNOK_clean_linker_0, # of connection points: 2
#     Edge 109, Type (0, 0), BuildingBlock: AJUNOK_clean_linker_0, # of connection points: 2
#     Edge 110, Type (0, 0), BuildingBlock: AJUNOK_clean_linker_0, # of connection points: 2
#     Edge 111, Type (0, 0), BuildingBlock: AJUNOK_clean_linker_0, # of connection points: 2
#     Edge 112, Type (0, 0), BuildingBlock: AJUNOK_clean_linker_0, # of connection points: 2
#     Edge 113, Type (0, 0), BuildingBlock: AJUNOK_clean_linker_0, # of connection points: 2
#     Edge 114, Type (0, 0), BuildingBlock: AJUNOK_clean_linker_0, # of connection points: 2
#     Edge 115, Type (0, 0), BuildingBlock: AJUNOK_clean_linker_0, # of connection points: 2
#     Edge 116, Type (0, 0), BuildingBlock: AJUNOK_clean_linker_0, # of connection points: 2
#     Edge 117, Type (0, 0), BuildingBlock: AJUNOK_clean_linker_0, # of connection points: 2
#     Edge 118, Type (0, 0), BuildingBlock: AJUNOK_clean_linker_0, # of connection points: 2
#     Edge 119, Type (0, 0), BuildingBlock: AJUNOK_clean_linker_0, # of connection points: 2
#     Edge 120, Type (0, 0), BuildingBlock: AJUNOK_clean_linker_0, # of connection points: 2
#     Edge 121, Type (0, 0), BuildingBlock: AJUNOK_clean_linker_0, # of connection points: 2
#     Edge 122, Type (0, 0), BuildingBlock: AJUNOK_clean_linker_0, # of connection points: 2
#     Edge 123, Type (0, 0), BuildingBlock: AJUNOK_clean_linker_0, # of connection points: 2
#     Edge 124, Type (0, 0), BuildingBlock: AJUNOK_clean_linker_0, # of connection points: 2
#     Edge 125, Type (0, 0), BuildingBlock: AJUNOK_clean_linker_0, # of connection points: 2
#     Edge 126, Type (0, 0), BuildingBlock: AJUNOK_clean_linker_0, # of connection points: 2
#     Edge 127, Type (0, 0), BuildingBlock: AJUNOK_clean_linker_0, # of connection points: 2
# Relax obj value: 0.073
# Max RMSD: 0.146
# Mean RMSD: 0.146
data_MOF--net-vcc--node1-MIFKUJ_clean_sbu_0--edge1-AJUNOK_clean_linker_0
_symmetry_space_group_name_H-M    P1
_symmetry_Int_Tables_number       1
_symmetry_cell_setting            triclinic
loop_
_symmetry_equiv_pos_as_xyz
'x, y, z'
_cell_length_a     38.004228
_cell_length_b     38.056087
_cell_length_c     36.207879
_cell_angle_alpha  90.178643
_cell_angle_beta   90.206088
_cell_angle_gamma 90.084895
loop_
_atom_site_label
_atom_site_type_symbol
_atom_site_fract_x
_atom_site_fract_y
_atom_site_fract_z
_atom_type_partial_charge
Zn0 Zn 0.35214 0.98576 0.13724 0.0
Zn1 Zn 0.32443 0.00416 0.02135 0.0
C2 C 0.40566 0.98513 0.19634 0.0
O3 O 0.37844 0.98249 0.21837 0.0
C4 C 0.26496 0.01164 0.97169 0.0
O5 O 0.28867 0.02874 0.95251 0.0
O6 O 0.313 0.98597 0.17514 0.0
O7 O 0.34405 0.0197 0.09658 0.0
O8 O 0.33193 0.05136 0.04878 0.0
C9 C 0.3067 0.0113 0.19712 0.0
O10 O 0.32585 0.03997 0.19497 0.0
O11 O 0.40067 0.98738 0.16159 0.0
C12 C 0.35148 0.97598 0.95417 0.0
O13 O 0.334 0.9485 0.96618 0.0
O14 O 0.35339 0.0032 0.97458 0.0
O15 O 0.33715 0.96038 0.05272 0.0
O16 O 0.35022 0.94068 0.10914 0.0
O17 O 0.27327 -3e-05 1.00355 0.0
C18 C 0.34092 0.04993 0.0826 0.0
C19 C 0.34511 0.93534 0.0747 0.0
Zn20 Zn 0.89901 0.25881 0.14998 0.0
Zn21 Zn 0.91865 0.24508 0.03276 0.0
C22 C 0.84442 0.28237 0.19429 0.0
O23 O 0.86633 0.30907 0.19329 0.0
C24 C 0.97661 0.23531 0.98517 0.0
O25 O 0.9526 0.21596 0.96867 0.0
O26 O 0.94012 0.26502 0.18439 0.0
O27 O 0.90686 0.22517 0.10926 0.0
O28 O 0.91536 0.19748 0.05789 0.0
C29 C 0.93659 0.26027 0.21888 0.0
O30 O 0.90644 0.24865 0.2316 0.0
O31 O 0.85304 0.25402 0.1778 0.0
C32 C 0.88953 0.27166 0.96639 0.0
O33 O 0.90503 0.30018 0.97902 0.0
O34 O 0.88944 0.24422 0.98628 0.0
O35 O 0.90268 0.28741 0.06415 0.0
O36 O 0.89313 0.30293 0.12273 0.0
O37 O 0.969 0.25082 0.01532 0.0
C38 C 0.91113 0.19632 0.09258 0.0
C39 C 0.89379 0.31005 0.08849 0.0
Zn40 Zn 0.35171 0.2329 0.11494 0.0
Zn41 Zn 0.3437 0.22444 0.2302 0.0
C42 C 0.40161 0.24134 0.05789 0.0
O43 O 0.3754 0.25915 0.04348 0.0
C44 C 0.27957 0.212 0.26762 0.0
O45 O 0.30013 0.19103 0.28669 0.0
O46 O 0.31021 0.2321 0.08064 0.0
O47 O 0.3478 0.2061 0.15994 0.0
O48 O 0.34946 0.17445 0.20846 0.0
C49 C 0.30999 0.21163 0.05285 0.0
O50 O 0.33593 0.1892 0.04868 0.0
O51 O 0.39714 0.2252 0.08822 0.0
C52 C 0.35657 0.24774 0.30527 0.0
O53 O 0.32899 0.26733 0.29801 0.0
O54 O 0.36893 0.22791 0.28003 0.0
O55 O 0.35683 0.26805 0.19751 0.0
O56 O 0.35831 0.27988 0.1368 0.0
O57 O 0.2922 0.22912 0.24072 0.0
C58 C 0.34849 0.17584 0.17363 0.0
C59 C 0.36239 0.28908 0.17046 0.0
Zn60 Zn 0.92448 0.98133 0.1329 0.0
Zn61 Zn 0.92655 0.01566 0.23392 0.0
C62 C 0.86752 0.94604 0.0923 0.0
O63 O 0.89239 0.92512 0.08012 0.0
C64 C 0.99126 0.03882 0.26108 0.0
O65 O 0.97179 0.06728 0.26252 0.0
O66 O 0.95633 0.97043 0.09024 0.0
O67 O 0.92331 0.03337 0.14022 0.0
O68 O 0.9197 0.05512 0.19724 0.0
C69 C 0.95038 0.98638 0.06009 0.0
O70 O 0.92498 0.00975 0.05887 0.0
O71 O 0.87505 0.96947 0.1162 0.0
C72 C 0.91023 0.0051 0.30669 0.0
O73 O 0.92759 0.97672 0.29696 0.0
O74 O 0.90491 0.02878 0.28263 0.0
O75 O 0.9041 0.96904 0.22181 0.0
O76 O 0.93989 0.95423 0.17726 0.0
O77 O 0.9781 0.01114 0.2468 0.0
C78 C 0.92051 0.05921 0.16234 0.0
C79 C 0.91589 0.94601 0.1998 0.0
Zn80 Zn 0.66924 0.98575 0.99126 0.0
Zn81 Zn 0.68467 -0.0002 0.88905 0.0
C82 C 0.73194 0.95263 0.01737 0.0
O83 O 0.71045 0.92558 0.01785 0.0
C84 C 0.62878 0.00032 0.83557 0.0
O85 O 0.65099 0.02108 0.81847 0.0
O86 O 0.64635 0.98314 0.04081 0.0
O87 O 0.65836 0.03446 0.96893 0.0
O88 O 0.67577 0.04676 0.91126 0.0
C89 C 0.65487 0.00835 0.06213 0.0
O90 O 0.67381 0.03431 0.0489 0.0
O91 O 0.72082 0.98189 1.00497 0.0
C92 C 0.72166 0.97989 0.82422 0.0
O93 O 0.69748 0.95521 0.82407 0.0
O94 O 0.72187 0.00233 0.85026 0.0
O95 O 0.69783 0.96759 0.92895 0.0
O96 O 0.65574 0.94367 0.96008 0.0
O97 O 0.63791 0.9864 0.86604 0.0
C98 C 0.66213 0.05576 0.94195 0.0
C99 C 0.67635 0.94253 0.93277 0.0
Zn100 Zn 0.08537 0.75537 0.98361 0.0
Zn101 Zn 0.10759 0.73801 0.87087 0.0
C102 C 0.02226 0.72842 0.01934 0.0
O103 O 0.0441 0.70586 0.03439 0.0
C104 C 0.15702 0.71866 0.81894 0.0
O105 O 0.13451 0.69241 0.81825 0.0
O106 O 0.10973 0.75855 0.03271 0.0
O107 O 0.10171 0.71101 0.95415 0.0
O108 O 0.11194 0.69226 0.89647 0.0
C109 C 0.1225 0.73206 0.04918 0.0
O110 O 0.12296 0.7016 0.032 0.0
O111 O 0.03399 0.75036 0.99598 0.0
C112 C 0.06481 0.76388 0.81376 0.0
O113 O 0.09142 0.78585 0.81207 0.0
O114 O 0.06519 0.7401 0.83828 0.0
O115 O 0.10294 0.76862 0.91322 0.0
O116 O 0.08953 0.80305 0.95769 0.0
O117 O 0.15134 0.7443 0.84071 0.0
C118 C 0.11077 0.68701 0.93122 0.0
C119 C 0.09654 0.79935 0.92385 0.0
Zn120 Zn 0.65607 0.76989 0.78296 0.0
Zn121 Zn 0.68267 0.75361 0.86467 0.0
C122 C 0.7182 0.7825 0.73919 0.0
O123 O 0.69533 0.80164 0.72093 0.0
C124 C 0.62401 0.74059 0.91501 0.0
O125 O 0.6489 0.72592 0.93487 0.0
O126 O 0.63038 0.77402 0.73461 0.0
O127 O 0.63824 0.72401 0.80321 0.0
O128 O 0.68776 0.71196 0.83134 0.0
C129 C 0.6325 0.74635 0.71493 0.0
O130 O 0.64977 0.71914 0.72786 0.0
O131 O 0.70837 0.767 0.76863 0.0
C132 C 0.71639 0.76679 0.93471 0.0
O133 O 0.69913 0.7966 0.9323 0.0
O134 O 0.71413 0.74485 0.90828 0.0
O135 O 0.69692 0.80031 0.84387 0.0
O136 O 0.64709 0.81215 0.81578 0.0
O137 O 0.63187 0.7544 0.88402 0.0
C138 C 0.65936 0.70157 0.81643 0.0
C139 C 0.67279 0.82198 0.83584 0.0
Zn140 Zn 0.08995 0.96863 0.771 0.0
Zn141 Zn 0.06631 0.98181 0.8596 0.0
C142 C 0.02413 0.9447 0.74217 0.0
O143 O 0.04304 0.91609 0.73813 0.0
C144 C 0.12367 0.99507 0.91089 0.0
O145 O 0.09853 0.01136 0.92884 0.0
O146 O 0.11197 0.96542 0.7205 0.0
O147 O 0.10741 0.01457 0.79329 0.0
O148 O 0.06331 0.02657 0.8309 0.0
C149 C 0.10715 0.9932 0.70169 0.0
O150 O 0.09044 0.0197 0.71694 0.0
O151 O 0.0379 0.97119 0.75826 0.0
C152 C 0.03475 0.96306 0.9285 0.0
O153 O 0.05859 0.93816 0.92679 0.0
O154 O 0.0329 0.98522 0.90237 0.0
O155 O 0.05288 0.93845 0.8313 0.0
O156 O 0.10097 0.92564 0.80164 0.0
O157 O 0.11641 0.97957 0.88049 0.0
C158 C 0.0894 0.03657 0.81177 0.0
C159 C 0.07727 0.91679 0.82441 0.0
Zn160 Zn 0.3197 0.49287 0.62408 0.0
Zn161 Zn 0.33346 0.49879 0.51906 0.0
C162 C 0.37517 0.48317 0.67185 0.0
O163 O 0.35493 0.45542 0.6759 0.0
C164 C 0.26973 0.51999 0.48639 0.0
O165 O 0.29123 0.54496 0.47549 0.0
O166 O 0.28317 0.48855 0.66428 0.0
O167 O 0.30483 0.5235 0.58337 0.0
O168 O 0.34614 0.54306 0.54798 0.0
C169 C 0.28523 0.50941 0.69175 0.0
O170 O 0.30909 0.53443 0.69132 0.0
O171 O 0.36558 0.50684 0.64915 0.0
C172 C 0.34621 0.47545 0.44684 0.0
O173 O 0.32735 0.44961 0.46041 0.0
O174 O 0.35453 0.50095 0.46794 0.0
O175 O 0.34711 0.45171 0.54233 0.0
O176 O 0.33053 0.44636 0.60142 0.0
O177 O 0.28125 0.49696 0.50864 0.0
C178 C 0.32685 0.5473 0.5761 0.0
C179 C 0.34287 0.4335 0.57159 0.0
Zn180 Zn 0.92128 0.76972 0.63219 0.0
Zn181 Zn 0.89758 0.74927 0.54771 0.0
C182 C 0.86252 0.77699 0.68504 0.0
O183 O 0.88693 0.78982 0.707 0.0
C184 C 0.96103 0.73022 0.51474 0.0
O185 O 0.9406 0.70291 0.50859 0.0
O186 O 0.95481 0.77908 0.67374 0.0
O187 O 0.93726 0.72322 0.61173 0.0
O188 O 0.89038 0.70688 0.58087 0.0
C189 C 0.95768 0.75639 0.69918 0.0
O190 O 0.9372 0.72855 0.69833 0.0
O191 O 0.87098 0.76661 0.65271 0.0
C192 C 0.87999 0.76935 0.47644 0.0
O193 O 0.89686 0.79666 0.49002 0.0
O194 O 0.87525 0.74273 0.49711 0.0
O195 O 0.87725 0.79457 0.56699 0.0
O196 O 0.92387 0.81146 0.59857 0.0
O197 O 0.94927 0.75509 0.53473 0.0
C198 C 0.91449 0.69989 0.60414 0.0
C199 C 0.89654 0.81894 0.58002 0.0
Zn200 Zn 0.32313 0.74459 0.64214 0.0
Zn201 Zn 0.35703 0.72571 0.71513 0.0
C202 C 0.37693 0.77522 0.59831 0.0
O203 O 0.3544 0.80136 0.599 0.0
C204 C 0.28977 0.70484 0.74176 0.0
O205 O 0.30721 0.67562 0.74783 0.0
O206 O 0.28719 0.7551 0.60315 0.0
O207 O 0.3142 0.69456 0.65758 0.0
O208 O 0.36648 0.68436 0.68148 0.0
C209 C 0.28681 0.73547 0.57471 0.0
O210 O 0.30897 0.70903 0.573 0.0
O211 O 0.36969 0.74718 0.61577 0.0
C212 C 0.36785 0.74427 0.78761 0.0
O213 O 0.3505 0.77095 0.77357 0.0
O214 O 0.37639 0.71892 0.76643 0.0
O215 O 0.37529 0.77218 0.69807 0.0
O216 O 0.32201 0.7843 0.67889 0.0
O217 O 0.30506 0.72992 0.72526 0.0
C218 C 0.33964 0.67373 0.66366 0.0
C219 C 0.3518 0.79473 0.69055 0.0
Zn220 Zn 0.90536 0.51534 0.63489 0.0
Zn221 Zn 0.9292 0.5227 0.74832 0.0
C222 C 0.85353 0.51056 0.5786 0.0
O223 O 0.88003 0.49613 0.56105 0.0
C224 C 0.99262 0.53623 0.7856 0.0
O225 O 0.97384 0.56443 0.79258 0.0
O226 O 0.94352 0.5153 0.59754 0.0
O227 O 0.91455 0.54262 0.67848 0.0
O228 O 0.9267 0.57299 0.7264 0.0
C229 C 0.95292 0.54351 0.58185 0.0
O230 O 0.93942 0.57353 0.59266 0.0
O231 O 0.85848 0.523 0.61083 0.0
C232 C 0.90948 0.49905 0.81864 0.0
O233 O 0.92581 0.47113 0.80591 0.0
O234 O 0.90498 0.52511 0.79733 0.0
O235 O 0.90688 0.47971 0.71842 0.0
O236 O 0.90033 0.46932 0.65751 0.0
O237 O 0.97984 0.513 0.76394 0.0
C238 C 0.91878 0.57246 0.69255 0.0
C239 C 0.89712 0.46011 0.69115 0.0
Zn240 Zn 0.64836 0.49402 0.48403 0.0
Zn241 Zn 0.653 0.50303 0.37253 0.0
C242 C 0.71183 0.48438 0.52562 0.0
O243 O 0.69032 0.46743 0.5476 0.0
C244 C 0.59921 0.50255 0.31783 0.0
O245 O 0.6215 0.52475 0.30294 0.0
O246 O 0.624 0.49577 0.53338 0.0
O247 O 0.63641 0.53927 0.45466 0.0
O248 O 0.64104 0.54925 0.39383 0.0
C249 C 0.63056 0.5218 0.55444 0.0
O250 O 0.65013 0.54761 0.54194 0.0
O251 O 0.70018 0.49699 0.49552 0.0
C252 C 0.69489 0.48715 0.30859 0.0
O253 O 0.67201 0.46145 0.30494 0.0
O254 O 0.69264 0.50754 0.33634 0.0
O255 O 0.66505 0.47834 0.41766 0.0
O256 O 0.63887 0.44701 0.45847 0.0
O257 O 0.60772 0.48724 0.34779 0.0
C258 C 0.63364 0.55948 0.42654 0.0
C259 C 0.65068 0.44968 0.42605 0.0
Zn260 Zn 0.07902 0.26459 0.49626 0.0
Zn261 Zn 0.0946 0.25883 0.38296 0.0
C262 C 0.01441 0.2868 0.524 0.0
O263 O 0.03569 0.3125 0.53364 0.0
C264 C 0.14236 0.24503 0.32594 0.0
O265 O 0.11518 0.22673 0.31418 0.0
O266 O 0.09893 0.2605 0.5475 0.0
O267 O 0.09576 0.22081 0.46492 0.0
O268 O 0.09837 0.21161 0.40358 0.0
C269 C 0.08722 0.23501 0.56647 0.0
O270 O 0.0661 0.2122 0.55045 0.0
O271 O 0.02664 0.26137 0.50516 0.0
C272 C 0.05183 0.28169 0.3222 0.0
O273 O 0.07986 0.30038 0.31429 0.0
O274 O 0.05185 0.26301 0.35119 0.0
O275 O 0.09299 0.28506 0.42809 0.0
O276 O 0.08846 0.31496 0.47749 0.0
O277 O 0.13944 0.26368 0.35492 0.0
C278 C 0.10231 0.20123 0.43677 0.0
C279 C 0.09197 0.31486 0.44288 0.0
Zn280 Zn 0.6384 0.27277 0.28228 0.0
Zn281 Zn 0.66689 0.25796 0.36323 0.0
C282 C 0.70601 0.29511 0.26079 0.0
O283 O 0.68706 0.32283 0.25243 0.0
C284 C 0.61198 0.22843 0.40536 0.0
O285 O 0.63416 0.20201 0.40385 0.0
O286 O 0.62259 0.27825 0.22893 0.0
O287 O 0.61947 0.22724 0.30122 0.0
O288 O 0.66939 0.21547 0.32967 0.0
C289 C 0.63306 0.25318 0.20834 0.0
O290 O 0.64941 0.22658 0.22379 0.0
O291 O 0.69116 0.26933 0.27663 0.0
C292 C 0.69794 0.27306 0.43245 0.0
O293 O 0.67358 0.29746 0.43062 0.0
O294 O 0.70128 0.252 0.4053 0.0
O295 O 0.67581 0.30633 0.34282 0.0
O296 O 0.6255 0.31452 0.31388 0.0
O297 O 0.61945 0.25665 0.38832 0.0
C298 C 0.64074 0.20514 0.31497 0.0
C299 C 0.65008 0.32603 0.33446 0.0
Zn300 Zn 0.0706 0.47563 0.27963 0.0
Zn301 Zn 0.06512 0.49524 0.38679 0.0
C302 C 0.00789 0.44955 0.24414 0.0
O303 O 0.02899 0.42355 0.23533 0.0
C304 C 0.1318 0.51518 0.41579 0.0
O305 O 0.11854 0.54566 0.40633 0.0
O306 O 0.09586 0.47121 0.23092 0.0
O307 O 0.08071 0.52606 0.2978 0.0
O308 O 0.06869 0.538 0.35682 0.0
C309 C 0.08939 0.49618 0.20864 0.0
O310 O 0.06803 0.52138 0.21914 0.0
O311 O 0.01925 0.47379 0.26532 0.0
C312 C 0.0323 0.53333 0.44584 0.0
O313 O 0.05271 0.55872 0.43403 0.0
O314 O 0.0318 0.50424 0.42851 0.0
O315 O 0.04864 0.45767 0.35325 0.0
O316 O 0.08446 0.43489 0.31345 0.0
O317 O 0.11392 0.48741 0.40939 0.0
C318 C 0.07747 0.54768 0.32463 0.0
C319 C 0.07044 0.43386 0.34519 0.0
Zn320 Zn 0.83713 -0.00139 0.6249 0.0
Zn321 Zn 0.84014 0.02911 0.52819 0.0
C322 C 0.89118 0.9578 0.66252 0.0
O323 O 0.86527 0.93548 0.66768 0.0
C324 C 0.77555 0.03551 0.48925 0.0
O325 O 0.79304 0.06292 0.47712 0.0
O326 O 0.80456 0.98815 0.66638 0.0
O327 O 0.83895 0.0504 0.61805 0.0
O328 O 0.8427 0.07248 0.56131 0.0
C329 C 0.81078 0.00336 0.69695 0.0
O330 O 0.83669 0.02618 0.69907 0.0
O331 O 0.88565 0.98516 0.64328 0.0
C332 C 0.86021 0.01157 0.45785 0.0
O333 O 0.84567 0.98285 0.47093 0.0
O334 O 0.86231 0.0385 0.47867 0.0
O335 O 0.86624 0.98583 0.546 0.0
O336 O 0.8219 0.97111 0.58068 0.0
O337 O 0.78928 0.01708 0.51485 0.0
C338 C 0.84155 0.07633 0.59627 0.0
C339 C 0.84888 0.96234 0.56266 0.0
Zn340 Zn 0.40259 0.23965 0.64673 0.0
Zn341 Zn 0.42269 0.22818 0.53094 0.0
C342 C 0.34629 0.2408 0.70154 0.0
O343 O 0.37195 0.24807 0.72475 0.0
C344 C 0.48572 0.21101 0.49414 0.0
O345 O 0.46642 0.18305 0.48727 0.0
O346 O 0.4403 0.23637 0.6861 0.0
O347 O 0.41026 0.20948 0.60395 0.0
O348 O 0.41842 0.17893 0.55507 0.0
C349 C 0.45163 0.26392 0.7021 0.0
O350 O 0.4398 0.29465 0.69129 0.0
O351 O 0.3535 0.23469 0.66785 0.0
C352 C 0.40904 0.24818 0.45614 0.0
O353 O 0.43581 0.26888 0.46357 0.0
O354 O 0.39648 0.22875 0.48154 0.0
O355 O 0.40613 0.27164 0.56242 0.0
O356 O 0.40125 0.28558 0.62252 0.0
O357 O 0.47363 0.23447 0.51576 0.0
C358 C 0.41356 0.17947 0.58967 0.0
C359 C 0.39852 0.29337 0.58841 0.0
Zn360 Zn 0.81861 0.26595 0.63392 0.0
Zn361 Zn 0.82762 0.2518 0.7406 0.0
C362 C 0.87557 0.28375 0.59087 0.0
O363 O 0.85438 0.31092 0.58858 0.0
C364 C 0.76718 0.22095 0.77168 0.0
O365 O 0.79075 0.19649 0.77817 0.0
O366 O 0.7829 0.27221 0.59263 0.0
O367 O 0.80424 0.22789 0.66806 0.0
O368 O 0.84334 0.21141 0.7084 0.0
C369 C 0.78711 0.25513 0.56266 0.0
O370 O 0.81364 0.23319 0.56009 0.0
O371 O 0.86578 0.25733 0.60974 0.0
C372 C 0.84319 0.27252 0.81318 0.0
O373 O 0.82331 0.29865 0.80197 0.0
O374 O 0.85081 0.24818 0.79044 0.0
O375 O 0.83844 0.3009 0.72169 0.0
O376 O 0.82616 0.31091 0.66218 0.0
O377 O 0.77613 0.24767 0.75288 0.0
C378 C 0.82803 0.2065 0.67763 0.0
C379 C 0.83582 0.32148 0.69412 0.0
Zn380 Zn 0.4049 0.9917 0.61578 0.0
Zn381 Zn 0.42557 0.00038 0.73272 0.0
C382 C 0.35204 0.9733 0.56768 0.0
O383 O 0.3751 0.94771 0.56535 0.0
C384 C 0.48611 0.00448 0.77916 0.0
O385 O 0.46367 0.02269 0.79893 0.0
O386 O 0.44483 0.98889 0.57984 0.0
O387 O 0.41376 0.02021 0.6597 0.0
O388 O 0.42214 0.04952 0.70968 0.0
C389 C 0.44213 0.00446 0.54896 0.0
O390 O 0.41449 0.02418 0.54236 0.0
O391 O 0.35905 -0.0006 0.58859 0.0
C392 C 0.39918 0.97329 0.80127 0.0
O393 O 0.41537 0.94497 0.78936 0.0
O394 O 0.39787 0.00012 0.78042 0.0
O395 O 0.40788 0.95916 0.69942 0.0
O396 O 0.39832 0.94593 0.6399 0.0
O397 O 0.47652 0.99246 0.74783 0.0
C398 C 0.41704 0.04972 0.67509 0.0
C399 C 0.39828 0.93769 0.67397 0.0
Zn400 Zn 0.14932 0.98779 0.47146 0.0
Zn401 Zn 0.17691 0.00636 0.38946 0.0
C402 C 0.216 0.96403 0.49441 0.0
O403 O 0.19675 0.93584 0.49995 0.0
C404 C 0.12208 0.03389 0.34523 0.0
O405 O 0.14517 0.05956 0.34376 0.0
O406 O 0.13096 0.97932 0.52291 0.0
O407 O 0.13098 0.03479 0.45598 0.0
O408 O 0.17884 0.04763 0.42471 0.0
C409 C 0.14091 0.00299 0.54557 0.0
O410 O 0.15983 0.02928 0.53307 0.0
O411 O 0.20177 0.99072 0.4796 0.0
C412 C 0.20804 0.99572 0.31931 0.0
O413 O 0.18189 0.97314 0.31797 0.0
O414 O 0.21192 0.01435 0.3483 0.0
O415 O 0.18656 0.95768 0.40819 0.0
O416 O 0.13721 0.94756 0.43744 0.0
O417 O 0.12927 0.00694 0.3645 0.0
C418 C 0.15155 0.05748 0.44214 0.0
C419 C 0.1609 0.93742 0.41517 0.0
Zn420 Zn 0.57529 0.77032 0.49069 0.0
Zn421 Zn 0.57026 0.7618 0.38072 0.0
C422 C 0.51016 0.79302 0.52209 0.0
O423 O 0.52967 0.81994 0.53216 0.0
C424 C 0.6233 0.74374 0.33343 0.0
O425 O 0.59874 0.71981 0.32862 0.0
O426 O 0.59712 0.76946 0.5408 0.0
O427 O 0.58781 0.72341 0.46417 0.0
O428 O 0.57799 0.71563 0.40339 0.0
C429 C 0.58748 0.7447 0.5619 0.0
O430 O 0.56579 0.72066 0.54908 0.0
O431 O 0.52336 0.76959 0.50128 0.0
C432 C 0.53499 0.77493 0.31317 0.0
O433 O 0.56234 0.79557 0.30858 0.0
O434 O 0.53141 0.75895 0.34368 0.0
O435 O 0.56037 0.7895 0.42426 0.0
O436 O 0.59047 0.81598 0.46607 0.0
O437 O 0.61695 0.76954 0.35497 0.0
C438 C 0.58747 0.70427 0.43495 0.0
C439 C 0.57954 0.81515 0.43317 0.0
Zn440 Zn 0.15446 0.75537 0.28123 0.0
Zn441 Zn 0.15004 0.74357 0.38884 0.0
C442 C 0.22109 0.77901 0.26077 0.0
O443 O 0.20133 0.80618 0.25247 0.0
C444 C 0.09434 0.73191 0.43559 0.0
O445 O 0.11228 0.70241 0.43534 0.0
O446 O 0.13938 0.75887 0.22821 0.0
O447 O 0.1355 0.70893 0.2995 0.0
O448 O 0.13659 0.70042 0.36055 0.0
C449 C 0.15111 0.73481 0.20714 0.0
O450 O 0.16987 0.70933 0.22165 0.0
O451 O 0.20712 0.75311 0.27723 0.0
C452 C 0.19115 0.75823 0.451 0.0
O453 O 0.17324 0.78749 0.44704 0.0
O454 O 0.18639 0.73363 0.42765 0.0
O455 O 0.16949 0.77928 0.35498 0.0
O456 O 0.13903 0.79905 0.30878 0.0
O457 O 0.10562 0.75756 0.41642 0.0
C458 C 0.13039 0.68983 0.32777 0.0
C459 C 0.14912 0.80234 0.34199 0.0
Zn460 Zn 0.61323 0.9885 0.29127 0.0
Zn461 Zn 0.5831 0.00263 0.36738 0.0
C462 C 0.54823 0.97176 0.25451 0.0
O463 O 0.56935 0.9495 0.23793 0.0
C464 C 0.64146 0.99496 0.42175 0.0
O465 O 0.6183 0.97872 0.44241 0.0
O466 O 0.63432 0.98358 0.24078 0.0
O467 O 0.63022 0.03474 0.31107 0.0
O468 O 0.57854 0.04544 0.33522 0.0
C469 C 0.62774 0.00941 0.21966 0.0
O470 O 0.61141 0.03694 0.23326 0.0
O471 O 0.56047 0.99098 0.28042 0.0
C472 C 0.53951 0.98273 0.42813 0.0
O473 O 0.5513 0.95132 0.41963 0.0
O474 O 0.54925 0.00898 0.40912 0.0
O475 O 0.57249 0.95487 0.34567 0.0
O476 O 0.62508 0.9466 0.32285 0.0
O477 O 0.63249 0.00504 0.38955 0.0
C478 C 0.60718 0.05663 0.32162 0.0
C479 C 0.59835 0.93474 0.33953 0.0
Zn480 Zn 0.82523 0.50393 0.11941 0.0
Zn481 Zn 0.85963 0.52261 0.04642 0.0
C482 C 0.8777 0.46982 0.1618 0.0
O483 O 0.85346 0.44522 0.16016 0.0
C484 C 0.79534 0.53653 0.00756 0.0
O485 O 0.81606 0.55829 0.9898 0.0
O486 O 0.78967 0.49416 0.15874 0.0
O487 O 0.81738 0.55435 0.10425 0.0
O488 O 0.86983 0.56346 0.08063 0.0
C489 C 0.79188 0.51305 0.18765 0.0
O490 O 0.81616 0.53762 0.18927 0.0
O491 O 0.87207 0.49897 0.14568 0.0
C492 C 0.87561 0.50223 0.9749 0.0
O493 O 0.8584 0.47504 0.98794 0.0
O494 O 0.88179 0.52823 0.9962 0.0
O495 O 0.87597 0.47568 0.06427 0.0
O496 O 0.82212 0.46487 0.08206 0.0
O497 O 0.80734 0.5197 0.03511 0.0
C498 C 0.8435 0.57449 0.09878 0.0
C499 C 0.85164 0.45372 0.07071 0.0
Zn500 Zn 0.40068 0.74496 0.1287 0.0
Zn501 Zn 0.41904 0.7267 0.01523 0.0
C502 C 0.35203 0.76573 0.1799 0.0
O503 O 0.37481 0.79166 0.17813 0.0
C504 C 0.48195 0.7216 0.97112 0.0
O505 O 0.46129 0.70031 0.95241 0.0
O506 O 0.44238 0.75276 0.16109 0.0
O507 O 0.40806 0.71318 0.08816 0.0
O508 O 0.41459 0.67859 0.04215 0.0
C509 C 0.4428 0.73615 0.19141 0.0
O510 O 0.41837 0.7124 0.19746 0.0
O511 O 0.3574 0.73843 0.16024 0.0
C512 C 0.39638 0.74869 0.94527 0.0
O513 O 0.41 0.77791 0.95848 0.0
O514 O 0.39463 0.72199 0.96614 0.0
O515 O 0.39783 0.77247 0.0403 0.0
O516 O 0.39045 0.78715 0.09999 0.0
O517 O 0.47074 0.73519 1.00113 0.0
C518 C 0.41039 0.68222 0.07655 0.0
C519 C 0.38812 0.79409 0.06567 0.0
Zn520 Zn 0.83028 0.75036 0.13605 0.0
Zn521 Zn 0.83106 0.74438 0.2475 0.0
C522 C 0.88497 0.74995 0.08616 0.0
O523 O 0.86714 0.77855 0.07836 0.0
C524 C 0.76308 0.72463 0.27176 0.0
O525 O 0.7806 0.69592 0.27985 0.0
O526 O 0.79321 0.75673 0.09661 0.0
O527 O 0.8144 0.72523 0.17982 0.0
O528 O 0.84171 0.69738 0.22298 0.0
C529 C 0.79284 0.73462 0.07018 0.0
O530 O 0.81445 0.70778 0.07153 0.0
O531 O 0.87403 0.73051 0.11228 0.0
C532 C 0.84161 0.7692 0.32055 0.0
O533 O 0.82045 0.79345 0.30746 0.0
O534 O 0.85157 0.74458 0.2992 0.0
O535 O 0.84827 0.7881 0.21853 0.0
O536 O 0.84598 0.79615 0.15711 0.0
O537 O 0.77896 0.74952 0.25555 0.0
C538 C 0.83079 0.69812 0.18999 0.0
C539 C 0.85342 0.80687 0.18968 0.0
Zn540 Zn 0.42303 0.49061 0.14028 0.0
Zn541 Zn 0.39335 0.50333 0.2192 0.0
C542 C 0.36551 0.46559 0.09564 0.0
O543 O 0.38706 0.43877 0.09279 0.0
C544 C 0.45752 0.51367 0.25995 0.0
O545 O 0.43635 0.5332 0.27987 0.0
O546 O 0.45684 0.4814 0.09943 0.0
O547 O 0.43507 0.5384 0.1608 0.0
O548 O 0.38369 0.54632 0.18704 0.0
C549 C 0.45566 0.49991 0.0704 0.0
O550 O 0.43291 0.52583 0.06843 0.0
O551 O 0.37453 0.49156 0.11585 0.0
C552 C 0.37661 0.47946 0.28946 0.0
O553 O 0.39408 0.45321 0.27469 0.0
O554 O 0.37086 0.50668 0.26992 0.0
O555 O 0.37597 0.45699 0.19869 0.0
O556 O 0.42724 0.44844 0.17299 0.0
O557 O 0.44601 0.49939 0.23043 0.0
C558 C 0.40946 0.55837 0.16861 0.0
C559 C 0.39908 0.43605 0.18633 0.0
Zn560 Zn 0.1644 0.47835 0.98838 0.0
Zn561 Zn 0.18591 0.49806 0.90216 0.0
C562 C 0.23063 0.45787 0.0182 0.0
O563 O 0.21224 0.42899 0.02304 0.0
C564 C 0.12561 0.52399 0.86555 0.0
O565 O 0.1467 0.55138 0.86493 0.0
O566 O 0.14171 0.47087 0.03803 0.0
O567 O 0.14415 0.52383 0.97027 0.0
O568 O 0.18992 0.53956 0.93705 0.0
C569 C 0.14614 0.49691 0.0597 0.0
O570 O 0.16425 0.52408 0.04796 0.0
O571 O 0.21647 0.48329 1.0009 0.0
C572 C 0.20926 0.48689 0.82942 0.0
O573 O 0.18641 0.46125 0.83335 0.0
O574 O 0.21497 0.5073 0.85672 0.0
O575 O 0.20067 0.45044 0.92058 0.0
O576 O 0.15448 0.43758 0.95421 0.0
O577 O 0.13581 0.49639 0.88219 0.0
C578 C 0.16281 0.54765 0.95568 0.0
C579 C 0.17648 0.42909 0.92944 0.0
Zn580 Zn 0.60814 0.26763 0.97385 0.0
Zn581 Zn 0.57905 0.24717 0.89573 0.0
C582 C 0.54052 0.27593 1.00518 0.0
O583 O 0.5578 0.30026 0.0236 0.0
C584 C 0.63592 0.2211 0.85392 0.0
O585 O 0.61536 0.19334 0.85489 0.0
O586 O 0.62537 0.27546 0.02655 0.0
O587 O 0.63094 0.22364 0.95491 0.0
O588 O 0.58084 0.20546 0.93071 0.0
C589 C 0.61986 0.24948 0.04788 0.0
O590 O 0.60737 0.22022 0.03357 0.0
O591 O 0.55614 0.25868 0.98004 0.0
C592 C 0.54651 0.26089 0.82866 0.0
O593 O 0.56953 0.28651 0.83194 0.0
O594 O 0.54481 0.23795 0.8541 0.0
O595 O 0.56623 0.29592 0.91371 0.0
O596 O 0.61538 0.31013 0.94189 0.0
O597 O 0.6263 0.24895 0.87054 0.0
C598 C 0.61072 0.19872 0.94501 0.0
C599 C 0.58997 0.31851 0.9208 0.0
Zn600 Zn 0.13936 0.24948 0.79377 0.0
Zn601 Zn 0.17228 0.23055 0.86691 0.0
C602 C 0.20318 0.25795 0.7543 0.0
O603 O 0.18346 0.28175 0.7382 0.0
C604 C 0.11736 0.2299 0.92402 0.0
O605 O 0.14209 0.21679 0.94527 0.0
O606 O 0.11633 0.25677 0.74413 0.0
O607 O 0.11673 0.20644 0.81464 0.0
O608 O 0.16817 0.18785 0.8336 0.0
C609 C 0.11628 0.22934 0.72394 0.0
O610 O 0.12863 0.19987 0.73755 0.0
O611 O 0.1907 0.24053 0.7812 0.0
C612 C 0.21488 0.24082 0.93084 0.0
O613 O 0.20068 0.27223 0.92874 0.0
O614 O 0.20673 0.21796 0.90667 0.0
O615 O 0.18765 0.27798 0.84767 0.0
O616 O 0.1355 0.29198 0.8263 0.0
O617 O 0.1244 0.23743 0.89063 0.0
C618 C 0.13702 0.18124 0.82278 0.0
C619 C 0.16333 0.30054 0.84366 0.0
Zn620 Zn 0.57448 0.49814 0.78072 0.0
Zn621 Zn 0.60174 0.5054 0.89467 0.0
C622 C 0.51046 0.48201 0.74743 0.0
O623 O 0.52962 0.45389 0.74131 0.0
C624 C 0.65473 0.50972 0.9512 0.0
O625 O 0.62848 0.52247 0.97054 0.0
O626 O 0.59803 0.49731 0.73113 0.0
O627 O 0.59525 0.5402 0.81191 0.0
O628 O 0.60644 0.55156 0.8717 0.0
C629 C 0.59405 0.52386 0.71033 0.0
O630 O 0.57833 0.55192 0.72355 0.0
O631 O 0.52349 0.50679 0.76681 0.0
C632 C 0.55667 0.47983 0.95209 0.0
O633 O 0.57716 0.45215 0.94986 0.0
O634 O 0.56206 0.50551 0.93055 0.0
O635 O 0.59205 0.47799 0.8508 0.0
O636 O 0.57819 0.44817 0.80279 0.0
O637 O 0.6489 0.4982 0.91876 0.0
C638 C 0.60616 0.56066 0.83785 0.0
C639 C 0.58687 0.44834 0.83649 0.0
C640 C 0.34177 0.83758 0.07813 0.0
C641 C 0.37106 0.82783 0.05675 0.0
C642 C 0.33099 0.87253 0.08055 0.0
C643 C 0.34879 0.899 0.0613 0.0
H644 H 0.32885 0.81844 0.0956 0.0
H645 H 0.31034 0.87925 0.09989 0.0
S646 S 0.4232 0.88665 0.99673 0.0
N647 N 0.41488 0.8467 0.01232 0.0
N648 N 0.39416 0.9129 0.01651 0.0
C649 C 0.37563 0.88927 0.03668 0.0
C650 C 0.38688 0.85342 0.03441 0.0
C651 C 0.89055 0.40321 0.05388 0.0
C652 C 0.85921 0.41565 0.07008 0.0
C653 C 0.90077 0.36798 0.05744 0.0
C654 C 0.88012 0.34444 0.07768 0.0
H655 H 0.90792 0.42105 0.03944 0.0
H656 H 0.92581 0.35967 0.04621 0.0
S657 S 0.7941 0.36223 0.1218 0.0
N658 N 0.80608 0.40027 0.104 0.0
N659 N 0.82584 0.33448 0.11122 0.0
C660 C 0.8479 0.3559 0.09212 0.0
C661 C 0.83723 0.39144 0.08814 0.0
C662 C 0.36644 0.38236 0.20725 0.0
C663 C 0.3922 0.39778 0.18451 0.0
C664 C 0.35794 0.34653 0.20407 0.0
C665 C 0.37438 0.3253 0.17747 0.0
H666 H 0.35246 0.39815 0.22734 0.0
H667 H 0.33742 0.33576 0.22141 0.0
S668 S 0.44508 0.35192 0.11293 0.0
N669 N 0.43558 0.38808 0.1361 0.0
N670 N 0.41881 0.32131 0.12958 0.0
C671 C 0.40083 0.34006 0.1554 0.0
C672 C 0.40997 0.37617 0.15906 0.0
C673 C 0.88892 0.8562 0.16428 0.0
C674 C 0.86919 0.84223 0.19361 0.0
C675 C 0.90434 0.88949 0.16683 0.0
C676 C 0.89996 0.91054 0.19845 0.0
H677 H 0.8929 0.84111 0.13921 0.0
H678 H 0.91955 0.89889 0.14364 0.0
S679 S 0.85097 0.88609 0.28317 0.0
N680 N 0.84654 0.85174 0.25556 0.0
N681 N 0.87493 0.91478 0.26012 0.0
C682 C 0.88032 0.89692 0.22807 0.0
C683 C 0.86511 0.86266 0.22571 0.0
C684 C 0.67042 0.12013 0.93344 0.0
C685 C 0.64938 0.09212 0.94566 0.0
C686 C 0.65795 0.15474 0.93432 0.0
C687 C 0.6236 0.16228 0.94622 0.0
H688 H 0.69666 0.11523 0.92303 0.0
H689 H 0.67492 0.17562 0.92454 0.0
S690 S 0.55795 0.0982 0.98038 0.0
N691 N 0.59282 0.07412 0.97041 0.0
N692 N 0.5688 0.13917 0.97054 0.0
C693 C 0.60225 0.13454 0.95836 0.0
C694 C 0.61532 0.09941 0.95852 0.0
C695 C 0.10023 0.62419 0.94553 0.0
C696 C 0.1232 0.65302 0.94464 0.0
C697 C 0.1132 0.59014 0.951 0.0
C698 C 0.14958 0.58398 0.95482 0.0
H699 H 0.07236 0.62782 0.94045 0.0
H700 H 0.09483 0.56835 0.95027 0.0
S701 S 0.21992 0.65147 0.95696 0.0
N702 N 0.18331 0.67396 0.95021 0.0
N703 N 0.20793 0.60981 0.95977 0.0
C704 C 0.17255 0.61287 0.95526 0.0
C705 C 0.15926 0.6475 0.95031 0.0
C706 C 0.61989 0.65163 0.79801 0.0
C707 C 0.64858 0.6643 0.81908 0.0
C708 C 0.60697 0.61736 0.80278 0.0
C709 C 0.62198 0.595 0.8292 0.0
H710 H 0.60686 0.66852 0.77822 0.0
H711 H 0.58429 0.60887 0.78685 0.0
S712 S 0.69946 0.61398 0.8889 0.0
N713 N 0.69308 0.65051 0.8654 0.0
N714 N 0.6687 0.58653 0.87444 0.0
C715 C 0.65157 0.60677 0.84923 0.0
C716 C 0.66492 0.64132 0.84415 0.0
C717 C 0.14812 0.1172 0.8128 0.0
C718 C 0.1243 0.14466 0.81967 0.0
C719 C 0.13646 0.08238 0.80939 0.0
C720 C 0.10067 0.07371 0.81349 0.0
H721 H 0.17594 0.12267 0.80971 0.0
H722 H 0.15577 0.06203 0.80427 0.0
S723 S 0.02776 0.13596 0.8321 0.0
N724 N 0.06327 0.16091 0.83037 0.0
N725 N 0.0415 0.09542 0.82469 0.0
C726 C 0.07661 0.10092 0.8205 0.0
C727 C 0.08839 0.1364 0.82336 0.0
C728 C 0.39471 0.34989 0.5527 0.0
C729 C 0.38172 0.32729 0.58005 0.0
C730 C 0.38097 0.38401 0.54876 0.0
C731 C 0.35384 0.39623 0.57198 0.0
H732 H 0.41654 0.34179 0.53552 0.0
H733 H 0.3927 0.40136 0.52857 0.0
S734 S 0.30666 0.34426 0.64299 0.0
N735 N 0.33731 0.31758 0.62717 0.0
N736 N 0.31149 0.38112 0.61968 0.0
C737 C 0.33911 0.37275 0.59752 0.0
C738 C 0.35306 0.3384 0.60156 0.0
C739 C 0.83846 0.89823 0.56533 0.0
C740 C 0.86238 0.92636 0.56636 0.0
C741 C 0.84993 0.86359 0.56931 0.0
C742 C 0.88566 0.85588 0.57544 0.0
H743 H 0.81064 0.90303 0.56107 0.0
H744 H 0.8305 0.84274 0.56818 0.0
S745 S 0.95857 0.92061 0.58224 0.0
N746 N 0.92321 0.94467 0.57434 0.0
N747 N 0.94485 0.87942 0.58323 0.0
C748 C 0.90984 0.8839 0.57712 0.0
C749 C 0.89819 0.9192 0.57213 0.0
C750 C 0.40245 0.87958 0.70548 0.0
C751 C 0.38364 0.90321 0.68335 0.0
C752 C 0.39119 0.84462 0.70888 0.0
C753 C 0.36051 0.83257 0.69077 0.0
H754 H 0.42687 0.88762 0.71855 0.0
H755 H 0.40718 0.82668 0.72492 0.0
S756 S 0.29986 0.88636 0.63352 0.0
N757 N 0.33163 0.91364 0.64579 0.0
N758 N 0.30987 0.84842 0.65282 0.0
C759 C 0.34029 0.85689 0.67066 0.0
C760 C 0.35207 0.89212 0.66674 0.0
C761 C 0.87405 0.36797 0.72334 0.0
C762 C 0.84714 0.35853 0.69817 0.0
C763 C 0.88921 0.40177 0.72286 0.0
C764 C 0.87779 0.42694 0.69723 0.0
H765 H 0.8848 0.34861 0.7421 0.0
H766 H 0.91112 0.40754 0.74112 0.0
S767 S 0.80361 0.41753 0.63074 0.0
N768 N 0.80663 0.37874 0.65072 0.0
N769 N 0.83463 0.4419 0.64997 0.0
C770 C 0.84902 0.41861 0.67413 0.0
C771 C 0.83382 0.38448 0.67453 0.0
C772 C 0.62869 0.62012 0.40223 0.0
C773 C 0.62312 0.59662 0.43153 0.0
C774 C 0.61777 0.6549 0.40445 0.0
C775 C 0.60082 0.66797 0.43602 0.0
H776 H 0.64141 0.61166 0.377 0.0
H777 H 0.62256 0.67172 0.38096 0.0
S778 S 0.58111 0.61822 0.52131 0.0
N779 N 0.60035 0.58929 0.49392 0.0
N780 N 0.58006 0.65546 0.498 0.0
C781 C 0.59606 0.6454 0.4662 0.0
C782 C 0.60709 0.60954 0.46393 0.0
C783 C 0.1156 0.10711 0.46791 0.0
C784 C 0.14209 0.09523 0.44363 0.0
C785 C 0.10376 0.14207 0.46714 0.0
C786 C 0.11761 0.16599 0.44161 0.0
H787 H 0.10341 0.08911 0.48714 0.0
H788 H 0.08269 0.14996 0.48544 0.0
S789 S 0.18952 0.14949 0.37466 0.0
N790 N 0.18364 0.11146 0.3955 0.0
N791 N 0.16093 0.17659 0.39365 0.0
C792 C 0.14506 0.15493 0.41838 0.0
C793 C 0.15745 0.1197 0.4195 0.0
C794 C 0.65765 0.14207 0.31247 0.0
C795 C 0.63131 0.16764 0.31598 0.0
C796 C 0.64941 0.10626 0.31381 0.0
C797 C 0.61461 0.09473 0.31949 0.0
H798 H 0.68481 0.14977 0.30833 0.0
H799 H 0.67064 0.08752 0.31084 0.0
S800 S 0.53634 0.15175 0.33235 0.0
N801 N 0.56928 0.17945 0.32635 0.0
N802 N 0.5537 0.11208 0.32954 0.0
C803 C 0.58805 0.12019 0.32354 0.0
C804 C 0.59642 0.15667 0.32158 0.0
C805 C 0.0913 0.64267 0.35021 0.0
C806 C 0.11456 0.65478 0.32311 0.0
C807 C 0.07762 0.60876 0.34872 0.0
C808 C 0.08714 0.58515 0.32042 0.0
H809 H 0.08389 0.65941 0.37317 0.0
H810 H 0.06033 0.60068 0.37085 0.0
S811 S 0.14504 0.60533 0.24087 0.0
N812 N 0.14452 0.64199 0.26541 0.0
N813 N 0.11945 0.57733 0.26299 0.0
C814 C 0.10897 0.59753 0.29193 0.0
C815 C 0.12259 0.63255 0.29323 0.0
C816 C 0.27944 0.03178 0.25637 0.0
C817 C 0.28034 0.00732 0.22711 0.0
C818 C 0.25609 0.02781 0.28601 0.0
C819 C 0.2324 -0.00061 0.2875 0.0
H820 H 0.29728 0.054 0.25678 0.0
H821 H 0.25663 0.04728 0.3079 0.0
S822 S 0.22337 0.92837 0.21738 0.0
N823 N 0.25492 0.95384 0.20126 0.0
N824 N 0.21098 0.94653 0.25665 0.0
C825 C 0.23267 0.97495 0.25817 0.0
C826 C 0.25662 0.97886 0.2281 0.0
C827 C 0.99235 0.25886 0.30553 0.0
C828 C 0.02207 0.27888 0.29587 0.0
C829 C 0.96485 0.25326 0.28048 0.0
C830 C 0.96602 0.26723 0.24464 0.0
H831 H 0.99036 0.24694 0.33257 0.0
H832 H 0.94277 0.23731 0.28921 0.0
S833 S 0.03687 0.32329 0.20603 0.0
N834 N 0.05026 0.31413 0.24833 0.0
N835 N 0.99861 0.30323 0.20105 0.0
C836 C 0.99522 0.28787 0.2347 0.0
C837 C 0.02318 0.29386 0.26039 0.0
C838 C 0.24279 0.25592 0.9913 0.0
C839 C 0.2383 0.23178 0.96217 0.0
C840 C 0.26503 0.24857 0.02113 0.0
C841 C 0.28398 0.21688 0.02291 0.0
H842 H 0.2292 0.28092 0.99109 0.0
H843 H 0.26806 0.26839 0.04245 0.0
S844 S 0.28007 0.14378 0.95491 0.0
N845 N 0.25355 0.17402 0.93783 0.0
N846 N 0.29555 0.16035 0.99391 0.0
C847 C 0.27918 0.19209 0.99445 0.0
C848 C 0.25632 0.19949 0.96409 0.0
C849 C 0.97185 0.00351 0.99768 0.0
C850 C 0.97155 0.97905 0.02671 0.0
C851 C 0.99192 0.9978 0.96591 0.0
C852 C 0.01246 0.9673 0.96174 0.0
H853 H 0.95685 0.02763 0.99967 0.0
H854 H 0.99164 0.0178 0.94469 0.0
S855 S 0.01826 0.89344 0.02833 0.0
N856 N 0.99189 0.92211 0.04839 0.0
N857 N 0.02957 0.91124 0.98857 0.0
C858 C 0.01172 0.94213 0.99016 0.0
C859 C 0.99132 0.94804 0.02267 0.0
C860 C 0.76619 0.01468 0.78942 0.0
C861 C 0.74587 0.98389 0.79264 0.0
C862 C 0.78745 0.02047 0.75858 0.0
C863 C 0.78906 0.99582 0.72968 0.0
H864 H 0.7652 0.03492 0.81049 0.0
H865 H 0.80212 0.04486 0.75706 0.0
S866 S 0.74402 0.90921 0.72635 0.0
N867 N 0.73087 0.92715 0.7655 0.0
N868 N 0.77066 0.93825 0.70734 0.0
C869 C 0.76976 0.96441 0.73298 0.0
C870 C 0.74824 0.95839 0.76452 0.0
C871 C 0.00869 0.74022 0.78754 0.0
C872 C 0.03642 0.76469 0.78565 0.0
C873 C 0.98305 0.73826 0.7598 0.0
C874 C 0.98402 0.76071 0.72905 0.0
H875 H 0.00703 0.72189 0.81029 0.0
H876 H 0.96255 0.71862 0.76236 0.0
S877 S 0.05045 0.83031 0.71136 0.0
N878 N 0.0626 0.81283 0.75104 0.0
N879 N 0.01469 0.80875 0.69863 0.0
C880 C 0.01109 0.78594 0.72719 0.0
C881 C 0.03719 0.78804 0.75556 0.0
C882 C 0.73785 0.78212 0.99822 0.0
C883 C 0.73571 0.75764 0.96906 0.0
C884 C 0.75543 0.77407 0.0312 0.0
C885 C 0.77181 0.7413 0.03633 0.0
H886 H 0.72599 0.80786 0.99561 0.0
H887 H 0.75666 0.794 0.05258 0.0
S888 S 0.77222 0.66704 0.96941 0.0
N889 N 0.75034 0.69852 0.94817 0.0
N890 N 0.78343 0.68353 0.00998 0.0
C891 C 0.76933 0.71628 0.00768 0.0
C892 C 0.75135 0.72443 0.97411 0.0
C893 C 0.24917 0.52188 0.78862 0.0
C894 C 0.2274 0.49234 0.79357 0.0
C895 C 0.26691 0.52753 0.7553 0.0
C896 C 0.26376 0.50388 0.72546 0.0
H897 H 0.25274 0.54082 0.81071 0.0
H898 H 0.2836 0.55054 0.7532 0.0
S899 S 0.20931 0.42275 0.72371 0.0
N900 N 0.20308 0.4394 0.76531 0.0
N901 N 0.23648 0.45004 0.70283 0.0
C902 C 0.24159 0.47452 0.72975 0.0
C903 C 0.22346 0.46874 0.76373 0.0
C904 C 0.23604 0.72287 0.4852 0.0
C905 C 0.21559 0.75356 0.48265 0.0
C906 C 0.25893 0.71738 0.515 0.0
C907 C 0.26222 0.74225 0.54366 0.0
H908 H 0.23443 0.70278 0.464 0.0
H909 H 0.27401 0.69326 0.51559 0.0
S910 S 0.21473 0.82729 0.55025 0.0
N911 N 0.20032 0.80942 0.51145 0.0
N912 N 0.24326 0.79903 0.56746 0.0
C913 C 0.242 0.77316 0.54151 0.0
C914 C 0.21876 0.77883 0.51102 0.0
C915 C 0.99061 0.50946 0.49241 0.0
C916 C 0.01211 0.53729 0.48046 0.0
C917 C 0.97224 0.51151 0.52566 0.0
C918 C 0.97428 0.54164 0.5481 0.0
H919 H 0.98789 0.48574 0.47604 0.0
H920 H 0.95578 0.48949 0.53345 0.0
S921 S 0.02821 0.62102 0.53096 0.0
N922 N 0.03547 0.59552 0.4948 0.0
N923 N 0.00018 0.59937 0.55718 0.0
C924 C 0.99567 0.56964 0.53679 0.0
C925 C 0.01477 0.56748 0.50301 0.0
C926 C 0.7483 0.47564 0.22107 0.0
C927 C 0.76806 0.50688 0.21928 0.0
C928 C 0.72535 0.4692 0.25047 0.0
C929 C 0.72111 0.49381 0.27921 0.0
H930 H 0.75056 0.45587 0.19962 0.0
H931 H 0.71067 0.44478 0.25046 0.0
S932 S 0.76661 0.58001 0.28744 0.0
N933 N 0.78191 0.56277 0.24885 0.0
N934 N 0.73875 0.55078 0.304 0.0
C935 C 0.74099 0.52506 0.27797 0.0
C936 C 0.76443 0.53157 0.24803 0.0
C937 C 0.74466 0.24174 0.46849 0.0
C938 C 0.72026 0.26941 0.46605 0.0
C939 C 0.76579 0.23732 0.49991 0.0
C940 C 0.76344 0.26029 0.53037 0.0
H941 H 0.74753 0.22318 0.44596 0.0
H942 H 0.78413 0.21555 0.50022 0.0
S943 S 0.7042 0.33747 0.53794 0.0
N944 N 0.69524 0.32053 0.49694 0.0
N945 N 0.73494 0.31209 0.55594 0.0
C946 C 0.73914 0.2881 0.52842 0.0
C947 C 0.71762 0.29269 0.4963 0.0
C948 C 0.51662 0.29137 0.7765 0.0
C949 C 0.52242 0.26021 0.79643 0.0
C950 C 0.49393 0.29213 0.746 0.0
C951 C 0.47641 0.26165 0.73377 0.0
H952 H 0.52936 0.31565 0.78479 0.0
H953 H 0.49016 0.31691 0.7319 0.0
S954 S 0.48333 0.17292 0.77572 0.0
N955 N 0.50918 0.1979 0.80154 0.0
N956 N 0.46687 0.1991 0.74376 0.0
C957 C 0.48232 0.2301 0.75312 0.0
C958 C 0.50516 0.22945 0.78459 0.0
C959 C 0.47224 0.02403 0.49168 0.0
C960 C 0.46845 -0.00114 0.51971 0.0
C961 C 0.4956 0.01872 0.46245 0.0
C962 C 0.51564 0.98777 0.45982 0.0
H963 H 0.457 0.04806 0.49228 0.0
H964 H 0.4975 0.03884 0.44144 0.0
S965 S 0.51542 0.91364 0.52628 0.0
N966 N 0.48684 0.94195 0.54333 0.0
N967 N 0.53055 0.93174 0.48811 0.0
C968 C 0.51225 0.96241 0.48779 0.0
C969 C 0.48875 0.96804 0.51785 0.0
C970 C 0.46603 0.72845 0.25525 0.0
C971 C 0.46761 0.74608 0.22123 0.0
C972 C 0.48738 0.7385 0.28494 0.0
C973 C 0.51137 0.76651 0.28183 0.0
H974 H 0.44797 0.70675 0.25922 0.0
H975 H 0.48522 0.72383 0.31043 0.0
S976 S 0.52573 0.82161 0.19874 0.0
N977 N 0.49512 0.79316 0.18611 0.0
N978 N 0.53535 0.81202 0.24203 0.0
C979 C 0.51334 0.78443 0.24796 0.0
C980 C 0.4915 0.77419 0.21763 0.0
C981 C 0.48534 0.51883 0.01249 0.0
C982 C 0.48023 0.49305 0.03963 0.0
C983 C 0.50955 0.51389 0.98397 0.0
C984 C 0.52956 0.48286 0.98125 0.0
H985 H 0.47109 0.54344 0.01363 0.0
H986 H 0.51291 0.53494 0.96422 0.0
S987 S 0.52369 0.40573 0.04357 0.0
N988 N 0.4955 0.43431 0.06082 0.0
N989 N 0.54099 0.42496 0.00707 0.0
C990 C 0.52388 0.4563 0.00754 0.0
C991 C 0.49926 0.46142 0.03676 0.0
C992 C 0.37069 0.9444 0.89703 0.0
C993 C 0.36488 0.97634 0.91571 0.0
C994 C 0.38146 0.94374 0.86003 0.0
C995 C 0.38632 0.97497 0.83995 0.0
H996 H 0.36698 0.91961 0.91113 0.0
H997 H 0.38583 0.91845 0.84703 0.0
S998 S 0.3743 0.06568 0.87595 0.0
N999 N 0.36482 0.04012 0.9113 0.0
N1000 N 0.3846 0.03891 0.84172 0.0
C1001 C 0.38047 0.00715 0.85825 0.0
C1002 C 0.36996 0.00783 0.89613 0.0
C1003 C 0.86746 0.3022 0.91002 0.0
C1004 C 0.87623 0.27065 0.92791 0.0
C1005 C 0.85677 0.30244 0.87296 0.0
C1006 C 0.85513 0.27123 0.8521 0.0
H1007 H 0.86881 0.32699 0.92476 0.0
H1008 H 0.85018 0.32742 0.86046 0.0
S1009 S 0.87543 0.18151 0.88583 0.0
N1010 N 0.88229 0.2072 0.92198 0.0
N1011 N 0.86281 0.20779 0.85211 0.0
C1012 C 0.86387 0.23945 0.86957 0.0
C1013 C 0.8742 0.23912 0.90754 0.0
C1014 C 0.34742 0.25009 0.37356 0.0
C1015 C 0.37059 0.24651 0.34346 0.0
C1016 C 0.35977 0.24932 0.41016 0.0
C1017 C 0.39583 0.246 0.41782 0.0
H1018 H 0.31944 0.25329 0.36882 0.0
H1019 H 0.34115 0.25236 0.43253 0.0
S1020 S 0.46734 0.23516 0.34927 0.0
N1021 N 0.43118 0.23833 0.32402 0.0
N1022 N 0.45455 0.23836 0.39271 0.0
C1023 C 0.41926 0.24226 0.38809 0.0
C1024 C 0.4066 0.24208 0.3509 0.0
C1025 C 0.89354 0.97779 0.3663 0.0
C1026 C 0.89705 0.00836 0.34491 0.0
C1027 C 0.88178 0.97938 0.40274 0.0
C1028 C 0.87348 0.01165 0.41956 0.0
H1029 H 0.89963 0.95222 0.35476 0.0
H1030 H 0.8794 0.95499 0.4179 0.0
S1031 S 0.87799 0.09946 0.37562 0.0
N1032 N 0.89106 0.07198 0.34305 0.0
N1033 N 0.86921 0.07499 0.41206 0.0
C1034 C 0.87694 0.04254 0.39866 0.0
C1035 C 0.88857 0.04087 0.36117 0.0
C1036 C 0.6454 0.0392 0.12193 0.0
C1037 C 0.64662 0.00752 0.10193 0.0
C1038 C 0.63955 0.03941 0.16005 0.0
C1039 C 0.63544 0.00792 0.17976 0.0
H1040 H 0.64885 0.06413 0.10802 0.0
H1041 H 0.63852 0.06451 0.17422 0.0
S1042 S 0.63665 0.91779 0.14039 0.0
N1043 N 0.64314 0.94372 0.10457 0.0
N1044 N 0.63271 0.94411 0.17648 0.0
C1045 C 0.63678 0.97597 0.16018 0.0
C1046 C 0.64214 0.97578 0.12118 0.0
C1047 C 0.14311 0.70403 0.10776 0.0
C1048 C 0.132 0.73437 0.08892 0.0
C1049 C 0.14937 0.70457 0.14589 0.0
C1050 C 0.14456 0.73539 0.16683 0.0
H1051 H 0.1465 0.6794 0.09313 0.0
H1052 H 0.15748 0.68038 0.15912 0.0
S1053 S 0.11809 0.82263 0.13069 0.0
N1054 N 0.11816 0.79672 0.09406 0.0
N1055 N 0.12975 0.79752 0.16573 0.0
C1056 C 0.13421 0.76614 0.14834 0.0
C1057 C 0.12804 0.76569 0.10941 0.0
C1058 C 0.61841 0.77664 0.65576 0.0
C1059 C 0.61914 0.74562 0.67669 0.0
C1060 C 0.60856 0.776 0.61846 0.0
C1061 C 0.5985 0.74442 0.60101 0.0
H1062 H 0.62633 0.80144 0.668 0.0
H1063 H 0.60857 0.80049 0.6033 0.0
S1064 S 0.59481 0.65624 0.6442 0.0
N1065 N 0.60841 0.6826 0.67764 0.0
N1066 N 0.5893 0.6815 0.60766 0.0
C1067 C 0.59851 0.71334 0.62185 0.0
C1068 C 0.60902 0.71391 0.65966 0.0
C1069 C 0.11623 0.96573 0.63947 0.0
C1070 C 0.11784 0.99547 0.66258 0.0
C1071 C 0.12324 0.96838 0.60149 0.0
C1072 C 0.13271 0.00072 0.5855 0.0
H1073 H 0.10859 0.94046 0.65059 0.0
H1074 H 0.12144 0.94487 0.58464 0.0
S1075 S 0.14245 0.08595 0.63486 0.0
N1076 N 0.13054 0.05791 0.66719 0.0
N1077 N 0.14424 0.0629 0.59624 0.0
C1078 C 0.13511 0.03046 0.60863 0.0
C1079 C 0.12753 0.02783 0.64705 0.0
C1080 C 0.35953 0.50821 0.38848 0.0
C1081 C 0.35472 0.47604 0.40693 0.0
C1082 C 0.3655 0.5093 0.35021 0.0
C1083 C 0.36745 0.47822 0.32917 0.0
H1084 H 0.35814 0.53279 0.40358 0.0
H1085 H 0.3693 0.5346 0.33719 0.0
S1086 S 0.35713 0.38723 0.36432 0.0
N1087 N 0.35243 0.4124 0.40118 0.0
N1088 N 0.36408 0.41438 0.32963 0.0
C1089 C 0.36288 0.44592 0.34735 0.0
C1090 C 0.35638 0.44484 0.38611 0.0
C1091 C 0.86711 0.73794 0.41678 0.0
C1092 C 0.86886 0.76945 0.43715 0.0
C1093 C 0.85905 0.73806 0.37885 0.0
C1094 C 0.85176 0.76964 0.36013 0.0
H1095 H 0.87272 0.71308 0.43004 0.0
H1096 H 0.85804 0.71321 0.36421 0.0
S1097 S 0.85237 0.8592 0.40103 0.0
N1098 N 0.8625 0.83304 0.43575 0.0
N1099 N 0.84676 0.83316 0.36493 0.0
C1100 C 0.85306 0.80123 0.38031 0.0
C1101 C 0.86177 0.80117 0.41868 0.0
C1102 C 0.37559 0.776 0.84725 0.0
C1103 C 0.37571 0.74403 0.82763 0.0
C1104 C 0.38171 0.77705 0.88534 0.0
C1105 C 0.38764 0.74612 0.9055 0.0
H1106 H 0.37102 0.8006 0.83306 0.0
H1107 H 0.38178 0.80239 0.89906 0.0
S1108 S 0.38998 0.65544 0.86734 0.0
N1109 N 0.382 0.68056 0.83117 0.0
N1110 N 0.39307 0.6824 0.90304 0.0
C1111 C 0.38743 0.71384 0.88635 0.0
C1112 C 0.38167 0.71283 0.84733 0.0
C1113 C 0.8972 0.46989 0.87876 0.0
C1114 C 0.89975 0.50102 0.85813 0.0
C1115 C 0.88973 0.47073 0.91655 0.0
C1116 C 0.88515 0.50276 0.9354 0.0
H1117 H 0.90087 0.44455 0.86561 0.0
H1118 H 0.88777 0.44601 0.93116 0.0
S1119 S 0.8889 0.59181 0.89429 0.0
N1120 N 0.89677 0.56495 0.85938 0.0
N1121 N 0.88316 0.56642 0.93068 0.0
C1122 C 0.88771 0.53415 0.91526 0.0
C1123 C 0.89482 0.5333 0.87655 0.0
C1124 C 0.60977 0.5537 0.65129 0.0
C1125 C 0.60397 0.52236 0.67084 0.0
C1126 C 0.61796 0.55326 0.61357 0.0
C1127 C 0.62001 0.52146 0.59377 0.0
H1128 H 0.60828 0.57881 0.66533 0.0
H1129 H 0.62258 0.57808 0.59981 0.0
S1130 S 0.60654 0.43202 0.63194 0.0
N1131 N 0.60065 0.45857 0.66752 0.0
N1132 N 0.61556 0.45773 0.59657 0.0
C1133 C 0.61393 0.4899 0.61289 0.0
C1134 C 0.60612 0.49034 0.65144 0.0
C1135 C 0.11415 0.26138 0.66389 0.0
C1136 C 0.10675 0.23103 0.68446 0.0
C1137 C 0.10836 0.26221 0.62563 0.0
C1138 C 0.09447 0.2329 0.60666 0.0
H1139 H 0.12535 0.28434 0.67725 0.0
H1140 H 0.11461 0.28614 0.6109 0.0
S1141 S 0.06901 0.14766 0.64868 0.0
N1142 N 0.08402 0.17135 0.68361 0.0
N1143 N 0.07258 0.17293 0.6119 0.0
C1144 C 0.0864 0.20258 0.62719 0.0
C1145 C 0.0927 0.20164 0.66603 0.0
C1146 C 0.62894 0.22121 0.10913 0.0
C1147 C 0.62448 0.25215 0.08853 0.0
C1148 C 0.63134 0.22203 0.1477 0.0
C1149 C 0.62878 0.25377 0.16754 0.0
H1150 H 0.63071 0.19597 0.09533 0.0
H1151 H 0.63501 0.19737 0.16208 0.0
S1152 S 0.61648 0.34235 0.12688 0.0
N1153 N 0.61743 0.31564 0.09084 0.0
N1154 N 0.6215 0.31715 0.16359 0.0
C1155 C 0.62409 0.28502 0.14739 0.0
C1156 C 0.62214 0.28423 0.10786 0.0
C1157 C 0.12579 0.46529 0.11645 0.0
C1158 C 0.13151 0.49702 0.09754 0.0
C1159 C 0.11293 0.46515 0.15278 0.0
C1160 C 0.10461 0.49672 0.1711 0.0
H1161 H 0.13173 0.4404 0.10329 0.0
H1162 H 0.10886 0.44014 0.16634 0.0
S1163 S 0.11456 0.58687 0.13361 0.0
N1164 N 0.12799 0.56084 0.09996 0.0
N1165 N 0.10315 0.56052 0.16766 0.0
C1166 C 0.11003 0.52858 0.15239 0.0
C1167 C 0.12367 0.52876 0.11576 0.0
C1168 C 0.3256 0.1421 0.11962 0.0
C1169 C 0.34844 0.14405 0.15017 0.0
C1170 C 0.3239 0.11186 0.09741 0.0
C1171 C 0.34478 0.08229 0.10523 0.0
H1172 H 0.30813 0.16377 0.11354 0.0
H1173 H 0.30542 0.11133 0.07456 0.0
S1174 S 0.41151 0.07574 0.17999 0.0
N1175 N 0.39377 0.11491 0.18596 0.0
N1176 N 0.39119 0.05825 0.14391 0.0
C1177 C 0.3684 0.08435 0.1352 0.0
C1178 C 0.36997 0.11512 0.15787 0.0
C1179 C 0.90856 0.09822 0.10849 0.0
C1180 C 0.91691 0.09481 0.14624 0.0
C1181 C 0.90609 0.13117 0.0918 0.0
C1182 C 0.91166 0.16221 0.1121 0.0
H1183 H 0.90397 0.07522 0.09144 0.0
H1184 H 0.8999 0.13223 0.06259 0.0
S1185 S 0.93495 0.16795 0.21159 0.0
N1186 N 0.93111 0.12543 0.20344 0.0
N1187 N 0.92623 0.18756 0.17197 0.0
C1188 C 0.91956 0.15936 0.14998 0.0
C1189 C 0.92224 0.12564 0.16705 0.0
C1190 C 0.64166 0.86816 0.87245 0.0
C1191 C 0.67253 0.85599 0.85533 0.0
C1192 C 0.64271 0.89671 0.89716 0.0
C1193 C 0.67453 0.91424 0.90485 0.0
H1194 H 0.61697 0.85443 0.86826 0.0
H1195 H 0.61865 0.90472 0.91072 0.0
S1196 S 0.76197 0.89392 0.86478 0.0
N1197 N 0.73517 0.86461 0.84612 0.0
N1198 N 0.73724 0.91824 0.89214 0.0
C1199 C 0.7052 0.9031 0.88666 0.0
C1200 C 0.70416 0.874 0.86193 0.0
C1201 C 0.11748 0.83766 0.8726 0.0
C1202 C 0.09093 0.82803 0.89747 0.0
C1203 C 0.11258 0.86579 0.8481 0.0
C1204 C 0.08076 0.88477 0.8474 0.0
H1205 H 0.14241 0.82389 0.87267 0.0
H1206 H 0.13416 0.87315 0.83024 0.0
S1207 S 0.00146 0.86583 0.9039 0.0
N1208 N 0.03106 0.83722 0.91822 0.0
N1209 N 0.02099 0.88898 0.87135 0.0
C1210 C 0.05338 0.87385 0.87095 0.0
C1211 C 0.05873 0.84581 0.8963 0.0
C1212 C 0.367 0.62596 0.62602 0.0
C1213 C 0.33839 0.63855 0.6467 0.0
C1214 C 0.36353 0.59591 0.60362 0.0
C1215 C 0.33154 0.57726 0.60182 0.0
H1216 H 0.39155 0.64046 0.62559 0.0
H1217 H 0.38576 0.58765 0.58712 0.0
S1218 S 0.24986 0.59827 0.65345 0.0
N1219 N 0.278 0.62924 0.66586 0.0
N1220 N 0.27137 0.57275 0.62433 0.0
C1221 C 0.30336 0.58881 0.62387 0.0
C1222 C 0.30682 0.61947 0.6462 0.0
C1223 C 0.94377 0.6591 0.64885 0.0
C1224 C 0.91517 0.66625 0.62502 0.0
C1225 C 0.94434 0.62911 0.67122 0.0
C1226 C 0.91667 0.60474 0.67019 0.0
H1227 H 0.96594 0.67695 0.65056 0.0
H1228 H 0.96689 0.62468 0.689 0.0
S1229 S 0.83523 0.61094 0.614 0.0
N1230 N 0.85806 0.64623 0.60262 0.0
N1231 N 0.85944 0.58986 0.64472 0.0
C1232 C 0.88797 0.61129 0.64668 0.0
C1233 C 0.88719 0.64197 0.62399 0.0
C1234 C 0.618 0.36985 0.37296 0.0
C1235 C 0.64789 0.36067 0.35226 0.0
C1236 C 0.61846 0.39933 0.39643 0.0
C1237 C 0.6485 0.42081 0.399 0.0
H1238 H 0.59496 0.35305 0.37266 0.0
H1239 H 0.59555 0.40495 0.41313 0.0
S1240 S 0.73285 0.40833 0.34936 0.0
N1241 N 0.70774 0.37551 0.33511 0.0
N1242 N 0.70846 0.43124 0.3784 0.0
C1243 C 0.67793 0.41257 0.37724 0.0
C1244 C 0.67766 0.38237 0.35403 0.0
C1245 C 0.10469 0.34788 0.38473 0.0
C1246 C 0.09044 0.34733 0.42051 0.0
C1247 C 0.09939 0.37658 0.3611 0.0
C1248 C 0.07922 0.40573 0.37221 0.0
H1249 H 0.11953 0.32567 0.37462 0.0
H1250 H 0.11019 0.37528 0.33349 0.0
S1251 S 0.03767 0.4178 0.46428 0.0
N1252 N 0.05704 0.37913 0.46681 0.0
N1253 N 0.04616 0.43253 0.42243 0.0
C1254 C 0.06587 0.40592 0.40854 0.0
C1255 C 0.07177 0.37693 0.43271 0.0
C1256 C 0.82039 0.13825 0.60101 0.0
C1257 C 0.84299 0.11157 0.61319 0.0
C1258 C 0.81653 0.16936 0.62151 0.0
C1259 C 0.8357 0.17517 0.65445 0.0
H1260 H 0.80404 0.13421 0.57678 0.0
H1261 H 0.79726 0.1883 0.61225 0.0
S1262 S 0.90151 0.11443 0.69532 0.0
N1263 N 0.8867 0.09356 0.65837 0.0
N1264 N 0.88041 0.15232 0.69631 0.0
C1265 C 0.85998 0.14935 0.66556 0.0
C1266 C 0.86339 0.1175 0.64505 0.0
C1267 C 0.42037 0.11408 0.59515 0.0
C1268 C 0.41274 0.14658 0.612 0.0
C1269 C 0.42134 0.08289 0.61571 0.0
C1270 C 0.41476 0.08282 0.65387 0.0
H1271 H 0.42619 0.11268 0.56591 0.0
H1272 H 0.42817 0.05874 0.60182 0.0
S1273 S 0.39154 0.15994 0.71132 0.0
N1274 N 0.39713 0.17593 0.66945 0.0
N1275 N 0.39907 0.11746 0.70763 0.0
C1276 C 0.40663 0.11481 0.67105 0.0
C1277 C 0.40554 0.14658 0.65021 0.0
C1278 C 0.12603 0.84799 0.38487 0.0
C1279 C 0.15076 0.8375 0.35841 0.0
C1280 C 0.12954 0.88032 0.4033 0.0
C1281 C 0.15817 0.90291 0.39614 0.0
H1282 H 0.10411 0.83097 0.39162 0.0
H1283 H 0.10977 0.88751 0.42341 0.0
S1284 S 0.23067 0.88573 0.32964 0.0
N1285 N 0.20479 0.85102 0.3261 0.0
N1286 N 0.21214 0.91141 0.36081 0.0
C1287 C 0.18324 0.89217 0.36973 0.0
C1288 C 0.17934 0.85952 0.35086 0.0
C1289 C 0.56505 0.84924 0.37696 0.0
C1290 C 0.58885 0.84228 0.40586 0.0
C1291 C 0.56969 0.87812 0.35372 0.0
C1292 C 0.59878 0.90049 0.35796 0.0
H1293 H 0.54145 0.83353 0.37363 0.0
H1294 H 0.5496 0.88389 0.33331 0.0
S1295 S 0.67019 0.89241 0.42729 0.0
N1296 N 0.64354 0.85917 0.43624 0.0
N1297 N 0.65281 0.91302 0.39152 0.0
C1298 C 0.62394 0.89275 0.38521 0.0
C1299 C 0.6188 0.86375 0.40951 0.0
C1300 C 0.81345 0.62975 0.11651 0.0
C1301 C 0.84388 0.60891 0.11742 0.0
C1302 C 0.8104 0.65957 0.13897 0.0
C1303 C 0.83731 0.6691 0.1638 0.0
H1304 H 0.79142 0.62238 0.09903 0.0
H1305 H 0.78609 0.67439 0.13805 0.0
S1306 S 0.92277 0.62372 0.17591 0.0
N1307 N 0.90207 0.60043 0.14391 0.0
N1308 N 0.8959 0.65614 0.18708 0.0
C1309 C 0.86826 0.64899 0.16438 0.0
C1310 C 0.8717 0.619 0.14082 0.0
C1311 C 0.38057 0.59795 0.12288 0.0
C1312 C 0.40718 0.59237 0.14932 0.0
C1313 C 0.38165 0.62716 0.0992 0.0
C1314 C 0.40889 0.65207 0.10196 0.0
H1315 H 0.3597 0.57881 0.11939 0.0
H1316 H 0.36122 0.63018 0.0785 0.0
S1317 S 0.48399 0.65002 0.16743 0.0
N1318 N 0.46122 0.61419 0.17704 0.0
N1319 N 0.46241 0.66984 0.13373 0.0
C1320 C 0.43491 0.64738 0.1291 0.0
C1321 C 0.4343 0.61728 0.15248 0.0
C1322 C 0.20206 0.37972 0.89289 0.0
C1323 C 0.17231 0.39616 0.90811 0.0
C1324 C 0.19884 0.34907 0.8716 0.0
C1325 C 0.16568 0.33425 0.86392 0.0
H1326 H 0.22811 0.39038 0.89784 0.0
H1327 H 0.22253 0.3369 0.86103 0.0
S1328 S 0.07945 0.36797 0.89616 0.0
N1329 N 0.10855 0.39581 0.9135 0.0
N1330 N 0.10241 0.33855 0.87289 0.0
C1331 C 0.13564 0.35081 0.87839 0.0
C1332 C 0.13898 0.38164 0.90069 0.0
C1333 C 0.56135 0.36028 0.87663 0.0
C1334 C 0.5891 0.35292 0.90144 0.0
C1335 C 0.5611 0.39097 0.85535 0.0
C1336 C 0.5882 0.41585 0.85854 0.0
H1337 H 0.53975 0.34197 0.87308 0.0
H1338 H 0.53932 0.39543 0.83654 0.0
S1339 S 0.66723 0.40955 0.91837 0.0
N1340 N 0.64468 0.37348 0.9274 0.0
N1341 N 0.6439 0.43109 0.88727 0.0
C1342 C 0.61592 0.40919 0.88324 0.0
C1343 C 0.61641 0.3778 0.90479 0.0
C1344 C 0.19997 0.00171 0.97879 0.0
C1345 C 0.22939 0.00552 0.95569 0.0
C1346 C 0.16594 0.9978 0.96399 0.0
C1347 C 0.16013 0.99656 0.92556 0.0
H1348 H 0.20311 0.00273 0.00853 0.0
H1349 H 0.14396 0.99584 0.98285 0.0
S1350 S 0.22836 0.00367 0.85305 0.0
N1351 N 0.25047 0.00689 0.89227 0.0
N1352 N 0.1867 -0.00134 0.86472 0.0
C1353 C 0.18938 -0.00074 0.90216 0.0
C1354 C 0.22393 0.004 0.91716 0.0
C1355 C 0.07598 0.2361 0.97719 0.0
C1356 C 0.08132 0.2344 0.93873 0.0
C1357 C 0.04201 0.23801 0.99211 0.0
C1358 C 0.01219 0.23751 0.96912 0.0
H1359 H 0.09819 0.23558 0.99601 0.0
H1360 H 0.03908 0.23851 0.02186 0.0
S1361 S 0.01162 0.23588 0.86665 0.0
N1362 N 0.05373 0.23466 0.87796 0.0
N1363 N 0.98997 0.23729 0.90608 0.0
C1364 C 0.01711 0.23683 0.93064 0.0
C1365 C 0.05166 0.23557 0.91542 0.0
C1366 C 0.23954 0.22635 0.31936 0.0
C1367 C 0.24433 0.22052 0.2814 0.0
C1368 C 0.20663 0.23586 0.33329 0.0
C1369 C 0.17724 0.23877 0.30984 0.0
H1370 H 0.26149 0.224 0.33837 0.0
H1371 H 0.20397 0.23985 0.3628 0.0
S1372 S 0.17615 0.22622 0.20831 0.0
N1373 N 0.2175 0.21915 0.22042 0.0
N1374 N 0.15496 0.23536 0.24693 0.0
C1375 C 0.18166 0.23291 0.27184 0.0
C1376 C 0.21544 0.22424 0.25751 0.0
C1377 C 0.04006 0.00585 0.29227 0.0
C1378 C 0.0258 0.03801 0.28032 0.0
C1379 C 0.07098 0.00475 0.31357 0.0
C1380 C 0.08912 0.03573 0.32329 0.0
H1381 H 0.0268 0.98134 0.28593 0.0
H1382 H 0.08082 0.97939 0.3223 0.0
S1383 S 0.06331 0.12669 0.29824 0.0
N1384 N 0.0326 0.10162 0.27938 0.0
N1385 N 0.09071 0.0995 0.31902 0.0
C1386 C 0.07547 0.06802 0.31103 0.0
C1387 C 0.04384 0.06917 0.28966 0.0
C1388 C 0.814 0.97827 0.07105 0.0
C1389 C 0.83259 0.94643 0.07401 0.0
C1390 C 0.78201 0.98017 0.05178 0.0
C1391 C 0.76695 0.95016 0.03533 0.0
H1392 H 0.82456 0.00217 0.0831 0.0
H1393 H 0.76868 0.00528 0.05038 0.0
S1394 S 0.80483 0.86027 0.03552 0.0
N1395 N 0.83369 0.8842 0.05881 0.0
N1396 N 0.77303 0.8875 0.02339 0.0
C1397 C 0.78508 0.91804 0.03837 0.0
C1398 C 0.81803 0.91625 0.05745 0.0
C1399 C 0.97469 0.71149 0.06377 0.0
C1400 C 0.98556 0.73138 0.03307 0.0
C1401 C 0.94163 0.71671 0.08003 0.0
C1402 C 0.91817 0.74212 0.06631 0.0
H1403 H 0.99223 0.69244 0.07618 0.0
H1404 H 0.93495 0.70149 0.10427 0.0
S1405 S 0.93212 0.79826 0.98378 0.0
N1406 N 0.96877 0.77538 0.98766 0.0
N1407 N 0.90688 0.7852 0.0181 0.0
C1408 C 0.92799 0.76097 0.03451 0.0
C1409 C 0.96159 0.7556 0.01793 0.0
C1410 C 0.81799 0.774 0.73595 0.0
C1411 C 0.82541 0.77603 0.69787 0.0
C1412 C 0.78324 0.77497 0.74915 0.0
C1413 C 0.75462 0.77893 0.72484 0.0
H1414 H 0.83925 0.77173 0.7558 0.0
H1415 H 0.77887 0.77367 0.77867 0.0
S1416 S 0.75959 0.7846 0.62255 0.0
N1417 N 0.80099 0.7811 0.63601 0.0
N1418 N 0.73592 0.78377 0.6607 0.0
C1419 C 0.76163 0.78058 0.68667 0.0
C1420 C 0.79693 0.77888 0.67321 0.0
C1421 C 0.94645 0.98303 0.68973 0.0
C1422 C 0.92515 0.95347 0.6824 0.0
C1423 C 0.97777 0.98014 0.71016 0.0
C1424 C 0.98938 0.94748 0.72357 0.0
H1425 H 0.93868 0.00879 0.68004 0.0
H1426 H 0.99338 0.0036 0.71476 0.0
S1427 S 0.94324 0.86207 0.71229 0.0
N1428 N 0.91781 0.8905 0.69057 0.0
N1429 N 0.97685 0.885 0.72851 0.0
C1430 C 0.96839 0.9177 0.71644 0.0
C1431 C 0.93626 0.92071 0.69601 0.0
C1432 C 0.22025 0.54673 0.45124 0.0
C1433 C 0.23386 0.51761 0.47024 0.0
C1434 C 0.18749 0.54527 0.4337 0.0
C1435 C 0.16681 0.51453 0.43407 0.0
H1436 H 0.23504 0.57104 0.44975 0.0
H1437 H 0.17848 0.56862 0.41951 0.0
S1438 S 0.19028 0.43065 0.47985 0.0
N1439 N 0.22408 0.45681 0.48846 0.0
N1440 N 0.16226 0.45411 0.4552 0.0
C1441 C 0.17997 0.48506 0.45293 0.0
C1442 C 0.21346 0.48662 0.47116 0.0
C1443 C 0.0419 0.70188 0.46156 0.0
C1444 C 0.06062 0.73332 0.45603 0.0
C1445 C 0.01005 0.70144 0.48076 0.0
C1446 C 0.99583 0.73222 0.49622 0.0
H1447 H 0.05158 0.6773 0.45037 0.0
H1448 H 0.99638 0.67659 0.48329 0.0
S1449 S 0.03469 0.8216 0.48984 0.0
N1450 N 0.06265 0.79627 0.46727 0.0
N1451 N 0.00302 0.79535 0.50449 0.0
C1452 C 0.01441 0.76394 0.49124 0.0
C1453 C 0.04669 0.76451 0.47085 0.0
C1454 C 0.23395 0.68009 0.76654 0.0
C1455 C 0.25446 0.7097 0.758 0.0
C1456 C 0.202 0.68348 0.78529 0.0
C1457 C 0.18961 0.71656 0.79686 0.0
H1458 H 0.24287 0.65398 0.75911 0.0
H1459 H 0.18746 0.65979 0.79174 0.0
S1460 S 0.23258 0.80254 0.77981 0.0
N1461 N 0.25939 0.77346 0.76109 0.0
N1462 N 0.1995 0.77969 0.79695 0.0
C1463 C 0.20941 0.7465 0.78776 0.0
C1464 C 0.24176 0.74311 0.76811 0.0
C1465 C 0.0764 0.55853 0.838 0.0
C1466 C 0.09135 0.52556 0.84572 0.0
C1467 C 0.04483 0.56147 0.81819 0.0
C1468 C 0.02702 0.53162 0.80464 0.0
H1469 H 0.08904 0.58243 0.84759 0.0
H1470 H 0.03436 0.58753 0.81336 0.0
S1471 S 0.05504 0.43899 0.81717 0.0
N1472 N 0.08587 0.46222 0.83834 0.0
N1473 N 0.02663 0.4678 0.80059 0.0
C1474 C 0.04172 0.49839 0.81191 0.0
C1475 C 0.07377 0.49535 0.83265 0.0
C1476 C 0.75505 0.49655 0.57577 0.0
C1477 C 0.74808 0.49203 0.5379 0.0
C1478 C 0.78902 0.50421 0.58848 0.0
C1479 C 0.81744 0.50674 0.56387 0.0
H1480 H 0.73405 0.49437 0.5958 0.0
H1481 H 0.79317 0.507 0.61797 0.0
S1482 S 0.81289 0.49784 0.46188 0.0
N1483 N 0.77198 0.49173 0.47573 0.0
N1484 N 0.83624 0.50501 0.49974 0.0
C1485 C 0.81077 0.50262 0.52586 0.0
C1486 C 0.77597 0.49556 0.51284 0.0
C1487 C 0.96125 0.2542 0.54641 0.0
C1488 C 0.97796 0.28626 0.53822 0.0
C1489 C 0.92813 0.25346 0.56356 0.0
C1490 C 0.91033 0.28476 0.57246 0.0
H1491 H 0.9743 0.22951 0.54059 0.0
H1492 H 0.91642 0.22822 0.56987 0.0
S1493 S 0.94234 0.37556 0.55526 0.0
N1494 N 0.97392 0.34998 0.53938 0.0
N1495 N 0.91176 0.34873 0.57102 0.0
C1496 C 0.92649 0.31696 0.56355 0.0
C1497 C 0.96029 0.31767 0.5466 0.0
C1498 C 0.75688 0.25911 0.23869 0.0
C1499 C 0.74261 0.29224 0.24734 0.0
C1500 C 0.78994 0.25605 0.22181 0.0
C1501 C 0.81019 0.28596 0.21351 0.0
H1502 H 0.74189 0.23539 0.24379 0.0
H1503 H 0.79952 0.23005 0.21496 0.0
S1504 S 0.78554 0.37874 0.23306 0.0
N1505 N 0.75181 0.35544 0.24792 0.0
N1506 N 0.81401 0.34988 0.21688 0.0
C1507 C 0.79666 0.31922 0.22326 0.0
C1508 C 0.76286 0.3223 0.23997 0.0
C1509 C 0.92884 0.49249 0.19851 0.0
C1510 C 0.9105 0.46386 0.18307 0.0
C1511 C 0.95959 0.48744 0.21935 0.0
C1512 C 0.97359 0.45361 0.22496 0.0
H1513 H 0.91923 0.51904 0.19472 0.0
H1514 H 0.97297 0.51038 0.23033 0.0
S1515 S 0.9356 0.36985 0.19019 0.0
N1516 N 0.90837 0.40038 0.17501 0.0
N1517 N 0.96652 0.39098 0.21354 0.0
C1518 C 0.95549 0.42473 0.20968 0.0
C1519 C 0.92385 0.42983 0.18893 0.0
C1520 C 0.71915 0.00084 0.48844 0.0
C1521 C 0.74184 0.02497 0.47126 0.0
C1522 C 0.68714 0.99081 0.47191 0.0
C1523 C 0.67664 0.00419 0.43731 0.0
H1524 H 0.72589 0.98993 0.51513 0.0
H1525 H 0.6704 0.97257 0.4866 0.0
S1526 S 0.72771 0.06645 0.37951 0.0
N1527 N 0.75223 0.06081 0.41672 0.0
N1528 N 0.69243 0.0419 0.38577 0.0
C1529 C 0.69955 0.02766 0.41938 0.0
C1530 C 0.73198 0.03809 0.43632 0.0
C1531 C 0.5358 0.18748 0.45718 0.0
C1532 C 0.51875 0.21655 0.47318 0.0
C1533 C 0.56577 0.19171 0.43521 0.0
C1534 C 0.5796 0.22524 0.42777 0.0
H1535 H 0.52594 0.16112 0.46164 0.0
H1536 H 0.57797 0.16845 0.42364 0.0
S1537 S 0.54459 0.31011 0.46232 0.0
N1538 N 0.51793 0.28022 0.47983 0.0
N1539 N 0.57397 0.28815 0.43799 0.0
C1540 C 0.56273 0.25463 0.44328 0.0
C1541 C 0.53246 0.25029 0.4662 0.0
C1542 C 0.71413 0.25126 0.79723 0.0
C1543 C 0.73266 0.21987 0.79063 0.0
C1544 C 0.68309 0.25149 0.81808 0.0
C1545 C 0.66905 0.22024 0.83257 0.0
H1546 H 0.7241 0.27607 0.78703 0.0
H1547 H 0.66989 0.27633 0.82265 0.0
S1548 S 0.70696 0.13087 0.82271 0.0
N1549 N 0.73443 0.1566 0.8001 0.0
N1550 N 0.67583 0.15698 0.83866 0.0
C1551 C 0.68695 0.18857 0.82569 0.0
C1552 C 0.71881 0.1884 0.8049 0.0
C1553 C 0.55114 0.00079 0.76939 0.0
C1554 C 0.52218 -0.00093 0.79333 0.0
C1555 C 0.58569 8e-05 0.78323 0.0
C1556 C 0.59242 0.99666 0.82133 0.0
H1557 H 0.5471 0.00432 0.74 0.0
H1558 H 0.60729 0.00289 0.76401 0.0
S1559 S 0.52543 0.98791 0.89504 0.0
N1560 N 0.5023 0.99181 0.85659 0.0
N1561 N 0.56713 0.98944 0.88246 0.0
C1562 C 0.56362 0.99304 0.84529 0.0
C1563 C 0.52852 0.99456 0.83131 0.0
C1564 C 0.26568 -0.0012 0.52172 0.0
C1565 C 0.25197 0.9662 0.51002 0.0
C1566 C 0.2981 0.00099 0.5403 0.0
C1567 C 0.31826 0.97074 0.54726 0.0
H1568 H 0.25076 0.02271 0.51758 0.0
H1569 H 0.30735 0.02654 0.54937 0.0
S1570 S 0.29476 0.87924 0.52053 0.0
N1571 N 0.26145 0.90319 0.50568 0.0
N1572 N 0.3225 0.90721 0.53991 0.0
C1573 C 0.30523 0.93809 0.53474 0.0
C1574 C 0.27206 0.93585 0.51632 0.0
C1575 C 0.4238 0.81253 0.57013 0.0
C1576 C 0.41034 0.77885 0.57774 0.0
C1577 C 0.45579 0.81688 0.5515 0.0
C1578 C 0.47516 0.78773 0.53905 0.0
H1579 H 0.40991 0.8358 0.57931 0.0
H1580 H 0.46549 0.84329 0.54697 0.0
S1581 S 0.45097 0.69387 0.55116 0.0
N1582 N 0.41865 0.7158 0.57096 0.0
N1583 N 0.47839 0.72393 0.53536 0.0
C1584 C 0.46164 0.75388 0.54579 0.0
C1585 C 0.42937 0.74945 0.56534 0.0
C1586 C 0.30061 0.73952 0.21328 0.0
C1587 C 0.32014 0.76936 0.20308 0.0
C1588 C 0.26953 0.7427 0.23386 0.0
C1589 C 0.25657 0.77587 0.24444 0.0
H1590 H 0.30915 0.71354 0.20499 0.0
H1591 H 0.25482 0.71907 0.24014 0.0
S1592 S 0.29855 0.8621 0.2263 0.0
N1593 N 0.3249 0.83318 0.20664 0.0
N1594 N 0.26636 0.83895 0.24473 0.0
C1595 C 0.27628 0.80581 0.23528 0.0
C1596 C 0.30809 0.80261 0.21477 0.0
C1597 C 0.50341 0.96606 0.20421 0.0
C1598 C 0.51168 0.97612 0.2407 0.0
C1599 C 0.46933 0.96993 0.18987 0.0
C1600 C 0.44189 0.98336 0.21166 0.0
H1601 H 0.52353 0.95532 0.18632 0.0
H1602 H 0.46432 0.96161 0.1617 0.0
S1603 S 0.44966 0.0143 0.30873 0.0
N1604 N 0.48972 0.00099 0.29807 0.0
N1605 N 0.4254 0.00754 0.27142 0.0
C1606 C 0.44975 0.9937 0.24817 0.0
C1607 C 0.48468 0.99032 0.26259 0.0
C1608 C 0.69785 0.51535 1.00326 0.0
C1609 C 0.6912 0.51375 0.96501 0.0
C1610 C 0.73179 0.52213 0.01699 0.0
C1611 C 0.75994 0.52862 0.9929 0.0
H1612 H 0.67663 0.51149 0.02275 0.0
H1613 H 0.73583 0.52316 0.04661 0.0
S1614 S 0.75691 0.52626 0.89051 0.0
N1615 N 0.71612 0.51782 0.90331 0.0
N1616 N 0.77949 0.53165 0.92915 0.0
C1617 C 0.75379 0.52671 0.95466 0.0
C1618 C 0.71952 0.51894 0.94069 0.0
C1619 C 0.58056 0.73806 0.96679 0.0
C1620 C 0.58718 0.7393 0.9285 0.0
C1621 C 0.54628 0.73382 0.98056 0.0
C1622 C 0.51747 0.72971 0.95653 0.0
H1623 H 0.60213 0.74002 0.98633 0.0
H1624 H 0.54253 0.73243 0.01017 0.0
S1625 S 0.52022 0.73267 0.85405 0.0
N1626 N 0.56166 0.73778 0.8669 0.0
N1627 N 0.49747 0.72888 0.89262 0.0
C1628 C 0.52358 0.7317 0.91822 0.0
C1629 C 0.55836 0.73678 0.90424 0.0
C1630 C 0.68069 0.76761 0.31017 0.0
C1631 C 0.65824 0.7388 0.31611 0.0
C1632 C 0.71415 0.76299 0.2945 0.0
C1633 C 0.7266 0.7293 0.28503 0.0
H1634 H 0.67239 0.7939 0.31766 0.0
H1635 H 0.73076 0.78587 0.29082 0.0
S1636 S 0.67811 0.64523 0.29477 0.0
N1637 N 0.65075 0.67536 0.3105 0.0
N1638 N 0.71376 0.66682 0.28214 0.0
C1639 C 0.70437 0.70035 0.29063 0.0
C1640 C 0.67015 0.70506 0.30587 0.0
C1641 C 0.52263 0.5097 0.2506 0.0
C1642 C 0.49333 0.50641 0.27382 0.0
C1643 C 0.55697 0.50699 0.26485 0.0
C1644 C 0.56307 0.49993 0.30255 0.0
H1645 H 0.51904 0.51601 0.22167 0.0
H1646 H 0.57891 0.51128 0.24637 0.0
S1647 S 0.49462 0.48537 0.37375 0.0
N1648 N 0.47224 0.49348 0.33555 0.0
N1649 N 0.53656 0.48729 0.36212 0.0
C1650 C 0.53379 0.49455 0.3255 0.0
C1651 C 0.49896 0.49813 0.31117 0.0
C1652 C 0.31676 0.43254 0.06454 0.0
C1653 C 0.33139 0.46498 0.07538 0.0
C1654 C 0.28461 0.4307 0.04549 0.0
C1655 C 0.26593 0.46124 0.03581 0.0
H1656 H 0.32996 0.40818 0.07135 0.0
H1657 H 0.27427 0.405 0.03841 0.0
S1658 S 0.29342 0.55294 0.05641 0.0
N1659 N 0.32506 0.52854 0.07427 0.0
N1660 N 0.26485 0.52515 0.03799 0.0
C1661 C 0.28057 0.49398 0.04577 0.0
C1662 C 0.31316 0.49582 0.06573 0.0
C1663 C 0.46477 0.2545 0.06829 0.0
C1664 C 0.43732 0.24666 0.0435 0.0
C1665 C 0.49803 0.26422 0.05545 0.0
C1666 C 0.50521 0.26548 0.01743 0.0
H1667 H 0.46016 0.25445 0.09781 0.0
H1668 H 0.51834 0.27067 0.07546 0.0
S1669 S 0.44276 0.24583 0.94133 0.0
N1670 N 0.41942 0.24036 0.97932 0.0
N1671 N 0.48273 0.25706 0.95513 0.0
C1672 C 0.47838 0.25661 0.99235 0.0
C1673 C 0.44416 0.24766 1.00543 0.0
C1674 C 0.30125 0.23944 0.75191 0.0
C1675 C 0.30922 0.2424 0.71406 0.0
C1676 C 0.26664 0.24333 0.76476 0.0
C1677 C 0.23899 0.25119 0.7403 0.0
H1678 H 0.32193 0.23433 0.77183 0.0
H1679 H 0.2617 0.24129 0.79413 0.0
S1680 S 0.24526 0.25976 0.6385 0.0
N1681 N 0.28596 0.25177 0.65212 0.0
N1682 N 0.22132 0.26008 0.67645 0.0
C1683 C 0.24641 0.25353 0.70239 0.0
C1684 C 0.28142 0.24884 0.68921 0.0
C1685 C 0.45607 0.45318 0.72419 0.0
C1686 C 0.47499 0.48435 0.73059 0.0
C1687 C 0.42373 0.45346 0.70569 0.0
C1688 C 0.40914 0.48486 0.69208 0.0
H1689 H 0.46642 0.42817 0.73342 0.0
H1690 H 0.41045 0.42856 0.70137 0.0
S1691 S 0.44812 0.57388 0.70166 0.0
N1692 N 0.4767 0.54775 0.72236 0.0
N1693 N 0.41593 0.5482 0.68676 0.0
C1694 C 0.42763 0.51639 0.69842 0.0
C1695 C 0.46049 0.51617 0.71796 0.0
loop_
_geom_bond_atom_site_label_1
_geom_bond_atom_site_label_2
_geom_bond_distance
_geom_bond_site_symmetry_2
_ccdc_geom_bond_type
Zn0 O6 1.969 . S
Zn0 O7 1.965 1_565 S
Zn0 O11 2.024 1_565 S
Zn0 O16 1.969 . S
Zn1 O8 1.969 . S
Zn1 O14 1.969 1_554 S
Zn1 O15 1.965 1_545 S
Zn1 O17 2.024 1_545 S
C2 O3 1.229 . S
C2 O11 1.058 1_565 S
O3 C2 1.229 . S
C4 O5 1.229 . S
C4 O17 1.058 1_546 S
O5 C4 1.229 . S
O6 Zn0 1.969 . S
O6 C9 1.267 1_565 S
O7 Zn0 1.965 1_545 S
O7 C18 1.260 . S
O8 Zn1 1.969 . S
O8 C18 1.258 . S
C9 O6 1.267 1_545 S
C9 O10 1.228 . S
O10 C9 1.228 . S
O11 Zn0 2.024 1_545 S
O11 C2 1.058 1_545 S
C12 O13 1.228 1_545 S
C12 O14 1.267 . S
O13 C12 1.228 1_565 S
O14 Zn1 1.969 1_556 S
O14 C12 1.267 . S
O15 Zn1 1.965 1_565 S
O15 C19 1.260 . S
O16 Zn0 1.969 . S
O16 C19 1.258 . S
O17 Zn1 2.024 1_565 S
O17 C4 1.058 1_564 S
C18 O7 1.260 . S
C18 O8 1.258 . S
C19 O15 1.260 . S
C19 O16 1.258 . S
Zn20 O26 1.969 . S
Zn20 O27 1.965 . S
Zn20 O31 2.024 . S
Zn20 O36 1.969 . S
Zn21 O28 1.969 . S
Zn21 O34 1.969 1_554 S
Zn21 O35 1.965 . S
Zn21 O37 2.024 . S
C22 O23 1.229 . S
C22 O31 1.058 . S
O23 C22 1.229 . S
C24 O25 1.229 . S
C24 O37 1.058 1_556 S
O25 C24 1.229 . S
O26 Zn20 1.969 . S
O26 C29 1.267 . S
O27 Zn20 1.965 . S
O27 C38 1.260 . S
O28 Zn21 1.969 . S
O28 C38 1.258 . S
C29 O26 1.267 . S
C29 O30 1.228 . S
O30 C29 1.228 . S
O31 Zn20 2.024 . S
O31 C22 1.058 . S
C32 O33 1.228 . S
C32 O34 1.267 . S
O33 C32 1.228 . S
O34 Zn21 1.969 1_556 S
O34 C32 1.267 . S
O35 Zn21 1.965 . S
O35 C39 1.260 . S
O36 Zn20 1.969 . S
O36 C39 1.258 . S
O37 Zn21 2.024 . S
O37 C24 1.058 1_554 S
C38 O27 1.260 . S
C38 O28 1.258 . S
C39 O35 1.260 . S
C39 O36 1.258 . S
Zn40 O46 1.969 . S
Zn40 O47 1.965 . S
Zn40 O51 2.024 . S
Zn40 O56 1.969 . S
Zn41 O48 1.969 . S
Zn41 O54 1.969 . S
Zn41 O55 1.965 . S
Zn41 O57 2.024 . S
C42 O43 1.229 . S
C42 O51 1.058 . S
O43 C42 1.229 . S
C44 O45 1.229 . S
C44 O57 1.058 . S
O45 C44 1.229 . S
O46 Zn40 1.969 . S
O46 C49 1.267 . S
O47 Zn40 1.965 . S
O47 C58 1.260 . S
O48 Zn41 1.969 . S
O48 C58 1.258 . S
C49 O46 1.267 . S
C49 O50 1.228 . S
O50 C49 1.228 . S
O51 Zn40 2.024 . S
O51 C42 1.058 . S
C52 O53 1.228 . S
C52 O54 1.267 . S
O53 C52 1.228 . S
O54 Zn41 1.969 . S
O54 C52 1.267 . S
O55 Zn41 1.965 . S
O55 C59 1.260 . S
O56 Zn40 1.969 . S
O56 C59 1.258 . S
O57 Zn41 2.024 . S
O57 C44 1.058 . S
C58 O47 1.260 . S
C58 O48 1.258 . S
C59 O55 1.260 . S
C59 O56 1.258 . S
Zn60 O66 1.969 . S
Zn60 O67 1.965 1_565 S
Zn60 O71 2.024 1_565 S
Zn60 O76 1.969 . S
Zn61 O68 1.969 . S
Zn61 O74 1.969 . S
Zn61 O75 1.965 1_545 S
Zn61 O77 2.024 1_545 S
C62 O63 1.229 . S
C62 O71 1.058 1_565 S
O63 C62 1.229 . S
C64 O65 1.229 . S
C64 O77 1.058 1_545 S
O65 C64 1.229 . S
O66 Zn60 1.969 . S
O66 C69 1.267 1_565 S
O67 Zn60 1.965 1_545 S
O67 C78 1.260 . S
O68 Zn61 1.969 . S
O68 C78 1.258 . S
C69 O66 1.267 1_545 S
C69 O70 1.228 . S
O70 C69 1.228 . S
O71 Zn60 2.024 1_545 S
O71 C62 1.058 1_545 S
C72 O73 1.228 1_545 S
C72 O74 1.267 . S
O73 C72 1.228 1_565 S
O74 Zn61 1.969 . S
O74 C72 1.267 . S
O75 Zn61 1.965 1_565 S
O75 C79 1.260 . S
O76 Zn60 1.969 . S
O76 C79 1.258 . S
O77 Zn61 2.024 1_565 S
O77 C64 1.058 1_565 S
C78 O67 1.260 . S
C78 O68 1.258 . S
C79 O75 1.260 . S
C79 O76 1.258 . S
Zn80 O86 1.969 1_556 S
Zn80 O87 1.965 1_565 S
Zn80 O91 2.024 1_565 S
Zn80 O96 1.969 . S
Zn81 O88 1.969 . S
Zn81 O94 1.969 . S
Zn81 O95 1.965 1_545 S
Zn81 O97 2.024 1_545 S
C82 O83 1.229 . S
C82 O91 1.058 1_564 S
O83 C82 1.229 . S
C84 O85 1.229 . S
C84 O97 1.058 1_545 S
O85 C84 1.229 . S
O86 Zn80 1.969 1_554 S
O86 C89 1.267 . S
O87 Zn80 1.965 1_545 S
O87 C98 1.260 . S
O88 Zn81 1.969 . S
O88 C98 1.258 . S
C89 O86 1.267 . S
C89 O90 1.228 1_565 S
O90 C89 1.228 1_545 S
O91 Zn80 2.024 1_545 S
O91 C82 1.058 1_546 S
C92 O93 1.228 . S
C92 O94 1.267 1_565 S
O93 C92 1.228 . S
O94 Zn81 1.969 . S
O94 C92 1.267 1_545 S
O95 Zn81 1.965 1_565 S
O95 C99 1.260 . S
O96 Zn80 1.969 . S
O96 C99 1.258 . S
O97 Zn81 2.024 1_565 S
O97 C84 1.058 1_565 S
C98 O87 1.260 . S
C98 O88 1.258 . S
C99 O95 1.260 . S
C99 O96 1.258 . S
Zn100 O106 1.969 1_556 S
Zn100 O107 1.965 . S
Zn100 O111 2.024 . S
Zn100 O116 1.969 . S
Zn101 O108 1.969 . S
Zn101 O114 1.969 . S
Zn101 O115 1.965 . S
Zn101 O117 2.024 . S
C102 O103 1.229 . S
C102 O111 1.058 1_554 S
O103 C102 1.229 . S
C104 O105 1.229 . S
C104 O117 1.058 . S
O105 C104 1.229 . S
O106 Zn100 1.969 1_554 S
O106 C109 1.267 . S
O107 Zn100 1.965 . S
O107 C118 1.260 . S
O108 Zn101 1.969 . S
O108 C118 1.258 . S
C109 O106 1.267 . S
C109 O110 1.228 . S
O110 C109 1.228 . S
O111 Zn100 2.024 . S
O111 C102 1.058 1_556 S
C112 O113 1.228 . S
C112 O114 1.267 . S
O113 C112 1.228 . S
O114 Zn101 1.969 . S
O114 C112 1.267 . S
O115 Zn101 1.965 . S
O115 C119 1.260 . S
O116 Zn100 1.969 . S
O116 C119 1.258 . S
O117 Zn101 2.024 . S
O117 C104 1.058 . S
C118 O107 1.260 . S
C118 O108 1.258 . S
C119 O115 1.260 . S
C119 O116 1.258 . S
Zn120 O126 1.969 . S
Zn120 O127 1.965 . S
Zn120 O131 2.024 . S
Zn120 O136 1.969 . S
Zn121 O128 1.969 . S
Zn121 O134 1.969 . S
Zn121 O135 1.965 . S
Zn121 O137 2.024 . S
C122 O123 1.229 . S
C122 O131 1.058 . S
O123 C122 1.229 . S
C124 O125 1.229 . S
C124 O137 1.058 . S
O125 C124 1.229 . S
O126 Zn120 1.969 . S
O126 C129 1.267 . S
O127 Zn120 1.965 . S
O127 C138 1.260 . S
O128 Zn121 1.969 . S
O128 C138 1.258 . S
C129 O126 1.267 . S
C129 O130 1.228 . S
O130 C129 1.228 . S
O131 Zn120 2.024 . S
O131 C122 1.058 . S
C132 O133 1.228 . S
C132 O134 1.267 . S
O133 C132 1.228 . S
O134 Zn121 1.969 . S
O134 C132 1.267 . S
O135 Zn121 1.965 . S
O135 C139 1.260 . S
O136 Zn120 1.969 . S
O136 C139 1.258 . S
O137 Zn121 2.024 . S
O137 C124 1.058 . S
C138 O127 1.260 . S
C138 O128 1.258 . S
C139 O135 1.260 . S
C139 O136 1.258 . S
Zn140 O146 1.969 . S
Zn140 O147 1.965 1_565 S
Zn140 O151 2.024 1_565 S
Zn140 O156 1.969 . S
Zn141 O148 1.969 . S
Zn141 O154 1.969 . S
Zn141 O155 1.965 1_545 S
Zn141 O157 2.024 1_545 S
C142 O143 1.229 . S
C142 O151 1.058 1_565 S
O143 C142 1.229 . S
C144 O145 1.229 . S
C144 O157 1.058 1_545 S
O145 C144 1.229 . S
O146 Zn140 1.969 . S
O146 C149 1.267 . S
O147 Zn140 1.965 1_545 S
O147 C158 1.260 . S
O148 Zn141 1.969 . S
O148 C158 1.258 . S
C149 O146 1.267 . S
C149 O150 1.228 1_565 S
O150 C149 1.228 1_545 S
O151 Zn140 2.024 1_545 S
O151 C142 1.058 1_545 S
C152 O153 1.228 . S
C152 O154 1.267 1_565 S
O153 C152 1.228 . S
O154 Zn141 1.969 . S
O154 C152 1.267 1_545 S
O155 Zn141 1.965 1_565 S
O155 C159 1.260 . S
O156 Zn140 1.969 . S
O156 C159 1.258 . S
O157 Zn141 2.024 1_565 S
O157 C144 1.058 1_565 S
C158 O147 1.260 . S
C158 O148 1.258 . S
C159 O155 1.260 . S
C159 O156 1.258 . S
Zn160 O166 1.969 . S
Zn160 O167 1.965 . S
Zn160 O171 2.024 . S
Zn160 O176 1.969 . S
Zn161 O168 1.969 . S
Zn161 O174 1.969 . S
Zn161 O175 1.965 . S
Zn161 O177 2.024 . S
C162 O163 1.229 . S
C162 O171 1.058 . S
O163 C162 1.229 . S
C164 O165 1.229 . S
C164 O177 1.058 . S
O165 C164 1.229 . S
O166 Zn160 1.969 . S
O166 C169 1.267 . S
O167 Zn160 1.965 . S
O167 C178 1.260 . S
O168 Zn161 1.969 . S
O168 C178 1.258 . S
C169 O166 1.267 . S
C169 O170 1.228 . S
O170 C169 1.228 . S
O171 Zn160 2.024 . S
O171 C162 1.058 . S
C172 O173 1.228 . S
C172 O174 1.267 . S
O173 C172 1.228 . S
O174 Zn161 1.969 . S
O174 C172 1.267 . S
O175 Zn161 1.965 . S
O175 C179 1.260 . S
O176 Zn160 1.969 . S
O176 C179 1.258 . S
O177 Zn161 2.024 . S
O177 C164 1.058 . S
C178 O167 1.260 . S
C178 O168 1.258 . S
C179 O175 1.260 . S
C179 O176 1.258 . S
Zn180 O186 1.969 . S
Zn180 O187 1.965 . S
Zn180 O191 2.024 . S
Zn180 O196 1.969 . S
Zn181 O188 1.969 . S
Zn181 O194 1.969 . S
Zn181 O195 1.965 . S
Zn181 O197 2.024 . S
C182 O183 1.229 . S
C182 O191 1.058 . S
O183 C182 1.229 . S
C184 O185 1.229 . S
C184 O197 1.058 . S
O185 C184 1.229 . S
O186 Zn180 1.969 . S
O186 C189 1.267 . S
O187 Zn180 1.965 . S
O187 C198 1.260 . S
O188 Zn181 1.969 . S
O188 C198 1.258 . S
C189 O186 1.267 . S
C189 O190 1.228 . S
O190 C189 1.228 . S
O191 Zn180 2.024 . S
O191 C182 1.058 . S
C192 O193 1.228 . S
C192 O194 1.267 . S
O193 C192 1.228 . S
O194 Zn181 1.969 . S
O194 C192 1.267 . S
O195 Zn181 1.965 . S
O195 C199 1.260 . S
O196 Zn180 1.969 . S
O196 C199 1.258 . S
O197 Zn181 2.024 . S
O197 C184 1.058 . S
C198 O187 1.260 . S
C198 O188 1.258 . S
C199 O195 1.260 . S
C199 O196 1.258 . S
Zn200 O206 1.969 . S
Zn200 O207 1.965 . S
Zn200 O211 2.024 . S
Zn200 O216 1.969 . S
Zn201 O208 1.969 . S
Zn201 O214 1.969 . S
Zn201 O215 1.965 . S
Zn201 O217 2.024 . S
C202 O203 1.229 . S
C202 O211 1.058 . S
O203 C202 1.229 . S
C204 O205 1.229 . S
C204 O217 1.058 . S
O205 C204 1.229 . S
O206 Zn200 1.969 . S
O206 C209 1.267 . S
O207 Zn200 1.965 . S
O207 C218 1.260 . S
O208 Zn201 1.969 . S
O208 C218 1.258 . S
C209 O206 1.267 . S
C209 O210 1.228 . S
O210 C209 1.228 . S
O211 Zn200 2.024 . S
O211 C202 1.058 . S
C212 O213 1.228 . S
C212 O214 1.267 . S
O213 C212 1.228 . S
O214 Zn201 1.969 . S
O214 C212 1.267 . S
O215 Zn201 1.965 . S
O215 C219 1.260 . S
O216 Zn200 1.969 . S
O216 C219 1.258 . S
O217 Zn201 2.024 . S
O217 C204 1.058 . S
C218 O207 1.260 . S
C218 O208 1.258 . S
C219 O215 1.260 . S
C219 O216 1.258 . S
Zn220 O226 1.969 . S
Zn220 O227 1.965 . S
Zn220 O231 2.024 . S
Zn220 O236 1.969 . S
Zn221 O228 1.969 . S
Zn221 O234 1.969 . S
Zn221 O235 1.965 . S
Zn221 O237 2.024 . S
C222 O223 1.229 . S
C222 O231 1.058 . S
O223 C222 1.229 . S
C224 O225 1.229 . S
C224 O237 1.058 . S
O225 C224 1.229 . S
O226 Zn220 1.969 . S
O226 C229 1.267 . S
O227 Zn220 1.965 . S
O227 C238 1.260 . S
O228 Zn221 1.969 . S
O228 C238 1.258 . S
C229 O226 1.267 . S
C229 O230 1.228 . S
O230 C229 1.228 . S
O231 Zn220 2.024 . S
O231 C222 1.058 . S
C232 O233 1.228 . S
C232 O234 1.267 . S
O233 C232 1.228 . S
O234 Zn221 1.969 . S
O234 C232 1.267 . S
O235 Zn221 1.965 . S
O235 C239 1.260 . S
O236 Zn220 1.969 . S
O236 C239 1.258 . S
O237 Zn221 2.024 . S
O237 C224 1.058 . S
C238 O227 1.260 . S
C238 O228 1.258 . S
C239 O235 1.260 . S
C239 O236 1.258 . S
Zn240 O246 1.969 . S
Zn240 O247 1.965 . S
Zn240 O251 2.024 . S
Zn240 O256 1.969 . S
Zn241 O248 1.969 . S
Zn241 O254 1.969 . S
Zn241 O255 1.965 . S
Zn241 O257 2.024 . S
C242 O243 1.229 . S
C242 O251 1.058 . S
O243 C242 1.229 . S
C244 O245 1.229 . S
C244 O257 1.058 . S
O245 C244 1.229 . S
O246 Zn240 1.969 . S
O246 C249 1.267 . S
O247 Zn240 1.965 . S
O247 C258 1.260 . S
O248 Zn241 1.969 . S
O248 C258 1.258 . S
C249 O246 1.267 . S
C249 O250 1.228 . S
O250 C249 1.228 . S
O251 Zn240 2.024 . S
O251 C242 1.058 . S
C252 O253 1.228 . S
C252 O254 1.267 . S
O253 C252 1.228 . S
O254 Zn241 1.969 . S
O254 C252 1.267 . S
O255 Zn241 1.965 . S
O255 C259 1.260 . S
O256 Zn240 1.969 . S
O256 C259 1.258 . S
O257 Zn241 2.024 . S
O257 C244 1.058 . S
C258 O247 1.260 . S
C258 O248 1.258 . S
C259 O255 1.260 . S
C259 O256 1.258 . S
Zn260 O266 1.969 . S
Zn260 O267 1.965 . S
Zn260 O271 2.024 . S
Zn260 O276 1.969 . S
Zn261 O268 1.969 . S
Zn261 O274 1.969 . S
Zn261 O275 1.965 . S
Zn261 O277 2.024 . S
C262 O263 1.229 . S
C262 O271 1.058 . S
O263 C262 1.229 . S
C264 O265 1.229 . S
C264 O277 1.058 . S
O265 C264 1.229 . S
O266 Zn260 1.969 . S
O266 C269 1.267 . S
O267 Zn260 1.965 . S
O267 C278 1.260 . S
O268 Zn261 1.969 . S
O268 C278 1.258 . S
C269 O266 1.267 . S
C269 O270 1.228 . S
O270 C269 1.228 . S
O271 Zn260 2.024 . S
O271 C262 1.058 . S
C272 O273 1.228 . S
C272 O274 1.267 . S
O273 C272 1.228 . S
O274 Zn261 1.969 . S
O274 C272 1.267 . S
O275 Zn261 1.965 . S
O275 C279 1.260 . S
O276 Zn260 1.969 . S
O276 C279 1.258 . S
O277 Zn261 2.024 . S
O277 C264 1.058 . S
C278 O267 1.260 . S
C278 O268 1.258 . S
C279 O275 1.260 . S
C279 O276 1.258 . S
Zn280 O286 1.969 . S
Zn280 O287 1.965 . S
Zn280 O291 2.024 . S
Zn280 O296 1.969 . S
Zn281 O288 1.969 . S
Zn281 O294 1.969 . S
Zn281 O295 1.965 . S
Zn281 O297 2.024 . S
C282 O283 1.229 . S
C282 O291 1.058 . S
O283 C282 1.229 . S
C284 O285 1.229 . S
C284 O297 1.058 . S
O285 C284 1.229 . S
O286 Zn280 1.969 . S
O286 C289 1.267 . S
O287 Zn280 1.965 . S
O287 C298 1.260 . S
O288 Zn281 1.969 . S
O288 C298 1.258 . S
C289 O286 1.267 . S
C289 O290 1.228 . S
O290 C289 1.228 . S
O291 Zn280 2.024 . S
O291 C282 1.058 . S
C292 O293 1.228 . S
C292 O294 1.267 . S
O293 C292 1.228 . S
O294 Zn281 1.969 . S
O294 C292 1.267 . S
O295 Zn281 1.965 . S
O295 C299 1.260 . S
O296 Zn280 1.969 . S
O296 C299 1.258 . S
O297 Zn281 2.024 . S
O297 C284 1.058 . S
C298 O287 1.260 . S
C298 O288 1.258 . S
C299 O295 1.260 . S
C299 O296 1.258 . S
Zn300 O306 1.969 . S
Zn300 O307 1.965 . S
Zn300 O311 2.024 . S
Zn300 O316 1.969 . S
Zn301 O308 1.969 . S
Zn301 O314 1.969 . S
Zn301 O315 1.965 . S
Zn301 O317 2.024 . S
C302 O303 1.229 . S
C302 O311 1.058 . S
O303 C302 1.229 . S
C304 O305 1.229 . S
C304 O317 1.058 . S
O305 C304 1.229 . S
O306 Zn300 1.969 . S
O306 C309 1.267 . S
O307 Zn300 1.965 . S
O307 C318 1.260 . S
O308 Zn301 1.969 . S
O308 C318 1.258 . S
C309 O306 1.267 . S
C309 O310 1.228 . S
O310 C309 1.228 . S
O311 Zn300 2.024 . S
O311 C302 1.058 . S
C312 O313 1.228 . S
C312 O314 1.267 . S
O313 C312 1.228 . S
O314 Zn301 1.969 . S
O314 C312 1.267 . S
O315 Zn301 1.965 . S
O315 C319 1.260 . S
O316 Zn300 1.969 . S
O316 C319 1.258 . S
O317 Zn301 2.024 . S
O317 C304 1.058 . S
C318 O307 1.260 . S
C318 O308 1.258 . S
C319 O315 1.260 . S
C319 O316 1.258 . S
Zn320 O326 1.969 . S
Zn320 O327 1.965 1_565 S
Zn320 O331 2.024 1_565 S
Zn320 O336 1.969 . S
Zn321 O328 1.969 . S
Zn321 O334 1.969 . S
Zn321 O335 1.965 1_545 S
Zn321 O337 2.024 1_545 S
C322 O323 1.229 . S
C322 O331 1.058 1_565 S
O323 C322 1.229 . S
C324 O325 1.229 . S
C324 O337 1.058 1_545 S
O325 C324 1.229 . S
O326 Zn320 1.969 . S
O326 C329 1.267 1_565 S
O327 Zn320 1.965 1_545 S
O327 C338 1.260 . S
O328 Zn321 1.969 . S
O328 C338 1.258 . S
C329 O326 1.267 1_545 S
C329 O330 1.228 . S
O330 C329 1.228 . S
O331 Zn320 2.024 1_545 S
O331 C322 1.058 1_545 S
C332 O333 1.228 1_545 S
C332 O334 1.267 . S
O333 C332 1.228 1_565 S
O334 Zn321 1.969 . S
O334 C332 1.267 . S
O335 Zn321 1.965 1_565 S
O335 C339 1.260 . S
O336 Zn320 1.969 . S
O336 C339 1.258 . S
O337 Zn321 2.024 1_565 S
O337 C324 1.058 1_565 S
C338 O327 1.260 . S
C338 O328 1.258 . S
C339 O335 1.260 . S
C339 O336 1.258 . S
Zn340 O346 1.969 . S
Zn340 O347 1.965 . S
Zn340 O351 2.024 . S
Zn340 O356 1.969 . S
Zn341 O348 1.969 . S
Zn341 O354 1.969 . S
Zn341 O355 1.965 . S
Zn341 O357 2.024 . S
C342 O343 1.229 . S
C342 O351 1.058 . S
O343 C342 1.229 . S
C344 O345 1.229 . S
C344 O357 1.058 . S
O345 C344 1.229 . S
O346 Zn340 1.969 . S
O346 C349 1.267 . S
O347 Zn340 1.965 . S
O347 C358 1.260 . S
O348 Zn341 1.969 . S
O348 C358 1.258 . S
C349 O346 1.267 . S
C349 O350 1.228 . S
O350 C349 1.228 . S
O351 Zn340 2.024 . S
O351 C342 1.058 . S
C352 O353 1.228 . S
C352 O354 1.267 . S
O353 C352 1.228 . S
O354 Zn341 1.969 . S
O354 C352 1.267 . S
O355 Zn341 1.965 . S
O355 C359 1.260 . S
O356 Zn340 1.969 . S
O356 C359 1.258 . S
O357 Zn341 2.024 . S
O357 C344 1.058 . S
C358 O347 1.260 . S
C358 O348 1.258 . S
C359 O355 1.260 . S
C359 O356 1.258 . S
Zn360 O366 1.969 . S
Zn360 O367 1.965 . S
Zn360 O371 2.024 . S
Zn360 O376 1.969 . S
Zn361 O368 1.969 . S
Zn361 O374 1.969 . S
Zn361 O375 1.965 . S
Zn361 O377 2.024 . S
C362 O363 1.229 . S
C362 O371 1.058 . S
O363 C362 1.229 . S
C364 O365 1.229 . S
C364 O377 1.058 . S
O365 C364 1.229 . S
O366 Zn360 1.969 . S
O366 C369 1.267 . S
O367 Zn360 1.965 . S
O367 C378 1.260 . S
O368 Zn361 1.969 . S
O368 C378 1.258 . S
C369 O366 1.267 . S
C369 O370 1.228 . S
O370 C369 1.228 . S
O371 Zn360 2.024 . S
O371 C362 1.058 . S
C372 O373 1.228 . S
C372 O374 1.267 . S
O373 C372 1.228 . S
O374 Zn361 1.969 . S
O374 C372 1.267 . S
O375 Zn361 1.965 . S
O375 C379 1.260 . S
O376 Zn360 1.969 . S
O376 C379 1.258 . S
O377 Zn361 2.024 . S
O377 C364 1.058 . S
C378 O367 1.260 . S
C378 O368 1.258 . S
C379 O375 1.260 . S
C379 O376 1.258 . S
Zn380 O386 1.969 . S
Zn380 O387 1.965 1_565 S
Zn380 O391 2.024 1_565 S
Zn380 O396 1.969 . S
Zn381 O388 1.969 . S
Zn381 O394 1.969 . S
Zn381 O395 1.965 1_545 S
Zn381 O397 2.024 1_545 S
C382 O383 1.229 . S
C382 O391 1.058 1_565 S
O383 C382 1.229 . S
C384 O385 1.229 . S
C384 O397 1.058 1_545 S
O385 C384 1.229 . S
O386 Zn380 1.969 . S
O386 C389 1.267 1_565 S
O387 Zn380 1.965 1_545 S
O387 C398 1.260 . S
O388 Zn381 1.969 . S
O388 C398 1.258 . S
C389 O386 1.267 1_545 S
C389 O390 1.228 . S
O390 C389 1.228 . S
O391 Zn380 2.024 1_545 S
O391 C382 1.058 1_545 S
C392 O393 1.228 1_545 S
C392 O394 1.267 . S
O393 C392 1.228 1_565 S
O394 Zn381 1.969 . S
O394 C392 1.267 . S
O395 Zn381 1.965 1_565 S
O395 C399 1.260 . S
O396 Zn380 1.969 . S
O396 C399 1.258 . S
O397 Zn381 2.024 1_565 S
O397 C384 1.058 1_565 S
C398 O387 1.260 . S
C398 O388 1.258 . S
C399 O395 1.260 . S
C399 O396 1.258 . S
Zn400 O406 1.969 . S
Zn400 O407 1.965 1_565 S
Zn400 O411 2.024 1_565 S
Zn400 O416 1.969 . S
Zn401 O408 1.969 . S
Zn401 O414 1.969 . S
Zn401 O415 1.965 1_545 S
Zn401 O417 2.024 1_545 S
C402 O403 1.229 . S
C402 O411 1.058 1_565 S
O403 C402 1.229 . S
C404 O405 1.229 . S
C404 O417 1.058 1_545 S
O405 C404 1.229 . S
O406 Zn400 1.969 . S
O406 C409 1.267 . S
O407 Zn400 1.965 1_545 S
O407 C418 1.260 . S
O408 Zn401 1.969 . S
O408 C418 1.258 . S
C409 O406 1.267 . S
C409 O410 1.228 1_565 S
O410 C409 1.228 1_545 S
O411 Zn400 2.024 1_545 S
O411 C402 1.058 1_545 S
C412 O413 1.228 . S
C412 O414 1.267 1_565 S
O413 C412 1.228 . S
O414 Zn401 1.969 . S
O414 C412 1.267 1_545 S
O415 Zn401 1.965 1_565 S
O415 C419 1.260 . S
O416 Zn400 1.969 . S
O416 C419 1.258 . S
O417 Zn401 2.024 1_565 S
O417 C404 1.058 1_565 S
C418 O407 1.260 . S
C418 O408 1.258 . S
C419 O415 1.260 . S
C419 O416 1.258 . S
Zn420 O426 1.969 . S
Zn420 O427 1.965 . S
Zn420 O431 2.024 . S
Zn420 O436 1.969 . S
Zn421 O428 1.969 . S
Zn421 O434 1.969 . S
Zn421 O435 1.965 . S
Zn421 O437 2.024 . S
C422 O423 1.229 . S
C422 O431 1.058 . S
O423 C422 1.229 . S
C424 O425 1.229 . S
C424 O437 1.058 . S
O425 C424 1.229 . S
O426 Zn420 1.969 . S
O426 C429 1.267 . S
O427 Zn420 1.965 . S
O427 C438 1.260 . S
O428 Zn421 1.969 . S
O428 C438 1.258 . S
C429 O426 1.267 . S
C429 O430 1.228 . S
O430 C429 1.228 . S
O431 Zn420 2.024 . S
O431 C422 1.058 . S
C432 O433 1.228 . S
C432 O434 1.267 . S
O433 C432 1.228 . S
O434 Zn421 1.969 . S
O434 C432 1.267 . S
O435 Zn421 1.965 . S
O435 C439 1.260 . S
O436 Zn420 1.969 . S
O436 C439 1.258 . S
O437 Zn421 2.024 . S
O437 C424 1.058 . S
C438 O427 1.260 . S
C438 O428 1.258 . S
C439 O435 1.260 . S
C439 O436 1.258 . S
Zn440 O446 1.969 . S
Zn440 O447 1.965 . S
Zn440 O451 2.024 . S
Zn440 O456 1.969 . S
Zn441 O448 1.969 . S
Zn441 O454 1.969 . S
Zn441 O455 1.965 . S
Zn441 O457 2.024 . S
C442 O443 1.229 . S
C442 O451 1.058 . S
O443 C442 1.229 . S
C444 O445 1.229 . S
C444 O457 1.058 . S
O445 C444 1.229 . S
O446 Zn440 1.969 . S
O446 C449 1.267 . S
O447 Zn440 1.965 . S
O447 C458 1.260 . S
O448 Zn441 1.969 . S
O448 C458 1.258 . S
C449 O446 1.267 . S
C449 O450 1.228 . S
O450 C449 1.228 . S
O451 Zn440 2.024 . S
O451 C442 1.058 . S
C452 O453 1.228 . S
C452 O454 1.267 . S
O453 C452 1.228 . S
O454 Zn441 1.969 . S
O454 C452 1.267 . S
O455 Zn441 1.965 . S
O455 C459 1.260 . S
O456 Zn440 1.969 . S
O456 C459 1.258 . S
O457 Zn441 2.024 . S
O457 C444 1.058 . S
C458 O447 1.260 . S
C458 O448 1.258 . S
C459 O455 1.260 . S
C459 O456 1.258 . S
Zn460 O466 1.969 . S
Zn460 O467 1.965 1_565 S
Zn460 O471 2.024 1_565 S
Zn460 O476 1.969 . S
Zn461 O468 1.969 . S
Zn461 O474 1.969 . S
Zn461 O475 1.965 1_545 S
Zn461 O477 2.024 1_545 S
C462 O463 1.229 . S
C462 O471 1.058 1_565 S
O463 C462 1.229 . S
C464 O465 1.229 . S
C464 O477 1.058 1_545 S
O465 C464 1.229 . S
O466 Zn460 1.969 . S
O466 C469 1.267 . S
O467 Zn460 1.965 1_545 S
O467 C478 1.260 . S
O468 Zn461 1.969 . S
O468 C478 1.258 . S
C469 O466 1.267 . S
C469 O470 1.228 1_565 S
O470 C469 1.228 1_545 S
O471 Zn460 2.024 1_545 S
O471 C462 1.058 1_545 S
C472 O473 1.228 . S
C472 O474 1.267 1_565 S
O473 C472 1.228 . S
O474 Zn461 1.969 . S
O474 C472 1.267 1_545 S
O475 Zn461 1.965 1_565 S
O475 C479 1.260 . S
O476 Zn460 1.969 . S
O476 C479 1.258 . S
O477 Zn461 2.024 1_565 S
O477 C464 1.058 1_565 S
C478 O467 1.260 . S
C478 O468 1.258 . S
C479 O475 1.260 . S
C479 O476 1.258 . S
Zn480 O486 1.969 . S
Zn480 O487 1.965 . S
Zn480 O491 2.024 . S
Zn480 O496 1.969 . S
Zn481 O488 1.969 . S
Zn481 O494 1.969 1_554 S
Zn481 O495 1.965 . S
Zn481 O497 2.024 . S
C482 O483 1.229 . S
C482 O491 1.058 . S
O483 C482 1.229 . S
C484 O485 1.229 . S
C484 O497 1.058 1_556 S
O485 C484 1.229 . S
O486 Zn480 1.969 . S
O486 C489 1.267 . S
O487 Zn480 1.965 . S
O487 C498 1.260 . S
O488 Zn481 1.969 . S
O488 C498 1.258 . S
C489 O486 1.267 . S
C489 O490 1.228 . S
O490 C489 1.228 . S
O491 Zn480 2.024 . S
O491 C482 1.058 . S
C492 O493 1.228 . S
C492 O494 1.267 . S
O493 C492 1.228 . S
O494 Zn481 1.969 1_556 S
O494 C492 1.267 . S
O495 Zn481 1.965 . S
O495 C499 1.260 . S
O496 Zn480 1.969 . S
O496 C499 1.258 . S
O497 Zn481 2.024 . S
O497 C484 1.058 1_554 S
C498 O487 1.260 . S
C498 O488 1.258 . S
C499 O495 1.260 . S
C499 O496 1.258 . S
Zn500 O506 1.969 . S
Zn500 O507 1.965 . S
Zn500 O511 2.024 . S
Zn500 O516 1.969 . S
Zn501 O508 1.969 . S
Zn501 O514 1.969 1_554 S
Zn501 O515 1.965 . S
Zn501 O517 2.024 . S
C502 O503 1.229 . S
C502 O511 1.058 . S
O503 C502 1.229 . S
C504 O505 1.229 . S
C504 O517 1.058 1_556 S
O505 C504 1.229 . S
O506 Zn500 1.969 . S
O506 C509 1.267 . S
O507 Zn500 1.965 . S
O507 C518 1.260 . S
O508 Zn501 1.969 . S
O508 C518 1.258 . S
C509 O506 1.267 . S
C509 O510 1.228 . S
O510 C509 1.228 . S
O511 Zn500 2.024 . S
O511 C502 1.058 . S
C512 O513 1.228 . S
C512 O514 1.267 . S
O513 C512 1.228 . S
O514 Zn501 1.969 1_556 S
O514 C512 1.267 . S
O515 Zn501 1.965 . S
O515 C519 1.260 . S
O516 Zn500 1.969 . S
O516 C519 1.258 . S
O517 Zn501 2.024 . S
O517 C504 1.058 1_554 S
C518 O507 1.260 . S
C518 O508 1.258 . S
C519 O515 1.260 . S
C519 O516 1.258 . S
Zn520 O526 1.969 . S
Zn520 O527 1.965 . S
Zn520 O531 2.024 . S
Zn520 O536 1.969 . S
Zn521 O528 1.969 . S
Zn521 O534 1.969 . S
Zn521 O535 1.965 . S
Zn521 O537 2.024 . S
C522 O523 1.229 . S
C522 O531 1.058 . S
O523 C522 1.229 . S
C524 O525 1.229 . S
C524 O537 1.058 . S
O525 C524 1.229 . S
O526 Zn520 1.969 . S
O526 C529 1.267 . S
O527 Zn520 1.965 . S
O527 C538 1.260 . S
O528 Zn521 1.969 . S
O528 C538 1.258 . S
C529 O526 1.267 . S
C529 O530 1.228 . S
O530 C529 1.228 . S
O531 Zn520 2.024 . S
O531 C522 1.058 . S
C532 O533 1.228 . S
C532 O534 1.267 . S
O533 C532 1.228 . S
O534 Zn521 1.969 . S
O534 C532 1.267 . S
O535 Zn521 1.965 . S
O535 C539 1.260 . S
O536 Zn520 1.969 . S
O536 C539 1.258 . S
O537 Zn521 2.024 . S
O537 C524 1.058 . S
C538 O527 1.260 . S
C538 O528 1.258 . S
C539 O535 1.260 . S
C539 O536 1.258 . S
Zn540 O546 1.969 . S
Zn540 O547 1.965 . S
Zn540 O551 2.024 . S
Zn540 O556 1.969 . S
Zn541 O548 1.969 . S
Zn541 O554 1.969 . S
Zn541 O555 1.965 . S
Zn541 O557 2.024 . S
C542 O543 1.229 . S
C542 O551 1.058 . S
O543 C542 1.229 . S
C544 O545 1.229 . S
C544 O557 1.058 . S
O545 C544 1.229 . S
O546 Zn540 1.969 . S
O546 C549 1.267 . S
O547 Zn540 1.965 . S
O547 C558 1.260 . S
O548 Zn541 1.969 . S
O548 C558 1.258 . S
C549 O546 1.267 . S
C549 O550 1.228 . S
O550 C549 1.228 . S
O551 Zn540 2.024 . S
O551 C542 1.058 . S
C552 O553 1.228 . S
C552 O554 1.267 . S
O553 C552 1.228 . S
O554 Zn541 1.969 . S
O554 C552 1.267 . S
O555 Zn541 1.965 . S
O555 C559 1.260 . S
O556 Zn540 1.969 . S
O556 C559 1.258 . S
O557 Zn541 2.024 . S
O557 C544 1.058 . S
C558 O547 1.260 . S
C558 O548 1.258 . S
C559 O555 1.260 . S
C559 O556 1.258 . S
Zn560 O566 1.969 1_556 S
Zn560 O567 1.965 . S
Zn560 O571 2.024 . S
Zn560 O576 1.969 . S
Zn561 O568 1.969 . S
Zn561 O574 1.969 . S
Zn561 O575 1.965 . S
Zn561 O577 2.024 . S
C562 O563 1.229 . S
C562 O571 1.058 1_554 S
O563 C562 1.229 . S
C564 O565 1.229 . S
C564 O577 1.058 . S
O565 C564 1.229 . S
O566 Zn560 1.969 1_554 S
O566 C569 1.267 . S
O567 Zn560 1.965 . S
O567 C578 1.260 . S
O568 Zn561 1.969 . S
O568 C578 1.258 . S
C569 O566 1.267 . S
C569 O570 1.228 . S
O570 C569 1.228 . S
O571 Zn560 2.024 . S
O571 C562 1.058 1_556 S
C572 O573 1.228 . S
C572 O574 1.267 . S
O573 C572 1.228 . S
O574 Zn561 1.969 . S
O574 C572 1.267 . S
O575 Zn561 1.965 . S
O575 C579 1.260 . S
O576 Zn560 1.969 . S
O576 C579 1.258 . S
O577 Zn561 2.024 . S
O577 C564 1.058 . S
C578 O567 1.260 . S
C578 O568 1.258 . S
C579 O575 1.260 . S
C579 O576 1.258 . S
Zn580 O586 1.969 1_556 S
Zn580 O587 1.965 . S
Zn580 O591 2.024 . S
Zn580 O596 1.969 . S
Zn581 O588 1.969 . S
Zn581 O594 1.969 . S
Zn581 O595 1.965 . S
Zn581 O597 2.024 . S
C582 O583 1.229 . S
C582 O591 1.058 1_554 S
O583 C582 1.229 . S
C584 O585 1.229 . S
C584 O597 1.058 . S
O585 C584 1.229 . S
O586 Zn580 1.969 1_554 S
O586 C589 1.267 . S
O587 Zn580 1.965 . S
O587 C598 1.260 . S
O588 Zn581 1.969 . S
O588 C598 1.258 . S
C589 O586 1.267 . S
C589 O590 1.228 . S
O590 C589 1.228 . S
O591 Zn580 2.024 . S
O591 C582 1.058 1_556 S
C592 O593 1.228 . S
C592 O594 1.267 . S
O593 C592 1.228 . S
O594 Zn581 1.969 . S
O594 C592 1.267 . S
O595 Zn581 1.965 . S
O595 C599 1.260 . S
O596 Zn580 1.969 . S
O596 C599 1.258 . S
O597 Zn581 2.024 . S
O597 C584 1.058 . S
C598 O587 1.260 . S
C598 O588 1.258 . S
C599 O595 1.260 . S
C599 O596 1.258 . S
Zn600 O606 1.969 . S
Zn600 O607 1.965 . S
Zn600 O611 2.024 . S
Zn600 O616 1.969 . S
Zn601 O608 1.969 . S
Zn601 O614 1.969 . S
Zn601 O615 1.965 . S
Zn601 O617 2.024 . S
C602 O603 1.229 . S
C602 O611 1.058 . S
O603 C602 1.229 . S
C604 O605 1.229 . S
C604 O617 1.058 . S
O605 C604 1.229 . S
O606 Zn600 1.969 . S
O606 C609 1.267 . S
O607 Zn600 1.965 . S
O607 C618 1.260 . S
O608 Zn601 1.969 . S
O608 C618 1.258 . S
C609 O606 1.267 . S
C609 O610 1.228 . S
O610 C609 1.228 . S
O611 Zn600 2.024 . S
O611 C602 1.058 . S
C612 O613 1.228 . S
C612 O614 1.267 . S
O613 C612 1.228 . S
O614 Zn601 1.969 . S
O614 C612 1.267 . S
O615 Zn601 1.965 . S
O615 C619 1.260 . S
O616 Zn600 1.969 . S
O616 C619 1.258 . S
O617 Zn601 2.024 . S
O617 C604 1.058 . S
C618 O607 1.260 . S
C618 O608 1.258 . S
C619 O615 1.260 . S
C619 O616 1.258 . S
Zn620 O626 1.969 . S
Zn620 O627 1.965 . S
Zn620 O631 2.024 . S
Zn620 O636 1.969 . S
Zn621 O628 1.969 . S
Zn621 O634 1.969 . S
Zn621 O635 1.965 . S
Zn621 O637 2.024 . S
C622 O623 1.229 . S
C622 O631 1.058 . S
O623 C622 1.229 . S
C624 O625 1.229 . S
C624 O637 1.058 . S
O625 C624 1.229 . S
O626 Zn620 1.969 . S
O626 C629 1.267 . S
O627 Zn620 1.965 . S
O627 C638 1.260 . S
O628 Zn621 1.969 . S
O628 C638 1.258 . S
C629 O626 1.267 . S
C629 O630 1.228 . S
O630 C629 1.228 . S
O631 Zn620 2.024 . S
O631 C622 1.058 . S
C632 O633 1.228 . S
C632 O634 1.267 . S
O633 C632 1.228 . S
O634 Zn621 1.969 . S
O634 C632 1.267 . S
O635 Zn621 1.965 . S
O635 C639 1.260 . S
O636 Zn620 1.969 . S
O636 C639 1.258 . S
O637 Zn621 2.024 . S
O637 C624 1.058 . S
C638 O627 1.260 . S
C638 O628 1.258 . S
C639 O635 1.260 . S
C639 O636 1.258 . S
C640 C641 1.369 . S
C640 C642 1.419 . S
C640 H644 0.930 . S
C641 C640 1.369 . S
C641 C650 1.429 . S
C642 C640 1.419 . S
C642 C643 1.363 . S
C642 H645 0.929 . S
C643 C642 1.363 . S
C643 C649 1.428 . S
H644 C640 0.930 . S
H645 C642 0.929 . S
S646 N647 1.613 . S
S646 N648 1.610 . S
N647 S646 1.613 . S
N647 C650 1.350 1_556 S
N648 S646 1.610 . S
N648 C649 1.351 1_556 S
C649 C643 1.428 . S
C649 N648 1.351 1_554 S
C649 C650 1.434 . S
C650 C641 1.429 . S
C650 N647 1.350 1_554 S
C650 C649 1.434 . S
C651 C652 1.369 . S
C651 C653 1.419 . S
C651 H655 0.930 . S
C652 C651 1.369 . S
C652 C661 1.429 . S
C653 C651 1.419 . S
C653 C654 1.363 . S
C653 H656 0.929 . S
C654 C653 1.363 . S
C654 C660 1.428 . S
H655 C651 0.930 . S
H656 C653 0.929 . S
S657 N658 1.613 . S
S657 N659 1.610 . S
N658 S657 1.613 . S
N658 C661 1.350 . S
N659 S657 1.610 . S
N659 C660 1.351 . S
C660 C654 1.428 . S
C660 N659 1.351 . S
C660 C661 1.434 . S
C661 C652 1.429 . S
C661 N658 1.350 . S
C661 C660 1.434 . S
C662 C663 1.369 . S
C662 C664 1.419 . S
C662 H666 0.930 . S
C663 C662 1.369 . S
C663 C672 1.429 . S
C664 C662 1.419 . S
C664 C665 1.363 . S
C664 H667 0.929 . S
C665 C664 1.363 . S
C665 C671 1.428 . S
H666 C662 0.930 . S
H667 C664 0.929 . S
S668 N669 1.613 . S
S668 N670 1.610 . S
N669 S668 1.613 . S
N669 C672 1.350 . S
N670 S668 1.610 . S
N670 C671 1.351 . S
C671 C665 1.428 . S
C671 N670 1.351 . S
C671 C672 1.434 . S
C672 C663 1.429 . S
C672 N669 1.350 . S
C672 C671 1.434 . S
C673 C674 1.369 . S
C673 C675 1.419 . S
C673 H677 0.930 . S
C674 C673 1.369 . S
C674 C683 1.429 . S
C675 C673 1.419 . S
C675 C676 1.363 . S
C675 H678 0.929 . S
C676 C675 1.363 . S
C676 C682 1.428 . S
H677 C673 0.930 . S
H678 C675 0.929 . S
S679 N680 1.613 . S
S679 N681 1.610 . S
N680 S679 1.613 . S
N680 C683 1.350 . S
N681 S679 1.610 . S
N681 C682 1.351 . S
C682 C676 1.428 . S
C682 N681 1.351 . S
C682 C683 1.434 . S
C683 C674 1.429 . S
C683 N680 1.350 . S
C683 C682 1.434 . S
C684 C685 1.369 . S
C684 C686 1.419 . S
C684 H688 0.930 . S
C685 C684 1.369 . S
C685 C694 1.429 . S
C686 C684 1.419 . S
C686 C687 1.363 . S
C686 H689 0.929 . S
C687 C686 1.363 . S
C687 C693 1.428 . S
H688 C684 0.930 . S
H689 C686 0.929 . S
S690 N691 1.613 . S
S690 N692 1.610 . S
N691 S690 1.613 . S
N691 C694 1.350 . S
N692 S690 1.610 . S
N692 C693 1.351 . S
C693 C687 1.428 . S
C693 N692 1.351 . S
C693 C694 1.434 . S
C694 C685 1.429 . S
C694 N691 1.350 . S
C694 C693 1.434 . S
C695 C696 1.369 . S
C695 C697 1.419 . S
C695 H699 0.930 . S
C696 C695 1.369 . S
C696 C705 1.429 . S
C697 C695 1.419 . S
C697 C698 1.363 . S
C697 H700 0.929 . S
C698 C697 1.363 . S
C698 C704 1.428 . S
H699 C695 0.930 . S
H700 C697 0.929 . S
S701 N702 1.613 . S
S701 N703 1.610 . S
N702 S701 1.613 . S
N702 C705 1.350 . S
N703 S701 1.610 . S
N703 C704 1.351 . S
C704 C698 1.428 . S
C704 N703 1.351 . S
C704 C705 1.434 . S
C705 C696 1.429 . S
C705 N702 1.350 . S
C705 C704 1.434 . S
C706 C707 1.369 . S
C706 C708 1.419 . S
C706 H710 0.930 . S
C707 C706 1.369 . S
C707 C716 1.429 . S
C708 C706 1.419 . S
C708 C709 1.363 . S
C708 H711 0.929 . S
C709 C708 1.363 . S
C709 C715 1.428 . S
H710 C706 0.930 . S
H711 C708 0.929 . S
S712 N713 1.613 . S
S712 N714 1.610 . S
N713 S712 1.613 . S
N713 C716 1.350 . S
N714 S712 1.610 . S
N714 C715 1.351 . S
C715 C709 1.428 . S
C715 N714 1.351 . S
C715 C716 1.434 . S
C716 C707 1.429 . S
C716 N713 1.350 . S
C716 C715 1.434 . S
C717 C718 1.369 . S
C717 C719 1.419 . S
C717 H721 0.930 . S
C718 C717 1.369 . S
C718 C727 1.429 . S
C719 C717 1.419 . S
C719 C720 1.363 . S
C719 H722 0.929 . S
C720 C719 1.363 . S
C720 C726 1.428 . S
H721 C717 0.930 . S
H722 C719 0.929 . S
S723 N724 1.613 . S
S723 N725 1.610 . S
N724 S723 1.613 . S
N724 C727 1.350 . S
N725 S723 1.610 . S
N725 C726 1.351 . S
C726 C720 1.428 . S
C726 N725 1.351 . S
C726 C727 1.434 . S
C727 C718 1.429 . S
C727 N724 1.350 . S
C727 C726 1.434 . S
C728 C729 1.369 . S
C728 C730 1.419 . S
C728 H732 0.930 . S
C729 C728 1.369 . S
C729 C738 1.429 . S
C730 C728 1.419 . S
C730 C731 1.363 . S
C730 H733 0.929 . S
C731 C730 1.363 . S
C731 C737 1.428 . S
H732 C728 0.930 . S
H733 C730 0.929 . S
S734 N735 1.613 . S
S734 N736 1.610 . S
N735 S734 1.613 . S
N735 C738 1.350 . S
N736 S734 1.610 . S
N736 C737 1.351 . S
C737 C731 1.428 . S
C737 N736 1.351 . S
C737 C738 1.434 . S
C738 C729 1.429 . S
C738 N735 1.350 . S
C738 C737 1.434 . S
C739 C740 1.369 . S
C739 C741 1.419 . S
C739 H743 0.930 . S
C740 C739 1.369 . S
C740 C749 1.429 . S
C741 C739 1.419 . S
C741 C742 1.363 . S
C741 H744 0.929 . S
C742 C741 1.363 . S
C742 C748 1.428 . S
H743 C739 0.930 . S
H744 C741 0.929 . S
S745 N746 1.613 . S
S745 N747 1.610 . S
N746 S745 1.613 . S
N746 C749 1.350 . S
N747 S745 1.610 . S
N747 C748 1.351 . S
C748 C742 1.428 . S
C748 N747 1.351 . S
C748 C749 1.434 . S
C749 C740 1.429 . S
C749 N746 1.350 . S
C749 C748 1.434 . S
C750 C751 1.369 . S
C750 C752 1.419 . S
C750 H754 0.930 . S
C751 C750 1.369 . S
C751 C760 1.429 . S
C752 C750 1.419 . S
C752 C753 1.363 . S
C752 H755 0.929 . S
C753 C752 1.363 . S
C753 C759 1.428 . S
H754 C750 0.930 . S
H755 C752 0.929 . S
S756 N757 1.613 . S
S756 N758 1.610 . S
N757 S756 1.613 . S
N757 C760 1.350 . S
N758 S756 1.610 . S
N758 C759 1.351 . S
C759 C753 1.428 . S
C759 N758 1.351 . S
C759 C760 1.434 . S
C760 C751 1.429 . S
C760 N757 1.350 . S
C760 C759 1.434 . S
C761 C762 1.369 . S
C761 C763 1.419 . S
C761 H765 0.930 . S
C762 C761 1.369 . S
C762 C771 1.429 . S
C763 C761 1.419 . S
C763 C764 1.363 . S
C763 H766 0.929 . S
C764 C763 1.363 . S
C764 C770 1.428 . S
H765 C761 0.930 . S
H766 C763 0.929 . S
S767 N768 1.613 . S
S767 N769 1.610 . S
N768 S767 1.613 . S
N768 C771 1.350 . S
N769 S767 1.610 . S
N769 C770 1.351 . S
C770 C764 1.428 . S
C770 N769 1.351 . S
C770 C771 1.434 . S
C771 C762 1.429 . S
C771 N768 1.350 . S
C771 C770 1.434 . S
C772 C773 1.369 . S
C772 C774 1.419 . S
C772 H776 0.930 . S
C773 C772 1.369 . S
C773 C782 1.429 . S
C774 C772 1.419 . S
C774 C775 1.363 . S
C774 H777 0.929 . S
C775 C774 1.363 . S
C775 C781 1.428 . S
H776 C772 0.930 . S
H777 C774 0.929 . S
S778 N779 1.613 . S
S778 N780 1.610 . S
N779 S778 1.613 . S
N779 C782 1.350 . S
N780 S778 1.610 . S
N780 C781 1.351 . S
C781 C775 1.428 . S
C781 N780 1.351 . S
C781 C782 1.434 . S
C782 C773 1.429 . S
C782 N779 1.350 . S
C782 C781 1.434 . S
C783 C784 1.369 . S
C783 C785 1.419 . S
C783 H787 0.930 . S
C784 C783 1.369 . S
C784 C793 1.429 . S
C785 C783 1.419 . S
C785 C786 1.363 . S
C785 H788 0.929 . S
C786 C785 1.363 . S
C786 C792 1.428 . S
H787 C783 0.930 . S
H788 C785 0.929 . S
S789 N790 1.613 . S
S789 N791 1.610 . S
N790 S789 1.613 . S
N790 C793 1.350 . S
N791 S789 1.610 . S
N791 C792 1.351 . S
C792 C786 1.428 . S
C792 N791 1.351 . S
C792 C793 1.434 . S
C793 C784 1.429 . S
C793 N790 1.350 . S
C793 C792 1.434 . S
C794 C795 1.369 . S
C794 C796 1.419 . S
C794 H798 0.930 . S
C795 C794 1.369 . S
C795 C804 1.429 . S
C796 C794 1.419 . S
C796 C797 1.363 . S
C796 H799 0.929 . S
C797 C796 1.363 . S
C797 C803 1.428 . S
H798 C794 0.930 . S
H799 C796 0.929 . S
S800 N801 1.613 . S
S800 N802 1.610 . S
N801 S800 1.613 . S
N801 C804 1.350 . S
N802 S800 1.610 . S
N802 C803 1.351 . S
C803 C797 1.428 . S
C803 N802 1.351 . S
C803 C804 1.434 . S
C804 C795 1.429 . S
C804 N801 1.350 . S
C804 C803 1.434 . S
C805 C806 1.369 . S
C805 C807 1.419 . S
C805 H809 0.930 . S
C806 C805 1.369 . S
C806 C815 1.429 . S
C807 C805 1.419 . S
C807 C808 1.363 . S
C807 H810 0.929 . S
C808 C807 1.363 . S
C808 C814 1.428 . S
H809 C805 0.930 . S
H810 C807 0.929 . S
S811 N812 1.613 . S
S811 N813 1.610 . S
N812 S811 1.613 . S
N812 C815 1.350 . S
N813 S811 1.610 . S
N813 C814 1.351 . S
C814 C808 1.428 . S
C814 N813 1.351 . S
C814 C815 1.434 . S
C815 C806 1.429 . S
C815 N812 1.350 . S
C815 C814 1.434 . S
C816 C817 1.369 1_545 S
C816 C818 1.419 . S
C816 H820 0.930 . S
C817 C816 1.369 1_565 S
C817 C826 1.429 . S
C818 C816 1.419 . S
C818 C819 1.363 . S
C818 H821 0.929 . S
C819 C818 1.363 . S
C819 C825 1.428 1_545 S
H820 C816 0.930 . S
H821 C818 0.929 . S
S822 N823 1.613 . S
S822 N824 1.610 . S
N823 S822 1.613 . S
N823 C826 1.350 . S
N824 S822 1.610 . S
N824 C825 1.351 . S
C825 C819 1.428 1_565 S
C825 N824 1.351 . S
C825 C826 1.434 . S
C826 C817 1.429 . S
C826 N823 1.350 . S
C826 C825 1.434 . S
C827 C828 1.369 1_655 S
C827 C829 1.419 . S
C827 H831 0.930 . S
C828 C827 1.369 1_455 S
C828 C837 1.429 . S
C829 C827 1.419 . S
C829 C830 1.363 . S
C829 H832 0.929 . S
C830 C829 1.363 . S
C830 C836 1.428 1_655 S
H831 C827 0.930 . S
H832 C829 0.929 . S
S833 N834 1.613 . S
S833 N835 1.610 . S
N834 S833 1.613 . S
N834 C837 1.350 . S
N835 S833 1.610 . S
N835 C836 1.351 . S
C836 C830 1.428 1_455 S
C836 N835 1.351 . S
C836 C837 1.434 . S
C837 C828 1.429 . S
C837 N834 1.350 . S
C837 C836 1.434 . S
C838 C839 1.369 1_554 S
C838 C840 1.419 . S
C838 H842 0.930 . S
C839 C838 1.369 1_556 S
C839 C848 1.429 . S
C840 C838 1.419 . S
C840 C841 1.363 . S
C840 H843 0.929 . S
C841 C840 1.363 . S
C841 C847 1.428 1_554 S
H842 C838 0.930 . S
H843 C840 0.929 . S
S844 N845 1.613 . S
S844 N846 1.610 . S
N845 S844 1.613 . S
N845 C848 1.350 . S
N846 S844 1.610 . S
N846 C847 1.351 . S
C847 C841 1.428 1_556 S
C847 N846 1.351 . S
C847 C848 1.434 . S
C848 C839 1.429 . S
C848 N845 1.350 . S
C848 C847 1.434 . S
C849 C850 1.369 1_545 S
C849 C851 1.419 1_554 S
C849 H853 0.930 . S
C850 C849 1.369 1_565 S
C850 C859 1.429 1_655 S
C851 C849 1.419 1_556 S
C851 C852 1.363 1_655 S
C851 H854 0.929 . S
C852 C851 1.363 1_455 S
C852 C858 1.425 1_546 S
H853 C849 0.930 . S
H854 C851 0.929 . S
S855 N856 1.613 . S
S855 N857 1.610 . S
N856 S855 1.613 . S
N856 C859 1.350 . S
N857 S855 1.610 . S
N857 C858 1.352 . S
C858 C852 1.425 1_564 S
C858 N857 1.352 . S
C858 C859 1.437 . S
C859 C850 1.429 1_455 S
C859 N856 1.350 . S
C859 C858 1.437 . S
C860 C861 1.369 . S
C860 C862 1.419 . S
C860 H864 0.930 . S
C861 C860 1.369 . S
C861 C870 1.429 1_545 S
C862 C860 1.419 . S
C862 C863 1.363 1_545 S
C862 H865 0.929 . S
C863 C862 1.363 1_565 S
C863 C869 1.428 . S
H864 C860 0.930 . S
H865 C862 0.929 . S
S866 N867 1.613 . S
S866 N868 1.610 . S
N867 S866 1.613 . S
N867 C870 1.350 . S
N868 S866 1.610 . S
N868 C869 1.351 . S
C869 C863 1.428 . S
C869 N868 1.351 . S
C869 C870 1.434 . S
C870 C861 1.429 1_565 S
C870 N867 1.350 . S
C870 C869 1.434 . S
C871 C872 1.369 1_655 S
C871 C873 1.419 . S
C871 H875 0.930 . S
C872 C871 1.369 1_455 S
C872 C881 1.429 . S
C873 C871 1.419 . S
C873 C874 1.363 . S
C873 H876 0.929 . S
C874 C873 1.363 . S
C874 C880 1.428 1_655 S
H875 C871 0.930 . S
H876 C873 0.929 . S
S877 N878 1.613 . S
S877 N879 1.610 . S
N878 S877 1.613 . S
N878 C881 1.350 . S
N879 S877 1.610 . S
N879 C880 1.351 . S
C880 C874 1.428 1_455 S
C880 N879 1.351 . S
C880 C881 1.434 . S
C881 C872 1.429 . S
C881 N878 1.350 . S
C881 C880 1.434 . S
C882 C883 1.369 1_554 S
C882 C884 1.419 . S
C882 H886 0.930 . S
C883 C882 1.369 1_556 S
C883 C892 1.429 . S
C884 C882 1.419 . S
C884 C885 1.363 . S
C884 H887 0.929 . S
C885 C884 1.363 . S
C885 C891 1.428 1_554 S
H886 C882 0.930 . S
H887 C884 0.929 . S
S888 N889 1.613 . S
S888 N890 1.610 . S
N889 S888 1.613 . S
N889 C892 1.350 . S
N890 S888 1.610 . S
N890 C891 1.351 . S
C891 C885 1.428 1_556 S
C891 N890 1.351 . S
C891 C892 1.434 . S
C892 C883 1.429 . S
C892 N889 1.350 . S
C892 C891 1.434 . S
C893 C894 1.369 . S
C893 C895 1.419 . S
C893 H897 0.930 . S
C894 C893 1.369 . S
C894 C903 1.429 . S
C895 C893 1.419 . S
C895 C896 1.363 . S
C895 H898 0.929 . S
C896 C895 1.363 . S
C896 C902 1.428 . S
H897 C893 0.930 . S
H898 C895 0.929 . S
S899 N900 1.613 . S
S899 N901 1.610 . S
N900 S899 1.613 . S
N900 C903 1.350 . S
N901 S899 1.610 . S
N901 C902 1.351 . S
C902 C896 1.428 . S
C902 N901 1.351 . S
C902 C903 1.434 . S
C903 C894 1.429 . S
C903 N900 1.350 . S
C903 C902 1.434 . S
C904 C905 1.369 . S
C904 C906 1.419 . S
C904 H908 0.930 . S
C905 C904 1.369 . S
C905 C914 1.429 . S
C906 C904 1.419 . S
C906 C907 1.363 . S
C906 H909 0.929 . S
C907 C906 1.363 . S
C907 C913 1.428 . S
H908 C904 0.930 . S
H909 C906 0.929 . S
S910 N911 1.613 . S
S910 N912 1.610 . S
N911 S910 1.613 . S
N911 C914 1.350 . S
N912 S910 1.610 . S
N912 C913 1.351 . S
C913 C907 1.428 . S
C913 N912 1.351 . S
C913 C914 1.434 . S
C914 C905 1.429 . S
C914 N911 1.350 . S
C914 C913 1.434 . S
C915 C916 1.369 . S
C915 C917 1.419 1_455 S
C915 H919 0.930 . S
C916 C915 1.369 . S
C916 C925 1.429 . S
C917 C915 1.419 1_655 S
C917 C918 1.363 . S
C917 H920 0.929 . S
C918 C917 1.363 . S
C918 C924 1.428 . S
H919 C915 0.930 . S
H920 C917 0.929 . S
S921 N922 1.613 . S
S921 N923 1.610 1_455 S
N922 S921 1.613 . S
N922 C925 1.350 . S
N923 S921 1.610 1_655 S
N923 C924 1.351 . S
C924 C918 1.428 . S
C924 N923 1.351 . S
C924 C925 1.434 1_655 S
C925 C916 1.429 . S
C925 N922 1.350 . S
C925 C924 1.434 1_455 S
C926 C927 1.369 . S
C926 C928 1.419 . S
C926 H930 0.930 . S
C927 C926 1.369 . S
C927 C936 1.429 . S
C928 C926 1.419 . S
C928 C929 1.363 . S
C928 H931 0.929 . S
C929 C928 1.363 . S
C929 C935 1.428 . S
H930 C926 0.930 . S
H931 C928 0.929 . S
S932 N933 1.613 . S
S932 N934 1.610 . S
N933 S932 1.613 . S
N933 C936 1.350 . S
N934 S932 1.610 . S
N934 C935 1.351 . S
C935 C929 1.428 . S
C935 N934 1.351 . S
C935 C936 1.434 . S
C936 C927 1.429 . S
C936 N933 1.350 . S
C936 C935 1.434 . S
C937 C938 1.369 . S
C937 C939 1.419 . S
C937 H941 0.930 . S
C938 C937 1.369 . S
C938 C947 1.429 . S
C939 C937 1.419 . S
C939 C940 1.363 . S
C939 H942 0.929 . S
C940 C939 1.363 . S
C940 C946 1.428 . S
H941 C937 0.930 . S
H942 C939 0.929 . S
S943 N944 1.613 . S
S943 N945 1.610 . S
N944 S943 1.613 . S
N944 C947 1.350 . S
N945 S943 1.610 . S
N945 C946 1.351 . S
C946 C940 1.428 . S
C946 N945 1.351 . S
C946 C947 1.434 . S
C947 C938 1.429 . S
C947 N944 1.350 . S
C947 C946 1.434 . S
C948 C949 1.369 . S
C948 C950 1.419 . S
C948 H952 0.930 . S
C949 C948 1.369 . S
C949 C958 1.429 . S
C950 C948 1.419 . S
C950 C951 1.363 . S
C950 H953 0.929 . S
C951 C950 1.363 . S
C951 C957 1.428 . S
H952 C948 0.930 . S
H953 C950 0.929 . S
S954 N955 1.613 . S
S954 N956 1.610 . S
N955 S954 1.613 . S
N955 C958 1.350 . S
N956 S954 1.610 . S
N956 C957 1.351 . S
C957 C951 1.428 . S
C957 N956 1.351 . S
C957 C958 1.434 . S
C958 C949 1.429 . S
C958 N955 1.350 . S
C958 C957 1.434 . S
C959 C960 1.368 1_545 S
C959 C961 1.420 . S
C959 H963 0.931 . S
C960 C959 1.368 1_565 S
C960 C969 1.429 . S
C961 C959 1.420 . S
C961 C962 1.363 . S
C961 H964 0.929 . S
C962 C961 1.363 . S
C962 C968 1.428 1_545 S
H963 C959 0.931 . S
H964 C961 0.929 . S
S965 N966 1.615 . S
S965 N967 1.610 1_565 S
N966 S965 1.615 . S
N966 C969 1.350 . S
N967 S965 1.610 1_545 S
N967 C968 1.351 1_545 S
C968 C962 1.428 1_565 S
C968 N967 1.351 1_565 S
C968 C969 1.434 . S
C969 C960 1.429 . S
C969 N966 1.350 . S
C969 C968 1.434 . S
C970 C971 1.369 . S
C970 C972 1.419 . S
C970 H974 0.930 . S
C971 C970 1.369 . S
C971 C980 1.429 . S
C972 C970 1.419 . S
C972 C973 1.363 . S
C972 H975 0.929 . S
C973 C972 1.363 . S
C973 C979 1.428 . S
H974 C970 0.930 . S
H975 C972 0.929 . S
S976 N977 1.613 . S
S976 N978 1.610 . S
N977 S976 1.613 . S
N977 C980 1.350 . S
N978 S976 1.610 . S
N978 C979 1.351 . S
C979 C973 1.428 . S
C979 N978 1.351 . S
C979 C980 1.434 . S
C980 C971 1.429 . S
C980 N977 1.350 . S
C980 C979 1.434 . S
C981 C982 1.369 . S
C981 C983 1.419 1_554 S
C981 H985 0.930 . S
C982 C981 1.369 . S
C982 C991 1.429 . S
C983 C981 1.419 1_556 S
C983 C984 1.363 . S
C983 H986 0.929 . S
C984 C983 1.363 . S
C984 C990 1.428 . S
H985 C981 0.930 . S
H986 C983 0.929 . S
S987 N988 1.613 . S
S987 N989 1.608 . S
N988 S987 1.613 . S
N988 C991 1.350 . S
N989 S987 1.608 . S
N989 C990 1.351 1_554 S
C990 C984 1.428 . S
C990 N989 1.351 1_556 S
C990 C991 1.434 1_556 S
C991 C982 1.429 . S
C991 N988 1.350 . S
C991 C990 1.434 1_554 S
C992 C993 1.369 1_565 S
C992 C994 1.419 . S
C992 H996 0.930 . S
C993 C992 1.369 1_545 S
C993 C1002 1.429 . S
C994 C992 1.419 . S
C994 C995 1.363 1_565 S
C994 H997 0.929 . S
C995 C994 1.363 1_545 S
C995 C1001 1.428 . S
H996 C992 0.930 . S
H997 C994 0.929 . S
S998 N999 1.613 . S
S998 N1000 1.610 . S
N999 S998 1.613 . S
N999 C1002 1.350 . S
N1000 S998 1.610 . S
N1000 C1001 1.351 . S
C1001 C995 1.428 . S
C1001 N1000 1.351 . S
C1001 C1002 1.434 . S
C1002 C993 1.429 . S
C1002 N999 1.350 . S
C1002 C1001 1.434 . S
C1003 C1004 1.369 . S
C1003 C1005 1.419 . S
C1003 H1007 0.930 . S
C1004 C1003 1.369 . S
C1004 C1013 1.429 . S
C1005 C1003 1.419 . S
C1005 C1006 1.363 . S
C1005 H1008 0.929 . S
C1006 C1005 1.363 . S
C1006 C1012 1.428 . S
H1007 C1003 0.930 . S
H1008 C1005 0.929 . S
S1009 N1010 1.613 . S
S1009 N1011 1.610 . S
N1010 S1009 1.613 . S
N1010 C1013 1.350 . S
N1011 S1009 1.610 . S
N1011 C1012 1.351 . S
C1012 C1006 1.428 . S
C1012 N1011 1.351 . S
C1012 C1013 1.434 . S
C1013 C1004 1.429 . S
C1013 N1010 1.350 . S
C1013 C1012 1.434 . S
C1014 C1015 1.369 . S
C1014 C1016 1.419 . S
C1014 H1018 0.930 . S
C1015 C1014 1.369 . S
C1015 C1024 1.429 . S
C1016 C1014 1.419 . S
C1016 C1017 1.363 . S
C1016 H1019 0.929 . S
C1017 C1016 1.363 . S
C1017 C1023 1.428 . S
H1018 C1014 0.930 . S
H1019 C1016 0.929 . S
S1020 N1021 1.613 . S
S1020 N1022 1.610 . S
N1021 S1020 1.613 . S
N1021 C1024 1.350 . S
N1022 S1020 1.610 . S
N1022 C1023 1.351 . S
C1023 C1017 1.428 . S
C1023 N1022 1.351 . S
C1023 C1024 1.434 . S
C1024 C1015 1.429 . S
C1024 N1021 1.350 . S
C1024 C1023 1.434 . S
C1025 C1026 1.369 1_565 S
C1025 C1027 1.419 . S
C1025 H1029 0.930 . S
C1026 C1025 1.369 1_545 S
C1026 C1035 1.429 . S
C1027 C1025 1.419 . S
C1027 C1028 1.363 1_565 S
C1027 H1030 0.929 . S
C1028 C1027 1.363 1_545 S
C1028 C1034 1.428 . S
H1029 C1025 0.930 . S
H1030 C1027 0.929 . S
S1031 N1032 1.613 . S
S1031 N1033 1.610 . S
N1032 S1031 1.613 . S
N1032 C1035 1.350 . S
N1033 S1031 1.610 . S
N1033 C1034 1.351 . S
C1034 C1028 1.428 . S
C1034 N1033 1.351 . S
C1034 C1035 1.434 . S
C1035 C1026 1.429 . S
C1035 N1032 1.350 . S
C1035 C1034 1.434 . S
C1036 C1037 1.369 1_545 S
C1036 C1038 1.419 . S
C1036 H1040 0.930 . S
C1037 C1036 1.369 1_565 S
C1037 C1046 1.429 . S
C1038 C1036 1.419 . S
C1038 C1039 1.363 1_545 S
C1038 H1041 0.929 . S
C1039 C1038 1.363 1_565 S
C1039 C1045 1.428 . S
H1040 C1036 0.930 . S
H1041 C1038 0.929 . S
S1042 N1043 1.613 . S
S1042 N1044 1.610 . S
N1043 S1042 1.613 . S
N1043 C1046 1.350 . S
N1044 S1042 1.610 . S
N1044 C1045 1.351 . S
C1045 C1039 1.428 . S
C1045 N1044 1.351 . S
C1045 C1046 1.434 . S
C1046 C1037 1.429 . S
C1046 N1043 1.350 . S
C1046 C1045 1.434 . S
C1047 C1048 1.369 . S
C1047 C1049 1.419 . S
C1047 H1051 0.930 . S
C1048 C1047 1.369 . S
C1048 C1057 1.429 . S
C1049 C1047 1.419 . S
C1049 C1050 1.363 . S
C1049 H1052 0.929 . S
C1050 C1049 1.363 . S
C1050 C1056 1.428 . S
H1051 C1047 0.930 . S
H1052 C1049 0.929 . S
S1053 N1054 1.613 . S
S1053 N1055 1.610 . S
N1054 S1053 1.613 . S
N1054 C1057 1.350 . S
N1055 S1053 1.610 . S
N1055 C1056 1.351 . S
C1056 C1050 1.428 . S
C1056 N1055 1.351 . S
C1056 C1057 1.434 . S
C1057 C1048 1.429 . S
C1057 N1054 1.350 . S
C1057 C1056 1.434 . S
C1058 C1059 1.369 . S
C1058 C1060 1.419 . S
C1058 H1062 0.930 . S
C1059 C1058 1.369 . S
C1059 C1068 1.429 . S
C1060 C1058 1.419 . S
C1060 C1061 1.363 . S
C1060 H1063 0.929 . S
C1061 C1060 1.363 . S
C1061 C1067 1.428 . S
H1062 C1058 0.930 . S
H1063 C1060 0.929 . S
S1064 N1065 1.613 . S
S1064 N1066 1.610 . S
N1065 S1064 1.613 . S
N1065 C1068 1.350 . S
N1066 S1064 1.610 . S
N1066 C1067 1.351 . S
C1067 C1061 1.428 . S
C1067 N1066 1.351 . S
C1067 C1068 1.434 . S
C1068 C1059 1.429 . S
C1068 N1065 1.350 . S
C1068 C1067 1.434 . S
C1069 C1070 1.369 . S
C1069 C1071 1.419 . S
C1069 H1073 0.930 . S
C1070 C1069 1.369 . S
C1070 C1079 1.429 1_565 S
C1071 C1069 1.419 . S
C1071 C1072 1.363 . S
C1071 H1074 0.929 . S
C1072 C1071 1.363 . S
C1072 C1078 1.428 1_565 S
H1073 C1069 0.930 . S
H1074 C1071 0.929 . S
S1075 N1076 1.613 . S
S1075 N1077 1.610 . S
N1076 S1075 1.613 . S
N1076 C1079 1.350 . S
N1077 S1075 1.610 . S
N1077 C1078 1.351 . S
C1078 C1072 1.428 1_545 S
C1078 N1077 1.351 . S
C1078 C1079 1.434 . S
C1079 C1070 1.429 1_545 S
C1079 N1076 1.350 . S
C1079 C1078 1.434 . S
C1080 C1081 1.369 . S
C1080 C1082 1.419 . S
C1080 H1084 0.930 . S
C1081 C1080 1.369 . S
C1081 C1090 1.429 . S
C1082 C1080 1.419 . S
C1082 C1083 1.363 . S
C1082 H1085 0.929 . S
C1083 C1082 1.363 . S
C1083 C1089 1.428 . S
H1084 C1080 0.930 . S
H1085 C1082 0.929 . S
S1086 N1087 1.613 . S
S1086 N1088 1.610 . S
N1087 S1086 1.613 . S
N1087 C1090 1.350 . S
N1088 S1086 1.610 . S
N1088 C1089 1.351 . S
C1089 C1083 1.428 . S
C1089 N1088 1.351 . S
C1089 C1090 1.434 . S
C1090 C1081 1.429 . S
C1090 N1087 1.350 . S
C1090 C1089 1.434 . S
C1091 C1092 1.369 . S
C1091 C1093 1.419 . S
C1091 H1095 0.930 . S
C1092 C1091 1.369 . S
C1092 C1101 1.429 . S
C1093 C1091 1.419 . S
C1093 C1094 1.363 . S
C1093 H1096 0.929 . S
C1094 C1093 1.363 . S
C1094 C1100 1.428 . S
H1095 C1091 0.930 . S
H1096 C1093 0.929 . S
S1097 N1098 1.613 . S
S1097 N1099 1.610 . S
N1098 S1097 1.613 . S
N1098 C1101 1.350 . S
N1099 S1097 1.610 . S
N1099 C1100 1.351 . S
C1100 C1094 1.428 . S
C1100 N1099 1.351 . S
C1100 C1101 1.434 . S
C1101 C1092 1.429 . S
C1101 N1098 1.350 . S
C1101 C1100 1.434 . S
C1102 C1103 1.369 . S
C1102 C1104 1.419 . S
C1102 H1106 0.930 . S
C1103 C1102 1.369 . S
C1103 C1112 1.429 . S
C1104 C1102 1.419 . S
C1104 C1105 1.363 . S
C1104 H1107 0.929 . S
C1105 C1104 1.363 . S
C1105 C1111 1.428 . S
H1106 C1102 0.930 . S
H1107 C1104 0.929 . S
S1108 N1109 1.613 . S
S1108 N1110 1.610 . S
N1109 S1108 1.613 . S
N1109 C1112 1.350 . S
N1110 S1108 1.610 . S
N1110 C1111 1.351 . S
C1111 C1105 1.428 . S
C1111 N1110 1.351 . S
C1111 C1112 1.434 . S
C1112 C1103 1.429 . S
C1112 N1109 1.350 . S
C1112 C1111 1.434 . S
C1113 C1114 1.369 . S
C1113 C1115 1.419 . S
C1113 H1117 0.930 . S
C1114 C1113 1.369 . S
C1114 C1123 1.429 . S
C1115 C1113 1.419 . S
C1115 C1116 1.363 . S
C1115 H1118 0.929 . S
C1116 C1115 1.363 . S
C1116 C1122 1.428 . S
H1117 C1113 0.930 . S
H1118 C1115 0.929 . S
S1119 N1120 1.613 . S
S1119 N1121 1.610 . S
N1120 S1119 1.613 . S
N1120 C1123 1.350 . S
N1121 S1119 1.610 . S
N1121 C1122 1.351 . S
C1122 C1116 1.428 . S
C1122 N1121 1.351 . S
C1122 C1123 1.434 . S
C1123 C1114 1.429 . S
C1123 N1120 1.350 . S
C1123 C1122 1.434 . S
C1124 C1125 1.369 . S
C1124 C1126 1.419 . S
C1124 H1128 0.930 . S
C1125 C1124 1.369 . S
C1125 C1134 1.429 . S
C1126 C1124 1.419 . S
C1126 C1127 1.363 . S
C1126 H1129 0.929 . S
C1127 C1126 1.363 . S
C1127 C1133 1.428 . S
H1128 C1124 0.930 . S
H1129 C1126 0.929 . S
S1130 N1131 1.613 . S
S1130 N1132 1.610 . S
N1131 S1130 1.613 . S
N1131 C1134 1.350 . S
N1132 S1130 1.610 . S
N1132 C1133 1.351 . S
C1133 C1127 1.428 . S
C1133 N1132 1.351 . S
C1133 C1134 1.434 . S
C1134 C1125 1.429 . S
C1134 N1131 1.350 . S
C1134 C1133 1.434 . S
C1135 C1136 1.369 . S
C1135 C1137 1.419 . S
C1135 H1139 0.930 . S
C1136 C1135 1.369 . S
C1136 C1145 1.429 . S
C1137 C1135 1.419 . S
C1137 C1138 1.363 . S
C1137 H1140 0.929 . S
C1138 C1137 1.363 . S
C1138 C1144 1.428 . S
H1139 C1135 0.930 . S
H1140 C1137 0.929 . S
S1141 N1142 1.613 . S
S1141 N1143 1.610 . S
N1142 S1141 1.613 . S
N1142 C1145 1.350 . S
N1143 S1141 1.610 . S
N1143 C1144 1.351 . S
C1144 C1138 1.428 . S
C1144 N1143 1.351 . S
C1144 C1145 1.434 . S
C1145 C1136 1.429 . S
C1145 N1142 1.350 . S
C1145 C1144 1.434 . S
C1146 C1147 1.369 . S
C1146 C1148 1.419 . S
C1146 H1150 0.930 . S
C1147 C1146 1.369 . S
C1147 C1156 1.429 . S
C1148 C1146 1.419 . S
C1148 C1149 1.363 . S
C1148 H1151 0.929 . S
C1149 C1148 1.363 . S
C1149 C1155 1.428 . S
H1150 C1146 0.930 . S
H1151 C1148 0.929 . S
S1152 N1153 1.613 . S
S1152 N1154 1.610 . S
N1153 S1152 1.613 . S
N1153 C1156 1.350 . S
N1154 S1152 1.610 . S
N1154 C1155 1.351 . S
C1155 C1149 1.428 . S
C1155 N1154 1.351 . S
C1155 C1156 1.434 . S
C1156 C1147 1.429 . S
C1156 N1153 1.350 . S
C1156 C1155 1.434 . S
C1157 C1158 1.369 . S
C1157 C1159 1.419 . S
C1157 H1161 0.930 . S
C1158 C1157 1.369 . S
C1158 C1167 1.429 . S
C1159 C1157 1.419 . S
C1159 C1160 1.363 . S
C1159 H1162 0.929 . S
C1160 C1159 1.363 . S
C1160 C1166 1.428 . S
H1161 C1157 0.930 . S
H1162 C1159 0.929 . S
S1163 N1164 1.613 . S
S1163 N1165 1.610 . S
N1164 S1163 1.613 . S
N1164 C1167 1.350 . S
N1165 S1163 1.610 . S
N1165 C1166 1.351 . S
C1166 C1160 1.428 . S
C1166 N1165 1.351 . S
C1166 C1167 1.434 . S
C1167 C1158 1.429 . S
C1167 N1164 1.350 . S
C1167 C1166 1.434 . S
C1168 C1169 1.369 . S
C1168 C1170 1.419 . S
C1168 H1172 0.930 . S
C1169 C1168 1.369 . S
C1169 C1178 1.429 . S
C1170 C1168 1.419 . S
C1170 C1171 1.363 . S
C1170 H1173 0.929 . S
C1171 C1170 1.363 . S
C1171 C1177 1.428 . S
H1172 C1168 0.930 . S
H1173 C1170 0.929 . S
S1174 N1175 1.613 . S
S1174 N1176 1.610 . S
N1175 S1174 1.613 . S
N1175 C1178 1.350 . S
N1176 S1174 1.610 . S
N1176 C1177 1.351 . S
C1177 C1171 1.428 . S
C1177 N1176 1.351 . S
C1177 C1178 1.434 . S
C1178 C1169 1.429 . S
C1178 N1175 1.350 . S
C1178 C1177 1.434 . S
C1179 C1180 1.369 . S
C1179 C1181 1.419 . S
C1179 H1183 0.930 . S
C1180 C1179 1.369 . S
C1180 C1189 1.429 . S
C1181 C1179 1.419 . S
C1181 C1182 1.363 . S
C1181 H1184 0.929 . S
C1182 C1181 1.363 . S
C1182 C1188 1.428 . S
H1183 C1179 0.930 . S
H1184 C1181 0.929 . S
S1185 N1186 1.613 . S
S1185 N1187 1.610 . S
N1186 S1185 1.613 . S
N1186 C1189 1.350 . S
N1187 S1185 1.610 . S
N1187 C1188 1.351 . S
C1188 C1182 1.428 . S
C1188 N1187 1.351 . S
C1188 C1189 1.434 . S
C1189 C1180 1.429 . S
C1189 N1186 1.350 . S
C1189 C1188 1.434 . S
C1190 C1191 1.369 . S
C1190 C1192 1.419 . S
C1190 H1194 0.930 . S
C1191 C1190 1.369 . S
C1191 C1200 1.429 . S
C1192 C1190 1.419 . S
C1192 C1193 1.363 . S
C1192 H1195 0.929 . S
C1193 C1192 1.363 . S
C1193 C1199 1.428 . S
H1194 C1190 0.930 . S
H1195 C1192 0.929 . S
S1196 N1197 1.613 . S
S1196 N1198 1.610 . S
N1197 S1196 1.613 . S
N1197 C1200 1.350 . S
N1198 S1196 1.610 . S
N1198 C1199 1.351 . S
C1199 C1193 1.428 . S
C1199 N1198 1.351 . S
C1199 C1200 1.434 . S
C1200 C1191 1.429 . S
C1200 N1197 1.350 . S
C1200 C1199 1.434 . S
C1201 C1202 1.369 . S
C1201 C1203 1.419 . S
C1201 H1205 0.930 . S
C1202 C1201 1.369 . S
C1202 C1211 1.429 . S
C1203 C1201 1.419 . S
C1203 C1204 1.363 . S
C1203 H1206 0.929 . S
C1204 C1203 1.363 . S
C1204 C1210 1.428 . S
H1205 C1201 0.930 . S
H1206 C1203 0.929 . S
S1207 N1208 1.613 1_655 S
S1207 N1209 1.610 1_655 S
N1208 S1207 1.613 1_455 S
N1208 C1211 1.350 . S
N1209 S1207 1.610 1_455 S
N1209 C1210 1.351 . S
C1210 C1204 1.428 . S
C1210 N1209 1.351 . S
C1210 C1211 1.434 . S
C1211 C1202 1.429 . S
C1211 N1208 1.350 . S
C1211 C1210 1.434 . S
C1212 C1213 1.369 . S
C1212 C1214 1.419 . S
C1212 H1216 0.930 . S
C1213 C1212 1.369 . S
C1213 C1222 1.429 . S
C1214 C1212 1.419 . S
C1214 C1215 1.363 . S
C1214 H1217 0.929 . S
C1215 C1214 1.363 . S
C1215 C1221 1.428 . S
H1216 C1212 0.930 . S
H1217 C1214 0.929 . S
S1218 N1219 1.613 . S
S1218 N1220 1.610 . S
N1219 S1218 1.613 . S
N1219 C1222 1.350 . S
N1220 S1218 1.610 . S
N1220 C1221 1.351 . S
C1221 C1215 1.428 . S
C1221 N1220 1.351 . S
C1221 C1222 1.434 . S
C1222 C1213 1.429 . S
C1222 N1219 1.350 . S
C1222 C1221 1.434 . S
C1223 C1224 1.369 . S
C1223 C1225 1.419 . S
C1223 H1227 0.930 . S
C1224 C1223 1.369 . S
C1224 C1233 1.429 . S
C1225 C1223 1.419 . S
C1225 C1226 1.363 . S
C1225 H1228 0.929 . S
C1226 C1225 1.363 . S
C1226 C1232 1.428 . S
H1227 C1223 0.930 . S
H1228 C1225 0.929 . S
S1229 N1230 1.613 . S
S1229 N1231 1.610 . S
N1230 S1229 1.613 . S
N1230 C1233 1.350 . S
N1231 S1229 1.610 . S
N1231 C1232 1.351 . S
C1232 C1226 1.428 . S
C1232 N1231 1.351 . S
C1232 C1233 1.434 . S
C1233 C1224 1.429 . S
C1233 N1230 1.350 . S
C1233 C1232 1.434 . S
C1234 C1235 1.369 . S
C1234 C1236 1.419 . S
C1234 H1238 0.930 . S
C1235 C1234 1.369 . S
C1235 C1244 1.429 . S
C1236 C1234 1.419 . S
C1236 C1237 1.363 . S
C1236 H1239 0.929 . S
C1237 C1236 1.363 . S
C1237 C1243 1.428 . S
H1238 C1234 0.930 . S
H1239 C1236 0.929 . S
S1240 N1241 1.613 . S
S1240 N1242 1.610 . S
N1241 S1240 1.613 . S
N1241 C1244 1.350 . S
N1242 S1240 1.610 . S
N1242 C1243 1.351 . S
C1243 C1237 1.428 . S
C1243 N1242 1.351 . S
C1243 C1244 1.434 . S
C1244 C1235 1.429 . S
C1244 N1241 1.350 . S
C1244 C1243 1.434 . S
C1245 C1246 1.369 . S
C1245 C1247 1.419 . S
C1245 H1249 0.930 . S
C1246 C1245 1.369 . S
C1246 C1255 1.429 . S
C1247 C1245 1.419 . S
C1247 C1248 1.363 . S
C1247 H1250 0.929 . S
C1248 C1247 1.363 . S
C1248 C1254 1.428 . S
H1249 C1245 0.930 . S
H1250 C1247 0.929 . S
S1251 N1252 1.613 . S
S1251 N1253 1.610 . S
N1252 S1251 1.613 . S
N1252 C1255 1.350 . S
N1253 S1251 1.610 . S
N1253 C1254 1.351 . S
C1254 C1248 1.428 . S
C1254 N1253 1.351 . S
C1254 C1255 1.434 . S
C1255 C1246 1.429 . S
C1255 N1252 1.350 . S
C1255 C1254 1.434 . S
C1256 C1257 1.369 . S
C1256 C1258 1.419 . S
C1256 H1260 0.930 . S
C1257 C1256 1.369 . S
C1257 C1266 1.429 . S
C1258 C1256 1.419 . S
C1258 C1259 1.363 . S
C1258 H1261 0.929 . S
C1259 C1258 1.363 . S
C1259 C1265 1.428 . S
H1260 C1256 0.930 . S
H1261 C1258 0.929 . S
S1262 N1263 1.613 . S
S1262 N1264 1.610 . S
N1263 S1262 1.613 . S
N1263 C1266 1.350 . S
N1264 S1262 1.610 . S
N1264 C1265 1.351 . S
C1265 C1259 1.428 . S
C1265 N1264 1.351 . S
C1265 C1266 1.434 . S
C1266 C1257 1.429 . S
C1266 N1263 1.350 . S
C1266 C1265 1.434 . S
C1267 C1268 1.369 . S
C1267 C1269 1.419 . S
C1267 H1271 0.930 . S
C1268 C1267 1.369 . S
C1268 C1277 1.429 . S
C1269 C1267 1.419 . S
C1269 C1270 1.363 . S
C1269 H1272 0.929 . S
C1270 C1269 1.363 . S
C1270 C1276 1.428 . S
H1271 C1267 0.930 . S
H1272 C1269 0.929 . S
S1273 N1274 1.613 . S
S1273 N1275 1.610 . S
N1274 S1273 1.613 . S
N1274 C1277 1.350 . S
N1275 S1273 1.610 . S
N1275 C1276 1.351 . S
C1276 C1270 1.428 . S
C1276 N1275 1.351 . S
C1276 C1277 1.434 . S
C1277 C1268 1.429 . S
C1277 N1274 1.350 . S
C1277 C1276 1.434 . S
C1278 C1279 1.369 . S
C1278 C1280 1.419 . S
C1278 H1282 0.930 . S
C1279 C1278 1.369 . S
C1279 C1288 1.429 . S
C1280 C1278 1.419 . S
C1280 C1281 1.363 . S
C1280 H1283 0.929 . S
C1281 C1280 1.363 . S
C1281 C1287 1.428 . S
H1282 C1278 0.930 . S
H1283 C1280 0.929 . S
S1284 N1285 1.613 . S
S1284 N1286 1.610 . S
N1285 S1284 1.613 . S
N1285 C1288 1.350 . S
N1286 S1284 1.610 . S
N1286 C1287 1.351 . S
C1287 C1281 1.428 . S
C1287 N1286 1.351 . S
C1287 C1288 1.434 . S
C1288 C1279 1.429 . S
C1288 N1285 1.350 . S
C1288 C1287 1.434 . S
C1289 C1290 1.369 . S
C1289 C1291 1.419 . S
C1289 H1293 0.930 . S
C1290 C1289 1.369 . S
C1290 C1299 1.429 . S
C1291 C1289 1.419 . S
C1291 C1292 1.363 . S
C1291 H1294 0.929 . S
C1292 C1291 1.363 . S
C1292 C1298 1.428 . S
H1293 C1289 0.930 . S
H1294 C1291 0.929 . S
S1295 N1296 1.613 . S
S1295 N1297 1.610 . S
N1296 S1295 1.613 . S
N1296 C1299 1.350 . S
N1297 S1295 1.610 . S
N1297 C1298 1.351 . S
C1298 C1292 1.428 . S
C1298 N1297 1.351 . S
C1298 C1299 1.434 . S
C1299 C1290 1.429 . S
C1299 N1296 1.350 . S
C1299 C1298 1.434 . S
C1300 C1301 1.369 . S
C1300 C1302 1.419 . S
C1300 H1304 0.930 . S
C1301 C1300 1.369 . S
C1301 C1310 1.429 . S
C1302 C1300 1.419 . S
C1302 C1303 1.363 . S
C1302 H1305 0.929 . S
C1303 C1302 1.363 . S
C1303 C1309 1.428 . S
H1304 C1300 0.930 . S
H1305 C1302 0.929 . S
S1306 N1307 1.613 . S
S1306 N1308 1.610 . S
N1307 S1306 1.613 . S
N1307 C1310 1.350 . S
N1308 S1306 1.610 . S
N1308 C1309 1.351 . S
C1309 C1303 1.428 . S
C1309 N1308 1.351 . S
C1309 C1310 1.434 . S
C1310 C1301 1.429 . S
C1310 N1307 1.350 . S
C1310 C1309 1.434 . S
C1311 C1312 1.369 . S
C1311 C1313 1.419 . S
C1311 H1315 0.930 . S
C1312 C1311 1.369 . S
C1312 C1321 1.429 . S
C1313 C1311 1.419 . S
C1313 C1314 1.363 . S
C1313 H1316 0.929 . S
C1314 C1313 1.363 . S
C1314 C1320 1.428 . S
H1315 C1311 0.930 . S
H1316 C1313 0.929 . S
S1317 N1318 1.613 . S
S1317 N1319 1.610 . S
N1318 S1317 1.613 . S
N1318 C1321 1.350 . S
N1319 S1317 1.610 . S
N1319 C1320 1.351 . S
C1320 C1314 1.428 . S
C1320 N1319 1.351 . S
C1320 C1321 1.434 . S
C1321 C1312 1.429 . S
C1321 N1318 1.350 . S
C1321 C1320 1.434 . S
C1322 C1323 1.369 . S
C1322 C1324 1.419 . S
C1322 H1326 0.930 . S
C1323 C1322 1.369 . S
C1323 C1332 1.429 . S
C1324 C1322 1.419 . S
C1324 C1325 1.363 . S
C1324 H1327 0.929 . S
C1325 C1324 1.363 . S
C1325 C1331 1.428 . S
H1326 C1322 0.930 . S
H1327 C1324 0.929 . S
S1328 N1329 1.613 . S
S1328 N1330 1.610 . S
N1329 S1328 1.613 . S
N1329 C1332 1.350 . S
N1330 S1328 1.610 . S
N1330 C1331 1.351 . S
C1331 C1325 1.428 . S
C1331 N1330 1.351 . S
C1331 C1332 1.434 . S
C1332 C1323 1.429 . S
C1332 N1329 1.350 . S
C1332 C1331 1.434 . S
C1333 C1334 1.369 . S
C1333 C1335 1.419 . S
C1333 H1337 0.930 . S
C1334 C1333 1.369 . S
C1334 C1343 1.429 . S
C1335 C1333 1.419 . S
C1335 C1336 1.363 . S
C1335 H1338 0.929 . S
C1336 C1335 1.363 . S
C1336 C1342 1.428 . S
H1337 C1333 0.930 . S
H1338 C1335 0.929 . S
S1339 N1340 1.613 . S
S1339 N1341 1.610 . S
N1340 S1339 1.613 . S
N1340 C1343 1.350 . S
N1341 S1339 1.610 . S
N1341 C1342 1.351 . S
C1342 C1336 1.428 . S
C1342 N1341 1.351 . S
C1342 C1343 1.434 . S
C1343 C1334 1.429 . S
C1343 N1340 1.350 . S
C1343 C1342 1.434 . S
C1344 C1345 1.369 1_565 S
C1344 C1346 1.419 . S
C1344 H1348 0.920 1_556 S
C1345 C1344 1.369 1_545 S
C1345 C1354 1.429 . S
C1346 C1344 1.419 . S
C1346 C1347 1.363 . S
C1346 H1349 0.929 . S
C1347 C1346 1.363 . S
C1347 C1353 1.428 1_565 S
H1348 C1344 0.920 1_554 S
H1349 C1346 0.929 . S
S1350 N1351 1.613 . S
S1350 N1352 1.610 . S
N1351 S1350 1.613 . S
N1351 C1354 1.350 . S
N1352 S1350 1.610 . S
N1352 C1353 1.351 . S
C1353 C1347 1.428 1_545 S
C1353 N1352 1.351 . S
C1353 C1354 1.434 . S
C1354 C1345 1.429 . S
C1354 N1351 1.350 . S
C1354 C1353 1.434 . S
C1355 C1356 1.369 . S
C1355 C1357 1.419 . S
C1355 H1359 0.930 . S
C1356 C1355 1.369 . S
C1356 C1365 1.429 . S
C1357 C1355 1.419 . S
C1357 C1358 1.363 . S
C1357 H1360 0.929 1_556 S
C1358 C1357 1.363 . S
C1358 C1364 1.428 . S
H1359 C1355 0.930 . S
H1360 C1357 0.929 1_554 S
S1361 N1362 1.613 1_655 S
S1361 N1363 1.610 . S
N1362 S1361 1.613 1_455 S
N1362 C1365 1.350 . S
N1363 S1361 1.610 . S
N1363 C1364 1.351 1_655 S
C1364 C1358 1.428 . S
C1364 N1363 1.351 1_455 S
C1364 C1365 1.434 . S
C1365 C1356 1.429 . S
C1365 N1362 1.350 . S
C1365 C1364 1.434 . S
C1366 C1367 1.369 . S
C1366 C1368 1.419 . S
C1366 H1370 0.930 . S
C1367 C1366 1.369 . S
C1367 C1376 1.429 . S
C1368 C1366 1.419 . S
C1368 C1369 1.363 . S
C1368 H1371 0.929 . S
C1369 C1368 1.363 . S
C1369 C1375 1.428 . S
H1370 C1366 0.930 . S
H1371 C1368 0.929 . S
S1372 N1373 1.613 . S
S1372 N1374 1.610 . S
N1373 S1372 1.613 . S
N1373 C1376 1.350 . S
N1374 S1372 1.610 . S
N1374 C1375 1.351 . S
C1375 C1369 1.428 . S
C1375 N1374 1.351 . S
C1375 C1376 1.434 . S
C1376 C1367 1.429 . S
C1376 N1373 1.350 . S
C1376 C1375 1.434 . S
C1377 C1378 1.369 1_565 S
C1377 C1379 1.419 . S
C1377 H1381 0.930 . S
C1378 C1377 1.369 1_545 S
C1378 C1387 1.429 . S
C1379 C1377 1.419 . S
C1379 C1380 1.363 . S
C1379 H1382 0.929 . S
C1380 C1379 1.363 . S
C1380 C1386 1.428 1_565 S
H1381 C1377 0.930 . S
H1382 C1379 0.929 . S
S1383 N1384 1.613 . S
S1383 N1385 1.610 . S
N1384 S1383 1.613 . S
N1384 C1387 1.350 . S
N1385 S1383 1.610 . S
N1385 C1386 1.351 . S
C1386 C1380 1.428 1_545 S
C1386 N1385 1.351 . S
C1386 C1387 1.434 . S
C1387 C1378 1.429 . S
C1387 N1384 1.350 . S
C1387 C1386 1.434 . S
C1388 C1389 1.369 . S
C1388 C1390 1.419 . S
C1388 H1392 0.930 . S
C1389 C1388 1.369 . S
C1389 C1398 1.429 1_545 S
C1390 C1388 1.419 . S
C1390 C1391 1.363 1_545 S
C1390 H1393 0.929 . S
C1391 C1390 1.363 1_565 S
C1391 C1397 1.428 . S
H1392 C1388 0.930 . S
H1393 C1390 0.929 . S
S1394 N1395 1.613 . S
S1394 N1396 1.610 . S
N1395 S1394 1.613 . S
N1395 C1398 1.350 . S
N1396 S1394 1.610 . S
N1396 C1397 1.351 . S
C1397 C1391 1.428 . S
C1397 N1396 1.351 . S
C1397 C1398 1.434 . S
C1398 C1389 1.429 1_565 S
C1398 N1395 1.350 . S
C1398 C1397 1.434 . S
C1399 C1400 1.369 . S
C1399 C1401 1.419 . S
C1399 H1403 0.930 1_655 S
C1400 C1399 1.369 . S
C1400 C1409 1.429 . S
C1401 C1399 1.419 . S
C1401 C1402 1.363 . S
C1401 H1404 0.929 . S
C1402 C1401 1.363 . S
C1402 C1408 1.428 . S
H1403 C1399 0.930 1_455 S
H1404 C1401 0.929 . S
S1405 N1406 1.613 . S
S1405 N1407 1.610 1_556 S
N1406 S1405 1.613 . S
N1406 C1409 1.350 1_556 S
N1407 S1405 1.610 1_554 S
N1407 C1408 1.351 . S
C1408 C1402 1.428 . S
C1408 N1407 1.351 . S
C1408 C1409 1.434 . S
C1409 C1400 1.429 . S
C1409 N1406 1.350 1_554 S
C1409 C1408 1.434 . S
C1410 C1411 1.369 . S
C1410 C1412 1.419 . S
C1410 H1414 0.930 . S
C1411 C1410 1.369 . S
C1411 C1420 1.429 . S
C1412 C1410 1.419 . S
C1412 C1413 1.363 . S
C1412 H1415 0.929 . S
C1413 C1412 1.363 . S
C1413 C1419 1.428 . S
H1414 C1410 0.930 . S
H1415 C1412 0.929 . S
S1416 N1417 1.613 . S
S1416 N1418 1.610 . S
N1417 S1416 1.613 . S
N1417 C1420 1.350 . S
N1418 S1416 1.610 . S
N1418 C1419 1.351 . S
C1419 C1413 1.428 . S
C1419 N1418 1.351 . S
C1419 C1420 1.434 . S
C1420 C1411 1.429 . S
C1420 N1417 1.350 . S
C1420 C1419 1.434 . S
C1421 C1422 1.369 . S
C1421 C1423 1.419 . S
C1421 H1425 0.930 . S
C1422 C1421 1.369 . S
C1422 C1431 1.429 1_545 S
C1423 C1421 1.419 . S
C1423 C1424 1.363 1_545 S
C1423 H1426 0.929 . S
C1424 C1423 1.363 1_565 S
C1424 C1430 1.428 . S
H1425 C1421 0.930 . S
H1426 C1423 0.929 . S
S1427 N1428 1.613 . S
S1427 N1429 1.610 . S
N1428 S1427 1.613 . S
N1428 C1431 1.350 . S
N1429 S1427 1.610 . S
N1429 C1430 1.351 . S
C1430 C1424 1.428 . S
C1430 N1429 1.351 . S
C1430 C1431 1.434 . S
C1431 C1422 1.429 1_565 S
C1431 N1428 1.350 . S
C1431 C1430 1.434 . S
C1432 C1433 1.369 . S
C1432 C1434 1.419 . S
C1432 H1436 0.930 . S
C1433 C1432 1.369 . S
C1433 C1442 1.429 . S
C1434 C1432 1.419 . S
C1434 C1435 1.363 . S
C1434 H1437 0.929 . S
C1435 C1434 1.363 . S
C1435 C1441 1.428 . S
H1436 C1432 0.930 . S
H1437 C1434 0.929 . S
S1438 N1439 1.613 . S
S1438 N1440 1.610 . S
N1439 S1438 1.613 . S
N1439 C1442 1.350 . S
N1440 S1438 1.610 . S
N1440 C1441 1.351 . S
C1441 C1435 1.428 . S
C1441 N1440 1.351 . S
C1441 C1442 1.434 . S
C1442 C1433 1.429 . S
C1442 N1439 1.350 . S
C1442 C1441 1.434 . S
C1443 C1444 1.369 . S
C1443 C1445 1.419 . S
C1443 H1447 0.930 . S
C1444 C1443 1.369 . S
C1444 C1453 1.429 . S
C1445 C1443 1.419 . S
C1445 C1446 1.363 . S
C1445 H1448 0.929 . S
C1446 C1445 1.363 . S
C1446 C1452 1.428 . S
H1447 C1443 0.930 . S
H1448 C1445 0.929 . S
S1449 N1450 1.613 . S
S1449 N1451 1.610 . S
N1450 S1449 1.613 . S
N1450 C1453 1.350 . S
N1451 S1449 1.610 . S
N1451 C1452 1.351 . S
C1452 C1446 1.428 . S
C1452 N1451 1.351 . S
C1452 C1453 1.434 . S
C1453 C1444 1.429 . S
C1453 N1450 1.350 . S
C1453 C1452 1.434 . S
C1454 C1455 1.369 . S
C1454 C1456 1.419 . S
C1454 H1458 0.930 . S
C1455 C1454 1.369 . S
C1455 C1464 1.429 . S
C1456 C1454 1.419 . S
C1456 C1457 1.363 . S
C1456 H1459 0.929 . S
C1457 C1456 1.363 . S
C1457 C1463 1.428 . S
H1458 C1454 0.930 . S
H1459 C1456 0.929 . S
S1460 N1461 1.613 . S
S1460 N1462 1.610 . S
N1461 S1460 1.613 . S
N1461 C1464 1.350 . S
N1462 S1460 1.610 . S
N1462 C1463 1.351 . S
C1463 C1457 1.428 . S
C1463 N1462 1.351 . S
C1463 C1464 1.434 . S
C1464 C1455 1.429 . S
C1464 N1461 1.350 . S
C1464 C1463 1.434 . S
C1465 C1466 1.369 . S
C1465 C1467 1.419 . S
C1465 H1469 0.930 . S
C1466 C1465 1.369 . S
C1466 C1475 1.429 . S
C1467 C1465 1.419 . S
C1467 C1468 1.363 . S
C1467 H1470 0.929 . S
C1468 C1467 1.363 . S
C1468 C1474 1.428 . S
H1469 C1465 0.930 . S
H1470 C1467 0.929 . S
S1471 N1472 1.613 . S
S1471 N1473 1.610 . S
N1472 S1471 1.613 . S
N1472 C1475 1.350 . S
N1473 S1471 1.610 . S
N1473 C1474 1.351 . S
C1474 C1468 1.428 . S
C1474 N1473 1.351 . S
C1474 C1475 1.434 . S
C1475 C1466 1.429 . S
C1475 N1472 1.350 . S
C1475 C1474 1.434 . S
C1476 C1477 1.369 . S
C1476 C1478 1.419 . S
C1476 H1480 0.930 . S
C1477 C1476 1.369 . S
C1477 C1486 1.429 . S
C1478 C1476 1.419 . S
C1478 C1479 1.363 . S
C1478 H1481 0.929 . S
C1479 C1478 1.363 . S
C1479 C1485 1.428 . S
H1480 C1476 0.930 . S
H1481 C1478 0.929 . S
S1482 N1483 1.613 . S
S1482 N1484 1.610 . S
N1483 S1482 1.613 . S
N1483 C1486 1.350 . S
N1484 S1482 1.610 . S
N1484 C1485 1.351 . S
C1485 C1479 1.428 . S
C1485 N1484 1.351 . S
C1485 C1486 1.434 . S
C1486 C1477 1.429 . S
C1486 N1483 1.350 . S
C1486 C1485 1.434 . S
C1487 C1488 1.369 . S
C1487 C1489 1.419 . S
C1487 H1491 0.930 . S
C1488 C1487 1.369 . S
C1488 C1497 1.429 . S
C1489 C1487 1.419 . S
C1489 C1490 1.363 . S
C1489 H1492 0.929 . S
C1490 C1489 1.363 . S
C1490 C1496 1.428 . S
H1491 C1487 0.930 . S
H1492 C1489 0.929 . S
S1493 N1494 1.613 1_655 S
S1493 N1495 1.610 . S
N1494 S1493 1.613 1_455 S
N1494 C1497 1.350 1_455 S
N1495 S1493 1.610 . S
N1495 C1496 1.351 . S
C1496 C1490 1.428 . S
C1496 N1495 1.351 . S
C1496 C1497 1.434 . S
C1497 C1488 1.429 . S
C1497 N1494 1.350 1_655 S
C1497 C1496 1.434 . S
C1498 C1499 1.369 . S
C1498 C1500 1.419 . S
C1498 H1502 0.930 . S
C1499 C1498 1.369 . S
C1499 C1508 1.429 . S
C1500 C1498 1.419 . S
C1500 C1501 1.363 . S
C1500 H1503 0.929 . S
C1501 C1500 1.363 . S
C1501 C1507 1.428 . S
H1502 C1498 0.930 . S
H1503 C1500 0.929 . S
S1504 N1505 1.613 . S
S1504 N1506 1.610 . S
N1505 S1504 1.613 . S
N1505 C1508 1.350 . S
N1506 S1504 1.610 . S
N1506 C1507 1.351 . S
C1507 C1501 1.428 . S
C1507 N1506 1.351 . S
C1507 C1508 1.434 . S
C1508 C1499 1.429 . S
C1508 N1505 1.350 . S
C1508 C1507 1.434 . S
C1509 C1510 1.369 . S
C1509 C1511 1.419 . S
C1509 H1513 0.930 . S
C1510 C1509 1.369 . S
C1510 C1519 1.429 . S
C1511 C1509 1.419 . S
C1511 C1512 1.363 . S
C1511 H1514 0.929 . S
C1512 C1511 1.363 . S
C1512 C1518 1.428 . S
H1513 C1509 0.930 . S
H1514 C1511 0.929 . S
S1515 N1516 1.613 . S
S1515 N1517 1.610 . S
N1516 S1515 1.613 . S
N1516 C1519 1.350 . S
N1517 S1515 1.610 . S
N1517 C1518 1.351 . S
C1518 C1512 1.428 . S
C1518 N1517 1.351 . S
C1518 C1519 1.434 . S
C1519 C1510 1.429 . S
C1519 N1516 1.350 . S
C1519 C1518 1.434 . S
C1520 C1521 1.369 1_565 S
C1520 C1522 1.419 . S
C1520 H1524 0.930 . S
C1521 C1520 1.369 1_545 S
C1521 C1530 1.429 . S
C1522 C1520 1.419 . S
C1522 C1523 1.363 . S
C1522 H1525 0.929 . S
C1523 C1522 1.363 . S
C1523 C1529 1.428 1_565 S
H1524 C1520 0.930 . S
H1525 C1522 0.929 . S
S1526 N1527 1.613 . S
S1526 N1528 1.610 . S
N1527 S1526 1.613 . S
N1527 C1530 1.350 . S
N1528 S1526 1.610 . S
N1528 C1529 1.351 . S
C1529 C1523 1.428 1_545 S
C1529 N1528 1.351 . S
C1529 C1530 1.434 . S
C1530 C1521 1.429 . S
C1530 N1527 1.350 . S
C1530 C1529 1.434 . S
C1531 C1532 1.369 . S
C1531 C1533 1.419 . S
C1531 H1535 0.930 . S
C1532 C1531 1.369 . S
C1532 C1541 1.429 . S
C1533 C1531 1.419 . S
C1533 C1534 1.363 . S
C1533 H1536 0.929 . S
C1534 C1533 1.363 . S
C1534 C1540 1.428 . S
H1535 C1531 0.930 . S
H1536 C1533 0.929 . S
S1537 N1538 1.613 . S
S1537 N1539 1.610 . S
N1538 S1537 1.613 . S
N1538 C1541 1.350 . S
N1539 S1537 1.610 . S
N1539 C1540 1.351 . S
C1540 C1534 1.428 . S
C1540 N1539 1.351 . S
C1540 C1541 1.434 . S
C1541 C1532 1.429 . S
C1541 N1538 1.350 . S
C1541 C1540 1.434 . S
C1542 C1543 1.369 . S
C1542 C1544 1.419 . S
C1542 H1546 0.930 . S
C1543 C1542 1.369 . S
C1543 C1552 1.429 . S
C1544 C1542 1.419 . S
C1544 C1545 1.363 . S
C1544 H1547 0.929 . S
C1545 C1544 1.363 . S
C1545 C1551 1.428 . S
H1546 C1542 0.930 . S
H1547 C1544 0.929 . S
S1548 N1549 1.613 . S
S1548 N1550 1.610 . S
N1549 S1548 1.613 . S
N1549 C1552 1.350 . S
N1550 S1548 1.610 . S
N1550 C1551 1.351 . S
C1551 C1545 1.428 . S
C1551 N1550 1.351 . S
C1551 C1552 1.434 . S
C1552 C1543 1.429 . S
C1552 N1549 1.350 . S
C1552 C1551 1.434 . S
C1553 C1554 1.369 1_565 S
C1553 C1555 1.419 . S
C1553 H1557 0.930 . S
C1554 C1553 1.369 1_545 S
C1554 C1563 1.429 . S
C1555 C1553 1.419 . S
C1555 C1556 1.363 . S
C1555 H1558 0.929 . S
C1556 C1555 1.363 . S
C1556 C1562 1.428 1_565 S
H1557 C1553 0.930 . S
H1558 C1555 0.929 . S
S1559 N1560 1.613 . S
S1559 N1561 1.610 . S
N1560 S1559 1.613 . S
N1560 C1563 1.350 . S
N1561 S1559 1.610 . S
N1561 C1562 1.351 . S
C1562 C1556 1.428 1_545 S
C1562 N1561 1.351 . S
C1562 C1563 1.434 . S
C1563 C1554 1.429 . S
C1563 N1560 1.350 . S
C1563 C1562 1.434 . S
C1564 C1565 1.369 1_545 S
C1564 C1566 1.419 . S
C1564 H1568 0.930 . S
C1565 C1564 1.369 1_565 S
C1565 C1574 1.429 . S
C1566 C1564 1.419 . S
C1566 C1567 1.363 . S
C1566 H1569 0.929 . S
C1567 C1566 1.363 . S
C1567 C1573 1.428 1_545 S
H1568 C1564 0.930 . S
H1569 C1566 0.929 . S
S1570 N1571 1.613 . S
S1570 N1572 1.610 . S
N1571 S1570 1.613 . S
N1571 C1574 1.350 . S
N1572 S1570 1.610 . S
N1572 C1573 1.351 . S
C1573 C1567 1.428 1_565 S
C1573 N1572 1.351 . S
C1573 C1574 1.434 . S
C1574 C1565 1.429 . S
C1574 N1571 1.350 . S
C1574 C1573 1.434 . S
C1575 C1576 1.369 . S
C1575 C1577 1.419 . S
C1575 H1579 0.930 . S
C1576 C1575 1.369 . S
C1576 C1585 1.429 . S
C1577 C1575 1.419 . S
C1577 C1578 1.363 . S
C1577 H1580 0.929 . S
C1578 C1577 1.363 . S
C1578 C1584 1.428 . S
H1579 C1575 0.930 . S
H1580 C1577 0.929 . S
S1581 N1582 1.613 . S
S1581 N1583 1.610 . S
N1582 S1581 1.613 . S
N1582 C1585 1.350 . S
N1583 S1581 1.610 . S
N1583 C1584 1.351 . S
C1584 C1578 1.428 . S
C1584 N1583 1.351 . S
C1584 C1585 1.434 . S
C1585 C1576 1.429 . S
C1585 N1582 1.350 . S
C1585 C1584 1.434 . S
C1586 C1587 1.369 . S
C1586 C1588 1.419 . S
C1586 H1590 0.930 . S
C1587 C1586 1.369 . S
C1587 C1596 1.429 . S
C1588 C1586 1.419 . S
C1588 C1589 1.363 . S
C1588 H1591 0.929 . S
C1589 C1588 1.363 . S
C1589 C1595 1.428 . S
H1590 C1586 0.930 . S
H1591 C1588 0.929 . S
S1592 N1593 1.613 . S
S1592 N1594 1.610 . S
N1593 S1592 1.613 . S
N1593 C1596 1.350 . S
N1594 S1592 1.610 . S
N1594 C1595 1.351 . S
C1595 C1589 1.428 . S
C1595 N1594 1.351 . S
C1595 C1596 1.434 . S
C1596 C1587 1.429 . S
C1596 N1593 1.350 . S
C1596 C1595 1.434 . S
C1597 C1598 1.369 1_545 S
C1597 C1599 1.419 . S
C1597 H1601 0.930 . S
C1598 C1597 1.369 1_565 S
C1598 C1607 1.429 . S
C1599 C1597 1.419 . S
C1599 C1600 1.363 . S
C1599 H1602 0.929 . S
C1600 C1599 1.363 . S
C1600 C1606 1.428 1_545 S
H1601 C1597 0.930 . S
H1602 C1599 0.929 . S
S1603 N1604 1.613 . S
S1603 N1605 1.610 . S
N1604 S1603 1.613 . S
N1604 C1607 1.350 . S
N1605 S1603 1.610 . S
N1605 C1606 1.351 . S
C1606 C1600 1.428 1_565 S
C1606 N1605 1.351 . S
C1606 C1607 1.434 . S
C1607 C1598 1.429 . S
C1607 N1604 1.350 . S
C1607 C1606 1.434 . S
C1608 C1609 1.369 . S
C1608 C1610 1.419 . S
C1608 H1612 0.930 . S
C1609 C1608 1.369 . S
C1609 C1618 1.429 . S
C1610 C1608 1.419 . S
C1610 C1611 1.363 . S
C1610 H1613 0.929 1_556 S
C1611 C1610 1.363 . S
C1611 C1617 1.428 . S
H1612 C1608 0.930 . S
H1613 C1610 0.929 1_554 S
S1614 N1615 1.613 . S
S1614 N1616 1.610 . S
N1615 S1614 1.613 . S
N1615 C1618 1.350 . S
N1616 S1614 1.610 . S
N1616 C1617 1.351 . S
C1617 C1611 1.428 . S
C1617 N1616 1.351 . S
C1617 C1618 1.434 . S
C1618 C1609 1.429 . S
C1618 N1615 1.350 . S
C1618 C1617 1.434 . S
C1619 C1620 1.369 . S
C1619 C1621 1.419 . S
C1619 H1623 0.930 . S
C1620 C1619 1.369 . S
C1620 C1629 1.429 . S
C1621 C1619 1.419 . S
C1621 C1622 1.363 . S
C1621 H1624 0.929 1_556 S
C1622 C1621 1.363 . S
C1622 C1628 1.428 . S
H1623 C1619 0.930 . S
H1624 C1621 0.929 1_554 S
S1625 N1626 1.613 . S
S1625 N1627 1.610 . S
N1626 S1625 1.613 . S
N1626 C1629 1.350 . S
N1627 S1625 1.610 . S
N1627 C1628 1.351 . S
C1628 C1622 1.428 . S
C1628 N1627 1.351 . S
C1628 C1629 1.434 . S
C1629 C1620 1.429 . S
C1629 N1626 1.350 . S
C1629 C1628 1.434 . S
C1630 C1631 1.369 . S
C1630 C1632 1.419 . S
C1630 H1634 0.930 . S
C1631 C1630 1.369 . S
C1631 C1640 1.429 . S
C1632 C1630 1.419 . S
C1632 C1633 1.363 . S
C1632 H1635 0.929 . S
C1633 C1632 1.363 . S
C1633 C1639 1.428 . S
H1634 C1630 0.930 . S
H1635 C1632 0.929 . S
S1636 N1637 1.613 . S
S1636 N1638 1.610 . S
N1637 S1636 1.613 . S
N1637 C1640 1.350 . S
N1638 S1636 1.610 . S
N1638 C1639 1.351 . S
C1639 C1633 1.428 . S
C1639 N1638 1.351 . S
C1639 C1640 1.434 . S
C1640 C1631 1.429 . S
C1640 N1637 1.350 . S
C1640 C1639 1.434 . S
C1641 C1642 1.369 . S
C1641 C1643 1.419 . S
C1641 H1645 0.930 . S
C1642 C1641 1.369 . S
C1642 C1651 1.429 . S
C1643 C1641 1.419 . S
C1643 C1644 1.363 . S
C1643 H1646 0.929 . S
C1644 C1643 1.363 . S
C1644 C1650 1.428 . S
H1645 C1641 0.930 . S
H1646 C1643 0.929 . S
S1647 N1648 1.613 . S
S1647 N1649 1.610 . S
N1648 S1647 1.613 . S
N1648 C1651 1.350 . S
N1649 S1647 1.610 . S
N1649 C1650 1.351 . S
C1650 C1644 1.428 . S
C1650 N1649 1.351 . S
C1650 C1651 1.434 . S
C1651 C1642 1.429 . S
C1651 N1648 1.350 . S
C1651 C1650 1.434 . S
C1652 C1653 1.369 . S
C1652 C1654 1.419 . S
C1652 H1656 0.930 . S
C1653 C1652 1.369 . S
C1653 C1662 1.429 . S
C1654 C1652 1.419 . S
C1654 C1655 1.363 . S
C1654 H1657 0.929 . S
C1655 C1654 1.363 . S
C1655 C1661 1.428 . S
H1656 C1652 0.930 . S
H1657 C1654 0.929 . S
S1658 N1659 1.613 . S
S1658 N1660 1.610 . S
N1659 S1658 1.613 . S
N1659 C1662 1.350 . S
N1660 S1658 1.610 . S
N1660 C1661 1.351 . S
C1661 C1655 1.428 . S
C1661 N1660 1.351 . S
C1661 C1662 1.434 . S
C1662 C1653 1.429 . S
C1662 N1659 1.350 . S
C1662 C1661 1.434 . S
C1663 C1664 1.369 . S
C1663 C1665 1.419 . S
C1663 H1667 0.930 . S
C1664 C1663 1.369 . S
C1664 C1673 1.429 . S
C1665 C1663 1.419 . S
C1665 C1666 1.363 . S
C1665 H1668 0.929 . S
C1666 C1665 1.363 . S
C1666 C1672 1.428 . S
H1667 C1663 0.930 . S
H1668 C1665 0.929 . S
S1669 N1670 1.613 1_556 S
S1669 N1671 1.610 . S
N1670 S1669 1.613 1_554 S
N1670 C1673 1.350 . S
N1671 S1669 1.610 . S
N1671 C1672 1.351 1_556 S
C1672 C1666 1.428 . S
C1672 N1671 1.351 1_554 S
C1672 C1673 1.434 . S
C1673 C1664 1.429 . S
C1673 N1670 1.350 . S
C1673 C1672 1.434 . S
C1674 C1675 1.369 . S
C1674 C1676 1.419 . S
C1674 H1678 0.930 . S
C1675 C1674 1.369 . S
C1675 C1684 1.429 . S
C1676 C1674 1.419 . S
C1676 C1677 1.363 . S
C1676 H1679 0.929 . S
C1677 C1676 1.363 . S
C1677 C1683 1.428 . S
H1678 C1674 0.930 . S
H1679 C1676 0.929 . S
S1680 N1681 1.613 . S
S1680 N1682 1.610 . S
N1681 S1680 1.613 . S
N1681 C1684 1.350 . S
N1682 S1680 1.610 . S
N1682 C1683 1.351 . S
C1683 C1677 1.428 . S
C1683 N1682 1.351 . S
C1683 C1684 1.434 . S
C1684 C1675 1.429 . S
C1684 N1681 1.350 . S
C1684 C1683 1.434 . S
C1685 C1686 1.369 . S
C1685 C1687 1.419 . S
C1685 H1689 0.930 . S
C1686 C1685 1.369 . S
C1686 C1695 1.429 . S
C1687 C1685 1.419 . S
C1687 C1688 1.363 . S
C1687 H1690 0.929 . S
C1688 C1687 1.363 . S
C1688 C1694 1.428 . S
H1689 C1685 0.930 . S
H1690 C1687 0.929 . S
S1691 N1692 1.613 . S
S1691 N1693 1.610 . S
N1692 S1691 1.613 . S
N1692 C1695 1.350 . S
N1693 S1691 1.610 . S
N1693 C1694 1.351 . S
C1694 C1688 1.428 . S
C1694 N1693 1.351 . S
C1694 C1695 1.434 . S
C1695 C1686 1.429 . S
C1695 N1692 1.350 . S
C1695 C1694 1.434 . S
C641 C519 1.677 . S
C643 C19 1.672 . S
C652 C499 1.672 . S
C654 C39 1.668 . S
C663 C559 1.673 . S
C665 C59 1.668 . S
C674 C539 1.674 . S
C676 C79 1.668 . S
C685 C98 1.667 . S
C687 C598 1.675 . S
C696 C118 1.667 . S
C698 C578 1.675 . S
C707 C138 1.675 . S
C709 C638 1.668 . S
C718 C618 1.667 . S
C720 C158 1.675 . S
C729 C359 1.667 . S
C731 C179 1.672 . S
C740 C339 1.669 . S
C742 C199 1.676 . S
C751 C399 1.667 . S
C753 C219 1.675 . S
C762 C379 1.668 . S
C764 C239 1.670 . S
C773 C258 1.668 . S
C775 C438 1.676 . S
C784 C418 1.677 . S
C786 C278 1.669 . S
C795 C298 1.666 . S
C797 C478 1.673 . S
C806 C458 1.676 . S
C808 C318 1.672 . S
C817 C9 1.377 1_565 S
C819 C412 1.373 1_545 S
C828 C272 1.374 . S
C830 C29 1.376 . S
C839 C612 1.377 . S
C841 C49 1.374 . S
C850 C69 1.376 1_565 S
C852 C152 1.374 1_545 S
C861 C92 1.372 1_545 S
C863 C329 1.377 1_565 S
C872 C112 1.373 . S
C874 C189 1.376 . S
C883 C132 1.376 . S
C885 C529 1.374 . S
C894 C572 1.375 . S
C896 C169 1.375 . S
C905 C452 1.373 . S
C907 C209 1.376 . S
C916 C312 1.377 . S
C918 C229 1.373 . S
C927 C489 1.373 . S
C929 C252 1.376 . S
C938 C292 1.373 . S
C940 C369 1.377 . S
C949 C592 1.376 . S
C951 C349 1.374 . S
C960 C389 1.374 1_565 S
C962 C472 1.375 1_545 S
C971 C509 1.375 . S
C973 C432 1.375 . S
C982 C549 1.377 . S
C984 C632 1.373 . S
C993 C12 1.613 . S
C995 C392 1.617 . S
C1004 C32 1.618 . S
C1006 C372 1.613 . S
C1015 C52 1.620 . S
C1017 C352 1.611 . S
C1026 C72 1.618 . S
C1028 C332 1.613 . S
C1037 C89 1.616 . S
C1039 C469 1.616 . S
C1048 C109 1.611 . S
C1050 C449 1.618 . S
C1059 C129 1.613 . S
C1061 C429 1.612 . S
C1070 C149 1.611 . S
C1072 C409 1.613 . S
C1081 C172 1.610 . S
C1083 C552 1.614 . S
C1092 C192 1.612 . S
C1094 C532 1.613 . S
C1103 C212 1.618 . S
C1105 C512 1.613 . S
C1114 C232 1.616 . S
C1116 C492 1.615 . S
C1125 C629 1.615 . S
C1127 C249 1.616 . S
C1136 C609 1.611 . S
C1138 C269 1.613 . S
C1147 C589 1.616 . S
C1149 C289 1.616 . S
C1158 C569 1.615 . S
C1160 C309 1.610 . S
C1169 C58 1.717 . S
C1171 C18 1.714 . S
C1180 C78 1.717 . S
C1182 C38 1.714 . S
C1191 C139 1.714 . S
C1193 C99 1.714 . S
C1202 C119 1.713 . S
C1204 C159 1.716 . S
C1213 C218 1.717 . S
C1215 C178 1.714 . S
C1224 C198 1.713 . S
C1226 C238 1.716 . S
C1235 C299 1.713 . S
C1237 C259 1.716 . S
C1246 C279 1.716 . S
C1248 C319 1.714 . S
C1257 C338 1.713 . S
C1259 C378 1.716 . S
C1268 C358 1.713 . S
C1270 C398 1.716 . S
C1279 C459 1.716 . S
C1281 C419 1.713 . S
C1290 C439 1.717 . S
C1292 C479 1.714 . S
C1301 C498 1.713 . S
C1303 C538 1.716 . S
C1312 C558 1.717 . S
C1314 C518 1.714 . S
C1323 C579 1.717 . S
C1325 C619 1.714 . S
C1334 C599 1.717 . S
C1336 C639 1.714 . S
C1345 C4 1.220 . S
C1347 C144 1.220 1_565 S
C1356 C604 1.226 . S
C1358 C24 1.220 1_455 S
C1367 C44 1.230 . S
C1369 C264 1.214 . S
C1378 C64 1.226 1_455 S
C1380 C404 1.215 1_565 S
C1389 C62 1.217 1_545 S
C1391 C82 1.223 . S
C1400 C102 1.230 1_655 S
C1402 C522 1.213 . S
C1411 C182 1.221 . S
C1413 C122 1.220 . S
C1422 C322 1.213 1_545 S
C1424 C142 1.226 1_655 S
C1433 C164 1.227 . S
C1435 C304 1.221 . S
C1444 C444 1.219 . S
C1446 C184 1.227 1_455 S
C1455 C204 1.221 . S
C1457 C104 1.224 . S
C1466 C564 1.219 . S
C1468 C224 1.227 1_455 S
C1477 C242 1.229 . S
C1479 C222 1.214 . S
C1488 C262 1.218 1_655 S
C1490 C362 1.222 . S
C1499 C282 1.225 . S
C1501 C22 1.215 . S
C1510 C482 1.214 . S
C1512 C302 1.225 1_655 S
C1521 C324 1.219 . S
C1523 C464 1.221 1_565 S
C1532 C344 1.222 . S
C1534 C284 1.223 . S
C1543 C364 1.221 . S
C1545 C584 1.219 . S
C1554 C384 1.218 . S
C1556 C84 1.223 1_565 S
C1565 C402 1.219 . S
C1567 C382 1.220 1_545 S
C1576 C202 1.221 . S
C1578 C422 1.227 . S
C1587 C502 1.212 . S
C1589 C442 1.227 . S
C1598 C462 1.229 . S
C1600 C2 1.214 1_545 S
C1609 C624 1.225 . S
C1611 C484 1.222 . S
C1620 C124 1.225 . S
C1622 C504 1.222 . S
C1631 C424 1.215 . S
C1633 C524 1.225 . S
C1642 C544 1.218 . S
C1644 C244 1.224 . S
C1653 C542 1.222 . S
C1655 C562 1.226 . S
C1664 C42 1.212 . S
C1666 C582 1.228 . S
C1675 C342 1.224 . S
C1677 C602 1.219 . S
C1686 C622 1.224 . S
C1688 C162 1.223 . S
