# Generated by pormake.
# Topology uoh, (4)-cn, num edge types: 1
# Building blocks:
#     Node 0, Type 0, BuildingBlock: KUFVIS_clean_sbu_0, # of connection points: 4
#     Node 1, Type 0, BuildingBlock: KUFVIS_clean_sbu_0, # of connection points: 4
#     Node 2, Type 0, BuildingBlock: KUFVIS_clean_sbu_0, # of connection points: 4
#     Node 3, Type 0, BuildingBlock: KUFVIS_clean_sbu_0, # of connection points: 4
#     Node 4, Type 0, BuildingBlock: KUFVIS_clean_sbu_0, # of connection points: 4
#     Node 5, Type 0, BuildingBlock: KUFVIS_clean_sbu_0, # of connection points: 4
#     Node 6, Type 0, BuildingBlock: KUFVIS_clean_sbu_0, # of connection points: 4
#     Node 7, Type 0, BuildingBlock: KUFVIS_clean_sbu_0, # of connection points: 4
#     Node 8, Type 0, BuildingBlock: KUFVIS_clean_sbu_0, # of connection points: 4
#     Node 9, Type 0, BuildingBlock: KUFVIS_clean_sbu_0, # of connection points: 4
#     Node 10, Type 0, BuildingBlock: KUFVIS_clean_sbu_0, # of connection points: 4
#     Node 11, Type 0, BuildingBlock: KUFVIS_clean_sbu_0, # of connection points: 4
#     Node 12, Type 0, BuildingBlock: KUFVIS_clean_sbu_0, # of connection points: 4
#     Node 13, Type 0, BuildingBlock: KUFVIS_clean_sbu_0, # of connection points: 4
#     Node 14, Type 0, BuildingBlock: KUFVIS_clean_sbu_0, # of connection points: 4
#     Node 15, Type 0, BuildingBlock: KUFVIS_clean_sbu_0, # of connection points: 4
#     Node 16, Type 0, BuildingBlock: KUFVIS_clean_sbu_0, # of connection points: 4
#     Node 17, Type 0, BuildingBlock: KUFVIS_clean_sbu_0, # of connection points: 4
#     Node 18, Type 0, BuildingBlock: KUFVIS_clean_sbu_0, # of connection points: 4
#     Node 19, Type 0, BuildingBlock: KUFVIS_clean_sbu_0, # of connection points: 4
#     Node 20, Type 0, BuildingBlock: KUFVIS_clean_sbu_0, # of connection points: 4
#     Node 21, Type 0, BuildingBlock: KUFVIS_clean_sbu_0, # of connection points: 4
#     Node 22, Type 0, BuildingBlock: KUFVIS_clean_sbu_0, # of connection points: 4
#     Node 23, Type 0, BuildingBlock: KUFVIS_clean_sbu_0, # of connection points: 4
#     Node 24, Type 0, BuildingBlock: KUFVIS_clean_sbu_0, # of connection points: 4
#     Node 25, Type 0, BuildingBlock: KUFVIS_clean_sbu_0, # of connection points: 4
#     Node 26, Type 0, BuildingBlock: KUFVIS_clean_sbu_0, # of connection points: 4
#     Node 27, Type 0, BuildingBlock: KUFVIS_clean_sbu_0, # of connection points: 4
#     Node 28, Type 0, BuildingBlock: KUFVIS_clean_sbu_0, # of connection points: 4
#     Node 29, Type 0, BuildingBlock: KUFVIS_clean_sbu_0, # of connection points: 4
#     Node 30, Type 0, BuildingBlock: KUFVIS_clean_sbu_0, # of connection points: 4
#     Node 31, Type 0, BuildingBlock: KUFVIS_clean_sbu_0, # of connection points: 4
#     Node 32, Type 0, BuildingBlock: KUFVIS_clean_sbu_0, # of connection points: 4
#     Node 33, Type 0, BuildingBlock: KUFVIS_clean_sbu_0, # of connection points: 4
#     Node 34, Type 0, BuildingBlock: KUFVIS_clean_sbu_0, # of connection points: 4
#     Node 35, Type 0, BuildingBlock: KUFVIS_clean_sbu_0, # of connection points: 4
#     Edge 36, Type (0, 0), BuildingBlock: CIFDUS_clean_linker_0, # of connection points: 2
#     Edge 37, Type (0, 0), BuildingBlock: CIFDUS_clean_linker_0, # of connection points: 2
#     Edge 38, Type (0, 0), BuildingBlock: CIFDUS_clean_linker_0, # of connection points: 2
#     Edge 39, Type (0, 0), BuildingBlock: CIFDUS_clean_linker_0, # of connection points: 2
#     Edge 40, Type (0, 0), BuildingBlock: CIFDUS_clean_linker_0, # of connection points: 2
#     Edge 41, Type (0, 0), BuildingBlock: CIFDUS_clean_linker_0, # of connection points: 2
#     Edge 42, Type (0, 0), BuildingBlock: CIFDUS_clean_linker_0, # of connection points: 2
#     Edge 43, Type (0, 0), BuildingBlock: CIFDUS_clean_linker_0, # of connection points: 2
#     Edge 44, Type (0, 0), BuildingBlock: CIFDUS_clean_linker_0, # of connection points: 2
#     Edge 45, Type (0, 0), BuildingBlock: CIFDUS_clean_linker_0, # of connection points: 2
#     Edge 46, Type (0, 0), BuildingBlock: CIFDUS_clean_linker_0, # of connection points: 2
#     Edge 47, Type (0, 0), BuildingBlock: CIFDUS_clean_linker_0, # of connection points: 2
#     Edge 48, Type (0, 0), BuildingBlock: CIFDUS_clean_linker_0, # of connection points: 2
#     Edge 49, Type (0, 0), BuildingBlock: CIFDUS_clean_linker_0, # of connection points: 2
#     Edge 50, Type (0, 0), BuildingBlock: CIFDUS_clean_linker_0, # of connection points: 2
#     Edge 51, Type (0, 0), BuildingBlock: CIFDUS_clean_linker_0, # of connection points: 2
#     Edge 52, Type (0, 0), BuildingBlock: CIFDUS_clean_linker_0, # of connection points: 2
#     Edge 53, Type (0, 0), BuildingBlock: CIFDUS_clean_linker_0, # of connection points: 2
#     Edge 54, Type (0, 0), BuildingBlock: CIFDUS_clean_linker_0, # of connection points: 2
#     Edge 55, Type (0, 0), BuildingBlock: CIFDUS_clean_linker_0, # of connection points: 2
#     Edge 56, Type (0, 0), BuildingBlock: CIFDUS_clean_linker_0, # of connection points: 2
#     Edge 57, Type (0, 0), BuildingBlock: CIFDUS_clean_linker_0, # of connection points: 2
#     Edge 58, Type (0, 0), BuildingBlock: CIFDUS_clean_linker_0, # of connection points: 2
#     Edge 59, Type (0, 0), BuildingBlock: CIFDUS_clean_linker_0, # of connection points: 2
#     Edge 60, Type (0, 0), BuildingBlock: CIFDUS_clean_linker_0, # of connection points: 2
#     Edge 61, Type (0, 0), BuildingBlock: CIFDUS_clean_linker_0, # of connection points: 2
#     Edge 62, Type (0, 0), BuildingBlock: CIFDUS_clean_linker_0, # of connection points: 2
#     Edge 63, Type (0, 0), BuildingBlock: CIFDUS_clean_linker_0, # of connection points: 2
#     Edge 64, Type (0, 0), BuildingBlock: CIFDUS_clean_linker_0, # of connection points: 2
#     Edge 65, Type (0, 0), BuildingBlock: CIFDUS_clean_linker_0, # of connection points: 2
#     Edge 66, Type (0, 0), BuildingBlock: CIFDUS_clean_linker_0, # of connection points: 2
#     Edge 67, Type (0, 0), BuildingBlock: CIFDUS_clean_linker_0, # of connection points: 2
#     Edge 68, Type (0, 0), BuildingBlock: CIFDUS_clean_linker_0, # of connection points: 2
#     Edge 69, Type (0, 0), BuildingBlock: CIFDUS_clean_linker_0, # of connection points: 2
#     Edge 70, Type (0, 0), BuildingBlock: CIFDUS_clean_linker_0, # of connection points: 2
#     Edge 71, Type (0, 0), BuildingBlock: CIFDUS_clean_linker_0, # of connection points: 2
#     Edge 72, Type (0, 0), BuildingBlock: CIFDUS_clean_linker_0, # of connection points: 2
#     Edge 73, Type (0, 0), BuildingBlock: CIFDUS_clean_linker_0, # of connection points: 2
#     Edge 74, Type (0, 0), BuildingBlock: CIFDUS_clean_linker_0, # of connection points: 2
#     Edge 75, Type (0, 0), BuildingBlock: CIFDUS_clean_linker_0, # of connection points: 2
#     Edge 76, Type (0, 0), BuildingBlock: CIFDUS_clean_linker_0, # of connection points: 2
#     Edge 77, Type (0, 0), BuildingBlock: CIFDUS_clean_linker_0, # of connection points: 2
#     Edge 78, Type (0, 0), BuildingBlock: CIFDUS_clean_linker_0, # of connection points: 2
#     Edge 79, Type (0, 0), BuildingBlock: CIFDUS_clean_linker_0, # of connection points: 2
#     Edge 80, Type (0, 0), BuildingBlock: CIFDUS_clean_linker_0, # of connection points: 2
#     Edge 81, Type (0, 0), BuildingBlock: CIFDUS_clean_linker_0, # of connection points: 2
#     Edge 82, Type (0, 0), BuildingBlock: CIFDUS_clean_linker_0, # of connection points: 2
#     Edge 83, Type (0, 0), BuildingBlock: CIFDUS_clean_linker_0, # of connection points: 2
#     Edge 84, Type (0, 0), BuildingBlock: CIFDUS_clean_linker_0, # of connection points: 2
#     Edge 85, Type (0, 0), BuildingBlock: CIFDUS_clean_linker_0, # of connection points: 2
#     Edge 86, Type (0, 0), BuildingBlock: CIFDUS_clean_linker_0, # of connection points: 2
#     Edge 87, Type (0, 0), BuildingBlock: CIFDUS_clean_linker_0, # of connection points: 2
#     Edge 88, Type (0, 0), BuildingBlock: CIFDUS_clean_linker_0, # of connection points: 2
#     Edge 89, Type (0, 0), BuildingBlock: CIFDUS_clean_linker_0, # of connection points: 2
#     Edge 90, Type (0, 0), BuildingBlock: CIFDUS_clean_linker_0, # of connection points: 2
#     Edge 91, Type (0, 0), BuildingBlock: CIFDUS_clean_linker_0, # of connection points: 2
#     Edge 92, Type (0, 0), BuildingBlock: CIFDUS_clean_linker_0, # of connection points: 2
#     Edge 93, Type (0, 0), BuildingBlock: CIFDUS_clean_linker_0, # of connection points: 2
#     Edge 94, Type (0, 0), BuildingBlock: CIFDUS_clean_linker_0, # of connection points: 2
#     Edge 95, Type (0, 0), BuildingBlock: CIFDUS_clean_linker_0, # of connection points: 2
#     Edge 96, Type (0, 0), BuildingBlock: CIFDUS_clean_linker_0, # of connection points: 2
#     Edge 97, Type (0, 0), BuildingBlock: CIFDUS_clean_linker_0, # of connection points: 2
#     Edge 98, Type (0, 0), BuildingBlock: CIFDUS_clean_linker_0, # of connection points: 2
#     Edge 99, Type (0, 0), BuildingBlock: CIFDUS_clean_linker_0, # of connection points: 2
#     Edge 100, Type (0, 0), BuildingBlock: CIFDUS_clean_linker_0, # of connection points: 2
#     Edge 101, Type (0, 0), BuildingBlock: CIFDUS_clean_linker_0, # of connection points: 2
#     Edge 102, Type (0, 0), BuildingBlock: CIFDUS_clean_linker_0, # of connection points: 2
#     Edge 103, Type (0, 0), BuildingBlock: CIFDUS_clean_linker_0, # of connection points: 2
#     Edge 104, Type (0, 0), BuildingBlock: CIFDUS_clean_linker_0, # of connection points: 2
#     Edge 105, Type (0, 0), BuildingBlock: CIFDUS_clean_linker_0, # of connection points: 2
#     Edge 106, Type (0, 0), BuildingBlock: CIFDUS_clean_linker_0, # of connection points: 2
#     Edge 107, Type (0, 0), BuildingBlock: CIFDUS_clean_linker_0, # of connection points: 2
# Relax obj value: 0.123
# Max RMSD: 0.189
# Mean RMSD: 0.175
data_MOF--net-uoh--node1-KUFVIS_clean_sbu_0--edge1-CIFDUS_clean_linker_0
_symmetry_space_group_name_H-M    P1
_symmetry_Int_Tables_number       1
_symmetry_cell_setting            triclinic
loop_
_symmetry_equiv_pos_as_xyz
'x, y, z'
_cell_length_a     76.089024
_cell_length_b     78.297688
_cell_length_c     23.712026
_cell_angle_alpha  89.839267
_cell_angle_beta   89.964024
_cell_angle_gamma 119.00362
loop_
_atom_site_label
_atom_site_type_symbol
_atom_site_fract_x
_atom_site_fract_y
_atom_site_fract_z
_atom_type_partial_charge
Mn0 Mn 0.2429 0.14508 0.18836 0.0
Mn1 Mn 0.19786 0.10542 0.17074 0.0
C2 C 0.23097 0.13419 0.09826 0.0
C3 C 0.27744 0.15709 0.19953 0.0
C4 C 0.2035 0.14513 0.20893 0.0
O5 O 0.23636 0.13208 0.26598 0.0
O6 O 0.20887 0.10337 0.24519 0.0
C7 C 0.21028 0.07507 0.16265 0.0
N8 N 0.20097 0.08453 0.13971 0.0
C9 C 0.19344 0.06546 0.05484 0.0
C10 C 0.20269 0.05533 0.07795 0.0
C11 C 0.21119 0.06019 0.13203 0.0
C12 C 0.19284 0.08004 0.08755 0.0
H13 H 0.21713 0.07897 0.20378 0.0
C14 C 0.22283 0.11475 0.2789 0.0
O15 O 0.26906 0.16745 0.21441 0.0
O16 O 0.26577 0.13982 0.18014 0.0
N17 N 0.18605 0.10576 0.09967 0.0
C18 C 0.17885 0.11777 0.08197 0.0
C19 C 0.17035 0.11522 0.02802 0.0
C20 C 0.16933 0.10037 0.99282 0.0
C21 C 0.17676 0.08814 0.01201 0.0
C22 C 0.18482 0.0912 0.06648 0.0
H23 H 0.17964 0.12925 0.10868 0.0
O24 O 0.24506 0.152 0.10595 0.0
O25 O 0.22448 0.12367 0.14352 0.0
O26 O 0.22256 0.15495 0.20206 0.0
O27 O 0.19342 0.12663 0.2011 0.0
C28 C 0.17691 0.07334 0.97871 0.0
C29 C 0.18527 0.06203 8e-05 0.0
H30 H 0.20359 0.04397 0.05424 0.0
H31 H 0.21855 0.05258 0.14991 0.0
H32 H 0.16471 0.12476 0.01345 0.0
H33 H 0.16301 0.09862 0.95095 0.0
H34 H 0.17091 0.07073 0.93628 0.0
H35 H 0.18558 0.0509 0.97374 0.0
Mn36 Mn 0.86002 0.09799 0.17727 0.0
Mn37 Mn 0.89905 0.0894 0.16334 0.0
C38 C 0.87302 0.09801 0.08895 0.0
C39 C 0.84928 0.12149 0.1859 0.0
C40 C 0.85637 0.05721 0.1881 0.0
O41 O 0.872 0.10324 0.25602 0.0
O42 O 0.89817 0.09756 0.24257 0.0
C43 C 0.93247 0.12961 0.17936 0.0
N44 N 0.9228 0.1134 0.1466 0.0
C45 C 0.9465 0.12869 0.07096 0.0
C46 C 0.95679 0.14548 0.10407 0.0
C47 C 0.94973 0.14593 0.1585 0.0
C48 C 0.92955 0.11276 0.0943 0.0
H49 H 0.92699 0.13012 0.22099 0.0
C50 C 0.8875 0.10248 0.27341 0.0
O51 O 0.83758 0.10336 0.2003 0.0
O52 O 0.86708 0.12584 0.16893 0.0
N53 N 0.90151 0.08188 0.08819 0.0
C54 C 0.88893 0.06525 0.05995 0.0
C55 C 0.89337 0.06283 0.00404 0.0
C56 C 0.91063 0.07756 0.97764 0.0
C57 C 0.92331 0.09458 0.00744 0.0
C58 C 0.91825 0.09608 0.06332 0.0
H59 H 0.87546 0.05404 0.07967 0.0
O60 O 0.85459 0.0945 0.09421 0.0
O61 O 0.88272 0.10051 0.13585 0.0
O62 O 0.84792 0.06797 0.18931 0.0
O63 O 0.87517 0.06405 0.17889 0.0
C64 C 0.94049 0.11031 0.98342 0.0
C65 C 0.9521 0.12735 0.01518 0.0
H66 H 0.96998 0.15819 0.08788 0.0
H67 H 0.95751 0.15889 0.18416 0.0
H68 H 0.88341 0.04973 0.98115 0.0
H69 H 0.91387 0.07574 0.93426 0.0
H70 H 0.94476 0.10958 0.94026 0.0
H71 H 0.96511 0.13945 0.99597 0.0
Mn72 Mn 0.91159 0.76331 0.16121 0.0
Mn73 Mn 0.91424 0.80728 0.14948 0.0
C74 C 0.91407 0.77666 0.07279 0.0
C75 C 0.88951 0.7297 0.16922 0.0
C76 C 0.94999 0.80184 0.18198 0.0
O77 O 0.90448 0.76822 0.23949 0.0
O78 O 0.90389 0.79644 0.22667 0.0
C79 C 0.87052 0.79341 0.15178 0.0
N80 N 0.88857 0.80318 0.12495 0.0
C81 C 0.87327 0.80931 0.0442 0.0
C82 C 0.85454 0.79948 0.07119 0.0
C83 C 0.85316 0.79149 0.1252 0.0
C84 C 0.89006 0.81087 0.07292 0.0
H85 H 0.86936 0.78703 0.19298 0.0
C86 C 0.90194 0.78216 0.25761 0.0
O87 O 0.9081 0.7371 0.18582 0.0
O88 O 0.88411 0.74179 0.14932 0.0
N89 N 0.92395 0.81969 0.07791 0.0
C90 C 0.94311 0.82858 0.05757 0.0
C91 C 0.9471 0.83735 0.00394 0.0
C92 C 0.93137 0.83694 0.97194 0.0
C93 C 0.91183 0.82803 0.99423 0.0
C94 C 0.90884 0.81982 0.04829 0.0
H95 H 0.95523 0.82883 0.08186 0.0
O96 O 0.91787 0.76237 0.08001 0.0
O97 O 0.90815 0.78212 0.11752 0.0
O98 O 0.94126 0.78314 0.17795 0.0
O99 O 0.9411 0.81194 0.17291 0.0
C100 C 0.89518 0.82676 0.96469 0.0
C101 C 0.87591 0.81736 0.98959 0.0
H102 H 0.8411 0.79785 0.05067 0.0
H103 H 0.83873 0.78376 0.14615 0.0
H104 H 0.96222 0.84426 0.98711 0.0
H105 H 0.93445 0.84348 0.93029 0.0
H106 H 0.897 0.83283 0.92262 0.0
H107 H 0.86319 0.81631 0.96625 0.0
Mn108 Mn 0.14636 0.24409 0.3366 0.0
Mn109 Mn 0.11141 0.19737 0.35817 0.0
C110 C 0.1385 0.23195 0.4272 0.0
C111 C 0.15118 0.27597 0.32551 0.0
C112 C 0.15372 0.20979 0.31361 0.0
O113 O 0.13209 0.23557 0.26169 0.0
O114 O 0.10597 0.20602 0.28404 0.0
C115 C 0.07539 0.20227 0.37014 0.0
N116 N 0.08809 0.19633 0.39201 0.0
C117 C 0.06974 0.18702 0.47956 0.0
C118 C 0.05634 0.19285 0.45775 0.0
C119 C 0.05919 0.20052 0.40282 0.0
C120 C 0.08548 0.18891 0.44481 0.0
H121 H 0.07768 0.20841 0.32822 0.0
C122 C 0.11558 0.22034 0.24994 0.0
O123 O 0.16468 0.27152 0.30786 0.0
O124 O 0.13528 0.26203 0.34818 0.0
N125 N 0.11501 0.18764 0.42896 0.0
C126 C 0.12998 0.18384 0.44496 0.0
C127 C 0.12968 0.17659 0.4994 0.0
C128 C 0.11403 0.17334 0.53681 0.0
C129 C 0.09875 0.17727 0.51932 0.0
C130 C 0.09969 0.18423 0.4643 0.0
H131 H 0.14211 0.18642 0.41654 0.0
O132 O 0.15528 0.24774 0.41723 0.0
O133 O 0.12722 0.22403 0.38369 0.0
O134 O 0.16112 0.22834 0.3192 0.0
O135 O 0.13534 0.19751 0.32487 0.0
C136 C 0.08288 0.175 0.55477 0.0
C137 C 0.06839 0.17987 0.53491 0.0
H138 H 0.04395 0.19171 0.48303 0.0
H139 H 0.04901 0.2052 0.38585 0.0
H140 H 0.14156 0.17365 0.51264 0.0
H141 H 0.114 0.168 0.57902 0.0
H142 H 0.08184 0.16978 0.59764 0.0
H143 H 0.05643 0.17833 0.56283 0.0
Mn144 Mn 0.75863 0.90504 0.32313 0.0
Mn145 Mn 0.80754 0.9181 0.32384 0.0
C146 C 0.77568 0.91231 0.40778 0.0
C147 C 0.72602 0.87829 0.32679 0.0
C148 C 0.79174 0.94554 0.28687 0.0
O149 O 0.76309 0.89656 0.24644 0.0
O150 O 0.79553 0.90369 0.25174 0.0
C151 C 0.80395 0.8788 0.33183 0.0
N152 N 0.81056 0.89696 0.35372 0.0
C153 C 0.82335 0.88878 0.43631 0.0
C154 C 0.81684 0.87005 0.41439 0.0
C155 C 0.8071 0.86505 0.36192 0.0
C156 C 0.82002 0.90196 0.40408 0.0
H157 H 0.79618 0.87478 0.29192 0.0
C158 C 0.77857 0.8965 0.22614 0.0
O159 O 0.72919 0.89502 0.30635 0.0
O160 O 0.74154 0.87739 0.34461 0.0
N161 N 0.82052 0.93168 0.3914 0.0
C162 C 0.82464 0.94986 0.40833 0.0
C163 C 0.83383 0.95689 0.4608 0.0
C164 C 0.83863 0.94513 0.49536 0.0
C165 C 0.83426 0.92648 0.47702 0.0
C166 C 0.82533 0.92036 0.42399 0.0
H167 H 0.82078 0.95887 0.38223 0.0
O168 O 0.75907 0.91303 0.40304 0.0
O169 O 0.7817 0.90754 0.362 0.0
O170 O 0.77305 0.93408 0.29733 0.0
O171 O 0.80538 0.94064 0.29426 0.0
C172 C 0.838 0.91355 0.50982 0.0
C173 C 0.83255 0.89472 0.48949 0.0
H174 H 0.81903 0.85933 0.43777 0.0
H175 H 0.80189 0.85058 0.34492 0.0
H176 H 0.83708 0.97127 0.47477 0.0
H177 H 0.84551 0.95052 0.53609 0.0
H178 H 0.84484 0.91786 0.55107 0.0
H179 H 0.83525 0.88482 0.51542 0.0
Mn180 Mn 0.10312 0.8551 0.3314 0.0
Mn181 Mn 0.09002 0.88974 0.353 0.0
C182 C 0.0972 0.86148 0.42199 0.0
C183 C 0.12991 0.84917 0.31773 0.0
C184 C 0.06148 0.84916 0.3068 0.0
O185 O 0.1086 0.86931 0.25665 0.0
O186 O 0.10471 0.89522 0.2794 0.0
C187 C 0.13056 0.92364 0.36803 0.0
N188 N 0.11175 0.91173 0.38846 0.0
C189 C 0.11981 0.92883 0.47693 0.0
C190 C 0.13921 0.9414 0.45664 0.0
C191 C 0.1446 0.93878 0.40196 0.0
C192 C 0.10642 0.91409 0.44104 0.0
H193 H 0.13485 0.92151 0.32631 0.0
C194 C 0.10951 0.8856 0.2448 0.0
O195 O 0.11196 0.83666 0.3007 0.0
O196 O 0.13216 0.8648 0.34229 0.0
N197 N 0.07592 0.88632 0.42264 0.0
C198 C 0.05686 0.87253 0.43655 0.0
C199 C 0.0492 0.87296 0.49011 0.0
C200 C 0.06118 0.88756 0.52874 0.0
C201 C 0.08067 0.90173 0.51324 0.0
C202 C 0.08737 0.90075 0.45894 0.0
H203 H 0.04761 0.86123 0.40712 0.0
O204 O 0.09755 0.84545 0.41085 0.0
O205 O 0.10115 0.8735 0.37993 0.0
O206 O 0.07295 0.84161 0.31372 0.0
O207 O 0.06683 0.86706 0.31788 0.0
C208 C 0.09381 0.91658 0.54986 0.0
C209 C 0.11339 0.93009 0.53177 0.0
H210 H 0.15014 0.953 0.48285 0.0
H211 H 0.15959 0.94833 0.38615 0.0
H212 H 0.03414 0.86198 0.50174 0.0
H213 H 0.05531 0.88768 0.57027 0.0
H214 H 0.0891 0.91761 0.59225 0.0
H215 H 0.12345 0.94129 0.56055 0.0
Mn216 Mn 0.75397 0.85145 0.81857 0.0
Mn217 Mn 0.72075 0.8157 0.73466 0.0
C218 C 0.72097 0.84546 0.81457 0.0
C219 C 0.769 0.86125 0.90746 0.0
C220 C 0.75409 0.8546 0.69057 0.0
O221 O 0.7677 0.83516 0.80067 0.0
O222 O 0.74284 0.80993 0.75375 0.0
C223 C 0.7045 0.78197 0.81291 0.0
N224 N 0.70145 0.79406 0.77774 0.0
C225 C 0.6657 0.77606 0.79275 0.0
C226 C 0.66844 0.76334 0.82894 0.0
C227 C 0.68793 0.76634 0.83912 0.0
C228 C 0.68277 0.79126 0.76739 0.0
H229 H 0.71947 0.78427 0.82087 0.0
C230 C 0.76047 0.81866 0.77556 0.0
O231 O 0.7777 0.87128 0.86233 0.0
O232 O 0.75236 0.84514 0.90019 0.0
N233 N 0.69871 0.81964 0.71348 0.0
C234 C 0.69889 0.83427 0.6818 0.0
C235 C 0.68072 0.83412 0.67029 0.0
C236 C 0.66256 0.8189 0.69121 0.0
C237 C 0.66275 0.80397 0.72356 0.0
C238 C 0.68131 0.80486 0.73347 0.0
H239 H 0.71282 0.84603 0.66583 0.0
O240 O 0.73518 0.86223 0.83144 0.0
O241 O 0.7266 0.83281 0.8001 0.0
O242 O 0.76049 0.86296 0.7381 0.0
O243 O 0.73972 0.83713 0.68555 0.0
C244 C 0.64532 0.78854 0.74762 0.0
C245 C 0.64679 0.77457 0.7821 0.0
H246 H 0.65572 0.75137 0.84964 0.0
H247 H 0.69016 0.75665 0.86721 0.0
H248 H 0.6807 0.84574 0.64552 0.0
H249 H 0.64859 0.81894 0.68269 0.0
H250 H 0.63075 0.78749 0.74074 0.0
H251 H 0.63332 0.76298 0.80117 0.0
Mn252 Mn 0.15572 0.90351 0.83661 0.0
Mn253 Mn 0.11376 0.90753 0.84339 0.0
C254 C 0.14259 0.90482 0.92348 0.0
C255 C 0.16742 0.8805 0.83134 0.0
C256 C 0.15502 0.94158 0.8123 0.0
O257 O 0.1448 0.89761 0.75707 0.0
O258 O 0.11492 0.89681 0.76791 0.0
C259 C 0.08352 0.86561 0.84199 0.0
N260 N 0.09186 0.88328 0.86806 0.0
C261 C 0.06914 0.86989 0.9467 0.0
C262 C 0.06019 0.85157 0.92046 0.0
C263 C 0.06743 0.84942 0.86791 0.0
C264 C 0.08501 0.88552 0.91861 0.0
H265 H 0.08917 0.86388 0.80184 0.0
C266 C 0.12804 0.89507 0.73808 0.0
O267 O 0.17885 0.89861 0.81604 0.0
O268 O 0.14963 0.87606 0.84823 0.0
N269 N 0.11081 0.91769 0.91398 0.0
C270 C 0.12173 0.93611 0.93479 0.0
C271 C 0.11676 0.9406 0.98773 0.0
C272 C 0.10061 0.92612 0.0186 0.0
C273 C 0.08948 0.90732 0.99607 0.0
C274 C 0.09498 0.90377 0.94281 0.0
H275 H 0.13422 0.94726 0.91135 0.0
O276 O 0.16107 0.90843 0.91939 0.0
O277 O 0.13256 0.90038 0.87664 0.0
O278 O 0.16563 0.93303 0.82023 0.0
O279 O 0.13593 0.93298 0.8193 0.0
C280 C 0.07339 0.89186 0.0248 0.0
C281 C 0.06323 0.87316 0.00015 0.0
H282 H 0.04789 0.83902 0.94053 0.0
H283 H 0.06069 0.8353 0.84757 0.0
H284 H 0.12544 0.95513 0.00488 0.0
H285 H 0.09699 0.92957 0.05973 0.0
H286 H 0.06886 0.89414 0.06618 0.0
H287 H 0.05104 0.86134 0.02295 0.0
Mn288 Mn 0.10267 0.24721 0.84016 0.0
Mn289 Mn 0.08903 0.19965 0.85427 0.0
C290 C 0.09686 0.23314 0.92862 0.0
C291 C 0.12964 0.27925 0.83438 0.0
C292 C 0.06103 0.21435 0.8099 0.0
O293 O 0.10924 0.23982 0.76421 0.0
O294 O 0.10431 0.2094 0.78245 0.0
C295 C 0.12904 0.20263 0.86903 0.0
N296 N 0.11022 0.19696 0.88906 0.0
C297 C 0.1172 0.18517 0.97541 0.0
C298 C 0.13659 0.19072 0.95548 0.0
C299 C 0.14253 0.1995 0.90207 0.0
C300 C 0.10433 0.18848 0.94037 0.0
H301 H 0.13374 0.20959 0.82831 0.0
C302 C 0.11006 0.22444 0.75062 0.0
O303 O 0.11193 0.27491 0.81522 0.0
O304 O 0.1316 0.26501 0.85525 0.0
N305 N 0.07445 0.1889 0.92287 0.0
C306 C 0.05572 0.18557 0.93739 0.0
C307 C 0.04772 0.17733 0.99026 0.0
C308 C 0.05905 0.17262 0.02765 0.0
C309 C 0.07827 0.17613 0.01171 0.0
C310 C 0.08536 0.18413 0.95818 0.0
H311 H 0.04698 0.18926 0.90898 0.0
O312 O 0.09642 0.24935 0.92116 0.0
O313 O 0.10053 0.22592 0.88397 0.0
O314 O 0.07256 0.23256 0.81946 0.0
O315 O 0.0662 0.20127 0.81941 0.0
C316 C 0.09086 0.17243 0.04738 0.0
C317 C 0.11031 0.17695 0.02925 0.0
H318 H 0.14711 0.18851 0.98106 0.0
H319 H 0.15753 0.20397 0.88657 0.0
H320 H 0.0329 0.17473 0.00233 0.0
H321 H 0.05294 0.16651 0.06869 0.0
H322 H 0.08584 0.16636 0.08915 0.0
H323 H 0.11995 0.1743 0.05737 0.0
Mn324 Mn 0.85398 0.75818 0.65887 0.0
Mn325 Mn 0.88913 0.80548 0.65287 0.0
C326 C 0.86319 0.77357 0.57228 0.0
C327 C 0.84864 0.72601 0.66179 0.0
C328 C 0.84569 0.79171 0.68761 0.0
O329 O 0.86577 0.76374 0.73744 0.0
O330 O 0.89111 0.79457 0.72781 0.0
C331 C 0.92477 0.79972 0.65021 0.0
N332 N 0.91346 0.80687 0.62586 0.0
C333 C 0.93514 0.81799 0.54455 0.0
C334 C 0.94714 0.81091 0.56899 0.0
C335 C 0.94192 0.80173 0.62205 0.0
C336 C 0.91833 0.81571 0.57481 0.0
H337 H 0.92065 0.79242 0.69064 0.0
C338 C 0.88067 0.77904 0.75699 0.0
O339 O 0.83493 0.73012 0.67973 0.0
O340 O 0.86512 0.74047 0.64344 0.0
N341 N 0.88906 0.81797 0.58346 0.0
C342 C 0.87566 0.82361 0.56531 0.0
C343 C 0.87863 0.83295 0.51274 0.0
C344 C 0.89534 0.8364 0.47952 0.0
C345 C 0.90908 0.83071 0.4995 0.0
C346 C 0.90552 0.82177 0.55262 0.0
H347 H 0.86273 0.82088 0.59055 0.0
O348 O 0.84662 0.75723 0.5778 0.0
O349 O 0.87413 0.77996 0.6176 0.0
O350 O 0.83889 0.77336 0.67931 0.0
O351 O 0.86409 0.80462 0.67937 0.0
C352 C 0.92601 0.83331 0.46848 0.0
C353 C 0.93901 0.82692 0.49093 0.0
H354 H 0.96029 0.81229 0.5472 0.0
H355 H 0.95102 0.7961 0.64101 0.0
H356 H 0.86798 0.83732 0.49765 0.0
H357 H 0.89743 0.84335 0.43866 0.0
H358 H 0.92907 0.84005 0.4271 0.0
H359 H 0.95186 0.82882 0.46644 0.0
Mn360 Mn 0.24804 0.09537 0.68999 0.0
Mn361 Mn 0.19939 0.08187 0.6704 0.0
C362 C 0.23548 0.09216 0.59938 0.0
C363 C 0.28057 0.12138 0.70233 0.0
C364 C 0.21436 0.05395 0.71061 0.0
O365 O 0.23882 0.09972 0.76658 0.0
O366 O 0.20781 0.09498 0.74526 0.0
C367 C 0.20199 0.12076 0.66211 0.0
N368 N 0.19679 0.10305 0.63892 0.0
C369 C 0.18614 0.11176 0.55309 0.0
C370 C 0.19114 0.12999 0.57637 0.0
C371 C 0.19912 0.13451 0.63109 0.0
C372 C 0.18914 0.09856 0.58623 0.0
H373 H 0.20843 0.12442 0.70377 0.0
C374 C 0.22265 0.10006 0.77918 0.0
O375 O 0.27589 0.10377 0.7184 0.0
O376 O 0.26631 0.12378 0.68087 0.0
N377 N 0.18988 0.06943 0.59892 0.0
C378 C 0.18709 0.05175 0.5812 0.0
C379 C 0.17973 0.04527 0.52667 0.0
C380 C 0.17534 0.05702 0.49091 0.0
C381 C 0.17827 0.07514 0.5101 0.0
C382 C 0.18539 0.08072 0.56514 0.0
H383 H 0.19053 0.04268 0.60834 0.0
O384 O 0.25203 0.0916 0.60808 0.0
O385 O 0.22699 0.0943 0.64411 0.0
O386 O 0.23318 0.06568 0.7047 0.0
O387 O 0.20092 0.05901 0.70129 0.0
C388 C 0.17487 0.08807 0.4763 0.0
C389 C 0.17881 0.10637 0.49776 0.0
H390 H 0.18914 0.14072 0.55236 0.0
H391 H 0.20321 0.14863 0.64915 0.0
H392 H 0.17757 0.0313 0.5121 0.0
H393 H 0.16992 0.05209 0.44861 0.0
H394 H 0.1695 0.08421 0.43344 0.0
H395 H 0.17642 0.11631 0.47108 0.0
Mn396 Mn 0.91098 0.15852 0.66607 0.0
Mn397 Mn 0.91139 0.18988 0.76374 0.0
C398 C 0.88398 0.16429 0.67279 0.0
C399 C 0.91766 0.15277 0.57414 0.0
C400 C 0.90336 0.14872 0.79096 0.0
O401 O 0.94051 0.17339 0.69016 0.0
O402 O 0.93952 0.19568 0.74841 0.0
C403 C 0.9319 0.22696 0.69961 0.0
N404 N 0.91565 0.21368 0.72934 0.0
C405 C 0.89914 0.2331 0.71976 0.0
C406 C 0.91576 0.24705 0.68935 0.0
C407 C 0.93218 0.24394 0.67916 0.0
C408 C 0.89979 0.21655 0.73956 0.0
H409 H 0.94451 0.22458 0.69154 0.0
C410 C 0.94905 0.18828 0.72251 0.0
O411 O 0.91541 0.14067 0.61475 0.0
O412 O 0.91769 0.16876 0.58811 0.0
N413 N 0.88516 0.18589 0.78212 0.0
C414 C 0.86966 0.17027 0.80793 0.0
C415 C 0.85167 0.17058 0.81871 0.0
C416 C 0.84984 0.18698 0.80321 0.0
C417 C 0.86603 0.20293 0.77704 0.0
C418 C 0.88363 0.20183 0.76758 0.0
H419 H 0.87096 0.15761 0.81975 0.0
O420 O 0.88195 0.14858 0.64901 0.0
O421 O 0.90185 0.17626 0.69182 0.0
O422 O 0.90357 0.14315 0.74057 0.0
O423 O 0.90657 0.16585 0.80359 0.0
C424 C 0.86522 0.21965 0.75856 0.0
C425 C 0.88176 0.23473 0.72999 0.0
H426 H 0.91597 0.26009 0.67311 0.0
H427 H 0.94501 0.25459 0.65546 0.0
H428 H 0.83921 0.15818 0.83873 0.0
H429 H 0.83586 0.18708 0.81108 0.0
H430 H 0.8518 0.2209 0.76521 0.0
H431 H 0.88083 0.24736 0.71517 0.0
Mn432 Mn 0.90315 0.47843 0.50039 0.0
Mn433 Mn 0.85773 0.43957 0.48042 0.0
C434 C 0.89168 0.4682 0.4098 0.0
C435 C 0.93735 0.48943 0.51297 0.0
C436 C 0.86421 0.4795 0.51922 0.0
O437 O 0.896 0.46512 0.57728 0.0
O438 O 0.86793 0.43703 0.55579 0.0
C439 C 0.86906 0.40841 0.47413 0.0
N440 N 0.86046 0.41837 0.45009 0.0
C441 C 0.85342 0.39956 0.36486 0.0
C442 C 0.86196 0.38893 0.38902 0.0
C443 C 0.86985 0.3934 0.44386 0.0
C444 C 0.85287 0.41422 0.39729 0.0
H445 H 0.87544 0.412 0.51588 0.0
C446 C 0.88198 0.448 0.58988 0.0
O447 O 0.92945 0.50022 0.52787 0.0
O448 O 0.9254 0.47239 0.4926 0.0
N449 N 0.84673 0.44039 0.40843 0.0
C450 C 0.84028 0.45289 0.38979 0.0
C451 C 0.83256 0.45082 0.33495 0.0
C452 C 0.83156 0.43596 0.29985 0.0
C453 C 0.83822 0.42323 0.32 0.0
C454 C 0.84553 0.42583 0.3753 0.0
H455 H 0.84113 0.46442 0.4164 0.0
O456 O 0.90595 0.48586 0.41849 0.0
O457 O 0.88468 0.45742 0.45451 0.0
O458 O 0.88334 0.48888 0.51388 0.0
O459 O 0.85371 0.46111 0.51011 0.0
C460 C 0.83835 0.40837 0.28692 0.0
C461 C 0.84595 0.39655 0.30932 0.0
H462 H 0.86278 0.37748 0.36559 0.0
H463 H 0.87665 0.3854 0.46259 0.0
H464 H 0.82752 0.46075 0.31963 0.0
H465 H 0.82585 0.43458 0.25731 0.0
H466 H 0.83291 0.4061 0.2439 0.0
H467 H 0.84625 0.38537 0.28318 0.0
Mn468 Mn 0.52207 0.43314 0.50475 0.0
Mn469 Mn 0.56045 0.42338 0.49363 0.0
C470 C 0.5307 0.42626 0.41786 0.0
C471 C 0.51215 0.45724 0.50563 0.0
C472 C 0.51948 0.39445 0.54127 0.0
O473 O 0.53718 0.44323 0.57788 0.0
O474 O 0.56352 0.43777 0.56555 0.0
C475 C 0.59416 0.46359 0.48007 0.0
N476 N 0.58308 0.44511 0.45983 0.0
C477 C 0.60304 0.45329 0.37519 0.0
C478 C 0.61477 0.47236 0.39533 0.0
C479 C 0.61029 0.47753 0.44798 0.0
C480 C 0.58733 0.43994 0.4094 0.0
H481 H 0.59064 0.46767 0.52025 0.0
C482 C 0.55364 0.44423 0.59398 0.0
O483 O 0.50107 0.44018 0.52864 0.0
O484 O 0.52876 0.46013 0.4825 0.0
N485 N 0.55916 0.40972 0.42561 0.0
C486 C 0.54538 0.39125 0.41031 0.0
C487 C 0.54711 0.38409 0.35756 0.0
C488 C 0.56296 0.39599 0.32113 0.0
C489 C 0.57698 0.41495 0.33784 0.0
C490 C 0.57462 0.42122 0.39117 0.0
H491 H 0.53305 0.38213 0.43795 0.0
O492 O 0.51283 0.424 0.42629 0.0
O493 O 0.54265 0.43215 0.46112 0.0
O494 O 0.51066 0.40466 0.53342 0.0
O495 O 0.53779 0.4003 0.52778 0.0
C496 C 0.59289 0.42804 0.3031 0.0
C497 C 0.60593 0.44719 0.32179 0.0
H498 H 0.62706 0.48323 0.37038 0.0
H499 H 0.61918 0.49226 0.46361 0.0
H500 H 0.53618 0.36948 0.34485 0.0
H501 H 0.56412 0.39049 0.28022 0.0
H502 H 0.59506 0.42362 0.26159 0.0
H503 H 0.6179 0.45721 0.29433 0.0
Mn504 Mn 0.57368 0.09654 0.49649 0.0
Mn505 Mn 0.58467 0.14317 0.47802 0.0
C506 C 0.57736 0.10916 0.40645 0.0
C507 C 0.54759 0.06435 0.50671 0.0
C508 C 0.61482 0.13089 0.52128 0.0
O509 O 0.56771 0.10444 0.57244 0.0
O510 O 0.57034 0.13383 0.55157 0.0
C511 C 0.54369 0.13807 0.46596 0.0
N512 N 0.5624 0.14423 0.4443 0.0
C513 C 0.55344 0.15382 0.35712 0.0
C514 C 0.53413 0.14774 0.37872 0.0
C515 C 0.52924 0.13982 0.43337 0.0
C516 C 0.56728 0.15191 0.3918 0.0
H517 H 0.53979 0.13173 0.50764 0.0
C518 C 0.5659 0.11937 0.58495 0.0
O519 O 0.56569 0.06929 0.52389 0.0
O520 O 0.54488 0.07804 0.48515 0.0
N521 N 0.59817 0.1534 0.40768 0.0
C522 C 0.61698 0.15733 0.39171 0.0
C523 C 0.624 0.16482 0.33751 0.0
C524 C 0.61161 0.16814 0.30027 0.0
C525 C 0.59234 0.16403 0.31768 0.0
C526 C 0.58625 0.15684 0.37248 0.0
H527 H 0.62652 0.15468 0.41998 0.0
O528 O 0.5789 0.09357 0.41513 0.0
O529 O 0.57401 0.11669 0.45096 0.0
O530 O 0.60398 0.11246 0.51356 0.0
O531 O 0.60855 0.14315 0.5115 0.0
C532 C 0.57874 0.16632 0.28232 0.0
C533 C 0.55931 0.16121 0.30202 0.0
H534 H 0.52288 0.14888 0.35348 0.0
H535 H 0.51433 0.13495 0.45016 0.0
H536 H 0.63886 0.16788 0.3243 0.0
H537 H 0.61698 0.17366 0.25823 0.0
H538 H 0.58298 0.17172 0.23962 0.0
H539 H 0.54889 0.16277 0.27416 0.0
Mn540 Mn 0.81226 0.58024 0.66775 0.0
Mn541 Mn 0.77611 0.53378 0.68474 0.0
C542 C 0.80528 0.56668 0.75701 0.0
C543 C 0.81807 0.61254 0.66185 0.0
C544 C 0.81785 0.54533 0.63752 0.0
O545 O 0.79772 0.57343 0.59289 0.0
O546 O 0.77118 0.54393 0.61218 0.0
C547 C 0.7417 0.54097 0.70131 0.0
N548 N 0.75355 0.53364 0.72073 0.0
C549 C 0.73571 0.5244 0.80909 0.0
C550 C 0.72319 0.53167 0.78981 0.0
C551 C 0.72621 0.54 0.73569 0.0
C552 C 0.7508 0.52562 0.77276 0.0
H553 H 0.74417 0.54764 0.66007 0.0
C554 C 0.78113 0.55862 0.57952 0.0
O555 O 0.83103 0.60783 0.64128 0.0
O556 O 0.80218 0.59864 0.68471 0.0
N557 N 0.77896 0.52231 0.75314 0.0
C558 C 0.79282 0.51665 0.76616 0.0
C559 C 0.79201 0.50818 0.81905 0.0
C560 C 0.777 0.50564 0.85798 0.0
C561 C 0.7628 0.51142 0.84342 0.0
C562 C 0.76413 0.51945 0.78971 0.0
H563 H 0.80446 0.51866 0.73653 0.0
O564 O 0.82203 0.58248 0.74708 0.0
O565 O 0.79313 0.55976 0.7144 0.0
O566 O 0.82585 0.56387 0.64499 0.0
O567 O 0.79943 0.5333 0.64924 0.0
C568 C 0.74759 0.50984 0.88045 0.0
C569 C 0.73408 0.51638 0.86335 0.0
H570 H 0.71133 0.53111 0.81639 0.0
H571 H 0.7167 0.54578 0.72068 0.0
H572 H 0.80303 0.50375 0.82997 0.0
H573 H 0.7766 0.49935 0.89902 0.0
H574 H 0.74628 0.50383 0.92241 0.0
H575 H 0.72262 0.51532 0.89246 0.0
Mn576 Mn 0.42 0.24347 0.67429 0.0
Mn577 Mn 0.46856 0.25447 0.67319 0.0
C578 C 0.4367 0.24623 0.75781 0.0
C579 C 0.38635 0.21887 0.67468 0.0
C580 C 0.45459 0.28411 0.64707 0.0
O581 O 0.42413 0.23673 0.59501 0.0
O582 O 0.45631 0.24261 0.59923 0.0
C583 C 0.46424 0.21485 0.66693 0.0
N584 N 0.47086 0.23208 0.69476 0.0
C585 C 0.48376 0.22098 0.77083 0.0
C586 C 0.47714 0.20315 0.74287 0.0
C587 C 0.46736 0.20009 0.69068 0.0
C588 C 0.48049 0.23527 0.74472 0.0
H589 H 0.45654 0.21233 0.62706 0.0
C590 C 0.43943 0.23648 0.57375 0.0
O591 O 0.39135 0.23654 0.65836 0.0
O592 O 0.4008 0.21565 0.68959 0.0
N593 N 0.48133 0.26538 0.74365 0.0
C594 C 0.4853 0.28273 0.76728 0.0
C595 C 0.49436 0.28771 0.82063 0.0
C596 C 0.49913 0.27477 0.84927 0.0
C597 C 0.49479 0.25695 0.82428 0.0
C598 C 0.48595 0.25287 0.77073 0.0
H599 H 0.48137 0.29259 0.74591 0.0
O600 O 0.42108 0.24883 0.7571 0.0
O601 O 0.44238 0.24323 0.7091 0.0
O602 O 0.43577 0.2729 0.65518 0.0
O603 O 0.46766 0.27838 0.65196 0.0
C604 C 0.49846 0.24289 0.85099 0.0
C605 C 0.49298 0.22493 0.82424 0.0
H606 H 0.47931 0.19164 0.76136 0.0
H607 H 0.46212 0.18633 0.66898 0.0
H608 H 0.49751 0.30143 0.83984 0.0
H609 H 0.50592 0.27858 0.89069 0.0
H610 H 0.50525 0.24564 0.89244 0.0
H611 H 0.49564 0.21414 0.84552 0.0
Mn612 Mn 0.76598 0.19151 0.66262 0.0
Mn613 Mn 0.76141 0.23152 0.68294 0.0
C614 C 0.76495 0.20176 0.75326 0.0
C615 C 0.78842 0.17954 0.64966 0.0
C616 C 0.72703 0.19241 0.64271 0.0
O617 O 0.77272 0.20497 0.58617 0.0
O618 O 0.77428 0.23377 0.60785 0.0
C619 C 0.80431 0.26142 0.69068 0.0
N620 N 0.78563 0.25196 0.71421 0.0
C621 C 0.79765 0.2703 0.80013 0.0
C622 C 0.81695 0.2804 0.77653 0.0
C623 C 0.82029 0.27591 0.7216 0.0
C624 C 0.78225 0.25615 0.76707 0.0
H625 H 0.80701 0.25782 0.64882 0.0
C626 C 0.77667 0.22236 0.57371 0.0
O627 O 0.7697 0.16923 0.63463 0.0
O628 O 0.79392 0.19657 0.67074 0.0
N629 N 0.74953 0.23098 0.75466 0.0
C630 C 0.73038 0.219 0.77266 0.0
C631 C 0.72473 0.22113 0.82748 0.0
C632 C 0.73882 0.23553 0.86323 0.0
C633 C 0.75842 0.24772 0.84373 0.0
C634 C 0.76312 0.24508 0.78843 0.0
H635 H 0.71951 0.20782 0.74556 0.0
O636 O 0.7609 0.18389 0.74427 0.0
O637 O 0.76925 0.21271 0.70877 0.0
O638 O 0.73598 0.18226 0.64848 0.0
O639 O 0.73561 0.21082 0.65221 0.0
C640 C 0.77361 0.26207 0.87746 0.0
C641 C 0.79321 0.27336 0.85568 0.0
H642 H 0.82937 0.29144 0.80046 0.0
H643 H 0.83519 0.28351 0.70329 0.0
H644 H 0.7096 0.21161 0.8423 0.0
H645 H 0.73448 0.23695 0.90574 0.0
H646 H 0.77046 0.26436 0.9205 0.0
H647 H 0.80483 0.28415 0.8823 0.0
Mn648 Mn 0.42444 0.18787 0.1777 0.0
Mn649 Mn 0.39561 0.1534 0.08389 0.0
C650 C 0.39058 0.1782 0.17258 0.0
C651 C 0.43852 0.19683 0.26634 0.0
C652 C 0.42402 0.1956 0.05237 0.0
O653 O 0.44191 0.17592 0.15494 0.0
O654 O 0.42068 0.15178 0.09777 0.0
C655 C 0.38493 0.11792 0.15175 0.0
N656 N 0.37918 0.12909 0.12112 0.0
C657 C 0.34421 0.10573 0.13366 0.0
C658 C 0.34976 0.09389 0.16506 0.0
C659 C 0.37021 0.10004 0.17422 0.0
C660 C 0.35955 0.1233 0.1119 0.0
H661 H 0.40064 0.12263 0.15896 0.0
C662 C 0.43761 0.1613 0.12309 0.0
O663 O 0.44648 0.20832 0.22325 0.0
O664 O 0.42335 0.17968 0.25703 0.0
N665 N 0.37097 0.1532 0.06637 0.0
C666 C 0.36815 0.16703 0.03914 0.0
C667 C 0.34852 0.16359 0.0289 0.0
C668 C 0.33202 0.14591 0.04629 0.0
C669 C 0.3353 0.13183 0.07382 0.0
C670 C 0.3552 0.13605 0.08269 0.0
H671 H 0.38079 0.18066 0.02579 0.0
O672 O 0.40313 0.19488 0.19439 0.0
O673 O 0.39823 0.16741 0.15484 0.0
O674 O 0.42991 0.20192 0.10196 0.0
O675 O 0.41161 0.1778 0.0412 0.0
C676 C 0.31961 0.11402 0.09426 0.0
C677 C 0.32406 0.10098 0.12416 0.0
H678 H 0.33845 0.08016 0.1828 0.0
H679 H 0.37461 0.09103 0.19865 0.0
H680 H 0.34612 0.17455 0.00781 0.0
H681 H 0.3169 0.14339 0.03881 0.0
H682 H 0.30407 0.11037 0.08812 0.0
H683 H 0.31188 0.08748 0.14045 0.0
Mn684 Mn 0.82221 0.2385 0.16363 0.0
Mn685 Mn 0.78461 0.24889 0.18268 0.0
C686 C 0.8128 0.24208 0.25387 0.0
C687 C 0.83137 0.21393 0.15433 0.0
C688 C 0.82631 0.2786 0.13931 0.0
O689 O 0.80799 0.23231 0.0876 0.0
O690 O 0.78068 0.2354 0.10897 0.0
C691 C 0.75053 0.20876 0.19403 0.0
N692 N 0.76196 0.22695 0.21577 0.0
C693 C 0.74265 0.21797 0.30173 0.0
C694 C 0.73053 0.1992 0.27997 0.0
C695 C 0.73452 0.19458 0.22594 0.0
C696 C 0.75831 0.23154 0.26782 0.0
H697 H 0.7537 0.20508 0.15284 0.0
C698 C 0.79096 0.23088 0.07527 0.0
O699 O 0.84301 0.23161 0.1361 0.0
O700 O 0.81438 0.21054 0.1759 0.0
N701 N 0.78673 0.26169 0.25307 0.0
C702 C 0.80056 0.28005 0.26921 0.0
C703 C 0.79902 0.2868 0.32283 0.0
C704 C 0.7833 0.27463 0.35923 0.0
C705 C 0.7692 0.25582 0.3416 0.0
C706 C 0.77135 0.24998 0.28744 0.0
H707 H 0.81271 0.28946 0.2415 0.0
O708 O 0.83042 0.2438 0.24505 0.0
O709 O 0.80167 0.23857 0.20955 0.0
O710 O 0.83478 0.26801 0.14575 0.0
O711 O 0.80766 0.27241 0.14992 0.0
C712 C 0.75337 0.2425 0.37614 0.0
C713 C 0.74012 0.22358 0.35625 0.0
H714 H 0.71827 0.18817 0.30464 0.0
H715 H 0.72534 0.18007 0.20906 0.0
H716 H 0.81 0.30131 0.33619 0.0
H717 H 0.78232 0.2798 0.40082 0.0
H718 H 0.75143 0.24656 0.41838 0.0
H719 H 0.72819 0.21337 0.38351 0.0
Mn720 Mn 0.76902 0.59029 0.17102 0.0
Mn721 Mn 0.75431 0.54231 0.17802 0.0
C722 C 0.76635 0.57581 0.25772 0.0
C723 C 0.79483 0.62234 0.15904 0.0
C724 C 0.72594 0.55851 0.15274 0.0
O725 O 0.77155 0.58296 0.09031 0.0
O726 O 0.76606 0.55207 0.10171 0.0
C727 C 0.79394 0.54394 0.17256 0.0
N728 N 0.77638 0.53865 0.20043 0.0
C729 C 0.78656 0.52559 0.27802 0.0
C730 C 0.80469 0.53074 0.24992 0.0
C731 C 0.80839 0.53997 0.19698 0.0
C732 C 0.77265 0.52975 0.25136 0.0
H733 H 0.79691 0.5512 0.13212 0.0
C734 C 0.77063 0.56727 0.07148 0.0
O735 O 0.77624 0.61734 0.14778 0.0
O736 O 0.79848 0.60862 0.17603 0.0
N737 N 0.74284 0.53124 0.24981 0.0
C738 C 0.72507 0.52811 0.27254 0.0
C739 C 0.71931 0.51941 0.32608 0.0
C740 C 0.73187 0.514 0.35561 0.0
C741 C 0.75002 0.51723 0.33117 0.0
C742 C 0.75484 0.52573 0.27739 0.0
H743 H 0.71542 0.53234 0.25018 0.0
O744 O 0.76647 0.59241 0.25422 0.0
O745 O 0.76824 0.56854 0.21031 0.0
O746 O 0.73849 0.57639 0.16198 0.0
O747 O 0.73047 0.54476 0.15552 0.0
C748 C 0.76368 0.51269 0.35849 0.0
C749 C 0.78194 0.51687 0.33195 0.0
H750 H 0.81595 0.52786 0.26883 0.0
H751 H 0.8224 0.54411 0.1752 0.0
H752 H 0.70531 0.517 0.34472 0.0
H753 H 0.7275 0.50752 0.3972 0.0
H754 H 0.7604 0.5062 0.40021 0.0
H755 H 0.79244 0.51353 0.35367 0.0
Mn756 Mn 0.52438 0.09114 0.9938 0.0
Mn757 Mn 0.55475 0.13953 0.98044 0.0
C758 C 0.53291 0.10515 0.90537 0.0
C759 C 0.52103 0.05996 0.00247 0.0
C760 C 0.51106 0.1212 0.01885 0.0
O761 O 0.53716 0.09958 0.07127 0.0
O762 O 0.56074 0.13089 0.0536 0.0
C763 C 0.59412 0.14074 0.9708 0.0
N764 N 0.57995 0.14465 0.94862 0.0
C765 C 0.59936 0.15766 0.86376 0.0
C766 C 0.61426 0.15396 0.88598 0.0
C767 C 0.61161 0.14544 0.93971 0.0
C768 C 0.58234 0.15285 0.89695 0.0
H769 H 0.59203 0.13396 0.01171 0.0
C770 C 0.55236 0.11574 0.08544 0.0
O771 O 0.50689 0.0636 0.01905 0.0
O772 O 0.53728 0.07454 0.9828 0.0
N773 N 0.55039 0.14918 0.91044 0.0
C774 C 0.53403 0.15061 0.89353 0.0
C775 C 0.534 0.1583 0.83998 0.0
C776 C 0.55076 0.16441 0.80434 0.0
C777 C 0.56744 0.16286 0.8227 0.0
C778 C 0.56672 0.15533 0.87682 0.0
H779 H 0.52105 0.14582 0.92053 0.0
O780 O 0.51708 0.08821 0.91193 0.0
O781 O 0.54296 0.11312 0.95083 0.0
O782 O 0.50656 0.10348 0.00965 0.0
O783 O 0.52881 0.13558 0.01221 0.0
C784 C 0.58454 0.16806 0.7889 0.0
C785 C 0.60049 0.16545 0.8094 0.0
H786 H 0.62767 0.15737 0.86189 0.0
H787 H 0.62296 0.14238 0.95695 0.0
H788 H 0.52104 0.15938 0.82603 0.0
H789 H 0.55056 0.17009 0.76277 0.0
H790 H 0.58546 0.1738 0.74675 0.0
H791 H 0.61342 0.16923 0.7827 0.0
Mn792 Mn 0.90807 0.42753 -1e-05 0.0
Mn793 Mn 0.86135 0.42058 0.98034 0.0
C794 C 0.89554 0.42505 0.90938 0.0
C795 C 0.94221 0.45097 0.00896 0.0
C796 C 0.87038 0.38869 0.02324 0.0
O797 O 0.90072 0.43438 0.07614 0.0
O798 O 0.87143 0.43365 0.05439 0.0
C799 C 0.87041 0.46173 0.96974 0.0
N800 N 0.86249 0.44345 0.94765 0.0
C801 C 0.85359 0.45381 0.86171 0.0
C802 C 0.86144 0.47269 0.88384 0.0
C803 C 0.86991 0.47667 0.93805 0.0
C804 C 0.85437 0.43948 0.89544 0.0
H805 H 0.87718 0.46491 0.01105 0.0
C806 C 0.88588 0.4371 0.08835 0.0
O807 O 0.93554 0.43317 0.02717 0.0
O808 O 0.92904 0.45502 0.98784 0.0
N809 N 0.85022 0.40831 0.90966 0.0
C810 C 0.84445 0.38968 0.89314 0.0
C811 C 0.83612 0.38348 0.83931 0.0
C812 C 0.83381 0.39647 0.80307 0.0
C813 C 0.83979 0.41555 0.82108 0.0
C814 C 0.84776 0.42084 0.87545 0.0
H815 H 0.84624 0.37964 0.92071 0.0
O816 O 0.91063 0.42204 0.91835 0.0
O817 O 0.88839 0.42908 0.95379 0.0
O818 O 0.88956 0.39814 0.01758 0.0
O819 O 0.85909 0.39623 0.01246 0.0
C820 C 0.83858 0.42965 0.78673 0.0
C821 C 0.84551 0.44878 0.807 0.0
H822 H 0.86124 0.4843 0.85933 0.0
H823 H 0.87617 0.49125 0.95521 0.0
H824 H 0.83161 0.36875 0.82565 0.0
H825 H 0.82763 0.3917 0.76132 0.0
H826 H 0.83263 0.42603 0.74433 0.0
H827 H 0.84478 0.45958 0.77988 0.0
Mn828 Mn 0.57328 0.483 0.00327 0.0
Mn829 Mn 0.577 0.51948 0.08588 0.0
C830 C 0.54589 0.4878 0.01262 0.0
C831 C 0.57821 0.47378 0.91397 0.0
C832 C 0.57117 0.48077 0.13135 0.0
O833 O 0.60315 0.49904 0.01759 0.0
O834 O 0.60463 0.5243 0.06634 0.0
C835 C 0.59415 0.55147 0.00184 0.0
N836 N 0.57941 0.54049 0.0395 0.0
C837 C 0.56189 0.5585 0.02048 0.0
C838 C 0.57696 0.5701 0.98173 0.0
C839 C 0.59313 0.56653 0.9723 0.0
C840 C 0.56375 0.54374 0.04874 0.0
H841 H 0.60655 0.54869 0.9944 0.0
C842 C 0.61298 0.5152 0.04342 0.0
O843 O 0.57725 0.46347 0.95819 0.0
O844 O 0.57709 0.48953 0.92246 0.0
N845 N 0.55172 0.51689 0.10894 0.0
C846 C 0.53805 0.50386 0.14594 0.0
C847 C 0.52067 0.50507 0.15891 0.0
C848 C 0.51765 0.51978 0.13424 0.0
C849 C 0.5321 0.53322 0.09706 0.0
C850 C 0.54916 0.53134 0.0859 0.0
H851 H 0.54031 0.49254 0.16502 0.0
O852 O 0.54377 0.47138 0.99392 0.0
O853 O 0.56425 0.50129 0.02349 0.0
O854 O 0.56941 0.47217 0.08422 0.0
O855 O 0.57419 0.49825 0.13601 0.0
C856 C 0.53009 0.5482 0.06982 0.0
C857 C 0.54496 0.56082 0.03152 0.0
H858 H 0.57618 0.58169 0.9587 0.0
H859 H 0.60476 0.57536 0.94226 0.0
H860 H 0.5096 0.49466 0.18772 0.0
H861 H 0.50415 0.52056 0.14397 0.0
H862 H 0.51702 0.54996 0.0774 0.0
H863 H 0.54311 0.5721 0.01024 0.0
Mn864 Mn 0.57475 0.81597 0.84233 0.0
Mn865 Mn 0.52952 0.77638 0.8236 0.0
C866 C 0.5618 0.80721 0.75223 0.0
C867 C 0.60941 0.82794 0.85056 0.0
C868 C 0.53528 0.81535 0.86841 0.0
O869 O 0.56888 0.80189 0.91821 0.0
O870 O 0.5409 0.77374 0.89682 0.0
C871 C 0.54265 0.7467 0.81007 0.0
N872 N 0.53283 0.75602 0.78955 0.0
C873 C 0.52468 0.7375 0.70355 0.0
C874 C 0.53451 0.72755 0.72404 0.0
C875 C 0.54357 0.73221 0.77749 0.0
C876 C 0.52415 0.75173 0.73807 0.0
H877 H 0.54984 0.75041 0.85082 0.0
C878 C 0.55503 0.78468 0.93062 0.0
O879 O 0.60109 0.83794 0.86923 0.0
O880 O 0.59766 0.81105 0.8289 0.0
N881 N 0.51688 0.77695 0.75434 0.0
C882 C 0.50884 0.78854 0.73966 0.0
C883 C 0.49954 0.78604 0.6869 0.0
C884 C 0.49855 0.77162 0.64989 0.0
C885 C 0.50673 0.75972 0.66618 0.0
C886 C 0.51556 0.7627 0.71961 0.0
H887 H 0.50959 0.79968 0.76786 0.0
O888 O 0.57625 0.82469 0.7621 0.0
O889 O 0.55584 0.79538 0.79515 0.0
O890 O 0.55436 0.82526 0.86193 0.0
O891 O 0.52505 0.79709 0.85726 0.0
C892 C 0.50679 0.74525 0.6311 0.0
C893 C 0.5158 0.73418 0.64972 0.0
H894 H 0.53539 0.71647 0.69885 0.0
H895 H 0.55133 0.72471 0.79339 0.0
H896 H 0.49325 0.79528 0.67465 0.0
H897 H 0.49158 0.7699 0.60896 0.0
H898 H 0.50021 0.74271 0.5894 0.0
H899 H 0.51603 0.72331 0.62202 0.0
Mn900 Mn 0.19104 0.76091 0.83898 0.0
Mn901 Mn 0.22818 0.74959 0.82122 0.0
C902 C 0.20321 0.76043 0.7501 0.0
C903 C 0.18224 0.78578 0.85093 0.0
C904 C 0.18495 0.71907 0.84682 0.0
O905 O 0.20325 0.76496 0.91697 0.0
O906 O 0.22802 0.75737 0.901 0.0
C907 C 0.26308 0.78884 0.83865 0.0
N908 N 0.25268 0.77296 0.80516 0.0
C909 C 0.27665 0.78766 0.72982 0.0
C910 C 0.2877 0.8041 0.76368 0.0
C911 C 0.28087 0.80469 0.81832 0.0
C912 C 0.25917 0.77218 0.75263 0.0
H913 H 0.25779 0.78946 0.88047 0.0
C914 C 0.21811 0.76284 0.933 0.0
O915 O 0.16985 0.76771 0.8644 0.0
O916 O 0.19965 0.7893 0.83256 0.0
N917 N 0.22994 0.74225 0.7453 0.0
C918 C 0.21665 0.72612 0.71633 0.0
C919 C 0.22082 0.72367 0.66016 0.0
C920 C 0.23855 0.73786 0.63426 0.0
C921 C 0.25196 0.75439 0.66481 0.0
C922 C 0.24713 0.75592 0.72091 0.0
H923 H 0.20282 0.71538 0.73563 0.0
O924 O 0.18525 0.75817 0.75606 0.0
O925 O 0.21293 0.76216 0.7964 0.0
O926 O 0.17749 0.73067 0.84977 0.0
O927 O 0.20348 0.72492 0.83612 0.0
C928 C 0.26965 0.76964 0.64131 0.0
C929 C 0.282 0.78624 0.67382 0.0
H930 H 0.30131 0.81645 0.74793 0.0
H931 H 0.28924 0.81739 0.84456 0.0
H932 H 0.2103 0.71098 0.63668 0.0
H933 H 0.24157 0.73605 0.59068 0.0
H934 H 0.27374 0.76887 0.59799 0.0
H935 H 0.29541 0.798 0.65501 0.0
Mn936 Mn 0.23568 0.42628 0.82502 0.0
Mn937 Mn 0.2437 0.47191 0.80391 0.0
C938 C 0.24249 0.43932 0.7351 0.0
C939 C 0.2101 0.39351 0.83148 0.0
C940 C 0.27464 0.46244 0.85685 0.0
O941 O 0.22687 0.43313 0.89826 0.0
O942 O 0.22803 0.46167 0.87539 0.0
C943 C 0.20178 0.46283 0.78224 0.0
N944 N 0.22125 0.47088 0.76484 0.0
C945 C 0.21322 0.47975 0.67508 0.0
C946 C 0.19311 0.47172 0.69223 0.0
C947 C 0.18737 0.46321 0.74604 0.0
C948 C 0.22693 0.47908 0.71315 0.0
H949 H 0.19728 0.45606 0.8233 0.0
C950 C 0.22404 0.44752 0.90957 0.0
O951 O 0.22773 0.39901 0.85351 0.0
O952 O 0.20765 0.4069 0.80693 0.0
N953 N 0.25859 0.48353 0.73639 0.0
C954 C 0.27836 0.48975 0.72532 0.0
C955 C 0.28645 0.49835 0.67285 0.0
C956 C 0.27415 0.50045 0.63237 0.0
C957 C 0.25389 0.49408 0.64491 0.0
C958 C 0.24675 0.48592 0.69825 0.0
H959 H 0.28785 0.48809 0.75618 0.0
O960 O 0.24415 0.42398 0.74669 0.0
O961 O 0.23639 0.44602 0.77633 0.0
O962 O 0.26529 0.44385 0.84945 0.0
O963 O 0.26746 0.47367 0.84284 0.0
C964 C 0.24042 0.49516 0.6062 0.0
C965 C 0.22009 0.48796 0.62123 0.0
H966 H 0.18192 0.47182 0.66423 0.0
H967 H 0.17186 0.45685 0.75942 0.0
H968 H 0.3021 0.50321 0.66347 0.0
H969 H 0.28038 0.50684 0.59167 0.0
H970 H 0.24548 0.50127 0.56449 0.0
H971 H 0.20981 0.4886 0.5908 0.0
Mn972 Mn 0.48097 0.91374 0.01557 0.0
Mn973 Mn 0.44496 0.86737 0.03592 0.0
C974 C 0.47241 0.90147 0.10584 0.0
C975 C 0.48743 0.94602 0.00467 0.0
C976 C 0.48706 0.87887 0.9917 0.0
O977 O 0.46681 0.90573 0.94029 0.0
O978 O 0.43999 0.87653 0.96208 0.0
C979 C 0.40952 0.87321 0.04793 0.0
N980 N 0.42189 0.86685 0.06974 0.0
C981 C 0.40342 0.8577 0.15712 0.0
C982 C 0.39037 0.86398 0.13538 0.0
C983 C 0.39345 0.87178 0.08056 0.0
C984 C 0.41905 0.8593 0.12241 0.0
H985 H 0.41197 0.87943 0.00609 0.0
C986 C 0.45003 0.89084 0.92829 0.0
O987 O 0.50036 0.9408 0.98718 0.0
O988 O 0.47106 0.93255 0.02694 0.0
N989 N 0.44816 0.85725 0.10653 0.0
C990 C 0.46281 0.853 0.12249 0.0
C991 C 0.46227 0.84557 0.17682 0.0
C992 C 0.44669 0.8426 0.21416 0.0
C993 C 0.43174 0.84701 0.19673 0.0
C994 C 0.43291 0.85414 0.14182 0.0
H995 H 0.47489 0.85536 0.09411 0.0
O996 O 0.48956 0.91691 0.09643 0.0
O997 O 0.46122 0.89391 0.06195 0.0
O998 O 0.49489 0.89738 0.99829 0.0
O999 O 0.46856 0.86686 0.00244 0.0
C1000 C 0.41598 0.84505 0.23213 0.0
C1001 C 0.40184 0.8504 0.21235 0.0
H1002 H 0.37808 0.86309 0.16062 0.0
H1003 H 0.38353 0.8768 0.06364 0.0
H1004 H 0.4739 0.84226 0.19002 0.0
H1005 H 0.44648 0.83712 0.25629 0.0
H1006 H 0.41476 0.8397 0.27492 0.0
H1007 H 0.38995 0.84908 0.24023 0.0
Mn1008 Mn 0.08605 0.5676 0.97865 0.0
Mn1009 Mn 0.13503 0.58049 0.98969 0.0
C1010 C 0.1004 0.57008 0.06643 0.0
C1011 C 0.05242 0.54284 0.97242 0.0
C1012 C 0.12043 0.60912 0.95739 0.0
O1013 O 0.09304 0.56193 0.90034 0.0
O1014 O 0.12557 0.56953 0.91297 0.0
C1015 C 0.13249 0.5416 0.98441 0.0
N1016 N 0.13767 0.55844 0.01295 0.0
C1017 C 0.14885 0.54727 0.0928 0.0
C1018 C 0.14374 0.52984 0.06414 0.0
C1019 C 0.13553 0.527 0.0097 0.0
C1020 C 0.14575 0.56141 0.06515 0.0
H1021 H 0.12598 0.53927 0.94279 0.0
C1022 C 0.1096 0.56326 0.88296 0.0
O1023 O 0.05798 0.5606 0.95595 0.0
O1024 O 0.06645 0.5394 0.99043 0.0
N1025 N 0.14534 0.59092 0.06267 0.0
C1026 C 0.14801 0.60788 0.08613 0.0
C1027 C 0.15536 0.61257 0.14143 0.0
C1028 C 0.15981 0.59976 0.17205 0.0
C1029 C 0.1569 0.58238 0.14703 0.0
C1030 C 0.14974 0.57858 0.09157 0.0
H1031 H 0.14438 0.61766 0.06299 0.0
O1032 O 0.08449 0.57205 0.06133 0.0
O1033 O 0.10774 0.56776 0.01948 0.0
O1034 O 0.10159 0.59735 0.9625 0.0
O1035 O 0.13387 0.60412 0.96632 0.0
C1036 C 0.16038 0.56847 0.17541 0.0
C1037 C 0.1564 0.55094 0.14828 0.0
H1038 H 0.14584 0.51845 0.08377 0.0
H1039 H 0.13144 0.51354 0.98745 0.0
H1040 H 0.15745 0.62596 0.16057 0.0
H1041 H 0.16527 0.60333 0.21491 0.0
H1042 H 0.16589 0.57099 0.21836 0.0
H1043 H 0.15889 0.54025 0.17079 0.0
Mn1044 Mn 0.43176 0.52049 0.98017 0.0
Mn1045 Mn 0.41735 0.55426 0.0022 0.0
C1046 C 0.42634 0.52733 0.0713 0.0
C1047 C 0.45878 0.51471 0.96741 0.0
C1048 C 0.38905 0.51298 0.96012 0.0
O1049 O 0.43675 0.53437 0.90449 0.0
O1050 O 0.43087 0.55915 0.92681 0.0
C1051 C 0.45768 0.58895 0.01103 0.0
N1052 N 0.43928 0.57705 0.03394 0.0
C1053 C 0.44831 0.59552 0.12011 0.0
C1054 C 0.46726 0.60812 0.09715 0.0
C1055 C 0.47197 0.60479 0.04239 0.0
C1056 C 0.43463 0.58005 0.0867 0.0
H1057 H 0.46148 0.58628 0.96932 0.0
C1058 C 0.4365 0.55013 0.89229 0.0
O1059 O 0.44085 0.50206 0.95064 0.0
O1060 O 0.46097 0.53056 0.99035 0.0
N1061 N 0.40435 0.55149 0.07348 0.0
C1062 C 0.38573 0.53752 0.09038 0.0
C1063 C 0.3788 0.53857 0.14448 0.0
C1064 C 0.39107 0.55395 0.18064 0.0
C1065 C 0.41009 0.56825 0.16216 0.0
C1066 C 0.41605 0.56663 0.10743 0.0
H1067 H 0.37629 0.52559 0.06299 0.0
O1068 O 0.42677 0.51134 0.06036 0.0
O1069 O 0.42968 0.539 0.02866 0.0
O1070 O 0.40139 0.50628 0.96367 0.0
O1071 O 0.39386 0.53073 0.97138 0.0
C1072 C 0.4235 0.58386 0.19624 0.0
C1073 C 0.44262 0.59745 0.17529 0.0
H1074 H 0.47838 0.62025 0.12138 0.0
H1075 H 0.48664 0.61434 0.02457 0.0
H1076 H 0.36411 0.52747 0.15845 0.0
H1077 H 0.38579 0.55456 0.22263 0.0
H1078 H 0.41937 0.5854 0.23889 0.0
H1079 H 0.45291 0.60923 0.20218 0.0
Mn1080 Mn 0.08024 0.50929 0.4884 0.0
Mn1081 Mn 0.04945 0.47871 0.38925 0.0
C1082 C 0.04755 0.50368 0.48213 0.0
C1083 C 0.0923 0.51429 0.58068 0.0
C1084 C 0.08257 0.52005 0.3642 0.0
O1085 O 0.09487 0.49451 0.46288 0.0
O1086 O 0.07173 0.47273 0.40342 0.0
C1087 C 0.03284 0.44118 0.45109 0.0
N1088 N 0.02991 0.45468 0.42245 0.0
C1089 C 0.99401 0.43532 0.43202 0.0
C1090 C 0.99664 0.42113 0.46127 0.0
C1091 C 0.01615 0.4241 0.47092 0.0
C1092 C 0.01121 0.45195 0.41275 0.0
H1093 H 0.04782 0.44346 0.45878 0.0
C1094 C 0.08858 0.47987 0.42954 0.0
O1095 O 0.10231 0.52669 0.54084 0.0
O1096 O 0.07647 0.49841 0.56562 0.0
N1097 N 0.02726 0.4829 0.37195 0.0
C1098 C 0.02742 0.49873 0.34743 0.0
C1099 C 0.00915 0.49858 0.33743 0.0
C1100 C 0.99093 0.48212 0.35239 0.0
C1101 C 0.99114 0.46595 0.37725 0.0
C1102 C 0.0098 0.4669 0.38595 0.0
H1103 H 0.04139 0.51145 0.33607 0.0
O1104 O 0.06122 0.51921 0.50664 0.0
O1105 O 0.05344 0.4918 0.46205 0.0
O1106 O 0.08833 0.52526 0.41482 0.0
O1107 O 0.0687 0.50303 0.35071 0.0
C1108 C 0.9736 0.44915 0.39518 0.0
C1109 C 0.97504 0.43384 0.4225 0.0
H1110 H 0.98381 0.40801 0.47707 0.0
H1111 H 0.0183 0.41327 0.49375 0.0
H1112 H 0.00912 0.51115 0.31844 0.0
H1113 H 0.97689 0.48214 0.34514 0.0
H1114 H 0.95896 0.44801 0.3891 0.0
H1115 H 0.96147 0.42114 0.43694 0.0
Mn1116 Mn 0.48451 0.57365 0.48496 0.0
Mn1117 Mn 0.44282 0.57798 0.49018 0.0
C1118 C 0.4708 0.5744 0.57171 0.0
C1119 C 0.49626 0.55088 0.47946 0.0
C1120 C 0.48444 0.61182 0.46009 0.0
O1121 O 0.47394 0.56805 0.40479 0.0
O1122 O 0.44389 0.56695 0.41493 0.0
C1123 C 0.41207 0.53622 0.48904 0.0
N1124 N 0.42066 0.55392 0.515 0.0
C1125 C 0.39815 0.54078 0.59415 0.0
C1126 C 0.38894 0.52244 0.56802 0.0
C1127 C 0.39594 0.52016 0.51525 0.0
C1128 C 0.41402 0.5563 0.56572 0.0
H1129 H 0.41757 0.53437 0.44878 0.0
C1130 C 0.45711 0.56525 0.38542 0.0
O1131 O 0.50776 0.56905 0.46485 0.0
O1132 O 0.47833 0.54625 0.49572 0.0
N1133 N 0.44007 0.58834 0.56066 0.0
C1134 C 0.45133 0.6067 0.58156 0.0
C1135 C 0.44665 0.61128 0.63476 0.0
C1136 C 0.43047 0.59695 0.66588 0.0
C1137 C 0.41904 0.57819 0.64335 0.0
C1138 C 0.42425 0.57455 0.58981 0.0
H1139 H 0.46387 0.61773 0.55799 0.0
O1140 O 0.48932 0.57811 0.56821 0.0
O1141 O 0.46116 0.57039 0.52421 0.0
O1142 O 0.49481 0.60316 0.46955 0.0
O1143 O 0.46528 0.60335 0.46579 0.0
C1144 C 0.40295 0.56285 0.67243 0.0
C1145 C 0.39251 0.54415 0.64785 0.0
H1146 H 0.37662 0.50997 0.58834 0.0
H1147 H 0.389 0.50602 0.495 0.0
H1148 H 0.45558 0.62578 0.65193 0.0
H1149 H 0.42708 0.60047 0.70722 0.0
H1150 H 0.39865 0.5652 0.71403 0.0
H1151 H 0.38033 0.53242 0.67092 0.0
Mn1152 Mn 0.43871 0.91945 0.51931 0.0
Mn1153 Mn 0.4212 0.8711 0.5321 0.0
C1154 C 0.43285 0.90528 0.60744 0.0
C1155 C 0.46651 0.95066 0.51124 0.0
C1156 C 0.39577 0.88919 0.49206 0.0
O1157 O 0.44346 0.91117 0.44217 0.0
O1158 O 0.43625 0.87998 0.45975 0.0
C1159 C 0.45945 0.87016 0.54374 0.0
N1160 N 0.4412 0.8661 0.56503 0.0
C1161 C 0.44711 0.85284 0.6501 0.0
C1162 C 0.46589 0.85671 0.62883 0.0
C1163 C 0.47209 0.86543 0.57544 0.0
C1164 C 0.43507 0.85769 0.61634 0.0
H1165 H 0.46437 0.87707 0.50303 0.0
C1166 C 0.44287 0.89516 0.42808 0.0
O1167 O 0.4488 0.94705 0.49416 0.0
O1168 O 0.46809 0.93606 0.53127 0.0
N1169 N 0.40675 0.86119 0.60136 0.0
C1170 C 0.38879 0.85956 0.61728 0.0
C1171 C 0.38072 0.85163 0.67037 0.0
C1172 C 0.39119 0.84549 0.70655 0.0
C1173 C 0.40962 0.84725 0.68919 0.0
C1174 C 0.4168 0.85503 0.6355 0.0
H1175 H 0.38071 0.86434 0.58982 0.0
O1176 O 0.43388 0.92221 0.60094 0.0
O1177 O 0.43528 0.89746 0.56215 0.0
O1178 O 0.40862 0.90694 0.50227 0.0
O1179 O 0.39937 0.87494 0.49897 0.0
C1180 C 0.42136 0.84201 0.72357 0.0
C1181 C 0.44009 0.84481 0.70405 0.0
H1182 H 0.47577 0.85326 0.65339 0.0
H1183 H 0.48662 0.8686 0.55891 0.0
H1184 H 0.36652 0.85038 0.68354 0.0
H1185 H 0.38504 0.83962 0.74776 0.0
H1186 H 0.41625 0.83607 0.76541 0.0
H1187 H 0.44911 0.84098 0.73118 0.0
Mn1188 Mn 0.1846 0.42099 0.3198 0.0
Mn1189 Mn 0.21904 0.46857 0.31494 0.0
C1190 C 0.19551 0.43632 0.23358 0.0
C1191 C 0.1798 0.38899 0.32444 0.0
C1192 C 0.17499 0.45379 0.34564 0.0
O1193 O 0.19538 0.42697 0.39948 0.0
O1194 O 0.22085 0.45786 0.39012 0.0
C1195 C 0.25599 0.46499 0.3164 0.0
N1196 N 0.24415 0.4712 0.29031 0.0
C1197 C 0.26689 0.48373 0.21147 0.0
C1198 C 0.27942 0.47763 0.23773 0.0
C1199 C 0.27393 0.46821 0.29041 0.0
C1200 C 0.24931 0.48033 0.23971 0.0
H1201 H 0.25171 0.45756 0.35661 0.0
C1202 C 0.21025 0.44232 0.41909 0.0
O1203 O 0.1656 0.39279 0.33963 0.0
O1204 O 0.19646 0.40366 0.30795 0.0
N1205 N 0.21884 0.48049 0.24451 0.0
C1206 C 0.20452 0.48441 0.22342 0.0
C1207 C 0.20738 0.49328 0.17017 0.0
C1208 C 0.22491 0.49802 0.13921 0.0
C1209 C 0.23949 0.49394 0.16195 0.0
C1210 C 0.23593 0.4853 0.21551 0.0
H1211 H 0.19094 0.48065 0.24685 0.0
O1212 O 0.17879 0.42002 0.23735 0.0
O1213 O 0.20527 0.44286 0.28055 0.0
O1214 O 0.16857 0.43556 0.33637 0.0
O1215 O 0.19341 0.46688 0.33947 0.0
C1216 C 0.25721 0.49773 0.13306 0.0
C1217 C 0.27091 0.49264 0.15781 0.0
H1218 H 0.29317 0.47991 0.21756 0.0
H1219 H 0.28346 0.46333 0.31076 0.0
H1220 H 0.19603 0.49633 0.15283 0.0
H1221 H 0.22695 0.50463 0.09785 0.0
H1222 H 0.26034 0.50433 0.09148 0.0
H1223 H 0.28435 0.4954 0.13489 0.0
Mn1224 Mn 0.57929 0.766 0.33988 0.0
Mn1225 Mn 0.5303 0.75262 0.33445 0.0
C1226 C 0.56409 0.76286 0.25329 0.0
C1227 C 0.61164 0.79309 0.34593 0.0
C1228 C 0.5461 0.72418 0.36072 0.0
O1229 O 0.57264 0.76948 0.42017 0.0
O1230 O 0.54074 0.76388 0.4109 0.0
C1231 C 0.53301 0.79156 0.34064 0.0
N1232 N 0.52718 0.77451 0.31254 0.0
C1233 C 0.51463 0.7853 0.23492 0.0
C1234 C 0.52032 0.80291 0.26328 0.0
C1235 C 0.52956 0.80605 0.31636 0.0
C1236 C 0.51822 0.77131 0.26153 0.0
H1237 H 0.54034 0.79413 0.38112 0.0
C1238 C 0.55667 0.76864 0.44004 0.0
O1239 O 0.6085 0.77568 0.35935 0.0
O1240 O 0.59616 0.7945 0.3306 0.0
N1241 N 0.51866 0.7418 0.26286 0.0
C1242 C 0.51522 0.72455 0.23961 0.0
C1243 C 0.50663 0.71947 0.18568 0.0
C1244 C 0.5017 0.73215 0.15623 0.0
C1245 C 0.5053 0.74978 0.18113 0.0
C1246 C 0.51367 0.75396 0.23526 0.0
H1247 H 0.51916 0.71484 0.26181 0.0
O1248 O 0.58093 0.76256 0.25688 0.0
O1249 O 0.55689 0.76505 0.30078 0.0
O1250 O 0.56492 0.73603 0.3535 0.0
O1251 O 0.53255 0.72934 0.35566 0.0
C1252 C 0.50133 0.76355 0.15384 0.0
C1253 C 0.50597 0.78129 0.18074 0.0
H1254 H 0.51787 0.8142 0.24444 0.0
H1255 H 0.53413 0.81965 0.33832 0.0
H1256 H 0.50398 0.70587 0.16667 0.0
H1257 H 0.49532 0.72829 0.11435 0.0
H1258 H 0.49493 0.76075 0.11188 0.0
H1259 H 0.50307 0.79186 0.15905 0.0
Mn1260 Mn 0.2444 0.81664 0.32522 0.0
Mn1261 Mn 0.24686 0.84911 0.42203 0.0
C1262 C 0.21729 0.82166 0.33673 0.0
C1263 C 0.25064 0.81081 0.23355 0.0
C1264 C 0.23805 0.8079 0.45085 0.0
O1265 O 0.27395 0.83112 0.34585 0.0
O1266 O 0.2746 0.85384 0.40487 0.0
C1267 C 0.26722 0.88478 0.35174 0.0
N1268 N 0.25136 0.87251 0.38452 0.0
C1269 C 0.23555 0.89248 0.37278 0.0
C1270 C 0.25178 0.9054 0.33918 0.0
C1271 C 0.26767 0.9015 0.32852 0.0
C1272 C 0.23595 0.87606 0.39479 0.0
H1273 H 0.27942 0.88178 0.34335 0.0
C1274 C 0.28331 0.84581 0.37804 0.0
O1275 O 0.24848 0.79868 0.274 0.0
O1276 O 0.25035 0.82666 0.24731 0.0
N1277 N 0.22146 0.84655 0.4437 0.0
C1278 C 0.20668 0.83236 0.47572 0.0
C1279 C 0.18951 0.83385 0.48931 0.0
C1280 C 0.18784 0.85004 0.47061 0.0
C1281 C 0.20344 0.86468 0.4388 0.0
C1282 C 0.22022 0.86242 0.42667 0.0
H1283 H 0.20791 0.81991 0.49035 0.0
O1284 O 0.21536 0.80626 0.31117 0.0
O1285 O 0.23544 0.83434 0.35258 0.0
O1286 O 0.2379 0.80194 0.40068 0.0
O1287 O 0.24167 0.82522 0.46305 0.0
C1288 C 0.20286 0.88126 0.41785 0.0
C1289 C 0.21888 0.89512 0.38475 0.0
H1290 H 0.25216 0.91829 0.32108 0.0
H1291 H 0.2802 0.91136 0.30242 0.0
H1292 H 0.17757 0.82253 0.51405 0.0
H1293 H 0.1745 0.85106 0.48079 0.0
H1294 H 0.19003 0.88334 0.42629 0.0
H1295 H 0.21814 0.90768 0.36828 0.0
H1296 H 0.23522 0.09224 0.87745 0.0
H1297 H 0.20658 0.12336 0.80752 0.0
H1298 H 0.20663 0.13702 0.90037 0.0
H1299 H 0.21639 0.14125 0.00128 0.0
H1300 H 0.24199 0.10748 0.07181 0.0
H1301 H 0.24173 0.09378 0.97913 0.0
C1302 C 0.22896 0.10198 0.88269 0.0
C1303 C 0.22123 0.10707 0.83578 0.0
C1304 C 0.2286 0.10936 0.93626 0.0
C1305 C 0.21273 0.11935 0.8431 0.0
C1306 C 0.21283 0.12721 0.89608 0.0
C1307 C 0.22169 0.13075 0.99606 0.0
C1308 C 0.22898 0.12514 0.04285 0.0
C1309 C 0.22097 0.12252 0.94286 0.0
C1310 C 0.23604 0.11171 0.03612 0.0
C1311 C 0.23596 0.10395 0.98324 0.0
H1312 H 0.91924 0.15681 0.89487 0.0
H1313 H 0.87645 0.10951 0.7926 0.0
H1314 H 0.86443 0.08828 0.87619 0.0
H1315 H 0.86336 0.08484 0.98076 0.0
H1316 H 0.90592 0.13313 0.08071 0.0
H1317 H 0.92102 0.15218 0.99586 0.0
C1318 C 0.90748 0.14175 0.89077 0.0
C1319 C 0.89851 0.13478 0.83807 0.0
C1320 C 0.90062 0.12983 0.93873 0.0
C1321 C 0.88354 0.11518 0.83294 0.0
C1322 C 0.87659 0.10311 0.88074 0.0
C1323 C 0.87623 0.09936 0.98349 0.0
C1324 C 0.88386 0.10743 0.03665 0.0
C1325 C 0.88459 0.11049 0.93421 0.0
C1326 C 0.90024 0.12639 0.04012 0.0
C1327 C 0.90872 0.1374 0.99165 0.0
H1328 H 0.8801 0.77067 0.02164 0.0
H1329 H 0.94337 0.79305 0.99348 0.0
H1330 H 0.93915 0.79745 0.8928 0.0
H1331 H 0.91674 0.79258 0.81133 0.0
H1332 H 0.8529 0.7664 0.83974 0.0
H1333 H 0.85792 0.76599 0.94129 0.0
C1334 C 0.89298 0.77694 0.99347 0.0
C1335 C 0.91212 0.78225 0.01481 0.0
C1336 C 0.89023 0.77848 0.93547 0.0
C1337 C 0.9286 0.78944 0.97785 0.0
C1338 C 0.92615 0.7918 0.92035 0.0
C1339 C 0.90402 0.78688 0.83996 0.0
C1340 C 0.88448 0.77937 0.81821 0.0
C1341 C 0.90695 0.78603 0.89841 0.0
C1342 C 0.86805 0.77197 0.85556 0.0
C1343 C 0.87091 0.7718 0.91362 0.0
H1344 H 0.1516 0.22243 0.5226 0.0
H1345 H 0.10675 0.23575 0.45747 0.0
H1346 H 0.09382 0.23456 0.55248 0.0
H1347 H 0.09631 0.23124 0.65431 0.0
H1348 H 0.13907 0.2153 0.72051 0.0
H1349 H 0.15176 0.21572 0.62492 0.0
C1350 C 0.13885 0.22478 0.5296 0.0
C1351 C 0.12986 0.22888 0.48376 0.0
C1352 C 0.13128 0.22373 0.58428 0.0
C1353 C 0.11356 0.23222 0.49255 0.0
C1354 C 0.10626 0.23166 0.5467 0.0
C1355 C 0.1084 0.22786 0.64755 0.0
C1356 C 0.11709 0.22362 0.69373 0.0
C1357 C 0.11516 0.22767 0.59286 0.0
C1358 C 0.13237 0.21876 0.68508 0.0
C1359 C 0.13961 0.21904 0.63066 0.0
H1360 H 0.77736 0.88031 0.4395 0.0
H1361 H 0.78262 0.93399 0.50309 0.0
H1362 H 0.77922 0.92176 0.60009 0.0
H1363 H 0.76874 0.89339 0.66467 0.0
H1364 H 0.76089 0.83902 0.59727 0.0
H1365 H 0.7717 0.85393 0.50447 0.0
C1366 C 0.77873 0.88967 0.47479 0.0
C1367 C 0.78065 0.90815 0.46447 0.0
C1368 C 0.77579 0.88216 0.52986 0.0
C1369 C 0.7815 0.91983 0.51033 0.0
C1370 C 0.77932 0.91273 0.56566 0.0
C1371 C 0.76982 0.885 0.62986 0.0
C1372 C 0.76369 0.86505 0.63758 0.0
C1373 C 0.77549 0.89354 0.57576 0.0
C1374 C 0.76515 0.8543 0.59211 0.0
C1375 C 0.77137 0.86282 0.53902 0.0
H1376 H 0.09332 0.86969 0.68504 0.0
H1377 H 0.15487 0.91336 0.65482 0.0
H1378 H 0.14984 0.90856 0.55319 0.0
H1379 H 0.12868 0.89051 0.47327 0.0
H1380 H 0.06847 0.84411 0.50266 0.0
H1381 H 0.07202 0.85131 0.60408 0.0
C1382 C 0.10554 0.87811 0.656 0.0
C1383 C 0.12446 0.8917 0.67708 0.0
C1384 C 0.10273 0.87479 0.5976 0.0
C1385 C 0.14027 0.90258 0.63935 0.0
C1386 C 0.13739 0.89992 0.58133 0.0
C1387 C 0.11625 0.88229 0.50199 0.0
C1388 C 0.09813 0.86732 0.48102 0.0
C1389 C 0.11879 0.8859 0.56006 0.0
C1390 C 0.08236 0.85607 0.51829 0.0
C1391 C 0.08445 0.8601 0.57609 0.0
H1392 H 0.80406 0.90805 0.13477 0.0
H1393 H 0.74692 0.86245 0.1951 0.0
H1394 H 0.74011 0.84644 0.10358 0.0
H1395 H 0.74891 0.84659 0.00497 0.0
H1396 H 0.80446 0.89324 0.93965 0.0
H1397 H 0.81349 0.90752 0.03427 0.0
C1398 C 0.79028 0.89448 0.12782 0.0
C1399 C 0.77598 0.88644 0.17153 0.0
C1400 C 0.78613 0.88559 0.07413 0.0
C1401 C 0.75808 0.86897 0.16197 0.0
C1402 C 0.75417 0.85979 0.10967 0.0
C1403 C 0.76316 0.85974 0.01136 0.0
C1404 C 0.776 0.86881 0.96519 0.0
C1405 C 0.76788 0.86815 0.0652 0.0
C1406 C 0.7943 0.88594 0.97444 0.0
C1407 C 0.79943 0.89414 0.02854 0.0
H1408 H 0.09875 0.86496 0.14889 0.0
H1409 H 0.13458 0.92339 0.21215 0.0
H1410 H 0.14767 0.93502 0.1168 0.0
H1411 H 0.15063 0.92774 0.01633 0.0
H1412 H 0.11319 0.86943 0.95413 0.0
H1413 H 0.09894 0.85846 0.04816 0.0
C1414 C 0.10936 0.88026 0.14166 0.0
C1415 C 0.11601 0.89327 0.18726 0.0
C1416 C 0.11652 0.88679 0.08705 0.0
C1417 C 0.12938 0.91314 0.17748 0.0
C1418 C 0.1369 0.91974 0.12314 0.0
C1419 C 0.13913 0.91274 0.02358 0.0
C1420 C 0.13262 0.89943 0.97868 0.0
C1421 C 0.13086 0.9066 0.07776 0.0
C1422 C 0.11802 0.87995 0.98815 0.0
C1423 C 0.10999 0.87367 0.04185 0.0
H1424 H 0.07348 0.22213 0.02308 0.0
H1425 H 0.13172 0.23539 0.95849 0.0
H1426 H 0.14244 0.23168 0.0525 0.0
H1427 H 0.13601 0.22671 0.15364 0.0
H1428 H 0.0774 0.21126 0.21957 0.0
H1429 H 0.06576 0.21332 0.1244 0.0
C1430 C 0.08838 0.22392 0.02993 0.0
C1431 C 0.10178 0.22878 0.98451 0.0
C1432 C 0.09432 0.22141 0.08405 0.0
C1433 C 0.12114 0.23135 0.99318 0.0
C1434 C 0.12729 0.22931 0.04677 0.0
C1435 C 0.12065 0.22366 0.1469 0.0
C1436 C 0.10762 0.21916 0.19297 0.0
C1437 C 0.11412 0.22463 0.09254 0.0
C1438 C 0.08764 0.21483 0.18426 0.0
C1439 C 0.08106 0.21612 0.13009 0.0
H1440 H 0.87506 0.79048 0.31123 0.0
H1441 H 0.92133 0.77482 0.34119 0.0
H1442 H 0.91555 0.77387 0.4427 0.0
H1443 H 0.89527 0.77441 0.52241 0.0
H1444 H 0.84633 0.78611 0.49284 0.0
H1445 H 0.85513 0.79182 0.39237 0.0
C1446 C 0.88392 0.78701 0.3402 0.0
C1447 C 0.89846 0.78255 0.31887 0.0
C1448 C 0.88 0.78579 0.39867 0.0
C1449 C 0.90983 0.77801 0.35667 0.0
C1450 C 0.9066 0.77753 0.41471 0.0
C1451 C 0.88693 0.77874 0.49404 0.0
C1452 C 0.87067 0.78055 0.51489 0.0
C1453 C 0.89146 0.78099 0.43613 0.0
C1454 C 0.85929 0.7852 0.47761 0.0
C1455 C 0.86422 0.7883 0.42022 0.0
H1456 H 0.22621 0.07168 0.50126 0.0
H1457 H 0.23794 0.12662 0.57346 0.0
H1458 H 0.23539 0.13879 0.48048 0.0
H1459 H 0.23081 0.13413 0.378 0.0
H1460 H 0.21579 0.07817 0.30644 0.0
H1461 H 0.21837 0.06594 0.39941 0.0
C1462 C 0.22798 0.08621 0.49633 0.0
C1463 C 0.232 0.09821 0.54369 0.0
C1464 C 0.226 0.09293 0.44288 0.0
C1465 C 0.23452 0.11709 0.53732 0.0
C1466 C 0.23316 0.12407 0.48425 0.0
C1467 C 0.22813 0.11928 0.38291 0.0
C1468 C 0.22348 0.10717 0.33549 0.0
C1469 C 0.22907 0.11219 0.43665 0.0
C1470 C 0.21955 0.0878 0.34238 0.0
C1471 C 0.22106 0.08081 0.39548 0.0
H1472 H 0.91309 0.11863 0.52916 0.0
H1473 H 0.91888 0.17458 0.48356 0.0
H1474 H 0.90989 0.16379 0.3867 0.0
H1475 H 0.89763 0.13767 0.31631 0.0
H1476 H 0.89365 0.08237 0.35816 0.0
H1477 H 0.90452 0.09356 0.45508 0.0
C1478 C 0.91278 0.12858 0.49776 0.0
C1479 C 0.91646 0.14732 0.51391 0.0
C1480 C 0.90753 0.12226 0.44168 0.0
C1481 C 0.91605 0.16005 0.47256 0.0
C1482 C 0.91076 0.15386 0.41708 0.0
C1483 C 0.89917 0.12812 0.34684 0.0
C1484 C 0.89449 0.10915 0.33108 0.0
C1485 C 0.90593 0.13485 0.40156 0.0
C1486 C 0.89699 0.09698 0.37005 0.0
C1487 C 0.90323 0.1034 0.42523 0.0
H1488 H 0.89675 0.42757 0.18703 0.0
H1489 H 0.87283 0.46281 0.11638 0.0
H1490 H 0.87226 0.47563 0.20999 0.0
H1491 H 0.87967 0.47756 0.31214 0.0
H1492 H 0.9009 0.4402 0.38301 0.0
H1493 H 0.90148 0.42745 0.28944 0.0
C1494 C 0.8915 0.43812 0.19224 0.0
C1495 C 0.88519 0.44452 0.14497 0.0
C1496 C 0.8907 0.44499 0.24624 0.0
C1497 C 0.87792 0.4578 0.15224 0.0
C1498 C 0.87761 0.46514 0.20567 0.0
C1499 C 0.88418 0.46647 0.30678 0.0
C1500 C 0.88991 0.45952 0.35393 0.0
C1501 C 0.8841 0.45895 0.25296 0.0
C1502 C 0.89605 0.4454 0.34703 0.0
C1503 C 0.8965 0.43822 0.29363 0.0
H1504 H 0.54491 0.44274 0.15836 0.0
H1505 H 0.59367 0.49602 0.22393 0.0
H1506 H 0.58688 0.48236 0.31878 0.0
H1507 H 0.56362 0.45803 0.38403 0.0
H1508 H 0.5144 0.40457 0.32263 0.0
H1509 H 0.52452 0.41557 0.22487 0.0
C1510 C 0.55434 0.45105 0.1933 0.0
C1511 C 0.56954 0.47042 0.18461 0.0
C1512 C 0.55003 0.44324 0.24832 0.0
C1513 C 0.58168 0.48117 0.23001 0.0
C1514 C 0.57779 0.47341 0.2842 0.0
C1515 C 0.5557 0.44836 0.34929 0.0
C1516 C 0.53874 0.43031 0.36013 0.0
C1517 C 0.56151 0.45485 0.29405 0.0
C1518 C 0.52779 0.4184 0.31487 0.0
C1519 C 0.53354 0.42472 0.2592 0.0
H1520 H 0.59889 0.1194 0.30888 0.0
H1521 H 0.54107 0.1044 0.38016 0.0
H1522 H 0.52803 0.10521 0.28667 0.0
H1523 H 0.53261 0.10851 0.18401 0.0
H1524 H 0.59098 0.12615 0.1124 0.0
H1525 H 0.60447 0.12625 0.20637 0.0
C1526 C 0.58356 0.11659 0.3036 0.0
C1527 C 0.57096 0.1121 0.35076 0.0
C1528 C 0.57628 0.11744 0.2498 0.0
C1529 C 0.55104 0.10822 0.34408 0.0
C1530 C 0.54357 0.10857 0.29077 0.0
C1531 C 0.54828 0.11243 0.18929 0.0
C1532 C 0.56077 0.11702 0.1419 0.0
C1533 C 0.55597 0.1129 0.24328 0.0
C1534 C 0.58114 0.12248 0.14869 0.0
C1535 C 0.58881 0.12248 0.20224 0.0
H1536 H 0.77594 0.57064 0.80644 0.0
H1537 H 0.82109 0.55384 0.839 0.0
H1538 H 0.81303 0.55069 0.94013 0.0
H1539 H 0.79479 0.55535 0.02005 0.0
H1540 H 0.75308 0.57661 0.987 0.0
H1541 H 0.75791 0.57533 0.88541 0.0
C1542 C 0.78365 0.56588 0.83577 0.0
C1543 C 0.79855 0.5618 0.81572 0.0
C1544 C 0.7797 0.5652 0.89374 0.0
C1545 C 0.80917 0.5565 0.85383 0.0
C1546 C 0.80466 0.55486 0.91149 0.0
C1547 C 0.78676 0.55961 0.99038 0.0
C1548 C 0.77372 0.56618 0.01056 0.0
C1549 C 0.79023 0.55957 0.93209 0.0
C1550 C 0.7634 0.57176 0.97211 0.0
C1551 C 0.76609 0.57096 0.91417 0.0
H1552 H 0.4421 0.2594 0.86614 0.0
H1553 H 0.43641 0.21193 0.76201 0.0
H1554 H 0.43493 0.19309 0.84496 0.0
H1555 H 0.43027 0.18808 0.94613 0.0
H1556 H 0.43415 0.23426 0.0528 0.0
H1557 H 0.44136 0.25565 0.97036 0.0
C1558 C 0.44106 0.24515 0.86206 0.0
C1559 C 0.43996 0.23727 0.80828 0.0
C1560 C 0.43947 0.23401 0.91033 0.0
C1561 C 0.43809 0.2186 0.80302 0.0
C1562 C 0.43692 0.20766 0.85045 0.0
C1563 C 0.43292 0.20291 0.95137 0.0
C1564 C 0.43132 0.20951 0.00496 0.0
C1565 C 0.43687 0.21494 0.90414 0.0
C1566 C 0.4352 0.22886 0.01162 0.0
C1567 C 0.43923 0.24104 0.96455 0.0
H1568 H 0.74353 0.19289 0.85075 0.0
H1569 H 0.80254 0.2286 0.78039 0.0
H1570 H 0.8161 0.24057 0.87426 0.0
H1571 H 0.81134 0.2401 0.97675 0.0
H1572 H 0.75192 0.20656 0.04714 0.0
H1573 H 0.73824 0.1946 0.95316 0.0
C1574 C 0.75927 0.20346 0.8563 0.0
C1575 C 0.77202 0.21017 0.80924 0.0
C1576 C 0.76688 0.21052 0.91032 0.0
C1577 C 0.79246 0.22362 0.81634 0.0
C1578 C 0.80022 0.23034 0.86989 0.0
C1579 C 0.79542 0.2301 0.97138 0.0
C1580 C 0.78269 0.2239 0.01862 0.0
C1581 C 0.78761 0.22376 0.91723 0.0
C1582 C 0.76201 0.21137 0.01125 0.0
C1583 C 0.75419 0.20453 0.95761 0.0
H1584 H 0.46776 0.24427 0.49255 0.0
H1585 H 0.40515 0.20671 0.53278 0.0
H1586 H 0.40032 0.18944 0.44407 0.0
H1587 H 0.41326 0.18588 0.35384 0.0
H1588 H 0.47461 0.22536 0.30673 0.0
H1589 H 0.48079 0.24081 0.39993 0.0
C1590 C 0.4531 0.23231 0.48168 0.0
C1591 C 0.43681 0.22685 0.51881 0.0
C1592 C 0.45029 0.22268 0.42984 0.0
C1593 C 0.41785 0.21137 0.50442 0.0
C1594 C 0.4151 0.20138 0.45397 0.0
C1595 C 0.42811 0.1976 0.36437 0.0
C1596 C 0.44357 0.20432 0.32416 0.0
C1597 C 0.43116 0.20699 0.41632 0.0
C1598 C 0.46258 0.21987 0.33756 0.0
C1599 C 0.46604 0.22876 0.39053 0.0
H1600 H 0.76692 0.20178 0.47705 0.0
H1601 H 0.80434 0.25955 0.54319 0.0
H1602 H 0.81941 0.271 0.44986 0.0
H1603 H 0.82272 0.26405 0.34945 0.0
H1604 H 0.78298 0.20689 0.28325 0.0
H1605 H 0.76817 0.1956 0.37652 0.0
C1606 C 0.77838 0.21688 0.47096 0.0
C1607 C 0.78475 0.22973 0.51689 0.0
C1608 C 0.78663 0.2234 0.41725 0.0
C1609 C 0.79927 0.24936 0.50836 0.0
C1610 C 0.80795 0.25589 0.45514 0.0
C1611 C 0.81074 0.24921 0.3558 0.0
C1612 C 0.8037 0.23633 0.31002 0.0
C1613 C 0.8019 0.24297 0.40935 0.0
C1614 C 0.78835 0.21706 0.31816 0.0
C1615 C 0.77994 0.2106 0.37136 0.0
H1616 H 0.80121 0.56266 0.48317 0.0
H1617 H 0.74451 0.55386 0.54785 0.0
H1618 H 0.7342 0.55749 0.45229 0.0
H1619 H 0.74285 0.56604 0.35136 0.0
H1620 H 0.79884 0.57277 0.28719 0.0
H1621 H 0.80801 0.56701 0.3814 0.0
C1622 C 0.78652 0.56134 0.47604 0.0
C1623 C 0.7737 0.55829 0.52204 0.0
C1624 C 0.78068 0.56315 0.42126 0.0
C1625 C 0.75458 0.55628 0.51275 0.0
C1626 C 0.74877 0.55845 0.4583 0.0
C1627 C 0.75686 0.56587 0.35818 0.0
C1628 C 0.77006 0.56948 0.31271 0.0
C1629 C 0.76189 0.56231 0.41241 0.0
C1630 C 0.78833 0.5696 0.32165 0.0
C1631 C 0.79361 0.56645 0.37546 0.0
H1632 H 0.58119 0.11541 0.68252 0.0
H1633 H 0.53413 0.12462 0.61327 0.0
H1634 H 0.51966 0.12165 0.70778 0.0
H1635 H 0.5192 0.1138 0.8095 0.0
H1636 H 0.5679 0.10701 0.87801 0.0
H1637 H 0.58306 0.11166 0.78453 0.0
C1638 C 0.56787 0.11693 0.68845 0.0
C1639 C 0.5585 0.11993 0.64161 0.0
C1640 C 0.55994 0.11553 0.74257 0.0
C1641 C 0.54148 0.12223 0.64919 0.0
C1642 C 0.53318 0.12044 0.703 0.0
C1643 C 0.53326 0.11365 0.80365 0.0
C1644 C 0.54263 0.11031 0.85001 0.0
C1645 C 0.54207 0.11669 0.74987 0.0
C1646 C 0.5607 0.10987 0.84259 0.0
C1647 C 0.56929 0.11243 0.78929 0.0
H1648 H 0.89432 0.46832 0.68719 0.0
H1649 H 0.86994 0.41018 0.6196 0.0
H1650 H 0.87236 0.39771 0.71239 0.0
H1651 H 0.88246 0.40367 0.81294 0.0
H1652 H 0.90383 0.46132 0.88109 0.0
H1653 H 0.90177 0.47374 0.7881 0.0
C1654 C 0.88956 0.45293 0.69283 0.0
C1655 C 0.88226 0.44025 0.64656 0.0
C1656 C 0.89056 0.44581 0.7464 0.0
C1657 C 0.87572 0.42025 0.6546 0.0
C1658 C 0.87717 0.41313 0.70757 0.0
C1659 C 0.88651 0.41888 0.80709 0.0
C1660 C 0.89303 0.43157 0.85336 0.0
C1661 C 0.88474 0.4258 0.75372 0.0
C1662 C 0.89848 0.4513 0.84581 0.0
C1663 C 0.89736 0.45841 0.79276 0.0
H1664 H 0.56643 0.43053 0.68136 0.0
H1665 H 0.55825 0.4789 0.62792 0.0
H1666 H 0.568 0.4936 0.72122 0.0
H1667 H 0.57551 0.49116 0.8191 0.0
H1668 H 0.58038 0.44141 0.87786 0.0
H1669 H 0.57555 0.42883 0.78112 0.0
C1670 C 0.56715 0.44444 0.69024 0.0
C1671 C 0.56171 0.45373 0.64831 0.0
C1672 C 0.57202 0.45242 0.74477 0.0
C1673 C 0.56236 0.47156 0.65993 0.0
C1674 C 0.5679 0.47993 0.71313 0.0
C1675 C 0.5758 0.47767 0.81091 0.0
C1676 C 0.5782 0.46717 0.85565 0.0
C1677 C 0.57226 0.47025 0.7561 0.0
C1678 C 0.57852 0.44974 0.8441 0.0
C1679 C 0.57567 0.44252 0.78888 0.0
H1680 H 0.56773 0.77974 0.70274 0.0
H1681 H 0.54682 0.82098 0.67039 0.0
H1682 H 0.54156 0.81147 0.57058 0.0
H1683 H 0.54457 0.79233 0.49158 0.0
H1684 H 0.56867 0.75353 0.52417 0.0
H1685 H 0.5707 0.76079 0.62486 0.0
C1686 C 0.56171 0.78636 0.67381 0.0
C1687 C 0.55699 0.8005 0.69364 0.0
C1688 C 0.55939 0.78127 0.61659 0.0
C1689 C 0.55006 0.80969 0.65581 0.0
C1690 C 0.54712 0.8043 0.59891 0.0
C1691 C 0.55007 0.78539 0.52099 0.0
C1692 C 0.55648 0.77244 0.50082 0.0
C1693 C 0.55191 0.7902 0.57866 0.0
C1694 C 0.5638 0.76365 0.53896 0.0
C1695 C 0.56499 0.7678 0.59641 0.0
H1696 H 0.25366 0.816 0.55464 0.0
H1697 H 0.20986 0.76913 0.45314 0.0
H1698 H 0.19592 0.74887 0.53791 0.0
H1699 H 0.19346 0.74661 0.64264 0.0
H1700 H 0.23688 0.79471 0.74154 0.0
H1701 H 0.25376 0.81238 0.65629 0.0
C1702 C 0.24129 0.8012 0.55102 0.0
C1703 C 0.23258 0.79409 0.49825 0.0
C1704 C 0.23318 0.78997 0.5996 0.0
C1705 C 0.21678 0.77485 0.49362 0.0
C1706 C 0.2087 0.76338 0.54207 0.0
C1707 C 0.20682 0.7608 0.64505 0.0
C1708 C 0.21424 0.76924 0.69788 0.0
C1709 C 0.21631 0.77109 0.59553 0.0
C1710 C 0.23129 0.78776 0.70112 0.0
C1711 C 0.24086 0.79794 0.65247 0.0
H1712 H 0.2459 0.45302 0.47221 0.0
H1713 H 0.18287 0.43246 0.50182 0.0
H1714 H 0.18789 0.43192 0.6034 0.0
H1715 H 0.2096 0.4351 0.68313 0.0
H1716 H 0.2718 0.45209 0.65468 0.0
H1717 H 0.2679 0.4562 0.55341 0.0
C1718 C 0.23337 0.44852 0.50117 0.0
C1719 C 0.21405 0.44267 0.48 0.0
C1720 C 0.23624 0.44756 0.5595 0.0
C1721 C 0.19783 0.43678 0.51748 0.0
C1722 C 0.20068 0.4365 0.57542 0.0
C1723 C 0.22234 0.44005 0.65468 0.0
C1724 C 0.24109 0.44396 0.67588 0.0
C1725 C 0.21972 0.44156 0.59679 0.0
C1726 C 0.25736 0.44952 0.63889 0.0
C1727 C 0.25509 0.45175 0.58119 0.0
H1728 H 0.48436 0.89129 0.20215 0.0
H1729 H 0.44121 0.90647 0.13425 0.0
H1730 H 0.428 0.90577 0.22861 0.0
H1731 H 0.42989 0.90245 0.33084 0.0
H1732 H 0.47094 0.88467 0.39943 0.0
H1733 H 0.48376 0.8845 0.30453 0.0
C1734 C 0.4719 0.89416 0.20839 0.0
C1735 C 0.4635 0.89866 0.16199 0.0
C1736 C 0.46416 0.89338 0.26267 0.0
C1737 C 0.44758 0.90264 0.1698 0.0
C1738 C 0.44012 0.90236 0.22358 0.0
C1739 C 0.44162 0.89852 0.32471 0.0
C1740 C 0.44979 0.89392 0.3714 0.0
C1741 C 0.44848 0.898 0.27033 0.0
C1742 C 0.46462 0.88839 0.3636 0.0
C1743 C 0.47194 0.88834 0.30957 0.0
H1744 H 0.10298 0.58326 0.17457 0.0
H1745 H 0.10145 0.53646 0.07557 0.0
H1746 H 0.09904 0.51811 0.16064 0.0
H1747 H 0.09231 0.51312 0.26143 0.0
H1748 H 0.09244 0.55871 0.3629 0.0
H1749 H 0.10062 0.57985 0.2793 0.0
C1750 C 0.10262 0.56927 0.1721 0.0
C1751 C 0.1029 0.56143 0.11904 0.0
C1752 C 0.10067 0.55845 0.22159 0.0
C1753 C 0.10196 0.54309 0.11599 0.0
C1754 C 0.10031 0.53245 0.16462 0.0
C1755 C 0.09452 0.52784 0.26536 0.0
C1756 C 0.09156 0.53431 0.31778 0.0
C1757 C 0.09896 0.53968 0.21737 0.0
C1758 C 0.09468 0.55346 0.32277 0.0
C1759 C 0.09919 0.56546 0.27493 0.0
H1760 H 0.45741 0.55764 0.1209 0.0
H1761 H 0.39852 0.50946 0.15397 0.0
H1762 H 0.40207 0.51775 0.25464 0.0
H1763 H 0.42289 0.53795 0.33405 0.0
H1764 H 0.48327 0.58371 0.3007 0.0
H1765 H 0.47823 0.5774 0.19952 0.0
C1766 C 0.44526 0.54923 0.15022 0.0
C1767 C 0.42746 0.53345 0.13034 0.0
C1768 C 0.4478 0.55359 0.208 0.0
C1769 C 0.41213 0.52201 0.1686 0.0
C1770 C 0.41421 0.52669 0.22601 0.0
C1771 C 0.43485 0.54653 0.30443 0.0
C1772 C 0.45344 0.5612 0.32456 0.0
C1773 C 0.43209 0.54233 0.24635 0.0
C1774 C 0.46892 0.57218 0.28603 0.0
C1775 C 0.46604 0.56862 0.22825 0.0
H1776 H 0.08494 0.52803 0.83839 0.0
H1777 H 0.13635 0.58361 0.79996 0.0
H1778 H 0.13698 0.57288 0.70313 0.0
H1779 H 0.12134 0.54818 0.62793 0.0
H1780 H 0.07111 0.49189 0.66979 0.0
H1781 H 0.07192 0.50218 0.76685 0.0
C1782 C 0.09625 0.53773 0.80864 0.0
C1783 C 0.11032 0.55665 0.8254 0.0
C1784 C 0.09686 0.53126 0.75387 0.0
C1785 C 0.12526 0.56902 0.78736 0.0
C1786 C 0.12564 0.56287 0.7322 0.0
C1787 C 0.11086 0.53804 0.65857 0.0
C1788 C 0.09607 0.51936 0.64127 0.0
C1789 C 0.11135 0.54407 0.71475 0.0
C1790 C 0.08263 0.50639 0.68168 0.0
C1791 C 0.08296 0.51229 0.73727 0.0
H1792 H 0.42679 0.53048 0.79372 0.0
H1793 H 0.46081 0.58829 0.86292 0.0
H1794 H 0.47402 0.60139 0.76892 0.0
H1795 H 0.47765 0.59579 0.66755 0.0
H1796 H 0.44153 0.53832 0.5983 0.0
H1797 H 0.42725 0.52566 0.69141 0.0
C1798 C 0.43703 0.54596 0.78804 0.0
C1799 C 0.44313 0.55837 0.83512 0.0
C1800 C 0.44415 0.55342 0.73384 0.0
C1801 C 0.45603 0.57845 0.82725 0.0
C1802 C 0.46361 0.58593 0.77358 0.0
C1803 C 0.46639 0.5806 0.67301 0.0
C1804 C 0.46036 0.56802 0.62635 0.0
C1805 C 0.45804 0.57349 0.72667 0.0
C1806 C 0.44603 0.5483 0.63364 0.0
C1807 C 0.438 0.54104 0.68687 0.0
H1808 H 0.46959 0.8946 0.83168 0.0
H1809 H 0.41299 0.88529 0.89869 0.0
H1810 H 0.4019 0.88821 0.80357 0.0
H1811 H 0.40985 0.89627 0.70211 0.0
H1812 H 0.46584 0.90346 0.63621 0.0
H1813 H 0.47577 0.89852 0.73009 0.0
C1814 C 0.45476 0.89304 0.82513 0.0
C1815 C 0.44218 0.89005 0.87145 0.0
C1816 C 0.4485 0.89448 0.77077 0.0
C1817 C 0.42287 0.88767 0.86313 0.0
C1818 C 0.41661 0.88945 0.80899 0.0
C1819 C 0.42404 0.89645 0.70863 0.0
C1820 C 0.43706 0.89997 0.66293 0.0
C1821 C 0.42951 0.89329 0.76265 0.0
C1822 C 0.45554 0.90044 0.67114 0.0
C1823 C 0.46124 0.89772 0.72466 0.0
H1824 H 0.18166 0.44593 0.1399 0.0
H1825 H 0.23041 0.43817 0.20308 0.0
H1826 H 0.24411 0.44183 0.10788 0.0
H1827 H 0.24046 0.44422 0.0059 0.0
H1828 H 0.19285 0.45348 0.9413 0.0
H1829 H 0.18039 0.45238 0.03771 0.0
C1830 C 0.19551 0.44549 0.13261 0.0
C1831 C 0.2053 0.4422 0.17815 0.0
C1832 C 0.20326 0.44758 0.07762 0.0
C1833 C 0.22298 0.44121 0.16861 0.0
C1834 C 0.23068 0.4431 0.11421 0.0
C1835 C 0.22741 0.44608 0.01314 0.0
C1836 C 0.21726 0.4485 0.96703 0.0
C1837 C 0.22067 0.44581 0.06832 0.0
C1838 C 0.2007 0.4514 0.97648 0.0
C1839 C 0.1936 0.45075 0.03144 0.0
H1840 H 0.55847 0.80296 0.02974 0.0
H1841 H 0.55043 0.74903 0.95892 0.0
H1842 H 0.55091 0.73661 0.05361 0.0
H1843 H 0.55582 0.74209 0.1565 0.0
H1844 H 0.5619 0.7953 0.2271 0.0
H1845 H 0.55957 0.80691 0.133 0.0
C1846 C 0.55685 0.78851 0.03525 0.0
C1847 C 0.55488 0.77706 0.9877 0.0
C1848 C 0.55655 0.78128 0.08978 0.0
C1849 C 0.55222 0.75815 0.99509 0.0
C1850 C 0.55245 0.75105 0.04913 0.0
C1851 C 0.55616 0.75601 0.15107 0.0
C1852 C 0.55858 0.76768 0.19839 0.0
C1853 C 0.55485 0.76258 0.09676 0.0
C1854 C 0.55947 0.78588 0.1912 0.0
C1855 C 0.55839 0.79261 0.13741 0.0
H1856 H 0.24248 0.77565 0.18892 0.0
H1857 H 0.2568 0.83445 0.14343 0.0
H1858 H 0.2482 0.82465 0.04568 0.0
H1859 H 0.2333 0.79876 0.97503 0.0
H1860 H 0.21998 0.74022 0.01757 0.0
H1861 H 0.23133 0.75039 0.11483 0.0
C1862 C 0.24416 0.78639 0.15735 0.0
C1863 C 0.25 0.80567 0.17354 0.0
C1864 C 0.23895 0.7806 0.10105 0.0
C1865 C 0.25216 0.81946 0.13217 0.0
C1866 C 0.24712 0.81386 0.07626 0.0
C1867 C 0.23297 0.78832 0.00581 0.0
C1868 C 0.22551 0.76879 0.99039 0.0
C1869 C 0.23987 0.79437 0.0607 0.0
C1870 C 0.2255 0.75531 0.02945 0.0
C1871 C 0.23201 0.76114 0.08473 0.0
H1872 H 0.1415 0.17214 0.28606 0.0
H1873 H 0.19488 0.22848 0.29449 0.0
H1874 H 0.21519 0.21372 0.26246 0.0
H1875 H 0.21763 0.18431 0.23308 0.0
H1876 H 0.16316 0.12861 0.22546 0.0
H1877 H 0.14365 0.14375 0.25617 0.0
C1878 C 0.15759 0.18136 0.28111 0.0
C1879 C 0.16657 0.20147 0.2931 0.0
C1880 C 0.16908 0.17283 0.26274 0.0
C1881 C 0.18747 0.21297 0.28572 0.0
C1882 C 0.19911 0.20451 0.26743 0.0
C1883 C 0.2015 0.1755 0.23806 0.0
C1884 C 0.19205 0.15522 0.22696 0.0
C1885 C 0.19007 0.18437 0.25595 0.0
C1886 C 0.17105 0.14416 0.23366 0.0
C1887 C 0.15976 0.15281 0.2513 0.0
H1888 H 0.82469 0.96724 0.2242 0.0
H1889 H 0.77476 0.96958 0.30234 0.0
H1890 H 0.78949 0.00429 0.2761 0.0
H1891 H 0.81838 0.03483 0.23636 0.0
H1892 H 0.8677 0.0305 0.15991 0.0
H1893 H 0.85137 0.99598 0.18011 0.0
C1894 C 0.81688 0.97525 0.2354 0.0
C1895 C 0.79874 0.96581 0.26578 0.0
C1896 C 0.82547 0.99505 0.2207 0.0
C1897 C 0.78874 0.97643 0.27891 0.0
C1898 C 0.79726 0.99634 0.26417 0.0
C1899 C 0.82541 0.02628 0.22363 0.0
C1900 C 0.84448 0.0356 0.19711 0.0
C1901 C 0.81588 0.00596 0.23585 0.0
C1902 C 0.85324 0.02408 0.18093 0.0
C1903 C 0.84389 0.00417 0.1924 0.0
H1904 H 0.97443 0.78755 0.22181 0.0
H1905 H 0.97393 0.84125 0.18189 0.0
H1906 H 0.00795 0.86013 0.21638 0.0
H1907 H 0.0375 0.86187 0.26031 0.0
H1908 H 0.03947 0.80903 0.30014 0.0
H1909 H 0.00535 0.78946 0.26308 0.0
C1910 C 0.98182 0.80337 0.22026 0.0
C1911 C 0.9714 0.81284 0.19954 0.0
C1912 C 1.00166 0.81438 0.24045 0.0
C1913 C 0.98134 0.83341 0.1979 0.0
C1914 C 1.00089 0.84432 0.21768 0.0
C1915 C 0.03052 0.84606 0.26117 0.0
C1916 C 0.041 0.83696 0.28357 0.0
C1917 C 0.01108 0.83499 0.23962 0.0
C1918 C 0.03175 0.81644 0.2833 0.0
C1919 C 0.01221 0.80525 0.26214 0.0
H1920 H 0.8045 0.77148 0.70028 0.0
H1921 H 0.85624 0.82838 0.72436 0.0
H1922 H 0.83477 0.84105 0.75844 0.0
H1923 H 0.80132 0.8368 0.77735 0.0
H1924 H 0.74915 0.78058 0.75041 0.0
H1925 H 0.77073 0.76694 0.72253 0.0
C1926 C 0.81109 0.78662 0.71314 0.0
C1927 C 0.83203 0.79889 0.70913 0.0
C1928 C 0.79857 0.79403 0.73254 0.0
C1929 C 0.84021 0.81851 0.72624 0.0
C1930 C 0.82793 0.82584 0.74607 0.0
C1931 C 0.79464 0.82148 0.76632 0.0
C1932 C 0.77363 0.80978 0.76612 0.0
C1933 C 0.8071 0.81382 0.74894 0.0
C1934 C 0.76529 0.78999 0.75089 0.0
C1935 C 0.77763 0.78216 0.73471 0.0
H1936 H 0.17587 0.02518 0.72235 0.0
H1937 H 0.23685 0.0362 0.74172 0.0
H1938 H 0.22437 0.00248 0.77455 0.0
H1939 H 0.19553 0.96953 0.79907 0.0
H1940 H 0.13513 0.96064 0.7786 0.0
H1941 H 0.14813 0.99362 0.74536 0.0
C1942 C 0.18658 0.02036 0.73367 0.0
C1943 C 0.20731 0.0334 0.72952 0.0
C1944 C 0.17936 1.00113 0.75269 0.0
C1945 C 0.22078 0.02658 0.74436 0.0
C1946 C 0.21363 0.00726 0.76327 0.0
C1947 C 0.18525 0.97483 0.78737 0.0
C1948 C 0.16429 0.9623 0.79205 0.0
C1949 C 0.19286 0.99432 0.76786 0.0
C1950 C 0.15131 0.96964 0.77632 0.0
C1951 C 0.1587 0.98865 0.75694 0.0
H1952 H 0.97264 0.17105 0.71188 0.0
H1953 H 0.97466 0.22501 0.76085 0.0
H1954 H 0.00966 0.23828 0.78966 0.0
H1955 H 0.0393 0.23395 0.80619 0.0
H1956 H 0.03647 0.17931 0.76061 0.0
H1957 H 0.00245 0.16711 0.72551 0.0
C1958 C 0.98081 0.18582 0.72807 0.0
C1959 C 0.97095 0.19696 0.73409 0.0
C1960 C 1.00085 0.19325 0.74585 0.0
C1961 C 0.98179 0.21602 0.75588 0.0
C1962 C 0.00184 0.22364 0.7725 0.0
C1963 C 0.0313 0.21943 0.78823 0.0
C1964 C 0.04053 0.2076 0.78653 0.0
C1965 C 0.01146 0.21229 0.76858 0.0
C1966 C 0.0298 0.18876 0.76315 0.0
C1967 C 0.01028 0.18173 0.74281 0.0
H1968 H 0.8041 0.5086 0.59834 0.0
H1969 H 0.85911 0.56266 0.62338 0.0
H1970 H 0.87849 0.54737 0.58783 0.0
H1971 H 0.87965 0.51804 0.55191 0.0
H1972 H 0.82372 0.46458 0.5277 0.0
H1973 H 0.80505 0.48036 0.56073 0.0
C1974 C 0.82035 0.51717 0.59624 0.0
C1975 C 0.83008 0.53678 0.61407 0.0
C1976 C 0.83131 0.50834 0.57589 0.0
C1977 C 0.85116 0.54755 0.61009 0.0
C1978 C 0.86225 0.53878 0.58984 0.0
C1979 C 0.86338 0.50987 0.55363 0.0
C1980 C 0.85325 0.49001 0.53748 0.0
C1981 C 0.85248 0.5191 0.57292 0.0
C1982 C 0.8321 0.47977 0.54002 0.0
C1983 C 0.8213 0.48879 0.55894 0.0
H1984 H 0.49254 0.31343 0.65746 0.0
H1985 H 0.43404 0.30161 0.59927 0.0
H1986 H 0.44847 0.33532 0.56403 0.0
H1987 H 0.47871 0.36773 0.54392 0.0
H1988 H 0.53659 0.37767 0.60331 0.0
H1989 H 0.52133 0.34521 0.64383 0.0
C1990 C 0.4828 0.31814 0.63735 0.0
C1991 C 0.46226 0.30488 0.63053 0.0
C1992 C 0.49117 0.33729 0.61699 0.0
C1993 C 0.44993 0.31148 0.60506 0.0
C1994 C 0.45821 0.33075 0.58467 0.0
C1995 C 0.48787 0.3628 0.56624 0.0
C1996 C 0.50885 0.3751 0.56962 0.0
C1997 C 0.47895 0.34374 0.58951 0.0
C1998 C 0.5205 0.36848 0.59893 0.0
C1999 C 0.51179 0.34989 0.62242 0.0
H2000 H 0.63925 0.16762 0.55876 0.0
H2001 H 0.6374 0.11216 0.53472 0.0
H2002 H 0.67177 0.12598 0.57106 0.0
H2003 H 0.7027 0.15426 0.60862 0.0
H2004 H 0.7031 0.20918 0.63264 0.0
H2005 H 0.66903 0.195 0.5975 0.0
C2006 C 0.64627 0.15845 0.56119 0.0
C2007 C 0.63566 0.13885 0.54355 0.0
C2008 C 0.66589 0.16642 0.58231 0.0
C2009 C 0.64513 0.12729 0.54783 0.0
C2010 C 0.66482 0.1352 0.56862 0.0
C2011 C 0.69531 0.1631 0.6064 0.0
C2012 C 0.70572 0.18287 0.62321 0.0
C2013 C 0.67541 0.15481 0.58592 0.0
C2014 C 0.69574 0.194 0.61992 0.0
C2015 C 0.67614 0.18591 0.59974 0.0
H2016 H 0.43321 0.12778 0.07473 0.0
H2017 H 0.47783 0.1825 0.14566 0.0
H2018 H 0.50432 0.17492 0.11998 0.0
H2019 H 0.5151 0.15339 0.07414 0.0
H2020 H 0.47049 0.09825 0.00573 0.0
H2021 H 0.44384 0.10542 0.03358 0.0
C2022 C 0.44871 0.13803 0.08487 0.0
C2023 C 0.45344 0.15575 0.11187 0.0
C2024 C 0.46396 0.13357 0.0701 0.0
C2025 C 0.47365 0.16872 0.12506 0.0
C2026 C 0.48887 0.16445 0.11013 0.0
C2027 C 0.49955 0.14293 0.06528 0.0
C2028 C 0.49487 0.12537 0.03744 0.0
C2029 C 0.48424 0.14703 0.08204 0.0
C2030 C 0.47458 0.11188 0.02709 0.0
C2031 C 0.4593 0.11598 0.04293 0.0
H2032 H 0.88674 0.3649 0.05293 0.0
H2033 H 0.83029 0.3654 0.03963 0.0
H2034 H 0.8124 0.33219 0.07386 0.0
H2035 H 0.81207 0.30293 0.10812 0.0
H2036 H 0.86742 0.30061 0.12173 0.0
H2037 H 0.8862 0.33436 0.08696 0.0
C2038 C 0.87054 0.35773 0.05745 0.0
C2039 C 0.86007 0.36796 0.04359 0.0
C2040 C 0.86 0.3382 0.07738 0.0
C2041 C 0.83899 0.35822 0.04981 0.0
C2042 C 0.8286 0.33907 0.06952 0.0
C2043 C 0.82827 0.30969 0.10374 0.0
C2044 C 0.83823 0.29909 0.11794 0.0
C2045 C 0.8389 0.32895 0.08357 0.0
C2046 C 0.85925 0.3083 0.11127 0.0
C2047 C 0.87003 0.32766 0.09137 0.0
H2048 H 0.70061 0.52858 0.08605 0.0
H2049 H 0.70508 0.57758 0.1802 0.0
H2050 H 0.67099 0.56939 0.15161 0.0
H2051 H 0.63947 0.54756 0.10252 0.0
H2052 H 0.63576 0.49919 0.00597 0.0
H2053 H 0.67006 0.50815 0.03207 0.0
C2054 C 0.69408 0.53741 0.10055 0.0
C2055 C 0.70525 0.5535 0.13583 0.0
C2056 C 0.67465 0.53285 0.08309 0.0
C2057 C 0.69675 0.56506 0.15323 0.0
C2058 C 0.67727 0.5604 0.13682 0.0
C2059 C 0.64621 0.5391 0.08653 0.0
C2060 C 0.63484 0.52261 0.05258 0.0
C2061 C 0.66603 0.54426 0.10195 0.0
C2062 C 0.64399 0.51192 0.03227 0.0
C2063 C 0.66364 0.51695 0.04743 0.0
H2064 H 0.47437 0.84123 0.96288 0.0
H2065 H 0.5279 0.89751 0.96977 0.0
H2066 H 0.54771 0.88303 0.93212 0.0
H2067 H 0.54967 0.85408 0.89705 0.0
H2068 H 0.49517 0.79838 0.89016 0.0
H2069 H 0.47609 0.81308 0.92785 0.0
C2070 C 0.49039 0.85045 0.95643 0.0
C2071 C 0.49956 0.87048 0.96948 0.0
C2072 C 0.5016 0.84212 0.93453 0.0
C2073 C 0.52037 0.88205 0.96026 0.0
C2074 C 0.53172 0.87377 0.93867 0.0
C2075 C 0.53362 0.84517 0.90373 0.0
C2076 C 0.52402 0.82506 0.89064 0.0
C2077 C 0.52248 0.85377 0.92557 0.0
C2078 C 0.50315 0.81383 0.89964 0.0
C2079 C 0.49211 0.82223 0.92135 0.0
H2080 H 0.15105 0.62907 0.88643 0.0
H2081 H 0.10593 0.63464 0.98179 0.0
H2082 H 0.12084 0.66917 0.95306 0.0
H2083 H 0.14876 0.69861 0.90551 0.0
H2084 H 0.19277 0.69085 0.80981 0.0
H2085 H 0.17613 0.65656 0.83343 0.0
C2086 C 0.14439 0.6378 0.90086 0.0
C2087 C 0.12762 0.6294 0.93687 0.0
C2088 C 0.15291 0.65739 0.884 0.0
C2089 C 0.11891 0.6408 0.95415 0.0
C2090 C 0.12749 0.66056 0.93784 0.0
C2091 C 0.15448 0.68933 0.88917 0.0
C2092 C 0.17225 0.6976 0.85635 0.0
C2093 C 0.14477 0.66917 0.90338 0.0
C2094 C 0.17935 0.6852 0.83562 0.0
C2095 C 0.16985 0.66545 0.84916 0.0
H2096 H 0.30437 0.45166 0.85778 0.0
H2097 H 0.28998 0.4954 0.9185 0.0
H2098 H 0.32349 0.51418 0.95696 0.0
H2099 H 0.35733 0.51949 0.96914 0.0
H2100 H 0.37321 0.47669 0.90996 0.0
H2101 H 0.33882 0.45633 0.87557 0.0
C2102 C 0.30856 0.46518 0.88 0.0
C2103 C 0.29467 0.47218 0.88446 0.0
C2104 C 0.3282 0.47622 0.90198 0.0
C2105 C 0.30038 0.48976 0.91346 0.0
C2106 C 0.31958 0.50056 0.93568 0.0
C2107 C 0.35338 0.50569 0.9489 0.0
C2108 C 0.36799 0.49979 0.94182 0.0
C2109 C 0.33371 0.49415 0.92929 0.0
C2110 C 0.36233 0.48168 0.91597 0.0
C2111 C 0.34264 0.47003 0.89617 0.0
H2112 H 0.12925 0.49694 0.44081 0.0
H2113 H 0.07759 0.44338 0.38884 0.0
H2114 H 0.09942 0.43015 0.35994 0.0
H2115 H 0.13352 0.43435 0.34527 0.0
H2116 H 0.18492 0.48875 0.39416 0.0
H2117 H 0.16295 0.5009 0.42796 0.0
C2118 C 0.12273 0.48228 0.42387 0.0
C2119 C 0.10179 0.47121 0.4172 0.0
C2120 C 0.13539 0.47489 0.40606 0.0
C2121 C 0.09367 0.4523 0.39439 0.0
C2122 C 0.10615 0.4447 0.37771 0.0
C2123 C 0.1399 0.44882 0.36347 0.0
C2124 C 0.16093 0.46057 0.36657 0.0
C2125 C 0.1271 0.45596 0.38258 0.0
C2126 C 0.16885 0.47935 0.3904 0.0
C2127 C 0.15628 0.48636 0.41011 0.0
H2128 H 0.52523 0.63926 0.44999 0.0
H2129 H 0.46546 0.63115 0.4215 0.0
H2130 H 0.47937 0.66405 0.3866 0.0
H2131 H 0.50762 0.69528 0.36527 0.0
H2132 H 0.56809 0.70594 0.39379 0.0
H2133 H 0.55476 0.67202 0.42654 0.0
C2134 C 0.51529 0.64472 0.43617 0.0
C2135 C 0.49421 0.63246 0.43914 0.0
C2136 C 0.52345 0.66418 0.4158 0.0
C2137 C 0.48168 0.63997 0.42064 0.0
C2138 C 0.4896 0.65892 0.40026 0.0
C2139 C 0.51808 0.69038 0.37855 0.0
C2140 C 0.5389 0.70336 0.37718 0.0
C2141 C 0.51037 0.67115 0.39791 0.0
C2142 C 0.55199 0.69636 0.39419 0.0
C2143 C 0.54434 0.67694 0.41319 0.0
H2144 H 0.37033 0.85847 0.42771 0.0
H2145 H 0.37597 0.91002 0.50959 0.0
H2146 H 0.34207 0.90179 0.47906 0.0
H2147 H 0.3102 0.87908 0.43274 0.0
H2148 H 0.3053 0.82811 0.34841 0.0
H2149 H 0.33956 0.83718 0.37561 0.0
C2150 C 0.36414 0.86792 0.43887 0.0
C2151 C 0.37559 0.88471 0.47145 0.0
C2152 C 0.34477 0.86325 0.42054 0.0
C2153 C 0.36748 0.89698 0.48464 0.0
C2154 C 0.34808 0.89227 0.46726 0.0
C2155 C 0.31666 0.87003 0.41985 0.0
C2156 C 0.305 0.85283 0.38887 0.0
C2157 C 0.33649 0.87532 0.43565 0.0
C2158 C 0.3138 0.84142 0.3722 0.0
C2159 C 0.33341 0.84653 0.38801 0.0
H2160 H 0.29728 0.13695 0.21977 0.0
H2161 H 0.30667 0.19432 0.17703 0.0
H2162 H 0.34254 0.20569 0.16186 0.0
H2163 H 0.37094 0.19877 0.15694 0.0
H2164 H 0.3623 0.14278 0.21185 0.0
H2165 H 0.32637 0.13122 0.22581 0.0
C2166 C 0.30726 0.15201 0.20788 0.0
C2167 C 0.29942 0.1648 0.1994 0.0
C2168 C 0.32786 0.15849 0.20032 0.0
C2169 C 0.31245 0.18429 0.18434 0.0
C2170 C 0.3329 0.19073 0.17517 0.0
C2171 C 0.36108 0.18398 0.17144 0.0
C2172 C 0.36884 0.1711 0.17949 0.0
C2173 C 0.3407 0.17786 0.18218 0.0
C2174 C 0.35628 0.15241 0.20146 0.0
C2175 C 0.33585 0.14596 0.21049 0.0
H2176 H 0.80994 0.17663 0.19377 0.0
H2177 H 0.86638 0.21641 0.11481 0.0
H2178 H 0.87681 0.19139 0.11877 0.0
H2179 H 0.87014 0.1585 0.14553 0.0
H2180 H 0.81368 0.11844 0.22379 0.0
H2181 H 0.80307 0.14341 0.21957 0.0
C2182 C 0.8245 0.17984 0.17714 0.0
C2183 C 0.83736 0.19844 0.15391 0.0
C2184 C 0.83044 0.16538 0.17982 0.0
C2185 C 0.85617 0.20227 0.13275 0.0
C2186 C 0.86217 0.18797 0.13517 0.0
C2187 C 0.85551 0.15518 0.16194 0.0
C2188 C 0.84275 0.13659 0.18529 0.0
C2189 C 0.84948 0.16953 0.15888 0.0
C2190 C 0.82382 0.1326 0.20583 0.0
C2191 C 0.81774 0.14688 0.20329 0.0
H2192 H 0.83399 0.63803 0.19316 0.0
H2193 H 0.79182 0.65298 0.11586 0.0
H2194 H 0.81753 0.6872 0.11222 0.0
H2195 H 0.85135 0.71283 0.13232 0.0
H2196 H 0.89422 0.69907 0.21025 0.0
H2197 H 0.86877 0.66431 0.21243 0.0
C2198 C 0.83048 0.64878 0.17524 0.0
C2199 C 0.81096 0.64292 0.1548 0.0
C2200 C 0.84538 0.66859 0.17367 0.0
C2201 C 0.80665 0.65704 0.13194 0.0
C2202 C 0.82135 0.67664 0.12989 0.0
C2203 C 0.85526 0.7023 0.14989 0.0
C2204 C 0.87469 0.70858 0.1713 0.0
C2205 C 0.84066 0.68256 0.15095 0.0
C2206 C 0.87938 0.69464 0.19362 0.0
C2207 C 0.86483 0.67479 0.1948 0.0
H2208 H 0.14559 0.35389 0.34004 0.0
H2209 H 0.20908 0.37923 0.30602 0.0
H2210 H 0.20599 0.34684 0.3004 0.0
H2211 H 0.18532 0.31095 0.30595 0.0
H2212 H 0.12186 0.28574 0.3403 0.0
H2213 H 0.12489 0.3181 0.34431 0.0
C2214 C 0.15874 0.35231 0.33167 0.0
C2215 C 0.17751 0.36902 0.32368 0.0
C2216 C 0.15689 0.33353 0.32808 0.0
C2217 C 0.19439 0.36666 0.31244 0.0
C2218 C 0.19267 0.34809 0.30906 0.0
C2219 C 0.17216 0.31257 0.31374 0.0
C2220 C 0.15344 0.2959 0.32278 0.0
C2221 C 0.17399 0.33137 0.31668 0.0
C2222 C 0.13653 0.29829 0.33331 0.0
C2223 C 0.13821 0.31684 0.33577 0.0
H2224 H 0.64874 0.79562 0.35682 0.0
H2225 H 0.61957 0.83052 0.33138 0.0
H2226 H 0.65199 0.8598 0.32142 0.0
H2227 H 0.68894 0.87581 0.31822 0.0
H2228 H 0.71817 0.84105 0.34483 0.0
H2229 H 0.68574 0.81175 0.35548 0.0
C2230 C 0.64951 0.80966 0.34961 0.0
C2231 C 0.63172 0.81078 0.34482 0.0
C2232 C 0.66833 0.8266 0.34352 0.0
C2233 C 0.63301 0.82913 0.33515 0.0
C2234 C 0.65159 0.84597 0.32926 0.0
C2235 C 0.68817 0.86181 0.32604 0.0
C2236 C 0.70596 0.86068 0.33055 0.0
C2237 C 0.66938 0.8449 0.33284 0.0
C2238 C 0.70471 0.8424 0.34122 0.0
C2239 C 0.68614 0.82557 0.34743 0.0
H2240 H 0.21399 0.85249 0.2978 0.0
H2241 H 0.1808 0.79622 0.37761 0.0
H2242 H 0.14997 0.7987 0.37358 0.0
H2243 H 0.13259 0.81729 0.34883 0.0
H2244 H 0.16635 0.87467 0.2758 0.0
H2245 H 0.19678 0.87142 0.27493 0.0
C2246 C 0.20006 0.84105 0.31541 0.0
C2247 C 0.19967 0.82458 0.34005 0.0
C2248 C 0.18247 0.84263 0.31305 0.0
C2249 C 0.18143 0.80929 0.36005 0.0
C2250 C 0.16382 0.81064 0.35739 0.0
C2251 C 0.14657 0.82888 0.33194 0.0
C2252 C 0.1473 0.846 0.31138 0.0
C2253 C 0.16415 0.82725 0.33396 0.0
C2254 C 0.16553 0.86125 0.29106 0.0
C2255 C 0.1829 0.85944 0.29086 0.0
H2256 H 0.70193 0.86669 0.79471 0.0
H2257 H 0.69357 0.81301 0.8689 0.0
H2258 H 0.65834 0.80298 0.8886 0.0
H2259 H 0.62936 0.80868 0.87944 0.0
H2260 H 0.63832 0.86399 0.81646 0.0
H2261 H 0.67385 0.87437 0.79793 0.0
C2262 C 0.69228 0.85277 0.81487 0.0
C2263 C 0.69982 0.83992 0.82677 0.0
C2264 C 0.67222 0.8475 0.82824 0.0
C2265 C 0.68763 0.82247 0.85588 0.0
C2266 C 0.66759 0.81689 0.86796 0.0
C2267 C 0.63923 0.82315 0.86266 0.0
C2268 C 0.63135 0.83559 0.84932 0.0
C2269 C 0.65962 0.82911 0.85329 0.0
C2270 C 0.64418 0.85429 0.82765 0.0
C2271 C 0.66442 0.86013 0.81658 0.0
H2272 H 0.20511 0.82383 0.8184 0.0
H2273 H 0.14702 0.78351 0.88775 0.0
H2274 H 0.13763 0.80929 0.8875 0.0
H2275 H 0.14561 0.84295 0.86645 0.0
H2276 H 0.2035 0.88355 0.79674 0.0
H2277 H 0.21327 0.8579 0.79811 0.0
C2278 C 0.19041 0.82067 0.83376 0.0
C2279 C 0.17678 0.80166 0.85322 0.0
C2280 C 0.18506 0.83558 0.83314 0.0
C2281 C 0.15781 0.79792 0.87269 0.0
C2282 C 0.15242 0.81267 0.87243 0.0
C2283 C 0.16041 0.84629 0.85144 0.0
C2284 C 0.17381 0.86524 0.83132 0.0
C2285 C 0.16588 0.83151 0.8525 0.0
C2286 C 0.19289 0.86916 0.81231 0.0
C2287 C 0.19846 0.85447 0.81317 0.0
H2288 H 0.21063 0.35952 0.85913 0.0
H2289 H 0.17134 0.38166 0.80452 0.0
H2290 H 0.14332 0.34867 0.799 0.0
H2291 H 0.1296 0.31326 0.80854 0.0
H2292 H 0.16844 0.29068 0.86326 0.0
H2293 H 0.19668 0.32376 0.86937 0.0
C2294 C 0.19591 0.35709 0.84644 0.0
C2295 C 0.19321 0.37312 0.83226 0.0
C2296 C 0.17965 0.33788 0.84284 0.0
C2297 C 0.17399 0.36966 0.81555 0.0
C2298 C 0.15785 0.35074 0.81224 0.0
C2299 C 0.14426 0.31557 0.82149 0.0
C2300 C 0.14683 0.29946 0.83519 0.0
C2301 C 0.16049 0.3347 0.82539 0.0
C2302 C 0.16596 0.30279 0.85232 0.0
C2303 C 0.18218 0.32174 0.856 0.0
H2304 H 0.81469 0.6914 0.68445 0.0
H2305 H 0.8768 0.71551 0.63472 0.0
H2306 H 0.87298 0.68286 0.62814 0.0
H2307 H 0.85202 0.64709 0.6368 0.0
H2308 H 0.78994 0.62313 0.68684 0.0
H2309 H 0.79373 0.65575 0.69245 0.0
C2310 C 0.82739 0.68949 0.67242 0.0
C2311 C 0.84597 0.70593 0.66026 0.0
C2312 C 0.82511 0.67057 0.66837 0.0
C2313 C 0.86226 0.70315 0.64439 0.0
C2314 C 0.86012 0.68443 0.64048 0.0
C2315 C 0.83932 0.64903 0.64852 0.0
C2316 C 0.82077 0.63264 0.66135 0.0
C2317 C 0.8416 0.66798 0.65222 0.0
C2318 C 0.80447 0.63546 0.67683 0.0
C2319 C 0.80659 0.65415 0.68018 0.0
H2320 H 0.29344 0.15866 0.66775 0.0
H2321 H 0.3144 0.12138 0.74186 0.0
H2322 H 0.3489 0.14844 0.74018 0.0
H2323 H 0.37307 0.18227 0.71524 0.0
H2324 H 0.35224 0.21957 0.64065 0.0
H2325 H 0.31757 0.19277 0.64482 0.0
C2326 C 0.30552 0.15644 0.68388 0.0
C2327 C 0.30133 0.13797 0.70489 0.0
C2328 C 0.3253 0.17201 0.68235 0.0
C2329 C 0.31719 0.13541 0.72554 0.0
C2330 C 0.33692 0.15087 0.72443 0.0
C2331 C 0.36097 0.18459 0.69984 0.0
C2332 C 0.36526 0.2029 0.67736 0.0
C2333 C 0.34115 0.16916 0.70247 0.0
C2334 C 0.34936 0.20563 0.65798 0.0
C2335 C 0.32955 0.19032 0.66041 0.0
H2336 H 0.84382 0.14141 0.6871 0.0
H2337 H 0.88875 0.19865 0.63276 0.0
H2338 H 0.86287 0.20817 0.61789 0.0
H2339 H 0.82769 0.20067 0.62515 0.0
H2340 H 0.78199 0.14257 0.67039 0.0
H2341 H 0.80783 0.13266 0.68321 0.0
C2342 C 0.84784 0.15599 0.6724 0.0
C2343 C 0.8682 0.16982 0.66465 0.0
C2344 C 0.83276 0.16105 0.66186 0.0
C2345 C 0.87327 0.18827 0.64257 0.0
C2346 C 0.85846 0.19358 0.63316 0.0
C2347 C 0.82338 0.18574 0.6369 0.0
C2348 C 0.80306 0.17234 0.64694 0.0
C2349 C 0.83821 0.1802 0.64361 0.0
C2350 C 0.79756 0.15303 0.66188 0.0
C2351 C 0.81234 0.14746 0.66975 0.0
H2352 H 0.03049 0.52685 0.47106 0.0
H2353 H 0.01792 0.46904 0.52027 0.0
H2354 H 0.98264 0.45968 0.53672 0.0
H2355 H 0.95518 0.46763 0.53299 0.0
H2356 H 0.96805 0.52633 0.49345 0.0
H2357 H 0.00357 0.53592 0.4783 0.0
C2358 C 0.0199 0.51218 0.48493 0.0
C2359 C 0.0263 0.49817 0.49075 0.0
C2360 C 0.99987 0.50722 0.49661 0.0
C2361 C 0.01288 0.47958 0.51183 0.0
C2362 C 0.99285 0.47436 0.5222 0.0
C2363 C 0.96585 0.48261 0.52192 0.0
C2364 C 0.95912 0.49628 0.51418 0.0
C2365 C 0.98613 0.48798 0.51388 0.0
C2366 C 0.97301 0.51565 0.50017 0.0
C2367 C 0.99323 0.52105 0.49096 0.0
H2368 H 0.4752 0.51395 0.51891 0.0
H2369 H 0.53181 0.55374 0.4409 0.0
H2370 H 0.54166 0.52815 0.44224 0.0
H2371 H 0.53397 0.49443 0.46557 0.0
H2372 H 0.47737 0.45518 0.54477 0.0
H2373 H 0.46772 0.48075 0.543 0.0
C2374 C 0.48972 0.51711 0.50202 0.0
C2375 C 0.50275 0.53578 0.47959 0.0
C2376 C 0.49526 0.50242 0.50325 0.0
C2377 C 0.52151 0.53954 0.45831 0.0
C2378 C 0.52712 0.5249 0.4591 0.0
C2379 C 0.51951 0.49145 0.48248 0.0
C2380 C 0.50637 0.47284 0.50523 0.0
C2381 C 0.51409 0.50628 0.48146 0.0
C2382 C 0.48775 0.4693 0.52707 0.0
C2383 C 0.48223 0.48393 0.52601 0.0
H2384 H 0.54833 0.03025 0.52968 0.0
H2385 H 0.50843 0.053 0.48713 0.0
H2386 H 0.48017 0.02011 0.48292 0.0
H2387 H 0.46651 0.98476 0.49005 0.0
H2388 H 0.50574 0.96141 0.5335 0.0
H2389 H 0.53434 0.99443 0.53811 0.0
C2390 C 0.53342 0.02797 0.51996 0.0
C2391 C 0.53058 0.04411 0.50872 0.0
C2392 C 0.51705 0.00884 0.51718 0.0
C2393 C 0.51115 0.04089 0.49585 0.0
C2394 C 0.4949 0.02204 0.49328 0.0
C2395 C 0.48134 0.98688 0.50018 0.0
C2396 C 0.48397 0.97064 0.51111 0.0
C2397 C 0.49767 0.0059 0.50342 0.0
C2398 C 0.50328 0.97367 0.52472 0.0
C2399 C 0.51966 0.99257 0.52754 0.0
H2400 H 0.48666 0.02599 0.02119 0.0
H2401 H 0.54948 0.04894 0.98191 0.0
H2402 H 0.54478 0.01579 0.9766 0.0
H2403 H 0.5226 0.97996 0.98347 0.0
H2404 H 0.45974 0.95769 0.02175 0.0
H2405 H 0.46466 0.9907 0.02638 0.0
C2406 C 0.49936 0.02376 0.01185 0.0
C2407 C 0.51839 0.03992 0.00234 0.0
C2408 C 0.49651 0.00468 0.00813 0.0
C2409 C 0.53465 0.03674 0.98964 0.0
C2410 C 0.53197 0.01777 0.9864 0.0
C2411 C 0.51 0.98237 0.99229 0.0
C2412 C 0.49086 0.96633 0.00231 0.0
C2413 C 0.51293 1.00158 0.99537 0.0
C2414 C 0.47467 0.96973 0.01404 0.0
C2415 C 0.47745 0.98864 0.01686 0.0
H2416 H 0.9584 0.48775 0.96749 0.0
H2417 H 0.97469 0.44803 0.04866 0.0
H2418 H 0.01029 0.47286 0.04339 0.0
H2419 H 0.03672 0.50585 0.01501 0.0
H2420 H 0.01985 0.54517 0.93374 0.0
H2421 H 0.98447 0.52034 0.93938 0.0
C2422 C 0.96968 0.48446 0.98432 0.0
C2423 C 0.96382 0.466 0.00863 0.0
C2424 C 0.99003 0.49871 0.98072 0.0
C2425 C 0.97874 0.46209 0.02993 0.0
C2426 C 0.9991 0.47628 0.02674 0.0
C2427 C 0.02532 0.50897 0.99826 0.0
C2428 C 0.03099 0.52739 0.97375 0.0
C2429 C 0.00492 0.49462 0.002 0.0
C2430 C 0.01597 0.53116 0.95263 0.0
C2431 C 0.99571 0.51697 0.95598 0.0
H2432 H 0.54239 0.51652 0.95863 0.0
H2433 H 0.50966 0.46473 0.05967 0.0
H2434 H 0.47894 0.46721 0.04963 0.0
H2435 H 0.46154 0.48456 0.01334 0.0
H2436 H 0.49487 0.53781 0.91872 0.0
H2437 H 0.52517 0.53435 0.92418 0.0
C2438 C 0.52861 0.5061 0.97945 0.0
C2439 C 0.52834 0.49093 0.01173 0.0
C2440 C 0.51107 0.50768 0.97353 0.0
C2441 C 0.51023 0.47686 0.03606 0.0
C2442 C 0.49268 0.47819 0.02999 0.0
C2443 C 0.47538 0.49515 0.99313 0.0
C2444 C 0.476 0.51112 0.96447 0.0
C2445 C 0.49291 0.49353 0.99877 0.0
C2446 C 0.49409 0.52519 0.94 0.0
C2447 C 0.51139 0.52329 0.94347 0.0
loop_
_geom_bond_atom_site_label_1
_geom_bond_atom_site_label_2
_geom_bond_distance
_geom_bond_site_symmetry_2
_ccdc_geom_bond_type
Mn0 O5 2.095 . S
Mn0 O15 2.162 . S
Mn0 O16 2.297 . S
Mn0 O24 2.385 . S
Mn0 O25 2.209 . S
Mn0 O26 2.094 . S
Mn1 O6 2.121 . S
Mn1 N8 2.257 . S
Mn1 N17 2.282 . S
Mn1 O25 2.215 . S
Mn1 O27 2.117 . S
C2 O24 1.234 . S
C2 O25 1.283 . S
C3 O15 1.281 . S
C3 O16 1.236 . S
C4 O26 1.240 . S
C4 O27 1.264 . S
O5 Mn0 2.095 . S
O5 C14 1.250 . S
O6 Mn1 2.121 . S
O6 C14 1.258 . S
C7 N8 1.326 . S
C7 C11 1.460 . S
C7 H13 0.929 . S
N8 Mn1 2.257 . S
N8 C7 1.326 . S
N8 C12 1.362 . S
C9 C10 1.258 . S
C9 C12 1.431 . S
C9 C29 1.449 . S
C10 C9 1.258 . S
C10 C11 1.477 . S
C10 H30 0.931 . S
C11 C7 1.460 . S
C11 C10 1.477 . S
C11 H31 0.930 . S
C12 N8 1.362 . S
C12 C9 1.431 . S
C12 C22 1.476 . S
H13 C7 0.929 . S
C14 O5 1.250 . S
C14 O6 1.258 . S
O15 Mn0 2.162 . S
O15 C3 1.281 . S
O16 Mn0 2.297 . S
O16 C3 1.236 . S
N17 Mn1 2.282 . S
N17 C18 1.328 . S
N17 C22 1.318 . S
C18 N17 1.328 . S
C18 C19 1.457 . S
C18 H23 0.929 . S
C19 C18 1.457 . S
C19 C20 1.291 . S
C19 H32 0.931 . S
C20 C19 1.291 . S
C20 C21 1.373 . S
C20 H33 0.929 1_554 S
C21 C20 1.373 . S
C21 C22 1.396 . S
C21 C28 1.403 . S
C22 C12 1.476 . S
C22 N17 1.318 . S
C22 C21 1.396 . S
H23 C18 0.929 . S
O24 Mn0 2.385 . S
O24 C2 1.234 . S
O25 Mn0 2.209 . S
O25 Mn1 2.215 . S
O25 C2 1.283 . S
O26 Mn0 2.094 . S
O26 C4 1.240 . S
O27 Mn1 2.117 . S
O27 C4 1.264 . S
C28 C21 1.403 . S
C28 C29 1.399 . S
C28 H34 0.929 . S
C29 C9 1.449 . S
C29 C28 1.399 . S
C29 H35 0.930 . S
H30 C10 0.931 . S
H31 C11 0.930 . S
H32 C19 0.931 . S
H33 C20 0.929 1_556 S
H34 C28 0.929 . S
H35 C29 0.930 . S
Mn36 O41 2.095 . S
Mn36 O51 2.162 . S
Mn36 O52 2.297 . S
Mn36 O60 2.385 . S
Mn36 O61 2.209 . S
Mn36 O62 2.094 . S
Mn37 O42 2.121 . S
Mn37 N44 2.257 . S
Mn37 N53 2.282 . S
Mn37 O61 2.215 . S
Mn37 O63 2.117 . S
C38 O60 1.234 . S
C38 O61 1.283 . S
C39 O51 1.281 . S
C39 O52 1.236 . S
C40 O62 1.240 . S
C40 O63 1.264 . S
O41 Mn36 2.095 . S
O41 C50 1.250 . S
O42 Mn37 2.121 . S
O42 C50 1.258 . S
C43 N44 1.326 . S
C43 C47 1.460 . S
C43 H49 0.929 . S
N44 Mn37 2.257 . S
N44 C43 1.326 . S
N44 C48 1.362 . S
C45 C46 1.258 . S
C45 C48 1.431 . S
C45 C65 1.449 . S
C46 C45 1.258 . S
C46 C47 1.477 . S
C46 H66 0.931 . S
C47 C43 1.460 . S
C47 C46 1.477 . S
C47 H67 0.930 . S
C48 N44 1.362 . S
C48 C45 1.431 . S
C48 C58 1.476 . S
H49 C43 0.929 . S
C50 O41 1.250 . S
C50 O42 1.258 . S
O51 Mn36 2.162 . S
O51 C39 1.281 . S
O52 Mn36 2.297 . S
O52 C39 1.236 . S
N53 Mn37 2.282 . S
N53 C54 1.328 . S
N53 C58 1.318 . S
C54 N53 1.328 . S
C54 C55 1.457 . S
C54 H59 0.929 . S
C55 C54 1.457 . S
C55 C56 1.291 . S
C55 H68 0.931 . S
C56 C55 1.291 . S
C56 C57 1.373 . S
C56 H69 0.929 1_554 S
C57 C56 1.373 . S
C57 C58 1.396 . S
C57 C64 1.403 . S
C58 C48 1.476 . S
C58 N53 1.318 . S
C58 C57 1.396 . S
H59 C54 0.929 . S
O60 Mn36 2.385 . S
O60 C38 1.234 . S
O61 Mn36 2.209 . S
O61 Mn37 2.215 . S
O61 C38 1.283 . S
O62 Mn36 2.094 . S
O62 C40 1.240 . S
O63 Mn37 2.117 . S
O63 C40 1.264 . S
C64 C57 1.403 . S
C64 C65 1.399 . S
C64 H70 0.929 . S
C65 C45 1.449 . S
C65 C64 1.399 . S
C65 H71 0.930 . S
H66 C46 0.931 . S
H67 C47 0.930 . S
H68 C55 0.931 . S
H69 C56 0.929 1_556 S
H70 C64 0.929 . S
H71 C65 0.930 . S
Mn72 O77 2.095 . S
Mn72 O87 2.162 . S
Mn72 O88 2.297 . S
Mn72 O96 2.385 . S
Mn72 O97 2.209 . S
Mn72 O98 2.094 . S
Mn73 O78 2.121 . S
Mn73 N80 2.257 . S
Mn73 N89 2.282 . S
Mn73 O97 2.215 . S
Mn73 O99 2.117 . S
C74 O96 1.234 . S
C74 O97 1.283 . S
C75 O87 1.281 . S
C75 O88 1.236 . S
C76 O98 1.240 . S
C76 O99 1.264 . S
O77 Mn72 2.095 . S
O77 C86 1.250 . S
O78 Mn73 2.121 . S
O78 C86 1.258 . S
C79 N80 1.326 . S
C79 C83 1.460 . S
C79 H85 0.929 . S
N80 Mn73 2.257 . S
N80 C79 1.326 . S
N80 C84 1.362 . S
C81 C82 1.258 . S
C81 C84 1.431 . S
C81 C101 1.449 . S
C82 C81 1.258 . S
C82 C83 1.477 . S
C82 H102 0.931 . S
C83 C79 1.460 . S
C83 C82 1.477 . S
C83 H103 0.930 . S
C84 N80 1.362 . S
C84 C81 1.431 . S
C84 C94 1.476 . S
H85 C79 0.929 . S
C86 O77 1.250 . S
C86 O78 1.258 . S
O87 Mn72 2.162 . S
O87 C75 1.281 . S
O88 Mn72 2.297 . S
O88 C75 1.236 . S
N89 Mn73 2.282 . S
N89 C90 1.328 . S
N89 C94 1.318 . S
C90 N89 1.328 . S
C90 C91 1.457 . S
C90 H95 0.929 . S
C91 C90 1.457 . S
C91 C92 1.291 . S
C91 H104 0.931 . S
C92 C91 1.291 . S
C92 C93 1.373 . S
C92 H105 0.929 1_554 S
C93 C92 1.373 . S
C93 C94 1.396 . S
C93 C100 1.403 . S
C94 C84 1.476 . S
C94 N89 1.318 . S
C94 C93 1.396 . S
H95 C90 0.929 . S
O96 Mn72 2.385 . S
O96 C74 1.234 . S
O97 Mn72 2.209 . S
O97 Mn73 2.215 . S
O97 C74 1.283 . S
O98 Mn72 2.094 . S
O98 C76 1.240 . S
O99 Mn73 2.117 . S
O99 C76 1.264 . S
C100 C93 1.403 . S
C100 C101 1.399 . S
C100 H106 0.929 . S
C101 C81 1.449 . S
C101 C100 1.399 . S
C101 H107 0.930 . S
H102 C82 0.931 . S
H103 C83 0.930 . S
H104 C91 0.931 . S
H105 C92 0.929 1_556 S
H106 C100 0.929 . S
H107 C101 0.930 . S
Mn108 O113 2.095 . S
Mn108 O123 2.162 . S
Mn108 O124 2.297 . S
Mn108 O132 2.385 . S
Mn108 O133 2.209 . S
Mn108 O134 2.094 . S
Mn109 O114 2.121 . S
Mn109 N116 2.257 . S
Mn109 N125 2.282 . S
Mn109 O133 2.215 . S
Mn109 O135 2.117 . S
C110 O132 1.234 . S
C110 O133 1.283 . S
C111 O123 1.281 . S
C111 O124 1.236 . S
C112 O134 1.240 . S
C112 O135 1.264 . S
O113 Mn108 2.095 . S
O113 C122 1.250 . S
O114 Mn109 2.121 . S
O114 C122 1.258 . S
C115 N116 1.326 . S
C115 C119 1.460 . S
C115 H121 0.929 . S
N116 Mn109 2.257 . S
N116 C115 1.326 . S
N116 C120 1.362 . S
C117 C118 1.258 . S
C117 C120 1.431 . S
C117 C137 1.449 . S
C118 C117 1.258 . S
C118 C119 1.477 . S
C118 H138 0.931 . S
C119 C115 1.460 . S
C119 C118 1.477 . S
C119 H139 0.930 . S
C120 N116 1.362 . S
C120 C117 1.431 . S
C120 C130 1.476 . S
H121 C115 0.929 . S
C122 O113 1.250 . S
C122 O114 1.258 . S
O123 Mn108 2.162 . S
O123 C111 1.281 . S
O124 Mn108 2.297 . S
O124 C111 1.236 . S
N125 Mn109 2.282 . S
N125 C126 1.328 . S
N125 C130 1.318 . S
C126 N125 1.328 . S
C126 C127 1.457 . S
C126 H131 0.929 . S
C127 C126 1.457 . S
C127 C128 1.291 . S
C127 H140 0.931 . S
C128 C127 1.291 . S
C128 C129 1.373 . S
C128 H141 0.929 . S
C129 C128 1.373 . S
C129 C130 1.396 . S
C129 C136 1.403 . S
C130 C120 1.476 . S
C130 N125 1.318 . S
C130 C129 1.396 . S
H131 C126 0.929 . S
O132 Mn108 2.385 . S
O132 C110 1.234 . S
O133 Mn108 2.209 . S
O133 Mn109 2.215 . S
O133 C110 1.283 . S
O134 Mn108 2.094 . S
O134 C112 1.240 . S
O135 Mn109 2.117 . S
O135 C112 1.264 . S
C136 C129 1.403 . S
C136 C137 1.399 . S
C136 H142 0.929 . S
C137 C117 1.449 . S
C137 C136 1.399 . S
C137 H143 0.930 . S
H138 C118 0.931 . S
H139 C119 0.930 . S
H140 C127 0.931 . S
H141 C128 0.929 . S
H142 C136 0.929 . S
H143 C137 0.930 . S
Mn144 O149 2.095 . S
Mn144 O159 2.162 . S
Mn144 O160 2.297 . S
Mn144 O168 2.385 . S
Mn144 O169 2.209 . S
Mn144 O170 2.094 . S
Mn145 O150 2.121 . S
Mn145 N152 2.257 . S
Mn145 N161 2.282 . S
Mn145 O169 2.215 . S
Mn145 O171 2.117 . S
C146 O168 1.234 . S
C146 O169 1.283 . S
C147 O159 1.281 . S
C147 O160 1.236 . S
C148 O170 1.240 . S
C148 O171 1.264 . S
O149 Mn144 2.095 . S
O149 C158 1.250 . S
O150 Mn145 2.121 . S
O150 C158 1.258 . S
C151 N152 1.326 . S
C151 C155 1.460 . S
C151 H157 0.929 . S
N152 Mn145 2.257 . S
N152 C151 1.326 . S
N152 C156 1.362 . S
C153 C154 1.258 . S
C153 C156 1.431 . S
C153 C173 1.449 . S
C154 C153 1.258 . S
C154 C155 1.477 . S
C154 H174 0.931 . S
C155 C151 1.460 . S
C155 C154 1.477 . S
C155 H175 0.930 . S
C156 N152 1.362 . S
C156 C153 1.431 . S
C156 C166 1.476 . S
H157 C151 0.929 . S
C158 O149 1.250 . S
C158 O150 1.258 . S
O159 Mn144 2.162 . S
O159 C147 1.281 . S
O160 Mn144 2.297 . S
O160 C147 1.236 . S
N161 Mn145 2.282 . S
N161 C162 1.328 . S
N161 C166 1.318 . S
C162 N161 1.328 . S
C162 C163 1.457 . S
C162 H167 0.929 . S
C163 C162 1.457 . S
C163 C164 1.291 . S
C163 H176 0.931 . S
C164 C163 1.291 . S
C164 C165 1.373 . S
C164 H177 0.929 . S
C165 C164 1.373 . S
C165 C166 1.396 . S
C165 C172 1.403 . S
C166 C156 1.476 . S
C166 N161 1.318 . S
C166 C165 1.396 . S
H167 C162 0.929 . S
O168 Mn144 2.385 . S
O168 C146 1.234 . S
O169 Mn144 2.209 . S
O169 Mn145 2.215 . S
O169 C146 1.283 . S
O170 Mn144 2.094 . S
O170 C148 1.240 . S
O171 Mn145 2.117 . S
O171 C148 1.264 . S
C172 C165 1.403 . S
C172 C173 1.399 . S
C172 H178 0.929 . S
C173 C153 1.449 . S
C173 C172 1.399 . S
C173 H179 0.930 . S
H174 C154 0.931 . S
H175 C155 0.930 . S
H176 C163 0.931 . S
H177 C164 0.929 . S
H178 C172 0.929 . S
H179 C173 0.930 . S
Mn180 O185 2.095 . S
Mn180 O195 2.162 . S
Mn180 O196 2.297 . S
Mn180 O204 2.385 . S
Mn180 O205 2.209 . S
Mn180 O206 2.094 . S
Mn181 O186 2.121 . S
Mn181 N188 2.257 . S
Mn181 N197 2.282 . S
Mn181 O205 2.215 . S
Mn181 O207 2.117 . S
C182 O204 1.234 . S
C182 O205 1.283 . S
C183 O195 1.281 . S
C183 O196 1.236 . S
C184 O206 1.240 . S
C184 O207 1.264 . S
O185 Mn180 2.095 . S
O185 C194 1.250 . S
O186 Mn181 2.121 . S
O186 C194 1.258 . S
C187 N188 1.326 . S
C187 C191 1.460 . S
C187 H193 0.929 . S
N188 Mn181 2.257 . S
N188 C187 1.326 . S
N188 C192 1.362 . S
C189 C190 1.258 . S
C189 C192 1.431 . S
C189 C209 1.449 . S
C190 C189 1.258 . S
C190 C191 1.477 . S
C190 H210 0.931 . S
C191 C187 1.460 . S
C191 C190 1.477 . S
C191 H211 0.930 . S
C192 N188 1.362 . S
C192 C189 1.431 . S
C192 C202 1.476 . S
H193 C187 0.929 . S
C194 O185 1.250 . S
C194 O186 1.258 . S
O195 Mn180 2.162 . S
O195 C183 1.281 . S
O196 Mn180 2.297 . S
O196 C183 1.236 . S
N197 Mn181 2.282 . S
N197 C198 1.328 . S
N197 C202 1.318 . S
C198 N197 1.328 . S
C198 C199 1.457 . S
C198 H203 0.929 . S
C199 C198 1.457 . S
C199 C200 1.291 . S
C199 H212 0.931 . S
C200 C199 1.291 . S
C200 C201 1.373 . S
C200 H213 0.929 . S
C201 C200 1.373 . S
C201 C202 1.396 . S
C201 C208 1.403 . S
C202 C192 1.476 . S
C202 N197 1.318 . S
C202 C201 1.396 . S
H203 C198 0.929 . S
O204 Mn180 2.385 . S
O204 C182 1.234 . S
O205 Mn180 2.209 . S
O205 Mn181 2.215 . S
O205 C182 1.283 . S
O206 Mn180 2.094 . S
O206 C184 1.240 . S
O207 Mn181 2.117 . S
O207 C184 1.264 . S
C208 C201 1.403 . S
C208 C209 1.399 . S
C208 H214 0.929 . S
C209 C189 1.449 . S
C209 C208 1.399 . S
C209 H215 0.930 . S
H210 C190 0.931 . S
H211 C191 0.930 . S
H212 C199 0.931 . S
H213 C200 0.929 . S
H214 C208 0.929 . S
H215 C209 0.930 . S
Mn216 O221 2.095 . S
Mn216 O231 2.162 . S
Mn216 O232 2.297 . S
Mn216 O240 2.385 . S
Mn216 O241 2.209 . S
Mn216 O242 2.094 . S
Mn217 O222 2.121 . S
Mn217 N224 2.257 . S
Mn217 N233 2.282 . S
Mn217 O241 2.215 . S
Mn217 O243 2.117 . S
C218 O240 1.234 . S
C218 O241 1.283 . S
C219 O231 1.281 . S
C219 O232 1.236 . S
C220 O242 1.240 . S
C220 O243 1.264 . S
O221 Mn216 2.095 . S
O221 C230 1.250 . S
O222 Mn217 2.121 . S
O222 C230 1.258 . S
C223 N224 1.326 . S
C223 C227 1.460 . S
C223 H229 0.929 . S
N224 Mn217 2.257 . S
N224 C223 1.326 . S
N224 C228 1.362 . S
C225 C226 1.258 . S
C225 C228 1.431 . S
C225 C245 1.449 . S
C226 C225 1.258 . S
C226 C227 1.477 . S
C226 H246 0.931 . S
C227 C223 1.460 . S
C227 C226 1.477 . S
C227 H247 0.930 . S
C228 N224 1.362 . S
C228 C225 1.431 . S
C228 C238 1.476 . S
H229 C223 0.929 . S
C230 O221 1.250 . S
C230 O222 1.258 . S
O231 Mn216 2.162 . S
O231 C219 1.281 . S
O232 Mn216 2.297 . S
O232 C219 1.236 . S
N233 Mn217 2.282 . S
N233 C234 1.328 . S
N233 C238 1.318 . S
C234 N233 1.328 . S
C234 C235 1.457 . S
C234 H239 0.929 . S
C235 C234 1.457 . S
C235 C236 1.291 . S
C235 H248 0.931 . S
C236 C235 1.291 . S
C236 C237 1.373 . S
C236 H249 0.929 . S
C237 C236 1.373 . S
C237 C238 1.396 . S
C237 C244 1.403 . S
C238 C228 1.476 . S
C238 N233 1.318 . S
C238 C237 1.396 . S
H239 C234 0.929 . S
O240 Mn216 2.385 . S
O240 C218 1.234 . S
O241 Mn216 2.209 . S
O241 Mn217 2.215 . S
O241 C218 1.283 . S
O242 Mn216 2.094 . S
O242 C220 1.240 . S
O243 Mn217 2.117 . S
O243 C220 1.264 . S
C244 C237 1.403 . S
C244 C245 1.399 . S
C244 H250 0.929 . S
C245 C225 1.449 . S
C245 C244 1.399 . S
C245 H251 0.930 . S
H246 C226 0.931 . S
H247 C227 0.930 . S
H248 C235 0.931 . S
H249 C236 0.929 . S
H250 C244 0.929 . S
H251 C245 0.930 . S
Mn252 O257 2.095 . S
Mn252 O267 2.162 . S
Mn252 O268 2.297 . S
Mn252 O276 2.385 . S
Mn252 O277 2.209 . S
Mn252 O278 2.094 . S
Mn253 O258 2.121 . S
Mn253 N260 2.257 . S
Mn253 N269 2.282 . S
Mn253 O277 2.215 . S
Mn253 O279 2.117 . S
C254 O276 1.234 . S
C254 O277 1.283 . S
C255 O267 1.281 . S
C255 O268 1.236 . S
C256 O278 1.240 . S
C256 O279 1.264 . S
O257 Mn252 2.095 . S
O257 C266 1.250 . S
O258 Mn253 2.121 . S
O258 C266 1.258 . S
C259 N260 1.326 . S
C259 C263 1.460 . S
C259 H265 0.929 . S
N260 Mn253 2.257 . S
N260 C259 1.326 . S
N260 C264 1.362 . S
C261 C262 1.258 . S
C261 C264 1.431 . S
C261 C281 1.449 . S
C262 C261 1.258 . S
C262 C263 1.477 . S
C262 H282 0.931 . S
C263 C259 1.460 . S
C263 C262 1.477 . S
C263 H283 0.930 . S
C264 N260 1.362 . S
C264 C261 1.431 . S
C264 C274 1.476 . S
H265 C259 0.929 . S
C266 O257 1.250 . S
C266 O258 1.258 . S
O267 Mn252 2.162 . S
O267 C255 1.281 . S
O268 Mn252 2.297 . S
O268 C255 1.236 . S
N269 Mn253 2.282 . S
N269 C270 1.328 . S
N269 C274 1.318 . S
C270 N269 1.328 . S
C270 C271 1.457 . S
C270 H275 0.929 . S
C271 C270 1.457 . S
C271 C272 1.291 . S
C271 H284 0.931 . S
C272 C271 1.291 . S
C272 C273 1.373 . S
C272 H285 0.929 1_556 S
C273 C272 1.373 . S
C273 C274 1.396 . S
C273 C280 1.403 . S
C274 C264 1.476 . S
C274 N269 1.318 . S
C274 C273 1.396 . S
H275 C270 0.929 . S
O276 Mn252 2.385 . S
O276 C254 1.234 . S
O277 Mn252 2.209 . S
O277 Mn253 2.215 . S
O277 C254 1.283 . S
O278 Mn252 2.094 . S
O278 C256 1.240 . S
O279 Mn253 2.117 . S
O279 C256 1.264 . S
C280 C273 1.403 . S
C280 C281 1.399 . S
C280 H286 0.929 . S
C281 C261 1.449 . S
C281 C280 1.399 . S
C281 H287 0.930 . S
H282 C262 0.931 . S
H283 C263 0.930 . S
H284 C271 0.931 . S
H285 C272 0.929 1_554 S
H286 C280 0.929 . S
H287 C281 0.930 . S
Mn288 O293 2.095 . S
Mn288 O303 2.162 . S
Mn288 O304 2.297 . S
Mn288 O312 2.385 . S
Mn288 O313 2.209 . S
Mn288 O314 2.094 . S
Mn289 O294 2.121 . S
Mn289 N296 2.257 . S
Mn289 N305 2.282 . S
Mn289 O313 2.215 . S
Mn289 O315 2.117 . S
C290 O312 1.234 . S
C290 O313 1.283 . S
C291 O303 1.281 . S
C291 O304 1.236 . S
C292 O314 1.240 . S
C292 O315 1.264 . S
O293 Mn288 2.095 . S
O293 C302 1.250 . S
O294 Mn289 2.121 . S
O294 C302 1.258 . S
C295 N296 1.326 . S
C295 C299 1.460 . S
C295 H301 0.929 . S
N296 Mn289 2.257 . S
N296 C295 1.326 . S
N296 C300 1.362 . S
C297 C298 1.258 . S
C297 C300 1.431 . S
C297 C317 1.449 . S
C298 C297 1.258 . S
C298 C299 1.477 . S
C298 H318 0.931 . S
C299 C295 1.460 . S
C299 C298 1.477 . S
C299 H319 0.930 . S
C300 N296 1.362 . S
C300 C297 1.431 . S
C300 C310 1.476 . S
H301 C295 0.929 . S
C302 O293 1.250 . S
C302 O294 1.258 . S
O303 Mn288 2.162 . S
O303 C291 1.281 . S
O304 Mn288 2.297 . S
O304 C291 1.236 . S
N305 Mn289 2.282 . S
N305 C306 1.328 . S
N305 C310 1.318 . S
C306 N305 1.328 . S
C306 C307 1.457 . S
C306 H311 0.929 . S
C307 C306 1.457 . S
C307 C308 1.291 . S
C307 H320 0.931 . S
C308 C307 1.291 . S
C308 C309 1.373 . S
C308 H321 0.929 1_556 S
C309 C308 1.373 . S
C309 C310 1.396 . S
C309 C316 1.403 . S
C310 C300 1.476 . S
C310 N305 1.318 . S
C310 C309 1.396 . S
H311 C306 0.929 . S
O312 Mn288 2.385 . S
O312 C290 1.234 . S
O313 Mn288 2.209 . S
O313 Mn289 2.215 . S
O313 C290 1.283 . S
O314 Mn288 2.094 . S
O314 C292 1.240 . S
O315 Mn289 2.117 . S
O315 C292 1.264 . S
C316 C309 1.403 . S
C316 C317 1.399 . S
C316 H322 0.929 . S
C317 C297 1.449 . S
C317 C316 1.399 . S
C317 H323 0.930 . S
H318 C298 0.931 . S
H319 C299 0.930 . S
H320 C307 0.931 . S
H321 C308 0.929 1_554 S
H322 C316 0.929 . S
H323 C317 0.930 . S
Mn324 O329 2.095 . S
Mn324 O339 2.162 . S
Mn324 O340 2.297 . S
Mn324 O348 2.385 . S
Mn324 O349 2.209 . S
Mn324 O350 2.094 . S
Mn325 O330 2.121 . S
Mn325 N332 2.257 . S
Mn325 N341 2.282 . S
Mn325 O349 2.215 . S
Mn325 O351 2.117 . S
C326 O348 1.234 . S
C326 O349 1.283 . S
C327 O339 1.281 . S
C327 O340 1.236 . S
C328 O350 1.240 . S
C328 O351 1.264 . S
O329 Mn324 2.095 . S
O329 C338 1.250 . S
O330 Mn325 2.121 . S
O330 C338 1.258 . S
C331 N332 1.326 . S
C331 C335 1.460 . S
C331 H337 0.929 . S
N332 Mn325 2.257 . S
N332 C331 1.326 . S
N332 C336 1.362 . S
C333 C334 1.258 . S
C333 C336 1.431 . S
C333 C353 1.449 . S
C334 C333 1.258 . S
C334 C335 1.477 . S
C334 H354 0.931 . S
C335 C331 1.460 . S
C335 C334 1.477 . S
C335 H355 0.930 . S
C336 N332 1.362 . S
C336 C333 1.431 . S
C336 C346 1.476 . S
H337 C331 0.929 . S
C338 O329 1.250 . S
C338 O330 1.258 . S
O339 Mn324 2.162 . S
O339 C327 1.281 . S
O340 Mn324 2.297 . S
O340 C327 1.236 . S
N341 Mn325 2.282 . S
N341 C342 1.328 . S
N341 C346 1.318 . S
C342 N341 1.328 . S
C342 C343 1.457 . S
C342 H347 0.929 . S
C343 C342 1.457 . S
C343 C344 1.291 . S
C343 H356 0.931 . S
C344 C343 1.291 . S
C344 C345 1.373 . S
C344 H357 0.929 . S
C345 C344 1.373 . S
C345 C346 1.396 . S
C345 C352 1.403 . S
C346 C336 1.476 . S
C346 N341 1.318 . S
C346 C345 1.396 . S
H347 C342 0.929 . S
O348 Mn324 2.385 . S
O348 C326 1.234 . S
O349 Mn324 2.209 . S
O349 Mn325 2.215 . S
O349 C326 1.283 . S
O350 Mn324 2.094 . S
O350 C328 1.240 . S
O351 Mn325 2.117 . S
O351 C328 1.264 . S
C352 C345 1.403 . S
C352 C353 1.399 . S
C352 H358 0.929 . S
C353 C333 1.449 . S
C353 C352 1.399 . S
C353 H359 0.930 . S
H354 C334 0.931 . S
H355 C335 0.930 . S
H356 C343 0.931 . S
H357 C344 0.929 . S
H358 C352 0.929 . S
H359 C353 0.930 . S
Mn360 O365 2.095 . S
Mn360 O375 2.162 . S
Mn360 O376 2.297 . S
Mn360 O384 2.385 . S
Mn360 O385 2.209 . S
Mn360 O386 2.094 . S
Mn361 O366 2.121 . S
Mn361 N368 2.257 . S
Mn361 N377 2.282 . S
Mn361 O385 2.215 . S
Mn361 O387 2.117 . S
C362 O384 1.234 . S
C362 O385 1.283 . S
C363 O375 1.281 . S
C363 O376 1.236 . S
C364 O386 1.240 . S
C364 O387 1.264 . S
O365 Mn360 2.095 . S
O365 C374 1.250 . S
O366 Mn361 2.121 . S
O366 C374 1.258 . S
C367 N368 1.326 . S
C367 C371 1.460 . S
C367 H373 0.929 . S
N368 Mn361 2.257 . S
N368 C367 1.326 . S
N368 C372 1.362 . S
C369 C370 1.258 . S
C369 C372 1.431 . S
C369 C389 1.449 . S
C370 C369 1.258 . S
C370 C371 1.477 . S
C370 H390 0.931 . S
C371 C367 1.460 . S
C371 C370 1.477 . S
C371 H391 0.930 . S
C372 N368 1.362 . S
C372 C369 1.431 . S
C372 C382 1.476 . S
H373 C367 0.929 . S
C374 O365 1.250 . S
C374 O366 1.258 . S
O375 Mn360 2.162 . S
O375 C363 1.281 . S
O376 Mn360 2.297 . S
O376 C363 1.236 . S
N377 Mn361 2.282 . S
N377 C378 1.328 . S
N377 C382 1.318 . S
C378 N377 1.328 . S
C378 C379 1.457 . S
C378 H383 0.929 . S
C379 C378 1.457 . S
C379 C380 1.291 . S
C379 H392 0.931 . S
C380 C379 1.291 . S
C380 C381 1.373 . S
C380 H393 0.929 . S
C381 C380 1.373 . S
C381 C382 1.396 . S
C381 C388 1.403 . S
C382 C372 1.476 . S
C382 N377 1.318 . S
C382 C381 1.396 . S
H383 C378 0.929 . S
O384 Mn360 2.385 . S
O384 C362 1.234 . S
O385 Mn360 2.209 . S
O385 Mn361 2.215 . S
O385 C362 1.283 . S
O386 Mn360 2.094 . S
O386 C364 1.240 . S
O387 Mn361 2.117 . S
O387 C364 1.264 . S
C388 C381 1.403 . S
C388 C389 1.399 . S
C388 H394 0.929 . S
C389 C369 1.449 . S
C389 C388 1.399 . S
C389 H395 0.930 . S
H390 C370 0.931 . S
H391 C371 0.930 . S
H392 C379 0.931 . S
H393 C380 0.929 . S
H394 C388 0.929 . S
H395 C389 0.930 . S
Mn396 O401 2.095 . S
Mn396 O411 2.162 . S
Mn396 O412 2.297 . S
Mn396 O420 2.385 . S
Mn396 O421 2.209 . S
Mn396 O422 2.094 . S
Mn397 O402 2.121 . S
Mn397 N404 2.257 . S
Mn397 N413 2.282 . S
Mn397 O421 2.215 . S
Mn397 O423 2.117 . S
C398 O420 1.234 . S
C398 O421 1.283 . S
C399 O411 1.281 . S
C399 O412 1.236 . S
C400 O422 1.240 . S
C400 O423 1.264 . S
O401 Mn396 2.095 . S
O401 C410 1.250 . S
O402 Mn397 2.121 . S
O402 C410 1.258 . S
C403 N404 1.326 . S
C403 C407 1.460 . S
C403 H409 0.929 . S
N404 Mn397 2.257 . S
N404 C403 1.326 . S
N404 C408 1.362 . S
C405 C406 1.258 . S
C405 C408 1.431 . S
C405 C425 1.449 . S
C406 C405 1.258 . S
C406 C407 1.477 . S
C406 H426 0.931 . S
C407 C403 1.460 . S
C407 C406 1.477 . S
C407 H427 0.930 . S
C408 N404 1.362 . S
C408 C405 1.431 . S
C408 C418 1.476 . S
H409 C403 0.929 . S
C410 O401 1.250 . S
C410 O402 1.258 . S
O411 Mn396 2.162 . S
O411 C399 1.281 . S
O412 Mn396 2.297 . S
O412 C399 1.236 . S
N413 Mn397 2.282 . S
N413 C414 1.328 . S
N413 C418 1.318 . S
C414 N413 1.328 . S
C414 C415 1.457 . S
C414 H419 0.929 . S
C415 C414 1.457 . S
C415 C416 1.291 . S
C415 H428 0.931 . S
C416 C415 1.291 . S
C416 C417 1.373 . S
C416 H429 0.929 . S
C417 C416 1.373 . S
C417 C418 1.396 . S
C417 C424 1.403 . S
C418 C408 1.476 . S
C418 N413 1.318 . S
C418 C417 1.396 . S
H419 C414 0.929 . S
O420 Mn396 2.385 . S
O420 C398 1.234 . S
O421 Mn396 2.209 . S
O421 Mn397 2.215 . S
O421 C398 1.283 . S
O422 Mn396 2.094 . S
O422 C400 1.240 . S
O423 Mn397 2.117 . S
O423 C400 1.264 . S
C424 C417 1.403 . S
C424 C425 1.399 . S
C424 H430 0.929 . S
C425 C405 1.449 . S
C425 C424 1.399 . S
C425 H431 0.930 . S
H426 C406 0.931 . S
H427 C407 0.930 . S
H428 C415 0.931 . S
H429 C416 0.929 . S
H430 C424 0.929 . S
H431 C425 0.930 . S
Mn432 O437 2.095 . S
Mn432 O447 2.162 . S
Mn432 O448 2.297 . S
Mn432 O456 2.385 . S
Mn432 O457 2.209 . S
Mn432 O458 2.094 . S
Mn433 O438 2.121 . S
Mn433 N440 2.257 . S
Mn433 N449 2.282 . S
Mn433 O457 2.215 . S
Mn433 O459 2.117 . S
C434 O456 1.234 . S
C434 O457 1.283 . S
C435 O447 1.281 . S
C435 O448 1.236 . S
C436 O458 1.240 . S
C436 O459 1.264 . S
O437 Mn432 2.095 . S
O437 C446 1.250 . S
O438 Mn433 2.121 . S
O438 C446 1.258 . S
C439 N440 1.326 . S
C439 C443 1.460 . S
C439 H445 0.929 . S
N440 Mn433 2.257 . S
N440 C439 1.326 . S
N440 C444 1.362 . S
C441 C442 1.258 . S
C441 C444 1.431 . S
C441 C461 1.449 . S
C442 C441 1.258 . S
C442 C443 1.477 . S
C442 H462 0.931 . S
C443 C439 1.460 . S
C443 C442 1.477 . S
C443 H463 0.930 . S
C444 N440 1.362 . S
C444 C441 1.431 . S
C444 C454 1.476 . S
H445 C439 0.929 . S
C446 O437 1.250 . S
C446 O438 1.258 . S
O447 Mn432 2.162 . S
O447 C435 1.281 . S
O448 Mn432 2.297 . S
O448 C435 1.236 . S
N449 Mn433 2.282 . S
N449 C450 1.328 . S
N449 C454 1.318 . S
C450 N449 1.328 . S
C450 C451 1.457 . S
C450 H455 0.929 . S
C451 C450 1.457 . S
C451 C452 1.291 . S
C451 H464 0.931 . S
C452 C451 1.291 . S
C452 C453 1.373 . S
C452 H465 0.929 . S
C453 C452 1.373 . S
C453 C454 1.396 . S
C453 C460 1.403 . S
C454 C444 1.476 . S
C454 N449 1.318 . S
C454 C453 1.396 . S
H455 C450 0.929 . S
O456 Mn432 2.385 . S
O456 C434 1.234 . S
O457 Mn432 2.209 . S
O457 Mn433 2.215 . S
O457 C434 1.283 . S
O458 Mn432 2.094 . S
O458 C436 1.240 . S
O459 Mn433 2.117 . S
O459 C436 1.264 . S
C460 C453 1.403 . S
C460 C461 1.399 . S
C460 H466 0.929 . S
C461 C441 1.449 . S
C461 C460 1.399 . S
C461 H467 0.930 . S
H462 C442 0.931 . S
H463 C443 0.930 . S
H464 C451 0.931 . S
H465 C452 0.929 . S
H466 C460 0.929 . S
H467 C461 0.930 . S
Mn468 O473 2.095 . S
Mn468 O483 2.162 . S
Mn468 O484 2.297 . S
Mn468 O492 2.385 . S
Mn468 O493 2.209 . S
Mn468 O494 2.094 . S
Mn469 O474 2.121 . S
Mn469 N476 2.257 . S
Mn469 N485 2.282 . S
Mn469 O493 2.215 . S
Mn469 O495 2.117 . S
C470 O492 1.234 . S
C470 O493 1.283 . S
C471 O483 1.281 . S
C471 O484 1.236 . S
C472 O494 1.240 . S
C472 O495 1.264 . S
O473 Mn468 2.095 . S
O473 C482 1.250 . S
O474 Mn469 2.121 . S
O474 C482 1.258 . S
C475 N476 1.326 . S
C475 C479 1.460 . S
C475 H481 0.929 . S
N476 Mn469 2.257 . S
N476 C475 1.326 . S
N476 C480 1.362 . S
C477 C478 1.258 . S
C477 C480 1.431 . S
C477 C497 1.449 . S
C478 C477 1.258 . S
C478 C479 1.477 . S
C478 H498 0.931 . S
C479 C475 1.460 . S
C479 C478 1.477 . S
C479 H499 0.930 . S
C480 N476 1.362 . S
C480 C477 1.431 . S
C480 C490 1.476 . S
H481 C475 0.929 . S
C482 O473 1.250 . S
C482 O474 1.258 . S
O483 Mn468 2.162 . S
O483 C471 1.281 . S
O484 Mn468 2.297 . S
O484 C471 1.236 . S
N485 Mn469 2.282 . S
N485 C486 1.328 . S
N485 C490 1.318 . S
C486 N485 1.328 . S
C486 C487 1.457 . S
C486 H491 0.929 . S
C487 C486 1.457 . S
C487 C488 1.291 . S
C487 H500 0.931 . S
C488 C487 1.291 . S
C488 C489 1.373 . S
C488 H501 0.929 . S
C489 C488 1.373 . S
C489 C490 1.396 . S
C489 C496 1.403 . S
C490 C480 1.476 . S
C490 N485 1.318 . S
C490 C489 1.396 . S
H491 C486 0.929 . S
O492 Mn468 2.385 . S
O492 C470 1.234 . S
O493 Mn468 2.209 . S
O493 Mn469 2.215 . S
O493 C470 1.283 . S
O494 Mn468 2.094 . S
O494 C472 1.240 . S
O495 Mn469 2.117 . S
O495 C472 1.264 . S
C496 C489 1.403 . S
C496 C497 1.399 . S
C496 H502 0.929 . S
C497 C477 1.449 . S
C497 C496 1.399 . S
C497 H503 0.930 . S
H498 C478 0.931 . S
H499 C479 0.930 . S
H500 C487 0.931 . S
H501 C488 0.929 . S
H502 C496 0.929 . S
H503 C497 0.930 . S
Mn504 O509 2.095 . S
Mn504 O519 2.162 . S
Mn504 O520 2.297 . S
Mn504 O528 2.385 . S
Mn504 O529 2.209 . S
Mn504 O530 2.094 . S
Mn505 O510 2.121 . S
Mn505 N512 2.257 . S
Mn505 N521 2.282 . S
Mn505 O529 2.215 . S
Mn505 O531 2.117 . S
C506 O528 1.234 . S
C506 O529 1.283 . S
C507 O519 1.281 . S
C507 O520 1.236 . S
C508 O530 1.240 . S
C508 O531 1.264 . S
O509 Mn504 2.095 . S
O509 C518 1.250 . S
O510 Mn505 2.121 . S
O510 C518 1.258 . S
C511 N512 1.326 . S
C511 C515 1.460 . S
C511 H517 0.929 . S
N512 Mn505 2.257 . S
N512 C511 1.326 . S
N512 C516 1.362 . S
C513 C514 1.258 . S
C513 C516 1.431 . S
C513 C533 1.449 . S
C514 C513 1.258 . S
C514 C515 1.477 . S
C514 H534 0.931 . S
C515 C511 1.460 . S
C515 C514 1.477 . S
C515 H535 0.930 . S
C516 N512 1.362 . S
C516 C513 1.431 . S
C516 C526 1.476 . S
H517 C511 0.929 . S
C518 O509 1.250 . S
C518 O510 1.258 . S
O519 Mn504 2.162 . S
O519 C507 1.281 . S
O520 Mn504 2.297 . S
O520 C507 1.236 . S
N521 Mn505 2.282 . S
N521 C522 1.328 . S
N521 C526 1.318 . S
C522 N521 1.328 . S
C522 C523 1.457 . S
C522 H527 0.929 . S
C523 C522 1.457 . S
C523 C524 1.291 . S
C523 H536 0.931 . S
C524 C523 1.291 . S
C524 C525 1.373 . S
C524 H537 0.929 . S
C525 C524 1.373 . S
C525 C526 1.396 . S
C525 C532 1.403 . S
C526 C516 1.476 . S
C526 N521 1.318 . S
C526 C525 1.396 . S
H527 C522 0.929 . S
O528 Mn504 2.385 . S
O528 C506 1.234 . S
O529 Mn504 2.209 . S
O529 Mn505 2.215 . S
O529 C506 1.283 . S
O530 Mn504 2.094 . S
O530 C508 1.240 . S
O531 Mn505 2.117 . S
O531 C508 1.264 . S
C532 C525 1.403 . S
C532 C533 1.399 . S
C532 H538 0.929 . S
C533 C513 1.449 . S
C533 C532 1.399 . S
C533 H539 0.930 . S
H534 C514 0.931 . S
H535 C515 0.930 . S
H536 C523 0.931 . S
H537 C524 0.929 . S
H538 C532 0.929 . S
H539 C533 0.930 . S
Mn540 O545 2.095 . S
Mn540 O555 2.162 . S
Mn540 O556 2.297 . S
Mn540 O564 2.385 . S
Mn540 O565 2.209 . S
Mn540 O566 2.094 . S
Mn541 O546 2.121 . S
Mn541 N548 2.257 . S
Mn541 N557 2.282 . S
Mn541 O565 2.215 . S
Mn541 O567 2.117 . S
C542 O564 1.234 . S
C542 O565 1.283 . S
C543 O555 1.281 . S
C543 O556 1.236 . S
C544 O566 1.240 . S
C544 O567 1.264 . S
O545 Mn540 2.095 . S
O545 C554 1.250 . S
O546 Mn541 2.121 . S
O546 C554 1.258 . S
C547 N548 1.326 . S
C547 C551 1.460 . S
C547 H553 0.929 . S
N548 Mn541 2.257 . S
N548 C547 1.326 . S
N548 C552 1.362 . S
C549 C550 1.258 . S
C549 C552 1.431 . S
C549 C569 1.449 . S
C550 C549 1.258 . S
C550 C551 1.477 . S
C550 H570 0.931 . S
C551 C547 1.460 . S
C551 C550 1.477 . S
C551 H571 0.930 . S
C552 N548 1.362 . S
C552 C549 1.431 . S
C552 C562 1.476 . S
H553 C547 0.929 . S
C554 O545 1.250 . S
C554 O546 1.258 . S
O555 Mn540 2.162 . S
O555 C543 1.281 . S
O556 Mn540 2.297 . S
O556 C543 1.236 . S
N557 Mn541 2.282 . S
N557 C558 1.328 . S
N557 C562 1.318 . S
C558 N557 1.328 . S
C558 C559 1.457 . S
C558 H563 0.929 . S
C559 C558 1.457 . S
C559 C560 1.291 . S
C559 H572 0.931 . S
C560 C559 1.291 . S
C560 C561 1.373 . S
C560 H573 0.929 . S
C561 C560 1.373 . S
C561 C562 1.396 . S
C561 C568 1.403 . S
C562 C552 1.476 . S
C562 N557 1.318 . S
C562 C561 1.396 . S
H563 C558 0.929 . S
O564 Mn540 2.385 . S
O564 C542 1.234 . S
O565 Mn540 2.209 . S
O565 Mn541 2.215 . S
O565 C542 1.283 . S
O566 Mn540 2.094 . S
O566 C544 1.240 . S
O567 Mn541 2.117 . S
O567 C544 1.264 . S
C568 C561 1.403 . S
C568 C569 1.399 . S
C568 H574 0.929 . S
C569 C549 1.449 . S
C569 C568 1.399 . S
C569 H575 0.930 . S
H570 C550 0.931 . S
H571 C551 0.930 . S
H572 C559 0.931 . S
H573 C560 0.929 . S
H574 C568 0.929 . S
H575 C569 0.930 . S
Mn576 O581 2.095 . S
Mn576 O591 2.162 . S
Mn576 O592 2.297 . S
Mn576 O600 2.385 . S
Mn576 O601 2.209 . S
Mn576 O602 2.094 . S
Mn577 O582 2.121 . S
Mn577 N584 2.257 . S
Mn577 N593 2.282 . S
Mn577 O601 2.215 . S
Mn577 O603 2.117 . S
C578 O600 1.234 . S
C578 O601 1.283 . S
C579 O591 1.281 . S
C579 O592 1.236 . S
C580 O602 1.240 . S
C580 O603 1.264 . S
O581 Mn576 2.095 . S
O581 C590 1.250 . S
O582 Mn577 2.121 . S
O582 C590 1.258 . S
C583 N584 1.326 . S
C583 C587 1.460 . S
C583 H589 0.929 . S
N584 Mn577 2.257 . S
N584 C583 1.326 . S
N584 C588 1.362 . S
C585 C586 1.258 . S
C585 C588 1.431 . S
C585 C605 1.449 . S
C586 C585 1.258 . S
C586 C587 1.477 . S
C586 H606 0.931 . S
C587 C583 1.460 . S
C587 C586 1.477 . S
C587 H607 0.930 . S
C588 N584 1.362 . S
C588 C585 1.431 . S
C588 C598 1.476 . S
H589 C583 0.929 . S
C590 O581 1.250 . S
C590 O582 1.258 . S
O591 Mn576 2.162 . S
O591 C579 1.281 . S
O592 Mn576 2.297 . S
O592 C579 1.236 . S
N593 Mn577 2.282 . S
N593 C594 1.328 . S
N593 C598 1.318 . S
C594 N593 1.328 . S
C594 C595 1.457 . S
C594 H599 0.929 . S
C595 C594 1.457 . S
C595 C596 1.291 . S
C595 H608 0.931 . S
C596 C595 1.291 . S
C596 C597 1.373 . S
C596 H609 0.929 . S
C597 C596 1.373 . S
C597 C598 1.396 . S
C597 C604 1.403 . S
C598 C588 1.476 . S
C598 N593 1.318 . S
C598 C597 1.396 . S
H599 C594 0.929 . S
O600 Mn576 2.385 . S
O600 C578 1.234 . S
O601 Mn576 2.209 . S
O601 Mn577 2.215 . S
O601 C578 1.283 . S
O602 Mn576 2.094 . S
O602 C580 1.240 . S
O603 Mn577 2.117 . S
O603 C580 1.264 . S
C604 C597 1.403 . S
C604 C605 1.399 . S
C604 H610 0.929 . S
C605 C585 1.449 . S
C605 C604 1.399 . S
C605 H611 0.930 . S
H606 C586 0.931 . S
H607 C587 0.930 . S
H608 C595 0.931 . S
H609 C596 0.929 . S
H610 C604 0.929 . S
H611 C605 0.930 . S
Mn612 O617 2.095 . S
Mn612 O627 2.162 . S
Mn612 O628 2.297 . S
Mn612 O636 2.385 . S
Mn612 O637 2.209 . S
Mn612 O638 2.094 . S
Mn613 O618 2.121 . S
Mn613 N620 2.257 . S
Mn613 N629 2.282 . S
Mn613 O637 2.215 . S
Mn613 O639 2.117 . S
C614 O636 1.234 . S
C614 O637 1.283 . S
C615 O627 1.281 . S
C615 O628 1.236 . S
C616 O638 1.240 . S
C616 O639 1.264 . S
O617 Mn612 2.095 . S
O617 C626 1.250 . S
O618 Mn613 2.121 . S
O618 C626 1.258 . S
C619 N620 1.326 . S
C619 C623 1.460 . S
C619 H625 0.929 . S
N620 Mn613 2.257 . S
N620 C619 1.326 . S
N620 C624 1.362 . S
C621 C622 1.258 . S
C621 C624 1.431 . S
C621 C641 1.449 . S
C622 C621 1.258 . S
C622 C623 1.477 . S
C622 H642 0.931 . S
C623 C619 1.460 . S
C623 C622 1.477 . S
C623 H643 0.930 . S
C624 N620 1.362 . S
C624 C621 1.431 . S
C624 C634 1.476 . S
H625 C619 0.929 . S
C626 O617 1.250 . S
C626 O618 1.258 . S
O627 Mn612 2.162 . S
O627 C615 1.281 . S
O628 Mn612 2.297 . S
O628 C615 1.236 . S
N629 Mn613 2.282 . S
N629 C630 1.328 . S
N629 C634 1.318 . S
C630 N629 1.328 . S
C630 C631 1.457 . S
C630 H635 0.929 . S
C631 C630 1.457 . S
C631 C632 1.291 . S
C631 H644 0.931 . S
C632 C631 1.291 . S
C632 C633 1.373 . S
C632 H645 0.929 . S
C633 C632 1.373 . S
C633 C634 1.396 . S
C633 C640 1.403 . S
C634 C624 1.476 . S
C634 N629 1.318 . S
C634 C633 1.396 . S
H635 C630 0.929 . S
O636 Mn612 2.385 . S
O636 C614 1.234 . S
O637 Mn612 2.209 . S
O637 Mn613 2.215 . S
O637 C614 1.283 . S
O638 Mn612 2.094 . S
O638 C616 1.240 . S
O639 Mn613 2.117 . S
O639 C616 1.264 . S
C640 C633 1.403 . S
C640 C641 1.399 . S
C640 H646 0.929 . S
C641 C621 1.449 . S
C641 C640 1.399 . S
C641 H647 0.930 . S
H642 C622 0.931 . S
H643 C623 0.930 . S
H644 C631 0.931 . S
H645 C632 0.929 . S
H646 C640 0.929 . S
H647 C641 0.930 . S
Mn648 O653 2.095 . S
Mn648 O663 2.162 . S
Mn648 O664 2.297 . S
Mn648 O672 2.385 . S
Mn648 O673 2.209 . S
Mn648 O674 2.094 . S
Mn649 O654 2.121 . S
Mn649 N656 2.257 . S
Mn649 N665 2.289 . S
Mn649 O673 2.215 . S
Mn649 O675 2.111 1_554 S
C650 O672 1.234 . S
C650 O673 1.283 . S
C651 O663 1.281 . S
C651 O664 1.236 . S
C652 O674 1.240 . S
C652 O675 1.262 1_554 S
O653 Mn648 2.095 . S
O653 C662 1.250 . S
O654 Mn649 2.121 . S
O654 C662 1.258 . S
C655 N656 1.326 . S
C655 C659 1.460 . S
C655 H661 0.929 . S
N656 Mn649 2.257 . S
N656 C655 1.326 . S
N656 C660 1.362 . S
C657 C658 1.258 . S
C657 C660 1.431 . S
C657 C677 1.449 . S
C658 C657 1.258 . S
C658 C659 1.477 . S
C658 H678 0.931 . S
C659 C655 1.460 . S
C659 C658 1.477 . S
C659 H679 0.930 . S
C660 N656 1.362 . S
C660 C657 1.431 . S
C660 C670 1.476 . S
H661 C655 0.929 . S
C662 O653 1.250 . S
C662 O654 1.258 . S
O663 Mn648 2.162 . S
O663 C651 1.281 . S
O664 Mn648 2.297 . S
O664 C651 1.236 . S
N665 Mn649 2.289 . S
N665 C666 1.321 1_554 S
N665 C670 1.319 . S
C666 N665 1.321 1_556 S
C666 C667 1.457 . S
C666 H671 0.929 . S
C667 C666 1.457 . S
C667 C668 1.291 . S
C667 H680 0.931 . S
C668 C667 1.291 . S
C668 C669 1.373 . S
C668 H681 0.929 . S
C669 C668 1.373 . S
C669 C670 1.396 1_556 S
C669 C676 1.403 . S
C670 C660 1.476 . S
C670 N665 1.319 . S
C670 C669 1.396 1_554 S
H671 C666 0.929 . S
O672 Mn648 2.385 . S
O672 C650 1.234 . S
O673 Mn648 2.209 . S
O673 Mn649 2.215 . S
O673 C650 1.283 . S
O674 Mn648 2.094 . S
O674 C652 1.240 . S
O675 Mn649 2.111 1_556 S
O675 C652 1.262 1_556 S
C676 C669 1.403 . S
C676 C677 1.399 1_556 S
C676 H682 0.929 . S
C677 C657 1.449 . S
C677 C676 1.399 1_554 S
C677 H683 0.930 . S
H678 C658 0.931 . S
H679 C659 0.930 . S
H680 C667 0.931 . S
H681 C668 0.929 . S
H682 C676 0.929 . S
H683 C677 0.930 . S
Mn684 O689 2.095 . S
Mn684 O699 2.162 . S
Mn684 O700 2.297 . S
Mn684 O708 2.385 . S
Mn684 O709 2.209 . S
Mn684 O710 2.094 . S
Mn685 O690 2.121 . S
Mn685 N692 2.257 . S
Mn685 N701 2.282 . S
Mn685 O709 2.215 . S
Mn685 O711 2.117 . S
C686 O708 1.234 . S
C686 O709 1.283 . S
C687 O699 1.281 . S
C687 O700 1.236 . S
C688 O710 1.240 . S
C688 O711 1.264 . S
O689 Mn684 2.095 . S
O689 C698 1.250 . S
O690 Mn685 2.121 . S
O690 C698 1.258 . S
C691 N692 1.326 . S
C691 C695 1.460 . S
C691 H697 0.929 . S
N692 Mn685 2.257 . S
N692 C691 1.326 . S
N692 C696 1.362 . S
C693 C694 1.258 . S
C693 C696 1.431 . S
C693 C713 1.449 . S
C694 C693 1.258 . S
C694 C695 1.477 . S
C694 H714 0.931 . S
C695 C691 1.460 . S
C695 C694 1.477 . S
C695 H715 0.930 . S
C696 N692 1.362 . S
C696 C693 1.431 . S
C696 C706 1.476 . S
H697 C691 0.929 . S
C698 O689 1.250 . S
C698 O690 1.258 . S
O699 Mn684 2.162 . S
O699 C687 1.281 . S
O700 Mn684 2.297 . S
O700 C687 1.236 . S
N701 Mn685 2.282 . S
N701 C702 1.328 . S
N701 C706 1.318 . S
C702 N701 1.328 . S
C702 C703 1.457 . S
C702 H707 0.929 . S
C703 C702 1.457 . S
C703 C704 1.291 . S
C703 H716 0.931 . S
C704 C703 1.291 . S
C704 C705 1.373 . S
C704 H717 0.929 . S
C705 C704 1.373 . S
C705 C706 1.396 . S
C705 C712 1.403 . S
C706 C696 1.476 . S
C706 N701 1.318 . S
C706 C705 1.396 . S
H707 C702 0.929 . S
O708 Mn684 2.385 . S
O708 C686 1.234 . S
O709 Mn684 2.209 . S
O709 Mn685 2.215 . S
O709 C686 1.283 . S
O710 Mn684 2.094 . S
O710 C688 1.240 . S
O711 Mn685 2.117 . S
O711 C688 1.264 . S
C712 C705 1.403 . S
C712 C713 1.399 . S
C712 H718 0.929 . S
C713 C693 1.449 . S
C713 C712 1.399 . S
C713 H719 0.930 . S
H714 C694 0.931 . S
H715 C695 0.930 . S
H716 C703 0.931 . S
H717 C704 0.929 . S
H718 C712 0.929 . S
H719 C713 0.930 . S
Mn720 O725 2.095 . S
Mn720 O735 2.162 . S
Mn720 O736 2.297 . S
Mn720 O744 2.385 . S
Mn720 O745 2.209 . S
Mn720 O746 2.094 . S
Mn721 O726 2.121 . S
Mn721 N728 2.257 . S
Mn721 N737 2.282 . S
Mn721 O745 2.215 . S
Mn721 O747 2.117 . S
C722 O744 1.234 . S
C722 O745 1.283 . S
C723 O735 1.281 . S
C723 O736 1.236 . S
C724 O746 1.240 . S
C724 O747 1.264 . S
O725 Mn720 2.095 . S
O725 C734 1.250 . S
O726 Mn721 2.121 . S
O726 C734 1.258 . S
C727 N728 1.326 . S
C727 C731 1.460 . S
C727 H733 0.929 . S
N728 Mn721 2.257 . S
N728 C727 1.326 . S
N728 C732 1.362 . S
C729 C730 1.258 . S
C729 C732 1.431 . S
C729 C749 1.449 . S
C730 C729 1.258 . S
C730 C731 1.477 . S
C730 H750 0.931 . S
C731 C727 1.460 . S
C731 C730 1.477 . S
C731 H751 0.930 . S
C732 N728 1.362 . S
C732 C729 1.431 . S
C732 C742 1.476 . S
H733 C727 0.929 . S
C734 O725 1.250 . S
C734 O726 1.258 . S
O735 Mn720 2.162 . S
O735 C723 1.281 . S
O736 Mn720 2.297 . S
O736 C723 1.236 . S
N737 Mn721 2.282 . S
N737 C738 1.328 . S
N737 C742 1.318 . S
C738 N737 1.328 . S
C738 C739 1.457 . S
C738 H743 0.929 . S
C739 C738 1.457 . S
C739 C740 1.291 . S
C739 H752 0.931 . S
C740 C739 1.291 . S
C740 C741 1.373 . S
C740 H753 0.929 . S
C741 C740 1.373 . S
C741 C742 1.396 . S
C741 C748 1.403 . S
C742 C732 1.476 . S
C742 N737 1.318 . S
C742 C741 1.396 . S
H743 C738 0.929 . S
O744 Mn720 2.385 . S
O744 C722 1.234 . S
O745 Mn720 2.209 . S
O745 Mn721 2.215 . S
O745 C722 1.283 . S
O746 Mn720 2.094 . S
O746 C724 1.240 . S
O747 Mn721 2.117 . S
O747 C724 1.264 . S
C748 C741 1.403 . S
C748 C749 1.399 . S
C748 H754 0.929 . S
C749 C729 1.449 . S
C749 C748 1.399 . S
C749 H755 0.930 . S
H750 C730 0.931 . S
H751 C731 0.930 . S
H752 C739 0.931 . S
H753 C740 0.929 . S
H754 C748 0.929 . S
H755 C749 0.930 . S
Mn756 O761 2.095 . S
Mn756 O771 2.162 . S
Mn756 O772 2.297 . S
Mn756 O780 2.385 1_554 S
Mn756 O781 2.209 . S
Mn756 O782 2.094 . S
Mn757 O762 2.121 . S
Mn757 N764 2.257 . S
Mn757 N773 2.282 1_554 S
Mn757 O781 2.215 . S
Mn757 O783 2.117 . S
C758 O780 1.234 . S
C758 O781 1.283 1_556 S
C759 O771 1.281 . S
C759 O772 1.236 . S
C760 O782 1.240 . S
C760 O783 1.264 . S
O761 Mn756 2.095 . S
O761 C770 1.250 . S
O762 Mn757 2.121 . S
O762 C770 1.258 . S
C763 N764 1.326 . S
C763 C767 1.460 . S
C763 H769 0.929 . S
N764 Mn757 2.257 . S
N764 C763 1.326 . S
N764 C768 1.362 1_554 S
C765 C766 1.258 . S
C765 C768 1.431 . S
C765 C785 1.449 . S
C766 C765 1.258 . S
C766 C767 1.477 1_556 S
C766 H786 0.931 . S
C767 C763 1.460 . S
C767 C766 1.477 1_554 S
C767 H787 0.930 . S
C768 N764 1.362 1_556 S
C768 C765 1.431 . S
C768 C778 1.476 . S
H769 C763 0.929 . S
C770 O761 1.250 . S
C770 O762 1.258 . S
O771 Mn756 2.162 . S
O771 C759 1.281 . S
O772 Mn756 2.297 . S
O772 C759 1.236 . S
N773 Mn757 2.282 1_556 S
N773 C774 1.328 . S
N773 C778 1.318 . S
C774 N773 1.328 . S
C774 C775 1.457 . S
C774 H779 0.929 . S
C775 C774 1.457 . S
C775 C776 1.291 . S
C775 H788 0.931 . S
C776 C775 1.291 . S
C776 C777 1.373 . S
C776 H789 0.929 . S
C777 C776 1.373 . S
C777 C778 1.396 . S
C777 C784 1.403 . S
C778 C768 1.476 . S
C778 N773 1.318 . S
C778 C777 1.396 . S
H779 C774 0.929 . S
O780 Mn756 2.385 1_556 S
O780 C758 1.234 . S
O781 Mn756 2.209 . S
O781 Mn757 2.215 . S
O781 C758 1.283 1_554 S
O782 Mn756 2.094 . S
O782 C760 1.240 . S
O783 Mn757 2.117 . S
O783 C760 1.264 . S
C784 C777 1.403 . S
C784 C785 1.399 . S
C784 H790 0.929 . S
C785 C765 1.449 . S
C785 C784 1.399 . S
C785 H791 0.930 . S
H786 C766 0.931 . S
H787 C767 0.930 . S
H788 C775 0.931 . S
H789 C776 0.929 . S
H790 C784 0.929 . S
H791 C785 0.930 . S
Mn792 O797 2.095 . S
Mn792 O807 2.162 . S
Mn792 O808 2.297 . S
Mn792 O816 2.385 1_554 S
Mn792 O817 2.209 . S
Mn792 O818 2.094 . S
Mn793 O798 2.121 . S
Mn793 N800 2.257 . S
Mn793 N809 2.282 1_554 S
Mn793 O817 2.215 . S
Mn793 O819 2.117 . S
C794 O816 1.234 . S
C794 O817 1.283 1_556 S
C795 O807 1.281 . S
C795 O808 1.236 . S
C796 O818 1.240 . S
C796 O819 1.264 . S
O797 Mn792 2.095 . S
O797 C806 1.250 . S
O798 Mn793 2.121 . S
O798 C806 1.258 . S
C799 N800 1.326 . S
C799 C803 1.460 . S
C799 H805 0.929 . S
N800 Mn793 2.257 . S
N800 C799 1.326 . S
N800 C804 1.362 1_554 S
C801 C802 1.258 . S
C801 C804 1.431 . S
C801 C821 1.449 . S
C802 C801 1.258 . S
C802 C803 1.477 1_556 S
C802 H822 0.931 . S
C803 C799 1.460 . S
C803 C802 1.477 1_554 S
C803 H823 0.930 . S
C804 N800 1.362 1_556 S
C804 C801 1.431 . S
C804 C814 1.476 . S
H805 C799 0.929 . S
C806 O797 1.250 . S
C806 O798 1.258 . S
O807 Mn792 2.162 . S
O807 C795 1.281 . S
O808 Mn792 2.297 . S
O808 C795 1.236 . S
N809 Mn793 2.282 1_556 S
N809 C810 1.328 . S
N809 C814 1.318 . S
C810 N809 1.328 . S
C810 C811 1.457 . S
C810 H815 0.929 . S
C811 C810 1.457 . S
C811 C812 1.291 . S
C811 H824 0.931 . S
C812 C811 1.291 . S
C812 C813 1.373 . S
C812 H825 0.929 . S
C813 C812 1.373 . S
C813 C814 1.396 . S
C813 C820 1.403 . S
C814 C804 1.476 . S
C814 N809 1.318 . S
C814 C813 1.396 . S
H815 C810 0.929 . S
O816 Mn792 2.385 1_556 S
O816 C794 1.234 . S
O817 Mn792 2.209 . S
O817 Mn793 2.215 . S
O817 C794 1.283 1_554 S
O818 Mn792 2.094 . S
O818 C796 1.240 . S
O819 Mn793 2.117 . S
O819 C796 1.264 . S
C820 C813 1.403 . S
C820 C821 1.399 . S
C820 H826 0.929 . S
C821 C801 1.449 . S
C821 C820 1.399 . S
C821 H827 0.930 . S
H822 C802 0.931 . S
H823 C803 0.930 . S
H824 C811 0.931 . S
H825 C812 0.929 . S
H826 C820 0.929 . S
H827 C821 0.930 . S
Mn828 O833 2.095 . S
Mn828 O843 2.162 1_554 S
Mn828 O844 2.297 1_554 S
Mn828 O852 2.385 . S
Mn828 O853 2.209 . S
Mn828 O854 2.094 . S
Mn829 O834 2.121 . S
Mn829 N836 2.257 . S
Mn829 N845 2.282 . S
Mn829 O853 2.215 . S
Mn829 O855 2.117 . S
C830 O852 1.234 . S
C830 O853 1.283 . S
C831 O843 1.281 . S
C831 O844 1.236 . S
C832 O854 1.240 . S
C832 O855 1.264 . S
O833 Mn828 2.095 . S
O833 C842 1.250 . S
O834 Mn829 2.121 . S
O834 C842 1.258 . S
C835 N836 1.326 . S
C835 C839 1.460 . S
C835 H841 0.929 . S
N836 Mn829 2.257 . S
N836 C835 1.326 . S
N836 C840 1.362 . S
C837 C838 1.258 . S
C837 C840 1.431 . S
C837 C857 1.449 . S
C838 C837 1.258 . S
C838 C839 1.477 . S
C838 H858 0.931 . S
C839 C835 1.460 . S
C839 C838 1.477 . S
C839 H859 0.930 . S
C840 N836 1.362 . S
C840 C837 1.431 . S
C840 C850 1.476 . S
H841 C835 0.929 . S
C842 O833 1.250 . S
C842 O834 1.258 . S
O843 Mn828 2.162 1_556 S
O843 C831 1.281 . S
O844 Mn828 2.297 1_556 S
O844 C831 1.236 . S
N845 Mn829 2.282 . S
N845 C846 1.328 . S
N845 C850 1.318 . S
C846 N845 1.328 . S
C846 C847 1.457 . S
C846 H851 0.929 . S
C847 C846 1.457 . S
C847 C848 1.291 . S
C847 H860 0.931 . S
C848 C847 1.291 . S
C848 C849 1.373 . S
C848 H861 0.929 . S
C849 C848 1.373 . S
C849 C850 1.396 . S
C849 C856 1.403 . S
C850 C840 1.476 . S
C850 N845 1.318 . S
C850 C849 1.396 . S
H851 C846 0.929 . S
O852 Mn828 2.385 . S
O852 C830 1.234 . S
O853 Mn828 2.209 . S
O853 Mn829 2.215 . S
O853 C830 1.283 . S
O854 Mn828 2.094 . S
O854 C832 1.240 . S
O855 Mn829 2.117 . S
O855 C832 1.264 . S
C856 C849 1.403 . S
C856 C857 1.399 . S
C856 H862 0.929 . S
C857 C837 1.449 . S
C857 C856 1.399 . S
C857 H863 0.930 . S
H858 C838 0.931 . S
H859 C839 0.930 . S
H860 C847 0.931 . S
H861 C848 0.929 . S
H862 C856 0.929 . S
H863 C857 0.930 . S
Mn864 O869 2.095 . S
Mn864 O879 2.162 . S
Mn864 O880 2.297 . S
Mn864 O888 2.385 . S
Mn864 O889 2.209 . S
Mn864 O890 2.094 . S
Mn865 O870 2.121 . S
Mn865 N872 2.257 . S
Mn865 N881 2.282 . S
Mn865 O889 2.215 . S
Mn865 O891 2.117 . S
C866 O888 1.234 . S
C866 O889 1.283 . S
C867 O879 1.281 . S
C867 O880 1.236 . S
C868 O890 1.240 . S
C868 O891 1.264 . S
O869 Mn864 2.095 . S
O869 C878 1.250 . S
O870 Mn865 2.121 . S
O870 C878 1.258 . S
C871 N872 1.326 . S
C871 C875 1.460 . S
C871 H877 0.929 . S
N872 Mn865 2.257 . S
N872 C871 1.326 . S
N872 C876 1.362 . S
C873 C874 1.258 . S
C873 C876 1.431 . S
C873 C893 1.449 . S
C874 C873 1.258 . S
C874 C875 1.477 . S
C874 H894 0.931 . S
C875 C871 1.460 . S
C875 C874 1.477 . S
C875 H895 0.930 . S
C876 N872 1.362 . S
C876 C873 1.431 . S
C876 C886 1.476 . S
H877 C871 0.929 . S
C878 O869 1.250 . S
C878 O870 1.258 . S
O879 Mn864 2.162 . S
O879 C867 1.281 . S
O880 Mn864 2.297 . S
O880 C867 1.236 . S
N881 Mn865 2.282 . S
N881 C882 1.328 . S
N881 C886 1.318 . S
C882 N881 1.328 . S
C882 C883 1.457 . S
C882 H887 0.929 . S
C883 C882 1.457 . S
C883 C884 1.291 . S
C883 H896 0.931 . S
C884 C883 1.291 . S
C884 C885 1.373 . S
C884 H897 0.929 . S
C885 C884 1.373 . S
C885 C886 1.396 . S
C885 C892 1.403 . S
C886 C876 1.476 . S
C886 N881 1.318 . S
C886 C885 1.396 . S
H887 C882 0.929 . S
O888 Mn864 2.385 . S
O888 C866 1.234 . S
O889 Mn864 2.209 . S
O889 Mn865 2.215 . S
O889 C866 1.283 . S
O890 Mn864 2.094 . S
O890 C868 1.240 . S
O891 Mn865 2.117 . S
O891 C868 1.264 . S
C892 C885 1.403 . S
C892 C893 1.399 . S
C892 H898 0.929 . S
C893 C873 1.449 . S
C893 C892 1.399 . S
C893 H899 0.930 . S
H894 C874 0.931 . S
H895 C875 0.930 . S
H896 C883 0.931 . S
H897 C884 0.929 . S
H898 C892 0.929 . S
H899 C893 0.930 . S
Mn900 O905 2.095 . S
Mn900 O915 2.162 . S
Mn900 O916 2.297 . S
Mn900 O924 2.385 . S
Mn900 O925 2.209 . S
Mn900 O926 2.094 . S
Mn901 O906 2.121 . S
Mn901 N908 2.257 . S
Mn901 N917 2.282 . S
Mn901 O925 2.215 . S
Mn901 O927 2.117 . S
C902 O924 1.234 . S
C902 O925 1.283 . S
C903 O915 1.281 . S
C903 O916 1.236 . S
C904 O926 1.240 . S
C904 O927 1.264 . S
O905 Mn900 2.095 . S
O905 C914 1.250 . S
O906 Mn901 2.121 . S
O906 C914 1.258 . S
C907 N908 1.326 . S
C907 C911 1.460 . S
C907 H913 0.929 . S
N908 Mn901 2.257 . S
N908 C907 1.326 . S
N908 C912 1.362 . S
C909 C910 1.258 . S
C909 C912 1.431 . S
C909 C929 1.449 . S
C910 C909 1.258 . S
C910 C911 1.477 . S
C910 H930 0.931 . S
C911 C907 1.460 . S
C911 C910 1.477 . S
C911 H931 0.930 . S
C912 N908 1.362 . S
C912 C909 1.431 . S
C912 C922 1.476 . S
H913 C907 0.929 . S
C914 O905 1.250 . S
C914 O906 1.258 . S
O915 Mn900 2.162 . S
O915 C903 1.281 . S
O916 Mn900 2.297 . S
O916 C903 1.236 . S
N917 Mn901 2.282 . S
N917 C918 1.328 . S
N917 C922 1.318 . S
C918 N917 1.328 . S
C918 C919 1.457 . S
C918 H923 0.929 . S
C919 C918 1.457 . S
C919 C920 1.291 . S
C919 H932 0.931 . S
C920 C919 1.291 . S
C920 C921 1.373 . S
C920 H933 0.929 . S
C921 C920 1.373 . S
C921 C922 1.396 . S
C921 C928 1.403 . S
C922 C912 1.476 . S
C922 N917 1.318 . S
C922 C921 1.396 . S
H923 C918 0.929 . S
O924 Mn900 2.385 . S
O924 C902 1.234 . S
O925 Mn900 2.209 . S
O925 Mn901 2.215 . S
O925 C902 1.283 . S
O926 Mn900 2.094 . S
O926 C904 1.240 . S
O927 Mn901 2.117 . S
O927 C904 1.264 . S
C928 C921 1.403 . S
C928 C929 1.399 . S
C928 H934 0.929 . S
C929 C909 1.449 . S
C929 C928 1.399 . S
C929 H935 0.930 . S
H930 C910 0.931 . S
H931 C911 0.930 . S
H932 C919 0.931 . S
H933 C920 0.929 . S
H934 C928 0.929 . S
H935 C929 0.930 . S
Mn936 O941 2.095 . S
Mn936 O951 2.162 . S
Mn936 O952 2.297 . S
Mn936 O960 2.385 . S
Mn936 O961 2.209 . S
Mn936 O962 2.094 . S
Mn937 O942 2.121 . S
Mn937 N944 2.257 . S
Mn937 N953 2.282 . S
Mn937 O961 2.215 . S
Mn937 O963 2.117 . S
C938 O960 1.234 . S
C938 O961 1.283 . S
C939 O951 1.281 . S
C939 O952 1.236 . S
C940 O962 1.240 . S
C940 O963 1.264 . S
O941 Mn936 2.095 . S
O941 C950 1.250 . S
O942 Mn937 2.121 . S
O942 C950 1.258 . S
C943 N944 1.326 . S
C943 C947 1.460 . S
C943 H949 0.929 . S
N944 Mn937 2.257 . S
N944 C943 1.326 . S
N944 C948 1.362 . S
C945 C946 1.258 . S
C945 C948 1.431 . S
C945 C965 1.449 . S
C946 C945 1.258 . S
C946 C947 1.477 . S
C946 H966 0.931 . S
C947 C943 1.460 . S
C947 C946 1.477 . S
C947 H967 0.930 . S
C948 N944 1.362 . S
C948 C945 1.431 . S
C948 C958 1.476 . S
H949 C943 0.929 . S
C950 O941 1.250 . S
C950 O942 1.258 . S
O951 Mn936 2.162 . S
O951 C939 1.281 . S
O952 Mn936 2.297 . S
O952 C939 1.236 . S
N953 Mn937 2.282 . S
N953 C954 1.328 . S
N953 C958 1.318 . S
C954 N953 1.328 . S
C954 C955 1.457 . S
C954 H959 0.929 . S
C955 C954 1.457 . S
C955 C956 1.291 . S
C955 H968 0.931 . S
C956 C955 1.291 . S
C956 C957 1.373 . S
C956 H969 0.929 . S
C957 C956 1.373 . S
C957 C958 1.396 . S
C957 C964 1.403 . S
C958 C948 1.476 . S
C958 N953 1.318 . S
C958 C957 1.396 . S
H959 C954 0.929 . S
O960 Mn936 2.385 . S
O960 C938 1.234 . S
O961 Mn936 2.209 . S
O961 Mn937 2.215 . S
O961 C938 1.283 . S
O962 Mn936 2.094 . S
O962 C940 1.240 . S
O963 Mn937 2.117 . S
O963 C940 1.264 . S
C964 C957 1.403 . S
C964 C965 1.399 . S
C964 H970 0.929 . S
C965 C945 1.449 . S
C965 C964 1.399 . S
C965 H971 0.930 . S
H966 C946 0.931 . S
H967 C947 0.930 . S
H968 C955 0.931 . S
H969 C956 0.929 . S
H970 C964 0.929 . S
H971 C965 0.930 . S
Mn972 O977 2.095 . S
Mn972 O987 2.162 . S
Mn972 O988 2.297 . S
Mn972 O996 2.385 1_556 S
Mn972 O997 2.209 . S
Mn972 O998 2.094 . S
Mn973 O978 2.121 . S
Mn973 N980 2.257 . S
Mn973 N989 2.282 1_556 S
Mn973 O997 2.215 . S
Mn973 O999 2.117 . S
C974 O996 1.234 . S
C974 O997 1.283 1_554 S
C975 O987 1.281 . S
C975 O988 1.236 . S
C976 O998 1.240 . S
C976 O999 1.264 . S
O977 Mn972 2.095 . S
O977 C986 1.250 . S
O978 Mn973 2.121 . S
O978 C986 1.258 . S
C979 N980 1.326 . S
C979 C983 1.460 . S
C979 H985 0.929 . S
N980 Mn973 2.257 . S
N980 C979 1.326 . S
N980 C984 1.362 1_556 S
C981 C982 1.258 . S
C981 C984 1.431 . S
C981 C1001 1.449 . S
C982 C981 1.258 . S
C982 C983 1.477 1_554 S
C982 H1002 0.931 . S
C983 C979 1.460 . S
C983 C982 1.477 1_556 S
C983 H1003 0.930 . S
C984 N980 1.362 1_554 S
C984 C981 1.431 . S
C984 C994 1.476 . S
H985 C979 0.929 . S
C986 O977 1.250 . S
C986 O978 1.258 . S
O987 Mn972 2.162 . S
O987 C975 1.281 . S
O988 Mn972 2.297 . S
O988 C975 1.236 . S
N989 Mn973 2.282 1_554 S
N989 C990 1.328 . S
N989 C994 1.318 . S
C990 N989 1.328 . S
C990 C991 1.457 . S
C990 H995 0.929 . S
C991 C990 1.457 . S
C991 C992 1.291 . S
C991 H1004 0.931 . S
C992 C991 1.291 . S
C992 C993 1.373 . S
C992 H1005 0.929 . S
C993 C992 1.373 . S
C993 C994 1.396 . S
C993 C1000 1.403 . S
C994 C984 1.476 . S
C994 N989 1.318 . S
C994 C993 1.396 . S
H995 C990 0.929 . S
O996 Mn972 2.385 1_554 S
O996 C974 1.234 . S
O997 Mn972 2.209 . S
O997 Mn973 2.215 . S
O997 C974 1.283 1_556 S
O998 Mn972 2.094 . S
O998 C976 1.240 . S
O999 Mn973 2.117 . S
O999 C976 1.264 . S
C1000 C993 1.403 . S
C1000 C1001 1.399 . S
C1000 H1006 0.929 . S
C1001 C981 1.449 . S
C1001 C1000 1.399 . S
C1001 H1007 0.930 . S
H1002 C982 0.931 . S
H1003 C983 0.930 . S
H1004 C991 0.931 . S
H1005 C992 0.929 . S
H1006 C1000 0.929 . S
H1007 C1001 0.930 . S
Mn1008 O1013 2.095 . S
Mn1008 O1023 2.162 . S
Mn1008 O1024 2.297 . S
Mn1008 O1032 2.385 1_556 S
Mn1008 O1033 2.209 . S
Mn1008 O1034 2.094 . S
Mn1009 O1014 2.121 . S
Mn1009 N1016 2.257 . S
Mn1009 N1025 2.282 1_556 S
Mn1009 O1033 2.215 . S
Mn1009 O1035 2.117 . S
C1010 O1032 1.234 . S
C1010 O1033 1.283 1_554 S
C1011 O1023 1.281 . S
C1011 O1024 1.236 . S
C1012 O1034 1.240 . S
C1012 O1035 1.264 . S
O1013 Mn1008 2.095 . S
O1013 C1022 1.250 . S
O1014 Mn1009 2.121 . S
O1014 C1022 1.258 . S
C1015 N1016 1.326 . S
C1015 C1019 1.460 . S
C1015 H1021 0.929 . S
N1016 Mn1009 2.257 . S
N1016 C1015 1.326 . S
N1016 C1020 1.362 1_556 S
C1017 C1018 1.258 . S
C1017 C1020 1.431 . S
C1017 C1037 1.449 . S
C1018 C1017 1.258 . S
C1018 C1019 1.477 1_554 S
C1018 H1038 0.931 . S
C1019 C1015 1.460 . S
C1019 C1018 1.477 1_556 S
C1019 H1039 0.930 . S
C1020 N1016 1.362 1_554 S
C1020 C1017 1.431 . S
C1020 C1030 1.476 . S
H1021 C1015 0.929 . S
C1022 O1013 1.250 . S
C1022 O1014 1.258 . S
O1023 Mn1008 2.162 . S
O1023 C1011 1.281 . S
O1024 Mn1008 2.297 . S
O1024 C1011 1.236 . S
N1025 Mn1009 2.282 1_554 S
N1025 C1026 1.328 . S
N1025 C1030 1.318 . S
C1026 N1025 1.328 . S
C1026 C1027 1.457 . S
C1026 H1031 0.929 . S
C1027 C1026 1.457 . S
C1027 C1028 1.291 . S
C1027 H1040 0.931 . S
C1028 C1027 1.291 . S
C1028 C1029 1.373 . S
C1028 H1041 0.929 . S
C1029 C1028 1.373 . S
C1029 C1030 1.396 . S
C1029 C1036 1.403 . S
C1030 C1020 1.476 . S
C1030 N1025 1.318 . S
C1030 C1029 1.396 . S
H1031 C1026 0.929 . S
O1032 Mn1008 2.385 1_554 S
O1032 C1010 1.234 . S
O1033 Mn1008 2.209 . S
O1033 Mn1009 2.215 . S
O1033 C1010 1.283 1_556 S
O1034 Mn1008 2.094 . S
O1034 C1012 1.240 . S
O1035 Mn1009 2.117 . S
O1035 C1012 1.264 . S
C1036 C1029 1.403 . S
C1036 C1037 1.399 . S
C1036 H1042 0.929 . S
C1037 C1017 1.449 . S
C1037 C1036 1.399 . S
C1037 H1043 0.930 . S
H1038 C1018 0.931 . S
H1039 C1019 0.930 . S
H1040 C1027 0.931 . S
H1041 C1028 0.929 . S
H1042 C1036 0.929 . S
H1043 C1037 0.930 . S
Mn1044 O1049 2.095 . S
Mn1044 O1059 2.162 . S
Mn1044 O1060 2.297 . S
Mn1044 O1068 2.385 1_556 S
Mn1044 O1069 2.209 . S
Mn1044 O1070 2.094 . S
Mn1045 O1050 2.121 . S
Mn1045 N1052 2.257 . S
Mn1045 N1061 2.282 1_556 S
Mn1045 O1069 2.215 . S
Mn1045 O1071 2.117 . S
C1046 O1068 1.234 . S
C1046 O1069 1.283 1_554 S
C1047 O1059 1.281 . S
C1047 O1060 1.236 . S
C1048 O1070 1.240 . S
C1048 O1071 1.264 . S
O1049 Mn1044 2.095 . S
O1049 C1058 1.250 . S
O1050 Mn1045 2.121 . S
O1050 C1058 1.258 . S
C1051 N1052 1.326 . S
C1051 C1055 1.460 . S
C1051 H1057 0.929 . S
N1052 Mn1045 2.257 . S
N1052 C1051 1.326 . S
N1052 C1056 1.362 1_556 S
C1053 C1054 1.258 . S
C1053 C1056 1.431 . S
C1053 C1073 1.449 . S
C1054 C1053 1.258 . S
C1054 C1055 1.477 1_554 S
C1054 H1074 0.931 . S
C1055 C1051 1.460 . S
C1055 C1054 1.477 1_556 S
C1055 H1075 0.930 . S
C1056 N1052 1.362 1_554 S
C1056 C1053 1.431 . S
C1056 C1066 1.476 . S
H1057 C1051 0.929 . S
C1058 O1049 1.250 . S
C1058 O1050 1.258 . S
O1059 Mn1044 2.162 . S
O1059 C1047 1.281 . S
O1060 Mn1044 2.297 . S
O1060 C1047 1.236 . S
N1061 Mn1045 2.282 1_554 S
N1061 C1062 1.328 . S
N1061 C1066 1.318 . S
C1062 N1061 1.328 . S
C1062 C1063 1.457 . S
C1062 H1067 0.929 . S
C1063 C1062 1.457 . S
C1063 C1064 1.291 . S
C1063 H1076 0.931 . S
C1064 C1063 1.291 . S
C1064 C1065 1.373 . S
C1064 H1077 0.929 . S
C1065 C1064 1.373 . S
C1065 C1066 1.396 . S
C1065 C1072 1.403 . S
C1066 C1056 1.476 . S
C1066 N1061 1.318 . S
C1066 C1065 1.396 . S
H1067 C1062 0.929 . S
O1068 Mn1044 2.385 1_554 S
O1068 C1046 1.234 . S
O1069 Mn1044 2.209 . S
O1069 Mn1045 2.215 . S
O1069 C1046 1.283 1_556 S
O1070 Mn1044 2.094 . S
O1070 C1048 1.240 . S
O1071 Mn1045 2.117 . S
O1071 C1048 1.264 . S
C1072 C1065 1.403 . S
C1072 C1073 1.399 . S
C1072 H1078 0.929 . S
C1073 C1053 1.449 . S
C1073 C1072 1.399 . S
C1073 H1079 0.930 . S
H1074 C1054 0.931 . S
H1075 C1055 0.930 . S
H1076 C1063 0.931 . S
H1077 C1064 0.929 . S
H1078 C1072 0.929 . S
H1079 C1073 0.930 . S
Mn1080 O1085 2.095 . S
Mn1080 O1095 2.162 . S
Mn1080 O1096 2.297 . S
Mn1080 O1104 2.385 . S
Mn1080 O1105 2.209 . S
Mn1080 O1106 2.094 . S
Mn1081 O1086 2.121 . S
Mn1081 N1088 2.257 . S
Mn1081 N1097 2.282 . S
Mn1081 O1105 2.215 . S
Mn1081 O1107 2.117 . S
C1082 O1104 1.234 . S
C1082 O1105 1.283 . S
C1083 O1095 1.281 . S
C1083 O1096 1.236 . S
C1084 O1106 1.240 . S
C1084 O1107 1.264 . S
O1085 Mn1080 2.095 . S
O1085 C1094 1.250 . S
O1086 Mn1081 2.121 . S
O1086 C1094 1.258 . S
C1087 N1088 1.326 . S
C1087 C1091 1.460 . S
C1087 H1093 0.929 . S
N1088 Mn1081 2.257 . S
N1088 C1087 1.326 . S
N1088 C1092 1.362 . S
C1089 C1090 1.258 . S
C1089 C1092 1.431 . S
C1089 C1109 1.457 . S
C1090 C1089 1.258 . S
C1090 C1091 1.477 . S
C1090 H1110 0.931 . S
C1091 C1087 1.460 . S
C1091 C1090 1.477 . S
C1091 H1111 0.930 . S
C1092 N1088 1.362 . S
C1092 C1089 1.431 . S
C1092 C1102 1.476 . S
H1093 C1087 0.929 . S
C1094 O1085 1.250 . S
C1094 O1086 1.258 . S
O1095 Mn1080 2.162 . S
O1095 C1083 1.281 . S
O1096 Mn1080 2.297 . S
O1096 C1083 1.236 . S
N1097 Mn1081 2.282 . S
N1097 C1098 1.328 . S
N1097 C1102 1.318 . S
C1098 N1097 1.328 . S
C1098 C1099 1.457 . S
C1098 H1103 0.929 . S
C1099 C1098 1.457 . S
C1099 C1100 1.291 . S
C1099 H1112 0.931 . S
C1100 C1099 1.291 . S
C1100 C1101 1.373 . S
C1100 H1113 0.873 1_455 S
C1101 C1100 1.373 . S
C1101 C1102 1.396 . S
C1101 C1108 1.403 1_455 S
C1102 C1092 1.476 . S
C1102 N1097 1.318 . S
C1102 C1101 1.396 . S
H1103 C1098 0.929 . S
O1104 Mn1080 2.385 . S
O1104 C1082 1.234 . S
O1105 Mn1080 2.209 . S
O1105 Mn1081 2.215 . S
O1105 C1082 1.283 . S
O1106 Mn1080 2.094 . S
O1106 C1084 1.240 . S
O1107 Mn1081 2.117 . S
O1107 C1084 1.264 . S
C1108 C1101 1.403 1_655 S
C1108 C1109 1.395 1_655 S
C1108 H1114 0.929 . S
C1109 C1089 1.457 . S
C1109 C1108 1.395 1_455 S
C1109 H1115 0.927 1_455 S
H1110 C1090 0.931 . S
H1111 C1091 0.930 . S
H1112 C1099 0.931 . S
H1113 C1100 0.873 1_655 S
H1114 C1108 0.929 . S
H1115 C1109 0.927 1_655 S
Mn1116 O1121 2.095 . S
Mn1116 O1131 2.162 . S
Mn1116 O1132 2.297 . S
Mn1116 O1140 2.385 . S
Mn1116 O1141 2.209 . S
Mn1116 O1142 2.094 . S
Mn1117 O1122 2.121 . S
Mn1117 N1124 2.257 . S
Mn1117 N1133 2.282 . S
Mn1117 O1141 2.215 . S
Mn1117 O1143 2.117 . S
C1118 O1140 1.234 . S
C1118 O1141 1.283 . S
C1119 O1131 1.281 . S
C1119 O1132 1.236 . S
C1120 O1142 1.240 . S
C1120 O1143 1.264 . S
O1121 Mn1116 2.095 . S
O1121 C1130 1.250 . S
O1122 Mn1117 2.121 . S
O1122 C1130 1.258 . S
C1123 N1124 1.326 . S
C1123 C1127 1.460 . S
C1123 H1129 0.929 . S
N1124 Mn1117 2.257 . S
N1124 C1123 1.326 . S
N1124 C1128 1.362 . S
C1125 C1126 1.258 . S
C1125 C1128 1.431 . S
C1125 C1145 1.449 . S
C1126 C1125 1.258 . S
C1126 C1127 1.477 . S
C1126 H1146 0.931 . S
C1127 C1123 1.460 . S
C1127 C1126 1.477 . S
C1127 H1147 0.930 . S
C1128 N1124 1.362 . S
C1128 C1125 1.431 . S
C1128 C1138 1.476 . S
H1129 C1123 0.929 . S
C1130 O1121 1.250 . S
C1130 O1122 1.258 . S
O1131 Mn1116 2.162 . S
O1131 C1119 1.281 . S
O1132 Mn1116 2.297 . S
O1132 C1119 1.236 . S
N1133 Mn1117 2.282 . S
N1133 C1134 1.328 . S
N1133 C1138 1.318 . S
C1134 N1133 1.328 . S
C1134 C1135 1.457 . S
C1134 H1139 0.929 . S
C1135 C1134 1.457 . S
C1135 C1136 1.291 . S
C1135 H1148 0.931 . S
C1136 C1135 1.291 . S
C1136 C1137 1.373 . S
C1136 H1149 0.929 . S
C1137 C1136 1.373 . S
C1137 C1138 1.396 . S
C1137 C1144 1.403 . S
C1138 C1128 1.476 . S
C1138 N1133 1.318 . S
C1138 C1137 1.396 . S
H1139 C1134 0.929 . S
O1140 Mn1116 2.385 . S
O1140 C1118 1.234 . S
O1141 Mn1116 2.209 . S
O1141 Mn1117 2.215 . S
O1141 C1118 1.283 . S
O1142 Mn1116 2.094 . S
O1142 C1120 1.240 . S
O1143 Mn1117 2.117 . S
O1143 C1120 1.264 . S
C1144 C1137 1.403 . S
C1144 C1145 1.399 . S
C1144 H1150 0.929 . S
C1145 C1125 1.449 . S
C1145 C1144 1.399 . S
C1145 H1151 0.930 . S
H1146 C1126 0.931 . S
H1147 C1127 0.930 . S
H1148 C1135 0.931 . S
H1149 C1136 0.929 . S
H1150 C1144 0.929 . S
H1151 C1145 0.930 . S
Mn1152 O1157 2.095 . S
Mn1152 O1167 2.162 . S
Mn1152 O1168 2.297 . S
Mn1152 O1176 2.385 . S
Mn1152 O1177 2.209 . S
Mn1152 O1178 2.094 . S
Mn1153 O1158 2.121 . S
Mn1153 N1160 2.257 . S
Mn1153 N1169 2.282 . S
Mn1153 O1177 2.215 . S
Mn1153 O1179 2.117 . S
C1154 O1176 1.234 . S
C1154 O1177 1.283 . S
C1155 O1167 1.281 . S
C1155 O1168 1.236 . S
C1156 O1178 1.240 . S
C1156 O1179 1.264 . S
O1157 Mn1152 2.095 . S
O1157 C1166 1.250 . S
O1158 Mn1153 2.121 . S
O1158 C1166 1.258 . S
C1159 N1160 1.326 . S
C1159 C1163 1.460 . S
C1159 H1165 0.929 . S
N1160 Mn1153 2.257 . S
N1160 C1159 1.326 . S
N1160 C1164 1.362 . S
C1161 C1162 1.258 . S
C1161 C1164 1.431 . S
C1161 C1181 1.449 . S
C1162 C1161 1.258 . S
C1162 C1163 1.477 . S
C1162 H1182 0.931 . S
C1163 C1159 1.460 . S
C1163 C1162 1.477 . S
C1163 H1183 0.930 . S
C1164 N1160 1.362 . S
C1164 C1161 1.431 . S
C1164 C1174 1.476 . S
H1165 C1159 0.929 . S
C1166 O1157 1.250 . S
C1166 O1158 1.258 . S
O1167 Mn1152 2.162 . S
O1167 C1155 1.281 . S
O1168 Mn1152 2.297 . S
O1168 C1155 1.236 . S
N1169 Mn1153 2.282 . S
N1169 C1170 1.328 . S
N1169 C1174 1.318 . S
C1170 N1169 1.328 . S
C1170 C1171 1.457 . S
C1170 H1175 0.929 . S
C1171 C1170 1.457 . S
C1171 C1172 1.291 . S
C1171 H1184 0.931 . S
C1172 C1171 1.291 . S
C1172 C1173 1.373 . S
C1172 H1185 0.929 . S
C1173 C1172 1.373 . S
C1173 C1174 1.396 . S
C1173 C1180 1.403 . S
C1174 C1164 1.476 . S
C1174 N1169 1.318 . S
C1174 C1173 1.396 . S
H1175 C1170 0.929 . S
O1176 Mn1152 2.385 . S
O1176 C1154 1.234 . S
O1177 Mn1152 2.209 . S
O1177 Mn1153 2.215 . S
O1177 C1154 1.283 . S
O1178 Mn1152 2.094 . S
O1178 C1156 1.240 . S
O1179 Mn1153 2.117 . S
O1179 C1156 1.264 . S
C1180 C1173 1.403 . S
C1180 C1181 1.399 . S
C1180 H1186 0.929 . S
C1181 C1161 1.449 . S
C1181 C1180 1.399 . S
C1181 H1187 0.930 . S
H1182 C1162 0.931 . S
H1183 C1163 0.930 . S
H1184 C1171 0.931 . S
H1185 C1172 0.929 . S
H1186 C1180 0.929 . S
H1187 C1181 0.930 . S
Mn1188 O1193 2.095 . S
Mn1188 O1203 2.162 . S
Mn1188 O1204 2.297 . S
Mn1188 O1212 2.385 . S
Mn1188 O1213 2.209 . S
Mn1188 O1214 2.094 . S
Mn1189 O1194 2.121 . S
Mn1189 N1196 2.257 . S
Mn1189 N1205 2.282 . S
Mn1189 O1213 2.215 . S
Mn1189 O1215 2.117 . S
C1190 O1212 1.234 . S
C1190 O1213 1.283 . S
C1191 O1203 1.281 . S
C1191 O1204 1.236 . S
C1192 O1214 1.240 . S
C1192 O1215 1.264 . S
O1193 Mn1188 2.095 . S
O1193 C1202 1.250 . S
O1194 Mn1189 2.121 . S
O1194 C1202 1.258 . S
C1195 N1196 1.326 . S
C1195 C1199 1.460 . S
C1195 H1201 0.929 . S
N1196 Mn1189 2.257 . S
N1196 C1195 1.326 . S
N1196 C1200 1.362 . S
C1197 C1198 1.258 . S
C1197 C1200 1.431 . S
C1197 C1217 1.449 . S
C1198 C1197 1.258 . S
C1198 C1199 1.477 . S
C1198 H1218 0.931 . S
C1199 C1195 1.460 . S
C1199 C1198 1.477 . S
C1199 H1219 0.930 . S
C1200 N1196 1.362 . S
C1200 C1197 1.431 . S
C1200 C1210 1.476 . S
H1201 C1195 0.929 . S
C1202 O1193 1.250 . S
C1202 O1194 1.258 . S
O1203 Mn1188 2.162 . S
O1203 C1191 1.281 . S
O1204 Mn1188 2.297 . S
O1204 C1191 1.236 . S
N1205 Mn1189 2.282 . S
N1205 C1206 1.328 . S
N1205 C1210 1.318 . S
C1206 N1205 1.328 . S
C1206 C1207 1.457 . S
C1206 H1211 0.929 . S
C1207 C1206 1.457 . S
C1207 C1208 1.291 . S
C1207 H1220 0.931 . S
C1208 C1207 1.291 . S
C1208 C1209 1.373 . S
C1208 H1221 0.929 . S
C1209 C1208 1.373 . S
C1209 C1210 1.396 . S
C1209 C1216 1.403 . S
C1210 C1200 1.476 . S
C1210 N1205 1.318 . S
C1210 C1209 1.396 . S
H1211 C1206 0.929 . S
O1212 Mn1188 2.385 . S
O1212 C1190 1.234 . S
O1213 Mn1188 2.209 . S
O1213 Mn1189 2.215 . S
O1213 C1190 1.283 . S
O1214 Mn1188 2.094 . S
O1214 C1192 1.240 . S
O1215 Mn1189 2.117 . S
O1215 C1192 1.264 . S
C1216 C1209 1.403 . S
C1216 C1217 1.399 . S
C1216 H1222 0.929 . S
C1217 C1197 1.449 . S
C1217 C1216 1.399 . S
C1217 H1223 0.930 . S
H1218 C1198 0.931 . S
H1219 C1199 0.930 . S
H1220 C1207 0.931 . S
H1221 C1208 0.929 . S
H1222 C1216 0.929 . S
H1223 C1217 0.930 . S
Mn1224 O1229 2.095 . S
Mn1224 O1239 2.162 . S
Mn1224 O1240 2.297 . S
Mn1224 O1248 2.385 . S
Mn1224 O1249 2.209 . S
Mn1224 O1250 2.094 . S
Mn1225 O1230 2.121 . S
Mn1225 N1232 2.257 . S
Mn1225 N1241 2.282 . S
Mn1225 O1249 2.215 . S
Mn1225 O1251 2.117 . S
C1226 O1248 1.234 . S
C1226 O1249 1.283 . S
C1227 O1239 1.281 . S
C1227 O1240 1.236 . S
C1228 O1250 1.240 . S
C1228 O1251 1.264 . S
O1229 Mn1224 2.095 . S
O1229 C1238 1.250 . S
O1230 Mn1225 2.121 . S
O1230 C1238 1.258 . S
C1231 N1232 1.326 . S
C1231 C1235 1.460 . S
C1231 H1237 0.929 . S
N1232 Mn1225 2.257 . S
N1232 C1231 1.326 . S
N1232 C1236 1.362 . S
C1233 C1234 1.258 . S
C1233 C1236 1.431 . S
C1233 C1253 1.449 . S
C1234 C1233 1.258 . S
C1234 C1235 1.477 . S
C1234 H1254 0.931 . S
C1235 C1231 1.460 . S
C1235 C1234 1.477 . S
C1235 H1255 0.930 . S
C1236 N1232 1.362 . S
C1236 C1233 1.431 . S
C1236 C1246 1.476 . S
H1237 C1231 0.929 . S
C1238 O1229 1.250 . S
C1238 O1230 1.258 . S
O1239 Mn1224 2.162 . S
O1239 C1227 1.281 . S
O1240 Mn1224 2.297 . S
O1240 C1227 1.236 . S
N1241 Mn1225 2.282 . S
N1241 C1242 1.328 . S
N1241 C1246 1.318 . S
C1242 N1241 1.328 . S
C1242 C1243 1.457 . S
C1242 H1247 0.929 . S
C1243 C1242 1.457 . S
C1243 C1244 1.291 . S
C1243 H1256 0.931 . S
C1244 C1243 1.291 . S
C1244 C1245 1.373 . S
C1244 H1257 0.929 . S
C1245 C1244 1.373 . S
C1245 C1246 1.396 . S
C1245 C1252 1.403 . S
C1246 C1236 1.476 . S
C1246 N1241 1.318 . S
C1246 C1245 1.396 . S
H1247 C1242 0.929 . S
O1248 Mn1224 2.385 . S
O1248 C1226 1.234 . S
O1249 Mn1224 2.209 . S
O1249 Mn1225 2.215 . S
O1249 C1226 1.283 . S
O1250 Mn1224 2.094 . S
O1250 C1228 1.240 . S
O1251 Mn1225 2.117 . S
O1251 C1228 1.264 . S
C1252 C1245 1.403 . S
C1252 C1253 1.399 . S
C1252 H1258 0.929 . S
C1253 C1233 1.449 . S
C1253 C1252 1.399 . S
C1253 H1259 0.930 . S
H1254 C1234 0.931 . S
H1255 C1235 0.930 . S
H1256 C1243 0.931 . S
H1257 C1244 0.929 . S
H1258 C1252 0.929 . S
H1259 C1253 0.930 . S
Mn1260 O1265 2.095 . S
Mn1260 O1275 2.162 . S
Mn1260 O1276 2.297 . S
Mn1260 O1284 2.385 . S
Mn1260 O1285 2.209 . S
Mn1260 O1286 2.094 . S
Mn1261 O1266 2.121 . S
Mn1261 N1268 2.257 . S
Mn1261 N1277 2.282 . S
Mn1261 O1285 2.215 . S
Mn1261 O1287 2.117 . S
C1262 O1284 1.234 . S
C1262 O1285 1.283 . S
C1263 O1275 1.281 . S
C1263 O1276 1.236 . S
C1264 O1286 1.240 . S
C1264 O1287 1.264 . S
O1265 Mn1260 2.095 . S
O1265 C1274 1.250 . S
O1266 Mn1261 2.121 . S
O1266 C1274 1.258 . S
C1267 N1268 1.326 . S
C1267 C1271 1.460 . S
C1267 H1273 0.929 . S
N1268 Mn1261 2.257 . S
N1268 C1267 1.326 . S
N1268 C1272 1.362 . S
C1269 C1270 1.258 . S
C1269 C1272 1.431 . S
C1269 C1289 1.449 . S
C1270 C1269 1.258 . S
C1270 C1271 1.477 . S
C1270 H1290 0.931 . S
C1271 C1267 1.460 . S
C1271 C1270 1.477 . S
C1271 H1291 0.930 . S
C1272 N1268 1.362 . S
C1272 C1269 1.431 . S
C1272 C1282 1.476 . S
H1273 C1267 0.929 . S
C1274 O1265 1.250 . S
C1274 O1266 1.258 . S
O1275 Mn1260 2.162 . S
O1275 C1263 1.281 . S
O1276 Mn1260 2.297 . S
O1276 C1263 1.236 . S
N1277 Mn1261 2.282 . S
N1277 C1278 1.328 . S
N1277 C1282 1.318 . S
C1278 N1277 1.328 . S
C1278 C1279 1.457 . S
C1278 H1283 0.929 . S
C1279 C1278 1.457 . S
C1279 C1280 1.291 . S
C1279 H1292 0.931 . S
C1280 C1279 1.291 . S
C1280 C1281 1.373 . S
C1280 H1293 0.929 . S
C1281 C1280 1.373 . S
C1281 C1282 1.396 . S
C1281 C1288 1.403 . S
C1282 C1272 1.476 . S
C1282 N1277 1.318 . S
C1282 C1281 1.396 . S
H1283 C1278 0.929 . S
O1284 Mn1260 2.385 . S
O1284 C1262 1.234 . S
O1285 Mn1260 2.209 . S
O1285 Mn1261 2.215 . S
O1285 C1262 1.283 . S
O1286 Mn1260 2.094 . S
O1286 C1264 1.240 . S
O1287 Mn1261 2.117 . S
O1287 C1264 1.264 . S
C1288 C1281 1.403 . S
C1288 C1289 1.399 . S
C1288 H1294 0.929 . S
C1289 C1269 1.449 . S
C1289 C1288 1.399 . S
C1289 H1295 0.930 . S
H1290 C1270 0.931 . S
H1291 C1271 0.930 . S
H1292 C1279 0.931 . S
H1293 C1280 0.929 . S
H1294 C1288 0.929 . S
H1295 C1289 0.930 . S
H1296 C1302 0.930 . S
H1297 C1305 0.930 . S
H1298 C1306 0.930 . S
H1299 C1307 0.930 . S
H1300 C1310 0.930 . S
H1301 C1311 0.930 . S
C1302 H1296 0.930 . S
C1302 C1303 1.355 . S
C1302 C1304 1.415 . S
C1303 C1302 1.355 . S
C1303 C1305 1.419 . S
C1304 C1302 1.415 . S
C1304 C1309 1.425 . S
C1304 C1311 1.409 . S
C1305 H1297 0.930 . S
C1305 C1303 1.419 . S
C1305 C1306 1.362 . S
C1306 H1298 0.930 . S
C1306 C1305 1.362 . S
C1306 C1309 1.409 . S
C1307 H1299 0.930 . S
C1307 C1308 1.355 . S
C1307 C1309 1.415 1_554 S
C1308 C1307 1.355 . S
C1308 C1310 1.419 . S
C1309 C1304 1.425 . S
C1309 C1306 1.409 . S
C1309 C1307 1.415 1_556 S
C1310 H1300 0.930 . S
C1310 C1308 1.419 . S
C1310 C1311 1.362 1_554 S
C1311 H1301 0.930 . S
C1311 C1304 1.409 . S
C1311 C1310 1.362 1_556 S
H1312 C1318 0.930 . S
H1313 C1321 0.930 . S
H1314 C1322 0.930 . S
H1315 C1323 0.930 . S
H1316 C1326 0.930 . S
H1317 C1327 0.930 1_556 S
C1318 H1312 0.930 . S
C1318 C1319 1.355 . S
C1318 C1320 1.415 . S
C1319 C1318 1.355 . S
C1319 C1321 1.419 . S
C1320 C1318 1.415 . S
C1320 C1325 1.425 . S
C1320 C1327 1.409 1_556 S
C1321 H1313 0.930 . S
C1321 C1319 1.419 . S
C1321 C1322 1.362 . S
C1322 H1314 0.930 . S
C1322 C1321 1.362 . S
C1322 C1325 1.409 . S
C1323 H1315 0.930 . S
C1323 C1324 1.355 . S
C1323 C1325 1.415 1_554 S
C1324 C1323 1.355 . S
C1324 C1326 1.419 . S
C1325 C1320 1.425 . S
C1325 C1322 1.409 . S
C1325 C1323 1.415 1_556 S
C1326 H1316 0.930 . S
C1326 C1324 1.419 . S
C1326 C1327 1.362 . S
C1327 H1317 0.930 1_554 S
C1327 C1320 1.409 1_554 S
C1327 C1326 1.362 . S
H1328 C1334 0.930 . S
H1329 C1337 0.930 . S
H1330 C1338 0.930 . S
H1331 C1339 0.930 . S
H1332 C1342 0.930 . S
H1333 C1343 0.930 . S
C1334 H1328 0.930 . S
C1334 C1335 1.355 . S
C1334 C1336 1.415 1_554 S
C1335 C1334 1.355 . S
C1335 C1337 1.419 . S
C1336 C1334 1.415 1_556 S
C1336 C1341 1.425 . S
C1336 C1343 1.409 . S
C1337 H1329 0.930 . S
C1337 C1335 1.419 . S
C1337 C1338 1.362 1_554 S
C1338 H1330 0.930 . S
C1338 C1337 1.362 1_556 S
C1338 C1341 1.409 . S
C1339 H1331 0.930 . S
C1339 C1340 1.355 . S
C1339 C1341 1.415 . S
C1340 C1339 1.355 . S
C1340 C1342 1.419 . S
C1341 C1336 1.425 . S
C1341 C1338 1.409 . S
C1341 C1339 1.415 . S
C1342 H1332 0.930 . S
C1342 C1340 1.419 . S
C1342 C1343 1.362 . S
C1343 H1333 0.930 . S
C1343 C1336 1.409 . S
C1343 C1342 1.362 . S
H1344 C1350 0.930 . S
H1345 C1353 0.930 . S
H1346 C1354 0.930 . S
H1347 C1355 0.930 . S
H1348 C1358 0.930 . S
H1349 C1359 0.930 . S
C1350 H1344 0.930 . S
C1350 C1351 1.355 . S
C1350 C1352 1.415 . S
C1351 C1350 1.355 . S
C1351 C1353 1.419 . S
C1352 C1350 1.415 . S
C1352 C1357 1.425 . S
C1352 C1359 1.409 . S
C1353 H1345 0.930 . S
C1353 C1351 1.419 . S
C1353 C1354 1.362 . S
C1354 H1346 0.930 . S
C1354 C1353 1.362 . S
C1354 C1357 1.409 . S
C1355 H1347 0.930 . S
C1355 C1356 1.355 . S
C1355 C1357 1.415 . S
C1356 C1355 1.355 . S
C1356 C1358 1.419 . S
C1357 C1352 1.425 . S
C1357 C1354 1.409 . S
C1357 C1355 1.415 . S
C1358 H1348 0.930 . S
C1358 C1356 1.419 . S
C1358 C1359 1.362 . S
C1359 H1349 0.930 . S
C1359 C1352 1.409 . S
C1359 C1358 1.362 . S
H1360 C1366 0.930 . S
H1361 C1369 0.930 . S
H1362 C1370 0.930 . S
H1363 C1371 0.930 . S
H1364 C1374 0.930 . S
H1365 C1375 0.930 . S
C1366 H1360 0.930 . S
C1366 C1367 1.355 . S
C1366 C1368 1.415 . S
C1367 C1366 1.355 . S
C1367 C1369 1.419 . S
C1368 C1366 1.415 . S
C1368 C1373 1.425 . S
C1368 C1375 1.409 . S
C1369 H1361 0.930 . S
C1369 C1367 1.419 . S
C1369 C1370 1.362 . S
C1370 H1362 0.930 . S
C1370 C1369 1.362 . S
C1370 C1373 1.409 . S
C1371 H1363 0.930 . S
C1371 C1372 1.355 . S
C1371 C1373 1.415 . S
C1372 C1371 1.355 . S
C1372 C1374 1.419 . S
C1373 C1368 1.425 . S
C1373 C1370 1.409 . S
C1373 C1371 1.415 . S
C1374 H1364 0.930 . S
C1374 C1372 1.419 . S
C1374 C1375 1.362 . S
C1375 H1365 0.930 . S
C1375 C1368 1.409 . S
C1375 C1374 1.362 . S
H1376 C1382 0.930 . S
H1377 C1385 0.930 . S
H1378 C1386 0.930 . S
H1379 C1387 0.930 . S
H1380 C1390 0.930 . S
H1381 C1391 0.930 . S
C1382 H1376 0.930 . S
C1382 C1383 1.355 . S
C1382 C1384 1.415 . S
C1383 C1382 1.355 . S
C1383 C1385 1.419 . S
C1384 C1382 1.415 . S
C1384 C1389 1.425 . S
C1384 C1391 1.409 . S
C1385 H1377 0.930 . S
C1385 C1383 1.419 . S
C1385 C1386 1.362 . S
C1386 H1378 0.930 . S
C1386 C1385 1.362 . S
C1386 C1389 1.409 . S
C1387 H1379 0.930 . S
C1387 C1388 1.355 . S
C1387 C1389 1.415 . S
C1388 C1387 1.355 . S
C1388 C1390 1.419 . S
C1389 C1384 1.425 . S
C1389 C1386 1.409 . S
C1389 C1387 1.415 . S
C1390 H1380 0.930 . S
C1390 C1388 1.419 . S
C1390 C1391 1.362 . S
C1391 H1381 0.930 . S
C1391 C1384 1.409 . S
C1391 C1390 1.362 . S
H1392 C1398 0.930 . S
H1393 C1401 0.930 . S
H1394 C1402 0.930 . S
H1395 C1403 0.930 . S
H1396 C1406 0.930 . S
H1397 C1407 0.930 . S
C1398 H1392 0.930 . S
C1398 C1399 1.355 . S
C1398 C1400 1.415 . S
C1399 C1398 1.355 . S
C1399 C1401 1.419 . S
C1400 C1398 1.415 . S
C1400 C1405 1.425 . S
C1400 C1407 1.409 . S
C1401 H1393 0.930 . S
C1401 C1399 1.419 . S
C1401 C1402 1.362 . S
C1402 H1394 0.930 . S
C1402 C1401 1.362 . S
C1402 C1405 1.409 . S
C1403 H1395 0.930 . S
C1403 C1404 1.355 . S
C1403 C1405 1.415 1_556 S
C1404 C1403 1.355 . S
C1404 C1406 1.419 . S
C1405 C1400 1.425 . S
C1405 C1402 1.409 . S
C1405 C1403 1.415 1_554 S
C1406 H1396 0.930 . S
C1406 C1404 1.419 . S
C1406 C1407 1.362 1_556 S
C1407 H1397 0.930 . S
C1407 C1400 1.409 . S
C1407 C1406 1.362 1_554 S
H1408 C1414 0.930 . S
H1409 C1417 0.930 . S
H1410 C1418 0.930 . S
H1411 C1419 0.930 . S
H1412 C1422 0.930 . S
H1413 C1423 0.930 1_554 S
C1414 H1408 0.930 . S
C1414 C1415 1.355 . S
C1414 C1416 1.415 . S
C1415 C1414 1.355 . S
C1415 C1417 1.419 . S
C1416 C1414 1.415 . S
C1416 C1421 1.425 . S
C1416 C1423 1.409 1_554 S
C1417 H1409 0.930 . S
C1417 C1415 1.419 . S
C1417 C1418 1.362 . S
C1418 H1410 0.930 . S
C1418 C1417 1.362 . S
C1418 C1421 1.409 . S
C1419 H1411 0.930 . S
C1419 C1420 1.355 . S
C1419 C1421 1.415 1_556 S
C1420 C1419 1.355 . S
C1420 C1422 1.419 . S
C1421 C1416 1.425 . S
C1421 C1418 1.409 . S
C1421 C1419 1.415 1_554 S
C1422 H1412 0.930 . S
C1422 C1420 1.419 . S
C1422 C1423 1.362 . S
C1423 H1413 0.930 1_556 S
C1423 C1416 1.409 1_556 S
C1423 C1422 1.362 . S
H1424 C1430 0.930 . S
H1425 C1433 0.930 . S
H1426 C1434 0.930 . S
H1427 C1435 0.930 . S
H1428 C1438 0.930 . S
H1429 C1439 0.930 . S
C1430 H1424 0.930 . S
C1430 C1431 1.355 . S
C1430 C1432 1.415 1_556 S
C1431 C1430 1.355 . S
C1431 C1433 1.419 . S
C1432 C1430 1.415 1_554 S
C1432 C1437 1.425 . S
C1432 C1439 1.409 . S
C1433 H1425 0.930 . S
C1433 C1431 1.419 . S
C1433 C1434 1.362 1_556 S
C1434 H1426 0.930 . S
C1434 C1433 1.362 1_554 S
C1434 C1437 1.409 . S
C1435 H1427 0.930 . S
C1435 C1436 1.355 . S
C1435 C1437 1.415 . S
C1436 C1435 1.355 . S
C1436 C1438 1.419 . S
C1437 C1432 1.425 . S
C1437 C1434 1.409 . S
C1437 C1435 1.415 . S
C1438 H1428 0.930 . S
C1438 C1436 1.419 . S
C1438 C1439 1.362 . S
C1439 H1429 0.930 . S
C1439 C1432 1.409 . S
C1439 C1438 1.362 . S
H1440 C1446 0.930 . S
H1441 C1449 0.930 . S
H1442 C1450 0.930 . S
H1443 C1451 0.930 . S
H1444 C1454 0.930 . S
H1445 C1455 0.930 . S
C1446 H1440 0.930 . S
C1446 C1447 1.355 . S
C1446 C1448 1.415 . S
C1447 C1446 1.355 . S
C1447 C1449 1.419 . S
C1448 C1446 1.415 . S
C1448 C1453 1.425 . S
C1448 C1455 1.409 . S
C1449 H1441 0.930 . S
C1449 C1447 1.419 . S
C1449 C1450 1.362 . S
C1450 H1442 0.930 . S
C1450 C1449 1.362 . S
C1450 C1453 1.409 . S
C1451 H1443 0.930 . S
C1451 C1452 1.355 . S
C1451 C1453 1.415 . S
C1452 C1451 1.355 . S
C1452 C1454 1.419 . S
C1453 C1448 1.425 . S
C1453 C1450 1.409 . S
C1453 C1451 1.415 . S
C1454 H1444 0.930 . S
C1454 C1452 1.419 . S
C1454 C1455 1.362 . S
C1455 H1445 0.930 . S
C1455 C1448 1.409 . S
C1455 C1454 1.362 . S
H1456 C1462 0.930 . S
H1457 C1465 0.930 . S
H1458 C1466 0.930 . S
H1459 C1467 0.930 . S
H1460 C1470 0.930 . S
H1461 C1471 0.930 . S
C1462 H1456 0.930 . S
C1462 C1463 1.355 . S
C1462 C1464 1.415 . S
C1463 C1462 1.355 . S
C1463 C1465 1.419 . S
C1464 C1462 1.415 . S
C1464 C1469 1.425 . S
C1464 C1471 1.409 . S
C1465 H1457 0.930 . S
C1465 C1463 1.419 . S
C1465 C1466 1.362 . S
C1466 H1458 0.930 . S
C1466 C1465 1.362 . S
C1466 C1469 1.409 . S
C1467 H1459 0.930 . S
C1467 C1468 1.355 . S
C1467 C1469 1.415 . S
C1468 C1467 1.355 . S
C1468 C1470 1.419 . S
C1469 C1464 1.425 . S
C1469 C1466 1.409 . S
C1469 C1467 1.415 . S
C1470 H1460 0.930 . S
C1470 C1468 1.419 . S
C1470 C1471 1.362 . S
C1471 H1461 0.930 . S
C1471 C1464 1.409 . S
C1471 C1470 1.362 . S
H1472 C1478 0.930 . S
H1473 C1481 0.930 . S
H1474 C1482 0.930 . S
H1475 C1483 0.930 . S
H1476 C1486 0.930 . S
H1477 C1487 0.930 . S
C1478 H1472 0.930 . S
C1478 C1479 1.355 . S
C1478 C1480 1.415 . S
C1479 C1478 1.355 . S
C1479 C1481 1.419 . S
C1480 C1478 1.415 . S
C1480 C1485 1.425 . S
C1480 C1487 1.409 . S
C1481 H1473 0.930 . S
C1481 C1479 1.419 . S
C1481 C1482 1.362 . S
C1482 H1474 0.930 . S
C1482 C1481 1.362 . S
C1482 C1485 1.409 . S
C1483 H1475 0.930 . S
C1483 C1484 1.355 . S
C1483 C1485 1.415 . S
C1484 C1483 1.355 . S
C1484 C1486 1.419 . S
C1485 C1480 1.425 . S
C1485 C1482 1.409 . S
C1485 C1483 1.415 . S
C1486 H1476 0.930 . S
C1486 C1484 1.419 . S
C1486 C1487 1.362 . S
C1487 H1477 0.930 . S
C1487 C1480 1.409 . S
C1487 C1486 1.362 . S
H1488 C1494 0.930 . S
H1489 C1497 0.930 . S
H1490 C1498 0.930 . S
H1491 C1499 0.930 . S
H1492 C1502 0.930 . S
H1493 C1503 0.930 . S
C1494 H1488 0.930 . S
C1494 C1495 1.355 . S
C1494 C1496 1.415 . S
C1495 C1494 1.355 . S
C1495 C1497 1.419 . S
C1496 C1494 1.415 . S
C1496 C1501 1.425 . S
C1496 C1503 1.409 . S
C1497 H1489 0.930 . S
C1497 C1495 1.419 . S
C1497 C1498 1.362 . S
C1498 H1490 0.930 . S
C1498 C1497 1.362 . S
C1498 C1501 1.409 . S
C1499 H1491 0.930 . S
C1499 C1500 1.355 . S
C1499 C1501 1.415 . S
C1500 C1499 1.355 . S
C1500 C1502 1.419 . S
C1501 C1496 1.425 . S
C1501 C1498 1.409 . S
C1501 C1499 1.415 . S
C1502 H1492 0.930 . S
C1502 C1500 1.419 . S
C1502 C1503 1.362 . S
C1503 H1493 0.930 . S
C1503 C1496 1.409 . S
C1503 C1502 1.362 . S
H1504 C1510 0.930 . S
H1505 C1513 0.930 . S
H1506 C1514 0.930 . S
H1507 C1515 0.930 . S
H1508 C1518 0.930 . S
H1509 C1519 0.930 . S
C1510 H1504 0.930 . S
C1510 C1511 1.355 . S
C1510 C1512 1.415 . S
C1511 C1510 1.355 . S
C1511 C1513 1.419 . S
C1512 C1510 1.415 . S
C1512 C1517 1.425 . S
C1512 C1519 1.409 . S
C1513 H1505 0.930 . S
C1513 C1511 1.419 . S
C1513 C1514 1.362 . S
C1514 H1506 0.930 . S
C1514 C1513 1.362 . S
C1514 C1517 1.409 . S
C1515 H1507 0.930 . S
C1515 C1516 1.355 . S
C1515 C1517 1.415 . S
C1516 C1515 1.355 . S
C1516 C1518 1.419 . S
C1517 C1512 1.425 . S
C1517 C1514 1.409 . S
C1517 C1515 1.415 . S
C1518 H1508 0.930 . S
C1518 C1516 1.419 . S
C1518 C1519 1.362 . S
C1519 H1509 0.930 . S
C1519 C1512 1.409 . S
C1519 C1518 1.362 . S
H1520 C1526 0.930 . S
H1521 C1529 0.930 . S
H1522 C1530 0.930 . S
H1523 C1531 0.930 . S
H1524 C1534 0.930 . S
H1525 C1535 0.930 . S
C1526 H1520 0.930 . S
C1526 C1527 1.355 . S
C1526 C1528 1.415 . S
C1527 C1526 1.355 . S
C1527 C1529 1.419 . S
C1528 C1526 1.415 . S
C1528 C1533 1.425 . S
C1528 C1535 1.409 . S
C1529 H1521 0.930 . S
C1529 C1527 1.419 . S
C1529 C1530 1.362 . S
C1530 H1522 0.930 . S
C1530 C1529 1.362 . S
C1530 C1533 1.409 . S
C1531 H1523 0.930 . S
C1531 C1532 1.355 . S
C1531 C1533 1.415 . S
C1532 C1531 1.355 . S
C1532 C1534 1.419 . S
C1533 C1528 1.425 . S
C1533 C1530 1.409 . S
C1533 C1531 1.415 . S
C1534 H1524 0.930 . S
C1534 C1532 1.419 . S
C1534 C1535 1.362 . S
C1535 H1525 0.930 . S
C1535 C1528 1.409 . S
C1535 C1534 1.362 . S
H1536 C1542 0.930 . S
H1537 C1545 0.930 . S
H1538 C1546 0.930 . S
H1539 C1547 0.930 . S
H1540 C1550 0.930 . S
H1541 C1551 0.930 . S
C1542 H1536 0.930 . S
C1542 C1543 1.355 . S
C1542 C1544 1.415 . S
C1543 C1542 1.355 . S
C1543 C1545 1.419 . S
C1544 C1542 1.415 . S
C1544 C1549 1.425 . S
C1544 C1551 1.409 . S
C1545 H1537 0.930 . S
C1545 C1543 1.419 . S
C1545 C1546 1.362 . S
C1546 H1538 0.930 . S
C1546 C1545 1.362 . S
C1546 C1549 1.409 . S
C1547 H1539 0.930 . S
C1547 C1548 1.355 . S
C1547 C1549 1.415 . S
C1548 C1547 1.355 . S
C1548 C1550 1.419 . S
C1549 C1544 1.425 . S
C1549 C1546 1.409 . S
C1549 C1547 1.415 . S
C1550 H1540 0.930 . S
C1550 C1548 1.419 . S
C1550 C1551 1.362 . S
C1551 H1541 0.930 . S
C1551 C1544 1.409 . S
C1551 C1550 1.362 . S
H1552 C1558 0.930 . S
H1553 C1561 0.930 . S
H1554 C1562 0.930 . S
H1555 C1563 0.930 . S
H1556 C1566 0.930 . S
H1557 C1567 0.930 . S
C1558 H1552 0.930 . S
C1558 C1559 1.355 . S
C1558 C1560 1.415 . S
C1559 C1558 1.355 . S
C1559 C1561 1.419 . S
C1560 C1558 1.415 . S
C1560 C1565 1.425 . S
C1560 C1567 1.409 . S
C1561 H1553 0.930 . S
C1561 C1559 1.419 . S
C1561 C1562 1.362 . S
C1562 H1554 0.930 . S
C1562 C1561 1.362 . S
C1562 C1565 1.409 . S
C1563 H1555 0.930 . S
C1563 C1564 1.355 . S
C1563 C1565 1.415 . S
C1564 C1563 1.355 . S
C1564 C1566 1.419 . S
C1565 C1560 1.425 . S
C1565 C1562 1.409 . S
C1565 C1563 1.415 . S
C1566 H1556 0.930 . S
C1566 C1564 1.419 . S
C1566 C1567 1.362 . S
C1567 H1557 0.930 . S
C1567 C1560 1.409 . S
C1567 C1566 1.362 . S
H1568 C1574 0.930 . S
H1569 C1577 0.930 . S
H1570 C1578 0.930 . S
H1571 C1579 0.930 . S
H1572 C1582 0.930 . S
H1573 C1583 0.930 . S
C1574 H1568 0.930 . S
C1574 C1575 1.355 . S
C1574 C1576 1.415 . S
C1575 C1574 1.355 . S
C1575 C1577 1.419 . S
C1576 C1574 1.415 . S
C1576 C1581 1.425 . S
C1576 C1583 1.409 . S
C1577 H1569 0.930 . S
C1577 C1575 1.419 . S
C1577 C1578 1.362 . S
C1578 H1570 0.930 . S
C1578 C1577 1.362 . S
C1578 C1581 1.409 . S
C1579 H1571 0.930 . S
C1579 C1580 1.355 . S
C1579 C1581 1.415 . S
C1580 C1579 1.355 . S
C1580 C1582 1.419 . S
C1581 C1576 1.425 . S
C1581 C1578 1.409 . S
C1581 C1579 1.415 . S
C1582 H1572 0.930 . S
C1582 C1580 1.419 . S
C1582 C1583 1.362 . S
C1583 H1573 0.930 . S
C1583 C1576 1.409 . S
C1583 C1582 1.362 . S
H1584 C1590 0.930 . S
H1585 C1593 0.930 . S
H1586 C1594 0.930 . S
H1587 C1595 0.930 . S
H1588 C1598 0.930 . S
H1589 C1599 0.930 . S
C1590 H1584 0.930 . S
C1590 C1591 1.355 . S
C1590 C1592 1.415 . S
C1591 C1590 1.355 . S
C1591 C1593 1.419 . S
C1592 C1590 1.415 . S
C1592 C1597 1.425 . S
C1592 C1599 1.409 . S
C1593 H1585 0.930 . S
C1593 C1591 1.419 . S
C1593 C1594 1.362 . S
C1594 H1586 0.930 . S
C1594 C1593 1.362 . S
C1594 C1597 1.409 . S
C1595 H1587 0.930 . S
C1595 C1596 1.355 . S
C1595 C1597 1.415 . S
C1596 C1595 1.355 . S
C1596 C1598 1.419 . S
C1597 C1592 1.425 . S
C1597 C1594 1.409 . S
C1597 C1595 1.415 . S
C1598 H1588 0.930 . S
C1598 C1596 1.419 . S
C1598 C1599 1.362 . S
C1599 H1589 0.930 . S
C1599 C1592 1.409 . S
C1599 C1598 1.362 . S
H1600 C1606 0.930 . S
H1601 C1609 0.930 . S
H1602 C1610 0.930 . S
H1603 C1611 0.930 . S
H1604 C1614 0.930 . S
H1605 C1615 0.930 . S
C1606 H1600 0.930 . S
C1606 C1607 1.355 . S
C1606 C1608 1.415 . S
C1607 C1606 1.355 . S
C1607 C1609 1.419 . S
C1608 C1606 1.415 . S
C1608 C1613 1.425 . S
C1608 C1615 1.409 . S
C1609 H1601 0.930 . S
C1609 C1607 1.419 . S
C1609 C1610 1.362 . S
C1610 H1602 0.930 . S
C1610 C1609 1.362 . S
C1610 C1613 1.409 . S
C1611 H1603 0.930 . S
C1611 C1612 1.355 . S
C1611 C1613 1.415 . S
C1612 C1611 1.355 . S
C1612 C1614 1.419 . S
C1613 C1608 1.425 . S
C1613 C1610 1.409 . S
C1613 C1611 1.415 . S
C1614 H1604 0.930 . S
C1614 C1612 1.419 . S
C1614 C1615 1.362 . S
C1615 H1605 0.930 . S
C1615 C1608 1.409 . S
C1615 C1614 1.362 . S
H1616 C1622 0.930 . S
H1617 C1625 0.930 . S
H1618 C1626 0.930 . S
H1619 C1627 0.930 . S
H1620 C1630 0.930 . S
H1621 C1631 0.930 . S
C1622 H1616 0.930 . S
C1622 C1623 1.355 . S
C1622 C1624 1.415 . S
C1623 C1622 1.355 . S
C1623 C1625 1.419 . S
C1624 C1622 1.415 . S
C1624 C1629 1.425 . S
C1624 C1631 1.409 . S
C1625 H1617 0.930 . S
C1625 C1623 1.419 . S
C1625 C1626 1.362 . S
C1626 H1618 0.930 . S
C1626 C1625 1.362 . S
C1626 C1629 1.409 . S
C1627 H1619 0.930 . S
C1627 C1628 1.355 . S
C1627 C1629 1.415 . S
C1628 C1627 1.355 . S
C1628 C1630 1.419 . S
C1629 C1624 1.425 . S
C1629 C1626 1.409 . S
C1629 C1627 1.415 . S
C1630 H1620 0.930 . S
C1630 C1628 1.419 . S
C1630 C1631 1.362 . S
C1631 H1621 0.930 . S
C1631 C1624 1.409 . S
C1631 C1630 1.362 . S
H1632 C1638 0.930 . S
H1633 C1641 0.930 . S
H1634 C1642 0.930 . S
H1635 C1643 0.930 . S
H1636 C1646 0.930 . S
H1637 C1647 0.930 . S
C1638 H1632 0.930 . S
C1638 C1639 1.355 . S
C1638 C1640 1.415 . S
C1639 C1638 1.355 . S
C1639 C1641 1.419 . S
C1640 C1638 1.415 . S
C1640 C1645 1.425 . S
C1640 C1647 1.409 . S
C1641 H1633 0.930 . S
C1641 C1639 1.419 . S
C1641 C1642 1.362 . S
C1642 H1634 0.930 . S
C1642 C1641 1.362 . S
C1642 C1645 1.409 . S
C1643 H1635 0.930 . S
C1643 C1644 1.355 . S
C1643 C1645 1.415 . S
C1644 C1643 1.355 . S
C1644 C1646 1.419 . S
C1645 C1640 1.425 . S
C1645 C1642 1.409 . S
C1645 C1643 1.415 . S
C1646 H1636 0.930 . S
C1646 C1644 1.419 . S
C1646 C1647 1.362 . S
C1647 H1637 0.930 . S
C1647 C1640 1.409 . S
C1647 C1646 1.362 . S
H1648 C1654 0.930 . S
H1649 C1657 0.930 . S
H1650 C1658 0.930 . S
H1651 C1659 0.930 . S
H1652 C1662 0.930 . S
H1653 C1663 0.930 . S
C1654 H1648 0.930 . S
C1654 C1655 1.355 . S
C1654 C1656 1.415 . S
C1655 C1654 1.355 . S
C1655 C1657 1.419 . S
C1656 C1654 1.415 . S
C1656 C1661 1.425 . S
C1656 C1663 1.409 . S
C1657 H1649 0.930 . S
C1657 C1655 1.419 . S
C1657 C1658 1.362 . S
C1658 H1650 0.930 . S
C1658 C1657 1.362 . S
C1658 C1661 1.409 . S
C1659 H1651 0.930 . S
C1659 C1660 1.355 . S
C1659 C1661 1.415 . S
C1660 C1659 1.355 . S
C1660 C1662 1.419 . S
C1661 C1656 1.425 . S
C1661 C1658 1.409 . S
C1661 C1659 1.415 . S
C1662 H1652 0.930 . S
C1662 C1660 1.419 . S
C1662 C1663 1.362 . S
C1663 H1653 0.930 . S
C1663 C1656 1.409 . S
C1663 C1662 1.362 . S
H1664 C1670 0.930 . S
H1665 C1673 0.930 . S
H1666 C1674 0.930 . S
H1667 C1675 0.930 . S
H1668 C1678 0.930 . S
H1669 C1679 0.930 . S
C1670 H1664 0.930 . S
C1670 C1671 1.355 . S
C1670 C1672 1.415 . S
C1671 C1670 1.355 . S
C1671 C1673 1.419 . S
C1672 C1670 1.415 . S
C1672 C1677 1.425 . S
C1672 C1679 1.409 . S
C1673 H1665 0.930 . S
C1673 C1671 1.419 . S
C1673 C1674 1.362 . S
C1674 H1666 0.930 . S
C1674 C1673 1.362 . S
C1674 C1677 1.409 . S
C1675 H1667 0.930 . S
C1675 C1676 1.355 . S
C1675 C1677 1.415 . S
C1676 C1675 1.355 . S
C1676 C1678 1.419 . S
C1677 C1672 1.425 . S
C1677 C1674 1.409 . S
C1677 C1675 1.415 . S
C1678 H1668 0.930 . S
C1678 C1676 1.419 . S
C1678 C1679 1.362 . S
C1679 H1669 0.930 . S
C1679 C1672 1.409 . S
C1679 C1678 1.362 . S
H1680 C1686 0.930 . S
H1681 C1689 0.930 . S
H1682 C1690 0.930 . S
H1683 C1691 0.930 . S
H1684 C1694 0.930 . S
H1685 C1695 0.930 . S
C1686 H1680 0.930 . S
C1686 C1687 1.355 . S
C1686 C1688 1.415 . S
C1687 C1686 1.355 . S
C1687 C1689 1.419 . S
C1688 C1686 1.415 . S
C1688 C1693 1.425 . S
C1688 C1695 1.409 . S
C1689 H1681 0.930 . S
C1689 C1687 1.419 . S
C1689 C1690 1.362 . S
C1690 H1682 0.930 . S
C1690 C1689 1.362 . S
C1690 C1693 1.409 . S
C1691 H1683 0.930 . S
C1691 C1692 1.355 . S
C1691 C1693 1.415 . S
C1692 C1691 1.355 . S
C1692 C1694 1.419 . S
C1693 C1688 1.425 . S
C1693 C1690 1.409 . S
C1693 C1691 1.415 . S
C1694 H1684 0.930 . S
C1694 C1692 1.419 . S
C1694 C1695 1.362 . S
C1695 H1685 0.930 . S
C1695 C1688 1.409 . S
C1695 C1694 1.362 . S
H1696 C1702 0.930 . S
H1697 C1705 0.930 . S
H1698 C1706 0.930 . S
H1699 C1707 0.930 . S
H1700 C1710 0.930 . S
H1701 C1711 0.930 . S
C1702 H1696 0.930 . S
C1702 C1703 1.355 . S
C1702 C1704 1.415 . S
C1703 C1702 1.355 . S
C1703 C1705 1.419 . S
C1704 C1702 1.415 . S
C1704 C1709 1.425 . S
C1704 C1711 1.409 . S
C1705 H1697 0.930 . S
C1705 C1703 1.419 . S
C1705 C1706 1.362 . S
C1706 H1698 0.930 . S
C1706 C1705 1.362 . S
C1706 C1709 1.409 . S
C1707 H1699 0.930 . S
C1707 C1708 1.355 . S
C1707 C1709 1.415 . S
C1708 C1707 1.355 . S
C1708 C1710 1.419 . S
C1709 C1704 1.425 . S
C1709 C1706 1.409 . S
C1709 C1707 1.415 . S
C1710 H1700 0.930 . S
C1710 C1708 1.419 . S
C1710 C1711 1.362 . S
C1711 H1701 0.930 . S
C1711 C1704 1.409 . S
C1711 C1710 1.362 . S
H1712 C1718 0.930 . S
H1713 C1721 0.930 . S
H1714 C1722 0.930 . S
H1715 C1723 0.930 . S
H1716 C1726 0.930 . S
H1717 C1727 0.930 . S
C1718 H1712 0.930 . S
C1718 C1719 1.355 . S
C1718 C1720 1.415 . S
C1719 C1718 1.355 . S
C1719 C1721 1.419 . S
C1720 C1718 1.415 . S
C1720 C1725 1.425 . S
C1720 C1727 1.409 . S
C1721 H1713 0.930 . S
C1721 C1719 1.419 . S
C1721 C1722 1.362 . S
C1722 H1714 0.930 . S
C1722 C1721 1.362 . S
C1722 C1725 1.409 . S
C1723 H1715 0.930 . S
C1723 C1724 1.355 . S
C1723 C1725 1.415 . S
C1724 C1723 1.355 . S
C1724 C1726 1.419 . S
C1725 C1720 1.425 . S
C1725 C1722 1.409 . S
C1725 C1723 1.415 . S
C1726 H1716 0.930 . S
C1726 C1724 1.419 . S
C1726 C1727 1.362 . S
C1727 H1717 0.930 . S
C1727 C1720 1.409 . S
C1727 C1726 1.362 . S
H1728 C1734 0.930 . S
H1729 C1737 0.930 . S
H1730 C1738 0.930 . S
H1731 C1739 0.930 . S
H1732 C1742 0.930 . S
H1733 C1743 0.930 . S
C1734 H1728 0.930 . S
C1734 C1735 1.355 . S
C1734 C1736 1.415 . S
C1735 C1734 1.355 . S
C1735 C1737 1.419 . S
C1736 C1734 1.415 . S
C1736 C1741 1.425 . S
C1736 C1743 1.409 . S
C1737 H1729 0.930 . S
C1737 C1735 1.419 . S
C1737 C1738 1.362 . S
C1738 H1730 0.930 . S
C1738 C1737 1.362 . S
C1738 C1741 1.409 . S
C1739 H1731 0.930 . S
C1739 C1740 1.355 . S
C1739 C1741 1.415 . S
C1740 C1739 1.355 . S
C1740 C1742 1.419 . S
C1741 C1736 1.425 . S
C1741 C1738 1.409 . S
C1741 C1739 1.415 . S
C1742 H1732 0.930 . S
C1742 C1740 1.419 . S
C1742 C1743 1.362 . S
C1743 H1733 0.930 . S
C1743 C1736 1.409 . S
C1743 C1742 1.362 . S
H1744 C1750 0.930 . S
H1745 C1753 0.930 . S
H1746 C1754 0.930 . S
H1747 C1755 0.930 . S
H1748 C1758 0.930 . S
H1749 C1759 0.930 . S
C1750 H1744 0.930 . S
C1750 C1751 1.355 . S
C1750 C1752 1.415 . S
C1751 C1750 1.355 . S
C1751 C1753 1.419 . S
C1752 C1750 1.415 . S
C1752 C1757 1.425 . S
C1752 C1759 1.409 . S
C1753 H1745 0.930 . S
C1753 C1751 1.419 . S
C1753 C1754 1.362 . S
C1754 H1746 0.930 . S
C1754 C1753 1.362 . S
C1754 C1757 1.409 . S
C1755 H1747 0.930 . S
C1755 C1756 1.355 . S
C1755 C1757 1.415 . S
C1756 C1755 1.355 . S
C1756 C1758 1.419 . S
C1757 C1752 1.425 . S
C1757 C1754 1.409 . S
C1757 C1755 1.415 . S
C1758 H1748 0.930 . S
C1758 C1756 1.419 . S
C1758 C1759 1.362 . S
C1759 H1749 0.930 . S
C1759 C1752 1.409 . S
C1759 C1758 1.362 . S
H1760 C1766 0.930 . S
H1761 C1769 0.930 . S
H1762 C1770 0.930 . S
H1763 C1771 0.930 . S
H1764 C1774 0.930 . S
H1765 C1775 0.930 . S
C1766 H1760 0.930 . S
C1766 C1767 1.355 . S
C1766 C1768 1.415 . S
C1767 C1766 1.355 . S
C1767 C1769 1.419 . S
C1768 C1766 1.415 . S
C1768 C1773 1.425 . S
C1768 C1775 1.409 . S
C1769 H1761 0.930 . S
C1769 C1767 1.419 . S
C1769 C1770 1.362 . S
C1770 H1762 0.930 . S
C1770 C1769 1.362 . S
C1770 C1773 1.409 . S
C1771 H1763 0.930 . S
C1771 C1772 1.355 . S
C1771 C1773 1.415 . S
C1772 C1771 1.355 . S
C1772 C1774 1.419 . S
C1773 C1768 1.425 . S
C1773 C1770 1.409 . S
C1773 C1771 1.415 . S
C1774 H1764 0.930 . S
C1774 C1772 1.419 . S
C1774 C1775 1.362 . S
C1775 H1765 0.930 . S
C1775 C1768 1.409 . S
C1775 C1774 1.362 . S
H1776 C1782 0.930 . S
H1777 C1785 0.930 . S
H1778 C1786 0.930 . S
H1779 C1787 0.930 . S
H1780 C1790 0.930 . S
H1781 C1791 0.930 . S
C1782 H1776 0.930 . S
C1782 C1783 1.355 . S
C1782 C1784 1.415 . S
C1783 C1782 1.355 . S
C1783 C1785 1.419 . S
C1784 C1782 1.415 . S
C1784 C1789 1.425 . S
C1784 C1791 1.409 . S
C1785 H1777 0.930 . S
C1785 C1783 1.419 . S
C1785 C1786 1.362 . S
C1786 H1778 0.930 . S
C1786 C1785 1.362 . S
C1786 C1789 1.409 . S
C1787 H1779 0.930 . S
C1787 C1788 1.355 . S
C1787 C1789 1.415 . S
C1788 C1787 1.355 . S
C1788 C1790 1.419 . S
C1789 C1784 1.425 . S
C1789 C1786 1.409 . S
C1789 C1787 1.415 . S
C1790 H1780 0.930 . S
C1790 C1788 1.419 . S
C1790 C1791 1.362 . S
C1791 H1781 0.930 . S
C1791 C1784 1.409 . S
C1791 C1790 1.362 . S
H1792 C1798 0.930 . S
H1793 C1801 0.930 . S
H1794 C1802 0.930 . S
H1795 C1803 0.930 . S
H1796 C1806 0.930 . S
H1797 C1807 0.930 . S
C1798 H1792 0.930 . S
C1798 C1799 1.355 . S
C1798 C1800 1.415 . S
C1799 C1798 1.355 . S
C1799 C1801 1.419 . S
C1800 C1798 1.415 . S
C1800 C1805 1.425 . S
C1800 C1807 1.409 . S
C1801 H1793 0.930 . S
C1801 C1799 1.419 . S
C1801 C1802 1.362 . S
C1802 H1794 0.930 . S
C1802 C1801 1.362 . S
C1802 C1805 1.409 . S
C1803 H1795 0.930 . S
C1803 C1804 1.355 . S
C1803 C1805 1.415 . S
C1804 C1803 1.355 . S
C1804 C1806 1.419 . S
C1805 C1800 1.425 . S
C1805 C1802 1.409 . S
C1805 C1803 1.415 . S
C1806 H1796 0.930 . S
C1806 C1804 1.419 . S
C1806 C1807 1.362 . S
C1807 H1797 0.930 . S
C1807 C1800 1.409 . S
C1807 C1806 1.362 . S
H1808 C1814 0.930 . S
H1809 C1817 0.930 . S
H1810 C1818 0.930 . S
H1811 C1819 0.930 . S
H1812 C1822 0.930 . S
H1813 C1823 0.930 . S
C1814 H1808 0.930 . S
C1814 C1815 1.355 . S
C1814 C1816 1.415 . S
C1815 C1814 1.355 . S
C1815 C1817 1.419 . S
C1816 C1814 1.415 . S
C1816 C1821 1.425 . S
C1816 C1823 1.409 . S
C1817 H1809 0.930 . S
C1817 C1815 1.419 . S
C1817 C1818 1.362 . S
C1818 H1810 0.930 . S
C1818 C1817 1.362 . S
C1818 C1821 1.409 . S
C1819 H1811 0.930 . S
C1819 C1820 1.355 . S
C1819 C1821 1.415 . S
C1820 C1819 1.355 . S
C1820 C1822 1.419 . S
C1821 C1816 1.425 . S
C1821 C1818 1.409 . S
C1821 C1819 1.415 . S
C1822 H1812 0.930 . S
C1822 C1820 1.419 . S
C1822 C1823 1.362 . S
C1823 H1813 0.930 . S
C1823 C1816 1.409 . S
C1823 C1822 1.362 . S
H1824 C1830 0.930 . S
H1825 C1833 0.930 . S
H1826 C1834 0.930 . S
H1827 C1835 0.930 . S
H1828 C1838 0.930 . S
H1829 C1839 0.930 . S
C1830 H1824 0.930 . S
C1830 C1831 1.355 . S
C1830 C1832 1.415 . S
C1831 C1830 1.355 . S
C1831 C1833 1.419 . S
C1832 C1830 1.415 . S
C1832 C1837 1.425 . S
C1832 C1839 1.409 . S
C1833 H1825 0.930 . S
C1833 C1831 1.419 . S
C1833 C1834 1.362 . S
C1834 H1826 0.930 . S
C1834 C1833 1.362 . S
C1834 C1837 1.409 . S
C1835 H1827 0.930 . S
C1835 C1836 1.355 . S
C1835 C1837 1.415 . S
C1836 C1835 1.355 . S
C1836 C1838 1.419 . S
C1837 C1832 1.425 . S
C1837 C1834 1.409 . S
C1837 C1835 1.415 . S
C1838 H1828 0.930 . S
C1838 C1836 1.419 . S
C1838 C1839 1.362 . S
C1839 H1829 0.930 . S
C1839 C1832 1.409 . S
C1839 C1838 1.362 . S
H1840 C1846 0.930 . S
H1841 C1849 0.930 . S
H1842 C1850 0.930 . S
H1843 C1851 0.930 . S
H1844 C1854 0.930 . S
H1845 C1855 0.930 . S
C1846 H1840 0.930 . S
C1846 C1847 1.355 . S
C1846 C1848 1.415 . S
C1847 C1846 1.355 . S
C1847 C1849 1.419 . S
C1848 C1846 1.415 . S
C1848 C1853 1.425 . S
C1848 C1855 1.409 . S
C1849 H1841 0.930 . S
C1849 C1847 1.419 . S
C1849 C1850 1.362 . S
C1850 H1842 0.930 . S
C1850 C1849 1.362 . S
C1850 C1853 1.409 . S
C1851 H1843 0.930 . S
C1851 C1852 1.355 . S
C1851 C1853 1.415 . S
C1852 C1851 1.355 . S
C1852 C1854 1.419 . S
C1853 C1848 1.425 . S
C1853 C1850 1.409 . S
C1853 C1851 1.415 . S
C1854 H1844 0.930 . S
C1854 C1852 1.419 . S
C1854 C1855 1.362 . S
C1855 H1845 0.930 . S
C1855 C1848 1.409 . S
C1855 C1854 1.362 . S
H1856 C1862 0.930 . S
H1857 C1865 0.930 . S
H1858 C1866 0.930 . S
H1859 C1867 0.930 . S
H1860 C1870 0.930 . S
H1861 C1871 0.930 . S
C1862 H1856 0.930 . S
C1862 C1863 1.355 . S
C1862 C1864 1.415 . S
C1863 C1862 1.355 . S
C1863 C1865 1.419 . S
C1864 C1862 1.415 . S
C1864 C1869 1.425 . S
C1864 C1871 1.409 . S
C1865 H1857 0.930 . S
C1865 C1863 1.419 . S
C1865 C1866 1.362 . S
C1866 H1858 0.930 . S
C1866 C1865 1.362 . S
C1866 C1869 1.409 . S
C1867 H1859 0.930 . S
C1867 C1868 1.355 . S
C1867 C1869 1.415 . S
C1868 C1867 1.355 . S
C1868 C1870 1.419 . S
C1869 C1864 1.425 . S
C1869 C1866 1.409 . S
C1869 C1867 1.415 . S
C1870 H1860 0.930 . S
C1870 C1868 1.419 . S
C1870 C1871 1.362 . S
C1871 H1861 0.930 . S
C1871 C1864 1.409 . S
C1871 C1870 1.362 . S
H1872 C1878 0.930 . S
H1873 C1881 0.930 . S
H1874 C1882 0.930 . S
H1875 C1883 0.930 . S
H1876 C1886 0.930 . S
H1877 C1887 0.930 . S
C1878 H1872 0.930 . S
C1878 C1879 1.355 . S
C1878 C1880 1.415 . S
C1879 C1878 1.355 . S
C1879 C1881 1.419 . S
C1880 C1878 1.415 . S
C1880 C1885 1.425 . S
C1880 C1887 1.409 . S
C1881 H1873 0.930 . S
C1881 C1879 1.419 . S
C1881 C1882 1.362 . S
C1882 H1874 0.930 . S
C1882 C1881 1.362 . S
C1882 C1885 1.409 . S
C1883 H1875 0.930 . S
C1883 C1884 1.355 . S
C1883 C1885 1.415 . S
C1884 C1883 1.355 . S
C1884 C1886 1.419 . S
C1885 C1880 1.425 . S
C1885 C1882 1.409 . S
C1885 C1883 1.415 . S
C1886 H1876 0.930 . S
C1886 C1884 1.419 . S
C1886 C1887 1.362 . S
C1887 H1877 0.930 . S
C1887 C1880 1.409 . S
C1887 C1886 1.362 . S
H1888 C1894 0.930 . S
H1889 C1897 0.930 . S
H1890 C1898 0.930 . S
H1891 C1899 0.930 . S
H1892 C1902 0.930 . S
H1893 C1903 0.930 . S
C1894 H1888 0.930 . S
C1894 C1895 1.355 . S
C1894 C1896 1.415 . S
C1895 C1894 1.355 . S
C1895 C1897 1.419 . S
C1896 C1894 1.415 . S
C1896 C1901 1.425 1_565 S
C1896 C1903 1.409 1_565 S
C1897 H1889 0.930 . S
C1897 C1895 1.419 . S
C1897 C1898 1.362 . S
C1898 H1890 0.930 . S
C1898 C1897 1.362 . S
C1898 C1901 1.409 1_565 S
C1899 H1891 0.930 . S
C1899 C1900 1.355 . S
C1899 C1901 1.415 . S
C1900 C1899 1.355 . S
C1900 C1902 1.419 . S
C1901 C1896 1.425 1_545 S
C1901 C1898 1.409 1_545 S
C1901 C1899 1.415 . S
C1902 H1892 0.930 . S
C1902 C1900 1.419 . S
C1902 C1903 1.362 . S
C1903 H1893 0.930 . S
C1903 C1896 1.409 1_545 S
C1903 C1902 1.362 . S
H1904 C1910 0.930 . S
H1905 C1913 0.930 . S
H1906 C1914 0.930 . S
H1907 C1915 0.930 . S
H1908 C1918 0.930 . S
H1909 C1919 0.930 . S
C1910 H1904 0.930 . S
C1910 C1911 1.355 . S
C1910 C1912 1.458 . S
C1911 C1910 1.355 . S
C1911 C1913 1.419 . S
C1912 C1910 1.458 . S
C1912 C1917 1.427 1_655 S
C1912 C1919 1.366 1_655 S
C1913 H1905 0.930 . S
C1913 C1911 1.419 . S
C1913 C1914 1.362 . S
C1914 H1906 0.930 . S
C1914 C1913 1.362 . S
C1914 C1917 1.409 1_655 S
C1915 H1907 0.930 . S
C1915 C1916 1.355 . S
C1915 C1917 1.415 . S
C1916 C1915 1.355 . S
C1916 C1918 1.419 . S
C1917 C1912 1.427 1_455 S
C1917 C1914 1.409 1_455 S
C1917 C1915 1.415 . S
C1918 H1908 0.930 . S
C1918 C1916 1.419 . S
C1918 C1919 1.362 . S
C1919 H1909 0.930 . S
C1919 C1912 1.366 1_455 S
C1919 C1918 1.362 . S
H1920 C1926 0.930 . S
H1921 C1929 0.930 . S
H1922 C1930 0.930 . S
H1923 C1931 0.930 . S
H1924 C1934 0.930 . S
H1925 C1935 0.930 . S
C1926 H1920 0.930 . S
C1926 C1927 1.355 . S
C1926 C1928 1.415 . S
C1927 C1926 1.355 . S
C1927 C1929 1.419 . S
C1928 C1926 1.415 . S
C1928 C1933 1.425 . S
C1928 C1935 1.409 . S
C1929 H1921 0.930 . S
C1929 C1927 1.419 . S
C1929 C1930 1.362 . S
C1930 H1922 0.930 . S
C1930 C1929 1.362 . S
C1930 C1933 1.409 . S
C1931 H1923 0.930 . S
C1931 C1932 1.355 . S
C1931 C1933 1.415 . S
C1932 C1931 1.355 . S
C1932 C1934 1.419 . S
C1933 C1928 1.425 . S
C1933 C1930 1.409 . S
C1933 C1931 1.415 . S
C1934 H1924 0.930 . S
C1934 C1932 1.419 . S
C1934 C1935 1.362 . S
C1935 H1925 0.930 . S
C1935 C1928 1.409 . S
C1935 C1934 1.362 . S
H1936 C1942 0.930 . S
H1937 C1945 0.930 . S
H1938 C1946 0.930 . S
H1939 C1947 0.930 . S
H1940 C1950 0.930 . S
H1941 C1951 0.930 . S
C1942 H1936 0.930 . S
C1942 C1943 1.355 . S
C1942 C1944 1.415 . S
C1943 C1942 1.355 . S
C1943 C1945 1.419 . S
C1944 C1942 1.415 . S
C1944 C1949 1.425 1_545 S
C1944 C1951 1.409 1_545 S
C1945 H1937 0.930 . S
C1945 C1943 1.419 . S
C1945 C1946 1.362 . S
C1946 H1938 0.930 . S
C1946 C1945 1.362 . S
C1946 C1949 1.409 1_545 S
C1947 H1939 0.930 . S
C1947 C1948 1.355 . S
C1947 C1949 1.415 . S
C1948 C1947 1.355 . S
C1948 C1950 1.419 . S
C1949 C1944 1.425 1_565 S
C1949 C1946 1.409 1_565 S
C1949 C1947 1.415 . S
C1950 H1940 0.930 . S
C1950 C1948 1.419 . S
C1950 C1951 1.362 . S
C1951 H1941 0.930 . S
C1951 C1944 1.409 1_565 S
C1951 C1950 1.362 . S
H1952 C1958 0.930 . S
H1953 C1961 0.930 . S
H1954 C1962 0.930 . S
H1955 C1963 0.930 . S
H1956 C1966 0.930 . S
H1957 C1967 0.930 . S
C1958 H1952 0.930 . S
C1958 C1959 1.355 . S
C1958 C1960 1.415 . S
C1959 C1958 1.355 . S
C1959 C1961 1.419 . S
C1960 C1958 1.415 . S
C1960 C1965 1.428 1_655 S
C1960 C1967 1.409 1_655 S
C1961 H1953 0.930 . S
C1961 C1959 1.419 . S
C1961 C1962 1.362 . S
C1962 H1954 0.930 . S
C1962 C1961 1.362 . S
C1962 C1965 1.400 1_655 S
C1963 H1955 0.930 . S
C1963 C1964 1.355 . S
C1963 C1965 1.421 . S
C1964 C1963 1.355 . S
C1964 C1966 1.419 . S
C1965 C1960 1.428 1_455 S
C1965 C1962 1.400 1_455 S
C1965 C1963 1.421 . S
C1966 H1956 0.930 . S
C1966 C1964 1.419 . S
C1966 C1967 1.362 . S
C1967 H1957 0.930 . S
C1967 C1960 1.409 1_455 S
C1967 C1966 1.362 . S
H1968 C1974 0.930 . S
H1969 C1977 0.930 . S
H1970 C1978 0.930 . S
H1971 C1979 0.930 . S
H1972 C1982 0.930 . S
H1973 C1983 0.930 . S
C1974 H1968 0.930 . S
C1974 C1975 1.355 . S
C1974 C1976 1.415 . S
C1975 C1974 1.355 . S
C1975 C1977 1.419 . S
C1976 C1974 1.415 . S
C1976 C1981 1.425 . S
C1976 C1983 1.409 . S
C1977 H1969 0.930 . S
C1977 C1975 1.419 . S
C1977 C1978 1.362 . S
C1978 H1970 0.930 . S
C1978 C1977 1.362 . S
C1978 C1981 1.409 . S
C1979 H1971 0.930 . S
C1979 C1980 1.355 . S
C1979 C1981 1.415 . S
C1980 C1979 1.355 . S
C1980 C1982 1.419 . S
C1981 C1976 1.425 . S
C1981 C1978 1.409 . S
C1981 C1979 1.415 . S
C1982 H1972 0.930 . S
C1982 C1980 1.419 . S
C1982 C1983 1.362 . S
C1983 H1973 0.930 . S
C1983 C1976 1.409 . S
C1983 C1982 1.362 . S
H1984 C1990 0.930 . S
H1985 C1993 0.930 . S
H1986 C1994 0.930 . S
H1987 C1995 0.930 . S
H1988 C1998 0.930 . S
H1989 C1999 0.930 . S
C1990 H1984 0.930 . S
C1990 C1991 1.355 . S
C1990 C1992 1.415 . S
C1991 C1990 1.355 . S
C1991 C1993 1.419 . S
C1992 C1990 1.415 . S
C1992 C1997 1.425 . S
C1992 C1999 1.409 . S
C1993 H1985 0.930 . S
C1993 C1991 1.419 . S
C1993 C1994 1.362 . S
C1994 H1986 0.930 . S
C1994 C1993 1.362 . S
C1994 C1997 1.409 . S
C1995 H1987 0.930 . S
C1995 C1996 1.355 . S
C1995 C1997 1.415 . S
C1996 C1995 1.355 . S
C1996 C1998 1.419 . S
C1997 C1992 1.425 . S
C1997 C1994 1.409 . S
C1997 C1995 1.415 . S
C1998 H1988 0.930 . S
C1998 C1996 1.419 . S
C1998 C1999 1.362 . S
C1999 H1989 0.930 . S
C1999 C1992 1.409 . S
C1999 C1998 1.362 . S
H2000 C2006 0.930 . S
H2001 C2009 0.930 . S
H2002 C2010 0.930 . S
H2003 C2011 0.930 . S
H2004 C2014 0.930 . S
H2005 C2015 0.930 . S
C2006 H2000 0.930 . S
C2006 C2007 1.355 . S
C2006 C2008 1.415 . S
C2007 C2006 1.355 . S
C2007 C2009 1.419 . S
C2008 C2006 1.415 . S
C2008 C2013 1.425 . S
C2008 C2015 1.409 . S
C2009 H2001 0.930 . S
C2009 C2007 1.419 . S
C2009 C2010 1.362 . S
C2010 H2002 0.930 . S
C2010 C2009 1.362 . S
C2010 C2013 1.409 . S
C2011 H2003 0.930 . S
C2011 C2012 1.355 . S
C2011 C2013 1.415 . S
C2012 C2011 1.355 . S
C2012 C2014 1.419 . S
C2013 C2008 1.425 . S
C2013 C2010 1.409 . S
C2013 C2011 1.415 . S
C2014 H2004 0.930 . S
C2014 C2012 1.419 . S
C2014 C2015 1.362 . S
C2015 H2005 0.930 . S
C2015 C2008 1.409 . S
C2015 C2014 1.362 . S
H2016 C2022 0.930 . S
H2017 C2025 0.930 . S
H2018 C2026 0.930 . S
H2019 C2027 0.930 . S
H2020 C2030 0.930 . S
H2021 C2031 0.930 . S
C2022 H2016 0.930 . S
C2022 C2023 1.355 . S
C2022 C2024 1.415 . S
C2023 C2022 1.355 . S
C2023 C2025 1.419 . S
C2024 C2022 1.415 . S
C2024 C2029 1.425 . S
C2024 C2031 1.409 . S
C2025 H2017 0.930 . S
C2025 C2023 1.419 . S
C2025 C2026 1.362 . S
C2026 H2018 0.930 . S
C2026 C2025 1.362 . S
C2026 C2029 1.409 . S
C2027 H2019 0.930 . S
C2027 C2028 1.355 . S
C2027 C2029 1.415 . S
C2028 C2027 1.355 . S
C2028 C2030 1.419 . S
C2029 C2024 1.425 . S
C2029 C2026 1.409 . S
C2029 C2027 1.415 . S
C2030 H2020 0.930 . S
C2030 C2028 1.419 . S
C2030 C2031 1.362 . S
C2031 H2021 0.930 . S
C2031 C2024 1.409 . S
C2031 C2030 1.362 . S
H2032 C2038 0.930 . S
H2033 C2041 0.930 1_556 S
H2034 C2042 0.930 1_556 S
H2035 C2043 0.930 . S
H2036 C2046 0.930 . S
H2037 C2047 0.930 . S
C2038 H2032 0.930 . S
C2038 C2039 1.355 . S
C2038 C2040 1.415 . S
C2039 C2038 1.355 . S
C2039 C2041 1.419 . S
C2040 C2038 1.415 . S
C2040 C2045 1.425 . S
C2040 C2047 1.409 . S
C2041 H2033 0.930 1_554 S
C2041 C2039 1.419 . S
C2041 C2042 1.362 . S
C2042 H2034 0.930 1_554 S
C2042 C2041 1.362 . S
C2042 C2045 1.409 . S
C2043 H2035 0.930 . S
C2043 C2044 1.355 . S
C2043 C2045 1.415 . S
C2044 C2043 1.355 . S
C2044 C2046 1.419 . S
C2045 C2040 1.425 . S
C2045 C2042 1.409 . S
C2045 C2043 1.415 . S
C2046 H2036 0.930 . S
C2046 C2044 1.419 . S
C2046 C2047 1.362 . S
C2047 H2037 0.930 . S
C2047 C2040 1.409 . S
C2047 C2046 1.362 . S
H2048 C2054 0.930 . S
H2049 C2057 0.930 . S
H2050 C2058 0.930 . S
H2051 C2059 0.930 . S
H2052 C2062 0.930 . S
H2053 C2063 0.930 . S
C2054 H2048 0.930 . S
C2054 C2055 1.355 . S
C2054 C2056 1.415 . S
C2055 C2054 1.355 . S
C2055 C2057 1.419 . S
C2056 C2054 1.415 . S
C2056 C2061 1.425 . S
C2056 C2063 1.409 . S
C2057 H2049 0.930 . S
C2057 C2055 1.419 . S
C2057 C2058 1.362 . S
C2058 H2050 0.930 . S
C2058 C2057 1.362 . S
C2058 C2061 1.409 . S
C2059 H2051 0.930 . S
C2059 C2060 1.355 . S
C2059 C2061 1.415 . S
C2060 C2059 1.355 . S
C2060 C2062 1.419 . S
C2061 C2056 1.425 . S
C2061 C2058 1.409 . S
C2061 C2059 1.415 . S
C2062 H2052 0.930 . S
C2062 C2060 1.419 . S
C2062 C2063 1.362 . S
C2063 H2053 0.930 . S
C2063 C2056 1.409 . S
C2063 C2062 1.362 . S
H2064 C2070 0.930 . S
H2065 C2073 0.930 . S
H2066 C2074 0.930 . S
H2067 C2075 0.930 . S
H2068 C2078 0.930 . S
H2069 C2079 0.930 . S
C2070 H2064 0.930 . S
C2070 C2071 1.355 . S
C2070 C2072 1.415 . S
C2071 C2070 1.355 . S
C2071 C2073 1.419 . S
C2072 C2070 1.415 . S
C2072 C2077 1.425 . S
C2072 C2079 1.409 . S
C2073 H2065 0.930 . S
C2073 C2071 1.419 . S
C2073 C2074 1.362 . S
C2074 H2066 0.930 . S
C2074 C2073 1.362 . S
C2074 C2077 1.409 . S
C2075 H2067 0.930 . S
C2075 C2076 1.355 . S
C2075 C2077 1.415 . S
C2076 C2075 1.355 . S
C2076 C2078 1.419 . S
C2077 C2072 1.425 . S
C2077 C2074 1.409 . S
C2077 C2075 1.415 . S
C2078 H2068 0.930 . S
C2078 C2076 1.419 . S
C2078 C2079 1.362 . S
C2079 H2069 0.930 . S
C2079 C2072 1.409 . S
C2079 C2078 1.362 . S
H2080 C2086 0.930 . S
H2081 C2089 0.930 1_554 S
H2082 C2090 0.930 1_554 S
H2083 C2091 0.930 . S
H2084 C2094 0.930 . S
H2085 C2095 0.930 . S
C2086 H2080 0.930 . S
C2086 C2087 1.355 . S
C2086 C2088 1.415 . S
C2087 C2086 1.355 . S
C2087 C2089 1.419 . S
C2088 C2086 1.415 . S
C2088 C2093 1.425 . S
C2088 C2095 1.409 . S
C2089 H2081 0.930 1_556 S
C2089 C2087 1.419 . S
C2089 C2090 1.362 . S
C2090 H2082 0.930 1_556 S
C2090 C2089 1.362 . S
C2090 C2093 1.409 . S
C2091 H2083 0.930 . S
C2091 C2092 1.355 . S
C2091 C2093 1.415 . S
C2092 C2091 1.355 . S
C2092 C2094 1.419 . S
C2093 C2088 1.425 . S
C2093 C2090 1.409 . S
C2093 C2091 1.415 . S
C2094 H2084 0.930 . S
C2094 C2092 1.419 . S
C2094 C2095 1.362 . S
C2095 H2085 0.930 . S
C2095 C2088 1.409 . S
C2095 C2094 1.362 . S
H2096 C2102 0.930 . S
H2097 C2105 0.930 . S
H2098 C2106 0.930 . S
H2099 C2107 0.930 . S
H2100 C2110 0.930 . S
H2101 C2111 0.930 . S
C2102 H2096 0.930 . S
C2102 C2103 1.355 . S
C2102 C2104 1.415 . S
C2103 C2102 1.355 . S
C2103 C2105 1.419 . S
C2104 C2102 1.415 . S
C2104 C2109 1.425 . S
C2104 C2111 1.409 . S
C2105 H2097 0.930 . S
C2105 C2103 1.419 . S
C2105 C2106 1.362 . S
C2106 H2098 0.930 . S
C2106 C2105 1.362 . S
C2106 C2109 1.409 . S
C2107 H2099 0.930 . S
C2107 C2108 1.355 . S
C2107 C2109 1.415 . S
C2108 C2107 1.355 . S
C2108 C2110 1.419 . S
C2109 C2104 1.425 . S
C2109 C2106 1.409 . S
C2109 C2107 1.415 . S
C2110 H2100 0.930 . S
C2110 C2108 1.419 . S
C2110 C2111 1.362 . S
C2111 H2101 0.930 . S
C2111 C2104 1.409 . S
C2111 C2110 1.362 . S
H2112 C2118 0.930 . S
H2113 C2121 0.930 . S
H2114 C2122 0.930 . S
H2115 C2123 0.930 . S
H2116 C2126 0.930 . S
H2117 C2127 0.930 . S
C2118 H2112 0.930 . S
C2118 C2119 1.355 . S
C2118 C2120 1.415 . S
C2119 C2118 1.355 . S
C2119 C2121 1.419 . S
C2120 C2118 1.415 . S
C2120 C2125 1.425 . S
C2120 C2127 1.409 . S
C2121 H2113 0.930 . S
C2121 C2119 1.419 . S
C2121 C2122 1.362 . S
C2122 H2114 0.930 . S
C2122 C2121 1.362 . S
C2122 C2125 1.409 . S
C2123 H2115 0.930 . S
C2123 C2124 1.355 . S
C2123 C2125 1.415 . S
C2124 C2123 1.355 . S
C2124 C2126 1.419 . S
C2125 C2120 1.425 . S
C2125 C2122 1.409 . S
C2125 C2123 1.415 . S
C2126 H2116 0.930 . S
C2126 C2124 1.419 . S
C2126 C2127 1.362 . S
C2127 H2117 0.930 . S
C2127 C2120 1.409 . S
C2127 C2126 1.362 . S
H2128 C2134 0.930 . S
H2129 C2137 0.930 . S
H2130 C2138 0.930 . S
H2131 C2139 0.930 . S
H2132 C2142 0.930 . S
H2133 C2143 0.930 . S
C2134 H2128 0.930 . S
C2134 C2135 1.355 . S
C2134 C2136 1.415 . S
C2135 C2134 1.355 . S
C2135 C2137 1.419 . S
C2136 C2134 1.415 . S
C2136 C2141 1.425 . S
C2136 C2143 1.409 . S
C2137 H2129 0.930 . S
C2137 C2135 1.419 . S
C2137 C2138 1.362 . S
C2138 H2130 0.930 . S
C2138 C2137 1.362 . S
C2138 C2141 1.409 . S
C2139 H2131 0.930 . S
C2139 C2140 1.355 . S
C2139 C2141 1.415 . S
C2140 C2139 1.355 . S
C2140 C2142 1.419 . S
C2141 C2136 1.425 . S
C2141 C2138 1.409 . S
C2141 C2139 1.415 . S
C2142 H2132 0.930 . S
C2142 C2140 1.419 . S
C2142 C2143 1.362 . S
C2143 H2133 0.930 . S
C2143 C2136 1.409 . S
C2143 C2142 1.362 . S
H2144 C2150 0.930 . S
H2145 C2153 0.930 . S
H2146 C2154 0.930 . S
H2147 C2155 0.930 . S
H2148 C2158 0.930 . S
H2149 C2159 0.930 . S
C2150 H2144 0.930 . S
C2150 C2151 1.355 . S
C2150 C2152 1.415 . S
C2151 C2150 1.355 . S
C2151 C2153 1.419 . S
C2152 C2150 1.415 . S
C2152 C2157 1.425 . S
C2152 C2159 1.409 . S
C2153 H2145 0.930 . S
C2153 C2151 1.419 . S
C2153 C2154 1.362 . S
C2154 H2146 0.930 . S
C2154 C2153 1.362 . S
C2154 C2157 1.409 . S
C2155 H2147 0.930 . S
C2155 C2156 1.355 . S
C2155 C2157 1.415 . S
C2156 C2155 1.355 . S
C2156 C2158 1.419 . S
C2157 C2152 1.425 . S
C2157 C2154 1.409 . S
C2157 C2155 1.415 . S
C2158 H2148 0.930 . S
C2158 C2156 1.419 . S
C2158 C2159 1.362 . S
C2159 H2149 0.930 . S
C2159 C2152 1.409 . S
C2159 C2158 1.362 . S
H2160 C2166 0.930 . S
H2161 C2169 0.930 . S
H2162 C2170 0.930 . S
H2163 C2171 0.930 . S
H2164 C2174 0.930 . S
H2165 C2175 0.930 . S
C2166 H2160 0.930 . S
C2166 C2167 1.355 . S
C2166 C2168 1.415 . S
C2167 C2166 1.355 . S
C2167 C2169 1.419 . S
C2168 C2166 1.415 . S
C2168 C2173 1.425 . S
C2168 C2175 1.409 . S
C2169 H2161 0.930 . S
C2169 C2167 1.419 . S
C2169 C2170 1.362 . S
C2170 H2162 0.930 . S
C2170 C2169 1.362 . S
C2170 C2173 1.409 . S
C2171 H2163 0.930 . S
C2171 C2172 1.355 . S
C2171 C2173 1.415 . S
C2172 C2171 1.355 . S
C2172 C2174 1.419 . S
C2173 C2168 1.425 . S
C2173 C2170 1.409 . S
C2173 C2171 1.415 . S
C2174 H2164 0.930 . S
C2174 C2172 1.419 . S
C2174 C2175 1.362 . S
C2175 H2165 0.930 . S
C2175 C2168 1.409 . S
C2175 C2174 1.362 . S
H2176 C2182 0.930 . S
H2177 C2185 0.930 . S
H2178 C2186 0.930 . S
H2179 C2187 0.930 . S
H2180 C2190 0.930 . S
H2181 C2191 0.930 . S
C2182 H2176 0.930 . S
C2182 C2183 1.355 . S
C2182 C2184 1.415 . S
C2183 C2182 1.355 . S
C2183 C2185 1.419 . S
C2184 C2182 1.415 . S
C2184 C2189 1.425 . S
C2184 C2191 1.409 . S
C2185 H2177 0.930 . S
C2185 C2183 1.419 . S
C2185 C2186 1.362 . S
C2186 H2178 0.930 . S
C2186 C2185 1.362 . S
C2186 C2189 1.409 . S
C2187 H2179 0.930 . S
C2187 C2188 1.355 . S
C2187 C2189 1.415 . S
C2188 C2187 1.355 . S
C2188 C2190 1.419 . S
C2189 C2184 1.425 . S
C2189 C2186 1.409 . S
C2189 C2187 1.415 . S
C2190 H2180 0.930 . S
C2190 C2188 1.419 . S
C2190 C2191 1.362 . S
C2191 H2181 0.930 . S
C2191 C2184 1.409 . S
C2191 C2190 1.362 . S
H2192 C2198 0.930 . S
H2193 C2201 0.930 . S
H2194 C2202 0.930 . S
H2195 C2203 0.930 . S
H2196 C2206 0.930 . S
H2197 C2207 0.930 . S
C2198 H2192 0.930 . S
C2198 C2199 1.355 . S
C2198 C2200 1.415 . S
C2199 C2198 1.355 . S
C2199 C2201 1.419 . S
C2200 C2198 1.415 . S
C2200 C2205 1.425 . S
C2200 C2207 1.409 . S
C2201 H2193 0.930 . S
C2201 C2199 1.419 . S
C2201 C2202 1.362 . S
C2202 H2194 0.930 . S
C2202 C2201 1.362 . S
C2202 C2205 1.409 . S
C2203 H2195 0.930 . S
C2203 C2204 1.355 . S
C2203 C2205 1.415 . S
C2204 C2203 1.355 . S
C2204 C2206 1.419 . S
C2205 C2200 1.425 . S
C2205 C2202 1.409 . S
C2205 C2203 1.415 . S
C2206 H2196 0.930 . S
C2206 C2204 1.419 . S
C2206 C2207 1.362 . S
C2207 H2197 0.930 . S
C2207 C2200 1.409 . S
C2207 C2206 1.362 . S
H2208 C2214 0.930 . S
H2209 C2217 0.930 . S
H2210 C2218 0.930 . S
H2211 C2219 0.930 . S
H2212 C2222 0.930 . S
H2213 C2223 0.930 . S
C2214 H2208 0.930 . S
C2214 C2215 1.355 . S
C2214 C2216 1.415 . S
C2215 C2214 1.355 . S
C2215 C2217 1.419 . S
C2216 C2214 1.415 . S
C2216 C2221 1.425 . S
C2216 C2223 1.409 . S
C2217 H2209 0.930 . S
C2217 C2215 1.419 . S
C2217 C2218 1.362 . S
C2218 H2210 0.930 . S
C2218 C2217 1.362 . S
C2218 C2221 1.409 . S
C2219 H2211 0.930 . S
C2219 C2220 1.355 . S
C2219 C2221 1.415 . S
C2220 C2219 1.355 . S
C2220 C2222 1.419 . S
C2221 C2216 1.425 . S
C2221 C2218 1.409 . S
C2221 C2219 1.415 . S
C2222 H2212 0.930 . S
C2222 C2220 1.419 . S
C2222 C2223 1.362 . S
C2223 H2213 0.930 . S
C2223 C2216 1.409 . S
C2223 C2222 1.362 . S
H2224 C2230 0.930 . S
H2225 C2233 0.930 . S
H2226 C2234 0.930 . S
H2227 C2235 0.930 . S
H2228 C2238 0.930 . S
H2229 C2239 0.930 . S
C2230 H2224 0.930 . S
C2230 C2231 1.355 . S
C2230 C2232 1.415 . S
C2231 C2230 1.355 . S
C2231 C2233 1.419 . S
C2232 C2230 1.415 . S
C2232 C2237 1.425 . S
C2232 C2239 1.409 . S
C2233 H2225 0.930 . S
C2233 C2231 1.419 . S
C2233 C2234 1.362 . S
C2234 H2226 0.930 . S
C2234 C2233 1.362 . S
C2234 C2237 1.409 . S
C2235 H2227 0.930 . S
C2235 C2236 1.355 . S
C2235 C2237 1.415 . S
C2236 C2235 1.355 . S
C2236 C2238 1.419 . S
C2237 C2232 1.425 . S
C2237 C2234 1.409 . S
C2237 C2235 1.415 . S
C2238 H2228 0.930 . S
C2238 C2236 1.419 . S
C2238 C2239 1.362 . S
C2239 H2229 0.930 . S
C2239 C2232 1.409 . S
C2239 C2238 1.362 . S
H2240 C2246 0.930 . S
H2241 C2249 0.930 . S
H2242 C2250 0.930 . S
H2243 C2251 0.930 . S
H2244 C2254 0.930 . S
H2245 C2255 0.930 . S
C2246 H2240 0.930 . S
C2246 C2247 1.355 . S
C2246 C2248 1.415 . S
C2247 C2246 1.355 . S
C2247 C2249 1.419 . S
C2248 C2246 1.415 . S
C2248 C2253 1.425 . S
C2248 C2255 1.409 . S
C2249 H2241 0.930 . S
C2249 C2247 1.419 . S
C2249 C2250 1.362 . S
C2250 H2242 0.930 . S
C2250 C2249 1.362 . S
C2250 C2253 1.409 . S
C2251 H2243 0.930 . S
C2251 C2252 1.355 . S
C2251 C2253 1.415 . S
C2252 C2251 1.355 . S
C2252 C2254 1.419 . S
C2253 C2248 1.425 . S
C2253 C2250 1.409 . S
C2253 C2251 1.415 . S
C2254 H2244 0.930 . S
C2254 C2252 1.419 . S
C2254 C2255 1.362 . S
C2255 H2245 0.930 . S
C2255 C2248 1.409 . S
C2255 C2254 1.362 . S
H2256 C2262 0.930 . S
H2257 C2265 0.930 . S
H2258 C2266 0.930 . S
H2259 C2267 0.930 . S
H2260 C2270 0.930 . S
H2261 C2271 0.930 . S
C2262 H2256 0.930 . S
C2262 C2263 1.355 . S
C2262 C2264 1.415 . S
C2263 C2262 1.355 . S
C2263 C2265 1.419 . S
C2264 C2262 1.415 . S
C2264 C2269 1.425 . S
C2264 C2271 1.409 . S
C2265 H2257 0.930 . S
C2265 C2263 1.419 . S
C2265 C2266 1.362 . S
C2266 H2258 0.930 . S
C2266 C2265 1.362 . S
C2266 C2269 1.409 . S
C2267 H2259 0.930 . S
C2267 C2268 1.355 . S
C2267 C2269 1.415 . S
C2268 C2267 1.355 . S
C2268 C2270 1.419 . S
C2269 C2264 1.425 . S
C2269 C2266 1.409 . S
C2269 C2267 1.415 . S
C2270 H2260 0.930 . S
C2270 C2268 1.419 . S
C2270 C2271 1.362 . S
C2271 H2261 0.930 . S
C2271 C2264 1.409 . S
C2271 C2270 1.362 . S
H2272 C2278 0.930 . S
H2273 C2281 0.930 . S
H2274 C2282 0.930 . S
H2275 C2283 0.930 . S
H2276 C2286 0.930 . S
H2277 C2287 0.930 . S
C2278 H2272 0.930 . S
C2278 C2279 1.355 . S
C2278 C2280 1.415 . S
C2279 C2278 1.355 . S
C2279 C2281 1.419 . S
C2280 C2278 1.415 . S
C2280 C2285 1.425 . S
C2280 C2287 1.409 . S
C2281 H2273 0.930 . S
C2281 C2279 1.419 . S
C2281 C2282 1.362 . S
C2282 H2274 0.930 . S
C2282 C2281 1.362 . S
C2282 C2285 1.409 . S
C2283 H2275 0.930 . S
C2283 C2284 1.355 . S
C2283 C2285 1.415 . S
C2284 C2283 1.355 . S
C2284 C2286 1.419 . S
C2285 C2280 1.425 . S
C2285 C2282 1.409 . S
C2285 C2283 1.415 . S
C2286 H2276 0.930 . S
C2286 C2284 1.419 . S
C2286 C2287 1.362 . S
C2287 H2277 0.930 . S
C2287 C2280 1.409 . S
C2287 C2286 1.362 . S
H2288 C2294 0.930 . S
H2289 C2297 0.930 . S
H2290 C2298 0.930 . S
H2291 C2299 0.930 . S
H2292 C2302 0.930 . S
H2293 C2303 0.930 . S
C2294 H2288 0.930 . S
C2294 C2295 1.355 . S
C2294 C2296 1.415 . S
C2295 C2294 1.355 . S
C2295 C2297 1.419 . S
C2296 C2294 1.415 . S
C2296 C2301 1.425 . S
C2296 C2303 1.409 . S
C2297 H2289 0.930 . S
C2297 C2295 1.419 . S
C2297 C2298 1.362 . S
C2298 H2290 0.930 . S
C2298 C2297 1.362 . S
C2298 C2301 1.409 . S
C2299 H2291 0.930 . S
C2299 C2300 1.355 . S
C2299 C2301 1.415 . S
C2300 C2299 1.355 . S
C2300 C2302 1.419 . S
C2301 C2296 1.425 . S
C2301 C2298 1.409 . S
C2301 C2299 1.415 . S
C2302 H2292 0.930 . S
C2302 C2300 1.419 . S
C2302 C2303 1.362 . S
C2303 H2293 0.930 . S
C2303 C2296 1.409 . S
C2303 C2302 1.362 . S
H2304 C2310 0.930 . S
H2305 C2313 0.930 . S
H2306 C2314 0.930 . S
H2307 C2315 0.930 . S
H2308 C2318 0.930 . S
H2309 C2319 0.930 . S
C2310 H2304 0.930 . S
C2310 C2311 1.355 . S
C2310 C2312 1.415 . S
C2311 C2310 1.355 . S
C2311 C2313 1.419 . S
C2312 C2310 1.415 . S
C2312 C2317 1.425 . S
C2312 C2319 1.409 . S
C2313 H2305 0.930 . S
C2313 C2311 1.419 . S
C2313 C2314 1.362 . S
C2314 H2306 0.930 . S
C2314 C2313 1.362 . S
C2314 C2317 1.409 . S
C2315 H2307 0.930 . S
C2315 C2316 1.355 . S
C2315 C2317 1.415 . S
C2316 C2315 1.355 . S
C2316 C2318 1.419 . S
C2317 C2312 1.425 . S
C2317 C2314 1.409 . S
C2317 C2315 1.415 . S
C2318 H2308 0.930 . S
C2318 C2316 1.419 . S
C2318 C2319 1.362 . S
C2319 H2309 0.930 . S
C2319 C2312 1.409 . S
C2319 C2318 1.362 . S
H2320 C2326 0.930 . S
H2321 C2329 0.930 . S
H2322 C2330 0.930 . S
H2323 C2331 0.930 . S
H2324 C2334 0.930 . S
H2325 C2335 0.930 . S
C2326 H2320 0.930 . S
C2326 C2327 1.355 . S
C2326 C2328 1.415 . S
C2327 C2326 1.355 . S
C2327 C2329 1.419 . S
C2328 C2326 1.415 . S
C2328 C2333 1.425 . S
C2328 C2335 1.409 . S
C2329 H2321 0.930 . S
C2329 C2327 1.419 . S
C2329 C2330 1.362 . S
C2330 H2322 0.930 . S
C2330 C2329 1.362 . S
C2330 C2333 1.409 . S
C2331 H2323 0.930 . S
C2331 C2332 1.355 . S
C2331 C2333 1.415 . S
C2332 C2331 1.355 . S
C2332 C2334 1.419 . S
C2333 C2328 1.425 . S
C2333 C2330 1.409 . S
C2333 C2331 1.415 . S
C2334 H2324 0.930 . S
C2334 C2332 1.419 . S
C2334 C2335 1.362 . S
C2335 H2325 0.930 . S
C2335 C2328 1.409 . S
C2335 C2334 1.362 . S
H2336 C2342 0.930 . S
H2337 C2345 0.930 . S
H2338 C2346 0.930 . S
H2339 C2347 0.930 . S
H2340 C2350 0.930 . S
H2341 C2351 0.930 . S
C2342 H2336 0.930 . S
C2342 C2343 1.355 . S
C2342 C2344 1.415 . S
C2343 C2342 1.355 . S
C2343 C2345 1.419 . S
C2344 C2342 1.415 . S
C2344 C2349 1.425 . S
C2344 C2351 1.409 . S
C2345 H2337 0.930 . S
C2345 C2343 1.419 . S
C2345 C2346 1.362 . S
C2346 H2338 0.930 . S
C2346 C2345 1.362 . S
C2346 C2349 1.409 . S
C2347 H2339 0.930 . S
C2347 C2348 1.355 . S
C2347 C2349 1.415 . S
C2348 C2347 1.355 . S
C2348 C2350 1.419 . S
C2349 C2344 1.425 . S
C2349 C2346 1.409 . S
C2349 C2347 1.415 . S
C2350 H2340 0.930 . S
C2350 C2348 1.419 . S
C2350 C2351 1.362 . S
C2351 H2341 0.930 . S
C2351 C2344 1.409 . S
C2351 C2350 1.362 . S
H2352 C2358 0.930 . S
H2353 C2361 0.930 . S
H2354 C2362 0.930 . S
H2355 C2363 0.930 . S
H2356 C2366 0.930 . S
H2357 C2367 0.930 . S
C2358 H2352 0.930 . S
C2358 C2359 1.355 . S
C2358 C2360 1.415 . S
C2359 C2358 1.355 . S
C2359 C2361 1.419 . S
C2360 C2358 1.415 . S
C2360 C2365 1.425 . S
C2360 C2367 1.409 1_455 S
C2361 H2353 0.930 . S
C2361 C2359 1.419 . S
C2361 C2362 1.362 . S
C2362 H2354 0.930 . S
C2362 C2361 1.362 . S
C2362 C2365 1.409 . S
C2363 H2355 0.930 . S
C2363 C2364 1.355 . S
C2363 C2365 1.415 1_655 S
C2364 C2363 1.355 . S
C2364 C2366 1.419 . S
C2365 C2360 1.425 . S
C2365 C2362 1.409 . S
C2365 C2363 1.415 1_455 S
C2366 H2356 0.930 . S
C2366 C2364 1.419 . S
C2366 C2367 1.362 . S
C2367 H2357 0.930 . S
C2367 C2360 1.409 1_655 S
C2367 C2366 1.362 . S
H2368 C2374 0.930 . S
H2369 C2377 0.930 . S
H2370 C2378 0.930 . S
H2371 C2379 0.930 . S
H2372 C2382 0.930 . S
H2373 C2383 0.930 . S
C2374 H2368 0.930 . S
C2374 C2375 1.355 . S
C2374 C2376 1.415 . S
C2375 C2374 1.355 . S
C2375 C2377 1.419 . S
C2376 C2374 1.415 . S
C2376 C2381 1.425 . S
C2376 C2383 1.409 . S
C2377 H2369 0.930 . S
C2377 C2375 1.419 . S
C2377 C2378 1.362 . S
C2378 H2370 0.930 . S
C2378 C2377 1.362 . S
C2378 C2381 1.409 . S
C2379 H2371 0.930 . S
C2379 C2380 1.355 . S
C2379 C2381 1.415 . S
C2380 C2379 1.355 . S
C2380 C2382 1.419 . S
C2381 C2376 1.425 . S
C2381 C2378 1.409 . S
C2381 C2379 1.415 . S
C2382 H2372 0.930 . S
C2382 C2380 1.419 . S
C2382 C2383 1.362 . S
C2383 H2373 0.930 . S
C2383 C2376 1.409 . S
C2383 C2382 1.362 . S
H2384 C2390 0.930 . S
H2385 C2393 0.930 . S
H2386 C2394 0.930 . S
H2387 C2395 0.930 . S
H2388 C2398 0.930 . S
H2389 C2399 0.930 . S
C2390 H2384 0.930 . S
C2390 C2391 1.355 . S
C2390 C2392 1.415 . S
C2391 C2390 1.355 . S
C2391 C2393 1.419 . S
C2392 C2390 1.415 . S
C2392 C2397 1.425 1_545 S
C2392 C2399 1.409 1_545 S
C2393 H2385 0.930 . S
C2393 C2391 1.419 . S
C2393 C2394 1.362 . S
C2394 H2386 0.930 . S
C2394 C2393 1.362 . S
C2394 C2397 1.409 1_545 S
C2395 H2387 0.930 . S
C2395 C2396 1.355 . S
C2395 C2397 1.415 . S
C2396 C2395 1.355 . S
C2396 C2398 1.419 . S
C2397 C2392 1.425 1_565 S
C2397 C2394 1.409 1_565 S
C2397 C2395 1.415 . S
C2398 H2388 0.930 . S
C2398 C2396 1.419 . S
C2398 C2399 1.362 . S
C2399 H2389 0.930 . S
C2399 C2392 1.409 1_565 S
C2399 C2398 1.362 . S
H2400 C2406 0.930 . S
H2401 C2409 0.930 . S
H2402 C2410 0.930 . S
H2403 C2411 0.930 . S
H2404 C2414 0.930 . S
H2405 C2415 0.930 . S
C2406 H2400 0.930 . S
C2406 C2407 1.355 1_556 S
C2406 C2408 1.415 . S
C2407 C2406 1.355 1_554 S
C2407 C2409 1.419 . S
C2408 C2406 1.415 . S
C2408 C2413 1.425 1_546 S
C2408 C2415 1.409 1_545 S
C2409 H2401 0.930 . S
C2409 C2407 1.419 . S
C2409 C2410 1.362 . S
C2410 H2402 0.930 . S
C2410 C2409 1.362 . S
C2410 C2413 1.409 1_545 S
C2411 H2403 0.930 . S
C2411 C2412 1.355 1_554 S
C2411 C2413 1.415 . S
C2412 C2411 1.355 1_556 S
C2412 C2414 1.419 . S
C2413 C2408 1.425 1_564 S
C2413 C2410 1.409 1_565 S
C2413 C2411 1.415 . S
C2414 H2404 0.930 . S
C2414 C2412 1.419 . S
C2414 C2415 1.362 . S
C2415 H2405 0.930 . S
C2415 C2408 1.409 1_565 S
C2415 C2414 1.362 . S
H2416 C2422 0.930 . S
H2417 C2425 0.930 . S
H2418 C2426 0.930 1_455 S
H2419 C2427 0.930 . S
H2420 C2430 0.930 . S
H2421 C2431 0.930 1_655 S
C2422 H2416 0.930 . S
C2422 C2423 1.355 . S
C2422 C2424 1.415 . S
C2423 C2422 1.355 . S
C2423 C2425 1.419 1_554 S
C2424 C2422 1.415 . S
C2424 C2429 1.425 1_654 S
C2424 C2431 1.409 1_655 S
C2425 H2417 0.930 . S
C2425 C2423 1.419 1_556 S
C2425 C2426 1.362 . S
C2426 H2418 0.930 1_655 S
C2426 C2425 1.362 . S
C2426 C2429 1.409 1_655 S
C2427 H2419 0.930 . S
C2427 C2428 1.355 . S
C2427 C2429 1.415 . S
C2428 C2427 1.355 . S
C2428 C2430 1.419 1_556 S
C2429 C2424 1.425 1_456 S
C2429 C2426 1.409 1_455 S
C2429 C2427 1.415 . S
C2430 H2420 0.930 . S
C2430 C2428 1.419 1_554 S
C2430 C2431 1.362 . S
C2431 H2421 0.930 1_455 S
C2431 C2424 1.409 1_455 S
C2431 C2430 1.362 . S
H2432 C2438 0.930 . S
H2433 C2441 0.930 . S
H2434 C2442 0.930 . S
H2435 C2443 0.930 . S
H2436 C2446 0.930 . S
H2437 C2447 0.930 . S
C2438 H2432 0.930 . S
C2438 C2439 1.355 1_556 S
C2438 C2440 1.415 . S
C2439 C2438 1.355 1_554 S
C2439 C2441 1.419 . S
C2440 C2438 1.415 . S
C2440 C2445 1.425 1_556 S
C2440 C2447 1.409 . S
C2441 H2433 0.930 . S
C2441 C2439 1.419 . S
C2441 C2442 1.362 . S
C2442 H2434 0.930 . S
C2442 C2441 1.362 . S
C2442 C2445 1.409 . S
C2443 H2435 0.930 . S
C2443 C2444 1.355 1_554 S
C2443 C2445 1.415 . S
C2444 C2443 1.355 1_556 S
C2444 C2446 1.419 . S
C2445 C2440 1.425 1_554 S
C2445 C2442 1.409 . S
C2445 C2443 1.415 . S
C2446 H2436 0.930 . S
C2446 C2444 1.419 . S
C2446 C2447 1.362 . S
C2447 H2437 0.930 . S
C2447 C2440 1.409 . S
C2447 C2446 1.362 . S
C1303 C374 1.287 . S
C1308 C2 1.258 . S
C1319 C400 1.090 . S
C1324 C38 1.117 . S
C1335 C74 1.198 . S
C1340 C338 1.239 . S
C1351 C110 1.265 . S
C1356 C302 1.293 . S
C1367 C146 0.993 . S
C1372 C220 1.056 . S
C1383 C266 1.248 . S
C1388 C182 1.216 . S
C1399 C158 1.025 . S
C1404 C219 1.058 . S
C1415 C194 1.271 . S
C1420 C254 1.233 . S
C1431 C290 1.283 . S
C1436 C122 1.304 . S
C1447 C86 1.221 . S
C1452 C326 1.178 . S
C1463 C362 1.282 . S
C1468 C14 1.309 . S
C1479 C399 1.053 . S
C1484 C50 1.026 . S
C1495 C806 1.240 . S
C1500 C434 1.198 . S
C1511 C832 1.035 . S
C1516 C470 1.022 . S
C1527 C506 1.194 . S
C1532 C770 1.236 . S
C1543 C542 1.241 . S
C1548 C734 1.272 1_556 S
C1559 C578 1.033 . S
C1564 C652 1.120 1_556 S
C1575 C614 1.265 . S
C1580 C698 1.292 1_556 S
C1591 C590 1.054 . S
C1596 C651 1.078 . S
C1607 C626 1.318 . S
C1612 C686 1.294 . S
C1623 C554 1.305 . S
C1628 C722 1.284 . S
C1639 C518 1.289 . S
C1644 C758 1.265 . S
C1655 C446 1.282 . S
C1660 C794 1.253 . S
C1671 C482 1.073 . S
C1676 C831 1.092 . S
C1687 C866 1.195 . S
C1692 C1238 1.237 . S
C1703 C1264 1.113 . S
C1708 C902 1.020 . S
C1719 C1202 1.261 . S
C1724 C938 1.226 . S
C1735 C974 1.291 . S
C1740 C1166 1.314 . S
C1751 C1010 1.086 . S
C1756 C1084 1.048 . S
C1767 C1046 1.182 . S
C1772 C1130 1.226 . S
C1783 C1022 1.079 . S
C1788 C1083 1.090 . S
C1799 C1058 1.318 . S
C1804 C1118 1.294 . S
C1815 C986 1.293 . S
C1820 C1154 1.270 . S
C1831 C1190 1.236 . S
C1836 C950 1.268 1_554 S
C1847 C878 1.307 1_554 S
C1852 C1226 1.279 . S
C1863 C1263 1.044 . S
C1868 C914 1.009 1_554 S
C1879 C112 1.510 . S
C1884 C4 1.507 . S
C1895 C148 1.460 . S
C1900 C40 1.436 . S
C1911 C76 1.497 . S
C1916 C184 1.497 . S
C1927 C328 1.424 . S
C1932 C230 1.348 . S
C1943 C364 1.483 . S
C1948 C256 1.462 . S
C1959 C410 1.341 . S
C1964 C292 1.423 . S
C1975 C544 1.509 . S
C1980 C436 1.508 . S
C1991 C580 1.454 . S
C1996 C472 1.432 . S
C2007 C508 1.510 . S
C2012 C616 1.506 . S
C2023 C662 1.400 . S
C2028 C760 1.451 . S
C2039 C796 1.482 . S
C2044 C688 1.479 . S
C2055 C724 1.448 . S
C2060 C842 1.380 . S
C2071 C976 1.514 . S
C2076 C868 1.494 . S
C2087 C1012 1.454 . S
C2092 C904 1.449 . S
C2103 C940 1.489 . S
C2108 C1048 1.506 . S
C2119 C1094 1.341 . S
C2124 C1192 1.424 . S
C2135 C1120 1.462 . S
C2140 C1228 1.484 . S
C2151 C1156 1.451 . S
C2156 C1274 1.397 . S
C2167 C3 1.552 . S
C2172 C650 1.536 . S
C2183 C687 1.437 . S
C2188 C39 1.437 . S
C2199 C723 1.490 . S
C2204 C75 1.489 . S
C2215 C1191 1.481 . S
C2220 C111 1.482 . S
C2231 C1227 1.429 . S
C2236 C147 1.429 . S
C2247 C1262 1.530 . S
C2252 C183 1.551 . S
C2263 C218 1.541 . S
C2268 C867 1.552 . S
C2279 C903 1.440 . S
C2284 C255 1.440 . S
C2295 C939 1.481 . S
C2300 C291 1.481 . S
C2311 C327 1.486 . S
C2316 C543 1.486 . S
C2327 C363 1.438 . S
C2332 C579 1.438 . S
C2343 C398 1.522 . S
C2348 C615 1.544 . S
C2359 C1082 1.513 . S
C2364 C435 1.542 . S
C2375 C1119 1.438 . S
C2380 C471 1.438 . S
C2391 C507 1.479 . S
C2396 C1155 1.478 . S
C2407 C759 1.483 . S
C2412 C975 1.483 . S
C2423 C795 1.435 . S
C2428 C1011 1.435 . S
C2439 C830 1.521 . S
C2444 C1047 1.550 . S
