# Generated by pormake.
# Topology uoq, (4)-cn, num edge types: 1
# Building blocks:
#     Node 0, Type 0, BuildingBlock: GALJAG_clean_sbu_0, # of connection points: 4
#     Node 1, Type 0, BuildingBlock: GALJAG_clean_sbu_0, # of connection points: 4
#     Node 2, Type 0, BuildingBlock: GALJAG_clean_sbu_0, # of connection points: 4
#     Node 3, Type 0, BuildingBlock: GALJAG_clean_sbu_0, # of connection points: 4
#     Node 4, Type 0, BuildingBlock: GALJAG_clean_sbu_0, # of connection points: 4
#     Node 5, Type 0, BuildingBlock: GALJAG_clean_sbu_0, # of connection points: 4
#     Node 6, Type 0, BuildingBlock: GALJAG_clean_sbu_0, # of connection points: 4
#     Node 7, Type 0, BuildingBlock: GALJAG_clean_sbu_0, # of connection points: 4
#     Node 8, Type 0, BuildingBlock: GALJAG_clean_sbu_0, # of connection points: 4
#     Node 9, Type 0, BuildingBlock: GALJAG_clean_sbu_0, # of connection points: 4
#     Node 10, Type 0, BuildingBlock: GALJAG_clean_sbu_0, # of connection points: 4
#     Node 11, Type 0, BuildingBlock: GALJAG_clean_sbu_0, # of connection points: 4
#     Edge 12, Type (0, 0), BuildingBlock: XUDNAN_clean_linker_2, # of connection points: 2
#     Edge 13, Type (0, 0), BuildingBlock: XUDNAN_clean_linker_2, # of connection points: 2
#     Edge 14, Type (0, 0), BuildingBlock: XUDNAN_clean_linker_2, # of connection points: 2
#     Edge 15, Type (0, 0), BuildingBlock: XUDNAN_clean_linker_2, # of connection points: 2
#     Edge 16, Type (0, 0), BuildingBlock: XUDNAN_clean_linker_2, # of connection points: 2
#     Edge 17, Type (0, 0), BuildingBlock: XUDNAN_clean_linker_2, # of connection points: 2
#     Edge 18, Type (0, 0), BuildingBlock: XUDNAN_clean_linker_2, # of connection points: 2
#     Edge 19, Type (0, 0), BuildingBlock: XUDNAN_clean_linker_2, # of connection points: 2
#     Edge 20, Type (0, 0), BuildingBlock: XUDNAN_clean_linker_2, # of connection points: 2
#     Edge 21, Type (0, 0), BuildingBlock: XUDNAN_clean_linker_2, # of connection points: 2
#     Edge 22, Type (0, 0), BuildingBlock: XUDNAN_clean_linker_2, # of connection points: 2
#     Edge 23, Type (0, 0), BuildingBlock: XUDNAN_clean_linker_2, # of connection points: 2
#     Edge 24, Type (0, 0), BuildingBlock: XUDNAN_clean_linker_2, # of connection points: 2
#     Edge 25, Type (0, 0), BuildingBlock: XUDNAN_clean_linker_2, # of connection points: 2
#     Edge 26, Type (0, 0), BuildingBlock: XUDNAN_clean_linker_2, # of connection points: 2
#     Edge 27, Type (0, 0), BuildingBlock: XUDNAN_clean_linker_2, # of connection points: 2
#     Edge 28, Type (0, 0), BuildingBlock: XUDNAN_clean_linker_2, # of connection points: 2
#     Edge 29, Type (0, 0), BuildingBlock: XUDNAN_clean_linker_2, # of connection points: 2
#     Edge 30, Type (0, 0), BuildingBlock: XUDNAN_clean_linker_2, # of connection points: 2
#     Edge 31, Type (0, 0), BuildingBlock: XUDNAN_clean_linker_2, # of connection points: 2
#     Edge 32, Type (0, 0), BuildingBlock: XUDNAN_clean_linker_2, # of connection points: 2
#     Edge 33, Type (0, 0), BuildingBlock: XUDNAN_clean_linker_2, # of connection points: 2
#     Edge 34, Type (0, 0), BuildingBlock: XUDNAN_clean_linker_2, # of connection points: 2
#     Edge 35, Type (0, 0), BuildingBlock: XUDNAN_clean_linker_2, # of connection points: 2
# Relax obj value: 0.135
# Max RMSD: 0.151
# Mean RMSD: 0.151
data_MOF--net-uoq--node1-GALJAG_clean_sbu_0--edge1-XUDNAN_clean_linker_2
_symmetry_space_group_name_H-M    P1
_symmetry_Int_Tables_number       1
_symmetry_cell_setting            triclinic
loop_
_symmetry_equiv_pos_as_xyz
'x, y, z'
_cell_length_a     62.279671
_cell_length_b     62.305171
_cell_length_c     20.167021
_cell_angle_alpha  89.988648
_cell_angle_beta   90.034492
_cell_angle_gamma 119.96952
loop_
_atom_site_label
_atom_site_type_symbol
_atom_site_fract_x
_atom_site_fract_y
_atom_site_fract_z
_atom_type_partial_charge
In0 In 0.31847 0.4469 0.24532 0.0
O1 O 0.287 0.41772 0.30902 0.0
O2 O 0.29822 0.4557 0.32374 0.0
C3 C 0.34236 0.42102 0.22694 0.0
C4 C 0.29236 0.45157 0.14317 0.0
C5 C 0.35714 0.48696 0.30138 0.0
O6 O 0.32284 0.41286 0.26078 0.0
O7 O 0.34864 0.44122 0.19772 0.0
O8 O 0.35173 0.4863 0.24068 0.0
O9 O 0.34313 0.46746 0.33332 0.0
C10 C 0.28395 0.43351 0.34049 0.0
O11 O 0.30948 0.46962 0.17372 0.0
O12 O 0.28941 0.43081 0.16052 0.0
In13 In 0.86407 0.32035 0.57703 0.0
O14 O 0.84934 0.29295 0.66338 0.0
O15 O 0.82934 0.31087 0.63459 0.0
C16 C 0.91218 0.33284 0.59201 0.0
C17 C 0.8392 0.28585 0.48168 0.0
C18 C 0.86905 0.36595 0.57749 0.0
O19 O 0.89782 0.32881 0.64028 0.0
O20 O 0.90229 0.33034 0.5357 0.0
O21 O 0.86748 0.35468 0.52388 0.0
O22 O 0.86869 0.35446 0.62923 0.0
C23 C 0.8309 0.29581 0.67312 0.0
O24 O 0.83852 0.30573 0.48571 0.0
O25 O 0.85337 0.28407 0.52323 0.0
In26 In 0.55891 0.87205 0.92127 0.0
O27 O 0.58361 0.86625 0.9935 0.0
O28 O 0.54581 0.83789 0.98548 0.0
C29 C 0.58927 0.92168 0.9167 0.0
C30 C 0.56396 0.84722 0.81748 0.0
C31 C 0.51772 0.87216 0.96321 0.0
O32 O 0.58765 0.90859 0.9661 0.0
O33 O 0.57602 0.90968 0.86768 0.0
O34 O 0.52103 0.86965 0.90239 0.0
O35 O 0.53471 0.87411 0.00093 0.0
C36 C 0.56664 0.84525 0.01238 0.0
O37 O 0.54301 0.84363 0.8358 0.0
O38 O 0.58203 0.8644 0.8481 0.0
In39 In 0.69534 0.5611 0.25749 0.0
O40 O 0.72678 0.58905 0.32322 0.0
O41 O 0.71817 0.55138 0.32447 0.0
C42 C 0.67183 0.5877 0.25598 0.0
C43 C 0.72486 0.5665 0.15221 0.0
C44 C 0.65716 0.5179 0.30198 0.0
O45 O 0.68476 0.58774 0.30406 0.0
O46 O 0.67123 0.57473 0.20706 0.0
O47 O 0.66072 0.52259 0.24055 0.0
O48 O 0.67279 0.53468 0.33912 0.0
C49 C 0.73165 0.57309 0.34611 0.0
O50 O 0.70908 0.54543 0.17412 0.0
O51 O 0.72417 0.5843 0.17977 0.0
In52 In 0.1442 0.67951 0.59139 0.0
O53 O 0.18286 0.7005 0.54834 0.0
O54 O 0.15605 0.70728 0.50346 0.0
C55 C 0.14437 0.63628 0.59127 0.0
C56 C 0.16389 0.70322 0.70605 0.0
C57 C 0.09475 0.66242 0.58584 0.0
O58 O 0.14839 0.64911 0.53929 0.0
O59 O 0.14043 0.64535 0.64263 0.0
O60 O 0.10893 0.6797 0.62417 0.0
O61 O 0.10575 0.65535 0.54675 0.0
C62 C 0.17848 0.7126 0.50585 0.0
O63 O 0.15991 0.6817 0.69386 0.0
O64 O 0.15712 0.71266 0.66103 0.0
In65 In 0.44035 0.13119 0.91268 0.0
O66 O 0.42986 0.15067 0.9915 0.0
O67 O 0.46674 0.16904 0.95431 0.0
C68 C 0.40288 0.08443 0.9308 0.0
C69 C 0.43318 0.15163 0.80192 0.0
C70 C 0.47691 0.1227 0.95142 0.0
O71 O 0.40542 0.10261 0.96464 0.0
O72 O 0.41863 0.08998 0.88481 0.0
O73 O 0.4745 0.12702 0.8912 0.0
O74 O 0.46088 0.1224 0.99015 0.0
C75 C 0.4512 0.16964 0.99298 0.0
O76 O 0.41628 0.1391 0.84313 0.0
O77 O 0.4534 0.15215 0.81325 0.0
In78 In 0.54766 0.68699 0.41991 0.0
O79 O 0.57511 0.72251 0.36814 0.0
O80 O 0.53692 0.70671 0.34319 0.0
C81 C 0.57484 0.66754 0.37169 0.0
C82 C 0.55419 0.71512 0.5288 0.0
C83 C 0.50352 0.64466 0.42473 0.0
O84 O 0.56158 0.67302 0.33639 0.0
O85 O 0.57472 0.672 0.43291 0.0
O86 O 0.51984 0.65032 0.46908 0.0
O87 O 0.50917 0.66072 0.37988 0.0
C88 C 0.5589 0.72404 0.33423 0.0
O89 O 0.53456 0.70552 0.49484 0.0
O90 O 0.56992 0.70914 0.51061 0.0
In91 In 0.87352 0.56023 0.75334 0.0
O92 O 0.87019 0.58835 0.68762 0.0
O93 O 0.84028 0.55113 0.68985 0.0
C94 C 0.92351 0.5837 0.7477 0.0
C95 C 0.85212 0.56433 0.86676 0.0
C96 C 0.86781 0.5179 0.70048 0.0
O97 O 0.91121 0.59272 0.72246 0.0
O98 O 0.91079 0.56392 0.77991 0.0
O99 O 0.86837 0.52117 0.76261 0.0
O100 O 0.86949 0.5356 0.6661 0.0
C101 C 0.84883 0.57273 0.66708 0.0
O102 O 0.8441 0.54413 0.83612 0.0
O103 O 0.87202 0.58174 0.84356 0.0
In104 In 0.31676 0.86387 0.08623 0.0
O105 O 0.31647 0.85124 0.19269 0.0
O106 O 0.2827 0.84671 0.15439 0.0
C107 C 0.36251 0.86936 0.0752 0.0
C108 C 0.28484 0.82605 0.00938 0.0
C109 C 0.32493 0.91003 0.05831 0.0
O110 O 0.35533 0.87551 0.12663 0.0
O111 O 0.34666 0.8605 0.0293 0.0
O112 O 0.32884 0.8971 0.01745 0.0
O113 O 0.31643 0.89959 0.11336 0.0
C114 C 0.2936 0.84296 0.20193 0.0
O115 O 0.28626 0.84698 0.00746 0.0
O116 O 0.30003 0.82467 0.04796 0.0
In117 In 0.46144 0.31994 0.41471 0.0
O118 O 0.47115 0.30028 0.49577 0.0
O119 O 0.43391 0.29197 0.49034 0.0
C120 C 0.50512 0.36265 0.41268 0.0
C121 C 0.46505 0.29306 0.31563 0.0
C122 C 0.43299 0.34059 0.38904 0.0
O123 O 0.49443 0.3524 0.46654 0.0
O124 O 0.49377 0.3513 0.36083 0.0
O125 O 0.43003 0.3215 0.35931 0.0
O126 O 0.44919 0.34837 0.43415 0.0
C127 C 0.4494 0.2873 0.51726 0.0
O128 O 0.44452 0.29072 0.33285 0.0
O129 O 0.48346 0.30888 0.34801 0.0
In130 In 0.13573 0.43735 0.74058 0.0
O131 O 0.15976 0.46067 0.82675 0.0
O132 O 0.14625 0.42213 0.83214 0.0
C133 C 0.13741 0.47863 0.69249 0.0
C134 C 0.16619 0.42797 0.66826 0.0
C135 C 0.08744 0.40439 0.71371 0.0
O136 O 0.12939 0.47054 0.75008 0.0
O137 O 0.14442 0.46593 0.66007 0.0
O138 O 0.10528 0.40847 0.67657 0.0
O139 O 0.09378 0.4163 0.76774 0.0
C140 C 0.16013 0.44321 0.85713 0.0
O141 O 0.14766 0.41101 0.69819 0.0
O142 O 0.16926 0.44945 0.67531 0.0
In143 In 0.68234 0.14312 0.07609 0.0
O144 O 0.71037 0.1449 0.15313 0.0
O145 O 0.6961 0.16915 0.16603 0.0
C146 C 0.63558 0.13535 0.07162 0.0
C147 C 0.71221 0.18035 0.99538 0.0
C148 C 0.67178 0.09827 0.02861 0.0
O149 O 0.6506 0.14404 0.02403 0.0
O150 O 0.64422 0.13084 0.12321 0.0
O151 O 0.68097 0.11763 0.99368 0.0
O152 O 0.66868 0.10157 0.08893 0.0
C153 C 0.71112 0.16254 0.18578 0.0
O154 O 0.71555 0.16231 0.00701 0.0
O155 O 0.69381 0.17944 0.0242 0.0
H156 H 0.33089 0.37407 0.26552 0.0
H157 H 0.3922 0.4457 0.20784 0.0
H158 H 0.42176 0.43243 0.24236 0.0
H159 H 0.35724 0.36501 0.40685 0.0
H160 H 0.34585 0.3324 0.39501 0.0
H161 H 0.32905 0.3464 0.3609 0.0
H162 H 0.3314 0.33081 0.24359 0.0
H163 H 0.34778 0.31629 0.27753 0.0
H164 H 0.36111 0.33804 0.21014 0.0
H165 H 0.44445 0.41414 0.29938 0.0
H166 H 0.45946 0.38857 0.35397 0.0
H167 H 0.38421 0.32684 0.36372 0.0
C168 C 0.35053 0.38666 0.25842 0.0
C169 C 0.35927 0.4109 0.23381 0.0
C170 C 0.38508 0.42696 0.2258 0.0
C171 C 0.40203 0.41966 0.24581 0.0
C172 C 0.39287 0.39601 0.27218 0.0
C173 C 0.36775 0.37941 0.27653 0.0
C174 C 0.36295 0.35506 0.3067 0.0
C175 C 0.34788 0.3494 0.37119 0.0
C176 C 0.35005 0.33379 0.25649 0.0
C177 C 0.38928 0.36088 0.32051 0.0
C178 C 0.40619 0.38477 0.30105 0.0
C179 C 0.43147 0.39522 0.31342 0.0
C180 C 0.43978 0.38068 0.34501 0.0
C181 C 0.42297 0.35584 0.36263 0.0
C182 C 0.3974 0.34576 0.35012 0.0
H183 H 0.94134 0.3544 0.70128 0.0
H184 H 0.94251 0.32823 0.50273 0.0
H185 H 0.98664 0.34063 0.51724 0.0
H186 H 1.00119 0.40839 0.69139 0.0
H187 H 0.0091 0.40736 0.77687 0.0
H188 H 0.97714 0.39456 0.75317 0.0
H189 H 0.96685 0.35248 0.80532 0.0
H190 H 0.99885 0.36514 0.8289 0.0
H191 H 0.98376 0.33747 0.77899 0.0
H192 H 0.03032 0.35626 0.552 0.0
H193 H 0.07224 0.37788 0.59965 0.0
H194 H 0.04406 0.39634 0.77447 0.0
C195 C 0.95086 0.35104 0.66122 0.0
C196 C 0.93851 0.34012 0.60105 0.0
C197 C 0.95164 0.33649 0.54919 0.0
C198 C 0.97664 0.34336 0.55716 0.0
C199 C 0.9883 0.35409 0.61701 0.0
C200 C 0.97597 0.35821 0.66792 0.0
C201 C 0.99339 0.37172 0.72526 0.0
C202 C 0.99532 0.39701 0.73735 0.0
C203 C 0.98522 0.35574 0.78835 0.0
C204 C 0.01748 0.3747 0.69841 0.0
C205 C 0.01393 0.36403 0.63628 0.0
C206 C 0.03333 0.36466 0.60059 0.0
C207 C 0.0571 0.37698 0.62828 0.0
C208 C 0.06149 0.38882 0.69089 0.0
C209 C 0.04128 0.3873 0.72684 0.0
H210 H 0.60658 0.95084 0.02656 0.0
H211 H 0.60515 0.95412 0.81188 0.0
H212 H 0.62904 1.0 0.8172 0.0
H213 H 0.59642 1.00108 0.05464 0.0
H214 H 0.61598 0.01226 0.127 0.0
H215 H 0.60093 0.9799 0.10573 0.0
H216 H 0.64346 0.98181 0.10468 0.0
H217 H 0.65867 0.01422 0.12589 0.0
H218 H 0.66803 0.00428 0.05295 0.0
H219 H 0.65216 0.04546 0.84672 0.0
H220 H 0.66985 0.08693 0.89736 0.0
H221 H 0.65408 0.0537 0.09329 0.0
C222 C 0.61163 0.9612 0.98058 0.0
C223 C 0.60433 0.949 0.91867 0.0
C224 C 0.61073 0.96317 0.85971 0.0
C225 C 0.62434 0.98918 0.86232 0.0
C226 C 0.63113 1.00065 0.9243 0.0
C227 C 0.6248 0.98709 0.98238 0.0
C228 C 0.63273 0.00381 0.04275 0.0
C229 C 0.61017 0.99897 0.08499 0.0
C230 C 0.65186 1.00085 0.08399 0.0
C231 C 0.64437 0.02896 0.00969 0.0
C232 C 0.64357 0.02674 0.94136 0.0
C233 C 0.65292 0.0474 0.90012 0.0
C234 C 0.66298 0.07089 0.92942 0.0
C235 C 0.66335 0.07355 0.99929 0.0
C236 C 0.65413 0.05226 0.03978 0.0
H237 H 0.66375 0.60906 0.36451 0.0
H238 H 0.64698 0.5952 0.15471 0.0
H239 H 0.62142 0.61533 0.16142 0.0
H240 H 0.60357 0.59606 0.41429 0.0
H241 H 0.61457 0.61971 0.47735 0.0
H242 H 0.63269 0.60555 0.45534 0.0
H243 H 0.67039 0.64878 0.42998 0.0
H244 H 0.65242 0.6631 0.4521 0.0
H245 H 0.66703 0.66891 0.37188 0.0
H246 H 0.59708 0.636 0.19145 0.0
H247 H 0.57481 0.65515 0.24243 0.0
H248 H 0.60642 0.65476 0.43406 0.0
C249 C 0.65493 0.61052 0.31978 0.0
C250 C 0.65747 0.60074 0.25887 0.0
C251 C 0.64535 0.60266 0.20173 0.0
C252 C 0.63082 0.61406 0.20511 0.0
C253 C 0.62853 0.62332 0.26606 0.0
C254 C 0.6402 0.62163 0.32242 0.0
C255 C 0.63394 0.63222 0.3823 0.0
C256 C 0.62039 0.61219 0.43544 0.0
C257 C 0.65734 0.65458 0.41072 0.0
C258 C 0.61684 0.64007 0.35087 0.0
C259 C 0.61411 0.63487 0.28371 0.0
C260 C 0.59912 0.6402 0.24393 0.0
C261 C 0.58653 0.65109 0.27346 0.0
C262 C 0.58886 0.65646 0.34229 0.0
C263 C 0.60429 0.6509 0.38138 0.0
H264 H 0.96283 0.63142 0.73486 0.0
H265 H 0.94133 0.55406 0.71077 0.0
H266 H 0.9817 0.56632 0.65878 0.0
H267 H 0.99816 0.65509 0.5866 0.0
H268 H 0.02264 0.68295 0.62359 0.0
H269 H 0.99183 0.66851 0.65786 0.0
H270 H 0.00876 0.66568 0.77293 0.0
H271 H 0.03968 0.68055 0.73931 0.0
H272 H 0.02728 0.65095 0.78001 0.0
H273 H 0.02229 0.58656 0.60053 0.0
H274 H 0.06529 0.61339 0.56294 0.0
H275 H 0.06361 0.67793 0.63701 0.0
C276 C 0.96688 0.61717 0.71939 0.0
C277 C 0.9491 0.59181 0.72675 0.0
C278 C 0.95489 0.57358 0.70619 0.0
C279 C 0.97762 0.58036 0.67594 0.0
C280 C 0.99461 0.60546 0.66813 0.0
C281 C 0.98995 0.62364 0.69117 0.0
C282 C 0.01228 0.64923 0.68048 0.0
C283 C 0.00583 0.66486 0.63439 0.0
C284 C 0.02261 0.66237 0.74715 0.0
C285 C 0.03 0.64253 0.64714 0.0
C286 C 0.01908 0.61719 0.63903 0.0
C287 C 0.0312 0.60641 0.60733 0.0
C288 C 0.05554 0.62184 0.58553 0.0
C289 C 0.06773 0.6477 0.59704 0.0
C290 C 0.05467 0.65821 0.62751 0.0
H291 H 0.35317 0.93954 0.95624 0.0
H292 H 0.31098 0.93873 0.12824 0.0
H293 H 0.32295 0.9824 0.10657 0.0
H294 H 0.40364 0.99929 0.98334 0.0
H295 H 0.40937 0.00745 0.89682 0.0
H296 H 0.39526 0.97549 0.92153 0.0
H297 H 0.35812 0.96455 0.84341 0.0
H298 H 0.37212 0.99655 0.81858 0.0
H299 H 0.34111 0.98081 0.8518 0.0
H300 H 0.34158 0.02672 0.07033 0.0
H301 H 0.36741 0.06908 0.02681 0.0
H302 H 0.39846 0.04145 0.87977 0.0
C303 C 0.34608 0.94842 0.98864 0.0
C304 C 0.33094 0.93571 0.04359 0.0
C305 C 0.32249 0.94811 0.0857 0.0
C306 C 0.32911 0.97286 0.07361 0.0
C307 C 0.34426 0.98495 0.01933 0.0
C308 C 0.35274 0.97318 0.97768 0.0
C309 C 0.37038 0.99088 0.926 0.0
C310 C 0.39619 0.99343 0.93234 0.0
C311 C 0.35979 0.9827 0.85579 0.0
C312 C 0.37088 0.01459 0.94578 0.0
C313 C 0.35541 0.01066 0.99915 0.0
C314 C 0.35357 0.02996 0.02818 0.0
C315 C 0.36831 0.05397 0.00302 0.0
C316 C 0.38485 0.05857 0.94963 0.0
C317 C 0.38574 0.03848 0.91996 0.0
H318 H 0.17215 0.41016 0.91399 0.0
H319 H 0.19121 0.48737 0.91592 0.0
H320 H 0.22715 0.49752 0.98735 0.0
H321 H 0.19102 0.40863 0.08752 0.0
H322 H 0.20292 0.38831 0.06776 0.0
H323 H 0.17763 0.38674 0.0204 0.0
H324 H 0.20285 0.39368 0.91259 0.0
H325 H 0.22839 0.39573 0.95969 0.0
H326 H 0.23321 0.42069 0.90521 0.0
H327 H 0.2629 0.50027 0.04964 0.0
H328 H 0.2937 0.49467 0.11213 0.0
H329 H 0.25169 0.41551 0.07439 0.0
C330 C 0.18354 0.42907 0.93086 0.0
C331 C 0.17876 0.44796 0.90952 0.0
C332 C 0.19437 0.47256 0.9318 0.0
C333 C 0.21494 0.47855 0.97215 0.0
C334 C 0.21965 0.45973 0.99036 0.0
C335 C 0.2042 0.4354 0.97162 0.0
C336 C 0.21385 0.41889 0.99766 0.0
C337 C 0.19525 0.3995 0.04623 0.0
C338 C 0.21993 0.40652 0.94036 0.0
C339 C 0.23725 0.43782 0.03317 0.0
C340 C 0.24024 0.46126 0.02778 0.0
C341 C 0.26064 0.48196 0.05483 0.0
C342 C 0.27815 0.47859 0.08992 0.0
C343 C 0.27518 0.45467 0.09827 0.0
C344 C 0.25454 0.43404 0.06873 0.0
H345 H 0.80024 0.28099 0.40584 0.0
H346 H 0.84093 0.24361 0.45748 0.0
H347 H 0.81187 0.20747 0.39037 0.0
H348 H 0.73981 0.22732 0.41355 0.0
H349 H 0.72764 0.23621 0.34432 0.0
H350 H 0.75216 0.25963 0.39417 0.0
H351 H 0.77941 0.27808 0.28947 0.0
H352 H 0.75485 0.25491 0.23921 0.0
H353 H 0.78531 0.25827 0.2366 0.0
H354 H 0.77809 0.17513 0.31811 0.0
H355 H 0.74298 0.1497 0.24308 0.0
H356 H 0.72345 0.2075 0.24119 0.0
C357 C 0.80322 0.26533 0.40232 0.0
C358 C 0.82298 0.2652 0.43659 0.0
C359 C 0.82601 0.24418 0.43144 0.0
C360 C 0.80954 0.22352 0.3936 0.0
C361 C 0.79001 0.22405 0.36138 0.0
C362 C 0.78682 0.24444 0.36512 0.0
C363 C 0.7641 0.24013 0.3264 0.0
C364 C 0.74479 0.24087 0.37237 0.0
C365 C 0.77136 0.25896 0.26954 0.0
C366 C 0.75506 0.21418 0.30021 0.0
C367 C 0.77027 0.20524 0.32095 0.0
C368 C 0.766 0.18191 0.3018 0.0
C369 C 0.74596 0.16755 0.25937 0.0
C370 C 0.73031 0.17647 0.23679 0.0
C371 C 0.73483 0.19999 0.25837 0.0
H372 H 0.52832 0.80807 0.74405 0.0
H373 H 0.60707 0.84812 0.7883 0.0
H374 H 0.6126 0.8177 0.72361 0.0
H375 H 0.51978 0.74716 0.7531 0.0
H376 H 0.4985 0.73499 0.68433 0.0
H377 H 0.50044 0.76018 0.73286 0.0
H378 H 0.50969 0.78691 0.62692 0.0
H379 H 0.50738 0.76166 0.57795 0.0
H380 H 0.535 0.79168 0.57388 0.0
H381 H 0.60945 0.78175 0.65973 0.0
H382 H 0.59868 0.74556 0.58828 0.0
H383 H 0.52237 0.72937 0.58082 0.0
C384 C 0.54676 0.81061 0.7393 0.0
C385 C 0.56726 0.83054 0.77129 0.0
C386 C 0.59109 0.83312 0.76409 0.0
C387 C 0.59442 0.81582 0.72775 0.0
C388 C 0.5738 0.7961 0.69819 0.0
C389 C 0.5505 0.7936 0.70245 0.0
C390 C 0.53157 0.77085 0.66477 0.0
C391 C 0.51138 0.75219 0.71158 0.0
C392 C 0.52025 0.77822 0.60747 0.0
C393 C 0.54787 0.76094 0.63914 0.0
C394 C 0.57211 0.77565 0.65967 0.0
C395 C 0.59056 0.77016 0.643 0.0
C396 C 0.58423 0.74945 0.60276 0.0
C397 C 0.5597 0.7346 0.57904 0.0
C398 C 0.54127 0.74031 0.59835 0.0
H399 H 0.73139 0.53164 0.08356 0.0
H400 H 0.76478 0.6107 0.11843 0.0
H401 H 0.80156 0.61809 0.05472 0.0
H402 H 0.78677 0.52815 0.09527 0.0
H403 H 0.779 0.50614 0.02881 0.0
H404 H 0.75474 0.50661 0.07627 0.0
H405 H 0.73543 0.51241 0.96874 0.0
H406 H 0.75939 0.51152 0.92088 0.0
H407 H 0.75443 0.53755 0.91335 0.0
H408 H 0.83576 0.61706 0.99332 0.0
H409 H 0.86293 0.60829 0.92345 0.0
H410 H 0.80733 0.53016 0.92238 0.0
C411 C 0.7463 0.55051 0.07694 0.0
C412 C 0.74515 0.57059 0.10609 0.0
C413 C 0.76512 0.59501 0.09644 0.0
C414 C 0.78622 0.59941 0.06067 0.0
C415 C 0.78707 0.57924 0.03404 0.0
C416 C 0.76749 0.55531 0.04045 0.0
C417 C 0.77309 0.5371 0.00518 0.0
C418 C 0.77342 0.5184 0.05433 0.0
C419 C 0.75448 0.52387 0.94868 0.0
C420 C 0.79889 0.55456 0.97844 0.0
C421 C 0.80665 0.57873 0.99652 0.0
C422 C 0.82984 0.59822 0.97846 0.0
C423 C 0.84523 0.59302 0.9391 0.0
C424 C 0.83734 0.56855 0.91746 0.0
C425 C 0.81397 0.54903 0.93843 0.0
H426 H 0.1753 0.73913 0.39916 0.0
H427 H 0.22777 0.73184 0.52565 0.0
H428 H 0.26238 0.76635 0.46701 0.0
H429 H 0.21154 0.75226 0.24959 0.0
H430 H 0.20317 0.77415 0.21793 0.0
H431 H 0.18219 0.74945 0.27169 0.0
H432 H 0.18133 0.78165 0.35125 0.0
H433 H 0.20251 0.80647 0.29799 0.0
H434 H 0.21003 0.80627 0.38423 0.0
H435 H 0.2915 0.80123 0.39561 0.0
H436 H 0.31363 0.83216 0.30808 0.0
H437 H 0.24318 0.81699 0.22421 0.0
C438 C 0.19408 0.74485 0.41439 0.0
C439 C 0.19878 0.73277 0.46715 0.0
C440 C 0.22364 0.74071 0.48534 0.0
C441 C 0.24349 0.76043 0.45258 0.0
C442 C 0.23831 0.77206 0.40124 0.0
C443 C 0.21429 0.76447 0.38153 0.0
C444 C 0.21416 0.77958 0.32254 0.0
C445 C 0.20205 0.76286 0.26185 0.0
C446 C 0.20124 0.79437 0.34008 0.0
C447 C 0.24181 0.79664 0.31221 0.0
C448 C 0.25533 0.79211 0.35878 0.0
C449 C 0.28115 0.80502 0.35891 0.0
C450 C 0.29356 0.82263 0.3091 0.0
C451 C 0.28018 0.82712 0.2595 0.0
C452 C 0.25394 0.81419 0.2619 0.0
H453 H 0.47 0.19108 0.73328 0.0
H454 H 0.3903 0.14923 0.76096 0.0
H455 H 0.38583 0.17961 0.69241 0.0
H456 H 0.47591 0.25039 0.74583 0.0
H457 H 0.49974 0.26478 0.68369 0.0
H458 H 0.49679 0.23878 0.73032 0.0
H459 H 0.49257 0.21491 0.62147 0.0
H460 H 0.49595 0.24101 0.57444 0.0
H461 H 0.46926 0.21077 0.56171 0.0
H462 H 0.39017 0.21596 0.62662 0.0
H463 H 0.40278 0.25384 0.56054 0.0
H464 H 0.47968 0.27244 0.57616 0.0
C465 C 0.45156 0.18798 0.72349 0.0
C466 C 0.43045 0.16761 0.75196 0.0
C467 C 0.40671 0.16457 0.73926 0.0
C468 C 0.40399 0.1818 0.70063 0.0
C469 C 0.4252 0.20209 0.67502 0.0
C470 C 0.44852 0.20514 0.68527 0.0
C471 C 0.46835 0.22901 0.65383 0.0
C472 C 0.48625 0.24678 0.70657 0.0
C473 C 0.48235 0.22359 0.59963 0.0
C474 C 0.45254 0.23888 0.62441 0.0
C475 C 0.42771 0.22311 0.63745 0.0
C476 C 0.40956 0.22838 0.61586 0.0
C477 C 0.41691 0.25003 0.57869 0.0
C478 C 0.4422 0.26618 0.56333 0.0
C479 C 0.46021 0.26056 0.58733 0.0
H480 H 0.20709 0.46211 0.60249 0.0
H481 H 0.16188 0.38307 0.6375 0.0
H482 H 0.18829 0.37549 0.56015 0.0
H483 H 0.21557 0.45846 0.43169 0.0
H484 H 0.24704 0.48388 0.43088 0.0
H485 H 0.2256 0.48292 0.49219 0.0
H486 H 0.25561 0.48616 0.58594 0.0
H487 H 0.27722 0.48724 0.52486 0.0
H488 H 0.26625 0.46406 0.58917 0.0
H489 H 0.21862 0.37684 0.47353 0.0
H490 H 0.25057 0.38711 0.38697 0.0
H491 H 0.27505 0.46521 0.41139 0.0
C492 C 0.20287 0.4432 0.59453 0.0
C493 C 0.18253 0.42316 0.62584 0.0
C494 C 0.1775 0.39868 0.61395 0.0
C495 C 0.19237 0.39421 0.5702 0.0
C496 C 0.21214 0.41446 0.53934 0.0
C497 C 0.21744 0.43846 0.55135 0.0
C498 C 0.23912 0.457 0.51057 0.0
C499 C 0.23135 0.4714 0.46355 0.0
C500 C 0.26084 0.47465 0.55532 0.0
C501 C 0.24503 0.43969 0.47287 0.0
C502 C 0.22941 0.41522 0.49012 0.0
C503 C 0.23107 0.39595 0.46002 0.0
C504 C 0.24919 0.40193 0.41095 0.0
C505 C 0.26523 0.42693 0.39275 0.0
C506 C 0.26311 0.44593 0.42446 0.0
H507 H 0.82433 0.25579 0.74554 0.0
H508 H 0.79523 0.30551 0.71588 0.0
H509 H 0.76269 0.28227 0.79899 0.0
H510 H 0.76593 0.20094 0.7599 0.0
H511 H 0.77575 0.18701 0.82248 0.0
H512 H 0.79789 0.20855 0.7641 0.0
H513 H 0.82545 0.23567 0.86102 0.0
H514 H 0.80342 0.21415 0.91975 0.0
H515 H 0.81229 0.24645 0.92327 0.0
H516 H 0.73272 0.25316 0.88172 0.0
H517 H 0.70637 0.21916 0.95819 0.0
H518 H 0.75427 0.1877 0.93237 0.0
C519 C 0.81127 0.26193 0.75721 0.0
C520 C 0.81227 0.28245 0.72472 0.0
C521 C 0.79472 0.2898 0.74039 0.0
C522 C 0.77624 0.27678 0.78757 0.0
C523 C 0.77558 0.25646 0.81828 0.0
C524 C 0.79256 0.24901 0.8038 0.0
C525 C 0.78698 0.22583 0.84176 0.0
C526 C 0.78129 0.20432 0.79421 0.0
C527 C 0.8083 0.23084 0.88928 0.0
C528 C 0.76407 0.22133 0.87931 0.0
C529 C 0.75795 0.23933 0.8654 0.0
C530 C 0.73734 0.23898 0.89329 0.0
C531 C 0.7225 0.21962 0.93654 0.0
C532 C 0.72832 0.20086 0.951 0.0
C533 C 0.74942 0.20182 0.92216 0.0
H534 H 0.53212 0.8009 0.06459 0.0
H535 H 0.61037 0.85603 0.07191 0.0
H536 H 0.61707 0.83071 0.15486 0.0
H537 H 0.52501 0.78635 0.23799 0.0
H538 H 0.50365 0.75383 0.22518 0.0
H539 H 0.50519 0.7762 0.16599 0.0
H540 H 0.51363 0.75303 0.07186 0.0
H541 H 0.51215 0.7306 0.13078 0.0
H542 H 0.53924 0.74739 0.07951 0.0
H543 H 0.61512 0.79932 0.23644 0.0
H544 H 0.60457 0.76438 0.31266 0.0
H545 H 0.5275 0.73022 0.25211 0.0
C546 C 0.55068 0.80764 0.08358 0.0
C547 C 0.57075 0.83036 0.06196 0.0
C548 C 0.59474 0.83863 0.088 0.0
C549 C 0.59873 0.8244 0.13498 0.0
C550 C 0.5785 0.80205 0.15524 0.0
C551 C 0.55495 0.79374 0.1305 0.0
C552 C 0.53632 0.7692 0.1608 0.0
C553 C 0.51637 0.77155 0.19982 0.0
C554 C 0.52466 0.74886 0.10756 0.0
C555 C 0.55308 0.76497 0.20654 0.0
C556 C 0.57734 0.78408 0.2025 0.0
C557 C 0.59619 0.78425 0.24008 0.0
C558 C 0.59002 0.76434 0.28312 0.0
C559 C 0.56523 0.74467 0.28816 0.0
C560 C 0.5466 0.74504 0.24927 0.0
H561 H 0.73917 0.54033 0.41606 0.0
H562 H 0.76874 0.61906 0.38505 0.0
H563 H 0.80267 0.62815 0.46451 0.0
H564 H 0.75167 0.54395 0.59068 0.0
H565 H 0.75923 0.51956 0.5885 0.0
H566 H 0.73763 0.51972 0.52942 0.0
H567 H 0.76443 0.51831 0.43295 0.0
H568 H 0.78616 0.51823 0.49169 0.0
H569 H 0.79674 0.54166 0.4281 0.0
H570 H 0.83414 0.62804 0.5454 0.0
H571 H 0.85894 0.61876 0.62457 0.0
H572 H 0.807 0.54015 0.60229 0.0
C573 C 0.75276 0.55951 0.42593 0.0
C574 C 0.7515 0.57902 0.39446 0.0
C575 C 0.76948 0.60387 0.40894 0.0
C576 C 0.78878 0.60918 0.45376 0.0
C577 C 0.78955 0.5894 0.4837 0.0
C578 C 0.77186 0.56508 0.47063 0.0
C579 C 0.77649 0.54708 0.50938 0.0
C580 C 0.75498 0.53168 0.55735 0.0
C581 C 0.78124 0.53034 0.46274 0.0
C582 C 0.79968 0.56501 0.54619 0.0
C583 C 0.8071 0.58935 0.53073 0.0
C584 C 0.82841 0.60905 0.55813 0.0
C585 C 0.84238 0.60364 0.60279 0.0
C586 C 0.83475 0.57878 0.61956 0.0
C587 C 0.81318 0.55935 0.59074 0.0
H588 H 0.18219 0.75244 0.73336 0.0
H589 H 0.1783 0.68543 0.80975 0.0
H590 H 0.20721 0.70958 0.89948 0.0
H591 H 0.24527 0.79111 0.75793 0.0
H592 H 0.24363 0.81803 0.78291 0.0
H593 H 0.22018 0.79531 0.7293 0.0
H594 H 0.18592 0.78977 0.81187 0.0
H595 H 0.20924 0.81278 0.86541 0.0
H596 H 0.18789 0.78241 0.89732 0.0
H597 H 0.23992 0.74109 0.97172 0.0
H598 H 0.27227 0.77805 0.02926 0.0
H599 H 0.25472 0.82491 0.90829 0.0
C600 C 0.18692 0.74279 0.77006 0.0
C601 C 0.17798 0.71709 0.76489 0.0
C602 C 0.18489 0.70511 0.81303 0.0
C603 C 0.2013 0.71866 0.86412 0.0
C604 C 0.21045 0.74409 0.86657 0.0
C605 C 0.20329 0.75604 0.82151 0.0
C606 C 0.217 0.78377 0.83328 0.0
C607 C 0.23243 0.79787 0.77222 0.0
C608 C 0.19893 0.7927 0.85317 0.0
C609 C 0.23344 0.78555 0.89081 0.0
C610 C 0.22928 0.76241 0.90921 0.0
C611 C 0.24311 0.75929 0.95856 0.0
C612 C 0.26154 0.7804 0.99057 0.0
C613 C 0.2659 0.80427 0.97323 0.0
C614 C 0.25161 0.80684 0.92281 0.0
H615 H 0.41999 0.17894 0.06767 0.0
H616 H 0.49745 0.20814 0.0172 0.0
H617 H 0.50914 0.24364 0.0918 0.0
H618 H 0.42295 0.23866 0.07662 0.0
H619 H 0.4017 0.22974 0.14536 0.0
H620 H 0.39924 0.20671 0.08702 0.0
H621 H 0.40287 0.1811 0.18324 0.0
H622 H 0.40531 0.20402 0.24183 0.0
H623 H 0.42907 0.19557 0.23861 0.0
H624 H 0.51271 0.27473 0.17441 0.0
H625 H 0.50787 0.30046 0.25937 0.0
H626 H 0.42803 0.252 0.25412 0.0
C627 C 0.43938 0.19286 0.07229 0.0
C628 C 0.45784 0.19086 0.03692 0.0
C629 C 0.48303 0.20941 0.04387 0.0
C630 C 0.48986 0.22962 0.08604 0.0
C631 C 0.47124 0.23106 0.12029 0.0
C632 C 0.44652 0.2133 0.11374 0.0
C633 C 0.43026 0.21929 0.15661 0.0
C634 C 0.41249 0.22388 0.11384 0.0
C635 C 0.41605 0.19878 0.20813 0.0
C636 C 0.44978 0.24296 0.18906 0.0
C637 C 0.47327 0.2494 0.16727 0.0
C638 C 0.49441 0.27004 0.19155 0.0
C639 C 0.49147 0.28449 0.23979 0.0
C640 C 0.46758 0.27822 0.26288 0.0
C641 C 0.44648 0.25731 0.23678 0.0
H642 H 0.38713 0.53279 0.24668 0.0
H643 H 0.37441 0.49043 0.42771 0.0
H644 H 0.40952 0.5267 0.48099 0.0
H645 H 0.45324 0.56571 0.25451 0.0
H646 H 0.4565 0.59423 0.22274 0.0
H647 H 0.43008 0.56506 0.19955 0.0
H648 H 0.4007 0.58027 0.24217 0.0
H649 H 0.42706 0.60947 0.26572 0.0
H650 H 0.40371 0.59122 0.32629 0.0
H651 H 0.44721 0.56718 0.51303 0.0
H652 H 0.48423 0.609 0.52141 0.0
H653 H 0.47127 0.62515 0.32086 0.0
C654 C 0.39171 0.53117 0.29757 0.0
C655 C 0.37809 0.50879 0.33306 0.0
C656 C 0.38461 0.50741 0.3996 0.0
C657 C 0.4045 0.52791 0.43032 0.0
C658 C 0.41757 0.54971 0.39397 0.0
C659 C 0.41139 0.5515 0.32914 0.0
C660 C 0.42854 0.57698 0.30085 0.0
C661 C 0.44295 0.57539 0.24088 0.0
C662 C 0.41414 0.59026 0.28271 0.0
C663 C 0.44547 0.58915 0.35965 0.0
C664 C 0.43887 0.57314 0.4129 0.0
C665 C 0.45241 0.57997 0.47185 0.0
C666 C 0.47338 0.60373 0.47621 0.0
C667 C 0.48047 0.62036 0.42208 0.0
C668 C 0.46612 0.61297 0.36344 0.0
H669 H 0.86881 0.47904 0.76208 0.0
H670 H 0.86475 0.50722 0.56847 0.0
H671 H 0.8652 0.47179 0.51515 0.0
H672 H 0.91033 0.45761 0.7156 0.0
H673 H 0.89574 0.43036 0.76718 0.0
H674 H 0.89446 0.45761 0.79034 0.0
H675 H 0.84649 0.43184 0.79477 0.0
H676 H 0.84763 0.40447 0.77211 0.0
H677 H 0.82959 0.414 0.7233 0.0
H678 H 0.86671 0.43337 0.48262 0.0
H679 H 0.86788 0.39427 0.47442 0.0
H680 H 0.8713 0.3917 0.68903 0.0
C681 C 0.86782 0.47764 0.70852 0.0
C682 C 0.86668 0.49584 0.66945 0.0
C683 C 0.86558 0.49345 0.59944 0.0
C684 C 0.86587 0.47342 0.56864 0.0
C685 C 0.86729 0.45592 0.6085 0.0
C686 C 0.86814 0.45777 0.67692 0.0
C687 C 0.86976 0.43656 0.70833 0.0
C688 C 0.89402 0.44612 0.74767 0.0
C689 C 0.84701 0.42078 0.7522 0.0
C690 C 0.86968 0.42252 0.64695 0.0
C691 C 0.86827 0.43396 0.58979 0.0
C692 C 0.86782 0.42424 0.52708 0.0
C693 C 0.86855 0.40209 0.52284 0.0
C694 C 0.86974 0.39 0.58096 0.0
C695 C 0.87048 0.40054 0.6436 0.0
H696 H 0.47444 0.86256 0.89889 0.0
H697 H 0.51252 0.88465 0.08843 0.0
H698 H 0.47748 0.88706 0.13614 0.0
H699 H 0.44628 0.90135 0.9073 0.0
H700 H 0.41746 0.87857 0.87021 0.0
H701 H 0.44584 0.87905 0.84952 0.0
H702 H 0.42629 0.83308 0.88494 0.0
H703 H 0.39786 0.83246 0.90568 0.0
H704 H 0.41336 0.82395 0.96694 0.0
H705 H 0.43881 0.88724 0.16432 0.0
H706 H 0.39765 0.88377 0.17196 0.0
H707 H 0.38346 0.86063 0.96592 0.0
C708 C 0.47537 0.86798 0.95029 0.0
C709 C 0.49625 0.87345 0.98986 0.0
C710 C 0.49674 0.88032 0.0571 0.0
C711 C 0.47693 0.88181 0.08474 0.0
C712 C 0.45663 0.87626 0.04472 0.0
C713 C 0.45557 0.86938 0.97907 0.0
C714 C 0.43115 0.86387 0.94784 0.0
C715 C 0.43545 0.88179 0.89031 0.0
C716 C 0.41629 0.83673 0.92502 0.0
C717 C 0.41879 0.86871 0.00627 0.0
C718 C 0.43393 0.87597 0.06148 0.0
C719 C 0.42673 0.88155 0.12147 0.0
C720 C 0.40334 0.87955 0.12533 0.0
C721 C 0.38736 0.87191 0.06966 0.0
C722 C 0.39527 0.86648 0.00935 0.0
H723 H 0.61818 0.47922 0.23559 0.0
H724 H 0.6488 0.50503 0.43207 0.0
H725 H 0.61364 0.46805 0.48152 0.0
H726 H 0.55449 0.45444 0.28125 0.0
H727 H 0.54301 0.42802 0.22685 0.0
H728 H 0.57098 0.45626 0.2061 0.0
H729 H 0.59481 0.43213 0.19789 0.0
H730 H 0.56687 0.40381 0.21845 0.0
H731 H 0.5945 0.41374 0.2673 0.0
H732 H 0.57472 0.42892 0.51062 0.0
H733 H 0.53476 0.38958 0.51646 0.0
H734 H 0.52937 0.38885 0.30177 0.0
C735 C 0.61753 0.47697 0.28892 0.0
C736 C 0.63625 0.49502 0.32991 0.0
C737 C 0.63468 0.49147 0.39959 0.0
C738 C 0.61478 0.47051 0.42826 0.0
C739 C 0.59653 0.45317 0.3867 0.0
C740 C 0.59771 0.45608 0.31855 0.0
C741 C 0.57541 0.43473 0.28544 0.0
C742 C 0.56007 0.44392 0.2477 0.0
C743 C 0.58338 0.42024 0.23957 0.0
C744 C 0.56158 0.41951 0.34564 0.0
C745 C 0.57407 0.43049 0.40356 0.0
C746 C 0.56478 0.42007 0.46558 0.0
C747 C 0.54208 0.39776 0.46846 0.0
C748 C 0.52902 0.38615 0.40968 0.0
C749 C 0.53898 0.39724 0.3476 0.0
H750 H 0.13326 0.60474 0.6964 0.0
H751 H 0.15499 0.61405 0.48928 0.0
H752 H 0.15496 0.57433 0.49244 0.0
H753 H 0.16989 0.57836 0.74969 0.0
H754 H 0.14695 0.55703 0.80704 0.0
H755 H 0.14841 0.58597 0.7881 0.0
H756 H 0.10223 0.56233 0.75279 0.0
H757 H 0.10061 0.53329 0.77159 0.0
H758 H 0.09212 0.53855 0.69025 0.0
H759 H 0.15342 0.53417 0.51903 0.0
H760 H 0.14996 0.49603 0.56624 0.0
H761 H 0.1285 0.51254 0.75584 0.0
C762 C 0.13799 0.59842 0.65164 0.0
C763 C 0.14417 0.61247 0.59254 0.0
C764 C 0.1502 0.60356 0.53504 0.0
C765 C 0.15023 0.58104 0.53639 0.0
C766 C 0.14408 0.56767 0.59554 0.0
C767 C 0.138 0.57598 0.65207 0.0
C768 C 0.13216 0.55813 0.70931 0.0
C769 C 0.15045 0.57062 0.76692 0.0
C770 C 0.10517 0.54744 0.73232 0.0
C771 C 0.13603 0.5385 0.67628 0.0
C772 C 0.14292 0.54439 0.61067 0.0
C773 C 0.14795 0.52933 0.57023 0.0
C774 C 0.14594 0.50772 0.59756 0.0
C775 C 0.13889 0.50129 0.66465 0.0
C776 C 0.13379 0.51689 0.70432 0.0
H777 H 0.61445 0.14445 0.96451 0.0
H778 H 0.59857 0.11507 0.1648 0.0
H779 H 0.5554 0.10646 0.15293 0.0
H780 H 0.57867 0.17469 0.97089 0.0
H781 H 0.56834 0.16768 0.88607 0.0
H782 H 0.5976 0.17075 0.90995 0.0
H783 H 0.58355 0.12694 0.86338 0.0
H784 H 0.55415 0.12366 0.83969 0.0
H785 H 0.55513 0.10088 0.8928 0.0
H786 H 0.51457 0.10231 0.12027 0.0
H787 H 0.47912 0.10383 0.07096 0.0
H788 H 0.5214 0.13543 0.89087 0.0
C789 C 0.60189 0.13614 0.0059 0.0
C790 C 0.60983 0.13041 0.06569 0.0
C791 C 0.59286 0.11963 0.11866 0.0
C792 C 0.56832 0.11461 0.11224 0.0
C793 C 0.56109 0.12043 0.05249 0.0
C794 C 0.57739 0.131 0.00029 0.0
C795 C 0.56517 0.13607 0.94198 0.0
C796 C 0.57822 0.16395 0.92634 0.0
C797 C 0.56446 0.12098 0.88085 0.0
C798 C 0.53943 0.12688 0.96968 0.0
C799 C 0.53748 0.11786 0.03342 0.0
C800 C 0.51584 0.10918 0.0703 0.0
C801 C 0.49581 0.11013 0.0418 0.0
C802 C 0.49747 0.11962 0.97695 0.0
C803 C 0.51948 0.12775 0.94013 0.0
loop_
_geom_bond_atom_site_label_1
_geom_bond_atom_site_label_2
_geom_bond_distance
_geom_bond_site_symmetry_2
_ccdc_geom_bond_type
In0 O1 2.294 . S
In0 O2 2.326 . S
In0 O6 2.266 . S
In0 O7 2.326 . S
In0 O8 2.266 . S
In0 O9 2.326 . S
In0 O11 2.294 . S
In0 O12 2.326 . S
O1 In0 2.294 . S
O1 C10 1.240 . S
O2 In0 2.326 . S
O2 C10 1.252 . S
C3 O6 1.252 . S
C3 O7 1.260 . S
C4 O11 1.240 . S
C4 O12 1.252 . S
C5 O8 1.252 . S
C5 O9 1.260 . S
O6 In0 2.266 . S
O6 C3 1.252 . S
O7 In0 2.326 . S
O7 C3 1.260 . S
O8 In0 2.266 . S
O8 C5 1.252 . S
O9 In0 2.326 . S
O9 C5 1.260 . S
C10 O1 1.240 . S
C10 O2 1.252 . S
O11 In0 2.294 . S
O11 C4 1.240 . S
O12 In0 2.326 . S
O12 C4 1.252 . S
In13 O14 2.294 . S
In13 O15 2.326 . S
In13 O19 2.266 . S
In13 O20 2.326 . S
In13 O21 2.266 . S
In13 O22 2.326 . S
In13 O24 2.294 . S
In13 O25 2.326 . S
O14 In13 2.294 . S
O14 C23 1.240 . S
O15 In13 2.326 . S
O15 C23 1.252 . S
C16 O19 1.252 . S
C16 O20 1.260 . S
C17 O24 1.240 . S
C17 O25 1.252 . S
C18 O21 1.252 . S
C18 O22 1.260 . S
O19 In13 2.266 . S
O19 C16 1.252 . S
O20 In13 2.326 . S
O20 C16 1.260 . S
O21 In13 2.266 . S
O21 C18 1.252 . S
O22 In13 2.326 . S
O22 C18 1.260 . S
C23 O14 1.240 . S
C23 O15 1.252 . S
O24 In13 2.294 . S
O24 C17 1.240 . S
O25 In13 2.326 . S
O25 C17 1.252 . S
In26 O27 2.294 1_556 S
In26 O28 2.326 . S
In26 O32 2.266 . S
In26 O33 2.326 . S
In26 O34 2.266 . S
In26 O35 2.326 1_556 S
In26 O37 2.294 . S
In26 O38 2.326 . S
O27 In26 2.294 1_554 S
O27 C36 1.240 . S
O28 In26 2.326 . S
O28 C36 1.252 1_556 S
C29 O32 1.252 . S
C29 O33 1.260 . S
C30 O37 1.240 . S
C30 O38 1.252 . S
C31 O34 1.252 . S
C31 O35 1.260 1_556 S
O32 In26 2.266 . S
O32 C29 1.252 . S
O33 In26 2.326 . S
O33 C29 1.260 . S
O34 In26 2.266 . S
O34 C31 1.252 . S
O35 In26 2.326 1_554 S
O35 C31 1.260 1_554 S
C36 O27 1.240 . S
C36 O28 1.252 1_554 S
O37 In26 2.294 . S
O37 C30 1.240 . S
O38 In26 2.326 . S
O38 C30 1.252 . S
In39 O40 2.294 . S
In39 O41 2.326 . S
In39 O45 2.266 . S
In39 O46 2.326 . S
In39 O47 2.266 . S
In39 O48 2.326 . S
In39 O50 2.294 . S
In39 O51 2.326 . S
O40 In39 2.294 . S
O40 C49 1.240 . S
O41 In39 2.326 . S
O41 C49 1.252 . S
C42 O45 1.252 . S
C42 O46 1.260 . S
C43 O50 1.240 . S
C43 O51 1.252 . S
C44 O47 1.252 . S
C44 O48 1.260 . S
O45 In39 2.266 . S
O45 C42 1.252 . S
O46 In39 2.326 . S
O46 C42 1.260 . S
O47 In39 2.266 . S
O47 C44 1.252 . S
O48 In39 2.326 . S
O48 C44 1.260 . S
C49 O40 1.240 . S
C49 O41 1.252 . S
O50 In39 2.294 . S
O50 C43 1.240 . S
O51 In39 2.326 . S
O51 C43 1.252 . S
In52 O53 2.294 . S
In52 O54 2.326 . S
In52 O58 2.266 . S
In52 O59 2.326 . S
In52 O60 2.266 . S
In52 O61 2.326 . S
In52 O63 2.294 . S
In52 O64 2.326 . S
O53 In52 2.294 . S
O53 C62 1.240 . S
O54 In52 2.326 . S
O54 C62 1.252 . S
C55 O58 1.252 . S
C55 O59 1.260 . S
C56 O63 1.240 . S
C56 O64 1.252 . S
C57 O60 1.252 . S
C57 O61 1.260 . S
O58 In52 2.266 . S
O58 C55 1.252 . S
O59 In52 2.326 . S
O59 C55 1.260 . S
O60 In52 2.266 . S
O60 C57 1.252 . S
O61 In52 2.326 . S
O61 C57 1.260 . S
C62 O53 1.240 . S
C62 O54 1.252 . S
O63 In52 2.294 . S
O63 C56 1.240 . S
O64 In52 2.326 . S
O64 C56 1.252 . S
In65 O66 2.294 1_556 S
In65 O67 2.326 . S
In65 O71 2.266 . S
In65 O72 2.326 . S
In65 O73 2.266 . S
In65 O74 2.326 1_556 S
In65 O76 2.294 . S
In65 O77 2.326 . S
O66 In65 2.294 1_554 S
O66 C75 1.240 . S
O67 In65 2.326 . S
O67 C75 1.252 1_556 S
C68 O71 1.252 . S
C68 O72 1.260 . S
C69 O76 1.240 . S
C69 O77 1.252 . S
C70 O73 1.252 . S
C70 O74 1.260 1_556 S
O71 In65 2.266 . S
O71 C68 1.252 . S
O72 In65 2.326 . S
O72 C68 1.260 . S
O73 In65 2.266 . S
O73 C70 1.252 . S
O74 In65 2.326 1_554 S
O74 C70 1.260 1_554 S
C75 O66 1.240 . S
C75 O67 1.252 1_554 S
O76 In65 2.294 . S
O76 C69 1.240 . S
O77 In65 2.326 . S
O77 C69 1.252 . S
In78 O79 2.294 . S
In78 O80 2.326 . S
In78 O84 2.266 . S
In78 O85 2.326 . S
In78 O86 2.266 . S
In78 O87 2.326 . S
In78 O89 2.294 . S
In78 O90 2.326 . S
O79 In78 2.294 . S
O79 C88 1.240 . S
O80 In78 2.326 . S
O80 C88 1.252 . S
C81 O84 1.252 . S
C81 O85 1.260 . S
C82 O89 1.240 . S
C82 O90 1.252 . S
C83 O86 1.252 . S
C83 O87 1.260 . S
O84 In78 2.266 . S
O84 C81 1.252 . S
O85 In78 2.326 . S
O85 C81 1.260 . S
O86 In78 2.266 . S
O86 C83 1.252 . S
O87 In78 2.326 . S
O87 C83 1.260 . S
C88 O79 1.240 . S
C88 O80 1.252 . S
O89 In78 2.294 . S
O89 C82 1.240 . S
O90 In78 2.326 . S
O90 C82 1.252 . S
In91 O92 2.294 . S
In91 O93 2.326 . S
In91 O97 2.266 . S
In91 O98 2.326 . S
In91 O99 2.266 . S
In91 O100 2.326 . S
In91 O102 2.294 . S
In91 O103 2.326 . S
O92 In91 2.294 . S
O92 C101 1.240 . S
O93 In91 2.326 . S
O93 C101 1.252 . S
C94 O97 1.252 . S
C94 O98 1.260 . S
C95 O102 1.240 . S
C95 O103 1.252 . S
C96 O99 1.252 . S
C96 O100 1.260 . S
O97 In91 2.266 . S
O97 C94 1.252 . S
O98 In91 2.326 . S
O98 C94 1.260 . S
O99 In91 2.266 . S
O99 C96 1.252 . S
O100 In91 2.326 . S
O100 C96 1.260 . S
C101 O92 1.240 . S
C101 O93 1.252 . S
O102 In91 2.294 . S
O102 C95 1.240 . S
O103 In91 2.326 . S
O103 C95 1.252 . S
In104 O105 2.294 . S
In104 O106 2.326 . S
In104 O110 2.266 . S
In104 O111 2.326 1_554 S
In104 O112 2.266 . S
In104 O113 2.326 . S
In104 O115 2.294 1_554 S
In104 O116 2.326 . S
O105 In104 2.294 . S
O105 C114 1.240 . S
O106 In104 2.326 . S
O106 C114 1.252 . S
C107 O110 1.252 . S
C107 O111 1.260 1_554 S
C108 O115 1.240 . S
C108 O116 1.252 1_556 S
C109 O112 1.252 . S
C109 O113 1.260 . S
O110 In104 2.266 . S
O110 C107 1.252 . S
O111 In104 2.326 1_556 S
O111 C107 1.260 1_556 S
O112 In104 2.266 . S
O112 C109 1.252 . S
O113 In104 2.326 . S
O113 C109 1.260 . S
C114 O105 1.240 . S
C114 O106 1.252 . S
O115 In104 2.294 1_556 S
O115 C108 1.240 . S
O116 In104 2.326 . S
O116 C108 1.252 1_554 S
In117 O118 2.294 . S
In117 O119 2.326 . S
In117 O123 2.266 . S
In117 O124 2.326 . S
In117 O125 2.266 . S
In117 O126 2.326 . S
In117 O128 2.294 . S
In117 O129 2.326 . S
O118 In117 2.294 . S
O118 C127 1.240 . S
O119 In117 2.326 . S
O119 C127 1.252 . S
C120 O123 1.252 . S
C120 O124 1.260 . S
C121 O128 1.240 . S
C121 O129 1.252 . S
C122 O125 1.252 . S
C122 O126 1.260 . S
O123 In117 2.266 . S
O123 C120 1.252 . S
O124 In117 2.326 . S
O124 C120 1.260 . S
O125 In117 2.266 . S
O125 C122 1.252 . S
O126 In117 2.326 . S
O126 C122 1.260 . S
C127 O118 1.240 . S
C127 O119 1.252 . S
O128 In117 2.294 . S
O128 C121 1.240 . S
O129 In117 2.326 . S
O129 C121 1.252 . S
In130 O131 2.294 . S
In130 O132 2.326 . S
In130 O136 2.266 . S
In130 O137 2.326 . S
In130 O138 2.266 . S
In130 O139 2.326 . S
In130 O141 2.294 . S
In130 O142 2.326 . S
O131 In130 2.294 . S
O131 C140 1.240 . S
O132 In130 2.326 . S
O132 C140 1.252 . S
C133 O136 1.252 . S
C133 O137 1.260 . S
C134 O141 1.240 . S
C134 O142 1.252 . S
C135 O138 1.252 . S
C135 O139 1.260 . S
O136 In130 2.266 . S
O136 C133 1.252 . S
O137 In130 2.326 . S
O137 C133 1.260 . S
O138 In130 2.266 . S
O138 C135 1.252 . S
O139 In130 2.326 . S
O139 C135 1.260 . S
C140 O131 1.240 . S
C140 O132 1.252 . S
O141 In130 2.294 . S
O141 C134 1.240 . S
O142 In130 2.326 . S
O142 C134 1.252 . S
In143 O144 2.294 . S
In143 O145 2.326 . S
In143 O149 2.266 . S
In143 O150 2.326 1_554 S
In143 O151 2.266 . S
In143 O152 2.326 . S
In143 O154 2.294 1_554 S
In143 O155 2.326 . S
O144 In143 2.294 . S
O144 C153 1.240 . S
O145 In143 2.326 . S
O145 C153 1.252 . S
C146 O149 1.252 . S
C146 O150 1.260 1_554 S
C147 O154 1.240 . S
C147 O155 1.252 1_556 S
C148 O151 1.252 . S
C148 O152 1.260 . S
O149 In143 2.266 . S
O149 C146 1.252 . S
O150 In143 2.326 1_556 S
O150 C146 1.260 1_556 S
O151 In143 2.266 . S
O151 C148 1.252 . S
O152 In143 2.326 . S
O152 C148 1.260 . S
C153 O144 1.240 . S
C153 O145 1.252 . S
O154 In143 2.294 1_556 S
O154 C147 1.240 . S
O155 In143 2.326 . S
O155 C147 1.252 1_554 S
H156 C168 0.930 . S
H157 C170 0.930 . S
H158 C171 0.930 . S
H159 C175 0.959 . S
H160 C175 0.959 . S
H161 C175 0.961 . S
H162 C176 0.960 . S
H163 C176 0.961 . S
H164 C176 0.959 . S
H165 C179 0.929 . S
H166 C180 0.931 . S
H167 C182 0.930 . S
C168 H156 0.930 . S
C168 C169 1.399 . S
C168 C173 1.399 . S
C169 C168 1.399 . S
C169 C170 1.376 . S
C170 H157 0.930 . S
C170 C169 1.376 . S
C170 C171 1.388 . S
C171 H158 0.930 . S
C171 C170 1.388 . S
C171 C172 1.390 . S
C172 C171 1.390 . S
C172 C173 1.394 . S
C172 C178 1.465 . S
C173 C168 1.399 . S
C173 C172 1.394 . S
C173 C174 1.516 . S
C174 C173 1.516 . S
C174 C175 1.502 . S
C174 C176 1.561 . S
C174 C177 1.526 . S
C175 H159 0.959 . S
C175 H160 0.959 . S
C175 H161 0.961 . S
C175 C174 1.502 . S
C176 H162 0.960 . S
C176 H163 0.961 . S
C176 H164 0.959 . S
C176 C174 1.561 . S
C177 C174 1.526 . S
C177 C178 1.396 . S
C177 C182 1.390 . S
C178 C172 1.465 . S
C178 C177 1.396 . S
C178 C179 1.399 . S
C179 H165 0.929 . S
C179 C178 1.399 . S
C179 C180 1.385 . S
C180 H166 0.931 . S
C180 C179 1.385 . S
C180 C181 1.389 . S
C181 C180 1.389 . S
C181 C182 1.387 . S
C182 H167 0.930 . S
C182 C177 1.390 . S
C182 C181 1.387 . S
H183 C195 0.930 . S
H184 C197 0.930 . S
H185 C198 0.930 . S
H186 C202 0.959 . S
H187 C202 0.959 . S
H188 C202 0.961 . S
H189 C203 0.960 . S
H190 C203 0.961 . S
H191 C203 0.959 . S
H192 C206 0.929 . S
H193 C207 0.931 . S
H194 C209 0.930 . S
C195 H183 0.930 . S
C195 C196 1.399 . S
C195 C200 1.399 . S
C196 C195 1.399 . S
C196 C197 1.376 . S
C197 H184 0.930 . S
C197 C196 1.376 . S
C197 C198 1.388 . S
C198 H185 0.930 . S
C198 C197 1.388 . S
C198 C199 1.390 . S
C199 C198 1.390 . S
C199 C200 1.394 . S
C199 C205 1.465 1_655 S
C200 C195 1.399 . S
C200 C199 1.394 . S
C200 C201 1.516 . S
C201 C200 1.516 . S
C201 C202 1.502 . S
C201 C203 1.561 . S
C201 C204 1.526 1_655 S
C202 H186 0.959 . S
C202 H187 0.959 . S
C202 H188 0.961 . S
C202 C201 1.502 . S
C203 H189 0.960 . S
C203 H190 0.961 . S
C203 H191 0.959 . S
C203 C201 1.561 . S
C204 C201 1.526 1_455 S
C204 C205 1.396 . S
C204 C209 1.390 . S
C205 C199 1.465 1_455 S
C205 C204 1.396 . S
C205 C206 1.399 . S
C206 H192 0.929 . S
C206 C205 1.399 . S
C206 C207 1.385 . S
C207 H193 0.931 . S
C207 C206 1.385 . S
C207 C208 1.389 . S
C208 C207 1.389 . S
C208 C209 1.387 . S
C209 H194 0.930 . S
C209 C204 1.390 . S
C209 C208 1.387 . S
H210 C222 0.929 . S
H211 C224 0.930 . S
H212 C225 0.930 . S
H213 C229 0.959 . S
H214 C229 0.959 . S
H215 C229 0.961 . S
H216 C230 0.960 . S
H217 C230 0.961 . S
H218 C230 0.959 . S
H219 C233 0.929 . S
H220 C234 0.931 . S
H221 C236 0.930 . S
C222 H210 0.929 . S
C222 C223 1.401 1_554 S
C222 C227 1.399 . S
C223 C222 1.401 1_556 S
C223 C224 1.376 . S
C224 H211 0.930 . S
C224 C223 1.376 . S
C224 C225 1.388 . S
C225 H212 0.930 . S
C225 C224 1.388 . S
C225 C226 1.390 . S
C226 C225 1.390 . S
C226 C227 1.394 1_556 S
C226 C232 1.465 1_565 S
C227 C222 1.399 . S
C227 C226 1.394 1_554 S
C227 C228 1.516 . S
C228 C227 1.516 . S
C228 C229 1.502 . S
C228 C230 1.561 . S
C228 C231 1.526 1_565 S
C229 H213 0.959 . S
C229 H214 0.959 . S
C229 H215 0.961 . S
C229 C228 1.502 . S
C230 H216 0.960 . S
C230 H217 0.961 . S
C230 H218 0.959 . S
C230 C228 1.561 . S
C231 C228 1.526 1_545 S
C231 C232 1.396 1_554 S
C231 C236 1.390 . S
C232 C226 1.465 1_545 S
C232 C231 1.396 1_556 S
C232 C233 1.399 . S
C233 H219 0.929 . S
C233 C232 1.399 . S
C233 C234 1.385 . S
C234 H220 0.931 . S
C234 C233 1.385 . S
C234 C235 1.389 1_556 S
C235 C234 1.389 1_554 S
C235 C236 1.387 . S
C236 H221 0.930 . S
C236 C231 1.390 . S
C236 C235 1.387 . S
H237 C249 0.930 . S
H238 C251 0.930 . S
H239 C252 0.930 . S
H240 C256 0.959 . S
H241 C256 0.959 . S
H242 C256 0.961 . S
H243 C257 0.960 . S
H244 C257 0.961 . S
H245 C257 0.959 . S
H246 C260 0.929 . S
H247 C261 0.931 . S
H248 C263 0.930 . S
C249 H237 0.930 . S
C249 C250 1.399 . S
C249 C254 1.399 . S
C250 C249 1.399 . S
C250 C251 1.376 . S
C251 H238 0.930 . S
C251 C250 1.376 . S
C251 C252 1.388 . S
C252 H239 0.930 . S
C252 C251 1.388 . S
C252 C253 1.390 . S
C253 C252 1.390 . S
C253 C254 1.394 . S
C253 C259 1.465 . S
C254 C249 1.399 . S
C254 C253 1.394 . S
C254 C255 1.516 . S
C255 C254 1.516 . S
C255 C256 1.502 . S
C255 C257 1.561 . S
C255 C258 1.526 . S
C256 H240 0.959 . S
C256 H241 0.959 . S
C256 H242 0.961 . S
C256 C255 1.502 . S
C257 H243 0.960 . S
C257 H244 0.961 . S
C257 H245 0.959 . S
C257 C255 1.561 . S
C258 C255 1.526 . S
C258 C259 1.396 . S
C258 C263 1.390 . S
C259 C253 1.465 . S
C259 C258 1.396 . S
C259 C260 1.399 . S
C260 H246 0.929 . S
C260 C259 1.399 . S
C260 C261 1.385 . S
C261 H247 0.931 . S
C261 C260 1.385 . S
C261 C262 1.389 . S
C262 C261 1.389 . S
C262 C263 1.387 . S
C263 H248 0.930 . S
C263 C258 1.390 . S
C263 C262 1.387 . S
H264 C276 0.930 . S
H265 C278 0.930 . S
H266 C279 0.930 . S
H267 C283 0.957 1_655 S
H268 C283 0.970 . S
H269 C283 0.939 1_655 S
H270 C284 0.960 . S
H271 C284 0.961 . S
H272 C284 0.959 . S
H273 C287 0.929 . S
H274 C288 0.931 . S
H275 C290 0.930 . S
C276 H264 0.930 . S
C276 C277 1.399 . S
C276 C281 1.399 . S
C277 C276 1.399 . S
C277 C278 1.376 . S
C278 H265 0.930 . S
C278 C277 1.376 . S
C278 C279 1.388 . S
C279 H266 0.930 . S
C279 C278 1.388 . S
C279 C280 1.390 . S
C280 C279 1.390 . S
C280 C281 1.394 . S
C280 C286 1.465 1_655 S
C281 C276 1.399 . S
C281 C280 1.394 . S
C281 C282 1.516 1_655 S
C282 C281 1.516 1_455 S
C282 C283 1.516 . S
C282 C284 1.561 . S
C282 C285 1.526 . S
C283 H267 0.957 1_455 S
C283 H268 0.970 . S
C283 H269 0.939 1_455 S
C283 C282 1.516 . S
C284 H270 0.960 . S
C284 H271 0.961 . S
C284 H272 0.959 . S
C284 C282 1.561 . S
C285 C282 1.526 . S
C285 C286 1.396 . S
C285 C290 1.390 . S
C286 C280 1.465 1_455 S
C286 C285 1.396 . S
C286 C287 1.399 . S
C287 H273 0.929 . S
C287 C286 1.399 . S
C287 C288 1.385 . S
C288 H274 0.931 . S
C288 C287 1.385 . S
C288 C289 1.389 . S
C289 C288 1.389 . S
C289 C290 1.387 . S
C290 H275 0.930 . S
C290 C285 1.390 . S
C290 C289 1.387 . S
H291 C303 0.930 . S
H292 C305 0.930 . S
H293 C306 0.930 . S
H294 C310 0.959 . S
H295 C310 0.959 . S
H296 C310 0.961 . S
H297 C311 0.960 . S
H298 C311 0.961 . S
H299 C311 0.959 . S
H300 C314 0.929 . S
H301 C315 0.931 . S
H302 C317 0.930 . S
C303 H291 0.930 . S
C303 C304 1.399 1_556 S
C303 C308 1.399 . S
C304 C303 1.399 1_554 S
C304 C305 1.376 . S
C305 H292 0.930 . S
C305 C304 1.376 . S
C305 C306 1.388 . S
C306 H293 0.930 . S
C306 C305 1.388 . S
C306 C307 1.390 . S
C307 C306 1.390 . S
C307 C308 1.394 1_554 S
C307 C313 1.465 1_565 S
C308 C303 1.399 . S
C308 C307 1.394 1_556 S
C308 C309 1.516 . S
C309 C308 1.516 . S
C309 C310 1.502 . S
C309 C311 1.561 . S
C309 C312 1.526 1_565 S
C310 H294 0.959 . S
C310 H295 0.959 . S
C310 H296 0.961 . S
C310 C309 1.502 . S
C311 H297 0.960 . S
C311 H298 0.961 . S
C311 H299 0.959 . S
C311 C309 1.561 . S
C312 C309 1.526 1_545 S
C312 C313 1.396 1_556 S
C312 C317 1.390 . S
C313 C307 1.465 1_545 S
C313 C312 1.396 1_554 S
C313 C314 1.399 . S
C314 H300 0.929 . S
C314 C313 1.399 . S
C314 C315 1.385 . S
C315 H301 0.931 . S
C315 C314 1.385 . S
C315 C316 1.389 1_554 S
C316 C315 1.389 1_556 S
C316 C317 1.387 . S
C317 H302 0.930 . S
C317 C312 1.390 . S
C317 C316 1.387 . S
H318 C330 0.930 . S
H319 C332 0.930 . S
H320 C333 0.916 1_554 S
H321 C337 0.959 . S
H322 C337 0.959 . S
H323 C337 0.961 . S
H324 C338 0.960 . S
H325 C338 0.961 . S
H326 C338 0.959 . S
H327 C341 0.929 . S
H328 C342 0.931 . S
H329 C344 0.930 . S
C330 H318 0.930 . S
C330 C331 1.399 . S
C330 C335 1.399 . S
C331 C330 1.399 . S
C331 C332 1.376 . S
C332 H319 0.930 . S
C332 C331 1.376 . S
C332 C333 1.402 . S
C333 H320 0.916 1_556 S
C333 C332 1.402 . S
C333 C334 1.391 . S
C334 C333 1.391 . S
C334 C335 1.394 . S
C334 C340 1.465 1_556 S
C335 C330 1.399 . S
C335 C334 1.394 . S
C335 C336 1.516 . S
C336 C335 1.516 . S
C336 C337 1.502 . S
C336 C338 1.561 . S
C336 C339 1.526 1_556 S
C337 H321 0.959 . S
C337 H322 0.959 . S
C337 H323 0.961 . S
C337 C336 1.502 . S
C338 H324 0.960 . S
C338 H325 0.961 . S
C338 H326 0.959 . S
C338 C336 1.561 . S
C339 C336 1.526 1_554 S
C339 C340 1.396 . S
C339 C344 1.390 . S
C340 C334 1.465 1_554 S
C340 C339 1.396 . S
C340 C341 1.399 . S
C341 H327 0.929 . S
C341 C340 1.399 . S
C341 C342 1.385 . S
C342 H328 0.931 . S
C342 C341 1.385 . S
C342 C343 1.389 . S
C343 C342 1.389 . S
C343 C344 1.387 . S
C344 H329 0.930 . S
C344 C339 1.390 . S
C344 C343 1.387 . S
H345 C357 0.930 . S
H346 C359 0.930 . S
H347 C360 0.930 . S
H348 C364 0.959 . S
H349 C364 0.959 . S
H350 C364 0.961 . S
H351 C365 0.960 . S
H352 C365 0.961 . S
H353 C365 0.959 . S
H354 C368 0.929 . S
H355 C369 0.931 . S
H356 C371 0.930 . S
C357 H345 0.930 . S
C357 C358 1.399 . S
C357 C362 1.399 . S
C358 C357 1.399 . S
C358 C359 1.376 . S
C359 H346 0.930 . S
C359 C358 1.376 . S
C359 C360 1.388 . S
C360 H347 0.930 . S
C360 C359 1.388 . S
C360 C361 1.390 . S
C361 C360 1.390 . S
C361 C362 1.394 . S
C361 C367 1.465 . S
C362 C357 1.399 . S
C362 C361 1.394 . S
C362 C363 1.516 . S
C363 C362 1.516 . S
C363 C364 1.502 . S
C363 C365 1.561 . S
C363 C366 1.526 . S
C364 H348 0.959 . S
C364 H349 0.959 . S
C364 H350 0.961 . S
C364 C363 1.502 . S
C365 H351 0.960 . S
C365 H352 0.961 . S
C365 H353 0.959 . S
C365 C363 1.561 . S
C366 C363 1.526 . S
C366 C367 1.396 . S
C366 C371 1.390 . S
C367 C361 1.465 . S
C367 C366 1.396 . S
C367 C368 1.399 . S
C368 H354 0.929 . S
C368 C367 1.399 . S
C368 C369 1.385 . S
C369 H355 0.931 . S
C369 C368 1.385 . S
C369 C370 1.389 . S
C370 C369 1.389 . S
C370 C371 1.387 . S
C371 H356 0.930 . S
C371 C366 1.390 . S
C371 C370 1.387 . S
H372 C384 0.930 . S
H373 C386 0.930 . S
H374 C387 0.930 . S
H375 C391 0.959 . S
H376 C391 0.959 . S
H377 C391 0.961 . S
H378 C392 0.960 . S
H379 C392 0.961 . S
H380 C392 0.959 . S
H381 C395 0.929 . S
H382 C396 0.931 . S
H383 C398 0.930 . S
C384 H372 0.930 . S
C384 C385 1.399 . S
C384 C389 1.399 . S
C385 C384 1.399 . S
C385 C386 1.376 . S
C386 H373 0.930 . S
C386 C385 1.376 . S
C386 C387 1.388 . S
C387 H374 0.930 . S
C387 C386 1.388 . S
C387 C388 1.390 . S
C388 C387 1.390 . S
C388 C389 1.394 . S
C388 C394 1.465 . S
C389 C384 1.399 . S
C389 C388 1.394 . S
C389 C390 1.516 . S
C390 C389 1.516 . S
C390 C391 1.502 . S
C390 C392 1.561 . S
C390 C393 1.526 . S
C391 H375 0.959 . S
C391 H376 0.959 . S
C391 H377 0.961 . S
C391 C390 1.502 . S
C392 H378 0.960 . S
C392 H379 0.961 . S
C392 H380 0.959 . S
C392 C390 1.561 . S
C393 C390 1.526 . S
C393 C394 1.396 . S
C393 C398 1.390 . S
C394 C388 1.465 . S
C394 C393 1.396 . S
C394 C395 1.399 . S
C395 H381 0.929 . S
C395 C394 1.399 . S
C395 C396 1.385 . S
C396 H382 0.931 . S
C396 C395 1.385 . S
C396 C397 1.389 . S
C397 C396 1.389 . S
C397 C398 1.387 . S
C398 H383 0.930 . S
C398 C393 1.390 . S
C398 C397 1.387 . S
H399 C411 0.930 . S
H400 C413 0.930 . S
H401 C414 0.930 . S
H402 C418 0.959 . S
H403 C418 0.959 . S
H404 C418 0.961 . S
H405 C419 0.960 . S
H406 C419 0.961 . S
H407 C419 0.959 . S
H408 C422 0.929 . S
H409 C423 0.931 . S
H410 C425 0.930 . S
C411 H399 0.930 . S
C411 C412 1.399 . S
C411 C416 1.399 . S
C412 C411 1.399 . S
C412 C413 1.376 . S
C413 H400 0.930 . S
C413 C412 1.376 . S
C413 C414 1.388 . S
C414 H401 0.930 . S
C414 C413 1.388 . S
C414 C415 1.390 . S
C415 C414 1.390 . S
C415 C416 1.394 . S
C415 C421 1.473 . S
C416 C411 1.399 . S
C416 C415 1.394 . S
C416 C417 1.516 1_554 S
C417 C416 1.516 1_556 S
C417 C418 1.502 . S
C417 C419 1.561 . S
C417 C420 1.526 . S
C418 H402 0.959 . S
C418 H403 0.959 . S
C418 H404 0.961 . S
C418 C417 1.502 . S
C419 H405 0.960 . S
C419 H406 0.961 . S
C419 H407 0.959 . S
C419 C417 1.561 . S
C420 C417 1.526 . S
C420 C421 1.386 1_556 S
C420 C425 1.390 . S
C421 C415 1.473 . S
C421 C420 1.386 1_554 S
C421 C422 1.400 . S
C422 H408 0.929 . S
C422 C421 1.400 . S
C422 C423 1.385 1_554 S
C423 H409 0.931 . S
C423 C422 1.385 1_556 S
C423 C424 1.389 . S
C424 C423 1.389 . S
C424 C425 1.387 . S
C425 H410 0.930 . S
C425 C420 1.390 . S
C425 C424 1.387 . S
H426 C438 0.930 . S
H427 C440 0.930 . S
H428 C441 0.930 . S
H429 C445 0.959 . S
H430 C445 0.959 . S
H431 C445 0.961 . S
H432 C446 0.960 . S
H433 C446 0.961 . S
H434 C446 0.959 . S
H435 C449 0.929 . S
H436 C450 0.931 . S
H437 C452 0.930 . S
C438 H426 0.930 . S
C438 C439 1.399 . S
C438 C443 1.399 . S
C439 C438 1.399 . S
C439 C440 1.376 . S
C440 H427 0.930 . S
C440 C439 1.376 . S
C440 C441 1.388 . S
C441 H428 0.930 . S
C441 C440 1.388 . S
C441 C442 1.390 . S
C442 C441 1.390 . S
C442 C443 1.394 . S
C442 C448 1.465 . S
C443 C438 1.399 . S
C443 C442 1.394 . S
C443 C444 1.516 . S
C444 C443 1.516 . S
C444 C445 1.502 . S
C444 C446 1.561 . S
C444 C447 1.526 . S
C445 H429 0.959 . S
C445 H430 0.959 . S
C445 H431 0.961 . S
C445 C444 1.502 . S
C446 H432 0.960 . S
C446 H433 0.961 . S
C446 H434 0.959 . S
C446 C444 1.561 . S
C447 C444 1.526 . S
C447 C448 1.396 . S
C447 C452 1.390 . S
C448 C442 1.465 . S
C448 C447 1.396 . S
C448 C449 1.399 . S
C449 H435 0.929 . S
C449 C448 1.399 . S
C449 C450 1.385 . S
C450 H436 0.931 . S
C450 C449 1.385 . S
C450 C451 1.389 . S
C451 C450 1.389 . S
C451 C452 1.387 . S
C452 H437 0.930 . S
C452 C447 1.390 . S
C452 C451 1.387 . S
H453 C465 0.930 . S
H454 C467 0.930 . S
H455 C468 0.930 . S
H456 C472 0.959 . S
H457 C472 0.959 . S
H458 C472 0.961 . S
H459 C473 0.960 . S
H460 C473 0.961 . S
H461 C473 0.959 . S
H462 C476 0.929 . S
H463 C477 0.931 . S
H464 C479 0.930 . S
C465 H453 0.930 . S
C465 C466 1.399 . S
C465 C470 1.399 . S
C466 C465 1.399 . S
C466 C467 1.376 . S
C467 H454 0.930 . S
C467 C466 1.376 . S
C467 C468 1.388 . S
C468 H455 0.930 . S
C468 C467 1.388 . S
C468 C469 1.390 . S
C469 C468 1.390 . S
C469 C470 1.394 . S
C469 C475 1.465 . S
C470 C465 1.399 . S
C470 C469 1.394 . S
C470 C471 1.516 . S
C471 C470 1.516 . S
C471 C472 1.502 . S
C471 C473 1.561 . S
C471 C474 1.526 . S
C472 H456 0.959 . S
C472 H457 0.959 . S
C472 H458 0.961 . S
C472 C471 1.502 . S
C473 H459 0.960 . S
C473 H460 0.961 . S
C473 H461 0.959 . S
C473 C471 1.561 . S
C474 C471 1.526 . S
C474 C475 1.396 . S
C474 C479 1.390 . S
C475 C469 1.465 . S
C475 C474 1.396 . S
C475 C476 1.399 . S
C476 H462 0.929 . S
C476 C475 1.399 . S
C476 C477 1.385 . S
C477 H463 0.931 . S
C477 C476 1.385 . S
C477 C478 1.389 . S
C478 C477 1.389 . S
C478 C479 1.387 . S
C479 H464 0.930 . S
C479 C474 1.390 . S
C479 C478 1.387 . S
H480 C492 0.930 . S
H481 C494 0.930 . S
H482 C495 0.930 . S
H483 C499 0.959 . S
H484 C499 0.959 . S
H485 C499 0.961 . S
H486 C500 0.960 . S
H487 C500 0.961 . S
H488 C500 0.959 . S
H489 C503 0.929 . S
H490 C504 0.931 . S
H491 C506 0.930 . S
C492 H480 0.930 . S
C492 C493 1.399 . S
C492 C497 1.399 . S
C493 C492 1.399 . S
C493 C494 1.376 . S
C494 H481 0.930 . S
C494 C493 1.376 . S
C494 C495 1.388 . S
C495 H482 0.930 . S
C495 C494 1.388 . S
C495 C496 1.390 . S
C496 C495 1.390 . S
C496 C497 1.394 . S
C496 C502 1.465 . S
C497 C492 1.399 . S
C497 C496 1.394 . S
C497 C498 1.516 . S
C498 C497 1.516 . S
C498 C499 1.502 . S
C498 C500 1.561 . S
C498 C501 1.526 . S
C499 H483 0.959 . S
C499 H484 0.959 . S
C499 H485 0.961 . S
C499 C498 1.502 . S
C500 H486 0.960 . S
C500 H487 0.961 . S
C500 H488 0.959 . S
C500 C498 1.561 . S
C501 C498 1.526 . S
C501 C502 1.396 . S
C501 C506 1.390 . S
C502 C496 1.465 . S
C502 C501 1.396 . S
C502 C503 1.399 . S
C503 H489 0.929 . S
C503 C502 1.399 . S
C503 C504 1.385 . S
C504 H490 0.931 . S
C504 C503 1.385 . S
C504 C505 1.389 . S
C505 C504 1.389 . S
C505 C506 1.387 . S
C506 H491 0.930 . S
C506 C501 1.390 . S
C506 C505 1.387 . S
H507 C519 0.930 . S
H508 C521 0.930 . S
H509 C522 0.930 . S
H510 C526 0.959 . S
H511 C526 0.959 . S
H512 C526 0.961 . S
H513 C527 0.960 . S
H514 C527 0.961 . S
H515 C527 0.959 . S
H516 C530 0.929 . S
H517 C531 0.931 . S
H518 C533 0.930 . S
C519 H507 0.930 . S
C519 C520 1.399 . S
C519 C524 1.399 . S
C520 C519 1.399 . S
C520 C521 1.376 . S
C521 H508 0.930 . S
C521 C520 1.376 . S
C521 C522 1.388 . S
C522 H509 0.930 . S
C522 C521 1.388 . S
C522 C523 1.390 . S
C523 C522 1.390 . S
C523 C524 1.394 . S
C523 C529 1.465 . S
C524 C519 1.399 . S
C524 C523 1.394 . S
C524 C525 1.516 . S
C525 C524 1.516 . S
C525 C526 1.502 . S
C525 C527 1.561 . S
C525 C528 1.526 . S
C526 H510 0.959 . S
C526 H511 0.959 . S
C526 H512 0.961 . S
C526 C525 1.502 . S
C527 H513 0.960 . S
C527 H514 0.961 . S
C527 H515 0.959 . S
C527 C525 1.561 . S
C528 C525 1.526 . S
C528 C529 1.396 . S
C528 C533 1.390 . S
C529 C523 1.465 . S
C529 C528 1.396 . S
C529 C530 1.399 . S
C530 H516 0.929 . S
C530 C529 1.399 . S
C530 C531 1.385 . S
C531 H517 0.931 . S
C531 C530 1.385 . S
C531 C532 1.389 . S
C532 C531 1.389 . S
C532 C533 1.387 . S
C533 H518 0.930 . S
C533 C528 1.390 . S
C533 C532 1.387 . S
H534 C546 0.930 . S
H535 C548 0.930 . S
H536 C549 0.930 . S
H537 C553 0.959 . S
H538 C553 0.959 . S
H539 C553 0.961 . S
H540 C554 0.960 . S
H541 C554 0.961 . S
H542 C554 0.959 . S
H543 C557 0.929 . S
H544 C558 0.931 . S
H545 C560 0.930 . S
C546 H534 0.930 . S
C546 C547 1.399 . S
C546 C551 1.399 . S
C547 C546 1.399 . S
C547 C548 1.376 . S
C548 H535 0.930 . S
C548 C547 1.376 . S
C548 C549 1.388 . S
C549 H536 0.930 . S
C549 C548 1.388 . S
C549 C550 1.390 . S
C550 C549 1.390 . S
C550 C551 1.394 . S
C550 C556 1.465 . S
C551 C546 1.399 . S
C551 C550 1.394 . S
C551 C552 1.516 . S
C552 C551 1.516 . S
C552 C553 1.502 . S
C552 C554 1.561 . S
C552 C555 1.526 . S
C553 H537 0.959 . S
C553 H538 0.959 . S
C553 H539 0.961 . S
C553 C552 1.502 . S
C554 H540 0.960 . S
C554 H541 0.961 . S
C554 H542 0.959 . S
C554 C552 1.561 . S
C555 C552 1.526 . S
C555 C556 1.396 . S
C555 C560 1.390 . S
C556 C550 1.465 . S
C556 C555 1.396 . S
C556 C557 1.399 . S
C557 H543 0.929 . S
C557 C556 1.399 . S
C557 C558 1.385 . S
C558 H544 0.931 . S
C558 C557 1.385 . S
C558 C559 1.389 . S
C559 C558 1.389 . S
C559 C560 1.387 . S
C560 H545 0.930 . S
C560 C555 1.390 . S
C560 C559 1.387 . S
H561 C573 0.930 . S
H562 C575 0.930 . S
H563 C576 0.930 . S
H564 C580 0.959 . S
H565 C580 0.959 . S
H566 C580 0.961 . S
H567 C581 0.960 . S
H568 C581 0.961 . S
H569 C581 0.959 . S
H570 C584 0.929 . S
H571 C585 0.931 . S
H572 C587 0.930 . S
C573 H561 0.930 . S
C573 C574 1.399 . S
C573 C578 1.399 . S
C574 C573 1.399 . S
C574 C575 1.376 . S
C575 H562 0.930 . S
C575 C574 1.376 . S
C575 C576 1.388 . S
C576 H563 0.930 . S
C576 C575 1.388 . S
C576 C577 1.390 . S
C577 C576 1.390 . S
C577 C578 1.394 . S
C577 C583 1.465 . S
C578 C573 1.399 . S
C578 C577 1.394 . S
C578 C579 1.516 . S
C579 C578 1.516 . S
C579 C580 1.502 . S
C579 C581 1.561 . S
C579 C582 1.526 . S
C580 H564 0.959 . S
C580 H565 0.959 . S
C580 H566 0.961 . S
C580 C579 1.502 . S
C581 H567 0.960 . S
C581 H568 0.961 . S
C581 H569 0.959 . S
C581 C579 1.561 . S
C582 C579 1.526 . S
C582 C583 1.396 . S
C582 C587 1.390 . S
C583 C577 1.465 . S
C583 C582 1.396 . S
C583 C584 1.399 . S
C584 H570 0.929 . S
C584 C583 1.399 . S
C584 C585 1.385 . S
C585 H571 0.931 . S
C585 C584 1.385 . S
C585 C586 1.389 . S
C586 C585 1.389 . S
C586 C587 1.387 . S
C587 H572 0.930 . S
C587 C582 1.390 . S
C587 C586 1.387 . S
H588 C600 0.930 . S
H589 C602 0.930 . S
H590 C603 0.930 . S
H591 C607 0.959 . S
H592 C607 0.959 . S
H593 C607 0.961 . S
H594 C608 0.960 . S
H595 C608 0.961 . S
H596 C608 0.959 . S
H597 C611 0.929 . S
H598 C612 0.931 1_554 S
H599 C614 0.930 . S
C600 H588 0.930 . S
C600 C601 1.399 . S
C600 C605 1.399 . S
C601 C600 1.399 . S
C601 C602 1.376 . S
C602 H589 0.930 . S
C602 C601 1.376 . S
C602 C603 1.388 . S
C603 H590 0.930 . S
C603 C602 1.388 . S
C603 C604 1.390 . S
C604 C603 1.390 . S
C604 C605 1.394 . S
C604 C610 1.465 . S
C605 C600 1.399 . S
C605 C604 1.394 . S
C605 C606 1.516 . S
C606 C605 1.516 . S
C606 C607 1.502 . S
C606 C608 1.561 . S
C606 C609 1.526 . S
C607 H591 0.959 . S
C607 H592 0.959 . S
C607 H593 0.961 . S
C607 C606 1.502 . S
C608 H594 0.960 . S
C608 H595 0.961 . S
C608 H596 0.959 . S
C608 C606 1.561 . S
C609 C606 1.526 . S
C609 C610 1.396 . S
C609 C614 1.390 . S
C610 C604 1.465 . S
C610 C609 1.396 . S
C610 C611 1.399 . S
C611 H597 0.929 . S
C611 C610 1.399 . S
C611 C612 1.385 . S
C612 H598 0.931 1_556 S
C612 C611 1.385 . S
C612 C613 1.389 . S
C613 C612 1.389 . S
C613 C614 1.387 . S
C614 H599 0.930 . S
C614 C609 1.390 . S
C614 C613 1.387 . S
H615 C627 0.930 . S
H616 C629 0.930 . S
H617 C630 0.930 . S
H618 C634 0.959 . S
H619 C634 0.959 . S
H620 C634 0.961 . S
H621 C635 0.960 . S
H622 C635 0.961 . S
H623 C635 0.959 . S
H624 C638 0.929 . S
H625 C639 0.931 . S
H626 C641 0.930 . S
C627 H615 0.930 . S
C627 C628 1.399 . S
C627 C632 1.399 . S
C628 C627 1.399 . S
C628 C629 1.376 . S
C629 H616 0.930 . S
C629 C628 1.376 . S
C629 C630 1.388 . S
C630 H617 0.930 . S
C630 C629 1.388 . S
C630 C631 1.390 . S
C631 C630 1.390 . S
C631 C632 1.394 . S
C631 C637 1.465 . S
C632 C627 1.399 . S
C632 C631 1.394 . S
C632 C633 1.516 . S
C633 C632 1.516 . S
C633 C634 1.502 . S
C633 C635 1.561 . S
C633 C636 1.526 . S
C634 H618 0.959 . S
C634 H619 0.959 . S
C634 H620 0.961 . S
C634 C633 1.502 . S
C635 H621 0.960 . S
C635 H622 0.961 . S
C635 H623 0.959 . S
C635 C633 1.561 . S
C636 C633 1.526 . S
C636 C637 1.396 . S
C636 C641 1.390 . S
C637 C631 1.465 . S
C637 C636 1.396 . S
C637 C638 1.399 . S
C638 H624 0.929 . S
C638 C637 1.399 . S
C638 C639 1.385 . S
C639 H625 0.931 . S
C639 C638 1.385 . S
C639 C640 1.389 . S
C640 C639 1.389 . S
C640 C641 1.387 . S
C641 H626 0.930 . S
C641 C636 1.390 . S
C641 C640 1.387 . S
H642 C654 0.930 . S
H643 C656 0.930 . S
H644 C657 0.930 . S
H645 C661 0.959 . S
H646 C661 0.959 . S
H647 C661 0.961 . S
H648 C662 0.960 . S
H649 C662 0.961 . S
H650 C662 0.959 . S
H651 C665 0.929 . S
H652 C666 0.931 . S
H653 C668 0.930 . S
C654 H642 0.930 . S
C654 C655 1.399 . S
C654 C659 1.399 . S
C655 C654 1.399 . S
C655 C656 1.376 . S
C656 H643 0.930 . S
C656 C655 1.376 . S
C656 C657 1.388 . S
C657 H644 0.930 . S
C657 C656 1.388 . S
C657 C658 1.390 . S
C658 C657 1.390 . S
C658 C659 1.394 . S
C658 C664 1.465 . S
C659 C654 1.399 . S
C659 C658 1.394 . S
C659 C660 1.516 . S
C660 C659 1.516 . S
C660 C661 1.502 . S
C660 C662 1.561 . S
C660 C663 1.526 . S
C661 H645 0.959 . S
C661 H646 0.959 . S
C661 H647 0.961 . S
C661 C660 1.502 . S
C662 H648 0.960 . S
C662 H649 0.961 . S
C662 H650 0.959 . S
C662 C660 1.561 . S
C663 C660 1.526 . S
C663 C664 1.396 . S
C663 C668 1.390 . S
C664 C658 1.465 . S
C664 C663 1.396 . S
C664 C665 1.399 . S
C665 H651 0.929 . S
C665 C664 1.399 . S
C665 C666 1.385 . S
C666 H652 0.931 . S
C666 C665 1.385 . S
C666 C667 1.389 . S
C667 C666 1.389 . S
C667 C668 1.387 . S
C668 H653 0.930 . S
C668 C663 1.390 . S
C668 C667 1.387 . S
H669 C681 0.930 . S
H670 C683 0.930 . S
H671 C684 0.930 . S
H672 C688 0.959 . S
H673 C688 0.959 . S
H674 C688 0.961 . S
H675 C689 0.960 . S
H676 C689 0.961 . S
H677 C689 0.959 . S
H678 C692 0.929 . S
H679 C693 0.931 . S
H680 C695 0.930 . S
C681 H669 0.930 . S
C681 C682 1.399 . S
C681 C686 1.399 . S
C682 C681 1.399 . S
C682 C683 1.376 . S
C683 H670 0.930 . S
C683 C682 1.376 . S
C683 C684 1.388 . S
C684 H671 0.930 . S
C684 C683 1.388 . S
C684 C685 1.390 . S
C685 C684 1.390 . S
C685 C686 1.394 . S
C685 C691 1.465 . S
C686 C681 1.399 . S
C686 C685 1.394 . S
C686 C687 1.516 . S
C687 C686 1.516 . S
C687 C688 1.502 . S
C687 C689 1.561 . S
C687 C690 1.526 . S
C688 H672 0.959 . S
C688 H673 0.959 . S
C688 H674 0.961 . S
C688 C687 1.502 . S
C689 H675 0.960 . S
C689 H676 0.961 . S
C689 H677 0.959 . S
C689 C687 1.561 . S
C690 C687 1.526 . S
C690 C691 1.396 . S
C690 C695 1.390 . S
C691 C685 1.465 . S
C691 C690 1.396 . S
C691 C692 1.399 . S
C692 H678 0.929 . S
C692 C691 1.399 . S
C692 C693 1.385 . S
C693 H679 0.931 . S
C693 C692 1.385 . S
C693 C694 1.389 . S
C694 C693 1.389 . S
C694 C695 1.387 . S
C695 H680 0.930 . S
C695 C690 1.390 . S
C695 C694 1.387 . S
H696 C708 0.930 . S
H697 C710 0.930 . S
H698 C711 0.930 . S
H699 C715 0.959 . S
H700 C715 0.959 . S
H701 C715 0.961 . S
H702 C716 0.960 . S
H703 C716 0.961 . S
H704 C716 0.959 . S
H705 C719 0.929 . S
H706 C720 0.931 . S
H707 C722 0.930 1_556 S
C708 H696 0.930 . S
C708 C709 1.399 . S
C708 C713 1.399 . S
C709 C708 1.399 . S
C709 C710 1.376 1_556 S
C710 H697 0.930 . S
C710 C709 1.376 1_554 S
C710 C711 1.388 . S
C711 H698 0.930 . S
C711 C710 1.388 . S
C711 C712 1.390 . S
C712 C711 1.390 . S
C712 C713 1.394 1_554 S
C712 C718 1.465 . S
C713 C708 1.399 . S
C713 C712 1.394 1_556 S
C713 C714 1.516 . S
C714 C713 1.516 . S
C714 C715 1.502 . S
C714 C716 1.561 1_556 S
C714 C717 1.526 1_556 S
C715 H699 0.959 . S
C715 H700 0.959 . S
C715 H701 0.961 . S
C715 C714 1.502 . S
C716 H702 0.960 . S
C716 H703 0.961 . S
C716 H704 0.959 . S
C716 C714 1.561 1_554 S
C717 C714 1.526 1_554 S
C717 C718 1.396 . S
C717 C722 1.390 . S
C718 C712 1.465 . S
C718 C717 1.396 . S
C718 C719 1.399 . S
C719 H705 0.929 . S
C719 C718 1.399 . S
C719 C720 1.385 . S
C720 H706 0.931 . S
C720 C719 1.385 . S
C720 C721 1.389 . S
C721 C720 1.389 . S
C721 C722 1.387 . S
C722 H707 0.930 1_554 S
C722 C717 1.390 . S
C722 C721 1.387 . S
H723 C735 0.930 . S
H724 C737 0.930 . S
H725 C738 0.930 . S
H726 C742 0.959 . S
H727 C742 0.959 . S
H728 C742 0.961 . S
H729 C743 0.960 . S
H730 C743 0.961 . S
H731 C743 0.959 . S
H732 C746 0.929 . S
H733 C747 0.931 . S
H734 C749 0.930 . S
C735 H723 0.930 . S
C735 C736 1.399 . S
C735 C740 1.399 . S
C736 C735 1.399 . S
C736 C737 1.376 . S
C737 H724 0.930 . S
C737 C736 1.376 . S
C737 C738 1.388 . S
C738 H725 0.930 . S
C738 C737 1.388 . S
C738 C739 1.390 . S
C739 C738 1.390 . S
C739 C740 1.394 . S
C739 C745 1.465 . S
C740 C735 1.399 . S
C740 C739 1.394 . S
C740 C741 1.516 . S
C741 C740 1.516 . S
C741 C742 1.502 . S
C741 C743 1.561 . S
C741 C744 1.526 . S
C742 H726 0.959 . S
C742 H727 0.959 . S
C742 H728 0.961 . S
C742 C741 1.502 . S
C743 H729 0.960 . S
C743 H730 0.961 . S
C743 H731 0.959 . S
C743 C741 1.561 . S
C744 C741 1.526 . S
C744 C745 1.396 . S
C744 C749 1.390 . S
C745 C739 1.465 . S
C745 C744 1.396 . S
C745 C746 1.399 . S
C746 H732 0.929 . S
C746 C745 1.399 . S
C746 C747 1.385 . S
C747 H733 0.931 . S
C747 C746 1.385 . S
C747 C748 1.389 . S
C748 C747 1.389 . S
C748 C749 1.387 . S
C749 H734 0.930 . S
C749 C744 1.390 . S
C749 C748 1.387 . S
H750 C762 0.930 . S
H751 C764 0.930 . S
H752 C765 0.930 . S
H753 C769 0.959 . S
H754 C769 0.959 . S
H755 C769 0.961 . S
H756 C770 0.960 . S
H757 C770 0.961 . S
H758 C770 0.959 . S
H759 C773 0.929 . S
H760 C774 0.931 . S
H761 C776 0.930 . S
C762 H750 0.930 . S
C762 C763 1.399 . S
C762 C767 1.399 . S
C763 C762 1.399 . S
C763 C764 1.376 . S
C764 H751 0.930 . S
C764 C763 1.376 . S
C764 C765 1.388 . S
C765 H752 0.930 . S
C765 C764 1.388 . S
C765 C766 1.390 . S
C766 C765 1.390 . S
C766 C767 1.394 . S
C766 C772 1.465 . S
C767 C762 1.399 . S
C767 C766 1.394 . S
C767 C768 1.516 . S
C768 C767 1.516 . S
C768 C769 1.502 . S
C768 C770 1.561 . S
C768 C771 1.526 . S
C769 H753 0.959 . S
C769 H754 0.959 . S
C769 H755 0.961 . S
C769 C768 1.502 . S
C770 H756 0.960 . S
C770 H757 0.961 . S
C770 H758 0.959 . S
C770 C768 1.561 . S
C771 C768 1.526 . S
C771 C772 1.396 . S
C771 C776 1.390 . S
C772 C766 1.465 . S
C772 C771 1.396 . S
C772 C773 1.399 . S
C773 H759 0.929 . S
C773 C772 1.399 . S
C773 C774 1.385 . S
C774 H760 0.931 . S
C774 C773 1.385 . S
C774 C775 1.389 . S
C775 C774 1.389 . S
C775 C776 1.387 . S
C776 H761 0.930 . S
C776 C771 1.390 . S
C776 C775 1.387 . S
H777 C789 0.930 . S
H778 C791 0.930 . S
H779 C792 0.930 . S
H780 C796 0.959 . S
H781 C796 0.959 . S
H782 C796 0.961 . S
H783 C797 0.960 . S
H784 C797 0.961 . S
H785 C797 0.959 . S
H786 C800 0.929 . S
H787 C801 0.931 . S
H788 C803 0.930 1_554 S
C789 H777 0.930 . S
C789 C790 1.399 . S
C789 C794 1.399 . S
C790 C789 1.399 . S
C790 C791 1.376 1_554 S
C791 H778 0.930 . S
C791 C790 1.376 1_556 S
C791 C792 1.388 . S
C792 H779 0.930 . S
C792 C791 1.388 . S
C792 C793 1.390 . S
C793 C792 1.390 . S
C793 C794 1.394 1_556 S
C793 C799 1.465 . S
C794 C789 1.399 . S
C794 C793 1.394 1_554 S
C794 C795 1.516 . S
C795 C794 1.516 . S
C795 C796 1.502 . S
C795 C797 1.561 1_554 S
C795 C798 1.526 1_554 S
C796 H780 0.959 . S
C796 H781 0.959 . S
C796 H782 0.961 . S
C796 C795 1.502 . S
C797 H783 0.960 . S
C797 H784 0.961 . S
C797 H785 0.959 . S
C797 C795 1.561 1_556 S
C798 C795 1.526 1_556 S
C798 C799 1.396 . S
C798 C803 1.390 . S
C799 C793 1.465 . S
C799 C798 1.396 . S
C799 C800 1.399 . S
C800 H786 0.929 . S
C800 C799 1.399 . S
C800 C801 1.385 . S
C801 H787 0.931 . S
C801 C800 1.385 . S
C801 C802 1.389 . S
C802 C801 1.389 . S
C802 C803 1.387 . S
C803 H788 0.930 1_556 S
C803 C798 1.390 . S
C803 C802 1.387 . S
C169 C3 1.386 . S
C181 C122 1.389 . S
C196 C16 1.420 . S
C208 C135 1.361 . S
C223 C29 1.415 . S
C235 C148 1.367 . S
C250 C42 1.401 . S
C262 C81 1.384 . S
C277 C94 1.386 . S
C289 C57 1.389 . S
C304 C109 1.419 . S
C316 C68 1.361 . S
C331 C140 1.840 . S
C343 C4 1.826 . S
C358 C17 1.838 . S
C370 C153 1.859 . S
C385 C30 1.860 . S
C397 C82 1.864 . S
C412 C43 1.843 . S
C424 C95 1.862 . S
C439 C62 1.840 . S
C451 C114 1.826 . S
C466 C69 1.841 . S
C478 C127 1.826 . S
C493 C134 0.989 . S
C505 C10 0.985 . S
C520 C23 0.994 . S
C532 C147 0.988 . S
C547 C36 0.987 . S
C559 C88 0.985 . S
C574 C49 0.988 . S
C586 C101 0.985 . S
C601 C56 0.985 . S
C613 C108 0.992 . S
C628 C75 0.990 . S
C640 C121 0.994 . S
C655 C5 1.719 . S
C667 C83 1.710 . S
C682 C96 1.720 . S
C694 C18 1.710 . S
C709 C31 1.727 . S
C721 C107 1.720 . S
C736 C44 1.726 . S
C748 C120 1.712 . S
C763 C55 1.718 . S
C775 C133 1.728 . S
C790 C146 1.727 . S
C802 C70 1.721 . S
