# Generated by pormake.
# Topology snv-x, (7)-cn, num edge types: 1
# Building blocks:
#     Node 0, Type 0, BuildingBlock: NUHQUE_clean_sbu_2, # of connection points: 7
#     Node 1, Type 0, BuildingBlock: NUHQUE_clean_sbu_2, # of connection points: 7
#     Node 2, Type 0, BuildingBlock: NUHQUE_clean_sbu_2, # of connection points: 7
#     Node 3, Type 0, BuildingBlock: NUHQUE_clean_sbu_2, # of connection points: 7
#     Node 4, Type 0, BuildingBlock: NUHQUE_clean_sbu_2, # of connection points: 7
#     Node 5, Type 0, BuildingBlock: NUHQUE_clean_sbu_2, # of connection points: 7
#     Node 6, Type 0, BuildingBlock: NUHQUE_clean_sbu_2, # of connection points: 7
#     Node 7, Type 0, BuildingBlock: NUHQUE_clean_sbu_2, # of connection points: 7
#     Node 8, Type 0, BuildingBlock: NUHQUE_clean_sbu_2, # of connection points: 7
#     Node 9, Type 0, BuildingBlock: NUHQUE_clean_sbu_2, # of connection points: 7
#     Node 10, Type 0, BuildingBlock: NUHQUE_clean_sbu_2, # of connection points: 7
#     Node 11, Type 0, BuildingBlock: NUHQUE_clean_sbu_2, # of connection points: 7
#     Node 12, Type 0, BuildingBlock: NUHQUE_clean_sbu_2, # of connection points: 7
#     Node 13, Type 0, BuildingBlock: NUHQUE_clean_sbu_2, # of connection points: 7
#     Node 14, Type 0, BuildingBlock: NUHQUE_clean_sbu_2, # of connection points: 7
#     Node 15, Type 0, BuildingBlock: NUHQUE_clean_sbu_2, # of connection points: 7
#     Node 16, Type 0, BuildingBlock: NUHQUE_clean_sbu_2, # of connection points: 7
#     Node 17, Type 0, BuildingBlock: NUHQUE_clean_sbu_2, # of connection points: 7
#     Node 18, Type 0, BuildingBlock: NUHQUE_clean_sbu_2, # of connection points: 7
#     Node 19, Type 0, BuildingBlock: NUHQUE_clean_sbu_2, # of connection points: 7
#     Node 20, Type 0, BuildingBlock: NUHQUE_clean_sbu_2, # of connection points: 7
#     Node 21, Type 0, BuildingBlock: NUHQUE_clean_sbu_2, # of connection points: 7
#     Node 22, Type 0, BuildingBlock: NUHQUE_clean_sbu_2, # of connection points: 7
#     Node 23, Type 0, BuildingBlock: NUHQUE_clean_sbu_2, # of connection points: 7
#     Edge 24, Type (0, 0), BuildingBlock: XUDNAN_clean_linker_2, # of connection points: 2
#     Edge 25, Type (0, 0), BuildingBlock: XUDNAN_clean_linker_2, # of connection points: 2
#     Edge 26, Type (0, 0), BuildingBlock: XUDNAN_clean_linker_2, # of connection points: 2
#     Edge 27, Type (0, 0), BuildingBlock: XUDNAN_clean_linker_2, # of connection points: 2
#     Edge 28, Type (0, 0), BuildingBlock: XUDNAN_clean_linker_2, # of connection points: 2
#     Edge 29, Type (0, 0), BuildingBlock: XUDNAN_clean_linker_2, # of connection points: 2
#     Edge 30, Type (0, 0), BuildingBlock: XUDNAN_clean_linker_2, # of connection points: 2
#     Edge 31, Type (0, 0), BuildingBlock: XUDNAN_clean_linker_2, # of connection points: 2
#     Edge 32, Type (0, 0), BuildingBlock: XUDNAN_clean_linker_2, # of connection points: 2
#     Edge 33, Type (0, 0), BuildingBlock: XUDNAN_clean_linker_2, # of connection points: 2
#     Edge 34, Type (0, 0), BuildingBlock: XUDNAN_clean_linker_2, # of connection points: 2
#     Edge 35, Type (0, 0), BuildingBlock: XUDNAN_clean_linker_2, # of connection points: 2
#     Edge 36, Type (0, 0), BuildingBlock: XUDNAN_clean_linker_2, # of connection points: 2
#     Edge 37, Type (0, 0), BuildingBlock: XUDNAN_clean_linker_2, # of connection points: 2
#     Edge 38, Type (0, 0), BuildingBlock: XUDNAN_clean_linker_2, # of connection points: 2
#     Edge 39, Type (0, 0), BuildingBlock: XUDNAN_clean_linker_2, # of connection points: 2
#     Edge 40, Type (0, 0), BuildingBlock: XUDNAN_clean_linker_2, # of connection points: 2
#     Edge 41, Type (0, 0), BuildingBlock: XUDNAN_clean_linker_2, # of connection points: 2
#     Edge 42, Type (0, 0), BuildingBlock: XUDNAN_clean_linker_2, # of connection points: 2
#     Edge 43, Type (0, 0), BuildingBlock: XUDNAN_clean_linker_2, # of connection points: 2
#     Edge 44, Type (0, 0), BuildingBlock: XUDNAN_clean_linker_2, # of connection points: 2
#     Edge 45, Type (0, 0), BuildingBlock: XUDNAN_clean_linker_2, # of connection points: 2
#     Edge 46, Type (0, 0), BuildingBlock: XUDNAN_clean_linker_2, # of connection points: 2
#     Edge 47, Type (0, 0), BuildingBlock: XUDNAN_clean_linker_2, # of connection points: 2
#     Edge 48, Type (0, 0), BuildingBlock: XUDNAN_clean_linker_2, # of connection points: 2
#     Edge 49, Type (0, 0), BuildingBlock: XUDNAN_clean_linker_2, # of connection points: 2
#     Edge 50, Type (0, 0), BuildingBlock: XUDNAN_clean_linker_2, # of connection points: 2
#     Edge 51, Type (0, 0), BuildingBlock: XUDNAN_clean_linker_2, # of connection points: 2
#     Edge 52, Type (0, 0), BuildingBlock: XUDNAN_clean_linker_2, # of connection points: 2
#     Edge 53, Type (0, 0), BuildingBlock: XUDNAN_clean_linker_2, # of connection points: 2
#     Edge 54, Type (0, 0), BuildingBlock: XUDNAN_clean_linker_2, # of connection points: 2
#     Edge 55, Type (0, 0), BuildingBlock: XUDNAN_clean_linker_2, # of connection points: 2
#     Edge 56, Type (0, 0), BuildingBlock: XUDNAN_clean_linker_2, # of connection points: 2
#     Edge 57, Type (0, 0), BuildingBlock: XUDNAN_clean_linker_2, # of connection points: 2
#     Edge 58, Type (0, 0), BuildingBlock: XUDNAN_clean_linker_2, # of connection points: 2
#     Edge 59, Type (0, 0), BuildingBlock: XUDNAN_clean_linker_2, # of connection points: 2
#     Edge 60, Type (0, 0), BuildingBlock: XUDNAN_clean_linker_2, # of connection points: 2
#     Edge 61, Type (0, 0), BuildingBlock: XUDNAN_clean_linker_2, # of connection points: 2
#     Edge 62, Type (0, 0), BuildingBlock: XUDNAN_clean_linker_2, # of connection points: 2
#     Edge 63, Type (0, 0), BuildingBlock: XUDNAN_clean_linker_2, # of connection points: 2
#     Edge 64, Type (0, 0), BuildingBlock: XUDNAN_clean_linker_2, # of connection points: 2
#     Edge 65, Type (0, 0), BuildingBlock: XUDNAN_clean_linker_2, # of connection points: 2
#     Edge 66, Type (0, 0), BuildingBlock: XUDNAN_clean_linker_2, # of connection points: 2
#     Edge 67, Type (0, 0), BuildingBlock: XUDNAN_clean_linker_2, # of connection points: 2
#     Edge 68, Type (0, 0), BuildingBlock: XUDNAN_clean_linker_2, # of connection points: 2
#     Edge 69, Type (0, 0), BuildingBlock: XUDNAN_clean_linker_2, # of connection points: 2
#     Edge 70, Type (0, 0), BuildingBlock: XUDNAN_clean_linker_2, # of connection points: 2
#     Edge 71, Type (0, 0), BuildingBlock: XUDNAN_clean_linker_2, # of connection points: 2
#     Edge 72, Type (0, 0), BuildingBlock: XUDNAN_clean_linker_2, # of connection points: 2
#     Edge 73, Type (0, 0), BuildingBlock: XUDNAN_clean_linker_2, # of connection points: 2
#     Edge 74, Type (0, 0), BuildingBlock: XUDNAN_clean_linker_2, # of connection points: 2
#     Edge 75, Type (0, 0), BuildingBlock: XUDNAN_clean_linker_2, # of connection points: 2
#     Edge 76, Type (0, 0), BuildingBlock: XUDNAN_clean_linker_2, # of connection points: 2
#     Edge 77, Type (0, 0), BuildingBlock: XUDNAN_clean_linker_2, # of connection points: 2
#     Edge 78, Type (0, 0), BuildingBlock: XUDNAN_clean_linker_2, # of connection points: 2
#     Edge 79, Type (0, 0), BuildingBlock: XUDNAN_clean_linker_2, # of connection points: 2
#     Edge 80, Type (0, 0), BuildingBlock: XUDNAN_clean_linker_2, # of connection points: 2
#     Edge 81, Type (0, 0), BuildingBlock: XUDNAN_clean_linker_2, # of connection points: 2
#     Edge 82, Type (0, 0), BuildingBlock: XUDNAN_clean_linker_2, # of connection points: 2
#     Edge 83, Type (0, 0), BuildingBlock: XUDNAN_clean_linker_2, # of connection points: 2
#     Edge 84, Type (0, 0), BuildingBlock: XUDNAN_clean_linker_2, # of connection points: 2
#     Edge 85, Type (0, 0), BuildingBlock: XUDNAN_clean_linker_2, # of connection points: 2
#     Edge 86, Type (0, 0), BuildingBlock: XUDNAN_clean_linker_2, # of connection points: 2
#     Edge 87, Type (0, 0), BuildingBlock: XUDNAN_clean_linker_2, # of connection points: 2
#     Edge 88, Type (0, 0), BuildingBlock: XUDNAN_clean_linker_2, # of connection points: 2
#     Edge 89, Type (0, 0), BuildingBlock: XUDNAN_clean_linker_2, # of connection points: 2
#     Edge 90, Type (0, 0), BuildingBlock: XUDNAN_clean_linker_2, # of connection points: 2
#     Edge 91, Type (0, 0), BuildingBlock: XUDNAN_clean_linker_2, # of connection points: 2
#     Edge 92, Type (0, 0), BuildingBlock: XUDNAN_clean_linker_2, # of connection points: 2
#     Edge 93, Type (0, 0), BuildingBlock: XUDNAN_clean_linker_2, # of connection points: 2
#     Edge 94, Type (0, 0), BuildingBlock: XUDNAN_clean_linker_2, # of connection points: 2
#     Edge 95, Type (0, 0), BuildingBlock: XUDNAN_clean_linker_2, # of connection points: 2
#     Edge 96, Type (0, 0), BuildingBlock: XUDNAN_clean_linker_2, # of connection points: 2
#     Edge 97, Type (0, 0), BuildingBlock: XUDNAN_clean_linker_2, # of connection points: 2
#     Edge 98, Type (0, 0), BuildingBlock: XUDNAN_clean_linker_2, # of connection points: 2
#     Edge 99, Type (0, 0), BuildingBlock: XUDNAN_clean_linker_2, # of connection points: 2
#     Edge 100, Type (0, 0), BuildingBlock: XUDNAN_clean_linker_2, # of connection points: 2
#     Edge 101, Type (0, 0), BuildingBlock: XUDNAN_clean_linker_2, # of connection points: 2
#     Edge 102, Type (0, 0), BuildingBlock: XUDNAN_clean_linker_2, # of connection points: 2
#     Edge 103, Type (0, 0), BuildingBlock: XUDNAN_clean_linker_2, # of connection points: 2
#     Edge 104, Type (0, 0), BuildingBlock: XUDNAN_clean_linker_2, # of connection points: 2
#     Edge 105, Type (0, 0), BuildingBlock: XUDNAN_clean_linker_2, # of connection points: 2
#     Edge 106, Type (0, 0), BuildingBlock: XUDNAN_clean_linker_2, # of connection points: 2
#     Edge 107, Type (0, 0), BuildingBlock: XUDNAN_clean_linker_2, # of connection points: 2
# Relax obj value: 0.188
# Max RMSD: 0.251
# Mean RMSD: 0.251
data_MOF--net-snv-x--node1-NUHQUE_clean_sbu_2--edge1-XUDNAN_clean_linker_2
_symmetry_space_group_name_H-M    P1
_symmetry_Int_Tables_number       1
_symmetry_cell_setting            triclinic
loop_
_symmetry_equiv_pos_as_xyz
'x, y, z'
_cell_length_a     54.751661
_cell_length_b     54.844023
_cell_length_c     54.970599
_cell_angle_alpha  89.992579
_cell_angle_beta   89.938089
_cell_angle_gamma 90.259756
loop_
_atom_site_label
_atom_site_type_symbol
_atom_site_fract_x
_atom_site_fract_y
_atom_site_fract_z
_atom_type_partial_charge
O0 O 0.12111 0.42338 0.25844 0.0
Tb1 Tb 0.08725 0.42149 0.28118 0.0
Eu2 Eu 0.11123 0.40545 0.33977 0.0
C3 C 0.12199 0.43223 0.23583 0.0
O4 O 0.10181 0.43333 0.22307 0.0
C5 C 0.1002 0.45747 0.32367 0.0
O6 O 0.12544 0.38762 0.37379 0.0
C7 C 0.13892 0.39605 0.3028 0.0
C8 C 0.11441 0.39209 0.39454 0.0
O9 O 0.09594 0.40731 0.3947 0.0
C10 C 0.0602 0.38339 0.3196 0.0
C11 C 0.15746 0.37798 0.29657 0.0
C12 C 0.17214 0.38165 0.27593 0.0
C13 C 0.19008 0.36459 0.26994 0.0
C14 C 0.19282 0.34362 0.2842 0.0
C15 C 0.17806 0.33959 0.30467 0.0
C16 C 0.16058 0.35707 0.31107 0.0
O17 O 0.10789 0.44737 0.30343 0.0
O18 O 0.09955 0.44422 0.34339 0.0
O19 O 0.06366 0.42936 0.24999 0.0
O20 O 0.06329 0.45283 0.28085 0.0
C21 C 0.0547 0.44929 0.25911 0.0
O22 O 0.07366 0.38977 0.33839 0.0
O23 O 0.06575 0.38987 0.29672 0.0
O24 O 0.14498 0.41184 0.31979 0.0
O25 O 0.11655 0.38757 0.30502 0.0
H26 H 0.16992 0.39787 0.26487 0.0
H27 H 0.20682 0.3305 0.27946 0.0
H28 H 0.14922 0.35428 0.32701 0.0
O29 O 0.5873 0.14597 0.25316 0.0
Tb30 Tb 0.59558 0.11959 0.28348 0.0
Eu31 Eu 0.61499 0.13088 0.34436 0.0
C32 C 0.56383 0.15183 0.24932 0.0
O33 O 0.54744 0.14098 0.26309 0.0
C34 C 0.56264 0.137 0.32575 0.0
O35 O 0.62213 0.13552 0.38457 0.0
C36 C 0.63239 0.16604 0.31791 0.0
C37 C 0.64337 0.13207 0.39522 0.0
O38 O 0.66222 0.12512 0.38219 0.0
C39 C 0.63652 0.08677 0.31362 0.0
C40 C 0.65563 0.17439 0.30764 0.0
C41 C 0.65546 0.18581 0.28491 0.0
C42 C 0.67669 0.1968 0.27564 0.0
C43 C 0.69832 0.19554 0.28936 0.0
C44 C 0.69893 0.18345 0.31197 0.0
C45 C 0.67745 0.1725 0.32077 0.0
O46 O 0.57445 0.14464 0.30638 0.0
O47 O 0.57472 0.12745 0.34379 0.0
O48 O 0.57938 0.09436 0.25767 0.0
O49 O 0.56973 0.09207 0.29541 0.0
C50 C 0.56634 0.08289 0.27385 0.0
O51 O 0.63071 0.09484 0.33538 0.0
O52 O 0.63034 0.09859 0.29289 0.0
O53 O 0.62974 0.16761 0.34162 0.0
O54 O 0.62353 0.14589 0.30873 0.0
H55 H 0.63847 0.1868 0.27484 0.0
H56 H 0.71426 0.20562 0.2833 0.0
H57 H 0.67743 0.16332 0.33823 0.0
O58 O 0.88691 0.576 0.2626 0.0
Tb59 Tb 0.92137 0.58747 0.28167 0.0
Eu60 Eu 0.89001 0.60318 0.33001 0.0
C61 C 0.88199 0.55245 0.25838 0.0
O62 O 0.89629 0.53611 0.26836 0.0
C63 C 0.91124 0.54934 0.32464 0.0
O64 O 0.87391 0.62087 0.36337 0.0
C65 C 0.86585 0.61626 0.29162 0.0
C66 C 0.88091 0.61274 0.38475 0.0
O67 O 0.89586 0.59406 0.38546 0.0
C68 C 0.94301 0.62627 0.32008 0.0
C69 C 0.85049 0.63697 0.2849 0.0
C70 C 0.83391 0.63489 0.26548 0.0
C71 C 0.81819 0.65429 0.25988 0.0
C72 C 0.81931 0.67558 0.27407 0.0
C73 C 0.83571 0.67776 0.29357 0.0
C74 C 0.85127 0.65832 0.29892 0.0
O75 O 0.92524 0.55714 0.30676 0.0
O76 O 0.89416 0.56284 0.33462 0.0
O77 O 0.95554 0.5708 0.27154 0.0
O78 O 0.9345 0.58765 0.24381 0.0
C79 C 0.95457 0.57605 0.24859 0.0
O80 O 0.92783 0.61833 0.33686 0.0
O81 O 0.93873 0.62134 0.29671 0.0
O82 O 0.85672 0.60195 0.30855 0.0
O83 O 0.8892 0.62099 0.29466 0.0
H84 H 0.83311 0.61818 0.25498 0.0
H85 H 0.80638 0.69012 0.27072 0.0
H86 H 0.86374 0.65963 0.31418 0.0
O87 O 0.44247 0.88029 0.25078 0.0
Tb88 Tb 0.43381 0.90176 0.28452 0.0
Eu89 Eu 0.41834 0.88576 0.34535 0.0
C90 C 0.45205 0.8579 0.25086 0.0
O91 O 0.44957 0.84449 0.27049 0.0
C92 C 0.46896 0.8814 0.32401 0.0
O93 O 0.40283 0.8823 0.38308 0.0
C94 C 0.40179 0.85203 0.31667 0.0
C95 C 0.37907 0.88083 0.38617 0.0
O96 O 0.36477 0.88183 0.36703 0.0
C97 C 0.39555 0.93209 0.31811 0.0
C98 C 0.37928 0.84037 0.30822 0.0
C99 C 0.37782 0.83406 0.28359 0.0
C100 C 0.35659 0.82347 0.27433 0.0
C101 C 0.33658 0.81937 0.28968 0.0
C102 C 0.3379 0.82531 0.31453 0.0
C103 C 0.35945 0.8357 0.32382 0.0
O104 O 0.45495 0.87544 0.30557 0.0
O105 O 0.45875 0.8881 0.34441 0.0
O106 O 0.44786 0.9289 0.25955 0.0
O107 O 0.46009 0.92898 0.29655 0.0
C108 C 0.46191 0.9395 0.27537 0.0
O109 O 0.40478 0.92346 0.3384 0.0
O110 O 0.39924 0.92111 0.2965 0.0
O111 O 0.40904 0.84763 0.33903 0.0
O112 O 0.40479 0.87475 0.30997 0.0
H113 H 0.39333 0.83714 0.27165 0.0
H114 H 0.32035 0.81056 0.28247 0.0
H115 H 0.3607 0.84009 0.34298 0.0
O116 O 0.13283 0.58765 0.76019 0.0
Tb117 Tb 0.10692 0.59151 0.72868 0.0
Eu118 Eu 0.12183 0.60698 0.66688 0.0
C119 C 0.15509 0.57772 0.75885 0.0
O120 O 0.16571 0.57609 0.73751 0.0
C121 C 0.12046 0.55534 0.68762 0.0
O122 O 0.12481 0.61487 0.62648 0.0
C123 C 0.158 0.62002 0.69449 0.0
C124 C 0.13386 0.63481 0.61648 0.0
O125 O 0.14301 0.65206 0.63032 0.0
C126 C 0.0759 0.63171 0.6944 0.0
C127 C 0.17035 0.64206 0.70308 0.0
C128 C 0.18335 0.64129 0.72506 0.0
C129 C 0.19479 0.66236 0.73402 0.0
C130 C 0.19331 0.68401 0.72052 0.0
C131 C 0.18031 0.68501 0.69855 0.0
C132 C 0.16865 0.66393 0.69 0.0
O133 O 0.12943 0.56724 0.70634 0.0
O134 O 0.11306 0.56753 0.66868 0.0
O135 O 0.08106 0.56211 0.72282 0.0
O136 O 0.08367 0.57816 0.75808 0.0
C137 C 0.07322 0.56129 0.74513 0.0
O138 O 0.08748 0.62699 0.67395 0.0
O139 O 0.08353 0.62358 0.71633 0.0
O140 O 0.16067 0.61435 0.67137 0.0
O141 O 0.13561 0.61713 0.70244 0.0
H142 H 0.18442 0.62438 0.73522 0.0
H143 H 0.20342 0.69994 0.72656 0.0
H144 H 0.15843 0.6645 0.67318 0.0
O145 O 0.45441 0.14048 0.75891 0.0
Tb146 Tb 0.44255 0.12121 0.72467 0.0
Eu147 Eu 0.41397 0.13848 0.66906 0.0
C148 C 0.47791 0.14696 0.76147 0.0
O149 O 0.49325 0.13913 0.74486 0.0
C150 C 0.46312 0.15703 0.68623 0.0
O151 O 0.39681 0.14003 0.63155 0.0
C152 C 0.39357 0.16603 0.70147 0.0
C153 C 0.37324 0.13661 0.62816 0.0
O154 O 0.35921 0.13226 0.64706 0.0
C155 C 0.40269 0.08821 0.69628 0.0
C156 C 0.37072 0.17216 0.71357 0.0
C157 C 0.37194 0.18487 0.73554 0.0
C158 C 0.35082 0.19462 0.74607 0.0
C159 C 0.32822 0.19051 0.73454 0.0
C160 C 0.32665 0.17679 0.71288 0.0
C161 C 0.34816 0.16735 0.70274 0.0
O162 O 0.45117 0.15602 0.70698 0.0
O163 O 0.45344 0.14714 0.66684 0.0
O164 O 0.46598 0.09165 0.73601 0.0
O165 O 0.46687 0.10313 0.69893 0.0
C166 C 0.47522 0.08744 0.71459 0.0
O167 O 0.40875 0.0987 0.67559 0.0
O168 O 0.40842 0.09852 0.71782 0.0
O169 O 0.39602 0.17244 0.67854 0.0
O170 O 0.40266 0.14462 0.70643 0.0
H171 H 0.38963 0.18794 0.74387 0.0
H172 H 0.31211 0.19954 0.74146 0.0
H173 H 0.34757 0.15711 0.68593 0.0
O174 O 0.88489 0.43117 0.7601 0.0
Tb175 Tb 0.91533 0.418 0.73671 0.0
Eu176 Eu 0.87794 0.39198 0.69913 0.0
C177 C 0.88184 0.45514 0.7627 0.0
O178 O 0.89643 0.46972 0.75044 0.0
C179 C 0.88663 0.44812 0.69821 0.0
O180 O 0.85959 0.3811 0.66422 0.0
C181 C 0.86163 0.36844 0.73657 0.0
C182 C 0.86453 0.36036 0.65333 0.0
O183 O 0.87933 0.34485 0.66391 0.0
C184 C 0.93191 0.37379 0.70437 0.0
C185 C 0.86573 0.34453 0.74782 0.0
C186 C 0.86071 0.34164 0.77257 0.0
C187 C 0.86216 0.31856 0.7834 0.0
C188 C 0.87125 0.29902 0.76953 0.0
C189 C 0.8725 0.30057 0.74391 0.0
C190 C 0.87124 0.32407 0.7335 0.0
O191 O 0.90847 0.44295 0.70661 0.0
O192 O 0.86921 0.43169 0.69846 0.0
O193 O 0.95028 0.43581 0.73268 0.0
O194 O 0.93793 0.42696 0.76841 0.0
C195 C 0.95563 0.43636 0.75564 0.0
O196 O 0.91567 0.38001 0.68801 0.0
O197 O 0.92883 0.38102 0.72718 0.0
O198 O 0.85058 0.36835 0.71533 0.0
O199 O 0.87987 0.384 0.73788 0.0
H200 H 0.85351 0.35698 0.7827 0.0
H201 H 0.87387 0.28181 0.77868 0.0
H202 H 0.87256 0.32668 0.71408 0.0
O203 O 0.55713 0.88149 0.7627 0.0
Tb204 Tb 0.57559 0.89727 0.72964 0.0
Eu205 Eu 0.62107 0.87787 0.67792 0.0
C206 C 0.55571 0.85788 0.76857 0.0
O207 O 0.56957 0.84232 0.75685 0.0
C208 C 0.56995 0.85962 0.68926 0.0
O209 O 0.63993 0.8823 0.64144 0.0
C210 C 0.6478 0.85608 0.71001 0.0
C211 C 0.63122 0.89892 0.62657 0.0
O212 O 0.61284 0.91225 0.63415 0.0
C213 C 0.61896 0.93031 0.70663 0.0
C214 C 0.67238 0.85921 0.72054 0.0
C215 C 0.67548 0.85598 0.74564 0.0
C216 C 0.69879 0.85772 0.75604 0.0
C217 C 0.71845 0.8651 0.74128 0.0
C218 C 0.71671 0.864 0.71571 0.0
C219 C 0.69303 0.8626 0.70561 0.0
O220 O 0.5801 0.86327 0.71055 0.0
O221 O 0.58435 0.86168 0.67047 0.0
O222 O 0.54504 0.92176 0.7342 0.0
O223 O 0.55668 0.91329 0.69836 0.0
C224 C 0.54117 0.92569 0.71125 0.0
O225 O 0.61801 0.91824 0.68578 0.0
O226 O 0.60857 0.92187 0.7273 0.0
O227 O 0.64656 0.84914 0.68712 0.0
O228 O 0.63175 0.87286 0.71576 0.0
H229 H 0.66001 0.85027 0.75661 0.0
H230 H 0.73585 0.86818 0.75002 0.0
H231 H 0.6904 0.86246 0.68617 0.0
O232 O 0.26134 0.12104 0.45267 0.0
Tb233 Tb 0.2971 0.10948 0.4375 0.0
Eu234 Eu 0.34294 0.13455 0.40128 0.0
C235 C 0.25391 0.14408 0.45202 0.0
O236 O 0.26493 0.15923 0.43706 0.0
C237 C 0.33336 0.14744 0.45339 0.0
O238 O 0.37466 0.14217 0.37658 0.0
C239 C 0.30415 0.15809 0.38785 0.0
C240 C 0.39299 0.12692 0.37791 0.0
O241 O 0.39141 0.10858 0.39323 0.0
C242 C 0.3225 0.07908 0.3951 0.0
C243 C 0.29422 0.16995 0.36619 0.0
C244 C 0.2728 0.18374 0.36837 0.0
C245 C 0.2644 0.19769 0.34871 0.0
C246 C 0.2777 0.1974 0.32685 0.0
C247 C 0.29907 0.18353 0.32432 0.0
C248 C 0.30726 0.16974 0.34418 0.0
O249 O 0.31217 0.14575 0.44238 0.0
O250 O 0.35222 0.14098 0.44042 0.0
O251 O 0.2964 0.08838 0.47087 0.0
O252 O 0.33064 0.09575 0.45384 0.0
C253 C 0.31996 0.08609 0.47254 0.0
O254 O 0.34168 0.09359 0.39711 0.0
O255 O 0.30085 0.08528 0.40474 0.0
O256 O 0.32351 0.16869 0.39724 0.0
O257 O 0.30564 0.13421 0.38742 0.0
H258 H 0.26312 0.18415 0.38559 0.0
H259 H 0.27231 0.20942 0.31219 0.0
H260 H 0.32408 0.15947 0.34283 0.0
O261 O 0.86326 0.256 0.45439 0.0
Tb262 Tb 0.88739 0.28719 0.44477 0.0
Eu263 Eu 0.88495 0.34634 0.42879 0.0
C264 C 0.86135 0.25091 0.47802 0.0
O265 O 0.87454 0.26395 0.49317 0.0
C266 C 0.86777 0.33063 0.48029 0.0
O267 O 0.89444 0.38394 0.41562 0.0
C268 C 0.84946 0.32812 0.4035 0.0
C269 C 0.9071 0.38541 0.39534 0.0
O270 O 0.91347 0.36517 0.38431 0.0
C271 C 0.92061 0.31091 0.4056 0.0
C272 C 0.84587 0.31427 0.3808 0.0
C273 C 0.83738 0.29014 0.38236 0.0
C274 C 0.83021 0.27724 0.36147 0.0
C275 C 0.83353 0.28842 0.33864 0.0
C276 C 0.84285 0.31222 0.33672 0.0
C277 C 0.84868 0.32525 0.35786 0.0
O278 O 0.86557 0.30829 0.47135 0.0
O279 O 0.87731 0.34886 0.46807 0.0
O280 O 0.91471 0.26072 0.45493 0.0
O281 O 0.91953 0.29821 0.46502 0.0
C282 C 0.92901 0.27646 0.46544 0.0
O283 O 0.92069 0.32942 0.42042 0.0
O284 O 0.90238 0.2948 0.40741 0.0
O285 O 0.85636 0.35103 0.40178 0.0
O286 O 0.85998 0.31641 0.4214 0.0
H287 H 0.83539 0.28184 0.40014 0.0
H288 H 0.82714 0.27949 0.32226 0.0
H289 H 0.85484 0.344 0.35637 0.0
O290 O 0.76111 0.8875 0.44157 0.0
Tb291 Tb 0.72647 0.90512 0.4292 0.0
Eu292 Eu 0.67836 0.88223 0.39957 0.0
C293 C 0.76283 0.86369 0.44626 0.0
O294 O 0.74513 0.84924 0.43897 0.0
C295 C 0.68194 0.88262 0.45543 0.0
O296 O 0.6461 0.86877 0.37852 0.0
C297 C 0.71599 0.85492 0.392 0.0
C298 C 0.64309 0.87314 0.35524 0.0
O299 O 0.66042 0.88425 0.34288 0.0
C300 C 0.70121 0.93403 0.3846 0.0
C301 C 0.72232 0.83853 0.37209 0.0
C302 C 0.74459 0.82607 0.37221 0.0
C303 C 0.75077 0.81096 0.35259 0.0
C304 C 0.73433 0.80834 0.33314 0.0
C305 C 0.712 0.82079 0.33285 0.0
C306 C 0.70606 0.83579 0.35254 0.0
O307 O 0.70485 0.87818 0.44977 0.0
O308 O 0.66703 0.88829 0.43788 0.0
O309 O 0.73838 0.93336 0.45425 0.0
O310 O 0.70049 0.92976 0.44534 0.0
C311 C 0.71644 0.94165 0.45805 0.0
O312 O 0.68116 0.92104 0.38743 0.0
O313 O 0.72248 0.92642 0.39414 0.0
O314 O 0.69731 0.84798 0.40539 0.0
O315 O 0.71534 0.87806 0.38604 0.0
H316 H 0.75707 0.82824 0.38737 0.0
H317 H 0.73857 0.7958 0.3185 0.0
H318 H 0.68891 0.84553 0.35261 0.0
O319 O 0.13405 0.76054 0.45805 0.0
Tb320 Tb 0.10983 0.72838 0.45079 0.0
Eu321 Eu 0.12608 0.67256 0.38737 0.0
C322 C 0.14674 0.76084 0.47875 0.0
O323 O 0.14488 0.74156 0.49273 0.0
C324 C 0.13984 0.67901 0.44214 0.0
O325 O 0.10715 0.63666 0.37955 0.0
C326 C 0.15793 0.68283 0.35407 0.0
C327 C 0.09679 0.63287 0.35828 0.0
O328 O 0.09492 0.65116 0.34302 0.0
C329 C 0.08369 0.7097 0.40429 0.0
C330 C 0.16891 0.70346 0.34077 0.0
C331 C 0.18289 0.72169 0.35231 0.0
C332 C 0.19425 0.74014 0.33843 0.0
C333 C 0.19096 0.74023 0.31302 0.0
C334 C 0.17719 0.72211 0.30143 0.0
C335 C 0.16621 0.70383 0.31541 0.0
O336 O 0.13608 0.70206 0.43591 0.0
O337 O 0.1413 0.66292 0.42435 0.0
O338 O 0.08893 0.73936 0.48265 0.0
O339 O 0.10259 0.70332 0.48063 0.0
C340 C 0.09071 0.71866 0.49397 0.0
O341 O 0.10692 0.70652 0.3995 0.0
O342 O 0.07934 0.72323 0.42383 0.0
O343 O 0.13472 0.67887 0.34954 0.0
O344 O 0.16402 0.67918 0.37695 0.0
H345 H 0.18539 0.72121 0.37185 0.0
H346 H 0.20081 0.75326 0.30184 0.0
H347 H 0.15607 0.68939 0.3064 0.0
O348 O 0.26352 0.89661 0.57091 0.0
Tb349 Tb 0.29879 0.91099 0.58599 0.0
Eu350 Eu 0.34951 0.88772 0.6127 0.0
C351 C 0.25836 0.8728 0.57032 0.0
O352 O 0.27257 0.858 0.58252 0.0
C353 C 0.33762 0.87954 0.55985 0.0
O354 O 0.38247 0.87992 0.63576 0.0
C355 C 0.31303 0.85961 0.62402 0.0
C356 C 0.40409 0.88665 0.62778 0.0
O357 O 0.40566 0.89751 0.60652 0.0
C358 C 0.32567 0.93824 0.62934 0.0
C359 C 0.30081 0.84946 0.64524 0.0
C360 C 0.27946 0.83587 0.64191 0.0
C361 C 0.26818 0.82423 0.66164 0.0
C362 C 0.27858 0.82687 0.68491 0.0
C363 C 0.29964 0.84129 0.68859 0.0
C364 C 0.31057 0.8527 0.6685 0.0
O365 O 0.31607 0.8785 0.57045 0.0
O366 O 0.35644 0.88642 0.57282 0.0
O367 O 0.29325 0.94477 0.56617 0.0
O368 O 0.3291 0.92969 0.56852 0.0
C369 C 0.31627 0.94788 0.56082 0.0
O370 O 0.34602 0.92697 0.62356 0.0
O371 O 0.30392 0.92951 0.62218 0.0
O372 O 0.33501 0.85134 0.61929 0.0
O373 O 0.31111 0.88318 0.62135 0.0
H374 H 0.27193 0.83403 0.6238 0.0
H375 H 0.27109 0.81655 0.69998 0.0
H376 H 0.3269 0.86371 0.67075 0.0
O377 O 0.13952 0.25094 0.57712 0.0
Tb378 Tb 0.11344 0.28107 0.58433 0.0
Eu379 Eu 0.12694 0.3355 0.61474 0.0
C380 C 0.14721 0.249 0.55418 0.0
O381 O 0.13886 0.265 0.53851 0.0
C382 C 0.13379 0.32832 0.56021 0.0
O383 O 0.12981 0.36806 0.63922 0.0
C384 C 0.15807 0.3023 0.62677 0.0
C385 C 0.11369 0.38548 0.63657 0.0
O386 O 0.09663 0.38293 0.61995 0.0
C387 C 0.07801 0.30558 0.62497 0.0
C388 C 0.1683 0.29212 0.64908 0.0
C389 C 0.17779 0.2685 0.64836 0.0
C390 C 0.18858 0.25818 0.66906 0.0
C391 C 0.18838 0.27154 0.69093 0.0
C392 C 0.17823 0.29496 0.69199 0.0
C393 C 0.16846 0.3054 0.6709 0.0
O394 O 0.14003 0.30665 0.56837 0.0
O395 O 0.12559 0.34452 0.5755 0.0
O396 O 0.09112 0.25633 0.56303 0.0
O397 O 0.08925 0.29469 0.55621 0.0
C398 C 0.08143 0.27324 0.54967 0.0
O399 O 0.08785 0.32724 0.6223 0.0
O400 O 0.08917 0.28524 0.61737 0.0
O401 O 0.16456 0.32472 0.62111 0.0
O402 O 0.13484 0.2978 0.62337 0.0
H403 H 0.17717 0.25842 0.63141 0.0
H404 H 0.1974 0.2645 0.70698 0.0
H405 H 0.16104 0.32369 0.67148 0.0
O406 O 0.75508 0.12312 0.58886 0.0
Tb407 Tb 0.7193 0.10834 0.60124 0.0
Eu408 Eu 0.67562 0.13783 0.62654 0.0
C409 C 0.75852 0.14678 0.58465 0.0
O410 O 0.74244 0.16233 0.593 0.0
C411 C 0.68082 0.13665 0.5703 0.0
O412 O 0.64234 0.15478 0.6426 0.0
C413 C 0.71421 0.16321 0.63733 0.0
C414 C 0.63674 0.15492 0.66579 0.0
O415 O 0.65146 0.14517 0.68187 0.0
C416 C 0.69059 0.08639 0.64792 0.0
C417 C 0.72464 0.17245 0.66006 0.0
C418 C 0.74913 0.17995 0.66109 0.0
C419 C 0.75881 0.18962 0.68277 0.0
C420 C 0.74343 0.19154 0.7033 0.0
C421 C 0.71899 0.18367 0.7025 0.0
C422 C 0.70985 0.17405 0.68077 0.0
O423 O 0.70412 0.13457 0.57528 0.0
O424 O 0.66476 0.1343 0.58765 0.0
O425 O 0.73119 0.07507 0.58403 0.0
O426 O 0.6932 0.08488 0.58326 0.0
C427 C 0.7093 0.06867 0.57714 0.0
O428 O 0.67248 0.10173 0.64506 0.0
O429 O 0.71232 0.09045 0.63745 0.0
O430 O 0.69343 0.17304 0.63068 0.0
O431 O 0.71453 0.13947 0.63468 0.0
H432 H 0.76049 0.17836 0.64502 0.0
H433 H 0.75009 0.2003 0.71967 0.0
H434 H 0.69106 0.16808 0.67978 0.0
O435 O 0.87578 0.75278 0.56882 0.0
Tb436 Tb 0.89413 0.71857 0.58124 0.0
Eu437 Eu 0.87746 0.66429 0.60583 0.0
C438 C 0.86999 0.75521 0.54535 0.0
O439 O 0.87725 0.73811 0.53031 0.0
C440 C 0.87051 0.67606 0.55127 0.0
O441 O 0.87221 0.62616 0.62005 0.0
C442 C 0.84255 0.69202 0.62149 0.0
C443 C 0.88673 0.61609 0.63618 0.0
O444 O 0.90551 0.62843 0.64461 0.0
C445 C 0.92173 0.69501 0.62685 0.0
C446 C 0.83458 0.70367 0.64428 0.0
C447 C 0.82933 0.72867 0.64406 0.0
C448 C 0.82025 0.74029 0.66492 0.0
C449 C 0.81691 0.72647 0.68628 0.0
C450 C 0.82223 0.70145 0.68687 0.0
C451 C 0.83106 0.69011 0.66575 0.0
O452 O 0.86685 0.69828 0.55965 0.0
O453 O 0.87883 0.65914 0.56577 0.0
O454 O 0.92727 0.73262 0.56472 0.0
O455 O 0.92091 0.69412 0.56566 0.0
C456 C 0.93639 0.71122 0.56 0.0
O457 O 0.91414 0.67304 0.62116 0.0
O458 O 0.90985 0.71489 0.61896 0.0
O459 O 0.84074 0.66817 0.62017 0.0
O460 O 0.86256 0.70066 0.61152 0.0
H461 H 0.83201 0.73899 0.62744 0.0
H462 H 0.80881 0.73482 0.70221 0.0
H463 H 0.83491 0.67075 0.66603 0.0
O464 O 0.46077 0.27164 0.12441 0.0
Tb465 Tb 0.44396 0.30651 0.11057 0.0
Eu466 Eu 0.40324 0.35473 0.13029 0.0
C467 C 0.46218 0.26516 0.14787 0.0
O468 O 0.44841 0.27666 0.16367 0.0
C469 C 0.4555 0.34524 0.14897 0.0
O470 O 0.37919 0.38695 0.13843 0.0
C471 C 0.38608 0.31446 0.14852 0.0
C472 C 0.38858 0.4088 0.13513 0.0
O473 O 0.41127 0.41051 0.12746 0.0
C474 C 0.40531 0.33413 0.07655 0.0
C475 C 0.36443 0.30616 0.16179 0.0
C476 C 0.3652 0.28388 0.17428 0.0
C477 C 0.34539 0.27639 0.18874 0.0
C478 C 0.32477 0.29148 0.1903 0.0
C479 C 0.32396 0.31378 0.1779 0.0
C480 C 0.34378 0.32111 0.16357 0.0
O481 O 0.4478 0.32269 0.14643 0.0
O482 O 0.44159 0.36309 0.14156 0.0
O483 O 0.47478 0.30224 0.08636 0.0
O484 O 0.4642 0.33811 0.09688 0.0
C485 C 0.47965 0.32536 0.08434 0.0
O486 O 0.40916 0.35375 0.08981 0.0
O487 O 0.41184 0.31203 0.08509 0.0
O488 O 0.40054 0.32931 0.16054 0.0
O489 O 0.38258 0.32109 0.12586 0.0
H490 H 0.38143 0.27266 0.17315 0.0
H491 H 0.30974 0.28656 0.20223 0.0
H492 H 0.34352 0.33873 0.15461 0.0
O493 O 0.42774 0.7576 0.8889 0.0
Tb494 Tb 0.41672 0.73827 0.92322 0.0
Eu495 Eu 0.39238 0.69064 0.89423 0.0
C496 C 0.45146 0.76134 0.88418 0.0
O497 O 0.46739 0.75144 0.89898 0.0
C498 C 0.4491 0.69413 0.90512 0.0
O499 O 0.37597 0.65723 0.87699 0.0
C500 C 0.37229 0.73032 0.87869 0.0
C501 C 0.38421 0.63632 0.88517 0.0
O502 O 0.4012 0.63676 0.90203 0.0
C503 C 0.38068 0.70102 0.9486 0.0
C504 C 0.35323 0.73654 0.86122 0.0
C505 C 0.35382 0.75941 0.84996 0.0
C506 C 0.33594 0.76563 0.8329 0.0
C507 C 0.31737 0.74875 0.82743 0.0
C508 C 0.31656 0.72575 0.8386 0.0
C509 C 0.33474 0.71966 0.85543 0.0
O510 O 0.44475 0.71022 0.92233 0.0
O511 O 0.43263 0.68766 0.88902 0.0
O512 O 0.41911 0.77504 0.93893 0.0
O513 O 0.43745 0.74531 0.95584 0.0
C514 C 0.4327 0.7684 0.95711 0.0
O515 O 0.38974 0.68408 0.93448 0.0
O516 O 0.38314 0.72424 0.94199 0.0
O517 O 0.39262 0.72162 0.86947 0.0
O518 O 0.36476 0.71851 0.89804 0.0
H519 H 0.36836 0.7722 0.85425 0.0
H520 H 0.30422 0.75302 0.81334 0.0
H521 H 0.33451 0.70186 0.86402 0.0
O522 O 0.2669 0.46345 0.88102 0.0
Tb523 Tb 0.30241 0.45018 0.89665 0.0
Eu524 Eu 0.34926 0.41268 0.87472 0.0
C525 C 0.2665 0.48517 0.86988 0.0
O526 O 0.28652 0.49835 0.87067 0.0
C527 C 0.34076 0.46493 0.85922 0.0
O528 O 0.38248 0.38979 0.86774 0.0
C529 C 0.31059 0.39748 0.85176 0.0
C530 C 0.40357 0.39992 0.87319 0.0
O531 O 0.40352 0.42195 0.88259 0.0
C532 C 0.32833 0.40837 0.92919 0.0
C533 C 0.29977 0.37418 0.84441 0.0
C534 C 0.27654 0.37374 0.8337 0.0
C535 C 0.26663 0.35165 0.82548 0.0
C536 C 0.28031 0.33023 0.82748 0.0
C537 C 0.30389 0.33048 0.8376 0.0
C538 C 0.3132 0.35258 0.84671 0.0
O539 O 0.31852 0.45598 0.86072 0.0
O540 O 0.35847 0.45142 0.86737 0.0
O541 O 0.29923 0.48115 0.92101 0.0
O542 O 0.33459 0.46787 0.91207 0.0
C543 C 0.32261 0.48407 0.92437 0.0
O544 O 0.34801 0.40945 0.91543 0.0
O545 O 0.30675 0.41733 0.92148 0.0
O546 O 0.33108 0.40352 0.84078 0.0
O547 O 0.31098 0.40177 0.8752 0.0
H548 H 0.26641 0.39052 0.83137 0.0
H549 H 0.2731 0.31371 0.81932 0.0
H550 H 0.33128 0.35326 0.85471 0.0
O551 O 0.57774 0.26995 0.88689 0.0
Tb552 Tb 0.59392 0.30517 0.90086 0.0
Eu553 Eu 0.62708 0.35686 0.88271 0.0
C554 C 0.57603 0.26389 0.86336 0.0
O555 O 0.58821 0.27699 0.84741 0.0
C556 C 0.57345 0.3454 0.86702 0.0
O557 O 0.64142 0.39515 0.87648 0.0
C558 C 0.64725 0.32361 0.85583 0.0
C559 C 0.66474 0.40042 0.87934 0.0
O560 O 0.67989 0.38297 0.88551 0.0
C561 C 0.63702 0.33009 0.9331 0.0
C562 C 0.66536 0.30386 0.85583 0.0
C563 C 0.6573 0.28053 0.84895 0.0
C564 C 0.67389 0.26153 0.84481 0.0
C565 C 0.69838 0.26558 0.85156 0.0
C566 C 0.70725 0.28909 0.85706 0.0
C567 C 0.6904 0.30824 0.85944 0.0
O568 O 0.58147 0.32285 0.86736 0.0
O569 O 0.58756 0.36321 0.87467 0.0
O570 O 0.57045 0.29792 0.93169 0.0
O571 O 0.5745 0.33457 0.91912 0.0
C572 C 0.56453 0.32056 0.93541 0.0
O573 O 0.63423 0.35118 0.92213 0.0
O574 O 0.62874 0.30923 0.92291 0.0
O575 O 0.65479 0.3464 0.85609 0.0
O576 O 0.62785 0.31979 0.8692 0.0
H577 H 0.63805 0.27778 0.84545 0.0
H578 H 0.71136 0.25096 0.85039 0.0
H579 H 0.69674 0.32665 0.86284 0.0
O580 O 0.77067 0.5651 0.88495 0.0
Tb581 Tb 0.73718 0.58049 0.90201 0.0
Eu582 Eu 0.66999 0.62201 0.88685 0.0
C583 C 0.77711 0.56588 0.86165 0.0
O584 O 0.76602 0.58118 0.84701 0.0
C585 C 0.695 0.57711 0.86413 0.0
O586 O 0.62997 0.62417 0.8946 0.0
C587 C 0.68715 0.66166 0.86767 0.0
C588 C 0.62018 0.64396 0.90372 0.0
O589 O 0.63427 0.66253 0.90945 0.0
C590 C 0.70902 0.6195 0.92962 0.0
C591 C 0.70906 0.67508 0.85975 0.0
C592 C 0.72892 0.66331 0.84863 0.0
C593 C 0.74834 0.67706 0.83876 0.0
C594 C 0.74839 0.70248 0.84254 0.0
C595 C 0.72765 0.71478 0.85132 0.0
C596 C 0.70828 0.70062 0.8605 0.0
O597 O 0.71394 0.59013 0.87152 0.0
O598 O 0.67385 0.58824 0.86379 0.0
O599 O 0.74231 0.54976 0.92643 0.0
O600 O 0.70678 0.55688 0.91296 0.0
C601 C 0.71977 0.5424 0.9262 0.0
O602 O 0.69267 0.60681 0.91748 0.0
O603 O 0.73204 0.61216 0.92696 0.0
O604 O 0.68376 0.65907 0.89123 0.0
O605 O 0.68033 0.64261 0.85475 0.0
H606 H 0.72858 0.64366 0.84663 0.0
H607 H 0.7638 0.71309 0.83645 0.0
H608 H 0.69173 0.7092 0.86694 0.0
O609 O 0.58018 0.76861 0.12441 0.0
Tb610 Tb 0.58595 0.73958 0.09609 0.0
Eu611 Eu 0.60083 0.67737 0.11377 0.0
C612 C 0.56842 0.76485 0.14546 0.0
O613 O 0.56723 0.74258 0.15407 0.0
C614 C 0.5494 0.69749 0.10642 0.0
O615 O 0.61251 0.64041 0.1267 0.0
C616 C 0.61508 0.71065 0.14414 0.0
C617 C 0.63515 0.63265 0.12538 0.0
O618 O 0.65197 0.64652 0.11531 0.0
C619 C 0.62236 0.70274 0.06559 0.0
C620 C 0.63312 0.71301 0.16373 0.0
C621 C 0.63138 0.73278 0.17989 0.0
C622 C 0.64978 0.73686 0.1971 0.0
C623 C 0.66957 0.72081 0.19836 0.0
C624 C 0.67157 0.701 0.18243 0.0
C625 C 0.65306 0.69687 0.16527 0.0
O626 O 0.56094 0.71603 0.11613 0.0
O627 O 0.56151 0.67735 0.10316 0.0
O628 O 0.577 0.77049 0.07274 0.0
O629 O 0.55663 0.73738 0.06973 0.0
C630 C 0.55879 0.7597 0.062 0.0
O631 O 0.61357 0.68266 0.07549 0.0
O632 O 0.6189 0.72494 0.07554 0.0
O633 O 0.5962 0.69634 0.14835 0.0
O634 O 0.62421 0.70816 0.1222 0.0
H635 H 0.61624 0.74538 0.17853 0.0
H636 H 0.68362 0.72378 0.21196 0.0
H637 H 0.6546 0.68179 0.15264 0.0
O638 O 0.24941 0.55215 0.13981 0.0
Tb639 Tb 0.2776 0.56663 0.11423 0.0
Eu640 Eu 0.33758 0.62298 0.12241 0.0
C641 C 0.23753 0.53125 0.13611 0.0
O642 O 0.24052 0.51999 0.11525 0.0
C643 C 0.32452 0.57515 0.14623 0.0
O644 O 0.37303 0.64026 0.11089 0.0
C645 C 0.30433 0.65208 0.1387 0.0
C646 C 0.37451 0.66316 0.10401 0.0
O647 O 0.35465 0.67646 0.10314 0.0
C648 C 0.3021 0.60592 0.08189 0.0
C649 C 0.29663 0.67696 0.14423 0.0
C650 C 0.27192 0.68068 0.1496 0.0
C651 C 0.26362 0.70357 0.15723 0.0
C652 C 0.2802 0.72314 0.15772 0.0
C653 C 0.30503 0.71972 0.15227 0.0
C654 C 0.31328 0.69641 0.14573 0.0
O655 O 0.30387 0.5842 0.13803 0.0
O656 O 0.34315 0.59025 0.14627 0.0
O657 O 0.27212 0.54491 0.08202 0.0
O658 O 0.30478 0.54017 0.10249 0.0
C659 C 0.29314 0.53393 0.08281 0.0
O660 O 0.32069 0.59788 0.09455 0.0
O661 O 0.27984 0.598 0.08823 0.0
O662 O 0.32082 0.64193 0.15287 0.0
O663 O 0.30652 0.64642 0.11561 0.0
H664 H 0.25936 0.66534 0.14908 0.0
H665 H 0.27436 0.74061 0.16483 0.0
H666 H 0.33256 0.69329 0.14269 0.0
O667 O 0.76222 0.45283 0.13122 0.0
Tb668 Tb 0.72732 0.4378 0.11567 0.0
Eu669 Eu 0.67885 0.40902 0.14089 0.0
C670 C 0.76671 0.45475 0.15506 0.0
O671 O 0.75228 0.44315 0.17028 0.0
C672 C 0.68638 0.46479 0.14455 0.0
O673 O 0.64268 0.39485 0.15467 0.0
C674 C 0.71472 0.39776 0.16957 0.0
C675 C 0.63065 0.37606 0.14577 0.0
O676 O 0.64054 0.36276 0.12854 0.0
C677 C 0.70125 0.3904 0.09092 0.0
C678 C 0.72735 0.37526 0.17619 0.0
C679 C 0.75028 0.37639 0.18745 0.0
C680 C 0.76137 0.35498 0.19574 0.0
C681 C 0.74898 0.33264 0.19346 0.0
C682 C 0.72571 0.3313 0.18268 0.0
C683 C 0.71558 0.35271 0.17306 0.0
O684 O 0.70973 0.45943 0.14422 0.0
O685 O 0.67003 0.44837 0.13899 0.0
O686 O 0.73799 0.45536 0.08198 0.0
O687 O 0.70031 0.455 0.09247 0.0
C688 C 0.71584 0.46125 0.07567 0.0
O689 O 0.68118 0.39244 0.10392 0.0
O690 O 0.72237 0.40081 0.09806 0.0
O691 O 0.69191 0.39922 0.17681 0.0
O692 O 0.71797 0.40537 0.14723 0.0
H693 H 0.75917 0.39387 0.19029 0.0
H694 H 0.75683 0.31669 0.20199 0.0
H695 H 0.69788 0.35218 0.16428 0.0
H696 H 0.09726 0.40039 0.44047 0.0
H697 H 0.14849 0.35577 0.40008 0.0
H698 H 0.15989 0.33459 0.43818 0.0
H699 H 0.13379 0.40776 0.4942 0.0
H700 H 0.10796 0.40619 0.51449 0.0
H701 H 0.10415 0.41768 0.48405 0.0
H702 H 0.07013 0.38555 0.4762 0.0
H703 H 0.07386 0.37387 0.50659 0.0
H704 H 0.07666 0.3537 0.48087 0.0
H705 H 0.1644 0.31727 0.48126 0.0
H706 H 0.16266 0.30684 0.52515 0.0
H707 H 0.10921 0.36388 0.53635 0.0
C708 C 0.11095 0.38623 0.43957 0.0
C709 C 0.12198 0.37975 0.41728 0.0
C710 C 0.13983 0.3611 0.41697 0.0
C711 C 0.14639 0.34894 0.43851 0.0
C712 C 0.13503 0.35575 0.46019 0.0
C713 C 0.11778 0.37407 0.46081 0.0
C714 C 0.10811 0.378 0.48627 0.0
C715 C 0.11386 0.40394 0.49528 0.0
C716 C 0.08055 0.37245 0.48755 0.0
C717 C 0.12268 0.35914 0.49998 0.0
C718 C 0.138 0.34629 0.4847 0.0
C719 C 0.15258 0.32736 0.49337 0.0
C720 C 0.15143 0.32149 0.51828 0.0
C721 C 0.13595 0.33467 0.53415 0.0
C722 C 0.12154 0.35374 0.52476 0.0
H723 H 0.68322 0.12354 0.42506 0.0
H724 H 0.60843 0.14966 0.42589 0.0
H725 H 0.61107 0.15589 0.4701 0.0
H726 H 0.67961 0.09062 0.48115 0.0
H727 H 0.71018 0.09813 0.49079 0.0
H728 H 0.70304 0.09669 0.45886 0.0
H729 H 0.71911 0.14086 0.45331 0.0
H730 H 0.72621 0.14244 0.48528 0.0
H731 H 0.70661 0.16498 0.47172 0.0
H732 H 0.62064 0.15757 0.51423 0.0
H733 H 0.63664 0.15418 0.55598 0.0
H734 H 0.70557 0.12765 0.52752 0.0
C735 C 0.66747 0.13074 0.43452 0.0
C736 C 0.64561 0.13613 0.42187 0.0
C737 C 0.62538 0.14536 0.43503 0.0
C738 C 0.6267 0.14904 0.46021 0.0
C739 C 0.64839 0.14349 0.47212 0.0
C740 C 0.66845 0.13453 0.4598 0.0
C741 C 0.68926 0.1293 0.4773 0.0
C742 C 0.6959 0.10207 0.477 0.0
C743 C 0.71162 0.14536 0.47156 0.0
C744 C 0.67762 0.13652 0.50132 0.0
C745 C 0.65405 0.1447 0.49782 0.0
C746 C 0.63914 0.1514 0.51721 0.0
C747 C 0.6484 0.1494 0.54087 0.0
C748 C 0.67241 0.14086 0.54503 0.0
C749 C 0.6873 0.13465 0.5249 0.0
H750 H 0.89203 0.59892 0.4311 0.0
H751 H 0.85416 0.6549 0.39026 0.0
H752 H 0.84505 0.67662 0.42874 0.0
H753 H 0.85182 0.5985 0.48376 0.0
H754 H 0.87663 0.59374 0.50473 0.0
H755 H 0.87866 0.5822 0.47412 0.0
H756 H 0.91937 0.60576 0.4679 0.0
H757 H 0.91746 0.61738 0.49844 0.0
H758 H 0.92029 0.63819 0.47321 0.0
H759 H 0.84236 0.69336 0.47244 0.0
H760 H 0.84607 0.70291 0.51638 0.0
H761 H 0.88574 0.63547 0.52724 0.0
C762 C 0.88157 0.6156 0.43016 0.0
C763 C 0.87376 0.62516 0.40763 0.0
C764 C 0.86024 0.64715 0.40732 0.0
C765 C 0.85499 0.65962 0.4291 0.0
C766 C 0.86328 0.64978 0.451 0.0
C767 C 0.87618 0.62818 0.4516 0.0
C768 C 0.88389 0.62172 0.47719 0.0
C769 C 0.87203 0.59761 0.48543 0.0
C770 C 0.91191 0.62072 0.4793 0.0
C771 C 0.87358 0.64317 0.49099 0.0
C772 C 0.86168 0.65921 0.47572 0.0
C773 C 0.85152 0.68081 0.48453 0.0
C774 C 0.85381 0.68615 0.5095 0.0
C775 C 0.86621 0.66999 0.52531 0.0
C776 C 0.8759 0.64814 0.51579 0.0
H777 H 0.40226 0.88689 0.42997 0.0
H778 H 0.33211 0.86836 0.39803 0.0
H779 H 0.31445 0.86373 0.43915 0.0
H780 H 0.39875 0.84585 0.48152 0.0
H781 H 0.413 0.86712 0.50216 0.0
H782 H 0.42041 0.86799 0.47023 0.0
H783 H 0.40826 0.9136 0.46846 0.0
H784 H 0.40094 0.91288 0.50039 0.0
H785 H 0.37834 0.92263 0.4787 0.0
H786 H 0.30419 0.8621 0.48371 0.0
H787 H 0.3016 0.86526 0.52841 0.0
H788 H 0.37838 0.88529 0.53126 0.0
C789 C 0.38323 0.88168 0.43162 0.0
C790 C 0.36857 0.87791 0.4108 0.0
C791 C 0.34367 0.87139 0.41373 0.0
C792 C 0.3335 0.86862 0.437 0.0
C793 C 0.34845 0.87251 0.45715 0.0
C794 C 0.37274 0.87902 0.4547 0.0
C795 C 0.38457 0.88313 0.47926 0.0
C796 C 0.40541 0.86493 0.48354 0.0
C797 C 0.39355 0.90963 0.48184 0.0
C798 C 0.36312 0.87798 0.49592 0.0
C799 C 0.34249 0.87176 0.48281 0.0
C800 C 0.32025 0.86683 0.49417 0.0
C801 C 0.31899 0.86864 0.51959 0.0
C802 C 0.33982 0.87539 0.53336 0.0
C803 C 0.3622 0.87984 0.52129 0.0
H804 H 0.1561 0.67014 0.58778 0.0
H805 H 0.10898 0.60632 0.58416 0.0
H806 H 0.10606 0.61104 0.53977 0.0
H807 H 0.12605 0.70547 0.54031 0.0
H808 H 0.15502 0.7177 0.53026 0.0
H809 H 0.15121 0.70838 0.56127 0.0
H810 H 0.18984 0.68116 0.55451 0.0
H811 H 0.19115 0.68938 0.5228 0.0
H812 H 0.18895 0.65775 0.53149 0.0
H813 H 0.10776 0.62221 0.49627 0.0
H814 H 0.11352 0.63961 0.45539 0.0
H815 H 0.16026 0.69616 0.48541 0.0
C816 C 0.1452 0.65715 0.57763 0.0
C817 C 0.13277 0.63783 0.58959 0.0
C818 C 0.11876 0.6212 0.57556 0.0
C819 C 0.11695 0.62374 0.55026 0.0
C820 C 0.12938 0.6429 0.53907 0.0
C821 C 0.14332 0.65929 0.55218 0.0
C822 C 0.15485 0.6782 0.53542 0.0
C823 C 0.1462 0.70395 0.54218 0.0
C824 C 0.18286 0.67651 0.5361 0.0
C825 C 0.14485 0.67005 0.51086 0.0
C826 C 0.13034 0.64952 0.51358 0.0
C827 C 0.11907 0.63827 0.49386 0.0
C828 C 0.12251 0.64827 0.47069 0.0
C829 C 0.13699 0.66945 0.46725 0.0
C830 C 0.14866 0.68029 0.48761 0.0
H831 H 0.39673 0.13266 0.58399 0.0
H832 H 0.32533 0.14399 0.61628 0.0
H833 H 0.30733 0.14779 0.57526 0.0
H834 H 0.39147 0.1739 0.5348 0.0
H835 H 0.4067 0.1547 0.51298 0.0
H836 H 0.4139 0.15212 0.54482 0.0
H837 H 0.40344 0.10597 0.54358 0.0
H838 H 0.3962 0.10835 0.5117 0.0
H839 H 0.37393 0.09623 0.53267 0.0
H840 H 0.29736 0.15208 0.53052 0.0
H841 H 0.29594 0.1546 0.48569 0.0
H842 H 0.37361 0.13947 0.48238 0.0
C843 C 0.37731 0.13593 0.58242 0.0
C844 C 0.36247 0.13819 0.60339 0.0
C845 C 0.33707 0.14216 0.60053 0.0
C846 C 0.32668 0.14438 0.57727 0.0
C847 C 0.34183 0.14225 0.55699 0.0
C848 C 0.36655 0.13782 0.55932 0.0
C849 C 0.37871 0.13595 0.53457 0.0
C850 C 0.39888 0.15533 0.53163 0.0
C851 C 0.38866 0.11009 0.53039 0.0
C852 C 0.3572 0.14103 0.518 0.0
C853 C 0.33603 0.14437 0.53128 0.0
C854 C 0.31383 0.14939 0.51997 0.0
C855 C 0.31322 0.15087 0.49446 0.0
C856 C 0.33466 0.14735 0.48043 0.0
C857 C 0.35692 0.14244 0.49251 0.0
H858 H 0.87487 0.32158 0.62337 0.0
H859 H 0.83621 0.3905 0.62575 0.0
H860 H 0.82775 0.38722 0.58191 0.0
H861 H 0.90461 0.33152 0.56979 0.0
H862 H 0.90253 0.30084 0.5582 0.0
H863 H 0.90191 0.30612 0.59046 0.0
H864 H 0.86064 0.28294 0.59369 0.0
H865 H 0.86129 0.27753 0.56133 0.0
H866 H 0.83529 0.29222 0.57498 0.0
H867 H 0.83012 0.38067 0.5373 0.0
H868 H 0.8408 0.36949 0.49503 0.0
H869 H 0.87594 0.30393 0.52116 0.0
C870 C 0.86398 0.3356 0.61482 0.0
C871 C 0.85622 0.3563 0.62803 0.0
C872 C 0.84234 0.37445 0.61608 0.0
C873 C 0.83735 0.37272 0.59115 0.0
C874 C 0.84601 0.35255 0.57847 0.0
C875 C 0.85868 0.33407 0.58993 0.0
C876 C 0.86784 0.31549 0.57169 0.0
C877 C 0.89587 0.31339 0.57259 0.0
C878 C 0.85552 0.29057 0.57568 0.0
C879 C 0.85936 0.32705 0.54815 0.0
C880 C 0.84661 0.34832 0.5525 0.0
C881 C 0.83941 0.36368 0.53364 0.0
C882 C 0.84561 0.35728 0.50974 0.0
C883 C 0.85861 0.33559 0.50495 0.0
C884 C 0.86515 0.3201 0.52434 0.0
H885 H 0.66393 0.86999 0.60057 0.0
H886 H 0.61864 0.9346 0.59487 0.0
H887 H 0.62924 0.93828 0.55168 0.0
H888 H 0.71193 0.89187 0.55684 0.0
H889 H 0.71658 0.86192 0.54421 0.0
H890 H 0.70743 0.86522 0.57555 0.0
H891 H 0.67017 0.83708 0.56769 0.0
H892 H 0.67909 0.83386 0.53632 0.0
H893 H 0.64897 0.84469 0.54382 0.0
H894 H 0.63962 0.93254 0.50886 0.0
H895 H 0.65271 0.91985 0.46817 0.0
H896 H 0.69445 0.86055 0.49953 0.0
C897 C 0.65665 0.88515 0.5903 0.0
C898 C 0.64028 0.90193 0.60121 0.0
C899 C 0.63103 0.9214 0.58705 0.0
C900 C 0.637 0.92372 0.56243 0.0
C901 C 0.65253 0.90661 0.55207 0.0
C902 C 0.66261 0.88789 0.56548 0.0
C903 C 0.67818 0.87163 0.54922 0.0
C904 C 0.70513 0.87273 0.55692 0.0
C905 C 0.66851 0.84525 0.54927 0.0
C906 C 0.67443 0.8837 0.52455 0.0
C907 C 0.65954 0.90386 0.52687 0.0
C908 C 0.65166 0.91708 0.50683 0.0
C909 C 0.65912 0.90959 0.48372 0.0
C910 C 0.67479 0.88934 0.48062 0.0
C911 C 0.68279 0.87633 0.50139 0.0
H912 H 0.43472 0.10062 0.38106 0.0
H913 H 0.40277 0.16249 0.34378 0.0
H914 H 0.44234 0.17034 0.32318 0.0
H915 H 0.4901 0.12823 0.394 0.0
H916 H 0.50808 0.10107 0.39 0.0
H917 H 0.47662 0.09861 0.39909 0.0
H918 H 0.46755 0.07051 0.36207 0.0
H919 H 0.4992 0.07271 0.35332 0.0
H920 H 0.47563 0.08067 0.33191 0.0
H921 H 0.4869 0.17254 0.30869 0.0
H922 H 0.53188 0.1698 0.30338 0.0
H923 H 0.5332 0.10749 0.35193 0.0
C924 C 0.43582 0.1156 0.36826 0.0
C925 C 0.41569 0.13092 0.36397 0.0
C926 C 0.41802 0.15049 0.34729 0.0
C927 C 0.44038 0.15503 0.33546 0.0
C928 C 0.46006 0.1398 0.34055 0.0
C929 C 0.45787 0.12045 0.35657 0.0
C930 C 0.48194 0.10784 0.36059 0.0
C931 C 0.48963 0.10903 0.38751 0.0
C932 C 0.481 0.08137 0.35141 0.0
C933 C 0.49826 0.12342 0.34481 0.0
C934 C 0.48541 0.14153 0.333 0.0
C935 C 0.49708 0.15835 0.31779 0.0
C936 C 0.52256 0.15668 0.31487 0.0
C937 C 0.53589 0.13859 0.32745 0.0
C938 C 0.52347 0.1217 0.34232 0.0
H939 H 0.8861 0.42989 0.40444 0.0
H940 H 0.94136 0.39412 0.36055 0.0
H941 H 0.9497 0.43283 0.33929 0.0
H942 H 0.86202 0.46598 0.35715 0.0
H943 H 0.85638 0.49241 0.37577 0.0
H944 H 0.85611 0.4625 0.38924 0.0
H945 H 0.889 0.47618 0.42031 0.0
H946 H 0.88928 0.50621 0.407 0.0
H947 H 0.91727 0.48923 0.40948 0.0
H948 H 0.95055 0.4742 0.32129 0.0
H949 H 0.94402 0.51619 0.3073 0.0
H950 H 0.88766 0.52558 0.36226 0.0
C951 C 0.90025 0.43035 0.39066 0.0
C952 C 0.91316 0.40909 0.38418 0.0
C953 C 0.93123 0.41023 0.36576 0.0
C954 C 0.93616 0.43213 0.35363 0.0
C955 C 0.92282 0.45267 0.36011 0.0
C956 C 0.90527 0.45206 0.37819 0.0
C957 C 0.89268 0.4765 0.38063 0.0
C958 C 0.86517 0.4742 0.37538 0.0
C959 C 0.89734 0.48769 0.40586 0.0
C960 C 0.90569 0.49079 0.36086 0.0
C961 C 0.92311 0.47669 0.34943 0.0
C962 C 0.9371 0.48551 0.3302 0.0
C963 C 0.93318 0.50944 0.32238 0.0
C964 C 0.91533 0.52429 0.3337 0.0
C965 C 0.90149 0.51477 0.35327 0.0
H966 H 0.60076 0.86589 0.37977 0.0
H967 H 0.63027 0.87259 0.30678 0.0
H968 H 0.58821 0.87098 0.29008 0.0
H969 H 0.54774 0.82658 0.36539 0.0
H970 H 0.52867 0.84242 0.3869 0.0
H971 H 0.56101 0.83988 0.39233 0.0
H972 H 0.56418 0.88693 0.39608 0.0
H973 H 0.53199 0.88966 0.39042 0.0
H974 H 0.55352 0.90577 0.37143 0.0
H975 H 0.54246 0.8722 0.28209 0.0
H976 H 0.49767 0.87811 0.28353 0.0
H977 H 0.49953 0.87328 0.36228 0.0
C978 C 0.59853 0.86633 0.3602 0.0
C979 C 0.61875 0.86915 0.34451 0.0
C980 C 0.61496 0.87032 0.31908 0.0
C981 C 0.59119 0.86934 0.30947 0.0
C982 C 0.57158 0.8673 0.32562 0.0
C983 C 0.5751 0.86582 0.35046 0.0
C984 C 0.55124 0.86644 0.36426 0.0
C985 C 0.54692 0.8424 0.37802 0.0
C986 C 0.55019 0.88851 0.38155 0.0
C987 C 0.53364 0.86916 0.34337 0.0
C988 C 0.54557 0.8691 0.32117 0.0
C989 C 0.53296 0.87208 0.29936 0.0
C990 C 0.50758 0.87542 0.30036 0.0
C991 C 0.49527 0.8762 0.32303 0.0
C992 C 0.5085 0.87282 0.34471 0.0
H993 H 0.09591 0.59008 0.38486 0.0
H994 H 0.08731 0.61878 0.31171 0.0
H995 H 0.08591 0.57702 0.29551 0.0
H996 H 0.13418 0.54153 0.37076 0.0
H997 H 0.1205 0.51974 0.39127 0.0
H998 H 0.11881 0.55184 0.39788 0.0
H999 H 0.07164 0.54909 0.40035 0.0
H1000 H 0.07318 0.51687 0.3941 0.0
H1001 H 0.05477 0.53635 0.37519 0.0
H1002 H 0.09273 0.53331 0.28647 0.0
H1003 H 0.09818 0.48884 0.28552 0.0
H1004 H 0.09802 0.48703 0.36449 0.0
C1005 C 0.09324 0.58754 0.36551 0.0
C1006 C 0.09193 0.60775 0.34956 0.0
C1007 C 0.0884 0.60366 0.32434 0.0
C1008 C 0.08768 0.57998 0.3149 0.0
C1009 C 0.08999 0.56051 0.33094 0.0
C1010 C 0.09197 0.56391 0.35577 0.0
C1011 C 0.0942 0.53963 0.36885 0.0
C1012 C 0.11836 0.53811 0.38302 0.0
C1013 C 0.07213 0.53522 0.38561 0.0
C1014 C 0.094 0.52221 0.34739 0.0
C1015 C 0.09183 0.53478 0.32572 0.0
C1016 C 0.09351 0.52313 0.30331 0.0
C1017 C 0.09668 0.49784 0.30298 0.0
C1018 C 0.09782 0.48433 0.3249 0.0
C1019 C 0.0966 0.49677 0.34742 0.0
H1020 H 0.54712 0.87656 0.64868 0.0
H1021 H 0.53274 0.8493 0.72138 0.0
H1022 H 0.48826 0.85413 0.71438 0.0
H1023 H 0.4993 0.92219 0.6493 0.0
H1024 H 0.49297 0.9183 0.61736 0.0
H1025 H 0.52327 0.9129 0.62885 0.0
H1026 H 0.5221 0.86931 0.6103 0.0
H1027 H 0.49173 0.87459 0.59906 0.0
H1028 H 0.4976 0.84883 0.61853 0.0
H1029 H 0.44491 0.86017 0.69781 0.0
H1030 H 0.40728 0.86869 0.67441 0.0
H1031 H 0.45142 0.89351 0.61356 0.0
C1032 C 0.53468 0.87147 0.66316 0.0
C1033 C 0.54335 0.86233 0.68554 0.0
C1034 C 0.52644 0.85634 0.70412 0.0
C1035 C 0.50118 0.85902 0.70027 0.0
C1036 C 0.49328 0.86804 0.67788 0.0
C1037 C 0.50963 0.87442 0.65978 0.0
C1038 C 0.4968 0.88404 0.63747 0.0
C1039 C 0.50348 0.91095 0.63299 0.0
C1040 C 0.50239 0.86824 0.61502 0.0
C1041 C 0.47051 0.88134 0.6454 0.0
C1042 C 0.46874 0.87218 0.66877 0.0
C1043 C 0.44614 0.86753 0.67959 0.0
C1044 C 0.42487 0.87237 0.66613 0.0
C1045 C 0.4264 0.88182 0.64217 0.0
C1046 C 0.44958 0.88643 0.63186 0.0
H1047 H 0.08855 0.42753 0.62904 0.0
H1048 H 0.14368 0.39521 0.67546 0.0
H1049 H 0.14875 0.43465 0.6968 0.0
H1050 H 0.11831 0.48268 0.62017 0.0
H1051 H 0.09098 0.50089 0.62012 0.0
H1052 H 0.08958 0.46946 0.61094 0.0
H1053 H 0.05611 0.46151 0.6431 0.0
H1054 H 0.05757 0.49271 0.65331 0.0
H1055 H 0.06207 0.46813 0.67461 0.0
H1056 H 0.14973 0.47881 0.71095 0.0
H1057 H 0.14792 0.52378 0.71512 0.0
H1058 H 0.09325 0.5264 0.65813 0.0
C1059 C 0.10137 0.42856 0.64399 0.0
C1060 C 0.11564 0.40831 0.65067 0.0
C1061 C 0.13251 0.41053 0.67008 0.0
C1062 C 0.13544 0.43282 0.68237 0.0
C1063 C 0.12135 0.4526 0.67498 0.0
C1064 C 0.10467 0.45061 0.65621 0.0
C1065 C 0.09316 0.47487 0.65033 0.0
C1066 C 0.09833 0.48241 0.62383 0.0
C1067 C 0.06559 0.47428 0.65566 0.0
C1068 C 0.10656 0.49105 0.66814 0.0
C1069 C 0.1224 0.47789 0.68258 0.0
C1070 C 0.13729 0.48925 0.69982 0.0
C1071 C 0.13619 0.51476 0.70203 0.0
C1072 C 0.12069 0.52849 0.68671 0.0
C1073 C 0.10547 0.51636 0.6699 0.0
H1074 H 0.59692 0.15293 0.63734 0.0
H1075 H 0.62087 0.17348 0.70968 0.0
H1076 H 0.57811 0.18418 0.72041 0.0
H1077 H 0.54628 0.19699 0.63014 0.0
H1078 H 0.52746 0.17449 0.6152 0.0
H1079 H 0.5602 0.17352 0.61191 0.0
H1080 H 0.56036 0.12883 0.62751 0.0
H1081 H 0.52775 0.12965 0.63065 0.0
H1082 H 0.54645 0.12185 0.65645 0.0
H1083 H 0.53228 0.18965 0.72342 0.0
H1084 H 0.48771 0.1821 0.72196 0.0
H1085 H 0.49513 0.15417 0.64852 0.0
C1086 C 0.59335 0.16039 0.65523 0.0
C1087 C 0.61209 0.16284 0.6726 0.0
C1088 C 0.60663 0.17171 0.69612 0.0
C1089 C 0.58252 0.17803 0.70222 0.0
C1090 C 0.56435 0.17511 0.6846 0.0
C1091 C 0.56956 0.16618 0.66168 0.0
C1092 C 0.54672 0.16084 0.64725 0.0
C1093 C 0.54508 0.17746 0.6248 0.0
C1094 C 0.54525 0.1337 0.64007 0.0
C1095 C 0.52766 0.16735 0.66589 0.0
C1096 C 0.53806 0.17634 0.687 0.0
C1097 C 0.52394 0.18244 0.70713 0.0
C1098 C 0.49873 0.17796 0.70615 0.0
C1099 C 0.48819 0.1668 0.68542 0.0
C1100 C 0.50269 0.16255 0.6647 0.0
H1101 H 0.91593 0.58693 0.66457 0.0
H1102 H 0.84659 0.5881 0.62628 0.0
H1103 H 0.83861 0.54572 0.63898 0.0
H1104 H 0.94542 0.51913 0.67803 0.0
H1105 H 0.94527 0.55004 0.66701 0.0
H1106 H 0.93176 0.52604 0.64903 0.0
H1107 H 0.92364 0.56412 0.70654 0.0
H1108 H 0.92381 0.53322 0.71768 0.0
H1109 H 0.89544 0.54964 0.71564 0.0
H1110 H 0.83833 0.50314 0.65508 0.0
H1111 H 0.84623 0.46266 0.67289 0.0
H1112 H 0.91611 0.48872 0.70005 0.0
C1113 C 0.89899 0.57834 0.659 0.0
C1114 C 0.88187 0.59086 0.64444 0.0
C1115 C 0.86 0.57889 0.6374 0.0
C1116 C 0.85526 0.55482 0.64457 0.0
C1117 C 0.87257 0.54295 0.65875 0.0
C1118 C 0.894 0.55425 0.66591 0.0
C1119 C 0.90985 0.53709 0.68056 0.0
C1120 C 0.93453 0.53282 0.66789 0.0
C1121 C 0.91338 0.54659 0.70665 0.0
C1122 C 0.8941 0.51431 0.6802 0.0
C1123 C 0.87258 0.51818 0.66773 0.0
C1124 C 0.8551 0.49987 0.66492 0.0
C1125 C 0.85977 0.47694 0.67511 0.0
C1126 C 0.88183 0.47247 0.68776 0.0
C1127 C 0.89914 0.4915 0.69035 0.0
H1128 H 0.40413 0.45585 0.13044 0.0
H1129 H 0.3405 0.41249 0.14971 0.0
H1130 H 0.31687 0.45042 0.15625 0.0
H1131 H 0.39457 0.50396 0.17393 0.0
H1132 H 0.40537 0.52737 0.15352 0.0
H1133 H 0.41699 0.49681 0.151 0.0
H1134 H 0.40419 0.49563 0.10572 0.0
H1135 H 0.39227 0.52607 0.10797 0.0
H1136 H 0.37293 0.50155 0.09757 0.0
H1137 H 0.30012 0.49415 0.15982 0.0
H1138 H 0.29221 0.53875 0.15943 0.0
H1139 H 0.36728 0.55183 0.13776 0.0
C1140 C 0.38525 0.45422 0.13612 0.0
C1141 C 0.37417 0.43118 0.13957 0.0
C1142 C 0.34939 0.42996 0.14698 0.0
C1143 C 0.33584 0.4514 0.15075 0.0
C1144 C 0.34738 0.47386 0.1471 0.0
C1145 C 0.37158 0.47529 0.13998 0.0
C1146 C 0.37987 0.50141 0.13689 0.0
C1147 C 0.40041 0.50775 0.15492 0.0
C1148 C 0.38776 0.50646 0.11048 0.0
C1149 C 0.35654 0.51459 0.1432 0.0
C1150 C 0.33793 0.49853 0.14912 0.0
C1151 C 0.31461 0.50682 0.15521 0.0
C1152 C 0.31024 0.53212 0.15492 0.0
C1153 C 0.32906 0.54868 0.14842 0.0
C1154 C 0.35252 0.53967 0.14291 0.0
H1155 H 0.39753 0.59117 0.90051 0.0
H1156 H 0.34898 0.62791 0.8502 0.0
H1157 H 0.33307 0.58776 0.8365 0.0
H1158 H 0.41258 0.54052 0.86256 0.0
H1159 H 0.4129 0.51911 0.88744 0.0
H1160 H 0.42034 0.55066 0.89279 0.0
H1161 H 0.38649 0.55301 0.92579 0.0
H1162 H 0.37903 0.52145 0.9206 0.0
H1163 H 0.35566 0.54435 0.91809 0.0
H1164 H 0.32198 0.54261 0.82927 0.0
H1165 H 0.31688 0.49753 0.82966 0.0
H1166 H 0.37343 0.49215 0.88449 0.0
C1167 C 0.38363 0.5909 0.88651 0.0
C1168 C 0.37456 0.61268 0.87636 0.0
C1169 C 0.35625 0.61141 0.85819 0.0
C1170 C 0.34712 0.58871 0.85031 0.0
C1171 C 0.35654 0.56755 0.86078 0.0
C1172 C 0.37439 0.56857 0.87852 0.0
C1173 C 0.38132 0.54348 0.88738 0.0
C1174 C 0.40839 0.53814 0.88222 0.0
C1175 C 0.37525 0.5404 0.91457 0.0
C1176 C 0.36476 0.52802 0.87172 0.0
C1177 C 0.35045 0.54207 0.85653 0.0
C1178 C 0.33321 0.53149 0.84102 0.0
C1179 C 0.33042 0.50595 0.84134 0.0
C1180 C 0.34475 0.49147 0.85708 0.0
C1181 C 0.36237 0.50272 0.87207 0.0
H1182 H 0.44929 0.41752 0.88229 0.0
H1183 H 0.41101 0.35421 0.85379 0.0
H1184 H 0.45073 0.33399 0.84641 0.0
H1185 H 0.5001 0.4164 0.84063 0.0
H1186 H 0.5219 0.42573 0.86338 0.0
H1187 H 0.49054 0.43524 0.86574 0.0
H1188 H 0.48775 0.41652 0.90903 0.0
H1189 H 0.51915 0.40719 0.90686 0.0
H1190 H 0.49572 0.38497 0.91348 0.0
H1191 H 0.4951 0.32019 0.84401 0.0
H1192 H 0.53969 0.31387 0.84737 0.0
H1193 H 0.54797 0.38703 0.87643 0.0
C1194 C 0.44916 0.39943 0.87439 0.0
C1195 C 0.42704 0.38744 0.86859 0.0
C1196 C 0.42776 0.36375 0.85837 0.0
C1197 C 0.45022 0.35216 0.85406 0.0
C1198 C 0.47171 0.36458 0.85999 0.0
C1199 C 0.47128 0.38771 0.86995 0.0
C1200 C 0.49674 0.397 0.87539 0.0
C1201 C 0.50266 0.41995 0.86038 0.0
C1202 C 0.50002 0.40168 0.90281 0.0
C1203 C 0.51167 0.37547 0.86703 0.0
C1204 C 0.49699 0.35691 0.8582 0.0
C1205 C 0.50676 0.33472 0.85064 0.0
C1206 C 0.53211 0.33132 0.85257 0.0
C1207 C 0.54737 0.35006 0.86189 0.0
C1208 C 0.53693 0.3725 0.86879 0.0
H1209 H 0.63839 0.44305 0.87903 0.0
H1210 H 0.71199 0.41493 0.87169 0.0
H1211 H 0.7276 0.45683 0.86562 0.0
H1212 H 0.64297 0.49126 0.83491 0.0
H1213 H 0.62547 0.51262 0.85263 0.0
H1214 H 0.61998 0.48037 0.85581 0.0
H1215 H 0.62757 0.48366 0.90216 0.0
H1216 H 0.63333 0.51589 0.89928 0.0
H1217 H 0.6559 0.49646 0.91303 0.0
H1218 H 0.7351 0.50199 0.85944 0.0
H1219 H 0.73392 0.54691 0.8565 0.0
H1220 H 0.65611 0.54572 0.87 0.0
C1221 C 0.65777 0.44569 0.87597 0.0
C1222 C 0.67394 0.42566 0.87563 0.0
C1223 C 0.69923 0.42996 0.87199 0.0
C1224 C 0.70827 0.4537 0.86847 0.0
C1225 C 0.69185 0.47304 0.86888 0.0
C1226 C 0.66716 0.46932 0.87277 0.0
C1227 C 0.65354 0.49333 0.87332 0.0
C1228 C 0.63436 0.49445 0.85295 0.0
C1229 C 0.6419 0.49759 0.89844 0.0
C1230 C 0.67434 0.51108 0.86871 0.0
C1231 C 0.69629 0.49902 0.86616 0.0
C1232 C 0.71802 0.51159 0.86168 0.0
C1233 C 0.71731 0.53715 0.86018 0.0
C1234 C 0.69523 0.54997 0.86346 0.0
C1235 C 0.6734 0.53657 0.86738 0.0
H1236 H 0.59319 0.68223 0.92138 0.0
H1237 H 0.58658 0.61017 0.88914 0.0
H1238 H 0.54192 0.61467 0.88778 0.0
H1239 H 0.53724 0.67842 0.95854 0.0
H1240 H 0.52983 0.71005 0.95373 0.0
H1241 H 0.56128 0.70048 0.95382 0.0
H1242 H 0.56723 0.71965 0.91109 0.0
H1243 H 0.53577 0.72902 0.91076 0.0
H1244 H 0.54752 0.71033 0.8865 0.0
H1245 H 0.49888 0.6283 0.88589 0.0
H1246 H 0.45906 0.64911 0.8869 0.0
H1247 H 0.4929 0.71165 0.92193 0.0
C1248 C 0.58232 0.66727 0.91437 0.0
C1249 C 0.59337 0.6459 0.90528 0.0
C1250 C 0.57853 0.62673 0.8962 0.0
C1251 C 0.55314 0.62909 0.89533 0.0
C1252 C 0.54286 0.6506 0.90386 0.0
C1253 C 0.55687 0.66925 0.9135 0.0
C1254 C 0.54118 0.69074 0.92077 0.0
C1255 C 0.54246 0.69517 0.94836 0.0
C1256 C 0.54836 0.71379 0.90642 0.0
C1257 C 0.51625 0.68138 0.91322 0.0
C1258 C 0.5177 0.65822 0.90344 0.0
C1259 C 0.4974 0.64629 0.89382 0.0
C1260 C 0.47493 0.65832 0.89432 0.0
C1261 C 0.47296 0.6819 0.90456 0.0
C1262 C 0.49387 0.69349 0.91426 0.0
H1263 H 0.67782 0.6067 0.11954 0.0
H1264 H 0.60569 0.603 0.15233 0.0
H1265 H 0.6138 0.5611 0.16586 0.0
H1266 H 0.67765 0.54798 0.09594 0.0
H1267 H 0.70942 0.54173 0.10164 0.0
H1268 H 0.6995 0.57264 0.09736 0.0
H1269 H 0.71829 0.5846 0.13898 0.0
H1270 H 0.72822 0.55361 0.14342 0.0
H1271 H 0.70932 0.56816 0.16596 0.0
H1272 H 0.6269 0.51856 0.17112 0.0
H1273 H 0.64452 0.47741 0.16763 0.0
H1274 H 0.70884 0.50787 0.13274 0.0
C1275 C 0.66396 0.59723 0.13 0.0
C1276 C 0.64112 0.60816 0.13487 0.0
C1277 C 0.6233 0.59504 0.14831 0.0
C1278 C 0.62778 0.57125 0.15624 0.0
C1279 C 0.65025 0.56083 0.15078 0.0
C1280 C 0.66813 0.57335 0.13807 0.0
C1281 C 0.68986 0.55707 0.13288 0.0
C1282 C 0.69435 0.55472 0.10532 0.0
C1283 C 0.71278 0.56642 0.1461 0.0
C1284 C 0.6809 0.53324 0.14377 0.0
C1285 C 0.65812 0.53598 0.15429 0.0
C1286 C 0.64496 0.51623 0.16346 0.0
C1287 C 0.65507 0.49295 0.16136 0.0
C1288 C 0.67815 0.48963 0.1503 0.0
C1289 C 0.69149 0.51009 0.14195 0.0
H1290 H 0.41677 0.63966 0.09271 0.0
H1291 H 0.38711 0.71152 0.10666 0.0
H1292 H 0.42887 0.72896 0.10563 0.0
H1293 H 0.46716 0.64392 0.12951 0.0
H1294 H 0.48785 0.62795 0.10964 0.0
H1295 H 0.45562 0.62169 0.10821 0.0
H1296 H 0.45532 0.63196 0.06216 0.0
H1297 H 0.48771 0.6379 0.06335 0.0
H1298 H 0.46727 0.66088 0.05193 0.0
H1299 H 0.47413 0.73716 0.10929 0.0
H1300 H 0.51908 0.7365 0.11272 0.0
H1301 H 0.51888 0.65938 0.0949 0.0
C1302 C 0.41903 0.65914 0.0951 0.0
C1303 C 0.39879 0.67425 0.0999 0.0
C1304 C 0.4024 0.69965 0.10285 0.0
C1305 C 0.42604 0.7097 0.10235 0.0
C1306 C 0.44572 0.69412 0.09845 0.0
C1307 C 0.4424 0.66946 0.09436 0.0
C1308 C 0.46656 0.65645 0.0916 0.0
C1309 C 0.46946 0.63632 0.11089 0.0
C1310 C 0.46938 0.6462 0.06572 0.0
C1311 C 0.48407 0.67739 0.096 0.0
C1312 C 0.47173 0.69901 0.09974 0.0
C1313 C 0.48399 0.72047 0.10584 0.0
C1314 C 0.50951 0.71984 0.10795 0.0
C1315 C 0.5225 0.69789 0.10403 0.0
C1316 C 0.50952 0.67649 0.09781 0.0
H1317 H 0.59956 0.3379 0.1338 0.0
H1318 H 0.60325 0.4056 0.1747 0.0
H1319 H 0.55945 0.40234 0.18383 0.0
H1320 H 0.54308 0.34723 0.1064 0.0
H1321 H 0.53263 0.31613 0.1092 0.0
H1322 H 0.56479 0.32263 0.10774 0.0
H1323 H 0.57035 0.29907 0.14838 0.0
H1324 H 0.53795 0.29317 0.14967 0.0
H1325 H 0.55301 0.30808 0.17476 0.0
H1326 H 0.51471 0.39579 0.18298 0.0
H1327 H 0.47182 0.38408 0.17501 0.0
H1328 H 0.49639 0.31883 0.13798 0.0
C1329 C 0.59124 0.35175 0.1451 0.0
C1330 C 0.60493 0.37205 0.15345 0.0
C1331 C 0.59329 0.38984 0.16809 0.0
C1332 C 0.56835 0.38816 0.17344 0.0
C1333 C 0.55526 0.36832 0.16447 0.0
C1334 C 0.5663 0.35015 0.151 0.0
C1335 C 0.54762 0.33133 0.14276 0.0
C1336 C 0.54702 0.32926 0.11486 0.0
C1337 C 0.55253 0.30644 0.15461 0.0
C1338 C 0.5243 0.34254 0.15259 0.0
C1339 C 0.52921 0.36381 0.16519 0.0
C1340 C 0.51062 0.37883 0.17376 0.0
C1341 C 0.48635 0.3721 0.16911 0.0
C1342 C 0.48089 0.3504 0.15633 0.0
C1343 C 0.50011 0.33518 0.14842 0.0
H1344 H 0.13431 0.43951 0.18773 0.0
H1345 H 0.15949 0.45515 0.26078 0.0
H1346 H 0.19139 0.48268 0.24382 0.0
H1347 H 0.19557 0.43966 0.15933 0.0
H1348 H 0.18438 0.45289 0.13149 0.0
H1349 H 0.16465 0.43381 0.14966 0.0
H1350 H 0.13287 0.46858 0.1514 0.0
H1351 H 0.15266 0.48792 0.13361 0.0
H1352 H 0.14189 0.49806 0.16289 0.0
H1353 H 0.21838 0.51255 0.21784 0.0
H1354 H 0.24098 0.53584 0.18617 0.0
H1355 H 0.19969 0.49833 0.13024 0.0
C1356 C 0.14685 0.4483 0.20021 0.0
C1357 C 0.1443 0.44491 0.22573 0.0
C1358 C 0.16112 0.45703 0.24123 0.0
C1359 C 0.17921 0.47295 0.2317 0.0
C1360 C 0.1807 0.47642 0.20647 0.0
C1361 C 0.16527 0.46387 0.19096 0.0
C1362 C 0.17063 0.4704 0.16456 0.0
C1363 C 0.17933 0.44785 0.15042 0.0
C1364 C 0.14817 0.48192 0.15241 0.0
C1365 C 0.19115 0.48897 0.16749 0.0
C1366 C 0.19661 0.49246 0.1918 0.0
C1367 C 0.21432 0.5096 0.1988 0.0
C1368 C 0.22699 0.52297 0.18064 0.0
C1369 C 0.22228 0.51908 0.15556 0.0
C1370 C 0.20395 0.5018 0.14916 0.0
H1371 H 0.52007 0.1762 0.24976 0.0
H1372 H 0.58533 0.16878 0.20582 0.0
H1373 H 0.56659 0.19554 0.17431 0.0
H1374 H 0.47629 0.17559 0.20182 0.0
H1375 H 0.45672 0.19794 0.21578 0.0
H1376 H 0.47555 0.17869 0.23446 0.0
H1377 H 0.49506 0.2167 0.25455 0.0
H1378 H 0.4761 0.23607 0.23613 0.0
H1379 H 0.50881 0.23988 0.23566 0.0
H1380 H 0.53776 0.22293 0.14584 0.0
H1381 H 0.50599 0.24935 0.12731 0.0
H1382 H 0.46089 0.23953 0.19136 0.0
C1383 C 0.53066 0.18019 0.23358 0.0
C1384 C 0.55442 0.17001 0.23054 0.0
C1385 C 0.56731 0.1762 0.20896 0.0
C1386 C 0.55661 0.19137 0.19081 0.0
C1387 C 0.53295 0.20068 0.19434 0.0
C1388 C 0.5204 0.19547 0.21555 0.0
C1389 C 0.49552 0.20788 0.21567 0.0
C1390 C 0.4748 0.18889 0.21701 0.0
C1391 C 0.49378 0.22622 0.23675 0.0
C1392 C 0.49563 0.22086 0.19115 0.0
C1393 C 0.51723 0.21643 0.17886 0.0
C1394 C 0.52095 0.22639 0.15559 0.0
C1395 C 0.50259 0.24132 0.14499 0.0
C1396 C 0.48053 0.24666 0.15753 0.0
C1397 C 0.47731 0.23597 0.18098 0.0
H1398 H 0.7918 0.45137 0.19879 0.0
H1399 H 0.78404 0.49831 0.13593 0.0
H1400 H 0.8105 0.52931 0.15587 0.0
H1401 H 0.79203 0.4974 0.24468 0.0
H1402 H 0.81504 0.48313 0.26321 0.0
H1403 H 0.79567 0.46475 0.24403 0.0
H1404 H 0.83356 0.44619 0.22312 0.0
H1405 H 0.85309 0.4642 0.24247 0.0
H1406 H 0.85625 0.4661 0.20988 0.0
H1407 H 0.83641 0.55723 0.18539 0.0
H1408 H 0.86341 0.57513 0.21712 0.0
H1409 H 0.85695 0.50852 0.25901 0.0
C1410 C 0.7959 0.46803 0.189 0.0
C1411 C 0.7857 0.47212 0.16551 0.0
C1412 C 0.79169 0.49435 0.15364 0.0
C1413 C 0.8066 0.51226 0.16504 0.0
C1414 C 0.81599 0.50779 0.18835 0.0
C1415 C 0.81124 0.48586 0.1999 0.0
C1416 C 0.82419 0.48497 0.22446 0.0
C1417 C 0.80562 0.48241 0.24532 0.0
C1418 C 0.84288 0.46413 0.22501 0.0
C1419 C 0.83684 0.50983 0.22516 0.0
C1420 C 0.8316 0.52299 0.20438 0.0
C1421 C 0.84071 0.5468 0.20153 0.0
C1422 C 0.85594 0.55702 0.21984 0.0
C1423 C 0.86251 0.54347 0.24081 0.0
C1424 C 0.85245 0.51957 0.24333 0.0
H1425 H 0.54365 0.76118 0.1891 0.0
H1426 H 0.55793 0.81255 0.13083 0.0
H1427 H 0.52955 0.84197 0.15035 0.0
H1428 H 0.48013 0.77315 0.19516 0.0
H1429 H 0.47979 0.76964 0.22776 0.0
H1430 H 0.50201 0.75354 0.20978 0.0
H1431 H 0.53705 0.77269 0.2351 0.0
H1432 H 0.51492 0.7886 0.25335 0.0
H1433 H 0.53888 0.80537 0.23817 0.0
H1434 H 0.49712 0.86592 0.17736 0.0
H1435 H 0.46752 0.88103 0.20815 0.0
H1436 H 0.47463 0.81301 0.24762 0.0
C1437 C 0.54118 0.77872 0.18044 0.0
C1438 C 0.55353 0.78437 0.15828 0.0
C1439 C 0.54919 0.80763 0.14782 0.0
C1440 C 0.53286 0.82447 0.1588 0.0
C1441 C 0.52072 0.81803 0.1804 0.0
C1442 C 0.52495 0.79563 0.19109 0.0
C1443 C 0.50962 0.79259 0.21404 0.0
C1444 C 0.49184 0.77095 0.21153 0.0
C1445 C 0.5261 0.78964 0.23649 0.0
C1446 C 0.49594 0.81668 0.21479 0.0
C1447 C 0.50246 0.83126 0.19529 0.0
C1448 C 0.49204 0.85444 0.19257 0.0
C1449 C 0.47501 0.86291 0.21018 0.0
C1450 C 0.46824 0.84835 0.23049 0.0
C1451 C 0.47897 0.8248 0.2324 0.0
H1452 H 0.20451 0.57101 0.76763 0.0
H1453 H 0.13344 0.55424 0.7981 0.0
H1454 H 0.15314 0.52785 0.82906 0.0
H1455 H 0.23172 0.51297 0.77535 0.0
H1456 H 0.26138 0.52456 0.7838 0.0
H1457 H 0.24171 0.54245 0.76464 0.0
H1458 H 0.24439 0.57852 0.79488 0.0
H1459 H 0.26438 0.56085 0.81395 0.0
H1460 H 0.23679 0.57361 0.82642 0.0
H1461 H 0.18209 0.49936 0.85544 0.0
H1462 H 0.21615 0.4783 0.8768 0.0
H1463 H 0.26801 0.5164 0.83078 0.0
C1464 C 0.19304 0.56214 0.78106 0.0
C1465 C 0.1672 0.56506 0.78027 0.0
C1466 C 0.15316 0.55282 0.7983 0.0
C1467 C 0.16428 0.53749 0.81591 0.0
C1468 C 0.18974 0.53465 0.81583 0.0
C1469 C 0.20392 0.54721 0.79911 0.0
C1470 C 0.23092 0.54172 0.80305 0.0
C1471 C 0.24208 0.52971 0.78036 0.0
C1472 C 0.24495 0.56506 0.80999 0.0
C1473 C 0.22987 0.52384 0.8243 0.0
C1474 C 0.20598 0.51963 0.83135 0.0
C1475 C 0.2008 0.50292 0.85009 0.0
C1476 C 0.22031 0.49079 0.8621 0.0
C1477 C 0.24501 0.49553 0.85578 0.0
C1478 C 0.24948 0.51229 0.83641 0.0
H1479 H 0.52167 0.17202 0.76163 0.0
H1480 H 0.45757 0.16063 0.80648 0.0
H1481 H 0.47599 0.18727 0.83835 0.0
H1482 H 0.56699 0.17391 0.80819 0.0
H1483 H 0.58458 0.19799 0.7942 0.0
H1484 H 0.56655 0.17774 0.77562 0.0
H1485 H 0.54428 0.21461 0.75697 0.0
H1486 H 0.56204 0.23509 0.77546 0.0
H1487 H 0.52915 0.2361 0.7766 0.0
H1488 H 0.50391 0.21561 0.86669 0.0
H1489 H 0.53421 0.2442 0.88482 0.0
H1490 H 0.57821 0.23889 0.81954 0.0
C1491 C 0.51127 0.17512 0.77805 0.0
C1492 C 0.48793 0.16383 0.78124 0.0
C1493 C 0.47533 0.16878 0.80327 0.0
C1494 C 0.48581 0.18395 0.82159 0.0
C1495 C 0.50891 0.19463 0.81774 0.0
C1496 C 0.52121 0.19062 0.79616 0.0
C1497 C 0.54522 0.20489 0.79561 0.0
C1498 C 0.56713 0.18759 0.79327 0.0
C1499 C 0.54515 0.22379 0.77494 0.0
C1500 C 0.54494 0.2174 0.82037 0.0
C1501 C 0.524 0.21118 0.8331 0.0
C1502 C 0.52019 0.2205 0.85659 0.0
C1503 C 0.5377 0.23671 0.86694 0.0
C1504 C 0.55893 0.24402 0.8539 0.0
C1505 C 0.56236 0.23386 0.83027 0.0
H1506 H 0.80295 0.56611 0.81798 0.0
H1507 H 0.78767 0.52083 0.88087 0.0
H1508 H 0.81085 0.48706 0.86213 0.0
H1509 H 0.79911 0.51927 0.77258 0.0
H1510 H 0.82418 0.53077 0.75459 0.0
H1511 H 0.80634 0.55137 0.77285 0.0
H1512 H 0.8455 0.56634 0.79465 0.0
H1513 H 0.86347 0.546 0.77625 0.0
H1514 H 0.86532 0.54444 0.80895 0.0
H1515 H 0.83473 0.4567 0.83473 0.0
H1516 H 0.86063 0.43547 0.80428 0.0
H1517 H 0.86236 0.50123 0.76057 0.0
C1518 C 0.80466 0.54918 0.82794 0.0
C1519 C 0.79342 0.54639 0.85112 0.0
C1520 C 0.79622 0.52376 0.86333 0.0
C1521 C 0.80926 0.50429 0.85268 0.0
C1522 C 0.81987 0.50755 0.82975 0.0
C1523 C 0.81804 0.52965 0.81774 0.0
C1524 C 0.83178 0.52876 0.79364 0.0
C1525 C 0.8143 0.53278 0.77215 0.0
C1526 C 0.85276 0.54749 0.79337 0.0
C1527 C 0.84149 0.50276 0.79386 0.0
C1528 C 0.83419 0.49063 0.81467 0.0
C1529 C 0.84063 0.46621 0.81849 0.0
C1530 C 0.85525 0.45415 0.80097 0.0
C1531 C 0.86371 0.4665 0.77992 0.0
C1532 C 0.85638 0.49113 0.77644 0.0
H1533 H 0.49626 0.75918 0.86132 0.0
H1534 H 0.42978 0.80167 0.86215 0.0
H1535 H 0.44909 0.83157 0.83394 0.0
H1536 H 0.53886 0.8081 0.85975 0.0
H1537 H 0.55982 0.79336 0.83923 0.0
H1538 H 0.54055 0.77529 0.85883 0.0
H1539 H 0.52332 0.75215 0.82159 0.0
H1540 H 0.54278 0.7699 0.80187 0.0
H1541 H 0.51028 0.7691 0.79672 0.0
H1542 H 0.47845 0.85925 0.80727 0.0
H1543 H 0.511 0.87756 0.78153 0.0
H1544 H 0.55708 0.81522 0.79594 0.0
C1545 C 0.48554 0.7746 0.85535 0.0
C1546 C 0.46125 0.77783 0.86417 0.0
C1547 C 0.44817 0.79841 0.85569 0.0
C1548 C 0.45918 0.81568 0.83973 0.0
C1549 C 0.48334 0.81215 0.83188 0.0
C1550 C 0.49609 0.7917 0.83909 0.0
C1551 C 0.52156 0.79157 0.82776 0.0
C1552 C 0.54137 0.79211 0.84758 0.0
C1553 C 0.52466 0.76936 0.81099 0.0
C1554 C 0.52148 0.81526 0.81322 0.0
C1555 C 0.49941 0.82712 0.81602 0.0
C1556 C 0.4956 0.84981 0.80492 0.0
C1557 C 0.51439 0.86026 0.79039 0.0
C1558 C 0.53689 0.84808 0.7865 0.0
C1559 C 0.54023 0.8252 0.79832 0.0
H1560 H 0.17236 0.24954 0.51131 0.0
H1561 H 0.16 0.20396 0.57459 0.0
H1562 H 0.18484 0.17122 0.55531 0.0
H1563 H 0.16835 0.20323 0.46641 0.0
H1564 H 0.192 0.21614 0.44748 0.0
H1565 H 0.17398 0.23564 0.46671 0.0
H1566 H 0.21329 0.25238 0.48699 0.0
H1567 H 0.23144 0.23314 0.46762 0.0
H1568 H 0.23479 0.23139 0.50019 0.0
H1569 H 0.21079 0.14234 0.52658 0.0
H1570 H 0.2365 0.12309 0.49471 0.0
H1571 H 0.23132 0.18881 0.45128 0.0
C1572 C 0.17487 0.23275 0.52135 0.0
C1573 C 0.16399 0.22947 0.54462 0.0
C1574 C 0.16811 0.20712 0.55689 0.0
C1575 C 0.18213 0.18835 0.54593 0.0
C1576 C 0.19214 0.19214 0.52268 0.0
C1577 C 0.18881 0.21405 0.51078 0.0
C1578 C 0.20143 0.21416 0.48615 0.0
C1579 C 0.18282 0.21748 0.46547 0.0
C1580 C 0.22142 0.23393 0.48519 0.0
C1581 C 0.21238 0.1888 0.4857 0.0
C1582 C 0.20684 0.17617 0.5068 0.0
C1583 C 0.21513 0.15227 0.51011 0.0
C1584 C 0.22963 0.14133 0.49175 0.0
C1585 C 0.23596 0.15421 0.47021 0.0
C1586 C 0.22687 0.17824 0.46734 0.0
H1587 H 0.78275 0.19066 0.58573 0.0
H1588 H 0.77523 0.12504 0.54254 0.0
H1589 H 0.79963 0.14433 0.50955 0.0
H1590 H 0.7782 0.23371 0.53853 0.0
H1591 H 0.80105 0.25419 0.55054 0.0
H1592 H 0.78393 0.23479 0.57081 0.0
H1593 H 0.82407 0.21687 0.58782 0.0
H1594 H 0.84134 0.2364 0.56781 0.0
H1595 H 0.84609 0.20393 0.56717 0.0
H1596 H 0.82235 0.17374 0.47905 0.0
H1597 H 0.84572 0.20671 0.45806 0.0
H1598 H 0.84003 0.25135 0.52283 0.0
C1599 C 0.78668 0.18012 0.56954 0.0
C1600 C 0.77721 0.15615 0.56692 0.0
C1601 C 0.78263 0.14318 0.54527 0.0
C1602 C 0.79627 0.15416 0.52627 0.0
C1603 C 0.80482 0.17809 0.52922 0.0
C1604 C 0.80066 0.19061 0.55067 0.0
C1605 C 0.81213 0.21586 0.54979 0.0
C1606 C 0.79266 0.23581 0.55258 0.0
C1607 C 0.83209 0.21841 0.5693 0.0
C1608 C 0.823 0.21593 0.52435 0.0
C1609 C 0.81846 0.19416 0.51251 0.0
C1610 C 0.82618 0.19069 0.4884 0.0
C1611 C 0.83929 0.20961 0.47647 0.0
C1612 C 0.84489 0.23167 0.48869 0.0
C1613 C 0.8363 0.23469 0.5129 0.0
H1614 H 0.84045 0.75398 0.50506 0.0
H1615 H 0.86504 0.80326 0.56163 0.0
H1616 H 0.84242 0.83706 0.5416 0.0
H1617 H 0.84292 0.79534 0.45479 0.0
H1618 H 0.81547 0.78382 0.44073 0.0
H1619 H 0.8338 0.76404 0.45936 0.0
H1620 H 0.7963 0.75431 0.48641 0.0
H1621 H 0.7778 0.77382 0.46768 0.0
H1622 H 0.77945 0.77897 0.50003 0.0
H1623 H 0.81761 0.86657 0.51265 0.0
H1624 H 0.78993 0.88609 0.48267 0.0
H1625 H 0.77978 0.81633 0.44708 0.0
C1626 C 0.84113 0.77188 0.51337 0.0
C1627 C 0.85486 0.77582 0.53502 0.0
C1628 C 0.85476 0.79957 0.54521 0.0
C1629 C 0.84201 0.81896 0.53378 0.0
C1630 C 0.82898 0.81443 0.51223 0.0
C1631 C 0.82816 0.79122 0.50248 0.0
C1632 C 0.8121 0.79052 0.47987 0.0
C1633 C 0.82696 0.78298 0.45736 0.0
C1634 C 0.79011 0.7734 0.48374 0.0
C1635 C 0.80405 0.81699 0.47809 0.0
C1636 C 0.81419 0.8307 0.49667 0.0
C1637 C 0.80958 0.85578 0.49822 0.0
C1638 C 0.79393 0.86686 0.48089 0.0
C1639 C 0.78257 0.85297 0.46225 0.0
C1640 C 0.78807 0.82767 0.46095 0.0
H1641 H 0.17823 0.76137 0.51767 0.0
H1642 H 0.1505 0.8087 0.46103 0.0
H1643 H 0.17454 0.84314 0.47852 0.0
H1644 H 0.1776 0.80473 0.56636 0.0
H1645 H 0.20539 0.79363 0.57988 0.0
H1646 H 0.18616 0.77325 0.56269 0.0
H1647 H 0.22263 0.76234 0.5348 0.0
H1648 H 0.24198 0.78255 0.55206 0.0
H1649 H 0.23924 0.78638 0.51961 0.0
H1650 H 0.20244 0.87344 0.5044 0.0
H1651 H 0.23157 0.89387 0.5326 0.0
H1652 H 0.24059 0.82568 0.57131 0.0
C1653 C 0.17713 0.77892 0.50874 0.0
C1654 C 0.1622 0.78205 0.48775 0.0
C1655 C 0.16169 0.80554 0.47693 0.0
C1656 C 0.1753 0.82531 0.48691 0.0
C1657 C 0.18958 0.82152 0.50778 0.0
C1658 C 0.19061 0.79869 0.51836 0.0
C1659 C 0.20744 0.79883 0.5404 0.0
C1660 C 0.1933 0.79222 0.56371 0.0
C1661 C 0.22911 0.7815 0.53647 0.0
C1662 C 0.21582 0.82531 0.54083 0.0
C1663 C 0.20533 0.83831 0.52202 0.0
C1664 C 0.21064 0.8632 0.51909 0.0
C1665 C 0.22718 0.8748 0.53536 0.0
C1666 C 0.23856 0.86166 0.55447 0.0
C1667 C 0.23238 0.83654 0.55708 0.0
H1668 H 1.00268 0.57852 0.25133 0.0
H1669 H 0.9436 0.54704 0.20993 0.0
H1670 H 0.97005 0.51274 0.19806 0.0
H1671 H 0.05793 0.54771 0.21622 0.0
H1672 H 0.07267 0.54342 0.2452 0.0
H1673 H 0.05485 0.57043 0.23971 0.0
H1674 H 0.02995 0.56093 0.27832 0.0
H1675 H 0.04601 0.53323 0.28365 0.0
H1676 H 0.01332 0.53251 0.28046 0.0
H1677 H 0.9964 0.47615 0.20334 0.0
H1678 H 0.02055 0.44324 0.22285 0.0
H1679 H 0.0599 0.4974 0.26463 0.0
C1680 C 0.99617 0.56534 0.23814 0.0
C1681 C 0.97154 0.5653 0.23121 0.0
C1682 C 0.96277 0.54755 0.21481 0.0
C1683 C 0.97768 0.52786 0.2082 0.0
C1684 C 1.00116 0.52659 0.21806 0.0
C1685 C 1.01063 0.54536 0.23223 0.0
C1686 C 0.03315 0.53743 0.24594 0.0
C1687 C 0.05601 0.55052 0.23617 0.0
C1688 C 0.03039 0.54123 0.27368 0.0
C1689 C 0.03341 0.51077 0.23937 0.0
C1690 C 0.01564 0.50491 0.22246 0.0
C1691 C 1.01083 0.48068 0.216 0.0
C1692 C 0.02437 0.46211 0.22729 0.0
C1693 C 0.04171 0.46804 0.24536 0.0
C1694 C 0.04661 0.49255 0.25092 0.0
H1695 H 0.48675 0.96726 0.30783 0.0
H1696 H 0.47154 0.95869 0.23084 0.0
H1697 H 0.49735 0.99466 0.22175 0.0
H1698 H 0.48464 0.03236 0.30866 0.0
H1699 H 0.50898 0.03514 0.33055 0.0
H1700 H 0.48982 1.00841 0.33051 0.0
H1701 H 0.52857 0.98143 0.32643 0.0
H1702 H 0.54757 1.00831 0.32619 0.0
H1703 H 0.54942 0.98672 0.30156 0.0
H1704 H 0.52478 0.0311 0.22121 0.0
H1705 H 0.55123 0.06689 0.22947 0.0
H1706 H 0.54661 0.05213 0.3069 0.0
C1707 C 0.48899 0.97293 0.28908 0.0
C1708 C 0.4774 0.96043 0.26998 0.0
C1709 C 0.48043 0.96825 0.24565 0.0
C1710 C 0.49501 0.98854 0.24033 0.0
C1711 C 0.50615 1.00064 0.25962 0.0
C1712 C 0.50325 0.99321 0.28349 0.0
C1713 C 0.51669 1.0097 0.30092 0.0
C1714 C 0.49895 0.02214 0.31869 0.0
C1715 C 0.53675 0.9957 0.31457 0.0
C1716 C 0.52744 0.02768 0.2831 0.0
C1717 C 0.52138 0.02203 0.25936 0.0
C1718 C 0.52962 0.03582 0.23971 0.0
C1719 C 0.54456 0.05599 0.24453 0.0
C1720 C 0.55065 0.06207 0.26876 0.0
C1721 C 0.54196 0.04785 0.28823 0.0
H1722 H 0.9975 0.44182 0.73159 0.0
H1723 H 0.9615 0.4597 0.79936 0.0
H1724 H 0.99368 0.49041 0.80809 0.0
H1725 H 0.0633 0.45679 0.75076 0.0
H1726 H 0.06924 0.46966 0.72116 0.0
H1727 H 0.04871 0.44405 0.72423 0.0
H1728 H 0.01548 0.46839 0.70185 0.0
H1729 H 0.03473 0.49481 0.69947 0.0
H1730 H 1.00541 0.49716 0.7141 0.0
H1731 H 0.02346 0.52531 0.80414 0.0
H1732 H 0.04951 0.55931 0.78909 0.0
H1733 H 0.0636 0.51885 0.72287 0.0
C1734 C 0.99715 0.45136 0.74885 0.0
C1735 C 0.9774 0.44858 0.76491 0.0
C1736 C 0.9769 0.46151 0.7871 0.0
C1737 C 0.99505 0.47896 0.79212 0.0
C1738 C 0.01346 0.48268 0.77488 0.0
C1739 C 0.0149 0.46877 0.75389 0.0
C1740 C 0.03337 0.47887 0.73614 0.0
C1741 C 0.05494 0.4613 0.7329 0.0
C1742 C 0.02153 0.48517 0.71147 0.0
C1743 C 0.04101 0.50147 0.74964 0.0
C1744 C 0.02993 0.50319 0.7722 0.0
C1745 C 0.03269 0.52385 0.78679 0.0
C1746 C 0.04723 0.5431 0.77805 0.0
C1747 C 0.05815 0.54155 0.7548 0.0
C1748 C 0.05525 0.52043 0.74068 0.0
H1749 H 0.50778 0.94999 0.73716 0.0
H1750 H 0.54317 0.94828 0.66668 0.0
H1751 H 0.5275 0.98973 0.65789 0.0
H1752 H 0.45417 0.98917 0.71999 0.0
H1753 H 0.45554 1.00433 0.74905 0.0
H1754 H 0.46433 0.97281 0.74654 0.0
H1755 H 0.50613 0.98371 0.76595 0.0
H1756 H 0.49797 0.01534 0.76765 0.0
H1757 H 0.52528 1.00642 0.75169 0.0
H1758 H 0.51287 0.03406 0.66004 0.0
H1759 H 0.49823 0.07529 0.67177 0.0
H1760 H 0.47665 0.04713 0.74232 0.0
C1761 C 0.51137 0.95793 0.71946 0.0
C1762 C 0.5265 0.94614 0.70254 0.0
C1763 C 0.53128 0.95709 0.67972 0.0
C1764 C 0.52259 0.98064 0.67468 0.0
C1765 C 0.50915 0.9926 0.69264 0.0
C1766 C 0.50323 0.98134 0.71441 0.0
C1767 C 0.49124 0.99864 0.732 0.0
C1768 C 0.46475 0.99077 0.73719 0.0
C1769 C 0.50605 1.00116 0.7557 0.0
C1770 C 0.4922 0.02172 0.71723 0.0
C1771 C 0.50208 0.01798 0.69439 0.0
C1772 C 0.50494 0.03709 0.67782 0.0
C1773 C 0.49687 0.06042 0.68468 0.0
C1774 C 0.48672 0.06429 0.70804 0.0
C1775 C 0.4847 0.04475 0.72448 0.0
H1776 H 0.29797 0.99257 0.56811 0.0
H1777 H 0.35895 0.9542 0.53619 0.0
H1778 H 0.37545 0.99316 0.52041 0.0
H1779 H 0.28339 0.02652 0.52441 0.0
H1780 H 0.27657 0.05446 0.5403 0.0
H1781 H 0.27498 0.02612 0.55616 0.0
H1782 H 0.30595 0.04242 0.58823 0.0
H1783 H 0.30725 0.07105 0.57207 0.0
H1784 H 0.33493 0.0546 0.57831 0.0
H1785 H 0.37802 0.0317 0.49859 0.0
H1786 H 0.3643 0.06394 0.47057 0.0
H1787 H 0.30269 0.07868 0.51744 0.0
C1788 C 0.31511 0.99267 0.55827 0.0
C1789 C 0.32702 0.97078 0.5527 0.0
C1790 C 0.34954 0.97107 0.54025 0.0
C1791 C 0.35923 0.99311 0.53167 0.0
C1792 C 0.34653 0.01458 0.53657 0.0
C1793 C 0.32514 0.01455 0.55009 0.0
C1794 C 0.31251 0.03892 0.54909 0.0
C1795 C 0.28531 0.03631 0.54201 0.0
C1796 C 0.31534 0.05254 0.57337 0.0
C1797 C 0.3276 0.05104 0.5295 0.0
C1798 C 0.3482 0.03754 0.52378 0.0
C1799 C 0.36248 0.04283 0.50338 0.0
C1800 C 0.35451 0.06103 0.48747 0.0
C1801 C 0.33229 0.07308 0.49201 0.0
C1802 C 0.31973 0.06937 0.51393 0.0
H1803 H 0.96397 0.309 0.47812 0.0
H1804 H 0.94889 0.23158 0.47139 0.0
H1805 H 0.99052 0.22237 0.48594 0.0
H1806 H 0.03022 0.30552 0.4608 0.0
H1807 H 0.03816 0.32901 0.48235 0.0
H1808 H 1.00873 0.32935 0.46769 0.0
H1809 H 0.98761 0.3302 0.51005 0.0
H1810 H 0.01694 0.32989 0.52461 0.0
H1811 H 0.99461 0.30675 0.53193 0.0
H1812 H 0.03039 0.22159 0.50652 0.0
H1813 H 0.0658 0.22922 0.53321 0.0
H1814 H 0.05554 0.30719 0.52518 0.0
C1815 C 0.96961 0.29014 0.47945 0.0
C1816 C 0.9535 0.27094 0.4739 0.0
C1817 C 0.96121 0.24646 0.47571 0.0
C1818 C 0.9848 0.2411 0.48368 0.0
C1819 C 1.00032 0.26048 0.48922 0.0
C1820 C 0.99311 0.28452 0.48709 0.0
C1821 C 0.01236 0.3019 0.49641 0.0
C1822 C 0.023 0.31735 0.47556 0.0
C1823 C 1.00227 0.31811 0.51697 0.0
C1824 C 0.03079 0.2838 0.50572 0.0
C1825 C 0.0238 0.26002 0.50082 0.0
C1826 C 0.03643 0.24008 0.51 0.0
C1827 C 0.05636 0.24457 0.5252 0.0
C1828 C 0.06312 0.26875 0.53105 0.0
C1829 C 0.05077 0.28855 0.52059 0.0
H1830 H 0.74608 0.96053 0.49258 0.0
H1831 H 0.67194 0.96199 0.46484 0.0
H1832 H 0.66012 0.99035 0.49759 0.0
H1833 H 0.72996 0.96583 0.55788 0.0
H1834 H 0.7559 0.98521 0.56404 0.0
H1835 H 0.75767 0.96239 0.5405 0.0
H1836 H 0.76992 0.9956 0.50904 0.0
H1837 H 0.76847 0.01837 0.53246 0.0
H1838 H 0.7506 0.02186 0.50516 0.0
H1839 H 0.65765 0.02149 0.5298 0.0
H1840 H 0.66536 0.05565 0.55809 0.0
H1841 H 0.74101 0.0334 0.56471 0.0
C1842 C 0.72735 0.96674 0.49357 0.0
C1843 C 0.70984 0.95927 0.47652 0.0
C1844 C 0.6855 0.96762 0.47805 0.0
C1845 C 0.67859 0.98347 0.49663 0.0
C1846 C 0.69629 0.99048 0.51337 0.0
C1847 C 0.72018 0.98246 0.51198 0.0
C1848 C 0.73622 0.99452 0.5307 0.0
C1849 C 0.74547 0.97587 0.54939 0.0
C1850 C 0.75753 1.00842 0.51861 0.0
C1851 C 0.71792 0.01159 0.54191 0.0
C1852 C 0.69485 1.00856 0.53211 0.0
C1853 C 0.67547 0.02379 0.53802 0.0
C1854 C 0.68001 0.0431 0.55394 0.0
C1855 C 0.70375 0.04687 0.56329 0.0
C1856 C 0.72268 0.03061 0.55782 0.0
H1857 H 0.97213 0.7452 0.55793 0.0
H1858 H 0.95888 0.66734 0.55417 0.0
H1859 H 1.00316 0.66025 0.54947 0.0
H1860 H 0.0115 0.74949 0.51292 0.0
H1861 H 0.0313 0.77217 0.52633 0.0
H1862 H 1.00013 0.77005 0.53586 0.0
H1863 H 0.01458 0.76482 0.58056 0.0
H1864 H 0.04602 0.76642 0.5708 0.0
H1865 H 0.03537 0.74062 0.5882 0.0
H1866 H 0.04603 0.66212 0.5368 0.0
H1867 H 0.08116 0.67303 0.51101 0.0
H1868 H 0.06752 0.74958 0.52394 0.0
C1869 C 0.97867 0.72665 0.55645 0.0
C1870 C 0.96236 0.70683 0.55605 0.0
C1871 C 0.97129 0.68278 0.55418 0.0
C1872 C 0.99639 0.67857 0.55203 0.0
C1873 C 0.01216 0.69861 0.55227 0.0
C1874 C 1.00359 0.72221 0.55444 0.0
C1875 C 0.02349 0.74079 0.55007 0.0
C1876 C 0.01617 0.75915 0.5301 0.0
C1877 C 0.03026 0.75393 0.57383 0.0
C1878 C 0.04379 0.72407 0.54203 0.0
C1879 C 0.03742 0.69973 0.54484 0.0
C1880 C 0.05154 0.68102 0.5351 0.0
C1881 C 0.07148 0.68735 0.52046 0.0
C1882 C 0.07657 0.71212 0.51552 0.0
C1883 C 0.06383 0.73055 0.52779 0.0
H1884 H 0.56513 0.297 0.97791 0.0
H1885 H 0.54081 0.36377 0.94369 0.0
H1886 H 0.52305 0.37733 0.98306 0.0
H1887 H 0.51519 0.28526 0.01125 0.0
H1888 H 0.53112 0.2735 0.0374 0.0
H1889 H 0.54507 0.27195 1.00796 0.0
H1890 H 0.58287 0.29532 0.02473 0.0
H1891 H 0.56863 0.29735 0.05426 0.0
H1892 H 0.57888 0.32462 0.03899 0.0
H1893 H 0.50262 0.37983 0.02418 0.0
H1894 H 0.47914 0.36963 0.06142 0.0
H1895 H 0.51883 0.30187 0.06782 0.0
C1896 C 0.55626 0.3146 0.97878 0.0
C1897 C 0.55384 0.32927 0.95804 0.0
C1898 C 0.54253 0.35231 0.95965 0.0
C1899 C 0.53274 0.36022 0.98189 0.0
C1900 C 0.53528 0.34511 1.00218 0.0
C1901 C 0.547 0.32286 1.00073 0.0
C1902 C 0.54524 0.30865 0.02408 0.0
C1903 C 0.53343 0.28339 0.01991 0.0
C1904 C 0.57041 0.30636 0.03623 0.0
C1905 C 0.52889 0.32538 0.03833 0.0
C1906 C 0.52397 0.34676 0.02589 0.0
C1907 C 0.50684 0.36351 0.03439 0.0
C1908 C 0.49365 0.35764 0.05551 0.0
C1909 C 0.4975 0.33505 0.06721 0.0
C1910 C 0.51598 0.3194 0.05921 0.0
H1911 H 0.43115 0.76077 1.00458 0.0
H1912 H 0.46131 0.80841 0.94966 0.0
H1913 H 0.4945 0.82031 0.9777 0.0
H1914 H 0.45781 0.79593 0.06209 0.0
H1915 H 0.46321 0.76682 0.07624 0.0
H1916 H 0.43657 0.77114 0.05751 0.0
H1917 H 0.44915 0.73389 0.03181 0.0
H1918 H 0.47609 0.72972 0.04957 0.0
H1919 H 0.47865 0.7337 0.01711 0.0
H1920 H 0.53051 0.81575 1.00487 0.0
H1921 H 0.56374 0.79747 0.02952 0.0
H1922 H 0.51102 0.75011 0.06458 0.0
C1923 C 0.44379 0.7751 0.99934 0.0
C1924 C 0.44377 0.78405 0.97546 0.0
C1925 C 0.46084 0.80199 0.96829 0.0
C1926 C 0.47983 0.80868 0.9841 0.0
C1927 C 0.48101 0.79742 1.00688 0.0
C1928 C 0.4629 0.78147 0.01479 0.0
C1929 C 0.47071 0.76749 0.03715 0.0
C1930 C 0.45622 0.77587 0.05957 0.0
C1931 C 0.46855 0.73959 0.03364 0.0
C1932 C 0.49695 0.77569 0.0387 0.0
C1933 C 0.50236 0.7938 0.022 0.0
C1934 C 0.52629 0.80212 0.01848 0.0
C1935 C 0.54506 0.7915 0.03225 0.0
C1936 C 0.53968 0.77226 0.04846 0.0
C1937 C 0.51541 0.76473 0.05208 0.0
H1938 H 0.30522 0.52574 0.9425 0.0
H1939 H 0.3606 0.47088 0.95319 0.0
H1940 H 0.36485 0.48332 0.99611 0.0
H1941 H 0.32959 0.57114 0.99291 0.0
H1942 H 0.29841 0.57853 1.00025 0.0
H1943 H 0.30696 0.57238 0.96916 0.0
H1944 H 0.27308 0.53935 0.96716 0.0
H1945 H 0.265 0.54439 0.99829 0.0
H1946 H 0.27366 0.51429 0.98843 0.0
H1947 H 0.35389 0.49291 0.03951 0.0
H1948 H 0.33214 0.50276 0.07808 0.0
H1949 H 0.28273 0.54927 0.03795 0.0
C1950 C 0.31933 0.51757 0.95359 0.0
C1951 C 0.33256 0.49757 0.94494 0.0
C1952 C 0.35058 0.48659 0.95966 0.0
C1953 C 0.35303 0.49349 0.98408 0.0
C1954 C 0.33778 0.51174 0.99297 0.0
C1955 C 0.32188 0.5243 0.97786 0.0
C1956 C 0.30442 0.53991 0.9922 0.0
C1957 C 0.31019 0.5671 0.98841 0.0
C1958 C 0.27749 0.53409 0.98616 0.0
C1959 C 0.31099 0.53197 0.01755 0.0
C1960 C 0.33085 0.51654 0.01792 0.0
C1961 C 0.33872 0.50549 0.03946 0.0
C1962 C 0.32615 0.51081 0.06113 0.0
C1963 C 0.30557 0.52622 0.06064 0.0
C1964 C 0.29814 0.53696 0.03867 0.0
H1965 H 0.74534 0.50524 0.94471 0.0
H1966 H 0.67322 0.5371 0.94303 0.0
H1967 H 0.66102 0.51184 0.97829 0.0
H1968 H 0.72452 0.44221 0.97156 0.0
H1969 H 0.7523 0.44092 0.98907 0.0
H1970 H 0.75248 0.45445 0.95916 0.0
H1971 H 0.77108 0.49393 0.9772 0.0
H1972 H 0.77058 0.48109 1.00713 0.0
H1973 H 0.75519 0.50951 1.00137 0.0
H1974 H 0.66101 0.49324 0.01953 0.0
H1975 H 0.67186 0.47942 0.06103 0.0
H1976 H 0.74428 0.46045 0.03569 0.0
C1977 C 0.72665 0.5059 0.95112 0.0
C1978 C 0.71021 0.52297 0.94162 0.0
C1979 C 0.68595 0.52388 0.95025 0.0
C1980 C 0.67888 0.50956 0.97018 0.0
C1981 C 0.69621 0.49418 0.98058 0.0
C1982 C 0.71942 0.49168 0.97083 0.0
C1983 C 0.73592 0.47721 0.98735 0.0
C1984 C 0.74163 0.45221 0.97612 0.0
C1985 C 0.75954 0.4913 0.99363 0.0
C1986 C 0.71939 0.47458 0.00911 0.0
C1987 C 0.69626 0.48356 1.00463 0.0
C1988 C 0.6788 0.48547 0.02302 0.0
C1989 C 0.68518 0.47794 0.04653 0.0
C1990 C 0.70895 0.46926 0.05132 0.0
C1991 C 0.72603 0.4672 0.03237 0.0
H1992 H 0.22924 0.20774 0.31502 0.0
H1993 H 0.25344 0.22744 0.3875 0.0
H1994 H 0.22528 0.26243 0.38731 0.0
H1995 H 0.23313 0.26392 0.29266 0.0
H1996 H 0.20735 0.2622 0.27236 0.0
H1997 H 0.22301 0.23489 0.28096 0.0
H1998 H 0.18244 0.21619 0.29688 0.0
H1999 H 0.16651 0.24352 0.28811 0.0
H2000 H 0.16457 0.23259 0.31899 0.0
H2001 H 0.20178 0.29999 0.37576 0.0
H2002 H 0.18644 0.33621 0.35369 0.0
H2003 H 0.17961 0.29305 0.28808 0.0
C2004 C 0.22804 0.21896 0.33118 0.0
C2005 C 0.24354 0.21481 0.35125 0.0
C2006 C 0.24147 0.22995 0.37204 0.0
C2007 C 0.22554 0.24996 0.37206 0.0
C2008 C 0.21169 0.25448 0.35125 0.0
C2009 C 0.21265 0.23919 0.33125 0.0
C2010 C 0.19949 0.25 0.30965 0.0
C2011 C 0.21678 0.25293 0.28764 0.0
C2012 C 0.17691 0.23466 0.30303 0.0
C2013 C 0.19222 0.27441 0.32009 0.0
C2014 C 0.19871 0.27645 0.34432 0.0
C2015 C 0.19607 0.29837 0.35699 0.0
C2016 C 0.18733 0.31883 0.34436 0.0
C2017 C 0.18182 0.31726 0.31928 0.0
C2018 C 0.1835 0.29458 0.30734 0.0
H2019 H 0.74717 0.18287 0.29817 0.0
H2020 H 0.70018 0.19095 0.36125 0.0
H2021 H 0.73505 0.20522 0.38519 0.0
H2022 H 0.80782 0.17149 0.33375 0.0
H2023 H 0.82425 0.18977 0.31187 0.0
H2024 H 0.79864 0.17134 0.30226 0.0
H2025 H 0.77842 0.20963 0.28363 0.0
H2026 H 0.80361 0.22815 0.29335 0.0
H2027 H 0.77302 0.23583 0.30267 0.0
H2028 H 0.76899 0.23058 0.39783 0.0
H2029 H 0.79911 0.26332 0.39851 0.0
H2030 H 0.82729 0.23905 0.32865 0.0
C2031 C 0.74447 0.18678 0.31728 0.0
C2032 C 0.72089 0.18574 0.32773 0.0
C2033 C 0.71805 0.19105 0.3528 0.0
C2034 C 0.73785 0.19928 0.36663 0.0
C2035 C 0.76047 0.20195 0.35527 0.0
C2036 C 0.76405 0.19542 0.33122 0.0
C2037 C 0.78858 0.20444 0.32199 0.0
C2038 C 0.80585 0.18298 0.3172 0.0
C2039 C 0.78571 0.22046 0.29909 0.0
C2040 C 0.79699 0.21922 0.34373 0.0
C2041 C 0.78091 0.21682 0.363 0.0
C2042 C 0.78231 0.23187 0.38333 0.0
C2043 C 0.79978 0.25054 0.38356 0.0
C2044 C 0.81593 0.25404 0.36361 0.0
C2045 C 0.81523 0.23717 0.34414 0.0
H2046 H 0.83302 0.72508 0.27916 0.0
H2047 H 0.83464 0.67937 0.34339 0.0
H2048 H 0.82286 0.71458 0.36867 0.0
H2049 H 0.84971 0.78587 0.31054 0.0
H2050 H 0.82844 0.80172 0.29124 0.0
H2051 H 0.84481 0.77568 0.27974 0.0
H2052 H 0.80371 0.75513 0.26803 0.0
H2053 H 0.78732 0.78086 0.27952 0.0
H2054 H 0.78065 0.75081 0.2911 0.0
H2055 H 0.80034 0.75045 0.38465 0.0
H2056 H 0.76935 0.78273 0.38927 0.0
H2057 H 0.7824 0.80568 0.31499 0.0
C2058 C 0.83183 0.7228 0.29869 0.0
C2059 C 0.83474 0.69963 0.30935 0.0
C2060 C 0.83284 0.6971 0.3349 0.0
C2061 C 0.82615 0.71703 0.34941 0.0
C2062 C 0.8218 0.73938 0.3381 0.0
C2063 C 0.82496 0.74243 0.31328 0.0
C2064 C 0.815 0.76662 0.30473 0.0
C2065 C 0.83573 0.78347 0.29606 0.0
C2066 C 0.79552 0.76312 0.28471 0.0
C2067 C 0.80391 0.77582 0.32816 0.0
C2068 C 0.80865 0.7603 0.34742 0.0
C2069 C 0.79716 0.76315 0.36994 0.0
C2070 C 0.7796 0.78156 0.37244 0.0
C2071 C 0.77357 0.79658 0.35243 0.0
C2072 C 0.78687 0.79447 0.33057 0.0
H2073 H 0.20225 0.78787 0.32632 0.0
H2074 H 0.22842 0.73051 0.37372 0.0
H2075 H 0.26565 0.75437 0.3818 0.0
H2076 H 0.25274 0.79214 0.29556 0.0
H2077 H 0.25273 0.82452 0.28986 0.0
H2078 H 0.22449 0.80894 0.29557 0.0
H2079 H 0.21513 0.83819 0.33137 0.0
H2080 H 0.24341 0.85417 0.32557 0.0
H2081 H 0.23715 0.84205 0.35543 0.0
H2082 H 0.304 0.77785 0.37588 0.0
H2083 H 0.33931 0.79727 0.35546 0.0
H2084 H 0.29015 0.83722 0.30868 0.0
C2085 C 0.21541 0.78077 0.33915 0.0
C2086 C 0.2124 0.75727 0.34928 0.0
C2087 C 0.23001 0.74861 0.366 0.0
C2088 C 0.25135 0.76208 0.37065 0.0
C2089 C 0.25482 0.78419 0.35852 0.0
C2090 C 0.23712 0.79361 0.34325 0.0
C2091 C 0.24707 0.81456 0.32821 0.0
C2092 C 0.24409 0.80972 0.30071 0.0
C2093 C 0.23497 0.83868 0.3356 0.0
C2094 C 0.27359 0.81411 0.33583 0.0
C2095 C 0.27752 0.79724 0.35413 0.0
C2096 C 0.30104 0.79157 0.36206 0.0
C2097 C 0.32101 0.80267 0.35039 0.0
C2098 C 0.31728 0.81875 0.33065 0.0
C2099 C 0.29332 0.82521 0.32398 0.0
H2100 H 0.17546 0.73176 0.71437 0.0
H2101 H 0.1894 0.68876 0.64979 0.0
H2102 H 0.20389 0.72555 0.62848 0.0
H2103 H 0.1637 0.79387 0.68149 0.0
H2104 H 0.17976 0.80949 0.70552 0.0
H2105 H 0.1617 0.78274 0.71229 0.0
H2106 H 0.1995 0.76295 0.73243 0.0
H2107 H 0.21776 0.78917 0.72537 0.0
H2108 H 0.22715 0.7595 0.71494 0.0
H2109 H 0.22873 0.76167 0.61938 0.0
H2110 H 0.25947 0.79409 0.62245 0.0
H2111 H 0.22956 0.81558 0.6924 0.0
C2112 C 0.18051 0.73042 0.69537 0.0
C2113 C 0.18142 0.70752 0.68373 0.0
C2114 C 0.18827 0.7062 0.65895 0.0
C2115 C 0.19657 0.72706 0.64671 0.0
C2116 C 0.19757 0.74906 0.65942 0.0
C2117 C 0.18917 0.75101 0.68311 0.0
C2118 C 0.19655 0.77513 0.69438 0.0
C2119 C 0.17409 0.79126 0.69866 0.0
C2120 C 0.2111 0.77144 0.71814 0.0
C2121 C 0.21244 0.78534 0.67428 0.0
C2122 C 0.21216 0.77046 0.65397 0.0
C2123 C 0.22841 0.77399 0.63476 0.0
C2124 C 0.24588 0.7926 0.63669 0.0
C2125 C 0.24702 0.80755 0.65773 0.0
C2126 C 0.22929 0.80444 0.67615 0.0
H2127 H 0.28007 0.17367 0.73121 0.0
H2128 H 0.32034 0.17913 0.66335 0.0
H2129 H 0.28252 0.18808 0.64175 0.0
H2130 H 0.21683 0.15545 0.70269 0.0
H2131 H 0.20163 0.17473 0.72446 0.0
H2132 H 0.22889 0.1585 0.73304 0.0
H2133 H 0.24885 0.19923 0.74646 0.0
H2134 H 0.222 0.21552 0.73777 0.0
H2135 H 0.25115 0.22394 0.72491 0.0
H2136 H 0.24624 0.20994 0.63027 0.0
H2137 H 0.21522 0.2417 0.63002 0.0
H2138 H 0.19542 0.22312 0.70431 0.0
C2139 C 0.28074 0.17589 0.71166 0.0
C2140 C 0.30328 0.17573 0.69913 0.0
C2141 C 0.3034 0.17864 0.67351 0.0
C2142 C 0.28185 0.1838 0.66096 0.0
C2143 C 0.26025 0.18596 0.67418 0.0
C2144 C 0.25939 0.18166 0.69898 0.0
C2145 C 0.23545 0.19023 0.70979 0.0
C2146 C 0.21977 0.16842 0.71797 0.0
C2147 C 0.23964 0.2083 0.73094 0.0
C2148 C 0.22434 0.20259 0.68782 0.0
C2149 C 0.23844 0.19899 0.66724 0.0
C2150 C 0.23447 0.21212 0.64593 0.0
C2151 C 0.21659 0.23023 0.64598 0.0
C2152 C 0.20275 0.23512 0.66723 0.0
C2153 C 0.20578 0.22001 0.68783 0.0
H2154 H 0.79026 0.18787 0.7213 0.0
H2155 H 0.78458 0.21447 0.64724 0.0
H2156 H 0.82293 0.23753 0.65259 0.0
H2157 H 0.80082 0.2418 0.74449 0.0
H2158 H 0.8212 0.23273 0.7686 0.0
H2159 H 0.79957 0.21132 0.7567 0.0
H2160 H 0.83434 0.18117 0.74654 0.0
H2161 H 0.85636 0.20245 0.75872 0.0
H2162 H 0.85978 0.19109 0.72814 0.0
H2163 H 0.85729 0.26395 0.66849 0.0
H2164 H 0.87869 0.29422 0.69334 0.0
H2165 H 0.85667 0.25423 0.75834 0.0
C2166 C 0.79738 0.19802 0.70595 0.0
C2167 C 0.78427 0.19935 0.68391 0.0
C2168 C 0.79439 0.21275 0.66424 0.0
C2169 C 0.81627 0.22595 0.66711 0.0
C2170 C 0.82787 0.22554 0.68972 0.0
C2171 C 0.81869 0.21181 0.70879 0.0
C2172 C 0.83092 0.21835 0.73256 0.0
C2173 C 0.81201 0.22656 0.75169 0.0
C2174 C 0.84627 0.19699 0.74204 0.0
C2175 C 0.84708 0.23922 0.72427 0.0
C2176 C 0.84608 0.24231 0.6994 0.0
C2177 C 0.85807 0.26167 0.68803 0.0
C2178 C 0.86991 0.27917 0.70258 0.0
C2179 C 0.86859 0.27806 0.72844 0.0
C2180 C 0.85836 0.25666 0.73898 0.0
H2181 H 0.76237 0.84793 0.73144 0.0
H2182 H 0.72314 0.86537 0.66481 0.0
H2183 H 0.75235 0.84067 0.64197 0.0
H2184 H 0.82598 0.84449 0.70105 0.0
H2185 H 0.83402 0.82049 0.72192 0.0
H2186 H 0.81442 0.84493 0.73176 0.0
H2187 H 0.78178 0.81317 0.74502 0.0
H2188 H 0.80114 0.78891 0.73523 0.0
H2189 H 0.77069 0.79133 0.72306 0.0
H2190 H 0.77671 0.80409 0.62926 0.0
H2191 H 0.79704 0.76419 0.62741 0.0
H2192 H 0.82389 0.77461 0.70088 0.0
C2193 C 0.75999 0.84796 0.71201 0.0
C2194 C 0.73901 0.85796 0.70061 0.0
C2195 C 0.73788 0.85698 0.67476 0.0
C2196 C 0.7548 0.84323 0.66134 0.0
C2197 C 0.77363 0.83158 0.67374 0.0
C2198 C 0.77692 0.83477 0.69841 0.0
C2199 C 0.79659 0.81811 0.7082 0.0
C2200 C 0.81909 0.83289 0.71619 0.0
C2201 C 0.78695 0.80193 0.72909 0.0
C2202 C 0.80203 0.80325 0.68575 0.0
C2203 C 0.78904 0.81156 0.66585 0.0
C2204 C 0.78779 0.79806 0.64438 0.0
C2205 C 0.79945 0.77531 0.64351 0.0
C2206 C 0.81217 0.76619 0.66404 0.0
C2207 C 0.81433 0.78101 0.6849 0.0
H2208 H 0.30968 0.24246 0.19707 0.0
H2209 H 0.384 0.26155 0.21665 0.0
H2210 H 0.38325 0.2304 0.24899 0.0
H2211 H 0.28804 0.24043 0.25328 0.0
H2212 H 0.26706 0.21531 0.24942 0.0
H2213 H 0.27574 0.23344 0.22366 0.0
H2214 H 0.29053 0.19468 0.2011 0.0
H2215 H 0.28178 0.17631 0.22693 0.0
H2216 H 0.31257 0.17499 0.21537 0.0
H2217 H 0.37109 0.20559 0.28495 0.0
H2218 H 0.34872 0.18982 0.32062 0.0
H2219 H 0.28259 0.18528 0.27752 0.0
C2220 C 0.32607 0.23944 0.20763 0.0
C2221 C 0.3469 0.25433 0.2043 0.0
C2222 C 0.36797 0.25006 0.21858 0.0
C2223 C 0.36769 0.23239 0.23703 0.0
C2224 C 0.34636 0.21889 0.24073 0.0
C2225 C 0.32602 0.22196 0.22613 0.0
C2226 C 0.3042 0.20813 0.23603 0.0
C2227 C 0.28252 0.22536 0.24089 0.0
C2228 C 0.29685 0.18728 0.21883 0.0
C2229 C 0.31487 0.19835 0.25942 0.0
C2230 C 0.33938 0.20417 0.26156 0.0
C2231 C 0.35213 0.20021 0.28317 0.0
C2232 C 0.33928 0.19113 0.30337 0.0
C2233 C 0.3139 0.1863 0.30183 0.0
C2234 C 0.30201 0.18872 0.27918 0.0
H2235 H 0.76927 0.37945 0.23785 0.0
H2236 H 0.80326 0.33007 0.18682 0.0
H2237 H 0.83617 0.32199 0.21633 0.0
H2238 H 0.82914 0.39978 0.27114 0.0
H2239 H 0.81302 0.39984 0.29975 0.0
H2240 H 0.79743 0.40838 0.27215 0.0
H2241 H 0.76433 0.37562 0.28085 0.0
H2242 H 0.77982 0.36683 0.30813 0.0
H2243 H 0.77339 0.34432 0.28507 0.0
H2244 H 0.85749 0.31039 0.25366 0.0
H2245 H 0.86571 0.29662 0.29561 0.0
H2246 H 0.8185 0.35316 0.32356 0.0
C2247 C 0.78451 0.36812 0.2325 0.0
C2248 C 0.78417 0.35573 0.21004 0.0
C2249 C 0.80359 0.34002 0.20384 0.0
C2250 C 0.82235 0.33541 0.22048 0.0
C2251 C 0.82145 0.34672 0.24319 0.0
C2252 C 0.8032 0.3631 0.24912 0.0
C2253 C 0.80365 0.36918 0.27602 0.0
C2254 C 0.81127 0.39588 0.28 0.0
C2255 C 0.77884 0.36363 0.28821 0.0
C2256 C 0.82338 0.35195 0.28465 0.0
C2257 C 0.83403 0.3398 0.2653 0.0
C2258 C 0.84998 0.32037 0.26889 0.0
C2259 C 0.8545 0.31259 0.29273 0.0
C2260 C 0.84306 0.32419 0.31264 0.0
C2261 C 0.82811 0.34465 0.30859 0.0
H2262 H 0.68574 0.77 0.20342 0.0
H2263 H 0.61382 0.74973 0.22935 0.0
H2264 H 0.61879 0.77776 0.26439 0.0
H2265 H 0.71329 0.76568 0.25626 0.0
H2266 H 0.73457 0.79061 0.25276 0.0
H2267 H 0.72261 0.77556 0.22637 0.0
H2268 H 0.70655 0.81667 0.20961 0.0
H2269 H 0.71887 0.83207 0.23589 0.0
H2270 H 0.68704 0.83533 0.22827 0.0
H2271 H 0.63568 0.79981 0.30096 0.0
H2272 H 0.66227 0.81346 0.33469 0.0
H2273 H 0.72328 0.8191 0.28464 0.0
C2274 C 0.67063 0.77238 0.21594 0.0
C2275 C 0.64938 0.75796 0.21379 0.0
C2276 C 0.63008 0.76098 0.23059 0.0
C2277 C 0.63281 0.77682 0.25053 0.0
C2278 C 0.65479 0.78965 0.25304 0.0
C2279 C 0.67322 0.78785 0.23588 0.0
C2280 C 0.6965 0.80003 0.24441 0.0
C2281 C 0.71797 0.78189 0.24499 0.0
C2282 C 0.70259 0.82236 0.22861 0.0
C2283 C 0.6889 0.80758 0.26971 0.0
C2284 C 0.66463 0.80207 0.27424 0.0
C2285 C 0.6545 0.80478 0.29739 0.0
C2286 C 0.66973 0.81256 0.31646 0.0
C2287 C 0.69486 0.81719 0.31225 0.0
C2288 C 0.70415 0.8156 0.28838 0.0
H2289 H 0.24226 0.67145 0.18844 0.0
H2290 H 0.23165 0.7422 0.15506 0.0
H2291 H 0.19916 0.75112 0.18483 0.0
H2292 H 0.17498 0.6622 0.20967 0.0
H2293 H 0.18585 0.64768 0.23699 0.0
H2294 H 0.20222 0.64389 0.20876 0.0
H2295 H 0.24169 0.65938 0.22967 0.0
H2296 H 0.22557 0.66364 0.25767 0.0
H2297 H 0.24176 0.68892 0.24411 0.0
H2298 H 0.17788 0.75697 0.2242 0.0
H2299 H 0.16759 0.75789 0.26801 0.0
H2300 H 0.19039 0.68275 0.27496 0.0
C2301 C 0.23211 0.6882 0.18638 0.0
C2302 C 0.23951 0.70611 0.16941 0.0
C2303 C 0.22637 0.72824 0.16799 0.0
C2304 C 0.20775 0.73339 0.18474 0.0
C2305 C 0.20212 0.71599 0.20242 0.0
C2306 C 0.21351 0.69352 0.20292 0.0
C2307 C 0.20726 0.67957 0.22587 0.0
C2308 C 0.19164 0.657 0.21996 0.0
C2309 C 0.23044 0.67251 0.24015 0.0
C2310 C 0.19245 0.69854 0.23921 0.0
C2311 C 0.1891 0.71921 0.22517 0.0
C2312 C 0.17951 0.74058 0.23504 0.0
C2313 C 0.17384 0.74102 0.25992 0.0
C2314 C 0.1778 0.72023 0.2746 0.0
C2315 C 0.18635 0.69855 0.26387 0.0
H2316 H 0.27718 0.84248 0.73308 0.0
H2317 H 0.3487 0.8407 0.69908 0.0
H2318 H 0.3675 0.8333 0.73883 0.0
H2319 H 0.29796 0.86366 0.7971 0.0
H2320 H 0.27621 0.84309 0.81087 0.0
H2321 H 0.26917 0.85767 0.78233 0.0
H2322 H 0.261 0.81535 0.76283 0.0
H2323 H 0.26797 0.80078 0.7911 0.0
H2324 H 0.28452 0.79246 0.764 0.0
H2325 H 0.37733 0.81456 0.77789 0.0
H2326 H 0.3767 0.78464 0.81123 0.0
H2327 H 0.29914 0.79659 0.82092 0.0
C2328 C 0.29688 0.8413 0.73415 0.0
C2329 C 0.31138 0.84219 0.71292 0.0
C2330 C 0.33711 0.8406 0.71505 0.0
C2331 C 0.34802 0.83638 0.73767 0.0
C2332 C 0.33303 0.83387 0.75803 0.0
C2333 C 0.30794 0.8365 0.7565 0.0
C2334 C 0.2954 0.82784 0.7795 0.0
C2335 C 0.28402 0.84935 0.79327 0.0
C2336 C 0.27613 0.80793 0.77401 0.0
C2337 C 0.31708 0.81773 0.79317 0.0
C2338 C 0.33876 0.82235 0.781 0.0
C2339 C 0.36064 0.81151 0.78804 0.0
C2340 C 0.36014 0.79453 0.80706 0.0
C2341 C 0.33782 0.78837 0.81855 0.0
C2342 C 0.31642 0.80119 0.81245 0.0
H2343 H 0.20466 0.33614 0.70008 0.0
H2344 H 0.15777 0.28327 0.73549 0.0
H2345 H 0.16851 0.30064 0.77555 0.0
H2346 H 0.2513 0.32981 0.73751 0.0
H2347 H 0.26155 0.36109 0.73826 0.0
H2348 H 0.24463 0.3501 0.71257 0.0
H2349 H 0.21267 0.38428 0.71861 0.0
H2350 H 0.22965 0.39551 0.74443 0.0
H2351 H 0.1978 0.38771 0.74768 0.0
H2352 H 0.19137 0.31604 0.8108 0.0
H2353 H 0.22509 0.32768 0.83833 0.0
H2354 H 0.25779 0.37096 0.78104 0.0
C2355 C 0.19574 0.32921 0.71627 0.0
C2356 C 0.18001 0.30885 0.7149 0.0
C2357 C 0.16949 0.29922 0.73634 0.0
C2358 C 0.17543 0.30904 0.75911 0.0
C2359 C 0.19193 0.32847 0.76008 0.0
C2360 C 0.20181 0.33864 0.73918 0.0
C2361 C 0.22231 0.35628 0.74524 0.0
C2362 C 0.24634 0.34885 0.73267 0.0
C2363 C 0.21517 0.3825 0.7386 0.0
C2364 C 0.22368 0.35303 0.77258 0.0
C2365 C 0.20549 0.33749 0.78086 0.0
C2366 C 0.20514 0.3289 0.80475 0.0
C2367 C 0.2243 0.33559 0.82028 0.0
C2368 C 0.24348 0.35071 0.81185 0.0
C2369 C 0.24269 0.36023 0.78806 0.0
H2370 H 0.72947 0.17616 0.7507 0.0
H2371 H 0.6719 0.20036 0.70236 0.0
H2372 H 0.64721 0.21254 0.73769 0.0
H2373 H 0.68753 0.15742 0.80394 0.0
H2374 H 0.70956 0.16874 0.82557 0.0
H2375 H 0.71972 0.15559 0.79725 0.0
H2376 H 0.74417 0.19509 0.78762 0.0
H2377 H 0.73419 0.20821 0.81576 0.0
H2378 H 0.72851 0.22394 0.78757 0.0
H2379 H 0.63453 0.23225 0.77573 0.0
H2380 H 0.63553 0.25788 0.81157 0.0
H2381 H 0.69769 0.21675 0.83883 0.0
C2382 C 0.71135 0.18336 0.74764 0.0
C2383 C 0.70264 0.18727 0.72378 0.0
C2384 C 0.67888 0.19683 0.72044 0.0
C2385 C 0.66466 0.20377 0.74046 0.0
C2386 C 0.67422 0.20065 0.76374 0.0
C2387 C 0.69689 0.19027 0.76746 0.0
C2388 C 0.70454 0.19227 0.79386 0.0
C2389 C 0.70538 0.16699 0.80587 0.0
C2390 C 0.72928 0.20568 0.79632 0.0
C2391 C 0.68367 0.20729 0.80392 0.0
C2392 C 0.66612 0.21145 0.7864 0.0
C2393 C 0.64774 0.22853 0.78988 0.0
C2394 C 0.64846 0.2431 0.81079 0.0
C2395 C 0.6674 0.24047 0.82834 0.0
C2396 C 0.68359 0.22052 0.82566 0.0
H2397 H 0.83472 0.71183 0.73393 0.0
H2398 H 0.79532 0.65948 0.68973 0.0
H2399 H 0.77917 0.63988 0.72693 0.0
H2400 H 0.8474 0.66876 0.7872 0.0
H2401 H 0.84309 0.69318 0.80871 0.0
H2402 H 0.85571 0.69955 0.77905 0.0
H2403 H 0.82178 0.73155 0.77153 0.0
H2404 H 0.80916 0.72532 0.80102 0.0
H2405 H 0.79021 0.72247 0.77439 0.0
H2406 H 0.75948 0.63323 0.76731 0.0
H2407 H 0.73899 0.6397 0.80633 0.0
H2408 H 0.79558 0.69161 0.82675 0.0
C2409 C 0.82339 0.6957 0.73219 0.0
C2410 C 0.81637 0.68705 0.70902 0.0
C2411 C 0.80121 0.66614 0.70732 0.0
C2412 C 0.79197 0.6549 0.72837 0.0
C2413 C 0.79855 0.66439 0.751 0.0
C2414 C 0.81434 0.68405 0.75304 0.0
C2415 C 0.81634 0.69254 0.77919 0.0
C2416 C 0.84218 0.68824 0.78913 0.0
C2417 C 0.80892 0.71954 0.78166 0.0
C2418 C 0.79793 0.67572 0.79129 0.0
C2419 C 0.78804 0.65945 0.77479 0.0
C2420 C 0.76766 0.64527 0.78063 0.0
C2421 C 0.75619 0.64897 0.80318 0.0
C2422 C 0.76519 0.66662 0.81987 0.0
C2423 C 0.78761 0.67846 0.81441 0.0
H2424 H 0.31864 0.34199 0.21737 0.0
H2425 H 0.28302 0.32078 0.15047 0.0
H2426 H 0.24518 0.34161 0.16386 0.0
H2427 H 0.27311 0.32773 0.25403 0.0
H2428 H 0.27682 0.35219 0.27563 0.0
H2429 H 0.30244 0.3423 0.25797 0.0
H2430 H 0.30888 0.38633 0.2419 0.0
H2431 H 0.28314 0.39644 0.25969 0.0
H2432 H 0.28396 0.40202 0.22738 0.0
H2433 H 0.20945 0.35638 0.18824 0.0
H2434 H 0.17939 0.36195 0.22153 0.0
H2435 H 0.23839 0.37306 0.27259 0.0
C2436 C 0.30316 0.34286 0.20515 0.0
C2437 C 0.30359 0.33043 0.18279 0.0
C2438 C 0.28295 0.33081 0.16744 0.0
C2439 C 0.2615 0.34262 0.17491 0.0
C2440 C 0.26124 0.35403 0.19764 0.0
C2441 C 0.28172 0.35444 0.21242 0.0
C2442 C 0.27587 0.36412 0.23748 0.0
C2443 C 0.28242 0.34547 0.25742 0.0
C2444 C 0.28872 0.38869 0.24186 0.0
C2445 C 0.24859 0.36737 0.23519 0.0
C2446 C 0.24051 0.36228 0.21188 0.0
C2447 C 0.21563 0.36114 0.20633 0.0
C2448 C 0.19867 0.36437 0.22525 0.0
C2449 C 0.20681 0.36831 0.2493 0.0
C2450 C 0.23194 0.37072 0.25411 0.0
H2451 H 0.19554 0.6965 0.76989 0.0
H2452 H 0.22849 0.62818 0.74816 0.0
H2453 H 0.25962 0.63309 0.78035 0.0
H2454 H 0.2475 0.72758 0.77413 0.0
H2455 H 0.23939 0.7464 0.79974 0.0
H2456 H 0.21592 0.73423 0.78046 0.0
H2457 H 0.1949 0.71394 0.81766 0.0
H2458 H 0.21828 0.72631 0.83724 0.0
H2459 H 0.2122 0.69398 0.83712 0.0
H2460 H 0.29222 0.65016 0.80777 0.0
H2461 H 0.32231 0.67718 0.82783 0.0
H2462 H 0.26816 0.73449 0.83142 0.0
C2463 C 0.20884 0.68217 0.77246 0.0
C2464 C 0.20968 0.66201 0.75655 0.0
C2465 C 0.22735 0.64364 0.76035 0.0
C2466 C 0.24513 0.64632 0.77858 0.0
C2467 C 0.24474 0.6673 0.79297 0.0
C2468 C 0.22675 0.68474 0.79031 0.0
C2469 C 0.23225 0.7073 0.80516 0.0
C2470 C 0.23387 0.73019 0.7889 0.0
C2471 C 0.21328 0.71056 0.82551 0.0
C2472 C 0.25688 0.70053 0.81542 0.0
C2473 C 0.2636 0.67719 0.80872 0.0
C2474 C 0.28686 0.66818 0.8137 0.0
C2475 C 0.30385 0.68364 0.82515 0.0
C2476 C 0.29752 0.70791 0.83119 0.0
C2477 C 0.27345 0.71599 0.82706 0.0
H2478 H 0.31799 0.20122 0.78352 0.0
H2479 H 0.38726 0.22792 0.75534 0.0
H2480 H 0.38743 0.26031 0.78589 0.0
H2481 H 0.29192 0.25564 0.7864 0.0
H2482 H 0.27428 0.25093 0.81372 0.0
H2483 H 0.28303 0.22528 0.79551 0.0
H2484 H 0.30384 0.20558 0.83298 0.0
H2485 H 0.29512 0.23135 0.85138 0.0
H2486 H 0.32672 0.22244 0.8496 0.0
H2487 H 0.3759 0.29503 0.81095 0.0
H2488 H 0.3528 0.32969 0.82675 0.0
H2489 H 0.2907 0.28205 0.84037 0.0
C2490 C 0.33353 0.21347 0.78422 0.0
C2491 C 0.35272 0.21167 0.76709 0.0
C2492 C 0.37263 0.22824 0.76858 0.0
C2493 C 0.3729 0.24686 0.78595 0.0
C2494 C 0.35319 0.24879 0.80181 0.0
C2495 C 0.33389 0.23244 0.80124 0.0
C2496 C 0.31298 0.24105 0.81709 0.0
C2497 C 0.28918 0.24338 0.80229 0.0
C2498 C 0.30947 0.2241 0.83907 0.0
C2499 C 0.32274 0.26572 0.82493 0.0
C2500 C 0.3463 0.26945 0.81661 0.0
C2501 C 0.35777 0.29211 0.81829 0.0
C2502 C 0.34445 0.31178 0.82748 0.0
C2503 C 0.3198 0.30872 0.83482 0.0
C2504 C 0.30946 0.28503 0.83483 0.0
H2505 H 0.74066 0.26591 0.82829 0.0
H2506 H 0.73506 0.32447 0.8812 0.0
H2507 H 0.77848 0.33488 0.87354 0.0
H2508 H 0.80436 0.24758 0.84355 0.0
H2509 H 0.81039 0.2408 0.81206 0.0
H2510 H 0.78018 0.23625 0.82433 0.0
H2511 H 0.76231 0.26354 0.7908 0.0
H2512 H 0.79194 0.26938 0.77824 0.0
H2513 H 0.77312 0.29449 0.78754 0.0
H2514 H 0.82069 0.34268 0.85389 0.0
H2515 H 0.85544 0.34658 0.82517 0.0
H2516 H 0.8323 0.27972 0.78974 0.0
C2517 C 0.74849 0.28005 0.83958 0.0
C2518 C 0.73414 0.29395 0.8558 0.0
C2519 C 0.74545 0.31344 0.8686 0.0
C2520 C 0.77023 0.31933 0.86459 0.0
C2521 C 0.78362 0.30514 0.84825 0.0
C2522 C 0.77303 0.2856 0.83637 0.0
C2523 C 0.7899 0.27448 0.81784 0.0
C2524 C 0.7966 0.24822 0.82488 0.0
C2525 C 0.77864 0.27556 0.79213 0.0
C2526 C 0.8115 0.29139 0.82025 0.0
C2527 C 0.80785 0.30896 0.83791 0.0
C2528 C 0.82401 0.32857 0.84055 0.0
C2529 C 0.84371 0.33067 0.82413 0.0
C2530 C 0.84697 0.31327 0.80531 0.0
C2531 C 0.83117 0.29289 0.80435 0.0
H2532 H 0.75062 0.74295 0.81633 0.0
H2533 H 0.69697 0.74857 0.87454 0.0
H2534 H 0.68681 0.78987 0.86015 0.0
H2535 H 0.77116 0.80794 0.82013 0.0
H2536 H 0.77607 0.80889 0.78779 0.0
H2537 H 0.78117 0.78098 0.8043 0.0
H2538 H 0.7518 0.75799 0.77607 0.0
H2539 H 0.74522 0.785 0.75908 0.0
H2540 H 0.72066 0.76817 0.773 0.0
H2541 H 0.67713 0.82733 0.83308 0.0
H2542 H 0.67206 0.85693 0.79927 0.0
H2543 H 0.73618 0.82694 0.76417 0.0
C2544 C 0.73772 0.75279 0.82739 0.0
C2545 C 0.72471 0.74169 0.84675 0.0
C2546 C 0.70701 0.75593 0.85926 0.0
C2547 C 0.70128 0.77971 0.85143 0.0
C2548 C 0.71408 0.78949 0.83172 0.0
C2549 C 0.73249 0.77657 0.8205 0.0
C2550 C 0.74261 0.7898 0.79867 0.0
C2551 C 0.76933 0.79734 0.80298 0.0
C2552 C 0.7399 0.77432 0.77537 0.0
C2553 C 0.72606 0.81166 0.79834 0.0
C2554 C 0.70971 0.81149 0.81751 0.0
C2555 C 0.69042 0.8281 0.81851 0.0
C2556 C 0.68761 0.84481 0.7992 0.0
C2557 C 0.70408 0.84478 0.77927 0.0
C2558 C 0.72388 0.8284 0.77951 0.0
H2559 H 0.7184 0.71651 0.18059 0.0
H2560 H 0.67429 0.65147 0.18965 0.0
H2561 H 0.71096 0.62882 0.20328 0.0
H2562 H 0.77817 0.6853 0.16375 0.0
H2563 H 0.79516 0.70755 0.18103 0.0
H2564 H 0.7673 0.7162 0.16591 0.0
H2565 H 0.75013 0.73211 0.20689 0.0
H2566 H 0.77763 0.72329 0.22217 0.0
H2567 H 0.74857 0.71176 0.23261 0.0
H2568 H 0.75011 0.61656 0.22474 0.0
H2569 H 0.78711 0.61581 0.25056 0.0
H2570 H 0.8055 0.68894 0.22672 0.0
C2571 C 0.71674 0.6972 0.18445 0.0
C2572 C 0.6937 0.68562 0.18399 0.0
C2573 C 0.69193 0.66051 0.18958 0.0
C2574 C 0.71265 0.64758 0.19739 0.0
C2575 C 0.73495 0.66001 0.19911 0.0
C2576 C 0.73712 0.68423 0.19233 0.0
C2577 C 0.76186 0.69462 0.19899 0.0
C2578 C 0.77649 0.7013 0.17605 0.0
C2579 C 0.75938 0.71672 0.21618 0.0
C2580 C 0.77289 0.67296 0.21183 0.0
C2581 C 0.75741 0.65296 0.21137 0.0
C2582 C 0.76264 0.63188 0.22461 0.0
C2583 C 0.78376 0.63157 0.23919 0.0
C2584 C 0.79921 0.65231 0.2406 0.0
C2585 C 0.79409 0.67278 0.22593 0.0
H2586 H 0.34338 0.71704 0.18304 0.0
H2587 H 0.3034 0.76715 0.13738 0.0
H2588 H 0.32147 0.8019 0.15952 0.0
H2589 H 0.3309 0.74194 0.23379 0.0
H2590 H 0.35945 0.73831 0.24965 0.0
H2591 H 0.35179 0.71807 0.22525 0.0
H2592 H 0.39168 0.72932 0.20248 0.0
H2593 H 0.39999 0.74925 0.22726 0.0
H2594 H 0.3989 0.76088 0.19661 0.0
H2595 H 0.33225 0.82909 0.19354 0.0
H2596 H 0.33853 0.84682 0.23455 0.0
H2597 H 0.37188 0.77968 0.25849 0.0
C2598 C 0.33983 0.73537 0.17669 0.0
C2599 C 0.32229 0.73955 0.15844 0.0
C2600 C 0.31707 0.76371 0.15118 0.0
C2601 C 0.32726 0.78353 0.16367 0.0
C2602 C 0.34288 0.77884 0.18312 0.0
C2603 C 0.34973 0.75531 0.18919 0.0
C2604 C 0.36299 0.75475 0.21335 0.0
C2605 C 0.35051 0.73726 0.23155 0.0
C2606 C 0.39 0.74817 0.2097 0.0
C2607 C 0.36033 0.78108 0.22103 0.0
C2608 C 0.34936 0.79489 0.20305 0.0
C2609 C 0.34173 0.81878 0.20737 0.0
C2610 C 0.34517 0.82866 0.23066 0.0
C2611 C 0.356 0.81457 0.24917 0.0
C2612 C 0.36416 0.79082 0.24419 0.0
H2613 H 0.74108 0.28338 0.18321 0.0
H2614 H 0.67609 0.32808 0.19007 0.0
H2615 H 0.65321 0.29279 0.20484 0.0
H2616 H 0.70862 0.22155 0.17334 0.0
H2617 H 0.73069 0.20668 0.19253 0.0
H2618 H 0.73979 0.23225 0.17391 0.0
H2619 H 0.75634 0.25427 0.21224 0.0
H2620 H 0.7471 0.22907 0.23093 0.0
H2621 H 0.73617 0.25928 0.2377 0.0
H2622 H 0.64061 0.25806 0.22951 0.0
H2623 H 0.63937 0.22678 0.26127 0.0
H2624 H 0.71219 0.20335 0.24074 0.0
C2625 C 0.72184 0.28562 0.18712 0.0
C2626 C 0.7106 0.30873 0.18537 0.0
C2627 C 0.68529 0.31067 0.19057 0.0
C2628 C 0.672 0.29059 0.19916 0.0
C2629 C 0.68416 0.26862 0.20252 0.0
C2630 C 0.7085 0.26588 0.19639 0.0
C2631 C 0.71852 0.24208 0.20614 0.0
C2632 C 0.72477 0.2246 0.18523 0.0
C2633 C 0.74082 0.24646 0.22274 0.0
C2634 C 0.69666 0.23297 0.22043 0.0
C2635 C 0.67678 0.24812 0.2174 0.0
C2636 C 0.6557 0.24553 0.23137 0.0
C2637 C 0.65516 0.22755 0.24942 0.0
C2638 C 0.67564 0.21236 0.25348 0.0
C2639 C 0.69622 0.21459 0.23806 0.0
H2640 H 0.96865 0.31855 0.41289 0.0
H2641 H 0.91599 0.3087 0.35513 0.0
H2642 H 0.94686 0.3235 0.32514 0.0
H2643 H 0.99123 0.37346 0.39282 0.0
H2644 H 0.02235 0.36831 0.4021 0.0
H2645 H 0.99776 0.35315 0.41775 0.0
H2646 H 0.01713 0.31117 0.40899 0.0
H2647 H 0.04216 0.32613 0.39368 0.0
H2648 H 0.02472 0.30293 0.37815 0.0
H2649 H 0.98405 0.34523 0.30207 0.0
H2650 H 0.02139 0.36822 0.28973 0.0
H2651 H 0.04793 0.36348 0.36389 0.0
C2652 C 0.96392 0.31842 0.39375 0.0
C2653 C 0.94005 0.3116 0.38635 0.0
C2654 C 0.93436 0.31279 0.36122 0.0
C2655 C 0.95178 0.32159 0.3441 0.0
C2656 C 0.97493 0.32911 0.35229 0.0
C2657 C 0.98095 0.32717 0.37665 0.0
C2658 C 1.00598 0.33801 0.3817 0.0
C2659 C 1.0042 0.3595 0.39964 0.0
C2660 C 0.02354 0.31838 0.39118 0.0
C2661 C 0.01329 0.34668 0.3565 0.0
C2662 C 0.99537 0.34147 0.33958 0.0
C2663 C 0.99817 0.34901 0.31531 0.0
C2664 C 0.01956 0.36211 0.30837 0.0
C2665 C 0.03804 0.36781 0.3256 0.0
C2666 C 0.03455 0.35957 0.34992 0.0
H2667 H 0.6585 0.95397 0.36729 0.0
H2668 H 0.73633 0.96876 0.36945 0.0
H2669 H 0.72915 1.00761 0.34707 0.0
H2670 H 0.64596 0.97901 0.30756 0.0
H2671 H 0.61683 0.99119 0.31669 0.0
H2672 H 0.62864 0.96435 0.33137 0.0
H2673 H 0.62477 0.98535 0.37337 0.0
H2674 H 0.61269 0.01208 0.35881 0.0
H2675 H 0.63914 0.0146 0.37817 0.0
H2676 H 0.71157 0.04737 0.32507 0.0
H2677 H 0.6867 0.08215 0.31018 0.0
H2678 H 0.62087 0.04043 0.32336 0.0
C2679 C 0.67432 0.96506 0.36295 0.0
C2680 C 0.69822 0.95767 0.37022 0.0
C2681 C 0.71792 0.97349 0.36416 0.0
C2682 C 0.71392 0.99572 0.35133 0.0
C2683 C 0.69005 1.00226 0.34454 0.0
C2684 C 0.67063 0.9872 0.35038 0.0
C2685 C 0.6465 0.99843 0.34242 0.0
C2686 C 0.63374 0.98228 0.32338 0.0
C2687 C 0.6298 1.00288 0.3645 0.0
C2688 C 0.65506 0.02237 0.33121 0.0
C2689 C 0.68026 0.02432 0.3323 0.0
C2690 C 0.69192 0.04557 0.3239 0.0
C2691 C 0.67762 0.06525 0.31502 0.0
C2692 C 0.65173 0.06387 0.31432 0.0
C2693 C 0.64059 0.04183 0.32241 0.0
H2694 H 0.9557 0.64254 0.3667 0.0
H2695 H 0.98185 0.64286 0.29218 0.0
H2696 H 0.01934 0.66439 0.30554 0.0
H2697 H 0.97941 0.70276 0.38336 0.0
H2698 H 0.98754 0.69382 0.41384 0.0
H2699 H 0.96259 0.67882 0.39849 0.0
H2700 H 0.98311 0.63707 0.40559 0.0
H2701 H 1.00815 0.65193 0.42093 0.0
H2702 H 0.014 0.63235 0.39526 0.0
H2703 H 0.05534 0.68493 0.32749 0.0
H2704 H 0.0858 0.70302 0.35533 0.0
H2705 H 0.03667 0.69137 0.41613 0.0
C2706 C 0.96917 0.64728 0.35305 0.0
C2707 C 0.96535 0.64087 0.3281 0.0
C2708 C 0.98385 0.6475 0.31122 0.0
C2709 C 1.00539 0.65976 0.31873 0.0
C2710 C 1.00854 0.66563 0.34335 0.0
C2711 C 0.99083 0.65972 0.36026 0.0
C2712 C 0.99885 0.668 0.38568 0.0
C2713 C 0.98104 0.68698 0.39595 0.0
C2714 C 1.00116 0.64603 0.40288 0.0
C2715 C 0.02387 0.67945 0.38051 0.0
C2716 C 0.02907 0.67774 0.35592 0.0
C2717 C 0.05127 0.68636 0.3467 0.0
C2718 C 0.0686 0.69662 0.36278 0.0
C2719 C 0.06396 0.69881 0.38809 0.0
C2720 C 0.04096 0.69024 0.39694 0.0
H2721 H 0.40901 0.9739 0.34117 0.0
H2722 H 0.34678 0.94057 0.30577 0.0
H2723 H 0.32029 0.97396 0.32142 0.0
H2724 H 0.37943 0.99187 0.39456 0.0
H2725 H 0.39591 0.02019 0.39794 0.0
H2726 H 0.40979 0.99505 0.38218 0.0
H2727 H 0.41672 0.0221 0.34417 0.0
H2728 H 0.4033 0.04749 0.36 0.0
H2729 H 0.39125 0.03805 0.33097 0.0
H2730 H 0.2997 0.01114 0.34588 0.0
H2731 H 0.28965 0.04791 0.37061 0.0
H2732 H 0.36633 0.05599 0.38844 0.0
C2733 C 0.38993 0.974 0.33599 0.0
C2734 C 0.38025 0.95472 0.32159 0.0
C2735 C 0.35495 0.95535 0.31601 0.0
C2736 C 0.33968 0.9742 0.3252 0.0
C2737 C 0.34983 0.99259 0.33993 0.0
C2738 C 0.37462 0.99271 0.34478 0.0
C2739 C 0.38145 0.01391 0.3613 0.0
C2740 C 0.39228 1.00469 0.38542 0.0
C2741 C 0.39923 0.03142 0.34834 0.0
C2742 C 0.35673 0.02577 0.36537 0.0
C2743 C 0.33849 0.01331 0.35315 0.0
C2744 C 0.31408 0.02097 0.3552 0.0
C2745 C 0.30842 0.04189 0.36951 0.0
C2746 C 0.32703 0.05529 0.38161 0.0
C2747 C 0.35144 0.04662 0.37941 0.0
H2748 H 0.969 0.68896 0.61214 0.0
H2749 H 0.925 0.69805 0.67678 0.0
H2750 H 0.96032 0.68579 0.7023 0.0
H2751 H 0.99814 0.63625 0.63042 0.0
H2752 H 0.0273 0.64332 0.61683 0.0
H2753 H 0.99987 0.65621 0.6044 0.0
H2754 H 0.01765 0.69962 0.60946 0.0
H2755 H 0.04535 0.68686 0.62159 0.0
H2756 H 0.02873 0.70934 0.63878 0.0
H2757 H 1.0008 0.66671 0.72061 0.0
H2758 H 0.04038 0.64602 0.72864 0.0
H2759 H 0.05729 0.65054 0.65163 0.0
C2760 C 0.96716 0.6896 0.63175 0.0
C2761 C 0.94435 0.69573 0.64241 0.0
C2762 C 0.94245 0.69468 0.66813 0.0
C2763 C 0.96246 0.68734 0.68279 0.0
C2764 C 0.98455 0.68089 0.67163 0.0
C2765 C 0.98699 0.68236 0.64659 0.0
C2766 C 0.01187 0.67298 0.63863 0.0
C2767 C 1.00912 0.65088 0.62157 0.0
C2768 C 0.02678 0.69342 0.62641 0.0
C2769 C 0.02303 0.66559 0.66294 0.0
C2770 C 1.00715 0.67021 0.68189 0.0
C2771 C 0.01337 0.66344 0.70578 0.0
C2772 C 0.03607 0.65166 0.71028 0.0
C2773 C 0.05263 0.64659 0.69106 0.0
C2774 C 0.04566 0.65412 0.66714 0.0
H2775 H 0.35508 0.9758 0.61606 0.0
H2776 H 0.30611 0.95365 0.67382 0.0
H2777 H 0.32018 0.98909 0.6987 0.0
H2778 H 0.40436 0.99344 0.65233 0.0
H2779 H 0.4132 0.019 0.63362 0.0
H2780 H 0.39757 0.99339 0.62024 0.0
H2781 H 0.36379 0.02186 0.60366 0.0
H2782 H 0.37963 0.04766 0.61651 0.0
H2783 H 0.34812 0.04201 0.62427 0.0
H2784 H 0.34401 0.02759 0.71869 0.0
H2785 H 0.36992 0.06399 0.72818 0.0
H2786 H 0.4024 0.05858 0.65646 0.0
C2787 C 0.34679 0.97871 0.63373 0.0
C2788 C 0.32907 0.96204 0.6427 0.0
C2789 C 0.31917 0.9664 0.66616 0.0
C2790 C 0.32737 0.98642 0.68055 0.0
C2791 C 0.34547 1.00216 0.6713 0.0
C2792 C 0.35462 0.99853 0.6481 0.0
C2793 C 0.37407 0.01733 0.64194 0.0
C2794 C 0.39875 1.00505 0.63674 0.0
C2795 C 0.36592 0.03315 0.62032 0.0
C2796 C 0.37499 0.03203 0.66533 0.0
C2797 C 0.35849 0.02329 0.68227 0.0
C2798 C 0.3568 0.03444 0.70529 0.0
C2799 C 0.3718 0.05509 0.71071 0.0
C2800 C 0.3884 0.06459 0.69322 0.0
C2801 C 0.38993 0.0523 0.67044 0.0
H2802 H 0.95155 0.36872 0.65844 0.0
H2803 H 0.96187 0.3448 0.73283 0.0
H2804 H 0.99761 0.32031 0.71976 0.0
H2805 H 0.97026 0.3129 0.62776 0.0
H2806 H 0.98594 0.32891 0.60369 0.0
H2807 H 0.96017 0.34276 0.61861 0.0
H2808 H 0.98655 0.38061 0.62929 0.0
H2809 H 0.01224 0.367 0.61412 0.0
H2810 H 0.01492 0.37654 0.64538 0.0
H2811 H 0.03391 0.29868 0.69769 0.0
H2812 H 0.06855 0.28722 0.67078 0.0
H2813 H 0.03541 0.32721 0.61168 0.0
C2814 C 0.96109 0.3581 0.67201 0.0
C2815 C 0.95349 0.35856 0.69673 0.0
C2816 C 0.96707 0.34476 0.71381 0.0
C2817 C 0.9874 0.33066 0.70648 0.0
C2818 C 0.99436 0.33061 0.68194 0.0
C2819 C 0.98168 0.34431 0.66506 0.0
C2820 C 0.9938 0.34286 0.64018 0.0
C2821 C 0.97651 0.33116 0.62146 0.0
C2822 C 1.00239 0.36825 0.63176 0.0
C2823 C 0.01537 0.3263 0.64556 0.0
C2824 C 0.01524 0.31902 0.66964 0.0
C2825 C 0.0339 0.30418 0.67878 0.0
C2826 C 0.05342 0.2974 0.66326 0.0
C2827 C 0.05441 0.30555 0.63882 0.0
C2828 C 0.03482 0.31993 0.62999 0.0
H2829 H 0.64773 0.94796 0.66925 0.0
H2830 H 0.61868 0.96952 0.73946 0.0
H2831 H 0.6371 0.01069 0.73372 0.0
H2832 H 0.7051 0.98191 0.6726 0.0
H2833 H 0.70482 0.98951 0.6407 0.0
H2834 H 0.69057 0.96171 0.65111 0.0
H2835 H 0.64996 0.97447 0.63091 0.0
H2836 H 0.66408 1.00222 0.62035 0.0
H2837 H 0.63666 1.00351 0.63848 0.0
H2838 H 0.65642 0.05139 0.71794 0.0
H2839 H 0.67416 0.08596 0.6948 0.0
H2840 H 0.69169 0.03729 0.63542 0.0
C2841 C 0.64528 0.96113 0.68371 0.0
C2842 C 0.63153 0.95505 0.705 0.0
C2843 C 0.62911 0.97328 0.72313 0.0
C2844 C 0.63953 0.99685 0.71992 0.0
C2845 C 0.65264 1.00213 0.69855 0.0
C2846 C 0.6556 0.98459 0.68083 0.0
C2847 C 0.66977 0.99478 0.65911 0.0
C2848 C 0.694 0.98117 0.65569 0.0
C2849 C 0.65419 0.99368 0.63585 0.0
C2850 C 0.67422 0.02104 0.66707 0.0
C2851 C 0.66421 0.02495 0.68991 0.0
C2852 C 0.66466 0.0482 0.70033 0.0
C2853 C 0.67501 0.06781 0.68708 0.0
C2854 C 0.68534 0.06441 0.66363 0.0
C2855 C 0.68507 0.04046 0.65372 0.0
H2856 H 0.36295 0.41845 0.96382 0.0
H2857 H 0.30454 0.36746 0.94829 0.0
H2858 H 0.3183 0.34147 0.9828 0.0
H2859 H 0.40828 0.37591 0.97931 0.0
H2860 H 0.42145 0.39377 1.00353 0.0
H2861 H 0.40607 0.40869 0.97875 0.0
H2862 H 0.37714 0.4304 0.00896 0.0
H2863 H 0.39281 0.41601 0.03388 0.0
H2864 H 0.36021 0.41256 0.03081 0.0
H2865 H 0.3425 0.31867 0.01877 0.0
H2866 H 0.36883 0.30627 0.05358 0.0
H2867 H 0.40979 0.37353 0.04594 0.0
C2868 C 0.35254 0.40216 0.96808 0.0
C2869 C 0.33214 0.39549 0.95339 0.0
C2870 C 0.31965 0.37358 0.95946 0.0
C2871 C 0.32767 0.35846 0.97896 0.0
C2872 C 0.34824 0.36536 0.99268 0.0
C2873 C 0.36008 0.38713 0.98767 0.0
C2874 C 0.38155 0.3909 1.00493 0.0
C2875 C 0.40576 0.39241 0.99078 0.0
C2876 C 0.37769 0.41382 0.02057 0.0
C2877 C 0.38037 0.36781 0.02037 0.0
C2878 C 0.36126 0.35301 0.01301 0.0
C2879 C 0.35732 0.33042 0.02456 0.0
C2880 C 0.37263 0.32327 0.04428 0.0
C2881 C 0.39175 0.33863 0.05274 0.0
C2882 C 0.39552 0.3611 0.04014 0.0
H2883 H 0.38931 0.66224 0.97875 0.0
H2884 H 0.33748 0.72038 0.9669 0.0
H2885 H 0.31057 0.70275 0.99901 0.0
H2886 H 0.34782 0.61444 0.98934 0.0
H2887 H 0.36525 0.60017 0.01319 0.0
H2888 H 0.38057 0.6178 0.99008 0.0
H2889 H 0.40049 0.64522 0.02288 0.0
H2890 H 0.38572 0.62754 0.04632 0.0
H2891 H 0.38147 0.66007 0.04513 0.0
H2892 H 0.28734 0.67499 0.03173 0.0
H2893 H 0.27436 0.64482 0.06328 0.0
H2894 H 0.34332 0.60748 0.0545 0.0
C2895 C 0.37243 0.6715 0.98309 0.0
C2896 C 0.36562 0.69281 0.97014 0.0
C2897 C 0.34333 0.70424 0.97658 0.0
C2898 C 0.32781 0.69417 0.99475 0.0
C2899 C 0.33492 0.67283 1.00686 0.0
C2900 C 0.35711 0.66206 1.00152 0.0
C2901 C 0.3612 0.63969 0.01727 0.0
C2902 C 0.36387 0.61666 1.00153 0.0
C2903 C 0.38354 0.64335 0.03388 0.0
C2904 C 0.33769 0.63902 0.03197 0.0
C2905 C 0.3225 0.65807 0.02577 0.0
C2906 C 0.29939 0.66024 0.03675 0.0
C2907 C 0.292 0.6429 0.0546 0.0
C2908 C 0.30776 0.62373 0.06167 0.0
C2909 C 0.3308 0.62198 0.04987 0.0
H2910 H 0.66372 0.36873 0.95155 0.0
H2911 H 0.63961 0.29587 0.9711 0.0
H2912 H 0.65737 0.30186 0.01237 0.0
H2913 H 0.72095 0.36902 0.98609 0.0
H2914 H 0.71819 0.4006 0.99469 0.0
H2915 H 0.70532 0.39007 0.96638 0.0
H2916 H 0.66298 0.40648 0.9788 0.0
H2917 H 0.67577 0.41754 1.00686 0.0
H2918 H 0.64976 0.39725 1.00743 0.0
H2919 H 0.6752 0.31809 0.05362 0.0
H2920 H 0.6901 0.3419 0.08895 0.0
H2921 H 0.703 0.40407 0.0422 0.0
C2922 C 0.66235 0.3537 0.96425 0.0
C2923 C 0.65017 0.33155 0.95752 0.0
C2924 C 0.64897 0.31279 0.97525 0.0
C2925 C 0.65899 0.31617 0.99891 0.0
C2926 C 0.67046 0.3384 1.00485 0.0
C2927 C 0.67224 0.35679 0.98782 0.0
C2928 C 0.68447 0.37941 0.99875 0.0
C2929 C 0.70867 0.3851 0.98569 0.0
C2930 C 0.66721 0.40146 0.99791 0.0
C2931 C 0.68902 0.37122 0.02486 0.0
C2932 C 0.68094 0.34743 0.02802 0.0
C2933 C 0.68194 0.33648 0.05098 0.0
C2934 C 0.69073 0.35013 0.07105 0.0
C2935 C 0.69891 0.37462 0.06847 0.0
C2936 C 0.69815 0.38508 0.04479 0.0
H2937 H 0.66312 0.62357 0.94978 0.0
H2938 H 0.73542 0.65561 0.95431 0.0
H2939 H 0.72073 0.68334 0.98702 0.0
H2940 H 0.6274 0.67735 0.96192 0.0
H2941 H 0.60531 0.66191 0.98083 0.0
H2942 H 0.62062 0.64552 0.95698 0.0
H2943 H 0.63627 0.61332 0.98701 0.0
H2944 H 0.62028 0.62861 0.01117 0.0
H2945 H 0.65255 0.62286 0.01388 0.0
H2946 H 0.69646 0.70807 0.02117 0.0
H2947 H 0.66817 0.7223 0.05371 0.0
H2948 H 0.61332 0.67154 0.02785 0.0
C2949 C 0.67592 0.63662 0.95733 0.0
C2950 C 0.70054 0.63743 0.94893 0.0
C2951 C 0.71652 0.65456 0.96003 0.0
C2952 C 0.70822 0.67049 0.9787 0.0
C2953 C 0.68384 0.66905 0.98659 0.0
C2954 C 0.66808 0.65221 0.97627 0.0
C2955 C 0.64333 0.65266 0.98895 0.0
C2956 C 0.62298 0.65981 0.9711 0.0
C2957 C 0.63779 0.6279 1.00097 0.0
C2958 C 0.64735 0.67243 1.00797 0.0
C2959 C 0.67067 0.68205 1.00629 0.0
C2960 C 0.67821 0.70052 0.0224 0.0
C2961 C 0.66189 0.70876 0.0408 0.0
C2962 C 0.63824 0.69839 0.04342 0.0
C2963 C 0.63109 0.68016 0.02638 0.0
loop_
_geom_bond_atom_site_label_1
_geom_bond_atom_site_label_2
_geom_bond_distance
_geom_bond_site_symmetry_2
_ccdc_geom_bond_type
O0 Tb1 2.292 . S
O0 C3 1.255 . S
Tb1 O0 2.292 . S
Tb1 O17 2.326 . S
Tb1 O19 2.500 . S
Tb1 O20 2.473 . S
Tb1 O23 2.324 . S
Eu2 O6 2.292 . S
Eu2 C7 2.852 . S
Eu2 O18 2.324 . S
Eu2 O22 2.326 . S
Eu2 O24 2.500 . S
Eu2 O25 2.473 . S
C3 O0 1.255 . S
C3 O4 1.247 . S
O4 C3 1.247 . S
C5 O17 1.242 . S
C5 O18 1.258 . S
O6 Eu2 2.292 . S
O6 C8 1.255 . S
C7 Eu2 2.852 . S
C7 C11 1.503 . S
C7 O24 1.273 . S
C7 O25 1.257 . S
C8 O6 1.255 . S
C8 O9 1.247 . S
O9 C8 1.247 . S
C10 O22 1.242 . S
C10 O23 1.258 . S
C11 C7 1.503 . S
C11 C12 1.379 . S
C11 C16 1.392 . S
C12 C11 1.379 . S
C12 C13 1.404 . S
C12 H26 0.929 . S
C13 C12 1.404 . S
C13 C14 1.389 . S
C14 C13 1.389 . S
C14 C15 1.399 . S
C14 H27 0.931 . S
C15 C14 1.399 . S
C15 C16 1.390 . S
C16 C11 1.392 . S
C16 C15 1.390 . S
C16 H28 0.929 . S
O17 Tb1 2.326 . S
O17 C5 1.242 . S
O18 Eu2 2.324 . S
O18 C5 1.258 . S
O19 Tb1 2.500 . S
O19 C21 1.273 . S
O20 Tb1 2.473 . S
O20 C21 1.257 . S
C21 O19 1.273 . S
C21 O20 1.257 . S
O22 Eu2 2.326 . S
O22 C10 1.242 . S
O23 Tb1 2.324 . S
O23 C10 1.258 . S
O24 Eu2 2.500 . S
O24 C7 1.273 . S
O25 Eu2 2.473 . S
O25 C7 1.257 . S
H26 C12 0.929 . S
H27 C14 0.931 . S
H28 C16 0.929 . S
O29 Tb30 2.292 . S
O29 C32 1.255 . S
Tb30 O29 2.292 . S
Tb30 O46 2.326 . S
Tb30 O48 2.500 . S
Tb30 O49 2.473 . S
Tb30 O52 2.324 . S
Eu31 O35 2.292 . S
Eu31 C36 2.852 . S
Eu31 O47 2.324 . S
Eu31 O51 2.326 . S
Eu31 O53 2.500 . S
Eu31 O54 2.473 . S
C32 O29 1.255 . S
C32 O33 1.247 . S
O33 C32 1.247 . S
C34 O46 1.242 . S
C34 O47 1.258 . S
O35 Eu31 2.292 . S
O35 C37 1.255 . S
C36 Eu31 2.852 . S
C36 C40 1.503 . S
C36 O53 1.273 . S
C36 O54 1.257 . S
C37 O35 1.255 . S
C37 O38 1.247 . S
O38 C37 1.247 . S
C39 O51 1.242 . S
C39 O52 1.258 . S
C40 C36 1.503 . S
C40 C41 1.379 . S
C40 C45 1.392 . S
C41 C40 1.379 . S
C41 C42 1.404 . S
C41 H55 0.929 . S
C42 C41 1.404 . S
C42 C43 1.389 . S
C43 C42 1.389 . S
C43 C44 1.399 . S
C43 H56 0.931 . S
C44 C43 1.399 . S
C44 C45 1.390 . S
C45 C40 1.392 . S
C45 C44 1.390 . S
C45 H57 0.929 . S
O46 Tb30 2.326 . S
O46 C34 1.242 . S
O47 Eu31 2.324 . S
O47 C34 1.258 . S
O48 Tb30 2.500 . S
O48 C50 1.273 . S
O49 Tb30 2.473 . S
O49 C50 1.257 . S
C50 O48 1.273 . S
C50 O49 1.257 . S
O51 Eu31 2.326 . S
O51 C39 1.242 . S
O52 Tb30 2.324 . S
O52 C39 1.258 . S
O53 Eu31 2.500 . S
O53 C36 1.273 . S
O54 Eu31 2.473 . S
O54 C36 1.257 . S
H55 C41 0.929 . S
H56 C43 0.931 . S
H57 C45 0.929 . S
O58 Tb59 2.292 . S
O58 C61 1.255 . S
Tb59 O58 2.292 . S
Tb59 O75 2.326 . S
Tb59 O77 2.500 . S
Tb59 O78 2.473 . S
Tb59 O81 2.324 . S
Eu60 O64 2.292 . S
Eu60 C65 2.852 . S
Eu60 O76 2.324 . S
Eu60 O80 2.326 . S
Eu60 O82 2.500 . S
Eu60 O83 2.473 . S
C61 O58 1.255 . S
C61 O62 1.247 . S
O62 C61 1.247 . S
C63 O75 1.242 . S
C63 O76 1.258 . S
O64 Eu60 2.292 . S
O64 C66 1.255 . S
C65 Eu60 2.852 . S
C65 C69 1.503 . S
C65 O82 1.273 . S
C65 O83 1.257 . S
C66 O64 1.255 . S
C66 O67 1.247 . S
O67 C66 1.247 . S
C68 O80 1.242 . S
C68 O81 1.258 . S
C69 C65 1.503 . S
C69 C70 1.379 . S
C69 C74 1.392 . S
C70 C69 1.379 . S
C70 C71 1.404 . S
C70 H84 0.929 . S
C71 C70 1.404 . S
C71 C72 1.389 . S
C72 C71 1.389 . S
C72 C73 1.399 . S
C72 H85 0.931 . S
C73 C72 1.399 . S
C73 C74 1.390 . S
C74 C69 1.392 . S
C74 C73 1.390 . S
C74 H86 0.929 . S
O75 Tb59 2.326 . S
O75 C63 1.242 . S
O76 Eu60 2.324 . S
O76 C63 1.258 . S
O77 Tb59 2.500 . S
O77 C79 1.273 . S
O78 Tb59 2.473 . S
O78 C79 1.257 . S
C79 O77 1.273 . S
C79 O78 1.257 . S
O80 Eu60 2.326 . S
O80 C68 1.242 . S
O81 Tb59 2.324 . S
O81 C68 1.258 . S
O82 Eu60 2.500 . S
O82 C65 1.273 . S
O83 Eu60 2.473 . S
O83 C65 1.257 . S
H84 C70 0.929 . S
H85 C72 0.931 . S
H86 C74 0.929 . S
O87 Tb88 2.292 . S
O87 C90 1.255 . S
Tb88 O87 2.292 . S
Tb88 O104 2.326 . S
Tb88 O106 2.500 . S
Tb88 O107 2.473 . S
Tb88 O110 2.324 . S
Eu89 O93 2.292 . S
Eu89 C94 2.852 . S
Eu89 O105 2.324 . S
Eu89 O109 2.326 . S
Eu89 O111 2.500 . S
Eu89 O112 2.473 . S
C90 O87 1.255 . S
C90 O91 1.247 . S
O91 C90 1.247 . S
C92 O104 1.242 . S
C92 O105 1.258 . S
O93 Eu89 2.292 . S
O93 C95 1.255 . S
C94 Eu89 2.852 . S
C94 C98 1.503 . S
C94 O111 1.273 . S
C94 O112 1.257 . S
C95 O93 1.255 . S
C95 O96 1.247 . S
O96 C95 1.247 . S
C97 O109 1.242 . S
C97 O110 1.258 . S
C98 C94 1.503 . S
C98 C99 1.379 . S
C98 C103 1.392 . S
C99 C98 1.379 . S
C99 C100 1.404 . S
C99 H113 0.929 . S
C100 C99 1.404 . S
C100 C101 1.389 . S
C101 C100 1.389 . S
C101 C102 1.399 . S
C101 H114 0.931 . S
C102 C101 1.399 . S
C102 C103 1.390 . S
C103 C98 1.392 . S
C103 C102 1.390 . S
C103 H115 0.929 . S
O104 Tb88 2.326 . S
O104 C92 1.242 . S
O105 Eu89 2.324 . S
O105 C92 1.258 . S
O106 Tb88 2.500 . S
O106 C108 1.273 . S
O107 Tb88 2.473 . S
O107 C108 1.257 . S
C108 O106 1.273 . S
C108 O107 1.257 . S
O109 Eu89 2.326 . S
O109 C97 1.242 . S
O110 Tb88 2.324 . S
O110 C97 1.258 . S
O111 Eu89 2.500 . S
O111 C94 1.273 . S
O112 Eu89 2.473 . S
O112 C94 1.257 . S
H113 C99 0.929 . S
H114 C101 0.931 . S
H115 C103 0.929 . S
O116 Tb117 2.292 . S
O116 C119 1.255 . S
Tb117 O116 2.292 . S
Tb117 O133 2.326 . S
Tb117 O135 2.500 . S
Tb117 O136 2.473 . S
Tb117 O139 2.324 . S
Eu118 O122 2.292 . S
Eu118 C123 2.852 . S
Eu118 O134 2.324 . S
Eu118 O138 2.326 . S
Eu118 O140 2.500 . S
Eu118 O141 2.473 . S
C119 O116 1.255 . S
C119 O120 1.247 . S
O120 C119 1.247 . S
C121 O133 1.242 . S
C121 O134 1.258 . S
O122 Eu118 2.292 . S
O122 C124 1.255 . S
C123 Eu118 2.852 . S
C123 C127 1.503 . S
C123 O140 1.273 . S
C123 O141 1.257 . S
C124 O122 1.255 . S
C124 O125 1.247 . S
O125 C124 1.247 . S
C126 O138 1.242 . S
C126 O139 1.258 . S
C127 C123 1.503 . S
C127 C128 1.379 . S
C127 C132 1.392 . S
C128 C127 1.379 . S
C128 C129 1.404 . S
C128 H142 0.929 . S
C129 C128 1.404 . S
C129 C130 1.389 . S
C130 C129 1.389 . S
C130 C131 1.399 . S
C130 H143 0.931 . S
C131 C130 1.399 . S
C131 C132 1.390 . S
C132 C127 1.392 . S
C132 C131 1.390 . S
C132 H144 0.929 . S
O133 Tb117 2.326 . S
O133 C121 1.242 . S
O134 Eu118 2.324 . S
O134 C121 1.258 . S
O135 Tb117 2.500 . S
O135 C137 1.273 . S
O136 Tb117 2.473 . S
O136 C137 1.257 . S
C137 O135 1.273 . S
C137 O136 1.257 . S
O138 Eu118 2.326 . S
O138 C126 1.242 . S
O139 Tb117 2.324 . S
O139 C126 1.258 . S
O140 Eu118 2.500 . S
O140 C123 1.273 . S
O141 Eu118 2.473 . S
O141 C123 1.257 . S
H142 C128 0.929 . S
H143 C130 0.931 . S
H144 C132 0.929 . S
O145 Tb146 2.292 . S
O145 C148 1.255 . S
Tb146 O145 2.292 . S
Tb146 O162 2.326 . S
Tb146 O164 2.500 . S
Tb146 O165 2.473 . S
Tb146 O168 2.324 . S
Eu147 O151 2.292 . S
Eu147 C152 2.852 . S
Eu147 O163 2.324 . S
Eu147 O167 2.326 . S
Eu147 O169 2.500 . S
Eu147 O170 2.473 . S
C148 O145 1.255 . S
C148 O149 1.247 . S
O149 C148 1.247 . S
C150 O162 1.242 . S
C150 O163 1.258 . S
O151 Eu147 2.292 . S
O151 C153 1.255 . S
C152 Eu147 2.852 . S
C152 C156 1.503 . S
C152 O169 1.273 . S
C152 O170 1.257 . S
C153 O151 1.255 . S
C153 O154 1.247 . S
O154 C153 1.247 . S
C155 O167 1.242 . S
C155 O168 1.258 . S
C156 C152 1.503 . S
C156 C157 1.379 . S
C156 C161 1.392 . S
C157 C156 1.379 . S
C157 C158 1.404 . S
C157 H171 0.929 . S
C158 C157 1.404 . S
C158 C159 1.389 . S
C159 C158 1.389 . S
C159 C160 1.399 . S
C159 H172 0.931 . S
C160 C159 1.399 . S
C160 C161 1.390 . S
C161 C156 1.392 . S
C161 C160 1.390 . S
C161 H173 0.929 . S
O162 Tb146 2.326 . S
O162 C150 1.242 . S
O163 Eu147 2.324 . S
O163 C150 1.258 . S
O164 Tb146 2.500 . S
O164 C166 1.273 . S
O165 Tb146 2.473 . S
O165 C166 1.257 . S
C166 O164 1.273 . S
C166 O165 1.257 . S
O167 Eu147 2.326 . S
O167 C155 1.242 . S
O168 Tb146 2.324 . S
O168 C155 1.258 . S
O169 Eu147 2.500 . S
O169 C152 1.273 . S
O170 Eu147 2.473 . S
O170 C152 1.257 . S
H171 C157 0.929 . S
H172 C159 0.931 . S
H173 C161 0.929 . S
O174 Tb175 2.292 . S
O174 C177 1.255 . S
Tb175 O174 2.292 . S
Tb175 O191 2.326 . S
Tb175 O193 2.500 . S
Tb175 O194 2.473 . S
Tb175 O197 2.324 . S
Eu176 O180 2.292 . S
Eu176 C181 2.852 . S
Eu176 O192 2.324 . S
Eu176 O196 2.326 . S
Eu176 O198 2.500 . S
Eu176 O199 2.473 . S
C177 O174 1.255 . S
C177 O178 1.247 . S
O178 C177 1.247 . S
C179 O191 1.242 . S
C179 O192 1.258 . S
O180 Eu176 2.292 . S
O180 C182 1.255 . S
C181 Eu176 2.852 . S
C181 C185 1.503 . S
C181 O198 1.273 . S
C181 O199 1.257 . S
C182 O180 1.255 . S
C182 O183 1.247 . S
O183 C182 1.247 . S
C184 O196 1.242 . S
C184 O197 1.258 . S
C185 C181 1.503 . S
C185 C186 1.379 . S
C185 C190 1.392 . S
C186 C185 1.379 . S
C186 C187 1.404 . S
C186 H200 0.929 . S
C187 C186 1.404 . S
C187 C188 1.389 . S
C188 C187 1.389 . S
C188 C189 1.399 . S
C188 H201 0.931 . S
C189 C188 1.399 . S
C189 C190 1.390 . S
C190 C185 1.392 . S
C190 C189 1.390 . S
C190 H202 0.929 . S
O191 Tb175 2.326 . S
O191 C179 1.242 . S
O192 Eu176 2.324 . S
O192 C179 1.258 . S
O193 Tb175 2.500 . S
O193 C195 1.273 . S
O194 Tb175 2.473 . S
O194 C195 1.257 . S
C195 O193 1.273 . S
C195 O194 1.257 . S
O196 Eu176 2.326 . S
O196 C184 1.242 . S
O197 Tb175 2.324 . S
O197 C184 1.258 . S
O198 Eu176 2.500 . S
O198 C181 1.273 . S
O199 Eu176 2.473 . S
O199 C181 1.257 . S
H200 C186 0.929 . S
H201 C188 0.931 . S
H202 C190 0.929 . S
O203 Tb204 2.292 . S
O203 C206 1.255 . S
Tb204 O203 2.292 . S
Tb204 O220 2.326 . S
Tb204 O222 2.500 . S
Tb204 O223 2.473 . S
Tb204 O226 2.324 . S
Eu205 O209 2.292 . S
Eu205 C210 2.852 . S
Eu205 O221 2.324 . S
Eu205 O225 2.326 . S
Eu205 O227 2.500 . S
Eu205 O228 2.473 . S
C206 O203 1.255 . S
C206 O207 1.247 . S
O207 C206 1.247 . S
C208 O220 1.242 . S
C208 O221 1.258 . S
O209 Eu205 2.292 . S
O209 C211 1.255 . S
C210 Eu205 2.852 . S
C210 C214 1.503 . S
C210 O227 1.273 . S
C210 O228 1.257 . S
C211 O209 1.255 . S
C211 O212 1.247 . S
O212 C211 1.247 . S
C213 O225 1.242 . S
C213 O226 1.258 . S
C214 C210 1.503 . S
C214 C215 1.379 . S
C214 C219 1.392 . S
C215 C214 1.379 . S
C215 C216 1.404 . S
C215 H229 0.929 . S
C216 C215 1.404 . S
C216 C217 1.389 . S
C217 C216 1.389 . S
C217 C218 1.399 . S
C217 H230 0.931 . S
C218 C217 1.399 . S
C218 C219 1.390 . S
C219 C214 1.392 . S
C219 C218 1.390 . S
C219 H231 0.929 . S
O220 Tb204 2.326 . S
O220 C208 1.242 . S
O221 Eu205 2.324 . S
O221 C208 1.258 . S
O222 Tb204 2.500 . S
O222 C224 1.273 . S
O223 Tb204 2.473 . S
O223 C224 1.257 . S
C224 O222 1.273 . S
C224 O223 1.257 . S
O225 Eu205 2.326 . S
O225 C213 1.242 . S
O226 Tb204 2.324 . S
O226 C213 1.258 . S
O227 Eu205 2.500 . S
O227 C210 1.273 . S
O228 Eu205 2.473 . S
O228 C210 1.257 . S
H229 C215 0.929 . S
H230 C217 0.931 . S
H231 C219 0.929 . S
O232 Tb233 2.292 . S
O232 C235 1.255 . S
Tb233 O232 2.292 . S
Tb233 O249 2.326 . S
Tb233 O251 2.500 . S
Tb233 O252 2.473 . S
Tb233 O255 2.324 . S
Eu234 O238 2.292 . S
Eu234 C239 2.852 . S
Eu234 O250 2.324 . S
Eu234 O254 2.326 . S
Eu234 O256 2.500 . S
Eu234 O257 2.473 . S
C235 O232 1.255 . S
C235 O236 1.247 . S
O236 C235 1.247 . S
C237 O249 1.242 . S
C237 O250 1.258 . S
O238 Eu234 2.292 . S
O238 C240 1.255 . S
C239 Eu234 2.852 . S
C239 C243 1.503 . S
C239 O256 1.273 . S
C239 O257 1.257 . S
C240 O238 1.255 . S
C240 O241 1.247 . S
O241 C240 1.247 . S
C242 O254 1.242 . S
C242 O255 1.258 . S
C243 C239 1.503 . S
C243 C244 1.379 . S
C243 C248 1.392 . S
C244 C243 1.379 . S
C244 C245 1.404 . S
C244 H258 0.929 . S
C245 C244 1.404 . S
C245 C246 1.389 . S
C246 C245 1.389 . S
C246 C247 1.399 . S
C246 H259 0.931 . S
C247 C246 1.399 . S
C247 C248 1.390 . S
C248 C243 1.392 . S
C248 C247 1.390 . S
C248 H260 0.929 . S
O249 Tb233 2.326 . S
O249 C237 1.242 . S
O250 Eu234 2.324 . S
O250 C237 1.258 . S
O251 Tb233 2.500 . S
O251 C253 1.273 . S
O252 Tb233 2.473 . S
O252 C253 1.257 . S
C253 O251 1.273 . S
C253 O252 1.257 . S
O254 Eu234 2.326 . S
O254 C242 1.242 . S
O255 Tb233 2.324 . S
O255 C242 1.258 . S
O256 Eu234 2.500 . S
O256 C239 1.273 . S
O257 Eu234 2.473 . S
O257 C239 1.257 . S
H258 C244 0.929 . S
H259 C246 0.931 . S
H260 C248 0.929 . S
O261 Tb262 2.292 . S
O261 C264 1.255 . S
Tb262 O261 2.292 . S
Tb262 O278 2.326 . S
Tb262 O280 2.500 . S
Tb262 O281 2.473 . S
Tb262 O284 2.324 . S
Eu263 O267 2.292 . S
Eu263 C268 2.852 . S
Eu263 O279 2.324 . S
Eu263 O283 2.326 . S
Eu263 O285 2.500 . S
Eu263 O286 2.473 . S
C264 O261 1.255 . S
C264 O265 1.247 . S
O265 C264 1.247 . S
C266 O278 1.242 . S
C266 O279 1.258 . S
O267 Eu263 2.292 . S
O267 C269 1.255 . S
C268 Eu263 2.852 . S
C268 C272 1.503 . S
C268 O285 1.273 . S
C268 O286 1.257 . S
C269 O267 1.255 . S
C269 O270 1.247 . S
O270 C269 1.247 . S
C271 O283 1.242 . S
C271 O284 1.258 . S
C272 C268 1.503 . S
C272 C273 1.379 . S
C272 C277 1.392 . S
C273 C272 1.379 . S
C273 C274 1.404 . S
C273 H287 0.929 . S
C274 C273 1.404 . S
C274 C275 1.389 . S
C275 C274 1.389 . S
C275 C276 1.399 . S
C275 H288 0.931 . S
C276 C275 1.399 . S
C276 C277 1.390 . S
C277 C272 1.392 . S
C277 C276 1.390 . S
C277 H289 0.929 . S
O278 Tb262 2.326 . S
O278 C266 1.242 . S
O279 Eu263 2.324 . S
O279 C266 1.258 . S
O280 Tb262 2.500 . S
O280 C282 1.273 . S
O281 Tb262 2.473 . S
O281 C282 1.257 . S
C282 O280 1.273 . S
C282 O281 1.257 . S
O283 Eu263 2.326 . S
O283 C271 1.242 . S
O284 Tb262 2.324 . S
O284 C271 1.258 . S
O285 Eu263 2.500 . S
O285 C268 1.273 . S
O286 Eu263 2.473 . S
O286 C268 1.257 . S
H287 C273 0.929 . S
H288 C275 0.931 . S
H289 C277 0.929 . S
O290 Tb291 2.292 . S
O290 C293 1.255 . S
Tb291 O290 2.292 . S
Tb291 O307 2.326 . S
Tb291 O309 2.500 . S
Tb291 O310 2.473 . S
Tb291 O313 2.324 . S
Eu292 O296 2.292 . S
Eu292 C297 2.852 . S
Eu292 O308 2.324 . S
Eu292 O312 2.326 . S
Eu292 O314 2.500 . S
Eu292 O315 2.473 . S
C293 O290 1.255 . S
C293 O294 1.247 . S
O294 C293 1.247 . S
C295 O307 1.242 . S
C295 O308 1.258 . S
O296 Eu292 2.292 . S
O296 C298 1.255 . S
C297 Eu292 2.852 . S
C297 C301 1.503 . S
C297 O314 1.273 . S
C297 O315 1.257 . S
C298 O296 1.255 . S
C298 O299 1.247 . S
O299 C298 1.247 . S
C300 O312 1.242 . S
C300 O313 1.258 . S
C301 C297 1.503 . S
C301 C302 1.379 . S
C301 C306 1.392 . S
C302 C301 1.379 . S
C302 C303 1.404 . S
C302 H316 0.929 . S
C303 C302 1.404 . S
C303 C304 1.389 . S
C304 C303 1.389 . S
C304 C305 1.399 . S
C304 H317 0.931 . S
C305 C304 1.399 . S
C305 C306 1.390 . S
C306 C301 1.392 . S
C306 C305 1.390 . S
C306 H318 0.929 . S
O307 Tb291 2.326 . S
O307 C295 1.242 . S
O308 Eu292 2.324 . S
O308 C295 1.258 . S
O309 Tb291 2.500 . S
O309 C311 1.273 . S
O310 Tb291 2.473 . S
O310 C311 1.257 . S
C311 O309 1.273 . S
C311 O310 1.257 . S
O312 Eu292 2.326 . S
O312 C300 1.242 . S
O313 Tb291 2.324 . S
O313 C300 1.258 . S
O314 Eu292 2.500 . S
O314 C297 1.273 . S
O315 Eu292 2.473 . S
O315 C297 1.257 . S
H316 C302 0.929 . S
H317 C304 0.931 . S
H318 C306 0.929 . S
O319 Tb320 2.292 . S
O319 C322 1.255 . S
Tb320 O319 2.292 . S
Tb320 O336 2.326 . S
Tb320 O338 2.500 . S
Tb320 O339 2.473 . S
Tb320 O342 2.324 . S
Eu321 O325 2.292 . S
Eu321 C326 2.852 . S
Eu321 O337 2.324 . S
Eu321 O341 2.326 . S
Eu321 O343 2.500 . S
Eu321 O344 2.473 . S
C322 O319 1.255 . S
C322 O323 1.247 . S
O323 C322 1.247 . S
C324 O336 1.242 . S
C324 O337 1.258 . S
O325 Eu321 2.292 . S
O325 C327 1.255 . S
C326 Eu321 2.852 . S
C326 C330 1.503 . S
C326 O343 1.273 . S
C326 O344 1.257 . S
C327 O325 1.255 . S
C327 O328 1.247 . S
O328 C327 1.247 . S
C329 O341 1.242 . S
C329 O342 1.258 . S
C330 C326 1.503 . S
C330 C331 1.379 . S
C330 C335 1.392 . S
C331 C330 1.379 . S
C331 C332 1.404 . S
C331 H345 0.929 . S
C332 C331 1.404 . S
C332 C333 1.389 . S
C333 C332 1.389 . S
C333 C334 1.399 . S
C333 H346 0.931 . S
C334 C333 1.399 . S
C334 C335 1.390 . S
C335 C330 1.392 . S
C335 C334 1.390 . S
C335 H347 0.929 . S
O336 Tb320 2.326 . S
O336 C324 1.242 . S
O337 Eu321 2.324 . S
O337 C324 1.258 . S
O338 Tb320 2.500 . S
O338 C340 1.273 . S
O339 Tb320 2.473 . S
O339 C340 1.257 . S
C340 O338 1.273 . S
C340 O339 1.257 . S
O341 Eu321 2.326 . S
O341 C329 1.242 . S
O342 Tb320 2.324 . S
O342 C329 1.258 . S
O343 Eu321 2.500 . S
O343 C326 1.273 . S
O344 Eu321 2.473 . S
O344 C326 1.257 . S
H345 C331 0.929 . S
H346 C333 0.931 . S
H347 C335 0.929 . S
O348 Tb349 2.292 . S
O348 C351 1.255 . S
Tb349 O348 2.292 . S
Tb349 O365 2.326 . S
Tb349 O367 2.500 . S
Tb349 O368 2.473 . S
Tb349 O371 2.324 . S
Eu350 O354 2.292 . S
Eu350 C355 2.852 . S
Eu350 O366 2.324 . S
Eu350 O370 2.326 . S
Eu350 O372 2.500 . S
Eu350 O373 2.473 . S
C351 O348 1.255 . S
C351 O352 1.247 . S
O352 C351 1.247 . S
C353 O365 1.242 . S
C353 O366 1.258 . S
O354 Eu350 2.292 . S
O354 C356 1.255 . S
C355 Eu350 2.852 . S
C355 C359 1.503 . S
C355 O372 1.273 . S
C355 O373 1.257 . S
C356 O354 1.255 . S
C356 O357 1.247 . S
O357 C356 1.247 . S
C358 O370 1.242 . S
C358 O371 1.258 . S
C359 C355 1.503 . S
C359 C360 1.379 . S
C359 C364 1.392 . S
C360 C359 1.379 . S
C360 C361 1.404 . S
C360 H374 0.929 . S
C361 C360 1.404 . S
C361 C362 1.389 . S
C362 C361 1.389 . S
C362 C363 1.399 . S
C362 H375 0.931 . S
C363 C362 1.399 . S
C363 C364 1.390 . S
C364 C359 1.392 . S
C364 C363 1.390 . S
C364 H376 0.929 . S
O365 Tb349 2.326 . S
O365 C353 1.242 . S
O366 Eu350 2.324 . S
O366 C353 1.258 . S
O367 Tb349 2.500 . S
O367 C369 1.273 . S
O368 Tb349 2.473 . S
O368 C369 1.257 . S
C369 O367 1.273 . S
C369 O368 1.257 . S
O370 Eu350 2.326 . S
O370 C358 1.242 . S
O371 Tb349 2.324 . S
O371 C358 1.258 . S
O372 Eu350 2.500 . S
O372 C355 1.273 . S
O373 Eu350 2.473 . S
O373 C355 1.257 . S
H374 C360 0.929 . S
H375 C362 0.931 . S
H376 C364 0.929 . S
O377 Tb378 2.292 . S
O377 C380 1.255 . S
Tb378 O377 2.292 . S
Tb378 O394 2.326 . S
Tb378 O396 2.500 . S
Tb378 O397 2.473 . S
Tb378 O400 2.324 . S
Eu379 O383 2.292 . S
Eu379 C384 2.852 . S
Eu379 O395 2.324 . S
Eu379 O399 2.326 . S
Eu379 O401 2.500 . S
Eu379 O402 2.473 . S
C380 O377 1.255 . S
C380 O381 1.247 . S
O381 C380 1.247 . S
C382 O394 1.242 . S
C382 O395 1.258 . S
O383 Eu379 2.292 . S
O383 C385 1.255 . S
C384 Eu379 2.852 . S
C384 C388 1.503 . S
C384 O401 1.273 . S
C384 O402 1.257 . S
C385 O383 1.255 . S
C385 O386 1.247 . S
O386 C385 1.247 . S
C387 O399 1.242 . S
C387 O400 1.258 . S
C388 C384 1.503 . S
C388 C389 1.379 . S
C388 C393 1.392 . S
C389 C388 1.379 . S
C389 C390 1.404 . S
C389 H403 0.929 . S
C390 C389 1.404 . S
C390 C391 1.389 . S
C391 C390 1.389 . S
C391 C392 1.399 . S
C391 H404 0.931 . S
C392 C391 1.399 . S
C392 C393 1.390 . S
C393 C388 1.392 . S
C393 C392 1.390 . S
C393 H405 0.929 . S
O394 Tb378 2.326 . S
O394 C382 1.242 . S
O395 Eu379 2.324 . S
O395 C382 1.258 . S
O396 Tb378 2.500 . S
O396 C398 1.273 . S
O397 Tb378 2.473 . S
O397 C398 1.257 . S
C398 O396 1.273 . S
C398 O397 1.257 . S
O399 Eu379 2.326 . S
O399 C387 1.242 . S
O400 Tb378 2.324 . S
O400 C387 1.258 . S
O401 Eu379 2.500 . S
O401 C384 1.273 . S
O402 Eu379 2.473 . S
O402 C384 1.257 . S
H403 C389 0.929 . S
H404 C391 0.931 . S
H405 C393 0.929 . S
O406 Tb407 2.292 . S
O406 C409 1.255 . S
Tb407 O406 2.292 . S
Tb407 O423 2.326 . S
Tb407 O425 2.500 . S
Tb407 O426 2.473 . S
Tb407 O429 2.324 . S
Eu408 O412 2.292 . S
Eu408 C413 2.852 . S
Eu408 O424 2.324 . S
Eu408 O428 2.326 . S
Eu408 O430 2.500 . S
Eu408 O431 2.473 . S
C409 O406 1.255 . S
C409 O410 1.247 . S
O410 C409 1.247 . S
C411 O423 1.242 . S
C411 O424 1.258 . S
O412 Eu408 2.292 . S
O412 C414 1.255 . S
C413 Eu408 2.852 . S
C413 C417 1.503 . S
C413 O430 1.273 . S
C413 O431 1.257 . S
C414 O412 1.255 . S
C414 O415 1.247 . S
O415 C414 1.247 . S
C416 O428 1.242 . S
C416 O429 1.258 . S
C417 C413 1.503 . S
C417 C418 1.379 . S
C417 C422 1.392 . S
C418 C417 1.379 . S
C418 C419 1.404 . S
C418 H432 0.929 . S
C419 C418 1.404 . S
C419 C420 1.389 . S
C420 C419 1.389 . S
C420 C421 1.399 . S
C420 H433 0.931 . S
C421 C420 1.399 . S
C421 C422 1.390 . S
C422 C417 1.392 . S
C422 C421 1.390 . S
C422 H434 0.929 . S
O423 Tb407 2.326 . S
O423 C411 1.242 . S
O424 Eu408 2.324 . S
O424 C411 1.258 . S
O425 Tb407 2.500 . S
O425 C427 1.273 . S
O426 Tb407 2.473 . S
O426 C427 1.257 . S
C427 O425 1.273 . S
C427 O426 1.257 . S
O428 Eu408 2.326 . S
O428 C416 1.242 . S
O429 Tb407 2.324 . S
O429 C416 1.258 . S
O430 Eu408 2.500 . S
O430 C413 1.273 . S
O431 Eu408 2.473 . S
O431 C413 1.257 . S
H432 C418 0.929 . S
H433 C420 0.931 . S
H434 C422 0.929 . S
O435 Tb436 2.292 . S
O435 C438 1.255 . S
Tb436 O435 2.292 . S
Tb436 O452 2.326 . S
Tb436 O454 2.500 . S
Tb436 O455 2.473 . S
Tb436 O458 2.324 . S
Eu437 O441 2.292 . S
Eu437 C442 2.852 . S
Eu437 O453 2.324 . S
Eu437 O457 2.326 . S
Eu437 O459 2.500 . S
Eu437 O460 2.473 . S
C438 O435 1.255 . S
C438 O439 1.247 . S
O439 C438 1.247 . S
C440 O452 1.242 . S
C440 O453 1.258 . S
O441 Eu437 2.292 . S
O441 C443 1.255 . S
C442 Eu437 2.852 . S
C442 C446 1.503 . S
C442 O459 1.273 . S
C442 O460 1.257 . S
C443 O441 1.255 . S
C443 O444 1.247 . S
O444 C443 1.247 . S
C445 O457 1.242 . S
C445 O458 1.258 . S
C446 C442 1.503 . S
C446 C447 1.379 . S
C446 C451 1.392 . S
C447 C446 1.379 . S
C447 C448 1.404 . S
C447 H461 0.929 . S
C448 C447 1.404 . S
C448 C449 1.389 . S
C449 C448 1.389 . S
C449 C450 1.399 . S
C449 H462 0.931 . S
C450 C449 1.399 . S
C450 C451 1.390 . S
C451 C446 1.392 . S
C451 C450 1.390 . S
C451 H463 0.929 . S
O452 Tb436 2.326 . S
O452 C440 1.242 . S
O453 Eu437 2.324 . S
O453 C440 1.258 . S
O454 Tb436 2.500 . S
O454 C456 1.273 . S
O455 Tb436 2.473 . S
O455 C456 1.257 . S
C456 O454 1.273 . S
C456 O455 1.257 . S
O457 Eu437 2.326 . S
O457 C445 1.242 . S
O458 Tb436 2.324 . S
O458 C445 1.258 . S
O459 Eu437 2.500 . S
O459 C442 1.273 . S
O460 Eu437 2.473 . S
O460 C442 1.257 . S
H461 C447 0.929 . S
H462 C449 0.931 . S
H463 C451 0.929 . S
O464 Tb465 2.292 . S
O464 C467 1.255 . S
Tb465 O464 2.292 . S
Tb465 O481 2.326 . S
Tb465 O483 2.500 . S
Tb465 O484 2.473 . S
Tb465 O487 2.324 . S
Eu466 O470 2.292 . S
Eu466 C471 2.852 . S
Eu466 O482 2.324 . S
Eu466 O486 2.326 . S
Eu466 O488 2.500 . S
Eu466 O489 2.473 . S
C467 O464 1.255 . S
C467 O468 1.247 . S
O468 C467 1.247 . S
C469 O481 1.242 . S
C469 O482 1.258 . S
O470 Eu466 2.292 . S
O470 C472 1.255 . S
C471 Eu466 2.852 . S
C471 C475 1.503 . S
C471 O488 1.273 . S
C471 O489 1.257 . S
C472 O470 1.255 . S
C472 O473 1.247 . S
O473 C472 1.247 . S
C474 O486 1.242 . S
C474 O487 1.258 . S
C475 C471 1.503 . S
C475 C476 1.379 . S
C475 C480 1.392 . S
C476 C475 1.379 . S
C476 C477 1.404 . S
C476 H490 0.929 . S
C477 C476 1.404 . S
C477 C478 1.389 . S
C478 C477 1.389 . S
C478 C479 1.399 . S
C478 H491 0.931 . S
C479 C478 1.399 . S
C479 C480 1.390 . S
C480 C475 1.392 . S
C480 C479 1.390 . S
C480 H492 0.929 . S
O481 Tb465 2.326 . S
O481 C469 1.242 . S
O482 Eu466 2.324 . S
O482 C469 1.258 . S
O483 Tb465 2.500 . S
O483 C485 1.273 . S
O484 Tb465 2.473 . S
O484 C485 1.257 . S
C485 O483 1.273 . S
C485 O484 1.257 . S
O486 Eu466 2.326 . S
O486 C474 1.242 . S
O487 Tb465 2.324 . S
O487 C474 1.258 . S
O488 Eu466 2.500 . S
O488 C471 1.273 . S
O489 Eu466 2.473 . S
O489 C471 1.257 . S
H490 C476 0.929 . S
H491 C478 0.931 . S
H492 C480 0.929 . S
O493 Tb494 2.292 . S
O493 C496 1.255 . S
Tb494 O493 2.292 . S
Tb494 O510 2.326 . S
Tb494 O512 2.500 . S
Tb494 O513 2.473 . S
Tb494 O516 2.324 . S
Eu495 O499 2.292 . S
Eu495 C500 2.852 . S
Eu495 O511 2.324 . S
Eu495 O515 2.326 . S
Eu495 O517 2.500 . S
Eu495 O518 2.473 . S
C496 O493 1.255 . S
C496 O497 1.247 . S
O497 C496 1.247 . S
C498 O510 1.242 . S
C498 O511 1.258 . S
O499 Eu495 2.292 . S
O499 C501 1.255 . S
C500 Eu495 2.852 . S
C500 C504 1.503 . S
C500 O517 1.273 . S
C500 O518 1.257 . S
C501 O499 1.255 . S
C501 O502 1.247 . S
O502 C501 1.247 . S
C503 O515 1.242 . S
C503 O516 1.258 . S
C504 C500 1.503 . S
C504 C505 1.379 . S
C504 C509 1.392 . S
C505 C504 1.379 . S
C505 C506 1.404 . S
C505 H519 0.929 . S
C506 C505 1.404 . S
C506 C507 1.389 . S
C507 C506 1.389 . S
C507 C508 1.399 . S
C507 H520 0.931 . S
C508 C507 1.399 . S
C508 C509 1.390 . S
C509 C504 1.392 . S
C509 C508 1.390 . S
C509 H521 0.929 . S
O510 Tb494 2.326 . S
O510 C498 1.242 . S
O511 Eu495 2.324 . S
O511 C498 1.258 . S
O512 Tb494 2.500 . S
O512 C514 1.273 . S
O513 Tb494 2.473 . S
O513 C514 1.257 . S
C514 O512 1.273 . S
C514 O513 1.257 . S
O515 Eu495 2.326 . S
O515 C503 1.242 . S
O516 Tb494 2.324 . S
O516 C503 1.258 . S
O517 Eu495 2.500 . S
O517 C500 1.273 . S
O518 Eu495 2.473 . S
O518 C500 1.257 . S
H519 C505 0.929 . S
H520 C507 0.931 . S
H521 C509 0.929 . S
O522 Tb523 2.292 . S
O522 C525 1.255 . S
Tb523 O522 2.292 . S
Tb523 O539 2.326 . S
Tb523 O541 2.500 . S
Tb523 O542 2.473 . S
Tb523 O545 2.324 . S
Eu524 O528 2.292 . S
Eu524 C529 2.852 . S
Eu524 O540 2.324 . S
Eu524 O544 2.326 . S
Eu524 O546 2.500 . S
Eu524 O547 2.473 . S
C525 O522 1.255 . S
C525 O526 1.247 . S
O526 C525 1.247 . S
C527 O539 1.242 . S
C527 O540 1.258 . S
O528 Eu524 2.292 . S
O528 C530 1.255 . S
C529 Eu524 2.852 . S
C529 C533 1.503 . S
C529 O546 1.273 . S
C529 O547 1.257 . S
C530 O528 1.255 . S
C530 O531 1.247 . S
O531 C530 1.247 . S
C532 O544 1.242 . S
C532 O545 1.258 . S
C533 C529 1.503 . S
C533 C534 1.379 . S
C533 C538 1.392 . S
C534 C533 1.379 . S
C534 C535 1.404 . S
C534 H548 0.929 . S
C535 C534 1.404 . S
C535 C536 1.389 . S
C536 C535 1.389 . S
C536 C537 1.399 . S
C536 H549 0.931 . S
C537 C536 1.399 . S
C537 C538 1.390 . S
C538 C533 1.392 . S
C538 C537 1.390 . S
C538 H550 0.929 . S
O539 Tb523 2.326 . S
O539 C527 1.242 . S
O540 Eu524 2.324 . S
O540 C527 1.258 . S
O541 Tb523 2.500 . S
O541 C543 1.273 . S
O542 Tb523 2.473 . S
O542 C543 1.257 . S
C543 O541 1.273 . S
C543 O542 1.257 . S
O544 Eu524 2.326 . S
O544 C532 1.242 . S
O545 Tb523 2.324 . S
O545 C532 1.258 . S
O546 Eu524 2.500 . S
O546 C529 1.273 . S
O547 Eu524 2.473 . S
O547 C529 1.257 . S
H548 C534 0.929 . S
H549 C536 0.931 . S
H550 C538 0.929 . S
O551 Tb552 2.292 . S
O551 C554 1.255 . S
Tb552 O551 2.292 . S
Tb552 O568 2.326 . S
Tb552 O570 2.500 . S
Tb552 O571 2.473 . S
Tb552 O574 2.324 . S
Eu553 O557 2.292 . S
Eu553 C558 2.852 . S
Eu553 O569 2.324 . S
Eu553 O573 2.326 . S
Eu553 O575 2.500 . S
Eu553 O576 2.473 . S
C554 O551 1.255 . S
C554 O555 1.247 . S
O555 C554 1.247 . S
C556 O568 1.242 . S
C556 O569 1.258 . S
O557 Eu553 2.292 . S
O557 C559 1.255 . S
C558 Eu553 2.852 . S
C558 C562 1.503 . S
C558 O575 1.273 . S
C558 O576 1.257 . S
C559 O557 1.255 . S
C559 O560 1.247 . S
O560 C559 1.247 . S
C561 O573 1.242 . S
C561 O574 1.258 . S
C562 C558 1.503 . S
C562 C563 1.379 . S
C562 C567 1.392 . S
C563 C562 1.379 . S
C563 C564 1.404 . S
C563 H577 0.929 . S
C564 C563 1.404 . S
C564 C565 1.389 . S
C565 C564 1.389 . S
C565 C566 1.399 . S
C565 H578 0.931 . S
C566 C565 1.399 . S
C566 C567 1.390 . S
C567 C562 1.392 . S
C567 C566 1.390 . S
C567 H579 0.929 . S
O568 Tb552 2.326 . S
O568 C556 1.242 . S
O569 Eu553 2.324 . S
O569 C556 1.258 . S
O570 Tb552 2.500 . S
O570 C572 1.273 . S
O571 Tb552 2.473 . S
O571 C572 1.257 . S
C572 O570 1.273 . S
C572 O571 1.257 . S
O573 Eu553 2.326 . S
O573 C561 1.242 . S
O574 Tb552 2.324 . S
O574 C561 1.258 . S
O575 Eu553 2.500 . S
O575 C558 1.273 . S
O576 Eu553 2.473 . S
O576 C558 1.257 . S
H577 C563 0.929 . S
H578 C565 0.931 . S
H579 C567 0.929 . S
O580 Tb581 2.292 . S
O580 C583 1.255 . S
Tb581 O580 2.292 . S
Tb581 O597 2.326 . S
Tb581 O599 2.500 . S
Tb581 O600 2.473 . S
Tb581 O603 2.324 . S
Eu582 O586 2.292 . S
Eu582 C587 2.852 . S
Eu582 O598 2.324 . S
Eu582 O602 2.326 . S
Eu582 O604 2.500 . S
Eu582 O605 2.473 . S
C583 O580 1.255 . S
C583 O584 1.247 . S
O584 C583 1.247 . S
C585 O597 1.242 . S
C585 O598 1.258 . S
O586 Eu582 2.292 . S
O586 C588 1.255 . S
C587 Eu582 2.852 . S
C587 C591 1.503 . S
C587 O604 1.273 . S
C587 O605 1.257 . S
C588 O586 1.255 . S
C588 O589 1.247 . S
O589 C588 1.247 . S
C590 O602 1.242 . S
C590 O603 1.258 . S
C591 C587 1.503 . S
C591 C592 1.379 . S
C591 C596 1.392 . S
C592 C591 1.379 . S
C592 C593 1.404 . S
C592 H606 0.929 . S
C593 C592 1.404 . S
C593 C594 1.389 . S
C594 C593 1.389 . S
C594 C595 1.399 . S
C594 H607 0.931 . S
C595 C594 1.399 . S
C595 C596 1.390 . S
C596 C591 1.392 . S
C596 C595 1.390 . S
C596 H608 0.929 . S
O597 Tb581 2.326 . S
O597 C585 1.242 . S
O598 Eu582 2.324 . S
O598 C585 1.258 . S
O599 Tb581 2.500 . S
O599 C601 1.273 . S
O600 Tb581 2.473 . S
O600 C601 1.257 . S
C601 O599 1.273 . S
C601 O600 1.257 . S
O602 Eu582 2.326 . S
O602 C590 1.242 . S
O603 Tb581 2.324 . S
O603 C590 1.258 . S
O604 Eu582 2.500 . S
O604 C587 1.273 . S
O605 Eu582 2.473 . S
O605 C587 1.257 . S
H606 C592 0.929 . S
H607 C594 0.931 . S
H608 C596 0.929 . S
O609 Tb610 2.292 . S
O609 C612 1.255 . S
Tb610 O609 2.292 . S
Tb610 O626 2.326 . S
Tb610 O628 2.500 . S
Tb610 O629 2.473 . S
Tb610 O632 2.324 . S
Eu611 O615 2.292 . S
Eu611 C616 2.852 . S
Eu611 O627 2.324 . S
Eu611 O631 2.326 . S
Eu611 O633 2.500 . S
Eu611 O634 2.473 . S
C612 O609 1.255 . S
C612 O613 1.247 . S
O613 C612 1.247 . S
C614 O626 1.242 . S
C614 O627 1.258 . S
O615 Eu611 2.292 . S
O615 C617 1.255 . S
C616 Eu611 2.852 . S
C616 C620 1.503 . S
C616 O633 1.273 . S
C616 O634 1.257 . S
C617 O615 1.255 . S
C617 O618 1.247 . S
O618 C617 1.247 . S
C619 O631 1.242 . S
C619 O632 1.258 . S
C620 C616 1.503 . S
C620 C621 1.379 . S
C620 C625 1.392 . S
C621 C620 1.379 . S
C621 C622 1.404 . S
C621 H635 0.929 . S
C622 C621 1.404 . S
C622 C623 1.389 . S
C623 C622 1.389 . S
C623 C624 1.399 . S
C623 H636 0.931 . S
C624 C623 1.399 . S
C624 C625 1.390 . S
C625 C620 1.392 . S
C625 C624 1.390 . S
C625 H637 0.929 . S
O626 Tb610 2.326 . S
O626 C614 1.242 . S
O627 Eu611 2.324 . S
O627 C614 1.258 . S
O628 Tb610 2.500 . S
O628 C630 1.273 . S
O629 Tb610 2.473 . S
O629 C630 1.257 . S
C630 O628 1.273 . S
C630 O629 1.257 . S
O631 Eu611 2.326 . S
O631 C619 1.242 . S
O632 Tb610 2.324 . S
O632 C619 1.258 . S
O633 Eu611 2.500 . S
O633 C616 1.273 . S
O634 Eu611 2.473 . S
O634 C616 1.257 . S
H635 C621 0.929 . S
H636 C623 0.931 . S
H637 C625 0.929 . S
O638 Tb639 2.292 . S
O638 C641 1.255 . S
Tb639 O638 2.292 . S
Tb639 O655 2.326 . S
Tb639 O657 2.500 . S
Tb639 O658 2.473 . S
Tb639 O661 2.324 . S
Eu640 O644 2.292 . S
Eu640 C645 2.852 . S
Eu640 O656 2.324 . S
Eu640 O660 2.326 . S
Eu640 O662 2.500 . S
Eu640 O663 2.473 . S
C641 O638 1.255 . S
C641 O642 1.247 . S
O642 C641 1.247 . S
C643 O655 1.242 . S
C643 O656 1.258 . S
O644 Eu640 2.292 . S
O644 C646 1.255 . S
C645 Eu640 2.852 . S
C645 C649 1.503 . S
C645 O662 1.273 . S
C645 O663 1.257 . S
C646 O644 1.255 . S
C646 O647 1.247 . S
O647 C646 1.247 . S
C648 O660 1.242 . S
C648 O661 1.258 . S
C649 C645 1.503 . S
C649 C650 1.379 . S
C649 C654 1.392 . S
C650 C649 1.379 . S
C650 C651 1.404 . S
C650 H664 0.929 . S
C651 C650 1.404 . S
C651 C652 1.389 . S
C652 C651 1.389 . S
C652 C653 1.399 . S
C652 H665 0.931 . S
C653 C652 1.399 . S
C653 C654 1.390 . S
C654 C649 1.392 . S
C654 C653 1.390 . S
C654 H666 0.929 . S
O655 Tb639 2.326 . S
O655 C643 1.242 . S
O656 Eu640 2.324 . S
O656 C643 1.258 . S
O657 Tb639 2.500 . S
O657 C659 1.273 . S
O658 Tb639 2.473 . S
O658 C659 1.257 . S
C659 O657 1.273 . S
C659 O658 1.257 . S
O660 Eu640 2.326 . S
O660 C648 1.242 . S
O661 Tb639 2.324 . S
O661 C648 1.258 . S
O662 Eu640 2.500 . S
O662 C645 1.273 . S
O663 Eu640 2.473 . S
O663 C645 1.257 . S
H664 C650 0.929 . S
H665 C652 0.931 . S
H666 C654 0.929 . S
O667 Tb668 2.292 . S
O667 C670 1.255 . S
Tb668 O667 2.292 . S
Tb668 O684 2.326 . S
Tb668 O686 2.500 . S
Tb668 O687 2.473 . S
Tb668 O690 2.324 . S
Eu669 O673 2.292 . S
Eu669 C674 2.852 . S
Eu669 O685 2.324 . S
Eu669 O689 2.326 . S
Eu669 O691 2.500 . S
Eu669 O692 2.473 . S
C670 O667 1.255 . S
C670 O671 1.247 . S
O671 C670 1.247 . S
C672 O684 1.242 . S
C672 O685 1.258 . S
O673 Eu669 2.292 . S
O673 C675 1.255 . S
C674 Eu669 2.852 . S
C674 C678 1.503 . S
C674 O691 1.273 . S
C674 O692 1.257 . S
C675 O673 1.255 . S
C675 O676 1.247 . S
O676 C675 1.247 . S
C677 O689 1.242 . S
C677 O690 1.258 . S
C678 C674 1.503 . S
C678 C679 1.379 . S
C678 C683 1.392 . S
C679 C678 1.379 . S
C679 C680 1.404 . S
C679 H693 0.929 . S
C680 C679 1.404 . S
C680 C681 1.389 . S
C681 C680 1.389 . S
C681 C682 1.399 . S
C681 H694 0.931 . S
C682 C681 1.399 . S
C682 C683 1.390 . S
C683 C678 1.392 . S
C683 C682 1.390 . S
C683 H695 0.929 . S
O684 Tb668 2.326 . S
O684 C672 1.242 . S
O685 Eu669 2.324 . S
O685 C672 1.258 . S
O686 Tb668 2.500 . S
O686 C688 1.273 . S
O687 Tb668 2.473 . S
O687 C688 1.257 . S
C688 O686 1.273 . S
C688 O687 1.257 . S
O689 Eu669 2.326 . S
O689 C677 1.242 . S
O690 Tb668 2.324 . S
O690 C677 1.258 . S
O691 Eu669 2.500 . S
O691 C674 1.273 . S
O692 Eu669 2.473 . S
O692 C674 1.257 . S
H693 C679 0.929 . S
H694 C681 0.931 . S
H695 C683 0.929 . S
H696 C708 0.930 . S
H697 C710 0.930 . S
H698 C711 0.930 . S
H699 C715 0.959 . S
H700 C715 0.959 . S
H701 C715 0.961 . S
H702 C716 0.960 . S
H703 C716 0.961 . S
H704 C716 0.959 . S
H705 C719 0.929 . S
H706 C720 0.931 . S
H707 C722 0.930 . S
C708 H696 0.930 . S
C708 C709 1.399 . S
C708 C713 1.399 . S
C709 C708 1.399 . S
C709 C710 1.376 . S
C710 H697 0.930 . S
C710 C709 1.376 . S
C710 C711 1.388 . S
C711 H698 0.930 . S
C711 C710 1.388 . S
C711 C712 1.390 . S
C712 C711 1.390 . S
C712 C713 1.394 . S
C712 C718 1.465 . S
C713 C708 1.399 . S
C713 C712 1.394 . S
C713 C714 1.516 . S
C714 C713 1.516 . S
C714 C715 1.502 . S
C714 C716 1.561 . S
C714 C717 1.526 . S
C715 H699 0.959 . S
C715 H700 0.959 . S
C715 H701 0.961 . S
C715 C714 1.502 . S
C716 H702 0.960 . S
C716 H703 0.961 . S
C716 H704 0.959 . S
C716 C714 1.561 . S
C717 C714 1.526 . S
C717 C718 1.396 . S
C717 C722 1.390 . S
C718 C712 1.465 . S
C718 C717 1.396 . S
C718 C719 1.399 . S
C719 H705 0.929 . S
C719 C718 1.399 . S
C719 C720 1.385 . S
C720 H706 0.931 . S
C720 C719 1.385 . S
C720 C721 1.389 . S
C721 C720 1.389 . S
C721 C722 1.387 . S
C722 H707 0.930 . S
C722 C717 1.390 . S
C722 C721 1.387 . S
H723 C735 0.930 . S
H724 C737 0.930 . S
H725 C738 0.930 . S
H726 C742 0.959 . S
H727 C742 0.959 . S
H728 C742 0.961 . S
H729 C743 0.960 . S
H730 C743 0.961 . S
H731 C743 0.959 . S
H732 C746 0.929 . S
H733 C747 0.931 . S
H734 C749 0.930 . S
C735 H723 0.930 . S
C735 C736 1.399 . S
C735 C740 1.399 . S
C736 C735 1.399 . S
C736 C737 1.376 . S
C737 H724 0.930 . S
C737 C736 1.376 . S
C737 C738 1.388 . S
C738 H725 0.930 . S
C738 C737 1.388 . S
C738 C739 1.390 . S
C739 C738 1.390 . S
C739 C740 1.394 . S
C739 C745 1.465 . S
C740 C735 1.399 . S
C740 C739 1.394 . S
C740 C741 1.516 . S
C741 C740 1.516 . S
C741 C742 1.502 . S
C741 C743 1.561 . S
C741 C744 1.526 . S
C742 H726 0.959 . S
C742 H727 0.959 . S
C742 H728 0.961 . S
C742 C741 1.502 . S
C743 H729 0.960 . S
C743 H730 0.961 . S
C743 H731 0.959 . S
C743 C741 1.561 . S
C744 C741 1.526 . S
C744 C745 1.396 . S
C744 C749 1.390 . S
C745 C739 1.465 . S
C745 C744 1.396 . S
C745 C746 1.399 . S
C746 H732 0.929 . S
C746 C745 1.399 . S
C746 C747 1.385 . S
C747 H733 0.931 . S
C747 C746 1.385 . S
C747 C748 1.389 . S
C748 C747 1.389 . S
C748 C749 1.387 . S
C749 H734 0.930 . S
C749 C744 1.390 . S
C749 C748 1.387 . S
H750 C762 0.930 . S
H751 C764 0.930 . S
H752 C765 0.930 . S
H753 C769 0.959 . S
H754 C769 0.959 . S
H755 C769 0.961 . S
H756 C770 0.960 . S
H757 C770 0.961 . S
H758 C770 0.959 . S
H759 C773 0.929 . S
H760 C774 0.931 . S
H761 C776 0.930 . S
C762 H750 0.930 . S
C762 C763 1.399 . S
C762 C767 1.399 . S
C763 C762 1.399 . S
C763 C764 1.376 . S
C764 H751 0.930 . S
C764 C763 1.376 . S
C764 C765 1.388 . S
C765 H752 0.930 . S
C765 C764 1.388 . S
C765 C766 1.390 . S
C766 C765 1.390 . S
C766 C767 1.394 . S
C766 C772 1.465 . S
C767 C762 1.399 . S
C767 C766 1.394 . S
C767 C768 1.516 . S
C768 C767 1.516 . S
C768 C769 1.502 . S
C768 C770 1.561 . S
C768 C771 1.526 . S
C769 H753 0.959 . S
C769 H754 0.959 . S
C769 H755 0.961 . S
C769 C768 1.502 . S
C770 H756 0.960 . S
C770 H757 0.961 . S
C770 H758 0.959 . S
C770 C768 1.561 . S
C771 C768 1.526 . S
C771 C772 1.396 . S
C771 C776 1.390 . S
C772 C766 1.465 . S
C772 C771 1.396 . S
C772 C773 1.399 . S
C773 H759 0.929 . S
C773 C772 1.399 . S
C773 C774 1.385 . S
C774 H760 0.931 . S
C774 C773 1.385 . S
C774 C775 1.389 . S
C775 C774 1.389 . S
C775 C776 1.387 . S
C776 H761 0.930 . S
C776 C771 1.390 . S
C776 C775 1.387 . S
H777 C789 0.930 . S
H778 C791 0.930 . S
H779 C792 0.930 . S
H780 C796 0.959 . S
H781 C796 0.959 . S
H782 C796 0.961 . S
H783 C797 0.960 . S
H784 C797 0.961 . S
H785 C797 0.959 . S
H786 C800 0.929 . S
H787 C801 0.931 . S
H788 C803 0.930 . S
C789 H777 0.930 . S
C789 C790 1.399 . S
C789 C794 1.399 . S
C790 C789 1.399 . S
C790 C791 1.376 . S
C791 H778 0.930 . S
C791 C790 1.376 . S
C791 C792 1.388 . S
C792 H779 0.930 . S
C792 C791 1.388 . S
C792 C793 1.390 . S
C793 C792 1.390 . S
C793 C794 1.394 . S
C793 C799 1.465 . S
C794 C789 1.399 . S
C794 C793 1.394 . S
C794 C795 1.516 . S
C795 C794 1.516 . S
C795 C796 1.502 . S
C795 C797 1.561 . S
C795 C798 1.526 . S
C796 H780 0.959 . S
C796 H781 0.959 . S
C796 H782 0.961 . S
C796 C795 1.502 . S
C797 H783 0.960 . S
C797 H784 0.961 . S
C797 H785 0.959 . S
C797 C795 1.561 . S
C798 C795 1.526 . S
C798 C799 1.396 . S
C798 C803 1.390 . S
C799 C793 1.465 . S
C799 C798 1.396 . S
C799 C800 1.399 . S
C800 H786 0.929 . S
C800 C799 1.399 . S
C800 C801 1.385 . S
C801 H787 0.931 . S
C801 C800 1.385 . S
C801 C802 1.389 . S
C802 C801 1.389 . S
C802 C803 1.387 . S
C803 H788 0.930 . S
C803 C798 1.390 . S
C803 C802 1.387 . S
H804 C816 0.930 . S
H805 C818 0.930 . S
H806 C819 0.930 . S
H807 C823 0.959 . S
H808 C823 0.959 . S
H809 C823 0.961 . S
H810 C824 0.960 . S
H811 C824 0.961 . S
H812 C824 0.959 . S
H813 C827 0.929 . S
H814 C828 0.931 . S
H815 C830 0.930 . S
C816 H804 0.930 . S
C816 C817 1.399 . S
C816 C821 1.399 . S
C817 C816 1.399 . S
C817 C818 1.376 . S
C818 H805 0.930 . S
C818 C817 1.376 . S
C818 C819 1.388 . S
C819 H806 0.930 . S
C819 C818 1.388 . S
C819 C820 1.390 . S
C820 C819 1.390 . S
C820 C821 1.394 . S
C820 C826 1.465 . S
C821 C816 1.399 . S
C821 C820 1.394 . S
C821 C822 1.516 . S
C822 C821 1.516 . S
C822 C823 1.502 . S
C822 C824 1.561 . S
C822 C825 1.526 . S
C823 H807 0.959 . S
C823 H808 0.959 . S
C823 H809 0.961 . S
C823 C822 1.502 . S
C824 H810 0.960 . S
C824 H811 0.961 . S
C824 H812 0.959 . S
C824 C822 1.561 . S
C825 C822 1.526 . S
C825 C826 1.396 . S
C825 C830 1.390 . S
C826 C820 1.465 . S
C826 C825 1.396 . S
C826 C827 1.399 . S
C827 H813 0.929 . S
C827 C826 1.399 . S
C827 C828 1.385 . S
C828 H814 0.931 . S
C828 C827 1.385 . S
C828 C829 1.389 . S
C829 C828 1.389 . S
C829 C830 1.387 . S
C830 H815 0.930 . S
C830 C825 1.390 . S
C830 C829 1.387 . S
H831 C843 0.930 . S
H832 C845 0.930 . S
H833 C846 0.930 . S
H834 C850 0.959 . S
H835 C850 0.959 . S
H836 C850 0.961 . S
H837 C851 0.960 . S
H838 C851 0.961 . S
H839 C851 0.959 . S
H840 C854 0.929 . S
H841 C855 0.931 . S
H842 C857 0.930 . S
C843 H831 0.930 . S
C843 C844 1.399 . S
C843 C848 1.399 . S
C844 C843 1.399 . S
C844 C845 1.376 . S
C845 H832 0.930 . S
C845 C844 1.376 . S
C845 C846 1.388 . S
C846 H833 0.930 . S
C846 C845 1.388 . S
C846 C847 1.390 . S
C847 C846 1.390 . S
C847 C848 1.394 . S
C847 C853 1.465 . S
C848 C843 1.399 . S
C848 C847 1.394 . S
C848 C849 1.516 . S
C849 C848 1.516 . S
C849 C850 1.502 . S
C849 C851 1.561 . S
C849 C852 1.526 . S
C850 H834 0.959 . S
C850 H835 0.959 . S
C850 H836 0.961 . S
C850 C849 1.502 . S
C851 H837 0.960 . S
C851 H838 0.961 . S
C851 H839 0.959 . S
C851 C849 1.561 . S
C852 C849 1.526 . S
C852 C853 1.396 . S
C852 C857 1.390 . S
C853 C847 1.465 . S
C853 C852 1.396 . S
C853 C854 1.399 . S
C854 H840 0.929 . S
C854 C853 1.399 . S
C854 C855 1.385 . S
C855 H841 0.931 . S
C855 C854 1.385 . S
C855 C856 1.389 . S
C856 C855 1.389 . S
C856 C857 1.387 . S
C857 H842 0.930 . S
C857 C852 1.390 . S
C857 C856 1.387 . S
H858 C870 0.930 . S
H859 C872 0.930 . S
H860 C873 0.930 . S
H861 C877 0.959 . S
H862 C877 0.959 . S
H863 C877 0.961 . S
H864 C878 0.960 . S
H865 C878 0.961 . S
H866 C878 0.959 . S
H867 C881 0.929 . S
H868 C882 0.931 . S
H869 C884 0.930 . S
C870 H858 0.930 . S
C870 C871 1.399 . S
C870 C875 1.399 . S
C871 C870 1.399 . S
C871 C872 1.376 . S
C872 H859 0.930 . S
C872 C871 1.376 . S
C872 C873 1.388 . S
C873 H860 0.930 . S
C873 C872 1.388 . S
C873 C874 1.390 . S
C874 C873 1.390 . S
C874 C875 1.394 . S
C874 C880 1.465 . S
C875 C870 1.399 . S
C875 C874 1.394 . S
C875 C876 1.516 . S
C876 C875 1.516 . S
C876 C877 1.502 . S
C876 C878 1.561 . S
C876 C879 1.526 . S
C877 H861 0.959 . S
C877 H862 0.959 . S
C877 H863 0.961 . S
C877 C876 1.502 . S
C878 H864 0.960 . S
C878 H865 0.961 . S
C878 H866 0.959 . S
C878 C876 1.561 . S
C879 C876 1.526 . S
C879 C880 1.396 . S
C879 C884 1.390 . S
C880 C874 1.465 . S
C880 C879 1.396 . S
C880 C881 1.399 . S
C881 H867 0.929 . S
C881 C880 1.399 . S
C881 C882 1.385 . S
C882 H868 0.931 . S
C882 C881 1.385 . S
C882 C883 1.389 . S
C883 C882 1.389 . S
C883 C884 1.387 . S
C884 H869 0.930 . S
C884 C879 1.390 . S
C884 C883 1.387 . S
H885 C897 0.930 . S
H886 C899 0.930 . S
H887 C900 0.930 . S
H888 C904 0.959 . S
H889 C904 0.959 . S
H890 C904 0.961 . S
H891 C905 0.960 . S
H892 C905 0.961 . S
H893 C905 0.959 . S
H894 C908 0.929 . S
H895 C909 0.931 . S
H896 C911 0.930 . S
C897 H885 0.930 . S
C897 C898 1.399 . S
C897 C902 1.399 . S
C898 C897 1.399 . S
C898 C899 1.376 . S
C899 H886 0.930 . S
C899 C898 1.376 . S
C899 C900 1.388 . S
C900 H887 0.930 . S
C900 C899 1.388 . S
C900 C901 1.390 . S
C901 C900 1.390 . S
C901 C902 1.394 . S
C901 C907 1.465 . S
C902 C897 1.399 . S
C902 C901 1.394 . S
C902 C903 1.516 . S
C903 C902 1.516 . S
C903 C904 1.502 . S
C903 C905 1.561 . S
C903 C906 1.526 . S
C904 H888 0.959 . S
C904 H889 0.959 . S
C904 H890 0.961 . S
C904 C903 1.502 . S
C905 H891 0.960 . S
C905 H892 0.961 . S
C905 H893 0.959 . S
C905 C903 1.561 . S
C906 C903 1.526 . S
C906 C907 1.396 . S
C906 C911 1.390 . S
C907 C901 1.465 . S
C907 C906 1.396 . S
C907 C908 1.399 . S
C908 H894 0.929 . S
C908 C907 1.399 . S
C908 C909 1.385 . S
C909 H895 0.931 . S
C909 C908 1.385 . S
C909 C910 1.389 . S
C910 C909 1.389 . S
C910 C911 1.387 . S
C911 H896 0.930 . S
C911 C906 1.390 . S
C911 C910 1.387 . S
H912 C924 0.930 . S
H913 C926 0.930 . S
H914 C927 0.930 . S
H915 C931 0.959 . S
H916 C931 0.959 . S
H917 C931 0.961 . S
H918 C932 0.960 . S
H919 C932 0.961 . S
H920 C932 0.959 . S
H921 C935 0.929 . S
H922 C936 0.931 . S
H923 C938 0.930 . S
C924 H912 0.930 . S
C924 C925 1.399 . S
C924 C929 1.399 . S
C925 C924 1.399 . S
C925 C926 1.376 . S
C926 H913 0.930 . S
C926 C925 1.376 . S
C926 C927 1.388 . S
C927 H914 0.930 . S
C927 C926 1.388 . S
C927 C928 1.390 . S
C928 C927 1.390 . S
C928 C929 1.394 . S
C928 C934 1.465 . S
C929 C924 1.399 . S
C929 C928 1.394 . S
C929 C930 1.516 . S
C930 C929 1.516 . S
C930 C931 1.502 . S
C930 C932 1.561 . S
C930 C933 1.526 . S
C931 H915 0.959 . S
C931 H916 0.959 . S
C931 H917 0.961 . S
C931 C930 1.502 . S
C932 H918 0.960 . S
C932 H919 0.961 . S
C932 H920 0.959 . S
C932 C930 1.561 . S
C933 C930 1.526 . S
C933 C934 1.396 . S
C933 C938 1.390 . S
C934 C928 1.465 . S
C934 C933 1.396 . S
C934 C935 1.399 . S
C935 H921 0.929 . S
C935 C934 1.399 . S
C935 C936 1.385 . S
C936 H922 0.931 . S
C936 C935 1.385 . S
C936 C937 1.389 . S
C937 C936 1.389 . S
C937 C938 1.387 . S
C938 H923 0.930 . S
C938 C933 1.390 . S
C938 C937 1.387 . S
H939 C951 0.930 . S
H940 C953 0.930 . S
H941 C954 0.930 . S
H942 C958 0.959 . S
H943 C958 0.959 . S
H944 C958 0.961 . S
H945 C959 0.960 . S
H946 C959 0.961 . S
H947 C959 0.959 . S
H948 C962 0.929 . S
H949 C963 0.931 . S
H950 C965 0.930 . S
C951 H939 0.930 . S
C951 C952 1.399 . S
C951 C956 1.399 . S
C952 C951 1.399 . S
C952 C953 1.376 . S
C953 H940 0.930 . S
C953 C952 1.376 . S
C953 C954 1.388 . S
C954 H941 0.930 . S
C954 C953 1.388 . S
C954 C955 1.390 . S
C955 C954 1.390 . S
C955 C956 1.394 . S
C955 C961 1.465 . S
C956 C951 1.399 . S
C956 C955 1.394 . S
C956 C957 1.516 . S
C957 C956 1.516 . S
C957 C958 1.502 . S
C957 C959 1.561 . S
C957 C960 1.526 . S
C958 H942 0.959 . S
C958 H943 0.959 . S
C958 H944 0.961 . S
C958 C957 1.502 . S
C959 H945 0.960 . S
C959 H946 0.961 . S
C959 H947 0.959 . S
C959 C957 1.561 . S
C960 C957 1.526 . S
C960 C961 1.396 . S
C960 C965 1.390 . S
C961 C955 1.465 . S
C961 C960 1.396 . S
C961 C962 1.399 . S
C962 H948 0.929 . S
C962 C961 1.399 . S
C962 C963 1.385 . S
C963 H949 0.931 . S
C963 C962 1.385 . S
C963 C964 1.389 . S
C964 C963 1.389 . S
C964 C965 1.387 . S
C965 H950 0.930 . S
C965 C960 1.390 . S
C965 C964 1.387 . S
H966 C978 0.930 . S
H967 C980 0.930 . S
H968 C981 0.930 . S
H969 C985 0.959 . S
H970 C985 0.959 . S
H971 C985 0.961 . S
H972 C986 0.960 . S
H973 C986 0.961 . S
H974 C986 0.959 . S
H975 C989 0.929 . S
H976 C990 0.931 . S
H977 C992 0.930 . S
C978 H966 0.930 . S
C978 C979 1.399 . S
C978 C983 1.399 . S
C979 C978 1.399 . S
C979 C980 1.376 . S
C980 H967 0.930 . S
C980 C979 1.376 . S
C980 C981 1.388 . S
C981 H968 0.930 . S
C981 C980 1.388 . S
C981 C982 1.390 . S
C982 C981 1.390 . S
C982 C983 1.394 . S
C982 C988 1.465 . S
C983 C978 1.399 . S
C983 C982 1.394 . S
C983 C984 1.516 . S
C984 C983 1.516 . S
C984 C985 1.502 . S
C984 C986 1.561 . S
C984 C987 1.526 . S
C985 H969 0.959 . S
C985 H970 0.959 . S
C985 H971 0.961 . S
C985 C984 1.502 . S
C986 H972 0.960 . S
C986 H973 0.961 . S
C986 H974 0.959 . S
C986 C984 1.561 . S
C987 C984 1.526 . S
C987 C988 1.396 . S
C987 C992 1.390 . S
C988 C982 1.465 . S
C988 C987 1.396 . S
C988 C989 1.399 . S
C989 H975 0.929 . S
C989 C988 1.399 . S
C989 C990 1.385 . S
C990 H976 0.931 . S
C990 C989 1.385 . S
C990 C991 1.389 . S
C991 C990 1.389 . S
C991 C992 1.387 . S
C992 H977 0.930 . S
C992 C987 1.390 . S
C992 C991 1.387 . S
H993 C1005 0.930 . S
H994 C1007 0.930 . S
H995 C1008 0.930 . S
H996 C1012 0.959 . S
H997 C1012 0.959 . S
H998 C1012 0.961 . S
H999 C1013 0.960 . S
H1000 C1013 0.961 . S
H1001 C1013 0.959 . S
H1002 C1016 0.929 . S
H1003 C1017 0.931 . S
H1004 C1019 0.930 . S
C1005 H993 0.930 . S
C1005 C1006 1.399 . S
C1005 C1010 1.399 . S
C1006 C1005 1.399 . S
C1006 C1007 1.376 . S
C1007 H994 0.930 . S
C1007 C1006 1.376 . S
C1007 C1008 1.388 . S
C1008 H995 0.930 . S
C1008 C1007 1.388 . S
C1008 C1009 1.390 . S
C1009 C1008 1.390 . S
C1009 C1010 1.394 . S
C1009 C1015 1.465 . S
C1010 C1005 1.399 . S
C1010 C1009 1.394 . S
C1010 C1011 1.516 . S
C1011 C1010 1.516 . S
C1011 C1012 1.502 . S
C1011 C1013 1.561 . S
C1011 C1014 1.526 . S
C1012 H996 0.959 . S
C1012 H997 0.959 . S
C1012 H998 0.961 . S
C1012 C1011 1.502 . S
C1013 H999 0.960 . S
C1013 H1000 0.961 . S
C1013 H1001 0.959 . S
C1013 C1011 1.561 . S
C1014 C1011 1.526 . S
C1014 C1015 1.396 . S
C1014 C1019 1.390 . S
C1015 C1009 1.465 . S
C1015 C1014 1.396 . S
C1015 C1016 1.399 . S
C1016 H1002 0.929 . S
C1016 C1015 1.399 . S
C1016 C1017 1.385 . S
C1017 H1003 0.931 . S
C1017 C1016 1.385 . S
C1017 C1018 1.389 . S
C1018 C1017 1.389 . S
C1018 C1019 1.387 . S
C1019 H1004 0.930 . S
C1019 C1014 1.390 . S
C1019 C1018 1.387 . S
H1020 C1032 0.930 . S
H1021 C1034 0.930 . S
H1022 C1035 0.930 . S
H1023 C1039 0.959 . S
H1024 C1039 0.959 . S
H1025 C1039 0.961 . S
H1026 C1040 0.960 . S
H1027 C1040 0.961 . S
H1028 C1040 0.959 . S
H1029 C1043 0.929 . S
H1030 C1044 0.931 . S
H1031 C1046 0.930 . S
C1032 H1020 0.930 . S
C1032 C1033 1.399 . S
C1032 C1037 1.399 . S
C1033 C1032 1.399 . S
C1033 C1034 1.376 . S
C1034 H1021 0.930 . S
C1034 C1033 1.376 . S
C1034 C1035 1.388 . S
C1035 H1022 0.930 . S
C1035 C1034 1.388 . S
C1035 C1036 1.390 . S
C1036 C1035 1.390 . S
C1036 C1037 1.394 . S
C1036 C1042 1.465 . S
C1037 C1032 1.399 . S
C1037 C1036 1.394 . S
C1037 C1038 1.516 . S
C1038 C1037 1.516 . S
C1038 C1039 1.502 . S
C1038 C1040 1.561 . S
C1038 C1041 1.526 . S
C1039 H1023 0.959 . S
C1039 H1024 0.959 . S
C1039 H1025 0.961 . S
C1039 C1038 1.502 . S
C1040 H1026 0.960 . S
C1040 H1027 0.961 . S
C1040 H1028 0.959 . S
C1040 C1038 1.561 . S
C1041 C1038 1.526 . S
C1041 C1042 1.396 . S
C1041 C1046 1.390 . S
C1042 C1036 1.465 . S
C1042 C1041 1.396 . S
C1042 C1043 1.399 . S
C1043 H1029 0.929 . S
C1043 C1042 1.399 . S
C1043 C1044 1.385 . S
C1044 H1030 0.931 . S
C1044 C1043 1.385 . S
C1044 C1045 1.389 . S
C1045 C1044 1.389 . S
C1045 C1046 1.387 . S
C1046 H1031 0.930 . S
C1046 C1041 1.390 . S
C1046 C1045 1.387 . S
H1047 C1059 0.930 . S
H1048 C1061 0.930 . S
H1049 C1062 0.930 . S
H1050 C1066 0.959 . S
H1051 C1066 0.959 . S
H1052 C1066 0.961 . S
H1053 C1067 0.960 . S
H1054 C1067 0.961 . S
H1055 C1067 0.959 . S
H1056 C1070 0.929 . S
H1057 C1071 0.931 . S
H1058 C1073 0.930 . S
C1059 H1047 0.930 . S
C1059 C1060 1.399 . S
C1059 C1064 1.399 . S
C1060 C1059 1.399 . S
C1060 C1061 1.376 . S
C1061 H1048 0.930 . S
C1061 C1060 1.376 . S
C1061 C1062 1.388 . S
C1062 H1049 0.930 . S
C1062 C1061 1.388 . S
C1062 C1063 1.390 . S
C1063 C1062 1.390 . S
C1063 C1064 1.394 . S
C1063 C1069 1.465 . S
C1064 C1059 1.399 . S
C1064 C1063 1.394 . S
C1064 C1065 1.516 . S
C1065 C1064 1.516 . S
C1065 C1066 1.502 . S
C1065 C1067 1.561 . S
C1065 C1068 1.526 . S
C1066 H1050 0.959 . S
C1066 H1051 0.959 . S
C1066 H1052 0.961 . S
C1066 C1065 1.502 . S
C1067 H1053 0.960 . S
C1067 H1054 0.961 . S
C1067 H1055 0.959 . S
C1067 C1065 1.561 . S
C1068 C1065 1.526 . S
C1068 C1069 1.396 . S
C1068 C1073 1.390 . S
C1069 C1063 1.465 . S
C1069 C1068 1.396 . S
C1069 C1070 1.399 . S
C1070 H1056 0.929 . S
C1070 C1069 1.399 . S
C1070 C1071 1.385 . S
C1071 H1057 0.931 . S
C1071 C1070 1.385 . S
C1071 C1072 1.389 . S
C1072 C1071 1.389 . S
C1072 C1073 1.387 . S
C1073 H1058 0.930 . S
C1073 C1068 1.390 . S
C1073 C1072 1.387 . S
H1074 C1086 0.930 . S
H1075 C1088 0.930 . S
H1076 C1089 0.930 . S
H1077 C1093 0.959 . S
H1078 C1093 0.959 . S
H1079 C1093 0.961 . S
H1080 C1094 0.960 . S
H1081 C1094 0.961 . S
H1082 C1094 0.959 . S
H1083 C1097 0.929 . S
H1084 C1098 0.931 . S
H1085 C1100 0.930 . S
C1086 H1074 0.930 . S
C1086 C1087 1.399 . S
C1086 C1091 1.399 . S
C1087 C1086 1.399 . S
C1087 C1088 1.376 . S
C1088 H1075 0.930 . S
C1088 C1087 1.376 . S
C1088 C1089 1.388 . S
C1089 H1076 0.930 . S
C1089 C1088 1.388 . S
C1089 C1090 1.390 . S
C1090 C1089 1.390 . S
C1090 C1091 1.394 . S
C1090 C1096 1.465 . S
C1091 C1086 1.399 . S
C1091 C1090 1.394 . S
C1091 C1092 1.516 . S
C1092 C1091 1.516 . S
C1092 C1093 1.502 . S
C1092 C1094 1.561 . S
C1092 C1095 1.526 . S
C1093 H1077 0.959 . S
C1093 H1078 0.959 . S
C1093 H1079 0.961 . S
C1093 C1092 1.502 . S
C1094 H1080 0.960 . S
C1094 H1081 0.961 . S
C1094 H1082 0.959 . S
C1094 C1092 1.561 . S
C1095 C1092 1.526 . S
C1095 C1096 1.396 . S
C1095 C1100 1.390 . S
C1096 C1090 1.465 . S
C1096 C1095 1.396 . S
C1096 C1097 1.399 . S
C1097 H1083 0.929 . S
C1097 C1096 1.399 . S
C1097 C1098 1.385 . S
C1098 H1084 0.931 . S
C1098 C1097 1.385 . S
C1098 C1099 1.389 . S
C1099 C1098 1.389 . S
C1099 C1100 1.387 . S
C1100 H1085 0.930 . S
C1100 C1095 1.390 . S
C1100 C1099 1.387 . S
H1101 C1113 0.930 . S
H1102 C1115 0.930 . S
H1103 C1116 0.930 . S
H1104 C1120 0.959 . S
H1105 C1120 0.959 . S
H1106 C1120 0.961 . S
H1107 C1121 0.960 . S
H1108 C1121 0.961 . S
H1109 C1121 0.959 . S
H1110 C1124 0.929 . S
H1111 C1125 0.931 . S
H1112 C1127 0.930 . S
C1113 H1101 0.930 . S
C1113 C1114 1.399 . S
C1113 C1118 1.399 . S
C1114 C1113 1.399 . S
C1114 C1115 1.376 . S
C1115 H1102 0.930 . S
C1115 C1114 1.376 . S
C1115 C1116 1.388 . S
C1116 H1103 0.930 . S
C1116 C1115 1.388 . S
C1116 C1117 1.390 . S
C1117 C1116 1.390 . S
C1117 C1118 1.394 . S
C1117 C1123 1.465 . S
C1118 C1113 1.399 . S
C1118 C1117 1.394 . S
C1118 C1119 1.516 . S
C1119 C1118 1.516 . S
C1119 C1120 1.502 . S
C1119 C1121 1.561 . S
C1119 C1122 1.526 . S
C1120 H1104 0.959 . S
C1120 H1105 0.959 . S
C1120 H1106 0.961 . S
C1120 C1119 1.502 . S
C1121 H1107 0.960 . S
C1121 H1108 0.961 . S
C1121 H1109 0.959 . S
C1121 C1119 1.561 . S
C1122 C1119 1.526 . S
C1122 C1123 1.396 . S
C1122 C1127 1.390 . S
C1123 C1117 1.465 . S
C1123 C1122 1.396 . S
C1123 C1124 1.399 . S
C1124 H1110 0.929 . S
C1124 C1123 1.399 . S
C1124 C1125 1.385 . S
C1125 H1111 0.931 . S
C1125 C1124 1.385 . S
C1125 C1126 1.389 . S
C1126 C1125 1.389 . S
C1126 C1127 1.387 . S
C1127 H1112 0.930 . S
C1127 C1122 1.390 . S
C1127 C1126 1.387 . S
H1128 C1140 0.930 . S
H1129 C1142 0.930 . S
H1130 C1143 0.930 . S
H1131 C1147 0.959 . S
H1132 C1147 0.959 . S
H1133 C1147 0.961 . S
H1134 C1148 0.960 . S
H1135 C1148 0.961 . S
H1136 C1148 0.959 . S
H1137 C1151 0.929 . S
H1138 C1152 0.931 . S
H1139 C1154 0.930 . S
C1140 H1128 0.930 . S
C1140 C1141 1.399 . S
C1140 C1145 1.399 . S
C1141 C1140 1.399 . S
C1141 C1142 1.376 . S
C1142 H1129 0.930 . S
C1142 C1141 1.376 . S
C1142 C1143 1.388 . S
C1143 H1130 0.930 . S
C1143 C1142 1.388 . S
C1143 C1144 1.390 . S
C1144 C1143 1.390 . S
C1144 C1145 1.394 . S
C1144 C1150 1.465 . S
C1145 C1140 1.399 . S
C1145 C1144 1.394 . S
C1145 C1146 1.516 . S
C1146 C1145 1.516 . S
C1146 C1147 1.502 . S
C1146 C1148 1.561 . S
C1146 C1149 1.526 . S
C1147 H1131 0.959 . S
C1147 H1132 0.959 . S
C1147 H1133 0.961 . S
C1147 C1146 1.502 . S
C1148 H1134 0.960 . S
C1148 H1135 0.961 . S
C1148 H1136 0.959 . S
C1148 C1146 1.561 . S
C1149 C1146 1.526 . S
C1149 C1150 1.396 . S
C1149 C1154 1.390 . S
C1150 C1144 1.465 . S
C1150 C1149 1.396 . S
C1150 C1151 1.399 . S
C1151 H1137 0.929 . S
C1151 C1150 1.399 . S
C1151 C1152 1.385 . S
C1152 H1138 0.931 . S
C1152 C1151 1.385 . S
C1152 C1153 1.389 . S
C1153 C1152 1.389 . S
C1153 C1154 1.387 . S
C1154 H1139 0.930 . S
C1154 C1149 1.390 . S
C1154 C1153 1.387 . S
H1155 C1167 0.930 . S
H1156 C1169 0.930 . S
H1157 C1170 0.930 . S
H1158 C1174 0.959 . S
H1159 C1174 0.959 . S
H1160 C1174 0.961 . S
H1161 C1175 0.960 . S
H1162 C1175 0.961 . S
H1163 C1175 0.959 . S
H1164 C1178 0.929 . S
H1165 C1179 0.931 . S
H1166 C1181 0.930 . S
C1167 H1155 0.930 . S
C1167 C1168 1.399 . S
C1167 C1172 1.399 . S
C1168 C1167 1.399 . S
C1168 C1169 1.376 . S
C1169 H1156 0.930 . S
C1169 C1168 1.376 . S
C1169 C1170 1.388 . S
C1170 H1157 0.930 . S
C1170 C1169 1.388 . S
C1170 C1171 1.390 . S
C1171 C1170 1.390 . S
C1171 C1172 1.394 . S
C1171 C1177 1.465 . S
C1172 C1167 1.399 . S
C1172 C1171 1.394 . S
C1172 C1173 1.516 . S
C1173 C1172 1.516 . S
C1173 C1174 1.502 . S
C1173 C1175 1.561 . S
C1173 C1176 1.526 . S
C1174 H1158 0.959 . S
C1174 H1159 0.959 . S
C1174 H1160 0.961 . S
C1174 C1173 1.502 . S
C1175 H1161 0.960 . S
C1175 H1162 0.961 . S
C1175 H1163 0.959 . S
C1175 C1173 1.561 . S
C1176 C1173 1.526 . S
C1176 C1177 1.396 . S
C1176 C1181 1.390 . S
C1177 C1171 1.465 . S
C1177 C1176 1.396 . S
C1177 C1178 1.399 . S
C1178 H1164 0.929 . S
C1178 C1177 1.399 . S
C1178 C1179 1.385 . S
C1179 H1165 0.931 . S
C1179 C1178 1.385 . S
C1179 C1180 1.389 . S
C1180 C1179 1.389 . S
C1180 C1181 1.387 . S
C1181 H1166 0.930 . S
C1181 C1176 1.390 . S
C1181 C1180 1.387 . S
H1182 C1194 0.930 . S
H1183 C1196 0.930 . S
H1184 C1197 0.930 . S
H1185 C1201 0.959 . S
H1186 C1201 0.959 . S
H1187 C1201 0.961 . S
H1188 C1202 0.960 . S
H1189 C1202 0.961 . S
H1190 C1202 0.959 . S
H1191 C1205 0.929 . S
H1192 C1206 0.931 . S
H1193 C1208 0.930 . S
C1194 H1182 0.930 . S
C1194 C1195 1.399 . S
C1194 C1199 1.399 . S
C1195 C1194 1.399 . S
C1195 C1196 1.376 . S
C1196 H1183 0.930 . S
C1196 C1195 1.376 . S
C1196 C1197 1.388 . S
C1197 H1184 0.930 . S
C1197 C1196 1.388 . S
C1197 C1198 1.390 . S
C1198 C1197 1.390 . S
C1198 C1199 1.394 . S
C1198 C1204 1.465 . S
C1199 C1194 1.399 . S
C1199 C1198 1.394 . S
C1199 C1200 1.516 . S
C1200 C1199 1.516 . S
C1200 C1201 1.502 . S
C1200 C1202 1.561 . S
C1200 C1203 1.526 . S
C1201 H1185 0.959 . S
C1201 H1186 0.959 . S
C1201 H1187 0.961 . S
C1201 C1200 1.502 . S
C1202 H1188 0.960 . S
C1202 H1189 0.961 . S
C1202 H1190 0.959 . S
C1202 C1200 1.561 . S
C1203 C1200 1.526 . S
C1203 C1204 1.396 . S
C1203 C1208 1.390 . S
C1204 C1198 1.465 . S
C1204 C1203 1.396 . S
C1204 C1205 1.399 . S
C1205 H1191 0.929 . S
C1205 C1204 1.399 . S
C1205 C1206 1.385 . S
C1206 H1192 0.931 . S
C1206 C1205 1.385 . S
C1206 C1207 1.389 . S
C1207 C1206 1.389 . S
C1207 C1208 1.387 . S
C1208 H1193 0.930 . S
C1208 C1203 1.390 . S
C1208 C1207 1.387 . S
H1209 C1221 0.930 . S
H1210 C1223 0.930 . S
H1211 C1224 0.930 . S
H1212 C1228 0.959 . S
H1213 C1228 0.959 . S
H1214 C1228 0.961 . S
H1215 C1229 0.960 . S
H1216 C1229 0.961 . S
H1217 C1229 0.959 . S
H1218 C1232 0.929 . S
H1219 C1233 0.931 . S
H1220 C1235 0.930 . S
C1221 H1209 0.930 . S
C1221 C1222 1.399 . S
C1221 C1226 1.399 . S
C1222 C1221 1.399 . S
C1222 C1223 1.376 . S
C1223 H1210 0.930 . S
C1223 C1222 1.376 . S
C1223 C1224 1.388 . S
C1224 H1211 0.930 . S
C1224 C1223 1.388 . S
C1224 C1225 1.390 . S
C1225 C1224 1.390 . S
C1225 C1226 1.394 . S
C1225 C1231 1.465 . S
C1226 C1221 1.399 . S
C1226 C1225 1.394 . S
C1226 C1227 1.516 . S
C1227 C1226 1.516 . S
C1227 C1228 1.502 . S
C1227 C1229 1.561 . S
C1227 C1230 1.526 . S
C1228 H1212 0.959 . S
C1228 H1213 0.959 . S
C1228 H1214 0.961 . S
C1228 C1227 1.502 . S
C1229 H1215 0.960 . S
C1229 H1216 0.961 . S
C1229 H1217 0.959 . S
C1229 C1227 1.561 . S
C1230 C1227 1.526 . S
C1230 C1231 1.396 . S
C1230 C1235 1.390 . S
C1231 C1225 1.465 . S
C1231 C1230 1.396 . S
C1231 C1232 1.399 . S
C1232 H1218 0.929 . S
C1232 C1231 1.399 . S
C1232 C1233 1.385 . S
C1233 H1219 0.931 . S
C1233 C1232 1.385 . S
C1233 C1234 1.389 . S
C1234 C1233 1.389 . S
C1234 C1235 1.387 . S
C1235 H1220 0.930 . S
C1235 C1230 1.390 . S
C1235 C1234 1.387 . S
H1236 C1248 0.930 . S
H1237 C1250 0.930 . S
H1238 C1251 0.930 . S
H1239 C1255 0.959 . S
H1240 C1255 0.959 . S
H1241 C1255 0.961 . S
H1242 C1256 0.960 . S
H1243 C1256 0.961 . S
H1244 C1256 0.959 . S
H1245 C1259 0.929 . S
H1246 C1260 0.931 . S
H1247 C1262 0.930 . S
C1248 H1236 0.930 . S
C1248 C1249 1.399 . S
C1248 C1253 1.399 . S
C1249 C1248 1.399 . S
C1249 C1250 1.376 . S
C1250 H1237 0.930 . S
C1250 C1249 1.376 . S
C1250 C1251 1.388 . S
C1251 H1238 0.930 . S
C1251 C1250 1.388 . S
C1251 C1252 1.390 . S
C1252 C1251 1.390 . S
C1252 C1253 1.394 . S
C1252 C1258 1.465 . S
C1253 C1248 1.399 . S
C1253 C1252 1.394 . S
C1253 C1254 1.516 . S
C1254 C1253 1.516 . S
C1254 C1255 1.502 . S
C1254 C1256 1.561 . S
C1254 C1257 1.526 . S
C1255 H1239 0.959 . S
C1255 H1240 0.959 . S
C1255 H1241 0.961 . S
C1255 C1254 1.502 . S
C1256 H1242 0.960 . S
C1256 H1243 0.961 . S
C1256 H1244 0.959 . S
C1256 C1254 1.561 . S
C1257 C1254 1.526 . S
C1257 C1258 1.396 . S
C1257 C1262 1.390 . S
C1258 C1252 1.465 . S
C1258 C1257 1.396 . S
C1258 C1259 1.399 . S
C1259 H1245 0.929 . S
C1259 C1258 1.399 . S
C1259 C1260 1.385 . S
C1260 H1246 0.931 . S
C1260 C1259 1.385 . S
C1260 C1261 1.389 . S
C1261 C1260 1.389 . S
C1261 C1262 1.387 . S
C1262 H1247 0.930 . S
C1262 C1257 1.390 . S
C1262 C1261 1.387 . S
H1263 C1275 0.930 . S
H1264 C1277 0.930 . S
H1265 C1278 0.930 . S
H1266 C1282 0.959 . S
H1267 C1282 0.959 . S
H1268 C1282 0.961 . S
H1269 C1283 0.960 . S
H1270 C1283 0.961 . S
H1271 C1283 0.959 . S
H1272 C1286 0.929 . S
H1273 C1287 0.931 . S
H1274 C1289 0.930 . S
C1275 H1263 0.930 . S
C1275 C1276 1.399 . S
C1275 C1280 1.399 . S
C1276 C1275 1.399 . S
C1276 C1277 1.376 . S
C1277 H1264 0.930 . S
C1277 C1276 1.376 . S
C1277 C1278 1.388 . S
C1278 H1265 0.930 . S
C1278 C1277 1.388 . S
C1278 C1279 1.390 . S
C1279 C1278 1.390 . S
C1279 C1280 1.394 . S
C1279 C1285 1.465 . S
C1280 C1275 1.399 . S
C1280 C1279 1.394 . S
C1280 C1281 1.516 . S
C1281 C1280 1.516 . S
C1281 C1282 1.502 . S
C1281 C1283 1.561 . S
C1281 C1284 1.526 . S
C1282 H1266 0.959 . S
C1282 H1267 0.959 . S
C1282 H1268 0.961 . S
C1282 C1281 1.502 . S
C1283 H1269 0.960 . S
C1283 H1270 0.961 . S
C1283 H1271 0.959 . S
C1283 C1281 1.561 . S
C1284 C1281 1.526 . S
C1284 C1285 1.396 . S
C1284 C1289 1.390 . S
C1285 C1279 1.465 . S
C1285 C1284 1.396 . S
C1285 C1286 1.399 . S
C1286 H1272 0.929 . S
C1286 C1285 1.399 . S
C1286 C1287 1.385 . S
C1287 H1273 0.931 . S
C1287 C1286 1.385 . S
C1287 C1288 1.389 . S
C1288 C1287 1.389 . S
C1288 C1289 1.387 . S
C1289 H1274 0.930 . S
C1289 C1284 1.390 . S
C1289 C1288 1.387 . S
H1290 C1302 0.930 . S
H1291 C1304 0.930 . S
H1292 C1305 0.930 . S
H1293 C1309 0.959 . S
H1294 C1309 0.959 . S
H1295 C1309 0.961 . S
H1296 C1310 0.960 . S
H1297 C1310 0.961 . S
H1298 C1310 0.959 . S
H1299 C1313 0.929 . S
H1300 C1314 0.931 . S
H1301 C1316 0.930 . S
C1302 H1290 0.930 . S
C1302 C1303 1.399 . S
C1302 C1307 1.399 . S
C1303 C1302 1.399 . S
C1303 C1304 1.376 . S
C1304 H1291 0.930 . S
C1304 C1303 1.376 . S
C1304 C1305 1.388 . S
C1305 H1292 0.930 . S
C1305 C1304 1.388 . S
C1305 C1306 1.390 . S
C1306 C1305 1.390 . S
C1306 C1307 1.394 . S
C1306 C1312 1.465 . S
C1307 C1302 1.399 . S
C1307 C1306 1.394 . S
C1307 C1308 1.516 . S
C1308 C1307 1.516 . S
C1308 C1309 1.502 . S
C1308 C1310 1.561 . S
C1308 C1311 1.526 . S
C1309 H1293 0.959 . S
C1309 H1294 0.959 . S
C1309 H1295 0.961 . S
C1309 C1308 1.502 . S
C1310 H1296 0.960 . S
C1310 H1297 0.961 . S
C1310 H1298 0.959 . S
C1310 C1308 1.561 . S
C1311 C1308 1.526 . S
C1311 C1312 1.396 . S
C1311 C1316 1.390 . S
C1312 C1306 1.465 . S
C1312 C1311 1.396 . S
C1312 C1313 1.399 . S
C1313 H1299 0.929 . S
C1313 C1312 1.399 . S
C1313 C1314 1.385 . S
C1314 H1300 0.931 . S
C1314 C1313 1.385 . S
C1314 C1315 1.389 . S
C1315 C1314 1.389 . S
C1315 C1316 1.387 . S
C1316 H1301 0.930 . S
C1316 C1311 1.390 . S
C1316 C1315 1.387 . S
H1317 C1329 0.930 . S
H1318 C1331 0.930 . S
H1319 C1332 0.930 . S
H1320 C1336 0.959 . S
H1321 C1336 0.959 . S
H1322 C1336 0.961 . S
H1323 C1337 0.960 . S
H1324 C1337 0.961 . S
H1325 C1337 0.959 . S
H1326 C1340 0.929 . S
H1327 C1341 0.931 . S
H1328 C1343 0.930 . S
C1329 H1317 0.930 . S
C1329 C1330 1.399 . S
C1329 C1334 1.399 . S
C1330 C1329 1.399 . S
C1330 C1331 1.376 . S
C1331 H1318 0.930 . S
C1331 C1330 1.376 . S
C1331 C1332 1.388 . S
C1332 H1319 0.930 . S
C1332 C1331 1.388 . S
C1332 C1333 1.390 . S
C1333 C1332 1.390 . S
C1333 C1334 1.394 . S
C1333 C1339 1.465 . S
C1334 C1329 1.399 . S
C1334 C1333 1.394 . S
C1334 C1335 1.516 . S
C1335 C1334 1.516 . S
C1335 C1336 1.502 . S
C1335 C1337 1.561 . S
C1335 C1338 1.526 . S
C1336 H1320 0.959 . S
C1336 H1321 0.959 . S
C1336 H1322 0.961 . S
C1336 C1335 1.502 . S
C1337 H1323 0.960 . S
C1337 H1324 0.961 . S
C1337 H1325 0.959 . S
C1337 C1335 1.561 . S
C1338 C1335 1.526 . S
C1338 C1339 1.396 . S
C1338 C1343 1.390 . S
C1339 C1333 1.465 . S
C1339 C1338 1.396 . S
C1339 C1340 1.399 . S
C1340 H1326 0.929 . S
C1340 C1339 1.399 . S
C1340 C1341 1.385 . S
C1341 H1327 0.931 . S
C1341 C1340 1.385 . S
C1341 C1342 1.389 . S
C1342 C1341 1.389 . S
C1342 C1343 1.387 . S
C1343 H1328 0.930 . S
C1343 C1338 1.390 . S
C1343 C1342 1.387 . S
H1344 C1356 0.930 . S
H1345 C1358 0.930 . S
H1346 C1359 0.930 . S
H1347 C1363 0.959 . S
H1348 C1363 0.959 . S
H1349 C1363 0.961 . S
H1350 C1364 0.960 . S
H1351 C1364 0.961 . S
H1352 C1364 0.959 . S
H1353 C1367 0.929 . S
H1354 C1368 0.931 . S
H1355 C1370 0.930 . S
C1356 H1344 0.930 . S
C1356 C1357 1.399 . S
C1356 C1361 1.399 . S
C1357 C1356 1.399 . S
C1357 C1358 1.376 . S
C1358 H1345 0.930 . S
C1358 C1357 1.376 . S
C1358 C1359 1.388 . S
C1359 H1346 0.930 . S
C1359 C1358 1.388 . S
C1359 C1360 1.390 . S
C1360 C1359 1.390 . S
C1360 C1361 1.394 . S
C1360 C1366 1.465 . S
C1361 C1356 1.399 . S
C1361 C1360 1.394 . S
C1361 C1362 1.516 . S
C1362 C1361 1.516 . S
C1362 C1363 1.502 . S
C1362 C1364 1.561 . S
C1362 C1365 1.526 . S
C1363 H1347 0.959 . S
C1363 H1348 0.959 . S
C1363 H1349 0.961 . S
C1363 C1362 1.502 . S
C1364 H1350 0.960 . S
C1364 H1351 0.961 . S
C1364 H1352 0.959 . S
C1364 C1362 1.561 . S
C1365 C1362 1.526 . S
C1365 C1366 1.396 . S
C1365 C1370 1.390 . S
C1366 C1360 1.465 . S
C1366 C1365 1.396 . S
C1366 C1367 1.399 . S
C1367 H1353 0.929 . S
C1367 C1366 1.399 . S
C1367 C1368 1.385 . S
C1368 H1354 0.931 . S
C1368 C1367 1.385 . S
C1368 C1369 1.389 . S
C1369 C1368 1.389 . S
C1369 C1370 1.387 . S
C1370 H1355 0.930 . S
C1370 C1365 1.390 . S
C1370 C1369 1.387 . S
H1371 C1383 0.930 . S
H1372 C1385 0.930 . S
H1373 C1386 0.930 . S
H1374 C1390 0.959 . S
H1375 C1390 0.959 . S
H1376 C1390 0.961 . S
H1377 C1391 0.960 . S
H1378 C1391 0.961 . S
H1379 C1391 0.959 . S
H1380 C1394 0.929 . S
H1381 C1395 0.931 . S
H1382 C1397 0.930 . S
C1383 H1371 0.930 . S
C1383 C1384 1.399 . S
C1383 C1388 1.399 . S
C1384 C1383 1.399 . S
C1384 C1385 1.376 . S
C1385 H1372 0.930 . S
C1385 C1384 1.376 . S
C1385 C1386 1.388 . S
C1386 H1373 0.930 . S
C1386 C1385 1.388 . S
C1386 C1387 1.390 . S
C1387 C1386 1.390 . S
C1387 C1388 1.394 . S
C1387 C1393 1.465 . S
C1388 C1383 1.399 . S
C1388 C1387 1.394 . S
C1388 C1389 1.516 . S
C1389 C1388 1.516 . S
C1389 C1390 1.502 . S
C1389 C1391 1.561 . S
C1389 C1392 1.526 . S
C1390 H1374 0.959 . S
C1390 H1375 0.959 . S
C1390 H1376 0.961 . S
C1390 C1389 1.502 . S
C1391 H1377 0.960 . S
C1391 H1378 0.961 . S
C1391 H1379 0.959 . S
C1391 C1389 1.561 . S
C1392 C1389 1.526 . S
C1392 C1393 1.396 . S
C1392 C1397 1.390 . S
C1393 C1387 1.465 . S
C1393 C1392 1.396 . S
C1393 C1394 1.399 . S
C1394 H1380 0.929 . S
C1394 C1393 1.399 . S
C1394 C1395 1.385 . S
C1395 H1381 0.931 . S
C1395 C1394 1.385 . S
C1395 C1396 1.389 . S
C1396 C1395 1.389 . S
C1396 C1397 1.387 . S
C1397 H1382 0.930 . S
C1397 C1392 1.390 . S
C1397 C1396 1.387 . S
H1398 C1410 0.930 . S
H1399 C1412 0.930 . S
H1400 C1413 0.930 . S
H1401 C1417 0.959 . S
H1402 C1417 0.959 . S
H1403 C1417 0.961 . S
H1404 C1418 0.960 . S
H1405 C1418 0.961 . S
H1406 C1418 0.959 . S
H1407 C1421 0.929 . S
H1408 C1422 0.931 . S
H1409 C1424 0.930 . S
C1410 H1398 0.930 . S
C1410 C1411 1.399 . S
C1410 C1415 1.399 . S
C1411 C1410 1.399 . S
C1411 C1412 1.376 . S
C1412 H1399 0.930 . S
C1412 C1411 1.376 . S
C1412 C1413 1.388 . S
C1413 H1400 0.930 . S
C1413 C1412 1.388 . S
C1413 C1414 1.390 . S
C1414 C1413 1.390 . S
C1414 C1415 1.394 . S
C1414 C1420 1.465 . S
C1415 C1410 1.399 . S
C1415 C1414 1.394 . S
C1415 C1416 1.516 . S
C1416 C1415 1.516 . S
C1416 C1417 1.502 . S
C1416 C1418 1.561 . S
C1416 C1419 1.526 . S
C1417 H1401 0.959 . S
C1417 H1402 0.959 . S
C1417 H1403 0.961 . S
C1417 C1416 1.502 . S
C1418 H1404 0.960 . S
C1418 H1405 0.961 . S
C1418 H1406 0.959 . S
C1418 C1416 1.561 . S
C1419 C1416 1.526 . S
C1419 C1420 1.396 . S
C1419 C1424 1.390 . S
C1420 C1414 1.465 . S
C1420 C1419 1.396 . S
C1420 C1421 1.399 . S
C1421 H1407 0.929 . S
C1421 C1420 1.399 . S
C1421 C1422 1.385 . S
C1422 H1408 0.931 . S
C1422 C1421 1.385 . S
C1422 C1423 1.389 . S
C1423 C1422 1.389 . S
C1423 C1424 1.387 . S
C1424 H1409 0.930 . S
C1424 C1419 1.390 . S
C1424 C1423 1.387 . S
H1425 C1437 0.930 . S
H1426 C1439 0.930 . S
H1427 C1440 0.930 . S
H1428 C1444 0.959 . S
H1429 C1444 0.959 . S
H1430 C1444 0.961 . S
H1431 C1445 0.960 . S
H1432 C1445 0.961 . S
H1433 C1445 0.959 . S
H1434 C1448 0.929 . S
H1435 C1449 0.931 . S
H1436 C1451 0.930 . S
C1437 H1425 0.930 . S
C1437 C1438 1.399 . S
C1437 C1442 1.399 . S
C1438 C1437 1.399 . S
C1438 C1439 1.376 . S
C1439 H1426 0.930 . S
C1439 C1438 1.376 . S
C1439 C1440 1.388 . S
C1440 H1427 0.930 . S
C1440 C1439 1.388 . S
C1440 C1441 1.390 . S
C1441 C1440 1.390 . S
C1441 C1442 1.394 . S
C1441 C1447 1.465 . S
C1442 C1437 1.399 . S
C1442 C1441 1.394 . S
C1442 C1443 1.516 . S
C1443 C1442 1.516 . S
C1443 C1444 1.502 . S
C1443 C1445 1.561 . S
C1443 C1446 1.526 . S
C1444 H1428 0.959 . S
C1444 H1429 0.959 . S
C1444 H1430 0.961 . S
C1444 C1443 1.502 . S
C1445 H1431 0.960 . S
C1445 H1432 0.961 . S
C1445 H1433 0.959 . S
C1445 C1443 1.561 . S
C1446 C1443 1.526 . S
C1446 C1447 1.396 . S
C1446 C1451 1.390 . S
C1447 C1441 1.465 . S
C1447 C1446 1.396 . S
C1447 C1448 1.399 . S
C1448 H1434 0.929 . S
C1448 C1447 1.399 . S
C1448 C1449 1.385 . S
C1449 H1435 0.931 . S
C1449 C1448 1.385 . S
C1449 C1450 1.389 . S
C1450 C1449 1.389 . S
C1450 C1451 1.387 . S
C1451 H1436 0.930 . S
C1451 C1446 1.390 . S
C1451 C1450 1.387 . S
H1452 C1464 0.930 . S
H1453 C1466 0.930 . S
H1454 C1467 0.930 . S
H1455 C1471 0.959 . S
H1456 C1471 0.959 . S
H1457 C1471 0.961 . S
H1458 C1472 0.960 . S
H1459 C1472 0.961 . S
H1460 C1472 0.959 . S
H1461 C1475 0.929 . S
H1462 C1476 0.931 . S
H1463 C1478 0.930 . S
C1464 H1452 0.930 . S
C1464 C1465 1.399 . S
C1464 C1469 1.399 . S
C1465 C1464 1.399 . S
C1465 C1466 1.376 . S
C1466 H1453 0.930 . S
C1466 C1465 1.376 . S
C1466 C1467 1.388 . S
C1467 H1454 0.930 . S
C1467 C1466 1.388 . S
C1467 C1468 1.390 . S
C1468 C1467 1.390 . S
C1468 C1469 1.394 . S
C1468 C1474 1.465 . S
C1469 C1464 1.399 . S
C1469 C1468 1.394 . S
C1469 C1470 1.516 . S
C1470 C1469 1.516 . S
C1470 C1471 1.502 . S
C1470 C1472 1.561 . S
C1470 C1473 1.526 . S
C1471 H1455 0.959 . S
C1471 H1456 0.959 . S
C1471 H1457 0.961 . S
C1471 C1470 1.502 . S
C1472 H1458 0.960 . S
C1472 H1459 0.961 . S
C1472 H1460 0.959 . S
C1472 C1470 1.561 . S
C1473 C1470 1.526 . S
C1473 C1474 1.396 . S
C1473 C1478 1.390 . S
C1474 C1468 1.465 . S
C1474 C1473 1.396 . S
C1474 C1475 1.399 . S
C1475 H1461 0.929 . S
C1475 C1474 1.399 . S
C1475 C1476 1.385 . S
C1476 H1462 0.931 . S
C1476 C1475 1.385 . S
C1476 C1477 1.389 . S
C1477 C1476 1.389 . S
C1477 C1478 1.387 . S
C1478 H1463 0.930 . S
C1478 C1473 1.390 . S
C1478 C1477 1.387 . S
H1479 C1491 0.930 . S
H1480 C1493 0.930 . S
H1481 C1494 0.930 . S
H1482 C1498 0.959 . S
H1483 C1498 0.959 . S
H1484 C1498 0.961 . S
H1485 C1499 0.960 . S
H1486 C1499 0.961 . S
H1487 C1499 0.959 . S
H1488 C1502 0.929 . S
H1489 C1503 0.931 . S
H1490 C1505 0.930 . S
C1491 H1479 0.930 . S
C1491 C1492 1.399 . S
C1491 C1496 1.399 . S
C1492 C1491 1.399 . S
C1492 C1493 1.376 . S
C1493 H1480 0.930 . S
C1493 C1492 1.376 . S
C1493 C1494 1.388 . S
C1494 H1481 0.930 . S
C1494 C1493 1.388 . S
C1494 C1495 1.390 . S
C1495 C1494 1.390 . S
C1495 C1496 1.394 . S
C1495 C1501 1.465 . S
C1496 C1491 1.399 . S
C1496 C1495 1.394 . S
C1496 C1497 1.516 . S
C1497 C1496 1.516 . S
C1497 C1498 1.502 . S
C1497 C1499 1.561 . S
C1497 C1500 1.526 . S
C1498 H1482 0.959 . S
C1498 H1483 0.959 . S
C1498 H1484 0.961 . S
C1498 C1497 1.502 . S
C1499 H1485 0.960 . S
C1499 H1486 0.961 . S
C1499 H1487 0.959 . S
C1499 C1497 1.561 . S
C1500 C1497 1.526 . S
C1500 C1501 1.396 . S
C1500 C1505 1.390 . S
C1501 C1495 1.465 . S
C1501 C1500 1.396 . S
C1501 C1502 1.399 . S
C1502 H1488 0.929 . S
C1502 C1501 1.399 . S
C1502 C1503 1.385 . S
C1503 H1489 0.931 . S
C1503 C1502 1.385 . S
C1503 C1504 1.389 . S
C1504 C1503 1.389 . S
C1504 C1505 1.387 . S
C1505 H1490 0.930 . S
C1505 C1500 1.390 . S
C1505 C1504 1.387 . S
H1506 C1518 0.930 . S
H1507 C1520 0.930 . S
H1508 C1521 0.930 . S
H1509 C1525 0.959 . S
H1510 C1525 0.959 . S
H1511 C1525 0.961 . S
H1512 C1526 0.960 . S
H1513 C1526 0.961 . S
H1514 C1526 0.959 . S
H1515 C1529 0.929 . S
H1516 C1530 0.931 . S
H1517 C1532 0.930 . S
C1518 H1506 0.930 . S
C1518 C1519 1.399 . S
C1518 C1523 1.399 . S
C1519 C1518 1.399 . S
C1519 C1520 1.376 . S
C1520 H1507 0.930 . S
C1520 C1519 1.376 . S
C1520 C1521 1.388 . S
C1521 H1508 0.930 . S
C1521 C1520 1.388 . S
C1521 C1522 1.390 . S
C1522 C1521 1.390 . S
C1522 C1523 1.394 . S
C1522 C1528 1.465 . S
C1523 C1518 1.399 . S
C1523 C1522 1.394 . S
C1523 C1524 1.516 . S
C1524 C1523 1.516 . S
C1524 C1525 1.502 . S
C1524 C1526 1.561 . S
C1524 C1527 1.526 . S
C1525 H1509 0.959 . S
C1525 H1510 0.959 . S
C1525 H1511 0.961 . S
C1525 C1524 1.502 . S
C1526 H1512 0.960 . S
C1526 H1513 0.961 . S
C1526 H1514 0.959 . S
C1526 C1524 1.561 . S
C1527 C1524 1.526 . S
C1527 C1528 1.396 . S
C1527 C1532 1.390 . S
C1528 C1522 1.465 . S
C1528 C1527 1.396 . S
C1528 C1529 1.399 . S
C1529 H1515 0.929 . S
C1529 C1528 1.399 . S
C1529 C1530 1.385 . S
C1530 H1516 0.931 . S
C1530 C1529 1.385 . S
C1530 C1531 1.389 . S
C1531 C1530 1.389 . S
C1531 C1532 1.387 . S
C1532 H1517 0.930 . S
C1532 C1527 1.390 . S
C1532 C1531 1.387 . S
H1533 C1545 0.930 . S
H1534 C1547 0.930 . S
H1535 C1548 0.930 . S
H1536 C1552 0.959 . S
H1537 C1552 0.959 . S
H1538 C1552 0.961 . S
H1539 C1553 0.960 . S
H1540 C1553 0.961 . S
H1541 C1553 0.959 . S
H1542 C1556 0.929 . S
H1543 C1557 0.931 . S
H1544 C1559 0.930 . S
C1545 H1533 0.930 . S
C1545 C1546 1.399 . S
C1545 C1550 1.399 . S
C1546 C1545 1.399 . S
C1546 C1547 1.376 . S
C1547 H1534 0.930 . S
C1547 C1546 1.376 . S
C1547 C1548 1.388 . S
C1548 H1535 0.930 . S
C1548 C1547 1.388 . S
C1548 C1549 1.390 . S
C1549 C1548 1.390 . S
C1549 C1550 1.394 . S
C1549 C1555 1.465 . S
C1550 C1545 1.399 . S
C1550 C1549 1.394 . S
C1550 C1551 1.516 . S
C1551 C1550 1.516 . S
C1551 C1552 1.502 . S
C1551 C1553 1.561 . S
C1551 C1554 1.526 . S
C1552 H1536 0.959 . S
C1552 H1537 0.959 . S
C1552 H1538 0.961 . S
C1552 C1551 1.502 . S
C1553 H1539 0.960 . S
C1553 H1540 0.961 . S
C1553 H1541 0.959 . S
C1553 C1551 1.561 . S
C1554 C1551 1.526 . S
C1554 C1555 1.396 . S
C1554 C1559 1.390 . S
C1555 C1549 1.465 . S
C1555 C1554 1.396 . S
C1555 C1556 1.399 . S
C1556 H1542 0.929 . S
C1556 C1555 1.399 . S
C1556 C1557 1.385 . S
C1557 H1543 0.931 . S
C1557 C1556 1.385 . S
C1557 C1558 1.389 . S
C1558 C1557 1.389 . S
C1558 C1559 1.387 . S
C1559 H1544 0.930 . S
C1559 C1554 1.390 . S
C1559 C1558 1.387 . S
H1560 C1572 0.930 . S
H1561 C1574 0.930 . S
H1562 C1575 0.930 . S
H1563 C1579 0.959 . S
H1564 C1579 0.959 . S
H1565 C1579 0.961 . S
H1566 C1580 0.960 . S
H1567 C1580 0.961 . S
H1568 C1580 0.959 . S
H1569 C1583 0.929 . S
H1570 C1584 0.931 . S
H1571 C1586 0.930 . S
C1572 H1560 0.930 . S
C1572 C1573 1.399 . S
C1572 C1577 1.399 . S
C1573 C1572 1.399 . S
C1573 C1574 1.376 . S
C1574 H1561 0.930 . S
C1574 C1573 1.376 . S
C1574 C1575 1.388 . S
C1575 H1562 0.930 . S
C1575 C1574 1.388 . S
C1575 C1576 1.390 . S
C1576 C1575 1.390 . S
C1576 C1577 1.394 . S
C1576 C1582 1.465 . S
C1577 C1572 1.399 . S
C1577 C1576 1.394 . S
C1577 C1578 1.516 . S
C1578 C1577 1.516 . S
C1578 C1579 1.502 . S
C1578 C1580 1.561 . S
C1578 C1581 1.526 . S
C1579 H1563 0.959 . S
C1579 H1564 0.959 . S
C1579 H1565 0.961 . S
C1579 C1578 1.502 . S
C1580 H1566 0.960 . S
C1580 H1567 0.961 . S
C1580 H1568 0.959 . S
C1580 C1578 1.561 . S
C1581 C1578 1.526 . S
C1581 C1582 1.396 . S
C1581 C1586 1.390 . S
C1582 C1576 1.465 . S
C1582 C1581 1.396 . S
C1582 C1583 1.399 . S
C1583 H1569 0.929 . S
C1583 C1582 1.399 . S
C1583 C1584 1.385 . S
C1584 H1570 0.931 . S
C1584 C1583 1.385 . S
C1584 C1585 1.389 . S
C1585 C1584 1.389 . S
C1585 C1586 1.387 . S
C1586 H1571 0.930 . S
C1586 C1581 1.390 . S
C1586 C1585 1.387 . S
H1587 C1599 0.930 . S
H1588 C1601 0.930 . S
H1589 C1602 0.930 . S
H1590 C1606 0.959 . S
H1591 C1606 0.959 . S
H1592 C1606 0.961 . S
H1593 C1607 0.960 . S
H1594 C1607 0.961 . S
H1595 C1607 0.959 . S
H1596 C1610 0.929 . S
H1597 C1611 0.931 . S
H1598 C1613 0.930 . S
C1599 H1587 0.930 . S
C1599 C1600 1.399 . S
C1599 C1604 1.399 . S
C1600 C1599 1.399 . S
C1600 C1601 1.376 . S
C1601 H1588 0.930 . S
C1601 C1600 1.376 . S
C1601 C1602 1.388 . S
C1602 H1589 0.930 . S
C1602 C1601 1.388 . S
C1602 C1603 1.390 . S
C1603 C1602 1.390 . S
C1603 C1604 1.394 . S
C1603 C1609 1.465 . S
C1604 C1599 1.399 . S
C1604 C1603 1.394 . S
C1604 C1605 1.516 . S
C1605 C1604 1.516 . S
C1605 C1606 1.502 . S
C1605 C1607 1.561 . S
C1605 C1608 1.526 . S
C1606 H1590 0.959 . S
C1606 H1591 0.959 . S
C1606 H1592 0.961 . S
C1606 C1605 1.502 . S
C1607 H1593 0.960 . S
C1607 H1594 0.961 . S
C1607 H1595 0.959 . S
C1607 C1605 1.561 . S
C1608 C1605 1.526 . S
C1608 C1609 1.396 . S
C1608 C1613 1.390 . S
C1609 C1603 1.465 . S
C1609 C1608 1.396 . S
C1609 C1610 1.399 . S
C1610 H1596 0.929 . S
C1610 C1609 1.399 . S
C1610 C1611 1.385 . S
C1611 H1597 0.931 . S
C1611 C1610 1.385 . S
C1611 C1612 1.389 . S
C1612 C1611 1.389 . S
C1612 C1613 1.387 . S
C1613 H1598 0.930 . S
C1613 C1608 1.390 . S
C1613 C1612 1.387 . S
H1614 C1626 0.930 . S
H1615 C1628 0.930 . S
H1616 C1629 0.930 . S
H1617 C1633 0.959 . S
H1618 C1633 0.959 . S
H1619 C1633 0.961 . S
H1620 C1634 0.960 . S
H1621 C1634 0.961 . S
H1622 C1634 0.959 . S
H1623 C1637 0.929 . S
H1624 C1638 0.931 . S
H1625 C1640 0.930 . S
C1626 H1614 0.930 . S
C1626 C1627 1.399 . S
C1626 C1631 1.399 . S
C1627 C1626 1.399 . S
C1627 C1628 1.376 . S
C1628 H1615 0.930 . S
C1628 C1627 1.376 . S
C1628 C1629 1.388 . S
C1629 H1616 0.930 . S
C1629 C1628 1.388 . S
C1629 C1630 1.390 . S
C1630 C1629 1.390 . S
C1630 C1631 1.394 . S
C1630 C1636 1.465 . S
C1631 C1626 1.399 . S
C1631 C1630 1.394 . S
C1631 C1632 1.516 . S
C1632 C1631 1.516 . S
C1632 C1633 1.502 . S
C1632 C1634 1.561 . S
C1632 C1635 1.526 . S
C1633 H1617 0.959 . S
C1633 H1618 0.959 . S
C1633 H1619 0.961 . S
C1633 C1632 1.502 . S
C1634 H1620 0.960 . S
C1634 H1621 0.961 . S
C1634 H1622 0.959 . S
C1634 C1632 1.561 . S
C1635 C1632 1.526 . S
C1635 C1636 1.396 . S
C1635 C1640 1.390 . S
C1636 C1630 1.465 . S
C1636 C1635 1.396 . S
C1636 C1637 1.399 . S
C1637 H1623 0.929 . S
C1637 C1636 1.399 . S
C1637 C1638 1.385 . S
C1638 H1624 0.931 . S
C1638 C1637 1.385 . S
C1638 C1639 1.389 . S
C1639 C1638 1.389 . S
C1639 C1640 1.387 . S
C1640 H1625 0.930 . S
C1640 C1635 1.390 . S
C1640 C1639 1.387 . S
H1641 C1653 0.930 . S
H1642 C1655 0.930 . S
H1643 C1656 0.930 . S
H1644 C1660 0.959 . S
H1645 C1660 0.959 . S
H1646 C1660 0.961 . S
H1647 C1661 0.960 . S
H1648 C1661 0.961 . S
H1649 C1661 0.959 . S
H1650 C1664 0.929 . S
H1651 C1665 0.931 . S
H1652 C1667 0.930 . S
C1653 H1641 0.930 . S
C1653 C1654 1.399 . S
C1653 C1658 1.399 . S
C1654 C1653 1.399 . S
C1654 C1655 1.376 . S
C1655 H1642 0.930 . S
C1655 C1654 1.376 . S
C1655 C1656 1.388 . S
C1656 H1643 0.930 . S
C1656 C1655 1.388 . S
C1656 C1657 1.390 . S
C1657 C1656 1.390 . S
C1657 C1658 1.394 . S
C1657 C1663 1.465 . S
C1658 C1653 1.399 . S
C1658 C1657 1.394 . S
C1658 C1659 1.516 . S
C1659 C1658 1.516 . S
C1659 C1660 1.502 . S
C1659 C1661 1.561 . S
C1659 C1662 1.526 . S
C1660 H1644 0.959 . S
C1660 H1645 0.959 . S
C1660 H1646 0.961 . S
C1660 C1659 1.502 . S
C1661 H1647 0.960 . S
C1661 H1648 0.961 . S
C1661 H1649 0.959 . S
C1661 C1659 1.561 . S
C1662 C1659 1.526 . S
C1662 C1663 1.396 . S
C1662 C1667 1.390 . S
C1663 C1657 1.465 . S
C1663 C1662 1.396 . S
C1663 C1664 1.399 . S
C1664 H1650 0.929 . S
C1664 C1663 1.399 . S
C1664 C1665 1.385 . S
C1665 H1651 0.931 . S
C1665 C1664 1.385 . S
C1665 C1666 1.389 . S
C1666 C1665 1.389 . S
C1666 C1667 1.387 . S
C1667 H1652 0.930 . S
C1667 C1662 1.390 . S
C1667 C1666 1.387 . S
H1668 C1680 0.930 . S
H1669 C1682 0.930 . S
H1670 C1683 0.930 . S
H1671 C1687 0.959 . S
H1672 C1687 0.959 . S
H1673 C1687 0.961 . S
H1674 C1688 0.960 . S
H1675 C1688 0.961 . S
H1676 C1688 0.959 . S
H1677 C1691 0.929 1_655 S
H1678 C1692 0.931 . S
H1679 C1694 0.930 . S
C1680 H1668 0.930 . S
C1680 C1681 1.399 . S
C1680 C1685 1.399 . S
C1681 C1680 1.399 . S
C1681 C1682 1.376 . S
C1682 H1669 0.930 . S
C1682 C1681 1.376 . S
C1682 C1683 1.388 . S
C1683 H1670 0.930 . S
C1683 C1682 1.388 . S
C1683 C1684 1.390 . S
C1684 C1683 1.390 . S
C1684 C1685 1.394 . S
C1684 C1690 1.465 1_655 S
C1685 C1680 1.399 . S
C1685 C1684 1.394 . S
C1685 C1686 1.516 1_655 S
C1686 C1685 1.516 1_455 S
C1686 C1687 1.502 . S
C1686 C1688 1.561 1_455 S
C1686 C1689 1.526 . S
C1687 H1671 0.959 . S
C1687 H1672 0.959 . S
C1687 H1673 0.961 . S
C1687 C1686 1.502 . S
C1688 H1674 0.960 . S
C1688 H1675 0.961 . S
C1688 H1676 0.959 . S
C1688 C1686 1.561 1_655 S
C1689 C1686 1.526 . S
C1689 C1690 1.396 . S
C1689 C1694 1.390 . S
C1690 C1684 1.465 1_455 S
C1690 C1689 1.396 . S
C1690 C1691 1.399 . S
C1691 H1677 0.929 1_455 S
C1691 C1690 1.399 . S
C1691 C1692 1.385 . S
C1692 H1678 0.931 . S
C1692 C1691 1.385 . S
C1692 C1693 1.389 . S
C1693 C1692 1.389 . S
C1693 C1694 1.387 . S
C1694 H1679 0.930 . S
C1694 C1689 1.390 . S
C1694 C1693 1.387 . S
H1695 C1707 0.930 . S
H1696 C1709 0.930 . S
H1697 C1710 0.930 . S
H1698 C1714 0.959 . S
H1699 C1714 0.959 . S
H1700 C1714 0.961 . S
H1701 C1715 0.960 . S
H1702 C1715 0.961 1_545 S
H1703 C1715 0.959 . S
H1704 C1718 0.929 1_565 S
H1705 C1719 0.931 . S
H1706 C1721 0.930 . S
C1707 H1695 0.930 . S
C1707 C1708 1.399 . S
C1707 C1712 1.399 . S
C1708 C1707 1.399 . S
C1708 C1709 1.376 . S
C1709 H1696 0.930 . S
C1709 C1708 1.376 . S
C1709 C1710 1.388 . S
C1710 H1697 0.930 . S
C1710 C1709 1.388 . S
C1710 C1711 1.390 . S
C1711 C1710 1.390 . S
C1711 C1712 1.394 . S
C1711 C1717 1.465 1_565 S
C1712 C1707 1.399 . S
C1712 C1711 1.394 . S
C1712 C1713 1.516 1_565 S
C1713 C1712 1.516 1_545 S
C1713 C1714 1.502 . S
C1713 C1715 1.561 1_545 S
C1713 C1716 1.526 . S
C1714 H1698 0.959 . S
C1714 H1699 0.959 . S
C1714 H1700 0.961 . S
C1714 C1713 1.502 . S
C1715 H1701 0.960 . S
C1715 H1702 0.961 1_565 S
C1715 H1703 0.959 . S
C1715 C1713 1.561 1_565 S
C1716 C1713 1.526 . S
C1716 C1717 1.396 . S
C1716 C1721 1.390 . S
C1717 C1711 1.465 1_545 S
C1717 C1716 1.396 . S
C1717 C1718 1.399 . S
C1718 H1704 0.929 1_545 S
C1718 C1717 1.399 . S
C1718 C1719 1.385 . S
C1719 H1705 0.931 . S
C1719 C1718 1.385 . S
C1719 C1720 1.389 . S
C1720 C1719 1.389 . S
C1720 C1721 1.387 . S
C1721 H1706 0.930 . S
C1721 C1716 1.390 . S
C1721 C1720 1.387 . S
H1722 C1734 0.930 . S
H1723 C1736 0.930 . S
H1724 C1737 0.930 . S
H1725 C1741 0.959 . S
H1726 C1741 0.959 . S
H1727 C1741 0.961 . S
H1728 C1742 0.960 . S
H1729 C1742 0.961 . S
H1730 C1742 0.959 . S
H1731 C1745 0.929 . S
H1732 C1746 0.931 . S
H1733 C1748 0.930 . S
C1734 H1722 0.930 . S
C1734 C1735 1.399 . S
C1734 C1739 1.399 . S
C1735 C1734 1.399 . S
C1735 C1736 1.376 . S
C1736 H1723 0.930 . S
C1736 C1735 1.376 . S
C1736 C1737 1.388 . S
C1737 H1724 0.930 . S
C1737 C1736 1.388 . S
C1737 C1738 1.390 . S
C1738 C1737 1.390 . S
C1738 C1739 1.394 . S
C1738 C1744 1.465 1_655 S
C1739 C1734 1.399 . S
C1739 C1738 1.394 . S
C1739 C1740 1.516 1_655 S
C1740 C1739 1.516 1_455 S
C1740 C1741 1.502 . S
C1740 C1742 1.561 1_455 S
C1740 C1743 1.526 . S
C1741 H1725 0.959 . S
C1741 H1726 0.959 . S
C1741 H1727 0.961 . S
C1741 C1740 1.502 . S
C1742 H1728 0.960 . S
C1742 H1729 0.961 . S
C1742 H1730 0.959 . S
C1742 C1740 1.561 1_655 S
C1743 C1740 1.526 . S
C1743 C1744 1.396 . S
C1743 C1748 1.390 . S
C1744 C1738 1.465 1_455 S
C1744 C1743 1.396 . S
C1744 C1745 1.399 . S
C1745 H1731 0.929 . S
C1745 C1744 1.399 . S
C1745 C1746 1.385 . S
C1746 H1732 0.931 . S
C1746 C1745 1.385 . S
C1746 C1747 1.389 . S
C1747 C1746 1.389 . S
C1747 C1748 1.387 . S
C1748 H1733 0.930 . S
C1748 C1743 1.390 . S
C1748 C1747 1.387 . S
H1749 C1761 0.930 . S
H1750 C1763 0.930 . S
H1751 C1764 0.930 . S
H1752 C1768 0.959 . S
H1753 C1768 0.959 . S
H1754 C1768 0.961 . S
H1755 C1769 0.960 . S
H1756 C1769 0.961 . S
H1757 C1769 0.959 . S
H1758 C1772 0.929 . S
H1759 C1773 0.931 . S
H1760 C1775 0.930 . S
C1761 H1749 0.930 . S
C1761 C1762 1.399 . S
C1761 C1766 1.399 . S
C1762 C1761 1.399 . S
C1762 C1763 1.376 . S
C1763 H1750 0.930 . S
C1763 C1762 1.376 . S
C1763 C1764 1.388 . S
C1764 H1751 0.930 . S
C1764 C1763 1.388 . S
C1764 C1765 1.390 . S
C1765 C1764 1.390 . S
C1765 C1766 1.394 . S
C1765 C1771 1.465 1_565 S
C1766 C1761 1.399 . S
C1766 C1765 1.394 . S
C1766 C1767 1.516 . S
C1767 C1766 1.516 . S
C1767 C1768 1.502 . S
C1767 C1769 1.561 1_565 S
C1767 C1770 1.526 1_565 S
C1768 H1752 0.959 . S
C1768 H1753 0.959 . S
C1768 H1754 0.961 . S
C1768 C1767 1.502 . S
C1769 H1755 0.960 . S
C1769 H1756 0.961 . S
C1769 H1757 0.959 . S
C1769 C1767 1.561 1_545 S
C1770 C1767 1.526 1_545 S
C1770 C1771 1.396 . S
C1770 C1775 1.390 . S
C1771 C1765 1.465 1_545 S
C1771 C1770 1.396 . S
C1771 C1772 1.399 . S
C1772 H1758 0.929 . S
C1772 C1771 1.399 . S
C1772 C1773 1.385 . S
C1773 H1759 0.931 . S
C1773 C1772 1.385 . S
C1773 C1774 1.389 . S
C1774 C1773 1.389 . S
C1774 C1775 1.387 . S
C1775 H1760 0.930 . S
C1775 C1770 1.390 . S
C1775 C1774 1.387 . S
H1776 C1788 0.930 . S
H1777 C1790 0.930 . S
H1778 C1791 0.930 . S
H1779 C1795 0.959 . S
H1780 C1795 0.959 . S
H1781 C1795 0.961 . S
H1782 C1796 0.960 . S
H1783 C1796 0.961 . S
H1784 C1796 0.959 . S
H1785 C1799 0.929 . S
H1786 C1800 0.931 . S
H1787 C1802 0.930 . S
C1788 H1776 0.930 . S
C1788 C1789 1.399 . S
C1788 C1793 1.399 . S
C1789 C1788 1.399 . S
C1789 C1790 1.376 . S
C1790 H1777 0.930 . S
C1790 C1789 1.376 . S
C1790 C1791 1.388 . S
C1791 H1778 0.930 . S
C1791 C1790 1.388 . S
C1791 C1792 1.390 . S
C1792 C1791 1.390 . S
C1792 C1793 1.394 . S
C1792 C1798 1.473 . S
C1793 C1788 1.399 . S
C1793 C1792 1.394 . S
C1793 C1794 1.516 1_565 S
C1794 C1793 1.516 1_545 S
C1794 C1795 1.502 . S
C1794 C1796 1.561 . S
C1794 C1797 1.526 . S
C1795 H1779 0.959 . S
C1795 H1780 0.959 . S
C1795 H1781 0.961 . S
C1795 C1794 1.502 . S
C1796 H1782 0.960 . S
C1796 H1783 0.961 . S
C1796 H1784 0.959 . S
C1796 C1794 1.561 . S
C1797 C1794 1.526 . S
C1797 C1798 1.384 1_545 S
C1797 C1802 1.390 . S
C1798 C1792 1.473 . S
C1798 C1797 1.384 1_565 S
C1798 C1799 1.401 . S
C1799 H1785 0.929 . S
C1799 C1798 1.401 . S
C1799 C1800 1.385 1_565 S
C1800 H1786 0.931 . S
C1800 C1799 1.385 1_545 S
C1800 C1801 1.389 . S
C1801 C1800 1.389 . S
C1801 C1802 1.387 . S
C1802 H1787 0.930 . S
C1802 C1797 1.390 . S
C1802 C1801 1.387 . S
H1803 C1815 0.930 . S
H1804 C1817 0.930 . S
H1805 C1818 0.930 . S
H1806 C1822 0.959 . S
H1807 C1822 0.959 . S
H1808 C1822 0.961 . S
H1809 C1823 0.960 . S
H1810 C1823 0.961 . S
H1811 C1823 0.959 . S
H1812 C1826 0.929 . S
H1813 C1827 0.931 . S
H1814 C1829 0.930 . S
C1815 H1803 0.930 . S
C1815 C1816 1.399 . S
C1815 C1820 1.399 . S
C1816 C1815 1.399 . S
C1816 C1817 1.376 . S
C1817 H1804 0.930 . S
C1817 C1816 1.376 . S
C1817 C1818 1.388 1_655 S
C1818 H1805 0.930 . S
C1818 C1817 1.388 1_455 S
C1818 C1819 1.390 . S
C1819 C1818 1.390 . S
C1819 C1820 1.394 1_455 S
C1819 C1825 1.465 . S
C1820 C1815 1.399 . S
C1820 C1819 1.394 1_655 S
C1820 C1821 1.516 . S
C1821 C1820 1.516 . S
C1821 C1822 1.502 . S
C1821 C1823 1.561 . S
C1821 C1824 1.526 1_655 S
C1822 H1806 0.959 . S
C1822 H1807 0.959 . S
C1822 H1808 0.961 . S
C1822 C1821 1.502 . S
C1823 H1809 0.960 . S
C1823 H1810 0.961 . S
C1823 H1811 0.959 . S
C1823 C1821 1.561 . S
C1824 C1821 1.526 1_455 S
C1824 C1825 1.396 . S
C1824 C1829 1.390 . S
C1825 C1819 1.465 . S
C1825 C1824 1.396 . S
C1825 C1826 1.399 . S
C1826 H1812 0.929 . S
C1826 C1825 1.399 . S
C1826 C1827 1.385 . S
C1827 H1813 0.931 . S
C1827 C1826 1.385 . S
C1827 C1828 1.389 . S
C1828 C1827 1.389 . S
C1828 C1829 1.387 . S
C1829 H1814 0.930 . S
C1829 C1824 1.390 . S
C1829 C1828 1.387 . S
H1830 C1842 0.930 . S
H1831 C1844 0.930 . S
H1832 C1845 0.930 . S
H1833 C1849 0.959 . S
H1834 C1849 0.959 . S
H1835 C1849 0.961 . S
H1836 C1850 0.960 . S
H1837 C1850 0.961 . S
H1838 C1850 0.973 . S
H1839 C1853 0.929 . S
H1840 C1854 0.931 . S
H1841 C1856 0.930 . S
C1842 H1830 0.930 . S
C1842 C1843 1.399 . S
C1842 C1847 1.399 . S
C1843 C1842 1.399 . S
C1843 C1844 1.376 . S
C1844 H1831 0.930 . S
C1844 C1843 1.376 . S
C1844 C1845 1.388 1_565 S
C1845 H1832 0.930 . S
C1845 C1844 1.388 1_545 S
C1845 C1846 1.390 . S
C1846 C1845 1.390 . S
C1846 C1847 1.394 1_545 S
C1846 C1852 1.465 . S
C1847 C1842 1.399 . S
C1847 C1846 1.394 1_565 S
C1847 C1848 1.516 . S
C1848 C1847 1.516 . S
C1848 C1849 1.502 . S
C1848 C1850 1.561 . S
C1848 C1851 1.526 1_565 S
C1849 H1833 0.959 . S
C1849 H1834 0.959 . S
C1849 H1835 0.961 . S
C1849 C1848 1.502 . S
C1850 H1836 0.960 . S
C1850 H1837 0.961 . S
C1850 H1838 0.973 . S
C1850 C1848 1.561 . S
C1851 C1848 1.526 1_545 S
C1851 C1852 1.396 . S
C1851 C1856 1.390 . S
C1852 C1846 1.465 . S
C1852 C1851 1.396 . S
C1852 C1853 1.399 . S
C1853 H1839 0.929 . S
C1853 C1852 1.399 . S
C1853 C1854 1.385 . S
C1854 H1840 0.931 . S
C1854 C1853 1.385 . S
C1854 C1855 1.389 . S
C1855 C1854 1.389 . S
C1855 C1856 1.387 . S
C1856 H1841 0.930 . S
C1856 C1851 1.390 . S
C1856 C1855 1.387 . S
H1857 C1869 0.930 . S
H1858 C1871 0.930 . S
H1859 C1872 0.930 . S
H1860 C1876 0.959 . S
H1861 C1876 0.959 . S
H1862 C1876 0.961 . S
H1863 C1877 0.960 . S
H1864 C1877 0.961 . S
H1865 C1877 0.959 . S
H1866 C1880 0.929 . S
H1867 C1881 0.931 . S
H1868 C1883 0.930 . S
C1869 H1857 0.930 . S
C1869 C1870 1.399 . S
C1869 C1874 1.399 . S
C1870 C1869 1.399 . S
C1870 C1871 1.376 . S
C1871 H1858 0.930 . S
C1871 C1870 1.376 . S
C1871 C1872 1.388 . S
C1872 H1859 0.930 . S
C1872 C1871 1.388 . S
C1872 C1873 1.390 . S
C1873 C1872 1.390 . S
C1873 C1874 1.394 . S
C1873 C1879 1.465 1_655 S
C1874 C1869 1.399 . S
C1874 C1873 1.394 . S
C1874 C1875 1.516 . S
C1875 C1874 1.516 . S
C1875 C1876 1.502 . S
C1875 C1877 1.561 1_655 S
C1875 C1878 1.526 1_655 S
C1876 H1860 0.959 . S
C1876 H1861 0.959 . S
C1876 H1862 0.961 . S
C1876 C1875 1.502 . S
C1877 H1863 0.960 . S
C1877 H1864 0.961 . S
C1877 H1865 0.959 . S
C1877 C1875 1.561 1_455 S
C1878 C1875 1.526 1_455 S
C1878 C1879 1.396 . S
C1878 C1883 1.390 . S
C1879 C1873 1.465 1_455 S
C1879 C1878 1.396 . S
C1879 C1880 1.399 . S
C1880 H1866 0.929 . S
C1880 C1879 1.399 . S
C1880 C1881 1.385 . S
C1881 H1867 0.931 . S
C1881 C1880 1.385 . S
C1881 C1882 1.389 . S
C1882 C1881 1.389 . S
C1882 C1883 1.387 . S
C1883 H1868 0.930 . S
C1883 C1878 1.390 . S
C1883 C1882 1.387 . S
H1884 C1896 0.930 . S
H1885 C1898 0.930 . S
H1886 C1899 0.930 . S
H1887 C1903 0.959 . S
H1888 C1903 0.959 . S
H1889 C1903 0.961 . S
H1890 C1904 0.960 . S
H1891 C1904 0.961 . S
H1892 C1904 0.959 . S
H1893 C1907 0.929 . S
H1894 C1908 0.931 . S
H1895 C1910 0.930 . S
C1896 H1884 0.930 . S
C1896 C1897 1.399 . S
C1896 C1901 1.399 . S
C1897 C1896 1.399 . S
C1897 C1898 1.376 . S
C1898 H1885 0.930 . S
C1898 C1897 1.376 . S
C1898 C1899 1.388 . S
C1899 H1886 0.930 . S
C1899 C1898 1.388 . S
C1899 C1900 1.390 . S
C1900 C1899 1.390 . S
C1900 C1901 1.394 . S
C1900 C1906 1.465 . S
C1901 C1896 1.399 . S
C1901 C1900 1.394 . S
C1901 C1902 1.516 1_556 S
C1902 C1901 1.516 1_554 S
C1902 C1903 1.502 . S
C1902 C1904 1.561 . S
C1902 C1905 1.526 . S
C1903 H1887 0.959 . S
C1903 H1888 0.959 . S
C1903 H1889 0.961 . S
C1903 C1902 1.502 . S
C1904 H1890 0.960 . S
C1904 H1891 0.961 . S
C1904 H1892 0.959 . S
C1904 C1902 1.561 . S
C1905 C1902 1.526 . S
C1905 C1906 1.396 1_554 S
C1905 C1910 1.390 . S
C1906 C1900 1.465 . S
C1906 C1905 1.396 1_556 S
C1906 C1907 1.399 . S
C1907 H1893 0.929 . S
C1907 C1906 1.399 . S
C1907 C1908 1.385 1_556 S
C1908 H1894 0.931 . S
C1908 C1907 1.385 1_554 S
C1908 C1909 1.389 . S
C1909 C1908 1.389 . S
C1909 C1910 1.387 . S
C1910 H1895 0.930 . S
C1910 C1905 1.390 . S
C1910 C1909 1.387 . S
H1911 C1923 0.930 . S
H1912 C1925 0.930 . S
H1913 C1926 0.930 . S
H1914 C1930 0.959 . S
H1915 C1930 0.959 . S
H1916 C1930 0.961 . S
H1917 C1931 0.960 . S
H1918 C1931 0.961 . S
H1919 C1931 0.959 1_556 S
H1920 C1934 0.929 . S
H1921 C1935 0.931 . S
H1922 C1937 0.930 . S
C1923 H1911 0.930 . S
C1923 C1924 1.399 . S
C1923 C1928 1.399 . S
C1924 C1923 1.399 . S
C1924 C1925 1.376 . S
C1925 H1912 0.930 . S
C1925 C1924 1.376 . S
C1925 C1926 1.388 . S
C1926 H1913 0.930 . S
C1926 C1925 1.388 . S
C1926 C1927 1.390 . S
C1927 C1926 1.390 . S
C1927 C1928 1.394 . S
C1927 C1933 1.465 . S
C1928 C1923 1.399 . S
C1928 C1927 1.394 . S
C1928 C1929 1.516 1_556 S
C1929 C1928 1.516 1_554 S
C1929 C1930 1.502 . S
C1929 C1931 1.561 . S
C1929 C1932 1.526 . S
C1930 H1914 0.959 . S
C1930 H1915 0.959 . S
C1930 H1916 0.961 . S
C1930 C1929 1.502 . S
C1931 H1917 0.960 . S
C1931 H1918 0.961 . S
C1931 H1919 0.959 1_554 S
C1931 C1929 1.561 . S
C1932 C1929 1.526 . S
C1932 C1933 1.396 1_554 S
C1932 C1937 1.390 . S
C1933 C1927 1.465 . S
C1933 C1932 1.396 1_556 S
C1933 C1934 1.399 . S
C1934 H1920 0.929 . S
C1934 C1933 1.399 . S
C1934 C1935 1.385 1_556 S
C1935 H1921 0.931 . S
C1935 C1934 1.385 1_554 S
C1935 C1936 1.389 . S
C1936 C1935 1.389 . S
C1936 C1937 1.387 . S
C1937 H1922 0.930 . S
C1937 C1932 1.390 . S
C1937 C1936 1.387 . S
H1938 C1950 0.930 . S
H1939 C1952 0.930 . S
H1940 C1953 0.930 . S
H1941 C1957 0.959 . S
H1942 C1957 0.959 . S
H1943 C1957 0.961 . S
H1944 C1958 0.960 . S
H1945 C1958 0.961 . S
H1946 C1958 0.959 . S
H1947 C1961 0.929 . S
H1948 C1962 0.931 . S
H1949 C1964 0.930 . S
C1950 H1938 0.930 . S
C1950 C1951 1.399 . S
C1950 C1955 1.399 . S
C1951 C1950 1.399 . S
C1951 C1952 1.376 . S
C1952 H1939 0.930 . S
C1952 C1951 1.376 . S
C1952 C1953 1.388 . S
C1953 H1940 0.930 . S
C1953 C1952 1.388 . S
C1953 C1954 1.390 . S
C1954 C1953 1.390 . S
C1954 C1955 1.394 . S
C1954 C1960 1.480 . S
C1955 C1950 1.399 . S
C1955 C1954 1.394 . S
C1955 C1956 1.516 1_556 S
C1956 C1955 1.516 1_554 S
C1956 C1957 1.502 . S
C1956 C1958 1.561 . S
C1956 C1959 1.526 . S
C1957 H1941 0.959 . S
C1957 H1942 0.959 . S
C1957 H1943 0.961 . S
C1957 C1956 1.502 . S
C1958 H1944 0.960 . S
C1958 H1945 0.961 . S
C1958 H1946 0.959 . S
C1958 C1956 1.561 . S
C1959 C1956 1.526 . S
C1959 C1960 1.373 1_554 S
C1959 C1964 1.390 . S
C1960 C1954 1.480 . S
C1960 C1959 1.373 1_556 S
C1960 C1961 1.404 . S
C1961 H1947 0.929 . S
C1961 C1960 1.404 . S
C1961 C1962 1.385 1_556 S
C1962 H1948 0.931 . S
C1962 C1961 1.385 1_554 S
C1962 C1963 1.389 . S
C1963 C1962 1.389 . S
C1963 C1964 1.387 . S
C1964 H1949 0.930 . S
C1964 C1959 1.390 . S
C1964 C1963 1.387 . S
H1965 C1977 0.930 . S
H1966 C1979 0.930 . S
H1967 C1980 0.930 . S
H1968 C1984 0.959 . S
H1969 C1984 0.960 1_554 S
H1970 C1984 0.961 . S
H1971 C1985 0.960 . S
H1972 C1985 0.961 . S
H1973 C1985 0.959 . S
H1974 C1988 0.929 . S
H1975 C1989 0.931 . S
H1976 C1991 0.930 . S
C1977 H1965 0.930 . S
C1977 C1978 1.399 . S
C1977 C1982 1.399 . S
C1978 C1977 1.399 . S
C1978 C1979 1.376 . S
C1979 H1966 0.930 . S
C1979 C1978 1.376 . S
C1979 C1980 1.388 . S
C1980 H1967 0.930 . S
C1980 C1979 1.388 . S
C1980 C1981 1.390 . S
C1981 C1980 1.390 . S
C1981 C1982 1.394 . S
C1981 C1987 1.465 1_556 S
C1982 C1977 1.399 . S
C1982 C1981 1.394 . S
C1982 C1983 1.516 1_556 S
C1983 C1982 1.516 1_554 S
C1983 C1984 1.502 1_554 S
C1983 C1985 1.561 . S
C1983 C1986 1.526 . S
C1984 H1968 0.959 . S
C1984 H1969 0.960 1_556 S
C1984 H1970 0.961 . S
C1984 C1983 1.502 1_556 S
C1985 H1971 0.960 . S
C1985 H1972 0.961 . S
C1985 H1973 0.959 . S
C1985 C1983 1.561 . S
C1986 C1983 1.526 . S
C1986 C1987 1.396 . S
C1986 C1991 1.390 . S
C1987 C1981 1.465 1_554 S
C1987 C1986 1.396 . S
C1987 C1988 1.399 . S
C1988 H1974 0.929 . S
C1988 C1987 1.399 . S
C1988 C1989 1.385 . S
C1989 H1975 0.931 . S
C1989 C1988 1.385 . S
C1989 C1990 1.389 . S
C1990 C1989 1.389 . S
C1990 C1991 1.387 . S
C1991 H1976 0.930 . S
C1991 C1986 1.390 . S
C1991 C1990 1.387 . S
H1992 C2004 0.930 . S
H1993 C2006 0.930 . S
H1994 C2007 0.930 . S
H1995 C2011 0.959 . S
H1996 C2011 0.959 . S
H1997 C2011 0.961 . S
H1998 C2012 0.960 . S
H1999 C2012 0.961 . S
H2000 C2012 0.959 . S
H2001 C2015 0.929 . S
H2002 C2016 0.931 . S
H2003 C2018 0.930 . S
C2004 H1992 0.930 . S
C2004 C2005 1.399 . S
C2004 C2009 1.399 . S
C2005 C2004 1.399 . S
C2005 C2006 1.376 . S
C2006 H1993 0.930 . S
C2006 C2005 1.376 . S
C2006 C2007 1.388 . S
C2007 H1994 0.930 . S
C2007 C2006 1.388 . S
C2007 C2008 1.390 . S
C2008 C2007 1.390 . S
C2008 C2009 1.394 . S
C2008 C2014 1.465 . S
C2009 C2004 1.399 . S
C2009 C2008 1.394 . S
C2009 C2010 1.516 . S
C2010 C2009 1.516 . S
C2010 C2011 1.502 . S
C2010 C2012 1.561 . S
C2010 C2013 1.526 . S
C2011 H1995 0.959 . S
C2011 H1996 0.959 . S
C2011 H1997 0.961 . S
C2011 C2010 1.502 . S
C2012 H1998 0.960 . S
C2012 H1999 0.961 . S
C2012 H2000 0.959 . S
C2012 C2010 1.561 . S
C2013 C2010 1.526 . S
C2013 C2014 1.396 . S
C2013 C2018 1.390 . S
C2014 C2008 1.465 . S
C2014 C2013 1.396 . S
C2014 C2015 1.399 . S
C2015 H2001 0.929 . S
C2015 C2014 1.399 . S
C2015 C2016 1.385 . S
C2016 H2002 0.931 . S
C2016 C2015 1.385 . S
C2016 C2017 1.389 . S
C2017 C2016 1.389 . S
C2017 C2018 1.387 . S
C2018 H2003 0.930 . S
C2018 C2013 1.390 . S
C2018 C2017 1.387 . S
H2019 C2031 0.930 . S
H2020 C2033 0.930 . S
H2021 C2034 0.930 . S
H2022 C2038 0.959 . S
H2023 C2038 0.959 . S
H2024 C2038 0.961 . S
H2025 C2039 0.960 . S
H2026 C2039 0.961 . S
H2027 C2039 0.959 . S
H2028 C2042 0.929 . S
H2029 C2043 0.931 . S
H2030 C2045 0.930 . S
C2031 H2019 0.930 . S
C2031 C2032 1.399 . S
C2031 C2036 1.399 . S
C2032 C2031 1.399 . S
C2032 C2033 1.376 . S
C2033 H2020 0.930 . S
C2033 C2032 1.376 . S
C2033 C2034 1.388 . S
C2034 H2021 0.930 . S
C2034 C2033 1.388 . S
C2034 C2035 1.390 . S
C2035 C2034 1.390 . S
C2035 C2036 1.394 . S
C2035 C2041 1.465 . S
C2036 C2031 1.399 . S
C2036 C2035 1.394 . S
C2036 C2037 1.516 . S
C2037 C2036 1.516 . S
C2037 C2038 1.502 . S
C2037 C2039 1.561 . S
C2037 C2040 1.526 . S
C2038 H2022 0.959 . S
C2038 H2023 0.959 . S
C2038 H2024 0.961 . S
C2038 C2037 1.502 . S
C2039 H2025 0.960 . S
C2039 H2026 0.961 . S
C2039 H2027 0.959 . S
C2039 C2037 1.561 . S
C2040 C2037 1.526 . S
C2040 C2041 1.396 . S
C2040 C2045 1.390 . S
C2041 C2035 1.465 . S
C2041 C2040 1.396 . S
C2041 C2042 1.399 . S
C2042 H2028 0.929 . S
C2042 C2041 1.399 . S
C2042 C2043 1.385 . S
C2043 H2029 0.931 . S
C2043 C2042 1.385 . S
C2043 C2044 1.389 . S
C2044 C2043 1.389 . S
C2044 C2045 1.387 . S
C2045 H2030 0.930 . S
C2045 C2040 1.390 . S
C2045 C2044 1.387 . S
H2046 C2058 0.930 . S
H2047 C2060 0.930 . S
H2048 C2061 0.930 . S
H2049 C2065 0.959 . S
H2050 C2065 0.959 . S
H2051 C2065 0.961 . S
H2052 C2066 0.960 . S
H2053 C2066 0.961 . S
H2054 C2066 0.959 . S
H2055 C2069 0.929 . S
H2056 C2070 0.931 . S
H2057 C2072 0.930 . S
C2058 H2046 0.930 . S
C2058 C2059 1.399 . S
C2058 C2063 1.399 . S
C2059 C2058 1.399 . S
C2059 C2060 1.376 . S
C2060 H2047 0.930 . S
C2060 C2059 1.376 . S
C2060 C2061 1.388 . S
C2061 H2048 0.930 . S
C2061 C2060 1.388 . S
C2061 C2062 1.390 . S
C2062 C2061 1.390 . S
C2062 C2063 1.394 . S
C2062 C2068 1.465 . S
C2063 C2058 1.399 . S
C2063 C2062 1.394 . S
C2063 C2064 1.516 . S
C2064 C2063 1.516 . S
C2064 C2065 1.502 . S
C2064 C2066 1.561 . S
C2064 C2067 1.526 . S
C2065 H2049 0.959 . S
C2065 H2050 0.959 . S
C2065 H2051 0.961 . S
C2065 C2064 1.502 . S
C2066 H2052 0.960 . S
C2066 H2053 0.961 . S
C2066 H2054 0.959 . S
C2066 C2064 1.561 . S
C2067 C2064 1.526 . S
C2067 C2068 1.396 . S
C2067 C2072 1.390 . S
C2068 C2062 1.465 . S
C2068 C2067 1.396 . S
C2068 C2069 1.399 . S
C2069 H2055 0.929 . S
C2069 C2068 1.399 . S
C2069 C2070 1.385 . S
C2070 H2056 0.931 . S
C2070 C2069 1.385 . S
C2070 C2071 1.389 . S
C2071 C2070 1.389 . S
C2071 C2072 1.387 . S
C2072 H2057 0.930 . S
C2072 C2067 1.390 . S
C2072 C2071 1.387 . S
H2073 C2085 0.930 . S
H2074 C2087 0.930 . S
H2075 C2088 0.930 . S
H2076 C2092 0.959 . S
H2077 C2092 0.959 . S
H2078 C2092 0.961 . S
H2079 C2093 0.960 . S
H2080 C2093 0.961 . S
H2081 C2093 0.959 . S
H2082 C2096 0.929 . S
H2083 C2097 0.931 . S
H2084 C2099 0.930 . S
C2085 H2073 0.930 . S
C2085 C2086 1.399 . S
C2085 C2090 1.399 . S
C2086 C2085 1.399 . S
C2086 C2087 1.376 . S
C2087 H2074 0.930 . S
C2087 C2086 1.376 . S
C2087 C2088 1.388 . S
C2088 H2075 0.930 . S
C2088 C2087 1.388 . S
C2088 C2089 1.390 . S
C2089 C2088 1.390 . S
C2089 C2090 1.394 . S
C2089 C2095 1.465 . S
C2090 C2085 1.399 . S
C2090 C2089 1.394 . S
C2090 C2091 1.516 . S
C2091 C2090 1.516 . S
C2091 C2092 1.502 . S
C2091 C2093 1.561 . S
C2091 C2094 1.526 . S
C2092 H2076 0.959 . S
C2092 H2077 0.959 . S
C2092 H2078 0.961 . S
C2092 C2091 1.502 . S
C2093 H2079 0.960 . S
C2093 H2080 0.961 . S
C2093 H2081 0.959 . S
C2093 C2091 1.561 . S
C2094 C2091 1.526 . S
C2094 C2095 1.396 . S
C2094 C2099 1.390 . S
C2095 C2089 1.465 . S
C2095 C2094 1.396 . S
C2095 C2096 1.399 . S
C2096 H2082 0.929 . S
C2096 C2095 1.399 . S
C2096 C2097 1.385 . S
C2097 H2083 0.931 . S
C2097 C2096 1.385 . S
C2097 C2098 1.389 . S
C2098 C2097 1.389 . S
C2098 C2099 1.387 . S
C2099 H2084 0.930 . S
C2099 C2094 1.390 . S
C2099 C2098 1.387 . S
H2100 C2112 0.930 . S
H2101 C2114 0.930 . S
H2102 C2115 0.930 . S
H2103 C2119 0.959 . S
H2104 C2119 0.959 . S
H2105 C2119 0.961 . S
H2106 C2120 0.960 . S
H2107 C2120 0.961 . S
H2108 C2120 0.959 . S
H2109 C2123 0.929 . S
H2110 C2124 0.931 . S
H2111 C2126 0.930 . S
C2112 H2100 0.930 . S
C2112 C2113 1.399 . S
C2112 C2117 1.399 . S
C2113 C2112 1.399 . S
C2113 C2114 1.376 . S
C2114 H2101 0.930 . S
C2114 C2113 1.376 . S
C2114 C2115 1.388 . S
C2115 H2102 0.930 . S
C2115 C2114 1.388 . S
C2115 C2116 1.390 . S
C2116 C2115 1.390 . S
C2116 C2117 1.394 . S
C2116 C2122 1.465 . S
C2117 C2112 1.399 . S
C2117 C2116 1.394 . S
C2117 C2118 1.516 . S
C2118 C2117 1.516 . S
C2118 C2119 1.502 . S
C2118 C2120 1.561 . S
C2118 C2121 1.526 . S
C2119 H2103 0.959 . S
C2119 H2104 0.959 . S
C2119 H2105 0.961 . S
C2119 C2118 1.502 . S
C2120 H2106 0.960 . S
C2120 H2107 0.961 . S
C2120 H2108 0.959 . S
C2120 C2118 1.561 . S
C2121 C2118 1.526 . S
C2121 C2122 1.396 . S
C2121 C2126 1.390 . S
C2122 C2116 1.465 . S
C2122 C2121 1.396 . S
C2122 C2123 1.399 . S
C2123 H2109 0.929 . S
C2123 C2122 1.399 . S
C2123 C2124 1.385 . S
C2124 H2110 0.931 . S
C2124 C2123 1.385 . S
C2124 C2125 1.389 . S
C2125 C2124 1.389 . S
C2125 C2126 1.387 . S
C2126 H2111 0.930 . S
C2126 C2121 1.390 . S
C2126 C2125 1.387 . S
H2127 C2139 0.930 . S
H2128 C2141 0.930 . S
H2129 C2142 0.930 . S
H2130 C2146 0.959 . S
H2131 C2146 0.959 . S
H2132 C2146 0.961 . S
H2133 C2147 0.960 . S
H2134 C2147 0.961 . S
H2135 C2147 0.959 . S
H2136 C2150 0.929 . S
H2137 C2151 0.931 . S
H2138 C2153 0.930 . S
C2139 H2127 0.930 . S
C2139 C2140 1.399 . S
C2139 C2144 1.399 . S
C2140 C2139 1.399 . S
C2140 C2141 1.376 . S
C2141 H2128 0.930 . S
C2141 C2140 1.376 . S
C2141 C2142 1.388 . S
C2142 H2129 0.930 . S
C2142 C2141 1.388 . S
C2142 C2143 1.390 . S
C2143 C2142 1.390 . S
C2143 C2144 1.394 . S
C2143 C2149 1.465 . S
C2144 C2139 1.399 . S
C2144 C2143 1.394 . S
C2144 C2145 1.516 . S
C2145 C2144 1.516 . S
C2145 C2146 1.502 . S
C2145 C2147 1.561 . S
C2145 C2148 1.526 . S
C2146 H2130 0.959 . S
C2146 H2131 0.959 . S
C2146 H2132 0.961 . S
C2146 C2145 1.502 . S
C2147 H2133 0.960 . S
C2147 H2134 0.961 . S
C2147 H2135 0.959 . S
C2147 C2145 1.561 . S
C2148 C2145 1.526 . S
C2148 C2149 1.396 . S
C2148 C2153 1.390 . S
C2149 C2143 1.465 . S
C2149 C2148 1.396 . S
C2149 C2150 1.399 . S
C2150 H2136 0.929 . S
C2150 C2149 1.399 . S
C2150 C2151 1.385 . S
C2151 H2137 0.931 . S
C2151 C2150 1.385 . S
C2151 C2152 1.389 . S
C2152 C2151 1.389 . S
C2152 C2153 1.387 . S
C2153 H2138 0.930 . S
C2153 C2148 1.390 . S
C2153 C2152 1.387 . S
H2154 C2166 0.930 . S
H2155 C2168 0.930 . S
H2156 C2169 0.930 . S
H2157 C2173 0.959 . S
H2158 C2173 0.959 . S
H2159 C2173 0.961 . S
H2160 C2174 0.960 . S
H2161 C2174 0.961 . S
H2162 C2174 0.959 . S
H2163 C2177 0.929 . S
H2164 C2178 0.931 . S
H2165 C2180 0.930 . S
C2166 H2154 0.930 . S
C2166 C2167 1.399 . S
C2166 C2171 1.399 . S
C2167 C2166 1.399 . S
C2167 C2168 1.376 . S
C2168 H2155 0.930 . S
C2168 C2167 1.376 . S
C2168 C2169 1.388 . S
C2169 H2156 0.930 . S
C2169 C2168 1.388 . S
C2169 C2170 1.390 . S
C2170 C2169 1.390 . S
C2170 C2171 1.394 . S
C2170 C2176 1.465 . S
C2171 C2166 1.399 . S
C2171 C2170 1.394 . S
C2171 C2172 1.516 . S
C2172 C2171 1.516 . S
C2172 C2173 1.502 . S
C2172 C2174 1.561 . S
C2172 C2175 1.526 . S
C2173 H2157 0.959 . S
C2173 H2158 0.959 . S
C2173 H2159 0.961 . S
C2173 C2172 1.502 . S
C2174 H2160 0.960 . S
C2174 H2161 0.961 . S
C2174 H2162 0.959 . S
C2174 C2172 1.561 . S
C2175 C2172 1.526 . S
C2175 C2176 1.396 . S
C2175 C2180 1.390 . S
C2176 C2170 1.465 . S
C2176 C2175 1.396 . S
C2176 C2177 1.399 . S
C2177 H2163 0.929 . S
C2177 C2176 1.399 . S
C2177 C2178 1.385 . S
C2178 H2164 0.931 . S
C2178 C2177 1.385 . S
C2178 C2179 1.389 . S
C2179 C2178 1.389 . S
C2179 C2180 1.387 . S
C2180 H2165 0.930 . S
C2180 C2175 1.390 . S
C2180 C2179 1.387 . S
H2181 C2193 0.930 . S
H2182 C2195 0.930 . S
H2183 C2196 0.930 . S
H2184 C2200 0.959 . S
H2185 C2200 0.959 . S
H2186 C2200 0.961 . S
H2187 C2201 0.960 . S
H2188 C2201 0.961 . S
H2189 C2201 0.959 . S
H2190 C2204 0.929 . S
H2191 C2205 0.931 . S
H2192 C2207 0.930 . S
C2193 H2181 0.930 . S
C2193 C2194 1.399 . S
C2193 C2198 1.399 . S
C2194 C2193 1.399 . S
C2194 C2195 1.376 . S
C2195 H2182 0.930 . S
C2195 C2194 1.376 . S
C2195 C2196 1.388 . S
C2196 H2183 0.930 . S
C2196 C2195 1.388 . S
C2196 C2197 1.390 . S
C2197 C2196 1.390 . S
C2197 C2198 1.394 . S
C2197 C2203 1.465 . S
C2198 C2193 1.399 . S
C2198 C2197 1.394 . S
C2198 C2199 1.516 . S
C2199 C2198 1.516 . S
C2199 C2200 1.502 . S
C2199 C2201 1.561 . S
C2199 C2202 1.526 . S
C2200 H2184 0.959 . S
C2200 H2185 0.959 . S
C2200 H2186 0.961 . S
C2200 C2199 1.502 . S
C2201 H2187 0.960 . S
C2201 H2188 0.961 . S
C2201 H2189 0.959 . S
C2201 C2199 1.561 . S
C2202 C2199 1.526 . S
C2202 C2203 1.396 . S
C2202 C2207 1.390 . S
C2203 C2197 1.465 . S
C2203 C2202 1.396 . S
C2203 C2204 1.399 . S
C2204 H2190 0.929 . S
C2204 C2203 1.399 . S
C2204 C2205 1.385 . S
C2205 H2191 0.931 . S
C2205 C2204 1.385 . S
C2205 C2206 1.389 . S
C2206 C2205 1.389 . S
C2206 C2207 1.387 . S
C2207 H2192 0.930 . S
C2207 C2202 1.390 . S
C2207 C2206 1.387 . S
H2208 C2220 0.930 . S
H2209 C2222 0.930 . S
H2210 C2223 0.930 . S
H2211 C2227 0.959 . S
H2212 C2227 0.959 . S
H2213 C2227 0.961 . S
H2214 C2228 0.960 . S
H2215 C2228 0.961 . S
H2216 C2228 0.959 . S
H2217 C2231 0.929 . S
H2218 C2232 0.931 . S
H2219 C2234 0.930 . S
C2220 H2208 0.930 . S
C2220 C2221 1.399 . S
C2220 C2225 1.399 . S
C2221 C2220 1.399 . S
C2221 C2222 1.376 . S
C2222 H2209 0.930 . S
C2222 C2221 1.376 . S
C2222 C2223 1.388 . S
C2223 H2210 0.930 . S
C2223 C2222 1.388 . S
C2223 C2224 1.390 . S
C2224 C2223 1.390 . S
C2224 C2225 1.394 . S
C2224 C2230 1.465 . S
C2225 C2220 1.399 . S
C2225 C2224 1.394 . S
C2225 C2226 1.516 . S
C2226 C2225 1.516 . S
C2226 C2227 1.502 . S
C2226 C2228 1.561 . S
C2226 C2229 1.526 . S
C2227 H2211 0.959 . S
C2227 H2212 0.959 . S
C2227 H2213 0.961 . S
C2227 C2226 1.502 . S
C2228 H2214 0.960 . S
C2228 H2215 0.961 . S
C2228 H2216 0.959 . S
C2228 C2226 1.561 . S
C2229 C2226 1.526 . S
C2229 C2230 1.396 . S
C2229 C2234 1.390 . S
C2230 C2224 1.465 . S
C2230 C2229 1.396 . S
C2230 C2231 1.399 . S
C2231 H2217 0.929 . S
C2231 C2230 1.399 . S
C2231 C2232 1.385 . S
C2232 H2218 0.931 . S
C2232 C2231 1.385 . S
C2232 C2233 1.389 . S
C2233 C2232 1.389 . S
C2233 C2234 1.387 . S
C2234 H2219 0.930 . S
C2234 C2229 1.390 . S
C2234 C2233 1.387 . S
H2235 C2247 0.930 . S
H2236 C2249 0.930 . S
H2237 C2250 0.930 . S
H2238 C2254 0.959 . S
H2239 C2254 0.959 . S
H2240 C2254 0.961 . S
H2241 C2255 0.960 . S
H2242 C2255 0.961 . S
H2243 C2255 0.959 . S
H2244 C2258 0.929 . S
H2245 C2259 0.931 . S
H2246 C2261 0.930 . S
C2247 H2235 0.930 . S
C2247 C2248 1.399 . S
C2247 C2252 1.399 . S
C2248 C2247 1.399 . S
C2248 C2249 1.376 . S
C2249 H2236 0.930 . S
C2249 C2248 1.376 . S
C2249 C2250 1.388 . S
C2250 H2237 0.930 . S
C2250 C2249 1.388 . S
C2250 C2251 1.390 . S
C2251 C2250 1.390 . S
C2251 C2252 1.394 . S
C2251 C2257 1.465 . S
C2252 C2247 1.399 . S
C2252 C2251 1.394 . S
C2252 C2253 1.516 . S
C2253 C2252 1.516 . S
C2253 C2254 1.502 . S
C2253 C2255 1.561 . S
C2253 C2256 1.526 . S
C2254 H2238 0.959 . S
C2254 H2239 0.959 . S
C2254 H2240 0.961 . S
C2254 C2253 1.502 . S
C2255 H2241 0.960 . S
C2255 H2242 0.961 . S
C2255 H2243 0.959 . S
C2255 C2253 1.561 . S
C2256 C2253 1.526 . S
C2256 C2257 1.396 . S
C2256 C2261 1.390 . S
C2257 C2251 1.465 . S
C2257 C2256 1.396 . S
C2257 C2258 1.399 . S
C2258 H2244 0.929 . S
C2258 C2257 1.399 . S
C2258 C2259 1.385 . S
C2259 H2245 0.931 . S
C2259 C2258 1.385 . S
C2259 C2260 1.389 . S
C2260 C2259 1.389 . S
C2260 C2261 1.387 . S
C2261 H2246 0.930 . S
C2261 C2256 1.390 . S
C2261 C2260 1.387 . S
H2262 C2274 0.930 . S
H2263 C2276 0.930 . S
H2264 C2277 0.930 . S
H2265 C2281 0.959 . S
H2266 C2281 0.959 . S
H2267 C2281 0.961 . S
H2268 C2282 0.960 . S
H2269 C2282 0.961 . S
H2270 C2282 0.959 . S
H2271 C2285 0.929 . S
H2272 C2286 0.931 . S
H2273 C2288 0.930 . S
C2274 H2262 0.930 . S
C2274 C2275 1.399 . S
C2274 C2279 1.399 . S
C2275 C2274 1.399 . S
C2275 C2276 1.376 . S
C2276 H2263 0.930 . S
C2276 C2275 1.376 . S
C2276 C2277 1.388 . S
C2277 H2264 0.930 . S
C2277 C2276 1.388 . S
C2277 C2278 1.390 . S
C2278 C2277 1.390 . S
C2278 C2279 1.394 . S
C2278 C2284 1.465 . S
C2279 C2274 1.399 . S
C2279 C2278 1.394 . S
C2279 C2280 1.516 . S
C2280 C2279 1.516 . S
C2280 C2281 1.502 . S
C2280 C2282 1.561 . S
C2280 C2283 1.526 . S
C2281 H2265 0.959 . S
C2281 H2266 0.959 . S
C2281 H2267 0.961 . S
C2281 C2280 1.502 . S
C2282 H2268 0.960 . S
C2282 H2269 0.961 . S
C2282 H2270 0.959 . S
C2282 C2280 1.561 . S
C2283 C2280 1.526 . S
C2283 C2284 1.396 . S
C2283 C2288 1.390 . S
C2284 C2278 1.465 . S
C2284 C2283 1.396 . S
C2284 C2285 1.399 . S
C2285 H2271 0.929 . S
C2285 C2284 1.399 . S
C2285 C2286 1.385 . S
C2286 H2272 0.931 . S
C2286 C2285 1.385 . S
C2286 C2287 1.389 . S
C2287 C2286 1.389 . S
C2287 C2288 1.387 . S
C2288 H2273 0.930 . S
C2288 C2283 1.390 . S
C2288 C2287 1.387 . S
H2289 C2301 0.930 . S
H2290 C2303 0.930 . S
H2291 C2304 0.930 . S
H2292 C2308 0.959 . S
H2293 C2308 0.959 . S
H2294 C2308 0.961 . S
H2295 C2309 0.960 . S
H2296 C2309 0.961 . S
H2297 C2309 0.959 . S
H2298 C2312 0.929 . S
H2299 C2313 0.931 . S
H2300 C2315 0.930 . S
C2301 H2289 0.930 . S
C2301 C2302 1.399 . S
C2301 C2306 1.399 . S
C2302 C2301 1.399 . S
C2302 C2303 1.376 . S
C2303 H2290 0.930 . S
C2303 C2302 1.376 . S
C2303 C2304 1.388 . S
C2304 H2291 0.930 . S
C2304 C2303 1.388 . S
C2304 C2305 1.390 . S
C2305 C2304 1.390 . S
C2305 C2306 1.394 . S
C2305 C2311 1.465 . S
C2306 C2301 1.399 . S
C2306 C2305 1.394 . S
C2306 C2307 1.516 . S
C2307 C2306 1.516 . S
C2307 C2308 1.502 . S
C2307 C2309 1.561 . S
C2307 C2310 1.526 . S
C2308 H2292 0.959 . S
C2308 H2293 0.959 . S
C2308 H2294 0.961 . S
C2308 C2307 1.502 . S
C2309 H2295 0.960 . S
C2309 H2296 0.961 . S
C2309 H2297 0.959 . S
C2309 C2307 1.561 . S
C2310 C2307 1.526 . S
C2310 C2311 1.396 . S
C2310 C2315 1.390 . S
C2311 C2305 1.465 . S
C2311 C2310 1.396 . S
C2311 C2312 1.399 . S
C2312 H2298 0.929 . S
C2312 C2311 1.399 . S
C2312 C2313 1.385 . S
C2313 H2299 0.931 . S
C2313 C2312 1.385 . S
C2313 C2314 1.389 . S
C2314 C2313 1.389 . S
C2314 C2315 1.387 . S
C2315 H2300 0.930 . S
C2315 C2310 1.390 . S
C2315 C2314 1.387 . S
H2316 C2328 0.930 . S
H2317 C2330 0.930 . S
H2318 C2331 0.930 . S
H2319 C2335 0.959 . S
H2320 C2335 0.959 . S
H2321 C2335 0.961 . S
H2322 C2336 0.960 . S
H2323 C2336 0.961 . S
H2324 C2336 0.959 . S
H2325 C2339 0.929 . S
H2326 C2340 0.931 . S
H2327 C2342 0.930 . S
C2328 H2316 0.930 . S
C2328 C2329 1.399 . S
C2328 C2333 1.399 . S
C2329 C2328 1.399 . S
C2329 C2330 1.376 . S
C2330 H2317 0.930 . S
C2330 C2329 1.376 . S
C2330 C2331 1.388 . S
C2331 H2318 0.930 . S
C2331 C2330 1.388 . S
C2331 C2332 1.390 . S
C2332 C2331 1.390 . S
C2332 C2333 1.394 . S
C2332 C2338 1.465 . S
C2333 C2328 1.399 . S
C2333 C2332 1.394 . S
C2333 C2334 1.516 . S
C2334 C2333 1.516 . S
C2334 C2335 1.502 . S
C2334 C2336 1.561 . S
C2334 C2337 1.526 . S
C2335 H2319 0.959 . S
C2335 H2320 0.959 . S
C2335 H2321 0.961 . S
C2335 C2334 1.502 . S
C2336 H2322 0.960 . S
C2336 H2323 0.961 . S
C2336 H2324 0.959 . S
C2336 C2334 1.561 . S
C2337 C2334 1.526 . S
C2337 C2338 1.396 . S
C2337 C2342 1.390 . S
C2338 C2332 1.465 . S
C2338 C2337 1.396 . S
C2338 C2339 1.399 . S
C2339 H2325 0.929 . S
C2339 C2338 1.399 . S
C2339 C2340 1.385 . S
C2340 H2326 0.931 . S
C2340 C2339 1.385 . S
C2340 C2341 1.389 . S
C2341 C2340 1.389 . S
C2341 C2342 1.387 . S
C2342 H2327 0.930 . S
C2342 C2337 1.390 . S
C2342 C2341 1.387 . S
H2343 C2355 0.930 . S
H2344 C2357 0.930 . S
H2345 C2358 0.930 . S
H2346 C2362 0.959 . S
H2347 C2362 0.959 . S
H2348 C2362 0.961 . S
H2349 C2363 0.960 . S
H2350 C2363 0.961 . S
H2351 C2363 0.959 . S
H2352 C2366 0.929 . S
H2353 C2367 0.931 . S
H2354 C2369 0.930 . S
C2355 H2343 0.930 . S
C2355 C2356 1.399 . S
C2355 C2360 1.399 . S
C2356 C2355 1.399 . S
C2356 C2357 1.376 . S
C2357 H2344 0.930 . S
C2357 C2356 1.376 . S
C2357 C2358 1.388 . S
C2358 H2345 0.930 . S
C2358 C2357 1.388 . S
C2358 C2359 1.390 . S
C2359 C2358 1.390 . S
C2359 C2360 1.394 . S
C2359 C2365 1.465 . S
C2360 C2355 1.399 . S
C2360 C2359 1.394 . S
C2360 C2361 1.516 . S
C2361 C2360 1.516 . S
C2361 C2362 1.502 . S
C2361 C2363 1.561 . S
C2361 C2364 1.526 . S
C2362 H2346 0.959 . S
C2362 H2347 0.959 . S
C2362 H2348 0.961 . S
C2362 C2361 1.502 . S
C2363 H2349 0.960 . S
C2363 H2350 0.961 . S
C2363 H2351 0.959 . S
C2363 C2361 1.561 . S
C2364 C2361 1.526 . S
C2364 C2365 1.396 . S
C2364 C2369 1.390 . S
C2365 C2359 1.465 . S
C2365 C2364 1.396 . S
C2365 C2366 1.399 . S
C2366 H2352 0.929 . S
C2366 C2365 1.399 . S
C2366 C2367 1.385 . S
C2367 H2353 0.931 . S
C2367 C2366 1.385 . S
C2367 C2368 1.389 . S
C2368 C2367 1.389 . S
C2368 C2369 1.387 . S
C2369 H2354 0.930 . S
C2369 C2364 1.390 . S
C2369 C2368 1.387 . S
H2370 C2382 0.930 . S
H2371 C2384 0.930 . S
H2372 C2385 0.930 . S
H2373 C2389 0.959 . S
H2374 C2389 0.959 . S
H2375 C2389 0.961 . S
H2376 C2390 0.960 . S
H2377 C2390 0.961 . S
H2378 C2390 0.959 . S
H2379 C2393 0.929 . S
H2380 C2394 0.931 . S
H2381 C2396 0.930 . S
C2382 H2370 0.930 . S
C2382 C2383 1.399 . S
C2382 C2387 1.399 . S
C2383 C2382 1.399 . S
C2383 C2384 1.376 . S
C2384 H2371 0.930 . S
C2384 C2383 1.376 . S
C2384 C2385 1.388 . S
C2385 H2372 0.930 . S
C2385 C2384 1.388 . S
C2385 C2386 1.390 . S
C2386 C2385 1.390 . S
C2386 C2387 1.394 . S
C2386 C2392 1.465 . S
C2387 C2382 1.399 . S
C2387 C2386 1.394 . S
C2387 C2388 1.516 . S
C2388 C2387 1.516 . S
C2388 C2389 1.502 . S
C2388 C2390 1.561 . S
C2388 C2391 1.526 . S
C2389 H2373 0.959 . S
C2389 H2374 0.959 . S
C2389 H2375 0.961 . S
C2389 C2388 1.502 . S
C2390 H2376 0.960 . S
C2390 H2377 0.961 . S
C2390 H2378 0.959 . S
C2390 C2388 1.561 . S
C2391 C2388 1.526 . S
C2391 C2392 1.396 . S
C2391 C2396 1.390 . S
C2392 C2386 1.465 . S
C2392 C2391 1.396 . S
C2392 C2393 1.399 . S
C2393 H2379 0.929 . S
C2393 C2392 1.399 . S
C2393 C2394 1.385 . S
C2394 H2380 0.931 . S
C2394 C2393 1.385 . S
C2394 C2395 1.389 . S
C2395 C2394 1.389 . S
C2395 C2396 1.387 . S
C2396 H2381 0.930 . S
C2396 C2391 1.390 . S
C2396 C2395 1.387 . S
H2397 C2409 0.930 . S
H2398 C2411 0.930 . S
H2399 C2412 0.930 . S
H2400 C2416 0.959 . S
H2401 C2416 0.959 . S
H2402 C2416 0.961 . S
H2403 C2417 0.960 . S
H2404 C2417 0.961 . S
H2405 C2417 0.959 . S
H2406 C2420 0.929 . S
H2407 C2421 0.931 . S
H2408 C2423 0.930 . S
C2409 H2397 0.930 . S
C2409 C2410 1.399 . S
C2409 C2414 1.399 . S
C2410 C2409 1.399 . S
C2410 C2411 1.376 . S
C2411 H2398 0.930 . S
C2411 C2410 1.376 . S
C2411 C2412 1.388 . S
C2412 H2399 0.930 . S
C2412 C2411 1.388 . S
C2412 C2413 1.390 . S
C2413 C2412 1.390 . S
C2413 C2414 1.394 . S
C2413 C2419 1.465 . S
C2414 C2409 1.399 . S
C2414 C2413 1.394 . S
C2414 C2415 1.516 . S
C2415 C2414 1.516 . S
C2415 C2416 1.502 . S
C2415 C2417 1.561 . S
C2415 C2418 1.526 . S
C2416 H2400 0.959 . S
C2416 H2401 0.959 . S
C2416 H2402 0.961 . S
C2416 C2415 1.502 . S
C2417 H2403 0.960 . S
C2417 H2404 0.961 . S
C2417 H2405 0.959 . S
C2417 C2415 1.561 . S
C2418 C2415 1.526 . S
C2418 C2419 1.396 . S
C2418 C2423 1.390 . S
C2419 C2413 1.465 . S
C2419 C2418 1.396 . S
C2419 C2420 1.399 . S
C2420 H2406 0.929 . S
C2420 C2419 1.399 . S
C2420 C2421 1.385 . S
C2421 H2407 0.931 . S
C2421 C2420 1.385 . S
C2421 C2422 1.389 . S
C2422 C2421 1.389 . S
C2422 C2423 1.387 . S
C2423 H2408 0.930 . S
C2423 C2418 1.390 . S
C2423 C2422 1.387 . S
H2424 C2436 0.930 . S
H2425 C2438 0.930 . S
H2426 C2439 0.930 . S
H2427 C2443 0.959 . S
H2428 C2443 0.959 . S
H2429 C2443 0.961 . S
H2430 C2444 0.960 . S
H2431 C2444 0.961 . S
H2432 C2444 0.959 . S
H2433 C2447 0.929 . S
H2434 C2448 0.931 . S
H2435 C2450 0.930 . S
C2436 H2424 0.930 . S
C2436 C2437 1.399 . S
C2436 C2441 1.399 . S
C2437 C2436 1.399 . S
C2437 C2438 1.376 . S
C2438 H2425 0.930 . S
C2438 C2437 1.376 . S
C2438 C2439 1.388 . S
C2439 H2426 0.930 . S
C2439 C2438 1.388 . S
C2439 C2440 1.390 . S
C2440 C2439 1.390 . S
C2440 C2441 1.394 . S
C2440 C2446 1.465 . S
C2441 C2436 1.399 . S
C2441 C2440 1.394 . S
C2441 C2442 1.516 . S
C2442 C2441 1.516 . S
C2442 C2443 1.502 . S
C2442 C2444 1.561 . S
C2442 C2445 1.526 . S
C2443 H2427 0.959 . S
C2443 H2428 0.959 . S
C2443 H2429 0.961 . S
C2443 C2442 1.502 . S
C2444 H2430 0.960 . S
C2444 H2431 0.961 . S
C2444 H2432 0.959 . S
C2444 C2442 1.561 . S
C2445 C2442 1.526 . S
C2445 C2446 1.396 . S
C2445 C2450 1.390 . S
C2446 C2440 1.465 . S
C2446 C2445 1.396 . S
C2446 C2447 1.399 . S
C2447 H2433 0.929 . S
C2447 C2446 1.399 . S
C2447 C2448 1.385 . S
C2448 H2434 0.931 . S
C2448 C2447 1.385 . S
C2448 C2449 1.389 . S
C2449 C2448 1.389 . S
C2449 C2450 1.387 . S
C2450 H2435 0.930 . S
C2450 C2445 1.390 . S
C2450 C2449 1.387 . S
H2451 C2463 0.930 . S
H2452 C2465 0.930 . S
H2453 C2466 0.930 . S
H2454 C2470 0.959 . S
H2455 C2470 0.959 . S
H2456 C2470 0.961 . S
H2457 C2471 0.960 . S
H2458 C2471 0.961 . S
H2459 C2471 0.959 . S
H2460 C2474 0.929 . S
H2461 C2475 0.931 . S
H2462 C2477 0.930 . S
C2463 H2451 0.930 . S
C2463 C2464 1.399 . S
C2463 C2468 1.399 . S
C2464 C2463 1.399 . S
C2464 C2465 1.376 . S
C2465 H2452 0.930 . S
C2465 C2464 1.376 . S
C2465 C2466 1.388 . S
C2466 H2453 0.930 . S
C2466 C2465 1.388 . S
C2466 C2467 1.390 . S
C2467 C2466 1.390 . S
C2467 C2468 1.394 . S
C2467 C2473 1.465 . S
C2468 C2463 1.399 . S
C2468 C2467 1.394 . S
C2468 C2469 1.516 . S
C2469 C2468 1.516 . S
C2469 C2470 1.502 . S
C2469 C2471 1.561 . S
C2469 C2472 1.526 . S
C2470 H2454 0.959 . S
C2470 H2455 0.959 . S
C2470 H2456 0.961 . S
C2470 C2469 1.502 . S
C2471 H2457 0.960 . S
C2471 H2458 0.961 . S
C2471 H2459 0.959 . S
C2471 C2469 1.561 . S
C2472 C2469 1.526 . S
C2472 C2473 1.396 . S
C2472 C2477 1.390 . S
C2473 C2467 1.465 . S
C2473 C2472 1.396 . S
C2473 C2474 1.399 . S
C2474 H2460 0.929 . S
C2474 C2473 1.399 . S
C2474 C2475 1.385 . S
C2475 H2461 0.931 . S
C2475 C2474 1.385 . S
C2475 C2476 1.389 . S
C2476 C2475 1.389 . S
C2476 C2477 1.387 . S
C2477 H2462 0.930 . S
C2477 C2472 1.390 . S
C2477 C2476 1.387 . S
H2478 C2490 0.930 . S
H2479 C2492 0.930 . S
H2480 C2493 0.930 . S
H2481 C2497 0.959 . S
H2482 C2497 0.959 . S
H2483 C2497 0.961 . S
H2484 C2498 0.960 . S
H2485 C2498 0.961 . S
H2486 C2498 0.959 . S
H2487 C2501 0.929 . S
H2488 C2502 0.931 . S
H2489 C2504 0.930 . S
C2490 H2478 0.930 . S
C2490 C2491 1.399 . S
C2490 C2495 1.399 . S
C2491 C2490 1.399 . S
C2491 C2492 1.376 . S
C2492 H2479 0.930 . S
C2492 C2491 1.376 . S
C2492 C2493 1.388 . S
C2493 H2480 0.930 . S
C2493 C2492 1.388 . S
C2493 C2494 1.390 . S
C2494 C2493 1.390 . S
C2494 C2495 1.394 . S
C2494 C2500 1.465 . S
C2495 C2490 1.399 . S
C2495 C2494 1.394 . S
C2495 C2496 1.516 . S
C2496 C2495 1.516 . S
C2496 C2497 1.502 . S
C2496 C2498 1.561 . S
C2496 C2499 1.526 . S
C2497 H2481 0.959 . S
C2497 H2482 0.959 . S
C2497 H2483 0.961 . S
C2497 C2496 1.502 . S
C2498 H2484 0.960 . S
C2498 H2485 0.961 . S
C2498 H2486 0.959 . S
C2498 C2496 1.561 . S
C2499 C2496 1.526 . S
C2499 C2500 1.396 . S
C2499 C2504 1.390 . S
C2500 C2494 1.465 . S
C2500 C2499 1.396 . S
C2500 C2501 1.399 . S
C2501 H2487 0.929 . S
C2501 C2500 1.399 . S
C2501 C2502 1.385 . S
C2502 H2488 0.931 . S
C2502 C2501 1.385 . S
C2502 C2503 1.389 . S
C2503 C2502 1.389 . S
C2503 C2504 1.387 . S
C2504 H2489 0.930 . S
C2504 C2499 1.390 . S
C2504 C2503 1.387 . S
H2505 C2517 0.930 . S
H2506 C2519 0.930 . S
H2507 C2520 0.930 . S
H2508 C2524 0.959 . S
H2509 C2524 0.959 . S
H2510 C2524 0.961 . S
H2511 C2525 0.960 . S
H2512 C2525 0.961 . S
H2513 C2525 0.959 . S
H2514 C2528 0.929 . S
H2515 C2529 0.931 . S
H2516 C2531 0.930 . S
C2517 H2505 0.930 . S
C2517 C2518 1.399 . S
C2517 C2522 1.399 . S
C2518 C2517 1.399 . S
C2518 C2519 1.376 . S
C2519 H2506 0.930 . S
C2519 C2518 1.376 . S
C2519 C2520 1.388 . S
C2520 H2507 0.930 . S
C2520 C2519 1.388 . S
C2520 C2521 1.390 . S
C2521 C2520 1.390 . S
C2521 C2522 1.394 . S
C2521 C2527 1.465 . S
C2522 C2517 1.399 . S
C2522 C2521 1.394 . S
C2522 C2523 1.516 . S
C2523 C2522 1.516 . S
C2523 C2524 1.502 . S
C2523 C2525 1.561 . S
C2523 C2526 1.526 . S
C2524 H2508 0.959 . S
C2524 H2509 0.959 . S
C2524 H2510 0.961 . S
C2524 C2523 1.502 . S
C2525 H2511 0.960 . S
C2525 H2512 0.961 . S
C2525 H2513 0.959 . S
C2525 C2523 1.561 . S
C2526 C2523 1.526 . S
C2526 C2527 1.396 . S
C2526 C2531 1.390 . S
C2527 C2521 1.465 . S
C2527 C2526 1.396 . S
C2527 C2528 1.399 . S
C2528 H2514 0.929 . S
C2528 C2527 1.399 . S
C2528 C2529 1.385 . S
C2529 H2515 0.931 . S
C2529 C2528 1.385 . S
C2529 C2530 1.389 . S
C2530 C2529 1.389 . S
C2530 C2531 1.387 . S
C2531 H2516 0.930 . S
C2531 C2526 1.390 . S
C2531 C2530 1.387 . S
H2532 C2544 0.930 . S
H2533 C2546 0.930 . S
H2534 C2547 0.930 . S
H2535 C2551 0.959 . S
H2536 C2551 0.959 . S
H2537 C2551 0.961 . S
H2538 C2552 0.960 . S
H2539 C2552 0.961 . S
H2540 C2552 0.959 . S
H2541 C2555 0.929 . S
H2542 C2556 0.931 . S
H2543 C2558 0.930 . S
C2544 H2532 0.930 . S
C2544 C2545 1.399 . S
C2544 C2549 1.399 . S
C2545 C2544 1.399 . S
C2545 C2546 1.376 . S
C2546 H2533 0.930 . S
C2546 C2545 1.376 . S
C2546 C2547 1.388 . S
C2547 H2534 0.930 . S
C2547 C2546 1.388 . S
C2547 C2548 1.390 . S
C2548 C2547 1.390 . S
C2548 C2549 1.394 . S
C2548 C2554 1.465 . S
C2549 C2544 1.399 . S
C2549 C2548 1.394 . S
C2549 C2550 1.516 . S
C2550 C2549 1.516 . S
C2550 C2551 1.502 . S
C2550 C2552 1.561 . S
C2550 C2553 1.526 . S
C2551 H2535 0.959 . S
C2551 H2536 0.959 . S
C2551 H2537 0.961 . S
C2551 C2550 1.502 . S
C2552 H2538 0.960 . S
C2552 H2539 0.961 . S
C2552 H2540 0.959 . S
C2552 C2550 1.561 . S
C2553 C2550 1.526 . S
C2553 C2554 1.396 . S
C2553 C2558 1.390 . S
C2554 C2548 1.465 . S
C2554 C2553 1.396 . S
C2554 C2555 1.399 . S
C2555 H2541 0.929 . S
C2555 C2554 1.399 . S
C2555 C2556 1.385 . S
C2556 H2542 0.931 . S
C2556 C2555 1.385 . S
C2556 C2557 1.389 . S
C2557 C2556 1.389 . S
C2557 C2558 1.387 . S
C2558 H2543 0.930 . S
C2558 C2553 1.390 . S
C2558 C2557 1.387 . S
H2559 C2571 0.930 . S
H2560 C2573 0.930 . S
H2561 C2574 0.930 . S
H2562 C2578 0.959 . S
H2563 C2578 0.959 . S
H2564 C2578 0.961 . S
H2565 C2579 0.960 . S
H2566 C2579 0.961 . S
H2567 C2579 0.959 . S
H2568 C2582 0.929 . S
H2569 C2583 0.931 . S
H2570 C2585 0.930 . S
C2571 H2559 0.930 . S
C2571 C2572 1.399 . S
C2571 C2576 1.399 . S
C2572 C2571 1.399 . S
C2572 C2573 1.376 . S
C2573 H2560 0.930 . S
C2573 C2572 1.376 . S
C2573 C2574 1.388 . S
C2574 H2561 0.930 . S
C2574 C2573 1.388 . S
C2574 C2575 1.390 . S
C2575 C2574 1.390 . S
C2575 C2576 1.394 . S
C2575 C2581 1.465 . S
C2576 C2571 1.399 . S
C2576 C2575 1.394 . S
C2576 C2577 1.516 . S
C2577 C2576 1.516 . S
C2577 C2578 1.502 . S
C2577 C2579 1.561 . S
C2577 C2580 1.526 . S
C2578 H2562 0.959 . S
C2578 H2563 0.959 . S
C2578 H2564 0.961 . S
C2578 C2577 1.502 . S
C2579 H2565 0.960 . S
C2579 H2566 0.961 . S
C2579 H2567 0.959 . S
C2579 C2577 1.561 . S
C2580 C2577 1.526 . S
C2580 C2581 1.396 . S
C2580 C2585 1.390 . S
C2581 C2575 1.465 . S
C2581 C2580 1.396 . S
C2581 C2582 1.399 . S
C2582 H2568 0.929 . S
C2582 C2581 1.399 . S
C2582 C2583 1.385 . S
C2583 H2569 0.931 . S
C2583 C2582 1.385 . S
C2583 C2584 1.389 . S
C2584 C2583 1.389 . S
C2584 C2585 1.387 . S
C2585 H2570 0.930 . S
C2585 C2580 1.390 . S
C2585 C2584 1.387 . S
H2586 C2598 0.930 . S
H2587 C2600 0.930 . S
H2588 C2601 0.930 . S
H2589 C2605 0.959 . S
H2590 C2605 0.959 . S
H2591 C2605 0.961 . S
H2592 C2606 0.960 . S
H2593 C2606 0.961 . S
H2594 C2606 0.959 . S
H2595 C2609 0.929 . S
H2596 C2610 0.931 . S
H2597 C2612 0.930 . S
C2598 H2586 0.930 . S
C2598 C2599 1.399 . S
C2598 C2603 1.399 . S
C2599 C2598 1.399 . S
C2599 C2600 1.376 . S
C2600 H2587 0.930 . S
C2600 C2599 1.376 . S
C2600 C2601 1.388 . S
C2601 H2588 0.930 . S
C2601 C2600 1.388 . S
C2601 C2602 1.390 . S
C2602 C2601 1.390 . S
C2602 C2603 1.394 . S
C2602 C2608 1.465 . S
C2603 C2598 1.399 . S
C2603 C2602 1.394 . S
C2603 C2604 1.516 . S
C2604 C2603 1.516 . S
C2604 C2605 1.502 . S
C2604 C2606 1.561 . S
C2604 C2607 1.526 . S
C2605 H2589 0.959 . S
C2605 H2590 0.959 . S
C2605 H2591 0.961 . S
C2605 C2604 1.502 . S
C2606 H2592 0.960 . S
C2606 H2593 0.961 . S
C2606 H2594 0.959 . S
C2606 C2604 1.561 . S
C2607 C2604 1.526 . S
C2607 C2608 1.396 . S
C2607 C2612 1.390 . S
C2608 C2602 1.465 . S
C2608 C2607 1.396 . S
C2608 C2609 1.399 . S
C2609 H2595 0.929 . S
C2609 C2608 1.399 . S
C2609 C2610 1.385 . S
C2610 H2596 0.931 . S
C2610 C2609 1.385 . S
C2610 C2611 1.389 . S
C2611 C2610 1.389 . S
C2611 C2612 1.387 . S
C2612 H2597 0.930 . S
C2612 C2607 1.390 . S
C2612 C2611 1.387 . S
H2613 C2625 0.930 . S
H2614 C2627 0.930 . S
H2615 C2628 0.930 . S
H2616 C2632 0.959 . S
H2617 C2632 0.959 . S
H2618 C2632 0.961 . S
H2619 C2633 0.960 . S
H2620 C2633 0.961 . S
H2621 C2633 0.959 . S
H2622 C2636 0.929 . S
H2623 C2637 0.931 . S
H2624 C2639 0.930 . S
C2625 H2613 0.930 . S
C2625 C2626 1.399 . S
C2625 C2630 1.399 . S
C2626 C2625 1.399 . S
C2626 C2627 1.376 . S
C2627 H2614 0.930 . S
C2627 C2626 1.376 . S
C2627 C2628 1.388 . S
C2628 H2615 0.930 . S
C2628 C2627 1.388 . S
C2628 C2629 1.390 . S
C2629 C2628 1.390 . S
C2629 C2630 1.394 . S
C2629 C2635 1.465 . S
C2630 C2625 1.399 . S
C2630 C2629 1.394 . S
C2630 C2631 1.516 . S
C2631 C2630 1.516 . S
C2631 C2632 1.502 . S
C2631 C2633 1.561 . S
C2631 C2634 1.526 . S
C2632 H2616 0.959 . S
C2632 H2617 0.959 . S
C2632 H2618 0.961 . S
C2632 C2631 1.502 . S
C2633 H2619 0.960 . S
C2633 H2620 0.961 . S
C2633 H2621 0.959 . S
C2633 C2631 1.561 . S
C2634 C2631 1.526 . S
C2634 C2635 1.396 . S
C2634 C2639 1.390 . S
C2635 C2629 1.465 . S
C2635 C2634 1.396 . S
C2635 C2636 1.399 . S
C2636 H2622 0.929 . S
C2636 C2635 1.399 . S
C2636 C2637 1.385 . S
C2637 H2623 0.931 . S
C2637 C2636 1.385 . S
C2637 C2638 1.389 . S
C2638 C2637 1.389 . S
C2638 C2639 1.387 . S
C2639 H2624 0.930 . S
C2639 C2634 1.390 . S
C2639 C2638 1.387 . S
H2640 C2652 0.930 . S
H2641 C2654 0.930 . S
H2642 C2655 0.930 . S
H2643 C2659 0.959 . S
H2644 C2659 0.959 1_455 S
H2645 C2659 0.961 . S
H2646 C2660 0.960 . S
H2647 C2660 0.961 . S
H2648 C2660 0.959 . S
H2649 C2663 0.929 . S
H2650 C2664 0.931 . S
H2651 C2666 0.930 . S
C2652 H2640 0.930 . S
C2652 C2653 1.399 . S
C2652 C2657 1.399 . S
C2653 C2652 1.399 . S
C2653 C2654 1.376 . S
C2654 H2641 0.930 . S
C2654 C2653 1.376 . S
C2654 C2655 1.388 . S
C2655 H2642 0.930 . S
C2655 C2654 1.388 . S
C2655 C2656 1.390 . S
C2656 C2655 1.390 . S
C2656 C2657 1.394 . S
C2656 C2662 1.465 1_655 S
C2657 C2652 1.399 . S
C2657 C2656 1.394 . S
C2657 C2658 1.516 1_655 S
C2658 C2657 1.516 1_455 S
C2658 C2659 1.502 1_455 S
C2658 C2660 1.561 . S
C2658 C2661 1.526 . S
C2659 H2643 0.959 . S
C2659 H2644 0.959 1_655 S
C2659 H2645 0.961 . S
C2659 C2658 1.502 1_655 S
C2660 H2646 0.960 . S
C2660 H2647 0.961 . S
C2660 H2648 0.959 . S
C2660 C2658 1.561 . S
C2661 C2658 1.526 . S
C2661 C2662 1.396 . S
C2661 C2666 1.390 . S
C2662 C2656 1.465 1_455 S
C2662 C2661 1.396 . S
C2662 C2663 1.399 . S
C2663 H2649 0.929 . S
C2663 C2662 1.399 . S
C2663 C2664 1.385 . S
C2664 H2650 0.931 . S
C2664 C2663 1.385 . S
C2664 C2665 1.389 . S
C2665 C2664 1.389 . S
C2665 C2666 1.387 . S
C2666 H2651 0.930 . S
C2666 C2661 1.390 . S
C2666 C2665 1.387 . S
H2667 C2679 0.930 . S
H2668 C2681 0.930 . S
H2669 C2682 0.930 . S
H2670 C2686 0.959 1_545 S
H2671 C2686 0.959 1_545 S
H2672 C2686 0.961 . S
H2673 C2687 0.960 . S
H2674 C2687 0.961 . S
H2675 C2687 0.959 . S
H2676 C2690 0.929 . S
H2677 C2691 0.931 . S
H2678 C2693 0.930 . S
C2679 H2667 0.930 . S
C2679 C2680 1.399 . S
C2679 C2684 1.399 . S
C2680 C2679 1.399 . S
C2680 C2681 1.376 . S
C2681 H2668 0.930 . S
C2681 C2680 1.376 . S
C2681 C2682 1.388 . S
C2682 H2669 0.930 . S
C2682 C2681 1.388 . S
C2682 C2683 1.390 . S
C2683 C2682 1.390 . S
C2683 C2684 1.394 . S
C2683 C2689 1.465 1_565 S
C2684 C2679 1.399 . S
C2684 C2683 1.394 . S
C2684 C2685 1.516 . S
C2685 C2684 1.516 . S
C2685 C2686 1.502 . S
C2685 C2687 1.561 . S
C2685 C2688 1.526 1_565 S
C2686 H2670 0.959 1_565 S
C2686 H2671 0.959 1_565 S
C2686 H2672 0.961 . S
C2686 C2685 1.502 . S
C2687 H2673 0.960 . S
C2687 H2674 0.961 . S
C2687 H2675 0.959 . S
C2687 C2685 1.561 . S
C2688 C2685 1.526 1_545 S
C2688 C2689 1.396 . S
C2688 C2693 1.390 . S
C2689 C2683 1.465 1_545 S
C2689 C2688 1.396 . S
C2689 C2690 1.399 . S
C2690 H2676 0.929 . S
C2690 C2689 1.399 . S
C2690 C2691 1.385 . S
C2691 H2677 0.931 . S
C2691 C2690 1.385 . S
C2691 C2692 1.389 . S
C2692 C2691 1.389 . S
C2692 C2693 1.387 . S
C2693 H2678 0.930 . S
C2693 C2688 1.390 . S
C2693 C2692 1.387 . S
H2694 C2706 0.930 . S
H2695 C2708 0.930 . S
H2696 C2709 0.930 . S
H2697 C2713 0.959 . S
H2698 C2713 0.959 . S
H2699 C2713 0.961 1_655 S
H2700 C2714 0.960 . S
H2701 C2714 0.961 . S
H2702 C2714 0.959 . S
H2703 C2717 0.929 . S
H2704 C2718 0.931 . S
H2705 C2720 0.930 . S
C2706 H2694 0.930 . S
C2706 C2707 1.399 . S
C2706 C2711 1.399 . S
C2707 C2706 1.399 . S
C2707 C2708 1.376 . S
C2708 H2695 0.930 . S
C2708 C2707 1.376 . S
C2708 C2709 1.388 . S
C2709 H2696 0.930 . S
C2709 C2708 1.388 . S
C2709 C2710 1.390 . S
C2710 C2709 1.390 . S
C2710 C2711 1.394 . S
C2710 C2716 1.465 1_655 S
C2711 C2706 1.399 . S
C2711 C2710 1.394 . S
C2711 C2712 1.516 . S
C2712 C2711 1.516 . S
C2712 C2713 1.502 1_655 S
C2712 C2714 1.561 . S
C2712 C2715 1.526 1_655 S
C2713 H2697 0.959 . S
C2713 H2698 0.959 . S
C2713 H2699 0.961 1_455 S
C2713 C2712 1.502 1_455 S
C2714 H2700 0.960 . S
C2714 H2701 0.961 . S
C2714 H2702 0.959 . S
C2714 C2712 1.561 . S
C2715 C2712 1.526 1_455 S
C2715 C2716 1.396 . S
C2715 C2720 1.390 . S
C2716 C2710 1.465 1_455 S
C2716 C2715 1.396 . S
C2716 C2717 1.399 . S
C2717 H2703 0.929 . S
C2717 C2716 1.399 . S
C2717 C2718 1.385 . S
C2718 H2704 0.931 . S
C2718 C2717 1.385 . S
C2718 C2719 1.389 . S
C2719 C2718 1.389 . S
C2719 C2720 1.387 . S
C2720 H2705 0.930 . S
C2720 C2715 1.390 . S
C2720 C2719 1.387 . S
H2721 C2733 0.930 . S
H2722 C2735 0.930 . S
H2723 C2736 0.930 1_545 S
H2724 C2740 0.959 . S
H2725 C2740 0.959 . S
H2726 C2740 0.961 . S
H2727 C2741 0.960 . S
H2728 C2741 0.961 . S
H2729 C2741 0.959 . S
H2730 C2744 0.929 . S
H2731 C2745 0.931 . S
H2732 C2747 0.930 . S
C2733 H2721 0.930 . S
C2733 C2734 1.399 . S
C2733 C2738 1.399 . S
C2734 C2733 1.399 . S
C2734 C2735 1.376 . S
C2735 H2722 0.930 . S
C2735 C2734 1.376 . S
C2735 C2736 1.388 . S
C2736 H2723 0.930 1_565 S
C2736 C2735 1.388 . S
C2736 C2737 1.390 . S
C2737 C2736 1.390 . S
C2737 C2738 1.394 . S
C2737 C2743 1.465 1_565 S
C2738 C2733 1.399 . S
C2738 C2737 1.394 . S
C2738 C2739 1.516 . S
C2739 C2738 1.516 . S
C2739 C2740 1.502 . S
C2739 C2741 1.561 . S
C2739 C2742 1.526 1_565 S
C2740 H2724 0.959 . S
C2740 H2725 0.959 . S
C2740 H2726 0.961 . S
C2740 C2739 1.502 . S
C2741 H2727 0.960 . S
C2741 H2728 0.961 . S
C2741 H2729 0.959 . S
C2741 C2739 1.561 . S
C2742 C2739 1.526 1_545 S
C2742 C2743 1.396 . S
C2742 C2747 1.390 . S
C2743 C2737 1.465 1_545 S
C2743 C2742 1.396 . S
C2743 C2744 1.399 . S
C2744 H2730 0.929 . S
C2744 C2743 1.399 . S
C2744 C2745 1.385 . S
C2745 H2731 0.931 . S
C2745 C2744 1.385 . S
C2745 C2746 1.389 . S
C2746 C2745 1.389 . S
C2746 C2747 1.387 . S
C2747 H2732 0.930 . S
C2747 C2742 1.390 . S
C2747 C2746 1.387 . S
H2748 C2760 0.930 . S
H2749 C2762 0.930 . S
H2750 C2763 0.930 . S
H2751 C2767 0.959 . S
H2752 C2767 0.959 1_455 S
H2753 C2767 0.961 . S
H2754 C2768 0.960 . S
H2755 C2768 0.961 . S
H2756 C2768 0.959 . S
H2757 C2771 0.929 . S
H2758 C2772 0.931 . S
H2759 C2774 0.930 . S
C2760 H2748 0.930 . S
C2760 C2761 1.399 . S
C2760 C2765 1.399 . S
C2761 C2760 1.399 . S
C2761 C2762 1.376 . S
C2762 H2749 0.930 . S
C2762 C2761 1.376 . S
C2762 C2763 1.388 . S
C2763 H2750 0.930 . S
C2763 C2762 1.388 . S
C2763 C2764 1.390 . S
C2764 C2763 1.390 . S
C2764 C2765 1.394 . S
C2764 C2770 1.465 1_655 S
C2765 C2760 1.399 . S
C2765 C2764 1.394 . S
C2765 C2766 1.516 1_655 S
C2766 C2765 1.516 1_455 S
C2766 C2767 1.502 1_455 S
C2766 C2768 1.561 . S
C2766 C2769 1.526 . S
C2767 H2751 0.959 . S
C2767 H2752 0.959 1_655 S
C2767 H2753 0.961 . S
C2767 C2766 1.502 1_655 S
C2768 H2754 0.960 . S
C2768 H2755 0.961 . S
C2768 H2756 0.959 . S
C2768 C2766 1.561 . S
C2769 C2766 1.526 . S
C2769 C2770 1.396 . S
C2769 C2774 1.390 . S
C2770 C2764 1.465 1_455 S
C2770 C2769 1.396 . S
C2770 C2771 1.399 . S
C2771 H2757 0.929 . S
C2771 C2770 1.399 . S
C2771 C2772 1.385 . S
C2772 H2758 0.931 . S
C2772 C2771 1.385 . S
C2772 C2773 1.389 . S
C2773 C2772 1.389 . S
C2773 C2774 1.387 . S
C2774 H2759 0.930 . S
C2774 C2769 1.390 . S
C2774 C2773 1.387 . S
H2775 C2787 0.930 . S
H2776 C2789 0.930 . S
H2777 C2790 0.930 . S
H2778 C2794 0.959 1_565 S
H2779 C2794 0.959 . S
H2780 C2794 0.961 1_565 S
H2781 C2795 0.960 . S
H2782 C2795 0.961 . S
H2783 C2795 0.959 . S
H2784 C2798 0.929 . S
H2785 C2799 0.931 . S
H2786 C2801 0.930 . S
C2787 H2775 0.930 . S
C2787 C2788 1.399 . S
C2787 C2792 1.399 . S
C2788 C2787 1.399 . S
C2788 C2789 1.376 . S
C2789 H2776 0.930 . S
C2789 C2788 1.376 . S
C2789 C2790 1.388 . S
C2790 H2777 0.930 . S
C2790 C2789 1.388 . S
C2790 C2791 1.390 . S
C2791 C2790 1.390 . S
C2791 C2792 1.394 . S
C2791 C2797 1.465 1_565 S
C2792 C2787 1.399 . S
C2792 C2791 1.394 . S
C2792 C2793 1.516 1_565 S
C2793 C2792 1.516 1_545 S
C2793 C2794 1.502 . S
C2793 C2795 1.561 . S
C2793 C2796 1.526 . S
C2794 H2778 0.959 1_545 S
C2794 H2779 0.959 . S
C2794 H2780 0.961 1_545 S
C2794 C2793 1.502 . S
C2795 H2781 0.960 . S
C2795 H2782 0.961 . S
C2795 H2783 0.959 . S
C2795 C2793 1.561 . S
C2796 C2793 1.526 . S
C2796 C2797 1.396 . S
C2796 C2801 1.390 . S
C2797 C2791 1.465 1_545 S
C2797 C2796 1.396 . S
C2797 C2798 1.399 . S
C2798 H2784 0.929 . S
C2798 C2797 1.399 . S
C2798 C2799 1.385 . S
C2799 H2785 0.931 . S
C2799 C2798 1.385 . S
C2799 C2800 1.389 . S
C2800 C2799 1.389 . S
C2800 C2801 1.387 . S
C2801 H2786 0.930 . S
C2801 C2796 1.390 . S
C2801 C2800 1.387 . S
H2802 C2814 0.930 . S
H2803 C2816 0.930 . S
H2804 C2817 0.930 . S
H2805 C2821 0.959 1_455 S
H2806 C2821 0.959 . S
H2807 C2821 0.961 . S
H2808 C2822 0.960 . S
H2809 C2822 0.961 . S
H2810 C2822 0.959 . S
H2811 C2825 0.929 . S
H2812 C2826 0.931 . S
H2813 C2828 0.930 . S
C2814 H2802 0.930 . S
C2814 C2815 1.399 . S
C2814 C2819 1.399 . S
C2815 C2814 1.399 . S
C2815 C2816 1.376 . S
C2816 H2803 0.930 . S
C2816 C2815 1.376 . S
C2816 C2817 1.388 . S
C2817 H2804 0.930 . S
C2817 C2816 1.388 . S
C2817 C2818 1.390 . S
C2818 C2817 1.390 . S
C2818 C2819 1.394 . S
C2818 C2824 1.465 1_655 S
C2819 C2814 1.399 . S
C2819 C2818 1.394 . S
C2819 C2820 1.516 . S
C2820 C2819 1.516 . S
C2820 C2821 1.502 . S
C2820 C2822 1.561 . S
C2820 C2823 1.526 1_655 S
C2821 H2805 0.959 1_655 S
C2821 H2806 0.959 . S
C2821 H2807 0.961 . S
C2821 C2820 1.502 . S
C2822 H2808 0.960 . S
C2822 H2809 0.961 . S
C2822 H2810 0.959 . S
C2822 C2820 1.561 . S
C2823 C2820 1.526 1_455 S
C2823 C2824 1.396 . S
C2823 C2828 1.390 . S
C2824 C2818 1.465 1_455 S
C2824 C2823 1.396 . S
C2824 C2825 1.399 . S
C2825 H2811 0.929 . S
C2825 C2824 1.399 . S
C2825 C2826 1.385 . S
C2826 H2812 0.931 . S
C2826 C2825 1.385 . S
C2826 C2827 1.389 . S
C2827 C2826 1.389 . S
C2827 C2828 1.387 . S
C2828 H2813 0.930 . S
C2828 C2823 1.390 . S
C2828 C2827 1.387 . S
H2829 C2841 0.930 . S
H2830 C2843 0.930 . S
H2831 C2844 0.930 1_545 S
H2832 C2848 0.959 . S
H2833 C2848 0.959 . S
H2834 C2848 0.961 . S
H2835 C2849 0.960 . S
H2836 C2849 0.961 . S
H2837 C2849 0.959 . S
H2838 C2852 0.929 . S
H2839 C2853 0.931 . S
H2840 C2855 0.930 . S
C2841 H2829 0.930 . S
C2841 C2842 1.399 . S
C2841 C2846 1.399 . S
C2842 C2841 1.399 . S
C2842 C2843 1.376 . S
C2843 H2830 0.930 . S
C2843 C2842 1.376 . S
C2843 C2844 1.388 . S
C2844 H2831 0.930 1_565 S
C2844 C2843 1.388 . S
C2844 C2845 1.390 . S
C2845 C2844 1.390 . S
C2845 C2846 1.394 . S
C2845 C2851 1.465 1_565 S
C2846 C2841 1.399 . S
C2846 C2845 1.394 . S
C2846 C2847 1.516 . S
C2847 C2846 1.516 . S
C2847 C2848 1.502 . S
C2847 C2849 1.561 . S
C2847 C2850 1.526 1_565 S
C2848 H2832 0.959 . S
C2848 H2833 0.959 . S
C2848 H2834 0.961 . S
C2848 C2847 1.502 . S
C2849 H2835 0.960 . S
C2849 H2836 0.961 . S
C2849 H2837 0.959 . S
C2849 C2847 1.561 . S
C2850 C2847 1.526 1_545 S
C2850 C2851 1.396 . S
C2850 C2855 1.390 . S
C2851 C2845 1.465 1_545 S
C2851 C2850 1.396 . S
C2851 C2852 1.399 . S
C2852 H2838 0.929 . S
C2852 C2851 1.399 . S
C2852 C2853 1.385 . S
C2853 H2839 0.931 . S
C2853 C2852 1.385 . S
C2853 C2854 1.389 . S
C2854 C2853 1.389 . S
C2854 C2855 1.387 . S
C2855 H2840 0.930 . S
C2855 C2850 1.390 . S
C2855 C2854 1.387 . S
H2856 C2868 0.930 . S
H2857 C2870 0.930 . S
H2858 C2871 0.930 . S
H2859 C2875 0.959 . S
H2860 C2875 0.959 . S
H2861 C2875 0.961 . S
H2862 C2876 0.960 . S
H2863 C2876 0.961 . S
H2864 C2876 0.959 . S
H2865 C2879 0.899 1_556 S
H2866 C2880 0.931 . S
H2867 C2882 0.930 . S
C2868 H2856 0.930 . S
C2868 C2869 1.399 . S
C2868 C2873 1.399 . S
C2869 C2868 1.399 . S
C2869 C2870 1.376 . S
C2870 H2857 0.930 . S
C2870 C2869 1.376 . S
C2870 C2871 1.388 . S
C2871 H2858 0.930 . S
C2871 C2870 1.388 . S
C2871 C2872 1.390 . S
C2872 C2871 1.390 . S
C2872 C2873 1.394 . S
C2872 C2878 1.465 1_556 S
C2873 C2868 1.399 . S
C2873 C2872 1.394 . S
C2873 C2874 1.516 1_556 S
C2874 C2873 1.516 1_554 S
C2874 C2875 1.502 . S
C2874 C2876 1.561 . S
C2874 C2877 1.526 . S
C2875 H2859 0.959 . S
C2875 H2860 0.959 . S
C2875 H2861 0.961 . S
C2875 C2874 1.502 . S
C2876 H2862 0.960 . S
C2876 H2863 0.961 . S
C2876 H2864 0.959 . S
C2876 C2874 1.561 . S
C2877 C2874 1.526 . S
C2877 C2878 1.396 . S
C2877 C2882 1.390 . S
C2878 C2872 1.465 1_554 S
C2878 C2877 1.396 . S
C2878 C2879 1.399 . S
C2879 H2865 0.899 1_554 S
C2879 C2878 1.399 . S
C2879 C2880 1.385 . S
C2880 H2866 0.931 . S
C2880 C2879 1.385 . S
C2880 C2881 1.389 . S
C2881 C2880 1.389 . S
C2881 C2882 1.387 . S
C2882 H2867 0.930 . S
C2882 C2877 1.390 . S
C2882 C2881 1.387 . S
H2883 C2895 0.930 . S
H2884 C2897 0.930 . S
H2885 C2898 0.930 1_554 S
H2886 C2902 0.959 . S
H2887 C2902 0.959 . S
H2888 C2902 0.961 . S
H2889 C2903 0.960 . S
H2890 C2903 0.961 . S
H2891 C2903 0.959 . S
H2892 C2906 0.929 . S
H2893 C2907 0.931 . S
H2894 C2909 0.930 . S
C2895 H2883 0.930 . S
C2895 C2896 1.399 . S
C2895 C2900 1.399 . S
C2896 C2895 1.399 . S
C2896 C2897 1.376 . S
C2897 H2884 0.930 . S
C2897 C2896 1.376 . S
C2897 C2898 1.388 . S
C2898 H2885 0.930 1_556 S
C2898 C2897 1.388 . S
C2898 C2899 1.390 . S
C2899 C2898 1.390 . S
C2899 C2900 1.394 . S
C2899 C2905 1.465 1_556 S
C2900 C2895 1.399 . S
C2900 C2899 1.394 . S
C2900 C2901 1.516 . S
C2901 C2900 1.516 . S
C2901 C2902 1.502 . S
C2901 C2903 1.561 . S
C2901 C2904 1.526 1_556 S
C2902 H2886 0.959 . S
C2902 H2887 0.959 . S
C2902 H2888 0.961 . S
C2902 C2901 1.502 . S
C2903 H2889 0.960 . S
C2903 H2890 0.961 . S
C2903 H2891 0.959 . S
C2903 C2901 1.561 . S
C2904 C2901 1.526 1_554 S
C2904 C2905 1.396 . S
C2904 C2909 1.390 . S
C2905 C2899 1.465 1_554 S
C2905 C2904 1.396 . S
C2905 C2906 1.399 . S
C2906 H2892 0.929 . S
C2906 C2905 1.399 . S
C2906 C2907 1.385 . S
C2907 H2893 0.931 . S
C2907 C2906 1.385 . S
C2907 C2908 1.389 . S
C2908 C2907 1.389 . S
C2908 C2909 1.387 . S
C2909 H2894 0.930 . S
C2909 C2904 1.390 . S
C2909 C2908 1.387 . S
H2910 C2922 0.930 . S
H2911 C2924 0.930 . S
H2912 C2925 0.930 1_554 S
H2913 C2929 0.959 . S
H2914 C2929 0.959 . S
H2915 C2929 0.961 . S
H2916 C2930 0.960 . S
H2917 C2930 0.961 . S
H2918 C2930 0.959 . S
H2919 C2933 0.929 . S
H2920 C2934 0.931 . S
H2921 C2936 0.930 . S
C2922 H2910 0.930 . S
C2922 C2923 1.399 . S
C2922 C2927 1.399 . S
C2923 C2922 1.399 . S
C2923 C2924 1.376 . S
C2924 H2911 0.930 . S
C2924 C2923 1.376 . S
C2924 C2925 1.388 . S
C2925 H2912 0.930 1_556 S
C2925 C2924 1.388 . S
C2925 C2926 1.390 . S
C2926 C2925 1.390 . S
C2926 C2927 1.394 . S
C2926 C2932 1.465 1_556 S
C2927 C2922 1.399 . S
C2927 C2926 1.394 . S
C2927 C2928 1.516 . S
C2928 C2927 1.516 . S
C2928 C2929 1.502 . S
C2928 C2930 1.561 . S
C2928 C2931 1.526 1_556 S
C2929 H2913 0.959 . S
C2929 H2914 0.959 . S
C2929 H2915 0.961 . S
C2929 C2928 1.502 . S
C2930 H2916 0.960 . S
C2930 H2917 0.961 . S
C2930 H2918 0.959 . S
C2930 C2928 1.561 . S
C2931 C2928 1.526 1_554 S
C2931 C2932 1.396 . S
C2931 C2936 1.390 . S
C2932 C2926 1.465 1_554 S
C2932 C2931 1.396 . S
C2932 C2933 1.399 . S
C2933 H2919 0.929 . S
C2933 C2932 1.399 . S
C2933 C2934 1.385 . S
C2934 H2920 0.931 . S
C2934 C2933 1.385 . S
C2934 C2935 1.389 . S
C2935 C2934 1.389 . S
C2935 C2936 1.387 . S
C2936 H2921 0.930 . S
C2936 C2931 1.390 . S
C2936 C2935 1.387 . S
H2937 C2949 0.930 . S
H2938 C2951 0.930 . S
H2939 C2952 0.930 . S
H2940 C2956 0.959 . S
H2941 C2956 0.959 . S
H2942 C2956 0.961 1_556 S
H2943 C2957 0.960 . S
H2944 C2957 0.961 . S
H2945 C2957 0.959 . S
H2946 C2960 0.929 . S
H2947 C2961 0.931 . S
H2948 C2963 0.930 . S
C2949 H2937 0.930 . S
C2949 C2950 1.399 . S
C2949 C2954 1.399 . S
C2950 C2949 1.399 . S
C2950 C2951 1.376 . S
C2951 H2938 0.930 . S
C2951 C2950 1.376 . S
C2951 C2952 1.388 . S
C2952 H2939 0.930 . S
C2952 C2951 1.388 . S
C2952 C2953 1.390 . S
C2953 C2952 1.390 . S
C2953 C2954 1.394 . S
C2953 C2959 1.465 1_556 S
C2954 C2949 1.399 . S
C2954 C2953 1.394 . S
C2954 C2955 1.516 . S
C2955 C2954 1.516 . S
C2955 C2956 1.502 1_556 S
C2955 C2957 1.561 . S
C2955 C2958 1.526 1_556 S
C2956 H2940 0.959 . S
C2956 H2941 0.959 . S
C2956 H2942 0.961 1_554 S
C2956 C2955 1.502 1_554 S
C2957 H2943 0.960 . S
C2957 H2944 0.961 . S
C2957 H2945 0.959 . S
C2957 C2955 1.561 . S
C2958 C2955 1.526 1_554 S
C2958 C2959 1.396 . S
C2958 C2963 1.390 . S
C2959 C2953 1.465 1_554 S
C2959 C2958 1.396 . S
C2959 C2960 1.399 . S
C2960 H2946 0.929 . S
C2960 C2959 1.399 . S
C2960 C2961 1.385 . S
C2961 H2947 0.931 . S
C2961 C2960 1.385 . S
C2961 C2962 1.389 . S
C2962 C2961 1.389 . S
C2962 C2963 1.387 . S
C2963 H2948 0.930 . S
C2963 C2958 1.390 . S
C2963 C2962 1.387 . S
C709 C8 2.671 . S
C721 C382 2.661 . S
C736 C37 2.666 . S
C748 C411 2.608 . S
C763 C66 2.682 . S
C775 C440 2.665 . S
C790 C95 2.683 . S
C802 C353 2.615 . S
C817 C124 2.655 . S
C829 C324 2.644 . S
C844 C153 2.700 . S
C856 C237 2.639 . S
C871 C182 2.650 . S
C883 C266 2.633 . S
C898 C211 2.668 . S
C910 C295 2.608 . S
C925 C240 2.671 . S
C937 C34 2.661 . S
C952 C269 2.700 . S
C964 C63 2.638 . S
C979 C298 2.686 . S
C991 C92 2.617 . S
C1006 C327 2.695 . S
C1018 C5 2.629 . S
C1033 C208 2.661 . S
C1045 C356 2.672 . S
C1060 C385 2.686 . S
C1072 C121 2.666 . S
C1087 C414 2.702 . S
C1099 C150 2.644 . S
C1114 C443 2.652 . S
C1126 C179 2.637 . S
C1141 C472 2.675 . S
C1153 C643 2.663 . S
C1168 C501 2.688 . S
C1180 C527 2.666 . S
C1195 C530 2.680 . S
C1207 C556 2.665 . S
C1222 C559 2.702 . S
C1234 C585 2.647 . S
C1249 C588 2.672 . S
C1261 C498 2.661 . S
C1276 C617 2.659 . S
C1288 C672 2.608 . S
C1303 C646 2.679 . S
C1315 C614 2.612 . S
C1330 C675 2.656 . S
C1342 C469 2.645 . S
C1357 C3 2.247 . S
C1369 C641 2.215 . S
C1384 C32 2.227 . S
C1396 C467 2.257 . S
C1411 C670 2.258 . S
C1423 C61 2.231 . S
C1438 C612 2.244 . S
C1450 C90 2.256 . S
C1465 C119 2.256 . S
C1477 C525 2.242 . S
C1492 C148 2.212 . S
C1504 C554 2.230 . S
C1519 C583 2.256 . S
C1531 C177 2.244 . S
C1546 C496 2.251 . S
C1558 C206 2.251 . S
C1573 C380 2.213 . S
C1585 C235 2.245 . S
C1600 C409 2.255 . S
C1612 C264 2.245 . S
C1627 C438 2.227 . S
C1639 C293 2.257 . S
C1654 C322 2.258 . S
C1666 C351 2.234 . S
C1681 C79 0.673 . S
C1693 C21 0.672 . S
C1708 C108 0.677 . S
C1720 C50 0.676 . S
C1735 C195 0.666 . S
C1747 C137 0.666 . S
C1762 C224 0.812 . S
C1774 C166 0.812 . S
C1789 C369 0.806 . S
C1801 C253 0.802 . S
C1816 C282 0.687 . S
C1828 C398 0.691 . S
C1843 C311 0.767 . S
C1855 C427 0.769 . S
C1870 C456 0.812 . S
C1882 C340 0.812 . S
C1897 C572 0.791 . S
C1909 C485 0.788 . S
C1924 C514 0.699 . S
C1936 C630 0.697 . S
C1951 C543 0.804 . S
C1963 C659 0.801 . S
C1978 C601 0.819 . S
C1990 C688 0.818 . S
C2005 C245 1.023 . S
C2017 C15 1.018 . S
C2032 C44 0.930 . S
C2044 C274 0.913 . S
C2059 C73 0.939 . S
C2071 C303 0.853 . S
C2086 C332 1.019 . S
C2098 C102 1.002 . S
C2113 C131 0.939 . S
C2125 C361 0.853 . S
C2140 C160 0.956 . S
C2152 C390 0.970 . S
C2167 C419 1.022 . S
C2179 C189 1.009 . S
C2194 C218 0.959 . S
C2206 C448 0.974 . S
C2221 C477 0.871 . S
C2233 C247 0.926 . S
C2248 C680 0.941 . S
C2260 C276 1.015 . S
C2275 C622 0.978 . S
C2287 C305 0.962 . S
C2302 C651 0.858 . S
C2314 C334 0.958 . S
C2329 C363 0.982 . S
C2341 C506 1.002 . S
C2356 C392 1.013 . S
C2368 C535 0.936 . S
C2383 C421 0.933 . S
C2395 C564 0.856 . S
C2410 C450 0.950 . S
C2422 C593 0.959 . S
C2437 C479 1.002 . S
C2449 C13 0.914 . S
C2464 C129 0.999 . S
C2476 C508 0.978 . S
C2491 C158 0.948 . S
C2503 C537 0.945 . S
C2518 C566 0.982 . S
C2530 C187 1.003 . S
C2545 C595 0.990 . S
C2557 C216 1.010 . S
C2572 C624 0.959 . S
C2584 C71 0.974 . S
C2599 C653 1.020 . S
C2611 C100 1.021 . S
C2626 C682 0.935 . S
C2638 C42 0.855 . S
C2653 C271 1.396 . S
C2665 C10 1.408 . S
C2680 C300 1.325 . S
C2692 C39 1.342 . S
C2707 C68 1.333 . S
C2719 C329 1.333 . S
C2734 C97 1.314 . S
C2746 C242 1.384 . S
C2761 C445 1.393 . S
C2773 C126 1.410 . S
C2788 C358 1.409 . S
C2800 C155 1.396 . S
C2815 C184 1.320 . S
C2827 C387 1.350 . S
C2842 C213 1.324 . S
C2854 C416 1.404 . S
C2869 C532 1.421 . S
C2881 C474 1.366 . S
C2896 C503 1.317 . S
C2908 C648 1.394 . S
C2923 C561 1.329 . S
C2935 C677 1.409 . S
C2950 C590 1.344 . S
C2962 C619 1.324 . S
