# Generated by pormake.
# Topology ukf, (4)-cn, num edge types: 1
# Building blocks:
#     Node 0, Type 0, BuildingBlock: ESEHIV_clean_sbu_0, # of connection points: 4
#     Node 1, Type 0, BuildingBlock: ESEHIV_clean_sbu_0, # of connection points: 4
#     Node 2, Type 0, BuildingBlock: ESEHIV_clean_sbu_0, # of connection points: 4
#     Node 3, Type 0, BuildingBlock: ESEHIV_clean_sbu_0, # of connection points: 4
#     Node 4, Type 0, BuildingBlock: ESEHIV_clean_sbu_0, # of connection points: 4
#     Node 5, Type 0, BuildingBlock: ESEHIV_clean_sbu_0, # of connection points: 4
#     Node 6, Type 0, BuildingBlock: ESEHIV_clean_sbu_0, # of connection points: 4
#     Node 7, Type 0, BuildingBlock: ESEHIV_clean_sbu_0, # of connection points: 4
#     Node 8, Type 0, BuildingBlock: ESEHIV_clean_sbu_0, # of connection points: 4
#     Node 9, Type 0, BuildingBlock: ESEHIV_clean_sbu_0, # of connection points: 4
#     Node 10, Type 0, BuildingBlock: ESEHIV_clean_sbu_0, # of connection points: 4
#     Node 11, Type 0, BuildingBlock: ESEHIV_clean_sbu_0, # of connection points: 4
#     Edge 12, Type (0, 0), BuildingBlock: XIVTED_clean_linker_0, # of connection points: 2
#     Edge 13, Type (0, 0), BuildingBlock: XIVTED_clean_linker_0, # of connection points: 2
#     Edge 14, Type (0, 0), BuildingBlock: XIVTED_clean_linker_0, # of connection points: 2
#     Edge 15, Type (0, 0), BuildingBlock: XIVTED_clean_linker_0, # of connection points: 2
#     Edge 16, Type (0, 0), BuildingBlock: XIVTED_clean_linker_0, # of connection points: 2
#     Edge 17, Type (0, 0), BuildingBlock: XIVTED_clean_linker_0, # of connection points: 2
#     Edge 18, Type (0, 0), BuildingBlock: XIVTED_clean_linker_0, # of connection points: 2
#     Edge 19, Type (0, 0), BuildingBlock: XIVTED_clean_linker_0, # of connection points: 2
#     Edge 20, Type (0, 0), BuildingBlock: XIVTED_clean_linker_0, # of connection points: 2
#     Edge 21, Type (0, 0), BuildingBlock: XIVTED_clean_linker_0, # of connection points: 2
#     Edge 22, Type (0, 0), BuildingBlock: XIVTED_clean_linker_0, # of connection points: 2
#     Edge 23, Type (0, 0), BuildingBlock: XIVTED_clean_linker_0, # of connection points: 2
#     Edge 24, Type (0, 0), BuildingBlock: XIVTED_clean_linker_0, # of connection points: 2
#     Edge 25, Type (0, 0), BuildingBlock: XIVTED_clean_linker_0, # of connection points: 2
#     Edge 26, Type (0, 0), BuildingBlock: XIVTED_clean_linker_0, # of connection points: 2
#     Edge 27, Type (0, 0), BuildingBlock: XIVTED_clean_linker_0, # of connection points: 2
#     Edge 28, Type (0, 0), BuildingBlock: XIVTED_clean_linker_0, # of connection points: 2
#     Edge 29, Type (0, 0), BuildingBlock: XIVTED_clean_linker_0, # of connection points: 2
#     Edge 30, Type (0, 0), BuildingBlock: XIVTED_clean_linker_0, # of connection points: 2
#     Edge 31, Type (0, 0), BuildingBlock: XIVTED_clean_linker_0, # of connection points: 2
#     Edge 32, Type (0, 0), BuildingBlock: XIVTED_clean_linker_0, # of connection points: 2
#     Edge 33, Type (0, 0), BuildingBlock: XIVTED_clean_linker_0, # of connection points: 2
#     Edge 34, Type (0, 0), BuildingBlock: XIVTED_clean_linker_0, # of connection points: 2
#     Edge 35, Type (0, 0), BuildingBlock: XIVTED_clean_linker_0, # of connection points: 2
# Relax obj value: 0.089
# Max RMSD: 0.293
# Mean RMSD: 0.292
data_MOF--net-ukf--node1-ESEHIV_clean_sbu_0--edge1-XIVTED_clean_linker_0
_symmetry_space_group_name_H-M    P1
_symmetry_Int_Tables_number       1
_symmetry_cell_setting            triclinic
loop_
_symmetry_equiv_pos_as_xyz
'x, y, z'
_cell_length_a     36.758996
_cell_length_b     36.729948
_cell_length_c     71.002929
_cell_angle_alpha  89.85399
_cell_angle_beta   89.725486
_cell_angle_gamma 119.95645
loop_
_atom_site_label
_atom_site_type_symbol
_atom_site_fract_x
_atom_site_fract_y
_atom_site_fract_z
_atom_type_partial_charge
Cu0 Cu 0.46704 0.25629 0.07459 0.0
N1 N 0.41864 0.20675 0.06802 0.0
N2 N 0.37647 0.14423 0.05507 0.0
C3 C 0.41505 0.17882 0.05486 0.0
C4 C 0.35503 0.15082 0.06886 0.0
C5 C 0.38113 0.18943 0.0768 0.0
O6 O 0.51368 0.25374 0.06304 0.0
C7 C 0.50131 0.27776 0.11206 0.0
O8 O 0.53706 0.30528 0.10418 0.0
H9 H 0.44071 0.18312 0.04581 0.0
H10 H 0.3737 0.2035 0.08848 0.0
N11 N 0.46318 0.30195 0.06533 0.0
N12 N 0.47446 0.36667 0.05945 0.0
C13 C 0.48344 0.34254 0.07078 0.0
C14 C 0.44038 0.30036 0.05028 0.0
C15 C 0.44725 0.34009 0.04661 0.0
C16 C 0.54676 0.28498 0.05637 0.0
O17 O 0.55237 0.32301 0.0582 0.0
H18 H 0.50554 0.35438 0.08228 0.0
H19 H 0.42076 0.27227 0.0423 0.0
O20 O 0.46942 0.25598 0.10183 0.0
H21 H 0.32287 0.1292 0.07297 0.0
H22 H 0.43349 0.34879 0.03526 0.0
Cu23 Cu 0.23401 0.46822 0.41199 0.0
N24 N 0.1812 0.45821 0.40459 0.0
N25 N 0.12468 0.46545 0.40113 0.0
C26 C 0.16414 0.48262 0.40793 0.0
C27 C 0.11682 0.42885 0.3932 0.0
C28 C 0.15172 0.42451 0.39535 0.0
O29 O 0.23941 0.48016 0.43883 0.0
C30 C 0.31392 0.52158 0.39553 0.0
O31 O 0.32444 0.49672 0.40431 0.0
H32 H 0.18016 0.51197 0.41551 0.0
H33 H 0.15533 0.39853 0.39059 0.0
N34 N 0.23788 0.42011 0.40743 0.0
N35 N 0.255 0.37555 0.3941 0.0
C36 C 0.25401 0.41165 0.39208 0.0
C37 C 0.22756 0.38794 0.41941 0.0
C38 C 0.23821 0.36049 0.41127 0.0
C39 C 0.26719 0.47908 0.44907 0.0
O40 O 0.29482 0.47097 0.44127 0.0
H41 H 0.26636 0.43248 0.38001 0.0
H42 H 0.21413 0.38521 0.43329 0.0
O43 O 0.27679 0.51538 0.39744 0.0
H44 H 0.0881 0.40695 0.38615 0.0
H45 H 0.23419 0.33185 0.41759 0.0
Cu46 Cu 0.78551 0.22436 0.74233 0.0
N47 N 0.83603 0.22535 0.73731 0.0
N48 N 0.89786 0.24056 0.72462 0.0
C49 C 0.86571 0.24848 0.72437 0.0
C50 C 0.88781 0.21108 0.73814 0.0
C51 C 0.8497 0.2018 0.74593 0.0
O52 O 0.78351 0.26852 0.72798 0.0
C53 C 0.8116 0.2536 0.77946 0.0
O54 O 0.84889 0.27465 0.77155 0.0
H55 H 0.86348 0.27014 0.71473 0.0
H56 H 0.83306 0.1795 0.75713 0.0
N57 N 0.74167 0.17264 0.73433 0.0
N58 N 0.67802 0.11713 0.72942 0.0
C59 C 0.70059 0.15326 0.73908 0.0
C60 C 0.74517 0.14789 0.72138 0.0
C61 C 0.70606 0.11372 0.71831 0.0
C62 C 0.81327 0.30651 0.72811 0.0
O63 O 0.84582 0.31706 0.73896 0.0
H64 H 0.68738 0.16603 0.74895 0.0
H65 H 0.77416 0.15465 0.71444 0.0
O66 O 0.77995 0.23043 0.76928 0.0
H67 H 0.90691 0.19763 0.74229 0.0
H68 H 0.6988 0.08836 0.70859 0.0
Cu69 Cu 0.59175 0.78397 0.07709 0.0
N70 N 0.64068 0.83538 0.07322 0.0
N71 N 0.68503 0.89842 0.06083 0.0
C72 C 0.64831 0.86213 0.05878 0.0
C73 C 0.70109 0.89417 0.07722 0.0
C74 C 0.67366 0.85522 0.08482 0.0
O75 O 0.54764 0.78725 0.0638 0.0
C76 C 0.57368 0.80055 0.11355 0.0
O77 O 0.57343 0.83221 0.10502 0.0
H78 H 0.62655 0.85563 0.04735 0.0
H79 H 0.67698 0.8426 0.09806 0.0
N80 N 0.59832 0.74066 0.06705 0.0
N81 N 0.58933 0.67697 0.06093 0.0
C82 C 0.57873 0.69983 0.07225 0.0
C83 C 0.62225 0.7438 0.05207 0.0
C84 C 0.61677 0.70464 0.04825 0.0
C85 C 0.51097 0.75638 0.06117 0.0
O86 O 0.50056 0.71954 0.0685 0.0
H87 H 0.55612 0.68695 0.08368 0.0
H88 H 0.64177 0.77252 0.04429 0.0
O89 O 0.58007 0.77515 0.10387 0.0
H90 H 0.73045 0.91756 0.08333 0.0
H91 H 0.63173 0.69712 0.03694 0.0
Cu92 Cu 0.82196 0.58298 0.4096 0.0
N93 N 0.875 0.59085 0.40369 0.0
N94 N 0.93086 0.58211 0.40114 0.0
C95 C 0.89074 0.56536 0.40733 0.0
C96 C 0.94042 0.61938 0.39328 0.0
C97 C 0.906 0.62461 0.39485 0.0
O98 O 0.81156 0.57375 0.43645 0.0
C99 C 0.74121 0.52725 0.39625 0.0
O100 O 0.73078 0.54901 0.40747 0.0
H101 H 0.87334 0.53549 0.41457 0.0
H102 H 0.90367 0.65121 0.38986 0.0
N103 N 0.82115 0.63202 0.40338 0.0
N104 N 0.80637 0.67805 0.38979 0.0
C105 C 0.79875 0.63803 0.38999 0.0
C106 C 0.84362 0.66938 0.4119 0.0
C107 C 0.83469 0.69785 0.40354 0.0
C108 C 0.8008 0.53902 0.44471 0.0
O109 O 0.79619 0.50687 0.43477 0.0
H110 H 0.77765 0.61372 0.38049 0.0
H111 H 0.86493 0.67536 0.42346 0.0
O112 O 0.77937 0.53625 0.39537 0.0
H113 H 0.96999 0.64112 0.38658 0.0
H114 H 0.84745 0.73039 0.40752 0.0
Cu115 Cu 0.25882 0.81685 0.7427 0.0
N116 N 0.20938 0.8163 0.73648 0.0
N117 N 0.14792 0.79839 0.72303 0.0
C118 C 0.18262 0.79459 0.72253 0.0
C119 C 0.15323 0.82359 0.73781 0.0
C120 C 0.19121 0.83461 0.74606 0.0
O121 O 0.25617 0.76818 0.73071 0.0
C122 C 0.28073 0.80218 0.77984 0.0
O123 O 0.30794 0.79402 0.77163 0.0
H124 H 0.18783 0.77521 0.71267 0.0
H125 H 0.2043 0.85385 0.75843 0.0
N126 N 0.30426 0.86645 0.73337 0.0
N127 N 0.36866 0.9203 0.72751 0.0
C128 C 0.34461 0.88748 0.73906 0.0
C129 C 0.30276 0.88689 0.71793 0.0
C130 C 0.34231 0.92001 0.71426 0.0
C131 C 0.2878 0.76579 0.72508 0.0
O132 O 0.32581 0.79703 0.72832 0.0
H133 H 0.35638 0.8779 0.7509 0.0
H134 H 0.27487 0.87767 0.70966 0.0
O135 O 0.25902 0.81307 0.76991 0.0
H136 H 0.1312 0.83324 0.74239 0.0
H137 H 0.35109 0.94196 0.70262 0.0
Cu138 Cu 0.7873 0.56937 0.62162 0.0
N139 N 0.74636 0.57952 0.63172 0.0
N140 N 0.68403 0.57301 0.63863 0.0
C141 C 0.70528 0.56033 0.62736 0.0
C142 C 0.71293 0.60131 0.65043 0.0
C143 C 0.75133 0.6053 0.64611 0.0
O144 O 0.77869 0.56012 0.59468 0.0
C145 C 0.81591 0.5163 0.6364 0.0
O146 O 0.85098 0.54199 0.62751 0.0
H147 H 0.69103 0.53642 0.61664 0.0
H148 H 0.78069 0.62487 0.65324 0.0
N149 N 0.84008 0.61678 0.62494 0.0
N150 N 0.90278 0.66238 0.63676 0.0
C151 C 0.86489 0.62815 0.64024 0.0
C152 C 0.86276 0.64497 0.61147 0.0
C153 C 0.90144 0.67309 0.61869 0.0
C154 C 0.77641 0.52897 0.58584 0.0
O155 O 0.77766 0.49879 0.59525 0.0
H156 H 0.85602 0.61057 0.65334 0.0
H157 H 0.85221 0.64439 0.59722 0.0
O158 O 0.78447 0.52178 0.635 0.0
H159 H 0.7067 0.61773 0.6615 0.0
H160 H 0.92677 0.69913 0.61115 0.0
Cu161 Cu 0.24159 0.77563 0.95741 0.0
N162 N 0.24946 0.82965 0.96059 0.0
N163 N 0.2696 0.89352 0.97207 0.0
C164 C 0.26452 0.85507 0.97568 0.0
C165 C 0.25694 0.892 0.95415 0.0
C166 C 0.24456 0.85267 0.94714 0.0
O167 O 0.28101 0.76867 0.97284 0.0
C168 C 0.22225 0.76281 0.91899 0.0
O169 O 0.18649 0.75858 0.92504 0.0
H170 H 0.27315 0.84613 0.98873 0.0
H171 H 0.23375 0.84202 0.93301 0.0
N172 N 0.18753 0.73538 0.96505 0.0
N173 N 0.12999 0.67328 0.97039 0.0
C174 C 0.16709 0.694 0.96111 0.0
C175 C 0.16253 0.74108 0.97712 0.0
C176 C 0.12702 0.7028 0.98048 0.0
C177 C 0.31988 0.79586 0.97324 0.0
O178 O 0.33428 0.82953 0.96252 0.0
H179 H 0.17991 0.67918 0.95222 0.0
H180 H 0.17016 0.77084 0.9834 0.0
O181 O 0.25044 0.76893 0.93093 0.0
H182 H 0.25692 0.91761 0.94658 0.0
H183 H 0.10122 0.69706 0.98976 0.0
Cu184 Cu 0.47951 0.23975 0.2899 0.0
N185 N 0.43211 0.24539 0.29354 0.0
N186 N 0.38668 0.26218 0.30628 0.0
C187 C 0.4212 0.25874 0.30911 0.0
C188 C 0.37532 0.25012 0.28831 0.0
C189 C 0.40334 0.23982 0.28052 0.0
O190 O 0.52517 0.2813 0.30501 0.0
C191 C 0.4731 0.22033 0.2514 0.0
O192 O 0.44161 0.18443 0.25738 0.0
H193 H 0.43923 0.26733 0.32197 0.0
H194 H 0.40323 0.22986 0.2662 0.0
N195 N 0.46737 0.18628 0.29776 0.0
N196 N 0.47167 0.12849 0.30289 0.0
C197 C 0.48802 0.16557 0.29357 0.0
C198 C 0.43691 0.16144 0.31001 0.0
C199 C 0.43952 0.12584 0.31323 0.0
C200 C 0.53261 0.31899 0.30582 0.0
O201 O 0.51006 0.33023 0.29563 0.0
H202 H 0.51524 0.17804 0.28437 0.0
H203 H 0.41483 0.16911 0.3164 0.0
O204 O 0.49479 0.24856 0.26336 0.0
H205 H 0.34882 0.24907 0.28123 0.0
H206 H 0.41941 0.10006 0.32253 0.0
Cu207 Cu 0.27087 0.46879 0.62738 0.0
N208 N 0.31269 0.4583 0.63579 0.0
N209 N 0.3756 0.46473 0.64072 0.0
C210 C 0.35344 0.47808 0.63057 0.0
C211 C 0.34763 0.43537 0.6527 0.0
C212 C 0.30887 0.43144 0.64959 0.0
O213 O 0.27833 0.48014 0.60046 0.0
C214 C 0.24842 0.52716 0.64253 0.0
O215 O 0.21273 0.50495 0.63367 0.0
H216 H 0.36682 0.50284 0.62006 0.0
H217 H 0.28004 0.41112 0.65715 0.0
N218 N 0.21873 0.42099 0.63201 0.0
N219 N 0.15667 0.3751 0.64476 0.0
C220 C 0.19053 0.41411 0.64576 0.0
C221 C 0.20228 0.38517 0.62208 0.0
C222 C 0.16405 0.3568 0.6299 0.0
C223 C 0.24907 0.47781 0.59012 0.0
O224 O 0.21297 0.46866 0.59789 0.0
H225 H 0.19506 0.43691 0.65645 0.0
H226 H 0.21719 0.38013 0.60998 0.0
O227 O 0.27669 0.51694 0.64123 0.0
H228 H 0.35475 0.4182 0.66305 0.0
H229 H 0.14305 0.32536 0.62487 0.0
Cu230 Cu 0.82247 0.26111 0.95723 0.0
N231 N 0.81586 0.20772 0.9611 0.0
N232 N 0.79853 0.14498 0.97344 0.0
C233 C 0.80187 0.18286 0.97654 0.0
C234 C 0.8115 0.14647 0.95549 0.0
C235 C 0.82222 0.18514 0.94797 0.0
O236 O 0.78 0.26759 0.97081 0.0
C237 C 0.78851 0.24542 0.92052 0.0
O238 O 0.75557 0.21458 0.92892 0.0
H239 H 0.79281 0.19178 0.98949 0.0
H240 H 0.83317 0.19585 0.93376 0.0
N241 N 0.87457 0.30182 0.96626 0.0
N242 N 0.931 0.36441 0.97177 0.0
C243 C 0.89693 0.3424 0.96085 0.0
C244 C 0.89524 0.29794 0.98101 0.0
C245 C 0.93006 0.33653 0.98446 0.0
C246 C 0.74299 0.23792 0.97444 0.0
O247 O 0.73087 0.19995 0.9682 0.0
H248 H 0.88731 0.35591 0.94971 0.0
H249 H 0.88494 0.26932 0.98904 0.0
O250 O 0.82032 0.26982 0.93033 0.0
H251 H 0.81296 0.12133 0.94825 0.0
H252 H 0.95257 0.34367 0.99562 0.0
Cu253 Cu 0.5775 0.81874 0.29226 0.0
N254 N 0.62705 0.81804 0.29731 0.0
N255 N 0.67375 0.80328 0.31003 0.0
C256 C 0.63373 0.79549 0.31044 0.0
C257 C 0.69298 0.83208 0.29622 0.0
C258 C 0.66411 0.8411 0.28842 0.0
O259 O 0.53053 0.77287 0.3056 0.0
C260 C 0.5765 0.79218 0.25484 0.0
O261 O 0.59115 0.76975 0.26269 0.0
H262 H 0.60992 0.77428 0.32027 0.0
H263 H 0.66961 0.86281 0.27698 0.0
N264 N 0.58377 0.86907 0.30145 0.0
N265 N 0.57508 0.92411 0.30704 0.0
C266 C 0.56477 0.89059 0.29588 0.0
C267 C 0.60695 0.88979 0.31647 0.0
C268 C 0.60163 0.92366 0.31997 0.0
C269 C 0.52349 0.73526 0.3054 0.0
O270 O 0.5476 0.72606 0.29515 0.0
H271 H 0.54276 0.88103 0.28435 0.0
H272 H 0.62576 0.88031 0.32454 0.0
O273 O 0.56804 0.81533 0.26517 0.0
H274 H 0.7254 0.8452 0.29184 0.0
H275 H 0.61599 0.94611 0.33125 0.0
H276 H 0.31604 0.97525 0.96169 0.0
H277 H 0.3193 0.06378 0.06455 0.0
H278 H 0.26301 0.89434 1.01019 0.0
H279 H 0.40023 0.14027 0.01927 0.0
H280 H 0.29429 1.00167 0.04456 0.0
H281 H 0.34326 0.03642 0.98223 0.0
C282 C 0.31 0.97038 0.97668 0.0
C283 C 0.28699 0.92963 0.98423 0.0
C284 C 0.31762 0.03203 0.03903 0.0
C285 C 0.31817 0.99964 1.00789 0.0
C286 C 0.33167 0.06753 0.05037 0.0
C287 C 0.36181 0.10731 0.04354 0.0
C288 C 0.3334 0.03638 0.02061 0.0
C289 C 0.37723 0.11021 0.02515 0.0
C290 C 0.3258 1.00531 0.98842 0.0
C291 C 0.28076 0.92519 1.00381 0.0
N292 N 0.36266 0.0753 1.01429 0.0
N293 N 0.29598 0.95979 1.01497 0.0
H294 H 0.26198 0.38502 0.35607 0.0
H295 H 0.38668 0.2591 0.34455 0.0
H296 H 0.28945 0.32707 0.4026 0.0
H297 H 0.34281 0.30144 0.29771 0.0
H298 H 0.35413 0.28647 0.3662 0.0
H299 H 0.29421 0.35722 0.33457 0.0
C300 C 0.27486 0.36654 0.36178 0.0
C301 C 0.27292 0.35838 0.38119 0.0
C302 C 0.35154 0.28966 0.35118 0.0
C303 C 0.30985 0.32627 0.35662 0.0
C304 C 0.37033 0.27424 0.33881 0.0
C305 C 0.36741 0.27783 0.31926 0.0
C306 C 0.32993 0.30914 0.34395 0.0
C307 C 0.3454 0.2974 0.31263 0.0
C308 C 0.29308 0.35047 0.34948 0.0
C309 C 0.28972 0.33374 0.38774 0.0
N310 N 0.32766 0.31239 0.32494 0.0
N311 N 0.3076 0.31872 0.37551 0.0
H312 H 0.94368 0.20543 0.71296 0.0
H313 H 0.12166 0.41519 0.66297 0.0
H314 H 0.93773 0.31963 0.70997 0.0
H315 H 0.10793 0.29285 0.65408 0.0
H316 H 0.05825 0.38265 0.68276 0.0
H317 H 1.00776 0.2388 0.6938 0.0
C318 C 0.95596 0.23759 0.70833 0.0
C319 C 0.9353 0.25975 0.71307 0.0
C320 C 0.06914 0.36296 0.67646 0.0
C321 C 1.00872 0.29823 0.69111 0.0
C322 C 0.10547 0.38155 0.66529 0.0
C323 C 0.12005 0.35667 0.65683 0.0
C324 C 0.04751 0.31925 0.67939 0.0
C325 C 0.09755 0.31314 0.66013 0.0
C326 C 0.99241 0.25656 0.6973 0.0
C327 C 0.95238 0.30124 0.70647 0.0
N328 N 0.06254 0.29586 0.67119 0.0
N329 N 0.98821 0.31922 0.69591 0.0
H330 H 0.73582 0.98034 0.07029 0.0
H331 H 0.75817 0.0625 0.96403 0.0
H332 H 0.67375 0.89942 0.02313 0.0
H333 H 0.80097 0.14574 1.01175 0.0
H334 H 0.73107 1.00245 0.98545 0.0
H335 H 0.76403 0.04122 0.04909 0.0
C336 C 0.72832 0.97532 0.05547 0.0
C337 C 0.70234 0.93463 0.04849 0.0
C338 C 0.74637 0.03382 0.99127 0.0
C339 C 0.73437 1.00426 0.02415 0.0
C340 C 0.76215 0.0682 0.97902 0.0
C341 C 0.78211 0.10933 0.98608 0.0
C342 C 0.75075 0.04039 1.0108 0.0
C343 C 0.78557 0.11463 1.0057 0.0
C344 C 0.7442 1.01014 0.04339 0.0
C345 C 0.69322 0.93016 0.02917 0.0
N346 N 0.77022 0.08057 0.01738 0.0
N347 N 0.70931 0.96447 0.01769 0.0
H348 H 0.6344 0.72544 0.32601 0.0
H349 H 0.8415 0.759 0.37806 0.0
H350 H 0.75516 0.83809 0.32062 0.0
H351 H 0.72867 0.63822 0.37416 0.0
H352 H 0.80883 0.78955 0.3586 0.0
H353 H 0.66666 0.69403 0.34537 0.0
C354 C 0.66763 0.74366 0.32899 0.0
C355 C 0.69212 0.78449 0.32167 0.0
C356 C 0.79121 0.75633 0.36195 0.0
C357 C 0.72928 0.74867 0.34374 0.0
C358 C 0.80978 0.73892 0.37315 0.0
C359 C 0.78777 0.69599 0.37779 0.0
C360 C 0.75008 0.73079 0.35543 0.0
C361 C 0.74692 0.67135 0.37078 0.0
C362 C 0.68609 0.7256 0.33992 0.0
C363 C 0.73517 0.80641 0.32578 0.0
N364 N 0.7293 0.68914 0.36004 0.0
N365 N 0.75231 0.78831 0.33657 0.0
H366 H 0.98518 0.70145 0.62701 0.0
H367 H 0.06682 0.77344 0.73188 0.0
H368 H 0.90168 0.66732 0.67491 0.0
H369 H 0.14685 0.77745 0.68635 0.0
H370 H 1.00631 0.73964 0.71089 0.0
H371 H 0.04516 0.73457 0.64818 0.0
C372 C 0.97946 0.70115 0.64199 0.0
C373 C 0.93833 0.68174 0.6492 0.0
C374 C 0.0371 0.74785 0.70551 0.0
C375 C 1.00696 0.71949 0.67358 0.0
C376 C 0.07169 0.76741 0.71744 0.0
C377 C 0.11198 0.77837 0.71084 0.0
C378 C 0.04286 0.7396 0.68676 0.0
C379 C 0.11634 0.76922 0.69206 0.0
C380 C 1.01373 0.7198 0.65409 0.0
C381 C 0.93284 0.68168 0.66878 0.0
N382 N 0.08226 0.75058 0.68066 0.0
N383 N 0.96677 0.70048 0.68029 0.0
H384 H 0.75575 0.3133 0.98796 0.0
H385 H 0.54046 0.20985 0.04686 0.0
H386 H 0.66546 0.18049 0.98834 0.0
H387 H 0.62155 0.34385 0.04039 0.0
H388 H 0.58835 0.19857 0.02708 0.0
H389 H 0.70905 0.32514 1.00845 0.0
C390 C 0.72608 0.28662 0.99231 0.0
C391 C 0.71451 0.24581 0.98639 0.0
C392 C 0.59574 0.23046 0.03 0.0
C393 C 0.661 0.25918 1.00997 0.0
C394 C 0.56847 0.23696 0.04138 0.0
C395 C 0.57693 0.27791 0.0453 0.0
C396 C 0.63191 0.26511 0.02249 0.0
C397 C 0.61371 0.31174 0.03773 0.0
C398 C 0.69943 0.29343 1.00402 0.0
C399 C 0.67567 0.21249 0.9925 0.0
N400 N 0.63982 0.30459 0.02668 0.0
N401 N 0.6504 0.21991 1.00398 0.0
H402 H 0.30883 0.58662 0.37892 0.0
H403 H 0.51234 0.65801 0.31445 0.0
H404 H 0.3877 0.53067 0.38212 0.0
H405 H 0.46063 0.73893 0.3249 0.0
H406 H 0.46084 0.60635 0.33628 0.0
H407 H 0.35884 0.63876 0.35647 0.0
C408 C 0.33665 0.58534 0.37494 0.0
C409 C 0.34415 0.55429 0.38245 0.0
C410 C 0.46071 0.63538 0.33379 0.0
C411 C 0.40101 0.61336 0.35666 0.0
C412 C 0.48997 0.66482 0.32124 0.0
C413 C 0.49087 0.70292 0.31786 0.0
C414 C 0.43174 0.64378 0.34291 0.0
C415 C 0.46115 0.71003 0.32714 0.0
C416 C 0.36515 0.6151 0.36216 0.0
C417 C 0.3807 0.55412 0.37679 0.0
N418 N 0.4327 0.68068 0.33922 0.0
N419 N 0.40759 0.583 0.36417 0.0
H420 H 0.879 0.38356 0.71847 0.0
H421 H 0.74635 0.44988 0.65256 0.0
H422 H 0.74729 0.30053 0.70763 0.0
H423 H 0.88135 0.50819 0.64947 0.0
H424 H 0.74486 0.39825 0.67496 0.0
H425 H 0.87918 0.43367 0.69575 0.0
C426 C 0.85002 0.37595 0.7114 0.0
C427 C 0.81305 0.33776 0.71497 0.0
C428 C 0.77474 0.42224 0.66928 0.0
C429 C 0.8131 0.3951 0.6889 0.0
C430 C 0.77564 0.45173 0.65652 0.0
C431 C 0.81404 0.48339 0.64911 0.0
C432 C 0.81255 0.42484 0.67489 0.0
C433 C 0.85102 0.48426 0.65475 0.0
C434 C 0.85023 0.40449 0.69834 0.0
C435 C 0.77651 0.32955 0.70528 0.0
N436 N 0.84937 0.45563 0.66739 0.0
N437 N 0.77741 0.35807 0.69273 0.0
H438 H 0.40298 0.85081 0.98007 0.0
H439 H 0.42934 0.69828 0.05267 0.0
H440 H 0.30145 0.72809 0.99587 0.0
H441 H 0.52534 0.8267 0.04165 0.0
H442 H 0.38239 0.70758 0.03137 0.0
H443 H 0.4489 0.84136 1.00183 0.0
C444 C 0.39034 0.82182 0.98808 0.0
C445 C 0.34827 0.7902 0.98612 0.0
C446 C 0.41369 0.73374 0.03367 0.0
C447 C 0.40075 0.77916 1.01112 0.0
C448 C 0.44051 0.72846 0.04584 0.0
C449 C 0.48137 0.76173 0.04897 0.0
C450 C 0.4279 0.77251 0.02448 0.0
C451 C 0.49412 0.80013 0.0397 0.0
C452 C 0.41657 0.81648 1.00055 0.0
C453 C 0.33365 0.75333 0.99692 0.0
N454 N 0.46756 0.8044 0.02786 0.0
N455 N 0.35986 0.74881 1.00893 0.0
H456 H 0.59559 0.31313 0.32364 0.0
H457 H 0.66394 0.51555 0.38726 0.0
H458 H 0.54156 0.39337 0.31818 0.0
H459 H 0.74656 0.46598 0.37647 0.0
H460 H 0.61331 0.46447 0.36527 0.0
H461 H 0.64644 0.36301 0.34611 0.0
C462 C 0.59445 0.34123 0.32715 0.0
C463 C 0.56437 0.34918 0.31898 0.0
C464 C 0.64251 0.46476 0.36774 0.0
C465 C 0.62194 0.40589 0.34481 0.0
C466 C 0.67132 0.49373 0.38037 0.0
C467 C 0.70958 0.49508 0.38368 0.0
C468 C 0.65169 0.43648 0.35854 0.0
C469 C 0.71752 0.46614 0.37427 0.0
C470 C 0.6235 0.36967 0.33992 0.0
C471 C 0.56434 0.38609 0.32403 0.0
N472 N 0.68874 0.43789 0.36216 0.0
N473 N 0.59248 0.41292 0.3367 0.0
H474 H 0.3206 0.58397 0.66039 0.0
H475 H 0.21382 0.70085 0.71207 0.0
H476 H 0.1914 0.55118 0.65249 0.0
H477 H 0.34741 0.74758 0.71215 0.0
H478 H 0.2043 0.64274 0.69213 0.0
H479 H 0.33036 0.64135 0.68099 0.0
C480 C 0.29428 0.58885 0.66296 0.0
C481 C 0.2551 0.56271 0.65466 0.0
C482 C 0.2357 0.66566 0.69653 0.0
C483 C 0.26605 0.62825 0.67836 0.0
C484 C 0.24118 0.6988 0.70799 0.0
C485 C 0.28153 0.72925 0.71379 0.0
C486 C 0.27077 0.66268 0.69086 0.0
C487 C 0.31575 0.72492 0.708 0.0
C488 C 0.2999 0.62165 0.67472 0.0
C489 C 0.22217 0.57058 0.65851 0.0
N490 N 0.30959 0.69227 0.69686 0.0
N491 N 0.22836 0.60254 0.67012 0.0
H492 H 0.43531 0.21574 0.13168 0.0
H493 H 0.53646 0.29013 0.23361 0.0
H494 H 0.55973 0.3218 0.13949 0.0
H495 H 0.42625 0.17039 0.22244 0.0
H496 H 0.54483 0.30483 0.19965 0.0
H497 H 0.43025 0.20174 0.16537 0.0
C498 C 0.46161 0.23624 0.14048 0.0
C499 C 0.49805 0.27006 0.13268 0.0
C500 C 0.51899 0.27528 0.20467 0.0
C501 C 0.49238 0.25402 0.17151 0.0
C502 C 0.51417 0.26684 0.22404 0.0
C503 C 0.48052 0.22898 0.23091 0.0
C504 C 0.48973 0.24581 0.19212 0.0
C505 C 0.45264 0.2 0.21784 0.0
C506 C 0.45874 0.22807 0.15976 0.0
C507 C 0.53107 0.29537 0.14488 0.0
N508 N 0.45774 0.20913 0.19914 0.0
N509 N 0.52742 0.28691 0.16371 0.0
H510 H 0.20978 0.48806 0.47044 0.0
H511 H 0.31619 0.48837 0.56879 0.0
H512 H 0.32314 0.48092 0.47496 0.0
H513 H 0.19454 0.47855 0.56418 0.0
H514 H 0.32273 0.49272 0.53445 0.0
H515 H 0.20726 0.49172 0.50475 0.0
C516 C 0.2343 0.48752 0.47862 0.0
C517 C 0.26661 0.48395 0.46977 0.0
C518 C 0.29468 0.48977 0.54096 0.0
C519 C 0.26385 0.48806 0.50913 0.0
C520 C 0.29095 0.48737 0.56058 0.0
C521 C 0.25464 0.48287 0.5694 0.0
C522 C 0.26195 0.48781 0.53005 0.0
C523 C 0.223 0.48179 0.55801 0.0
C524 C 0.23278 0.48951 0.49823 0.0
C525 C 0.29752 0.48344 0.48115 0.0
N526 N 0.22735 0.48414 0.53894 0.0
N527 N 0.29531 0.48535 0.50021 0.0
H528 H 0.72583 0.19926 0.89543 0.0
H529 H 0.87202 0.30334 0.80468 0.0
H530 H 0.85419 0.30068 0.89811 0.0
H531 H 0.74112 0.20826 0.80146 0.0
H532 H 0.86532 0.30406 0.83885 0.0
H533 H 0.73 0.20344 0.86107 0.0
C534 C 0.75484 0.22259 0.88881 0.0
C535 C 0.78978 0.24955 0.89971 0.0
C536 C 0.83798 0.28315 0.83069 0.0
C537 C 0.79481 0.25434 0.86029 0.0
C538 C 0.84178 0.28268 0.81114 0.0
C539 C 0.80711 0.25555 0.80014 0.0
C540 C 0.79926 0.25614 0.83942 0.0
C541 C 0.7687 0.22965 0.80936 0.0
C542 C 0.75718 0.22495 0.86916 0.0
C543 C 0.82648 0.2792 0.89031 0.0
N544 N 0.76587 0.23042 0.82846 0.0
N545 N 0.82809 0.28063 0.87116 0.0
H546 H 0.57803 0.74197 0.13595 0.0
H547 H 0.55553 0.84079 0.23292 0.0
H548 H 0.56004 0.84936 0.13859 0.0
H549 H 0.58671 0.7422 0.22943 0.0
H550 H 0.55113 0.84083 0.19849 0.0
H551 H 0.57517 0.7379 0.1703 0.0
C552 C 0.57325 0.76458 0.14373 0.0
C553 C 0.56948 0.79619 0.13433 0.0
C554 C 0.5588 0.81911 0.20529 0.0
C555 C 0.56628 0.79177 0.17377 0.0
C556 C 0.56124 0.81902 0.22495 0.0
C557 C 0.5717 0.79158 0.2341 0.0
C558 C 0.56671 0.79146 0.19471 0.0
C559 C 0.57876 0.76406 0.22302 0.0
C560 C 0.57169 0.76228 0.16338 0.0
C561 C 0.56326 0.82455 0.14521 0.0
N562 N 0.57621 0.76477 0.20395 0.0
N563 N 0.56199 0.82175 0.16434 0.0
H564 H 0.77957 0.58924 0.56202 0.0
H565 H 0.78299 0.47164 0.46763 0.0
H566 H 0.77192 0.46806 0.56198 0.0
H567 H 0.80342 0.59801 0.46901 0.0
H568 H 0.77377 0.46729 0.50191 0.0
H569 H 0.78278 0.59028 0.52769 0.0
C570 C 0.77829 0.56269 0.5548 0.0
C571 C 0.77563 0.52857 0.56495 0.0
C572 C 0.78019 0.49593 0.49469 0.0
C573 C 0.77949 0.52967 0.5255 0.0
C574 C 0.78544 0.49843 0.47511 0.0
C575 C 0.79416 0.53531 0.4654 0.0
C576 C 0.78355 0.53049 0.50464 0.0
C577 C 0.79691 0.56899 0.47587 0.0
C578 C 0.78025 0.56337 0.53516 0.0
C579 C 0.7741 0.49509 0.55477 0.0
N580 N 0.79167 0.56577 0.49487 0.0
N581 N 0.77617 0.49653 0.53561 0.0
H582 H 0.29229 0.77049 0.90095 0.0
H583 H 0.2192 0.80569 0.80002 0.0
H584 H 0.1724 0.76114 0.89027 0.0
H585 H 0.32439 0.7853 0.80668 0.0
H586 H 0.20498 0.79415 0.83365 0.0
H587 H 0.30738 0.77939 0.867 0.0
C588 C 0.26904 0.77003 0.89148 0.0
C589 C 0.23103 0.76515 0.8985 0.0
C590 C 0.23117 0.79212 0.8278 0.0
C591 C 0.24832 0.77577 0.85974 0.0
C592 C 0.23947 0.79892 0.80856 0.0
C593 C 0.27308 0.79645 0.80045 0.0
C594 C 0.25679 0.78307 0.8392 0.0
C595 C 0.29812 0.78744 0.81231 0.0
C596 C 0.2777 0.77513 0.87213 0.0
C597 C 0.20211 0.76482 0.88557 0.0
N598 N 0.28954 0.78119 0.83112 0.0
N599 N 0.21147 0.77033 0.86689 0.0
H600 H 0.56221 0.62509 0.09156 0.0
H601 H 0.48912 0.41855 0.0297 0.0
H602 H 0.57906 0.62624 0.03137 0.0
H603 H 0.50026 0.41777 0.09011 0.0
H604 H 0.5172 0.49424 0.03046 0.0
H605 H 0.53467 0.54882 0.09177 0.0
C606 C 0.56002 0.60932 0.07841 0.0
C607 C 0.57311 0.63215 0.06143 0.0
C608 C 0.51362 0.47765 0.04359 0.0
C609 C 0.54165 0.54506 0.06156 0.0
C610 C 0.49727 0.4343 0.04317 0.0
C611 C 0.49207 0.41168 0.05989 0.0
C612 C 0.52463 0.49886 0.06087 0.0
C613 C 0.50398 0.43403 0.0769 0.0
C614 C 0.54456 0.56588 0.07855 0.0
C615 C 0.56992 0.61013 0.04481 0.0
N616 N 0.51948 0.47639 0.07698 0.0
N617 N 0.55438 0.56793 0.0453 0.0
H618 H 0.90801 0.49933 0.40305 0.0
H619 H 0.14621 0.54759 0.40412 0.0
H620 H 1.01605 0.62418 0.40215 0.0
H621 H 0.03924 0.42249 0.40031 0.0
H622 H 0.09862 0.57585 0.4053 0.0
H623 H 0.95512 0.47021 0.40401 0.0
C624 C 0.94158 0.52064 0.40319 0.0
C625 C 0.95803 0.56431 0.4024 0.0
C626 C 0.08552 0.54219 0.40422 0.0
C627 C 1.0122 0.53119 0.40337 0.0
C628 C 0.11273 0.52599 0.40366 0.0
C629 C 0.09683 0.48253 0.40207 0.0
C630 C 0.04193 0.51481 0.40327 0.0
C631 C 0.05302 0.4562 0.40127 0.0
C632 C 0.96849 0.50399 0.40363 0.0
C633 C 1.00189 0.59036 0.40242 0.0
N634 N 1.02715 0.47273 0.40188 0.0
N635 N 1.02736 0.57342 0.40288 0.0
H636 H 0.62477 0.09875 0.75927 0.0
H637 H 0.42127 0.95505 0.69779 0.0
H638 H 0.62882 0.0714 0.70053 0.0
H639 H 0.41847 0.94909 0.75846 0.0
H640 H 0.49674 1.00351 0.69869 0.0
H641 H 0.54851 0.04981 0.75947 0.0
C642 C 0.60961 0.08259 0.74643 0.0
C643 C 0.6332 0.08902 0.72988 0.0
C644 C 0.47975 0.99163 0.71184 0.0
C645 C 0.5463 0.03329 0.72998 0.0
C646 C 0.43656 0.96415 0.71133 0.0
C647 C 0.41349 0.94816 0.72808 0.0
C648 C 0.50027 1.00377 0.72924 0.0
C649 C 0.43516 0.96052 0.74523 0.0
C650 C 0.56622 0.05451 0.74658 0.0
C651 C 0.61204 0.06702 0.71366 0.0
N652 N 0.47737 0.98786 0.74539 0.0
N653 N 0.5699 0.04038 0.7141 0.0
H654 H 0.63544 0.56418 0.66902 0.0
H655 H 0.42654 0.49376 0.60995 0.0
H656 H 0.63088 0.54665 0.60888 0.0
H657 H 0.42647 0.47168 0.66962 0.0
H658 H 0.50258 0.5206 0.60904 0.0
H659 H 0.55987 0.53792 0.66931 0.0
C660 C 0.61855 0.55504 0.65585 0.0
C661 C 0.63948 0.55766 0.63889 0.0
C662 C 0.48582 0.50975 0.6223 0.0
C663 C 0.55287 0.52747 0.63911 0.0
C664 C 0.44256 0.49469 0.62285 0.0
C665 C 0.42018 0.48036 0.63987 0.0
C666 C 0.5069 0.51112 0.63897 0.0
C667 C 0.44238 0.48191 0.65616 0.0
C668 C 0.57536 0.53977 0.65604 0.0
C669 C 0.61587 0.5448 0.62227 0.0
N670 N 0.4845 0.49722 0.65533 0.0
N671 N 0.57382 0.53047 0.62277 0.0
H672 H 0.0823 0.626 0.99972 0.0
H673 H 0.95897 0.41445 0.94074 0.0
H674 H 0.11159 0.61875 0.94147 0.0
H675 H 0.96937 0.41607 1.00121 0.0
H676 H 1.00812 0.49059 0.94002 0.0
H677 H 0.03354 0.55015 0.99987 0.0
C678 C 0.07824 0.60844 0.98692 0.0
C679 C 0.10098 0.62866 0.97055 0.0
C680 C 0.9997 0.47418 0.95342 0.0
C681 C 0.04521 0.54186 0.9706 0.0
C682 C 0.97155 0.43088 0.95384 0.0
C683 C 0.96023 0.40896 0.97105 0.0
C684 C 1.01598 0.49578 0.97037 0.0
C685 C 0.97765 0.43165 0.98764 0.0
C686 C 0.05066 0.56513 0.98705 0.0
C687 C 0.0949 0.60427 0.95442 0.0
N688 N 1.00439 0.47383 0.9869 0.0
N689 N 0.06738 0.56215 0.9548 0.0
H690 H 0.55932 0.96085 0.33647 0.0
H691 H 0.50747 0.10962 0.27374 0.0
H692 H 0.55498 0.95336 0.27587 0.0
H693 H 0.47021 0.07999 0.33196 0.0
H694 H 0.53244 0.05871 0.27418 0.0
H695 H 0.53409 1.01095 0.3351 0.0
C696 C 0.55322 0.96994 0.32285 0.0
C697 C 0.55936 0.95303 0.30625 0.0
C698 C 0.51865 0.06333 0.28682 0.0
C699 C 0.53044 1.0105 0.30455 0.0
C700 C 0.50469 0.09251 0.2866 0.0
C701 C 0.48664 0.09892 0.30282 0.0
C702 C 0.51518 0.04103 0.30347 0.0
C703 C 0.48343 0.07569 0.31909 0.0
C704 C 0.53855 0.99834 0.32208 0.0
C705 C 0.55036 0.96548 0.28899 0.0
N706 N 0.49777 0.04803 0.31903 0.0
N707 N 0.53662 0.99374 0.28856 0.0
loop_
_geom_bond_atom_site_label_1
_geom_bond_atom_site_label_2
_geom_bond_distance
_geom_bond_site_symmetry_2
_ccdc_geom_bond_type
Cu0 N1 1.999 . S
Cu0 O6 1.974 . S
Cu0 N11 1.985 . S
Cu0 O20 1.959 . S
N1 Cu0 1.999 . S
N1 C3 1.263 . S
N1 C5 1.389 . S
N2 C3 1.358 . S
N2 C4 1.400 . S
C3 N1 1.263 . S
C3 N2 1.358 . S
C3 H9 0.930 . S
C4 N2 1.400 . S
C4 C5 1.351 . S
C4 H21 0.930 . S
C5 N1 1.389 . S
C5 C4 1.351 . S
C5 H10 0.930 . S
O6 Cu0 1.974 . S
O6 C16 1.282 . S
C7 O8 1.261 . S
C7 O20 1.251 . S
O8 C7 1.261 . S
H9 C3 0.930 . S
H10 C5 0.930 . S
N11 Cu0 1.985 . S
N11 C13 1.335 . S
N11 C14 1.390 . S
N12 C13 1.345 . S
N12 C15 1.336 . S
C13 N11 1.335 . S
C13 N12 1.345 . S
C13 H18 0.930 . S
C14 N11 1.390 . S
C14 C15 1.346 . S
C14 H19 0.930 . S
C15 N12 1.336 . S
C15 C14 1.346 . S
C15 H22 0.929 . S
C16 O6 1.282 . S
C16 O17 1.216 . S
O17 C16 1.216 . S
H18 C13 0.930 . S
H19 C14 0.930 . S
O20 Cu0 1.959 . S
O20 C7 1.251 . S
H21 C4 0.930 . S
H22 C15 0.929 . S
Cu23 N24 1.999 . S
Cu23 O29 1.974 . S
Cu23 N34 1.985 . S
Cu23 O43 1.959 . S
N24 Cu23 1.999 . S
N24 C26 1.263 . S
N24 C28 1.389 . S
N25 C26 1.358 . S
N25 C27 1.400 . S
C26 N24 1.263 . S
C26 N25 1.358 . S
C26 H32 0.930 . S
C27 N25 1.400 . S
C27 C28 1.351 . S
C27 H44 0.930 . S
C28 N24 1.389 . S
C28 C27 1.351 . S
C28 H33 0.930 . S
O29 Cu23 1.974 . S
O29 C39 1.282 . S
C30 O31 1.261 . S
C30 O43 1.251 . S
O31 C30 1.261 . S
H32 C26 0.930 . S
H33 C28 0.930 . S
N34 Cu23 1.985 . S
N34 C36 1.335 . S
N34 C37 1.390 . S
N35 C36 1.345 . S
N35 C38 1.336 . S
C36 N34 1.335 . S
C36 N35 1.345 . S
C36 H41 0.930 . S
C37 N34 1.390 . S
C37 C38 1.346 . S
C37 H42 0.930 . S
C38 N35 1.336 . S
C38 C37 1.346 . S
C38 H45 0.929 . S
C39 O29 1.282 . S
C39 O40 1.216 . S
O40 C39 1.216 . S
H41 C36 0.930 . S
H42 C37 0.930 . S
O43 Cu23 1.959 . S
O43 C30 1.251 . S
H44 C27 0.930 . S
H45 C38 0.929 . S
Cu46 N47 1.999 . S
Cu46 O52 1.974 . S
Cu46 N57 1.985 . S
Cu46 O66 1.959 . S
N47 Cu46 1.999 . S
N47 C49 1.263 . S
N47 C51 1.389 . S
N48 C49 1.358 . S
N48 C50 1.400 . S
C49 N47 1.263 . S
C49 N48 1.358 . S
C49 H55 0.930 . S
C50 N48 1.400 . S
C50 C51 1.351 . S
C50 H67 0.930 . S
C51 N47 1.389 . S
C51 C50 1.351 . S
C51 H56 0.930 . S
O52 Cu46 1.974 . S
O52 C62 1.282 . S
C53 O54 1.261 . S
C53 O66 1.251 . S
O54 C53 1.261 . S
H55 C49 0.930 . S
H56 C51 0.930 . S
N57 Cu46 1.985 . S
N57 C59 1.335 . S
N57 C60 1.390 . S
N58 C59 1.345 . S
N58 C61 1.336 . S
C59 N57 1.335 . S
C59 N58 1.345 . S
C59 H64 0.930 . S
C60 N57 1.390 . S
C60 C61 1.346 . S
C60 H65 0.930 . S
C61 N58 1.336 . S
C61 C60 1.346 . S
C61 H68 0.929 . S
C62 O52 1.282 . S
C62 O63 1.216 . S
O63 C62 1.216 . S
H64 C59 0.930 . S
H65 C60 0.930 . S
O66 Cu46 1.959 . S
O66 C53 1.251 . S
H67 C50 0.930 . S
H68 C61 0.929 . S
Cu69 N70 1.999 . S
Cu69 O75 1.974 . S
Cu69 N80 1.985 . S
Cu69 O89 1.959 . S
N70 Cu69 1.999 . S
N70 C72 1.263 . S
N70 C74 1.389 . S
N71 C72 1.358 . S
N71 C73 1.400 . S
C72 N70 1.263 . S
C72 N71 1.358 . S
C72 H78 0.930 . S
C73 N71 1.400 . S
C73 C74 1.351 . S
C73 H90 0.930 . S
C74 N70 1.389 . S
C74 C73 1.351 . S
C74 H79 0.930 . S
O75 Cu69 1.974 . S
O75 C85 1.282 . S
C76 O77 1.261 . S
C76 O89 1.251 . S
O77 C76 1.261 . S
H78 C72 0.930 . S
H79 C74 0.930 . S
N80 Cu69 1.985 . S
N80 C82 1.335 . S
N80 C83 1.390 . S
N81 C82 1.345 . S
N81 C84 1.336 . S
C82 N80 1.335 . S
C82 N81 1.345 . S
C82 H87 0.930 . S
C83 N80 1.390 . S
C83 C84 1.346 . S
C83 H88 0.930 . S
C84 N81 1.336 . S
C84 C83 1.346 . S
C84 H91 0.929 . S
C85 O75 1.282 . S
C85 O86 1.216 . S
O86 C85 1.216 . S
H87 C82 0.930 . S
H88 C83 0.930 . S
O89 Cu69 1.959 . S
O89 C76 1.251 . S
H90 C73 0.930 . S
H91 C84 0.929 . S
Cu92 N93 1.999 . S
Cu92 O98 1.974 . S
Cu92 N103 1.985 . S
Cu92 O112 1.959 . S
N93 Cu92 1.999 . S
N93 C95 1.263 . S
N93 C97 1.389 . S
N94 C95 1.358 . S
N94 C96 1.400 . S
C95 N93 1.263 . S
C95 N94 1.358 . S
C95 H101 0.930 . S
C96 N94 1.400 . S
C96 C97 1.351 . S
C96 H113 0.930 . S
C97 N93 1.389 . S
C97 C96 1.351 . S
C97 H102 0.930 . S
O98 Cu92 1.974 . S
O98 C108 1.282 . S
C99 O100 1.261 . S
C99 O112 1.251 . S
O100 C99 1.261 . S
H101 C95 0.930 . S
H102 C97 0.930 . S
N103 Cu92 1.985 . S
N103 C105 1.335 . S
N103 C106 1.390 . S
N104 C105 1.345 . S
N104 C107 1.336 . S
C105 N103 1.335 . S
C105 N104 1.345 . S
C105 H110 0.930 . S
C106 N103 1.390 . S
C106 C107 1.346 . S
C106 H111 0.930 . S
C107 N104 1.336 . S
C107 C106 1.346 . S
C107 H114 0.929 . S
C108 O98 1.282 . S
C108 O109 1.216 . S
O109 C108 1.216 . S
H110 C105 0.930 . S
H111 C106 0.930 . S
O112 Cu92 1.959 . S
O112 C99 1.251 . S
H113 C96 0.930 . S
H114 C107 0.929 . S
Cu115 N116 1.999 . S
Cu115 O121 1.974 . S
Cu115 N126 1.985 . S
Cu115 O135 1.959 . S
N116 Cu115 1.999 . S
N116 C118 1.263 . S
N116 C120 1.389 . S
N117 C118 1.358 . S
N117 C119 1.400 . S
C118 N116 1.263 . S
C118 N117 1.358 . S
C118 H124 0.930 . S
C119 N117 1.400 . S
C119 C120 1.351 . S
C119 H136 0.930 . S
C120 N116 1.389 . S
C120 C119 1.351 . S
C120 H125 0.930 . S
O121 Cu115 1.974 . S
O121 C131 1.282 . S
C122 O123 1.261 . S
C122 O135 1.251 . S
O123 C122 1.261 . S
H124 C118 0.930 . S
H125 C120 0.930 . S
N126 Cu115 1.985 . S
N126 C128 1.335 . S
N126 C129 1.390 . S
N127 C128 1.345 . S
N127 C130 1.336 . S
C128 N126 1.335 . S
C128 N127 1.345 . S
C128 H133 0.930 . S
C129 N126 1.390 . S
C129 C130 1.346 . S
C129 H134 0.930 . S
C130 N127 1.336 . S
C130 C129 1.346 . S
C130 H137 0.929 . S
C131 O121 1.282 . S
C131 O132 1.216 . S
O132 C131 1.216 . S
H133 C128 0.930 . S
H134 C129 0.930 . S
O135 Cu115 1.959 . S
O135 C122 1.251 . S
H136 C119 0.930 . S
H137 C130 0.929 . S
Cu138 N139 1.999 . S
Cu138 O144 1.974 . S
Cu138 N149 1.985 . S
Cu138 O158 1.959 . S
N139 Cu138 1.999 . S
N139 C141 1.263 . S
N139 C143 1.389 . S
N140 C141 1.358 . S
N140 C142 1.400 . S
C141 N139 1.263 . S
C141 N140 1.358 . S
C141 H147 0.930 . S
C142 N140 1.400 . S
C142 C143 1.351 . S
C142 H159 0.930 . S
C143 N139 1.389 . S
C143 C142 1.351 . S
C143 H148 0.930 . S
O144 Cu138 1.974 . S
O144 C154 1.282 . S
C145 O146 1.261 . S
C145 O158 1.251 . S
O146 C145 1.261 . S
H147 C141 0.930 . S
H148 C143 0.930 . S
N149 Cu138 1.985 . S
N149 C151 1.335 . S
N149 C152 1.390 . S
N150 C151 1.345 . S
N150 C153 1.336 . S
C151 N149 1.335 . S
C151 N150 1.345 . S
C151 H156 0.930 . S
C152 N149 1.390 . S
C152 C153 1.346 . S
C152 H157 0.930 . S
C153 N150 1.336 . S
C153 C152 1.346 . S
C153 H160 0.929 . S
C154 O144 1.282 . S
C154 O155 1.216 . S
O155 C154 1.216 . S
H156 C151 0.930 . S
H157 C152 0.930 . S
O158 Cu138 1.959 . S
O158 C145 1.251 . S
H159 C142 0.930 . S
H160 C153 0.929 . S
Cu161 N162 1.999 . S
Cu161 O167 1.974 . S
Cu161 N172 1.985 . S
Cu161 O181 1.959 . S
N162 Cu161 1.999 . S
N162 C164 1.263 . S
N162 C166 1.389 . S
N163 C164 1.358 . S
N163 C165 1.400 . S
C164 N162 1.263 . S
C164 N163 1.358 . S
C164 H170 0.930 . S
C165 N163 1.400 . S
C165 C166 1.351 . S
C165 H182 0.930 . S
C166 N162 1.389 . S
C166 C165 1.351 . S
C166 H171 0.930 . S
O167 Cu161 1.974 . S
O167 C177 1.282 . S
C168 O169 1.261 . S
C168 O181 1.251 . S
O169 C168 1.261 . S
H170 C164 0.930 . S
H171 C166 0.930 . S
N172 Cu161 1.985 . S
N172 C174 1.335 . S
N172 C175 1.390 . S
N173 C174 1.345 . S
N173 C176 1.336 . S
C174 N172 1.335 . S
C174 N173 1.345 . S
C174 H179 0.930 . S
C175 N172 1.390 . S
C175 C176 1.346 . S
C175 H180 0.930 . S
C176 N173 1.336 . S
C176 C175 1.346 . S
C176 H183 0.929 . S
C177 O167 1.282 . S
C177 O178 1.216 . S
O178 C177 1.216 . S
H179 C174 0.930 . S
H180 C175 0.930 . S
O181 Cu161 1.959 . S
O181 C168 1.251 . S
H182 C165 0.930 . S
H183 C176 0.929 . S
Cu184 N185 1.999 . S
Cu184 O190 1.974 . S
Cu184 N195 1.985 . S
Cu184 O204 1.959 . S
N185 Cu184 1.999 . S
N185 C187 1.263 . S
N185 C189 1.389 . S
N186 C187 1.358 . S
N186 C188 1.400 . S
C187 N185 1.263 . S
C187 N186 1.358 . S
C187 H193 0.930 . S
C188 N186 1.400 . S
C188 C189 1.351 . S
C188 H205 0.930 . S
C189 N185 1.389 . S
C189 C188 1.351 . S
C189 H194 0.930 . S
O190 Cu184 1.974 . S
O190 C200 1.282 . S
C191 O192 1.261 . S
C191 O204 1.251 . S
O192 C191 1.261 . S
H193 C187 0.930 . S
H194 C189 0.930 . S
N195 Cu184 1.985 . S
N195 C197 1.335 . S
N195 C198 1.390 . S
N196 C197 1.345 . S
N196 C199 1.336 . S
C197 N195 1.335 . S
C197 N196 1.345 . S
C197 H202 0.930 . S
C198 N195 1.390 . S
C198 C199 1.346 . S
C198 H203 0.930 . S
C199 N196 1.336 . S
C199 C198 1.346 . S
C199 H206 0.929 . S
C200 O190 1.282 . S
C200 O201 1.216 . S
O201 C200 1.216 . S
H202 C197 0.930 . S
H203 C198 0.930 . S
O204 Cu184 1.959 . S
O204 C191 1.251 . S
H205 C188 0.930 . S
H206 C199 0.929 . S
Cu207 N208 1.999 . S
Cu207 O213 1.974 . S
Cu207 N218 1.985 . S
Cu207 O227 1.959 . S
N208 Cu207 1.999 . S
N208 C210 1.263 . S
N208 C212 1.389 . S
N209 C210 1.358 . S
N209 C211 1.400 . S
C210 N208 1.263 . S
C210 N209 1.358 . S
C210 H216 0.930 . S
C211 N209 1.400 . S
C211 C212 1.351 . S
C211 H228 0.930 . S
C212 N208 1.389 . S
C212 C211 1.351 . S
C212 H217 0.930 . S
O213 Cu207 1.974 . S
O213 C223 1.282 . S
C214 O215 1.261 . S
C214 O227 1.251 . S
O215 C214 1.261 . S
H216 C210 0.930 . S
H217 C212 0.930 . S
N218 Cu207 1.985 . S
N218 C220 1.335 . S
N218 C221 1.390 . S
N219 C220 1.345 . S
N219 C222 1.336 . S
C220 N218 1.335 . S
C220 N219 1.345 . S
C220 H225 0.930 . S
C221 N218 1.390 . S
C221 C222 1.346 . S
C221 H226 0.930 . S
C222 N219 1.336 . S
C222 C221 1.346 . S
C222 H229 0.929 . S
C223 O213 1.282 . S
C223 O224 1.216 . S
O224 C223 1.216 . S
H225 C220 0.930 . S
H226 C221 0.930 . S
O227 Cu207 1.959 . S
O227 C214 1.251 . S
H228 C211 0.930 . S
H229 C222 0.929 . S
Cu230 N231 1.999 . S
Cu230 O236 1.974 . S
Cu230 N241 1.985 . S
Cu230 O250 1.959 . S
N231 Cu230 1.999 . S
N231 C233 1.263 . S
N231 C235 1.389 . S
N232 C233 1.358 . S
N232 C234 1.400 . S
C233 N231 1.263 . S
C233 N232 1.358 . S
C233 H239 0.930 . S
C234 N232 1.400 . S
C234 C235 1.351 . S
C234 H251 0.930 . S
C235 N231 1.389 . S
C235 C234 1.351 . S
C235 H240 0.930 . S
O236 Cu230 1.974 . S
O236 C246 1.282 . S
C237 O238 1.261 . S
C237 O250 1.251 . S
O238 C237 1.261 . S
H239 C233 0.930 . S
H240 C235 0.930 . S
N241 Cu230 1.985 . S
N241 C243 1.335 . S
N241 C244 1.390 . S
N242 C243 1.345 . S
N242 C245 1.336 . S
C243 N241 1.335 . S
C243 N242 1.345 . S
C243 H248 0.930 . S
C244 N241 1.390 . S
C244 C245 1.346 . S
C244 H249 0.930 . S
C245 N242 1.336 . S
C245 C244 1.346 . S
C245 H252 0.929 . S
C246 O236 1.282 . S
C246 O247 1.216 . S
O247 C246 1.216 . S
H248 C243 0.930 . S
H249 C244 0.930 . S
O250 Cu230 1.959 . S
O250 C237 1.251 . S
H251 C234 0.930 . S
H252 C245 0.929 . S
Cu253 N254 1.999 . S
Cu253 O259 1.974 . S
Cu253 N264 1.985 . S
Cu253 O273 1.959 . S
N254 Cu253 1.999 . S
N254 C256 1.263 . S
N254 C258 1.389 . S
N255 C256 1.358 . S
N255 C257 1.400 . S
C256 N254 1.263 . S
C256 N255 1.358 . S
C256 H262 0.930 . S
C257 N255 1.400 . S
C257 C258 1.351 . S
C257 H274 0.930 . S
C258 N254 1.389 . S
C258 C257 1.351 . S
C258 H263 0.930 . S
O259 Cu253 1.974 . S
O259 C269 1.282 . S
C260 O261 1.261 . S
C260 O273 1.251 . S
O261 C260 1.261 . S
H262 C256 0.930 . S
H263 C258 0.930 . S
N264 Cu253 1.985 . S
N264 C266 1.335 . S
N264 C267 1.390 . S
N265 C266 1.345 . S
N265 C268 1.336 . S
C266 N264 1.335 . S
C266 N265 1.345 . S
C266 H271 0.930 . S
C267 N264 1.390 . S
C267 C268 1.346 . S
C267 H272 0.930 . S
C268 N265 1.336 . S
C268 C267 1.346 . S
C268 H275 0.929 . S
C269 O259 1.282 . S
C269 O270 1.216 . S
O270 C269 1.216 . S
H271 C266 0.930 . S
H272 C267 0.930 . S
O273 Cu253 1.959 . S
O273 C260 1.251 . S
H274 C257 0.930 . S
H275 C268 0.929 . S
H276 C282 0.930 . S
H277 C286 0.930 . S
H278 C291 0.929 . S
H279 C289 0.929 . S
H280 C284 0.929 1_565 S
H281 C290 0.929 1_545 S
C282 H276 0.930 . S
C282 C283 1.367 . S
C282 C290 1.378 . S
C283 C282 1.367 . S
C283 C291 1.433 . S
C284 H280 0.929 1_545 S
C284 C286 1.378 . S
C284 C288 1.350 . S
C285 C288 1.463 1_566 S
C285 C290 1.350 . S
C285 N293 1.427 . S
C286 H277 0.930 . S
C286 C284 1.378 . S
C286 C287 1.367 . S
C287 C286 1.367 . S
C287 C289 1.433 . S
C288 C284 1.350 . S
C288 C285 1.463 1_544 S
C288 N292 1.427 . S
C289 H279 0.929 . S
C289 C287 1.433 . S
C289 N292 1.384 . S
C290 H281 0.929 1_565 S
C290 C282 1.378 . S
C290 C285 1.350 . S
C291 H278 0.929 . S
C291 C283 1.433 . S
C291 N293 1.384 . S
N292 C288 1.427 . S
N292 C289 1.384 . S
N293 C285 1.427 . S
N293 C291 1.384 . S
H294 C300 0.930 . S
H295 C304 0.930 . S
H296 C309 0.929 . S
H297 C307 0.929 . S
H298 C302 0.929 . S
H299 C308 0.929 . S
C300 H294 0.930 . S
C300 C301 1.367 . S
C300 C308 1.378 . S
C301 C300 1.367 . S
C301 C309 1.433 . S
C302 H298 0.929 . S
C302 C304 1.378 . S
C302 C306 1.350 . S
C303 C306 1.463 . S
C303 C308 1.350 . S
C303 N311 1.427 . S
C304 H295 0.930 . S
C304 C302 1.378 . S
C304 C305 1.367 . S
C305 C304 1.367 . S
C305 C307 1.433 . S
C306 C302 1.350 . S
C306 C303 1.463 . S
C306 N310 1.427 . S
C307 H297 0.929 . S
C307 C305 1.433 . S
C307 N310 1.384 . S
C308 H299 0.929 . S
C308 C300 1.378 . S
C308 C303 1.350 . S
C309 H296 0.929 . S
C309 C301 1.433 . S
C309 N311 1.384 . S
N310 C306 1.427 . S
N310 C307 1.384 . S
N311 C303 1.427 . S
N311 C309 1.384 . S
H312 C318 0.930 . S
H313 C322 0.930 . S
H314 C327 0.929 . S
H315 C325 0.929 . S
H316 C320 0.929 . S
H317 C326 0.929 . S
C318 H312 0.930 . S
C318 C319 1.367 . S
C318 C326 1.378 . S
C319 C318 1.367 . S
C319 C327 1.433 . S
C320 H316 0.929 . S
C320 C322 1.378 . S
C320 C324 1.350 . S
C321 C324 1.463 1_655 S
C321 C326 1.350 . S
C321 N329 1.427 . S
C322 H313 0.930 . S
C322 C320 1.378 . S
C322 C323 1.367 . S
C323 C322 1.367 . S
C323 C325 1.433 . S
C324 C320 1.350 . S
C324 C321 1.463 1_455 S
C324 N328 1.427 . S
C325 H315 0.929 . S
C325 C323 1.433 . S
C325 N328 1.384 . S
C326 H317 0.929 . S
C326 C318 1.378 . S
C326 C321 1.350 . S
C327 H314 0.929 . S
C327 C319 1.433 . S
C327 N329 1.384 . S
N328 C324 1.427 . S
N328 C325 1.384 . S
N329 C321 1.427 . S
N329 C327 1.384 . S
H330 C336 0.930 . S
H331 C340 0.930 . S
H332 C345 0.929 . S
H333 C343 0.929 . S
H334 C338 0.929 1_565 S
H335 C344 0.929 1_545 S
C336 H330 0.930 . S
C336 C337 1.367 . S
C336 C344 1.378 . S
C337 C336 1.367 . S
C337 C345 1.433 . S
C338 H334 0.929 1_545 S
C338 C340 1.378 . S
C338 C342 1.350 . S
C339 C342 1.463 1_564 S
C339 C344 1.350 . S
C339 N347 1.427 . S
C340 H331 0.930 . S
C340 C338 1.378 . S
C340 C341 1.367 . S
C341 C340 1.367 . S
C341 C343 1.433 . S
C342 C338 1.350 . S
C342 C339 1.463 1_546 S
C342 N346 1.427 . S
C343 H333 0.929 . S
C343 C341 1.433 . S
C343 N346 1.384 . S
C344 H335 0.929 1_565 S
C344 C336 1.378 . S
C344 C339 1.350 . S
C345 H332 0.929 . S
C345 C337 1.433 . S
C345 N347 1.384 . S
N346 C342 1.427 . S
N346 C343 1.384 . S
N347 C339 1.427 . S
N347 C345 1.384 . S
H348 C354 0.930 . S
H349 C358 0.930 . S
H350 C363 0.929 . S
H351 C361 0.929 . S
H352 C356 0.929 . S
H353 C362 0.929 . S
C354 H348 0.930 . S
C354 C355 1.367 . S
C354 C362 1.378 . S
C355 C354 1.367 . S
C355 C363 1.433 . S
C356 H352 0.929 . S
C356 C358 1.378 . S
C356 C360 1.350 . S
C357 C360 1.463 . S
C357 C362 1.350 . S
C357 N365 1.427 . S
C358 H349 0.930 . S
C358 C356 1.378 . S
C358 C359 1.367 . S
C359 C358 1.367 . S
C359 C361 1.433 . S
C360 C356 1.350 . S
C360 C357 1.463 . S
C360 N364 1.427 . S
C361 H351 0.929 . S
C361 C359 1.433 . S
C361 N364 1.384 . S
C362 H353 0.929 . S
C362 C354 1.378 . S
C362 C357 1.350 . S
C363 H350 0.929 . S
C363 C355 1.433 . S
C363 N365 1.384 . S
N364 C360 1.427 . S
N364 C361 1.384 . S
N365 C357 1.427 . S
N365 C363 1.384 . S
H366 C372 0.930 . S
H367 C376 0.930 . S
H368 C381 0.929 . S
H369 C379 0.929 . S
H370 C374 0.929 1_655 S
H371 C380 0.929 1_455 S
C372 H366 0.930 . S
C372 C373 1.367 . S
C372 C380 1.378 . S
C373 C372 1.367 . S
C373 C381 1.433 . S
C374 H370 0.929 1_455 S
C374 C376 1.378 . S
C374 C378 1.350 . S
C375 C378 1.463 1_655 S
C375 C380 1.350 . S
C375 N383 1.427 . S
C376 H367 0.930 . S
C376 C374 1.378 . S
C376 C377 1.367 . S
C377 C376 1.367 . S
C377 C379 1.433 . S
C378 C374 1.350 . S
C378 C375 1.463 1_455 S
C378 N382 1.427 . S
C379 H369 0.929 . S
C379 C377 1.433 . S
C379 N382 1.384 . S
C380 H371 0.929 1_655 S
C380 C372 1.378 . S
C380 C375 1.350 . S
C381 H368 0.929 . S
C381 C373 1.433 . S
C381 N383 1.384 . S
N382 C378 1.427 . S
N382 C379 1.384 . S
N383 C375 1.427 . S
N383 C381 1.384 . S
H384 C390 0.928 1_554 S
H385 C394 0.928 1_556 S
H386 C399 0.929 . S
H387 C397 0.929 . S
H388 C392 0.929 . S
H389 C398 0.929 . S
C390 H384 0.928 1_556 S
C390 C391 1.367 . S
C390 C398 1.378 1_556 S
C391 C390 1.367 . S
C391 C399 1.433 . S
C392 H388 0.929 . S
C392 C394 1.378 1_556 S
C392 C396 1.350 1_556 S
C393 C396 1.463 1_556 S
C393 C398 1.350 1_556 S
C393 N401 1.427 . S
C394 H385 0.928 1_554 S
C394 C392 1.378 1_554 S
C394 C395 1.367 . S
C395 C394 1.367 . S
C395 C397 1.433 . S
C396 C392 1.350 1_554 S
C396 C393 1.463 1_554 S
C396 N400 1.427 . S
C397 H387 0.929 . S
C397 C395 1.433 . S
C397 N400 1.384 . S
C398 H389 0.929 . S
C398 C390 1.378 1_554 S
C398 C393 1.350 1_554 S
C399 H386 0.929 . S
C399 C391 1.433 . S
C399 N401 1.384 . S
N400 C396 1.427 . S
N400 C397 1.384 . S
N401 C393 1.427 . S
N401 C399 1.384 . S
H402 C408 0.930 . S
H403 C412 0.930 . S
H404 C417 0.929 . S
H405 C415 0.929 . S
H406 C410 0.929 . S
H407 C416 0.929 . S
C408 H402 0.930 . S
C408 C409 1.367 . S
C408 C416 1.378 . S
C409 C408 1.367 . S
C409 C417 1.433 . S
C410 H406 0.929 . S
C410 C412 1.378 . S
C410 C414 1.350 . S
C411 C414 1.463 . S
C411 C416 1.350 . S
C411 N419 1.427 . S
C412 H403 0.930 . S
C412 C410 1.378 . S
C412 C413 1.367 . S
C413 C412 1.367 . S
C413 C415 1.433 . S
C414 C410 1.350 . S
C414 C411 1.463 . S
C414 N418 1.427 . S
C415 H405 0.929 . S
C415 C413 1.433 . S
C415 N418 1.384 . S
C416 H407 0.929 . S
C416 C408 1.378 . S
C416 C411 1.350 . S
C417 H404 0.929 . S
C417 C409 1.433 . S
C417 N419 1.384 . S
N418 C414 1.427 . S
N418 C415 1.384 . S
N419 C411 1.427 . S
N419 C417 1.384 . S
H420 C426 0.930 . S
H421 C430 0.930 . S
H422 C435 0.929 . S
H423 C433 0.929 . S
H424 C428 0.929 . S
H425 C434 0.929 . S
C426 H420 0.930 . S
C426 C427 1.367 . S
C426 C434 1.378 . S
C427 C426 1.367 . S
C427 C435 1.433 . S
C428 H424 0.929 . S
C428 C430 1.378 . S
C428 C432 1.350 . S
C429 C432 1.463 . S
C429 C434 1.350 . S
C429 N437 1.427 . S
C430 H421 0.930 . S
C430 C428 1.378 . S
C430 C431 1.367 . S
C431 C430 1.367 . S
C431 C433 1.433 . S
C432 C428 1.350 . S
C432 C429 1.463 . S
C432 N436 1.427 . S
C433 H423 0.929 . S
C433 C431 1.433 . S
C433 N436 1.384 . S
C434 H425 0.929 . S
C434 C426 1.378 . S
C434 C429 1.350 . S
C435 H422 0.929 . S
C435 C427 1.433 . S
C435 N437 1.384 . S
N436 C432 1.427 . S
N436 C433 1.384 . S
N437 C429 1.427 . S
N437 C435 1.384 . S
H438 C444 0.930 . S
H439 C448 0.930 . S
H440 C453 0.929 . S
H441 C451 0.929 . S
H442 C446 0.929 . S
H443 C452 0.929 . S
C444 H438 0.930 . S
C444 C445 1.367 . S
C444 C452 1.378 . S
C445 C444 1.367 . S
C445 C453 1.433 . S
C446 H442 0.929 . S
C446 C448 1.378 . S
C446 C450 1.350 . S
C447 C450 1.463 1_556 S
C447 C452 1.350 . S
C447 N455 1.427 . S
C448 H439 0.930 . S
C448 C446 1.378 . S
C448 C449 1.367 . S
C449 C448 1.367 . S
C449 C451 1.433 . S
C450 C446 1.350 . S
C450 C447 1.463 1_554 S
C450 N454 1.427 . S
C451 H441 0.929 . S
C451 C449 1.433 . S
C451 N454 1.384 . S
C452 H443 0.929 . S
C452 C444 1.378 . S
C452 C447 1.350 . S
C453 H440 0.929 . S
C453 C445 1.433 . S
C453 N455 1.384 . S
N454 C450 1.427 . S
N454 C451 1.384 . S
N455 C447 1.427 . S
N455 C453 1.384 . S
H456 C462 0.930 . S
H457 C466 0.930 . S
H458 C471 0.929 . S
H459 C469 0.929 . S
H460 C464 0.929 . S
H461 C470 0.929 . S
C462 H456 0.930 . S
C462 C463 1.367 . S
C462 C470 1.378 . S
C463 C462 1.367 . S
C463 C471 1.433 . S
C464 H460 0.929 . S
C464 C466 1.378 . S
C464 C468 1.350 . S
C465 C468 1.463 . S
C465 C470 1.350 . S
C465 N473 1.427 . S
C466 H457 0.930 . S
C466 C464 1.378 . S
C466 C467 1.367 . S
C467 C466 1.367 . S
C467 C469 1.433 . S
C468 C464 1.350 . S
C468 C465 1.463 . S
C468 N472 1.427 . S
C469 H459 0.929 . S
C469 C467 1.433 . S
C469 N472 1.384 . S
C470 H461 0.929 . S
C470 C462 1.378 . S
C470 C465 1.350 . S
C471 H458 0.929 . S
C471 C463 1.433 . S
C471 N473 1.384 . S
N472 C468 1.427 . S
N472 C469 1.384 . S
N473 C465 1.427 . S
N473 C471 1.384 . S
H474 C480 0.930 . S
H475 C484 0.930 . S
H476 C489 0.929 . S
H477 C487 0.929 . S
H478 C482 0.929 . S
H479 C488 0.929 . S
C480 H474 0.930 . S
C480 C481 1.367 . S
C480 C488 1.378 . S
C481 C480 1.367 . S
C481 C489 1.433 . S
C482 H478 0.929 . S
C482 C484 1.378 . S
C482 C486 1.350 . S
C483 C486 1.463 . S
C483 C488 1.350 . S
C483 N491 1.427 . S
C484 H475 0.930 . S
C484 C482 1.378 . S
C484 C485 1.367 . S
C485 C484 1.367 . S
C485 C487 1.433 . S
C486 C482 1.350 . S
C486 C483 1.463 . S
C486 N490 1.427 . S
C487 H477 0.929 . S
C487 C485 1.433 . S
C487 N490 1.384 . S
C488 H479 0.929 . S
C488 C480 1.378 . S
C488 C483 1.350 . S
C489 H476 0.929 . S
C489 C481 1.433 . S
C489 N491 1.384 . S
N490 C486 1.427 . S
N490 C487 1.384 . S
N491 C483 1.427 . S
N491 C489 1.384 . S
H492 C498 0.930 . S
H493 C502 0.930 . S
H494 C507 0.929 . S
H495 C505 0.929 . S
H496 C500 0.929 . S
H497 C506 0.929 . S
C498 H492 0.930 . S
C498 C499 1.367 . S
C498 C506 1.378 . S
C499 C498 1.367 . S
C499 C507 1.433 . S
C500 H496 0.929 . S
C500 C502 1.378 . S
C500 C504 1.350 . S
C501 C504 1.463 . S
C501 C506 1.350 . S
C501 N509 1.427 . S
C502 H493 0.930 . S
C502 C500 1.378 . S
C502 C503 1.367 . S
C503 C502 1.367 . S
C503 C505 1.433 . S
C504 C500 1.350 . S
C504 C501 1.463 . S
C504 N508 1.427 . S
C505 H495 0.929 . S
C505 C503 1.433 . S
C505 N508 1.384 . S
C506 H497 0.929 . S
C506 C498 1.378 . S
C506 C501 1.350 . S
C507 H494 0.929 . S
C507 C499 1.433 . S
C507 N509 1.384 . S
N508 C504 1.427 . S
N508 C505 1.384 . S
N509 C501 1.427 . S
N509 C507 1.384 . S
H510 C516 0.930 . S
H511 C520 0.930 . S
H512 C525 0.929 . S
H513 C523 0.929 . S
H514 C518 0.929 . S
H515 C524 0.929 . S
C516 H510 0.930 . S
C516 C517 1.367 . S
C516 C524 1.378 . S
C517 C516 1.367 . S
C517 C525 1.433 . S
C518 H514 0.929 . S
C518 C520 1.378 . S
C518 C522 1.350 . S
C519 C522 1.463 . S
C519 C524 1.350 . S
C519 N527 1.427 . S
C520 H511 0.930 . S
C520 C518 1.378 . S
C520 C521 1.367 . S
C521 C520 1.367 . S
C521 C523 1.433 . S
C522 C518 1.350 . S
C522 C519 1.463 . S
C522 N526 1.427 . S
C523 H513 0.929 . S
C523 C521 1.433 . S
C523 N526 1.384 . S
C524 H515 0.929 . S
C524 C516 1.378 . S
C524 C519 1.350 . S
C525 H512 0.929 . S
C525 C517 1.433 . S
C525 N527 1.384 . S
N526 C522 1.427 . S
N526 C523 1.384 . S
N527 C519 1.427 . S
N527 C525 1.384 . S
H528 C534 0.930 . S
H529 C538 0.930 . S
H530 C543 0.929 . S
H531 C541 0.929 . S
H532 C536 0.929 . S
H533 C542 0.929 . S
C534 H528 0.930 . S
C534 C535 1.367 . S
C534 C542 1.378 . S
C535 C534 1.367 . S
C535 C543 1.433 . S
C536 H532 0.929 . S
C536 C538 1.378 . S
C536 C540 1.350 . S
C537 C540 1.463 . S
C537 C542 1.350 . S
C537 N545 1.427 . S
C538 H529 0.930 . S
C538 C536 1.378 . S
C538 C539 1.367 . S
C539 C538 1.367 . S
C539 C541 1.433 . S
C540 C536 1.350 . S
C540 C537 1.463 . S
C540 N544 1.427 . S
C541 H531 0.929 . S
C541 C539 1.433 . S
C541 N544 1.384 . S
C542 H533 0.929 . S
C542 C534 1.378 . S
C542 C537 1.350 . S
C543 H530 0.929 . S
C543 C535 1.433 . S
C543 N545 1.384 . S
N544 C540 1.427 . S
N544 C541 1.384 . S
N545 C537 1.427 . S
N545 C543 1.384 . S
H546 C552 0.930 . S
H547 C556 0.930 . S
H548 C561 0.929 . S
H549 C559 0.929 . S
H550 C554 0.929 . S
H551 C560 0.929 . S
C552 H546 0.930 . S
C552 C553 1.367 . S
C552 C560 1.378 . S
C553 C552 1.367 . S
C553 C561 1.433 . S
C554 H550 0.929 . S
C554 C556 1.378 . S
C554 C558 1.350 . S
C555 C558 1.463 . S
C555 C560 1.350 . S
C555 N563 1.427 . S
C556 H547 0.930 . S
C556 C554 1.378 . S
C556 C557 1.367 . S
C557 C556 1.367 . S
C557 C559 1.433 . S
C558 C554 1.350 . S
C558 C555 1.463 . S
C558 N562 1.427 . S
C559 H549 0.929 . S
C559 C557 1.433 . S
C559 N562 1.384 . S
C560 H551 0.929 . S
C560 C552 1.378 . S
C560 C555 1.350 . S
C561 H548 0.929 . S
C561 C553 1.433 . S
C561 N563 1.384 . S
N562 C558 1.427 . S
N562 C559 1.384 . S
N563 C555 1.427 . S
N563 C561 1.384 . S
H564 C570 0.930 . S
H565 C574 0.930 . S
H566 C579 0.929 . S
H567 C577 0.929 . S
H568 C572 0.929 . S
H569 C578 0.929 . S
C570 H564 0.930 . S
C570 C571 1.367 . S
C570 C578 1.378 . S
C571 C570 1.367 . S
C571 C579 1.433 . S
C572 H568 0.929 . S
C572 C574 1.378 . S
C572 C576 1.350 . S
C573 C576 1.463 . S
C573 C578 1.350 . S
C573 N581 1.427 . S
C574 H565 0.930 . S
C574 C572 1.378 . S
C574 C575 1.367 . S
C575 C574 1.367 . S
C575 C577 1.433 . S
C576 C572 1.350 . S
C576 C573 1.463 . S
C576 N580 1.427 . S
C577 H567 0.929 . S
C577 C575 1.433 . S
C577 N580 1.384 . S
C578 H569 0.929 . S
C578 C570 1.378 . S
C578 C573 1.350 . S
C579 H566 0.929 . S
C579 C571 1.433 . S
C579 N581 1.384 . S
N580 C576 1.427 . S
N580 C577 1.384 . S
N581 C573 1.427 . S
N581 C579 1.384 . S
H582 C588 0.930 . S
H583 C592 0.930 . S
H584 C597 0.929 . S
H585 C595 0.929 . S
H586 C590 0.929 . S
H587 C596 0.929 . S
C588 H582 0.930 . S
C588 C589 1.367 . S
C588 C596 1.378 . S
C589 C588 1.367 . S
C589 C597 1.433 . S
C590 H586 0.929 . S
C590 C592 1.378 . S
C590 C594 1.350 . S
C591 C594 1.463 . S
C591 C596 1.350 . S
C591 N599 1.427 . S
C592 H583 0.930 . S
C592 C590 1.378 . S
C592 C593 1.367 . S
C593 C592 1.367 . S
C593 C595 1.433 . S
C594 C590 1.350 . S
C594 C591 1.463 . S
C594 N598 1.427 . S
C595 H585 0.929 . S
C595 C593 1.433 . S
C595 N598 1.384 . S
C596 H587 0.929 . S
C596 C588 1.378 . S
C596 C591 1.350 . S
C597 H584 0.929 . S
C597 C589 1.433 . S
C597 N599 1.384 . S
N598 C594 1.427 . S
N598 C595 1.384 . S
N599 C591 1.427 . S
N599 C597 1.384 . S
H600 C606 0.930 . S
H601 C610 0.930 . S
H602 C615 0.929 . S
H603 C613 0.929 . S
H604 C608 0.929 . S
H605 C614 0.929 . S
C606 H600 0.930 . S
C606 C607 1.367 . S
C606 C614 1.378 . S
C607 C606 1.367 . S
C607 C615 1.433 . S
C608 H604 0.929 . S
C608 C610 1.378 . S
C608 C612 1.350 . S
C609 C612 1.463 . S
C609 C614 1.350 . S
C609 N617 1.427 . S
C610 H601 0.930 . S
C610 C608 1.378 . S
C610 C611 1.367 . S
C611 C610 1.367 . S
C611 C613 1.433 . S
C612 C608 1.350 . S
C612 C609 1.463 . S
C612 N616 1.427 . S
C613 H603 0.929 . S
C613 C611 1.433 . S
C613 N616 1.384 . S
C614 H605 0.929 . S
C614 C606 1.378 . S
C614 C609 1.350 . S
C615 H602 0.929 . S
C615 C607 1.433 . S
C615 N617 1.384 . S
N616 C612 1.427 . S
N616 C613 1.384 . S
N617 C609 1.427 . S
N617 C615 1.384 . S
H618 C624 0.930 . S
H619 C628 0.930 . S
H620 C633 0.929 . S
H621 C631 0.929 . S
H622 C626 0.929 . S
H623 C632 0.929 . S
C624 H618 0.930 . S
C624 C625 1.367 . S
C624 C632 1.378 . S
C625 C624 1.367 . S
C625 C633 1.433 . S
C626 H622 0.929 . S
C626 C628 1.378 . S
C626 C630 1.350 . S
C627 C630 1.463 1_655 S
C627 C632 1.350 . S
C627 N635 1.427 . S
C628 H619 0.930 . S
C628 C626 1.378 . S
C628 C629 1.367 . S
C629 C628 1.367 . S
C629 C631 1.433 . S
C630 C626 1.350 . S
C630 C627 1.463 1_455 S
C630 N634 1.427 . S
C631 H621 0.929 . S
C631 C629 1.433 . S
C631 N634 1.384 . S
C632 H623 0.929 . S
C632 C624 1.378 . S
C632 C627 1.350 . S
C633 H620 0.929 . S
C633 C625 1.433 . S
C633 N635 1.384 . S
N634 C630 1.427 . S
N634 C631 1.384 . S
N635 C627 1.427 . S
N635 C633 1.384 . S
H636 C642 0.930 . S
H637 C646 0.930 . S
H638 C651 0.929 . S
H639 C649 0.929 . S
H640 C644 0.929 . S
H641 C650 0.929 . S
C642 H636 0.930 . S
C642 C643 1.367 . S
C642 C650 1.378 . S
C643 C642 1.367 . S
C643 C651 1.433 . S
C644 H640 0.929 . S
C644 C646 1.378 . S
C644 C648 1.350 . S
C645 C648 1.463 1_545 S
C645 C650 1.350 . S
C645 N653 1.427 . S
C646 H637 0.930 . S
C646 C644 1.378 . S
C646 C647 1.367 . S
C647 C646 1.367 . S
C647 C649 1.433 . S
C648 C644 1.350 . S
C648 C645 1.463 1_565 S
C648 N652 1.427 . S
C649 H639 0.929 . S
C649 C647 1.433 . S
C649 N652 1.384 . S
C650 H641 0.929 . S
C650 C642 1.378 . S
C650 C645 1.350 . S
C651 H638 0.929 . S
C651 C643 1.433 . S
C651 N653 1.384 . S
N652 C648 1.427 . S
N652 C649 1.384 . S
N653 C645 1.427 . S
N653 C651 1.384 . S
H654 C660 0.930 . S
H655 C664 0.930 . S
H656 C669 0.929 . S
H657 C667 0.929 . S
H658 C662 0.929 . S
H659 C668 0.929 . S
C660 H654 0.930 . S
C660 C661 1.367 . S
C660 C668 1.378 . S
C661 C660 1.367 . S
C661 C669 1.433 . S
C662 H658 0.929 . S
C662 C664 1.378 . S
C662 C666 1.350 . S
C663 C666 1.463 . S
C663 C668 1.350 . S
C663 N671 1.427 . S
C664 H655 0.930 . S
C664 C662 1.378 . S
C664 C665 1.367 . S
C665 C664 1.367 . S
C665 C667 1.433 . S
C666 C662 1.350 . S
C666 C663 1.463 . S
C666 N670 1.427 . S
C667 H657 0.929 . S
C667 C665 1.433 . S
C667 N670 1.384 . S
C668 H659 0.929 . S
C668 C660 1.378 . S
C668 C663 1.350 . S
C669 H656 0.929 . S
C669 C661 1.433 . S
C669 N671 1.384 . S
N670 C666 1.427 . S
N670 C667 1.384 . S
N671 C663 1.427 . S
N671 C669 1.384 . S
H672 C678 0.930 . S
H673 C682 0.930 . S
H674 C687 0.929 . S
H675 C685 0.929 . S
H676 C680 0.929 . S
H677 C686 0.929 . S
C678 H672 0.930 . S
C678 C679 1.367 . S
C678 C686 1.378 . S
C679 C678 1.367 . S
C679 C687 1.433 . S
C680 H676 0.929 . S
C680 C682 1.378 . S
C680 C684 1.350 . S
C681 C684 1.463 1_455 S
C681 C686 1.350 . S
C681 N689 1.427 . S
C682 H673 0.930 . S
C682 C680 1.378 . S
C682 C683 1.367 . S
C683 C682 1.367 . S
C683 C685 1.433 . S
C684 C680 1.350 . S
C684 C681 1.463 1_655 S
C684 N688 1.427 . S
C685 H675 0.929 . S
C685 C683 1.433 . S
C685 N688 1.384 . S
C686 H677 0.929 . S
C686 C678 1.378 . S
C686 C681 1.350 . S
C687 H674 0.929 . S
C687 C679 1.433 . S
C687 N689 1.384 . S
N688 C684 1.427 . S
N688 C685 1.384 . S
N689 C681 1.427 . S
N689 C687 1.384 . S
H690 C696 0.930 . S
H691 C700 0.930 . S
H692 C705 0.929 . S
H693 C703 0.929 . S
H694 C698 0.929 . S
H695 C704 0.929 . S
C696 H690 0.930 . S
C696 C697 1.367 . S
C696 C704 1.378 . S
C697 C696 1.367 . S
C697 C705 1.433 . S
C698 H694 0.929 . S
C698 C700 1.378 . S
C698 C702 1.350 . S
C699 C702 1.463 1_565 S
C699 C704 1.350 . S
C699 N707 1.427 . S
C700 H691 0.930 . S
C700 C698 1.378 . S
C700 C701 1.367 . S
C701 C700 1.367 . S
C701 C703 1.433 . S
C702 C698 1.350 . S
C702 C699 1.463 1_545 S
C702 N706 1.427 . S
C703 H693 0.929 . S
C703 C701 1.433 . S
C703 N706 1.384 . S
C704 H695 0.929 . S
C704 C696 1.378 . S
C704 C699 1.350 . S
C705 H692 0.929 . S
C705 C697 1.433 . S
C705 N707 1.384 . S
N706 C702 1.427 . S
N706 C703 1.384 . S
N707 C699 1.427 . S
N707 C705 1.384 . S
C283 N163 1.819 . S
C287 N2 1.827 . S
C301 N35 1.879 . S
C305 N186 1.786 . S
C319 N48 1.775 . S
C323 N219 1.883 . S
C337 N71 1.823 . S
C341 N232 1.825 . S
C355 N255 1.789 . S
C359 N104 1.879 . S
C373 N150 1.881 . S
C377 N117 1.790 . S
C391 C246 1.593 . S
C395 C16 1.594 . S
C409 C30 1.665 . S
C413 C269 1.609 . S
C427 C62 1.606 . S
C431 C145 1.663 . S
C445 C177 1.584 . S
C449 C85 1.583 . S
C463 C200 1.620 . S
C467 C99 1.676 . S
C481 C214 1.674 . S
C485 C131 1.620 . S
C499 C7 1.823 . S
C503 C191 1.826 . S
C517 C39 1.809 . S
C521 C223 1.817 . S
C535 C237 1.821 . S
C539 C53 1.833 . S
C553 C76 1.834 . S
C557 C260 1.832 . S
C571 C154 1.814 . S
C575 C108 1.802 . S
C589 C168 1.823 . S
C593 C122 1.826 . S
C607 N81 2.009 . S
C611 N12 2.000 . S
C625 N94 1.942 . S
C629 N25 1.939 . S
C643 N58 2.009 . S
C647 N127 1.999 . S
C661 N140 1.931 . S
C665 N209 1.944 . S
C679 N173 1.999 . S
C683 N242 2.010 . S
C697 N265 1.998 . S
C701 N196 2.009 . S
