# Generated by pormake.
# Topology xfg, (7)-cn, num edge types: 1
# Building blocks:
#     Node 0, Type 0, BuildingBlock: NUHQUE_clean_sbu_2, # of connection points: 7
#     Node 1, Type 0, BuildingBlock: NUHQUE_clean_sbu_2, # of connection points: 7
#     Node 2, Type 0, BuildingBlock: NUHQUE_clean_sbu_2, # of connection points: 7
#     Node 3, Type 0, BuildingBlock: NUHQUE_clean_sbu_2, # of connection points: 7
#     Node 4, Type 0, BuildingBlock: NUHQUE_clean_sbu_2, # of connection points: 7
#     Node 5, Type 0, BuildingBlock: NUHQUE_clean_sbu_2, # of connection points: 7
#     Node 6, Type 0, BuildingBlock: NUHQUE_clean_sbu_2, # of connection points: 7
#     Node 7, Type 0, BuildingBlock: NUHQUE_clean_sbu_2, # of connection points: 7
#     Node 8, Type 0, BuildingBlock: NUHQUE_clean_sbu_2, # of connection points: 7
#     Node 9, Type 0, BuildingBlock: NUHQUE_clean_sbu_2, # of connection points: 7
#     Node 10, Type 0, BuildingBlock: NUHQUE_clean_sbu_2, # of connection points: 7
#     Node 11, Type 0, BuildingBlock: NUHQUE_clean_sbu_2, # of connection points: 7
#     Node 12, Type 0, BuildingBlock: NUHQUE_clean_sbu_2, # of connection points: 7
#     Node 13, Type 0, BuildingBlock: NUHQUE_clean_sbu_2, # of connection points: 7
#     Node 14, Type 0, BuildingBlock: NUHQUE_clean_sbu_2, # of connection points: 7
#     Node 15, Type 0, BuildingBlock: NUHQUE_clean_sbu_2, # of connection points: 7
#     Edge 16, Type (0, 0), BuildingBlock: TEMPAE_clean_linker_10, # of connection points: 2
#     Edge 17, Type (0, 0), BuildingBlock: TEMPAE_clean_linker_10, # of connection points: 2
#     Edge 18, Type (0, 0), BuildingBlock: TEMPAE_clean_linker_10, # of connection points: 2
#     Edge 19, Type (0, 0), BuildingBlock: TEMPAE_clean_linker_10, # of connection points: 2
#     Edge 20, Type (0, 0), BuildingBlock: TEMPAE_clean_linker_10, # of connection points: 2
#     Edge 21, Type (0, 0), BuildingBlock: TEMPAE_clean_linker_10, # of connection points: 2
#     Edge 22, Type (0, 0), BuildingBlock: TEMPAE_clean_linker_10, # of connection points: 2
#     Edge 23, Type (0, 0), BuildingBlock: TEMPAE_clean_linker_10, # of connection points: 2
#     Edge 24, Type (0, 0), BuildingBlock: TEMPAE_clean_linker_10, # of connection points: 2
#     Edge 25, Type (0, 0), BuildingBlock: TEMPAE_clean_linker_10, # of connection points: 2
#     Edge 26, Type (0, 0), BuildingBlock: TEMPAE_clean_linker_10, # of connection points: 2
#     Edge 27, Type (0, 0), BuildingBlock: TEMPAE_clean_linker_10, # of connection points: 2
#     Edge 28, Type (0, 0), BuildingBlock: TEMPAE_clean_linker_10, # of connection points: 2
#     Edge 29, Type (0, 0), BuildingBlock: TEMPAE_clean_linker_10, # of connection points: 2
#     Edge 30, Type (0, 0), BuildingBlock: TEMPAE_clean_linker_10, # of connection points: 2
#     Edge 31, Type (0, 0), BuildingBlock: TEMPAE_clean_linker_10, # of connection points: 2
#     Edge 32, Type (0, 0), BuildingBlock: TEMPAE_clean_linker_10, # of connection points: 2
#     Edge 33, Type (0, 0), BuildingBlock: TEMPAE_clean_linker_10, # of connection points: 2
#     Edge 34, Type (0, 0), BuildingBlock: TEMPAE_clean_linker_10, # of connection points: 2
#     Edge 35, Type (0, 0), BuildingBlock: TEMPAE_clean_linker_10, # of connection points: 2
#     Edge 36, Type (0, 0), BuildingBlock: TEMPAE_clean_linker_10, # of connection points: 2
#     Edge 37, Type (0, 0), BuildingBlock: TEMPAE_clean_linker_10, # of connection points: 2
#     Edge 38, Type (0, 0), BuildingBlock: TEMPAE_clean_linker_10, # of connection points: 2
#     Edge 39, Type (0, 0), BuildingBlock: TEMPAE_clean_linker_10, # of connection points: 2
#     Edge 40, Type (0, 0), BuildingBlock: TEMPAE_clean_linker_10, # of connection points: 2
#     Edge 41, Type (0, 0), BuildingBlock: TEMPAE_clean_linker_10, # of connection points: 2
#     Edge 42, Type (0, 0), BuildingBlock: TEMPAE_clean_linker_10, # of connection points: 2
#     Edge 43, Type (0, 0), BuildingBlock: TEMPAE_clean_linker_10, # of connection points: 2
#     Edge 44, Type (0, 0), BuildingBlock: TEMPAE_clean_linker_10, # of connection points: 2
#     Edge 45, Type (0, 0), BuildingBlock: TEMPAE_clean_linker_10, # of connection points: 2
#     Edge 46, Type (0, 0), BuildingBlock: TEMPAE_clean_linker_10, # of connection points: 2
#     Edge 47, Type (0, 0), BuildingBlock: TEMPAE_clean_linker_10, # of connection points: 2
#     Edge 48, Type (0, 0), BuildingBlock: TEMPAE_clean_linker_10, # of connection points: 2
#     Edge 49, Type (0, 0), BuildingBlock: TEMPAE_clean_linker_10, # of connection points: 2
#     Edge 50, Type (0, 0), BuildingBlock: TEMPAE_clean_linker_10, # of connection points: 2
#     Edge 51, Type (0, 0), BuildingBlock: TEMPAE_clean_linker_10, # of connection points: 2
#     Edge 52, Type (0, 0), BuildingBlock: TEMPAE_clean_linker_10, # of connection points: 2
#     Edge 53, Type (0, 0), BuildingBlock: TEMPAE_clean_linker_10, # of connection points: 2
#     Edge 54, Type (0, 0), BuildingBlock: TEMPAE_clean_linker_10, # of connection points: 2
#     Edge 55, Type (0, 0), BuildingBlock: TEMPAE_clean_linker_10, # of connection points: 2
#     Edge 56, Type (0, 0), BuildingBlock: TEMPAE_clean_linker_10, # of connection points: 2
#     Edge 57, Type (0, 0), BuildingBlock: TEMPAE_clean_linker_10, # of connection points: 2
#     Edge 58, Type (0, 0), BuildingBlock: TEMPAE_clean_linker_10, # of connection points: 2
#     Edge 59, Type (0, 0), BuildingBlock: TEMPAE_clean_linker_10, # of connection points: 2
#     Edge 60, Type (0, 0), BuildingBlock: TEMPAE_clean_linker_10, # of connection points: 2
#     Edge 61, Type (0, 0), BuildingBlock: TEMPAE_clean_linker_10, # of connection points: 2
#     Edge 62, Type (0, 0), BuildingBlock: TEMPAE_clean_linker_10, # of connection points: 2
#     Edge 63, Type (0, 0), BuildingBlock: TEMPAE_clean_linker_10, # of connection points: 2
#     Edge 64, Type (0, 0), BuildingBlock: TEMPAE_clean_linker_10, # of connection points: 2
#     Edge 65, Type (0, 0), BuildingBlock: TEMPAE_clean_linker_10, # of connection points: 2
#     Edge 66, Type (0, 0), BuildingBlock: TEMPAE_clean_linker_10, # of connection points: 2
#     Edge 67, Type (0, 0), BuildingBlock: TEMPAE_clean_linker_10, # of connection points: 2
#     Edge 68, Type (0, 0), BuildingBlock: TEMPAE_clean_linker_10, # of connection points: 2
#     Edge 69, Type (0, 0), BuildingBlock: TEMPAE_clean_linker_10, # of connection points: 2
#     Edge 70, Type (0, 0), BuildingBlock: TEMPAE_clean_linker_10, # of connection points: 2
#     Edge 71, Type (0, 0), BuildingBlock: TEMPAE_clean_linker_10, # of connection points: 2
# Relax obj value: 0.105
# Max RMSD: 0.187
# Mean RMSD: 0.187
data_MOF--net-xfg--node1-NUHQUE_clean_sbu_2--edge1-TEMPAE_clean_linker_10
_symmetry_space_group_name_H-M    P1
_symmetry_Int_Tables_number       1
_symmetry_cell_setting            triclinic
loop_
_symmetry_equiv_pos_as_xyz
'x, y, z'
_cell_length_a     34.065244
_cell_length_b     34.102236
_cell_length_c     69.986875
_cell_angle_alpha  89.922252
_cell_angle_beta   90.081406
_cell_angle_gamma 89.958504
loop_
_atom_site_label
_atom_site_type_symbol
_atom_site_fract_x
_atom_site_fract_y
_atom_site_fract_z
_atom_type_partial_charge
O0 O 0.28863 0.11686 0.01048 0.0
Tb1 Tb 0.30704 0.08727 0.0365 0.0
Eu2 Eu 0.34965 0.11417 0.07546 0.0
C3 C 0.30942 0.11058 0.99495 0.0
O4 O 0.34307 0.09217 0.99629 0.0
C5 C 0.40152 0.08353 0.03921 0.0
O6 O 0.36672 0.09837 0.10504 0.0
C7 C 0.3279 0.1873 0.07614 0.0
C8 C 0.36299 0.06163 0.11009 0.0
O9 O 0.3568 0.03497 0.09689 0.0
C10 C 0.26252 0.08489 0.07448 0.0
C11 C 0.31545 0.22949 0.07613 0.0
C12 C 0.31319 0.24813 0.05832 0.0
C13 C 0.30157 0.28729 0.05678 0.0
C14 C 0.29219 0.30825 0.07336 0.0
C15 C 0.29014 0.29031 0.09137 0.0
C16 C 0.30332 0.25059 0.09286 0.0
O17 O 0.37012 0.09296 0.02919 0.0
O18 O 0.40113 0.08841 0.05798 0.0
O19 O 0.27686 0.04222 0.02045 0.0
O20 O 0.31525 0.02491 0.04298 0.0
C21 C 0.29147 1.01259 0.02967 0.0
O22 O 0.29682 0.07615 0.08172 0.0
O23 O 0.26187 0.1028 0.0578 0.0
O24 O 0.35298 0.17278 0.08861 0.0
O25 O 0.31826 0.16313 0.06215 0.0
H26 H 0.32031 0.23182 0.0455 0.0
H27 H 0.28566 0.33927 0.07218 0.0
H28 H 0.30277 0.2359 0.10658 0.0
O29 O 0.68616 0.53391 0.26248 0.0
Tb30 Tb 0.71035 0.55586 0.28911 0.0
Eu31 Eu 0.66699 0.60187 0.32435 0.0
C32 C 0.67998 0.55662 0.24757 0.0
O33 O 0.6828 0.59478 0.24925 0.0
C34 C 0.70796 0.65175 0.28912 0.0
O35 O 0.68054 0.62052 0.35395 0.0
C36 C 0.59227 0.58638 0.3211 0.0
C37 C 0.71778 0.62357 0.3583 0.0
O38 O 0.74401 0.6226 0.34456 0.0
C39 C 0.69901 0.51446 0.32751 0.0
C40 C 0.55623 0.56151 0.32364 0.0
C41 C 0.53638 0.55256 0.30659 0.0
C42 C 0.50151 0.53084 0.30655 0.0
C43 C 0.48837 0.51503 0.32386 0.0
C44 C 0.5027 0.52856 0.34142 0.0
C45 C 0.53798 0.5513 0.34141 0.0
O46 O 0.71176 0.61785 0.28026 0.0
O47 O 0.69212 0.65349 0.30648 0.0
O48 O 0.76069 0.52476 0.27783 0.0
O49 O 0.7696 0.56738 0.29963 0.0
C50 C 0.78666 0.5422 0.28842 0.0
O51 O 0.70217 0.5494 0.33507 0.0
O52 O 0.68823 0.51227 0.30955 0.0
O53 O 0.60654 0.6078 0.33511 0.0
O54 O 0.61902 0.57482 0.30864 0.0
H55 H 0.54723 0.56496 0.29336 0.0
H56 H 0.46333 0.49544 0.32389 0.0
H57 H 0.55001 0.56193 0.35476 0.0
O58 O 0.24329 0.92894 0.50834 0.0
Tb59 Tb 0.22825 0.95062 0.53652 0.0
Eu60 Eu 0.18489 0.91926 0.57691 0.0
C61 C 0.22469 0.94523 0.49385 0.0
O62 O 0.19652 0.97046 0.49752 0.0
C63 C 0.13604 0.95299 0.54016 0.0
O64 O 0.16104 0.94199 0.60427 0.0
C65 C 0.18835 0.84235 0.57814 0.0
C66 C 0.17419 0.97646 0.6095 0.0
O67 O 0.194 0.99789 0.59725 0.0
C68 C 0.27674 0.94309 0.57417 0.0
C69 C 0.21653 0.80809 0.57771 0.0
C70 C 0.22943 0.79635 0.55959 0.0
C71 C 0.25063 0.76201 0.55702 0.0
C72 C 0.26322 0.74058 0.57286 0.0
C73 C 0.24887 0.74833 0.59136 0.0
C74 C 0.22559 0.78319 0.59377 0.0
O75 O 0.16576 0.9386 0.53027 0.0
O76 O 0.13764 0.95166 0.55908 0.0
O77 O 0.25745 1.00045 0.52391 0.0
O78 O 0.21201 1.01077 0.54422 0.0
C79 C 0.23759 0.02708 0.53289 0.0
O80 O 0.24378 0.9462 0.58357 0.0
O81 O 0.27612 0.93288 0.55599 0.0
O82 O 0.18542 0.86399 0.59356 0.0
O83 O 0.18511 0.8634 0.56235 0.0
H84 H 0.22022 0.81211 0.54688 0.0
H85 H 0.28164 0.71529 0.57027 0.0
H86 H 0.21338 0.78995 0.60765 0.0
O87 O 0.85552 0.50422 0.75937 0.0
Tb88 Tb 0.83379 0.47962 0.78599 0.0
Eu89 Eu 0.862 0.43986 0.82526 0.0
C90 C 0.86711 0.48163 0.74522 0.0
O91 O 0.87396 0.44433 0.74833 0.0
C92 C 0.83332 0.38662 0.7892 0.0
O93 O 0.84841 0.42179 0.85489 0.0
C94 C 0.9351 0.46111 0.82597 0.0
C95 C 0.81185 0.42311 0.86042 0.0
O96 O 0.78413 0.42911 0.84767 0.0
C97 C 0.83227 0.52657 0.8233 0.0
C98 C 0.97717 0.47334 0.82639 0.0
C99 C 0.99737 0.47191 0.80906 0.0
C100 C 0.03669 0.48241 0.80815 0.0
C101 C 0.05623 0.49616 0.82434 0.0
C102 C 0.03719 0.49986 0.84201 0.0
C103 C 0.99723 0.48715 0.84314 0.0
O104 O 0.8442 0.41736 0.77907 0.0
O105 O 0.83666 0.38798 0.80804 0.0
O106 O 0.78367 0.49833 0.76961 0.0
O107 O 0.77381 0.46894 0.79611 0.0
C108 C 0.75731 0.48526 0.7813 0.0
O109 O 0.82394 0.49275 0.83115 0.0
O110 O 0.84917 0.52655 0.80637 0.0
O111 O 0.92014 0.43716 0.83876 0.0
O112 O 0.91145 0.46988 0.81159 0.0
H113 H 0.98285 0.46126 0.79626 0.0
H114 H 0.08707 0.5037 0.82308 0.0
H115 H 0.9817 0.48906 0.8566 0.0
O116 O 0.75336 0.93193 0.99238 0.0
Tb117 Tb 0.73239 0.95933 0.9662 0.0
Eu118 Eu 0.68887 0.92263 0.92884 0.0
C119 C 0.72999 0.92699 0.00717 0.0
O120 O 0.69215 0.93276 0.00521 0.0
C121 C 0.63653 0.95825 0.96466 0.0
O122 O 0.67109 0.93891 0.89936 0.0
C123 C 0.71285 0.85058 0.9266 0.0
C124 C 0.67046 0.97606 0.89471 0.0
O125 O 0.67305 1.00269 0.90821 0.0
C126 C 0.77534 0.95575 0.92795 0.0
C127 C 0.72472 0.80859 0.92759 0.0
C128 C 0.72241 0.79053 0.94545 0.0
C129 C 0.73226 0.75131 0.94754 0.0
C130 C 0.74512 0.7294 0.9319 0.0
C131 C 0.75014 0.74639 0.91371 0.0
C132 C 0.73879 0.78658 0.91156 0.0
O133 O 0.67001 0.96247 0.97382 0.0
O134 O 0.63555 0.94211 0.94736 0.0
O135 O 0.75735 1.00863 0.98117 0.0
O136 O 0.72458 0.01905 0.95572 0.0
C137 C 0.74389 0.03535 0.96964 0.0
O138 O 0.74033 0.9617 0.92068 0.0
O139 O 0.77738 0.94191 0.94545 0.0
O140 O 0.68414 0.86376 0.91574 0.0
O141 O 0.72478 0.87525 0.93996 0.0
H142 H 0.71195 0.80677 0.95776 0.0
H143 H 0.7506 0.69843 0.93413 0.0
H144 H 0.74157 0.80084 0.8978 0.0
O145 O 0.36265 0.49344 0.74418 0.0
Tb146 Tb 0.33515 0.47892 0.71711 0.0
Eu147 Eu 0.36782 0.43608 0.67812 0.0
C148 C 0.34777 0.47606 0.75934 0.0
O149 O 0.32117 0.44868 0.75683 0.0
C150 C 0.33421 0.38366 0.71414 0.0
O151 O 0.35239 0.41998 0.64837 0.0
C152 C 0.44153 0.45549 0.67936 0.0
C153 C 0.3155 0.42356 0.64341 0.0
O154 O 0.28887 0.4287 0.65675 0.0
C155 C 0.33694 0.52337 0.67916 0.0
C156 C 0.48208 0.47253 0.67848 0.0
C157 C 0.49953 0.47719 0.69638 0.0
C158 C 0.53767 0.49067 0.69823 0.0
C159 C 0.55947 0.49977 0.68194 0.0
C160 C 0.543 0.49912 0.66345 0.0
C161 C 0.5037 0.48399 0.6617 0.0
O162 O 0.33626 0.41592 0.72443 0.0
O163 O 0.34443 0.38365 0.69582 0.0
O164 O 0.28892 0.51022 0.73179 0.0
O165 O 0.27341 0.46962 0.70996 0.0
C166 C 0.25998 0.49382 0.72277 0.0
O167 O 0.32991 0.48921 0.67143 0.0
O168 O 0.35282 0.52408 0.69629 0.0
O169 O 0.42727 0.43248 0.66596 0.0
O170 O 0.41602 0.46612 0.69259 0.0
H171 H 0.4833 0.46972 0.70922 0.0
H172 H 0.59015 0.50699 0.68394 0.0
H173 H 0.49003 0.48176 0.64778 0.0
O174 O 0.78206 0.09034 0.49564 0.0
Tb175 Tb 0.80616 0.07714 0.46788 0.0
Eu176 Eu 0.84979 0.11517 0.43029 0.0
C177 C 0.80091 0.1103 0.50875 0.0
O178 O 0.83344 0.12893 0.50444 0.0
C179 C 0.90033 0.08156 0.46751 0.0
O180 O 0.86979 0.09944 0.40108 0.0
C181 C 0.83576 0.19037 0.43133 0.0
C182 C 0.86529 0.0629 0.3958 0.0
O183 O 0.85656 0.03649 0.40881 0.0
C184 C 0.76123 0.08861 0.43104 0.0
C185 C 0.8135 0.22835 0.42982 0.0
C186 C 0.80844 0.24703 0.44739 0.0
C187 C 0.79236 0.28416 0.44853 0.0
C188 C 0.77947 0.30355 0.43218 0.0
C189 C 0.78275 0.28647 0.414 0.0
C190 C 0.80108 0.24848 0.41273 0.0
O191 O 0.86743 0.08382 0.47747 0.0
O192 O 0.90083 0.09072 0.44898 0.0
O193 O 0.77664 0.02382 0.4764 0.0
O194 O 0.82285 0.02005 0.45616 0.0
C195 C 0.79683 1.0002 0.46577 0.0
O196 O 0.79476 0.08075 0.42282 0.0
O197 O 0.76221 0.10234 0.44852 0.0
O198 O 0.85348 0.17381 0.41676 0.0
O199 O 0.82696 0.16581 0.4453 0.0
H200 H 0.81913 0.23346 0.46046 0.0
H201 H 0.76802 0.33311 0.43366 0.0
H202 H 0.80534 0.23497 0.3989 0.0
O203 O 0.18268 0.53425 0.24399 0.0
Tb204 Tb 0.20465 0.55692 0.21699 0.0
Eu205 Eu 0.17085 0.60096 0.179 0.0
C206 C 0.18405 0.55622 0.2594 0.0
O207 O 0.19399 0.59319 0.25808 0.0
C208 C 0.20559 0.65015 0.21524 0.0
O209 O 0.18603 0.62281 0.15007 0.0
C210 C 0.09496 0.58938 0.18108 0.0
C211 C 0.22227 0.61693 0.14459 0.0
O212 O 0.24832 0.6045 0.15707 0.0
C213 C 0.19883 0.5121 0.17888 0.0
C214 C 0.05775 0.56583 0.17857 0.0
C215 C 0.03541 0.56127 0.19527 0.0
C216 C 0.99912 0.54203 0.19515 0.0
C217 C 0.98568 0.52531 0.17811 0.0
C218 C 1.00512 0.5308 0.16068 0.0
C219 C 0.04166 0.55174 0.16086 0.0
O220 O 0.19401 0.61906 0.22495 0.0
O221 O 0.20188 0.64979 0.1964 0.0
O222 O 0.25705 0.52919 0.22841 0.0
O223 O 0.26348 0.57335 0.20711 0.0
C224 C 0.28195 0.54844 0.21801 0.0
O225 O 0.20379 0.54605 0.17058 0.0
O226 O 0.18542 0.51152 0.19652 0.0
O227 O 0.11172 0.6073 0.16659 0.0
O228 O 0.11985 0.57949 0.19478 0.0
H229 H 0.04572 0.57472 0.20837 0.0
H230 H 0.95834 0.5091 0.17822 0.0
H231 H 0.05718 0.55678 0.1476 0.0
O232 O 0.79289 0.61044 0.50789 0.0
Tb233 Tb 0.80553 0.58294 0.53533 0.0
Eu234 Eu 0.85135 0.61626 0.57375 0.0
C235 C 0.81313 0.59799 0.49303 0.0
O236 O 0.84373 0.57553 0.49595 0.0
C237 C 0.90249 0.58016 0.53794 0.0
O238 O 0.87174 0.59688 0.60254 0.0
C239 C 0.82903 0.68905 0.57631 0.0
C240 C 0.86638 0.56018 0.60749 0.0
O241 O 0.85568 0.53443 0.59455 0.0
C242 C 0.7638 0.58588 0.57342 0.0
C243 C 0.81626 0.73108 0.57701 0.0
C244 C 0.81166 0.75057 0.55945 0.0
C245 C 0.80259 0.79059 0.55876 0.0
C246 C 0.79928 0.8112 0.57595 0.0
C247 C 0.79618 0.79209 0.59357 0.0
C248 C 0.80681 0.75162 0.59429 0.0
O249 O 0.86842 0.57386 0.52961 0.0
O250 O 0.90425 0.5984 0.55471 0.0
O251 O 0.77177 0.53931 0.5202 0.0
O252 O 0.80744 0.5213 0.54366 0.0
C253 C 0.78381 0.50958 0.53021 0.0
O254 O 0.79857 0.57754 0.58032 0.0
O255 O 0.76233 0.60269 0.55654 0.0
O256 O 0.85424 0.67352 0.58841 0.0
O257 O 0.8188 0.66588 0.56203 0.0
H258 H 0.8152 0.7343 0.54629 0.0
H259 H 0.79643 0.84284 0.57562 0.0
H260 H 0.80651 0.73614 0.6078 0.0
O261 O 0.17625 0.03538 0.76082 0.0
Tb262 Tb 0.20458 0.05578 0.78684 0.0
Eu263 Eu 0.17253 0.10018 0.82523 0.0
C264 C 0.16888 0.05916 0.7464 0.0
O265 O 0.16828 0.09714 0.74916 0.0
C266 C 0.20944 0.15026 0.78941 0.0
O267 O 0.18673 0.12235 0.85402 0.0
C268 C 0.09654 0.09128 0.82347 0.0
C269 C 0.22348 0.12032 0.85923 0.0
O270 O 0.25032 0.11162 0.84645 0.0
C271 C 0.19982 1.01042 0.8255 0.0
C272 C 0.06013 0.06672 0.82522 0.0
C273 C 0.04171 0.05905 0.8078 0.0
C274 C 1.00568 0.04041 0.80697 0.0
C275 C 0.98731 0.02756 0.82362 0.0
C276 C 1.00391 0.03438 0.84168 0.0
C277 C 0.04064 0.05503 0.84254 0.0
O278 O 0.20232 0.11852 0.77927 0.0
O279 O 0.20233 0.15022 0.80806 0.0
O280 O 0.24846 0.02675 0.76989 0.0
O281 O 0.2671 0.06131 0.79359 0.0
C282 C 0.27854 0.03937 0.77941 0.0
O283 O 0.20335 0.0442 0.83422 0.0
O284 O 0.18847 1.00979 0.8075 0.0
O285 O 0.11413 0.10599 0.83854 0.0
O286 O 0.12076 0.08355 0.80921 0.0
H287 H 0.05457 0.06945 0.79453 0.0
H288 H 0.95858 1.01399 0.82249 0.0
H289 H 0.0536 0.06181 0.85627 0.0
O290 O 0.74706 0.41949 0.0118 0.0
Tb291 Tb 0.72774 0.44879 0.03756 0.0
Eu292 Eu 0.68657 0.4221 0.07684 0.0
C293 C 0.7271 0.42699 0.99614 0.0
O294 O 0.69419 0.44682 0.99742 0.0
C295 C 0.6356 0.45294 0.04084 0.0
O296 O 0.66315 0.43578 0.10561 0.0
C297 C 0.6947 0.34609 0.07439 0.0
C298 C 0.67201 0.4702 0.11253 0.0
O299 O 0.68947 0.49619 0.10162 0.0
C300 C 0.77671 0.4487 0.07543 0.0
C301 C 0.718 0.30872 0.07585 0.0
C302 C 0.72501 0.29006 0.05838 0.0
C303 C 0.74005 0.2521 0.05752 0.0
C304 C 0.75047 0.23286 0.07445 0.0
C305 C 0.74686 0.25083 0.09239 0.0
C306 C 0.72901 0.28887 0.09317 0.0
O307 O 0.66495 0.43711 0.0313 0.0
O308 O 0.6382 0.45401 0.05967 0.0
O309 O 0.75139 0.49498 0.01981 0.0
O310 O 0.71622 0.51086 0.0437 0.0
C311 C 0.73608 0.52399 0.02912 0.0
O312 O 0.74333 0.45266 0.08446 0.0
O313 O 0.77639 0.43579 0.05765 0.0
O314 O 0.68061 0.36339 0.08966 0.0
O315 O 0.70247 0.37063 0.06025 0.0
H316 H 0.71705 0.30472 0.04517 0.0
H317 H 0.7607 0.20278 0.07373 0.0
H318 H 0.72396 0.30268 0.10686 0.0
O319 O 0.33387 1.00226 0.26021 0.0
Tb320 Tb 0.3221 0.97722 0.28796 0.0
Eu321 Eu 0.3723 0.93663 0.32488 0.0
C322 C 0.35697 0.98593 0.24754 0.0
O323 O 0.37913 0.95597 0.25234 0.0
C324 C 0.33338 0.88534 0.28918 0.0
O325 O 0.35441 0.91844 0.35408 0.0
C326 C 0.44888 0.94321 0.32384 0.0
C327 C 0.31713 0.92156 0.3583 0.0
O328 O 0.29166 0.92938 0.34471 0.0
C329 C 0.33931 0.02676 0.32446 0.0
C330 C 0.48465 0.96899 0.3257 0.0
C331 C 0.50337 0.97707 0.3083 0.0
C332 C 0.53629 1.00119 0.3074 0.0
C333 C 0.54861 0.02007 0.32402 0.0
C334 C 0.5382 1.00572 0.34218 0.0
C335 C 0.50398 0.98103 0.34307 0.0
O336 O 0.33784 0.91763 0.27901 0.0
O337 O 0.34269 0.88558 0.30771 0.0
O338 O 0.26658 0.99714 0.27683 0.0
O339 O 0.26649 0.95752 0.30043 0.0
C340 C 0.24477 0.97801 0.28876 0.0
O341 O 0.34445 0.99428 0.33426 0.0
O342 O 0.34142 0.02635 0.30572 0.0
O343 O 0.43023 0.92968 0.33889 0.0
O344 O 0.42527 0.95047 0.30925 0.0
H345 H 0.49319 0.9626 0.29545 0.0
H346 H 0.57063 0.04279 0.32266 0.0
H347 H 0.49344 0.97052 0.35673 0.0
O348 O 0.25602 0.43204 0.49277 0.0
Tb349 Tb 0.22743 0.45711 0.468 0.0
Eu350 Eu 0.1887 0.41725 0.42909 0.0
C351 C 0.23546 0.41846 0.50717 0.0
O352 O 0.19807 0.41057 0.50495 0.0
C353 C 0.13677 0.45322 0.46378 0.0
O354 O 0.17124 0.43284 0.39969 0.0
C355 C 0.19352 0.34111 0.43117 0.0
C356 C 0.17453 0.4697 0.3949 0.0
O357 O 0.18221 0.49599 0.40809 0.0
C358 C 0.27871 0.44988 0.42991 0.0
C359 C 0.21801 0.30491 0.4283 0.0
C360 C 0.22566 0.28383 0.44508 0.0
C361 C 0.24339 0.2471 0.44455 0.0
C362 C 0.25707 0.23215 0.42726 0.0
C363 C 0.24845 0.25048 0.40987 0.0
C364 C 0.22865 0.28759 0.41031 0.0
O365 O 0.16642 0.43974 0.47385 0.0
O366 O 0.13955 0.45154 0.44494 0.0
O367 O 0.23864 0.502 0.48869 0.0
O368 O 0.21699 0.51923 0.4613 0.0
C369 C 0.2279 0.53128 0.47818 0.0
O370 O 0.2472 0.44205 0.41983 0.0
O371 O 0.27807 0.45043 0.44875 0.0
O372 O 0.17743 0.35925 0.41654 0.0
O373 O 0.20357 0.36493 0.44526 0.0
H374 H 0.21459 0.29461 0.45863 0.0
H375 H 0.27139 0.20367 0.42721 0.0
H376 H 0.22045 0.3018 0.39706 0.0
O377 O 0.84007 1.00673 0.24498 0.0
Tb378 Tb 0.82799 0.9821 0.21717 0.0
Eu379 Eu 0.86266 0.9394 0.1791 0.0
C380 C 0.86533 0.99167 0.25707 0.0
O381 O 0.88933 0.9637 0.25162 0.0
C382 C 0.83296 0.88963 0.21707 0.0
O383 O 0.84772 0.91587 0.15028 0.0
C384 C 0.9358 0.96144 0.1778 0.0
C385 C 0.812 0.92107 0.14386 0.0
O386 O 0.78484 0.93518 0.15522 0.0
C387 C 0.83193 0.0262 0.17932 0.0
C388 C 0.97799 0.97409 0.17731 0.0
C389 C 0.99743 0.97718 0.19491 0.0
C390 C 0.03735 0.98697 0.19593 0.0
C391 C 0.05766 0.99436 0.17887 0.0
C392 C 0.0386 0.9971 0.16117 0.0
C393 C 0.99849 0.98508 0.16024 0.0
O394 O 0.84046 0.92173 0.22699 0.0
O395 O 0.83772 0.88977 0.19824 0.0
O396 O 0.77364 1.00965 0.22543 0.0
O397 O 0.7713 0.96002 0.20701 0.0
C398 C 0.75071 0.98638 0.21599 0.0
O399 O 0.82521 0.99194 0.17162 0.0
O400 O 0.84748 0.02683 0.19655 0.0
O401 O 0.92093 0.9363 0.16554 0.0
O402 O 0.91199 0.97114 0.19192 0.0
H403 H 0.98105 0.97174 0.20787 0.0
H404 H 0.08909 0.99899 0.17923 0.0
H405 H 0.98316 0.98559 0.14668 0.0
O406 O 0.28021 0.59629 0.99367 0.0
Tb407 Tb 0.30611 0.57715 0.96699 0.0
Eu408 Eu 0.34987 0.61397 0.92993 0.0
C409 C 0.30056 0.61403 0.00708 0.0
O410 O 0.33619 0.62652 0.0034 0.0
C411 C 0.40018 0.57967 0.96676 0.0
O412 O 0.36909 0.60195 0.90021 0.0
C413 C 0.33352 0.68849 0.93186 0.0
C414 C 0.37208 0.56535 0.89488 0.0
O415 O 0.36881 0.53745 0.90774 0.0
C416 C 0.26238 0.58322 0.92901 0.0
C417 C 0.31251 0.72677 0.92895 0.0
C418 C 0.30685 0.74832 0.94572 0.0
C419 C 0.29353 0.78682 0.94509 0.0
C420 C 0.28305 0.80401 0.92773 0.0
C421 C 0.28737 0.78393 0.91045 0.0
C422 C 0.30281 0.74478 0.91096 0.0
O423 O 0.36736 0.58379 0.97658 0.0
O424 O 0.4009 0.58845 0.94823 0.0
O425 O 0.28238 0.52366 0.9788 0.0
O426 O 0.32142 0.51982 0.95521 0.0
C427 C 0.29999 0.4999 0.96715 0.0
O428 O 0.29687 0.5777 0.92119 0.0
O429 O 0.26131 0.59705 0.94652 0.0
O430 O 0.35667 0.6737 0.9187 0.0
O431 O 0.32054 0.66264 0.94445 0.0
H432 H 0.31575 0.73609 0.95939 0.0
H433 H 0.27294 0.83423 0.92764 0.0
H434 H 0.30808 0.72921 0.89774 0.0
O435 O 0.6753 0.04508 0.74422 0.0
Tb436 Tb 0.70688 0.05521 0.71772 0.0
Eu437 Eu 0.67164 0.10074 0.68035 0.0
C438 C 0.68547 0.0665 0.75905 0.0
O439 O 0.7064 0.09821 0.75624 0.0
C440 C 0.71007 0.15097 0.71544 0.0
O441 O 0.68924 0.12167 0.65145 0.0
C442 C 0.60048 0.07501 0.67704 0.0
C443 C 0.7258 0.117 0.64616 0.0
O444 O 0.75267 0.10964 0.65917 0.0
C445 C 0.70429 1.01455 0.67967 0.0
C446 C 0.55943 0.06036 0.67597 0.0
C447 C 0.53927 0.05698 0.69323 0.0
C448 C 0.50051 0.04445 0.69354 0.0
C449 C 0.48143 0.0336 0.67667 0.0
C450 C 0.5006 0.03572 0.65904 0.0
C451 C 0.54003 0.04968 0.65862 0.0
O452 O 0.72295 0.11703 0.72178 0.0
O453 O 0.68552 0.15261 0.70069 0.0
O454 O 0.74759 0.02221 0.73509 0.0
O455 O 0.76874 0.05155 0.71025 0.0
C456 C 0.77849 0.03067 0.72506 0.0
O457 O 0.71234 0.04972 0.67325 0.0
O458 O 0.68779 1.01214 0.69652 0.0
O459 O 0.61435 0.10249 0.66571 0.0
O460 O 0.62397 0.0646 0.69119 0.0
H461 H 0.55321 0.06576 0.70651 0.0
H462 H 0.45101 0.02418 0.67727 0.0
H463 H 0.55532 0.05206 0.64511 0.0
C464 C 0.2712 0.12853 0.88554 0.0
C465 C 0.23317 0.11963 0.87954 0.0
C466 C 0.28117 0.1266 0.90487 0.0
C467 C 0.25253 0.11451 0.91828 0.0
C468 C 0.21441 0.10408 0.91219 0.0
C469 C 0.20494 0.10737 0.89283 0.0
C470 C 0.32243 0.13711 0.91089 0.0
C471 C 0.18377 0.08936 0.92605 0.0
C472 C 0.29468 0.07825 0.96461 0.0
C473 C 0.29076 0.11145 0.9762 0.0
C474 C 0.28068 0.07817 0.94592 0.0
C475 C 0.26287 0.11247 0.93867 0.0
C476 C 0.25726 0.14563 0.95055 0.0
C477 C 0.27107 0.14461 0.96944 0.0
C478 C 0.28597 0.04181 0.93385 0.0
C479 C 0.23837 0.18259 0.94299 0.0
H480 H 0.29304 0.13729 0.87512 0.0
H481 H 0.17575 0.09934 0.88804 0.0
H482 H 0.32177 0.15882 0.92268 0.0
H483 H 0.33767 0.11057 0.91631 0.0
H484 H 0.33989 0.14942 0.89891 0.0
H485 H 0.15752 0.07746 0.91863 0.0
H486 H 0.19614 0.06608 0.93538 0.0
H487 H 0.17429 0.11373 0.93545 0.0
H488 H 0.30922 0.05228 0.97015 0.0
H489 H 0.26804 0.17008 0.97858 0.0
H490 H 0.30589 0.04818 0.92173 0.0
H491 H 0.25739 0.03256 0.92772 0.0
H492 H 0.29841 1.01692 0.94216 0.0
H493 H 0.2567 0.19499 0.93136 0.0
H494 H 0.23469 0.20519 0.95426 0.0
H495 H 0.20918 0.17583 0.93677 0.0
C496 C 0.63759 0.47627 0.1433 0.0
C497 C 0.6726 0.47532 0.13307 0.0
C498 C 0.63801 0.48422 0.16288 0.0
C499 C 0.67443 0.49029 0.1722 0.0
C500 C 0.71008 0.4861 0.16206 0.0
C501 C 0.70867 0.47916 0.14242 0.0
C502 C 0.59947 0.48902 0.17321 0.0
C503 C 0.74949 0.49092 0.1717 0.0
C504 C 0.67504 0.56365 0.21232 0.0
C505 C 0.67577 0.53923 0.22844 0.0
C506 C 0.67478 0.54786 0.19393 0.0
C507 C 0.67503 0.50668 0.19166 0.0
C508 C 0.67559 0.48176 0.2078 0.0
C509 C 0.67579 0.49839 0.22608 0.0
C510 C 0.6749 0.57528 0.17692 0.0
C511 C 0.67608 0.43768 0.20575 0.0
H512 H 0.60993 0.47264 0.13582 0.0
H513 H 0.73569 0.47714 0.13432 0.0
H514 H 0.60043 0.47469 0.18743 0.0
H515 H 0.59382 0.52072 0.17552 0.0
H516 H 0.57456 0.47664 0.16492 0.0
H517 H 0.77407 0.48123 0.16242 0.0
H518 H 0.7541 0.52222 0.17539 0.0
H519 H 0.75052 0.47391 0.18522 0.0
H520 H 0.67546 0.59524 0.21402 0.0
H521 H 0.67661 0.47939 0.2385 0.0
H522 H 0.64943 0.56897 0.16752 0.0
H523 H 0.70186 0.57058 0.16835 0.0
H524 H 0.67371 0.60661 0.1812 0.0
H525 H 0.64738 0.42762 0.20008 0.0
H526 H 0.68158 0.42265 0.21959 0.0
H527 H 0.69893 0.42846 0.1954 0.0
C528 C 0.32572 0.9486 0.39085 0.0
C529 C 0.30513 0.92416 0.37827 0.0
C530 C 0.31304 0.95338 0.40974 0.0
C531 C 0.28013 0.93185 0.41622 0.0
C532 C 0.25942 0.90714 0.40346 0.0
C533 C 0.27177 0.90425 0.38446 0.0
C534 C 0.33435 0.98185 0.42261 0.0
C535 C 0.22382 0.88427 0.40978 0.0
C536 C 0.26816 0.91366 0.46939 0.0
C537 C 0.2384 0.94041 0.47398 0.0
C538 C 0.28235 0.91083 0.4506 0.0
C539 C 0.26659 0.93557 0.43624 0.0
C540 C 0.23678 0.9628 0.44083 0.0
C541 C 0.22292 0.9647 0.45961 0.0
C542 C 0.31412 0.88138 0.44608 0.0
C543 C 0.22031 0.99099 0.42617 0.0
H544 H 0.35092 0.96492 0.38572 0.0
H545 H 0.25568 0.88601 0.37447 0.0
H546 H 0.31317 1.00243 0.42927 0.0
H547 H 0.34911 0.96563 0.43434 0.0
H548 H 0.35678 0.99919 0.41477 0.0
H549 H 0.21315 0.86392 0.39853 0.0
H550 H 0.23072 0.86707 0.42283 0.0
H551 H 0.19975 0.90489 0.4134 0.0
H552 H 0.28042 0.89503 0.48045 0.0
H553 H 0.20035 0.98595 0.46307 0.0
H554 H 0.34077 0.89683 0.44096 0.0
H555 H 0.30428 0.86168 0.43441 0.0
H556 H 0.32222 0.86325 0.45869 0.0
H557 H 0.24155 1.01523 0.42398 0.0
H558 H 0.19201 1.00398 0.43089 0.0
H559 H 0.21566 0.97656 0.41217 0.0
C560 C 0.83501 0.52441 0.63426 0.0
C561 C 0.86408 0.55023 0.62779 0.0
C562 C 0.83125 0.51592 0.65375 0.0
C563 C 0.85795 0.53291 0.66686 0.0
C564 C 0.8866 0.55988 0.66037 0.0
C565 C 0.88897 0.5686 0.64087 0.0
C566 C 0.79906 0.48858 0.66027 0.0
C567 C 0.91599 0.5781 0.67386 0.0
C568 C 0.84302 0.52883 0.7205 0.0
C569 C 0.86604 0.49617 0.72539 0.0
C570 C 0.83893 0.54054 0.70137 0.0
C571 C 0.85896 0.51948 0.68696 0.0
C572 C 0.88205 0.48644 0.69183 0.0
C573 C 0.88507 0.47502 0.71098 0.0
C574 C 0.81316 0.57525 0.69656 0.0
C575 C 0.90369 0.46319 0.67678 0.0
H576 H 0.81479 0.51139 0.62411 0.0
H577 H 0.91097 0.58905 0.63577 0.0
H578 H 0.81196 0.46228 0.66719 0.0
H579 H 0.78047 0.5034 0.67108 0.0
H580 H 0.78002 0.47889 0.64826 0.0
H581 H 0.93267 0.60231 0.66702 0.0
H582 H 0.90121 0.58967 0.68679 0.0
H583 H 0.93713 0.55529 0.67861 0.0
H584 H 0.8274 0.54464 0.73156 0.0
H585 H 0.90241 0.44944 0.71467 0.0
H586 H 0.79032 0.56648 0.68609 0.0
H587 H 0.83093 0.59866 0.68977 0.0
H588 H 0.79847 0.58759 0.70938 0.0
H589 H 0.88243 0.45052 0.66648 0.0
H590 H 0.92131 0.43892 0.68302 0.0
H591 H 0.92358 0.48274 0.66861 0.0
C592 C 0.72093 0.91618 0.04203 0.0
C593 C 0.74637 0.92173 0.02653 0.0
C594 C 0.7351 0.9158 0.06079 0.0
C595 C 0.77567 0.92123 0.06412 0.0
C596 C 0.80167 0.92634 0.04857 0.0
C597 C 0.78671 0.92625 0.02989 0.0
C598 C 0.70645 0.91071 0.07708 0.0
C599 C 0.84501 0.93295 0.05174 0.0
C600 C 0.79532 0.95638 0.11425 0.0
C601 C 0.80546 0.92124 0.1233 0.0
C602 C 0.78842 0.95745 0.09457 0.0
C603 C 0.79035 0.92213 0.084 0.0
C604 C 0.8021 0.88684 0.09308 0.0
C605 C 0.81015 0.88699 0.11271 0.0
C606 C 0.77747 0.99606 0.08538 0.0
C607 C 0.80363 0.84843 0.08244 0.0
H608 H 0.68968 0.91294 0.03957 0.0
H609 H 0.80645 0.93103 0.01798 0.0
H610 H 0.71658 0.88716 0.08688 0.0
H611 H 0.70487 0.93822 0.08549 0.0
H612 H 0.67642 0.90342 0.07201 0.0
H613 H 0.86109 0.93779 0.03814 0.0
H614 H 0.84951 0.95879 0.06112 0.0
H615 H 0.858 0.90724 0.05915 0.0
H616 H 0.79282 0.98304 0.12258 0.0
H617 H 0.81853 0.86007 0.11991 0.0
H618 H 0.74507 0.99793 0.08405 0.0
H619 H 0.79015 0.9987 0.07084 0.0
H620 H 0.78758 0.02136 0.09408 0.0
H621 H 0.7733 0.83706 0.08075 0.0
H622 H 0.8212 0.8261 0.09025 0.0
H623 H 0.81617 0.85223 0.06794 0.0
C624 C 0.3563 0.58195 0.86114 0.0
C625 C 0.37231 0.55567 0.87448 0.0
C626 C 0.35309 0.57164 0.84184 0.0
C627 C 0.36695 0.53456 0.83584 0.0
C628 C 0.38373 0.50828 0.84923 0.0
C629 C 0.38589 0.51906 0.86847 0.0
C630 C 0.33346 0.59967 0.82808 0.0
C631 C 0.3989 0.46852 0.84328 0.0
C632 C 0.32444 0.48516 0.79243 0.0
C633 C 0.35361 0.49184 0.77868 0.0
C634 C 0.32779 0.50025 0.81086 0.0
C635 C 0.36164 0.52185 0.81583 0.0
C636 C 0.39111 0.52919 0.80202 0.0
C637 C 0.38653 0.5144 0.78342 0.0
C638 C 0.29518 0.49273 0.82505 0.0
C639 C 0.42738 0.55253 0.80694 0.0
H640 H 0.34493 0.61 0.86589 0.0
H641 H 0.39805 0.49877 0.87885 0.0
H642 H 0.35233 0.6046 0.8154 0.0
H643 H 0.30554 0.58675 0.82288 0.0
H644 H 0.32685 0.62845 0.83477 0.0
H645 H 0.41019 0.45122 0.85558 0.0
H646 H 0.37525 0.45148 0.83622 0.0
H647 H 0.42291 0.47224 0.83273 0.0
H648 H 0.29846 0.46847 0.78872 0.0
H649 H 0.40886 0.51993 0.77273 0.0
H650 H 0.28365 0.52095 0.83056 0.0
H651 H 0.30665 0.47599 0.83746 0.0
H652 H 0.27042 0.47602 0.81868 0.0
H653 H 0.41904 0.58338 0.8099 0.0
H654 H 0.44929 0.5523 0.7952 0.0
H655 H 0.44136 0.54074 0.82008 0.0
C656 C 0.76795 0.08966 0.62045 0.0
C657 C 0.73445 0.11077 0.62583 0.0
C658 C 0.77619 0.08272 0.60117 0.0
C659 C 0.75081 0.09821 0.58705 0.0
C660 C 0.71553 0.11708 0.59244 0.0
C661 C 0.70769 0.12306 0.61184 0.0
C662 C 0.81309 0.0606 0.59605 0.0
C663 C 0.68705 0.13259 0.57769 0.0
C664 C 0.79874 0.13596 0.54202 0.0
C665 C 0.78761 0.10759 0.52869 0.0
C666 C 0.78684 0.13298 0.5611 0.0
C667 C 0.76396 0.10045 0.56697 0.0
C668 C 0.75324 0.07125 0.55364 0.0
C669 C 0.765 0.07535 0.53458 0.0
C670 C 0.79853 0.16477 0.575 0.0
C671 C 0.73044 0.03523 0.55955 0.0
H672 H 0.78785 0.07853 0.63128 0.0
H673 H 0.68106 0.1382 0.61601 0.0
H674 H 0.80915 0.04303 0.58287 0.0
H675 H 0.83714 0.08188 0.59351 0.0
H676 H 0.82232 0.04069 0.60782 0.0
H677 H 0.65945 0.14354 0.58424 0.0
H678 H 0.70093 0.15695 0.56964 0.0
H679 H 0.67958 0.10931 0.56725 0.0
H680 H 0.8164 0.16072 0.53749 0.0
H681 H 0.75718 0.05279 0.52436 0.0
H682 H 0.81622 0.15199 0.58679 0.0
H683 H 0.77191 0.17801 0.58146 0.0
H684 H 0.81591 0.18839 0.56809 0.0
H685 H 0.7497 1.01578 0.56817 0.0
H686 H 0.71967 0.01834 0.54703 0.0
H687 H 0.705 0.04322 0.56862 0.0
C688 C 0.15618 0.51184 0.28427 0.0
C689 C 0.18507 0.53817 0.2783 0.0
C690 C 0.15611 0.49801 0.30315 0.0
C691 C 0.18612 0.51031 0.31584 0.0
C692 C 0.21659 0.53504 0.3094 0.0
C693 C 0.21545 0.54893 0.29069 0.0
C694 C 0.12315 0.47175 0.3098 0.0
C695 C 0.2502 0.54716 0.32223 0.0
C696 C 0.16245 0.51575 0.36835 0.0
C697 C 0.17732 0.48001 0.37477 0.0
C698 C 0.16495 0.52583 0.34905 0.0
C699 C 0.18393 0.49995 0.33622 0.0
C700 C 0.20073 0.4646 0.34288 0.0
C701 C 0.19651 0.45462 0.36213 0.0
C702 C 0.14727 0.5641 0.3424 0.0
C703 C 0.22305 0.43745 0.32975 0.0
H704 H 0.13293 0.5035 0.27449 0.0
H705 H 0.23835 0.56854 0.28572 0.0
H706 H 0.13524 0.44432 0.31599 0.0
H707 H 0.10632 0.48665 0.32126 0.0
H708 H 0.10267 0.46401 0.29804 0.0
H709 H 0.26875 0.57026 0.31562 0.0
H710 H 0.23921 0.55819 0.33613 0.0
H711 H 0.269 0.52129 0.32524 0.0
H712 H 0.14822 0.53539 0.37836 0.0
H713 H 0.20902 0.4274 0.3674 0.0
H714 H 0.12526 0.55846 0.33102 0.0
H715 H 0.17045 0.58304 0.33617 0.0
H716 H 0.13281 0.58038 0.35419 0.0
H717 H 0.20233 0.4232 0.31969 0.0
H718 H 0.23899 0.41419 0.33775 0.0
H719 H 0.24456 0.45415 0.32107 0.0
C720 C 0.7085 0.59494 0.39057 0.0
C721 C 0.7303 0.61875 0.37816 0.0
C722 C 0.72139 0.5881 0.40928 0.0
C723 C 0.75593 0.60682 0.41576 0.0
C724 C 0.77854 0.62992 0.40307 0.0
C725 C 0.76563 0.63521 0.38427 0.0
C726 C 0.69841 0.56065 0.42199 0.0
C727 C 0.81659 0.64867 0.40929 0.0
C728 C 0.76901 0.62841 0.46843 0.0
C729 C 0.7977 0.6009 0.47342 0.0
C730 C 0.75437 0.62998 0.44968 0.0
C731 C 0.76844 0.60303 0.43588 0.0
C732 C 0.79642 0.57436 0.44105 0.0
C733 C 0.81085 0.57384 0.45972 0.0
C734 C 0.72437 0.66083 0.4445 0.0
C735 C 0.81062 0.5435 0.42717 0.0
H736 H 0.68195 0.58081 0.3855 0.0
H737 H 0.78292 0.65259 0.37441 0.0
H738 H 0.71832 0.53877 0.42866 0.0
H739 H 0.68451 0.5775 0.43372 0.0
H740 H 0.6751 0.54477 0.41403 0.0
H741 H 0.82958 0.66737 0.39793 0.0
H742 H 0.81171 0.66687 0.4222 0.0
H743 H 0.83813 0.62551 0.41312 0.0
H744 H 0.75844 0.64893 0.47906 0.0
H745 H 0.83215 0.55157 0.46361 0.0
H746 H 0.69718 0.64661 0.43921 0.0
H747 H 0.73581 0.6795 0.43275 0.0
H748 H 0.71675 0.67988 0.45681 0.0
H749 H 0.7889 0.51928 0.42669 0.0
H750 H 0.83927 0.53087 0.43166 0.0
H751 H 0.81371 0.5552 0.41246 0.0
C752 C 0.20976 1.0014 0.63779 0.0
C753 C 0.17523 0.98638 0.62975 0.0
C754 C 0.21175 1.00999 0.65731 0.0
C755 C 0.17802 1.0042 0.66875 0.0
C756 C 0.14344 0.98813 0.66067 0.0
C757 C 0.1427 0.97884 0.64123 0.0
C758 C 0.24971 0.02533 0.66561 0.0
C759 C 0.10663 0.98246 0.67233 0.0
C760 C 0.18131 1.00554 0.72282 0.0
C761 C 0.16931 0.04412 0.72664 0.0
C762 C 0.18559 0.99233 0.70397 0.0
C763 C 0.17727 0.01824 0.6887 0.0
C764 C 0.1656 0.05726 0.69244 0.0
C765 C 0.1618 0.06974 0.71137 0.0
C766 C 0.19905 0.95079 0.70037 0.0
C767 C 0.15723 0.08587 0.67642 0.0
H768 H 0.23539 1.00584 0.62885 0.0
H769 H 0.11632 0.96671 0.63487 0.0
H770 H 0.24471 0.05377 0.67288 0.0
H771 H 0.26091 1.0045 0.67652 0.0
H772 H 0.27273 0.02939 0.65454 0.0
H773 H 0.08394 0.96552 0.66447 0.0
H774 H 0.11334 0.96705 0.68591 0.0
H775 H 0.09423 1.01158 0.67603 0.0
H776 H 0.18812 0.98587 0.73454 0.0
H777 H 0.15325 0.0998 0.71419 0.0
H778 H 0.2261 0.95096 0.69156 0.0
H779 H 0.17632 0.93462 0.69219 0.0
H780 H 0.20513 0.9346 0.71384 0.0
H781 H 0.18414 0.09039 0.66778 0.0
H782 H 0.14717 0.11483 0.68177 0.0
H783 H 0.13441 0.07382 0.66675 0.0
C784 C 0.74994 0.46283 0.96791 0.0
C785 C 0.74712 0.42716 0.97774 0.0
C786 C 0.76476 0.4643 0.94936 0.0
C787 C 0.7763 0.42902 0.94045 0.0
C788 C 0.77537 0.39311 0.95067 0.0
C789 C 0.76104 0.39265 0.96945 0.0
C790 C 0.76619 0.50325 0.93905 0.0
C791 C 0.78779 0.35511 0.94142 0.0
C792 C 0.76403 0.4218 0.88704 0.0
C793 C 0.80293 0.42418 0.88088 0.0
C794 C 0.75496 0.42401 0.90645 0.0
C795 C 0.78563 0.42896 0.9199 0.0
C796 C 0.82491 0.43265 0.91374 0.0
C797 C 0.83317 0.42997 0.89422 0.0
C798 C 0.7126 0.42052 0.91257 0.0
C799 C 0.85801 0.43979 0.9277 0.0
H800 H 0.73966 0.48956 0.97464 0.0
H801 H 0.75895 0.36526 0.97727 0.0
H802 H 0.79575 0.50813 0.93287 0.0
H803 H 0.74493 0.50323 0.92703 0.0
H804 H 0.75901 0.52819 0.94862 0.0
H805 H 0.78507 0.32968 0.95126 0.0
H806 H 0.76952 0.3495 0.92856 0.0
H807 H 0.81872 0.35727 0.93659 0.0
H808 H 0.74064 0.41796 0.87668 0.0
H809 H 0.86327 0.43295 0.88943 0.0
H810 H 0.70388 0.44655 0.92105 0.0
H811 H 0.709 0.39438 0.92187 0.0
H812 H 0.69228 0.41783 0.90021 0.0
H813 H 0.85353 0.46831 0.93498 0.0
H814 H 0.88716 0.44024 0.9206 0.0
H815 H 0.85823 0.41678 0.93892 0.0
C816 C 0.36896 0.07894 0.14438 0.0
C817 C 0.35741 0.05215 0.13032 0.0
C818 C 0.36329 0.07055 0.16373 0.0
C819 C 0.34582 0.03454 0.16897 0.0
C820 C 0.33143 1.00878 0.15479 0.0
C821 C 0.33773 1.01775 0.13555 0.0
C822 C 0.37756 0.09938 0.17853 0.0
C823 C 0.31021 0.97143 0.15998 0.0
C824 C 0.38388 0.98895 0.21451 0.0
C825 C 0.35438 0.99882 0.2275 0.0
C826 C 0.38109 1.00035 0.19535 0.0
C827 C 0.34766 0.02148 0.18906 0.0
C828 C 0.31725 0.03075 0.202 0.0
C829 C 0.32126 0.01973 0.22118 0.0
C830 C 0.41405 0.99006 0.18182 0.0
C831 C 0.28088 0.0529 0.19591 0.0
H832 H 0.38312 0.10615 0.1403 0.0
H833 H 0.32714 0.99787 0.12462 0.0
H834 H 0.35487 0.10398 0.18966 0.0
H835 H 0.40406 0.08736 0.18569 0.0
H836 H 0.38516 0.12824 0.17214 0.0
H837 H 0.29861 0.95593 0.14721 0.0
H838 H 0.33045 0.95143 0.16772 0.0
H839 H 0.28537 0.97808 0.1697 0.0
H840 H 0.40937 0.97266 0.21936 0.0
H841 H 0.29804 0.02701 0.23115 0.0
H842 H 0.42683 1.01727 0.17572 0.0
H843 H 0.40252 0.97245 0.16973 0.0
H844 H 0.43784 0.97319 0.18894 0.0
H845 H 0.28639 0.08483 0.19733 0.0
H846 H 0.25544 0.04544 0.20515 0.0
H847 H 0.27281 0.04692 0.18083 0.0
C848 C 0.26874 0.44475 0.61814 0.0
C849 C 0.30547 0.42946 0.62323 0.0
C850 C 0.25888 0.45057 0.59895 0.0
C851 C 0.28614 0.43991 0.58465 0.0
C852 C 0.32427 0.42724 0.58977 0.0
C853 C 0.33352 0.42217 0.60907 0.0
C854 C 0.2185 0.46594 0.59415 0.0
C855 C 0.35452 0.41692 0.57484 0.0
C856 C 0.24426 0.39377 0.54013 0.0
C857 C 0.25082 0.42303 0.52658 0.0
C858 C 0.25582 0.39912 0.55912 0.0
C859 C 0.27296 0.43519 0.56469 0.0
C860 C 0.27861 0.46541 0.55115 0.0
C861 C 0.26805 0.45866 0.53207 0.0
C862 C 0.24975 0.36614 0.57324 0.0
C863 C 0.29441 0.50511 0.55689 0.0
H864 H 0.24747 0.45188 0.62911 0.0
H865 H 0.36241 0.41152 0.61301 0.0
H866 H 0.21842 0.48292 0.58062 0.0
H867 H 0.1981 0.44083 0.59247 0.0
H868 H 0.20701 0.48491 0.60578 0.0
H869 H 0.3837 0.41042 0.58123 0.0
H870 H 0.34459 0.39083 0.56671 0.0
H871 H 0.35786 0.44137 0.56451 0.0
H872 H 0.23028 0.36663 0.53581 0.0
H873 H 0.27188 0.48181 0.52163 0.0
H874 H 0.23017 0.376 0.58495 0.0
H875 H 0.27826 0.35774 0.57978 0.0
H876 H 0.23662 0.33975 0.5665 0.0
H877 H 0.27299 0.51988 0.56641 0.0
H878 H 0.29979 0.52439 0.54435 0.0
H879 H 0.32214 0.50195 0.56507 0.0
C880 C 0.89647 1.00278 0.28883 0.0
C881 C 0.86302 1.00327 0.27727 0.0
C882 C 0.89419 1.01376 0.30808 0.0
C883 C 0.85735 0.02409 0.316 0.0
C884 C 0.82324 0.02379 0.30445 0.0
C885 C 0.82666 1.01404 0.28509 0.0
C886 C 0.93121 1.01447 0.31998 0.0
C887 C 0.78326 0.03412 0.31234 0.0
C888 C 0.85502 1.01454 0.36972 0.0
C889 C 0.86259 0.05317 0.37538 0.0
C890 C 0.85104 1.005 0.35038 0.0
C891 C 0.85507 0.03478 0.33644 0.0
C892 C 0.86068 0.07417 0.3421 0.0
C893 C 0.86466 0.08289 0.36154 0.0
C894 C 0.84323 0.96295 0.34484 0.0
C895 C 0.86376 0.1069 0.32763 0.0
H896 H 0.92451 0.99448 0.28274 0.0
H897 H 0.8006 1.01399 0.27616 0.0
H898 H 0.93558 0.04417 0.32609 0.0
H899 H 0.92848 0.9937 0.33212 0.0
H900 H 0.95765 1.00652 0.31156 0.0
H901 H 0.75926 0.02231 0.30325 0.0
H902 H 0.77937 0.02286 0.3271 0.0
H903 H 0.78013 0.06649 0.3128 0.0
H904 H 0.85235 0.99163 0.38039 0.0
H905 H 0.86942 0.11303 0.36587 0.0
H906 H 0.86915 0.9509 0.33727 0.0
H907 H 0.81789 0.96138 0.33489 0.0
H908 H 0.837 0.94412 0.35745 0.0
H909 H 0.89236 0.10475 0.32014 0.0
H910 H 0.86168 0.13628 0.3344 0.0
H911 H 0.8403 0.10439 0.3167 0.0
C912 C 0.30677 0.634 0.04121 0.0
C913 C 0.2854 0.61504 0.02681 0.0
C914 C 0.29428 0.63276 0.06024 0.0
C915 C 0.25984 0.61176 0.06496 0.0
C916 C 0.23814 0.59242 0.05056 0.0
C917 C 0.25103 0.59457 0.03159 0.0
C918 C 0.31816 0.65357 0.07535 0.0
C919 C 0.20143 0.56947 0.05519 0.0
C920 C 0.25514 0.58531 0.11721 0.0
C921 C 0.23099 0.61521 0.12421 0.0
C922 C 0.26274 0.58222 0.09765 0.0
C923 C 0.24675 0.61054 0.08506 0.0
C924 C 0.22121 0.63996 0.09206 0.0
C925 C 0.21324 0.64163 0.11163 0.0
C926 C 0.28839 0.54919 0.09055 0.0
C927 C 0.20393 0.67095 0.07912 0.0
H928 H 0.33352 0.64957 0.03766 0.0
H929 H 0.23455 0.5795 0.02056 0.0
H930 H 0.29926 0.67418 0.08345 0.0
H931 H 0.32997 0.63189 0.08571 0.0
H932 H 0.34315 0.67021 0.06919 0.0
H933 H 0.19075 0.55223 0.04277 0.0
H934 H 0.20681 0.54914 0.06731 0.0
H935 H 0.17783 0.58994 0.05963 0.0
H936 H 0.26764 0.56398 0.127 0.0
H937 H 0.19402 0.66427 0.11719 0.0
H938 H 0.31665 0.56119 0.0853 0.0
H939 H 0.27406 0.53404 0.07838 0.0
H940 H 0.29472 0.52726 0.1019 0.0
H941 H 0.22689 0.693 0.07581 0.0
H942 H 0.17879 0.68628 0.08592 0.0
H943 H 0.19392 0.65817 0.0654 0.0
C944 C 0.66497 0.02526 0.86874 0.0
C945 C 0.67451 0.98727 0.87458 0.0
C946 C 0.66939 0.03655 0.84965 0.0
C947 C 0.6841 1.00919 0.83624 0.0
C948 C 0.69555 0.97128 0.84225 0.0
C949 C 0.69026 0.96061 0.8614 0.0
C950 C 0.65719 0.07741 0.84379 0.0
C951 C 0.71361 0.94222 0.82856 0.0
C952 C 0.65343 0.0273 0.78496 0.0
C953 C 0.68509 0.04952 0.77835 0.0
C954 C 0.65325 1.01287 0.80376 0.0
C955 C 0.68594 0.02009 0.81582 0.0
C956 C 0.71899 0.04038 0.80874 0.0
C957 C 0.71793 0.05527 0.79015 0.0
C958 C 0.61773 0.99095 0.81097 0.0
C959 C 0.75491 0.04748 0.82096 0.0
H960 H 0.65346 0.046 0.87904 0.0
H961 H 0.69904 0.93158 0.86608 0.0
H962 H 0.68018 0.09147 0.83493 0.0
H963 H 0.63011 0.07566 0.835 0.0
H964 H 0.65128 0.0965 0.85632 0.0
H965 H 0.71976 0.91349 0.83544 0.0
H966 H 0.69386 0.9374 0.81617 0.0
H967 H 0.74156 0.95413 0.82288 0.0
H968 H 0.62842 0.02234 0.77567 0.0
H969 H 0.74305 0.07141 0.7848 0.0
H970 H 0.6046 1.00698 0.82319 0.0
H971 H 0.62653 0.96155 0.81628 0.0
H972 H 0.59497 0.98722 0.79974 0.0
H973 H 0.7475 0.06784 0.83277 0.0
H974 H 0.77951 0.06036 0.81265 0.0
H975 H 0.7651 0.01968 0.82756 0.0
C976 C 0.19297 0.43922 0.17086 0.0
C977 C 0.21158 0.47565 0.16842 0.0
C978 C 0.20387 0.40605 0.15978 0.0
C979 C 0.23515 0.40863 0.14637 0.0
C980 C 0.25442 0.44527 0.14421 0.0
C981 C 0.24222 0.47806 0.155 0.0
C982 C 0.18108 0.36846 0.162 0.0
C983 C 0.28707 0.45041 0.12987 0.0
C984 C 0.28955 0.31841 0.12556 0.0
C985 C 0.27239 0.3148 0.10736 0.0
C986 C 0.2765 0.34746 0.13873 0.0
C987 C 0.24612 0.37427 0.1336 0.0
C988 C 0.22786 0.36964 0.11554 0.0
C989 C 0.24024 0.33956 0.10312 0.0
C990 C 0.29633 0.35061 0.15793 0.0
C991 C 0.19559 0.39689 0.10887 0.0
H992 H 0.16896 0.43699 0.18094 0.0
H993 H 0.2569 0.50592 0.15289 0.0
H994 H 0.16726 0.36055 0.14816 0.0
H995 H 0.20126 0.34421 0.16596 0.0
H996 H 0.15772 0.37081 0.173 0.0
H997 H 0.30188 0.47928 0.13128 0.0
H998 H 0.30935 0.42691 0.13157 0.0
H999 H 0.27488 0.44806 0.11519 0.0
H1000 H 0.31421 0.29977 0.12921 0.0
H1001 H 0.22561 0.33662 0.08943 0.0
H1002 H 0.27402 0.35023 0.16947 0.0
H1003 H 0.31213 0.37899 0.15891 0.0
H1004 H 0.31757 0.32641 0.16043 0.0
H1005 H 0.16723 0.38692 0.11494 0.0
H1006 H 0.19282 0.39695 0.09305 0.0
H1007 H 0.2006 0.4275 0.11363 0.0
C1008 C 0.43542 0.53422 0.35554 0.0
C1009 C 0.47501 0.52314 0.35811 0.0
C1010 C 0.40531 0.52117 0.36777 0.0
C1011 C 0.41455 0.4977 0.38387 0.0
C1012 C 0.45468 0.48803 0.38724 0.0
C1013 C 0.48435 0.50041 0.37425 0.0
C1014 C 0.36326 0.53124 0.3629 0.0
C1015 C 0.46596 0.46278 0.40406 0.0
C1016 C 0.33692 0.49394 0.42383 0.0
C1017 C 0.31572 0.45986 0.41938 0.0
C1018 C 0.36921 0.50622 0.41259 0.0
C1019 C 0.38195 0.48321 0.39686 0.0
C1020 C 0.36137 0.4479 0.39278 0.0
C1021 C 0.32816 0.43724 0.40375 0.0
C1022 C 0.38878 0.54476 0.41711 0.0
C1023 C 0.3732 0.42188 0.37634 0.0
H1024 H 0.4276 0.55148 0.34308 0.0
H1025 H 0.5144 0.4908 0.37624 0.0
H1026 H 0.34583 0.50399 0.36117 0.0
H1027 H 0.34986 0.54819 0.37473 0.0
H1028 H 0.36076 0.5486 0.34951 0.0
H1029 H 0.49828 0.46101 0.40597 0.0
H1030 H 0.45266 0.47439 0.41737 0.0
H1031 H 0.45431 0.43271 0.40191 0.0
H1032 H 0.32707 0.51207 0.4356 0.0
H1033 H 0.31181 0.41104 0.40007 0.0
H1034 H 0.38475 0.56531 0.40495 0.0
H1035 H 0.42082 0.54039 0.41904 0.0
H1036 H 0.37664 0.55861 0.43019 0.0
H1037 H 0.35989 0.43328 0.36296 0.0
H1038 H 0.36272 0.39132 0.37844 0.0
H1039 H 0.40552 0.42134 0.37443 0.0
C1040 C 0.26178 0.72568 0.62624 0.0
C1041 C 0.25665 0.71711 0.6067 0.0
C1042 C 0.27292 0.69606 0.63963 0.0
C1043 C 0.2812 0.65712 0.63339 0.0
C1044 C 0.27543 0.64831 0.61383 0.0
C1045 C 0.26144 0.6774 0.60123 0.0
C1046 C 0.27615 0.70656 0.66048 0.0
C1047 C 0.28451 0.60805 0.60592 0.0
C1048 C 0.34899 0.58853 0.66266 0.0
C1049 C 0.32276 0.55989 0.6693 0.0
C1050 C 0.33592 0.62055 0.65132 0.0
C1051 C 0.2953 0.62518 0.64701 0.0
C1052 C 0.26867 0.59677 0.65429 0.0
C1053 C 0.28274 0.56438 0.66497 0.0
C1054 C 0.36595 0.64823 0.64305 0.0
C1055 C 0.22508 0.6006 0.65088 0.0
H1056 H 0.25767 0.75556 0.63108 0.0
H1057 H 0.25489 0.66857 0.58672 0.0
H1058 H 0.26223 0.68362 0.66948 0.0
H1059 H 0.30753 0.70825 0.66463 0.0
H1060 H 0.26214 0.73524 0.66365 0.0
H1061 H 0.28598 0.60809 0.59005 0.0
H1062 H 0.31293 0.59703 0.61155 0.0
H1063 H 0.26137 0.58705 0.6103 0.0
H1064 H 0.38004 0.58491 0.66559 0.0
H1065 H 0.26227 0.54232 0.66998 0.0
H1066 H 0.35919 0.6788 0.64727 0.0
H1067 H 0.36476 0.64695 0.6272 0.0
H1068 H 0.39627 0.64105 0.64776 0.0
H1069 H 0.21422 0.6276 0.65796 0.0
H1070 H 0.20844 0.57508 0.65651 0.0
H1071 H 0.21862 0.60359 0.63542 0.0
C1072 C 0.22723 0.54162 0.90457 0.0
C1073 C 0.22569 0.57131 0.91848 0.0
C1074 C 0.19353 0.53 0.8942 0.0
C1075 C 0.15704 0.54923 0.89721 0.0
C1076 C 0.15531 0.57927 0.91127 0.0
C1077 C 0.18931 0.58942 0.92191 0.0
C1078 C 0.19749 0.49776 0.87957 0.0
C1079 C 0.11761 0.60124 0.91484 0.0
C1080 C 0.08636 0.54895 0.85445 0.0
C1081 C 0.06125 0.51698 0.85825 0.0
C1082 C 0.1168 0.55996 0.86703 0.0
C1083 C 0.12189 0.5399 0.8846 0.0
C1084 C 0.09473 0.50966 0.88933 0.0
C1085 C 0.06506 0.49832 0.87609 0.0
C1086 C 0.14493 0.59183 0.86095 0.0
C1087 C 0.09841 0.48775 0.90796 0.0
H1088 H 0.25498 0.5271 0.90183 0.0
H1089 H 0.18764 0.61242 0.93255 0.0
H1090 H 0.17263 0.47688 0.8806 0.0
H1091 H 0.19692 0.51074 0.86503 0.0
H1092 H 0.22537 0.48118 0.88128 0.0
H1093 H 0.12129 0.625 0.92554 0.0
H1094 H 0.10662 0.61433 0.90133 0.0
H1095 H 0.09481 0.58061 0.92001 0.0
H1096 H 0.08356 0.56423 0.84092 0.0
H1097 H 0.04629 0.47355 0.87931 0.0
H1098 H 0.17489 0.57943 0.85945 0.0
H1099 H 0.14639 0.61505 0.87201 0.0
H1100 H 0.13644 0.60547 0.84712 0.0
H1101 H 0.12504 0.46901 0.90759 0.0
H1102 H 0.07251 0.46884 0.91076 0.0
H1103 H 0.10195 0.50858 0.92001 0.0
C1104 C 0.84536 0.59641 0.83434 0.0
C1105 C 0.82058 0.56357 0.83339 0.0
C1106 C 0.83555 0.62946 0.84569 0.0
C1107 C 0.79964 0.6303 0.85606 0.0
C1108 C 0.77398 0.59767 0.85446 0.0
C1109 C 0.78492 0.56482 0.84342 0.0
C1110 C 0.86445 0.66279 0.84719 0.0
C1111 C 0.7352 0.59694 0.86485 0.0
C1112 C 0.7925 0.68946 0.90249 0.0
C1113 C 0.76669 0.72056 0.89785 0.0
C1114 C 0.80314 0.66035 0.88918 0.0
C1115 C 0.79031 0.66312 0.86999 0.0
C1116 C 0.76695 0.696 0.86464 0.0
C1117 C 0.75504 0.72394 0.87859 0.0
C1118 C 0.82705 0.62566 0.89598 0.0
C1119 C 0.75415 0.70135 0.84418 0.0
H1120 H 0.8732 0.5956 0.82687 0.0
H1121 H 0.76545 0.53971 0.84271 0.0
H1122 H 0.84922 0.69143 0.84583 0.0
H1123 H 0.87871 0.66206 0.86144 0.0
H1124 H 0.88773 0.66092 0.83613 0.0
H1125 H 0.71866 0.56936 0.86229 0.0
H1126 H 0.74009 0.60019 0.88044 0.0
H1127 H 0.7168 0.62201 0.86012 0.0
H1128 H 0.80392 0.68701 0.91689 0.0
H1129 H 0.7357 0.74771 0.87447 0.0
H1130 H 0.85557 0.62484 0.88838 0.0
H1131 H 0.81142 0.59793 0.89268 0.0
H1132 H 0.83282 0.62656 0.91161 0.0
H1133 H 0.78042 0.70536 0.83502 0.0
H1134 H 0.73453 0.7271 0.84232 0.0
H1135 H 0.7387 0.67475 0.83902 0.0
C1136 C 0.69262 0.5946 0.58371 0.0
C1137 C 0.72746 0.57251 0.58381 0.0
C1138 C 0.65952 0.58319 0.59472 0.0
C1139 C 0.66053 0.54817 0.60581 0.0
C1140 C 0.6953 0.52513 0.60534 0.0
C1141 C 0.72818 0.53773 0.59462 0.0
C1142 C 0.62404 0.60963 0.59506 0.0
C1143 C 0.69827 0.48752 0.61663 0.0
C1144 C 0.59777 0.54334 0.65125 0.0
C1145 C 0.56882 0.51471 0.64718 0.0
C1146 C 0.62769 0.5534 0.63825 0.0
C1147 C 0.62742 0.53783 0.61954 0.0
C1148 C 0.59633 0.51183 0.61448 0.0
C1149 C 0.56797 0.5 0.62837 0.0
C1150 C 0.6605 0.57991 0.64493 0.0
C1151 C 0.5932 0.49642 0.59437 0.0
H1152 H 0.69173 0.62168 0.57559 0.0
H1153 H 0.75473 0.52018 0.59473 0.0
H1154 H 0.59664 0.59225 0.59379 0.0
H1155 H 0.62297 0.62539 0.6089 0.0
H1156 H 0.62481 0.63179 0.58342 0.0
H1157 H 0.72703 0.47268 0.61468 0.0
H1158 H 0.69414 0.49366 0.63207 0.0
H1159 H 0.67463 0.4671 0.61219 0.0
H1160 H 0.59803 0.55757 0.66506 0.0
H1161 H 0.54579 0.47865 0.62455 0.0
H1162 H 0.65987 0.60781 0.63679 0.0
H1163 H 0.68939 0.56587 0.64226 0.0
H1164 H 0.65845 0.58679 0.66041 0.0
H1165 H 0.58806 0.52128 0.58442 0.0
H1166 H 0.56888 0.47501 0.59274 0.0
H1167 H 0.62112 0.48226 0.59004 0.0
C1168 C 0.73203 0.48196 0.35592 0.0
C1169 C 0.71024 0.47844 0.3389 0.0
C1170 C 0.74364 0.44874 0.36672 0.0
C1171 C 0.73305 0.41038 0.36066 0.0
C1172 C 0.71055 0.4067 0.34361 0.0
C1173 C 0.69986 0.44047 0.3329 0.0
C1174 C 0.76764 0.45488 0.38461 0.0
C1175 C 0.69689 0.36699 0.33688 0.0
C1176 C 0.79132 0.32289 0.38215 0.0
C1177 C 0.76738 0.31119 0.39749 0.0
C1178 C 0.77999 0.354 0.36967 0.0
C1179 C 0.74403 0.37453 0.37257 0.0
C1180 C 0.71913 0.36163 0.38752 0.0
C1181 C 0.73077 0.33023 0.39947 0.0
C1182 C 0.80735 0.36615 0.35383 0.0
C1183 C 0.68106 0.38258 0.39178 0.0
H1184 H 0.74055 0.51091 0.36076 0.0
H1185 H 0.6828 0.43711 0.31993 0.0
H1186 H 0.75426 0.43917 0.39686 0.0
H1187 H 0.79747 0.44257 0.3825 0.0
H1188 H 0.77048 0.4864 0.38838 0.0
H1189 H 0.68194 0.36847 0.32278 0.0
H1190 H 0.72213 0.34653 0.33584 0.0
H1191 H 0.67612 0.3545 0.34746 0.0
H1192 H 0.81985 0.30925 0.38051 0.0
H1193 H 0.71189 0.32191 0.41125 0.0
H1194 H 0.81782 0.3965 0.3564 0.0
H1195 H 0.79148 0.36624 0.33997 0.0
H1196 H 0.8332 0.34642 0.35269 0.0
H1197 H 0.68758 0.41177 0.39801 0.0
H1198 H 0.66254 0.36608 0.40206 0.0
H1199 H 0.66397 0.38752 0.37849 0.0
C1200 C 0.81192 0.47987 0.1034 0.0
C1201 C 0.81411 0.46012 0.08575 0.0
C1202 C 0.8458 0.49107 0.11373 0.0
C1203 C 0.88375 0.48255 0.10646 0.0
C1204 C 0.88631 0.46279 0.08859 0.0
C1205 C 0.85172 0.45201 0.07847 0.0
C1206 C 0.84068 0.51136 0.13274 0.0
C1207 C 0.92575 0.45229 0.08032 0.0
C1208 C 0.96887 0.54182 0.12918 0.0
C1209 C 0.98325 0.51591 0.1432 0.0
C1210 C 0.93808 0.53074 0.11651 0.0
C1211 C 0.92033 0.49304 0.11796 0.0
C1212 C 0.93602 0.46625 0.13148 0.0
C1213 C 0.96735 0.47768 0.14355 0.0
C1214 C 0.92282 0.56033 0.1023 0.0
C1215 C 0.91767 0.42642 0.13443 0.0
H1216 H 0.78337 0.48684 0.10926 0.0
H1217 H 0.85419 0.4368 0.06494 0.0
H1218 H 0.84981 0.49124 0.1444 0.0
H1219 H 0.85955 0.53779 0.1336 0.0
H1220 H 0.80976 0.52029 0.13529 0.0
H1221 H 0.92329 0.44016 0.06565 0.0
H1222 H 0.94504 0.4785 0.07997 0.0
H1223 H 0.94023 0.43012 0.08957 0.0
H1224 H 0.97985 0.57163 0.12894 0.0
H1225 H 0.97747 0.45742 0.15445 0.0
H1226 H 0.89265 0.56933 0.10635 0.0
H1227 H 0.92109 0.54701 0.08786 0.0
H1228 H 0.94159 0.58691 0.1016 0.0
H1229 H 0.88937 0.42998 0.14208 0.0
H1230 H 0.93675 0.40673 0.14305 0.0
H1231 H 0.91126 0.41206 0.12057 0.0
C1232 C 0.79458 0.81912 0.62797 0.0
C1233 C 0.7783 0.81623 0.60957 0.0
C1234 C 0.78171 0.84857 0.64097 0.0
C1235 C 0.75276 0.87651 0.63532 0.0
C1236 C 0.73518 0.8724 0.61712 0.0
C1237 C 0.74708 0.84188 0.60494 0.0
C1238 C 0.79988 0.85067 0.66058 0.0
C1239 C 0.70551 0.90184 0.60982 0.0
C1240 C 0.69763 0.94269 0.67096 0.0
C1241 C 0.71723 0.97869 0.66895 0.0
C1242 C 0.70907 0.9092 0.66038 0.0
C1243 C 0.74179 0.91108 0.64783 0.0
C1244 C 0.76206 0.9473 0.64604 0.0
C1245 C 0.74934 0.98053 0.65639 0.0
C1246 C 0.6853 0.87208 0.66216 0.0
C1247 C 0.79699 0.9512 0.63293 0.0
H1248 H 0.81836 0.79961 0.63193 0.0
H1249 H 0.73327 0.8396 0.59102 0.0
H1250 H 0.81446 0.87946 0.66258 0.0
H1251 H 0.77658 0.84835 0.6716 0.0
H1252 H 0.82174 0.82699 0.66301 0.0
H1253 H 0.69154 0.89232 0.59625 0.0
H1254 H 0.68219 0.90705 0.62056 0.0
H1255 H 0.72038 0.93029 0.60721 0.0
H1256 H 0.67254 0.94097 0.68044 0.0
H1257 H 0.76487 1.00806 0.65474 0.0
H1258 H 0.70472 0.84712 0.66597 0.0
H1259 H 0.67149 0.86504 0.64821 0.0
H1260 H 0.66178 0.8746 0.67307 0.0
H1261 H 0.81979 0.92944 0.63695 0.0
H1262 H 0.81017 0.98098 0.63344 0.0
H1263 H 0.78808 0.94489 0.618 0.0
C1264 C 0.96456 0.98221 0.85858 0.0
C1265 C 0.97977 0.02068 0.85861 0.0
C1266 C 0.93346 0.97066 0.8707 0.0
C1267 C 0.9166 0.99798 0.88357 0.0
C1268 C 0.93318 0.03626 0.88447 0.0
C1269 C 0.96435 0.04716 0.87203 0.0
C1270 C 0.91712 0.9297 0.86881 0.0
C1271 C 0.91671 0.06631 0.89807 0.0
C1272 C 0.8086 0.98238 0.89826 0.0
C1273 C 0.81171 0.96609 0.91669 0.0
C1274 C 0.84214 0.99293 0.88751 0.0
C1275 C 0.8804 0.98717 0.89516 0.0
C1276 C 0.88375 0.9703 0.91368 0.0
C1277 C 0.84961 0.96012 0.92417 0.0
C1278 C 0.83649 1.0102 0.86782 0.0
C1279 C 0.92353 0.96231 0.92234 0.0
H1280 H 0.97565 0.96149 0.84816 0.0
H1281 H 0.975 0.07709 0.87204 0.0
H1282 H 0.91197 0.91642 0.88306 0.0
H1283 H 0.88842 0.93097 0.86132 0.0
H1284 H 0.93696 0.91021 0.86055 0.0
H1285 H 0.93224 0.09486 0.89708 0.0
H1286 H 0.88508 0.0711 0.89503 0.0
H1287 H 0.91899 0.05529 0.91296 0.0
H1288 H 0.7797 0.98706 0.89216 0.0
H1289 H 0.85271 0.94734 0.93828 0.0
H1290 H 0.85026 0.99088 0.85699 0.0
H1291 H 0.85122 0.03915 0.86691 0.0
H1292 H 0.80499 1.01398 0.86409 0.0
H1293 H 0.93888 0.93959 0.91382 0.0
H1294 H 0.92145 0.95194 0.93736 0.0
H1295 H 0.94186 0.98917 0.92194 0.0
C1296 C 0.7955 0.05972 0.15252 0.0
C1297 C 0.81967 0.06279 0.16878 0.0
C1298 C 0.78361 0.09296 0.14195 0.0
C1299 C 0.79611 0.13096 0.14753 0.0
C1300 C 0.82039 0.13437 0.16401 0.0
C1301 C 0.83159 0.10045 0.17448 0.0
C1302 C 0.75821 0.08711 0.12448 0.0
C1303 C 0.83483 0.17394 0.17052 0.0
C1304 C 0.79858 0.20797 0.10752 0.0
C1305 C 0.7621 0.22729 0.10927 0.0
C1306 C 0.81019 0.17756 0.11999 0.0
C1307 C 0.78563 0.16644 0.13539 0.0
C1308 C 0.75001 0.1876 0.13815 0.0
C1309 C 0.73849 0.21742 0.12502 0.0
C1310 C 0.84788 0.15573 0.11595 0.0
C1311 C 0.72299 0.1772 0.15442 0.0
H1312 H 0.7856 0.03103 0.148 0.0
H1313 H 0.85016 0.10342 0.18697 0.0
H1314 H 0.73187 0.10619 0.12521 0.0
H1315 H 0.77483 0.09558 0.1115 0.0
H1316 H 0.74846 0.0562 0.12287 0.0
H1317 H 0.85517 0.17172 0.18289 0.0
H1318 H 0.85018 0.18912 0.15866 0.0
H1319 H 0.80943 0.19247 0.17462 0.0
H1320 H 0.8173 0.21516 0.09549 0.0
H1321 H 0.71011 0.23143 0.12653 0.0
H1322 H 0.84117 0.1248 0.11228 0.0
H1323 H 0.86683 0.15532 0.12885 0.0
H1324 H 0.86464 0.16891 0.10395 0.0
H1325 H 0.70927 0.14827 0.15162 0.0
H1326 H 0.69934 0.19928 0.15631 0.0
H1327 H 0.73979 0.17462 0.16797 0.0
C1328 C 0.71835 0.03594 0.41709 0.0
C1329 C 0.72367 0.07553 0.4219 0.0
C1330 C 0.68467 0.02302 0.40709 0.0
C1331 C 0.65596 0.05049 0.40084 0.0
C1332 C 0.66115 0.0906 0.40588 0.0
C1333 C 0.6944 0.10243 0.41665 0.0
C1334 C 0.68083 0.97995 0.40253 0.0
C1335 C 0.63276 0.12146 0.39895 0.0
C1336 C 0.60714 0.02143 0.35382 0.0
C1337 C 0.56721 1.01451 0.35843 0.0
C1338 C 0.63478 0.03516 0.3671 0.0
C1339 C 0.62461 0.03823 0.38658 0.0
C1340 C 0.5855 0.0282 0.39201 0.0
C1341 C 0.55709 1.01731 0.37791 0.0
C1342 C 0.67505 0.04694 0.36 0.0
C1343 C 0.57402 0.02823 0.41279 0.0
H1344 H 0.74085 1.01493 0.42106 0.0
H1345 H 0.69851 0.13313 0.42013 0.0
H1346 H 0.64989 0.97017 0.40389 0.0
H1347 H 0.69016 0.97464 0.38758 0.0
H1348 H 0.69952 0.96166 0.41204 0.0
H1349 H 0.64122 0.15139 0.40365 0.0
H1350 H 0.63135 0.12106 0.3831 0.0
H1351 H 0.60285 0.11502 0.40433 0.0
H1352 H 0.61753 1.01654 0.33947 0.0
H1353 H 0.52716 1.01117 0.38216 0.0
H1354 H 0.69749 0.02608 0.36534 0.0
H1355 H 0.68289 0.07649 0.36544 0.0
H1356 H 0.67673 0.04757 0.34414 0.0
H1357 H 0.59154 1.00577 0.42052 0.0
H1358 H 0.54235 0.02178 0.41484 0.0
H1359 H 0.58085 0.05696 0.41939 0.0
C1360 C 0.23726 0.18873 0.39136 0.0
C1361 C 0.25592 0.22554 0.39242 0.0
C1362 C 0.25138 0.15822 0.37959 0.0
C1363 C 0.28488 0.16429 0.36795 0.0
C1364 C 0.30283 0.20201 0.36818 0.0
C1365 C 0.28847 0.23194 0.38049 0.0
C1366 C 0.23174 0.11859 0.38061 0.0
C1367 C 0.33839 0.21013 0.356 0.0
C1368 C 0.3413 0.07063 0.35366 0.0
C1369 C 0.32823 0.06379 0.33489 0.0
C1370 C 0.32894 0.10389 0.36418 0.0
C1371 C 0.30153 0.13075 0.35614 0.0
C1372 C 0.28827 0.12391 0.33717 0.0
C1373 C 0.30211 0.09107 0.32675 0.0
C1374 C 0.34464 0.10964 0.38415 0.0
C1375 C 0.25795 0.15036 0.32814 0.0
H1376 H 0.21297 0.18282 0.40095 0.0
H1377 H 0.30406 0.25954 0.38156 0.0
H1378 H 0.22607 0.10702 0.36606 0.0
H1379 H 0.25149 0.09752 0.38796 0.0
H1380 H 0.20356 0.11965 0.38856 0.0
H1381 H 0.34988 0.2403 0.35808 0.0
H1382 H 0.36203 0.18882 0.35941 0.0
H1383 H 0.33079 0.2062 0.3407 0.0
H1384 H 0.36132 0.04981 0.36019 0.0
H1385 H 0.2911 0.08584 0.31244 0.0
H1386 H 0.32096 0.10401 0.39466 0.0
H1387 H 0.35457 0.14034 0.38617 0.0
H1388 H 0.36953 0.08961 0.38737 0.0
H1389 H 0.22961 0.1469 0.33576 0.0
H1390 H 0.25321 0.14356 0.31279 0.0
H1391 H 0.26684 0.18152 0.3295 0.0
C1392 C 0.06701 0.99684 0.12707 0.0
C1393 C 0.06246 1.01485 0.14499 0.0
C1394 C 0.09634 1.00968 0.11399 0.0
C1395 C 0.12247 0.04066 0.11898 0.0
C1396 C 0.11665 0.05995 0.13667 0.0
C1397 C 0.0864 0.04762 0.14902 0.0
C1398 C 0.10065 0.98888 0.09513 0.0
C1399 C 0.14321 0.09296 0.14302 0.0
C1400 C 0.22765 0.04363 0.09909 0.0
C1401 C 0.22583 0.07317 0.08505 0.0
C1402 C 0.19428 0.03222 0.10969 0.0
C1403 C 0.15762 0.05107 0.10661 0.0
C1404 C 0.15565 0.0813 0.09261 0.0
C1405 C 0.18945 0.09151 0.08183 0.0
C1406 C 0.19864 1.00054 0.12464 0.0
C1407 C 0.1179 0.10333 0.08918 0.0
H1408 H 0.04902 0.97162 0.12364 0.0
H1409 H 0.08285 0.06256 0.16258 0.0
H1410 H 0.10223 1.01051 0.08329 0.0
H1411 H 0.12851 0.972 0.09505 0.0
H1412 H 0.07594 0.96843 0.09234 0.0
H1413 H 0.1393 0.10011 0.15839 0.0
H1414 H 0.17452 0.08546 0.14063 0.0
H1415 H 0.1366 0.11961 0.13451 0.0
H1416 H 0.25545 0.02914 0.10183 0.0
H1417 H 0.18759 0.1146 0.07121 0.0
H1418 H 0.17702 0.97682 0.12202 0.0
H1419 H 0.19242 1.01287 0.13899 0.0
H1420 H 0.22858 0.98758 0.12482 0.0
H1421 H 0.09535 0.08295 0.08353 0.0
H1422 H 0.12167 0.12788 0.0789 0.0
H1423 H 0.10656 0.11535 0.10282 0.0
C1424 C 0.30222 0.83996 0.8883 0.0
C1425 C 0.27815 0.80769 0.89278 0.0
C1426 C 0.28915 0.87096 0.8764 0.0
C1427 C 0.25067 0.87034 0.86857 0.0
C1428 C 0.22662 0.83719 0.87248 0.0
C1429 C 0.24049 0.80654 0.88453 0.0
C1430 C 0.31587 0.90561 0.87318 0.0
C1431 C 0.18539 0.83501 0.86467 0.0
C1432 C 0.20591 0.97123 0.85612 0.0
C1433 C 0.21006 0.97328 0.83614 0.0
C1434 C 0.21753 0.93766 0.86664 0.0
C1435 C 0.23517 0.90523 0.8572 0.0
C1436 C 0.23934 0.90713 0.837 0.0
C1437 C 0.22635 0.94069 0.82675 0.0
C1438 C 0.21133 0.93725 0.88799 0.0
C1439 C 0.259 0.87429 0.82624 0.0
H1440 H 0.33065 0.84221 0.89521 0.0
H1441 H 0.22094 0.78281 0.88844 0.0
H1442 H 0.317 0.91326 0.85777 0.0
H1443 H 0.30418 0.9315 0.88089 0.0
H1444 H 0.34621 0.89994 0.87834 0.0
H1445 H 0.16947 0.80859 0.86977 0.0
H1446 H 0.16855 0.86149 0.86889 0.0
H1447 H 0.1863 0.83445 0.84883 0.0
H1448 H 0.19339 0.99608 0.8636 0.0
H1449 H 0.23038 0.942 0.81141 0.0
H1450 H 0.24013 0.93806 0.89538 0.0
H1451 H 0.19636 0.90981 0.89239 0.0
H1452 H 0.19358 0.96264 0.89292 0.0
H1453 H 0.29052 0.87312 0.83025 0.0
H1454 H 0.2568 0.87819 0.81051 0.0
H1455 H 0.24582 0.84567 0.83017 0.0
C1456 C 0.44843 0.04991 0.63461 0.0
C1457 C 0.47703 0.02411 0.64181 0.0
C1458 C 0.41818 0.03687 0.62229 0.0
C1459 C 0.41581 0.9967 0.61703 0.0
C1460 C 0.4453 0.9707 0.62389 0.0
C1461 C 0.47536 0.98465 0.63614 0.0
C1462 C 0.38731 0.06578 0.61587 0.0
C1463 C 0.44403 0.92765 0.619 0.0
C1464 C 0.31375 0.95571 0.60477 0.0
C1465 C 0.31398 0.95386 0.58465 0.0
C1466 C 0.34647 0.96903 0.61533 0.0
C1467 C 0.38097 0.98139 0.60572 0.0
C1468 C 0.38164 0.97942 0.58541 0.0
C1469 C 0.34838 0.96561 0.57516 0.0
C1470 C 0.34382 0.97017 0.63687 0.0
C1471 C 0.4172 0.99307 0.57447 0.0
H1472 H 0.44847 0.08006 0.63951 0.0
H1473 H 0.49635 0.96418 0.64218 0.0
H1474 H 0.38186 0.06299 0.6003 0.0
H1475 H 0.35926 0.05942 0.62329 0.0
H1476 H 0.39578 0.09654 0.61906 0.0
H1477 H 0.46776 0.91079 0.62618 0.0
H1478 H 0.41532 0.91496 0.62321 0.0
H1479 H 0.44695 0.9239 0.60332 0.0
H1480 H 0.28753 0.94696 0.61243 0.0
H1481 H 0.34894 0.96515 0.55968 0.0
H1482 H 0.3478 1.00066 0.64201 0.0
H1483 H 0.36767 0.95222 0.64324 0.0
H1484 H 0.3152 0.95911 0.64223 0.0
H1485 H 0.4211 0.02509 0.57657 0.0
H1486 H 0.4146 0.98714 0.55892 0.0
H1487 H 0.44402 0.97843 0.58 0.0
C1488 C 0.60505 1.00734 0.98741 0.0
C1489 C 0.60021 0.9755 0.97467 0.0
C1490 C 0.57323 0.02494 0.99739 0.0
C1491 C 0.53443 1.01001 0.99559 0.0
C1492 C 0.52916 0.97758 0.98284 0.0
C1493 C 0.56157 0.96144 0.97236 0.0
C1494 C 0.58141 0.06022 0.00976 0.0
C1495 C 0.48913 0.95968 0.98004 0.0
C1496 C 0.462 0.03803 0.03691 0.0
C1497 C 0.43729 0.06662 0.02861 0.0
C1498 C 0.49236 0.01878 0.02634 0.0
C1499 C 0.50004 0.02876 0.00688 0.0
C1500 C 0.47557 0.05811 0.99856 0.0
C1501 C 0.4446 0.07587 0.00924 0.0
C1502 C 0.51575 0.98685 0.036 0.0
C1503 C 0.48265 0.07162 0.97833 0.0
H1504 H 0.63421 0.01935 0.98939 0.0
H1505 H 0.55666 0.93713 0.9627 0.0
H1506 H 0.56014 0.08403 0.00658 0.0
H1507 H 0.57791 0.05222 0.02502 0.0
H1508 H 0.61158 0.07176 0.00767 0.0
H1509 H 0.4913 0.92885 0.97503 0.0
H1510 H 0.47169 0.96034 0.99342 0.0
H1511 H 0.47295 0.97662 0.96901 0.0
H1512 H 0.45668 0.02952 0.0516 0.0
H1513 H 0.42613 0.09757 0.00236 0.0
H1514 H 0.54633 0.99688 0.0383 0.0
H1515 H 0.51697 0.96043 0.02676 0.0
H1516 H 0.50313 0.97847 0.05005 0.0
H1517 H 0.5115 0.08663 0.97755 0.0
H1518 H 0.45956 0.09215 0.97323 0.0
H1519 H 0.48386 0.04619 0.9685 0.0
C1520 C 0.74943 0.68334 0.26281 0.0
C1521 C 0.724 0.68808 0.27864 0.0
C1522 C 0.76627 0.71559 0.25282 0.0
C1523 C 0.75772 0.75485 0.25823 0.0
C1524 C 0.73126 0.76004 0.27387 0.0
C1525 C 0.71532 0.72704 0.28393 0.0
C1526 C 0.79402 0.70738 0.23652 0.0
C1527 C 0.71892 0.80072 0.27972 0.0
C1528 C 0.82988 0.8397 0.24474 0.0
C1529 C 0.8151 0.85401 0.22723 0.0
C1530 C 0.81205 0.80762 0.25463 0.0
C1531 C 0.77686 0.78993 0.24769 0.0
C1532 C 0.7612 0.80519 0.23027 0.0
C1533 C 0.78078 0.83591 0.22019 0.0
C1534 C 0.83147 0.79206 0.27246 0.0
C1535 C 0.72359 0.78924 0.22197 0.0
H1536 H 0.757 0.65392 0.25829 0.0
H1537 H 0.69561 0.73186 0.29583 0.0
H1538 H 0.78354 0.7221 0.22333 0.0
H1539 H 0.82343 0.71955 0.23992 0.0
H1540 H 0.79711 0.67552 0.23358 0.0
H1541 H 0.69917 0.80046 0.29233 0.0
H1542 H 0.74505 0.81883 0.28308 0.0
H1543 H 0.70344 0.81512 0.26762 0.0
H1544 H 0.85606 0.85318 0.25059 0.0
H1545 H 0.76823 0.84676 0.20696 0.0
H1546 H 0.83888 0.76061 0.27049 0.0
H1547 H 0.81096 0.79394 0.28472 0.0
H1548 H 0.85872 0.8083 0.27609 0.0
H1549 H 0.73058 0.76445 0.21231 0.0
H1550 H 0.70806 0.81192 0.2134 0.0
H1551 H 0.70339 0.77842 0.23323 0.0
C1552 C 0.9744 0.08093 0.47652 0.0
C1553 C 0.93646 0.06457 0.47769 0.0
C1554 C 1.00696 0.06504 0.487 0.0
C1555 C 1.00278 0.03021 0.49825 0.0
C1556 C 0.96469 1.01314 0.4989 0.0
C1557 C 0.93239 0.03099 0.4893 0.0
C1558 C 0.04586 0.08597 0.48597 0.0
C1559 C 0.95746 0.97559 0.50973 0.0
C1560 C 0.0951 0.96625 0.50986 0.0
C1561 C 0.1011 0.97179 0.52965 0.0
C1562 C 0.06389 0.98488 0.49966 0.0
C1563 C 0.03767 1.01112 0.50903 0.0
C1564 C 0.04386 1.01719 0.52898 0.0
C1565 C 0.07484 0.99751 0.53892 0.0
C1566 C 0.05851 0.97575 0.47875 0.0
C1567 C 1.0183 0.04553 0.53984 0.0
H1568 H 0.97852 0.10697 0.46787 0.0
H1569 H 0.90361 1.01781 0.49058 0.0
H1570 H 0.062 0.08405 0.49973 0.0
H1571 H 0.06423 0.0722 0.47476 0.0
H1572 H 0.04199 0.11738 0.48219 0.0
H1573 H 0.93211 0.9595 0.50366 0.0
H1574 H 0.98335 0.95584 0.50942 0.0
H1575 H 0.95076 0.98256 0.52486 0.0
H1576 H 0.11477 0.94684 0.50223 0.0
H1577 H 0.079 1.00307 0.55403 0.0
H1578 H 0.06214 1.00285 0.47017 0.0
H1579 H 0.02829 0.96474 0.47619 0.0
H1580 H 0.07983 0.95353 0.47357 0.0
H1581 H 0.0226 0.07553 0.53402 0.0
H1582 H 0.02514 0.04582 0.55536 0.0
H1583 H 0.98688 0.03801 0.53795 0.0
C1584 C 0.70492 0.22165 0.72901 0.0
C1585 C 0.72672 0.18727 0.72548 0.0
C1586 C 0.72048 0.25324 0.74018 0.0
C1587 C 0.75961 0.25179 0.74759 0.0
C1588 C 0.78167 0.21726 0.7438 0.0
C1589 C 0.765 0.18578 0.73326 0.0
C1590 C 0.69459 0.28815 0.74412 0.0
C1591 C 0.82334 0.21338 0.75093 0.0
C1592 C 0.815 0.34909 0.7587 0.0
C1593 C 0.81614 0.3508 0.77887 0.0
C1594 C 0.79686 0.31766 0.74861 0.0
C1595 C 0.77825 0.28639 0.75857 0.0
C1596 C 0.77914 0.2879 0.77896 0.0
C1597 C 0.79784 0.31964 0.78872 0.0
C1598 C 0.79784 0.31788 0.72707 0.0
C1599 C 0.75901 0.2567 0.79067 0.0
H1600 H 0.67517 0.22343 0.7236 0.0
H1601 H 0.78248 0.15964 0.73096 0.0
H1602 H 0.69925 0.29941 0.75882 0.0
H1603 H 0.70193 0.31204 0.73396 0.0
H1604 H 0.66303 0.28086 0.7423 0.0
H1605 H 0.83762 0.18595 0.74595 0.0
H1606 H 0.84106 0.23876 0.74602 0.0
H1607 H 0.82369 0.21358 0.76678 0.0
H1608 H 0.82829 0.37268 0.75061 0.0
H1609 H 0.79735 0.32038 0.8042 0.0
H1610 H 0.76748 0.31916 0.72136 0.0
H1611 H 0.81133 0.29031 0.72178 0.0
H1612 H 0.8146 0.34315 0.72126 0.0
H1613 H 0.72685 0.26184 0.79023 0.0
H1614 H 0.76868 0.25722 0.80584 0.0
H1615 H 0.76449 0.22703 0.78479 0.0
C1616 C 0.24081 0.21963 0.78821 0.0
C1617 C 0.2262 0.1861 0.77879 0.0
C1618 C 0.25908 0.25125 0.77807 0.0
C1619 C 0.26275 0.25048 0.75772 0.0
C1620 C 0.24753 0.21694 0.74819 0.0
C1621 C 0.2301 0.18564 0.75866 0.0
C1622 C 0.27447 0.28562 0.78932 0.0
C1623 C 0.24979 0.21386 0.72671 0.0
C1624 C 0.27648 0.34822 0.7294 0.0
C1625 C 0.3163 0.34769 0.72387 0.0
C1626 C 0.25897 0.31725 0.74011 0.0
C1627 C 0.28163 0.28449 0.7463 0.0
C1628 C 0.32211 0.28403 0.74095 0.0
C1629 C 0.3387 0.31511 0.7298 0.0
C1630 C 0.21582 0.31966 0.74478 0.0
C1631 C 0.3484 0.25113 0.74758 0.0
H1632 H 0.23863 0.22098 0.80363 0.0
H1633 H 0.21956 0.16035 0.75085 0.0
H1634 H 0.30346 0.2952 0.78381 0.0
H1635 H 0.25387 0.31064 0.78783 0.0
H1636 H 0.2774 0.2786 0.80476 0.0
H1637 H 0.23388 0.18783 0.72115 0.0
H1638 H 0.23729 0.24059 0.71997 0.0
H1639 H 0.28094 0.21179 0.72223 0.0
H1640 H 0.25873 0.37328 0.72531 0.0
H1641 H 0.36963 0.31444 0.72622 0.0
H1642 H 0.21163 0.31954 0.76049 0.0
H1643 H 0.20042 0.29355 0.73901 0.0
H1644 H 0.20183 0.34647 0.73881 0.0
H1645 H 0.34949 0.25084 0.76343 0.0
H1646 H 0.37878 0.25405 0.74201 0.0
H1647 H 0.33635 0.22246 0.74296 0.0
C1648 C 0.20853 0.6987 0.24352 0.0
C1649 C 0.22368 0.68525 0.22593 0.0
C1650 C 0.22624 0.73008 0.25403 0.0
C1651 C 0.26155 0.74826 0.24759 0.0
C1652 C 0.27771 0.73376 0.23015 0.0
C1653 C 0.25844 0.70352 0.21951 0.0
C1654 C 0.20657 0.7443 0.27201 0.0
C1655 C 0.31642 0.74932 0.22301 0.0
C1656 C 0.29074 0.85447 0.26306 0.0
C1657 C 0.31582 0.84928 0.279 0.0
C1658 C 0.27289 0.82252 0.2532 0.0
C1659 C 0.28067 0.78297 0.25859 0.0
C1660 C 0.30651 0.77738 0.27453 0.0
C1661 C 0.32283 0.81015 0.28466 0.0
C1662 C 0.24475 0.83135 0.23709 0.0
C1663 C 0.31712 0.73667 0.28117 0.0
H1664 H 0.18215 0.68501 0.24901 0.0
H1665 H 0.27158 0.69308 0.20637 0.0
H1666 H 0.22736 0.74294 0.2842 0.0
H1667 H 0.19783 0.77546 0.2702 0.0
H1668 H 0.1801 0.72683 0.27564 0.0
H1669 H 0.32553 0.7354 0.20938 0.0
H1670 H 0.31472 0.78149 0.22084 0.0
H1671 H 0.33949 0.74384 0.23392 0.0
H1672 H 0.28414 0.8841 0.25844 0.0
H1673 H 0.34181 0.80494 0.29684 0.0
H1674 H 0.21545 0.81897 0.2405 0.0
H1675 H 0.25488 0.81724 0.22371 0.0
H1676 H 0.24156 0.86332 0.23445 0.0
H1677 H 0.2946 0.72628 0.29142 0.0
H1678 H 0.34592 0.73641 0.28864 0.0
H1679 H 0.31829 0.71564 0.26909 0.0
C1680 C 0.9338 0.54042 0.5109 0.0
C1681 C 0.93884 0.56398 0.5274 0.0
C1682 C 0.96571 0.52392 0.50057 0.0
C1683 C 1.00507 0.53011 0.50654 0.0
C1684 C 1.01072 0.55402 0.5231 0.0
C1685 C 0.97797 0.57037 0.53325 0.0
C1686 C 0.95699 0.49906 0.48324 0.0
C1687 C 0.05166 0.56304 0.52995 0.0
C1688 C 0.08589 0.45537 0.49082 0.0
C1689 C 0.10175 0.47198 0.47405 0.0
C1690 C 0.05479 0.47356 0.50123 0.0
C1691 C 0.03963 0.51085 0.49564 0.0
C1692 C 0.05641 0.52828 0.47897 0.0
C1693 C 0.08619 0.50849 0.4683 0.0
C1694 C 0.03754 0.45232 0.51816 0.0
C1695 C 0.04297 0.56803 0.47212 0.0
H1696 H 0.90437 0.53406 0.50599 0.0
H1697 H 0.98315 0.58827 0.54578 0.0
H1698 H 0.97271 0.51077 0.4706 0.0
H1699 H 0.96773 0.46873 0.48569 0.0
H1700 H 0.92513 0.4979 0.47987 0.0
H1701 H 0.05168 0.57993 0.54351 0.0
H1702 H 0.06847 0.53552 0.53213 0.0
H1703 H 0.06725 0.58032 0.51886 0.0
H1704 H 0.09746 0.42748 0.4957 0.0
H1705 H 0.09831 0.52244 0.4557 0.0
H1706 H 1.00588 0.44667 0.51556 0.0
H1707 H 0.0397 0.47082 0.53114 0.0
H1708 H 0.05241 0.4239 0.52098 0.0
H1709 H 1.01758 0.56429 0.46235 0.0
H1710 H 0.06657 0.58324 0.46406 0.0
H1711 H 0.03367 0.58705 0.48414 0.0
C1712 C 0.5884 0.45718 0.01203 0.0
C1713 C 0.60048 0.4709 0.03014 0.0
C1714 C 0.55653 0.47456 1.00171 0.0
C1715 C 0.5367 0.50834 0.00887 0.0
C1716 C 0.5495 0.52284 0.02697 0.0
C1717 C 0.58013 0.5037 0.0374 0.0
C1718 C 0.54354 0.45604 0.98321 0.0
C1719 C 0.53063 0.55869 0.03559 0.0
C1720 C 0.47522 0.571 0.97234 0.0
C1721 C 0.43599 0.56256 0.97728 0.0
C1722 C 0.50781 0.55472 0.98266 0.0
C1723 C 0.50195 0.5274 0.99793 0.0
C1724 C 0.46231 0.51853 0.00273 0.0
C1725 C 0.4305 0.53635 0.99271 0.0
C1726 C 0.54872 0.56752 0.97736 0.0
C1727 C 0.45287 0.4888 0.01802 0.0
H1728 H 0.60347 0.43211 0.00599 0.0
H1729 H 0.58894 0.51532 0.05115 0.0
H1730 H 0.51133 0.45103 0.9834 0.0
H1731 H 0.54992 0.47607 0.97113 0.0
H1732 H 0.55853 0.42765 0.98051 0.0
H1733 H 0.54946 0.57203 0.04681 0.0
H1734 H 0.52441 0.58114 0.02449 0.0
H1735 H 0.50232 0.55031 0.04226 0.0
H1736 H 0.48056 0.59114 0.96065 0.0
H1737 H 0.40078 0.5288 0.99677 0.0
H1738 H 0.56431 0.5431 0.97019 0.0
H1739 H 0.56567 0.57524 0.99038 0.0
H1740 H 0.54852 0.59316 0.96755 0.0
H1741 H 0.45462 0.45898 0.01174 0.0
H1742 H 0.4228 0.4931 0.02376 0.0
H1743 H 0.47386 0.49 0.03011 0.0
C1744 C 0.32303 0.84267 0.96197 0.0
C1745 C 0.29648 0.81149 0.96213 0.0
C1746 C 0.32368 0.86977 0.97686 0.0
C1747 C 0.29693 0.86534 0.99217 0.0
C1748 C 0.27227 0.832 0.99314 0.0
C1749 C 0.27234 0.80518 0.97796 0.0
C1750 C 0.35095 0.90462 0.97546 0.0
C1751 C 0.24368 0.82638 0.00935 0.0
C1752 C 0.31152 0.94228 0.03027 0.0
C1753 C 0.28712 0.972 0.0232 0.0
C1754 C 0.31301 0.90566 0.02117 0.0
C1755 C 0.28968 0.89929 0.00472 0.0
C1756 C 0.26288 0.92834 0.99848 0.0
C1757 C 0.26178 0.96431 0.00792 0.0
C1758 C 0.34136 0.87494 0.02832 0.0
C1759 C 0.23807 0.92297 0.98073 0.0
H1760 H 0.34228 0.84659 0.94978 0.0
H1761 H 0.25225 0.78053 0.97802 0.0
H1762 H 0.33368 0.9322 0.9749 0.0
H1763 H 0.37001 0.90602 0.98829 0.0
H1764 H 0.36997 0.90334 0.96258 0.0
H1765 H 0.23264 0.79577 0.01005 0.0
H1766 H 0.25748 0.83399 0.02323 0.0
H1767 H 0.21821 0.84625 0.00728 0.0
H1768 H 0.33098 0.94833 0.04217 0.0
H1769 H 0.24272 0.9873 0.00253 0.0
H1770 H 0.36638 0.87245 0.01827 0.0
H1771 H 0.3269 0.84583 0.02896 0.0
H1772 H 0.35312 0.88224 0.04269 0.0
H1773 H 0.25732 0.92285 0.96793 0.0
H1774 H 0.21604 0.94674 0.97895 0.0
H1775 H 0.22246 0.89447 0.98114 0.0
C1776 C 0.93237 0.54434 0.20998 0.0
C1777 C 0.97328 0.54209 0.21234 0.0
C1778 C 0.90708 0.54361 0.22563 0.0
C1779 C 0.92298 0.54332 0.2443 0.0
C1780 C 0.9641 0.54271 0.24699 0.0
C1781 C 0.98883 0.54115 0.23096 0.0
C1782 C 0.86325 0.54365 0.22202 0.0
C1783 C 0.98184 0.54364 0.26676 0.0
C1784 C 0.84555 0.57846 0.27843 0.0
C1785 C 0.82811 0.5427 0.28329 0.0
C1786 C 0.87924 0.57926 0.26698 0.0
C1787 C 0.89587 0.5434 0.26078 0.0
C1788 C 0.88078 0.50734 0.26759 0.0
C1789 C 0.8465 0.50745 0.27856 0.0
C1790 C 0.89426 0.61825 0.25981 0.0
C1791 C 0.89765 0.46851 0.26132 0.0
H1792 H 0.91973 0.54705 0.19583 0.0
H1793 H 0.02026 0.53914 0.23308 0.0
H1794 H 0.84841 0.52122 0.23094 0.0
H1795 H 0.85087 0.57266 0.22589 0.0
H1796 H 0.856 0.53773 0.20681 0.0
H1797 H 1.01426 0.54704 0.26639 0.0
H1798 H 0.96915 0.56818 0.27513 0.0
H1799 H 0.97469 0.51611 0.27445 0.0
H1800 H 0.83062 0.60569 0.28183 0.0
H1801 H 0.83245 0.47992 0.28223 0.0
H1802 H 0.88542 0.62227 0.24466 0.0
H1803 H 0.92679 0.61916 0.26038 0.0
H1804 H 0.88229 0.64318 0.26818 0.0
H1805 H 0.88761 0.46209 0.24656 0.0
H1806 H 0.88798 0.44416 0.27077 0.0
H1807 H 0.93018 0.46934 0.26119 0.0
C1808 C 0.27269 0.08159 0.51785 0.0
C1809 C 0.23924 0.06839 0.52744 0.0
C1810 C 0.27198 0.11652 0.50751 0.0
C1811 C 0.23693 0.13871 0.50693 0.0
C1812 C 0.20417 0.1274 0.51808 0.0
C1813 C 0.2057 0.09201 0.5283 0.0
C1814 C 0.30744 0.12752 0.49567 0.0
C1815 C 0.16633 0.15045 0.51765 0.0
C1816 C 0.24999 0.23323 0.47961 0.0
C1817 C 0.24011 0.22079 0.46116 0.0
C1818 C 0.24636 0.20754 0.49518 0.0
C1819 C 0.23287 0.16888 0.49197 0.0
C1820 C 0.22088 0.15705 0.4735 0.0
C1821 C 0.22449 0.18327 0.45836 0.0
C1822 C 0.25836 0.22109 0.51485 0.0
C1823 C 0.20676 0.11589 0.46933 0.0
H1824 H 0.29862 0.06314 0.5173 0.0
H1825 H 0.17972 0.0814 0.5356 0.0
H1826 H 0.29997 0.12609 0.48024 0.0
H1827 H 0.31647 0.15807 0.49882 0.0
H1828 H 0.33284 0.10781 0.49835 0.0
H1829 H 0.14683 0.1425 0.52976 0.0
H1830 H 0.17224 0.18242 0.5181 0.0
H1831 H 0.15045 0.14422 0.50414 0.0
H1832 H 0.2613 0.2626 0.48178 0.0
H1833 H 0.21539 0.1742 0.44418 0.0
H1834 H 0.28609 0.20639 0.5191 0.0
H1835 H 0.23573 0.21282 0.52551 0.0
H1836 H 0.26294 0.25332 0.51542 0.0
H1837 H 0.23219 0.09552 0.4696 0.0
H1838 H 0.19253 0.11367 0.45507 0.0
H1839 H 0.18558 0.10581 0.48029 0.0
C1840 C 0.57836 0.52688 0.72182 0.0
C1841 C 0.55579 0.49391 0.71731 0.0
C1842 C 0.60284 0.52675 0.73783 0.0
C1843 C 0.60458 0.49272 0.7494 0.0
C1844 C 0.57754 0.4619 0.74651 0.0
C1845 C 0.55353 0.46265 0.73028 0.0
C1846 C 0.6309 0.56052 0.74058 0.0
C1847 C 0.57788 0.42582 0.75901 0.0
C1848 C 0.70999 0.46638 0.75703 0.0
C1849 C 0.71667 0.48055 0.77544 0.0
C1850 C 0.67275 0.46784 0.74895 0.0
C1851 C 0.64153 0.48437 0.7596 0.0
C1852 C 0.64756 0.49631 0.77876 0.0
C1853 C 0.68553 0.49415 0.78658 0.0
C1854 C 0.66766 0.45418 0.72851 0.0
C1855 C 0.61494 0.51387 0.79051 0.0
H1856 H 0.57899 0.55164 0.71207 0.0
H1857 H 0.53554 0.43733 0.72697 0.0
H1858 H 0.63586 0.5665 0.75596 0.0
H1859 H 0.65963 0.55289 0.73409 0.0
H1860 H 0.61995 0.58769 0.73359 0.0
H1861 H 0.55058 0.40836 0.75731 0.0
H1862 H 0.6032 0.40701 0.75506 0.0
H1863 H 0.58137 0.43398 0.77426 0.0
H1864 H 0.73446 0.45555 0.74863 0.0
H1865 H 0.69123 0.50523 0.80083 0.0
H1866 H 0.6603 0.47952 0.71921 0.0
H1867 H 0.64321 0.43284 0.72749 0.0
H1868 H 0.69459 0.44007 0.72279 0.0
H1869 H 0.61243 0.54557 0.78714 0.0
H1870 H 0.62097 0.51094 0.80605 0.0
H1871 H 0.58628 0.49996 0.78723 0.0
C1872 C 0.75279 0.10749 0.96778 0.0
C1873 C 0.73592 0.07472 0.9764 0.0
C1874 C 0.7508 0.14409 0.97684 0.0
C1875 C 0.73181 0.14699 0.99478 0.0
C1876 C 0.71144 0.11441 0.00244 0.0
C1877 C 0.71386 0.07851 0.99309 0.0
C1878 C 0.7718 0.17854 0.96805 0.0
C1879 C 0.69014 0.11643 0.02138 0.0
C1880 C 0.77292 0.2047 0.03561 0.0
C1881 C 0.7422 0.23108 0.03903 0.0
C1882 C 0.77141 0.17889 0.02016 0.0
C1883 C 0.73915 0.18071 0.00742 0.0
C1884 C 0.71033 0.21012 0.00952 0.0
C1885 C 0.71178 0.23464 0.02553 0.0
C1886 C 0.80222 0.14711 0.01869 0.0
C1887 C 0.67656 0.21375 0.99563 0.0
H1888 H 0.76943 0.10406 0.95469 0.0
H1889 H 0.70029 0.05278 0.99939 0.0
H1890 H 0.7559 0.20635 0.97084 0.0
H1891 H 0.80149 0.18107 0.97445 0.0
H1892 H 0.77527 0.17479 0.95237 0.0
H1893 H 0.67552 0.08833 0.02511 0.0
H1894 H 0.71114 0.12377 0.03298 0.0
H1895 H 0.66757 0.13985 0.021 0.0
H1896 H 0.79713 0.20269 0.04563 0.0
H1897 H 0.68784 0.25492 0.02799 0.0
H1898 H 0.81381 0.14532 0.00392 0.0
H1899 H 0.78877 0.11831 0.02215 0.0
H1900 H 0.82717 0.152 0.02864 0.0
H1901 H 0.68783 0.21482 0.98077 0.0
H1902 H 0.65859 0.24037 0.9983 0.0
H1903 H 0.65727 0.18765 0.99671 0.0
C1904 C 0.19133 0.46891 0.72256 0.0
C1905 C 0.21964 0.49453 0.72992 0.0
C1906 C 0.15531 0.46389 0.73192 0.0
C1907 C 0.14803 0.48496 0.74894 0.0
C1908 C 0.17601 0.51208 0.75594 0.0
C1909 C 0.21135 0.5168 0.74619 0.0
C1910 C 0.12572 0.43526 0.72402 0.0
C1911 C 0.16991 0.53405 0.77449 0.0
C1912 C 0.05358 0.50224 0.77501 0.0
C1913 C 0.05894 0.47693 0.79053 0.0
C1914 C 0.08049 0.5022 0.75989 0.0
C1915 C 0.11319 0.47662 0.76072 0.0
C1916 C 0.11638 0.44857 0.77558 0.0
C1917 C 0.08897 0.4491 0.79035 0.0
C1918 C 0.07611 0.53191 0.74403 0.0
C1919 C 0.15045 0.42023 0.77678 0.0
H1920 H 0.19801 0.45156 0.71001 0.0
H1921 H 0.23344 0.53638 0.75197 0.0
H1922 H 0.11744 0.41341 0.73504 0.0
H1923 H 0.09857 0.45122 0.71995 0.0
H1924 H 0.13698 0.41943 0.71129 0.0
H1925 H 0.19426 0.55473 0.77763 0.0
H1926 H 0.14206 0.55087 0.77399 0.0
H1927 H 0.1677 0.5129 0.78651 0.0
H1928 H 0.03001 0.52362 0.77532 0.0
H1929 H 0.09228 0.42933 0.8024 0.0
H1930 H 0.08226 0.51819 0.72998 0.0
H1931 H 0.09775 0.55585 0.74608 0.0
H1932 H 0.04624 0.54499 0.74371 0.0
H1933 H 0.14955 0.3999 0.76444 0.0
H1934 H 0.14991 0.40253 0.79012 0.0
H1935 H 0.17878 0.43623 0.77616 0.0
C1936 C 0.83215 0.94839 0.48257 0.0
C1937 C 0.80052 0.95904 0.47095 0.0
C1938 C 0.82988 0.91538 0.49437 0.0
C1939 C 0.79607 0.89125 0.49344 0.0
C1940 C 0.76596 0.89968 0.48009 0.0
C1941 C 0.76795 0.93442 0.46941 0.0
C1942 C 0.86263 0.9089 0.50867 0.0
C1943 C 0.73013 0.87396 0.47829 0.0
C1944 C 0.81445 0.80135 0.52343 0.0
C1945 C 0.79521 0.81169 0.54043 0.0
C1946 C 0.81105 0.82494 0.50706 0.0
C1947 C 0.79019 0.86074 0.50816 0.0
C1948 C 0.76889 0.87014 0.52486 0.0
C1949 C 0.76996 0.84434 0.54031 0.0
C1950 C 0.83257 0.81334 0.48912 0.0
C1951 C 0.74904 0.90943 0.52769 0.0
H1952 H 0.85689 0.96812 0.484 0.0
H1953 H 0.74316 0.94342 0.4607 0.0
H1954 H 0.85525 0.8882 0.52032 0.0
H1955 H 0.8888 0.89753 0.50104 0.0
H1956 H 0.87096 0.93719 0.51537 0.0
H1957 H 0.71407 0.87963 0.46473 0.0
H1958 H 0.73845 0.8425 0.47893 0.0
H1959 H 0.7098 0.87986 0.49032 0.0
H1960 H 0.83361 0.77604 0.52301 0.0
H1961 H 0.75269 0.85143 0.55282 0.0
H1962 H 0.86084 0.82942 0.48843 0.0
H1963 H 0.8152 0.82117 0.47623 0.0
H1964 H 0.83896 0.7814 0.48886 0.0
H1965 H 0.77145 0.931 0.53241 0.0
H1966 H 0.72601 0.90799 0.5389 0.0
H1967 H 0.73557 0.92085 0.51441 0.0
C1968 C 0.4896 0.53493 0.27075 0.0
C1969 C 0.47506 0.53044 0.28945 0.0
C1970 C 0.46398 0.53978 0.25514 0.0
C1971 C 0.42301 0.53831 0.25819 0.0
C1972 C 0.40812 0.5322 0.27679 0.0
C1973 C 0.43413 0.52954 0.29213 0.0
C1974 C 0.48066 0.54779 0.23556 0.0
C1975 C 0.36451 0.52902 0.28065 0.0
C1976 C 0.3418 0.58234 0.22879 0.0
C1977 C 0.32405 0.54816 0.22198 0.0
C1978 C 0.37696 0.58025 0.23917 0.0
C1979 C 0.39479 0.5432 0.24225 0.0
C1980 C 0.37928 0.5094 0.2333 0.0
C1981 C 0.34352 0.5122 0.22351 0.0
C1982 C 0.39218 0.6168 0.24881 0.0
C1983 C 0.39815 0.46965 0.23587 0.0
H1984 H 0.52093 0.53536 0.26822 0.0
H1985 H 0.42175 0.52801 0.30633 0.0
H1986 H 0.46735 0.528 0.22479 0.0
H1987 H 0.47332 0.57826 0.23125 0.0
H1988 H 0.51308 0.54432 0.23517 0.0
H1989 H 0.35791 0.52375 0.29599 0.0
H1990 H 0.34933 0.55629 0.27614 0.0
H1991 H 0.35188 0.5045 0.27224 0.0
H1992 H 0.32614 0.60999 0.2278 0.0
H1993 H 0.32941 0.48587 0.2182 0.0
H1994 H 0.42456 0.61873 0.24747 0.0
H1995 H 0.38514 0.6156 0.26428 0.0
H1996 H 0.37877 0.64383 0.24277 0.0
H1997 H 0.42953 0.47095 0.23171 0.0
H1998 H 0.38342 0.44664 0.22723 0.0
H1999 H 0.39703 0.46089 0.25114 0.0
C2000 C 0.79664 0.43816 0.5341 0.0
C2001 C 0.78042 0.46916 0.5236 0.0
C2002 C 0.79938 0.40062 0.52607 0.0
C2003 C 0.78676 0.39493 0.50702 0.0
C2004 C 0.76934 0.42608 0.49662 0.0
C2005 C 0.7657 0.46264 0.50523 0.0
C2006 C 0.8173 0.36779 0.53765 0.0
C2007 C 0.75614 0.42146 0.47607 0.0
C2008 C 0.82776 0.32734 0.47059 0.0
C2009 C 0.79429 0.30524 0.4666 0.0
C2010 C 0.82786 0.35381 0.48576 0.0
C2011 C 0.79358 0.35766 0.49701 0.0
C2012 C 0.76163 0.33172 0.49441 0.0
C2013 C 0.76209 0.30592 0.47889 0.0
C2014 C 0.86242 0.38115 0.48798 0.0
C2015 C 0.72541 0.33429 0.50673 0.0
H2016 H 0.80823 0.44351 0.5483 0.0
H2017 H 0.75338 0.48677 0.49708 0.0
H2018 H 0.80169 0.33973 0.53509 0.0
H2019 H 0.84834 0.36365 0.53335 0.0
H2020 H 0.81675 0.37436 0.55319 0.0
H2021 H 0.74581 0.44951 0.46972 0.0
H2022 H 0.78058 0.41019 0.46715 0.0
H2023 H 0.73183 0.39992 0.47525 0.0
H2024 H 0.85272 0.32592 0.461 0.0
H2025 H 0.73663 0.28798 0.47575 0.0
H2026 H 0.87001 0.38514 0.50325 0.0
H2027 H 0.85462 0.41037 0.48208 0.0
H2028 H 0.88877 0.37023 0.48029 0.0
H2029 H 0.73374 0.33701 0.52201 0.0
H2030 H 0.70614 0.30829 0.50493 0.0
H2031 H 0.70838 0.36088 0.50283 0.0
C2032 C 0.45136 0.07791 0.71314 0.0
C2033 C 0.47813 0.04724 0.7112 0.0
C2034 C 0.42507 0.07845 0.72837 0.0
C2035 C 0.42597 0.04736 0.7418 0.0
C2036 C 0.45559 0.01832 0.74084 0.0
C2037 C 0.48153 0.0185 0.72534 0.0
C2038 C 0.39392 0.11 0.72895 0.0
C2039 C 0.4573 0.98498 0.75502 0.0
C2040 C 0.3497 0.05614 0.7807 0.0
C2041 C 0.31859 0.03584 0.7722 0.0
C2042 C 0.38624 0.05827 0.77154 0.0
C2043 C 0.39084 0.04025 0.75349 0.0
C2044 C 0.35991 0.01817 0.74537 0.0
C2045 C 0.32432 1.0158 0.75501 0.0
C2046 C 0.41915 0.0812 0.78066 0.0
C2047 C 0.36322 0.99954 0.72581 0.0
H2048 H 0.44971 0.10033 0.70216 0.0
H2049 H 0.50285 0.99511 0.72371 0.0
H2050 H 0.36452 0.09674 0.72675 0.0
H2051 H 0.39375 0.12444 0.74312 0.0
H2052 H 0.39849 0.13278 0.7178 0.0
H2053 H 0.48632 0.97012 0.75486 0.0
H2054 H 0.45118 0.99557 0.76971 0.0
H2055 H 0.43448 0.96301 0.75137 0.0
H2056 H 0.34504 0.07162 0.79403 0.0
H2057 H 0.30015 1.00009 0.74844 0.0
H2058 H 0.42497 0.10814 0.77224 0.0
H2059 H 0.44657 0.06362 0.78068 0.0
H2060 H 0.41215 0.08986 0.79556 0.0
H2061 H 0.36689 0.02271 0.7148 0.0
H2062 H 0.33691 0.98192 0.72203 0.0
H2063 H 0.38936 0.98022 0.72511 0.0
C2064 C 0.75255 0.57148 0.00389 0.0
C2065 C 0.73661 0.56441 0.02199 0.0
C2066 C 0.74973 0.60835 0.99539 0.0
C2067 C 0.73135 0.63921 0.00551 0.0
C2068 C 0.71686 0.63285 0.0242 0.0
C2069 C 0.7192 0.5951 0.03219 0.0
C2070 C 0.7653 0.61377 0.9753 0.0
C2071 C 0.69784 0.66544 0.03543 0.0
C2072 C 0.75802 0.73046 0.97907 0.0
C2073 C 0.72711 0.73169 0.96594 0.0
C2074 C 0.75734 0.70347 0.99417 0.0
C2075 C 0.72549 0.67699 0.99559 0.0
C2076 C 0.69233 0.68141 0.98354 0.0
C2077 C 0.69364 0.70891 0.96876 0.0
C2078 C 0.79264 0.70019 0.00713 0.0
C2079 C 0.65793 0.65359 0.98432 0.0
H2080 H 0.76606 0.54772 0.99598 0.0
H2081 H 0.70691 0.58947 0.0462 0.0
H2082 H 0.74158 0.6243 0.96569 0.0
H2083 H 0.78885 0.6362 0.97523 0.0
H2084 H 0.77748 0.58623 0.96927 0.0
H2085 H 0.69356 0.65729 0.05066 0.0
H2086 H 0.7159 0.69247 0.03471 0.0
H2087 H 0.66876 0.67245 0.02915 0.0
H2088 H 0.78381 0.74846 0.97673 0.0
H2089 H 0.66989 0.71031 0.95843 0.0
H2090 H 0.81165 0.67579 0.00221 0.0
H2091 H 0.78354 0.69354 0.02201 0.0
H2092 H 0.81033 0.72754 0.00707 0.0
H2093 H 0.66513 0.6269 0.97596 0.0
H2094 H 0.63115 0.66702 0.97799 0.0
H2095 H 0.65132 0.64439 0.99915 0.0
C2096 C 0.19439 0.94208 0.27151 0.0
C2097 C 0.20351 0.97151 0.28465 0.0
C2098 C 0.16064 0.94486 0.2602 0.0
C2099 C 0.13521 0.97736 0.26263 0.0
C2100 C 0.14215 1.00468 0.27745 0.0
C2101 C 0.17688 1.00181 0.28811 0.0
C2102 C 0.15504 0.91583 0.24413 0.0
C2103 C 0.11447 0.03843 0.28105 0.0
C2104 C 0.09203 1.01333 0.2163 0.0
C2105 C 0.05852 0.9895 0.21461 0.0
C2106 C 0.11693 1.01035 0.23209 0.0
C2107 C 0.10597 0.98606 0.24758 0.0
C2108 C 0.06954 0.96638 0.24727 0.0
C2109 C 0.04693 0.96702 0.23052 0.0
C2110 C 0.15627 0.03093 0.23145 0.0
C2111 C 0.05551 0.94262 0.26413 0.0
H2112 H 0.21588 0.91938 0.26854 0.0
H2113 H 0.18471 0.02489 0.29806 0.0
H2114 H 0.12456 0.90454 0.24394 0.0
H2115 H 0.16029 0.9307 0.23024 0.0
H2116 H 0.1754 0.8905 0.24529 0.0
H2117 H 0.12413 0.05695 0.29323 0.0
H2118 H 0.11203 0.05722 0.26816 0.0
H2119 H 0.08468 0.02689 0.28411 0.0
H2120 H 0.10008 0.03321 0.2049 0.0
H2121 H 0.02113 0.94861 0.22983 0.0
H2122 H 0.18027 1.00893 0.23224 0.0
H2123 H 0.1596 0.05075 0.24387 0.0
H2124 H 0.16025 0.04843 0.21819 0.0
H2125 H 0.06747 0.91244 0.26317 0.0
H2126 H 0.02296 0.94054 0.2643 0.0
H2127 H 0.06549 0.95557 0.27785 0.0
C2128 C 0.28277 0.72356 0.53099 0.0
C2129 C 0.24951 0.74239 0.53825 0.0
C2130 C 0.27899 0.695 0.51675 0.0
C2131 C 0.24106 0.68488 0.51008 0.0
C2132 C 0.20795 0.70663 0.51596 0.0
C2133 C 0.21267 0.73546 0.52992 0.0
C2134 C 0.3149 0.67244 0.51054 0.0
C2135 C 0.16686 0.69565 0.50981 0.0
C2136 C 0.22991 0.60385 0.47338 0.0
C2137 C 0.22752 0.57129 0.48546 0.0
C2138 C 0.23397 0.64161 0.48113 0.0
C2139 C 0.23501 0.64616 0.50123 0.0
C2140 C 0.2308 0.61324 0.51338 0.0
C2141 C 0.22742 0.57621 0.50529 0.0
C2142 C 0.23834 0.67633 0.46794 0.0
C2143 C 0.23109 0.61672 0.53495 0.0
H2144 H 0.31119 0.72903 0.53745 0.0
H2145 H 0.18676 0.74953 0.53574 0.0
H2146 H 0.3149 0.64311 0.51744 0.0
H2147 H 0.31457 0.66783 0.49485 0.0
H2148 H 0.34248 0.68773 0.51458 0.0
H2149 H 0.14574 0.71995 0.51228 0.0
H2150 H 0.16594 0.68738 0.4945 0.0
H2151 H 0.15697 0.66988 0.51823 0.0
H2152 H 0.23007 0.59967 0.45803 0.0
H2153 H 0.2252 0.55083 0.51461 0.0
H2154 H 0.2676 0.68992 0.47008 0.0
H2155 H 0.21604 0.69897 0.47136 0.0
H2156 H 0.23523 0.66799 0.45267 0.0
H2157 H 0.26081 0.62537 0.53988 0.0
H2158 H 0.22319 0.58871 0.54211 0.0
H2159 H 0.21023 0.63966 0.53974 0.0
C2160 C 0.69404 0.94923 0.22799 0.0
C2161 C 0.70905 0.98407 0.22041 0.0
C2162 C 0.66066 0.95001 0.23968 0.0
C2163 C 0.64198 0.98637 0.24332 0.0
C2164 C 0.65487 0.02082 0.23397 0.0
C2165 C 0.68855 0.01923 0.22267 0.0
C2166 C 0.64797 0.91285 0.24967 0.0
C2167 C 0.63644 0.06027 0.23795 0.0
C2168 C 0.5478 0.99452 0.27182 0.0
C2169 C 0.56249 1.00051 0.29037 0.0
C2170 C 0.57335 0.9885 0.25637 0.0
C2171 C 0.61432 0.99006 0.25944 0.0
C2172 C 0.62938 0.99708 0.27794 0.0
C2173 C 0.60336 1.00124 0.29314 0.0
C2174 C 0.55668 0.98 0.23682 0.0
C2175 C 0.67301 0.99921 0.28199 0.0
H2176 H 0.71072 0.92227 0.22655 0.0
H2177 H 0.70094 0.04616 0.21703 0.0
H2178 H 0.65404 0.91524 0.26521 0.0
H2179 H 0.61588 0.90854 0.24797 0.0
H2180 H 0.66354 0.88658 0.24414 0.0
H2181 H 0.64611 0.08291 0.22754 0.0
H2182 H 0.60396 0.05833 0.23754 0.0
H2183 H 0.64498 0.07003 0.2525 0.0
H2184 H 0.51642 0.99399 0.26936 0.0
H2185 H 0.61552 1.00388 0.30733 0.0
H2186 H 0.56815 0.95151 0.23158 0.0
H2187 H 0.56629 1.00281 0.22653 0.0
H2188 H 0.5241 0.97885 0.23685 0.0
H2189 H 0.68558 0.9692 0.28186 0.0
H2190 H 0.67928 1.01242 0.29618 0.0
H2191 H 0.68853 1.01669 0.27097 0.0
C2192 C 0.28584 0.42869 0.96573 0.0
C2193 C 0.30817 0.45973 0.97281 0.0
C2194 C 0.28628 0.39226 0.97508 0.0
C2195 C 0.30843 0.388 0.9921 0.0
C2196 C 0.33323 0.41872 0.99837 0.0
C2197 C 0.333 0.4542 0.98846 0.0
C2198 C 0.26054 0.35969 0.96767 0.0
C2199 C 0.35693 0.41566 0.01662 0.0
C2200 C 0.2691 0.33503 0.03487 0.0
C2201 C 0.29868 0.30706 0.03793 0.0
C2202 C 0.27033 0.36012 0.01914 0.0
C2203 C 0.30049 0.35541 0.00545 0.0
C2204 C 0.32731 0.32395 0.00709 0.0
C2205 C 0.32666 0.30049 0.02357 0.0
C2206 C 0.24195 0.39423 0.01838 0.0
C2207 C 0.3582 0.31687 0.99205 0.0
H2208 H 0.26636 0.43354 0.95369 0.0
H2209 H 0.3498 0.47878 0.9939 0.0
H2210 H 0.27434 0.33062 0.97008 0.0
H2211 H 0.23209 0.36006 0.97535 0.0
H2212 H 0.25438 0.36334 0.95218 0.0
H2213 H 0.37365 0.44283 0.01969 0.0
H2214 H 0.33724 0.40976 0.02892 0.0
H2215 H 0.37797 0.39095 0.01566 0.0
H2216 H 0.24622 0.33899 0.04544 0.0
H2217 H 0.34931 0.27857 0.0256 0.0
H2218 H 0.22769 0.39609 0.00418 0.0
H2219 H 0.25824 0.42203 0.02068 0.0
H2220 H 0.21871 0.39204 0.02946 0.0
H2221 H 0.34452 0.31675 0.97765 0.0
H2222 H 0.37386 0.28865 0.9943 0.0
H2223 H 0.38006 0.34095 0.99225 0.0
C2224 C 0.82201 0.02834 0.75285 0.0
C2225 C 0.81795 0.02964 0.73299 0.0
C2226 C 0.85861 0.0329 0.76135 0.0
C2227 C 0.89207 0.03742 0.74958 0.0
C2228 C 0.88824 0.03881 0.72947 0.0
C2229 C 0.8508 0.03527 0.72135 0.0
C2230 C 0.86124 0.03334 0.78295 0.0
C2231 C 0.92339 0.04326 0.71655 0.0
C2232 C 0.97161 0.0751 0.7809 0.0
C2233 C 0.98442 0.03966 0.78885 0.0
C2234 C 0.94451 0.0752 0.76593 0.0
C2235 C 0.93071 0.03892 0.75888 0.0
C2236 C 0.94757 1.00329 0.76524 0.0
C2237 C 0.97386 1.00402 0.78057 0.0
C2238 C 0.92709 0.11377 0.75949 0.0
C2239 C 0.93412 0.96424 0.75755 0.0
H2240 H 0.79628 0.0253 0.76184 0.0
H2241 H 0.84717 0.037 0.70597 0.0
H2242 H 0.87971 1.00863 0.78803 0.0
H2243 H 0.87523 0.06094 0.78785 0.0
H2244 H 0.832 0.03092 0.78986 0.0
H2245 H 0.91478 0.05381 0.70211 0.0
H2246 H 0.9453 0.0638 0.72265 0.0
H2247 H 0.93789 1.01431 0.71496 0.0
H2248 H 0.98034 0.10261 0.78741 0.0
H2249 H 0.98453 0.9768 0.78671 0.0
H2250 H 0.89844 0.11824 0.76671 0.0
H2251 H 0.92165 0.11388 0.74386 0.0
H2252 H 0.94646 0.13887 0.76315 0.0
H2253 H 0.90586 0.95614 0.76438 0.0
H2254 H 0.95577 0.94068 0.76062 0.0
H2255 H 0.92917 0.96585 0.74189 0.0
loop_
_geom_bond_atom_site_label_1
_geom_bond_atom_site_label_2
_geom_bond_distance
_geom_bond_site_symmetry_2
_ccdc_geom_bond_type
O0 Tb1 2.292 1_556 S
O0 C3 1.255 . S
Tb1 O0 2.292 1_554 S
Tb1 O17 2.326 . S
Tb1 O19 2.500 1_545 S
Tb1 O20 2.473 1_545 S
Tb1 O23 2.324 . S
Eu2 O6 2.292 . S
Eu2 C7 2.852 . S
Eu2 O18 2.324 . S
Eu2 O22 2.326 . S
Eu2 O24 2.500 . S
Eu2 O25 2.473 . S
C3 O0 1.255 . S
C3 O4 1.247 . S
O4 C3 1.247 . S
C5 O17 1.242 . S
C5 O18 1.258 . S
O6 Eu2 2.292 . S
O6 C8 1.255 . S
C7 Eu2 2.852 . S
C7 C11 1.503 . S
C7 O24 1.273 . S
C7 O25 1.257 . S
C8 O6 1.255 . S
C8 O9 1.247 . S
O9 C8 1.247 . S
C10 O22 1.242 . S
C10 O23 1.258 . S
C11 C7 1.503 . S
C11 C12 1.379 . S
C11 C16 1.392 . S
C12 C11 1.379 . S
C12 C13 1.404 . S
C12 H26 0.929 . S
C13 C12 1.404 . S
C13 C14 1.389 . S
C14 C13 1.389 . S
C14 C15 1.399 . S
C14 H27 0.931 . S
C15 C14 1.399 . S
C15 C16 1.390 . S
C16 C11 1.392 . S
C16 C15 1.390 . S
C16 H28 0.929 . S
O17 Tb1 2.326 . S
O17 C5 1.242 . S
O18 Eu2 2.324 . S
O18 C5 1.258 . S
O19 Tb1 2.500 1_565 S
O19 C21 1.273 . S
O20 Tb1 2.473 1_565 S
O20 C21 1.257 . S
C21 O19 1.273 . S
C21 O20 1.257 . S
O22 Eu2 2.326 . S
O22 C10 1.242 . S
O23 Tb1 2.324 . S
O23 C10 1.258 . S
O24 Eu2 2.500 . S
O24 C7 1.273 . S
O25 Eu2 2.473 . S
O25 C7 1.257 . S
H26 C12 0.929 . S
H27 C14 0.931 . S
H28 C16 0.929 . S
O29 Tb30 2.292 . S
O29 C32 1.255 . S
Tb30 O29 2.292 . S
Tb30 O46 2.326 . S
Tb30 O48 2.500 . S
Tb30 O49 2.473 . S
Tb30 O52 2.324 . S
Eu31 O35 2.292 . S
Eu31 C36 2.852 . S
Eu31 O47 2.324 . S
Eu31 O51 2.326 . S
Eu31 O53 2.500 . S
Eu31 O54 2.473 . S
C32 O29 1.255 . S
C32 O33 1.247 . S
O33 C32 1.247 . S
C34 O46 1.242 . S
C34 O47 1.258 . S
O35 Eu31 2.292 . S
O35 C37 1.255 . S
C36 Eu31 2.852 . S
C36 C40 1.503 . S
C36 O53 1.273 . S
C36 O54 1.257 . S
C37 O35 1.255 . S
C37 O38 1.247 . S
O38 C37 1.247 . S
C39 O51 1.242 . S
C39 O52 1.258 . S
C40 C36 1.503 . S
C40 C41 1.379 . S
C40 C45 1.392 . S
C41 C40 1.379 . S
C41 C42 1.404 . S
C41 H55 0.929 . S
C42 C41 1.404 . S
C42 C43 1.389 . S
C43 C42 1.389 . S
C43 C44 1.399 . S
C43 H56 0.931 . S
C44 C43 1.399 . S
C44 C45 1.390 . S
C45 C40 1.392 . S
C45 C44 1.390 . S
C45 H57 0.929 . S
O46 Tb30 2.326 . S
O46 C34 1.242 . S
O47 Eu31 2.324 . S
O47 C34 1.258 . S
O48 Tb30 2.500 . S
O48 C50 1.273 . S
O49 Tb30 2.473 . S
O49 C50 1.257 . S
C50 O48 1.273 . S
C50 O49 1.257 . S
O51 Eu31 2.326 . S
O51 C39 1.242 . S
O52 Tb30 2.324 . S
O52 C39 1.258 . S
O53 Eu31 2.500 . S
O53 C36 1.273 . S
O54 Eu31 2.473 . S
O54 C36 1.257 . S
H55 C41 0.929 . S
H56 C43 0.931 . S
H57 C45 0.929 . S
O58 Tb59 2.292 . S
O58 C61 1.255 . S
Tb59 O58 2.292 . S
Tb59 O75 2.326 . S
Tb59 O77 2.500 1_565 S
Tb59 O78 2.473 1_565 S
Tb59 O81 2.324 . S
Eu60 O64 2.292 . S
Eu60 C65 2.852 . S
Eu60 O76 2.324 . S
Eu60 O80 2.326 . S
Eu60 O82 2.500 . S
Eu60 O83 2.473 . S
C61 O58 1.255 . S
C61 O62 1.247 . S
O62 C61 1.247 . S
C63 O75 1.242 . S
C63 O76 1.258 . S
O64 Eu60 2.292 . S
O64 C66 1.255 . S
C65 Eu60 2.852 . S
C65 C69 1.503 . S
C65 O82 1.273 . S
C65 O83 1.257 . S
C66 O64 1.255 . S
C66 O67 1.247 . S
O67 C66 1.247 . S
C68 O80 1.242 . S
C68 O81 1.258 . S
C69 C65 1.503 . S
C69 C70 1.379 . S
C69 C74 1.392 . S
C70 C69 1.379 . S
C70 C71 1.404 . S
C70 H84 0.929 . S
C71 C70 1.404 . S
C71 C72 1.389 . S
C72 C71 1.389 . S
C72 C73 1.399 . S
C72 H85 0.931 . S
C73 C72 1.399 . S
C73 C74 1.390 . S
C74 C69 1.392 . S
C74 C73 1.390 . S
C74 H86 0.929 . S
O75 Tb59 2.326 . S
O75 C63 1.242 . S
O76 Eu60 2.324 . S
O76 C63 1.258 . S
O77 Tb59 2.500 1_545 S
O77 C79 1.273 . S
O78 Tb59 2.473 1_545 S
O78 C79 1.257 . S
C79 O77 1.273 . S
C79 O78 1.257 . S
O80 Eu60 2.326 . S
O80 C68 1.242 . S
O81 Tb59 2.324 . S
O81 C68 1.258 . S
O82 Eu60 2.500 . S
O82 C65 1.273 . S
O83 Eu60 2.473 . S
O83 C65 1.257 . S
H84 C70 0.929 . S
H85 C72 0.931 . S
H86 C74 0.929 . S
O87 Tb88 2.292 . S
O87 C90 1.255 . S
Tb88 O87 2.292 . S
Tb88 O104 2.326 . S
Tb88 O106 2.500 . S
Tb88 O107 2.473 . S
Tb88 O110 2.324 . S
Eu89 O93 2.292 . S
Eu89 C94 2.852 . S
Eu89 O105 2.324 . S
Eu89 O109 2.326 . S
Eu89 O111 2.500 . S
Eu89 O112 2.473 . S
C90 O87 1.255 . S
C90 O91 1.247 . S
O91 C90 1.247 . S
C92 O104 1.242 . S
C92 O105 1.258 . S
O93 Eu89 2.292 . S
O93 C95 1.255 . S
C94 Eu89 2.852 . S
C94 C98 1.503 . S
C94 O111 1.273 . S
C94 O112 1.257 . S
C95 O93 1.255 . S
C95 O96 1.247 . S
O96 C95 1.247 . S
C97 O109 1.242 . S
C97 O110 1.258 . S
C98 C94 1.503 . S
C98 C99 1.379 . S
C98 C103 1.392 . S
C99 C98 1.379 . S
C99 C100 1.404 1_655 S
C99 H113 0.929 . S
C100 C99 1.404 1_455 S
C100 C101 1.389 . S
C101 C100 1.389 . S
C101 C102 1.399 . S
C101 H114 0.931 . S
C102 C101 1.399 . S
C102 C103 1.390 1_455 S
C103 C98 1.392 . S
C103 C102 1.390 1_655 S
C103 H115 0.929 . S
O104 Tb88 2.326 . S
O104 C92 1.242 . S
O105 Eu89 2.324 . S
O105 C92 1.258 . S
O106 Tb88 2.500 . S
O106 C108 1.273 . S
O107 Tb88 2.473 . S
O107 C108 1.257 . S
C108 O106 1.273 . S
C108 O107 1.257 . S
O109 Eu89 2.326 . S
O109 C97 1.242 . S
O110 Tb88 2.324 . S
O110 C97 1.258 . S
O111 Eu89 2.500 . S
O111 C94 1.273 . S
O112 Eu89 2.473 . S
O112 C94 1.257 . S
H113 C99 0.929 . S
H114 C101 0.931 . S
H115 C103 0.929 . S
O116 Tb117 2.292 1_554 S
O116 C119 1.255 . S
Tb117 O116 2.292 1_556 S
Tb117 O133 2.326 . S
Tb117 O135 2.500 1_565 S
Tb117 O136 2.473 1_565 S
Tb117 O139 2.324 . S
Eu118 O122 2.292 . S
Eu118 C123 2.852 . S
Eu118 O134 2.324 . S
Eu118 O138 2.326 . S
Eu118 O140 2.500 . S
Eu118 O141 2.473 . S
C119 O116 1.255 . S
C119 O120 1.247 . S
O120 C119 1.247 . S
C121 O133 1.242 . S
C121 O134 1.258 . S
O122 Eu118 2.292 . S
O122 C124 1.255 . S
C123 Eu118 2.852 . S
C123 C127 1.503 . S
C123 O140 1.273 . S
C123 O141 1.257 . S
C124 O122 1.255 . S
C124 O125 1.247 . S
O125 C124 1.247 . S
C126 O138 1.242 . S
C126 O139 1.258 . S
C127 C123 1.503 . S
C127 C128 1.379 . S
C127 C132 1.392 . S
C128 C127 1.379 . S
C128 C129 1.404 . S
C128 H142 0.929 . S
C129 C128 1.404 . S
C129 C130 1.389 . S
C130 C129 1.389 . S
C130 C131 1.399 . S
C130 H143 0.931 . S
C131 C130 1.399 . S
C131 C132 1.390 . S
C132 C127 1.392 . S
C132 C131 1.390 . S
C132 H144 0.929 . S
O133 Tb117 2.326 . S
O133 C121 1.242 . S
O134 Eu118 2.324 . S
O134 C121 1.258 . S
O135 Tb117 2.500 1_545 S
O135 C137 1.273 . S
O136 Tb117 2.473 1_545 S
O136 C137 1.257 . S
C137 O135 1.273 . S
C137 O136 1.257 . S
O138 Eu118 2.326 . S
O138 C126 1.242 . S
O139 Tb117 2.324 . S
O139 C126 1.258 . S
O140 Eu118 2.500 . S
O140 C123 1.273 . S
O141 Eu118 2.473 . S
O141 C123 1.257 . S
H142 C128 0.929 . S
H143 C130 0.931 . S
H144 C132 0.929 . S
O145 Tb146 2.292 . S
O145 C148 1.255 . S
Tb146 O145 2.292 . S
Tb146 O162 2.326 . S
Tb146 O164 2.500 . S
Tb146 O165 2.473 . S
Tb146 O168 2.324 . S
Eu147 O151 2.292 . S
Eu147 C152 2.852 . S
Eu147 O163 2.324 . S
Eu147 O167 2.326 . S
Eu147 O169 2.500 . S
Eu147 O170 2.473 . S
C148 O145 1.255 . S
C148 O149 1.247 . S
O149 C148 1.247 . S
C150 O162 1.242 . S
C150 O163 1.258 . S
O151 Eu147 2.292 . S
O151 C153 1.255 . S
C152 Eu147 2.852 . S
C152 C156 1.503 . S
C152 O169 1.273 . S
C152 O170 1.257 . S
C153 O151 1.255 . S
C153 O154 1.247 . S
O154 C153 1.247 . S
C155 O167 1.242 . S
C155 O168 1.258 . S
C156 C152 1.503 . S
C156 C157 1.379 . S
C156 C161 1.392 . S
C157 C156 1.379 . S
C157 C158 1.404 . S
C157 H171 0.929 . S
C158 C157 1.404 . S
C158 C159 1.389 . S
C159 C158 1.389 . S
C159 C160 1.399 . S
C159 H172 0.931 . S
C160 C159 1.399 . S
C160 C161 1.390 . S
C161 C156 1.392 . S
C161 C160 1.390 . S
C161 H173 0.929 . S
O162 Tb146 2.326 . S
O162 C150 1.242 . S
O163 Eu147 2.324 . S
O163 C150 1.258 . S
O164 Tb146 2.500 . S
O164 C166 1.273 . S
O165 Tb146 2.473 . S
O165 C166 1.257 . S
C166 O164 1.273 . S
C166 O165 1.257 . S
O167 Eu147 2.326 . S
O167 C155 1.242 . S
O168 Tb146 2.324 . S
O168 C155 1.258 . S
O169 Eu147 2.500 . S
O169 C152 1.273 . S
O170 Eu147 2.473 . S
O170 C152 1.257 . S
H171 C157 0.929 . S
H172 C159 0.931 . S
H173 C161 0.929 . S
O174 Tb175 2.292 . S
O174 C177 1.255 . S
Tb175 O174 2.292 . S
Tb175 O191 2.326 . S
Tb175 O193 2.500 1_545 S
Tb175 O194 2.473 1_545 S
Tb175 O197 2.324 . S
Eu176 O180 2.292 . S
Eu176 C181 2.852 . S
Eu176 O192 2.324 . S
Eu176 O196 2.326 . S
Eu176 O198 2.500 . S
Eu176 O199 2.473 . S
C177 O174 1.255 . S
C177 O178 1.247 . S
O178 C177 1.247 . S
C179 O191 1.242 . S
C179 O192 1.258 . S
O180 Eu176 2.292 . S
O180 C182 1.255 . S
C181 Eu176 2.852 . S
C181 C185 1.503 . S
C181 O198 1.273 . S
C181 O199 1.257 . S
C182 O180 1.255 . S
C182 O183 1.247 . S
O183 C182 1.247 . S
C184 O196 1.242 . S
C184 O197 1.258 . S
C185 C181 1.503 . S
C185 C186 1.379 . S
C185 C190 1.392 . S
C186 C185 1.379 . S
C186 C187 1.404 . S
C186 H200 0.929 . S
C187 C186 1.404 . S
C187 C188 1.389 . S
C188 C187 1.389 . S
C188 C189 1.399 . S
C188 H201 0.931 . S
C189 C188 1.399 . S
C189 C190 1.390 . S
C190 C185 1.392 . S
C190 C189 1.390 . S
C190 H202 0.929 . S
O191 Tb175 2.326 . S
O191 C179 1.242 . S
O192 Eu176 2.324 . S
O192 C179 1.258 . S
O193 Tb175 2.500 1_565 S
O193 C195 1.273 . S
O194 Tb175 2.473 1_565 S
O194 C195 1.257 . S
C195 O193 1.273 . S
C195 O194 1.257 . S
O196 Eu176 2.326 . S
O196 C184 1.242 . S
O197 Tb175 2.324 . S
O197 C184 1.258 . S
O198 Eu176 2.500 . S
O198 C181 1.273 . S
O199 Eu176 2.473 . S
O199 C181 1.257 . S
H200 C186 0.929 . S
H201 C188 0.931 . S
H202 C190 0.929 . S
O203 Tb204 2.292 . S
O203 C206 1.255 . S
Tb204 O203 2.292 . S
Tb204 O220 2.326 . S
Tb204 O222 2.500 . S
Tb204 O223 2.473 . S
Tb204 O226 2.324 . S
Eu205 O209 2.292 . S
Eu205 C210 2.852 . S
Eu205 O221 2.324 . S
Eu205 O225 2.326 . S
Eu205 O227 2.500 . S
Eu205 O228 2.473 . S
C206 O203 1.255 . S
C206 O207 1.247 . S
O207 C206 1.247 . S
C208 O220 1.242 . S
C208 O221 1.258 . S
O209 Eu205 2.292 . S
O209 C211 1.255 . S
C210 Eu205 2.852 . S
C210 C214 1.503 . S
C210 O227 1.273 . S
C210 O228 1.257 . S
C211 O209 1.255 . S
C211 O212 1.247 . S
O212 C211 1.247 . S
C213 O225 1.242 . S
C213 O226 1.258 . S
C214 C210 1.503 . S
C214 C215 1.379 . S
C214 C219 1.392 . S
C215 C214 1.379 . S
C215 C216 1.404 1_455 S
C215 H229 0.929 . S
C216 C215 1.404 1_655 S
C216 C217 1.389 . S
C217 C216 1.389 . S
C217 C218 1.399 . S
C217 H230 0.931 . S
C218 C217 1.399 . S
C218 C219 1.390 1_655 S
C219 C214 1.392 . S
C219 C218 1.390 1_455 S
C219 H231 0.929 . S
O220 Tb204 2.326 . S
O220 C208 1.242 . S
O221 Eu205 2.324 . S
O221 C208 1.258 . S
O222 Tb204 2.500 . S
O222 C224 1.273 . S
O223 Tb204 2.473 . S
O223 C224 1.257 . S
C224 O222 1.273 . S
C224 O223 1.257 . S
O225 Eu205 2.326 . S
O225 C213 1.242 . S
O226 Tb204 2.324 . S
O226 C213 1.258 . S
O227 Eu205 2.500 . S
O227 C210 1.273 . S
O228 Eu205 2.473 . S
O228 C210 1.257 . S
H229 C215 0.929 . S
H230 C217 0.931 . S
H231 C219 0.929 . S
O232 Tb233 2.292 . S
O232 C235 1.255 . S
Tb233 O232 2.292 . S
Tb233 O249 2.326 . S
Tb233 O251 2.500 . S
Tb233 O252 2.473 . S
Tb233 O255 2.324 . S
Eu234 O238 2.292 . S
Eu234 C239 2.852 . S
Eu234 O250 2.324 . S
Eu234 O254 2.326 . S
Eu234 O256 2.500 . S
Eu234 O257 2.473 . S
C235 O232 1.255 . S
C235 O236 1.247 . S
O236 C235 1.247 . S
C237 O249 1.242 . S
C237 O250 1.258 . S
O238 Eu234 2.292 . S
O238 C240 1.255 . S
C239 Eu234 2.852 . S
C239 C243 1.503 . S
C239 O256 1.273 . S
C239 O257 1.257 . S
C240 O238 1.255 . S
C240 O241 1.247 . S
O241 C240 1.247 . S
C242 O254 1.242 . S
C242 O255 1.258 . S
C243 C239 1.503 . S
C243 C244 1.379 . S
C243 C248 1.392 . S
C244 C243 1.379 . S
C244 C245 1.404 . S
C244 H258 0.929 . S
C245 C244 1.404 . S
C245 C246 1.389 . S
C246 C245 1.389 . S
C246 C247 1.399 . S
C246 H259 0.931 . S
C247 C246 1.399 . S
C247 C248 1.390 . S
C248 C243 1.392 . S
C248 C247 1.390 . S
C248 H260 0.929 . S
O249 Tb233 2.326 . S
O249 C237 1.242 . S
O250 Eu234 2.324 . S
O250 C237 1.258 . S
O251 Tb233 2.500 . S
O251 C253 1.273 . S
O252 Tb233 2.473 . S
O252 C253 1.257 . S
C253 O251 1.273 . S
C253 O252 1.257 . S
O254 Eu234 2.326 . S
O254 C242 1.242 . S
O255 Tb233 2.324 . S
O255 C242 1.258 . S
O256 Eu234 2.500 . S
O256 C239 1.273 . S
O257 Eu234 2.473 . S
O257 C239 1.257 . S
H258 C244 0.929 . S
H259 C246 0.931 . S
H260 C248 0.929 . S
O261 Tb262 2.292 . S
O261 C264 1.255 . S
Tb262 O261 2.292 . S
Tb262 O278 2.326 . S
Tb262 O280 2.500 . S
Tb262 O281 2.473 . S
Tb262 O284 2.324 1_545 S
Eu263 O267 2.292 . S
Eu263 C268 2.852 . S
Eu263 O279 2.324 . S
Eu263 O283 2.326 . S
Eu263 O285 2.500 . S
Eu263 O286 2.473 . S
C264 O261 1.255 . S
C264 O265 1.247 . S
O265 C264 1.247 . S
C266 O278 1.242 . S
C266 O279 1.258 . S
O267 Eu263 2.292 . S
O267 C269 1.255 . S
C268 Eu263 2.852 . S
C268 C272 1.503 . S
C268 O285 1.273 . S
C268 O286 1.257 . S
C269 O267 1.255 . S
C269 O270 1.247 . S
O270 C269 1.247 . S
C271 O283 1.242 1_565 S
C271 O284 1.258 . S
C272 C268 1.503 . S
C272 C273 1.379 . S
C272 C277 1.392 . S
C273 C272 1.379 . S
C273 C274 1.404 1_455 S
C273 H287 0.929 . S
C274 C273 1.404 1_655 S
C274 C275 1.389 . S
C275 C274 1.389 . S
C275 C276 1.399 . S
C275 H288 0.931 . S
C276 C275 1.399 . S
C276 C277 1.390 1_655 S
C277 C272 1.392 . S
C277 C276 1.390 1_455 S
C277 H289 0.929 . S
O278 Tb262 2.326 . S
O278 C266 1.242 . S
O279 Eu263 2.324 . S
O279 C266 1.258 . S
O280 Tb262 2.500 . S
O280 C282 1.273 . S
O281 Tb262 2.473 . S
O281 C282 1.257 . S
C282 O280 1.273 . S
C282 O281 1.257 . S
O283 Eu263 2.326 . S
O283 C271 1.242 1_545 S
O284 Tb262 2.324 1_565 S
O284 C271 1.258 . S
O285 Eu263 2.500 . S
O285 C268 1.273 . S
O286 Eu263 2.473 . S
O286 C268 1.257 . S
H287 C273 0.929 . S
H288 C275 0.931 . S
H289 C277 0.929 . S
O290 Tb291 2.292 1_556 S
O290 C293 1.255 . S
Tb291 O290 2.292 1_554 S
Tb291 O307 2.326 . S
Tb291 O309 2.500 . S
Tb291 O310 2.473 . S
Tb291 O313 2.324 . S
Eu292 O296 2.292 . S
Eu292 C297 2.852 . S
Eu292 O308 2.324 . S
Eu292 O312 2.326 . S
Eu292 O314 2.500 . S
Eu292 O315 2.473 . S
C293 O290 1.255 . S
C293 O294 1.247 . S
O294 C293 1.247 . S
C295 O307 1.242 . S
C295 O308 1.258 . S
O296 Eu292 2.292 . S
O296 C298 1.255 . S
C297 Eu292 2.852 . S
C297 C301 1.503 . S
C297 O314 1.273 . S
C297 O315 1.257 . S
C298 O296 1.255 . S
C298 O299 1.247 . S
O299 C298 1.247 . S
C300 O312 1.242 . S
C300 O313 1.258 . S
C301 C297 1.503 . S
C301 C302 1.379 . S
C301 C306 1.392 . S
C302 C301 1.379 . S
C302 C303 1.404 . S
C302 H316 0.929 . S
C303 C302 1.404 . S
C303 C304 1.389 . S
C304 C303 1.389 . S
C304 C305 1.399 . S
C304 H317 0.931 . S
C305 C304 1.399 . S
C305 C306 1.390 . S
C306 C301 1.392 . S
C306 C305 1.390 . S
C306 H318 0.929 . S
O307 Tb291 2.326 . S
O307 C295 1.242 . S
O308 Eu292 2.324 . S
O308 C295 1.258 . S
O309 Tb291 2.500 . S
O309 C311 1.273 . S
O310 Tb291 2.473 . S
O310 C311 1.257 . S
C311 O309 1.273 . S
C311 O310 1.257 . S
O312 Eu292 2.326 . S
O312 C300 1.242 . S
O313 Tb291 2.324 . S
O313 C300 1.258 . S
O314 Eu292 2.500 . S
O314 C297 1.273 . S
O315 Eu292 2.473 . S
O315 C297 1.257 . S
H316 C302 0.929 . S
H317 C304 0.931 . S
H318 C306 0.929 . S
O319 Tb320 2.292 . S
O319 C322 1.255 . S
Tb320 O319 2.292 . S
Tb320 O336 2.326 . S
Tb320 O338 2.500 . S
Tb320 O339 2.473 . S
Tb320 O342 2.324 1_565 S
Eu321 O325 2.292 . S
Eu321 C326 2.852 . S
Eu321 O337 2.324 . S
Eu321 O341 2.326 . S
Eu321 O343 2.500 . S
Eu321 O344 2.473 . S
C322 O319 1.255 . S
C322 O323 1.247 . S
O323 C322 1.247 . S
C324 O336 1.242 . S
C324 O337 1.258 . S
O325 Eu321 2.292 . S
O325 C327 1.255 . S
C326 Eu321 2.852 . S
C326 C330 1.503 . S
C326 O343 1.273 . S
C326 O344 1.257 . S
C327 O325 1.255 . S
C327 O328 1.247 . S
O328 C327 1.247 . S
C329 O341 1.242 1_545 S
C329 O342 1.258 . S
C330 C326 1.503 . S
C330 C331 1.379 . S
C330 C335 1.392 . S
C331 C330 1.379 . S
C331 C332 1.404 . S
C331 H345 0.929 . S
C332 C331 1.404 . S
C332 C333 1.389 . S
C333 C332 1.389 . S
C333 C334 1.399 . S
C333 H346 0.931 . S
C334 C333 1.399 . S
C334 C335 1.390 . S
C335 C330 1.392 . S
C335 C334 1.390 . S
C335 H347 0.929 . S
O336 Tb320 2.326 . S
O336 C324 1.242 . S
O337 Eu321 2.324 . S
O337 C324 1.258 . S
O338 Tb320 2.500 . S
O338 C340 1.273 . S
O339 Tb320 2.473 . S
O339 C340 1.257 . S
C340 O338 1.273 . S
C340 O339 1.257 . S
O341 Eu321 2.326 . S
O341 C329 1.242 1_565 S
O342 Tb320 2.324 1_545 S
O342 C329 1.258 . S
O343 Eu321 2.500 . S
O343 C326 1.273 . S
O344 Eu321 2.473 . S
O344 C326 1.257 . S
H345 C331 0.929 . S
H346 C333 0.931 . S
H347 C335 0.929 . S
O348 Tb349 2.292 . S
O348 C351 1.255 . S
Tb349 O348 2.292 . S
Tb349 O365 2.326 . S
Tb349 O367 2.500 . S
Tb349 O368 2.473 . S
Tb349 O371 2.324 . S
Eu350 O354 2.292 . S
Eu350 C355 2.852 . S
Eu350 O366 2.324 . S
Eu350 O370 2.326 . S
Eu350 O372 2.500 . S
Eu350 O373 2.473 . S
C351 O348 1.255 . S
C351 O352 1.247 . S
O352 C351 1.247 . S
C353 O365 1.242 . S
C353 O366 1.258 . S
O354 Eu350 2.292 . S
O354 C356 1.255 . S
C355 Eu350 2.852 . S
C355 C359 1.503 . S
C355 O372 1.273 . S
C355 O373 1.257 . S
C356 O354 1.255 . S
C356 O357 1.247 . S
O357 C356 1.247 . S
C358 O370 1.242 . S
C358 O371 1.258 . S
C359 C355 1.503 . S
C359 C360 1.379 . S
C359 C364 1.392 . S
C360 C359 1.379 . S
C360 C361 1.404 . S
C360 H374 0.929 . S
C361 C360 1.404 . S
C361 C362 1.389 . S
C362 C361 1.389 . S
C362 C363 1.399 . S
C362 H375 0.931 . S
C363 C362 1.399 . S
C363 C364 1.390 . S
C364 C359 1.392 . S
C364 C363 1.390 . S
C364 H376 0.929 . S
O365 Tb349 2.326 . S
O365 C353 1.242 . S
O366 Eu350 2.324 . S
O366 C353 1.258 . S
O367 Tb349 2.500 . S
O367 C369 1.273 . S
O368 Tb349 2.473 . S
O368 C369 1.257 . S
C369 O367 1.273 . S
C369 O368 1.257 . S
O370 Eu350 2.326 . S
O370 C358 1.242 . S
O371 Tb349 2.324 . S
O371 C358 1.258 . S
O372 Eu350 2.500 . S
O372 C355 1.273 . S
O373 Eu350 2.473 . S
O373 C355 1.257 . S
H374 C360 0.929 . S
H375 C362 0.931 . S
H376 C364 0.929 . S
O377 Tb378 2.292 . S
O377 C380 1.255 . S
Tb378 O377 2.292 . S
Tb378 O394 2.326 . S
Tb378 O396 2.500 . S
Tb378 O397 2.473 . S
Tb378 O400 2.324 1_565 S
Eu379 O383 2.292 . S
Eu379 C384 2.852 . S
Eu379 O395 2.324 . S
Eu379 O399 2.326 . S
Eu379 O401 2.500 . S
Eu379 O402 2.473 . S
C380 O377 1.255 . S
C380 O381 1.247 . S
O381 C380 1.247 . S
C382 O394 1.242 . S
C382 O395 1.258 . S
O383 Eu379 2.292 . S
O383 C385 1.255 . S
C384 Eu379 2.852 . S
C384 C388 1.503 . S
C384 O401 1.273 . S
C384 O402 1.257 . S
C385 O383 1.255 . S
C385 O386 1.247 . S
O386 C385 1.247 . S
C387 O399 1.242 1_545 S
C387 O400 1.258 . S
C388 C384 1.503 . S
C388 C389 1.379 . S
C388 C393 1.392 . S
C389 C388 1.379 . S
C389 C390 1.404 1_655 S
C389 H403 0.929 . S
C390 C389 1.404 1_455 S
C390 C391 1.389 . S
C391 C390 1.389 . S
C391 C392 1.399 . S
C391 H404 0.931 . S
C392 C391 1.399 . S
C392 C393 1.390 1_455 S
C393 C388 1.392 . S
C393 C392 1.390 1_655 S
C393 H405 0.929 . S
O394 Tb378 2.326 . S
O394 C382 1.242 . S
O395 Eu379 2.324 . S
O395 C382 1.258 . S
O396 Tb378 2.500 . S
O396 C398 1.273 . S
O397 Tb378 2.473 . S
O397 C398 1.257 . S
C398 O396 1.273 . S
C398 O397 1.257 . S
O399 Eu379 2.326 . S
O399 C387 1.242 1_565 S
O400 Tb378 2.324 1_545 S
O400 C387 1.258 . S
O401 Eu379 2.500 . S
O401 C384 1.273 . S
O402 Eu379 2.473 . S
O402 C384 1.257 . S
H403 C389 0.929 . S
H404 C391 0.931 . S
H405 C393 0.929 . S
O406 Tb407 2.292 1_554 S
O406 C409 1.255 . S
Tb407 O406 2.292 1_556 S
Tb407 O423 2.326 . S
Tb407 O425 2.500 . S
Tb407 O426 2.473 . S
Tb407 O429 2.324 . S
Eu408 O412 2.292 . S
Eu408 C413 2.852 . S
Eu408 O424 2.324 . S
Eu408 O428 2.326 . S
Eu408 O430 2.500 . S
Eu408 O431 2.473 . S
C409 O406 1.255 . S
C409 O410 1.247 . S
O410 C409 1.247 . S
C411 O423 1.242 . S
C411 O424 1.258 . S
O412 Eu408 2.292 . S
O412 C414 1.255 . S
C413 Eu408 2.852 . S
C413 C417 1.503 . S
C413 O430 1.273 . S
C413 O431 1.257 . S
C414 O412 1.255 . S
C414 O415 1.247 . S
O415 C414 1.247 . S
C416 O428 1.242 . S
C416 O429 1.258 . S
C417 C413 1.503 . S
C417 C418 1.379 . S
C417 C422 1.392 . S
C418 C417 1.379 . S
C418 C419 1.404 . S
C418 H432 0.929 . S
C419 C418 1.404 . S
C419 C420 1.389 . S
C420 C419 1.389 . S
C420 C421 1.399 . S
C420 H433 0.931 . S
C421 C420 1.399 . S
C421 C422 1.390 . S
C422 C417 1.392 . S
C422 C421 1.390 . S
C422 H434 0.929 . S
O423 Tb407 2.326 . S
O423 C411 1.242 . S
O424 Eu408 2.324 . S
O424 C411 1.258 . S
O425 Tb407 2.500 . S
O425 C427 1.273 . S
O426 Tb407 2.473 . S
O426 C427 1.257 . S
C427 O425 1.273 . S
C427 O426 1.257 . S
O428 Eu408 2.326 . S
O428 C416 1.242 . S
O429 Tb407 2.324 . S
O429 C416 1.258 . S
O430 Eu408 2.500 . S
O430 C413 1.273 . S
O431 Eu408 2.473 . S
O431 C413 1.257 . S
H432 C418 0.929 . S
H433 C420 0.931 . S
H434 C422 0.929 . S
O435 Tb436 2.292 . S
O435 C438 1.255 . S
Tb436 O435 2.292 . S
Tb436 O452 2.326 . S
Tb436 O454 2.500 . S
Tb436 O455 2.473 . S
Tb436 O458 2.324 1_545 S
Eu437 O441 2.292 . S
Eu437 C442 2.852 . S
Eu437 O453 2.324 . S
Eu437 O457 2.326 . S
Eu437 O459 2.500 . S
Eu437 O460 2.473 . S
C438 O435 1.255 . S
C438 O439 1.247 . S
O439 C438 1.247 . S
C440 O452 1.242 . S
C440 O453 1.258 . S
O441 Eu437 2.292 . S
O441 C443 1.255 . S
C442 Eu437 2.852 . S
C442 C446 1.503 . S
C442 O459 1.273 . S
C442 O460 1.257 . S
C443 O441 1.255 . S
C443 O444 1.247 . S
O444 C443 1.247 . S
C445 O457 1.242 1_565 S
C445 O458 1.258 . S
C446 C442 1.503 . S
C446 C447 1.379 . S
C446 C451 1.392 . S
C447 C446 1.379 . S
C447 C448 1.404 . S
C447 H461 0.929 . S
C448 C447 1.404 . S
C448 C449 1.389 . S
C449 C448 1.389 . S
C449 C450 1.399 . S
C449 H462 0.931 . S
C450 C449 1.399 . S
C450 C451 1.390 . S
C451 C446 1.392 . S
C451 C450 1.390 . S
C451 H463 0.929 . S
O452 Tb436 2.326 . S
O452 C440 1.242 . S
O453 Eu437 2.324 . S
O453 C440 1.258 . S
O454 Tb436 2.500 . S
O454 C456 1.273 . S
O455 Tb436 2.473 . S
O455 C456 1.257 . S
C456 O454 1.273 . S
C456 O455 1.257 . S
O457 Eu437 2.326 . S
O457 C445 1.242 1_545 S
O458 Tb436 2.324 1_565 S
O458 C445 1.258 . S
O459 Eu437 2.500 . S
O459 C442 1.273 . S
O460 Eu437 2.473 . S
O460 C442 1.257 . S
H461 C447 0.929 . S
H462 C449 0.931 . S
H463 C451 0.929 . S
C464 C465 1.391 . S
C464 C466 1.394 . S
C464 H480 0.931 . S
C465 C464 1.391 . S
C465 C469 1.376 . S
C466 C464 1.394 . S
C466 C467 1.369 . S
C466 C470 1.531 . S
C467 C466 1.369 . S
C467 C468 1.410 . S
C467 C475 1.503 . S
C468 C467 1.410 . S
C468 C469 1.392 . S
C468 C471 1.511 . S
C469 C465 1.376 . S
C469 C468 1.392 . S
C469 H481 0.929 . S
C470 C466 1.531 . S
C470 H482 0.960 . S
C470 H483 0.962 . S
C470 H484 0.960 . S
C471 C468 1.511 . S
C471 H485 0.961 . S
C471 H486 0.961 . S
C471 H487 0.961 . S
C472 C473 1.370 . S
C472 C474 1.363 . S
C472 H488 0.931 . S
C473 C472 1.370 . S
C473 C477 1.408 . S
C474 C472 1.363 . S
C474 C475 1.370 . S
C474 C478 1.524 . S
C475 C467 1.503 . S
C475 C474 1.370 . S
C475 C476 1.403 . S
C476 C475 1.403 . S
C476 C477 1.404 . S
C476 C479 1.539 . S
C477 C473 1.408 . S
C477 C476 1.404 . S
C477 H489 0.930 . S
C478 C474 1.524 . S
C478 H490 0.956 . S
C478 H491 0.961 . S
C478 H492 0.943 1_545 S
C479 C476 1.539 . S
C479 H493 0.958 . S
C479 H494 0.961 . S
C479 H495 0.960 . S
H480 C464 0.931 . S
H481 C469 0.929 . S
H482 C470 0.960 . S
H483 C470 0.962 . S
H484 C470 0.960 . S
H485 C471 0.961 . S
H486 C471 0.961 . S
H487 C471 0.961 . S
H488 C472 0.931 . S
H489 C477 0.930 . S
H490 C478 0.956 . S
H491 C478 0.961 . S
H492 C478 0.943 1_565 S
H493 C479 0.958 . S
H494 C479 0.961 . S
H495 C479 0.960 . S
C496 C497 1.391 . S
C496 C498 1.394 . S
C496 H512 0.931 . S
C497 C496 1.391 . S
C497 C501 1.376 . S
C498 C496 1.394 . S
C498 C499 1.369 . S
C498 C502 1.531 . S
C499 C498 1.369 . S
C499 C500 1.410 . S
C499 C507 1.503 . S
C500 C499 1.410 . S
C500 C501 1.392 . S
C500 C503 1.511 . S
C501 C497 1.376 . S
C501 C500 1.392 . S
C501 H513 0.929 . S
C502 C498 1.531 . S
C502 H514 0.960 . S
C502 H515 0.962 . S
C502 H516 0.960 . S
C503 C500 1.511 . S
C503 H517 0.961 . S
C503 H518 0.961 . S
C503 H519 0.961 . S
C504 C505 1.370 . S
C504 C506 1.363 . S
C504 H520 0.931 . S
C505 C504 1.370 . S
C505 C509 1.408 . S
C506 C504 1.363 . S
C506 C507 1.370 . S
C506 C510 1.524 . S
C507 C499 1.503 . S
C507 C506 1.370 . S
C507 C508 1.403 . S
C508 C507 1.403 . S
C508 C509 1.404 . S
C508 C511 1.539 . S
C509 C505 1.408 . S
C509 C508 1.404 . S
C509 H521 0.930 . S
C510 C506 1.524 . S
C510 H522 0.956 . S
C510 H523 0.961 . S
C510 H524 0.961 . S
C511 C508 1.539 . S
C511 H525 0.958 . S
C511 H526 0.961 . S
C511 H527 0.960 . S
H512 C496 0.931 . S
H513 C501 0.929 . S
H514 C502 0.960 . S
H515 C502 0.962 . S
H516 C502 0.960 . S
H517 C503 0.961 . S
H518 C503 0.961 . S
H519 C503 0.961 . S
H520 C504 0.931 . S
H521 C509 0.930 . S
H522 C510 0.956 . S
H523 C510 0.961 . S
H524 C510 0.961 . S
H525 C511 0.958 . S
H526 C511 0.961 . S
H527 C511 0.960 . S
C528 C529 1.391 . S
C528 C530 1.394 . S
C528 H544 0.931 . S
C529 C528 1.391 . S
C529 C533 1.376 . S
C530 C528 1.394 . S
C530 C531 1.369 . S
C530 C534 1.531 . S
C531 C530 1.369 . S
C531 C532 1.410 . S
C531 C539 1.503 . S
C532 C531 1.410 . S
C532 C533 1.392 . S
C532 C535 1.511 . S
C533 C529 1.376 . S
C533 C532 1.392 . S
C533 H545 0.929 . S
C534 C530 1.531 . S
C534 H546 0.960 . S
C534 H547 0.962 . S
C534 H548 0.960 1_565 S
C535 C532 1.511 . S
C535 H549 0.961 . S
C535 H550 0.961 . S
C535 H551 0.961 . S
C536 C537 1.370 . S
C536 C538 1.363 . S
C536 H552 0.931 . S
C537 C536 1.370 . S
C537 C541 1.408 . S
C538 C536 1.363 . S
C538 C539 1.370 . S
C538 C542 1.524 . S
C539 C531 1.503 . S
C539 C538 1.370 . S
C539 C540 1.403 . S
C540 C539 1.403 . S
C540 C541 1.404 . S
C540 C543 1.539 . S
C541 C537 1.408 . S
C541 C540 1.404 . S
C541 H553 0.930 . S
C542 C538 1.524 . S
C542 H554 0.956 . S
C542 H555 0.961 . S
C542 H556 0.961 . S
C543 C540 1.539 . S
C543 H557 0.958 1_565 S
C543 H558 0.961 . S
C543 H559 0.960 . S
H544 C528 0.931 . S
H545 C533 0.929 . S
H546 C534 0.960 . S
H547 C534 0.962 . S
H548 C534 0.960 1_545 S
H549 C535 0.961 . S
H550 C535 0.961 . S
H551 C535 0.961 . S
H552 C536 0.931 . S
H553 C541 0.930 . S
H554 C542 0.956 . S
H555 C542 0.961 . S
H556 C542 0.961 . S
H557 C543 0.958 1_545 S
H558 C543 0.961 . S
H559 C543 0.960 . S
C560 C561 1.391 . S
C560 C562 1.394 . S
C560 H576 0.931 . S
C561 C560 1.391 . S
C561 C565 1.376 . S
C562 C560 1.394 . S
C562 C563 1.369 . S
C562 C566 1.531 . S
C563 C562 1.369 . S
C563 C564 1.410 . S
C563 C571 1.503 . S
C564 C563 1.410 . S
C564 C565 1.392 . S
C564 C567 1.511 . S
C565 C561 1.376 . S
C565 C564 1.392 . S
C565 H577 0.929 . S
C566 C562 1.531 . S
C566 H578 0.960 . S
C566 H579 0.962 . S
C566 H580 0.960 . S
C567 C564 1.511 . S
C567 H581 0.961 . S
C567 H582 0.961 . S
C567 H583 0.961 . S
C568 C569 1.370 . S
C568 C570 1.363 . S
C568 H584 0.931 . S
C569 C568 1.370 . S
C569 C573 1.408 . S
C570 C568 1.363 . S
C570 C571 1.370 . S
C570 C574 1.524 . S
C571 C563 1.503 . S
C571 C570 1.370 . S
C571 C572 1.403 . S
C572 C571 1.403 . S
C572 C573 1.404 . S
C572 C575 1.539 . S
C573 C569 1.408 . S
C573 C572 1.404 . S
C573 H585 0.930 . S
C574 C570 1.524 . S
C574 H586 0.956 . S
C574 H587 0.961 . S
C574 H588 0.961 . S
C575 C572 1.539 . S
C575 H589 0.958 . S
C575 H590 0.961 . S
C575 H591 0.960 . S
H576 C560 0.931 . S
H577 C565 0.929 . S
H578 C566 0.960 . S
H579 C566 0.962 . S
H580 C566 0.960 . S
H581 C567 0.961 . S
H582 C567 0.961 . S
H583 C567 0.961 . S
H584 C568 0.931 . S
H585 C573 0.930 . S
H586 C574 0.956 . S
H587 C574 0.961 . S
H588 C574 0.961 . S
H589 C575 0.958 . S
H590 C575 0.961 . S
H591 C575 0.960 . S
C592 C593 1.391 . S
C592 C594 1.394 . S
C592 H608 0.931 . S
C593 C592 1.391 . S
C593 C597 1.376 . S
C594 C592 1.394 . S
C594 C595 1.369 . S
C594 C598 1.531 . S
C595 C594 1.369 . S
C595 C596 1.410 . S
C595 C603 1.503 . S
C596 C595 1.410 . S
C596 C597 1.392 . S
C596 C599 1.511 . S
C597 C593 1.376 . S
C597 C596 1.392 . S
C597 H609 0.929 . S
C598 C594 1.531 . S
C598 H610 0.960 . S
C598 H611 0.962 . S
C598 H612 0.960 . S
C599 C596 1.511 . S
C599 H613 0.961 . S
C599 H614 0.961 . S
C599 H615 0.961 . S
C600 C601 1.370 . S
C600 C602 1.363 . S
C600 H616 0.931 . S
C601 C600 1.370 . S
C601 C605 1.408 . S
C602 C600 1.363 . S
C602 C603 1.370 . S
C602 C606 1.524 . S
C603 C595 1.503 . S
C603 C602 1.370 . S
C603 C604 1.403 . S
C604 C603 1.403 . S
C604 C605 1.404 . S
C604 C607 1.539 . S
C605 C601 1.408 . S
C605 C604 1.404 . S
C605 H617 0.930 . S
C606 C602 1.524 . S
C606 H618 0.956 . S
C606 H619 0.961 . S
C606 H620 0.961 1_565 S
C607 C604 1.539 . S
C607 H621 0.958 . S
C607 H622 0.961 . S
C607 H623 0.960 . S
H608 C592 0.931 . S
H609 C597 0.929 . S
H610 C598 0.960 . S
H611 C598 0.962 . S
H612 C598 0.960 . S
H613 C599 0.961 . S
H614 C599 0.961 . S
H615 C599 0.961 . S
H616 C600 0.931 . S
H617 C605 0.930 . S
H618 C606 0.956 . S
H619 C606 0.961 . S
H620 C606 0.961 1_545 S
H621 C607 0.958 . S
H622 C607 0.961 . S
H623 C607 0.960 . S
C624 C625 1.391 . S
C624 C626 1.394 . S
C624 H640 0.931 . S
C625 C624 1.391 . S
C625 C629 1.376 . S
C626 C624 1.394 . S
C626 C627 1.369 . S
C626 C630 1.531 . S
C627 C626 1.369 . S
C627 C628 1.410 . S
C627 C635 1.503 . S
C628 C627 1.410 . S
C628 C629 1.392 . S
C628 C631 1.511 . S
C629 C625 1.376 . S
C629 C628 1.392 . S
C629 H641 0.929 . S
C630 C626 1.531 . S
C630 H642 0.960 . S
C630 H643 0.962 . S
C630 H644 0.960 . S
C631 C628 1.511 . S
C631 H645 0.961 . S
C631 H646 0.961 . S
C631 H647 0.961 . S
C632 C633 1.370 . S
C632 C634 1.363 . S
C632 H648 0.931 . S
C633 C632 1.370 . S
C633 C637 1.408 . S
C634 C632 1.363 . S
C634 C635 1.370 . S
C634 C638 1.524 . S
C635 C627 1.503 . S
C635 C634 1.370 . S
C635 C636 1.403 . S
C636 C635 1.403 . S
C636 C637 1.404 . S
C636 C639 1.539 . S
C637 C633 1.408 . S
C637 C636 1.404 . S
C637 H649 0.930 . S
C638 C634 1.524 . S
C638 H650 0.956 . S
C638 H651 0.961 . S
C638 H652 0.961 . S
C639 C636 1.539 . S
C639 H653 0.958 . S
C639 H654 0.961 . S
C639 H655 0.960 . S
H640 C624 0.931 . S
H641 C629 0.929 . S
H642 C630 0.960 . S
H643 C630 0.962 . S
H644 C630 0.960 . S
H645 C631 0.961 . S
H646 C631 0.961 . S
H647 C631 0.961 . S
H648 C632 0.931 . S
H649 C637 0.930 . S
H650 C638 0.956 . S
H651 C638 0.961 . S
H652 C638 0.961 . S
H653 C639 0.958 . S
H654 C639 0.961 . S
H655 C639 0.960 . S
C656 C657 1.391 . S
C656 C658 1.394 . S
C656 H672 0.931 . S
C657 C656 1.391 . S
C657 C661 1.376 . S
C658 C656 1.394 . S
C658 C659 1.369 . S
C658 C662 1.531 . S
C659 C658 1.369 . S
C659 C660 1.410 . S
C659 C667 1.503 . S
C660 C659 1.410 . S
C660 C661 1.392 . S
C660 C663 1.511 . S
C661 C657 1.376 . S
C661 C660 1.392 . S
C661 H673 0.929 . S
C662 C658 1.531 . S
C662 H674 0.960 . S
C662 H675 0.962 . S
C662 H676 0.960 . S
C663 C660 1.511 . S
C663 H677 0.961 . S
C663 H678 0.961 . S
C663 H679 0.961 . S
C664 C665 1.370 . S
C664 C666 1.363 . S
C664 H680 0.931 . S
C665 C664 1.370 . S
C665 C669 1.408 . S
C666 C664 1.363 . S
C666 C667 1.370 . S
C666 C670 1.524 . S
C667 C659 1.503 . S
C667 C666 1.370 . S
C667 C668 1.403 . S
C668 C667 1.403 . S
C668 C669 1.404 . S
C668 C671 1.539 . S
C669 C665 1.408 . S
C669 C668 1.404 . S
C669 H681 0.930 . S
C670 C666 1.524 . S
C670 H682 0.956 . S
C670 H683 0.961 . S
C670 H684 0.961 . S
C671 C668 1.539 . S
C671 H685 0.958 1_545 S
C671 H686 0.961 . S
C671 H687 0.960 . S
H672 C656 0.931 . S
H673 C661 0.929 . S
H674 C662 0.960 . S
H675 C662 0.962 . S
H676 C662 0.960 . S
H677 C663 0.961 . S
H678 C663 0.961 . S
H679 C663 0.961 . S
H680 C664 0.931 . S
H681 C669 0.930 . S
H682 C670 0.956 . S
H683 C670 0.961 . S
H684 C670 0.961 . S
H685 C671 0.958 1_565 S
H686 C671 0.961 . S
H687 C671 0.960 . S
C688 C689 1.391 . S
C688 C690 1.394 . S
C688 H704 0.931 . S
C689 C688 1.391 . S
C689 C693 1.376 . S
C690 C688 1.394 . S
C690 C691 1.369 . S
C690 C694 1.531 . S
C691 C690 1.369 . S
C691 C692 1.410 . S
C691 C699 1.503 . S
C692 C691 1.410 . S
C692 C693 1.392 . S
C692 C695 1.511 . S
C693 C689 1.376 . S
C693 C692 1.392 . S
C693 H705 0.929 . S
C694 C690 1.531 . S
C694 H706 0.960 . S
C694 H707 0.962 . S
C694 H708 0.960 . S
C695 C692 1.511 . S
C695 H709 0.961 . S
C695 H710 0.961 . S
C695 H711 0.961 . S
C696 C697 1.370 . S
C696 C698 1.363 . S
C696 H712 0.931 . S
C697 C696 1.370 . S
C697 C701 1.408 . S
C698 C696 1.363 . S
C698 C699 1.370 . S
C698 C702 1.524 . S
C699 C691 1.503 . S
C699 C698 1.370 . S
C699 C700 1.403 . S
C700 C699 1.403 . S
C700 C701 1.404 . S
C700 C703 1.539 . S
C701 C697 1.408 . S
C701 C700 1.404 . S
C701 H713 0.930 . S
C702 C698 1.524 . S
C702 H714 0.956 . S
C702 H715 0.961 . S
C702 H716 0.961 . S
C703 C700 1.539 . S
C703 H717 0.958 . S
C703 H718 0.961 . S
C703 H719 0.960 . S
H704 C688 0.931 . S
H705 C693 0.929 . S
H706 C694 0.960 . S
H707 C694 0.962 . S
H708 C694 0.960 . S
H709 C695 0.961 . S
H710 C695 0.961 . S
H711 C695 0.961 . S
H712 C696 0.931 . S
H713 C701 0.930 . S
H714 C702 0.956 . S
H715 C702 0.961 . S
H716 C702 0.961 . S
H717 C703 0.958 . S
H718 C703 0.961 . S
H719 C703 0.960 . S
C720 C721 1.391 . S
C720 C722 1.394 . S
C720 H736 0.931 . S
C721 C720 1.391 . S
C721 C725 1.376 . S
C722 C720 1.394 . S
C722 C723 1.369 . S
C722 C726 1.531 . S
C723 C722 1.369 . S
C723 C724 1.410 . S
C723 C731 1.503 . S
C724 C723 1.410 . S
C724 C725 1.392 . S
C724 C727 1.511 . S
C725 C721 1.376 . S
C725 C724 1.392 . S
C725 H737 0.929 . S
C726 C722 1.531 . S
C726 H738 0.960 . S
C726 H739 0.962 . S
C726 H740 0.960 . S
C727 C724 1.511 . S
C727 H741 0.961 . S
C727 H742 0.961 . S
C727 H743 0.961 . S
C728 C729 1.370 . S
C728 C730 1.363 . S
C728 H744 0.931 . S
C729 C728 1.370 . S
C729 C733 1.408 . S
C730 C728 1.363 . S
C730 C731 1.370 . S
C730 C734 1.524 . S
C731 C723 1.503 . S
C731 C730 1.370 . S
C731 C732 1.403 . S
C732 C731 1.403 . S
C732 C733 1.404 . S
C732 C735 1.539 . S
C733 C729 1.408 . S
C733 C732 1.404 . S
C733 H745 0.930 . S
C734 C730 1.524 . S
C734 H746 0.956 . S
C734 H747 0.961 . S
C734 H748 0.961 . S
C735 C732 1.539 . S
C735 H749 0.958 . S
C735 H750 0.961 . S
C735 H751 0.960 . S
H736 C720 0.931 . S
H737 C725 0.929 . S
H738 C726 0.960 . S
H739 C726 0.962 . S
H740 C726 0.960 . S
H741 C727 0.961 . S
H742 C727 0.961 . S
H743 C727 0.961 . S
H744 C728 0.931 . S
H745 C733 0.930 . S
H746 C734 0.956 . S
H747 C734 0.961 . S
H748 C734 0.961 . S
H749 C735 0.958 . S
H750 C735 0.961 . S
H751 C735 0.960 . S
C752 C753 1.391 . S
C752 C754 1.394 . S
C752 H768 0.931 . S
C753 C752 1.391 . S
C753 C757 1.376 . S
C754 C752 1.394 . S
C754 C755 1.369 . S
C754 C758 1.531 1_565 S
C755 C754 1.369 . S
C755 C756 1.410 . S
C755 C763 1.503 1_565 S
C756 C755 1.410 . S
C756 C757 1.392 . S
C756 C759 1.511 . S
C757 C753 1.376 . S
C757 C756 1.392 . S
C757 H769 0.929 . S
C758 C754 1.531 1_545 S
C758 H770 0.960 . S
C758 H771 0.962 1_545 S
C758 H772 0.960 . S
C759 C756 1.511 . S
C759 H773 0.961 . S
C759 H774 0.961 . S
C759 H775 0.961 . S
C760 C761 1.386 . S
C760 C762 1.356 1_545 S
C760 H776 0.922 1_545 S
C761 C760 1.386 . S
C761 C765 1.408 . S
C762 C760 1.356 1_565 S
C762 C763 1.370 1_565 S
C762 C766 1.524 . S
C763 C755 1.503 1_545 S
C763 C762 1.370 1_545 S
C763 C764 1.403 . S
C764 C763 1.403 . S
C764 C765 1.404 . S
C764 C767 1.539 . S
C765 C761 1.408 . S
C765 C764 1.404 . S
C765 H777 0.930 . S
C766 C762 1.524 . S
C766 H778 0.956 . S
C766 H779 0.961 . S
C766 H780 0.961 . S
C767 C764 1.539 . S
C767 H781 0.958 . S
C767 H782 0.961 . S
C767 H783 0.960 . S
H768 C752 0.931 . S
H769 C757 0.929 . S
H770 C758 0.960 . S
H771 C758 0.962 1_565 S
H772 C758 0.960 . S
H773 C759 0.961 . S
H774 C759 0.961 . S
H775 C759 0.961 . S
H776 C760 0.922 1_565 S
H777 C765 0.930 . S
H778 C766 0.956 . S
H779 C766 0.961 . S
H780 C766 0.961 . S
H781 C767 0.958 . S
H782 C767 0.961 . S
H783 C767 0.960 . S
C784 C785 1.391 . S
C784 C786 1.394 . S
C784 H800 0.931 . S
C785 C784 1.391 . S
C785 C789 1.376 . S
C786 C784 1.394 . S
C786 C787 1.369 . S
C786 C790 1.531 . S
C787 C786 1.369 . S
C787 C788 1.410 . S
C787 C795 1.503 . S
C788 C787 1.410 . S
C788 C789 1.392 . S
C788 C791 1.511 . S
C789 C785 1.376 . S
C789 C788 1.392 . S
C789 H801 0.929 . S
C790 C786 1.531 . S
C790 H802 0.960 . S
C790 H803 0.962 . S
C790 H804 0.960 . S
C791 C788 1.511 . S
C791 H805 0.961 . S
C791 H806 0.961 . S
C791 H807 0.961 . S
C792 C793 1.370 . S
C792 C794 1.363 . S
C792 H808 0.931 . S
C793 C792 1.370 . S
C793 C797 1.408 . S
C794 C792 1.363 . S
C794 C795 1.370 . S
C794 C798 1.524 . S
C795 C787 1.503 . S
C795 C794 1.370 . S
C795 C796 1.403 . S
C796 C795 1.403 . S
C796 C797 1.404 . S
C796 C799 1.539 . S
C797 C793 1.408 . S
C797 C796 1.404 . S
C797 H809 0.930 . S
C798 C794 1.524 . S
C798 H810 0.956 . S
C798 H811 0.961 . S
C798 H812 0.961 . S
C799 C796 1.539 . S
C799 H813 0.958 . S
C799 H814 0.961 . S
C799 H815 0.960 . S
H800 C784 0.931 . S
H801 C789 0.929 . S
H802 C790 0.960 . S
H803 C790 0.962 . S
H804 C790 0.960 . S
H805 C791 0.961 . S
H806 C791 0.961 . S
H807 C791 0.961 . S
H808 C792 0.931 . S
H809 C797 0.930 . S
H810 C798 0.956 . S
H811 C798 0.961 . S
H812 C798 0.961 . S
H813 C799 0.958 . S
H814 C799 0.961 . S
H815 C799 0.960 . S
C816 C817 1.391 . S
C816 C818 1.394 . S
C816 H832 0.931 . S
C817 C816 1.391 . S
C817 C821 1.376 . S
C818 C816 1.394 . S
C818 C819 1.369 . S
C818 C822 1.531 . S
C819 C818 1.369 . S
C819 C820 1.410 . S
C819 C827 1.503 . S
C820 C819 1.410 . S
C820 C821 1.392 . S
C820 C823 1.511 1_545 S
C821 C817 1.376 . S
C821 C820 1.392 . S
C821 H833 0.929 . S
C822 C818 1.531 . S
C822 H834 0.960 . S
C822 H835 0.962 . S
C822 H836 0.960 . S
C823 C820 1.511 1_565 S
C823 H837 0.961 . S
C823 H838 0.961 . S
C823 H839 0.961 . S
C824 C825 1.370 . S
C824 C826 1.363 . S
C824 H840 0.931 . S
C825 C824 1.370 . S
C825 C829 1.408 . S
C826 C824 1.363 . S
C826 C827 1.370 1_565 S
C826 C830 1.524 . S
C827 C819 1.503 . S
C827 C826 1.370 1_545 S
C827 C828 1.403 . S
C828 C827 1.403 . S
C828 C829 1.404 1_545 S
C828 C831 1.539 . S
C829 C825 1.408 . S
C829 C828 1.404 1_565 S
C829 H841 0.930 . S
C830 C826 1.524 . S
C830 H842 0.956 1_565 S
C830 H843 0.961 . S
C830 H844 0.961 . S
C831 C828 1.539 . S
C831 H845 0.958 . S
C831 H846 0.961 . S
C831 H847 0.960 . S
H832 C816 0.931 . S
H833 C821 0.929 . S
H834 C822 0.960 . S
H835 C822 0.962 . S
H836 C822 0.960 . S
H837 C823 0.961 . S
H838 C823 0.961 . S
H839 C823 0.961 . S
H840 C824 0.931 . S
H841 C829 0.930 . S
H842 C830 0.956 1_545 S
H843 C830 0.961 . S
H844 C830 0.961 . S
H845 C831 0.958 . S
H846 C831 0.961 . S
H847 C831 0.960 . S
C848 C849 1.391 . S
C848 C850 1.394 . S
C848 H864 0.931 . S
C849 C848 1.391 . S
C849 C853 1.376 . S
C850 C848 1.394 . S
C850 C851 1.369 . S
C850 C854 1.531 . S
C851 C850 1.369 . S
C851 C852 1.410 . S
C851 C859 1.503 . S
C852 C851 1.410 . S
C852 C853 1.392 . S
C852 C855 1.511 . S
C853 C849 1.376 . S
C853 C852 1.392 . S
C853 H865 0.929 . S
C854 C850 1.531 . S
C854 H866 0.960 . S
C854 H867 0.962 . S
C854 H868 0.960 . S
C855 C852 1.511 . S
C855 H869 0.961 . S
C855 H870 0.961 . S
C855 H871 0.961 . S
C856 C857 1.370 . S
C856 C858 1.363 . S
C856 H872 0.931 . S
C857 C856 1.370 . S
C857 C861 1.408 . S
C858 C856 1.363 . S
C858 C859 1.370 . S
C858 C862 1.524 . S
C859 C851 1.503 . S
C859 C858 1.370 . S
C859 C860 1.403 . S
C860 C859 1.403 . S
C860 C861 1.404 . S
C860 C863 1.539 . S
C861 C857 1.408 . S
C861 C860 1.404 . S
C861 H873 0.930 . S
C862 C858 1.524 . S
C862 H874 0.956 . S
C862 H875 0.961 . S
C862 H876 0.961 . S
C863 C860 1.539 . S
C863 H877 0.958 . S
C863 H878 0.961 . S
C863 H879 0.960 . S
H864 C848 0.931 . S
H865 C853 0.929 . S
H866 C854 0.960 . S
H867 C854 0.962 . S
H868 C854 0.960 . S
H869 C855 0.961 . S
H870 C855 0.961 . S
H871 C855 0.961 . S
H872 C856 0.931 . S
H873 C861 0.930 . S
H874 C862 0.956 . S
H875 C862 0.961 . S
H876 C862 0.961 . S
H877 C863 0.958 . S
H878 C863 0.961 . S
H879 C863 0.960 . S
C880 C881 1.391 . S
C880 C882 1.394 . S
C880 H896 0.931 . S
C881 C880 1.391 . S
C881 C885 1.376 . S
C882 C880 1.394 . S
C882 C883 1.369 1_565 S
C882 C886 1.531 1_565 S
C883 C882 1.369 1_545 S
C883 C884 1.410 1_545 S
C883 C891 1.503 . S
C884 C883 1.410 1_565 S
C884 C885 1.392 . S
C884 C887 1.511 1_565 S
C885 C881 1.376 . S
C885 C884 1.392 . S
C885 H897 0.929 . S
C886 C882 1.531 1_545 S
C886 H898 0.960 . S
C886 H899 0.962 1_545 S
C886 H900 0.960 . S
C887 C884 1.511 1_545 S
C887 H901 0.961 1_545 S
C887 H902 0.961 . S
C887 H903 0.961 . S
C888 C889 1.370 . S
C888 C890 1.363 . S
C888 H904 0.931 . S
C889 C888 1.370 . S
C889 C893 1.408 . S
C890 C888 1.363 . S
C890 C891 1.370 . S
C890 C894 1.524 1_545 S
C891 C883 1.503 . S
C891 C890 1.370 . S
C891 C892 1.403 . S
C892 C891 1.403 . S
C892 C893 1.404 . S
C892 C895 1.539 . S
C893 C889 1.408 . S
C893 C892 1.404 . S
C893 H905 0.930 . S
C894 C890 1.524 1_565 S
C894 H906 0.956 . S
C894 H907 0.961 . S
C894 H908 0.961 . S
C895 C892 1.539 . S
C895 H909 0.958 . S
C895 H910 0.961 . S
C895 H911 0.960 . S
H896 C880 0.931 . S
H897 C885 0.929 . S
H898 C886 0.960 . S
H899 C886 0.962 1_565 S
H900 C886 0.960 . S
H901 C887 0.961 1_565 S
H902 C887 0.961 . S
H903 C887 0.961 . S
H904 C888 0.931 . S
H905 C893 0.930 . S
H906 C894 0.956 . S
H907 C894 0.961 . S
H908 C894 0.961 . S
H909 C895 0.958 . S
H910 C895 0.961 . S
H911 C895 0.960 . S
C912 C913 1.391 . S
C912 C914 1.394 . S
C912 H928 0.931 . S
C913 C912 1.391 . S
C913 C917 1.376 . S
C914 C912 1.394 . S
C914 C915 1.369 . S
C914 C918 1.531 . S
C915 C914 1.369 . S
C915 C916 1.410 . S
C915 C923 1.503 . S
C916 C915 1.410 . S
C916 C917 1.392 . S
C916 C919 1.511 . S
C917 C913 1.376 . S
C917 C916 1.392 . S
C917 H929 0.929 . S
C918 C914 1.531 . S
C918 H930 0.960 . S
C918 H931 0.962 . S
C918 H932 0.960 . S
C919 C916 1.511 . S
C919 H933 0.961 . S
C919 H934 0.961 . S
C919 H935 0.961 . S
C920 C921 1.370 . S
C920 C922 1.363 . S
C920 H936 0.931 . S
C921 C920 1.370 . S
C921 C925 1.408 . S
C922 C920 1.363 . S
C922 C923 1.370 . S
C922 C926 1.524 . S
C923 C915 1.503 . S
C923 C922 1.370 . S
C923 C924 1.403 . S
C924 C923 1.403 . S
C924 C925 1.404 . S
C924 C927 1.539 . S
C925 C921 1.408 . S
C925 C924 1.404 . S
C925 H937 0.930 . S
C926 C922 1.524 . S
C926 H938 0.956 . S
C926 H939 0.961 . S
C926 H940 0.961 . S
C927 C924 1.539 . S
C927 H941 0.958 . S
C927 H942 0.961 . S
C927 H943 0.960 . S
H928 C912 0.931 . S
H929 C917 0.929 . S
H930 C918 0.960 . S
H931 C918 0.962 . S
H932 C918 0.960 . S
H933 C919 0.961 . S
H934 C919 0.961 . S
H935 C919 0.961 . S
H936 C920 0.931 . S
H937 C925 0.930 . S
H938 C926 0.956 . S
H939 C926 0.961 . S
H940 C926 0.961 . S
H941 C927 0.958 . S
H942 C927 0.961 . S
H943 C927 0.960 . S
C944 C945 1.391 . S
C944 C946 1.392 . S
C944 H960 0.931 . S
C945 C944 1.391 . S
C945 C949 1.376 . S
C946 C944 1.392 . S
C946 C947 1.368 . S
C946 C950 1.533 1_565 S
C947 C946 1.368 . S
C947 C948 1.410 . S
C947 C955 1.503 1_565 S
C948 C947 1.410 . S
C948 C949 1.392 . S
C948 C951 1.511 . S
C949 C945 1.376 . S
C949 C948 1.392 . S
C949 H961 0.929 . S
C950 C946 1.533 1_545 S
C950 H962 0.960 . S
C950 H963 0.962 . S
C950 H964 0.960 . S
C951 C948 1.511 . S
C951 H965 0.961 . S
C951 H966 0.961 . S
C951 H967 0.961 . S
C952 C953 1.370 . S
C952 C954 1.363 1_545 S
C952 H968 0.931 . S
C953 C952 1.370 . S
C953 C957 1.408 . S
C954 C952 1.363 1_565 S
C954 C955 1.370 1_565 S
C954 C958 1.524 . S
C955 C947 1.503 1_545 S
C955 C954 1.370 1_545 S
C955 C956 1.403 . S
C956 C955 1.403 . S
C956 C957 1.404 . S
C956 C959 1.539 . S
C957 C953 1.408 . S
C957 C956 1.404 . S
C957 H969 0.930 . S
C958 C954 1.524 . S
C958 H970 0.956 . S
C958 H971 0.961 . S
C958 H972 0.961 . S
C959 C956 1.539 . S
C959 H973 0.958 . S
C959 H974 0.961 . S
C959 H975 0.960 . S
H960 C944 0.931 . S
H961 C949 0.929 . S
H962 C950 0.960 . S
H963 C950 0.962 . S
H964 C950 0.960 . S
H965 C951 0.961 . S
H966 C951 0.961 . S
H967 C951 0.961 . S
H968 C952 0.931 . S
H969 C957 0.930 . S
H970 C958 0.956 . S
H971 C958 0.961 . S
H972 C958 0.961 . S
H973 C959 0.958 . S
H974 C959 0.961 . S
H975 C959 0.960 . S
C976 C977 1.391 . S
C976 C978 1.394 . S
C976 H992 0.931 . S
C977 C976 1.391 . S
C977 C981 1.376 . S
C978 C976 1.394 . S
C978 C979 1.369 . S
C978 C982 1.531 . S
C979 C978 1.369 . S
C979 C980 1.410 . S
C979 C987 1.503 . S
C980 C979 1.410 . S
C980 C981 1.392 . S
C980 C983 1.511 . S
C981 C977 1.376 . S
C981 C980 1.392 . S
C981 H993 0.929 . S
C982 C978 1.531 . S
C982 H994 0.960 . S
C982 H995 0.962 . S
C982 H996 0.960 . S
C983 C980 1.511 . S
C983 H997 0.961 . S
C983 H998 0.961 . S
C983 H999 0.961 . S
C984 C985 1.370 . S
C984 C986 1.363 . S
C984 H1000 0.931 . S
C985 C984 1.370 . S
C985 C989 1.408 . S
C986 C984 1.363 . S
C986 C987 1.370 . S
C986 C990 1.524 . S
C987 C979 1.503 . S
C987 C986 1.370 . S
C987 C988 1.403 . S
C988 C987 1.403 . S
C988 C989 1.404 . S
C988 C991 1.539 . S
C989 C985 1.408 . S
C989 C988 1.404 . S
C989 H1001 0.930 . S
C990 C986 1.524 . S
C990 H1002 0.956 . S
C990 H1003 0.961 . S
C990 H1004 0.961 . S
C991 C988 1.539 . S
C991 H1005 0.958 . S
C991 H1006 0.961 . S
C991 H1007 0.960 . S
H992 C976 0.931 . S
H993 C981 0.929 . S
H994 C982 0.960 . S
H995 C982 0.962 . S
H996 C982 0.960 . S
H997 C983 0.961 . S
H998 C983 0.961 . S
H999 C983 0.961 . S
H1000 C984 0.931 . S
H1001 C989 0.930 . S
H1002 C990 0.956 . S
H1003 C990 0.961 . S
H1004 C990 0.961 . S
H1005 C991 0.958 . S
H1006 C991 0.961 . S
H1007 C991 0.960 . S
C1008 C1009 1.391 . S
C1008 C1010 1.394 . S
C1008 H1024 0.931 . S
C1009 C1008 1.391 . S
C1009 C1013 1.376 . S
C1010 C1008 1.394 . S
C1010 C1011 1.369 . S
C1010 C1014 1.531 . S
C1011 C1010 1.369 . S
C1011 C1012 1.410 . S
C1011 C1019 1.503 . S
C1012 C1011 1.410 . S
C1012 C1013 1.392 . S
C1012 C1015 1.511 . S
C1013 C1009 1.376 . S
C1013 C1012 1.392 . S
C1013 H1025 0.929 . S
C1014 C1010 1.531 . S
C1014 H1026 0.960 . S
C1014 H1027 0.962 . S
C1014 H1028 0.960 . S
C1015 C1012 1.511 . S
C1015 H1029 0.961 . S
C1015 H1030 0.961 . S
C1015 H1031 0.961 . S
C1016 C1017 1.370 . S
C1016 C1018 1.363 . S
C1016 H1032 0.931 . S
C1017 C1016 1.370 . S
C1017 C1021 1.408 . S
C1018 C1016 1.363 . S
C1018 C1019 1.370 . S
C1018 C1022 1.524 . S
C1019 C1011 1.503 . S
C1019 C1018 1.370 . S
C1019 C1020 1.403 . S
C1020 C1019 1.403 . S
C1020 C1021 1.404 . S
C1020 C1023 1.539 . S
C1021 C1017 1.408 . S
C1021 C1020 1.404 . S
C1021 H1033 0.930 . S
C1022 C1018 1.524 . S
C1022 H1034 0.956 . S
C1022 H1035 0.961 . S
C1022 H1036 0.961 . S
C1023 C1020 1.539 . S
C1023 H1037 0.958 . S
C1023 H1038 0.961 . S
C1023 H1039 0.960 . S
H1024 C1008 0.931 . S
H1025 C1013 0.929 . S
H1026 C1014 0.960 . S
H1027 C1014 0.962 . S
H1028 C1014 0.960 . S
H1029 C1015 0.961 . S
H1030 C1015 0.961 . S
H1031 C1015 0.961 . S
H1032 C1016 0.931 . S
H1033 C1021 0.930 . S
H1034 C1022 0.956 . S
H1035 C1022 0.961 . S
H1036 C1022 0.961 . S
H1037 C1023 0.958 . S
H1038 C1023 0.961 . S
H1039 C1023 0.960 . S
C1040 C1041 1.391 . S
C1040 C1042 1.394 . S
C1040 H1056 0.931 . S
C1041 C1040 1.391 . S
C1041 C1045 1.376 . S
C1042 C1040 1.394 . S
C1042 C1043 1.369 . S
C1042 C1046 1.531 . S
C1043 C1042 1.369 . S
C1043 C1044 1.410 . S
C1043 C1051 1.503 . S
C1044 C1043 1.410 . S
C1044 C1045 1.392 . S
C1044 C1047 1.511 . S
C1045 C1041 1.376 . S
C1045 C1044 1.392 . S
C1045 H1057 0.929 . S
C1046 C1042 1.531 . S
C1046 H1058 0.960 . S
C1046 H1059 0.962 . S
C1046 H1060 0.960 . S
C1047 C1044 1.511 . S
C1047 H1061 0.961 . S
C1047 H1062 0.961 . S
C1047 H1063 0.961 . S
C1048 C1049 1.370 . S
C1048 C1050 1.363 . S
C1048 H1064 0.931 . S
C1049 C1048 1.370 . S
C1049 C1053 1.408 . S
C1050 C1048 1.363 . S
C1050 C1051 1.370 . S
C1050 C1054 1.524 . S
C1051 C1043 1.503 . S
C1051 C1050 1.370 . S
C1051 C1052 1.403 . S
C1052 C1051 1.403 . S
C1052 C1053 1.404 . S
C1052 C1055 1.539 . S
C1053 C1049 1.408 . S
C1053 C1052 1.404 . S
C1053 H1065 0.930 . S
C1054 C1050 1.524 . S
C1054 H1066 0.956 . S
C1054 H1067 0.961 . S
C1054 H1068 0.961 . S
C1055 C1052 1.539 . S
C1055 H1069 0.958 . S
C1055 H1070 0.961 . S
C1055 H1071 0.960 . S
H1056 C1040 0.931 . S
H1057 C1045 0.929 . S
H1058 C1046 0.960 . S
H1059 C1046 0.962 . S
H1060 C1046 0.960 . S
H1061 C1047 0.961 . S
H1062 C1047 0.961 . S
H1063 C1047 0.961 . S
H1064 C1048 0.931 . S
H1065 C1053 0.930 . S
H1066 C1054 0.956 . S
H1067 C1054 0.961 . S
H1068 C1054 0.961 . S
H1069 C1055 0.958 . S
H1070 C1055 0.961 . S
H1071 C1055 0.960 . S
C1072 C1073 1.391 . S
C1072 C1074 1.394 . S
C1072 H1088 0.931 . S
C1073 C1072 1.391 . S
C1073 C1077 1.376 . S
C1074 C1072 1.394 . S
C1074 C1075 1.369 . S
C1074 C1078 1.531 . S
C1075 C1074 1.369 . S
C1075 C1076 1.410 . S
C1075 C1083 1.503 . S
C1076 C1075 1.410 . S
C1076 C1077 1.392 . S
C1076 C1079 1.511 . S
C1077 C1073 1.376 . S
C1077 C1076 1.392 . S
C1077 H1089 0.929 . S
C1078 C1074 1.531 . S
C1078 H1090 0.960 . S
C1078 H1091 0.962 . S
C1078 H1092 0.960 . S
C1079 C1076 1.511 . S
C1079 H1093 0.961 . S
C1079 H1094 0.961 . S
C1079 H1095 0.961 . S
C1080 C1081 1.370 . S
C1080 C1082 1.363 . S
C1080 H1096 0.931 . S
C1081 C1080 1.370 . S
C1081 C1085 1.408 . S
C1082 C1080 1.363 . S
C1082 C1083 1.370 . S
C1082 C1086 1.524 . S
C1083 C1075 1.503 . S
C1083 C1082 1.370 . S
C1083 C1084 1.403 . S
C1084 C1083 1.403 . S
C1084 C1085 1.404 . S
C1084 C1087 1.539 . S
C1085 C1081 1.408 . S
C1085 C1084 1.404 . S
C1085 H1097 0.930 . S
C1086 C1082 1.524 . S
C1086 H1098 0.956 . S
C1086 H1099 0.961 . S
C1086 H1100 0.961 . S
C1087 C1084 1.539 . S
C1087 H1101 0.958 . S
C1087 H1102 0.961 . S
C1087 H1103 0.960 . S
H1088 C1072 0.931 . S
H1089 C1077 0.929 . S
H1090 C1078 0.960 . S
H1091 C1078 0.962 . S
H1092 C1078 0.960 . S
H1093 C1079 0.961 . S
H1094 C1079 0.961 . S
H1095 C1079 0.961 . S
H1096 C1080 0.931 . S
H1097 C1085 0.930 . S
H1098 C1086 0.956 . S
H1099 C1086 0.961 . S
H1100 C1086 0.961 . S
H1101 C1087 0.958 . S
H1102 C1087 0.961 . S
H1103 C1087 0.960 . S
C1104 C1105 1.391 . S
C1104 C1106 1.394 . S
C1104 H1120 0.931 . S
C1105 C1104 1.391 . S
C1105 C1109 1.376 . S
C1106 C1104 1.394 . S
C1106 C1107 1.369 . S
C1106 C1110 1.531 . S
C1107 C1106 1.369 . S
C1107 C1108 1.410 . S
C1107 C1115 1.503 . S
C1108 C1107 1.410 . S
C1108 C1109 1.392 . S
C1108 C1111 1.511 . S
C1109 C1105 1.376 . S
C1109 C1108 1.392 . S
C1109 H1121 0.929 . S
C1110 C1106 1.531 . S
C1110 H1122 0.960 . S
C1110 H1123 0.962 . S
C1110 H1124 0.960 . S
C1111 C1108 1.511 . S
C1111 H1125 0.961 . S
C1111 H1126 0.961 . S
C1111 H1127 0.961 . S
C1112 C1113 1.370 . S
C1112 C1114 1.363 . S
C1112 H1128 0.931 . S
C1113 C1112 1.370 . S
C1113 C1117 1.408 . S
C1114 C1112 1.363 . S
C1114 C1115 1.370 . S
C1114 C1118 1.524 . S
C1115 C1107 1.503 . S
C1115 C1114 1.370 . S
C1115 C1116 1.403 . S
C1116 C1115 1.403 . S
C1116 C1117 1.404 . S
C1116 C1119 1.539 . S
C1117 C1113 1.408 . S
C1117 C1116 1.404 . S
C1117 H1129 0.930 . S
C1118 C1114 1.524 . S
C1118 H1130 0.956 . S
C1118 H1131 0.961 . S
C1118 H1132 0.961 . S
C1119 C1116 1.539 . S
C1119 H1133 0.958 . S
C1119 H1134 0.961 . S
C1119 H1135 0.960 . S
H1120 C1104 0.931 . S
H1121 C1109 0.929 . S
H1122 C1110 0.960 . S
H1123 C1110 0.962 . S
H1124 C1110 0.960 . S
H1125 C1111 0.961 . S
H1126 C1111 0.961 . S
H1127 C1111 0.961 . S
H1128 C1112 0.931 . S
H1129 C1117 0.930 . S
H1130 C1118 0.956 . S
H1131 C1118 0.961 . S
H1132 C1118 0.961 . S
H1133 C1119 0.958 . S
H1134 C1119 0.961 . S
H1135 C1119 0.960 . S
C1136 C1137 1.391 . S
C1136 C1138 1.394 . S
C1136 H1152 0.931 . S
C1137 C1136 1.391 . S
C1137 C1141 1.376 . S
C1138 C1136 1.394 . S
C1138 C1139 1.369 . S
C1138 C1142 1.531 . S
C1139 C1138 1.369 . S
C1139 C1140 1.410 . S
C1139 C1147 1.503 . S
C1140 C1139 1.410 . S
C1140 C1141 1.392 . S
C1140 C1143 1.511 . S
C1141 C1137 1.376 . S
C1141 C1140 1.392 . S
C1141 H1153 0.929 . S
C1142 C1138 1.531 . S
C1142 H1154 0.960 . S
C1142 H1155 0.962 . S
C1142 H1156 0.960 . S
C1143 C1140 1.511 . S
C1143 H1157 0.961 . S
C1143 H1158 0.961 . S
C1143 H1159 0.961 . S
C1144 C1145 1.370 . S
C1144 C1146 1.363 . S
C1144 H1160 0.931 . S
C1145 C1144 1.370 . S
C1145 C1149 1.408 . S
C1146 C1144 1.363 . S
C1146 C1147 1.370 . S
C1146 C1150 1.524 . S
C1147 C1139 1.503 . S
C1147 C1146 1.370 . S
C1147 C1148 1.403 . S
C1148 C1147 1.403 . S
C1148 C1149 1.404 . S
C1148 C1151 1.539 . S
C1149 C1145 1.408 . S
C1149 C1148 1.404 . S
C1149 H1161 0.930 . S
C1150 C1146 1.524 . S
C1150 H1162 0.956 . S
C1150 H1163 0.961 . S
C1150 H1164 0.961 . S
C1151 C1148 1.539 . S
C1151 H1165 0.958 . S
C1151 H1166 0.961 . S
C1151 H1167 0.960 . S
H1152 C1136 0.931 . S
H1153 C1141 0.929 . S
H1154 C1142 0.960 . S
H1155 C1142 0.962 . S
H1156 C1142 0.960 . S
H1157 C1143 0.961 . S
H1158 C1143 0.961 . S
H1159 C1143 0.961 . S
H1160 C1144 0.931 . S
H1161 C1149 0.930 . S
H1162 C1150 0.956 . S
H1163 C1150 0.961 . S
H1164 C1150 0.961 . S
H1165 C1151 0.958 . S
H1166 C1151 0.961 . S
H1167 C1151 0.960 . S
C1168 C1169 1.391 . S
C1168 C1170 1.394 . S
C1168 H1184 0.931 . S
C1169 C1168 1.391 . S
C1169 C1173 1.376 . S
C1170 C1168 1.394 . S
C1170 C1171 1.369 . S
C1170 C1174 1.531 . S
C1171 C1170 1.369 . S
C1171 C1172 1.410 . S
C1171 C1179 1.503 . S
C1172 C1171 1.410 . S
C1172 C1173 1.392 . S
C1172 C1175 1.511 . S
C1173 C1169 1.376 . S
C1173 C1172 1.392 . S
C1173 H1185 0.929 . S
C1174 C1170 1.531 . S
C1174 H1186 0.960 . S
C1174 H1187 0.962 . S
C1174 H1188 0.960 . S
C1175 C1172 1.511 . S
C1175 H1189 0.961 . S
C1175 H1190 0.961 . S
C1175 H1191 0.961 . S
C1176 C1177 1.370 . S
C1176 C1178 1.363 . S
C1176 H1192 0.931 . S
C1177 C1176 1.370 . S
C1177 C1181 1.408 . S
C1178 C1176 1.363 . S
C1178 C1179 1.370 . S
C1178 C1182 1.524 . S
C1179 C1171 1.503 . S
C1179 C1178 1.370 . S
C1179 C1180 1.403 . S
C1180 C1179 1.403 . S
C1180 C1181 1.404 . S
C1180 C1183 1.539 . S
C1181 C1177 1.408 . S
C1181 C1180 1.404 . S
C1181 H1193 0.930 . S
C1182 C1178 1.524 . S
C1182 H1194 0.956 . S
C1182 H1195 0.961 . S
C1182 H1196 0.961 . S
C1183 C1180 1.539 . S
C1183 H1197 0.958 . S
C1183 H1198 0.961 . S
C1183 H1199 0.960 . S
H1184 C1168 0.931 . S
H1185 C1173 0.929 . S
H1186 C1174 0.960 . S
H1187 C1174 0.962 . S
H1188 C1174 0.960 . S
H1189 C1175 0.961 . S
H1190 C1175 0.961 . S
H1191 C1175 0.961 . S
H1192 C1176 0.931 . S
H1193 C1181 0.930 . S
H1194 C1182 0.956 . S
H1195 C1182 0.961 . S
H1196 C1182 0.961 . S
H1197 C1183 0.958 . S
H1198 C1183 0.961 . S
H1199 C1183 0.960 . S
C1200 C1201 1.391 . S
C1200 C1202 1.394 . S
C1200 H1216 0.931 . S
C1201 C1200 1.391 . S
C1201 C1205 1.376 . S
C1202 C1200 1.394 . S
C1202 C1203 1.369 . S
C1202 C1206 1.531 . S
C1203 C1202 1.369 . S
C1203 C1204 1.410 . S
C1203 C1211 1.503 . S
C1204 C1203 1.410 . S
C1204 C1205 1.392 . S
C1204 C1207 1.511 . S
C1205 C1201 1.376 . S
C1205 C1204 1.392 . S
C1205 H1217 0.929 . S
C1206 C1202 1.531 . S
C1206 H1218 0.960 . S
C1206 H1219 0.962 . S
C1206 H1220 0.960 . S
C1207 C1204 1.511 . S
C1207 H1221 0.961 . S
C1207 H1222 0.961 . S
C1207 H1223 0.961 . S
C1208 C1209 1.370 . S
C1208 C1210 1.363 . S
C1208 H1224 0.931 . S
C1209 C1208 1.370 . S
C1209 C1213 1.408 . S
C1210 C1208 1.363 . S
C1210 C1211 1.370 . S
C1210 C1214 1.524 . S
C1211 C1203 1.503 . S
C1211 C1210 1.370 . S
C1211 C1212 1.403 . S
C1212 C1211 1.403 . S
C1212 C1213 1.404 . S
C1212 C1215 1.539 . S
C1213 C1209 1.408 . S
C1213 C1212 1.404 . S
C1213 H1225 0.930 . S
C1214 C1210 1.524 . S
C1214 H1226 0.956 . S
C1214 H1227 0.961 . S
C1214 H1228 0.961 . S
C1215 C1212 1.539 . S
C1215 H1229 0.958 . S
C1215 H1230 0.961 . S
C1215 H1231 0.960 . S
H1216 C1200 0.931 . S
H1217 C1205 0.929 . S
H1218 C1206 0.960 . S
H1219 C1206 0.962 . S
H1220 C1206 0.960 . S
H1221 C1207 0.961 . S
H1222 C1207 0.961 . S
H1223 C1207 0.961 . S
H1224 C1208 0.931 . S
H1225 C1213 0.930 . S
H1226 C1214 0.956 . S
H1227 C1214 0.961 . S
H1228 C1214 0.961 . S
H1229 C1215 0.958 . S
H1230 C1215 0.961 . S
H1231 C1215 0.960 . S
C1232 C1233 1.391 . S
C1232 C1234 1.394 . S
C1232 H1248 0.931 . S
C1233 C1232 1.391 . S
C1233 C1237 1.376 . S
C1234 C1232 1.394 . S
C1234 C1235 1.369 . S
C1234 C1238 1.531 . S
C1235 C1234 1.369 . S
C1235 C1236 1.410 . S
C1235 C1243 1.503 . S
C1236 C1235 1.410 . S
C1236 C1237 1.392 . S
C1236 C1239 1.511 . S
C1237 C1233 1.376 . S
C1237 C1236 1.392 . S
C1237 H1249 0.929 . S
C1238 C1234 1.531 . S
C1238 H1250 0.960 . S
C1238 H1251 0.962 . S
C1238 H1252 0.960 . S
C1239 C1236 1.511 . S
C1239 H1253 0.961 . S
C1239 H1254 0.961 . S
C1239 H1255 0.961 . S
C1240 C1241 1.370 . S
C1240 C1242 1.363 . S
C1240 H1256 0.931 . S
C1241 C1240 1.370 . S
C1241 C1245 1.408 . S
C1242 C1240 1.363 . S
C1242 C1243 1.370 . S
C1242 C1246 1.524 . S
C1243 C1235 1.503 . S
C1243 C1242 1.370 . S
C1243 C1244 1.403 . S
C1244 C1243 1.403 . S
C1244 C1245 1.404 . S
C1244 C1247 1.539 . S
C1245 C1241 1.408 . S
C1245 C1244 1.404 . S
C1245 H1257 0.930 . S
C1246 C1242 1.524 . S
C1246 H1258 0.956 . S
C1246 H1259 0.961 . S
C1246 H1260 0.961 . S
C1247 C1244 1.539 . S
C1247 H1261 0.958 . S
C1247 H1262 0.961 . S
C1247 H1263 0.960 . S
H1248 C1232 0.931 . S
H1249 C1237 0.929 . S
H1250 C1238 0.960 . S
H1251 C1238 0.962 . S
H1252 C1238 0.960 . S
H1253 C1239 0.961 . S
H1254 C1239 0.961 . S
H1255 C1239 0.961 . S
H1256 C1240 0.931 . S
H1257 C1245 0.930 . S
H1258 C1246 0.956 . S
H1259 C1246 0.961 . S
H1260 C1246 0.961 . S
H1261 C1247 0.958 . S
H1262 C1247 0.961 . S
H1263 C1247 0.960 . S
C1264 C1265 1.391 1_565 S
C1264 C1266 1.394 . S
C1264 H1280 0.931 . S
C1265 C1264 1.391 1_545 S
C1265 C1269 1.376 . S
C1266 C1264 1.394 . S
C1266 C1267 1.369 . S
C1266 C1270 1.531 . S
C1267 C1266 1.369 . S
C1267 C1268 1.410 1_565 S
C1267 C1275 1.503 . S
C1268 C1267 1.410 1_545 S
C1268 C1269 1.392 . S
C1268 C1271 1.511 . S
C1269 C1265 1.376 . S
C1269 C1268 1.392 . S
C1269 H1281 0.929 . S
C1270 C1266 1.531 . S
C1270 H1282 0.960 . S
C1270 H1283 0.962 . S
C1270 H1284 0.960 . S
C1271 C1268 1.511 . S
C1271 H1285 0.961 . S
C1271 H1286 0.961 . S
C1271 H1287 0.961 . S
C1272 C1273 1.370 . S
C1272 C1274 1.363 . S
C1272 H1288 0.931 . S
C1273 C1272 1.370 . S
C1273 C1277 1.408 . S
C1274 C1272 1.363 . S
C1274 C1275 1.370 . S
C1274 C1278 1.524 . S
C1275 C1267 1.503 . S
C1275 C1274 1.370 . S
C1275 C1276 1.403 . S
C1276 C1275 1.403 . S
C1276 C1277 1.404 . S
C1276 C1279 1.539 . S
C1277 C1273 1.408 . S
C1277 C1276 1.404 . S
C1277 H1289 0.930 . S
C1278 C1274 1.524 . S
C1278 H1290 0.956 . S
C1278 H1291 0.961 1_565 S
C1278 H1292 0.961 . S
C1279 C1276 1.539 . S
C1279 H1293 0.958 . S
C1279 H1294 0.961 . S
C1279 H1295 0.960 . S
H1280 C1264 0.931 . S
H1281 C1269 0.929 . S
H1282 C1270 0.960 . S
H1283 C1270 0.962 . S
H1284 C1270 0.960 . S
H1285 C1271 0.961 . S
H1286 C1271 0.961 . S
H1287 C1271 0.961 . S
H1288 C1272 0.931 . S
H1289 C1277 0.930 . S
H1290 C1278 0.956 . S
H1291 C1278 0.961 1_545 S
H1292 C1278 0.961 . S
H1293 C1279 0.958 . S
H1294 C1279 0.961 . S
H1295 C1279 0.960 . S
C1296 C1297 1.391 . S
C1296 C1298 1.394 . S
C1296 H1312 0.931 . S
C1297 C1296 1.391 . S
C1297 C1301 1.376 . S
C1298 C1296 1.394 . S
C1298 C1299 1.369 . S
C1298 C1302 1.531 . S
C1299 C1298 1.369 . S
C1299 C1300 1.410 . S
C1299 C1307 1.503 . S
C1300 C1299 1.410 . S
C1300 C1301 1.392 . S
C1300 C1303 1.511 . S
C1301 C1297 1.376 . S
C1301 C1300 1.392 . S
C1301 H1313 0.929 . S
C1302 C1298 1.531 . S
C1302 H1314 0.960 . S
C1302 H1315 0.962 . S
C1302 H1316 0.960 . S
C1303 C1300 1.511 . S
C1303 H1317 0.961 . S
C1303 H1318 0.961 . S
C1303 H1319 0.961 . S
C1304 C1305 1.370 . S
C1304 C1306 1.363 . S
C1304 H1320 0.931 . S
C1305 C1304 1.370 . S
C1305 C1309 1.408 . S
C1306 C1304 1.363 . S
C1306 C1307 1.370 . S
C1306 C1310 1.524 . S
C1307 C1299 1.503 . S
C1307 C1306 1.370 . S
C1307 C1308 1.403 . S
C1308 C1307 1.403 . S
C1308 C1309 1.404 . S
C1308 C1311 1.539 . S
C1309 C1305 1.408 . S
C1309 C1308 1.404 . S
C1309 H1321 0.930 . S
C1310 C1306 1.524 . S
C1310 H1322 0.956 . S
C1310 H1323 0.961 . S
C1310 H1324 0.961 . S
C1311 C1308 1.539 . S
C1311 H1325 0.958 . S
C1311 H1326 0.961 . S
C1311 H1327 0.960 . S
H1312 C1296 0.931 . S
H1313 C1301 0.929 . S
H1314 C1302 0.960 . S
H1315 C1302 0.962 . S
H1316 C1302 0.960 . S
H1317 C1303 0.961 . S
H1318 C1303 0.961 . S
H1319 C1303 0.961 . S
H1320 C1304 0.931 . S
H1321 C1309 0.930 . S
H1322 C1310 0.956 . S
H1323 C1310 0.961 . S
H1324 C1310 0.961 . S
H1325 C1311 0.958 . S
H1326 C1311 0.961 . S
H1327 C1311 0.960 . S
C1328 C1329 1.391 . S
C1328 C1330 1.394 . S
C1328 H1344 0.931 . S
C1329 C1328 1.391 . S
C1329 C1333 1.376 . S
C1330 C1328 1.394 . S
C1330 C1331 1.369 . S
C1330 C1334 1.531 1_545 S
C1331 C1330 1.369 . S
C1331 C1332 1.410 . S
C1331 C1339 1.503 . S
C1332 C1331 1.410 . S
C1332 C1333 1.392 . S
C1332 C1335 1.511 . S
C1333 C1329 1.376 . S
C1333 C1332 1.392 . S
C1333 H1345 0.929 . S
C1334 C1330 1.531 1_565 S
C1334 H1346 0.960 . S
C1334 H1347 0.962 . S
C1334 H1348 0.960 . S
C1335 C1332 1.511 . S
C1335 H1349 0.961 . S
C1335 H1350 0.961 . S
C1335 H1351 0.961 . S
C1336 C1337 1.370 1_545 S
C1336 C1338 1.363 . S
C1336 H1352 0.931 . S
C1337 C1336 1.370 1_565 S
C1337 C1341 1.408 . S
C1338 C1336 1.363 . S
C1338 C1339 1.370 . S
C1338 C1342 1.524 . S
C1339 C1331 1.503 . S
C1339 C1338 1.370 . S
C1339 C1340 1.403 . S
C1340 C1339 1.403 . S
C1340 C1341 1.404 1_545 S
C1340 C1343 1.539 . S
C1341 C1337 1.408 . S
C1341 C1340 1.404 1_565 S
C1341 H1353 0.930 . S
C1342 C1338 1.524 . S
C1342 H1354 0.956 . S
C1342 H1355 0.961 . S
C1342 H1356 0.961 . S
C1343 C1340 1.539 . S
C1343 H1357 0.958 1_545 S
C1343 H1358 0.961 . S
C1343 H1359 0.960 . S
H1344 C1328 0.931 . S
H1345 C1333 0.929 . S
H1346 C1334 0.960 . S
H1347 C1334 0.962 . S
H1348 C1334 0.960 . S
H1349 C1335 0.961 . S
H1350 C1335 0.961 . S
H1351 C1335 0.961 . S
H1352 C1336 0.931 . S
H1353 C1341 0.930 . S
H1354 C1342 0.956 . S
H1355 C1342 0.961 . S
H1356 C1342 0.961 . S
H1357 C1343 0.958 1_565 S
H1358 C1343 0.961 . S
H1359 C1343 0.960 . S
C1360 C1361 1.391 . S
C1360 C1362 1.394 . S
C1360 H1376 0.931 . S
C1361 C1360 1.391 . S
C1361 C1365 1.376 . S
C1362 C1360 1.394 . S
C1362 C1363 1.369 . S
C1362 C1366 1.531 . S
C1363 C1362 1.369 . S
C1363 C1364 1.410 . S
C1363 C1371 1.503 . S
C1364 C1363 1.410 . S
C1364 C1365 1.392 . S
C1364 C1367 1.511 . S
C1365 C1361 1.376 . S
C1365 C1364 1.392 . S
C1365 H1377 0.929 . S
C1366 C1362 1.531 . S
C1366 H1378 0.960 . S
C1366 H1379 0.962 . S
C1366 H1380 0.960 . S
C1367 C1364 1.511 . S
C1367 H1381 0.961 . S
C1367 H1382 0.961 . S
C1367 H1383 0.961 . S
C1368 C1369 1.370 . S
C1368 C1370 1.363 . S
C1368 H1384 0.931 . S
C1369 C1368 1.370 . S
C1369 C1373 1.408 . S
C1370 C1368 1.363 . S
C1370 C1371 1.370 . S
C1370 C1374 1.524 . S
C1371 C1363 1.503 . S
C1371 C1370 1.370 . S
C1371 C1372 1.403 . S
C1372 C1371 1.403 . S
C1372 C1373 1.404 . S
C1372 C1375 1.539 . S
C1373 C1369 1.408 . S
C1373 C1372 1.404 . S
C1373 H1385 0.930 . S
C1374 C1370 1.524 . S
C1374 H1386 0.956 . S
C1374 H1387 0.961 . S
C1374 H1388 0.961 . S
C1375 C1372 1.539 . S
C1375 H1389 0.958 . S
C1375 H1390 0.961 . S
C1375 H1391 0.960 . S
H1376 C1360 0.931 . S
H1377 C1365 0.929 . S
H1378 C1366 0.960 . S
H1379 C1366 0.962 . S
H1380 C1366 0.960 . S
H1381 C1367 0.961 . S
H1382 C1367 0.961 . S
H1383 C1367 0.961 . S
H1384 C1368 0.931 . S
H1385 C1373 0.930 . S
H1386 C1374 0.956 . S
H1387 C1374 0.961 . S
H1388 C1374 0.961 . S
H1389 C1375 0.958 . S
H1390 C1375 0.961 . S
H1391 C1375 0.960 . S
C1392 C1393 1.400 . S
C1392 C1394 1.394 1_565 S
C1392 H1408 0.931 . S
C1393 C1392 1.400 . S
C1393 C1397 1.355 1_565 S
C1394 C1392 1.394 1_545 S
C1394 C1395 1.369 . S
C1394 C1398 1.531 1_545 S
C1395 C1394 1.369 . S
C1395 C1396 1.410 . S
C1395 C1403 1.503 . S
C1396 C1395 1.410 . S
C1396 C1397 1.392 . S
C1396 C1399 1.511 . S
C1397 C1393 1.355 1_545 S
C1397 C1396 1.392 . S
C1397 H1409 0.929 . S
C1398 C1394 1.531 1_565 S
C1398 H1410 0.960 1_565 S
C1398 H1411 0.962 . S
C1398 H1412 0.960 . S
C1399 C1396 1.511 . S
C1399 H1413 0.961 . S
C1399 H1414 0.961 . S
C1399 H1415 0.961 . S
C1400 C1401 1.370 . S
C1400 C1402 1.363 . S
C1400 H1416 0.931 . S
C1401 C1400 1.370 . S
C1401 C1405 1.408 . S
C1402 C1400 1.363 . S
C1402 C1403 1.370 . S
C1402 C1406 1.524 1_545 S
C1403 C1395 1.503 . S
C1403 C1402 1.370 . S
C1403 C1404 1.403 . S
C1404 C1403 1.403 . S
C1404 C1405 1.404 . S
C1404 C1407 1.539 . S
C1405 C1401 1.408 . S
C1405 C1404 1.404 . S
C1405 H1417 0.930 . S
C1406 C1402 1.524 1_565 S
C1406 H1418 0.956 . S
C1406 H1419 0.960 . S
C1406 H1420 0.961 . S
C1407 C1404 1.539 . S
C1407 H1421 0.958 . S
C1407 H1422 0.961 . S
C1407 H1423 0.960 . S
H1408 C1392 0.931 . S
H1409 C1397 0.929 . S
H1410 C1398 0.960 1_545 S
H1411 C1398 0.962 . S
H1412 C1398 0.960 . S
H1413 C1399 0.961 . S
H1414 C1399 0.961 . S
H1415 C1399 0.961 . S
H1416 C1400 0.931 . S
H1417 C1405 0.930 . S
H1418 C1406 0.956 . S
H1419 C1406 0.960 . S
H1420 C1406 0.961 . S
H1421 C1407 0.958 . S
H1422 C1407 0.961 . S
H1423 C1407 0.960 . S
C1424 C1425 1.391 . S
C1424 C1426 1.394 . S
C1424 H1440 0.931 . S
C1425 C1424 1.391 . S
C1425 C1429 1.376 . S
C1426 C1424 1.394 . S
C1426 C1427 1.369 . S
C1426 C1430 1.531 . S
C1427 C1426 1.369 . S
C1427 C1428 1.410 . S
C1427 C1435 1.503 . S
C1428 C1427 1.410 . S
C1428 C1429 1.392 . S
C1428 C1431 1.511 . S
C1429 C1425 1.376 . S
C1429 C1428 1.392 . S
C1429 H1441 0.929 . S
C1430 C1426 1.531 . S
C1430 H1442 0.960 . S
C1430 H1443 0.962 . S
C1430 H1444 0.960 . S
C1431 C1428 1.511 . S
C1431 H1445 0.961 . S
C1431 H1446 0.961 . S
C1431 H1447 0.961 . S
C1432 C1433 1.370 . S
C1432 C1434 1.363 . S
C1432 H1448 0.931 . S
C1433 C1432 1.370 . S
C1433 C1437 1.408 . S
C1434 C1432 1.363 . S
C1434 C1435 1.370 . S
C1434 C1438 1.524 . S
C1435 C1427 1.503 . S
C1435 C1434 1.370 . S
C1435 C1436 1.403 . S
C1436 C1435 1.403 . S
C1436 C1437 1.404 . S
C1436 C1439 1.539 . S
C1437 C1433 1.408 . S
C1437 C1436 1.404 . S
C1437 H1449 0.930 . S
C1438 C1434 1.524 . S
C1438 H1450 0.956 . S
C1438 H1451 0.961 . S
C1438 H1452 0.961 . S
C1439 C1436 1.539 . S
C1439 H1453 0.958 . S
C1439 H1454 0.961 . S
C1439 H1455 0.960 . S
H1440 C1424 0.931 . S
H1441 C1429 0.929 . S
H1442 C1430 0.960 . S
H1443 C1430 0.962 . S
H1444 C1430 0.960 . S
H1445 C1431 0.961 . S
H1446 C1431 0.961 . S
H1447 C1431 0.961 . S
H1448 C1432 0.931 . S
H1449 C1437 0.930 . S
H1450 C1438 0.956 . S
H1451 C1438 0.961 . S
H1452 C1438 0.961 . S
H1453 C1439 0.958 . S
H1454 C1439 0.961 . S
H1455 C1439 0.960 . S
C1456 C1457 1.391 . S
C1456 C1458 1.394 . S
C1456 H1472 0.931 . S
C1457 C1456 1.391 . S
C1457 C1461 1.376 1_545 S
C1458 C1456 1.394 . S
C1458 C1459 1.369 1_545 S
C1458 C1462 1.531 . S
C1459 C1458 1.369 1_565 S
C1459 C1460 1.410 . S
C1459 C1467 1.503 . S
C1460 C1459 1.410 . S
C1460 C1461 1.392 . S
C1460 C1463 1.511 . S
C1461 C1457 1.376 1_565 S
C1461 C1460 1.392 . S
C1461 H1473 0.929 . S
C1462 C1458 1.531 . S
C1462 H1474 0.960 . S
C1462 H1475 0.962 . S
C1462 H1476 0.960 . S
C1463 C1460 1.511 . S
C1463 H1477 0.961 . S
C1463 H1478 0.961 . S
C1463 H1479 0.961 . S
C1464 C1465 1.370 . S
C1464 C1466 1.363 . S
C1464 H1480 0.931 . S
C1465 C1464 1.370 . S
C1465 C1469 1.408 . S
C1466 C1464 1.363 . S
C1466 C1467 1.370 . S
C1466 C1470 1.524 . S
C1467 C1459 1.503 . S
C1467 C1466 1.370 . S
C1467 C1468 1.403 . S
C1468 C1467 1.403 . S
C1468 C1469 1.404 . S
C1468 C1471 1.539 . S
C1469 C1465 1.408 . S
C1469 C1468 1.404 . S
C1469 H1481 0.930 . S
C1470 C1466 1.524 . S
C1470 H1482 0.956 . S
C1470 H1483 0.961 . S
C1470 H1484 0.961 . S
C1471 C1468 1.539 . S
C1471 H1485 0.958 . S
C1471 H1486 0.961 . S
C1471 H1487 0.960 . S
H1472 C1456 0.931 . S
H1473 C1461 0.929 . S
H1474 C1462 0.960 . S
H1475 C1462 0.962 . S
H1476 C1462 0.960 . S
H1477 C1463 0.961 . S
H1478 C1463 0.961 . S
H1479 C1463 0.961 . S
H1480 C1464 0.931 . S
H1481 C1469 0.930 . S
H1482 C1470 0.956 . S
H1483 C1470 0.961 . S
H1484 C1470 0.961 . S
H1485 C1471 0.958 . S
H1486 C1471 0.961 . S
H1487 C1471 0.960 . S
C1488 C1489 1.391 . S
C1488 C1490 1.394 1_565 S
C1488 H1504 0.931 1_565 S
C1489 C1488 1.391 . S
C1489 C1493 1.376 . S
C1490 C1488 1.394 1_545 S
C1490 C1491 1.369 1_545 S
C1490 C1494 1.531 1_556 S
C1491 C1490 1.369 1_565 S
C1491 C1492 1.410 . S
C1491 C1499 1.499 1_566 S
C1492 C1491 1.410 . S
C1492 C1493 1.392 . S
C1492 C1495 1.511 . S
C1493 C1489 1.376 . S
C1493 C1492 1.392 . S
C1493 H1505 0.929 . S
C1494 C1490 1.531 1_554 S
C1494 H1506 0.960 . S
C1494 H1507 0.962 . S
C1494 H1508 0.960 . S
C1495 C1492 1.511 . S
C1495 H1509 0.961 . S
C1495 H1510 0.961 . S
C1495 H1511 0.961 . S
C1496 C1497 1.370 . S
C1496 C1498 1.363 . S
C1496 H1512 0.931 . S
C1497 C1496 1.370 . S
C1497 C1501 1.408 1_554 S
C1498 C1496 1.363 . S
C1498 C1499 1.382 . S
C1498 C1502 1.524 1_545 S
C1499 C1491 1.499 1_544 S
C1499 C1498 1.382 . S
C1499 C1500 1.396 1_554 S
C1500 C1499 1.396 1_556 S
C1500 C1501 1.404 . S
C1500 C1503 1.539 . S
C1501 C1497 1.408 1_556 S
C1501 C1500 1.404 . S
C1501 H1513 0.930 . S
C1502 C1498 1.524 1_565 S
C1502 H1514 0.956 . S
C1502 H1515 0.961 . S
C1502 H1516 0.961 . S
C1503 C1500 1.539 . S
C1503 H1517 0.958 . S
C1503 H1518 0.961 . S
C1503 H1519 0.960 . S
H1504 C1488 0.931 1_545 S
H1505 C1493 0.929 . S
H1506 C1494 0.960 . S
H1507 C1494 0.962 . S
H1508 C1494 0.960 . S
H1509 C1495 0.961 . S
H1510 C1495 0.961 . S
H1511 C1495 0.961 . S
H1512 C1496 0.931 . S
H1513 C1501 0.930 . S
H1514 C1502 0.956 . S
H1515 C1502 0.961 . S
H1516 C1502 0.961 . S
H1517 C1503 0.958 . S
H1518 C1503 0.961 . S
H1519 C1503 0.960 . S
C1520 C1521 1.391 . S
C1520 C1522 1.394 . S
C1520 H1536 0.931 . S
C1521 C1520 1.391 . S
C1521 C1525 1.376 . S
C1522 C1520 1.394 . S
C1522 C1523 1.369 . S
C1522 C1526 1.531 . S
C1523 C1522 1.369 . S
C1523 C1524 1.410 . S
C1523 C1531 1.503 . S
C1524 C1523 1.410 . S
C1524 C1525 1.392 . S
C1524 C1527 1.511 . S
C1525 C1521 1.376 . S
C1525 C1524 1.392 . S
C1525 H1537 0.929 . S
C1526 C1522 1.531 . S
C1526 H1538 0.960 . S
C1526 H1539 0.962 . S
C1526 H1540 0.960 . S
C1527 C1524 1.511 . S
C1527 H1541 0.961 . S
C1527 H1542 0.961 . S
C1527 H1543 0.961 . S
C1528 C1529 1.370 . S
C1528 C1530 1.363 . S
C1528 H1544 0.931 . S
C1529 C1528 1.370 . S
C1529 C1533 1.408 . S
C1530 C1528 1.363 . S
C1530 C1531 1.370 . S
C1530 C1534 1.524 . S
C1531 C1523 1.503 . S
C1531 C1530 1.370 . S
C1531 C1532 1.403 . S
C1532 C1531 1.403 . S
C1532 C1533 1.404 . S
C1532 C1535 1.539 . S
C1533 C1529 1.408 . S
C1533 C1532 1.404 . S
C1533 H1545 0.930 . S
C1534 C1530 1.524 . S
C1534 H1546 0.956 . S
C1534 H1547 0.961 . S
C1534 H1548 0.961 . S
C1535 C1532 1.539 . S
C1535 H1549 0.958 . S
C1535 H1550 0.961 . S
C1535 H1551 0.960 . S
H1536 C1520 0.931 . S
H1537 C1525 0.929 . S
H1538 C1526 0.960 . S
H1539 C1526 0.962 . S
H1540 C1526 0.960 . S
H1541 C1527 0.961 . S
H1542 C1527 0.961 . S
H1543 C1527 0.961 . S
H1544 C1528 0.931 . S
H1545 C1533 0.930 . S
H1546 C1534 0.956 . S
H1547 C1534 0.961 . S
H1548 C1534 0.961 . S
H1549 C1535 0.958 . S
H1550 C1535 0.961 . S
H1551 C1535 0.960 . S
C1552 C1553 1.391 . S
C1552 C1554 1.394 . S
C1552 H1568 0.931 . S
C1553 C1552 1.391 . S
C1553 C1557 1.376 . S
C1554 C1552 1.394 . S
C1554 C1555 1.369 . S
C1554 C1558 1.531 1_655 S
C1555 C1554 1.369 . S
C1555 C1556 1.410 1_545 S
C1555 C1563 1.503 1_645 S
C1556 C1555 1.410 1_565 S
C1556 C1557 1.392 1_565 S
C1556 C1559 1.511 . S
C1557 C1553 1.376 . S
C1557 C1556 1.392 1_545 S
C1557 H1569 0.929 1_545 S
C1558 C1554 1.531 1_455 S
C1558 H1570 0.960 . S
C1558 H1571 0.962 . S
C1558 H1572 0.960 . S
C1559 C1556 1.511 . S
C1559 H1573 0.961 . S
C1559 H1574 0.961 . S
C1559 H1575 0.961 . S
C1560 C1561 1.370 . S
C1560 C1562 1.363 . S
C1560 H1576 0.931 . S
C1561 C1560 1.370 . S
C1561 C1565 1.408 . S
C1562 C1560 1.363 . S
C1562 C1563 1.370 . S
C1562 C1566 1.524 . S
C1563 C1555 1.503 1_465 S
C1563 C1562 1.370 . S
C1563 C1564 1.403 . S
C1564 C1563 1.403 . S
C1564 C1565 1.404 . S
C1564 C1567 1.539 1_565 S
C1565 C1561 1.408 . S
C1565 C1564 1.404 . S
C1565 H1577 0.930 . S
C1566 C1562 1.524 . S
C1566 H1578 0.956 . S
C1566 H1579 0.961 1_455 S
C1566 H1580 0.961 . S
C1567 C1564 1.539 1_545 S
C1567 H1581 0.958 . S
C1567 H1582 0.961 . S
C1567 H1583 0.960 1_455 S
H1568 C1552 0.931 . S
H1569 C1557 0.929 1_565 S
H1570 C1558 0.960 . S
H1571 C1558 0.962 . S
H1572 C1558 0.960 . S
H1573 C1559 0.961 . S
H1574 C1559 0.961 . S
H1575 C1559 0.961 . S
H1576 C1560 0.931 . S
H1577 C1565 0.930 . S
H1578 C1566 0.956 . S
H1579 C1566 0.961 1_655 S
H1580 C1566 0.961 . S
H1581 C1567 0.958 . S
H1582 C1567 0.961 . S
H1583 C1567 0.960 1_655 S
C1584 C1585 1.391 . S
C1584 C1586 1.394 . S
C1584 H1600 0.931 . S
C1585 C1584 1.391 . S
C1585 C1589 1.376 . S
C1586 C1584 1.394 . S
C1586 C1587 1.369 . S
C1586 C1590 1.531 . S
C1587 C1586 1.369 . S
C1587 C1588 1.410 . S
C1587 C1595 1.503 . S
C1588 C1587 1.410 . S
C1588 C1589 1.392 . S
C1588 C1591 1.511 . S
C1589 C1585 1.376 . S
C1589 C1588 1.392 . S
C1589 H1601 0.929 . S
C1590 C1586 1.531 . S
C1590 H1602 0.960 . S
C1590 H1603 0.962 . S
C1590 H1604 0.960 . S
C1591 C1588 1.511 . S
C1591 H1605 0.961 . S
C1591 H1606 0.961 . S
C1591 H1607 0.961 . S
C1592 C1593 1.370 . S
C1592 C1594 1.363 . S
C1592 H1608 0.931 . S
C1593 C1592 1.370 . S
C1593 C1597 1.408 . S
C1594 C1592 1.363 . S
C1594 C1595 1.370 . S
C1594 C1598 1.524 . S
C1595 C1587 1.503 . S
C1595 C1594 1.370 . S
C1595 C1596 1.403 . S
C1596 C1595 1.403 . S
C1596 C1597 1.404 . S
C1596 C1599 1.539 . S
C1597 C1593 1.408 . S
C1597 C1596 1.404 . S
C1597 H1609 0.930 . S
C1598 C1594 1.524 . S
C1598 H1610 0.956 . S
C1598 H1611 0.961 . S
C1598 H1612 0.961 . S
C1599 C1596 1.539 . S
C1599 H1613 0.958 . S
C1599 H1614 0.961 . S
C1599 H1615 0.960 . S
H1600 C1584 0.931 . S
H1601 C1589 0.929 . S
H1602 C1590 0.960 . S
H1603 C1590 0.962 . S
H1604 C1590 0.960 . S
H1605 C1591 0.961 . S
H1606 C1591 0.961 . S
H1607 C1591 0.961 . S
H1608 C1592 0.931 . S
H1609 C1597 0.930 . S
H1610 C1598 0.956 . S
H1611 C1598 0.961 . S
H1612 C1598 0.961 . S
H1613 C1599 0.958 . S
H1614 C1599 0.961 . S
H1615 C1599 0.960 . S
C1616 C1617 1.391 . S
C1616 C1618 1.394 . S
C1616 H1632 0.931 . S
C1617 C1616 1.391 . S
C1617 C1621 1.376 . S
C1618 C1616 1.394 . S
C1618 C1619 1.369 . S
C1618 C1622 1.531 . S
C1619 C1618 1.369 . S
C1619 C1620 1.410 . S
C1619 C1627 1.503 . S
C1620 C1619 1.410 . S
C1620 C1621 1.392 . S
C1620 C1623 1.511 . S
C1621 C1617 1.376 . S
C1621 C1620 1.392 . S
C1621 H1633 0.929 . S
C1622 C1618 1.531 . S
C1622 H1634 0.960 . S
C1622 H1635 0.962 . S
C1622 H1636 0.960 . S
C1623 C1620 1.511 . S
C1623 H1637 0.961 . S
C1623 H1638 0.961 . S
C1623 H1639 0.961 . S
C1624 C1625 1.370 . S
C1624 C1626 1.363 . S
C1624 H1640 0.931 . S
C1625 C1624 1.370 . S
C1625 C1629 1.408 . S
C1626 C1624 1.363 . S
C1626 C1627 1.370 . S
C1626 C1630 1.524 . S
C1627 C1619 1.503 . S
C1627 C1626 1.370 . S
C1627 C1628 1.403 . S
C1628 C1627 1.403 . S
C1628 C1629 1.404 . S
C1628 C1631 1.539 . S
C1629 C1625 1.408 . S
C1629 C1628 1.404 . S
C1629 H1641 0.930 . S
C1630 C1626 1.524 . S
C1630 H1642 0.956 . S
C1630 H1643 0.961 . S
C1630 H1644 0.961 . S
C1631 C1628 1.539 . S
C1631 H1645 0.958 . S
C1631 H1646 0.961 . S
C1631 H1647 0.960 . S
H1632 C1616 0.931 . S
H1633 C1621 0.929 . S
H1634 C1622 0.960 . S
H1635 C1622 0.962 . S
H1636 C1622 0.960 . S
H1637 C1623 0.961 . S
H1638 C1623 0.961 . S
H1639 C1623 0.961 . S
H1640 C1624 0.931 . S
H1641 C1629 0.930 . S
H1642 C1630 0.956 . S
H1643 C1630 0.961 . S
H1644 C1630 0.961 . S
H1645 C1631 0.958 . S
H1646 C1631 0.961 . S
H1647 C1631 0.960 . S
C1648 C1649 1.391 . S
C1648 C1650 1.394 . S
C1648 H1664 0.931 . S
C1649 C1648 1.391 . S
C1649 C1653 1.376 . S
C1650 C1648 1.394 . S
C1650 C1651 1.369 . S
C1650 C1654 1.531 . S
C1651 C1650 1.369 . S
C1651 C1652 1.410 . S
C1651 C1659 1.503 . S
C1652 C1651 1.410 . S
C1652 C1653 1.392 . S
C1652 C1655 1.511 . S
C1653 C1649 1.376 . S
C1653 C1652 1.392 . S
C1653 H1665 0.929 . S
C1654 C1650 1.531 . S
C1654 H1666 0.960 . S
C1654 H1667 0.962 . S
C1654 H1668 0.960 . S
C1655 C1652 1.511 . S
C1655 H1669 0.961 . S
C1655 H1670 0.961 . S
C1655 H1671 0.961 . S
C1656 C1657 1.370 . S
C1656 C1658 1.363 . S
C1656 H1672 0.931 . S
C1657 C1656 1.370 . S
C1657 C1661 1.408 . S
C1658 C1656 1.363 . S
C1658 C1659 1.370 . S
C1658 C1662 1.524 . S
C1659 C1651 1.503 . S
C1659 C1658 1.370 . S
C1659 C1660 1.403 . S
C1660 C1659 1.403 . S
C1660 C1661 1.404 . S
C1660 C1663 1.539 . S
C1661 C1657 1.408 . S
C1661 C1660 1.404 . S
C1661 H1673 0.930 . S
C1662 C1658 1.524 . S
C1662 H1674 0.956 . S
C1662 H1675 0.961 . S
C1662 H1676 0.961 . S
C1663 C1660 1.539 . S
C1663 H1677 0.958 . S
C1663 H1678 0.961 . S
C1663 H1679 0.960 . S
H1664 C1648 0.931 . S
H1665 C1653 0.929 . S
H1666 C1654 0.960 . S
H1667 C1654 0.962 . S
H1668 C1654 0.960 . S
H1669 C1655 0.961 . S
H1670 C1655 0.961 . S
H1671 C1655 0.961 . S
H1672 C1656 0.931 . S
H1673 C1661 0.930 . S
H1674 C1662 0.956 . S
H1675 C1662 0.961 . S
H1676 C1662 0.961 . S
H1677 C1663 0.958 . S
H1678 C1663 0.961 . S
H1679 C1663 0.960 . S
C1680 C1681 1.391 . S
C1680 C1682 1.394 . S
C1680 H1696 0.931 . S
C1681 C1680 1.391 . S
C1681 C1685 1.376 . S
C1682 C1680 1.394 . S
C1682 C1683 1.369 . S
C1682 C1686 1.531 . S
C1683 C1682 1.369 . S
C1683 C1684 1.410 . S
C1683 C1691 1.503 1_655 S
C1684 C1683 1.410 . S
C1684 C1685 1.392 . S
C1684 C1687 1.511 1_655 S
C1685 C1681 1.376 . S
C1685 C1684 1.392 . S
C1685 H1697 0.929 . S
C1686 C1682 1.531 . S
C1686 H1698 0.960 . S
C1686 H1699 0.962 . S
C1686 H1700 0.960 . S
C1687 C1684 1.511 1_455 S
C1687 H1701 0.961 . S
C1687 H1702 0.961 . S
C1687 H1703 0.961 . S
C1688 C1689 1.370 . S
C1688 C1690 1.363 . S
C1688 H1704 0.931 . S
C1689 C1688 1.370 . S
C1689 C1693 1.408 . S
C1690 C1688 1.363 . S
C1690 C1691 1.370 . S
C1690 C1694 1.524 . S
C1691 C1683 1.503 1_455 S
C1691 C1690 1.370 . S
C1691 C1692 1.403 . S
C1692 C1691 1.403 . S
C1692 C1693 1.404 . S
C1692 C1695 1.539 . S
C1693 C1689 1.408 . S
C1693 C1692 1.404 . S
C1693 H1705 0.930 . S
C1694 C1690 1.524 . S
C1694 H1706 0.956 1_455 S
C1694 H1707 0.961 1_455 S
C1694 H1708 0.961 . S
C1695 C1692 1.539 . S
C1695 H1709 0.958 . S
C1695 H1710 0.961 . S
C1695 H1711 0.960 . S
H1696 C1680 0.931 . S
H1697 C1685 0.929 . S
H1698 C1686 0.960 . S
H1699 C1686 0.962 . S
H1700 C1686 0.960 . S
H1701 C1687 0.961 . S
H1702 C1687 0.961 . S
H1703 C1687 0.961 . S
H1704 C1688 0.931 . S
H1705 C1693 0.930 . S
H1706 C1694 0.956 1_655 S
H1707 C1694 0.961 1_655 S
H1708 C1694 0.961 . S
H1709 C1695 0.958 . S
H1710 C1695 0.961 . S
H1711 C1695 0.960 . S
C1712 C1713 1.383 1_556 S
C1712 C1714 1.396 . S
C1712 H1728 0.936 . S
C1713 C1712 1.383 1_554 S
C1713 C1717 1.376 . S
C1714 C1712 1.396 . S
C1714 C1715 1.369 1_556 S
C1714 C1718 1.531 . S
C1715 C1714 1.369 1_554 S
C1715 C1716 1.410 . S
C1715 C1723 1.503 1_554 S
C1716 C1715 1.410 . S
C1716 C1717 1.392 . S
C1716 C1719 1.511 . S
C1717 C1713 1.376 . S
C1717 C1716 1.392 . S
C1717 H1729 0.929 . S
C1718 C1714 1.531 . S
C1718 H1730 0.960 . S
C1718 H1731 0.962 . S
C1718 H1732 0.960 . S
C1719 C1716 1.511 . S
C1719 H1733 0.961 . S
C1719 H1734 0.961 . S
C1719 H1735 0.961 . S
C1720 C1721 1.370 . S
C1720 C1722 1.363 . S
C1720 H1736 0.931 . S
C1721 C1720 1.370 . S
C1721 C1725 1.430 . S
C1722 C1720 1.363 . S
C1722 C1723 1.370 . S
C1722 C1726 1.524 . S
C1723 C1715 1.503 1_556 S
C1723 C1722 1.370 . S
C1723 C1724 1.403 1_556 S
C1724 C1723 1.403 1_554 S
C1724 C1725 1.394 1_554 S
C1724 C1727 1.539 . S
C1725 C1721 1.430 . S
C1725 C1724 1.394 1_556 S
C1725 H1737 0.919 1_556 S
C1726 C1722 1.524 . S
C1726 H1738 0.956 . S
C1726 H1739 0.961 . S
C1726 H1740 0.961 . S
C1727 C1724 1.539 . S
C1727 H1741 0.958 . S
C1727 H1742 0.961 . S
C1727 H1743 0.960 . S
H1728 C1712 0.936 . S
H1729 C1717 0.929 . S
H1730 C1718 0.960 . S
H1731 C1718 0.962 . S
H1732 C1718 0.960 . S
H1733 C1719 0.961 . S
H1734 C1719 0.961 . S
H1735 C1719 0.961 . S
H1736 C1720 0.931 . S
H1737 C1725 0.919 1_554 S
H1738 C1726 0.956 . S
H1739 C1726 0.961 . S
H1740 C1726 0.961 . S
H1741 C1727 0.958 . S
H1742 C1727 0.961 . S
H1743 C1727 0.960 . S
C1744 C1745 1.391 . S
C1744 C1746 1.394 . S
C1744 H1760 0.931 . S
C1745 C1744 1.391 . S
C1745 C1749 1.376 . S
C1746 C1744 1.394 . S
C1746 C1747 1.369 . S
C1746 C1750 1.531 . S
C1747 C1746 1.369 . S
C1747 C1748 1.410 . S
C1747 C1755 1.507 . S
C1748 C1747 1.410 . S
C1748 C1749 1.392 . S
C1748 C1751 1.511 1_556 S
C1749 C1745 1.376 . S
C1749 C1748 1.392 . S
C1749 H1761 0.929 . S
C1750 C1746 1.531 . S
C1750 H1762 0.960 . S
C1750 H1763 0.962 . S
C1750 H1764 0.960 . S
C1751 C1748 1.511 1_554 S
C1751 H1765 0.961 . S
C1751 H1766 0.961 . S
C1751 H1767 0.961 . S
C1752 C1753 1.370 . S
C1752 C1754 1.363 . S
C1752 H1768 0.931 . S
C1753 C1752 1.370 . S
C1753 C1757 1.408 . S
C1754 C1752 1.363 . S
C1754 C1755 1.366 1_554 S
C1754 C1758 1.524 . S
C1755 C1747 1.507 . S
C1755 C1754 1.366 1_556 S
C1755 C1756 1.404 . S
C1756 C1755 1.404 . S
C1756 C1757 1.404 1_556 S
C1756 C1759 1.539 . S
C1757 C1753 1.408 . S
C1757 C1756 1.404 1_554 S
C1757 H1769 0.930 . S
C1758 C1754 1.524 . S
C1758 H1770 0.956 . S
C1758 H1771 0.961 . S
C1758 H1772 0.961 . S
C1759 C1756 1.539 . S
C1759 H1773 0.958 . S
C1759 H1774 0.961 . S
C1759 H1775 0.960 . S
H1760 C1744 0.931 . S
H1761 C1749 0.929 . S
H1762 C1750 0.960 . S
H1763 C1750 0.962 . S
H1764 C1750 0.960 . S
H1765 C1751 0.961 . S
H1766 C1751 0.961 . S
H1767 C1751 0.961 . S
H1768 C1752 0.931 . S
H1769 C1757 0.930 . S
H1770 C1758 0.956 . S
H1771 C1758 0.961 . S
H1772 C1758 0.961 . S
H1773 C1759 0.958 . S
H1774 C1759 0.961 . S
H1775 C1759 0.960 . S
C1776 C1777 1.391 . S
C1776 C1778 1.394 . S
C1776 H1792 0.931 . S
C1777 C1776 1.391 . S
C1777 C1781 1.376 . S
C1778 C1776 1.394 . S
C1778 C1779 1.369 . S
C1778 C1782 1.531 . S
C1779 C1778 1.369 . S
C1779 C1780 1.410 . S
C1779 C1787 1.503 . S
C1780 C1779 1.410 . S
C1780 C1781 1.392 . S
C1780 C1783 1.511 . S
C1781 C1777 1.376 . S
C1781 C1780 1.392 . S
C1781 H1793 0.929 . S
C1782 C1778 1.531 . S
C1782 H1794 0.960 . S
C1782 H1795 0.962 . S
C1782 H1796 0.960 . S
C1783 C1780 1.511 . S
C1783 H1797 0.961 . S
C1783 H1798 0.961 . S
C1783 H1799 0.961 . S
C1784 C1785 1.370 . S
C1784 C1786 1.363 . S
C1784 H1800 0.931 . S
C1785 C1784 1.370 . S
C1785 C1789 1.408 . S
C1786 C1784 1.363 . S
C1786 C1787 1.370 . S
C1786 C1790 1.524 . S
C1787 C1779 1.503 . S
C1787 C1786 1.370 . S
C1787 C1788 1.403 . S
C1788 C1787 1.403 . S
C1788 C1789 1.404 . S
C1788 C1791 1.539 . S
C1789 C1785 1.408 . S
C1789 C1788 1.404 . S
C1789 H1801 0.930 . S
C1790 C1786 1.524 . S
C1790 H1802 0.956 . S
C1790 H1803 0.961 . S
C1790 H1804 0.961 . S
C1791 C1788 1.539 . S
C1791 H1805 0.958 . S
C1791 H1806 0.961 . S
C1791 H1807 0.960 . S
H1792 C1776 0.931 . S
H1793 C1781 0.929 . S
H1794 C1782 0.960 . S
H1795 C1782 0.962 . S
H1796 C1782 0.960 . S
H1797 C1783 0.961 . S
H1798 C1783 0.961 . S
H1799 C1783 0.961 . S
H1800 C1784 0.931 . S
H1801 C1789 0.930 . S
H1802 C1790 0.956 . S
H1803 C1790 0.961 . S
H1804 C1790 0.961 . S
H1805 C1791 0.958 . S
H1806 C1791 0.961 . S
H1807 C1791 0.960 . S
C1808 C1809 1.391 . S
C1808 C1810 1.394 . S
C1808 H1824 0.931 . S
C1809 C1808 1.391 . S
C1809 C1813 1.376 . S
C1810 C1808 1.394 . S
C1810 C1811 1.369 . S
C1810 C1814 1.531 . S
C1811 C1810 1.369 . S
C1811 C1812 1.410 . S
C1811 C1819 1.503 . S
C1812 C1811 1.410 . S
C1812 C1813 1.392 . S
C1812 C1815 1.511 . S
C1813 C1809 1.376 . S
C1813 C1812 1.392 . S
C1813 H1825 0.929 . S
C1814 C1810 1.531 . S
C1814 H1826 0.960 . S
C1814 H1827 0.962 . S
C1814 H1828 0.960 . S
C1815 C1812 1.511 . S
C1815 H1829 0.961 . S
C1815 H1830 0.961 . S
C1815 H1831 0.961 . S
C1816 C1817 1.370 . S
C1816 C1818 1.363 . S
C1816 H1832 0.931 . S
C1817 C1816 1.370 . S
C1817 C1821 1.408 . S
C1818 C1816 1.363 . S
C1818 C1819 1.370 . S
C1818 C1822 1.524 . S
C1819 C1811 1.503 . S
C1819 C1818 1.370 . S
C1819 C1820 1.403 . S
C1820 C1819 1.403 . S
C1820 C1821 1.404 . S
C1820 C1823 1.539 . S
C1821 C1817 1.408 . S
C1821 C1820 1.404 . S
C1821 H1833 0.930 . S
C1822 C1818 1.524 . S
C1822 H1834 0.956 . S
C1822 H1835 0.961 . S
C1822 H1836 0.961 . S
C1823 C1820 1.539 . S
C1823 H1837 0.958 . S
C1823 H1838 0.961 . S
C1823 H1839 0.960 . S
H1824 C1808 0.931 . S
H1825 C1813 0.929 . S
H1826 C1814 0.960 . S
H1827 C1814 0.962 . S
H1828 C1814 0.960 . S
H1829 C1815 0.961 . S
H1830 C1815 0.961 . S
H1831 C1815 0.961 . S
H1832 C1816 0.931 . S
H1833 C1821 0.930 . S
H1834 C1822 0.956 . S
H1835 C1822 0.961 . S
H1836 C1822 0.961 . S
H1837 C1823 0.958 . S
H1838 C1823 0.961 . S
H1839 C1823 0.960 . S
C1840 C1841 1.391 . S
C1840 C1842 1.394 . S
C1840 H1856 0.931 . S
C1841 C1840 1.391 . S
C1841 C1845 1.376 . S
C1842 C1840 1.394 . S
C1842 C1843 1.369 . S
C1842 C1846 1.531 . S
C1843 C1842 1.369 . S
C1843 C1844 1.410 . S
C1843 C1851 1.503 . S
C1844 C1843 1.410 . S
C1844 C1845 1.392 . S
C1844 C1847 1.511 . S
C1845 C1841 1.376 . S
C1845 C1844 1.392 . S
C1845 H1857 0.929 . S
C1846 C1842 1.531 . S
C1846 H1858 0.960 . S
C1846 H1859 0.962 . S
C1846 H1860 0.960 . S
C1847 C1844 1.511 . S
C1847 H1861 0.961 . S
C1847 H1862 0.961 . S
C1847 H1863 0.961 . S
C1848 C1849 1.370 . S
C1848 C1850 1.363 . S
C1848 H1864 0.931 . S
C1849 C1848 1.370 . S
C1849 C1853 1.408 . S
C1850 C1848 1.363 . S
C1850 C1851 1.370 . S
C1850 C1854 1.524 . S
C1851 C1843 1.503 . S
C1851 C1850 1.370 . S
C1851 C1852 1.403 . S
C1852 C1851 1.403 . S
C1852 C1853 1.404 . S
C1852 C1855 1.539 . S
C1853 C1849 1.408 . S
C1853 C1852 1.404 . S
C1853 H1865 0.930 . S
C1854 C1850 1.524 . S
C1854 H1866 0.956 . S
C1854 H1867 0.961 . S
C1854 H1868 0.961 . S
C1855 C1852 1.539 . S
C1855 H1869 0.958 . S
C1855 H1870 0.961 . S
C1855 H1871 0.960 . S
H1856 C1840 0.931 . S
H1857 C1845 0.929 . S
H1858 C1846 0.960 . S
H1859 C1846 0.962 . S
H1860 C1846 0.960 . S
H1861 C1847 0.961 . S
H1862 C1847 0.961 . S
H1863 C1847 0.961 . S
H1864 C1848 0.931 . S
H1865 C1853 0.930 . S
H1866 C1854 0.956 . S
H1867 C1854 0.961 . S
H1868 C1854 0.961 . S
H1869 C1855 0.958 . S
H1870 C1855 0.961 . S
H1871 C1855 0.960 . S
C1872 C1873 1.391 . S
C1872 C1874 1.394 . S
C1872 H1888 0.931 . S
C1873 C1872 1.391 . S
C1873 C1877 1.376 . S
C1874 C1872 1.394 . S
C1874 C1875 1.369 . S
C1874 C1878 1.531 . S
C1875 C1874 1.369 . S
C1875 C1876 1.410 1_556 S
C1875 C1883 1.503 1_556 S
C1876 C1875 1.410 1_554 S
C1876 C1877 1.392 1_554 S
C1876 C1879 1.511 . S
C1877 C1873 1.376 . S
C1877 C1876 1.392 1_556 S
C1877 H1889 0.929 . S
C1878 C1874 1.531 . S
C1878 H1890 0.960 . S
C1878 H1891 0.962 . S
C1878 H1892 0.960 . S
C1879 C1876 1.511 . S
C1879 H1893 0.961 . S
C1879 H1894 0.961 . S
C1879 H1895 0.961 . S
C1880 C1881 1.370 . S
C1880 C1882 1.363 . S
C1880 H1896 0.931 . S
C1881 C1880 1.370 . S
C1881 C1885 1.408 . S
C1882 C1880 1.363 . S
C1882 C1883 1.370 . S
C1882 C1886 1.524 . S
C1883 C1875 1.503 1_554 S
C1883 C1882 1.370 . S
C1883 C1884 1.403 . S
C1884 C1883 1.403 . S
C1884 C1885 1.404 . S
C1884 C1887 1.539 1_554 S
C1885 C1881 1.408 . S
C1885 C1884 1.404 . S
C1885 H1897 0.930 . S
C1886 C1882 1.524 . S
C1886 H1898 0.956 . S
C1886 H1899 0.961 . S
C1886 H1900 0.961 . S
C1887 C1884 1.539 1_556 S
C1887 H1901 0.958 . S
C1887 H1902 0.961 . S
C1887 H1903 0.960 . S
H1888 C1872 0.931 . S
H1889 C1877 0.929 . S
H1890 C1878 0.960 . S
H1891 C1878 0.962 . S
H1892 C1878 0.960 . S
H1893 C1879 0.961 . S
H1894 C1879 0.961 . S
H1895 C1879 0.961 . S
H1896 C1880 0.931 . S
H1897 C1885 0.930 . S
H1898 C1886 0.956 . S
H1899 C1886 0.961 . S
H1900 C1886 0.961 . S
H1901 C1887 0.958 . S
H1902 C1887 0.961 . S
H1903 C1887 0.960 . S
C1904 C1905 1.391 . S
C1904 C1906 1.394 . S
C1904 H1920 0.931 . S
C1905 C1904 1.391 . S
C1905 C1909 1.376 . S
C1906 C1904 1.394 . S
C1906 C1907 1.369 . S
C1906 C1910 1.531 . S
C1907 C1906 1.369 . S
C1907 C1908 1.410 . S
C1907 C1915 1.503 . S
C1908 C1907 1.410 . S
C1908 C1909 1.392 . S
C1908 C1911 1.511 . S
C1909 C1905 1.376 . S
C1909 C1908 1.392 . S
C1909 H1921 0.929 . S
C1910 C1906 1.531 . S
C1910 H1922 0.960 . S
C1910 H1923 0.962 . S
C1910 H1924 0.960 . S
C1911 C1908 1.511 . S
C1911 H1925 0.961 . S
C1911 H1926 0.961 . S
C1911 H1927 0.961 . S
C1912 C1913 1.370 . S
C1912 C1914 1.363 . S
C1912 H1928 0.931 . S
C1913 C1912 1.370 . S
C1913 C1917 1.408 . S
C1914 C1912 1.363 . S
C1914 C1915 1.370 . S
C1914 C1918 1.524 . S
C1915 C1907 1.503 . S
C1915 C1914 1.370 . S
C1915 C1916 1.403 . S
C1916 C1915 1.403 . S
C1916 C1917 1.404 . S
C1916 C1919 1.539 . S
C1917 C1913 1.408 . S
C1917 C1916 1.404 . S
C1917 H1929 0.930 . S
C1918 C1914 1.524 . S
C1918 H1930 0.956 . S
C1918 H1931 0.961 . S
C1918 H1932 0.961 . S
C1919 C1916 1.539 . S
C1919 H1933 0.958 . S
C1919 H1934 0.961 . S
C1919 H1935 0.960 . S
H1920 C1904 0.931 . S
H1921 C1909 0.929 . S
H1922 C1910 0.960 . S
H1923 C1910 0.962 . S
H1924 C1910 0.960 . S
H1925 C1911 0.961 . S
H1926 C1911 0.961 . S
H1927 C1911 0.961 . S
H1928 C1912 0.931 . S
H1929 C1917 0.930 . S
H1930 C1918 0.956 . S
H1931 C1918 0.961 . S
H1932 C1918 0.961 . S
H1933 C1919 0.958 . S
H1934 C1919 0.961 . S
H1935 C1919 0.960 . S
C1936 C1937 1.391 . S
C1936 C1938 1.394 . S
C1936 H1952 0.931 . S
C1937 C1936 1.391 . S
C1937 C1941 1.376 . S
C1938 C1936 1.394 . S
C1938 C1939 1.369 . S
C1938 C1942 1.531 . S
C1939 C1938 1.369 . S
C1939 C1940 1.410 . S
C1939 C1947 1.503 . S
C1940 C1939 1.410 . S
C1940 C1941 1.392 . S
C1940 C1943 1.511 . S
C1941 C1937 1.376 . S
C1941 C1940 1.392 . S
C1941 H1953 0.929 . S
C1942 C1938 1.531 . S
C1942 H1954 0.960 . S
C1942 H1955 0.962 . S
C1942 H1956 0.960 . S
C1943 C1940 1.511 . S
C1943 H1957 0.961 . S
C1943 H1958 0.961 . S
C1943 H1959 0.961 . S
C1944 C1945 1.370 . S
C1944 C1946 1.363 . S
C1944 H1960 0.931 . S
C1945 C1944 1.370 . S
C1945 C1949 1.408 . S
C1946 C1944 1.363 . S
C1946 C1947 1.370 . S
C1946 C1950 1.524 . S
C1947 C1939 1.503 . S
C1947 C1946 1.370 . S
C1947 C1948 1.403 . S
C1948 C1947 1.403 . S
C1948 C1949 1.404 . S
C1948 C1951 1.539 . S
C1949 C1945 1.408 . S
C1949 C1948 1.404 . S
C1949 H1961 0.930 . S
C1950 C1946 1.524 . S
C1950 H1962 0.956 . S
C1950 H1963 0.961 . S
C1950 H1964 0.961 . S
C1951 C1948 1.539 . S
C1951 H1965 0.958 . S
C1951 H1966 0.961 . S
C1951 H1967 0.960 . S
H1952 C1936 0.931 . S
H1953 C1941 0.929 . S
H1954 C1942 0.960 . S
H1955 C1942 0.962 . S
H1956 C1942 0.960 . S
H1957 C1943 0.961 . S
H1958 C1943 0.961 . S
H1959 C1943 0.961 . S
H1960 C1944 0.931 . S
H1961 C1949 0.930 . S
H1962 C1950 0.956 . S
H1963 C1950 0.961 . S
H1964 C1950 0.961 . S
H1965 C1951 0.958 . S
H1966 C1951 0.961 . S
H1967 C1951 0.960 . S
C1968 C1969 1.391 . S
C1968 C1970 1.394 . S
C1968 H1984 0.931 . S
C1969 C1968 1.391 . S
C1969 C1973 1.376 . S
C1970 C1968 1.394 . S
C1970 C1971 1.369 . S
C1970 C1974 1.531 . S
C1971 C1970 1.369 . S
C1971 C1972 1.410 . S
C1971 C1979 1.503 . S
C1972 C1971 1.410 . S
C1972 C1973 1.392 . S
C1972 C1975 1.511 . S
C1973 C1969 1.376 . S
C1973 C1972 1.392 . S
C1973 H1985 0.929 . S
C1974 C1970 1.531 . S
C1974 H1986 0.960 . S
C1974 H1987 0.962 . S
C1974 H1988 0.960 . S
C1975 C1972 1.511 . S
C1975 H1989 0.961 . S
C1975 H1990 0.961 . S
C1975 H1991 0.961 . S
C1976 C1977 1.370 . S
C1976 C1978 1.363 . S
C1976 H1992 0.931 . S
C1977 C1976 1.370 . S
C1977 C1981 1.408 . S
C1978 C1976 1.363 . S
C1978 C1979 1.370 . S
C1978 C1982 1.524 . S
C1979 C1971 1.503 . S
C1979 C1978 1.370 . S
C1979 C1980 1.403 . S
C1980 C1979 1.403 . S
C1980 C1981 1.404 . S
C1980 C1983 1.539 . S
C1981 C1977 1.408 . S
C1981 C1980 1.404 . S
C1981 H1993 0.930 . S
C1982 C1978 1.524 . S
C1982 H1994 0.956 . S
C1982 H1995 0.961 . S
C1982 H1996 0.961 . S
C1983 C1980 1.539 . S
C1983 H1997 0.958 . S
C1983 H1998 0.961 . S
C1983 H1999 0.960 . S
H1984 C1968 0.931 . S
H1985 C1973 0.929 . S
H1986 C1974 0.960 . S
H1987 C1974 0.962 . S
H1988 C1974 0.960 . S
H1989 C1975 0.961 . S
H1990 C1975 0.961 . S
H1991 C1975 0.961 . S
H1992 C1976 0.931 . S
H1993 C1981 0.930 . S
H1994 C1982 0.956 . S
H1995 C1982 0.961 . S
H1996 C1982 0.961 . S
H1997 C1983 0.958 . S
H1998 C1983 0.961 . S
H1999 C1983 0.960 . S
C2000 C2001 1.391 . S
C2000 C2002 1.394 . S
C2000 H2016 0.931 . S
C2001 C2000 1.391 . S
C2001 C2005 1.376 . S
C2002 C2000 1.394 . S
C2002 C2003 1.369 . S
C2002 C2006 1.531 . S
C2003 C2002 1.369 . S
C2003 C2004 1.410 . S
C2003 C2011 1.503 . S
C2004 C2003 1.410 . S
C2004 C2005 1.392 . S
C2004 C2007 1.511 . S
C2005 C2001 1.376 . S
C2005 C2004 1.392 . S
C2005 H2017 0.929 . S
C2006 C2002 1.531 . S
C2006 H2018 0.960 . S
C2006 H2019 0.962 . S
C2006 H2020 0.960 . S
C2007 C2004 1.511 . S
C2007 H2021 0.961 . S
C2007 H2022 0.961 . S
C2007 H2023 0.961 . S
C2008 C2009 1.370 . S
C2008 C2010 1.363 . S
C2008 H2024 0.931 . S
C2009 C2008 1.370 . S
C2009 C2013 1.408 . S
C2010 C2008 1.363 . S
C2010 C2011 1.370 . S
C2010 C2014 1.524 . S
C2011 C2003 1.503 . S
C2011 C2010 1.370 . S
C2011 C2012 1.403 . S
C2012 C2011 1.403 . S
C2012 C2013 1.404 . S
C2012 C2015 1.539 . S
C2013 C2009 1.408 . S
C2013 C2012 1.404 . S
C2013 H2025 0.930 . S
C2014 C2010 1.524 . S
C2014 H2026 0.956 . S
C2014 H2027 0.961 . S
C2014 H2028 0.961 . S
C2015 C2012 1.539 . S
C2015 H2029 0.958 . S
C2015 H2030 0.961 . S
C2015 H2031 0.960 . S
H2016 C2000 0.931 . S
H2017 C2005 0.929 . S
H2018 C2006 0.960 . S
H2019 C2006 0.962 . S
H2020 C2006 0.960 . S
H2021 C2007 0.961 . S
H2022 C2007 0.961 . S
H2023 C2007 0.961 . S
H2024 C2008 0.931 . S
H2025 C2013 0.930 . S
H2026 C2014 0.956 . S
H2027 C2014 0.961 . S
H2028 C2014 0.961 . S
H2029 C2015 0.958 . S
H2030 C2015 0.961 . S
H2031 C2015 0.960 . S
C2032 C2033 1.391 . S
C2032 C2034 1.394 . S
C2032 H2048 0.931 . S
C2033 C2032 1.391 . S
C2033 C2037 1.376 1_545 S
C2034 C2032 1.394 . S
C2034 C2035 1.369 . S
C2034 C2038 1.531 . S
C2035 C2034 1.369 . S
C2035 C2036 1.410 1_545 S
C2035 C2043 1.503 . S
C2036 C2035 1.410 1_565 S
C2036 C2037 1.392 . S
C2036 C2039 1.511 . S
C2037 C2033 1.376 1_565 S
C2037 C2036 1.392 . S
C2037 H2049 0.929 . S
C2038 C2034 1.531 . S
C2038 H2050 0.960 . S
C2038 H2051 0.962 . S
C2038 H2052 0.960 . S
C2039 C2036 1.511 . S
C2039 H2053 0.961 . S
C2039 H2054 0.961 . S
C2039 H2055 0.961 . S
C2040 C2041 1.370 . S
C2040 C2042 1.363 . S
C2040 H2056 0.931 . S
C2041 C2040 1.370 . S
C2041 C2045 1.408 . S
C2042 C2040 1.363 . S
C2042 C2043 1.370 . S
C2042 C2046 1.524 . S
C2043 C2035 1.503 . S
C2043 C2042 1.370 . S
C2043 C2044 1.403 . S
C2044 C2043 1.403 . S
C2044 C2045 1.404 . S
C2044 C2047 1.539 1_545 S
C2045 C2041 1.408 . S
C2045 C2044 1.404 . S
C2045 H2057 0.930 . S
C2046 C2042 1.524 . S
C2046 H2058 0.956 . S
C2046 H2059 0.961 . S
C2046 H2060 0.961 . S
C2047 C2044 1.539 1_565 S
C2047 H2061 0.958 1_565 S
C2047 H2062 0.961 . S
C2047 H2063 0.960 . S
H2048 C2032 0.931 . S
H2049 C2037 0.929 . S
H2050 C2038 0.960 . S
H2051 C2038 0.962 . S
H2052 C2038 0.960 . S
H2053 C2039 0.961 . S
H2054 C2039 0.961 . S
H2055 C2039 0.961 . S
H2056 C2040 0.931 . S
H2057 C2045 0.930 . S
H2058 C2046 0.956 . S
H2059 C2046 0.961 . S
H2060 C2046 0.961 . S
H2061 C2047 0.958 1_545 S
H2062 C2047 0.961 . S
H2063 C2047 0.960 . S
C2064 C2065 1.391 . S
C2064 C2066 1.394 1_554 S
C2064 H2080 0.932 1_554 S
C2065 C2064 1.391 . S
C2065 C2069 1.376 . S
C2066 C2064 1.394 1_556 S
C2066 C2067 1.376 . S
C2066 C2070 1.531 . S
C2067 C2066 1.376 . S
C2067 C2068 1.389 1_556 S
C2067 C2075 1.515 . S
C2068 C2067 1.389 1_554 S
C2068 C2069 1.392 . S
C2068 C2071 1.511 . S
C2069 C2065 1.376 . S
C2069 C2068 1.392 . S
C2069 H2081 0.929 . S
C2070 C2066 1.531 . S
C2070 H2082 0.960 . S
C2070 H2083 0.962 . S
C2070 H2084 0.960 . S
C2071 C2068 1.511 . S
C2071 H2085 0.961 . S
C2071 H2086 0.961 . S
C2071 H2087 0.961 . S
C2072 C2073 1.370 . S
C2072 C2074 1.363 . S
C2072 H2088 0.931 . S
C2073 C2072 1.370 . S
C2073 C2077 1.408 . S
C2074 C2072 1.363 . S
C2074 C2075 1.370 . S
C2074 C2078 1.524 1_556 S
C2075 C2067 1.515 . S
C2075 C2074 1.370 . S
C2075 C2076 1.403 . S
C2076 C2075 1.403 . S
C2076 C2077 1.404 . S
C2076 C2079 1.539 . S
C2077 C2073 1.408 . S
C2077 C2076 1.404 . S
C2077 H2089 0.930 . S
C2078 C2074 1.524 1_554 S
C2078 H2090 0.956 . S
C2078 H2091 0.961 . S
C2078 H2092 0.961 . S
C2079 C2076 1.539 . S
C2079 H2093 0.958 . S
C2079 H2094 0.961 . S
C2079 H2095 0.960 . S
H2080 C2064 0.932 1_556 S
H2081 C2069 0.929 . S
H2082 C2070 0.960 . S
H2083 C2070 0.962 . S
H2084 C2070 0.960 . S
H2085 C2071 0.961 . S
H2086 C2071 0.961 . S
H2087 C2071 0.961 . S
H2088 C2072 0.931 . S
H2089 C2077 0.930 . S
H2090 C2078 0.956 . S
H2091 C2078 0.961 . S
H2092 C2078 0.961 . S
H2093 C2079 0.958 . S
H2094 C2079 0.961 . S
H2095 C2079 0.960 . S
C2096 C2097 1.391 . S
C2096 C2098 1.394 . S
C2096 H2112 0.931 . S
C2097 C2096 1.391 . S
C2097 C2101 1.376 . S
C2098 C2096 1.394 . S
C2098 C2099 1.369 . S
C2098 C2102 1.531 . S
C2099 C2098 1.369 . S
C2099 C2100 1.410 . S
C2099 C2107 1.503 . S
C2100 C2099 1.410 . S
C2100 C2101 1.392 . S
C2100 C2103 1.511 1_565 S
C2101 C2097 1.376 . S
C2101 C2100 1.392 . S
C2101 H2113 0.929 1_565 S
C2102 C2098 1.531 . S
C2102 H2114 0.960 . S
C2102 H2115 0.962 . S
C2102 H2116 0.960 . S
C2103 C2100 1.511 1_545 S
C2103 H2117 0.961 . S
C2103 H2118 0.961 . S
C2103 H2119 0.961 . S
C2104 C2105 1.370 . S
C2104 C2106 1.363 . S
C2104 H2120 0.925 1_565 S
C2105 C2104 1.370 . S
C2105 C2109 1.408 . S
C2106 C2104 1.363 . S
C2106 C2107 1.370 . S
C2106 C2110 1.529 . S
C2107 C2099 1.503 . S
C2107 C2106 1.370 . S
C2107 C2108 1.403 . S
C2108 C2107 1.403 . S
C2108 C2109 1.404 . S
C2108 C2111 1.539 . S
C2109 C2105 1.408 . S
C2109 C2108 1.404 . S
C2109 H2121 0.930 . S
C2110 C2106 1.529 . S
C2110 H2122 0.966 . S
C2110 H2123 0.953 1_565 S
C2110 H2124 0.954 1_565 S
C2111 C2108 1.539 . S
C2111 H2125 0.958 . S
C2111 H2126 0.961 . S
C2111 H2127 0.960 . S
H2112 C2096 0.931 . S
H2113 C2101 0.929 1_545 S
H2114 C2102 0.960 . S
H2115 C2102 0.962 . S
H2116 C2102 0.960 . S
H2117 C2103 0.961 . S
H2118 C2103 0.961 . S
H2119 C2103 0.961 . S
H2120 C2104 0.925 1_545 S
H2121 C2109 0.930 . S
H2122 C2110 0.966 . S
H2123 C2110 0.953 1_545 S
H2124 C2110 0.954 1_545 S
H2125 C2111 0.958 . S
H2126 C2111 0.961 . S
H2127 C2111 0.960 . S
C2128 C2129 1.391 . S
C2128 C2130 1.394 . S
C2128 H2144 0.931 . S
C2129 C2128 1.391 . S
C2129 C2133 1.376 . S
C2130 C2128 1.394 . S
C2130 C2131 1.369 . S
C2130 C2134 1.531 . S
C2131 C2130 1.369 . S
C2131 C2132 1.410 . S
C2131 C2139 1.503 . S
C2132 C2131 1.410 . S
C2132 C2133 1.392 . S
C2132 C2135 1.511 . S
C2133 C2129 1.376 . S
C2133 C2132 1.392 . S
C2133 H2145 0.929 . S
C2134 C2130 1.531 . S
C2134 H2146 0.960 . S
C2134 H2147 0.962 . S
C2134 H2148 0.960 . S
C2135 C2132 1.511 . S
C2135 H2149 0.961 . S
C2135 H2150 0.961 . S
C2135 H2151 0.961 . S
C2136 C2137 1.370 . S
C2136 C2138 1.363 . S
C2136 H2152 0.931 . S
C2137 C2136 1.370 . S
C2137 C2141 1.408 . S
C2138 C2136 1.363 . S
C2138 C2139 1.370 . S
C2138 C2142 1.524 . S
C2139 C2131 1.503 . S
C2139 C2138 1.370 . S
C2139 C2140 1.403 . S
C2140 C2139 1.403 . S
C2140 C2141 1.404 . S
C2140 C2143 1.539 . S
C2141 C2137 1.408 . S
C2141 C2140 1.404 . S
C2141 H2153 0.930 . S
C2142 C2138 1.524 . S
C2142 H2154 0.956 . S
C2142 H2155 0.961 . S
C2142 H2156 0.961 . S
C2143 C2140 1.539 . S
C2143 H2157 0.958 . S
C2143 H2158 0.961 . S
C2143 H2159 0.960 . S
H2144 C2128 0.931 . S
H2145 C2133 0.929 . S
H2146 C2134 0.960 . S
H2147 C2134 0.962 . S
H2148 C2134 0.960 . S
H2149 C2135 0.961 . S
H2150 C2135 0.961 . S
H2151 C2135 0.961 . S
H2152 C2136 0.931 . S
H2153 C2141 0.930 . S
H2154 C2142 0.956 . S
H2155 C2142 0.961 . S
H2156 C2142 0.961 . S
H2157 C2143 0.958 . S
H2158 C2143 0.961 . S
H2159 C2143 0.960 . S
C2160 C2161 1.391 . S
C2160 C2162 1.394 . S
C2160 H2176 0.931 . S
C2161 C2160 1.391 . S
C2161 C2165 1.376 . S
C2162 C2160 1.394 . S
C2162 C2163 1.369 . S
C2162 C2166 1.531 . S
C2163 C2162 1.369 . S
C2163 C2164 1.410 . S
C2163 C2171 1.503 . S
C2164 C2163 1.410 . S
C2164 C2165 1.392 . S
C2164 C2167 1.511 1_565 S
C2165 C2161 1.376 . S
C2165 C2164 1.392 . S
C2165 H2177 0.929 1_565 S
C2166 C2162 1.531 . S
C2166 H2178 0.960 . S
C2166 H2179 0.962 . S
C2166 H2180 0.960 . S
C2167 C2164 1.511 1_545 S
C2167 H2181 0.961 . S
C2167 H2182 0.961 . S
C2167 H2183 0.961 . S
C2168 C2169 1.370 . S
C2168 C2170 1.363 . S
C2168 H2184 0.931 . S
C2169 C2168 1.370 . S
C2169 C2173 1.408 . S
C2170 C2168 1.363 . S
C2170 C2171 1.370 . S
C2170 C2174 1.524 . S
C2171 C2163 1.503 . S
C2171 C2170 1.370 . S
C2171 C2172 1.403 . S
C2172 C2171 1.403 . S
C2172 C2173 1.404 . S
C2172 C2175 1.539 . S
C2173 C2169 1.408 . S
C2173 C2172 1.404 . S
C2173 H2185 0.930 . S
C2174 C2170 1.524 . S
C2174 H2186 0.956 . S
C2174 H2187 0.961 . S
C2174 H2188 0.961 . S
C2175 C2172 1.539 . S
C2175 H2189 0.958 . S
C2175 H2190 0.961 1_565 S
C2175 H2191 0.960 . S
H2176 C2160 0.931 . S
H2177 C2165 0.929 1_545 S
H2178 C2166 0.960 . S
H2179 C2166 0.962 . S
H2180 C2166 0.960 . S
H2181 C2167 0.961 . S
H2182 C2167 0.961 . S
H2183 C2167 0.961 . S
H2184 C2168 0.931 . S
H2185 C2173 0.930 . S
H2186 C2174 0.956 . S
H2187 C2174 0.961 . S
H2188 C2174 0.961 . S
H2189 C2175 0.958 . S
H2190 C2175 0.961 1_545 S
H2191 C2175 0.960 . S
C2192 C2193 1.391 . S
C2192 C2194 1.394 . S
C2192 H2208 0.931 . S
C2193 C2192 1.391 . S
C2193 C2197 1.376 . S
C2194 C2192 1.394 . S
C2194 C2195 1.369 . S
C2194 C2198 1.531 . S
C2195 C2194 1.369 . S
C2195 C2196 1.410 1_556 S
C2195 C2203 1.503 1_556 S
C2196 C2195 1.410 1_554 S
C2196 C2197 1.392 1_554 S
C2196 C2199 1.511 . S
C2197 C2193 1.376 . S
C2197 C2196 1.392 1_556 S
C2197 H2209 0.929 . S
C2198 C2194 1.531 . S
C2198 H2210 0.960 . S
C2198 H2211 0.962 . S
C2198 H2212 0.960 . S
C2199 C2196 1.511 . S
C2199 H2213 0.961 . S
C2199 H2214 0.961 . S
C2199 H2215 0.961 . S
C2200 C2201 1.370 . S
C2200 C2202 1.363 . S
C2200 H2216 0.931 . S
C2201 C2200 1.370 . S
C2201 C2205 1.408 . S
C2202 C2200 1.363 . S
C2202 C2203 1.370 . S
C2202 C2206 1.524 . S
C2203 C2195 1.503 1_554 S
C2203 C2202 1.370 . S
C2203 C2204 1.403 . S
C2204 C2203 1.403 . S
C2204 C2205 1.404 . S
C2204 C2207 1.539 1_554 S
C2205 C2201 1.408 . S
C2205 C2204 1.404 . S
C2205 H2217 0.930 . S
C2206 C2202 1.524 . S
C2206 H2218 0.956 . S
C2206 H2219 0.961 . S
C2206 H2220 0.961 . S
C2207 C2204 1.539 1_556 S
C2207 H2221 0.958 . S
C2207 H2222 0.961 . S
C2207 H2223 0.960 . S
H2208 C2192 0.931 . S
H2209 C2197 0.929 . S
H2210 C2198 0.960 . S
H2211 C2198 0.962 . S
H2212 C2198 0.960 . S
H2213 C2199 0.961 . S
H2214 C2199 0.961 . S
H2215 C2199 0.961 . S
H2216 C2200 0.931 . S
H2217 C2205 0.930 . S
H2218 C2206 0.956 . S
H2219 C2206 0.961 . S
H2220 C2206 0.961 . S
H2221 C2207 0.958 . S
H2222 C2207 0.961 . S
H2223 C2207 0.960 . S
C2224 C2225 1.391 . S
C2224 C2226 1.394 . S
C2224 H2240 0.931 . S
C2225 C2224 1.391 . S
C2225 C2229 1.376 . S
C2226 C2224 1.394 . S
C2226 C2227 1.369 . S
C2226 C2230 1.531 . S
C2227 C2226 1.369 . S
C2227 C2228 1.410 . S
C2227 C2235 1.503 . S
C2228 C2227 1.410 . S
C2228 C2229 1.392 . S
C2228 C2231 1.511 . S
C2229 C2225 1.376 . S
C2229 C2228 1.392 . S
C2229 H2241 0.929 . S
C2230 C2226 1.531 . S
C2230 H2242 0.960 . S
C2230 H2243 0.962 . S
C2230 H2244 0.960 . S
C2231 C2228 1.511 . S
C2231 H2245 0.961 . S
C2231 H2246 0.961 . S
C2231 H2247 0.961 . S
C2232 C2233 1.370 . S
C2232 C2234 1.363 . S
C2232 H2248 0.931 . S
C2233 C2232 1.370 . S
C2233 C2237 1.408 1_545 S
C2234 C2232 1.363 . S
C2234 C2235 1.370 . S
C2234 C2238 1.524 . S
C2235 C2227 1.503 . S
C2235 C2234 1.370 . S
C2235 C2236 1.403 1_545 S
C2236 C2235 1.403 1_565 S
C2236 C2237 1.404 . S
C2236 C2239 1.539 . S
C2237 C2233 1.408 1_565 S
C2237 C2236 1.404 . S
C2237 H2249 0.930 . S
C2238 C2234 1.524 . S
C2238 H2250 0.956 . S
C2238 H2251 0.961 . S
C2238 H2252 0.961 . S
C2239 C2236 1.539 . S
C2239 H2253 0.958 . S
C2239 H2254 0.961 . S
C2239 H2255 0.960 . S
H2240 C2224 0.931 . S
H2241 C2229 0.929 . S
H2242 C2230 0.960 . S
H2243 C2230 0.962 . S
H2244 C2230 0.960 . S
H2245 C2231 0.961 . S
H2246 C2231 0.961 . S
H2247 C2231 0.961 . S
H2248 C2232 0.931 . S
H2249 C2237 0.930 . S
H2250 C2238 0.956 . S
H2251 C2238 0.961 . S
H2252 C2238 0.961 . S
H2253 C2239 0.958 . S
H2254 C2239 0.961 . S
H2255 C2239 0.960 . S
C465 C269 1.033 . S
C473 C3 1.040 . S
C497 C298 1.085 . S
C505 C32 1.034 . S
C529 C327 1.006 . S
C537 C61 1.070 . S
C561 C240 0.974 . S
C569 C90 1.064 . S
C593 C119 1.037 . S
C601 C385 1.031 . S
C625 C414 1.040 . S
C633 C148 1.043 . S
C657 C443 1.071 . S
C665 C177 1.044 . S
C689 C206 1.015 . S
C697 C356 1.054 . S
C721 C37 1.010 . S
C729 C235 1.070 . S
C753 C66 0.971 . S
C761 C264 1.070 . S
C785 C293 1.005 . S
C793 C95 1.054 . S
C817 C8 1.070 . S
C825 C322 1.051 . S
C849 C153 1.063 . S
C857 C351 1.047 . S
C881 C380 1.002 . S
C889 C182 1.055 . S
C913 C409 1.019 . S
C921 C211 1.041 . S
C945 C124 1.024 . S
C953 C438 1.061 . S
C977 C213 2.276 . S
C985 C15 2.321 . S
C1009 C44 2.313 . S
C1017 C358 2.273 . S
C1041 C73 2.321 . S
C1049 C155 2.257 . S
C1073 C416 2.241 . S
C1081 C102 2.329 . S
C1105 C97 2.245 . S
C1113 C131 2.329 . S
C1137 C242 2.245 . S
C1145 C160 2.329 . S
C1169 C39 2.279 . S
C1177 C189 2.322 . S
C1201 C300 2.280 . S
C1209 C218 2.323 . S
C1233 C247 2.317 . S
C1241 C445 2.260 . S
C1265 C276 2.328 . S
C1273 C126 2.263 . S
C1297 C387 2.238 . S
C1305 C305 2.329 . S
C1329 C184 2.248 . S
C1337 C334 2.329 . S
C1361 C363 2.329 . S
C1369 C329 2.257 . S
C1393 C392 2.335 . S
C1401 C10 2.270 . S
C1425 C421 2.330 . S
C1433 C271 2.259 . S
C1457 C450 2.330 . S
C1465 C68 2.261 . S
C1489 C121 2.397 . S
C1497 C5 2.433 . S
C1521 C34 2.437 . S
C1529 C382 2.417 . S
C1553 C179 2.440 . S
C1561 C63 2.415 . S
C1585 C440 2.439 . S
C1593 C92 2.415 . S
C1617 C266 2.411 . S
C1625 C150 2.425 . S
C1649 C208 2.429 . S
C1657 C324 2.421 . S
C1681 C237 2.436 . S
C1689 C353 2.417 . S
C1713 C295 2.410 . S
C1721 C411 2.428 . S
C1745 C419 1.245 . S
C1753 C21 1.204 . S
C1777 C216 1.287 . S
C1785 C50 1.218 . S
C1809 C79 1.192 . S
C1817 C361 1.241 . S
C1841 C158 1.306 . S
C1849 C108 1.239 . S
C1873 C137 1.277 . S
C1881 C303 1.261 . S
C1905 C166 1.220 . S
C1913 C100 1.242 . S
C1937 C195 1.171 . S
C1945 C245 1.251 . S
C1969 C42 1.290 . S
C1977 C224 1.213 . S
C2001 C253 1.210 . S
C2009 C187 1.275 . S
C2033 C448 1.236 . S
C2041 C282 1.203 . S
C2065 C311 1.235 . S
C2073 C129 1.247 . S
C2097 C340 1.278 . S
C2105 C390 1.275 . S
C2129 C71 1.216 . S
C2137 C369 1.212 . S
C2161 C398 1.173 . S
C2169 C332 1.249 . S
C2193 C427 1.278 . S
C2201 C13 1.264 . S
C2225 C456 1.192 . S
C2233 C274 1.275 . S
