# Generated by pormake.
# Topology ukj, (4)-cn, num edge types: 1
# Building blocks:
#     Node 0, Type 0, BuildingBlock: CEKHIL_clean_sbu_0, # of connection points: 4
#     Node 1, Type 0, BuildingBlock: CEKHIL_clean_sbu_0, # of connection points: 4
#     Node 2, Type 0, BuildingBlock: CEKHIL_clean_sbu_0, # of connection points: 4
#     Node 3, Type 0, BuildingBlock: CEKHIL_clean_sbu_0, # of connection points: 4
#     Node 4, Type 0, BuildingBlock: CEKHIL_clean_sbu_0, # of connection points: 4
#     Node 5, Type 0, BuildingBlock: CEKHIL_clean_sbu_0, # of connection points: 4
#     Node 6, Type 0, BuildingBlock: CEKHIL_clean_sbu_0, # of connection points: 4
#     Node 7, Type 0, BuildingBlock: CEKHIL_clean_sbu_0, # of connection points: 4
#     Node 8, Type 0, BuildingBlock: CEKHIL_clean_sbu_0, # of connection points: 4
#     Node 9, Type 0, BuildingBlock: CEKHIL_clean_sbu_0, # of connection points: 4
#     Node 10, Type 0, BuildingBlock: CEKHIL_clean_sbu_0, # of connection points: 4
#     Node 11, Type 0, BuildingBlock: CEKHIL_clean_sbu_0, # of connection points: 4
#     Node 12, Type 0, BuildingBlock: CEKHIL_clean_sbu_0, # of connection points: 4
#     Node 13, Type 0, BuildingBlock: CEKHIL_clean_sbu_0, # of connection points: 4
#     Node 14, Type 0, BuildingBlock: CEKHIL_clean_sbu_0, # of connection points: 4
#     Node 15, Type 0, BuildingBlock: CEKHIL_clean_sbu_0, # of connection points: 4
#     Node 16, Type 0, BuildingBlock: CEKHIL_clean_sbu_0, # of connection points: 4
#     Node 17, Type 0, BuildingBlock: CEKHIL_clean_sbu_0, # of connection points: 4
#     Node 18, Type 0, BuildingBlock: CEKHIL_clean_sbu_0, # of connection points: 4
#     Node 19, Type 0, BuildingBlock: CEKHIL_clean_sbu_0, # of connection points: 4
#     Node 20, Type 0, BuildingBlock: CEKHIL_clean_sbu_0, # of connection points: 4
#     Node 21, Type 0, BuildingBlock: CEKHIL_clean_sbu_0, # of connection points: 4
#     Node 22, Type 0, BuildingBlock: CEKHIL_clean_sbu_0, # of connection points: 4
#     Node 23, Type 0, BuildingBlock: CEKHIL_clean_sbu_0, # of connection points: 4
#     Node 24, Type 0, BuildingBlock: CEKHIL_clean_sbu_0, # of connection points: 4
#     Node 25, Type 0, BuildingBlock: CEKHIL_clean_sbu_0, # of connection points: 4
#     Node 26, Type 0, BuildingBlock: CEKHIL_clean_sbu_0, # of connection points: 4
#     Node 27, Type 0, BuildingBlock: CEKHIL_clean_sbu_0, # of connection points: 4
#     Node 28, Type 0, BuildingBlock: CEKHIL_clean_sbu_0, # of connection points: 4
#     Node 29, Type 0, BuildingBlock: CEKHIL_clean_sbu_0, # of connection points: 4
#     Node 30, Type 0, BuildingBlock: CEKHIL_clean_sbu_0, # of connection points: 4
#     Node 31, Type 0, BuildingBlock: CEKHIL_clean_sbu_0, # of connection points: 4
#     Edge 32, Type (0, 0), BuildingBlock: XIVTED_clean_linker_0, # of connection points: 2
#     Edge 33, Type (0, 0), BuildingBlock: XIVTED_clean_linker_0, # of connection points: 2
#     Edge 34, Type (0, 0), BuildingBlock: XIVTED_clean_linker_0, # of connection points: 2
#     Edge 35, Type (0, 0), BuildingBlock: XIVTED_clean_linker_0, # of connection points: 2
#     Edge 36, Type (0, 0), BuildingBlock: XIVTED_clean_linker_0, # of connection points: 2
#     Edge 37, Type (0, 0), BuildingBlock: XIVTED_clean_linker_0, # of connection points: 2
#     Edge 38, Type (0, 0), BuildingBlock: XIVTED_clean_linker_0, # of connection points: 2
#     Edge 39, Type (0, 0), BuildingBlock: XIVTED_clean_linker_0, # of connection points: 2
#     Edge 40, Type (0, 0), BuildingBlock: XIVTED_clean_linker_0, # of connection points: 2
#     Edge 41, Type (0, 0), BuildingBlock: XIVTED_clean_linker_0, # of connection points: 2
#     Edge 42, Type (0, 0), BuildingBlock: XIVTED_clean_linker_0, # of connection points: 2
#     Edge 43, Type (0, 0), BuildingBlock: XIVTED_clean_linker_0, # of connection points: 2
#     Edge 44, Type (0, 0), BuildingBlock: XIVTED_clean_linker_0, # of connection points: 2
#     Edge 45, Type (0, 0), BuildingBlock: XIVTED_clean_linker_0, # of connection points: 2
#     Edge 46, Type (0, 0), BuildingBlock: XIVTED_clean_linker_0, # of connection points: 2
#     Edge 47, Type (0, 0), BuildingBlock: XIVTED_clean_linker_0, # of connection points: 2
#     Edge 48, Type (0, 0), BuildingBlock: XIVTED_clean_linker_0, # of connection points: 2
#     Edge 49, Type (0, 0), BuildingBlock: XIVTED_clean_linker_0, # of connection points: 2
#     Edge 50, Type (0, 0), BuildingBlock: XIVTED_clean_linker_0, # of connection points: 2
#     Edge 51, Type (0, 0), BuildingBlock: XIVTED_clean_linker_0, # of connection points: 2
#     Edge 52, Type (0, 0), BuildingBlock: XIVTED_clean_linker_0, # of connection points: 2
#     Edge 53, Type (0, 0), BuildingBlock: XIVTED_clean_linker_0, # of connection points: 2
#     Edge 54, Type (0, 0), BuildingBlock: XIVTED_clean_linker_0, # of connection points: 2
#     Edge 55, Type (0, 0), BuildingBlock: XIVTED_clean_linker_0, # of connection points: 2
#     Edge 56, Type (0, 0), BuildingBlock: XIVTED_clean_linker_0, # of connection points: 2
#     Edge 57, Type (0, 0), BuildingBlock: XIVTED_clean_linker_0, # of connection points: 2
#     Edge 58, Type (0, 0), BuildingBlock: XIVTED_clean_linker_0, # of connection points: 2
#     Edge 59, Type (0, 0), BuildingBlock: XIVTED_clean_linker_0, # of connection points: 2
#     Edge 60, Type (0, 0), BuildingBlock: XIVTED_clean_linker_0, # of connection points: 2
#     Edge 61, Type (0, 0), BuildingBlock: XIVTED_clean_linker_0, # of connection points: 2
#     Edge 62, Type (0, 0), BuildingBlock: XIVTED_clean_linker_0, # of connection points: 2
#     Edge 63, Type (0, 0), BuildingBlock: XIVTED_clean_linker_0, # of connection points: 2
#     Edge 64, Type (0, 0), BuildingBlock: XIVTED_clean_linker_0, # of connection points: 2
#     Edge 65, Type (0, 0), BuildingBlock: XIVTED_clean_linker_0, # of connection points: 2
#     Edge 66, Type (0, 0), BuildingBlock: XIVTED_clean_linker_0, # of connection points: 2
#     Edge 67, Type (0, 0), BuildingBlock: XIVTED_clean_linker_0, # of connection points: 2
#     Edge 68, Type (0, 0), BuildingBlock: XIVTED_clean_linker_0, # of connection points: 2
#     Edge 69, Type (0, 0), BuildingBlock: XIVTED_clean_linker_0, # of connection points: 2
#     Edge 70, Type (0, 0), BuildingBlock: XIVTED_clean_linker_0, # of connection points: 2
#     Edge 71, Type (0, 0), BuildingBlock: XIVTED_clean_linker_0, # of connection points: 2
#     Edge 72, Type (0, 0), BuildingBlock: XIVTED_clean_linker_0, # of connection points: 2
#     Edge 73, Type (0, 0), BuildingBlock: XIVTED_clean_linker_0, # of connection points: 2
#     Edge 74, Type (0, 0), BuildingBlock: XIVTED_clean_linker_0, # of connection points: 2
#     Edge 75, Type (0, 0), BuildingBlock: XIVTED_clean_linker_0, # of connection points: 2
#     Edge 76, Type (0, 0), BuildingBlock: XIVTED_clean_linker_0, # of connection points: 2
#     Edge 77, Type (0, 0), BuildingBlock: XIVTED_clean_linker_0, # of connection points: 2
#     Edge 78, Type (0, 0), BuildingBlock: XIVTED_clean_linker_0, # of connection points: 2
#     Edge 79, Type (0, 0), BuildingBlock: XIVTED_clean_linker_0, # of connection points: 2
#     Edge 80, Type (0, 0), BuildingBlock: XIVTED_clean_linker_0, # of connection points: 2
#     Edge 81, Type (0, 0), BuildingBlock: XIVTED_clean_linker_0, # of connection points: 2
#     Edge 82, Type (0, 0), BuildingBlock: XIVTED_clean_linker_0, # of connection points: 2
#     Edge 83, Type (0, 0), BuildingBlock: XIVTED_clean_linker_0, # of connection points: 2
#     Edge 84, Type (0, 0), BuildingBlock: XIVTED_clean_linker_0, # of connection points: 2
#     Edge 85, Type (0, 0), BuildingBlock: XIVTED_clean_linker_0, # of connection points: 2
#     Edge 86, Type (0, 0), BuildingBlock: XIVTED_clean_linker_0, # of connection points: 2
#     Edge 87, Type (0, 0), BuildingBlock: XIVTED_clean_linker_0, # of connection points: 2
#     Edge 88, Type (0, 0), BuildingBlock: XIVTED_clean_linker_0, # of connection points: 2
#     Edge 89, Type (0, 0), BuildingBlock: XIVTED_clean_linker_0, # of connection points: 2
#     Edge 90, Type (0, 0), BuildingBlock: XIVTED_clean_linker_0, # of connection points: 2
#     Edge 91, Type (0, 0), BuildingBlock: XIVTED_clean_linker_0, # of connection points: 2
#     Edge 92, Type (0, 0), BuildingBlock: XIVTED_clean_linker_0, # of connection points: 2
#     Edge 93, Type (0, 0), BuildingBlock: XIVTED_clean_linker_0, # of connection points: 2
#     Edge 94, Type (0, 0), BuildingBlock: XIVTED_clean_linker_0, # of connection points: 2
#     Edge 95, Type (0, 0), BuildingBlock: XIVTED_clean_linker_0, # of connection points: 2
# Relax obj value: 0.080
# Max RMSD: 0.174
# Mean RMSD: 0.173
data_MOF--net-ukj--node1-CEKHIL_clean_sbu_0--edge1-XIVTED_clean_linker_0
_symmetry_space_group_name_H-M    P1
_symmetry_Int_Tables_number       1
_symmetry_cell_setting            triclinic
loop_
_symmetry_equiv_pos_as_xyz
'x, y, z'
_cell_length_a     31.147563
_cell_length_b     63.779835
_cell_length_c     56.390086
_cell_angle_alpha  89.999586
_cell_angle_beta   90.005368
_cell_angle_gamma 90.027883
loop_
_atom_site_label
_atom_site_type_symbol
_atom_site_fract_x
_atom_site_fract_y
_atom_site_fract_z
_atom_type_partial_charge
Co0 Co 0.1343 0.34247 0.24396 0.0
O1 O 0.07873 0.32981 0.24363 0.0
O2 O 0.13744 0.31414 0.23071 0.0
C3 C 0.12991 0.35318 0.28153 0.0
O4 O 0.19742 0.35207 0.24284 0.0
Co5 Co 0.13544 0.39074 0.2505 0.0
O6 O 0.19779 0.38605 0.25405 0.0
C7 C 0.11781 0.37334 0.20341 0.0
C8 C 0.09633 0.31313 0.23511 0.0
C9 C 0.21733 0.36927 0.24819 0.0
O10 O 0.12369 0.35489 0.21192 0.0
O11 O 0.11867 0.38998 0.21609 0.0
O12 O 0.14211 0.33429 0.27655 0.0
O13 O 0.11652 0.36435 0.26383 0.0
Co14 Co 0.13067 0.90353 0.24046 0.0
O15 O 0.18629 0.9162 0.24124 0.0
O16 O 0.1281 0.93203 0.2278 0.0
C17 C 0.13217 0.8919 0.27748 0.0
O18 O 0.06753 0.89423 0.23826 0.0
Co19 Co 0.1279 0.8551 0.24586 0.0
O20 O 0.0656 0.86022 0.24924 0.0
C21 C 0.14773 0.87329 0.19943 0.0
C22 C 0.16899 0.93299 0.23277 0.0
C23 C 0.04683 0.87723 0.24344 0.0
O24 O 0.14259 0.89166 0.2083 0.0
O25 O 0.14565 0.85644 0.21169 0.0
O26 O 0.12087 0.91104 0.27304 0.0
O27 O 0.14723 0.88112 0.25992 0.0
Co28 Co 0.13144 0.90757 0.98566 0.0
O29 O 0.07548 0.91979 0.98574 0.0
O30 O 0.13313 0.93535 0.00029 0.0
C31 C 0.1294 0.89803 0.9477 0.0
O32 O 0.19474 0.89845 0.98741 0.0
Co33 Co 0.13481 0.85946 0.97684 0.0
O34 O 0.19704 0.86505 0.97424 0.0
C35 C 0.11475 0.87508 0.02447 0.0
C36 C 0.09222 0.93624 -0.00467 0.0
C37 C 0.21562 0.88172 0.98139 0.0
O38 O 0.11984 0.8939 0.01689 0.0
O39 O 0.11698 0.85892 0.01107 0.0
O40 O 0.14045 0.91693 0.95354 0.0
O41 O 0.11562 0.88622 0.96473 0.0
Co42 Co 0.11869 0.34346 0.98725 0.0
O43 O 0.17488 0.33144 0.98662 0.0
O44 O 0.11765 0.31532 0.00091 0.0
C45 C 0.11971 0.354 0.94953 0.0
O46 O 0.05524 0.35214 -0.0104 0.0
Co47 Co 0.11394 0.39165 0.98032 0.0
O48 O 0.05178 0.38587 0.97772 0.0
C49 C 0.13566 0.37491 0.0272 0.0
C50 C 0.15848 0.31469 -0.00427 0.0
C51 C 0.03379 0.36887 0.98426 0.0
O52 O 0.13067 0.35631 0.01893 0.0
O53 O 0.13276 0.39143 0.01442 0.0
O54 O 0.10916 0.33494 0.95491 0.0
O55 O 0.13372 0.36547 0.96684 0.0
Co56 Co 0.87833 0.6596 0.73804 0.0
O57 O 0.9336 0.67212 0.74198 0.0
O58 O 0.87262 0.6877 0.75143 0.0
C59 C 0.88978 0.64954 0.7007 0.0
O60 O 0.81527 0.65023 0.73527 0.0
Co61 Co 0.87739 0.6114 0.73012 0.0
O62 O 0.81656 0.61679 0.72223 0.0
C63 C 0.88515 0.62788 0.77857 0.0
C64 C 0.91431 0.6888 0.74934 0.0
C65 C 0.7962 0.63342 0.7278 0.0
O66 O 0.88209 0.64657 0.77024 0.0
O67 O 0.88656 0.61151 0.76544 0.0
O68 O 0.87727 0.66843 0.70541 0.0
O69 O 0.89936 0.63793 0.71879 0.0
Co70 Co 0.89468 0.09096 0.73749 0.0
O71 O 0.83841 0.07904 0.73736 0.0
O72 O 0.8956 0.06278 0.75131 0.0
C73 C 0.89277 0.10128 0.69968 0.0
O74 O 0.9582 0.09986 0.7392 0.0
Co75 Co 0.89747 0.13924 0.73035 0.0
O76 O 0.95996 0.13414 0.72899 0.0
C77 C 0.87808 0.12251 0.77749 0.0
C78 C 0.85461 0.06227 0.74645 0.0
C79 C 0.97869 0.11711 0.73472 0.0
O80 O 0.88366 0.10394 0.76925 0.0
O81 O 0.87943 0.13899 0.76455 0.0
O82 O 0.90338 0.08225 0.70511 0.0
O83 O 0.87901 0.11278 0.71701 0.0
Co84 Co 0.86722 0.09316 -0.00654 0.0
O85 O 0.92303 0.08084 -0.0049 0.0
O86 O 0.86644 0.06506 0.97961 0.0
C87 C 0.86626 0.10356 0.03122 0.0
O88 O 0.80413 0.10226 -0.00996 0.0
Co89 Co 0.86361 0.14131 0.00025 0.0
O90 O 0.80119 0.13605 0.00177 0.0
C91 C 0.8878 0.12449 0.95387 0.0
C92 C 0.90695 0.06423 0.98549 0.0
C93 C 0.78298 0.11917 -0.00498 0.0
O94 O 0.88158 0.10596 0.96206 0.0
O95 O 0.88444 0.14107 0.96652 0.0
O96 O 0.85549 0.08459 0.02555 0.0
O97 O 0.88166 0.115 0.01424 0.0
Co98 Co 0.87978 0.65633 -0.00741 0.0
O99 O 0.82407 0.66878 -0.0058 0.0
O100 O 0.88057 0.68419 0.97814 0.0
C101 C 0.88143 0.64653 0.03052 0.0
O102 O 0.94278 0.64704 0.98909 0.0
Co103 Co 0.88316 0.60821 0.00049 0.0
O104 O 0.94557 0.61355 0.00189 0.0
C105 C 0.85832 0.6243 0.95387 0.0
C106 C 0.84016 0.68519 0.98418 0.0
C107 C 0.96386 0.63022 -0.00543 0.0
O108 O 0.86478 0.64298 0.96156 0.0
O109 O 0.86191 0.60794 0.96684 0.0
O110 O 0.89202 0.66543 0.02445 0.0
O111 O 0.86569 0.63485 0.01385 0.0
Co112 Co 0.12912 0.84743 0.73985 0.0
O113 O 0.07334 0.83496 0.73946 0.0
O114 O 0.13172 0.81947 0.72573 0.0
C115 C 0.12605 0.85727 0.77769 0.0
O116 O 0.19236 0.85683 0.73857 0.0
Co117 Co 0.13151 0.89561 0.74808 0.0
O118 O 0.19359 0.8902 0.75186 0.0
C119 C 0.11295 0.87944 0.7005 0.0
C120 C 0.09071 0.81844 0.73038 0.0
C121 C 0.21275 0.87363 0.74493 0.0
O122 O 0.11808 0.86072 0.70836 0.0
O123 O 0.11477 0.89576 0.71367 0.0
O124 O 0.13745 0.83838 0.77208 0.0
O125 O 0.1124 0.86892 0.76047 0.0
Co126 Co 0.13483 0.4052 0.7417 0.0
O127 O 0.19144 0.41681 0.74277 0.0
O128 O 0.13535 0.43302 0.72727 0.0
C129 C 0.13355 0.39537 0.77963 0.0
O130 O 0.07111 0.39701 0.73871 0.0
Co131 Co 0.12782 0.35717 0.74967 0.0
O132 O 0.06584 0.36359 0.75149 0.0
C133 C 0.15227 0.37282 0.70275 0.0
C134 C 0.17598 0.43346 0.73294 0.0
C135 C 0.04877 0.3806 0.74428 0.0
O136 O 0.14777 0.39162 0.71054 0.0
O137 O 0.14783 0.35654 0.71579 0.0
O138 O 0.12424 0.41446 0.77368 0.0
O139 O 0.14793 0.38345 0.76281 0.0
Co140 Co 0.12922 0.40962 0.48705 0.0
O141 O 0.07358 0.4218 0.49046 0.0
O142 O 0.13376 0.43775 0.50065 0.0
C143 C 0.11923 0.39954 0.44961 0.0
O144 O 0.19254 0.40042 0.48484 0.0
Co145 Co 0.13056 0.36141 0.47926 0.0
O146 O 0.19127 0.3671 0.47137 0.0
C147 C 0.12117 0.37789 0.52755 0.0
C148 C 0.09209 0.43854 0.49823 0.0
C149 C 0.21164 0.38367 0.47719 0.0
O150 O 0.12451 0.39654 0.51918 0.0
O151 O 0.12036 0.36147 0.51449 0.0
O152 O 0.13125 0.4185 0.45444 0.0
O153 O 0.10914 0.38792 0.4676 0.0
Co154 Co 0.12681 0.85015 0.48575 0.0
O155 O 0.18186 0.83695 0.48481 0.0
O156 O 0.12358 0.822 0.49938 0.0
C157 C 0.12759 0.86078 0.44834 0.0
O158 O 0.06416 0.86013 0.48831 0.0
Co159 Co 0.12593 0.89839 0.47882 0.0
O160 O 0.06332 0.89382 0.47614 0.0
C161 C 0.14631 0.88125 0.52565 0.0
C162 C 0.16425 0.82054 0.49401 0.0
C163 C 0.04401 0.87718 0.48273 0.0
O164 O 0.14032 0.86271 0.51738 0.0
O165 O 0.14446 0.89781 0.51289 0.0
O166 O 0.11553 0.8419 0.45354 0.0
O167 O 0.14371 0.87186 0.46537 0.0
Co168 Co 0.87195 0.15665 0.23859 0.0
O169 O 0.92814 0.1687 0.23903 0.0
O170 O 0.87038 0.18452 0.25303 0.0
C171 C 0.87431 0.14706 0.20058 0.0
O172 O 0.80844 0.14772 0.23982 0.0
Co173 Co 0.8689 0.10854 0.23031 0.0
O174 O 0.80658 0.1139 0.22797 0.0
C175 C 0.88712 0.12437 0.27801 0.0
C176 C 0.91141 0.18528 0.24833 0.0
C177 C 0.78783 0.13074 0.23436 0.0
O178 O 0.88246 0.14311 0.27008 0.0
O179 O 0.88545 0.1081 0.26476 0.0
O180 O 0.86377 0.166 0.20644 0.0
O181 O 0.88786 0.13519 0.21766 0.0
Co182 Co 0.8859 0.59551 0.23845 0.0
O183 O 0.82973 0.5835 0.2367 0.0
O184 O 0.88589 0.56734 0.25211 0.0
C185 C 0.88741 0.60603 0.20075 0.0
O186 O 0.94923 0.60424 0.24196 0.0
Co187 Co 0.8908 0.64371 0.23174 0.0
O188 O 0.95307 0.63803 0.23027 0.0
C189 C 0.8659 0.6269 0.27804 0.0
C190 C 0.8454 0.56674 0.24615 0.0
C191 C 0.97083 0.62104 0.23701 0.0
O192 O 0.87175 0.60832 0.26988 0.0
O193 O 0.86966 0.64346 0.2654 0.0
O194 O 0.89754 0.58697 0.20635 0.0
O195 O 0.87219 0.61751 0.21774 0.0
Co196 Co 0.86619 0.59411 0.49483 0.0
O197 O 0.92206 0.58185 0.49336 0.0
O198 O 0.86302 0.56584 0.48142 0.0
C199 C 0.87265 0.60453 0.53245 0.0
O200 O 0.80279 0.60328 0.49489 0.0
Co201 Co 0.86425 0.64227 0.5019 0.0
O202 O 0.80222 0.63717 0.50642 0.0
C203 C 0.87945 0.62539 0.45431 0.0
C204 C 0.90439 0.56509 0.48507 0.0
C205 C 0.78275 0.62032 0.5007 0.0
O206 O 0.87449 0.60684 0.46273 0.0
O207 O 0.87918 0.6419 0.46722 0.0
O208 O 0.86052 0.58562 0.52746 0.0
O209 O 0.88467 0.61593 0.51463 0.0
Co210 Co 0.87775 0.1555 0.49281 0.0
O211 O 0.82117 0.16712 0.49331 0.0
O212 O 0.87768 0.18333 0.47831 0.0
C213 C 0.87785 0.14578 0.53078 0.0
O214 O 0.94149 0.14712 0.4905 0.0
Co215 Co 0.8834 0.10744 0.50084 0.0
O216 O 0.94541 0.1136 0.50314 0.0
C217 C 0.86135 0.12316 0.45361 0.0
C218 C 0.83687 0.18376 0.48358 0.0
C219 C 0.96317 0.13053 0.49618 0.0
O220 O 0.86574 0.14192 0.46152 0.0
O221 O 0.86497 0.10685 0.46668 0.0
O222 O 0.88741 0.16484 0.52485 0.0
O223 O 0.86377 0.13384 0.51389 0.0
Co224 Co 0.64146 0.34898 0.74025 0.0
O225 O 0.58569 0.3367 0.74333 0.0
O226 O 0.64184 0.32011 0.72853 0.0
C227 C 0.64398 0.36173 0.77685 0.0
O228 O 0.70449 0.35775 0.73566 0.0
Co229 Co 0.64615 0.39741 0.74359 0.0
O230 O 0.70856 0.39201 0.74534 0.0
C231 C 0.61942 0.37808 0.6989 0.0
C232 C 0.60147 0.3196 0.73475 0.0
C233 C 0.72622 0.3747 0.73964 0.0
O234 O 0.62605 0.35996 0.70811 0.0
O235 O 0.62322 0.39524 0.71046 0.0
O236 O 0.65464 0.34243 0.77276 0.0
O237 O 0.62741 0.37204 0.75935 0.0
Co238 Co 0.62007 0.90823 0.74287 0.0
O239 O 0.67644 0.91991 0.74524 0.0
O240 O 0.62133 0.93644 0.72924 0.0
C241 C 0.61697 0.89752 0.78046 0.0
O242 O 0.55669 0.89973 0.7387 0.0
Co243 Co 0.61472 0.8599 0.74934 0.0
O244 O 0.55243 0.86564 0.74937 0.0
C245 C 0.64108 0.87687 0.70338 0.0
C246 C 0.66166 0.93675 0.73555 0.0
C247 C 0.53499 0.88278 0.74283 0.0
O248 O 0.63498 0.89542 0.71154 0.0
O249 O 0.63702 0.86027 0.71593 0.0
O250 O 0.60755 0.9167 0.77494 0.0
O251 O 0.63258 0.88612 0.76354 0.0
Co252 Co 0.63684 0.911 0.48695 0.0
O253 O 0.58059 0.92292 0.48796 0.0
O254 O 0.63895 0.93926 0.50036 0.0
C255 C 0.63207 0.90027 0.44939 0.0
O256 O 0.70048 0.9023 0.48742 0.0
Co257 Co 0.6405 0.86264 0.47991 0.0
O258 O 0.70238 0.86845 0.47575 0.0
C259 C 0.62417 0.87961 0.52742 0.0
C260 C 0.59767 0.93979 0.49636 0.0
C261 C 0.72118 0.88542 0.48169 0.0
O262 O 0.62837 0.89823 0.51903 0.0
O263 O 0.62517 0.86311 0.51452 0.0
O264 O 0.64289 0.9194 0.45425 0.0
O265 O 0.61996 0.88892 0.46719 0.0
Co266 Co 0.61592 0.34166 0.48229 0.0
O267 O 0.67139 0.329 0.48359 0.0
O268 O 0.61199 0.31336 0.49561 0.0
C269 C 0.62245 0.3524 0.44482 0.0
O270 O 0.55288 0.35142 0.48246 0.0
Co271 Co 0.61609 0.39012 0.47531 0.0
O272 O 0.55356 0.38567 0.47216 0.0
C273 C 0.63111 0.3727 0.52274 0.0
C274 C 0.65334 0.31236 0.49195 0.0
C275 C 0.53356 0.36888 0.47753 0.0
O276 O 0.62479 0.35421 0.51442 0.0
O277 O 0.63193 0.38919 0.50981 0.0
O278 O 0.60996 0.33346 0.44949 0.0
O279 O 0.63477 0.36347 0.46279 0.0
Co280 Co 0.37797 0.65568 0.238 0.0
O281 O 0.43413 0.6677 0.23646 0.0
O282 O 0.37784 0.68373 0.25195 0.0
C283 C 0.37646 0.6453 0.20027 0.0
O284 O 0.31463 0.64692 0.24136 0.0
Co285 Co 0.37307 0.60745 0.23098 0.0
O286 O 0.31085 0.61323 0.22929 0.0
C287 C 0.39734 0.62408 0.27748 0.0
C288 C 0.41839 0.68436 0.24613 0.0
C289 C 0.29305 0.63017 0.23618 0.0
O290 O 0.39189 0.64269 0.26935 0.0
O291 O 0.39345 0.60755 0.2648 0.0
O292 O 0.36657 0.66439 0.20591 0.0
O293 O 0.39161 0.63376 0.21722 0.0
Co294 Co 0.3825 0.09318 0.23551 0.0
O295 O 0.32697 0.08045 0.23634 0.0
O296 O 0.38597 0.06519 0.24952 0.0
C297 C 0.37801 0.10322 0.19773 0.0
O298 O 0.44559 0.10284 0.2363 0.0
Co299 Co 0.3838 0.14139 0.22767 0.0
O300 O 0.44592 0.13634 0.22344 0.0
C301 C 0.36675 0.12491 0.27528 0.0
C302 C 0.34483 0.064 0.24527 0.0
C303 C 0.46553 0.11979 0.23001 0.0
O304 O 0.37223 0.10627 0.26722 0.0
O305 O 0.36762 0.14129 0.26218 0.0
O306 O 0.38997 0.08436 0.2031 0.0
O307 O 0.36477 0.11471 0.21518 0.0
Co308 Co 0.37044 0.09586 0.492 0.0
O309 O 0.42659 0.08378 0.49249 0.0
O310 O 0.36902 0.06741 0.47907 0.0
C311 C 0.37286 0.10715 0.5294 0.0
O312 O 0.30694 0.10465 0.48998 0.0
Co313 Co 0.36629 0.1442 0.49782 0.0
O314 O 0.30415 0.13863 0.50101 0.0
C315 C 0.3872 0.12651 0.45129 0.0
C316 C 0.41 0.06685 0.48393 0.0
C317 C 0.2858 0.12155 0.49507 0.0
O318 O 0.38177 0.10807 0.45992 0.0
O319 O 0.38484 0.14326 0.46372 0.0
O320 O 0.3618 0.08802 0.52464 0.0
O321 O 0.38632 0.11822 0.51165 0.0
Co322 Co 0.37766 0.66053 0.4931 0.0
O323 O 0.32225 0.67319 0.49034 0.0
O324 O 0.38266 0.68863 0.47956 0.0
C325 C 0.36858 0.65026 0.53058 0.0
O326 O 0.44083 0.65109 0.49453 0.0
Co327 Co 0.37888 0.61226 0.50091 0.0
O328 O 0.44054 0.61743 0.50685 0.0
C329 C 0.3678 0.62887 0.45271 0.0
C330 C 0.34114 0.68981 0.48247 0.0
C331 C 0.46044 0.63415 0.50111 0.0
O332 O 0.37164 0.64756 0.46094 0.0
O333 O 0.36711 0.61251 0.46586 0.0
O334 O 0.38093 0.66919 0.52581 0.0
O335 O 0.3578 0.63882 0.51258 0.0
Co336 Co 0.63958 0.84237 0.24371 0.0
O337 O 0.58333 0.83038 0.24321 0.0
O338 O 0.6415 0.81404 0.23056 0.0
C339 C 0.63556 0.85342 0.28117 0.0
O340 O 0.7032 0.85102 0.2427 0.0
Co341 Co 0.64412 0.8907 0.25014 0.0
O342 O 0.70592 0.8848 0.25447 0.0
C343 C 0.62581 0.87339 0.20302 0.0
C344 C 0.60031 0.81349 0.2348 0.0
C345 C 0.72432 0.86777 0.24844 0.0
O346 O 0.63017 0.85485 0.21158 0.0
O347 O 0.62769 0.89002 0.21568 0.0
O348 O 0.64641 0.83427 0.27643 0.0
O349 O 0.62313 0.86464 0.26332 0.0
Co350 Co 0.62237 0.41028 0.23983 0.0
O351 O 0.67811 0.42256 0.23721 0.0
O352 O 0.61821 0.43863 0.22682 0.0
C353 C 0.63134 0.39948 0.27709 0.0
O354 O 0.55901 0.40109 0.24122 0.0
Co355 Co 0.6205 0.36186 0.24691 0.0
O356 O 0.55918 0.36737 0.25339 0.0
C357 C 0.63137 0.3791 0.19897 0.0
C358 C 0.65979 0.43944 0.22968 0.0
C359 C 0.53935 0.38415 0.24782 0.0
O360 O 0.62793 0.3977 0.20748 0.0
O361 O 0.63187 0.36257 0.21185 0.0
O362 O 0.61946 0.41854 0.27266 0.0
O363 O 0.64182 0.38824 0.25889 0.0
Co364 Co 0.62764 0.40357 0.98486 0.0
O365 O 0.57237 0.41626 0.98166 0.0
O366 O 0.62788 0.43165 -0.00125 0.0
C367 C 0.63257 0.3929 0.94756 0.0
O368 O 0.69015 0.39423 -0.01003 0.0
Co369 Co 0.6313 0.35536 0.9783 0.0
O370 O 0.69389 0.36051 0.97806 0.0
C371 C 0.60345 0.37235 0.02392 0.0
C372 C 0.58793 0.43272 -0.00816 0.0
C373 C 0.71164 0.37737 0.98524 0.0
O374 O 0.61018 0.39089 0.01584 0.0
O375 O 0.60786 0.35575 0.01144 0.0
O376 O 0.64301 0.41192 0.9532 0.0
O377 O 0.61451 0.38169 0.96388 0.0
Co378 Co 0.6217 0.84411 0.98746 0.0
O379 O 0.67767 0.8319 0.98622 0.0
O380 O 0.62091 0.81609 0.00148 0.0
C381 C 0.62083 0.85438 0.94972 0.0
O382 O 0.55849 0.85311 -0.00954 0.0
Co383 Co 0.61811 0.89238 0.98026 0.0
O384 O 0.55569 0.88697 0.97886 0.0
C385 C 0.64154 0.87575 0.02687 0.0
C386 C 0.6615 0.81529 -0.00421 0.0
C387 C 0.53743 0.87006 0.98547 0.0
O388 O 0.6353 0.85716 0.01883 0.0
O389 O 0.63872 0.89224 0.01402 0.0
O390 O 0.61063 0.83533 0.95536 0.0
O391 O 0.63598 0.8659 0.96669 0.0
Co392 Co 0.38233 0.16135 0.73591 0.0
O393 O 0.43823 0.17356 0.73811 0.0
O394 O 0.37896 0.18928 0.75016 0.0
C395 C 0.38899 0.15163 0.69812 0.0
O396 O 0.31889 0.15215 0.73523 0.0
Co397 Co 0.37999 0.11317 0.7272 0.0
O398 O 0.3187 0.11908 0.721 0.0
C399 C 0.39301 0.12901 0.77557 0.0
C400 C 0.42039 0.19014 0.74676 0.0
C401 C 0.29901 0.13555 0.72776 0.0
O402 O 0.38959 0.14782 0.76765 0.0
O403 O 0.39252 0.1128 0.76218 0.0
O404 O 0.37762 0.17059 0.70344 0.0
O405 O 0.40055 0.13988 0.7157 0.0
Co406 Co 0.39211 0.59281 0.73568 0.0
O407 O 0.33698 0.5798 0.7373 0.0
O408 O 0.39724 0.56426 0.7481 0.0
C409 C 0.38384 0.60425 0.69856 0.0
O410 O 0.45499 0.60276 0.73527 0.0
Co411 Co 0.39147 0.64123 0.73034 0.0
O412 O 0.45363 0.63704 0.7253 0.0
C413 C 0.37841 0.62276 0.77738 0.0
C414 C 0.35579 0.56308 0.74489 0.0
C415 C 0.47401 0.62023 0.73007 0.0
O416 O 0.38429 0.60453 0.76829 0.0
O417 O 0.37738 0.63962 0.76508 0.0
O418 O 0.39693 0.58533 0.7027 0.0
O419 O 0.37197 0.61498 0.71692 0.0
Co420 Co 0.36968 0.5923 -0.00701 0.0
O421 O 0.42542 0.57985 -0.00545 0.0
O422 O 0.36873 0.56429 0.97892 0.0
C423 C 0.36869 0.60263 0.03076 0.0
O424 O 0.30667 0.60153 -0.01042 0.0
Co425 Co 0.36641 0.64055 0.00023 0.0
O426 O 0.3039 0.63536 0.00126 0.0
C427 C 0.39088 0.62388 0.95379 0.0
C428 C 0.40924 0.56334 0.98478 0.0
C429 C 0.28563 0.61851 -0.00555 0.0
O430 O 0.38412 0.60529 0.9617 0.0
O431 O 0.38795 0.64035 0.96666 0.0
O432 O 0.35796 0.58364 0.02511 0.0
O433 O 0.38408 0.61404 0.01379 0.0
Co434 Co 0.37676 0.15608 -0.00962 0.0
O435 O 0.32092 0.16844 -0.00908 0.0
O436 O 0.37858 0.18422 0.97668 0.0
C437 C 0.37526 0.14562 0.02808 0.0
O438 O 0.44002 0.14695 0.98817 0.0
Co439 Co 0.38005 0.10785 -0.00263 0.0
O440 O 0.4423 0.11322 0.00019 0.0
C441 C 0.35888 0.12471 0.9505 0.0
C442 C 0.33774 0.18508 0.98179 0.0
C443 C 0.46089 0.13007 -0.00635 0.0
O444 O 0.36443 0.14328 0.95874 0.0
O445 O 0.36153 0.10815 0.96323 0.0
O446 O 0.38635 0.16461 0.0227 0.0
O447 O 0.36104 0.1342 0.01078 0.0
H448 H 0.10415 0.34189 0.17171 0.0
H449 H 0.1271 0.41042 0.05473 0.0
H450 H 0.1251 0.40878 0.17566 0.0
H451 H 0.15242 0.34392 0.05903 0.0
H452 H 0.12051 0.41144 0.09812 0.0
H453 H 0.11134 0.34365 0.12896 0.0
C454 C 0.10987 0.35703 0.16359 0.0
C455 C 0.1146 0.37518 0.17737 0.0
C456 C 0.12794 0.39673 0.08945 0.0
C457 C 0.12338 0.37723 0.12822 0.0
C458 C 0.13202 0.39614 0.06475 0.0
C459 C 0.13977 0.37699 0.05318 0.0
C460 C 0.13127 0.37803 0.10243 0.0
C461 C 0.14579 0.35898 0.06707 0.0
C462 C 0.1143 0.35798 0.13913 0.0
C463 C 0.12138 0.39438 0.16571 0.0
N464 N 0.14091 0.35992 0.09088 0.0
N465 N 0.12588 0.39491 0.14171 0.0
H466 H 0.12644 0.83896 0.05048 0.0
H467 H 0.1613 0.90507 0.16808 0.0
H468 H 0.09845 0.90502 0.0576 0.0
H469 H 0.13864 0.83826 0.17131 0.0
H470 H 0.15022 0.90399 0.12551 0.0
H471 H 0.13758 0.83703 0.09353 0.0
C472 C 0.12178 0.85293 0.06108 0.0
C473 C 0.11212 0.87226 0.05038 0.0
C474 C 0.14783 0.88953 0.13551 0.0
C475 C 0.12592 0.87021 0.09915 0.0
C476 C 0.15454 0.89009 0.15981 0.0
C477 C 0.15023 0.87177 0.17337 0.0
C478 C 0.13693 0.87053 0.12455 0.0
C479 C 0.14203 0.85278 0.16154 0.0
C480 C 0.1285 0.85183 0.08556 0.0
C481 C 0.10656 0.88986 0.06497 0.0
N482 N 0.13526 0.85265 0.13772 0.0
N483 N 0.11411 0.88845 0.08854 0.0
H484 H 0.88605 0.59143 0.80509 0.0
H485 H 0.82634 0.65341 0.92352 0.0
H486 H 0.8764 0.65881 0.8115 0.0
H487 H 0.87573 0.59019 0.92562 0.0
H488 H 0.83037 0.65271 0.8805 0.0
H489 H 0.87258 0.5884 0.8479 0.0
C490 C 0.88152 0.60556 0.81544 0.0
C491 C 0.88231 0.62541 0.8046 0.0
C492 C 0.84002 0.6389 0.89031 0.0
C493 C 0.86591 0.62196 0.85316 0.0
C494 C 0.83743 0.63924 0.91488 0.0
C495 C 0.85139 0.62196 0.92815 0.0
C496 C 0.85689 0.6212 0.87885 0.0
C497 C 0.86484 0.60388 0.91601 0.0
C498 C 0.87359 0.60378 0.83979 0.0
C499 C 0.87605 0.64316 0.81891 0.0
N500 N 0.86787 0.60406 0.89193 0.0
N501 N 0.86787 0.64097 0.84234 0.0
H502 H 0.91386 0.09395 0.92353 0.0
H503 H 0.87867 0.15872 0.80437 0.0
H504 H 0.8758 0.15905 0.9253 0.0
H505 H 0.87181 0.09121 0.81016 0.0
H506 H 0.88528 0.16088 0.84771 0.0
H507 H 0.91089 0.09478 0.88054 0.0
C508 C 0.90534 0.10853 0.91486 0.0
C509 C 0.89441 0.12638 0.92805 0.0
C510 C 0.88202 0.14567 0.83936 0.0
C511 C 0.89035 0.12732 0.87868 0.0
C512 C 0.87795 0.1444 0.81469 0.0
C513 C 0.87504 0.12473 0.80353 0.0
C514 C 0.88363 0.12715 0.85276 0.0
C515 C 0.87439 0.10673 0.81783 0.0
C516 C 0.90336 0.10894 0.89028 0.0
C517 C 0.8843 0.14491 0.91578 0.0
N518 N 0.87907 0.10838 0.84161 0.0
N519 N 0.88207 0.14487 0.89167 0.0
H520 H 0.09377 0.84938 0.66802 0.0
H521 H 0.13931 0.91704 0.55277 0.0
H522 H 0.12745 0.91491 0.67381 0.0
H523 H 0.1583 0.85006 0.55793 0.0
H524 H 0.12799 0.9183 0.59583 0.0
H525 H 0.10492 0.8513 0.62548 0.0
C526 C 0.10299 0.86428 0.66031 0.0
C527 C 0.11039 0.88193 0.67455 0.0
C528 C 0.13515 0.90343 0.58743 0.0
C529 C 0.12379 0.88412 0.6258 0.0
C530 C 0.14197 0.90269 0.56294 0.0
C531 C 0.14914 0.88335 0.55166 0.0
C532 C 0.13509 0.8847 0.60045 0.0
C533 C 0.15219 0.86528 0.56574 0.0
C534 C 0.10971 0.86531 0.63603 0.0
C535 C 0.12161 0.9009 0.66347 0.0
N536 N 0.14456 0.86637 0.58931 0.0
N537 N 0.12839 0.90148 0.63964 0.0
H538 H 0.12126 0.40912 0.56046 0.0
H539 H 0.13523 0.33812 0.67519 0.0
H540 H 0.12607 0.3416 0.5542 0.0
H541 H 0.17967 0.4022 0.6713 0.0
H542 H 0.12812 0.3378 0.6318 0.0
H543 H 0.13451 0.40598 0.60258 0.0
C544 C 0.12477 0.39356 0.56793 0.0
C545 C 0.12292 0.37558 0.55362 0.0
C546 C 0.14006 0.35176 0.64053 0.0
C547 C 0.13859 0.37195 0.60217 0.0
C548 C 0.14444 0.35192 0.66523 0.0
C549 C 0.15738 0.37035 0.67689 0.0
C550 C 0.14836 0.37017 0.62769 0.0
C551 C 0.16881 0.38778 0.66312 0.0
C552 C 0.13274 0.39182 0.59204 0.0
C553 C 0.12735 0.35588 0.56454 0.0
N554 N 0.16343 0.38734 0.63932 0.0
N555 N 0.13509 0.35456 0.58827 0.0
H556 H 0.88143 0.08797 0.30441 0.0
H557 H 0.83654 0.1529 0.42196 0.0
H558 H 0.89582 0.15512 0.31114 0.0
H559 H 0.87738 0.08827 0.42611 0.0
H560 H 0.84423 0.15156 0.37916 0.0
H561 H 0.87121 0.08572 0.34758 0.0
C562 C 0.88314 0.10216 0.31492 0.0
C563 C 0.889 0.1218 0.30405 0.0
C564 C 0.8513 0.13762 0.3894 0.0
C565 C 0.8762 0.11931 0.35297 0.0
C566 C 0.84661 0.1383 0.41385 0.0
C567 C 0.85703 0.12077 0.42769 0.0
C568 C 0.86643 0.11926 0.37857 0.0
C569 C 0.86922 0.10219 0.41609 0.0
C570 C 0.877 0.10084 0.33946 0.0
C571 C 0.89085 0.13965 0.31856 0.0
N572 N 0.87403 0.10195 0.39208 0.0
N573 N 0.88395 0.13799 0.34217 0.0
H574 H 0.83953 0.59649 0.30852 0.0
H575 H 0.87821 0.66152 0.42729 0.0
H576 H 0.87826 0.66151 0.30646 0.0
H577 H 0.88288 0.59396 0.4217 0.0
H578 H 0.8701 0.66358 0.38401 0.0
H579 H 0.84266 0.59745 0.35151 0.0
C580 C 0.84821 0.61108 0.31712 0.0
C581 C 0.85931 0.62886 0.30385 0.0
C582 C 0.87317 0.64838 0.3924 0.0
C583 C 0.86356 0.62996 0.35321 0.0
C584 C 0.87806 0.64717 0.41703 0.0
C585 C 0.8809 0.62752 0.42822 0.0
C586 C 0.87066 0.62983 0.37909 0.0
C587 C 0.88042 0.60946 0.41401 0.0
C588 C 0.85027 0.61157 0.3417 0.0
C589 C 0.86964 0.64742 0.31603 0.0
N590 N 0.87501 0.61107 0.39028 0.0
N591 N 0.87198 0.64745 0.34014 0.0
H592 H 0.63214 0.40898 0.54929 0.0
H593 H 0.59597 0.34595 0.66987 0.0
H594 H 0.63234 0.34143 0.55566 0.0
H595 H 0.62779 0.41189 0.66903 0.0
H596 H 0.5985 0.34558 0.62684 0.0
H597 H 0.62409 0.41159 0.59243 0.0
C598 C 0.63103 0.39472 0.55971 0.0
C599 C 0.63266 0.37494 0.54878 0.0
C600 C 0.60471 0.36018 0.63603 0.0
C601 C 0.62255 0.37788 0.59783 0.0
C602 C 0.60297 0.36044 0.66062 0.0
C603 C 0.61232 0.37891 0.67308 0.0
C604 C 0.61593 0.3785 0.62372 0.0
C605 C 0.62058 0.39728 0.66011 0.0
C606 C 0.62613 0.39625 0.58428 0.0
C607 C 0.63092 0.35702 0.56319 0.0
N608 N 0.62267 0.39657 0.63604 0.0
N609 N 0.62566 0.35894 0.5869 0.0
H610 H 0.66895 0.90715 0.67317 0.0
H611 H 0.62461 0.84334 0.55415 0.0
H612 H 0.62768 0.8425 0.6748 0.0
H613 H 0.62295 0.91091 0.56029 0.0
H614 H 0.63412 0.84092 0.59729 0.0
H615 H 0.66527 0.90652 0.63016 0.0
C616 C 0.65966 0.8927 0.66445 0.0
C617 C 0.64793 0.87495 0.67761 0.0
C618 C 0.63141 0.85621 0.58906 0.0
C619 C 0.64298 0.87424 0.62828 0.0
C620 C 0.6257 0.85763 0.56451 0.0
C621 C 0.62325 0.87737 0.5535 0.0
C622 C 0.63515 0.87464 0.60248 0.0
C623 C 0.62497 0.89534 0.56785 0.0
C624 C 0.65726 0.8924 0.63988 0.0
C625 C 0.6368 0.85657 0.66531 0.0
N626 N 0.63117 0.89352 0.5915 0.0
N627 N 0.63409 0.85674 0.64123 0.0
H628 H 0.42695 0.65379 0.30787 0.0
H629 H 0.36798 0.59227 0.42654 0.0
H630 H 0.37963 0.59015 0.30599 0.0
H631 H 0.37257 0.65973 0.4194 0.0
H632 H 0.38119 0.58911 0.38375 0.0
H633 H 0.42079 0.65354 0.35082 0.0
C634 C 0.41586 0.63962 0.31654 0.0
C635 C 0.4031 0.62208 0.30332 0.0
C636 C 0.37905 0.60454 0.39168 0.0
C637 C 0.39526 0.62184 0.35253 0.0
C638 C 0.37124 0.60639 0.41602 0.0
C639 C 0.36936 0.6263 0.42667 0.0
C640 C 0.38549 0.62271 0.37812 0.0
C641 C 0.37396 0.64403 0.41214 0.0
C642 C 0.41204 0.63955 0.34106 0.0
C643 C 0.38961 0.60404 0.31554 0.0
N644 N 0.38214 0.64178 0.38871 0.0
N645 N 0.38548 0.60446 0.33956 0.0
H646 H 0.40666 0.09522 0.42034 0.0
H647 H 0.37291 0.16104 0.302 0.0
H648 H 0.37663 0.16132 0.42294 0.0
H649 H 0.35632 0.09396 0.30799 0.0
H650 H 0.38151 0.16297 0.34525 0.0
H651 H 0.40026 0.09619 0.37748 0.0
C652 C 0.39916 0.11003 0.41189 0.0
C653 C 0.3915 0.12816 0.4253 0.0
C654 C 0.37561 0.14792 0.33697 0.0
C655 C 0.38358 0.12927 0.3761 0.0
C656 C 0.37039 0.1468 0.31237 0.0
C657 C 0.36436 0.12727 0.3013 0.0
C658 C 0.37518 0.12937 0.35036 0.0
C659 C 0.36148 0.10934 0.31562 0.0
C660 C 0.3952 0.11053 0.38739 0.0
C661 C 0.38258 0.14696 0.41327 0.0
N662 N 0.36736 0.11082 0.33932 0.0
N663 N 0.37846 0.14701 0.38924 0.0
H664 H 0.6142 0.84192 0.17104 0.0
H665 H 0.6325 0.91113 0.05453 0.0
H666 H 0.63246 0.909 0.17547 0.0
H667 H 0.66187 0.84501 0.05831 0.0
H668 H 0.6273 0.91195 0.09798 0.0
H669 H 0.62184 0.84397 0.12834 0.0
C670 C 0.61944 0.85716 0.16304 0.0
C671 C 0.62323 0.87529 0.17696 0.0
C672 C 0.63539 0.89739 0.08919 0.0
C673 C 0.63249 0.87766 0.12785 0.0
C674 C 0.63868 0.89691 0.06446 0.0
C675 C 0.64701 0.87789 0.05275 0.0
C676 C 0.64012 0.87869 0.10205 0.0
C677 C 0.65466 0.85996 0.0665 0.0
C678 C 0.62415 0.85827 0.13862 0.0
C679 C 0.62949 0.89461 0.16543 0.0
N680 N 0.65049 0.86076 0.09035 0.0
N681 N 0.63416 0.8953 0.14145 0.0
H682 H 0.61602 0.33786 0.05235 0.0
H683 H 0.6298 0.41041 0.16611 0.0
H684 H 0.57656 0.40276 0.05428 0.0
H685 H 0.62776 0.34285 0.17235 0.0
H686 H 0.61626 0.40713 0.12398 0.0
H687 H 0.62185 0.33822 0.09572 0.0
C688 C 0.60753 0.35201 0.06189 0.0
C689 C 0.59649 0.37043 0.04968 0.0
C690 C 0.61871 0.39299 0.13453 0.0
C691 C 0.60411 0.37103 0.09891 0.0
C692 C 0.62688 0.39483 0.15862 0.0
C693 C 0.62964 0.37687 0.17291 0.0
C694 C 0.61354 0.37306 0.12444 0.0
C695 C 0.62581 0.35713 0.16202 0.0
C696 C 0.61124 0.35223 0.08659 0.0
C697 C 0.58595 0.38831 0.06292 0.0
N698 N 0.61787 0.35573 0.13835 0.0
N699 N 0.59065 0.38824 0.08677 0.0
H700 H 0.38788 0.09226 0.80133 0.0
H701 H 0.33314 0.15484 0.91958 0.0
H702 H 0.39461 0.15961 0.80923 0.0
H703 H 0.37562 0.09042 0.92233 0.0
H704 H 0.34134 0.15436 0.87676 0.0
H705 H 0.3742 0.08926 0.84411 0.0
C706 C 0.3871 0.10636 0.81202 0.0
C707 C 0.39206 0.12624 0.80158 0.0
C708 C 0.34861 0.14026 0.88669 0.0
C709 C 0.37534 0.12287 0.85006 0.0
C710 C 0.34362 0.14047 0.91113 0.0
C711 C 0.35443 0.12275 0.92457 0.0
C712 C 0.36454 0.12223 0.87551 0.0
C713 C 0.36716 0.10446 0.9126 0.0
C714 C 0.379 0.10461 0.83634 0.0
C715 C 0.39062 0.14395 0.81632 0.0
N716 N 0.3724 0.10472 0.88864 0.0
N717 N 0.38197 0.14184 0.8397 0.0
H718 H 0.37376 0.5904 0.80875 0.0
H719 H 0.382 0.65923 0.92613 0.0
H720 H 0.38073 0.65804 0.8057 0.0
H721 H 0.41329 0.59332 0.92254 0.0
H722 H 0.37877 0.66016 0.88265 0.0
H723 H 0.38144 0.59202 0.85143 0.0
C724 C 0.37661 0.60566 0.81705 0.0
C725 C 0.37699 0.62412 0.80352 0.0
C726 C 0.38685 0.64561 0.89148 0.0
C727 C 0.38627 0.62603 0.85268 0.0
C728 C 0.38902 0.64508 0.91624 0.0
C729 C 0.39733 0.62609 0.92799 0.0
C730 C 0.39278 0.627 0.8786 0.0
C731 C 0.40608 0.60824 0.9143 0.0
C732 C 0.38133 0.60655 0.84149 0.0
C733 C 0.38035 0.64341 0.81543 0.0
N734 N 0.40307 0.6091 0.89038 0.0
N735 N 0.38502 0.64388 0.83942 0.0
H736 H 0.88512 0.22643 0.252 0.0
H737 H 0.1237 0.27199 0.23305 0.0
H738 H 0.99837 0.18769 0.2478 0.0
H739 H 0.00954 0.31024 0.23489 0.0
H740 H 0.07848 0.24069 0.23804 0.0
H741 H 0.93071 0.25759 0.24741 0.0
C742 C 0.91957 0.22451 0.25059 0.0
C743 C 0.93793 0.20447 0.25023 0.0
C744 C 0.06336 0.25595 0.23717 0.0
C745 C 0.99019 0.23988 0.24441 0.0
C746 C 0.08916 0.27376 0.23404 0.0
C747 C 0.0704 0.29372 0.2336 0.0
C748 C 0.0186 0.2582 0.23989 0.0
C749 C 0.02544 0.29515 0.23527 0.0
C750 C 0.94559 0.24226 0.24769 0.0
C751 C 0.98279 0.20286 0.24805 0.0
N752 N 1.00119 0.2777 0.23848 0.0
N753 N 0.0073 0.22027 0.24509 0.0
H754 H 0.25586 0.93606 0.23338 0.0
H755 H 0.25805 0.0608 0.2467 0.0
H756 H 0.14146 0.97409 0.23072 0.0
H757 H 0.37285 0.023 0.24747 0.0
H758 H 0.21492 0.02917 0.24243 0.0
H759 H 0.299 0.96761 0.23834 0.0
C760 C 0.2398 0.95112 0.23354 0.0
C761 C 0.19488 0.95243 0.23165 0.0
C762 C 0.24947 0.0277 0.24371 0.0
C763 C 0.24435 0.98874 0.23777 0.0
C764 C 0.27421 0.04576 0.24632 0.0
C765 C 0.31922 0.04454 0.24739 0.0
C766 C 0.26976 0.00815 0.24205 0.0
C767 C 0.33828 0.02465 0.24686 0.0
C768 C 0.26454 0.96914 0.23652 0.0
C769 C 0.17596 0.97236 0.23195 0.0
N770 N 0.31344 0.00722 0.24402 0.0
N771 N 0.20079 0.98975 0.23515 0.0
H772 H 0.11851 0.97724 0.00132 0.0
H773 H 0.8813 0.02319 0.97913 0.0
H774 H 0.00541 0.9388 -0.00677 0.0
H775 H 0.99361 0.06178 -0.01061 0.0
H776 H 0.92668 0.9919 0.98313 0.0
H777 H 0.07317 0.0086 -0.00226 0.0
C778 C 0.08414 0.97541 -0.00077 0.0
C779 C 0.06577 0.95541 -0.00249 0.0
C780 C 0.94138 0.00725 0.98437 0.0
C781 C 0.01386 0.99104 -0.00713 0.0
C782 C 0.91551 0.02507 0.98183 0.0
C783 C 0.93364 0.04509 0.98398 0.0
C784 C 0.9856 0.00952 0.98905 0.0
C785 C 0.97817 0.04664 0.98773 0.0
C786 C 0.05829 0.99327 -0.00307 0.0
C787 C 0.02104 0.95392 -0.00548 0.0
N788 N 1.00252 0.02914 -0.00975 0.0
N789 N 0.99673 0.97145 -0.00785 0.0
H790 H 0.25087 0.18762 0.98216 0.0
H791 H 0.24545 0.31239 -0.00541 0.0
H792 H 0.36442 0.22629 0.97914 0.0
H793 H 0.13243 0.27345 -0.00113 0.0
H794 H 0.28946 0.28114 -0.01042 0.0
H795 H 0.20709 0.21892 0.98712 0.0
C796 C 0.2666 0.20278 0.98221 0.0
C797 C 0.31146 0.20435 0.98027 0.0
C798 C 0.25512 0.27935 -0.00822 0.0
C799 C 0.26128 0.24036 0.98641 0.0
C800 C 0.2299 0.29719 -0.00519 0.0
C801 C 0.18509 0.29552 -0.00288 0.0
C802 C 0.23551 0.25959 -0.00908 0.0
C803 C 0.16682 0.27544 -0.00271 0.0
C804 C 0.2415 0.22065 0.98521 0.0
C805 C 0.32996 0.22438 0.98041 0.0
N806 N 0.19209 0.25825 -0.00597 0.0
N807 N 0.30479 0.24163 0.98363 0.0
H808 H 1.00029 0.69267 0.75541 0.0
H809 H 0.00411 0.81544 0.72713 0.0
H810 H 0.88555 0.72952 0.7457 0.0
H811 H 0.11827 0.77744 0.7319 0.0
H812 H 0.96024 0.78431 0.73372 0.0
H813 H 0.0437 0.72393 0.7489 0.0
C814 C 0.98416 0.70748 0.75235 0.0
C815 C 0.93916 0.70849 0.75108 0.0
C816 C 0.99482 0.78267 0.73309 0.0
C817 C 0.98895 0.74437 0.74302 0.0
C818 C 0.01995 0.80042 0.72913 0.0
C819 C 0.06496 0.79901 0.72895 0.0
C820 C 0.01476 0.7633 0.73713 0.0
C821 C 0.0837 0.77919 0.73169 0.0
C822 C 0.00906 0.72529 0.74839 0.0
C823 C 0.92009 0.72807 0.74703 0.0
N824 N 0.0585 0.76212 0.73591 0.0
N825 N 0.94513 0.74523 0.74293 0.0
H826 H 0.63881 0.9782 0.72922 0.0
H827 H 0.87888 0.0208 0.75143 0.0
H828 H 0.74838 0.93794 0.73997 0.0
H829 H 0.7677 0.0607 0.74474 0.0
H830 H 0.83175 0.99004 0.7476 0.0
H831 H 0.68619 0.0088 0.73339 0.0
C832 C 0.67284 0.9758 0.73207 0.0
C833 C 0.6896 0.95552 0.7343 0.0
C834 C 0.8177 0.00556 0.74715 0.0
C835 C 0.74387 0.99031 0.73953 0.0
C836 C 0.84459 0.02308 0.74958 0.0
C837 C 0.82727 0.04332 0.74834 0.0
C838 C 0.77331 0.00838 0.74341 0.0
C839 C 0.78256 0.04538 0.74565 0.0
C840 C 0.69986 0.99324 0.7347 0.0
C841 C 0.73397 0.95331 0.73825 0.0
N842 N 0.75727 0.02819 0.74314 0.0
N843 N 0.75945 0.97043 0.74083 0.0
H844 H 0.74832 0.81283 -0.00696 0.0
H845 H 0.75339 0.68771 0.98668 0.0
H846 H 0.63553 0.77416 0.00087 0.0
H847 H 0.86631 0.7263 0.97895 0.0
H848 H 0.70978 0.71914 -0.00904 0.0
H849 H 0.79198 0.78141 0.98861 0.0
C850 C 0.73275 0.79767 -0.00587 0.0
C851 C 0.68809 0.79612 -0.00271 0.0
C852 C 0.744 0.72082 0.98817 0.0
C853 C 0.73812 0.75996 -0.00818 0.0
C854 C 0.769 0.70286 0.98557 0.0
C855 C 0.81366 0.70438 0.9825 0.0
C856 C 0.76369 0.74058 0.98781 0.0
C857 C 0.832 0.72441 0.98115 0.0
C858 C 0.75777 0.77972 -0.00855 0.0
C859 C 0.66981 0.77607 -0.0014 0.0
N860 N 0.80695 0.74175 0.984 0.0
N861 N 0.69489 0.75875 -0.00431 0.0
H862 H 0.26936 0.55979 0.74834 0.0
H863 H 0.26308 0.43525 0.73436 0.0
H864 H 0.38397 0.52198 0.74458 0.0
H865 H 0.15111 0.47473 0.72886 0.0
H866 H 0.30788 0.46639 0.73879 0.0
H867 H 0.22583 0.52839 0.74376 0.0
C868 C 0.28544 0.54478 0.74688 0.0
C869 C 0.33047 0.54352 0.74677 0.0
C870 C 0.2736 0.4683 0.7364 0.0
C871 C 0.28046 0.50736 0.7411 0.0
C872 C 0.24795 0.45053 0.73374 0.0
C873 C 0.20321 0.4524 0.73125 0.0
C874 C 0.25443 0.48817 0.73682 0.0
C875 C 0.18544 0.47257 0.73057 0.0
C876 C 0.26045 0.52686 0.74407 0.0
C877 C 0.34939 0.52365 0.7449 0.0
N878 N 0.21108 0.48967 0.73357 0.0
N879 N 0.32425 0.50632 0.74197 0.0
H880 H 0.87796 0.52381 0.48549 0.0
H881 H 0.11911 0.47972 0.49703 0.0
H882 H 0.99105 0.56274 0.4817 0.0
H883 H 0.00574 0.44123 0.50328 0.0
H884 H 0.07283 0.51061 0.49219 0.0
H885 H 0.92442 0.49301 0.49057 0.0
C886 C 0.91249 0.52581 0.48521 0.0
C887 C 0.93064 0.54583 0.4832 0.0
C888 C 0.05812 0.4954 0.49485 0.0
C889 C 0.98394 0.5109 0.48961 0.0
C890 C 0.08459 0.47784 0.49793 0.0
C891 C 0.06628 0.4579 0.50052 0.0
C892 C 0.01315 0.49293 0.49434 0.0
C893 C 0.02126 0.45631 0.5012 0.0
C894 C 0.93904 0.5083 0.48843 0.0
C895 C 0.97565 0.54758 0.4833 0.0
N896 N 0.99631 0.47352 0.49795 0.0
N897 N 1.00068 0.53041 0.48661 0.0
H898 H 0.37074 0.73051 0.47963 0.0
H899 H 0.13531 0.77979 0.49812 0.0
H900 H 0.25437 0.69384 0.48189 0.0
H901 H 0.25092 0.81671 0.49222 0.0
H902 H 0.17873 0.74787 0.49369 0.0
H903 H 0.3274 0.76246 0.48378 0.0
C904 C 0.33611 0.7292 0.48054 0.0
C905 C 0.3162 0.70949 0.48046 0.0
C906 C 0.19458 0.76298 0.49353 0.0
C907 C 0.26647 0.74582 0.48579 0.0
C908 C 0.16981 0.78116 0.49632 0.0
C909 C 0.18947 0.80091 0.49549 0.0
C910 C 0.23925 0.76463 0.48993 0.0
C911 C 0.23434 0.8018 0.49284 0.0
C912 C 0.31136 0.7474 0.48317 0.0
C913 C 0.27115 0.7087 0.48199 0.0
N914 N 0.25761 0.78398 0.49005 0.0
N915 N 0.24791 0.72654 0.48475 0.0
H916 H 0.87079 0.52544 0.24951 0.0
H917 H 0.63213 0.48056 0.22936 0.0
H918 H 0.75848 0.56469 0.24387 0.0
H919 H 0.74654 0.44248 0.22773 0.0
H920 H 0.67742 0.51176 0.23487 0.0
H921 H 0.82494 0.49451 0.24382 0.0
C922 C 0.83646 0.52752 0.24753 0.0
C923 C 0.81847 0.54764 0.24712 0.0
C924 C 0.69257 0.49656 0.23309 0.0
C925 C 0.76593 0.51249 0.2401 0.0
C926 C 0.66671 0.47882 0.22966 0.0
C927 C 0.68554 0.45891 0.22813 0.0
C928 C 0.73744 0.4943 0.23507 0.0
C929 C 0.73058 0.45752 0.22896 0.0
C930 C 0.81032 0.50991 0.24399 0.0
C931 C 0.77377 0.54945 0.24419 0.0
N932 N 0.75488 0.47489 0.23255 0.0
N933 N 0.74912 0.53216 0.2407 0.0
H934 H 0.73992 0.30992 0.49509 0.0
H935 H 0.74977 0.18517 0.48402 0.0
H936 H 0.62665 0.27101 0.49309 0.0
H937 H 0.86118 0.22516 0.47941 0.0
H938 H 0.70424 0.21609 0.48763 0.0
H939 H 0.78453 0.27881 0.49144 0.0
C940 C 0.72437 0.29474 0.49421 0.0
C941 C 0.67938 0.29308 0.49434 0.0
C942 C 0.73856 0.21817 0.48564 0.0
C943 C 0.73065 0.25723 0.48974 0.0
C944 C 0.76465 0.20052 0.48344 0.0
C945 C 0.80944 0.2026 0.48143 0.0
C946 C 0.7573 0.23814 0.48603 0.0
C947 C 0.82684 0.22285 0.48076 0.0
C948 C 0.74998 0.27697 0.49194 0.0
C949 C 0.66117 0.273 0.49321 0.0
N950 N 0.80074 0.23985 0.48326 0.0
N951 N 0.68691 0.25583 0.49079 0.0
H952 H 0.50719 0.19271 0.74912 0.0
H953 H 0.51463 0.31756 0.73804 0.0
H954 H 0.39359 0.23138 0.74905 0.0
H955 H 0.62656 0.27816 0.73155 0.0
H956 H 0.47016 0.28646 0.74314 0.0
H957 H 0.55143 0.22401 0.74542 0.0
C958 C 0.49151 0.20786 0.74869 0.0
C959 C 0.44651 0.20941 0.74934 0.0
C960 C 0.50436 0.28454 0.74047 0.0
C961 C 0.49731 0.24546 0.74466 0.0
C962 C 0.52987 0.3023 0.73744 0.0
C963 C 0.57451 0.30047 0.73436 0.0
C964 C 0.5235 0.26466 0.74061 0.0
C965 C 0.59231 0.2803 0.73372 0.0
C966 C 0.51689 0.22574 0.74639 0.0
C967 C 0.42812 0.22946 0.74876 0.0
N968 N 0.56677 0.26317 0.73698 0.0
N969 N 0.45361 0.24672 0.74626 0.0
H970 H 0.38434 0.02553 0.48042 0.0
H971 H 0.62367 0.98108 0.49957 0.0
H972 H 0.49693 0.06471 0.48551 0.0
H973 H 0.51068 0.94203 0.49605 0.0
H974 H 0.57766 0.01212 0.49525 0.0
H975 H 0.43037 0.99452 0.48504 0.0
C976 C 0.41872 0.02758 0.48209 0.0
C977 C 0.43677 0.04771 0.48263 0.0
C978 C 0.56295 0.99674 0.49561 0.0
C979 C 0.48952 0.01247 0.48841 0.0
C980 C 0.58921 0.97906 0.49834 0.0
C981 C 0.57104 0.95896 0.49812 0.0
C982 C 0.5183 0.99423 0.49263 0.0
C983 C 0.52615 0.95723 0.49618 0.0
C984 C 0.44499 0.00993 0.48499 0.0
C985 C 0.48156 0.04948 0.48512 0.0
N986 N 0.50143 0.97458 0.49337 0.0
N987 N 0.50629 0.03215 0.48803 0.0
H988 H 0.51333 0.81123 0.235 0.0
H989 H 0.50533 0.68628 0.2442 0.0
H990 H 0.62626 0.77219 0.23189 0.0
H991 H 0.39336 0.72566 0.25059 0.0
H992 H 0.54998 0.71742 0.23995 0.0
H993 H 0.46896 0.78004 0.23929 0.0
C994 C 0.52882 0.79603 0.23491 0.0
C995 C 0.57369 0.79432 0.23313 0.0
C996 C 0.51573 0.71933 0.24245 0.0
C997 C 0.52278 0.75841 0.23846 0.0
C998 C 0.49014 0.70155 0.24502 0.0
C999 C 0.44544 0.70338 0.24772 0.0
C1000 C 0.4966 0.73921 0.24243 0.0
C1001 C 0.42766 0.72354 0.24869 0.0
C1002 C 0.50337 0.77821 0.23753 0.0
C1003 C 0.59183 0.77422 0.23307 0.0
N1004 N 0.45328 0.74069 0.24586 0.0
N1005 N 0.5663 0.75703 0.23587 0.0
H1006 H 0.50167 0.43545 0.98593 0.0
H1007 H 0.49581 0.56063 -0.01071 0.0
H1008 H 0.61315 0.4736 0.00022 0.0
H1009 H 0.38362 0.52245 0.97691 0.0
H1010 H 0.53934 0.52906 -0.00783 0.0
H1011 H 0.45817 0.467 0.98281 0.0
C1012 C 0.517 0.45051 0.98865 0.0
C1013 C 0.56125 0.45188 -0.0067 0.0
C1014 C 0.50529 0.52752 0.9887 0.0
C1015 C 0.51134 0.48825 -0.01059 0.0
C1016 C 0.48032 0.54556 0.98691 0.0
C1017 C 0.43586 0.54419 0.9829 0.0
C1018 C 0.48581 0.5078 0.98652 0.0
C1019 C 0.41775 0.52424 0.97991 0.0
C1020 C 0.49205 0.46855 0.98675 0.0
C1021 C 0.57917 0.47181 -0.00328 0.0
N1022 N 0.44278 0.50681 0.98193 0.0
N1023 N 0.55417 0.48925 -0.00545 0.0
H1024 H 0.11865 0.42411 0.41063 0.0
H1025 H 0.14359 0.32961 0.32074 0.0
H1026 H 0.11409 0.35932 0.4327 0.0
H1027 H 0.10967 0.39223 0.29839 0.0
H1028 H 0.13714 0.34051 0.3619 0.0
H1029 H 0.11871 0.41293 0.36943 0.0
C1030 C 0.11753 0.40748 0.40675 0.0
C1031 C 0.11666 0.39254 0.42498 0.0
C1032 C 0.13093 0.35185 0.34801 0.0
C1033 C 0.11691 0.37972 0.37795 0.0
C1034 C 0.13488 0.34571 0.32452 0.0
C1035 C 0.12723 0.36012 0.30621 0.0
C1036 C 0.1197 0.37259 0.35322 0.0
C1037 C 0.11586 0.3807 0.31205 0.0
C1038 C 0.11738 0.40115 0.38324 0.0
C1039 C 0.11482 0.37127 0.41907 0.0
N1040 N 0.11261 0.38638 0.33517 0.0
N1041 N 0.1154 0.36543 0.39592 0.0
H1042 H 0.19382 0.87148 0.30249 0.0
H1043 H 0.05927 0.85818 0.4194 0.0
H1044 H 0.0645 0.8953 0.30671 0.0
H1045 H 0.19138 0.87824 0.42224 0.0
H1046 H 0.05909 0.86427 0.37646 0.0
H1047 H 0.19218 0.86478 0.34551 0.0
C1048 C 0.16483 0.87474 0.31245 0.0
C1049 C 0.12918 0.88383 0.30147 0.0
C1050 C 0.0879 0.86753 0.38658 0.0
C1051 C 0.12719 0.87646 0.34976 0.0
C1052 C 0.08794 0.86422 0.4109 0.0
C1053 C 0.12523 0.86803 0.424 0.0
C1054 C 0.12586 0.87397 0.37547 0.0
C1055 C 0.16192 0.87552 0.41251 0.0
C1056 C 0.16413 0.87124 0.33683 0.0
C1057 C 0.09248 0.88824 0.31485 0.0
N1058 N 0.16159 0.87799 0.38862 0.0
N1059 N 0.0923 0.88443 0.33845 0.0
H1060 H 0.11578 0.89696 0.79533 0.0
H1061 H 0.11689 0.85865 0.92988 0.0
H1062 H 0.13694 0.83262 0.81616 0.0
H1063 H 0.14175 0.92274 0.90926 0.0
H1064 H 0.11533 0.84881 0.8879 0.0
H1065 H 0.11629 0.90702 0.83734 0.0
C1066 C 0.1205 0.88502 0.80874 0.0
C1067 C 0.12643 0.86401 0.80244 0.0
C1068 C 0.12125 0.865 0.89266 0.0
C1069 C 0.12674 0.8752 0.84999 0.0
C1070 C 0.12208 0.87059 0.91652 0.0
C1071 C 0.12952 0.89146 0.92288 0.0
C1072 C 0.12743 0.8805 0.87528 0.0
C1073 C 0.13607 0.90642 0.90501 0.0
C1074 C 0.1209 0.89072 0.83259 0.0
C1075 C 0.13246 0.84904 0.82034 0.0
N1076 N 0.13468 0.90066 0.88194 0.0
N1077 N 0.1323 0.85492 0.84336 0.0
H1078 H 0.13997 0.35559 0.79757 0.0
H1079 H 0.13337 0.39356 0.93216 0.0
H1080 H 0.1202 0.42017 0.81784 0.0
H1081 H 0.10653 0.32987 0.91074 0.0
H1082 H 0.13621 0.40369 0.89022 0.0
H1083 H 0.13559 0.34558 0.8395 0.0
C1084 C 0.13469 0.3676 0.81084 0.0
C1085 C 0.13039 0.38867 0.80438 0.0
C1086 C 0.12951 0.38753 0.89481 0.0
C1087 C 0.1257 0.37751 0.85193 0.0
C1088 C 0.12796 0.38178 0.91864 0.0
C1089 C 0.11973 0.36091 0.92478 0.0
C1090 C 0.12333 0.37219 0.87723 0.0
C1091 C 0.11289 0.34617 0.9067 0.0
C1092 C 0.13208 0.36192 0.83466 0.0
C1093 C 0.12354 0.40371 0.82213 0.0
N1094 N 0.11511 0.35207 0.8837 0.0
N1095 N 0.12162 0.39784 0.84516 0.0
H1096 H 0.89408 0.67422 0.66194 0.0
H1097 H 0.86056 0.58065 0.5716 0.0
H1098 H 0.89275 0.6093 0.68361 0.0
H1099 H 0.89531 0.64323 0.54945 0.0
H1100 H 0.86991 0.59104 0.61275 0.0
H1101 H 0.89341 0.66327 0.62067 0.0
C1102 C 0.89386 0.6576 0.65795 0.0
C1103 C 0.89307 0.64257 0.67608 0.0
C1104 C 0.8757 0.60248 0.59891 0.0
C1105 C 0.89205 0.62999 0.62896 0.0
C1106 C 0.87008 0.59663 0.57542 0.0
C1107 C 0.87705 0.61119 0.55717 0.0
C1108 C 0.88794 0.62308 0.60419 0.0
C1109 C 0.88953 0.6316 0.56307 0.0
C1110 C 0.89364 0.65139 0.6344 0.0
C1111 C 0.89329 0.62131 0.67005 0.0
N1112 N 0.89441 0.637 0.58619 0.0
N1113 N 0.89228 0.6156 0.64686 0.0
H1114 H 0.90603 0.07704 0.66096 0.0
H1115 H 0.89079 0.17069 0.56895 0.0
H1116 H 0.87855 0.14073 0.68209 0.0
H1117 H 0.87157 0.10601 0.5489 0.0
H1118 H 0.89526 0.1601 0.61033 0.0
H1119 H 0.90267 0.08769 0.61957 0.0
C1120 C 0.89946 0.09333 0.65687 0.0
C1121 C 0.89245 0.10809 0.67489 0.0
C1122 C 0.88995 0.14824 0.59689 0.0
C1123 C 0.88862 0.12026 0.62765 0.0
C1124 C 0.88758 0.15421 0.57328 0.0
C1125 C 0.88077 0.13913 0.55557 0.0
C1126 C 0.88598 0.12702 0.60279 0.0
C1127 C 0.87673 0.11807 0.56211 0.0
C1128 C 0.89733 0.09932 0.63325 0.0
C1129 C 0.88401 0.12891 0.66865 0.0
N1130 N 0.87958 0.11258 0.58531 0.0
N1131 N 0.88243 0.13443 0.64542 0.0
H1132 H 0.86497 0.17224 0.16238 0.0
H1133 H 0.84959 0.07932 0.06958 0.0
H1134 H 0.88075 0.10732 0.18232 0.0
H1135 H 0.88165 0.14273 0.04929 0.0
H1136 H 0.8518 0.0897 0.11108 0.0
H1137 H 0.86241 0.1619 0.12089 0.0
C1138 C 0.86785 0.15576 0.158 0.0
C1139 C 0.87306 0.14054 0.17572 0.0
C1140 C 0.8584 0.10132 0.09756 0.0
C1141 C 0.87 0.12871 0.12836 0.0
C1142 C 0.85691 0.09549 0.07387 0.0
C1143 C 0.86555 0.11025 0.05605 0.0
C1144 C 0.86811 0.12211 0.10342 0.0
C1145 C 0.8749 0.13092 0.06256 0.0
C1146 C 0.86657 0.14993 0.13432 0.0
C1147 C 0.87681 0.11948 0.16911 0.0
N1148 N 0.87584 0.13629 0.08585 0.0
N1149 N 0.87497 0.11413 0.14583 0.0
H1150 H 0.87238 0.60698 0.04874 0.0
H1151 H 0.87544 0.64559 0.18295 0.0
H1152 H 0.89602 0.67136 0.06857 0.0
H1153 H 0.90239 0.58171 0.16234 0.0
H1154 H 0.87501 0.65552 0.14091 0.0
H1155 H 0.87517 0.59721 0.09078 0.0
C1156 C 0.8782 0.61899 0.06193 0.0
C1157 C 0.88401 0.63993 0.05532 0.0
C1158 C 0.88121 0.63937 0.14571 0.0
C1159 C 0.88684 0.62907 0.10299 0.0
C1160 C 0.88139 0.63373 0.16959 0.0
C1161 C 0.88891 0.61286 0.17599 0.0
C1162 C 0.888 0.62391 0.12834 0.0
C1163 C 0.89651 0.59801 0.15812 0.0
C1164 C 0.8799 0.61345 0.08582 0.0
C1165 C 0.89152 0.65499 0.07298 0.0
N1166 N 0.89557 0.6038 0.13505 0.0
N1167 N 0.89247 0.64928 0.09608 0.0
H1168 H 0.70395 0.39613 0.92091 0.0
H1169 H 0.58235 0.38365 0.80006 0.0
H1170 H 0.5725 0.37496 0.91935 0.0
H1171 H 0.70893 0.35717 0.80796 0.0
H1172 H 0.58063 0.39046 0.84301 0.0
H1173 H 0.70899 0.39002 0.87799 0.0
C1174 C 0.67648 0.38986 0.91147 0.0
C1175 C 0.63795 0.38573 0.92332 0.0
C1176 C 0.60889 0.38342 0.83514 0.0
C1177 C 0.64279 0.37983 0.87484 0.0
C1178 C 0.61013 0.37985 0.8108 0.0
C1179 C 0.64586 0.36993 0.80085 0.0
C1180 C 0.64406 0.37747 0.84912 0.0
C1181 C 0.68091 0.36486 0.81527 0.0
C1182 C 0.67928 0.38654 0.88718 0.0
C1183 C 0.60286 0.37794 0.91063 0.0
N1184 N 0.67926 0.36877 0.83885 0.0
N1185 N 0.60586 0.37552 0.88679 0.0
H1186 H 0.62899 0.89431 0.9324 0.0
H1187 H 0.62742 0.85772 0.79763 0.0
H1188 H 0.60599 0.83021 0.91119 0.0
H1189 H 0.60034 0.92137 0.81909 0.0
H1190 H 0.62637 0.84719 0.83944 0.0
H1191 H 0.62556 0.90481 0.89059 0.0
C1192 C 0.62316 0.88252 0.91896 0.0
C1193 C 0.61782 0.86143 0.9251 0.0
C1194 C 0.62041 0.86343 0.83489 0.0
C1195 C 0.61422 0.87313 0.87772 0.0
C1196 C 0.62108 0.8694 0.81113 0.0
C1197 C 0.61409 0.89038 0.80505 0.0
C1198 C 0.6133 0.87866 0.85247 0.0
C1199 C 0.60591 0.90499 0.82309 0.0
C1200 C 0.62107 0.88847 0.89521 0.0
C1201 C 0.61022 0.84667 0.90714 0.0
N1202 N 0.60607 0.89887 0.84606 0.0
N1203 N 0.60892 0.85279 0.88419 0.0
H1204 H 0.62189 0.86004 0.43341 0.0
H1205 H 0.62339 0.89356 0.297 0.0
H1206 H 0.64148 0.92373 0.40976 0.0
H1207 H 0.64561 0.83015 0.32091 0.0
H1208 H 0.62124 0.90501 0.33848 0.0
H1209 H 0.62168 0.84859 0.3919 0.0
C1210 C 0.6261 0.87156 0.41948 0.0
C1211 C 0.63185 0.89278 0.42487 0.0
C1212 C 0.62666 0.88861 0.33455 0.0
C1213 C 0.63137 0.87999 0.37779 0.0
C1214 C 0.62782 0.88211 0.31097 0.0
C1215 C 0.6348 0.86096 0.30566 0.0
C1216 C 0.63206 0.87375 0.35272 0.0
C1217 C 0.64035 0.84666 0.32431 0.0
C1218 C 0.62607 0.86506 0.39589 0.0
C1219 C 0.63718 0.90717 0.4063 0.0
N1220 N 0.63871 0.85331 0.34706 0.0
N1221 N 0.63668 0.90051 0.38352 0.0
H1222 H 0.64026 0.39203 0.42925 0.0
H1223 H 0.63955 0.35898 0.29258 0.0
H1224 H 0.61203 0.3293 0.40493 0.0
H1225 H 0.62799 0.42294 0.31691 0.0
H1226 H 0.64018 0.34728 0.33402 0.0
H1227 H 0.64614 0.40337 0.38788 0.0
C1228 C 0.63529 0.3807 0.4152 0.0
C1229 C 0.62544 0.3598 0.42035 0.0
C1230 C 0.63759 0.36387 0.33018 0.0
C1231 C 0.63244 0.37245 0.37342 0.0
C1232 C 0.63736 0.3705 0.30664 0.0
C1233 C 0.6334 0.39186 0.30149 0.0
C1234 C 0.63429 0.37879 0.34843 0.0
C1235 C 0.63069 0.40626 0.3202 0.0
C1236 C 0.63864 0.38713 0.39168 0.0
C1237 C 0.6194 0.34563 0.40163 0.0
N1238 N 0.63119 0.39946 0.3429 0.0
N1239 N 0.62308 0.35222 0.37891 0.0
H1240 H 0.38447 0.60537 0.18288 0.0
H1241 H 0.38049 0.64227 0.0481 0.0
H1242 H 0.36158 0.6695 0.16177 0.0
H1243 H 0.35392 0.57854 0.06947 0.0
H1244 H 0.38102 0.65261 0.08996 0.0
H1245 H 0.38081 0.59491 0.14105 0.0
C1246 C 0.37862 0.61718 0.16946 0.0
C1247 C 0.37334 0.63826 0.17564 0.0
C1248 C 0.37486 0.63639 0.08539 0.0
C1249 C 0.36951 0.6266 0.12823 0.0
C1250 C 0.37464 0.63052 0.0616 0.0
C1251 C 0.3672 0.60958 0.05547 0.0
C1252 C 0.36819 0.62111 0.10296 0.0
C1253 C 0.35972 0.59489 0.07352 0.0
C1254 C 0.37642 0.61124 0.14569 0.0
C1255 C 0.36574 0.65304 0.1577 0.0
N1256 N 0.3607 0.60091 0.09653 0.0
N1257 N 0.36432 0.64694 0.13475 0.0
H1258 H 0.36612 0.14293 0.1805 0.0
H1259 H 0.363 0.10592 0.04534 0.0
H1260 H 0.38727 0.0788 0.15887 0.0
H1261 H 0.38773 0.16978 0.06687 0.0
H1262 H 0.3624 0.09554 0.08723 0.0
H1263 H 0.36437 0.15324 0.13861 0.0
C1264 C 0.37035 0.13108 0.16694 0.0
C1265 C 0.377 0.11006 0.17299 0.0
C1266 C 0.36803 0.11181 0.08267 0.0
C1267 C 0.37472 0.12155 0.12551 0.0
C1268 C 0.36831 0.11769 0.05887 0.0
C1269 C 0.37553 0.13866 0.05278 0.0
C1270 C 0.3745 0.1271 0.10026 0.0
C1271 C 0.38225 0.1534 0.07087 0.0
C1272 C 0.36945 0.13692 0.14313 0.0
C1273 C 0.38231 0.09522 0.15488 0.0
N1274 N 0.3814 0.14735 0.09385 0.0
N1275 N 0.38091 0.10124 0.13189 0.0
H1276 H 0.39456 0.11146 0.68131 0.0
H1277 H 0.39026 0.14674 0.54551 0.0
H1278 H 0.38264 0.17598 0.65904 0.0
H1279 H 0.3598 0.08401 0.56899 0.0
H1280 H 0.39616 0.15762 0.58708 0.0
H1281 H 0.39127 0.10064 0.63962 0.0
C1282 C 0.39145 0.12329 0.66764 0.0
C1283 C 0.38864 0.14456 0.67346 0.0
C1284 C 0.38806 0.1415 0.58303 0.0
C1285 C 0.38501 0.13249 0.6262 0.0
C1286 C 0.38469 0.13533 0.55941 0.0
C1287 C 0.37451 0.11452 0.55395 0.0
C1288 C 0.38163 0.12663 0.60109 0.0
C1289 C 0.36761 0.10026 0.5725 0.0
C1290 C 0.3894 0.11716 0.64395 0.0
C1291 C 0.38459 0.15937 0.65522 0.0
N1292 N 0.3715 0.10657 0.59529 0.0
N1293 N 0.38296 0.15305 0.63234 0.0
H1294 H 0.36497 0.64398 0.68325 0.0
H1295 H 0.35905 0.61005 0.54674 0.0
H1296 H 0.39087 0.58114 0.65857 0.0
H1297 H 0.37286 0.67418 0.5701 0.0
H1298 H 0.35882 0.5988 0.58832 0.0
H1299 H 0.35651 0.65522 0.64189 0.0
C1300 C 0.36883 0.63261 0.66914 0.0
C1301 C 0.37889 0.61171 0.67418 0.0
C1302 C 0.36177 0.61534 0.58425 0.0
C1303 C 0.3689 0.62422 0.62732 0.0
C1304 C 0.36179 0.62171 0.56062 0.0
C1305 C 0.36638 0.64298 0.55514 0.0
C1306 C 0.36597 0.63042 0.60229 0.0
C1307 C 0.36972 0.65757 0.57365 0.0
C1308 C 0.36401 0.63898 0.64564 0.0
C1309 C 0.38344 0.59748 0.65538 0.0
N1310 N 0.3695 0.65101 0.59647 0.0
N1311 N 0.37836 0.604 0.63274 0.0
H1312 H 0.2774 0.33726 0.24669 0.0
H1313 H 0.47956 0.41562 0.23985 0.0
H1314 H 0.26605 0.40474 0.24654 0.0
H1315 H 0.48981 0.34945 0.25531 0.0
H1316 H 0.40106 0.41177 0.2388 0.0
H1317 H 0.35592 0.34111 0.24598 0.0
C1318 C 0.29129 0.35282 0.24643 0.0
C1319 C 0.26494 0.37064 0.24691 0.0
C1320 C 0.42068 0.39814 0.24246 0.0
C1321 C 0.35459 0.37523 0.24598 0.0
C1322 C 0.46548 0.40036 0.24309 0.0
C1323 C 0.49159 0.38292 0.24778 0.0
C1324 C 0.40192 0.37831 0.24632 0.0
C1325 C 0.4713 0.36345 0.25174 0.0
C1326 C 0.33608 0.35505 0.2461 0.0
C1327 C 0.28489 0.39049 0.24649 0.0
N1328 N 0.42792 0.3617 0.25085 0.0
N1329 N 0.32831 0.39222 0.24605 0.0
H1330 H 0.78129 0.83524 0.23997 0.0
H1331 H 0.98911 0.91017 0.24232 0.0
H1332 H 0.77653 0.90189 0.25342 0.0
H1333 H 0.99566 0.84254 0.24214 0.0
H1334 H 0.91042 0.90768 0.24257 0.0
H1335 H 0.85985 0.83772 0.23727 0.0
C1336 C 0.7966 0.85033 0.24238 0.0
C1337 C 0.77203 0.8683 0.24705 0.0
C1338 C 0.92921 0.8934 0.24244 0.0
C1339 C 0.86179 0.87134 0.24377 0.0
C1340 C 0.97411 0.89485 0.24221 0.0
C1341 C 0.99917 0.87658 0.24241 0.0
C1342 C 0.90927 0.87356 0.24265 0.0
C1343 C 0.97783 0.8571 0.24226 0.0
C1344 C 0.84144 0.85177 0.24083 0.0
C1345 C 0.79384 0.88751 0.24994 0.0
N1346 N 0.9343 0.85612 0.2424 0.0
N1347 N 0.83724 0.8885 0.24821 0.0
H1348 H 0.27348 0.91367 -0.00907 0.0
H1349 H 0.47908 0.83731 0.9869 0.0
H1350 H 0.26654 0.84709 0.97728 0.0
H1351 H 0.48729 0.90487 0.98906 0.0
H1352 H 0.40042 0.84022 0.98769 0.0
H1353 H 0.35186 0.9105 -0.00577 0.0
C1354 C 0.28827 0.89844 0.98864 0.0
C1355 C 0.26318 0.88071 0.98362 0.0
C1356 C 0.41958 0.85439 0.98806 0.0
C1357 C 0.35271 0.87689 0.98757 0.0
C1358 C 0.46446 0.8527 0.98771 0.0
C1359 C 0.48992 0.87083 0.98763 0.0
C1360 C 0.40013 0.87434 0.98855 0.0
C1361 C 0.46909 0.89041 0.98873 0.0
C1362 C 0.33301 0.89661 -0.00947 0.0
C1363 C 0.28432 0.86131 0.98094 0.0
N1364 N 0.42561 0.89163 0.98908 0.0
N1365 N 0.32763 0.85995 0.98293 0.0
H1366 H 0.9771 0.33596 -0.00863 0.0
H1367 H 0.76864 0.41043 -0.01076 0.0
H1368 H 0.98166 0.40319 0.98234 0.0
H1369 H 0.76293 0.34279 0.98772 0.0
H1370 H 0.84726 0.4082 -0.00897 0.0
H1371 H 0.8985 0.33819 -0.00596 0.0
C1372 C 0.96173 0.35114 -0.01001 0.0
C1373 C 0.9862 0.36934 0.98641 0.0
C1374 C 0.82867 0.39386 -0.00961 0.0
C1375 C 0.89643 0.37206 -0.01039 0.0
C1376 C 0.7838 0.39515 -0.01053 0.0
C1377 C 0.75904 0.37682 0.98809 0.0
C1378 C 0.84888 0.3741 -0.0099 0.0
C1379 C 0.78058 0.3574 0.98845 0.0
C1380 C 0.91687 0.35243 -0.00849 0.0
C1381 C 0.96436 0.38864 0.98485 0.0
N1382 N 0.82409 0.35657 -0.01065 0.0
N1383 N 0.92094 0.38946 0.98644 0.0
H1384 H 0.7473 0.59961 0.71517 0.0
H1385 H 0.52174 0.65587 0.73363 0.0
H1386 H 0.7357 0.66376 0.73896 0.0
H1387 H 0.53509 0.5887 0.72741 0.0
H1388 H 0.59939 0.65944 0.73291 0.0
H1389 H 0.66977 0.59611 0.71641 0.0
C1390 C 0.72856 0.61309 0.72057 0.0
C1391 C 0.74849 0.63209 0.72703 0.0
C1392 C 0.58546 0.64391 0.73176 0.0
C1393 C 0.6588 0.62796 0.72847 0.0
C1394 C 0.54097 0.64179 0.73206 0.0
C1395 C 0.5216 0.62189 0.7304 0.0
C1396 C 0.61124 0.62605 0.72955 0.0
C1397 C 0.54849 0.60432 0.72872 0.0
C1398 C 0.68408 0.61096 0.72136 0.0
C1399 C 0.72199 0.64885 0.73381 0.0
N1400 N 0.59198 0.60683 0.72817 0.0
N1401 N 0.6785 0.64639 0.73433 0.0
H1402 H 0.03914 0.08622 0.72621 0.0
H1403 H 0.24004 0.16362 0.74647 0.0
H1404 H 0.02625 0.15099 0.74713 0.0
H1405 H 0.24875 0.10371 0.71102 0.0
H1406 H 0.16215 0.15839 0.75016 0.0
H1407 H 0.11755 0.09095 0.72496 0.0
C1408 C 0.05279 0.1013 0.73083 0.0
C1409 C 0.02614 0.11825 0.73654 0.0
C1410 C 0.18128 0.14645 0.74153 0.0
C1411 C 0.11542 0.12387 0.73507 0.0
C1412 C 0.22571 0.1495 0.7393 0.0
C1413 C 0.25128 0.13414 0.72846 0.0
C1414 C 0.16235 0.12784 0.733 0.0
C1415 C 0.23069 0.11604 0.71964 0.0
C1416 C 0.09745 0.10408 0.72994 0.0
C1417 C 0.04556 0.13753 0.7423 0.0
N1418 N 0.18771 0.11338 0.7222 0.0
N1419 N 0.08885 0.13982 0.74136 0.0
H1420 H 0.51897 0.1626 0.98782 0.0
H1421 H 0.72503 0.08648 -0.00968 0.0
H1422 H 0.51168 0.09526 -0.00497 0.0
H1423 H 0.73243 0.15404 -0.00627 0.0
H1424 H 0.64646 0.08928 0.98803 0.0
H1425 H 0.59757 0.15975 0.98606 0.0
C1426 C 0.53375 0.14727 0.98896 0.0
C1427 C 0.5085 0.12922 -0.00819 0.0
C1428 C 0.66544 0.10347 0.98923 0.0
C1429 C 0.59829 0.12578 -0.01031 0.0
C1430 C 0.71027 0.10185 -0.00952 0.0
C1431 C 0.7355 0.11998 -0.00753 0.0
C1432 C 0.64577 0.12337 -0.01021 0.0
C1433 C 0.71446 0.13954 -0.00747 0.0
C1434 C 0.5786 0.14562 0.98799 0.0
C1435 C 0.5296 0.10971 -0.00689 0.0
N1436 N 0.67103 0.14069 -0.00874 0.0
N1437 N 0.57304 0.10853 -0.00793 0.0
H1438 H 0.22732 0.58591 -0.00961 0.0
H1439 H 0.02203 0.66255 0.98756 0.0
H1440 H 0.23555 0.65349 -0.00784 0.0
H1441 H 0.01425 0.59529 -0.00455 0.0
H1442 H 0.10056 0.65948 0.98513 0.0
H1443 H 0.14879 0.58889 0.98809 0.0
C1444 C 0.21275 0.60132 -0.00984 0.0
C1445 C 0.23819 0.61941 -0.00826 0.0
C1446 C 0.0815 0.64541 0.98733 0.0
C1447 C 0.1485 0.62301 0.98905 0.0
C1448 C 0.03668 0.64718 0.98868 0.0
C1449 C 0.01134 0.62923 -0.00803 0.0
C1450 C 0.10103 0.62554 0.98912 0.0
C1451 C 0.03226 0.60967 -0.00678 0.0
C1452 C 0.16793 0.60305 0.98891 0.0
C1453 C 0.2174 0.63903 -0.00868 0.0
N1454 N 0.07566 0.60837 -0.00815 0.0
N1455 N 0.17397 0.64028 -0.00992 0.0
H1456 H 0.48553 0.84852 0.73409 0.0
H1457 H 0.2633 0.90795 0.75277 0.0
H1458 H 0.47627 0.91537 0.74481 0.0
H1459 H 0.27147 0.84257 0.73325 0.0
H1460 H 0.3407 0.91079 0.74978 0.0
H1461 H 0.40766 0.84621 0.73303 0.0
C1462 C 0.4671 0.8628 0.73614 0.0
C1463 C 0.48764 0.8822 0.73981 0.0
C1464 C 0.3257 0.89582 0.74609 0.0
C1465 C 0.39778 0.87953 0.73869 0.0
C1466 C 0.28126 0.89408 0.74789 0.0
C1467 C 0.26041 0.87487 0.74337 0.0
C1468 C 0.35009 0.87825 0.73984 0.0
C1469 C 0.28593 0.85764 0.73698 0.0
C1470 C 0.42249 0.86142 0.73548 0.0
C1471 C 0.46189 0.90012 0.74197 0.0
N1472 N 0.32944 0.85972 0.73551 0.0
N1473 N 0.41825 0.89831 0.74161 0.0
H1474 H 0.78227 0.34112 0.73784 0.0
H1475 H 0.99354 0.41382 0.73564 0.0
H1476 H 0.77893 0.4088 0.7368 0.0
H1477 H 0.99524 0.3468 0.74669 0.0
H1478 H 0.91494 0.4122 0.73227 0.0
H1479 H 0.861 0.34269 0.73706 0.0
C1480 C 0.79797 0.35626 0.73728 0.0
C1481 C 0.7738 0.37481 0.73761 0.0
C1482 C 0.93269 0.39787 0.7354 0.0
C1483 C 0.86382 0.37679 0.73673 0.0
C1484 C 0.97755 0.39881 0.73731 0.0
C1485 C 1.00123 0.3805 0.74166 0.0
C1486 C 0.91144 0.37846 0.73769 0.0
C1487 C 0.97859 0.36143 0.74358 0.0
C1488 C 0.84292 0.35719 0.73693 0.0
C1489 C 0.79606 0.39404 0.73686 0.0
N1490 N 0.93519 0.36094 0.7416 0.0
N1491 N 0.83963 0.39452 0.73652 0.0
H1492 H 0.26003 0.35056 0.46204 0.0
H1493 H 0.48686 0.40429 0.48491 0.0
H1494 H 0.27274 0.41308 0.49073 0.0
H1495 H 0.47175 0.33779 0.47334 0.0
H1496 H 0.40924 0.40831 0.48495 0.0
H1497 H 0.33738 0.34657 0.46332 0.0
C1498 C 0.27898 0.36359 0.46855 0.0
C1499 C 0.25937 0.38226 0.47637 0.0
C1500 C 0.42276 0.39282 0.48248 0.0
C1501 C 0.34898 0.37755 0.47785 0.0
C1502 C 0.46721 0.39045 0.48235 0.0
C1503 C 0.48606 0.37062 0.47889 0.0
C1504 C 0.39651 0.37529 0.47887 0.0
C1505 C 0.45872 0.35333 0.47604 0.0
C1506 C 0.32337 0.36116 0.46936 0.0
C1507 C 0.28619 0.39844 0.48448 0.0
N1508 N 0.41529 0.3561 0.47589 0.0
N1509 N 0.32963 0.39571 0.48499 0.0
H1510 H 0.99414 0.91237 0.48177 0.0
H1511 H 0.7719 0.85062 0.47986 0.0
H1512 H 0.98494 0.84498 0.48729 0.0
H1513 H 0.77973 0.91798 0.48661 0.0
H1514 H 0.84952 0.84852 0.4816 0.0
H1515 H 0.91628 0.91474 0.48274 0.0
C1516 C 0.97581 0.89799 0.48319 0.0
C1517 C 0.99641 0.87836 0.48429 0.0
C1518 C 0.83442 0.86378 0.48275 0.0
C1519 C 0.90651 0.88113 0.48539 0.0
C1520 C 0.78986 0.86508 0.48164 0.0
C1521 C 0.76888 0.88461 0.48291 0.0
C1522 C 0.85878 0.88211 0.485 0.0
C1523 C 0.79434 0.90262 0.4855 0.0
C1524 C 0.93118 0.89943 0.48383 0.0
C1525 C 0.97062 0.86042 0.48637 0.0
N1526 N 0.83799 0.90095 0.48632 0.0
N1527 N 0.92702 0.86223 0.4867 0.0
H1528 H 0.51538 0.15443 0.22253 0.0
H1529 H 0.73882 0.09573 0.23937 0.0
H1530 H 0.52493 0.08881 0.2408 0.0
H1531 H 0.72815 0.16299 0.23321 0.0
H1532 H 0.66105 0.09293 0.23942 0.0
H1533 H 0.5928 0.15757 0.22543 0.0
C1534 C 0.53366 0.14057 0.2271 0.0
C1535 C 0.5132 0.12121 0.23134 0.0
C1536 C 0.67555 0.10832 0.23816 0.0
C1537 C 0.60282 0.12493 0.23475 0.0
C1538 C 0.72012 0.11 0.23804 0.0
C1539 C 0.74028 0.12968 0.23603 0.0
C1540 C 0.65046 0.12643 0.23606 0.0
C1541 C 0.71411 0.14753 0.23475 0.0
C1542 C 0.57808 0.14249 0.22886 0.0
C1543 C 0.53908 0.104 0.23731 0.0
N1544 N 0.6705 0.14546 0.23457 0.0
N1545 N 0.58255 0.10626 0.23875 0.0
H1546 H 0.02801 0.58801 0.24145 0.0
H1547 H 0.23598 0.66304 0.24238 0.0
H1548 H 0.02225 0.65562 0.23842 0.0
H1549 H 0.24147 0.59561 0.23594 0.0
H1550 H 0.15737 0.66062 0.24488 0.0
H1551 H 0.10667 0.59038 0.24344 0.0
C1552 C 0.04314 0.6033 0.24133 0.0
C1553 C 0.01834 0.62158 0.2395 0.0
C1554 C 0.17594 0.64637 0.24297 0.0
C1555 C 0.10819 0.62447 0.24183 0.0
C1556 C 0.22081 0.64778 0.24159 0.0
C1557 C 0.24553 0.62958 0.2387 0.0
C1558 C 0.15574 0.62662 0.24164 0.0
C1559 C 0.22394 0.61016 0.23786 0.0
C1560 C 0.08803 0.60468 0.2424 0.0
C1561 C 0.03986 0.64102 0.23948 0.0
N1562 N 0.1805 0.60922 0.23926 0.0
N1563 N 0.08334 0.64193 0.24056 0.0
H1564 H 0.72316 0.58805 0.49845 0.0
H1565 H 0.52005 0.66583 0.49407 0.0
H1566 H 0.73329 0.65556 0.50091 0.0
H1567 H 0.51011 0.59929 0.50734 0.0
H1568 H 0.59854 0.66219 0.49306 0.0
H1569 H 0.64454 0.59156 0.49799 0.0
C1570 C 0.709 0.60355 0.49885 0.0
C1571 C 0.73505 0.62147 0.49993 0.0
C1572 C 0.57901 0.64842 0.49623 0.0
C1573 C 0.6453 0.62566 0.49924 0.0
C1574 C 0.53421 0.65052 0.49682 0.0
C1575 C 0.50819 0.63293 0.50093 0.0
C1576 C 0.59791 0.62856 0.49953 0.0
C1577 C 0.52858 0.61341 0.50427 0.0
C1578 C 0.66415 0.60557 0.49864 0.0
C1579 C 0.71474 0.64122 0.50035 0.0
N1580 N 0.572 0.61177 0.50343 0.0
N1581 N 0.67129 0.64276 0.49998 0.0
H1582 H 0.02031 0.16353 0.49056 0.0
H1583 H 0.22833 0.08861 0.49056 0.0
H1584 H 0.01491 0.09608 0.49674 0.0
H1585 H 0.23425 0.15613 0.49562 0.0
H1586 H 0.14967 0.09101 0.48902 0.0
H1587 H 0.09902 0.1612 0.48856 0.0
C1588 C 0.03552 0.14829 0.49141 0.0
C1589 C 0.01078 0.13005 0.49406 0.0
C1590 C 0.16834 0.10528 0.49043 0.0
C1591 C 0.10066 0.1272 0.49168 0.0
C1592 C 0.21324 0.10389 0.49128 0.0
C1593 C 0.23813 0.12212 0.49344 0.0
C1594 C 0.14822 0.12505 0.49157 0.0
C1595 C 0.21661 0.14156 0.49422 0.0
C1596 C 0.08043 0.14693 0.49032 0.0
C1597 C 0.03242 0.11066 0.495 0.0
N1598 N 0.17311 0.14249 0.49331 0.0
N1599 N 0.07589 0.10977 0.49384 0.0
loop_
_geom_bond_atom_site_label_1
_geom_bond_atom_site_label_2
_geom_bond_distance
_geom_bond_site_symmetry_2
_ccdc_geom_bond_type
Co0 O1 2.216 . S
Co0 O2 2.091 . S
Co0 O4 2.004 . S
Co0 O10 2.021 . S
Co0 O12 2.137 . S
Co0 O13 2.244 . S
O1 Co0 2.216 . S
O1 C8 1.247 . S
O2 Co0 2.091 . S
O2 C8 1.261 . S
C3 O12 1.247 . S
C3 O13 1.272 . S
O4 Co0 2.004 . S
O4 C9 1.259 . S
Co5 O6 2.061 . S
Co5 O11 2.052 . S
Co5 O13 2.135 . S
O6 Co5 2.061 . S
O6 C9 1.235 . S
C7 O10 1.238 . S
C7 O11 1.241 . S
C8 O1 1.247 . S
C8 O2 1.261 . S
C9 O4 1.259 . S
C9 O6 1.235 . S
O10 Co0 2.021 . S
O10 C7 1.238 . S
O11 Co5 2.052 . S
O11 C7 1.241 . S
O12 Co0 2.137 . S
O12 C3 1.247 . S
O13 Co0 2.244 . S
O13 C3 1.272 . S
O13 Co5 2.135 . S
Co14 O15 2.216 . S
Co14 O16 2.091 . S
Co14 O18 2.004 . S
Co14 O24 2.021 . S
Co14 O26 2.137 . S
Co14 O27 2.244 . S
O15 Co14 2.216 . S
O15 C22 1.247 . S
O16 Co14 2.091 . S
O16 C22 1.261 . S
C17 O26 1.247 . S
C17 O27 1.272 . S
O18 Co14 2.004 . S
O18 C23 1.259 . S
Co19 O20 2.061 . S
Co19 O25 2.052 . S
Co19 O27 2.135 . S
O20 Co19 2.061 . S
O20 C23 1.235 . S
C21 O24 1.238 . S
C21 O25 1.241 . S
C22 O15 1.247 . S
C22 O16 1.261 . S
C23 O18 1.259 . S
C23 O20 1.235 . S
O24 Co14 2.021 . S
O24 C21 1.238 . S
O25 Co19 2.052 . S
O25 C21 1.241 . S
O26 Co14 2.137 . S
O26 C17 1.247 . S
O27 Co14 2.244 . S
O27 C17 1.272 . S
O27 Co19 2.135 . S
Co28 O29 2.216 . S
Co28 O30 2.091 . S
Co28 O32 2.004 . S
Co28 O38 2.021 1_556 S
Co28 O40 2.137 . S
Co28 O41 2.244 . S
O29 Co28 2.216 . S
O29 C36 1.247 . S
O30 Co28 2.091 . S
O30 C36 1.261 . S
C31 O40 1.247 . S
C31 O41 1.272 . S
O32 Co28 2.004 . S
O32 C37 1.263 . S
Co33 O34 2.061 . S
Co33 O39 2.052 . S
Co33 O41 2.135 1_554 S
O34 Co33 2.061 . S
O34 C37 1.232 1_554 S
C35 O38 1.238 . S
C35 O39 1.241 . S
C36 O29 1.247 . S
C36 O30 1.261 . S
C37 O32 1.263 . S
C37 O34 1.232 1_556 S
O38 Co28 2.021 1_554 S
O38 C35 1.238 . S
O39 Co33 2.052 . S
O39 C35 1.241 . S
O40 Co28 2.137 . S
O40 C31 1.247 . S
O41 Co28 2.244 . S
O41 C31 1.272 . S
O41 Co33 2.135 1_556 S
Co42 O43 2.216 . S
Co42 O44 2.091 . S
Co42 O46 2.004 . S
Co42 O52 2.021 1_556 S
Co42 O54 2.137 . S
Co42 O55 2.244 . S
O43 Co42 2.216 . S
O43 C50 1.247 . S
O44 Co42 2.091 . S
O44 C50 1.261 . S
C45 O54 1.247 . S
C45 O55 1.272 . S
O46 Co42 2.004 . S
O46 C51 1.263 . S
Co47 O48 2.061 . S
Co47 O53 2.052 . S
Co47 O55 2.135 1_554 S
O48 Co47 2.061 . S
O48 C51 1.232 1_554 S
C49 O52 1.238 . S
C49 O53 1.241 . S
C50 O43 1.247 . S
C50 O44 1.261 . S
C51 O46 1.263 . S
C51 O48 1.232 1_556 S
O52 Co42 2.021 1_554 S
O52 C49 1.238 . S
O53 Co47 2.052 . S
O53 C49 1.241 . S
O54 Co42 2.137 . S
O54 C45 1.247 . S
O55 Co42 2.244 . S
O55 C45 1.272 . S
O55 Co47 2.135 1_556 S
Co56 O57 2.216 . S
Co56 O58 2.091 . S
Co56 O60 2.004 . S
Co56 O66 2.021 . S
Co56 O68 2.137 . S
Co56 O69 2.244 . S
O57 Co56 2.216 . S
O57 C64 1.247 . S
O58 Co56 2.091 . S
O58 C64 1.261 . S
C59 O68 1.247 . S
C59 O69 1.272 . S
O60 Co56 2.004 . S
O60 C65 1.259 . S
Co61 O62 2.061 . S
Co61 O67 2.052 . S
Co61 O69 2.135 . S
O62 Co61 2.061 . S
O62 C65 1.235 . S
C63 O66 1.238 . S
C63 O67 1.241 . S
C64 O57 1.247 . S
C64 O58 1.261 . S
C65 O60 1.259 . S
C65 O62 1.235 . S
O66 Co56 2.021 . S
O66 C63 1.238 . S
O67 Co61 2.052 . S
O67 C63 1.241 . S
O68 Co56 2.137 . S
O68 C59 1.247 . S
O69 Co56 2.244 . S
O69 C59 1.272 . S
O69 Co61 2.135 . S
Co70 O71 2.216 . S
Co70 O72 2.091 . S
Co70 O74 2.004 . S
Co70 O80 2.021 . S
Co70 O82 2.137 . S
Co70 O83 2.244 . S
O71 Co70 2.216 . S
O71 C78 1.247 . S
O72 Co70 2.091 . S
O72 C78 1.261 . S
C73 O82 1.247 . S
C73 O83 1.272 . S
O74 Co70 2.004 . S
O74 C79 1.259 . S
Co75 O76 2.061 . S
Co75 O81 2.052 . S
Co75 O83 2.135 . S
O76 Co75 2.061 . S
O76 C79 1.235 . S
C77 O80 1.238 . S
C77 O81 1.241 . S
C78 O71 1.247 . S
C78 O72 1.261 . S
C79 O74 1.259 . S
C79 O76 1.235 . S
O80 Co70 2.021 . S
O80 C77 1.238 . S
O81 Co75 2.052 . S
O81 C77 1.241 . S
O82 Co70 2.137 . S
O82 C73 1.247 . S
O83 Co70 2.244 . S
O83 C73 1.272 . S
O83 Co75 2.135 . S
Co84 O85 2.216 . S
Co84 O86 2.091 . S
Co84 O88 2.004 . S
Co84 O94 2.021 1_554 S
Co84 O96 2.137 . S
Co84 O97 2.244 . S
O85 Co84 2.216 . S
O85 C92 1.247 . S
O86 Co84 2.091 . S
O86 C92 1.261 . S
C87 O96 1.247 . S
C87 O97 1.272 . S
O88 Co84 2.004 . S
O88 C93 1.263 . S
Co89 O90 2.061 . S
Co89 O95 2.052 . S
Co89 O97 2.135 1_556 S
O90 Co89 2.061 . S
O90 C93 1.232 1_556 S
C91 O94 1.238 . S
C91 O95 1.241 . S
C92 O85 1.247 . S
C92 O86 1.261 . S
C93 O88 1.263 . S
C93 O90 1.232 1_554 S
O94 Co84 2.021 1_556 S
O94 C91 1.238 . S
O95 Co89 2.052 . S
O95 C91 1.241 . S
O96 Co84 2.137 . S
O96 C87 1.247 . S
O97 Co84 2.244 . S
O97 C87 1.272 . S
O97 Co89 2.135 1_554 S
Co98 O99 2.216 . S
Co98 O100 2.091 . S
Co98 O102 2.004 . S
Co98 O108 2.021 1_554 S
Co98 O110 2.137 . S
Co98 O111 2.244 . S
O99 Co98 2.216 . S
O99 C106 1.247 . S
O100 Co98 2.091 . S
O100 C106 1.261 . S
C101 O110 1.247 . S
C101 O111 1.272 . S
O102 Co98 2.004 . S
O102 C107 1.263 . S
Co103 O104 2.061 . S
Co103 O109 2.052 . S
Co103 O111 2.135 1_556 S
O104 Co103 2.061 . S
O104 C107 1.232 1_556 S
C105 O108 1.238 . S
C105 O109 1.241 . S
C106 O99 1.247 . S
C106 O100 1.261 . S
C107 O102 1.263 . S
C107 O104 1.232 1_554 S
O108 Co98 2.021 1_556 S
O108 C105 1.238 . S
O109 Co103 2.052 . S
O109 C105 1.241 . S
O110 Co98 2.137 . S
O110 C101 1.247 . S
O111 Co98 2.244 . S
O111 C101 1.272 . S
O111 Co103 2.135 1_554 S
Co112 O113 2.216 . S
Co112 O114 2.091 . S
Co112 O116 2.004 . S
Co112 O122 2.021 . S
Co112 O124 2.137 . S
Co112 O125 2.244 . S
O113 Co112 2.216 . S
O113 C120 1.247 . S
O114 Co112 2.091 . S
O114 C120 1.261 . S
C115 O124 1.247 . S
C115 O125 1.272 . S
O116 Co112 2.004 . S
O116 C121 1.259 . S
Co117 O118 2.061 . S
Co117 O123 2.052 . S
Co117 O125 2.135 . S
O118 Co117 2.061 . S
O118 C121 1.235 . S
C119 O122 1.238 . S
C119 O123 1.241 . S
C120 O113 1.247 . S
C120 O114 1.261 . S
C121 O116 1.259 . S
C121 O118 1.235 . S
O122 Co112 2.021 . S
O122 C119 1.238 . S
O123 Co117 2.052 . S
O123 C119 1.241 . S
O124 Co112 2.137 . S
O124 C115 1.247 . S
O125 Co112 2.244 . S
O125 C115 1.272 . S
O125 Co117 2.135 . S
Co126 O127 2.216 . S
Co126 O128 2.091 . S
Co126 O130 2.004 . S
Co126 O136 2.021 . S
Co126 O138 2.137 . S
Co126 O139 2.244 . S
O127 Co126 2.216 . S
O127 C134 1.247 . S
O128 Co126 2.091 . S
O128 C134 1.261 . S
C129 O138 1.247 . S
C129 O139 1.272 . S
O130 Co126 2.004 . S
O130 C135 1.259 . S
Co131 O132 2.061 . S
Co131 O137 2.052 . S
Co131 O139 2.135 . S
O132 Co131 2.061 . S
O132 C135 1.235 . S
C133 O136 1.238 . S
C133 O137 1.241 . S
C134 O127 1.247 . S
C134 O128 1.261 . S
C135 O130 1.259 . S
C135 O132 1.235 . S
O136 Co126 2.021 . S
O136 C133 1.238 . S
O137 Co131 2.052 . S
O137 C133 1.241 . S
O138 Co126 2.137 . S
O138 C129 1.247 . S
O139 Co126 2.244 . S
O139 C129 1.272 . S
O139 Co131 2.135 . S
Co140 O141 2.216 . S
Co140 O142 2.091 . S
Co140 O144 2.004 . S
Co140 O150 2.021 . S
Co140 O152 2.137 . S
Co140 O153 2.244 . S
O141 Co140 2.216 . S
O141 C148 1.247 . S
O142 Co140 2.091 . S
O142 C148 1.261 . S
C143 O152 1.247 . S
C143 O153 1.272 . S
O144 Co140 2.004 . S
O144 C149 1.259 . S
Co145 O146 2.061 . S
Co145 O151 2.052 . S
Co145 O153 2.135 . S
O146 Co145 2.061 . S
O146 C149 1.235 . S
C147 O150 1.238 . S
C147 O151 1.241 . S
C148 O141 1.247 . S
C148 O142 1.261 . S
C149 O144 1.259 . S
C149 O146 1.235 . S
O150 Co140 2.021 . S
O150 C147 1.238 . S
O151 Co145 2.052 . S
O151 C147 1.241 . S
O152 Co140 2.137 . S
O152 C143 1.247 . S
O153 Co140 2.244 . S
O153 C143 1.272 . S
O153 Co145 2.135 . S
Co154 O155 2.216 . S
Co154 O156 2.091 . S
Co154 O158 2.004 . S
Co154 O164 2.021 . S
Co154 O166 2.137 . S
Co154 O167 2.244 . S
O155 Co154 2.216 . S
O155 C162 1.247 . S
O156 Co154 2.091 . S
O156 C162 1.261 . S
C157 O166 1.247 . S
C157 O167 1.272 . S
O158 Co154 2.004 . S
O158 C163 1.259 . S
Co159 O160 2.061 . S
Co159 O165 2.052 . S
Co159 O167 2.135 . S
O160 Co159 2.061 . S
O160 C163 1.235 . S
C161 O164 1.238 . S
C161 O165 1.241 . S
C162 O155 1.247 . S
C162 O156 1.261 . S
C163 O158 1.259 . S
C163 O160 1.235 . S
O164 Co154 2.021 . S
O164 C161 1.238 . S
O165 Co159 2.052 . S
O165 C161 1.241 . S
O166 Co154 2.137 . S
O166 C157 1.247 . S
O167 Co154 2.244 . S
O167 C157 1.272 . S
O167 Co159 2.135 . S
Co168 O169 2.216 . S
Co168 O170 2.091 . S
Co168 O172 2.004 . S
Co168 O178 2.021 . S
Co168 O180 2.137 . S
Co168 O181 2.244 . S
O169 Co168 2.216 . S
O169 C176 1.247 . S
O170 Co168 2.091 . S
O170 C176 1.261 . S
C171 O180 1.247 . S
C171 O181 1.272 . S
O172 Co168 2.004 . S
O172 C177 1.259 . S
Co173 O174 2.061 . S
Co173 O179 2.052 . S
Co173 O181 2.135 . S
O174 Co173 2.061 . S
O174 C177 1.235 . S
C175 O178 1.238 . S
C175 O179 1.241 . S
C176 O169 1.247 . S
C176 O170 1.261 . S
C177 O172 1.259 . S
C177 O174 1.235 . S
O178 Co168 2.021 . S
O178 C175 1.238 . S
O179 Co173 2.052 . S
O179 C175 1.241 . S
O180 Co168 2.137 . S
O180 C171 1.247 . S
O181 Co168 2.244 . S
O181 C171 1.272 . S
O181 Co173 2.135 . S
Co182 O183 2.216 . S
Co182 O184 2.091 . S
Co182 O186 2.004 . S
Co182 O192 2.021 . S
Co182 O194 2.137 . S
Co182 O195 2.244 . S
O183 Co182 2.216 . S
O183 C190 1.247 . S
O184 Co182 2.091 . S
O184 C190 1.261 . S
C185 O194 1.247 . S
C185 O195 1.272 . S
O186 Co182 2.004 . S
O186 C191 1.259 . S
Co187 O188 2.061 . S
Co187 O193 2.052 . S
Co187 O195 2.135 . S
O188 Co187 2.061 . S
O188 C191 1.235 . S
C189 O192 1.238 . S
C189 O193 1.241 . S
C190 O183 1.247 . S
C190 O184 1.261 . S
C191 O186 1.259 . S
C191 O188 1.235 . S
O192 Co182 2.021 . S
O192 C189 1.238 . S
O193 Co187 2.052 . S
O193 C189 1.241 . S
O194 Co182 2.137 . S
O194 C185 1.247 . S
O195 Co182 2.244 . S
O195 C185 1.272 . S
O195 Co187 2.135 . S
Co196 O197 2.216 . S
Co196 O198 2.091 . S
Co196 O200 2.004 . S
Co196 O206 2.021 . S
Co196 O208 2.137 . S
Co196 O209 2.244 . S
O197 Co196 2.216 . S
O197 C204 1.247 . S
O198 Co196 2.091 . S
O198 C204 1.261 . S
C199 O208 1.247 . S
C199 O209 1.272 . S
O200 Co196 2.004 . S
O200 C205 1.259 . S
Co201 O202 2.061 . S
Co201 O207 2.052 . S
Co201 O209 2.135 . S
O202 Co201 2.061 . S
O202 C205 1.235 . S
C203 O206 1.238 . S
C203 O207 1.241 . S
C204 O197 1.247 . S
C204 O198 1.261 . S
C205 O200 1.259 . S
C205 O202 1.235 . S
O206 Co196 2.021 . S
O206 C203 1.238 . S
O207 Co201 2.052 . S
O207 C203 1.241 . S
O208 Co196 2.137 . S
O208 C199 1.247 . S
O209 Co196 2.244 . S
O209 C199 1.272 . S
O209 Co201 2.135 . S
Co210 O211 2.216 . S
Co210 O212 2.091 . S
Co210 O214 2.004 . S
Co210 O220 2.021 . S
Co210 O222 2.137 . S
Co210 O223 2.244 . S
O211 Co210 2.216 . S
O211 C218 1.247 . S
O212 Co210 2.091 . S
O212 C218 1.261 . S
C213 O222 1.247 . S
C213 O223 1.272 . S
O214 Co210 2.004 . S
O214 C219 1.259 . S
Co215 O216 2.061 . S
Co215 O221 2.052 . S
Co215 O223 2.135 . S
O216 Co215 2.061 . S
O216 C219 1.235 . S
C217 O220 1.238 . S
C217 O221 1.241 . S
C218 O211 1.247 . S
C218 O212 1.261 . S
C219 O214 1.259 . S
C219 O216 1.235 . S
O220 Co210 2.021 . S
O220 C217 1.238 . S
O221 Co215 2.052 . S
O221 C217 1.241 . S
O222 Co210 2.137 . S
O222 C213 1.247 . S
O223 Co210 2.244 . S
O223 C213 1.272 . S
O223 Co215 2.135 . S
Co224 O225 2.216 . S
Co224 O226 2.091 . S
Co224 O228 2.004 . S
Co224 O234 2.021 . S
Co224 O236 2.137 . S
Co224 O237 2.244 . S
O225 Co224 2.216 . S
O225 C232 1.247 . S
O226 Co224 2.091 . S
O226 C232 1.261 . S
C227 O236 1.247 . S
C227 O237 1.272 . S
O228 Co224 2.004 . S
O228 C233 1.259 . S
Co229 O230 2.061 . S
Co229 O235 2.052 . S
Co229 O237 2.135 . S
O230 Co229 2.061 . S
O230 C233 1.235 . S
C231 O234 1.238 . S
C231 O235 1.241 . S
C232 O225 1.247 . S
C232 O226 1.261 . S
C233 O228 1.259 . S
C233 O230 1.235 . S
O234 Co224 2.021 . S
O234 C231 1.238 . S
O235 Co229 2.052 . S
O235 C231 1.241 . S
O236 Co224 2.137 . S
O236 C227 1.247 . S
O237 Co224 2.244 . S
O237 C227 1.272 . S
O237 Co229 2.135 . S
Co238 O239 2.216 . S
Co238 O240 2.091 . S
Co238 O242 2.004 . S
Co238 O248 2.021 . S
Co238 O250 2.137 . S
Co238 O251 2.244 . S
O239 Co238 2.216 . S
O239 C246 1.247 . S
O240 Co238 2.091 . S
O240 C246 1.261 . S
C241 O250 1.247 . S
C241 O251 1.272 . S
O242 Co238 2.004 . S
O242 C247 1.259 . S
Co243 O244 2.061 . S
Co243 O249 2.052 . S
Co243 O251 2.135 . S
O244 Co243 2.061 . S
O244 C247 1.235 . S
C245 O248 1.238 . S
C245 O249 1.241 . S
C246 O239 1.247 . S
C246 O240 1.261 . S
C247 O242 1.259 . S
C247 O244 1.235 . S
O248 Co238 2.021 . S
O248 C245 1.238 . S
O249 Co243 2.052 . S
O249 C245 1.241 . S
O250 Co238 2.137 . S
O250 C241 1.247 . S
O251 Co238 2.244 . S
O251 C241 1.272 . S
O251 Co243 2.135 . S
Co252 O253 2.216 . S
Co252 O254 2.091 . S
Co252 O256 2.004 . S
Co252 O262 2.021 . S
Co252 O264 2.137 . S
Co252 O265 2.244 . S
O253 Co252 2.216 . S
O253 C260 1.247 . S
O254 Co252 2.091 . S
O254 C260 1.261 . S
C255 O264 1.247 . S
C255 O265 1.272 . S
O256 Co252 2.004 . S
O256 C261 1.259 . S
Co257 O258 2.061 . S
Co257 O263 2.052 . S
Co257 O265 2.135 . S
O258 Co257 2.061 . S
O258 C261 1.235 . S
C259 O262 1.238 . S
C259 O263 1.241 . S
C260 O253 1.247 . S
C260 O254 1.261 . S
C261 O256 1.259 . S
C261 O258 1.235 . S
O262 Co252 2.021 . S
O262 C259 1.238 . S
O263 Co257 2.052 . S
O263 C259 1.241 . S
O264 Co252 2.137 . S
O264 C255 1.247 . S
O265 Co252 2.244 . S
O265 C255 1.272 . S
O265 Co257 2.135 . S
Co266 O267 2.216 . S
Co266 O268 2.091 . S
Co266 O270 2.004 . S
Co266 O276 2.021 . S
Co266 O278 2.137 . S
Co266 O279 2.244 . S
O267 Co266 2.216 . S
O267 C274 1.247 . S
O268 Co266 2.091 . S
O268 C274 1.261 . S
C269 O278 1.247 . S
C269 O279 1.272 . S
O270 Co266 2.004 . S
O270 C275 1.259 . S
Co271 O272 2.061 . S
Co271 O277 2.052 . S
Co271 O279 2.135 . S
O272 Co271 2.061 . S
O272 C275 1.235 . S
C273 O276 1.238 . S
C273 O277 1.241 . S
C274 O267 1.247 . S
C274 O268 1.261 . S
C275 O270 1.259 . S
C275 O272 1.235 . S
O276 Co266 2.021 . S
O276 C273 1.238 . S
O277 Co271 2.052 . S
O277 C273 1.241 . S
O278 Co266 2.137 . S
O278 C269 1.247 . S
O279 Co266 2.244 . S
O279 C269 1.272 . S
O279 Co271 2.135 . S
Co280 O281 2.216 . S
Co280 O282 2.091 . S
Co280 O284 2.004 . S
Co280 O290 2.021 . S
Co280 O292 2.137 . S
Co280 O293 2.244 . S
O281 Co280 2.216 . S
O281 C288 1.247 . S
O282 Co280 2.091 . S
O282 C288 1.261 . S
C283 O292 1.247 . S
C283 O293 1.272 . S
O284 Co280 2.004 . S
O284 C289 1.259 . S
Co285 O286 2.061 . S
Co285 O291 2.052 . S
Co285 O293 2.135 . S
O286 Co285 2.061 . S
O286 C289 1.235 . S
C287 O290 1.238 . S
C287 O291 1.241 . S
C288 O281 1.247 . S
C288 O282 1.261 . S
C289 O284 1.259 . S
C289 O286 1.235 . S
O290 Co280 2.021 . S
O290 C287 1.238 . S
O291 Co285 2.052 . S
O291 C287 1.241 . S
O292 Co280 2.137 . S
O292 C283 1.247 . S
O293 Co280 2.244 . S
O293 C283 1.272 . S
O293 Co285 2.135 . S
Co294 O295 2.216 . S
Co294 O296 2.091 . S
Co294 O298 2.004 . S
Co294 O304 2.021 . S
Co294 O306 2.137 . S
Co294 O307 2.244 . S
O295 Co294 2.216 . S
O295 C302 1.247 . S
O296 Co294 2.091 . S
O296 C302 1.261 . S
C297 O306 1.247 . S
C297 O307 1.272 . S
O298 Co294 2.004 . S
O298 C303 1.259 . S
Co299 O300 2.061 . S
Co299 O305 2.052 . S
Co299 O307 2.135 . S
O300 Co299 2.061 . S
O300 C303 1.235 . S
C301 O304 1.238 . S
C301 O305 1.241 . S
C302 O295 1.247 . S
C302 O296 1.261 . S
C303 O298 1.259 . S
C303 O300 1.235 . S
O304 Co294 2.021 . S
O304 C301 1.238 . S
O305 Co299 2.052 . S
O305 C301 1.241 . S
O306 Co294 2.137 . S
O306 C297 1.247 . S
O307 Co294 2.244 . S
O307 C297 1.272 . S
O307 Co299 2.135 . S
Co308 O309 2.216 . S
Co308 O310 2.091 . S
Co308 O312 2.004 . S
Co308 O318 2.021 . S
Co308 O320 2.137 . S
Co308 O321 2.244 . S
O309 Co308 2.216 . S
O309 C316 1.247 . S
O310 Co308 2.091 . S
O310 C316 1.261 . S
C311 O320 1.247 . S
C311 O321 1.272 . S
O312 Co308 2.004 . S
O312 C317 1.259 . S
Co313 O314 2.061 . S
Co313 O319 2.052 . S
Co313 O321 2.135 . S
O314 Co313 2.061 . S
O314 C317 1.235 . S
C315 O318 1.238 . S
C315 O319 1.241 . S
C316 O309 1.247 . S
C316 O310 1.261 . S
C317 O312 1.259 . S
C317 O314 1.235 . S
O318 Co308 2.021 . S
O318 C315 1.238 . S
O319 Co313 2.052 . S
O319 C315 1.241 . S
O320 Co308 2.137 . S
O320 C311 1.247 . S
O321 Co308 2.244 . S
O321 C311 1.272 . S
O321 Co313 2.135 . S
Co322 O323 2.216 . S
Co322 O324 2.091 . S
Co322 O326 2.004 . S
Co322 O332 2.021 . S
Co322 O334 2.137 . S
Co322 O335 2.244 . S
O323 Co322 2.216 . S
O323 C330 1.247 . S
O324 Co322 2.091 . S
O324 C330 1.261 . S
C325 O334 1.247 . S
C325 O335 1.272 . S
O326 Co322 2.004 . S
O326 C331 1.259 . S
Co327 O328 2.061 . S
Co327 O333 2.052 . S
Co327 O335 2.135 . S
O328 Co327 2.061 . S
O328 C331 1.235 . S
C329 O332 1.238 . S
C329 O333 1.241 . S
C330 O323 1.247 . S
C330 O324 1.261 . S
C331 O326 1.259 . S
C331 O328 1.235 . S
O332 Co322 2.021 . S
O332 C329 1.238 . S
O333 Co327 2.052 . S
O333 C329 1.241 . S
O334 Co322 2.137 . S
O334 C325 1.247 . S
O335 Co322 2.244 . S
O335 C325 1.272 . S
O335 Co327 2.135 . S
Co336 O337 2.216 . S
Co336 O338 2.091 . S
Co336 O340 2.004 . S
Co336 O346 2.021 . S
Co336 O348 2.137 . S
Co336 O349 2.244 . S
O337 Co336 2.216 . S
O337 C344 1.247 . S
O338 Co336 2.091 . S
O338 C344 1.261 . S
C339 O348 1.247 . S
C339 O349 1.272 . S
O340 Co336 2.004 . S
O340 C345 1.259 . S
Co341 O342 2.061 . S
Co341 O347 2.052 . S
Co341 O349 2.135 . S
O342 Co341 2.061 . S
O342 C345 1.235 . S
C343 O346 1.238 . S
C343 O347 1.241 . S
C344 O337 1.247 . S
C344 O338 1.261 . S
C345 O340 1.259 . S
C345 O342 1.235 . S
O346 Co336 2.021 . S
O346 C343 1.238 . S
O347 Co341 2.052 . S
O347 C343 1.241 . S
O348 Co336 2.137 . S
O348 C339 1.247 . S
O349 Co336 2.244 . S
O349 C339 1.272 . S
O349 Co341 2.135 . S
Co350 O351 2.216 . S
Co350 O352 2.091 . S
Co350 O354 2.004 . S
Co350 O360 2.021 . S
Co350 O362 2.137 . S
Co350 O363 2.244 . S
O351 Co350 2.216 . S
O351 C358 1.247 . S
O352 Co350 2.091 . S
O352 C358 1.261 . S
C353 O362 1.247 . S
C353 O363 1.272 . S
O354 Co350 2.004 . S
O354 C359 1.259 . S
Co355 O356 2.061 . S
Co355 O361 2.052 . S
Co355 O363 2.135 . S
O356 Co355 2.061 . S
O356 C359 1.235 . S
C357 O360 1.238 . S
C357 O361 1.241 . S
C358 O351 1.247 . S
C358 O352 1.261 . S
C359 O354 1.259 . S
C359 O356 1.235 . S
O360 Co350 2.021 . S
O360 C357 1.238 . S
O361 Co355 2.052 . S
O361 C357 1.241 . S
O362 Co350 2.137 . S
O362 C353 1.247 . S
O363 Co350 2.244 . S
O363 C353 1.272 . S
O363 Co355 2.135 . S
Co364 O365 2.216 . S
Co364 O366 2.091 . S
Co364 O368 2.004 . S
Co364 O374 2.021 1_556 S
Co364 O376 2.137 . S
Co364 O377 2.244 . S
O365 Co364 2.216 . S
O365 C372 1.247 . S
O366 Co364 2.091 . S
O366 C372 1.261 . S
C367 O376 1.247 . S
C367 O377 1.272 . S
O368 Co364 2.004 . S
O368 C373 1.263 . S
Co369 O370 2.061 . S
Co369 O375 2.052 . S
Co369 O377 2.135 1_554 S
O370 Co369 2.061 . S
O370 C373 1.232 1_554 S
C371 O374 1.238 . S
C371 O375 1.241 . S
C372 O365 1.247 . S
C372 O366 1.261 . S
C373 O368 1.263 . S
C373 O370 1.232 1_556 S
O374 Co364 2.021 1_554 S
O374 C371 1.238 . S
O375 Co369 2.052 . S
O375 C371 1.241 . S
O376 Co364 2.137 . S
O376 C367 1.247 . S
O377 Co364 2.244 . S
O377 C367 1.272 . S
O377 Co369 2.135 1_556 S
Co378 O379 2.216 . S
Co378 O380 2.091 . S
Co378 O382 2.004 . S
Co378 O388 2.021 1_556 S
Co378 O390 2.137 . S
Co378 O391 2.244 . S
O379 Co378 2.216 . S
O379 C386 1.247 . S
O380 Co378 2.091 . S
O380 C386 1.261 . S
C381 O390 1.247 . S
C381 O391 1.272 . S
O382 Co378 2.004 . S
O382 C387 1.263 . S
Co383 O384 2.061 . S
Co383 O389 2.052 . S
Co383 O391 2.135 1_554 S
O384 Co383 2.061 . S
O384 C387 1.232 1_554 S
C385 O388 1.238 . S
C385 O389 1.241 . S
C386 O379 1.247 . S
C386 O380 1.261 . S
C387 O382 1.263 . S
C387 O384 1.232 1_556 S
O388 Co378 2.021 1_554 S
O388 C385 1.238 . S
O389 Co383 2.052 . S
O389 C385 1.241 . S
O390 Co378 2.137 . S
O390 C381 1.247 . S
O391 Co378 2.244 . S
O391 C381 1.272 . S
O391 Co383 2.135 1_556 S
Co392 O393 2.216 . S
Co392 O394 2.091 . S
Co392 O396 2.004 . S
Co392 O402 2.021 . S
Co392 O404 2.137 . S
Co392 O405 2.244 . S
O393 Co392 2.216 . S
O393 C400 1.247 . S
O394 Co392 2.091 . S
O394 C400 1.261 . S
C395 O404 1.247 . S
C395 O405 1.272 . S
O396 Co392 2.004 . S
O396 C401 1.259 . S
Co397 O398 2.061 . S
Co397 O403 2.052 . S
Co397 O405 2.135 . S
O398 Co397 2.061 . S
O398 C401 1.235 . S
C399 O402 1.238 . S
C399 O403 1.241 . S
C400 O393 1.247 . S
C400 O394 1.261 . S
C401 O396 1.259 . S
C401 O398 1.235 . S
O402 Co392 2.021 . S
O402 C399 1.238 . S
O403 Co397 2.052 . S
O403 C399 1.241 . S
O404 Co392 2.137 . S
O404 C395 1.247 . S
O405 Co392 2.244 . S
O405 C395 1.272 . S
O405 Co397 2.135 . S
Co406 O407 2.216 . S
Co406 O408 2.091 . S
Co406 O410 2.004 . S
Co406 O416 2.021 . S
Co406 O418 2.137 . S
Co406 O419 2.244 . S
O407 Co406 2.216 . S
O407 C414 1.247 . S
O408 Co406 2.091 . S
O408 C414 1.261 . S
C409 O418 1.247 . S
C409 O419 1.272 . S
O410 Co406 2.004 . S
O410 C415 1.259 . S
Co411 O412 2.061 . S
Co411 O417 2.052 . S
Co411 O419 2.135 . S
O412 Co411 2.061 . S
O412 C415 1.235 . S
C413 O416 1.238 . S
C413 O417 1.241 . S
C414 O407 1.247 . S
C414 O408 1.261 . S
C415 O410 1.259 . S
C415 O412 1.235 . S
O416 Co406 2.021 . S
O416 C413 1.238 . S
O417 Co411 2.052 . S
O417 C413 1.241 . S
O418 Co406 2.137 . S
O418 C409 1.247 . S
O419 Co406 2.244 . S
O419 C409 1.272 . S
O419 Co411 2.135 . S
Co420 O421 2.216 . S
Co420 O422 2.091 . S
Co420 O424 2.004 . S
Co420 O430 2.021 1_554 S
Co420 O432 2.137 . S
Co420 O433 2.244 . S
O421 Co420 2.216 . S
O421 C428 1.247 . S
O422 Co420 2.091 . S
O422 C428 1.261 . S
C423 O432 1.247 . S
C423 O433 1.272 . S
O424 Co420 2.004 . S
O424 C429 1.263 . S
Co425 O426 2.061 . S
Co425 O431 2.052 . S
Co425 O433 2.135 1_556 S
O426 Co425 2.061 . S
O426 C429 1.232 1_556 S
C427 O430 1.238 . S
C427 O431 1.241 . S
C428 O421 1.247 . S
C428 O422 1.261 . S
C429 O424 1.263 . S
C429 O426 1.232 1_554 S
O430 Co420 2.021 1_556 S
O430 C427 1.238 . S
O431 Co425 2.052 . S
O431 C427 1.241 . S
O432 Co420 2.137 . S
O432 C423 1.247 . S
O433 Co420 2.244 . S
O433 C423 1.272 . S
O433 Co425 2.135 1_554 S
Co434 O435 2.216 . S
Co434 O436 2.091 . S
Co434 O438 2.004 . S
Co434 O444 2.021 1_554 S
Co434 O446 2.137 . S
Co434 O447 2.244 . S
O435 Co434 2.216 . S
O435 C442 1.247 . S
O436 Co434 2.091 . S
O436 C442 1.261 . S
C437 O446 1.247 . S
C437 O447 1.272 . S
O438 Co434 2.004 . S
O438 C443 1.263 . S
Co439 O440 2.061 . S
Co439 O445 2.052 . S
Co439 O447 2.135 1_556 S
O440 Co439 2.061 . S
O440 C443 1.232 1_556 S
C441 O444 1.238 . S
C441 O445 1.241 . S
C442 O435 1.247 . S
C442 O436 1.261 . S
C443 O438 1.263 . S
C443 O440 1.232 1_554 S
O444 Co434 2.021 1_556 S
O444 C441 1.238 . S
O445 Co439 2.052 . S
O445 C441 1.241 . S
O446 Co434 2.137 . S
O446 C437 1.247 . S
O447 Co434 2.244 . S
O447 C437 1.272 . S
O447 Co439 2.135 1_554 S
H448 C454 0.930 . S
H449 C458 0.930 . S
H450 C463 0.929 . S
H451 C461 0.929 . S
H452 C456 0.929 . S
H453 C462 0.929 . S
C454 H448 0.930 . S
C454 C455 1.367 . S
C454 C462 1.378 . S
C455 C454 1.367 . S
C455 C463 1.433 . S
C456 H452 0.929 . S
C456 C458 1.378 . S
C456 C460 1.350 . S
C457 C460 1.463 . S
C457 C462 1.350 . S
C457 N465 1.427 . S
C458 H449 0.930 . S
C458 C456 1.378 . S
C458 C459 1.367 . S
C459 C458 1.367 . S
C459 C461 1.433 . S
C460 C456 1.350 . S
C460 C457 1.463 . S
C460 N464 1.427 . S
C461 H451 0.929 . S
C461 C459 1.433 . S
C461 N464 1.384 . S
C462 H453 0.929 . S
C462 C454 1.378 . S
C462 C457 1.350 . S
C463 H450 0.929 . S
C463 C455 1.433 . S
C463 N465 1.384 . S
N464 C460 1.427 . S
N464 C461 1.384 . S
N465 C457 1.427 . S
N465 C463 1.384 . S
H466 C472 0.930 . S
H467 C476 0.930 . S
H468 C481 0.929 . S
H469 C479 0.929 . S
H470 C474 0.929 . S
H471 C480 0.929 . S
C472 H466 0.930 . S
C472 C473 1.367 . S
C472 C480 1.378 . S
C473 C472 1.367 . S
C473 C481 1.433 . S
C474 H470 0.929 . S
C474 C476 1.378 . S
C474 C478 1.350 . S
C475 C478 1.463 . S
C475 C480 1.350 . S
C475 N483 1.427 . S
C476 H467 0.930 . S
C476 C474 1.378 . S
C476 C477 1.367 . S
C477 C476 1.367 . S
C477 C479 1.433 . S
C478 C474 1.350 . S
C478 C475 1.463 . S
C478 N482 1.427 . S
C479 H469 0.929 . S
C479 C477 1.433 . S
C479 N482 1.384 . S
C480 H471 0.929 . S
C480 C472 1.378 . S
C480 C475 1.350 . S
C481 H468 0.929 . S
C481 C473 1.433 . S
C481 N483 1.384 . S
N482 C478 1.427 . S
N482 C479 1.384 . S
N483 C475 1.427 . S
N483 C481 1.384 . S
H484 C490 0.930 . S
H485 C494 0.930 . S
H486 C499 0.929 . S
H487 C497 0.929 . S
H488 C492 0.929 . S
H489 C498 0.929 . S
C490 H484 0.930 . S
C490 C491 1.367 . S
C490 C498 1.378 . S
C491 C490 1.367 . S
C491 C499 1.433 . S
C492 H488 0.929 . S
C492 C494 1.378 . S
C492 C496 1.350 . S
C493 C496 1.463 . S
C493 C498 1.350 . S
C493 N501 1.427 . S
C494 H485 0.930 . S
C494 C492 1.378 . S
C494 C495 1.367 . S
C495 C494 1.367 . S
C495 C497 1.433 . S
C496 C492 1.350 . S
C496 C493 1.463 . S
C496 N500 1.427 . S
C497 H487 0.929 . S
C497 C495 1.433 . S
C497 N500 1.384 . S
C498 H489 0.929 . S
C498 C490 1.378 . S
C498 C493 1.350 . S
C499 H486 0.929 . S
C499 C491 1.433 . S
C499 N501 1.384 . S
N500 C496 1.427 . S
N500 C497 1.384 . S
N501 C493 1.427 . S
N501 C499 1.384 . S
H502 C508 0.930 . S
H503 C512 0.930 . S
H504 C517 0.929 . S
H505 C515 0.929 . S
H506 C510 0.929 . S
H507 C516 0.929 . S
C508 H502 0.930 . S
C508 C509 1.367 . S
C508 C516 1.378 . S
C509 C508 1.367 . S
C509 C517 1.433 . S
C510 H506 0.929 . S
C510 C512 1.378 . S
C510 C514 1.350 . S
C511 C514 1.463 . S
C511 C516 1.350 . S
C511 N519 1.427 . S
C512 H503 0.930 . S
C512 C510 1.378 . S
C512 C513 1.367 . S
C513 C512 1.367 . S
C513 C515 1.433 . S
C514 C510 1.350 . S
C514 C511 1.463 . S
C514 N518 1.427 . S
C515 H505 0.929 . S
C515 C513 1.433 . S
C515 N518 1.384 . S
C516 H507 0.929 . S
C516 C508 1.378 . S
C516 C511 1.350 . S
C517 H504 0.929 . S
C517 C509 1.433 . S
C517 N519 1.384 . S
N518 C514 1.427 . S
N518 C515 1.384 . S
N519 C511 1.427 . S
N519 C517 1.384 . S
H520 C526 0.930 . S
H521 C530 0.930 . S
H522 C535 0.929 . S
H523 C533 0.929 . S
H524 C528 0.929 . S
H525 C534 0.929 . S
C526 H520 0.930 . S
C526 C527 1.367 . S
C526 C534 1.378 . S
C527 C526 1.367 . S
C527 C535 1.433 . S
C528 H524 0.929 . S
C528 C530 1.378 . S
C528 C532 1.350 . S
C529 C532 1.463 . S
C529 C534 1.350 . S
C529 N537 1.427 . S
C530 H521 0.930 . S
C530 C528 1.378 . S
C530 C531 1.367 . S
C531 C530 1.367 . S
C531 C533 1.433 . S
C532 C528 1.350 . S
C532 C529 1.463 . S
C532 N536 1.427 . S
C533 H523 0.929 . S
C533 C531 1.433 . S
C533 N536 1.384 . S
C534 H525 0.929 . S
C534 C526 1.378 . S
C534 C529 1.350 . S
C535 H522 0.929 . S
C535 C527 1.433 . S
C535 N537 1.384 . S
N536 C532 1.427 . S
N536 C533 1.384 . S
N537 C529 1.427 . S
N537 C535 1.384 . S
H538 C544 0.930 . S
H539 C548 0.930 . S
H540 C553 0.929 . S
H541 C551 0.929 . S
H542 C546 0.929 . S
H543 C552 0.929 . S
C544 H538 0.930 . S
C544 C545 1.367 . S
C544 C552 1.378 . S
C545 C544 1.367 . S
C545 C553 1.433 . S
C546 H542 0.929 . S
C546 C548 1.378 . S
C546 C550 1.350 . S
C547 C550 1.463 . S
C547 C552 1.350 . S
C547 N555 1.427 . S
C548 H539 0.930 . S
C548 C546 1.378 . S
C548 C549 1.367 . S
C549 C548 1.367 . S
C549 C551 1.433 . S
C550 C546 1.350 . S
C550 C547 1.463 . S
C550 N554 1.427 . S
C551 H541 0.929 . S
C551 C549 1.433 . S
C551 N554 1.384 . S
C552 H543 0.929 . S
C552 C544 1.378 . S
C552 C547 1.350 . S
C553 H540 0.929 . S
C553 C545 1.433 . S
C553 N555 1.384 . S
N554 C550 1.427 . S
N554 C551 1.384 . S
N555 C547 1.427 . S
N555 C553 1.384 . S
H556 C562 0.930 . S
H557 C566 0.930 . S
H558 C571 0.929 . S
H559 C569 0.929 . S
H560 C564 0.929 . S
H561 C570 0.929 . S
C562 H556 0.930 . S
C562 C563 1.367 . S
C562 C570 1.378 . S
C563 C562 1.367 . S
C563 C571 1.433 . S
C564 H560 0.929 . S
C564 C566 1.378 . S
C564 C568 1.350 . S
C565 C568 1.463 . S
C565 C570 1.350 . S
C565 N573 1.427 . S
C566 H557 0.930 . S
C566 C564 1.378 . S
C566 C567 1.367 . S
C567 C566 1.367 . S
C567 C569 1.433 . S
C568 C564 1.350 . S
C568 C565 1.463 . S
C568 N572 1.427 . S
C569 H559 0.929 . S
C569 C567 1.433 . S
C569 N572 1.384 . S
C570 H561 0.929 . S
C570 C562 1.378 . S
C570 C565 1.350 . S
C571 H558 0.929 . S
C571 C563 1.433 . S
C571 N573 1.384 . S
N572 C568 1.427 . S
N572 C569 1.384 . S
N573 C565 1.427 . S
N573 C571 1.384 . S
H574 C580 0.930 . S
H575 C584 0.930 . S
H576 C589 0.929 . S
H577 C587 0.929 . S
H578 C582 0.929 . S
H579 C588 0.929 . S
C580 H574 0.930 . S
C580 C581 1.367 . S
C580 C588 1.378 . S
C581 C580 1.367 . S
C581 C589 1.433 . S
C582 H578 0.929 . S
C582 C584 1.378 . S
C582 C586 1.350 . S
C583 C586 1.463 . S
C583 C588 1.350 . S
C583 N591 1.427 . S
C584 H575 0.930 . S
C584 C582 1.378 . S
C584 C585 1.367 . S
C585 C584 1.367 . S
C585 C587 1.433 . S
C586 C582 1.350 . S
C586 C583 1.463 . S
C586 N590 1.427 . S
C587 H577 0.929 . S
C587 C585 1.433 . S
C587 N590 1.384 . S
C588 H579 0.929 . S
C588 C580 1.378 . S
C588 C583 1.350 . S
C589 H576 0.929 . S
C589 C581 1.433 . S
C589 N591 1.384 . S
N590 C586 1.427 . S
N590 C587 1.384 . S
N591 C583 1.427 . S
N591 C589 1.384 . S
H592 C598 0.930 . S
H593 C602 0.930 . S
H594 C607 0.929 . S
H595 C605 0.929 . S
H596 C600 0.929 . S
H597 C606 0.929 . S
C598 H592 0.930 . S
C598 C599 1.367 . S
C598 C606 1.378 . S
C599 C598 1.367 . S
C599 C607 1.433 . S
C600 H596 0.929 . S
C600 C602 1.378 . S
C600 C604 1.350 . S
C601 C604 1.463 . S
C601 C606 1.350 . S
C601 N609 1.427 . S
C602 H593 0.930 . S
C602 C600 1.378 . S
C602 C603 1.367 . S
C603 C602 1.367 . S
C603 C605 1.433 . S
C604 C600 1.350 . S
C604 C601 1.463 . S
C604 N608 1.427 . S
C605 H595 0.929 . S
C605 C603 1.433 . S
C605 N608 1.384 . S
C606 H597 0.929 . S
C606 C598 1.378 . S
C606 C601 1.350 . S
C607 H594 0.929 . S
C607 C599 1.433 . S
C607 N609 1.384 . S
N608 C604 1.427 . S
N608 C605 1.384 . S
N609 C601 1.427 . S
N609 C607 1.384 . S
H610 C616 0.930 . S
H611 C620 0.930 . S
H612 C625 0.929 . S
H613 C623 0.929 . S
H614 C618 0.929 . S
H615 C624 0.929 . S
C616 H610 0.930 . S
C616 C617 1.367 . S
C616 C624 1.378 . S
C617 C616 1.367 . S
C617 C625 1.433 . S
C618 H614 0.929 . S
C618 C620 1.378 . S
C618 C622 1.350 . S
C619 C622 1.463 . S
C619 C624 1.350 . S
C619 N627 1.427 . S
C620 H611 0.930 . S
C620 C618 1.378 . S
C620 C621 1.367 . S
C621 C620 1.367 . S
C621 C623 1.433 . S
C622 C618 1.350 . S
C622 C619 1.463 . S
C622 N626 1.427 . S
C623 H613 0.929 . S
C623 C621 1.433 . S
C623 N626 1.384 . S
C624 H615 0.929 . S
C624 C616 1.378 . S
C624 C619 1.350 . S
C625 H612 0.929 . S
C625 C617 1.433 . S
C625 N627 1.384 . S
N626 C622 1.427 . S
N626 C623 1.384 . S
N627 C619 1.427 . S
N627 C625 1.384 . S
H628 C634 0.930 . S
H629 C638 0.930 . S
H630 C643 0.929 . S
H631 C641 0.929 . S
H632 C636 0.929 . S
H633 C642 0.929 . S
C634 H628 0.930 . S
C634 C635 1.367 . S
C634 C642 1.378 . S
C635 C634 1.367 . S
C635 C643 1.433 . S
C636 H632 0.929 . S
C636 C638 1.378 . S
C636 C640 1.350 . S
C637 C640 1.463 . S
C637 C642 1.350 . S
C637 N645 1.427 . S
C638 H629 0.930 . S
C638 C636 1.378 . S
C638 C639 1.367 . S
C639 C638 1.367 . S
C639 C641 1.433 . S
C640 C636 1.350 . S
C640 C637 1.463 . S
C640 N644 1.427 . S
C641 H631 0.929 . S
C641 C639 1.433 . S
C641 N644 1.384 . S
C642 H633 0.929 . S
C642 C634 1.378 . S
C642 C637 1.350 . S
C643 H630 0.929 . S
C643 C635 1.433 . S
C643 N645 1.384 . S
N644 C640 1.427 . S
N644 C641 1.384 . S
N645 C637 1.427 . S
N645 C643 1.384 . S
H646 C652 0.930 . S
H647 C656 0.930 . S
H648 C661 0.929 . S
H649 C659 0.929 . S
H650 C654 0.929 . S
H651 C660 0.929 . S
C652 H646 0.930 . S
C652 C653 1.367 . S
C652 C660 1.378 . S
C653 C652 1.367 . S
C653 C661 1.433 . S
C654 H650 0.929 . S
C654 C656 1.378 . S
C654 C658 1.350 . S
C655 C658 1.463 . S
C655 C660 1.350 . S
C655 N663 1.427 . S
C656 H647 0.930 . S
C656 C654 1.378 . S
C656 C657 1.367 . S
C657 C656 1.367 . S
C657 C659 1.433 . S
C658 C654 1.350 . S
C658 C655 1.463 . S
C658 N662 1.427 . S
C659 H649 0.929 . S
C659 C657 1.433 . S
C659 N662 1.384 . S
C660 H651 0.929 . S
C660 C652 1.378 . S
C660 C655 1.350 . S
C661 H648 0.929 . S
C661 C653 1.433 . S
C661 N663 1.384 . S
N662 C658 1.427 . S
N662 C659 1.384 . S
N663 C655 1.427 . S
N663 C661 1.384 . S
H664 C670 0.930 . S
H665 C674 0.930 . S
H666 C679 0.929 . S
H667 C677 0.929 . S
H668 C672 0.929 . S
H669 C678 0.929 . S
C670 H664 0.930 . S
C670 C671 1.367 . S
C670 C678 1.378 . S
C671 C670 1.367 . S
C671 C679 1.433 . S
C672 H668 0.929 . S
C672 C674 1.378 . S
C672 C676 1.350 . S
C673 C676 1.463 . S
C673 C678 1.350 . S
C673 N681 1.427 . S
C674 H665 0.930 . S
C674 C672 1.378 . S
C674 C675 1.367 . S
C675 C674 1.367 . S
C675 C677 1.433 . S
C676 C672 1.350 . S
C676 C673 1.463 . S
C676 N680 1.427 . S
C677 H667 0.929 . S
C677 C675 1.433 . S
C677 N680 1.384 . S
C678 H669 0.929 . S
C678 C670 1.378 . S
C678 C673 1.350 . S
C679 H666 0.929 . S
C679 C671 1.433 . S
C679 N681 1.384 . S
N680 C676 1.427 . S
N680 C677 1.384 . S
N681 C673 1.427 . S
N681 C679 1.384 . S
H682 C688 0.930 . S
H683 C692 0.930 . S
H684 C697 0.929 . S
H685 C695 0.929 . S
H686 C690 0.929 . S
H687 C696 0.929 . S
C688 H682 0.930 . S
C688 C689 1.367 . S
C688 C696 1.378 . S
C689 C688 1.367 . S
C689 C697 1.433 . S
C690 H686 0.929 . S
C690 C692 1.378 . S
C690 C694 1.350 . S
C691 C694 1.463 . S
C691 C696 1.350 . S
C691 N699 1.427 . S
C692 H683 0.930 . S
C692 C690 1.378 . S
C692 C693 1.367 . S
C693 C692 1.367 . S
C693 C695 1.433 . S
C694 C690 1.350 . S
C694 C691 1.463 . S
C694 N698 1.427 . S
C695 H685 0.929 . S
C695 C693 1.433 . S
C695 N698 1.384 . S
C696 H687 0.929 . S
C696 C688 1.378 . S
C696 C691 1.350 . S
C697 H684 0.929 . S
C697 C689 1.433 . S
C697 N699 1.384 . S
N698 C694 1.427 . S
N698 C695 1.384 . S
N699 C691 1.427 . S
N699 C697 1.384 . S
H700 C706 0.930 . S
H701 C710 0.930 . S
H702 C715 0.929 . S
H703 C713 0.929 . S
H704 C708 0.929 . S
H705 C714 0.929 . S
C706 H700 0.930 . S
C706 C707 1.367 . S
C706 C714 1.378 . S
C707 C706 1.367 . S
C707 C715 1.433 . S
C708 H704 0.929 . S
C708 C710 1.378 . S
C708 C712 1.350 . S
C709 C712 1.463 . S
C709 C714 1.350 . S
C709 N717 1.427 . S
C710 H701 0.930 . S
C710 C708 1.378 . S
C710 C711 1.367 . S
C711 C710 1.367 . S
C711 C713 1.433 . S
C712 C708 1.350 . S
C712 C709 1.463 . S
C712 N716 1.427 . S
C713 H703 0.929 . S
C713 C711 1.433 . S
C713 N716 1.384 . S
C714 H705 0.929 . S
C714 C706 1.378 . S
C714 C709 1.350 . S
C715 H702 0.929 . S
C715 C707 1.433 . S
C715 N717 1.384 . S
N716 C712 1.427 . S
N716 C713 1.384 . S
N717 C709 1.427 . S
N717 C715 1.384 . S
H718 C724 0.930 . S
H719 C728 0.930 . S
H720 C733 0.929 . S
H721 C731 0.929 . S
H722 C726 0.929 . S
H723 C732 0.929 . S
C724 H718 0.930 . S
C724 C725 1.367 . S
C724 C732 1.378 . S
C725 C724 1.367 . S
C725 C733 1.433 . S
C726 H722 0.929 . S
C726 C728 1.378 . S
C726 C730 1.350 . S
C727 C730 1.463 . S
C727 C732 1.350 . S
C727 N735 1.427 . S
C728 H719 0.930 . S
C728 C726 1.378 . S
C728 C729 1.367 . S
C729 C728 1.367 . S
C729 C731 1.433 . S
C730 C726 1.350 . S
C730 C727 1.463 . S
C730 N734 1.427 . S
C731 H721 0.929 . S
C731 C729 1.433 . S
C731 N734 1.384 . S
C732 H723 0.929 . S
C732 C724 1.378 . S
C732 C727 1.350 . S
C733 H720 0.929 . S
C733 C725 1.433 . S
C733 N735 1.384 . S
N734 C730 1.427 . S
N734 C731 1.384 . S
N735 C727 1.427 . S
N735 C733 1.384 . S
H736 C742 0.930 . S
H737 C746 0.930 . S
H738 C751 0.929 . S
H739 C749 0.929 . S
H740 C744 0.929 . S
H741 C750 0.929 . S
C742 H736 0.930 . S
C742 C743 1.367 . S
C742 C750 1.378 . S
C743 C742 1.367 . S
C743 C751 1.433 . S
C744 H740 0.929 . S
C744 C746 1.378 . S
C744 C748 1.350 . S
C745 C748 1.463 1_655 S
C745 C750 1.350 . S
C745 N753 1.427 1_655 S
C746 H737 0.930 . S
C746 C744 1.378 . S
C746 C747 1.367 . S
C747 C746 1.367 . S
C747 C749 1.433 . S
C748 C744 1.350 . S
C748 C745 1.463 1_455 S
C748 N752 1.427 1_455 S
C749 H739 0.929 . S
C749 C747 1.433 . S
C749 N752 1.384 1_455 S
C750 H741 0.929 . S
C750 C742 1.378 . S
C750 C745 1.350 . S
C751 H738 0.929 . S
C751 C743 1.433 . S
C751 N753 1.384 1_655 S
N752 C748 1.427 1_655 S
N752 C749 1.384 1_655 S
N753 C745 1.427 1_455 S
N753 C751 1.384 1_455 S
H754 C760 0.930 . S
H755 C764 0.930 . S
H756 C769 0.929 . S
H757 C767 0.929 . S
H758 C762 0.929 . S
H759 C768 0.929 . S
C760 H754 0.930 . S
C760 C761 1.367 . S
C760 C768 1.378 . S
C761 C760 1.367 . S
C761 C769 1.433 . S
C762 H758 0.929 . S
C762 C764 1.378 . S
C762 C766 1.350 . S
C763 C766 1.463 1_565 S
C763 C768 1.350 . S
C763 N771 1.427 . S
C764 H755 0.930 . S
C764 C762 1.378 . S
C764 C765 1.367 . S
C765 C764 1.367 . S
C765 C767 1.433 . S
C766 C762 1.350 . S
C766 C763 1.463 1_545 S
C766 N770 1.427 . S
C767 H757 0.929 . S
C767 C765 1.433 . S
C767 N770 1.384 . S
C768 H759 0.929 . S
C768 C760 1.378 . S
C768 C763 1.350 . S
C769 H756 0.929 . S
C769 C761 1.433 . S
C769 N771 1.384 . S
N770 C766 1.427 . S
N770 C767 1.384 . S
N771 C763 1.427 . S
N771 C769 1.384 . S
H772 C778 0.930 . S
H773 C782 0.930 . S
H774 C787 0.929 . S
H775 C785 0.929 . S
H776 C780 0.929 . S
H777 C786 0.929 . S
C778 H772 0.930 . S
C778 C779 1.367 1_554 S
C778 C786 1.378 . S
C779 C778 1.367 1_556 S
C779 C787 1.433 . S
C780 H776 0.929 . S
C780 C782 1.378 . S
C780 C784 1.354 . S
C781 C784 1.462 1_464 S
C781 C786 1.346 . S
C781 N789 1.431 1_554 S
C782 H773 0.930 . S
C782 C780 1.378 . S
C782 C783 1.367 1_556 S
C783 C782 1.367 1_554 S
C783 C785 1.433 . S
C784 C780 1.354 . S
C784 C781 1.462 1_646 S
C784 N788 1.423 1_556 S
C785 H775 0.929 . S
C785 C783 1.433 . S
C785 N788 1.384 . S
C786 H777 0.929 . S
C786 C778 1.378 . S
C786 C781 1.346 . S
C787 H774 0.929 . S
C787 C779 1.433 . S
C787 N789 1.384 . S
N788 C784 1.423 1_554 S
N788 C785 1.384 . S
N789 C781 1.431 1_556 S
N789 C787 1.384 . S
H790 C796 0.930 . S
H791 C800 0.930 . S
H792 C805 0.929 . S
H793 C803 0.929 . S
H794 C798 0.929 . S
H795 C804 0.929 . S
C796 H790 0.930 . S
C796 C797 1.367 1_556 S
C796 C804 1.378 . S
C797 C796 1.367 1_554 S
C797 C805 1.433 . S
C798 H794 0.929 . S
C798 C800 1.378 . S
C798 C802 1.359 . S
C799 C802 1.462 1_556 S
C799 C804 1.350 . S
C799 N807 1.427 1_556 S
C800 H791 0.930 . S
C800 C798 1.378 . S
C800 C801 1.367 1_554 S
C801 C800 1.367 1_556 S
C801 C803 1.433 . S
C802 C798 1.359 . S
C802 C799 1.462 1_554 S
C802 N806 1.417 1_554 S
C803 H793 0.929 . S
C803 C801 1.433 . S
C803 N806 1.384 . S
C804 H795 0.929 . S
C804 C796 1.378 . S
C804 C799 1.350 . S
C805 H792 0.929 . S
C805 C797 1.433 . S
C805 N807 1.384 . S
N806 C802 1.417 1_556 S
N806 C803 1.384 . S
N807 C799 1.427 1_554 S
N807 C805 1.384 . S
H808 C814 0.930 . S
H809 C818 0.930 . S
H810 C823 0.929 . S
H811 C821 0.929 . S
H812 C816 0.929 1_655 S
H813 C822 0.929 1_455 S
C814 H808 0.930 . S
C814 C815 1.367 . S
C814 C822 1.378 . S
C815 C814 1.367 . S
C815 C823 1.433 . S
C816 H812 0.929 1_455 S
C816 C818 1.378 . S
C816 C820 1.350 . S
C817 C820 1.463 1_655 S
C817 C822 1.350 . S
C817 N825 1.427 . S
C818 H809 0.930 . S
C818 C816 1.378 . S
C818 C819 1.367 . S
C819 C818 1.367 . S
C819 C821 1.433 . S
C820 C816 1.350 . S
C820 C817 1.463 1_455 S
C820 N824 1.427 . S
C821 H811 0.929 . S
C821 C819 1.433 . S
C821 N824 1.384 . S
C822 H813 0.929 1_655 S
C822 C814 1.378 . S
C822 C817 1.350 . S
C823 H810 0.929 . S
C823 C815 1.433 . S
C823 N825 1.384 . S
N824 C820 1.427 . S
N824 C821 1.384 . S
N825 C817 1.427 . S
N825 C823 1.384 . S
H826 C832 0.930 . S
H827 C836 0.930 . S
H828 C841 0.929 . S
H829 C839 0.929 . S
H830 C834 0.929 . S
H831 C840 0.929 . S
C832 H826 0.930 . S
C832 C833 1.367 . S
C832 C840 1.378 . S
C833 C832 1.367 . S
C833 C841 1.433 . S
C834 H830 0.929 . S
C834 C836 1.378 . S
C834 C838 1.350 . S
C835 C838 1.463 1_565 S
C835 C840 1.350 . S
C835 N843 1.427 . S
C836 H827 0.930 . S
C836 C834 1.378 . S
C836 C837 1.367 . S
C837 C836 1.367 . S
C837 C839 1.433 . S
C838 C834 1.350 . S
C838 C835 1.463 1_545 S
C838 N842 1.427 . S
C839 H829 0.929 . S
C839 C837 1.433 . S
C839 N842 1.384 . S
C840 H831 0.929 . S
C840 C832 1.378 . S
C840 C835 1.350 . S
C841 H828 0.929 . S
C841 C833 1.433 . S
C841 N843 1.384 . S
N842 C838 1.427 . S
N842 C839 1.384 . S
N843 C835 1.427 . S
N843 C841 1.384 . S
H844 C850 0.930 . S
H845 C854 0.930 . S
H846 C859 0.929 . S
H847 C857 0.929 . S
H848 C852 0.929 . S
H849 C858 0.929 . S
C850 H844 0.930 . S
C850 C851 1.367 . S
C850 C858 1.378 . S
C851 C850 1.367 . S
C851 C859 1.433 1_556 S
C852 H848 0.929 . S
C852 C854 1.378 . S
C852 C856 1.385 . S
C853 C856 1.459 1_556 S
C853 C858 1.350 . S
C853 N861 1.427 1_556 S
C854 H845 0.930 . S
C854 C852 1.378 . S
C854 C855 1.367 . S
C855 C854 1.367 . S
C855 C857 1.433 1_554 S
C856 C852 1.385 . S
C856 C853 1.459 1_554 S
C856 N860 1.395 1_554 S
C857 H847 0.929 . S
C857 C855 1.433 1_556 S
C857 N860 1.384 . S
C858 H849 0.929 . S
C858 C850 1.378 . S
C858 C853 1.350 . S
C859 H846 0.929 . S
C859 C851 1.433 1_554 S
C859 N861 1.384 . S
N860 C856 1.395 1_556 S
N860 C857 1.384 . S
N861 C853 1.427 1_554 S
N861 C859 1.384 . S
H862 C868 0.930 . S
H863 C872 0.930 . S
H864 C877 0.929 . S
H865 C875 0.929 . S
H866 C870 0.929 . S
H867 C876 0.929 . S
C868 H862 0.930 . S
C868 C869 1.367 . S
C868 C876 1.378 . S
C869 C868 1.367 . S
C869 C877 1.433 . S
C870 H866 0.929 . S
C870 C872 1.378 . S
C870 C874 1.350 . S
C871 C874 1.463 . S
C871 C876 1.350 . S
C871 N879 1.427 . S
C872 H863 0.930 . S
C872 C870 1.378 . S
C872 C873 1.367 . S
C873 C872 1.367 . S
C873 C875 1.433 . S
C874 C870 1.350 . S
C874 C871 1.463 . S
C874 N878 1.427 . S
C875 H865 0.929 . S
C875 C873 1.433 . S
C875 N878 1.384 . S
C876 H867 0.929 . S
C876 C868 1.378 . S
C876 C871 1.350 . S
C877 H864 0.929 . S
C877 C869 1.433 . S
C877 N879 1.384 . S
N878 C874 1.427 . S
N878 C875 1.384 . S
N879 C871 1.427 . S
N879 C877 1.384 . S
H880 C886 0.930 . S
H881 C890 0.930 . S
H882 C895 0.929 . S
H883 C893 0.929 . S
H884 C888 0.929 . S
H885 C894 0.929 . S
C886 H880 0.930 . S
C886 C887 1.367 . S
C886 C894 1.378 . S
C887 C886 1.367 . S
C887 C895 1.433 . S
C888 H884 0.929 . S
C888 C890 1.378 . S
C888 C892 1.350 . S
C889 C892 1.463 1_655 S
C889 C894 1.350 . S
C889 N897 1.427 . S
C890 H881 0.930 . S
C890 C888 1.378 . S
C890 C891 1.367 . S
C891 C890 1.367 . S
C891 C893 1.433 . S
C892 C888 1.350 . S
C892 C889 1.463 1_455 S
C892 N896 1.427 . S
C893 H883 0.929 . S
C893 C891 1.433 . S
C893 N896 1.384 . S
C894 H885 0.929 . S
C894 C886 1.378 . S
C894 C889 1.350 . S
C895 H882 0.929 . S
C895 C887 1.433 . S
C895 N897 1.384 . S
N896 C892 1.427 . S
N896 C893 1.384 . S
N897 C889 1.427 . S
N897 C895 1.384 . S
H898 C904 0.930 . S
H899 C908 0.930 . S
H900 C913 0.929 . S
H901 C911 0.929 . S
H902 C906 0.929 . S
H903 C912 0.929 . S
C904 H898 0.930 . S
C904 C905 1.367 . S
C904 C912 1.378 . S
C905 C904 1.367 . S
C905 C913 1.433 . S
C906 H902 0.929 . S
C906 C908 1.378 . S
C906 C910 1.350 . S
C907 C910 1.463 . S
C907 C912 1.350 . S
C907 N915 1.427 . S
C908 H899 0.930 . S
C908 C906 1.378 . S
C908 C909 1.367 . S
C909 C908 1.367 . S
C909 C911 1.433 . S
C910 C906 1.350 . S
C910 C907 1.463 . S
C910 N914 1.427 . S
C911 H901 0.929 . S
C911 C909 1.433 . S
C911 N914 1.384 . S
C912 H903 0.929 . S
C912 C904 1.378 . S
C912 C907 1.350 . S
C913 H900 0.929 . S
C913 C905 1.433 . S
C913 N915 1.384 . S
N914 C910 1.427 . S
N914 C911 1.384 . S
N915 C907 1.427 . S
N915 C913 1.384 . S
H916 C922 0.930 . S
H917 C926 0.930 . S
H918 C931 0.929 . S
H919 C929 0.929 . S
H920 C924 0.929 . S
H921 C930 0.929 . S
C922 H916 0.930 . S
C922 C923 1.367 . S
C922 C930 1.378 . S
C923 C922 1.367 . S
C923 C931 1.433 . S
C924 H920 0.929 . S
C924 C926 1.378 . S
C924 C928 1.350 . S
C925 C928 1.463 . S
C925 C930 1.350 . S
C925 N933 1.427 . S
C926 H917 0.930 . S
C926 C924 1.378 . S
C926 C927 1.367 . S
C927 C926 1.367 . S
C927 C929 1.433 . S
C928 C924 1.350 . S
C928 C925 1.463 . S
C928 N932 1.427 . S
C929 H919 0.929 . S
C929 C927 1.433 . S
C929 N932 1.384 . S
C930 H921 0.929 . S
C930 C922 1.378 . S
C930 C925 1.350 . S
C931 H918 0.929 . S
C931 C923 1.433 . S
C931 N933 1.384 . S
N932 C928 1.427 . S
N932 C929 1.384 . S
N933 C925 1.427 . S
N933 C931 1.384 . S
H934 C940 0.930 . S
H935 C944 0.930 . S
H936 C949 0.929 . S
H937 C947 0.929 . S
H938 C942 0.929 . S
H939 C948 0.929 . S
C940 H934 0.930 . S
C940 C941 1.367 . S
C940 C948 1.378 . S
C941 C940 1.367 . S
C941 C949 1.433 . S
C942 H938 0.929 . S
C942 C944 1.378 . S
C942 C946 1.350 . S
C943 C946 1.463 . S
C943 C948 1.350 . S
C943 N951 1.427 . S
C944 H935 0.930 . S
C944 C942 1.378 . S
C944 C945 1.367 . S
C945 C944 1.367 . S
C945 C947 1.433 . S
C946 C942 1.350 . S
C946 C943 1.463 . S
C946 N950 1.427 . S
C947 H937 0.929 . S
C947 C945 1.433 . S
C947 N950 1.384 . S
C948 H939 0.929 . S
C948 C940 1.378 . S
C948 C943 1.350 . S
C949 H936 0.929 . S
C949 C941 1.433 . S
C949 N951 1.384 . S
N950 C946 1.427 . S
N950 C947 1.384 . S
N951 C943 1.427 . S
N951 C949 1.384 . S
H952 C958 0.930 . S
H953 C962 0.930 . S
H954 C967 0.929 . S
H955 C965 0.929 . S
H956 C960 0.929 . S
H957 C966 0.929 . S
C958 H952 0.930 . S
C958 C959 1.367 . S
C958 C966 1.378 . S
C959 C958 1.367 . S
C959 C967 1.433 . S
C960 H956 0.929 . S
C960 C962 1.378 . S
C960 C964 1.350 . S
C961 C964 1.463 . S
C961 C966 1.350 . S
C961 N969 1.427 . S
C962 H953 0.930 . S
C962 C960 1.378 . S
C962 C963 1.367 . S
C963 C962 1.367 . S
C963 C965 1.433 . S
C964 C960 1.350 . S
C964 C961 1.463 . S
C964 N968 1.427 . S
C965 H955 0.929 . S
C965 C963 1.433 . S
C965 N968 1.384 . S
C966 H957 0.929 . S
C966 C958 1.378 . S
C966 C961 1.350 . S
C967 H954 0.929 . S
C967 C959 1.433 . S
C967 N969 1.384 . S
N968 C964 1.427 . S
N968 C965 1.384 . S
N969 C961 1.427 . S
N969 C967 1.384 . S
H970 C976 0.930 . S
H971 C980 0.930 . S
H972 C985 0.929 . S
H973 C983 0.929 . S
H974 C978 0.929 1_545 S
H975 C984 0.929 1_565 S
C976 H970 0.930 . S
C976 C977 1.367 . S
C976 C984 1.378 . S
C977 C976 1.367 . S
C977 C985 1.433 . S
C978 H974 0.929 1_565 S
C978 C980 1.378 . S
C978 C982 1.350 . S
C979 C982 1.463 1_545 S
C979 C984 1.350 . S
C979 N987 1.427 . S
C980 H971 0.930 . S
C980 C978 1.378 . S
C980 C981 1.367 . S
C981 C980 1.367 . S
C981 C983 1.433 . S
C982 C978 1.350 . S
C982 C979 1.463 1_565 S
C982 N986 1.427 . S
C983 H973 0.929 . S
C983 C981 1.433 . S
C983 N986 1.384 . S
C984 H975 0.929 1_545 S
C984 C976 1.378 . S
C984 C979 1.350 . S
C985 H972 0.929 . S
C985 C977 1.433 . S
C985 N987 1.384 . S
N986 C982 1.427 . S
N986 C983 1.384 . S
N987 C979 1.427 . S
N987 C985 1.384 . S
H988 C994 0.930 . S
H989 C998 0.930 . S
H990 C1003 0.929 . S
H991 C1001 0.929 . S
H992 C996 0.929 . S
H993 C1002 0.929 . S
C994 H988 0.930 . S
C994 C995 1.367 . S
C994 C1002 1.378 . S
C995 C994 1.367 . S
C995 C1003 1.433 . S
C996 H992 0.929 . S
C996 C998 1.378 . S
C996 C1000 1.350 . S
C997 C1000 1.463 . S
C997 C1002 1.350 . S
C997 N1005 1.427 . S
C998 H989 0.930 . S
C998 C996 1.378 . S
C998 C999 1.367 . S
C999 C998 1.367 . S
C999 C1001 1.433 . S
C1000 C996 1.350 . S
C1000 C997 1.463 . S
C1000 N1004 1.427 . S
C1001 H991 0.929 . S
C1001 C999 1.433 . S
C1001 N1004 1.384 . S
C1002 H993 0.929 . S
C1002 C994 1.378 . S
C1002 C997 1.350 . S
C1003 H990 0.929 . S
C1003 C995 1.433 . S
C1003 N1005 1.384 . S
N1004 C1000 1.427 . S
N1004 C1001 1.384 . S
N1005 C997 1.427 . S
N1005 C1003 1.384 . S
H1006 C1012 0.930 . S
H1007 C1016 0.930 . S
H1008 C1021 0.929 . S
H1009 C1019 0.929 . S
H1010 C1014 0.929 . S
H1011 C1020 0.929 . S
C1012 H1006 0.930 . S
C1012 C1013 1.367 . S
C1012 C1020 1.378 . S
C1013 C1012 1.367 . S
C1013 C1021 1.433 1_556 S
C1014 H1010 0.929 . S
C1014 C1016 1.378 . S
C1014 C1018 1.350 . S
C1015 C1018 1.463 1_556 S
C1015 C1020 1.350 . S
C1015 N1023 1.427 1_556 S
C1016 H1007 0.930 . S
C1016 C1014 1.378 . S
C1016 C1017 1.367 . S
C1017 C1016 1.367 . S
C1017 C1019 1.433 1_554 S
C1018 C1014 1.350 . S
C1018 C1015 1.463 1_554 S
C1018 N1022 1.427 1_554 S
C1019 H1009 0.929 . S
C1019 C1017 1.433 1_556 S
C1019 N1022 1.384 . S
C1020 H1011 0.929 . S
C1020 C1012 1.378 . S
C1020 C1015 1.350 . S
C1021 H1008 0.929 . S
C1021 C1013 1.433 1_554 S
C1021 N1023 1.384 . S
N1022 C1018 1.427 1_556 S
N1022 C1019 1.384 . S
N1023 C1015 1.427 1_554 S
N1023 C1021 1.384 . S
H1024 C1030 0.930 . S
H1025 C1034 0.930 . S
H1026 C1039 0.929 . S
H1027 C1037 0.929 . S
H1028 C1032 0.929 . S
H1029 C1038 0.929 . S
C1030 H1024 0.930 . S
C1030 C1031 1.367 . S
C1030 C1038 1.378 . S
C1031 C1030 1.367 . S
C1031 C1039 1.433 . S
C1032 H1028 0.929 . S
C1032 C1034 1.378 . S
C1032 C1036 1.350 . S
C1033 C1036 1.463 . S
C1033 C1038 1.350 . S
C1033 N1041 1.427 . S
C1034 H1025 0.930 . S
C1034 C1032 1.378 . S
C1034 C1035 1.367 . S
C1035 C1034 1.367 . S
C1035 C1037 1.433 . S
C1036 C1032 1.350 . S
C1036 C1033 1.463 . S
C1036 N1040 1.427 . S
C1037 H1027 0.929 . S
C1037 C1035 1.433 . S
C1037 N1040 1.384 . S
C1038 H1029 0.929 . S
C1038 C1030 1.378 . S
C1038 C1033 1.350 . S
C1039 H1026 0.929 . S
C1039 C1031 1.433 . S
C1039 N1041 1.384 . S
N1040 C1036 1.427 . S
N1040 C1037 1.384 . S
N1041 C1033 1.427 . S
N1041 C1039 1.384 . S
H1042 C1048 0.930 . S
H1043 C1052 0.930 . S
H1044 C1057 0.929 . S
H1045 C1055 0.929 . S
H1046 C1050 0.929 . S
H1047 C1056 0.929 . S
C1048 H1042 0.930 . S
C1048 C1049 1.367 . S
C1048 C1056 1.378 . S
C1049 C1048 1.367 . S
C1049 C1057 1.433 . S
C1050 H1046 0.929 . S
C1050 C1052 1.378 . S
C1050 C1054 1.350 . S
C1051 C1054 1.463 . S
C1051 C1056 1.350 . S
C1051 N1059 1.427 . S
C1052 H1043 0.930 . S
C1052 C1050 1.378 . S
C1052 C1053 1.367 . S
C1053 C1052 1.367 . S
C1053 C1055 1.433 . S
C1054 C1050 1.350 . S
C1054 C1051 1.463 . S
C1054 N1058 1.427 . S
C1055 H1045 0.929 . S
C1055 C1053 1.433 . S
C1055 N1058 1.384 . S
C1056 H1047 0.929 . S
C1056 C1048 1.378 . S
C1056 C1051 1.350 . S
C1057 H1044 0.929 . S
C1057 C1049 1.433 . S
C1057 N1059 1.384 . S
N1058 C1054 1.427 . S
N1058 C1055 1.384 . S
N1059 C1051 1.427 . S
N1059 C1057 1.384 . S
H1060 C1066 0.930 . S
H1061 C1070 0.930 . S
H1062 C1075 0.929 . S
H1063 C1073 0.929 . S
H1064 C1068 0.929 . S
H1065 C1074 0.929 . S
C1066 H1060 0.930 . S
C1066 C1067 1.367 . S
C1066 C1074 1.378 . S
C1067 C1066 1.367 . S
C1067 C1075 1.433 . S
C1068 H1064 0.929 . S
C1068 C1070 1.378 . S
C1068 C1072 1.350 . S
C1069 C1072 1.463 . S
C1069 C1074 1.350 . S
C1069 N1077 1.427 . S
C1070 H1061 0.930 . S
C1070 C1068 1.378 . S
C1070 C1071 1.367 . S
C1071 C1070 1.367 . S
C1071 C1073 1.433 . S
C1072 C1068 1.350 . S
C1072 C1069 1.463 . S
C1072 N1076 1.427 . S
C1073 H1063 0.929 . S
C1073 C1071 1.433 . S
C1073 N1076 1.384 . S
C1074 H1065 0.929 . S
C1074 C1066 1.378 . S
C1074 C1069 1.350 . S
C1075 H1062 0.929 . S
C1075 C1067 1.433 . S
C1075 N1077 1.384 . S
N1076 C1072 1.427 . S
N1076 C1073 1.384 . S
N1077 C1069 1.427 . S
N1077 C1075 1.384 . S
H1078 C1084 0.930 . S
H1079 C1088 0.930 . S
H1080 C1093 0.929 . S
H1081 C1091 0.929 . S
H1082 C1086 0.929 . S
H1083 C1092 0.929 . S
C1084 H1078 0.930 . S
C1084 C1085 1.367 . S
C1084 C1092 1.378 . S
C1085 C1084 1.367 . S
C1085 C1093 1.433 . S
C1086 H1082 0.929 . S
C1086 C1088 1.378 . S
C1086 C1090 1.350 . S
C1087 C1090 1.463 . S
C1087 C1092 1.350 . S
C1087 N1095 1.427 . S
C1088 H1079 0.930 . S
C1088 C1086 1.378 . S
C1088 C1089 1.367 . S
C1089 C1088 1.367 . S
C1089 C1091 1.433 . S
C1090 C1086 1.350 . S
C1090 C1087 1.463 . S
C1090 N1094 1.427 . S
C1091 H1081 0.929 . S
C1091 C1089 1.433 . S
C1091 N1094 1.384 . S
C1092 H1083 0.929 . S
C1092 C1084 1.378 . S
C1092 C1087 1.350 . S
C1093 H1080 0.929 . S
C1093 C1085 1.433 . S
C1093 N1095 1.384 . S
N1094 C1090 1.427 . S
N1094 C1091 1.384 . S
N1095 C1087 1.427 . S
N1095 C1093 1.384 . S
H1096 C1102 0.930 . S
H1097 C1106 0.930 . S
H1098 C1111 0.929 . S
H1099 C1109 0.929 . S
H1100 C1104 0.929 . S
H1101 C1110 0.929 . S
C1102 H1096 0.930 . S
C1102 C1103 1.367 . S
C1102 C1110 1.378 . S
C1103 C1102 1.367 . S
C1103 C1111 1.433 . S
C1104 H1100 0.929 . S
C1104 C1106 1.378 . S
C1104 C1108 1.350 . S
C1105 C1108 1.463 . S
C1105 C1110 1.350 . S
C1105 N1113 1.427 . S
C1106 H1097 0.930 . S
C1106 C1104 1.378 . S
C1106 C1107 1.367 . S
C1107 C1106 1.367 . S
C1107 C1109 1.433 . S
C1108 C1104 1.350 . S
C1108 C1105 1.463 . S
C1108 N1112 1.427 . S
C1109 H1099 0.929 . S
C1109 C1107 1.433 . S
C1109 N1112 1.384 . S
C1110 H1101 0.929 . S
C1110 C1102 1.378 . S
C1110 C1105 1.350 . S
C1111 H1098 0.929 . S
C1111 C1103 1.433 . S
C1111 N1113 1.384 . S
N1112 C1108 1.427 . S
N1112 C1109 1.384 . S
N1113 C1105 1.427 . S
N1113 C1111 1.384 . S
H1114 C1120 0.930 . S
H1115 C1124 0.930 . S
H1116 C1129 0.929 . S
H1117 C1127 0.929 . S
H1118 C1122 0.929 . S
H1119 C1128 0.929 . S
C1120 H1114 0.930 . S
C1120 C1121 1.367 . S
C1120 C1128 1.378 . S
C1121 C1120 1.367 . S
C1121 C1129 1.433 . S
C1122 H1118 0.929 . S
C1122 C1124 1.378 . S
C1122 C1126 1.350 . S
C1123 C1126 1.463 . S
C1123 C1128 1.350 . S
C1123 N1131 1.427 . S
C1124 H1115 0.930 . S
C1124 C1122 1.378 . S
C1124 C1125 1.367 . S
C1125 C1124 1.367 . S
C1125 C1127 1.433 . S
C1126 C1122 1.350 . S
C1126 C1123 1.463 . S
C1126 N1130 1.427 . S
C1127 H1117 0.929 . S
C1127 C1125 1.433 . S
C1127 N1130 1.384 . S
C1128 H1119 0.929 . S
C1128 C1120 1.378 . S
C1128 C1123 1.350 . S
C1129 H1116 0.929 . S
C1129 C1121 1.433 . S
C1129 N1131 1.384 . S
N1130 C1126 1.427 . S
N1130 C1127 1.384 . S
N1131 C1123 1.427 . S
N1131 C1129 1.384 . S
H1132 C1138 0.930 . S
H1133 C1142 0.930 . S
H1134 C1147 0.929 . S
H1135 C1145 0.929 . S
H1136 C1140 0.929 . S
H1137 C1146 0.929 . S
C1138 H1132 0.930 . S
C1138 C1139 1.367 . S
C1138 C1146 1.378 . S
C1139 C1138 1.367 . S
C1139 C1147 1.433 . S
C1140 H1136 0.929 . S
C1140 C1142 1.378 . S
C1140 C1144 1.350 . S
C1141 C1144 1.463 . S
C1141 C1146 1.350 . S
C1141 N1149 1.427 . S
C1142 H1133 0.930 . S
C1142 C1140 1.378 . S
C1142 C1143 1.367 . S
C1143 C1142 1.367 . S
C1143 C1145 1.433 . S
C1144 C1140 1.350 . S
C1144 C1141 1.463 . S
C1144 N1148 1.427 . S
C1145 H1135 0.929 . S
C1145 C1143 1.433 . S
C1145 N1148 1.384 . S
C1146 H1137 0.929 . S
C1146 C1138 1.378 . S
C1146 C1141 1.350 . S
C1147 H1134 0.929 . S
C1147 C1139 1.433 . S
C1147 N1149 1.384 . S
N1148 C1144 1.427 . S
N1148 C1145 1.384 . S
N1149 C1141 1.427 . S
N1149 C1147 1.384 . S
H1150 C1156 0.930 . S
H1151 C1160 0.930 . S
H1152 C1165 0.929 . S
H1153 C1163 0.929 . S
H1154 C1158 0.929 . S
H1155 C1164 0.929 . S
C1156 H1150 0.930 . S
C1156 C1157 1.367 . S
C1156 C1164 1.378 . S
C1157 C1156 1.367 . S
C1157 C1165 1.433 . S
C1158 H1154 0.929 . S
C1158 C1160 1.378 . S
C1158 C1162 1.350 . S
C1159 C1162 1.463 . S
C1159 C1164 1.350 . S
C1159 N1167 1.427 . S
C1160 H1151 0.930 . S
C1160 C1158 1.378 . S
C1160 C1161 1.367 . S
C1161 C1160 1.367 . S
C1161 C1163 1.433 . S
C1162 C1158 1.350 . S
C1162 C1159 1.463 . S
C1162 N1166 1.427 . S
C1163 H1153 0.929 . S
C1163 C1161 1.433 . S
C1163 N1166 1.384 . S
C1164 H1155 0.929 . S
C1164 C1156 1.378 . S
C1164 C1159 1.350 . S
C1165 H1152 0.929 . S
C1165 C1157 1.433 . S
C1165 N1167 1.384 . S
N1166 C1162 1.427 . S
N1166 C1163 1.384 . S
N1167 C1159 1.427 . S
N1167 C1165 1.384 . S
H1168 C1174 0.930 . S
H1169 C1178 0.930 . S
H1170 C1183 0.929 . S
H1171 C1181 0.929 . S
H1172 C1176 0.929 . S
H1173 C1182 0.929 . S
C1174 H1168 0.930 . S
C1174 C1175 1.367 . S
C1174 C1182 1.378 . S
C1175 C1174 1.367 . S
C1175 C1183 1.433 . S
C1176 H1172 0.929 . S
C1176 C1178 1.378 . S
C1176 C1180 1.350 . S
C1177 C1180 1.463 . S
C1177 C1182 1.350 . S
C1177 N1185 1.427 . S
C1178 H1169 0.930 . S
C1178 C1176 1.378 . S
C1178 C1179 1.367 . S
C1179 C1178 1.367 . S
C1179 C1181 1.433 . S
C1180 C1176 1.350 . S
C1180 C1177 1.463 . S
C1180 N1184 1.427 . S
C1181 H1171 0.929 . S
C1181 C1179 1.433 . S
C1181 N1184 1.384 . S
C1182 H1173 0.929 . S
C1182 C1174 1.378 . S
C1182 C1177 1.350 . S
C1183 H1170 0.929 . S
C1183 C1175 1.433 . S
C1183 N1185 1.384 . S
N1184 C1180 1.427 . S
N1184 C1181 1.384 . S
N1185 C1177 1.427 . S
N1185 C1183 1.384 . S
H1186 C1192 0.930 . S
H1187 C1196 0.930 . S
H1188 C1201 0.929 . S
H1189 C1199 0.929 . S
H1190 C1194 0.929 . S
H1191 C1200 0.929 . S
C1192 H1186 0.930 . S
C1192 C1193 1.367 . S
C1192 C1200 1.378 . S
C1193 C1192 1.367 . S
C1193 C1201 1.433 . S
C1194 H1190 0.929 . S
C1194 C1196 1.378 . S
C1194 C1198 1.350 . S
C1195 C1198 1.463 . S
C1195 C1200 1.350 . S
C1195 N1203 1.427 . S
C1196 H1187 0.930 . S
C1196 C1194 1.378 . S
C1196 C1197 1.367 . S
C1197 C1196 1.367 . S
C1197 C1199 1.433 . S
C1198 C1194 1.350 . S
C1198 C1195 1.463 . S
C1198 N1202 1.427 . S
C1199 H1189 0.929 . S
C1199 C1197 1.433 . S
C1199 N1202 1.384 . S
C1200 H1191 0.929 . S
C1200 C1192 1.378 . S
C1200 C1195 1.350 . S
C1201 H1188 0.929 . S
C1201 C1193 1.433 . S
C1201 N1203 1.384 . S
N1202 C1198 1.427 . S
N1202 C1199 1.384 . S
N1203 C1195 1.427 . S
N1203 C1201 1.384 . S
H1204 C1210 0.930 . S
H1205 C1214 0.930 . S
H1206 C1219 0.929 . S
H1207 C1217 0.929 . S
H1208 C1212 0.929 . S
H1209 C1218 0.929 . S
C1210 H1204 0.930 . S
C1210 C1211 1.367 . S
C1210 C1218 1.378 . S
C1211 C1210 1.367 . S
C1211 C1219 1.433 . S
C1212 H1208 0.929 . S
C1212 C1214 1.378 . S
C1212 C1216 1.350 . S
C1213 C1216 1.463 . S
C1213 C1218 1.350 . S
C1213 N1221 1.427 . S
C1214 H1205 0.930 . S
C1214 C1212 1.378 . S
C1214 C1215 1.367 . S
C1215 C1214 1.367 . S
C1215 C1217 1.433 . S
C1216 C1212 1.350 . S
C1216 C1213 1.463 . S
C1216 N1220 1.427 . S
C1217 H1207 0.929 . S
C1217 C1215 1.433 . S
C1217 N1220 1.384 . S
C1218 H1209 0.929 . S
C1218 C1210 1.378 . S
C1218 C1213 1.350 . S
C1219 H1206 0.929 . S
C1219 C1211 1.433 . S
C1219 N1221 1.384 . S
N1220 C1216 1.427 . S
N1220 C1217 1.384 . S
N1221 C1213 1.427 . S
N1221 C1219 1.384 . S
H1222 C1228 0.930 . S
H1223 C1232 0.930 . S
H1224 C1237 0.929 . S
H1225 C1235 0.929 . S
H1226 C1230 0.929 . S
H1227 C1236 0.929 . S
C1228 H1222 0.930 . S
C1228 C1229 1.367 . S
C1228 C1236 1.378 . S
C1229 C1228 1.367 . S
C1229 C1237 1.433 . S
C1230 H1226 0.929 . S
C1230 C1232 1.378 . S
C1230 C1234 1.350 . S
C1231 C1234 1.463 . S
C1231 C1236 1.350 . S
C1231 N1239 1.427 . S
C1232 H1223 0.930 . S
C1232 C1230 1.378 . S
C1232 C1233 1.367 . S
C1233 C1232 1.367 . S
C1233 C1235 1.433 . S
C1234 C1230 1.350 . S
C1234 C1231 1.463 . S
C1234 N1238 1.427 . S
C1235 H1225 0.929 . S
C1235 C1233 1.433 . S
C1235 N1238 1.384 . S
C1236 H1227 0.929 . S
C1236 C1228 1.378 . S
C1236 C1231 1.350 . S
C1237 H1224 0.929 . S
C1237 C1229 1.433 . S
C1237 N1239 1.384 . S
N1238 C1234 1.427 . S
N1238 C1235 1.384 . S
N1239 C1231 1.427 . S
N1239 C1237 1.384 . S
H1240 C1246 0.930 . S
H1241 C1250 0.930 . S
H1242 C1255 0.929 . S
H1243 C1253 0.929 . S
H1244 C1248 0.929 . S
H1245 C1254 0.929 . S
C1246 H1240 0.930 . S
C1246 C1247 1.367 . S
C1246 C1254 1.378 . S
C1247 C1246 1.367 . S
C1247 C1255 1.433 . S
C1248 H1244 0.929 . S
C1248 C1250 1.378 . S
C1248 C1252 1.350 . S
C1249 C1252 1.463 . S
C1249 C1254 1.350 . S
C1249 N1257 1.427 . S
C1250 H1241 0.930 . S
C1250 C1248 1.378 . S
C1250 C1251 1.367 . S
C1251 C1250 1.367 . S
C1251 C1253 1.433 . S
C1252 C1248 1.350 . S
C1252 C1249 1.463 . S
C1252 N1256 1.427 . S
C1253 H1243 0.929 . S
C1253 C1251 1.433 . S
C1253 N1256 1.384 . S
C1254 H1245 0.929 . S
C1254 C1246 1.378 . S
C1254 C1249 1.350 . S
C1255 H1242 0.929 . S
C1255 C1247 1.433 . S
C1255 N1257 1.384 . S
N1256 C1252 1.427 . S
N1256 C1253 1.384 . S
N1257 C1249 1.427 . S
N1257 C1255 1.384 . S
H1258 C1264 0.930 . S
H1259 C1268 0.930 . S
H1260 C1273 0.929 . S
H1261 C1271 0.929 . S
H1262 C1266 0.929 . S
H1263 C1272 0.929 . S
C1264 H1258 0.930 . S
C1264 C1265 1.367 . S
C1264 C1272 1.378 . S
C1265 C1264 1.367 . S
C1265 C1273 1.433 . S
C1266 H1262 0.929 . S
C1266 C1268 1.378 . S
C1266 C1270 1.350 . S
C1267 C1270 1.463 . S
C1267 C1272 1.350 . S
C1267 N1275 1.427 . S
C1268 H1259 0.930 . S
C1268 C1266 1.378 . S
C1268 C1269 1.367 . S
C1269 C1268 1.367 . S
C1269 C1271 1.433 . S
C1270 C1266 1.350 . S
C1270 C1267 1.463 . S
C1270 N1274 1.427 . S
C1271 H1261 0.929 . S
C1271 C1269 1.433 . S
C1271 N1274 1.384 . S
C1272 H1263 0.929 . S
C1272 C1264 1.378 . S
C1272 C1267 1.350 . S
C1273 H1260 0.929 . S
C1273 C1265 1.433 . S
C1273 N1275 1.384 . S
N1274 C1270 1.427 . S
N1274 C1271 1.384 . S
N1275 C1267 1.427 . S
N1275 C1273 1.384 . S
H1276 C1282 0.930 . S
H1277 C1286 0.930 . S
H1278 C1291 0.929 . S
H1279 C1289 0.929 . S
H1280 C1284 0.929 . S
H1281 C1290 0.929 . S
C1282 H1276 0.930 . S
C1282 C1283 1.367 . S
C1282 C1290 1.378 . S
C1283 C1282 1.367 . S
C1283 C1291 1.433 . S
C1284 H1280 0.929 . S
C1284 C1286 1.378 . S
C1284 C1288 1.350 . S
C1285 C1288 1.463 . S
C1285 C1290 1.350 . S
C1285 N1293 1.427 . S
C1286 H1277 0.930 . S
C1286 C1284 1.378 . S
C1286 C1287 1.367 . S
C1287 C1286 1.367 . S
C1287 C1289 1.433 . S
C1288 C1284 1.350 . S
C1288 C1285 1.463 . S
C1288 N1292 1.427 . S
C1289 H1279 0.929 . S
C1289 C1287 1.433 . S
C1289 N1292 1.384 . S
C1290 H1281 0.929 . S
C1290 C1282 1.378 . S
C1290 C1285 1.350 . S
C1291 H1278 0.929 . S
C1291 C1283 1.433 . S
C1291 N1293 1.384 . S
N1292 C1288 1.427 . S
N1292 C1289 1.384 . S
N1293 C1285 1.427 . S
N1293 C1291 1.384 . S
H1294 C1300 0.930 . S
H1295 C1304 0.930 . S
H1296 C1309 0.929 . S
H1297 C1307 0.929 . S
H1298 C1302 0.929 . S
H1299 C1308 0.929 . S
C1300 H1294 0.930 . S
C1300 C1301 1.367 . S
C1300 C1308 1.378 . S
C1301 C1300 1.367 . S
C1301 C1309 1.433 . S
C1302 H1298 0.929 . S
C1302 C1304 1.378 . S
C1302 C1306 1.350 . S
C1303 C1306 1.463 . S
C1303 C1308 1.350 . S
C1303 N1311 1.427 . S
C1304 H1295 0.930 . S
C1304 C1302 1.378 . S
C1304 C1305 1.367 . S
C1305 C1304 1.367 . S
C1305 C1307 1.433 . S
C1306 C1302 1.350 . S
C1306 C1303 1.463 . S
C1306 N1310 1.427 . S
C1307 H1297 0.929 . S
C1307 C1305 1.433 . S
C1307 N1310 1.384 . S
C1308 H1299 0.929 . S
C1308 C1300 1.378 . S
C1308 C1303 1.350 . S
C1309 H1296 0.929 . S
C1309 C1301 1.433 . S
C1309 N1311 1.384 . S
N1310 C1306 1.427 . S
N1310 C1307 1.384 . S
N1311 C1303 1.427 . S
N1311 C1309 1.384 . S
H1312 C1318 0.930 . S
H1313 C1322 0.930 . S
H1314 C1327 0.929 . S
H1315 C1325 0.929 . S
H1316 C1320 0.929 . S
H1317 C1326 0.929 . S
C1318 H1312 0.930 . S
C1318 C1319 1.367 . S
C1318 C1326 1.378 . S
C1319 C1318 1.367 . S
C1319 C1327 1.433 . S
C1320 H1316 0.929 . S
C1320 C1322 1.378 . S
C1320 C1324 1.350 . S
C1321 C1324 1.463 . S
C1321 C1326 1.350 . S
C1321 N1329 1.427 . S
C1322 H1313 0.930 . S
C1322 C1320 1.378 . S
C1322 C1323 1.367 . S
C1323 C1322 1.367 . S
C1323 C1325 1.433 . S
C1324 C1320 1.350 . S
C1324 C1321 1.463 . S
C1324 N1328 1.427 . S
C1325 H1315 0.929 . S
C1325 C1323 1.433 . S
C1325 N1328 1.384 . S
C1326 H1317 0.929 . S
C1326 C1318 1.378 . S
C1326 C1321 1.350 . S
C1327 H1314 0.929 . S
C1327 C1319 1.433 . S
C1327 N1329 1.384 . S
N1328 C1324 1.427 . S
N1328 C1325 1.384 . S
N1329 C1321 1.427 . S
N1329 C1327 1.384 . S
H1330 C1336 0.930 . S
H1331 C1340 0.930 . S
H1332 C1345 0.929 . S
H1333 C1343 0.929 . S
H1334 C1338 0.929 . S
H1335 C1344 0.929 . S
C1336 H1330 0.930 . S
C1336 C1337 1.367 . S
C1336 C1344 1.378 . S
C1337 C1336 1.367 . S
C1337 C1345 1.433 . S
C1338 H1334 0.929 . S
C1338 C1340 1.378 . S
C1338 C1342 1.350 . S
C1339 C1342 1.463 . S
C1339 C1344 1.350 . S
C1339 N1347 1.427 . S
C1340 H1331 0.930 . S
C1340 C1338 1.378 . S
C1340 C1341 1.367 . S
C1341 C1340 1.367 . S
C1341 C1343 1.433 . S
C1342 C1338 1.350 . S
C1342 C1339 1.463 . S
C1342 N1346 1.427 . S
C1343 H1333 0.929 . S
C1343 C1341 1.433 . S
C1343 N1346 1.384 . S
C1344 H1335 0.929 . S
C1344 C1336 1.378 . S
C1344 C1339 1.350 . S
C1345 H1332 0.929 . S
C1345 C1337 1.433 . S
C1345 N1347 1.384 . S
N1346 C1342 1.427 . S
N1346 C1343 1.384 . S
N1347 C1339 1.427 . S
N1347 C1345 1.384 . S
H1348 C1354 0.930 . S
H1349 C1358 0.930 . S
H1350 C1363 0.929 . S
H1351 C1361 0.929 . S
H1352 C1356 0.929 . S
H1353 C1362 0.929 . S
C1354 H1348 0.930 . S
C1354 C1355 1.379 . S
C1354 C1362 1.378 . S
C1355 C1354 1.379 . S
C1355 C1363 1.421 1_554 S
C1356 H1352 0.929 . S
C1356 C1358 1.378 . S
C1356 C1360 1.374 . S
C1357 C1360 1.461 1_554 S
C1357 C1362 1.370 . S
C1357 N1365 1.407 1_554 S
C1358 H1349 0.930 . S
C1358 C1356 1.378 . S
C1358 C1359 1.382 . S
C1359 C1358 1.382 . S
C1359 C1361 1.418 1_556 S
C1360 C1356 1.374 . S
C1360 C1357 1.461 1_556 S
C1360 N1364 1.403 1_556 S
C1361 H1351 0.929 . S
C1361 C1359 1.418 1_554 S
C1361 N1364 1.384 . S
C1362 H1353 0.929 . S
C1362 C1354 1.378 . S
C1362 C1357 1.370 . S
C1363 H1350 0.929 . S
C1363 C1355 1.421 1_556 S
C1363 N1365 1.384 . S
N1364 C1360 1.403 1_554 S
N1364 C1361 1.384 . S
N1365 C1357 1.407 1_556 S
N1365 C1363 1.384 . S
H1366 C1372 0.930 . S
H1367 C1376 0.930 . S
H1368 C1381 0.929 . S
H1369 C1379 0.929 . S
H1370 C1374 0.929 . S
H1371 C1380 0.929 . S
C1372 H1366 0.930 . S
C1372 C1373 1.379 . S
C1372 C1380 1.378 . S
C1373 C1372 1.379 . S
C1373 C1381 1.421 1_556 S
C1374 H1370 0.929 . S
C1374 C1376 1.378 . S
C1374 C1378 1.366 . S
C1375 C1378 1.461 1_556 S
C1375 C1380 1.369 . S
C1375 N1383 1.408 1_556 S
C1376 H1367 0.930 . S
C1376 C1374 1.378 . S
C1376 C1377 1.376 . S
C1377 C1376 1.376 . S
C1377 C1379 1.424 1_554 S
C1378 C1374 1.366 . S
C1378 C1375 1.461 1_554 S
C1378 N1382 1.411 1_554 S
C1379 H1369 0.929 . S
C1379 C1377 1.424 1_556 S
C1379 N1382 1.384 . S
C1380 H1371 0.929 . S
C1380 C1372 1.378 . S
C1380 C1375 1.369 . S
C1381 H1368 0.929 . S
C1381 C1373 1.421 1_554 S
C1381 N1383 1.384 . S
N1382 C1378 1.411 1_556 S
N1382 C1379 1.384 . S
N1383 C1375 1.408 1_554 S
N1383 C1381 1.384 . S
H1384 C1390 0.930 . S
H1385 C1394 0.930 . S
H1386 C1399 0.929 . S
H1387 C1397 0.929 . S
H1388 C1392 0.929 . S
H1389 C1398 0.929 . S
C1390 H1384 0.930 . S
C1390 C1391 1.367 . S
C1390 C1398 1.378 . S
C1391 C1390 1.367 . S
C1391 C1399 1.433 . S
C1392 H1388 0.929 . S
C1392 C1394 1.378 . S
C1392 C1396 1.350 . S
C1393 C1396 1.463 . S
C1393 C1398 1.350 . S
C1393 N1401 1.427 . S
C1394 H1385 0.930 . S
C1394 C1392 1.378 . S
C1394 C1395 1.367 . S
C1395 C1394 1.367 . S
C1395 C1397 1.433 . S
C1396 C1392 1.350 . S
C1396 C1393 1.463 . S
C1396 N1400 1.427 . S
C1397 H1387 0.929 . S
C1397 C1395 1.433 . S
C1397 N1400 1.384 . S
C1398 H1389 0.929 . S
C1398 C1390 1.378 . S
C1398 C1393 1.350 . S
C1399 H1386 0.929 . S
C1399 C1391 1.433 . S
C1399 N1401 1.384 . S
N1400 C1396 1.427 . S
N1400 C1397 1.384 . S
N1401 C1393 1.427 . S
N1401 C1399 1.384 . S
H1402 C1408 0.930 . S
H1403 C1412 0.930 . S
H1404 C1417 0.929 . S
H1405 C1415 0.929 . S
H1406 C1410 0.929 . S
H1407 C1416 0.929 . S
C1408 H1402 0.930 . S
C1408 C1409 1.367 . S
C1408 C1416 1.378 . S
C1409 C1408 1.367 . S
C1409 C1417 1.433 . S
C1410 H1406 0.929 . S
C1410 C1412 1.378 . S
C1410 C1414 1.350 . S
C1411 C1414 1.463 . S
C1411 C1416 1.350 . S
C1411 N1419 1.427 . S
C1412 H1403 0.930 . S
C1412 C1410 1.378 . S
C1412 C1413 1.367 . S
C1413 C1412 1.367 . S
C1413 C1415 1.433 . S
C1414 C1410 1.350 . S
C1414 C1411 1.463 . S
C1414 N1418 1.427 . S
C1415 H1405 0.929 . S
C1415 C1413 1.433 . S
C1415 N1418 1.384 . S
C1416 H1407 0.929 . S
C1416 C1408 1.378 . S
C1416 C1411 1.350 . S
C1417 H1404 0.929 . S
C1417 C1409 1.433 . S
C1417 N1419 1.384 . S
N1418 C1414 1.427 . S
N1418 C1415 1.384 . S
N1419 C1411 1.427 . S
N1419 C1417 1.384 . S
H1420 C1426 0.930 . S
H1421 C1430 0.930 . S
H1422 C1435 0.929 . S
H1423 C1433 0.929 . S
H1424 C1428 0.929 . S
H1425 C1434 0.929 . S
C1426 H1420 0.930 . S
C1426 C1427 1.383 . S
C1426 C1434 1.378 . S
C1427 C1426 1.383 . S
C1427 C1435 1.417 1_556 S
C1428 H1424 0.929 . S
C1428 C1430 1.378 . S
C1428 C1432 1.381 . S
C1429 C1432 1.460 1_556 S
C1429 C1434 1.377 . S
C1429 N1437 1.400 1_556 S
C1430 H1421 0.930 . S
C1430 C1428 1.378 . S
C1430 C1431 1.387 . S
C1431 C1430 1.387 . S
C1431 C1433 1.413 1_554 S
C1432 C1428 1.381 . S
C1432 C1429 1.460 1_554 S
C1432 N1436 1.396 1_554 S
C1433 H1423 0.929 . S
C1433 C1431 1.413 1_556 S
C1433 N1436 1.384 . S
C1434 H1425 0.929 . S
C1434 C1426 1.378 . S
C1434 C1429 1.377 . S
C1435 H1422 0.929 . S
C1435 C1427 1.417 1_554 S
C1435 N1437 1.384 . S
N1436 C1432 1.396 1_556 S
N1436 C1433 1.384 . S
N1437 C1429 1.400 1_554 S
N1437 C1435 1.384 . S
H1438 C1444 0.930 . S
H1439 C1448 0.930 . S
H1440 C1453 0.929 . S
H1441 C1451 0.929 . S
H1442 C1446 0.929 . S
H1443 C1452 0.929 . S
C1444 H1438 0.930 . S
C1444 C1445 1.388 . S
C1444 C1452 1.378 . S
C1445 C1444 1.388 . S
C1445 C1453 1.411 1_554 S
C1446 H1442 0.929 . S
C1446 C1448 1.378 . S
C1446 C1450 1.379 . S
C1447 C1450 1.460 1_554 S
C1447 C1452 1.383 . S
C1447 N1455 1.394 1_554 S
C1448 H1439 0.930 . S
C1448 C1446 1.378 . S
C1448 C1449 1.384 . S
C1449 C1448 1.384 . S
C1449 C1451 1.415 1_556 S
C1450 C1446 1.379 . S
C1450 C1447 1.460 1_556 S
C1450 N1454 1.398 1_556 S
C1451 H1441 0.929 . S
C1451 C1449 1.415 1_554 S
C1451 N1454 1.384 . S
C1452 H1443 0.929 . S
C1452 C1444 1.378 . S
C1452 C1447 1.383 . S
C1453 H1440 0.929 . S
C1453 C1445 1.411 1_556 S
C1453 N1455 1.384 . S
N1454 C1450 1.398 1_554 S
N1454 C1451 1.384 . S
N1455 C1447 1.394 1_556 S
N1455 C1453 1.384 . S
H1456 C1462 0.930 . S
H1457 C1466 0.930 . S
H1458 C1471 0.929 . S
H1459 C1469 0.929 . S
H1460 C1464 0.929 . S
H1461 C1470 0.929 . S
C1462 H1456 0.930 . S
C1462 C1463 1.367 . S
C1462 C1470 1.378 . S
C1463 C1462 1.367 . S
C1463 C1471 1.433 . S
C1464 H1460 0.929 . S
C1464 C1466 1.378 . S
C1464 C1468 1.350 . S
C1465 C1468 1.463 . S
C1465 C1470 1.350 . S
C1465 N1473 1.427 . S
C1466 H1457 0.930 . S
C1466 C1464 1.378 . S
C1466 C1467 1.367 . S
C1467 C1466 1.367 . S
C1467 C1469 1.433 . S
C1468 C1464 1.350 . S
C1468 C1465 1.463 . S
C1468 N1472 1.427 . S
C1469 H1459 0.929 . S
C1469 C1467 1.433 . S
C1469 N1472 1.384 . S
C1470 H1461 0.929 . S
C1470 C1462 1.378 . S
C1470 C1465 1.350 . S
C1471 H1458 0.929 . S
C1471 C1463 1.433 . S
C1471 N1473 1.384 . S
N1472 C1468 1.427 . S
N1472 C1469 1.384 . S
N1473 C1465 1.427 . S
N1473 C1471 1.384 . S
H1474 C1480 0.930 . S
H1475 C1484 0.930 . S
H1476 C1489 0.929 . S
H1477 C1487 0.929 . S
H1478 C1482 0.929 . S
H1479 C1488 0.929 . S
C1480 H1474 0.930 . S
C1480 C1481 1.367 . S
C1480 C1488 1.378 . S
C1481 C1480 1.367 . S
C1481 C1489 1.433 . S
C1482 H1478 0.929 . S
C1482 C1484 1.378 . S
C1482 C1486 1.350 . S
C1483 C1486 1.463 . S
C1483 C1488 1.350 . S
C1483 N1491 1.427 . S
C1484 H1475 0.930 . S
C1484 C1482 1.378 . S
C1484 C1485 1.367 . S
C1485 C1484 1.367 . S
C1485 C1487 1.433 . S
C1486 C1482 1.350 . S
C1486 C1483 1.463 . S
C1486 N1490 1.427 . S
C1487 H1477 0.929 . S
C1487 C1485 1.433 . S
C1487 N1490 1.384 . S
C1488 H1479 0.929 . S
C1488 C1480 1.378 . S
C1488 C1483 1.350 . S
C1489 H1476 0.929 . S
C1489 C1481 1.433 . S
C1489 N1491 1.384 . S
N1490 C1486 1.427 . S
N1490 C1487 1.384 . S
N1491 C1483 1.427 . S
N1491 C1489 1.384 . S
H1492 C1498 0.930 . S
H1493 C1502 0.930 . S
H1494 C1507 0.929 . S
H1495 C1505 0.929 . S
H1496 C1500 0.929 . S
H1497 C1506 0.929 . S
C1498 H1492 0.930 . S
C1498 C1499 1.367 . S
C1498 C1506 1.378 . S
C1499 C1498 1.367 . S
C1499 C1507 1.433 . S
C1500 H1496 0.929 . S
C1500 C1502 1.378 . S
C1500 C1504 1.350 . S
C1501 C1504 1.463 . S
C1501 C1506 1.350 . S
C1501 N1509 1.427 . S
C1502 H1493 0.930 . S
C1502 C1500 1.378 . S
C1502 C1503 1.367 . S
C1503 C1502 1.367 . S
C1503 C1505 1.433 . S
C1504 C1500 1.350 . S
C1504 C1501 1.463 . S
C1504 N1508 1.427 . S
C1505 H1495 0.929 . S
C1505 C1503 1.433 . S
C1505 N1508 1.384 . S
C1506 H1497 0.929 . S
C1506 C1498 1.378 . S
C1506 C1501 1.350 . S
C1507 H1494 0.929 . S
C1507 C1499 1.433 . S
C1507 N1509 1.384 . S
N1508 C1504 1.427 . S
N1508 C1505 1.384 . S
N1509 C1501 1.427 . S
N1509 C1507 1.384 . S
H1510 C1516 0.930 . S
H1511 C1520 0.930 . S
H1512 C1525 0.929 . S
H1513 C1523 0.929 . S
H1514 C1518 0.929 . S
H1515 C1524 0.929 . S
C1516 H1510 0.930 . S
C1516 C1517 1.367 . S
C1516 C1524 1.378 . S
C1517 C1516 1.367 . S
C1517 C1525 1.433 . S
C1518 H1514 0.929 . S
C1518 C1520 1.378 . S
C1518 C1522 1.350 . S
C1519 C1522 1.463 . S
C1519 C1524 1.350 . S
C1519 N1527 1.427 . S
C1520 H1511 0.930 . S
C1520 C1518 1.378 . S
C1520 C1521 1.367 . S
C1521 C1520 1.367 . S
C1521 C1523 1.433 . S
C1522 C1518 1.350 . S
C1522 C1519 1.463 . S
C1522 N1526 1.427 . S
C1523 H1513 0.929 . S
C1523 C1521 1.433 . S
C1523 N1526 1.384 . S
C1524 H1515 0.929 . S
C1524 C1516 1.378 . S
C1524 C1519 1.350 . S
C1525 H1512 0.929 . S
C1525 C1517 1.433 . S
C1525 N1527 1.384 . S
N1526 C1522 1.427 . S
N1526 C1523 1.384 . S
N1527 C1519 1.427 . S
N1527 C1525 1.384 . S
H1528 C1534 0.930 . S
H1529 C1538 0.930 . S
H1530 C1543 0.929 . S
H1531 C1541 0.929 . S
H1532 C1536 0.929 . S
H1533 C1542 0.929 . S
C1534 H1528 0.930 . S
C1534 C1535 1.367 . S
C1534 C1542 1.378 . S
C1535 C1534 1.367 . S
C1535 C1543 1.433 . S
C1536 H1532 0.929 . S
C1536 C1538 1.378 . S
C1536 C1540 1.350 . S
C1537 C1540 1.463 . S
C1537 C1542 1.350 . S
C1537 N1545 1.427 . S
C1538 H1529 0.930 . S
C1538 C1536 1.378 . S
C1538 C1539 1.367 . S
C1539 C1538 1.367 . S
C1539 C1541 1.433 . S
C1540 C1536 1.350 . S
C1540 C1537 1.463 . S
C1540 N1544 1.427 . S
C1541 H1531 0.929 . S
C1541 C1539 1.433 . S
C1541 N1544 1.384 . S
C1542 H1533 0.929 . S
C1542 C1534 1.378 . S
C1542 C1537 1.350 . S
C1543 H1530 0.929 . S
C1543 C1535 1.433 . S
C1543 N1545 1.384 . S
N1544 C1540 1.427 . S
N1544 C1541 1.384 . S
N1545 C1537 1.427 . S
N1545 C1543 1.384 . S
H1546 C1552 0.930 . S
H1547 C1556 0.930 . S
H1548 C1561 0.929 . S
H1549 C1559 0.929 . S
H1550 C1554 0.929 . S
H1551 C1560 0.929 . S
C1552 H1546 0.930 . S
C1552 C1553 1.367 . S
C1552 C1560 1.378 . S
C1553 C1552 1.367 . S
C1553 C1561 1.433 . S
C1554 H1550 0.929 . S
C1554 C1556 1.378 . S
C1554 C1558 1.350 . S
C1555 C1558 1.463 . S
C1555 C1560 1.350 . S
C1555 N1563 1.427 . S
C1556 H1547 0.930 . S
C1556 C1554 1.378 . S
C1556 C1557 1.367 . S
C1557 C1556 1.367 . S
C1557 C1559 1.433 . S
C1558 C1554 1.350 . S
C1558 C1555 1.463 . S
C1558 N1562 1.427 . S
C1559 H1549 0.929 . S
C1559 C1557 1.433 . S
C1559 N1562 1.384 . S
C1560 H1551 0.929 . S
C1560 C1552 1.378 . S
C1560 C1555 1.350 . S
C1561 H1548 0.929 . S
C1561 C1553 1.433 . S
C1561 N1563 1.384 . S
N1562 C1558 1.427 . S
N1562 C1559 1.384 . S
N1563 C1555 1.427 . S
N1563 C1561 1.384 . S
H1564 C1570 0.930 . S
H1565 C1574 0.930 . S
H1566 C1579 0.929 . S
H1567 C1577 0.929 . S
H1568 C1572 0.929 . S
H1569 C1578 0.929 . S
C1570 H1564 0.930 . S
C1570 C1571 1.367 . S
C1570 C1578 1.378 . S
C1571 C1570 1.367 . S
C1571 C1579 1.433 . S
C1572 H1568 0.929 . S
C1572 C1574 1.378 . S
C1572 C1576 1.350 . S
C1573 C1576 1.463 . S
C1573 C1578 1.350 . S
C1573 N1581 1.427 . S
C1574 H1565 0.930 . S
C1574 C1572 1.378 . S
C1574 C1575 1.367 . S
C1575 C1574 1.367 . S
C1575 C1577 1.433 . S
C1576 C1572 1.350 . S
C1576 C1573 1.463 . S
C1576 N1580 1.427 . S
C1577 H1567 0.929 . S
C1577 C1575 1.433 . S
C1577 N1580 1.384 . S
C1578 H1569 0.929 . S
C1578 C1570 1.378 . S
C1578 C1573 1.350 . S
C1579 H1566 0.929 . S
C1579 C1571 1.433 . S
C1579 N1581 1.384 . S
N1580 C1576 1.427 . S
N1580 C1577 1.384 . S
N1581 C1573 1.427 . S
N1581 C1579 1.384 . S
H1582 C1588 0.930 . S
H1583 C1592 0.930 . S
H1584 C1597 0.929 . S
H1585 C1595 0.929 . S
H1586 C1590 0.929 . S
H1587 C1596 0.929 . S
C1588 H1582 0.930 . S
C1588 C1589 1.367 . S
C1588 C1596 1.378 . S
C1589 C1588 1.367 . S
C1589 C1597 1.433 . S
C1590 H1586 0.929 . S
C1590 C1592 1.378 . S
C1590 C1594 1.350 . S
C1591 C1594 1.463 . S
C1591 C1596 1.350 . S
C1591 N1599 1.427 . S
C1592 H1583 0.930 . S
C1592 C1590 1.378 . S
C1592 C1593 1.367 . S
C1593 C1592 1.367 . S
C1593 C1595 1.433 . S
C1594 C1590 1.350 . S
C1594 C1591 1.463 . S
C1594 N1598 1.427 . S
C1595 H1585 0.929 . S
C1595 C1593 1.433 . S
C1595 N1598 1.384 . S
C1596 H1587 0.929 . S
C1596 C1588 1.378 . S
C1596 C1591 1.350 . S
C1597 H1584 0.929 . S
C1597 C1589 1.433 . S
C1597 N1599 1.384 . S
N1598 C1594 1.427 . S
N1598 C1595 1.384 . S
N1599 C1591 1.427 . S
N1599 C1597 1.384 . S
C455 C7 1.157 . S
C459 C49 1.161 . S
C473 C35 1.143 . S
C477 C21 1.150 . S
C491 C63 1.157 . S
C495 C105 1.164 . S
C509 C91 1.148 . S
C513 C77 1.151 . S
C527 C119 1.135 . S
C531 C161 1.133 . S
C545 C147 1.129 . S
C549 C133 1.126 . S
C563 C175 1.133 . S
C567 C217 1.136 . S
C581 C189 1.127 . S
C585 C203 1.125 . S
C599 C273 1.131 . S
C603 C231 1.134 . S
C617 C245 1.138 . S
C621 C259 1.137 . S
C635 C287 1.130 . S
C639 C329 1.128 . S
C653 C315 1.126 . S
C657 C301 1.124 . S
C671 C343 1.157 . S
C675 C385 1.161 . S
C689 C371 1.146 . S
C693 C357 1.153 . S
C707 C399 1.154 . S
C711 C441 1.162 . S
C725 C413 1.145 . S
C729 C427 1.149 . S
C743 C176 1.525 . S
C747 C8 1.525 . S
C761 C22 1.526 . S
C765 C302 1.526 . S
C779 C36 1.514 . S
C783 C92 1.514 . S
C797 C442 1.514 . S
C801 C50 1.515 . S
C815 C64 1.526 . S
C819 C120 1.526 . S
C833 C246 1.525 . S
C837 C78 1.525 . S
C851 C386 1.515 . S
C855 C106 1.515 . S
C869 C414 1.526 . S
C873 C134 1.526 . S
C887 C204 1.515 . S
C891 C148 1.515 . S
C905 C330 1.515 . S
C909 C162 1.515 . S
C923 C190 1.526 . S
C927 C358 1.526 . S
C941 C274 1.516 . S
C945 C218 1.516 . S
C959 C400 1.526 . S
C963 C232 1.526 . S
C977 C316 1.515 . S
C981 C260 1.515 . S
C995 C344 1.526 . S
C999 C288 1.526 . S
C1013 C372 1.515 . S
C1017 C428 1.515 . S
C1031 C143 1.373 . S
C1035 C3 1.373 . S
C1049 C17 1.382 . S
C1053 C157 1.376 . S
C1067 C115 1.371 . S
C1071 C31 1.362 . S
C1085 C129 1.371 . S
C1089 C45 1.363 . S
C1103 C59 1.376 . S
C1107 C199 1.373 . S
C1121 C73 1.381 . S
C1125 C213 1.375 . S
C1139 C171 1.360 . S
C1143 C87 1.350 . S
C1157 C101 1.369 . S
C1161 C185 1.365 . S
C1175 C367 1.358 . S
C1179 C227 1.360 . S
C1193 C381 1.371 . S
C1197 C241 1.360 . S
C1211 C255 1.390 . S
C1215 C339 1.384 . S
C1229 C269 1.390 . S
C1233 C353 1.384 . S
C1247 C283 1.370 . S
C1251 C423 1.359 . S
C1265 C297 1.362 . S
C1269 C437 1.364 . S
C1283 C395 1.386 . S
C1287 C311 1.390 . S
C1301 C409 1.379 . S
C1305 C325 1.387 . S
C1319 C9 1.462 . S
C1323 C359 1.462 . S
C1337 C345 1.461 . S
C1341 C23 1.460 1_655 S
C1355 C37 1.449 1_554 S
C1359 C387 1.449 . S
C1373 C51 1.450 1_655 S
C1377 C373 1.450 1_554 S
C1391 C65 1.457 . S
C1395 C415 1.457 . S
C1409 C79 1.457 1_455 S
C1413 C401 1.458 . S
C1427 C443 1.448 1_556 S
C1431 C93 1.448 . S
C1445 C429 1.446 . S
C1449 C107 1.447 1_456 S
C1463 C247 1.455 . S
C1467 C121 1.454 . S
C1481 C233 1.461 . S
C1485 C135 1.461 1_655 S
C1499 C149 1.447 . S
C1503 C275 1.447 . S
C1517 C163 1.445 1_655 S
C1521 C261 1.446 . S
C1535 C303 1.454 . S
C1539 C177 1.455 . S
C1553 C191 1.459 1_455 S
C1557 C289 1.459 . S
C1571 C205 1.450 . S
C1575 C331 1.451 . S
C1589 C219 1.451 1_455 S
C1593 C317 1.450 . S
