# Generated by pormake.
# Topology umw, (4)-cn, num edge types: 1
# Building blocks:
#     Node 0, Type 0, BuildingBlock: QUQFOY_clean_sbu_3, # of connection points: 4
#     Node 1, Type 0, BuildingBlock: QUQFOY_clean_sbu_3, # of connection points: 4
#     Node 2, Type 0, BuildingBlock: QUQFOY_clean_sbu_3, # of connection points: 4
#     Node 3, Type 0, BuildingBlock: QUQFOY_clean_sbu_3, # of connection points: 4
#     Node 4, Type 0, BuildingBlock: QUQFOY_clean_sbu_3, # of connection points: 4
#     Node 5, Type 0, BuildingBlock: QUQFOY_clean_sbu_3, # of connection points: 4
#     Node 6, Type 0, BuildingBlock: QUQFOY_clean_sbu_3, # of connection points: 4
#     Node 7, Type 0, BuildingBlock: QUQFOY_clean_sbu_3, # of connection points: 4
#     Edge 8, Type (0, 0), BuildingBlock: FUNLAD_clean_linker_0, # of connection points: 2
#     Edge 9, Type (0, 0), BuildingBlock: FUNLAD_clean_linker_0, # of connection points: 2
#     Edge 10, Type (0, 0), BuildingBlock: FUNLAD_clean_linker_0, # of connection points: 2
#     Edge 11, Type (0, 0), BuildingBlock: FUNLAD_clean_linker_0, # of connection points: 2
#     Edge 12, Type (0, 0), BuildingBlock: FUNLAD_clean_linker_0, # of connection points: 2
#     Edge 13, Type (0, 0), BuildingBlock: FUNLAD_clean_linker_0, # of connection points: 2
#     Edge 14, Type (0, 0), BuildingBlock: FUNLAD_clean_linker_0, # of connection points: 2
#     Edge 15, Type (0, 0), BuildingBlock: FUNLAD_clean_linker_0, # of connection points: 2
#     Edge 16, Type (0, 0), BuildingBlock: FUNLAD_clean_linker_0, # of connection points: 2
#     Edge 17, Type (0, 0), BuildingBlock: FUNLAD_clean_linker_0, # of connection points: 2
#     Edge 18, Type (0, 0), BuildingBlock: FUNLAD_clean_linker_0, # of connection points: 2
#     Edge 19, Type (0, 0), BuildingBlock: FUNLAD_clean_linker_0, # of connection points: 2
#     Edge 20, Type (0, 0), BuildingBlock: FUNLAD_clean_linker_0, # of connection points: 2
#     Edge 21, Type (0, 0), BuildingBlock: FUNLAD_clean_linker_0, # of connection points: 2
#     Edge 22, Type (0, 0), BuildingBlock: FUNLAD_clean_linker_0, # of connection points: 2
#     Edge 23, Type (0, 0), BuildingBlock: FUNLAD_clean_linker_0, # of connection points: 2
# Relax obj value: 0.127
# Max RMSD: 0.103
# Mean RMSD: 0.103
data_MOF--net-umw--node1-QUQFOY_clean_sbu_3--edge1-FUNLAD_clean_linker_0
_symmetry_space_group_name_H-M    P1
_symmetry_Int_Tables_number       1
_symmetry_cell_setting            triclinic
loop_
_symmetry_equiv_pos_as_xyz
'x, y, z'
_cell_length_a     49.163233
_cell_length_b     49.235593
_cell_length_c     30.720771
_cell_angle_alpha  89.749516
_cell_angle_beta   90.251928
_cell_angle_gamma 90.076242
loop_
_atom_site_label
_atom_site_type_symbol
_atom_site_fract_x
_atom_site_fract_y
_atom_site_fract_z
_atom_type_partial_charge
C0 C 0.43993 0.21168 0.20557 0.0
O1 O 0.46043 0.20969 0.2306 0.0
Cd2 Cd 0.4609 0.19262 0.30236 0.0
O3 O 0.41605 0.20582 0.21902 0.0
Cd4 Cd 0.39651 0.19253 0.29181 0.0
C5 C 0.4271 0.13166 0.28686 0.0
O6 O 0.42712 0.21827 0.33786 0.0
O7 O 0.40653 0.18528 0.36951 0.0
O8 O 0.36041 0.22622 0.29124 0.0
C9 C 0.42166 0.20601 0.37292 0.0
O10 O 0.44883 0.14455 0.29625 0.0
C11 C 0.34162 0.20991 0.30238 0.0
O12 O 0.40474 0.14421 0.28094 0.0
O13 O 0.3478 0.18489 0.30414 0.0
C14 C 0.78555 0.44856 0.44 0.0
O15 O 0.79285 0.46884 0.46255 0.0
Cd16 Cd 0.81173 0.46812 0.53273 0.0
O17 O 0.78801 0.42434 0.4547 0.0
Cd18 Cd 0.80292 0.40487 0.52712 0.0
C19 C 0.86749 0.42665 0.51826 0.0
O20 O 0.78034 0.43941 0.56874 0.0
O21 O 0.81017 0.41686 0.60469 0.0
O22 O 0.76581 0.37193 0.52597 0.0
C23 C 0.79083 0.43381 0.60513 0.0
O24 O 0.85778 0.44993 0.52711 0.0
C25 C 0.77949 0.35265 0.54267 0.0
O26 O 0.85184 0.40626 0.51332 0.0
O27 O 0.80475 0.35685 0.54805 0.0
C28 C 0.53233 0.78931 0.74065 0.0
O29 O 0.51557 0.79442 0.77083 0.0
Cd30 Cd 0.52508 0.80803 0.84253 0.0
O31 O 0.55801 0.79107 0.74718 0.0
Cd32 Cd 0.58734 0.80213 0.81236 0.0
C33 C 0.56225 0.86576 0.819 0.0
O34 O 0.55944 0.77676 0.86163 0.0
O35 O 0.58748 0.80356 0.89316 0.0
O36 O 0.62037 0.76689 0.79546 0.0
C37 C 0.57017 0.78463 0.89667 0.0
O38 O 0.5412 0.85471 0.83544 0.0
C39 C 0.64092 0.78068 0.80745 0.0
O40 O 0.58184 0.85131 0.80513 0.0
O41 O 0.63678 0.80549 0.81622 0.0
C42 C 0.20096 0.54586 0.97576 0.0
O43 O 0.19493 0.52708 0.00243 0.0
Cd44 Cd 0.17889 0.53202 0.07418 0.0
O45 O 0.19953 0.57084 -0.01325 0.0
Cd46 Cd 0.18861 0.59497 0.05668 0.0
C47 C 0.1237 0.57398 0.05553 0.0
O48 O 0.21019 0.56275 0.10525 0.0
O49 O 0.18137 0.58908 0.13562 0.0
O50 O 0.22676 0.62632 0.0501 0.0
C51 C 0.19958 0.5711 0.14002 0.0
O52 O 0.13326 0.55131 0.06861 0.0
C53 C 0.21357 0.64708 0.06233 0.0
O54 O 0.1395 0.59345 0.04516 0.0
O55 O 0.18811 0.64412 0.06726 0.0
C56 C 0.4556 0.80102 0.36543 0.0
O57 O 0.47349 0.80856 0.33826 0.0
Cd58 Cd 0.4665 0.82411 0.2667 0.0
O59 O 0.43026 0.80195 0.35582 0.0
Cd60 Cd 0.40373 0.8152 0.28858 0.0
C61 C 0.42669 0.88003 0.28628 0.0
O62 O 0.43459 0.79131 0.24273 0.0
O63 O 0.40666 0.81661 0.20757 0.0
O64 O 0.37091 0.77871 0.29937 0.0
C65 C 0.42469 0.79828 0.20655 0.0
O66 O 0.44903 0.87016 0.27285 0.0
C67 C 0.35029 0.7927 0.28841 0.0
O68 O 0.40702 0.86453 0.2968 0.0
O69 O 0.35418 0.81793 0.28248 0.0
C70 C 0.19772 0.44649 0.6138 0.0
O71 O 0.19538 0.4655 0.58603 0.0
Cd72 Cd 0.18042 0.46123 0.51344 0.0
O73 O 0.19289 0.42181 0.60342 0.0
Cd74 Cd 0.18097 0.39769 0.53358 0.0
C75 C 0.11944 0.42721 0.52975 0.0
O76 O 0.20845 0.42611 0.48668 0.0
O77 O 0.17766 0.4028 0.45407 0.0
O78 O 0.21495 0.36281 0.54757 0.0
C79 C 0.19843 0.41793 0.45118 0.0
O80 O 0.13242 0.4484 0.51796 0.0
C81 C 0.20073 0.34329 0.53301 0.0
O82 O 0.13205 0.40551 0.54007 0.0
O83 O 0.17615 0.34859 0.52341 0.0
C84 C 0.54054 0.19416 0.84767 0.0
O85 O 0.52298 0.18707 0.81953 0.0
Cd86 Cd 0.53166 0.17029 0.74916 0.0
O87 O 0.56597 0.19299 0.83933 0.0
Cd88 Cd 0.59324 0.18052 0.77306 0.0
C89 C 0.57258 0.11546 0.77363 0.0
O90 O 0.56329 0.20196 0.72098 0.0
O91 O 0.59077 0.17311 0.69336 0.0
O92 O 0.62392 0.21899 0.78112 0.0
C93 C 0.57334 0.19165 0.68717 0.0
O94 O 0.55047 0.12474 0.7578 0.0
C95 C 0.64546 0.20579 0.77299 0.0
O96 O 0.59151 0.13149 0.78562 0.0
O97 O 0.64304 0.18021 0.76964 0.0
C98 C 0.79499 0.5285 0.07221 0.0
O99 O 0.80116 0.51415 0.03952 0.0
Cd100 Cd 0.81731 0.52963 0.97182 0.0
O101 O 0.79676 0.55443 0.07059 0.0
Cd102 Cd 0.8102 0.58837 0.01278 0.0
C103 C 0.87402 0.56439 0.00822 0.0
O104 O 0.78774 0.56576 0.95376 0.0
O105 O 0.81864 0.59382 0.93383 0.0
O106 O 0.77279 0.61894 0.02805 0.0
C107 C 0.79908 0.57846 0.92305 0.0
O108 O 0.86356 0.54495 -0.01339 0.0
C109 C 0.78663 0.64059 0.02399 0.0
O110 O 0.85907 0.58274 0.02477 0.0
O111 O 0.81221 0.63781 0.02061 0.0
C112 C 0.43976 0.19098 0.44494 0.0
C113 C 0.43795 0.21095 0.41235 0.0
C114 C 0.45802 0.19407 0.47937 0.0
C115 C 0.4746 0.21731 0.48192 0.0
C116 C 0.47158 0.23802 0.45091 0.0
C117 C 0.45359 0.23476 0.41604 0.0
C118 C 0.4951 0.22015 0.5168 0.0
C119 C 0.50978 0.19876 0.5307 0.0
C120 C 0.52868 0.19984 0.56822 0.0
C121 C 0.54873 0.17971 0.5724 0.0
C122 C 0.56451 0.17787 0.61019 0.0
C123 C 0.56016 0.19596 0.64464 0.0
H124 H 0.50971 0.2342 0.6004 0.0
C125 C 0.54097 0.21685 0.63966 0.0
C126 C 0.52532 0.21877 0.60189 0.0
H127 H 0.53724 0.23111 0.66573 0.0
H128 H 0.42781 0.17251 0.44307 0.0
H129 H 0.45933 0.17818 0.50377 0.0
H130 H 0.48387 0.25628 0.45276 0.0
H131 H 0.45237 0.25057 0.3915 0.0
H132 H 0.49881 0.24029 0.52978 0.0
H133 H 0.50771 0.17942 0.51404 0.0
H134 H 0.55161 0.16484 0.54694 0.0
H135 H 0.57917 0.16156 0.61318 0.0
C136 C 0.80472 0.45349 0.67645 0.0
C137 C 0.78553 0.45125 0.64277 0.0
C138 C 0.8011 0.47262 0.70922 0.0
C139 C 0.77811 0.48961 0.70889 0.0
C140 C 0.75823 0.48631 0.6766 0.0
C141 C 0.76204 0.46747 0.64346 0.0
C142 C 0.77421 0.51038 0.74268 0.0
C143 C 0.79528 0.52435 0.75937 0.0
C144 C 0.79303 0.54217 0.79778 0.0
C145 C 0.81422 0.56049 0.80673 0.0
C146 C 0.81529 0.57407 0.84649 0.0
C147 C 0.7953 0.5692 0.87805 0.0
H148 H 0.75559 0.52461 0.82324 0.0
C149 C 0.77315 0.55234 0.86797 0.0
C150 C 0.77203 0.53886 0.82831 0.0
H151 H 0.75739 0.54837 0.89172 0.0
H152 H 0.82294 0.44112 0.67676 0.0
H153 H 0.81629 0.4741 0.73473 0.0
H154 H 0.74014 0.49888 0.67628 0.0
H155 H 0.74683 0.46592 0.61798 0.0
H156 H 0.75356 0.51448 0.7531 0.0
H157 H 0.81536 0.5219 0.74521 0.0
H158 H 0.83064 0.56335 0.78373 0.0
H159 H 0.83258 0.58702 0.85345 0.0
C160 C 0.45897 0.77053 0.16792 0.0
C161 C 0.43748 0.78929 0.16594 0.0
C162 C 0.47341 0.76398 0.13062 0.0
C163 C 0.4666 0.77608 0.09063 0.0
C164 C 0.44401 0.79341 0.08798 0.0
C165 C 0.42959 0.80014 0.1255 0.0
C166 C 0.48361 0.77197 0.05185 0.0
C167 C 0.51088 0.77026 0.05478 0.0
C168 C 0.52812 0.77053 0.01571 0.0
C169 C 0.55226 0.78573 0.01589 0.0
C170 C 0.56687 0.78945 0.97745 0.0
C171 C 0.55764 0.77762 0.9386 0.0
H172 H 0.50186 0.74461 0.977 0.0
C173 C 0.53466 0.76062 0.93938 0.0
C174 C 0.51997 0.75716 0.97759 0.0
H175 H 0.52731 0.75086 0.91005 0.0
H176 H 0.4652 0.76143 0.19854 0.0
H177 H 0.49019 0.74984 0.13328 0.0
H178 H 0.43827 0.80269 0.05724 0.0
H179 H 0.4129 0.81441 0.12305 0.0
H180 H 0.47384 0.77346 0.02012 0.0
H181 H 0.5209 0.77198 0.08626 0.0
H182 H 0.55903 0.79591 0.04522 0.0
H183 H 0.58471 0.80239 0.97781 0.0
C184 C 0.18766 0.43145 0.3748 0.0
C185 C 0.20594 0.43118 0.41 0.0
C186 C 0.19287 0.44769 0.33852 0.0
C187 C 0.21657 0.46364 0.33676 0.0
C188 C 0.23584 0.46172 0.37031 0.0
C189 C 0.23043 0.44582 0.40698 0.0
C190 C 0.22071 0.48343 0.30129 0.0
C191 C 0.20015 0.49926 0.28746 0.0
C192 C 0.20275 0.51951 0.25211 0.0
C193 C 0.22197 0.51664 0.21871 0.0
C194 C 0.22177 0.5344 0.18326 0.0
C195 C 0.20236 0.55524 0.18048 0.0
H196 H 0.16905 0.54358 0.2755 0.0
C197 C 0.18398 0.55887 0.21478 0.0
C198 C 0.18407 0.541 0.25014 0.0
H199 H 0.16876 0.57475 0.21348 0.0
H200 H 0.16874 0.42018 0.37614 0.0
H201 H 0.17804 0.44833 0.31234 0.0
H202 H 0.25438 0.47362 0.36921 0.0
H203 H 0.245 0.44567 0.43355 0.0
H204 H 0.2412 0.48644 0.28911 0.0
H205 H 0.18053 0.49779 0.30356 0.0
H206 H 0.23632 0.5 0.21865 0.0
H207 H 0.23617 0.53113 0.15721 0.0
C208 C 0.31269 0.24806 0.32816 0.0
C209 C 0.31576 0.22011 0.32057 0.0
C210 C 0.29192 0.25747 0.35489 0.0
C211 C 0.27358 0.23919 0.37421 0.0
C212 C 0.27498 0.21158 0.36345 0.0
C213 C 0.29611 0.20203 0.33715 0.0
C214 C 0.25392 0.24885 0.40714 0.0
C215 C 0.26222 0.2656 0.43916 0.0
C216 C 0.24412 0.27988 0.47024 0.0
C217 C 0.25636 0.29453 0.50426 0.0
C218 C 0.24142 0.31332 0.52819 0.0
C219 C 0.21386 0.31787 0.51859 0.0
H220 H 0.20559 0.27164 0.43774 0.0
C221 C 0.20089 0.3012 0.48773 0.0
C222 C 0.21589 0.28245 0.46356 0.0
H223 H 0.17965 0.30423 0.47955 0.0
H224 H 0.32732 0.26257 0.3157 0.0
H225 H 0.29076 0.27902 0.3617 0.0
H226 H 0.26075 0.19721 0.37748 0.0
H227 H 0.29787 0.18038 0.33175 0.0
H228 H 0.2331 0.24165 0.40537 0.0
H229 H 0.28383 0.27022 0.44154 0.0
H230 H 0.278 0.29279 0.51048 0.0
H231 H 0.25199 0.3257 0.55194 0.0
C232 C 0.77978 0.31216 0.59224 0.0
C233 C 0.76581 0.32883 0.56233 0.0
C234 C 0.76553 0.29406 0.61905 0.0
C235 C 0.737 0.29215 0.6161 0.0
C236 C 0.72343 0.30732 0.58384 0.0
C237 C 0.73763 0.32545 0.55726 0.0
C238 C 0.72022 0.27698 0.64826 0.0
C239 C 0.72979 0.25918 0.67808 0.0
C240 C 0.71115 0.24626 0.70988 0.0
C241 C 0.713 0.21833 0.71848 0.0
C242 C 0.6927 0.2052 0.74256 0.0
C243 C 0.67051 0.21996 0.75892 0.0
H244 H 0.68907 0.28313 0.72489 0.0
C245 C 0.67034 0.24835 0.75412 0.0
C246 C 0.69041 0.26136 0.72973 0.0
H247 H 0.65372 0.26039 0.76668 0.0
H248 H 0.80151 0.31436 0.59704 0.0
H249 H 0.77686 0.28292 0.64347 0.0
H250 H 0.7015 0.30614 0.58052 0.0
H251 H 0.72627 0.33792 0.53446 0.0
H252 H 0.69846 0.28096 0.64753 0.0
H253 H 0.75085 0.25267 0.67771 0.0
H254 H 0.72911 0.20637 0.70413 0.0
H255 H 0.6935 0.1833 0.74592 0.0
C256 C 0.74487 0.66697 0.00594 0.0
C257 C 0.77318 0.66654 0.01249 0.0
C258 C 0.7328 0.68788 0.98197 0.0
C259 C 0.74875 0.70894 0.96452 0.0
C260 C 0.77646 0.71025 0.97529 0.0
C261 C 0.78868 0.68907 -0.00115 0.0
C262 C 0.73687 0.72848 0.93293 0.0
C263 C 0.72073 0.71961 0.9003 0.0
C264 C 0.70518 0.73713 0.8694 0.0
C265 C 0.68869 0.72429 0.83815 0.0
C266 C 0.66948 0.73902 0.81423 0.0
C267 C 0.66641 0.76702 0.82095 0.0
H268 H 0.71643 0.77653 0.89604 0.0
C269 C 0.68483 0.7804 0.84873 0.0
C270 C 0.70397 0.76561 0.87294 0.0
H271 H 0.68305 0.802 0.85456 0.0
H272 H 0.73226 0.65011 0.01636 0.0
H273 H 0.71116 0.68692 0.97536 0.0
H274 H 0.78902 0.72661 0.96285 0.0
H275 H 0.81052 0.68942 0.00357 0.0
H276 H 0.74231 0.74972 0.93597 0.0
H277 H 0.71772 0.69781 0.89715 0.0
H278 H 0.68939 0.70244 0.83416 0.0
H279 H 0.65572 0.72812 0.79289 0.0
C280 C 0.21427 0.6899 0.10579 0.0
C281 C 0.2279 0.67139 0.07884 0.0
C282 C 0.22892 0.70834 0.13134 0.0
C283 C 0.25755 0.70876 0.13001 0.0
C284 C 0.27087 0.69191 0.10009 0.0
C285 C 0.25625 0.67341 0.07482 0.0
C286 C 0.27454 0.724 0.16184 0.0
C287 C 0.26524 0.74212 0.19099 0.0
C288 C 0.28396 0.7545 0.22328 0.0
C289 C 0.28306 0.78252 0.23109 0.0
C290 C 0.30351 0.79497 0.25587 0.0
C291 C 0.32486 0.77943 0.27375 0.0
H292 H 0.30436 0.71687 0.24027 0.0
C293 C 0.32398 0.75103 0.2697 0.0
C294 C 0.30379 0.73869 0.24455 0.0
H295 H 0.33994 0.73843 0.28336 0.0
H296 H 0.1924 0.68883 0.10966 0.0
H297 H 0.21771 0.7209 0.15371 0.0
H298 H 0.29287 0.69195 0.09795 0.0
H299 H 0.26737 0.65953 0.05423 0.0
H300 H 0.2962 0.71948 0.16193 0.0
H301 H 0.24434 0.74911 0.19004 0.0
H302 H 0.26764 0.79501 0.21564 0.0
H303 H 0.30353 0.81689 0.25861 0.0
C304 C 0.44669 0.92669 0.28459 0.0
C305 C 0.42376 0.90989 0.28919 0.0
C306 C 0.44419 0.95487 0.28613 0.0
C307 C 0.41853 0.96705 0.2916 0.0
C308 C 0.39569 0.95024 0.29725 0.0
C309 C 0.39824 0.92194 0.29604 0.0
C310 C 0.41499 -0.00293 0.29271 0.0
C311 C 0.43308 0.01458 0.27534 0.0
C312 C 0.43058 0.04453 0.27824 0.0
C313 C 0.45446 0.06014 0.27791 0.0
C314 C 0.45327 0.08837 0.28074 0.0
C315 C 0.42808 0.10172 0.28317 0.0
H316 H 0.38643 0.04646 0.27934 0.0
C317 C 0.40407 0.08616 0.28256 0.0
C318 C 0.40529 0.0578 0.28024 0.0
H319 H 0.38434 0.09586 0.28421 0.0
H320 H 0.46674 0.91808 0.28004 0.0
H321 H 0.46257 0.96683 0.28362 0.0
H322 H 0.37575 0.95902 0.30213 0.0
H323 H 0.38018 0.90956 0.29989 0.0
H324 H 0.39687 0.00484 0.3084 0.0
H325 H 0.45116 0.00698 0.25941 0.0
H326 H 0.47419 0.05043 0.27601 0.0
H327 H 0.47215 0.09973 0.28082 0.0
C328 C 0.91431 0.44636 0.51467 0.0
C329 C 0.89737 0.42336 0.51532 0.0
C330 C 0.94254 0.4436 0.51441 0.0
C331 C 0.95462 0.41768 0.51549 0.0
C332 C 0.9377 0.39468 0.51463 0.0
C333 C 0.90935 0.39745 0.51462 0.0
C334 C 0.98468 0.41399 0.5167 0.0
C335 C 0.00186 0.43316 0.53179 0.0
C336 C 0.03193 0.43058 0.53142 0.0
C337 C 0.04752 0.45443 0.52938 0.0
C338 C 0.07585 0.45324 0.52886 0.0
C339 C 0.08935 0.42813 0.53114 0.0
H340 H 0.034 0.38661 0.53697 0.0
C341 C 0.07381 0.40419 0.53415 0.0
C342 C 0.04534 0.40538 0.53414 0.0
H343 H 0.08361 0.38454 0.53613 0.0
H344 H 0.90577 0.46663 0.51444 0.0
H345 H 0.95466 0.46191 0.51295 0.0
H346 H 0.94642 0.37448 0.51478 0.0
H347 H 0.89688 0.3793 0.51493 0.0
H348 H 0.99271 0.39485 0.50501 0.0
H349 H 0.99384 0.45219 0.54388 0.0
H350 H 0.03772 0.47411 0.52764 0.0
H351 H 0.08716 0.47209 0.52684 0.0
C352 C 0.58607 0.90892 0.79697 0.0
C353 C 0.56335 0.89574 0.81509 0.0
C354 C 0.5864 0.93721 0.79213 0.0
C355 C 0.56401 0.95285 0.8055 0.0
C356 C 0.54145 0.93963 0.82371 0.0
C357 C 0.54114 0.91148 0.82864 0.0
C358 C 0.56251 0.98271 0.79905 0.0
C359 C 0.58426 -0.00096 0.79374 0.0
C360 C 0.5814 0.02884 0.78738 0.0
C361 C 0.60212 0.04629 0.80186 0.0
C362 C 0.59943 0.07448 0.79738 0.0
C363 C 0.57602 0.08569 0.77794 0.0
H364 H 0.54249 0.02726 0.75356 0.0
C365 C 0.5557 0.06811 0.76231 0.0
C366 C 0.5584 0.04006 0.76674 0.0
H367 H 0.53759 0.07598 0.74651 0.0
H368 H 0.60345 0.89737 0.78598 0.0
H369 H 0.6039 0.94654 0.77693 0.0
H370 H 0.52385 0.95113 0.83404 0.0
H371 H 0.52326 0.90208 0.84267 0.0
H372 H 0.54238 0.99174 0.80055 0.0
H373 H 0.60467 0.9908 0.79641 0.0
H374 H 0.6202 0.03814 0.81736 0.0
H375 H 0.61559 0.08743 0.80943 0.0
C376 C 0.9167 0.5869 0.03572 0.0
C377 C 0.9039 0.56513 0.01432 0.0
C378 C 0.94497 0.5871 0.04159 0.0
C379 C 0.96091 0.56549 0.02607 0.0
C380 C 0.94803 0.54379 0.00492 0.0
C381 C 0.91994 0.54365 -0.0011 0.0
C382 C 0.99076 0.56398 0.03282 0.0
C383 C 0.00692 0.58564 0.03979 0.0
C384 C 0.03681 0.58284 0.04538 0.0
C385 C 0.05402 0.60404 0.03205 0.0
C386 C 0.0823 0.60135 0.03543 0.0
C387 C 0.09384 0.57743 0.05255 0.0
H388 H 0.03575 0.54299 0.07612 0.0
C389 C 0.0765 0.55661 0.06714 0.0
C390 C 0.04836 0.55933 0.06384 0.0
H391 H 0.08464 0.5381 0.08121 0.0
H392 H 0.90491 0.6037 0.04818 0.0
H393 H 0.95406 0.60386 0.05906 0.0
H394 H 0.95978 0.5268 -0.00708 0.0
H395 H 0.91081 0.52649 0.98238 0.0
H396 H -6e-05 0.54403 0.02966 0.0
H397 H -0.00153 0.606 0.03873 0.0
H398 H 0.04561 0.6225 0.01822 0.0
H399 H 0.09507 0.61788 0.02424 0.0
C400 C 0.50359 0.21221 0.89455 0.0
C401 C 0.53071 0.20362 0.89038 0.0
C402 C 0.49314 0.21927 0.93504 0.0
C403 C 0.50948 0.21743 0.9726 0.0
C404 C 0.53695 0.21001 0.96814 0.0
C405 C 0.54752 0.2032 0.92739 0.0
C406 C 0.49858 0.22253 0.01689 0.0
C407 C 0.47184 0.22153 0.02685 0.0
C408 C 0.46166 0.22303 0.07224 0.0
C409 C 0.43695 0.21024 0.08281 0.0
C410 C 0.42861 0.20809 0.1262 0.0
C411 C 0.44495 0.21872 0.1596 0.0
H412 H 0.49504 0.24704 0.09849 0.0
C413 C 0.46848 0.23342 0.14867 0.0
C414 C 0.47664 0.23579 0.10545 0.0
H415 H 0.48116 0.24234 0.17377 0.0
H416 H 0.49025 0.21335 0.86643 0.0
H417 H 0.47225 0.22602 0.93646 0.0
H418 H 0.55013 0.20876 -0.00355 0.0
H419 H 0.56854 0.19681 0.92512 0.0
H420 H 0.51347 0.22488 0.04279 0.0
H421 H 0.45698 0.21674 0.00184 0.0
H422 H 0.42476 0.20066 0.05772 0.0
H423 H 0.41034 0.19671 0.13374 0.0
C424 C 0.77893 0.52882 0.14983 0.0
C425 C 0.78687 0.51436 0.11272 0.0
C426 C 0.77312 0.51502 0.18862 0.0
C427 C 0.77519 0.4865 0.19089 0.0
C428 C 0.7826 0.47211 0.15361 0.0
C429 C 0.78814 0.48581 0.1149 0.0
C430 C 0.77288 0.47146 0.23256 0.0
C431 C 0.75742 0.47998 0.26573 0.0
C432 C 0.76044 0.4691 0.31055 0.0
C433 C 0.75562 0.48684 0.34513 0.0
C434 C 0.76269 0.47947 0.38745 0.0
C435 C 0.77436 0.45398 0.39624 0.0
H436 H 0.77319 0.42812 0.2939 0.0
C437 C 0.77702 0.4352 0.36232 0.0
C438 C 0.77016 0.44272 0.31964 0.0
H439 H 0.78562 0.41529 0.36838 0.0
H440 H 0.77782 0.55079 0.14925 0.0
H441 H 0.76825 0.52687 0.21712 0.0
H442 H 0.7846 0.4502 0.15465 0.0
H443 H 0.79418 0.47394 0.08697 0.0
H444 H 0.78576 0.45372 0.2365 0.0
H445 H 0.74453 0.49769 0.26122 0.0
H446 H 0.74781 0.5071 0.33916 0.0
H447 H 0.75986 0.49419 0.41315 0.0
C448 C 0.53775 0.78191 0.66023 0.0
C449 C 0.52118 0.78243 0.69731 0.0
C450 C 0.52617 0.77843 0.61893 0.0
C451 C 0.4978 0.7752 0.61417 0.0
C452 C 0.48152 0.77463 0.65141 0.0
C453 C 0.49304 0.77805 0.69247 0.0
C454 C 0.4841 0.77554 0.57113 0.0
C455 C 0.49639 0.76829 0.53402 0.0
C456 C 0.4846 0.77405 0.49045 0.0
C457 C 0.50258 0.77801 0.45581 0.0
C458 C 0.49296 0.7864 0.41528 0.0
C459 C 0.465 0.79077 0.4082 0.0
H460 H 0.44182 0.77331 0.50855 0.0
C461 C 0.44674 0.78545 0.4422 0.0
C462 C 0.45644 0.77713 0.48303 0.0
H463 H 0.42506 0.78818 0.43753 0.0
H464 H 0.55947 0.78532 0.66289 0.0
H465 H 0.53936 0.7797 0.59092 0.0
H466 H 0.45966 0.77227 0.64865 0.0
H467 H 0.47964 0.77806 0.72037 0.0
H468 H 0.46354 0.78353 0.57019 0.0
H469 H 0.51693 0.76021 0.53522 0.0
H470 H 0.5243 0.77555 0.46046 0.0
H471 H 0.50764 0.78983 0.38963 0.0
C472 C 0.21886 0.51171 0.92388 0.0
C473 C 0.20872 0.53796 0.93124 0.0
C474 C 0.22306 0.50241 0.88169 0.0
C475 C 0.2167 0.51902 0.84574 0.0
C476 C 0.20816 0.54586 0.85316 0.0
C477 C 0.20423 0.5553 0.89559 0.0
C478 C 0.21796 0.50884 0.80032 0.0
C479 C 0.21618 0.48224 0.79 0.0
C480 C 0.21419 0.47219 0.74455 0.0
C481 C 0.20252 0.44654 0.73683 0.0
C482 C 0.19815 0.43741 0.69428 0.0
C483 C 0.20533 0.45388 0.65876 0.0
H484 H 0.23327 0.50702 0.71319 0.0
C485 C 0.21841 0.47881 0.66651 0.0
C486 C 0.22302 0.48777 0.70885 0.0
H487 H 0.22476 0.49169 0.63972 0.0
H488 H 0.22312 0.49808 0.95084 0.0
H489 H 0.23096 0.4821 0.87762 0.0
H490 H 0.20354 0.55925 0.82605 0.0
H491 H 0.19653 0.57567 0.90035 0.0
H492 H 0.21792 0.52405 0.77468 0.0
H493 H 0.21369 0.46722 0.81563 0.0
H494 H 0.19592 0.43391 0.76376 0.0
H495 H 0.18816 0.41804 0.68926 0.0
loop_
_geom_bond_atom_site_label_1
_geom_bond_atom_site_label_2
_geom_bond_distance
_geom_bond_site_symmetry_2
_ccdc_geom_bond_type
C0 O1 1.306 . S
C0 O3 1.160 . S
O1 C0 1.306 . S
O1 Cd2 2.228 . S
Cd2 O1 2.228 . S
Cd2 O6 2.273 . S
Cd2 O10 2.277 . S
O3 C0 1.160 . S
O3 Cd4 2.203 . S
Cd4 O3 2.203 . S
Cd4 O6 2.411 . S
Cd4 O7 2.333 . S
Cd4 O8 2.352 . S
Cd4 O12 2.277 . S
Cd4 O13 2.356 . S
C5 O10 1.209 . S
C5 O12 1.226 . S
O6 Cd2 2.273 . S
O6 Cd4 2.411 . S
O6 C9 1.320 . S
O7 Cd4 2.333 . S
O7 C9 1.214 . S
O8 Cd4 2.352 . S
O8 C11 1.258 . S
C9 O6 1.320 . S
C9 O7 1.214 . S
O10 Cd2 2.277 . S
O10 C5 1.209 . S
C11 O8 1.258 . S
C11 O13 1.282 . S
O12 Cd4 2.277 . S
O12 C5 1.226 . S
O13 Cd4 2.356 . S
O13 C11 1.282 . S
C14 O15 1.306 . S
C14 O17 1.160 . S
O15 C14 1.306 . S
O15 Cd16 2.228 . S
Cd16 O15 2.228 . S
Cd16 O20 2.273 . S
Cd16 O24 2.277 . S
O17 C14 1.160 . S
O17 Cd18 2.203 . S
Cd18 O17 2.203 . S
Cd18 O20 2.411 . S
Cd18 O21 2.333 . S
Cd18 O22 2.352 . S
Cd18 O26 2.277 . S
Cd18 O27 2.356 . S
C19 O24 1.209 . S
C19 O26 1.226 . S
O20 Cd16 2.273 . S
O20 Cd18 2.411 . S
O20 C23 1.320 . S
O21 Cd18 2.333 . S
O21 C23 1.214 . S
O22 Cd18 2.352 . S
O22 C25 1.258 . S
C23 O20 1.320 . S
C23 O21 1.214 . S
O24 Cd16 2.277 . S
O24 C19 1.209 . S
C25 O22 1.258 . S
C25 O27 1.282 . S
O26 Cd18 2.277 . S
O26 C19 1.226 . S
O27 Cd18 2.356 . S
O27 C25 1.282 . S
C28 O29 1.306 . S
C28 O31 1.160 . S
O29 C28 1.306 . S
O29 Cd30 2.228 . S
Cd30 O29 2.228 . S
Cd30 O34 2.273 . S
Cd30 O38 2.277 . S
O31 C28 1.160 . S
O31 Cd32 2.203 . S
Cd32 O31 2.203 . S
Cd32 O34 2.411 . S
Cd32 O35 2.333 . S
Cd32 O36 2.352 . S
Cd32 O40 2.277 . S
Cd32 O41 2.356 . S
C33 O38 1.209 . S
C33 O40 1.226 . S
O34 Cd30 2.273 . S
O34 Cd32 2.411 . S
O34 C37 1.320 . S
O35 Cd32 2.333 . S
O35 C37 1.214 . S
O36 Cd32 2.352 . S
O36 C39 1.258 . S
C37 O34 1.320 . S
C37 O35 1.214 . S
O38 Cd30 2.277 . S
O38 C33 1.209 . S
C39 O36 1.258 . S
C39 O41 1.282 . S
O40 Cd32 2.277 . S
O40 C33 1.226 . S
O41 Cd32 2.356 . S
O41 C39 1.282 . S
C42 O43 1.306 1_556 S
C42 O45 1.160 . S
O43 C42 1.306 1_554 S
O43 Cd44 2.228 . S
Cd44 O43 2.228 . S
Cd44 O48 2.273 . S
Cd44 O52 2.277 . S
O45 C42 1.160 . S
O45 Cd46 2.203 1_556 S
Cd46 O45 2.203 1_554 S
Cd46 O48 2.411 . S
Cd46 O49 2.333 . S
Cd46 O50 2.352 . S
Cd46 O54 2.277 . S
Cd46 O55 2.356 . S
C47 O52 1.209 . S
C47 O54 1.226 . S
O48 Cd44 2.273 . S
O48 Cd46 2.411 . S
O48 C51 1.320 . S
O49 Cd46 2.333 . S
O49 C51 1.214 . S
O50 Cd46 2.352 . S
O50 C53 1.258 . S
C51 O48 1.320 . S
C51 O49 1.214 . S
O52 Cd44 2.277 . S
O52 C47 1.209 . S
C53 O50 1.258 . S
C53 O55 1.282 . S
O54 Cd46 2.277 . S
O54 C47 1.226 . S
O55 Cd46 2.356 . S
O55 C53 1.282 . S
C56 O57 1.306 . S
C56 O59 1.160 . S
O57 C56 1.306 . S
O57 Cd58 2.228 . S
Cd58 O57 2.228 . S
Cd58 O62 2.273 . S
Cd58 O66 2.277 . S
O59 C56 1.160 . S
O59 Cd60 2.203 . S
Cd60 O59 2.203 . S
Cd60 O62 2.411 . S
Cd60 O63 2.333 . S
Cd60 O64 2.352 . S
Cd60 O68 2.277 . S
Cd60 O69 2.356 . S
C61 O66 1.209 . S
C61 O68 1.226 . S
O62 Cd58 2.273 . S
O62 Cd60 2.411 . S
O62 C65 1.320 . S
O63 Cd60 2.333 . S
O63 C65 1.214 . S
O64 Cd60 2.352 . S
O64 C67 1.258 . S
C65 O62 1.320 . S
C65 O63 1.214 . S
O66 Cd58 2.277 . S
O66 C61 1.209 . S
C67 O64 1.258 . S
C67 O69 1.282 . S
O68 Cd60 2.277 . S
O68 C61 1.226 . S
O69 Cd60 2.356 . S
O69 C67 1.282 . S
C70 O71 1.306 . S
C70 O73 1.160 . S
O71 C70 1.306 . S
O71 Cd72 2.228 . S
Cd72 O71 2.228 . S
Cd72 O76 2.273 . S
Cd72 O80 2.277 . S
O73 C70 1.160 . S
O73 Cd74 2.203 . S
Cd74 O73 2.203 . S
Cd74 O76 2.411 . S
Cd74 O77 2.333 . S
Cd74 O78 2.352 . S
Cd74 O82 2.277 . S
Cd74 O83 2.356 . S
C75 O80 1.209 . S
C75 O82 1.226 . S
O76 Cd72 2.273 . S
O76 Cd74 2.411 . S
O76 C79 1.320 . S
O77 Cd74 2.333 . S
O77 C79 1.214 . S
O78 Cd74 2.352 . S
O78 C81 1.258 . S
C79 O76 1.320 . S
C79 O77 1.214 . S
O80 Cd72 2.277 . S
O80 C75 1.209 . S
C81 O78 1.258 . S
C81 O83 1.282 . S
O82 Cd74 2.277 . S
O82 C75 1.226 . S
O83 Cd74 2.356 . S
O83 C81 1.282 . S
C84 O85 1.306 . S
C84 O87 1.160 . S
O85 C84 1.306 . S
O85 Cd86 2.228 . S
Cd86 O85 2.228 . S
Cd86 O90 2.273 . S
Cd86 O94 2.277 . S
O87 C84 1.160 . S
O87 Cd88 2.203 . S
Cd88 O87 2.203 . S
Cd88 O90 2.411 . S
Cd88 O91 2.333 . S
Cd88 O92 2.352 . S
Cd88 O96 2.277 . S
Cd88 O97 2.356 . S
C89 O94 1.209 . S
C89 O96 1.226 . S
O90 Cd86 2.273 . S
O90 Cd88 2.411 . S
O90 C93 1.320 . S
O91 Cd88 2.333 . S
O91 C93 1.214 . S
O92 Cd88 2.352 . S
O92 C95 1.258 . S
C93 O90 1.320 . S
C93 O91 1.214 . S
O94 Cd86 2.277 . S
O94 C89 1.209 . S
C95 O92 1.258 . S
C95 O97 1.282 . S
O96 Cd88 2.277 . S
O96 C89 1.226 . S
O97 Cd88 2.356 . S
O97 C95 1.282 . S
C98 O99 1.306 . S
C98 O101 1.160 . S
O99 C98 1.306 . S
O99 Cd100 2.228 . S
Cd100 O99 2.228 . S
Cd100 O104 2.273 1_554 S
Cd100 O108 2.277 . S
O101 C98 1.160 . S
O101 Cd102 2.203 . S
Cd102 O101 2.203 . S
Cd102 O104 2.411 1_554 S
Cd102 O105 2.333 1_554 S
Cd102 O106 2.352 . S
Cd102 O110 2.277 . S
Cd102 O111 2.356 . S
C103 O108 1.209 . S
C103 O110 1.226 . S
O104 Cd100 2.273 1_556 S
O104 Cd102 2.411 1_556 S
O104 C107 1.320 . S
O105 Cd102 2.333 1_556 S
O105 C107 1.214 . S
O106 Cd102 2.352 . S
O106 C109 1.258 . S
C107 O104 1.320 . S
C107 O105 1.214 . S
O108 Cd100 2.277 . S
O108 C103 1.209 . S
C109 O106 1.258 . S
C109 O111 1.282 . S
O110 Cd102 2.277 . S
O110 C103 1.226 . S
O111 Cd102 2.356 . S
O111 C109 1.282 . S
C112 C113 1.386 . S
C112 C114 1.383 . S
C112 H128 0.951 . S
C113 C112 1.386 . S
C113 C117 1.383 . S
C114 C112 1.383 . S
C114 C115 1.402 . S
C114 H129 0.951 . S
C115 C114 1.402 . S
C115 C116 1.375 . S
C115 C118 1.481 . S
C116 C115 1.375 . S
C116 C117 1.367 . S
C116 H130 0.951 . S
C117 C113 1.383 . S
C117 C116 1.367 . S
C117 H131 0.950 . S
C118 C115 1.481 . S
C118 C119 1.297 . S
C118 H132 0.950 . S
C119 C118 1.297 . S
C119 C120 1.479 . S
C119 H133 0.950 . S
C120 C119 1.479 . S
C120 C121 1.375 . S
C120 C126 1.404 . S
C121 C120 1.375 . S
C121 C122 1.369 . S
C121 H134 0.950 . S
C122 C121 1.369 . S
C122 C123 1.392 . S
C122 H135 0.951 . S
C123 C122 1.392 . S
C123 C125 1.384 . S
H124 C126 0.949 . S
C125 C123 1.384 . S
C125 C126 1.385 . S
C125 H127 0.950 . S
C126 C120 1.404 . S
C126 H124 0.949 . S
C126 C125 1.385 . S
H127 C125 0.950 . S
H128 C112 0.951 . S
H129 C114 0.951 . S
H130 C116 0.951 . S
H131 C117 0.950 . S
H132 C118 0.950 . S
H133 C119 0.950 . S
H134 C121 0.950 . S
H135 C122 0.951 . S
C136 C137 1.386 . S
C136 C138 1.383 . S
C136 H152 0.951 . S
C137 C136 1.386 . S
C137 C141 1.383 . S
C138 C136 1.383 . S
C138 C139 1.402 . S
C138 H153 0.951 . S
C139 C138 1.402 . S
C139 C140 1.375 . S
C139 C142 1.481 . S
C140 C139 1.375 . S
C140 C141 1.367 . S
C140 H154 0.951 . S
C141 C137 1.383 . S
C141 C140 1.367 . S
C141 H155 0.950 . S
C142 C139 1.481 . S
C142 C143 1.297 . S
C142 H156 0.950 . S
C143 C142 1.297 . S
C143 C144 1.479 . S
C143 H157 0.950 . S
C144 C143 1.479 . S
C144 C145 1.375 . S
C144 C150 1.404 . S
C145 C144 1.375 . S
C145 C146 1.369 . S
C145 H158 0.950 . S
C146 C145 1.369 . S
C146 C147 1.392 . S
C146 H159 0.951 . S
C147 C146 1.392 . S
C147 C149 1.384 . S
H148 C150 0.949 . S
C149 C147 1.384 . S
C149 C150 1.385 . S
C149 H151 0.950 . S
C150 C144 1.404 . S
C150 H148 0.949 . S
C150 C149 1.385 . S
H151 C149 0.950 . S
H152 C136 0.951 . S
H153 C138 0.951 . S
H154 C140 0.951 . S
H155 C141 0.950 . S
H156 C142 0.950 . S
H157 C143 0.950 . S
H158 C145 0.950 . S
H159 C146 0.951 . S
C160 C161 1.386 . S
C160 C162 1.383 . S
C160 H176 0.951 . S
C161 C160 1.386 . S
C161 C165 1.383 . S
C162 C160 1.383 . S
C162 C163 1.402 . S
C162 H177 0.951 . S
C163 C162 1.402 . S
C163 C164 1.375 . S
C163 C166 1.481 . S
C164 C163 1.375 . S
C164 C165 1.367 . S
C164 H178 0.951 . S
C165 C161 1.383 . S
C165 C164 1.367 . S
C165 H179 0.950 . S
C166 C163 1.481 . S
C166 C167 1.297 . S
C166 H180 0.950 . S
C167 C166 1.297 . S
C167 C168 1.479 1_554 S
C167 H181 0.950 . S
C168 C167 1.479 1_556 S
C168 C169 1.375 . S
C168 C174 1.404 . S
C169 C168 1.375 . S
C169 C170 1.369 . S
C169 H182 0.950 1_556 S
C170 C169 1.369 . S
C170 C171 1.392 . S
C170 H183 0.951 . S
C171 C170 1.392 . S
C171 C173 1.384 . S
H172 C174 0.949 . S
C173 C171 1.384 . S
C173 C174 1.385 . S
C173 H175 0.950 . S
C174 C168 1.404 . S
C174 H172 0.949 . S
C174 C173 1.385 . S
H175 C173 0.950 . S
H176 C160 0.951 . S
H177 C162 0.951 . S
H178 C164 0.951 . S
H179 C165 0.950 . S
H180 C166 0.950 . S
H181 C167 0.950 . S
H182 C169 0.950 1_554 S
H183 C170 0.951 . S
C184 C185 1.386 . S
C184 C186 1.383 . S
C184 H200 0.951 . S
C185 C184 1.386 . S
C185 C189 1.383 . S
C186 C184 1.383 . S
C186 C187 1.402 . S
C186 H201 0.951 . S
C187 C186 1.402 . S
C187 C188 1.375 . S
C187 C190 1.481 . S
C188 C187 1.375 . S
C188 C189 1.367 . S
C188 H202 0.951 . S
C189 C185 1.383 . S
C189 C188 1.367 . S
C189 H203 0.950 . S
C190 C187 1.481 . S
C190 C191 1.297 . S
C190 H204 0.950 . S
C191 C190 1.297 . S
C191 C192 1.479 . S
C191 H205 0.950 . S
C192 C191 1.479 . S
C192 C193 1.375 . S
C192 C198 1.404 . S
C193 C192 1.375 . S
C193 C194 1.369 . S
C193 H206 0.950 . S
C194 C193 1.369 . S
C194 C195 1.392 . S
C194 H207 0.951 . S
C195 C194 1.392 . S
C195 C197 1.384 . S
H196 C198 0.949 . S
C197 C195 1.384 . S
C197 C198 1.385 . S
C197 H199 0.950 . S
C198 C192 1.404 . S
C198 H196 0.949 . S
C198 C197 1.385 . S
H199 C197 0.950 . S
H200 C184 0.951 . S
H201 C186 0.951 . S
H202 C188 0.951 . S
H203 C189 0.950 . S
H204 C190 0.950 . S
H205 C191 0.950 . S
H206 C193 0.950 . S
H207 C194 0.951 . S
C208 C209 1.386 . S
C208 C210 1.383 . S
C208 H224 0.951 . S
C209 C208 1.386 . S
C209 C213 1.383 . S
C210 C208 1.383 . S
C210 C211 1.402 . S
C210 H225 0.951 . S
C211 C210 1.402 . S
C211 C212 1.375 . S
C211 C214 1.481 . S
C212 C211 1.375 . S
C212 C213 1.367 . S
C212 H226 0.951 . S
C213 C209 1.383 . S
C213 C212 1.367 . S
C213 H227 0.950 . S
C214 C211 1.481 . S
C214 C215 1.297 . S
C214 H228 0.950 . S
C215 C214 1.297 . S
C215 C216 1.479 . S
C215 H229 0.950 . S
C216 C215 1.479 . S
C216 C217 1.375 . S
C216 C222 1.404 . S
C217 C216 1.375 . S
C217 C218 1.369 . S
C217 H230 0.950 . S
C218 C217 1.369 . S
C218 C219 1.392 . S
C218 H231 0.951 . S
C219 C218 1.392 . S
C219 C221 1.384 . S
H220 C222 0.949 . S
C221 C219 1.384 . S
C221 C222 1.385 . S
C221 H223 0.950 . S
C222 C216 1.404 . S
C222 H220 0.949 . S
C222 C221 1.385 . S
H223 C221 0.950 . S
H224 C208 0.951 . S
H225 C210 0.951 . S
H226 C212 0.951 . S
H227 C213 0.950 . S
H228 C214 0.950 . S
H229 C215 0.950 . S
H230 C217 0.950 . S
H231 C218 0.951 . S
C232 C233 1.386 . S
C232 C234 1.383 . S
C232 H248 0.951 . S
C233 C232 1.386 . S
C233 C237 1.383 . S
C234 C232 1.383 . S
C234 C235 1.402 . S
C234 H249 0.951 . S
C235 C234 1.402 . S
C235 C236 1.375 . S
C235 C238 1.481 . S
C236 C235 1.375 . S
C236 C237 1.367 . S
C236 H250 0.951 . S
C237 C233 1.383 . S
C237 C236 1.367 . S
C237 H251 0.950 . S
C238 C235 1.481 . S
C238 C239 1.297 . S
C238 H252 0.950 . S
C239 C238 1.297 . S
C239 C240 1.479 . S
C239 H253 0.950 . S
C240 C239 1.479 . S
C240 C241 1.375 . S
C240 C246 1.404 . S
C241 C240 1.375 . S
C241 C242 1.369 . S
C241 H254 0.950 . S
C242 C241 1.369 . S
C242 C243 1.392 . S
C242 H255 0.951 . S
C243 C242 1.392 . S
C243 C245 1.384 . S
H244 C246 0.949 . S
C245 C243 1.384 . S
C245 C246 1.385 . S
C245 H247 0.950 . S
C246 C240 1.404 . S
C246 H244 0.949 . S
C246 C245 1.385 . S
H247 C245 0.950 . S
H248 C232 0.951 . S
H249 C234 0.951 . S
H250 C236 0.951 . S
H251 C237 0.950 . S
H252 C238 0.950 . S
H253 C239 0.950 . S
H254 C241 0.950 . S
H255 C242 0.951 . S
C256 C257 1.386 . S
C256 C258 1.376 1_554 S
C256 H272 0.958 . S
C257 C256 1.386 . S
C257 C261 1.383 1_554 S
C258 C256 1.376 1_556 S
C258 C259 1.402 . S
C258 H273 0.951 . S
C259 C258 1.402 . S
C259 C260 1.375 . S
C259 C262 1.481 . S
C260 C259 1.375 . S
C260 C261 1.367 . S
C260 H274 0.951 . S
C261 C257 1.383 1_556 S
C261 C260 1.367 . S
C261 H275 0.950 . S
C262 C259 1.481 . S
C262 C263 1.297 . S
C262 H276 0.950 . S
C263 C262 1.297 . S
C263 C264 1.479 . S
C263 H277 0.950 . S
C264 C263 1.479 . S
C264 C265 1.375 . S
C264 C270 1.404 . S
C265 C264 1.375 . S
C265 C266 1.369 . S
C265 H278 0.950 . S
C266 C265 1.369 . S
C266 C267 1.392 . S
C266 H279 0.951 . S
C267 C266 1.392 . S
C267 C269 1.384 . S
H268 C270 0.949 . S
C269 C267 1.384 . S
C269 C270 1.385 . S
C269 H271 0.950 . S
C270 C264 1.404 . S
C270 H268 0.949 . S
C270 C269 1.385 . S
H271 C269 0.950 . S
H272 C256 0.958 . S
H273 C258 0.951 . S
H274 C260 0.951 . S
H275 C261 0.950 . S
H276 C262 0.950 . S
H277 C263 0.950 . S
H278 C265 0.950 . S
H279 C266 0.951 . S
C280 C281 1.386 . S
C280 C282 1.383 . S
C280 H296 0.951 . S
C281 C280 1.386 . S
C281 C285 1.383 . S
C282 C280 1.383 . S
C282 C283 1.402 . S
C282 H297 0.951 . S
C283 C282 1.402 . S
C283 C284 1.375 . S
C283 C286 1.481 . S
C284 C283 1.375 . S
C284 C285 1.367 . S
C284 H298 0.951 . S
C285 C281 1.383 . S
C285 C284 1.367 . S
C285 H299 0.950 . S
C286 C283 1.481 . S
C286 C287 1.297 . S
C286 H300 0.950 . S
C287 C286 1.297 . S
C287 C288 1.479 . S
C287 H301 0.950 . S
C288 C287 1.479 . S
C288 C289 1.375 . S
C288 C294 1.404 . S
C289 C288 1.375 . S
C289 C290 1.369 . S
C289 H302 0.950 . S
C290 C289 1.369 . S
C290 C291 1.392 . S
C290 H303 0.951 . S
C291 C290 1.392 . S
C291 C293 1.384 . S
H292 C294 0.949 . S
C293 C291 1.384 . S
C293 C294 1.385 . S
C293 H295 0.950 . S
C294 C288 1.404 . S
C294 H292 0.949 . S
C294 C293 1.385 . S
H295 C293 0.950 . S
H296 C280 0.951 . S
H297 C282 0.951 . S
H298 C284 0.951 . S
H299 C285 0.950 . S
H300 C286 0.950 . S
H301 C287 0.950 . S
H302 C289 0.950 . S
H303 C290 0.951 . S
C304 C305 1.386 . S
C304 C306 1.383 . S
C304 H320 0.951 . S
C305 C304 1.386 . S
C305 C309 1.383 . S
C306 C304 1.383 . S
C306 C307 1.402 . S
C306 H321 0.951 . S
C307 C306 1.402 . S
C307 C308 1.375 . S
C307 C310 1.481 . S
C308 C307 1.375 . S
C308 C309 1.367 . S
C308 H322 0.951 . S
C309 C305 1.383 . S
C309 C308 1.367 . S
C309 H323 0.950 . S
C310 C307 1.481 . S
C310 C311 1.297 1_565 S
C310 H324 0.950 . S
C311 C310 1.297 1_545 S
C311 C312 1.479 . S
C311 H325 0.950 . S
C312 C311 1.479 . S
C312 C313 1.375 . S
C312 C318 1.404 . S
C313 C312 1.375 . S
C313 C314 1.369 . S
C313 H326 0.950 . S
C314 C313 1.369 . S
C314 C315 1.392 . S
C314 H327 0.951 . S
C315 C314 1.392 . S
C315 C317 1.384 . S
H316 C318 0.949 . S
C317 C315 1.384 . S
C317 C318 1.385 . S
C317 H319 0.950 . S
C318 C312 1.404 . S
C318 H316 0.949 . S
C318 C317 1.385 . S
H319 C317 0.950 . S
H320 C304 0.951 . S
H321 C306 0.951 . S
H322 C308 0.951 . S
H323 C309 0.950 . S
H324 C310 0.950 . S
H325 C311 0.950 . S
H326 C313 0.950 . S
H327 C314 0.951 . S
C328 C329 1.386 . S
C328 C330 1.383 . S
C328 H344 0.951 . S
C329 C328 1.386 . S
C329 C333 1.383 . S
C330 C328 1.383 . S
C330 C331 1.402 . S
C330 H345 0.951 . S
C331 C330 1.402 . S
C331 C332 1.375 . S
C331 C334 1.481 . S
C332 C331 1.375 . S
C332 C333 1.367 . S
C332 H346 0.951 . S
C333 C329 1.383 . S
C333 C332 1.367 . S
C333 H347 0.950 . S
C334 C331 1.481 . S
C334 C335 1.297 1_655 S
C334 H348 0.950 . S
C335 C334 1.297 1_455 S
C335 C336 1.479 . S
C335 H349 0.950 . S
C336 C335 1.479 . S
C336 C337 1.375 . S
C336 C342 1.404 . S
C337 C336 1.375 . S
C337 C338 1.369 . S
C337 H350 0.950 . S
C338 C337 1.369 . S
C338 C339 1.392 . S
C338 H351 0.951 . S
C339 C338 1.392 . S
C339 C341 1.384 . S
H340 C342 0.949 . S
C341 C339 1.384 . S
C341 C342 1.385 . S
C341 H343 0.950 . S
C342 C336 1.404 . S
C342 H340 0.949 . S
C342 C341 1.385 . S
H343 C341 0.950 . S
H344 C328 0.951 . S
H345 C330 0.951 . S
H346 C332 0.951 . S
H347 C333 0.950 . S
H348 C334 0.950 . S
H349 C335 0.950 . S
H350 C337 0.950 . S
H351 C338 0.951 . S
C352 C353 1.386 . S
C352 C354 1.383 . S
C352 H368 0.951 . S
C353 C352 1.386 . S
C353 C357 1.383 . S
C354 C352 1.383 . S
C354 C355 1.402 . S
C354 H369 0.951 . S
C355 C354 1.402 . S
C355 C356 1.375 . S
C355 C358 1.481 . S
C356 C355 1.375 . S
C356 C357 1.367 . S
C356 H370 0.951 . S
C357 C353 1.383 . S
C357 C356 1.367 . S
C357 H371 0.950 . S
C358 C355 1.481 . S
C358 C359 1.297 1_565 S
C358 H372 0.950 . S
C359 C358 1.297 1_545 S
C359 C360 1.479 . S
C359 H373 0.950 . S
C360 C359 1.479 . S
C360 C361 1.375 . S
C360 C366 1.404 . S
C361 C360 1.375 . S
C361 C362 1.369 . S
C361 H374 0.950 . S
C362 C361 1.369 . S
C362 C363 1.392 . S
C362 H375 0.951 . S
C363 C362 1.392 . S
C363 C365 1.384 . S
H364 C366 0.949 . S
C365 C363 1.384 . S
C365 C366 1.385 . S
C365 H367 0.950 . S
C366 C360 1.404 . S
C366 H364 0.949 . S
C366 C365 1.385 . S
H367 C365 0.950 . S
H368 C352 0.951 . S
H369 C354 0.951 . S
H370 C356 0.951 . S
H371 C357 0.950 . S
H372 C358 0.950 . S
H373 C359 0.950 . S
H374 C361 0.950 . S
H375 C362 0.951 . S
C376 C377 1.386 . S
C376 C378 1.383 . S
C376 H392 0.951 . S
C377 C376 1.386 . S
C377 C381 1.383 . S
C378 C376 1.383 . S
C378 C379 1.402 . S
C378 H393 0.951 . S
C379 C378 1.402 . S
C379 C380 1.375 . S
C379 C382 1.481 . S
C380 C379 1.375 . S
C380 C381 1.367 . S
C380 H394 0.951 . S
C381 C377 1.383 . S
C381 C380 1.367 . S
C381 H395 0.950 . S
C382 C379 1.481 . S
C382 C383 1.297 1_655 S
C382 H396 0.950 . S
C383 C382 1.297 1_455 S
C383 C384 1.479 . S
C383 H397 0.950 . S
C384 C383 1.479 . S
C384 C385 1.375 . S
C384 C390 1.404 . S
C385 C384 1.375 . S
C385 C386 1.369 . S
C385 H398 0.950 . S
C386 C385 1.369 . S
C386 C387 1.392 . S
C386 H399 0.951 . S
C387 C386 1.392 . S
C387 C389 1.384 . S
H388 C390 0.949 . S
C389 C387 1.384 . S
C389 C390 1.385 . S
C389 H391 0.950 . S
C390 C384 1.404 . S
C390 H388 0.949 . S
C390 C389 1.385 . S
H391 C389 0.950 . S
H392 C376 0.951 . S
H393 C378 0.951 . S
H394 C380 0.951 . S
H395 C381 0.950 . S
H396 C382 0.950 . S
H397 C383 0.950 . S
H398 C385 0.950 . S
H399 C386 0.951 . S
C400 C401 1.386 . S
C400 C402 1.383 . S
C400 H416 0.951 . S
C401 C400 1.386 . S
C401 C405 1.383 . S
C402 C400 1.383 . S
C402 C403 1.402 . S
C402 H417 0.951 . S
C403 C402 1.402 . S
C403 C404 1.375 . S
C403 C406 1.481 1_556 S
C404 C403 1.375 . S
C404 C405 1.367 . S
C404 H418 0.951 . S
C405 C401 1.383 . S
C405 C404 1.367 . S
C405 H419 0.950 . S
C406 C403 1.481 1_554 S
C406 C407 1.297 . S
C406 H420 0.950 . S
C407 C406 1.297 . S
C407 C408 1.479 . S
C407 H421 0.950 . S
C408 C407 1.479 . S
C408 C409 1.375 . S
C408 C414 1.404 . S
C409 C408 1.375 . S
C409 C410 1.369 . S
C409 H422 0.950 . S
C410 C409 1.369 . S
C410 C411 1.392 . S
C410 H423 0.951 . S
C411 C410 1.392 . S
C411 C413 1.384 . S
H412 C414 0.949 . S
C413 C411 1.384 . S
C413 C414 1.385 . S
C413 H415 0.950 . S
C414 C408 1.404 . S
C414 H412 0.949 . S
C414 C413 1.385 . S
H415 C413 0.950 . S
H416 C400 0.951 . S
H417 C402 0.951 . S
H418 C404 0.951 . S
H419 C405 0.950 . S
H420 C406 0.950 . S
H421 C407 0.950 . S
H422 C409 0.950 . S
H423 C410 0.951 . S
C424 C425 1.386 . S
C424 C426 1.383 . S
C424 H440 0.951 . S
C425 C424 1.386 . S
C425 C429 1.383 . S
C426 C424 1.383 . S
C426 C427 1.402 . S
C426 H441 0.951 . S
C427 C426 1.402 . S
C427 C428 1.375 . S
C427 C430 1.481 . S
C428 C427 1.375 . S
C428 C429 1.367 . S
C428 H442 0.951 . S
C429 C425 1.383 . S
C429 C428 1.367 . S
C429 H443 0.950 . S
C430 C427 1.481 . S
C430 C431 1.297 . S
C430 H444 0.950 . S
C431 C430 1.297 . S
C431 C432 1.479 . S
C431 H445 0.950 . S
C432 C431 1.479 . S
C432 C433 1.375 . S
C432 C438 1.404 . S
C433 C432 1.375 . S
C433 C434 1.369 . S
C433 H446 0.950 . S
C434 C433 1.369 . S
C434 C435 1.392 . S
C434 H447 0.951 . S
C435 C434 1.392 . S
C435 C437 1.384 . S
H436 C438 0.949 . S
C437 C435 1.384 . S
C437 C438 1.385 . S
C437 H439 0.950 . S
C438 C432 1.404 . S
C438 H436 0.949 . S
C438 C437 1.385 . S
H439 C437 0.950 . S
H440 C424 0.951 . S
H441 C426 0.951 . S
H442 C428 0.951 . S
H443 C429 0.950 . S
H444 C430 0.950 . S
H445 C431 0.950 . S
H446 C433 0.950 . S
H447 C434 0.951 . S
C448 C449 1.386 . S
C448 C450 1.383 . S
C448 H464 0.951 . S
C449 C448 1.386 . S
C449 C453 1.383 . S
C450 C448 1.383 . S
C450 C451 1.402 . S
C450 H465 0.951 . S
C451 C450 1.402 . S
C451 C452 1.375 . S
C451 C454 1.481 . S
C452 C451 1.375 . S
C452 C453 1.367 . S
C452 H466 0.951 . S
C453 C449 1.383 . S
C453 C452 1.367 . S
C453 H467 0.950 . S
C454 C451 1.481 . S
C454 C455 1.297 . S
C454 H468 0.950 . S
C455 C454 1.297 . S
C455 C456 1.479 . S
C455 H469 0.950 . S
C456 C455 1.479 . S
C456 C457 1.375 . S
C456 C462 1.404 . S
C457 C456 1.375 . S
C457 C458 1.369 . S
C457 H470 0.950 . S
C458 C457 1.369 . S
C458 C459 1.392 . S
C458 H471 0.951 . S
C459 C458 1.392 . S
C459 C461 1.384 . S
H460 C462 0.949 . S
C461 C459 1.384 . S
C461 C462 1.385 . S
C461 H463 0.950 . S
C462 C456 1.404 . S
C462 H460 0.949 . S
C462 C461 1.385 . S
H463 C461 0.950 . S
H464 C448 0.951 . S
H465 C450 0.951 . S
H466 C452 0.951 . S
H467 C453 0.950 . S
H468 C454 0.950 . S
H469 C455 0.950 . S
H470 C457 0.950 . S
H471 C458 0.951 . S
C472 C473 1.386 . S
C472 C474 1.383 . S
C472 H488 0.951 . S
C473 C472 1.386 . S
C473 C477 1.383 . S
C474 C472 1.383 . S
C474 C475 1.402 . S
C474 H489 0.951 . S
C475 C474 1.402 . S
C475 C476 1.375 . S
C475 C478 1.481 . S
C476 C475 1.375 . S
C476 C477 1.367 . S
C476 H490 0.951 . S
C477 C473 1.383 . S
C477 C476 1.367 . S
C477 H491 0.950 . S
C478 C475 1.481 . S
C478 C479 1.297 . S
C478 H492 0.950 . S
C479 C478 1.297 . S
C479 C480 1.479 . S
C479 H493 0.950 . S
C480 C479 1.479 . S
C480 C481 1.375 . S
C480 C486 1.404 . S
C481 C480 1.375 . S
C481 C482 1.369 . S
C481 H494 0.950 . S
C482 C481 1.369 . S
C482 C483 1.392 . S
C482 H495 0.951 . S
C483 C482 1.392 . S
C483 C485 1.384 . S
H484 C486 0.949 . S
C485 C483 1.384 . S
C485 C486 1.385 . S
C485 H487 0.950 . S
C486 C480 1.404 . S
C486 H484 0.949 . S
C486 C485 1.385 . S
H487 C485 0.950 . S
H488 C472 0.951 . S
H489 C474 0.951 . S
H490 C476 0.951 . S
H491 C477 0.950 . S
H492 C478 0.950 . S
H493 C479 0.950 . S
H494 C481 0.950 . S
H495 C482 0.951 . S
C113 C9 0.601 . S
C123 C93 0.563 . S
C137 C23 0.627 . S
C147 C107 0.549 . S
C161 C65 0.577 . S
C171 C37 0.604 . S
C185 C79 0.633 . S
C195 C51 0.578 . S
C209 C11 1.478 . S
C219 C81 1.449 . S
C233 C25 1.487 . S
C243 C95 1.521 . S
C257 C109 1.492 . S
C267 C39 1.442 . S
C281 C53 1.467 . S
C291 C67 1.472 . S
C305 C61 1.500 . S
C315 C5 1.488 . S
C329 C19 1.498 . S
C339 C75 1.484 . S
C353 C33 1.499 . S
C363 C89 1.497 . S
C377 C103 1.499 . S
C387 C47 1.497 . S
C401 C84 1.476 . S
C411 C0 1.500 . S
C425 C98 1.479 . S
C435 C14 1.525 . S
C449 C28 1.507 . S
C459 C56 1.494 . S
C473 C42 1.508 . S
C483 C70 1.450 . S
