# Generated by pormake.
# Topology sma, (6)-cn, num edge types: 1
# Building blocks:
#     Node 0, Type 0, BuildingBlock: PAMTOO_clean_sbu_0, # of connection points: 6
#     Node 1, Type 0, BuildingBlock: PAMTOO_clean_sbu_0, # of connection points: 6
#     Node 2, Type 0, BuildingBlock: PAMTOO_clean_sbu_0, # of connection points: 6
#     Edge 3, Type (0, 0), BuildingBlock: MIFKUJ_clean_linker_0, # of connection points: 2
#     Edge 4, Type (0, 0), BuildingBlock: MIFKUJ_clean_linker_0, # of connection points: 2
#     Edge 5, Type (0, 0), BuildingBlock: MIFKUJ_clean_linker_0, # of connection points: 2
#     Edge 6, Type (0, 0), BuildingBlock: MIFKUJ_clean_linker_0, # of connection points: 2
#     Edge 7, Type (0, 0), BuildingBlock: MIFKUJ_clean_linker_0, # of connection points: 2
#     Edge 8, Type (0, 0), BuildingBlock: MIFKUJ_clean_linker_0, # of connection points: 2
#     Edge 9, Type (0, 0), BuildingBlock: MIFKUJ_clean_linker_0, # of connection points: 2
#     Edge 10, Type (0, 0), BuildingBlock: MIFKUJ_clean_linker_0, # of connection points: 2
#     Edge 11, Type (0, 0), BuildingBlock: MIFKUJ_clean_linker_0, # of connection points: 2
# Relax obj value: 0.137
# Max RMSD: 0.226
# Mean RMSD: 0.208
data_MOF--net-sma--node1-PAMTOO_clean_sbu_0--edge1-MIFKUJ_clean_linker_0
_symmetry_space_group_name_H-M    P1
_symmetry_Int_Tables_number       1
_symmetry_cell_setting            triclinic
loop_
_symmetry_equiv_pos_as_xyz
'x, y, z'
_cell_length_a     39.687382
_cell_length_b     49.028927
_cell_length_c     17.539483
_cell_angle_alpha  90.526688
_cell_angle_beta   98.902222
_cell_angle_gamma 101.68867
loop_
_atom_site_label
_atom_site_type_symbol
_atom_site_fract_x
_atom_site_fract_y
_atom_site_fract_z
_atom_type_partial_charge
Dy0 Dy 0.05675 0.54719 0.00864 0.0
Dy1 Dy 1.03955 0.47792 0.01216 0.0
C2 C 1.04103 0.51207 0.86201 0.0
O3 O 1.00376 0.53507 0.04342 0.0
O4 O 0.98793 0.49048 -0.0091 0.0
O5 O 0.07541 0.58539 0.9533 0.0
O6 O 0.0524 0.58628 0.05786 0.0
O7 O 0.04831 0.49641 0.13339 0.0
O8 O 0.08727 0.53573 0.11408 0.0
O9 O 0.09712 0.48849 0.01036 0.0
O10 O 0.10549 0.53515 -0.01902 0.0
O11 O 0.04766 0.44002 0.06672 0.0
O12 O 1.00925 0.43812 0.96336 0.0
C13 C 0.97965 0.51315 0.01611 0.0
O14 O 1.02545 0.52685 0.90129 0.0
O15 O 0.05188 0.4909 0.89548 0.0
C16 C 0.09998 0.62292 0.04575 0.0
C17 C 0.15521 0.66606 0.11378 0.0
C18 C 0.15249 0.65746 0.03597 0.0
C19 C 0.12503 0.63614 0.00216 0.0
C20 C 0.10321 0.63125 0.12396 0.0
C21 C 0.13052 0.6525 0.15754 0.0
C22 C 0.07034 0.60082 0.01006 0.0
C23 C 0.0749 0.51676 0.15957 0.0
C24 C 0.11691 0.51172 -0.00824 0.0
C25 C 0.99635 0.40424 0.05703 0.0
C26 C 0.94965 0.36325 0.12347 0.0
C27 C 0.9797 0.37902 0.16905 0.0
C28 C 1.00278 0.39922 0.13628 0.0
C29 C 0.96599 0.38887 0.01172 0.0
C30 C 0.94284 0.36869 0.04457 0.0
C31 C 1.0218 0.42438 0.0207 0.0
H32 H 0.17105 0.66769 0.00073 0.0
H33 H 0.1232 0.63022 0.94177 0.0
H34 H 0.08452 0.62152 0.1595 0.0
H35 H 0.13225 0.65836 0.21795 0.0
H36 H 0.98548 0.37569 0.23023 0.0
H37 H 1.02588 0.41064 0.17309 0.0
H38 H 0.9604 0.3921 0.95042 0.0
H39 H 0.92016 0.35676 0.00757 0.0
Dy40 Dy 0.53432 1.01287 0.54145 0.0
Dy41 Dy 0.61894 0.03926 0.55528 0.0
C42 C 0.58112 0.03272 0.70415 0.0
O43 O 0.53937 0.05675 0.58422 0.0
O44 O 0.59361 0.07613 0.55298 0.0
O45 O 0.49106 0.98925 0.59039 0.0
O46 O 0.48348 1.00193 0.47202 0.0
O47 O 0.59429 0.03703 0.43134 0.0
O48 O 0.53943 0.0413 0.4449 0.0
O49 O 0.61243 0.99474 0.58801 0.0
O50 O 0.56201 0.9811 0.50436 0.0
O51 O 0.66524 0.03964 0.50423 0.0
O52 O 0.66784 0.06588 0.60586 0.0
C53 C 0.56439 0.0784 0.57729 0.0
O54 O 0.55662 1.01311 0.66603 0.0
O55 O 0.60745 0.04605 0.67315 0.0
C56 C 0.45036 0.95848 0.49975 0.0
C57 C 0.40848 0.90611 0.44762 0.0
C58 C 0.40481 0.9189 0.51717 0.0
C59 C 0.42547 0.9449 0.54275 0.0
C60 C 0.45529 0.94521 0.43217 0.0
C61 C 0.43443 0.91932 0.40618 0.0
C62 C 0.46999 0.98677 0.52474 0.0
C63 C 0.56552 0.04565 0.40643 0.0
C64 C 0.58841 0.97481 0.55021 0.0
C65 C 0.70187 0.08479 0.51273 0.0
C66 C 0.73758 0.13208 0.44553 0.0
C67 C 0.70772 0.11475 0.40336 0.0
C68 C 0.68997 0.09137 0.4367 0.0
C69 C 0.73112 0.10235 0.55531 0.0
C70 C 0.74871 0.12576 0.52228 0.0
C71 C 0.68367 0.06035 0.54966 0.0
H72 H 0.38564 0.90899 0.55142 0.0
H73 H 0.42158 0.95463 0.59551 0.0
H74 H 0.47465 0.9551 0.39833 0.0
H75 H 0.43784 0.91018 0.35219 0.0
H76 H 0.69845 0.1189 0.3441 0.0
H77 H 0.66708 0.0784 0.40288 0.0
H78 H 0.74037 0.09798 0.61442 0.0
H79 H 0.77104 0.139 0.55718 0.0
Dy80 Dy 0.54858 0.55365 0.87128 0.0
Dy81 Dy 0.53756 0.48478 0.90124 0.0
C82 C 0.57768 0.5312 0.03462 0.0
O83 O 0.60091 0.54301 0.86515 0.0
O84 O 0.59365 0.49598 0.8913 0.0
O85 O 0.54475 0.59613 0.89626 0.0
O86 O 0.56218 0.585 0.78879 0.0
O87 O 0.54552 0.49267 0.77982 0.0
O88 O 0.51548 0.52659 0.77543 0.0
O89 O 0.48597 0.49642 0.90312 0.0
O90 O 0.49914 0.54422 0.92125 0.0
O91 O 0.5041 0.44505 0.86526 0.0
O92 O 0.54839 0.44744 0.95651 0.0
C93 C 0.61308 0.51996 0.87747 0.0
O94 O 0.5799 0.55123 -0.0146 0.0
O95 O 0.55729 0.50628 0.01813 0.0
C96 C 0.55889 0.63369 0.80883 0.0
C97 C 0.56576 0.68959 0.76543 0.0
C98 C 0.5446 0.67933 0.82036 0.0
C99 C 0.54136 0.65169 0.84219 0.0
C100 C 0.57985 0.64382 0.75346 0.0
C101 C 0.58346 0.67159 0.73235 0.0
C102 C 0.55516 0.60446 0.83156 0.0
C103 C 0.53035 0.51026 0.73922 0.0
C104 C 0.47726 0.52006 0.91893 0.0
C105 C 0.53017 0.40542 0.87674 0.0
C106 C 0.53831 0.35305 0.82191 0.0
C107 C 0.51125 0.36536 0.78596 0.0
C108 C 0.50714 0.39113 0.81322 0.0
C109 C 0.55788 0.39353 0.91135 0.0
C110 C 0.56198 0.36767 0.88405 0.0
C111 C 0.52313 0.43111 0.9106 0.0
H112 H 0.53088 0.6928 0.8472 0.0
H113 H 0.52495 0.64437 0.88484 0.0
H114 H 0.59361 0.63034 0.72679 0.0
H115 H 0.59972 0.6789 0.68943 0.0
H116 H 0.49291 0.35489 0.73717 0.0
H117 H 0.48533 0.39954 0.78548 0.0
H118 H 0.57585 0.40383 0.9609 0.0
H119 H 0.58293 0.35867 0.9135 0.0
H120 H 0.15143 0.46848 0.01404 0.0
H121 H 0.21184 0.46842 0.00132 0.0
H122 H 0.22627 0.55421 0.93719 0.0
H123 H 0.16559 0.55422 0.94734 0.0
H124 H 0.25559 0.52521 0.84707 0.0
H125 H 0.25721 0.53397 0.12305 0.0
H126 H 0.23905 0.51949 0.24737 0.0
H127 H 0.27051 0.44155 0.22174 0.0
H128 H 0.28849 0.45544 0.0968 0.0
H129 H 0.44108 0.5625 0.90691 0.0
H130 H 0.37973 0.55969 0.91845 0.0
H131 H 0.36891 0.47256 0.96677 0.0
H132 H 0.43013 0.4752 0.95561 0.0
H133 H 0.33746 0.49921 0.06349 0.0
H134 H 0.32702 0.48808 0.78185 0.0
H135 H 0.34367 0.5011 0.65498 0.0
H136 H 0.33041 0.58455 0.69508 0.0
H137 H 0.31443 0.57208 0.8227 0.0
C138 C 0.16735 0.48735 -0.00307 0.0
C139 C 0.15353 0.51144 -0.01762 0.0
C140 C 0.20207 0.48732 -0.00987 0.0
C141 C 0.22396 0.51144 0.96934 0.0
C142 C 0.21002 0.53532 0.9533 0.0
C143 C 0.17527 0.53534 0.95965 0.0
C144 C 0.26129 0.51191 0.9639 0.0
C145 C 0.27361 0.52025 0.89513 0.0
C146 C 0.28467 0.50398 0.02518 0.0
C147 C 0.27391 0.49565 0.10029 0.0
C148 C 0.26003 0.51367 0.14369 0.0
C149 C 0.24981 0.50558 0.21431 0.0
C150 C 0.25356 0.4796 0.24236 0.0
C151 C 0.2676 0.46166 0.19992 0.0
C152 C 0.27784 0.46964 0.12925 0.0
C153 C 0.42574 0.54279 0.9206 0.0
C154 C 0.44062 0.51909 0.93032 0.0
C155 C 0.39054 0.54114 0.92646 0.0
C156 C 0.36948 0.5158 0.94253 0.0
C157 C 0.3845 0.4923 0.95403 0.0
C158 C 0.41956 0.49386 0.94746 0.0
C159 C 0.3319 0.51384 0.94775 0.0
C160 C 0.31951 0.50481 0.016 0.0
C161 C 0.30843 0.52131 0.88634 0.0
C162 C 0.31916 0.5291 0.81108 0.0
C163 C 0.32779 0.50921 0.76353 0.0
C164 C 0.33715 0.51649 0.69162 0.0
C165 C 0.33797 0.54361 0.66685 0.0
C166 C 0.32963 0.56353 0.71414 0.0
C167 C 0.32034 0.55635 0.78614 0.0
H168 H 0.34514 0.54919 0.6111 0.0
H169 H 0.24565 0.47338 0.29705 0.0
H170 H 0.80837 0.14937 0.4621 0.0
H171 H 0.84174 0.1894 0.40664 0.0
H172 H 0.74642 0.20952 0.2905 0.0
H173 H 0.71259 0.16942 0.34662 0.0
H174 H 0.79559 0.21433 0.19604 0.0
H175 H 0.79102 0.24706 0.45243 0.0
H176 H 0.79731 0.24489 0.59423 0.0
H177 H 0.90646 0.24575 0.60716 0.0
H178 H 0.90073 0.24761 0.46529 0.0
H179 H 0.87805 0.34948 0.09701 0.0
H180 H 0.84019 0.31114 0.1504 0.0
H181 H 0.93047 0.28722 0.27992 0.0
H182 H 0.96841 0.32538 0.22679 0.0
H183 H 0.88123 0.28555 0.36755 0.0
H184 H 0.8862 0.25146 0.11281 0.0
H185 H 0.88073 0.25297 0.97101 0.0
H186 H 0.77187 0.25385 0.95454 0.0
H187 H 0.77681 0.25275 0.09643 0.0
C188 C 0.79437 0.16243 0.42549 0.0
C189 C 0.75771 0.15628 0.40967 0.0
C190 C 0.81355 0.18531 0.39356 0.0
C191 C 0.79661 0.20276 0.34535 0.0
C192 C 0.76006 0.19639 0.32776 0.0
C193 C 0.74076 0.17341 0.35975 0.0
C194 C 0.81726 0.22767 0.31391 0.0
C195 C 0.81389 0.23017 0.23354 0.0
C196 C 0.84175 0.248 0.36275 0.0
C197 C 0.84539 0.24729 0.44818 0.0
C198 C 0.81633 0.24664 0.48548 0.0
C199 C 0.8198 0.24549 0.56587 0.0
C200 C 0.85225 0.24514 0.60967 0.0
C201 C 0.88133 0.24603 0.57316 0.0
C202 C 0.878 0.24718 0.49277 0.0
C203 C 0.88986 0.33596 0.13653 0.0
C204 C 0.92631 0.34051 0.15746 0.0
C205 C 0.86817 0.31406 0.16708 0.0
C206 C 0.88247 0.29607 0.21858 0.0
C207 C 0.91879 0.30083 0.24046 0.0
C208 C 0.94047 0.32275 0.21017 0.0
C209 C 0.85974 0.27219 0.24958 0.0
C210 C 0.86277 0.26985 0.32996 0.0
C211 C 0.83507 0.25196 0.2007 0.0
C212 C 0.83195 0.25231 0.11531 0.0
C213 C 0.86114 0.25218 0.079 0.0
C214 C 0.85814 0.25293 -0.0014 0.0
C215 C 0.82599 0.25358 0.95381 0.0
C216 C 0.79677 0.25339 -0.01068 0.0
C217 C 0.79965 0.25267 0.06973 0.0
H218 H 0.82372 0.25418 0.89158 0.0
H219 H 0.85488 0.24422 0.67189 0.0
H220 H 0.64303 0.95194 0.61598 0.0
H221 H 0.64094 0.90356 0.65349 0.0
H222 H 0.53085 0.88304 0.56556 0.0
H223 H 0.53278 0.93101 0.52657 0.0
H224 H 0.55147 0.86485 0.72085 0.0
H225 H 0.58023 0.86235 0.46214 0.0
H226 H 0.61583 0.87842 0.36147 0.0
H227 H 0.70591 0.85918 0.50219 0.0
H228 H 0.67092 0.84337 0.60423 0.0
H229 H 0.51389 0.71823 0.72562 0.0
H230 H 0.51966 0.7668 0.68973 0.0
H231 H 0.63153 0.77616 0.72064 0.0
H232 H 0.62565 0.7272 0.7539 0.0
H233 H 0.61269 0.80144 0.5997 0.0
H234 H 0.58764 0.80309 0.85662 0.0
H235 H 0.55566 0.78847 0.96418 0.0
H236 H 0.46403 0.81102 0.8396 0.0
H237 H 0.49534 0.82548 0.73083 0.0
C238 C 0.61848 0.93704 0.60391 0.0
C239 C 0.58817 0.94525 0.56767 0.0
C240 C 0.61731 0.90946 0.62553 0.0
C241 C 0.58572 0.88979 0.61237 0.0
C242 C 0.55546 0.89793 0.5763 0.0
C243 C 0.55671 0.92531 0.55344 0.0
C244 C 0.58409 0.86064 0.63602 0.0
C245 C 0.56454 0.85083 0.69397 0.0
C246 C 0.60214 0.84276 0.60274 0.0
C247 C 0.62306 0.85197 0.5411 0.0
C248 C 0.60769 0.86177 0.47187 0.0
C249 C 0.62775 0.87078 0.41452 0.0
C250 C 0.66313 0.8699 0.42552 0.0
C251 C 0.67851 0.8599 0.4938 0.0
C252 C 0.65858 0.85089 0.55137 0.0
C253 C 0.5397 0.73071 0.72498 0.0
C254 C 0.56934 0.71901 0.74295 0.0
C255 C 0.54302 0.75853 0.7048 0.0
C256 C 0.57611 0.77544 0.70401 0.0
C257 C 0.60572 0.76363 0.721 0.0
C258 C 0.60236 0.73566 0.73998 0.0
C259 C 0.57973 0.8053 0.68445 0.0
C260 C 0.59971 0.81534 0.62723 0.0
C261 C 0.56263 0.82358 0.71967 0.0
C262 C 0.54378 0.81518 0.7853 0.0
C263 C 0.56061 0.80479 0.85197 0.0
C264 C 0.54261 0.79655 0.91318 0.0
C265 C 0.50781 0.79877 0.90866 0.0
C266 C 0.49098 0.80931 0.843 0.0
C267 C 0.50886 0.81757 0.78159 0.0
H268 H 0.49391 0.79236 0.95609 0.0
H269 H 0.67862 0.87689 0.38105 0.0
H270 H 0.66667 0.56584 0.90368 0.0
H271 H 0.72922 0.56647 0.92693 0.0
H272 H 0.70772 0.47729 0.88441 0.0
H273 H 0.64539 0.47644 0.86427 0.0
H274 H 0.75356 0.4887 0.00341 0.0
H275 H 0.74282 0.52692 0.75218 0.0
H276 H 0.72535 0.55929 0.65408 0.0
H277 H 0.7905 0.6286 0.79208 0.0
H278 H 0.80817 0.59663 0.89128 0.0
H279 H 0.92296 0.47138 0.9674 0.0
H280 H 0.86182 0.47457 0.94047 0.0
H281 H 0.88948 0.56158 0.01312 0.0
H282 H 0.95115 0.55875 0.03858 0.0
H283 H 0.84144 0.55312 0.8823 0.0
H284 H 0.85296 0.51064 0.13161 0.0
H285 H 0.87043 0.47533 0.22011 0.0
H286 H 0.80231 0.41017 0.07196 0.0
H287 H 0.78468 0.44508 -0.01775 0.0
C288 C 0.67531 0.54644 0.89805 0.0
C289 C 0.65099 0.52112 0.88168 0.0
C290 C 0.71117 0.54681 0.91131 0.0
C291 C 0.72347 0.52194 0.90677 0.0
C292 C 0.6991 0.49677 0.8886 0.0
C293 C 0.66336 0.49634 0.87658 0.0
C294 C 0.7615 0.52175 0.92371 0.0
C295 C 0.77261 0.50261 0.97601 0.0
C296 C 0.78674 0.54017 0.88942 0.0
C297 C 0.77663 0.55941 0.82937 0.0
C298 C 0.75331 0.54908 0.76172 0.0
C299 C 0.74339 0.56735 0.70591 0.0
C300 C 0.75675 0.59599 0.71694 0.0
C301 C 0.78017 0.60641 0.78365 0.0
C302 C 0.79021 0.58822 0.8396 0.0
C303 C 0.91617 0.49121 -0.02173 0.0
C304 C 0.94214 0.51476 0.006 0.0
C305 C 0.88105 0.49298 0.96287 0.0
C306 C 0.87083 0.51824 0.97569 0.0
C307 C 0.89664 0.54183 0.00303 0.0
C308 C 0.9319 0.54011 0.01827 0.0
C309 C 0.83323 0.51985 0.96109 0.0
C310 C 0.82227 0.53931 0.90961 0.0
C311 C 0.80794 0.50133 -0.00519 0.0
C312 C 0.81765 0.48045 0.05012 0.0
C313 C 0.84176 0.48877 0.11791 0.0
C314 C 0.85169 0.46883 0.16825 0.0
C315 C 0.83752 0.44052 0.15161 0.0
C316 C 0.81324 0.4321 0.0848 0.0
C317 C 0.80322 0.45196 0.03429 0.0
H318 H 0.84533 0.42512 0.19052 0.0
H319 H 0.749 0.61011 0.67374 0.0
H320 H 0.33842 0.89174 0.44969 0.0
H321 H 0.29786 0.84946 0.39501 0.0
H322 H 0.38202 0.81926 0.31702 0.0
H323 H 0.42313 0.86137 0.37311 0.0
H324 H 0.32348 0.81361 0.20438 0.0
H325 H 0.35061 0.79195 0.47091 0.0
H326 H 0.35748 0.80102 0.61155 0.0
H327 H 0.24891 0.80334 0.59166 0.0
H328 H 0.24148 0.79466 0.45064 0.0
H329 H 0.22462 0.67676 0.1013 0.0
H330 H 0.26983 0.71616 0.16016 0.0
H331 H 0.19317 0.74824 0.26371 0.0
H332 H 0.14811 0.70892 0.20577 0.0
H333 H 0.25051 0.75175 0.36487 0.0
H334 H 0.22272 0.77583 0.10144 0.0
H335 H 0.21419 0.76822 0.96 0.0
H336 H 0.32168 0.76326 0.97245 0.0
H337 H 0.33073 0.77043 0.11422 0.0
C338 C 0.34851 0.87594 0.42216 0.0
C339 C 0.38412 0.87989 0.41636 0.0
C340 C 0.32522 0.85185 0.39051 0.0
C341 C 0.33703 0.83118 0.35256 0.0
C342 C 0.37244 0.83504 0.34607 0.0
C343 C 0.39585 0.85912 0.37802 0.0
C344 C 0.31221 0.80563 0.31931 0.0
C345 C 0.30792 0.79978 0.23954 0.0
C346 C 0.29133 0.78811 0.36511 0.0
C347 C 0.29556 0.79283 0.45011 0.0
C348 C 0.32824 0.79454 0.49645 0.0
C349 C 0.33223 0.7996 0.57625 0.0
C350 C 0.30366 0.8028 0.6105 0.0
C351 C 0.27101 0.80086 0.56503 0.0
C352 C 0.26689 0.79583 0.48518 0.0
C353 C 0.21745 0.69231 0.13631 0.0
C354 C 0.18285 0.68978 0.14896 0.0
C355 C 0.24326 0.71477 0.16995 0.0
C356 C 0.23478 0.73527 0.21578 0.0
C357 C 0.20032 0.73262 0.22885 0.0
C358 C 0.17461 0.71013 0.19576 0.0
C359 C 0.26163 0.75968 0.24969 0.0
C360 C 0.26624 0.7654 0.32964 0.0
C361 C 0.28254 0.77724 0.20389 0.0
C362 C 0.27731 0.77338 0.11853 0.0
C363 C 0.24449 0.77294 0.07408 0.0
C364 C 0.23956 0.76872 -0.00615 0.0
C365 C 0.26735 0.76518 0.95728 0.0
C366 C 0.30016 0.76596 0.00087 0.0
C367 C 0.30521 0.77012 0.08117 0.0
H368 H 0.26348 0.7619 0.89517 0.0
H369 H 0.30681 0.80674 0.67228 0.0
H370 H 0.48505 0.30795 0.78086 0.0
H371 H 0.48886 0.26121 0.7393 0.0
H372 H 0.60085 0.28634 0.7673 0.0
H373 H 0.59717 0.3336 0.80621 0.0
H374 H 0.57525 0.25658 0.63437 0.0
H375 H 0.56014 0.24652 0.90098 0.0
H376 H 0.53114 0.24995 0.01431 0.0
H377 H 0.43788 0.19644 0.89674 0.0
H378 H 0.46618 0.19299 0.78232 0.0
H379 H 0.61577 0.12448 0.61387 0.0
H380 H 0.61022 0.17029 0.65799 0.0
H381 H 0.49891 0.14152 0.63968 0.0
H382 H 0.50451 0.095 0.59844 0.0
H383 H 0.52295 0.17294 0.76565 0.0
H384 H 0.53715 0.18237 0.4996 0.0
H385 H 0.56628 0.1769 0.38764 0.0
H386 H 0.66007 0.23052 0.50247 0.0
H387 H 0.63164 0.23599 0.61561 0.0
C388 C 0.5105 0.30368 0.77737 0.0
C389 C 0.54083 0.32458 0.79668 0.0
C390 C 0.51265 0.27682 0.75449 0.0
C391 C 0.54517 0.27018 0.7512 0.0
C392 C 0.57549 0.291 0.76981 0.0
C393 C 0.57337 0.31793 0.79256 0.0
C394 C 0.54747 0.24163 0.72705 0.0
C395 C 0.56416 0.23832 0.66364 0.0
C396 C 0.53215 0.21773 0.7639 0.0
C397 C 0.51517 0.21976 0.83279 0.0
C398 C 0.53336 0.23568 0.89907 0.0
C399 C 0.51706 0.23758 0.96355 0.0
C400 C 0.48266 0.22349 0.96264 0.0
C401 C 0.46451 0.20738 0.89733 0.0
C402 C 0.48067 0.20543 0.83268 0.0
C403 C 0.59003 0.12792 0.61852 0.0
C404 C 0.56046 0.10631 0.60119 0.0
C405 C 0.5869 0.15415 0.64369 0.0
C406 C 0.55404 0.15956 0.65012 0.0
C407 C 0.52449 0.13787 0.63442 0.0
C408 C 0.52769 0.11138 0.61045 0.0
C409 C 0.5507 0.18794 0.67306 0.0
C410 C 0.53382 0.1912 0.73611 0.0
C411 C 0.56563 0.21179 0.63558 0.0
C412 C 0.58229 0.20952 0.5662 0.0
C413 C 0.56399 0.19299 0.50098 0.0
C414 C 0.58039 0.18985 0.43736 0.0
C415 C 0.61501 0.20334 0.43797 0.0
C416 C 0.63324 0.2201 0.50206 0.0
C417 C 0.61698 0.22327 0.5659 0.0
H418 H 0.6277 0.20082 0.38876 0.0
H419 H 0.47008 0.22501 0.0126 0.0
H420 H 0.08686 0.49364 0.78259 0.0
H421 H 0.11806 0.51847 0.68656 0.0
H422 H 0.07129 0.58922 0.71806 0.0
H423 H 1.03842 0.56387 0.80999 0.0
H424 H 0.05951 0.57873 0.582 0.0
H425 H 0.1602 0.59918 0.73097 0.0
H426 H 0.21244 0.60371 0.82933 0.0
H427 H 0.24558 0.53944 0.71043 0.0
H428 H 0.19284 0.53343 0.61305 0.0
H429 H 0.13691 0.54923 0.22336 0.0
H430 H 0.15312 0.5678 0.3565 0.0
H431 H 0.06158 0.51388 0.41604 0.0
H432 H 0.04447 0.49582 0.28225 0.0
H433 H 0.16461 0.55228 0.50805 0.0
H434 H 1.01433 0.55224 0.48338 0.0
H435 H 0.96775 0.56029 0.38124 0.0
H436 H 0.04415 0.60574 0.2557 0.0
H437 H 0.09126 0.59851 0.35783 0.0
C438 C 0.08314 0.51442 0.76873 0.0
C439 C 0.05944 0.5264 0.80224 0.0
C440 C 0.10174 0.52899 0.71537 0.0
C441 C 0.09726 0.55593 0.69527 0.0
C442 C 0.07515 0.5685 0.7323 0.0
C443 C 0.05602 0.55374 0.78423 0.0
C444 C 0.10874 0.56738 0.62372 0.0
C445 C 0.08295 0.57362 0.56647 0.0
C446 C 0.14076 0.56385 0.60347 0.0
C447 C 0.17219 0.56589 0.66379 0.0
C448 C 0.17825 0.58563 0.726 0.0
C449 C 0.20805 0.58851 0.7818 0.0
C450 C 0.23237 0.57201 0.77593 0.0
C451 C 0.22675 0.55232 0.71476 0.0
C452 C 0.19678 0.54913 0.65911 0.0
C453 C 0.12053 0.54092 0.26522 0.0
C454 C 0.0888 0.52168 0.24228 0.0
C455 C 0.13007 0.55146 0.34123 0.0
C456 C 0.10803 0.54277 0.39494 0.0
C457 C 0.07849 0.5212 0.37431 0.0
C458 C 0.06879 0.51078 0.29817 0.0
C459 C 0.11256 0.55822 0.46936 0.0
C460 C 0.14191 0.55814 0.52525 0.0
C461 C 0.08485 0.56953 0.48868 0.0
C462 C 0.05639 0.57481 0.42849 0.0
C463 C 1.02125 0.56426 0.43455 0.0
C464 C 0.99473 0.56861 0.37646 0.0
C465 C 1.00299 0.58348 0.31197 0.0
C466 C 1.0378 0.59418 0.3056 0.0
C467 C 0.06442 0.58996 0.3636 0.0
H468 H 0.98242 0.58672 0.26692 0.0
H469 H 0.25544 0.57448 0.81918 0.0
H470 H 0.51687 0.07656 0.35791 0.0
H471 H 0.51077 0.10154 0.23826 0.0
H472 H 0.60347 0.07844 0.18152 0.0
H473 H 0.61018 0.05392 0.30133 0.0
H474 H 0.58981 0.13204 0.1193 0.0
H475 H 0.52648 0.02706 0.12573 0.0
H476 H 0.48447 0.99482 0.19028 0.0
H477 H 0.41489 0.05197 0.16377 0.0
H478 H 0.45664 0.08449 0.09923 0.0
H479 H 0.6265 0.05718 0.83073 0.0
H480 H 0.61285 0.08305 0.9377 0.0
H481 H 0.50481 0.06828 0.82992 0.0
H482 H 0.51801 0.04053 0.72703 0.0
H483 H 0.50354 0.05725 0.96208 0.0
H484 H 0.55797 0.13902 0.86805 0.0
H485 H 0.59907 0.17362 0.80836 0.0
H486 H 0.68079 0.16935 -0.00388 0.0
H487 H 0.64048 0.13463 0.0571 0.0
C488 C 0.53623 0.07711 0.32036 0.0
C489 C 0.56333 0.06243 0.33738 0.0
C490 C 0.53301 0.09184 0.25286 0.0
C491 C 0.55653 0.09166 0.20108 0.0
C492 C 0.58522 0.07903 0.22123 0.0
C493 C 0.58864 0.06453 0.28894 0.0
C494 C 0.54701 0.09727 0.11909 0.0
C495 C 0.57052 0.11631 0.0837 0.0
C496 C 0.52025 0.07801 0.07293 0.0
C497 C 0.49439 0.05796 0.10749 0.0
C498 C 0.50202 0.03252 0.13311 0.0
C499 C 0.47838 1.01431 0.16993 0.0
C500 C 0.44699 1.02133 0.18099 0.0
C501 C 0.43915 0.04654 0.15499 0.0
C502 C 0.46275 0.06484 0.11821 0.0
C503 C 0.59982 0.05918 0.83092 0.0
C504 C 0.57315 0.04607 0.77251 0.0
C505 C 0.5921 0.07465 0.89075 0.0
C506 C 0.55779 0.07823 0.89141 0.0
C507 C 0.53143 0.06587 0.83115 0.0
C508 C 0.53892 0.04962 0.77301 0.0
C509 C 0.54875 0.0904 0.96139 0.0
C510 C 0.52152 0.07459 -0.00542 0.0
C511 C 0.57116 0.11354 0.00413 0.0
C512 C 0.59603 0.13412 0.96734 0.0
C513 C 0.58475 0.14527 0.8965 0.0
C514 C 0.60791 0.16495 0.8624 0.0
C515 C 0.64247 0.17361 0.89824 0.0
C516 C 0.65397 0.16265 0.96845 0.0
C517 C 0.63092 0.14305 0.00304 0.0
H518 H 0.66034 0.18882 0.87164 0.0
H519 H 0.42878 1.00725 0.20978 0.0
H520 H 0.5219 0.5573 0.66266 0.0
H521 H 0.55159 0.57676 0.55788 0.0
H522 H 0.59388 0.5027 0.54306 0.0
H523 H 0.56631 0.48402 0.65179 0.0
H524 H 0.64253 0.54558 0.53164 0.0
H525 H 0.52112 0.51663 0.41086 0.0
H526 H 0.45796 0.51561 0.38516 0.0
H527 H 0.47858 0.60416 0.3588 0.0
H528 H 0.54192 0.60566 0.3848 0.0
H529 H 0.58839 0.49575 0.15205 0.0
H530 H 0.61334 0.50922 0.28641 0.0
H531 H 0.63957 0.59515 0.2268 0.0
H532 H 0.61588 0.58196 0.09229 0.0
H533 H 0.57463 0.57248 0.29355 0.0
H534 H 0.69413 0.58817 0.34636 0.0
H535 H 0.75557 0.58449 0.35559 0.0
H536 H 0.73714 0.51271 0.49338 0.0
H537 H 0.67542 0.51539 0.48352 0.0
C538 C 0.53745 0.54509 0.637 0.0
C539 C 0.54213 0.51923 0.6661 0.0
C540 C 0.5544 0.55628 0.57697 0.0
C541 C 0.57516 0.5413 0.54288 0.0
C542 C 0.57851 0.51489 0.56949 0.0
C543 C 0.5623 0.50401 0.63081 0.0
C544 C 0.59251 0.55233 0.47753 0.0
C545 C 0.62769 0.55104 0.47885 0.0
C546 C 0.57391 0.56177 0.41117 0.0
C547 C 0.53611 0.56134 0.4016 0.0
C548 C 0.51212 0.53593 0.40099 0.0
C549 C 0.47634 0.53525 0.38591 0.0
C550 C 0.46426 0.55984 0.37087 0.0
C551 C 0.48797 0.58517 0.37095 0.0
C552 C 0.5238 0.58595 0.38593 0.0
C553 C 0.60051 0.51737 0.167 0.0
C554 C 0.59856 0.53793 0.11234 0.0
C555 C 0.61566 0.52497 0.24348 0.0
C556 C 0.62811 0.55323 0.26644 0.0
C557 C 0.63041 0.57324 0.21011 0.0
C558 C 0.61589 0.56564 0.13347 0.0
C559 C 0.6229 0.56158 0.34371 0.0
C560 C 0.59005 0.56754 0.3464 0.0
C561 C 0.64311 0.55499 0.41176 0.0
C562 C 0.6798 0.55195 0.41376 0.0
C563 C 0.70292 0.57128 0.37754 0.0
C564 C 0.73792 0.56943 0.38315 0.0
C565 C 0.75024 0.54837 0.42497 0.0
C566 C 0.72756 0.52902 0.46096 0.0
C567 C 0.69252 0.53071 0.45537 0.0
H568 H 0.77738 0.54707 0.42959 0.0
H569 H 0.43654 0.55924 0.35875 0.0
loop_
_geom_bond_atom_site_label_1
_geom_bond_atom_site_label_2
_geom_bond_distance
_geom_bond_site_symmetry_2
_ccdc_geom_bond_type
Dy0 O3 2.307 1_455 S
Dy0 O5 2.395 . S
Dy0 O6 2.379 . S
Dy0 O8 2.339 . S
Dy0 O10 2.298 . S
Dy0 O14 2.275 . S
Dy0 C22 2.738 . S
Dy1 O4 2.298 1_455 S
Dy1 O7 2.275 . S
Dy1 O9 2.307 . S
Dy1 O11 2.395 1_455 S
Dy1 O12 2.379 1_455 S
Dy1 O15 2.339 1_554 S
Dy1 C31 2.738 1_455 S
C2 O14 1.254 1_556 S
C2 O15 1.257 . S
O3 Dy0 2.307 1_655 S
O3 C13 1.266 . S
O4 Dy1 2.298 1_655 S
O4 C13 1.236 . S
O5 Dy0 2.395 . S
O5 C22 1.255 . S
O6 Dy0 2.379 . S
O6 C22 1.249 . S
O7 Dy1 2.275 . S
O7 C23 1.254 . S
O8 Dy0 2.339 . S
O8 C23 1.257 . S
O9 Dy1 2.307 . S
O9 C24 1.266 . S
O10 Dy0 2.298 . S
O10 C24 1.236 . S
O11 Dy1 2.395 1_655 S
O11 C31 1.255 . S
O12 Dy1 2.379 1_655 S
O12 C31 1.249 . S
C13 O3 1.266 . S
C13 O4 1.236 . S
O14 Dy0 2.275 . S
O14 C2 1.254 1_554 S
O15 Dy1 2.339 1_556 S
O15 C2 1.257 . S
C16 C19 1.344 . S
C16 C20 1.328 . S
C16 C22 1.516 . S
C17 C18 1.304 . S
C17 C21 1.323 . S
C18 C17 1.304 . S
C18 C19 1.371 . S
C18 H32 0.930 . S
C19 C16 1.344 . S
C19 C18 1.371 . S
C19 H33 0.931 . S
C20 C16 1.328 . S
C20 C21 1.433 . S
C20 H34 0.931 . S
C21 C17 1.323 . S
C21 C20 1.433 . S
C21 H35 0.933 . S
C22 Dy0 2.738 . S
C22 O5 1.255 . S
C22 O6 1.249 . S
C22 C16 1.516 . S
C23 O7 1.254 . S
C23 O8 1.257 . S
C24 O9 1.266 . S
C24 O10 1.236 . S
C25 C28 1.344 . S
C25 C29 1.328 . S
C25 C31 1.516 . S
C26 C27 1.304 . S
C26 C30 1.323 . S
C27 C26 1.304 . S
C27 C28 1.371 . S
C27 H36 0.930 . S
C28 C25 1.344 . S
C28 C27 1.371 . S
C28 H37 0.931 . S
C29 C25 1.328 . S
C29 C30 1.433 . S
C29 H38 0.931 . S
C30 C26 1.323 . S
C30 C29 1.433 . S
C30 H39 0.933 . S
C31 Dy1 2.738 1_655 S
C31 O11 1.255 . S
C31 O12 1.249 . S
C31 C25 1.516 . S
H32 C18 0.930 . S
H33 C19 0.931 . S
H34 C20 0.931 . S
H35 C21 0.933 . S
H36 C27 0.930 . S
H37 C28 0.931 . S
H38 C29 0.931 . S
H39 C30 0.933 . S
Dy40 O43 2.307 1_565 S
Dy40 O45 2.395 . S
Dy40 O46 2.379 . S
Dy40 O48 2.337 1_565 S
Dy40 O50 2.298 . S
Dy40 O54 2.275 1_565 S
Dy40 C62 2.738 . S
Dy41 O44 2.298 . S
Dy41 O47 2.275 . S
Dy41 O49 2.307 1_545 S
Dy41 O51 2.395 . S
Dy41 O52 2.379 . S
Dy41 O55 2.339 . S
Dy41 C71 2.738 . S
C42 O54 1.254 . S
C42 O55 1.257 . S
O43 Dy40 2.307 1_545 S
O43 C53 1.266 . S
O44 Dy41 2.298 . S
O44 C53 1.236 . S
O45 Dy40 2.395 . S
O45 C62 1.255 . S
O46 Dy40 2.379 . S
O46 C62 1.249 . S
O47 Dy41 2.275 . S
O47 C63 1.254 . S
O48 Dy40 2.337 1_545 S
O48 C63 1.263 . S
O49 Dy41 2.307 1_565 S
O49 C64 1.266 . S
O50 Dy40 2.298 . S
O50 C64 1.236 . S
O51 Dy41 2.395 . S
O51 C71 1.255 . S
O52 Dy41 2.379 . S
O52 C71 1.249 . S
C53 O43 1.266 . S
C53 O44 1.236 . S
O54 Dy40 2.275 1_545 S
O54 C42 1.254 . S
O55 Dy41 2.339 . S
O55 C42 1.257 . S
C56 C59 1.344 . S
C56 C60 1.328 . S
C56 C62 1.516 . S
C57 C58 1.304 . S
C57 C61 1.323 . S
C58 C57 1.304 . S
C58 C59 1.371 . S
C58 H72 0.930 . S
C59 C56 1.344 . S
C59 C58 1.371 . S
C59 H73 0.931 . S
C60 C56 1.328 . S
C60 C61 1.433 . S
C60 H74 0.931 . S
C61 C57 1.323 . S
C61 C60 1.433 . S
C61 H75 0.933 . S
C62 Dy40 2.738 . S
C62 O45 1.255 . S
C62 O46 1.249 . S
C62 C56 1.516 . S
C63 O47 1.254 . S
C63 O48 1.263 . S
C64 O49 1.266 . S
C64 O50 1.236 . S
C65 C68 1.344 . S
C65 C69 1.328 . S
C65 C71 1.516 . S
C66 C67 1.304 . S
C66 C70 1.323 . S
C67 C66 1.304 . S
C67 C68 1.371 . S
C67 H76 0.930 . S
C68 C65 1.344 . S
C68 C67 1.371 . S
C68 H77 0.931 . S
C69 C65 1.328 . S
C69 C70 1.433 . S
C69 H78 0.931 . S
C70 C66 1.323 . S
C70 C69 1.433 . S
C70 H79 0.933 . S
C71 Dy41 2.738 . S
C71 O51 1.255 . S
C71 O52 1.249 . S
C71 C65 1.516 . S
H72 C58 0.930 . S
H73 C59 0.931 . S
H74 C60 0.931 . S
H75 C61 0.933 . S
H76 C67 0.930 . S
H77 C68 0.931 . S
H78 C69 0.931 . S
H79 C70 0.933 . S
Dy80 O83 2.307 . S
Dy80 O85 2.395 . S
Dy80 O86 2.379 . S
Dy80 O88 2.339 . S
Dy80 O90 2.298 . S
Dy80 O94 2.275 . S
Dy80 C102 2.738 . S
Dy81 O84 2.298 . S
Dy81 O87 2.275 . S
Dy81 O89 2.307 . S
Dy81 O91 2.395 . S
Dy81 O92 2.379 . S
Dy81 O95 2.339 . S
Dy81 C111 2.738 . S
C82 O94 1.254 . S
C82 O95 1.257 . S
O83 Dy80 2.307 . S
O83 C93 1.266 . S
O84 Dy81 2.298 . S
O84 C93 1.236 . S
O85 Dy80 2.395 . S
O85 C102 1.255 . S
O86 Dy80 2.379 . S
O86 C102 1.249 . S
O87 Dy81 2.275 . S
O87 C103 1.254 . S
O88 Dy80 2.339 . S
O88 C103 1.257 . S
O89 Dy81 2.307 . S
O89 C104 1.266 . S
O90 Dy80 2.298 . S
O90 C104 1.236 . S
O91 Dy81 2.395 . S
O91 C111 1.255 . S
O92 Dy81 2.379 . S
O92 C111 1.249 . S
C93 O83 1.266 . S
C93 O84 1.236 . S
O94 Dy80 2.275 . S
O94 C82 1.254 . S
O95 Dy81 2.339 . S
O95 C82 1.257 . S
C96 C99 1.344 . S
C96 C100 1.328 . S
C96 C102 1.516 . S
C97 C98 1.304 . S
C97 C101 1.323 . S
C98 C97 1.304 . S
C98 C99 1.371 . S
C98 H112 0.930 . S
C99 C96 1.344 . S
C99 C98 1.371 . S
C99 H113 0.931 . S
C100 C96 1.328 . S
C100 C101 1.433 . S
C100 H114 0.931 . S
C101 C97 1.323 . S
C101 C100 1.433 . S
C101 H115 0.933 . S
C102 Dy80 2.738 . S
C102 O85 1.255 . S
C102 O86 1.249 . S
C102 C96 1.516 . S
C103 O87 1.254 . S
C103 O88 1.257 . S
C104 O89 1.266 . S
C104 O90 1.236 . S
C105 C108 1.344 . S
C105 C109 1.328 . S
C105 C111 1.516 . S
C106 C107 1.304 . S
C106 C110 1.323 . S
C107 C106 1.304 . S
C107 C108 1.371 . S
C107 H116 0.930 . S
C108 C105 1.344 . S
C108 C107 1.371 . S
C108 H117 0.931 . S
C109 C105 1.328 . S
C109 C110 1.433 . S
C109 H118 0.931 . S
C110 C106 1.323 . S
C110 C109 1.433 . S
C110 H119 0.933 . S
C111 Dy81 2.738 . S
C111 O91 1.255 . S
C111 O92 1.249 . S
C111 C105 1.516 . S
H112 C98 0.930 . S
H113 C99 0.931 . S
H114 C100 0.931 . S
H115 C101 0.933 . S
H116 C107 0.930 . S
H117 C108 0.931 . S
H118 C109 0.931 . S
H119 C110 0.933 . S
H120 C138 0.951 . S
H121 C140 0.951 . S
H122 C142 0.950 . S
H123 C143 0.950 1_556 S
H124 C145 0.950 . S
H125 C148 0.950 . S
H126 C149 0.950 . S
H127 C151 0.950 . S
H128 C152 0.950 . S
H129 C153 0.951 . S
H130 C155 0.951 . S
H131 C157 0.950 1_554 S
H132 C158 0.950 . S
H133 C160 0.950 . S
H134 C163 0.950 . S
H135 C164 0.950 . S
H136 C166 0.950 . S
H137 C167 0.950 . S
C138 H120 0.951 . S
C138 C139 1.366 . S
C138 C140 1.388 . S
C139 C138 1.366 . S
C139 C143 1.385 . S
C140 H121 0.951 . S
C140 C138 1.388 . S
C140 C141 1.366 . S
C141 C140 1.366 . S
C141 C142 1.414 1_554 S
C141 C144 1.499 . S
C142 H122 0.950 . S
C142 C141 1.414 1_556 S
C142 C143 1.374 1_556 S
C143 H123 0.950 1_554 S
C143 C139 1.385 . S
C143 C142 1.374 1_554 S
C144 C141 1.499 . S
C144 C145 1.373 1_554 S
C144 C146 1.389 . S
C145 H124 0.950 . S
C145 C144 1.373 1_556 S
C145 C161 1.377 . S
C146 C144 1.389 . S
C146 C147 1.524 . S
C146 C160 1.377 . S
C147 C146 1.524 . S
C147 C148 1.397 . S
C147 C152 1.363 . S
C148 H125 0.950 . S
C148 C147 1.397 . S
C148 C149 1.334 . S
C149 H126 0.950 . S
C149 C148 1.334 . S
C149 C150 1.287 . S
C150 C149 1.287 . S
C150 C151 1.524 . S
C150 H169 0.913 . S
C151 H127 0.950 . S
C151 C150 1.524 . S
C151 C152 1.415 . S
C152 H128 0.950 . S
C152 C147 1.363 . S
C152 C151 1.415 . S
C153 H129 0.951 . S
C153 C154 1.366 . S
C153 C155 1.388 . S
C154 C153 1.366 . S
C154 C158 1.385 . S
C155 H130 0.951 . S
C155 C153 1.388 . S
C155 C156 1.366 . S
C156 C155 1.366 . S
C156 C157 1.414 . S
C156 C159 1.499 . S
C157 H131 0.950 1_556 S
C157 C156 1.414 . S
C157 C158 1.374 . S
C158 H132 0.950 . S
C158 C154 1.385 . S
C158 C157 1.374 . S
C159 C156 1.499 . S
C159 C160 1.373 1_556 S
C159 C161 1.389 . S
C160 H133 0.950 . S
C160 C146 1.377 . S
C160 C159 1.373 1_554 S
C161 C145 1.377 . S
C161 C159 1.389 . S
C161 C162 1.524 . S
C162 C161 1.524 . S
C162 C163 1.397 . S
C162 C167 1.363 . S
C163 H134 0.950 . S
C163 C162 1.397 . S
C163 C164 1.334 . S
C164 H135 0.950 . S
C164 C163 1.334 . S
C164 C165 1.287 . S
C165 C164 1.287 . S
C165 C166 1.524 . S
C165 H168 0.999 . S
C166 H136 0.950 . S
C166 C165 1.524 . S
C166 C167 1.415 . S
C167 H137 0.950 . S
C167 C162 1.363 . S
C167 C166 1.415 . S
H168 C165 0.999 . S
H169 C150 0.913 . S
H170 C188 0.951 . S
H171 C190 0.951 . S
H172 C192 0.950 . S
H173 C193 0.950 . S
H174 C195 0.950 . S
H175 C198 0.950 . S
H176 C199 0.950 . S
H177 C201 0.950 . S
H178 C202 0.950 . S
H179 C203 0.951 . S
H180 C205 0.951 . S
H181 C207 0.950 . S
H182 C208 0.950 . S
H183 C210 0.950 . S
H184 C213 0.950 . S
H185 C214 0.950 . S
H186 C216 0.950 . S
H187 C217 0.950 . S
C188 H170 0.951 . S
C188 C189 1.366 . S
C188 C190 1.388 . S
C189 C188 1.366 . S
C189 C193 1.385 . S
C190 H171 0.951 . S
C190 C188 1.388 . S
C190 C191 1.366 . S
C191 C190 1.366 . S
C191 C192 1.414 . S
C191 C194 1.499 . S
C192 H172 0.950 . S
C192 C191 1.414 . S
C192 C193 1.374 . S
C193 H173 0.950 . S
C193 C189 1.385 . S
C193 C192 1.374 . S
C194 C191 1.499 . S
C194 C195 1.373 . S
C194 C196 1.389 . S
C195 H174 0.950 . S
C195 C194 1.373 . S
C195 C211 1.377 . S
C196 C194 1.389 . S
C196 C197 1.524 . S
C196 C210 1.377 . S
C197 C196 1.524 . S
C197 C198 1.397 . S
C197 C202 1.363 . S
C198 H175 0.950 . S
C198 C197 1.397 . S
C198 C199 1.334 . S
C199 H176 0.950 . S
C199 C198 1.334 . S
C199 C200 1.287 . S
C200 C199 1.287 . S
C200 C201 1.524 . S
C200 H219 0.913 . S
C201 H177 0.950 . S
C201 C200 1.524 . S
C201 C202 1.415 . S
C202 H178 0.950 . S
C202 C197 1.363 . S
C202 C201 1.415 . S
C203 H179 0.951 . S
C203 C204 1.366 . S
C203 C205 1.388 . S
C204 C203 1.366 . S
C204 C208 1.385 . S
C205 H180 0.951 . S
C205 C203 1.388 . S
C205 C206 1.366 . S
C206 C205 1.366 . S
C206 C207 1.414 . S
C206 C209 1.499 . S
C207 H181 0.950 . S
C207 C206 1.414 . S
C207 C208 1.374 . S
C208 H182 0.950 . S
C208 C204 1.385 . S
C208 C207 1.374 . S
C209 C206 1.499 . S
C209 C210 1.373 . S
C209 C211 1.389 . S
C210 H183 0.950 . S
C210 C196 1.377 . S
C210 C209 1.373 . S
C211 C195 1.377 . S
C211 C209 1.389 . S
C211 C212 1.524 . S
C212 C211 1.524 . S
C212 C213 1.397 . S
C212 C217 1.363 . S
C213 H184 0.950 . S
C213 C212 1.397 . S
C213 C214 1.334 . S
C214 H185 0.950 . S
C214 C213 1.334 . S
C214 C215 1.287 . S
C215 C214 1.287 . S
C215 C216 1.524 . S
C215 H218 0.999 1_554 S
C216 H186 0.950 . S
C216 C215 1.524 . S
C216 C217 1.415 . S
C217 H187 0.950 . S
C217 C212 1.363 . S
C217 C216 1.415 . S
H218 C215 0.999 1_556 S
H219 C200 0.913 . S
H220 C238 0.951 . S
H221 C240 0.951 . S
H222 C242 0.950 . S
H223 C243 0.950 . S
H224 C245 0.950 . S
H225 C248 0.950 . S
H226 C249 0.950 . S
H227 C251 0.950 . S
H228 C252 0.950 . S
H229 C253 0.951 . S
H230 C255 0.951 . S
H231 C257 0.950 . S
H232 C258 0.950 . S
H233 C260 0.950 . S
H234 C263 0.950 . S
H235 C264 0.950 1_554 S
H236 C266 0.950 . S
H237 C267 0.950 . S
C238 H220 0.951 . S
C238 C239 1.366 . S
C238 C240 1.388 . S
C239 C238 1.366 . S
C239 C243 1.385 . S
C240 H221 0.951 . S
C240 C238 1.388 . S
C240 C241 1.366 . S
C241 C240 1.366 . S
C241 C242 1.414 . S
C241 C244 1.499 . S
C242 H222 0.950 . S
C242 C241 1.414 . S
C242 C243 1.374 . S
C243 H223 0.950 . S
C243 C239 1.385 . S
C243 C242 1.374 . S
C244 C241 1.499 . S
C244 C245 1.373 . S
C244 C246 1.389 . S
C245 H224 0.950 . S
C245 C244 1.373 . S
C245 C261 1.377 . S
C246 C244 1.389 . S
C246 C247 1.524 . S
C246 C260 1.377 . S
C247 C246 1.524 . S
C247 C248 1.397 . S
C247 C252 1.363 . S
C248 H225 0.950 . S
C248 C247 1.397 . S
C248 C249 1.334 . S
C249 H226 0.950 . S
C249 C248 1.334 . S
C249 C250 1.287 . S
C250 C249 1.287 . S
C250 C251 1.524 . S
C250 H269 0.913 . S
C251 H227 0.950 . S
C251 C250 1.524 . S
C251 C252 1.415 . S
C252 H228 0.950 . S
C252 C247 1.363 . S
C252 C251 1.415 . S
C253 H229 0.951 . S
C253 C254 1.366 . S
C253 C255 1.388 . S
C254 C253 1.366 . S
C254 C258 1.385 . S
C255 H230 0.951 . S
C255 C253 1.388 . S
C255 C256 1.366 . S
C256 C255 1.366 . S
C256 C257 1.414 . S
C256 C259 1.499 . S
C257 H231 0.950 . S
C257 C256 1.414 . S
C257 C258 1.374 . S
C258 H232 0.950 . S
C258 C254 1.385 . S
C258 C257 1.374 . S
C259 C256 1.499 . S
C259 C260 1.373 . S
C259 C261 1.389 . S
C260 H233 0.950 . S
C260 C246 1.377 . S
C260 C259 1.373 . S
C261 C245 1.377 . S
C261 C259 1.389 . S
C261 C262 1.524 . S
C262 C261 1.524 . S
C262 C263 1.397 . S
C262 C267 1.363 . S
C263 H234 0.950 . S
C263 C262 1.397 . S
C263 C264 1.334 . S
C264 H235 0.950 1_556 S
C264 C263 1.334 . S
C264 C265 1.287 . S
C265 C264 1.287 . S
C265 C266 1.524 . S
C265 H268 0.999 1_556 S
C266 H236 0.950 . S
C266 C265 1.524 . S
C266 C267 1.415 . S
C267 H237 0.950 . S
C267 C262 1.363 . S
C267 C266 1.415 . S
H268 C265 0.999 1_554 S
H269 C250 0.913 . S
H270 C288 0.951 . S
H271 C290 0.951 1_554 S
H272 C292 0.950 . S
H273 C293 0.950 . S
H274 C295 0.950 . S
H275 C298 0.950 . S
H276 C299 0.950 . S
H277 C301 0.950 . S
H278 C302 0.950 . S
H279 C303 0.951 1_556 S
H280 C305 0.951 . S
H281 C307 0.950 . S
H282 C308 0.950 . S
H283 C310 0.950 . S
H284 C313 0.950 . S
H285 C314 0.950 . S
H286 C316 0.950 . S
H287 C317 0.950 . S
C288 H270 0.951 . S
C288 C289 1.366 . S
C288 C290 1.388 . S
C289 C288 1.366 . S
C289 C293 1.385 . S
C290 H271 0.951 1_556 S
C290 C288 1.388 . S
C290 C291 1.366 . S
C291 C290 1.366 . S
C291 C292 1.414 . S
C291 C294 1.499 . S
C292 H272 0.950 . S
C292 C291 1.414 . S
C292 C293 1.374 . S
C293 H273 0.950 . S
C293 C289 1.385 . S
C293 C292 1.374 . S
C294 C291 1.499 . S
C294 C295 1.373 . S
C294 C296 1.389 1_556 S
C295 H274 0.950 . S
C295 C294 1.373 . S
C295 C311 1.377 . S
C296 C294 1.389 1_554 S
C296 C297 1.524 . S
C296 C310 1.377 . S
C297 C296 1.524 . S
C297 C298 1.397 1_554 S
C297 C302 1.363 . S
C298 H275 0.950 . S
C298 C297 1.397 1_556 S
C298 C299 1.334 . S
C299 H276 0.950 . S
C299 C298 1.334 . S
C299 C300 1.287 1_556 S
C300 C299 1.287 1_554 S
C300 C301 1.524 . S
C300 H319 0.913 . S
C301 H277 0.950 . S
C301 C300 1.524 . S
C301 C302 1.415 . S
C302 H278 0.950 . S
C302 C297 1.363 . S
C302 C301 1.415 . S
C303 H279 0.951 1_554 S
C303 C304 1.366 . S
C303 C305 1.388 1_554 S
C304 C303 1.366 . S
C304 C308 1.385 . S
C305 H280 0.951 . S
C305 C303 1.388 1_556 S
C305 C306 1.366 1_556 S
C306 C305 1.366 1_554 S
C306 C307 1.414 . S
C306 C309 1.499 . S
C307 H281 0.950 . S
C307 C306 1.414 . S
C307 C308 1.374 . S
C308 H282 0.950 . S
C308 C304 1.385 . S
C308 C307 1.374 . S
C309 C306 1.499 . S
C309 C310 1.373 . S
C309 C311 1.389 1_554 S
C310 H283 0.950 . S
C310 C296 1.377 . S
C310 C309 1.373 . S
C311 C295 1.377 . S
C311 C309 1.389 1_556 S
C311 C312 1.524 . S
C312 C311 1.524 . S
C312 C313 1.397 1_556 S
C312 C317 1.363 . S
C313 H284 0.950 . S
C313 C312 1.397 1_554 S
C313 C314 1.334 . S
C314 H285 0.950 . S
C314 C313 1.334 . S
C314 C315 1.287 1_554 S
C315 C314 1.287 1_556 S
C315 C316 1.524 . S
C315 H318 0.999 . S
C316 H286 0.950 . S
C316 C315 1.524 . S
C316 C317 1.415 . S
C317 H287 0.950 . S
C317 C312 1.363 . S
C317 C316 1.415 . S
H318 C315 0.999 . S
H319 C300 0.913 . S
H320 C338 0.951 . S
H321 C340 0.951 . S
H322 C342 0.950 . S
H323 C343 0.950 . S
H324 C345 0.950 . S
H325 C348 0.950 . S
H326 C349 0.950 . S
H327 C351 0.950 . S
H328 C352 0.950 . S
H329 C353 0.951 . S
H330 C355 0.951 . S
H331 C357 0.950 . S
H332 C358 0.950 . S
H333 C360 0.950 . S
H334 C363 0.950 . S
H335 C364 0.950 1_556 S
H336 C366 0.950 . S
H337 C367 0.950 . S
C338 H320 0.951 . S
C338 C339 1.366 . S
C338 C340 1.388 . S
C339 C338 1.366 . S
C339 C343 1.385 . S
C340 H321 0.951 . S
C340 C338 1.388 . S
C340 C341 1.366 . S
C341 C340 1.366 . S
C341 C342 1.414 . S
C341 C344 1.499 . S
C342 H322 0.950 . S
C342 C341 1.414 . S
C342 C343 1.374 . S
C343 H323 0.950 . S
C343 C339 1.385 . S
C343 C342 1.374 . S
C344 C341 1.499 . S
C344 C345 1.373 . S
C344 C346 1.389 . S
C345 H324 0.950 . S
C345 C344 1.373 . S
C345 C361 1.377 . S
C346 C344 1.389 . S
C346 C347 1.524 . S
C346 C360 1.377 . S
C347 C346 1.524 . S
C347 C348 1.397 . S
C347 C352 1.363 . S
C348 H325 0.950 . S
C348 C347 1.397 . S
C348 C349 1.334 . S
C349 H326 0.950 . S
C349 C348 1.334 . S
C349 C350 1.287 . S
C350 C349 1.287 . S
C350 C351 1.524 . S
C350 H369 0.913 . S
C351 H327 0.950 . S
C351 C350 1.524 . S
C351 C352 1.415 . S
C352 H328 0.950 . S
C352 C347 1.363 . S
C352 C351 1.415 . S
C353 H329 0.951 . S
C353 C354 1.366 . S
C353 C355 1.388 . S
C354 C353 1.366 . S
C354 C358 1.385 . S
C355 H330 0.951 . S
C355 C353 1.388 . S
C355 C356 1.366 . S
C356 C355 1.366 . S
C356 C357 1.414 . S
C356 C359 1.499 . S
C357 H331 0.950 . S
C357 C356 1.414 . S
C357 C358 1.374 . S
C358 H332 0.950 . S
C358 C354 1.385 . S
C358 C357 1.374 . S
C359 C356 1.499 . S
C359 C360 1.373 . S
C359 C361 1.389 . S
C360 H333 0.950 . S
C360 C346 1.377 . S
C360 C359 1.373 . S
C361 C345 1.377 . S
C361 C359 1.389 . S
C361 C362 1.524 . S
C362 C361 1.524 . S
C362 C363 1.397 . S
C362 C367 1.363 . S
C363 H334 0.950 . S
C363 C362 1.397 . S
C363 C364 1.334 . S
C364 H335 0.950 1_554 S
C364 C363 1.334 . S
C364 C365 1.287 1_554 S
C365 C364 1.287 1_556 S
C365 C366 1.524 1_556 S
C365 H368 0.999 . S
C366 H336 0.950 . S
C366 C365 1.524 1_554 S
C366 C367 1.415 . S
C367 H337 0.950 . S
C367 C362 1.363 . S
C367 C366 1.415 . S
H368 C365 0.999 . S
H369 C350 0.913 . S
H370 C388 0.951 . S
H371 C390 0.951 . S
H372 C392 0.950 . S
H373 C393 0.950 . S
H374 C395 0.950 . S
H375 C398 0.950 . S
H376 C399 0.950 . S
H377 C401 0.950 . S
H378 C402 0.950 . S
H379 C403 0.951 . S
H380 C405 0.951 . S
H381 C407 0.950 . S
H382 C408 0.950 . S
H383 C410 0.950 . S
H384 C413 0.950 . S
H385 C414 0.950 . S
H386 C416 0.950 . S
H387 C417 0.950 . S
C388 H370 0.951 . S
C388 C389 1.366 . S
C388 C390 1.388 . S
C389 C388 1.366 . S
C389 C393 1.385 . S
C390 H371 0.951 . S
C390 C388 1.388 . S
C390 C391 1.366 . S
C391 C390 1.366 . S
C391 C392 1.414 . S
C391 C394 1.499 . S
C392 H372 0.950 . S
C392 C391 1.414 . S
C392 C393 1.374 . S
C393 H373 0.950 . S
C393 C389 1.385 . S
C393 C392 1.374 . S
C394 C391 1.499 . S
C394 C395 1.373 . S
C394 C396 1.389 . S
C395 H374 0.950 . S
C395 C394 1.373 . S
C395 C411 1.377 . S
C396 C394 1.389 . S
C396 C397 1.524 . S
C396 C410 1.377 . S
C397 C396 1.524 . S
C397 C398 1.397 . S
C397 C402 1.363 . S
C398 H375 0.950 . S
C398 C397 1.397 . S
C398 C399 1.334 . S
C399 H376 0.950 . S
C399 C398 1.334 . S
C399 C400 1.287 . S
C400 C399 1.287 . S
C400 C401 1.524 . S
C400 H419 0.913 . S
C401 H377 0.950 . S
C401 C400 1.524 . S
C401 C402 1.415 . S
C402 H378 0.950 . S
C402 C397 1.363 . S
C402 C401 1.415 . S
C403 H379 0.951 . S
C403 C404 1.366 . S
C403 C405 1.388 . S
C404 C403 1.366 . S
C404 C408 1.385 . S
C405 H380 0.951 . S
C405 C403 1.388 . S
C405 C406 1.366 . S
C406 C405 1.366 . S
C406 C407 1.414 . S
C406 C409 1.499 . S
C407 H381 0.950 . S
C407 C406 1.414 . S
C407 C408 1.374 . S
C408 H382 0.950 . S
C408 C404 1.385 . S
C408 C407 1.374 . S
C409 C406 1.499 . S
C409 C410 1.373 . S
C409 C411 1.389 . S
C410 H383 0.950 . S
C410 C396 1.377 . S
C410 C409 1.373 . S
C411 C395 1.377 . S
C411 C409 1.389 . S
C411 C412 1.524 . S
C412 C411 1.524 . S
C412 C413 1.397 . S
C412 C417 1.363 . S
C413 H384 0.950 . S
C413 C412 1.397 . S
C413 C414 1.334 . S
C414 H385 0.950 . S
C414 C413 1.334 . S
C414 C415 1.287 . S
C415 C414 1.287 . S
C415 C416 1.524 . S
C415 H418 0.999 . S
C416 H386 0.950 . S
C416 C415 1.524 . S
C416 C417 1.415 . S
C417 H387 0.950 . S
C417 C412 1.363 . S
C417 C416 1.415 . S
H418 C415 0.999 . S
H419 C400 0.913 . S
H420 C438 0.951 . S
H421 C440 0.951 . S
H422 C442 0.950 1_655 S
H423 C443 0.950 1_655 S
H424 C445 0.950 . S
H425 C448 0.950 . S
H426 C449 0.950 . S
H427 C451 0.950 . S
H428 C452 0.950 . S
H429 C453 0.951 1_655 S
H430 C455 0.951 1_655 S
H431 C457 0.950 . S
H432 C458 0.950 . S
H433 C460 0.950 . S
H434 C463 0.950 . S
H435 C464 0.950 . S
H436 C466 0.950 . S
H437 C467 0.950 . S
C438 H420 0.951 . S
C438 C439 1.366 . S
C438 C440 1.388 . S
C439 C438 1.366 . S
C439 C443 1.385 . S
C440 H421 0.951 . S
C440 C438 1.388 . S
C440 C441 1.366 . S
C441 C440 1.366 . S
C441 C442 1.414 . S
C441 C444 1.499 . S
C442 H422 0.950 1_455 S
C442 C441 1.414 . S
C442 C443 1.374 . S
C443 H423 0.950 1_455 S
C443 C439 1.385 . S
C443 C442 1.374 . S
C444 C441 1.499 . S
C444 C445 1.373 1_455 S
C444 C446 1.389 . S
C445 H424 0.950 . S
C445 C444 1.373 1_655 S
C445 C461 1.377 . S
C446 C444 1.389 . S
C446 C447 1.524 . S
C446 C460 1.377 . S
C447 C446 1.524 . S
C447 C448 1.397 . S
C447 C452 1.363 . S
C448 H425 0.950 . S
C448 C447 1.397 . S
C448 C449 1.334 . S
C449 H426 0.950 . S
C449 C448 1.334 . S
C449 C450 1.287 . S
C450 C449 1.287 . S
C450 C451 1.524 . S
C450 H469 0.913 . S
C451 H427 0.950 . S
C451 C450 1.524 . S
C451 C452 1.415 . S
C452 H428 0.950 . S
C452 C447 1.363 . S
C452 C451 1.415 . S
C453 H429 0.951 1_455 S
C453 C454 1.366 . S
C453 C455 1.388 . S
C454 C453 1.366 . S
C454 C458 1.385 . S
C455 H430 0.951 1_455 S
C455 C453 1.388 . S
C455 C456 1.366 . S
C456 C455 1.366 . S
C456 C457 1.414 . S
C456 C459 1.499 . S
C457 H431 0.950 . S
C457 C456 1.414 . S
C457 C458 1.374 . S
C458 H432 0.950 . S
C458 C454 1.385 . S
C458 C457 1.374 . S
C459 C456 1.499 . S
C459 C460 1.373 . S
C459 C461 1.389 1_455 S
C460 H433 0.950 . S
C460 C446 1.377 . S
C460 C459 1.373 . S
C461 C445 1.377 . S
C461 C459 1.389 1_655 S
C461 C462 1.524 . S
C462 C461 1.524 . S
C462 C463 1.397 . S
C462 C467 1.363 . S
C463 H434 0.950 . S
C463 C462 1.397 . S
C463 C464 1.334 . S
C464 H435 0.950 . S
C464 C463 1.334 . S
C464 C465 1.287 . S
C465 C464 1.287 . S
C465 C466 1.524 . S
C465 H468 0.999 . S
C466 H436 0.950 . S
C466 C465 1.524 . S
C466 C467 1.415 . S
C467 H437 0.950 . S
C467 C462 1.363 . S
C467 C466 1.415 . S
H468 C465 0.999 . S
H469 C450 0.913 . S
H470 C488 0.951 . S
H471 C490 0.951 . S
H472 C492 0.950 . S
H473 C493 0.950 . S
H474 C495 0.950 . S
H475 C498 0.950 . S
H476 C499 0.950 . S
H477 C501 0.950 . S
H478 C502 0.950 . S
H479 C503 0.951 . S
H480 C505 0.951 . S
H481 C507 0.950 . S
H482 C508 0.950 . S
H483 C510 0.950 . S
H484 C513 0.950 . S
H485 C514 0.950 . S
H486 C516 0.950 . S
H487 C517 0.950 1_554 S
C488 H470 0.951 . S
C488 C489 1.366 . S
C488 C490 1.388 . S
C489 C488 1.366 . S
C489 C493 1.385 . S
C490 H471 0.951 . S
C490 C488 1.388 . S
C490 C491 1.366 . S
C491 C490 1.366 . S
C491 C492 1.414 . S
C491 C494 1.499 . S
C492 H472 0.950 . S
C492 C491 1.414 . S
C492 C493 1.374 . S
C493 H473 0.950 . S
C493 C489 1.385 . S
C493 C492 1.374 . S
C494 C491 1.499 . S
C494 C495 1.373 . S
C494 C496 1.389 1_545 S
C495 H474 0.950 . S
C495 C494 1.373 . S
C495 C511 1.377 1_554 S
C496 C494 1.389 1_565 S
C496 C497 1.524 . S
C496 C510 1.377 1_554 S
C497 C496 1.524 . S
C497 C498 1.397 . S
C497 C502 1.363 . S
C498 H475 0.950 . S
C498 C497 1.397 . S
C498 C499 1.334 . S
C499 H476 0.950 . S
C499 C498 1.334 . S
C499 C500 1.287 . S
C500 C499 1.287 . S
C500 C501 1.524 . S
C500 H519 0.913 . S
C501 H477 0.950 . S
C501 C500 1.524 . S
C501 C502 1.415 . S
C502 H478 0.950 . S
C502 C497 1.363 . S
C502 C501 1.415 . S
C503 H479 0.951 . S
C503 C504 1.366 . S
C503 C505 1.388 . S
C504 C503 1.366 . S
C504 C508 1.385 . S
C505 H480 0.951 . S
C505 C503 1.388 . S
C505 C506 1.366 . S
C506 C505 1.366 . S
C506 C507 1.414 . S
C506 C509 1.499 . S
C507 H481 0.950 . S
C507 C506 1.414 . S
C507 C508 1.374 . S
C508 H482 0.950 . S
C508 C504 1.385 . S
C508 C507 1.374 . S
C509 C506 1.499 . S
C509 C510 1.373 1_545 S
C509 C511 1.389 . S
C510 H483 0.950 . S
C510 C496 1.377 1_556 S
C510 C509 1.373 1_565 S
C511 C495 1.377 1_556 S
C511 C509 1.389 . S
C511 C512 1.524 . S
C512 C511 1.524 . S
C512 C513 1.397 . S
C512 C517 1.363 . S
C513 H484 0.950 . S
C513 C512 1.397 . S
C513 C514 1.334 . S
C514 H485 0.950 . S
C514 C513 1.334 . S
C514 C515 1.287 . S
C515 C514 1.287 . S
C515 C516 1.524 . S
C515 H518 0.999 . S
C516 H486 0.950 . S
C516 C515 1.524 . S
C516 C517 1.415 . S
C517 H487 0.950 1_556 S
C517 C512 1.363 . S
C517 C516 1.415 . S
H518 C515 0.999 . S
H519 C500 0.913 . S
H520 C538 0.951 . S
H521 C540 0.951 . S
H522 C542 0.950 . S
H523 C543 0.950 . S
H524 C545 0.950 . S
H525 C548 0.950 . S
H526 C549 0.950 . S
H527 C551 0.950 . S
H528 C552 0.950 . S
H529 C553 0.951 . S
H530 C555 0.951 . S
H531 C557 0.950 . S
H532 C558 0.947 1_556 S
H533 C560 0.950 . S
H534 C563 0.950 . S
H535 C564 0.950 . S
H536 C566 0.950 . S
H537 C567 0.950 . S
C538 H520 0.951 . S
C538 C539 1.366 . S
C538 C540 1.388 . S
C539 C538 1.366 . S
C539 C543 1.385 . S
C540 H521 0.951 . S
C540 C538 1.388 . S
C540 C541 1.366 . S
C541 C540 1.366 . S
C541 C542 1.414 . S
C541 C544 1.499 . S
C542 H522 0.950 . S
C542 C541 1.414 . S
C542 C543 1.374 . S
C543 H523 0.950 . S
C543 C539 1.385 . S
C543 C542 1.374 . S
C544 C541 1.499 . S
C544 C545 1.373 . S
C544 C546 1.389 . S
C545 H524 0.950 . S
C545 C544 1.373 . S
C545 C561 1.377 . S
C546 C544 1.389 . S
C546 C547 1.524 . S
C546 C560 1.377 . S
C547 C546 1.524 . S
C547 C548 1.397 . S
C547 C552 1.363 . S
C548 H525 0.950 . S
C548 C547 1.397 . S
C548 C549 1.334 . S
C549 H526 0.950 . S
C549 C548 1.334 . S
C549 C550 1.287 . S
C550 C549 1.287 . S
C550 C551 1.524 . S
C550 H569 0.913 . S
C551 H527 0.950 . S
C551 C550 1.524 . S
C551 C552 1.415 . S
C552 H528 0.950 . S
C552 C547 1.363 . S
C552 C551 1.415 . S
C553 H529 0.951 . S
C553 C554 1.366 . S
C553 C555 1.388 . S
C554 C553 1.366 . S
C554 C558 1.385 . S
C555 H530 0.951 . S
C555 C553 1.388 . S
C555 C556 1.366 . S
C556 C555 1.366 . S
C556 C557 1.414 . S
C556 C559 1.499 . S
C557 H531 0.950 . S
C557 C556 1.414 . S
C557 C558 1.374 . S
C558 H532 0.947 1_554 S
C558 C554 1.385 . S
C558 C557 1.374 . S
C559 C556 1.499 . S
C559 C560 1.373 . S
C559 C561 1.389 . S
C560 H533 0.950 . S
C560 C546 1.377 . S
C560 C559 1.373 . S
C561 C545 1.377 . S
C561 C559 1.389 . S
C561 C562 1.524 . S
C562 C561 1.524 . S
C562 C563 1.397 . S
C562 C567 1.363 . S
C563 H534 0.950 . S
C563 C562 1.397 . S
C563 C564 1.334 . S
C564 H535 0.950 . S
C564 C563 1.334 . S
C564 C565 1.287 . S
C565 C564 1.287 . S
C565 C566 1.524 . S
C565 H568 0.999 . S
C566 H536 0.950 . S
C566 C565 1.524 . S
C566 C567 1.415 . S
C567 H537 0.950 . S
C567 C562 1.363 . S
C567 C566 1.415 . S
H568 C565 0.999 . S
H569 C550 0.913 . S
C139 C24 3.038 . S
C154 C104 3.024 . S
C189 C66 1.482 . S
C204 C26 1.499 . S
C239 C64 2.379 . S
C254 C97 2.349 . S
C289 C93 2.503 . S
C304 C13 2.508 . S
C339 C57 1.289 . S
C354 C17 1.300 . S
C389 C106 1.936 . S
C404 C53 1.898 . S
C439 C2 0.349 . S
C454 C23 0.349 . S
C489 C63 0.362 . S
C504 C42 0.362 . S
C539 C103 0.405 . S
C554 C82 0.405 1_554 S
