# Generated by pormake.
# Topology zfu, (5)-cn, num edge types: 1
# Building blocks:
#     Node 0, Type 0, BuildingBlock: BEQFEK_clean_sbu_0, # of connection points: 5
#     Node 1, Type 0, BuildingBlock: BEQFEK_clean_sbu_0, # of connection points: 5
#     Node 2, Type 0, BuildingBlock: BEQFEK_clean_sbu_0, # of connection points: 5
#     Node 3, Type 0, BuildingBlock: BEQFEK_clean_sbu_0, # of connection points: 5
#     Node 4, Type 0, BuildingBlock: BEQFEK_clean_sbu_0, # of connection points: 5
#     Node 5, Type 0, BuildingBlock: BEQFEK_clean_sbu_0, # of connection points: 5
#     Node 6, Type 0, BuildingBlock: BEQFEK_clean_sbu_0, # of connection points: 5
#     Node 7, Type 0, BuildingBlock: BEQFEK_clean_sbu_0, # of connection points: 5
#     Edge 8, Type (0, 0), None
#     Edge 9, Type (0, 0), None
#     Edge 10, Type (0, 0), None
#     Edge 11, Type (0, 0), None
#     Edge 12, Type (0, 0), None
#     Edge 13, Type (0, 0), None
#     Edge 14, Type (0, 0), None
#     Edge 15, Type (0, 0), None
#     Edge 16, Type (0, 0), None
#     Edge 17, Type (0, 0), None
#     Edge 18, Type (0, 0), None
#     Edge 19, Type (0, 0), None
#     Edge 20, Type (0, 0), None
#     Edge 21, Type (0, 0), None
#     Edge 22, Type (0, 0), None
#     Edge 23, Type (0, 0), None
#     Edge 24, Type (0, 0), None
#     Edge 25, Type (0, 0), None
#     Edge 26, Type (0, 0), None
#     Edge 27, Type (0, 0), None
# Relax obj value: 0.077
# Max RMSD: 0.109
# Mean RMSD: 0.109
data_MOF--net-zfu--node1-BEQFEK_clean_sbu_0--edge1-none
_symmetry_space_group_name_H-M    P1
_symmetry_Int_Tables_number       1
_symmetry_cell_setting            triclinic
loop_
_symmetry_equiv_pos_as_xyz
'x, y, z'
_cell_length_a     21.746723
_cell_length_b     21.74584
_cell_length_c     12.996226
_cell_angle_alpha  89.999031
_cell_angle_beta   90.003766
_cell_angle_gamma 89.999749
loop_
_atom_site_label
_atom_site_type_symbol
_atom_site_fract_x
_atom_site_fract_y
_atom_site_fract_z
_atom_type_partial_charge
Co0 Co 0.45474 0.66753 0.11664 0.0
Co1 Co 0.39061 0.79658 0.11148 0.0
C2 C 0.51575 0.78408 0.19598 0.0
O3 O 0.50892 0.72729 0.17932 0.0
O4 O 0.47519 0.82257 0.16623 0.0
C5 C 0.55982 0.60695 0.0617 0.0
O6 O 0.57475 0.66453 0.04482 0.0
C7 C 0.35496 0.91894 0.02348 0.0
C8 C 0.25663 0.91863 0.06487 0.0
C9 C 0.30047 0.95145 1.0101 0.0
N10 N 0.34291 0.8686 0.08151 0.0
N11 N 0.28423 0.86965 0.10716 0.0
C12 C 0.41576 0.9325 0.97496 0.0
H13 H 0.44721 0.89255 0.98263 0.0
H14 H 0.40943 0.94437 0.89255 0.0
H15 H 0.43656 0.97297 0.01363 0.0
C16 C 0.39732 0.6533 0.92265 0.0
N17 N 0.41589 0.69085 0.99799 0.0
N18 N 0.39034 0.74518 0.98808 0.0
C19 C 0.35714 0.74466 0.89936 0.0
C20 C 0.36017 0.68584 0.85559 0.0
C21 C 0.40641 0.58497 0.92642 0.0
H22 H 0.39997 0.56843 1.00647 0.0
H23 H 0.4542 0.57385 0.90313 0.0
H24 H 0.37368 0.5603 0.87562 0.0
O25 O 0.39263 0.65527 0.21533 0.0
O26 O 0.34851 0.74776 0.2304 0.0
H27 H 0.2837 0.80991 0.90503 0.0
H28 H 0.30939 0.79134 0.77607 0.0
C29 C 0.3243 0.79932 0.85653 0.0
H30 H 0.35543 0.83953 0.85765 0.0
H31 H 0.2624 0.83529 0.14966 0.0
O32 O 0.50609 0.59385 0.09301 0.0
C33 C 0.35463 0.69141 0.25851 0.0
Co34 Co 0.85351 0.95477 0.3666 0.0
Co35 Co 0.72446 0.89063 0.36145 0.0
C36 C 0.73696 0.01577 0.44596 0.0
O37 O 0.79374 1.00894 0.42929 0.0
O38 O 0.69846 0.97521 0.41621 0.0
C39 C 0.91412 0.05989 0.3118 0.0
O40 O 0.85654 0.07488 0.29501 0.0
C41 C 0.60212 0.85496 0.27344 0.0
C42 C 0.6025 0.7566 0.31471 0.0
C43 C 0.56968 0.80043 0.25994 0.0
N44 N 0.65247 0.84291 0.33147 0.0
N45 N 0.65146 0.78422 0.35705 0.0
C46 C 0.58851 0.91578 0.22501 0.0
H47 H 0.62844 0.94725 0.23272 0.0
H48 H 0.57665 0.90948 0.14258 0.0
H49 H 0.54803 0.93652 0.2637 0.0
C50 C 0.86774 0.89735 0.17263 0.0
N51 N 0.83019 0.91593 0.24796 0.0
N52 N 0.77586 0.89037 0.23805 0.0
C53 C 0.77638 0.85718 0.14933 0.0
C54 C 0.8352 0.86021 0.10557 0.0
C55 C 0.93606 0.90645 0.1764 0.0
H56 H 0.9526 0.9 0.25645 0.0
H57 H 0.94718 0.95425 0.15311 0.0
H58 H 0.96073 0.87372 0.1256 0.0
O59 O 0.86578 0.89266 0.46529 0.0
O60 O 0.77329 0.84853 0.48037 0.0
H61 H 0.71114 0.78373 0.15497 0.0
H62 H 0.7297 0.80944 0.02603 0.0
C63 C 0.72172 0.82435 0.10649 0.0
H64 H 0.68151 0.85548 0.10763 0.0
H65 H 0.68583 0.76239 0.39954 0.0
O66 O 0.92719 1.00613 0.34299 0.0
C67 C 0.82965 0.85466 0.50848 0.0
Co68 Co 0.56628 0.35354 0.6166 0.0
Co69 Co 0.63042 0.22448 0.61145 0.0
C70 C 0.50529 0.23698 0.69596 0.0
O71 O 0.51212 0.29377 0.67928 0.0
O72 O 0.54584 0.19848 0.66621 0.0
C73 C 0.46118 0.41412 0.56172 0.0
O74 O 0.44623 0.35654 0.54487 0.0
C75 C 0.66608 0.10214 0.52343 0.0
C76 C 0.76444 0.10251 0.56472 0.0
C77 C 0.7206 0.06969 0.50994 0.0
N78 N 0.67813 0.15248 0.58148 0.0
N79 N 0.73682 0.15146 0.60706 0.0
C80 C 0.60527 0.08853 0.475 0.0
H81 H 0.57379 0.12847 0.48272 0.0
H82 H 0.61156 0.07667 0.39258 0.0
H83 H 0.58452 0.04805 0.51369 0.0
C84 C 0.6237 0.36777 0.42262 0.0
N85 N 0.60512 0.33021 0.49795 0.0
N86 N 0.63068 0.27588 0.48805 0.0
C87 C 0.66387 0.2764 0.39933 0.0
C88 C 0.66084 0.33523 0.35557 0.0
C89 C 0.6146 0.43609 0.42639 0.0
H90 H 0.62105 0.45263 0.50644 0.0
H91 H 0.56681 0.44722 0.40309 0.0
H92 H 0.64734 0.46076 0.37559 0.0
O93 O 0.6284 0.36581 0.71529 0.0
O94 O 0.67251 0.27331 0.73038 0.0
H95 H 0.73731 0.21115 0.40497 0.0
H96 H 0.71159 0.22972 0.27603 0.0
C97 C 0.69669 0.22174 0.35649 0.0
H98 H 0.66556 0.18153 0.35763 0.0
H99 H 0.75865 0.18583 0.64955 0.0
O100 O 0.51492 0.42721 0.59297 0.0
C101 C 0.66639 0.32967 0.75849 0.0
Co102 Co 0.16754 0.06629 0.8666 0.0
Co103 Co 0.29658 0.13045 0.86146 0.0
C104 C 0.2841 1.00532 0.94602 0.0
O105 O 0.22732 0.01214 0.92934 0.0
O106 O 0.32259 0.04588 0.91626 0.0
C107 C 0.10692 0.96115 0.8119 0.0
O108 O 0.16449 0.94613 0.79518 0.0
C109 C 0.41891 0.16611 0.77344 0.0
C110 C 0.41855 0.26448 0.81469 0.0
C111 C 0.45136 0.22063 0.75993 0.0
N112 N 0.36857 0.17817 0.83147 0.0
N113 N 0.36959 0.23686 0.85704 0.0
C114 C 0.43252 0.10529 0.72503 0.0
H115 H 0.39258 0.07382 0.73274 0.0
H116 H 0.44438 0.11158 0.6426 0.0
H117 H 0.473 0.08454 0.76373 0.0
C118 C 0.15331 0.1237 0.67261 0.0
N119 N 0.19086 0.10513 0.74795 0.0
N120 N 0.24518 0.13069 0.73805 0.0
C121 C 0.24466 0.16388 0.64932 0.0
C122 C 0.18584 0.16085 0.60555 0.0
C123 C 0.08498 0.11459 0.67637 0.0
H124 H 0.06844 0.12104 0.75642 0.0
H125 H 0.07387 0.06679 0.65309 0.0
H126 H 0.06031 0.14731 0.62556 0.0
O127 O 0.15526 0.12841 0.96527 0.0
O128 O 0.24775 0.17256 0.98036 0.0
H129 H 0.30989 0.23734 0.65497 0.0
H130 H 0.29133 0.21162 0.52602 0.0
C131 C 0.29931 0.19672 0.60649 0.0
H132 H 0.33952 0.16559 0.60764 0.0
H133 H 0.33523 0.25869 0.89952 0.0
O134 O 0.09386 0.01493 0.843 0.0
C135 C 0.19139 0.16642 1.00846 0.0
Co136 Co 0.95474 0.85352 0.74654 0.0
Co137 Co 0.8906 0.72447 0.75162 0.0
C138 C 0.01571 0.73699 0.66706 0.0
O139 O 1.00888 0.79377 0.68376 0.0
O140 O 0.97517 0.69849 0.69682 0.0
C141 C 0.05987 0.91412 0.80129 0.0
O142 O 0.07487 0.85654 0.81802 0.0
C143 C 0.85495 0.6021 0.83957 0.0
C144 C 0.75661 0.60242 0.79816 0.0
C145 C 0.80045 0.5696 0.85293 0.0
N146 N 0.84289 0.65245 0.78154 0.0
N147 N 0.78422 0.65141 0.75589 0.0
C148 C 0.91575 0.58853 0.88809 0.0
H149 H 0.9472 0.62849 0.88043 0.0
H150 H 0.90942 0.57665 0.97049 0.0
H151 H 0.93654 0.54806 0.84941 0.0
C152 C 0.89741 0.86769 0.9406 0.0
N153 N 0.91594 0.83016 0.8652 0.0
N154 N 0.89036 0.77584 0.87507 0.0
C155 C 0.85719 0.77634 0.96381 0.0
C156 C 0.86029 0.83513 1.00766 0.0
C157 C 0.90652 0.93601 0.93689 0.0
H158 H 0.90005 0.95258 0.85685 0.0
H159 H 0.95432 0.94712 0.96017 0.0
H160 H 0.8738 0.96067 0.98772 0.0
O161 O 0.89258 0.86584 0.64794 0.0
O162 O 0.84849 0.77333 0.63275 0.0
H163 H 0.78372 0.71113 0.95802 0.0
H164 H 0.80938 0.72966 0.08702 0.0
C165 C 0.82431 0.72168 1.00657 0.0
H166 H 0.85543 0.68146 1.00545 0.0
H167 H 0.76238 0.68577 0.7134 0.0
O168 O 1.0061 0.92719 0.77017 0.0
C169 C 0.85459 0.82971 0.60473 0.0
Co170 Co 0.66754 0.45478 0.99652 0.0
Co171 Co 0.79658 0.3906 1.00162 0.0
C172 C 0.78408 0.51572 0.91701 0.0
O173 O 0.7273 0.50891 0.93371 0.0
O174 O 0.82257 0.47517 0.94678 0.0
C175 C 0.6069 0.55994 0.05109 0.0
O176 O 0.66447 0.57502 0.06768 0.0
C177 C 0.91894 0.35495 0.08957 0.0
C178 C 0.91862 0.25661 0.04818 0.0
C179 C 0.95145 0.30045 0.10293 0.0
N180 N 0.86859 0.34289 0.03156 0.0
N181 N 0.86963 0.28422 1.00591 0.0
C182 C 0.93251 0.41576 0.13807 0.0
H183 H 0.89256 0.44721 0.13041 0.0
H184 H 0.94439 0.40943 0.22048 0.0
H185 H 0.97298 0.43655 0.09939 0.0
C186 C 0.65337 0.39745 0.1906 0.0
N187 N 0.6909 0.41598 0.11519 0.0
N188 N 0.74522 0.39039 0.12506 0.0
C189 C 0.74471 0.35722 0.21381 0.0
C190 C 0.68592 0.36032 0.25766 0.0
C191 C 0.58505 0.40657 0.18687 0.0
H192 H 0.56848 0.4001 0.10684 0.0
H193 H 0.57394 0.45437 0.21013 0.0
H194 H 0.56038 0.37386 0.23771 0.0
O195 O 0.65523 0.39261 0.89793 0.0
O196 O 0.74772 0.34849 0.88276 0.0
H197 H 0.8099 0.28372 0.20803 0.0
H198 H 0.79139 0.30939 0.33702 0.0
C199 C 0.79936 0.32433 0.25657 0.0
H200 H 0.83958 0.35543 0.25545 0.0
H201 H 0.83526 0.26238 0.96343 0.0
O202 O 0.59386 0.50613 0.02012 0.0
C203 C 0.69134 0.3546 0.85473 0.0
Co204 Co 0.06629 0.16755 0.2465 0.0
Co205 Co 0.13045 0.2966 0.2516 0.0
C206 C 1.00533 0.28409 0.167 0.0
O207 O 0.01214 0.22731 0.1837 0.0
O208 O 0.04588 0.32259 0.19677 0.0
C209 C 0.96115 0.10694 0.30119 0.0
O210 O 0.94613 0.16451 0.31788 0.0
C211 C 0.16608 0.41896 0.33956 0.0
C212 C 0.26442 0.41866 0.29817 0.0
C213 C 0.22058 0.45148 0.35292 0.0
N214 N 0.17815 0.36862 0.28154 0.0
N215 N 0.23682 0.36967 0.25589 0.0
C216 C 0.10528 0.43253 0.38805 0.0
H217 H 0.07383 0.39257 0.3804 0.0
H218 H 0.1116 0.44441 0.47046 0.0
H219 H 0.08448 0.47299 0.34937 0.0
C220 C 0.12362 0.15338 0.44058 0.0
N221 N 0.10509 0.19091 0.36517 0.0
N222 N 0.13067 0.24523 0.37504 0.0
C223 C 0.16384 0.24472 0.46379 0.0
C224 C 0.16074 0.18593 0.50765 0.0
C225 C 0.11451 0.08505 0.43685 0.0
H226 H 0.12097 0.06849 0.35682 0.0
H227 H 0.06671 0.07394 0.46013 0.0
H228 H 0.14723 0.06039 0.48769 0.0
O229 O 0.12844 0.15525 0.1479 0.0
O230 O 0.17256 0.24775 0.13274 0.0
H231 H 0.23732 0.30993 0.45803 0.0
H232 H 0.21165 0.2914 0.58702 0.0
C233 C 0.19672 0.29938 0.50656 0.0
H234 H 0.1656 0.3396 0.50543 0.0
H235 H 0.25866 0.33531 0.21341 0.0
O236 O 0.01493 0.09387 0.27011 0.0
C237 C 0.16645 0.19137 0.10471 0.0
Co238 Co 0.35347 0.5663 0.49655 0.0
Co239 Co 0.22443 0.63047 0.50162 0.0
C240 C 0.23693 0.50536 0.41701 0.0
O241 O 0.29371 0.51217 0.43372 0.0
O242 O 0.19844 0.5459 0.44678 0.0
C243 C 0.41411 0.46113 0.55111 0.0
O244 O 0.35654 0.44606 0.56771 0.0
C245 C 0.10209 0.66612 0.58959 0.0
C246 C 0.10244 0.76448 0.54831 0.0
C247 C 0.06963 0.72064 0.60308 0.0
N248 N 0.15243 0.67818 0.53157 0.0
N249 N 0.15141 0.73687 0.50598 0.0
C250 C 0.08849 0.6053 0.63801 0.0
H251 H 0.12843 0.57383 0.63032 0.0
H252 H 0.07661 0.61159 0.72043 0.0
H253 H 0.04802 0.58454 0.5993 0.0
C254 C 0.36765 0.62362 0.69062 0.0
N255 N 0.33012 0.60509 0.61521 0.0
N256 N 0.2758 0.63068 0.62508 0.0
C257 C 0.2763 0.66385 0.71382 0.0
C258 C 0.33509 0.66075 0.75768 0.0
C259 C 0.43597 0.61451 0.68691 0.0
H260 H 0.45253 0.62098 0.60688 0.0
H261 H 0.44707 0.56671 0.71017 0.0
H262 H 0.46063 0.64722 0.73775 0.0
O263 O 0.36579 0.62846 0.39796 0.0
O264 O 0.2733 0.67258 0.38277 0.0
H265 H 0.21109 0.73733 0.70807 0.0
H266 H 0.22962 0.71164 0.83705 0.0
C267 C 0.22165 0.69672 0.7566 0.0
H268 H 0.18143 0.6656 0.75546 0.0
H269 H 0.18577 0.75871 0.46351 0.0
O270 O 0.42715 0.51494 0.52015 0.0
C271 C 0.32967 0.66647 0.35476 0.0
loop_
_geom_bond_atom_site_label_1
_geom_bond_atom_site_label_2
_geom_bond_distance
_geom_bond_site_symmetry_2
_ccdc_geom_bond_type
Co0 O3 1.970 . S
Co0 N17 1.989 1_554 S
Co0 O25 1.967 . S
Co0 O32 1.920 . S
Co1 O4 1.966 . S
Co1 N10 2.022 . S
Co1 N18 1.993 1_554 S
Co1 O26 1.941 . S
C2 O3 1.258 . S
C2 O4 1.263 . S
O3 Co0 1.970 . S
O3 C2 1.258 . S
O4 Co1 1.966 . S
O4 C2 1.263 . S
C5 O6 1.235 . S
C5 O32 1.289 . S
O6 C5 1.235 . S
C7 C9 1.400 . S
C7 N10 1.351 . S
C7 C12 1.501 . S
C8 C9 1.387 . S
C8 N11 1.341 . S
C9 C7 1.400 . S
C9 C8 1.387 . S
N10 Co1 2.022 . S
N10 C7 1.351 . S
N10 N11 1.365 . S
N11 C8 1.341 . S
N11 N10 1.365 . S
N11 H31 0.862 . S
C12 C7 1.501 . S
C12 H13 0.961 . S
C12 H14 0.961 1_554 S
C12 H15 0.960 . S
H13 C12 0.961 . S
H14 C12 0.961 1_556 S
H15 C12 0.960 . S
C16 N17 1.342 . S
C16 C20 1.401 . S
C16 C21 1.499 . S
N17 Co0 1.989 1_556 S
N17 C16 1.342 . S
N17 N18 1.388 . S
N18 Co1 1.993 1_556 S
N18 N17 1.388 . S
N18 C19 1.346 . S
C19 N18 1.346 . S
C19 C20 1.396 . S
C19 C29 1.510 . S
C20 C16 1.401 . S
C20 C19 1.396 . S
C21 C16 1.499 . S
C21 H22 0.959 . S
C21 H23 0.960 . S
C21 H24 0.961 . S
H22 C21 0.959 . S
H23 C21 0.960 . S
H24 C21 0.961 . S
O25 Co0 1.967 . S
O25 C33 1.258 . S
O26 Co1 1.941 . S
O26 C33 1.266 . S
H27 C29 0.959 . S
H28 C29 0.961 . S
C29 C19 1.510 . S
C29 H27 0.959 . S
C29 H28 0.961 . S
C29 H30 0.960 . S
H30 C29 0.960 . S
H31 N11 0.862 . S
O32 Co0 1.920 . S
O32 C5 1.289 . S
C33 O25 1.258 . S
C33 O26 1.266 . S
Co34 O37 1.970 1_565 S
Co34 N51 1.989 . S
Co34 O59 1.967 . S
Co34 O66 1.920 . S
Co35 O38 1.966 . S
Co35 N44 2.022 . S
Co35 N52 1.993 . S
Co35 O60 1.941 . S
C36 O37 1.258 1_565 S
C36 O38 1.263 . S
O37 Co34 1.970 1_545 S
O37 C36 1.258 1_545 S
O38 Co35 1.966 . S
O38 C36 1.263 . S
C39 O40 1.235 . S
C39 O66 1.289 1_545 S
O40 C39 1.235 . S
C41 C43 1.400 . S
C41 N44 1.351 . S
C41 C46 1.501 . S
C42 C43 1.387 . S
C42 N45 1.341 . S
C43 C41 1.400 . S
C43 C42 1.387 . S
N44 Co35 2.022 . S
N44 C41 1.351 . S
N44 N45 1.365 . S
N45 C42 1.341 . S
N45 N44 1.365 . S
N45 H65 0.862 . S
C46 C41 1.501 . S
C46 H47 0.961 . S
C46 H48 0.961 . S
C46 H49 0.960 . S
H47 C46 0.961 . S
H48 C46 0.961 . S
H49 C46 0.960 . S
C50 N51 1.342 . S
C50 C54 1.401 . S
C50 C55 1.499 . S
N51 Co34 1.989 . S
N51 C50 1.342 . S
N51 N52 1.388 . S
N52 Co35 1.993 . S
N52 N51 1.388 . S
N52 C53 1.346 . S
C53 N52 1.346 . S
C53 C54 1.396 . S
C53 C63 1.510 . S
C54 C50 1.401 . S
C54 C53 1.396 . S
C55 C50 1.499 . S
C55 H56 0.959 . S
C55 H57 0.960 . S
C55 H58 0.961 . S
H56 C55 0.959 . S
H57 C55 0.960 . S
H58 C55 0.961 . S
O59 Co34 1.967 . S
O59 C67 1.258 . S
O60 Co35 1.941 . S
O60 C67 1.266 . S
H61 C63 0.959 . S
H62 C63 0.961 . S
C63 C53 1.510 . S
C63 H61 0.959 . S
C63 H62 0.961 . S
C63 H64 0.960 . S
H64 C63 0.960 . S
H65 N45 0.862 . S
O66 Co34 1.920 . S
O66 C39 1.289 1_565 S
C67 O59 1.258 . S
C67 O60 1.266 . S
Co68 O71 1.970 . S
Co68 N85 1.989 . S
Co68 O93 1.967 . S
Co68 O100 1.920 . S
Co69 O72 1.966 . S
Co69 N78 2.022 . S
Co69 N86 1.993 . S
Co69 O94 1.941 . S
C70 O71 1.258 . S
C70 O72 1.263 . S
O71 Co68 1.970 . S
O71 C70 1.258 . S
O72 Co69 1.966 . S
O72 C70 1.263 . S
C73 O74 1.235 . S
C73 O100 1.289 . S
O74 C73 1.235 . S
C75 C77 1.400 . S
C75 N78 1.351 . S
C75 C80 1.501 . S
C76 C77 1.387 . S
C76 N79 1.341 . S
C77 C75 1.400 . S
C77 C76 1.387 . S
N78 Co69 2.022 . S
N78 C75 1.351 . S
N78 N79 1.365 . S
N79 C76 1.341 . S
N79 N78 1.365 . S
N79 H99 0.862 . S
C80 C75 1.501 . S
C80 H81 0.961 . S
C80 H82 0.961 . S
C80 H83 0.960 . S
H81 C80 0.961 . S
H82 C80 0.961 . S
H83 C80 0.960 . S
C84 N85 1.342 . S
C84 C88 1.401 . S
C84 C89 1.499 . S
N85 Co68 1.989 . S
N85 C84 1.342 . S
N85 N86 1.388 . S
N86 Co69 1.993 . S
N86 N85 1.388 . S
N86 C87 1.346 . S
C87 N86 1.346 . S
C87 C88 1.396 . S
C87 C97 1.510 . S
C88 C84 1.401 . S
C88 C87 1.396 . S
C89 C84 1.499 . S
C89 H90 0.959 . S
C89 H91 0.960 . S
C89 H92 0.961 . S
H90 C89 0.959 . S
H91 C89 0.960 . S
H92 C89 0.961 . S
O93 Co68 1.967 . S
O93 C101 1.258 . S
O94 Co69 1.941 . S
O94 C101 1.266 . S
H95 C97 0.959 . S
H96 C97 0.961 . S
C97 C87 1.510 . S
C97 H95 0.959 . S
C97 H96 0.961 . S
C97 H98 0.960 . S
H98 C97 0.960 . S
H99 N79 0.862 . S
O100 Co68 1.920 . S
O100 C73 1.289 . S
C101 O93 1.258 . S
C101 O94 1.266 . S
Co102 O105 1.970 1_545 S
Co102 N119 1.989 . S
Co102 O127 1.967 . S
Co102 O134 1.920 . S
Co103 O106 1.966 . S
Co103 N112 2.022 . S
Co103 N120 1.993 . S
Co103 O128 1.941 . S
C104 O105 1.258 1_545 S
C104 O106 1.263 . S
O105 Co102 1.970 1_565 S
O105 C104 1.258 1_565 S
O106 Co103 1.966 . S
O106 C104 1.263 . S
C107 O108 1.235 . S
C107 O134 1.289 1_565 S
O108 C107 1.235 . S
C109 C111 1.400 . S
C109 N112 1.351 . S
C109 C114 1.501 . S
C110 C111 1.387 . S
C110 N113 1.341 . S
C111 C109 1.400 . S
C111 C110 1.387 . S
N112 Co103 2.022 . S
N112 C109 1.351 . S
N112 N113 1.365 . S
N113 C110 1.341 . S
N113 N112 1.365 . S
N113 H133 0.862 . S
C114 C109 1.501 . S
C114 H115 0.961 . S
C114 H116 0.961 . S
C114 H117 0.960 . S
H115 C114 0.961 . S
H116 C114 0.961 . S
H117 C114 0.960 . S
C118 N119 1.342 . S
C118 C122 1.401 . S
C118 C123 1.499 . S
N119 Co102 1.989 . S
N119 C118 1.342 . S
N119 N120 1.388 . S
N120 Co103 1.993 . S
N120 N119 1.388 . S
N120 C121 1.346 . S
C121 N120 1.346 . S
C121 C122 1.396 . S
C121 C131 1.510 . S
C122 C118 1.401 . S
C122 C121 1.396 . S
C123 C118 1.499 . S
C123 H124 0.959 . S
C123 H125 0.960 . S
C123 H126 0.961 . S
H124 C123 0.959 . S
H125 C123 0.960 . S
H126 C123 0.961 . S
O127 Co102 1.967 . S
O127 C135 1.258 1_556 S
O128 Co103 1.941 . S
O128 C135 1.266 1_556 S
H129 C131 0.959 . S
H130 C131 0.961 . S
C131 C121 1.510 . S
C131 H129 0.959 . S
C131 H130 0.961 . S
C131 H132 0.960 . S
H132 C131 0.960 . S
H133 N113 0.862 . S
O134 Co102 1.920 . S
O134 C107 1.289 1_545 S
C135 O127 1.258 1_554 S
C135 O128 1.266 1_554 S
Co136 O139 1.970 1_655 S
Co136 N153 1.989 . S
Co136 O161 1.967 . S
Co136 O168 1.920 . S
Co137 O140 1.966 . S
Co137 N146 2.022 . S
Co137 N154 1.993 . S
Co137 O162 1.941 . S
C138 O139 1.258 1_655 S
C138 O140 1.263 . S
O139 Co136 1.970 1_455 S
O139 C138 1.258 1_455 S
O140 Co137 1.966 . S
O140 C138 1.263 . S
C141 O142 1.235 . S
C141 O168 1.289 1_455 S
O142 C141 1.235 . S
C143 C145 1.400 . S
C143 N146 1.351 . S
C143 C148 1.501 . S
C144 C145 1.387 . S
C144 N147 1.341 . S
C145 C143 1.400 . S
C145 C144 1.387 . S
N146 Co137 2.022 . S
N146 C143 1.351 . S
N146 N147 1.365 . S
N147 C144 1.341 . S
N147 N146 1.365 . S
N147 H167 0.862 . S
C148 C143 1.501 . S
C148 H149 0.961 . S
C148 H150 0.961 . S
C148 H151 0.960 . S
H149 C148 0.961 . S
H150 C148 0.961 . S
H151 C148 0.960 . S
C152 N153 1.342 . S
C152 C156 1.401 . S
C152 C157 1.499 . S
N153 Co136 1.989 . S
N153 C152 1.342 . S
N153 N154 1.388 . S
N154 Co137 1.993 . S
N154 N153 1.388 . S
N154 C155 1.346 . S
C155 N154 1.346 . S
C155 C156 1.396 . S
C155 C165 1.510 . S
C156 C152 1.401 . S
C156 C155 1.396 . S
C157 C152 1.499 . S
C157 H158 0.959 . S
C157 H159 0.960 1_556 S
C157 H160 0.961 . S
H158 C157 0.959 . S
H159 C157 0.960 1_554 S
H160 C157 0.961 . S
O161 Co136 1.967 . S
O161 C169 1.258 . S
O162 Co137 1.941 . S
O162 C169 1.266 . S
H163 C165 0.959 . S
H164 C165 0.961 1_554 S
C165 C155 1.510 . S
C165 H163 0.959 . S
C165 H164 0.961 1_556 S
C165 H166 0.960 . S
H166 C165 0.960 . S
H167 N147 0.862 . S
O168 Co136 1.920 . S
O168 C141 1.289 1_655 S
C169 O161 1.258 . S
C169 O162 1.266 . S
Co170 O173 1.970 . S
Co170 N187 1.989 1_556 S
Co170 O195 1.967 . S
Co170 O202 1.920 . S
Co171 O174 1.966 . S
Co171 N180 2.022 1_556 S
Co171 N188 1.993 1_556 S
Co171 O196 1.941 . S
C172 O173 1.258 . S
C172 O174 1.263 . S
O173 Co170 1.970 . S
O173 C172 1.258 . S
O174 Co171 1.966 . S
O174 C172 1.263 . S
C175 O176 1.235 . S
C175 O202 1.289 1_554 S
O176 C175 1.235 . S
C177 C179 1.400 . S
C177 N180 1.351 . S
C177 C182 1.501 . S
C178 C179 1.387 . S
C178 N181 1.341 . S
C179 C177 1.400 . S
C179 C178 1.387 . S
N180 Co171 2.022 1_554 S
N180 C177 1.351 . S
N180 N181 1.365 . S
N181 C178 1.341 . S
N181 N180 1.365 . S
N181 H201 0.862 . S
C182 C177 1.501 . S
C182 H183 0.961 . S
C182 H184 0.961 . S
C182 H185 0.960 1_554 S
H183 C182 0.961 . S
H184 C182 0.961 . S
H185 C182 0.960 1_556 S
C186 N187 1.342 . S
C186 C190 1.401 . S
C186 C191 1.499 . S
N187 Co170 1.989 1_554 S
N187 C186 1.342 . S
N187 N188 1.388 . S
N188 Co171 1.993 1_554 S
N188 N187 1.388 . S
N188 C189 1.346 . S
C189 N188 1.346 . S
C189 C190 1.396 . S
C189 C199 1.510 . S
C190 C186 1.401 . S
C190 C189 1.396 . S
C191 C186 1.499 . S
C191 H192 0.959 . S
C191 H193 0.960 . S
C191 H194 0.961 . S
H192 C191 0.959 . S
H193 C191 0.960 . S
H194 C191 0.961 . S
O195 Co170 1.967 . S
O195 C203 1.258 . S
O196 Co171 1.941 . S
O196 C203 1.266 . S
H197 C199 0.959 . S
H198 C199 0.961 . S
C199 C189 1.510 . S
C199 H197 0.959 . S
C199 H198 0.961 . S
C199 H200 0.960 . S
H200 C199 0.960 . S
H201 N181 0.862 . S
O202 Co170 1.920 . S
O202 C175 1.289 1_556 S
C203 O195 1.258 . S
C203 O196 1.266 . S
Co204 O207 1.970 1_455 S
Co204 N221 1.989 . S
Co204 O229 1.967 . S
Co204 O236 1.920 . S
Co205 O208 1.966 . S
Co205 N214 2.022 . S
Co205 N222 1.993 . S
Co205 O230 1.941 . S
C206 O207 1.258 1_455 S
C206 O208 1.263 . S
O207 Co204 1.970 1_655 S
O207 C206 1.258 1_655 S
O208 Co205 1.966 . S
O208 C206 1.263 . S
C209 O210 1.235 . S
C209 O236 1.289 1_655 S
O210 C209 1.235 . S
C211 C213 1.400 . S
C211 N214 1.351 . S
C211 C216 1.501 . S
C212 C213 1.387 . S
C212 N215 1.341 . S
C213 C211 1.400 . S
C213 C212 1.387 . S
N214 Co205 2.022 . S
N214 C211 1.351 . S
N214 N215 1.365 . S
N215 C212 1.341 . S
N215 N214 1.365 . S
N215 H235 0.862 . S
C216 C211 1.501 . S
C216 H217 0.961 . S
C216 H218 0.961 . S
C216 H219 0.960 . S
H217 C216 0.961 . S
H218 C216 0.961 . S
H219 C216 0.960 . S
C220 N221 1.342 . S
C220 C224 1.401 . S
C220 C225 1.499 . S
N221 Co204 1.989 . S
N221 C220 1.342 . S
N221 N222 1.388 . S
N222 Co205 1.993 . S
N222 N221 1.388 . S
N222 C223 1.346 . S
C223 N222 1.346 . S
C223 C224 1.396 . S
C223 C233 1.510 . S
C224 C220 1.401 . S
C224 C223 1.396 . S
C225 C220 1.499 . S
C225 H226 0.959 . S
C225 H227 0.960 . S
C225 H228 0.961 . S
H226 C225 0.959 . S
H227 C225 0.960 . S
H228 C225 0.961 . S
O229 Co204 1.967 . S
O229 C237 1.258 . S
O230 Co205 1.941 . S
O230 C237 1.266 . S
H231 C233 0.959 . S
H232 C233 0.961 . S
C233 C223 1.510 . S
C233 H231 0.959 . S
C233 H232 0.961 . S
C233 H234 0.960 . S
H234 C233 0.960 . S
H235 N215 0.862 . S
O236 Co204 1.920 . S
O236 C209 1.289 1_455 S
C237 O229 1.258 . S
C237 O230 1.266 . S
Co238 O241 1.970 . S
Co238 N255 1.989 . S
Co238 O263 1.967 . S
Co238 O270 1.920 . S
Co239 O242 1.966 . S
Co239 N248 2.022 . S
Co239 N256 1.993 . S
Co239 O264 1.941 . S
C240 O241 1.258 . S
C240 O242 1.263 . S
O241 Co238 1.970 . S
O241 C240 1.258 . S
O242 Co239 1.966 . S
O242 C240 1.263 . S
C243 O244 1.235 . S
C243 O270 1.289 . S
O244 C243 1.235 . S
C245 C247 1.400 . S
C245 N248 1.351 . S
C245 C250 1.501 . S
C246 C247 1.387 . S
C246 N249 1.341 . S
C247 C245 1.400 . S
C247 C246 1.387 . S
N248 Co239 2.022 . S
N248 C245 1.351 . S
N248 N249 1.365 . S
N249 C246 1.341 . S
N249 N248 1.365 . S
N249 H269 0.862 . S
C250 C245 1.501 . S
C250 H251 0.961 . S
C250 H252 0.961 . S
C250 H253 0.960 . S
H251 C250 0.961 . S
H252 C250 0.961 . S
H253 C250 0.960 . S
C254 N255 1.342 . S
C254 C258 1.401 . S
C254 C259 1.499 . S
N255 Co238 1.989 . S
N255 C254 1.342 . S
N255 N256 1.388 . S
N256 Co239 1.993 . S
N256 N255 1.388 . S
N256 C257 1.346 . S
C257 N256 1.346 . S
C257 C258 1.396 . S
C257 C267 1.510 . S
C258 C254 1.401 . S
C258 C257 1.396 . S
C259 C254 1.499 . S
C259 H260 0.959 . S
C259 H261 0.960 . S
C259 H262 0.961 . S
H260 C259 0.959 . S
H261 C259 0.960 . S
H262 C259 0.961 . S
O263 Co238 1.967 . S
O263 C271 1.258 . S
O264 Co239 1.941 . S
O264 C271 1.266 . S
H265 C267 0.959 . S
H266 C267 0.961 . S
C267 C257 1.510 . S
C267 H265 0.959 . S
C267 H266 0.961 . S
C267 H268 0.960 . S
H268 C267 0.960 . S
H269 N249 0.862 . S
O270 Co238 1.920 . S
O270 C243 1.289 . S
C271 O263 1.258 . S
C271 O264 1.266 . S
C175 C5 1.347 . S
C209 C39 1.347 . S
C73 C243 1.347 . S
C141 C107 1.347 . S
C271 C33 1.768 . S
C67 C169 1.767 . S
C203 C101 1.768 . S
C135 C237 1.768 . S
C258 C20 1.465 . S
C54 C156 1.465 1_554 S
C190 C88 1.465 . S
C224 C122 1.464 . S
C9 C104 1.940 1_564 S
C2 C43 1.940 . S
C36 C77 1.940 1_565 S
C70 C111 1.940 . S
C145 C172 1.940 . S
C206 C179 1.940 1_455 S
C240 C213 1.940 . S
C247 C138 1.940 1_455 S
