# Generated by pormake.
# Topology vbr, (6)-cn, num edge types: 1
# Building blocks:
#     Node 0, Type 0, BuildingBlock: OJICUG_clean_sbu_0, # of connection points: 6
#     Node 1, Type 0, BuildingBlock: OJICUG_clean_sbu_0, # of connection points: 6
#     Node 2, Type 0, BuildingBlock: OJICUG_clean_sbu_0, # of connection points: 6
#     Node 3, Type 0, BuildingBlock: OJICUG_clean_sbu_0, # of connection points: 6
#     Node 4, Type 0, BuildingBlock: OJICUG_clean_sbu_0, # of connection points: 6
#     Node 5, Type 0, BuildingBlock: OJICUG_clean_sbu_0, # of connection points: 6
#     Node 6, Type 0, BuildingBlock: OJICUG_clean_sbu_0, # of connection points: 6
#     Node 7, Type 0, BuildingBlock: OJICUG_clean_sbu_0, # of connection points: 6
#     Node 8, Type 0, BuildingBlock: OJICUG_clean_sbu_0, # of connection points: 6
#     Node 9, Type 0, BuildingBlock: OJICUG_clean_sbu_0, # of connection points: 6
#     Node 10, Type 0, BuildingBlock: OJICUG_clean_sbu_0, # of connection points: 6
#     Node 11, Type 0, BuildingBlock: OJICUG_clean_sbu_0, # of connection points: 6
#     Node 12, Type 0, BuildingBlock: OJICUG_clean_sbu_0, # of connection points: 6
#     Node 13, Type 0, BuildingBlock: OJICUG_clean_sbu_0, # of connection points: 6
#     Node 14, Type 0, BuildingBlock: OJICUG_clean_sbu_0, # of connection points: 6
#     Node 15, Type 0, BuildingBlock: OJICUG_clean_sbu_0, # of connection points: 6
#     Edge 16, Type (0, 0), None
#     Edge 17, Type (0, 0), None
#     Edge 18, Type (0, 0), None
#     Edge 19, Type (0, 0), None
#     Edge 20, Type (0, 0), None
#     Edge 21, Type (0, 0), None
#     Edge 22, Type (0, 0), None
#     Edge 23, Type (0, 0), None
#     Edge 24, Type (0, 0), None
#     Edge 25, Type (0, 0), None
#     Edge 26, Type (0, 0), None
#     Edge 27, Type (0, 0), None
#     Edge 28, Type (0, 0), None
#     Edge 29, Type (0, 0), None
#     Edge 30, Type (0, 0), None
#     Edge 31, Type (0, 0), None
#     Edge 32, Type (0, 0), None
#     Edge 33, Type (0, 0), None
#     Edge 34, Type (0, 0), None
#     Edge 35, Type (0, 0), None
#     Edge 36, Type (0, 0), None
#     Edge 37, Type (0, 0), None
#     Edge 38, Type (0, 0), None
#     Edge 39, Type (0, 0), None
#     Edge 40, Type (0, 0), None
#     Edge 41, Type (0, 0), None
#     Edge 42, Type (0, 0), None
#     Edge 43, Type (0, 0), None
#     Edge 44, Type (0, 0), None
#     Edge 45, Type (0, 0), None
#     Edge 46, Type (0, 0), None
#     Edge 47, Type (0, 0), None
#     Edge 48, Type (0, 0), None
#     Edge 49, Type (0, 0), None
#     Edge 50, Type (0, 0), None
#     Edge 51, Type (0, 0), None
#     Edge 52, Type (0, 0), None
#     Edge 53, Type (0, 0), None
#     Edge 54, Type (0, 0), None
#     Edge 55, Type (0, 0), None
#     Edge 56, Type (0, 0), None
#     Edge 57, Type (0, 0), None
#     Edge 58, Type (0, 0), None
#     Edge 59, Type (0, 0), None
#     Edge 60, Type (0, 0), None
#     Edge 61, Type (0, 0), None
#     Edge 62, Type (0, 0), None
#     Edge 63, Type (0, 0), None
# Relax obj value: 0.306
# Max RMSD: 0.281
# Mean RMSD: 0.281
data_MOF--net-vbr--node1-OJICUG_clean_sbu_0--edge1-none
_symmetry_space_group_name_H-M    P1
_symmetry_Int_Tables_number       1
_symmetry_cell_setting            triclinic
loop_
_symmetry_equiv_pos_as_xyz
'x, y, z'
_cell_length_a     23.4861
_cell_length_b     15.047237
_cell_length_c     26.853959
_cell_angle_alpha  90.0
_cell_angle_beta   90.0
_cell_angle_gamma 89.995836
loop_
_atom_site_label
_atom_site_type_symbol
_atom_site_fract_x
_atom_site_fract_y
_atom_site_fract_z
_atom_type_partial_charge
Sc0 Sc 0.32793 0.18584 0.09546 0.0
Sc1 Sc 0.19152 0.10857 0.1307 0.0
Sc2 Sc 0.3111 -0.01267 0.16123 0.0
O3 O 0.27709 0.09639 0.13194 0.0
C4 C 0.35168 -0.00267 0.0429 0.0
C5 C 0.21844 0.1974 0.03433 0.0
C6 C 0.18956 0.90156 0.14086 0.0
C7 C 0.24168 0.31164 0.14029 0.0
C8 C 0.42185 0.11075 0.16833 0.0
C9 C 0.21567 0.05282 0.24197 0.0
O10 O 0.35421 0.08221 0.04317 0.0
O11 O 0.19521 0.12872 0.05288 0.0
O12 O 0.24097 0.90325 0.15334 0.0
O13 O 0.29526 0.29732 0.13726 0.0
O14 O 0.39487 0.04045 0.17918 0.0
O15 O 0.18408 0.08721 0.2088 0.0
O16 O 0.3997 0.17176 0.14263 0.0
O17 O 0.20451 0.24957 0.13911 0.0
O18 O 0.26751 0.02451 0.2334 0.0
O19 O 0.2669 0.2244 0.04545 0.0
O20 O 0.34009 0.95224 0.08305 0.0
O21 O 0.16524 0.9695 0.1225 0.0
Sc22 Sc 0.07861 0.76284 0.59546 0.0
Sc23 Sc 0.21502 0.84011 0.6307 0.0
Sc24 Sc 0.09544 0.96135 0.66123 0.0
O25 O 0.12945 0.85229 0.63194 0.0
C26 C 0.05485 0.95135 0.5429 0.0
C27 C 0.1881 0.75128 0.53433 0.0
C28 C 0.21698 0.04712 0.64086 0.0
C29 C 0.16486 0.63703 0.64029 0.0
C30 C -0.01531 0.83793 0.66833 0.0
C31 C 0.19086 0.89586 0.74197 0.0
O32 O 0.05233 0.86647 0.54317 0.0
O33 O 0.21133 0.81996 0.55288 0.0
O34 O 0.16557 0.04543 0.65334 0.0
O35 O 0.11127 0.65136 0.63726 0.0
O36 O 0.01167 0.90823 0.67918 0.0
O37 O 0.22246 0.86146 0.7088 0.0
O38 O 0.00684 0.77691 0.64263 0.0
O39 O 0.20203 0.69911 0.63911 0.0
O40 O 0.13903 0.92417 0.7334 0.0
O41 O 0.13964 0.72428 0.54545 0.0
O42 O 0.06645 -0.00357 0.58305 0.0
O43 O 0.24129 -0.02082 0.6225 0.0
Sc44 Sc 0.32789 0.76282 0.9395 0.0
Sc45 Sc 0.19146 0.84012 0.9043 0.0
Sc46 Sc 0.31102 0.96134 0.87374 0.0
O47 O 0.27703 0.85228 0.90304 0.0
C48 C 0.35168 0.95134 0.99205 0.0
C49 C 0.21842 0.75128 1.00066 0.0
C50 C 0.18947 0.04711 0.89413 0.0
C51 C 0.2416 0.63703 0.89472 0.0
C52 C 0.42179 0.83791 0.86664 0.0
C53 C 0.2156 0.89587 0.79302 0.0
O54 O 0.35423 0.86646 0.99177 0.0
O55 O 0.19516 0.81994 0.98212 0.0
O56 O 0.24088 0.04541 0.88162 0.0
O57 O 0.29519 0.65133 0.89774 0.0
O58 O 0.39482 0.90825 0.85584 0.0
O59 O 0.184 0.8615 0.8262 0.0
O60 O 0.39961 0.77682 0.89226 0.0
O61 O 0.20443 0.69912 0.89589 0.0
O62 O 0.26745 0.92413 0.80158 0.0
O63 O 0.2669 0.72432 0.98956 0.0
O64 O 0.34001 -0.00357 0.95192 0.0
O65 O 0.16518 -0.02081 0.91252 0.0
Sc66 Sc 0.09551 -0.01266 0.37374 0.0
Sc67 Sc 0.21508 0.10856 0.4043 0.0
Sc68 Sc 0.07864 0.18585 0.4395 0.0
O69 O 0.12951 0.0964 0.40304 0.0
C70 C -0.01525 0.11077 0.36664 0.0
C71 C 0.19094 0.05281 0.29302 0.0
C72 C 0.16494 0.31165 0.39472 0.0
C73 C 0.21706 0.90157 0.39413 0.0
C74 C 0.05486 -0.00266 0.49205 0.0
C75 C 0.18812 0.1974 0.50066 0.0
O76 O 0.01172 0.04043 0.35584 0.0
O77 O 0.22254 0.08718 0.3262 0.0
O78 O 0.11135 0.29735 0.39774 0.0
O79 O 0.16566 0.90327 0.38162 0.0
O80 O 0.05231 0.08222 0.49177 0.0
O81 O 0.21137 0.12874 0.48212 0.0
O82 O 0.06653 0.95225 0.45192 0.0
O83 O 0.24135 0.96949 0.41252 0.0
O84 O 0.13964 0.22436 0.48956 0.0
O85 O 0.13909 0.02455 0.30158 0.0
O86 O 0.00692 0.17186 0.39226 0.0
O87 O 0.20211 0.24956 0.39589 0.0
Sc88 Sc 0.59545 0.96137 0.87378 0.0
Sc89 Sc 0.71502 0.84011 0.90431 0.0
Sc90 Sc 0.5786 0.76284 0.93952 0.0
O91 O 0.62946 0.85229 0.90306 0.0
C92 C 0.55485 0.95135 0.9921 0.0
C93 C 0.717 0.04712 0.89415 0.0
C94 C 0.68807 0.75133 1.00069 0.0
C95 C 0.69086 0.89584 0.79304 0.0
C96 C 0.48473 0.8379 0.86661 0.0
C97 C 0.66488 0.63703 0.89472 0.0
O98 O 0.56648 -0.00354 0.95197 0.0
O99 O 0.74132 -0.02082 0.9125 0.0
O100 O 0.63961 0.72433 0.98957 0.0
O101 O 0.63903 0.92417 0.80161 0.0
O102 O 0.50687 0.77686 0.89229 0.0
O103 O 0.70205 0.69911 0.89591 0.0
O104 O 0.51167 0.90828 0.85585 0.0
O105 O 0.72247 0.86145 0.82621 0.0
O106 O 0.6113 0.65135 0.89775 0.0
O107 O 0.66559 0.04543 0.88166 0.0
O108 O 0.55229 0.86648 0.9918 0.0
O109 O 0.71131 0.81999 0.98213 0.0
Sc110 Sc 0.82794 0.18584 0.43952 0.0
Sc111 Sc 0.69151 0.10857 0.40431 0.0
Sc112 Sc 0.81108 -0.01269 0.37378 0.0
O113 O 0.77708 0.09638 0.40306 0.0
C114 C 0.92181 0.11078 0.36661 0.0
C115 C 0.74165 0.31165 0.39472 0.0
C116 C 0.71567 0.05284 0.29304 0.0
C117 C 0.71847 0.19735 0.50069 0.0
C118 C 0.85168 -0.00267 0.4921 0.0
C119 C 0.68954 0.90156 0.39415 0.0
O120 O 0.89967 0.17182 0.39229 0.0
O121 O 0.70449 0.24957 0.39591 0.0
O122 O 0.76751 0.02451 0.30161 0.0
O123 O 0.76693 0.22435 0.48957 0.0
O124 O 0.84006 0.95222 0.45197 0.0
O125 O 0.66522 0.9695 0.4125 0.0
O126 O 0.85425 0.0822 0.4918 0.0
O127 O 0.69523 0.12869 0.48213 0.0
O128 O 0.74095 0.90325 0.38166 0.0
O129 O 0.79524 0.29733 0.39775 0.0
O130 O 0.89487 0.04039 0.35585 0.0
O131 O 0.68407 0.08723 0.32621 0.0
Sc132 Sc 0.59553 -0.01269 0.16126 0.0
Sc133 Sc 0.71509 0.10855 0.1307 0.0
Sc134 Sc 0.57864 0.18585 0.09553 0.0
O135 O 0.62952 0.09638 0.13197 0.0
C136 C 0.55486 -0.00267 0.04297 0.0
C137 C 0.71708 0.90156 0.14088 0.0
C138 C 0.68808 0.19734 0.03432 0.0
C139 C 0.69094 0.05282 0.24198 0.0
C140 C 0.48479 0.11079 0.16844 0.0
C141 C 0.66496 0.31165 0.14028 0.0
O142 O 0.56656 0.95222 0.08308 0.0
O143 O 0.74137 0.96948 0.1225 0.0
O144 O 0.63961 0.2243 0.04544 0.0
O145 O 0.6391 0.02454 0.23342 0.0
O146 O 0.50696 0.17191 0.14283 0.0
O147 O 0.70213 0.24956 0.1391 0.0
O148 O 0.51172 0.04037 0.17915 0.0
O149 O 0.72254 0.08719 0.2088 0.0
O150 O 0.61138 0.29735 0.13726 0.0
O151 O 0.66568 0.90326 0.1534 0.0
O152 O 0.55226 0.0822 0.04327 0.0
O153 O 0.71136 0.1287 0.05288 0.0
Sc154 Sc 0.81101 0.96136 0.66126 0.0
Sc155 Sc 0.69145 0.84013 0.6307 0.0
Sc156 Sc 0.8279 0.76283 0.59553 0.0
O157 O 0.77702 0.8523 0.63197 0.0
C158 C 0.85168 0.95135 0.54297 0.0
C159 C 0.68946 0.04712 0.64088 0.0
C160 C 0.71846 0.75134 0.53432 0.0
C161 C 0.7156 0.89586 0.74198 0.0
C162 C 0.92174 0.83789 0.66844 0.0
C163 C 0.74158 0.63703 0.64028 0.0
O164 O 0.83998 -0.00354 0.58308 0.0
O165 O 0.66516 -0.02081 0.6225 0.0
O166 O 0.76693 0.72438 0.54544 0.0
O167 O 0.76744 0.92414 0.73342 0.0
O168 O 0.89958 0.77677 0.64283 0.0
O169 O 0.70441 0.69912 0.6391 0.0
O170 O 0.89481 0.90831 0.67915 0.0
O171 O 0.684 0.86149 0.7088 0.0
O172 O 0.79516 0.65133 0.63726 0.0
O173 O 0.74086 0.04542 0.6534 0.0
O174 O 0.85428 0.86648 0.54327 0.0
O175 O 0.69518 0.81998 0.55288 0.0
Sc176 Sc 0.82793 0.68584 0.09546 0.0
Sc177 Sc 0.69152 0.60856 0.1307 0.0
Sc178 Sc 0.8111 0.48733 0.16124 0.0
O179 O 0.77709 0.59639 0.13194 0.0
C180 C 0.85168 0.49733 0.0429 0.0
C181 C 0.71845 0.69737 0.03432 0.0
C182 C 0.68955 0.40157 0.14087 0.0
C183 C 0.74168 0.81164 0.1403 0.0
C184 C 0.92185 0.61075 0.16833 0.0
C185 C 0.71568 0.55282 0.24197 0.0
O186 O 0.85421 0.5822 0.04318 0.0
O187 O 0.69521 0.62871 0.05288 0.0
O188 O 0.74097 0.40325 0.15335 0.0
O189 O 0.79526 0.79732 0.13726 0.0
O190 O 0.89487 0.54044 0.17917 0.0
O191 O 0.68408 0.58721 0.2088 0.0
O192 O 0.8997 0.67177 0.14263 0.0
O193 O 0.70451 0.74957 0.13911 0.0
O194 O 0.76751 0.52452 0.2334 0.0
O195 O 0.7669 0.72439 0.04545 0.0
O196 O 0.84008 0.45224 0.08305 0.0
O197 O 0.66525 0.4695 0.1225 0.0
Sc198 Sc 0.57861 0.26284 0.59546 0.0
Sc199 Sc 0.71502 0.34012 0.6307 0.0
Sc200 Sc 0.59544 0.46135 0.66124 0.0
O201 O 0.62945 0.35229 0.63194 0.0
C202 C 0.55486 0.45135 0.5429 0.0
C203 C 0.68809 0.25131 0.53432 0.0
C204 C 0.71699 0.54711 0.64087 0.0
C205 C 0.66486 0.13704 0.6403 0.0
C206 C 0.48469 0.33793 0.66833 0.0
C207 C 0.69086 0.39586 0.74197 0.0
O208 O 0.55233 0.36647 0.54318 0.0
O209 O 0.71133 0.31997 0.55288 0.0
O210 O 0.66557 0.54543 0.65335 0.0
O211 O 0.61127 0.15136 0.63726 0.0
O212 O 0.51167 0.40824 0.67917 0.0
O213 O 0.72246 0.36147 0.7088 0.0
O214 O 0.50684 0.27691 0.64263 0.0
O215 O 0.70203 0.19911 0.63911 0.0
O216 O 0.63902 0.42416 0.7334 0.0
O217 O 0.63964 0.22429 0.54545 0.0
O218 O 0.56646 0.49644 0.58305 0.0
O219 O 0.74129 0.47918 0.6225 0.0
Sc220 Sc 0.82789 0.26283 0.93949 0.0
Sc221 Sc 0.69146 0.34012 0.9043 0.0
Sc222 Sc 0.81102 0.46134 0.87374 0.0
O223 O 0.77703 0.35228 0.90304 0.0
C224 C 0.85168 0.45134 0.99205 0.0
C225 C 0.71843 0.25131 1.00068 0.0
C226 C 0.68947 0.54711 0.89411 0.0
C227 C 0.7416 0.13703 0.89471 0.0
C228 C 0.92179 0.33791 0.86664 0.0
C229 C 0.7156 0.39587 0.79302 0.0
O230 O 0.85423 0.36646 0.99176 0.0
O231 O 0.69516 0.31995 0.98212 0.0
O232 O 0.74087 0.54542 0.88161 0.0
O233 O 0.79519 0.15133 0.89774 0.0
O234 O 0.89482 0.40826 0.85584 0.0
O235 O 0.684 0.3615 0.8262 0.0
O236 O 0.89961 0.27682 0.89226 0.0
O237 O 0.70443 0.19912 0.89589 0.0
O238 O 0.76745 0.42413 0.80158 0.0
O239 O 0.7669 0.22433 0.98956 0.0
O240 O 0.84 0.49644 0.95192 0.0
O241 O 0.66519 0.47919 0.91252 0.0
Sc242 Sc 0.59552 0.48734 0.37374 0.0
Sc243 Sc 0.71508 0.60856 0.4043 0.0
Sc244 Sc 0.57864 0.68585 0.43949 0.0
O245 O 0.62951 0.59639 0.40304 0.0
C246 C 0.48475 0.61077 0.36664 0.0
C247 C 0.69094 0.55281 0.29302 0.0
C248 C 0.66494 0.81165 0.39471 0.0
C249 C 0.71707 0.40157 0.39411 0.0
C250 C 0.55486 0.49734 0.49205 0.0
C251 C 0.68811 0.69737 0.50068 0.0
O252 O 0.51172 0.54042 0.35584 0.0
O253 O 0.72254 0.58718 0.3262 0.0
O254 O 0.61135 0.79735 0.39774 0.0
O255 O 0.66566 0.40326 0.38161 0.0
O256 O 0.55231 0.58222 0.49176 0.0
O257 O 0.71138 0.62873 0.48212 0.0
O258 O 0.56653 0.45224 0.45192 0.0
O259 O 0.74135 0.46949 0.41252 0.0
O260 O 0.63964 0.72435 0.48956 0.0
O261 O 0.63909 0.52455 0.30158 0.0
O262 O 0.50693 0.67186 0.39226 0.0
O263 O 0.70211 0.74956 0.39589 0.0
Sc264 Sc 0.09546 0.46137 0.87377 0.0
Sc265 Sc 0.21502 0.34012 0.90431 0.0
Sc266 Sc 0.0786 0.26284 0.93952 0.0
O267 O 0.12946 0.3523 0.90306 0.0
C268 C 0.05486 0.45136 0.9921 0.0
C269 C 0.217 0.54711 0.89414 0.0
C270 C 0.18806 0.25136 1.00071 0.0
C271 C 0.19086 0.39584 0.79304 0.0
C272 C -0.01527 0.3379 0.86661 0.0
C273 C 0.16489 0.13703 0.89472 0.0
O274 O 0.06649 0.49646 0.95197 0.0
O275 O 0.24131 0.47918 0.9125 0.0
O276 O 0.13961 0.22433 0.98957 0.0
O277 O 0.13903 0.42416 0.80161 0.0
O278 O 0.00687 0.27685 0.89229 0.0
O279 O 0.20205 0.19911 0.89591 0.0
O280 O 0.01167 0.40829 0.85585 0.0
O281 O 0.22247 0.36145 0.82621 0.0
O282 O 0.1113 0.15135 0.89775 0.0
O283 O 0.16559 0.54543 0.88165 0.0
O284 O 0.05229 0.36648 0.9918 0.0
O285 O 0.21131 0.32 0.98213 0.0
Sc286 Sc 0.32794 0.68584 0.43952 0.0
Sc287 Sc 0.19151 0.60856 0.40431 0.0
Sc288 Sc 0.31108 0.48731 0.37377 0.0
O289 O 0.27708 0.59638 0.40306 0.0
C290 C 0.42181 0.61078 0.36661 0.0
C291 C 0.24165 0.81165 0.39472 0.0
C292 C 0.21567 0.55284 0.29304 0.0
C293 C 0.21848 0.69732 0.50071 0.0
C294 C 0.35168 0.49732 0.4921 0.0
C295 C 0.18954 0.40157 0.39414 0.0
O296 O 0.39966 0.67183 0.39229 0.0
O297 O 0.20449 0.74957 0.39591 0.0
O298 O 0.26751 0.52451 0.30161 0.0
O299 O 0.26693 0.72435 0.48957 0.0
O300 O 0.34005 0.45222 0.45197 0.0
O301 O 0.16522 0.4695 0.4125 0.0
O302 O 0.35425 0.5822 0.4918 0.0
O303 O 0.19523 0.62868 0.48213 0.0
O304 O 0.24095 0.40325 0.38165 0.0
O305 O 0.29524 0.79733 0.39775 0.0
O306 O 0.39487 0.54039 0.35585 0.0
O307 O 0.18407 0.58723 0.32621 0.0
Sc308 Sc 0.09553 0.48731 0.16126 0.0
Sc309 Sc 0.21509 0.60855 0.1307 0.0
Sc310 Sc 0.07864 0.68584 0.09553 0.0
O311 O 0.12952 0.59638 0.13197 0.0
C312 C 0.05486 0.49733 0.04297 0.0
C313 C 0.21708 0.40156 0.14089 0.0
C314 C 0.18807 0.69731 0.0343 0.0
C315 C 0.19094 0.55282 0.24198 0.0
C316 C -0.01521 0.61079 0.16844 0.0
C317 C 0.16496 0.81165 0.14029 0.0
O318 O 0.06657 0.45221 0.08308 0.0
O319 O 0.24137 0.46948 0.12249 0.0
O320 O 0.13961 0.7243 0.04544 0.0
O321 O 0.1391 0.52454 0.23342 0.0
O322 O 0.00696 0.67191 0.14284 0.0
O323 O 0.20213 0.74956 0.1391 0.0
O324 O 0.01172 0.54036 0.17914 0.0
O325 O 0.22254 0.58719 0.2088 0.0
O326 O 0.11138 0.79735 0.13726 0.0
O327 O 0.16568 0.40325 0.1534 0.0
O328 O 0.05226 0.5822 0.04327 0.0
O329 O 0.21136 0.62869 0.05288 0.0
Sc330 Sc 0.31101 0.46137 0.66126 0.0
Sc331 Sc 0.19145 0.34013 0.6307 0.0
Sc332 Sc 0.3279 0.26283 0.59553 0.0
O333 O 0.27702 0.3523 0.63197 0.0
C334 C 0.35168 0.45135 0.54297 0.0
C335 C 0.18946 0.54712 0.64089 0.0
C336 C 0.21847 0.25137 0.5343 0.0
C337 C 0.2156 0.39585 0.74198 0.0
C338 C 0.42174 0.33789 0.66844 0.0
C339 C 0.24158 0.13703 0.64029 0.0
O340 O 0.33997 0.49647 0.58308 0.0
O341 O 0.16517 0.4792 0.62249 0.0
O342 O 0.26693 0.22438 0.54544 0.0
O343 O 0.26744 0.42413 0.73342 0.0
O344 O 0.39958 0.27677 0.64284 0.0
O345 O 0.20441 0.19912 0.6391 0.0
O346 O 0.39481 0.40832 0.67914 0.0
O347 O 0.184 0.36149 0.7088 0.0
O348 O 0.29516 0.15133 0.63726 0.0
O349 O 0.24085 0.54542 0.6534 0.0
O350 O 0.35428 0.36648 0.54327 0.0
O351 O 0.19518 0.31999 0.55288 0.0
loop_
_geom_bond_atom_site_label_1
_geom_bond_atom_site_label_2
_geom_bond_distance
_geom_bond_site_symmetry_2
_ccdc_geom_bond_type
Sc0 O3 2.025 . S
Sc0 O10 2.105 . S
Sc0 O13 2.105 . S
Sc0 O16 2.105 . S
Sc0 O19 2.105 . S
Sc1 O3 2.025 . S
Sc1 O11 2.105 . S
Sc1 O15 2.105 . S
Sc1 O17 2.105 . S
Sc1 O21 2.105 . S
Sc2 O3 2.025 . S
Sc2 O12 2.105 1_545 S
Sc2 O14 2.105 . S
Sc2 O18 2.105 . S
Sc2 O20 2.105 . S
O3 Sc0 2.025 . S
O3 Sc1 2.025 . S
O3 Sc2 2.025 . S
C4 O10 1.268 . S
C4 O20 1.268 . S
C5 O11 1.268 . S
C5 O19 1.268 . S
C6 O12 1.268 . S
C6 O21 1.268 1_565 S
C7 O13 1.268 . S
C7 O17 1.268 . S
C8 O14 1.268 . S
C8 O16 1.268 . S
C9 O15 1.268 . S
C9 O18 1.268 . S
O10 Sc0 2.105 . S
O10 C4 1.268 . S
O11 Sc1 2.105 . S
O11 C5 1.268 . S
O12 Sc2 2.105 1_565 S
O12 C6 1.268 . S
O13 Sc0 2.105 . S
O13 C7 1.268 . S
O14 Sc2 2.105 . S
O14 C8 1.268 . S
O15 Sc1 2.105 . S
O15 C9 1.268 . S
O16 Sc0 2.105 . S
O16 C8 1.268 . S
O17 Sc1 2.105 . S
O17 C7 1.268 . S
O18 Sc2 2.105 . S
O18 C9 1.268 . S
O19 Sc0 2.105 . S
O19 C5 1.268 . S
O20 Sc2 2.105 . S
O20 C4 1.268 . S
O21 Sc1 2.105 . S
O21 C6 1.268 1_545 S
Sc22 O25 2.025 . S
Sc22 O32 2.105 . S
Sc22 O35 2.105 . S
Sc22 O38 2.105 . S
Sc22 O41 2.105 . S
Sc23 O25 2.025 . S
Sc23 O33 2.105 . S
Sc23 O37 2.105 . S
Sc23 O39 2.105 . S
Sc23 O43 2.105 . S
Sc24 O25 2.025 . S
Sc24 O34 2.105 1_565 S
Sc24 O36 2.105 . S
Sc24 O40 2.105 . S
Sc24 O42 2.105 . S
O25 Sc22 2.025 . S
O25 Sc23 2.025 . S
O25 Sc24 2.025 . S
C26 O32 1.268 . S
C26 O42 1.268 . S
C27 O33 1.268 . S
C27 O41 1.268 . S
C28 O34 1.268 . S
C28 O43 1.268 1_545 S
C29 O35 1.268 . S
C29 O39 1.268 . S
C30 O36 1.268 . S
C30 O38 1.268 . S
C31 O37 1.268 . S
C31 O40 1.268 . S
O32 Sc22 2.105 . S
O32 C26 1.268 . S
O33 Sc23 2.105 . S
O33 C27 1.268 . S
O34 Sc24 2.105 1_545 S
O34 C28 1.268 . S
O35 Sc22 2.105 . S
O35 C29 1.268 . S
O36 Sc24 2.105 . S
O36 C30 1.268 . S
O37 Sc23 2.105 . S
O37 C31 1.268 . S
O38 Sc22 2.105 . S
O38 C30 1.268 . S
O39 Sc23 2.105 . S
O39 C29 1.268 . S
O40 Sc24 2.105 . S
O40 C31 1.268 . S
O41 Sc22 2.105 . S
O41 C27 1.268 . S
O42 Sc24 2.105 . S
O42 C26 1.268 . S
O43 Sc23 2.105 . S
O43 C28 1.268 1_565 S
Sc44 O47 2.025 . S
Sc44 O54 2.105 . S
Sc44 O57 2.105 . S
Sc44 O60 2.105 . S
Sc44 O63 2.105 . S
Sc45 O47 2.025 . S
Sc45 O55 2.105 . S
Sc45 O59 2.105 . S
Sc45 O61 2.105 . S
Sc45 O65 2.105 . S
Sc46 O47 2.025 . S
Sc46 O56 2.105 1_565 S
Sc46 O58 2.105 . S
Sc46 O62 2.105 . S
Sc46 O64 2.105 . S
O47 Sc44 2.025 . S
O47 Sc45 2.025 . S
O47 Sc46 2.025 . S
C48 O54 1.268 . S
C48 O64 1.268 . S
C49 O55 1.268 . S
C49 O63 1.268 . S
C50 O56 1.268 . S
C50 O65 1.268 1_545 S
C51 O57 1.268 . S
C51 O61 1.268 . S
C52 O58 1.268 . S
C52 O60 1.268 . S
C53 O59 1.268 . S
C53 O62 1.268 . S
O54 Sc44 2.105 . S
O54 C48 1.268 . S
O55 Sc45 2.105 . S
O55 C49 1.268 . S
O56 Sc46 2.105 1_545 S
O56 C50 1.268 . S
O57 Sc44 2.105 . S
O57 C51 1.268 . S
O58 Sc46 2.105 . S
O58 C52 1.268 . S
O59 Sc45 2.105 . S
O59 C53 1.268 . S
O60 Sc44 2.105 . S
O60 C52 1.268 . S
O61 Sc45 2.105 . S
O61 C51 1.268 . S
O62 Sc46 2.105 . S
O62 C53 1.268 . S
O63 Sc44 2.105 . S
O63 C49 1.268 . S
O64 Sc46 2.105 . S
O64 C48 1.268 . S
O65 Sc45 2.105 . S
O65 C50 1.268 1_565 S
Sc66 O69 2.025 . S
Sc66 O76 2.105 . S
Sc66 O79 2.105 1_545 S
Sc66 O82 2.105 . S
Sc66 O85 2.105 . S
Sc67 O69 2.025 . S
Sc67 O77 2.105 . S
Sc67 O81 2.105 . S
Sc67 O83 2.105 . S
Sc67 O87 2.105 . S
Sc68 O69 2.025 . S
Sc68 O78 2.105 . S
Sc68 O80 2.105 . S
Sc68 O84 2.105 . S
Sc68 O86 2.105 . S
O69 Sc66 2.025 . S
O69 Sc67 2.025 . S
O69 Sc68 2.025 . S
C70 O76 1.268 . S
C70 O86 1.268 . S
C71 O77 1.268 . S
C71 O85 1.268 . S
C72 O78 1.268 . S
C72 O87 1.268 . S
C73 O79 1.268 . S
C73 O83 1.268 1_565 S
C74 O80 1.268 . S
C74 O82 1.268 . S
C75 O81 1.268 . S
C75 O84 1.268 . S
O76 Sc66 2.105 . S
O76 C70 1.268 . S
O77 Sc67 2.105 . S
O77 C71 1.268 . S
O78 Sc68 2.105 . S
O78 C72 1.268 . S
O79 Sc66 2.105 1_565 S
O79 C73 1.268 . S
O80 Sc68 2.105 . S
O80 C74 1.268 . S
O81 Sc67 2.105 . S
O81 C75 1.268 . S
O82 Sc66 2.105 . S
O82 C74 1.268 . S
O83 Sc67 2.105 . S
O83 C73 1.268 1_545 S
O84 Sc68 2.105 . S
O84 C75 1.268 . S
O85 Sc66 2.105 . S
O85 C71 1.268 . S
O86 Sc68 2.105 . S
O86 C70 1.268 . S
O87 Sc67 2.105 . S
O87 C72 1.268 . S
Sc88 O91 2.025 . S
Sc88 O98 2.105 . S
Sc88 O101 2.105 . S
Sc88 O104 2.105 . S
Sc88 O107 2.105 1_565 S
Sc89 O91 2.025 . S
Sc89 O99 2.105 . S
Sc89 O103 2.105 . S
Sc89 O105 2.105 . S
Sc89 O109 2.105 . S
Sc90 O91 2.025 . S
Sc90 O100 2.105 . S
Sc90 O102 2.105 . S
Sc90 O106 2.105 . S
Sc90 O108 2.105 . S
O91 Sc88 2.025 . S
O91 Sc89 2.025 . S
O91 Sc90 2.025 . S
C92 O98 1.268 . S
C92 O108 1.268 . S
C93 O99 1.268 1_545 S
C93 O107 1.268 . S
C94 O100 1.268 . S
C94 O109 1.268 . S
C95 O101 1.268 . S
C95 O105 1.268 . S
C96 O102 1.268 . S
C96 O104 1.268 . S
C97 O103 1.268 . S
C97 O106 1.268 . S
O98 Sc88 2.105 . S
O98 C92 1.268 . S
O99 Sc89 2.105 . S
O99 C93 1.268 1_565 S
O100 Sc90 2.105 . S
O100 C94 1.268 . S
O101 Sc88 2.105 . S
O101 C95 1.268 . S
O102 Sc90 2.105 . S
O102 C96 1.268 . S
O103 Sc89 2.105 . S
O103 C97 1.268 . S
O104 Sc88 2.105 . S
O104 C96 1.268 . S
O105 Sc89 2.105 . S
O105 C95 1.268 . S
O106 Sc90 2.105 . S
O106 C97 1.268 . S
O107 Sc88 2.105 1_545 S
O107 C93 1.268 . S
O108 Sc90 2.105 . S
O108 C92 1.268 . S
O109 Sc89 2.105 . S
O109 C94 1.268 . S
Sc110 O113 2.025 . S
Sc110 O120 2.105 . S
Sc110 O123 2.105 . S
Sc110 O126 2.105 . S
Sc110 O129 2.105 . S
Sc111 O113 2.025 . S
Sc111 O121 2.105 . S
Sc111 O125 2.105 . S
Sc111 O127 2.105 . S
Sc111 O131 2.105 . S
Sc112 O113 2.025 . S
Sc112 O122 2.105 . S
Sc112 O124 2.105 . S
Sc112 O128 2.105 1_545 S
Sc112 O130 2.105 . S
O113 Sc110 2.025 . S
O113 Sc111 2.025 . S
O113 Sc112 2.025 . S
C114 O120 1.268 . S
C114 O130 1.268 . S
C115 O121 1.268 . S
C115 O129 1.268 . S
C116 O122 1.268 . S
C116 O131 1.268 . S
C117 O123 1.268 . S
C117 O127 1.268 . S
C118 O124 1.268 . S
C118 O126 1.268 . S
C119 O125 1.268 1_565 S
C119 O128 1.268 . S
O120 Sc110 2.105 . S
O120 C114 1.268 . S
O121 Sc111 2.105 . S
O121 C115 1.268 . S
O122 Sc112 2.105 . S
O122 C116 1.268 . S
O123 Sc110 2.105 . S
O123 C117 1.268 . S
O124 Sc112 2.105 . S
O124 C118 1.268 . S
O125 Sc111 2.105 . S
O125 C119 1.268 1_545 S
O126 Sc110 2.105 . S
O126 C118 1.268 . S
O127 Sc111 2.105 . S
O127 C117 1.268 . S
O128 Sc112 2.105 1_565 S
O128 C119 1.268 . S
O129 Sc110 2.105 . S
O129 C115 1.268 . S
O130 Sc112 2.105 . S
O130 C114 1.268 . S
O131 Sc111 2.105 . S
O131 C116 1.268 . S
Sc132 O135 2.025 . S
Sc132 O142 2.105 . S
Sc132 O145 2.105 . S
Sc132 O148 2.105 . S
Sc132 O151 2.105 1_545 S
Sc133 O135 2.025 . S
Sc133 O143 2.105 . S
Sc133 O147 2.105 . S
Sc133 O149 2.105 . S
Sc133 O153 2.105 . S
Sc134 O135 2.025 . S
Sc134 O144 2.105 . S
Sc134 O146 2.105 . S
Sc134 O150 2.105 . S
Sc134 O152 2.105 . S
O135 Sc132 2.025 . S
O135 Sc133 2.025 . S
O135 Sc134 2.025 . S
C136 O142 1.268 . S
C136 O152 1.268 . S
C137 O143 1.268 1_565 S
C137 O151 1.268 . S
C138 O144 1.268 . S
C138 O153 1.268 . S
C139 O145 1.268 . S
C139 O149 1.268 . S
C140 O146 1.268 . S
C140 O148 1.268 . S
C141 O147 1.268 . S
C141 O150 1.268 . S
O142 Sc132 2.105 . S
O142 C136 1.268 . S
O143 Sc133 2.105 . S
O143 C137 1.268 1_545 S
O144 Sc134 2.105 . S
O144 C138 1.268 . S
O145 Sc132 2.105 . S
O145 C139 1.268 . S
O146 Sc134 2.105 . S
O146 C140 1.268 . S
O147 Sc133 2.105 . S
O147 C141 1.268 . S
O148 Sc132 2.105 . S
O148 C140 1.268 . S
O149 Sc133 2.105 . S
O149 C139 1.268 . S
O150 Sc134 2.105 . S
O150 C141 1.268 . S
O151 Sc132 2.105 1_565 S
O151 C137 1.268 . S
O152 Sc134 2.105 . S
O152 C136 1.268 . S
O153 Sc133 2.105 . S
O153 C138 1.268 . S
Sc154 O157 2.025 . S
Sc154 O164 2.105 . S
Sc154 O167 2.105 . S
Sc154 O170 2.105 . S
Sc154 O173 2.105 1_565 S
Sc155 O157 2.025 . S
Sc155 O165 2.105 . S
Sc155 O169 2.105 . S
Sc155 O171 2.105 . S
Sc155 O175 2.105 . S
Sc156 O157 2.025 . S
Sc156 O166 2.105 . S
Sc156 O168 2.105 . S
Sc156 O172 2.105 . S
Sc156 O174 2.105 . S
O157 Sc154 2.025 . S
O157 Sc155 2.025 . S
O157 Sc156 2.025 . S
C158 O164 1.268 . S
C158 O174 1.268 . S
C159 O165 1.268 1_545 S
C159 O173 1.268 . S
C160 O166 1.268 . S
C160 O175 1.268 . S
C161 O167 1.268 . S
C161 O171 1.268 . S
C162 O168 1.268 . S
C162 O170 1.268 . S
C163 O169 1.268 . S
C163 O172 1.268 . S
O164 Sc154 2.105 . S
O164 C158 1.268 . S
O165 Sc155 2.105 . S
O165 C159 1.268 1_565 S
O166 Sc156 2.105 . S
O166 C160 1.268 . S
O167 Sc154 2.105 . S
O167 C161 1.268 . S
O168 Sc156 2.105 . S
O168 C162 1.268 . S
O169 Sc155 2.105 . S
O169 C163 1.268 . S
O170 Sc154 2.105 . S
O170 C162 1.268 . S
O171 Sc155 2.105 . S
O171 C161 1.268 . S
O172 Sc156 2.105 . S
O172 C163 1.268 . S
O173 Sc154 2.105 1_545 S
O173 C159 1.268 . S
O174 Sc156 2.105 . S
O174 C158 1.268 . S
O175 Sc155 2.105 . S
O175 C160 1.268 . S
Sc176 O179 2.025 . S
Sc176 O186 2.105 . S
Sc176 O189 2.105 . S
Sc176 O192 2.105 . S
Sc176 O195 2.105 . S
Sc177 O179 2.025 . S
Sc177 O187 2.105 . S
Sc177 O191 2.105 . S
Sc177 O193 2.105 . S
Sc177 O197 2.105 . S
Sc178 O179 2.025 . S
Sc178 O188 2.105 . S
Sc178 O190 2.105 . S
Sc178 O194 2.105 . S
Sc178 O196 2.105 . S
O179 Sc176 2.025 . S
O179 Sc177 2.025 . S
O179 Sc178 2.025 . S
C180 O186 1.268 . S
C180 O196 1.268 . S
C181 O187 1.268 . S
C181 O195 1.268 . S
C182 O188 1.268 . S
C182 O197 1.268 . S
C183 O189 1.268 . S
C183 O193 1.268 . S
C184 O190 1.268 . S
C184 O192 1.268 . S
C185 O191 1.268 . S
C185 O194 1.268 . S
O186 Sc176 2.105 . S
O186 C180 1.268 . S
O187 Sc177 2.105 . S
O187 C181 1.268 . S
O188 Sc178 2.105 . S
O188 C182 1.268 . S
O189 Sc176 2.105 . S
O189 C183 1.268 . S
O190 Sc178 2.105 . S
O190 C184 1.268 . S
O191 Sc177 2.105 . S
O191 C185 1.268 . S
O192 Sc176 2.105 . S
O192 C184 1.268 . S
O193 Sc177 2.105 . S
O193 C183 1.268 . S
O194 Sc178 2.105 . S
O194 C185 1.268 . S
O195 Sc176 2.105 . S
O195 C181 1.268 . S
O196 Sc178 2.105 . S
O196 C180 1.268 . S
O197 Sc177 2.105 . S
O197 C182 1.268 . S
Sc198 O201 2.025 . S
Sc198 O208 2.105 . S
Sc198 O211 2.105 . S
Sc198 O214 2.105 . S
Sc198 O217 2.105 . S
Sc199 O201 2.025 . S
Sc199 O209 2.105 . S
Sc199 O213 2.105 . S
Sc199 O215 2.105 . S
Sc199 O219 2.105 . S
Sc200 O201 2.025 . S
Sc200 O210 2.105 . S
Sc200 O212 2.105 . S
Sc200 O216 2.105 . S
Sc200 O218 2.105 . S
O201 Sc198 2.025 . S
O201 Sc199 2.025 . S
O201 Sc200 2.025 . S
C202 O208 1.268 . S
C202 O218 1.268 . S
C203 O209 1.268 . S
C203 O217 1.268 . S
C204 O210 1.268 . S
C204 O219 1.268 . S
C205 O211 1.268 . S
C205 O215 1.268 . S
C206 O212 1.268 . S
C206 O214 1.268 . S
C207 O213 1.268 . S
C207 O216 1.268 . S
O208 Sc198 2.105 . S
O208 C202 1.268 . S
O209 Sc199 2.105 . S
O209 C203 1.268 . S
O210 Sc200 2.105 . S
O210 C204 1.268 . S
O211 Sc198 2.105 . S
O211 C205 1.268 . S
O212 Sc200 2.105 . S
O212 C206 1.268 . S
O213 Sc199 2.105 . S
O213 C207 1.268 . S
O214 Sc198 2.105 . S
O214 C206 1.268 . S
O215 Sc199 2.105 . S
O215 C205 1.268 . S
O216 Sc200 2.105 . S
O216 C207 1.268 . S
O217 Sc198 2.105 . S
O217 C203 1.268 . S
O218 Sc200 2.105 . S
O218 C202 1.268 . S
O219 Sc199 2.105 . S
O219 C204 1.268 . S
Sc220 O223 2.025 . S
Sc220 O230 2.105 . S
Sc220 O233 2.105 . S
Sc220 O236 2.105 . S
Sc220 O239 2.105 . S
Sc221 O223 2.025 . S
Sc221 O231 2.105 . S
Sc221 O235 2.105 . S
Sc221 O237 2.105 . S
Sc221 O241 2.105 . S
Sc222 O223 2.025 . S
Sc222 O232 2.105 . S
Sc222 O234 2.105 . S
Sc222 O238 2.105 . S
Sc222 O240 2.105 . S
O223 Sc220 2.025 . S
O223 Sc221 2.025 . S
O223 Sc222 2.025 . S
C224 O230 1.268 . S
C224 O240 1.268 . S
C225 O231 1.268 . S
C225 O239 1.268 . S
C226 O232 1.268 . S
C226 O241 1.268 . S
C227 O233 1.268 . S
C227 O237 1.268 . S
C228 O234 1.268 . S
C228 O236 1.268 . S
C229 O235 1.268 . S
C229 O238 1.268 . S
O230 Sc220 2.105 . S
O230 C224 1.268 . S
O231 Sc221 2.105 . S
O231 C225 1.268 . S
O232 Sc222 2.105 . S
O232 C226 1.268 . S
O233 Sc220 2.105 . S
O233 C227 1.268 . S
O234 Sc222 2.105 . S
O234 C228 1.268 . S
O235 Sc221 2.105 . S
O235 C229 1.268 . S
O236 Sc220 2.105 . S
O236 C228 1.268 . S
O237 Sc221 2.105 . S
O237 C227 1.268 . S
O238 Sc222 2.105 . S
O238 C229 1.268 . S
O239 Sc220 2.105 . S
O239 C225 1.268 . S
O240 Sc222 2.105 . S
O240 C224 1.268 . S
O241 Sc221 2.105 . S
O241 C226 1.268 . S
Sc242 O245 2.025 . S
Sc242 O252 2.105 . S
Sc242 O255 2.105 . S
Sc242 O258 2.105 . S
Sc242 O261 2.105 . S
Sc243 O245 2.025 . S
Sc243 O253 2.105 . S
Sc243 O257 2.105 . S
Sc243 O259 2.105 . S
Sc243 O263 2.105 . S
Sc244 O245 2.025 . S
Sc244 O254 2.105 . S
Sc244 O256 2.105 . S
Sc244 O260 2.105 . S
Sc244 O262 2.105 . S
O245 Sc242 2.025 . S
O245 Sc243 2.025 . S
O245 Sc244 2.025 . S
C246 O252 1.268 . S
C246 O262 1.268 . S
C247 O253 1.268 . S
C247 O261 1.268 . S
C248 O254 1.268 . S
C248 O263 1.268 . S
C249 O255 1.268 . S
C249 O259 1.268 . S
C250 O256 1.268 . S
C250 O258 1.268 . S
C251 O257 1.268 . S
C251 O260 1.268 . S
O252 Sc242 2.105 . S
O252 C246 1.268 . S
O253 Sc243 2.105 . S
O253 C247 1.268 . S
O254 Sc244 2.105 . S
O254 C248 1.268 . S
O255 Sc242 2.105 . S
O255 C249 1.268 . S
O256 Sc244 2.105 . S
O256 C250 1.268 . S
O257 Sc243 2.105 . S
O257 C251 1.268 . S
O258 Sc242 2.105 . S
O258 C250 1.268 . S
O259 Sc243 2.105 . S
O259 C249 1.268 . S
O260 Sc244 2.105 . S
O260 C251 1.268 . S
O261 Sc242 2.105 . S
O261 C247 1.268 . S
O262 Sc244 2.105 . S
O262 C246 1.268 . S
O263 Sc243 2.105 . S
O263 C248 1.268 . S
Sc264 O267 2.025 . S
Sc264 O274 2.105 . S
Sc264 O277 2.105 . S
Sc264 O280 2.105 . S
Sc264 O283 2.105 . S
Sc265 O267 2.025 . S
Sc265 O275 2.105 . S
Sc265 O279 2.105 . S
Sc265 O281 2.105 . S
Sc265 O285 2.105 . S
Sc266 O267 2.025 . S
Sc266 O276 2.105 . S
Sc266 O278 2.105 . S
Sc266 O282 2.105 . S
Sc266 O284 2.105 . S
O267 Sc264 2.025 . S
O267 Sc265 2.025 . S
O267 Sc266 2.025 . S
C268 O274 1.268 . S
C268 O284 1.268 . S
C269 O275 1.268 . S
C269 O283 1.268 . S
C270 O276 1.268 . S
C270 O285 1.268 . S
C271 O277 1.268 . S
C271 O281 1.268 . S
C272 O278 1.268 . S
C272 O280 1.268 . S
C273 O279 1.268 . S
C273 O282 1.268 . S
O274 Sc264 2.105 . S
O274 C268 1.268 . S
O275 Sc265 2.105 . S
O275 C269 1.268 . S
O276 Sc266 2.105 . S
O276 C270 1.268 . S
O277 Sc264 2.105 . S
O277 C271 1.268 . S
O278 Sc266 2.105 . S
O278 C272 1.268 . S
O279 Sc265 2.105 . S
O279 C273 1.268 . S
O280 Sc264 2.105 . S
O280 C272 1.268 . S
O281 Sc265 2.105 . S
O281 C271 1.268 . S
O282 Sc266 2.105 . S
O282 C273 1.268 . S
O283 Sc264 2.105 . S
O283 C269 1.268 . S
O284 Sc266 2.105 . S
O284 C268 1.268 . S
O285 Sc265 2.105 . S
O285 C270 1.268 . S
Sc286 O289 2.025 . S
Sc286 O296 2.105 . S
Sc286 O299 2.105 . S
Sc286 O302 2.105 . S
Sc286 O305 2.105 . S
Sc287 O289 2.025 . S
Sc287 O297 2.105 . S
Sc287 O301 2.105 . S
Sc287 O303 2.105 . S
Sc287 O307 2.105 . S
Sc288 O289 2.025 . S
Sc288 O298 2.105 . S
Sc288 O300 2.105 . S
Sc288 O304 2.105 . S
Sc288 O306 2.105 . S
O289 Sc286 2.025 . S
O289 Sc287 2.025 . S
O289 Sc288 2.025 . S
C290 O296 1.268 . S
C290 O306 1.268 . S
C291 O297 1.268 . S
C291 O305 1.268 . S
C292 O298 1.268 . S
C292 O307 1.268 . S
C293 O299 1.268 . S
C293 O303 1.268 . S
C294 O300 1.268 . S
C294 O302 1.268 . S
C295 O301 1.268 . S
C295 O304 1.268 . S
O296 Sc286 2.105 . S
O296 C290 1.268 . S
O297 Sc287 2.105 . S
O297 C291 1.268 . S
O298 Sc288 2.105 . S
O298 C292 1.268 . S
O299 Sc286 2.105 . S
O299 C293 1.268 . S
O300 Sc288 2.105 . S
O300 C294 1.268 . S
O301 Sc287 2.105 . S
O301 C295 1.268 . S
O302 Sc286 2.105 . S
O302 C294 1.268 . S
O303 Sc287 2.105 . S
O303 C293 1.268 . S
O304 Sc288 2.105 . S
O304 C295 1.268 . S
O305 Sc286 2.105 . S
O305 C291 1.268 . S
O306 Sc288 2.105 . S
O306 C290 1.268 . S
O307 Sc287 2.105 . S
O307 C292 1.268 . S
Sc308 O311 2.025 . S
Sc308 O318 2.105 . S
Sc308 O321 2.105 . S
Sc308 O324 2.105 . S
Sc308 O327 2.105 . S
Sc309 O311 2.025 . S
Sc309 O319 2.105 . S
Sc309 O323 2.105 . S
Sc309 O325 2.105 . S
Sc309 O329 2.105 . S
Sc310 O311 2.025 . S
Sc310 O320 2.105 . S
Sc310 O322 2.105 . S
Sc310 O326 2.105 . S
Sc310 O328 2.105 . S
O311 Sc308 2.025 . S
O311 Sc309 2.025 . S
O311 Sc310 2.025 . S
C312 O318 1.268 . S
C312 O328 1.268 . S
C313 O319 1.268 . S
C313 O327 1.268 . S
C314 O320 1.268 . S
C314 O329 1.268 . S
C315 O321 1.268 . S
C315 O325 1.268 . S
C316 O322 1.268 . S
C316 O324 1.268 . S
C317 O323 1.268 . S
C317 O326 1.268 . S
O318 Sc308 2.105 . S
O318 C312 1.268 . S
O319 Sc309 2.105 . S
O319 C313 1.268 . S
O320 Sc310 2.105 . S
O320 C314 1.268 . S
O321 Sc308 2.105 . S
O321 C315 1.268 . S
O322 Sc310 2.105 . S
O322 C316 1.268 . S
O323 Sc309 2.105 . S
O323 C317 1.268 . S
O324 Sc308 2.105 . S
O324 C316 1.268 . S
O325 Sc309 2.105 . S
O325 C315 1.268 . S
O326 Sc310 2.105 . S
O326 C317 1.268 . S
O327 Sc308 2.105 . S
O327 C313 1.268 . S
O328 Sc310 2.105 . S
O328 C312 1.268 . S
O329 Sc309 2.105 . S
O329 C314 1.268 . S
Sc330 O333 2.025 . S
Sc330 O340 2.105 . S
Sc330 O343 2.105 . S
Sc330 O346 2.105 . S
Sc330 O349 2.105 . S
Sc331 O333 2.025 . S
Sc331 O341 2.105 . S
Sc331 O345 2.105 . S
Sc331 O347 2.105 . S
Sc331 O351 2.105 . S
Sc332 O333 2.025 . S
Sc332 O342 2.105 . S
Sc332 O344 2.105 . S
Sc332 O348 2.105 . S
Sc332 O350 2.105 . S
O333 Sc330 2.025 . S
O333 Sc331 2.025 . S
O333 Sc332 2.025 . S
C334 O340 1.268 . S
C334 O350 1.268 . S
C335 O341 1.268 . S
C335 O349 1.268 . S
C336 O342 1.268 . S
C336 O351 1.268 . S
C337 O343 1.268 . S
C337 O347 1.268 . S
C338 O344 1.268 . S
C338 O346 1.268 . S
C339 O345 1.268 . S
C339 O348 1.268 . S
O340 Sc330 2.105 . S
O340 C334 1.268 . S
O341 Sc331 2.105 . S
O341 C335 1.268 . S
O342 Sc332 2.105 . S
O342 C336 1.268 . S
O343 Sc330 2.105 . S
O343 C337 1.268 . S
O344 Sc332 2.105 . S
O344 C338 1.268 . S
O345 Sc331 2.105 . S
O345 C339 1.268 . S
O346 Sc330 2.105 . S
O346 C338 1.268 . S
O347 Sc331 2.105 . S
O347 C337 1.268 . S
O348 Sc332 2.105 . S
O348 C339 1.268 . S
O349 Sc330 2.105 . S
O349 C335 1.268 . S
O350 Sc332 2.105 . S
O350 C334 1.268 . S
O351 Sc331 2.105 . S
O351 C336 1.268 . S
C5 C270 1.773 1_554 S
C293 C27 1.773 . S
C314 C49 1.773 1_554 S
C336 C75 1.773 . S
C94 C181 1.773 1_556 S
C203 C117 1.773 . S
C138 C225 1.773 1_554 S
C251 C160 1.773 . S
C48 C4 2.217 1_566 S
C26 C74 2.217 1_565 S
C92 C136 2.217 1_566 S
C158 C118 2.217 1_565 S
C180 C224 2.217 1_554 S
C250 C202 2.217 . S
C312 C268 2.217 1_554 S
C334 C294 2.217 . S
C9 C71 2.240 . S
C53 C31 2.240 . S
C161 C95 2.240 . S
C139 C116 2.240 . S
C247 C185 2.240 . S
C229 C207 2.240 . S
C271 C337 2.240 . S
C315 C292 2.240 . S
C8 C140 1.427 . S
C30 C162 1.427 1_455 S
C96 C52 1.427 . S
C114 C70 1.427 1_655 S
C184 C316 1.427 1_655 S
C206 C338 1.427 . S
C272 C228 1.427 1_455 S
C290 C246 1.427 . S
C6 C317 1.329 . S
C28 C339 1.329 . S
C273 C50 1.329 . S
C291 C73 1.329 . S
C227 C93 1.329 . S
C119 C248 1.329 . S
C137 C183 1.329 . S
C205 C159 1.329 . S
C141 C182 1.329 . S
C204 C163 1.329 . S
C97 C226 1.329 . S
C249 C115 1.329 . S
C51 C269 1.329 . S
C295 C72 1.329 . S
C313 C7 1.329 . S
C29 C335 1.329 . S
