# Generated by pormake.
# Topology swl, (7)-cn, num edge types: 1
# Building blocks:
#     Node 0, Type 0, BuildingBlock: HICVOG_clean_sbu_0, # of connection points: 7
#     Node 1, Type 0, BuildingBlock: HICVOG_clean_sbu_0, # of connection points: 7
#     Node 2, Type 0, BuildingBlock: HICVOG_clean_sbu_0, # of connection points: 7
#     Node 3, Type 0, BuildingBlock: HICVOG_clean_sbu_0, # of connection points: 7
#     Node 4, Type 0, BuildingBlock: HICVOG_clean_sbu_0, # of connection points: 7
#     Node 5, Type 0, BuildingBlock: HICVOG_clean_sbu_0, # of connection points: 7
#     Node 6, Type 0, BuildingBlock: HICVOG_clean_sbu_0, # of connection points: 7
#     Node 7, Type 0, BuildingBlock: HICVOG_clean_sbu_0, # of connection points: 7
#     Node 8, Type 0, BuildingBlock: HICVOG_clean_sbu_0, # of connection points: 7
#     Node 9, Type 0, BuildingBlock: HICVOG_clean_sbu_0, # of connection points: 7
#     Node 10, Type 0, BuildingBlock: HICVOG_clean_sbu_0, # of connection points: 7
#     Node 11, Type 0, BuildingBlock: HICVOG_clean_sbu_0, # of connection points: 7
#     Node 12, Type 0, BuildingBlock: HICVOG_clean_sbu_0, # of connection points: 7
#     Node 13, Type 0, BuildingBlock: HICVOG_clean_sbu_0, # of connection points: 7
#     Node 14, Type 0, BuildingBlock: HICVOG_clean_sbu_0, # of connection points: 7
#     Node 15, Type 0, BuildingBlock: HICVOG_clean_sbu_0, # of connection points: 7
#     Edge 16, Type (0, 0), BuildingBlock: ZUJKAS_clean_linker_0, # of connection points: 2
#     Edge 17, Type (0, 0), BuildingBlock: ZUJKAS_clean_linker_0, # of connection points: 2
#     Edge 18, Type (0, 0), BuildingBlock: ZUJKAS_clean_linker_0, # of connection points: 2
#     Edge 19, Type (0, 0), BuildingBlock: ZUJKAS_clean_linker_0, # of connection points: 2
#     Edge 20, Type (0, 0), BuildingBlock: ZUJKAS_clean_linker_0, # of connection points: 2
#     Edge 21, Type (0, 0), BuildingBlock: ZUJKAS_clean_linker_0, # of connection points: 2
#     Edge 22, Type (0, 0), BuildingBlock: ZUJKAS_clean_linker_0, # of connection points: 2
#     Edge 23, Type (0, 0), BuildingBlock: ZUJKAS_clean_linker_0, # of connection points: 2
#     Edge 24, Type (0, 0), BuildingBlock: ZUJKAS_clean_linker_0, # of connection points: 2
#     Edge 25, Type (0, 0), BuildingBlock: ZUJKAS_clean_linker_0, # of connection points: 2
#     Edge 26, Type (0, 0), BuildingBlock: ZUJKAS_clean_linker_0, # of connection points: 2
#     Edge 27, Type (0, 0), BuildingBlock: ZUJKAS_clean_linker_0, # of connection points: 2
#     Edge 28, Type (0, 0), BuildingBlock: ZUJKAS_clean_linker_0, # of connection points: 2
#     Edge 29, Type (0, 0), BuildingBlock: ZUJKAS_clean_linker_0, # of connection points: 2
#     Edge 30, Type (0, 0), BuildingBlock: ZUJKAS_clean_linker_0, # of connection points: 2
#     Edge 31, Type (0, 0), BuildingBlock: ZUJKAS_clean_linker_0, # of connection points: 2
#     Edge 32, Type (0, 0), BuildingBlock: ZUJKAS_clean_linker_0, # of connection points: 2
#     Edge 33, Type (0, 0), BuildingBlock: ZUJKAS_clean_linker_0, # of connection points: 2
#     Edge 34, Type (0, 0), BuildingBlock: ZUJKAS_clean_linker_0, # of connection points: 2
#     Edge 35, Type (0, 0), BuildingBlock: ZUJKAS_clean_linker_0, # of connection points: 2
#     Edge 36, Type (0, 0), BuildingBlock: ZUJKAS_clean_linker_0, # of connection points: 2
#     Edge 37, Type (0, 0), BuildingBlock: ZUJKAS_clean_linker_0, # of connection points: 2
#     Edge 38, Type (0, 0), BuildingBlock: ZUJKAS_clean_linker_0, # of connection points: 2
#     Edge 39, Type (0, 0), BuildingBlock: ZUJKAS_clean_linker_0, # of connection points: 2
#     Edge 40, Type (0, 0), BuildingBlock: ZUJKAS_clean_linker_0, # of connection points: 2
#     Edge 41, Type (0, 0), BuildingBlock: ZUJKAS_clean_linker_0, # of connection points: 2
#     Edge 42, Type (0, 0), BuildingBlock: ZUJKAS_clean_linker_0, # of connection points: 2
#     Edge 43, Type (0, 0), BuildingBlock: ZUJKAS_clean_linker_0, # of connection points: 2
#     Edge 44, Type (0, 0), BuildingBlock: ZUJKAS_clean_linker_0, # of connection points: 2
#     Edge 45, Type (0, 0), BuildingBlock: ZUJKAS_clean_linker_0, # of connection points: 2
#     Edge 46, Type (0, 0), BuildingBlock: ZUJKAS_clean_linker_0, # of connection points: 2
#     Edge 47, Type (0, 0), BuildingBlock: ZUJKAS_clean_linker_0, # of connection points: 2
#     Edge 48, Type (0, 0), BuildingBlock: ZUJKAS_clean_linker_0, # of connection points: 2
#     Edge 49, Type (0, 0), BuildingBlock: ZUJKAS_clean_linker_0, # of connection points: 2
#     Edge 50, Type (0, 0), BuildingBlock: ZUJKAS_clean_linker_0, # of connection points: 2
#     Edge 51, Type (0, 0), BuildingBlock: ZUJKAS_clean_linker_0, # of connection points: 2
#     Edge 52, Type (0, 0), BuildingBlock: ZUJKAS_clean_linker_0, # of connection points: 2
#     Edge 53, Type (0, 0), BuildingBlock: ZUJKAS_clean_linker_0, # of connection points: 2
#     Edge 54, Type (0, 0), BuildingBlock: ZUJKAS_clean_linker_0, # of connection points: 2
#     Edge 55, Type (0, 0), BuildingBlock: ZUJKAS_clean_linker_0, # of connection points: 2
#     Edge 56, Type (0, 0), BuildingBlock: ZUJKAS_clean_linker_0, # of connection points: 2
#     Edge 57, Type (0, 0), BuildingBlock: ZUJKAS_clean_linker_0, # of connection points: 2
#     Edge 58, Type (0, 0), BuildingBlock: ZUJKAS_clean_linker_0, # of connection points: 2
#     Edge 59, Type (0, 0), BuildingBlock: ZUJKAS_clean_linker_0, # of connection points: 2
#     Edge 60, Type (0, 0), BuildingBlock: ZUJKAS_clean_linker_0, # of connection points: 2
#     Edge 61, Type (0, 0), BuildingBlock: ZUJKAS_clean_linker_0, # of connection points: 2
#     Edge 62, Type (0, 0), BuildingBlock: ZUJKAS_clean_linker_0, # of connection points: 2
#     Edge 63, Type (0, 0), BuildingBlock: ZUJKAS_clean_linker_0, # of connection points: 2
#     Edge 64, Type (0, 0), BuildingBlock: ZUJKAS_clean_linker_0, # of connection points: 2
#     Edge 65, Type (0, 0), BuildingBlock: ZUJKAS_clean_linker_0, # of connection points: 2
#     Edge 66, Type (0, 0), BuildingBlock: ZUJKAS_clean_linker_0, # of connection points: 2
#     Edge 67, Type (0, 0), BuildingBlock: ZUJKAS_clean_linker_0, # of connection points: 2
#     Edge 68, Type (0, 0), BuildingBlock: ZUJKAS_clean_linker_0, # of connection points: 2
#     Edge 69, Type (0, 0), BuildingBlock: ZUJKAS_clean_linker_0, # of connection points: 2
#     Edge 70, Type (0, 0), BuildingBlock: ZUJKAS_clean_linker_0, # of connection points: 2
#     Edge 71, Type (0, 0), BuildingBlock: ZUJKAS_clean_linker_0, # of connection points: 2
# Relax obj value: 0.076
# Max RMSD: 0.169
# Mean RMSD: 0.169
data_MOF--net-swl--node1-HICVOG_clean_sbu_0--edge1-ZUJKAS_clean_linker_0
_symmetry_space_group_name_H-M    P1
_symmetry_Int_Tables_number       1
_symmetry_cell_setting            triclinic
loop_
_symmetry_equiv_pos_as_xyz
'x, y, z'
_cell_length_a     22.496808
_cell_length_b     97.103169
_cell_length_c     68.583407
_cell_angle_alpha  90.00915
_cell_angle_beta   89.980773
_cell_angle_gamma 90.071635
loop_
_atom_site_label
_atom_site_type_symbol
_atom_site_fract_x
_atom_site_fract_y
_atom_site_fract_z
_atom_type_partial_charge
Zn0 Zn 0.07335 0.11467 0.50622 0.0
C1 C 0.15659 0.14206 0.47123 0.0
N2 N 0.11082 0.13927 0.45931 0.0
C3 C 0.07745 0.1307 0.47008 0.0
N4 N 0.10158 0.12826 0.48774 0.0
N5 N 0.15151 0.13548 0.4885 0.0
C6 C 0.31301 0.1304 0.5072 0.0
O7 O 0.28354 0.11888 0.50998 0.0
O8 O 0.98278 0.1134 0.50386 0.0
Zn9 Zn 0.19468 0.14095 0.51164 0.0
N10 N 0.11188 0.09746 0.49929 0.0
C11 C 0.19729 0.08692 0.48536 0.0
C12 C 0.16576 0.09867 0.49046 0.0
C13 C 0.08837 0.08486 0.50347 0.0
N14 N 0.17414 0.07438 0.48954 0.0
C15 C 0.12058 0.07287 0.49857 0.0
O16 O 0.17865 0.13013 0.53643 0.0
C17 C 0.13731 0.12315 0.54447 0.0
O18 O 0.09396 0.11827 0.53467 0.0
H19 H 0.18436 0.10869 0.48745 0.0
H20 H 0.04526 0.08432 0.51039 0.0
C21 C 0.19039 0.17112 0.51809 0.0
C22 C 0.1587 0.18304 0.52367 0.0
C23 C 0.07207 0.1694 0.52836 0.0
C24 C 0.10345 0.15772 0.52294 0.0
N25 N 0.16174 0.15875 0.51798 0.0
N26 N 0.10035 0.18172 0.52865 0.0
H27 H 0.23703 0.17157 0.5143 0.0
C28 C 0.95381 0.12466 0.50459 0.0
O29 O 0.98342 0.1362 0.50696 0.0
O30 O 0.28428 0.1417 0.50702 0.0
H31 H 0.08173 0.14779 0.52278 0.0
H32 H 0.2401 0.08774 0.47826 0.0
H33 H 0.02567 0.16871 0.53239 0.0
Zn34 Zn 0.07148 0.14039 0.79042 0.0
C35 C 0.16449 0.12087 0.83253 0.0
N36 N 0.12444 0.12705 0.84406 0.0
C37 C 0.08849 0.13316 0.83113 0.0
N38 N 0.1051 0.13077 0.81254 0.0
N39 N 0.15371 0.12306 0.81339 0.0
C40 C 0.30941 0.12248 0.78845 0.0
O41 O 0.28015 0.13298 0.78115 0.0
O42 O 0.98061 0.14141 0.79295 0.0
Zn43 Zn 0.18885 0.11203 0.79268 0.0
N44 N 0.10859 0.1584 0.79114 0.0
C45 C 0.2004 0.17003 0.79617 0.0
C46 C 0.16754 0.15794 0.79541 0.0
C47 C 0.08084 0.1706 0.78743 0.0
N48 N 0.17311 0.18217 0.79244 0.0
C49 C 0.11416 0.18294 0.78803 0.0
O50 O 0.16518 0.11721 0.76502 0.0
C51 C 0.12785 0.12435 0.75538 0.0
O52 O 0.09138 0.13243 0.76382 0.0
H53 H 0.189 0.14818 0.79808 0.0
H54 H 0.03418 0.17056 0.78366 0.0
C55 C 0.18651 0.0818 0.79313 0.0
C56 C 0.15845 0.06907 0.79691 0.0
C57 C 0.07313 0.081 0.80831 0.0
C58 C 0.10061 0.0935 0.80431 0.0
N59 N 0.15683 0.09372 0.79702 0.0
N60 N 0.10253 0.06914 0.80452 0.0
H61 H 0.23123 0.0823 0.78737 0.0
C62 C 0.95187 0.1301 0.79351 0.0
O63 O 0.98187 0.11851 0.79269 0.0
O64 O 0.28004 0.11205 0.79438 0.0
H65 H 0.07713 0.10299 0.80705 0.0
H66 H 0.24735 0.16979 0.79955 0.0
H67 H 0.0286 0.0807 0.81425 0.0
Zn68 Zn 0.95405 0.89138 0.53723 0.0
C69 C 0.84237 0.87704 0.57806 0.0
N70 N 0.87665 0.88484 0.58967 0.0
C71 C 0.92043 0.88874 0.57758 0.0
N72 N 0.91346 0.88356 0.55947 0.0
N73 N 0.864 0.87613 0.55976 0.0
C74 C 0.71358 0.87418 0.54291 0.0
O75 O 0.74312 0.88584 0.54217 0.0
O76 O 0.04413 0.89117 0.54089 0.0
Zn77 Zn 0.83339 0.86386 0.53986 0.0
N78 N 0.92364 0.90999 0.53621 0.0
C79 C 0.83372 0.92282 0.53693 0.0
C80 C 0.8633 0.91029 0.53651 0.0
C81 C 0.95616 0.92184 0.53592 0.0
N82 N 0.86575 0.93464 0.53677 0.0
C83 C 0.92626 0.93461 0.53617 0.0
O84 O 0.85526 0.86886 0.51186 0.0
C85 C 0.89464 0.87555 0.50237 0.0
O86 O 0.93282 0.88314 0.51094 0.0
H87 H 0.83848 0.90077 0.53661 0.0
H88 H 1.0042 0.92131 0.53582 0.0
C89 C 0.84272 0.83386 0.54001 0.0
C90 C 0.87296 0.82139 0.54363 0.0
C91 C 0.95338 0.83407 0.55718 0.0
C92 C 0.92357 0.84632 0.55346 0.0
N93 N 0.86892 0.84602 0.54502 0.0
N94 N 0.92761 0.82197 0.55214 0.0
H95 H 0.79983 0.834 0.5329 0.0
C96 C 0.0722 0.87981 0.53989 0.0
O97 O 0.042 0.86844 0.53667 0.0
O98 O 0.7426 0.86293 0.54214 0.0
H99 H 0.94421 0.85602 0.55715 0.0
H100 H 0.78568 0.92319 0.53736 0.0
H101 H 0.99691 0.83417 0.56387 0.0
Zn102 Zn 0.83404 0.89104 0.25551 0.0
C103 C 0.9339 0.87254 0.21456 0.0
N104 N 0.89644 0.87909 0.2025 0.0
C105 C 0.85724 0.88465 0.21497 0.0
N106 N 0.86976 0.88159 0.2337 0.0
N107 N 0.9186 0.87399 0.23344 0.0
C108 C 0.07253 0.87316 0.25613 0.0
O109 O 0.04347 0.88365 0.26354 0.0
O110 O 0.74353 0.89165 0.25221 0.0
Zn111 Zn 0.95248 0.86314 0.2542 0.0
N112 N 0.86991 0.90915 0.25474 0.0
C113 C 0.96201 0.92085 0.25063 0.0
C114 C 0.92961 0.9087 0.25177 0.0
C115 C 0.84099 0.92138 0.25691 0.0
N116 N 0.93352 0.93302 0.25276 0.0
C117 C 0.87385 0.93377 0.25597 0.0
O118 O 0.93197 0.86926 0.2818 0.0
C119 C 0.89303 0.87617 0.29114 0.0
O120 O 0.85442 0.88351 0.28237 0.0
H121 H 0.95185 0.89892 0.25025 0.0
H122 H 0.79338 0.92139 0.2591 0.0
C123 C 0.94391 0.83289 0.25372 0.0
C124 C 0.91117 0.82057 0.2515 0.0
C125 C 0.82491 0.83372 0.24427 0.0
C126 C 0.85713 0.8458 0.24672 0.0
N127 N 0.91589 0.8452 0.25125 0.0
N128 N 0.85252 0.82147 0.24673 0.0
H129 H 0.99078 0.83279 0.25722 0.0
C130 C 0.71418 0.88085 0.25658 0.0
O131 O 0.74331 0.8701 0.26318 0.0
O132 O 0.04311 0.86254 0.25094 0.0
H133 H 0.83534 0.85563 0.24508 0.0
H134 H 1.0095 0.92062 0.24816 0.0
H135 H 0.77819 0.83406 0.24058 0.0
Zn136 Zn 0.19587 0.63951 1.01108 0.0
C137 C 0.08002 0.62885 0.96927 0.0
N138 N 0.11439 0.63708 0.95831 0.0
C139 C 0.15947 0.64008 0.97043 0.0
N140 N 0.15303 0.63393 0.98796 0.0
N141 N 0.1029 0.62679 0.98721 0.0
C142 C 0.95359 0.62314 1.00291 0.0
O143 O 0.98181 0.63492 1.00474 0.0
O144 O 0.28544 0.64015 1.00631 0.0
Zn145 Zn 0.07414 0.6134 1.00586 0.0
N146 N 0.1629 0.65734 1.01716 0.0
C147 C 0.07271 0.66813 0.02673 0.0
C148 C 0.10413 0.6564 1.02152 0.0
C149 C 0.192 0.66965 1.01768 0.0
N150 N 0.10143 0.68038 0.02743 0.0
C151 C 0.16028 0.6816 1.02306 0.0
O152 O 0.09477 0.61698 0.03444 0.0
C153 C 0.1384 0.62185 0.04415 0.0
O154 O 0.1796 0.6288 0.03599 0.0
H155 H 0.08205 0.64652 1.02106 0.0
H156 H 0.239 0.67001 1.01438 0.0
C157 C 0.08813 0.58367 1.00346 0.0
C158 C 0.11961 0.57154 0.99875 0.0
C159 C 0.19684 0.58524 0.98514 0.0
C160 C 0.16605 0.59713 0.9901 0.0
N161 N 0.11224 0.59615 0.99903 0.0
N162 N 0.17309 0.5728 0.98959 0.0
H163 H 0.04509 0.58331 1.01045 0.0
C164 C 0.31365 0.6288 1.00717 0.0
O165 O 0.28373 0.61748 1.01095 0.0
O166 O 0.98369 0.61203 1.00315 0.0
H167 H 0.18517 0.60708 0.9869 0.0
H168 H 0.02593 0.66752 0.03029 0.0
H169 H 0.23958 0.58587 0.97795 0.0
Zn170 Zn 0.07894 0.63988 0.28934 0.0
C171 C 0.19225 0.62703 0.33065 0.0
N172 N 0.15866 0.63513 0.34202 0.0
C173 C 0.11426 0.63873 0.32999 0.0
N174 N 0.1202 0.63304 0.31212 0.0
N175 N 0.16966 0.62565 0.31255 0.0
C176 C 0.31975 0.62284 0.29597 0.0
O177 O 0.29116 0.6346 0.29485 0.0
O178 O 0.9889 0.63998 0.29323 0.0
Zn179 Zn 0.19904 0.61269 0.29337 0.0
N180 N 0.11122 0.65816 0.28626 0.0
C181 C 0.20295 0.6701 0.28279 0.0
C182 C 0.17121 0.65787 0.28408 0.0
C183 C 0.08099 0.67031 0.28686 0.0
N184 N 0.17326 0.68221 0.2835 0.0
C185 C 0.11305 0.68277 0.2854 0.0
O186 O 0.17671 0.61659 0.26506 0.0
C187 C 0.13643 0.62276 0.25532 0.0
O188 O 0.09835 0.63053 0.26357 0.0
H189 H 0.19413 0.6481 0.28356 0.0
H190 H 0.03325 0.67024 0.28878 0.0
C191 C 0.18913 0.58288 0.29563 0.0
C192 C 0.15996 0.57052 0.30071 0.0
C193 C 0.08115 0.58355 0.31452 0.0
C194 C 0.10967 0.59569 0.30922 0.0
N195 N 0.16323 0.59516 0.30005 0.0
N196 N 0.10679 0.57132 0.31015 0.0
H197 H 0.2319 0.58284 0.28843 0.0
C198 C 0.96114 0.62857 0.292 0.0
O199 O 0.99178 0.61731 0.28861 0.0
O200 O 0.28986 0.61168 0.29554 0.0
H201 H 0.08918 0.60548 0.31243 0.0
H202 H 0.2508 0.67 0.28122 0.0
H203 H 0.03872 0.58383 0.32193 0.0
Zn204 Zn 0.8233 0.3633 0.03972 0.0
C205 C 0.90733 0.38761 0.07882 0.0
N206 N 0.86296 0.38332 0.09041 0.0
C207 C 0.82968 0.37576 0.07824 0.0
N208 N 0.85235 0.37536 0.06006 0.0
N209 N 0.90165 0.38287 0.06037 0.0
C210 C 0.06084 0.3797 0.03697 0.0
O211 O 0.03037 0.36899 0.03083 0.0
O212 O 0.73253 0.36171 0.04186 0.0
Zn213 Zn 0.94229 0.39116 0.03826 0.0
N214 N 0.86175 0.34575 0.04427 0.0
C215 C 0.94988 0.33446 0.05478 0.0
C216 C 0.91765 0.34647 0.05173 0.0
C217 C 0.83662 0.33342 0.0396 0.0
N218 N 0.92518 0.32218 0.05005 0.0
C219 C 0.86933 0.3212 0.04252 0.0
O220 O 0.9206 0.38348 1.01161 0.0
C221 C 0.88323 0.37585 1.00273 0.0
O222 O 0.84451 0.3688 1.01195 0.0
H223 H 0.93747 0.35632 0.05508 0.0
H224 H 0.79266 0.33323 0.03323 0.0
C225 C 0.9449 0.42161 0.03755 0.0
C226 C 0.91552 0.43441 0.03874 0.0
C227 C 0.82288 0.42277 0.04098 0.0
C228 C 0.8519 0.41019 0.03966 0.0
N229 N 0.91211 0.4098 0.03819 0.0
N230 N 0.85523 0.43453 0.04053 0.0
H231 H 0.99282 0.42101 0.03649 0.0
C232 C 0.70209 0.37276 0.04266 0.0
O233 O 0.73018 0.38461 0.04202 0.0
O234 O 0.03285 0.39071 0.04121 0.0
H235 H 0.82673 0.40072 0.04001 0.0
H236 H 0.99444 0.33489 0.06067 0.0
H237 H 0.77501 0.4232 0.04236 0.0
Zn238 Zn 0.83642 0.39015 0.75674 0.0
C239 C 0.95071 0.37648 0.71619 0.0
N240 N 0.91749 0.38441 0.70449 0.0
C241 C 0.8728 0.38822 0.71626 0.0
N242 N 0.87828 0.38284 0.73434 0.0
N243 N 0.92763 0.37539 0.73428 0.0
C244 C 0.07756 0.37249 0.75087 0.0
O245 O 0.04948 0.38434 0.75118 0.0
O246 O 0.74637 0.3902 0.75265 0.0
Zn247 Zn 0.95647 0.36295 0.75425 0.0
N248 N 0.86917 0.40845 0.75974 0.0
C249 C 0.96142 0.42021 0.76298 0.0
C250 C 0.92952 0.40813 0.76019 0.0
C251 C 0.83886 0.42048 0.76212 0.0
N252 N 0.93162 0.43217 0.76549 0.0
C253 C 0.87114 0.43278 0.7652 0.0
O254 O 0.9353 0.36796 0.78228 0.0
C255 C 0.8939 0.37408 0.79156 0.0
O256 O 0.85483 0.38129 0.78282 0.0
H257 H 0.95256 0.39845 0.75863 0.0
H258 H 0.79077 0.42036 0.76214 0.0
C259 C 0.94239 0.33308 0.75429 0.0
C260 C 0.90964 0.32087 0.75118 0.0
C261 C 0.83078 0.33412 0.73787 0.0
C262 C 0.86305 0.34612 0.74109 0.0
N263 N 0.91812 0.34541 0.74919 0.0
N264 N 0.8546 0.32185 0.74304 0.0
H265 H 0.98567 0.33288 0.76115 0.0
C266 C 0.71855 0.37891 0.75527 0.0
O267 O 0.74912 0.36793 0.7602 0.0
O268 O 0.04719 0.36143 0.75205 0.0
H269 H 0.84387 0.35596 0.73738 0.0
H270 H 1.00949 0.42007 0.76337 0.0
H271 H 0.78685 0.33455 0.73149 0.0
Zn272 Zn 0.69691 0.14111 1.00867 0.0
C273 C 0.60625 0.11878 0.96891 0.0
N274 N 0.64695 0.12432 0.95692 0.0
C275 C 0.68216 0.13121 0.96929 0.0
N276 N 0.66421 0.13001 0.98795 0.0
N277 N 0.61575 0.1222 0.98777 0.0
C278 C 0.45909 0.12299 1.01342 0.0
O279 O 0.48863 0.13334 1.02109 0.0
O280 O 0.78775 0.14178 1.0059 0.0
Zn281 Zn 0.57918 0.11277 1.00973 0.0
N282 N 0.66097 0.15905 1.00521 0.0
C283 C 0.5722 0.17089 0.9967 0.0
C284 C 0.60342 0.15869 0.99918 0.0
C285 C 0.68872 0.17123 1.00907 0.0
N286 N 0.5995 0.18302 1.00061 0.0
C287 C 0.65698 0.18366 1.00678 0.0
O288 O 0.60108 0.12011 0.0366 0.0
C289 C 0.63819 0.12782 0.04547 0.0
O290 O 0.67587 0.13515 0.03622 0.0
H291 H 0.58161 0.14895 0.99651 0.0
H292 H 0.73403 0.17114 1.01433 0.0
C293 C 0.58312 0.08247 1.01281 0.0
C294 C 0.61417 0.06984 1.01207 0.0
C295 C 0.7019 0.0819 1.00297 0.0
C296 C 0.67135 0.09429 1.00393 0.0
N297 N 0.61271 0.09439 1.00871 0.0
N298 N 0.67279 0.07005 1.0071 0.0
H299 H 0.53685 0.08294 1.01704 0.0
C300 C 0.81684 0.13093 1.01014 0.0
O301 O 0.78727 0.12006 1.01618 0.0
O302 O 0.48819 0.11257 1.00737 0.0
H303 H 0.69447 0.10382 1.00102 0.0
H304 H 0.5264 0.17075 0.99191 0.0
H305 H 0.74856 0.08169 0.99916 0.0
Zn306 Zn 0.68997 0.11397 0.29153 0.0
C307 C 0.5749 0.12754 0.33185 0.0
N308 N 0.60801 0.11958 0.34356 0.0
C309 C 0.65296 0.11585 0.33183 0.0
N310 N 0.64778 0.1213 0.31381 0.0
N311 N 0.59835 0.12872 0.31382 0.0
C312 C 0.44985 0.13146 0.29643 0.0
O313 O 0.47905 0.11977 0.29549 0.0
O314 O 0.77998 0.11406 0.29554 0.0
Zn315 Zn 0.57006 0.14131 0.29399 0.0
N316 N 0.65859 0.09553 0.28929 0.0
C317 C 0.56754 0.08317 0.28705 0.0
C318 C 0.59837 0.09555 0.28793 0.0
C319 C 0.6899 0.08352 0.28945 0.0
N320 N 0.59832 0.0712 0.2873 0.0
C321 C 0.65876 0.07091 0.28837 0.0
O322 O 0.59178 0.13642 0.26596 0.0
C323 C 0.63229 0.13001 0.25664 0.0
O324 O 0.67062 0.12258 0.26536 0.0
H325 H 0.57461 0.1052 0.28767 0.0
H326 H 0.73782 0.08382 0.29069 0.0
C327 C 0.5836 0.17124 0.29505 0.0
C328 C 0.61577 0.18343 0.29897 0.0
C329 C 0.69469 0.16993 0.31181 0.0
C330 C 0.66316 0.15798 0.30767 0.0
N331 N 0.60824 0.15881 0.29949 0.0
N332 N 0.67044 0.18229 0.30735 0.0
H333 H 0.53966 0.17149 0.2887 0.0
C334 C 0.80836 0.12533 0.29347 0.0
O335 O 0.77844 0.13652 0.28908 0.0
O336 O 0.47929 0.14268 0.29601 0.0
H337 H 0.68257 0.14807 0.31089 0.0
H338 H 0.51954 0.08306 0.28612 0.0
H339 H 0.73834 0.1694 0.31837 0.0
Zn340 Zn 0.44785 0.89043 0.04052 0.0
C341 C 0.36193 0.86385 0.07603 0.0
N342 N 0.40568 0.86734 0.08841 0.0
C343 C 0.43997 0.87557 0.07742 0.0
N344 N 0.41826 0.87718 0.05925 0.0
N345 N 0.36888 0.86977 0.05836 0.0
C346 C 0.20878 0.87432 0.0392 0.0
O347 O 0.2384 0.88584 0.03652 0.0
O348 O 0.53846 0.89159 0.04323 0.0
Zn349 Zn 0.32716 0.86383 0.03524 0.0
N350 N 0.40999 0.90778 0.04701 0.0
C351 C 0.32397 0.91874 0.05991 0.0
C352 C 0.35581 0.90684 0.05572 0.0
C353 C 0.43372 0.92025 0.04223 0.0
N354 N 0.34723 0.93115 0.05504 0.0
C355 C 0.40134 0.93234 0.04629 0.0
O356 O 0.34389 0.87437 1.0103 0.0
C357 C 0.38474 0.88147 1.00223 0.0
O358 O 0.42757 0.88662 1.01203 0.0
H359 H 0.33696 0.89691 0.05918 0.0
H360 H 0.4762 0.92064 0.03486 0.0
C361 C 0.33225 0.83365 0.02927 0.0
C362 C 0.36442 0.82171 0.02413 0.0
C363 C 0.45152 0.8353 1.02025 0.0
C364 C 0.41965 0.84702 0.02521 0.0
N365 N 0.36092 0.84602 0.02958 0.0
N366 N 0.42325 0.82299 1.01977 0.0
H367 H 0.28524 0.83322 0.03255 0.0
C368 C 0.5676 0.88034 0.04285 0.0
O369 O 0.53818 0.86875 0.04073 0.0
O370 O 0.23747 0.86302 0.03951 0.0
H371 H 0.44128 0.85696 0.02543 0.0
H372 H 0.28077 0.91812 0.06679 0.0
H373 H 0.49829 0.83597 1.0167 0.0
Zn374 Zn 0.33048 0.89044 0.75346 0.0
C375 C 0.42406 0.86697 0.71584 0.0
N376 N 0.38352 0.87183 0.70325 0.0
C377 C 0.34789 0.87922 0.7149 0.0
N378 N 0.36546 0.87893 0.73366 0.0
N379 N 0.414 0.87124 0.73428 0.0
C380 C 0.56837 0.87345 0.75954 0.0
O381 O 0.53744 0.88366 0.76693 0.0
O382 O 0.24022 0.88947 0.75009 0.0
Zn383 Zn 0.4502 0.86282 0.75679 0.0
N384 N 0.36186 0.90867 0.74823 0.0
C385 C 0.44573 0.92123 0.73675 0.0
C386 C 0.41848 0.90879 0.74127 0.0
C387 C 0.33158 0.92062 0.75129 0.0
N388 N 0.41578 0.93313 0.73975 0.0
C389 C 0.35947 0.9333 0.74705 0.0
O390 O 0.42849 0.87126 0.78298 0.0
C391 C 0.39097 0.87916 0.79128 0.0
O392 O 0.35245 0.88589 0.78153 0.0
H393 H 0.44243 0.89926 0.73924 0.0
H394 H 0.28658 0.9202 0.7568 0.0
C395 C 0.44518 0.83246 0.75985 0.0
C396 C 0.41261 0.81999 0.76 0.0
C397 C 0.32351 0.83267 0.75501 0.0
C398 C 0.35564 0.84488 0.75506 0.0
N399 N 0.41563 0.84458 0.75734 0.0
N400 N 0.35259 0.82061 0.75751 0.0
H401 H 0.49274 0.83266 0.76205 0.0
C402 C 0.20287 0.89381 0.76261 0.0
O403 O 0.22257 0.89979 0.77853 0.0
O404 O 0.54075 0.86271 0.75385 0.0
H405 H 0.33288 0.8546 0.75335 0.0
H406 H 0.49057 0.92145 0.73105 0.0
H407 H 0.27577 0.83277 0.75315 0.0
Zn408 Zn 0.57714 0.61461 0.5092 0.0
C409 C 0.69022 0.62893 0.46868 0.0
N410 N 0.65639 0.62113 0.45695 0.0
C411 C 0.61208 0.61725 0.46884 0.0
N412 N 0.6184 0.62241 0.48701 0.0
N413 N 0.66793 0.62983 0.48691 0.0
C414 C 0.81856 0.63211 0.50329 0.0
O415 O 0.79012 0.62029 0.50308 0.0
O416 O 0.48709 0.61501 0.50532 0.0
Zn417 Zn 0.69779 0.64207 0.507 0.0
N418 N 0.6072 0.59597 0.51019 0.0
C419 C 0.69708 0.58311 0.50959 0.0
C420 C 0.66756 0.59565 0.51017 0.0
C421 C 0.57459 0.58412 0.51007 0.0
N422 N 0.66497 0.57131 0.50929 0.0
C423 C 0.60445 0.57135 0.50962 0.0
O424 O 0.67526 0.63708 0.53496 0.0
C425 C 0.63572 0.63039 0.54437 0.0
O426 O 0.59781 0.62278 0.53569 0.0
H427 H 0.69249 0.60517 0.51038 0.0
H428 H 0.52655 0.58465 0.50995 0.0
C429 C 0.68815 0.67206 0.50668 0.0
C430 C 0.65771 0.6845 0.50306 0.0
C431 C 0.5772 0.67173 0.48973 0.0
C432 C 0.6072 0.65951 0.49345 0.0
N433 N 0.66201 0.65987 0.50178 0.0
N434 N 0.60293 0.68387 0.49465 0.0
H435 H 0.73115 0.67196 0.51372 0.0
C436 C 0.4594 0.62629 0.508 0.0
O437 O 0.48996 0.63725 0.51311 0.0
O438 O 0.78858 0.64318 0.50497 0.0
H439 H 0.58657 0.64979 0.48989 0.0
H440 H 0.74513 0.58273 0.50938 0.0
H441 H 0.53354 0.67159 0.48312 0.0
Zn442 Zn 0.57114 0.6408 0.79367 0.0
C443 C 0.65594 0.61523 0.83087 0.0
N444 N 0.61211 0.61914 0.84293 0.0
C445 C 0.57814 0.62702 0.8314 0.0
N446 N 0.60006 0.62801 0.81315 0.0
N447 N 0.64935 0.62054 0.81278 0.0
C448 C 0.80924 0.62439 0.79224 0.0
O449 O 0.77955 0.63569 0.78826 0.0
O450 O 0.48033 0.64224 0.79613 0.0
Zn451 Zn 0.69056 0.61362 0.78996 0.0
N452 N 0.60988 0.65821 0.79937 0.0
C453 C 0.69603 0.66927 0.81208 0.0
C454 C 0.66347 0.65737 0.80847 0.0
C455 C 0.58749 0.67059 0.79361 0.0
N456 N 0.6741 0.68159 0.80624 0.0
C457 C 0.62064 0.68269 0.79707 0.0
O458 O 0.67264 0.62311 0.7642 0.0
C459 C 0.63327 0.63043 0.75579 0.0
O460 O 0.59183 0.63631 0.76538 0.0
H461 H 0.68142 0.64751 0.81267 0.0
H462 H 0.54552 0.6709 0.78593 0.0
C463 C 0.68595 0.5833 0.78451 0.0
C464 C 0.65284 0.57119 0.78088 0.0
C465 C 0.56392 0.58438 0.78098 0.0
C466 C 0.59669 0.59625 0.78434 0.0
N467 N 0.65671 0.59553 0.78611 0.0
N468 N 0.59264 0.5722 0.77927 0.0
H469 H 0.73391 0.58312 0.78555 0.0
C470 C 0.45062 0.63106 0.79638 0.0
O471 O 0.47951 0.61936 0.79503 0.0
O472 O 0.78054 0.61313 0.79396 0.0
H473 H 0.57472 0.6061 0.78533 0.0
H474 H 0.73876 0.66873 0.81926 0.0
H475 H 0.51607 0.58483 0.77955 0.0
Zn476 Zn 0.45158 0.39169 0.54139 0.0
C477 C 0.36802 0.36442 0.57653 0.0
N478 N 0.41377 0.36719 0.58846 0.0
C479 C 0.4471 0.37578 0.57771 0.0
N480 N 0.42301 0.37823 0.56003 0.0
N481 N 0.37305 0.37101 0.55927 0.0
C482 C 0.2125 0.37642 0.5397 0.0
O483 O 0.243 0.38768 0.53606 0.0
O484 O 0.54205 0.39307 0.54378 0.0
Zn485 Zn 0.32997 0.36541 0.53619 0.0
N486 N 0.41362 0.409 0.5481 0.0
C487 C 0.32945 0.42 0.56213 0.0
C488 C 0.36013 0.40808 0.55724 0.0
C489 C 0.43754 0.42147 0.54341 0.0
N490 N 0.35303 0.43241 0.55744 0.0
C491 C 0.40622 0.43362 0.54809 0.0
O492 O 0.34708 0.3759 0.51118 0.0
C493 C 0.38825 0.38292 0.50313 0.0
O494 O 0.43118 0.38797 0.51295 0.0
H495 H 0.3412 0.39814 0.56066 0.0
H496 H 0.48036 0.42178 0.53627 0.0
C497 C 0.33282 0.3352 0.52981 0.0
C498 C 0.36429 0.32319 0.5245 0.0
C499 C 0.45225 0.33653 0.52089 0.0
C500 C 0.4211 0.34831 0.52603 0.0
N501 N 0.36225 0.34747 0.53031 0.0
N502 N 0.42322 0.32432 0.5202 0.0
H503 H 0.28578 0.3349 0.53306 0.0
C504 C 0.57219 0.38197 0.54397 0.0
O505 O 0.54397 0.37017 0.54242 0.0
O506 O 0.24028 0.36502 0.54074 0.0
H507 H 0.44345 0.35816 0.52648 0.0
H508 H 0.28696 0.41941 0.56947 0.0
H509 H 0.49909 0.33707 0.51739 0.0
Zn510 Zn 0.3311 0.39193 0.25485 0.0
C511 C 0.42169 0.3681 0.21679 0.0
N512 N 0.38241 0.37338 0.20416 0.0
C513 C 0.34639 0.38066 0.21583 0.0
N514 N 0.36273 0.37994 0.23475 0.0
N515 N 0.411 0.37211 0.2353 0.0
C516 C 0.57688 0.36083 0.26682 0.0
O517 O 0.55547 0.35613 0.28336 0.0
O518 O 0.2401 0.39156 0.25414 0.0
Zn519 Zn 0.45055 0.36403 0.25755 0.0
N520 N 0.36102 0.41011 0.2484 0.0
C521 C 0.43899 0.42288 0.23346 0.0
C522 C 0.41414 0.41036 0.23894 0.0
C523 C 0.33204 0.42199 0.25299 0.0
N524 N 0.41029 0.43471 0.23798 0.0
C525 C 0.35753 0.43474 0.24773 0.0
O526 O 0.43176 0.37264 0.28385 0.0
C527 C 0.39606 0.38094 0.29222 0.0
O528 O 0.35783 0.38782 0.28259 0.0
H529 H 0.43721 0.40089 0.23565 0.0
H530 H 0.28974 0.42142 0.26044 0.0
C531 C 0.44883 0.33357 0.25921 0.0
C532 C 0.41727 0.32101 0.25897 0.0
C533 C 0.32632 0.33338 0.25782 0.0
C534 C 0.3575 0.34573 0.25818 0.0
N535 N 0.41788 0.34563 0.25869 0.0
N536 N 0.3568 0.32137 0.25818 0.0
H537 H 0.49691 0.33379 0.25944 0.0
C538 C 0.21185 0.38255 0.26399 0.0
O539 O 0.24218 0.37391 0.27486 0.0
O540 O 0.54069 0.36438 0.25347 0.0
H541 H 0.33379 0.35541 0.25783 0.0
H542 H 0.48101 0.42322 0.2258 0.0
H543 H 0.27827 0.33332 0.25724 0.0
H544 H 0.3952 0.30245 0.50013 0.0
H545 H 0.35846 0.27884 0.49978 0.0
H546 H 0.23542 0.28862 0.54596 0.0
H547 H 0.27198 0.31241 0.54643 0.0
H548 H 0.36385 0.26061 0.53077 0.0
H549 H 0.1309 0.26829 0.50625 0.0
H550 H 0.1873 0.28141 0.50365 0.0
H551 H 0.15263 0.27851 0.52689 0.0
C552 C 0.35984 0.29966 0.51011 0.0
C553 C 0.33636 0.30937 0.52324 0.0
C554 C 0.33892 0.28614 0.50987 0.0
C555 C 0.29398 0.282 0.52273 0.0
C556 C 0.2694 0.29169 0.53564 0.0
H557 H 0.12771 0.20392 0.54781 0.0
H558 H 0.16364 0.2276 0.54773 0.0
C559 C 0.29024 0.3053 0.53586 0.0
C560 C 0.2756 0.26733 0.52323 0.0
H561 H 0.15741 0.24581 0.51643 0.0
C562 C 0.31875 0.25735 0.52758 0.0
C563 C 0.21681 0.26314 0.51903 0.0
C564 C 0.16924 0.27336 0.51352 0.0
C565 C 0.30447 0.24328 0.52814 0.0
C566 C 0.24567 0.23908 0.52397 0.0
C567 C 0.20251 0.24907 0.51961 0.0
C568 C 0.22731 0.22442 0.52455 0.0
C569 C 0.35203 0.23305 0.53365 0.0
C570 C 0.25165 0.21472 0.51162 0.0
C571 C 0.23123 0.20107 0.51164 0.0
C572 C 0.18585 0.19697 0.52452 0.0
C573 C 0.16251 0.20672 0.53763 0.0
C574 C 0.18296 0.22028 0.53763 0.0
H575 H 0.3906 0.23812 0.54079 0.0
H576 H 0.33406 0.22506 0.54364 0.0
H577 H 0.36828 0.22782 0.52029 0.0
H578 H 0.28519 0.21778 0.50115 0.0
H579 H 0.24936 0.19394 0.50107 0.0
H580 H 0.89314 0.9583 0.55398 0.0
H581 H 0.93326 0.98139 0.54883 0.0
H582 H 0.06846 0.96474 0.51106 0.0
H583 H 0.02822 0.94149 0.51601 0.0
H584 H 0.05359 0.99286 0.55372 0.0
H585 H 0.97068 0.99289 0.47723 0.0
H586 H 0.94468 0.98071 0.49521 0.0
H587 H 0.0167 0.97862 0.48436 0.0
C588 C 0.93198 0.9595 0.54479 0.0
C589 C 0.95741 0.94806 0.53537 0.0
C590 C 0.95489 0.9727 0.54191 0.0
C591 C 1.00327 0.97477 0.5294 0.0
C592 C 0.0307 0.96333 0.52066 0.0
H593 H 0.15391 0.04916 0.48055 0.0
H594 H 0.12668 0.0256 0.48871 0.0
C595 C 1.00803 0.95005 0.52365 0.0
C596 C 0.02208 0.98899 0.52461 0.0
H597 H 0.02019 0.01282 0.48805 0.0
C598 C 0.04661 0.99724 0.53936 0.0
C599 C 1.01241 0.99466 0.5059 0.0
C600 C 0.9843 0.98635 0.48974 0.0
C601 C 0.06258 0.01101 0.53579 0.0
C602 C 0.05223 0.01674 0.51711 0.0
C603 C 0.0279 0.00844 0.50237 0.0
C604 C 0.06776 0.03122 0.51232 0.0
C605 C 0.09148 0.01918 0.55193 0.0
C606 C 0.04286 0.0423 0.52266 0.0
C607 C 0.05873 0.05589 0.51813 0.0
C608 C 0.09932 0.05866 0.50298 0.0
C609 C 0.12286 0.04749 0.4924 0.0
C610 C 0.10723 0.03397 0.49699 0.0
H611 H 0.11077 0.01236 0.56329 0.0
H612 H 0.12719 0.02594 0.54615 0.0
H613 H 0.05753 0.02578 0.55903 0.0
H614 H 1.0113 0.04044 0.53429 0.0
H615 H 0.04017 0.06409 0.52687 0.0
H616 H 0.13952 0.04495 0.81588 0.0
H617 H 0.17491 0.02206 0.80705 0.0
H618 H 0.27381 0.03938 0.75908 0.0
H619 H 0.23848 0.0624 0.76776 0.0
H620 H 0.15343 0.00901 0.77151 0.0
H621 H 0.39557 0.01414 0.7858 0.0
H622 H 0.34162 0.02611 0.7954 0.0
H623 H 0.36453 0.02723 0.77035 0.0
C624 C 0.16939 0.04395 0.80357 0.0
C625 C 0.18643 0.05556 0.79263 0.0
C626 C 0.18953 0.03085 0.79856 0.0
C627 C 0.22727 0.02903 0.78251 0.0
C628 C 0.24557 0.04059 0.77175 0.0
H629 H 0.37889 0.9571 0.72732 0.0
H630 H 0.343 0.98012 0.73526 0.0
C631 C 0.22548 0.05377 0.77679 0.0
C632 C 0.24448 0.01493 0.77651 0.0
H633 H 0.36349 0.99362 0.77038 0.0
C634 C 0.19935 0.00562 0.7713 0.0
C635 C 0.30436 0.01056 0.77625 0.0
C636 C 0.35439 0.01997 0.7824 0.0
C637 C 0.21257 0.99208 0.76559 0.0
C638 C 0.27245 0.9877 0.76538 0.0
C639 C 0.31759 0.99702 0.77054 0.0
C640 C 0.28959 0.97351 0.75976 0.0
C641 C 0.16252 0.98267 0.75945 0.0
C642 C 0.27084 0.96211 0.77078 0.0
C643 C 0.2912 0.94887 0.76625 0.0
C644 C 0.33101 0.94684 0.75067 0.0
C645 C 0.34842 0.95828 0.73944 0.0
C646 C 0.32799 0.97146 0.74394 0.0
H647 H 0.12166 0.98853 0.75576 0.0
H648 H 0.17556 0.97636 0.74665 0.0
H649 H 0.15171 0.97558 0.77164 0.0
H650 H 0.24212 0.96351 0.78329 0.0
H651 H 0.27788 0.94038 0.7755 0.0
H652 H 0.17304 0.20533 0.77433 0.0
H653 H 0.13536 0.22849 0.76903 0.0
H654 H 0.95992 0.21526 0.78614 0.0
H655 H 0.99763 0.19202 0.7922 0.0
H656 H 0.04887 0.23772 0.74409 0.0
H657 H 0.9884 0.24871 0.8211 0.0
H658 H 0.03385 0.2342 0.81422 0.0
H659 H 0.95463 0.23353 0.81099 0.0
C660 C 0.12638 0.20728 0.77707 0.0
C661 C 0.08851 0.19672 0.7837 0.0
C662 C 0.10491 0.22055 0.77394 0.0
C663 C 0.04507 0.22366 0.77743 0.0
C664 C 1.00655 0.21313 0.78366 0.0
H665 H 0.84411 0.29892 0.76299 0.0
H666 H 0.8779 0.27552 0.76973 0.0
C667 C 0.02808 0.19978 0.78685 0.0
C668 C 0.02371 0.23794 0.77438 0.0
H669 H 0.96425 0.26578 0.79777 0.0
C670 C 0.03041 0.24386 0.75583 0.0
C671 C 0.99991 0.24595 0.78976 0.0
C672 C 0.99415 0.24036 0.8102 0.0
C673 C 0.01348 0.25752 0.75217 0.0
C674 C 0.98989 0.26553 0.76754 0.0
C675 C 0.98267 0.25961 0.78606 0.0
C676 C 0.9707 0.27995 0.76447 0.0
C677 C 0.02001 0.26323 0.73182 0.0
C678 C 1.01197 0.29027 0.75966 0.0
C679 C 0.99285 0.30372 0.75581 0.0
C680 C 0.93204 0.30704 0.75673 0.0
C681 C 0.8912 0.2967 0.76202 0.0
C682 C 0.91038 0.28333 0.76596 0.0
H683 H 0.02728 0.25496 0.72087 0.0
H684 H 0.97995 0.2692 0.72761 0.0
H685 H 0.0588 0.27029 0.73136 0.0
H686 H 0.05888 0.28787 0.75863 0.0
H687 H 0.02546 0.31135 0.75154 0.0
H688 H 0.93564 0.79842 0.53438 0.0
H689 H 0.89824 0.7754 0.52724 0.0
H690 H 0.7183 0.78987 0.53396 0.0
H691 H 0.75527 0.81303 0.54117 0.0
H692 H 0.83039 0.75876 0.55124 0.0
H693 H 0.71236 0.76946 0.48177 0.0
H694 H 0.76517 0.78134 0.49227 0.0
H695 H 0.69088 0.78028 0.5018 0.0
C696 C 0.88801 0.79678 0.53425 0.0
C697 C 0.84855 0.80767 0.53818 0.0
C698 C 0.86675 0.78359 0.53014 0.0
C699 C 0.80552 0.78094 0.52984 0.0
C700 C 0.76575 0.79176 0.53369 0.0
H701 H 0.5949 0.70747 0.51223 0.0
H702 H 0.63217 0.73051 0.51931 0.0
C703 C 0.78701 0.80502 0.53776 0.0
C704 C 0.78389 0.76672 0.52623 0.0
H705 H 0.69996 0.74719 0.49529 0.0
C706 C 0.80201 0.75621 0.53897 0.0
C707 C 0.74694 0.76343 0.51022 0.0
C708 C 0.72803 0.77418 0.4956 0.0
C709 C 0.78342 0.74252 0.53632 0.0
C710 C 0.74649 0.73922 0.5203 0.0
C711 C 0.72834 0.74974 0.50756 0.0
C712 C 0.72491 0.725 0.51669 0.0
C713 C 0.80233 0.73177 0.55093 0.0
C714 C 0.76474 0.7142 0.51284 0.0
C715 C 0.74356 0.70092 0.50879 0.0
C716 C 0.68204 0.69824 0.50842 0.0
C717 C 0.64252 0.70913 0.51234 0.0
C718 C 0.6637 0.72233 0.51641 0.0
H719 H 0.81798 0.73649 0.56477 0.0
H720 H 0.76519 0.7246 0.55426 0.0
H721 H 0.83948 0.72567 0.54474 0.0
H722 H 0.81218 0.7161 0.51254 0.0
H723 H 0.77536 0.69292 0.50539 0.0
H724 H 0.91344 0.9579 0.24083 0.0
H725 H 0.87792 0.98109 0.24755 0.0
H726 H 0.73779 0.9645 0.28349 0.0
H727 H 0.77421 0.94116 0.27738 0.0
H728 H 0.77007 0.99341 0.24067 0.0
H729 H 0.81966 0.99188 0.31999 0.0
H730 H 0.84721 0.97908 0.30319 0.0
H731 H 0.77154 0.97837 0.31154 0.0
C732 C 0.87494 0.95912 0.25016 0.0
C733 C 0.84684 0.9476 0.25857 0.0
C734 C 0.85464 0.97241 0.25393 0.0
C735 C 0.80592 0.97454 0.26629 0.0
C736 C 0.77623 0.96309 0.2742 0.0
H737 H 0.6175 0.04697 0.30349 0.0
H738 H 0.65727 0.02384 0.29876 0.0
C739 C 0.79661 0.94972 0.27044 0.0
C740 C 0.78697 0.98879 0.27086 0.0
H741 H 0.77058 0.01179 0.30819 0.0
C742 C 0.77035 0.99745 0.25542 0.0
C743 C 0.78779 0.99404 0.29012 0.0
C744 C 0.808 0.98542 0.30717 0.0
C745 C 0.75344 0.01116 0.25874 0.0
C746 C 0.75402 0.01638 0.27798 0.0
C747 C 0.77061 0.00775 0.29344 0.0
C748 C 0.73417 0.03057 0.28241 0.0
C749 C 0.73373 0.01985 0.24169 0.0
C750 C 0.7654 0.04207 0.27533 0.0
C751 C 0.74285 0.05537 0.27806 0.0
C752 C 0.68865 0.05732 0.28791 0.0
C753 C 0.65914 0.0458 0.29572 0.0
C754 C 0.68182 0.03257 0.29309 0.0
H755 H 0.72478 0.01354 0.2285 0.0
H756 H 0.69294 0.02573 0.24541 0.0
H757 H 0.76923 0.02738 0.23807 0.0
H758 H 0.80634 0.04071 0.26724 0.0
H759 H 0.76634 0.06399 0.27166 0.0
H760 H 1.00675 0.81276 0.27461 0.0
H761 H 0.04174 0.78931 0.28076 0.0
H762 H 0.90633 0.77331 0.24246 0.0
H763 H 0.87255 0.79658 0.23561 0.0
H764 H 0.97808 0.76796 0.29716 0.0
H765 H 0.05237 0.75344 0.22294 0.0
H766 H 0.03774 0.77105 0.2298 0.0
H767 H 0.97746 0.75973 0.22336 0.0
C768 C 0.98542 0.80432 0.26704 0.0
C769 C 0.93715 0.80664 0.25439 0.0
C770 C 1.00513 0.79089 0.27075 0.0
C771 C 0.97719 0.77958 0.26185 0.0
C772 C 0.92946 0.78188 0.24916 0.0
H773 H 1.00644 0.69036 0.26887 0.0
H774 H 0.96874 0.7139 0.26486 0.0
C775 C 0.90989 0.79523 0.2454 0.0
C776 C 0.99553 0.76529 0.2665 0.0
H777 H 0.04025 0.73507 0.24571 0.0
C778 C 0.99214 0.7608 0.28594 0.0
C779 C 0.01359 0.75593 0.25183 0.0
C780 C 0.02111 0.76031 0.23085 0.0
C781 C 1.0053 0.74713 0.29103 0.0
C782 C 0.02256 0.73776 0.27631 0.0
C783 C 0.02616 0.74225 0.25691 0.0
C784 C 0.04075 0.72347 0.28081 0.0
C785 C 0.99987 0.74272 0.31204 0.0
C786 C 0.09314 0.72111 0.29131 0.0
C787 C 0.11473 0.70774 0.29357 0.0
C788 C 0.08425 0.69647 0.28544 0.0
C789 C 0.0304 0.6988 0.27558 0.0
C790 C 1.00906 0.71223 0.27316 0.0
H791 H 0.97294 0.7501 0.32071 0.0
H792 H 0.97936 0.73234 0.31313 0.0
H793 H 0.04487 0.74219 0.31862 0.0
H794 H 0.11868 0.72965 0.29707 0.0
H795 H 0.15637 0.70627 0.30122 0.0
H796 H 0.25268 0.69245 1.00123 0.0
H797 H 0.28975 0.71621 1.00201 0.0
H798 H 0.16477 0.72599 0.04762 0.0
H799 H 0.12853 0.70236 0.0473 0.0
H800 H 0.22007 0.73987 0.99483 0.0
H801 H 0.32046 0.74187 0.06864 0.0
H802 H 0.3036 0.72585 0.05643 0.0
H803 H 0.24565 0.73542 0.06836 0.0
C804 C 0.23417 0.69955 1.01178 0.0
C805 C 0.18793 0.69545 0.02433 0.0
C806 C 0.25505 0.71315 1.01208 0.0
C807 C 0.23049 0.7228 0.02505 0.0
C808 C 0.18515 0.71866 0.03777 0.0
H809 H 0.2721 0.81085 0.04599 0.0
H810 H 0.23536 0.78706 0.04536 0.0
C811 C 0.16419 0.70515 0.03744 0.0
C812 C 0.24914 0.73743 0.02453 0.0
H813 H 0.30538 0.76336 0.05269 0.0
C814 C 0.23919 0.74499 1.00741 0.0
C815 C 0.27341 0.7441 0.04106 0.0
C816 C 0.28695 0.73638 0.05962 0.0
C817 C 0.25205 0.75913 1.00646 0.0
C818 C 0.27633 0.7658 1.02298 0.0
C819 C 0.28626 0.75824 0.0401 0.0
C820 C 0.29498 0.78043 1.02245 0.0
C821 C 0.23854 0.76685 0.9879 0.0
C822 C 0.34045 0.78455 1.00977 0.0
C823 C 0.36124 0.79807 1.01002 0.0
C824 C 0.33717 0.80781 1.02301 0.0
C825 C 0.29086 0.80372 0.03554 0.0
C826 C 0.27016 0.7901 0.03532 0.0
H827 H 0.20515 0.76135 0.97884 0.0
H828 H 0.22175 0.77737 0.99108 0.0
H829 H 0.27988 0.76785 0.97918 0.0
H830 H 0.36101 0.77719 0.99999 0.0
H831 H 0.39696 0.80085 1.00018 0.0
H832 H 0.04043 0.56341 0.02771 0.0
H833 H 1.01002 0.53994 0.03577 0.0
H834 H 0.12012 0.52416 0.98948 0.0
H835 H 0.15007 0.54753 0.98095 0.0
H836 H 0.95522 0.51961 1.01006 0.0
H837 H 0.17393 0.50264 0.03899 0.0
H838 H 0.15439 0.52058 0.0363 0.0
H839 H 0.17572 0.51064 1.01536 0.0
C840 C 0.05752 0.55504 1.01895 0.0
C841 C 0.09754 0.55748 1.00352 0.0
C842 C 0.04047 0.54159 1.02375 0.0
C843 C 0.0636 0.53034 1.01341 0.0
C844 C 0.10268 0.5327 0.99788 0.0
H845 H 1.01186 0.4416 1.01608 0.0
H846 H 0.05066 0.46495 1.0108 0.0
C847 C 0.11955 0.5461 0.993 0.0
C848 C 0.04598 0.5161 1.01853 0.0
H849 H 0.10013 0.48538 0.03505 0.0
C850 C 0.98672 0.51214 1.01565 0.0
C851 C 0.08746 0.50638 0.02563 0.0
C852 C 0.15139 0.51024 0.02942 0.0
C853 C 0.9679 0.49861 1.01938 0.0
C854 C 1.00923 0.48889 0.02666 0.0
C855 C 0.06858 0.49286 0.02952 0.0
C856 C 0.99113 0.47461 0.03148 0.0
C857 C 0.90423 0.49478 1.01499 0.0
C858 C 0.94681 0.47225 0.04545 0.0
C859 C 0.92456 0.45901 0.04843 0.0
C860 C 0.94691 0.4478 0.03774 0.0
C861 C 0.99413 0.45001 0.02467 0.0
C862 C 0.01606 0.46334 1.02155 0.0
H863 H 0.88343 0.50211 1.00461 0.0
H864 H 0.90122 0.48424 1.00877 0.0
H865 H 0.87806 0.49502 0.0287 0.0
H866 H 0.92807 0.48074 0.05364 0.0
H867 H 0.88861 0.4576 0.05875 0.0
H868 H 0.2324 0.56288 0.2699 0.0
H869 H 0.26431 0.53959 0.26134 0.0
H870 H 0.17285 0.52346 0.31165 0.0
H871 H 0.14093 0.54665 0.32044 0.0
H872 H 0.33038 0.52002 0.28291 0.0
H873 H 0.10299 0.501 0.2664 0.0
H874 H 0.1202 0.51908 0.2688 0.0
H875 H 0.11108 0.50856 0.29015 0.0
C876 C 0.21988 0.55445 0.27938 0.0
C877 C 0.18416 0.55669 0.29594 0.0
C878 C 0.23778 0.54111 0.27434 0.0
C879 C 0.21999 0.52979 0.28566 0.0
C880 C 0.18592 0.53202 0.30247 0.0
H881 H 0.28522 0.44148 0.27904 0.0
H882 H 0.25016 0.46445 0.28814 0.0
C883 C 0.16795 0.54531 0.3075 0.0
C884 C 0.23704 0.51562 0.27994 0.0
H885 H 0.18005 0.48433 0.26676 0.0
C886 C 0.29758 0.51223 0.27929 0.0
C887 C 0.19404 0.50547 0.27531 0.0
C888 C 0.12844 0.5087 0.27501 0.0
C889 C 0.31632 0.49889 0.27439 0.0
C890 C 0.27334 0.48876 0.2697 0.0
C891 C 0.21279 0.49212 0.27042 0.0
C892 C 0.29074 0.47472 0.2635 0.0
C893 C 0.38194 0.49568 0.27457 0.0
C894 C 0.32344 0.47286 0.24632 0.0
C895 C 0.34312 0.45978 0.24099 0.0
C896 C 0.33017 0.44822 0.25265 0.0
C897 C 0.29534 0.45005 0.26952 0.0
C898 C 0.27563 0.4632 0.27485 0.0
H899 H 0.40751 0.50337 0.28314 0.0
H900 H 0.39028 0.48528 0.28074 0.0
H901 H 0.39904 0.49582 0.25939 0.0
H902 H 0.33448 0.48158 0.23716 0.0
H903 H 0.3693 0.45875 0.22781 0.0
H904 H 0.93355 0.29899 0.03107 0.0
H905 H 0.89837 0.27573 0.02421 0.0
H906 H 0.71831 0.28847 0.0359 0.0
H907 H 0.75305 0.31185 0.04278 0.0
H908 H 0.83999 0.25823 0.04927 0.0
H909 H 0.70245 0.26859 0.98371 0.0
H910 H 0.75545 0.28088 0.99311 0.0
H911 H 0.68387 0.279 1.00447 0.0
C912 C 0.88634 0.2969 0.03207 0.0
C913 C 0.84612 0.30736 0.03729 0.0
C914 C 0.86635 0.28358 0.02812 0.0
C915 C 0.8057 0.2804 0.0293 0.0
C916 C 0.7652 0.29079 0.03446 0.0
H917 H 0.59741 0.20641 1.01873 0.0
H918 H 0.63623 0.22949 0.02444 0.0
C919 C 0.78516 0.30417 0.03835 0.0
C920 C 0.78554 0.26605 0.02594 0.0
H921 H 0.69512 0.24621 0.99748 0.0
C922 C 0.80855 0.25558 0.03788 0.0
C923 C 0.74467 0.26263 1.01104 0.0
C924 C 0.72052 0.27333 0.99721 0.0
C925 C 0.79075 0.24181 0.03561 0.0
C926 C 0.74948 0.23841 1.02083 0.0
C927 C 0.72678 0.24886 1.00881 0.0
C928 C 0.72743 0.22416 1.018 0.0
C929 C 0.81497 0.23107 0.04937 0.0
C930 C 0.76596 0.21347 1.0125 0.0
C931 C 0.74389 0.20017 1.00921 0.0
C932 C 0.68278 0.19739 1.01129 0.0
C933 C 0.64464 0.20817 1.01691 0.0
C934 C 0.66671 0.22138 1.02021 0.0
H935 H 0.83555 0.23578 0.0625 0.0
H936 H 0.77931 0.2239 0.05411 0.0
H937 H 0.84955 0.22496 0.04174 0.0
H938 H 0.81287 0.21548 1.01033 0.0
H939 H 0.77442 0.19224 1.00448 0.0
H940 H 0.75626 0.56084 0.79726 0.0
H941 H 0.79473 0.53731 0.79426 0.0
H942 H 0.64798 0.52669 0.75672 0.0
H943 H 0.61022 0.55008 0.75914 0.0
H944 H 0.73421 0.51305 0.8051 0.0
H945 H 0.7908 0.5122 0.7264 0.0
H946 H 0.77857 0.52801 0.73966 0.0
H947 H 0.71647 0.51794 0.73127 0.0
C948 C 0.73298 0.55361 0.78798 0.0
C949 C 0.68036 0.55742 0.7783 0.0
C950 C 0.75476 0.54013 0.78642 0.0
C951 C 0.72462 0.53032 0.77504 0.0
C952 C 0.67261 0.53415 0.76525 0.0
H953 H 0.76549 0.44277 0.75015 0.0
H954 H 0.7259 0.46617 0.75376 0.0
C955 C 0.65084 0.54753 0.76681 0.0
C956 C 0.74517 0.51585 0.77416 0.0
H957 H 0.78729 0.49049 0.74255 0.0
C958 C 0.7463 0.50814 0.79146 0.0
C959 C 0.76031 0.50944 0.75631 0.0
C960 C 0.76206 0.51735 0.73737 0.0
C961 C 0.76127 0.4941 0.79134 0.0
C962 C 0.77626 0.4877 0.77348 0.0
C963 C 0.77516 0.49541 0.75619 0.0
C964 C 0.79691 0.47323 0.77256 0.0
C965 C 0.75993 0.4862 0.81027 0.0
C966 C 0.84967 0.46948 0.78198 0.0
C967 C 0.87216 0.45619 0.78001 0.0
C968 C 0.84252 0.44633 0.76853 0.0
C969 C 0.7889 0.45001 0.75938 0.0
C970 C 0.76647 0.46341 0.7613 0.0
H971 H 0.7318 0.4914 0.82137 0.0
H972 H 0.74295 0.47557 0.80803 0.0
H973 H 0.80573 0.48549 0.81618 0.0
H974 H 0.87446 0.47696 0.79043 0.0
H975 H 0.91354 0.45371 0.78728 0.0
H976 H 0.49621 0.06163 1.00865 0.0
H977 H 0.45536 0.03868 1.01521 0.0
H978 H 0.62957 0.02434 0.03164 0.0
H979 H 0.67033 0.04715 0.02581 0.0
H980 H 0.48731 0.01396 0.99738 0.0
H981 H 0.52836 0.01108 0.07688 0.0
H982 H 0.53104 0.0271 0.06356 0.0
H983 H 0.59378 0.01562 0.06336 0.0
C984 C 0.5256 0.05371 1.01411 0.0
C985 C 0.58658 0.05634 1.0169 0.0
C986 C 0.50223 0.04055 1.01768 0.0
C987 C 0.53926 0.02986 0.02423 0.0
C988 C 0.59988 0.03249 0.02704 0.0
H989 H 0.51685 0.94204 0.04542 0.0
H990 H 0.54947 0.96569 0.03884 0.0
C991 C 0.62319 0.04555 1.0235 0.0
C992 C 0.51584 0.01574 0.02725 0.0
H993 H 0.50827 0.98974 0.06071 0.0
C994 C 0.49122 0.00871 1.01128 0.0
C995 C 0.52125 0.00889 0.04538 0.0
C996 C 0.5445 0.0161 0.06332 0.0
C997 C 0.47345 0.99488 1.01282 0.0
C998 C 0.48011 0.98797 0.03083 0.0
C999 C 0.50392 0.99504 0.04686 0.0
C1000 C 0.46092 0.97351 0.03355 0.0
C1001 C 0.44905 0.98764 0.99508 0.0
C1002 C 0.40044 0.97012 0.03276 0.0
C1003 C 0.3817 0.95667 0.0365 0.0
C1004 C 0.42307 0.9463 0.04105 0.0
C1005 C 0.48388 0.94969 0.04159 0.0
C1006 C 0.50257 0.96321 0.03798 0.0
H1007 H 0.45885 0.99338 0.98144 0.0
H1008 H 0.46775 0.97709 0.99383 0.0
H1009 H 0.40008 0.98669 0.9965 0.0
H1010 H 0.36755 0.97796 0.02965 0.0
H1011 H 0.33455 0.95442 0.03596 0.0
H1012 H 0.53186 0.19127 0.27128 0.0
H1013 H 0.50122 0.21468 0.26302 0.0
H1014 H 0.61965 0.23093 0.30672 0.0
H1015 H 0.64984 0.20766 0.31546 0.0
H1016 H 0.45231 0.23577 0.28929 0.0
H1017 H 0.66637 0.25129 0.25524 0.0
H1018 H 0.64564 0.23349 0.25884 0.0
H1019 H 0.67203 0.24358 0.279 0.0
C1020 C 0.55077 0.19973 0.27944 0.0
C1021 C 0.59326 0.19746 0.29419 0.0
C1022 C 0.53355 0.21315 0.27453 0.0
C1023 C 0.55894 0.22451 0.28406 0.0
C1024 C 0.6004 0.2223 0.29894 0.0
H1025 H 0.51686 0.31342 0.27978 0.0
H1026 H 0.55345 0.2899 0.28494 0.0
C1027 C 0.61741 0.20895 0.30393 0.0
C1028 C 0.54148 0.23873 0.27878 0.0
H1029 H 0.59521 0.26895 0.26027 0.0
C1030 C 0.48332 0.24301 0.28281 0.0
C1031 C 0.58236 0.24814 0.27051 0.0
C1032 C 0.64502 0.24392 0.26548 0.0
C1033 C 0.46514 0.25659 0.27915 0.0
C1034 C 0.50588 0.26602 0.27074 0.0
C1035 C 0.56409 0.26171 0.26668 0.0
C1036 C 0.48839 0.28035 0.266 0.0
C1037 C 0.40291 0.2608 0.28483 0.0
C1038 C 0.44148 0.28281 0.25302 0.0
C1039 C 0.4205 0.29616 0.25012 0.0
C1040 C 0.44663 0.30738 0.25987 0.0
C1041 C 0.49614 0.30502 0.27192 0.0
C1042 C 0.51684 0.29158 0.27497 0.0
H1043 H 0.38355 0.2537 0.29584 0.0
H1044 H 0.40223 0.27142 0.29082 0.0
H1045 H 0.37397 0.26052 0.27173 0.0
H1046 H 0.41995 0.27434 0.24554 0.0
H1047 H 0.38271 0.29767 0.24057 0.0
H1048 H 0.52965 0.81157 0.75384 0.0
H1049 H 0.57001 0.78837 0.75829 0.0
H1050 H 0.39812 0.7739 0.77703 0.0
H1051 H 0.35751 0.79691 0.77313 0.0
H1052 H 0.56509 0.77117 0.79433 0.0
H1053 H 0.44803 0.74782 0.73114 0.0
H1054 H 0.45993 0.76616 0.73345 0.0
H1055 H 0.40197 0.75787 0.74714 0.0
C1056 C 0.50048 0.80356 0.75919 0.0
C1057 C 0.44011 0.80623 0.76317 0.0
C1058 C 0.52362 0.79026 0.76155 0.0
C1059 C 0.48672 0.77942 0.76768 0.0
C1060 C 0.42701 0.78209 0.77194 0.0
H1061 H 0.50607 0.69278 0.79484 0.0
H1062 H 0.47601 0.71635 0.78681 0.0
C1063 C 0.40398 0.7953 0.7697 0.0
C1064 C 0.51009 0.76529 0.77007 0.0
H1065 H 0.49266 0.73234 0.75365 0.0
C1066 C 0.54997 0.76268 0.78531 0.0
C1067 C 0.48964 0.75428 0.75837 0.0
C1068 C 0.44788 0.75663 0.74149 0.0
C1069 C 0.56853 0.74921 0.7896 0.0
C1070 C 0.54764 0.73814 0.778 0.0
C1071 C 0.50849 0.74082 0.76254 0.0
C1072 C 0.56559 0.7237 0.7818 0.0
C1073 C 0.60854 0.74692 0.80696 0.0
C1074 C 0.62567 0.71995 0.78111 0.0
C1075 C 0.64295 0.70654 0.78571 0.0
C1076 C 0.60043 0.69652 0.79078 0.0
C1077 C 0.53993 0.70017 0.79076 0.0
C1078 C 0.52271 0.71366 0.78629 0.0
H1079 H 0.60726 0.75576 0.81724 0.0
H1080 H 0.59577 0.73744 0.81499 0.0
H1081 H 0.65505 0.74573 0.80185 0.0
H1082 H 0.65936 0.72743 0.77719 0.0
H1083 H 0.68984 0.70403 0.78535 0.0
H1084 H 0.63597 0.54828 0.49008 0.0
H1085 H 0.59621 0.52506 0.4941 0.0
H1086 H 0.46555 0.5405 0.53461 0.0
H1087 H 0.50451 0.56389 0.53029 0.0
H1088 H 0.59849 0.51115 0.52779 0.0
H1089 H 0.36559 0.51476 0.50187 0.0
H1090 H 0.42035 0.52786 0.49668 0.0
H1091 H 0.38404 0.52736 0.52004 0.0
C1092 C 0.59789 0.54678 0.49952 0.0
C1093 C 0.57321 0.55792 0.50981 0.0
C1094 C 0.57528 0.5335 0.50183 0.0
C1095 C 0.52768 0.53102 0.51457 0.0
C1096 C 0.50144 0.54219 0.52437 0.0
H1097 H 0.37584 0.45775 0.56564 0.0
H1098 H 0.40604 0.48107 0.55695 0.0
C1099 C 0.52374 0.55557 0.52189 0.0
C1100 C 0.50971 0.5166 0.51888 0.0
H1101 H 0.39173 0.49442 0.5194 0.0
C1102 C 0.55336 0.50747 0.52578 0.0
C1103 C 0.45081 0.51181 0.51633 0.0
C1104 C 0.40259 0.52091 0.50815 0.0
C1105 C 0.53956 0.49378 0.53049 0.0
C1106 C 0.48064 0.48903 0.52811 0.0
C1107 C 0.43692 0.49812 0.52119 0.0
C1108 C 0.4632 0.47477 0.53325 0.0
C1109 C 0.58777 0.48456 0.53845 0.0
C1110 C 0.48532 0.46347 0.52275 0.0
C1111 C 0.46801 0.45005 0.52762 0.0
C1112 C 0.42825 0.44768 0.54315 0.0
C1113 C 0.40644 0.45911 0.55359 0.0
C1114 C 0.42359 0.47248 0.54866 0.0
H1115 H 0.62768 0.49049 0.543 0.0
H1116 H 0.5712 0.47857 0.55114 0.0
H1117 H 0.60144 0.47713 0.527 0.0
H1118 H 0.51526 0.46506 0.51058 0.0
H1119 H 0.48466 0.44164 0.51884 0.0
H1120 H 0.05137 0.11174 0.56806 0.0
H1121 H 0.0489 0.11122 0.60376 0.0
H1122 H 0.22144 0.13051 0.60571 0.0
H1123 H 0.22401 0.13129 0.57014 0.0
H1124 H 0.12237 0.09943 0.63143 0.0
H1125 H 0.12212 0.15625 0.63928 0.0
H1126 H 0.10923 0.1478 0.61623 0.0
H1127 H 0.18371 0.14986 0.62532 0.0
C1128 C 0.08899 0.11581 0.57605 0.0
C1129 C 0.13766 0.12167 0.56612 0.0
C1130 C 0.08747 0.11551 0.5965 0.0
C1131 C 0.13441 0.12109 0.60747 0.0
C1132 C 0.184 0.12646 0.59761 0.0
H1133 H 0.20344 0.10971 0.73169 0.0
H1134 H 0.20367 0.10856 0.69609 0.0
C1135 C 0.18553 0.12681 0.5772 0.0
C1136 C 0.13133 0.12144 0.6292 0.0
H1137 H 0.13572 0.14328 0.6683 0.0
C1138 C 0.12511 0.10902 0.63949 0.0
C1139 C 0.13392 0.13397 0.63976 0.0
C1140 C 0.13701 0.14774 0.62961 0.0
C1141 C 0.12264 0.10876 0.66001 0.0
C1142 C 0.12753 0.12124 0.67059 0.0
C1143 C 0.13259 0.13368 0.66026 0.0
C1144 C 0.12689 0.1217 0.69235 0.0
C1145 C 0.11371 0.09511 0.67013 0.0
C1146 C 0.0846 0.12974 0.70222 0.0
C1147 C 0.08467 0.13054 0.72262 0.0
C1148 C 0.12724 0.12334 0.73368 0.0
C1149 C 0.16968 0.11531 0.72373 0.0
C1150 C 0.16966 0.11457 0.70332 0.0
H1151 H 0.09401 0.08732 0.66019 0.0
H1152 H 0.1574 0.09116 0.67511 0.0
H1153 H 0.08441 0.09622 0.68307 0.0
H1154 H 0.05131 0.13541 0.69411 0.0
H1155 H 0.05133 0.13684 0.7297 0.0
H1156 H 0.81209 0.88772 0.31626 0.0
H1157 H 0.81235 0.88714 0.35188 0.0
H1158 H 0.97382 0.86329 0.35114 0.0
H1159 H 0.97336 0.86356 0.31547 0.0
H1160 H 0.89433 0.85314 0.37739 0.0
H1161 H 0.91752 0.90949 0.38777 0.0
H1162 H 0.85436 0.90483 0.37322 0.0
H1163 H 0.92814 0.90131 0.36441 0.0
C1164 C 0.84783 0.88236 0.32363 0.0
C1165 C 0.89292 0.87575 0.31288 0.0
C1166 C 0.84807 0.88212 0.34406 0.0
C1167 C 0.89371 0.87539 0.35428 0.0
C1168 C 0.93827 0.86861 0.34362 0.0
H1169 H 0.97603 0.88689 0.47724 0.0
H1170 H 0.97606 0.88622 0.44165 0.0
C1171 C 0.93796 0.8688 0.32318 0.0
C1172 C 0.89466 0.87529 0.37605 0.0
H1173 H 0.89622 0.89628 0.4161 0.0
C1174 C 0.8949 0.86258 0.38585 0.0
C1175 C 0.89626 0.88759 0.38716 0.0
C1176 C 0.89966 0.90158 0.37763 0.0
C1177 C 0.89583 0.86182 0.40635 0.0
C1178 C 0.89536 0.87413 0.41746 0.0
C1179 C 0.89595 0.88684 0.40765 0.0
C1180 C 0.89561 0.87411 0.43924 0.0
C1181 C 0.89868 0.84784 0.4159 0.0
C1182 C 0.8502 0.86758 0.44988 0.0
C1183 C 0.85021 0.86786 0.47034 0.0
C1184 C 0.89531 0.87483 0.48063 0.0
C1185 C 0.94056 0.88141 0.46989 0.0
C1186 C 0.94063 0.88106 0.44948 0.0
H1187 H 0.91555 0.83986 0.40569 0.0
H1188 H 0.92772 0.84804 0.42898 0.0
H1189 H 0.85334 0.84474 0.42054 0.0
H1190 H 0.81416 0.86242 0.44238 0.0
H1191 H 0.81436 0.86278 0.47805 0.0
H1192 H 0.22505 0.63039 0.06958 0.0
H1193 H 0.22494 0.62906 0.10511 0.0
H1194 H 0.05442 0.60879 0.10374 0.0
H1195 H 0.05447 0.60988 0.06806 0.0
H1196 H 0.14725 0.64075 0.1304 0.0
H1197 H 0.1466 0.58413 0.14078 0.0
H1198 H 0.1631 0.59208 0.11761 0.0
H1199 H 0.08733 0.59027 0.12558 0.0
C1200 C 0.18768 0.6255 0.07675 0.0
C1201 C 0.13979 0.62021 0.06581 0.0
C1202 C 0.18769 0.62477 0.09714 0.0
C1203 C 0.14002 0.61869 0.10721 0.0
C1204 C 0.09235 0.61328 0.09637 0.0
H1205 H 0.05643 0.63399 0.22963 0.0
H1206 H 0.05673 0.63264 0.19407 0.0
C1207 C 0.09232 0.61397 0.07592 0.0
C1208 C 0.13918 0.61868 0.12901 0.0
H1209 H 0.1303 0.59778 0.1691 0.0
C1210 C 0.14366 0.63134 0.13884 0.0
C1211 C 0.13524 0.60641 0.14011 0.0
C1212 C 0.13337 0.59243 0.13052 0.0
C1213 C 0.14354 0.63209 0.15933 0.0
C1214 C 0.1377 0.61986 0.17044 0.0
C1215 C 0.13414 0.60717 0.16064 0.0
C1216 C 0.13588 0.62008 0.19222 0.0
C1217 C 0.15089 0.64599 0.16889 0.0
C1218 C 0.17904 0.61306 0.20319 0.0
C1219 C 0.17881 0.61373 0.22364 0.0
C1220 C 0.13518 0.62139 0.23362 0.0
C1221 C 0.09107 0.62809 0.22255 0.0
C1222 C 0.09132 0.62739 0.20214 0.0
H1223 H 0.17082 0.65364 0.15877 0.0
H1224 H 0.10662 0.64989 0.17339 0.0
H1225 H 0.17933 0.64527 0.18208 0.0
H1226 H 0.2137 0.60728 0.19591 0.0
H1227 H 0.21338 0.60839 0.2316 0.0
H1228 H 0.8061 0.36247 0.97803 0.0
H1229 H 0.80886 0.36166 0.9424 0.0
H1230 H 0.96703 0.38677 0.94241 0.0
H1231 H 0.964 0.38789 0.97799 0.0
H1232 H 0.88823 0.39562 0.91558 0.0
H1233 H 0.91734 0.33924 0.90777 0.0
H1234 H 0.85306 0.34383 0.92183 0.0
H1235 H 0.92605 0.34799 0.93081 0.0
C1236 C 0.84168 0.36778 0.9705 0.0
C1237 C 0.88495 0.37521 0.981 0.0
C1238 C 0.84342 0.36723 0.95007 0.0
C1239 C 0.88878 0.37394 0.93965 0.0
C1240 C 0.93173 0.38144 0.95007 0.0
H1241 H 0.97496 0.36208 0.81636 0.0
H1242 H 0.97423 0.36212 0.85207 0.0
C1243 C 0.92993 0.38205 0.97048 0.0
C1244 C 0.89061 0.37352 0.91789 0.0
H1245 H 0.89548 0.3517 0.87873 0.0
C1246 C 0.89 0.38601 0.90754 0.0
C1247 C 0.89385 0.361 0.90732 0.0
C1248 C 0.89823 0.34725 0.91748 0.0
C1249 C 0.89149 0.38632 0.88704 0.0
C1250 C 0.89236 0.37379 0.87646 0.0
C1251 C 0.89411 0.3613 0.88679 0.0
C1252 C 0.89184 0.37345 0.85469 0.0
C1253 C 0.89326 0.40012 0.87693 0.0
C1254 C 0.84517 0.37953 0.84419 0.0
C1255 C 0.84554 0.37958 0.82377 0.0
C1256 C 0.89236 0.3734 0.8133 0.0
C1257 C 0.93824 0.36696 0.82387 0.0
C1258 C 0.9379 0.36697 0.84432 0.0
H1259 H 0.90956 0.40838 0.8868 0.0
H1260 H 0.9223 0.3998 0.86384 0.0
H1261 H 0.84769 0.40293 0.8722 0.0
H1262 H 0.80832 0.38428 0.85179 0.0
H1263 H 0.80913 0.38453 0.81621 0.0
H1264 H 0.71579 0.14124 0.06992 0.0
H1265 H 0.7149 0.14178 0.10557 0.0
H1266 H 0.55738 0.11645 0.10607 0.0
H1267 H 0.55854 0.1156 0.07045 0.0
H1268 H 0.63286 0.15146 0.13122 0.0
H1269 H 0.66437 0.09547 0.1429 0.0
H1270 H 0.67464 0.10349 0.11941 0.0
H1271 H 0.60111 0.09941 0.12799 0.0
C1272 C 0.68101 0.13572 0.07757 0.0
C1273 C 0.63748 0.12828 0.06721 0.0
C1274 C 0.68054 0.13607 0.098 0.0
C1275 C 0.63667 0.12897 0.1086 0.0
C1276 C 0.59258 0.12174 0.0983 0.0
H1277 H 0.55129 0.14207 0.23189 0.0
H1278 H 0.55224 0.14218 0.19621 0.0
C1279 C 0.59314 0.12133 0.07787 0.0
C1280 C 0.63669 0.12931 0.13036 0.0
H1281 H 0.64011 0.10878 0.17085 0.0
C1282 C 0.63459 0.14212 0.13989 0.0
C1283 C 0.63979 0.11716 0.14173 0.0
C1284 C 0.64571 0.10311 0.13252 0.0
C1285 C 0.63472 0.1431 0.16038 0.0
C1286 C 0.63581 0.13092 0.17174 0.0
C1287 C 0.63865 0.11812 0.1622 0.0
C1288 C 0.63545 0.13117 0.19351 0.0
C1289 C 0.63509 0.1572 0.16963 0.0
C1290 C 0.68117 0.1247 0.20401 0.0
C1291 C 0.68045 0.12449 0.22442 0.0
C1292 C 0.63386 0.13073 0.23491 0.0
C1293 C 0.58815 0.13726 0.22437 0.0
C1294 C 0.58879 0.1374 0.20391 0.0
H1295 H 0.65102 0.16521 0.1593 0.0
H1296 H 0.58916 0.15994 0.17406 0.0
H1297 H 0.66374 0.1574 0.1828 0.0
H1298 H 0.71759 0.11979 0.19638 0.0
H1299 H 0.71644 0.11936 0.23197 0.0
H1300 H 0.29869 0.87281 0.97669 0.0
H1301 H 0.30086 0.87345 0.94113 0.0
H1302 H 0.47174 0.89354 0.94272 0.0
H1303 H 0.4697 0.89314 0.97845 0.0
H1304 H 0.39618 0.90489 0.915 0.0
H1305 H 0.40251 0.84806 0.90767 0.0
H1306 H 0.34063 0.85415 0.92175 0.0
H1307 H 0.41511 0.85669 0.9306 0.0
C1308 C 0.33675 0.87744 0.96956 0.0
C1309 C 0.38428 0.88283 0.98056 0.0
C1310 C 0.33804 0.87771 0.94915 0.0
C1311 C 0.38703 0.88327 0.93919 0.0
C1312 C 0.43363 0.8891 0.95007 0.0
H1313 H 0.46951 0.86745 0.81701 0.0
H1314 H 0.46995 0.86912 0.85255 0.0
C1315 C 0.43236 0.88887 0.97053 0.0
C1316 C 0.38979 0.88284 0.91746 0.0
H1317 H 0.38676 0.8608 0.87856 0.0
C1318 C 0.39431 0.89525 0.90703 0.0
C1319 C 0.38829 0.87025 0.90701 0.0
C1320 C 0.38696 0.85652 0.91731 0.0
C1321 C 0.39611 0.89543 0.88649 0.0
C1322 C 0.39235 0.88287 0.87604 0.0
C1323 C 0.38901 0.87045 0.88651 0.0
C1324 C 0.39265 0.8823 0.85429 0.0
C1325 C 0.40314 0.90907 0.87621 0.0
C1326 C 0.3488 0.88906 0.8433 0.0
C1327 C 0.3485 0.88817 0.82288 0.0
C1328 C 0.39177 0.88037 0.81297 0.0
C1329 C 0.43547 0.87356 0.82406 0.0
C1330 C 0.4358 0.87449 0.84444 0.0
H1331 H 0.42195 0.91706 0.88604 0.0
H1332 H 0.4324 0.90809 0.86324 0.0
H1333 H 0.35889 0.91268 0.87124 0.0
H1334 H 0.31416 0.89488 0.85052 0.0
H1335 H 0.31389 0.89348 0.8149 0.0
H1336 H 0.55507 0.61866 0.56946 0.0
H1337 H 0.55353 0.61971 0.60505 0.0
H1338 H 0.71216 0.64465 0.60446 0.0
H1339 H 0.71347 0.64389 0.56881 0.0
H1340 H 0.63355 0.61053 0.63123 0.0
H1341 H 0.60661 0.66688 0.64032 0.0
H1342 H 0.59627 0.65837 0.61717 0.0
H1343 H 0.6699 0.6623 0.62577 0.0
C1344 C 0.5895 0.62446 0.57684 0.0
C1345 C 0.63428 0.63124 0.56612 0.0
C1346 C 0.58856 0.62504 0.59726 0.0
C1347 C 0.63217 0.63243 0.60755 0.0
C1348 C 0.67713 0.63915 0.59693 0.0
H1349 H 0.71725 0.62035 0.73051 0.0
H1350 H 0.7169 0.62112 0.69492 0.0
C1351 C 0.67803 0.63862 0.57648 0.0
C1352 C 0.63162 0.63266 0.62935 0.0
H1353 H 0.62938 0.65409 0.66899 0.0
C1354 C 0.63247 0.62007 0.63946 0.0
C1355 C 0.62934 0.64507 0.6402 0.0
C1356 C 0.62487 0.65892 0.63034 0.0
C1357 C 0.63207 0.61955 0.65997 0.0
C1358 C 0.63205 0.63197 0.67083 0.0
C1359 C 0.63011 0.64456 0.66074 0.0
C1360 C 0.63351 0.63208 0.69262 0.0
C1361 C 0.63048 0.60565 0.66981 0.0
C1362 C 0.58795 0.63845 0.70335 0.0
C1363 C 0.58826 0.63815 0.72382 0.0
C1364 C 0.63432 0.6315 0.73406 0.0
C1365 C 0.68071 0.62546 0.72322 0.0
C1366 C 0.68042 0.62581 0.70279 0.0
H1367 H 0.61364 0.59751 0.65985 0.0
H1368 H 0.67618 0.60276 0.67429 0.0
H1369 H 0.60198 0.60586 0.68303 0.0
H1370 H 0.55144 0.64344 0.69588 0.0
H1371 H 0.55185 0.64295 0.7316 0.0
H1372 H 0.32126 0.39578 0.31593 0.0
H1373 H 0.32196 0.39715 0.35152 0.0
H1374 H 0.47538 0.37062 0.35338 0.0
H1375 H 0.47444 0.36898 0.31781 0.0
H1376 H 0.39164 0.3626 0.37928 0.0
H1377 H 0.43092 0.41865 0.38732 0.0
H1378 H 0.36756 0.41467 0.37246 0.0
H1379 H 0.44068 0.40976 0.36443 0.0
C1380 C 0.35553 0.39032 0.32385 0.0
C1381 C 0.39791 0.38229 0.31388 0.0
C1382 C 0.35607 0.39119 0.34426 0.0
C1383 C 0.39931 0.38418 0.3552 0.0
C1384 C 0.44172 0.37619 0.3453 0.0
H1385 H 0.47389 0.39449 0.47956 0.0
H1386 H 0.47666 0.39495 0.44386 0.0
C1387 C 0.44113 0.37527 0.32491 0.0
C1388 C 0.39883 0.38465 0.37696 0.0
H1389 H 0.40294 0.4065 0.41611 0.0
C1390 C 0.39434 0.37221 0.38731 0.0
C1391 C 0.40315 0.39715 0.38753 0.0
C1392 C 0.41145 0.41081 0.37739 0.0
C1393 C 0.39298 0.37192 0.40781 0.0
C1394 C 0.39496 0.38446 0.41837 0.0
C1395 C 0.40066 0.3969 0.40805 0.0
C1396 C 0.39172 0.38482 0.4401 0.0
C1397 C 0.39049 0.35815 0.41798 0.0
C1398 C 0.34236 0.37932 0.44994 0.0
C1399 C 0.34067 0.379 0.47034 0.0
C1400 C 0.38813 0.3843 0.48146 0.0
C1401 C 0.43658 0.39028 0.47155 0.0
C1402 C 0.43827 0.39055 0.4511 0.0
H1403 H 0.4059 0.34968 0.40832 0.0
H1404 H 0.41816 0.35817 0.43138 0.0
H1405 H 0.34387 0.35591 0.42221 0.0
H1406 H 0.3052 0.37515 0.44181 0.0
H1407 H 0.30235 0.37442 0.47739 0.0
H1408 H 0.56335 0.15496 0.33937 0.0
H1409 H 0.4911 0.16505 0.36222 0.0
H1410 H 0.40042 0.12596 0.36576 0.0
H1411 H 0.47218 0.11598 0.34306 0.0
H1412 H 0.32345 0.14896 0.36725 0.0
H1413 H 0.51174 0.15278 0.41975 0.0
H1414 H 0.51901 0.16186 0.39701 0.0
H1415 H 0.51768 0.14338 0.39715 0.0
C1416 C 0.52629 0.14877 0.34437 0.0
C1417 C 0.52254 0.13478 0.33938 0.0
C1418 C 0.48566 0.15446 0.35762 0.0
C1419 C 0.44116 0.14617 0.36598 0.0
C1420 C 0.43448 0.13253 0.35956 0.0
H1421 H 0.26402 0.12989 0.46925 0.0
H1422 H 0.34007 0.13501 0.44492 0.0
C1423 C 0.47519 0.12685 0.34651 0.0
C1424 C 0.40565 0.15087 0.38296 0.0
H1425 H 0.41591 0.15617 0.43215 0.0
C1426 C 0.34354 0.15088 0.38138 0.0
C1427 C 0.43221 0.15312 0.40143 0.0
C1428 C 0.49878 0.15272 0.40412 0.0
C1429 C 0.30711 0.15241 0.39787 0.0
C1430 C 0.33363 0.15429 0.41644 0.0
C1431 C 0.39578 0.1549 0.4179 0.0
C1432 C 0.29771 0.15365 0.43461 0.0
C1433 C 0.24065 0.15103 0.3954 0.0
C1434 C 0.25118 0.16298 0.43795 0.0
C1435 C 0.208 0.16011 0.45208 0.0
C1436 C 0.21156 0.14805 0.46331 0.0
C1437 C 0.26159 0.13955 0.46141 0.0
C1438 C 0.30456 0.14236 0.44723 0.0
H1439 H 0.22836 0.14714 0.3807 0.0
H1440 H 0.2219 0.14392 0.4065 0.0
H1441 H 0.21955 0.16126 0.39737 0.0
H1442 H 0.24564 0.17188 0.42862 0.0
H1443 H 0.16918 0.16667 0.45304 0.0
H1444 H 0.05924 0.10321 0.46385 0.0
H1445 H 0.98506 0.09323 0.44158 0.0
H1446 H 0.90679 0.1334 0.43392 0.0
H1447 H 0.98038 0.14328 0.45611 0.0
H1448 H 0.82294 0.11139 0.43533 0.0
H1449 H 1.00761 0.10233 0.38269 0.0
H1450 H 0.0133 0.0945 0.40639 0.0
H1451 H 0.01692 0.11289 0.40413 0.0
C1452 C 0.02458 0.10974 0.45804 0.0
C1453 C 0.02477 0.12395 0.46178 0.0
C1454 C 0.98283 0.10409 0.44512 0.0
C1455 C 0.94112 0.11264 0.43586 0.0
C1456 C 0.93866 0.12663 0.44086 0.0
H1457 H 0.76329 0.12673 0.33224 0.0
H1458 H 0.83931 0.12166 0.35661 0.0
C1459 C 0.98048 0.13226 0.45357 0.0
C1460 C 0.90375 0.10763 0.41951 0.0
H1461 H 0.91044 0.09999 0.37088 0.0
C1462 C 0.84184 0.10855 0.42133 0.0
C1463 C 0.92886 0.10417 0.40121 0.0
C1464 C 0.99529 0.10346 0.3983 0.0
C1465 C 0.80435 0.10678 0.40516 0.0
C1466 C 0.82952 0.10373 0.3867 0.0
C1467 C 0.89132 0.10218 0.38507 0.0
C1468 C 0.79301 0.10405 0.36867 0.0
C1469 C 0.73848 0.10918 0.40776 0.0
C1470 C 0.74412 0.09521 0.36636 0.0
C1471 C 0.70093 0.09804 0.35226 0.0
C1472 C 0.7068 0.10956 0.34003 0.0
C1473 C 0.75893 0.11747 0.34092 0.0
C1474 C 0.80193 0.1147 0.3551 0.0
H1475 H 0.72786 0.11384 0.42214 0.0
H1476 H 0.72115 0.11604 0.39613 0.0
H1477 H 0.71465 0.09919 0.40675 0.0
H1478 H 0.73693 0.08679 0.37645 0.0
H1479 H 0.66053 0.09196 0.35203 0.0
H1480 H 0.28164 0.12605 0.82729 0.0
H1481 H 0.36211 0.1188 0.84883 0.0
H1482 H 0.23759 0.09418 0.88173 0.0
H1483 H 0.15889 0.10042 0.85897 0.0
H1484 H 0.35941 0.12721 0.88375 0.0
H1485 H 0.37952 0.07071 0.88851 0.0
H1486 H 0.34045 0.07904 0.8688 0.0
H1487 H 0.30371 0.07584 0.89173 0.0
C1488 C 0.27282 0.11816 0.83804 0.0
C1489 C 0.21486 0.1133 0.84093 0.0
C1490 C 0.31844 0.11428 0.85073 0.0
C1491 C 0.30629 0.10585 0.86697 0.0
C1492 C 0.24893 0.10033 0.86911 0.0
H1493 H 0.49019 0.12534 0.97391 0.0
H1494 H 0.40956 0.1192 0.95167 0.0
C1495 C 0.20376 0.10396 0.85612 0.0
C1496 C 0.34937 0.10513 0.88341 0.0
H1497 H 0.4137 0.08354 0.91667 0.0
C1498 C 0.37179 0.1176 0.89072 0.0
C1499 C 0.3657 0.09264 0.89265 0.0
C1500 C 0.34652 0.07881 0.88486 0.0
C1501 C 0.4094 0.11801 0.90697 0.0
C1502 C 0.42308 0.10561 0.91689 0.0
C1503 C 0.40176 0.09307 0.90943 0.0
C1504 C 0.46355 0.10559 0.93401 0.0
C1505 C 0.4353 0.13174 0.91296 0.0
C1506 C 0.51844 0.09881 0.93275 0.0
C1507 C 0.56348 0.10178 0.94614 0.0
C1508 C 0.55427 0.11154 0.96095 0.0
C1509 C 0.49755 0.11725 0.96335 0.0
C1510 C 0.452 0.11405 0.95022 0.0
H1511 H 0.43332 0.13938 0.90091 0.0
H1512 H 0.40939 0.13594 0.92537 0.0
H1513 H 0.48237 0.13067 0.91757 0.0
H1514 H 0.52834 0.09221 0.92045 0.0
H1515 H 0.60728 0.09745 0.94379 0.0
H1516 H 0.97811 0.12302 0.83502 0.0
H1517 H 0.9041 0.13153 0.85797 0.0
H1518 H 1.00964 0.16806 0.86747 0.0
H1519 H 0.08422 0.15935 0.84445 0.0
H1520 H 0.99246 0.15457 0.90052 0.0
H1521 H 0.77476 0.15936 0.86447 0.0
H1522 H 0.80741 0.14308 0.85852 0.0
H1523 H 0.84338 0.15877 0.85081 0.0
C1524 C 0.98353 0.13326 0.84105 0.0
C1525 C 0.03578 0.14073 0.8376 0.0
C1526 C 0.94135 0.13811 0.85431 0.0
C1527 C 0.95091 0.15051 0.86442 0.0
C1528 C 1.00103 0.15852 0.85977 0.0
H1529 H 0.67874 0.15697 0.95451 0.0
H1530 H 0.75096 0.16642 0.93126 0.0
C1531 C 0.04326 0.15364 0.84646 0.0
C1532 C 0.91487 0.15361 0.88206 0.0
H1533 H 0.77238 0.15275 0.89892 0.0
C1534 C 0.94426 0.15456 0.90012 0.0
C1535 C 0.85205 0.15381 0.88166 0.0
C1536 C 0.81771 0.15385 0.86277 0.0
C1537 C 0.91263 0.15455 0.91778 0.0
C1538 C 0.85002 0.15331 0.9174 0.0
C1539 C 0.82046 0.15353 0.89932 0.0
C1540 C 0.81477 0.14997 0.93514 0.0
C1541 C 0.94684 0.15543 0.93666 0.0
C1542 C 0.82792 0.138 0.94583 0.0
C1543 C 0.78707 0.13274 0.95927 0.0
C1544 C 0.73253 0.13937 0.96221 0.0
C1545 C 0.72133 0.15191 0.95279 0.0
C1546 C 0.76226 0.15721 0.93937 0.0
H1547 H 0.98797 0.16164 0.9348 0.0
H1548 H 0.91973 0.16005 0.94851 0.0
H1549 H 0.96046 0.14493 0.94119 0.0
H1550 H 0.86723 0.13201 0.94256 0.0
H1551 H 0.79567 0.12283 0.96595 0.0
H1552 H 0.53739 0.87612 0.71621 0.0
H1553 H 0.61206 0.86971 0.69195 0.0
H1554 H 0.50248 0.83558 0.67369 0.0
H1555 H 0.42692 0.8423 0.6976 0.0
H1556 H 0.67899 0.84795 0.67784 0.0
H1557 H 0.49471 0.86116 0.62699 0.0
H1558 H 0.48914 0.86383 0.65292 0.0
H1559 H 0.48109 0.84682 0.64288 0.0
C1560 C 0.53086 0.8668 0.70778 0.0
C1561 C 0.47682 0.85963 0.70879 0.0
C1562 C 0.57323 0.86322 0.69374 0.0
C1563 C 0.5619 0.85243 0.68057 0.0
C1564 C 0.51142 0.84415 0.68336 0.0
H1565 H 0.82702 0.8496 0.58506 0.0
H1566 H 0.75333 0.83975 0.60768 0.0
C1567 C 0.46871 0.84786 0.69721 0.0
C1568 C 0.59739 0.85148 0.66233 0.0
H1569 H 0.58849 0.85777 0.61335 0.0
C1570 C 0.65919 0.8498 0.66366 0.0
C1571 C 0.57138 0.8541 0.64385 0.0
C1572 C 0.50557 0.8567 0.64147 0.0
C1573 C 0.69598 0.85131 0.64721 0.0
C1574 C 0.67005 0.85433 0.62888 0.0
C1575 C 0.60806 0.85529 0.62737 0.0
C1576 C 0.70657 0.85899 0.61209 0.0
C1577 C 0.76252 0.85063 0.64985 0.0
C1578 C 0.70205 0.87275 0.60605 0.0
C1579 C 0.74341 0.87828 0.5931 0.0
C1580 C 0.78937 0.87009 0.58569 0.0
C1581 C 0.79106 0.85601 0.59031 0.0
C1582 C 0.74964 0.85046 0.60344 0.0
H1583 H 0.7755 0.8501 0.66546 0.0
H1584 H 0.77992 0.84131 0.64243 0.0
H1585 H 0.78419 0.85977 0.64319 0.0
H1586 H 0.6691 0.87951 0.61247 0.0
H1587 H 0.74199 0.88921 0.58992 0.0
H1588 H 0.23941 0.86875 0.70808 0.0
H1589 H 0.16683 0.87793 0.68498 0.0
H1590 H 0.27044 0.91518 0.67958 0.0
H1591 H 0.34391 0.90577 0.70252 0.0
H1592 H 0.09656 0.90054 0.68012 0.0
H1593 H 0.27728 0.8994 0.62468 0.0
H1594 H 0.28615 0.89212 0.64868 0.0
H1595 H 0.28944 0.91046 0.6453 0.0
C1596 C 0.24527 0.87912 0.70254 0.0
C1597 C 0.29649 0.88665 0.70713 0.0
C1598 C 0.20411 0.88433 0.68925 0.0
C1599 C 0.21399 0.8971 0.68016 0.0
C1600 C 0.26259 0.90518 0.6861 0.0
H1601 H 0.93072 0.91366 0.59515 0.0
H1602 H 1.00897 0.91997 0.61844 0.0
C1603 C 0.30397 0.89992 0.69941 0.0
C1604 C 0.1768 0.90098 0.66313 0.0
H1605 H 0.18104 0.90384 0.61344 0.0
C1606 C 0.11497 0.90154 0.66556 0.0
C1607 C 0.20107 0.90206 0.64411 0.0
C1608 C 0.26703 0.90088 0.64039 0.0
C1609 C 0.07651 0.90243 0.64949 0.0
C1610 C 0.1007 0.90324 0.63041 0.0
C1611 C 0.16266 0.90338 0.62805 0.0
C1612 C 0.06256 0.9019 0.6128 0.0
C1613 C 1.01038 0.90146 0.65309 0.0
C1614 C 0.06966 0.8904 0.60056 0.0
C1615 C 0.02594 0.88704 0.5869 0.0
C1616 C 0.97473 0.89516 0.5852 0.0
C1617 C 0.97041 0.90737 0.59604 0.0
C1618 C 0.01458 0.91085 0.60954 0.0
H1619 H 1.0 0.89805 0.66818 0.0
H1620 H 0.98995 0.91174 0.65092 0.0
H1621 H 0.98928 0.89413 0.64275 0.0
H1622 H 0.10635 0.88335 0.60274 0.0
H1623 H 0.02917 0.87732 0.57922 0.0
H1624 H 0.44335 0.90233 0.08883 0.0
H1625 H 0.51423 0.91223 0.11231 0.0
H1626 H 0.61665 0.87472 0.1103 0.0
H1627 H 0.54597 0.86491 0.08708 0.0
H1628 H 0.53145 0.89953 0.149 0.0
H1629 H 0.7457 0.90437 0.10992 0.0
H1630 H 0.67488 0.90421 0.09745 0.0
H1631 H 0.70849 0.88834 0.10518 0.0
C1632 C 0.48264 0.89653 0.09275 0.0
C1633 C 0.49036 0.88302 0.08591 0.0
C1634 C 0.52262 0.9021 0.10629 0.0
C1635 C 0.57098 0.89426 0.11293 0.0
C1636 C 0.58044 0.88108 0.1051 0.0
H1637 H 0.74522 0.87486 0.21511 0.0
H1638 H 0.66743 0.88171 0.19236 0.0
C1639 C 0.54022 0.87548 0.0918 0.0
C1640 C 0.60726 0.89883 0.12979 0.0
H1641 H 0.75129 0.90104 0.14467 0.0
C1642 C 0.57949 0.90024 0.14804 0.0
C1643 C 0.66968 0.89994 0.12851 0.0
C1644 C 0.70148 0.89929 0.10917 0.0
C1645 C 0.61297 0.90164 0.16524 0.0
C1646 C 0.67579 0.90141 0.16413 0.0
C1647 C 0.70317 0.90112 0.14568 0.0
C1648 C 0.71426 0.89972 0.18162 0.0
C1649 C 0.5806 0.90291 0.18443 0.0
C1650 C 0.76587 0.90775 0.18376 0.0
C1651 C 0.8106 0.90372 0.19671 0.0
C1652 C 0.80394 0.89174 0.20792 0.0
C1653 C 0.75029 0.88442 0.20712 0.0
C1654 C 0.70581 0.88835 0.19403 0.0
H1655 H 0.53759 0.90836 0.18252 0.0
H1656 H 0.57048 0.89246 0.19011 0.0
H1657 H 0.60753 0.9085 0.19545 0.0
H1658 H 0.77362 0.91652 0.17433 0.0
H1659 H 0.85233 0.9093 0.19679 0.0
H1660 H 0.2551 0.87617 0.07815 0.0
H1661 H 0.17789 0.87065 0.10191 0.0
H1662 H 0.26957 0.83304 0.11654 0.0
H1663 H 0.34787 0.83883 0.093 0.0
H1664 H 0.10025 0.85091 0.11226 0.0
H1665 H 0.28233 0.85407 0.16691 0.0
H1666 H 0.29355 0.85821 0.14157 0.0
H1667 H 0.29027 0.84052 0.14931 0.0
C1668 C 0.25693 0.86635 0.08561 0.0
C1669 C 0.30665 0.85778 0.08351 0.0
C1670 C 0.21326 0.86328 0.09945 0.0
C1671 C 0.21888 0.85163 0.11147 0.0
C1672 C 0.26517 0.84228 0.10783 0.0
H1673 H 0.93489 0.84671 0.19966 0.0
H1674 H 1.00874 0.83791 0.17641 0.0
C1675 C 0.3093 0.84545 0.09415 0.0
C1676 C 0.18074 0.85038 0.12912 0.0
H1677 H 0.18561 0.85155 0.17895 0.0
C1678 C 0.11881 0.85084 0.12686 0.0
C1679 C 0.20517 0.85053 0.1482 0.0
C1680 C 0.27141 0.85093 0.15174 0.0
C1681 C 0.08071 0.85198 0.14302 0.0
C1682 C 0.10515 0.85221 0.16209 0.0
C1683 C 0.16695 0.8512 0.16438 0.0
C1684 C 0.06815 0.85534 0.17952 0.0
C1685 C 0.015 0.85385 0.13938 0.0
C1686 C 0.07979 0.86734 0.19035 0.0
C1687 C 0.03852 0.87213 0.20399 0.0
C1688 C 0.98529 0.86495 0.20705 0.0
C1689 C 0.97621 0.85228 0.19767 0.0
C1690 C 0.01784 0.8474 0.18417 0.0
H1691 H 1.00542 0.85644 0.12391 0.0
H1692 H 0.99131 0.84414 0.14289 0.0
H1693 H 0.99665 0.86216 0.14873 0.0
H1694 H 0.11849 0.8736 0.18716 0.0
H1695 H 0.04574 0.88206 0.21081 0.0
H1696 H 0.26676 0.62786 0.96894 0.0
H1697 H 0.34553 0.63331 0.94581 0.0
H1698 H 0.25195 0.67018 0.92886 0.0
H1699 H 0.17276 0.66459 0.95212 0.0
H1700 H 0.26776 0.65361 0.89875 0.0
H1701 H 0.48402 0.65836 0.93629 0.0
H1702 H 0.44452 0.64335 0.94426 0.0
H1703 H 0.41411 0.66016 0.94903 0.0
C1704 C 0.26515 0.63762 0.96131 0.0
C1705 C 0.21481 0.64606 0.96278 0.0
C1706 C 0.30999 0.64068 0.94787 0.0
C1707 C 0.30515 0.65225 0.93563 0.0
C1708 C 0.25697 0.66126 0.93821 0.0
H1709 H 0.57633 0.65371 0.84305 0.0
H1710 H 0.50563 0.66359 0.86656 0.0
C1711 C 0.21202 0.65815 0.95162 0.0
C1712 C 0.34356 0.65336 0.91803 0.0
H1713 H 0.48732 0.65037 0.90267 0.0
C1714 C 0.31588 0.65327 0.89964 0.0
C1715 C 0.40635 0.653 0.91906 0.0
C1716 C 0.43895 0.65387 0.93824 0.0
C1717 C 0.34896 0.65184 0.8824 0.0
C1718 C 0.41127 0.65034 0.88355 0.0
C1719 C 0.4394 0.65143 0.90179 0.0
C1720 C 0.44711 0.64589 0.86651 0.0
C1721 C 0.31676 0.65143 0.86312 0.0
C1722 C 0.43655 0.63288 0.85822 0.0
C1723 C 0.4767 0.62729 0.84488 0.0
C1724 C 0.52757 0.63467 0.83939 0.0
C1725 C 0.53628 0.64804 0.84663 0.0
C1726 C 0.49637 0.6536 0.8602 0.0
H1727 H 0.27317 0.65677 0.86397 0.0
H1728 H 0.34375 0.65622 0.85137 0.0
H1729 H 0.30832 0.64054 0.85909 0.0
H1730 H 0.39963 0.62662 0.86314 0.0
H1731 H 0.47021 0.6168 0.8399 0.0
H1732 H 0.97885 0.64102 0.9578 0.0
H1733 H 0.9047 0.63145 0.93554 0.0
H1734 H 0.99289 0.59205 0.9377 0.0
H1735 H 0.0671 0.60169 0.96027 0.0
H1736 H 0.98092 0.60349 0.89968 0.0
H1737 H 0.76555 0.60403 0.93872 0.0
H1738 H 0.80625 0.61982 0.94149 0.0
H1739 H 0.83615 0.60412 0.95131 0.0
C1740 C 0.98078 0.63017 0.95416 0.0
C1741 C 0.02765 0.62198 0.96098 0.0
C1742 C 0.93853 0.6247 0.94144 0.0
C1743 C 0.94302 0.61101 0.93505 0.0
C1744 C 0.98832 0.6026 0.9426 0.0
H1745 H 0.66387 0.59154 0.85138 0.0
H1746 H 0.74127 0.58637 0.87539 0.0
C1747 C 0.03025 0.60805 0.95562 0.0
C1748 C 0.90534 0.60631 0.91858 0.0
H1749 H 0.761 0.60515 0.90358 0.0
C1750 C 0.93279 0.60351 0.9006 0.0
C1751 C 0.84267 0.60626 0.91981 0.0
C1752 C 0.81088 0.60859 0.93892 0.0
C1753 C 0.89913 0.60159 0.88354 0.0
C1754 C 0.8365 0.60259 0.8845 0.0
C1755 C 0.80906 0.60445 0.90275 0.0
C1756 C 0.79861 0.6032 0.86675 0.0
C1757 C 0.93104 0.5989 0.86457 0.0
C1758 C 0.80643 0.61394 0.85324 0.0
C1759 C 0.76247 0.6168 0.8394 0.0
C1760 C 0.71019 0.60893 0.83879 0.0
C1761 C 0.7046 0.59751 0.85122 0.0
C1762 C 0.7485 0.59465 0.86507 0.0
H1763 H 0.97453 0.59379 0.86712 0.0
H1764 H 0.90398 0.59236 0.85468 0.0
H1765 H 0.93987 0.60885 0.85716 0.0
H1766 H 0.84377 0.62093 0.85455 0.0
H1767 H 0.76636 0.62609 0.83077 0.0
H1768 H 0.50019 0.6272 0.46836 0.0
H1769 H 0.42365 0.62081 0.44486 0.0
H1770 H 0.5309 0.58654 0.42584 0.0
H1771 H 0.60776 0.59306 0.4494 0.0
H1772 H 0.50931 0.60362 0.39671 0.0
H1773 H 0.29581 0.59313 0.43348 0.0
H1774 H 0.328 0.60881 0.44234 0.0
H1775 H 0.36586 0.59272 0.44634 0.0
C1776 C 0.50552 0.61776 0.46012 0.0
C1777 C 0.55896 0.61038 0.46104 0.0
C1778 C 0.46193 0.61417 0.44649 0.0
C1779 C 0.4712 0.60312 0.43358 0.0
C1780 C 0.52255 0.59504 0.43568 0.0
H1781 H 0.2012 0.60003 0.34077 0.0
H1782 H 0.27478 0.59043 0.36353 0.0
C1783 C 0.5662 0.59869 0.44925 0.0
C1784 C 0.43353 0.60176 0.41585 0.0
H1785 H 0.28933 0.60236 0.40044 0.0
C1786 C 0.46124 0.60297 0.39753 0.0
C1787 C 0.37085 0.6008 0.41677 0.0
C1788 C 0.33852 0.59865 0.43581 0.0
C1789 C 0.4279 0.60427 0.38034 0.0
C1790 C 0.36524 0.60452 0.38148 0.0
C1791 C 0.33747 0.60227 0.39957 0.0
C1792 C 0.32808 0.60898 0.36477 0.0
C1793 C 0.46001 0.60592 0.36116 0.0
C1794 C 0.33473 0.62241 0.35748 0.0
C1795 C 0.29299 0.62783 0.34458 0.0
C1796 C 0.24434 0.61989 0.33853 0.0
C1797 C 0.23952 0.60617 0.34478 0.0
C1798 C 0.28107 0.60076 0.35792 0.0
H1799 H 0.50513 0.60129 0.3617 0.0
H1800 H 0.43464 0.60113 0.34903 0.0
H1801 H 0.46517 0.61705 0.35794 0.0
H1802 H 0.36977 0.62905 0.36286 0.0
H1803 H 0.29653 0.63855 0.34032 0.0
H1804 H 0.70703 0.65621 0.46081 0.0
H1805 H 0.78199 0.66543 0.4381 0.0
H1806 H 0.8654 0.62548 0.43553 0.0
H1807 H 0.79108 0.61639 0.45808 0.0
H1808 H 0.94675 0.64716 0.43374 0.0
H1809 H 0.76101 0.6535 0.38079 0.0
H1810 H 0.75575 0.66288 0.40334 0.0
H1811 H 0.75187 0.64442 0.40353 0.0
C1812 C 0.74307 0.64963 0.45603 0.0
C1813 C 0.74408 0.63567 0.46127 0.0
C1814 C 0.78524 0.65483 0.44285 0.0
C1815 C 0.82846 0.64605 0.43479 0.0
C1816 C 0.83237 0.63243 0.44148 0.0
H1817 H 1.00368 0.62796 0.33124 0.0
H1818 H 0.92851 0.63376 0.35561 0.0
C1819 C 0.79018 0.62725 0.45445 0.0
C1820 C 0.86551 0.65026 0.41787 0.0
H1821 H 0.85781 0.65574 0.36866 0.0
C1822 C 0.92749 0.64937 0.41958 0.0
C1823 C 0.84003 0.65287 0.39934 0.0
C1824 C 0.77355 0.6534 0.39646 0.0
C1825 C 0.96461 0.65037 0.40317 0.0
C1826 C 0.93907 0.65266 0.38454 0.0
C1827 C 0.87725 0.65415 0.38295 0.0
C1828 C 0.97526 0.6517 0.36645 0.0
C1829 C 0.03049 0.64801 0.40579 0.0
C1830 C 0.02408 0.66045 0.36341 0.0
C1831 C 0.06675 0.65719 0.3493 0.0
C1832 C 0.0605 0.64532 0.33779 0.0
C1833 C 1.00837 0.63746 0.33936 0.0
C1834 C 0.96588 0.64066 0.35355 0.0
H1835 H 0.04125 0.64381 0.42044 0.0
H1836 H 0.04757 0.64076 0.39459 0.0
H1837 H 0.05442 0.65794 0.40409 0.0
H1838 H 0.03161 0.66917 0.37294 0.0
H1839 H 0.10716 0.66326 0.34857 0.0
H1840 H 0.42129 0.34332 0.19903 0.0
H1841 H 0.49559 0.33576 0.17526 0.0
H1842 H 0.60944 0.36944 0.19239 0.0
H1843 H 0.53567 0.37676 0.21633 0.0
H1844 H 0.51636 0.35209 0.14552 0.0
H1845 H 0.73235 0.34102 0.18001 0.0
H1846 H 0.66382 0.34122 0.19375 0.0
H1847 H 0.70337 0.35701 0.18889 0.0
C1848 C 0.46383 0.34856 0.1985 0.0
C1849 C 0.47355 0.36042 0.20976 0.0
C1850 C 0.506 0.34433 0.18477 0.0
C1851 C 0.55831 0.352 0.18197 0.0
C1852 C 0.57028 0.36313 0.19451 0.0
H1853 H 0.72317 0.38653 0.08681 0.0
H1854 H 0.65068 0.37669 0.10932 0.0
C1855 C 0.52822 0.36728 0.20834 0.0
C1856 C 0.59393 0.3502 0.16385 0.0
H1857 H 0.73646 0.35023 0.14684 0.0
C1858 C 0.56444 0.3513 0.14583 0.0
C1859 C 0.65657 0.34901 0.16407 0.0
C1860 C 0.69071 0.34685 0.18275 0.0
C1861 C 0.59605 0.35234 0.12824 0.0
C1862 C 0.65883 0.35248 0.12868 0.0
C1863 C 0.68825 0.35026 0.14649 0.0
C1864 C 0.6946 0.35692 0.11159 0.0
C1865 C 0.56188 0.3538 0.10942 0.0
C1866 C 0.74251 0.34895 0.10482 0.0
C1867 C 0.78366 0.35457 0.09168 0.0
C1868 C 0.77752 0.36823 0.08534 0.0
C1869 C 0.72769 0.37585 0.09111 0.0
C1870 C 0.68637 0.37022 0.10402 0.0
H1871 H 0.51811 0.34853 0.11035 0.0
H1872 H 0.55335 0.36488 0.10659 0.0
H1873 H 0.58702 0.34952 0.09687 0.0
H1874 H 0.75002 0.33872 0.11061 0.0
H1875 H 0.82283 0.34868 0.08784 0.0
H1876 H 0.02163 0.37933 0.07528 0.0
H1877 H 0.10175 0.38458 0.0981 0.0
H1878 H 0.98787 0.41359 0.1276 0.0
H1879 H 0.90972 0.40924 0.10358 0.0
H1880 H 0.10467 0.42065 0.13214 0.0
H1881 H 0.06842 0.36548 0.14917 0.0
H1882 H 0.09468 0.36812 0.12477 0.0
H1883 H 0.02304 0.37468 0.13192 0.0
C1884 C 0.01557 0.38767 0.08554 0.0
C1885 C 0.9603 0.3942 0.08725 0.0
C1886 C 0.0607 0.39036 0.09903 0.0
C1887 C 0.05006 0.39915 0.11494 0.0
C1888 C 0.997 0.40671 0.11553 0.0
H1889 H 0.22823 0.37713 0.22213 0.0
H1890 H 0.1485 0.38517 0.20076 0.0
C1891 C 0.95244 0.40425 0.10176 0.0
C1892 C 0.08921 0.39875 0.13237 0.0
H1893 H 0.14625 0.3766 0.16605 0.0
C1894 C 0.11376 0.41104 0.13962 0.0
C1895 C 0.09906 0.3863 0.14262 0.0
C1896 C 0.06941 0.37293 0.13687 0.0
C1897 C 0.14974 0.4111 0.15643 0.0
C1898 C 0.16269 0.39848 0.1659 0.0
C1899 C 0.13661 0.3863 0.15889 0.0
C1900 C 0.20637 0.39725 0.18211 0.0
C1901 C 0.17261 0.4247 0.16396 0.0
C1902 C 0.26485 0.40199 0.17955 0.0
C1903 C 0.30977 0.39785 0.19231 0.0
C1904 C 0.29728 0.38877 0.20769 0.0
C1905 C 0.23842 0.3847 0.21104 0.0
C1906 C 0.19311 0.38908 0.19853 0.0
H1907 H 0.14138 0.43319 0.16038 0.0
H1908 H 0.17943 0.42449 0.17998 0.0
H1909 H 0.21566 0.42708 0.1568 0.0
H1910 H 0.27698 0.4079 0.16678 0.0
H1911 H 0.35526 0.40079 0.18914 0.0
H1912 H 0.76156 0.37776 0.71593 0.0
H1913 H 0.6861 0.38306 0.69145 0.0
H1914 H 0.79111 0.41749 0.67156 0.0
H1915 H 0.86684 0.41211 0.69609 0.0
H1916 H 0.61683 0.40524 0.67701 0.0
H1917 H 0.7981 0.39006 0.62605 0.0
H1918 H 0.80418 0.38788 0.65207 0.0
H1919 H 0.81312 0.40465 0.64139 0.0
C1920 C 0.76664 0.38698 0.70722 0.0
C1921 C 0.8193 0.3947 0.70813 0.0
C1922 C 0.72396 0.38989 0.69297 0.0
C1923 C 0.73374 0.40047 0.67937 0.0
C1924 C 0.78321 0.40913 0.68169 0.0
H1925 H 0.46787 0.40318 0.5841 0.0
H1926 H 0.54314 0.41266 0.60646 0.0
C1927 C 0.82602 0.40618 0.69587 0.0
C1928 C 0.6974 0.40094 0.66131 0.0
H1929 H 0.70371 0.39335 0.61265 0.0
C1930 C 0.63584 0.40293 0.66285 0.0
C1931 C 0.72241 0.39772 0.64287 0.0
C1932 C 0.78795 0.39484 0.64039 0.0
C1933 C 0.59828 0.40126 0.64663 0.0
C1934 C 0.62317 0.39768 0.62835 0.0
C1935 C 0.68496 0.39629 0.62663 0.0
C1936 C 0.5854 0.39301 0.61189 0.0
C1937 C 0.53194 0.40243 0.64947 0.0
C1938 C 0.58666 0.37904 0.60665 0.0
C1939 C 0.54424 0.37371 0.59392 0.0
C1940 C 0.50051 0.38227 0.5859 0.0
C1941 C 0.502 0.39646 0.58982 0.0
C1942 C 0.54437 0.40182 0.60278 0.0
H1943 H 0.51956 0.40351 0.66508 0.0
H1944 H 0.51532 0.41161 0.64153 0.0
H1945 H 0.50907 0.39323 0.64343 0.0
H1946 H 0.618 0.37207 0.61345 0.0
H1947 H 0.54339 0.36271 0.59123 0.0
H1948 H 0.05284 0.38833 0.70514 0.0
H1949 H 0.12508 0.37865 0.68238 0.0
H1950 H 0.03652 0.33928 0.68563 0.0
H1951 H 0.96375 0.34908 0.70858 0.0
H1952 H 0.20332 0.3562 0.68045 0.0
H1953 H 0.01448 0.35144 0.62831 0.0
H1954 H 1.00785 0.36067 0.65103 0.0
H1955 H 1.00867 0.34219 0.65095 0.0
C1956 C 0.0504 0.37746 0.70162 0.0
C1957 C 1.00347 0.36938 0.70869 0.0
C1958 C 0.09139 0.37195 0.68854 0.0
C1959 C 0.0854 0.35833 0.68198 0.0
C1960 C 0.04139 0.34988 0.6903 0.0
H1961 H 0.35787 0.33965 0.59439 0.0
H1962 H 0.28218 0.33393 0.61882 0.0
C1963 C 1.00046 0.3554 0.7036 0.0
C1964 C 0.12102 0.35383 0.66491 0.0
H1965 H 0.1104 0.34865 0.6157 0.0
C1966 C 0.18316 0.3542 0.66636 0.0
C1967 C 0.09436 0.35149 0.64649 0.0
C1968 C 0.02772 0.35149 0.64392 0.0
C1969 C 0.21941 0.35298 0.64978 0.0
C1970 C 0.19273 0.351 0.63125 0.0
C1971 C 0.13066 0.35 0.62992 0.0
C1972 C 0.22824 0.35189 0.61301 0.0
C1973 C 0.28572 0.35479 0.65212 0.0
C1974 C 0.22009 0.36318 0.60048 0.0
C1975 C 0.26265 0.36628 0.58627 0.0
C1976 C 0.31359 0.35808 0.58431 0.0
C1977 C 0.31838 0.34599 0.59542 0.0
C1978 C 0.27564 0.34283 0.60955 0.0
H1979 H 0.2978 0.35875 0.6668 0.0
H1980 H 0.30802 0.34471 0.65008 0.0
H1981 H 0.30339 0.36204 0.641 0.0
H1982 H 0.18383 0.37032 0.60287 0.0
H1983 H 0.25912 0.37595 0.57847 0.0
H1984 H 0.39048 0.15224 0.50397 0.0
H1985 H 0.49916 0.15134 0.50104 0.0
H1986 H 0.49252 0.10697 0.50152 0.0
H1987 H 0.3844 0.10775 0.50438 0.0
H1988 H 0.57796 0.1387 0.528 0.0
H1989 H 0.60037 0.11545 0.45445 0.0
H1990 H 0.53239 0.12339 0.46279 0.0
H1991 H 0.55142 0.1063 0.47061 0.0
C1992 C 0.41211 0.14229 0.50328 0.0
C1993 C 0.37861 0.13007 0.50447 0.0
C1994 C 0.47424 0.14179 0.50161 0.0
C1995 C 0.50401 0.12908 0.50082 0.0
C1996 C 0.47058 0.11689 0.50173 0.0
H1997 H 0.87564 0.10288 0.50149 0.0
H1998 H 0.76658 0.10392 0.50015 0.0
C1999 C 0.40864 0.11737 0.50351 0.0
C2000 C 0.57016 0.12851 0.50026 0.0
H2001 H 0.68822 0.11666 0.47366 0.0
C2002 C 0.60208 0.13398 0.51605 0.0
C2003 C 0.60162 0.12223 0.48474 0.0
C2004 C 0.56986 0.1166 0.46709 0.0
C2005 C 0.66441 0.13312 0.51694 0.0
C2006 C 0.696 0.12687 0.50141 0.0
C2007 C 0.66408 0.12141 0.48559 0.0
C2008 C 0.76217 0.12617 0.50126 0.0
C2009 C 0.69574 0.13861 0.53479 0.0
C2010 C 0.79604 0.13831 0.50181 0.0
C2011 C 0.85807 0.13774 0.50267 0.0
C2012 C 0.88793 0.12501 0.50283 0.0
C2013 C 0.85409 0.11284 0.50156 0.0
C2014 C 0.79176 0.11343 0.50076 0.0
H2015 H 0.66509 0.13946 0.54744 0.0
H2016 H 0.73363 0.13191 0.53895 0.0
H2017 H 0.71332 0.14905 0.5316 0.0
H2018 H 0.77441 0.14827 0.50171 0.0
H2019 H 0.88258 0.14734 0.50334 0.0
H2020 H 0.38668 0.10216 0.8004 0.0
H2021 H 0.49546 0.10358 0.80302 0.0
H2022 H 0.49005 0.1458 0.78375 0.0
H2023 H 0.38192 0.14447 0.78097 0.0
H2024 H 0.57798 0.11118 0.77134 0.0
H2025 H 0.59218 0.14664 0.83476 0.0
H2026 H 0.52628 0.13668 0.82936 0.0
H2027 H 0.54296 0.15188 0.81548 0.0
C2028 C 0.40862 0.11175 0.79676 0.0
C2029 C 0.37537 0.12318 0.79042 0.0
C2030 C 0.47081 0.11256 0.79828 0.0
C2031 C 0.50094 0.12485 0.79379 0.0
C2032 C 0.46783 0.13627 0.78757 0.0
H2033 H 0.87245 0.15164 0.79069 0.0
H2034 H 0.76338 0.15036 0.79102 0.0
C2035 C 0.40588 0.13545 0.78588 0.0
C2036 C 0.5671 0.12564 0.79481 0.0
H2037 H 0.68213 0.14183 0.81811 0.0
C2038 C 0.6008 0.11781 0.78165 0.0
C2039 C 0.59686 0.13441 0.80811 0.0
C2040 C 0.56294 0.14283 0.82286 0.0
C2041 C 0.66327 0.11868 0.78118 0.0
C2042 C 0.69327 0.12735 0.79463 0.0
C2043 C 0.65943 0.13519 0.80781 0.0
C2044 C 0.75962 0.12828 0.79531 0.0
C2045 C 0.69632 0.11059 0.76582 0.0
C2046 C 0.79411 0.11641 0.79816 0.0
C2047 C 0.85625 0.1171 0.79782 0.0
C2048 C 0.88574 0.12973 0.79488 0.0
C2049 C 0.85128 0.14173 0.79284 0.0
C2050 C 0.78886 0.14101 0.79305 0.0
H2051 H 0.66716 0.10797 0.75329 0.0
H2052 H 0.73532 0.11642 0.76028 0.0
H2053 H 0.71236 0.1008 0.77226 0.0
H2054 H 0.77292 0.10653 0.80056 0.0
H2055 H 0.88119 0.10767 0.79977 0.0
H2056 H 0.63581 0.85221 0.54332 0.0
H2057 H 0.52669 0.85305 0.54429 0.0
H2058 H 0.53333 0.89736 0.54738 0.0
H2059 H 0.64162 0.89665 0.54618 0.0
H2060 H 0.44717 0.86445 0.57193 0.0
H2061 H 0.42563 0.8906 0.50037 0.0
H2062 H 0.49398 0.88266 0.50829 0.0
H2063 H 0.47343 0.8994 0.51723 0.0
C2064 C 0.614 0.86213 0.54419 0.0
C2065 C 0.64759 0.87437 0.5444 0.0
C2066 C 0.55163 0.86259 0.54479 0.0
C2067 C 0.5217 0.87529 0.5455 0.0
C2068 C 0.55525 0.88746 0.54635 0.0
H2069 H 0.1503 0.90136 0.54466 0.0
H2070 H 0.25895 0.90023 0.54731 0.0
C2071 C 0.61735 0.88702 0.54574 0.0
C2072 C 0.45549 0.8759 0.54521 0.0
H2073 H 0.33793 0.8888 0.51943 0.0
C2074 C 0.42325 0.8697 0.5604 0.0
C2075 C 0.42419 0.8828 0.53018 0.0
C2076 C 0.45595 0.88914 0.51299 0.0
C2077 C 0.36075 0.87043 0.56115 0.0
C2078 C 0.32956 0.87737 0.54616 0.0
C2079 C 0.36182 0.88355 0.53098 0.0
C2080 C 0.2634 0.878 0.54558 0.0
C2081 C 0.32865 0.86402 0.57821 0.0
C2082 C 0.22971 0.86591 0.54364 0.0
C2083 C 0.16773 0.86652 0.54203 0.0
C2084 C 0.13792 0.87926 0.54226 0.0
C2085 C 0.17173 0.89138 0.54441 0.0
C2086 C 0.23386 0.89075 0.54593 0.0
H2087 H 0.35891 0.86228 0.59077 0.0
H2088 H 0.29114 0.87061 0.58305 0.0
H2089 H 0.31023 0.8539 0.57372 0.0
H2090 H 0.25147 0.85598 0.54297 0.0
H2091 H 0.14325 0.85698 0.54039 0.0
H2092 H 0.64038 0.86003 0.26785 0.0
H2093 H 0.53249 0.85877 0.26513 0.0
H2094 H 0.52977 0.89875 0.2378 0.0
H2095 H 0.63857 0.90003 0.24026 0.0
H2096 H 0.45122 0.87584 0.2819 0.0
H2097 H 0.42371 0.87613 0.20147 0.0
H2098 H 0.49461 0.87315 0.21306 0.0
H2099 H 0.46588 0.89034 0.21099 0.0
C2100 C 0.6171 0.86855 0.26113 0.0
C2101 C 0.64836 0.88018 0.25437 0.0
C2102 C 0.5552 0.8678 0.25959 0.0
C2103 C 0.52274 0.87859 0.25112 0.0
C2104 C 0.55373 0.89018 0.24413 0.0
H2105 H 0.14641 0.8934 0.26934 0.0
H2106 H 0.25454 0.89459 0.26719 0.0
C2107 C 0.61596 0.89096 0.2457 0.0
C2108 C 0.45642 0.87786 0.25069 0.0
H2109 H 0.33529 0.87768 0.22045 0.0
C2110 C 0.42599 0.87623 0.26844 0.0
C2111 C 0.4233 0.87822 0.23312 0.0
C2112 C 0.45342 0.87943 0.21354 0.0
C2113 C 0.36372 0.87511 0.26916 0.0
C2114 C 0.33047 0.87579 0.25167 0.0
C2115 C 0.36075 0.87723 0.23385 0.0
C2116 C 0.26421 0.87528 0.25182 0.0
C2117 C 0.33396 0.87305 0.28867 0.0
C2118 C 0.23322 0.86417 0.24346 0.0
C2119 C 0.17091 0.86342 0.24471 0.0
C2120 C 0.13846 0.87384 0.25421 0.0
C2121 C 0.16975 0.88512 0.26205 0.0
C2122 C 0.23176 0.88582 0.26088 0.0
H2123 H 0.36584 0.86946 0.29994 0.0
H2124 H 0.31491 0.88299 0.29364 0.0
H2125 H 0.29716 0.86546 0.28755 0.0
H2126 H 0.25732 0.85594 0.23632 0.0
H2127 H 0.14826 0.85466 0.23834 0.0
H2128 H 0.87994 0.64528 0.9989 0.0
H2129 H 0.77158 0.64543 0.99674 0.0
H2130 H 0.76932 0.60107 0.99886 0.0
H2131 H 0.87823 0.6008 1.00112 0.0
H2132 H 0.69093 0.63253 0.96944 0.0
H2133 H 0.66292 0.61337 0.04532 0.0
H2134 H 0.73251 0.6202 0.03644 0.0
H2135 H 0.70953 0.60313 0.02974 0.0
C2136 C 0.85658 0.63552 0.99888 0.0
C2137 C 0.88788 0.62302 1.0005 0.0
C2138 C 0.79453 0.63564 0.99755 0.0
C2139 C 0.76223 0.62329 0.99793 0.0
C2140 C 0.7933 0.61075 0.99886 0.0
H2141 H 0.38462 0.60605 1.00849 0.0
H2142 H 0.49221 0.60478 1.00453 0.0
C2143 C 0.85556 0.61061 1.00012 0.0
C2144 C 0.69606 0.62365 0.99814 0.0
H2145 H 0.57575 0.61687 0.02702 0.0
C2146 C 0.66563 0.62909 0.982 0.0
C2147 C 0.66315 0.6192 1.01456 0.0
C2148 C 0.69347 0.61374 0.0326 0.0
C2149 C 0.60313 0.63004 0.98176 0.0
C2150 C 0.57023 0.62569 0.99827 0.0
C2151 C 0.60082 0.6202 1.01435 0.0
C2152 C 0.50408 0.62658 0.99927 0.0
C2153 C 0.57285 0.63538 0.96366 0.0
C2154 C 0.47444 0.63928 0.99759 0.0
C2155 C 0.41249 0.64004 0.99983 0.0
C2156 C 0.37902 0.62814 1.00397 0.0
C2157 C 0.40883 0.61545 1.00538 0.0
C2158 C 0.47052 0.61469 1.00312 0.0
H2159 H 0.60234 0.63475 0.95069 0.0
H2160 H 0.53147 0.62952 0.9606 0.0
H2161 H 0.56084 0.64635 0.96585 0.0
H2162 H 0.49931 0.64865 0.99501 0.0
H2163 H 0.391 0.64998 0.99861 0.0
H2164 H 0.39577 0.60062 0.29642 0.0
H2165 H 0.50481 0.60104 0.29812 0.0
H2166 H 0.50166 0.64536 0.30129 0.0
H2167 H 0.39334 0.64506 0.29972 0.0
H2168 H 0.58227 0.61427 0.27149 0.0
H2169 H 0.61327 0.63491 0.34617 0.0
H2170 H 0.54353 0.62782 0.33785 0.0
H2171 H 0.56455 0.64506 0.33124 0.0
C2172 C 0.41829 0.61045 0.29763 0.0
C2173 C 0.38567 0.6228 0.29783 0.0
C2174 C 0.48062 0.61067 0.2986 0.0
C2175 C 0.51151 0.62323 0.30005 0.0
C2176 C 0.47895 0.63554 0.30053 0.0
H2177 H 0.88196 0.64979 0.29775 0.0
H2178 H 0.77323 0.64829 0.29989 0.0
C2179 C 0.41685 0.63533 0.29948 0.0
C2180 C 0.57777 0.62359 0.29991 0.0
H2181 H 0.69897 0.63458 0.32574 0.0
C2182 C 0.60783 0.61859 0.28343 0.0
C2183 C 0.61114 0.62936 0.3154 0.0
C2184 C 0.58162 0.63449 0.33376 0.0
C2185 C 0.67006 0.61948 0.28181 0.0
C2186 C 0.70353 0.62524 0.29731 0.0
C2187 C 0.67346 0.63019 0.31384 0.0
C2188 C 0.76972 0.62613 0.29663 0.0
C2189 C 0.69919 0.61461 0.26322 0.0
C2190 C 0.80416 0.61418 0.29454 0.0
C2191 C 0.86614 0.61501 0.29323 0.0
C2192 C 0.89536 0.62783 0.29415 0.0
C2193 C 0.86095 0.63977 0.29684 0.0
C2194 C 0.79877 0.63893 0.2981 0.0
H2195 H 0.66707 0.6142 0.25093 0.0
H2196 H 0.73671 0.62144 0.25904 0.0
H2197 H 0.71687 0.60406 0.26545 0.0
H2198 H 0.78306 0.60416 0.29389 0.0
H2199 H 0.8911 0.60557 0.29139 0.0
H2200 H 0.13119 0.3572 0.03081 0.0
H2201 H 0.23891 0.35539 0.03413 0.0
H2202 H 0.24796 0.39809 0.05118 0.0
H2203 H 0.13964 0.3999 0.04832 0.0
H2204 H 0.32485 0.36858 1.01455 0.0
H2205 H 0.34773 0.38052 0.09319 0.0
H2206 H 0.27682 0.37679 0.08207 0.0
H2207 H 0.30927 0.39367 0.07985 0.0
C2208 C 0.1559 0.36621 0.0354 0.0
C2209 C 0.12654 0.37871 0.03929 0.0
C2210 C 0.21768 0.36515 0.03729 0.0
C2211 C 0.25183 0.37653 0.04318 0.0
C2212 C 0.22269 0.38905 0.04706 0.0
H2213 H 0.62793 0.39456 0.04875 0.0
H2214 H 0.51941 0.39465 0.04971 0.0
C2215 C 0.16069 0.39011 0.04525 0.0
C2216 C 0.31798 0.37536 0.04436 0.0
H2217 H 0.43738 0.37994 0.07462 0.0
C2218 C 0.34932 0.37096 0.02775 0.0
C2219 C 0.3502 0.37843 0.06158 0.0
C2220 C 0.3193 0.38249 0.08025 0.0
C2221 C 0.41169 0.36987 0.02773 0.0
C2222 C 0.44388 0.37312 0.04485 0.0
C2223 C 0.41269 0.37743 0.06151 0.0
C2224 C 0.5101 0.3727 0.04539 0.0
C2225 C 0.44287 0.36562 1.0092 0.0
C2226 C 0.54128 0.36027 0.04306 0.0
C2227 C 0.6037 0.36016 0.04254 0.0
C2228 C 0.63608 0.37251 0.04426 0.0
C2229 C 0.60458 0.38487 0.04716 0.0
C2230 C 0.54241 0.38495 0.04779 0.0
H2231 H 0.41291 0.36608 0.99634 0.0
H2232 H 0.48203 0.37231 1.00643 0.0
H2233 H 0.45892 0.35487 1.01073 0.0
H2234 H 0.51731 0.35065 0.04149 0.0
H2235 H 0.62647 0.35045 0.04046 0.0
H2236 H 0.6395 0.39946 0.74555 0.0
H2237 H 0.5308 0.39771 0.74325 0.0
H2238 H 0.54059 0.35447 0.75705 0.0
H2239 H 0.6485 0.35614 0.75966 0.0
H2240 H 0.45713 0.38123 0.7196 0.0
H2241 H 0.42388 0.36871 0.79779 0.0
H2242 H 0.4933 0.37532 0.78846 0.0
H2243 H 0.47472 0.35742 0.78552 0.0
C2244 C 0.61848 0.38959 0.74813 0.0
C2245 C 0.65283 0.37798 0.75303 0.0
C2246 C 0.55633 0.38859 0.74676 0.0
C2247 C 0.5273 0.37601 0.75036 0.0
C2248 C 0.56169 0.36436 0.75468 0.0
H2249 H 0.15354 0.35042 0.75467 0.0
H2250 H 0.26267 0.35072 0.75313 0.0
C2251 C 0.6236 0.36533 0.75606 0.0
C2252 C 0.46115 0.37502 0.7497 0.0
H2253 H 0.33949 0.36674 0.77729 0.0
C2254 C 0.4314 0.37811 0.73223 0.0
C2255 C 0.42744 0.37089 0.76616 0.0
C2256 C 0.4563 0.36801 0.7856 0.0
C2257 C 0.36912 0.37702 0.73073 0.0
C2258 C 0.33552 0.37294 0.74721 0.0
C2259 C 0.36526 0.36978 0.76463 0.0
C2260 C 0.2693 0.37253 0.74702 0.0
C2261 C 0.33981 0.38004 0.71141 0.0
C2262 C 0.23674 0.38467 0.74416 0.0
C2263 C 0.17463 0.38455 0.74516 0.0
C2264 C 0.14346 0.37227 0.74906 0.0
C2265 C 0.17608 0.36005 0.75163 0.0
C2266 C 0.23844 0.3602 0.75077 0.0
H2267 H 0.37193 0.37941 0.69913 0.0
H2268 H 0.30263 0.37277 0.70859 0.0
H2269 H 0.32138 0.39063 0.71171 0.0
H2270 H 0.25945 0.39434 0.74159 0.0
H2271 H 0.15108 0.39415 0.74305 0.0
H2272 H 0.89003 0.11025 1.02225 0.0
H2273 H 0.9983 0.10929 1.02098 0.0
H2274 H 1.00288 0.14915 0.9934 0.0
H2275 H 0.89367 0.1502 0.99452 0.0
H2276 H 0.0824 0.12887 0.97644 0.0
H2277 H 0.10727 0.13243 0.05678 0.0
H2278 H 0.05766 0.11907 0.04876 0.0
H2279 H 0.03903 0.1368 0.04442 0.0
C2280 C 0.9138 0.11885 1.01588 0.0
C2281 C 0.88293 0.13039 1.00871 0.0
C2282 C 0.97592 0.11829 1.01523 0.0
C2283 C 1.00895 0.12923 1.0074 0.0
C2284 C 0.97839 0.14062 0.99966 0.0
H2285 H 0.38571 0.14311 0.02728 0.0
H2286 H 0.27782 0.14469 0.02456 0.0
C2287 C 0.91597 0.14123 1.00039 0.0
C2288 C 0.07527 0.12879 1.00773 0.0
H2289 H 0.1939 0.12682 0.03877 0.0
C2290 C 0.10686 0.12848 0.99006 0.0
C2291 C 0.10731 0.1284 0.02549 0.0
C2292 C 0.07626 0.12932 0.04496 0.0
C2293 C 0.16943 0.12751 0.98969 0.0
C2294 C 0.2013 0.12671 1.00748 0.0
C2295 C 0.16964 0.12728 0.02512 0.0
C2296 C 0.26757 0.12577 1.00827 0.0
C2297 C 0.20097 0.12758 0.97028 0.0
C2298 C 0.29824 0.11454 1.0001 0.0
C2299 C 0.36041 0.11357 1.00168 0.0
C2300 C 0.39315 0.1238 1.01152 0.0
C2301 C 0.36218 0.13502 1.01961 0.0
C2302 C 0.30028 0.13596 1.01807 0.0
H2303 H 0.17206 0.13159 0.95845 0.0
H2304 H 0.242 0.13393 0.97094 0.0
H2305 H 0.21392 0.11689 0.96645 0.0
H2306 H 0.27405 0.1064 0.99277 0.0
H2307 H 0.38274 0.1048 0.99524 0.0
H2308 H 0.88639 0.10402 0.29999 0.0
H2309 H 0.99508 0.10531 0.30252 0.0
H2310 H 0.9877 0.14931 0.29461 0.0
H2311 H 0.87951 0.14815 0.29212 0.0
H2312 H 0.07424 0.1158 0.27364 0.0
H2313 H 0.09483 0.14489 0.34298 0.0
H2314 H 0.02718 0.1362 0.33589 0.0
H2315 H 0.04608 0.15255 0.32531 0.0
C2316 C 0.90785 0.11399 0.29893 0.0
C2317 C 0.87408 0.12598 0.29582 0.0
C2318 C 0.97 0.1147 0.30038 0.0
C2319 C 0.99958 0.12743 0.299 0.0
C2320 C 0.96592 0.13941 0.29608 0.0
H2321 H 0.3722 0.15341 0.29587 0.0
H2322 H 0.26304 0.15255 0.29672 0.0
C2323 C 0.90394 0.1387 0.29453 0.0
C2324 C 0.06574 0.12814 0.29954 0.0
H2325 H 0.18317 0.14206 0.32442 0.0
C2326 C 0.09807 0.12146 0.28482 0.0
C2327 C 0.09684 0.13563 0.31403 0.0
C2328 C 0.06462 0.14264 0.33057 0.0
C2329 C 0.16045 0.12225 0.28398 0.0
C2330 C 0.19169 0.12969 0.29853 0.0
C2331 C 0.15934 0.13639 0.31326 0.0
C2332 C 0.25792 0.13034 0.29885 0.0
C2333 C 0.19222 0.11539 0.26721 0.0
C2334 C 0.29145 0.11821 0.30027 0.0
C2335 C 0.35354 0.11867 0.2997 0.0
C2336 C 0.38385 0.1313 0.29787 0.0
C2337 C 0.35032 0.14351 0.29714 0.0
C2338 C 0.28793 0.14303 0.29765 0.0
H2339 H 0.162 0.11363 0.25464 0.0
H2340 H 0.23057 0.12167 0.2622 0.0
H2341 H 0.20918 0.10522 0.27204 0.0
H2342 H 0.26951 0.10833 0.30172 0.0
H2343 H 0.37777 0.10906 0.30058 0.0
H2344 H 0.63966 0.85778 0.04318 0.0
H2345 H 0.74788 0.857 0.04481 0.0
H2346 H 0.7541 0.90133 0.0479 0.0
H2347 H 0.64516 0.9022 0.0466 0.0
H2348 H 0.82675 0.86795 1.01875 0.0
H2349 H 0.8656 0.89051 0.09207 0.0
H2350 H 0.79457 0.88368 0.08458 0.0
H2351 H 0.81791 0.90044 0.07647 0.0
C2352 C 0.66383 0.8674 0.04436 0.0
C2353 C 0.63352 0.88007 0.04467 0.0
C2354 C 0.72588 0.86692 0.04529 0.0
C2355 C 0.75938 0.87908 0.04666 0.0
C2356 C 0.72933 0.89178 0.04722 0.0
H2357 H 0.13704 0.89697 0.04094 0.0
H2358 H 0.02871 0.89772 0.04328 0.0
C2359 C 0.667 0.89227 0.04632 0.0
C2360 C 0.82563 0.87838 0.04645 0.0
H2361 H 0.95049 0.88672 0.07239 0.0
C2362 C 0.85374 0.872 0.03053 0.0
C2363 C 0.86101 0.88363 0.06183 0.0
C2364 C 0.83345 0.88986 0.07981 0.0
C2365 C 0.91599 0.87095 0.02941 0.0
C2366 C 0.95133 0.87626 0.04473 0.0
C2367 C 0.92336 0.88265 0.06065 0.0
C2368 C 0.01745 0.87562 0.04418 0.0
C2369 C 0.94356 0.86442 1.01161 0.0
C2370 C 0.04742 0.86292 0.0443 0.0
C2371 C 0.10963 0.86244 0.04299 0.0
C2372 C 0.14305 0.87466 0.04153 0.0
C2373 C 0.11284 0.88735 0.04191 0.0
C2374 C 0.05081 0.88782 0.04329 0.0
H2375 H 0.9114 0.86358 0.99937 0.0
H2376 H 0.98271 0.87044 1.0066 0.0
H2377 H 0.9589 0.85389 1.01533 0.0
H2378 H 0.02266 0.85338 0.04531 0.0
H2379 H 0.13142 0.8525 0.04289 0.0
H2380 H 0.11133 0.90396 0.7846 0.0
H2381 H 1.00479 0.8996 0.78077 0.0
H2382 H 0.04012 0.87416 0.73061 0.0
H2383 H 0.14704 0.87854 0.73421 0.0
H2384 H 0.93175 0.90409 0.74309 0.0
H2385 H 0.93643 0.85035 0.77152 0.0
H2386 H 0.99293 0.8628 0.77793 0.0
H2387 H 0.99158 0.85554 0.75391 0.0
C2388 C 0.09661 0.89746 0.7727 0.0
C2389 C 0.13795 0.89157 0.75975 0.0
C2390 C 0.03561 0.89499 0.77054 0.0
C2391 C 0.01458 0.88646 0.75553 0.0
C2392 C 0.05547 0.88068 0.74241 0.0
H2393 H 0.64643 0.85699 0.73905 0.0
H2394 H 0.75468 0.85987 0.73605 0.0
C2395 C 0.11656 0.88324 0.74445 0.0
C2396 C 0.94976 0.88369 0.75372 0.0
H2397 H 0.84308 0.85947 0.76313 0.0
C2398 C 0.91233 0.89431 0.74735 0.0
C2399 C 0.92461 0.87088 0.75906 0.0
C2400 C 0.96311 0.85919 0.76608 0.0
C2401 C 0.85032 0.89254 0.74643 0.0
C2402 C 0.8247 0.87993 0.75265 0.0
C2403 C 0.86245 0.86915 0.75845 0.0
C2404 C 0.75898 0.87804 0.7543 0.0
C2405 C 0.81296 0.90421 0.73864 0.0
C2406 C 0.72534 0.8871 0.76582 0.0
C2407 C 0.66377 0.88553 0.76745 0.0
C2408 C 0.63411 0.87471 0.75785 0.0
C2409 C 0.66786 0.86542 0.74665 0.0
C2410 C 0.72973 0.86707 0.7449 0.0
H2411 H 0.83894 0.91086 0.72857 0.0
H2412 H 0.77318 0.90031 0.73079 0.0
H2413 H 0.79792 0.91073 0.75098 0.0
H2414 H 0.74681 0.89538 0.77372 0.0
H2415 H 0.63943 0.89279 0.77638 0.0
H2416 H 0.89486 0.65398 0.5085 0.0
H2417 H 1.00392 0.65373 0.50689 0.0
H2418 H 1.00011 0.61055 0.49237 0.0
H2419 H 0.89167 0.6107 0.49392 0.0
H2420 H 0.08002 0.63673 0.53006 0.0
H2421 H 0.11333 0.62711 0.45105 0.0
H2422 H 0.0441 0.63345 0.46091 0.0
H2423 H 0.06237 0.61549 0.46276 0.0
C2424 C 0.91723 0.64447 0.5048 0.0
C2425 C 0.88444 0.63235 0.50144 0.0
C2426 C 0.97957 0.64433 0.50389 0.0
C2427 C 1.01024 0.63215 0.4993 0.0
C2428 C 0.97752 0.62012 0.49562 0.0
H2429 H 0.38135 0.60603 0.49626 0.0
H2430 H 0.27271 0.60763 0.49372 0.0
C2431 C 0.91539 0.62021 0.49667 0.0
C2432 C 0.07644 0.63174 0.49953 0.0
H2433 H 0.19848 0.62482 0.47141 0.0
C2434 C 0.10596 0.63425 0.5172 0.0
C2435 C 0.11025 0.62838 0.48278 0.0
C2436 C 0.08109 0.62606 0.46324 0.0
C2437 C 0.16814 0.6332 0.51871 0.0
C2438 C 0.20209 0.62983 0.50197 0.0
C2439 C 0.17256 0.62737 0.48425 0.0
C2440 C 0.26827 0.62899 0.50262 0.0
C2441 C 0.19674 0.63533 0.53839 0.0
C2442 C 0.30215 0.64053 0.50799 0.0
C2443 C 0.36404 0.63964 0.50952 0.0
C2444 C 0.39374 0.62719 0.50559 0.0
C2445 C 0.35993 0.61573 0.4996 0.0
C2446 C 0.29781 0.61665 0.49807 0.0
H2447 H 0.16425 0.63403 0.55046 0.0
H2448 H 0.23399 0.62801 0.54066 0.0
H2449 H 0.21474 0.64596 0.53922 0.0
H2450 H 0.28063 0.65026 0.51111 0.0
H2451 H 0.38854 0.64872 0.51396 0.0
H2452 H 0.88109 0.64706 0.79042 0.0
H2453 H 0.98932 0.64807 0.79298 0.0
H2454 H 0.99522 0.6042 0.8023 0.0
H2455 H 0.88651 0.60305 0.79969 0.0
H2456 H 0.06689 0.63951 0.824 0.0
H2457 H 0.10769 0.6108 0.75517 0.0
H2458 H 0.0363 0.61819 0.76107 0.0
H2459 H 0.05958 0.60244 0.77245 0.0
C2460 C 0.90523 0.63759 0.79303 0.0
C2461 C 0.87497 0.62493 0.79462 0.0
C2462 C 0.96722 0.63822 0.79454 0.0
C2463 C 1.00054 0.6262 0.79755 0.0
C2464 C 0.97051 0.61358 0.79964 0.0
H2465 H 0.37823 0.60864 0.7996 0.0
H2466 H 0.27004 0.60796 0.80113 0.0
C2467 C 0.90833 0.61294 0.7982 0.0
C2468 C 0.06667 0.62694 0.79816 0.0
H2469 H 0.19184 0.61679 0.77386 0.0
C2470 C 0.09429 0.63457 0.81303 0.0
C2471 C 0.10237 0.62051 0.78383 0.0
C2472 C 0.07521 0.6126 0.76711 0.0
C2473 C 0.15663 0.63571 0.81417 0.0
C2474 C 0.19239 0.62932 0.79978 0.0
C2475 C 0.1646 0.62171 0.7849 0.0
C2476 C 0.25869 0.63006 0.80002 0.0
C2477 C 0.18371 0.64336 0.83112 0.0
C2478 C 0.2889 0.64274 0.79897 0.0
C2479 C 0.35129 0.64318 0.79814 0.0
C2480 C 0.38465 0.63093 0.79815 0.0
C2481 C 0.35418 0.61829 0.79945 0.0
C2482 C 0.29211 0.61787 0.80033 0.0
H2483 H 0.15161 0.64465 0.84329 0.0
H2484 H 0.22341 0.63784 0.83666 0.0
H2485 H 0.19785 0.65376 0.82625 0.0
H2486 H 0.26425 0.6523 0.79832 0.0
H2487 H 0.37326 0.65309 0.79714 0.0
H2488 H 0.13396 0.35536 0.5476 0.0
H2489 H 0.02527 0.35684 0.55027 0.0
H2490 H 0.03429 0.40067 0.54071 0.0
H2491 H 0.14222 0.39928 0.53781 0.0
H2492 H 0.95112 0.37245 0.57564 0.0
H2493 H 0.91867 0.38773 0.49838 0.0
H2494 H 0.9878 0.38071 0.50726 0.0
H2495 H 0.96972 0.39848 0.51156 0.0
C2496 C 0.11278 0.36531 0.54606 0.0
C2497 C 0.14688 0.37717 0.54224 0.0
C2498 C 0.05066 0.36615 0.54764 0.0
C2499 C 0.02146 0.37883 0.54533 0.0
C2500 C 0.05561 0.39072 0.54212 0.0
H2501 H 0.64816 0.40417 0.54237 0.0
H2502 H 0.75717 0.40388 0.54429 0.0
C2503 C 0.11749 0.3899 0.54055 0.0
C2504 C 0.95535 0.37969 0.546 0.0
H2505 H 0.83399 0.38872 0.51886 0.0
C2506 C 0.92548 0.37596 0.56321 0.0
C2507 C 0.92183 0.38432 0.5298 0.0
C2508 C 0.95096 0.38793 0.51063 0.0
C2509 C 0.86317 0.3769 0.56471 0.0
C2510 C 0.82976 0.3815 0.54847 0.0
C2511 C 0.85965 0.38529 0.53133 0.0
C2512 C 0.76361 0.38186 0.54861 0.0
C2513 C 0.83358 0.37319 0.58374 0.0
C2514 C 0.73101 0.36959 0.55035 0.0
C2515 C 0.66895 0.36972 0.54911 0.0
C2516 C 0.63795 0.38212 0.54608 0.0
C2517 C 0.6706 0.39445 0.54469 0.0
C2518 C 0.73289 0.39429 0.54578 0.0
H2519 H 0.86554 0.37337 0.59609 0.0
H2520 H 0.79649 0.38037 0.58704 0.0
H2521 H 0.81492 0.36264 0.58265 0.0
H2522 H 0.75368 0.35985 0.55222 0.0
H2523 H 0.64532 0.36003 0.55033 0.0
H2524 H 0.13925 0.36659 0.28653 0.0
H2525 H 0.03135 0.36408 0.28457 0.0
H2526 H 0.02634 0.39304 0.23699 0.0
H2527 H 0.13481 0.39575 0.23896 0.0
H2528 H 0.94286 0.38684 0.28722 0.0
H2529 H 0.93365 0.35746 0.21753 0.0
H2530 H 0.99999 0.3581 0.23235 0.0
H2531 H 0.97841 0.37284 0.21832 0.0
C2532 C 0.11541 0.37245 0.27562 0.0
C2533 C 0.14592 0.38136 0.26287 0.0
C2534 C 0.05361 0.371 0.27453 0.0
C2535 C 0.02079 0.37826 0.26052 0.0
C2536 C 0.05086 0.38721 0.24778 0.0
H2537 H 0.63676 0.37323 0.23645 0.0
H2538 H 0.74358 0.37807 0.23417 0.0
C2539 C 0.11283 0.38879 0.24898 0.0
C2540 C 0.95502 0.37659 0.25972 0.0
H2541 H 0.84264 0.3619 0.23329 0.0
C2542 C 0.92088 0.38145 0.27539 0.0
C2543 C 0.92634 0.36966 0.24419 0.0
C2544 C 0.96118 0.36412 0.22713 0.0
C2545 C 0.85895 0.37948 0.27605 0.0
C2546 C 0.83037 0.37205 0.26092 0.0
C2547 C 0.86439 0.3675 0.24496 0.0
C2548 C 0.7657 0.36857 0.26177 0.0
C2549 C 0.82473 0.38557 0.29291 0.0
C2550 C 0.74253 0.36123 0.27771 0.0
C2551 C 0.68156 0.35851 0.2791 0.0
C2552 C 0.64214 0.3629 0.26445 0.0
C2553 C 0.66568 0.36975 0.24806 0.0
C2554 C 0.72682 0.37254 0.24673 0.0
H2555 H 0.8488 0.39443 0.29948 0.0
H2556 H 0.77999 0.3891 0.28827 0.0
H2557 H 0.81918 0.37763 0.3044 0.0
H2558 H 0.77165 0.35767 0.28922 0.0
H2559 H 0.66529 0.35307 0.29182 0.0
loop_
_geom_bond_atom_site_label_1
_geom_bond_atom_site_label_2
_geom_bond_distance
_geom_bond_site_symmetry_2
_ccdc_geom_bond_type
Zn0 N4 2.020 . S
Zn0 O8 2.019 1_455 S
Zn0 N10 2.119 . S
Zn0 O18 1.975 . S
C1 N2 1.334 . S
C1 N5 1.336 . S
N2 C1 1.334 . S
N2 C3 1.334 . S
C3 N2 1.334 . S
C3 N4 1.336 . S
N4 Zn0 2.020 . S
N4 C3 1.336 . S
N4 N5 1.354 . S
N5 C1 1.336 . S
N5 N4 1.354 . S
N5 Zn9 2.020 . S
C6 O7 1.244 . S
C6 O30 1.257 . S
O7 C6 1.244 . S
O8 Zn0 2.019 1_655 S
O8 C28 1.257 . S
Zn9 N5 2.020 . S
Zn9 O16 1.975 . S
Zn9 N25 2.119 . S
Zn9 O30 2.019 . S
N10 Zn0 2.119 . S
N10 C12 1.334 . S
N10 C13 1.328 . S
C11 C12 1.391 . S
C11 N14 1.329 . S
C11 H32 0.930 . S
C12 N10 1.334 . S
C12 C11 1.391 . S
C12 H19 0.930 . S
C13 N10 1.328 . S
C13 C15 1.392 . S
C13 H20 0.930 1_455 S
N14 C11 1.329 . S
N14 C15 1.331 . S
C15 C13 1.392 . S
C15 N14 1.331 . S
O16 Zn9 1.975 . S
O16 C17 1.252 . S
C17 O16 1.252 . S
C17 O18 1.252 . S
O18 Zn0 1.975 . S
O18 C17 1.252 . S
H19 C12 0.930 . S
H20 C13 0.930 1_655 S
C21 C22 1.392 . S
C21 N25 1.328 . S
C21 H27 0.930 . S
C22 C21 1.392 . S
C22 N26 1.331 . S
C23 C24 1.391 . S
C23 N26 1.329 . S
C23 H33 0.930 . S
C24 C23 1.391 . S
C24 N25 1.334 . S
C24 H31 0.930 . S
N25 Zn9 2.119 . S
N25 C21 1.328 . S
N25 C24 1.334 . S
N26 C22 1.331 . S
N26 C23 1.329 . S
H27 C21 0.930 . S
C28 O8 1.257 . S
C28 O29 1.244 . S
O29 C28 1.244 . S
O30 C6 1.257 . S
O30 Zn9 2.019 . S
H31 C24 0.930 . S
H32 C11 0.930 . S
H33 C23 0.930 . S
Zn34 N38 2.020 . S
Zn34 O42 2.019 1_455 S
Zn34 N44 2.119 . S
Zn34 O52 1.975 . S
C35 N36 1.334 . S
C35 N39 1.336 . S
N36 C35 1.334 . S
N36 C37 1.334 . S
C37 N36 1.334 . S
C37 N38 1.336 . S
N38 Zn34 2.020 . S
N38 C37 1.336 . S
N38 N39 1.354 . S
N39 C35 1.336 . S
N39 N38 1.354 . S
N39 Zn43 2.020 . S
C40 O41 1.244 . S
C40 O64 1.257 . S
O41 C40 1.244 . S
O42 Zn34 2.019 1_655 S
O42 C62 1.257 . S
Zn43 N39 2.020 . S
Zn43 O50 1.975 . S
Zn43 N59 2.119 . S
Zn43 O64 2.019 . S
N44 Zn34 2.119 . S
N44 C46 1.334 . S
N44 C47 1.328 . S
C45 C46 1.391 . S
C45 N48 1.329 . S
C45 H66 0.930 . S
C46 N44 1.334 . S
C46 C45 1.391 . S
C46 H53 0.930 . S
C47 N44 1.328 . S
C47 C49 1.392 . S
C47 H54 0.930 1_455 S
N48 C45 1.329 . S
N48 C49 1.331 . S
C49 C47 1.392 . S
C49 N48 1.331 . S
O50 Zn43 1.975 . S
O50 C51 1.252 . S
C51 O50 1.252 . S
C51 O52 1.252 . S
O52 Zn34 1.975 . S
O52 C51 1.252 . S
H53 C46 0.930 . S
H54 C47 0.930 1_655 S
C55 C56 1.392 . S
C55 N59 1.328 . S
C55 H61 0.930 . S
C56 C55 1.392 . S
C56 N60 1.331 . S
C57 C58 1.391 . S
C57 N60 1.329 . S
C57 H67 0.930 . S
C58 C57 1.391 . S
C58 N59 1.334 . S
C58 H65 0.930 . S
N59 Zn43 2.119 . S
N59 C55 1.328 . S
N59 C58 1.334 . S
N60 C56 1.331 . S
N60 C57 1.329 . S
H61 C55 0.930 . S
C62 O42 1.257 . S
C62 O63 1.244 . S
O63 C62 1.244 . S
O64 C40 1.257 . S
O64 Zn43 2.019 . S
H65 C58 0.930 . S
H66 C45 0.930 . S
H67 C57 0.930 . S
Zn68 N72 2.020 . S
Zn68 O76 2.019 1_655 S
Zn68 N78 2.119 . S
Zn68 O86 1.975 . S
C69 N70 1.334 . S
C69 N73 1.336 . S
N70 C69 1.334 . S
N70 C71 1.334 . S
C71 N70 1.334 . S
C71 N72 1.336 . S
N72 Zn68 2.020 . S
N72 C71 1.336 . S
N72 N73 1.354 . S
N73 C69 1.336 . S
N73 N72 1.354 . S
N73 Zn77 2.020 . S
C74 O75 1.244 . S
C74 O98 1.257 . S
O75 C74 1.244 . S
O76 Zn68 2.019 1_455 S
O76 C96 1.257 . S
Zn77 N73 2.020 . S
Zn77 O84 1.975 . S
Zn77 N93 2.119 . S
Zn77 O98 2.019 . S
N78 Zn68 2.119 . S
N78 C80 1.334 . S
N78 C81 1.328 . S
C79 C80 1.391 . S
C79 N82 1.329 . S
C79 H100 0.930 . S
C80 N78 1.334 . S
C80 C79 1.391 . S
C80 H87 0.930 . S
C81 N78 1.328 . S
C81 C83 1.392 . S
C81 H88 0.930 1_655 S
N82 C79 1.329 . S
N82 C83 1.331 . S
C83 C81 1.392 . S
C83 N82 1.331 . S
O84 Zn77 1.975 . S
O84 C85 1.252 . S
C85 O84 1.252 . S
C85 O86 1.252 . S
O86 Zn68 1.975 . S
O86 C85 1.252 . S
H87 C80 0.930 . S
H88 C81 0.930 1_455 S
C89 C90 1.392 . S
C89 N93 1.328 . S
C89 H95 0.930 . S
C90 C89 1.392 . S
C90 N94 1.331 . S
C91 C92 1.391 . S
C91 N94 1.329 . S
C91 H101 0.930 . S
C92 C91 1.391 . S
C92 N93 1.334 . S
C92 H99 0.930 . S
N93 Zn77 2.119 . S
N93 C89 1.328 . S
N93 C92 1.334 . S
N94 C90 1.331 . S
N94 C91 1.329 . S
H95 C89 0.930 . S
C96 O76 1.257 . S
C96 O97 1.244 . S
O97 C96 1.244 . S
O98 C74 1.257 . S
O98 Zn77 2.019 . S
H99 C92 0.930 . S
H100 C79 0.930 . S
H101 C91 0.930 . S
Zn102 N106 2.020 . S
Zn102 O110 2.019 . S
Zn102 N112 2.119 . S
Zn102 O120 1.975 . S
C103 N104 1.334 . S
C103 N107 1.336 . S
N104 C103 1.334 . S
N104 C105 1.334 . S
C105 N104 1.334 . S
C105 N106 1.336 . S
N106 Zn102 2.020 . S
N106 C105 1.336 . S
N106 N107 1.354 . S
N107 C103 1.336 . S
N107 N106 1.354 . S
N107 Zn111 2.020 . S
C108 O109 1.244 . S
C108 O132 1.257 . S
O109 C108 1.244 . S
O110 Zn102 2.019 . S
O110 C130 1.257 . S
Zn111 N107 2.020 . S
Zn111 O118 1.975 . S
Zn111 N127 2.119 . S
Zn111 O132 2.019 1_655 S
N112 Zn102 2.119 . S
N112 C114 1.334 . S
N112 C115 1.328 . S
C113 C114 1.391 . S
C113 N116 1.329 . S
C113 H134 0.930 . S
C114 N112 1.334 . S
C114 C113 1.391 . S
C114 H121 0.930 . S
C115 N112 1.328 . S
C115 C117 1.392 . S
C115 H122 0.930 . S
N116 C113 1.329 . S
N116 C117 1.331 . S
C117 C115 1.392 . S
C117 N116 1.331 . S
O118 Zn111 1.975 . S
O118 C119 1.252 . S
C119 O118 1.252 . S
C119 O120 1.252 . S
O120 Zn102 1.975 . S
O120 C119 1.252 . S
H121 C114 0.930 . S
H122 C115 0.930 . S
C123 C124 1.392 . S
C123 N127 1.328 . S
C123 H129 0.930 1_655 S
C124 C123 1.392 . S
C124 N128 1.331 . S
C125 C126 1.391 . S
C125 N128 1.329 . S
C125 H135 0.930 . S
C126 C125 1.391 . S
C126 N127 1.334 . S
C126 H133 0.930 . S
N127 Zn111 2.119 . S
N127 C123 1.328 . S
N127 C126 1.334 . S
N128 C124 1.331 . S
N128 C125 1.329 . S
H129 C123 0.930 1_455 S
C130 O110 1.257 . S
C130 O131 1.244 . S
O131 C130 1.244 . S
O132 C108 1.257 . S
O132 Zn111 2.019 1_455 S
H133 C126 0.930 . S
H134 C113 0.930 . S
H135 C125 0.930 . S
Zn136 N140 2.020 . S
Zn136 O144 2.019 . S
Zn136 N146 2.119 . S
Zn136 O154 1.975 1_556 S
C137 N138 1.334 . S
C137 N141 1.336 . S
N138 C137 1.334 . S
N138 C139 1.334 . S
C139 N138 1.334 . S
C139 N140 1.336 . S
N140 Zn136 2.020 . S
N140 C139 1.336 . S
N140 N141 1.354 . S
N141 C137 1.336 . S
N141 N140 1.354 . S
N141 Zn145 2.020 . S
C142 O143 1.244 . S
C142 O166 1.257 . S
O143 C142 1.244 . S
O144 Zn136 2.019 . S
O144 C164 1.257 . S
Zn145 N141 2.020 . S
Zn145 O152 1.975 1_556 S
Zn145 N161 2.119 . S
Zn145 O166 2.019 1_455 S
N146 Zn136 2.119 . S
N146 C148 1.334 . S
N146 C149 1.328 . S
C147 C148 1.391 . S
C147 N150 1.329 . S
C147 H168 0.931 . S
C148 N146 1.334 . S
C148 C147 1.391 . S
C148 H155 0.930 . S
C149 N146 1.328 . S
C149 C151 1.392 . S
C149 H156 0.930 . S
N150 C147 1.329 . S
N150 C151 1.331 . S
C151 C149 1.392 . S
C151 N150 1.331 . S
O152 Zn145 1.975 1_554 S
O152 C153 1.252 . S
C153 O152 1.252 . S
C153 O154 1.252 . S
O154 Zn136 1.975 1_554 S
O154 C153 1.252 . S
H155 C148 0.930 . S
H156 C149 0.930 . S
C157 C158 1.392 . S
C157 N161 1.328 . S
C157 H163 0.930 1_455 S
C158 C157 1.392 . S
C158 N162 1.331 . S
C159 C160 1.391 . S
C159 N162 1.329 . S
C159 H169 0.931 . S
C160 C159 1.391 . S
C160 N161 1.334 . S
C160 H167 0.930 . S
N161 Zn145 2.119 . S
N161 C157 1.328 . S
N161 C160 1.334 . S
N162 C158 1.331 . S
N162 C159 1.329 . S
H163 C157 0.930 1_655 S
C164 O144 1.257 . S
C164 O165 1.244 . S
O165 C164 1.244 . S
O166 C142 1.257 . S
O166 Zn145 2.019 1_655 S
H167 C160 0.930 . S
H168 C147 0.931 . S
H169 C159 0.931 . S
Zn170 N174 2.020 . S
Zn170 O178 2.019 1_455 S
Zn170 N180 2.119 . S
Zn170 O188 1.975 . S
C171 N172 1.334 . S
C171 N175 1.336 . S
N172 C171 1.334 . S
N172 C173 1.334 . S
C173 N172 1.334 . S
C173 N174 1.336 . S
N174 Zn170 2.020 . S
N174 C173 1.336 . S
N174 N175 1.354 . S
N175 C171 1.336 . S
N175 N174 1.354 . S
N175 Zn179 2.020 . S
C176 O177 1.244 . S
C176 O200 1.257 . S
O177 C176 1.244 . S
O178 Zn170 2.019 1_655 S
O178 C198 1.257 . S
Zn179 N175 2.020 . S
Zn179 O186 1.975 . S
Zn179 N195 2.119 . S
Zn179 O200 2.019 . S
N180 Zn170 2.119 . S
N180 C182 1.334 . S
N180 C183 1.328 . S
C181 C182 1.391 . S
C181 N184 1.329 . S
C181 H202 0.930 . S
C182 N180 1.334 . S
C182 C181 1.391 . S
C182 H189 0.930 . S
C183 N180 1.328 . S
C183 C185 1.392 . S
C183 H190 0.930 1_455 S
N184 C181 1.329 . S
N184 C185 1.331 . S
C185 C183 1.392 . S
C185 N184 1.331 . S
O186 Zn179 1.975 . S
O186 C187 1.252 . S
C187 O186 1.252 . S
C187 O188 1.252 . S
O188 Zn170 1.975 . S
O188 C187 1.252 . S
H189 C182 0.930 . S
H190 C183 0.930 1_655 S
C191 C192 1.392 . S
C191 N195 1.328 . S
C191 H197 0.930 . S
C192 C191 1.392 . S
C192 N196 1.331 . S
C193 C194 1.391 . S
C193 N196 1.329 . S
C193 H203 0.930 . S
C194 C193 1.391 . S
C194 N195 1.334 . S
C194 H201 0.930 . S
N195 Zn179 2.119 . S
N195 C191 1.328 . S
N195 C194 1.334 . S
N196 C192 1.331 . S
N196 C193 1.329 . S
H197 C191 0.930 . S
C198 O178 1.257 . S
C198 O199 1.244 . S
O199 C198 1.244 . S
O200 C176 1.257 . S
O200 Zn179 2.019 . S
H201 C194 0.930 . S
H202 C181 0.930 . S
H203 C193 0.930 . S
Zn204 N208 2.020 . S
Zn204 O212 2.019 . S
Zn204 N214 2.119 . S
Zn204 O222 1.975 1_554 S
C205 N206 1.334 . S
C205 N209 1.336 . S
N206 C205 1.334 . S
N206 C207 1.334 . S
C207 N206 1.334 . S
C207 N208 1.336 . S
N208 Zn204 2.020 . S
N208 C207 1.336 . S
N208 N209 1.354 . S
N209 C205 1.336 . S
N209 N208 1.354 . S
N209 Zn213 2.020 . S
C210 O211 1.244 . S
C210 O234 1.257 . S
O211 C210 1.244 . S
O212 Zn204 2.019 . S
O212 C232 1.257 . S
Zn213 N209 2.020 . S
Zn213 O220 1.975 1_554 S
Zn213 N229 2.119 . S
Zn213 O234 2.019 1_655 S
N214 Zn204 2.119 . S
N214 C216 1.334 . S
N214 C217 1.328 . S
C215 C216 1.391 . S
C215 N218 1.329 . S
C215 H236 0.931 . S
C216 N214 1.334 . S
C216 C215 1.391 . S
C216 H223 0.930 . S
C217 N214 1.328 . S
C217 C219 1.392 . S
C217 H224 0.930 . S
N218 C215 1.329 . S
N218 C219 1.331 . S
C219 C217 1.392 . S
C219 N218 1.331 . S
O220 Zn213 1.975 1_556 S
O220 C221 1.252 . S
C221 O220 1.252 . S
C221 O222 1.252 . S
O222 Zn204 1.975 1_556 S
O222 C221 1.252 . S
H223 C216 0.930 . S
H224 C217 0.930 . S
C225 C226 1.392 . S
C225 N229 1.328 . S
C225 H231 0.930 1_655 S
C226 C225 1.392 . S
C226 N230 1.331 . S
C227 C228 1.391 . S
C227 N230 1.329 . S
C227 H237 0.931 . S
C228 C227 1.391 . S
C228 N229 1.334 . S
C228 H235 0.930 . S
N229 Zn213 2.119 . S
N229 C225 1.328 . S
N229 C228 1.334 . S
N230 C226 1.331 . S
N230 C227 1.329 . S
H231 C225 0.930 1_455 S
C232 O212 1.257 . S
C232 O233 1.244 . S
O233 C232 1.244 . S
O234 C210 1.257 . S
O234 Zn213 2.019 1_455 S
H235 C228 0.930 . S
H236 C215 0.931 . S
H237 C227 0.931 . S
Zn238 N242 2.020 . S
Zn238 O246 2.019 . S
Zn238 N248 2.119 . S
Zn238 O256 1.975 . S
C239 N240 1.334 . S
C239 N243 1.336 . S
N240 C239 1.334 . S
N240 C241 1.334 . S
C241 N240 1.334 . S
C241 N242 1.336 . S
N242 Zn238 2.020 . S
N242 C241 1.336 . S
N242 N243 1.354 . S
N243 C239 1.336 . S
N243 N242 1.354 . S
N243 Zn247 2.020 . S
C244 O245 1.244 . S
C244 O268 1.257 . S
O245 C244 1.244 . S
O246 Zn238 2.019 . S
O246 C266 1.257 . S
Zn247 N243 2.020 . S
Zn247 O254 1.975 . S
Zn247 N263 2.119 . S
Zn247 O268 2.019 1_655 S
N248 Zn238 2.119 . S
N248 C250 1.334 . S
N248 C251 1.328 . S
C249 C250 1.391 . S
C249 N252 1.329 . S
C249 H270 0.930 . S
C250 N248 1.334 . S
C250 C249 1.391 . S
C250 H257 0.930 . S
C251 N248 1.328 . S
C251 C253 1.392 . S
C251 H258 0.930 . S
N252 C249 1.329 . S
N252 C253 1.331 . S
C253 C251 1.392 . S
C253 N252 1.331 . S
O254 Zn247 1.975 . S
O254 C255 1.252 . S
C255 O254 1.252 . S
C255 O256 1.252 . S
O256 Zn238 1.975 . S
O256 C255 1.252 . S
H257 C250 0.930 . S
H258 C251 0.930 . S
C259 C260 1.392 . S
C259 N263 1.328 . S
C259 H265 0.930 1_655 S
C260 C259 1.392 . S
C260 N264 1.331 . S
C261 C262 1.391 . S
C261 N264 1.329 . S
C261 H271 0.930 . S
C262 C261 1.391 . S
C262 N263 1.334 . S
C262 H269 0.930 . S
N263 Zn247 2.119 . S
N263 C259 1.328 . S
N263 C262 1.334 . S
N264 C260 1.331 . S
N264 C261 1.329 . S
H265 C259 0.930 1_455 S
C266 O246 1.257 . S
C266 O267 1.244 . S
O267 C266 1.244 . S
O268 C244 1.257 . S
O268 Zn247 2.019 1_455 S
H269 C262 0.930 . S
H270 C249 0.930 . S
H271 C261 0.930 . S
Zn272 N276 2.020 . S
Zn272 O280 2.019 . S
Zn272 N282 2.119 . S
Zn272 O290 1.975 1_556 S
C273 N274 1.334 . S
C273 N277 1.336 . S
N274 C273 1.334 . S
N274 C275 1.334 . S
C275 N274 1.334 . S
C275 N276 1.336 . S
N276 Zn272 2.020 . S
N276 C275 1.336 . S
N276 N277 1.354 . S
N277 C273 1.336 . S
N277 N276 1.354 . S
N277 Zn281 2.020 . S
C278 O279 1.244 . S
C278 O302 1.257 . S
O279 C278 1.244 . S
O280 Zn272 2.019 . S
O280 C300 1.257 . S
Zn281 N277 2.020 . S
Zn281 O288 1.975 1_556 S
Zn281 N297 2.119 . S
Zn281 O302 2.019 . S
N282 Zn272 2.119 . S
N282 C284 1.334 . S
N282 C285 1.328 . S
C283 C284 1.391 . S
C283 N286 1.329 . S
C283 H304 0.931 . S
C284 N282 1.334 . S
C284 C283 1.391 . S
C284 H291 0.930 . S
C285 N282 1.328 . S
C285 C287 1.392 . S
C285 H292 0.930 . S
N286 C283 1.329 . S
N286 C287 1.331 . S
C287 C285 1.392 . S
C287 N286 1.331 . S
O288 Zn281 1.975 1_554 S
O288 C289 1.252 . S
C289 O288 1.252 . S
C289 O290 1.252 . S
O290 Zn272 1.975 1_554 S
O290 C289 1.252 . S
H291 C284 0.930 . S
H292 C285 0.930 . S
C293 C294 1.392 . S
C293 N297 1.328 . S
C293 H299 0.930 . S
C294 C293 1.392 . S
C294 N298 1.331 . S
C295 C296 1.391 . S
C295 N298 1.329 . S
C295 H305 0.931 . S
C296 C295 1.391 . S
C296 N297 1.334 . S
C296 H303 0.930 . S
N297 Zn281 2.119 . S
N297 C293 1.328 . S
N297 C296 1.334 . S
N298 C294 1.331 . S
N298 C295 1.329 . S
H299 C293 0.930 . S
C300 O280 1.257 . S
C300 O301 1.244 . S
O301 C300 1.244 . S
O302 C278 1.257 . S
O302 Zn281 2.019 . S
H303 C296 0.930 . S
H304 C283 0.931 . S
H305 C295 0.931 . S
Zn306 N310 2.020 . S
Zn306 O314 2.019 . S
Zn306 N316 2.119 . S
Zn306 O324 1.975 . S
C307 N308 1.334 . S
C307 N311 1.336 . S
N308 C307 1.334 . S
N308 C309 1.334 . S
C309 N308 1.334 . S
C309 N310 1.336 . S
N310 Zn306 2.020 . S
N310 C309 1.336 . S
N310 N311 1.354 . S
N311 C307 1.336 . S
N311 N310 1.354 . S
N311 Zn315 2.020 . S
C312 O313 1.244 . S
C312 O336 1.257 . S
O313 C312 1.244 . S
O314 Zn306 2.019 . S
O314 C334 1.257 . S
Zn315 N311 2.020 . S
Zn315 O322 1.975 . S
Zn315 N331 2.119 . S
Zn315 O336 2.019 . S
N316 Zn306 2.119 . S
N316 C318 1.334 . S
N316 C319 1.328 . S
C317 C318 1.391 . S
C317 N320 1.329 . S
C317 H338 0.930 . S
C318 N316 1.334 . S
C318 C317 1.391 . S
C318 H325 0.930 . S
C319 N316 1.328 . S
C319 C321 1.392 . S
C319 H326 0.930 . S
N320 C317 1.329 . S
N320 C321 1.331 . S
C321 C319 1.392 . S
C321 N320 1.331 . S
O322 Zn315 1.975 . S
O322 C323 1.252 . S
C323 O322 1.252 . S
C323 O324 1.252 . S
O324 Zn306 1.975 . S
O324 C323 1.252 . S
H325 C318 0.930 . S
H326 C319 0.930 . S
C327 C328 1.392 . S
C327 N331 1.328 . S
C327 H333 0.930 . S
C328 C327 1.392 . S
C328 N332 1.331 . S
C329 C330 1.391 . S
C329 N332 1.329 . S
C329 H339 0.930 . S
C330 C329 1.391 . S
C330 N331 1.334 . S
C330 H337 0.930 . S
N331 Zn315 2.119 . S
N331 C327 1.328 . S
N331 C330 1.334 . S
N332 C328 1.331 . S
N332 C329 1.329 . S
H333 C327 0.930 . S
C334 O314 1.257 . S
C334 O335 1.244 . S
O335 C334 1.244 . S
O336 C312 1.257 . S
O336 Zn315 2.019 . S
H337 C330 0.930 . S
H338 C317 0.930 . S
H339 C329 0.930 . S
Zn340 N344 2.020 . S
Zn340 O348 2.019 . S
Zn340 N350 2.119 . S
Zn340 O358 1.975 1_554 S
C341 N342 1.334 . S
C341 N345 1.336 . S
N342 C341 1.334 . S
N342 C343 1.334 . S
C343 N342 1.334 . S
C343 N344 1.336 . S
N344 Zn340 2.020 . S
N344 C343 1.336 . S
N344 N345 1.354 . S
N345 C341 1.336 . S
N345 N344 1.354 . S
N345 Zn349 2.020 . S
C346 O347 1.244 . S
C346 O370 1.257 . S
O347 C346 1.244 . S
O348 Zn340 2.019 . S
O348 C368 1.257 . S
Zn349 N345 2.020 . S
Zn349 O356 1.975 1_554 S
Zn349 N365 2.119 . S
Zn349 O370 2.019 . S
N350 Zn340 2.119 . S
N350 C352 1.334 . S
N350 C353 1.328 . S
C351 C352 1.391 . S
C351 N354 1.329 . S
C351 H372 0.931 . S
C352 N350 1.334 . S
C352 C351 1.391 . S
C352 H359 0.930 . S
C353 N350 1.328 . S
C353 C355 1.392 . S
C353 H360 0.930 . S
N354 C351 1.329 . S
N354 C355 1.331 . S
C355 C353 1.392 . S
C355 N354 1.331 . S
O356 Zn349 1.975 1_556 S
O356 C357 1.252 . S
C357 O356 1.252 . S
C357 O358 1.252 . S
O358 Zn340 1.975 1_556 S
O358 C357 1.252 . S
H359 C352 0.930 . S
H360 C353 0.930 . S
C361 C362 1.392 . S
C361 N365 1.328 . S
C361 H367 0.930 . S
C362 C361 1.392 . S
C362 N366 1.331 . S
C363 C364 1.391 . S
C363 N366 1.329 . S
C363 H373 0.931 . S
C364 C363 1.391 . S
C364 N365 1.334 . S
C364 H371 0.930 . S
N365 Zn349 2.119 . S
N365 C361 1.328 . S
N365 C364 1.334 . S
N366 C362 1.331 . S
N366 C363 1.329 . S
H367 C361 0.930 . S
C368 O348 1.257 . S
C368 O369 1.244 . S
O369 C368 1.244 . S
O370 C346 1.257 . S
O370 Zn349 2.019 . S
H371 C364 0.930 . S
H372 C351 0.931 . S
H373 C363 0.931 . S
Zn374 N378 2.020 . S
Zn374 O382 2.019 . S
Zn374 N384 2.119 . S
Zn374 O392 1.975 . S
C375 N376 1.334 . S
C375 N379 1.336 . S
N376 C375 1.334 . S
N376 C377 1.334 . S
C377 N376 1.334 . S
C377 N378 1.336 . S
N378 Zn374 2.020 . S
N378 C377 1.336 . S
N378 N379 1.354 . S
N379 C375 1.336 . S
N379 N378 1.354 . S
N379 Zn383 2.020 . S
C380 O381 1.244 . S
C380 O404 1.257 . S
O381 C380 1.244 . S
O382 Zn374 2.019 . S
O382 C402 1.257 . S
Zn383 N379 2.020 . S
Zn383 O390 1.975 . S
Zn383 N399 2.119 . S
Zn383 O404 2.019 . S
N384 Zn374 2.119 . S
N384 C386 1.334 . S
N384 C387 1.328 . S
C385 C386 1.391 . S
C385 N388 1.329 . S
C385 H406 0.930 . S
C386 N384 1.334 . S
C386 C385 1.391 . S
C386 H393 0.930 . S
C387 N384 1.328 . S
C387 C389 1.392 . S
C387 H394 0.930 . S
N388 C385 1.329 . S
N388 C389 1.331 . S
C389 C387 1.392 . S
C389 N388 1.331 . S
O390 Zn383 1.975 . S
O390 C391 1.252 . S
C391 O390 1.252 . S
C391 O392 1.252 . S
O392 Zn374 1.975 . S
O392 C391 1.252 . S
H393 C386 0.930 . S
H394 C387 0.930 . S
C395 C396 1.392 . S
C395 N399 1.328 . S
C395 H401 0.930 . S
C396 C395 1.392 . S
C396 N400 1.331 . S
C397 C398 1.391 . S
C397 N400 1.329 . S
C397 H407 0.930 . S
C398 C397 1.391 . S
C398 N399 1.334 . S
C398 H405 0.930 . S
N399 Zn383 2.119 . S
N399 C395 1.328 . S
N399 C398 1.334 . S
N400 C396 1.331 . S
N400 C397 1.329 . S
H401 C395 0.930 . S
C402 O382 1.257 . S
C402 O403 1.244 . S
O403 C402 1.244 . S
O404 C380 1.257 . S
O404 Zn383 2.019 . S
H405 C398 0.930 . S
H406 C385 0.930 . S
H407 C397 0.930 . S
Zn408 N412 2.020 . S
Zn408 O416 2.019 . S
Zn408 N418 2.119 . S
Zn408 O426 1.975 . S
C409 N410 1.334 . S
C409 N413 1.336 . S
N410 C409 1.334 . S
N410 C411 1.334 . S
C411 N410 1.334 . S
C411 N412 1.336 . S
N412 Zn408 2.020 . S
N412 C411 1.336 . S
N412 N413 1.354 . S
N413 C409 1.336 . S
N413 N412 1.354 . S
N413 Zn417 2.020 . S
C414 O415 1.244 . S
C414 O438 1.257 . S
O415 C414 1.244 . S
O416 Zn408 2.019 . S
O416 C436 1.257 . S
Zn417 N413 2.020 . S
Zn417 O424 1.975 . S
Zn417 N433 2.119 . S
Zn417 O438 2.019 . S
N418 Zn408 2.119 . S
N418 C420 1.334 . S
N418 C421 1.328 . S
C419 C420 1.391 . S
C419 N422 1.329 . S
C419 H440 0.930 . S
C420 N418 1.334 . S
C420 C419 1.391 . S
C420 H427 0.930 . S
C421 N418 1.328 . S
C421 C423 1.392 . S
C421 H428 0.930 . S
N422 C419 1.329 . S
N422 C423 1.331 . S
C423 C421 1.392 . S
C423 N422 1.331 . S
O424 Zn417 1.975 . S
O424 C425 1.252 . S
C425 O424 1.252 . S
C425 O426 1.252 . S
O426 Zn408 1.975 . S
O426 C425 1.252 . S
H427 C420 0.930 . S
H428 C421 0.930 . S
C429 C430 1.392 . S
C429 N433 1.328 . S
C429 H435 0.930 . S
C430 C429 1.392 . S
C430 N434 1.331 . S
C431 C432 1.391 . S
C431 N434 1.329 . S
C431 H441 0.930 . S
C432 C431 1.391 . S
C432 N433 1.334 . S
C432 H439 0.930 . S
N433 Zn417 2.119 . S
N433 C429 1.328 . S
N433 C432 1.334 . S
N434 C430 1.331 . S
N434 C431 1.329 . S
H435 C429 0.930 . S
C436 O416 1.257 . S
C436 O437 1.244 . S
O437 C436 1.244 . S
O438 C414 1.257 . S
O438 Zn417 2.019 . S
H439 C432 0.930 . S
H440 C419 0.930 . S
H441 C431 0.930 . S
Zn442 N446 2.020 . S
Zn442 O450 2.019 . S
Zn442 N452 2.119 . S
Zn442 O460 1.975 . S
C443 N444 1.334 . S
C443 N447 1.336 . S
N444 C443 1.334 . S
N444 C445 1.334 . S
C445 N444 1.334 . S
C445 N446 1.336 . S
N446 Zn442 2.020 . S
N446 C445 1.336 . S
N446 N447 1.354 . S
N447 C443 1.336 . S
N447 N446 1.354 . S
N447 Zn451 2.020 . S
C448 O449 1.244 . S
C448 O472 1.257 . S
O449 C448 1.244 . S
O450 Zn442 2.019 . S
O450 C470 1.257 . S
Zn451 N447 2.020 . S
Zn451 O458 1.975 . S
Zn451 N467 2.119 . S
Zn451 O472 2.019 . S
N452 Zn442 2.119 . S
N452 C454 1.334 . S
N452 C455 1.328 . S
C453 C454 1.391 . S
C453 N456 1.329 . S
C453 H474 0.930 . S
C454 N452 1.334 . S
C454 C453 1.391 . S
C454 H461 0.930 . S
C455 N452 1.328 . S
C455 C457 1.392 . S
C455 H462 0.930 . S
N456 C453 1.329 . S
N456 C457 1.331 . S
C457 C455 1.392 . S
C457 N456 1.331 . S
O458 Zn451 1.975 . S
O458 C459 1.252 . S
C459 O458 1.252 . S
C459 O460 1.252 . S
O460 Zn442 1.975 . S
O460 C459 1.252 . S
H461 C454 0.930 . S
H462 C455 0.930 . S
C463 C464 1.392 . S
C463 N467 1.328 . S
C463 H469 0.930 . S
C464 C463 1.392 . S
C464 N468 1.331 . S
C465 C466 1.391 . S
C465 N468 1.329 . S
C465 H475 0.930 . S
C466 C465 1.391 . S
C466 N467 1.334 . S
C466 H473 0.930 . S
N467 Zn451 2.119 . S
N467 C463 1.328 . S
N467 C466 1.334 . S
N468 C464 1.331 . S
N468 C465 1.329 . S
H469 C463 0.930 . S
C470 O450 1.257 . S
C470 O471 1.244 . S
O471 C470 1.244 . S
O472 C448 1.257 . S
O472 Zn451 2.019 . S
H473 C466 0.930 . S
H474 C453 0.930 . S
H475 C465 0.930 . S
Zn476 N480 2.020 . S
Zn476 O484 2.019 . S
Zn476 N486 2.119 . S
Zn476 O494 1.975 . S
C477 N478 1.334 . S
C477 N481 1.336 . S
N478 C477 1.334 . S
N478 C479 1.334 . S
C479 N478 1.334 . S
C479 N480 1.336 . S
N480 Zn476 2.020 . S
N480 C479 1.336 . S
N480 N481 1.354 . S
N481 C477 1.336 . S
N481 N480 1.354 . S
N481 Zn485 2.020 . S
C482 O483 1.244 . S
C482 O506 1.257 . S
O483 C482 1.244 . S
O484 Zn476 2.019 . S
O484 C504 1.257 . S
Zn485 N481 2.020 . S
Zn485 O492 1.975 . S
Zn485 N501 2.119 . S
Zn485 O506 2.019 . S
N486 Zn476 2.119 . S
N486 C488 1.334 . S
N486 C489 1.328 . S
C487 C488 1.391 . S
C487 N490 1.329 . S
C487 H508 0.930 . S
C488 N486 1.334 . S
C488 C487 1.391 . S
C488 H495 0.930 . S
C489 N486 1.328 . S
C489 C491 1.392 . S
C489 H496 0.930 . S
N490 C487 1.329 . S
N490 C491 1.331 . S
C491 C489 1.392 . S
C491 N490 1.331 . S
O492 Zn485 1.975 . S
O492 C493 1.252 . S
C493 O492 1.252 . S
C493 O494 1.252 . S
O494 Zn476 1.975 . S
O494 C493 1.252 . S
H495 C488 0.930 . S
H496 C489 0.930 . S
C497 C498 1.392 . S
C497 N501 1.328 . S
C497 H503 0.930 . S
C498 C497 1.392 . S
C498 N502 1.331 . S
C499 C500 1.391 . S
C499 N502 1.329 . S
C499 H509 0.930 . S
C500 C499 1.391 . S
C500 N501 1.334 . S
C500 H507 0.930 . S
N501 Zn485 2.119 . S
N501 C497 1.328 . S
N501 C500 1.334 . S
N502 C498 1.331 . S
N502 C499 1.329 . S
H503 C497 0.930 . S
C504 O484 1.257 . S
C504 O505 1.244 . S
O505 C504 1.244 . S
O506 C482 1.257 . S
O506 Zn485 2.019 . S
H507 C500 0.930 . S
H508 C487 0.930 . S
H509 C499 0.930 . S
Zn510 N514 2.020 . S
Zn510 O518 2.019 . S
Zn510 N520 2.119 . S
Zn510 O528 1.975 . S
C511 N512 1.334 . S
C511 N515 1.336 . S
N512 C511 1.334 . S
N512 C513 1.334 . S
C513 N512 1.334 . S
C513 N514 1.336 . S
N514 Zn510 2.020 . S
N514 C513 1.336 . S
N514 N515 1.354 . S
N515 C511 1.336 . S
N515 N514 1.354 . S
N515 Zn519 2.020 . S
C516 O517 1.244 . S
C516 O540 1.257 . S
O517 C516 1.244 . S
O518 Zn510 2.019 . S
O518 C538 1.257 . S
Zn519 N515 2.020 . S
Zn519 O526 1.975 . S
Zn519 N535 2.119 . S
Zn519 O540 2.019 . S
N520 Zn510 2.119 . S
N520 C522 1.334 . S
N520 C523 1.328 . S
C521 C522 1.391 . S
C521 N524 1.329 . S
C521 H542 0.930 . S
C522 N520 1.334 . S
C522 C521 1.391 . S
C522 H529 0.930 . S
C523 N520 1.328 . S
C523 C525 1.392 . S
C523 H530 0.930 . S
N524 C521 1.329 . S
N524 C525 1.331 . S
C525 C523 1.392 . S
C525 N524 1.331 . S
O526 Zn519 1.975 . S
O526 C527 1.252 . S
C527 O526 1.252 . S
C527 O528 1.252 . S
O528 Zn510 1.975 . S
O528 C527 1.252 . S
H529 C522 0.930 . S
H530 C523 0.930 . S
C531 C532 1.392 . S
C531 N535 1.328 . S
C531 H537 0.930 . S
C532 C531 1.392 . S
C532 N536 1.331 . S
C533 C534 1.391 . S
C533 N536 1.329 . S
C533 H543 0.930 . S
C534 C533 1.391 . S
C534 N535 1.334 . S
C534 H541 0.930 . S
N535 Zn519 2.119 . S
N535 C531 1.328 . S
N535 C534 1.334 . S
N536 C532 1.331 . S
N536 C533 1.329 . S
H537 C531 0.930 . S
C538 O518 1.257 . S
C538 O539 1.244 . S
O539 C538 1.244 . S
O540 C516 1.257 . S
O540 Zn519 2.019 . S
H541 C534 0.930 . S
H542 C521 0.930 . S
H543 C533 0.930 . S
H544 C552 0.929 . S
H545 C554 0.930 . S
H546 C556 0.930 . S
H547 C559 0.929 . S
H548 C562 0.930 . S
H549 C564 0.960 . S
H550 C564 0.960 . S
H551 C564 0.960 . S
C552 H544 0.929 . S
C552 C553 1.377 . S
C552 C554 1.384 . S
C553 C552 1.377 . S
C553 C559 1.390 . S
C554 H545 0.930 . S
C554 C552 1.384 . S
C554 C555 1.372 . S
C555 C554 1.372 . S
C555 C556 1.400 . S
C555 C560 1.490 . S
C556 H546 0.930 . S
C556 C555 1.400 . S
C556 C559 1.386 . S
H557 C573 0.930 . S
H558 C574 0.931 . S
C559 H547 0.929 . S
C559 C553 1.390 . S
C559 C556 1.386 . S
C560 C555 1.490 . S
C560 C562 1.395 . S
C560 C563 1.403 . S
H561 C567 0.930 . S
C562 H548 0.930 . S
C562 C560 1.395 . S
C562 C565 1.403 . S
C563 C560 1.403 . S
C563 C564 1.524 . S
C563 C567 1.400 . S
C564 H549 0.960 . S
C564 H550 0.960 . S
C564 H551 0.960 . S
C564 C563 1.524 . S
C565 C562 1.403 . S
C565 C566 1.392 . S
C565 C569 1.495 . S
C566 C565 1.392 . S
C566 C567 1.385 . S
C566 C568 1.478 . S
C567 H561 0.930 . S
C567 C563 1.400 . S
C567 C566 1.385 . S
C568 C566 1.478 . S
C568 C570 1.381 . S
C568 C574 1.383 . S
C569 C565 1.495 . S
C569 H575 0.959 . S
C569 H576 0.961 . S
C569 H577 0.960 . S
C570 C568 1.381 . S
C570 C571 1.394 . S
C570 H578 0.930 . S
C571 C570 1.394 . S
C571 C572 1.383 . S
C571 H579 0.929 . S
C572 C571 1.383 . S
C572 C573 1.377 . S
C573 H557 0.930 . S
C573 C572 1.377 . S
C573 C574 1.379 . S
C574 H558 0.931 . S
C574 C568 1.383 . S
C574 C573 1.379 . S
H575 C569 0.959 . S
H576 C569 0.961 . S
H577 C569 0.960 . S
H578 C570 0.930 . S
H579 C571 0.929 . S
H580 C588 0.929 . S
H581 C590 0.930 . S
H582 C592 0.930 . S
H583 C595 0.929 . S
H584 C598 0.930 . S
H585 C600 0.960 . S
H586 C600 0.960 . S
H587 C600 0.960 . S
C588 H580 0.929 . S
C588 C589 1.377 . S
C588 C590 1.384 . S
C589 C588 1.377 . S
C589 C595 1.390 1_655 S
C590 H581 0.930 . S
C590 C588 1.384 . S
C590 C591 1.372 . S
C591 C590 1.372 . S
C591 C592 1.400 1_655 S
C591 C596 1.490 . S
C592 H582 0.930 . S
C592 C591 1.400 1_455 S
C592 C595 1.386 . S
H593 C609 0.930 . S
H594 C610 0.931 . S
C595 H583 0.929 . S
C595 C589 1.390 1_455 S
C595 C592 1.386 . S
C596 C591 1.490 . S
C596 C598 1.395 1_655 S
C596 C599 1.403 . S
H597 C603 0.930 . S
C598 H584 0.930 . S
C598 C596 1.395 1_455 S
C598 C601 1.403 1_565 S
C599 C596 1.403 . S
C599 C600 1.524 . S
C599 C603 1.400 1_565 S
C600 H585 0.960 . S
C600 H586 0.960 . S
C600 H587 0.960 . S
C600 C599 1.524 . S
C601 C598 1.403 1_545 S
C601 C602 1.392 . S
C601 C605 1.495 . S
C602 C601 1.392 . S
C602 C603 1.385 1_455 S
C602 C604 1.478 . S
C603 H597 0.930 . S
C603 C599 1.400 1_545 S
C603 C602 1.385 1_655 S
C604 C602 1.478 . S
C604 C606 1.381 1_455 S
C604 C610 1.383 . S
C605 C601 1.495 . S
C605 H611 0.959 . S
C605 H612 0.961 . S
C605 H613 0.960 . S
C606 C604 1.381 1_655 S
C606 C607 1.394 . S
C606 H614 0.930 . S
C607 C606 1.394 . S
C607 C608 1.383 1_655 S
C607 H615 0.929 . S
C608 C607 1.383 1_455 S
C608 C609 1.377 . S
C609 H593 0.930 . S
C609 C608 1.377 . S
C609 C610 1.379 . S
C610 H594 0.931 . S
C610 C604 1.383 . S
C610 C609 1.379 . S
H611 C605 0.959 . S
H612 C605 0.961 . S
H613 C605 0.960 . S
H614 C606 0.930 . S
H615 C607 0.929 . S
H616 C624 0.929 . S
H617 C626 0.930 . S
H618 C628 0.930 . S
H619 C631 0.929 . S
H620 C634 0.930 . S
H621 C636 0.960 . S
H622 C636 0.960 . S
H623 C636 0.960 . S
C624 H616 0.929 . S
C624 C625 1.377 . S
C624 C626 1.384 . S
C625 C624 1.377 . S
C625 C631 1.390 . S
C626 H617 0.930 . S
C626 C624 1.384 . S
C626 C627 1.372 . S
C627 C626 1.372 . S
C627 C628 1.400 . S
C627 C632 1.490 . S
C628 H618 0.930 . S
C628 C627 1.400 . S
C628 C631 1.386 . S
H629 C645 0.930 . S
H630 C646 0.931 . S
C631 H619 0.929 . S
C631 C625 1.390 . S
C631 C628 1.386 . S
C632 C627 1.490 . S
C632 C634 1.395 . S
C632 C635 1.403 . S
H633 C639 0.930 . S
C634 H620 0.930 . S
C634 C632 1.395 . S
C634 C637 1.403 1_545 S
C635 C632 1.403 . S
C635 C636 1.524 . S
C635 C639 1.400 1_545 S
C636 H621 0.960 . S
C636 H622 0.960 . S
C636 H623 0.960 . S
C636 C635 1.524 . S
C637 C634 1.403 1_565 S
C637 C638 1.392 . S
C637 C641 1.495 . S
C638 C637 1.392 . S
C638 C639 1.385 . S
C638 C640 1.478 . S
C639 H633 0.930 . S
C639 C635 1.400 1_565 S
C639 C638 1.385 . S
C640 C638 1.478 . S
C640 C642 1.381 . S
C640 C646 1.383 . S
C641 C637 1.495 . S
C641 H647 0.959 . S
C641 H648 0.961 . S
C641 H649 0.960 . S
C642 C640 1.381 . S
C642 C643 1.394 . S
C642 H650 0.930 . S
C643 C642 1.394 . S
C643 C644 1.383 . S
C643 H651 0.929 . S
C644 C643 1.383 . S
C644 C645 1.377 . S
C645 H629 0.930 . S
C645 C644 1.377 . S
C645 C646 1.379 . S
C646 H630 0.931 . S
C646 C640 1.383 . S
C646 C645 1.379 . S
H647 C641 0.959 . S
H648 C641 0.961 . S
H649 C641 0.960 . S
H650 C642 0.930 . S
H651 C643 0.929 . S
H652 C660 0.929 . S
H653 C662 0.930 . S
H654 C664 0.930 . S
H655 C667 0.929 . S
H656 C670 0.930 . S
H657 C672 0.960 . S
H658 C672 0.960 1_455 S
H659 C672 0.960 . S
C660 H652 0.929 . S
C660 C661 1.377 . S
C660 C662 1.384 . S
C661 C660 1.377 . S
C661 C667 1.390 1_455 S
C662 H653 0.930 . S
C662 C660 1.384 . S
C662 C663 1.372 . S
C663 C662 1.372 . S
C663 C664 1.400 1_455 S
C663 C668 1.490 . S
C664 H654 0.930 . S
C664 C663 1.400 1_655 S
C664 C667 1.386 . S
H665 C681 0.930 . S
H666 C682 0.931 . S
C667 H655 0.929 . S
C667 C661 1.390 1_655 S
C667 C664 1.386 . S
C668 C663 1.490 . S
C668 C670 1.395 . S
C668 C671 1.403 1_455 S
H669 C675 0.930 . S
C670 H656 0.930 . S
C670 C668 1.395 . S
C670 C673 1.403 . S
C671 C668 1.403 1_655 S
C671 C672 1.524 . S
C671 C675 1.400 . S
C672 H657 0.960 . S
C672 H658 0.960 1_655 S
C672 H659 0.960 . S
C672 C671 1.524 . S
C673 C670 1.403 . S
C673 C674 1.395 . S
C673 C677 1.495 . S
C674 C673 1.395 . S
C674 C675 1.383 1_455 S
C674 C676 1.477 1_455 S
C675 H669 0.930 . S
C675 C671 1.400 . S
C675 C674 1.383 1_655 S
C676 C674 1.477 1_655 S
C676 C678 1.381 1_655 S
C676 C682 1.383 . S
C677 C673 1.495 . S
C677 H683 0.959 . S
C677 H684 0.961 . S
C677 H685 0.960 . S
C678 C676 1.381 1_455 S
C678 C679 1.394 . S
C678 H686 0.930 . S
C679 C678 1.394 . S
C679 C680 1.383 1_455 S
C679 H687 0.929 . S
C680 C679 1.383 1_655 S
C680 C681 1.377 . S
C681 H665 0.930 . S
C681 C680 1.377 . S
C681 C682 1.379 . S
C682 H666 0.931 . S
C682 C676 1.383 . S
C682 C681 1.379 . S
H683 C677 0.959 . S
H684 C677 0.961 . S
H685 C677 0.960 . S
H686 C678 0.930 . S
H687 C679 0.929 . S
H688 C696 0.929 . S
H689 C698 0.930 . S
H690 C700 0.930 . S
H691 C703 0.929 . S
H692 C706 0.930 . S
H693 C708 0.960 . S
H694 C708 0.960 . S
H695 C708 0.960 . S
C696 H688 0.929 . S
C696 C697 1.377 . S
C696 C698 1.384 . S
C697 C696 1.377 . S
C697 C703 1.390 . S
C698 H689 0.930 . S
C698 C696 1.384 . S
C698 C699 1.372 . S
C699 C698 1.372 . S
C699 C700 1.400 . S
C699 C704 1.490 . S
C700 H690 0.930 . S
C700 C699 1.400 . S
C700 C703 1.386 . S
H701 C717 0.930 . S
H702 C718 0.931 . S
C703 H691 0.929 . S
C703 C697 1.390 . S
C703 C700 1.386 . S
C704 C699 1.490 . S
C704 C706 1.395 . S
C704 C707 1.403 . S
H705 C711 0.930 . S
C706 H692 0.930 . S
C706 C704 1.395 . S
C706 C709 1.403 . S
C707 C704 1.403 . S
C707 C708 1.524 . S
C707 C711 1.400 . S
C708 H693 0.960 . S
C708 H694 0.960 . S
C708 H695 0.960 . S
C708 C707 1.524 . S
C709 C706 1.403 . S
C709 C710 1.392 . S
C709 C713 1.495 . S
C710 C709 1.392 . S
C710 C711 1.385 . S
C710 C712 1.478 . S
C711 H705 0.930 . S
C711 C707 1.400 . S
C711 C710 1.385 . S
C712 C710 1.478 . S
C712 C714 1.381 . S
C712 C718 1.383 . S
C713 C709 1.495 . S
C713 H719 0.959 . S
C713 H720 0.961 . S
C713 H721 0.960 . S
C714 C712 1.381 . S
C714 C715 1.394 . S
C714 H722 0.930 . S
C715 C714 1.394 . S
C715 C716 1.383 . S
C715 H723 0.929 . S
C716 C715 1.383 . S
C716 C717 1.377 . S
C717 H701 0.930 . S
C717 C716 1.377 . S
C717 C718 1.379 . S
C718 H702 0.931 . S
C718 C712 1.383 . S
C718 C717 1.379 . S
H719 C713 0.959 . S
H720 C713 0.961 . S
H721 C713 0.960 . S
H722 C714 0.930 . S
H723 C715 0.929 . S
H724 C732 0.929 . S
H725 C734 0.930 . S
H726 C736 0.930 . S
H727 C739 0.929 . S
H728 C742 0.930 . S
H729 C744 0.960 . S
H730 C744 0.960 . S
H731 C744 0.960 . S
C732 H724 0.929 . S
C732 C733 1.377 . S
C732 C734 1.384 . S
C733 C732 1.377 . S
C733 C739 1.390 . S
C734 H725 0.930 . S
C734 C732 1.384 . S
C734 C735 1.372 . S
C735 C734 1.372 . S
C735 C736 1.400 . S
C735 C740 1.490 . S
C736 H726 0.930 . S
C736 C735 1.400 . S
C736 C739 1.386 . S
H737 C753 0.930 . S
H738 C754 0.931 . S
C739 H727 0.929 . S
C739 C733 1.390 . S
C739 C736 1.386 . S
C740 C735 1.490 . S
C740 C742 1.395 . S
C740 C743 1.403 . S
H741 C747 0.930 . S
C742 H728 0.930 . S
C742 C740 1.395 . S
C742 C745 1.403 1_565 S
C743 C740 1.403 . S
C743 C744 1.524 . S
C743 C747 1.400 1_565 S
C744 H729 0.960 . S
C744 H730 0.960 . S
C744 H731 0.960 . S
C744 C743 1.524 . S
C745 C742 1.403 1_545 S
C745 C746 1.392 . S
C745 C749 1.495 . S
C746 C745 1.392 . S
C746 C747 1.385 . S
C746 C748 1.478 . S
C747 H741 0.930 . S
C747 C743 1.400 1_545 S
C747 C746 1.385 . S
C748 C746 1.478 . S
C748 C750 1.381 . S
C748 C754 1.383 . S
C749 C745 1.495 . S
C749 H755 0.959 . S
C749 H756 0.961 . S
C749 H757 0.960 . S
C750 C748 1.381 . S
C750 C751 1.394 . S
C750 H758 0.930 . S
C751 C750 1.394 . S
C751 C752 1.383 . S
C751 H759 0.929 . S
C752 C751 1.383 . S
C752 C753 1.377 . S
C753 H737 0.930 . S
C753 C752 1.377 . S
C753 C754 1.379 . S
C754 H738 0.931 . S
C754 C748 1.383 . S
C754 C753 1.379 . S
H755 C749 0.959 . S
H756 C749 0.961 . S
H757 C749 0.960 . S
H758 C750 0.930 . S
H759 C751 0.929 . S
H760 C768 0.929 . S
H761 C770 0.930 . S
H762 C772 0.930 . S
H763 C775 0.929 . S
H764 C778 0.930 . S
H765 C780 0.960 . S
H766 C780 0.960 . S
H767 C780 0.950 1_655 S
C768 H760 0.929 . S
C768 C769 1.377 1_455 S
C768 C770 1.384 . S
C769 C768 1.377 1_655 S
C769 C775 1.390 . S
C770 H761 0.930 . S
C770 C768 1.384 . S
C770 C771 1.372 1_455 S
C771 C770 1.372 1_655 S
C771 C772 1.400 . S
C771 C776 1.490 . S
C772 H762 0.930 . S
C772 C771 1.400 . S
C772 C775 1.386 . S
H773 C789 0.930 . S
H774 C790 0.931 . S
C775 H763 0.929 . S
C775 C769 1.390 . S
C775 C772 1.386 . S
C776 C771 1.490 . S
C776 C778 1.395 . S
C776 C779 1.403 1_655 S
H777 C783 0.930 . S
C778 H764 0.930 . S
C778 C776 1.395 . S
C778 C781 1.403 . S
C779 C776 1.403 1_455 S
C779 C780 1.524 . S
C779 C783 1.400 . S
C780 H765 0.960 . S
C780 H766 0.960 . S
C780 H767 0.950 1_455 S
C780 C779 1.524 . S
C781 C778 1.403 . S
C781 C782 1.392 1_655 S
C781 C785 1.495 . S
C782 C781 1.392 1_455 S
C782 C783 1.385 . S
C782 C784 1.478 . S
C783 H777 0.930 . S
C783 C779 1.400 . S
C783 C782 1.385 . S
C784 C782 1.478 . S
C784 C786 1.381 . S
C784 C790 1.383 1_455 S
C785 C781 1.495 . S
C785 H791 0.959 . S
C785 H792 0.961 . S
C785 H793 0.960 1_655 S
C786 C784 1.381 . S
C786 C787 1.394 . S
C786 H794 0.930 . S
C787 C786 1.394 . S
C787 C788 1.383 . S
C787 H795 0.929 . S
C788 C787 1.383 . S
C788 C789 1.377 1_455 S
C789 H773 0.930 . S
C789 C788 1.377 1_655 S
C789 C790 1.379 . S
C790 H774 0.931 . S
C790 C784 1.383 1_655 S
C790 C789 1.379 . S
H791 C785 0.959 . S
H792 C785 0.961 . S
H793 C785 0.960 1_455 S
H794 C786 0.930 . S
H795 C787 0.929 . S
H796 C804 0.929 . S
H797 C806 0.930 . S
H798 C808 0.930 . S
H799 C811 0.929 . S
H800 C814 0.930 . S
H801 C816 0.960 . S
H802 C816 0.960 . S
H803 C816 0.960 . S
C804 H796 0.929 . S
C804 C805 1.377 . S
C804 C806 1.384 . S
C805 C804 1.377 . S
C805 C811 1.390 1_556 S
C806 H797 0.930 . S
C806 C804 1.384 . S
C806 C807 1.372 . S
C807 C806 1.372 . S
C807 C808 1.400 1_556 S
C807 C812 1.490 . S
C808 H798 0.930 . S
C808 C807 1.400 1_554 S
C808 C811 1.386 . S
H809 C825 0.930 . S
H810 C826 0.931 . S
C811 H799 0.929 . S
C811 C805 1.390 1_554 S
C811 C808 1.386 . S
C812 C807 1.490 . S
C812 C814 1.395 . S
C812 C815 1.403 1_556 S
H813 C819 0.930 . S
C814 H800 0.930 . S
C814 C812 1.395 . S
C814 C817 1.403 . S
C815 C812 1.403 1_554 S
C815 C816 1.524 . S
C815 C819 1.400 . S
C816 H801 0.960 . S
C816 H802 0.960 . S
C816 H803 0.960 . S
C816 C815 1.524 . S
C817 C814 1.403 . S
C817 C818 1.392 . S
C817 C821 1.495 . S
C818 C817 1.392 . S
C818 C819 1.385 1_556 S
C818 C820 1.478 . S
C819 H813 0.930 . S
C819 C815 1.400 . S
C819 C818 1.385 1_554 S
C820 C818 1.478 . S
C820 C822 1.381 . S
C820 C826 1.383 1_556 S
C821 C817 1.495 . S
C821 H827 0.959 . S
C821 H828 0.961 . S
C821 H829 0.960 . S
C822 C820 1.381 . S
C822 C823 1.394 . S
C822 H830 0.930 . S
C823 C822 1.394 . S
C823 C824 1.383 1_556 S
C823 H831 0.929 . S
C824 C823 1.383 1_554 S
C824 C825 1.377 . S
C825 H809 0.930 . S
C825 C824 1.377 . S
C825 C826 1.379 . S
C826 H810 0.931 . S
C826 C820 1.383 1_554 S
C826 C825 1.379 . S
H827 C821 0.959 . S
H828 C821 0.961 . S
H829 C821 0.960 . S
H830 C822 0.930 . S
H831 C823 0.929 . S
H832 C840 0.929 . S
H833 C842 0.930 . S
H834 C844 0.930 . S
H835 C847 0.929 . S
H836 C850 0.929 . S
H837 C852 0.960 . S
H838 C852 0.960 . S
H839 C852 0.960 1_556 S
C840 H832 0.929 . S
C840 C841 1.377 1_654 S
C840 C842 1.384 . S
C841 C840 1.377 1_456 S
C841 C847 1.390 . S
C842 H833 0.930 . S
C842 C840 1.384 . S
C842 C843 1.363 1_654 S
C843 C842 1.363 1_456 S
C843 C844 1.409 . S
C843 C848 1.489 1_556 S
C844 H834 0.930 . S
C844 C843 1.409 . S
C844 C847 1.386 . S
H845 C861 0.926 1_455 S
H846 C862 0.933 . S
C847 H835 0.929 . S
C847 C841 1.390 . S
C847 C844 1.386 . S
C848 C843 1.489 1_554 S
C848 C850 1.394 1_454 S
C848 C851 1.404 . S
H849 C855 0.930 . S
C850 H836 0.929 . S
C850 C848 1.394 1_656 S
C850 C853 1.403 . S
C851 C848 1.404 . S
C851 C852 1.524 . S
C851 C855 1.400 . S
C852 H837 0.960 . S
C852 H838 0.960 . S
C852 H839 0.960 1_554 S
C852 C851 1.524 . S
C853 C850 1.403 . S
C853 C854 1.390 1_556 S
C853 C857 1.495 . S
C854 C853 1.390 1_554 S
C854 C855 1.389 1_655 S
C854 C856 1.479 . S
C855 H849 0.930 . S
C855 C851 1.400 . S
C855 C854 1.389 1_455 S
C856 C854 1.479 . S
C856 C858 1.381 . S
C856 C862 1.381 1_654 S
C857 C853 1.495 . S
C857 H863 0.959 . S
C857 H864 0.961 . S
C857 H865 0.960 1_556 S
C858 C856 1.381 . S
C858 C859 1.394 . S
C858 H866 0.930 . S
C859 C858 1.394 . S
C859 C860 1.383 . S
C859 H867 0.929 . S
C860 C859 1.383 . S
C860 C861 1.381 1_554 S
C861 H845 0.926 1_655 S
C861 C860 1.381 1_556 S
C861 C862 1.379 1_655 S
C862 H846 0.933 . S
C862 C856 1.381 1_456 S
C862 C861 1.379 1_455 S
H863 C857 0.959 . S
H864 C857 0.961 . S
H865 C857 0.960 1_554 S
H866 C858 0.930 . S
H867 C859 0.929 . S
H868 C876 0.929 . S
H869 C878 0.930 . S
H870 C880 0.930 . S
H871 C883 0.929 . S
H872 C886 0.930 . S
H873 C888 0.960 . S
H874 C888 0.960 . S
H875 C888 0.960 . S
C876 H868 0.929 . S
C876 C877 1.377 . S
C876 C878 1.384 . S
C877 C876 1.377 . S
C877 C883 1.390 . S
C878 H869 0.930 . S
C878 C876 1.384 . S
C878 C879 1.372 . S
C879 C878 1.372 . S
C879 C880 1.400 . S
C879 C884 1.490 . S
C880 H870 0.930 . S
C880 C879 1.400 . S
C880 C883 1.386 . S
H881 C897 0.930 . S
H882 C898 0.931 . S
C883 H871 0.929 . S
C883 C877 1.390 . S
C883 C880 1.386 . S
C884 C879 1.490 . S
C884 C886 1.395 . S
C884 C887 1.403 . S
H885 C891 0.930 . S
C886 H872 0.930 . S
C886 C884 1.395 . S
C886 C889 1.403 . S
C887 C884 1.403 . S
C887 C888 1.524 . S
C887 C891 1.400 . S
C888 H873 0.960 . S
C888 H874 0.960 . S
C888 H875 0.960 . S
C888 C887 1.524 . S
C889 C886 1.403 . S
C889 C890 1.392 . S
C889 C893 1.495 . S
C890 C889 1.392 . S
C890 C891 1.385 . S
C890 C892 1.478 . S
C891 H885 0.930 . S
C891 C887 1.400 . S
C891 C890 1.385 . S
C892 C890 1.478 . S
C892 C894 1.381 . S
C892 C898 1.383 . S
C893 C889 1.495 . S
C893 H899 0.959 . S
C893 H900 0.961 . S
C893 H901 0.960 . S
C894 C892 1.381 . S
C894 C895 1.394 . S
C894 H902 0.930 . S
C895 C894 1.394 . S
C895 C896 1.383 . S
C895 H903 0.929 . S
C896 C895 1.383 . S
C896 C897 1.377 . S
C897 H881 0.930 . S
C897 C896 1.377 . S
C897 C898 1.379 . S
C898 H882 0.931 . S
C898 C892 1.383 . S
C898 C897 1.379 . S
H899 C893 0.959 . S
H900 C893 0.961 . S
H901 C893 0.960 . S
H902 C894 0.930 . S
H903 C895 0.929 . S
H904 C912 0.929 . S
H905 C914 0.930 . S
H906 C916 0.929 . S
H907 C919 0.929 . S
H908 C922 0.930 . S
H909 C924 0.960 . S
H910 C924 0.960 . S
H911 C924 0.960 . S
C912 H904 0.929 . S
C912 C913 1.377 . S
C912 C914 1.384 . S
C913 C912 1.377 . S
C913 C919 1.390 . S
C914 H905 0.930 . S
C914 C912 1.384 . S
C914 C915 1.372 . S
C915 C914 1.372 . S
C915 C916 1.401 . S
C915 C920 1.490 . S
C916 H906 0.929 . S
C916 C915 1.401 . S
C916 C919 1.389 . S
H917 C933 0.930 . S
H918 C934 0.931 . S
C919 H907 0.929 . S
C919 C913 1.390 . S
C919 C916 1.389 . S
C920 C915 1.490 . S
C920 C922 1.395 . S
C920 C923 1.403 1_554 S
H921 C927 0.930 . S
C922 H908 0.930 . S
C922 C920 1.395 . S
C922 C925 1.403 . S
C923 C920 1.403 1_556 S
C923 C924 1.524 . S
C923 C927 1.400 . S
C924 H909 0.960 . S
C924 H910 0.960 . S
C924 H911 0.960 . S
C924 C923 1.524 . S
C925 C922 1.403 . S
C925 C926 1.392 . S
C925 C929 1.495 . S
C926 C925 1.392 . S
C926 C927 1.385 1_554 S
C926 C928 1.478 . S
C927 H921 0.930 . S
C927 C923 1.400 . S
C927 C926 1.385 1_556 S
C928 C926 1.478 . S
C928 C930 1.379 1_554 S
C928 C934 1.383 . S
C929 C925 1.495 . S
C929 H935 0.959 . S
C929 H936 0.961 . S
C929 H937 0.960 . S
C930 C928 1.379 1_556 S
C930 C931 1.396 . S
C930 H938 0.929 . S
C931 C930 1.396 . S
C931 C932 1.383 . S
C931 H939 0.929 . S
C932 C931 1.383 . S
C932 C933 1.377 1_556 S
C933 H917 0.930 . S
C933 C932 1.377 1_554 S
C933 C934 1.379 . S
C934 H918 0.931 . S
C934 C928 1.383 . S
C934 C933 1.379 . S
H935 C929 0.959 . S
H936 C929 0.961 . S
H937 C929 0.960 . S
H938 C930 0.929 . S
H939 C931 0.929 . S
H940 C948 0.929 . S
H941 C950 0.930 . S
H942 C952 0.930 . S
H943 C955 0.929 . S
H944 C958 0.930 . S
H945 C960 0.960 . S
H946 C960 0.960 . S
H947 C960 0.960 . S
C948 H940 0.929 . S
C948 C949 1.377 . S
C948 C950 1.384 . S
C949 C948 1.377 . S
C949 C955 1.390 . S
C950 H941 0.930 . S
C950 C948 1.384 . S
C950 C951 1.372 . S
C951 C950 1.372 . S
C951 C952 1.400 . S
C951 C956 1.490 . S
C952 H942 0.930 . S
C952 C951 1.400 . S
C952 C955 1.386 . S
H953 C969 0.930 . S
H954 C970 0.931 . S
C955 H943 0.929 . S
C955 C949 1.390 . S
C955 C952 1.386 . S
C956 C951 1.490 . S
C956 C958 1.395 . S
C956 C959 1.403 . S
H957 C963 0.930 . S
C958 H944 0.930 . S
C958 C956 1.395 . S
C958 C961 1.403 . S
C959 C956 1.403 . S
C959 C960 1.524 . S
C959 C963 1.400 . S
C960 H945 0.960 . S
C960 H946 0.960 . S
C960 H947 0.960 . S
C960 C959 1.524 . S
C961 C958 1.403 . S
C961 C962 1.392 . S
C961 C965 1.495 . S
C962 C961 1.392 . S
C962 C963 1.385 . S
C962 C964 1.478 . S
C963 H957 0.930 . S
C963 C959 1.400 . S
C963 C962 1.385 . S
C964 C962 1.478 . S
C964 C966 1.381 . S
C964 C970 1.383 . S
C965 C961 1.495 . S
C965 H971 0.959 . S
C965 H972 0.961 . S
C965 H973 0.960 . S
C966 C964 1.381 . S
C966 C967 1.394 . S
C966 H974 0.930 . S
C967 C966 1.394 . S
C967 C968 1.383 . S
C967 H975 0.929 . S
C968 C967 1.383 . S
C968 C969 1.377 . S
C969 H953 0.930 . S
C969 C968 1.377 . S
C969 C970 1.379 . S
C970 H954 0.931 . S
C970 C964 1.383 . S
C970 C969 1.379 . S
H971 C965 0.959 . S
H972 C965 0.961 . S
H973 C965 0.960 . S
H974 C966 0.930 . S
H975 C967 0.929 . S
H976 C984 0.929 . S
H977 C986 0.930 . S
H978 C988 0.930 . S
H979 C991 0.929 . S
H980 C994 0.930 . S
H981 C996 0.960 . S
H982 C996 0.960 . S
H983 C996 0.960 . S
C984 H976 0.929 . S
C984 C985 1.377 . S
C984 C986 1.384 . S
C985 C984 1.377 . S
C985 C991 1.390 1_556 S
C986 H977 0.930 . S
C986 C984 1.384 . S
C986 C987 1.372 . S
C987 C986 1.372 . S
C987 C988 1.400 1_556 S
C987 C992 1.490 . S
C988 H978 0.930 . S
C988 C987 1.400 1_554 S
C988 C991 1.386 . S
H989 C1005 0.930 . S
H990 C1006 0.931 . S
C991 H979 0.929 . S
C991 C985 1.390 1_554 S
C991 C988 1.386 . S
C992 C987 1.490 . S
C992 C994 1.395 . S
C992 C995 1.403 1_556 S
H993 C999 0.930 . S
C994 H980 0.930 . S
C994 C992 1.395 . S
C994 C997 1.403 1_545 S
C995 C992 1.403 1_554 S
C995 C996 1.524 . S
C995 C999 1.400 1_545 S
C996 H981 0.960 . S
C996 H982 0.960 . S
C996 H983 0.960 . S
C996 C995 1.524 . S
C997 C994 1.403 1_565 S
C997 C998 1.392 . S
C997 C1001 1.495 . S
C998 C997 1.392 . S
C998 C999 1.385 1_556 S
C998 C1000 1.478 . S
C999 H993 0.930 . S
C999 C995 1.400 1_565 S
C999 C998 1.385 1_554 S
C1000 C998 1.478 . S
C1000 C1002 1.381 . S
C1000 C1006 1.383 1_556 S
C1001 C997 1.495 . S
C1001 H1007 0.959 . S
C1001 H1008 0.961 . S
C1001 H1009 0.960 . S
C1002 C1000 1.381 . S
C1002 C1003 1.394 . S
C1002 H1010 0.930 . S
C1003 C1002 1.394 . S
C1003 C1004 1.383 1_556 S
C1003 H1011 0.929 . S
C1004 C1003 1.383 1_554 S
C1004 C1005 1.377 . S
C1005 H989 0.930 . S
C1005 C1004 1.377 . S
C1005 C1006 1.379 . S
C1006 H990 0.931 . S
C1006 C1000 1.383 1_554 S
C1006 C1005 1.379 . S
H1007 C1001 0.959 . S
H1008 C1001 0.961 . S
H1009 C1001 0.960 . S
H1010 C1002 0.930 . S
H1011 C1003 0.929 . S
H1012 C1020 0.929 . S
H1013 C1022 0.930 . S
H1014 C1024 0.930 . S
H1015 C1027 0.929 . S
H1016 C1030 0.930 . S
H1017 C1032 0.960 . S
H1018 C1032 0.960 . S
H1019 C1032 0.960 . S
C1020 H1012 0.929 . S
C1020 C1021 1.377 . S
C1020 C1022 1.384 . S
C1021 C1020 1.377 . S
C1021 C1027 1.390 . S
C1022 H1013 0.930 . S
C1022 C1020 1.384 . S
C1022 C1023 1.372 . S
C1023 C1022 1.372 . S
C1023 C1024 1.400 . S
C1023 C1028 1.490 . S
C1024 H1014 0.930 . S
C1024 C1023 1.400 . S
C1024 C1027 1.386 . S
H1025 C1041 0.930 . S
H1026 C1042 0.931 . S
C1027 H1015 0.929 . S
C1027 C1021 1.390 . S
C1027 C1024 1.386 . S
C1028 C1023 1.490 . S
C1028 C1030 1.395 . S
C1028 C1031 1.403 . S
H1029 C1035 0.930 . S
C1030 H1016 0.930 . S
C1030 C1028 1.395 . S
C1030 C1033 1.403 . S
C1031 C1028 1.403 . S
C1031 C1032 1.524 . S
C1031 C1035 1.400 . S
C1032 H1017 0.960 . S
C1032 H1018 0.960 . S
C1032 H1019 0.960 . S
C1032 C1031 1.524 . S
C1033 C1030 1.403 . S
C1033 C1034 1.392 . S
C1033 C1037 1.495 . S
C1034 C1033 1.392 . S
C1034 C1035 1.385 . S
C1034 C1036 1.478 . S
C1035 H1029 0.930 . S
C1035 C1031 1.400 . S
C1035 C1034 1.385 . S
C1036 C1034 1.478 . S
C1036 C1038 1.381 . S
C1036 C1042 1.383 . S
C1037 C1033 1.495 . S
C1037 H1043 0.959 . S
C1037 H1044 0.961 . S
C1037 H1045 0.960 . S
C1038 C1036 1.381 . S
C1038 C1039 1.394 . S
C1038 H1046 0.930 . S
C1039 C1038 1.394 . S
C1039 C1040 1.383 . S
C1039 H1047 0.929 . S
C1040 C1039 1.383 . S
C1040 C1041 1.377 . S
C1041 H1025 0.930 . S
C1041 C1040 1.377 . S
C1041 C1042 1.379 . S
C1042 H1026 0.931 . S
C1042 C1036 1.383 . S
C1042 C1041 1.379 . S
H1043 C1037 0.959 . S
H1044 C1037 0.961 . S
H1045 C1037 0.960 . S
H1046 C1038 0.930 . S
H1047 C1039 0.929 . S
H1048 C1056 0.929 . S
H1049 C1058 0.930 . S
H1050 C1060 0.930 . S
H1051 C1063 0.929 . S
H1052 C1066 0.930 . S
H1053 C1068 0.960 . S
H1054 C1068 0.960 . S
H1055 C1068 0.960 . S
C1056 H1048 0.929 . S
C1056 C1057 1.377 . S
C1056 C1058 1.384 . S
C1057 C1056 1.377 . S
C1057 C1063 1.390 . S
C1058 H1049 0.930 . S
C1058 C1056 1.384 . S
C1058 C1059 1.372 . S
C1059 C1058 1.372 . S
C1059 C1060 1.400 . S
C1059 C1064 1.490 . S
C1060 H1050 0.930 . S
C1060 C1059 1.400 . S
C1060 C1063 1.386 . S
H1061 C1077 0.930 . S
H1062 C1078 0.931 . S
C1063 H1051 0.929 . S
C1063 C1057 1.390 . S
C1063 C1060 1.386 . S
C1064 C1059 1.490 . S
C1064 C1066 1.395 . S
C1064 C1067 1.403 . S
H1065 C1071 0.930 . S
C1066 H1052 0.930 . S
C1066 C1064 1.395 . S
C1066 C1069 1.403 . S
C1067 C1064 1.403 . S
C1067 C1068 1.524 . S
C1067 C1071 1.400 . S
C1068 H1053 0.960 . S
C1068 H1054 0.960 . S
C1068 H1055 0.960 . S
C1068 C1067 1.524 . S
C1069 C1066 1.403 . S
C1069 C1070 1.392 . S
C1069 C1073 1.495 . S
C1070 C1069 1.392 . S
C1070 C1071 1.385 . S
C1070 C1072 1.478 . S
C1071 H1065 0.930 . S
C1071 C1067 1.400 . S
C1071 C1070 1.385 . S
C1072 C1070 1.478 . S
C1072 C1074 1.381 . S
C1072 C1078 1.383 . S
C1073 C1069 1.495 . S
C1073 H1079 0.959 . S
C1073 H1080 0.961 . S
C1073 H1081 0.960 . S
C1074 C1072 1.381 . S
C1074 C1075 1.394 . S
C1074 H1082 0.930 . S
C1075 C1074 1.394 . S
C1075 C1076 1.383 . S
C1075 H1083 0.929 . S
C1076 C1075 1.383 . S
C1076 C1077 1.377 . S
C1077 H1061 0.930 . S
C1077 C1076 1.377 . S
C1077 C1078 1.379 . S
C1078 H1062 0.931 . S
C1078 C1072 1.383 . S
C1078 C1077 1.379 . S
H1079 C1073 0.959 . S
H1080 C1073 0.961 . S
H1081 C1073 0.960 . S
H1082 C1074 0.930 . S
H1083 C1075 0.929 . S
H1084 C1092 0.929 . S
H1085 C1094 0.930 . S
H1086 C1096 0.930 . S
H1087 C1099 0.929 . S
H1088 C1102 0.930 . S
H1089 C1104 0.960 . S
H1090 C1104 0.960 . S
H1091 C1104 0.960 . S
C1092 H1084 0.929 . S
C1092 C1093 1.377 . S
C1092 C1094 1.384 . S
C1093 C1092 1.377 . S
C1093 C1099 1.390 . S
C1094 H1085 0.930 . S
C1094 C1092 1.384 . S
C1094 C1095 1.372 . S
C1095 C1094 1.372 . S
C1095 C1096 1.400 . S
C1095 C1100 1.490 . S
C1096 H1086 0.930 . S
C1096 C1095 1.400 . S
C1096 C1099 1.386 . S
H1097 C1113 0.930 . S
H1098 C1114 0.931 . S
C1099 H1087 0.929 . S
C1099 C1093 1.390 . S
C1099 C1096 1.386 . S
C1100 C1095 1.490 . S
C1100 C1102 1.395 . S
C1100 C1103 1.403 . S
H1101 C1107 0.930 . S
C1102 H1088 0.930 . S
C1102 C1100 1.395 . S
C1102 C1105 1.403 . S
C1103 C1100 1.403 . S
C1103 C1104 1.524 . S
C1103 C1107 1.400 . S
C1104 H1089 0.960 . S
C1104 H1090 0.960 . S
C1104 H1091 0.960 . S
C1104 C1103 1.524 . S
C1105 C1102 1.403 . S
C1105 C1106 1.392 . S
C1105 C1109 1.495 . S
C1106 C1105 1.392 . S
C1106 C1107 1.385 . S
C1106 C1108 1.478 . S
C1107 H1101 0.930 . S
C1107 C1103 1.400 . S
C1107 C1106 1.385 . S
C1108 C1106 1.478 . S
C1108 C1110 1.381 . S
C1108 C1114 1.383 . S
C1109 C1105 1.495 . S
C1109 H1115 0.959 . S
C1109 H1116 0.961 . S
C1109 H1117 0.960 . S
C1110 C1108 1.381 . S
C1110 C1111 1.394 . S
C1110 H1118 0.930 . S
C1111 C1110 1.394 . S
C1111 C1112 1.383 . S
C1111 H1119 0.929 . S
C1112 C1111 1.383 . S
C1112 C1113 1.377 . S
C1113 H1097 0.930 . S
C1113 C1112 1.377 . S
C1113 C1114 1.379 . S
C1114 H1098 0.931 . S
C1114 C1108 1.383 . S
C1114 C1113 1.379 . S
H1115 C1109 0.959 . S
H1116 C1109 0.961 . S
H1117 C1109 0.960 . S
H1118 C1110 0.930 . S
H1119 C1111 0.929 . S
H1120 C1128 0.929 . S
H1121 C1130 0.930 . S
H1122 C1132 0.930 . S
H1123 C1135 0.929 . S
H1124 C1138 0.930 . S
H1125 C1140 0.960 . S
H1126 C1140 0.960 . S
H1127 C1140 0.960 . S
C1128 H1120 0.929 . S
C1128 C1129 1.377 . S
C1128 C1130 1.384 . S
C1129 C1128 1.377 . S
C1129 C1135 1.390 . S
C1130 H1121 0.930 . S
C1130 C1128 1.384 . S
C1130 C1131 1.372 . S
C1131 C1130 1.372 . S
C1131 C1132 1.400 . S
C1131 C1136 1.490 . S
C1132 H1122 0.930 . S
C1132 C1131 1.400 . S
C1132 C1135 1.386 . S
H1133 C1149 0.930 . S
H1134 C1150 0.931 . S
C1135 H1123 0.929 . S
C1135 C1129 1.390 . S
C1135 C1132 1.386 . S
C1136 C1131 1.490 . S
C1136 C1138 1.395 . S
C1136 C1139 1.403 . S
H1137 C1143 0.930 . S
C1138 H1124 0.930 . S
C1138 C1136 1.395 . S
C1138 C1141 1.403 . S
C1139 C1136 1.403 . S
C1139 C1140 1.524 . S
C1139 C1143 1.400 . S
C1140 H1125 0.960 . S
C1140 H1126 0.960 . S
C1140 H1127 0.960 . S
C1140 C1139 1.524 . S
C1141 C1138 1.403 . S
C1141 C1142 1.392 . S
C1141 C1145 1.495 . S
C1142 C1141 1.392 . S
C1142 C1143 1.385 . S
C1142 C1144 1.478 . S
C1143 H1137 0.930 . S
C1143 C1139 1.400 . S
C1143 C1142 1.385 . S
C1144 C1142 1.478 . S
C1144 C1146 1.381 . S
C1144 C1150 1.383 . S
C1145 C1141 1.495 . S
C1145 H1151 0.959 . S
C1145 H1152 0.961 . S
C1145 H1153 0.960 . S
C1146 C1144 1.381 . S
C1146 C1147 1.394 . S
C1146 H1154 0.930 . S
C1147 C1146 1.394 . S
C1147 C1148 1.383 . S
C1147 H1155 0.929 . S
C1148 C1147 1.383 . S
C1148 C1149 1.377 . S
C1149 H1133 0.930 . S
C1149 C1148 1.377 . S
C1149 C1150 1.379 . S
C1150 H1134 0.931 . S
C1150 C1144 1.383 . S
C1150 C1149 1.379 . S
H1151 C1145 0.959 . S
H1152 C1145 0.961 . S
H1153 C1145 0.960 . S
H1154 C1146 0.930 . S
H1155 C1147 0.929 . S
H1156 C1164 0.929 . S
H1157 C1166 0.930 . S
H1158 C1168 0.930 . S
H1159 C1171 0.929 . S
H1160 C1174 0.930 . S
H1161 C1176 0.960 . S
H1162 C1176 0.960 . S
H1163 C1176 0.960 . S
C1164 H1156 0.929 . S
C1164 C1165 1.377 . S
C1164 C1166 1.384 . S
C1165 C1164 1.377 . S
C1165 C1171 1.390 . S
C1166 H1157 0.930 . S
C1166 C1164 1.384 . S
C1166 C1167 1.372 . S
C1167 C1166 1.372 . S
C1167 C1168 1.400 . S
C1167 C1172 1.490 . S
C1168 H1158 0.930 . S
C1168 C1167 1.400 . S
C1168 C1171 1.386 . S
H1169 C1185 0.930 . S
H1170 C1186 0.931 . S
C1171 H1159 0.929 . S
C1171 C1165 1.390 . S
C1171 C1168 1.386 . S
C1172 C1167 1.490 . S
C1172 C1174 1.395 . S
C1172 C1175 1.403 . S
H1173 C1179 0.930 . S
C1174 H1160 0.930 . S
C1174 C1172 1.395 . S
C1174 C1177 1.403 . S
C1175 C1172 1.403 . S
C1175 C1176 1.524 . S
C1175 C1179 1.400 . S
C1176 H1161 0.960 . S
C1176 H1162 0.960 . S
C1176 H1163 0.960 . S
C1176 C1175 1.524 . S
C1177 C1174 1.403 . S
C1177 C1178 1.392 . S
C1177 C1181 1.495 . S
C1178 C1177 1.392 . S
C1178 C1179 1.385 . S
C1178 C1180 1.478 . S
C1179 H1173 0.930 . S
C1179 C1175 1.400 . S
C1179 C1178 1.385 . S
C1180 C1178 1.478 . S
C1180 C1182 1.381 . S
C1180 C1186 1.383 . S
C1181 C1177 1.495 . S
C1181 H1187 0.959 . S
C1181 H1188 0.961 . S
C1181 H1189 0.960 . S
C1182 C1180 1.381 . S
C1182 C1183 1.394 . S
C1182 H1190 0.930 . S
C1183 C1182 1.394 . S
C1183 C1184 1.383 . S
C1183 H1191 0.929 . S
C1184 C1183 1.383 . S
C1184 C1185 1.377 . S
C1185 H1169 0.930 . S
C1185 C1184 1.377 . S
C1185 C1186 1.379 . S
C1186 H1170 0.931 . S
C1186 C1180 1.383 . S
C1186 C1185 1.379 . S
H1187 C1181 0.959 . S
H1188 C1181 0.961 . S
H1189 C1181 0.960 . S
H1190 C1182 0.930 . S
H1191 C1183 0.929 . S
H1192 C1200 0.929 . S
H1193 C1202 0.930 . S
H1194 C1204 0.930 . S
H1195 C1207 0.929 . S
H1196 C1210 0.930 . S
H1197 C1212 0.960 . S
H1198 C1212 0.960 . S
H1199 C1212 0.960 . S
C1200 H1192 0.929 . S
C1200 C1201 1.377 . S
C1200 C1202 1.384 . S
C1201 C1200 1.377 . S
C1201 C1207 1.390 . S
C1202 H1193 0.930 . S
C1202 C1200 1.384 . S
C1202 C1203 1.372 . S
C1203 C1202 1.372 . S
C1203 C1204 1.400 . S
C1203 C1208 1.490 . S
C1204 H1194 0.930 . S
C1204 C1203 1.400 . S
C1204 C1207 1.386 . S
H1205 C1221 0.930 . S
H1206 C1222 0.931 . S
C1207 H1195 0.929 . S
C1207 C1201 1.390 . S
C1207 C1204 1.386 . S
C1208 C1203 1.490 . S
C1208 C1210 1.395 . S
C1208 C1211 1.403 . S
H1209 C1215 0.930 . S
C1210 H1196 0.930 . S
C1210 C1208 1.395 . S
C1210 C1213 1.403 . S
C1211 C1208 1.403 . S
C1211 C1212 1.524 . S
C1211 C1215 1.400 . S
C1212 H1197 0.960 . S
C1212 H1198 0.960 . S
C1212 H1199 0.960 . S
C1212 C1211 1.524 . S
C1213 C1210 1.403 . S
C1213 C1214 1.392 . S
C1213 C1217 1.495 . S
C1214 C1213 1.392 . S
C1214 C1215 1.385 . S
C1214 C1216 1.478 . S
C1215 H1209 0.930 . S
C1215 C1211 1.400 . S
C1215 C1214 1.385 . S
C1216 C1214 1.478 . S
C1216 C1218 1.381 . S
C1216 C1222 1.383 . S
C1217 C1213 1.495 . S
C1217 H1223 0.959 . S
C1217 H1224 0.961 . S
C1217 H1225 0.960 . S
C1218 C1216 1.381 . S
C1218 C1219 1.394 . S
C1218 H1226 0.930 . S
C1219 C1218 1.394 . S
C1219 C1220 1.383 . S
C1219 H1227 0.929 . S
C1220 C1219 1.383 . S
C1220 C1221 1.377 . S
C1221 H1205 0.930 . S
C1221 C1220 1.377 . S
C1221 C1222 1.379 . S
C1222 H1206 0.931 . S
C1222 C1216 1.383 . S
C1222 C1221 1.379 . S
H1223 C1217 0.959 . S
H1224 C1217 0.961 . S
H1225 C1217 0.960 . S
H1226 C1218 0.930 . S
H1227 C1219 0.929 . S
H1228 C1236 0.929 . S
H1229 C1238 0.930 . S
H1230 C1240 0.930 . S
H1231 C1243 0.929 . S
H1232 C1246 0.930 . S
H1233 C1248 0.960 . S
H1234 C1248 0.960 . S
H1235 C1248 0.960 . S
C1236 H1228 0.929 . S
C1236 C1237 1.377 . S
C1236 C1238 1.384 . S
C1237 C1236 1.377 . S
C1237 C1243 1.390 . S
C1238 H1229 0.930 . S
C1238 C1236 1.384 . S
C1238 C1239 1.372 . S
C1239 C1238 1.372 . S
C1239 C1240 1.400 . S
C1239 C1244 1.490 . S
C1240 H1230 0.930 . S
C1240 C1239 1.400 . S
C1240 C1243 1.386 . S
H1241 C1257 0.930 . S
H1242 C1258 0.931 . S
C1243 H1231 0.929 . S
C1243 C1237 1.390 . S
C1243 C1240 1.386 . S
C1244 C1239 1.490 . S
C1244 C1246 1.395 . S
C1244 C1247 1.403 . S
H1245 C1251 0.930 . S
C1246 H1232 0.930 . S
C1246 C1244 1.395 . S
C1246 C1249 1.403 . S
C1247 C1244 1.403 . S
C1247 C1248 1.524 . S
C1247 C1251 1.400 . S
C1248 H1233 0.960 . S
C1248 H1234 0.960 . S
C1248 H1235 0.960 . S
C1248 C1247 1.524 . S
C1249 C1246 1.403 . S
C1249 C1250 1.392 . S
C1249 C1253 1.495 . S
C1250 C1249 1.392 . S
C1250 C1251 1.385 . S
C1250 C1252 1.478 . S
C1251 H1245 0.930 . S
C1251 C1247 1.400 . S
C1251 C1250 1.385 . S
C1252 C1250 1.478 . S
C1252 C1254 1.381 . S
C1252 C1258 1.383 . S
C1253 C1249 1.495 . S
C1253 H1259 0.959 . S
C1253 H1260 0.961 . S
C1253 H1261 0.960 . S
C1254 C1252 1.381 . S
C1254 C1255 1.394 . S
C1254 H1262 0.930 . S
C1255 C1254 1.394 . S
C1255 C1256 1.383 . S
C1255 H1263 0.929 . S
C1256 C1255 1.383 . S
C1256 C1257 1.377 . S
C1257 H1241 0.930 . S
C1257 C1256 1.377 . S
C1257 C1258 1.379 . S
C1258 H1242 0.931 . S
C1258 C1252 1.383 . S
C1258 C1257 1.379 . S
H1259 C1253 0.959 . S
H1260 C1253 0.961 . S
H1261 C1253 0.960 . S
H1262 C1254 0.930 . S
H1263 C1255 0.929 . S
H1264 C1272 0.929 . S
H1265 C1274 0.930 . S
H1266 C1276 0.930 . S
H1267 C1279 0.929 . S
H1268 C1282 0.930 . S
H1269 C1284 0.960 . S
H1270 C1284 0.960 . S
H1271 C1284 0.960 . S
C1272 H1264 0.929 . S
C1272 C1273 1.377 . S
C1272 C1274 1.384 . S
C1273 C1272 1.377 . S
C1273 C1279 1.390 . S
C1274 H1265 0.930 . S
C1274 C1272 1.384 . S
C1274 C1275 1.372 . S
C1275 C1274 1.372 . S
C1275 C1276 1.400 . S
C1275 C1280 1.490 . S
C1276 H1266 0.930 . S
C1276 C1275 1.400 . S
C1276 C1279 1.386 . S
H1277 C1293 0.930 . S
H1278 C1294 0.931 . S
C1279 H1267 0.929 . S
C1279 C1273 1.390 . S
C1279 C1276 1.386 . S
C1280 C1275 1.490 . S
C1280 C1282 1.395 . S
C1280 C1283 1.403 . S
H1281 C1287 0.930 . S
C1282 H1268 0.930 . S
C1282 C1280 1.395 . S
C1282 C1285 1.403 . S
C1283 C1280 1.403 . S
C1283 C1284 1.524 . S
C1283 C1287 1.400 . S
C1284 H1269 0.960 . S
C1284 H1270 0.960 . S
C1284 H1271 0.960 . S
C1284 C1283 1.524 . S
C1285 C1282 1.403 . S
C1285 C1286 1.392 . S
C1285 C1289 1.495 . S
C1286 C1285 1.392 . S
C1286 C1287 1.385 . S
C1286 C1288 1.478 . S
C1287 H1281 0.930 . S
C1287 C1283 1.400 . S
C1287 C1286 1.385 . S
C1288 C1286 1.478 . S
C1288 C1290 1.381 . S
C1288 C1294 1.383 . S
C1289 C1285 1.495 . S
C1289 H1295 0.959 . S
C1289 H1296 0.961 . S
C1289 H1297 0.960 . S
C1290 C1288 1.381 . S
C1290 C1291 1.394 . S
C1290 H1298 0.930 . S
C1291 C1290 1.394 . S
C1291 C1292 1.383 . S
C1291 H1299 0.929 . S
C1292 C1291 1.383 . S
C1292 C1293 1.377 . S
C1293 H1277 0.930 . S
C1293 C1292 1.377 . S
C1293 C1294 1.379 . S
C1294 H1278 0.931 . S
C1294 C1288 1.383 . S
C1294 C1293 1.379 . S
H1295 C1289 0.959 . S
H1296 C1289 0.961 . S
H1297 C1289 0.960 . S
H1298 C1290 0.930 . S
H1299 C1291 0.929 . S
H1300 C1308 0.929 . S
H1301 C1310 0.930 . S
H1302 C1312 0.930 . S
H1303 C1315 0.929 . S
H1304 C1318 0.930 . S
H1305 C1320 0.960 . S
H1306 C1320 0.960 . S
H1307 C1320 0.960 . S
C1308 H1300 0.929 . S
C1308 C1309 1.377 . S
C1308 C1310 1.384 . S
C1309 C1308 1.377 . S
C1309 C1315 1.390 . S
C1310 H1301 0.930 . S
C1310 C1308 1.384 . S
C1310 C1311 1.372 . S
C1311 C1310 1.372 . S
C1311 C1312 1.400 . S
C1311 C1316 1.490 . S
C1312 H1302 0.930 . S
C1312 C1311 1.400 . S
C1312 C1315 1.386 . S
H1313 C1329 0.930 . S
H1314 C1330 0.931 . S
C1315 H1303 0.929 . S
C1315 C1309 1.390 . S
C1315 C1312 1.386 . S
C1316 C1311 1.490 . S
C1316 C1318 1.395 . S
C1316 C1319 1.403 . S
H1317 C1323 0.930 . S
C1318 H1304 0.930 . S
C1318 C1316 1.395 . S
C1318 C1321 1.403 . S
C1319 C1316 1.403 . S
C1319 C1320 1.524 . S
C1319 C1323 1.400 . S
C1320 H1305 0.960 . S
C1320 H1306 0.960 . S
C1320 H1307 0.960 . S
C1320 C1319 1.524 . S
C1321 C1318 1.403 . S
C1321 C1322 1.392 . S
C1321 C1325 1.495 . S
C1322 C1321 1.392 . S
C1322 C1323 1.385 . S
C1322 C1324 1.478 . S
C1323 H1317 0.930 . S
C1323 C1319 1.400 . S
C1323 C1322 1.385 . S
C1324 C1322 1.478 . S
C1324 C1326 1.381 . S
C1324 C1330 1.383 . S
C1325 C1321 1.495 . S
C1325 H1331 0.959 . S
C1325 H1332 0.961 . S
C1325 H1333 0.960 . S
C1326 C1324 1.381 . S
C1326 C1327 1.394 . S
C1326 H1334 0.930 . S
C1327 C1326 1.394 . S
C1327 C1328 1.383 . S
C1327 H1335 0.929 . S
C1328 C1327 1.383 . S
C1328 C1329 1.377 . S
C1329 H1313 0.930 . S
C1329 C1328 1.377 . S
C1329 C1330 1.379 . S
C1330 H1314 0.931 . S
C1330 C1324 1.383 . S
C1330 C1329 1.379 . S
H1331 C1325 0.959 . S
H1332 C1325 0.961 . S
H1333 C1325 0.960 . S
H1334 C1326 0.930 . S
H1335 C1327 0.929 . S
H1336 C1344 0.929 . S
H1337 C1346 0.930 . S
H1338 C1348 0.930 . S
H1339 C1351 0.929 . S
H1340 C1354 0.930 . S
H1341 C1356 0.960 . S
H1342 C1356 0.960 . S
H1343 C1356 0.960 . S
C1344 H1336 0.929 . S
C1344 C1345 1.377 . S
C1344 C1346 1.384 . S
C1345 C1344 1.377 . S
C1345 C1351 1.390 . S
C1346 H1337 0.930 . S
C1346 C1344 1.384 . S
C1346 C1347 1.372 . S
C1347 C1346 1.372 . S
C1347 C1348 1.400 . S
C1347 C1352 1.490 . S
C1348 H1338 0.930 . S
C1348 C1347 1.400 . S
C1348 C1351 1.386 . S
H1349 C1365 0.930 . S
H1350 C1366 0.931 . S
C1351 H1339 0.929 . S
C1351 C1345 1.390 . S
C1351 C1348 1.386 . S
C1352 C1347 1.490 . S
C1352 C1354 1.395 . S
C1352 C1355 1.403 . S
H1353 C1359 0.930 . S
C1354 H1340 0.930 . S
C1354 C1352 1.395 . S
C1354 C1357 1.403 . S
C1355 C1352 1.403 . S
C1355 C1356 1.524 . S
C1355 C1359 1.400 . S
C1356 H1341 0.960 . S
C1356 H1342 0.960 . S
C1356 H1343 0.960 . S
C1356 C1355 1.524 . S
C1357 C1354 1.403 . S
C1357 C1358 1.392 . S
C1357 C1361 1.495 . S
C1358 C1357 1.392 . S
C1358 C1359 1.385 . S
C1358 C1360 1.478 . S
C1359 H1353 0.930 . S
C1359 C1355 1.400 . S
C1359 C1358 1.385 . S
C1360 C1358 1.478 . S
C1360 C1362 1.381 . S
C1360 C1366 1.383 . S
C1361 C1357 1.495 . S
C1361 H1367 0.959 . S
C1361 H1368 0.961 . S
C1361 H1369 0.960 . S
C1362 C1360 1.381 . S
C1362 C1363 1.394 . S
C1362 H1370 0.930 . S
C1363 C1362 1.394 . S
C1363 C1364 1.383 . S
C1363 H1371 0.929 . S
C1364 C1363 1.383 . S
C1364 C1365 1.377 . S
C1365 H1349 0.930 . S
C1365 C1364 1.377 . S
C1365 C1366 1.379 . S
C1366 H1350 0.931 . S
C1366 C1360 1.383 . S
C1366 C1365 1.379 . S
H1367 C1361 0.959 . S
H1368 C1361 0.961 . S
H1369 C1361 0.960 . S
H1370 C1362 0.930 . S
H1371 C1363 0.929 . S
H1372 C1380 0.929 . S
H1373 C1382 0.930 . S
H1374 C1384 0.930 . S
H1375 C1387 0.929 . S
H1376 C1390 0.930 . S
H1377 C1392 0.960 . S
H1378 C1392 0.960 . S
H1379 C1392 0.960 . S
C1380 H1372 0.929 . S
C1380 C1381 1.377 . S
C1380 C1382 1.384 . S
C1381 C1380 1.377 . S
C1381 C1387 1.390 . S
C1382 H1373 0.930 . S
C1382 C1380 1.384 . S
C1382 C1383 1.372 . S
C1383 C1382 1.372 . S
C1383 C1384 1.400 . S
C1383 C1388 1.490 . S
C1384 H1374 0.930 . S
C1384 C1383 1.400 . S
C1384 C1387 1.386 . S
H1385 C1401 0.930 . S
H1386 C1402 0.931 . S
C1387 H1375 0.929 . S
C1387 C1381 1.390 . S
C1387 C1384 1.386 . S
C1388 C1383 1.490 . S
C1388 C1390 1.395 . S
C1388 C1391 1.403 . S
H1389 C1395 0.930 . S
C1390 H1376 0.930 . S
C1390 C1388 1.395 . S
C1390 C1393 1.403 . S
C1391 C1388 1.403 . S
C1391 C1392 1.524 . S
C1391 C1395 1.400 . S
C1392 H1377 0.960 . S
C1392 H1378 0.960 . S
C1392 H1379 0.960 . S
C1392 C1391 1.524 . S
C1393 C1390 1.403 . S
C1393 C1394 1.392 . S
C1393 C1397 1.495 . S
C1394 C1393 1.392 . S
C1394 C1395 1.385 . S
C1394 C1396 1.478 . S
C1395 H1389 0.930 . S
C1395 C1391 1.400 . S
C1395 C1394 1.385 . S
C1396 C1394 1.478 . S
C1396 C1398 1.381 . S
C1396 C1402 1.383 . S
C1397 C1393 1.495 . S
C1397 H1403 0.959 . S
C1397 H1404 0.961 . S
C1397 H1405 0.960 . S
C1398 C1396 1.381 . S
C1398 C1399 1.394 . S
C1398 H1406 0.930 . S
C1399 C1398 1.394 . S
C1399 C1400 1.383 . S
C1399 H1407 0.929 . S
C1400 C1399 1.383 . S
C1400 C1401 1.377 . S
C1401 H1385 0.930 . S
C1401 C1400 1.377 . S
C1401 C1402 1.379 . S
C1402 H1386 0.931 . S
C1402 C1396 1.383 . S
C1402 C1401 1.379 . S
H1403 C1397 0.959 . S
H1404 C1397 0.961 . S
H1405 C1397 0.960 . S
H1406 C1398 0.930 . S
H1407 C1399 0.929 . S
H1408 C1416 0.929 . S
H1409 C1418 0.930 . S
H1410 C1420 0.930 . S
H1411 C1423 0.929 . S
H1412 C1426 0.930 . S
H1413 C1428 0.960 . S
H1414 C1428 0.960 . S
H1415 C1428 0.960 . S
C1416 H1408 0.929 . S
C1416 C1417 1.377 . S
C1416 C1418 1.384 . S
C1417 C1416 1.377 . S
C1417 C1423 1.390 . S
C1418 H1409 0.930 . S
C1418 C1416 1.384 . S
C1418 C1419 1.372 . S
C1419 C1418 1.372 . S
C1419 C1420 1.400 . S
C1419 C1424 1.490 . S
C1420 H1410 0.930 . S
C1420 C1419 1.400 . S
C1420 C1423 1.386 . S
H1421 C1437 0.930 . S
H1422 C1438 0.931 . S
C1423 H1411 0.929 . S
C1423 C1417 1.390 . S
C1423 C1420 1.386 . S
C1424 C1419 1.490 . S
C1424 C1426 1.395 . S
C1424 C1427 1.403 . S
H1425 C1431 0.930 . S
C1426 H1412 0.930 . S
C1426 C1424 1.395 . S
C1426 C1429 1.403 . S
C1427 C1424 1.403 . S
C1427 C1428 1.524 . S
C1427 C1431 1.400 . S
C1428 H1413 0.960 . S
C1428 H1414 0.960 . S
C1428 H1415 0.960 . S
C1428 C1427 1.524 . S
C1429 C1426 1.403 . S
C1429 C1430 1.392 . S
C1429 C1433 1.495 . S
C1430 C1429 1.392 . S
C1430 C1431 1.385 . S
C1430 C1432 1.478 . S
C1431 H1425 0.930 . S
C1431 C1427 1.400 . S
C1431 C1430 1.385 . S
C1432 C1430 1.478 . S
C1432 C1434 1.381 . S
C1432 C1438 1.383 . S
C1433 C1429 1.495 . S
C1433 H1439 0.959 . S
C1433 H1440 0.961 . S
C1433 H1441 0.960 . S
C1434 C1432 1.381 . S
C1434 C1435 1.394 . S
C1434 H1442 0.930 . S
C1435 C1434 1.394 . S
C1435 C1436 1.383 . S
C1435 H1443 0.929 . S
C1436 C1435 1.383 . S
C1436 C1437 1.377 . S
C1437 H1421 0.930 . S
C1437 C1436 1.377 . S
C1437 C1438 1.379 . S
C1438 H1422 0.931 . S
C1438 C1432 1.383 . S
C1438 C1437 1.379 . S
H1439 C1433 0.959 . S
H1440 C1433 0.961 . S
H1441 C1433 0.960 . S
H1442 C1434 0.930 . S
H1443 C1435 0.929 . S
H1444 C1452 0.929 . S
H1445 C1454 0.930 . S
H1446 C1456 0.930 . S
H1447 C1459 0.929 . S
H1448 C1462 0.930 . S
H1449 C1464 0.960 . S
H1450 C1464 0.960 . S
H1451 C1464 0.960 1_455 S
C1452 H1444 0.929 . S
C1452 C1453 1.377 1_655 S
C1452 C1454 1.384 . S
C1453 C1452 1.377 1_455 S
C1453 C1459 1.390 . S
C1454 H1445 0.930 . S
C1454 C1452 1.384 . S
C1454 C1455 1.372 . S
C1455 C1454 1.372 . S
C1455 C1456 1.400 1_655 S
C1455 C1460 1.490 . S
C1456 H1446 0.930 . S
C1456 C1455 1.400 1_455 S
C1456 C1459 1.386 . S
H1457 C1473 0.930 . S
H1458 C1474 0.931 . S
C1459 H1447 0.929 . S
C1459 C1453 1.390 . S
C1459 C1456 1.386 . S
C1460 C1455 1.490 . S
C1460 C1462 1.395 . S
C1460 C1463 1.403 . S
H1461 C1467 0.930 . S
C1462 H1448 0.930 . S
C1462 C1460 1.395 . S
C1462 C1465 1.403 . S
C1463 C1460 1.403 . S
C1463 C1464 1.524 . S
C1463 C1467 1.400 . S
C1464 H1449 0.960 . S
C1464 H1450 0.960 . S
C1464 H1451 0.960 1_655 S
C1464 C1463 1.524 . S
C1465 C1462 1.403 . S
C1465 C1466 1.392 . S
C1465 C1469 1.495 . S
C1466 C1465 1.392 . S
C1466 C1467 1.385 . S
C1466 C1468 1.478 . S
C1467 H1461 0.930 . S
C1467 C1463 1.400 . S
C1467 C1466 1.385 . S
C1468 C1466 1.478 . S
C1468 C1470 1.381 . S
C1468 C1474 1.383 . S
C1469 C1465 1.495 . S
C1469 H1475 0.959 . S
C1469 H1476 0.961 . S
C1469 H1477 0.960 . S
C1470 C1468 1.381 . S
C1470 C1471 1.394 . S
C1470 H1478 0.930 . S
C1471 C1470 1.394 . S
C1471 C1472 1.383 . S
C1471 H1479 0.929 . S
C1472 C1471 1.383 . S
C1472 C1473 1.377 . S
C1473 H1457 0.930 . S
C1473 C1472 1.377 . S
C1473 C1474 1.379 . S
C1474 H1458 0.931 . S
C1474 C1468 1.383 . S
C1474 C1473 1.379 . S
H1475 C1469 0.959 . S
H1476 C1469 0.961 . S
H1477 C1469 0.960 . S
H1478 C1470 0.930 . S
H1479 C1471 0.929 . S
H1480 C1488 0.929 . S
H1481 C1490 0.930 . S
H1482 C1492 0.930 . S
H1483 C1495 0.929 . S
H1484 C1498 0.930 . S
H1485 C1500 0.960 . S
H1486 C1500 0.960 . S
H1487 C1500 0.960 . S
C1488 H1480 0.929 . S
C1488 C1489 1.377 . S
C1488 C1490 1.384 . S
C1489 C1488 1.377 . S
C1489 C1495 1.390 . S
C1490 H1481 0.930 . S
C1490 C1488 1.384 . S
C1490 C1491 1.372 . S
C1491 C1490 1.372 . S
C1491 C1492 1.400 . S
C1491 C1496 1.490 . S
C1492 H1482 0.930 . S
C1492 C1491 1.400 . S
C1492 C1495 1.386 . S
H1493 C1509 0.930 . S
H1494 C1510 0.931 . S
C1495 H1483 0.929 . S
C1495 C1489 1.390 . S
C1495 C1492 1.386 . S
C1496 C1491 1.490 . S
C1496 C1498 1.395 . S
C1496 C1499 1.403 . S
H1497 C1503 0.930 . S
C1498 H1484 0.930 . S
C1498 C1496 1.395 . S
C1498 C1501 1.403 . S
C1499 C1496 1.403 . S
C1499 C1500 1.524 . S
C1499 C1503 1.400 . S
C1500 H1485 0.960 . S
C1500 H1486 0.960 . S
C1500 H1487 0.960 . S
C1500 C1499 1.524 . S
C1501 C1498 1.403 . S
C1501 C1502 1.392 . S
C1501 C1505 1.495 . S
C1502 C1501 1.392 . S
C1502 C1503 1.385 . S
C1502 C1504 1.478 . S
C1503 H1497 0.930 . S
C1503 C1499 1.400 . S
C1503 C1502 1.385 . S
C1504 C1502 1.478 . S
C1504 C1506 1.381 . S
C1504 C1510 1.383 . S
C1505 C1501 1.495 . S
C1505 H1511 0.959 . S
C1505 H1512 0.961 . S
C1505 H1513 0.960 . S
C1506 C1504 1.381 . S
C1506 C1507 1.394 . S
C1506 H1514 0.930 . S
C1507 C1506 1.394 . S
C1507 C1508 1.383 . S
C1507 H1515 0.929 . S
C1508 C1507 1.383 . S
C1508 C1509 1.377 . S
C1509 H1493 0.930 . S
C1509 C1508 1.377 . S
C1509 C1510 1.379 . S
C1510 H1494 0.931 . S
C1510 C1504 1.383 . S
C1510 C1509 1.379 . S
H1511 C1505 0.959 . S
H1512 C1505 0.961 . S
H1513 C1505 0.960 . S
H1514 C1506 0.930 . S
H1515 C1507 0.929 . S
H1516 C1524 0.929 . S
H1517 C1526 0.930 . S
H1518 C1528 0.930 . S
H1519 C1531 0.929 . S
H1520 C1534 0.930 . S
H1521 C1536 0.960 . S
H1522 C1536 0.960 . S
H1523 C1536 0.960 . S
C1524 H1516 0.929 . S
C1524 C1525 1.377 . S
C1524 C1526 1.384 . S
C1525 C1524 1.377 . S
C1525 C1531 1.390 1_455 S
C1526 H1517 0.930 . S
C1526 C1524 1.384 . S
C1526 C1527 1.372 1_455 S
C1527 C1526 1.372 1_655 S
C1527 C1528 1.400 . S
C1527 C1532 1.490 . S
C1528 H1518 0.930 . S
C1528 C1527 1.400 . S
C1528 C1531 1.386 . S
H1529 C1545 0.930 . S
H1530 C1546 0.931 . S
C1531 H1519 0.929 . S
C1531 C1525 1.390 1_655 S
C1531 C1528 1.386 . S
C1532 C1527 1.490 . S
C1532 C1534 1.395 . S
C1532 C1535 1.403 . S
H1533 C1539 0.930 . S
C1534 H1520 0.930 . S
C1534 C1532 1.395 . S
C1534 C1537 1.403 . S
C1535 C1532 1.403 . S
C1535 C1536 1.524 . S
C1535 C1539 1.400 . S
C1536 H1521 0.960 . S
C1536 H1522 0.960 . S
C1536 H1523 0.960 . S
C1536 C1535 1.524 . S
C1537 C1534 1.403 . S
C1537 C1538 1.392 . S
C1537 C1541 1.495 . S
C1538 C1537 1.392 . S
C1538 C1539 1.385 . S
C1538 C1540 1.478 . S
C1539 H1533 0.930 . S
C1539 C1535 1.400 . S
C1539 C1538 1.385 . S
C1540 C1538 1.478 . S
C1540 C1542 1.381 . S
C1540 C1546 1.383 . S
C1541 C1537 1.495 . S
C1541 H1547 0.959 . S
C1541 H1548 0.961 . S
C1541 H1549 0.960 . S
C1542 C1540 1.381 . S
C1542 C1543 1.394 . S
C1542 H1550 0.930 . S
C1543 C1542 1.394 . S
C1543 C1544 1.383 . S
C1543 H1551 0.929 . S
C1544 C1543 1.383 . S
C1544 C1545 1.377 . S
C1545 H1529 0.930 . S
C1545 C1544 1.377 . S
C1545 C1546 1.379 . S
C1546 H1530 0.931 . S
C1546 C1540 1.383 . S
C1546 C1545 1.379 . S
H1547 C1541 0.959 . S
H1548 C1541 0.961 . S
H1549 C1541 0.960 . S
H1550 C1542 0.930 . S
H1551 C1543 0.929 . S
H1552 C1560 0.929 . S
H1553 C1562 0.930 . S
H1554 C1564 0.930 . S
H1555 C1567 0.929 . S
H1556 C1570 0.930 . S
H1557 C1572 0.960 . S
H1558 C1572 0.960 . S
H1559 C1572 0.960 . S
C1560 H1552 0.929 . S
C1560 C1561 1.377 . S
C1560 C1562 1.384 . S
C1561 C1560 1.377 . S
C1561 C1567 1.390 . S
C1562 H1553 0.930 . S
C1562 C1560 1.384 . S
C1562 C1563 1.372 . S
C1563 C1562 1.372 . S
C1563 C1564 1.400 . S
C1563 C1568 1.490 . S
C1564 H1554 0.930 . S
C1564 C1563 1.400 . S
C1564 C1567 1.386 . S
H1565 C1581 0.930 . S
H1566 C1582 0.931 . S
C1567 H1555 0.929 . S
C1567 C1561 1.390 . S
C1567 C1564 1.386 . S
C1568 C1563 1.490 . S
C1568 C1570 1.395 . S
C1568 C1571 1.403 . S
H1569 C1575 0.930 . S
C1570 H1556 0.930 . S
C1570 C1568 1.395 . S
C1570 C1573 1.403 . S
C1571 C1568 1.403 . S
C1571 C1572 1.524 . S
C1571 C1575 1.400 . S
C1572 H1557 0.960 . S
C1572 H1558 0.960 . S
C1572 H1559 0.960 . S
C1572 C1571 1.524 . S
C1573 C1570 1.403 . S
C1573 C1574 1.392 . S
C1573 C1577 1.495 . S
C1574 C1573 1.392 . S
C1574 C1575 1.385 . S
C1574 C1576 1.478 . S
C1575 H1569 0.930 . S
C1575 C1571 1.400 . S
C1575 C1574 1.385 . S
C1576 C1574 1.478 . S
C1576 C1578 1.381 . S
C1576 C1582 1.383 . S
C1577 C1573 1.495 . S
C1577 H1583 0.959 . S
C1577 H1584 0.961 . S
C1577 H1585 0.960 . S
C1578 C1576 1.381 . S
C1578 C1579 1.394 . S
C1578 H1586 0.930 . S
C1579 C1578 1.394 . S
C1579 C1580 1.383 . S
C1579 H1587 0.929 . S
C1580 C1579 1.383 . S
C1580 C1581 1.377 . S
C1581 H1565 0.930 . S
C1581 C1580 1.377 . S
C1581 C1582 1.379 . S
C1582 H1566 0.931 . S
C1582 C1576 1.383 . S
C1582 C1581 1.379 . S
H1583 C1577 0.959 . S
H1584 C1577 0.961 . S
H1585 C1577 0.960 . S
H1586 C1578 0.930 . S
H1587 C1579 0.929 . S
H1588 C1596 0.929 . S
H1589 C1598 0.930 . S
H1590 C1600 0.930 . S
H1591 C1603 0.929 . S
H1592 C1606 0.930 . S
H1593 C1608 0.960 . S
H1594 C1608 0.960 . S
H1595 C1608 0.960 . S
C1596 H1588 0.929 . S
C1596 C1597 1.377 . S
C1596 C1598 1.384 . S
C1597 C1596 1.377 . S
C1597 C1603 1.390 . S
C1598 H1589 0.930 . S
C1598 C1596 1.384 . S
C1598 C1599 1.372 . S
C1599 C1598 1.372 . S
C1599 C1600 1.400 . S
C1599 C1604 1.490 . S
C1600 H1590 0.930 . S
C1600 C1599 1.400 . S
C1600 C1603 1.386 . S
H1601 C1617 0.930 . S
H1602 C1618 0.931 . S
C1603 H1591 0.929 . S
C1603 C1597 1.390 . S
C1603 C1600 1.386 . S
C1604 C1599 1.490 . S
C1604 C1606 1.395 . S
C1604 C1607 1.403 . S
H1605 C1611 0.930 . S
C1606 H1592 0.930 . S
C1606 C1604 1.395 . S
C1606 C1609 1.403 . S
C1607 C1604 1.403 . S
C1607 C1608 1.524 . S
C1607 C1611 1.400 . S
C1608 H1593 0.960 . S
C1608 H1594 0.960 . S
C1608 H1595 0.960 . S
C1608 C1607 1.524 . S
C1609 C1606 1.403 . S
C1609 C1610 1.392 . S
C1609 C1613 1.495 . S
C1610 C1609 1.392 . S
C1610 C1611 1.385 . S
C1610 C1612 1.478 . S
C1611 H1605 0.930 . S
C1611 C1607 1.400 . S
C1611 C1610 1.385 . S
C1612 C1610 1.478 . S
C1612 C1614 1.381 1_455 S
C1612 C1618 1.383 . S
C1613 C1609 1.495 . S
C1613 H1619 0.959 . S
C1613 H1620 0.961 . S
C1613 H1621 0.960 1_455 S
C1614 C1612 1.381 1_655 S
C1614 C1615 1.394 . S
C1614 H1622 0.930 . S
C1615 C1614 1.394 . S
C1615 C1616 1.383 . S
C1615 H1623 0.929 . S
C1616 C1615 1.383 . S
C1616 C1617 1.377 1_655 S
C1617 H1601 0.930 . S
C1617 C1616 1.377 1_455 S
C1617 C1618 1.379 . S
C1618 H1602 0.931 . S
C1618 C1612 1.383 . S
C1618 C1617 1.379 . S
H1619 C1613 0.959 . S
H1620 C1613 0.961 . S
H1621 C1613 0.960 1_655 S
H1622 C1614 0.930 . S
H1623 C1615 0.929 . S
H1624 C1632 0.929 . S
H1625 C1634 0.930 . S
H1626 C1636 0.930 . S
H1627 C1639 0.929 . S
H1628 C1642 0.930 . S
H1629 C1644 0.960 . S
H1630 C1644 0.960 . S
H1631 C1644 0.960 . S
C1632 H1624 0.929 . S
C1632 C1633 1.377 . S
C1632 C1634 1.384 . S
C1633 C1632 1.377 . S
C1633 C1639 1.390 . S
C1634 H1625 0.930 . S
C1634 C1632 1.384 . S
C1634 C1635 1.372 . S
C1635 C1634 1.372 . S
C1635 C1636 1.400 . S
C1635 C1640 1.490 . S
C1636 H1626 0.930 . S
C1636 C1635 1.400 . S
C1636 C1639 1.386 . S
H1637 C1653 0.930 . S
H1638 C1654 0.931 . S
C1639 H1627 0.929 . S
C1639 C1633 1.390 . S
C1639 C1636 1.386 . S
C1640 C1635 1.490 . S
C1640 C1642 1.395 . S
C1640 C1643 1.403 . S
H1641 C1647 0.930 . S
C1642 H1628 0.930 . S
C1642 C1640 1.395 . S
C1642 C1645 1.403 . S
C1643 C1640 1.403 . S
C1643 C1644 1.524 . S
C1643 C1647 1.400 . S
C1644 H1629 0.960 . S
C1644 H1630 0.960 . S
C1644 H1631 0.960 . S
C1644 C1643 1.524 . S
C1645 C1642 1.403 . S
C1645 C1646 1.392 . S
C1645 C1649 1.495 . S
C1646 C1645 1.392 . S
C1646 C1647 1.385 . S
C1646 C1648 1.478 . S
C1647 H1641 0.930 . S
C1647 C1643 1.400 . S
C1647 C1646 1.385 . S
C1648 C1646 1.478 . S
C1648 C1650 1.381 . S
C1648 C1654 1.383 . S
C1649 C1645 1.495 . S
C1649 H1655 0.959 . S
C1649 H1656 0.961 . S
C1649 H1657 0.960 . S
C1650 C1648 1.381 . S
C1650 C1651 1.394 . S
C1650 H1658 0.930 . S
C1651 C1650 1.394 . S
C1651 C1652 1.383 . S
C1651 H1659 0.929 . S
C1652 C1651 1.383 . S
C1652 C1653 1.377 . S
C1653 H1637 0.930 . S
C1653 C1652 1.377 . S
C1653 C1654 1.379 . S
C1654 H1638 0.931 . S
C1654 C1648 1.383 . S
C1654 C1653 1.379 . S
H1655 C1649 0.959 . S
H1656 C1649 0.961 . S
H1657 C1649 0.960 . S
H1658 C1650 0.930 . S
H1659 C1651 0.929 . S
H1660 C1668 0.929 . S
H1661 C1670 0.930 . S
H1662 C1672 0.930 . S
H1663 C1675 0.929 . S
H1664 C1678 0.930 . S
H1665 C1680 0.960 . S
H1666 C1680 0.960 . S
H1667 C1680 0.960 . S
C1668 H1660 0.929 . S
C1668 C1669 1.377 . S
C1668 C1670 1.384 . S
C1669 C1668 1.377 . S
C1669 C1675 1.390 . S
C1670 H1661 0.930 . S
C1670 C1668 1.384 . S
C1670 C1671 1.372 . S
C1671 C1670 1.372 . S
C1671 C1672 1.400 . S
C1671 C1676 1.490 . S
C1672 H1662 0.930 . S
C1672 C1671 1.400 . S
C1672 C1675 1.386 . S
H1673 C1689 0.930 . S
H1674 C1690 0.931 . S
C1675 H1663 0.929 . S
C1675 C1669 1.390 . S
C1675 C1672 1.386 . S
C1676 C1671 1.490 . S
C1676 C1678 1.395 . S
C1676 C1679 1.403 . S
H1677 C1683 0.930 . S
C1678 H1664 0.930 . S
C1678 C1676 1.395 . S
C1678 C1681 1.403 . S
C1679 C1676 1.403 . S
C1679 C1680 1.524 . S
C1679 C1683 1.400 . S
C1680 H1665 0.960 . S
C1680 H1666 0.960 . S
C1680 H1667 0.960 . S
C1680 C1679 1.524 . S
C1681 C1678 1.403 . S
C1681 C1682 1.392 . S
C1681 C1685 1.495 . S
C1682 C1681 1.392 . S
C1682 C1683 1.385 . S
C1682 C1684 1.478 . S
C1683 H1677 0.930 . S
C1683 C1679 1.400 . S
C1683 C1682 1.385 . S
C1684 C1682 1.478 . S
C1684 C1686 1.381 . S
C1684 C1690 1.383 . S
C1685 C1681 1.495 . S
C1685 H1691 0.959 . S
C1685 H1692 0.961 1_455 S
C1685 H1693 0.959 1_455 S
C1686 C1684 1.381 . S
C1686 C1687 1.394 1_455 S
C1686 H1694 0.930 . S
C1687 C1686 1.394 1_655 S
C1687 C1688 1.383 . S
C1687 H1695 0.929 . S
C1688 C1687 1.383 . S
C1688 C1689 1.377 . S
C1689 H1673 0.930 . S
C1689 C1688 1.377 . S
C1689 C1690 1.379 1_655 S
C1690 H1674 0.931 . S
C1690 C1684 1.383 . S
C1690 C1689 1.379 1_455 S
H1691 C1685 0.959 . S
H1692 C1685 0.961 1_655 S
H1693 C1685 0.959 1_655 S
H1694 C1686 0.930 . S
H1695 C1687 0.929 . S
H1696 C1704 0.929 . S
H1697 C1706 0.930 . S
H1698 C1708 0.930 . S
H1699 C1711 0.929 . S
H1700 C1714 0.930 . S
H1701 C1716 0.960 . S
H1702 C1716 0.960 . S
H1703 C1716 0.960 . S
C1704 H1696 0.929 . S
C1704 C1705 1.377 . S
C1704 C1706 1.384 . S
C1705 C1704 1.377 . S
C1705 C1711 1.390 . S
C1706 H1697 0.930 . S
C1706 C1704 1.384 . S
C1706 C1707 1.372 . S
C1707 C1706 1.372 . S
C1707 C1708 1.400 . S
C1707 C1712 1.490 . S
C1708 H1698 0.930 . S
C1708 C1707 1.400 . S
C1708 C1711 1.386 . S
H1709 C1725 0.930 . S
H1710 C1726 0.931 . S
C1711 H1699 0.929 . S
C1711 C1705 1.390 . S
C1711 C1708 1.386 . S
C1712 C1707 1.490 . S
C1712 C1714 1.395 . S
C1712 C1715 1.403 . S
H1713 C1719 0.930 . S
C1714 H1700 0.930 . S
C1714 C1712 1.395 . S
C1714 C1717 1.403 . S
C1715 C1712 1.403 . S
C1715 C1716 1.524 . S
C1715 C1719 1.400 . S
C1716 H1701 0.960 . S
C1716 H1702 0.960 . S
C1716 H1703 0.960 . S
C1716 C1715 1.524 . S
C1717 C1714 1.403 . S
C1717 C1718 1.392 . S
C1717 C1721 1.495 . S
C1718 C1717 1.392 . S
C1718 C1719 1.385 . S
C1718 C1720 1.478 . S
C1719 H1713 0.930 . S
C1719 C1715 1.400 . S
C1719 C1718 1.385 . S
C1720 C1718 1.478 . S
C1720 C1722 1.381 . S
C1720 C1726 1.383 . S
C1721 C1717 1.495 . S
C1721 H1727 0.959 . S
C1721 H1728 0.961 . S
C1721 H1729 0.960 . S
C1722 C1720 1.381 . S
C1722 C1723 1.394 . S
C1722 H1730 0.930 . S
C1723 C1722 1.394 . S
C1723 C1724 1.383 . S
C1723 H1731 0.929 . S
C1724 C1723 1.383 . S
C1724 C1725 1.377 . S
C1725 H1709 0.930 . S
C1725 C1724 1.377 . S
C1725 C1726 1.379 . S
C1726 H1710 0.931 . S
C1726 C1720 1.383 . S
C1726 C1725 1.379 . S
H1727 C1721 0.959 . S
H1728 C1721 0.961 . S
H1729 C1721 0.960 . S
H1730 C1722 0.930 . S
H1731 C1723 0.929 . S
H1732 C1740 0.929 . S
H1733 C1742 0.930 . S
H1734 C1744 0.930 . S
H1735 C1747 0.929 . S
H1736 C1750 0.930 . S
H1737 C1752 0.960 . S
H1738 C1752 0.960 . S
H1739 C1752 0.960 . S
C1740 H1732 0.929 . S
C1740 C1741 1.377 . S
C1740 C1742 1.384 . S
C1741 C1740 1.377 . S
C1741 C1747 1.390 1_455 S
C1742 H1733 0.930 . S
C1742 C1740 1.384 . S
C1742 C1743 1.372 1_455 S
C1743 C1742 1.372 1_655 S
C1743 C1744 1.400 . S
C1743 C1748 1.490 . S
C1744 H1734 0.930 . S
C1744 C1743 1.400 . S
C1744 C1747 1.386 . S
H1745 C1761 0.930 . S
H1746 C1762 0.931 . S
C1747 H1735 0.929 . S
C1747 C1741 1.390 1_655 S
C1747 C1744 1.386 . S
C1748 C1743 1.490 . S
C1748 C1750 1.395 . S
C1748 C1751 1.403 . S
H1749 C1755 0.930 . S
C1750 H1736 0.930 . S
C1750 C1748 1.395 . S
C1750 C1753 1.403 . S
C1751 C1748 1.403 . S
C1751 C1752 1.524 . S
C1751 C1755 1.400 . S
C1752 H1737 0.960 . S
C1752 H1738 0.960 . S
C1752 H1739 0.960 . S
C1752 C1751 1.524 . S
C1753 C1750 1.403 . S
C1753 C1754 1.392 . S
C1753 C1757 1.495 . S
C1754 C1753 1.392 . S
C1754 C1755 1.385 . S
C1754 C1756 1.478 . S
C1755 H1749 0.930 . S
C1755 C1751 1.400 . S
C1755 C1754 1.385 . S
C1756 C1754 1.478 . S
C1756 C1758 1.381 . S
C1756 C1762 1.383 . S
C1757 C1753 1.495 . S
C1757 H1763 0.959 . S
C1757 H1764 0.961 . S
C1757 H1765 0.960 . S
C1758 C1756 1.381 . S
C1758 C1759 1.394 . S
C1758 H1766 0.930 . S
C1759 C1758 1.394 . S
C1759 C1760 1.383 . S
C1759 H1767 0.929 . S
C1760 C1759 1.383 . S
C1760 C1761 1.377 . S
C1761 H1745 0.930 . S
C1761 C1760 1.377 . S
C1761 C1762 1.379 . S
C1762 H1746 0.931 . S
C1762 C1756 1.383 . S
C1762 C1761 1.379 . S
H1763 C1757 0.959 . S
H1764 C1757 0.961 . S
H1765 C1757 0.960 . S
H1766 C1758 0.930 . S
H1767 C1759 0.929 . S
H1768 C1776 0.929 . S
H1769 C1778 0.930 . S
H1770 C1780 0.930 . S
H1771 C1783 0.929 . S
H1772 C1786 0.930 . S
H1773 C1788 0.960 . S
H1774 C1788 0.960 . S
H1775 C1788 0.960 . S
C1776 H1768 0.929 . S
C1776 C1777 1.377 . S
C1776 C1778 1.384 . S
C1777 C1776 1.377 . S
C1777 C1783 1.390 . S
C1778 H1769 0.930 . S
C1778 C1776 1.384 . S
C1778 C1779 1.372 . S
C1779 C1778 1.372 . S
C1779 C1780 1.400 . S
C1779 C1784 1.490 . S
C1780 H1770 0.930 . S
C1780 C1779 1.400 . S
C1780 C1783 1.386 . S
H1781 C1797 0.930 . S
H1782 C1798 0.931 . S
C1783 H1771 0.929 . S
C1783 C1777 1.390 . S
C1783 C1780 1.386 . S
C1784 C1779 1.490 . S
C1784 C1786 1.395 . S
C1784 C1787 1.403 . S
H1785 C1791 0.930 . S
C1786 H1772 0.930 . S
C1786 C1784 1.395 . S
C1786 C1789 1.403 . S
C1787 C1784 1.403 . S
C1787 C1788 1.524 . S
C1787 C1791 1.400 . S
C1788 H1773 0.960 . S
C1788 H1774 0.960 . S
C1788 H1775 0.960 . S
C1788 C1787 1.524 . S
C1789 C1786 1.403 . S
C1789 C1790 1.392 . S
C1789 C1793 1.495 . S
C1790 C1789 1.392 . S
C1790 C1791 1.385 . S
C1790 C1792 1.478 . S
C1791 H1785 0.930 . S
C1791 C1787 1.400 . S
C1791 C1790 1.385 . S
C1792 C1790 1.478 . S
C1792 C1794 1.381 . S
C1792 C1798 1.383 . S
C1793 C1789 1.495 . S
C1793 H1799 0.959 . S
C1793 H1800 0.961 . S
C1793 H1801 0.960 . S
C1794 C1792 1.381 . S
C1794 C1795 1.394 . S
C1794 H1802 0.930 . S
C1795 C1794 1.394 . S
C1795 C1796 1.383 . S
C1795 H1803 0.929 . S
C1796 C1795 1.383 . S
C1796 C1797 1.377 . S
C1797 H1781 0.930 . S
C1797 C1796 1.377 . S
C1797 C1798 1.379 . S
C1798 H1782 0.931 . S
C1798 C1792 1.383 . S
C1798 C1797 1.379 . S
H1799 C1793 0.959 . S
H1800 C1793 0.961 . S
H1801 C1793 0.960 . S
H1802 C1794 0.930 . S
H1803 C1795 0.929 . S
H1804 C1812 0.929 . S
H1805 C1814 0.930 . S
H1806 C1816 0.930 . S
H1807 C1819 0.929 . S
H1808 C1822 0.930 . S
H1809 C1824 0.960 . S
H1810 C1824 0.960 . S
H1811 C1824 0.960 . S
C1812 H1804 0.929 . S
C1812 C1813 1.377 . S
C1812 C1814 1.384 . S
C1813 C1812 1.377 . S
C1813 C1819 1.390 . S
C1814 H1805 0.930 . S
C1814 C1812 1.384 . S
C1814 C1815 1.372 . S
C1815 C1814 1.372 . S
C1815 C1816 1.400 . S
C1815 C1820 1.490 . S
C1816 H1806 0.930 . S
C1816 C1815 1.400 . S
C1816 C1819 1.386 . S
H1817 C1833 0.930 . S
H1818 C1834 0.931 . S
C1819 H1807 0.929 . S
C1819 C1813 1.390 . S
C1819 C1816 1.386 . S
C1820 C1815 1.490 . S
C1820 C1822 1.395 . S
C1820 C1823 1.403 . S
H1821 C1827 0.930 . S
C1822 H1808 0.930 . S
C1822 C1820 1.395 . S
C1822 C1825 1.403 . S
C1823 C1820 1.403 . S
C1823 C1824 1.524 . S
C1823 C1827 1.400 . S
C1824 H1809 0.960 . S
C1824 H1810 0.960 . S
C1824 H1811 0.960 . S
C1824 C1823 1.524 . S
C1825 C1822 1.403 . S
C1825 C1826 1.392 . S
C1825 C1829 1.495 1_655 S
C1826 C1825 1.392 . S
C1826 C1827 1.385 . S
C1826 C1828 1.478 . S
C1827 H1821 0.930 . S
C1827 C1823 1.400 . S
C1827 C1826 1.385 . S
C1828 C1826 1.478 . S
C1828 C1830 1.381 . S
C1828 C1834 1.383 . S
C1829 C1825 1.495 1_455 S
C1829 H1835 0.959 . S
C1829 H1836 0.961 . S
C1829 H1837 0.960 . S
C1830 C1828 1.381 . S
C1830 C1831 1.394 1_655 S
C1830 H1838 0.930 . S
C1831 C1830 1.394 1_455 S
C1831 C1832 1.383 . S
C1831 H1839 0.929 . S
C1832 C1831 1.383 . S
C1832 C1833 1.383 . S
C1833 H1817 0.930 . S
C1833 C1832 1.383 . S
C1833 C1834 1.372 1_455 S
C1834 H1818 0.931 . S
C1834 C1828 1.383 . S
C1834 C1833 1.372 1_655 S
H1835 C1829 0.959 . S
H1836 C1829 0.961 . S
H1837 C1829 0.960 . S
H1838 C1830 0.930 . S
H1839 C1831 0.929 . S
H1840 C1848 0.929 . S
H1841 C1850 0.930 . S
H1842 C1852 0.930 . S
H1843 C1855 0.929 . S
H1844 C1858 0.930 . S
H1845 C1860 0.960 . S
H1846 C1860 0.960 . S
H1847 C1860 0.960 . S
C1848 H1840 0.929 . S
C1848 C1849 1.377 . S
C1848 C1850 1.384 . S
C1849 C1848 1.377 . S
C1849 C1855 1.390 . S
C1850 H1841 0.930 . S
C1850 C1848 1.384 . S
C1850 C1851 1.372 . S
C1851 C1850 1.372 . S
C1851 C1852 1.400 . S
C1851 C1856 1.490 . S
C1852 H1842 0.930 . S
C1852 C1851 1.400 . S
C1852 C1855 1.386 . S
H1853 C1869 0.930 . S
H1854 C1870 0.931 . S
C1855 H1843 0.929 . S
C1855 C1849 1.390 . S
C1855 C1852 1.386 . S
C1856 C1851 1.490 . S
C1856 C1858 1.395 . S
C1856 C1859 1.403 . S
H1857 C1863 0.930 . S
C1858 H1844 0.930 . S
C1858 C1856 1.395 . S
C1858 C1861 1.403 . S
C1859 C1856 1.403 . S
C1859 C1860 1.524 . S
C1859 C1863 1.400 . S
C1860 H1845 0.960 . S
C1860 H1846 0.960 . S
C1860 H1847 0.960 . S
C1860 C1859 1.524 . S
C1861 C1858 1.403 . S
C1861 C1862 1.392 . S
C1861 C1865 1.495 . S
C1862 C1861 1.392 . S
C1862 C1863 1.385 . S
C1862 C1864 1.478 . S
C1863 H1857 0.930 . S
C1863 C1859 1.400 . S
C1863 C1862 1.385 . S
C1864 C1862 1.478 . S
C1864 C1866 1.381 . S
C1864 C1870 1.383 . S
C1865 C1861 1.495 . S
C1865 H1871 0.959 . S
C1865 H1872 0.961 . S
C1865 H1873 0.960 . S
C1866 C1864 1.381 . S
C1866 C1867 1.394 . S
C1866 H1874 0.930 . S
C1867 C1866 1.394 . S
C1867 C1868 1.383 . S
C1867 H1875 0.929 . S
C1868 C1867 1.383 . S
C1868 C1869 1.377 . S
C1869 H1853 0.930 . S
C1869 C1868 1.377 . S
C1869 C1870 1.379 . S
C1870 H1854 0.931 . S
C1870 C1864 1.383 . S
C1870 C1869 1.379 . S
H1871 C1865 0.959 . S
H1872 C1865 0.961 . S
H1873 C1865 0.960 . S
H1874 C1866 0.930 . S
H1875 C1867 0.929 . S
H1876 C1884 0.929 . S
H1877 C1886 0.930 . S
H1878 C1888 0.930 . S
H1879 C1891 0.929 . S
H1880 C1894 0.930 . S
H1881 C1896 0.960 . S
H1882 C1896 0.960 . S
H1883 C1896 0.960 . S
C1884 H1876 0.929 . S
C1884 C1885 1.377 1_455 S
C1884 C1886 1.384 . S
C1885 C1884 1.377 1_655 S
C1885 C1891 1.390 . S
C1886 H1877 0.930 . S
C1886 C1884 1.384 . S
C1886 C1887 1.372 . S
C1887 C1886 1.372 . S
C1887 C1888 1.400 1_455 S
C1887 C1892 1.490 . S
C1888 H1878 0.930 . S
C1888 C1887 1.400 1_655 S
C1888 C1891 1.386 . S
H1889 C1905 0.930 . S
H1890 C1906 0.931 . S
C1891 H1879 0.929 . S
C1891 C1885 1.390 . S
C1891 C1888 1.386 . S
C1892 C1887 1.490 . S
C1892 C1894 1.395 . S
C1892 C1895 1.403 . S
H1893 C1899 0.930 . S
C1894 H1880 0.930 . S
C1894 C1892 1.395 . S
C1894 C1897 1.403 . S
C1895 C1892 1.403 . S
C1895 C1896 1.524 . S
C1895 C1899 1.400 . S
C1896 H1881 0.960 . S
C1896 H1882 0.960 . S
C1896 H1883 0.960 . S
C1896 C1895 1.524 . S
C1897 C1894 1.403 . S
C1897 C1898 1.392 . S
C1897 C1901 1.495 . S
C1898 C1897 1.392 . S
C1898 C1899 1.385 . S
C1898 C1900 1.478 . S
C1899 H1893 0.930 . S
C1899 C1895 1.400 . S
C1899 C1898 1.385 . S
C1900 C1898 1.478 . S
C1900 C1902 1.381 . S
C1900 C1906 1.383 . S
C1901 C1897 1.495 . S
C1901 H1907 0.959 . S
C1901 H1908 0.961 . S
C1901 H1909 0.960 . S
C1902 C1900 1.381 . S
C1902 C1903 1.394 . S
C1902 H1910 0.930 . S
C1903 C1902 1.394 . S
C1903 C1904 1.383 . S
C1903 H1911 0.929 . S
C1904 C1903 1.383 . S
C1904 C1905 1.377 . S
C1905 H1889 0.930 . S
C1905 C1904 1.377 . S
C1905 C1906 1.379 . S
C1906 H1890 0.931 . S
C1906 C1900 1.383 . S
C1906 C1905 1.379 . S
H1907 C1901 0.959 . S
H1908 C1901 0.961 . S
H1909 C1901 0.960 . S
H1910 C1902 0.930 . S
H1911 C1903 0.929 . S
H1912 C1920 0.929 . S
H1913 C1922 0.930 . S
H1914 C1924 0.930 . S
H1915 C1927 0.929 . S
H1916 C1930 0.930 . S
H1917 C1932 0.960 . S
H1918 C1932 0.960 . S
H1919 C1932 0.960 . S
C1920 H1912 0.929 . S
C1920 C1921 1.377 . S
C1920 C1922 1.384 . S
C1921 C1920 1.377 . S
C1921 C1927 1.390 . S
C1922 H1913 0.930 . S
C1922 C1920 1.384 . S
C1922 C1923 1.372 . S
C1923 C1922 1.372 . S
C1923 C1924 1.400 . S
C1923 C1928 1.490 . S
C1924 H1914 0.930 . S
C1924 C1923 1.400 . S
C1924 C1927 1.386 . S
H1925 C1941 0.930 . S
H1926 C1942 0.931 . S
C1927 H1915 0.929 . S
C1927 C1921 1.390 . S
C1927 C1924 1.386 . S
C1928 C1923 1.490 . S
C1928 C1930 1.395 . S
C1928 C1931 1.403 . S
H1929 C1935 0.930 . S
C1930 H1916 0.930 . S
C1930 C1928 1.395 . S
C1930 C1933 1.403 . S
C1931 C1928 1.403 . S
C1931 C1932 1.524 . S
C1931 C1935 1.400 . S
C1932 H1917 0.960 . S
C1932 H1918 0.960 . S
C1932 H1919 0.960 . S
C1932 C1931 1.524 . S
C1933 C1930 1.403 . S
C1933 C1934 1.392 . S
C1933 C1937 1.495 . S
C1934 C1933 1.392 . S
C1934 C1935 1.385 . S
C1934 C1936 1.478 . S
C1935 H1929 0.930 . S
C1935 C1931 1.400 . S
C1935 C1934 1.385 . S
C1936 C1934 1.478 . S
C1936 C1938 1.381 . S
C1936 C1942 1.383 . S
C1937 C1933 1.495 . S
C1937 H1943 0.959 . S
C1937 H1944 0.961 . S
C1937 H1945 0.960 . S
C1938 C1936 1.381 . S
C1938 C1939 1.394 . S
C1938 H1946 0.930 . S
C1939 C1938 1.394 . S
C1939 C1940 1.383 . S
C1939 H1947 0.929 . S
C1940 C1939 1.383 . S
C1940 C1941 1.377 . S
C1941 H1925 0.930 . S
C1941 C1940 1.377 . S
C1941 C1942 1.379 . S
C1942 H1926 0.931 . S
C1942 C1936 1.383 . S
C1942 C1941 1.379 . S
H1943 C1937 0.959 . S
H1944 C1937 0.961 . S
H1945 C1937 0.960 . S
H1946 C1938 0.930 . S
H1947 C1939 0.929 . S
H1948 C1956 0.929 . S
H1949 C1958 0.930 . S
H1950 C1960 0.930 . S
H1951 C1963 0.929 . S
H1952 C1966 0.930 . S
H1953 C1968 0.960 . S
H1954 C1968 0.960 . S
H1955 C1968 0.960 1_655 S
C1956 H1948 0.929 . S
C1956 C1957 1.377 1_455 S
C1956 C1958 1.384 . S
C1957 C1956 1.377 1_655 S
C1957 C1963 1.390 . S
C1958 H1949 0.930 . S
C1958 C1956 1.384 . S
C1958 C1959 1.372 . S
C1959 C1958 1.372 . S
C1959 C1960 1.400 1_455 S
C1959 C1964 1.490 . S
C1960 H1950 0.930 . S
C1960 C1959 1.400 1_655 S
C1960 C1963 1.386 . S
H1961 C1977 0.930 . S
H1962 C1978 0.931 . S
C1963 H1951 0.929 . S
C1963 C1957 1.390 . S
C1963 C1960 1.386 . S
C1964 C1959 1.490 . S
C1964 C1966 1.395 . S
C1964 C1967 1.403 . S
H1965 C1971 0.930 . S
C1966 H1952 0.930 . S
C1966 C1964 1.395 . S
C1966 C1969 1.403 . S
C1967 C1964 1.403 . S
C1967 C1968 1.524 . S
C1967 C1971 1.400 . S
C1968 H1953 0.960 . S
C1968 H1954 0.960 . S
C1968 H1955 0.960 1_455 S
C1968 C1967 1.524 . S
C1969 C1966 1.403 . S
C1969 C1970 1.392 . S
C1969 C1973 1.495 . S
C1970 C1969 1.392 . S
C1970 C1971 1.385 . S
C1970 C1972 1.478 . S
C1971 H1965 0.930 . S
C1971 C1967 1.400 . S
C1971 C1970 1.385 . S
C1972 C1970 1.478 . S
C1972 C1974 1.381 . S
C1972 C1978 1.383 . S
C1973 C1969 1.495 . S
C1973 H1979 0.959 . S
C1973 H1980 0.961 . S
C1973 H1981 0.960 . S
C1974 C1972 1.381 . S
C1974 C1975 1.394 . S
C1974 H1982 0.930 . S
C1975 C1974 1.394 . S
C1975 C1976 1.383 . S
C1975 H1983 0.929 . S
C1976 C1975 1.383 . S
C1976 C1977 1.377 . S
C1977 H1961 0.930 . S
C1977 C1976 1.377 . S
C1977 C1978 1.379 . S
C1978 H1962 0.931 . S
C1978 C1972 1.383 . S
C1978 C1977 1.379 . S
H1979 C1973 0.959 . S
H1980 C1973 0.961 . S
H1981 C1973 0.960 . S
H1982 C1974 0.930 . S
H1983 C1975 0.929 . S
H1984 C1992 0.929 . S
H1985 C1994 0.930 . S
H1986 C1996 0.930 . S
H1987 C1999 0.929 . S
H1988 C2002 0.930 . S
H1989 C2004 0.960 . S
H1990 C2004 0.960 . S
H1991 C2004 0.960 . S
C1992 H1984 0.929 . S
C1992 C1993 1.377 . S
C1992 C1994 1.384 . S
C1993 C1992 1.377 . S
C1993 C1999 1.390 . S
C1994 H1985 0.930 . S
C1994 C1992 1.384 . S
C1994 C1995 1.372 . S
C1995 C1994 1.372 . S
C1995 C1996 1.400 . S
C1995 C2000 1.490 . S
C1996 H1986 0.930 . S
C1996 C1995 1.400 . S
C1996 C1999 1.386 . S
H1997 C2013 0.930 . S
H1998 C2014 0.931 . S
C1999 H1987 0.929 . S
C1999 C1993 1.390 . S
C1999 C1996 1.386 . S
C2000 C1995 1.490 . S
C2000 C2002 1.395 . S
C2000 C2003 1.403 . S
H2001 C2007 0.930 . S
C2002 H1988 0.930 . S
C2002 C2000 1.395 . S
C2002 C2005 1.403 . S
C2003 C2000 1.403 . S
C2003 C2004 1.524 . S
C2003 C2007 1.400 . S
C2004 H1989 0.960 . S
C2004 H1990 0.960 . S
C2004 H1991 0.960 . S
C2004 C2003 1.524 . S
C2005 C2002 1.403 . S
C2005 C2006 1.392 . S
C2005 C2009 1.495 . S
C2006 C2005 1.392 . S
C2006 C2007 1.385 . S
C2006 C2008 1.478 . S
C2007 H2001 0.930 . S
C2007 C2003 1.400 . S
C2007 C2006 1.385 . S
C2008 C2006 1.478 . S
C2008 C2010 1.381 . S
C2008 C2014 1.383 . S
C2009 C2005 1.495 . S
C2009 H2015 0.959 . S
C2009 H2016 0.961 . S
C2009 H2017 0.960 . S
C2010 C2008 1.381 . S
C2010 C2011 1.394 . S
C2010 H2018 0.930 . S
C2011 C2010 1.394 . S
C2011 C2012 1.383 . S
C2011 H2019 0.929 . S
C2012 C2011 1.383 . S
C2012 C2013 1.377 . S
C2013 H1997 0.930 . S
C2013 C2012 1.377 . S
C2013 C2014 1.379 . S
C2014 H1998 0.931 . S
C2014 C2008 1.383 . S
C2014 C2013 1.379 . S
H2015 C2009 0.959 . S
H2016 C2009 0.961 . S
H2017 C2009 0.960 . S
H2018 C2010 0.930 . S
H2019 C2011 0.929 . S
H2020 C2028 0.929 . S
H2021 C2030 0.930 . S
H2022 C2032 0.930 . S
H2023 C2035 0.929 . S
H2024 C2038 0.930 . S
H2025 C2040 0.960 . S
H2026 C2040 0.960 . S
H2027 C2040 0.960 . S
C2028 H2020 0.929 . S
C2028 C2029 1.377 . S
C2028 C2030 1.384 . S
C2029 C2028 1.377 . S
C2029 C2035 1.390 . S
C2030 H2021 0.930 . S
C2030 C2028 1.384 . S
C2030 C2031 1.372 . S
C2031 C2030 1.372 . S
C2031 C2032 1.400 . S
C2031 C2036 1.490 . S
C2032 H2022 0.930 . S
C2032 C2031 1.400 . S
C2032 C2035 1.386 . S
H2033 C2049 0.930 . S
H2034 C2050 0.931 . S
C2035 H2023 0.929 . S
C2035 C2029 1.390 . S
C2035 C2032 1.386 . S
C2036 C2031 1.490 . S
C2036 C2038 1.395 . S
C2036 C2039 1.403 . S
H2037 C2043 0.930 . S
C2038 H2024 0.930 . S
C2038 C2036 1.395 . S
C2038 C2041 1.403 . S
C2039 C2036 1.403 . S
C2039 C2040 1.524 . S
C2039 C2043 1.400 . S
C2040 H2025 0.960 . S
C2040 H2026 0.960 . S
C2040 H2027 0.960 . S
C2040 C2039 1.524 . S
C2041 C2038 1.403 . S
C2041 C2042 1.392 . S
C2041 C2045 1.495 . S
C2042 C2041 1.392 . S
C2042 C2043 1.385 . S
C2042 C2044 1.478 . S
C2043 H2037 0.930 . S
C2043 C2039 1.400 . S
C2043 C2042 1.385 . S
C2044 C2042 1.478 . S
C2044 C2046 1.381 . S
C2044 C2050 1.383 . S
C2045 C2041 1.495 . S
C2045 H2051 0.959 . S
C2045 H2052 0.961 . S
C2045 H2053 0.960 . S
C2046 C2044 1.381 . S
C2046 C2047 1.394 . S
C2046 H2054 0.930 . S
C2047 C2046 1.394 . S
C2047 C2048 1.383 . S
C2047 H2055 0.929 . S
C2048 C2047 1.383 . S
C2048 C2049 1.377 . S
C2049 H2033 0.930 . S
C2049 C2048 1.377 . S
C2049 C2050 1.379 . S
C2050 H2034 0.931 . S
C2050 C2044 1.383 . S
C2050 C2049 1.379 . S
H2051 C2045 0.959 . S
H2052 C2045 0.961 . S
H2053 C2045 0.960 . S
H2054 C2046 0.930 . S
H2055 C2047 0.929 . S
H2056 C2064 0.929 . S
H2057 C2066 0.930 . S
H2058 C2068 0.930 . S
H2059 C2071 0.929 . S
H2060 C2074 0.930 . S
H2061 C2076 0.960 . S
H2062 C2076 0.960 . S
H2063 C2076 0.960 . S
C2064 H2056 0.929 . S
C2064 C2065 1.377 . S
C2064 C2066 1.384 . S
C2065 C2064 1.377 . S
C2065 C2071 1.390 . S
C2066 H2057 0.930 . S
C2066 C2064 1.384 . S
C2066 C2067 1.372 . S
C2067 C2066 1.372 . S
C2067 C2068 1.400 . S
C2067 C2072 1.490 . S
C2068 H2058 0.930 . S
C2068 C2067 1.400 . S
C2068 C2071 1.386 . S
H2069 C2085 0.930 . S
H2070 C2086 0.931 . S
C2071 H2059 0.929 . S
C2071 C2065 1.390 . S
C2071 C2068 1.386 . S
C2072 C2067 1.490 . S
C2072 C2074 1.395 . S
C2072 C2075 1.403 . S
H2073 C2079 0.930 . S
C2074 H2060 0.930 . S
C2074 C2072 1.395 . S
C2074 C2077 1.403 . S
C2075 C2072 1.403 . S
C2075 C2076 1.524 . S
C2075 C2079 1.400 . S
C2076 H2061 0.960 . S
C2076 H2062 0.960 . S
C2076 H2063 0.960 . S
C2076 C2075 1.524 . S
C2077 C2074 1.403 . S
C2077 C2078 1.392 . S
C2077 C2081 1.495 . S
C2078 C2077 1.392 . S
C2078 C2079 1.385 . S
C2078 C2080 1.478 . S
C2079 H2073 0.930 . S
C2079 C2075 1.400 . S
C2079 C2078 1.385 . S
C2080 C2078 1.478 . S
C2080 C2082 1.381 . S
C2080 C2086 1.383 . S
C2081 C2077 1.495 . S
C2081 H2087 0.959 . S
C2081 H2088 0.961 . S
C2081 H2089 0.960 . S
C2082 C2080 1.381 . S
C2082 C2083 1.394 . S
C2082 H2090 0.930 . S
C2083 C2082 1.394 . S
C2083 C2084 1.383 . S
C2083 H2091 0.929 . S
C2084 C2083 1.383 . S
C2084 C2085 1.377 . S
C2085 H2069 0.930 . S
C2085 C2084 1.377 . S
C2085 C2086 1.379 . S
C2086 H2070 0.931 . S
C2086 C2080 1.383 . S
C2086 C2085 1.379 . S
H2087 C2081 0.959 . S
H2088 C2081 0.961 . S
H2089 C2081 0.960 . S
H2090 C2082 0.930 . S
H2091 C2083 0.929 . S
H2092 C2100 0.929 . S
H2093 C2102 0.930 . S
H2094 C2104 0.930 . S
H2095 C2107 0.929 . S
H2096 C2110 0.930 . S
H2097 C2112 0.960 . S
H2098 C2112 0.960 . S
H2099 C2112 0.960 . S
C2100 H2092 0.929 . S
C2100 C2101 1.377 . S
C2100 C2102 1.384 . S
C2101 C2100 1.377 . S
C2101 C2107 1.390 . S
C2102 H2093 0.930 . S
C2102 C2100 1.384 . S
C2102 C2103 1.372 . S
C2103 C2102 1.372 . S
C2103 C2104 1.400 . S
C2103 C2108 1.490 . S
C2104 H2094 0.930 . S
C2104 C2103 1.400 . S
C2104 C2107 1.386 . S
H2105 C2121 0.930 . S
H2106 C2122 0.931 . S
C2107 H2095 0.929 . S
C2107 C2101 1.390 . S
C2107 C2104 1.386 . S
C2108 C2103 1.490 . S
C2108 C2110 1.395 . S
C2108 C2111 1.403 . S
H2109 C2115 0.930 . S
C2110 H2096 0.930 . S
C2110 C2108 1.395 . S
C2110 C2113 1.403 . S
C2111 C2108 1.403 . S
C2111 C2112 1.524 . S
C2111 C2115 1.400 . S
C2112 H2097 0.960 . S
C2112 H2098 0.960 . S
C2112 H2099 0.960 . S
C2112 C2111 1.524 . S
C2113 C2110 1.403 . S
C2113 C2114 1.392 . S
C2113 C2117 1.495 . S
C2114 C2113 1.392 . S
C2114 C2115 1.385 . S
C2114 C2116 1.478 . S
C2115 H2109 0.930 . S
C2115 C2111 1.400 . S
C2115 C2114 1.385 . S
C2116 C2114 1.478 . S
C2116 C2118 1.381 . S
C2116 C2122 1.383 . S
C2117 C2113 1.495 . S
C2117 H2123 0.959 . S
C2117 H2124 0.961 . S
C2117 H2125 0.960 . S
C2118 C2116 1.381 . S
C2118 C2119 1.394 . S
C2118 H2126 0.930 . S
C2119 C2118 1.394 . S
C2119 C2120 1.383 . S
C2119 H2127 0.929 . S
C2120 C2119 1.383 . S
C2120 C2121 1.377 . S
C2121 H2105 0.930 . S
C2121 C2120 1.377 . S
C2121 C2122 1.379 . S
C2122 H2106 0.931 . S
C2122 C2116 1.383 . S
C2122 C2121 1.379 . S
H2123 C2117 0.959 . S
H2124 C2117 0.961 . S
H2125 C2117 0.960 . S
H2126 C2118 0.930 . S
H2127 C2119 0.929 . S
H2128 C2136 0.929 . S
H2129 C2138 0.930 . S
H2130 C2140 0.939 . S
H2131 C2143 0.929 . S
H2132 C2146 0.930 . S
H2133 C2148 0.960 . S
H2134 C2148 0.960 . S
H2135 C2148 0.960 . S
C2136 H2128 0.929 . S
C2136 C2137 1.377 . S
C2136 C2138 1.384 . S
C2137 C2136 1.377 . S
C2137 C2143 1.390 . S
C2138 H2129 0.930 . S
C2138 C2136 1.384 . S
C2138 C2139 1.372 . S
C2139 C2138 1.372 . S
C2139 C2140 1.400 . S
C2139 C2144 1.490 . S
C2140 H2130 0.939 . S
C2140 C2139 1.400 . S
C2140 C2143 1.386 . S
H2141 C2157 0.930 . S
H2142 C2158 0.931 . S
C2143 H2131 0.929 . S
C2143 C2137 1.390 . S
C2143 C2140 1.386 . S
C2144 C2139 1.490 . S
C2144 C2146 1.395 . S
C2144 C2147 1.403 1_556 S
H2145 C2151 0.930 . S
C2146 H2132 0.930 . S
C2146 C2144 1.395 . S
C2146 C2149 1.403 . S
C2147 C2144 1.403 1_554 S
C2147 C2148 1.524 . S
C2147 C2151 1.400 . S
C2148 H2133 0.960 . S
C2148 H2134 0.960 . S
C2148 H2135 0.960 . S
C2148 C2147 1.524 . S
C2149 C2146 1.403 . S
C2149 C2150 1.392 . S
C2149 C2153 1.495 . S
C2150 C2149 1.392 . S
C2150 C2151 1.385 1_556 S
C2150 C2152 1.478 . S
C2151 H2145 0.930 . S
C2151 C2147 1.400 . S
C2151 C2150 1.385 1_554 S
C2152 C2150 1.478 . S
C2152 C2154 1.381 . S
C2152 C2158 1.383 . S
C2153 C2149 1.495 . S
C2153 H2159 0.959 . S
C2153 H2160 0.961 . S
C2153 H2161 0.960 . S
C2154 C2152 1.381 . S
C2154 C2155 1.394 . S
C2154 H2162 0.930 . S
C2155 C2154 1.394 . S
C2155 C2156 1.383 . S
C2155 H2163 0.929 . S
C2156 C2155 1.383 . S
C2156 C2157 1.377 . S
C2157 H2141 0.930 . S
C2157 C2156 1.377 . S
C2157 C2158 1.379 . S
C2158 H2142 0.931 . S
C2158 C2152 1.383 . S
C2158 C2157 1.379 . S
H2159 C2153 0.959 . S
H2160 C2153 0.961 . S
H2161 C2153 0.960 . S
H2162 C2154 0.930 . S
H2163 C2155 0.929 . S
H2164 C2172 0.929 . S
H2165 C2174 0.930 . S
H2166 C2176 0.930 . S
H2167 C2179 0.929 . S
H2168 C2182 0.930 . S
H2169 C2184 0.960 . S
H2170 C2184 0.960 . S
H2171 C2184 0.960 . S
C2172 H2164 0.929 . S
C2172 C2173 1.377 . S
C2172 C2174 1.384 . S
C2173 C2172 1.377 . S
C2173 C2179 1.390 . S
C2174 H2165 0.930 . S
C2174 C2172 1.384 . S
C2174 C2175 1.372 . S
C2175 C2174 1.372 . S
C2175 C2176 1.400 . S
C2175 C2180 1.490 . S
C2176 H2166 0.930 . S
C2176 C2175 1.400 . S
C2176 C2179 1.386 . S
H2177 C2193 0.930 . S
H2178 C2194 0.931 . S
C2179 H2167 0.929 . S
C2179 C2173 1.390 . S
C2179 C2176 1.386 . S
C2180 C2175 1.490 . S
C2180 C2182 1.395 . S
C2180 C2183 1.403 . S
H2181 C2187 0.930 . S
C2182 H2168 0.930 . S
C2182 C2180 1.395 . S
C2182 C2185 1.403 . S
C2183 C2180 1.403 . S
C2183 C2184 1.524 . S
C2183 C2187 1.400 . S
C2184 H2169 0.960 . S
C2184 H2170 0.960 . S
C2184 H2171 0.960 . S
C2184 C2183 1.524 . S
C2185 C2182 1.403 . S
C2185 C2186 1.392 . S
C2185 C2189 1.495 . S
C2186 C2185 1.392 . S
C2186 C2187 1.385 . S
C2186 C2188 1.478 . S
C2187 H2181 0.930 . S
C2187 C2183 1.400 . S
C2187 C2186 1.385 . S
C2188 C2186 1.478 . S
C2188 C2190 1.381 . S
C2188 C2194 1.383 . S
C2189 C2185 1.495 . S
C2189 H2195 0.959 . S
C2189 H2196 0.961 . S
C2189 H2197 0.960 . S
C2190 C2188 1.381 . S
C2190 C2191 1.394 . S
C2190 H2198 0.930 . S
C2191 C2190 1.394 . S
C2191 C2192 1.383 . S
C2191 H2199 0.929 . S
C2192 C2191 1.383 . S
C2192 C2193 1.377 . S
C2193 H2177 0.930 . S
C2193 C2192 1.377 . S
C2193 C2194 1.379 . S
C2194 H2178 0.931 . S
C2194 C2188 1.383 . S
C2194 C2193 1.379 . S
H2195 C2189 0.959 . S
H2196 C2189 0.961 . S
H2197 C2189 0.960 . S
H2198 C2190 0.930 . S
H2199 C2191 0.929 . S
H2200 C2208 0.929 . S
H2201 C2210 0.930 . S
H2202 C2212 0.930 1_556 S
H2203 C2215 0.922 1_556 S
H2204 C2218 0.930 . S
H2205 C2220 0.960 . S
H2206 C2220 0.960 . S
H2207 C2220 0.960 . S
C2208 H2200 0.929 . S
C2208 C2209 1.377 . S
C2208 C2210 1.384 . S
C2209 C2208 1.377 . S
C2209 C2215 1.390 . S
C2210 H2201 0.930 . S
C2210 C2208 1.384 . S
C2210 C2211 1.372 . S
C2211 C2210 1.372 . S
C2211 C2212 1.400 . S
C2211 C2216 1.490 . S
C2212 H2202 0.930 1_554 S
C2212 C2211 1.400 . S
C2212 C2215 1.386 . S
H2213 C2229 0.930 . S
H2214 C2230 0.931 . S
C2215 H2203 0.922 1_554 S
C2215 C2209 1.390 . S
C2215 C2212 1.386 . S
C2216 C2211 1.490 . S
C2216 C2218 1.395 1_554 S
C2216 C2219 1.403 . S
H2217 C2223 0.930 . S
C2218 H2204 0.930 . S
C2218 C2216 1.395 1_556 S
C2218 C2221 1.403 . S
C2219 C2216 1.403 . S
C2219 C2220 1.524 . S
C2219 C2223 1.400 . S
C2220 H2205 0.960 . S
C2220 H2206 0.960 . S
C2220 H2207 0.960 . S
C2220 C2219 1.524 . S
C2221 C2218 1.403 . S
C2221 C2222 1.392 1_556 S
C2221 C2225 1.495 . S
C2222 C2221 1.392 1_554 S
C2222 C2223 1.385 . S
C2222 C2224 1.478 . S
C2223 H2217 0.930 . S
C2223 C2219 1.400 . S
C2223 C2222 1.385 . S
C2224 C2222 1.478 . S
C2224 C2226 1.381 . S
C2224 C2230 1.383 1_554 S
C2225 C2221 1.495 . S
C2225 H2231 0.959 . S
C2225 H2232 0.961 . S
C2225 H2233 0.960 . S
C2226 C2224 1.381 . S
C2226 C2227 1.394 . S
C2226 H2234 0.930 . S
C2227 C2226 1.394 . S
C2227 C2228 1.383 . S
C2227 H2235 0.929 . S
C2228 C2227 1.383 . S
C2228 C2229 1.377 1_554 S
C2229 H2213 0.930 . S
C2229 C2228 1.377 1_556 S
C2229 C2230 1.379 . S
C2230 H2214 0.931 . S
C2230 C2224 1.383 1_556 S
C2230 C2229 1.379 . S
H2231 C2225 0.959 . S
H2232 C2225 0.961 . S
H2233 C2225 0.960 . S
H2234 C2226 0.930 . S
H2235 C2227 0.929 . S
H2236 C2244 0.929 . S
H2237 C2246 0.930 . S
H2238 C2248 0.930 . S
H2239 C2251 0.929 . S
H2240 C2254 0.930 . S
H2241 C2256 0.960 . S
H2242 C2256 0.960 . S
H2243 C2256 0.960 . S
C2244 H2236 0.929 . S
C2244 C2245 1.377 . S
C2244 C2246 1.384 . S
C2245 C2244 1.377 . S
C2245 C2251 1.390 . S
C2246 H2237 0.930 . S
C2246 C2244 1.384 . S
C2246 C2247 1.372 . S
C2247 C2246 1.372 . S
C2247 C2248 1.400 . S
C2247 C2252 1.490 . S
C2248 H2238 0.930 . S
C2248 C2247 1.400 . S
C2248 C2251 1.386 . S
H2249 C2265 0.930 . S
H2250 C2266 0.931 . S
C2251 H2239 0.929 . S
C2251 C2245 1.390 . S
C2251 C2248 1.386 . S
C2252 C2247 1.490 . S
C2252 C2254 1.395 . S
C2252 C2255 1.403 . S
H2253 C2259 0.930 . S
C2254 H2240 0.930 . S
C2254 C2252 1.395 . S
C2254 C2257 1.403 . S
C2255 C2252 1.403 . S
C2255 C2256 1.524 . S
C2255 C2259 1.400 . S
C2256 H2241 0.960 . S
C2256 H2242 0.960 . S
C2256 H2243 0.960 . S
C2256 C2255 1.524 . S
C2257 C2254 1.403 . S
C2257 C2258 1.392 . S
C2257 C2261 1.495 . S
C2258 C2257 1.392 . S
C2258 C2259 1.385 . S
C2258 C2260 1.478 . S
C2259 H2253 0.930 . S
C2259 C2255 1.400 . S
C2259 C2258 1.385 . S
C2260 C2258 1.478 . S
C2260 C2262 1.381 . S
C2260 C2266 1.383 . S
C2261 C2257 1.495 . S
C2261 H2267 0.959 . S
C2261 H2268 0.961 . S
C2261 H2269 0.960 . S
C2262 C2260 1.381 . S
C2262 C2263 1.394 . S
C2262 H2270 0.930 . S
C2263 C2262 1.394 . S
C2263 C2264 1.383 . S
C2263 H2271 0.929 . S
C2264 C2263 1.383 . S
C2264 C2265 1.377 . S
C2265 H2249 0.930 . S
C2265 C2264 1.377 . S
C2265 C2266 1.379 . S
C2266 H2250 0.931 . S
C2266 C2260 1.383 . S
C2266 C2265 1.379 . S
H2267 C2261 0.959 . S
H2268 C2261 0.961 . S
H2269 C2261 0.960 . S
H2270 C2262 0.930 . S
H2271 C2263 0.929 . S
H2272 C2280 0.929 . S
H2273 C2282 0.930 . S
H2274 C2284 0.930 . S
H2275 C2287 0.929 . S
H2276 C2290 0.930 . S
H2277 C2292 0.960 . S
H2278 C2292 0.960 . S
H2279 C2292 0.960 . S
C2280 H2272 0.929 . S
C2280 C2281 1.377 . S
C2280 C2282 1.384 . S
C2281 C2280 1.377 . S
C2281 C2287 1.390 1_556 S
C2282 H2273 0.930 . S
C2282 C2280 1.384 . S
C2282 C2283 1.366 1_655 S
C2283 C2282 1.366 1_455 S
C2283 C2284 1.394 1_456 S
C2283 C2288 1.501 . S
C2284 H2274 0.930 . S
C2284 C2283 1.394 1_654 S
C2284 C2287 1.386 . S
H2285 C2301 0.930 . S
H2286 C2302 0.931 . S
C2287 H2275 0.929 . S
C2287 C2281 1.390 1_554 S
C2287 C2284 1.386 . S
C2288 C2283 1.501 . S
C2288 C2290 1.395 . S
C2288 C2291 1.403 1_556 S
H2289 C2295 0.930 . S
C2290 H2276 0.930 . S
C2290 C2288 1.395 . S
C2290 C2293 1.403 . S
C2291 C2288 1.403 1_554 S
C2291 C2292 1.524 . S
C2291 C2295 1.400 . S
C2292 H2277 0.960 . S
C2292 H2278 0.960 . S
C2292 H2279 0.960 . S
C2292 C2291 1.524 . S
C2293 C2290 1.403 . S
C2293 C2294 1.392 . S
C2293 C2297 1.495 . S
C2294 C2293 1.392 . S
C2294 C2295 1.385 1_556 S
C2294 C2296 1.478 . S
C2295 H2289 0.930 . S
C2295 C2291 1.400 . S
C2295 C2294 1.385 1_554 S
C2296 C2294 1.478 . S
C2296 C2298 1.381 . S
C2296 C2302 1.383 1_556 S
C2297 C2293 1.495 . S
C2297 H2303 0.959 . S
C2297 H2304 0.961 . S
C2297 H2305 0.960 . S
C2298 C2296 1.381 . S
C2298 C2299 1.394 . S
C2298 H2306 0.930 . S
C2299 C2298 1.394 . S
C2299 C2300 1.383 . S
C2299 H2307 0.929 . S
C2300 C2299 1.383 . S
C2300 C2301 1.377 1_556 S
C2301 H2285 0.930 . S
C2301 C2300 1.377 1_554 S
C2301 C2302 1.379 . S
C2302 H2286 0.931 . S
C2302 C2296 1.383 1_554 S
C2302 C2301 1.379 . S
H2303 C2297 0.959 . S
H2304 C2297 0.961 . S
H2305 C2297 0.960 . S
H2306 C2298 0.930 . S
H2307 C2299 0.929 . S
H2308 C2316 0.929 . S
H2309 C2318 0.930 . S
H2310 C2320 0.930 . S
H2311 C2323 0.929 . S
H2312 C2326 0.930 . S
H2313 C2328 0.960 . S
H2314 C2328 0.960 . S
H2315 C2328 0.960 . S
C2316 H2308 0.929 . S
C2316 C2317 1.377 . S
C2316 C2318 1.384 . S
C2317 C2316 1.377 . S
C2317 C2323 1.390 . S
C2318 H2309 0.930 . S
C2318 C2316 1.384 . S
C2318 C2319 1.365 1_655 S
C2319 C2318 1.365 1_455 S
C2319 C2320 1.393 1_455 S
C2319 C2324 1.502 . S
C2320 H2310 0.930 . S
C2320 C2319 1.393 1_655 S
C2320 C2323 1.386 . S
H2321 C2337 0.930 . S
H2322 C2338 0.931 . S
C2323 H2311 0.929 . S
C2323 C2317 1.390 . S
C2323 C2320 1.386 . S
C2324 C2319 1.502 . S
C2324 C2326 1.395 . S
C2324 C2327 1.403 . S
H2325 C2331 0.930 . S
C2326 H2312 0.930 . S
C2326 C2324 1.395 . S
C2326 C2329 1.403 . S
C2327 C2324 1.403 . S
C2327 C2328 1.524 . S
C2327 C2331 1.400 . S
C2328 H2313 0.960 . S
C2328 H2314 0.960 . S
C2328 H2315 0.960 . S
C2328 C2327 1.524 . S
C2329 C2326 1.403 . S
C2329 C2330 1.392 . S
C2329 C2333 1.495 . S
C2330 C2329 1.392 . S
C2330 C2331 1.385 . S
C2330 C2332 1.478 . S
C2331 H2325 0.930 . S
C2331 C2327 1.400 . S
C2331 C2330 1.385 . S
C2332 C2330 1.478 . S
C2332 C2334 1.381 . S
C2332 C2338 1.383 . S
C2333 C2329 1.495 . S
C2333 H2339 0.959 . S
C2333 H2340 0.961 . S
C2333 H2341 0.960 . S
C2334 C2332 1.381 . S
C2334 C2335 1.394 . S
C2334 H2342 0.930 . S
C2335 C2334 1.394 . S
C2335 C2336 1.383 . S
C2335 H2343 0.929 . S
C2336 C2335 1.383 . S
C2336 C2337 1.377 . S
C2337 H2321 0.930 . S
C2337 C2336 1.377 . S
C2337 C2338 1.379 . S
C2338 H2322 0.931 . S
C2338 C2332 1.383 . S
C2338 C2337 1.379 . S
H2339 C2333 0.959 . S
H2340 C2333 0.961 . S
H2341 C2333 0.960 . S
H2342 C2334 0.930 . S
H2343 C2335 0.929 . S
H2344 C2352 0.929 . S
H2345 C2354 0.930 . S
H2346 C2356 0.930 . S
H2347 C2359 0.929 . S
H2348 C2362 0.930 . S
H2349 C2364 0.960 . S
H2350 C2364 0.960 . S
H2351 C2364 0.960 . S
C2352 H2344 0.929 . S
C2352 C2353 1.377 . S
C2352 C2354 1.384 . S
C2353 C2352 1.377 . S
C2353 C2359 1.390 1_554 S
C2354 H2345 0.930 . S
C2354 C2352 1.384 . S
C2354 C2355 1.372 . S
C2355 C2354 1.372 . S
C2355 C2356 1.400 1_554 S
C2355 C2360 1.490 . S
C2356 H2346 0.930 . S
C2356 C2355 1.400 1_556 S
C2356 C2359 1.386 . S
H2357 C2373 0.930 . S
H2358 C2374 0.931 . S
C2359 H2347 0.929 . S
C2359 C2353 1.390 1_556 S
C2359 C2356 1.386 . S
C2360 C2355 1.490 . S
C2360 C2362 1.395 1_554 S
C2360 C2363 1.403 . S
H2361 C2367 0.930 . S
C2362 H2348 0.930 . S
C2362 C2360 1.395 1_556 S
C2362 C2365 1.403 . S
C2363 C2360 1.403 . S
C2363 C2364 1.524 . S
C2363 C2367 1.400 . S
C2364 H2349 0.960 . S
C2364 H2350 0.960 . S
C2364 H2351 0.960 . S
C2364 C2363 1.524 . S
C2365 C2362 1.403 . S
C2365 C2366 1.392 1_556 S
C2365 C2369 1.495 . S
C2366 C2365 1.392 1_554 S
C2366 C2367 1.385 . S
C2366 C2368 1.479 1_655 S
C2367 H2361 0.930 . S
C2367 C2363 1.400 . S
C2367 C2366 1.385 . S
C2368 C2366 1.479 1_455 S
C2368 C2370 1.381 . S
C2368 C2374 1.382 1_554 S
C2369 C2365 1.495 . S
C2369 H2375 0.959 . S
C2369 H2376 0.961 . S
C2369 H2377 0.960 . S
C2370 C2368 1.381 . S
C2370 C2371 1.394 . S
C2370 H2378 0.930 . S
C2371 C2370 1.394 . S
C2371 C2372 1.383 . S
C2371 H2379 0.929 . S
C2372 C2371 1.383 . S
C2372 C2373 1.377 1_554 S
C2373 H2357 0.930 . S
C2373 C2372 1.377 1_556 S
C2373 C2374 1.379 . S
C2374 H2358 0.931 . S
C2374 C2368 1.382 1_556 S
C2374 C2373 1.379 . S
H2375 C2369 0.959 . S
H2376 C2369 0.961 . S
H2377 C2369 0.960 . S
H2378 C2370 0.930 . S
H2379 C2371 0.929 . S
H2380 C2388 0.929 . S
H2381 C2390 0.930 . S
H2382 C2392 0.930 . S
H2383 C2395 0.929 . S
H2384 C2398 0.930 . S
H2385 C2400 0.960 . S
H2386 C2400 0.960 . S
H2387 C2400 0.960 . S
C2388 H2380 0.929 . S
C2388 C2389 1.377 . S
C2388 C2390 1.384 . S
C2389 C2388 1.377 . S
C2389 C2395 1.390 . S
C2390 H2381 0.930 . S
C2390 C2388 1.384 . S
C2390 C2391 1.365 1_455 S
C2391 C2390 1.365 1_655 S
C2391 C2392 1.393 1_655 S
C2391 C2396 1.502 . S
C2392 H2382 0.930 . S
C2392 C2391 1.393 1_455 S
C2392 C2395 1.386 . S
H2393 C2409 0.930 . S
H2394 C2410 0.931 . S
C2395 H2383 0.929 . S
C2395 C2389 1.390 . S
C2395 C2392 1.386 . S
C2396 C2391 1.502 . S
C2396 C2398 1.395 . S
C2396 C2399 1.403 . S
H2397 C2403 0.930 . S
C2398 H2384 0.930 . S
C2398 C2396 1.395 . S
C2398 C2401 1.403 . S
C2399 C2396 1.403 . S
C2399 C2400 1.524 . S
C2399 C2403 1.400 . S
C2400 H2385 0.960 . S
C2400 H2386 0.960 . S
C2400 H2387 0.960 . S
C2400 C2399 1.524 . S
C2401 C2398 1.403 . S
C2401 C2402 1.392 . S
C2401 C2405 1.495 . S
C2402 C2401 1.392 . S
C2402 C2403 1.385 . S
C2402 C2404 1.478 . S
C2403 H2397 0.930 . S
C2403 C2399 1.400 . S
C2403 C2402 1.385 . S
C2404 C2402 1.478 . S
C2404 C2406 1.381 . S
C2404 C2410 1.383 . S
C2405 C2401 1.495 . S
C2405 H2411 0.959 . S
C2405 H2412 0.961 . S
C2405 H2413 0.960 . S
C2406 C2404 1.381 . S
C2406 C2407 1.394 . S
C2406 H2414 0.930 . S
C2407 C2406 1.394 . S
C2407 C2408 1.383 . S
C2407 H2415 0.929 . S
C2408 C2407 1.383 . S
C2408 C2409 1.377 . S
C2409 H2393 0.930 . S
C2409 C2408 1.377 . S
C2409 C2410 1.379 . S
C2410 H2394 0.931 . S
C2410 C2404 1.383 . S
C2410 C2409 1.379 . S
H2411 C2405 0.959 . S
H2412 C2405 0.961 . S
H2413 C2405 0.960 . S
H2414 C2406 0.930 . S
H2415 C2407 0.929 . S
H2416 C2424 0.929 . S
H2417 C2426 0.930 . S
H2418 C2428 0.930 . S
H2419 C2431 0.929 . S
H2420 C2434 0.930 . S
H2421 C2436 0.960 . S
H2422 C2436 0.960 . S
H2423 C2436 0.960 . S
C2424 H2416 0.929 . S
C2424 C2425 1.377 . S
C2424 C2426 1.384 . S
C2425 C2424 1.377 . S
C2425 C2431 1.390 . S
C2426 H2417 0.930 . S
C2426 C2424 1.384 . S
C2426 C2427 1.365 1_655 S
C2427 C2426 1.365 1_455 S
C2427 C2428 1.393 1_455 S
C2427 C2432 1.503 . S
C2428 H2418 0.930 . S
C2428 C2427 1.393 1_655 S
C2428 C2431 1.386 . S
H2429 C2445 0.930 . S
H2430 C2446 0.931 . S
C2431 H2419 0.929 . S
C2431 C2425 1.390 . S
C2431 C2428 1.386 . S
C2432 C2427 1.503 . S
C2432 C2434 1.395 . S
C2432 C2435 1.403 . S
H2433 C2439 0.930 . S
C2434 H2420 0.930 . S
C2434 C2432 1.395 . S
C2434 C2437 1.403 . S
C2435 C2432 1.403 . S
C2435 C2436 1.524 . S
C2435 C2439 1.400 . S
C2436 H2421 0.960 . S
C2436 H2422 0.960 . S
C2436 H2423 0.960 . S
C2436 C2435 1.524 . S
C2437 C2434 1.403 . S
C2437 C2438 1.392 . S
C2437 C2441 1.495 . S
C2438 C2437 1.392 . S
C2438 C2439 1.385 . S
C2438 C2440 1.478 . S
C2439 H2433 0.930 . S
C2439 C2435 1.400 . S
C2439 C2438 1.385 . S
C2440 C2438 1.478 . S
C2440 C2442 1.381 . S
C2440 C2446 1.383 . S
C2441 C2437 1.495 . S
C2441 H2447 0.959 . S
C2441 H2448 0.961 . S
C2441 H2449 0.960 . S
C2442 C2440 1.381 . S
C2442 C2443 1.394 . S
C2442 H2450 0.930 . S
C2443 C2442 1.394 . S
C2443 C2444 1.383 . S
C2443 H2451 0.929 . S
C2444 C2443 1.383 . S
C2444 C2445 1.377 . S
C2445 H2429 0.930 . S
C2445 C2444 1.377 . S
C2445 C2446 1.379 . S
C2446 H2430 0.931 . S
C2446 C2440 1.383 . S
C2446 C2445 1.379 . S
H2447 C2441 0.959 . S
H2448 C2441 0.961 . S
H2449 C2441 0.960 . S
H2450 C2442 0.930 . S
H2451 C2443 0.929 . S
H2452 C2460 0.929 . S
H2453 C2462 0.930 . S
H2454 C2464 0.930 . S
H2455 C2467 0.929 . S
H2456 C2470 0.930 . S
H2457 C2472 0.960 . S
H2458 C2472 0.960 . S
H2459 C2472 0.960 . S
C2460 H2452 0.929 . S
C2460 C2461 1.377 . S
C2460 C2462 1.384 . S
C2461 C2460 1.377 . S
C2461 C2467 1.390 . S
C2462 H2453 0.930 . S
C2462 C2460 1.384 . S
C2462 C2463 1.366 1_655 S
C2463 C2462 1.366 1_455 S
C2463 C2464 1.394 1_455 S
C2463 C2468 1.501 . S
C2464 H2454 0.930 . S
C2464 C2463 1.394 1_655 S
C2464 C2467 1.386 . S
H2465 C2481 0.930 . S
H2466 C2482 0.931 . S
C2467 H2455 0.929 . S
C2467 C2461 1.390 . S
C2467 C2464 1.386 . S
C2468 C2463 1.501 . S
C2468 C2470 1.395 . S
C2468 C2471 1.403 . S
H2469 C2475 0.930 . S
C2470 H2456 0.930 . S
C2470 C2468 1.395 . S
C2470 C2473 1.403 . S
C2471 C2468 1.403 . S
C2471 C2472 1.524 . S
C2471 C2475 1.400 . S
C2472 H2457 0.960 . S
C2472 H2458 0.960 . S
C2472 H2459 0.960 . S
C2472 C2471 1.524 . S
C2473 C2470 1.403 . S
C2473 C2474 1.392 . S
C2473 C2477 1.495 . S
C2474 C2473 1.392 . S
C2474 C2475 1.385 . S
C2474 C2476 1.478 . S
C2475 H2469 0.930 . S
C2475 C2471 1.400 . S
C2475 C2474 1.385 . S
C2476 C2474 1.478 . S
C2476 C2478 1.381 . S
C2476 C2482 1.383 . S
C2477 C2473 1.495 . S
C2477 H2483 0.959 . S
C2477 H2484 0.961 . S
C2477 H2485 0.960 . S
C2478 C2476 1.381 . S
C2478 C2479 1.394 . S
C2478 H2486 0.930 . S
C2479 C2478 1.394 . S
C2479 C2480 1.383 . S
C2479 H2487 0.929 . S
C2480 C2479 1.383 . S
C2480 C2481 1.377 . S
C2481 H2465 0.930 . S
C2481 C2480 1.377 . S
C2481 C2482 1.379 . S
C2482 H2466 0.931 . S
C2482 C2476 1.383 . S
C2482 C2481 1.379 . S
H2483 C2477 0.959 . S
H2484 C2477 0.961 . S
H2485 C2477 0.960 . S
H2486 C2478 0.930 . S
H2487 C2479 0.929 . S
H2488 C2496 0.929 . S
H2489 C2498 0.930 . S
H2490 C2500 0.930 . S
H2491 C2503 0.929 . S
H2492 C2506 0.930 . S
H2493 C2508 0.960 . S
H2494 C2508 0.960 . S
H2495 C2508 0.960 . S
C2496 H2488 0.929 . S
C2496 C2497 1.377 . S
C2496 C2498 1.384 . S
C2497 C2496 1.377 . S
C2497 C2503 1.390 . S
C2498 H2489 0.930 . S
C2498 C2496 1.384 . S
C2498 C2499 1.365 1_455 S
C2499 C2498 1.365 1_655 S
C2499 C2500 1.393 1_655 S
C2499 C2504 1.504 . S
C2500 H2490 0.930 . S
C2500 C2499 1.393 1_455 S
C2500 C2503 1.386 . S
H2501 C2517 0.930 . S
H2502 C2518 0.931 . S
C2503 H2491 0.929 . S
C2503 C2497 1.390 . S
C2503 C2500 1.386 . S
C2504 C2499 1.504 . S
C2504 C2506 1.395 . S
C2504 C2507 1.403 . S
H2505 C2511 0.930 . S
C2506 H2492 0.930 . S
C2506 C2504 1.395 . S
C2506 C2509 1.403 . S
C2507 C2504 1.403 . S
C2507 C2508 1.524 . S
C2507 C2511 1.400 . S
C2508 H2493 0.960 . S
C2508 H2494 0.960 . S
C2508 H2495 0.960 . S
C2508 C2507 1.524 . S
C2509 C2506 1.403 . S
C2509 C2510 1.392 . S
C2509 C2513 1.495 . S
C2510 C2509 1.392 . S
C2510 C2511 1.385 . S
C2510 C2512 1.478 . S
C2511 H2505 0.930 . S
C2511 C2507 1.400 . S
C2511 C2510 1.385 . S
C2512 C2510 1.478 . S
C2512 C2514 1.381 . S
C2512 C2518 1.383 . S
C2513 C2509 1.495 . S
C2513 H2519 0.959 . S
C2513 H2520 0.961 . S
C2513 H2521 0.960 . S
C2514 C2512 1.381 . S
C2514 C2515 1.394 . S
C2514 H2522 0.930 . S
C2515 C2514 1.394 . S
C2515 C2516 1.383 . S
C2515 H2523 0.929 . S
C2516 C2515 1.383 . S
C2516 C2517 1.377 . S
C2517 H2501 0.930 . S
C2517 C2516 1.377 . S
C2517 C2518 1.379 . S
C2518 H2502 0.931 . S
C2518 C2512 1.383 . S
C2518 C2517 1.379 . S
H2519 C2513 0.959 . S
H2520 C2513 0.961 . S
H2521 C2513 0.960 . S
H2522 C2514 0.930 . S
H2523 C2515 0.929 . S
H2524 C2532 0.929 . S
H2525 C2534 0.930 . S
H2526 C2536 0.930 . S
H2527 C2539 0.929 . S
H2528 C2542 0.930 . S
H2529 C2544 0.960 . S
H2530 C2544 0.960 . S
H2531 C2544 0.960 . S
C2532 H2524 0.929 . S
C2532 C2533 1.377 . S
C2532 C2534 1.384 . S
C2533 C2532 1.377 . S
C2533 C2539 1.390 . S
C2534 H2525 0.930 . S
C2534 C2532 1.384 . S
C2534 C2535 1.366 1_455 S
C2535 C2534 1.366 1_655 S
C2535 C2536 1.394 1_655 S
C2535 C2540 1.502 . S
C2536 H2526 0.930 . S
C2536 C2535 1.394 1_455 S
C2536 C2539 1.386 . S
H2537 C2553 0.930 . S
H2538 C2554 0.931 . S
C2539 H2527 0.929 . S
C2539 C2533 1.390 . S
C2539 C2536 1.386 . S
C2540 C2535 1.502 . S
C2540 C2542 1.395 . S
C2540 C2543 1.403 . S
H2541 C2547 0.930 . S
C2542 H2528 0.930 . S
C2542 C2540 1.395 . S
C2542 C2545 1.403 . S
C2543 C2540 1.403 . S
C2543 C2544 1.524 . S
C2543 C2547 1.400 . S
C2544 H2529 0.960 . S
C2544 H2530 0.960 . S
C2544 H2531 0.960 . S
C2544 C2543 1.524 . S
C2545 C2542 1.403 . S
C2545 C2546 1.392 . S
C2545 C2549 1.495 . S
C2546 C2545 1.392 . S
C2546 C2547 1.385 . S
C2546 C2548 1.478 . S
C2547 H2541 0.930 . S
C2547 C2543 1.400 . S
C2547 C2546 1.385 . S
C2548 C2546 1.478 . S
C2548 C2550 1.381 . S
C2548 C2554 1.383 . S
C2549 C2545 1.495 . S
C2549 H2555 0.959 . S
C2549 H2556 0.961 . S
C2549 H2557 0.960 . S
C2550 C2548 1.381 . S
C2550 C2551 1.394 . S
C2550 H2558 0.930 . S
C2551 C2550 1.394 . S
C2551 C2552 1.383 . S
C2551 H2559 0.929 . S
C2552 C2551 1.383 . S
C2552 C2553 1.377 . S
C2553 H2537 0.930 . S
C2553 C2552 1.377 . S
C2553 C2554 1.379 . S
C2554 H2538 0.931 . S
C2554 C2548 1.383 . S
C2554 C2553 1.379 . S
H2555 C2549 0.959 . S
H2556 C2549 0.961 . S
H2557 C2549 0.960 . S
H2558 C2550 0.930 . S
H2559 C2551 0.929 . S
C553 C498 1.530 . S
C572 C22 1.554 . S
C589 C83 1.518 . S
C608 C15 1.506 . S
C625 C56 1.522 . S
C644 C389 1.540 . S
C661 C49 1.520 . S
C680 C260 1.529 . S
C697 C90 1.521 . S
C716 C430 1.537 . S
C733 C117 1.518 . S
C752 C321 1.507 . S
C769 C124 1.532 . S
C788 C185 1.534 . S
C805 C151 1.532 . S
C824 C362 1.545 . S
C841 C158 1.523 . S
C860 C226 1.489 . S
C877 C192 1.522 . S
C896 C525 1.489 . S
C913 C219 1.521 . S
C932 C287 1.536 . S
C949 C464 1.532 . S
C968 C253 1.544 . S
C985 C294 1.532 . S
C1004 C355 1.548 . S
C1021 C328 1.529 . S
C1040 C532 1.504 . S
C1057 C396 1.527 . S
C1076 C457 1.499 . S
C1093 C423 1.522 . S
C1112 C491 1.542 . S
C1129 C17 1.861 . S
C1148 C51 1.857 . S
C1165 C119 1.861 . S
C1184 C85 1.857 . S
C1201 C153 1.861 . S
C1220 C187 1.857 . S
C1237 C221 1.861 . S
C1256 C255 1.857 . S
C1273 C289 1.861 . S
C1292 C323 1.857 . S
C1309 C357 1.861 . S
C1328 C391 1.857 . S
C1345 C425 1.861 . S
C1364 C459 1.857 . S
C1381 C527 1.861 . S
C1400 C493 1.857 . S
C1417 C307 1.633 . S
C1436 C1 1.599 . S
C1453 C3 1.633 . S
C1472 C309 1.598 . S
C1489 C35 1.636 . S
C1508 C273 1.601 . S
C1525 C37 1.625 . S
C1544 C275 1.656 . S
C1561 C375 1.624 . S
C1580 C69 1.598 . S
C1597 C377 1.626 . S
C1616 C71 1.618 . S
C1633 C343 1.633 . S
C1652 C105 1.649 . S
C1669 C341 1.624 . S
C1688 C103 1.598 . S
C1705 C139 1.631 . S
C1724 C445 1.642 . S
C1741 C137 1.627 . S
C1760 C443 1.655 . S
C1777 C411 1.633 . S
C1796 C171 1.632 . S
C1813 C409 1.631 . S
C1832 C173 1.603 . S
C1849 C511 1.633 . S
C1868 C207 1.632 . S
C1885 C205 1.632 . S
C1904 C513 1.645 . S
C1921 C241 1.625 . S
C1940 C479 1.609 . S
C1957 C239 1.626 . S
C1976 C477 1.615 . S
C1993 C6 1.630 . S
C2012 C28 1.631 . S
C2029 C40 1.630 . S
C2048 C62 1.632 . S
C2065 C74 1.632 . S
C2084 C96 1.626 . S
C2101 C130 1.632 . S
C2120 C108 1.632 . S
C2137 C142 1.632 . S
C2156 C164 1.622 . S
C2173 C176 1.630 . S
C2192 C198 1.631 . S
C2209 C210 1.630 . S
C2228 C232 1.630 . S
C2245 C266 1.632 . S
C2264 C244 1.629 . S
C2281 C300 1.631 . S
C2300 C278 1.625 . S
C2317 C334 1.630 . S
C2336 C312 1.629 . S
C2353 C368 1.630 . S
C2372 C346 1.629 . S
C2389 C402 1.632 . S
C2408 C380 1.630 . S
C2425 C414 1.630 . S
C2444 C436 1.630 . S
C2461 C448 1.632 . S
C2480 C470 1.623 . S
C2497 C482 1.632 . S
C2516 C504 1.624 . S
C2533 C538 1.632 . S
C2552 C516 1.631 . S
