# Generated by pormake.
# Topology fnw, (5)-cn, num edge types: 1
# Building blocks:
#     Node 0, Type 0, BuildingBlock: XOMCOT_clean_sbu_0, # of connection points: 5
#     Node 1, Type 0, BuildingBlock: XOMCOT_clean_sbu_0, # of connection points: 5
#     Node 2, Type 0, BuildingBlock: XOMCOT_clean_sbu_0, # of connection points: 5
#     Node 3, Type 0, BuildingBlock: XOMCOT_clean_sbu_0, # of connection points: 5
#     Node 4, Type 0, BuildingBlock: XOMCOT_clean_sbu_0, # of connection points: 5
#     Node 5, Type 0, BuildingBlock: XOMCOT_clean_sbu_0, # of connection points: 5
#     Node 6, Type 0, BuildingBlock: XOMCOT_clean_sbu_0, # of connection points: 5
#     Node 7, Type 0, BuildingBlock: XOMCOT_clean_sbu_0, # of connection points: 5
#     Node 8, Type 0, BuildingBlock: XOMCOT_clean_sbu_0, # of connection points: 5
#     Node 9, Type 0, BuildingBlock: XOMCOT_clean_sbu_0, # of connection points: 5
#     Node 10, Type 0, BuildingBlock: XOMCOT_clean_sbu_0, # of connection points: 5
#     Node 11, Type 0, BuildingBlock: XOMCOT_clean_sbu_0, # of connection points: 5
#     Edge 12, Type (0, 0), BuildingBlock: AJUNOK_clean_linker_0, # of connection points: 2
#     Edge 13, Type (0, 0), BuildingBlock: AJUNOK_clean_linker_0, # of connection points: 2
#     Edge 14, Type (0, 0), BuildingBlock: AJUNOK_clean_linker_0, # of connection points: 2
#     Edge 15, Type (0, 0), BuildingBlock: AJUNOK_clean_linker_0, # of connection points: 2
#     Edge 16, Type (0, 0), BuildingBlock: AJUNOK_clean_linker_0, # of connection points: 2
#     Edge 17, Type (0, 0), BuildingBlock: AJUNOK_clean_linker_0, # of connection points: 2
#     Edge 18, Type (0, 0), BuildingBlock: AJUNOK_clean_linker_0, # of connection points: 2
#     Edge 19, Type (0, 0), BuildingBlock: AJUNOK_clean_linker_0, # of connection points: 2
#     Edge 20, Type (0, 0), BuildingBlock: AJUNOK_clean_linker_0, # of connection points: 2
#     Edge 21, Type (0, 0), BuildingBlock: AJUNOK_clean_linker_0, # of connection points: 2
#     Edge 22, Type (0, 0), BuildingBlock: AJUNOK_clean_linker_0, # of connection points: 2
#     Edge 23, Type (0, 0), BuildingBlock: AJUNOK_clean_linker_0, # of connection points: 2
#     Edge 24, Type (0, 0), BuildingBlock: AJUNOK_clean_linker_0, # of connection points: 2
#     Edge 25, Type (0, 0), BuildingBlock: AJUNOK_clean_linker_0, # of connection points: 2
#     Edge 26, Type (0, 0), BuildingBlock: AJUNOK_clean_linker_0, # of connection points: 2
#     Edge 27, Type (0, 0), BuildingBlock: AJUNOK_clean_linker_0, # of connection points: 2
#     Edge 28, Type (0, 0), BuildingBlock: AJUNOK_clean_linker_0, # of connection points: 2
#     Edge 29, Type (0, 0), BuildingBlock: AJUNOK_clean_linker_0, # of connection points: 2
#     Edge 30, Type (0, 0), BuildingBlock: AJUNOK_clean_linker_0, # of connection points: 2
#     Edge 31, Type (0, 0), BuildingBlock: AJUNOK_clean_linker_0, # of connection points: 2
#     Edge 32, Type (0, 0), BuildingBlock: AJUNOK_clean_linker_0, # of connection points: 2
#     Edge 33, Type (0, 0), BuildingBlock: AJUNOK_clean_linker_0, # of connection points: 2
#     Edge 34, Type (0, 0), BuildingBlock: AJUNOK_clean_linker_0, # of connection points: 2
#     Edge 35, Type (0, 0), BuildingBlock: AJUNOK_clean_linker_0, # of connection points: 2
#     Edge 36, Type (0, 0), BuildingBlock: AJUNOK_clean_linker_0, # of connection points: 2
#     Edge 37, Type (0, 0), BuildingBlock: AJUNOK_clean_linker_0, # of connection points: 2
#     Edge 38, Type (0, 0), BuildingBlock: AJUNOK_clean_linker_0, # of connection points: 2
#     Edge 39, Type (0, 0), BuildingBlock: AJUNOK_clean_linker_0, # of connection points: 2
#     Edge 40, Type (0, 0), BuildingBlock: AJUNOK_clean_linker_0, # of connection points: 2
#     Edge 41, Type (0, 0), BuildingBlock: AJUNOK_clean_linker_0, # of connection points: 2
# Relax obj value: 0.267
# Max RMSD: 0.158
# Mean RMSD: 0.158
data_MOF--net-fnw--node1-XOMCOT_clean_sbu_0--edge1-AJUNOK_clean_linker_0
_symmetry_space_group_name_H-M    P1
_symmetry_Int_Tables_number       1
_symmetry_cell_setting            triclinic
loop_
_symmetry_equiv_pos_as_xyz
'x, y, z'
_cell_length_a     39.784919
_cell_length_b     39.785708
_cell_length_c     23.882562
_cell_angle_alpha  90.037271
_cell_angle_beta   90.029825
_cell_angle_gamma 119.93773
loop_
_atom_site_label
_atom_site_type_symbol
_atom_site_fract_x
_atom_site_fract_y
_atom_site_fract_z
_atom_type_partial_charge
Co0 Co 0.27148 0.46447 0.31985 0.0
C1 C 0.31081 0.41842 0.30049 0.0
C2 C 0.33522 0.45773 0.36976 0.0
C3 C 0.35579 0.43864 0.3628 0.0
N4 N 0.30703 0.44508 0.3307 0.0
N5 N 0.34037 0.41395 0.3193 0.0
H6 H 0.29295 0.40305 0.26482 0.0
H7 H 0.34124 0.48022 0.40014 0.0
C8 C 0.32462 0.54599 0.27344 0.0
O9 O 0.2981 0.54436 0.23896 0.0
N10 N 0.2352 0.48352 0.30991 0.0
C11 C 0.19819 0.46202 0.29219 0.0
C12 C 0.18116 0.48455 0.29086 0.0
C13 C 0.23934 0.51867 0.32204 0.0
N14 N 0.20686 0.52019 0.30978 0.0
C15 C 0.23031 0.41527 0.22635 0.0
C16 C 0.28153 0.46117 0.14439 0.0
C17 C 0.24458 0.43152 0.12836 0.0
C18 C 0.21951 0.40725 0.17009 0.0
C19 C 0.29106 0.46807 0.20119 0.0
N20 N 0.26409 0.44763 0.24144 0.0
H21 H 0.21053 0.39637 0.25791 0.0
H22 H 0.31989 0.49043 0.21222 0.0
H23 H 0.18366 0.43167 0.28183 0.0
H24 H 0.26545 0.54263 0.33941 0.0
O25 O 0.23019 0.41829 0.35602 0.0
O26 O 0.27181 0.4731 0.39873 0.0
O27 O 0.31784 0.51679 0.30354 0.0
C28 C 0.2426 0.4382 0.40229 0.0
H29 H 0.38137 0.44401 0.38606 0.0
H30 H 0.15226 0.47546 0.27557 0.0
H31 H 0.30235 0.4801 0.11361 0.0
H32 H 0.19134 0.38296 0.15942 0.0
Co33 Co 0.80886 0.27407 0.81668 0.0
C34 C 0.8938 0.3065 0.79902 0.0
C35 C 0.88097 0.33672 0.86243 0.0
C36 C 0.92052 0.35458 0.85638 0.0
N37 N 0.86421 0.30658 0.82661 0.0
N38 N 0.92854 0.33557 0.81659 0.0
H39 H 0.89018 0.28639 0.76591 0.0
H40 H 0.8654 0.34593 0.88975 0.0
C41 C 0.78823 0.33057 0.76083 0.0
O42 O 0.76637 0.305 0.7229 0.0
N43 N 0.75275 0.24158 0.80815 0.0
C44 C 0.7327 0.20342 0.79568 0.0
C45 C 0.6941 0.19199 0.79007 0.0
C46 C 0.72535 0.25204 0.81347 0.0
N47 N 0.68947 0.22272 0.80038 0.0
C48 C 0.80861 0.22646 0.72611 0.0
C49 C 0.82673 0.28016 0.64171 0.0
C50 C 0.81208 0.2411 0.62743 0.0
C51 C 0.80521 0.21455 0.67041 0.0
C52 C 0.82956 0.29074 0.69823 0.0
N53 N 0.81669 0.26315 0.73929 0.0
H54 H 0.80325 0.20562 0.75862 0.0
H55 H 0.84089 0.32089 0.70858 0.0
H56 H 0.74474 0.18459 0.79128 0.0
H57 H 0.73151 0.28043 0.82718 0.0
O58 O 0.8104 0.23169 0.85526 0.0
O59 O 0.80194 0.2772 0.89562 0.0
O60 O 0.80684 0.32229 0.79663 0.0
C61 C 0.80537 0.24661 0.90088 0.0
H62 H 0.94164 0.38089 0.87729 0.0
H63 H 0.67133 0.16338 0.77785 0.0
H64 H 0.83399 0.30194 0.60961 0.0
H65 H 0.79592 0.18451 0.66105 0.0
Co66 Co 0.53756 0.80755 0.3034 0.0
C67 C 0.5886 0.89254 0.28492 0.0
C68 C 0.54365 0.87912 0.34526 0.0
C69 C 0.56411 0.91861 0.33783 0.0
N70 N 0.5589 0.86278 0.31207 0.0
N71 N 0.59213 0.92702 0.29958 0.0
H72 H 0.60674 0.88901 0.25449 0.0
H73 H 0.51845 0.86323 0.37163 0.0
C74 C 0.46042 0.7829 0.24683 0.0
O75 O 0.46462 0.75935 0.21271 0.0
N76 N 0.51521 0.7515 0.29652 0.0
C77 C 0.53355 0.7316 0.28389 0.0
C78 C 0.50689 0.69259 0.28236 0.0
C79 C 0.47797 0.72383 0.30575 0.0
N80 N 0.47193 0.68788 0.29555 0.0
C81 C 0.58438 0.80736 0.21179 0.0
C82 C 0.54671 0.82418 0.12887 0.0
C83 C 0.57161 0.81033 0.11361 0.0
C84 C 0.59223 0.80393 0.15574 0.0
C85 C 0.54003 0.82746 0.18551 0.0
N86 N 0.55568 0.81509 0.22591 0.0
H87 H 0.60043 0.80231 0.24382 0.0
H88 H 0.52124 0.83873 0.19651 0.0
H89 H 0.56421 0.74395 0.27698 0.0
H90 H 0.45552 0.7297 0.3194 0.0
O91 O 0.58222 0.81058 0.3414 0.0
O92 O 0.52812 0.80121 0.3825 0.0
O93 O 0.4866 0.80368 0.28241 0.0
C94 C 0.56234 0.80502 0.3872 0.0
H95 H 0.55766 0.93942 0.35699 0.0
H96 H 0.51261 0.66959 0.27089 0.0
H97 H 0.53165 0.83125 0.09732 0.0
H98 H 0.61269 0.79439 0.14566 0.0
Co99 Co 0.73411 0.54032 0.81083 0.0
C100 C 0.70125 0.59194 0.78796 0.0
C101 C 0.672 0.55183 0.85487 0.0
C102 C 0.65352 0.5727 0.84535 0.0
N103 N 0.70189 0.56382 0.81889 0.0
N104 N 0.67165 0.59759 0.80294 0.0
H105 H 0.72136 0.6074 0.75446 0.0
H106 H 0.66326 0.5284 0.88455 0.0
C107 C 0.67669 0.46288 0.75541 0.0
O108 O 0.70175 0.46555 0.71736 0.0
N109 N 0.76662 0.51654 0.80365 0.0
C110 C 0.80553 0.53554 0.79641 0.0
C111 C 0.81794 0.50905 0.79109 0.0
C112 C 0.75635 0.4786 0.80524 0.0
N113 N 0.78689 0.47344 0.79598 0.0
C114 C 0.78297 0.58785 0.72185 0.0
C115 C 0.73168 0.55081 0.63518 0.0
C116 C 0.77087 0.57632 0.62246 0.0
C117 C 0.79589 0.597 0.6667 0.0
C118 C 0.71976 0.5434 0.69115 0.0
N119 N 0.74625 0.55881 0.73355 0.0
H120 H 0.80303 0.60348 0.75517 0.0
H121 H 0.68944 0.52439 0.70001 0.0
H122 H 0.82407 0.56661 0.79532 0.0
H123 H 0.72742 0.45503 0.81346 0.0
O124 O 0.77634 0.58392 0.85011 0.0
O125 O 0.73019 0.53031 0.88992 0.0
O126 O 0.6857 0.49029 0.79057 0.0
C127 C 0.76123 0.56387 0.8955 0.0
H128 H 0.62742 0.5684 0.86592 0.0
H129 H 0.8473 0.51531 0.78309 0.0
H130 H 0.71064 0.53546 0.60248 0.0
H131 H 0.82559 0.61936 0.65901 0.0
Co132 Co 0.20158 0.73102 0.32231 0.0
C133 C 0.11594 0.69254 0.29767 0.0
C134 C 0.1288 0.67359 0.3748 0.0
C135 C 0.08947 0.6528 0.36623 0.0
N136 N 0.14567 0.69842 0.33175 0.0
N137 N 0.08147 0.66446 0.31763 0.0
H138 H 0.11932 0.70628 0.25747 0.0
H139 H 0.14414 0.66944 0.40903 0.0
C140 C 0.18166 0.65034 0.28914 0.0
O141 O 0.14945 0.64488 0.26578 0.0
N142 N 0.25715 0.76378 0.31335 0.0
C143 C 0.27724 0.80286 0.31437 0.0
C144 C 0.31532 0.81535 0.30136 0.0
C145 C 0.28321 0.75313 0.29832 0.0
N146 N 0.31899 0.78406 0.29035 0.0
C147 C 0.18763 0.76726 0.22801 0.0
C148 C 0.21393 0.73587 0.1476 0.0
C149 C 0.20539 0.76458 0.1317 0.0
C150 C 0.19172 0.78018 0.17245 0.0
C151 C 0.21014 0.72435 0.20337 0.0
N152 N 0.19676 0.73961 0.24302 0.0
H153 H 0.17819 0.78032 0.25937 0.0
H154 H 0.22051 0.70493 0.21444 0.0
H155 H 0.26509 0.82132 0.3225 0.0
H156 H 0.27603 0.72346 0.29138 0.0
O157 O 0.19864 0.77427 0.35636 0.0
O158 O 0.20788 0.731 0.40184 0.0
O159 O 0.20635 0.68346 0.30871 0.0
C160 C 0.20385 0.76131 0.40383 0.0
H161 H 0.06845 0.62975 0.39258 0.0
H162 H 0.33835 0.84527 0.30081 0.0
H163 H 0.22541 0.72378 0.11754 0.0
H164 H 0.18486 0.80252 0.16166 0.0
Co165 Co 0.46709 0.20085 0.81251 0.0
C166 C 0.41479 0.1162 0.79341 0.0
C167 C 0.45722 0.12824 0.85748 0.0
C168 C 0.43578 0.08874 0.84998 0.0
N169 N 0.44417 0.14544 0.82194 0.0
N170 N 0.40937 0.08122 0.80938 0.0
H171 H 0.39827 0.12041 0.76096 0.0
H172 H 0.48158 0.14349 0.88559 0.0
C173 C 0.54525 0.2213 0.76141 0.0
O174 O 0.54185 0.2424 0.72192 0.0
N175 N 0.4904 0.25715 0.80428 0.0
C176 C 0.4712 0.27684 0.79604 0.0
C177 C 0.49746 0.31567 0.7897 0.0
C178 C 0.52825 0.28508 0.80589 0.0
N179 N 0.53316 0.3205 0.79513 0.0
C180 C 0.42493 0.20372 0.71688 0.0
C181 C 0.46139 0.18217 0.63815 0.0
C182 C 0.43868 0.19798 0.62002 0.0
C183 C 0.41877 0.20699 0.66012 0.0
C184 C 0.46643 0.1791 0.69555 0.0
N185 N 0.45134 0.19347 0.73387 0.0
H186 H 0.4093 0.21069 0.74712 0.0
H187 H 0.48367 0.16654 0.70891 0.0
H188 H 0.44013 0.26432 0.79522 0.0
H189 H 0.55199 0.28018 0.81528 0.0
O190 O 0.42169 0.19882 0.84682 0.0
O191 O 0.47425 0.20745 0.89196 0.0
O192 O 0.51813 0.20313 0.79689 0.0
C193 C 0.4402 0.20424 0.894 0.0
H194 H 0.44056 0.06729 0.8707 0.0
H195 H 0.49097 0.3385 0.78067 0.0
H196 H 0.47593 0.17329 0.60826 0.0
H197 H 0.40011 0.21832 0.64793 0.0
Co198 Co 0.53747 0.73169 0.69354 0.0
C199 C 0.58942 0.69859 0.71188 0.0
C200 C 0.54353 0.66555 0.65341 0.0
C201 C 0.56504 0.64746 0.66023 0.0
N202 N 0.55871 0.6975 0.68586 0.0
N203 N 0.59383 0.66822 0.69698 0.0
H204 H 0.60758 0.72047 0.7421 0.0
H205 H 0.5178 0.65544 0.62785 0.0
C206 C 0.46152 0.67525 0.75322 0.0
O207 O 0.468 0.69818 0.79638 0.0
N208 N 0.5157 0.76619 0.69994 0.0
C209 C 0.53552 0.8054 0.69778 0.0
C210 C 0.51049 0.81922 0.70732 0.0
C211 C 0.47839 0.75698 0.70781 0.0
N212 N 0.47471 0.78867 0.71458 0.0
C213 C 0.58014 0.78061 0.78579 0.0
C214 C 0.5512 0.72374 0.86708 0.0
C215 C 0.57209 0.76277 0.88348 0.0
C216 C 0.58822 0.79127 0.84197 0.0
C217 C 0.54421 0.71439 0.81018 0.0
N218 N 0.55564 0.74296 0.77087 0.0
H219 H 0.59266 0.80292 0.75443 0.0
H220 H 0.52791 0.68423 0.79801 0.0
H221 H 0.56621 0.82321 0.68989 0.0
H222 H 0.4539 0.72801 0.70671 0.0
O223 O 0.58248 0.77247 0.65499 0.0
O224 O 0.52791 0.72789 0.61463 0.0
O225 O 0.48611 0.68493 0.71353 0.0
C226 C 0.56238 0.75771 0.60936 0.0
H227 H 0.55867 0.61999 0.64195 0.0
H228 H 0.51811 0.84937 0.70985 0.0
H229 H 0.53934 0.70079 0.89802 0.0
H230 H 0.60522 0.82172 0.8528 0.0
Co231 Co 0.81496 0.53975 0.20241 0.0
C232 C 0.90079 0.58821 0.22181 0.0
C233 C 0.88563 0.54673 0.15533 0.0
C234 C 0.92493 0.56439 0.16401 0.0
N235 N 0.87031 0.56139 0.19163 0.0
N236 N 0.93436 0.59021 0.20593 0.0
H237 H 0.89836 0.60406 0.25691 0.0
H238 H 0.86903 0.52307 0.12666 0.0
C239 C 0.79338 0.46358 0.26127 0.0
O240 O 0.77218 0.46875 0.29871 0.0
N241 N 0.75898 0.51701 0.21156 0.0
C242 C 0.73912 0.53556 0.22283 0.0
C243 C 0.70032 0.5087 0.22776 0.0
C244 C 0.73139 0.47926 0.2065 0.0
N245 N 0.69558 0.47321 0.21845 0.0
C246 C 0.81577 0.58817 0.29254 0.0
C247 C 0.83329 0.55187 0.37668 0.0
C248 C 0.81997 0.57739 0.39149 0.0
C249 C 0.81315 0.59716 0.34837 0.0
C250 C 0.83632 0.54448 0.32025 0.0
N251 N 0.82363 0.55942 0.27929 0.0
H252 H 0.81021 0.60352 0.26002 0.0
H253 H 0.84749 0.52551 0.30989 0.0
H254 H 0.75141 0.56648 0.2266 0.0
H255 H 0.73724 0.45661 0.19381 0.0
O256 O 0.8167 0.58337 0.16273 0.0
O257 O 0.807 0.52856 0.12378 0.0
O258 O 0.81206 0.48941 0.22418 0.0
C259 C 0.81043 0.56251 0.1177 0.0
H260 H 0.9448 0.55728 0.14334 0.0
H261 H 0.67745 0.51475 0.23862 0.0
H262 H 0.83954 0.53614 0.40804 0.0
H263 H 0.80469 0.61856 0.35764 0.0
Co264 Co 0.27623 0.81086 0.70918 0.0
C265 C 0.30752 0.89579 0.72767 0.0
C266 C 0.33978 0.88351 0.667 0.0
C267 C 0.35689 0.92302 0.67277 0.0
N268 N 0.30889 0.8664 0.70134 0.0
N269 N 0.33661 0.93074 0.71078 0.0
H270 H 0.28631 0.89182 0.75919 0.0
H271 H 0.3498 0.8682 0.64059 0.0
C272 C 0.33519 0.7935 0.76616 0.0
O273 O 0.3117 0.77413 0.80754 0.0
N274 N 0.24332 0.75433 0.71537 0.0
C275 C 0.2041 0.73399 0.71235 0.0
C276 C 0.19133 0.6951 0.71871 0.0
C277 C 0.25362 0.72679 0.72119 0.0
N278 N 0.22252 0.69085 0.72514 0.0
C279 C 0.22733 0.80288 0.80183 0.0
C280 C 0.28404 0.83146 0.88357 0.0
C281 C 0.2449 0.81251 0.89977 0.0
C282 C 0.21652 0.79973 0.85793 0.0
C283 C 0.29356 0.83404 0.8266 0.0
N284 N 0.26512 0.81696 0.78697 0.0
H285 H 0.205 0.79284 0.77039 0.0
H286 H 0.32375 0.8483 0.81463 0.0
H287 H 0.18557 0.7462 0.70529 0.0
H288 H 0.28291 0.73204 0.72018 0.0
O289 O 0.23408 0.81358 0.67191 0.0
O290 O 0.27927 0.80542 0.62982 0.0
O291 O 0.32453 0.80864 0.728 0.0
C292 C 0.24869 0.80897 0.62566 0.0
H293 H 0.38342 0.94439 0.65268 0.0
H294 H 0.16148 0.67175 0.7191 0.0
H295 H 0.307 0.84237 0.91452 0.0
H296 H 0.18604 0.78624 0.86857 0.0
Co297 Co 0.47121 0.27732 0.19722 0.0
C298 C 0.42361 0.31378 0.22451 0.0
C299 C 0.46859 0.34681 0.16489 0.0
C300 C 0.44889 0.3663 0.17594 0.0
N301 N 0.45284 0.31402 0.19545 0.0
N302 N 0.4209 0.3457 0.21374 0.0
H303 H 0.40504 0.29103 0.25328 0.0
H304 H 0.49326 0.35628 0.13735 0.0
C305 C 0.55093 0.32984 0.25053 0.0
O306 O 0.54618 0.30458 0.28958 0.0
N307 N 0.48957 0.23974 0.19776 0.0
C308 C 0.46663 0.20079 0.19326 0.0
C309 C 0.48883 0.18336 0.19676 0.0
C310 C 0.52597 0.24519 0.20169 0.0
N311 N 0.526 0.21125 0.20285 0.0
C312 C 0.43026 0.22887 0.29063 0.0
C313 C 0.46569 0.28456 0.37283 0.0
C314 C 0.44243 0.24565 0.38864 0.0
C315 C 0.42338 0.21786 0.34678 0.0
C316 C 0.47151 0.29431 0.31598 0.0
N317 N 0.45633 0.26609 0.2758 0.0
H318 H 0.41523 0.2071 0.25909 0.0
H319 H 0.48927 0.32441 0.30437 0.0
H320 H 0.43556 0.18548 0.1877 0.0
H321 H 0.55219 0.273 0.20168 0.0
O322 O 0.42344 0.23875 0.16104 0.0
O323 O 0.47735 0.28152 0.1176 0.0
O324 O 0.52441 0.32229 0.21454 0.0
C325 C 0.44197 0.25299 0.11419 0.0
H326 H 0.45556 0.39423 0.15916 0.0
H327 H 0.47844 0.1525 0.19588 0.0
H328 H 0.47986 0.30708 0.40411 0.0
H329 H 0.40458 0.18759 0.35717 0.0
Co330 Co 0.19715 0.46765 0.70938 0.0
C331 C 0.11274 0.4159 0.72896 0.0
C332 C 0.12453 0.45935 0.66676 0.0
C333 C 0.0851 0.43815 0.67499 0.0
N334 N 0.14182 0.44547 0.70068 0.0
N335 N 0.07779 0.41114 0.71445 0.0
H336 H 0.117 0.39873 0.76023 0.0
H337 H 0.13969 0.4841 0.63936 0.0
C338 C 0.22074 0.54638 0.76244 0.0
O339 O 0.24399 0.54336 0.79861 0.0
N340 N 0.25313 0.49025 0.7172 0.0
C341 C 0.27217 0.4721 0.73523 0.0
C342 C 0.31082 0.49885 0.7415 0.0
C343 C 0.28122 0.52748 0.709 0.0
N344 N 0.3163 0.53354 0.72528 0.0
C345 C 0.19462 0.41854 0.79931 0.0
C346 C 0.18399 0.45874 0.88512 0.0
C347 C 0.19573 0.43178 0.89827 0.0
C348 C 0.1985 0.40975 0.85467 0.0
C349 C 0.1802 0.4664 0.82896 0.0
N350 N 0.18969 0.44931 0.78695 0.0
H351 H 0.1975 0.40166 0.76627 0.0
H352 H 0.17069 0.48684 0.81973 0.0
H353 H 0.25937 0.44157 0.74364 0.0
H354 H 0.27604 0.55013 0.69389 0.0
O355 O 0.19474 0.42331 0.67072 0.0
O356 O 0.20344 0.47729 0.63036 0.0
O357 O 0.20016 0.51848 0.729 0.0
C358 C 0.19969 0.44315 0.62504 0.0
H359 H 0.06359 0.4435 0.65565 0.0
H360 H 0.33317 0.49344 0.75743 0.0
H361 H 0.17952 0.47508 0.91767 0.0
H362 H 0.20491 0.38678 0.86311 0.0
Co363 Co 0.73097 0.19875 0.20549 0.0
C364 C 0.69533 0.11314 0.22494 0.0
C365 C 0.67177 0.12667 0.15326 0.0
C366 C 0.65364 0.08705 0.15846 0.0
N367 N 0.69786 0.14317 0.19501 0.0
N368 N 0.66859 0.07855 0.20332 0.0
H369 H 0.71194 0.11612 0.26221 0.0
H370 H 0.66542 0.14239 0.12204 0.0
C371 C 0.65056 0.17984 0.23879 0.0
O372 O 0.64334 0.14618 0.25879 0.0
N373 N 0.76454 0.25399 0.2153 0.0
C374 C 0.80349 0.27227 0.22093 0.0
C375 C 0.81713 0.31101 0.23065 0.0
C376 C 0.75487 0.28172 0.22294 0.0
N377 N 0.7865 0.31658 0.23239 0.0
C378 C 0.76717 0.18409 0.29949 0.0
C379 C 0.73513 0.20921 0.38056 0.0
C380 C 0.76334 0.19996 0.39641 0.0
C381 C 0.77957 0.18728 0.35527 0.0
C382 C 0.72421 0.20641 0.32461 0.0
N383 N 0.73949 0.19325 0.28467 0.0
H384 H 0.78065 0.17532 0.26787 0.0
H385 H 0.70528 0.21741 0.31379 0.0
H386 H 0.82087 0.25835 0.21918 0.0
H387 H 0.72556 0.27677 0.22188 0.0
O388 O 0.77376 0.19545 0.1708 0.0
O389 O 0.73076 0.20562 0.12614 0.0
O390 O 0.68404 0.2043 0.22015 0.0
C391 C 0.76087 0.2013 0.12369 0.0
H392 H 0.62996 0.06618 0.13277 0.0
H393 H 0.84706 0.3333 0.23691 0.0
H394 H 0.72297 0.22045 0.4109 0.0
H395 H 0.80196 0.18047 0.36598 0.0
C396 C 0.38051 0.37659 0.20877 0.0
C397 C 0.39646 0.35811 0.24043 0.0
C398 C 0.36053 0.39314 0.23458 0.0
C399 C 0.35637 0.3924 0.2931 0.0
H400 H 0.38428 0.37894 0.16377 0.0
H401 H 0.34982 0.40817 0.20881 0.0
S402 S 0.39089 0.34579 0.39465 0.0
N403 N 0.40526 0.3386 0.33318 0.0
N404 N 0.36776 0.36978 0.38169 0.0
C405 C 0.37102 0.37289 0.32507 0.0
C406 C 0.39098 0.35565 0.29874 0.0
C407 C 0.96995 0.35082 0.73298 0.0
C408 C 0.96595 0.34867 0.79155 0.0
C409 C 0.00674 0.36982 0.70796 0.0
C410 C 0.04076 0.38682 0.74058 0.0
H411 H 0.94452 0.33967 0.70646 0.0
H412 H 0.00866 0.37234 0.66279 0.0
S413 S 0.04571 0.38581 0.89565 0.0
N414 N 0.99882 0.36237 0.88138 0.0
N415 N 0.06796 0.39827 0.8345 0.0
C416 C 0.03709 0.38294 0.79911 0.0
C417 C 0.99966 0.36387 0.82454 0.0
C418 C 0.64969 0.03538 0.28555 0.0
C419 C 0.65457 0.04062 0.22731 0.0
C420 C 0.63086 0.99813 0.30905 0.0
C421 C 0.61655 0.96473 0.2753 0.0
H422 H 0.65872 0.06014 0.31291 0.0
H423 H 0.62638 0.99533 0.3539 0.0
S424 S 0.62555 0.96297 0.12087 0.0
N425 N 0.64667 0.00953 0.13682 0.0
N426 N 0.61066 0.9395 0.18086 0.0
C427 C 0.62311 0.96965 0.21727 0.0
C428 C 0.64219 0.00759 0.19333 0.0
C429 C 0.64223 0.63941 0.80665 0.0
C430 C 0.65782 0.62052 0.77507 0.0
C431 C 0.62339 0.65711 0.78067 0.0
C432 C 0.61891 0.65601 0.72217 0.0
H433 H 0.64365 0.63943 0.85193 0.0
H434 H 0.61039 0.66988 0.80665 0.0
S435 S 0.65672 0.61271 0.62021 0.0
N436 N 0.66928 0.6037 0.6819 0.0
N437 N 0.63393 0.63702 0.63319 0.0
C438 C 0.63584 0.63877 0.68999 0.0
C439 C 0.65534 0.62107 0.71638 0.0
C440 C 0.02859 0.66774 0.2677 0.0
C441 C 0.04468 0.64591 0.2891 0.0
C442 C 0.9919 0.6494 0.24165 0.0
C443 C 0.97082 0.60887 0.23519 0.0
H444 H 0.04425 0.69901 0.27193 0.0
H445 H 0.98019 0.6669 0.22559 0.0
S446 S 1.00071 0.53902 0.28278 0.0
N447 N 0.03697 0.58184 0.30137 0.0
N448 N 0.96852 0.54763 0.25225 0.0
C449 C 0.98681 0.58693 0.25609 0.0
C450 C 0.02365 0.6054 0.28306 0.0
C451 C 0.34958 0.97305 0.79301 0.0
C452 C 0.34842 0.9683 0.73459 0.0
C453 C 0.3679 0.01019 0.81717 0.0
C454 C 0.3852 0.04385 0.7838 0.0
H455 H 0.33832 0.94797 0.82018 0.0
H456 H 0.36978 0.01268 0.86235 0.0
S457 S 0.38632 0.04675 0.62854 0.0
N458 N 0.36309 1.00005 0.64391 0.0
N459 N 0.39769 0.0698 0.68918 0.0
C460 C 0.38211 0.03939 0.7253 0.0
C461 C 0.36372 1.00161 0.70075 0.0
C462 C 0.18371 0.42601 1.00211 0.0
C463 C 0.20708 0.42827 0.95646 0.0
C464 C 0.19547 0.4256 0.05741 0.0
C465 C 0.23121 0.42778 0.06927 0.0
H466 H 0.15632 0.425 0.99505 0.0
H467 H 0.17699 0.4249 0.09122 0.0
S468 S 0.30256 0.43293 0.96479 0.0
N469 N 0.26746 0.43216 0.9269 0.0
N470 N 0.28903 0.43054 0.03069 0.0
C471 C 0.25441 0.42911 0.02402 0.0
C472 C 0.24245 0.42949 0.96772 0.0
C473 C 0.81538 0.23439 0.46846 0.0
C474 C 0.77695 0.20622 0.4553 0.0
C475 C 0.82703 0.24512 0.52435 0.0
C476 C 0.80078 0.22752 0.56883 0.0
H477 H 0.83606 0.24939 0.43525 0.0
H478 H 0.85654 0.26773 0.5328 0.0
S479 S 0.69726 0.15138 0.55617 0.0
N480 N 0.71308 0.16039 0.49096 0.0
N481 N 0.73486 0.18011 0.59573 0.0
C482 C 0.76264 0.19845 0.55607 0.0
C483 C 0.75076 0.18793 0.49938 0.0
C484 C 0.53848 0.77313 0.02747 0.0
C485 C 0.57318 0.79921 0.05483 0.0
C486 C 0.53868 0.7606 0.97273 0.0
C487 C 0.57357 0.77402 0.94302 0.0
H488 H 0.51091 0.76199 0.0488 0.0
H489 H 0.5112 0.7409 0.95303 0.0
S490 S 0.67232 0.84239 0.99582 0.0
N491 N 0.64339 0.8378 0.04846 0.0
N492 N 0.64377 0.81452 0.94504 0.0
C493 C 0.60851 0.80005 0.96985 0.0
C494 C 0.60833 0.8125 0.02594 0.0
C495 C 0.77554 0.58085 0.46298 0.0
C496 C 0.81036 0.58116 0.45077 0.0
C497 C 0.76356 0.58045 0.51834 0.0
C498 C 0.78572 0.58005 0.56402 0.0
H499 H 0.75662 0.57965 0.42946 0.0
H500 H 0.73642 0.57995 0.52529 0.0
S501 S 0.88023 0.58246 0.55503 0.0
N502 N 0.8682 0.58375 0.48927 0.0
N503 N 0.84462 0.58039 0.59303 0.0
C504 C 0.82104 0.58115 0.55244 0.0
C505 C 0.83354 0.58223 0.49602 0.0
C506 C 0.2062 0.76367 0.9731 0.0
C507 C 0.2332 0.80237 0.95927 0.0
C508 C 0.19633 0.75207 0.02886 0.0
C509 C 0.21267 0.77878 0.07306 0.0
H510 H 0.19353 0.74181 0.9406 0.0
H511 H 0.17631 0.72176 0.0376 0.0
S512 S 0.28343 0.88381 0.05955 0.0
N513 N 0.27507 0.86769 0.99436 0.0
N514 N 0.25641 0.84582 0.09949 0.0
C515 C 0.23881 0.81779 0.05993 0.0
C516 C 0.2492 0.82957 1.003 0.0
C517 C 0.47377 0.23183 0.53281 0.0
C518 C 0.43838 0.20818 0.56033 0.0
C519 C 0.47468 0.24449 0.47777 0.0
C520 C 0.44025 0.23362 0.44795 0.0
H521 H 0.50101 0.24125 0.55438 0.0
H522 H 0.5026 0.26248 0.4581 0.0
S523 S 0.34008 0.17176 0.50083 0.0
N524 N 0.36805 0.17418 0.55362 0.0
N525 N 0.36977 0.19787 0.44995 0.0
C526 C 0.40465 0.20978 0.47482 0.0
C527 C 0.40372 0.19716 0.53108 0.0
C528 C 0.82483 0.57139 0.01605 0.0
C529 C 0.80454 0.57456 0.06207 0.0
C530 C 0.81306 0.57242 0.96099 0.0
C531 C 0.78005 0.57561 0.95052 0.0
H532 H 0.84854 0.56579 0.02273 0.0
H533 H 0.82785 0.56736 0.92673 0.0
S534 S 0.71821 0.58666 0.05629 0.0
N535 N 0.75167 0.58371 0.09355 0.0
N536 N 0.72845 0.5839 0.98997 0.0
C537 C 0.76074 0.58077 0.99599 0.0
C538 C 0.77334 0.58076 0.05196 0.0
C539 C 0.1963 0.76872 0.55898 0.0
C540 C 0.23009 0.80391 0.57082 0.0
C541 C 0.18531 0.75678 0.50345 0.0
C542 C 0.20727 0.78008 0.45827 0.0
H543 H 0.18047 0.74865 0.59249 0.0
H544 H 0.16126 0.72783 0.4958 0.0
S545 S 0.29516 0.87708 0.46796 0.0
N546 N 0.28341 0.86344 0.53375 0.0
N547 N 0.26176 0.84171 0.42926 0.0
C548 C 0.23883 0.81698 0.46978 0.0
C549 C 0.25057 0.8287 0.52628 0.0
C550 C 0.4214 0.1862 0.99298 0.0
C551 C 0.42605 0.21056 0.94749 0.0
C552 C 0.4211 0.19815 0.0482 0.0
C553 C 0.42671 0.23528 0.0593 0.0
H554 H 0.421 0.15908 0.98604 0.0
H555 H 0.42061 0.17993 0.08224 0.0
S556 S 0.4366 0.30828 0.95464 0.0
N557 N 0.43232 0.27155 0.91686 0.0
N558 N 0.43367 0.29482 0.02073 0.0
C559 C 0.42848 0.2586 0.01409 0.0
C560 C 0.4277 0.24601 0.95797 0.0
C561 C 0.19266 0.4322 0.46861 0.0
C562 C 0.22288 0.42486 0.4563 0.0
C563 C 0.18289 0.43471 0.52421 0.0
C564 C 0.20261 0.42931 0.5691 0.0
H565 H 0.17905 0.43971 0.43532 0.0
H566 H 0.16156 0.44351 0.53218 0.0
S567 S 0.28159 0.40607 0.55849 0.0
N568 N 0.27085 0.40992 0.4928 0.0
N569 N 0.25146 0.41324 0.5976 0.0
C570 C 0.23057 0.41869 0.55726 0.0
C571 C 0.24105 0.4169 0.5006 0.0
C572 C 0.76952 0.19329 0.96889 0.0
C573 C 0.80183 0.22954 0.95661 0.0
C574 C 0.75852 0.18198 0.02465 0.0
C575 C 0.78014 0.20611 0.06947 0.0
H576 H 0.75062 0.17534 0.93549 0.0
H577 H 0.73132 0.15563 0.0327 0.0
S578 S 0.86967 0.30166 0.05873 0.0
N579 N 0.85705 0.288 0.9931 0.0
N580 N 0.83714 0.26599 0.09782 0.0
C581 C 0.81445 0.24068 0.05755 0.0
C582 C 0.8251 0.25262 1.00095 0.0
C583 C 0.57913 0.81134 0.5425 0.0
C584 C 0.57555 0.77507 0.55382 0.0
C585 C 0.57837 0.82281 0.48715 0.0
C586 C 0.57521 0.79883 0.44183 0.0
H587 H 0.57879 0.82922 0.57649 0.0
H588 H 0.57766 0.84934 0.4799 0.0
S589 S 0.56877 0.70291 0.4497 0.0
N590 N 0.57112 0.71642 0.51569 0.0
N591 N 0.57146 0.73883 0.41163 0.0
C592 C 0.57495 0.76409 0.4526 0.0
C593 C 0.57467 0.75196 0.5088 0.0
C594 C 0.23186 0.59041 0.2958 0.0
C595 C 0.20129 0.55336 0.31031 0.0
C596 C 0.22553 0.62195 0.28939 0.0
C597 C 0.1883 0.61727 0.29633 0.0
H598 H 0.26052 0.59476 0.28757 0.0
H599 H 0.24965 0.64988 0.27744 0.0
S600 S 0.10005 0.5281 0.34291 0.0
N601 N 0.13363 0.51539 0.33847 0.0
N602 N 0.12154 0.57408 0.32393 0.0
C603 C 0.15793 0.58088 0.31286 0.0
C604 C 0.16448 0.54909 0.32052 0.0
C605 C 0.61781 0.19006 0.80179 0.0
C606 C 0.65393 0.22385 0.79314 0.0
C607 C 0.58281 0.18937 0.79098 0.0
C608 C 0.58251 0.22226 0.77023 0.0
H609 H 0.61653 0.16389 0.81727 0.0
H610 H 0.55576 0.16276 0.79851 0.0
S611 S 0.66834 0.31887 0.7447 0.0
N612 N 0.6867 0.29171 0.76491 0.0
N613 N 0.62088 0.29019 0.74523 0.0
C614 C 0.61816 0.25639 0.76242 0.0
C615 C 0.65386 0.2573 0.77386 0.0
C616 C 0.40377 0.65198 0.26403 0.0
C617 C 0.4352 0.65251 0.29184 0.0
C618 C 0.36831 0.61737 0.25739 0.0
C619 C 0.36294 0.582 0.27856 0.0
H620 H 0.40696 0.67839 0.24615 0.0
H621 H 0.3449 0.61848 0.23589 0.0
S622 S 0.43679 0.56834 0.35501 0.0
N623 N 0.45893 0.61519 0.34094 0.0
N624 N 0.39279 0.55002 0.32838 0.0
C625 C 0.39442 0.58232 0.30646 0.0
C626 C 0.43042 0.61755 0.31302 0.0
C627 C 0.80546 0.3908 0.81545 0.0
C628 C 0.78854 0.36792 0.76717 0.0
C629 C 0.80457 0.42512 0.82482 0.0
C630 C 0.78627 0.43755 0.78683 0.0
H631 H 0.8193 0.38208 0.84676 0.0
H632 H 0.81799 0.44198 0.86219 0.0
S633 S 0.74105 0.39145 0.6518 0.0
N634 N 0.75557 0.36256 0.67878 0.0
N635 N 0.75311 0.42664 0.6979 0.0
C636 C 0.76987 0.41574 0.73812 0.0
C637 C 0.77124 0.38105 0.7279 0.0
C638 C 0.35748 0.75085 0.28813 0.0
C639 C 0.35364 0.78325 0.27443 0.0
C640 C 0.39155 0.75012 0.27619 0.0
C641 C 0.42313 0.78179 0.25049 0.0
H642 H 0.33457 0.72636 0.31009 0.0
H643 H 0.39376 0.72529 0.28947 0.0
S644 S 0.42758 0.87194 0.2009 0.0
N645 N 0.38386 0.84642 0.22843 0.0
N646 N 0.44857 0.84545 0.20912 0.0
C647 C 0.41969 0.81387 0.23516 0.0
C648 C 0.38476 0.81449 0.2463 0.0
C649 C 0.61629 0.42176 0.81072 0.0
C650 C 0.63915 0.42629 0.76296 0.0
C651 C 0.58176 0.38705 0.82114 0.0
C652 C 0.56894 0.35552 0.78454 0.0
H653 H 0.62524 0.44505 0.84087 0.0
H654 H 0.56505 0.38462 0.85824 0.0
S655 S 0.61472 0.3528 0.65102 0.0
N656 N 0.64439 0.39631 0.67688 0.0
N657 N 0.57912 0.33129 0.69686 0.0
C658 C 0.59057 0.35963 0.73612 0.0
C659 C 0.62578 0.39496 0.72525 0.0
C660 C 0.39942 0.81932 0.71872 0.0
C661 C 0.37212 0.79335 0.75757 0.0
C662 C 0.4329 0.81778 0.70517 0.0
C663 C 0.44022 0.78991 0.72931 0.0
H664 H 0.39476 0.84087 0.69798 0.0
H665 H 0.45283 0.83804 0.67468 0.0
S666 S 0.37987 0.71698 0.83611 0.0
N667 N 0.35606 0.74012 0.82211 0.0
N668 N 0.41895 0.7373 0.79631 0.0
C669 C 0.4138 0.76435 0.7691 0.0
C670 C 0.37984 0.76614 0.78343 0.0
C671 C 0.58916 0.39895 0.21939 0.0
C672 C 0.58835 0.36645 0.24421 0.0
C673 C 0.62426 0.43349 0.21055 0.0
C674 C 0.66001 0.43671 0.22518 0.0
H675 H 0.5624 0.39779 0.20697 0.0
H676 H 0.62345 0.45781 0.1917 0.0
S677 S 0.67371 0.35952 0.2895 0.0
N678 N 0.62633 0.33944 0.28215 0.0
N679 N 0.69228 0.40414 0.26539 0.0
C680 C 0.6596 0.40426 0.24942 0.0
C681 C 0.62379 0.36927 0.25911 0.0
C682 C 0.20048 0.58798 0.71015 0.0
C683 C 0.22047 0.58345 0.75579 0.0
C684 C 0.20125 0.6231 0.70044 0.0
C685 C 0.22236 0.65519 0.73548 0.0
H686 H 0.18436 0.56437 0.68107 0.0
H687 H 0.18569 0.62543 0.6648 0.0
S688 S 0.27557 0.65787 0.86417 0.0
N689 N 0.25938 0.61376 0.83897 0.0
N690 N 0.26093 0.67982 0.81991 0.0
C691 C 0.24168 0.65108 0.78186 0.0
C692 C 0.24068 0.6152 0.79223 0.0
C693 C 0.56177 0.17754 0.17862 0.0
C694 C 0.55829 0.20504 0.21138 0.0
C695 C 0.59156 0.16916 0.18841 0.0
C696 C 0.61871 0.18795 0.23136 0.0
H697 H 0.5413 0.16252 0.14514 0.0
H698 H 0.59361 0.14812 0.16193 0.0
S699 S 0.61978 0.25858 0.333 0.0
N700 N 0.58269 0.24853 0.29139 0.0
N701 N 0.63934 0.23332 0.30882 0.0
C702 C 0.61542 0.21506 0.26484 0.0
C703 C 0.58499 0.2235 0.25509 0.0
C704 C 0.40445 0.61581 0.79202 0.0
C705 C 0.4233 0.63999 0.7461 0.0
C706 C 0.36924 0.58103 0.78491 0.0
C707 C 0.35133 0.57001 0.73207 0.0
H708 H 0.41752 0.62324 0.83326 0.0
H709 H 0.35584 0.5625 0.82084 0.0
S710 S 0.38718 0.62441 0.59959 0.0
N711 N 0.42056 0.65118 0.64634 0.0
N712 N 0.35374 0.58636 0.63398 0.0
C713 C 0.36904 0.59453 0.6864 0.0
C714 C 0.40526 0.6294 0.69317 0.0
C715 C 0.80548 0.38212 0.20077 0.0
C716 C 0.78793 0.35284 0.24096 0.0
C717 C 0.80767 0.418 0.20842 0.0
C718 C 0.79276 0.42606 0.25704 0.0
H719 H 0.81713 0.37691 0.16286 0.0
H720 H 0.82072 0.43933 0.1754 0.0
S721 S 0.74837 0.35959 0.3779 0.0
N722 N 0.75782 0.33416 0.3323 0.0
N723 N 0.7629 0.40222 0.34832 0.0
C724 C 0.7764 0.39718 0.29862 0.0
C725 C 0.77368 0.36036 0.29014 0.0
loop_
_geom_bond_atom_site_label_1
_geom_bond_atom_site_label_2
_geom_bond_distance
_geom_bond_site_symmetry_2
_ccdc_geom_bond_type
Co0 N4 2.148 . S
Co0 N10 2.128 . S
Co0 N20 2.194 . S
Co0 O25 2.351 . S
Co0 O26 2.155 . S
Co0 O27 2.096 . S
C1 N4 1.301 . S
C1 N5 1.328 . S
C1 H6 0.930 . S
C2 C3 1.333 . S
C2 N4 1.317 . S
C2 H7 0.930 . S
C3 C2 1.333 . S
C3 N5 1.350 . S
C3 H29 0.931 . S
N4 Co0 2.148 . S
N4 C1 1.301 . S
N4 C2 1.317 . S
N5 C1 1.328 . S
N5 C3 1.350 . S
H6 C1 0.930 . S
H7 C2 0.930 . S
C8 O9 1.224 . S
C8 O27 1.247 . S
O9 C8 1.224 . S
N10 Co0 2.128 . S
N10 C11 1.355 . S
N10 C13 1.311 . S
C11 N10 1.355 . S
C11 C12 1.363 . S
C11 H23 0.929 . S
C12 C11 1.363 . S
C12 N14 1.375 . S
C12 H30 0.931 . S
C13 N10 1.311 . S
C13 N14 1.347 . S
C13 H24 0.929 . S
N14 C12 1.375 . S
N14 C13 1.347 . S
C15 C18 1.365 . S
C15 N20 1.328 . S
C15 H21 0.929 . S
C16 C17 1.362 . S
C16 C19 1.378 . S
C16 H31 0.929 . S
C17 C16 1.362 . S
C17 C18 1.366 . S
C18 C15 1.365 . S
C18 C17 1.366 . S
C18 H32 0.930 . S
C19 C16 1.378 . S
C19 N20 1.315 . S
C19 H22 0.930 . S
N20 Co0 2.194 . S
N20 C15 1.328 . S
N20 C19 1.315 . S
H21 C15 0.929 . S
H22 C19 0.930 . S
H23 C11 0.929 . S
H24 C13 0.929 . S
O25 Co0 2.351 . S
O25 C28 1.244 . S
O26 Co0 2.155 . S
O26 C28 1.240 . S
O27 Co0 2.096 . S
O27 C8 1.247 . S
C28 O25 1.244 . S
C28 O26 1.240 . S
H29 C3 0.931 . S
H30 C12 0.931 . S
H31 C16 0.929 . S
H32 C18 0.930 . S
Co33 N37 2.148 . S
Co33 N43 2.128 . S
Co33 N53 2.194 . S
Co33 O58 2.351 . S
Co33 O59 2.155 . S
Co33 O60 2.096 . S
C34 N37 1.301 . S
C34 N38 1.328 . S
C34 H39 0.930 . S
C35 C36 1.333 . S
C35 N37 1.317 . S
C35 H40 0.930 . S
C36 C35 1.333 . S
C36 N38 1.350 . S
C36 H62 0.931 . S
N37 Co33 2.148 . S
N37 C34 1.301 . S
N37 C35 1.317 . S
N38 C34 1.328 . S
N38 C36 1.350 . S
H39 C34 0.930 . S
H40 C35 0.930 . S
C41 O42 1.224 . S
C41 O60 1.247 . S
O42 C41 1.224 . S
N43 Co33 2.128 . S
N43 C44 1.355 . S
N43 C46 1.311 . S
C44 N43 1.355 . S
C44 C45 1.363 . S
C44 H56 0.929 . S
C45 C44 1.363 . S
C45 N47 1.375 . S
C45 H63 0.931 . S
C46 N43 1.311 . S
C46 N47 1.347 . S
C46 H57 0.929 . S
N47 C45 1.375 . S
N47 C46 1.347 . S
C48 C51 1.365 . S
C48 N53 1.328 . S
C48 H54 0.929 . S
C49 C50 1.362 . S
C49 C52 1.378 . S
C49 H64 0.929 . S
C50 C49 1.362 . S
C50 C51 1.366 . S
C51 C48 1.365 . S
C51 C50 1.366 . S
C51 H65 0.930 . S
C52 C49 1.378 . S
C52 N53 1.315 . S
C52 H55 0.930 . S
N53 Co33 2.194 . S
N53 C48 1.328 . S
N53 C52 1.315 . S
H54 C48 0.929 . S
H55 C52 0.930 . S
H56 C44 0.929 . S
H57 C46 0.929 . S
O58 Co33 2.351 . S
O58 C61 1.244 . S
O59 Co33 2.155 . S
O59 C61 1.240 . S
O60 Co33 2.096 . S
O60 C41 1.247 . S
C61 O58 1.244 . S
C61 O59 1.240 . S
H62 C36 0.931 . S
H63 C45 0.931 . S
H64 C49 0.929 . S
H65 C51 0.930 . S
Co66 N70 2.148 . S
Co66 N76 2.128 . S
Co66 N86 2.194 . S
Co66 O91 2.351 . S
Co66 O92 2.155 . S
Co66 O93 2.096 . S
C67 N70 1.301 . S
C67 N71 1.328 . S
C67 H72 0.930 . S
C68 C69 1.333 . S
C68 N70 1.317 . S
C68 H73 0.930 . S
C69 C68 1.333 . S
C69 N71 1.350 . S
C69 H95 0.931 . S
N70 Co66 2.148 . S
N70 C67 1.301 . S
N70 C68 1.317 . S
N71 C67 1.328 . S
N71 C69 1.350 . S
H72 C67 0.930 . S
H73 C68 0.930 . S
C74 O75 1.224 . S
C74 O93 1.247 . S
O75 C74 1.224 . S
N76 Co66 2.128 . S
N76 C77 1.355 . S
N76 C79 1.311 . S
C77 N76 1.355 . S
C77 C78 1.363 . S
C77 H89 0.929 . S
C78 C77 1.363 . S
C78 N80 1.375 . S
C78 H96 0.931 . S
C79 N76 1.311 . S
C79 N80 1.347 . S
C79 H90 0.929 . S
N80 C78 1.375 . S
N80 C79 1.347 . S
C81 C84 1.365 . S
C81 N86 1.328 . S
C81 H87 0.929 . S
C82 C83 1.362 . S
C82 C85 1.378 . S
C82 H97 0.929 . S
C83 C82 1.362 . S
C83 C84 1.366 . S
C84 C81 1.365 . S
C84 C83 1.366 . S
C84 H98 0.930 . S
C85 C82 1.378 . S
C85 N86 1.315 . S
C85 H88 0.930 . S
N86 Co66 2.194 . S
N86 C81 1.328 . S
N86 C85 1.315 . S
H87 C81 0.929 . S
H88 C85 0.930 . S
H89 C77 0.929 . S
H90 C79 0.929 . S
O91 Co66 2.351 . S
O91 C94 1.244 . S
O92 Co66 2.155 . S
O92 C94 1.240 . S
O93 Co66 2.096 . S
O93 C74 1.247 . S
C94 O91 1.244 . S
C94 O92 1.240 . S
H95 C69 0.931 . S
H96 C78 0.931 . S
H97 C82 0.929 . S
H98 C84 0.930 . S
Co99 N103 2.148 . S
Co99 N109 2.128 . S
Co99 N119 2.194 . S
Co99 O124 2.351 . S
Co99 O125 2.155 . S
Co99 O126 2.096 . S
C100 N103 1.301 . S
C100 N104 1.328 . S
C100 H105 0.930 . S
C101 C102 1.333 . S
C101 N103 1.317 . S
C101 H106 0.930 . S
C102 C101 1.333 . S
C102 N104 1.350 . S
C102 H128 0.931 . S
N103 Co99 2.148 . S
N103 C100 1.301 . S
N103 C101 1.317 . S
N104 C100 1.328 . S
N104 C102 1.350 . S
H105 C100 0.930 . S
H106 C101 0.930 . S
C107 O108 1.224 . S
C107 O126 1.247 . S
O108 C107 1.224 . S
N109 Co99 2.128 . S
N109 C110 1.355 . S
N109 C112 1.311 . S
C110 N109 1.355 . S
C110 C111 1.363 . S
C110 H122 0.929 . S
C111 C110 1.363 . S
C111 N113 1.375 . S
C111 H129 0.931 . S
C112 N109 1.311 . S
C112 N113 1.347 . S
C112 H123 0.929 . S
N113 C111 1.375 . S
N113 C112 1.347 . S
C114 C117 1.365 . S
C114 N119 1.328 . S
C114 H120 0.929 . S
C115 C116 1.362 . S
C115 C118 1.378 . S
C115 H130 0.929 . S
C116 C115 1.362 . S
C116 C117 1.366 . S
C117 C114 1.365 . S
C117 C116 1.366 . S
C117 H131 0.930 . S
C118 C115 1.378 . S
C118 N119 1.315 . S
C118 H121 0.930 . S
N119 Co99 2.194 . S
N119 C114 1.328 . S
N119 C118 1.315 . S
H120 C114 0.929 . S
H121 C118 0.930 . S
H122 C110 0.929 . S
H123 C112 0.929 . S
O124 Co99 2.351 . S
O124 C127 1.244 . S
O125 Co99 2.155 . S
O125 C127 1.240 . S
O126 Co99 2.096 . S
O126 C107 1.247 . S
C127 O124 1.244 . S
C127 O125 1.240 . S
H128 C102 0.931 . S
H129 C111 0.931 . S
H130 C115 0.929 . S
H131 C117 0.930 . S
Co132 N136 2.148 . S
Co132 N142 2.128 . S
Co132 N152 2.194 . S
Co132 O157 2.351 . S
Co132 O158 2.155 . S
Co132 O159 2.096 . S
C133 N136 1.301 . S
C133 N137 1.328 . S
C133 H138 0.930 . S
C134 C135 1.333 . S
C134 N136 1.317 . S
C134 H139 0.930 . S
C135 C134 1.333 . S
C135 N137 1.350 . S
C135 H161 0.931 . S
N136 Co132 2.148 . S
N136 C133 1.301 . S
N136 C134 1.317 . S
N137 C133 1.328 . S
N137 C135 1.350 . S
H138 C133 0.930 . S
H139 C134 0.930 . S
C140 O141 1.224 . S
C140 O159 1.247 . S
O141 C140 1.224 . S
N142 Co132 2.128 . S
N142 C143 1.355 . S
N142 C145 1.311 . S
C143 N142 1.355 . S
C143 C144 1.363 . S
C143 H155 0.929 . S
C144 C143 1.363 . S
C144 N146 1.375 . S
C144 H162 0.931 . S
C145 N142 1.311 . S
C145 N146 1.347 . S
C145 H156 0.929 . S
N146 C144 1.375 . S
N146 C145 1.347 . S
C147 C150 1.365 . S
C147 N152 1.328 . S
C147 H153 0.929 . S
C148 C149 1.362 . S
C148 C151 1.378 . S
C148 H163 0.929 . S
C149 C148 1.362 . S
C149 C150 1.366 . S
C150 C147 1.365 . S
C150 C149 1.366 . S
C150 H164 0.930 . S
C151 C148 1.378 . S
C151 N152 1.315 . S
C151 H154 0.930 . S
N152 Co132 2.194 . S
N152 C147 1.328 . S
N152 C151 1.315 . S
H153 C147 0.929 . S
H154 C151 0.930 . S
H155 C143 0.929 . S
H156 C145 0.929 . S
O157 Co132 2.351 . S
O157 C160 1.244 . S
O158 Co132 2.155 . S
O158 C160 1.240 . S
O159 Co132 2.096 . S
O159 C140 1.247 . S
C160 O157 1.244 . S
C160 O158 1.240 . S
H161 C135 0.931 . S
H162 C144 0.931 . S
H163 C148 0.929 . S
H164 C150 0.930 . S
Co165 N169 2.148 . S
Co165 N175 2.128 . S
Co165 N185 2.194 . S
Co165 O190 2.351 . S
Co165 O191 2.155 . S
Co165 O192 2.096 . S
C166 N169 1.301 . S
C166 N170 1.328 . S
C166 H171 0.930 . S
C167 C168 1.333 . S
C167 N169 1.317 . S
C167 H172 0.930 . S
C168 C167 1.333 . S
C168 N170 1.350 . S
C168 H194 0.931 . S
N169 Co165 2.148 . S
N169 C166 1.301 . S
N169 C167 1.317 . S
N170 C166 1.328 . S
N170 C168 1.350 . S
H171 C166 0.930 . S
H172 C167 0.930 . S
C173 O174 1.224 . S
C173 O192 1.247 . S
O174 C173 1.224 . S
N175 Co165 2.128 . S
N175 C176 1.355 . S
N175 C178 1.311 . S
C176 N175 1.355 . S
C176 C177 1.363 . S
C176 H188 0.929 . S
C177 C176 1.363 . S
C177 N179 1.375 . S
C177 H195 0.931 . S
C178 N175 1.311 . S
C178 N179 1.347 . S
C178 H189 0.929 . S
N179 C177 1.375 . S
N179 C178 1.347 . S
C180 C183 1.365 . S
C180 N185 1.328 . S
C180 H186 0.929 . S
C181 C182 1.362 . S
C181 C184 1.378 . S
C181 H196 0.929 . S
C182 C181 1.362 . S
C182 C183 1.366 . S
C183 C180 1.365 . S
C183 C182 1.366 . S
C183 H197 0.930 . S
C184 C181 1.378 . S
C184 N185 1.315 . S
C184 H187 0.930 . S
N185 Co165 2.194 . S
N185 C180 1.328 . S
N185 C184 1.315 . S
H186 C180 0.929 . S
H187 C184 0.930 . S
H188 C176 0.929 . S
H189 C178 0.929 . S
O190 Co165 2.351 . S
O190 C193 1.244 . S
O191 Co165 2.155 . S
O191 C193 1.240 . S
O192 Co165 2.096 . S
O192 C173 1.247 . S
C193 O190 1.244 . S
C193 O191 1.240 . S
H194 C168 0.931 . S
H195 C177 0.931 . S
H196 C181 0.929 . S
H197 C183 0.930 . S
Co198 N202 2.148 . S
Co198 N208 2.128 . S
Co198 N218 2.194 . S
Co198 O223 2.351 . S
Co198 O224 2.155 . S
Co198 O225 2.096 . S
C199 N202 1.301 . S
C199 N203 1.328 . S
C199 H204 0.930 . S
C200 C201 1.333 . S
C200 N202 1.317 . S
C200 H205 0.930 . S
C201 C200 1.333 . S
C201 N203 1.350 . S
C201 H227 0.931 . S
N202 Co198 2.148 . S
N202 C199 1.301 . S
N202 C200 1.317 . S
N203 C199 1.328 . S
N203 C201 1.350 . S
H204 C199 0.930 . S
H205 C200 0.930 . S
C206 O207 1.224 . S
C206 O225 1.247 . S
O207 C206 1.224 . S
N208 Co198 2.128 . S
N208 C209 1.355 . S
N208 C211 1.311 . S
C209 N208 1.355 . S
C209 C210 1.363 . S
C209 H221 0.929 . S
C210 C209 1.363 . S
C210 N212 1.375 . S
C210 H228 0.931 . S
C211 N208 1.311 . S
C211 N212 1.347 . S
C211 H222 0.929 . S
N212 C210 1.375 . S
N212 C211 1.347 . S
C213 C216 1.365 . S
C213 N218 1.328 . S
C213 H219 0.929 . S
C214 C215 1.362 . S
C214 C217 1.378 . S
C214 H229 0.929 . S
C215 C214 1.362 . S
C215 C216 1.366 . S
C216 C213 1.365 . S
C216 C215 1.366 . S
C216 H230 0.930 . S
C217 C214 1.378 . S
C217 N218 1.315 . S
C217 H220 0.930 . S
N218 Co198 2.194 . S
N218 C213 1.328 . S
N218 C217 1.315 . S
H219 C213 0.929 . S
H220 C217 0.930 . S
H221 C209 0.929 . S
H222 C211 0.929 . S
O223 Co198 2.351 . S
O223 C226 1.244 . S
O224 Co198 2.155 . S
O224 C226 1.240 . S
O225 Co198 2.096 . S
O225 C206 1.247 . S
C226 O223 1.244 . S
C226 O224 1.240 . S
H227 C201 0.931 . S
H228 C210 0.931 . S
H229 C214 0.929 . S
H230 C216 0.930 . S
Co231 N235 2.148 . S
Co231 N241 2.128 . S
Co231 N251 2.194 . S
Co231 O256 2.351 . S
Co231 O257 2.155 . S
Co231 O258 2.096 . S
C232 N235 1.301 . S
C232 N236 1.328 . S
C232 H237 0.930 . S
C233 C234 1.333 . S
C233 N235 1.317 . S
C233 H238 0.930 . S
C234 C233 1.333 . S
C234 N236 1.350 . S
C234 H260 0.931 . S
N235 Co231 2.148 . S
N235 C232 1.301 . S
N235 C233 1.317 . S
N236 C232 1.328 . S
N236 C234 1.350 . S
H237 C232 0.930 . S
H238 C233 0.930 . S
C239 O240 1.224 . S
C239 O258 1.247 . S
O240 C239 1.224 . S
N241 Co231 2.128 . S
N241 C242 1.355 . S
N241 C244 1.311 . S
C242 N241 1.355 . S
C242 C243 1.363 . S
C242 H254 0.929 . S
C243 C242 1.363 . S
C243 N245 1.375 . S
C243 H261 0.931 . S
C244 N241 1.311 . S
C244 N245 1.347 . S
C244 H255 0.929 . S
N245 C243 1.375 . S
N245 C244 1.347 . S
C246 C249 1.365 . S
C246 N251 1.328 . S
C246 H252 0.929 . S
C247 C248 1.362 . S
C247 C250 1.378 . S
C247 H262 0.929 . S
C248 C247 1.362 . S
C248 C249 1.366 . S
C249 C246 1.365 . S
C249 C248 1.366 . S
C249 H263 0.930 . S
C250 C247 1.378 . S
C250 N251 1.315 . S
C250 H253 0.930 . S
N251 Co231 2.194 . S
N251 C246 1.328 . S
N251 C250 1.315 . S
H252 C246 0.929 . S
H253 C250 0.930 . S
H254 C242 0.929 . S
H255 C244 0.929 . S
O256 Co231 2.351 . S
O256 C259 1.244 . S
O257 Co231 2.155 . S
O257 C259 1.240 . S
O258 Co231 2.096 . S
O258 C239 1.247 . S
C259 O256 1.244 . S
C259 O257 1.240 . S
H260 C234 0.931 . S
H261 C243 0.931 . S
H262 C247 0.929 . S
H263 C249 0.930 . S
Co264 N268 2.148 . S
Co264 N274 2.128 . S
Co264 N284 2.194 . S
Co264 O289 2.351 . S
Co264 O290 2.155 . S
Co264 O291 2.096 . S
C265 N268 1.301 . S
C265 N269 1.328 . S
C265 H270 0.930 . S
C266 C267 1.333 . S
C266 N268 1.317 . S
C266 H271 0.930 . S
C267 C266 1.333 . S
C267 N269 1.350 . S
C267 H293 0.931 . S
N268 Co264 2.148 . S
N268 C265 1.301 . S
N268 C266 1.317 . S
N269 C265 1.328 . S
N269 C267 1.350 . S
H270 C265 0.930 . S
H271 C266 0.930 . S
C272 O273 1.224 . S
C272 O291 1.247 . S
O273 C272 1.224 . S
N274 Co264 2.128 . S
N274 C275 1.355 . S
N274 C277 1.311 . S
C275 N274 1.355 . S
C275 C276 1.363 . S
C275 H287 0.929 . S
C276 C275 1.363 . S
C276 N278 1.375 . S
C276 H294 0.931 . S
C277 N274 1.311 . S
C277 N278 1.347 . S
C277 H288 0.929 . S
N278 C276 1.375 . S
N278 C277 1.347 . S
C279 C282 1.365 . S
C279 N284 1.328 . S
C279 H285 0.929 . S
C280 C281 1.362 . S
C280 C283 1.378 . S
C280 H295 0.929 . S
C281 C280 1.362 . S
C281 C282 1.366 . S
C282 C279 1.365 . S
C282 C281 1.366 . S
C282 H296 0.930 . S
C283 C280 1.378 . S
C283 N284 1.315 . S
C283 H286 0.930 . S
N284 Co264 2.194 . S
N284 C279 1.328 . S
N284 C283 1.315 . S
H285 C279 0.929 . S
H286 C283 0.930 . S
H287 C275 0.929 . S
H288 C277 0.929 . S
O289 Co264 2.351 . S
O289 C292 1.244 . S
O290 Co264 2.155 . S
O290 C292 1.240 . S
O291 Co264 2.096 . S
O291 C272 1.247 . S
C292 O289 1.244 . S
C292 O290 1.240 . S
H293 C267 0.931 . S
H294 C276 0.931 . S
H295 C280 0.929 . S
H296 C282 0.930 . S
Co297 N301 2.148 . S
Co297 N307 2.128 . S
Co297 N317 2.194 . S
Co297 O322 2.351 . S
Co297 O323 2.155 . S
Co297 O324 2.096 . S
C298 N301 1.301 . S
C298 N302 1.328 . S
C298 H303 0.930 . S
C299 C300 1.333 . S
C299 N301 1.317 . S
C299 H304 0.930 . S
C300 C299 1.333 . S
C300 N302 1.350 . S
C300 H326 0.931 . S
N301 Co297 2.148 . S
N301 C298 1.301 . S
N301 C299 1.317 . S
N302 C298 1.328 . S
N302 C300 1.350 . S
H303 C298 0.930 . S
H304 C299 0.930 . S
C305 O306 1.224 . S
C305 O324 1.247 . S
O306 C305 1.224 . S
N307 Co297 2.128 . S
N307 C308 1.355 . S
N307 C310 1.311 . S
C308 N307 1.355 . S
C308 C309 1.363 . S
C308 H320 0.929 . S
C309 C308 1.363 . S
C309 N311 1.375 . S
C309 H327 0.931 . S
C310 N307 1.311 . S
C310 N311 1.347 . S
C310 H321 0.929 . S
N311 C309 1.375 . S
N311 C310 1.347 . S
C312 C315 1.365 . S
C312 N317 1.328 . S
C312 H318 0.929 . S
C313 C314 1.362 . S
C313 C316 1.378 . S
C313 H328 0.929 . S
C314 C313 1.362 . S
C314 C315 1.366 . S
C315 C312 1.365 . S
C315 C314 1.366 . S
C315 H329 0.930 . S
C316 C313 1.378 . S
C316 N317 1.315 . S
C316 H319 0.930 . S
N317 Co297 2.194 . S
N317 C312 1.328 . S
N317 C316 1.315 . S
H318 C312 0.929 . S
H319 C316 0.930 . S
H320 C308 0.929 . S
H321 C310 0.929 . S
O322 Co297 2.351 . S
O322 C325 1.244 . S
O323 Co297 2.155 . S
O323 C325 1.240 . S
O324 Co297 2.096 . S
O324 C305 1.247 . S
C325 O322 1.244 . S
C325 O323 1.240 . S
H326 C300 0.931 . S
H327 C309 0.931 . S
H328 C313 0.929 . S
H329 C315 0.930 . S
Co330 N334 2.148 . S
Co330 N340 2.128 . S
Co330 N350 2.194 . S
Co330 O355 2.351 . S
Co330 O356 2.155 . S
Co330 O357 2.096 . S
C331 N334 1.301 . S
C331 N335 1.328 . S
C331 H336 0.930 . S
C332 C333 1.333 . S
C332 N334 1.317 . S
C332 H337 0.930 . S
C333 C332 1.333 . S
C333 N335 1.350 . S
C333 H359 0.931 . S
N334 Co330 2.148 . S
N334 C331 1.301 . S
N334 C332 1.317 . S
N335 C331 1.328 . S
N335 C333 1.350 . S
H336 C331 0.930 . S
H337 C332 0.930 . S
C338 O339 1.224 . S
C338 O357 1.247 . S
O339 C338 1.224 . S
N340 Co330 2.128 . S
N340 C341 1.355 . S
N340 C343 1.311 . S
C341 N340 1.355 . S
C341 C342 1.363 . S
C341 H353 0.929 . S
C342 C341 1.363 . S
C342 N344 1.375 . S
C342 H360 0.931 . S
C343 N340 1.311 . S
C343 N344 1.347 . S
C343 H354 0.929 . S
N344 C342 1.375 . S
N344 C343 1.347 . S
C345 C348 1.365 . S
C345 N350 1.328 . S
C345 H351 0.929 . S
C346 C347 1.362 . S
C346 C349 1.378 . S
C346 H361 0.929 . S
C347 C346 1.362 . S
C347 C348 1.366 . S
C348 C345 1.365 . S
C348 C347 1.366 . S
C348 H362 0.930 . S
C349 C346 1.378 . S
C349 N350 1.315 . S
C349 H352 0.930 . S
N350 Co330 2.194 . S
N350 C345 1.328 . S
N350 C349 1.315 . S
H351 C345 0.929 . S
H352 C349 0.930 . S
H353 C341 0.929 . S
H354 C343 0.929 . S
O355 Co330 2.351 . S
O355 C358 1.244 . S
O356 Co330 2.155 . S
O356 C358 1.240 . S
O357 Co330 2.096 . S
O357 C338 1.247 . S
C358 O355 1.244 . S
C358 O356 1.240 . S
H359 C333 0.931 . S
H360 C342 0.931 . S
H361 C346 0.929 . S
H362 C348 0.930 . S
Co363 N367 2.148 . S
Co363 N373 2.128 . S
Co363 N383 2.194 . S
Co363 O388 2.351 . S
Co363 O389 2.155 . S
Co363 O390 2.096 . S
C364 N367 1.301 . S
C364 N368 1.328 . S
C364 H369 0.930 . S
C365 C366 1.333 . S
C365 N367 1.317 . S
C365 H370 0.930 . S
C366 C365 1.333 . S
C366 N368 1.350 . S
C366 H392 0.931 . S
N367 Co363 2.148 . S
N367 C364 1.301 . S
N367 C365 1.317 . S
N368 C364 1.328 . S
N368 C366 1.350 . S
H369 C364 0.930 . S
H370 C365 0.930 . S
C371 O372 1.224 . S
C371 O390 1.247 . S
O372 C371 1.224 . S
N373 Co363 2.128 . S
N373 C374 1.355 . S
N373 C376 1.311 . S
C374 N373 1.355 . S
C374 C375 1.363 . S
C374 H386 0.929 . S
C375 C374 1.363 . S
C375 N377 1.375 . S
C375 H393 0.931 . S
C376 N373 1.311 . S
C376 N377 1.347 . S
C376 H387 0.929 . S
N377 C375 1.375 . S
N377 C376 1.347 . S
C378 C381 1.365 . S
C378 N383 1.328 . S
C378 H384 0.929 . S
C379 C380 1.362 . S
C379 C382 1.378 . S
C379 H394 0.929 . S
C380 C379 1.362 . S
C380 C381 1.366 . S
C381 C378 1.365 . S
C381 C380 1.366 . S
C381 H395 0.930 . S
C382 C379 1.378 . S
C382 N383 1.315 . S
C382 H385 0.930 . S
N383 Co363 2.194 . S
N383 C378 1.328 . S
N383 C382 1.315 . S
H384 C378 0.929 . S
H385 C382 0.930 . S
H386 C374 0.929 . S
H387 C376 0.929 . S
O388 Co363 2.351 . S
O388 C391 1.244 . S
O389 Co363 2.155 . S
O389 C391 1.240 . S
O390 Co363 2.096 . S
O390 C371 1.247 . S
C391 O388 1.244 . S
C391 O389 1.240 . S
H392 C366 0.931 . S
H393 C375 0.931 . S
H394 C379 0.929 . S
H395 C381 0.930 . S
C396 C397 1.369 . S
C396 C398 1.419 . S
C396 H400 0.930 . S
C397 C396 1.369 . S
C397 C406 1.429 . S
C398 C396 1.419 . S
C398 C399 1.363 . S
C398 H401 0.929 . S
C399 C398 1.363 . S
C399 C405 1.428 . S
H400 C396 0.930 . S
H401 C398 0.929 . S
S402 N403 1.613 . S
S402 N404 1.610 . S
N403 S402 1.613 . S
N403 C406 1.350 . S
N404 S402 1.610 . S
N404 C405 1.351 . S
C405 C399 1.428 . S
C405 N404 1.351 . S
C405 C406 1.434 . S
C406 C397 1.429 . S
C406 N403 1.350 . S
C406 C405 1.434 . S
C407 C408 1.369 . S
C407 C409 1.419 1_655 S
C407 H411 0.930 . S
C408 C407 1.369 . S
C408 C417 1.429 . S
C409 C407 1.419 1_455 S
C409 C410 1.363 . S
C409 H412 0.929 . S
C410 C409 1.363 . S
C410 C416 1.428 . S
H411 C407 0.930 . S
H412 C409 0.929 . S
S413 N414 1.613 1_455 S
S413 N415 1.610 . S
N414 S413 1.613 1_655 S
N414 C417 1.350 . S
N415 S413 1.610 . S
N415 C416 1.351 . S
C416 C410 1.428 . S
C416 N415 1.351 . S
C416 C417 1.434 1_455 S
C417 C408 1.429 . S
C417 N414 1.350 . S
C417 C416 1.434 1_655 S
C418 C419 1.369 . S
C418 C420 1.419 1_545 S
C418 H422 0.930 . S
C419 C418 1.369 . S
C419 C428 1.429 . S
C420 C418 1.419 1_565 S
C420 C421 1.363 . S
C420 H423 0.929 . S
C421 C420 1.363 . S
C421 C427 1.428 . S
H422 C418 0.930 . S
H423 C420 0.929 . S
S424 N425 1.613 1_565 S
S424 N426 1.610 . S
N425 S424 1.613 1_545 S
N425 C428 1.350 . S
N426 S424 1.610 . S
N426 C427 1.351 . S
C427 C421 1.428 . S
C427 N426 1.351 . S
C427 C428 1.434 1_565 S
C428 C419 1.429 . S
C428 N425 1.350 . S
C428 C427 1.434 1_545 S
C429 C430 1.369 . S
C429 C431 1.419 . S
C429 H433 0.930 . S
C430 C429 1.369 . S
C430 C439 1.429 . S
C431 C429 1.419 . S
C431 C432 1.363 . S
C431 H434 0.929 . S
C432 C431 1.363 . S
C432 C438 1.428 . S
H433 C429 0.930 . S
H434 C431 0.929 . S
S435 N436 1.613 . S
S435 N437 1.610 . S
N436 S435 1.613 . S
N436 C439 1.350 . S
N437 S435 1.610 . S
N437 C438 1.351 . S
C438 C432 1.428 . S
C438 N437 1.351 . S
C438 C439 1.434 . S
C439 C430 1.429 . S
C439 N436 1.350 . S
C439 C438 1.434 . S
C440 C441 1.369 . S
C440 C442 1.419 1_455 S
C440 H444 0.930 . S
C441 C440 1.369 . S
C441 C450 1.429 . S
C442 C440 1.419 1_655 S
C442 C443 1.363 . S
C442 H445 0.929 . S
C443 C442 1.363 . S
C443 C449 1.428 . S
H444 C440 0.930 . S
H445 C442 0.929 . S
S446 N447 1.613 1_655 S
S446 N448 1.610 . S
N447 S446 1.613 1_455 S
N447 C450 1.350 . S
N448 S446 1.610 . S
N448 C449 1.351 . S
C449 C443 1.428 . S
C449 N448 1.351 . S
C449 C450 1.434 1_655 S
C450 C441 1.429 . S
C450 N447 1.350 . S
C450 C449 1.434 1_455 S
C451 C452 1.369 . S
C451 C453 1.419 1_565 S
C451 H455 0.930 . S
C452 C451 1.369 . S
C452 C461 1.429 . S
C453 C451 1.419 1_545 S
C453 C454 1.363 . S
C453 H456 0.929 . S
C454 C453 1.363 . S
C454 C460 1.428 . S
H455 C451 0.930 . S
H456 C453 0.929 . S
S457 N458 1.613 1_545 S
S457 N459 1.610 . S
N458 S457 1.613 1_565 S
N458 C461 1.350 . S
N459 S457 1.610 . S
N459 C460 1.351 . S
C460 C454 1.428 . S
C460 N459 1.351 . S
C460 C461 1.434 1_545 S
C461 C452 1.429 . S
C461 N458 1.350 . S
C461 C460 1.434 1_565 S
C462 C463 1.369 . S
C462 C464 1.419 1_556 S
C462 H466 0.930 . S
C463 C462 1.369 . S
C463 C472 1.429 . S
C464 C462 1.419 1_554 S
C464 C465 1.363 . S
C464 H467 0.929 . S
C465 C464 1.363 . S
C465 C471 1.428 . S
H466 C462 0.930 . S
H467 C464 0.929 . S
S468 N469 1.613 1_554 S
S468 N470 1.610 . S
N469 S468 1.613 1_556 S
N469 C472 1.350 . S
N470 S468 1.610 . S
N470 C471 1.351 . S
C471 C465 1.428 . S
C471 N470 1.351 . S
C471 C472 1.434 1_554 S
C472 C463 1.429 . S
C472 N469 1.350 . S
C472 C471 1.434 1_556 S
C473 C474 1.369 . S
C473 C475 1.419 . S
C473 H477 0.930 . S
C474 C473 1.369 . S
C474 C483 1.429 . S
C475 C473 1.419 . S
C475 C476 1.363 . S
C475 H478 0.929 . S
C476 C475 1.363 . S
C476 C482 1.428 . S
H477 C473 0.930 . S
H478 C475 0.929 . S
S479 N480 1.613 . S
S479 N481 1.610 . S
N480 S479 1.613 . S
N480 C483 1.350 . S
N481 S479 1.610 . S
N481 C482 1.351 . S
C482 C476 1.428 . S
C482 N481 1.351 . S
C482 C483 1.434 . S
C483 C474 1.429 . S
C483 N480 1.350 . S
C483 C482 1.434 . S
C484 C485 1.369 . S
C484 C486 1.419 1_554 S
C484 H488 0.930 . S
C485 C484 1.369 . S
C485 C494 1.429 . S
C486 C484 1.419 1_556 S
C486 C487 1.363 . S
C486 H489 0.929 . S
C487 C486 1.363 . S
C487 C493 1.428 . S
H488 C484 0.930 . S
H489 C486 0.929 . S
S490 N491 1.613 . S
S490 N492 1.610 1_554 S
N491 S490 1.613 . S
N491 C494 1.350 . S
N492 S490 1.610 1_556 S
N492 C493 1.351 . S
C493 C487 1.428 . S
C493 N492 1.351 . S
C493 C494 1.434 1_556 S
C494 C485 1.429 . S
C494 N491 1.350 . S
C494 C493 1.434 1_554 S
C495 C496 1.369 . S
C495 C497 1.419 . S
C495 H499 0.930 . S
C496 C495 1.369 . S
C496 C505 1.429 . S
C497 C495 1.419 . S
C497 C498 1.363 . S
C497 H500 0.929 . S
C498 C497 1.363 . S
C498 C504 1.428 . S
H499 C495 0.930 . S
H500 C497 0.929 . S
S501 N502 1.613 . S
S501 N503 1.610 . S
N502 S501 1.613 . S
N502 C505 1.350 . S
N503 S501 1.610 . S
N503 C504 1.351 . S
C504 C498 1.428 . S
C504 N503 1.351 . S
C504 C505 1.434 . S
C505 C496 1.429 . S
C505 N502 1.350 . S
C505 C504 1.434 . S
C506 C507 1.369 . S
C506 C508 1.419 1_556 S
C506 H510 0.930 . S
C507 C506 1.369 . S
C507 C516 1.429 . S
C508 C506 1.419 1_554 S
C508 C509 1.363 . S
C508 H511 0.929 . S
C509 C508 1.363 . S
C509 C515 1.428 . S
H510 C506 0.930 . S
H511 C508 0.929 . S
S512 N513 1.613 . S
S512 N514 1.610 1_556 S
N513 S512 1.613 . S
N513 C516 1.350 . S
N514 S512 1.610 1_554 S
N514 C515 1.351 . S
C515 C509 1.428 . S
C515 N514 1.351 . S
C515 C516 1.434 1_554 S
C516 C507 1.429 . S
C516 N513 1.350 . S
C516 C515 1.434 1_556 S
C517 C518 1.369 . S
C517 C519 1.419 . S
C517 H521 0.930 . S
C518 C517 1.369 . S
C518 C527 1.429 . S
C519 C517 1.419 . S
C519 C520 1.363 . S
C519 H522 0.929 . S
C520 C519 1.363 . S
C520 C526 1.428 . S
H521 C517 0.930 . S
H522 C519 0.929 . S
S523 N524 1.613 . S
S523 N525 1.610 . S
N524 S523 1.613 . S
N524 C527 1.350 . S
N525 S523 1.610 . S
N525 C526 1.351 . S
C526 C520 1.428 . S
C526 N525 1.351 . S
C526 C527 1.434 . S
C527 C518 1.429 . S
C527 N524 1.350 . S
C527 C526 1.434 . S
C528 C529 1.369 . S
C528 C530 1.419 1_554 S
C528 H532 0.930 . S
C529 C528 1.369 . S
C529 C538 1.429 . S
C530 C528 1.419 1_556 S
C530 C531 1.363 . S
C530 H533 0.929 . S
C531 C530 1.363 . S
C531 C537 1.428 . S
H532 C528 0.930 . S
H533 C530 0.929 . S
S534 N535 1.613 1_556 S
S534 N536 1.610 . S
N535 S534 1.613 1_554 S
N535 C538 1.350 . S
N536 S534 1.610 . S
N536 C537 1.351 . S
C537 C531 1.428 . S
C537 N536 1.351 . S
C537 C538 1.434 1_556 S
C538 C529 1.429 . S
C538 N535 1.350 . S
C538 C537 1.434 1_554 S
C539 C540 1.369 . S
C539 C541 1.419 . S
C539 H543 0.930 . S
C540 C539 1.369 . S
C540 C549 1.429 . S
C541 C539 1.419 . S
C541 C542 1.363 . S
C541 H544 0.929 . S
C542 C541 1.363 . S
C542 C548 1.428 . S
H543 C539 0.930 . S
H544 C541 0.929 . S
S545 N546 1.613 . S
S545 N547 1.610 . S
N546 S545 1.613 . S
N546 C549 1.350 . S
N547 S545 1.610 . S
N547 C548 1.351 . S
C548 C542 1.428 . S
C548 N547 1.351 . S
C548 C549 1.434 . S
C549 C540 1.429 . S
C549 N546 1.350 . S
C549 C548 1.434 . S
C550 C551 1.369 . S
C550 C552 1.419 1_556 S
C550 H554 0.930 . S
C551 C550 1.369 . S
C551 C560 1.429 . S
C552 C550 1.419 1_554 S
C552 C553 1.363 . S
C552 H555 0.929 . S
C553 C552 1.363 . S
C553 C559 1.428 . S
H554 C550 0.930 . S
H555 C552 0.929 . S
S556 N557 1.613 1_554 S
S556 N558 1.610 . S
N557 S556 1.613 1_556 S
N557 C560 1.350 . S
N558 S556 1.610 . S
N558 C559 1.351 . S
C559 C553 1.428 . S
C559 N558 1.351 . S
C559 C560 1.434 1_554 S
C560 C551 1.429 . S
C560 N557 1.350 . S
C560 C559 1.434 1_556 S
C561 C562 1.369 . S
C561 C563 1.419 . S
C561 H565 0.930 . S
C562 C561 1.369 . S
C562 C571 1.429 . S
C563 C561 1.419 . S
C563 C564 1.363 . S
C563 H566 0.929 . S
C564 C563 1.363 . S
C564 C570 1.428 . S
H565 C561 0.930 . S
H566 C563 0.929 . S
S567 N568 1.613 . S
S567 N569 1.610 . S
N568 S567 1.613 . S
N568 C571 1.350 . S
N569 S567 1.610 . S
N569 C570 1.351 . S
C570 C564 1.428 . S
C570 N569 1.351 . S
C570 C571 1.434 . S
C571 C562 1.429 . S
C571 N568 1.350 . S
C571 C570 1.434 . S
C572 C573 1.369 . S
C572 C574 1.419 1_556 S
C572 H576 0.930 . S
C573 C572 1.369 . S
C573 C582 1.429 . S
C574 C572 1.419 1_554 S
C574 C575 1.363 . S
C574 H577 0.929 . S
C575 C574 1.363 . S
C575 C581 1.428 . S
H576 C572 0.930 . S
H577 C574 0.929 . S
S578 N579 1.613 . S
S578 N580 1.610 1_556 S
N579 S578 1.613 . S
N579 C582 1.350 . S
N580 S578 1.610 1_554 S
N580 C581 1.351 . S
C581 C575 1.428 . S
C581 N580 1.351 . S
C581 C582 1.434 1_554 S
C582 C573 1.429 . S
C582 N579 1.350 . S
C582 C581 1.434 1_556 S
C583 C584 1.369 . S
C583 C585 1.419 . S
C583 H587 0.930 . S
C584 C583 1.369 . S
C584 C593 1.429 . S
C585 C583 1.419 . S
C585 C586 1.363 . S
C585 H588 0.929 . S
C586 C585 1.363 . S
C586 C592 1.428 . S
H587 C583 0.930 . S
H588 C585 0.929 . S
S589 N590 1.613 . S
S589 N591 1.610 . S
N590 S589 1.613 . S
N590 C593 1.350 . S
N591 S589 1.610 . S
N591 C592 1.351 . S
C592 C586 1.428 . S
C592 N591 1.351 . S
C592 C593 1.434 . S
C593 C584 1.429 . S
C593 N590 1.350 . S
C593 C592 1.434 . S
C594 C595 1.369 . S
C594 C596 1.419 . S
C594 H598 0.930 . S
C595 C594 1.369 . S
C595 C604 1.429 . S
C596 C594 1.419 . S
C596 C597 1.363 . S
C596 H599 0.929 . S
C597 C596 1.363 . S
C597 C603 1.428 . S
H598 C594 0.930 . S
H599 C596 0.929 . S
S600 N601 1.613 . S
S600 N602 1.610 . S
N601 S600 1.613 . S
N601 C604 1.350 . S
N602 S600 1.610 . S
N602 C603 1.351 . S
C603 C597 1.428 . S
C603 N602 1.351 . S
C603 C604 1.434 . S
C604 C595 1.429 . S
C604 N601 1.350 . S
C604 C603 1.434 . S
C605 C606 1.369 . S
C605 C607 1.419 . S
C605 H609 0.930 . S
C606 C605 1.369 . S
C606 C615 1.429 . S
C607 C605 1.419 . S
C607 C608 1.363 . S
C607 H610 0.929 . S
C608 C607 1.363 . S
C608 C614 1.428 . S
H609 C605 0.930 . S
H610 C607 0.929 . S
S611 N612 1.613 . S
S611 N613 1.610 . S
N612 S611 1.613 . S
N612 C615 1.350 . S
N613 S611 1.610 . S
N613 C614 1.351 . S
C614 C608 1.428 . S
C614 N613 1.351 . S
C614 C615 1.434 . S
C615 C606 1.429 . S
C615 N612 1.350 . S
C615 C614 1.434 . S
C616 C617 1.369 . S
C616 C618 1.419 . S
C616 H620 0.930 . S
C617 C616 1.369 . S
C617 C626 1.429 . S
C618 C616 1.419 . S
C618 C619 1.363 . S
C618 H621 0.929 . S
C619 C618 1.363 . S
C619 C625 1.428 . S
H620 C616 0.930 . S
H621 C618 0.929 . S
S622 N623 1.613 . S
S622 N624 1.610 . S
N623 S622 1.613 . S
N623 C626 1.350 . S
N624 S622 1.610 . S
N624 C625 1.351 . S
C625 C619 1.428 . S
C625 N624 1.351 . S
C625 C626 1.434 . S
C626 C617 1.429 . S
C626 N623 1.350 . S
C626 C625 1.434 . S
C627 C628 1.369 . S
C627 C629 1.419 . S
C627 H631 0.930 . S
C628 C627 1.369 . S
C628 C637 1.429 . S
C629 C627 1.419 . S
C629 C630 1.363 . S
C629 H632 0.929 . S
C630 C629 1.363 . S
C630 C636 1.428 . S
H631 C627 0.930 . S
H632 C629 0.929 . S
S633 N634 1.613 . S
S633 N635 1.610 . S
N634 S633 1.613 . S
N634 C637 1.350 . S
N635 S633 1.610 . S
N635 C636 1.351 . S
C636 C630 1.428 . S
C636 N635 1.351 . S
C636 C637 1.434 . S
C637 C628 1.429 . S
C637 N634 1.350 . S
C637 C636 1.434 . S
C638 C639 1.369 . S
C638 C640 1.419 . S
C638 H642 0.930 . S
C639 C638 1.369 . S
C639 C648 1.429 . S
C640 C638 1.419 . S
C640 C641 1.363 . S
C640 H643 0.929 . S
C641 C640 1.363 . S
C641 C647 1.428 . S
H642 C638 0.930 . S
H643 C640 0.929 . S
S644 N645 1.613 . S
S644 N646 1.610 . S
N645 S644 1.613 . S
N645 C648 1.350 . S
N646 S644 1.610 . S
N646 C647 1.351 . S
C647 C641 1.428 . S
C647 N646 1.351 . S
C647 C648 1.434 . S
C648 C639 1.429 . S
C648 N645 1.350 . S
C648 C647 1.434 . S
C649 C650 1.369 . S
C649 C651 1.419 . S
C649 H653 0.930 . S
C650 C649 1.369 . S
C650 C659 1.429 . S
C651 C649 1.419 . S
C651 C652 1.363 . S
C651 H654 0.929 . S
C652 C651 1.363 . S
C652 C658 1.428 . S
H653 C649 0.930 . S
H654 C651 0.929 . S
S655 N656 1.613 . S
S655 N657 1.610 . S
N656 S655 1.613 . S
N656 C659 1.350 . S
N657 S655 1.610 . S
N657 C658 1.351 . S
C658 C652 1.428 . S
C658 N657 1.351 . S
C658 C659 1.434 . S
C659 C650 1.429 . S
C659 N656 1.350 . S
C659 C658 1.434 . S
C660 C661 1.369 . S
C660 C662 1.419 . S
C660 H664 0.930 . S
C661 C660 1.369 . S
C661 C670 1.429 . S
C662 C660 1.419 . S
C662 C663 1.363 . S
C662 H665 0.929 . S
C663 C662 1.363 . S
C663 C669 1.428 . S
H664 C660 0.930 . S
H665 C662 0.929 . S
S666 N667 1.613 . S
S666 N668 1.610 . S
N667 S666 1.613 . S
N667 C670 1.350 . S
N668 S666 1.610 . S
N668 C669 1.351 . S
C669 C663 1.428 . S
C669 N668 1.351 . S
C669 C670 1.434 . S
C670 C661 1.429 . S
C670 N667 1.350 . S
C670 C669 1.434 . S
C671 C672 1.369 . S
C671 C673 1.419 . S
C671 H675 0.930 . S
C672 C671 1.369 . S
C672 C681 1.429 . S
C673 C671 1.419 . S
C673 C674 1.363 . S
C673 H676 0.929 . S
C674 C673 1.363 . S
C674 C680 1.428 . S
H675 C671 0.930 . S
H676 C673 0.929 . S
S677 N678 1.613 . S
S677 N679 1.610 . S
N678 S677 1.613 . S
N678 C681 1.350 . S
N679 S677 1.610 . S
N679 C680 1.351 . S
C680 C674 1.428 . S
C680 N679 1.351 . S
C680 C681 1.434 . S
C681 C672 1.429 . S
C681 N678 1.350 . S
C681 C680 1.434 . S
C682 C683 1.369 . S
C682 C684 1.419 . S
C682 H686 0.930 . S
C683 C682 1.369 . S
C683 C692 1.429 . S
C684 C682 1.419 . S
C684 C685 1.363 . S
C684 H687 0.929 . S
C685 C684 1.363 . S
C685 C691 1.428 . S
H686 C682 0.930 . S
H687 C684 0.929 . S
S688 N689 1.613 . S
S688 N690 1.610 . S
N689 S688 1.613 . S
N689 C692 1.350 . S
N690 S688 1.610 . S
N690 C691 1.351 . S
C691 C685 1.428 . S
C691 N690 1.351 . S
C691 C692 1.434 . S
C692 C683 1.429 . S
C692 N689 1.350 . S
C692 C691 1.434 . S
C693 C694 1.369 . S
C693 C695 1.419 . S
C693 H697 0.930 . S
C694 C693 1.369 . S
C694 C703 1.429 . S
C695 C693 1.419 . S
C695 C696 1.363 . S
C695 H698 0.929 . S
C696 C695 1.363 . S
C696 C702 1.428 . S
H697 C693 0.930 . S
H698 C695 0.929 . S
S699 N700 1.613 . S
S699 N701 1.610 . S
N700 S699 1.613 . S
N700 C703 1.350 . S
N701 S699 1.610 . S
N701 C702 1.351 . S
C702 C696 1.428 . S
C702 N701 1.351 . S
C702 C703 1.434 . S
C703 C694 1.429 . S
C703 N700 1.350 . S
C703 C702 1.434 . S
C704 C705 1.369 . S
C704 C706 1.419 . S
C704 H708 0.930 . S
C705 C704 1.369 . S
C705 C714 1.429 . S
C706 C704 1.419 . S
C706 C707 1.363 . S
C706 H709 0.929 . S
C707 C706 1.363 . S
C707 C713 1.428 . S
H708 C704 0.930 . S
H709 C706 0.929 . S
S710 N711 1.613 . S
S710 N712 1.610 . S
N711 S710 1.613 . S
N711 C714 1.350 . S
N712 S710 1.610 . S
N712 C713 1.351 . S
C713 C707 1.428 . S
C713 N712 1.351 . S
C713 C714 1.434 . S
C714 C705 1.429 . S
C714 N711 1.350 . S
C714 C713 1.434 . S
C715 C716 1.369 . S
C715 C717 1.419 . S
C715 H719 0.930 . S
C716 C715 1.369 . S
C716 C725 1.429 . S
C717 C715 1.419 . S
C717 C718 1.363 . S
C717 H720 0.929 . S
C718 C717 1.363 . S
C718 C724 1.428 . S
H719 C715 0.930 . S
H720 C717 0.929 . S
S721 N722 1.613 . S
S721 N723 1.610 . S
N722 S721 1.613 . S
N722 C725 1.350 . S
N723 S721 1.610 . S
N723 C724 1.351 . S
C724 C718 1.428 . S
C724 N723 1.351 . S
C724 C725 1.434 . S
C725 C716 1.429 . S
C725 N722 1.350 . S
C725 C724 1.434 . S
C397 N302 1.732 . S
C399 N5 1.737 . S
C408 N38 1.733 . S
C410 N335 1.733 . S
C419 N368 1.733 . S
C421 N71 1.733 . S
C430 N104 1.731 . S
C432 N203 1.735 . S
C441 N137 1.731 . S
C443 N236 1.734 . S
C452 N269 1.735 . S
C454 N170 1.733 . S
C463 C347 1.341 . S
C465 C17 1.338 . S
C474 C380 1.332 . S
C476 C50 1.337 . S
C485 C83 1.335 . S
C487 C215 1.342 . S
C496 C248 1.330 . S
C498 C116 1.341 . S
C507 C281 1.333 . S
C509 C149 1.342 . S
C518 C182 1.336 . S
C520 C314 1.341 . S
C529 C259 1.617 . S
C531 C127 1.614 . S
C540 C292 1.618 . S
C542 C160 1.617 . S
C551 C193 1.609 . S
C553 C325 1.610 . S
C562 C28 1.618 . S
C564 C358 1.617 . S
C573 C61 1.609 . S
C575 C391 1.612 . S
C584 C226 1.610 . S
C586 C94 1.613 . S
C595 N14 1.495 . S
C597 C140 1.495 . S
C606 N47 1.495 . S
C608 C173 1.495 . S
C617 N80 1.494 . S
C619 C8 1.494 . S
C628 C41 1.495 . S
C630 N113 1.495 . S
C639 N146 1.494 . S
C641 C74 1.495 . S
C650 C107 1.495 . S
C652 N179 1.495 . S
C661 C272 1.495 . S
C663 N212 1.495 . S
C672 C305 1.495 . S
C674 N245 1.495 . S
C683 C338 1.495 . S
C685 N278 1.495 . S
C694 N311 1.495 . S
C696 C371 1.495 . S
C705 C206 1.495 . S
C707 N344 1.495 . S
C716 N377 1.495 . S
C718 C239 1.495 . S
