# Generated by pormake.
# Topology zni, (4)-cn, num edge types: 1
# Building blocks:
#     Node 0, Type 0, BuildingBlock: NAHDIM_clean_sbu_0, # of connection points: 4
#     Node 1, Type 0, BuildingBlock: NAHDIM_clean_sbu_0, # of connection points: 4
#     Node 2, Type 0, BuildingBlock: NAHDIM_clean_sbu_0, # of connection points: 4
#     Node 3, Type 0, BuildingBlock: NAHDIM_clean_sbu_0, # of connection points: 4
#     Node 4, Type 0, BuildingBlock: NAHDIM_clean_sbu_0, # of connection points: 4
#     Node 5, Type 0, BuildingBlock: NAHDIM_clean_sbu_0, # of connection points: 4
#     Node 6, Type 0, BuildingBlock: NAHDIM_clean_sbu_0, # of connection points: 4
#     Node 7, Type 0, BuildingBlock: NAHDIM_clean_sbu_0, # of connection points: 4
#     Node 8, Type 0, BuildingBlock: NAHDIM_clean_sbu_0, # of connection points: 4
#     Node 9, Type 0, BuildingBlock: NAHDIM_clean_sbu_0, # of connection points: 4
#     Node 10, Type 0, BuildingBlock: NAHDIM_clean_sbu_0, # of connection points: 4
#     Node 11, Type 0, BuildingBlock: NAHDIM_clean_sbu_0, # of connection points: 4
#     Node 12, Type 0, BuildingBlock: NAHDIM_clean_sbu_0, # of connection points: 4
#     Node 13, Type 0, BuildingBlock: NAHDIM_clean_sbu_0, # of connection points: 4
#     Node 14, Type 0, BuildingBlock: NAHDIM_clean_sbu_0, # of connection points: 4
#     Node 15, Type 0, BuildingBlock: NAHDIM_clean_sbu_0, # of connection points: 4
#     Node 16, Type 0, BuildingBlock: NAHDIM_clean_sbu_0, # of connection points: 4
#     Node 17, Type 0, BuildingBlock: NAHDIM_clean_sbu_0, # of connection points: 4
#     Node 18, Type 0, BuildingBlock: NAHDIM_clean_sbu_0, # of connection points: 4
#     Node 19, Type 0, BuildingBlock: NAHDIM_clean_sbu_0, # of connection points: 4
#     Node 20, Type 0, BuildingBlock: NAHDIM_clean_sbu_0, # of connection points: 4
#     Node 21, Type 0, BuildingBlock: NAHDIM_clean_sbu_0, # of connection points: 4
#     Node 22, Type 0, BuildingBlock: NAHDIM_clean_sbu_0, # of connection points: 4
#     Node 23, Type 0, BuildingBlock: NAHDIM_clean_sbu_0, # of connection points: 4
#     Node 24, Type 0, BuildingBlock: NAHDIM_clean_sbu_0, # of connection points: 4
#     Node 25, Type 0, BuildingBlock: NAHDIM_clean_sbu_0, # of connection points: 4
#     Node 26, Type 0, BuildingBlock: NAHDIM_clean_sbu_0, # of connection points: 4
#     Node 27, Type 0, BuildingBlock: NAHDIM_clean_sbu_0, # of connection points: 4
#     Node 28, Type 0, BuildingBlock: NAHDIM_clean_sbu_0, # of connection points: 4
#     Node 29, Type 0, BuildingBlock: NAHDIM_clean_sbu_0, # of connection points: 4
#     Node 30, Type 0, BuildingBlock: NAHDIM_clean_sbu_0, # of connection points: 4
#     Node 31, Type 0, BuildingBlock: NAHDIM_clean_sbu_0, # of connection points: 4
#     Edge 32, Type (0, 0), BuildingBlock: XIVTED_clean_linker_0, # of connection points: 2
#     Edge 33, Type (0, 0), BuildingBlock: XIVTED_clean_linker_0, # of connection points: 2
#     Edge 34, Type (0, 0), BuildingBlock: XIVTED_clean_linker_0, # of connection points: 2
#     Edge 35, Type (0, 0), BuildingBlock: XIVTED_clean_linker_0, # of connection points: 2
#     Edge 36, Type (0, 0), BuildingBlock: XIVTED_clean_linker_0, # of connection points: 2
#     Edge 37, Type (0, 0), BuildingBlock: XIVTED_clean_linker_0, # of connection points: 2
#     Edge 38, Type (0, 0), BuildingBlock: XIVTED_clean_linker_0, # of connection points: 2
#     Edge 39, Type (0, 0), BuildingBlock: XIVTED_clean_linker_0, # of connection points: 2
#     Edge 40, Type (0, 0), BuildingBlock: XIVTED_clean_linker_0, # of connection points: 2
#     Edge 41, Type (0, 0), BuildingBlock: XIVTED_clean_linker_0, # of connection points: 2
#     Edge 42, Type (0, 0), BuildingBlock: XIVTED_clean_linker_0, # of connection points: 2
#     Edge 43, Type (0, 0), BuildingBlock: XIVTED_clean_linker_0, # of connection points: 2
#     Edge 44, Type (0, 0), BuildingBlock: XIVTED_clean_linker_0, # of connection points: 2
#     Edge 45, Type (0, 0), BuildingBlock: XIVTED_clean_linker_0, # of connection points: 2
#     Edge 46, Type (0, 0), BuildingBlock: XIVTED_clean_linker_0, # of connection points: 2
#     Edge 47, Type (0, 0), BuildingBlock: XIVTED_clean_linker_0, # of connection points: 2
#     Edge 48, Type (0, 0), BuildingBlock: XIVTED_clean_linker_0, # of connection points: 2
#     Edge 49, Type (0, 0), BuildingBlock: XIVTED_clean_linker_0, # of connection points: 2
#     Edge 50, Type (0, 0), BuildingBlock: XIVTED_clean_linker_0, # of connection points: 2
#     Edge 51, Type (0, 0), BuildingBlock: XIVTED_clean_linker_0, # of connection points: 2
#     Edge 52, Type (0, 0), BuildingBlock: XIVTED_clean_linker_0, # of connection points: 2
#     Edge 53, Type (0, 0), BuildingBlock: XIVTED_clean_linker_0, # of connection points: 2
#     Edge 54, Type (0, 0), BuildingBlock: XIVTED_clean_linker_0, # of connection points: 2
#     Edge 55, Type (0, 0), BuildingBlock: XIVTED_clean_linker_0, # of connection points: 2
#     Edge 56, Type (0, 0), BuildingBlock: XIVTED_clean_linker_0, # of connection points: 2
#     Edge 57, Type (0, 0), BuildingBlock: XIVTED_clean_linker_0, # of connection points: 2
#     Edge 58, Type (0, 0), BuildingBlock: XIVTED_clean_linker_0, # of connection points: 2
#     Edge 59, Type (0, 0), BuildingBlock: XIVTED_clean_linker_0, # of connection points: 2
#     Edge 60, Type (0, 0), BuildingBlock: XIVTED_clean_linker_0, # of connection points: 2
#     Edge 61, Type (0, 0), BuildingBlock: XIVTED_clean_linker_0, # of connection points: 2
#     Edge 62, Type (0, 0), BuildingBlock: XIVTED_clean_linker_0, # of connection points: 2
#     Edge 63, Type (0, 0), BuildingBlock: XIVTED_clean_linker_0, # of connection points: 2
#     Edge 64, Type (0, 0), BuildingBlock: XIVTED_clean_linker_0, # of connection points: 2
#     Edge 65, Type (0, 0), BuildingBlock: XIVTED_clean_linker_0, # of connection points: 2
#     Edge 66, Type (0, 0), BuildingBlock: XIVTED_clean_linker_0, # of connection points: 2
#     Edge 67, Type (0, 0), BuildingBlock: XIVTED_clean_linker_0, # of connection points: 2
#     Edge 68, Type (0, 0), BuildingBlock: XIVTED_clean_linker_0, # of connection points: 2
#     Edge 69, Type (0, 0), BuildingBlock: XIVTED_clean_linker_0, # of connection points: 2
#     Edge 70, Type (0, 0), BuildingBlock: XIVTED_clean_linker_0, # of connection points: 2
#     Edge 71, Type (0, 0), BuildingBlock: XIVTED_clean_linker_0, # of connection points: 2
#     Edge 72, Type (0, 0), BuildingBlock: XIVTED_clean_linker_0, # of connection points: 2
#     Edge 73, Type (0, 0), BuildingBlock: XIVTED_clean_linker_0, # of connection points: 2
#     Edge 74, Type (0, 0), BuildingBlock: XIVTED_clean_linker_0, # of connection points: 2
#     Edge 75, Type (0, 0), BuildingBlock: XIVTED_clean_linker_0, # of connection points: 2
#     Edge 76, Type (0, 0), BuildingBlock: XIVTED_clean_linker_0, # of connection points: 2
#     Edge 77, Type (0, 0), BuildingBlock: XIVTED_clean_linker_0, # of connection points: 2
#     Edge 78, Type (0, 0), BuildingBlock: XIVTED_clean_linker_0, # of connection points: 2
#     Edge 79, Type (0, 0), BuildingBlock: XIVTED_clean_linker_0, # of connection points: 2
#     Edge 80, Type (0, 0), BuildingBlock: XIVTED_clean_linker_0, # of connection points: 2
#     Edge 81, Type (0, 0), BuildingBlock: XIVTED_clean_linker_0, # of connection points: 2
#     Edge 82, Type (0, 0), BuildingBlock: XIVTED_clean_linker_0, # of connection points: 2
#     Edge 83, Type (0, 0), BuildingBlock: XIVTED_clean_linker_0, # of connection points: 2
#     Edge 84, Type (0, 0), BuildingBlock: XIVTED_clean_linker_0, # of connection points: 2
#     Edge 85, Type (0, 0), BuildingBlock: XIVTED_clean_linker_0, # of connection points: 2
#     Edge 86, Type (0, 0), BuildingBlock: XIVTED_clean_linker_0, # of connection points: 2
#     Edge 87, Type (0, 0), BuildingBlock: XIVTED_clean_linker_0, # of connection points: 2
#     Edge 88, Type (0, 0), BuildingBlock: XIVTED_clean_linker_0, # of connection points: 2
#     Edge 89, Type (0, 0), BuildingBlock: XIVTED_clean_linker_0, # of connection points: 2
#     Edge 90, Type (0, 0), BuildingBlock: XIVTED_clean_linker_0, # of connection points: 2
#     Edge 91, Type (0, 0), BuildingBlock: XIVTED_clean_linker_0, # of connection points: 2
#     Edge 92, Type (0, 0), BuildingBlock: XIVTED_clean_linker_0, # of connection points: 2
#     Edge 93, Type (0, 0), BuildingBlock: XIVTED_clean_linker_0, # of connection points: 2
#     Edge 94, Type (0, 0), BuildingBlock: XIVTED_clean_linker_0, # of connection points: 2
#     Edge 95, Type (0, 0), BuildingBlock: XIVTED_clean_linker_0, # of connection points: 2
# Relax obj value: 0.185
# Max RMSD: 0.100
# Mean RMSD: 0.100
data_MOF--net-zni--node1-NAHDIM_clean_sbu_0--edge1-XIVTED_clean_linker_0
_symmetry_space_group_name_H-M    P1
_symmetry_Int_Tables_number       1
_symmetry_cell_setting            triclinic
loop_
_symmetry_equiv_pos_as_xyz
'x, y, z'
_cell_length_a     54.796412
_cell_length_b     54.813845
_cell_length_c     31.7781
_cell_angle_alpha  90.022389
_cell_angle_beta   89.981248
_cell_angle_gamma 89.997223
loop_
_atom_site_label
_atom_site_type_symbol
_atom_site_fract_x
_atom_site_fract_y
_atom_site_fract_z
_atom_type_partial_charge
C0 C 0.15845 0.06228 0.35826 0.0
O1 O 0.15542 0.05573 0.39765 0.0
O2 O 0.14601 0.10184 0.44635 0.0
Zn3 Zn 0.13393 0.10577 0.38685 0.0
O4 O 0.09802 0.09811 0.38479 0.0
C5 C 0.15252 0.15525 0.38807 0.0
O6 O 0.16694 0.14656 0.41749 0.0
O7 O 0.15142 0.08333 0.34665 0.0
C8 C 0.08329 0.11085 0.4065 0.0
O9 O 0.09198 0.12849 0.43017 0.0
C10 C 0.13584 0.08757 0.47255 0.0
O11 O 0.11746 0.07396 0.46018 0.0
O12 O 0.13772 0.14095 0.36963 0.0
C13 C 0.18454 0.91856 0.60237 0.0
O14 O 0.19046 0.91852 0.6424 0.0
O15 O 0.14616 0.90395 0.69143 0.0
Zn16 Zn 0.14202 0.89201 0.63182 0.0
O17 O 0.14989 0.85617 0.62979 0.0
C18 C 0.0921 0.90972 0.63337 0.0
O19 O 0.10029 0.92379 0.66371 0.0
O20 O 0.16433 0.90924 0.59107 0.0
C21 C 0.13827 0.84142 0.65325 0.0
O22 O 0.12147 0.85001 0.6788 0.0
C23 C 0.16177 0.89447 0.71606 0.0
O24 O 0.1764 0.87739 0.70171 0.0
O25 O 0.10681 0.89548 0.61454 0.0
C26 C 0.338 0.93285 0.85506 0.0
O27 O 0.33891 0.93823 0.8953 0.0
O28 O 0.35314 0.89336 0.94158 0.0
Zn29 Zn 0.36447 0.88968 0.88152 0.0
O30 O 0.40046 0.89697 0.87888 0.0
C31 C 0.34574 0.84017 0.88211 0.0
O32 O 0.33229 0.8484 0.91327 0.0
O33 O 0.34697 0.91276 0.84236 0.0
C34 C 0.41509 0.88457 0.90134 0.0
O35 O 0.40629 0.86739 0.92586 0.0
C36 C 0.36324 0.90826 0.96679 0.0
O37 O 0.38081 0.92246 0.95296 0.0
O38 O 0.36007 0.85472 0.86316 0.0
C39 C 0.31607 0.08623 0.11005 0.0
O40 O 0.30983 0.08791 0.14984 0.0
O41 O 0.35524 0.10008 0.19848 0.0
Zn42 Zn 0.35947 0.11143 0.13856 0.0
O43 O 0.35215 0.14737 0.13553 0.0
C44 C 0.4088 0.09216 0.13934 0.0
O45 O 0.40014 0.07788 0.169 0.0
O46 O 0.33683 0.09413 0.09849 0.0
C47 C 0.36448 0.16227 0.15759 0.0
O48 O 0.3817 0.1538 0.18237 0.0
C49 C 0.3403 0.11041 0.22337 0.0
O50 O 0.32641 0.12813 0.20919 0.0
O51 O 0.39456 0.10714 0.12122 0.0
C52 C 0.16526 0.93432 0.14019 0.0
O53 O 0.16454 0.94072 0.1004 0.0
O54 O 0.15262 0.89688 0.05015 0.0
Zn55 Zn 0.14131 0.89057 0.10956 0.0
O56 O 0.10499 0.89603 0.11319 0.0
C57 C 0.15146 0.83953 0.09654 0.0
O58 O 0.15093 0.84628 0.0569 0.0
O59 O 0.15728 0.91344 0.15091 0.0
C60 C 0.09009 0.88471 0.08956 0.0
O61 O 0.09856 0.86901 0.06194 0.0
C62 C 0.1417 0.91173 0.02589 0.0
O63 O 0.12323 0.92446 0.04048 0.0
O64 O 0.1482 0.85548 0.12508 0.0
C65 C 0.31428 0.91319 0.38809 0.0
O66 O 0.30832 0.91078 0.34829 0.0
O67 O 0.35469 0.8986 0.30159 0.0
Zn68 Zn 0.35773 0.8873 0.36175 0.0
O69 O 0.34971 0.8515 0.36449 0.0
C70 C 0.4072 0.90612 0.3636 0.0
O71 O 0.39901 0.92086 0.33423 0.0
O72 O 0.33487 0.90532 0.40057 0.0
C73 C 0.36231 0.83653 0.34301 0.0
O74 O 0.38013 0.84488 0.31938 0.0
C75 C 0.33999 0.88844 0.27609 0.0
O76 O 0.3256 0.87098 0.28976 0.0
O77 O 0.39263 0.89099 0.38058 0.0
C78 C 0.33378 0.06501 0.64529 0.0
O79 O 0.33501 0.05946 0.60514 0.0
O80 O 0.34889 0.10458 0.55829 0.0
Zn81 Zn 0.35993 0.10821 0.61852 0.0
O82 O 0.39578 0.10047 0.62194 0.0
C83 C 0.34164 0.1579 0.61799 0.0
O84 O 0.32764 0.14971 0.58755 0.0
O85 O 0.34224 0.08537 0.65777 0.0
C86 C 0.4109 0.11254 0.59991 0.0
O87 O 0.40273 0.12975 0.57483 0.0
C88 C 0.35908 0.08961 0.53329 0.0
O89 O 0.37643 0.07528 0.54753 0.0
O90 O 0.35603 0.14324 0.63656 0.0
C91 C 0.1876 0.09045 0.8935 0.0
O92 O 0.19375 0.09162 0.85362 0.0
O93 O 0.14784 0.10353 0.80564 0.0
Zn94 Zn 0.14472 0.11643 0.86477 0.0
O95 O 0.15299 0.15223 0.86485 0.0
C96 C 0.09597 0.0964 0.86902 0.0
O97 O 0.1052 0.07994 0.84351 0.0
O98 O 0.16717 0.09914 0.90514 0.0
C99 C 0.1405 0.16661 0.84205 0.0
O100 O 0.12271 0.15763 0.81905 0.0
C101 C 0.16268 0.11276 0.77935 0.0
O102 O 0.1773 0.13039 0.79156 0.0
O103 O 0.10968 0.11322 0.88312 0.0
C104 C 0.83549 0.93348 0.64064 0.0
O105 O 0.83545 0.93919 0.60052 0.0
O106 O 0.85041 0.8955 0.55154 0.0
Zn107 Zn 0.86147 0.89046 0.61152 0.0
O108 O 0.89745 0.89745 0.61491 0.0
C109 C 0.84487 0.84017 0.60581 0.0
O110 O 0.834 0.84796 0.57153 0.0
O111 O 0.84455 0.91319 0.65212 0.0
C112 C 0.91243 0.88576 0.59199 0.0
O113 O 0.90409 0.86912 0.56593 0.0
C114 C 0.86072 0.91099 0.52766 0.0
O115 O 0.87813 0.92488 0.54298 0.0
O116 O 0.8568 0.85522 0.62829 0.0
C117 C 0.81004 0.0871 0.39269 0.0
O118 O 0.80377 0.08866 0.3529 0.0
O119 O 0.85047 0.09916 0.30401 0.0
Zn120 Zn 0.85405 0.11119 0.36371 0.0
O121 O 0.84683 0.14715 0.36497 0.0
C122 C 0.90313 0.09132 0.36585 0.0
O123 O 0.89448 0.0762 0.33746 0.0
O124 O 0.83099 0.09458 0.40399 0.0
C125 C 0.85961 0.16166 0.3429 0.0
O126 O 0.87725 0.15275 0.31945 0.0
C127 C 0.83571 0.10922 0.27849 0.0
O128 O 0.82149 0.12685 0.29201 0.0
O129 O 0.88898 0.10707 0.38218 0.0
C130 C 0.66687 0.06715 0.14917 0.0
O131 O 0.66701 0.06189 0.10886 0.0
O132 O 0.65071 0.106 0.06177 0.0
Zn133 Zn 0.63954 0.10974 0.12189 0.0
O134 O 0.60365 0.1021 0.12471 0.0
C135 C 0.65935 0.15878 0.12303 0.0
O136 O 0.67451 0.14983 0.09495 0.0
O137 O 0.65712 0.08697 0.16144 0.0
C138 C 0.58889 0.11376 0.10134 0.0
O139 O 0.59749 0.13049 0.07569 0.0
C140 C 0.64105 0.09039 0.03731 0.0
O141 O 0.62432 0.07553 0.05215 0.0
O142 O 0.64356 0.1448 0.13966 0.0
C143 C 0.68849 0.91028 0.89302 0.0
O144 O 0.69491 0.90732 0.85353 0.0
O145 O 0.64842 0.89712 0.80525 0.0
Zn146 Zn 0.64472 0.88561 0.86521 0.0
O147 O 0.65202 0.84964 0.86789 0.0
C148 C 0.59553 0.90519 0.86553 0.0
O149 O 0.60433 0.91992 0.83666 0.0
O150 O 0.66749 0.90317 0.90484 0.0
C151 C 0.63942 0.83503 0.84571 0.0
O152 O 0.62223 0.84388 0.82126 0.0
C153 C 0.66286 0.88678 0.7795 0.0
O154 O 0.67675 0.86881 0.79271 0.0
O155 O 0.60966 0.88982 0.88294 0.0
C156 C 0.8399 0.06196 0.85832 0.0
O157 O 0.8411 0.05642 0.89846 0.0
O158 O 0.85304 0.10232 0.94524 0.0
Zn159 Zn 0.86469 0.10608 0.88533 0.0
O160 O 0.90084 0.09961 0.88352 0.0
C161 C 0.8465 0.15593 0.88621 0.0
O162 O 0.83431 0.14842 0.91937 0.0
O163 O 0.84806 0.08246 0.84592 0.0
C164 C 0.91509 0.11309 0.90485 0.0
O165 O 0.90578 0.13074 0.9278 0.0
C166 C 0.8634 0.0877 0.97063 0.0
O167 O 0.88139 0.07394 0.95704 0.0
O168 O 0.85979 0.14086 0.8662 0.0
C169 C 0.68419 0.09103 0.61512 0.0
O170 O 0.69032 0.092 0.65503 0.0
O171 O 0.64448 0.10392 0.70356 0.0
Zn172 Zn 0.64021 0.11565 0.64393 0.0
O173 O 0.64617 0.15189 0.64239 0.0
C174 C 0.591 0.09561 0.64332 0.0
O175 O 0.59919 0.08183 0.67403 0.0
O176 O 0.66352 0.09924 0.60374 0.0
C177 C 0.64934 0.16254 0.60733 0.0
O178 O 0.64913 0.14952 0.57261 0.0
C179 C 0.65931 0.11459 0.7282 0.0
O180 O 0.67261 0.13269 0.71379 0.0
O181 O 0.60543 0.11053 0.62548 0.0
C182 C 0.66455 0.93501 0.35886 0.0
O183 O 0.66257 0.94058 0.3989 0.0
O184 O 0.64972 0.89487 0.44497 0.0
Zn185 Zn 0.63843 0.89173 0.3848 0.0
O186 O 0.60261 0.89968 0.38177 0.0
C187 C 0.65739 0.84239 0.38355 0.0
O188 O 0.67225 0.85088 0.41249 0.0
O189 O 0.65641 0.91462 0.34597 0.0
C190 C 0.58751 0.88707 0.40294 0.0
O191 O 0.59573 0.86928 0.42674 0.0
C192 C 0.63953 0.90939 0.47075 0.0
O193 O 0.62184 0.92362 0.45749 0.0
O194 O 0.64217 0.85676 0.36635 0.0
C195 C 0.81986 0.91816 0.10472 0.0
O196 O 0.81667 0.92352 0.14463 0.0
O197 O 0.85641 0.90067 0.19431 0.0
Zn198 Zn 0.8605 0.88831 0.13499 0.0
O199 O 0.85266 0.85248 0.13447 0.0
C200 C 0.91033 0.90631 0.1351 0.0
O201 O 0.90218 0.92062 0.16516 0.0
O202 O 0.83768 0.90465 0.09402 0.0
C203 C 0.86356 0.83796 0.15932 0.0
O204 O 0.87996 0.84668 0.18546 0.0
C205 C 0.83963 0.8924 0.21796 0.0
O206 O 0.82396 0.87661 0.20255 0.0
O207 O 0.89562 0.89178 0.11697 0.0
C208 C 0.65323 0.56087 0.8658 0.0
O209 O 0.6482 0.55439 0.90462 0.0
O210 O 0.64431 0.60291 0.95281 0.0
Zn211 Zn 0.63244 0.60662 0.89318 0.0
O212 O 0.5961 0.60111 0.89188 0.0
C213 C 0.65437 0.65488 0.89002 0.0
O214 O 0.66899 0.64599 0.91897 0.0
O215 O 0.64873 0.58259 0.85412 0.0
C216 C 0.58532 0.59785 0.85696 0.0
O217 O 0.59828 0.59769 0.82215 0.0
C218 C 0.63287 0.58961 0.97895 0.0
O219 O 0.61359 0.57741 0.96629 0.0
O220 O 0.63817 0.64116 0.87392 0.0
C221 C 0.68553 0.41761 0.10116 0.0
O222 O 0.68925 0.42196 0.14128 0.0
O223 O 0.64706 0.40307 0.18962 0.0
Zn224 Zn 0.64374 0.38947 0.13102 0.0
O225 O 0.65134 0.35355 0.13237 0.0
C226 C 0.59422 0.40809 0.1285 0.0
O227 O 0.6024 0.42319 0.15735 0.0
O228 O 0.66698 0.40524 0.09006 0.0
C229 C 0.63923 0.33932 0.15602 0.0
O230 O 0.62194 0.34843 0.17999 0.0
C231 C 0.6631 0.39511 0.21499 0.0
O232 O 0.67858 0.3784 0.20206 0.0
O233 O 0.60883 0.39285 0.1119 0.0
C234 C 0.83265 0.43329 0.34892 0.0
O235 O 0.83073 0.43745 0.38948 0.0
O236 O 0.84947 0.39458 0.43545 0.0
Zn237 Zn 0.86145 0.39155 0.37572 0.0
O238 O 0.89726 0.39973 0.37365 0.0
C239 C 0.84188 0.3426 0.37278 0.0
O240 O 0.82626 0.35143 0.40021 0.0
O241 O 0.84393 0.41439 0.33629 0.0
C242 C 0.9122 0.38934 0.39841 0.0
O243 O 0.90393 0.37342 0.42583 0.0
C244 C 0.8578 0.41058 0.46056 0.0
O245 O 0.87405 0.42632 0.44687 0.0
O246 O 0.85793 0.35664 0.35708 0.0
C247 C 0.81755 0.58216 0.60809 0.0
O248 O 0.81195 0.58084 0.6482 0.0
O249 O 0.85028 0.5988 0.69888 0.0
Zn250 Zn 0.85882 0.60938 0.63994 0.0
O251 O 0.85336 0.64562 0.63425 0.0
C252 C 0.90862 0.6003 0.66201 0.0
O253 O 0.89899 0.60163 0.69977 0.0
O254 O 0.83733 0.59255 0.59721 0.0
C255 C 0.86319 0.66081 0.65928 0.0
O256 O 0.87717 0.65271 0.6898 0.0
C257 C 0.83541 0.60989 0.72287 0.0
O258 O 0.82316 0.62868 0.70831 0.0
O259 O 0.89481 0.60261 0.63003 0.0
C260 C 0.66418 0.43653 0.64092 0.0
O261 O 0.66487 0.44364 0.60148 0.0
O262 O 0.65237 0.40365 0.54683 0.0
Zn263 Zn 0.64036 0.39444 0.6047 0.0
O264 O 0.60398 0.39957 0.60794 0.0
C265 C 0.65039 0.34475 0.58248 0.0
O266 O 0.64985 0.3544 0.54468 0.0
O267 O 0.65556 0.41558 0.64963 0.0
C268 C 0.58916 0.38866 0.58359 0.0
O269 O 0.59772 0.37357 0.55505 0.0
C270 C 0.64112 0.41818 0.52247 0.0
O271 O 0.6215 0.42945 0.53616 0.0
O272 O 0.64723 0.35849 0.61433 0.0
C273 C 0.81436 0.41156 0.88407 0.0
O274 O 0.80705 0.40938 0.8449 0.0
O275 O 0.84854 0.39788 0.7923 0.0
Zn276 Zn 0.85692 0.38716 0.85128 0.0
O277 O 0.85139 0.35093 0.85714 0.0
C278 C 0.90694 0.39618 0.83006 0.0
O279 O 0.8978 0.39425 0.79201 0.0
O280 O 0.83557 0.40412 0.89404 0.0
C281 C 0.86195 0.33555 0.83334 0.0
O282 O 0.8768 0.34343 0.80386 0.0
C283 C 0.83413 0.38641 0.76802 0.0
O284 O 0.82244 0.36719 0.78226 0.0
O285 O 0.89277 0.39412 0.86162 0.0
C286 C 0.83682 0.56627 0.14087 0.0
O287 O 0.8353 0.56259 0.10013 0.0
O288 O 0.85103 0.60732 0.0568 0.0
Zn289 Zn 0.86321 0.6101 0.11632 0.0
O290 O 0.89971 0.6049 0.11667 0.0
C291 C 0.84145 0.65835 0.12081 0.0
O292 O 0.82739 0.64999 0.09059 0.0
O293 O 0.84734 0.58539 0.15449 0.0
C294 C 0.91321 0.62267 0.10579 0.0
O295 O 0.90293 0.64323 0.09407 0.0
C296 C 0.86087 0.59262 0.03097 0.0
O297 O 0.87876 0.57852 0.04387 0.0
O298 O 0.85709 0.64423 0.13749 0.0
C299 C 0.68514 0.58585 0.39824 0.0
O300 O 0.69049 0.58845 0.35822 0.0
O301 O 0.64404 0.59976 0.31316 0.0
Zn302 Zn 0.64114 0.61102 0.37336 0.0
O303 O 0.64885 0.6469 0.37585 0.0
C304 C 0.59203 0.59152 0.37524 0.0
O305 O 0.60072 0.57668 0.34643 0.0
O306 O 0.66456 0.59327 0.41163 0.0
C307 C 0.6363 0.66174 0.35405 0.0
O308 O 0.6186 0.65323 0.33033 0.0
C309 C 0.65846 0.60998 0.28725 0.0
O310 O 0.67275 0.62766 0.3004 0.0
O311 O 0.60623 0.60697 0.39228 0.0
C312 C 0.33539 0.43401 0.13819 0.0
O313 O 0.33556 0.43891 0.09775 0.0
O314 O 0.3518 0.3946 0.05212 0.0
Zn315 Zn 0.36297 0.39135 0.11232 0.0
O316 O 0.39881 0.3992 0.11522 0.0
C317 C 0.34377 0.34204 0.11399 0.0
O318 O 0.32901 0.35042 0.08481 0.0
O319 O 0.34513 0.41435 0.15118 0.0
C320 C 0.41384 0.38691 0.09335 0.0
O321 O 0.40556 0.36935 0.06906 0.0
C322 C 0.36172 0.40979 0.0272 0.0
O323 O 0.37882 0.4244 0.0415 0.0
O324 O 0.35906 0.35645 0.13096 0.0
C325 C 0.30991 0.5851 0.8864 0.0
O326 O 0.30312 0.58775 0.84705 0.0
O327 O 0.34463 0.59807 0.79552 0.0
Zn328 Zn 0.35321 0.60839 0.85469 0.0
O329 O 0.34836 0.64472 0.86041 0.0
C330 C 0.40297 0.59807 0.83295 0.0
O331 O 0.39347 0.5991 0.79508 0.0
O332 O 0.33125 0.59179 0.89717 0.0
C333 C 0.35977 0.65967 0.837 0.0
O334 O 0.37494 0.65122 0.80849 0.0
C335 C 0.33072 0.6101 0.77117 0.0
O336 O 0.31958 0.62964 0.78548 0.0
O337 O 0.38912 0.601 0.86475 0.0
C338 C 0.1637 0.56938 0.64958 0.0
O339 O 0.1671 0.56354 0.60993 0.0
O340 O 0.15204 0.60616 0.55715 0.0
Zn341 Zn 0.13868 0.61211 0.61532 0.0
O342 O 0.10232 0.60659 0.61427 0.0
C343 C 0.15859 0.66139 0.6133 0.0
O344 O 0.1724 0.65273 0.58298 0.0
O345 O 0.15318 0.58939 0.65856 0.0
C346 C 0.0912 0.60295 0.64878 0.0
O347 O 0.10378 0.60268 0.68396 0.0
C348 C 0.14246 0.59005 0.53362 0.0
O349 O 0.12454 0.57663 0.54845 0.0
O350 O 0.14376 0.64721 0.63195 0.0
C351 C 0.18535 0.41454 0.39443 0.0
O352 O 0.19061 0.4139 0.35413 0.0
O353 O 0.1484 0.39433 0.3075 0.0
Zn354 Zn 0.14228 0.38716 0.36897 0.0
O355 O 0.14737 0.35112 0.37753 0.0
C356 C 0.09272 0.40572 0.36019 0.0
O357 O 0.10103 0.41505 0.32491 0.0
O358 O 0.16546 0.40517 0.40723 0.0
C359 C 0.13471 0.3363 0.35585 0.0
O360 O 0.11852 0.34501 0.3293 0.0
C361 C 0.16393 0.38157 0.28747 0.0
O362 O 0.17683 0.36523 0.30791 0.0
O363 O 0.10723 0.39411 0.3841 0.0
C364 C 0.33296 0.56443 0.35125 0.0
O365 O 0.33132 0.55978 0.39168 0.0
O366 O 0.34782 0.60357 0.43856 0.0
Zn367 Zn 0.36064 0.60668 0.37938 0.0
O368 O 0.39651 0.59867 0.37937 0.0
C369 C 0.34181 0.65606 0.37671 0.0
O370 O 0.32643 0.64769 0.40495 0.0
O371 O 0.34374 0.58374 0.33916 0.0
C372 C 0.41101 0.61076 0.40259 0.0
O373 O 0.40217 0.6282 0.42655 0.0
C374 C 0.3563 0.58776 0.46387 0.0
O375 O 0.37307 0.57244 0.45058 0.0
O376 O 0.35735 0.64161 0.36052 0.0
C377 C 0.18498 0.58026 0.11068 0.0
O378 O 0.19013 0.57618 0.15039 0.0
O379 O 0.15023 0.5983 0.20303 0.0
Zn380 Zn 0.14458 0.60995 0.14363 0.0
O381 O 0.15167 0.64619 0.13853 0.0
C382 C 0.09411 0.61875 0.15019 0.0
O383 O 0.10297 0.63372 0.17858 0.0
O384 O 0.16621 0.5928 0.10131 0.0
C385 C 0.15172 0.66166 0.16842 0.0
O386 O 0.14741 0.65433 0.20705 0.0
C387 C 0.16864 0.60395 0.22535 0.0
O388 O 0.18602 0.61747 0.20897 0.0
O389 O 0.10876 0.60516 0.1298 0.0
C390 C 0.15231 0.44035 0.86689 0.0
O391 O 0.1434 0.44579 0.90413 0.0
O392 O 0.14689 0.39623 0.95156 0.0
Zn393 Zn 0.13574 0.39315 0.89139 0.0
O394 O 0.09946 0.39857 0.88984 0.0
C395 C 0.16085 0.34669 0.87563 0.0
O396 O 0.17913 0.35646 0.89641 0.0
O397 O 0.15183 0.41829 0.85462 0.0
C398 C 0.08914 0.4013 0.85436 0.0
O399 O 0.10259 0.4011 0.82012 0.0
C400 C 0.14507 0.37801 0.97607 0.0
O401 O 0.13634 0.35736 0.96148 0.0
O402 O 0.14166 0.35919 0.86932 0.0
C403 C 0.31695 0.41586 0.60511 0.0
O404 O 0.3114 0.41513 0.64529 0.0
O405 O 0.35621 0.40032 0.69232 0.0
Zn406 Zn 0.3598 0.38904 0.6322 0.0
O407 O 0.35184 0.35323 0.62932 0.0
C408 C 0.4094 0.40751 0.63213 0.0
O409 O 0.40115 0.42162 0.66238 0.0
O410 O 0.33707 0.40678 0.59279 0.0
C411 C 0.36372 0.33819 0.65182 0.0
O412 O 0.38098 0.34641 0.67677 0.0
C413 C 0.34102 0.39038 0.71723 0.0
O414 O 0.32649 0.37321 0.70294 0.0
O415 O 0.39483 0.39285 0.61398 0.0
H416 H 0.16703 0.06947 0.27416 0.0
H417 H 0.16943 0.92726 0.22525 0.0
H418 H 0.16861 0.01391 0.37041 0.0
H419 H 0.17563 0.98279 0.12952 0.0
H420 H 0.17411 0.95864 0.27917 0.0
H421 H 0.17512 0.03819 0.22122 0.0
C422 C 0.16936 0.05074 0.28424 0.0
C423 C 0.16676 0.04425 0.32673 0.0
C424 C 0.17476 0.96394 0.24636 0.0
C425 C 0.17582 0.00831 0.26622 0.0
C426 C 0.17208 0.94601 0.21553 0.0
C427 C 0.17175 0.95245 0.1728 0.0
C428 C 0.17689 0.98852 0.23441 0.0
C429 C 0.17552 0.97701 0.16209 0.0
C430 C 0.174 0.03287 0.25398 0.0
C431 C 0.17021 0.01973 0.33798 0.0
N432 N 0.17758 0.99419 0.1927 0.0
N433 N 0.17423 0.00261 0.30784 0.0
H434 H 0.17813 0.92242 0.51713 0.0
H435 H 0.3206 0.92165 0.47239 0.0
H436 H 0.23254 0.93058 0.61434 0.0
H437 H 0.26611 0.92373 0.37436 0.0
H438 H 0.28878 0.92972 0.52437 0.0
H439 H 0.20989 0.92775 0.46405 0.0
C440 C 0.1967 0.92566 0.52734 0.0
C441 C 0.20274 0.92566 0.57025 0.0
C442 C 0.28381 0.92874 0.49143 0.0
C443 C 0.23926 0.93151 0.50962 0.0
C444 C 0.30199 0.92411 0.46172 0.0
C445 C 0.29596 0.92163 0.41901 0.0
C446 C 0.25939 0.93065 0.47842 0.0
C447 C 0.27157 0.92524 0.40699 0.0
C448 C 0.21485 0.92871 0.49699 0.0
C449 C 0.22708 0.93019 0.58162 0.0
N450 N 0.25413 0.92921 0.4366 0.0
N451 N 0.2445 0.93256 0.55148 0.0
H452 H 0.32813 0.07031 0.73051 0.0
H453 H 0.33184 0.92745 0.76999 0.0
H454 H 0.32309 0.01695 0.63092 0.0
H455 H 0.32576 0.98051 0.86989 0.0
H456 H 0.32407 0.9597 0.71874 0.0
H457 H 0.32258 0.03777 0.78209 0.0
C458 C 0.32552 0.0518 0.71944 0.0
C459 C 0.32648 0.04629 0.67634 0.0
C460 C 0.32411 0.96425 0.7519 0.0
C461 C 0.32038 0.00891 0.73526 0.0
C462 C 0.32858 0.94583 0.7812 0.0
C463 C 0.32983 0.95135 0.82427 0.0
C464 C 0.32115 0.98842 0.76572 0.0
C465 C 0.32521 0.97544 0.83698 0.0
C466 C 0.32234 0.03321 0.74894 0.0
C467 C 0.32274 0.02201 0.66384 0.0
N468 N 0.32143 0.99315 0.8078 0.0
N469 N 0.32023 0.00417 0.69318 0.0
H470 H 0.18062 0.08414 0.97818 0.0
H471 H 0.32282 0.07988 0.0253 0.0
H472 H 0.23555 0.07836 0.88126 0.0
H473 H 0.2676 0.07633 0.12204 0.0
H474 H 0.29118 0.07431 0.97211 0.0
H475 H 0.21192 0.07638 0.03117 0.0
C476 C 0.19922 0.08095 0.96799 0.0
C477 C 0.20554 0.08229 0.92526 0.0
C478 C 0.286 0.07441 0.005 0.0
C479 C 0.24152 0.0736 0.98581 0.0
C480 C 0.30408 0.0776 0.03541 0.0
C481 C 0.29781 0.07898 0.07817 0.0
C482 C 0.26144 0.07285 0.01738 0.0
C483 C 0.27326 0.07565 0.08943 0.0
C484 C 0.21709 0.07649 0.99828 0.0
C485 C 0.22988 0.07774 0.91387 0.0
N486 N 0.25593 0.07311 0.05918 0.0
N487 N 0.24704 0.07395 0.94401 0.0
H488 H 0.82282 0.98124 0.6278 0.0
H489 H 0.8283 0.01409 0.87272 0.0
H490 H 0.83288 0.92792 0.72626 0.0
H491 H 0.83407 0.06736 0.77315 0.0
H492 H 0.82095 0.98247 0.82001 0.0
H493 H 0.8178 0.01283 0.68136 0.0
C494 C 0.82362 0.97608 0.66067 0.0
C495 C 0.82867 0.95193 0.67255 0.0
C496 C 0.82357 0.00113 0.80975 0.0
C497 C 0.82301 0.98806 0.73397 0.0
C498 C 0.82771 0.01922 0.83982 0.0
C499 C 0.83218 0.04337 0.8273 0.0
C500 C 0.82381 0.00723 0.76684 0.0
C501 C 0.83103 0.04894 0.78422 0.0
C502 C 0.82083 0.99416 0.69123 0.0
C503 C 0.82933 0.94634 0.71565 0.0
N504 N 0.82717 0.03096 0.75552 0.0
N505 N 0.82679 0.96431 0.74479 0.0
H506 H 0.76162 0.07676 0.38087 0.0
H507 H 0.73207 0.07847 0.62718 0.0
H508 H 0.81656 0.08219 0.47779 0.0
H509 H 0.6776 0.08647 0.53001 0.0
H510 H 0.76286 0.07128 0.57294 0.0
H511 H 0.73054 0.07165 0.43527 0.0
C512 C 0.76722 0.07654 0.41355 0.0
C513 C 0.7917 0.0803 0.4248 0.0
C514 C 0.74412 0.07436 0.56353 0.0
C515 C 0.75617 0.07456 0.48721 0.0
C516 C 0.7265 0.07841 0.59448 0.0
C517 C 0.70227 0.08344 0.5831 0.0
C518 C 0.73746 0.07528 0.52089 0.0
C519 C 0.69612 0.08296 0.54022 0.0
C520 C 0.74943 0.07369 0.4446 0.0
C521 C 0.79787 0.07966 0.46767 0.0
N522 N 0.71364 0.0792 0.51067 0.0
N523 N 0.78019 0.07712 0.49732 0.0
H524 H 0.67185 0.92968 0.27399 0.0
H525 H 0.67128 0.07251 0.23454 0.0
H526 H 0.67554 0.98293 0.37392 0.0
H527 H 0.67932 0.01947 0.13503 0.0
H528 H 0.67745 0.04016 0.28622 0.0
H529 H 0.67918 0.96212 0.22287 0.0
C530 C 0.67452 0.94814 0.28525 0.0
C531 C 0.67268 0.95365 0.32827 0.0
C532 C 0.67821 0.03563 0.25308 0.0
C533 C 0.68085 0.99092 0.26987 0.0
C534 C 0.67467 0.05411 0.22353 0.0
C535 C 0.6744 0.04863 0.1804 0.0
C536 C 0.68121 0.01143 0.23943 0.0
C537 C 0.67913 0.02451 0.16796 0.0
C538 C 0.67873 0.96667 0.25603 0.0
C539 C 0.67654 0.97786 0.34105 0.0
N540 N 0.68196 0.00673 0.19735 0.0
N541 N 0.68008 0.99566 0.31193 0.0
H542 H 0.68155 0.91872 0.97721 0.0
H543 H 0.77565 0.94038 0.11815 0.0
H544 H 0.73684 0.92046 0.88045 0.0
H545 H 0.8209 0.91036 0.01967 0.0
H546 H 0.74256 0.94525 0.06741 0.0
H547 H 0.71284 0.92673 0.02979 0.0
C548 C 0.70022 0.92128 0.96692 0.0
C549 C 0.70659 0.91868 0.92437 0.0
C550 C 0.75965 0.93746 0.0569 0.0
C551 C 0.74265 0.92826 0.98448 0.0
C552 C 0.77869 0.93494 0.0858 0.0
C553 C 0.80094 0.92448 0.07335 0.0
C554 C 0.76289 0.92933 0.01531 0.0
C555 C 0.80394 0.91812 0.03087 0.0
C556 C 0.71813 0.9261 0.99702 0.0
C557 C 0.73108 0.92218 0.9129 0.0
N558 N 0.78506 0.92047 0.0035 0.0
N559 N 0.74826 0.9264 0.94286 0.0
H560 H 0.67825 0.48424 0.63336 0.0
H561 H 0.66018 0.51193 0.87832 0.0
H562 H 0.66244 0.42895 0.72621 0.0
H563 H 0.66462 0.56764 0.7826 0.0
H564 H 0.66877 0.48105 0.82489 0.0
H565 H 0.68127 0.51446 0.68958 0.0
C566 C 0.67573 0.47836 0.66561 0.0
C567 C 0.66971 0.45407 0.67501 0.0
C568 C 0.6681 0.50006 0.81566 0.0
C569 C 0.67302 0.48865 0.73951 0.0
C570 C 0.66323 0.51772 0.84616 0.0
C571 C 0.66133 0.5424 0.83483 0.0
C572 C 0.67112 0.5071 0.7735 0.0
C573 C 0.66564 0.54881 0.79271 0.0
C574 C 0.6774 0.49566 0.69769 0.0
C575 C 0.66685 0.44752 0.71743 0.0
N576 N 0.67012 0.53125 0.76352 0.0
N577 N 0.66828 0.46476 0.74807 0.0
H578 H 0.82265 0.41705 0.96869 0.0
H579 H 0.73077 0.4375 0.11499 0.0
H580 H 0.76623 0.42349 0.87455 0.0
H581 H 0.68348 0.41197 0.01567 0.0
H582 H 0.76355 0.44249 0.06366 0.0
H583 H 0.79225 0.42427 0.02323 0.0
C584 C 0.80394 0.42048 0.95943 0.0
C585 C 0.79696 0.41944 0.91698 0.0
C586 C 0.74609 0.43565 0.05309 0.0
C587 C 0.76195 0.4281 0.97934 0.0
C588 C 0.72723 0.43306 0.08235 0.0
C589 C 0.70447 0.42385 0.06976 0.0
C590 C 0.74213 0.42886 0.01098 0.0
C591 C 0.70084 0.41875 0.02694 0.0
C592 C 0.78655 0.42483 0.99067 0.0
C593 C 0.77244 0.42398 0.90687 0.0
N594 N 0.71952 0.42116 -0.00082 0.0
N595 N 0.75578 0.42774 0.93786 0.0
H596 H 0.81834 0.48021 0.36512 0.0
H597 H 0.82324 0.51933 0.12302 0.0
H598 H 0.83076 0.42972 0.26301 0.0
H599 H 0.83274 0.56946 0.22656 0.0
H600 H 0.81558 0.48653 0.17347 0.0
H601 H 0.81299 0.513 0.31384 0.0
C602 C 0.81954 0.47591 0.33192 0.0
C603 C 0.8254 0.45226 0.31834 0.0
C604 C 0.81907 0.50478 0.18506 0.0
C605 C 0.81934 0.48969 0.25963 0.0
C606 C 0.82338 0.52353 0.15632 0.0
C607 C 0.82902 0.5471 0.17064 0.0
C608 C 0.82021 0.50968 0.22838 0.0
C609 C 0.82881 0.55149 0.21416 0.0
C610 C 0.81658 0.49467 0.3027 0.0
C611 C 0.8266 0.44776 0.27489 0.0
N612 N 0.82469 0.53291 0.24151 0.0
N613 N 0.82383 0.46636 0.24707 0.0
H614 H 0.68024 0.57675 0.48265 0.0
H615 H 0.823 0.5814 0.52229 0.0
H616 H 0.73339 0.57691 0.38232 0.0
H617 H 0.77045 0.56729 0.62058 0.0
H618 H 0.79082 0.57588 0.46997 0.0
H619 H 0.71304 0.56936 0.53311 0.0
C620 C 0.69877 0.57493 0.47116 0.0
C621 C 0.70412 0.57782 0.42826 0.0
C622 C 0.78639 0.57365 0.50295 0.0
C623 C 0.74179 0.56962 0.4859 0.0
C624 C 0.80477 0.57682 0.53286 0.0
C625 C 0.79934 0.57518 0.57592 0.0
C626 C 0.76235 0.5691 0.51622 0.0
C627 C 0.77543 0.56899 0.58775 0.0
C628 C 0.7175 0.57068 0.49999 0.0
C629 C 0.72843 0.57505 0.41514 0.0
N630 N 0.75775 0.56654 0.5581 0.0
N631 N 0.74641 0.57147 0.44391 0.0
H632 H 0.32219 0.4813 0.12235 0.0
H633 H 0.31879 0.5173 0.366 0.0
H634 H 0.33045 0.42948 0.22366 0.0
H635 H 0.33069 0.56893 0.26548 0.0
H636 H 0.31279 0.48517 0.31366 0.0
H637 H 0.31501 0.51347 0.17415 0.0
C638 C 0.32214 0.47659 0.15544 0.0
C639 C 0.32733 0.45272 0.16872 0.0
C640 C 0.31642 0.5036 0.3031 0.0
C641 C 0.31915 0.48948 0.22807 0.0
C642 C 0.31977 0.52199 0.33293 0.0
C643 C 0.32564 0.54578 0.32009 0.0
C644 C 0.31881 0.50908 0.26015 0.0
C645 C 0.32654 0.55078 0.2768 0.0
C646 C 0.31811 0.495 0.18498 0.0
C647 C 0.32685 0.44769 0.21203 0.0
N648 N 0.32339 0.53253 0.24838 0.0
N649 N 0.32308 0.46597 0.24018 0.0
H650 H 0.23223 0.56488 0.12041 0.0
H651 H 0.26167 0.57447 0.87455 0.0
H652 H 0.17843 0.58125 0.02529 0.0
H653 H 0.31681 0.57858 0.97133 0.0
H654 H 0.23089 0.56732 0.92865 0.0
H655 H 0.26299 0.56029 0.06513 0.0
C656 C 0.22677 0.56712 0.08789 0.0
C657 C 0.20277 0.57377 0.07748 0.0
C658 C 0.24976 0.56955 0.93801 0.0
C659 C 0.23789 0.56856 0.01422 0.0
C660 C 0.26739 0.57358 0.90714 0.0
C661 C 0.29184 0.57751 0.91846 0.0
C662 C 0.2566 0.56933 0.98056 0.0
C663 C 0.29815 0.57593 0.9612 0.0
C664 C 0.24438 0.5646 0.0564 0.0
C665 C 0.19677 0.57639 0.03479 0.0
N666 N 0.28059 0.57217 0.99076 0.0
N667 N 0.21425 0.57394 0.00476 0.0
H668 H 0.15329 0.48955 0.88162 0.0
H669 H 0.18069 0.52258 0.64125 0.0
H670 H 0.16893 0.43588 0.78584 0.0
H671 H 0.1578 0.57508 0.7346 0.0
H672 H 0.18326 0.49155 0.69628 0.0
H673 H 0.16158 0.52183 0.8307 0.0
C674 C 0.15872 0.48453 0.85001 0.0
C675 C 0.1601 0.45995 0.83785 0.0
C676 C 0.17792 0.50993 0.70478 0.0
C677 C 0.16952 0.49687 0.77929 0.0
C678 C 0.17651 0.52769 0.67339 0.0
C679 C 0.1687 0.5514 0.68321 0.0
C680 C 0.17147 0.51592 0.74631 0.0
C681 C 0.16366 0.55697 0.72547 0.0
C682 C 0.16342 0.503 0.82091 0.0
C683 C 0.16741 0.45458 0.79651 0.0
N684 N 0.1649 0.53931 0.75536 0.0
N685 N 0.17162 0.47289 0.76861 0.0
H686 H 0.17984 0.42092 0.47938 0.0
H687 H 0.32258 0.42127 0.51992 0.0
H688 H 0.2332 0.42624 0.37983 0.0
H689 H 0.26911 0.42777 0.61912 0.0
H690 H 0.29033 0.42773 0.4681 0.0
H691 H 0.2121 0.42806 0.53087 0.0
C692 C 0.19829 0.4239 0.4683 0.0
C693 C 0.20389 0.4226 0.42526 0.0
C694 C 0.28569 0.42809 0.50122 0.0
C695 C 0.24099 0.43053 0.4841 0.0
C696 C 0.30411 0.42438 0.53085 0.0
C697 C 0.29848 0.42358 0.57391 0.0
C698 C 0.26142 0.43074 0.51471 0.0
C699 C 0.27427 0.42798 0.58624 0.0
C700 C 0.21673 0.42801 0.49774 0.0
C701 C 0.22808 0.42686 0.41272 0.0
N702 N 0.25657 0.431 0.55676 0.0
N703 N 0.2458 0.43026 0.44204 0.0
H704 H 0.12375 0.17954 0.33138 0.0
H705 H 0.16713 0.31209 0.40656 0.0
H706 H 0.17932 0.19147 0.42548 0.0
H707 H 0.11123 0.29984 0.3132 0.0
H708 H 0.17307 0.26801 0.41195 0.0
H709 H 0.12044 0.22359 0.32175 0.0
C710 C 0.13539 0.1914 0.34982 0.0
C711 C 0.15176 0.18177 0.37944 0.0
C712 C 0.15953 0.27496 0.39023 0.0
C713 C 0.14793 0.2323 0.36876 0.0
C714 C 0.1561 0.30014 0.38719 0.0
C715 C 0.13858 0.30968 0.3595 0.0
C716 C 0.14534 0.25919 0.36543 0.0
C717 C 0.12488 0.29332 0.33508 0.0
C718 C 0.13345 0.21658 0.34437 0.0
C719 C 0.16639 0.19806 0.40238 0.0
N720 N 0.12853 0.26889 0.33868 0.0
N721 N 0.16404 0.22253 0.3967 0.0
H722 H 0.94946 0.86423 0.54754 0.0
H723 H 0.05515 0.93576 0.67028 0.0
H724 H 0.93581 0.91842 0.64333 0.0
H725 H 0.06876 0.88117 0.57513 0.0
H726 H 0.01137 0.93143 0.65789 0.0
H727 H 0.99321 0.87176 0.55455 0.0
C728 C 0.95564 0.87776 0.56998 0.0
C729 C 0.93893 0.89063 0.59503 0.0
C730 C 0.02394 0.92049 0.63955 0.0
C731 C 0.98903 0.89935 0.60323 0.0
C732 C 0.04897 0.92299 0.64656 0.0
C733 C 0.06568 0.90872 0.62386 0.0
C734 C 0.01553 0.90357 0.60968 0.0
C735 C 0.05656 0.89249 0.59348 0.0
C736 C 0.98064 0.88207 0.57395 0.0
C737 C 0.94802 0.90801 0.62347 0.0
N738 N 0.03212 0.89028 0.58744 0.0
N739 N 0.97245 0.91179 0.62689 0.0
H740 H 0.37221 0.81678 0.82101 0.0
H741 H 0.32947 0.68333 0.89222 0.0
H742 H 0.3197 0.80349 0.91971 0.0
H743 H 0.38154 0.69666 0.79286 0.0
H744 H 0.32434 0.72732 0.90072 0.0
H745 H 0.37433 0.77293 0.80788 0.0
C746 C 0.36099 0.80467 0.83975 0.0
C747 C 0.34583 0.81385 0.87167 0.0
C748 C 0.33683 0.72063 0.87697 0.0
C749 C 0.3483 0.76355 0.85693 0.0
C750 C 0.3398 0.6955 0.87212 0.0
C751 C 0.35605 0.68627 0.84189 0.0
C752 C 0.35024 0.73671 0.85146 0.0
C753 C 0.36887 0.70293 0.81666 0.0
C754 C 0.36225 0.7796 0.83227 0.0
C755 C 0.3317 0.79725 0.89487 0.0
N756 N 0.36575 0.72733 0.82211 0.0
N757 N 0.33337 0.77291 0.88719 0.0
H758 H 0.44502 0.06487 0.1757 0.0
H759 H 0.55245 0.13536 0.05575 0.0
H760 H 0.43292 0.12051 0.08184 0.0
H761 H 0.56485 0.08106 0.15178 0.0
H762 H 0.50862 0.12814 0.06155 0.0
H763 H 0.48894 0.06834 0.16374 0.0
C764 C 0.45157 0.07768 0.15234 0.0
C765 C 0.43525 0.09253 0.12993 0.0
C766 C 0.52092 0.11773 0.08126 0.0
C767 C 0.48554 0.09669 0.11626 0.0
C768 C 0.54598 0.12186 0.07798 0.0
C769 C 0.56236 0.10891 0.10351 0.0
C770 C 0.51213 0.10054 0.11032 0.0
C771 C 0.55289 0.09156 0.13161 0.0
C772 C 0.47667 0.07969 0.14559 0.0
C773 C 0.44481 0.10877 0.1 0.0
N774 N 0.5284 0.08795 0.13438 0.0
N775 N 0.46931 0.1105 0.09421 0.0
H776 H 0.15079 0.69994 0.22392 0.0
H777 H 0.1592 0.8012 0.04312 0.0
H778 H 0.15927 0.68336 0.09188 0.0
H779 H 0.15033 0.81838 0.17485 0.0
H780 H 0.16177 0.75804 0.06111 0.0
H781 H 0.15312 0.7434 0.20729 0.0
C782 C 0.15329 0.70541 0.19145 0.0
C783 C 0.1547 0.68795 0.15921 0.0
C784 C 0.15937 0.77123 0.08614 0.0
C785 C 0.1573 0.73771 0.13996 0.0
C786 C 0.1579 0.79592 0.07588 0.0
C787 C 0.15441 0.81346 0.1075 0.0
C788 C 0.15727 0.76394 0.12834 0.0
C789 C 0.15296 0.8055 0.14942 0.0
C790 C 0.1546 0.73025 0.18199 0.0
C791 C 0.15799 0.69614 0.11775 0.0
N792 N 0.15427 0.78131 0.1586 0.0
N793 N 0.15906 0.72042 0.10932 0.0
H794 H 0.56422 0.92178 0.35556 0.0
H795 H 0.43044 0.87678 0.4207 0.0
H796 H 0.55037 0.86346 0.44368 0.0
H797 H 0.44401 0.9338 0.32995 0.0
H798 H 0.47427 0.87372 0.43328 0.0
H799 H 0.52026 0.92835 0.34924 0.0
C800 C 0.55195 0.9104 0.37371 0.0
C801 C 0.56101 0.89194 0.40002 0.0
C802 C 0.46767 0.887 0.41078 0.0
C803 C 0.51063 0.89937 0.39291 0.0
C804 C 0.44261 0.88879 0.40362 0.0
C805 C 0.43351 0.90548 0.37402 0.0
C806 C 0.48381 0.90196 0.38814 0.0
C807 C 0.45019 0.92061 0.35293 0.0
C808 C 0.52684 0.91418 0.37009 0.0
C809 C 0.54423 0.87783 0.42287 0.0
N810 N 0.47453 0.91839 0.36023 0.0
N811 N 0.51987 0.88179 0.41866 0.0
H812 H 0.37001 0.18124 0.67649 0.0
H813 H 0.32967 0.31497 0.60293 0.0
H814 H 0.31552 0.19482 0.58121 0.0
H815 H 0.38567 0.30113 0.69545 0.0
H816 H 0.32224 0.27112 0.59796 0.0
H817 H 0.37377 0.22514 0.68762 0.0
C818 C 0.35868 0.19343 0.65811 0.0
C819 C 0.34252 0.1843 0.62766 0.0
C820 C 0.33609 0.27767 0.61946 0.0
C821 C 0.34686 0.23468 0.6401 0.0
C822 C 0.34036 0.30273 0.62231 0.0
C823 C 0.35843 0.31175 0.64948 0.0
C824 C 0.34999 0.26148 0.64394 0.0
C825 C 0.37164 0.29501 0.67393 0.0
C826 C 0.36088 0.21852 0.66444 0.0
C827 C 0.32829 0.20101 0.60489 0.0
N828 N 0.36721 0.2707 0.67046 0.0
N829 N 0.3309 0.22539 0.61141 0.0
H830 H 0.06083 0.06505 0.84002 0.0
H831 H 0.95064 0.13937 0.94492 0.0
H832 H 0.0707 0.12846 0.91885 0.0
H833 H 0.94047 0.07829 0.86092 0.0
H834 H 0.99475 0.13383 0.93971 0.0
H835 H 0.01683 0.06768 0.85156 0.0
C836 C 0.05378 0.07943 0.86 0.0
C837 C 0.0695 0.09664 0.87831 0.0
C838 C 0.98288 0.12158 0.92251 0.0
C839 C 0.01909 0.09982 0.8915 0.0
C840 C 0.95767 0.12473 0.92548 0.0
C841 C 0.94181 0.10935 0.90314 0.0
C842 C 0.99236 0.10291 0.89702 0.0
C843 C 0.95199 0.09065 0.87855 0.0
C844 C 0.02863 0.08095 0.86651 0.0
C845 C 0.05929 0.11484 0.90396 0.0
N846 N 0.97661 0.08801 0.87605 0.0
N847 N 0.03474 0.11602 0.90962 0.0
H848 H 0.88088 0.69825 0.70759 0.0
H849 H 0.82276 0.80285 0.56301 0.0
H850 H 0.83609 0.68382 0.59862 0.0
H851 H 0.86757 0.81739 0.67191 0.0
H852 H 0.82571 0.75922 0.57771 0.0
H853 H 0.87468 0.74195 0.69695 0.0
C854 C 0.8697 0.70425 0.68146 0.0
C855 C 0.85908 0.68732 0.65384 0.0
C856 C 0.8348 0.77195 0.59853 0.0
C857 C 0.85191 0.73739 0.64148 0.0
C858 C 0.83309 0.7969 0.59019 0.0
C859 C 0.84503 0.81384 0.61616 0.0
C860 C 0.84858 0.76383 0.63305 0.0
C861 C 0.85812 0.80501 0.65095 0.0
C862 C 0.86615 0.72923 0.67543 0.0
C863 C 0.8447 0.69619 0.62064 0.0
N864 N 0.85964 0.78062 0.65826 0.0
N865 N 0.84161 0.7206 0.61532 0.0
H866 H 0.93915 0.06206 0.3336 0.0
H867 H 0.04688 0.13495 0.44834 0.0
H868 H 0.92732 0.12141 0.42061 0.0
H869 H 0.05906 0.07656 0.35956 0.0
H870 H 0.00297 0.12842 0.44203 0.0
H871 H 0.98302 0.06512 0.34641 0.0
C872 C 0.94574 0.07562 0.35564 0.0
C873 C 0.92951 0.0916 0.37586 0.0
C874 C 0.01523 0.11696 0.42404 0.0
C875 C 0.97975 0.09529 0.39052 0.0
C876 C 0.04034 0.12069 0.42762 0.0
C877 C 0.0567 0.10638 0.40426 0.0
C878 C 0.00636 0.0988 0.39685 0.0
C879 C 0.04713 0.0881 0.37804 0.0
C880 C 0.97081 0.07738 0.36288 0.0
C881 C 0.93913 0.10877 0.40416 0.0
N882 N 0.0226 0.08491 0.37491 0.0
N883 N 0.96361 0.11024 0.41046 0.0
H884 H 0.61577 0.30356 0.20063 0.0
H885 H 0.68861 0.19441 0.08965 0.0
H886 H 0.67333 0.31443 0.10973 0.0
H887 H 0.62922 0.18358 0.177 0.0
H888 H 0.68549 0.23839 0.10089 0.0
H889 H 0.62252 0.25958 0.19642 0.0
C890 C 0.62991 0.29672 0.17991 0.0
C891 C 0.6439 0.31272 0.1553 0.0
C892 C 0.67323 0.22638 0.11779 0.0
C893 C 0.65171 0.26233 0.15029 0.0
C894 C 0.67503 0.20124 0.11145 0.0
C895 C 0.65905 0.18526 0.13221 0.0
C896 C 0.6553 0.23565 0.14507 0.0
C897 C 0.64186 0.1952 0.16016 0.0
C898 C 0.63375 0.27158 0.17752 0.0
C899 C 0.66202 0.30279 0.12913 0.0
N900 N 0.64036 0.21975 0.16558 0.0
N901 N 0.66532 0.27824 0.1272 0.0
H902 H 0.55961 0.93354 0.83074 0.0
H903 H 0.45127 0.86136 0.94515 0.0
H904 H 0.57101 0.87572 0.92085 0.0
H905 H 0.43956 0.91815 0.85323 0.0
H906 H 0.49518 0.86817 0.93987 0.0
H907 H 0.51563 0.93016 0.8421 0.0
C908 C 0.5529 0.92026 0.85316 0.0
C909 C 0.56905 0.9048 0.87469 0.0
C910 C 0.48302 0.87921 0.92094 0.0
C911 C 0.51867 0.90074 0.88767 0.0
C912 C 0.45791 0.87532 0.92392 0.0
C913 C 0.44169 0.88911 0.89942 0.0
C914 C 0.49203 0.89701 0.89321 0.0
C915 C 0.45138 0.90701 0.8726 0.0
C916 C 0.52776 0.91831 0.85956 0.0
C917 C 0.55927 0.88797 0.90342 0.0
N918 N 0.47592 0.91038 0.8701 0.0
N919 N 0.53473 0.8863 0.90888 0.0
H920 H 0.8324 0.31306 0.89109 0.0
H921 H 0.87119 0.17807 0.8216 0.0
H922 H 0.88197 0.29768 0.78883 0.0
H923 H 0.82215 0.19351 0.92461 0.0
H924 H 0.87345 0.22168 0.80644 0.0
H925 H 0.82672 0.26928 0.90141 0.0
C926 C 0.84205 0.30049 0.87072 0.0
C927 C 0.85779 0.30908 0.83916 0.0
C928 C 0.86209 0.21553 0.83222 0.0
C929 C 0.85135 0.25886 0.85084 0.0
C930 C 0.86075 0.1906 0.84087 0.0
C931 C 0.84655 0.18209 0.87459 0.0
C932 C 0.84918 0.23213 0.85751 0.0
C933 C 0.8334 0.19922 0.89839 0.0
C934 C 0.83878 0.27547 0.87662 0.0
C935 C 0.86973 0.29191 0.81365 0.0
N936 N 0.83514 0.22341 0.88953 0.0
N937 N 0.86633 0.26763 0.82014 0.0
H938 H 0.56794 0.12261 0.58271 0.0
H939 H 0.43408 0.07915 0.65018 0.0
H940 H 0.55419 0.06872 0.67892 0.0
H941 H 0.44813 0.13494 0.5574 0.0
H942 H 0.47801 0.0728 0.6574 0.0
H943 H 0.52419 0.12488 0.56901 0.0
C944 C 0.55575 0.11111 0.60078 0.0
C945 C 0.56477 0.09557 0.63225 0.0
C946 C 0.47148 0.08636 0.63533 0.0
C947 C 0.51455 0.0982 0.61683 0.0
C948 C 0.44639 0.09001 0.63119 0.0
C949 C 0.43739 0.10773 0.60332 0.0
C950 C 0.48774 0.10053 0.61146 0.0
C951 C 0.45422 0.12117 0.57943 0.0
C952 C 0.53074 0.11245 0.59296 0.0
C953 C 0.54807 0.08104 0.6545 0.0
N954 N 0.47857 0.11736 0.58417 0.0
N955 N 0.52376 0.08282 0.64653 0.0
H956 H 0.67126 0.68554 0.40015 0.0
H957 H 0.62765 0.81847 0.32786 0.0
H958 H 0.61293 0.69835 0.31155 0.0
H959 H 0.68501 0.80594 0.41844 0.0
H960 H 0.62406 0.77448 0.31768 0.0
H961 H 0.67839 0.72949 0.40387 0.0
C962 C 0.65999 0.69758 0.38138 0.0
C963 C 0.64136 0.68824 0.35568 0.0
C964 C 0.63753 0.78134 0.3396 0.0
C965 C 0.64945 0.73861 0.35978 0.0
C966 C 0.63964 0.80649 0.34538 0.0
C967 C 0.65656 0.81594 0.37426 0.0
C968 C 0.65242 0.76546 0.36293 0.0
C969 C 0.67164 0.7995 0.39597 0.0
C970 C 0.66408 0.72268 0.3835 0.0
C971 C 0.62741 0.70472 0.33195 0.0
N972 N 0.66911 0.77507 0.39005 0.0
N973 N 0.63168 0.72909 0.33469 0.0
H974 H 0.94723 0.933 0.17069 0.0
H975 H 0.05305 0.86309 0.0452 0.0
H976 H 0.93363 0.87761 0.07694 0.0
H977 H 0.06654 0.91637 0.14256 0.0
H978 H 0.00924 0.86994 0.0533 0.0
H979 H 0.99096 0.92913 0.15739 0.0
C980 C 0.9534 0.92014 0.14709 0.0
C981 C 0.9367 0.90551 0.12506 0.0
C982 C 0.02178 0.88018 0.07282 0.0
C983 C 0.98683 0.90091 0.10982 0.0
C984 C 0.04682 0.87627 0.06822 0.0
C985 C 0.06352 0.88908 0.09338 0.0
C986 C 0.01334 0.89704 0.1028 0.0
C987 C 0.05436 0.906 0.12259 0.0
C988 C 0.97841 0.9179 0.13957 0.0
C989 C 0.94582 0.8892 0.0948 0.0
N990 N 0.0299 0.90942 0.12656 0.0
N991 N 0.97025 0.88726 0.08822 0.0
H992 H 0.61568 0.79891 0.8026 0.0
H993 H 0.68415 0.69033 0.92276 0.0
H994 H 0.67248 0.81039 0.89464 0.0
H995 H 0.62602 0.67938 0.83302 0.0
H996 H 0.68246 0.73416 0.90884 0.0
H997 H 0.62138 0.75494 0.80957 0.0
C998 C 0.62942 0.7922 0.82418 0.0
C999 C 0.64351 0.80838 0.84828 0.0
C1000 C 0.67018 0.72214 0.89201 0.0
C1001 C 0.65013 0.75797 0.85646 0.0
C1002 C 0.67117 0.69709 0.89987 0.0
C1003 C 0.65509 0.68114 0.87925 0.0
C1004 C 0.65297 0.73133 0.86334 0.0
C1005 C 0.63869 0.69098 0.84985 0.0
C1006 C 0.63268 0.76706 0.82813 0.0
C1007 C 0.66112 0.7986 0.87558 0.0
N1008 N 0.63796 0.71543 0.84297 0.0
N1009 N 0.66385 0.77403 0.87907 0.0
H1010 H 0.43717 0.42165 0.1406 0.0
H1011 H 0.57092 0.37811 0.07239 0.0
H1012 H 0.4509 0.36375 0.05153 0.0
H1013 H 0.55735 0.43567 0.1622 0.0
H1014 H 0.52703 0.37446 0.06085 0.0
H1015 H 0.48108 0.42872 0.1458 0.0
C1016 C 0.4494 0.41046 0.12203 0.0
C1017 C 0.44033 0.39198 0.09576 0.0
C1018 C 0.53364 0.38799 0.08291 0.0
C1019 C 0.49067 0.39999 0.10157 0.0
C1020 C 0.55873 0.39012 0.08947 0.0
C1021 C 0.56786 0.40713 0.11851 0.0
C1022 C 0.5175 0.40293 0.10562 0.0
C1023 C 0.55116 0.42223 0.13963 0.0
C1024 C 0.47449 0.41453 0.125 0.0
C1025 C 0.45706 0.37813 0.07233 0.0
N1026 N 0.5268 0.41968 0.13295 0.0
N1027 N 0.48141 0.38236 0.07591 0.0
H1028 H 0.82461 0.18612 0.38783 0.0
H1029 H 0.87237 0.31819 0.31896 0.0
H1030 H 0.88414 0.1978 0.30109 0.0
H1031 H 0.81273 0.30669 0.40554 0.0
H1032 H 0.87517 0.27416 0.3085 0.0
H1033 H 0.81839 0.2302 0.39156 0.0
C1034 C 0.83633 0.19794 0.36945 0.0
C1035 C 0.85503 0.18824 0.34429 0.0
C1036 C 0.86137 0.28126 0.3296 0.0
C1037 C 0.84799 0.23876 0.34843 0.0
C1038 C 0.85973 0.30643 0.33555 0.0
C1039 C 0.84238 0.31616 0.36339 0.0
C1040 C 0.8456 0.26566 0.35173 0.0
C1041 C 0.82645 0.30001 0.3839 0.0
C1042 C 0.83275 0.22312 0.37158 0.0
C1043 C 0.86957 0.20445 0.32105 0.0
N1044 N 0.82855 0.27555 0.37786 0.0
N1045 N 0.86581 0.2289 0.32382 0.0
H1046 H 0.93642 0.60257 0.58984 0.0
H1047 H 0.06233 0.5938 0.71701 0.0
H1048 H 0.94184 0.59232 0.72422 0.0
H1049 H 0.0589 0.6053 0.58273 0.0
H1050 H 0.01801 0.59068 0.71887 0.0
H1051 H 0.98108 0.60101 0.58514 0.0
C1052 C 0.94696 0.59982 0.61827 0.0
C1053 C 0.93537 0.59773 0.65752 0.0
C1054 C 0.0269 0.59381 0.68892 0.0
C1055 C 0.98635 0.59601 0.65239 0.0
C1056 C 0.05226 0.5956 0.68784 0.0
C1057 C 0.06437 0.59997 0.6497 0.0
C1058 C 0.01343 0.59646 0.65159 0.0
C1059 C 0.05031 0.60201 0.61288 0.0
C1060 C 0.97243 0.59898 0.61558 0.0
C1061 C 0.94994 0.59419 0.69331 0.0
N1062 N 0.02556 0.60036 0.61477 0.0
N1063 N 0.9746 0.59354 0.68989 0.0
H1064 H 0.64826 0.19538 0.67257 0.0
H1065 H 0.65884 0.3113 0.52061 0.0
H1066 H 0.65648 0.19092 0.53765 0.0
H1067 H 0.648 0.31722 0.65481 0.0
H1068 H 0.66078 0.26713 0.52747 0.0
H1069 H 0.65077 0.23987 0.66782 0.0
C1070 C 0.65071 0.20373 0.64197 0.0
C1071 C 0.65203 0.18938 0.6054 0.0
C1072 C 0.65808 0.27804 0.5555 0.0
C1073 C 0.6549 0.24027 0.59979 0.0
C1074 C 0.65697 0.30333 0.55162 0.0
C1075 C 0.65311 0.31803 0.58718 0.0
C1076 C 0.65524 0.26723 0.59523 0.0
C1077 C 0.65095 0.30659 0.62654 0.0
C1078 C 0.65213 0.22913 0.6393 0.0
C1079 C 0.65526 0.20121 0.56665 0.0
N1080 N 0.65192 0.28184 0.62949 0.0
N1081 N 0.6565 0.22593 0.56488 0.0
H1082 H 0.06157 0.40734 0.7835 0.0
H1083 H 0.93342 0.39701 0.90364 0.0
H1084 H 0.05545 0.39961 0.9183 0.0
H1085 H 0.94114 0.40287 0.7688 0.0
H1086 H 0.97783 0.40047 0.91063 0.0
H1087 H 0.0172 0.40832 0.77846 0.0
C1088 C 0.0509 0.40596 0.8121 0.0
C1089 C 0.06227 0.40326 0.85136 0.0
C1090 C 0.96975 0.4011 0.87956 0.0
C1091 C 0.01131 0.40429 0.84581 0.0
C1092 C 0.94441 0.39916 0.87556 0.0
C1093 C 0.93354 0.39952 0.83556 0.0
C1094 C 0.98428 0.40343 0.84332 0.0
C1095 C 0.94868 0.40236 0.80027 0.0
C1096 C 0.02552 0.40651 0.8092 0.0
C1097 C 0.04746 0.40164 0.88735 0.0
N1098 N 0.97323 0.40412 0.80498 0.0
N1099 N 0.02273 0.40206 0.88369 0.0
H1100 H 0.88456 0.80161 0.20606 0.0
H1101 H 0.81301 0.69453 0.08714 0.0
H1102 H 0.83047 0.81399 0.10964 0.0
H1103 H 0.8699 0.68212 0.17865 0.0
H1104 H 0.81627 0.73834 0.10006 0.0
H1105 H 0.87679 0.75782 0.20111 0.0
C1106 C 0.87098 0.79514 0.18396 0.0
C1107 C 0.85828 0.8115 0.158 0.0
C1108 C 0.82792 0.72602 0.11754 0.0
C1109 C 0.84928 0.76135 0.15218 0.0
C1110 C 0.82602 0.70098 0.11026 0.0
C1111 C 0.84133 0.68461 0.1316 0.0
C1112 C 0.84528 0.73479 0.14634 0.0
C1113 C 0.8578 0.69405 0.16129 0.0
C1114 C 0.86654 0.77012 0.18116 0.0
C1115 C 0.8408 0.80206 0.13009 0.0
N1116 N 0.85945 0.71851 0.16756 0.0
N1117 N 0.8369 0.77761 0.1278 0.0
H1118 H 0.56762 0.62112 0.43063 0.0
H1119 H 0.43542 0.57615 0.35665 0.0
H1120 H 0.55599 0.56332 0.3405 0.0
H1121 H 0.44714 0.63401 0.44662 0.0
H1122 H 0.47946 0.56942 0.35365 0.0
H1123 H 0.52354 0.62416 0.44057 0.0
C1124 C 0.55583 0.60892 0.41317 0.0
C1125 C 0.56555 0.59203 0.38447 0.0
C1126 C 0.4724 0.58352 0.37419 0.0
C1127 C 0.51497 0.59554 0.39553 0.0
C1128 C 0.44723 0.58739 0.3759 0.0
C1129 C 0.43756 0.60578 0.40175 0.0
C1130 C 0.48805 0.59817 0.39843 0.0
C1131 C 0.45377 0.6197 0.42611 0.0
C1132 C 0.53062 0.6107 0.41881 0.0
C1133 C 0.54933 0.57667 0.36282 0.0
N1134 N 0.47821 0.61568 0.42371 0.0
N1135 N 0.52485 0.5789 0.3686 0.0
H1136 H 0.31557 0.30558 0.08053 0.0
H1137 H 0.38761 0.19906 0.20007 0.0
H1138 H 0.37322 0.3184 0.17046 0.0
H1139 H 0.3309 0.18601 0.10849 0.0
H1140 H 0.3808 0.24289 0.19287 0.0
H1141 H 0.31897 0.26181 0.09386 0.0
C1142 C 0.32882 0.29923 0.10332 0.0
C1143 C 0.34423 0.3157 0.12422 0.0
C1144 C 0.36977 0.23044 0.17445 0.0
C1145 C 0.3483 0.26557 0.13947 0.0
C1146 C 0.37367 0.20539 0.17853 0.0
C1147 C 0.3599 0.18882 0.15467 0.0
C1148 C 0.35201 0.23903 0.14625 0.0
C1149 C 0.34202 0.19811 0.12739 0.0
C1150 C 0.33078 0.27421 0.11085 0.0
C1151 C 0.36102 0.30638 0.15347 0.0
N1152 N 0.33866 0.22259 0.12381 0.0
N1153 N 0.36269 0.28195 0.16004 0.0
H1154 H 0.43634 0.58939 0.77114 0.0
H1155 H 0.55263 0.59947 0.92243 0.0
H1156 H 0.43057 0.60022 0.90535 0.0
H1157 H 0.55669 0.59078 0.78757 0.0
H1158 H 0.50809 0.59729 0.91803 0.0
H1159 H 0.48049 0.58721 0.77788 0.0
C1160 C 0.44435 0.5912 0.80214 0.0
C1161 C 0.42968 0.59513 0.83773 0.0
C1162 C 0.51875 0.59576 0.88945 0.0
C1163 C 0.48051 0.59274 0.84565 0.0
C1164 C 0.54418 0.59699 0.89192 0.0
C1165 C 0.55844 0.59543 0.85526 0.0
C1166 C 0.50749 0.59293 0.85006 0.0
C1167 C 0.54648 0.59217 0.81664 0.0
C1168 C 0.46963 0.58996 0.80595 0.0
C1169 C 0.44116 0.59722 0.87707 0.0
N1170 N 0.52174 0.59112 0.81506 0.0
N1171 N 0.46593 0.59613 0.87996 0.0
H1172 H 0.18569 0.69756 0.5763 0.0
H1173 H 0.11675 0.80498 0.69897 0.0
H1174 H 0.1311 0.68551 0.67208 0.0
H1175 H 0.17078 0.81738 0.60241 0.0
H1176 H 0.12375 0.76114 0.6927 0.0
H1177 H 0.18264 0.74145 0.58882 0.0
C1178 C 0.1732 0.70411 0.60019 0.0
C1179 C 0.15851 0.68781 0.62297 0.0
C1180 C 0.13415 0.77345 0.67299 0.0
C1181 C 0.15483 0.73807 0.6373 0.0
C1182 C 0.13016 0.79851 0.67654 0.0
C1183 C 0.14309 0.8149 0.65099 0.0
C1184 C 0.15119 0.76466 0.64361 0.0
C1185 C 0.16031 0.80542 0.62262 0.0
C1186 C 0.17143 0.72919 0.60727 0.0
C1187 C 0.1427 0.69737 0.6536 0.0
N1188 N 0.16377 0.78093 0.61956 0.0
N1189 N 0.14118 0.72186 0.65968 0.0
H1190 H 0.06902 0.38533 0.42745 0.0
H1191 H 0.93575 0.4191 0.34222 0.0
H1192 H 0.05614 0.42749 0.31488 0.0
H1193 H 0.949 0.37125 0.44765 0.0
H1194 H 0.97969 0.42571 0.33575 0.0
H1195 H 0.02507 0.38355 0.43951 0.0
C1196 C 0.05698 0.3944 0.40543 0.0
C1197 C 0.06631 0.40644 0.36991 0.0
C1198 C 0.97298 0.41384 0.3604 0.0
C1199 C 0.01587 0.40435 0.38348 0.0
C1200 C 0.94788 0.41006 0.36415 0.0
C1201 C 0.93866 0.39445 0.39536 0.0
C1202 C 0.98902 0.40197 0.38811 0.0
C1203 C 0.95527 0.38332 0.42296 0.0
C1204 C 0.03185 0.39332 0.4123 0.0
C1205 C 0.04978 0.4179 0.34256 0.0
N1206 N 0.97963 0.38722 0.41859 0.0
N1207 N 0.02536 0.41646 0.34979 0.0
H1208 H 0.37213 0.67964 0.32153 0.0
H1209 H 0.32716 0.81299 0.38908 0.0
H1210 H 0.31368 0.69268 0.40988 0.0
H1211 H 0.38603 0.79965 0.30172 0.0
H1212 H 0.32024 0.76904 0.39387 0.0
H1213 H 0.37559 0.72355 0.31029 0.0
C1214 C 0.35989 0.69171 0.33835 0.0
C1215 C 0.34268 0.68244 0.36691 0.0
C1216 C 0.33461 0.77573 0.37353 0.0
C1217 C 0.34666 0.73282 0.35435 0.0
C1218 C 0.33859 0.80084 0.37079 0.0
C1219 C 0.35731 0.81003 0.34514 0.0
C1220 C 0.34947 0.75966 0.35049 0.0
C1221 C 0.37147 0.7934 0.32205 0.0
C1222 C 0.36191 0.71681 0.33196 0.0
C1223 C 0.32727 0.69899 0.38769 0.0
N1224 N 0.36732 0.76904 0.32541 0.0
N1225 N 0.32973 0.72338 0.38119 0.0
H1226 H 0.94168 0.58147 0.11133 0.0
H1227 H 0.06176 0.65473 0.16826 0.0
H1228 H 0.94589 0.66008 0.10754 0.0
H1229 H 0.0662 0.58307 0.11244 0.0
H1230 H 0.01798 0.65515 0.15487 0.0
H1231 H 0.98629 0.5798 0.11949 0.0
C1232 C 0.95197 0.59834 0.11211 0.0
C1233 C 0.94008 0.62096 0.10888 0.0
C1234 C 0.02852 0.63936 0.1454 0.0
C1235 C 0.99076 0.61914 0.11869 0.0
C1236 C 0.0535 0.63903 0.15322 0.0
C1237 C 0.06763 0.61882 0.14143 0.0
C1238 C 0.0174 0.61915 0.12631 0.0
C1239 C 0.05594 0.59905 0.12185 0.0
C1240 C 0.97736 0.59735 0.11657 0.0
C1241 C 0.95428 0.64224 0.10985 0.0
N1242 N 0.03137 0.59959 0.1152 0.0
N1243 N 0.97881 0.64082 0.11511 0.0
H1244 H 0.11586 0.20241 0.7998 0.0
H1245 H 0.19406 0.3117 0.89887 0.0
H1246 H 0.17644 0.19132 0.8845 0.0
H1247 H 0.12769 0.32181 0.82781 0.0
H1248 H 0.19112 0.2677 0.88664 0.0
H1249 H 0.12305 0.2463 0.80287 0.0
C1250 C 0.13075 0.20918 0.81893 0.0
C1251 C 0.14544 0.19315 0.8422 0.0
C1252 C 0.17732 0.27959 0.87348 0.0
C1253 C 0.1538 0.24348 0.84584 0.0
C1254 C 0.17904 0.30472 0.88028 0.0
C1255 C 0.16098 0.32046 0.86463 0.0
C1256 C 0.15746 0.27016 0.85072 0.0
C1257 C 0.14192 0.31037 0.84078 0.0
C1258 C 0.13484 0.23428 0.82067 0.0
C1259 C 0.16455 0.20301 0.86626 0.0
N1260 N 0.1406 0.28588 0.83476 0.0
N1261 N 0.16811 0.22755 0.86759 0.0
H1262 H 0.4461 0.43429 0.66808 0.0
H1263 H 0.55222 0.36743 0.53846 0.0
H1264 H 0.4328 0.37967 0.57288 0.0
H1265 H 0.56548 0.41924 0.63824 0.0
H1266 H 0.50836 0.37364 0.54737 0.0
H1267 H 0.48982 0.43117 0.65404 0.0
C1268 C 0.45234 0.42176 0.64401 0.0
C1269 C 0.43574 0.40713 0.62178 0.0
C1270 C 0.52086 0.38371 0.56723 0.0
C1271 C 0.48583 0.40338 0.60567 0.0
C1272 C 0.54593 0.38016 0.56217 0.0
C1273 C 0.56257 0.39274 0.58778 0.0
C1274 C 0.51235 0.39996 0.59813 0.0
C1275 C 0.55333 0.40907 0.6179 0.0
C1276 C 0.47733 0.41994 0.63607 0.0
C1277 C 0.44492 0.39124 0.59091 0.0
N1278 N 0.52886 0.41215 0.6223 0.0
N1279 N 0.46934 0.38972 0.58391 0.0
H1280 H 0.1725 0.11418 0.50891 0.0
H1281 H 0.13381 0.07781 0.74308 0.0
H1282 H 0.11609 0.06183 0.53807 0.0
H1283 H 0.18966 0.13073 0.71381 0.0
H1284 H 0.13007 0.06853 0.66822 0.0
H1285 H 0.18199 0.11728 0.58374 0.0
C1286 C 0.16223 0.10317 0.531 0.0
C1287 C 0.1433 0.08789 0.51722 0.0
C1288 C 0.14328 0.08203 0.67818 0.0
C1289 C 0.15402 0.09145 0.60302 0.0
C1290 C 0.14545 0.08733 0.72095 0.0
C1291 C 0.16192 0.10525 0.73471 0.0
C1292 C 0.15762 0.0948 0.6489 0.0
C1293 C 0.1766 0.1169 0.70462 0.0
C1294 C 0.16767 0.10497 0.57377 0.0
C1295 C 0.13072 0.07397 0.54728 0.0
N1296 N 0.17396 0.11161 0.66311 0.0
N1297 N 0.13618 0.07624 0.5888 0.0
H1298 H 0.13306 0.92794 0.75672 0.0
H1299 H 0.1782 0.8871 0.98512 0.0
H1300 H 0.19082 0.87584 0.77829 0.0
H1301 H 0.12005 0.93881 0.96385 0.0
H1302 H 0.18606 0.88614 0.90955 0.0
H1303 H 0.13101 0.93552 0.83237 0.0
C1304 C 0.14547 0.91824 0.77731 0.0
C1305 C 0.16198 0.90103 0.76117 0.0
C1306 C 0.17171 0.89786 0.92142 0.0
C1307 C 0.15963 0.90955 0.84786 0.0
C1308 C 0.16721 0.89844 0.96461 0.0
C1309 C 0.14826 0.91288 0.98082 0.0
C1310 C 0.15709 0.91175 0.89416 0.0
C1311 C 0.13473 0.92727 0.95273 0.0
C1312 C 0.14427 0.92258 0.82053 0.0
C1313 C 0.17769 0.88913 0.78935 0.0
N1314 N 0.13927 0.92618 0.91074 0.0
N1315 N 0.17598 0.89346 0.83134 0.0
H1316 H 0.3281 0.88097 0.00601 0.0
H1317 H 0.36828 0.92278 0.23681 0.0
H1318 H 0.38318 0.93552 0.03029 0.0
H1319 H 0.31299 0.86848 0.21235 0.0
H1320 H 0.37135 0.93041 0.1613 0.0
H1321 H 0.31969 0.87885 0.08136 0.0
C1322 C 0.33831 0.89265 0.02714 0.0
C1323 C 0.35653 0.9083 0.01184 0.0
C1324 C 0.35841 0.91695 0.17246 0.0
C1325 C 0.34706 0.90587 0.09821 0.0
C1326 C 0.35664 0.91259 0.2156 0.0
C1327 C 0.3405 0.8948 0.23092 0.0
C1328 C 0.34402 0.90337 0.14438 0.0
C1329 C 0.32579 0.88225 0.20195 0.0
C1330 C 0.3335 0.89141 0.0702 0.0
C1331 C 0.36907 0.92308 0.0407 0.0
N1332 N 0.32804 0.88665 0.16007 0.0
N1333 N 0.36423 0.92137 0.08252 0.0
H1334 H 0.32489 0.11759 0.49301 0.0
H1335 H 0.36725 0.07536 0.26354 0.0
H1336 H 0.37916 0.06198 0.4704 0.0
H1337 H 0.31281 0.1308 0.28615 0.0
H1338 H 0.36909 0.0675 0.33909 0.0
H1339 H 0.31745 0.11998 0.41737 0.0
C1340 C 0.33511 0.10573 0.47218 0.0
C1341 C 0.35284 0.0897 0.48805 0.0
C1342 C 0.3566 0.08126 0.32751 0.0
C1343 C 0.34449 0.09244 0.40136 0.0
C1344 C 0.35553 0.08575 0.28435 0.0
C1345 C 0.34 0.10393 0.26851 0.0
C1346 C 0.34211 0.0951 0.35511 0.0
C1347 C 0.32516 0.11672 0.29696 0.0
C1348 C 0.33086 0.10712 0.42897 0.0
C1349 C 0.36543 0.07471 0.45957 0.0
N1350 N 0.32672 0.11219 0.3389 0.0
N1351 N 0.36114 0.07658 0.41759 0.0
H1352 H 0.80889 0.87492 0.27884 0.0
H1353 H 0.88147 0.93955 0.46673 0.0
H1354 H 0.86958 0.92401 0.26031 0.0
H1355 H 0.8261 0.88455 0.48533 0.0
H1356 H 0.8736 0.9382 0.39113 0.0
H1357 H 0.8112 0.88243 0.35451 0.0
C1358 C 0.82256 0.88746 0.29061 0.0
C1359 C 0.83922 0.89867 0.26321 0.0
C1360 C 0.86305 0.92655 0.41178 0.0
C1361 C 0.84202 0.90727 0.34984 0.0
C1362 C 0.86751 0.92733 0.45498 0.0
C1363 C 0.85458 0.91197 0.48239 0.0
C1364 C 0.84554 0.91029 0.39581 0.0
C1365 C 0.83663 0.8966 0.46535 0.0
C1366 C 0.8239 0.8917 0.33385 0.0
C1367 C 0.85647 0.91482 0.28027 0.0
N1368 N 0.83275 0.89604 0.42314 0.0
N1369 N 0.85753 0.9185 0.32251 0.0
H1370 H 0.88277 0.05986 0.03384 0.0
H1371 H 0.80807 0.12844 0.2149 0.0
H1372 H 0.82829 0.11506 0.00995 0.0
H1373 H 0.86476 0.07554 0.23901 0.0
H1374 H 0.81208 0.12048 0.13963 0.0
H1375 H 0.87333 0.06215 0.10884 0.0
C1376 C 0.86869 0.07234 0.0443 0.0
C1377 C 0.85646 0.08745 0.01559 0.0
C1378 C 0.82352 0.11048 0.16139 0.0
C1379 C 0.84561 0.09021 0.10148 0.0
C1380 C 0.82121 0.11499 0.20442 0.0
C1381 C 0.83626 0.1028 0.23331 0.0
C1382 C 0.84103 0.0937 0.14709 0.0
C1383 C 0.85288 0.08548 0.21787 0.0
C1384 C 0.86332 0.07364 0.08717 0.0
C1385 C 0.8383 0.10317 0.03097 0.0
N1386 N 0.85494 0.08158 0.1758 0.0
N1387 N 0.83355 0.10426 0.07289 0.0
H1388 H 0.68783 0.13464 0.78984 0.0
H1389 H 0.62189 0.06139 0.9754 0.0
H1390 H 0.63276 0.07956 0.76934 0.0
H1391 H 0.6737 0.11957 0.99577 0.0
H1392 H 0.62922 0.06441 0.89977 0.0
H1393 H 0.68643 0.12597 0.86513 0.0
C1394 C 0.67557 0.12058 0.80111 0.0
C1395 C 0.66021 0.10798 0.77327 0.0
C1396 C 0.63912 0.07639 0.92081 0.0
C1397 C 0.65846 0.09802 0.85952 0.0
C1398 C 0.63497 0.07466 0.96403 0.0
C1399 C 0.64703 0.09041 0.99195 0.0
C1400 C 0.65541 0.09402 0.90536 0.0
C1401 C 0.66386 0.10717 0.97539 0.0
C1402 C 0.67477 0.11565 0.84414 0.0
C1403 C 0.64481 0.08985 0.78967 0.0
N1404 N 0.66742 0.10864 0.93317 0.0
N1405 N 0.6442 0.08554 0.83176 0.0
H1406 H 0.67446 0.8814 0.50908 0.0
H1407 H 0.63533 0.92206 0.74114 0.0
H1408 H 0.61989 0.93622 0.53509 0.0
H1409 H 0.68928 0.86665 0.71512 0.0
H1410 H 0.63227 0.93028 0.66583 0.0
H1411 H 0.68293 0.87852 0.58433 0.0
C1412 C 0.66438 0.89298 0.53057 0.0
C1413 C 0.64628 0.90893 0.51577 0.0
C1414 C 0.64491 0.91644 0.6766 0.0
C1415 C 0.65583 0.90564 0.60204 0.0
C1416 C 0.64669 0.91175 0.71964 0.0
C1417 C 0.66244 0.89348 0.73446 0.0
C1418 C 0.65892 0.90272 0.64812 0.0
C1419 C 0.67678 0.88079 0.70511 0.0
C1420 C 0.66922 0.89131 0.57357 0.0
C1421 C 0.63389 0.92355 0.54509 0.0
N1422 N 0.67454 0.88553 0.66333 0.0
N1423 N 0.63878 0.92142 0.58684 0.0
H1424 H 0.67006 0.61482 0.01679 0.0
H1425 H 0.62981 0.57559 0.24897 0.0
H1426 H 0.61193 0.56391 0.04332 0.0
H1427 H 0.68536 0.62936 0.22282 0.0
H1428 H 0.62631 0.56757 0.17366 0.0
H1429 H 0.67917 0.61685 0.09193 0.0
C1430 C 0.65933 0.60391 0.03836 0.0
C1431 C 0.64003 0.58936 0.02378 0.0
C1432 C 0.63939 0.581 0.1844 0.0
C1433 C 0.65032 0.59168 0.10985 0.0
C1434 C 0.64142 0.58558 0.22743 0.0
C1435 C 0.65774 0.60336 0.2422 0.0
C1436 C 0.65374 0.59433 0.15589 0.0
C1437 C 0.67241 0.61563 0.21283 0.0
C1438 C 0.66454 0.6051 0.08128 0.0
C1439 C 0.62684 0.57553 0.05317 0.0
N1440 N 0.66993 0.61101 0.17105 0.0
N1441 N 0.63212 0.57717 0.09483 0.0
H1442 H 0.68026 0.39671 0.48387 0.0
H1443 H 0.63252 0.42804 0.25277 0.0
H1444 H 0.61804 0.44282 0.45883 0.0
H1445 H 0.69338 0.3803 0.27855 0.0
H1446 H 0.63016 0.4379 0.32761 0.0
H1447 H 0.68863 0.39495 0.40856 0.0
C1448 C 0.6685 0.40671 0.46259 0.0
C1449 C 0.64823 0.41971 0.47767 0.0
C1450 C 0.64417 0.42543 0.31685 0.0
C1451 C 0.65762 0.41759 0.39126 0.0
C1452 C 0.64554 0.41979 0.2741 0.0
C1453 C 0.66301 0.40309 0.25942 0.0
C1454 C 0.66034 0.41425 0.34518 0.0
C1455 C 0.67949 0.3931 0.28848 0.0
C1456 C 0.67328 0.40566 0.41953 0.0
C1457 C 0.63376 0.43243 0.4486 0.0
N1458 N 0.67761 0.39867 0.33001 0.0
N1459 N 0.63859 0.43084 0.40673 0.0
H1460 H 0.80858 0.3636 0.70513 0.0
H1461 H 0.8729 0.44126 0.52337 0.0
H1462 H 0.85712 0.4242 0.72818 0.0
H1463 H 0.82624 0.37925 0.49989 0.0
H1464 H 0.86342 0.43826 0.59826 0.0
H1465 H 0.8108 0.37212 0.62974 0.0
C1466 C 0.81949 0.37886 0.69441 0.0
C1467 C 0.83289 0.39304 0.72299 0.0
C1468 C 0.85511 0.42542 0.5767 0.0
C1469 C 0.83564 0.40279 0.63675 0.0
C1470 C 0.86051 0.42713 0.5339 0.0
C1471 C 0.85056 0.41033 0.50536 0.0
C1472 C 0.83969 0.40672 0.59112 0.0
C1473 C 0.83449 0.39249 0.5208 0.0
C1474 C 0.82079 0.38369 0.65134 0.0
C1475 C 0.84663 0.41265 0.70729 0.0
N1476 N 0.82971 0.39104 0.56267 0.0
N1477 N 0.84782 0.41681 0.66522 0.0
H1478 H 0.8264 0.62128 0.99282 0.0
H1479 H 0.85838 0.57212 0.76263 0.0
H1480 H 0.87768 0.56327 0.96763 0.0
H1481 H 0.81071 0.63336 0.78614 0.0
H1482 H 0.86112 0.56506 0.83818 0.0
H1483 H 0.81623 0.62256 0.918 0.0
C1484 C 0.83539 0.60868 0.97163 0.0
C1485 C 0.85312 0.59231 0.98645 0.0
C1486 C 0.84988 0.57992 0.82685 0.0
C1487 C 0.84157 0.59371 0.90079 0.0
C1488 C 0.84826 0.58394 0.78365 0.0
C1489 C 0.83451 0.60356 0.76803 0.0
C1490 C 0.83776 0.59567 0.85474 0.0
C1491 C 0.82166 0.61814 0.7968 0.0
C1492 C 0.82957 0.60943 0.9289 0.0
C1493 C 0.86407 0.57633 0.95757 0.0
N1494 N 0.82379 0.61404 0.83882 0.0
N1495 N 0.85823 0.57755 0.9161 0.0
H1496 H 0.36893 0.42466 0.75749 0.0
H1497 H 0.32744 0.38186 0.98701 0.0
H1498 H 0.31347 0.37026 0.78015 0.0
H1499 H 0.38155 0.4376 0.96436 0.0
H1500 H 0.31962 0.37978 0.91145 0.0
H1501 H 0.37134 0.43211 0.83313 0.0
C1502 C 0.35711 0.41441 0.77833 0.0
C1503 C 0.34111 0.39665 0.76248 0.0
C1504 C 0.33308 0.3926 0.92302 0.0
C1505 C 0.34389 0.405 0.84917 0.0
C1506 C 0.33755 0.3938 0.96619 0.0
C1507 C 0.35533 0.40978 0.98202 0.0
C1508 C 0.34655 0.40741 0.89542 0.0
C1509 C 0.36778 0.4249 0.95356 0.0
C1510 C 0.35851 0.41867 0.82155 0.0
C1511 C 0.32617 0.38402 0.79097 0.0
N1512 N 0.36328 0.4232 0.91162 0.0
N1513 N 0.32806 0.38831 0.83295 0.0
H1514 H 0.30606 0.63385 0.70829 0.0
H1515 H 0.37083 0.5567 0.52642 0.0
H1516 H 0.35308 0.57203 0.73102 0.0
H1517 H 0.32442 0.6189 0.50299 0.0
H1518 H 0.36076 0.55927 0.6011 0.0
H1519 H 0.30864 0.6258 0.63277 0.0
C1520 C 0.3167 0.61842 0.69747 0.0
C1521 C 0.32959 0.60376 0.72601 0.0
C1522 C 0.35262 0.57224 0.5796 0.0
C1523 C 0.33276 0.59455 0.63963 0.0
C1524 C 0.35837 0.57079 0.53691 0.0
C1525 C 0.34866 0.58776 0.50846 0.0
C1526 C 0.33712 0.59088 0.59401 0.0
C1527 C 0.33248 0.60552 0.52385 0.0
C1528 C 0.3182 0.61386 0.65432 0.0
C1529 C 0.34299 0.58395 0.71017 0.0
N1530 N 0.32738 0.60674 0.56564 0.0
N1531 N 0.34441 0.58007 0.66805 0.0
H1532 H 0.1235 0.55983 0.47339 0.0
H1533 H 0.20016 0.62025 0.28618 0.0
H1534 H 0.17831 0.61537 0.49221 0.0
H1535 H 0.13755 0.57364 0.26768 0.0
H1536 H 0.1971 0.61337 0.36206 0.0
H1537 H 0.1332 0.55947 0.39843 0.0
C1538 C 0.13774 0.5718 0.46185 0.0
C1539 C 0.14991 0.58788 0.48906 0.0
C1540 C 0.18418 0.60448 0.34132 0.0
C1541 C 0.16104 0.58759 0.40319 0.0
C1542 C 0.18596 0.60833 0.29799 0.0
C1543 C 0.16891 0.59773 0.27059 0.0
C1544 C 0.16528 0.58985 0.35729 0.0
C1545 C 0.15093 0.5824 0.28767 0.0
C1546 C 0.14324 0.5716 0.419 0.0
C1547 C 0.16831 0.60284 0.47232 0.0
N1548 N 0.14949 0.57907 0.32993 0.0
N1549 N 0.17318 0.60247 0.4304 0.0
H1550 H 0.18525 0.34905 0.23384 0.0
H1551 H 0.1485 0.4196 0.02354 0.0
H1552 H 0.14589 0.41729 0.23564 0.0
H1553 H 0.15631 0.34135 0.03062 0.0
H1554 H 0.15645 0.42219 0.09944 0.0
H1555 H 0.18395 0.34948 0.15699 0.0
C1556 C 0.17661 0.3643 0.21809 0.0
C1557 C 0.16547 0.38308 0.24116 0.0
C1558 C 0.15656 0.40451 0.08419 0.0
C1559 C 0.16404 0.38366 0.15334 0.0
C1560 C 0.15214 0.40301 0.04097 0.0
C1561 C 0.15158 0.3802 0.02094 0.0
C1562 C 0.16088 0.38309 0.10718 0.0
C1563 C 0.15635 0.35928 0.04495 0.0
C1564 C 0.17578 0.36444 0.17427 0.0
C1565 C 0.15452 0.40235 0.21903 0.0
N1566 N 0.16084 0.36123 0.08683 0.0
N1567 N 0.15403 0.40214 0.17625 0.0
loop_
_geom_bond_atom_site_label_1
_geom_bond_atom_site_label_2
_geom_bond_distance
_geom_bond_site_symmetry_2
_ccdc_geom_bond_type
C0 O1 1.160 . S
C0 O7 1.185 . S
O1 C0 1.160 . S
O2 Zn3 1.899 . S
O2 C10 1.284 . S
Zn3 O2 1.899 . S
Zn3 O4 2.032 . S
Zn3 O7 2.086 . S
Zn3 O12 1.977 . S
O4 Zn3 2.032 . S
O4 C8 1.278 . S
C5 O6 1.203 . S
C5 O12 1.267 . S
O6 C5 1.203 . S
O7 C0 1.185 . S
O7 Zn3 2.086 . S
C8 O4 1.278 . S
C8 O9 1.211 . S
O9 C8 1.211 . S
C10 O2 1.284 . S
C10 O11 1.273 . S
O11 C10 1.273 . S
O12 Zn3 1.977 . S
O12 C5 1.267 . S
C13 O14 1.160 . S
C13 O20 1.185 . S
O14 C13 1.160 . S
O15 Zn16 1.899 . S
O15 C23 1.284 . S
Zn16 O15 1.899 . S
Zn16 O17 2.032 . S
Zn16 O20 2.086 . S
Zn16 O25 1.977 . S
O17 Zn16 2.032 . S
O17 C21 1.278 . S
C18 O19 1.203 . S
C18 O25 1.267 . S
O19 C18 1.203 . S
O20 C13 1.185 . S
O20 Zn16 2.086 . S
C21 O17 1.278 . S
C21 O22 1.211 . S
O22 C21 1.211 . S
C23 O15 1.284 . S
C23 O24 1.273 . S
O24 C23 1.273 . S
O25 Zn16 1.977 . S
O25 C18 1.267 . S
C26 O27 1.160 . S
C26 O33 1.185 . S
O27 C26 1.160 . S
O28 Zn29 1.899 . S
O28 C36 1.284 . S
Zn29 O28 1.899 . S
Zn29 O30 2.032 . S
Zn29 O33 2.086 . S
Zn29 O38 1.977 . S
O30 Zn29 2.032 . S
O30 C34 1.278 . S
C31 O32 1.203 . S
C31 O38 1.267 . S
O32 C31 1.203 . S
O33 C26 1.185 . S
O33 Zn29 2.086 . S
C34 O30 1.278 . S
C34 O35 1.211 . S
O35 C34 1.211 . S
C36 O28 1.284 . S
C36 O37 1.273 . S
O37 C36 1.273 . S
O38 Zn29 1.977 . S
O38 C31 1.267 . S
C39 O40 1.160 . S
C39 O46 1.185 . S
O40 C39 1.160 . S
O41 Zn42 1.899 . S
O41 C49 1.284 . S
Zn42 O41 1.899 . S
Zn42 O43 2.032 . S
Zn42 O46 2.086 . S
Zn42 O51 1.977 . S
O43 Zn42 2.032 . S
O43 C47 1.278 . S
C44 O45 1.203 . S
C44 O51 1.267 . S
O45 C44 1.203 . S
O46 C39 1.185 . S
O46 Zn42 2.086 . S
C47 O43 1.278 . S
C47 O48 1.211 . S
O48 C47 1.211 . S
C49 O41 1.284 . S
C49 O50 1.273 . S
O50 C49 1.273 . S
O51 Zn42 1.977 . S
O51 C44 1.267 . S
C52 O53 1.160 . S
C52 O59 1.185 . S
O53 C52 1.160 . S
O54 Zn55 1.899 . S
O54 C62 1.284 . S
Zn55 O54 1.899 . S
Zn55 O56 2.032 . S
Zn55 O59 2.086 . S
Zn55 O64 1.977 . S
O56 Zn55 2.032 . S
O56 C60 1.278 . S
C57 O58 1.203 . S
C57 O64 1.267 . S
O58 C57 1.203 . S
O59 C52 1.185 . S
O59 Zn55 2.086 . S
C60 O56 1.278 . S
C60 O61 1.211 . S
O61 C60 1.211 . S
C62 O54 1.284 . S
C62 O63 1.273 . S
O63 C62 1.273 . S
O64 Zn55 1.977 . S
O64 C57 1.267 . S
C65 O66 1.160 . S
C65 O72 1.185 . S
O66 C65 1.160 . S
O67 Zn68 1.899 . S
O67 C75 1.284 . S
Zn68 O67 1.899 . S
Zn68 O69 2.032 . S
Zn68 O72 2.086 . S
Zn68 O77 1.977 . S
O69 Zn68 2.032 . S
O69 C73 1.278 . S
C70 O71 1.203 . S
C70 O77 1.267 . S
O71 C70 1.203 . S
O72 C65 1.185 . S
O72 Zn68 2.086 . S
C73 O69 1.278 . S
C73 O74 1.211 . S
O74 C73 1.211 . S
C75 O67 1.284 . S
C75 O76 1.273 . S
O76 C75 1.273 . S
O77 Zn68 1.977 . S
O77 C70 1.267 . S
C78 O79 1.160 . S
C78 O85 1.185 . S
O79 C78 1.160 . S
O80 Zn81 1.899 . S
O80 C88 1.284 . S
Zn81 O80 1.899 . S
Zn81 O82 2.032 . S
Zn81 O85 2.086 . S
Zn81 O90 1.977 . S
O82 Zn81 2.032 . S
O82 C86 1.278 . S
C83 O84 1.203 . S
C83 O90 1.267 . S
O84 C83 1.203 . S
O85 C78 1.185 . S
O85 Zn81 2.086 . S
C86 O82 1.278 . S
C86 O87 1.211 . S
O87 C86 1.211 . S
C88 O80 1.284 . S
C88 O89 1.273 . S
O89 C88 1.273 . S
O90 Zn81 1.977 . S
O90 C83 1.267 . S
C91 O92 1.160 . S
C91 O98 1.185 . S
O92 C91 1.160 . S
O93 Zn94 1.899 . S
O93 C101 1.284 . S
Zn94 O93 1.899 . S
Zn94 O95 2.032 . S
Zn94 O98 2.086 . S
Zn94 O103 1.977 . S
O95 Zn94 2.032 . S
O95 C99 1.278 . S
C96 O97 1.203 . S
C96 O103 1.267 . S
O97 C96 1.203 . S
O98 C91 1.185 . S
O98 Zn94 2.086 . S
C99 O95 1.278 . S
C99 O100 1.211 . S
O100 C99 1.211 . S
C101 O93 1.284 . S
C101 O102 1.273 . S
O102 C101 1.273 . S
O103 Zn94 1.977 . S
O103 C96 1.267 . S
C104 O105 1.160 . S
C104 O111 1.185 . S
O105 C104 1.160 . S
O106 Zn107 1.899 . S
O106 C114 1.284 . S
Zn107 O106 1.899 . S
Zn107 O108 2.032 . S
Zn107 O111 2.086 . S
Zn107 O116 1.977 . S
O108 Zn107 2.032 . S
O108 C112 1.278 . S
C109 O110 1.203 . S
C109 O116 1.267 . S
O110 C109 1.203 . S
O111 C104 1.185 . S
O111 Zn107 2.086 . S
C112 O108 1.278 . S
C112 O113 1.211 . S
O113 C112 1.211 . S
C114 O106 1.284 . S
C114 O115 1.273 . S
O115 C114 1.273 . S
O116 Zn107 1.977 . S
O116 C109 1.267 . S
C117 O118 1.160 . S
C117 O124 1.185 . S
O118 C117 1.160 . S
O119 Zn120 1.899 . S
O119 C127 1.284 . S
Zn120 O119 1.899 . S
Zn120 O121 2.032 . S
Zn120 O124 2.086 . S
Zn120 O129 1.977 . S
O121 Zn120 2.032 . S
O121 C125 1.278 . S
C122 O123 1.203 . S
C122 O129 1.267 . S
O123 C122 1.203 . S
O124 C117 1.185 . S
O124 Zn120 2.086 . S
C125 O121 1.278 . S
C125 O126 1.211 . S
O126 C125 1.211 . S
C127 O119 1.284 . S
C127 O128 1.273 . S
O128 C127 1.273 . S
O129 Zn120 1.977 . S
O129 C122 1.267 . S
C130 O131 1.160 . S
C130 O137 1.185 . S
O131 C130 1.160 . S
O132 Zn133 1.899 . S
O132 C140 1.284 . S
Zn133 O132 1.899 . S
Zn133 O134 2.032 . S
Zn133 O137 2.086 . S
Zn133 O142 1.977 . S
O134 Zn133 2.032 . S
O134 C138 1.278 . S
C135 O136 1.203 . S
C135 O142 1.267 . S
O136 C135 1.203 . S
O137 C130 1.185 . S
O137 Zn133 2.086 . S
C138 O134 1.278 . S
C138 O139 1.211 . S
O139 C138 1.211 . S
C140 O132 1.284 . S
C140 O141 1.273 . S
O141 C140 1.273 . S
O142 Zn133 1.977 . S
O142 C135 1.267 . S
C143 O144 1.160 . S
C143 O150 1.185 . S
O144 C143 1.160 . S
O145 Zn146 1.899 . S
O145 C153 1.284 . S
Zn146 O145 1.899 . S
Zn146 O147 2.032 . S
Zn146 O150 2.086 . S
Zn146 O155 1.977 . S
O147 Zn146 2.032 . S
O147 C151 1.278 . S
C148 O149 1.203 . S
C148 O155 1.267 . S
O149 C148 1.203 . S
O150 C143 1.185 . S
O150 Zn146 2.086 . S
C151 O147 1.278 . S
C151 O152 1.211 . S
O152 C151 1.211 . S
C153 O145 1.284 . S
C153 O154 1.273 . S
O154 C153 1.273 . S
O155 Zn146 1.977 . S
O155 C148 1.267 . S
C156 O157 1.160 . S
C156 O163 1.185 . S
O157 C156 1.160 . S
O158 Zn159 1.899 . S
O158 C166 1.284 . S
Zn159 O158 1.899 . S
Zn159 O160 2.032 . S
Zn159 O163 2.086 . S
Zn159 O168 1.977 . S
O160 Zn159 2.032 . S
O160 C164 1.278 . S
C161 O162 1.203 . S
C161 O168 1.267 . S
O162 C161 1.203 . S
O163 C156 1.185 . S
O163 Zn159 2.086 . S
C164 O160 1.278 . S
C164 O165 1.211 . S
O165 C164 1.211 . S
C166 O158 1.284 . S
C166 O167 1.273 . S
O167 C166 1.273 . S
O168 Zn159 1.977 . S
O168 C161 1.267 . S
C169 O170 1.160 . S
C169 O176 1.185 . S
O170 C169 1.160 . S
O171 Zn172 1.899 . S
O171 C179 1.284 . S
Zn172 O171 1.899 . S
Zn172 O173 2.032 . S
Zn172 O176 2.086 . S
Zn172 O181 1.977 . S
O173 Zn172 2.032 . S
O173 C177 1.278 . S
C174 O175 1.203 . S
C174 O181 1.267 . S
O175 C174 1.203 . S
O176 C169 1.185 . S
O176 Zn172 2.086 . S
C177 O173 1.278 . S
C177 O178 1.211 . S
O178 C177 1.211 . S
C179 O171 1.284 . S
C179 O180 1.273 . S
O180 C179 1.273 . S
O181 Zn172 1.977 . S
O181 C174 1.267 . S
C182 O183 1.160 . S
C182 O189 1.185 . S
O183 C182 1.160 . S
O184 Zn185 1.899 . S
O184 C192 1.284 . S
Zn185 O184 1.899 . S
Zn185 O186 2.032 . S
Zn185 O189 2.086 . S
Zn185 O194 1.977 . S
O186 Zn185 2.032 . S
O186 C190 1.278 . S
C187 O188 1.203 . S
C187 O194 1.267 . S
O188 C187 1.203 . S
O189 C182 1.185 . S
O189 Zn185 2.086 . S
C190 O186 1.278 . S
C190 O191 1.211 . S
O191 C190 1.211 . S
C192 O184 1.284 . S
C192 O193 1.273 . S
O193 C192 1.273 . S
O194 Zn185 1.977 . S
O194 C187 1.267 . S
C195 O196 1.160 . S
C195 O202 1.185 . S
O196 C195 1.160 . S
O197 Zn198 1.899 . S
O197 C205 1.284 . S
Zn198 O197 1.899 . S
Zn198 O199 2.032 . S
Zn198 O202 2.086 . S
Zn198 O207 1.977 . S
O199 Zn198 2.032 . S
O199 C203 1.278 . S
C200 O201 1.203 . S
C200 O207 1.267 . S
O201 C200 1.203 . S
O202 C195 1.185 . S
O202 Zn198 2.086 . S
C203 O199 1.278 . S
C203 O204 1.211 . S
O204 C203 1.211 . S
C205 O197 1.284 . S
C205 O206 1.273 . S
O206 C205 1.273 . S
O207 Zn198 1.977 . S
O207 C200 1.267 . S
C208 O209 1.160 . S
C208 O215 1.185 . S
O209 C208 1.160 . S
O210 Zn211 1.899 . S
O210 C218 1.284 . S
Zn211 O210 1.899 . S
Zn211 O212 2.032 . S
Zn211 O215 2.086 . S
Zn211 O220 1.977 . S
O212 Zn211 2.032 . S
O212 C216 1.278 . S
C213 O214 1.203 . S
C213 O220 1.267 . S
O214 C213 1.203 . S
O215 C208 1.185 . S
O215 Zn211 2.086 . S
C216 O212 1.278 . S
C216 O217 1.211 . S
O217 C216 1.211 . S
C218 O210 1.284 . S
C218 O219 1.273 . S
O219 C218 1.273 . S
O220 Zn211 1.977 . S
O220 C213 1.267 . S
C221 O222 1.160 . S
C221 O228 1.185 . S
O222 C221 1.160 . S
O223 Zn224 1.899 . S
O223 C231 1.284 . S
Zn224 O223 1.899 . S
Zn224 O225 2.032 . S
Zn224 O228 2.086 . S
Zn224 O233 1.977 . S
O225 Zn224 2.032 . S
O225 C229 1.278 . S
C226 O227 1.203 . S
C226 O233 1.267 . S
O227 C226 1.203 . S
O228 C221 1.185 . S
O228 Zn224 2.086 . S
C229 O225 1.278 . S
C229 O230 1.211 . S
O230 C229 1.211 . S
C231 O223 1.284 . S
C231 O232 1.273 . S
O232 C231 1.273 . S
O233 Zn224 1.977 . S
O233 C226 1.267 . S
C234 O235 1.160 . S
C234 O241 1.185 . S
O235 C234 1.160 . S
O236 Zn237 1.899 . S
O236 C244 1.284 . S
Zn237 O236 1.899 . S
Zn237 O238 2.032 . S
Zn237 O241 2.086 . S
Zn237 O246 1.977 . S
O238 Zn237 2.032 . S
O238 C242 1.278 . S
C239 O240 1.203 . S
C239 O246 1.267 . S
O240 C239 1.203 . S
O241 C234 1.185 . S
O241 Zn237 2.086 . S
C242 O238 1.278 . S
C242 O243 1.211 . S
O243 C242 1.211 . S
C244 O236 1.284 . S
C244 O245 1.273 . S
O245 C244 1.273 . S
O246 Zn237 1.977 . S
O246 C239 1.267 . S
C247 O248 1.160 . S
C247 O254 1.185 . S
O248 C247 1.160 . S
O249 Zn250 1.899 . S
O249 C257 1.284 . S
Zn250 O249 1.899 . S
Zn250 O251 2.032 . S
Zn250 O254 2.086 . S
Zn250 O259 1.977 . S
O251 Zn250 2.032 . S
O251 C255 1.278 . S
C252 O253 1.203 . S
C252 O259 1.267 . S
O253 C252 1.203 . S
O254 C247 1.185 . S
O254 Zn250 2.086 . S
C255 O251 1.278 . S
C255 O256 1.211 . S
O256 C255 1.211 . S
C257 O249 1.284 . S
C257 O258 1.273 . S
O258 C257 1.273 . S
O259 Zn250 1.977 . S
O259 C252 1.267 . S
C260 O261 1.160 . S
C260 O267 1.185 . S
O261 C260 1.160 . S
O262 Zn263 1.899 . S
O262 C270 1.284 . S
Zn263 O262 1.899 . S
Zn263 O264 2.032 . S
Zn263 O267 2.086 . S
Zn263 O272 1.977 . S
O264 Zn263 2.032 . S
O264 C268 1.278 . S
C265 O266 1.203 . S
C265 O272 1.267 . S
O266 C265 1.203 . S
O267 C260 1.185 . S
O267 Zn263 2.086 . S
C268 O264 1.278 . S
C268 O269 1.211 . S
O269 C268 1.211 . S
C270 O262 1.284 . S
C270 O271 1.273 . S
O271 C270 1.273 . S
O272 Zn263 1.977 . S
O272 C265 1.267 . S
C273 O274 1.160 . S
C273 O280 1.185 . S
O274 C273 1.160 . S
O275 Zn276 1.899 . S
O275 C283 1.284 . S
Zn276 O275 1.899 . S
Zn276 O277 2.032 . S
Zn276 O280 2.086 . S
Zn276 O285 1.977 . S
O277 Zn276 2.032 . S
O277 C281 1.278 . S
C278 O279 1.203 . S
C278 O285 1.267 . S
O279 C278 1.203 . S
O280 C273 1.185 . S
O280 Zn276 2.086 . S
C281 O277 1.278 . S
C281 O282 1.211 . S
O282 C281 1.211 . S
C283 O275 1.284 . S
C283 O284 1.273 . S
O284 C283 1.273 . S
O285 Zn276 1.977 . S
O285 C278 1.267 . S
C286 O287 1.160 . S
C286 O293 1.185 . S
O287 C286 1.160 . S
O288 Zn289 1.899 . S
O288 C296 1.284 . S
Zn289 O288 1.899 . S
Zn289 O290 2.032 . S
Zn289 O293 2.086 . S
Zn289 O298 1.977 . S
O290 Zn289 2.032 . S
O290 C294 1.278 . S
C291 O292 1.203 . S
C291 O298 1.267 . S
O292 C291 1.203 . S
O293 C286 1.185 . S
O293 Zn289 2.086 . S
C294 O290 1.278 . S
C294 O295 1.211 . S
O295 C294 1.211 . S
C296 O288 1.284 . S
C296 O297 1.273 . S
O297 C296 1.273 . S
O298 Zn289 1.977 . S
O298 C291 1.267 . S
C299 O300 1.160 . S
C299 O306 1.185 . S
O300 C299 1.160 . S
O301 Zn302 1.899 . S
O301 C309 1.284 . S
Zn302 O301 1.899 . S
Zn302 O303 2.032 . S
Zn302 O306 2.086 . S
Zn302 O311 1.977 . S
O303 Zn302 2.032 . S
O303 C307 1.278 . S
C304 O305 1.203 . S
C304 O311 1.267 . S
O305 C304 1.203 . S
O306 C299 1.185 . S
O306 Zn302 2.086 . S
C307 O303 1.278 . S
C307 O308 1.211 . S
O308 C307 1.211 . S
C309 O301 1.284 . S
C309 O310 1.273 . S
O310 C309 1.273 . S
O311 Zn302 1.977 . S
O311 C304 1.267 . S
C312 O313 1.160 . S
C312 O319 1.185 . S
O313 C312 1.160 . S
O314 Zn315 1.899 . S
O314 C322 1.284 . S
Zn315 O314 1.899 . S
Zn315 O316 2.032 . S
Zn315 O319 2.086 . S
Zn315 O324 1.977 . S
O316 Zn315 2.032 . S
O316 C320 1.278 . S
C317 O318 1.203 . S
C317 O324 1.267 . S
O318 C317 1.203 . S
O319 C312 1.185 . S
O319 Zn315 2.086 . S
C320 O316 1.278 . S
C320 O321 1.211 . S
O321 C320 1.211 . S
C322 O314 1.284 . S
C322 O323 1.273 . S
O323 C322 1.273 . S
O324 Zn315 1.977 . S
O324 C317 1.267 . S
C325 O326 1.160 . S
C325 O332 1.185 . S
O326 C325 1.160 . S
O327 Zn328 1.899 . S
O327 C335 1.284 . S
Zn328 O327 1.899 . S
Zn328 O329 2.032 . S
Zn328 O332 2.086 . S
Zn328 O337 1.977 . S
O329 Zn328 2.032 . S
O329 C333 1.278 . S
C330 O331 1.203 . S
C330 O337 1.267 . S
O331 C330 1.203 . S
O332 C325 1.185 . S
O332 Zn328 2.086 . S
C333 O329 1.278 . S
C333 O334 1.211 . S
O334 C333 1.211 . S
C335 O327 1.284 . S
C335 O336 1.273 . S
O336 C335 1.273 . S
O337 Zn328 1.977 . S
O337 C330 1.267 . S
C338 O339 1.160 . S
C338 O345 1.185 . S
O339 C338 1.160 . S
O340 Zn341 1.899 . S
O340 C348 1.284 . S
Zn341 O340 1.899 . S
Zn341 O342 2.032 . S
Zn341 O345 2.086 . S
Zn341 O350 1.977 . S
O342 Zn341 2.032 . S
O342 C346 1.278 . S
C343 O344 1.203 . S
C343 O350 1.267 . S
O344 C343 1.203 . S
O345 C338 1.185 . S
O345 Zn341 2.086 . S
C346 O342 1.278 . S
C346 O347 1.211 . S
O347 C346 1.211 . S
C348 O340 1.284 . S
C348 O349 1.273 . S
O349 C348 1.273 . S
O350 Zn341 1.977 . S
O350 C343 1.267 . S
C351 O352 1.160 . S
C351 O358 1.185 . S
O352 C351 1.160 . S
O353 Zn354 1.899 . S
O353 C361 1.284 . S
Zn354 O353 1.899 . S
Zn354 O355 2.032 . S
Zn354 O358 2.086 . S
Zn354 O363 1.977 . S
O355 Zn354 2.032 . S
O355 C359 1.278 . S
C356 O357 1.203 . S
C356 O363 1.267 . S
O357 C356 1.203 . S
O358 C351 1.185 . S
O358 Zn354 2.086 . S
C359 O355 1.278 . S
C359 O360 1.211 . S
O360 C359 1.211 . S
C361 O353 1.284 . S
C361 O362 1.273 . S
O362 C361 1.273 . S
O363 Zn354 1.977 . S
O363 C356 1.267 . S
C364 O365 1.160 . S
C364 O371 1.185 . S
O365 C364 1.160 . S
O366 Zn367 1.899 . S
O366 C374 1.284 . S
Zn367 O366 1.899 . S
Zn367 O368 2.032 . S
Zn367 O371 2.086 . S
Zn367 O376 1.977 . S
O368 Zn367 2.032 . S
O368 C372 1.278 . S
C369 O370 1.203 . S
C369 O376 1.267 . S
O370 C369 1.203 . S
O371 C364 1.185 . S
O371 Zn367 2.086 . S
C372 O368 1.278 . S
C372 O373 1.211 . S
O373 C372 1.211 . S
C374 O366 1.284 . S
C374 O375 1.273 . S
O375 C374 1.273 . S
O376 Zn367 1.977 . S
O376 C369 1.267 . S
C377 O378 1.160 . S
C377 O384 1.185 . S
O378 C377 1.160 . S
O379 Zn380 1.899 . S
O379 C387 1.284 . S
Zn380 O379 1.899 . S
Zn380 O381 2.032 . S
Zn380 O384 2.086 . S
Zn380 O389 1.977 . S
O381 Zn380 2.032 . S
O381 C385 1.278 . S
C382 O383 1.203 . S
C382 O389 1.267 . S
O383 C382 1.203 . S
O384 C377 1.185 . S
O384 Zn380 2.086 . S
C385 O381 1.278 . S
C385 O386 1.211 . S
O386 C385 1.211 . S
C387 O379 1.284 . S
C387 O388 1.273 . S
O388 C387 1.273 . S
O389 Zn380 1.977 . S
O389 C382 1.267 . S
C390 O391 1.160 . S
C390 O397 1.185 . S
O391 C390 1.160 . S
O392 Zn393 1.899 . S
O392 C400 1.284 . S
Zn393 O392 1.899 . S
Zn393 O394 2.032 . S
Zn393 O397 2.086 . S
Zn393 O402 1.977 . S
O394 Zn393 2.032 . S
O394 C398 1.278 . S
C395 O396 1.203 . S
C395 O402 1.267 . S
O396 C395 1.203 . S
O397 C390 1.185 . S
O397 Zn393 2.086 . S
C398 O394 1.278 . S
C398 O399 1.211 . S
O399 C398 1.211 . S
C400 O392 1.284 . S
C400 O401 1.273 . S
O401 C400 1.273 . S
O402 Zn393 1.977 . S
O402 C395 1.267 . S
C403 O404 1.160 . S
C403 O410 1.185 . S
O404 C403 1.160 . S
O405 Zn406 1.899 . S
O405 C413 1.284 . S
Zn406 O405 1.899 . S
Zn406 O407 2.032 . S
Zn406 O410 2.086 . S
Zn406 O415 1.977 . S
O407 Zn406 2.032 . S
O407 C411 1.278 . S
C408 O409 1.203 . S
C408 O415 1.267 . S
O409 C408 1.203 . S
O410 C403 1.185 . S
O410 Zn406 2.086 . S
C411 O407 1.278 . S
C411 O412 1.211 . S
O412 C411 1.211 . S
C413 O405 1.284 . S
C413 O414 1.273 . S
O414 C413 1.273 . S
O415 Zn406 1.977 . S
O415 C408 1.267 . S
H416 C422 0.930 . S
H417 C426 0.930 . S
H418 C431 0.929 . S
H419 C429 0.929 . S
H420 C424 0.929 . S
H421 C430 0.929 . S
C422 H416 0.930 . S
C422 C423 1.367 . S
C422 C430 1.378 . S
C423 C422 1.367 . S
C423 C431 1.433 . S
C424 H420 0.929 . S
C424 C426 1.378 . S
C424 C428 1.350 . S
C425 C428 1.463 1_545 S
C425 C430 1.350 . S
C425 N433 1.427 . S
C426 H417 0.930 . S
C426 C424 1.378 . S
C426 C427 1.367 . S
C427 C426 1.367 . S
C427 C429 1.433 . S
C428 C424 1.350 . S
C428 C425 1.463 1_565 S
C428 N432 1.427 . S
C429 H419 0.929 . S
C429 C427 1.433 . S
C429 N432 1.384 . S
C430 H421 0.929 . S
C430 C422 1.378 . S
C430 C425 1.350 . S
C431 H418 0.929 . S
C431 C423 1.433 . S
C431 N433 1.384 . S
N432 C428 1.427 . S
N432 C429 1.384 . S
N433 C425 1.427 . S
N433 C431 1.384 . S
H434 C440 0.930 . S
H435 C444 0.930 . S
H436 C449 0.929 . S
H437 C447 0.929 . S
H438 C442 0.929 . S
H439 C448 0.929 . S
C440 H434 0.930 . S
C440 C441 1.367 . S
C440 C448 1.378 . S
C441 C440 1.367 . S
C441 C449 1.433 . S
C442 H438 0.929 . S
C442 C444 1.378 . S
C442 C446 1.350 . S
C443 C446 1.463 . S
C443 C448 1.350 . S
C443 N451 1.427 . S
C444 H435 0.930 . S
C444 C442 1.378 . S
C444 C445 1.367 . S
C445 C444 1.367 . S
C445 C447 1.433 . S
C446 C442 1.350 . S
C446 C443 1.463 . S
C446 N450 1.427 . S
C447 H437 0.929 . S
C447 C445 1.433 . S
C447 N450 1.384 . S
C448 H439 0.929 . S
C448 C440 1.378 . S
C448 C443 1.350 . S
C449 H436 0.929 . S
C449 C441 1.433 . S
C449 N451 1.384 . S
N450 C446 1.427 . S
N450 C447 1.384 . S
N451 C443 1.427 . S
N451 C449 1.384 . S
H452 C458 0.930 . S
H453 C462 0.930 . S
H454 C467 0.929 . S
H455 C465 0.929 . S
H456 C460 0.929 . S
H457 C466 0.929 . S
C458 H452 0.930 . S
C458 C459 1.367 . S
C458 C466 1.378 . S
C459 C458 1.367 . S
C459 C467 1.433 . S
C460 H456 0.929 . S
C460 C462 1.378 . S
C460 C464 1.350 . S
C461 C464 1.463 1_545 S
C461 C466 1.350 . S
C461 N469 1.427 . S
C462 H453 0.930 . S
C462 C460 1.378 . S
C462 C463 1.367 . S
C463 C462 1.367 . S
C463 C465 1.433 . S
C464 C460 1.350 . S
C464 C461 1.463 1_565 S
C464 N468 1.427 . S
C465 H455 0.929 . S
C465 C463 1.433 . S
C465 N468 1.384 . S
C466 H457 0.929 . S
C466 C458 1.378 . S
C466 C461 1.350 . S
C467 H454 0.929 . S
C467 C459 1.433 . S
C467 N469 1.384 . S
N468 C464 1.427 . S
N468 C465 1.384 . S
N469 C461 1.427 . S
N469 C467 1.384 . S
H470 C476 0.930 . S
H471 C480 0.930 . S
H472 C485 0.929 . S
H473 C483 0.929 . S
H474 C478 0.929 1_556 S
H475 C484 0.929 1_554 S
C476 H470 0.930 . S
C476 C477 1.367 . S
C476 C484 1.378 . S
C477 C476 1.367 . S
C477 C485 1.433 . S
C478 H474 0.929 1_554 S
C478 C480 1.378 . S
C478 C482 1.350 . S
C479 C482 1.463 1_556 S
C479 C484 1.350 . S
C479 N487 1.427 . S
C480 H471 0.930 . S
C480 C478 1.378 . S
C480 C481 1.367 . S
C481 C480 1.367 . S
C481 C483 1.433 . S
C482 C478 1.350 . S
C482 C479 1.463 1_554 S
C482 N486 1.427 . S
C483 H473 0.929 . S
C483 C481 1.433 . S
C483 N486 1.384 . S
C484 H475 0.929 1_556 S
C484 C476 1.378 . S
C484 C479 1.350 . S
C485 H472 0.929 . S
C485 C477 1.433 . S
C485 N487 1.384 . S
N486 C482 1.427 . S
N486 C483 1.384 . S
N487 C479 1.427 . S
N487 C485 1.384 . S
H488 C494 0.930 . S
H489 C498 0.930 . S
H490 C503 0.929 . S
H491 C501 0.929 . S
H492 C496 0.929 1_565 S
H493 C502 0.929 1_545 S
C494 H488 0.930 . S
C494 C495 1.367 . S
C494 C502 1.378 . S
C495 C494 1.367 . S
C495 C503 1.433 . S
C496 H492 0.929 1_545 S
C496 C498 1.378 . S
C496 C500 1.350 . S
C497 C500 1.463 1_565 S
C497 C502 1.350 . S
C497 N505 1.427 . S
C498 H489 0.930 . S
C498 C496 1.378 . S
C498 C499 1.367 . S
C499 C498 1.367 . S
C499 C501 1.433 . S
C500 C496 1.350 . S
C500 C497 1.463 1_545 S
C500 N504 1.427 . S
C501 H491 0.929 . S
C501 C499 1.433 . S
C501 N504 1.384 . S
C502 H493 0.929 1_565 S
C502 C494 1.378 . S
C502 C497 1.350 . S
C503 H490 0.929 . S
C503 C495 1.433 . S
C503 N505 1.384 . S
N504 C500 1.427 . S
N504 C501 1.384 . S
N505 C497 1.427 . S
N505 C503 1.384 . S
H506 C512 0.930 . S
H507 C516 0.930 . S
H508 C521 0.929 . S
H509 C519 0.929 . S
H510 C514 0.929 . S
H511 C520 0.929 . S
C512 H506 0.930 . S
C512 C513 1.367 . S
C512 C520 1.378 . S
C513 C512 1.367 . S
C513 C521 1.433 . S
C514 H510 0.929 . S
C514 C516 1.378 . S
C514 C518 1.350 . S
C515 C518 1.463 . S
C515 C520 1.350 . S
C515 N523 1.427 . S
C516 H507 0.930 . S
C516 C514 1.378 . S
C516 C517 1.367 . S
C517 C516 1.367 . S
C517 C519 1.433 . S
C518 C514 1.350 . S
C518 C515 1.463 . S
C518 N522 1.427 . S
C519 H509 0.929 . S
C519 C517 1.433 . S
C519 N522 1.384 . S
C520 H511 0.929 . S
C520 C512 1.378 . S
C520 C515 1.350 . S
C521 H508 0.929 . S
C521 C513 1.433 . S
C521 N523 1.384 . S
N522 C518 1.427 . S
N522 C519 1.384 . S
N523 C515 1.427 . S
N523 C521 1.384 . S
H524 C530 0.930 . S
H525 C534 0.930 . S
H526 C539 0.929 . S
H527 C537 0.929 . S
H528 C532 0.929 . S
H529 C538 0.929 . S
C530 H524 0.930 . S
C530 C531 1.367 . S
C530 C538 1.378 . S
C531 C530 1.367 . S
C531 C539 1.433 . S
C532 H528 0.929 . S
C532 C534 1.378 . S
C532 C536 1.350 . S
C533 C536 1.463 1_565 S
C533 C538 1.350 . S
C533 N541 1.427 . S
C534 H525 0.930 . S
C534 C532 1.378 . S
C534 C535 1.367 . S
C535 C534 1.367 . S
C535 C537 1.433 . S
C536 C532 1.350 . S
C536 C533 1.463 1_545 S
C536 N540 1.427 . S
C537 H527 0.929 . S
C537 C535 1.433 . S
C537 N540 1.384 . S
C538 H529 0.929 . S
C538 C530 1.378 . S
C538 C533 1.350 . S
C539 H526 0.929 . S
C539 C531 1.433 . S
C539 N541 1.384 . S
N540 C536 1.427 . S
N540 C537 1.384 . S
N541 C533 1.427 . S
N541 C539 1.384 . S
H542 C548 0.930 . S
H543 C552 0.930 . S
H544 C557 0.929 . S
H545 C555 0.929 . S
H546 C550 0.929 . S
H547 C556 0.929 . S
C548 H542 0.930 . S
C548 C549 1.367 . S
C548 C556 1.378 . S
C549 C548 1.367 . S
C549 C557 1.433 . S
C550 H546 0.929 . S
C550 C552 1.378 . S
C550 C554 1.350 . S
C551 C554 1.463 1_556 S
C551 C556 1.350 . S
C551 N559 1.427 . S
C552 H543 0.930 . S
C552 C550 1.378 . S
C552 C553 1.367 . S
C553 C552 1.367 . S
C553 C555 1.433 . S
C554 C550 1.350 . S
C554 C551 1.463 1_554 S
C554 N558 1.427 . S
C555 H545 0.929 . S
C555 C553 1.433 . S
C555 N558 1.384 . S
C556 H547 0.929 . S
C556 C548 1.378 . S
C556 C551 1.350 . S
C557 H544 0.929 . S
C557 C549 1.433 . S
C557 N559 1.384 . S
N558 C554 1.427 . S
N558 C555 1.384 . S
N559 C551 1.427 . S
N559 C557 1.384 . S
H560 C566 0.930 . S
H561 C570 0.930 . S
H562 C575 0.929 . S
H563 C573 0.929 . S
H564 C568 0.929 . S
H565 C574 0.929 . S
C566 H560 0.930 . S
C566 C567 1.367 . S
C566 C574 1.378 . S
C567 C566 1.367 . S
C567 C575 1.433 . S
C568 H564 0.929 . S
C568 C570 1.378 . S
C568 C572 1.350 . S
C569 C572 1.463 . S
C569 C574 1.350 . S
C569 N577 1.427 . S
C570 H561 0.930 . S
C570 C568 1.378 . S
C570 C571 1.367 . S
C571 C570 1.367 . S
C571 C573 1.433 . S
C572 C568 1.350 . S
C572 C569 1.463 . S
C572 N576 1.427 . S
C573 H563 0.929 . S
C573 C571 1.433 . S
C573 N576 1.384 . S
C574 H565 0.929 . S
C574 C566 1.378 . S
C574 C569 1.350 . S
C575 H562 0.929 . S
C575 C567 1.433 . S
C575 N577 1.384 . S
N576 C572 1.427 . S
N576 C573 1.384 . S
N577 C569 1.427 . S
N577 C575 1.384 . S
H578 C584 0.930 . S
H579 C588 0.930 . S
H580 C593 0.929 . S
H581 C591 0.929 . S
H582 C586 0.929 . S
H583 C592 0.929 . S
C584 H578 0.930 . S
C584 C585 1.367 . S
C584 C592 1.378 . S
C585 C584 1.367 . S
C585 C593 1.433 . S
C586 H582 0.929 . S
C586 C588 1.378 . S
C586 C590 1.350 . S
C587 C590 1.463 1_556 S
C587 C592 1.350 . S
C587 N595 1.427 . S
C588 H579 0.930 . S
C588 C586 1.378 . S
C588 C589 1.367 . S
C589 C588 1.367 . S
C589 C591 1.433 . S
C590 C586 1.350 . S
C590 C587 1.463 1_554 S
C590 N594 1.427 . S
C591 H581 0.929 . S
C591 C589 1.433 . S
C591 N594 1.384 . S
C592 H583 0.929 . S
C592 C584 1.378 . S
C592 C587 1.350 . S
C593 H580 0.929 . S
C593 C585 1.433 . S
C593 N595 1.384 . S
N594 C590 1.427 . S
N594 C591 1.384 . S
N595 C587 1.427 . S
N595 C593 1.384 . S
H596 C602 0.930 . S
H597 C606 0.930 . S
H598 C611 0.929 . S
H599 C609 0.929 . S
H600 C604 0.929 . S
H601 C610 0.929 . S
C602 H596 0.930 . S
C602 C603 1.367 . S
C602 C610 1.378 . S
C603 C602 1.367 . S
C603 C611 1.433 . S
C604 H600 0.929 . S
C604 C606 1.378 . S
C604 C608 1.350 . S
C605 C608 1.463 . S
C605 C610 1.350 . S
C605 N613 1.427 . S
C606 H597 0.930 . S
C606 C604 1.378 . S
C606 C607 1.367 . S
C607 C606 1.367 . S
C607 C609 1.433 . S
C608 C604 1.350 . S
C608 C605 1.463 . S
C608 N612 1.427 . S
C609 H599 0.929 . S
C609 C607 1.433 . S
C609 N612 1.384 . S
C610 H601 0.929 . S
C610 C602 1.378 . S
C610 C605 1.350 . S
C611 H598 0.929 . S
C611 C603 1.433 . S
C611 N613 1.384 . S
N612 C608 1.427 . S
N612 C609 1.384 . S
N613 C605 1.427 . S
N613 C611 1.384 . S
H614 C620 0.930 . S
H615 C624 0.930 . S
H616 C629 0.929 . S
H617 C627 0.929 . S
H618 C622 0.929 . S
H619 C628 0.929 . S
C620 H614 0.930 . S
C620 C621 1.367 . S
C620 C628 1.378 . S
C621 C620 1.367 . S
C621 C629 1.433 . S
C622 H618 0.929 . S
C622 C624 1.378 . S
C622 C626 1.350 . S
C623 C626 1.463 . S
C623 C628 1.350 . S
C623 N631 1.427 . S
C624 H615 0.930 . S
C624 C622 1.378 . S
C624 C625 1.367 . S
C625 C624 1.367 . S
C625 C627 1.433 . S
C626 C622 1.350 . S
C626 C623 1.463 . S
C626 N630 1.427 . S
C627 H617 0.929 . S
C627 C625 1.433 . S
C627 N630 1.384 . S
C628 H619 0.929 . S
C628 C620 1.378 . S
C628 C623 1.350 . S
C629 H616 0.929 . S
C629 C621 1.433 . S
C629 N631 1.384 . S
N630 C626 1.427 . S
N630 C627 1.384 . S
N631 C623 1.427 . S
N631 C629 1.384 . S
H632 C638 0.930 . S
H633 C642 0.930 . S
H634 C647 0.929 . S
H635 C645 0.929 . S
H636 C640 0.929 . S
H637 C646 0.929 . S
C638 H632 0.930 . S
C638 C639 1.367 . S
C638 C646 1.378 . S
C639 C638 1.367 . S
C639 C647 1.433 . S
C640 H636 0.929 . S
C640 C642 1.378 . S
C640 C644 1.350 . S
C641 C644 1.463 . S
C641 C646 1.350 . S
C641 N649 1.427 . S
C642 H633 0.930 . S
C642 C640 1.378 . S
C642 C643 1.367 . S
C643 C642 1.367 . S
C643 C645 1.433 . S
C644 C640 1.350 . S
C644 C641 1.463 . S
C644 N648 1.427 . S
C645 H635 0.929 . S
C645 C643 1.433 . S
C645 N648 1.384 . S
C646 H637 0.929 . S
C646 C638 1.378 . S
C646 C641 1.350 . S
C647 H634 0.929 . S
C647 C639 1.433 . S
C647 N649 1.384 . S
N648 C644 1.427 . S
N648 C645 1.384 . S
N649 C641 1.427 . S
N649 C647 1.384 . S
H650 C656 0.930 . S
H651 C660 0.930 . S
H652 C665 0.929 . S
H653 C663 0.929 . S
H654 C658 0.929 . S
H655 C664 0.929 . S
C656 H650 0.930 . S
C656 C657 1.367 . S
C656 C664 1.378 . S
C657 C656 1.367 . S
C657 C665 1.433 . S
C658 H654 0.929 . S
C658 C660 1.378 . S
C658 C662 1.350 . S
C659 C662 1.463 1_554 S
C659 C664 1.350 . S
C659 N667 1.427 . S
C660 H651 0.930 . S
C660 C658 1.378 . S
C660 C661 1.367 . S
C661 C660 1.367 . S
C661 C663 1.433 . S
C662 C658 1.350 . S
C662 C659 1.463 1_556 S
C662 N666 1.427 . S
C663 H653 0.929 . S
C663 C661 1.433 . S
C663 N666 1.384 . S
C664 H655 0.929 . S
C664 C656 1.378 . S
C664 C659 1.350 . S
C665 H652 0.929 . S
C665 C657 1.433 . S
C665 N667 1.384 . S
N666 C662 1.427 . S
N666 C663 1.384 . S
N667 C659 1.427 . S
N667 C665 1.384 . S
H668 C674 0.930 . S
H669 C678 0.930 . S
H670 C683 0.929 . S
H671 C681 0.929 . S
H672 C676 0.929 . S
H673 C682 0.929 . S
C674 H668 0.930 . S
C674 C675 1.367 . S
C674 C682 1.378 . S
C675 C674 1.367 . S
C675 C683 1.433 . S
C676 H672 0.929 . S
C676 C678 1.378 . S
C676 C680 1.350 . S
C677 C680 1.463 . S
C677 C682 1.350 . S
C677 N685 1.427 . S
C678 H669 0.930 . S
C678 C676 1.378 . S
C678 C679 1.367 . S
C679 C678 1.367 . S
C679 C681 1.433 . S
C680 C676 1.350 . S
C680 C677 1.463 . S
C680 N684 1.427 . S
C681 H671 0.929 . S
C681 C679 1.433 . S
C681 N684 1.384 . S
C682 H673 0.929 . S
C682 C674 1.378 . S
C682 C677 1.350 . S
C683 H670 0.929 . S
C683 C675 1.433 . S
C683 N685 1.384 . S
N684 C680 1.427 . S
N684 C681 1.384 . S
N685 C677 1.427 . S
N685 C683 1.384 . S
H686 C692 0.930 . S
H687 C696 0.930 . S
H688 C701 0.929 . S
H689 C699 0.929 . S
H690 C694 0.929 . S
H691 C700 0.929 . S
C692 H686 0.930 . S
C692 C693 1.367 . S
C692 C700 1.378 . S
C693 C692 1.367 . S
C693 C701 1.433 . S
C694 H690 0.929 . S
C694 C696 1.378 . S
C694 C698 1.350 . S
C695 C698 1.463 . S
C695 C700 1.350 . S
C695 N703 1.427 . S
C696 H687 0.930 . S
C696 C694 1.378 . S
C696 C697 1.367 . S
C697 C696 1.367 . S
C697 C699 1.433 . S
C698 C694 1.350 . S
C698 C695 1.463 . S
C698 N702 1.427 . S
C699 H689 0.929 . S
C699 C697 1.433 . S
C699 N702 1.384 . S
C700 H691 0.929 . S
C700 C692 1.378 . S
C700 C695 1.350 . S
C701 H688 0.929 . S
C701 C693 1.433 . S
C701 N703 1.384 . S
N702 C698 1.427 . S
N702 C699 1.384 . S
N703 C695 1.427 . S
N703 C701 1.384 . S
H704 C710 0.930 . S
H705 C714 0.930 . S
H706 C719 0.929 . S
H707 C717 0.929 . S
H708 C712 0.929 . S
H709 C718 0.929 . S
C710 H704 0.930 . S
C710 C711 1.367 . S
C710 C718 1.378 . S
C711 C710 1.367 . S
C711 C719 1.433 . S
C712 H708 0.929 . S
C712 C714 1.378 . S
C712 C716 1.350 . S
C713 C716 1.463 . S
C713 C718 1.350 . S
C713 N721 1.427 . S
C714 H705 0.930 . S
C714 C712 1.378 . S
C714 C715 1.367 . S
C715 C714 1.367 . S
C715 C717 1.433 . S
C716 C712 1.350 . S
C716 C713 1.463 . S
C716 N720 1.427 . S
C717 H707 0.929 . S
C717 C715 1.433 . S
C717 N720 1.384 . S
C718 H709 0.929 . S
C718 C710 1.378 . S
C718 C713 1.350 . S
C719 H706 0.929 . S
C719 C711 1.433 . S
C719 N721 1.384 . S
N720 C716 1.427 . S
N720 C717 1.384 . S
N721 C713 1.427 . S
N721 C719 1.384 . S
H722 C728 0.930 . S
H723 C732 0.930 . S
H724 C737 0.929 . S
H725 C735 0.929 . S
H726 C730 0.929 . S
H727 C736 0.929 . S
C728 H722 0.930 . S
C728 C729 1.367 . S
C728 C736 1.378 . S
C729 C728 1.367 . S
C729 C737 1.433 . S
C730 H726 0.929 . S
C730 C732 1.378 . S
C730 C734 1.350 . S
C731 C734 1.463 1_655 S
C731 C736 1.350 . S
C731 N739 1.427 . S
C732 H723 0.930 . S
C732 C730 1.378 . S
C732 C733 1.367 . S
C733 C732 1.367 . S
C733 C735 1.433 . S
C734 C730 1.350 . S
C734 C731 1.463 1_455 S
C734 N738 1.427 . S
C735 H725 0.929 . S
C735 C733 1.433 . S
C735 N738 1.384 . S
C736 H727 0.929 . S
C736 C728 1.378 . S
C736 C731 1.350 . S
C737 H724 0.929 . S
C737 C729 1.433 . S
C737 N739 1.384 . S
N738 C734 1.427 . S
N738 C735 1.384 . S
N739 C731 1.427 . S
N739 C737 1.384 . S
H740 C746 0.930 . S
H741 C750 0.930 . S
H742 C755 0.929 . S
H743 C753 0.929 . S
H744 C748 0.929 . S
H745 C754 0.929 . S
C746 H740 0.930 . S
C746 C747 1.367 . S
C746 C754 1.378 . S
C747 C746 1.367 . S
C747 C755 1.433 . S
C748 H744 0.929 . S
C748 C750 1.378 . S
C748 C752 1.350 . S
C749 C752 1.463 . S
C749 C754 1.350 . S
C749 N757 1.427 . S
C750 H741 0.930 . S
C750 C748 1.378 . S
C750 C751 1.367 . S
C751 C750 1.367 . S
C751 C753 1.433 . S
C752 C748 1.350 . S
C752 C749 1.463 . S
C752 N756 1.427 . S
C753 H743 0.929 . S
C753 C751 1.433 . S
C753 N756 1.384 . S
C754 H745 0.929 . S
C754 C746 1.378 . S
C754 C749 1.350 . S
C755 H742 0.929 . S
C755 C747 1.433 . S
C755 N757 1.384 . S
N756 C752 1.427 . S
N756 C753 1.384 . S
N757 C749 1.427 . S
N757 C755 1.384 . S
H758 C764 0.930 . S
H759 C768 0.930 . S
H760 C773 0.929 . S
H761 C771 0.929 . S
H762 C766 0.929 . S
H763 C772 0.929 . S
C764 H758 0.930 . S
C764 C765 1.367 . S
C764 C772 1.378 . S
C765 C764 1.367 . S
C765 C773 1.433 . S
C766 H762 0.929 . S
C766 C768 1.378 . S
C766 C770 1.350 . S
C767 C770 1.463 . S
C767 C772 1.350 . S
C767 N775 1.427 . S
C768 H759 0.930 . S
C768 C766 1.378 . S
C768 C769 1.367 . S
C769 C768 1.367 . S
C769 C771 1.433 . S
C770 C766 1.350 . S
C770 C767 1.463 . S
C770 N774 1.427 . S
C771 H761 0.929 . S
C771 C769 1.433 . S
C771 N774 1.384 . S
C772 H763 0.929 . S
C772 C764 1.378 . S
C772 C767 1.350 . S
C773 H760 0.929 . S
C773 C765 1.433 . S
C773 N775 1.384 . S
N774 C770 1.427 . S
N774 C771 1.384 . S
N775 C767 1.427 . S
N775 C773 1.384 . S
H776 C782 0.930 . S
H777 C786 0.930 . S
H778 C791 0.929 . S
H779 C789 0.929 . S
H780 C784 0.929 . S
H781 C790 0.929 . S
C782 H776 0.930 . S
C782 C783 1.367 . S
C782 C790 1.378 . S
C783 C782 1.367 . S
C783 C791 1.433 . S
C784 H780 0.929 . S
C784 C786 1.378 . S
C784 C788 1.350 . S
C785 C788 1.463 . S
C785 C790 1.350 . S
C785 N793 1.427 . S
C786 H777 0.930 . S
C786 C784 1.378 . S
C786 C787 1.367 . S
C787 C786 1.367 . S
C787 C789 1.433 . S
C788 C784 1.350 . S
C788 C785 1.463 . S
C788 N792 1.427 . S
C789 H779 0.929 . S
C789 C787 1.433 . S
C789 N792 1.384 . S
C790 H781 0.929 . S
C790 C782 1.378 . S
C790 C785 1.350 . S
C791 H778 0.929 . S
C791 C783 1.433 . S
C791 N793 1.384 . S
N792 C788 1.427 . S
N792 C789 1.384 . S
N793 C785 1.427 . S
N793 C791 1.384 . S
H794 C800 0.930 . S
H795 C804 0.930 . S
H796 C809 0.929 . S
H797 C807 0.929 . S
H798 C802 0.929 . S
H799 C808 0.929 . S
C800 H794 0.930 . S
C800 C801 1.367 . S
C800 C808 1.378 . S
C801 C800 1.367 . S
C801 C809 1.433 . S
C802 H798 0.929 . S
C802 C804 1.378 . S
C802 C806 1.350 . S
C803 C806 1.463 . S
C803 C808 1.350 . S
C803 N811 1.427 . S
C804 H795 0.930 . S
C804 C802 1.378 . S
C804 C805 1.367 . S
C805 C804 1.367 . S
C805 C807 1.433 . S
C806 C802 1.350 . S
C806 C803 1.463 . S
C806 N810 1.427 . S
C807 H797 0.929 . S
C807 C805 1.433 . S
C807 N810 1.384 . S
C808 H799 0.929 . S
C808 C800 1.378 . S
C808 C803 1.350 . S
C809 H796 0.929 . S
C809 C801 1.433 . S
C809 N811 1.384 . S
N810 C806 1.427 . S
N810 C807 1.384 . S
N811 C803 1.427 . S
N811 C809 1.384 . S
H812 C818 0.930 . S
H813 C822 0.930 . S
H814 C827 0.929 . S
H815 C825 0.929 . S
H816 C820 0.929 . S
H817 C826 0.929 . S
C818 H812 0.930 . S
C818 C819 1.367 . S
C818 C826 1.378 . S
C819 C818 1.367 . S
C819 C827 1.433 . S
C820 H816 0.929 . S
C820 C822 1.378 . S
C820 C824 1.350 . S
C821 C824 1.463 . S
C821 C826 1.350 . S
C821 N829 1.427 . S
C822 H813 0.930 . S
C822 C820 1.378 . S
C822 C823 1.367 . S
C823 C822 1.367 . S
C823 C825 1.433 . S
C824 C820 1.350 . S
C824 C821 1.463 . S
C824 N828 1.427 . S
C825 H815 0.929 . S
C825 C823 1.433 . S
C825 N828 1.384 . S
C826 H817 0.929 . S
C826 C818 1.378 . S
C826 C821 1.350 . S
C827 H814 0.929 . S
C827 C819 1.433 . S
C827 N829 1.384 . S
N828 C824 1.427 . S
N828 C825 1.384 . S
N829 C821 1.427 . S
N829 C827 1.384 . S
H830 C836 0.930 . S
H831 C840 0.930 . S
H832 C845 0.929 . S
H833 C843 0.929 . S
H834 C838 0.929 . S
H835 C844 0.929 . S
C836 H830 0.930 . S
C836 C837 1.367 . S
C836 C844 1.378 . S
C837 C836 1.367 . S
C837 C845 1.433 . S
C838 H834 0.929 . S
C838 C840 1.378 . S
C838 C842 1.350 . S
C839 C842 1.463 1_455 S
C839 C844 1.350 . S
C839 N847 1.427 . S
C840 H831 0.930 . S
C840 C838 1.378 . S
C840 C841 1.367 . S
C841 C840 1.367 . S
C841 C843 1.433 . S
C842 C838 1.350 . S
C842 C839 1.463 1_655 S
C842 N846 1.427 . S
C843 H833 0.929 . S
C843 C841 1.433 . S
C843 N846 1.384 . S
C844 H835 0.929 . S
C844 C836 1.378 . S
C844 C839 1.350 . S
C845 H832 0.929 . S
C845 C837 1.433 . S
C845 N847 1.384 . S
N846 C842 1.427 . S
N846 C843 1.384 . S
N847 C839 1.427 . S
N847 C845 1.384 . S
H848 C854 0.930 . S
H849 C858 0.930 . S
H850 C863 0.929 . S
H851 C861 0.929 . S
H852 C856 0.929 . S
H853 C862 0.929 . S
C854 H848 0.930 . S
C854 C855 1.367 . S
C854 C862 1.378 . S
C855 C854 1.367 . S
C855 C863 1.433 . S
C856 H852 0.929 . S
C856 C858 1.378 . S
C856 C860 1.350 . S
C857 C860 1.463 . S
C857 C862 1.350 . S
C857 N865 1.427 . S
C858 H849 0.930 . S
C858 C856 1.378 . S
C858 C859 1.367 . S
C859 C858 1.367 . S
C859 C861 1.433 . S
C860 C856 1.350 . S
C860 C857 1.463 . S
C860 N864 1.427 . S
C861 H851 0.929 . S
C861 C859 1.433 . S
C861 N864 1.384 . S
C862 H853 0.929 . S
C862 C854 1.378 . S
C862 C857 1.350 . S
C863 H850 0.929 . S
C863 C855 1.433 . S
C863 N865 1.384 . S
N864 C860 1.427 . S
N864 C861 1.384 . S
N865 C857 1.427 . S
N865 C863 1.384 . S
H866 C872 0.930 . S
H867 C876 0.930 . S
H868 C881 0.929 . S
H869 C879 0.929 . S
H870 C874 0.929 . S
H871 C880 0.929 . S
C872 H866 0.930 . S
C872 C873 1.367 . S
C872 C880 1.378 . S
C873 C872 1.367 . S
C873 C881 1.433 . S
C874 H870 0.929 . S
C874 C876 1.378 . S
C874 C878 1.350 . S
C875 C878 1.463 1_655 S
C875 C880 1.350 . S
C875 N883 1.427 . S
C876 H867 0.930 . S
C876 C874 1.378 . S
C876 C877 1.367 . S
C877 C876 1.367 . S
C877 C879 1.433 . S
C878 C874 1.350 . S
C878 C875 1.463 1_455 S
C878 N882 1.427 . S
C879 H869 0.929 . S
C879 C877 1.433 . S
C879 N882 1.384 . S
C880 H871 0.929 . S
C880 C872 1.378 . S
C880 C875 1.350 . S
C881 H868 0.929 . S
C881 C873 1.433 . S
C881 N883 1.384 . S
N882 C878 1.427 . S
N882 C879 1.384 . S
N883 C875 1.427 . S
N883 C881 1.384 . S
H884 C890 0.930 . S
H885 C894 0.930 . S
H886 C899 0.929 . S
H887 C897 0.929 . S
H888 C892 0.929 . S
H889 C898 0.929 . S
C890 H884 0.930 . S
C890 C891 1.367 . S
C890 C898 1.378 . S
C891 C890 1.367 . S
C891 C899 1.433 . S
C892 H888 0.929 . S
C892 C894 1.378 . S
C892 C896 1.350 . S
C893 C896 1.463 . S
C893 C898 1.350 . S
C893 N901 1.427 . S
C894 H885 0.930 . S
C894 C892 1.378 . S
C894 C895 1.367 . S
C895 C894 1.367 . S
C895 C897 1.433 . S
C896 C892 1.350 . S
C896 C893 1.463 . S
C896 N900 1.427 . S
C897 H887 0.929 . S
C897 C895 1.433 . S
C897 N900 1.384 . S
C898 H889 0.929 . S
C898 C890 1.378 . S
C898 C893 1.350 . S
C899 H886 0.929 . S
C899 C891 1.433 . S
C899 N901 1.384 . S
N900 C896 1.427 . S
N900 C897 1.384 . S
N901 C893 1.427 . S
N901 C899 1.384 . S
H902 C908 0.930 . S
H903 C912 0.930 . S
H904 C917 0.929 . S
H905 C915 0.929 . S
H906 C910 0.929 . S
H907 C916 0.929 . S
C908 H902 0.930 . S
C908 C909 1.367 . S
C908 C916 1.378 . S
C909 C908 1.367 . S
C909 C917 1.433 . S
C910 H906 0.929 . S
C910 C912 1.378 . S
C910 C914 1.350 . S
C911 C914 1.463 . S
C911 C916 1.350 . S
C911 N919 1.427 . S
C912 H903 0.930 . S
C912 C910 1.378 . S
C912 C913 1.367 . S
C913 C912 1.367 . S
C913 C915 1.433 . S
C914 C910 1.350 . S
C914 C911 1.463 . S
C914 N918 1.427 . S
C915 H905 0.929 . S
C915 C913 1.433 . S
C915 N918 1.384 . S
C916 H907 0.929 . S
C916 C908 1.378 . S
C916 C911 1.350 . S
C917 H904 0.929 . S
C917 C909 1.433 . S
C917 N919 1.384 . S
N918 C914 1.427 . S
N918 C915 1.384 . S
N919 C911 1.427 . S
N919 C917 1.384 . S
H920 C926 0.930 . S
H921 C930 0.930 . S
H922 C935 0.929 . S
H923 C933 0.929 . S
H924 C928 0.929 . S
H925 C934 0.929 . S
C926 H920 0.930 . S
C926 C927 1.367 . S
C926 C934 1.378 . S
C927 C926 1.367 . S
C927 C935 1.433 . S
C928 H924 0.929 . S
C928 C930 1.378 . S
C928 C932 1.350 . S
C929 C932 1.463 . S
C929 C934 1.350 . S
C929 N937 1.427 . S
C930 H921 0.930 . S
C930 C928 1.378 . S
C930 C931 1.367 . S
C931 C930 1.367 . S
C931 C933 1.433 . S
C932 C928 1.350 . S
C932 C929 1.463 . S
C932 N936 1.427 . S
C933 H923 0.929 . S
C933 C931 1.433 . S
C933 N936 1.384 . S
C934 H925 0.929 . S
C934 C926 1.378 . S
C934 C929 1.350 . S
C935 H922 0.929 . S
C935 C927 1.433 . S
C935 N937 1.384 . S
N936 C932 1.427 . S
N936 C933 1.384 . S
N937 C929 1.427 . S
N937 C935 1.384 . S
H938 C944 0.930 . S
H939 C948 0.930 . S
H940 C953 0.929 . S
H941 C951 0.929 . S
H942 C946 0.929 . S
H943 C952 0.929 . S
C944 H938 0.930 . S
C944 C945 1.367 . S
C944 C952 1.378 . S
C945 C944 1.367 . S
C945 C953 1.433 . S
C946 H942 0.929 . S
C946 C948 1.378 . S
C946 C950 1.350 . S
C947 C950 1.463 . S
C947 C952 1.350 . S
C947 N955 1.427 . S
C948 H939 0.930 . S
C948 C946 1.378 . S
C948 C949 1.367 . S
C949 C948 1.367 . S
C949 C951 1.433 . S
C950 C946 1.350 . S
C950 C947 1.463 . S
C950 N954 1.427 . S
C951 H941 0.929 . S
C951 C949 1.433 . S
C951 N954 1.384 . S
C952 H943 0.929 . S
C952 C944 1.378 . S
C952 C947 1.350 . S
C953 H940 0.929 . S
C953 C945 1.433 . S
C953 N955 1.384 . S
N954 C950 1.427 . S
N954 C951 1.384 . S
N955 C947 1.427 . S
N955 C953 1.384 . S
H956 C962 0.930 . S
H957 C966 0.930 . S
H958 C971 0.929 . S
H959 C969 0.929 . S
H960 C964 0.929 . S
H961 C970 0.929 . S
C962 H956 0.930 . S
C962 C963 1.367 . S
C962 C970 1.378 . S
C963 C962 1.367 . S
C963 C971 1.433 . S
C964 H960 0.929 . S
C964 C966 1.378 . S
C964 C968 1.350 . S
C965 C968 1.463 . S
C965 C970 1.350 . S
C965 N973 1.427 . S
C966 H957 0.930 . S
C966 C964 1.378 . S
C966 C967 1.367 . S
C967 C966 1.367 . S
C967 C969 1.433 . S
C968 C964 1.350 . S
C968 C965 1.463 . S
C968 N972 1.427 . S
C969 H959 0.929 . S
C969 C967 1.433 . S
C969 N972 1.384 . S
C970 H961 0.929 . S
C970 C962 1.378 . S
C970 C965 1.350 . S
C971 H958 0.929 . S
C971 C963 1.433 . S
C971 N973 1.384 . S
N972 C968 1.427 . S
N972 C969 1.384 . S
N973 C965 1.427 . S
N973 C971 1.384 . S
H974 C980 0.930 . S
H975 C984 0.930 . S
H976 C989 0.929 . S
H977 C987 0.929 . S
H978 C982 0.929 . S
H979 C988 0.929 . S
C980 H974 0.930 . S
C980 C981 1.367 . S
C980 C988 1.378 . S
C981 C980 1.367 . S
C981 C989 1.433 . S
C982 H978 0.929 . S
C982 C984 1.378 . S
C982 C986 1.350 . S
C983 C986 1.463 1_655 S
C983 C988 1.350 . S
C983 N991 1.427 . S
C984 H975 0.930 . S
C984 C982 1.378 . S
C984 C985 1.367 . S
C985 C984 1.367 . S
C985 C987 1.433 . S
C986 C982 1.350 . S
C986 C983 1.463 1_455 S
C986 N990 1.427 . S
C987 H977 0.929 . S
C987 C985 1.433 . S
C987 N990 1.384 . S
C988 H979 0.929 . S
C988 C980 1.378 . S
C988 C983 1.350 . S
C989 H976 0.929 . S
C989 C981 1.433 . S
C989 N991 1.384 . S
N990 C986 1.427 . S
N990 C987 1.384 . S
N991 C983 1.427 . S
N991 C989 1.384 . S
H992 C998 0.930 . S
H993 C1002 0.930 . S
H994 C1007 0.929 . S
H995 C1005 0.929 . S
H996 C1000 0.929 . S
H997 C1006 0.929 . S
C998 H992 0.930 . S
C998 C999 1.367 . S
C998 C1006 1.378 . S
C999 C998 1.367 . S
C999 C1007 1.433 . S
C1000 H996 0.929 . S
C1000 C1002 1.378 . S
C1000 C1004 1.350 . S
C1001 C1004 1.463 . S
C1001 C1006 1.350 . S
C1001 N1009 1.427 . S
C1002 H993 0.930 . S
C1002 C1000 1.378 . S
C1002 C1003 1.367 . S
C1003 C1002 1.367 . S
C1003 C1005 1.433 . S
C1004 C1000 1.350 . S
C1004 C1001 1.463 . S
C1004 N1008 1.427 . S
C1005 H995 0.929 . S
C1005 C1003 1.433 . S
C1005 N1008 1.384 . S
C1006 H997 0.929 . S
C1006 C998 1.378 . S
C1006 C1001 1.350 . S
C1007 H994 0.929 . S
C1007 C999 1.433 . S
C1007 N1009 1.384 . S
N1008 C1004 1.427 . S
N1008 C1005 1.384 . S
N1009 C1001 1.427 . S
N1009 C1007 1.384 . S
H1010 C1016 0.930 . S
H1011 C1020 0.930 . S
H1012 C1025 0.929 . S
H1013 C1023 0.929 . S
H1014 C1018 0.929 . S
H1015 C1024 0.929 . S
C1016 H1010 0.930 . S
C1016 C1017 1.367 . S
C1016 C1024 1.378 . S
C1017 C1016 1.367 . S
C1017 C1025 1.433 . S
C1018 H1014 0.929 . S
C1018 C1020 1.378 . S
C1018 C1022 1.350 . S
C1019 C1022 1.463 . S
C1019 C1024 1.350 . S
C1019 N1027 1.427 . S
C1020 H1011 0.930 . S
C1020 C1018 1.378 . S
C1020 C1021 1.367 . S
C1021 C1020 1.367 . S
C1021 C1023 1.433 . S
C1022 C1018 1.350 . S
C1022 C1019 1.463 . S
C1022 N1026 1.427 . S
C1023 H1013 0.929 . S
C1023 C1021 1.433 . S
C1023 N1026 1.384 . S
C1024 H1015 0.929 . S
C1024 C1016 1.378 . S
C1024 C1019 1.350 . S
C1025 H1012 0.929 . S
C1025 C1017 1.433 . S
C1025 N1027 1.384 . S
N1026 C1022 1.427 . S
N1026 C1023 1.384 . S
N1027 C1019 1.427 . S
N1027 C1025 1.384 . S
H1028 C1034 0.930 . S
H1029 C1038 0.930 . S
H1030 C1043 0.929 . S
H1031 C1041 0.929 . S
H1032 C1036 0.929 . S
H1033 C1042 0.929 . S
C1034 H1028 0.930 . S
C1034 C1035 1.367 . S
C1034 C1042 1.378 . S
C1035 C1034 1.367 . S
C1035 C1043 1.433 . S
C1036 H1032 0.929 . S
C1036 C1038 1.378 . S
C1036 C1040 1.350 . S
C1037 C1040 1.463 . S
C1037 C1042 1.350 . S
C1037 N1045 1.427 . S
C1038 H1029 0.930 . S
C1038 C1036 1.378 . S
C1038 C1039 1.367 . S
C1039 C1038 1.367 . S
C1039 C1041 1.433 . S
C1040 C1036 1.350 . S
C1040 C1037 1.463 . S
C1040 N1044 1.427 . S
C1041 H1031 0.929 . S
C1041 C1039 1.433 . S
C1041 N1044 1.384 . S
C1042 H1033 0.929 . S
C1042 C1034 1.378 . S
C1042 C1037 1.350 . S
C1043 H1030 0.929 . S
C1043 C1035 1.433 . S
C1043 N1045 1.384 . S
N1044 C1040 1.427 . S
N1044 C1041 1.384 . S
N1045 C1037 1.427 . S
N1045 C1043 1.384 . S
H1046 C1052 0.930 . S
H1047 C1056 0.930 . S
H1048 C1061 0.929 . S
H1049 C1059 0.929 . S
H1050 C1054 0.929 . S
H1051 C1060 0.929 . S
C1052 H1046 0.930 . S
C1052 C1053 1.367 . S
C1052 C1060 1.378 . S
C1053 C1052 1.367 . S
C1053 C1061 1.433 . S
C1054 H1050 0.929 . S
C1054 C1056 1.378 . S
C1054 C1058 1.350 . S
C1055 C1058 1.463 1_655 S
C1055 C1060 1.350 . S
C1055 N1063 1.427 . S
C1056 H1047 0.930 . S
C1056 C1054 1.378 . S
C1056 C1057 1.367 . S
C1057 C1056 1.367 . S
C1057 C1059 1.433 . S
C1058 C1054 1.350 . S
C1058 C1055 1.463 1_455 S
C1058 N1062 1.427 . S
C1059 H1049 0.929 . S
C1059 C1057 1.433 . S
C1059 N1062 1.384 . S
C1060 H1051 0.929 . S
C1060 C1052 1.378 . S
C1060 C1055 1.350 . S
C1061 H1048 0.929 . S
C1061 C1053 1.433 . S
C1061 N1063 1.384 . S
N1062 C1058 1.427 . S
N1062 C1059 1.384 . S
N1063 C1055 1.427 . S
N1063 C1061 1.384 . S
H1064 C1070 0.930 . S
H1065 C1074 0.930 . S
H1066 C1079 0.929 . S
H1067 C1077 0.929 . S
H1068 C1072 0.929 . S
H1069 C1078 0.929 . S
C1070 H1064 0.930 . S
C1070 C1071 1.367 . S
C1070 C1078 1.378 . S
C1071 C1070 1.367 . S
C1071 C1079 1.433 . S
C1072 H1068 0.929 . S
C1072 C1074 1.378 . S
C1072 C1076 1.350 . S
C1073 C1076 1.463 . S
C1073 C1078 1.350 . S
C1073 N1081 1.427 . S
C1074 H1065 0.930 . S
C1074 C1072 1.378 . S
C1074 C1075 1.367 . S
C1075 C1074 1.367 . S
C1075 C1077 1.433 . S
C1076 C1072 1.350 . S
C1076 C1073 1.463 . S
C1076 N1080 1.427 . S
C1077 H1067 0.929 . S
C1077 C1075 1.433 . S
C1077 N1080 1.384 . S
C1078 H1069 0.929 . S
C1078 C1070 1.378 . S
C1078 C1073 1.350 . S
C1079 H1066 0.929 . S
C1079 C1071 1.433 . S
C1079 N1081 1.384 . S
N1080 C1076 1.427 . S
N1080 C1077 1.384 . S
N1081 C1073 1.427 . S
N1081 C1079 1.384 . S
H1082 C1088 0.930 . S
H1083 C1092 0.930 . S
H1084 C1097 0.929 . S
H1085 C1095 0.929 . S
H1086 C1090 0.929 . S
H1087 C1096 0.929 . S
C1088 H1082 0.930 . S
C1088 C1089 1.367 . S
C1088 C1096 1.378 . S
C1089 C1088 1.367 . S
C1089 C1097 1.433 . S
C1090 H1086 0.929 . S
C1090 C1092 1.378 . S
C1090 C1094 1.350 . S
C1091 C1094 1.463 1_455 S
C1091 C1096 1.350 . S
C1091 N1099 1.427 . S
C1092 H1083 0.930 . S
C1092 C1090 1.378 . S
C1092 C1093 1.367 . S
C1093 C1092 1.367 . S
C1093 C1095 1.433 . S
C1094 C1090 1.350 . S
C1094 C1091 1.463 1_655 S
C1094 N1098 1.427 . S
C1095 H1085 0.929 . S
C1095 C1093 1.433 . S
C1095 N1098 1.384 . S
C1096 H1087 0.929 . S
C1096 C1088 1.378 . S
C1096 C1091 1.350 . S
C1097 H1084 0.929 . S
C1097 C1089 1.433 . S
C1097 N1099 1.384 . S
N1098 C1094 1.427 . S
N1098 C1095 1.384 . S
N1099 C1091 1.427 . S
N1099 C1097 1.384 . S
H1100 C1106 0.930 . S
H1101 C1110 0.930 . S
H1102 C1115 0.929 . S
H1103 C1113 0.929 . S
H1104 C1108 0.929 . S
H1105 C1114 0.929 . S
C1106 H1100 0.930 . S
C1106 C1107 1.367 . S
C1106 C1114 1.378 . S
C1107 C1106 1.367 . S
C1107 C1115 1.433 . S
C1108 H1104 0.929 . S
C1108 C1110 1.378 . S
C1108 C1112 1.350 . S
C1109 C1112 1.463 . S
C1109 C1114 1.350 . S
C1109 N1117 1.427 . S
C1110 H1101 0.930 . S
C1110 C1108 1.378 . S
C1110 C1111 1.367 . S
C1111 C1110 1.367 . S
C1111 C1113 1.433 . S
C1112 C1108 1.350 . S
C1112 C1109 1.463 . S
C1112 N1116 1.427 . S
C1113 H1103 0.929 . S
C1113 C1111 1.433 . S
C1113 N1116 1.384 . S
C1114 H1105 0.929 . S
C1114 C1106 1.378 . S
C1114 C1109 1.350 . S
C1115 H1102 0.929 . S
C1115 C1107 1.433 . S
C1115 N1117 1.384 . S
N1116 C1112 1.427 . S
N1116 C1113 1.384 . S
N1117 C1109 1.427 . S
N1117 C1115 1.384 . S
H1118 C1124 0.930 . S
H1119 C1128 0.930 . S
H1120 C1133 0.929 . S
H1121 C1131 0.929 . S
H1122 C1126 0.929 . S
H1123 C1132 0.929 . S
C1124 H1118 0.930 . S
C1124 C1125 1.367 . S
C1124 C1132 1.378 . S
C1125 C1124 1.367 . S
C1125 C1133 1.433 . S
C1126 H1122 0.929 . S
C1126 C1128 1.378 . S
C1126 C1130 1.350 . S
C1127 C1130 1.463 . S
C1127 C1132 1.350 . S
C1127 N1135 1.427 . S
C1128 H1119 0.930 . S
C1128 C1126 1.378 . S
C1128 C1129 1.367 . S
C1129 C1128 1.367 . S
C1129 C1131 1.433 . S
C1130 C1126 1.350 . S
C1130 C1127 1.463 . S
C1130 N1134 1.427 . S
C1131 H1121 0.929 . S
C1131 C1129 1.433 . S
C1131 N1134 1.384 . S
C1132 H1123 0.929 . S
C1132 C1124 1.378 . S
C1132 C1127 1.350 . S
C1133 H1120 0.929 . S
C1133 C1125 1.433 . S
C1133 N1135 1.384 . S
N1134 C1130 1.427 . S
N1134 C1131 1.384 . S
N1135 C1127 1.427 . S
N1135 C1133 1.384 . S
H1136 C1142 0.930 . S
H1137 C1146 0.930 . S
H1138 C1151 0.929 . S
H1139 C1149 0.929 . S
H1140 C1144 0.929 . S
H1141 C1150 0.929 . S
C1142 H1136 0.930 . S
C1142 C1143 1.367 . S
C1142 C1150 1.378 . S
C1143 C1142 1.367 . S
C1143 C1151 1.433 . S
C1144 H1140 0.929 . S
C1144 C1146 1.378 . S
C1144 C1148 1.350 . S
C1145 C1148 1.463 . S
C1145 C1150 1.350 . S
C1145 N1153 1.427 . S
C1146 H1137 0.930 . S
C1146 C1144 1.378 . S
C1146 C1147 1.367 . S
C1147 C1146 1.367 . S
C1147 C1149 1.433 . S
C1148 C1144 1.350 . S
C1148 C1145 1.463 . S
C1148 N1152 1.427 . S
C1149 H1139 0.929 . S
C1149 C1147 1.433 . S
C1149 N1152 1.384 . S
C1150 H1141 0.929 . S
C1150 C1142 1.378 . S
C1150 C1145 1.350 . S
C1151 H1138 0.929 . S
C1151 C1143 1.433 . S
C1151 N1153 1.384 . S
N1152 C1148 1.427 . S
N1152 C1149 1.384 . S
N1153 C1145 1.427 . S
N1153 C1151 1.384 . S
H1154 C1160 0.930 . S
H1155 C1164 0.930 . S
H1156 C1169 0.929 . S
H1157 C1167 0.929 . S
H1158 C1162 0.929 . S
H1159 C1168 0.929 . S
C1160 H1154 0.930 . S
C1160 C1161 1.367 . S
C1160 C1168 1.378 . S
C1161 C1160 1.367 . S
C1161 C1169 1.433 . S
C1162 H1158 0.929 . S
C1162 C1164 1.378 . S
C1162 C1166 1.350 . S
C1163 C1166 1.463 . S
C1163 C1168 1.350 . S
C1163 N1171 1.427 . S
C1164 H1155 0.930 . S
C1164 C1162 1.378 . S
C1164 C1165 1.367 . S
C1165 C1164 1.367 . S
C1165 C1167 1.433 . S
C1166 C1162 1.350 . S
C1166 C1163 1.463 . S
C1166 N1170 1.427 . S
C1167 H1157 0.929 . S
C1167 C1165 1.433 . S
C1167 N1170 1.384 . S
C1168 H1159 0.929 . S
C1168 C1160 1.378 . S
C1168 C1163 1.350 . S
C1169 H1156 0.929 . S
C1169 C1161 1.433 . S
C1169 N1171 1.384 . S
N1170 C1166 1.427 . S
N1170 C1167 1.384 . S
N1171 C1163 1.427 . S
N1171 C1169 1.384 . S
H1172 C1178 0.930 . S
H1173 C1182 0.930 . S
H1174 C1187 0.929 . S
H1175 C1185 0.929 . S
H1176 C1180 0.929 . S
H1177 C1186 0.929 . S
C1178 H1172 0.930 . S
C1178 C1179 1.367 . S
C1178 C1186 1.378 . S
C1179 C1178 1.367 . S
C1179 C1187 1.433 . S
C1180 H1176 0.929 . S
C1180 C1182 1.378 . S
C1180 C1184 1.350 . S
C1181 C1184 1.463 . S
C1181 C1186 1.350 . S
C1181 N1189 1.427 . S
C1182 H1173 0.930 . S
C1182 C1180 1.378 . S
C1182 C1183 1.367 . S
C1183 C1182 1.367 . S
C1183 C1185 1.433 . S
C1184 C1180 1.350 . S
C1184 C1181 1.463 . S
C1184 N1188 1.427 . S
C1185 H1175 0.929 . S
C1185 C1183 1.433 . S
C1185 N1188 1.384 . S
C1186 H1177 0.929 . S
C1186 C1178 1.378 . S
C1186 C1181 1.350 . S
C1187 H1174 0.929 . S
C1187 C1179 1.433 . S
C1187 N1189 1.384 . S
N1188 C1184 1.427 . S
N1188 C1185 1.384 . S
N1189 C1181 1.427 . S
N1189 C1187 1.384 . S
H1190 C1196 0.930 . S
H1191 C1200 0.930 . S
H1192 C1205 0.929 . S
H1193 C1203 0.929 . S
H1194 C1198 0.929 . S
H1195 C1204 0.929 . S
C1196 H1190 0.930 . S
C1196 C1197 1.367 . S
C1196 C1204 1.378 . S
C1197 C1196 1.367 . S
C1197 C1205 1.433 . S
C1198 H1194 0.929 . S
C1198 C1200 1.378 . S
C1198 C1202 1.350 . S
C1199 C1202 1.463 1_455 S
C1199 C1204 1.350 . S
C1199 N1207 1.427 . S
C1200 H1191 0.930 . S
C1200 C1198 1.378 . S
C1200 C1201 1.367 . S
C1201 C1200 1.367 . S
C1201 C1203 1.433 . S
C1202 C1198 1.350 . S
C1202 C1199 1.463 1_655 S
C1202 N1206 1.427 . S
C1203 H1193 0.929 . S
C1203 C1201 1.433 . S
C1203 N1206 1.384 . S
C1204 H1195 0.929 . S
C1204 C1196 1.378 . S
C1204 C1199 1.350 . S
C1205 H1192 0.929 . S
C1205 C1197 1.433 . S
C1205 N1207 1.384 . S
N1206 C1202 1.427 . S
N1206 C1203 1.384 . S
N1207 C1199 1.427 . S
N1207 C1205 1.384 . S
H1208 C1214 0.930 . S
H1209 C1218 0.930 . S
H1210 C1223 0.929 . S
H1211 C1221 0.929 . S
H1212 C1216 0.929 . S
H1213 C1222 0.929 . S
C1214 H1208 0.930 . S
C1214 C1215 1.367 . S
C1214 C1222 1.378 . S
C1215 C1214 1.367 . S
C1215 C1223 1.433 . S
C1216 H1212 0.929 . S
C1216 C1218 1.378 . S
C1216 C1220 1.350 . S
C1217 C1220 1.463 . S
C1217 C1222 1.350 . S
C1217 N1225 1.427 . S
C1218 H1209 0.930 . S
C1218 C1216 1.378 . S
C1218 C1219 1.367 . S
C1219 C1218 1.367 . S
C1219 C1221 1.433 . S
C1220 C1216 1.350 . S
C1220 C1217 1.463 . S
C1220 N1224 1.427 . S
C1221 H1211 0.929 . S
C1221 C1219 1.433 . S
C1221 N1224 1.384 . S
C1222 H1213 0.929 . S
C1222 C1214 1.378 . S
C1222 C1217 1.350 . S
C1223 H1210 0.929 . S
C1223 C1215 1.433 . S
C1223 N1225 1.384 . S
N1224 C1220 1.427 . S
N1224 C1221 1.384 . S
N1225 C1217 1.427 . S
N1225 C1223 1.384 . S
H1226 C1232 0.930 . S
H1227 C1236 0.930 . S
H1228 C1241 0.929 . S
H1229 C1239 0.929 . S
H1230 C1234 0.929 . S
H1231 C1240 0.929 . S
C1232 H1226 0.930 . S
C1232 C1233 1.367 . S
C1232 C1240 1.378 . S
C1233 C1232 1.367 . S
C1233 C1241 1.433 . S
C1234 H1230 0.929 . S
C1234 C1236 1.378 . S
C1234 C1238 1.350 . S
C1235 C1238 1.463 1_655 S
C1235 C1240 1.350 . S
C1235 N1243 1.427 . S
C1236 H1227 0.930 . S
C1236 C1234 1.378 . S
C1236 C1237 1.367 . S
C1237 C1236 1.367 . S
C1237 C1239 1.433 . S
C1238 C1234 1.350 . S
C1238 C1235 1.463 1_455 S
C1238 N1242 1.427 . S
C1239 H1229 0.929 . S
C1239 C1237 1.433 . S
C1239 N1242 1.384 . S
C1240 H1231 0.929 . S
C1240 C1232 1.378 . S
C1240 C1235 1.350 . S
C1241 H1228 0.929 . S
C1241 C1233 1.433 . S
C1241 N1243 1.384 . S
N1242 C1238 1.427 . S
N1242 C1239 1.384 . S
N1243 C1235 1.427 . S
N1243 C1241 1.384 . S
H1244 C1250 0.930 . S
H1245 C1254 0.930 . S
H1246 C1259 0.929 . S
H1247 C1257 0.929 . S
H1248 C1252 0.929 . S
H1249 C1258 0.929 . S
C1250 H1244 0.930 . S
C1250 C1251 1.367 . S
C1250 C1258 1.378 . S
C1251 C1250 1.367 . S
C1251 C1259 1.433 . S
C1252 H1248 0.929 . S
C1252 C1254 1.378 . S
C1252 C1256 1.350 . S
C1253 C1256 1.463 . S
C1253 C1258 1.350 . S
C1253 N1261 1.427 . S
C1254 H1245 0.930 . S
C1254 C1252 1.378 . S
C1254 C1255 1.367 . S
C1255 C1254 1.367 . S
C1255 C1257 1.433 . S
C1256 C1252 1.350 . S
C1256 C1253 1.463 . S
C1256 N1260 1.427 . S
C1257 H1247 0.929 . S
C1257 C1255 1.433 . S
C1257 N1260 1.384 . S
C1258 H1249 0.929 . S
C1258 C1250 1.378 . S
C1258 C1253 1.350 . S
C1259 H1246 0.929 . S
C1259 C1251 1.433 . S
C1259 N1261 1.384 . S
N1260 C1256 1.427 . S
N1260 C1257 1.384 . S
N1261 C1253 1.427 . S
N1261 C1259 1.384 . S
H1262 C1268 0.930 . S
H1263 C1272 0.930 . S
H1264 C1277 0.929 . S
H1265 C1275 0.929 . S
H1266 C1270 0.929 . S
H1267 C1276 0.929 . S
C1268 H1262 0.930 . S
C1268 C1269 1.367 . S
C1268 C1276 1.378 . S
C1269 C1268 1.367 . S
C1269 C1277 1.433 . S
C1270 H1266 0.929 . S
C1270 C1272 1.378 . S
C1270 C1274 1.350 . S
C1271 C1274 1.463 . S
C1271 C1276 1.350 . S
C1271 N1279 1.427 . S
C1272 H1263 0.930 . S
C1272 C1270 1.378 . S
C1272 C1273 1.367 . S
C1273 C1272 1.367 . S
C1273 C1275 1.433 . S
C1274 C1270 1.350 . S
C1274 C1271 1.463 . S
C1274 N1278 1.427 . S
C1275 H1265 0.929 . S
C1275 C1273 1.433 . S
C1275 N1278 1.384 . S
C1276 H1267 0.929 . S
C1276 C1268 1.378 . S
C1276 C1271 1.350 . S
C1277 H1264 0.929 . S
C1277 C1269 1.433 . S
C1277 N1279 1.384 . S
N1278 C1274 1.427 . S
N1278 C1275 1.384 . S
N1279 C1271 1.427 . S
N1279 C1277 1.384 . S
H1280 C1286 0.930 . S
H1281 C1290 0.930 . S
H1282 C1295 0.929 . S
H1283 C1293 0.929 . S
H1284 C1288 0.929 . S
H1285 C1294 0.929 . S
C1286 H1280 0.930 . S
C1286 C1287 1.367 . S
C1286 C1294 1.378 . S
C1287 C1286 1.367 . S
C1287 C1295 1.433 . S
C1288 H1284 0.929 . S
C1288 C1290 1.378 . S
C1288 C1292 1.350 . S
C1289 C1292 1.463 . S
C1289 C1294 1.350 . S
C1289 N1297 1.427 . S
C1290 H1281 0.930 . S
C1290 C1288 1.378 . S
C1290 C1291 1.367 . S
C1291 C1290 1.367 . S
C1291 C1293 1.433 . S
C1292 C1288 1.350 . S
C1292 C1289 1.463 . S
C1292 N1296 1.427 . S
C1293 H1283 0.929 . S
C1293 C1291 1.433 . S
C1293 N1296 1.384 . S
C1294 H1285 0.929 . S
C1294 C1286 1.378 . S
C1294 C1289 1.350 . S
C1295 H1282 0.929 . S
C1295 C1287 1.433 . S
C1295 N1297 1.384 . S
N1296 C1292 1.427 . S
N1296 C1293 1.384 . S
N1297 C1289 1.427 . S
N1297 C1295 1.384 . S
H1298 C1304 0.930 . S
H1299 C1308 0.930 . S
H1300 C1313 0.929 . S
H1301 C1311 0.929 . S
H1302 C1306 0.929 . S
H1303 C1312 0.929 . S
C1304 H1298 0.930 . S
C1304 C1305 1.367 . S
C1304 C1312 1.378 . S
C1305 C1304 1.367 . S
C1305 C1313 1.433 . S
C1306 H1302 0.929 . S
C1306 C1308 1.378 . S
C1306 C1310 1.350 . S
C1307 C1310 1.463 . S
C1307 C1312 1.350 . S
C1307 N1315 1.427 . S
C1308 H1299 0.930 . S
C1308 C1306 1.378 . S
C1308 C1309 1.367 . S
C1309 C1308 1.367 . S
C1309 C1311 1.433 . S
C1310 C1306 1.350 . S
C1310 C1307 1.463 . S
C1310 N1314 1.427 . S
C1311 H1301 0.929 . S
C1311 C1309 1.433 . S
C1311 N1314 1.384 . S
C1312 H1303 0.929 . S
C1312 C1304 1.378 . S
C1312 C1307 1.350 . S
C1313 H1300 0.929 . S
C1313 C1305 1.433 . S
C1313 N1315 1.384 . S
N1314 C1310 1.427 . S
N1314 C1311 1.384 . S
N1315 C1307 1.427 . S
N1315 C1313 1.384 . S
H1316 C1322 0.930 . S
H1317 C1326 0.930 . S
H1318 C1331 0.929 . S
H1319 C1329 0.929 . S
H1320 C1324 0.929 . S
H1321 C1330 0.929 . S
C1322 H1316 0.930 . S
C1322 C1323 1.367 . S
C1322 C1330 1.378 . S
C1323 C1322 1.367 . S
C1323 C1331 1.433 . S
C1324 H1320 0.929 . S
C1324 C1326 1.378 . S
C1324 C1328 1.350 . S
C1325 C1328 1.463 . S
C1325 C1330 1.350 . S
C1325 N1333 1.427 . S
C1326 H1317 0.930 . S
C1326 C1324 1.378 . S
C1326 C1327 1.367 . S
C1327 C1326 1.367 . S
C1327 C1329 1.433 . S
C1328 C1324 1.350 . S
C1328 C1325 1.463 . S
C1328 N1332 1.427 . S
C1329 H1319 0.929 . S
C1329 C1327 1.433 . S
C1329 N1332 1.384 . S
C1330 H1321 0.929 . S
C1330 C1322 1.378 . S
C1330 C1325 1.350 . S
C1331 H1318 0.929 . S
C1331 C1323 1.433 . S
C1331 N1333 1.384 . S
N1332 C1328 1.427 . S
N1332 C1329 1.384 . S
N1333 C1325 1.427 . S
N1333 C1331 1.384 . S
H1334 C1340 0.930 . S
H1335 C1344 0.930 . S
H1336 C1349 0.929 . S
H1337 C1347 0.929 . S
H1338 C1342 0.929 . S
H1339 C1348 0.929 . S
C1340 H1334 0.930 . S
C1340 C1341 1.367 . S
C1340 C1348 1.378 . S
C1341 C1340 1.367 . S
C1341 C1349 1.433 . S
C1342 H1338 0.929 . S
C1342 C1344 1.378 . S
C1342 C1346 1.350 . S
C1343 C1346 1.463 . S
C1343 C1348 1.350 . S
C1343 N1351 1.427 . S
C1344 H1335 0.930 . S
C1344 C1342 1.378 . S
C1344 C1345 1.367 . S
C1345 C1344 1.367 . S
C1345 C1347 1.433 . S
C1346 C1342 1.350 . S
C1346 C1343 1.463 . S
C1346 N1350 1.427 . S
C1347 H1337 0.929 . S
C1347 C1345 1.433 . S
C1347 N1350 1.384 . S
C1348 H1339 0.929 . S
C1348 C1340 1.378 . S
C1348 C1343 1.350 . S
C1349 H1336 0.929 . S
C1349 C1341 1.433 . S
C1349 N1351 1.384 . S
N1350 C1346 1.427 . S
N1350 C1347 1.384 . S
N1351 C1343 1.427 . S
N1351 C1349 1.384 . S
H1352 C1358 0.930 . S
H1353 C1362 0.930 . S
H1354 C1367 0.929 . S
H1355 C1365 0.929 . S
H1356 C1360 0.929 . S
H1357 C1366 0.929 . S
C1358 H1352 0.930 . S
C1358 C1359 1.367 . S
C1358 C1366 1.378 . S
C1359 C1358 1.367 . S
C1359 C1367 1.433 . S
C1360 H1356 0.929 . S
C1360 C1362 1.378 . S
C1360 C1364 1.350 . S
C1361 C1364 1.463 . S
C1361 C1366 1.350 . S
C1361 N1369 1.427 . S
C1362 H1353 0.930 . S
C1362 C1360 1.378 . S
C1362 C1363 1.367 . S
C1363 C1362 1.367 . S
C1363 C1365 1.433 . S
C1364 C1360 1.350 . S
C1364 C1361 1.463 . S
C1364 N1368 1.427 . S
C1365 H1355 0.929 . S
C1365 C1363 1.433 . S
C1365 N1368 1.384 . S
C1366 H1357 0.929 . S
C1366 C1358 1.378 . S
C1366 C1361 1.350 . S
C1367 H1354 0.929 . S
C1367 C1359 1.433 . S
C1367 N1369 1.384 . S
N1368 C1364 1.427 . S
N1368 C1365 1.384 . S
N1369 C1361 1.427 . S
N1369 C1367 1.384 . S
H1370 C1376 0.930 . S
H1371 C1380 0.930 . S
H1372 C1385 0.929 . S
H1373 C1383 0.929 . S
H1374 C1378 0.929 . S
H1375 C1384 0.929 . S
C1376 H1370 0.930 . S
C1376 C1377 1.367 . S
C1376 C1384 1.378 . S
C1377 C1376 1.367 . S
C1377 C1385 1.433 . S
C1378 H1374 0.929 . S
C1378 C1380 1.378 . S
C1378 C1382 1.350 . S
C1379 C1382 1.463 . S
C1379 C1384 1.350 . S
C1379 N1387 1.427 . S
C1380 H1371 0.930 . S
C1380 C1378 1.378 . S
C1380 C1381 1.367 . S
C1381 C1380 1.367 . S
C1381 C1383 1.433 . S
C1382 C1378 1.350 . S
C1382 C1379 1.463 . S
C1382 N1386 1.427 . S
C1383 H1373 0.929 . S
C1383 C1381 1.433 . S
C1383 N1386 1.384 . S
C1384 H1375 0.929 . S
C1384 C1376 1.378 . S
C1384 C1379 1.350 . S
C1385 H1372 0.929 . S
C1385 C1377 1.433 . S
C1385 N1387 1.384 . S
N1386 C1382 1.427 . S
N1386 C1383 1.384 . S
N1387 C1379 1.427 . S
N1387 C1385 1.384 . S
H1388 C1394 0.930 . S
H1389 C1398 0.930 . S
H1390 C1403 0.929 . S
H1391 C1401 0.929 . S
H1392 C1396 0.929 . S
H1393 C1402 0.929 . S
C1394 H1388 0.930 . S
C1394 C1395 1.367 . S
C1394 C1402 1.378 . S
C1395 C1394 1.367 . S
C1395 C1403 1.433 . S
C1396 H1392 0.929 . S
C1396 C1398 1.378 . S
C1396 C1400 1.350 . S
C1397 C1400 1.463 . S
C1397 C1402 1.350 . S
C1397 N1405 1.427 . S
C1398 H1389 0.930 . S
C1398 C1396 1.378 . S
C1398 C1399 1.367 . S
C1399 C1398 1.367 . S
C1399 C1401 1.433 . S
C1400 C1396 1.350 . S
C1400 C1397 1.463 . S
C1400 N1404 1.427 . S
C1401 H1391 0.929 . S
C1401 C1399 1.433 . S
C1401 N1404 1.384 . S
C1402 H1393 0.929 . S
C1402 C1394 1.378 . S
C1402 C1397 1.350 . S
C1403 H1390 0.929 . S
C1403 C1395 1.433 . S
C1403 N1405 1.384 . S
N1404 C1400 1.427 . S
N1404 C1401 1.384 . S
N1405 C1397 1.427 . S
N1405 C1403 1.384 . S
H1406 C1412 0.930 . S
H1407 C1416 0.930 . S
H1408 C1421 0.929 . S
H1409 C1419 0.929 . S
H1410 C1414 0.929 . S
H1411 C1420 0.929 . S
C1412 H1406 0.930 . S
C1412 C1413 1.367 . S
C1412 C1420 1.378 . S
C1413 C1412 1.367 . S
C1413 C1421 1.433 . S
C1414 H1410 0.929 . S
C1414 C1416 1.378 . S
C1414 C1418 1.350 . S
C1415 C1418 1.463 . S
C1415 C1420 1.350 . S
C1415 N1423 1.427 . S
C1416 H1407 0.930 . S
C1416 C1414 1.378 . S
C1416 C1417 1.367 . S
C1417 C1416 1.367 . S
C1417 C1419 1.433 . S
C1418 C1414 1.350 . S
C1418 C1415 1.463 . S
C1418 N1422 1.427 . S
C1419 H1409 0.929 . S
C1419 C1417 1.433 . S
C1419 N1422 1.384 . S
C1420 H1411 0.929 . S
C1420 C1412 1.378 . S
C1420 C1415 1.350 . S
C1421 H1408 0.929 . S
C1421 C1413 1.433 . S
C1421 N1423 1.384 . S
N1422 C1418 1.427 . S
N1422 C1419 1.384 . S
N1423 C1415 1.427 . S
N1423 C1421 1.384 . S
H1424 C1430 0.930 . S
H1425 C1434 0.930 . S
H1426 C1439 0.929 . S
H1427 C1437 0.929 . S
H1428 C1432 0.929 . S
H1429 C1438 0.929 . S
C1430 H1424 0.930 . S
C1430 C1431 1.367 . S
C1430 C1438 1.378 . S
C1431 C1430 1.367 . S
C1431 C1439 1.433 . S
C1432 H1428 0.929 . S
C1432 C1434 1.378 . S
C1432 C1436 1.350 . S
C1433 C1436 1.463 . S
C1433 C1438 1.350 . S
C1433 N1441 1.427 . S
C1434 H1425 0.930 . S
C1434 C1432 1.378 . S
C1434 C1435 1.367 . S
C1435 C1434 1.367 . S
C1435 C1437 1.433 . S
C1436 C1432 1.350 . S
C1436 C1433 1.463 . S
C1436 N1440 1.427 . S
C1437 H1427 0.929 . S
C1437 C1435 1.433 . S
C1437 N1440 1.384 . S
C1438 H1429 0.929 . S
C1438 C1430 1.378 . S
C1438 C1433 1.350 . S
C1439 H1426 0.929 . S
C1439 C1431 1.433 . S
C1439 N1441 1.384 . S
N1440 C1436 1.427 . S
N1440 C1437 1.384 . S
N1441 C1433 1.427 . S
N1441 C1439 1.384 . S
H1442 C1448 0.930 . S
H1443 C1452 0.930 . S
H1444 C1457 0.929 . S
H1445 C1455 0.929 . S
H1446 C1450 0.929 . S
H1447 C1456 0.929 . S
C1448 H1442 0.930 . S
C1448 C1449 1.367 . S
C1448 C1456 1.378 . S
C1449 C1448 1.367 . S
C1449 C1457 1.433 . S
C1450 H1446 0.929 . S
C1450 C1452 1.378 . S
C1450 C1454 1.350 . S
C1451 C1454 1.463 . S
C1451 C1456 1.350 . S
C1451 N1459 1.427 . S
C1452 H1443 0.930 . S
C1452 C1450 1.378 . S
C1452 C1453 1.367 . S
C1453 C1452 1.367 . S
C1453 C1455 1.433 . S
C1454 C1450 1.350 . S
C1454 C1451 1.463 . S
C1454 N1458 1.427 . S
C1455 H1445 0.929 . S
C1455 C1453 1.433 . S
C1455 N1458 1.384 . S
C1456 H1447 0.929 . S
C1456 C1448 1.378 . S
C1456 C1451 1.350 . S
C1457 H1444 0.929 . S
C1457 C1449 1.433 . S
C1457 N1459 1.384 . S
N1458 C1454 1.427 . S
N1458 C1455 1.384 . S
N1459 C1451 1.427 . S
N1459 C1457 1.384 . S
H1460 C1466 0.930 . S
H1461 C1470 0.930 . S
H1462 C1475 0.929 . S
H1463 C1473 0.929 . S
H1464 C1468 0.929 . S
H1465 C1474 0.929 . S
C1466 H1460 0.930 . S
C1466 C1467 1.367 . S
C1466 C1474 1.378 . S
C1467 C1466 1.367 . S
C1467 C1475 1.433 . S
C1468 H1464 0.929 . S
C1468 C1470 1.378 . S
C1468 C1472 1.350 . S
C1469 C1472 1.463 . S
C1469 C1474 1.350 . S
C1469 N1477 1.427 . S
C1470 H1461 0.930 . S
C1470 C1468 1.378 . S
C1470 C1471 1.367 . S
C1471 C1470 1.367 . S
C1471 C1473 1.433 . S
C1472 C1468 1.350 . S
C1472 C1469 1.463 . S
C1472 N1476 1.427 . S
C1473 H1463 0.929 . S
C1473 C1471 1.433 . S
C1473 N1476 1.384 . S
C1474 H1465 0.929 . S
C1474 C1466 1.378 . S
C1474 C1469 1.350 . S
C1475 H1462 0.929 . S
C1475 C1467 1.433 . S
C1475 N1477 1.384 . S
N1476 C1472 1.427 . S
N1476 C1473 1.384 . S
N1477 C1469 1.427 . S
N1477 C1475 1.384 . S
H1478 C1484 0.930 . S
H1479 C1488 0.930 . S
H1480 C1493 0.929 . S
H1481 C1491 0.929 . S
H1482 C1486 0.929 . S
H1483 C1492 0.929 . S
C1484 H1478 0.930 . S
C1484 C1485 1.367 . S
C1484 C1492 1.378 . S
C1485 C1484 1.367 . S
C1485 C1493 1.433 . S
C1486 H1482 0.929 . S
C1486 C1488 1.378 . S
C1486 C1490 1.350 . S
C1487 C1490 1.463 . S
C1487 C1492 1.350 . S
C1487 N1495 1.427 . S
C1488 H1479 0.930 . S
C1488 C1486 1.378 . S
C1488 C1489 1.367 . S
C1489 C1488 1.367 . S
C1489 C1491 1.433 . S
C1490 C1486 1.350 . S
C1490 C1487 1.463 . S
C1490 N1494 1.427 . S
C1491 H1481 0.929 . S
C1491 C1489 1.433 . S
C1491 N1494 1.384 . S
C1492 H1483 0.929 . S
C1492 C1484 1.378 . S
C1492 C1487 1.350 . S
C1493 H1480 0.929 . S
C1493 C1485 1.433 . S
C1493 N1495 1.384 . S
N1494 C1490 1.427 . S
N1494 C1491 1.384 . S
N1495 C1487 1.427 . S
N1495 C1493 1.384 . S
H1496 C1502 0.930 . S
H1497 C1506 0.930 . S
H1498 C1511 0.929 . S
H1499 C1509 0.929 . S
H1500 C1504 0.929 . S
H1501 C1510 0.929 . S
C1502 H1496 0.930 . S
C1502 C1503 1.367 . S
C1502 C1510 1.378 . S
C1503 C1502 1.367 . S
C1503 C1511 1.433 . S
C1504 H1500 0.929 . S
C1504 C1506 1.378 . S
C1504 C1508 1.350 . S
C1505 C1508 1.463 . S
C1505 C1510 1.350 . S
C1505 N1513 1.427 . S
C1506 H1497 0.930 . S
C1506 C1504 1.378 . S
C1506 C1507 1.367 . S
C1507 C1506 1.367 . S
C1507 C1509 1.433 . S
C1508 C1504 1.350 . S
C1508 C1505 1.463 . S
C1508 N1512 1.427 . S
C1509 H1499 0.929 . S
C1509 C1507 1.433 . S
C1509 N1512 1.384 . S
C1510 H1501 0.929 . S
C1510 C1502 1.378 . S
C1510 C1505 1.350 . S
C1511 H1498 0.929 . S
C1511 C1503 1.433 . S
C1511 N1513 1.384 . S
N1512 C1508 1.427 . S
N1512 C1509 1.384 . S
N1513 C1505 1.427 . S
N1513 C1511 1.384 . S
H1514 C1520 0.930 . S
H1515 C1524 0.930 . S
H1516 C1529 0.929 . S
H1517 C1527 0.929 . S
H1518 C1522 0.929 . S
H1519 C1528 0.929 . S
C1520 H1514 0.930 . S
C1520 C1521 1.367 . S
C1520 C1528 1.378 . S
C1521 C1520 1.367 . S
C1521 C1529 1.433 . S
C1522 H1518 0.929 . S
C1522 C1524 1.378 . S
C1522 C1526 1.350 . S
C1523 C1526 1.463 . S
C1523 C1528 1.350 . S
C1523 N1531 1.427 . S
C1524 H1515 0.930 . S
C1524 C1522 1.378 . S
C1524 C1525 1.367 . S
C1525 C1524 1.367 . S
C1525 C1527 1.433 . S
C1526 C1522 1.350 . S
C1526 C1523 1.463 . S
C1526 N1530 1.427 . S
C1527 H1517 0.929 . S
C1527 C1525 1.433 . S
C1527 N1530 1.384 . S
C1528 H1519 0.929 . S
C1528 C1520 1.378 . S
C1528 C1523 1.350 . S
C1529 H1516 0.929 . S
C1529 C1521 1.433 . S
C1529 N1531 1.384 . S
N1530 C1526 1.427 . S
N1530 C1527 1.384 . S
N1531 C1523 1.427 . S
N1531 C1529 1.384 . S
H1532 C1538 0.930 . S
H1533 C1542 0.930 . S
H1534 C1547 0.929 . S
H1535 C1545 0.929 . S
H1536 C1540 0.929 . S
H1537 C1546 0.929 . S
C1538 H1532 0.930 . S
C1538 C1539 1.367 . S
C1538 C1546 1.378 . S
C1539 C1538 1.367 . S
C1539 C1547 1.433 . S
C1540 H1536 0.929 . S
C1540 C1542 1.378 . S
C1540 C1544 1.350 . S
C1541 C1544 1.463 . S
C1541 C1546 1.350 . S
C1541 N1549 1.427 . S
C1542 H1533 0.930 . S
C1542 C1540 1.378 . S
C1542 C1543 1.367 . S
C1543 C1542 1.367 . S
C1543 C1545 1.433 . S
C1544 C1540 1.350 . S
C1544 C1541 1.463 . S
C1544 N1548 1.427 . S
C1545 H1535 0.929 . S
C1545 C1543 1.433 . S
C1545 N1548 1.384 . S
C1546 H1537 0.929 . S
C1546 C1538 1.378 . S
C1546 C1541 1.350 . S
C1547 H1534 0.929 . S
C1547 C1539 1.433 . S
C1547 N1549 1.384 . S
N1548 C1544 1.427 . S
N1548 C1545 1.384 . S
N1549 C1541 1.427 . S
N1549 C1547 1.384 . S
H1550 C1556 0.930 . S
H1551 C1560 0.930 . S
H1552 C1565 0.929 . S
H1553 C1563 0.929 . S
H1554 C1558 0.929 . S
H1555 C1564 0.929 . S
C1556 H1550 0.930 . S
C1556 C1557 1.367 . S
C1556 C1564 1.378 . S
C1557 C1556 1.367 . S
C1557 C1565 1.433 . S
C1558 H1554 0.929 . S
C1558 C1560 1.378 . S
C1558 C1562 1.350 . S
C1559 C1562 1.463 . S
C1559 C1564 1.350 . S
C1559 N1567 1.427 . S
C1560 H1551 0.930 . S
C1560 C1558 1.378 . S
C1560 C1561 1.367 . S
C1561 C1560 1.367 . S
C1561 C1563 1.433 . S
C1562 C1558 1.350 . S
C1562 C1559 1.463 . S
C1562 N1566 1.427 . S
C1563 H1553 0.929 . S
C1563 C1561 1.433 . S
C1563 N1566 1.384 . S
C1564 H1555 0.929 . S
C1564 C1556 1.378 . S
C1564 C1559 1.350 . S
C1565 H1552 0.929 . S
C1565 C1557 1.433 . S
C1565 N1567 1.384 . S
N1566 C1562 1.427 . S
N1566 C1563 1.384 . S
N1567 C1559 1.427 . S
N1567 C1565 1.384 . S
C423 C0 1.305 . S
C427 C52 1.302 . S
C441 C13 1.300 . S
C445 C65 1.304 . S
C459 C78 1.304 . S
C463 C26 1.300 . S
C477 C91 1.305 . S
C481 C39 1.304 . S
C495 C104 1.298 . S
C499 C156 1.297 . S
C513 C117 1.297 . S
C517 C169 1.300 . S
C531 C182 1.301 . S
C535 C130 1.305 . S
C549 C143 1.304 . S
C553 C195 1.300 . S
C567 C260 1.297 . S
C571 C208 1.298 . S
C585 C273 1.303 . S
C589 C221 1.298 . S
C603 C234 1.297 . S
C607 C286 1.300 . S
C621 C299 1.303 . S
C625 C247 1.305 . S
C639 C312 1.299 . S
C643 C364 1.297 . S
C657 C377 1.297 . S
C661 C325 1.298 . S
C675 C390 1.297 . S
C679 C338 1.300 . S
C693 C351 1.303 . S
C697 C403 1.305 . S
C711 C5 1.396 . S
C715 C359 1.450 . S
C729 C112 1.448 . S
C733 C18 1.386 . S
C747 C31 1.395 . S
C751 C333 1.450 . S
C765 C44 1.385 . S
C769 C138 1.449 . S
C783 C385 1.449 . S
C787 C57 1.385 . S
C801 C190 1.451 . S
C805 C70 1.390 . S
C819 C83 1.399 . S
C823 C411 1.448 . S
C837 C96 1.398 . S
C841 C164 1.441 . S
C855 C255 1.449 . S
C859 C109 1.385 . S
C873 C122 1.401 . S
C877 C8 1.441 . S
C891 C229 1.441 . S
C895 C135 1.398 . S
C909 C148 1.400 . S
C913 C34 1.441 . S
C927 C281 1.451 . S
C931 C161 1.393 . S
C945 C174 1.395 . S
C949 C86 1.450 . S
C963 C307 1.449 . S
C967 C187 1.397 . S
C981 C200 1.398 . S
C985 C60 1.441 . S
C999 C151 1.446 . S
C1003 C213 1.387 . S
C1017 C320 1.451 . S
C1021 C226 1.393 . S
C1035 C125 1.447 . S
C1039 C239 1.400 . S
C1053 C252 1.403 . S
C1057 C346 1.444 . S
C1071 C177 1.450 . S
C1075 C265 1.385 . S
C1089 C398 1.441 . S
C1093 C278 1.402 . S
C1107 C203 1.443 . S
C1111 C291 1.392 . S
C1125 C304 1.386 . S
C1129 C372 1.451 . S
C1143 C317 1.385 . S
C1147 C47 1.449 . S
C1161 C330 1.385 . S
C1165 C216 1.451 . S
C1179 C343 1.395 . S
C1183 C21 1.442 . S
C1197 C356 1.403 . S
C1201 C242 1.443 . S
C1215 C369 1.395 . S
C1219 C73 1.450 . S
C1233 C294 1.451 . S
C1237 C382 1.386 . S
C1251 C99 1.443 . S
C1255 C395 1.393 . S
C1269 C408 1.398 . S
C1273 C268 1.441 . S
C1287 C10 1.164 . S
C1291 C101 1.178 . S
C1305 C23 1.178 . S
C1309 C62 1.166 1_556 S
C1323 C36 1.162 1_554 S
C1327 C75 1.178 . S
C1341 C88 1.163 . S
C1345 C49 1.178 . S
C1359 C205 1.173 . S
C1363 C114 1.161 . S
C1377 C166 1.161 1_554 S
C1381 C127 1.174 . S
C1395 C179 1.161 . S
C1399 C140 1.176 1_556 S
C1413 C192 1.164 . S
C1417 C153 1.178 . S
C1431 C218 1.178 1_554 S
C1435 C309 1.165 . S
C1449 C270 1.165 . S
C1453 C231 1.178 . S
C1467 C283 1.161 . S
C1471 C244 1.176 . S
C1485 C296 1.162 1_556 S
C1489 C257 1.178 . S
C1503 C413 1.178 . S
C1507 C322 1.163 1_556 S
C1521 C335 1.176 . S
C1525 C374 1.161 . S
C1539 C348 1.163 . S
C1543 C387 1.170 . S
C1557 C361 1.161 . S
C1561 C400 1.177 1_554 S
