# Generated by pormake.
# Topology snl, (6)-cn, num edge types: 1
# Building blocks:
#     Node 0, Type 0, BuildingBlock: PAMTOO_clean_sbu_0, # of connection points: 6
#     Node 1, Type 0, BuildingBlock: PAMTOO_clean_sbu_0, # of connection points: 6
#     Node 2, Type 0, BuildingBlock: PAMTOO_clean_sbu_0, # of connection points: 6
#     Node 3, Type 0, BuildingBlock: PAMTOO_clean_sbu_0, # of connection points: 6
#     Node 4, Type 0, BuildingBlock: PAMTOO_clean_sbu_0, # of connection points: 6
#     Node 5, Type 0, BuildingBlock: PAMTOO_clean_sbu_0, # of connection points: 6
#     Node 6, Type 0, BuildingBlock: PAMTOO_clean_sbu_0, # of connection points: 6
#     Node 7, Type 0, BuildingBlock: PAMTOO_clean_sbu_0, # of connection points: 6
#     Node 8, Type 0, BuildingBlock: PAMTOO_clean_sbu_0, # of connection points: 6
#     Node 9, Type 0, BuildingBlock: PAMTOO_clean_sbu_0, # of connection points: 6
#     Node 10, Type 0, BuildingBlock: PAMTOO_clean_sbu_0, # of connection points: 6
#     Node 11, Type 0, BuildingBlock: PAMTOO_clean_sbu_0, # of connection points: 6
#     Node 12, Type 0, BuildingBlock: PAMTOO_clean_sbu_0, # of connection points: 6
#     Node 13, Type 0, BuildingBlock: PAMTOO_clean_sbu_0, # of connection points: 6
#     Node 14, Type 0, BuildingBlock: PAMTOO_clean_sbu_0, # of connection points: 6
#     Node 15, Type 0, BuildingBlock: PAMTOO_clean_sbu_0, # of connection points: 6
#     Edge 16, Type (0, 0), BuildingBlock: UVAHIK_clean_linker_0, # of connection points: 2
#     Edge 17, Type (0, 0), BuildingBlock: UVAHIK_clean_linker_0, # of connection points: 2
#     Edge 18, Type (0, 0), BuildingBlock: UVAHIK_clean_linker_0, # of connection points: 2
#     Edge 19, Type (0, 0), BuildingBlock: UVAHIK_clean_linker_0, # of connection points: 2
#     Edge 20, Type (0, 0), BuildingBlock: UVAHIK_clean_linker_0, # of connection points: 2
#     Edge 21, Type (0, 0), BuildingBlock: UVAHIK_clean_linker_0, # of connection points: 2
#     Edge 22, Type (0, 0), BuildingBlock: UVAHIK_clean_linker_0, # of connection points: 2
#     Edge 23, Type (0, 0), BuildingBlock: UVAHIK_clean_linker_0, # of connection points: 2
#     Edge 24, Type (0, 0), BuildingBlock: UVAHIK_clean_linker_0, # of connection points: 2
#     Edge 25, Type (0, 0), BuildingBlock: UVAHIK_clean_linker_0, # of connection points: 2
#     Edge 26, Type (0, 0), BuildingBlock: UVAHIK_clean_linker_0, # of connection points: 2
#     Edge 27, Type (0, 0), BuildingBlock: UVAHIK_clean_linker_0, # of connection points: 2
#     Edge 28, Type (0, 0), BuildingBlock: UVAHIK_clean_linker_0, # of connection points: 2
#     Edge 29, Type (0, 0), BuildingBlock: UVAHIK_clean_linker_0, # of connection points: 2
#     Edge 30, Type (0, 0), BuildingBlock: UVAHIK_clean_linker_0, # of connection points: 2
#     Edge 31, Type (0, 0), BuildingBlock: UVAHIK_clean_linker_0, # of connection points: 2
#     Edge 32, Type (0, 0), BuildingBlock: UVAHIK_clean_linker_0, # of connection points: 2
#     Edge 33, Type (0, 0), BuildingBlock: UVAHIK_clean_linker_0, # of connection points: 2
#     Edge 34, Type (0, 0), BuildingBlock: UVAHIK_clean_linker_0, # of connection points: 2
#     Edge 35, Type (0, 0), BuildingBlock: UVAHIK_clean_linker_0, # of connection points: 2
#     Edge 36, Type (0, 0), BuildingBlock: UVAHIK_clean_linker_0, # of connection points: 2
#     Edge 37, Type (0, 0), BuildingBlock: UVAHIK_clean_linker_0, # of connection points: 2
#     Edge 38, Type (0, 0), BuildingBlock: UVAHIK_clean_linker_0, # of connection points: 2
#     Edge 39, Type (0, 0), BuildingBlock: UVAHIK_clean_linker_0, # of connection points: 2
#     Edge 40, Type (0, 0), BuildingBlock: UVAHIK_clean_linker_0, # of connection points: 2
#     Edge 41, Type (0, 0), BuildingBlock: UVAHIK_clean_linker_0, # of connection points: 2
#     Edge 42, Type (0, 0), BuildingBlock: UVAHIK_clean_linker_0, # of connection points: 2
#     Edge 43, Type (0, 0), BuildingBlock: UVAHIK_clean_linker_0, # of connection points: 2
#     Edge 44, Type (0, 0), BuildingBlock: UVAHIK_clean_linker_0, # of connection points: 2
#     Edge 45, Type (0, 0), BuildingBlock: UVAHIK_clean_linker_0, # of connection points: 2
#     Edge 46, Type (0, 0), BuildingBlock: UVAHIK_clean_linker_0, # of connection points: 2
#     Edge 47, Type (0, 0), BuildingBlock: UVAHIK_clean_linker_0, # of connection points: 2
#     Edge 48, Type (0, 0), BuildingBlock: UVAHIK_clean_linker_0, # of connection points: 2
#     Edge 49, Type (0, 0), BuildingBlock: UVAHIK_clean_linker_0, # of connection points: 2
#     Edge 50, Type (0, 0), BuildingBlock: UVAHIK_clean_linker_0, # of connection points: 2
#     Edge 51, Type (0, 0), BuildingBlock: UVAHIK_clean_linker_0, # of connection points: 2
#     Edge 52, Type (0, 0), BuildingBlock: UVAHIK_clean_linker_0, # of connection points: 2
#     Edge 53, Type (0, 0), BuildingBlock: UVAHIK_clean_linker_0, # of connection points: 2
#     Edge 54, Type (0, 0), BuildingBlock: UVAHIK_clean_linker_0, # of connection points: 2
#     Edge 55, Type (0, 0), BuildingBlock: UVAHIK_clean_linker_0, # of connection points: 2
#     Edge 56, Type (0, 0), BuildingBlock: UVAHIK_clean_linker_0, # of connection points: 2
#     Edge 57, Type (0, 0), BuildingBlock: UVAHIK_clean_linker_0, # of connection points: 2
#     Edge 58, Type (0, 0), BuildingBlock: UVAHIK_clean_linker_0, # of connection points: 2
#     Edge 59, Type (0, 0), BuildingBlock: UVAHIK_clean_linker_0, # of connection points: 2
#     Edge 60, Type (0, 0), BuildingBlock: UVAHIK_clean_linker_0, # of connection points: 2
#     Edge 61, Type (0, 0), BuildingBlock: UVAHIK_clean_linker_0, # of connection points: 2
#     Edge 62, Type (0, 0), BuildingBlock: UVAHIK_clean_linker_0, # of connection points: 2
#     Edge 63, Type (0, 0), BuildingBlock: UVAHIK_clean_linker_0, # of connection points: 2
# Relax obj value: 0.145
# Max RMSD: 0.222
# Mean RMSD: 0.198
data_MOF--net-snl--node1-PAMTOO_clean_sbu_0--edge1-UVAHIK_clean_linker_0
_symmetry_space_group_name_H-M    P1
_symmetry_Int_Tables_number       1
_symmetry_cell_setting            triclinic
loop_
_symmetry_equiv_pos_as_xyz
'x, y, z'
_cell_length_a     75.836123
_cell_length_b     30.914443
_cell_length_c     187.57806
_cell_angle_alpha  91.806405
_cell_angle_beta   90.10296
_cell_angle_gamma 74.818361
loop_
_atom_site_label
_atom_site_type_symbol
_atom_site_fract_x
_atom_site_fract_y
_atom_site_fract_z
_atom_type_partial_charge
Dy0 Dy -0.04284 1.59129 0.0083 0.0
Dy1 Dy -0.04574 1.561 0.02514 0.0
C2 C -0.0802 1.5805 0.01486 0.0
O3 O -0.05664 1.654 0.01432 0.0
O4 O -0.04791 1.63525 0.02583 0.0
O5 O -0.07369 1.69245 0.16353 0.0
O6 O -0.04468 1.65974 0.16394 0.0
O7 O -0.0169 1.54277 0.0214 0.0
O8 O -0.01956 1.60388 0.0148 0.0
O9 O -0.04393 1.49788 0.01854 0.0
O10 O -0.03317 1.51685 0.00786 0.0
O11 O -0.03228 1.54982 0.03529 0.0
O12 O -0.05895 1.53745 0.03397 0.0
C13 C -0.05456 1.66535 0.02101 0.0
O14 O -0.06924 1.57169 0.00926 0.0
O15 O -0.07417 1.58769 0.02125 0.0
C16 C -0.05826 1.66796 0.15242 0.0
C17 C -0.05911 1.64973 0.13753 0.0
C18 C -0.07183 1.63883 0.14215 0.0
C19 C -0.07144 1.64796 0.14953 0.0
C20 C -0.0453 1.67767 0.14785 0.0
C21 C -0.04569 1.66867 0.1405 0.0
C22 C -0.05817 1.68168 0.16006 0.0
C23 C -0.00982 1.57371 0.019 0.0
C24 C -0.03707 1.48731 0.01206 0.0
C25 C -0.05064 1.55681 0.04581 0.0
C26 C -0.05632 1.57883 0.06061 0.0
C27 C -0.04334 1.5938 0.0567 0.0
C28 C -0.04053 1.58295 0.04941 0.0
C29 C -0.06398 1.54301 0.04965 0.0
C30 C -0.06685 1.55401 0.05695 0.0
C31 C -0.04582 1.53905 0.03841 0.0
H32 H -0.08241 1.62442 0.14005 0.0
H33 H -0.08162 1.64014 0.15294 0.0
H34 H -0.03498 1.69303 0.14995 0.0
H35 H -0.03546 1.67673 0.13715 0.0
H36 H -0.03478 1.61244 0.05932 0.0
H37 H -0.02998 1.59381 0.04666 0.0
H38 H -0.07187 1.5225 0.04706 0.0
H39 H -0.07718 1.54248 0.05973 0.0
Dy40 Dy 0.37546 2.26377 0.0554 0.0
Dy41 Dy 0.38739 2.23883 0.07238 0.0
C42 C 0.39059 2.16243 0.06019 0.0
O43 O 0.35174 2.24695 0.06055 0.0
O44 O 0.35677 2.25823 0.07252 0.0
O45 O 0.36272 2.24953 0.04561 0.0
O46 O 0.37499 2.30537 0.04623 0.0
O47 O 0.38152 2.31307 0.07179 0.0
O48 O 0.36289 2.32653 0.06195 0.0
O49 O 0.41311 2.22316 0.06571 0.0
O50 O 0.40287 2.27529 0.05723 0.0
O51 O 0.40339 2.24692 0.08165 0.0
O52 O 0.38646 2.20034 0.08176 0.0
C53 C 0.34605 2.25273 0.06722 0.0
O54 O 0.39131 2.19106 0.05521 0.0
O55 O 0.38523 2.17612 0.06672 0.0
C56 C 0.3735 2.27151 0.03466 0.0
C57 C 0.38159 2.25573 0.01986 0.0
C58 C 0.38265 2.21975 0.02441 0.0
C59 C 0.37866 2.22752 0.03172 0.0
C60 C 0.3729 2.30731 0.03016 0.0
C61 C 0.37693 2.29958 0.02286 0.0
C62 C 0.36699 2.28136 0.04215 0.0
C63 C 0.36924 2.34021 0.06792 0.0
C64 C 0.41628 2.24787 0.06052 0.0
C65 C 0.3922 2.23182 0.09301 0.0
C66 C 0.385 2.2521 0.10777 0.0
C67 C 0.38426 2.28653 0.10293 0.0
C68 C 0.38779 2.27652 0.09562 0.0
C69 C 0.39276 2.19759 0.09781 0.0
C70 C 0.38921 2.20752 0.10508 0.0
C71 C 0.39719 2.21927 0.08543 0.0
H72 H 0.38645 2.18549 0.02232 0.0
H73 H 0.37925 2.19912 0.03504 0.0
H74 H 0.36877 2.34157 0.03225 0.0
H75 H 0.37574 2.3282 0.01954 0.0
H76 H 0.38086 2.32128 0.10478 0.0
H77 H 0.38721 2.30367 0.09204 0.0
H78 H 0.39627 2.16284 0.09594 0.0
H79 H 0.39021 2.18001 0.10863 0.0
Dy80 Dy 0.24509 0.9695 0.09012 0.0
Dy81 Dy 0.24679 1.01058 0.10671 0.0
C82 C 0.2819 0.98496 0.09661 0.0
O83 O 0.25839 0.91115 0.09663 0.0
O84 O 0.24837 0.93732 0.10794 0.0
O85 O 0.25754 0.9275 0.0811 0.0
O86 O 0.22889 0.96371 0.08076 0.0
O87 O 0.21833 1.02628 0.10266 0.0
O88 O 0.22136 0.96057 0.09659 0.0
O89 O 0.24652 1.06823 0.09963 0.0
O90 O 0.23487 1.04366 0.08936 0.0
O91 O 0.23173 1.03339 0.11643 0.0
O92 O 0.25987 1.03644 0.11563 0.0
C93 C 0.25553 0.90412 0.10335 0.0
O94 O 0.2712 0.99063 0.09098 0.0
O95 O 0.27553 0.9814 0.10302 0.0
C96 C 0.24454 0.94504 0.0696 0.0
C97 C 0.24915 0.95057 0.05468 0.0
C98 C 0.26066 0.96557 0.05954 0.0
C99 C 0.25841 0.96272 0.06693 0.0
C100 C 0.23275 0.93135 0.06478 0.0
C101 C 0.235 0.93408 0.05742 0.0
C102 C 0.24269 0.93744 0.07729 0.0
C103 C 0.21136 0.99376 0.10052 0.0
C104 C 0.23927 1.07544 0.09323 0.0
C105 C 0.24806 1.03057 0.12737 0.0
C106 C 0.24916 1.02108 0.14241 0.0
C107 C 0.23745 1.00264 0.13815 0.0
C108 C 0.2369 1.00731 0.13074 0.0
C109 C 0.26021 1.0476 0.13157 0.0
C110 C 0.26082 1.04279 0.13898 0.0
C111 C 0.24551 1.04249 0.11975 0.0
H112 H 0.27175 0.97824 0.05762 0.0
H113 H 0.26771 0.97347 0.07054 0.0
H114 H 0.22195 0.91764 0.06672 0.0
H115 H 0.22566 0.92302 0.05388 0.0
H116 H 0.22811 0.98614 0.14057 0.0
H117 H 0.22724 0.99404 0.12769 0.0
H118 H 0.26887 1.06596 0.12914 0.0
H119 H 0.27027 1.05674 0.14203 0.0
Dy120 Dy 0.8207 0.3447 0.13493 0.0
Dy121 Dy 0.80273 0.36547 0.15141 0.0
C122 C 0.80538 0.4447 0.1415 0.0
O123 O 0.84346 0.35622 0.14156 0.0
O124 O 0.83298 0.35361 0.15311 0.0
O125 O 0.83357 0.36366 0.12568 0.0
O126 O 0.82757 0.29882 0.12577 0.0
O127 O 0.80495 0.29464 0.14787 0.0
O128 O 0.83117 0.28368 0.14147 0.0
O129 O 0.77891 0.3794 0.14388 0.0
O130 O 0.79266 0.33461 0.13435 0.0
O131 O 0.79779 0.33727 0.16132 0.0
O132 O 0.78689 0.40848 0.15984 0.0
C133 C 0.84598 0.35458 0.14849 0.0
O134 O 0.80598 0.41813 0.13581 0.0
O135 O 0.80829 0.42866 0.14792 0.0
C136 C 0.82937 0.32952 0.11439 0.0
C137 C 0.82336 0.33396 0.09946 0.0
C138 C 0.81456 0.36988 0.10411 0.0
C139 C 0.81752 0.36768 0.1115 0.0
C140 C 0.83797 0.29362 0.10979 0.0
C141 C 0.83504 0.29575 0.10243 0.0
C142 C 0.83387 0.32663 0.12208 0.0
C143 C 0.82037 0.26805 0.14554 0.0
C144 C 0.77797 0.35767 0.13779 0.0
C145 C 0.8125 0.31709 0.00714 0.0
C146 C 0.81597 0.327 0.02215 0.0
C147 C 0.82752 0.29071 0.01831 0.0
C148 C 0.82583 0.28582 0.0109 0.0
C149 C 0.80141 0.35421 0.01093 0.0
C150 C 0.80318 0.35926 0.01834 0.0
C151 C 0.78916 0.37573 0.16427 0.0
H152 H 0.80532 0.39964 0.10204 0.0
H153 H 0.81069 0.39588 0.11494 0.0
H154 H 0.84728 0.264 0.11189 0.0
H155 H 0.84232 0.26774 0.09906 0.0
H156 H 0.83771 0.2656 0.02104 0.0
H157 H 0.83461 0.25672 0.00817 0.0
H158 H 0.79088 0.37854 0.0082 0.0
H159 H 0.79396 0.38743 0.02112 0.0
Dy160 Dy 0.00611 1.02312 0.13566 0.0
Dy161 Dy 0.0202 0.99954 0.15257 0.0
C162 C 0.02267 0.92244 0.14061 0.0
O163 O -0.01753 1.00902 0.14136 0.0
O164 O -0.0103 1.01729 0.15324 0.0
O165 O -0.00647 1.00602 0.12598 0.0
O166 O 0.0039 1.065 0.12644 0.0
O167 O 0.01334 1.07384 0.15184 0.0
O168 O -0.00608 1.08603 0.1422 0.0
O169 O 0.04519 0.98562 0.14549 0.0
O170 O 0.03339 1.03652 0.13697 0.0
O171 O 0.03618 1.0107 0.16171 0.0
O172 O 0.02129 0.95981 0.16195 0.0
C173 C -0.02196 1.01356 0.14819 0.0
O174 O 0.02244 0.95091 0.13552 0.0
O175 O 0.01789 0.93623 0.14719 0.0
C176 C 0.00303 1.02992 0.1149 0.0
C177 C 0.01104 1.01586 0.10004 0.0
C178 C 0.01185 0.97939 0.10448 0.0
C179 C 0.00787 0.98631 0.1118 0.0
C180 C 0.00267 1.06619 0.11052 0.0
C181 C 0.00666 1.05931 0.10321 0.0
C182 C -0.00335 1.03896 0.12244 0.0
C183 C 0.00057 1.10025 0.14806 0.0
C184 C 0.04741 1.01025 0.14014 0.0
C185 C 0.04565 0.9256 0.00845 0.0
C186 C 0.03903 0.94369 0.02331 0.0
C187 C 0.03814 0.97884 0.01859 0.0
C188 C 0.04144 0.96992 0.01125 0.0
C189 C 0.04616 0.89071 0.01312 0.0
C190 C 0.04287 0.89957 0.02043 0.0
C191 C 0.03126 0.98126 0.16554 0.0
H192 H 0.01499 0.94547 0.10225 0.0
H193 H 0.00817 0.95756 0.115 0.0
H194 H -0.0011 1.10019 0.11274 0.0
H195 H 0.00619 1.08822 0.10004 0.0
H196 H 0.03535 1.01321 0.0206 0.0
H197 H 0.04096 0.99759 0.00779 0.0
H198 H 0.04936 0.85626 0.01111 0.0
H199 H 0.04333 0.87164 0.02384 0.0
Dy200 Dy 0.61925 2.24735 0.02703 0.0
Dy201 Dy 0.61342 2.20899 0.01051 0.0
C202 C 0.62651 2.1428 0.02339 0.0
O203 O 0.64674 2.22728 0.02186 0.0
O204 O 0.63925 2.23139 0.00995 0.0
O205 O 0.63435 2.24108 0.0369 0.0
O206 O 0.61038 2.29658 0.0357 0.0
O207 O 0.60163 2.28326 0.01078 0.0
O208 O 0.61882 2.30389 0.01972 0.0
O209 O 0.59081 2.19806 0.01746 0.0
O210 O 0.58949 2.25749 0.0252 0.0
O211 O 0.59635 2.20981 0.00121 0.0
O212 O 0.6232 2.16332 0.00152 0.0
C213 C 0.65109 2.23013 0.01514 0.0
O214 O 0.61896 2.17523 0.02801 0.0
O215 O 0.62906 2.15102 0.01669 0.0
C216 C 0.61792 2.27205 0.04759 0.0
C217 C 0.6115 2.26963 0.0625 0.0
C218 C 0.62068 2.23056 0.05859 0.0
C219 C 0.62388 2.23175 0.05123 0.0
C220 C 0.60834 2.31074 0.05144 0.0
C221 C 0.60512 2.30956 0.05878 0.0
C222 C 0.62307 2.2757 0.04001 0.0
C223 C 0.60841 2.31344 0.01405 0.0
C224 C 0.58206 2.22742 0.02233 0.0
C225 C 0.59225 2.25257 0.15471 0.0
C226 C 0.59551 2.25895 0.1397 0.0
C227 C 0.58648 2.29661 0.14396 0.0
C228 C 0.58482 2.29345 0.15138 0.0
C229 C 0.6016 2.21535 0.15049 0.0
C230 C 0.60325 2.21847 0.1431 0.0
C231 C 0.58943 2.24648 0.16242 0.0
H232 H 0.62598 2.19926 0.06125 0.0
H233 H 0.63143 2.20132 0.04846 0.0
H234 H 0.60367 2.34234 0.0488 0.0
H235 H 0.59772 2.34017 0.06156 0.0
H236 H 0.58022 2.32827 0.14154 0.0
H237 H 0.57745 2.32276 0.15447 0.0
H238 H 0.60741 2.1834 0.1529 0.0
H239 H 0.61059 2.18895 0.14005 0.0
Dy240 Dy 0.19961 1.58537 0.05069 0.0
Dy241 Dy 0.18231 1.61833 0.067 0.0
C242 C 0.18189 1.68929 0.05505 0.0
O243 O 0.22355 1.57713 0.05781 0.0
O244 O 0.21093 1.62716 0.06693 0.0
O245 O 0.21703 1.58899 0.0417 0.0
O246 O 0.20104 1.54023 0.04154 0.0
O247 O 0.19978 1.54922 0.06807 0.0
O248 O 0.19798 1.5237 0.05657 0.0
O249 O 0.16049 1.59718 0.06057 0.0
O250 O 0.16971 1.60939 0.04934 0.0
O251 O 0.16748 1.60676 0.07627 0.0
O252 O 0.17677 1.66726 0.07579 0.0
C253 C 0.22525 1.60272 0.06335 0.0
O254 O 0.19528 1.66045 0.05159 0.0
O255 O 0.1725 1.67658 0.06007 0.0
C256 C 0.20856 1.56384 0.03022 0.0
C257 C 0.2055 1.56918 0.01515 0.0
C258 C 0.20738 1.60622 0.01938 0.0
C259 C 0.20896 1.60354 0.02683 0.0
C260 C 0.20623 1.52735 0.02602 0.0
C261 C 0.20468 1.52999 0.0186 0.0
C262 C 0.21204 1.55783 0.03798 0.0
C263 C 0.20126 1.51617 0.06339 0.0
C264 C 0.15726 1.60281 0.05369 0.0
C265 C 0.17372 1.63999 0.08741 0.0
C266 C 0.17832 1.63894 0.10247 0.0
C267 C 0.17695 1.6002 0.09858 0.0
C268 C 0.17464 1.60073 0.09116 0.0
C269 C 0.1755 1.67837 0.09126 0.0
C270 C 0.17783 1.67783 0.09867 0.0
C271 C 0.16909 1.64296 0.07969 0.0
H272 H 0.20821 1.63684 0.01692 0.0
H273 H 0.21086 1.6322 0.02991 0.0
H274 H 0.20598 1.49624 0.02847 0.0
H275 H 0.20292 1.50106 0.01556 0.0
H276 H 0.17704 1.56977 0.1013 0.0
H277 H 0.17311 1.57065 0.0884 0.0
H278 H 0.17468 1.70927 0.08855 0.0
H279 H 0.17913 1.70811 0.10144 0.0
Dy280 Dy 0.57774 0.36053 0.09156 0.0
Dy281 Dy 0.5752 0.33078 0.10842 0.0
C282 C 0.54073 0.34754 0.09812 0.0
O283 O 0.56349 0.42323 0.0975 0.0
O284 O 0.5724 0.40529 0.10903 0.0
O285 O 0.56591 0.39357 0.08203 0.0
O286 O 0.59505 0.36249 0.08246 0.0
O287 O 0.60406 0.31342 0.10465 0.0
O288 O 0.60082 0.37462 0.098 0.0
O289 O 0.57759 0.26707 0.10192 0.0
O290 O 0.58804 0.28603 0.09119 0.0
O291 O 0.58873 0.32054 0.11856 0.0
O292 O 0.56225 0.30698 0.11731 0.0
C293 C 0.56549 0.43502 0.10419 0.0
O294 O 0.55173 0.3393 0.09253 0.0
O295 O 0.54663 0.35529 0.10451 0.0
C296 C 0.58146 0.36884 0.07096 0.0
C297 C 0.58123 0.34661 0.05618 0.0
C298 C 0.56906 0.33449 0.06093 0.0
C299 C 0.56919 0.34544 0.06825 0.0
C300 C 0.59368 0.38052 0.06626 0.0
C301 C 0.59358 0.36961 0.05897 0.0
C302 C 0.58143 0.38349 0.07855 0.0
C303 C 0.61089 0.34443 0.10212 0.0
C304 C 0.58455 0.25631 0.09546 0.0
C305 C 0.57058 0.32675 0.12912 0.0
C306 C 0.56561 0.34789 0.14395 0.0
C307 C 0.5773 0.36605 0.13986 0.0
C308 C 0.57975 0.35567 0.13254 0.0
C309 C 0.55838 0.30995 0.13315 0.0
C310 C 0.55584 0.32055 0.14046 0.0
C311 C 0.57537 0.30918 0.12171 0.0
H312 H 0.55949 0.31634 0.05899 0.0
H313 H 0.55963 0.33596 0.07178 0.0
H314 H 0.60318 0.39885 0.06822 0.0
H315 H 0.60295 0.38021 0.0555 0.0
H316 H 0.58483 0.38775 0.14234 0.0
H317 H 0.5893 0.36919 0.12963 0.0
H318 H 0.5513 0.28715 0.13069 0.0
H319 H 0.54684 0.30567 0.14345 0.0
Dy320 Dy 0.74547 1.02891 0.14165 0.0
Dy321 Dy 0.73821 1.00379 0.15838 0.0
C322 C 0.70878 1.0066 0.14584 0.0
O323 O 0.73012 1.09284 0.14753 0.0
O324 O 0.73996 1.07419 0.15885 0.0
O325 O 0.73499 1.06328 0.13205 0.0
O326 O 0.76359 1.02713 0.13268 0.0
O327 O 0.76848 0.99718 0.15746 0.0
O328 O 0.76789 1.04354 0.14807 0.0
O329 O 0.74228 0.93975 0.15212 0.0
O330 O 0.75798 0.95441 0.14236 0.0
O331 O 0.76452 0.89752 0.00313 0.0
O332 O 0.73936 0.95053 0.0028 0.0
C333 C 0.73289 1.10444 0.15419 0.0
O334 O 0.72205 0.99883 0.14115 0.0
O335 O 0.71131 1.01868 0.15249 0.0
C336 C 0.75023 1.03369 0.12106 0.0
C337 C 0.75049 1.01347 0.10617 0.0
C338 C 0.73395 1.03227 0.10985 0.0
C339 C 0.73382 1.04233 0.11719 0.0
C340 C 0.76671 1.01401 0.11741 0.0
C341 C 0.76684 1.00386 0.11008 0.0
C342 C 0.75054 1.04939 0.12863 0.0
C343 C 0.77643 1.02084 0.15342 0.0
C344 C 0.75284 0.92609 0.1465 0.0
C345 C 0.75222 0.93323 0.01429 0.0
C346 C 0.75451 0.95071 0.02917 0.0
C347 C 0.77033 0.93063 0.02511 0.0
C348 C 0.7692 0.92195 0.01775 0.0
C349 C 0.7365 0.95382 0.01832 0.0
C350 C 0.73761 0.96255 0.02564 0.0
C351 C 0.75016 0.92062 0.00668 0.0
H352 H 0.72107 1.03963 0.10704 0.0
H353 H 0.72087 1.05784 0.11979 0.0
H354 H 0.77962 1.00762 0.12019 0.0
H355 H 0.77985 0.98997 0.10743 0.0
H356 H 0.7836 0.92149 0.02762 0.0
H357 H 0.78158 0.90581 0.01482 0.0
H358 H 0.72318 0.96226 0.01582 0.0
H359 H 0.7251 0.97733 0.02858 0.0
Dy360 Dy 0.31113 0.35361 0.09557 0.0
Dy361 Dy 0.32282 0.32826 0.11247 0.0
C362 C 0.32794 0.25241 0.09996 0.0
O363 O 0.2852 0.37008 0.10215 0.0
O364 O 0.29513 0.31814 0.1107 0.0
O365 O 0.29532 0.34605 0.0862 0.0
O366 O 0.31266 0.39162 0.08617 0.0
O367 O 0.30702 0.40114 0.11273 0.0
O368 O 0.31342 0.41601 0.10126 0.0
O369 O 0.34624 0.34696 0.10741 0.0
O370 O 0.34183 0.33203 0.09555 0.0
O371 O 0.33576 0.34158 0.12227 0.0
O372 O 0.32329 0.28612 0.12158 0.0
C373 C 0.28185 0.34547 0.10732 0.0
O374 O 0.31518 0.28013 0.09638 0.0
O375 O 0.33522 0.26592 0.10573 0.0
C376 C 0.30683 0.3607 0.07489 0.0
C377 C 0.31408 0.34013 0.06013 0.0
C378 C 0.31547 0.30571 0.06503 0.0
C379 C 0.3119 0.31587 0.07234 0.0
C380 C 0.30563 0.39493 0.07003 0.0
C381 C 0.3092 0.38486 0.06276 0.0
C382 C 0.30182 0.37332 0.08246 0.0
C383 C 0.30796 0.42978 0.10778 0.0
C384 C 0.35229 0.33956 0.10081 0.0
C385 C 0.32508 0.31917 0.1332 0.0
C386 C 0.3172 0.33476 0.14802 0.0
C387 C 0.31531 0.37084 0.14341 0.0
C388 C 0.31919 0.36316 0.13609 0.0
C389 C 0.32653 0.28321 0.13775 0.0
C390 C 0.32262 0.29084 0.14505 0.0
C391 C 0.33144 0.30965 0.12568 0.0
H392 H 0.31938 0.27086 0.06323 0.0
H393 H 0.31297 0.28874 0.07597 0.0
H394 H 0.30161 0.42977 0.07185 0.0
H395 H 0.30768 0.41236 0.05918 0.0
H396 H 0.31092 0.40512 0.14547 0.0
H397 H 0.31793 0.39166 0.13273 0.0
H398 H 0.33123 0.24898 0.13568 0.0
H399 H 0.32447 0.26217 0.14841 0.0
Dy400 Dy 0.44685 1.58134 0.05943 0.0
Dy401 Dy 0.44971 1.62177 0.076 0.0
C402 C 0.4827 1.59908 0.06521 0.0
O403 O 0.44621 1.52491 0.06664 0.0
O404 O 0.46039 1.54739 0.07642 0.0
O405 O 0.4616 1.5516 0.04991 0.0
O406 O 0.43231 1.56166 0.05038 0.0
O407 O 0.42313 1.60257 0.07548 0.0
O408 O 0.41838 1.60919 0.0634 0.0
O409 O 0.43635 1.68032 0.06955 0.0
O410 O 0.44562 1.6544 0.05816 0.0
O411 O 0.43806 1.66413 0.0851 0.0
O412 O 0.46643 1.62572 0.08529 0.0
C413 C 0.45468 1.51663 0.0728 0.0
O414 O 0.4757 1.56661 0.06306 0.0
O415 O 0.47299 1.63155 0.06936 0.0
C416 C 0.44583 1.56031 0.03879 0.0
C417 C 0.4462 1.56954 0.02376 0.0
C418 C 0.45882 1.58389 0.02815 0.0
C419 C 0.45866 1.5793 0.03556 0.0
C420 C 0.43285 1.54738 0.03445 0.0
C421 C 0.43299 1.55204 0.02705 0.0
C422 C 0.44701 1.54885 0.04644 0.0
C423 C 0.41234 1.60641 0.06989 0.0
C424 C 0.43888 1.68752 0.06281 0.0
C425 C 0.45117 1.64499 0.09653 0.0
C426 C 0.44675 1.63957 0.11147 0.0
C427 C 0.43444 1.62733 0.10666 0.0
C428 C 0.4366 1.63012 0.09926 0.0
C429 C 0.46373 1.65588 0.1013 0.0
C430 C 0.46157 1.6532 0.10867 0.0
C431 C 0.45298 1.65276 0.08884 0.0
H432 H 0.46932 1.59712 0.02583 0.0
H433 H 0.46895 1.58936 0.03873 0.0
H434 H 0.42288 1.53239 0.03678 0.0
H435 H 0.42283 1.54137 0.02389 0.0
H436 H 0.42282 1.61693 0.10861 0.0
H437 H 0.42669 1.62159 0.0957 0.0
H438 H 0.47507 1.66744 0.09933 0.0
H439 H 0.47152 1.66206 0.11218 0.0
Dy440 Dy -0.10684 2.21978 0.01484 0.0
Dy441 Dy -0.12434 2.24539 0.03131 0.0
C442 C -0.125 2.31936 0.01982 0.0
O443 O -0.08274 2.2101 0.02223 0.0
O444 O -0.09645 2.25563 0.0317 0.0
O445 O -0.09796 2.24197 0.00501 0.0
O446 O -0.09482 2.1712 0.00638 0.0
O447 O -0.10804 2.17307 0.03111 0.0
O448 O -0.11235 2.15879 0.01929 0.0
O449 O -0.14603 2.22724 0.02479 0.0
O450 O -0.13729 2.23675 0.01329 0.0
O451 O -0.13796 2.22858 0.04053 0.0
O452 O -0.13105 2.29235 0.04035 0.0
C453 C -0.08177 2.23264 0.02825 0.0
O454 O -0.10998 2.29214 0.01726 0.0
O455 O -0.13482 2.30601 0.02464 0.0
C456 C -0.11724 2.26434 0.15914 0.0
C457 C -0.12172 2.25767 0.14414 0.0
C458 C -0.13046 2.29712 0.14804 0.0
C459 C -0.12824 2.30044 0.15544 0.0
C460 C -0.10901 2.22448 0.15529 0.0
C461 C -0.11126 2.22109 0.1479 0.0
C462 C -0.09318 2.20198 0.00203 0.0
C463 C -0.10797 2.14455 0.02574 0.0
C464 C -0.14967 2.23266 0.01797 0.0
C465 C -0.13381 2.2631 0.05179 0.0
C466 C -0.1299 2.25926 0.06682 0.0
C467 C -0.12232 2.22124 0.06239 0.0
C468 C -0.1243 2.2231 0.05495 0.0
C469 C -0.14087 2.30129 0.05618 0.0
C470 C -0.13893 2.29946 0.06359 0.0
C471 C -0.13789 2.26559 0.04406 0.0
H472 H -0.13847 2.32618 0.14535 0.0
H473 H -0.1347 2.33182 0.15823 0.0
H474 H -0.10037 2.19623 0.15799 0.0
H475 H -0.10458 2.18989 0.14512 0.0
H476 H -0.11537 2.18967 0.06468 0.0
H477 H -0.11874 2.19307 0.05169 0.0
H478 H -0.14827 2.33251 0.05388 0.0
H479 H -0.14464 2.32961 0.0668 0.0
Dy480 Dy 0.67652 1.59232 0.01463 0.0
Dy481 Dy 0.68917 1.56667 0.0315 0.0
C482 C 0.69343 1.49089 0.01902 0.0
O483 O 0.65098 1.60927 0.02144 0.0
O484 O 0.6613 1.55732 0.02997 0.0
O485 O 0.66062 1.58394 0.00532 0.0
O486 O 0.67729 1.63102 0.00524 0.0
O487 O 0.67388 1.63979 0.03175 0.0
O488 O 0.67976 1.65438 0.0202 0.0
O489 O 0.71259 1.58394 0.02616 0.0
O490 O 0.70717 1.56995 0.01434 0.0
O491 O 0.70216 1.58067 0.04126 0.0
O492 O 0.69031 1.52416 0.04061 0.0
C493 C 0.64787 1.58484 0.02669 0.0
O494 O 0.68059 1.51876 0.01549 0.0
O495 O 0.70103 1.50426 0.02472 0.0
C496 C 0.65218 1.66718 0.15869 0.0
C497 C 0.65973 1.64717 0.14392 0.0
C498 C 0.66354 1.61285 0.14893 0.0
C499 C 0.65983 1.62275 0.15624 0.0
C500 C 0.64848 1.70133 0.15372 0.0
C501 C 0.65218 1.69155 0.14645 0.0
C502 C 0.66659 1.61207 0.00156 0.0
C503 C 0.67513 1.6681 0.0268 0.0
C504 C 0.71809 1.57684 0.01948 0.0
C505 C 0.69226 1.55699 0.05224 0.0
C506 C 0.68446 1.57234 0.06709 0.0
C507 C 0.68042 1.6081 0.06234 0.0
C508 C 0.68427 1.60053 0.05501 0.0
C509 C 0.69593 1.52124 0.05693 0.0
C510 C 0.69208 1.52873 0.06424 0.0
C511 C 0.69835 1.54812 0.04468 0.0
H512 H 0.66952 1.57835 0.14722 0.0
H513 H 0.66286 1.59573 0.15996 0.0
H514 H 0.64247 1.73581 0.15546 0.0
H515 H 0.64874 1.71884 0.14279 0.0
H516 H 0.67432 1.64205 0.06429 0.0
H517 H 0.68128 1.62883 0.05153 0.0
H518 H 0.70226 1.48742 0.05495 0.0
H519 H 0.69564 1.50037 0.06769 0.0
Dy520 Dy 0.08277 0.38067 0.15605 0.0
Dy521 Dy 0.0755 0.34509 0.13943 0.0
C522 C 0.08477 0.27742 0.15249 0.0
O523 O 0.10618 0.38752 0.14916 0.0
O524 O 0.10557 0.33195 0.14084 0.0
O525 O 0.09995 0.37799 0.16536 0.0
O526 O 0.07361 0.42684 0.16503 0.0
O527 O 0.07796 0.41558 0.13853 0.0
O528 O 0.0686 0.44016 0.14991 0.0
O529 O 0.04821 0.37081 0.14473 0.0
O530 O 0.05624 0.36163 0.15653 0.0
O531 O 0.06009 0.35508 0.12964 0.0
O532 O 0.0825 0.29574 0.13069 0.0
C533 C 0.114 0.35929 0.14398 0.0
O534 O 0.09173 0.30617 0.15607 0.0
O535 O 0.07556 0.28768 0.14653 0.0
C536 C 0.10417 0.33665 0.01184 0.0
C537 C 0.10047 0.33075 0.02683 0.0
C538 C 0.10879 0.29244 0.02257 0.0
C539 C 0.11066 0.29536 0.01516 0.0
C540 C 0.09552 0.37456 0.01606 0.0
C541 C 0.09365 0.37168 0.02344 0.0
C542 C 0.10723 0.34231 0.00414 0.0
C543 C 0.07171 0.4483 0.14327 0.0
C544 C 0.04396 0.36739 0.15144 0.0
C545 C 0.07558 0.32193 0.11886 0.0
C546 C 0.0823 0.32331 0.10396 0.0
C547 C 0.07368 0.36297 0.10785 0.0
C548 C 0.07033 0.36229 0.1152 0.0
C549 C 0.08457 0.28258 0.11503 0.0
C550 C 0.08794 0.28325 0.10769 0.0
C551 C 0.07027 0.31911 0.12644 0.0
H552 H 0.11432 0.2604 0.02499 0.0
H553 H 0.11745 0.2655 0.01206 0.0
H554 H 0.09043 0.40682 0.01365 0.0
H555 H 0.08685 0.40173 0.02649 0.0
H556 H 0.06895 0.3944 0.10517 0.0
H557 H 0.06323 0.39323 0.11796 0.0
H558 H 0.08867 0.25091 0.11768 0.0
H559 H 0.09488 0.25216 0.10494 0.0
Dy560 Dy 0.50928 0.99852 0.10116 0.0
Dy561 Dy 0.49162 1.01364 0.11759 0.0
C562 C 0.49148 1.0931 0.10755 0.0
O563 O 0.53358 0.98805 0.10843 0.0
O564 O 0.51951 1.02365 0.11871 0.0
O565 O 0.51185 1.02933 0.09121 0.0
O566 O 0.52594 0.95942 0.09256 0.0
O567 O 0.50869 0.94207 0.11661 0.0
O568 O 0.5062 0.93244 0.1045 0.0
O569 O 0.47123 0.99101 0.11098 0.0
O570 O 0.47891 1.00865 0.09976 0.0
O571 O 0.47957 0.9917 0.12679 0.0
O572 O 0.48257 1.05949 0.12663 0.0
C573 C 0.5343 1.00547 0.11491 0.0
O574 O 0.50721 1.06776 0.10533 0.0
O575 O 0.4805 1.07523 0.11115 0.0
C576 C 0.51801 0.98291 0.0806 0.0
C577 C 0.51459 0.97189 0.06561 0.0
C578 C 0.50215 1.00645 0.06947 0.0
C579 C 0.50382 1.01189 0.07687 0.0
C580 C 0.53004 0.94743 0.07679 0.0
C581 C 0.5283 0.94183 0.06939 0.0
C582 C 0.52186 0.99255 0.08818 0.0
C583 C 0.50987 0.91578 0.11086 0.0
C584 C 0.46745 0.99764 0.1042 0.0
C585 C 0.48189 1.02843 0.13804 0.0
C586 C 0.48771 1.02654 0.153 0.0
C587 C 0.49794 0.99198 0.14842 0.0
C588 C 0.49508 0.99294 0.14101 0.0
C589 C 0.47184 1.06302 0.14258 0.0
C590 C 0.47468 1.06214 0.14995 0.0
C591 C 0.47757 1.02971 0.13034 0.0
H592 H 0.49125 1.02981 0.06676 0.0
H593 H 0.49431 1.03971 0.07961 0.0
H594 H 0.54124 0.92493 0.07949 0.0
H595 H 0.53822 0.91509 0.06659 0.0
H596 H 0.50822 0.96429 0.15056 0.0
H597 H 0.50305 0.96583 0.13763 0.0
H598 H 0.46151 1.09057 0.14042 0.0
H599 H 0.46632 1.08896 0.15327 0.0
Dy600 Dy 0.12732 2.2698 0.0566 0.0
Dy601 Dy 0.11855 2.24219 0.07316 0.0
C602 C 0.09037 2.24607 0.06018 0.0
O603 O 0.112 2.33318 0.06259 0.0
O604 O 0.12076 2.31227 0.07394 0.0
O605 O 0.1175 2.30521 0.04701 0.0
O606 O 0.14592 2.26814 0.04777 0.0
O607 O 0.1489 2.23429 0.07255 0.0
O608 O 0.14973 2.28152 0.06337 0.0
O609 O 0.12291 2.17909 0.06654 0.0
O610 O 0.13989 2.19553 0.05731 0.0
O611 O 0.12481 2.20207 0.08257 0.0
O612 O 0.09989 2.25579 0.08217 0.0
C613 C 0.11428 2.34344 0.06935 0.0
O614 O 0.10401 2.23946 0.05567 0.0
O615 O 0.0922 2.25745 0.06692 0.0
C616 C 0.133 2.2755 0.03605 0.0
C617 C 0.13348 2.25501 0.02112 0.0
C618 C 0.11685 2.27197 0.02484 0.0
C619 C 0.11661 2.28219 0.03219 0.0
C620 C 0.14959 2.25775 0.03237 0.0
C621 C 0.14984 2.2475 0.02502 0.0
C622 C 0.13313 2.29093 0.04366 0.0
C623 C 0.15757 2.25735 0.06871 0.0
C624 C 0.13402 2.16654 0.06104 0.0
C625 C 0.11205 2.23704 0.09375 0.0
C626 C 0.11372 2.25268 0.10874 0.0
C627 C 0.12979 2.23511 0.10468 0.0
C628 C 0.12897 2.22724 0.09728 0.0
C629 C 0.0961 2.25548 0.09777 0.0
C630 C 0.0969 2.2633 0.10514 0.0
C631 C 0.11035 2.22528 0.08606 0.0
H632 H 0.10398 2.2788 0.02203 0.0
H633 H 0.10357 2.29636 0.03481 0.0
H634 H 0.16248 2.2526 0.03514 0.0
H635 H 0.16291 2.23387 0.0224 0.0
H636 H 0.14299 2.22616 0.10725 0.0
H637 H 0.14154 2.2127 0.09435 0.0
H638 H 0.08285 2.26316 0.09522 0.0
H639 H 0.08426 2.2776 0.10803 0.0
C640 C -0.06364 1.6036 0.12661 0.0
C641 C -0.05996 1.64258 0.12962 0.0
C642 C -0.06389 1.59675 0.11918 0.0
C643 C -0.0477 1.63498 0.10232 0.0
H644 H -0.08268 1.57906 0.09341 0.0
C645 C -0.05634 1.62784 0.07167 0.0
C646 C -0.05822 1.58736 0.06852 0.0
C647 C -0.05714 1.63477 0.0791 0.0
C648 C -0.07271 1.59437 0.09581 0.0
H649 H -0.05437 1.70571 0.12709 0.0
H650 H -0.05492 1.694 0.11422 0.0
H651 H -0.08295 1.59041 0.10635 0.0
H652 H -0.06244 1.52243 0.07083 0.0
H653 H -0.06406 1.53478 0.08374 0.0
H654 H -0.03752 1.6391 0.0918 0.0
C655 C -0.05716 1.66806 0.11758 0.0
C656 C -0.07283 1.60082 0.10325 0.0
C657 C -0.05686 1.67483 0.12499 0.0
C658 C -0.06125 1.55436 0.07302 0.0
C659 C -0.06213 1.56138 0.08045 0.0
C660 C -0.04763 1.62868 0.0949 0.0
C661 C -0.06053 1.62878 0.11456 0.0
C662 C -0.06035 1.62133 0.10662 0.0
C663 C -0.05992 1.60152 0.0836 0.0
C664 C -0.06014 1.60836 0.09153 0.0
H665 H -0.06593 1.57786 0.13001 0.0
H666 H -0.06633 1.56585 0.11707 0.0
H667 H -0.03763 1.65004 0.10471 0.0
H668 H -0.05431 1.6544 0.0684 0.0
H669 H -0.05569 1.66642 0.08132 0.0
C670 C 0.37787 2.21545 0.00824 0.0
C671 C 0.38463 2.24787 0.01197 0.0
C672 C 0.36068 2.27659 0.16554 0.0
C673 C 0.3877 2.29904 0.15017 0.0
H674 H 0.34748 2.27792 0.13904 0.0
C675 C 0.38873 2.29492 0.11916 0.0
C676 C 0.3818 2.26213 0.11561 0.0
C677 C 0.38648 2.30261 0.12656 0.0
C678 C 0.35895 2.28329 0.14205 0.0
H679 H 0.39934 2.29867 0.01074 0.0
H680 H 0.3835 2.35574 0.16254 0.0
H681 H 0.34441 2.28796 0.15195 0.0
H682 H 0.36656 2.2127 0.11712 0.0
H683 H 0.36294 2.22547 0.12997 0.0
H684 H 0.40227 2.29419 0.14027 0.0
C685 C 0.37664 2.33472 0.16536 0.0
C686 C 0.35718 2.28904 0.14949 0.0
C687 C 0.39378 2.27367 0.00806 0.0
C688 C 0.37229 2.23784 0.11966 0.0
C689 C 0.37003 2.24556 0.12705 0.0
C690 C 0.38947 2.29324 0.14273 0.0
C691 C 0.36965 2.30271 0.16162 0.0
C692 C 0.37155 2.29685 0.15367 0.0
C693 C 0.37718 2.27785 0.13063 0.0
C694 C 0.37515 2.28512 0.13856 0.0
H695 H 0.37057 2.19525 0.01103 0.0
H696 H 0.35531 2.25121 0.16288 0.0
H697 H 0.39916 2.30438 0.1532 0.0
H698 H 0.39626 2.31405 0.11625 0.0
H699 H 0.392 2.32815 0.12909 0.0
C700 C 0.25016 0.91465 0.04238 0.0
C701 C 0.25205 0.95084 0.04679 0.0
C702 C 0.25251 0.91485 0.03499 0.0
C703 C 0.27231 0.96934 0.0207 0.0
H704 H 0.24045 0.92043 0.0085 0.0
C705 C 0.25031 1.05631 0.15469 0.0
C706 C 0.24858 1.0195 0.15038 0.0
C707 C 0.24898 1.05575 0.16214 0.0
C708 C 0.24962 0.93375 0.01182 0.0
H709 H 0.25802 1.01568 0.04679 0.0
H710 H 0.26199 1.01625 0.03387 0.0
H711 H 0.23685 0.92088 0.0214 0.0
H712 H 0.24456 0.95262 0.15066 0.0
H713 H 0.2421 0.95184 0.16362 0.0
H714 H 0.28494 0.98257 0.01108 0.0
C715 C 0.25891 0.98732 0.03616 0.0
C716 C 0.24757 0.93399 0.01924 0.0
C717 C 0.25661 0.98705 0.04358 0.0
C718 C 0.24567 0.98192 0.15377 0.0
C719 C 0.24426 0.98145 0.16121 0.0
C720 C 0.27432 0.96924 0.01326 0.0
C721 C 0.25679 0.9513 0.03174 0.0
C722 C 0.25891 0.95165 0.0238 0.0
C723 C 0.24578 1.01846 0.16551 0.0
C724 C 0.26303 0.95132 0.00872 0.0
H725 H 0.24705 0.88573 0.04466 0.0
H726 H 0.25116 0.88603 0.03181 0.0
H727 H 0.28149 0.98262 0.02401 0.0
H728 H 0.25221 1.08623 0.15231 0.0
H729 H 0.24998 1.08512 0.16525 0.0
C730 C 0.81996 0.29787 0.08746 0.0
C731 C 0.82078 0.33625 0.09155 0.0
C732 C 0.81859 0.29906 0.08002 0.0
C733 C 0.82667 0.36408 0.06453 0.0
H734 H 0.79866 0.29348 0.05442 0.0
C735 C 0.81511 0.37101 0.03381 0.0
C736 C 0.81662 0.32982 0.03012 0.0
C737 C 0.81526 0.37345 0.04129 0.0
C738 C 0.80669 0.3131 0.05715 0.0
H739 H 0.82056 0.40632 0.09092 0.0
H740 H 0.81768 0.40874 0.07797 0.0
H741 H 0.79897 0.29546 0.06741 0.0
H742 H 0.81924 0.25901 0.03147 0.0
H743 H 0.81962 0.26322 0.04446 0.0
H744 H 0.83428 0.38184 0.05423 0.0
C745 C 0.81841 0.37739 0.08052 0.0
C746 C 0.80689 0.31421 0.06462 0.0
C747 C 0.81981 0.37617 0.08797 0.0
C748 C 0.81828 0.29121 0.03411 0.0
C749 C 0.81827 0.29371 0.04158 0.0
C750 C 0.82639 0.36316 0.05705 0.0
C751 C 0.81792 0.33874 0.07642 0.0
C752 C 0.81703 0.33935 0.06844 0.0
C753 C 0.81671 0.33486 0.04528 0.0
C754 C 0.81653 0.33729 0.05326 0.0
H755 H 0.82041 0.26665 0.09 0.0
H756 H 0.81846 0.26844 0.07708 0.0
H757 H 0.83486 0.38333 0.06725 0.0
H758 H 0.81392 0.40137 0.0309 0.0
H759 H 0.81392 0.40575 0.04396 0.0
C760 C 0.02311 0.9902 0.03397 0.0
C761 C 0.03632 0.95249 0.03121 0.0
C762 C 0.02045 0.99762 0.04137 0.0
C763 C 0.02909 0.93849 0.0586 0.0
H764 H 0.01886 1.05878 0.06696 0.0
C765 C 0.02757 0.97174 0.0893 0.0
C766 C 0.01421 1.00891 0.09214 0.0
C767 C 0.03034 0.9652 0.0819 0.0
C768 C 0.0215 1.02497 0.06472 0.0
H769 H 0.05751 0.89393 0.03419 0.0
H770 H 0.05288 0.90678 0.04699 0.0
H771 H 0.02338 1.04716 0.0541 0.0
H772 H -0.00694 1.06784 0.08927 0.0
H773 H -0.0021 1.05653 0.07645 0.0
H774 H 0.02719 0.91627 0.06921 0.0
C775 C 0.04426 0.9302 0.04345 0.0
C776 C 0.02409 1.01829 0.05732 0.0
C777 C 0.04693 0.92281 0.03607 0.0
C778 C 0.00372 1.03929 0.08733 0.0
C779 C 0.0065 1.03277 0.07994 0.0
C780 C 0.0265 0.94516 0.066 0.0
C781 C 0.03092 0.96758 0.04623 0.0
C782 C 0.02797 0.97492 0.05414 0.0
C783 C 0.01983 0.9956 0.0771 0.0
C784 C 0.02267 0.9885 0.06918 0.0
H785 H 0.01453 1.01357 0.03042 0.0
H786 H 0.00989 1.0265 0.04328 0.0
H787 H 0.03171 0.90466 0.05636 0.0
H788 H 0.03611 0.94791 0.0928 0.0
H789 H 0.04093 0.93654 0.07994 0.0
C790 C 0.59952 2.29921 0.12848 0.0
C791 C 0.59657 2.26124 0.13174 0.0
C792 C 0.6008 2.30069 0.12103 0.0
C793 C 0.60961 2.22653 0.10462 0.0
H794 H 0.5888 2.33693 0.09491 0.0
C795 C 0.60546 2.23206 0.07372 0.0
C796 C 0.60912 2.26915 0.07044 0.0
C797 C 0.60363 2.23143 0.08116 0.0
C798 C 0.59487 2.30589 0.09753 0.0
H799 H 0.59203 2.19565 0.12957 0.0
H800 H 0.59422 2.19826 0.11666 0.0
H801 H 0.58624 2.33551 0.10785 0.0
H802 H 0.61397 2.33449 0.07255 0.0
H803 H 0.61071 2.33345 0.08544 0.0
H804 H 0.61823 2.19691 0.0943 0.0
C805 C 0.59598 2.22658 0.11987 0.0
C806 C 0.59341 2.30508 0.10498 0.0
C807 C 0.59471 2.22509 0.1273 0.0
C808 C 0.61081 2.30566 0.07483 0.0
C809 C 0.60895 2.30505 0.08226 0.0
C810 C 0.61105 2.22733 0.09717 0.0
C811 C 0.59913 2.26428 0.11661 0.0
C812 C 0.60075 2.26537 0.10864 0.0
C813 C 0.60539 2.26788 0.08555 0.0
C814 C 0.6037 2.26701 0.09351 0.0
H815 H 0.60122 2.32751 0.1317 0.0
H816 H 0.60347 2.3301 0.11875 0.0
H817 H 0.61574 2.19549 0.10723 0.0
H818 H 0.6038 2.20358 0.07054 0.0
H819 H 0.60061 2.20249 0.08347 0.0
C820 C 0.18993 1.60164 0.11401 0.0
C821 C 0.17964 1.63929 0.11044 0.0
C822 C 0.19081 1.60182 0.12148 0.0
C823 C 0.18331 1.6782 0.13757 0.0
H824 H 0.18139 1.57114 0.14742 0.0
C825 C 0.19516 1.60924 0.0037 0.0
C826 C 0.20491 1.57065 0.00718 0.0
C827 C 0.17518 1.67714 0.16095 0.0
C828 C 0.18217 1.60121 0.14477 0.0
H829 H 0.16196 1.70651 0.11206 0.0
H830 H 0.16357 1.70685 0.12503 0.0
H831 H 0.18036 1.57117 0.13444 0.0
H832 H 0.22209 1.50303 0.00543 0.0
H833 H 0.20165 1.57152 0.1572 0.0
H834 H 0.18516 1.70821 0.14791 0.0
C835 C 0.17122 1.67737 0.12204 0.0
C836 C 0.18158 1.60121 0.1373 0.0
C837 C 0.17032 1.67717 0.11458 0.0
C838 C 0.21411 1.53305 0.00297 0.0
C839 C 0.19416 1.60097 0.16023 0.0
C840 C 0.18394 1.67818 0.14505 0.0
C841 C 0.18143 1.63966 0.12561 0.0
C842 C 0.18215 1.63968 0.13359 0.0
C843 C 0.18426 1.63933 0.15674 0.0
C844 C 0.18341 1.63966 0.14876 0.0
H845 H 0.19751 1.57209 0.11102 0.0
H846 H 0.19904 1.57239 0.12401 0.0
H847 H 0.18404 1.70826 0.13491 0.0
H848 H 0.18774 1.63867 0.00676 0.0
H849 H 0.16723 1.70713 0.15847 0.0
C850 C 0.5803 0.35309 0.15589 0.0
C851 C 0.56441 0.35534 0.15187 0.0
C852 C 0.57944 0.35828 0.16333 0.0
C853 C 0.56727 0.3369 0.0137 0.0
H854 H 0.60461 0.25815 0.02488 0.0
C855 C 0.56437 0.34061 0.04469 0.0
C856 C 0.58096 0.33625 0.04833 0.0
C857 C 0.56418 0.33317 0.03727 0.0
C858 C 0.59417 0.28082 0.02185 0.0
H859 H 0.53507 0.3656 0.15259 0.0
H860 H 0.53356 0.37466 0.1656 0.0
H861 H 0.60526 0.2493 0.01192 0.0
H862 H 0.61041 0.31914 0.04698 0.0
H863 H 0.61006 0.3073 0.03411 0.0
H864 H 0.55631 0.36886 0.02362 0.0
C865 C 0.54671 0.36895 0.16297 0.0
C866 C 0.59454 0.27569 0.0144 0.0
C867 C 0.54759 0.3634 0.15551 0.0
C868 C 0.59735 0.32344 0.04437 0.0
C869 C 0.59715 0.31607 0.03697 0.0
C870 C 0.56694 0.3422 0.02116 0.0
C871 C 0.58194 0.29895 0.00226 0.0
C872 C 0.58117 0.30383 0.01022 0.0
C873 C 0.58057 0.32109 0.03329 0.0
C874 C 0.58046 0.31441 0.02535 0.0
H875 H 0.59352 0.34639 0.15329 0.0
H876 H 0.61125 0.28923 0.00151 0.0
H877 H 0.55686 0.35949 0.01065 0.0
H878 H 0.55147 0.35078 0.04754 0.0
H879 H 0.55115 0.33683 0.03466 0.0
C880 C 0.76678 0.92559 0.04131 0.0
C881 C 0.75539 0.95807 0.03707 0.0
C882 C 0.76682 0.93141 0.04875 0.0
C883 C 0.75352 1.01797 0.06342 0.0
H884 H 0.75545 0.91559 0.0751 0.0
C885 C 0.73959 1.0374 0.09384 0.0
C886 C 0.7508 1.00571 0.09826 0.0
C887 C 0.74037 1.03117 0.08641 0.0
C888 C 0.7551 0.94446 0.07193 0.0
H889 H 0.73549 1.02289 0.03739 0.0
H890 H 0.7353 1.03262 0.05032 0.0
H891 H 0.75679 0.90593 0.06214 0.0
H892 H 0.77139 0.94204 0.09825 0.0
H893 H 0.7729 0.93143 0.08529 0.0
H894 H 0.75172 1.05655 0.07321 0.0
C895 C 0.74434 1.00272 0.04791 0.0
C896 C 0.7559 0.93891 0.06448 0.0
C897 C 0.74429 0.99689 0.04047 0.0
C898 C 0.76267 0.96735 0.09503 0.0
C899 C 0.76341 0.96104 0.08759 0.0
C900 C 0.75269 1.02353 0.07087 0.0
C901 C 0.75549 0.96992 0.05216 0.0
C902 C 0.75507 0.97562 0.06012 0.0
C903 C 0.75236 0.99302 0.08317 0.0
C904 C 0.75341 0.98689 0.07523 0.0
H905 H 0.77539 0.89507 0.0389 0.0
H906 H 0.77577 0.90568 0.05183 0.0
H907 H 0.75315 1.04689 0.06026 0.0
H908 H 0.73043 1.0676 0.09612 0.0
H909 H 0.73149 1.05625 0.08319 0.0
C910 C 0.31111 0.29572 0.04881 0.0
C911 C 0.31733 0.32992 0.0523 0.0
C912 C 0.31337 0.28782 0.04142 0.0
C913 C 0.3398 0.31019 0.02578 0.0
H914 H 0.30051 0.28276 0.01481 0.0
C915 C 0.32025 0.37655 0.15958 0.0
C916 C 0.31423 0.34266 0.15591 0.0
C917 C 0.3375 0.31555 0.00228 0.0
C918 C 0.31172 0.28989 0.01779 0.0
H919 H 0.33134 0.38165 0.05065 0.0
H920 H 0.33494 0.36854 0.03781 0.0
H921 H 0.29747 0.29329 0.02773 0.0
H922 H 0.3009 0.28934 0.15728 0.0
H923 H 0.31685 0.23251 0.00548 0.0
H924 H 0.35401 0.30699 0.01584 0.0
C925 C 0.32842 0.3475 0.04079 0.0
C926 C 0.30999 0.29589 0.02523 0.0
C927 C 0.32615 0.35541 0.04817 0.0
C928 C 0.30588 0.3155 0.1599 0.0
C929 C 0.32308 0.25459 0.0026 0.0
C930 C 0.34152 0.30425 0.01835 0.0
C931 C 0.32196 0.31378 0.03728 0.0
C932 C 0.32398 0.30628 0.02934 0.0
C933 C 0.32933 0.2881 0.00628 0.0
C934 C 0.32749 0.29416 0.01423 0.0
H935 H 0.30412 0.2756 0.05178 0.0
H936 H 0.30841 0.26117 0.03894 0.0
H937 H 0.35102 0.31734 0.02875 0.0
H938 H 0.32692 0.39785 0.15673 0.0
H939 H 0.34228 0.34208 0.00488 0.0
C940 C 0.44406 1.53607 0.01142 0.0
C941 C 0.44728 1.57107 0.0158 0.0
C942 C 0.44557 1.53665 0.00398 0.0
C943 C 0.44744 1.65374 0.15436 0.0
H944 H 0.41309 1.61383 0.14216 0.0
C945 C 0.44722 1.6741 0.12381 0.0
C946 C 0.44398 1.63943 0.11937 0.0
C947 C 0.44493 1.67402 0.13121 0.0
C948 C 0.42295 1.62457 0.14548 0.0
H949 H 0.45428 1.63472 0.01564 0.0
H950 H 0.45699 1.63563 0.00269 0.0
H951 H 0.40964 1.614 0.1551 0.0
H952 H 0.43573 1.57739 0.11934 0.0
H953 H 0.43184 1.57706 0.13226 0.0
H954 H 0.46085 1.66405 0.14478 0.0
C955 C 0.45352 1.60734 0.00504 0.0
C956 C 0.42095 1.62473 0.15291 0.0
C957 C 0.45196 1.60682 0.01249 0.0
C958 C 0.43818 1.60487 0.12257 0.0
C959 C 0.43593 1.60473 0.12999 0.0
C960 C 0.44947 1.65348 0.14694 0.0
C961 C 0.43112 1.63935 0.16541 0.0
C962 C 0.43315 1.6394 0.15747 0.0
C963 C 0.43936 1.63923 0.13443 0.0
C964 C 0.43724 1.639 0.14237 0.0
H965 H 0.44078 1.5075 0.01375 0.0
H966 H 0.42407 1.57581 0.16555 0.0
H967 H 0.45731 1.66449 0.15768 0.0
H968 H 0.45132 1.7018 0.12155 0.0
H969 H 0.44733 1.70169 0.13441 0.0
C970 C -0.11298 2.23327 0.07819 0.0
C971 C -0.12895 2.25704 0.07477 0.0
C972 C -0.11215 2.23215 0.08567 0.0
C973 C -0.13501 2.29279 0.10203 0.0
H974 H -0.10952 2.18456 0.11144 0.0
C975 C -0.13911 2.27622 0.13263 0.0
C976 C -0.12287 2.25535 0.13617 0.0
C977 C -0.13991 2.2754 0.12516 0.0
C978 C -0.11655 2.21521 0.1089 0.0
H979 H -0.15679 2.2969 0.07657 0.0
H980 H -0.1554 2.29478 0.08951 0.0
H981 H -0.11063 2.18498 0.09844 0.0
H982 H -0.09466 2.2175 0.13451 0.0
H983 H -0.09612 2.21577 0.12154 0.0
H984 H -0.14098 2.32298 0.11248 0.0
C985 C -0.14332 2.27787 0.08646 0.0
C986 C -0.11717 2.21549 0.10143 0.0
C987 C -0.14413 2.27906 0.07901 0.0
C988 C -0.10752 2.23324 0.13201 0.0
C989 C -0.10834 2.23231 0.12454 0.0
C990 C -0.13444 2.29247 0.10949 0.0
C991 C -0.12729 2.25466 0.08991 0.0
C992 C -0.12644 2.25427 0.09788 0.0
C993 C -0.12451 2.25361 0.12101 0.0
C994 C -0.12521 2.25369 0.11304 0.0
H995 H -0.10097 2.21626 0.07511 0.0
H996 H -0.0995 2.21436 0.08811 0.0
H997 H -0.14198 2.32357 0.09951 0.0
H998 H -0.1513 2.29299 0.13563 0.0
H999 H -0.15269 2.29156 0.12263 0.0
C1000 C 0.65983 1.59884 0.13273 0.0
C1001 C 0.66331 1.63714 0.13609 0.0
C1002 C 0.66237 1.59084 0.12533 0.0
C1003 C 0.68529 1.62355 0.10949 0.0
H1004 H 0.65021 1.57682 0.09877 0.0
C1005 C 0.68482 1.61811 0.07851 0.0
C1006 C 0.68129 1.58037 0.07498 0.0
C1007 C 0.6826 1.62463 0.08593 0.0
C1008 C 0.66028 1.58941 0.10168 0.0
H1009 H 0.67279 1.69623 0.13421 0.0
H1010 H 0.67683 1.68282 0.1214 0.0
H1011 H 0.64685 1.58785 0.11168 0.0
H1012 H 0.67219 1.52046 0.07661 0.0
H1013 H 0.66863 1.5314 0.08951 0.0
H1014 H 0.69869 1.62523 0.0995 0.0
C1015 C 0.67226 1.65868 0.12446 0.0
C1016 C 0.65836 1.59571 0.10911 0.0
C1017 C 0.66971 1.66669 0.13184 0.0
C1018 C 0.67525 1.54968 0.07911 0.0
C1019 C 0.673 1.55624 0.08653 0.0
C1020 C 0.6872 1.61728 0.10206 0.0
C1021 C 0.66851 1.62079 0.12107 0.0
C1022 C 0.6708 1.61302 0.11314 0.0
C1023 C 0.67675 1.59368 0.09007 0.0
C1024 C 0.6747 1.60023 0.09803 0.0
H1025 H 0.65476 1.57544 0.13578 0.0
H1026 H 0.65955 1.56098 0.12296 0.0
H1027 H 0.69536 1.63618 0.11239 0.0
H1028 H 0.68967 1.6423 0.07556 0.0
H1029 H 0.6854 1.65418 0.08842 0.0
C1030 C 0.08936 0.35945 0.09275 0.0
C1031 C 0.08485 0.32338 0.09603 0.0
C1032 C 0.09139 0.35971 0.08532 0.0
C1033 C 0.09912 0.2849 0.06899 0.0
H1034 H 0.08053 0.3961 0.05921 0.0
C1035 C 0.09525 0.29171 0.03802 0.0
C1036 C 0.0992 0.32862 0.03479 0.0
C1037 C 0.09374 0.29048 0.04547 0.0
C1038 C 0.08602 0.3648 0.06185 0.0
H1039 H 0.07867 0.2595 0.09392 0.0
H1040 H 0.08226 0.2599 0.08103 0.0
H1041 H 0.07764 0.39526 0.07214 0.0
H1042 H 0.10528 0.39251 0.03698 0.0
H1043 H 0.10267 0.39035 0.04988 0.0
H1044 H 0.10749 0.25445 0.05869 0.0
C1045 C 0.08454 0.28775 0.08421 0.0
C1046 C 0.08435 0.36433 0.06929 0.0
C1047 C 0.08249 0.28751 0.09164 0.0
C1048 C 0.10182 0.36394 0.03924 0.0
C1049 C 0.10032 0.36271 0.04667 0.0
C1050 C 0.10079 0.28537 0.06155 0.0
C1051 C 0.08897 0.32389 0.08093 0.0
C1052 C 0.09088 0.32438 0.07298 0.0
C1053 C 0.09616 0.3261 0.04991 0.0
C1054 C 0.09429 0.32535 0.05786 0.0
H1055 H 0.09155 0.38738 0.09594 0.0
H1056 H 0.09509 0.38783 0.08302 0.0
H1057 H 0.10456 0.2536 0.07163 0.0
H1058 H 0.09294 0.26409 0.03479 0.0
H1059 H 0.09031 0.26193 0.04774 0.0
C1060 C 0.51063 1.00767 0.05362 0.0
C1061 C 0.51384 0.96873 0.05764 0.0
C1062 C 0.51057 1.00495 0.04615 0.0
C1063 C 0.5053 0.93143 0.03075 0.0
H1064 H 0.52881 1.00724 0.02027 0.0
C1065 C 0.49297 0.98512 0.16456 0.0
C1066 C 0.49023 1.02546 0.16092 0.0
C1067 C 0.51364 0.91758 0.0073 0.0
C1068 C 0.52199 0.98616 0.02309 0.0
H1069 H 0.51924 0.89632 0.0569 0.0
H1070 H 0.51917 0.89155 0.04385 0.0
H1071 H 0.52916 1.00991 0.03326 0.0
H1072 H 0.4874 1.09687 0.16235 0.0
H1073 H 0.50864 1.02923 0.01056 0.0
H1074 H 0.49791 0.9081 0.02058 0.0
C1075 C 0.51664 0.92427 0.0465 0.0
C1076 C 0.52221 0.98768 0.03056 0.0
C1077 C 0.51683 0.92697 0.05398 0.0
C1078 C 0.48926 1.06522 0.16495 0.0
C1079 C 0.5099 0.99769 0.00767 0.0
C1080 C 0.50501 0.93005 0.02327 0.0
C1081 C 0.51363 0.96322 0.04248 0.0
C1082 C 0.51377 0.96057 0.0345 0.0
C1083 C 0.51235 0.95751 0.01134 0.0
C1084 C 0.51325 0.95762 0.01932 0.0
H1085 H 0.50849 1.04036 0.05624 0.0
H1086 H 0.508 1.0357 0.04325 0.0
H1087 H 0.4985 0.91042 0.0336 0.0
H1088 H 0.49364 0.95388 0.16167 0.0
H1089 H 0.51575 0.88587 0.0099 0.0
C1090 C 0.14743 2.25628 0.0089 0.0
C1091 C 0.13382 2.24648 0.01319 0.0
C1092 C 0.1476 2.24914 0.00148 0.0
C1093 C 0.09845 2.30204 0.15102 0.0
H1094 H 0.14435 2.25595 0.14087 0.0
C1095 C 0.10085 2.2492 0.12106 0.0
C1096 C 0.11432 2.25895 0.11669 0.0
C1097 C 0.10112 2.25554 0.12848 0.0
C1098 C 0.1314 2.26937 0.14359 0.0
H1099 H 0.10986 2.22056 0.01291 0.0
H1100 H 0.09085 2.2754 0.16472 0.0
H1101 H 0.14433 2.26723 0.1538 0.0
H1102 H 0.13869 2.28317 0.11683 0.0
H1103 H 0.13915 2.29434 0.12977 0.0
H1104 H 0.08551 2.30434 0.14083 0.0
C1105 C 0.12057 2.2221 0.00238 0.0
C1106 C 0.13139 2.27583 0.15103 0.0
C1107 C 0.12041 2.22918 0.00981 0.0
C1108 C 0.1282 2.27481 0.12 0.0
C1109 C 0.12846 2.28121 0.12745 0.0
C1110 C 0.09846 2.29564 0.14359 0.0
C1111 C 0.11486 2.29923 0.16282 0.0
C1112 C 0.1149 2.2922 0.15487 0.0
C1113 C 0.11487 2.27185 0.1318 0.0
C1114 C 0.11493 2.2791 0.13975 0.0
H1115 H 0.1578 2.27043 0.01127 0.0
H1116 H 0.13881 2.32509 0.1631 0.0
H1117 H 0.0855 2.31546 0.15375 0.0
H1118 H 0.09016 2.23602 0.11874 0.0
H1119 H 0.09064 2.24701 0.13163 0.0
C1120 C -0.05803 1.73032 0.02998 0.0
C1121 C -0.05935 1.71413 0.02295 0.0
C1122 C -0.06201 1.77673 0.03153 0.0
C1123 C -0.06346 1.8823 0.02267 0.0
H1124 H -0.09755 1.94309 0.03744 0.0
C1125 C -0.10111 2.06611 0.02072 0.0
C1126 C -0.10216 2.09528 0.02671 0.0
C1127 C -0.09466 2.01987 0.02134 0.0
C1128 C -0.08777 1.92648 0.03338 0.0
H1129 H -0.06632 1.73455 0.01209 0.0
H1130 H -0.07307 1.81414 0.01478 0.0
H1131 H -0.08818 1.86062 0.03664 0.0
H1132 H -0.09769 2.09814 0.03812 0.0
H1133 H -0.08647 2.01637 0.0392 0.0
H1134 H -0.06336 1.94751 0.01925 0.0
C1135 C -0.06879 1.79127 0.01909 0.0
C1136 C -0.08241 1.87936 0.03292 0.0
C1137 C -0.06499 1.74538 0.01756 0.0
C1138 C -0.09702 2.07666 0.0334 0.0
C1139 C -0.09064 2.02991 0.03402 0.0
C1140 C -0.06878 1.92903 0.02312 0.0
C1141 C -0.06715 1.80761 0.02606 0.0
C1142 C -0.07067 1.85687 0.0274 0.0
C1143 C -0.08909 2.00115 0.02796 0.0
C1144 C -0.08147 1.95173 0.02832 0.0
H1145 H -0.05377 1.70723 0.03426 0.0
H1146 H -0.06067 1.78842 0.03696 0.0
H1147 H -0.05409 1.86597 0.01846 0.0
H1148 H -0.10502 2.07891 0.01548 0.0
H1149 H -0.09399 1.99862 0.01659 0.0
C1150 C 0.31481 2.25327 0.06296 0.0
C1151 C 0.3269 2.25207 0.06869 0.0
C1152 C 0.29703 2.25037 0.06412 0.0
C1153 C 0.26047 2.2646 0.07759 0.0
H1154 H 0.24101 2.1969 0.06324 0.0
C1155 C 0.18571 2.23855 0.07646 0.0
C1156 C 0.17707 2.25487 0.07007 0.0
C1157 C 0.20441 2.23509 0.07744 0.0
C1158 C 0.24631 2.21557 0.06733 0.0
H1159 H 0.32951 2.24799 0.08018 0.0
H1160 H 0.29821 2.2425 0.08221 0.0
H1161 H 0.2732 2.19586 0.06286 0.0
H1162 H 0.18135 2.28042 0.05973 0.0
H1163 H 0.21369 2.27339 0.0614 0.0
H1164 H 0.2332 2.28454 0.08196 0.0
C1165 C 0.30263 2.24588 0.07681 0.0
C1166 C 0.2647 2.21532 0.06709 0.0
C1167 C 0.32055 2.24896 0.07565 0.0
C1168 C 0.18746 2.26788 0.06473 0.0
C1169 C 0.20604 2.26371 0.06566 0.0
C1170 C 0.24198 2.26447 0.07787 0.0
C1171 C 0.29076 2.24585 0.07103 0.0
C1172 C 0.27188 2.24115 0.07205 0.0
C1173 C 0.21473 2.24699 0.07198 0.0
C1174 C 0.23467 2.24107 0.07259 0.0
H1175 H 0.31907 2.25631 0.05753 0.0
H1176 H 0.28814 2.25181 0.05956 0.0
H1177 H 0.26556 2.28486 0.08149 0.0
H1178 H 0.17807 2.22837 0.08068 0.0
H1179 H 0.21089 2.22209 0.08236 0.0
C1180 C 0.25653 0.84474 0.11252 0.0
C1181 C 0.26005 0.85666 0.10557 0.0
C1182 C 0.26001 0.79931 0.11426 0.0
C1183 C 0.26341 0.68938 0.10553 0.0
H1184 H 0.29412 0.63495 0.12112 0.0
C1185 C 0.30364 0.50797 0.10376 0.0
C1186 C 0.30203 0.47909 0.10923 0.0
C1187 C 0.29687 0.5542 0.10465 0.0
C1188 C 0.28522 0.64987 0.11684 0.0
H1189 H 0.27061 0.82971 0.09512 0.0
H1190 H 0.27643 0.75188 0.09814 0.0
H1191 H 0.28497 0.71721 0.12025 0.0
H1192 H 0.29265 0.4769 0.1201 0.0
H1193 H 0.28089 0.55898 0.12169 0.0
H1194 H 0.26424 0.62262 0.1019 0.0
C1195 C 0.2708 0.77733 0.10222 0.0
C1196 C 0.28 0.69683 0.11634 0.0
C1197 C 0.2675 0.82222 0.10051 0.0
C1198 C 0.29406 0.49813 0.11577 0.0
C1199 C 0.28735 0.54499 0.11668 0.0
C1200 C 0.2686 0.64288 0.10602 0.0
C1201 C 0.26683 0.76521 0.10906 0.0
C1202 C 0.26962 0.71684 0.11051 0.0
C1203 C 0.28835 0.57328 0.11105 0.0
C1204 C 0.28011 0.62251 0.11152 0.0
H1205 H 0.25085 0.87038 0.11656 0.0
H1206 H 0.25689 0.79086 0.11959 0.0
H1207 H 0.25511 0.70386 0.10106 0.0
H1208 H 0.30985 0.49494 0.09867 0.0
H1209 H 0.29813 0.5752 0.10026 0.0
C1210 C 0.8797 0.32786 0.14699 0.0
C1211 C 0.86463 0.35238 0.15105 0.0
C1212 C 0.89744 0.32823 0.14891 0.0
C1213 C 0.9229 0.40019 0.15657 0.0
H1214 H -0.02348 0.29254 0.15676 0.0
C1215 C 0.01059 0.39277 0.14884 0.0
C1216 C 0.02473 0.36933 0.1532 0.0
C1217 C -0.00753 0.39271 0.15017 0.0
C1218 C -0.03458 0.32287 0.15683 0.0
H1219 H 0.85626 0.39594 0.16038 0.0
H1220 H 0.88754 0.39802 0.16362 0.0
H1221 H 0.93156 0.28625 0.15634 0.0
H1222 H 0.03098 0.32779 0.16245 0.0
H1223 H -0.00081 0.32645 0.16463 0.0
H1224 H -0.0432 0.43672 0.15661 0.0
C1225 C 0.88549 0.37791 0.15902 0.0
C1226 C 0.93399 0.31927 0.15656 0.0
C1227 C 0.86767 0.3766 0.15718 0.0
C1228 C 0.02034 0.34632 0.15901 0.0
C1229 C 0.00221 0.34542 0.16025 0.0
C1230 C -0.04566 0.40377 0.1567 0.0
C1231 C 0.90051 0.35393 0.15485 0.0
C1232 C 0.91929 0.35786 0.15629 0.0
C1233 C -0.01188 0.36847 0.15581 0.0
C1234 C -0.03093 0.3651 0.15669 0.0
H1235 H 0.87774 0.30873 0.14225 0.0
H1236 H 0.90873 0.30979 0.14557 0.0
H1237 H 0.91182 0.43043 0.15631 0.0
H1238 H 0.01353 0.41097 0.14434 0.0
H1239 H -0.01808 0.41039 0.14662 0.0
C1240 C 0.03226 0.85448 0.13221 0.0
C1241 C 0.0293 0.87331 0.13918 0.0
C1242 C 0.03883 0.8078 0.13109 0.0
C1243 C 0.06485 0.70775 0.14024 0.0
H1244 H 0.03865 0.6386 0.1288 0.0
C1245 C 0.06612 0.52924 0.14677 0.0
C1246 C 0.06861 0.49587 0.14132 0.0
C1247 C 0.06343 0.57415 0.14515 0.0
C1248 C 0.04633 0.65749 0.1319 0.0
H1249 H 0.03095 0.85757 0.15042 0.0
H1250 H 0.04239 0.77742 0.14846 0.0
H1251 H 0.03002 0.72087 0.12832 0.0
H1252 H 0.07001 0.48385 0.12985 0.0
H1253 H 0.06493 0.56341 0.12702 0.0
H1254 H 0.08062 0.64507 0.14406 0.0
C1255 C 0.03973 0.79842 0.14386 0.0
C1256 C 0.0414 0.70449 0.13162 0.0
C1257 C 0.03302 0.84453 0.14497 0.0
C1258 C 0.06818 0.50875 0.13417 0.0
C1259 C 0.06522 0.55418 0.13255 0.0
C1260 C 0.06974 0.66111 0.14052 0.0
C1261 C 0.04285 0.77945 0.13693 0.0
C1262 C 0.05017 0.73007 0.13601 0.0
C1263 C 0.06302 0.58723 0.13804 0.0
C1264 C 0.06007 0.63555 0.13657 0.0
H1265 H 0.02949 0.87571 0.12764 0.0
H1266 H 0.04108 0.79396 0.12569 0.0
H1267 H 0.07207 0.72656 0.14359 0.0
H1268 H 0.06638 0.52078 0.15233 0.0
H1269 H 0.06147 0.59886 0.14951 0.0
C1270 C -0.17357 2.23121 0.00856 0.0
C1271 C -0.16876 2.23599 0.01574 0.0
C1272 C -0.19186 2.23443 0.00671 0.0
C1273 C -0.23864 2.28299 0.01341 0.0
H1274 H 0.734 2.18471 0.00363 0.0
C1275 C 0.68059 2.24365 0.01918 0.0
C1276 C 0.66981 2.23386 0.01356 0.0
C1277 C 0.69813 2.24788 0.01789 0.0
C1278 C 0.73768 2.21286 0.00623 0.0
H1279 H -0.1795 2.24847 0.02657 0.0
H1280 H -0.2109 2.25443 0.02335 0.0
H1281 H -0.22024 2.18535 0.00404 0.0
H1282 H 0.66919 2.22039 0.00216 0.0
H1283 H 0.68105 2.29428 0.16465 0.0
H1284 H 0.71959 2.30954 0.0159 0.0
C1285 C -0.20068 2.2482 0.01914 0.0
C1286 C -0.23042 2.21323 0.00646 0.0
C1287 C -0.18258 2.24439 0.02098 0.0
C1288 C 0.67713 2.22807 0.0066 0.0
C1289 C 0.69494 2.23177 0.00532 0.0
C1290 C 0.72961 2.28262 0.01318 0.0
C1291 C -0.20559 2.24342 0.012 0.0
C1292 C -0.22509 2.24741 0.01032 0.0
C1293 C 0.70552 2.24217 0.01097 0.0
C1294 C 0.72435 2.24665 0.00985 0.0
H1295 H -0.16324 2.22464 0.0044 0.0
H1296 H -0.1953 2.2305 0.00117 0.0
H1297 H -0.23494 2.31013 0.01632 0.0
H1298 H 0.67546 2.24844 0.02461 0.0
H1299 H 0.70604 2.25517 0.02238 0.0
C1300 C 0.16077 1.76609 0.05623 0.0
C1301 C 0.17719 1.73782 0.05352 0.0
C1302 C 0.15668 1.81235 0.05546 0.0
C1303 C 0.1783 1.90436 0.05309 0.0
H1304 H 0.12794 1.97277 0.0509 0.0
C1305 C 0.15456 2.10048 0.05431 0.0
C1306 C 0.1396 2.11816 0.05892 0.0
C1307 C 0.15983 2.05449 0.05248 0.0
C1308 C 0.14208 1.95416 0.05151 0.0
H1309 H 0.202 1.7362 0.04768 0.0
H1310 H 0.19476 1.81771 0.0463 0.0
H1311 H 0.13589 1.89137 0.04942 0.0
H1312 H 0.1183 2.10131 0.0651 0.0
H1313 H 0.12733 2.0218 0.06186 0.0
H1314 H 0.18433 1.96757 0.05528 0.0
C1315 C 0.18514 1.80371 0.04907 0.0
C1316 C 0.14665 1.90748 0.05067 0.0
C1317 C 0.18922 1.75702 0.04982 0.0
C1318 C 0.12992 2.08895 0.06156 0.0
C1319 C 0.13501 2.04333 0.05966 0.0
C1320 C 0.17372 1.95127 0.05387 0.0
C1321 C 0.16885 1.83196 0.05195 0.0
C1322 C 0.1647 1.88181 0.05168 0.0
C1323 C 0.15003 2.02548 0.05511 0.0
C1324 C 0.15546 1.97653 0.05331 0.0
H1325 H 0.15112 1.75263 0.0591 0.0
H1326 H 0.14417 1.83291 0.05785 0.0
H1327 H 0.19232 1.88569 0.05394 0.0
H1328 H 0.16233 2.12204 0.05219 0.0
H1329 H 0.17144 2.04169 0.04895 0.0
C1330 C 0.51423 0.33618 0.09079 0.0
C1331 C 0.52114 0.3484 0.0973 0.0
C1332 C 0.49572 0.33671 0.09016 0.0
C1333 C 0.4507 0.38617 0.09877 0.0
H1334 H 0.43616 0.28587 0.08992 0.0
C1335 C 0.3817 0.35368 0.10494 0.0
C1336 C 0.37144 0.3409 0.09939 0.0
C1337 C 0.39957 0.35601 0.10377 0.0
C1338 C 0.43998 0.31445 0.09231 0.0
H1339 H 0.51387 0.37074 0.10825 0.0
H1340 H 0.48193 0.37154 0.10716 0.0
H1341 H 0.46828 0.28761 0.08952 0.0
H1342 H 0.37219 0.31992 0.08823 0.0
H1343 H 0.40372 0.32382 0.08619 0.0
H1344 H 0.42261 0.41264 0.10169 0.0
C1345 C 0.49069 0.362 0.1025 0.0
C1346 C 0.45837 0.31545 0.09208 0.0
C1347 C 0.5091 0.36124 0.10314 0.0
C1348 C 0.37967 0.32999 0.09262 0.0
C1349 C 0.39774 0.33205 0.09146 0.0
C1350 C 0.43242 0.38516 0.099 0.0
C1351 C 0.48372 0.34988 0.09601 0.0
C1352 C 0.464 0.35081 0.09548 0.0
C1353 C 0.40781 0.34554 0.09702 0.0
C1354 C 0.42689 0.34876 0.09594 0.0
H1355 H 0.52312 0.32602 0.08618 0.0
H1356 H 0.49077 0.32734 0.08507 0.0
H1357 H 0.45448 0.41444 0.10128 0.0
H1358 H 0.37594 0.36221 0.11024 0.0
H1359 H 0.40703 0.36567 0.10821 0.0
C1360 C 0.80085 0.51433 0.13423 0.0
C1361 C 0.80035 0.4942 0.14083 0.0
C1362 C 0.79575 0.56128 0.13377 0.0
C1363 C 0.76685 0.66154 0.14274 0.0
H1364 H 0.79866 0.72845 0.13497 0.0
C1365 C 0.75596 0.84716 0.15 0.0
C1366 C 0.75876 0.87698 0.14488 0.0
C1367 C 0.76086 0.801 0.1486 0.0
C1368 C 0.78946 0.71031 0.13704 0.0
H1369 H 0.79405 0.50784 0.1521 0.0
H1370 H 0.78492 0.58887 0.15125 0.0
H1371 H 0.80744 0.6462 0.13399 0.0
H1372 H 0.76926 0.88117 0.13425 0.0
H1373 H 0.77764 0.79989 0.13174 0.0
H1374 H 0.74884 0.72483 0.1458 0.0
C1375 C 0.78932 0.56854 0.14645 0.0
C1376 C 0.79452 0.66323 0.13649 0.0
C1377 C 0.79467 0.522 0.14693 0.0
C1378 C 0.7669 0.85917 0.13832 0.0
C1379 C 0.77175 0.81259 0.13689 0.0
C1380 C 0.76172 0.70832 0.14323 0.0
C1381 C 0.78971 0.58876 0.13987 0.0
C1382 C 0.78348 0.63842 0.13952 0.0
C1383 C 0.76858 0.78296 0.142 0.0
C1384 C 0.7732 0.73339 0.1406 0.0
H1385 H 0.80521 0.49387 0.12944 0.0
H1386 H 0.79615 0.57606 0.12863 0.0
H1387 H 0.75792 0.64331 0.14501 0.0
H1388 H 0.75 0.85938 0.15516 0.0
H1389 H 0.75869 0.77937 0.15275 0.0
C1390 C 0.40238 2.09461 0.05187 0.0
C1391 C 0.39663 2.11318 0.0587 0.0
C1392 C 0.40873 2.04782 0.05077 0.0
C1393 C 0.42959 1.94703 0.06074 0.0
H1394 H 0.40902 1.87828 0.04692 0.0
C1395 C 0.42785 1.76932 0.06587 0.0
C1396 C 0.43465 1.73514 0.06069 0.0
C1397 C 0.425 1.81426 0.06427 0.0
C1398 C 0.41515 1.89711 0.0507 0.0
H1399 H 0.39269 2.09662 0.06966 0.0
H1400 H 0.40371 2.01642 0.06774 0.0
H1401 H 0.40081 1.96075 0.04653 0.0
H1402 H 0.44307 1.72205 0.04961 0.0
H1403 H 0.43772 1.8018 0.04677 0.0
H1404 H 0.44324 1.88419 0.06513 0.0
C1405 C 0.40352 2.03772 0.06325 0.0
C1406 C 0.41047 1.94419 0.05048 0.0
C1407 C 0.39709 2.08393 0.06433 0.0
C1408 C 0.43788 1.74746 0.05374 0.0
C1409 C 0.43482 1.793 0.05211 0.0
C1410 C 0.43422 1.9004 0.06096 0.0
C1411 C 0.40964 2.01904 0.0565 0.0
C1412 C 0.41711 1.96959 0.05569 0.0
C1413 C 0.42871 1.82671 0.05743 0.0
C1414 C 0.42652 1.875 0.05613 0.0
H1415 H 0.40216 2.11614 0.0474 0.0
H1416 H 0.41332 2.03424 0.0455 0.0
H1417 H 0.43519 1.96566 0.06474 0.0
H1418 H 0.42499 1.76156 0.07127 0.0
H1419 H 0.41996 1.83951 0.06845 0.0
C1420 C 0.67782 1.7441 0.0238 0.0
C1421 C 0.67138 1.71695 0.02848 0.0
C1422 C 0.67381 1.79038 0.02499 0.0
C1423 C 0.64029 1.88596 0.03316 0.0
H1424 H 0.67729 1.94736 0.02878 0.0
C1425 C 0.62574 2.08149 0.0319 0.0
C1426 C 0.63238 2.09551 0.02562 0.0
C1427 C 0.63091 2.03609 0.03369 0.0
C1428 C 0.6668 1.93077 0.03004 0.0
H1429 H 0.65576 1.71737 0.03816 0.0
H1430 H 0.64851 1.79921 0.04021 0.0
H1431 H 0.68579 1.86598 0.02949 0.0
H1432 H 0.64994 2.07287 0.01637 0.0
H1433 H 0.65898 1.99467 0.01951 0.0
H1434 H 0.6212 1.95108 0.03347 0.0
C1435 C 0.65674 1.78416 0.03562 0.0
C1436 C 0.67167 1.88413 0.03045 0.0
C1437 C 0.66097 1.73736 0.03447 0.0
C1438 C 0.64451 2.06339 0.02125 0.0
C1439 C 0.64983 2.01846 0.02308 0.0
C1440 C 0.63541 1.93289 0.03276 0.0
C1441 C 0.66314 1.81116 0.03087 0.0
C1442 C 0.65838 1.86097 0.03176 0.0
C1443 C 0.64307 2.00412 0.0293 0.0
C1444 C 0.64852 1.95561 0.03095 0.0
H1445 H 0.68593 1.72964 0.01915 0.0
H1446 H 0.67873 1.81009 0.02116 0.0
H1447 H 0.62973 1.86913 0.03416 0.0
H1448 H 0.61631 2.10538 0.03537 0.0
H1449 H 0.6255 2.02603 0.03853 0.0
C1450 C 0.55438 0.51498 0.10072 0.0
C1451 C 0.56027 0.48386 0.1061 0.0
C1452 C 0.55013 0.56096 0.10226 0.0
C1453 C 0.53602 0.64841 0.11625 0.0
H1454 H 0.55397 0.71911 0.10267 0.0
C1455 C 0.52071 0.8452 0.11791 0.0
C1456 C 0.51592 0.86612 0.11137 0.0
C1457 C 0.5271 0.79825 0.11816 0.0
C1458 C 0.54877 0.69995 0.1065 0.0
H1459 H 0.56585 0.47726 0.11742 0.0
H1460 H 0.55819 0.55845 0.12013 0.0
H1461 H 0.56344 0.6377 0.10157 0.0
H1462 H 0.5137 0.85359 0.09998 0.0
H1463 H 0.52463 0.77286 0.10043 0.0
H1464 H 0.52098 0.71125 0.12108 0.0
C1465 C 0.55698 0.54667 0.11469 0.0
C1466 C 0.55423 0.65325 0.10588 0.0
C1467 C 0.56141 0.50023 0.11314 0.0
C1468 C 0.51737 0.83898 0.10512 0.0
C1469 C 0.52377 0.79247 0.10536 0.0
C1470 C 0.5305 0.69548 0.11688 0.0
C1471 C 0.55155 0.5775 0.10923 0.0
C1472 C 0.54753 0.62687 0.11061 0.0
C1473 C 0.52896 0.77144 0.11185 0.0
C1474 C 0.53641 0.72174 0.11187 0.0
H1475 H 0.5532 0.50398 0.09524 0.0
H1476 H 0.54566 0.58372 0.09794 0.0
H1477 H 0.53063 0.62898 0.11998 0.0
H1478 H 0.51974 0.86504 0.12283 0.0
H1479 H 0.53098 0.78304 0.12324 0.0
C1480 C 0.80364 1.0473 0.15015 0.0
C1481 C 0.79562 1.02238 0.1547 0.0
C1482 C 0.82182 1.04794 0.15094 0.0
C1483 C 0.86594 0.98454 0.15818 0.0
H1484 H -0.10678 1.09189 0.15311 0.0
C1485 C -0.04545 1.00306 0.15697 0.0
C1486 C -0.04105 1.0156 0.15019 0.0
C1487 C -0.06357 1.00441 0.15872 0.0
C1488 C -0.11046 1.06177 0.15458 0.0
H1489 H 0.80057 0.97891 0.16374 0.0
H1490 H 0.83258 0.98056 0.1652 0.0
H1491 H 0.8476 1.09443 0.15443 0.0
H1492 H -0.05224 1.0401 0.13998 0.0
H1493 H -0.0838 1.04369 0.14312 0.0
H1494 H -0.09185 0.95218 0.15831 0.0
C1495 C 0.82467 0.99925 0.16096 0.0
C1496 C 0.85768 1.06305 0.1553 0.0
C1497 C 0.8063 0.99848 0.16015 0.0
C1498 C -0.05514 1.03002 0.14524 0.0
C1499 C -0.07322 1.0323 0.14704 0.0
C1500 C -0.10209 0.98348 0.15757 0.0
C1501 C 0.83264 1.02401 0.15635 0.0
C1502 C 0.85229 1.02406 0.15684 0.0
C1503 C -0.07761 1.01939 0.15378 0.0
C1504 C -0.0969 1.02175 0.15553 0.0
H1505 H 0.79599 1.06598 0.14585 0.0
H1506 H 0.82751 1.06645 0.14716 0.0
H1507 H 0.86233 0.95384 0.15934 0.0
H1508 H -0.03486 0.99162 0.16088 0.0
H1509 H -0.06665 0.99433 0.16395 0.0
C1510 C 0.24756 1.62567 0.07179 0.0
C1511 C 0.24407 1.60333 0.0655 0.0
C1512 C 0.26557 1.62525 0.07366 0.0
C1513 C 0.31375 1.56245 0.06958 0.0
H1514 H 0.3261 1.67089 0.07621 0.0
C1515 C 0.3837 1.59308 0.06488 0.0
C1516 C 0.39298 1.60581 0.07074 0.0
C1517 C 0.36554 1.5918 0.06551 0.0
C1518 C 0.32279 1.64021 0.07447 0.0
H1519 H 0.25685 1.56387 0.0562 0.0
H1520 H 0.28769 1.56391 0.05936 0.0
H1521 H 0.2939 1.67064 0.07496 0.0
H1522 H 0.39035 1.62777 0.08187 0.0
H1523 H 0.35809 1.62668 0.08292 0.0
H1524 H 0.34257 1.5328 0.06871 0.0
C1525 C 0.27674 1.58076 0.06297 0.0
C1526 C 0.30437 1.63999 0.07377 0.0
C1527 C 0.25892 1.58104 0.06113 0.0
C1528 C 0.38357 1.61769 0.07727 0.0
C1529 C 0.36514 1.61725 0.07787 0.0
C1530 C 0.33204 1.56286 0.0702 0.0
C1531 C 0.28039 1.60245 0.06929 0.0
C1532 C 0.29966 1.60145 0.07109 0.0
C1533 C 0.35606 1.60386 0.072 0.0
C1534 C 0.33675 1.60203 0.07247 0.0
H1535 H 0.23645 1.6432 0.07527 0.0
H1536 H 0.26789 1.64227 0.07857 0.0
H1537 H 0.31066 1.53178 0.0677 0.0
H1538 H 0.39054 1.58351 0.05978 0.0
H1539 H 0.3588 1.5817 0.06089 0.0
C1540 C 0.31373 0.96605 0.10137 0.0
C1541 C 0.30161 0.98253 0.09581 0.0
C1542 C 0.33223 0.96447 0.1008 0.0
C1543 C 0.36436 1.01686 0.09233 0.0
H1544 H 0.40021 0.91272 0.09911 0.0
C1545 C 0.4421 1.00839 0.09509 0.0
C1546 C 0.44952 0.99234 0.10168 0.0
C1547 C 0.42468 1.00465 0.09305 0.0
C1548 C 0.39039 0.94211 0.0972 0.0
H1549 H 0.2995 1.0104 0.08528 0.0
H1550 H 0.33202 1.0082 0.08434 0.0
H1551 H 0.36838 0.91106 0.09801 0.0
H1552 H 0.44455 0.95888 0.1112 0.0
H1553 H 0.41463 0.95264 0.10769 0.0
H1554 H 0.38636 1.04849 0.09179 0.0
C1555 C 0.32707 0.99632 0.08912 0.0
C1556 C 0.37215 0.94112 0.09656 0.0
C1557 C 0.3085 0.99736 0.08964 0.0
C1558 C 0.43933 0.97179 0.10609 0.0
C1559 C 0.42215 0.96779 0.10405 0.0
C1560 C 0.38267 1.01794 0.09299 0.0
C1561 C 0.33914 0.97971 0.09469 0.0
C1562 C 0.35882 0.97891 0.09433 0.0
C1563 C 0.41453 0.98424 0.09752 0.0
C1564 C 0.39579 0.98103 0.09566 0.0
H1565 H 0.30893 0.95429 0.10619 0.0
H1566 H 0.3411 0.95207 0.10523 0.0
H1567 H 0.35438 1.04654 0.0906 0.0
H1568 H 0.44957 1.02448 0.09157 0.0
H1569 H 0.41919 1.01757 0.08798 0.0
C1570 C -0.10697 1.56932 0.00767 0.0
C1571 C -0.0999 1.58253 0.01409 0.0
C1572 C -0.12557 1.57053 0.00714 0.0
C1573 C -0.17037 1.62293 0.01574 0.0
H1574 H 0.80121 1.52072 0.00787 0.0
C1575 C 0.74774 1.59161 0.02314 0.0
C1576 C 0.73712 1.57788 0.01781 0.0
C1577 C 0.76551 1.59376 0.0217 0.0
C1578 C 0.80515 1.54981 0.00998 0.0
H1579 H -0.10698 1.60759 0.02494 0.0
H1580 H -0.13904 1.60956 0.024 0.0
H1581 H -0.15325 1.52208 0.00707 0.0
H1582 H 0.73712 1.55502 0.00676 0.0
H1583 H 0.76849 1.55849 0.00425 0.0
H1584 H 0.78827 1.65022 0.01882 0.0
C1585 C -0.13035 1.59868 0.01935 0.0
C1586 C -0.16304 1.55061 0.00952 0.0
C1587 C -0.11187 1.59722 0.0199 0.0
C1588 C 0.74489 1.56584 0.01098 0.0
C1589 C 0.76286 1.56766 0.00955 0.0
C1590 C 0.79794 1.6221 0.01621 0.0
C1591 C -0.13748 1.58541 0.01297 0.0
C1592 C -0.15723 1.58667 0.01258 0.0
C1593 C 0.77329 1.58209 0.01489 0.0
C1594 C 0.79226 1.58502 0.01351 0.0
H1595 H -0.09813 1.55772 0.00309 0.0
H1596 H -0.13066 1.56022 0.00214 0.0
H1597 H -0.16644 1.6517 0.018 0.0
H1598 H 0.74231 1.60109 0.02847 0.0
H1599 H 0.77326 1.60423 0.02597 0.0
C1600 C -0.02972 1.40385 0.01373 0.0
C1601 C -0.03349 1.44047 0.00921 0.0
C1602 C -0.02518 1.35979 0.01086 0.0
C1603 C -0.02851 1.36224 0.15853 0.0
H1604 H -0.02137 1.19827 0.00365 0.0
C1605 C -0.0162 1.1812 0.1463 0.0
C1606 C -0.00688 1.14715 0.15077 0.0
C1607 C -0.02285 1.22539 0.14898 0.0
C1608 C -0.03716 1.29219 0.16557 0.0
H1609 H -0.05569 1.52679 0.16288 0.0
H1610 H -0.04865 1.45077 0.15793 0.0
H1611 H -0.0313 1.27468 0.00865 0.0
H1612 H 0.0023 1.1327 0.16163 0.0
H1613 H 0.00976 1.14207 0.00156 0.0
H1614 H -0.01538 1.31236 0.15067 0.0
C1615 C -0.04836 1.4555 0.16367 0.0
C1616 C -0.02345 1.26885 0.00373 0.0
C1617 C -0.03327 1.43214 0.00179 0.0
C1618 C -0.00468 1.15811 0.15801 0.0
C1619 C -0.01159 1.20193 0.1607 0.0
C1620 C -0.02319 1.31854 0.15559 0.0
C1621 C -0.02463 1.35138 0.00341 0.0
C1622 C -0.03838 1.37173 0.16501 0.0
C1623 C -0.02064 1.23614 0.15622 0.0
C1624 C -0.02731 1.28297 0.15911 0.0
H1625 H -0.02971 1.4092 0.01946 0.0
H1626 H -0.02166 1.3324 0.0145 0.0
H1627 H -0.02448 1.38838 0.15576 0.0
H1628 H -0.01812 1.17384 0.14071 0.0
H1629 H -0.02985 1.25111 0.14541 0.0
C1630 C 0.44792 2.20068 0.05754 0.0
C1631 C 0.43502 2.24269 0.05779 0.0
C1632 C 0.46468 2.19505 0.05398 0.0
C1633 C 0.49693 2.25634 0.04791 0.0
H1634 H 0.50989 2.16655 0.03256 0.0
C1635 C 0.55178 2.26536 0.02765 0.0
C1636 C 0.56415 2.22551 0.0252 0.0
C1637 C 0.53619 2.26426 0.03149 0.0
C1638 C 0.50666 2.19136 0.03689 0.0
H1639 H 0.42976 2.31194 0.05475 0.0
H1640 H 0.45914 2.30252 0.0488 0.0
H1641 H 0.48332 2.16946 0.04015 0.0
H1642 H 0.56963 2.15317 0.02465 0.0
H1643 H 0.54246 2.15095 0.03155 0.0
H1644 H 0.52018 2.27812 0.04482 0.0
C1645 C 0.45629 2.27384 0.05126 0.0
C1646 C 0.49144 2.19298 0.04124 0.0
C1647 C 0.43946 2.27922 0.05467 0.0
C1648 C 0.56019 2.18442 0.02641 0.0
C1649 C 0.54465 2.18323 0.03039 0.0
C1650 C 0.51222 2.25439 0.04365 0.0
C1651 C 0.46895 2.23159 0.05077 0.0
C1652 C 0.48622 2.22612 0.0467 0.0
C1653 C 0.53271 2.22318 0.03315 0.0
C1654 C 0.51707 2.22263 0.03796 0.0
H1655 H 0.44475 2.17183 0.05983 0.0
H1656 H 0.47425 2.16216 0.0537 0.0
H1657 H 0.49337 2.28185 0.05214 0.0
H1658 H 0.55441 2.29756 0.02674 0.0
H1659 H 0.52705 2.29582 0.03329 0.0
C1660 C 0.22978 1.12737 0.08309 0.0
C1661 C 0.23593 1.12066 0.09016 0.0
C1662 C 0.22663 1.16954 0.08009 0.0
C1663 C 0.21687 1.29019 0.08488 0.0
H1664 H 0.23148 1.30056 0.06533 0.0
C1665 C 0.21236 1.46229 0.07311 0.0
C1666 C 0.20641 1.46971 0.06603 0.0
C1667 C 0.21643 1.41939 0.07586 0.0
C1668 C 0.2271 1.29827 0.07076 0.0
H1669 H 0.24362 1.15348 0.0996 0.0
H1670 H 0.23809 1.22726 0.09437 0.0
H1671 H 0.23785 1.22684 0.07058 0.0
H1672 H 0.20039 1.43725 0.05626 0.0
H1673 H 0.20727 1.36204 0.0611 0.0
H1674 H 0.20596 1.36138 0.08506 0.0
C1675 C 0.2356 1.19974 0.09116 0.0
C1676 C 0.2308 1.25596 0.07378 0.0
C1677 C 0.23886 1.15737 0.09416 0.0
C1678 C 0.20497 1.43275 0.06172 0.0
C1679 C 0.20897 1.3896 0.0645 0.0
C1680 C 0.21312 1.33241 0.08185 0.0
C1681 C 0.22946 1.20633 0.08409 0.0
C1682 C 0.22576 1.2514 0.08089 0.0
C1683 C 0.21457 1.38248 0.07164 0.0
C1684 C 0.21825 1.33711 0.07476 0.0
H1685 H 0.22738 1.1 0.07982 0.0
H1686 H 0.22168 1.17346 0.07467 0.0
H1687 H 0.2125 1.28789 0.09031 0.0
H1688 H 0.21386 1.48975 0.07658 0.0
H1689 H 0.2211 1.41519 0.08131 0.0
C1690 C 0.74491 0.39609 0.13551 0.0
C1691 C 0.75997 0.35845 0.13463 0.0
C1692 C 0.72837 0.39735 0.13204 0.0
C1693 C 0.70057 0.32671 0.12511 0.0
H1694 H 0.68096 0.41802 0.11141 0.0
C1695 C 0.64202 0.30951 0.10675 0.0
C1696 C 0.62878 0.34823 0.10482 0.0
C1697 C 0.65803 0.31267 0.11018 0.0
C1698 C 0.68599 0.39265 0.1153 0.0
H1699 H 0.76935 0.29225 0.1296 0.0
H1700 H 0.74034 0.29383 0.12381 0.0
H1701 H 0.70804 0.42118 0.1183 0.0
H1702 H 0.622 0.42073 0.10487 0.0
H1703 H 0.6496 0.42663 0.11113 0.0
H1704 H 0.67847 0.29873 0.1224 0.0
C1705 C 0.74142 0.32258 0.12706 0.0
C1706 C 0.70156 0.39449 0.11922 0.0
C1707 C 0.75802 0.32177 0.13037 0.0
C1708 C 0.6321 0.39028 0.10622 0.0
C1709 C 0.64797 0.39356 0.10981 0.0
C1710 C 0.68484 0.32534 0.12131 0.0
C1711 C 0.7265 0.36051 0.1278 0.0
C1712 C 0.70914 0.36111 0.12408 0.0
C1713 C 0.66105 0.35476 0.11197 0.0
C1714 C 0.67747 0.35777 0.11623 0.0
H1715 H 0.74608 0.42496 0.13872 0.0
H1716 H 0.71701 0.42691 0.1327 0.0
H1717 H 0.70606 0.3008 0.12888 0.0
H1718 H 0.63988 0.27661 0.10569 0.0
H1719 H 0.66794 0.28187 0.11149 0.0
C1720 C 0.7132 1.41125 0.01965 0.0
C1721 C 0.69976 1.4438 0.01618 0.0
C1722 C 0.71931 1.36746 0.01672 0.0
C1723 C 0.70234 1.36937 0.16433 0.0
H1724 H 0.72869 1.19986 0.0117 0.0
C1725 C 0.71595 1.18599 0.15288 0.0
C1726 C 0.72789 1.15223 0.15671 0.0
C1727 C 0.7105 1.23024 0.15568 0.0
C1728 C 0.72704 1.228 0.00824 0.0
H1729 H 0.68218 1.45534 0.00688 0.0
H1730 H 0.6927 1.37968 0.00187 0.0
H1731 H 0.71907 1.27539 0.01699 0.0
H1732 H 0.76338 1.07196 0.00162 0.0
H1733 H 0.75431 1.14841 0.00636 0.0
H1734 H 0.7104 1.32205 0.15558 0.0
C1735 C 0.6987 1.38791 0.00681 0.0
C1736 C 0.7215 1.27139 0.01129 0.0
C1737 C 0.69255 1.43137 0.00974 0.0
C1738 C 0.73466 1.16403 0.16328 0.0
C1739 C 0.74864 1.14085 0.00131 0.0
C1740 C 0.70796 1.32595 0.16128 0.0
C1741 C 0.7122 1.35537 0.01023 0.0
C1742 C 0.71866 1.30909 0.00702 0.0
C1743 C 0.71697 1.24169 0.16235 0.0
C1744 C 0.71076 1.28819 0.16555 0.0
H1745 H 0.7191 1.41961 0.0246 0.0
H1746 H 0.72982 1.34328 0.01948 0.0
H1747 H 0.70051 1.39764 0.16089 0.0
H1748 H 0.71044 1.17804 0.14782 0.0
H1749 H 0.70085 1.25517 0.1527 0.0
C1750 C 0.14335 0.32103 0.13787 0.0
C1751 C 0.13201 0.3602 0.14104 0.0
C1752 C 0.15917 0.32227 0.13417 0.0
C1753 C 0.19094 0.39371 0.13053 0.0
H1754 H 0.20368 0.31151 0.11416 0.0
C1755 C 0.25016 0.39204 0.11043 0.0
C1756 C 0.26298 0.34998 0.10987 0.0
C1757 C 0.23327 0.39659 0.11385 0.0
C1758 C 0.20026 0.33473 0.11871 0.0
H1759 H 0.12854 0.43136 0.14295 0.0
H1760 H 0.15593 0.43405 0.13628 0.0
H1761 H 0.17639 0.31355 0.1211 0.0
H1762 H 0.26798 0.27962 0.1122 0.0
H1763 H 0.23832 0.28723 0.11787 0.0
H1764 H 0.21483 0.41533 0.12794 0.0
C1765 C 0.15287 0.40199 0.13679 0.0
C1766 C 0.1847 0.33564 0.12275 0.0
C1767 C 0.13715 0.40053 0.14062 0.0
C1768 C 0.25833 0.31241 0.11253 0.0
C1769 C 0.24136 0.31674 0.11577 0.0
C1770 C 0.20639 0.3933 0.12639 0.0
C1771 C 0.16391 0.36296 0.13337 0.0
C1772 C 0.18 0.36438 0.12883 0.0
C1773 C 0.22879 0.35895 0.11659 0.0
C1774 C 0.21137 0.36318 0.12052 0.0
H1775 H 0.13982 0.28935 0.13815 0.0
H1776 H 0.16755 0.29116 0.13186 0.0
H1777 H 0.18794 0.41609 0.13518 0.0
H1778 H 0.25351 0.42164 0.10851 0.0
H1779 H 0.22378 0.42948 0.1144 0.0
C1780 C 0.44589 1.44445 0.07456 0.0
C1781 C 0.45785 1.47167 0.07589 0.0
C1782 C 0.44838 1.40348 0.07796 0.0
C1783 C 0.48322 1.31397 0.08592 0.0
H1784 H 0.44464 1.29055 0.0975 0.0
C1785 C 0.49897 1.16344 0.10414 0.0
C1786 C 0.48575 1.13974 0.1051 0.0
C1787 C 0.49454 1.20473 0.10084 0.0
C1788 C 0.4555 1.29605 0.09421 0.0
H1789 H 0.48201 1.47673 0.08171 0.0
H1790 H 0.48668 1.40478 0.08741 0.0
H1791 H 0.4388 1.35927 0.09075 0.0
H1792 H 0.45736 1.14104 0.10347 0.0
H1793 H 0.44964 1.21254 0.09743 0.0
H1794 H 0.49983 1.25075 0.0891 0.0
C1795 C 0.47526 1.41536 0.08383 0.0
C1796 C 0.45213 1.33556 0.09035 0.0
C1797 C 0.47255 1.45659 0.08057 0.0
C1798 C 0.46778 1.15891 0.10288 0.0
C1799 C 0.46339 1.19996 0.09941 0.0
C1800 C 0.4865 1.27424 0.08965 0.0
C1801 C 0.46313 1.38853 0.08262 0.0
C1802 C 0.46606 1.34519 0.08626 0.0
C1803 C 0.47684 1.22302 0.09819 0.0
C1804 C 0.47283 1.26493 0.09398 0.0
H1805 H 0.43436 1.45535 0.07103 0.0
H1806 H 0.43887 1.38331 0.07692 0.0
H1807 H 0.49413 1.32029 0.08274 0.0
H1808 H 0.51292 1.14958 0.10585 0.0
H1809 H 0.50517 1.2219 0.10027 0.0
C1810 C 0.0562 2.25768 0.06121 0.0
C1811 C 0.07264 2.24101 0.0574 0.0
C1812 C 0.03952 2.25502 0.05821 0.0
C1813 C 0.01866 2.24115 0.04058 0.0
H1814 H -0.02008 2.21664 0.05191 0.0
C1815 C -0.04724 2.21065 0.02795 0.0
C1816 C -0.06375 2.23188 0.03146 0.0
C1817 C -0.03043 2.21023 0.03113 0.0
C1818 C -0.00943 2.22384 0.04868 0.0
H1819 H 0.08446 2.20664 0.04756 0.0
H1820 H 0.05572 2.20126 0.04246 0.0
H1821 H 0.00865 2.21914 0.05758 0.0
H1822 H -0.07539 2.26917 0.04111 0.0
H1823 H -0.04633 2.26852 0.04656 0.0
H1824 H 0.0006 2.24576 0.03168 0.0
C1825 C 0.05551 2.21759 0.04767 0.0
C1826 C 0.00703 2.2254 0.05194 0.0
C1827 C 0.07206 2.22046 0.05063 0.0
C1828 C -0.06301 2.25247 0.03822 0.0
C1829 C -0.04629 2.25183 0.0414 0.0
C1830 C 0.00225 2.23941 0.03732 0.0
C1831 C 0.03897 2.23543 0.05135 0.0
C1832 C 0.0213 2.23409 0.04794 0.0
C1833 C -0.02978 2.23073 0.03791 0.0
C1834 C -0.01203 2.23088 0.04133 0.0
H1835 H 0.05616 2.27375 0.06643 0.0
H1836 H 0.02703 2.26936 0.06119 0.0
H1837 H 0.02919 2.24878 0.03734 0.0
H1838 H -0.04728 2.19439 0.02275 0.0
H1839 H -0.01793 2.19338 0.02832 0.0
C1840 C 0.35374 2.42196 0.06609 0.0
C1841 C 0.36209 2.38726 0.07063 0.0
C1842 C 0.34752 2.46631 0.06877 0.0
C1843 C 0.35228 2.5392 0.08467 0.0
H1844 H 0.58297 0.07973 0.07668 0.0
C1845 C 0.59185 0.17325 0.09749 0.0
C1846 C 0.5888 0.20892 0.09278 0.0
C1847 C 0.59676 0.12867 0.09487 0.0
C1848 C 0.59488 0.05709 0.07895 0.0
H1849 H 0.36975 2.37179 0.08159 0.0
H1850 H 0.35838 2.44794 0.08627 0.0
H1851 H 0.31974 2.54453 0.07191 0.0
H1852 H 0.58794 0.22563 0.08161 0.0
H1853 H 0.59612 0.14813 0.07707 0.0
H1854 H 0.62709 0.05173 0.0918 0.0
C1855 C 0.35722 2.44174 0.0806 0.0
C1856 C 0.32753 2.55475 0.07619 0.0
C1857 C 0.36368 2.39776 0.07791 0.0
C1858 C 0.5903 0.19899 0.0854 0.0
C1859 C 0.59487 0.15457 0.08278 0.0
C1860 C 0.61946 0.04127 0.08749 0.0
C1861 C 0.34924 2.47691 0.07607 0.0
C1862 C 0.34294 2.52419 0.07899 0.0
C1863 C 0.59836 0.11887 0.08748 0.0
C1864 C 0.60418 0.07169 0.08465 0.0
H1865 H 0.35234 2.415 0.06045 0.0
H1866 H 0.34168 2.49235 0.06508 0.0
H1867 H 0.36445 2.51732 0.08688 0.0
H1868 H 0.59084 0.17973 0.10321 0.0
H1869 H 0.59927 0.10181 0.09861 0.0
C1870 C 0.06916 1.04312 0.1336 0.0
C1871 C 0.0658 1.0066 0.13712 0.0
C1872 C 0.08569 1.03896 0.13002 0.0
C1873 C 0.12206 0.95856 0.12041 0.0
H1874 H 0.14844 1.04971 0.12285 0.0
C1875 C 0.19016 0.95098 0.10529 0.0
C1876 C 0.19363 0.99199 0.10363 0.0
C1877 C 0.17474 0.95019 0.10937 0.0
C1878 C 0.14112 1.02428 0.12199 0.0
H1879 H 0.07718 0.93703 0.13969 0.0
H1880 H 0.10614 0.92945 0.13327 0.0
H1881 H 0.12188 1.05299 0.1303 0.0
H1882 H 0.18317 1.06418 0.10452 0.0
H1883 H 0.15597 1.06301 0.11126 0.0
H1884 H 0.14087 0.9307 0.11191 0.0
C1885 C 0.09595 0.96142 0.13336 0.0
C1886 C 0.12598 1.026 0.12633 0.0
C1887 C 0.07949 0.96588 0.13709 0.0
C1888 C 0.18092 1.03204 0.10577 0.0
C1889 C 0.16542 1.0313 0.10972 0.0
C1890 C 0.13711 0.95715 0.11598 0.0
C1891 C 0.09915 0.99791 0.12976 0.0
C1892 C 0.11616 0.99349 0.12554 0.0
C1893 C 0.16237 0.99045 0.11179 0.0
C1894 C 0.14671 0.9904 0.11664 0.0
H1895 H 0.05886 1.07489 0.13352 0.0
H1896 H 0.0877 1.06755 0.12726 0.0
H1897 H 0.11464 0.93325 0.11965 0.0
H1898 H 0.19986 0.91956 0.10377 0.0
H1899 H 0.17297 0.91805 0.11086 0.0
C1900 C 0.58849 2.37507 0.00713 0.0
C1901 C 0.60455 2.35865 0.01102 0.0
C1902 C 0.5852 2.41619 0.00379 0.0
C1903 C 0.60134 2.52078 0.00282 0.0
H1904 H 0.82703 0.05947 0.15009 0.0
C1905 C 0.8445 0.19965 0.14907 0.0
C1906 C 0.82597 0.22148 0.14804 0.0
C1907 C 0.84953 0.15754 0.15219 0.0
C1908 C 0.83493 0.05616 0.15496 0.0
H1909 H 0.62981 2.37257 0.01449 0.0
H1910 H 0.62454 2.44355 0.00841 0.0
H1911 H 0.56087 2.53014 0.15609 0.0
H1912 H 0.79826 0.21579 0.14925 0.0
H1913 H 0.8071 0.14157 0.15441 0.0
H1914 H 0.87578 0.04685 0.00146 0.0
C1915 C 0.61411 2.42544 0.0081 0.0
C1916 C 0.56566 2.55729 0.15846 0.0
C1917 C 0.61721 2.3846 0.01158 0.0
C1918 C 0.81264 0.19976 0.14997 0.0
C1919 C 0.81769 0.1573 0.15291 0.0
C1920 C 0.85163 0.08658 0.16394 0.0
C1921 C 0.59811 2.44171 0.00409 0.0
C1922 C 0.57557 2.55181 0.16489 0.0
C1923 C 0.83615 0.13607 0.15416 0.0
C1924 C 0.84122 0.09216 0.15767 0.0
H1925 H 0.57837 2.35606 0.00666 0.0
H1926 H 0.55316 2.49501 0.16571 0.0
H1927 H 0.60879 2.51844 0.00778 0.0
H1928 H 0.85505 0.21581 0.1477 0.0
H1929 H 0.86386 0.14178 0.15307 0.0
C1930 C 0.01278 1.61852 0.02185 0.0
C1931 C 0.00781 1.57786 0.022 0.0
C1932 C 0.02839 1.62352 0.02545 0.0
C1933 C 0.06069 1.57186 0.03979 0.0
H1934 H 0.09088 1.64251 0.03197 0.0
C1935 C 0.13758 1.59979 0.04309 0.0
C1936 C 0.13935 1.60158 0.05056 0.0
C1937 C 0.12099 1.59913 0.03994 0.0
C1938 C 0.08269 1.62237 0.03423 0.0
H1939 H 0.01573 1.51001 0.0258 0.0
H1940 H 0.04312 1.51812 0.03183 0.0
H1941 H 0.06379 1.63565 0.02558 0.0
H1942 H 0.12488 1.60381 0.06057 0.0
H1943 H 0.09558 1.60339 0.05504 0.0
H1944 H 0.08006 1.55706 0.04828 0.0
C1945 C 0.03474 1.54675 0.02915 0.0
C1946 C 0.06696 1.61893 0.03059 0.0
C1947 C 0.0191 1.54192 0.02562 0.0
C1948 C 0.124 1.60238 0.05481 0.0
C1949 C 0.10724 1.60198 0.05163 0.0
C1950 C 0.07651 1.57506 0.0434 0.0
C1951 C 0.03946 1.58783 0.02924 0.0
C1952 C 0.05584 1.59317 0.03327 0.0
C1953 C 0.10551 1.60059 0.04414 0.0
C1954 C 0.08788 1.59985 0.04062 0.0
H1955 H 0.00428 1.647 0.01917 0.0
H1956 H 0.03146 1.6558 0.02543 0.0
H1957 H 0.05229 1.55247 0.04212 0.0
H1958 H 0.1491 1.59854 0.03962 0.0
H1959 H 0.12041 1.59682 0.03418 0.0
C1960 C 0.11561 2.40129 0.07882 0.0
C1961 C 0.10941 2.39085 0.07207 0.0
C1962 C 0.1104 2.44495 0.08172 0.0
C1963 C 0.09048 2.56403 0.07719 0.0
H1964 H 0.35344 0.0369 0.09751 0.0
C1965 C 0.32795 0.19355 0.09047 0.0
C1966 C 0.33456 0.20551 0.09706 0.0
C1967 C 0.33435 0.15032 0.08748 0.0
C1968 C 0.35644 0.03342 0.09185 0.0
H1969 H 0.09306 2.41873 0.06301 0.0
H1970 H 0.08362 2.49524 0.06813 0.0
H1971 H 0.08998 2.50364 0.09205 0.0
H1972 H 0.35312 0.18072 0.1057 0.0
H1973 H 0.36428 0.10467 0.10047 0.0
H1974 H 0.35662 0.09398 0.077 0.0
C1975 C 0.09277 2.46952 0.07115 0.0
C1976 C 0.08888 2.5321 0.0887 0.0
C1977 C 0.09813 2.42562 0.06821 0.0
C1978 C 0.34769 0.17271 0.10063 0.0
C1979 C 0.35404 0.12911 0.09764 0.0
C1980 C 0.35794 0.06536 0.08034 0.0
C1981 C 0.09869 2.47965 0.07799 0.0
C1982 C 0.09257 2.52584 0.08132 0.0
C1983 C 0.34753 0.11753 0.091 0.0
C1984 C 0.35424 0.07152 0.08771 0.0
H1985 H 0.12452 2.37558 0.08192 0.0
H1986 H 0.11564 2.45146 0.0869 0.0
H1987 H 0.09347 2.56069 0.07152 0.0
H1988 H 0.31784 0.21771 0.08753 0.0
H1989 H 0.3288 0.14247 0.08242 0.0
C1990 C 0.62485 1.55242 0.03242 0.0
C1991 C 0.62912 1.58947 0.0294 0.0
C1992 C 0.60805 1.557 0.03581 0.0
C1993 C 0.57247 1.63647 0.04592 0.0
H1994 H 0.54454 1.54962 0.04228 0.0
C1995 C 0.50413 1.64247 0.06081 0.0
C1996 C 0.50034 1.60121 0.06205 0.0
C1997 C 0.51951 1.64407 0.05676 0.0
C1998 C 0.55227 1.57383 0.04346 0.0
H1999 H 0.6191 1.66044 0.02752 0.0
H2000 H 0.58961 1.66873 0.03362 0.0
H2001 H 0.57128 1.54722 0.03498 0.0
H2002 H 0.51021 1.52924 0.06041 0.0
H2003 H 0.53727 1.5317 0.0537 0.0
H2004 H 0.55389 1.66206 0.05459 0.0
C2005 C 0.5993 1.63603 0.03327 0.0
C2006 C 0.56753 1.57264 0.03922 0.0
C2007 C 0.61606 1.63122 0.02973 0.0
C2008 C 0.51268 1.56159 0.05949 0.0
C2009 C 0.52811 1.5631 0.05556 0.0
C2010 C 0.55729 1.63733 0.05025 0.0
C2011 C 0.59521 1.59895 0.03639 0.0
C2012 C 0.57795 1.60352 0.04045 0.0
C2013 C 0.53149 1.60437 0.05394 0.0
C2014 C 0.54715 1.60549 0.04915 0.0
H2015 H 0.63467 1.51986 0.03228 0.0
H2016 H 0.60536 1.5279 0.0382 0.0
H2017 H 0.58035 1.66047 0.04703 0.0
H2018 H 0.49476 1.67361 0.06266 0.0
H2019 H 0.52156 1.67651 0.05562 0.0
C2020 C 0.08802 0.22842 0.163 0.0
C2021 C 0.0869 0.23278 0.15555 0.0
C2022 C 0.10995 0.11929 0.00129 0.0
C2023 C 0.11267 0.06994 0.16276 0.0
H2024 H -0.17255 2.52043 0.01287 0.0
C2025 C -0.12732 2.36862 0.00945 0.0
C2026 C -0.13143 2.36393 0.01663 0.0
C2027 C -0.13295 2.41009 0.00625 0.0
C2028 C -0.16344 2.52665 0.00883 0.0
H2029 H 0.08751 0.19665 0.14544 0.0
H2030 H 0.0929 0.12256 0.15074 0.0
H2031 H 0.09297 0.05169 0.00734 0.0
H2032 H -0.14488 2.39897 0.0261 0.0
H2033 H -0.15391 2.47244 0.02066 0.0
H2034 H -0.1431 2.54659 0.16444 0.0
C2035 C 0.09142 0.15199 0.15421 0.0
C2036 C 0.1052 0.02664 0.00561 0.0
C2037 C 0.0883 0.19426 0.15118 0.0
C2038 C -0.14151 2.40169 0.02055 0.0
C2039 C -0.14679 2.44373 0.01739 0.0
C2040 C -0.13644 2.50326 0.00135 0.0
C2041 C 0.09266 0.14776 0.16165 0.0
C2042 C 0.09694 0.10302 0.16489 0.0
C2043 C -0.14247 2.44862 0.01019 0.0
C2044 C -0.14754 2.49338 0.00677 0.0
H2045 H 0.10613 0.19039 0.00178 0.0
H2046 H 0.11097 0.11691 0.00703 0.0
H2047 H 0.12159 0.07652 0.15866 0.0
H2048 H -0.11991 2.33991 0.00623 0.0
H2049 H -0.14915 2.47881 0.16537 0.0
C2050 C 0.56879 0.98541 0.11455 0.0
C2051 C 0.55226 1.00461 0.11819 0.0
C2052 C 0.58558 0.98431 0.1178 0.0
C2053 C 0.60615 1.03812 0.13247 0.0
H2054 H 0.64687 0.9326 0.13004 0.0
C2055 C 0.67472 1.01929 0.14752 0.0
C2056 C 0.6906 1.00287 0.14336 0.0
C2057 C 0.65758 1.01784 0.14483 0.0
C2058 C 0.63567 0.96247 0.13074 0.0
H2059 H 0.54057 1.0376 0.12815 0.0
H2060 H 0.56962 1.03526 0.13376 0.0
H2061 H 0.61774 0.93412 0.12439 0.0
H2062 H 0.70089 0.97094 0.13316 0.0
H2063 H 0.6713 0.96866 0.12853 0.0
H2064 H 0.62413 1.06653 0.13879 0.0
C2065 C 0.56969 1.02162 0.12837 0.0
C2066 C 0.61898 0.96338 0.12747 0.0
C2067 C 0.55297 1.02271 0.12514 0.0
C2068 C 0.68898 0.98406 0.13653 0.0
C2069 C 0.67197 0.9824 0.13388 0.0
C2070 C 0.62285 1.03718 0.13574 0.0
C2071 C 0.58623 1.00243 0.12475 0.0
C2072 C 0.60402 1.00132 0.12826 0.0
C2073 C 0.65601 0.99957 0.13795 0.0
C2074 C 0.63787 0.99948 0.13487 0.0
H2075 H 0.56879 0.97118 0.1092 0.0
H2076 H 0.59805 0.96971 0.11482 0.0
H2077 H 0.59501 1.06815 0.13312 0.0
H2078 H 0.67547 1.034 0.15279 0.0
H2079 H 0.64556 1.031 0.14813 0.0
loop_
_geom_bond_atom_site_label_1
_geom_bond_atom_site_label_2
_geom_bond_distance
_geom_bond_site_symmetry_2
_ccdc_geom_bond_type
Dy0 O3 2.307 . S
Dy0 O5 2.395 1_554 S
Dy0 O6 2.379 1_554 S
Dy0 O8 2.339 . S
Dy0 O10 2.298 . S
Dy0 O14 2.275 . S
Dy0 C22 2.738 1_554 S
Dy1 O4 2.298 . S
Dy1 O7 2.275 . S
Dy1 O9 2.307 . S
Dy1 O11 2.395 . S
Dy1 O12 2.379 . S
Dy1 O15 2.339 . S
Dy1 C31 2.738 . S
C2 O14 1.254 . S
C2 O15 1.257 . S
O3 Dy0 2.307 . S
O3 C13 1.266 . S
O4 Dy1 2.298 . S
O4 C13 1.236 . S
O5 Dy0 2.395 1_556 S
O5 C22 1.255 . S
O6 Dy0 2.379 1_556 S
O6 C22 1.249 . S
O7 Dy1 2.275 . S
O7 C23 1.254 . S
O8 Dy0 2.339 . S
O8 C23 1.257 . S
O9 Dy1 2.307 . S
O9 C24 1.266 . S
O10 Dy0 2.298 . S
O10 C24 1.236 . S
O11 Dy1 2.395 . S
O11 C31 1.255 . S
O12 Dy1 2.379 . S
O12 C31 1.249 . S
C13 O3 1.266 . S
C13 O4 1.236 . S
O14 Dy0 2.275 . S
O14 C2 1.254 . S
O15 Dy1 2.339 . S
O15 C2 1.257 . S
C16 C19 1.344 . S
C16 C20 1.328 . S
C16 C22 1.516 . S
C17 C18 1.304 . S
C17 C21 1.323 . S
C18 C17 1.304 . S
C18 C19 1.371 . S
C18 H32 0.930 . S
C19 C16 1.344 . S
C19 C18 1.371 . S
C19 H33 0.931 . S
C20 C16 1.328 . S
C20 C21 1.433 . S
C20 H34 0.931 . S
C21 C17 1.323 . S
C21 C20 1.433 . S
C21 H35 0.933 . S
C22 Dy0 2.738 1_556 S
C22 O5 1.255 . S
C22 O6 1.249 . S
C22 C16 1.516 . S
C23 O7 1.254 . S
C23 O8 1.257 . S
C24 O9 1.266 . S
C24 O10 1.236 . S
C25 C28 1.344 . S
C25 C29 1.328 . S
C25 C31 1.516 . S
C26 C27 1.304 . S
C26 C30 1.323 . S
C27 C26 1.304 . S
C27 C28 1.371 . S
C27 H36 0.930 . S
C28 C25 1.344 . S
C28 C27 1.371 . S
C28 H37 0.931 . S
C29 C25 1.328 . S
C29 C30 1.433 . S
C29 H38 0.931 . S
C30 C26 1.323 . S
C30 C29 1.433 . S
C30 H39 0.933 . S
C31 Dy1 2.738 . S
C31 O11 1.255 . S
C31 O12 1.249 . S
C31 C25 1.516 . S
H32 C18 0.930 . S
H33 C19 0.931 . S
H34 C20 0.931 . S
H35 C21 0.933 . S
H36 C27 0.930 . S
H37 C28 0.931 . S
H38 C29 0.931 . S
H39 C30 0.933 . S
Dy40 O43 2.307 . S
Dy40 O45 2.395 . S
Dy40 O46 2.379 . S
Dy40 O48 2.339 . S
Dy40 O50 2.298 . S
Dy40 O54 2.275 . S
Dy40 C62 2.738 . S
Dy41 O44 2.298 . S
Dy41 O47 2.275 . S
Dy41 O49 2.307 . S
Dy41 O51 2.395 . S
Dy41 O52 2.379 . S
Dy41 O55 2.339 . S
Dy41 C71 2.738 . S
C42 O54 1.254 . S
C42 O55 1.257 . S
O43 Dy40 2.307 . S
O43 C53 1.266 . S
O44 Dy41 2.298 . S
O44 C53 1.236 . S
O45 Dy40 2.395 . S
O45 C62 1.255 . S
O46 Dy40 2.379 . S
O46 C62 1.249 . S
O47 Dy41 2.275 . S
O47 C63 1.254 . S
O48 Dy40 2.339 . S
O48 C63 1.257 . S
O49 Dy41 2.307 . S
O49 C64 1.266 . S
O50 Dy40 2.298 . S
O50 C64 1.236 . S
O51 Dy41 2.395 . S
O51 C71 1.255 . S
O52 Dy41 2.379 . S
O52 C71 1.249 . S
C53 O43 1.266 . S
C53 O44 1.236 . S
O54 Dy40 2.275 . S
O54 C42 1.254 . S
O55 Dy41 2.339 . S
O55 C42 1.257 . S
C56 C59 1.344 . S
C56 C60 1.328 . S
C56 C62 1.516 . S
C57 C58 1.304 . S
C57 C61 1.323 . S
C58 C57 1.304 . S
C58 C59 1.371 . S
C58 H72 0.930 . S
C59 C56 1.344 . S
C59 C58 1.371 . S
C59 H73 0.931 . S
C60 C56 1.328 . S
C60 C61 1.433 . S
C60 H74 0.931 . S
C61 C57 1.323 . S
C61 C60 1.433 . S
C61 H75 0.933 . S
C62 Dy40 2.738 . S
C62 O45 1.255 . S
C62 O46 1.249 . S
C62 C56 1.516 . S
C63 O47 1.254 . S
C63 O48 1.257 . S
C64 O49 1.266 . S
C64 O50 1.236 . S
C65 C68 1.344 . S
C65 C69 1.328 . S
C65 C71 1.516 . S
C66 C67 1.304 . S
C66 C70 1.323 . S
C67 C66 1.304 . S
C67 C68 1.371 . S
C67 H76 0.930 . S
C68 C65 1.344 . S
C68 C67 1.371 . S
C68 H77 0.931 . S
C69 C65 1.328 . S
C69 C70 1.433 . S
C69 H78 0.931 . S
C70 C66 1.323 . S
C70 C69 1.433 . S
C70 H79 0.933 . S
C71 Dy41 2.738 . S
C71 O51 1.255 . S
C71 O52 1.249 . S
C71 C65 1.516 . S
H72 C58 0.930 . S
H73 C59 0.931 . S
H74 C60 0.931 . S
H75 C61 0.933 . S
H76 C67 0.930 . S
H77 C68 0.931 . S
H78 C69 0.931 . S
H79 C70 0.933 . S
Dy80 O83 2.307 . S
Dy80 O85 2.395 . S
Dy80 O86 2.379 . S
Dy80 O88 2.339 . S
Dy80 O90 2.298 . S
Dy80 O94 2.275 . S
Dy80 C102 2.738 . S
Dy81 O84 2.298 . S
Dy81 O87 2.275 . S
Dy81 O89 2.307 . S
Dy81 O91 2.395 . S
Dy81 O92 2.379 . S
Dy81 O95 2.339 . S
Dy81 C111 2.738 . S
C82 O94 1.254 . S
C82 O95 1.257 . S
O83 Dy80 2.307 . S
O83 C93 1.266 . S
O84 Dy81 2.298 . S
O84 C93 1.236 . S
O85 Dy80 2.395 . S
O85 C102 1.255 . S
O86 Dy80 2.379 . S
O86 C102 1.249 . S
O87 Dy81 2.275 . S
O87 C103 1.254 . S
O88 Dy80 2.339 . S
O88 C103 1.257 . S
O89 Dy81 2.307 . S
O89 C104 1.266 . S
O90 Dy80 2.298 . S
O90 C104 1.236 . S
O91 Dy81 2.395 . S
O91 C111 1.255 . S
O92 Dy81 2.379 . S
O92 C111 1.249 . S
C93 O83 1.266 . S
C93 O84 1.236 . S
O94 Dy80 2.275 . S
O94 C82 1.254 . S
O95 Dy81 2.339 . S
O95 C82 1.257 . S
C96 C99 1.344 . S
C96 C100 1.328 . S
C96 C102 1.516 . S
C97 C98 1.304 . S
C97 C101 1.323 . S
C98 C97 1.304 . S
C98 C99 1.371 . S
C98 H112 0.930 . S
C99 C96 1.344 . S
C99 C98 1.371 . S
C99 H113 0.931 . S
C100 C96 1.328 . S
C100 C101 1.433 . S
C100 H114 0.931 . S
C101 C97 1.323 . S
C101 C100 1.433 . S
C101 H115 0.933 . S
C102 Dy80 2.738 . S
C102 O85 1.255 . S
C102 O86 1.249 . S
C102 C96 1.516 . S
C103 O87 1.254 . S
C103 O88 1.257 . S
C104 O89 1.266 . S
C104 O90 1.236 . S
C105 C108 1.344 . S
C105 C109 1.328 . S
C105 C111 1.516 . S
C106 C107 1.304 . S
C106 C110 1.323 . S
C107 C106 1.304 . S
C107 C108 1.371 . S
C107 H116 0.930 . S
C108 C105 1.344 . S
C108 C107 1.371 . S
C108 H117 0.931 . S
C109 C105 1.328 . S
C109 C110 1.433 . S
C109 H118 0.931 . S
C110 C106 1.323 . S
C110 C109 1.433 . S
C110 H119 0.933 . S
C111 Dy81 2.738 . S
C111 O91 1.255 . S
C111 O92 1.249 . S
C111 C105 1.516 . S
H112 C98 0.930 . S
H113 C99 0.931 . S
H114 C100 0.931 . S
H115 C101 0.933 . S
H116 C107 0.930 . S
H117 C108 0.931 . S
H118 C109 0.931 . S
H119 C110 0.933 . S
Dy120 O123 2.307 . S
Dy120 O125 2.395 . S
Dy120 O126 2.379 . S
Dy120 O128 2.339 . S
Dy120 O130 2.298 . S
Dy120 O134 2.275 . S
Dy120 C142 2.738 . S
Dy121 O124 2.298 . S
Dy121 O127 2.275 . S
Dy121 O129 2.307 . S
Dy121 O131 2.395 1_556 S
Dy121 O132 2.379 1_556 S
Dy121 O135 2.339 . S
Dy121 C151 2.738 1_556 S
C122 O134 1.254 . S
C122 O135 1.257 . S
O123 Dy120 2.307 . S
O123 C133 1.266 . S
O124 Dy121 2.298 . S
O124 C133 1.236 . S
O125 Dy120 2.395 . S
O125 C142 1.255 . S
O126 Dy120 2.379 . S
O126 C142 1.249 . S
O127 Dy121 2.275 . S
O127 C143 1.254 . S
O128 Dy120 2.339 . S
O128 C143 1.257 . S
O129 Dy121 2.307 . S
O129 C144 1.266 . S
O130 Dy120 2.298 . S
O130 C144 1.236 . S
O131 Dy121 2.395 1_554 S
O131 C151 1.255 . S
O132 Dy121 2.379 1_554 S
O132 C151 1.249 . S
C133 O123 1.266 . S
C133 O124 1.236 . S
O134 Dy120 2.275 . S
O134 C122 1.254 . S
O135 Dy121 2.339 . S
O135 C122 1.257 . S
C136 C139 1.344 . S
C136 C140 1.328 . S
C136 C142 1.516 . S
C137 C138 1.304 . S
C137 C141 1.323 . S
C138 C137 1.304 . S
C138 C139 1.371 . S
C138 H152 0.930 . S
C139 C136 1.344 . S
C139 C138 1.371 . S
C139 H153 0.931 . S
C140 C136 1.328 . S
C140 C141 1.433 . S
C140 H154 0.931 . S
C141 C137 1.323 . S
C141 C140 1.433 . S
C141 H155 0.933 . S
C142 Dy120 2.738 . S
C142 O125 1.255 . S
C142 O126 1.249 . S
C142 C136 1.516 . S
C143 O127 1.254 . S
C143 O128 1.257 . S
C144 O129 1.266 . S
C144 O130 1.236 . S
C145 C148 1.344 . S
C145 C149 1.328 . S
C145 C151 1.516 . S
C146 C147 1.304 . S
C146 C150 1.323 . S
C147 C146 1.304 . S
C147 C148 1.371 . S
C147 H156 0.930 . S
C148 C145 1.344 . S
C148 C147 1.371 . S
C148 H157 0.931 . S
C149 C145 1.328 . S
C149 C150 1.433 . S
C149 H158 0.931 . S
C150 C146 1.323 . S
C150 C149 1.433 . S
C150 H159 0.933 . S
C151 Dy121 2.738 1_554 S
C151 O131 1.255 . S
C151 O132 1.249 . S
C151 C145 1.516 . S
H152 C138 0.930 . S
H153 C139 0.931 . S
H154 C140 0.931 . S
H155 C141 0.933 . S
H156 C147 0.930 . S
H157 C148 0.931 . S
H158 C149 0.931 . S
H159 C150 0.933 . S
Dy160 O163 2.307 . S
Dy160 O165 2.395 . S
Dy160 O166 2.379 . S
Dy160 O168 2.339 . S
Dy160 O170 2.298 . S
Dy160 O174 2.275 . S
Dy160 C182 2.738 . S
Dy161 O164 2.298 . S
Dy161 O167 2.275 . S
Dy161 O169 2.307 . S
Dy161 O171 2.395 . S
Dy161 O172 2.379 . S
Dy161 O175 2.339 . S
Dy161 C191 2.738 . S
C162 O174 1.254 . S
C162 O175 1.257 . S
O163 Dy160 2.307 . S
O163 C173 1.266 . S
O164 Dy161 2.298 . S
O164 C173 1.236 . S
O165 Dy160 2.395 . S
O165 C182 1.255 . S
O166 Dy160 2.379 . S
O166 C182 1.249 . S
O167 Dy161 2.275 . S
O167 C183 1.254 . S
O168 Dy160 2.339 . S
O168 C183 1.257 . S
O169 Dy161 2.307 . S
O169 C184 1.266 . S
O170 Dy160 2.298 . S
O170 C184 1.236 . S
O171 Dy161 2.395 . S
O171 C191 1.255 . S
O172 Dy161 2.379 . S
O172 C191 1.249 . S
C173 O163 1.266 . S
C173 O164 1.236 . S
O174 Dy160 2.275 . S
O174 C162 1.254 . S
O175 Dy161 2.339 . S
O175 C162 1.257 . S
C176 C179 1.344 . S
C176 C180 1.328 . S
C176 C182 1.516 . S
C177 C178 1.304 . S
C177 C181 1.323 . S
C178 C177 1.304 . S
C178 C179 1.371 . S
C178 H192 0.930 . S
C179 C176 1.344 . S
C179 C178 1.371 . S
C179 H193 0.931 . S
C180 C176 1.328 . S
C180 C181 1.433 . S
C180 H194 0.931 . S
C181 C177 1.323 . S
C181 C180 1.433 . S
C181 H195 0.933 . S
C182 Dy160 2.738 . S
C182 O165 1.255 . S
C182 O166 1.249 . S
C182 C176 1.516 . S
C183 O167 1.254 . S
C183 O168 1.257 . S
C184 O169 1.266 . S
C184 O170 1.236 . S
C185 C188 1.344 . S
C185 C189 1.328 . S
C185 C191 1.516 1_554 S
C186 C187 1.304 . S
C186 C190 1.323 . S
C187 C186 1.304 . S
C187 C188 1.371 . S
C187 H196 0.930 . S
C188 C185 1.344 . S
C188 C187 1.371 . S
C188 H197 0.931 . S
C189 C185 1.328 . S
C189 C190 1.433 . S
C189 H198 0.931 . S
C190 C186 1.323 . S
C190 C189 1.433 . S
C190 H199 0.933 . S
C191 Dy161 2.738 . S
C191 O171 1.255 . S
C191 O172 1.249 . S
C191 C185 1.516 1_556 S
H192 C178 0.930 . S
H193 C179 0.931 . S
H194 C180 0.931 . S
H195 C181 0.933 . S
H196 C187 0.930 . S
H197 C188 0.931 . S
H198 C189 0.931 . S
H199 C190 0.933 . S
Dy200 O203 2.307 . S
Dy200 O205 2.395 . S
Dy200 O206 2.379 . S
Dy200 O208 2.339 . S
Dy200 O210 2.298 . S
Dy200 O214 2.275 . S
Dy200 C222 2.738 . S
Dy201 O204 2.298 . S
Dy201 O207 2.275 . S
Dy201 O209 2.307 . S
Dy201 O211 2.395 1_554 S
Dy201 O212 2.379 1_554 S
Dy201 O215 2.339 . S
Dy201 C231 2.738 1_554 S
C202 O214 1.254 . S
C202 O215 1.257 . S
O203 Dy200 2.307 . S
O203 C213 1.266 . S
O204 Dy201 2.298 . S
O204 C213 1.236 . S
O205 Dy200 2.395 . S
O205 C222 1.255 . S
O206 Dy200 2.379 . S
O206 C222 1.249 . S
O207 Dy201 2.275 . S
O207 C223 1.254 . S
O208 Dy200 2.339 . S
O208 C223 1.257 . S
O209 Dy201 2.307 . S
O209 C224 1.266 . S
O210 Dy200 2.298 . S
O210 C224 1.236 . S
O211 Dy201 2.395 1_556 S
O211 C231 1.255 . S
O212 Dy201 2.379 1_556 S
O212 C231 1.249 . S
C213 O203 1.266 . S
C213 O204 1.236 . S
O214 Dy200 2.275 . S
O214 C202 1.254 . S
O215 Dy201 2.339 . S
O215 C202 1.257 . S
C216 C219 1.344 . S
C216 C220 1.328 . S
C216 C222 1.516 . S
C217 C218 1.304 . S
C217 C221 1.323 . S
C218 C217 1.304 . S
C218 C219 1.371 . S
C218 H232 0.930 . S
C219 C216 1.344 . S
C219 C218 1.371 . S
C219 H233 0.931 . S
C220 C216 1.328 . S
C220 C221 1.433 . S
C220 H234 0.931 . S
C221 C217 1.323 . S
C221 C220 1.433 . S
C221 H235 0.933 . S
C222 Dy200 2.738 . S
C222 O205 1.255 . S
C222 O206 1.249 . S
C222 C216 1.516 . S
C223 O207 1.254 . S
C223 O208 1.257 . S
C224 O209 1.266 . S
C224 O210 1.236 . S
C225 C228 1.344 . S
C225 C229 1.328 . S
C225 C231 1.516 . S
C226 C227 1.304 . S
C226 C230 1.323 . S
C227 C226 1.304 . S
C227 C228 1.371 . S
C227 H236 0.930 . S
C228 C225 1.344 . S
C228 C227 1.371 . S
C228 H237 0.931 . S
C229 C225 1.328 . S
C229 C230 1.433 . S
C229 H238 0.931 . S
C230 C226 1.323 . S
C230 C229 1.433 . S
C230 H239 0.933 . S
C231 Dy201 2.738 1_556 S
C231 O211 1.255 . S
C231 O212 1.249 . S
C231 C225 1.516 . S
H232 C218 0.930 . S
H233 C219 0.931 . S
H234 C220 0.931 . S
H235 C221 0.933 . S
H236 C227 0.930 . S
H237 C228 0.931 . S
H238 C229 0.931 . S
H239 C230 0.933 . S
Dy240 O243 2.307 . S
Dy240 O245 2.395 . S
Dy240 O246 2.379 . S
Dy240 O248 2.339 . S
Dy240 O250 2.298 . S
Dy240 O254 2.275 . S
Dy240 C262 2.738 . S
Dy241 O244 2.298 . S
Dy241 O247 2.275 . S
Dy241 O249 2.307 . S
Dy241 O251 2.395 . S
Dy241 O252 2.379 . S
Dy241 O255 2.339 . S
Dy241 C271 2.738 . S
C242 O254 1.254 . S
C242 O255 1.257 . S
O243 Dy240 2.307 . S
O243 C253 1.266 . S
O244 Dy241 2.298 . S
O244 C253 1.236 . S
O245 Dy240 2.395 . S
O245 C262 1.255 . S
O246 Dy240 2.379 . S
O246 C262 1.249 . S
O247 Dy241 2.275 . S
O247 C263 1.254 . S
O248 Dy240 2.339 . S
O248 C263 1.257 . S
O249 Dy241 2.307 . S
O249 C264 1.266 . S
O250 Dy240 2.298 . S
O250 C264 1.236 . S
O251 Dy241 2.395 . S
O251 C271 1.255 . S
O252 Dy241 2.379 . S
O252 C271 1.249 . S
C253 O243 1.266 . S
C253 O244 1.236 . S
O254 Dy240 2.275 . S
O254 C242 1.254 . S
O255 Dy241 2.339 . S
O255 C242 1.257 . S
C256 C259 1.344 . S
C256 C260 1.328 . S
C256 C262 1.516 . S
C257 C258 1.304 . S
C257 C261 1.323 . S
C258 C257 1.304 . S
C258 C259 1.371 . S
C258 H272 0.930 . S
C259 C256 1.344 . S
C259 C258 1.371 . S
C259 H273 0.931 . S
C260 C256 1.328 . S
C260 C261 1.433 . S
C260 H274 0.931 . S
C261 C257 1.323 . S
C261 C260 1.433 . S
C261 H275 0.933 . S
C262 Dy240 2.738 . S
C262 O245 1.255 . S
C262 O246 1.249 . S
C262 C256 1.516 . S
C263 O247 1.254 . S
C263 O248 1.257 . S
C264 O249 1.266 . S
C264 O250 1.236 . S
C265 C268 1.344 . S
C265 C269 1.328 . S
C265 C271 1.516 . S
C266 C267 1.304 . S
C266 C270 1.323 . S
C267 C266 1.304 . S
C267 C268 1.371 . S
C267 H276 0.930 . S
C268 C265 1.344 . S
C268 C267 1.371 . S
C268 H277 0.931 . S
C269 C265 1.328 . S
C269 C270 1.433 . S
C269 H278 0.931 . S
C270 C266 1.323 . S
C270 C269 1.433 . S
C270 H279 0.933 . S
C271 Dy241 2.738 . S
C271 O251 1.255 . S
C271 O252 1.249 . S
C271 C265 1.516 . S
H272 C258 0.930 . S
H273 C259 0.931 . S
H274 C260 0.931 . S
H275 C261 0.933 . S
H276 C267 0.930 . S
H277 C268 0.931 . S
H278 C269 0.931 . S
H279 C270 0.933 . S
Dy280 O283 2.307 . S
Dy280 O285 2.395 . S
Dy280 O286 2.379 . S
Dy280 O288 2.339 . S
Dy280 O290 2.298 . S
Dy280 O294 2.275 . S
Dy280 C302 2.738 . S
Dy281 O284 2.298 . S
Dy281 O287 2.275 . S
Dy281 O289 2.307 . S
Dy281 O291 2.395 . S
Dy281 O292 2.379 . S
Dy281 O295 2.339 . S
Dy281 C311 2.738 . S
C282 O294 1.254 . S
C282 O295 1.257 . S
O283 Dy280 2.307 . S
O283 C293 1.266 . S
O284 Dy281 2.298 . S
O284 C293 1.236 . S
O285 Dy280 2.395 . S
O285 C302 1.255 . S
O286 Dy280 2.379 . S
O286 C302 1.249 . S
O287 Dy281 2.275 . S
O287 C303 1.254 . S
O288 Dy280 2.339 . S
O288 C303 1.257 . S
O289 Dy281 2.307 . S
O289 C304 1.266 . S
O290 Dy280 2.298 . S
O290 C304 1.236 . S
O291 Dy281 2.395 . S
O291 C311 1.255 . S
O292 Dy281 2.379 . S
O292 C311 1.249 . S
C293 O283 1.266 . S
C293 O284 1.236 . S
O294 Dy280 2.275 . S
O294 C282 1.254 . S
O295 Dy281 2.339 . S
O295 C282 1.257 . S
C296 C299 1.344 . S
C296 C300 1.328 . S
C296 C302 1.516 . S
C297 C298 1.304 . S
C297 C301 1.323 . S
C298 C297 1.304 . S
C298 C299 1.371 . S
C298 H312 0.930 . S
C299 C296 1.344 . S
C299 C298 1.371 . S
C299 H313 0.931 . S
C300 C296 1.328 . S
C300 C301 1.433 . S
C300 H314 0.931 . S
C301 C297 1.323 . S
C301 C300 1.433 . S
C301 H315 0.933 . S
C302 Dy280 2.738 . S
C302 O285 1.255 . S
C302 O286 1.249 . S
C302 C296 1.516 . S
C303 O287 1.254 . S
C303 O288 1.257 . S
C304 O289 1.266 . S
C304 O290 1.236 . S
C305 C308 1.344 . S
C305 C309 1.328 . S
C305 C311 1.516 . S
C306 C307 1.304 . S
C306 C310 1.323 . S
C307 C306 1.304 . S
C307 C308 1.371 . S
C307 H316 0.930 . S
C308 C305 1.344 . S
C308 C307 1.371 . S
C308 H317 0.931 . S
C309 C305 1.328 . S
C309 C310 1.433 . S
C309 H318 0.931 . S
C310 C306 1.323 . S
C310 C309 1.433 . S
C310 H319 0.933 . S
C311 Dy281 2.738 . S
C311 O291 1.255 . S
C311 O292 1.249 . S
C311 C305 1.516 . S
H312 C298 0.930 . S
H313 C299 0.931 . S
H314 C300 0.931 . S
H315 C301 0.933 . S
H316 C307 0.930 . S
H317 C308 0.931 . S
H318 C309 0.931 . S
H319 C310 0.933 . S
Dy320 O323 2.307 . S
Dy320 O325 2.395 . S
Dy320 O326 2.379 . S
Dy320 O328 2.339 . S
Dy320 O330 2.298 . S
Dy320 O334 2.275 . S
Dy320 C342 2.738 . S
Dy321 O324 2.298 . S
Dy321 O327 2.275 . S
Dy321 O329 2.307 . S
Dy321 O331 2.395 1_556 S
Dy321 O332 2.379 1_556 S
Dy321 O335 2.339 . S
Dy321 C351 2.738 1_556 S
C322 O334 1.254 . S
C322 O335 1.257 . S
O323 Dy320 2.307 . S
O323 C333 1.266 . S
O324 Dy321 2.298 . S
O324 C333 1.236 . S
O325 Dy320 2.395 . S
O325 C342 1.255 . S
O326 Dy320 2.379 . S
O326 C342 1.249 . S
O327 Dy321 2.275 . S
O327 C343 1.254 . S
O328 Dy320 2.339 . S
O328 C343 1.257 . S
O329 Dy321 2.307 . S
O329 C344 1.266 . S
O330 Dy320 2.298 . S
O330 C344 1.236 . S
O331 Dy321 2.395 1_554 S
O331 C351 1.255 . S
O332 Dy321 2.379 1_554 S
O332 C351 1.249 . S
C333 O323 1.266 . S
C333 O324 1.236 . S
O334 Dy320 2.275 . S
O334 C322 1.254 . S
O335 Dy321 2.339 . S
O335 C322 1.257 . S
C336 C339 1.344 . S
C336 C340 1.328 . S
C336 C342 1.516 . S
C337 C338 1.304 . S
C337 C341 1.323 . S
C338 C337 1.304 . S
C338 C339 1.371 . S
C338 H352 0.930 . S
C339 C336 1.344 . S
C339 C338 1.371 . S
C339 H353 0.931 . S
C340 C336 1.328 . S
C340 C341 1.433 . S
C340 H354 0.931 . S
C341 C337 1.323 . S
C341 C340 1.433 . S
C341 H355 0.933 . S
C342 Dy320 2.738 . S
C342 O325 1.255 . S
C342 O326 1.249 . S
C342 C336 1.516 . S
C343 O327 1.254 . S
C343 O328 1.257 . S
C344 O329 1.266 . S
C344 O330 1.236 . S
C345 C348 1.344 . S
C345 C349 1.328 . S
C345 C351 1.516 . S
C346 C347 1.304 . S
C346 C350 1.323 . S
C347 C346 1.304 . S
C347 C348 1.371 . S
C347 H356 0.930 . S
C348 C345 1.344 . S
C348 C347 1.371 . S
C348 H357 0.931 . S
C349 C345 1.328 . S
C349 C350 1.433 . S
C349 H358 0.931 . S
C350 C346 1.323 . S
C350 C349 1.433 . S
C350 H359 0.933 . S
C351 Dy321 2.738 1_554 S
C351 O331 1.255 . S
C351 O332 1.249 . S
C351 C345 1.516 . S
H352 C338 0.930 . S
H353 C339 0.931 . S
H354 C340 0.931 . S
H355 C341 0.933 . S
H356 C347 0.930 . S
H357 C348 0.931 . S
H358 C349 0.931 . S
H359 C350 0.933 . S
Dy360 O363 2.307 . S
Dy360 O365 2.395 . S
Dy360 O366 2.379 . S
Dy360 O368 2.339 . S
Dy360 O370 2.298 . S
Dy360 O374 2.275 . S
Dy360 C382 2.738 . S
Dy361 O364 2.298 . S
Dy361 O367 2.275 . S
Dy361 O369 2.307 . S
Dy361 O371 2.395 . S
Dy361 O372 2.379 . S
Dy361 O375 2.339 . S
Dy361 C391 2.738 . S
C362 O374 1.254 . S
C362 O375 1.257 . S
O363 Dy360 2.307 . S
O363 C373 1.266 . S
O364 Dy361 2.298 . S
O364 C373 1.236 . S
O365 Dy360 2.395 . S
O365 C382 1.255 . S
O366 Dy360 2.379 . S
O366 C382 1.249 . S
O367 Dy361 2.275 . S
O367 C383 1.254 . S
O368 Dy360 2.339 . S
O368 C383 1.257 . S
O369 Dy361 2.307 . S
O369 C384 1.266 . S
O370 Dy360 2.298 . S
O370 C384 1.236 . S
O371 Dy361 2.395 . S
O371 C391 1.255 . S
O372 Dy361 2.379 . S
O372 C391 1.249 . S
C373 O363 1.266 . S
C373 O364 1.236 . S
O374 Dy360 2.275 . S
O374 C362 1.254 . S
O375 Dy361 2.339 . S
O375 C362 1.257 . S
C376 C379 1.344 . S
C376 C380 1.328 . S
C376 C382 1.516 . S
C377 C378 1.304 . S
C377 C381 1.323 . S
C378 C377 1.304 . S
C378 C379 1.371 . S
C378 H392 0.930 . S
C379 C376 1.344 . S
C379 C378 1.371 . S
C379 H393 0.931 . S
C380 C376 1.328 . S
C380 C381 1.433 . S
C380 H394 0.931 . S
C381 C377 1.323 . S
C381 C380 1.433 . S
C381 H395 0.933 . S
C382 Dy360 2.738 . S
C382 O365 1.255 . S
C382 O366 1.249 . S
C382 C376 1.516 . S
C383 O367 1.254 . S
C383 O368 1.257 . S
C384 O369 1.266 . S
C384 O370 1.236 . S
C385 C388 1.344 . S
C385 C389 1.328 . S
C385 C391 1.516 . S
C386 C387 1.304 . S
C386 C390 1.323 . S
C387 C386 1.304 . S
C387 C388 1.371 . S
C387 H396 0.930 . S
C388 C385 1.344 . S
C388 C387 1.371 . S
C388 H397 0.931 . S
C389 C385 1.328 . S
C389 C390 1.433 . S
C389 H398 0.931 . S
C390 C386 1.323 . S
C390 C389 1.433 . S
C390 H399 0.933 . S
C391 Dy361 2.738 . S
C391 O371 1.255 . S
C391 O372 1.249 . S
C391 C385 1.516 . S
H392 C378 0.930 . S
H393 C379 0.931 . S
H394 C380 0.931 . S
H395 C381 0.933 . S
H396 C387 0.930 . S
H397 C388 0.931 . S
H398 C389 0.931 . S
H399 C390 0.933 . S
Dy400 O403 2.307 . S
Dy400 O405 2.395 . S
Dy400 O406 2.379 . S
Dy400 O408 2.339 . S
Dy400 O410 2.298 . S
Dy400 O414 2.275 . S
Dy400 C422 2.738 . S
Dy401 O404 2.298 . S
Dy401 O407 2.275 . S
Dy401 O409 2.307 . S
Dy401 O411 2.395 . S
Dy401 O412 2.379 . S
Dy401 O415 2.339 . S
Dy401 C431 2.738 . S
C402 O414 1.254 . S
C402 O415 1.257 . S
O403 Dy400 2.307 . S
O403 C413 1.266 . S
O404 Dy401 2.298 . S
O404 C413 1.236 . S
O405 Dy400 2.395 . S
O405 C422 1.255 . S
O406 Dy400 2.379 . S
O406 C422 1.249 . S
O407 Dy401 2.275 . S
O407 C423 1.254 . S
O408 Dy400 2.339 . S
O408 C423 1.257 . S
O409 Dy401 2.307 . S
O409 C424 1.266 . S
O410 Dy400 2.298 . S
O410 C424 1.236 . S
O411 Dy401 2.395 . S
O411 C431 1.255 . S
O412 Dy401 2.379 . S
O412 C431 1.249 . S
C413 O403 1.266 . S
C413 O404 1.236 . S
O414 Dy400 2.275 . S
O414 C402 1.254 . S
O415 Dy401 2.339 . S
O415 C402 1.257 . S
C416 C419 1.344 . S
C416 C420 1.328 . S
C416 C422 1.516 . S
C417 C418 1.304 . S
C417 C421 1.323 . S
C418 C417 1.304 . S
C418 C419 1.371 . S
C418 H432 0.930 . S
C419 C416 1.344 . S
C419 C418 1.371 . S
C419 H433 0.931 . S
C420 C416 1.328 . S
C420 C421 1.433 . S
C420 H434 0.931 . S
C421 C417 1.323 . S
C421 C420 1.433 . S
C421 H435 0.933 . S
C422 Dy400 2.738 . S
C422 O405 1.255 . S
C422 O406 1.249 . S
C422 C416 1.516 . S
C423 O407 1.254 . S
C423 O408 1.257 . S
C424 O409 1.266 . S
C424 O410 1.236 . S
C425 C428 1.344 . S
C425 C429 1.328 . S
C425 C431 1.516 . S
C426 C427 1.304 . S
C426 C430 1.323 . S
C427 C426 1.304 . S
C427 C428 1.371 . S
C427 H436 0.930 . S
C428 C425 1.344 . S
C428 C427 1.371 . S
C428 H437 0.931 . S
C429 C425 1.328 . S
C429 C430 1.433 . S
C429 H438 0.931 . S
C430 C426 1.323 . S
C430 C429 1.433 . S
C430 H439 0.933 . S
C431 Dy401 2.738 . S
C431 O411 1.255 . S
C431 O412 1.249 . S
C431 C425 1.516 . S
H432 C418 0.930 . S
H433 C419 0.931 . S
H434 C420 0.931 . S
H435 C421 0.933 . S
H436 C427 0.930 . S
H437 C428 0.931 . S
H438 C429 0.931 . S
H439 C430 0.933 . S
Dy440 O443 2.307 . S
Dy440 O445 2.395 1_554 S
Dy440 O446 2.379 1_554 S
Dy440 O448 2.339 . S
Dy440 O450 2.298 . S
Dy440 O454 2.275 . S
Dy440 C462 2.738 1_554 S
Dy441 O444 2.298 . S
Dy441 O447 2.275 . S
Dy441 O449 2.307 . S
Dy441 O451 2.395 . S
Dy441 O452 2.379 . S
Dy441 O455 2.339 . S
Dy441 C471 2.738 . S
C442 O454 1.254 . S
C442 O455 1.257 . S
O443 Dy440 2.307 . S
O443 C453 1.266 . S
O444 Dy441 2.298 . S
O444 C453 1.236 . S
O445 Dy440 2.395 1_556 S
O445 C462 1.255 . S
O446 Dy440 2.379 1_556 S
O446 C462 1.249 . S
O447 Dy441 2.275 . S
O447 C463 1.254 . S
O448 Dy440 2.339 . S
O448 C463 1.257 . S
O449 Dy441 2.307 . S
O449 C464 1.266 . S
O450 Dy440 2.298 . S
O450 C464 1.236 . S
O451 Dy441 2.395 . S
O451 C471 1.255 . S
O452 Dy441 2.379 . S
O452 C471 1.249 . S
C453 O443 1.266 . S
C453 O444 1.236 . S
O454 Dy440 2.275 . S
O454 C442 1.254 . S
O455 Dy441 2.339 . S
O455 C442 1.257 . S
C456 C459 1.344 . S
C456 C460 1.328 . S
C456 C462 1.516 . S
C457 C458 1.304 . S
C457 C461 1.323 . S
C458 C457 1.304 . S
C458 C459 1.371 . S
C458 H472 0.930 . S
C459 C456 1.344 . S
C459 C458 1.371 . S
C459 H473 0.931 . S
C460 C456 1.328 . S
C460 C461 1.433 . S
C460 H474 0.931 . S
C461 C457 1.323 . S
C461 C460 1.433 . S
C461 H475 0.933 . S
C462 Dy440 2.738 1_556 S
C462 O445 1.255 . S
C462 O446 1.249 . S
C462 C456 1.516 . S
C463 O447 1.254 . S
C463 O448 1.257 . S
C464 O449 1.266 . S
C464 O450 1.236 . S
C465 C468 1.344 . S
C465 C469 1.328 . S
C465 C471 1.516 . S
C466 C467 1.304 . S
C466 C470 1.323 . S
C467 C466 1.304 . S
C467 C468 1.371 . S
C467 H476 0.930 . S
C468 C465 1.344 . S
C468 C467 1.371 . S
C468 H477 0.931 . S
C469 C465 1.328 . S
C469 C470 1.433 . S
C469 H478 0.931 . S
C470 C466 1.323 . S
C470 C469 1.433 . S
C470 H479 0.933 . S
C471 Dy441 2.738 . S
C471 O451 1.255 . S
C471 O452 1.249 . S
C471 C465 1.516 . S
H472 C458 0.930 . S
H473 C459 0.931 . S
H474 C460 0.931 . S
H475 C461 0.933 . S
H476 C467 0.930 . S
H477 C468 0.931 . S
H478 C469 0.931 . S
H479 C470 0.933 . S
Dy480 O483 2.307 . S
Dy480 O485 2.395 . S
Dy480 O486 2.379 . S
Dy480 O488 2.339 . S
Dy480 O490 2.298 . S
Dy480 O494 2.275 . S
Dy480 C502 2.738 . S
Dy481 O484 2.298 . S
Dy481 O487 2.275 . S
Dy481 O489 2.307 . S
Dy481 O491 2.395 . S
Dy481 O492 2.379 . S
Dy481 O495 2.339 . S
Dy481 C511 2.738 . S
C482 O494 1.254 . S
C482 O495 1.257 . S
O483 Dy480 2.307 . S
O483 C493 1.266 . S
O484 Dy481 2.298 . S
O484 C493 1.236 . S
O485 Dy480 2.395 . S
O485 C502 1.255 . S
O486 Dy480 2.379 . S
O486 C502 1.249 . S
O487 Dy481 2.275 . S
O487 C503 1.254 . S
O488 Dy480 2.339 . S
O488 C503 1.257 . S
O489 Dy481 2.307 . S
O489 C504 1.266 . S
O490 Dy480 2.298 . S
O490 C504 1.236 . S
O491 Dy481 2.395 . S
O491 C511 1.255 . S
O492 Dy481 2.379 . S
O492 C511 1.249 . S
C493 O483 1.266 . S
C493 O484 1.236 . S
O494 Dy480 2.275 . S
O494 C482 1.254 . S
O495 Dy481 2.339 . S
O495 C482 1.257 . S
C496 C499 1.344 . S
C496 C500 1.328 . S
C496 C502 1.516 1_556 S
C497 C498 1.304 . S
C497 C501 1.323 . S
C498 C497 1.304 . S
C498 C499 1.371 . S
C498 H512 0.930 . S
C499 C496 1.344 . S
C499 C498 1.371 . S
C499 H513 0.931 . S
C500 C496 1.328 . S
C500 C501 1.433 . S
C500 H514 0.931 . S
C501 C497 1.323 . S
C501 C500 1.433 . S
C501 H515 0.933 . S
C502 Dy480 2.738 . S
C502 O485 1.255 . S
C502 O486 1.249 . S
C502 C496 1.516 1_554 S
C503 O487 1.254 . S
C503 O488 1.257 . S
C504 O489 1.266 . S
C504 O490 1.236 . S
C505 C508 1.344 . S
C505 C509 1.328 . S
C505 C511 1.516 . S
C506 C507 1.304 . S
C506 C510 1.323 . S
C507 C506 1.304 . S
C507 C508 1.371 . S
C507 H516 0.930 . S
C508 C505 1.344 . S
C508 C507 1.371 . S
C508 H517 0.931 . S
C509 C505 1.328 . S
C509 C510 1.433 . S
C509 H518 0.931 . S
C510 C506 1.323 . S
C510 C509 1.433 . S
C510 H519 0.933 . S
C511 Dy481 2.738 . S
C511 O491 1.255 . S
C511 O492 1.249 . S
C511 C505 1.516 . S
H512 C498 0.930 . S
H513 C499 0.931 . S
H514 C500 0.931 . S
H515 C501 0.933 . S
H516 C507 0.930 . S
H517 C508 0.931 . S
H518 C509 0.931 . S
H519 C510 0.933 . S
Dy520 O523 2.307 . S
Dy520 O525 2.395 1_556 S
Dy520 O526 2.379 1_556 S
Dy520 O528 2.339 . S
Dy520 O530 2.298 . S
Dy520 O534 2.275 . S
Dy520 C542 2.738 1_556 S
Dy521 O524 2.298 . S
Dy521 O527 2.275 . S
Dy521 O529 2.307 . S
Dy521 O531 2.395 . S
Dy521 O532 2.379 . S
Dy521 O535 2.339 . S
Dy521 C551 2.738 . S
C522 O534 1.254 . S
C522 O535 1.257 . S
O523 Dy520 2.307 . S
O523 C533 1.266 . S
O524 Dy521 2.298 . S
O524 C533 1.236 . S
O525 Dy520 2.395 1_554 S
O525 C542 1.255 . S
O526 Dy520 2.379 1_554 S
O526 C542 1.249 . S
O527 Dy521 2.275 . S
O527 C543 1.254 . S
O528 Dy520 2.339 . S
O528 C543 1.257 . S
O529 Dy521 2.307 . S
O529 C544 1.266 . S
O530 Dy520 2.298 . S
O530 C544 1.236 . S
O531 Dy521 2.395 . S
O531 C551 1.255 . S
O532 Dy521 2.379 . S
O532 C551 1.249 . S
C533 O523 1.266 . S
C533 O524 1.236 . S
O534 Dy520 2.275 . S
O534 C522 1.254 . S
O535 Dy521 2.339 . S
O535 C522 1.257 . S
C536 C539 1.344 . S
C536 C540 1.328 . S
C536 C542 1.516 . S
C537 C538 1.304 . S
C537 C541 1.323 . S
C538 C537 1.304 . S
C538 C539 1.371 . S
C538 H552 0.930 . S
C539 C536 1.344 . S
C539 C538 1.371 . S
C539 H553 0.931 . S
C540 C536 1.328 . S
C540 C541 1.433 . S
C540 H554 0.931 . S
C541 C537 1.323 . S
C541 C540 1.433 . S
C541 H555 0.933 . S
C542 Dy520 2.738 1_554 S
C542 O525 1.255 . S
C542 O526 1.249 . S
C542 C536 1.516 . S
C543 O527 1.254 . S
C543 O528 1.257 . S
C544 O529 1.266 . S
C544 O530 1.236 . S
C545 C548 1.344 . S
C545 C549 1.328 . S
C545 C551 1.516 . S
C546 C547 1.304 . S
C546 C550 1.323 . S
C547 C546 1.304 . S
C547 C548 1.371 . S
C547 H556 0.930 . S
C548 C545 1.344 . S
C548 C547 1.371 . S
C548 H557 0.931 . S
C549 C545 1.328 . S
C549 C550 1.433 . S
C549 H558 0.931 . S
C550 C546 1.323 . S
C550 C549 1.433 . S
C550 H559 0.933 . S
C551 Dy521 2.738 . S
C551 O531 1.255 . S
C551 O532 1.249 . S
C551 C545 1.516 . S
H552 C538 0.930 . S
H553 C539 0.931 . S
H554 C540 0.931 . S
H555 C541 0.933 . S
H556 C547 0.930 . S
H557 C548 0.931 . S
H558 C549 0.931 . S
H559 C550 0.933 . S
Dy560 O563 2.307 . S
Dy560 O565 2.395 . S
Dy560 O566 2.379 . S
Dy560 O568 2.339 . S
Dy560 O570 2.298 . S
Dy560 O574 2.275 . S
Dy560 C582 2.738 . S
Dy561 O564 2.298 . S
Dy561 O567 2.275 . S
Dy561 O569 2.307 . S
Dy561 O571 2.395 . S
Dy561 O572 2.379 . S
Dy561 O575 2.339 . S
Dy561 C591 2.738 . S
C562 O574 1.254 . S
C562 O575 1.257 . S
O563 Dy560 2.307 . S
O563 C573 1.266 . S
O564 Dy561 2.298 . S
O564 C573 1.236 . S
O565 Dy560 2.395 . S
O565 C582 1.255 . S
O566 Dy560 2.379 . S
O566 C582 1.249 . S
O567 Dy561 2.275 . S
O567 C583 1.254 . S
O568 Dy560 2.339 . S
O568 C583 1.257 . S
O569 Dy561 2.307 . S
O569 C584 1.266 . S
O570 Dy560 2.298 . S
O570 C584 1.236 . S
O571 Dy561 2.395 . S
O571 C591 1.255 . S
O572 Dy561 2.379 . S
O572 C591 1.249 . S
C573 O563 1.266 . S
C573 O564 1.236 . S
O574 Dy560 2.275 . S
O574 C562 1.254 . S
O575 Dy561 2.339 . S
O575 C562 1.257 . S
C576 C579 1.344 . S
C576 C580 1.328 . S
C576 C582 1.516 . S
C577 C578 1.304 . S
C577 C581 1.323 . S
C578 C577 1.304 . S
C578 C579 1.371 . S
C578 H592 0.930 . S
C579 C576 1.344 . S
C579 C578 1.371 . S
C579 H593 0.931 . S
C580 C576 1.328 . S
C580 C581 1.433 . S
C580 H594 0.931 . S
C581 C577 1.323 . S
C581 C580 1.433 . S
C581 H595 0.933 . S
C582 Dy560 2.738 . S
C582 O565 1.255 . S
C582 O566 1.249 . S
C582 C576 1.516 . S
C583 O567 1.254 . S
C583 O568 1.257 . S
C584 O569 1.266 . S
C584 O570 1.236 . S
C585 C588 1.344 . S
C585 C589 1.328 . S
C585 C591 1.516 . S
C586 C587 1.304 . S
C586 C590 1.323 . S
C587 C586 1.304 . S
C587 C588 1.371 . S
C587 H596 0.930 . S
C588 C585 1.344 . S
C588 C587 1.371 . S
C588 H597 0.931 . S
C589 C585 1.328 . S
C589 C590 1.433 . S
C589 H598 0.931 . S
C590 C586 1.323 . S
C590 C589 1.433 . S
C590 H599 0.933 . S
C591 Dy561 2.738 . S
C591 O571 1.255 . S
C591 O572 1.249 . S
C591 C585 1.516 . S
H592 C578 0.930 . S
H593 C579 0.931 . S
H594 C580 0.931 . S
H595 C581 0.933 . S
H596 C587 0.930 . S
H597 C588 0.931 . S
H598 C589 0.931 . S
H599 C590 0.933 . S
Dy600 O603 2.307 . S
Dy600 O605 2.395 . S
Dy600 O606 2.379 . S
Dy600 O608 2.339 . S
Dy600 O610 2.298 . S
Dy600 O614 2.275 . S
Dy600 C622 2.738 . S
Dy601 O604 2.298 . S
Dy601 O607 2.275 . S
Dy601 O609 2.307 . S
Dy601 O611 2.395 . S
Dy601 O612 2.379 . S
Dy601 O615 2.339 . S
Dy601 C631 2.738 . S
C602 O614 1.254 . S
C602 O615 1.257 . S
O603 Dy600 2.307 . S
O603 C613 1.266 . S
O604 Dy601 2.298 . S
O604 C613 1.236 . S
O605 Dy600 2.395 . S
O605 C622 1.255 . S
O606 Dy600 2.379 . S
O606 C622 1.249 . S
O607 Dy601 2.275 . S
O607 C623 1.254 . S
O608 Dy600 2.339 . S
O608 C623 1.257 . S
O609 Dy601 2.307 . S
O609 C624 1.266 . S
O610 Dy600 2.298 . S
O610 C624 1.236 . S
O611 Dy601 2.395 . S
O611 C631 1.255 . S
O612 Dy601 2.379 . S
O612 C631 1.249 . S
C613 O603 1.266 . S
C613 O604 1.236 . S
O614 Dy600 2.275 . S
O614 C602 1.254 . S
O615 Dy601 2.339 . S
O615 C602 1.257 . S
C616 C619 1.344 . S
C616 C620 1.328 . S
C616 C622 1.516 . S
C617 C618 1.304 . S
C617 C621 1.323 . S
C618 C617 1.304 . S
C618 C619 1.371 . S
C618 H632 0.930 . S
C619 C616 1.344 . S
C619 C618 1.371 . S
C619 H633 0.931 . S
C620 C616 1.328 . S
C620 C621 1.433 . S
C620 H634 0.931 . S
C621 C617 1.323 . S
C621 C620 1.433 . S
C621 H635 0.933 . S
C622 Dy600 2.738 . S
C622 O605 1.255 . S
C622 O606 1.249 . S
C622 C616 1.516 . S
C623 O607 1.254 . S
C623 O608 1.257 . S
C624 O609 1.266 . S
C624 O610 1.236 . S
C625 C628 1.344 . S
C625 C629 1.328 . S
C625 C631 1.516 . S
C626 C627 1.304 . S
C626 C630 1.323 . S
C627 C626 1.304 . S
C627 C628 1.371 . S
C627 H636 0.930 . S
C628 C625 1.344 . S
C628 C627 1.371 . S
C628 H637 0.931 . S
C629 C625 1.328 . S
C629 C630 1.433 . S
C629 H638 0.931 . S
C630 C626 1.323 . S
C630 C629 1.433 . S
C630 H639 0.933 . S
C631 Dy601 2.738 . S
C631 O611 1.255 . S
C631 O612 1.249 . S
C631 C625 1.516 . S
H632 C618 0.930 . S
H633 C619 0.931 . S
H634 C620 0.931 . S
H635 C621 0.933 . S
H636 C627 0.930 . S
H637 C628 0.931 . S
H638 C629 0.931 . S
H639 C630 0.933 . S
C640 C641 1.349 . S
C640 C642 1.327 . S
C640 H665 0.950 . S
C641 C640 1.349 . S
C641 C657 1.349 . S
C642 C640 1.327 . S
C642 C661 1.429 . S
C642 H666 0.950 . S
C643 C660 1.574 . S
C643 C662 1.368 . S
C643 H667 0.949 . S
H644 C648 0.949 . S
C645 C646 1.349 . S
C645 C647 1.327 . S
C645 H668 0.950 . S
C646 C645 1.349 . S
C646 C658 1.349 . S
C647 C645 1.327 . S
C647 C663 1.429 . S
C647 H669 0.950 . S
C648 H644 0.949 . S
C648 C656 1.574 . S
C648 C664 1.368 . S
H649 C657 0.950 . S
H650 C655 0.950 . S
H651 C656 0.949 . S
H652 C658 0.950 . S
H653 C659 0.950 . S
H654 C660 0.949 . S
C655 H650 0.950 . S
C655 C657 1.327 . S
C655 C661 1.429 . S
C656 C648 1.574 . S
C656 H651 0.949 . S
C656 C662 1.368 . S
C657 C641 1.349 . S
C657 H649 0.950 . S
C657 C655 1.327 . S
C658 C646 1.349 . S
C658 H652 0.950 . S
C658 C659 1.327 . S
C659 H653 0.950 . S
C659 C658 1.327 . S
C659 C663 1.429 . S
C660 C643 1.574 . S
C660 H654 0.949 . S
C660 C664 1.368 . S
C661 C642 1.429 . S
C661 C655 1.429 . S
C661 C662 1.523 . S
C662 C643 1.368 . S
C662 C656 1.368 . S
C662 C661 1.523 . S
C663 C647 1.429 . S
C663 C659 1.429 . S
C663 C664 1.523 . S
C664 C648 1.368 . S
C664 C660 1.368 . S
C664 C663 1.523 . S
H665 C640 0.950 . S
H666 C642 0.950 . S
H667 C643 0.949 . S
H668 C645 0.950 . S
H669 C647 0.950 . S
C670 C671 1.349 . S
C670 C672 1.327 1_554 S
C670 H695 0.950 . S
C671 C670 1.349 . S
C671 C687 1.349 . S
C672 C670 1.327 1_556 S
C672 C691 1.429 . S
C672 H696 0.950 . S
C673 C690 1.574 . S
C673 C692 1.368 . S
C673 H697 0.949 . S
H674 C678 0.949 . S
C675 C676 1.349 . S
C675 C677 1.327 . S
C675 H698 0.950 . S
C676 C675 1.349 . S
C676 C688 1.349 . S
C677 C675 1.327 . S
C677 C693 1.429 . S
C677 H699 0.950 . S
C678 H674 0.949 . S
C678 C686 1.574 . S
C678 C694 1.368 . S
H679 C687 0.950 . S
H680 C685 0.950 . S
H681 C686 0.949 . S
H682 C688 0.950 . S
H683 C689 0.950 . S
H684 C690 0.949 . S
C685 H680 0.950 . S
C685 C687 1.327 1_556 S
C685 C691 1.429 . S
C686 C678 1.574 . S
C686 H681 0.949 . S
C686 C692 1.368 . S
C687 C671 1.349 . S
C687 H679 0.950 . S
C687 C685 1.327 1_554 S
C688 C676 1.349 . S
C688 H682 0.950 . S
C688 C689 1.327 . S
C689 H683 0.950 . S
C689 C688 1.327 . S
C689 C693 1.429 . S
C690 C673 1.574 . S
C690 H684 0.949 . S
C690 C694 1.368 . S
C691 C672 1.429 . S
C691 C685 1.429 . S
C691 C692 1.523 . S
C692 C673 1.368 . S
C692 C686 1.368 . S
C692 C691 1.523 . S
C693 C677 1.429 . S
C693 C689 1.429 . S
C693 C694 1.523 . S
C694 C678 1.368 . S
C694 C690 1.368 . S
C694 C693 1.523 . S
H695 C670 0.950 . S
H696 C672 0.950 . S
H697 C673 0.949 . S
H698 C675 0.950 . S
H699 C677 0.950 . S
C700 C701 1.349 . S
C700 C702 1.327 . S
C700 H725 0.950 . S
C701 C700 1.349 . S
C701 C717 1.349 . S
C702 C700 1.327 . S
C702 C721 1.429 . S
C702 H726 0.950 . S
C703 C720 1.574 . S
C703 C722 1.368 . S
C703 H727 0.949 . S
H704 C708 0.949 . S
C705 C706 1.349 . S
C705 C707 1.327 . S
C705 H728 0.950 . S
C706 C705 1.349 . S
C706 C718 1.349 . S
C707 C705 1.327 . S
C707 C723 1.429 . S
C707 H729 0.950 . S
C708 H704 0.949 . S
C708 C716 1.574 . S
C708 C724 1.368 . S
H709 C717 0.950 . S
H710 C715 0.950 . S
H711 C716 0.949 . S
H712 C718 0.950 . S
H713 C719 0.950 . S
H714 C720 0.949 . S
C715 H710 0.950 . S
C715 C717 1.327 . S
C715 C721 1.429 . S
C716 C708 1.574 . S
C716 H711 0.949 . S
C716 C722 1.368 . S
C717 C701 1.349 . S
C717 H709 0.950 . S
C717 C715 1.327 . S
C718 C706 1.349 . S
C718 H712 0.950 . S
C718 C719 1.327 . S
C719 H713 0.950 . S
C719 C718 1.327 . S
C719 C723 1.429 . S
C720 C703 1.574 . S
C720 H714 0.949 . S
C720 C724 1.368 . S
C721 C702 1.429 . S
C721 C715 1.429 . S
C721 C722 1.523 . S
C722 C703 1.368 . S
C722 C716 1.368 . S
C722 C721 1.523 . S
C723 C707 1.429 . S
C723 C719 1.429 . S
C723 C724 1.523 1_556 S
C724 C708 1.368 . S
C724 C720 1.368 . S
C724 C723 1.523 1_554 S
H725 C700 0.950 . S
H726 C702 0.950 . S
H727 C703 0.949 . S
H728 C705 0.950 . S
H729 C707 0.950 . S
C730 C731 1.349 . S
C730 C732 1.327 . S
C730 H755 0.950 . S
C731 C730 1.349 . S
C731 C747 1.349 . S
C732 C730 1.327 . S
C732 C751 1.429 . S
C732 H756 0.950 . S
C733 C750 1.574 . S
C733 C752 1.368 . S
C733 H757 0.949 . S
H734 C738 0.949 . S
C735 C736 1.349 . S
C735 C737 1.327 . S
C735 H758 0.950 . S
C736 C735 1.349 . S
C736 C748 1.349 . S
C737 C735 1.327 . S
C737 C753 1.429 . S
C737 H759 0.950 . S
C738 H734 0.949 . S
C738 C746 1.574 . S
C738 C754 1.368 . S
H739 C747 0.950 . S
H740 C745 0.950 . S
H741 C746 0.949 . S
H742 C748 0.950 . S
H743 C749 0.950 . S
H744 C750 0.949 . S
C745 H740 0.950 . S
C745 C747 1.327 . S
C745 C751 1.429 . S
C746 C738 1.574 . S
C746 H741 0.949 . S
C746 C752 1.368 . S
C747 C731 1.349 . S
C747 H739 0.950 . S
C747 C745 1.327 . S
C748 C736 1.349 . S
C748 H742 0.950 . S
C748 C749 1.327 . S
C749 H743 0.950 . S
C749 C748 1.327 . S
C749 C753 1.429 . S
C750 C733 1.574 . S
C750 H744 0.949 . S
C750 C754 1.368 . S
C751 C732 1.429 . S
C751 C745 1.429 . S
C751 C752 1.523 . S
C752 C733 1.368 . S
C752 C746 1.368 . S
C752 C751 1.523 . S
C753 C737 1.429 . S
C753 C749 1.429 . S
C753 C754 1.523 . S
C754 C738 1.368 . S
C754 C750 1.368 . S
C754 C753 1.523 . S
H755 C730 0.950 . S
H756 C732 0.950 . S
H757 C733 0.949 . S
H758 C735 0.950 . S
H759 C737 0.950 . S
C760 C761 1.349 . S
C760 C762 1.327 . S
C760 H785 0.950 . S
C761 C760 1.349 . S
C761 C777 1.349 . S
C762 C760 1.327 . S
C762 C781 1.429 . S
C762 H786 0.950 . S
C763 C780 1.574 . S
C763 C782 1.368 . S
C763 H787 0.949 . S
H764 C768 0.949 . S
C765 C766 1.349 . S
C765 C767 1.327 . S
C765 H788 0.950 . S
C766 C765 1.349 . S
C766 C778 1.349 . S
C767 C765 1.327 . S
C767 C783 1.429 . S
C767 H789 0.950 . S
C768 H764 0.949 . S
C768 C776 1.574 . S
C768 C784 1.368 . S
H769 C777 0.950 . S
H770 C775 0.950 . S
H771 C776 0.949 . S
H772 C778 0.950 . S
H773 C779 0.950 . S
H774 C780 0.949 . S
C775 H770 0.950 . S
C775 C777 1.327 . S
C775 C781 1.429 . S
C776 C768 1.574 . S
C776 H771 0.949 . S
C776 C782 1.368 . S
C777 C761 1.349 . S
C777 H769 0.950 . S
C777 C775 1.327 . S
C778 C766 1.349 . S
C778 H772 0.950 . S
C778 C779 1.327 . S
C779 H773 0.950 . S
C779 C778 1.327 . S
C779 C783 1.429 . S
C780 C763 1.574 . S
C780 H774 0.949 . S
C780 C784 1.368 . S
C781 C762 1.429 . S
C781 C775 1.429 . S
C781 C782 1.523 . S
C782 C763 1.368 . S
C782 C776 1.368 . S
C782 C781 1.523 . S
C783 C767 1.429 . S
C783 C779 1.429 . S
C783 C784 1.523 . S
C784 C768 1.368 . S
C784 C780 1.368 . S
C784 C783 1.523 . S
H785 C760 0.950 . S
H786 C762 0.950 . S
H787 C763 0.949 . S
H788 C765 0.950 . S
H789 C767 0.950 . S
C790 C791 1.349 . S
C790 C792 1.327 . S
C790 H815 0.950 . S
C791 C790 1.349 . S
C791 C807 1.349 . S
C792 C790 1.327 . S
C792 C811 1.429 . S
C792 H816 0.950 . S
C793 C810 1.574 . S
C793 C812 1.368 . S
C793 H817 0.949 . S
H794 C798 0.949 . S
C795 C796 1.349 . S
C795 C797 1.327 . S
C795 H818 0.950 . S
C796 C795 1.349 . S
C796 C808 1.349 . S
C797 C795 1.327 . S
C797 C813 1.429 . S
C797 H819 0.950 . S
C798 H794 0.949 . S
C798 C806 1.574 . S
C798 C814 1.368 . S
H799 C807 0.950 . S
H800 C805 0.950 . S
H801 C806 0.949 . S
H802 C808 0.950 . S
H803 C809 0.950 . S
H804 C810 0.949 . S
C805 H800 0.950 . S
C805 C807 1.327 . S
C805 C811 1.429 . S
C806 C798 1.574 . S
C806 H801 0.949 . S
C806 C812 1.368 . S
C807 C791 1.349 . S
C807 H799 0.950 . S
C807 C805 1.327 . S
C808 C796 1.349 . S
C808 H802 0.950 . S
C808 C809 1.327 . S
C809 H803 0.950 . S
C809 C808 1.327 . S
C809 C813 1.429 . S
C810 C793 1.574 . S
C810 H804 0.949 . S
C810 C814 1.368 . S
C811 C792 1.429 . S
C811 C805 1.429 . S
C811 C812 1.523 . S
C812 C793 1.368 . S
C812 C806 1.368 . S
C812 C811 1.523 . S
C813 C797 1.429 . S
C813 C809 1.429 . S
C813 C814 1.523 . S
C814 C798 1.368 . S
C814 C810 1.368 . S
C814 C813 1.523 . S
H815 C790 0.950 . S
H816 C792 0.950 . S
H817 C793 0.949 . S
H818 C795 0.950 . S
H819 C797 0.950 . S
C820 C821 1.349 . S
C820 C822 1.327 . S
C820 H845 0.950 . S
C821 C820 1.349 . S
C821 C837 1.349 . S
C822 C820 1.327 . S
C822 C841 1.429 . S
C822 H846 0.950 . S
C823 C840 1.574 . S
C823 C842 1.368 . S
C823 H847 0.949 . S
H824 C828 0.949 . S
C825 C826 1.349 . S
C825 C827 1.327 . S
C825 H848 0.950 . S
C826 C825 1.349 . S
C826 C838 1.349 . S
C827 C825 1.327 . S
C827 C843 1.429 . S
C827 H849 0.950 . S
C828 H824 0.949 . S
C828 C836 1.574 . S
C828 C844 1.368 . S
H829 C837 0.950 . S
H830 C835 0.950 . S
H831 C836 0.949 . S
H832 C838 0.950 1_554 S
H833 C839 0.950 . S
H834 C840 0.949 . S
C835 H830 0.950 . S
C835 C837 1.327 . S
C835 C841 1.429 . S
C836 C828 1.574 . S
C836 H831 0.949 . S
C836 C842 1.368 . S
C837 C821 1.349 . S
C837 H829 0.950 . S
C837 C835 1.327 . S
C838 C826 1.349 . S
C838 H832 0.950 1_556 S
C838 C839 1.327 . S
C839 H833 0.950 . S
C839 C838 1.327 . S
C839 C843 1.429 . S
C840 C823 1.574 . S
C840 H834 0.949 . S
C840 C844 1.368 . S
C841 C822 1.429 . S
C841 C835 1.429 . S
C841 C842 1.523 . S
C842 C823 1.368 . S
C842 C836 1.368 . S
C842 C841 1.523 . S
C843 C827 1.429 . S
C843 C839 1.429 . S
C843 C844 1.523 . S
C844 C828 1.368 . S
C844 C840 1.368 . S
C844 C843 1.523 . S
H845 C820 0.950 . S
H846 C822 0.950 . S
H847 C823 0.949 . S
H848 C825 0.950 . S
H849 C827 0.950 . S
C850 C851 1.349 . S
C850 C852 1.327 . S
C850 H875 0.950 . S
C851 C850 1.349 . S
C851 C867 1.349 . S
C852 C850 1.327 . S
C852 C871 1.429 1_556 S
C852 H876 0.950 . S
C853 C870 1.574 . S
C853 C872 1.368 . S
C853 H877 0.949 . S
H854 C858 0.949 . S
C855 C856 1.349 . S
C855 C857 1.327 . S
C855 H878 0.950 . S
C856 C855 1.349 . S
C856 C868 1.349 . S
C857 C855 1.327 . S
C857 C873 1.429 . S
C857 H879 0.950 . S
C858 H854 0.949 . S
C858 C866 1.574 . S
C858 C874 1.368 . S
H859 C867 0.950 . S
H860 C865 0.950 . S
H861 C866 0.949 . S
H862 C868 0.950 . S
H863 C869 0.950 . S
H864 C870 0.949 . S
C865 H860 0.950 . S
C865 C867 1.327 . S
C865 C871 1.429 1_556 S
C866 C858 1.574 . S
C866 H861 0.949 . S
C866 C872 1.368 . S
C867 C851 1.349 . S
C867 H859 0.950 . S
C867 C865 1.327 . S
C868 C856 1.349 . S
C868 H862 0.950 . S
C868 C869 1.327 . S
C869 H863 0.950 . S
C869 C868 1.327 . S
C869 C873 1.429 . S
C870 C853 1.574 . S
C870 H864 0.949 . S
C870 C874 1.368 . S
C871 C852 1.429 1_554 S
C871 C865 1.429 1_554 S
C871 C872 1.523 . S
C872 C853 1.368 . S
C872 C866 1.368 . S
C872 C871 1.523 . S
C873 C857 1.429 . S
C873 C869 1.429 . S
C873 C874 1.523 . S
C874 C858 1.368 . S
C874 C870 1.368 . S
C874 C873 1.523 . S
H875 C850 0.950 . S
H876 C852 0.950 . S
H877 C853 0.949 . S
H878 C855 0.950 . S
H879 C857 0.950 . S
C880 C881 1.349 . S
C880 C882 1.327 . S
C880 H905 0.950 . S
C881 C880 1.349 . S
C881 C897 1.349 . S
C882 C880 1.327 . S
C882 C901 1.429 . S
C882 H906 0.950 . S
C883 C900 1.574 . S
C883 C902 1.368 . S
C883 H907 0.949 . S
H884 C888 0.949 . S
C885 C886 1.349 . S
C885 C887 1.327 . S
C885 H908 0.950 . S
C886 C885 1.349 . S
C886 C898 1.349 . S
C887 C885 1.327 . S
C887 C903 1.429 . S
C887 H909 0.950 . S
C888 H884 0.949 . S
C888 C896 1.574 . S
C888 C904 1.368 . S
H889 C897 0.950 . S
H890 C895 0.950 . S
H891 C896 0.949 . S
H892 C898 0.950 . S
H893 C899 0.950 . S
H894 C900 0.949 . S
C895 H890 0.950 . S
C895 C897 1.327 . S
C895 C901 1.429 . S
C896 C888 1.574 . S
C896 H891 0.949 . S
C896 C902 1.368 . S
C897 C881 1.349 . S
C897 H889 0.950 . S
C897 C895 1.327 . S
C898 C886 1.349 . S
C898 H892 0.950 . S
C898 C899 1.327 . S
C899 H893 0.950 . S
C899 C898 1.327 . S
C899 C903 1.429 . S
C900 C883 1.574 . S
C900 H894 0.949 . S
C900 C904 1.368 . S
C901 C882 1.429 . S
C901 C895 1.429 . S
C901 C902 1.523 . S
C902 C883 1.368 . S
C902 C896 1.368 . S
C902 C901 1.523 . S
C903 C887 1.429 . S
C903 C899 1.429 . S
C903 C904 1.523 . S
C904 C888 1.368 . S
C904 C900 1.368 . S
C904 C903 1.523 . S
H905 C880 0.950 . S
H906 C882 0.950 . S
H907 C883 0.949 . S
H908 C885 0.950 . S
H909 C887 0.950 . S
C910 C911 1.349 . S
C910 C912 1.327 . S
C910 H935 0.950 . S
C911 C910 1.349 . S
C911 C927 1.349 . S
C912 C910 1.327 . S
C912 C931 1.429 . S
C912 H936 0.950 . S
C913 C930 1.574 . S
C913 C932 1.368 . S
C913 H937 0.949 . S
H914 C918 0.949 . S
C915 C916 1.349 . S
C915 C917 1.327 1_556 S
C915 H938 0.950 . S
C916 C915 1.349 . S
C916 C928 1.349 . S
C917 C915 1.327 1_554 S
C917 C933 1.429 . S
C917 H939 0.950 . S
C918 H914 0.949 . S
C918 C926 1.574 . S
C918 C934 1.368 . S
H919 C927 0.950 . S
H920 C925 0.950 . S
H921 C926 0.949 . S
H922 C928 0.950 . S
H923 C929 0.950 . S
H924 C930 0.949 . S
C925 H920 0.950 . S
C925 C927 1.327 . S
C925 C931 1.429 . S
C926 C918 1.574 . S
C926 H921 0.949 . S
C926 C932 1.368 . S
C927 C911 1.349 . S
C927 H919 0.950 . S
C927 C925 1.327 . S
C928 C916 1.349 . S
C928 H922 0.950 . S
C928 C929 1.327 1_556 S
C929 H923 0.950 . S
C929 C928 1.327 1_554 S
C929 C933 1.429 . S
C930 C913 1.574 . S
C930 H924 0.949 . S
C930 C934 1.368 . S
C931 C912 1.429 . S
C931 C925 1.429 . S
C931 C932 1.523 . S
C932 C913 1.368 . S
C932 C926 1.368 . S
C932 C931 1.523 . S
C933 C917 1.429 . S
C933 C929 1.429 . S
C933 C934 1.523 . S
C934 C918 1.368 . S
C934 C930 1.368 . S
C934 C933 1.523 . S
H935 C910 0.950 . S
H936 C912 0.950 . S
H937 C913 0.949 . S
H938 C915 0.950 . S
H939 C917 0.950 . S
C940 C941 1.349 . S
C940 C942 1.327 . S
C940 H965 0.950 . S
C941 C940 1.349 . S
C941 C957 1.349 . S
C942 C940 1.327 . S
C942 C961 1.429 . S
C942 H966 0.950 . S
C943 C960 1.574 . S
C943 C962 1.368 . S
C943 H967 0.949 . S
H944 C948 0.949 . S
C945 C946 1.349 . S
C945 C947 1.327 . S
C945 H968 0.950 . S
C946 C945 1.349 . S
C946 C958 1.349 . S
C947 C945 1.327 . S
C947 C963 1.429 . S
C947 H969 0.950 . S
C948 H944 0.949 . S
C948 C956 1.574 . S
C948 C964 1.368 . S
H949 C957 0.950 . S
H950 C955 0.950 . S
H951 C956 0.949 . S
H952 C958 0.950 . S
H953 C959 0.950 . S
H954 C960 0.949 . S
C955 H950 0.950 . S
C955 C957 1.327 . S
C955 C961 1.429 . S
C956 C948 1.574 . S
C956 H951 0.949 . S
C956 C962 1.368 . S
C957 C941 1.349 . S
C957 H949 0.950 . S
C957 C955 1.327 . S
C958 C946 1.349 . S
C958 H952 0.950 . S
C958 C959 1.327 . S
C959 H953 0.950 . S
C959 C958 1.327 . S
C959 C963 1.429 . S
C960 C943 1.574 . S
C960 H954 0.949 . S
C960 C964 1.368 . S
C961 C942 1.429 . S
C961 C955 1.429 . S
C961 C962 1.523 1_554 S
C962 C943 1.368 . S
C962 C956 1.368 . S
C962 C961 1.523 1_556 S
C963 C947 1.429 . S
C963 C959 1.429 . S
C963 C964 1.523 . S
C964 C948 1.368 . S
C964 C960 1.368 . S
C964 C963 1.523 . S
H965 C940 0.950 . S
H966 C942 0.950 . S
H967 C943 0.949 . S
H968 C945 0.950 . S
H969 C947 0.950 . S
C970 C971 1.349 . S
C970 C972 1.327 . S
C970 H995 0.950 . S
C971 C970 1.349 . S
C971 C987 1.349 . S
C972 C970 1.327 . S
C972 C991 1.429 . S
C972 H996 0.950 . S
C973 C990 1.574 . S
C973 C992 1.368 . S
C973 H997 0.949 . S
H974 C978 0.949 . S
C975 C976 1.349 . S
C975 C977 1.327 . S
C975 H998 0.950 . S
C976 C975 1.349 . S
C976 C988 1.349 . S
C977 C975 1.327 . S
C977 C993 1.429 . S
C977 H999 0.950 . S
C978 H974 0.949 . S
C978 C986 1.574 . S
C978 C994 1.368 . S
H979 C987 0.950 . S
H980 C985 0.950 . S
H981 C986 0.949 . S
H982 C988 0.950 . S
H983 C989 0.950 . S
H984 C990 0.949 . S
C985 H980 0.950 . S
C985 C987 1.327 . S
C985 C991 1.429 . S
C986 C978 1.574 . S
C986 H981 0.949 . S
C986 C992 1.368 . S
C987 C971 1.349 . S
C987 H979 0.950 . S
C987 C985 1.327 . S
C988 C976 1.349 . S
C988 H982 0.950 . S
C988 C989 1.327 . S
C989 H983 0.950 . S
C989 C988 1.327 . S
C989 C993 1.429 . S
C990 C973 1.574 . S
C990 H984 0.949 . S
C990 C994 1.368 . S
C991 C972 1.429 . S
C991 C985 1.429 . S
C991 C992 1.523 . S
C992 C973 1.368 . S
C992 C986 1.368 . S
C992 C991 1.523 . S
C993 C977 1.429 . S
C993 C989 1.429 . S
C993 C994 1.523 . S
C994 C978 1.368 . S
C994 C990 1.368 . S
C994 C993 1.523 . S
H995 C970 0.950 . S
H996 C972 0.950 . S
H997 C973 0.949 . S
H998 C975 0.950 . S
H999 C977 0.950 . S
C1000 C1001 1.349 . S
C1000 C1002 1.327 . S
C1000 H1025 0.950 . S
C1001 C1000 1.349 . S
C1001 C1017 1.349 . S
C1002 C1000 1.327 . S
C1002 C1021 1.429 . S
C1002 H1026 0.950 . S
C1003 C1020 1.574 . S
C1003 C1022 1.368 . S
C1003 H1027 0.949 . S
H1004 C1008 0.949 . S
C1005 C1006 1.349 . S
C1005 C1007 1.327 . S
C1005 H1028 0.950 . S
C1006 C1005 1.349 . S
C1006 C1018 1.349 . S
C1007 C1005 1.327 . S
C1007 C1023 1.429 . S
C1007 H1029 0.950 . S
C1008 H1004 0.949 . S
C1008 C1016 1.574 . S
C1008 C1024 1.368 . S
H1009 C1017 0.950 . S
H1010 C1015 0.950 . S
H1011 C1016 0.949 . S
H1012 C1018 0.950 . S
H1013 C1019 0.950 . S
H1014 C1020 0.949 . S
C1015 H1010 0.950 . S
C1015 C1017 1.327 . S
C1015 C1021 1.429 . S
C1016 C1008 1.574 . S
C1016 H1011 0.949 . S
C1016 C1022 1.368 . S
C1017 C1001 1.349 . S
C1017 H1009 0.950 . S
C1017 C1015 1.327 . S
C1018 C1006 1.349 . S
C1018 H1012 0.950 . S
C1018 C1019 1.327 . S
C1019 H1013 0.950 . S
C1019 C1018 1.327 . S
C1019 C1023 1.429 . S
C1020 C1003 1.574 . S
C1020 H1014 0.949 . S
C1020 C1024 1.368 . S
C1021 C1002 1.429 . S
C1021 C1015 1.429 . S
C1021 C1022 1.523 . S
C1022 C1003 1.368 . S
C1022 C1016 1.368 . S
C1022 C1021 1.523 . S
C1023 C1007 1.429 . S
C1023 C1019 1.429 . S
C1023 C1024 1.523 . S
C1024 C1008 1.368 . S
C1024 C1020 1.368 . S
C1024 C1023 1.523 . S
H1025 C1000 0.950 . S
H1026 C1002 0.950 . S
H1027 C1003 0.949 . S
H1028 C1005 0.950 . S
H1029 C1007 0.950 . S
C1030 C1031 1.349 . S
C1030 C1032 1.327 . S
C1030 H1055 0.950 . S
C1031 C1030 1.349 . S
C1031 C1047 1.349 . S
C1032 C1030 1.327 . S
C1032 C1051 1.429 . S
C1032 H1056 0.950 . S
C1033 C1050 1.574 . S
C1033 C1052 1.368 . S
C1033 H1057 0.949 . S
H1034 C1038 0.949 . S
C1035 C1036 1.349 . S
C1035 C1037 1.327 . S
C1035 H1058 0.950 . S
C1036 C1035 1.349 . S
C1036 C1048 1.349 . S
C1037 C1035 1.327 . S
C1037 C1053 1.429 . S
C1037 H1059 0.950 . S
C1038 H1034 0.949 . S
C1038 C1046 1.574 . S
C1038 C1054 1.368 . S
H1039 C1047 0.950 . S
H1040 C1045 0.950 . S
H1041 C1046 0.949 . S
H1042 C1048 0.950 . S
H1043 C1049 0.950 . S
H1044 C1050 0.949 . S
C1045 H1040 0.950 . S
C1045 C1047 1.327 . S
C1045 C1051 1.429 . S
C1046 C1038 1.574 . S
C1046 H1041 0.949 . S
C1046 C1052 1.368 . S
C1047 C1031 1.349 . S
C1047 H1039 0.950 . S
C1047 C1045 1.327 . S
C1048 C1036 1.349 . S
C1048 H1042 0.950 . S
C1048 C1049 1.327 . S
C1049 H1043 0.950 . S
C1049 C1048 1.327 . S
C1049 C1053 1.429 . S
C1050 C1033 1.574 . S
C1050 H1044 0.949 . S
C1050 C1054 1.368 . S
C1051 C1032 1.429 . S
C1051 C1045 1.429 . S
C1051 C1052 1.523 . S
C1052 C1033 1.368 . S
C1052 C1046 1.368 . S
C1052 C1051 1.523 . S
C1053 C1037 1.429 . S
C1053 C1049 1.429 . S
C1053 C1054 1.523 . S
C1054 C1038 1.368 . S
C1054 C1050 1.368 . S
C1054 C1053 1.523 . S
H1055 C1030 0.950 . S
H1056 C1032 0.950 . S
H1057 C1033 0.949 . S
H1058 C1035 0.950 . S
H1059 C1037 0.950 . S
C1060 C1061 1.349 . S
C1060 C1062 1.327 . S
C1060 H1085 0.950 . S
C1061 C1060 1.349 . S
C1061 C1077 1.349 . S
C1062 C1060 1.327 . S
C1062 C1081 1.429 . S
C1062 H1086 0.950 . S
C1063 C1080 1.574 . S
C1063 C1082 1.368 . S
C1063 H1087 0.949 . S
H1064 C1068 0.949 . S
C1065 C1066 1.349 . S
C1065 C1067 1.327 . S
C1065 H1088 0.950 . S
C1066 C1065 1.349 . S
C1066 C1078 1.349 . S
C1067 C1065 1.327 . S
C1067 C1083 1.429 . S
C1067 H1089 0.950 . S
C1068 H1064 0.949 . S
C1068 C1076 1.574 . S
C1068 C1084 1.368 . S
H1069 C1077 0.950 . S
H1070 C1075 0.950 . S
H1071 C1076 0.949 . S
H1072 C1078 0.950 . S
H1073 C1079 0.950 . S
H1074 C1080 0.949 . S
C1075 H1070 0.950 . S
C1075 C1077 1.327 . S
C1075 C1081 1.429 . S
C1076 C1068 1.574 . S
C1076 H1071 0.949 . S
C1076 C1082 1.368 . S
C1077 C1061 1.349 . S
C1077 H1069 0.950 . S
C1077 C1075 1.327 . S
C1078 C1066 1.349 . S
C1078 H1072 0.950 . S
C1078 C1079 1.327 . S
C1079 H1073 0.950 . S
C1079 C1078 1.327 . S
C1079 C1083 1.429 . S
C1080 C1063 1.574 . S
C1080 H1074 0.949 . S
C1080 C1084 1.368 . S
C1081 C1062 1.429 . S
C1081 C1075 1.429 . S
C1081 C1082 1.523 . S
C1082 C1063 1.368 . S
C1082 C1076 1.368 . S
C1082 C1081 1.523 . S
C1083 C1067 1.429 . S
C1083 C1079 1.429 . S
C1083 C1084 1.523 . S
C1084 C1068 1.368 . S
C1084 C1080 1.368 . S
C1084 C1083 1.523 . S
H1085 C1060 0.950 . S
H1086 C1062 0.950 . S
H1087 C1063 0.949 . S
H1088 C1065 0.950 . S
H1089 C1067 0.950 . S
C1090 C1091 1.349 . S
C1090 C1092 1.327 . S
C1090 H1115 0.950 . S
C1091 C1090 1.349 . S
C1091 C1107 1.349 . S
C1092 C1090 1.327 . S
C1092 C1111 1.429 1_554 S
C1092 H1116 0.950 . S
C1093 C1110 1.574 . S
C1093 C1112 1.368 . S
C1093 H1117 0.949 . S
H1094 C1098 0.949 . S
C1095 C1096 1.349 . S
C1095 C1097 1.327 . S
C1095 H1118 0.950 . S
C1096 C1095 1.349 . S
C1096 C1108 1.349 . S
C1097 C1095 1.327 . S
C1097 C1113 1.429 . S
C1097 H1119 0.950 . S
C1098 H1094 0.949 . S
C1098 C1106 1.574 . S
C1098 C1114 1.368 . S
H1099 C1107 0.950 . S
H1100 C1105 0.950 . S
H1101 C1106 0.949 . S
H1102 C1108 0.950 . S
H1103 C1109 0.950 . S
H1104 C1110 0.949 . S
C1105 H1100 0.950 . S
C1105 C1107 1.327 . S
C1105 C1111 1.429 1_554 S
C1106 C1098 1.574 . S
C1106 H1101 0.949 . S
C1106 C1112 1.368 . S
C1107 C1091 1.349 . S
C1107 H1099 0.950 . S
C1107 C1105 1.327 . S
C1108 C1096 1.349 . S
C1108 H1102 0.950 . S
C1108 C1109 1.327 . S
C1109 H1103 0.950 . S
C1109 C1108 1.327 . S
C1109 C1113 1.429 . S
C1110 C1093 1.574 . S
C1110 H1104 0.949 . S
C1110 C1114 1.368 . S
C1111 C1092 1.429 1_556 S
C1111 C1105 1.429 1_556 S
C1111 C1112 1.523 . S
C1112 C1093 1.368 . S
C1112 C1106 1.368 . S
C1112 C1111 1.523 . S
C1113 C1097 1.429 . S
C1113 C1109 1.429 . S
C1113 C1114 1.523 . S
C1114 C1098 1.368 . S
C1114 C1110 1.368 . S
C1114 C1113 1.523 . S
H1115 C1090 0.950 . S
H1116 C1092 0.950 . S
H1117 C1093 0.949 . S
H1118 C1095 0.950 . S
H1119 C1097 0.950 . S
C1120 C1121 1.349 . S
C1120 C1122 1.327 . S
C1120 H1145 0.950 . S
C1121 C1120 1.349 . S
C1121 C1137 1.349 . S
C1122 C1120 1.327 . S
C1122 C1141 1.429 . S
C1122 H1146 0.950 . S
C1123 C1140 1.574 . S
C1123 C1142 1.368 . S
C1123 H1147 0.949 . S
H1124 C1128 0.949 . S
C1125 C1126 1.349 . S
C1125 C1127 1.327 . S
C1125 H1148 0.950 . S
C1126 C1125 1.349 . S
C1126 C1138 1.349 . S
C1127 C1125 1.327 . S
C1127 C1143 1.429 . S
C1127 H1149 0.950 . S
C1128 H1124 0.949 . S
C1128 C1136 1.574 . S
C1128 C1144 1.368 . S
H1129 C1137 0.950 . S
H1130 C1135 0.950 . S
H1131 C1136 0.949 . S
H1132 C1138 0.950 . S
H1133 C1139 0.950 . S
H1134 C1140 0.949 . S
C1135 H1130 0.950 . S
C1135 C1137 1.327 . S
C1135 C1141 1.429 . S
C1136 C1128 1.574 . S
C1136 H1131 0.949 . S
C1136 C1142 1.368 . S
C1137 C1121 1.349 . S
C1137 H1129 0.950 . S
C1137 C1135 1.327 . S
C1138 C1126 1.349 . S
C1138 H1132 0.950 . S
C1138 C1139 1.327 . S
C1139 H1133 0.950 . S
C1139 C1138 1.327 . S
C1139 C1143 1.429 . S
C1140 C1123 1.574 . S
C1140 H1134 0.949 . S
C1140 C1144 1.368 . S
C1141 C1122 1.429 . S
C1141 C1135 1.429 . S
C1141 C1142 1.523 . S
C1142 C1123 1.368 . S
C1142 C1136 1.368 . S
C1142 C1141 1.523 . S
C1143 C1127 1.429 . S
C1143 C1139 1.429 . S
C1143 C1144 1.523 . S
C1144 C1128 1.368 . S
C1144 C1140 1.368 . S
C1144 C1143 1.523 . S
H1145 C1120 0.950 . S
H1146 C1122 0.950 . S
H1147 C1123 0.949 . S
H1148 C1125 0.950 . S
H1149 C1127 0.950 . S
C1150 C1151 1.349 . S
C1150 C1152 1.327 . S
C1150 H1175 0.950 . S
C1151 C1150 1.349 . S
C1151 C1167 1.349 . S
C1152 C1150 1.327 . S
C1152 C1171 1.429 . S
C1152 H1176 0.950 . S
C1153 C1170 1.574 . S
C1153 C1172 1.368 . S
C1153 H1177 0.949 . S
H1154 C1158 0.949 . S
C1155 C1156 1.349 . S
C1155 C1157 1.327 . S
C1155 H1178 0.950 . S
C1156 C1155 1.349 . S
C1156 C1168 1.349 . S
C1157 C1155 1.327 . S
C1157 C1173 1.429 . S
C1157 H1179 0.950 . S
C1158 H1154 0.949 . S
C1158 C1166 1.574 . S
C1158 C1174 1.368 . S
H1159 C1167 0.950 . S
H1160 C1165 0.950 . S
H1161 C1166 0.949 . S
H1162 C1168 0.950 . S
H1163 C1169 0.950 . S
H1164 C1170 0.949 . S
C1165 H1160 0.950 . S
C1165 C1167 1.327 . S
C1165 C1171 1.429 . S
C1166 C1158 1.574 . S
C1166 H1161 0.949 . S
C1166 C1172 1.368 . S
C1167 C1151 1.349 . S
C1167 H1159 0.950 . S
C1167 C1165 1.327 . S
C1168 C1156 1.349 . S
C1168 H1162 0.950 . S
C1168 C1169 1.327 . S
C1169 H1163 0.950 . S
C1169 C1168 1.327 . S
C1169 C1173 1.429 . S
C1170 C1153 1.574 . S
C1170 H1164 0.949 . S
C1170 C1174 1.368 . S
C1171 C1152 1.429 . S
C1171 C1165 1.429 . S
C1171 C1172 1.523 . S
C1172 C1153 1.368 . S
C1172 C1166 1.368 . S
C1172 C1171 1.523 . S
C1173 C1157 1.429 . S
C1173 C1169 1.429 . S
C1173 C1174 1.523 . S
C1174 C1158 1.368 . S
C1174 C1170 1.368 . S
C1174 C1173 1.523 . S
H1175 C1150 0.950 . S
H1176 C1152 0.950 . S
H1177 C1153 0.949 . S
H1178 C1155 0.950 . S
H1179 C1157 0.950 . S
C1180 C1181 1.349 . S
C1180 C1182 1.327 . S
C1180 H1205 0.950 . S
C1181 C1180 1.349 . S
C1181 C1197 1.349 . S
C1182 C1180 1.327 . S
C1182 C1201 1.429 . S
C1182 H1206 0.950 . S
C1183 C1200 1.574 . S
C1183 C1202 1.368 . S
C1183 H1207 0.949 . S
H1184 C1188 0.949 . S
C1185 C1186 1.349 . S
C1185 C1187 1.327 . S
C1185 H1208 0.950 . S
C1186 C1185 1.349 . S
C1186 C1198 1.349 . S
C1187 C1185 1.327 . S
C1187 C1203 1.429 . S
C1187 H1209 0.950 . S
C1188 H1184 0.949 . S
C1188 C1196 1.574 . S
C1188 C1204 1.368 . S
H1189 C1197 0.950 . S
H1190 C1195 0.950 . S
H1191 C1196 0.949 . S
H1192 C1198 0.950 . S
H1193 C1199 0.950 . S
H1194 C1200 0.949 . S
C1195 H1190 0.950 . S
C1195 C1197 1.327 . S
C1195 C1201 1.429 . S
C1196 C1188 1.574 . S
C1196 H1191 0.949 . S
C1196 C1202 1.368 . S
C1197 C1181 1.349 . S
C1197 H1189 0.950 . S
C1197 C1195 1.327 . S
C1198 C1186 1.349 . S
C1198 H1192 0.950 . S
C1198 C1199 1.327 . S
C1199 H1193 0.950 . S
C1199 C1198 1.327 . S
C1199 C1203 1.429 . S
C1200 C1183 1.574 . S
C1200 H1194 0.949 . S
C1200 C1204 1.368 . S
C1201 C1182 1.429 . S
C1201 C1195 1.429 . S
C1201 C1202 1.523 . S
C1202 C1183 1.368 . S
C1202 C1196 1.368 . S
C1202 C1201 1.523 . S
C1203 C1187 1.429 . S
C1203 C1199 1.429 . S
C1203 C1204 1.523 . S
C1204 C1188 1.368 . S
C1204 C1200 1.368 . S
C1204 C1203 1.523 . S
H1205 C1180 0.950 . S
H1206 C1182 0.950 . S
H1207 C1183 0.949 . S
H1208 C1185 0.950 . S
H1209 C1187 0.950 . S
C1210 C1211 1.349 . S
C1210 C1212 1.327 . S
C1210 H1235 0.950 . S
C1211 C1210 1.349 . S
C1211 C1227 1.349 . S
C1212 C1210 1.327 . S
C1212 C1231 1.429 . S
C1212 H1236 0.950 . S
C1213 C1230 1.574 1_655 S
C1213 C1232 1.368 . S
C1213 H1237 0.949 . S
H1214 C1218 0.949 . S
C1215 C1216 1.349 . S
C1215 C1217 1.327 . S
C1215 H1238 0.950 . S
C1216 C1215 1.349 . S
C1216 C1228 1.349 . S
C1217 C1215 1.327 . S
C1217 C1233 1.429 . S
C1217 H1239 0.950 . S
C1218 H1214 0.949 . S
C1218 C1226 1.574 1_455 S
C1218 C1234 1.368 . S
H1219 C1227 0.950 . S
H1220 C1225 0.950 . S
H1221 C1226 0.949 . S
H1222 C1228 0.950 . S
H1223 C1229 0.950 . S
H1224 C1230 0.949 . S
C1225 H1220 0.950 . S
C1225 C1227 1.327 . S
C1225 C1231 1.429 . S
C1226 C1218 1.574 1_655 S
C1226 H1221 0.949 . S
C1226 C1232 1.368 . S
C1227 C1211 1.349 . S
C1227 H1219 0.950 . S
C1227 C1225 1.327 . S
C1228 C1216 1.349 . S
C1228 H1222 0.950 . S
C1228 C1229 1.327 . S
C1229 H1223 0.950 . S
C1229 C1228 1.327 . S
C1229 C1233 1.429 . S
C1230 C1213 1.574 1_455 S
C1230 H1224 0.949 . S
C1230 C1234 1.368 . S
C1231 C1212 1.429 . S
C1231 C1225 1.429 . S
C1231 C1232 1.523 . S
C1232 C1213 1.368 . S
C1232 C1226 1.368 . S
C1232 C1231 1.523 . S
C1233 C1217 1.429 . S
C1233 C1229 1.429 . S
C1233 C1234 1.523 . S
C1234 C1218 1.368 . S
C1234 C1230 1.368 . S
C1234 C1233 1.523 . S
H1235 C1210 0.950 . S
H1236 C1212 0.950 . S
H1237 C1213 0.949 . S
H1238 C1215 0.950 . S
H1239 C1217 0.950 . S
C1240 C1241 1.349 . S
C1240 C1242 1.327 . S
C1240 H1265 0.950 . S
C1241 C1240 1.349 . S
C1241 C1257 1.349 . S
C1242 C1240 1.327 . S
C1242 C1261 1.429 . S
C1242 H1266 0.950 . S
C1243 C1260 1.574 . S
C1243 C1262 1.368 . S
C1243 H1267 0.949 . S
H1244 C1248 0.949 . S
C1245 C1246 1.349 . S
C1245 C1247 1.327 . S
C1245 H1268 0.950 . S
C1246 C1245 1.349 . S
C1246 C1258 1.349 . S
C1247 C1245 1.327 . S
C1247 C1263 1.429 . S
C1247 H1269 0.950 . S
C1248 H1244 0.949 . S
C1248 C1256 1.574 . S
C1248 C1264 1.368 . S
H1249 C1257 0.950 . S
H1250 C1255 0.950 . S
H1251 C1256 0.949 . S
H1252 C1258 0.950 . S
H1253 C1259 0.950 . S
H1254 C1260 0.949 . S
C1255 H1250 0.950 . S
C1255 C1257 1.327 . S
C1255 C1261 1.429 . S
C1256 C1248 1.574 . S
C1256 H1251 0.949 . S
C1256 C1262 1.368 . S
C1257 C1241 1.349 . S
C1257 H1249 0.950 . S
C1257 C1255 1.327 . S
C1258 C1246 1.349 . S
C1258 H1252 0.950 . S
C1258 C1259 1.327 . S
C1259 H1253 0.950 . S
C1259 C1258 1.327 . S
C1259 C1263 1.429 . S
C1260 C1243 1.574 . S
C1260 H1254 0.949 . S
C1260 C1264 1.368 . S
C1261 C1242 1.429 . S
C1261 C1255 1.429 . S
C1261 C1262 1.523 . S
C1262 C1243 1.368 . S
C1262 C1256 1.368 . S
C1262 C1261 1.523 . S
C1263 C1247 1.429 . S
C1263 C1259 1.429 . S
C1263 C1264 1.523 . S
C1264 C1248 1.368 . S
C1264 C1260 1.368 . S
C1264 C1263 1.523 . S
H1265 C1240 0.950 . S
H1266 C1242 0.950 . S
H1267 C1243 0.949 . S
H1268 C1245 0.950 . S
H1269 C1247 0.950 . S
C1270 C1271 1.349 . S
C1270 C1272 1.327 . S
C1270 H1295 0.950 . S
C1271 C1270 1.349 . S
C1271 C1287 1.349 . S
C1272 C1270 1.327 . S
C1272 C1291 1.429 . S
C1272 H1296 0.950 . S
C1273 C1290 1.574 1_455 S
C1273 C1292 1.368 . S
C1273 H1297 0.949 . S
H1274 C1278 0.949 . S
C1275 C1276 1.349 . S
C1275 C1277 1.327 . S
C1275 H1298 0.950 . S
C1276 C1275 1.349 . S
C1276 C1288 1.349 . S
C1277 C1275 1.327 . S
C1277 C1293 1.429 . S
C1277 H1299 0.950 . S
C1278 H1274 0.949 . S
C1278 C1286 1.574 1_655 S
C1278 C1294 1.368 . S
H1279 C1287 0.950 . S
H1280 C1285 0.950 . S
H1281 C1286 0.949 . S
H1282 C1288 0.950 1_556 S
H1283 C1289 0.950 . S
H1284 C1290 0.949 . S
C1285 H1280 0.950 . S
C1285 C1287 1.327 . S
C1285 C1291 1.429 . S
C1286 C1278 1.574 1_455 S
C1286 H1281 0.949 . S
C1286 C1292 1.368 . S
C1287 C1271 1.349 . S
C1287 H1279 0.950 . S
C1287 C1285 1.327 . S
C1288 C1276 1.349 . S
C1288 H1282 0.950 1_554 S
C1288 C1289 1.327 . S
C1289 H1283 0.950 . S
C1289 C1288 1.327 . S
C1289 C1293 1.429 . S
C1290 C1273 1.574 1_655 S
C1290 H1284 0.949 . S
C1290 C1294 1.368 . S
C1291 C1272 1.429 . S
C1291 C1285 1.429 . S
C1291 C1292 1.523 . S
C1292 C1273 1.368 . S
C1292 C1286 1.368 . S
C1292 C1291 1.523 . S
C1293 C1277 1.429 . S
C1293 C1289 1.429 . S
C1293 C1294 1.523 . S
C1294 C1278 1.368 . S
C1294 C1290 1.368 . S
C1294 C1293 1.523 . S
H1295 C1270 0.950 . S
H1296 C1272 0.950 . S
H1297 C1273 0.949 . S
H1298 C1275 0.950 . S
H1299 C1277 0.950 . S
C1300 C1301 1.349 . S
C1300 C1302 1.327 . S
C1300 H1325 0.950 . S
C1301 C1300 1.349 . S
C1301 C1317 1.349 . S
C1302 C1300 1.327 . S
C1302 C1321 1.429 . S
C1302 H1326 0.950 . S
C1303 C1320 1.574 . S
C1303 C1322 1.368 . S
C1303 H1327 0.949 . S
H1304 C1308 0.949 . S
C1305 C1306 1.349 . S
C1305 C1307 1.327 . S
C1305 H1328 0.950 . S
C1306 C1305 1.349 . S
C1306 C1318 1.349 . S
C1307 C1305 1.327 . S
C1307 C1323 1.429 . S
C1307 H1329 0.950 . S
C1308 H1304 0.949 . S
C1308 C1316 1.574 . S
C1308 C1324 1.368 . S
H1309 C1317 0.950 . S
H1310 C1315 0.950 . S
H1311 C1316 0.949 . S
H1312 C1318 0.950 . S
H1313 C1319 0.950 . S
H1314 C1320 0.949 . S
C1315 H1310 0.950 . S
C1315 C1317 1.327 . S
C1315 C1321 1.429 . S
C1316 C1308 1.574 . S
C1316 H1311 0.949 . S
C1316 C1322 1.368 . S
C1317 C1301 1.349 . S
C1317 H1309 0.950 . S
C1317 C1315 1.327 . S
C1318 C1306 1.349 . S
C1318 H1312 0.950 . S
C1318 C1319 1.327 . S
C1319 H1313 0.950 . S
C1319 C1318 1.327 . S
C1319 C1323 1.429 . S
C1320 C1303 1.574 . S
C1320 H1314 0.949 . S
C1320 C1324 1.368 . S
C1321 C1302 1.429 . S
C1321 C1315 1.429 . S
C1321 C1322 1.523 . S
C1322 C1303 1.368 . S
C1322 C1316 1.368 . S
C1322 C1321 1.523 . S
C1323 C1307 1.429 . S
C1323 C1319 1.429 . S
C1323 C1324 1.523 . S
C1324 C1308 1.368 . S
C1324 C1320 1.368 . S
C1324 C1323 1.523 . S
H1325 C1300 0.950 . S
H1326 C1302 0.950 . S
H1327 C1303 0.949 . S
H1328 C1305 0.950 . S
H1329 C1307 0.950 . S
C1330 C1331 1.349 . S
C1330 C1332 1.327 . S
C1330 H1355 0.950 . S
C1331 C1330 1.349 . S
C1331 C1347 1.349 . S
C1332 C1330 1.327 . S
C1332 C1351 1.429 . S
C1332 H1356 0.950 . S
C1333 C1350 1.574 . S
C1333 C1352 1.368 . S
C1333 H1357 0.949 . S
H1334 C1338 0.949 . S
C1335 C1336 1.349 . S
C1335 C1337 1.327 . S
C1335 H1358 0.950 . S
C1336 C1335 1.349 . S
C1336 C1348 1.349 . S
C1337 C1335 1.327 . S
C1337 C1353 1.429 . S
C1337 H1359 0.950 . S
C1338 H1334 0.949 . S
C1338 C1346 1.574 . S
C1338 C1354 1.368 . S
H1339 C1347 0.950 . S
H1340 C1345 0.950 . S
H1341 C1346 0.949 . S
H1342 C1348 0.950 . S
H1343 C1349 0.950 . S
H1344 C1350 0.949 . S
C1345 H1340 0.950 . S
C1345 C1347 1.327 . S
C1345 C1351 1.429 . S
C1346 C1338 1.574 . S
C1346 H1341 0.949 . S
C1346 C1352 1.368 . S
C1347 C1331 1.349 . S
C1347 H1339 0.950 . S
C1347 C1345 1.327 . S
C1348 C1336 1.349 . S
C1348 H1342 0.950 . S
C1348 C1349 1.327 . S
C1349 H1343 0.950 . S
C1349 C1348 1.327 . S
C1349 C1353 1.429 . S
C1350 C1333 1.574 . S
C1350 H1344 0.949 . S
C1350 C1354 1.368 . S
C1351 C1332 1.429 . S
C1351 C1345 1.429 . S
C1351 C1352 1.523 . S
C1352 C1333 1.368 . S
C1352 C1346 1.368 . S
C1352 C1351 1.523 . S
C1353 C1337 1.429 . S
C1353 C1349 1.429 . S
C1353 C1354 1.523 . S
C1354 C1338 1.368 . S
C1354 C1350 1.368 . S
C1354 C1353 1.523 . S
H1355 C1330 0.950 . S
H1356 C1332 0.950 . S
H1357 C1333 0.949 . S
H1358 C1335 0.950 . S
H1359 C1337 0.950 . S
C1360 C1361 1.349 . S
C1360 C1362 1.327 . S
C1360 H1385 0.950 . S
C1361 C1360 1.349 . S
C1361 C1377 1.349 . S
C1362 C1360 1.327 . S
C1362 C1381 1.429 . S
C1362 H1386 0.950 . S
C1363 C1380 1.574 . S
C1363 C1382 1.368 . S
C1363 H1387 0.949 . S
H1364 C1368 0.949 . S
C1365 C1366 1.349 . S
C1365 C1367 1.327 . S
C1365 H1388 0.950 . S
C1366 C1365 1.349 . S
C1366 C1378 1.349 . S
C1367 C1365 1.327 . S
C1367 C1383 1.429 . S
C1367 H1389 0.950 . S
C1368 H1364 0.949 . S
C1368 C1376 1.574 . S
C1368 C1384 1.368 . S
H1369 C1377 0.950 . S
H1370 C1375 0.950 . S
H1371 C1376 0.949 . S
H1372 C1378 0.950 . S
H1373 C1379 0.950 . S
H1374 C1380 0.949 . S
C1375 H1370 0.950 . S
C1375 C1377 1.327 . S
C1375 C1381 1.429 . S
C1376 C1368 1.574 . S
C1376 H1371 0.949 . S
C1376 C1382 1.368 . S
C1377 C1361 1.349 . S
C1377 H1369 0.950 . S
C1377 C1375 1.327 . S
C1378 C1366 1.349 . S
C1378 H1372 0.950 . S
C1378 C1379 1.327 . S
C1379 H1373 0.950 . S
C1379 C1378 1.327 . S
C1379 C1383 1.429 . S
C1380 C1363 1.574 . S
C1380 H1374 0.949 . S
C1380 C1384 1.368 . S
C1381 C1362 1.429 . S
C1381 C1375 1.429 . S
C1381 C1382 1.523 . S
C1382 C1363 1.368 . S
C1382 C1376 1.368 . S
C1382 C1381 1.523 . S
C1383 C1367 1.429 . S
C1383 C1379 1.429 . S
C1383 C1384 1.523 . S
C1384 C1368 1.368 . S
C1384 C1380 1.368 . S
C1384 C1383 1.523 . S
H1385 C1360 0.950 . S
H1386 C1362 0.950 . S
H1387 C1363 0.949 . S
H1388 C1365 0.950 . S
H1389 C1367 0.950 . S
C1390 C1391 1.349 . S
C1390 C1392 1.327 . S
C1390 H1415 0.950 . S
C1391 C1390 1.349 . S
C1391 C1407 1.349 . S
C1392 C1390 1.327 . S
C1392 C1411 1.429 . S
C1392 H1416 0.950 . S
C1393 C1410 1.574 . S
C1393 C1412 1.368 . S
C1393 H1417 0.949 . S
H1394 C1398 0.949 . S
C1395 C1396 1.349 . S
C1395 C1397 1.327 . S
C1395 H1418 0.950 . S
C1396 C1395 1.349 . S
C1396 C1408 1.349 . S
C1397 C1395 1.327 . S
C1397 C1413 1.429 . S
C1397 H1419 0.950 . S
C1398 H1394 0.949 . S
C1398 C1406 1.574 . S
C1398 C1414 1.368 . S
H1399 C1407 0.950 . S
H1400 C1405 0.950 . S
H1401 C1406 0.949 . S
H1402 C1408 0.950 . S
H1403 C1409 0.950 . S
H1404 C1410 0.949 . S
C1405 H1400 0.950 . S
C1405 C1407 1.327 . S
C1405 C1411 1.429 . S
C1406 C1398 1.574 . S
C1406 H1401 0.949 . S
C1406 C1412 1.368 . S
C1407 C1391 1.349 . S
C1407 H1399 0.950 . S
C1407 C1405 1.327 . S
C1408 C1396 1.349 . S
C1408 H1402 0.950 . S
C1408 C1409 1.327 . S
C1409 H1403 0.950 . S
C1409 C1408 1.327 . S
C1409 C1413 1.429 . S
C1410 C1393 1.574 . S
C1410 H1404 0.949 . S
C1410 C1414 1.368 . S
C1411 C1392 1.429 . S
C1411 C1405 1.429 . S
C1411 C1412 1.523 . S
C1412 C1393 1.368 . S
C1412 C1406 1.368 . S
C1412 C1411 1.523 . S
C1413 C1397 1.429 . S
C1413 C1409 1.429 . S
C1413 C1414 1.523 . S
C1414 C1398 1.368 . S
C1414 C1410 1.368 . S
C1414 C1413 1.523 . S
H1415 C1390 0.950 . S
H1416 C1392 0.950 . S
H1417 C1393 0.949 . S
H1418 C1395 0.950 . S
H1419 C1397 0.950 . S
C1420 C1421 1.349 . S
C1420 C1422 1.327 . S
C1420 H1445 0.950 . S
C1421 C1420 1.349 . S
C1421 C1437 1.349 . S
C1422 C1420 1.327 . S
C1422 C1441 1.429 . S
C1422 H1446 0.950 . S
C1423 C1440 1.574 . S
C1423 C1442 1.368 . S
C1423 H1447 0.949 . S
H1424 C1428 0.949 . S
C1425 C1426 1.349 . S
C1425 C1427 1.327 . S
C1425 H1448 0.950 . S
C1426 C1425 1.349 . S
C1426 C1438 1.349 . S
C1427 C1425 1.327 . S
C1427 C1443 1.429 . S
C1427 H1449 0.950 . S
C1428 H1424 0.949 . S
C1428 C1436 1.574 . S
C1428 C1444 1.368 . S
H1429 C1437 0.950 . S
H1430 C1435 0.950 . S
H1431 C1436 0.949 . S
H1432 C1438 0.950 . S
H1433 C1439 0.950 . S
H1434 C1440 0.949 . S
C1435 H1430 0.950 . S
C1435 C1437 1.327 . S
C1435 C1441 1.429 . S
C1436 C1428 1.574 . S
C1436 H1431 0.949 . S
C1436 C1442 1.368 . S
C1437 C1421 1.349 . S
C1437 H1429 0.950 . S
C1437 C1435 1.327 . S
C1438 C1426 1.349 . S
C1438 H1432 0.950 . S
C1438 C1439 1.327 . S
C1439 H1433 0.950 . S
C1439 C1438 1.327 . S
C1439 C1443 1.429 . S
C1440 C1423 1.574 . S
C1440 H1434 0.949 . S
C1440 C1444 1.368 . S
C1441 C1422 1.429 . S
C1441 C1435 1.429 . S
C1441 C1442 1.523 . S
C1442 C1423 1.368 . S
C1442 C1436 1.368 . S
C1442 C1441 1.523 . S
C1443 C1427 1.429 . S
C1443 C1439 1.429 . S
C1443 C1444 1.523 . S
C1444 C1428 1.368 . S
C1444 C1440 1.368 . S
C1444 C1443 1.523 . S
H1445 C1420 0.950 . S
H1446 C1422 0.950 . S
H1447 C1423 0.949 . S
H1448 C1425 0.950 . S
H1449 C1427 0.950 . S
C1450 C1451 1.349 . S
C1450 C1452 1.327 . S
C1450 H1475 0.950 . S
C1451 C1450 1.349 . S
C1451 C1467 1.349 . S
C1452 C1450 1.327 . S
C1452 C1471 1.429 . S
C1452 H1476 0.950 . S
C1453 C1470 1.574 . S
C1453 C1472 1.368 . S
C1453 H1477 0.949 . S
H1454 C1458 0.949 . S
C1455 C1456 1.349 . S
C1455 C1457 1.327 . S
C1455 H1478 0.950 . S
C1456 C1455 1.349 . S
C1456 C1468 1.349 . S
C1457 C1455 1.327 . S
C1457 C1473 1.429 . S
C1457 H1479 0.950 . S
C1458 H1454 0.949 . S
C1458 C1466 1.574 . S
C1458 C1474 1.368 . S
H1459 C1467 0.950 . S
H1460 C1465 0.950 . S
H1461 C1466 0.949 . S
H1462 C1468 0.950 . S
H1463 C1469 0.950 . S
H1464 C1470 0.949 . S
C1465 H1460 0.950 . S
C1465 C1467 1.327 . S
C1465 C1471 1.429 . S
C1466 C1458 1.574 . S
C1466 H1461 0.949 . S
C1466 C1472 1.368 . S
C1467 C1451 1.349 . S
C1467 H1459 0.950 . S
C1467 C1465 1.327 . S
C1468 C1456 1.349 . S
C1468 H1462 0.950 . S
C1468 C1469 1.327 . S
C1469 H1463 0.950 . S
C1469 C1468 1.327 . S
C1469 C1473 1.429 . S
C1470 C1453 1.574 . S
C1470 H1464 0.949 . S
C1470 C1474 1.368 . S
C1471 C1452 1.429 . S
C1471 C1465 1.429 . S
C1471 C1472 1.523 . S
C1472 C1453 1.368 . S
C1472 C1466 1.368 . S
C1472 C1471 1.523 . S
C1473 C1457 1.429 . S
C1473 C1469 1.429 . S
C1473 C1474 1.523 . S
C1474 C1458 1.368 . S
C1474 C1470 1.368 . S
C1474 C1473 1.523 . S
H1475 C1450 0.950 . S
H1476 C1452 0.950 . S
H1477 C1453 0.949 . S
H1478 C1455 0.950 . S
H1479 C1457 0.950 . S
C1480 C1481 1.349 . S
C1480 C1482 1.327 . S
C1480 H1505 0.950 . S
C1481 C1480 1.349 . S
C1481 C1497 1.349 . S
C1482 C1480 1.327 . S
C1482 C1501 1.429 . S
C1482 H1506 0.950 . S
C1483 C1500 1.574 1_655 S
C1483 C1502 1.368 . S
C1483 H1507 0.949 . S
H1484 C1488 0.949 . S
C1485 C1486 1.349 . S
C1485 C1487 1.327 . S
C1485 H1508 0.950 . S
C1486 C1485 1.349 . S
C1486 C1498 1.349 . S
C1487 C1485 1.327 . S
C1487 C1503 1.429 . S
C1487 H1509 0.950 . S
C1488 H1484 0.949 . S
C1488 C1496 1.574 1_455 S
C1488 C1504 1.368 . S
H1489 C1497 0.950 1_554 S
H1490 C1495 0.950 1_554 S
H1491 C1496 0.949 . S
H1492 C1498 0.950 . S
H1493 C1499 0.950 . S
H1494 C1500 0.949 . S
C1495 H1490 0.950 1_556 S
C1495 C1497 1.327 . S
C1495 C1501 1.429 . S
C1496 C1488 1.574 1_655 S
C1496 H1491 0.949 . S
C1496 C1502 1.368 . S
C1497 C1481 1.349 . S
C1497 H1489 0.950 1_556 S
C1497 C1495 1.327 . S
C1498 C1486 1.349 . S
C1498 H1492 0.950 . S
C1498 C1499 1.327 . S
C1499 H1493 0.950 . S
C1499 C1498 1.327 . S
C1499 C1503 1.429 . S
C1500 C1483 1.574 1_455 S
C1500 H1494 0.949 . S
C1500 C1504 1.368 . S
C1501 C1482 1.429 . S
C1501 C1495 1.429 . S
C1501 C1502 1.523 . S
C1502 C1483 1.368 . S
C1502 C1496 1.368 . S
C1502 C1501 1.523 . S
C1503 C1487 1.429 . S
C1503 C1499 1.429 . S
C1503 C1504 1.523 . S
C1504 C1488 1.368 . S
C1504 C1500 1.368 . S
C1504 C1503 1.523 . S
H1505 C1480 0.950 . S
H1506 C1482 0.950 . S
H1507 C1483 0.949 . S
H1508 C1485 0.950 . S
H1509 C1487 0.950 . S
C1510 C1511 1.349 . S
C1510 C1512 1.327 . S
C1510 H1535 0.950 . S
C1511 C1510 1.349 . S
C1511 C1527 1.349 . S
C1512 C1510 1.327 . S
C1512 C1531 1.429 . S
C1512 H1536 0.950 . S
C1513 C1530 1.574 . S
C1513 C1532 1.368 . S
C1513 H1537 0.949 . S
H1514 C1518 0.949 . S
C1515 C1516 1.349 . S
C1515 C1517 1.327 . S
C1515 H1538 0.950 . S
C1516 C1515 1.349 . S
C1516 C1528 1.349 . S
C1517 C1515 1.327 . S
C1517 C1533 1.429 . S
C1517 H1539 0.950 . S
C1518 H1514 0.949 . S
C1518 C1526 1.574 . S
C1518 C1534 1.368 . S
H1519 C1527 0.950 . S
H1520 C1525 0.950 . S
H1521 C1526 0.949 . S
H1522 C1528 0.950 . S
H1523 C1529 0.950 . S
H1524 C1530 0.949 . S
C1525 H1520 0.950 . S
C1525 C1527 1.327 . S
C1525 C1531 1.429 . S
C1526 C1518 1.574 . S
C1526 H1521 0.949 . S
C1526 C1532 1.368 . S
C1527 C1511 1.349 . S
C1527 H1519 0.950 . S
C1527 C1525 1.327 . S
C1528 C1516 1.349 . S
C1528 H1522 0.950 . S
C1528 C1529 1.327 . S
C1529 H1523 0.950 . S
C1529 C1528 1.327 . S
C1529 C1533 1.429 . S
C1530 C1513 1.574 . S
C1530 H1524 0.949 . S
C1530 C1534 1.368 . S
C1531 C1512 1.429 . S
C1531 C1525 1.429 . S
C1531 C1532 1.523 . S
C1532 C1513 1.368 . S
C1532 C1526 1.368 . S
C1532 C1531 1.523 . S
C1533 C1517 1.429 . S
C1533 C1529 1.429 . S
C1533 C1534 1.523 . S
C1534 C1518 1.368 . S
C1534 C1530 1.368 . S
C1534 C1533 1.523 . S
H1535 C1510 0.950 . S
H1536 C1512 0.950 . S
H1537 C1513 0.949 . S
H1538 C1515 0.950 . S
H1539 C1517 0.950 . S
C1540 C1541 1.349 . S
C1540 C1542 1.327 . S
C1540 H1565 0.950 . S
C1541 C1540 1.349 . S
C1541 C1557 1.349 . S
C1542 C1540 1.327 . S
C1542 C1561 1.429 . S
C1542 H1566 0.950 . S
C1543 C1560 1.574 . S
C1543 C1562 1.368 . S
C1543 H1567 0.949 . S
H1544 C1548 0.949 . S
C1545 C1546 1.349 . S
C1545 C1547 1.327 . S
C1545 H1568 0.950 . S
C1546 C1545 1.349 . S
C1546 C1558 1.349 . S
C1547 C1545 1.327 . S
C1547 C1563 1.429 . S
C1547 H1569 0.950 . S
C1548 H1544 0.949 . S
C1548 C1556 1.574 . S
C1548 C1564 1.368 . S
H1549 C1557 0.950 . S
H1550 C1555 0.950 . S
H1551 C1556 0.949 . S
H1552 C1558 0.950 . S
H1553 C1559 0.950 . S
H1554 C1560 0.949 . S
C1555 H1550 0.950 . S
C1555 C1557 1.327 . S
C1555 C1561 1.429 . S
C1556 C1548 1.574 . S
C1556 H1551 0.949 . S
C1556 C1562 1.368 . S
C1557 C1541 1.349 . S
C1557 H1549 0.950 . S
C1557 C1555 1.327 . S
C1558 C1546 1.349 . S
C1558 H1552 0.950 . S
C1558 C1559 1.327 . S
C1559 H1553 0.950 . S
C1559 C1558 1.327 . S
C1559 C1563 1.429 . S
C1560 C1543 1.574 . S
C1560 H1554 0.949 . S
C1560 C1564 1.368 . S
C1561 C1542 1.429 . S
C1561 C1555 1.429 . S
C1561 C1562 1.523 . S
C1562 C1543 1.368 . S
C1562 C1556 1.368 . S
C1562 C1561 1.523 . S
C1563 C1547 1.429 . S
C1563 C1559 1.429 . S
C1563 C1564 1.523 . S
C1564 C1548 1.368 . S
C1564 C1560 1.368 . S
C1564 C1563 1.523 . S
H1565 C1540 0.950 . S
H1566 C1542 0.950 . S
H1567 C1543 0.949 . S
H1568 C1545 0.950 . S
H1569 C1547 0.950 . S
C1570 C1571 1.349 . S
C1570 C1572 1.327 . S
C1570 H1595 0.950 . S
C1571 C1570 1.349 . S
C1571 C1587 1.349 . S
C1572 C1570 1.327 . S
C1572 C1591 1.429 . S
C1572 H1596 0.950 . S
C1573 C1590 1.574 1_455 S
C1573 C1592 1.368 . S
C1573 H1597 0.949 . S
H1574 C1578 0.949 . S
C1575 C1576 1.349 . S
C1575 C1577 1.327 . S
C1575 H1598 0.950 . S
C1576 C1575 1.349 . S
C1576 C1588 1.349 . S
C1577 C1575 1.327 . S
C1577 C1593 1.429 . S
C1577 H1599 0.950 . S
C1578 H1574 0.949 . S
C1578 C1586 1.574 1_655 S
C1578 C1594 1.368 . S
H1579 C1587 0.950 . S
H1580 C1585 0.950 . S
H1581 C1586 0.949 . S
H1582 C1588 0.950 . S
H1583 C1589 0.950 . S
H1584 C1590 0.949 . S
C1585 H1580 0.950 . S
C1585 C1587 1.327 . S
C1585 C1591 1.429 . S
C1586 C1578 1.574 1_455 S
C1586 H1581 0.949 . S
C1586 C1592 1.368 . S
C1587 C1571 1.349 . S
C1587 H1579 0.950 . S
C1587 C1585 1.327 . S
C1588 C1576 1.349 . S
C1588 H1582 0.950 . S
C1588 C1589 1.327 . S
C1589 H1583 0.950 . S
C1589 C1588 1.327 . S
C1589 C1593 1.429 . S
C1590 C1573 1.574 1_655 S
C1590 H1584 0.949 . S
C1590 C1594 1.368 . S
C1591 C1572 1.429 . S
C1591 C1585 1.429 . S
C1591 C1592 1.523 . S
C1592 C1573 1.368 . S
C1592 C1586 1.368 . S
C1592 C1591 1.523 . S
C1593 C1577 1.429 . S
C1593 C1589 1.429 . S
C1593 C1594 1.523 . S
C1594 C1578 1.368 . S
C1594 C1590 1.368 . S
C1594 C1593 1.523 . S
H1595 C1570 0.950 . S
H1596 C1572 0.950 . S
H1597 C1573 0.949 . S
H1598 C1575 0.950 . S
H1599 C1577 0.950 . S
C1600 C1601 1.349 . S
C1600 C1602 1.327 . S
C1600 H1625 0.950 . S
C1601 C1600 1.349 . S
C1601 C1617 1.349 1_554 S
C1602 C1600 1.327 . S
C1602 C1621 1.429 1_554 S
C1602 H1626 0.950 . S
C1603 C1620 1.574 . S
C1603 C1622 1.368 . S
C1603 H1627 0.949 . S
H1604 C1608 0.949 . S
C1605 C1606 1.349 . S
C1605 C1607 1.327 . S
C1605 H1628 0.950 . S
C1606 C1605 1.349 . S
C1606 C1618 1.349 . S
C1607 C1605 1.327 . S
C1607 C1623 1.429 . S
C1607 H1629 0.950 . S
C1608 H1604 0.949 . S
C1608 C1616 1.574 . S
C1608 C1624 1.368 . S
H1609 C1617 0.950 . S
H1610 C1615 0.950 . S
H1611 C1616 0.949 1_554 S
H1612 C1618 0.950 . S
H1613 C1619 0.950 . S
H1614 C1620 0.949 . S
C1615 H1610 0.950 . S
C1615 C1617 1.327 . S
C1615 C1621 1.429 . S
C1616 C1608 1.574 . S
C1616 H1611 0.949 1_556 S
C1616 C1622 1.368 . S
C1617 C1601 1.349 1_556 S
C1617 H1609 0.950 . S
C1617 C1615 1.327 . S
C1618 C1606 1.349 . S
C1618 H1612 0.950 . S
C1618 C1619 1.327 . S
C1619 H1613 0.950 . S
C1619 C1618 1.327 . S
C1619 C1623 1.429 . S
C1620 C1603 1.574 . S
C1620 H1614 0.949 . S
C1620 C1624 1.368 . S
C1621 C1602 1.429 1_556 S
C1621 C1615 1.429 . S
C1621 C1622 1.523 . S
C1622 C1603 1.368 . S
C1622 C1616 1.368 . S
C1622 C1621 1.523 . S
C1623 C1607 1.429 . S
C1623 C1619 1.429 . S
C1623 C1624 1.523 . S
C1624 C1608 1.368 . S
C1624 C1620 1.368 . S
C1624 C1623 1.523 . S
H1625 C1600 0.950 . S
H1626 C1602 0.950 . S
H1627 C1603 0.949 . S
H1628 C1605 0.950 . S
H1629 C1607 0.950 . S
C1630 C1631 1.349 . S
C1630 C1632 1.327 . S
C1630 H1655 0.950 . S
C1631 C1630 1.349 . S
C1631 C1647 1.349 . S
C1632 C1630 1.327 . S
C1632 C1651 1.429 . S
C1632 H1656 0.950 . S
C1633 C1650 1.574 . S
C1633 C1652 1.368 . S
C1633 H1657 0.949 . S
H1634 C1638 0.949 . S
C1635 C1636 1.349 . S
C1635 C1637 1.327 . S
C1635 H1658 0.950 . S
C1636 C1635 1.349 . S
C1636 C1648 1.349 . S
C1637 C1635 1.327 . S
C1637 C1653 1.429 . S
C1637 H1659 0.950 . S
C1638 H1634 0.949 . S
C1638 C1646 1.574 . S
C1638 C1654 1.368 . S
H1639 C1647 0.950 . S
H1640 C1645 0.950 . S
H1641 C1646 0.949 . S
H1642 C1648 0.950 . S
H1643 C1649 0.950 . S
H1644 C1650 0.949 . S
C1645 H1640 0.950 . S
C1645 C1647 1.327 . S
C1645 C1651 1.429 . S
C1646 C1638 1.574 . S
C1646 H1641 0.949 . S
C1646 C1652 1.368 . S
C1647 C1631 1.349 . S
C1647 H1639 0.950 . S
C1647 C1645 1.327 . S
C1648 C1636 1.349 . S
C1648 H1642 0.950 . S
C1648 C1649 1.327 . S
C1649 H1643 0.950 . S
C1649 C1648 1.327 . S
C1649 C1653 1.429 . S
C1650 C1633 1.574 . S
C1650 H1644 0.949 . S
C1650 C1654 1.368 . S
C1651 C1632 1.429 . S
C1651 C1645 1.429 . S
C1651 C1652 1.523 . S
C1652 C1633 1.368 . S
C1652 C1646 1.368 . S
C1652 C1651 1.523 . S
C1653 C1637 1.429 . S
C1653 C1649 1.429 . S
C1653 C1654 1.523 . S
C1654 C1638 1.368 . S
C1654 C1650 1.368 . S
C1654 C1653 1.523 . S
H1655 C1630 0.950 . S
H1656 C1632 0.950 . S
H1657 C1633 0.949 . S
H1658 C1635 0.950 . S
H1659 C1637 0.950 . S
C1660 C1661 1.349 . S
C1660 C1662 1.327 . S
C1660 H1685 0.950 . S
C1661 C1660 1.349 . S
C1661 C1677 1.349 . S
C1662 C1660 1.327 . S
C1662 C1681 1.429 . S
C1662 H1686 0.950 . S
C1663 C1680 1.574 . S
C1663 C1682 1.368 . S
C1663 H1687 0.949 . S
H1664 C1668 0.949 . S
C1665 C1666 1.349 . S
C1665 C1667 1.327 . S
C1665 H1688 0.950 . S
C1666 C1665 1.349 . S
C1666 C1678 1.349 . S
C1667 C1665 1.327 . S
C1667 C1683 1.429 . S
C1667 H1689 0.950 . S
C1668 H1664 0.949 . S
C1668 C1676 1.574 . S
C1668 C1684 1.368 . S
H1669 C1677 0.950 . S
H1670 C1675 0.950 . S
H1671 C1676 0.949 . S
H1672 C1678 0.950 . S
H1673 C1679 0.950 . S
H1674 C1680 0.949 . S
C1675 H1670 0.950 . S
C1675 C1677 1.327 . S
C1675 C1681 1.429 . S
C1676 C1668 1.574 . S
C1676 H1671 0.949 . S
C1676 C1682 1.368 . S
C1677 C1661 1.349 . S
C1677 H1669 0.950 . S
C1677 C1675 1.327 . S
C1678 C1666 1.349 . S
C1678 H1672 0.950 . S
C1678 C1679 1.327 . S
C1679 H1673 0.950 . S
C1679 C1678 1.327 . S
C1679 C1683 1.429 . S
C1680 C1663 1.574 . S
C1680 H1674 0.949 . S
C1680 C1684 1.368 . S
C1681 C1662 1.429 . S
C1681 C1675 1.429 . S
C1681 C1682 1.523 . S
C1682 C1663 1.368 . S
C1682 C1676 1.368 . S
C1682 C1681 1.523 . S
C1683 C1667 1.429 . S
C1683 C1679 1.429 . S
C1683 C1684 1.523 . S
C1684 C1668 1.368 . S
C1684 C1680 1.368 . S
C1684 C1683 1.523 . S
H1685 C1660 0.950 . S
H1686 C1662 0.950 . S
H1687 C1663 0.949 . S
H1688 C1665 0.950 . S
H1689 C1667 0.950 . S
C1690 C1691 1.349 . S
C1690 C1692 1.327 . S
C1690 H1715 0.950 . S
C1691 C1690 1.349 . S
C1691 C1707 1.349 . S
C1692 C1690 1.327 . S
C1692 C1711 1.429 . S
C1692 H1716 0.950 . S
C1693 C1710 1.574 . S
C1693 C1712 1.368 . S
C1693 H1717 0.949 . S
H1694 C1698 0.949 . S
C1695 C1696 1.349 . S
C1695 C1697 1.327 . S
C1695 H1718 0.950 . S
C1696 C1695 1.349 . S
C1696 C1708 1.349 . S
C1697 C1695 1.327 . S
C1697 C1713 1.429 . S
C1697 H1719 0.950 . S
C1698 H1694 0.949 . S
C1698 C1706 1.574 . S
C1698 C1714 1.368 . S
H1699 C1707 0.950 . S
H1700 C1705 0.950 . S
H1701 C1706 0.949 . S
H1702 C1708 0.950 . S
H1703 C1709 0.950 . S
H1704 C1710 0.949 . S
C1705 H1700 0.950 . S
C1705 C1707 1.327 . S
C1705 C1711 1.429 . S
C1706 C1698 1.574 . S
C1706 H1701 0.949 . S
C1706 C1712 1.368 . S
C1707 C1691 1.349 . S
C1707 H1699 0.950 . S
C1707 C1705 1.327 . S
C1708 C1696 1.349 . S
C1708 H1702 0.950 . S
C1708 C1709 1.327 . S
C1709 H1703 0.950 . S
C1709 C1708 1.327 . S
C1709 C1713 1.429 . S
C1710 C1693 1.574 . S
C1710 H1704 0.949 . S
C1710 C1714 1.368 . S
C1711 C1692 1.429 . S
C1711 C1705 1.429 . S
C1711 C1712 1.523 . S
C1712 C1693 1.368 . S
C1712 C1706 1.368 . S
C1712 C1711 1.523 . S
C1713 C1697 1.429 . S
C1713 C1709 1.429 . S
C1713 C1714 1.523 . S
C1714 C1698 1.368 . S
C1714 C1710 1.368 . S
C1714 C1713 1.523 . S
H1715 C1690 0.950 . S
H1716 C1692 0.950 . S
H1717 C1693 0.949 . S
H1718 C1695 0.950 . S
H1719 C1697 0.950 . S
C1720 C1721 1.349 . S
C1720 C1722 1.327 . S
C1720 H1745 0.950 . S
C1721 C1720 1.349 . S
C1721 C1737 1.349 . S
C1722 C1720 1.327 . S
C1722 C1741 1.429 . S
C1722 H1746 0.950 . S
C1723 C1740 1.574 . S
C1723 C1742 1.368 . S
C1723 H1747 0.949 . S
H1724 C1728 0.949 . S
C1725 C1726 1.349 . S
C1725 C1727 1.318 1_556 S
C1725 H1748 0.950 . S
C1726 C1725 1.349 . S
C1726 C1738 1.349 1_556 S
C1727 C1725 1.318 1_554 S
C1727 C1743 1.438 . S
C1727 H1749 0.950 1_554 S
C1728 H1724 0.949 . S
C1728 C1736 1.574 . S
C1728 C1744 1.368 . S
H1729 C1737 0.950 . S
H1730 C1735 0.950 . S
H1731 C1736 0.949 . S
H1732 C1738 0.950 . S
H1733 C1739 0.950 . S
H1734 C1740 0.949 . S
C1735 H1730 0.950 . S
C1735 C1737 1.327 . S
C1735 C1741 1.429 . S
C1736 C1728 1.574 . S
C1736 H1731 0.949 . S
C1736 C1742 1.368 . S
C1737 C1721 1.349 . S
C1737 H1729 0.950 . S
C1737 C1735 1.327 . S
C1738 C1726 1.349 1_554 S
C1738 H1732 0.950 . S
C1738 C1739 1.327 . S
C1739 H1733 0.950 . S
C1739 C1738 1.327 . S
C1739 C1743 1.429 . S
C1740 C1723 1.574 . S
C1740 H1734 0.949 . S
C1740 C1744 1.368 . S
C1741 C1722 1.429 . S
C1741 C1735 1.429 . S
C1741 C1742 1.523 . S
C1742 C1723 1.368 . S
C1742 C1736 1.368 . S
C1742 C1741 1.523 . S
C1743 C1727 1.438 . S
C1743 C1739 1.429 . S
C1743 C1744 1.523 . S
C1744 C1728 1.368 . S
C1744 C1740 1.368 . S
C1744 C1743 1.523 . S
H1745 C1720 0.950 . S
H1746 C1722 0.950 . S
H1747 C1723 0.949 . S
H1748 C1725 0.950 . S
H1749 C1727 0.950 1_556 S
C1750 C1751 1.349 . S
C1750 C1752 1.327 . S
C1750 H1775 0.950 . S
C1751 C1750 1.349 . S
C1751 C1767 1.349 . S
C1752 C1750 1.327 . S
C1752 C1771 1.429 . S
C1752 H1776 0.950 . S
C1753 C1770 1.574 . S
C1753 C1772 1.368 . S
C1753 H1777 0.949 . S
H1754 C1758 0.949 . S
C1755 C1756 1.349 . S
C1755 C1757 1.327 . S
C1755 H1778 0.950 . S
C1756 C1755 1.349 . S
C1756 C1768 1.349 . S
C1757 C1755 1.327 . S
C1757 C1773 1.429 . S
C1757 H1779 0.950 . S
C1758 H1754 0.949 . S
C1758 C1766 1.574 . S
C1758 C1774 1.368 . S
H1759 C1767 0.950 . S
H1760 C1765 0.950 . S
H1761 C1766 0.949 . S
H1762 C1768 0.950 . S
H1763 C1769 0.950 . S
H1764 C1770 0.949 . S
C1765 H1760 0.950 . S
C1765 C1767 1.327 . S
C1765 C1771 1.429 . S
C1766 C1758 1.574 . S
C1766 H1761 0.949 . S
C1766 C1772 1.368 . S
C1767 C1751 1.349 . S
C1767 H1759 0.950 . S
C1767 C1765 1.327 . S
C1768 C1756 1.349 . S
C1768 H1762 0.950 . S
C1768 C1769 1.327 . S
C1769 H1763 0.950 . S
C1769 C1768 1.327 . S
C1769 C1773 1.429 . S
C1770 C1753 1.574 . S
C1770 H1764 0.949 . S
C1770 C1774 1.368 . S
C1771 C1752 1.429 . S
C1771 C1765 1.429 . S
C1771 C1772 1.523 . S
C1772 C1753 1.368 . S
C1772 C1766 1.368 . S
C1772 C1771 1.523 . S
C1773 C1757 1.429 . S
C1773 C1769 1.429 . S
C1773 C1774 1.523 . S
C1774 C1758 1.368 . S
C1774 C1770 1.368 . S
C1774 C1773 1.523 . S
H1775 C1750 0.950 . S
H1776 C1752 0.950 . S
H1777 C1753 0.949 . S
H1778 C1755 0.950 . S
H1779 C1757 0.950 . S
C1780 C1781 1.349 . S
C1780 C1782 1.327 . S
C1780 H1805 0.950 . S
C1781 C1780 1.349 . S
C1781 C1797 1.349 . S
C1782 C1780 1.327 . S
C1782 C1801 1.429 . S
C1782 H1806 0.950 . S
C1783 C1800 1.574 . S
C1783 C1802 1.368 . S
C1783 H1807 0.949 . S
H1784 C1788 0.949 . S
C1785 C1786 1.349 . S
C1785 C1787 1.327 . S
C1785 H1808 0.950 . S
C1786 C1785 1.349 . S
C1786 C1798 1.349 . S
C1787 C1785 1.327 . S
C1787 C1803 1.429 . S
C1787 H1809 0.950 . S
C1788 H1784 0.949 . S
C1788 C1796 1.574 . S
C1788 C1804 1.368 . S
H1789 C1797 0.950 . S
H1790 C1795 0.950 . S
H1791 C1796 0.949 . S
H1792 C1798 0.950 . S
H1793 C1799 0.950 . S
H1794 C1800 0.949 . S
C1795 H1790 0.950 . S
C1795 C1797 1.327 . S
C1795 C1801 1.429 . S
C1796 C1788 1.574 . S
C1796 H1791 0.949 . S
C1796 C1802 1.368 . S
C1797 C1781 1.349 . S
C1797 H1789 0.950 . S
C1797 C1795 1.327 . S
C1798 C1786 1.349 . S
C1798 H1792 0.950 . S
C1798 C1799 1.327 . S
C1799 H1793 0.950 . S
C1799 C1798 1.327 . S
C1799 C1803 1.429 . S
C1800 C1783 1.574 . S
C1800 H1794 0.949 . S
C1800 C1804 1.368 . S
C1801 C1782 1.429 . S
C1801 C1795 1.429 . S
C1801 C1802 1.523 . S
C1802 C1783 1.368 . S
C1802 C1796 1.368 . S
C1802 C1801 1.523 . S
C1803 C1787 1.429 . S
C1803 C1799 1.429 . S
C1803 C1804 1.523 . S
C1804 C1788 1.368 . S
C1804 C1800 1.368 . S
C1804 C1803 1.523 . S
H1805 C1780 0.950 . S
H1806 C1782 0.950 . S
H1807 C1783 0.949 . S
H1808 C1785 0.950 . S
H1809 C1787 0.950 . S
C1810 C1811 1.349 . S
C1810 C1812 1.327 . S
C1810 H1835 0.950 . S
C1811 C1810 1.349 . S
C1811 C1827 1.349 . S
C1812 C1810 1.327 . S
C1812 C1831 1.429 . S
C1812 H1836 0.950 . S
C1813 C1830 1.574 . S
C1813 C1832 1.368 . S
C1813 H1837 0.949 . S
H1814 C1818 0.949 . S
C1815 C1816 1.349 . S
C1815 C1817 1.327 . S
C1815 H1838 0.950 . S
C1816 C1815 1.349 . S
C1816 C1828 1.349 . S
C1817 C1815 1.327 . S
C1817 C1833 1.429 . S
C1817 H1839 0.950 . S
C1818 H1814 0.949 . S
C1818 C1826 1.574 . S
C1818 C1834 1.368 . S
H1819 C1827 0.950 . S
H1820 C1825 0.950 . S
H1821 C1826 0.949 . S
H1822 C1828 0.950 . S
H1823 C1829 0.950 . S
H1824 C1830 0.949 . S
C1825 H1820 0.950 . S
C1825 C1827 1.327 . S
C1825 C1831 1.429 . S
C1826 C1818 1.574 . S
C1826 H1821 0.949 . S
C1826 C1832 1.368 . S
C1827 C1811 1.349 . S
C1827 H1819 0.950 . S
C1827 C1825 1.327 . S
C1828 C1816 1.349 . S
C1828 H1822 0.950 . S
C1828 C1829 1.327 . S
C1829 H1823 0.950 . S
C1829 C1828 1.327 . S
C1829 C1833 1.429 . S
C1830 C1813 1.574 . S
C1830 H1824 0.949 . S
C1830 C1834 1.368 . S
C1831 C1812 1.429 . S
C1831 C1825 1.429 . S
C1831 C1832 1.523 . S
C1832 C1813 1.368 . S
C1832 C1826 1.368 . S
C1832 C1831 1.523 . S
C1833 C1817 1.429 . S
C1833 C1829 1.429 . S
C1833 C1834 1.523 . S
C1834 C1818 1.368 . S
C1834 C1830 1.368 . S
C1834 C1833 1.523 . S
H1835 C1810 0.950 . S
H1836 C1812 0.950 . S
H1837 C1813 0.949 . S
H1838 C1815 0.950 . S
H1839 C1817 0.950 . S
C1840 C1841 1.349 . S
C1840 C1842 1.327 . S
C1840 H1865 0.950 . S
C1841 C1840 1.349 . S
C1841 C1857 1.349 . S
C1842 C1840 1.327 . S
C1842 C1861 1.429 . S
C1842 H1866 0.950 . S
C1843 C1860 1.574 1_565 S
C1843 C1862 1.368 . S
C1843 H1867 0.949 . S
H1844 C1848 0.949 . S
C1845 C1846 1.349 . S
C1845 C1847 1.327 . S
C1845 H1868 0.950 . S
C1846 C1845 1.349 . S
C1846 C1858 1.349 . S
C1847 C1845 1.327 . S
C1847 C1863 1.429 . S
C1847 H1869 0.950 . S
C1848 H1844 0.949 . S
C1848 C1856 1.574 . S
C1848 C1864 1.368 . S
H1849 C1857 0.950 . S
H1850 C1855 0.950 . S
H1851 C1856 0.949 . S
H1852 C1858 0.950 . S
H1853 C1859 0.950 . S
H1854 C1860 0.949 . S
C1855 H1850 0.950 . S
C1855 C1857 1.327 . S
C1855 C1861 1.429 . S
C1856 C1848 1.574 . S
C1856 H1851 0.949 . S
C1856 C1862 1.368 1_545 S
C1857 C1841 1.349 . S
C1857 H1849 0.950 . S
C1857 C1855 1.327 . S
C1858 C1846 1.349 . S
C1858 H1852 0.950 . S
C1858 C1859 1.327 . S
C1859 H1853 0.950 . S
C1859 C1858 1.327 . S
C1859 C1863 1.429 . S
C1860 C1843 1.574 1_545 S
C1860 H1854 0.949 . S
C1860 C1864 1.368 . S
C1861 C1842 1.429 . S
C1861 C1855 1.429 . S
C1861 C1862 1.523 . S
C1862 C1843 1.368 . S
C1862 C1856 1.368 1_565 S
C1862 C1861 1.523 . S
C1863 C1847 1.429 . S
C1863 C1859 1.429 . S
C1863 C1864 1.523 . S
C1864 C1848 1.368 . S
C1864 C1860 1.368 . S
C1864 C1863 1.523 . S
H1865 C1840 0.950 . S
H1866 C1842 0.950 . S
H1867 C1843 0.949 . S
H1868 C1845 0.950 . S
H1869 C1847 0.950 . S
C1870 C1871 1.349 . S
C1870 C1872 1.327 . S
C1870 H1895 0.950 . S
C1871 C1870 1.349 . S
C1871 C1887 1.349 . S
C1872 C1870 1.327 . S
C1872 C1891 1.429 . S
C1872 H1896 0.950 . S
C1873 C1890 1.574 . S
C1873 C1892 1.368 . S
C1873 H1897 0.949 . S
H1874 C1878 0.949 . S
C1875 C1876 1.349 . S
C1875 C1877 1.327 . S
C1875 H1898 0.950 . S
C1876 C1875 1.349 . S
C1876 C1888 1.349 . S
C1877 C1875 1.327 . S
C1877 C1893 1.429 . S
C1877 H1899 0.950 . S
C1878 H1874 0.949 . S
C1878 C1886 1.574 . S
C1878 C1894 1.368 . S
H1879 C1887 0.950 . S
H1880 C1885 0.950 . S
H1881 C1886 0.949 . S
H1882 C1888 0.950 . S
H1883 C1889 0.950 . S
H1884 C1890 0.949 . S
C1885 H1880 0.950 . S
C1885 C1887 1.327 . S
C1885 C1891 1.429 . S
C1886 C1878 1.574 . S
C1886 H1881 0.949 . S
C1886 C1892 1.368 . S
C1887 C1871 1.349 . S
C1887 H1879 0.950 . S
C1887 C1885 1.327 . S
C1888 C1876 1.349 . S
C1888 H1882 0.950 . S
C1888 C1889 1.327 . S
C1889 H1883 0.950 . S
C1889 C1888 1.327 . S
C1889 C1893 1.429 . S
C1890 C1873 1.574 . S
C1890 H1884 0.949 . S
C1890 C1894 1.368 . S
C1891 C1872 1.429 . S
C1891 C1885 1.429 . S
C1891 C1892 1.523 . S
C1892 C1873 1.368 . S
C1892 C1886 1.368 . S
C1892 C1891 1.523 . S
C1893 C1877 1.429 . S
C1893 C1889 1.429 . S
C1893 C1894 1.523 . S
C1894 C1878 1.368 . S
C1894 C1890 1.368 . S
C1894 C1893 1.523 . S
H1895 C1870 0.950 . S
H1896 C1872 0.950 . S
H1897 C1873 0.949 . S
H1898 C1875 0.950 . S
H1899 C1877 0.950 . S
C1900 C1901 1.349 . S
C1900 C1902 1.327 1_554 S
C1900 H1925 0.950 1_554 S
C1901 C1900 1.349 . S
C1901 C1917 1.349 . S
C1902 C1900 1.327 1_556 S
C1902 C1921 1.429 1_556 S
C1902 H1926 0.950 . S
C1903 C1920 1.583 1_565 S
C1903 C1922 1.368 1_554 S
C1903 H1927 0.949 . S
H1904 C1908 0.949 . S
C1905 C1906 1.349 . S
C1905 C1907 1.327 . S
C1905 H1928 0.950 . S
C1906 C1905 1.349 . S
C1906 C1918 1.349 . S
C1907 C1905 1.327 . S
C1907 C1923 1.429 . S
C1907 H1929 0.950 . S
C1908 H1904 0.949 . S
C1908 C1916 1.574 1_545 S
C1908 C1924 1.368 . S
H1909 C1917 0.950 . S
H1910 C1915 0.950 . S
H1911 C1916 0.949 . S
H1912 C1918 0.950 . S
H1913 C1919 0.950 . S
H1914 C1920 0.962 . S
C1915 H1910 0.950 . S
C1915 C1917 1.327 . S
C1915 C1921 1.429 . S
C1916 C1908 1.574 1_565 S
C1916 H1911 0.949 . S
C1916 C1922 1.368 . S
C1917 C1901 1.349 . S
C1917 H1909 0.950 . S
C1917 C1915 1.327 . S
C1918 C1906 1.349 . S
C1918 H1912 0.950 . S
C1918 C1919 1.327 . S
C1919 H1913 0.950 . S
C1919 C1918 1.327 . S
C1919 C1923 1.429 . S
C1920 C1903 1.583 1_545 S
C1920 H1914 0.962 . S
C1920 C1924 1.345 1_554 S
C1921 C1902 1.429 1_554 S
C1921 C1915 1.429 . S
C1921 C1922 1.523 1_554 S
C1922 C1903 1.368 1_556 S
C1922 C1916 1.368 . S
C1922 C1921 1.523 1_556 S
C1923 C1907 1.429 . S
C1923 C1919 1.429 . S
C1923 C1924 1.523 . S
C1924 C1908 1.368 . S
C1924 C1920 1.345 1_556 S
C1924 C1923 1.523 . S
H1925 C1900 0.950 1_556 S
H1926 C1902 0.950 . S
H1927 C1903 0.949 . S
H1928 C1905 0.950 . S
H1929 C1907 0.950 . S
C1930 C1931 1.349 . S
C1930 C1932 1.327 . S
C1930 H1955 0.950 . S
C1931 C1930 1.349 . S
C1931 C1947 1.349 . S
C1932 C1930 1.327 . S
C1932 C1951 1.429 . S
C1932 H1956 0.950 . S
C1933 C1950 1.574 . S
C1933 C1952 1.368 . S
C1933 H1957 0.949 . S
H1934 C1938 0.949 . S
C1935 C1936 1.349 . S
C1935 C1937 1.327 . S
C1935 H1958 0.950 . S
C1936 C1935 1.349 . S
C1936 C1948 1.349 . S
C1937 C1935 1.327 . S
C1937 C1953 1.429 . S
C1937 H1959 0.950 . S
C1938 H1934 0.949 . S
C1938 C1946 1.574 . S
C1938 C1954 1.368 . S
H1939 C1947 0.950 . S
H1940 C1945 0.950 . S
H1941 C1946 0.949 . S
H1942 C1948 0.950 . S
H1943 C1949 0.950 . S
H1944 C1950 0.949 . S
C1945 H1940 0.950 . S
C1945 C1947 1.327 . S
C1945 C1951 1.429 . S
C1946 C1938 1.574 . S
C1946 H1941 0.949 . S
C1946 C1952 1.368 . S
C1947 C1931 1.349 . S
C1947 H1939 0.950 . S
C1947 C1945 1.327 . S
C1948 C1936 1.349 . S
C1948 H1942 0.950 . S
C1948 C1949 1.327 . S
C1949 H1943 0.950 . S
C1949 C1948 1.327 . S
C1949 C1953 1.429 . S
C1950 C1933 1.574 . S
C1950 H1944 0.949 . S
C1950 C1954 1.368 . S
C1951 C1932 1.429 . S
C1951 C1945 1.429 . S
C1951 C1952 1.523 . S
C1952 C1933 1.368 . S
C1952 C1946 1.368 . S
C1952 C1951 1.523 . S
C1953 C1937 1.429 . S
C1953 C1949 1.429 . S
C1953 C1954 1.523 . S
C1954 C1938 1.368 . S
C1954 C1950 1.368 . S
C1954 C1953 1.523 . S
H1955 C1930 0.950 . S
H1956 C1932 0.950 . S
H1957 C1933 0.949 . S
H1958 C1935 0.950 . S
H1959 C1937 0.950 . S
C1960 C1961 1.349 . S
C1960 C1962 1.327 . S
C1960 H1985 0.950 . S
C1961 C1960 1.349 . S
C1961 C1977 1.349 . S
C1962 C1960 1.327 . S
C1962 C1981 1.429 . S
C1962 H1986 0.950 . S
C1963 C1980 1.574 1_565 S
C1963 C1982 1.368 . S
C1963 H1987 0.949 . S
H1964 C1968 0.941 1_545 S
C1965 C1966 1.349 . S
C1965 C1967 1.327 . S
C1965 H1988 0.950 . S
C1966 C1965 1.349 . S
C1966 C1978 1.349 . S
C1967 C1965 1.327 . S
C1967 C1983 1.429 . S
C1967 H1989 0.950 . S
C1968 H1964 0.941 1_565 S
C1968 C1976 1.574 . S
C1968 C1984 1.368 1_565 S
H1969 C1977 0.950 . S
H1970 C1975 0.950 . S
H1971 C1976 0.949 . S
H1972 C1978 0.950 . S
H1973 C1979 0.950 . S
H1974 C1980 0.949 . S
C1975 H1970 0.950 . S
C1975 C1977 1.327 . S
C1975 C1981 1.429 . S
C1976 C1968 1.574 . S
C1976 H1971 0.949 . S
C1976 C1982 1.368 . S
C1977 C1961 1.349 . S
C1977 H1969 0.950 . S
C1977 C1975 1.327 . S
C1978 C1966 1.349 . S
C1978 H1972 0.950 . S
C1978 C1979 1.327 . S
C1979 H1973 0.950 . S
C1979 C1978 1.327 . S
C1979 C1983 1.429 . S
C1980 C1963 1.574 1_545 S
C1980 H1974 0.949 . S
C1980 C1984 1.368 . S
C1981 C1962 1.429 . S
C1981 C1975 1.429 . S
C1981 C1982 1.523 . S
C1982 C1963 1.368 . S
C1982 C1976 1.368 . S
C1982 C1981 1.523 . S
C1983 C1967 1.429 . S
C1983 C1979 1.429 . S
C1983 C1984 1.523 . S
C1984 C1968 1.368 1_545 S
C1984 C1980 1.368 . S
C1984 C1983 1.523 . S
H1985 C1960 0.950 . S
H1986 C1962 0.950 . S
H1987 C1963 0.949 . S
H1988 C1965 0.950 . S
H1989 C1967 0.950 . S
C1990 C1991 1.349 . S
C1990 C1992 1.327 . S
C1990 H2015 0.950 . S
C1991 C1990 1.349 . S
C1991 C2007 1.349 . S
C1992 C1990 1.327 . S
C1992 C2011 1.429 . S
C1992 H2016 0.950 . S
C1993 C2010 1.574 . S
C1993 C2012 1.368 . S
C1993 H2017 0.949 . S
H1994 C1998 0.949 . S
C1995 C1996 1.349 . S
C1995 C1997 1.327 . S
C1995 H2018 0.950 . S
C1996 C1995 1.349 . S
C1996 C2008 1.349 . S
C1997 C1995 1.327 . S
C1997 C2013 1.429 . S
C1997 H2019 0.950 . S
C1998 H1994 0.949 . S
C1998 C2006 1.574 . S
C1998 C2014 1.368 . S
H1999 C2007 0.950 . S
H2000 C2005 0.950 . S
H2001 C2006 0.949 . S
H2002 C2008 0.950 . S
H2003 C2009 0.950 . S
H2004 C2010 0.949 . S
C2005 H2000 0.950 . S
C2005 C2007 1.327 . S
C2005 C2011 1.429 . S
C2006 C1998 1.574 . S
C2006 H2001 0.949 . S
C2006 C2012 1.368 . S
C2007 C1991 1.349 . S
C2007 H1999 0.950 . S
C2007 C2005 1.327 . S
C2008 C1996 1.349 . S
C2008 H2002 0.950 . S
C2008 C2009 1.327 . S
C2009 H2003 0.950 . S
C2009 C2008 1.327 . S
C2009 C2013 1.429 . S
C2010 C1993 1.574 . S
C2010 H2004 0.949 . S
C2010 C2014 1.368 . S
C2011 C1992 1.429 . S
C2011 C2005 1.429 . S
C2011 C2012 1.523 . S
C2012 C1993 1.368 . S
C2012 C2006 1.368 . S
C2012 C2011 1.523 . S
C2013 C1997 1.429 . S
C2013 C2009 1.429 . S
C2013 C2014 1.523 . S
C2014 C1998 1.368 . S
C2014 C2010 1.368 . S
C2014 C2013 1.523 . S
H2015 C1990 0.950 . S
H2016 C1992 0.950 . S
H2017 C1993 0.949 . S
H2018 C1995 0.950 . S
H2019 C1997 0.950 . S
C2020 C2021 1.349 . S
C2020 C2022 1.327 1_556 S
C2020 H2045 0.950 1_556 S
C2021 C2020 1.349 . S
C2021 C2037 1.349 . S
C2022 C2020 1.327 1_554 S
C2022 C2041 1.429 1_554 S
C2022 H2046 0.950 . S
C2023 C2040 1.578 1_545 S
C2023 C2042 1.368 1_556 S
C2023 H2047 0.949 . S
H2024 C2028 0.949 . S
C2025 C2026 1.349 . S
C2025 C2027 1.327 . S
C2025 H2048 0.950 . S
C2026 C2025 1.349 . S
C2026 C2038 1.349 . S
C2027 C2025 1.327 . S
C2027 C2043 1.429 . S
C2027 H2049 0.950 . S
C2028 H2024 0.949 . S
C2028 C2036 1.574 1_565 S
C2028 C2044 1.368 . S
H2029 C2037 0.950 . S
H2030 C2035 0.950 . S
H2031 C2036 0.949 . S
H2032 C2038 0.950 . S
H2033 C2039 0.950 . S
H2034 C2040 0.955 . S
C2035 H2030 0.950 . S
C2035 C2037 1.327 . S
C2035 C2041 1.429 . S
C2036 C2028 1.574 1_545 S
C2036 H2031 0.949 . S
C2036 C2042 1.368 . S
C2037 C2021 1.349 . S
C2037 H2029 0.950 . S
C2037 C2035 1.327 . S
C2038 C2026 1.349 . S
C2038 H2032 0.950 . S
C2038 C2039 1.327 . S
C2039 H2033 0.950 . S
C2039 C2038 1.327 . S
C2039 C2043 1.429 . S
C2040 C2023 1.578 1_565 S
C2040 H2034 0.955 . S
C2040 C2044 1.358 1_556 S
C2041 C2022 1.429 1_556 S
C2041 C2035 1.429 . S
C2041 C2042 1.523 1_556 S
C2042 C2023 1.368 1_554 S
C2042 C2036 1.368 . S
C2042 C2041 1.523 1_554 S
C2043 C2027 1.429 . S
C2043 C2039 1.429 . S
C2043 C2044 1.523 . S
C2044 C2028 1.368 . S
C2044 C2040 1.358 1_554 S
C2044 C2043 1.523 . S
H2045 C2020 0.950 1_554 S
H2046 C2022 0.950 . S
H2047 C2023 0.949 . S
H2048 C2025 0.950 . S
H2049 C2027 0.950 . S
C2050 C2051 1.349 . S
C2050 C2052 1.327 . S
C2050 H2075 0.950 . S
C2051 C2050 1.349 . S
C2051 C2067 1.349 . S
C2052 C2050 1.327 . S
C2052 C2071 1.429 . S
C2052 H2076 0.950 . S
C2053 C2070 1.574 . S
C2053 C2072 1.368 . S
C2053 H2077 0.949 . S
H2054 C2058 0.949 . S
C2055 C2056 1.349 . S
C2055 C2057 1.327 . S
C2055 H2078 0.950 . S
C2056 C2055 1.349 . S
C2056 C2068 1.349 . S
C2057 C2055 1.327 . S
C2057 C2073 1.429 . S
C2057 H2079 0.950 . S
C2058 H2054 0.949 . S
C2058 C2066 1.574 . S
C2058 C2074 1.368 . S
H2059 C2067 0.950 . S
H2060 C2065 0.950 . S
H2061 C2066 0.949 . S
H2062 C2068 0.950 . S
H2063 C2069 0.950 . S
H2064 C2070 0.949 . S
C2065 H2060 0.950 . S
C2065 C2067 1.327 . S
C2065 C2071 1.429 . S
C2066 C2058 1.574 . S
C2066 H2061 0.949 . S
C2066 C2072 1.368 . S
C2067 C2051 1.349 . S
C2067 H2059 0.950 . S
C2067 C2065 1.327 . S
C2068 C2056 1.349 . S
C2068 H2062 0.950 . S
C2068 C2069 1.327 . S
C2069 H2063 0.950 . S
C2069 C2068 1.327 . S
C2069 C2073 1.429 . S
C2070 C2053 1.574 . S
C2070 H2064 0.949 . S
C2070 C2074 1.368 . S
C2071 C2052 1.429 . S
C2071 C2065 1.429 . S
C2071 C2072 1.523 . S
C2072 C2053 1.368 . S
C2072 C2066 1.368 . S
C2072 C2071 1.523 . S
C2073 C2057 1.429 . S
C2073 C2069 1.429 . S
C2073 C2074 1.523 . S
C2074 C2058 1.368 . S
C2074 C2070 1.368 . S
C2074 C2073 1.523 . S
H2075 C2050 0.950 . S
H2076 C2052 0.950 . S
H2077 C2053 0.949 . S
H2078 C2055 0.950 . S
H2079 C2057 0.950 . S
C641 C17 1.547 . S
C646 C26 1.547 . S
C671 C57 1.479 . S
C676 C66 1.479 . S
C701 C97 1.577 . S
C706 C106 1.577 . S
C731 C137 1.584 . S
C736 C146 1.584 . S
C761 C186 1.455 . S
C766 C177 1.455 . S
C791 C226 1.568 . S
C796 C217 1.568 . S
C821 C266 1.545 . S
C826 C257 1.545 1_556 S
C851 C306 1.484 . S
C856 C297 1.484 . S
C881 C346 1.547 . S
C886 C337 1.547 . S
C911 C377 1.479 . S
C916 C386 1.479 . S
C941 C417 1.577 . S
C946 C426 1.577 . S
C971 C466 1.584 . S
C976 C457 1.584 . S
C1001 C497 1.455 . S
C1006 C506 1.455 . S
C1031 C546 1.568 . S
C1036 C537 1.568 . S
C1061 C577 1.545 . S
C1066 C586 1.545 1_554 S
C1091 C617 1.484 . S
C1096 C626 1.484 . S
C1121 C13 1.618 . S
C1126 C463 1.552 . S
C1151 C53 1.795 . S
C1156 C623 1.718 . S
C1181 C93 1.730 . S
C1186 C383 1.675 . S
C1211 C133 1.816 . S
C1216 C544 1.806 . S
C1241 C162 1.616 . S
C1246 C543 1.666 . S
C1271 C464 1.816 . S
C1276 C213 1.806 . S
C1301 C242 1.651 . S
C1306 C624 1.751 . S
C1331 C282 1.718 . S
C1336 C384 1.795 . S
C1361 C122 1.552 . S
C1366 C344 1.618 . S
C1391 C42 1.675 . S
C1396 C424 1.731 . S
C1421 C503 1.615 . S
C1426 C202 1.666 . S
C1451 C293 1.751 . S
C1456 C583 1.652 . S
C1481 C343 1.716 . S
C1486 C173 1.815 . S
C1511 C253 1.754 . S
C1516 C423 1.668 . S
C1541 C82 1.668 . S
C1546 C584 1.754 . S
C1571 C2 1.716 . S
C1576 C504 1.815 . S
C1601 C24 1.694 . S
C1606 C183 1.694 . S
C1631 C64 1.756 . S
C1636 C224 1.748 . S
C1661 C104 1.725 . S
C1666 C263 1.724 . S
C1691 C144 1.731 . S
C1696 C303 1.738 . S
C1721 C482 1.694 . S
C1726 C333 1.694 . S
C1751 C533 1.748 . S
C1756 C373 1.756 . S
C1781 C413 1.725 . S
C1786 C562 1.724 . S
C1811 C602 1.738 . S
C1816 C453 1.731 . S
C1841 C63 1.830 . S
C1846 C304 1.828 . S
C1871 C184 1.920 . S
C1876 C103 1.926 . S
C1901 C223 1.492 . S
C1906 C143 1.496 . S
C1931 C23 1.657 . S
C1936 C264 1.655 . S
C1961 C613 1.828 . S
C1966 C362 1.831 . S
C1991 C493 1.920 . S
C1996 C402 1.926 . S
C2021 C522 1.492 . S
C2026 C442 1.496 . S
C2051 C573 1.655 . S
C2056 C322 1.657 . S
