# Generated by pormake.
# Topology umo, (4)-cn, num edge types: 1
# Building blocks:
#     Node 0, Type 0, BuildingBlock: MUDLON_clean_sbu_0, # of connection points: 4
#     Node 1, Type 0, BuildingBlock: MUDLON_clean_sbu_0, # of connection points: 4
#     Node 2, Type 0, BuildingBlock: MUDLON_clean_sbu_0, # of connection points: 4
#     Node 3, Type 0, BuildingBlock: MUDLON_clean_sbu_0, # of connection points: 4
#     Node 4, Type 0, BuildingBlock: MUDLON_clean_sbu_0, # of connection points: 4
#     Node 5, Type 0, BuildingBlock: MUDLON_clean_sbu_0, # of connection points: 4
#     Node 6, Type 0, BuildingBlock: MUDLON_clean_sbu_0, # of connection points: 4
#     Node 7, Type 0, BuildingBlock: MUDLON_clean_sbu_0, # of connection points: 4
#     Node 8, Type 0, BuildingBlock: MUDLON_clean_sbu_0, # of connection points: 4
#     Node 9, Type 0, BuildingBlock: MUDLON_clean_sbu_0, # of connection points: 4
#     Node 10, Type 0, BuildingBlock: MUDLON_clean_sbu_0, # of connection points: 4
#     Node 11, Type 0, BuildingBlock: MUDLON_clean_sbu_0, # of connection points: 4
#     Edge 12, Type (0, 0), BuildingBlock: UVAHIK_clean_linker_0, # of connection points: 2
#     Edge 13, Type (0, 0), BuildingBlock: UVAHIK_clean_linker_0, # of connection points: 2
#     Edge 14, Type (0, 0), BuildingBlock: UVAHIK_clean_linker_0, # of connection points: 2
#     Edge 15, Type (0, 0), BuildingBlock: UVAHIK_clean_linker_0, # of connection points: 2
#     Edge 16, Type (0, 0), BuildingBlock: UVAHIK_clean_linker_0, # of connection points: 2
#     Edge 17, Type (0, 0), BuildingBlock: UVAHIK_clean_linker_0, # of connection points: 2
#     Edge 18, Type (0, 0), BuildingBlock: UVAHIK_clean_linker_0, # of connection points: 2
#     Edge 19, Type (0, 0), BuildingBlock: UVAHIK_clean_linker_0, # of connection points: 2
#     Edge 20, Type (0, 0), BuildingBlock: UVAHIK_clean_linker_0, # of connection points: 2
#     Edge 21, Type (0, 0), BuildingBlock: UVAHIK_clean_linker_0, # of connection points: 2
#     Edge 22, Type (0, 0), BuildingBlock: UVAHIK_clean_linker_0, # of connection points: 2
#     Edge 23, Type (0, 0), BuildingBlock: UVAHIK_clean_linker_0, # of connection points: 2
#     Edge 24, Type (0, 0), BuildingBlock: UVAHIK_clean_linker_0, # of connection points: 2
#     Edge 25, Type (0, 0), BuildingBlock: UVAHIK_clean_linker_0, # of connection points: 2
#     Edge 26, Type (0, 0), BuildingBlock: UVAHIK_clean_linker_0, # of connection points: 2
#     Edge 27, Type (0, 0), BuildingBlock: UVAHIK_clean_linker_0, # of connection points: 2
#     Edge 28, Type (0, 0), BuildingBlock: UVAHIK_clean_linker_0, # of connection points: 2
#     Edge 29, Type (0, 0), BuildingBlock: UVAHIK_clean_linker_0, # of connection points: 2
#     Edge 30, Type (0, 0), BuildingBlock: UVAHIK_clean_linker_0, # of connection points: 2
#     Edge 31, Type (0, 0), BuildingBlock: UVAHIK_clean_linker_0, # of connection points: 2
#     Edge 32, Type (0, 0), BuildingBlock: UVAHIK_clean_linker_0, # of connection points: 2
#     Edge 33, Type (0, 0), BuildingBlock: UVAHIK_clean_linker_0, # of connection points: 2
#     Edge 34, Type (0, 0), BuildingBlock: UVAHIK_clean_linker_0, # of connection points: 2
#     Edge 35, Type (0, 0), BuildingBlock: UVAHIK_clean_linker_0, # of connection points: 2
# Relax obj value: 0.142
# Max RMSD: 0.179
# Mean RMSD: 0.179
data_MOF--net-umo--node1-MUDLON_clean_sbu_0--edge1-UVAHIK_clean_linker_0
_symmetry_space_group_name_H-M    P1
_symmetry_Int_Tables_number       1
_symmetry_cell_setting            triclinic
loop_
_symmetry_equiv_pos_as_xyz
'x, y, z'
_cell_length_a     64.358969
_cell_length_b     64.374562
_cell_length_c     50.868404
_cell_angle_alpha  90.053315
_cell_angle_beta   89.998852
_cell_angle_gamma 120.06049
loop_
_atom_site_label
_atom_site_type_symbol
_atom_site_fract_x
_atom_site_fract_y
_atom_site_fract_z
_atom_type_partial_charge
Mg0 Mg 0.15689 0.55075 0.41287 0.0
C1 C 0.178 0.56915 0.46594 0.0
O2 O 0.19431 0.5858 0.45069 0.0
C3 C 0.16938 0.52604 0.37052 0.0
O4 O 0.14644 0.51727 0.3656 0.0
C5 C 0.1029 0.52338 0.41902 0.0
O6 O 0.10871 0.5297 0.44369 0.0
O7 O 0.11944 0.52967 0.40201 0.0
O8 O 0.1607 0.55064 0.45536 0.0
O9 O 0.16958 0.58801 0.40411 0.0
C10 C 0.18183 0.59818 0.38372 0.0
O11 O 0.18478 0.58511 0.36588 0.0
O12 O 0.17866 0.53986 0.39023 0.0
Mg13 Mg 0.60492 0.15659 0.5788 0.0
C14 C 0.6078 0.17818 0.63152 0.0
O15 O 0.60721 0.19417 0.61598 0.0
C16 C 0.63822 0.17051 0.53295 0.0
O17 O 0.62029 0.14976 0.52521 0.0
C18 C 0.5766 0.10271 0.58496 0.0
O19 O 0.57405 0.10872 0.60893 0.0
O20 O 0.58871 0.11911 0.56834 0.0
O21 O 0.60912 0.16085 0.62123 0.0
O22 O 0.58014 0.16907 0.57002 0.0
C23 C 0.58217 0.18149 0.5498 0.0
O24 O 0.59817 0.18466 0.53187 0.0
O25 O 0.63747 0.17803 0.55589 0.0
Mg26 Mg 0.44336 0.60857 0.74594 0.0
C27 C 0.43418 0.59109 0.79938 0.0
O28 O 0.42849 0.57232 0.78444 0.0
C29 C 0.46688 0.64407 0.70229 0.0
O30 O 0.47419 0.62875 0.69726 0.0
C31 C 0.4567 0.57556 0.71811 0.0
O32 O 0.43609 0.56895 0.70644 0.0
O33 O 0.46419 0.59185 0.73558 0.0
O34 O 0.44294 0.61157 0.78846 0.0
O35 O 0.40591 0.58463 0.73719 0.0
C36 C 0.39596 0.58648 0.71648 0.0
O37 O 0.40926 0.60203 0.69838 0.0
O38 O 0.45459 0.64116 0.72299 0.0
Mg39 Mg 0.83535 0.44576 0.91373 0.0
C40 C 0.81493 0.4271 0.96699 0.0
O41 O 0.79848 0.41041 0.95185 0.0
C42 C 0.82139 0.46801 0.87022 0.0
O43 O 0.8434 0.47429 0.8632 0.0
C44 C 0.8815 0.46155 0.88419 0.0
O45 O 0.86755 0.44172 0.87115 0.0
O46 O 0.87277 0.4676 0.90312 0.0
O47 O 0.83204 0.44567 0.95629 0.0
O48 O 0.82268 0.40853 0.90455 0.0
C49 C 0.81026 0.39848 0.88419 0.0
O50 O 0.80734 0.4117 0.86654 0.0
O51 O 0.81324 0.45667 0.89171 0.0
Mg52 Mg 0.39004 0.83722 0.07819 0.0
C53 C 0.3871 0.81729 0.13187 0.0
O54 O 0.38644 0.8002 0.11712 0.0
C55 C 0.34833 0.82354 0.04006 0.0
O56 O 0.35846 0.84695 0.03779 0.0
C57 C 0.41387 0.88038 0.04268 0.0
O58 O 0.40993 0.86366 0.02534 0.0
O59 O 0.40726 0.87441 0.06634 0.0
O60 O 0.38676 0.83482 0.12076 0.0
O61 O 0.41371 0.82338 0.06982 0.0
C62 C 0.41051 0.81014 0.04997 0.0
O63 O 0.39411 0.80703 0.03257 0.0
O64 O 0.35679 0.81487 0.05658 0.0
Mg65 Mg 0.55276 0.39077 0.24227 0.0
C66 C 0.56941 0.40931 0.29524 0.0
O67 O 0.5812 0.42793 0.27973 0.0
C68 C 0.52231 0.34798 0.20639 0.0
O69 O 0.50823 0.35729 0.2066 0.0
C70 C 0.53107 0.4128 0.20745 0.0
O71 O 0.54271 0.40799 0.18945 0.0
O72 O 0.53214 0.40753 0.23128 0.0
O73 O 0.55425 0.38928 0.28502 0.0
O74 O 0.58984 0.4138 0.23121 0.0
C75 C 0.59909 0.41012 0.21097 0.0
O76 O 0.58517 0.39309 0.19444 0.0
O77 O 0.5408 0.35709 0.2211 0.0
Mg78 Mg 0.45008 0.81857 0.4558 0.0
C79 C 0.45851 0.83809 0.40259 0.0
O80 O 0.45288 0.85197 0.41614 0.0
C81 C 0.44571 0.77652 0.48724 0.0
O82 O 0.42448 0.76583 0.47601 0.0
C83 C 0.4628 0.85766 0.49641 0.0
O84 O 0.45173 0.83913 0.51221 0.0
O85 O 0.46439 0.85413 0.47211 0.0
O86 O 0.46132 0.82247 0.4149 0.0
O87 O 0.41127 0.80101 0.45268 0.0
C88 C 0.40249 0.7867 0.4333 0.0
O89 O 0.41691 0.78272 0.41858 0.0
O90 O 0.46057 0.79822 0.48137 0.0
Mg91 Mg 0.62659 0.4486 0.62759 0.0
C92 C 0.61018 0.44478 0.57442 0.0
O93 O 0.59111 0.43277 0.58931 0.0
C94 C 0.65345 0.45551 0.67611 0.0
O95 O 0.63076 0.44407 0.68318 0.0
C96 C 0.60646 0.48098 0.63436 0.0
O97 O 0.62252 0.49231 0.61591 0.0
O98 O 0.6041 0.46158 0.6436 0.0
O99 O 0.6306 0.45636 0.58558 0.0
O100 O 0.60779 0.40978 0.62742 0.0
C101 C 0.61661 0.40143 0.611 0.0
O102 O 0.63646 0.41646 0.59862 0.0
O103 O 0.65844 0.46098 0.65198 0.0
Mg104 Mg 0.17655 0.63533 0.78931 0.0
C105 C 0.1584 0.62257 0.73593 0.0
O106 O 0.14591 0.60289 0.74975 0.0
C107 C 0.20099 0.66003 0.83766 0.0
O108 O 0.19214 0.63711 0.84274 0.0
C109 C 0.12466 0.61796 0.79991 0.0
O110 O 0.12963 0.63591 0.78396 0.0
O111 O 0.1412 0.61355 0.80603 0.0
O112 O 0.17278 0.64182 0.74804 0.0
O113 O 0.19442 0.6145 0.78662 0.0
C114 C 0.21002 0.62134 0.76844 0.0
O115 O 0.21488 0.64065 0.75495 0.0
O116 O 0.19748 0.66599 0.81495 0.0
Mg117 Mg 0.54023 0.17841 0.95603 0.0
C118 C 0.53868 0.16224 0.90246 0.0
O119 O 0.54803 0.15187 0.91657 0.0
C120 C 0.53946 0.21965 0.98494 0.0
O121 O 0.55913 0.23249 0.97122 0.0
C122 C 0.5085 0.12529 0.96168 0.0
O123 O 0.49759 0.12947 0.94231 0.0
O124 O 0.5271 0.14274 0.97188 0.0
O125 O 0.5312 0.17471 0.91429 0.0
O126 O 0.57918 0.19776 0.95476 0.0
C127 C 0.588 0.21293 0.93616 0.0
O128 O 0.57347 0.21684 0.92156 0.0
O129 O 0.52744 0.19707 0.98133 0.0
Mg130 Mg 0.36016 0.54118 0.12727 0.0
C131 C 0.37767 0.5444 0.07449 0.0
O132 O 0.39653 0.55397 0.09004 0.0
C133 C 0.3244 0.51851 0.1712 0.0
O134 O 0.33993 0.51178 0.17758 0.0
C135 C 0.38007 0.50823 0.13135 0.0
O136 O 0.36631 0.49943 0.11052 0.0
O137 O 0.38094 0.52604 0.14321 0.0
O138 O 0.35692 0.53486 0.08494 0.0
O139 O 0.3805 0.57999 0.12777 0.0
C140 C 0.37183 0.5888 0.11175 0.0
O141 O 0.3515 0.57421 0.09986 0.0
O142 O 0.32747 0.53006 0.1499 0.0
Mg143 Mg 0.81886 0.36354 0.28936 0.0
C144 C 0.83803 0.37465 0.23623 0.0
O145 O 0.85162 0.39423 0.24983 0.0
C146 C 0.78165 0.33402 0.32934 0.0
O147 O 0.77865 0.35267 0.32709 0.0
C148 C 0.85786 0.38906 0.33047 0.0
O149 O 0.83938 0.38042 0.34648 0.0
O150 O 0.85432 0.38483 0.30599 0.0
O151 O 0.82274 0.35598 0.24854 0.0
O152 O 0.80182 0.38506 0.28478 0.0
C153 C 0.78606 0.3775 0.2667 0.0
O154 O 0.78078 0.35744 0.25452 0.0
O155 O 0.79722 0.33291 0.31489 0.0
C156 C 0.19527 0.6384 0.40388 0.0
C157 C 0.19695 0.62463 0.38339 0.0
C158 C 0.21307 0.66235 0.40725 0.0
C159 C 0.26895 0.71241 0.37794 0.0
H160 H 0.29288 0.71969 0.44931 0.0
C161 C 0.36845 0.76217 0.40303 0.0
C162 C 0.37665 0.77471 0.42688 0.0
C163 C 0.34406 0.74979 0.39703 0.0
C164 C 0.28623 0.71837 0.42945 0.0
H165 H 0.21722 0.62589 0.34876 0.0
H166 H 0.2484 0.66744 0.35485 0.0
H167 H 0.25288 0.6872 0.43888 0.0
H168 H 0.3658 0.78488 0.46274 0.0
H169 H 0.32283 0.76286 0.45231 0.0
H170 H 0.30301 0.74287 0.36833 0.0
C171 C 0.23333 0.65987 0.36829 0.0
C172 C 0.26322 0.69971 0.42343 0.0
C173 C 0.21549 0.63594 0.36487 0.0
C174 C 0.35997 0.77524 0.44429 0.0
C175 C 0.33542 0.76266 0.43832 0.0
C176 C 0.29199 0.73108 0.38397 0.0
C177 C 0.23291 0.67299 0.39023 0.0
C178 C 0.25471 0.69591 0.3974 0.0
C179 C 0.32722 0.74956 0.41474 0.0
C180 C 0.30123 0.7336 0.40956 0.0
H181 H 0.181 0.6303 0.41828 0.0
H182 H 0.212 0.67214 0.42403 0.0
H183 H 0.26272 0.7102 0.35779 0.0
H184 H 0.38085 0.76155 0.38908 0.0
H185 H 0.33835 0.73956 0.37892 0.0
C186 C 0.57914 0.21617 0.53248 0.0
C187 C 0.57111 0.19683 0.55002 0.0
C188 C 0.57355 0.23422 0.53682 0.0
C189 C 0.56265 0.26197 0.59363 0.0
H190 H 0.56435 0.30603 0.54066 0.0
C191 C 0.58476 0.35857 0.61901 0.0
C192 C 0.60383 0.37578 0.60375 0.0
C193 C 0.57299 0.33433 0.61172 0.0
C194 C 0.56363 0.29377 0.55569 0.0
H195 H 0.54846 0.17967 0.58393 0.0
H196 H 0.5383 0.21095 0.59116 0.0
H197 H 0.55532 0.26581 0.52773 0.0
H198 H 0.62499 0.38125 0.5685 0.0
H199 H 0.60458 0.33923 0.55593 0.0
H200 H 0.57198 0.29029 0.62138 0.0
C201 C 0.54953 0.21256 0.57454 0.0
C202 C 0.55851 0.27079 0.5483 0.0
C203 C 0.55526 0.19457 0.5703 0.0
C204 C 0.6105 0.36842 0.58082 0.0
C205 C 0.59859 0.34437 0.5734 0.0
C206 C 0.56761 0.28489 0.60103 0.0
C207 C 0.55963 0.23319 0.55866 0.0
C208 C 0.55904 0.25501 0.56701 0.0
C209 C 0.57985 0.32704 0.58884 0.0
C210 C 0.5692 0.30135 0.58196 0.0
H211 H 0.59126 0.21837 0.51656 0.0
H212 H 0.58176 0.24987 0.52422 0.0
H213 H 0.56349 0.25044 0.60857 0.0
H214 H 0.57918 0.36377 0.63672 0.0
H215 H 0.55861 0.32128 0.62398 0.0
C216 C 0.23522 0.61284 0.73816 0.0
C217 C 0.22194 0.60757 0.76156 0.0
C218 C 0.24718 0.60055 0.73159 0.0
C219 C 0.27636 0.57135 0.76241 0.0
H220 H 0.28472 0.55779 0.69008 0.0
C221 C 0.35549 0.55953 0.73593 0.0
C222 C 0.36955 0.57537 0.71586 0.0
C223 C 0.33158 0.55356 0.73919 0.0
C224 C 0.28247 0.56131 0.7104 0.0
H225 H 0.21012 0.58474 0.79606 0.0
H226 H 0.23152 0.56341 0.7847 0.0
H227 H 0.25278 0.56627 0.70115 0.0
H228 H 0.36887 0.59525 0.6818 0.0
H229 H 0.32745 0.58527 0.68774 0.0
H230 H 0.30686 0.56794 0.77153 0.0
C231 C 0.23255 0.57707 0.77147 0.0
C232 C 0.26419 0.56615 0.71673 0.0
C233 C 0.22034 0.58927 0.77797 0.0
C234 C 0.35858 0.58316 0.69757 0.0
C235 C 0.33471 0.57728 0.70092 0.0
C236 C 0.29466 0.56658 0.75608 0.0
C237 C 0.24626 0.58277 0.74831 0.0
C238 C 0.26164 0.57223 0.74261 0.0
C239 C 0.32132 0.56337 0.72252 0.0
C240 C 0.29857 0.56253 0.72982 0.0
H241 H 0.23664 0.62669 0.72496 0.0
H242 H 0.25793 0.60568 0.71385 0.0
H243 H 0.27497 0.57614 0.78249 0.0
H244 H 0.36332 0.55289 0.7501 0.0
H245 H 0.32157 0.54237 0.75567 0.0
C246 C 0.79634 0.35816 0.9042 0.0
C247 C 0.79478 0.37208 0.88384 0.0
C248 C 0.77816 0.33439 0.90776 0.0
C249 C 0.72104 0.28527 0.87928 0.0
H250 H 0.69853 0.27894 0.95117 0.0
C251 C 0.62202 0.23825 0.90629 0.0
C252 C 0.61386 0.22522 0.92982 0.0
C253 C 0.64634 0.25032 0.9 0.0
C254 C 0.70476 0.28001 0.93116 0.0
H255 H 0.77434 0.37121 0.84955 0.0
H256 H 0.74252 0.33002 0.85596 0.0
H257 H 0.73881 0.3105 0.94008 0.0
H258 H 0.62472 0.21406 0.96493 0.0
H259 H 0.66761 0.23564 0.95406 0.0
H260 H 0.68629 0.25557 0.8702 0.0
C261 C 0.75776 0.3373 0.86917 0.0
C262 C 0.72793 0.29811 0.92477 0.0
C263 C 0.77598 0.36104 0.86556 0.0
C264 C 0.63053 0.22409 0.94673 0.0
C265 C 0.65502 0.23639 0.9405 0.0
C266 C 0.69783 0.26718 0.88568 0.0
C267 C 0.75807 0.3241 0.89105 0.0
C268 C 0.73597 0.30158 0.89855 0.0
C269 C 0.66316 0.24977 0.91713 0.0
C270 C 0.68913 0.26504 0.91148 0.0
H271 H 0.81081 0.36603 0.91842 0.0
H272 H 0.77916 0.32451 0.92447 0.0
H273 H 0.72687 0.2872 0.85901 0.0
H274 H 0.60965 0.23935 0.8927 0.0
H275 H 0.65205 0.26081 0.88209 0.0
C276 C 0.41188 0.77445 0.03292 0.0
C277 C 0.42082 0.79414 0.05012 0.0
C278 C 0.41701 0.75606 0.03718 0.0
C279 C 0.42855 0.72848 0.09361 0.0
H280 H 0.42483 0.68345 0.04061 0.0
C281 C 0.40475 0.63139 0.11919 0.0
C282 C 0.38514 0.6144 0.10434 0.0
C283 C 0.41693 0.65559 0.11173 0.0
C284 C 0.42613 0.69598 0.05564 0.0
H285 H 0.44446 0.81144 0.08334 0.0
H286 H 0.45375 0.77953 0.09046 0.0
H287 H 0.43429 0.72375 0.02753 0.0
H288 H 0.36345 0.60925 0.06961 0.0
H289 H 0.38456 0.65114 0.05675 0.0
H290 H 0.41933 0.70035 0.12154 0.0
C291 C 0.44222 0.77795 0.07415 0.0
C292 C 0.43149 0.71901 0.04816 0.0
C293 C 0.43698 0.79628 0.06998 0.0
C294 C 0.37835 0.62191 0.08162 0.0
C295 C 0.39065 0.64589 0.07403 0.0
C296 C 0.42334 0.70551 0.10109 0.0
C297 C 0.43133 0.75709 0.05861 0.0
C298 C 0.43167 0.73514 0.06692 0.0
C299 C 0.40993 0.66302 0.08907 0.0
C300 C 0.42101 0.68871 0.08203 0.0
H301 H 0.3995 0.77231 0.01733 0.0
H302 H 0.40819 0.74023 0.02487 0.0
H303 H 0.42829 0.74031 0.10859 0.0
H304 H 0.41043 0.62606 0.13672 0.0
H305 H 0.43172 0.66849 0.12369 0.0
C306 C 0.77596 0.41008 0.27393 0.0
C307 C 0.77416 0.39103 0.25868 0.0
C308 C 0.76359 0.42189 0.26649 0.0
C309 C 0.73069 0.4297 0.21072 0.0
H310 H 0.68933 0.43106 0.26522 0.0
C311 C 0.6358 0.41178 0.19224 0.0
C312 C 0.62546 0.42093 0.20972 0.0
C313 C 0.65969 0.41764 0.19534 0.0
C314 C 0.70116 0.43151 0.2498 0.0
H315 H 0.75894 0.37015 0.22314 0.0
H316 H 0.73737 0.39045 0.21042 0.0
H317 H 0.72151 0.42351 0.27698 0.0
H318 H 0.6328 0.44563 0.24213 0.0
H319 H 0.67457 0.45606 0.24729 0.0
H320 H 0.70944 0.43643 0.18338 0.0
C321 C 0.7484 0.39648 0.22795 0.0
C322 C 0.71963 0.42713 0.25659 0.0
C323 C 0.76054 0.38461 0.23545 0.0
C324 C 0.64014 0.43796 0.2286 0.0
C325 C 0.66405 0.44388 0.23164 0.0
C326 C 0.71222 0.43411 0.20392 0.0
C327 C 0.74948 0.41501 0.24355 0.0
C328 C 0.7339 0.42514 0.237 0.0
C329 C 0.67372 0.43287 0.21589 0.0
C330 C 0.69661 0.43404 0.22328 0.0
H331 H 0.78645 0.41549 0.29186 0.0
H332 H 0.76479 0.43616 0.27886 0.0
H333 H 0.74174 0.42871 0.19526 0.0
H334 H 0.62502 0.39874 0.17737 0.0
H335 H 0.6665 0.40872 0.18291 0.0
C336 C 0.17796 0.63818 0.69201 0.0
C337 C 0.15872 0.62079 0.70693 0.0
C338 C 0.18005 0.6342 0.66529 0.0
C339 C 0.14627 0.59589 0.60827 0.0
H340 H 0.20894 0.60873 0.58482 0.0
C341 C 0.1583 0.55811 0.51033 0.0
C342 C 0.1777 0.5739 0.49444 0.0
C343 C 0.15657 0.5642 0.53633 0.0
C344 C 0.19137 0.60525 0.59096 0.0
H345 H 0.12596 0.58622 0.70524 0.0
H346 H 0.12956 0.57933 0.65893 0.0
H347 H 0.20422 0.62041 0.62909 0.0
H348 H 0.21101 0.60807 0.49381 0.0
H349 H 0.20793 0.61868 0.53901 0.0
H350 H 0.13336 0.58058 0.57026 0.0
C351 C 0.14303 0.59606 0.66767 0.0
C352 C 0.18868 0.61204 0.61631 0.0
C353 C 0.14102 0.59998 0.69431 0.0
C354 C 0.19582 0.59546 0.50548 0.0
C355 C 0.1941 0.60154 0.53147 0.0
C356 C 0.14895 0.5891 0.58296 0.0
C357 C 0.16285 0.61284 0.65296 0.0
C358 C 0.16605 0.60727 0.62535 0.0
C359 C 0.17422 0.58621 0.54705 0.0
C360 C 0.17149 0.59352 0.57404 0.0
H361 H 0.19195 0.65436 0.7012 0.0
H362 H 0.19537 0.64762 0.65441 0.0
H363 H 0.12865 0.59224 0.61447 0.0
H364 H 0.14406 0.54133 0.50248 0.0
H365 H 0.14125 0.55177 0.54796 0.0
C366 C 0.59882 0.19608 0.67059 0.0
C367 C 0.60295 0.17827 0.66001 0.0
C368 C 0.59124 0.19466 0.69661 0.0
C369 C 0.56072 0.15036 0.74959 0.0
H370 H 0.58316 0.20667 0.79386 0.0
C371 C 0.54485 0.14501 0.86134 0.0
C372 C 0.54043 0.16204 0.87347 0.0
C373 C 0.55021 0.14658 0.8346 0.0
C374 C 0.57642 0.19083 0.7816 0.0
H375 H 0.60331 0.14551 0.6689 0.0
H376 H 0.59053 0.14327 0.71448 0.0
H377 H 0.59891 0.21089 0.74935 0.0
H378 H 0.53727 0.19359 0.86684 0.0
H379 H 0.54658 0.1963 0.8198 0.0
H380 H 0.53847 0.13027 0.78195 0.0
C381 C 0.59267 0.15809 0.70245 0.0
C382 C 0.58552 0.19323 0.7561 0.0
C383 C 0.60023 0.1595 0.67639 0.0
C384 C 0.54048 0.18014 0.858 0.0
C385 C 0.54605 0.18183 0.83116 0.0
C386 C 0.55168 0.14797 0.77507 0.0
C387 C 0.58763 0.17541 0.71273 0.0
C388 C 0.57793 0.17299 0.73985 0.0
C389 C 0.55141 0.16529 0.81928 0.0
C390 C 0.55956 0.16813 0.79147 0.0
H391 H 0.60068 0.21077 0.65853 0.0
H392 H 0.58738 0.20821 0.70378 0.0
H393 H 0.55406 0.13447 0.73743 0.0
H394 H 0.54493 0.13083 0.87272 0.0
H395 H 0.55445 0.13368 0.82618 0.0
C396 C 0.36227 0.54245 0.02845 0.0
C397 C 0.38126 0.5473 0.04567 0.0
C398 C 0.36668 0.54764 1.00156 0.0
C399 C 0.41605 0.58564 0.95568 0.0
H400 H 0.37454 0.54133 0.90226 0.0
C401 C 0.43158 0.60672 0.844 0.0
C402 C 0.42856 0.58767 0.82785 0.0
C403 C 0.42479 0.60269 0.87052 0.0
C404 C 0.38635 0.55388 0.91695 0.0
H405 H 0.41957 0.56057 0.04801 0.0
H406 H 0.42709 0.56921 1.00146 0.0
H407 H 0.36433 0.53194 0.9486 0.0
H408 H 0.41648 0.54955 0.82709 0.0
H409 H 0.40507 0.54269 0.87309 0.0
H410 H 0.43846 0.60722 0.92413 0.0
C411 C 0.40891 0.56194 1.00866 0.0
C412 C 0.38034 0.5486 0.9435 0.0
C413 C 0.40453 0.55677 0.03536 0.0
C414 C 0.41896 0.56465 0.83888 0.0
C415 C 0.41219 0.56064 0.86526 0.0
C416 C 0.42203 0.59093 0.92916 0.0
C417 C 0.39015 0.55782 0.99147 0.0
C418 C 0.39536 0.56421 0.96319 0.0
C419 C 0.41481 0.57952 0.88138 0.0
C420 C 0.40747 0.57491 0.90949 0.0
H421 H 0.34416 0.53528 0.03582 0.0
H422 H 0.35184 0.5443 0.98881 0.0
H423 H 0.4278 0.59825 0.97037 0.0
H424 H 0.43883 0.62465 0.83607 0.0
H425 H 0.42696 0.61762 0.8824 0.0
C426 C 0.8177 0.35898 0.19262 0.0
C427 C 0.83736 0.37623 0.20722 0.0
C428 C 0.81527 0.36288 0.16597 0.0
C429 C 0.84848 0.40076 0.10847 0.0
H430 H 0.78556 0.38806 0.08617 0.0
C431 C 0.83511 0.43831 0.01114 0.0
C432 C 0.81558 0.42241 0.99543 0.0
C433 C 0.83718 0.43229 0.03705 0.0
C434 C 0.80319 0.39151 0.092 0.0
H435 H 0.87048 0.41045 0.20496 0.0
H436 H 0.86625 0.41721 0.15881 0.0
H437 H 0.79086 0.3766 0.13029 0.0
H438 H 0.78238 0.38813 0.99507 0.0
H439 H 0.78603 0.37768 0.04016 0.0
H440 H 0.86086 0.41586 0.0703 0.0
C441 C 0.85273 0.40063 0.16775 0.0
C442 C 0.80622 0.38484 0.11726 0.0
C443 C 0.85511 0.39679 0.1943 0.0
C444 C 0.79767 0.40082 1.00659 0.0
C445 C 0.79972 0.39483 0.03251 0.0
C446 C 0.84546 0.40745 0.08326 0.0
C447 C 0.83251 0.38402 0.15338 0.0
C448 C 0.82894 0.38954 0.12588 0.0
C449 C 0.81974 0.41027 0.04788 0.0
C450 C 0.82282 0.40308 0.07476 0.0
H451 H 0.80366 0.343 0.20201 0.0
H452 H 0.79966 0.34955 0.15536 0.0
H453 H 0.86615 0.40433 0.11432 0.0
H454 H 0.8492 0.45511 1.0032 0.0
H455 H 0.8526 0.4448 0.04853 0.0
C456 C 0.39624 0.83777 0.17587 0.0
C457 C 0.39207 0.81792 0.16042 0.0
C458 C 0.40387 0.83965 0.20197 0.0
C459 C 0.40835 0.80486 0.25759 0.0
H460 H 0.45945 0.86715 0.28054 0.0
C461 C 0.45389 0.81789 0.35893 0.0
C462 C 0.45656 0.83762 0.37355 0.0
C463 C 0.44793 0.81573 0.33219 0.0
C464 C 0.44508 0.84967 0.2745 0.0
H465 H 0.39175 0.78404 0.16066 0.0
H466 H 0.40509 0.7874 0.20603 0.0
H467 H 0.44343 0.86237 0.23614 0.0
H468 H 0.45633 0.87115 0.37125 0.0
H469 H 0.446 0.8674 0.32488 0.0
H470 H 0.4099 0.79221 0.29604 0.0
C471 C 0.40237 0.80146 0.19807 0.0
C472 C 0.43582 0.84694 0.24908 0.0
C473 C 0.39477 0.79958 0.17199 0.0
C474 C 0.45439 0.85571 0.36058 0.0
C475 C 0.44855 0.85361 0.33391 0.0
C476 C 0.41761 0.80759 0.28304 0.0
C477 C 0.40746 0.82173 0.21323 0.0
C478 C 0.41722 0.82454 0.24035 0.0
C479 C 0.44468 0.83332 0.31952 0.0
C480 C 0.43598 0.83007 0.29187 0.0
H481 H 0.39427 0.85219 0.16762 0.0
H482 H 0.40719 0.8553 0.21326 0.0
H483 H 0.39387 0.78741 0.2516 0.0
H484 H 0.45536 0.8036 0.36836 0.0
H485 H 0.44542 0.80005 0.32156 0.0
C486 C 0.59518 0.43246 0.33319 0.0
C487 C 0.57446 0.41205 0.32382 0.0
C488 C 0.60016 0.43579 0.36005 0.0
C489 C 0.58377 0.40392 0.4243 0.0
H490 H 0.61235 0.46863 0.45218 0.0
C491 C 0.58581 0.42427 0.5347 0.0
C492 C 0.6076 0.44224 0.54548 0.0
C493 C 0.58307 0.42071 0.5076 0.0
C494 C 0.60463 0.45052 0.44462 0.0
H495 H 0.54272 0.379 0.33534 0.0
H496 H 0.55095 0.38513 0.3825 0.0
H497 H 0.60419 0.46177 0.40523 0.0
H498 H 0.64356 0.47074 0.53618 0.0
H499 H 0.63854 0.46482 0.48836 0.0
H500 H 0.58352 0.39271 0.464 0.0
C501 C 0.56369 0.39836 0.36899 0.0
C502 C 0.59997 0.44653 0.41768 0.0
C503 C 0.55886 0.39488 0.34197 0.0
C504 C 0.62656 0.4568 0.52844 0.0
C505 C 0.62367 0.45344 0.50114 0.0
C506 C 0.58817 0.4079 0.45127 0.0
C507 C 0.58437 0.41896 0.37839 0.0
C508 C 0.58943 0.42316 0.40713 0.0
C509 C 0.60193 0.43519 0.49051 0.0
C510 C 0.59856 0.43123 0.46171 0.0
H511 H 0.60776 0.44591 0.31972 0.0
H512 H 0.61653 0.45156 0.36638 0.0
H513 H 0.57608 0.38576 0.41692 0.0
H514 H 0.57083 0.41263 0.54721 0.0
H515 H 0.56603 0.40673 0.49997 0.0
C516 C 0.88703 0.40833 0.36764 0.0
C517 C 0.88265 0.40336 0.34065 0.0
C518 C 0.91055 0.42173 0.37708 0.0
C519 C 0.97235 0.46465 0.35539 0.0
H520 H 0.99113 0.4449 0.41882 0.0
C521 C 0.0713 0.50345 0.38442 0.0
C522 C 0.07741 0.50948 0.41097 0.0
C523 C 0.04728 0.49074 0.37666 0.0
C524 C 0.98608 0.45079 0.40125 0.0
H525 H 0.89954 0.40848 0.30241 0.0
H526 H 0.94039 0.43153 0.31889 0.0
H527 H 0.94951 0.42243 0.40386 0.0
H528 H 0.06307 0.50666 0.45025 0.0
H529 H 0.02105 0.48451 0.4366 0.0
H530 H 0.00891 0.49285 0.35262 0.0
C531 C 0.9257 0.42542 0.33274 0.0
C532 C 0.96225 0.43795 0.39269 0.0
C533 C 0.90226 0.41206 0.32333 0.0
C534 C 0.05896 0.50229 0.42963 0.0
C535 C 0.03489 0.48951 0.42186 0.0
C536 C -0.00386 0.47744 0.36391 0.0
C537 C 0.93014 0.43044 0.35971 0.0
C538 C 0.95517 0.44462 0.36953 0.0
C539 C 0.02881 0.48373 0.39526 0.0
C540 C 0.00332 0.47053 0.3868 0.0
H541 H 0.87231 0.40191 0.38148 0.0
H542 H 0.91337 0.4255 0.39794 0.0
H543 H 0.96738 0.47054 0.33775 0.0
H544 H 0.08507 0.50861 0.36956 0.0
H545 H 0.04317 0.48623 0.35607 0.0
C546 C 0.47244 0.8868 0.53353 0.0
C547 C 0.47405 0.88245 0.50673 0.0
C548 C 0.48363 0.9103 0.5432 0.0
C549 C 0.53229 0.97144 0.5279 0.0
H550 H 0.49899 0.99166 0.5759 0.0
C551 C 0.56714 0.07091 0.55119 0.0
C552 C 0.5653 0.07718 0.57721 0.0
C553 C 0.55631 0.04685 0.5437 0.0
C554 C 0.50866 0.98621 0.56279 0.0
H555 H 0.48842 0.89936 0.46902 0.0
H556 H 0.50776 0.94021 0.48588 0.0
H557 H 0.47933 0.95004 0.56089 0.0
H558 H 0.55076 0.0631 0.61582 0.0
H559 H 0.53207 0.02103 0.60276 0.0
H560 H 0.56159 0.00752 0.52971 0.0
C561 C 0.49812 0.92548 0.49947 0.0
C562 C 0.49738 0.96239 0.55418 0.0
C563 C 0.4869 0.90206 0.4898 0.0
C564 C 0.55245 0.05886 0.59559 0.0
C565 C 0.54164 0.03475 0.58809 0.0
C566 C 0.54357 0.99521 0.53654 0.0
C567 C 0.49672 0.92987 0.52629 0.0
C568 C 0.50899 0.95483 0.53642 0.0
C569 C 0.54344 0.02849 0.56205 0.0
C570 C 0.5318 0.00294 0.55387 0.0
H571 H 0.46269 0.87208 0.54708 0.0
H572 H 0.48238 0.91314 0.564 0.0
H573 H 0.54186 0.96604 0.51459 0.0
H574 H 0.57682 0.08458 0.53651 0.0
H575 H 0.55772 0.04266 0.52339 0.0
C576 C 0.49328 0.57164 0.72314 0.0
C577 C 0.47139 0.56479 0.71042 0.0
C578 C 0.50743 0.56187 0.71548 0.0
C579 C 0.51892 0.53311 0.65934 0.0
H580 H 0.55035 0.51417 0.71132 0.0
C581 C 0.59234 0.51072 0.63185 0.0
C582 C 0.59105 0.49042 0.64374 0.0
C583 C 0.5775 0.51944 0.64031 0.0
C584 C 0.54156 0.51924 0.69659 0.0
H585 H 0.44704 0.54209 0.67986 0.0
H586 H 0.47172 0.52498 0.66656 0.0
H587 H 0.52427 0.52944 0.72565 0.0
H588 H 0.5733 0.46343 0.674 0.0
H589 H 0.54736 0.47868 0.68876 0.0
H590 H 0.53602 0.52273 0.63028 0.0
C591 C 0.47803 0.53809 0.68229 0.0
C592 C 0.52683 0.52819 0.70479 0.0
C593 C 0.46384 0.5478 0.69001 0.0
C594 C 0.57474 0.47912 0.66444 0.0
C595 C 0.55997 0.48792 0.67299 0.0
C596 C 0.53372 0.52426 0.65115 0.0
C597 C 0.50002 0.54509 0.69487 0.0
C598 C 0.51537 0.53524 0.68624 0.0
C599 C 0.56112 0.5081 0.66092 0.0
C600 C 0.54523 0.51728 0.66968 0.0
H601 H 0.49962 0.5847 0.73893 0.0
H602 H 0.5244 0.56781 0.72535 0.0
H603 H 0.51052 0.53862 0.64458 0.0
H604 H 0.60474 0.51986 0.61588 0.0
H605 H 0.57902 0.53521 0.63086 0.0
C606 C 0.09485 0.58413 0.82791 0.0
C607 C 0.09993 0.60244 0.80964 0.0
C608 C 0.07136 0.56904 0.83652 0.0
C609 C 0.00859 0.5459 0.81722 0.0
H610 H -0.00479 0.52903 0.89091 0.0
C611 C 0.91595 0.47181 0.85383 0.0
C612 C 0.90681 0.47719 0.87629 0.0
C613 C 0.93967 0.48698 0.84597 0.0
C614 C -0.00133 0.53367 0.87029 0.0
H615 H 0.08436 0.61941 0.78627 0.0
H616 H 0.04336 0.59306 0.80137 0.0
H617 H 0.03639 0.55639 0.87682 0.0
H618 H 0.91547 0.50258 0.90828 0.0
H619 H 0.95686 0.52901 0.89452 0.0
H620 H 0.97085 0.52339 0.81071 0.0
C621 C 0.05755 0.59028 0.80884 0.0
C622 C 0.02225 0.54915 0.8622 0.0
C623 C 0.08105 0.60546 0.80034 0.0
C624 C 0.92197 0.49791 0.89089 0.0
C625 C 0.94571 0.513 0.8831 0.0
C626 C 0.98504 0.53032 0.82529 0.0
C627 C 0.05245 0.57186 0.82695 0.0
C628 C 0.02744 0.55546 0.83559 0.0
C629 C 0.95477 0.50776 0.86049 0.0
C630 C 0.97983 0.52408 0.85191 0.0
H631 H 0.109 0.58133 0.83545 0.0
H632 H 0.06794 0.55485 0.85031 0.0
H633 H 0.01208 0.55027 0.79654 0.0
H634 H 0.90475 0.45598 0.84218 0.0
H635 H 0.94625 0.48234 0.82862 0.0
C636 C 0.50624 0.09596 0.99547 0.0
C637 C 0.49976 0.10048 0.97065 0.0
C638 C 0.49784 0.07239 1.00381 0.0
C639 C 0.47728 0.012 0.97979 0.0
H640 H 0.44341 0.99036 0.04608 0.0
C641 C 0.42593 0.91191 1.00808 0.0
C642 C 0.42512 0.90578 0.03467 0.0
C643 C 0.43591 0.93592 1.0006 0.0
C644 C 0.4532 0.99616 0.02774 0.0
H645 H 0.47977 0.08399 0.93496 0.0
H646 H 0.46557 0.04284 0.94937 0.0
H647 H 0.45983 0.03205 0.0327 0.0
H648 H 0.43467 0.91993 0.07427 0.0
H649 H 0.45293 0.96182 0.06121 0.0
H650 H 0.47131 0.97646 0.97493 0.0
C651 C 0.47695 0.05753 0.96238 0.0
C652 C 0.46249 0.02002 0.02007 0.0
C653 C 0.48496 0.08104 0.95424 0.0
C654 C 0.43485 0.92412 0.05362 0.0
C655 C 0.44518 0.94814 0.04612 0.0
C656 C 0.46836 0.98824 0.98763 0.0
C657 C 0.48324 0.05301 0.98726 0.0
C658 C 0.47438 0.02806 0.99592 0.0
C659 C 0.44567 0.95436 0.01952 0.0
C660 C 0.45597 0.97992 0.01159 0.0
H661 H 0.5176 0.11062 1.00852 0.0
H662 H 0.50297 0.0693 0.02306 0.0
H663 H 0.48663 0.01791 0.96118 0.0
H664 H 0.41839 0.89814 0.99305 0.0
H665 H 0.43553 0.93992 0.98 0.0
C666 C 0.39946 0.48362 0.12299 0.0
C667 C 0.39506 0.49812 0.14008 0.0
C668 C 0.41408 0.47446 0.1308 0.0
C669 C 0.46025 0.48308 0.18027 0.0
H670 H 0.44585 0.42011 0.15596 0.0
C671 C 0.50764 0.43289 0.21926 0.0
C672 C 0.51603 0.42322 0.19999 0.0
C673 C 0.49304 0.44234 0.21228 0.0
C674 C 0.45014 0.43778 0.16274 0.0
H675 H 0.40214 0.51408 0.17894 0.0
H676 H 0.42697 0.49737 0.19301 0.0
H677 H 0.41938 0.43545 0.14391 0.0
H678 H 0.51567 0.41579 0.15834 0.0
H679 H 0.48981 0.43197 0.14624 0.0
H680 H 0.49072 0.48496 0.19966 0.0
C681 C 0.41972 0.49361 0.17326 0.0
C682 C 0.43506 0.44665 0.15577 0.0
C683 C 0.40535 0.50308 0.16528 0.0
C684 C 0.50954 0.42318 0.17361 0.0
C685 C 0.49465 0.4323 0.1667 0.0
C686 C 0.47514 0.47404 0.18754 0.0
C687 C 0.42436 0.47926 0.15607 0.0
C688 C 0.44002 0.46951 0.16425 0.0
C689 C 0.48627 0.44195 0.18597 0.0
C690 C 0.47031 0.45139 0.17866 0.0
H691 H 0.39197 0.47968 0.10334 0.0
H692 H 0.41762 0.46393 0.11681 0.0
H693 H 0.46491 0.5009 0.18681 0.0
H694 H 0.51238 0.43321 0.23975 0.0
H695 H 0.48668 0.44955 0.22752 0.0
C696 C 0.20971 0.53507 0.35342 0.0
C697 C 0.18453 0.52187 0.35169 0.0
C698 C 0.22391 0.53263 0.33418 0.0
C699 C 0.22118 0.51314 0.26502 0.0
H700 H 0.28142 0.51657 0.28251 0.0
C701 C 0.29203 0.52673 0.18638 0.0
C702 C 0.30551 0.51527 0.19019 0.0
C703 C 0.27609 0.52572 0.20576 0.0
C704 C 0.26452 0.5153 0.27726 0.0
H705 H 0.15456 0.4951 0.32887 0.0
H706 H 0.17924 0.49048 0.29572 0.0
H707 H 0.25611 0.51756 0.3175 0.0
H708 H 0.31197 0.49286 0.2169 0.0
H709 H 0.28388 0.49067 0.25034 0.0
H710 H 0.22938 0.51047 0.2248 0.0
C711 C 0.18807 0.50315 0.31158 0.0
C712 C 0.25014 0.51619 0.29735 0.0
C713 C 0.1739 0.50566 0.33073 0.0
C714 C 0.30202 0.50205 0.21339 0.0
C715 C 0.28603 0.50095 0.23268 0.0
C716 C 0.23553 0.5122 0.24493 0.0
C717 C 0.21327 0.51686 0.3128 0.0
C718 C 0.22832 0.51523 0.2915 0.0
C719 C 0.27317 0.51313 0.22936 0.0
C720 C 0.25745 0.51337 0.25076 0.0
H721 H 0.2185 0.54781 0.36923 0.0
H722 H 0.24324 0.54368 0.33565 0.0
H723 H 0.20465 0.51266 0.2597 0.0
H724 H 0.29434 0.53716 0.1688 0.0
H725 H 0.26668 0.53551 0.20259 0.0
C726 C 0.74929 0.31592 0.36324 0.0
C727 C 0.76823 0.31569 0.34977 0.0
C728 C 0.73743 0.29983 0.3837 0.0
C729 C 0.72649 0.24254 0.4131 0.0
H730 H 0.70607 0.26555 0.47265 0.0
C731 C 0.65579 0.17868 0.48768 0.0
C732 C 0.65716 0.18607 0.51395 0.0
C733 C 0.672 0.19414 0.46891 0.0
C734 C 0.71193 0.25885 0.45642 0.0
H735 H 0.78937 0.29808 0.34702 0.0
H736 H 0.76884 0.27011 0.38311 0.0
H737 H 0.72919 0.29314 0.43764 0.0
H738 H 0.67743 0.21518 0.54134 0.0
H739 H 0.7061 0.24203 0.50868 0.0
H740 H 0.70955 0.20831 0.43218 0.0
C741 C 0.76296 0.28258 0.3776 0.0
C742 C 0.7249 0.27463 0.43607 0.0
C743 C 0.77477 0.29865 0.35694 0.0
C744 C 0.67578 0.20897 0.52124 0.0
C745 C 0.69211 0.22443 0.50245 0.0
C746 C 0.71361 0.22676 0.43356 0.0
C747 C 0.7443 0.28316 0.39144 0.0
C748 C 0.73196 0.2666 0.41389 0.0
C749 C 0.69013 0.21739 0.47591 0.0
C750 C 0.70581 0.2346 0.4553 0.0
H751 H 0.74363 0.32867 0.3581 0.0
H752 H 0.72277 0.30044 0.39341 0.0
H753 H 0.73154 0.23568 0.39632 0.0
H754 H 0.64168 0.16118 0.48133 0.0
H755 H 0.66965 0.18815 0.44867 0.0
C756 C 0.48215 0.6637 0.65862 0.0
C757 C 0.46989 0.66201 0.68212 0.0
C758 C 0.48246 0.67817 0.638 0.0
C759 C 0.47181 0.72776 0.62023 0.0
H760 H 0.45653 0.69703 0.55175 0.0
C761 C 0.47136 0.7769 0.52473 0.0
C762 C 0.45129 0.76412 0.50828 0.0
C763 C 0.47547 0.76547 0.54585 0.0
C764 C 0.46079 0.70585 0.57073 0.0
H765 H 0.44931 0.67519 0.70281 0.0
H766 H 0.44991 0.70056 0.66671 0.0
H767 H 0.46072 0.67609 0.58947 0.0
H768 H 0.42013 0.72918 0.5008 0.0
H769 H 0.42743 0.70926 0.5374 0.0
H770 H 0.47145 0.75738 0.60142 0.0
C771 C 0.45931 0.69066 0.66432 0.0
C772 C 0.46343 0.69396 0.59231 0.0
C773 C 0.45892 0.67608 0.68498 0.0
C774 C 0.43577 0.73955 0.51305 0.0
C775 C 0.44 0.7281 0.53398 0.0
C776 C 0.46937 0.73976 0.59854 0.0
C777 C 0.47059 0.69139 0.64036 0.0
C778 C 0.46881 0.70468 0.61736 0.0
C779 C 0.45975 0.74096 0.55079 0.0
C780 C 0.4636 0.72883 0.5736 0.0
H781 H 0.49095 0.65328 0.65577 0.0
H782 H 0.49167 0.67867 0.61997 0.0
H783 H 0.47609 0.73654 0.63923 0.0
H784 H 0.48363 0.79586 0.52165 0.0
H785 H 0.49097 0.7758 0.5583 0.0
C786 C 0.78117 0.46247 0.85731 0.0
C787 C 0.80564 0.47163 0.85176 0.0
C788 C 0.76599 0.46397 0.83863 0.0
C789 C 0.76076 0.46902 0.76707 0.0
H790 H 0.71 0.48195 0.78605 0.0
C791 C 0.69678 0.47226 0.68906 0.0
C792 C 0.67237 0.46084 0.69597 0.0
C793 C 0.71424 0.47625 0.70799 0.0
C794 C 0.72398 0.47813 0.78043 0.0
H795 H 0.83347 0.49038 0.82254 0.0
H796 H 0.80708 0.49311 0.79017 0.0
H797 H 0.73804 0.48399 0.81962 0.0
H798 H 0.64725 0.44496 0.72832 0.0
H799 H 0.67742 0.45156 0.76096 0.0
H800 H 0.74645 0.46264 0.72803 0.0
C801 C 0.79954 0.48445 0.80879 0.0
C802 C 0.74005 0.47931 0.7997 0.0
C803 C 0.8147 0.483 0.82745 0.0
C804 C 0.66587 0.45385 0.72225 0.0
C805 C 0.68325 0.45781 0.7411 0.0
C806 C 0.74465 0.46775 0.74782 0.0
C807 C 0.77493 0.47461 0.81396 0.0
C808 C 0.75851 0.47455 0.7933 0.0
C809 C 0.70765 0.46893 0.73423 0.0
C810 C 0.72587 0.47202 0.7543 0.0
H811 H 0.77359 0.45355 0.87581 0.0
H812 H 0.74708 0.45604 0.84317 0.0
H813 H 0.77457 0.46492 0.76153 0.0
H814 H 0.70239 0.47792 0.669 0.0
H815 H 0.7329 0.48511 0.70207 0.0
C816 C 0.3232 0.81724 0.99988 0.0
C817 C 0.32944 0.80754 0.02121 0.0
C818 C 0.3073 0.80225 0.98051 0.0
C819 C 0.26076 0.73943 0.96646 0.0
H820 H 0.27998 0.75667 0.89382 0.0
C821 C 0.21882 0.67071 0.8827 0.0
C822 C 0.21454 0.67814 0.85831 0.0
C823 C 0.2314 0.68737 0.90249 0.0
C824 C 0.27411 0.75175 0.91395 0.0
H825 H 0.32315 0.77439 0.03931 0.0
H826 H 0.29534 0.74828 1.00562 0.0
H827 H 0.3039 0.78407 0.92897 0.0
H828 H 0.22015 0.70904 0.83565 0.0
H829 H 0.24202 0.73825 0.87045 0.0
H830 H 0.23107 0.70708 0.95154 0.0
C831 C 0.30271 0.76748 1.00391 0.0
C832 C 0.28784 0.76746 0.93413 0.0
C833 C 0.31873 0.78247 0.02319 0.0
C834 C 0.2232 0.70273 0.85419 0.0
C835 C 0.23581 0.71947 0.8741 0.0
C836 C 0.24697 0.72379 0.94631 0.0
C837 C 0.29712 0.77722 0.9821 0.0
C838 C 0.28153 0.76132 0.96063 0.0
C839 C 0.24002 0.71197 0.89854 0.0
C840 C 0.25368 0.72954 0.9198 0.0
H841 H 0.33109 0.83646 0.99773 0.0
H842 H 0.30313 0.81029 0.96414 0.0
H843 H 0.25518 0.73435 0.98664 0.0
H844 H 0.21254 0.65195 0.88656 0.0
H845 H 0.2347 0.68094 0.9208 0.0
C846 C 0.53441 0.32037 0.18508 0.0
C847 C 0.519 0.32995 0.18613 0.0
C848 C 0.53326 0.30583 0.16399 0.0
C849 C 0.51663 0.296 0.09436 0.0
H850 H 0.52326 0.23965 0.10179 0.0
C851 C 0.54499 0.25609 1.00903 0.0
C852 C 0.53307 0.23097 1.0065 0.0
C853 C 0.5406 0.2668 0.03064 0.0
C854 C 0.52118 0.25523 0.0994 0.0
H855 H 0.48962 0.33088 0.16629 0.0
H856 H 0.48772 0.30562 0.12954 0.0
H857 H 0.51999 0.25983 0.14104 0.0
H858 H 0.50676 0.19742 0.02449 0.0
H859 H 0.49925 0.21618 0.06232 0.0
H860 H 0.51821 0.29167 0.05277 0.0
C861 C 0.5008 0.30952 0.14495 0.0
C862 C 0.51951 0.26689 0.12188 0.0
C863 C 0.5018 0.32386 0.16613 0.0
C864 C 0.51623 0.21682 0.02579 0.0
C865 C 0.51205 0.22754 0.04757 0.0
C866 C 0.51855 0.28451 0.07192 0.0
C867 C 0.51682 0.30072 0.14337 0.0
C868 C 0.51735 0.28749 0.11961 0.0
C869 C 0.52437 0.25264 0.05037 0.0
C870 C 0.52101 0.26409 0.07418 0.0
H871 H 0.54788 0.3247 0.20013 0.0
H872 H 0.54594 0.29944 0.16328 0.0
H873 H 0.51522 0.31197 0.09194 0.0
H874 H 0.55807 0.26752 0.99455 0.0
H875 H 0.55051 0.28618 0.03232 0.0
loop_
_geom_bond_atom_site_label_1
_geom_bond_atom_site_label_2
_geom_bond_distance
_geom_bond_site_symmetry_2
_ccdc_geom_bond_type
Mg0 O7 2.141 . S
Mg0 O8 2.048 . S
Mg0 O9 2.048 . S
Mg0 O12 2.141 . S
C1 O2 1.313 . S
C1 O8 1.195 . S
O2 C1 1.313 . S
C3 O4 1.245 . S
C3 O12 1.289 . S
O4 C3 1.245 . S
C5 O6 1.245 . S
C5 O7 1.289 . S
O6 C5 1.245 . S
O7 Mg0 2.141 . S
O7 C5 1.289 . S
O8 Mg0 2.048 . S
O8 C1 1.195 . S
O9 Mg0 2.048 . S
O9 C10 1.195 . S
C10 O9 1.195 . S
C10 O11 1.313 . S
O11 C10 1.313 . S
O12 Mg0 2.141 . S
O12 C3 1.289 . S
Mg13 O20 2.141 . S
Mg13 O21 2.048 . S
Mg13 O22 2.048 . S
Mg13 O25 2.141 . S
C14 O15 1.313 . S
C14 O21 1.195 . S
O15 C14 1.313 . S
C16 O17 1.245 . S
C16 O25 1.289 . S
O17 C16 1.245 . S
C18 O19 1.245 . S
C18 O20 1.289 . S
O19 C18 1.245 . S
O20 Mg13 2.141 . S
O20 C18 1.289 . S
O21 Mg13 2.048 . S
O21 C14 1.195 . S
O22 Mg13 2.048 . S
O22 C23 1.195 . S
C23 O22 1.195 . S
C23 O24 1.313 . S
O24 C23 1.313 . S
O25 Mg13 2.141 . S
O25 C16 1.289 . S
Mg26 O33 2.141 . S
Mg26 O34 2.048 . S
Mg26 O35 2.048 . S
Mg26 O38 2.141 . S
C27 O28 1.313 . S
C27 O34 1.195 . S
O28 C27 1.313 . S
C29 O30 1.245 . S
C29 O38 1.289 . S
O30 C29 1.245 . S
C31 O32 1.245 . S
C31 O33 1.289 . S
O32 C31 1.245 . S
O33 Mg26 2.141 . S
O33 C31 1.289 . S
O34 Mg26 2.048 . S
O34 C27 1.195 . S
O35 Mg26 2.048 . S
O35 C36 1.195 . S
C36 O35 1.195 . S
C36 O37 1.313 . S
O37 C36 1.313 . S
O38 Mg26 2.141 . S
O38 C29 1.289 . S
Mg39 O46 2.141 . S
Mg39 O47 2.048 . S
Mg39 O48 2.048 . S
Mg39 O51 2.141 . S
C40 O41 1.313 . S
C40 O47 1.195 . S
O41 C40 1.313 . S
C42 O43 1.245 . S
C42 O51 1.289 . S
O43 C42 1.245 . S
C44 O45 1.245 . S
C44 O46 1.289 . S
O45 C44 1.245 . S
O46 Mg39 2.141 . S
O46 C44 1.289 . S
O47 Mg39 2.048 . S
O47 C40 1.195 . S
O48 Mg39 2.048 . S
O48 C49 1.195 . S
C49 O48 1.195 . S
C49 O50 1.313 . S
O50 C49 1.313 . S
O51 Mg39 2.141 . S
O51 C42 1.289 . S
Mg52 O59 2.141 . S
Mg52 O60 2.048 . S
Mg52 O61 2.048 . S
Mg52 O64 2.141 . S
C53 O54 1.313 . S
C53 O60 1.195 . S
O54 C53 1.313 . S
C55 O56 1.245 . S
C55 O64 1.289 . S
O56 C55 1.245 . S
C57 O58 1.245 . S
C57 O59 1.289 . S
O58 C57 1.245 . S
O59 Mg52 2.141 . S
O59 C57 1.289 . S
O60 Mg52 2.048 . S
O60 C53 1.195 . S
O61 Mg52 2.048 . S
O61 C62 1.195 . S
C62 O61 1.195 . S
C62 O63 1.313 . S
O63 C62 1.313 . S
O64 Mg52 2.141 . S
O64 C55 1.289 . S
Mg65 O72 2.141 . S
Mg65 O73 2.048 . S
Mg65 O74 2.048 . S
Mg65 O77 2.141 . S
C66 O67 1.313 . S
C66 O73 1.195 . S
O67 C66 1.313 . S
C68 O69 1.245 . S
C68 O77 1.289 . S
O69 C68 1.245 . S
C70 O71 1.245 . S
C70 O72 1.289 . S
O71 C70 1.245 . S
O72 Mg65 2.141 . S
O72 C70 1.289 . S
O73 Mg65 2.048 . S
O73 C66 1.195 . S
O74 Mg65 2.048 . S
O74 C75 1.195 . S
C75 O74 1.195 . S
C75 O76 1.313 . S
O76 C75 1.313 . S
O77 Mg65 2.141 . S
O77 C68 1.289 . S
Mg78 O85 2.141 . S
Mg78 O86 2.048 . S
Mg78 O87 2.048 . S
Mg78 O90 2.141 . S
C79 O80 1.313 . S
C79 O86 1.195 . S
O80 C79 1.313 . S
C81 O82 1.245 . S
C81 O90 1.289 . S
O82 C81 1.245 . S
C83 O84 1.245 . S
C83 O85 1.289 . S
O84 C83 1.245 . S
O85 Mg78 2.141 . S
O85 C83 1.289 . S
O86 Mg78 2.048 . S
O86 C79 1.195 . S
O87 Mg78 2.048 . S
O87 C88 1.195 . S
C88 O87 1.195 . S
C88 O89 1.313 . S
O89 C88 1.313 . S
O90 Mg78 2.141 . S
O90 C81 1.289 . S
Mg91 O98 2.141 . S
Mg91 O99 2.048 . S
Mg91 O100 2.048 . S
Mg91 O103 2.141 . S
C92 O93 1.313 . S
C92 O99 1.195 . S
O93 C92 1.313 . S
C94 O95 1.245 . S
C94 O103 1.289 . S
O95 C94 1.245 . S
C96 O97 1.245 . S
C96 O98 1.289 . S
O97 C96 1.245 . S
O98 Mg91 2.141 . S
O98 C96 1.289 . S
O99 Mg91 2.048 . S
O99 C92 1.195 . S
O100 Mg91 2.048 . S
O100 C101 1.195 . S
C101 O100 1.195 . S
C101 O102 1.313 . S
O102 C101 1.313 . S
O103 Mg91 2.141 . S
O103 C94 1.289 . S
Mg104 O111 2.141 . S
Mg104 O112 2.048 . S
Mg104 O113 2.048 . S
Mg104 O116 2.141 . S
C105 O106 1.313 . S
C105 O112 1.195 . S
O106 C105 1.313 . S
C107 O108 1.245 . S
C107 O116 1.289 . S
O108 C107 1.245 . S
C109 O110 1.245 . S
C109 O111 1.289 . S
O110 C109 1.245 . S
O111 Mg104 2.141 . S
O111 C109 1.289 . S
O112 Mg104 2.048 . S
O112 C105 1.195 . S
O113 Mg104 2.048 . S
O113 C114 1.195 . S
C114 O113 1.195 . S
C114 O115 1.313 . S
O115 C114 1.313 . S
O116 Mg104 2.141 . S
O116 C107 1.289 . S
Mg117 O124 2.141 . S
Mg117 O125 2.048 . S
Mg117 O126 2.048 . S
Mg117 O129 2.141 . S
C118 O119 1.313 . S
C118 O125 1.195 . S
O119 C118 1.313 . S
C120 O121 1.245 . S
C120 O129 1.289 . S
O121 C120 1.245 . S
C122 O123 1.245 . S
C122 O124 1.289 . S
O123 C122 1.245 . S
O124 Mg117 2.141 . S
O124 C122 1.289 . S
O125 Mg117 2.048 . S
O125 C118 1.195 . S
O126 Mg117 2.048 . S
O126 C127 1.195 . S
C127 O126 1.195 . S
C127 O128 1.313 . S
O128 C127 1.313 . S
O129 Mg117 2.141 . S
O129 C120 1.289 . S
Mg130 O137 2.141 . S
Mg130 O138 2.048 . S
Mg130 O139 2.048 . S
Mg130 O142 2.141 . S
C131 O132 1.313 . S
C131 O138 1.195 . S
O132 C131 1.313 . S
C133 O134 1.245 . S
C133 O142 1.289 . S
O134 C133 1.245 . S
C135 O136 1.245 . S
C135 O137 1.289 . S
O136 C135 1.245 . S
O137 Mg130 2.141 . S
O137 C135 1.289 . S
O138 Mg130 2.048 . S
O138 C131 1.195 . S
O139 Mg130 2.048 . S
O139 C140 1.195 . S
C140 O139 1.195 . S
C140 O141 1.313 . S
O141 C140 1.313 . S
O142 Mg130 2.141 . S
O142 C133 1.289 . S
Mg143 O150 2.141 . S
Mg143 O151 2.048 . S
Mg143 O152 2.048 . S
Mg143 O155 2.141 . S
C144 O145 1.313 . S
C144 O151 1.195 . S
O145 C144 1.313 . S
C146 O147 1.245 . S
C146 O155 1.289 . S
O147 C146 1.245 . S
C148 O149 1.245 . S
C148 O150 1.289 . S
O149 C148 1.245 . S
O150 Mg143 2.141 . S
O150 C148 1.289 . S
O151 Mg143 2.048 . S
O151 C144 1.195 . S
O152 Mg143 2.048 . S
O152 C153 1.195 . S
C153 O152 1.195 . S
C153 O154 1.313 . S
O154 C153 1.313 . S
O155 Mg143 2.141 . S
O155 C146 1.289 . S
C156 C157 1.349 . S
C156 C158 1.327 . S
C156 H181 0.950 . S
C157 C156 1.349 . S
C157 C173 1.349 . S
C158 C156 1.327 . S
C158 C177 1.429 . S
C158 H182 0.950 . S
C159 C176 1.574 . S
C159 C178 1.368 . S
C159 H183 0.949 . S
H160 C164 0.949 . S
C161 C162 1.349 . S
C161 C163 1.327 . S
C161 H184 0.950 . S
C162 C161 1.349 . S
C162 C174 1.349 . S
C163 C161 1.327 . S
C163 C179 1.429 . S
C163 H185 0.950 . S
C164 H160 0.949 . S
C164 C172 1.574 . S
C164 C180 1.368 . S
H165 C173 0.950 . S
H166 C171 0.950 . S
H167 C172 0.949 . S
H168 C174 0.950 . S
H169 C175 0.950 . S
H170 C176 0.949 . S
C171 H166 0.950 . S
C171 C173 1.327 . S
C171 C177 1.429 . S
C172 C164 1.574 . S
C172 H167 0.949 . S
C172 C178 1.368 . S
C173 C157 1.349 . S
C173 H165 0.950 . S
C173 C171 1.327 . S
C174 C162 1.349 . S
C174 H168 0.950 . S
C174 C175 1.327 . S
C175 H169 0.950 . S
C175 C174 1.327 . S
C175 C179 1.429 . S
C176 C159 1.574 . S
C176 H170 0.949 . S
C176 C180 1.368 . S
C177 C158 1.429 . S
C177 C171 1.429 . S
C177 C178 1.523 . S
C178 C159 1.368 . S
C178 C172 1.368 . S
C178 C177 1.523 . S
C179 C163 1.429 . S
C179 C175 1.429 . S
C179 C180 1.523 . S
C180 C164 1.368 . S
C180 C176 1.368 . S
C180 C179 1.523 . S
H181 C156 0.950 . S
H182 C158 0.950 . S
H183 C159 0.949 . S
H184 C161 0.950 . S
H185 C163 0.950 . S
C186 C187 1.349 . S
C186 C188 1.327 . S
C186 H211 0.950 . S
C187 C186 1.349 . S
C187 C203 1.349 . S
C188 C186 1.327 . S
C188 C207 1.429 . S
C188 H212 0.950 . S
C189 C206 1.574 . S
C189 C208 1.368 . S
C189 H213 0.949 . S
H190 C194 0.949 . S
C191 C192 1.349 . S
C191 C193 1.327 . S
C191 H214 0.950 . S
C192 C191 1.349 . S
C192 C204 1.349 . S
C193 C191 1.327 . S
C193 C209 1.429 . S
C193 H215 0.950 . S
C194 H190 0.949 . S
C194 C202 1.574 . S
C194 C210 1.368 . S
H195 C203 0.950 . S
H196 C201 0.950 . S
H197 C202 0.949 . S
H198 C204 0.950 . S
H199 C205 0.950 . S
H200 C206 0.949 . S
C201 H196 0.950 . S
C201 C203 1.327 . S
C201 C207 1.429 . S
C202 C194 1.574 . S
C202 H197 0.949 . S
C202 C208 1.368 . S
C203 C187 1.349 . S
C203 H195 0.950 . S
C203 C201 1.327 . S
C204 C192 1.349 . S
C204 H198 0.950 . S
C204 C205 1.327 . S
C205 H199 0.950 . S
C205 C204 1.327 . S
C205 C209 1.429 . S
C206 C189 1.574 . S
C206 H200 0.949 . S
C206 C210 1.368 . S
C207 C188 1.429 . S
C207 C201 1.429 . S
C207 C208 1.523 . S
C208 C189 1.368 . S
C208 C202 1.368 . S
C208 C207 1.523 . S
C209 C193 1.429 . S
C209 C205 1.429 . S
C209 C210 1.523 . S
C210 C194 1.368 . S
C210 C206 1.368 . S
C210 C209 1.523 . S
H211 C186 0.950 . S
H212 C188 0.950 . S
H213 C189 0.949 . S
H214 C191 0.950 . S
H215 C193 0.950 . S
C216 C217 1.349 . S
C216 C218 1.327 . S
C216 H241 0.950 . S
C217 C216 1.349 . S
C217 C233 1.349 . S
C218 C216 1.327 . S
C218 C237 1.429 . S
C218 H242 0.950 . S
C219 C236 1.574 . S
C219 C238 1.368 . S
C219 H243 0.949 . S
H220 C224 0.949 . S
C221 C222 1.349 . S
C221 C223 1.327 . S
C221 H244 0.950 . S
C222 C221 1.349 . S
C222 C234 1.349 . S
C223 C221 1.327 . S
C223 C239 1.429 . S
C223 H245 0.950 . S
C224 H220 0.949 . S
C224 C232 1.574 . S
C224 C240 1.368 . S
H225 C233 0.950 . S
H226 C231 0.950 . S
H227 C232 0.949 . S
H228 C234 0.950 . S
H229 C235 0.950 . S
H230 C236 0.949 . S
C231 H226 0.950 . S
C231 C233 1.327 . S
C231 C237 1.429 . S
C232 C224 1.574 . S
C232 H227 0.949 . S
C232 C238 1.368 . S
C233 C217 1.349 . S
C233 H225 0.950 . S
C233 C231 1.327 . S
C234 C222 1.349 . S
C234 H228 0.950 . S
C234 C235 1.327 . S
C235 H229 0.950 . S
C235 C234 1.327 . S
C235 C239 1.429 . S
C236 C219 1.574 . S
C236 H230 0.949 . S
C236 C240 1.368 . S
C237 C218 1.429 . S
C237 C231 1.429 . S
C237 C238 1.523 . S
C238 C219 1.368 . S
C238 C232 1.368 . S
C238 C237 1.523 . S
C239 C223 1.429 . S
C239 C235 1.429 . S
C239 C240 1.523 . S
C240 C224 1.368 . S
C240 C236 1.368 . S
C240 C239 1.523 . S
H241 C216 0.950 . S
H242 C218 0.950 . S
H243 C219 0.949 . S
H244 C221 0.950 . S
H245 C223 0.950 . S
C246 C247 1.349 . S
C246 C248 1.327 . S
C246 H271 0.950 . S
C247 C246 1.349 . S
C247 C263 1.349 . S
C248 C246 1.327 . S
C248 C267 1.429 . S
C248 H272 0.950 . S
C249 C266 1.574 . S
C249 C268 1.368 . S
C249 H273 0.949 . S
H250 C254 0.949 . S
C251 C252 1.349 . S
C251 C253 1.327 . S
C251 H274 0.950 . S
C252 C251 1.349 . S
C252 C264 1.349 . S
C253 C251 1.327 . S
C253 C269 1.429 . S
C253 H275 0.950 . S
C254 H250 0.949 . S
C254 C262 1.574 . S
C254 C270 1.368 . S
H255 C263 0.950 . S
H256 C261 0.950 . S
H257 C262 0.949 . S
H258 C264 0.950 . S
H259 C265 0.950 . S
H260 C266 0.949 . S
C261 H256 0.950 . S
C261 C263 1.327 . S
C261 C267 1.429 . S
C262 C254 1.574 . S
C262 H257 0.949 . S
C262 C268 1.368 . S
C263 C247 1.349 . S
C263 H255 0.950 . S
C263 C261 1.327 . S
C264 C252 1.349 . S
C264 H258 0.950 . S
C264 C265 1.327 . S
C265 H259 0.950 . S
C265 C264 1.327 . S
C265 C269 1.429 . S
C266 C249 1.574 . S
C266 H260 0.949 . S
C266 C270 1.368 . S
C267 C248 1.429 . S
C267 C261 1.429 . S
C267 C268 1.523 . S
C268 C249 1.368 . S
C268 C262 1.368 . S
C268 C267 1.523 . S
C269 C253 1.429 . S
C269 C265 1.429 . S
C269 C270 1.523 . S
C270 C254 1.368 . S
C270 C266 1.368 . S
C270 C269 1.523 . S
H271 C246 0.950 . S
H272 C248 0.950 . S
H273 C249 0.949 . S
H274 C251 0.950 . S
H275 C253 0.950 . S
C276 C277 1.349 . S
C276 C278 1.327 . S
C276 H301 0.950 . S
C277 C276 1.349 . S
C277 C293 1.349 . S
C278 C276 1.327 . S
C278 C297 1.429 . S
C278 H302 0.950 . S
C279 C296 1.574 . S
C279 C298 1.368 . S
C279 H303 0.949 . S
H280 C284 0.949 . S
C281 C282 1.349 . S
C281 C283 1.327 . S
C281 H304 0.950 . S
C282 C281 1.349 . S
C282 C294 1.349 . S
C283 C281 1.327 . S
C283 C299 1.429 . S
C283 H305 0.950 . S
C284 H280 0.949 . S
C284 C292 1.574 . S
C284 C300 1.368 . S
H285 C293 0.950 . S
H286 C291 0.950 . S
H287 C292 0.949 . S
H288 C294 0.950 . S
H289 C295 0.950 . S
H290 C296 0.949 . S
C291 H286 0.950 . S
C291 C293 1.327 . S
C291 C297 1.429 . S
C292 C284 1.574 . S
C292 H287 0.949 . S
C292 C298 1.368 . S
C293 C277 1.349 . S
C293 H285 0.950 . S
C293 C291 1.327 . S
C294 C282 1.349 . S
C294 H288 0.950 . S
C294 C295 1.327 . S
C295 H289 0.950 . S
C295 C294 1.327 . S
C295 C299 1.429 . S
C296 C279 1.574 . S
C296 H290 0.949 . S
C296 C300 1.368 . S
C297 C278 1.429 . S
C297 C291 1.429 . S
C297 C298 1.523 . S
C298 C279 1.368 . S
C298 C292 1.368 . S
C298 C297 1.523 . S
C299 C283 1.429 . S
C299 C295 1.429 . S
C299 C300 1.523 . S
C300 C284 1.368 . S
C300 C296 1.368 . S
C300 C299 1.523 . S
H301 C276 0.950 . S
H302 C278 0.950 . S
H303 C279 0.949 . S
H304 C281 0.950 . S
H305 C283 0.950 . S
C306 C307 1.349 . S
C306 C308 1.327 . S
C306 H331 0.950 . S
C307 C306 1.349 . S
C307 C323 1.349 . S
C308 C306 1.327 . S
C308 C327 1.429 . S
C308 H332 0.950 . S
C309 C326 1.574 . S
C309 C328 1.368 . S
C309 H333 0.949 . S
H310 C314 0.949 . S
C311 C312 1.349 . S
C311 C313 1.327 . S
C311 H334 0.950 . S
C312 C311 1.349 . S
C312 C324 1.349 . S
C313 C311 1.327 . S
C313 C329 1.429 . S
C313 H335 0.950 . S
C314 H310 0.949 . S
C314 C322 1.574 . S
C314 C330 1.368 . S
H315 C323 0.950 . S
H316 C321 0.950 . S
H317 C322 0.949 . S
H318 C324 0.950 . S
H319 C325 0.950 . S
H320 C326 0.949 . S
C321 H316 0.950 . S
C321 C323 1.327 . S
C321 C327 1.429 . S
C322 C314 1.574 . S
C322 H317 0.949 . S
C322 C328 1.368 . S
C323 C307 1.349 . S
C323 H315 0.950 . S
C323 C321 1.327 . S
C324 C312 1.349 . S
C324 H318 0.950 . S
C324 C325 1.327 . S
C325 H319 0.950 . S
C325 C324 1.327 . S
C325 C329 1.429 . S
C326 C309 1.574 . S
C326 H320 0.949 . S
C326 C330 1.368 . S
C327 C308 1.429 . S
C327 C321 1.429 . S
C327 C328 1.523 . S
C328 C309 1.368 . S
C328 C322 1.368 . S
C328 C327 1.523 . S
C329 C313 1.429 . S
C329 C325 1.429 . S
C329 C330 1.523 . S
C330 C314 1.368 . S
C330 C326 1.368 . S
C330 C329 1.523 . S
H331 C306 0.950 . S
H332 C308 0.950 . S
H333 C309 0.949 . S
H334 C311 0.950 . S
H335 C313 0.950 . S
C336 C337 1.349 . S
C336 C338 1.327 . S
C336 H361 0.950 . S
C337 C336 1.349 . S
C337 C353 1.349 . S
C338 C336 1.327 . S
C338 C357 1.429 . S
C338 H362 0.950 . S
C339 C356 1.574 . S
C339 C358 1.368 . S
C339 H363 0.949 . S
H340 C344 0.949 . S
C341 C342 1.349 . S
C341 C343 1.327 . S
C341 H364 0.950 . S
C342 C341 1.349 . S
C342 C354 1.349 . S
C343 C341 1.327 . S
C343 C359 1.429 . S
C343 H365 0.950 . S
C344 H340 0.949 . S
C344 C352 1.574 . S
C344 C360 1.368 . S
H345 C353 0.950 . S
H346 C351 0.950 . S
H347 C352 0.949 . S
H348 C354 0.950 . S
H349 C355 0.950 . S
H350 C356 0.949 . S
C351 H346 0.950 . S
C351 C353 1.327 . S
C351 C357 1.429 . S
C352 C344 1.574 . S
C352 H347 0.949 . S
C352 C358 1.368 . S
C353 C337 1.349 . S
C353 H345 0.950 . S
C353 C351 1.327 . S
C354 C342 1.349 . S
C354 H348 0.950 . S
C354 C355 1.327 . S
C355 H349 0.950 . S
C355 C354 1.327 . S
C355 C359 1.429 . S
C356 C339 1.574 . S
C356 H350 0.949 . S
C356 C360 1.368 . S
C357 C338 1.429 . S
C357 C351 1.429 . S
C357 C358 1.523 . S
C358 C339 1.368 . S
C358 C352 1.368 . S
C358 C357 1.523 . S
C359 C343 1.429 . S
C359 C355 1.429 . S
C359 C360 1.523 . S
C360 C344 1.368 . S
C360 C356 1.368 . S
C360 C359 1.523 . S
H361 C336 0.950 . S
H362 C338 0.950 . S
H363 C339 0.949 . S
H364 C341 0.950 . S
H365 C343 0.950 . S
C366 C367 1.349 . S
C366 C368 1.327 . S
C366 H391 0.950 . S
C367 C366 1.349 . S
C367 C383 1.349 . S
C368 C366 1.327 . S
C368 C387 1.429 . S
C368 H392 0.950 . S
C369 C386 1.574 . S
C369 C388 1.368 . S
C369 H393 0.949 . S
H370 C374 0.949 . S
C371 C372 1.349 . S
C371 C373 1.327 . S
C371 H394 0.950 . S
C372 C371 1.349 . S
C372 C384 1.349 . S
C373 C371 1.327 . S
C373 C389 1.429 . S
C373 H395 0.950 . S
C374 H370 0.949 . S
C374 C382 1.574 . S
C374 C390 1.368 . S
H375 C383 0.950 . S
H376 C381 0.950 . S
H377 C382 0.949 . S
H378 C384 0.950 . S
H379 C385 0.950 . S
H380 C386 0.949 . S
C381 H376 0.950 . S
C381 C383 1.327 . S
C381 C387 1.429 . S
C382 C374 1.574 . S
C382 H377 0.949 . S
C382 C388 1.368 . S
C383 C367 1.349 . S
C383 H375 0.950 . S
C383 C381 1.327 . S
C384 C372 1.349 . S
C384 H378 0.950 . S
C384 C385 1.327 . S
C385 H379 0.950 . S
C385 C384 1.327 . S
C385 C389 1.429 . S
C386 C369 1.574 . S
C386 H380 0.949 . S
C386 C390 1.368 . S
C387 C368 1.429 . S
C387 C381 1.429 . S
C387 C388 1.523 . S
C388 C369 1.368 . S
C388 C382 1.368 . S
C388 C387 1.523 . S
C389 C373 1.429 . S
C389 C385 1.429 . S
C389 C390 1.523 . S
C390 C374 1.368 . S
C390 C386 1.368 . S
C390 C389 1.523 . S
H391 C366 0.950 . S
H392 C368 0.950 . S
H393 C369 0.949 . S
H394 C371 0.950 . S
H395 C373 0.950 . S
C396 C397 1.349 1_556 S
C396 C398 1.327 . S
C396 H421 0.950 . S
C397 C396 1.349 1_554 S
C397 C413 1.349 . S
C398 C396 1.327 . S
C398 C417 1.429 . S
C398 H422 0.950 . S
C399 C416 1.574 . S
C399 C418 1.368 . S
C399 H423 0.949 . S
H400 C404 0.949 . S
C401 C402 1.349 . S
C401 C403 1.327 . S
C401 H424 0.950 . S
C402 C401 1.349 . S
C402 C414 1.349 . S
C403 C401 1.327 . S
C403 C419 1.429 . S
C403 H425 0.950 . S
C404 H400 0.949 . S
C404 C412 1.574 . S
C404 C420 1.368 . S
H405 C413 0.950 . S
H406 C411 0.950 . S
H407 C412 0.949 . S
H408 C414 0.950 . S
H409 C415 0.950 . S
H410 C416 0.949 . S
C411 H406 0.950 . S
C411 C413 1.327 1_556 S
C411 C417 1.429 . S
C412 C404 1.574 . S
C412 H407 0.949 . S
C412 C418 1.368 . S
C413 C397 1.349 . S
C413 H405 0.950 . S
C413 C411 1.327 1_554 S
C414 C402 1.349 . S
C414 H408 0.950 . S
C414 C415 1.327 . S
C415 H409 0.950 . S
C415 C414 1.327 . S
C415 C419 1.429 . S
C416 C399 1.574 . S
C416 H410 0.949 . S
C416 C420 1.368 . S
C417 C398 1.429 . S
C417 C411 1.429 . S
C417 C418 1.523 . S
C418 C399 1.368 . S
C418 C412 1.368 . S
C418 C417 1.523 . S
C419 C403 1.429 . S
C419 C415 1.429 . S
C419 C420 1.523 . S
C420 C404 1.368 . S
C420 C416 1.368 . S
C420 C419 1.523 . S
H421 C396 0.950 . S
H422 C398 0.950 . S
H423 C399 0.949 . S
H424 C401 0.950 . S
H425 C403 0.950 . S
C426 C427 1.349 . S
C426 C428 1.327 . S
C426 H451 0.950 . S
C427 C426 1.349 . S
C427 C443 1.349 . S
C428 C426 1.327 . S
C428 C447 1.429 . S
C428 H452 0.950 . S
C429 C446 1.574 . S
C429 C448 1.368 . S
C429 H453 0.949 . S
H430 C434 0.949 . S
C431 C432 1.349 1_554 S
C431 C433 1.327 . S
C431 H454 0.957 . S
C432 C431 1.349 1_556 S
C432 C444 1.349 . S
C433 C431 1.327 . S
C433 C449 1.429 . S
C433 H455 0.950 . S
C434 H430 0.949 . S
C434 C442 1.574 . S
C434 C450 1.368 . S
H435 C443 0.950 . S
H436 C441 0.950 . S
H437 C442 0.949 . S
H438 C444 0.950 . S
H439 C445 0.950 . S
H440 C446 0.949 . S
C441 H436 0.950 . S
C441 C443 1.327 . S
C441 C447 1.429 . S
C442 C434 1.574 . S
C442 H437 0.949 . S
C442 C448 1.368 . S
C443 C427 1.349 . S
C443 H435 0.950 . S
C443 C441 1.327 . S
C444 C432 1.349 . S
C444 H438 0.950 . S
C444 C445 1.327 1_556 S
C445 H439 0.950 . S
C445 C444 1.327 1_554 S
C445 C449 1.429 . S
C446 C429 1.574 . S
C446 H440 0.949 . S
C446 C450 1.368 . S
C447 C428 1.429 . S
C447 C441 1.429 . S
C447 C448 1.523 . S
C448 C429 1.368 . S
C448 C442 1.368 . S
C448 C447 1.523 . S
C449 C433 1.429 . S
C449 C445 1.429 . S
C449 C450 1.523 . S
C450 C434 1.368 . S
C450 C446 1.368 . S
C450 C449 1.523 . S
H451 C426 0.950 . S
H452 C428 0.950 . S
H453 C429 0.949 . S
H454 C431 0.957 . S
H455 C433 0.950 . S
C456 C457 1.349 . S
C456 C458 1.327 . S
C456 H481 0.950 . S
C457 C456 1.349 . S
C457 C473 1.349 . S
C458 C456 1.327 . S
C458 C477 1.429 . S
C458 H482 0.950 . S
C459 C476 1.574 . S
C459 C478 1.368 . S
C459 H483 0.949 . S
H460 C464 0.949 . S
C461 C462 1.349 . S
C461 C463 1.327 . S
C461 H484 0.950 . S
C462 C461 1.349 . S
C462 C474 1.349 . S
C463 C461 1.327 . S
C463 C479 1.429 . S
C463 H485 0.950 . S
C464 H460 0.949 . S
C464 C472 1.574 . S
C464 C480 1.368 . S
H465 C473 0.950 . S
H466 C471 0.950 . S
H467 C472 0.949 . S
H468 C474 0.950 . S
H469 C475 0.950 . S
H470 C476 0.949 . S
C471 H466 0.950 . S
C471 C473 1.327 . S
C471 C477 1.429 . S
C472 C464 1.574 . S
C472 H467 0.949 . S
C472 C478 1.368 . S
C473 C457 1.349 . S
C473 H465 0.950 . S
C473 C471 1.327 . S
C474 C462 1.349 . S
C474 H468 0.950 . S
C474 C475 1.327 . S
C475 H469 0.950 . S
C475 C474 1.327 . S
C475 C479 1.429 . S
C476 C459 1.574 . S
C476 H470 0.949 . S
C476 C480 1.368 . S
C477 C458 1.429 . S
C477 C471 1.429 . S
C477 C478 1.523 . S
C478 C459 1.368 . S
C478 C472 1.368 . S
C478 C477 1.523 . S
C479 C463 1.429 . S
C479 C475 1.429 . S
C479 C480 1.523 . S
C480 C464 1.368 . S
C480 C476 1.368 . S
C480 C479 1.523 . S
H481 C456 0.950 . S
H482 C458 0.950 . S
H483 C459 0.949 . S
H484 C461 0.950 . S
H485 C463 0.950 . S
C486 C487 1.349 . S
C486 C488 1.327 . S
C486 H511 0.950 . S
C487 C486 1.349 . S
C487 C503 1.349 . S
C488 C486 1.327 . S
C488 C507 1.429 . S
C488 H512 0.950 . S
C489 C506 1.574 . S
C489 C508 1.368 . S
C489 H513 0.949 . S
H490 C494 0.949 . S
C491 C492 1.349 . S
C491 C493 1.327 . S
C491 H514 0.950 . S
C492 C491 1.349 . S
C492 C504 1.349 . S
C493 C491 1.327 . S
C493 C509 1.429 . S
C493 H515 0.950 . S
C494 H490 0.949 . S
C494 C502 1.574 . S
C494 C510 1.368 . S
H495 C503 0.950 . S
H496 C501 0.950 . S
H497 C502 0.949 . S
H498 C504 0.950 . S
H499 C505 0.950 . S
H500 C506 0.949 . S
C501 H496 0.950 . S
C501 C503 1.327 . S
C501 C507 1.429 . S
C502 C494 1.574 . S
C502 H497 0.949 . S
C502 C508 1.368 . S
C503 C487 1.349 . S
C503 H495 0.950 . S
C503 C501 1.327 . S
C504 C492 1.349 . S
C504 H498 0.950 . S
C504 C505 1.327 . S
C505 H499 0.950 . S
C505 C504 1.327 . S
C505 C509 1.429 . S
C506 C489 1.574 . S
C506 H500 0.949 . S
C506 C510 1.368 . S
C507 C488 1.429 . S
C507 C501 1.429 . S
C507 C508 1.523 . S
C508 C489 1.368 . S
C508 C502 1.368 . S
C508 C507 1.523 . S
C509 C493 1.429 . S
C509 C505 1.429 . S
C509 C510 1.523 . S
C510 C494 1.368 . S
C510 C506 1.368 . S
C510 C509 1.523 . S
H511 C486 0.950 . S
H512 C488 0.950 . S
H513 C489 0.949 . S
H514 C491 0.950 . S
H515 C493 0.950 . S
C516 C517 1.349 . S
C516 C518 1.327 . S
C516 H541 0.950 . S
C517 C516 1.349 . S
C517 C533 1.349 . S
C518 C516 1.327 . S
C518 C537 1.429 . S
C518 H542 0.950 . S
C519 C536 1.574 1_655 S
C519 C538 1.368 . S
C519 H543 0.949 . S
H520 C524 0.949 . S
C521 C522 1.349 . S
C521 C523 1.327 . S
C521 H544 0.950 . S
C522 C521 1.349 . S
C522 C534 1.349 . S
C523 C521 1.327 . S
C523 C539 1.429 . S
C523 H545 0.950 . S
C524 H520 0.949 . S
C524 C532 1.574 1_455 S
C524 C540 1.368 . S
H525 C533 0.950 . S
H526 C531 0.950 . S
H527 C532 0.949 . S
H528 C534 0.950 . S
H529 C535 0.950 . S
H530 C536 0.949 . S
C531 H526 0.950 . S
C531 C533 1.327 . S
C531 C537 1.429 . S
C532 C524 1.574 1_655 S
C532 H527 0.949 . S
C532 C538 1.368 . S
C533 C517 1.349 . S
C533 H525 0.950 . S
C533 C531 1.327 . S
C534 C522 1.349 . S
C534 H528 0.950 . S
C534 C535 1.327 . S
C535 H529 0.950 . S
C535 C534 1.327 . S
C535 C539 1.429 . S
C536 C519 1.574 1_455 S
C536 H530 0.949 . S
C536 C540 1.368 . S
C537 C518 1.429 . S
C537 C531 1.429 . S
C537 C538 1.523 . S
C538 C519 1.368 . S
C538 C532 1.368 . S
C538 C537 1.523 . S
C539 C523 1.429 . S
C539 C535 1.429 . S
C539 C540 1.523 . S
C540 C524 1.368 . S
C540 C536 1.368 . S
C540 C539 1.523 . S
H541 C516 0.950 . S
H542 C518 0.950 . S
H543 C519 0.949 . S
H544 C521 0.950 . S
H545 C523 0.950 . S
C546 C547 1.349 . S
C546 C548 1.327 . S
C546 H571 0.950 . S
C547 C546 1.349 . S
C547 C563 1.349 . S
C548 C546 1.327 . S
C548 C567 1.429 . S
C548 H572 0.950 . S
C549 C566 1.574 1_565 S
C549 C568 1.368 . S
C549 H573 0.949 . S
H550 C554 0.949 . S
C551 C552 1.349 . S
C551 C553 1.327 . S
C551 H574 0.950 . S
C552 C551 1.349 . S
C552 C564 1.349 . S
C553 C551 1.327 . S
C553 C569 1.429 . S
C553 H575 0.950 . S
C554 H550 0.949 . S
C554 C562 1.574 1_545 S
C554 C570 1.368 . S
H555 C563 0.950 . S
H556 C561 0.950 . S
H557 C562 0.949 . S
H558 C564 0.950 . S
H559 C565 0.950 . S
H560 C566 0.949 . S
C561 H556 0.950 . S
C561 C563 1.327 . S
C561 C567 1.429 . S
C562 C554 1.574 1_565 S
C562 H557 0.949 . S
C562 C568 1.368 . S
C563 C547 1.349 . S
C563 H555 0.950 . S
C563 C561 1.327 . S
C564 C552 1.349 . S
C564 H558 0.950 . S
C564 C565 1.327 . S
C565 H559 0.950 . S
C565 C564 1.327 . S
C565 C569 1.429 . S
C566 C549 1.574 1_545 S
C566 H560 0.949 . S
C566 C570 1.368 . S
C567 C548 1.429 . S
C567 C561 1.429 . S
C567 C568 1.523 . S
C568 C549 1.368 . S
C568 C562 1.368 . S
C568 C567 1.523 . S
C569 C553 1.429 . S
C569 C565 1.429 . S
C569 C570 1.523 . S
C570 C554 1.368 . S
C570 C566 1.368 . S
C570 C569 1.523 . S
H571 C546 0.950 . S
H572 C548 0.950 . S
H573 C549 0.949 . S
H574 C551 0.950 . S
H575 C553 0.950 . S
C576 C577 1.349 . S
C576 C578 1.327 . S
C576 H601 0.950 . S
C577 C576 1.349 . S
C577 C593 1.349 . S
C578 C576 1.327 . S
C578 C597 1.429 . S
C578 H602 0.950 . S
C579 C596 1.574 . S
C579 C598 1.368 . S
C579 H603 0.949 . S
H580 C584 0.949 . S
C581 C582 1.349 . S
C581 C583 1.327 . S
C581 H604 0.950 . S
C582 C581 1.349 . S
C582 C594 1.349 . S
C583 C581 1.327 . S
C583 C599 1.429 . S
C583 H605 0.950 . S
C584 H580 0.949 . S
C584 C592 1.574 . S
C584 C600 1.368 . S
H585 C593 0.950 . S
H586 C591 0.950 . S
H587 C592 0.949 . S
H588 C594 0.950 . S
H589 C595 0.950 . S
H590 C596 0.949 . S
C591 H586 0.950 . S
C591 C593 1.327 . S
C591 C597 1.429 . S
C592 C584 1.574 . S
C592 H587 0.949 . S
C592 C598 1.368 . S
C593 C577 1.349 . S
C593 H585 0.950 . S
C593 C591 1.327 . S
C594 C582 1.349 . S
C594 H588 0.950 . S
C594 C595 1.327 . S
C595 H589 0.950 . S
C595 C594 1.327 . S
C595 C599 1.429 . S
C596 C579 1.574 . S
C596 H590 0.949 . S
C596 C600 1.368 . S
C597 C578 1.429 . S
C597 C591 1.429 . S
C597 C598 1.523 . S
C598 C579 1.368 . S
C598 C592 1.368 . S
C598 C597 1.523 . S
C599 C583 1.429 . S
C599 C595 1.429 . S
C599 C600 1.523 . S
C600 C584 1.368 . S
C600 C596 1.368 . S
C600 C599 1.523 . S
H601 C576 0.950 . S
H602 C578 0.950 . S
H603 C579 0.949 . S
H604 C581 0.950 . S
H605 C583 0.950 . S
C606 C607 1.349 . S
C606 C608 1.327 . S
C606 H631 0.950 . S
C607 C606 1.349 . S
C607 C623 1.349 . S
C608 C606 1.327 . S
C608 C627 1.429 . S
C608 H632 0.950 . S
C609 C626 1.574 1_455 S
C609 C628 1.368 . S
C609 H633 0.949 . S
H610 C614 0.949 . S
C611 C612 1.349 . S
C611 C613 1.327 . S
C611 H634 0.950 . S
C612 C611 1.349 . S
C612 C624 1.349 . S
C613 C611 1.327 . S
C613 C629 1.429 . S
C613 H635 0.950 . S
C614 H610 0.949 . S
C614 C622 1.574 1_655 S
C614 C630 1.368 . S
H615 C623 0.950 . S
H616 C621 0.950 . S
H617 C622 0.949 . S
H618 C624 0.950 . S
H619 C625 0.950 . S
H620 C626 0.949 . S
C621 H616 0.950 . S
C621 C623 1.327 . S
C621 C627 1.429 . S
C622 C614 1.574 1_455 S
C622 H617 0.949 . S
C622 C628 1.368 . S
C623 C607 1.349 . S
C623 H615 0.950 . S
C623 C621 1.327 . S
C624 C612 1.349 . S
C624 H618 0.950 . S
C624 C625 1.327 . S
C625 H619 0.950 . S
C625 C624 1.327 . S
C625 C629 1.429 . S
C626 C609 1.574 1_655 S
C626 H620 0.949 . S
C626 C630 1.368 . S
C627 C608 1.429 . S
C627 C621 1.429 . S
C627 C628 1.523 . S
C628 C609 1.368 . S
C628 C622 1.368 . S
C628 C627 1.523 . S
C629 C613 1.429 . S
C629 C625 1.429 . S
C629 C630 1.523 . S
C630 C614 1.368 . S
C630 C626 1.368 . S
C630 C629 1.523 . S
H631 C606 0.950 . S
H632 C608 0.950 . S
H633 C609 0.949 . S
H634 C611 0.950 . S
H635 C613 0.950 . S
C636 C637 1.349 . S
C636 C638 1.327 . S
C636 H661 0.950 . S
C637 C636 1.349 . S
C637 C653 1.349 . S
C638 C636 1.327 . S
C638 C657 1.429 . S
C638 H662 0.950 . S
C639 C656 1.574 1_545 S
C639 C658 1.368 . S
C639 H663 0.949 . S
H640 C644 0.949 . S
C641 C642 1.349 . S
C641 C643 1.327 . S
C641 H664 0.950 . S
C642 C641 1.349 . S
C642 C654 1.349 . S
C643 C641 1.327 . S
C643 C659 1.429 . S
C643 H665 0.950 . S
C644 H640 0.949 . S
C644 C652 1.574 1_565 S
C644 C660 1.368 . S
H645 C653 0.950 . S
H646 C651 0.950 . S
H647 C652 0.949 . S
H648 C654 0.950 . S
H649 C655 0.950 . S
H650 C656 0.949 . S
C651 H646 0.950 . S
C651 C653 1.327 . S
C651 C657 1.429 . S
C652 C644 1.574 1_545 S
C652 H647 0.949 . S
C652 C658 1.368 1_554 S
C653 C637 1.349 . S
C653 H645 0.950 . S
C653 C651 1.327 . S
C654 C642 1.349 . S
C654 H648 0.950 . S
C654 C655 1.327 . S
C655 H649 0.950 . S
C655 C654 1.327 . S
C655 C659 1.429 . S
C656 C639 1.574 1_565 S
C656 H650 0.949 . S
C656 C660 1.368 1_556 S
C657 C638 1.429 . S
C657 C651 1.429 . S
C657 C658 1.523 . S
C658 C639 1.368 . S
C658 C652 1.368 1_556 S
C658 C657 1.523 . S
C659 C643 1.429 . S
C659 C655 1.429 . S
C659 C660 1.523 . S
C660 C644 1.368 . S
C660 C656 1.368 1_554 S
C660 C659 1.523 . S
H661 C636 0.950 . S
H662 C638 0.950 . S
H663 C639 0.949 . S
H664 C641 0.950 . S
H665 C643 0.950 . S
C666 C667 1.349 . S
C666 C668 1.327 . S
C666 H691 0.950 . S
C667 C666 1.349 . S
C667 C683 1.349 . S
C668 C666 1.327 . S
C668 C687 1.429 . S
C668 H692 0.950 . S
C669 C686 1.574 . S
C669 C688 1.368 . S
C669 H693 0.949 . S
H670 C674 0.949 . S
C671 C672 1.349 . S
C671 C673 1.327 . S
C671 H694 0.950 . S
C672 C671 1.349 . S
C672 C684 1.349 . S
C673 C671 1.327 . S
C673 C689 1.429 . S
C673 H695 0.950 . S
C674 H670 0.949 . S
C674 C682 1.574 . S
C674 C690 1.368 . S
H675 C683 0.950 . S
H676 C681 0.950 . S
H677 C682 0.949 . S
H678 C684 0.950 . S
H679 C685 0.950 . S
H680 C686 0.949 . S
C681 H676 0.950 . S
C681 C683 1.327 . S
C681 C687 1.429 . S
C682 C674 1.574 . S
C682 H677 0.949 . S
C682 C688 1.368 . S
C683 C667 1.349 . S
C683 H675 0.950 . S
C683 C681 1.327 . S
C684 C672 1.349 . S
C684 H678 0.950 . S
C684 C685 1.327 . S
C685 H679 0.950 . S
C685 C684 1.327 . S
C685 C689 1.429 . S
C686 C669 1.574 . S
C686 H680 0.949 . S
C686 C690 1.368 . S
C687 C668 1.429 . S
C687 C681 1.429 . S
C687 C688 1.523 . S
C688 C669 1.368 . S
C688 C682 1.368 . S
C688 C687 1.523 . S
C689 C673 1.429 . S
C689 C685 1.429 . S
C689 C690 1.523 . S
C690 C674 1.368 . S
C690 C686 1.368 . S
C690 C689 1.523 . S
H691 C666 0.950 . S
H692 C668 0.950 . S
H693 C669 0.949 . S
H694 C671 0.950 . S
H695 C673 0.950 . S
C696 C697 1.349 . S
C696 C698 1.327 . S
C696 H721 0.950 . S
C697 C696 1.349 . S
C697 C713 1.349 . S
C698 C696 1.327 . S
C698 C717 1.429 . S
C698 H722 0.950 . S
C699 C716 1.574 . S
C699 C718 1.368 . S
C699 H723 0.949 . S
H700 C704 0.949 . S
C701 C702 1.349 . S
C701 C703 1.327 . S
C701 H724 0.950 . S
C702 C701 1.349 . S
C702 C714 1.349 . S
C703 C701 1.327 . S
C703 C719 1.429 . S
C703 H725 0.950 . S
C704 H700 0.949 . S
C704 C712 1.574 . S
C704 C720 1.368 . S
H705 C713 0.950 . S
H706 C711 0.950 . S
H707 C712 0.949 . S
H708 C714 0.950 . S
H709 C715 0.950 . S
H710 C716 0.949 . S
C711 H706 0.950 . S
C711 C713 1.327 . S
C711 C717 1.429 . S
C712 C704 1.574 . S
C712 H707 0.949 . S
C712 C718 1.368 . S
C713 C697 1.349 . S
C713 H705 0.950 . S
C713 C711 1.327 . S
C714 C702 1.349 . S
C714 H708 0.950 . S
C714 C715 1.327 . S
C715 H709 0.950 . S
C715 C714 1.327 . S
C715 C719 1.429 . S
C716 C699 1.574 . S
C716 H710 0.949 . S
C716 C720 1.368 . S
C717 C698 1.429 . S
C717 C711 1.429 . S
C717 C718 1.523 . S
C718 C699 1.368 . S
C718 C712 1.368 . S
C718 C717 1.523 . S
C719 C703 1.429 . S
C719 C715 1.429 . S
C719 C720 1.523 . S
C720 C704 1.368 . S
C720 C716 1.368 . S
C720 C719 1.523 . S
H721 C696 0.950 . S
H722 C698 0.950 . S
H723 C699 0.949 . S
H724 C701 0.950 . S
H725 C703 0.950 . S
C726 C727 1.349 . S
C726 C728 1.327 . S
C726 H751 0.950 . S
C727 C726 1.349 . S
C727 C743 1.349 . S
C728 C726 1.327 . S
C728 C747 1.429 . S
C728 H752 0.950 . S
C729 C746 1.574 . S
C729 C748 1.368 . S
C729 H753 0.949 . S
H730 C734 0.949 . S
C731 C732 1.349 . S
C731 C733 1.327 . S
C731 H754 0.950 . S
C732 C731 1.349 . S
C732 C744 1.349 . S
C733 C731 1.327 . S
C733 C749 1.429 . S
C733 H755 0.950 . S
C734 H730 0.949 . S
C734 C742 1.574 . S
C734 C750 1.368 . S
H735 C743 0.950 . S
H736 C741 0.950 . S
H737 C742 0.949 . S
H738 C744 0.950 . S
H739 C745 0.950 . S
H740 C746 0.949 . S
C741 H736 0.950 . S
C741 C743 1.327 . S
C741 C747 1.429 . S
C742 C734 1.574 . S
C742 H737 0.949 . S
C742 C748 1.368 . S
C743 C727 1.349 . S
C743 H735 0.950 . S
C743 C741 1.327 . S
C744 C732 1.349 . S
C744 H738 0.950 . S
C744 C745 1.327 . S
C745 H739 0.950 . S
C745 C744 1.327 . S
C745 C749 1.429 . S
C746 C729 1.574 . S
C746 H740 0.949 . S
C746 C750 1.368 . S
C747 C728 1.429 . S
C747 C741 1.429 . S
C747 C748 1.523 . S
C748 C729 1.368 . S
C748 C742 1.368 . S
C748 C747 1.523 . S
C749 C733 1.429 . S
C749 C745 1.429 . S
C749 C750 1.523 . S
C750 C734 1.368 . S
C750 C746 1.368 . S
C750 C749 1.523 . S
H751 C726 0.950 . S
H752 C728 0.950 . S
H753 C729 0.949 . S
H754 C731 0.950 . S
H755 C733 0.950 . S
C756 C757 1.349 . S
C756 C758 1.327 . S
C756 H781 0.950 . S
C757 C756 1.349 . S
C757 C773 1.349 . S
C758 C756 1.327 . S
C758 C777 1.429 . S
C758 H782 0.950 . S
C759 C776 1.574 . S
C759 C778 1.368 . S
C759 H783 0.949 . S
H760 C764 0.949 . S
C761 C762 1.349 . S
C761 C763 1.327 . S
C761 H784 0.950 . S
C762 C761 1.349 . S
C762 C774 1.349 . S
C763 C761 1.327 . S
C763 C779 1.429 . S
C763 H785 0.950 . S
C764 H760 0.949 . S
C764 C772 1.574 . S
C764 C780 1.368 . S
H765 C773 0.950 . S
H766 C771 0.950 . S
H767 C772 0.949 . S
H768 C774 0.950 . S
H769 C775 0.950 . S
H770 C776 0.949 . S
C771 H766 0.950 . S
C771 C773 1.327 . S
C771 C777 1.429 . S
C772 C764 1.574 . S
C772 H767 0.949 . S
C772 C778 1.368 . S
C773 C757 1.349 . S
C773 H765 0.950 . S
C773 C771 1.327 . S
C774 C762 1.349 . S
C774 H768 0.950 . S
C774 C775 1.327 . S
C775 H769 0.950 . S
C775 C774 1.327 . S
C775 C779 1.429 . S
C776 C759 1.574 . S
C776 H770 0.949 . S
C776 C780 1.368 . S
C777 C758 1.429 . S
C777 C771 1.429 . S
C777 C778 1.523 . S
C778 C759 1.368 . S
C778 C772 1.368 . S
C778 C777 1.523 . S
C779 C763 1.429 . S
C779 C775 1.429 . S
C779 C780 1.523 . S
C780 C764 1.368 . S
C780 C776 1.368 . S
C780 C779 1.523 . S
H781 C756 0.950 . S
H782 C758 0.950 . S
H783 C759 0.949 . S
H784 C761 0.950 . S
H785 C763 0.950 . S
C786 C787 1.349 . S
C786 C788 1.327 . S
C786 H811 0.950 . S
C787 C786 1.349 . S
C787 C803 1.349 . S
C788 C786 1.327 . S
C788 C807 1.429 . S
C788 H812 0.950 . S
C789 C806 1.574 . S
C789 C808 1.368 . S
C789 H813 0.949 . S
H790 C794 0.949 . S
C791 C792 1.349 . S
C791 C793 1.327 . S
C791 H814 0.950 . S
C792 C791 1.349 . S
C792 C804 1.349 . S
C793 C791 1.327 . S
C793 C809 1.429 . S
C793 H815 0.950 . S
C794 H790 0.949 . S
C794 C802 1.574 . S
C794 C810 1.368 . S
H795 C803 0.950 . S
H796 C801 0.950 . S
H797 C802 0.949 . S
H798 C804 0.950 . S
H799 C805 0.950 . S
H800 C806 0.949 . S
C801 H796 0.950 . S
C801 C803 1.327 . S
C801 C807 1.429 . S
C802 C794 1.574 . S
C802 H797 0.949 . S
C802 C808 1.368 . S
C803 C787 1.349 . S
C803 H795 0.950 . S
C803 C801 1.327 . S
C804 C792 1.349 . S
C804 H798 0.950 . S
C804 C805 1.327 . S
C805 H799 0.950 . S
C805 C804 1.327 . S
C805 C809 1.429 . S
C806 C789 1.574 . S
C806 H800 0.949 . S
C806 C810 1.368 . S
C807 C788 1.429 . S
C807 C801 1.429 . S
C807 C808 1.523 . S
C808 C789 1.368 . S
C808 C802 1.368 . S
C808 C807 1.523 . S
C809 C793 1.429 . S
C809 C805 1.429 . S
C809 C810 1.523 . S
C810 C794 1.368 . S
C810 C806 1.368 . S
C810 C809 1.523 . S
H811 C786 0.950 . S
H812 C788 0.950 . S
H813 C789 0.949 . S
H814 C791 0.950 . S
H815 C793 0.950 . S
C816 C817 1.349 1_556 S
C816 C818 1.327 . S
C816 H841 0.950 . S
C817 C816 1.349 1_554 S
C817 C833 1.349 . S
C818 C816 1.327 . S
C818 C837 1.429 . S
C818 H842 0.950 . S
C819 C836 1.574 . S
C819 C838 1.368 . S
C819 H843 0.949 . S
H820 C824 0.949 . S
C821 C822 1.349 . S
C821 C823 1.327 . S
C821 H844 0.950 . S
C822 C821 1.349 . S
C822 C834 1.349 . S
C823 C821 1.327 . S
C823 C839 1.429 . S
C823 H845 0.950 . S
C824 H820 0.949 . S
C824 C832 1.574 . S
C824 C840 1.368 . S
H825 C833 0.950 . S
H826 C831 0.950 . S
H827 C832 0.949 . S
H828 C834 0.950 . S
H829 C835 0.950 . S
H830 C836 0.949 . S
C831 H826 0.950 . S
C831 C833 1.327 1_556 S
C831 C837 1.429 . S
C832 C824 1.574 . S
C832 H827 0.949 . S
C832 C838 1.368 . S
C833 C817 1.349 . S
C833 H825 0.950 . S
C833 C831 1.327 1_554 S
C834 C822 1.349 . S
C834 H828 0.950 . S
C834 C835 1.327 . S
C835 H829 0.950 . S
C835 C834 1.327 . S
C835 C839 1.429 . S
C836 C819 1.574 . S
C836 H830 0.949 . S
C836 C840 1.368 . S
C837 C818 1.429 . S
C837 C831 1.429 . S
C837 C838 1.523 . S
C838 C819 1.368 . S
C838 C832 1.368 . S
C838 C837 1.523 . S
C839 C823 1.429 . S
C839 C835 1.429 . S
C839 C840 1.523 . S
C840 C824 1.368 . S
C840 C836 1.368 . S
C840 C839 1.523 . S
H841 C816 0.950 . S
H842 C818 0.950 . S
H843 C819 0.949 . S
H844 C821 0.950 . S
H845 C823 0.950 . S
C846 C847 1.349 . S
C846 C848 1.327 . S
C846 H871 0.950 . S
C847 C846 1.349 . S
C847 C863 1.349 . S
C848 C846 1.327 . S
C848 C867 1.429 . S
C848 H872 0.950 . S
C849 C866 1.574 . S
C849 C868 1.368 . S
C849 H873 0.949 . S
H850 C854 0.949 . S
C851 C852 1.349 1_554 S
C851 C853 1.327 . S
C851 H874 0.947 1_554 S
C852 C851 1.349 1_556 S
C852 C864 1.349 1_556 S
C853 C851 1.327 . S
C853 C869 1.429 . S
C853 H875 0.950 . S
C854 H850 0.949 . S
C854 C862 1.574 . S
C854 C870 1.368 . S
H855 C863 0.950 . S
H856 C861 0.950 . S
H857 C862 0.949 . S
H858 C864 0.950 . S
H859 C865 0.950 . S
H860 C866 0.949 . S
C861 H856 0.950 . S
C861 C863 1.327 . S
C861 C867 1.429 . S
C862 C854 1.574 . S
C862 H857 0.949 . S
C862 C868 1.368 . S
C863 C847 1.349 . S
C863 H855 0.950 . S
C863 C861 1.327 . S
C864 C852 1.349 1_554 S
C864 H858 0.950 . S
C864 C865 1.327 . S
C865 H859 0.950 . S
C865 C864 1.327 . S
C865 C869 1.429 . S
C866 C849 1.574 . S
C866 H860 0.949 . S
C866 C870 1.368 . S
C867 C848 1.429 . S
C867 C861 1.429 . S
C867 C868 1.523 . S
C868 C849 1.368 . S
C868 C862 1.368 . S
C868 C867 1.523 . S
C869 C853 1.429 . S
C869 C865 1.429 . S
C869 C870 1.523 . S
C870 C854 1.368 . S
C870 C866 1.368 . S
C870 C869 1.523 . S
H871 C846 0.950 . S
H872 C848 0.950 . S
H873 C849 0.949 . S
H874 C851 0.947 1_556 S
H875 C853 0.950 . S
C157 C10 1.458 . S
C162 C88 1.458 . S
C187 C23 1.458 . S
C192 C101 1.458 . S
C217 C114 1.458 . S
C222 C36 1.458 . S
C247 C49 1.458 . S
C252 C127 1.458 . S
C277 C62 1.458 . S
C282 C140 1.458 . S
C307 C153 1.458 . S
C312 C75 1.458 . S
C337 C105 1.730 . S
C342 C1 1.730 . S
C367 C14 1.730 . S
C372 C118 1.730 . S
C397 C131 1.730 . S
C402 C27 1.730 . S
C427 C144 1.730 . S
C432 C40 1.730 . S
C457 C53 1.730 . S
C462 C79 1.730 . S
C487 C66 1.730 . S
C492 C92 1.730 . S
C517 C148 1.911 . S
C522 C5 1.911 . S
C547 C83 1.911 . S
C552 C18 1.911 . S
C577 C31 1.911 . S
C582 C96 1.911 . S
C607 C109 1.911 . S
C612 C44 1.911 . S
C637 C122 1.911 . S
C642 C57 1.911 . S
C667 C135 1.911 . S
C672 C70 1.911 . S
C697 C3 1.367 . S
C702 C133 1.367 . S
C727 C146 1.367 . S
C732 C16 1.367 . S
C757 C29 1.367 . S
C762 C81 1.367 . S
C787 C42 1.367 . S
C792 C94 1.367 . S
C817 C55 1.367 . S
C822 C107 1.367 . S
C847 C68 1.367 . S
C852 C120 1.367 . S
