# Generated by pormake.
# Topology upc, (4)-cn, num edge types: 1
# Building blocks:
#     Node 0, Type 0, BuildingBlock: QUQFOY_clean_sbu_1, # of connection points: 4
#     Node 1, Type 0, BuildingBlock: QUQFOY_clean_sbu_1, # of connection points: 4
#     Node 2, Type 0, BuildingBlock: QUQFOY_clean_sbu_1, # of connection points: 4
#     Node 3, Type 0, BuildingBlock: QUQFOY_clean_sbu_1, # of connection points: 4
#     Node 4, Type 0, BuildingBlock: QUQFOY_clean_sbu_1, # of connection points: 4
#     Node 5, Type 0, BuildingBlock: QUQFOY_clean_sbu_1, # of connection points: 4
#     Node 6, Type 0, BuildingBlock: QUQFOY_clean_sbu_1, # of connection points: 4
#     Node 7, Type 0, BuildingBlock: QUQFOY_clean_sbu_1, # of connection points: 4
#     Node 8, Type 0, BuildingBlock: QUQFOY_clean_sbu_1, # of connection points: 4
#     Node 9, Type 0, BuildingBlock: QUQFOY_clean_sbu_1, # of connection points: 4
#     Node 10, Type 0, BuildingBlock: QUQFOY_clean_sbu_1, # of connection points: 4
#     Node 11, Type 0, BuildingBlock: QUQFOY_clean_sbu_1, # of connection points: 4
#     Node 12, Type 0, BuildingBlock: QUQFOY_clean_sbu_1, # of connection points: 4
#     Node 13, Type 0, BuildingBlock: QUQFOY_clean_sbu_1, # of connection points: 4
#     Node 14, Type 0, BuildingBlock: QUQFOY_clean_sbu_1, # of connection points: 4
#     Node 15, Type 0, BuildingBlock: QUQFOY_clean_sbu_1, # of connection points: 4
#     Edge 16, Type (0, 0), BuildingBlock: ZUJKAS_clean_linker_0, # of connection points: 2
#     Edge 17, Type (0, 0), BuildingBlock: ZUJKAS_clean_linker_0, # of connection points: 2
#     Edge 18, Type (0, 0), BuildingBlock: ZUJKAS_clean_linker_0, # of connection points: 2
#     Edge 19, Type (0, 0), BuildingBlock: ZUJKAS_clean_linker_0, # of connection points: 2
#     Edge 20, Type (0, 0), BuildingBlock: ZUJKAS_clean_linker_0, # of connection points: 2
#     Edge 21, Type (0, 0), BuildingBlock: ZUJKAS_clean_linker_0, # of connection points: 2
#     Edge 22, Type (0, 0), BuildingBlock: ZUJKAS_clean_linker_0, # of connection points: 2
#     Edge 23, Type (0, 0), BuildingBlock: ZUJKAS_clean_linker_0, # of connection points: 2
#     Edge 24, Type (0, 0), BuildingBlock: ZUJKAS_clean_linker_0, # of connection points: 2
#     Edge 25, Type (0, 0), BuildingBlock: ZUJKAS_clean_linker_0, # of connection points: 2
#     Edge 26, Type (0, 0), BuildingBlock: ZUJKAS_clean_linker_0, # of connection points: 2
#     Edge 27, Type (0, 0), BuildingBlock: ZUJKAS_clean_linker_0, # of connection points: 2
#     Edge 28, Type (0, 0), BuildingBlock: ZUJKAS_clean_linker_0, # of connection points: 2
#     Edge 29, Type (0, 0), BuildingBlock: ZUJKAS_clean_linker_0, # of connection points: 2
#     Edge 30, Type (0, 0), BuildingBlock: ZUJKAS_clean_linker_0, # of connection points: 2
#     Edge 31, Type (0, 0), BuildingBlock: ZUJKAS_clean_linker_0, # of connection points: 2
#     Edge 32, Type (0, 0), BuildingBlock: ZUJKAS_clean_linker_0, # of connection points: 2
#     Edge 33, Type (0, 0), BuildingBlock: ZUJKAS_clean_linker_0, # of connection points: 2
#     Edge 34, Type (0, 0), BuildingBlock: ZUJKAS_clean_linker_0, # of connection points: 2
#     Edge 35, Type (0, 0), BuildingBlock: ZUJKAS_clean_linker_0, # of connection points: 2
#     Edge 36, Type (0, 0), BuildingBlock: ZUJKAS_clean_linker_0, # of connection points: 2
#     Edge 37, Type (0, 0), BuildingBlock: ZUJKAS_clean_linker_0, # of connection points: 2
#     Edge 38, Type (0, 0), BuildingBlock: ZUJKAS_clean_linker_0, # of connection points: 2
#     Edge 39, Type (0, 0), BuildingBlock: ZUJKAS_clean_linker_0, # of connection points: 2
#     Edge 40, Type (0, 0), BuildingBlock: ZUJKAS_clean_linker_0, # of connection points: 2
#     Edge 41, Type (0, 0), BuildingBlock: ZUJKAS_clean_linker_0, # of connection points: 2
#     Edge 42, Type (0, 0), BuildingBlock: ZUJKAS_clean_linker_0, # of connection points: 2
#     Edge 43, Type (0, 0), BuildingBlock: ZUJKAS_clean_linker_0, # of connection points: 2
#     Edge 44, Type (0, 0), BuildingBlock: ZUJKAS_clean_linker_0, # of connection points: 2
#     Edge 45, Type (0, 0), BuildingBlock: ZUJKAS_clean_linker_0, # of connection points: 2
#     Edge 46, Type (0, 0), BuildingBlock: ZUJKAS_clean_linker_0, # of connection points: 2
#     Edge 47, Type (0, 0), BuildingBlock: ZUJKAS_clean_linker_0, # of connection points: 2
# Relax obj value: 0.094
# Max RMSD: 0.198
# Mean RMSD: 0.198
data_MOF--net-upc--node1-QUQFOY_clean_sbu_1--edge1-ZUJKAS_clean_linker_0
_symmetry_space_group_name_H-M    P1
_symmetry_Int_Tables_number       1
_symmetry_cell_setting            triclinic
loop_
_symmetry_equiv_pos_as_xyz
'x, y, z'
_cell_length_a     46.93833
_cell_length_b     46.94369
_cell_length_c     56.625075
_cell_angle_alpha  89.940385
_cell_angle_beta   89.965885
_cell_angle_gamma 90.120095
loop_
_atom_site_label
_atom_site_type_symbol
_atom_site_fract_x
_atom_site_fract_y
_atom_site_fract_z
_atom_type_partial_charge
O0 O 0.06555 0.57296 0.15757 0.0
Cd1 Cd 0.05945 0.6063 0.13481 0.0
Cd2 Cd 0.11037 0.62182 0.15615 0.0
O3 O 0.10975 0.58029 0.16928 0.0
O4 O 0.02764 0.59185 0.11499 0.0
O5 O 0.07043 0.60118 0.10063 0.0
C6 C 0.04493 0.59158 0.09734 0.0
C7 C 0.15172 0.64487 0.14287 0.0
C8 C 0.08733 0.56498 0.16909 0.0
C9 C 0.05691 0.65693 0.16537 0.0
O10 O 0.0823 0.65047 0.17103 0.0
O11 O 0.04378 0.64306 0.1495 0.0
O12 O 0.14816 0.63835 0.16479 0.0
O13 O 0.13264 0.63635 0.12801 0.0
O14 O 0.91625 0.07517 0.15424 0.0
Cd15 Cd 0.87871 0.06963 0.13627 0.0
Cd16 Cd 0.86528 0.11773 0.16007 0.0
O17 O 0.90754 0.11665 0.1711 0.0
O18 O 0.88875 0.04238 0.11081 0.0
O19 O 0.87656 0.08714 0.10389 0.0
C20 C 0.88555 0.06296 0.09597 0.0
C21 C 0.84195 0.15839 0.14617 0.0
C22 C 0.92427 0.09592 0.167 0.0
C23 C 0.83225 0.06399 0.17142 0.0
O24 O 0.83788 0.08976 0.17644 0.0
O25 O 0.84534 0.05142 0.1548 0.0
O26 O 0.84927 0.15584 0.16802 0.0
O27 O 0.84979 0.13861 0.1317 0.0
O28 O 0.44688 0.93246 0.15508 0.0
Cd29 Cd 0.44938 0.89963 0.1314 0.0
Cd30 Cd 0.39795 0.88805 0.15233 0.0
O31 O 0.4018 0.92928 0.16574 0.0
O32 O 0.48034 0.91227 0.10985 0.0
O33 O 0.43575 0.90654 0.09818 0.0
C34 C 0.46152 0.91441 0.0934 0.0
C35 C 0.35511 0.86765 0.13946 0.0
C36 C 0.42565 0.94225 0.16633 0.0
C37 C 0.44832 0.84847 0.161 0.0
O38 O 0.42374 0.85719 0.16699 0.0
O39 O 0.46242 0.86123 0.14504 0.0
O40 O 0.35921 0.87415 0.1613 0.0
O41 O 0.37449 0.87501 0.1244 0.0
O42 O 0.54931 0.44388 0.15463 0.0
Cd43 Cd 0.58613 0.4457 0.13497 0.0
Cd44 Cd 0.59048 0.39452 0.15439 0.0
O45 O 0.54718 0.39769 0.16112 0.0
O46 O 0.57897 0.47826 0.11328 0.0
O47 O 0.58337 0.43381 0.10091 0.0
C48 C 0.57779 0.46017 0.0962 0.0
C49 C 0.61398 0.35469 0.13928 0.0
C50 C 0.53583 0.42223 0.16226 0.0
C51 C 0.62953 0.44086 0.17167 0.0
O52 O 0.61661 0.41772 0.17635 0.0
O53 O 0.62316 0.45485 0.1532 0.0
O54 O 0.60278 0.35449 0.16009 0.0
O55 O 0.60966 0.37681 0.12613 0.0
O56 O 0.06128 0.94135 0.3356 0.0
Cd57 Cd 0.05351 0.9082 0.35827 0.0
Cd58 Cd 0.1039 0.88938 0.33749 0.0
O59 O 0.10332 0.92924 0.32133 0.0
O60 O 0.02339 0.92388 0.37913 0.0
O61 O 0.06631 0.91229 0.39201 0.0
C62 C 0.04149 0.92304 0.3962 0.0
C63 C 0.14575 0.86763 0.35095 0.0
C64 C 0.08262 0.94667 0.32253 0.0
C65 C 0.04924 0.85537 0.33003 0.0
O66 O 0.07534 0.85958 0.3252 0.0
O67 O 0.03593 0.87191 0.34389 0.0
O68 O 0.1412 0.872 0.32881 0.0
O69 O 0.12735 0.87754 0.3658 0.0
O70 O 0.5682 0.06203 0.35311 0.0
Cd71 Cd 0.59901 0.05521 0.37803 0.0
Cd72 Cd 0.61704 0.10758 0.35622 0.0
O73 O 0.57667 0.10588 0.34081 0.0
O74 O 0.5821 0.02287 0.39615 0.0
O75 O 0.58983 0.06514 0.41194 0.0
C76 C 0.57963 0.03967 0.41398 0.0
C77 C 0.64016 0.15041 0.36613 0.0
C78 C 0.56138 0.08343 0.34061 0.0
C79 C 0.65229 0.05285 0.35039 0.0
O80 O 0.64646 0.0783 0.34446 0.0
O81 O 0.63701 0.03951 0.36528 0.0
O82 O 0.63444 0.14392 0.34456 0.0
O83 O 0.63069 0.13362 0.38245 0.0
O84 O 0.42749 0.56697 0.33951 0.0
Cd85 Cd 0.43823 0.60004 0.36135 0.0
Cd86 Cd 0.38581 0.61925 0.34245 0.0
O87 O 0.38369 0.57809 0.32888 0.0
O88 O 0.47124 0.58377 0.37869 0.0
O89 O 0.43101 0.59567 0.39631 0.0
C90 C 0.45614 0.58463 0.39765 0.0
C91 C 0.3452 0.64364 0.35552 0.0
C92 C 0.40463 0.56091 0.32862 0.0
C93 C 0.44098 0.65121 0.33087 0.0
O94 O 0.41463 0.64687 0.32711 0.0
O95 O 0.45476 0.63574 0.34526 0.0
O96 O 0.34877 0.63709 0.33364 0.0
O97 O 0.3639 0.63462 0.37048 0.0
O98 O 0.93645 0.4321 0.33947 0.0
Cd99 Cd 0.90133 0.43364 0.36103 0.0
Cd100 Cd 0.89505 0.38321 0.34032 0.0
O101 O 0.93797 0.38626 0.3315 0.0
O102 O 0.91081 0.4665 0.3818 0.0
O103 O 0.90715 0.42234 0.39504 0.0
C104 C 0.91358 0.44869 0.39898 0.0
C105 C 0.87147 0.34408 0.35681 0.0
C106 C 0.94929 0.41089 0.33053 0.0
C107 C 0.85572 0.43069 0.32605 0.0
O108 O 0.86797 0.40763 0.32018 0.0
O109 O 0.86334 0.44375 0.34467 0.0
O110 O 0.88114 0.34344 0.33547 0.0
O111 O 0.87749 0.36613 0.36957 0.0
O112 O 0.93127 0.43779 0.83863 0.0
Cd113 Cd 0.94432 0.40645 0.86139 0.0
Cd114 Cd 0.89359 0.38114 0.84226 0.0
O115 O 0.89046 0.42045 0.82554 0.0
O116 O 0.97596 0.4257 0.87846 0.0
O117 O 0.93652 0.41138 0.89619 0.0
C118 C 0.96086 0.42417 0.8974 0.0
C119 C 0.85258 0.35657 0.85467 0.0
C120 C 0.90907 0.44019 0.82599 0.0
C121 C 0.95133 0.35275 0.83391 0.0
O122 O 0.92464 0.35382 0.83022 0.0
O123 O 0.96366 0.37133 0.8466 0.0
O124 O 0.858 0.36087 0.83267 0.0
O125 O 0.86977 0.36758 0.86997 0.0
O126 O 0.08469 0.94547 0.85739 0.0
Cd127 Cd 0.10274 0.97286 0.88278 0.0
Cd128 Cd 0.14123 0.90655 0.85628 0.0
O129 O 0.1022 0.9067 0.83935 0.0
O130 O 0.0757 0.00433 0.88962 0.0
O131 O 0.08778 0.97111 0.9157 0.0
C132 C 0.07284 0.99338 0.91044 0.0
C133 C 0.17583 0.87152 0.85432 0.0
C134 C 0.08216 0.92468 0.84289 0.0
C135 C 0.15688 0.96483 0.8703 0.0
O136 O 0.1453 0.9416 0.87648 0.0
O137 O 0.14388 0.98727 0.87614 0.0
O138 O 0.17563 0.89243 0.8394 0.0
O139 O 0.1558 0.87031 0.87005 0.0
O140 O 0.56162 0.06601 0.83457 0.0
Cd141 Cd 0.5526 0.09983 0.85626 0.0
Cd142 Cd 0.60577 0.1168 0.83837 0.0
O143 O 0.60573 0.07618 0.82385 0.0
O144 O 0.5202 0.08532 0.87547 0.0
O145 O 0.56235 0.09566 0.89069 0.0
C146 C 0.53689 0.08565 0.89351 0.0
C147 C 0.64724 0.13833 0.85304 0.0
C148 C 0.58433 0.05949 0.82365 0.0
C149 C 0.55297 0.15197 0.82667 0.0
O150 O 0.57913 0.14638 0.82325 0.0
O151 O 0.53801 0.1367 0.84048 0.0
O152 O 0.64417 0.13278 0.83092 0.0
O153 O 0.62744 0.12989 0.8673 0.0
O154 O 0.45929 0.56597 0.82643 0.0
Cd155 Cd 0.42288 0.56072 0.84627 0.0
Cd156 Cd 0.41259 0.61314 0.82515 0.0
O157 O 0.45506 0.61095 0.81571 0.0
O158 O 0.43303 0.52786 0.86686 0.0
O159 O 0.42528 0.57114 0.88075 0.0
C160 C 0.43289 0.54509 0.88455 0.0
C161 C 0.39115 0.65599 0.83659 0.0
C162 C 0.46945 0.58806 0.81651 0.0
C163 C 0.37574 0.56251 0.81151 0.0
O164 O 0.38501 0.58731 0.80672 0.0
O165 O 0.38618 0.54849 0.82866 0.0
O166 O 0.40009 0.65197 0.81535 0.0
O167 O 0.39592 0.63619 0.85195 0.0
O168 O 0.95918 0.0695 0.66184 0.0
Cd169 Cd 0.96581 0.1032 0.63948 0.0
Cd170 Cd 0.9141 0.11885 0.65775 0.0
O171 O 0.9153 0.0788 0.6734 0.0
O172 O 0.99646 0.08931 0.6183 0.0
O173 O 0.95285 0.09905 0.60585 0.0
C174 C 0.97808 0.08945 0.60139 0.0
C175 C 0.87238 0.13798 0.64171 0.0
C176 C 0.93707 0.0627 0.6735 0.0
C177 C 0.96599 0.15574 0.6681 0.0
O178 O 0.93996 0.1499 0.672 0.0
O179 O 0.9808 0.14032 0.6544 0.0
O180 O 0.87514 0.1338 0.66408 0.0
O181 O 0.89277 0.12956 0.62807 0.0
O182 O 0.4323 0.91969 0.66041 0.0
Cd183 Cd 0.39456 0.92688 0.64307 0.0
Cd184 Cd 0.38624 0.87211 0.65932 0.0
O185 O 0.42871 0.87397 0.6693 0.0
O186 O 0.40346 0.96219 0.62497 0.0
O187 O 0.39544 0.92064 0.60787 0.0
C188 C 0.40308 0.94702 0.60602 0.0
C189 C 0.36425 0.83352 0.64068 0.0
C190 C 0.44293 0.89705 0.66893 0.0
C191 C 0.34883 0.9189 0.67893 0.0
O192 O 0.35815 0.8936 0.68052 0.0
O193 O 0.35907 0.936 0.66365 0.0
O194 O 0.37319 0.83184 0.66216 0.0
O195 O 0.36999 0.85651 0.62899 0.0
O196 O 0.5895 0.43462 0.64711 0.0
Cd197 Cd 0.57344 0.40108 0.62799 0.0
Cd198 Cd 0.62532 0.3769 0.64721 0.0
O199 O 0.62981 0.41736 0.66133 0.0
O200 O 0.54015 0.41933 0.61243 0.0
O201 O 0.57709 0.40301 0.59248 0.0
C202 C 0.55293 0.41613 0.59251 0.0
C203 C 0.66532 0.35148 0.63424 0.0
C204 C 0.61213 0.43765 0.65912 0.0
C205 C 0.56793 0.34995 0.65956 0.0
O206 O 0.59481 0.35101 0.66203 0.0
O207 O 0.55507 0.36755 0.64627 0.0
O208 O 0.66134 0.35726 0.65621 0.0
O209 O 0.64714 0.36134 0.61921 0.0
O210 O 0.05918 0.56325 0.65098 0.0
Cd211 Cd 0.09601 0.55588 0.63213 0.0
Cd212 Cd 0.10728 0.60786 0.65243 0.0
O213 O 0.06472 0.60812 0.66175 0.0
O214 O 0.08484 0.52211 0.61298 0.0
O215 O 0.09392 0.56424 0.59723 0.0
C216 C 0.08522 0.5383 0.59461 0.0
C217 C 0.1321 0.6467 0.63663 0.0
C218 C 0.04954 0.58572 0.66057 0.0
C219 C 0.142 0.55731 0.66811 0.0
O220 O 0.13292 0.58221 0.67255 0.0
O221 O 0.13213 0.54341 0.65065 0.0
O222 O 0.12302 0.64672 0.65813 0.0
O223 O 0.1252 0.62533 0.62341 0.0
H224 H 0.19769 0.66086 0.16916 0.0
H225 H 0.2319 0.6987 0.16045 0.0
H226 H 0.19314 0.71143 0.09227 0.0
H227 H 0.15856 0.67349 0.10089 0.0
H228 H 0.27155 0.70759 0.12248 0.0
H229 H 0.18645 0.78996 0.12603 0.0
H230 H 0.18114 0.75428 0.13713 0.0
H231 H 0.18118 0.76081 0.1059 0.0
C232 C 0.19667 0.67135 0.15213 0.0
C233 C 0.17526 0.66425 0.13578 0.0
C234 C 0.21626 0.693 0.14719 0.0
C235 C 0.21478 0.7082 0.12588 0.0
C236 C 0.19439 0.70024 0.10897 0.0
H237 H 0.34698 0.83848 0.09797 0.0
H238 H 0.31163 0.80097 0.09044 0.0
C239 C 0.17481 0.67839 0.11385 0.0
C240 C 0.23367 0.73328 0.12226 0.0
H241 H 0.23351 0.80612 0.12135 0.0
C242 C 0.26327 0.72913 0.12184 0.0
C243 C 0.22277 0.76137 0.12172 0.0
C244 C 0.19118 0.7671 0.12286 0.0
C245 C 0.28228 0.75232 0.1215 0.0
C246 C 0.27139 0.78043 0.12139 0.0
C247 C 0.24178 0.78456 0.1212 0.0
C248 C 0.29037 0.8056 0.12413 0.0
C249 C 0.31389 0.7466 0.12247 0.0
C250 C 0.28929 0.82153 0.14505 0.0
C251 C 0.30933 0.84297 0.14936 0.0
C252 C 0.33079 0.84908 0.13275 0.0
C253 C 0.33071 0.83434 0.11112 0.0
C254 C 0.31068 0.81273 0.10686 0.0
H255 H 0.31864 0.72388 0.12629 0.0
H256 H 0.32363 0.75213 0.1052 0.0
H257 H 0.32416 0.76 0.13621 0.0
H258 H 0.27373 0.81649 0.15857 0.0
H259 H 0.3087 0.85393 0.16618 0.0
H260 H 0.82391 0.20352 0.17248 0.0
H261 H 0.786 0.23709 0.163 0.0
H262 H 0.77744 0.19963 0.09387 0.0
H263 H 0.81527 0.16549 0.10337 0.0
H264 H 0.77801 0.27743 0.12743 0.0
H265 H 0.69747 0.19048 0.12242 0.0
H266 H 0.7327 0.18495 0.13428 0.0
H267 H 0.72753 0.18734 0.10292 0.0
C268 C 0.8143 0.20261 0.15511 0.0
C269 C 0.82248 0.18162 0.13876 0.0
C270 C 0.79259 0.22186 0.14972 0.0
C271 C 0.77849 0.22054 0.12791 0.0
C272 C 0.78765 0.20068 0.111 0.0
H273 H 0.64882 0.35291 0.10028 0.0
H274 H 0.68795 0.31948 0.093 0.0
C275 C 0.80945 0.18134 0.11638 0.0
C276 C 0.75332 0.23905 0.1237 0.0
H277 H 0.6808 0.23733 0.11812 0.0
C278 C 0.75678 0.26872 0.12505 0.0
C279 C 0.72559 0.22759 0.12087 0.0
C280 C 0.72038 0.19586 0.1202 0.0
C281 C 0.73326 0.28719 0.12435 0.0
C282 C 0.70549 0.27571 0.12185 0.0
C283 C 0.7021 0.24609 0.11981 0.0
C284 C 0.67963 0.29379 0.12401 0.0
C285 C 0.73821 0.31873 0.12756 0.0
C286 C 0.66104 0.28957 0.14311 0.0
C287 C 0.63857 0.30842 0.14719 0.0
C288 C 0.63413 0.3319 0.1322 0.0
C289 C 0.65167 0.33508 0.1122 0.0
C290 C 0.67422 0.31615 0.10812 0.0
H291 H 0.76018 0.32349 0.13371 0.0
H292 H 0.73493 0.32976 0.11044 0.0
H293 H 0.72288 0.3277 0.14051 0.0
H294 H 0.66468 0.27238 0.15553 0.0
H295 H 0.62545 0.30524 0.16272 0.0
H296 H 0.19098 0.85015 0.32455 0.0
H297 H 0.22534 0.81299 0.33427 0.0
H298 H 0.18863 0.8049 0.40376 0.0
H299 H 0.15391 0.84222 0.39413 0.0
H300 H 0.2661 0.80609 0.37213 0.0
H301 H 0.17965 0.72457 0.37292 0.0
H302 H 0.17464 0.75961 0.36046 0.0
H303 H 0.17542 0.75498 0.39191 0.0
C304 C 0.19048 0.84087 0.34207 0.0
C305 C 0.16956 0.84902 0.35851 0.0
C306 C 0.21016 0.81961 0.3476 0.0
C307 C 0.20926 0.80588 0.36959 0.0
C308 C 0.18945 0.815 0.38657 0.0
H309 H 0.33942 0.67354 0.39692 0.0
H310 H 0.30547 0.71209 0.405 0.0
C311 C 0.16978 0.83647 0.38109 0.0
C312 C 0.22787 0.78084 0.3738 0.0
H313 H 0.22662 0.70808 0.37635 0.0
C314 C 0.25753 0.78468 0.37351 0.0
C315 C 0.21655 0.75292 0.37531 0.0
C316 C 0.18485 0.74753 0.37504 0.0
C317 C 0.27619 0.76129 0.37394 0.0
C318 C 0.26485 0.73334 0.37482 0.0
C319 C 0.23522 0.72954 0.37588 0.0
C320 C 0.28325 0.70792 0.37172 0.0
C321 C 0.30784 0.76655 0.37215 0.0
C322 C 0.28124 0.6921 0.35079 0.0
C323 C 0.3005 0.67016 0.34615 0.0
C324 C 0.32206 0.6634 0.36244 0.0
C325 C 0.32302 0.67818 0.38404 0.0
C326 C 0.30379 0.70034 0.38861 0.0
H327 H 0.3129 0.78923 0.36834 0.0
H328 H 0.31814 0.76065 0.38909 0.0
H329 H 0.31727 0.75312 0.35805 0.0
H330 H 0.26549 0.69752 0.33756 0.0
H331 H 0.29908 0.65915 0.32938 0.0
H332 H 0.83712 0.34524 0.39601 0.0
H333 H 0.79782 0.31263 0.40541 0.0
H334 H 0.81958 0.26104 0.34513 0.0
H335 H 0.8588 0.29334 0.33567 0.0
H336 H 0.75184 0.30218 0.37491 0.0
H337 H 0.80695 0.20151 0.3972 0.0
H338 H 0.82484 0.23562 0.39733 0.0
H339 H 0.8191 0.217 0.36999 0.0
C340 C 0.834 0.32655 0.38512 0.0
C341 C 0.85117 0.32189 0.3651 0.0
C342 C 0.81142 0.30801 0.39044 0.0
C343 C 0.80585 0.28425 0.37609 0.0
C344 C 0.82372 0.27892 0.35671 0.0
H345 H 0.6573 0.19278 0.33631 0.0
H346 H 0.69561 0.22721 0.34248 0.0
C347 C 0.84613 0.29751 0.35128 0.0
C348 C 0.77995 0.26647 0.3799 0.0
H349 H 0.75759 0.1976 0.38649 0.0
C350 C 0.75309 0.27937 0.37782 0.0
C351 C 0.78151 0.23676 0.38393 0.0
C352 C 0.80965 0.22191 0.38748 0.0
C353 C 0.72786 0.26317 0.37845 0.0
C354 C 0.72952 0.23324 0.38103 0.0
C355 C 0.7563 0.22052 0.38434 0.0
C356 C 0.70408 0.21452 0.37853 0.0
C357 C 0.69964 0.27819 0.37599 0.0
C358 C 0.69585 0.19597 0.39681 0.0
C359 C 0.67375 0.17625 0.39337 0.0
C360 C 0.65979 0.17442 0.37143 0.0
C361 C 0.66748 0.19368 0.35346 0.0
C362 C 0.68936 0.21349 0.35698 0.0
H363 H 0.70127 0.30094 0.38123 0.0
H364 H 0.69278 0.27741 0.35725 0.0
H365 H 0.68297 0.26772 0.38691 0.0
H366 H 0.70702 0.19629 0.41355 0.0
H367 H 0.66854 0.16156 0.40749 0.0
H368 H 0.80753 0.34004 0.82772 0.0
H369 H 0.77206 0.30353 0.83679 0.0
H370 H 0.80875 0.29235 0.90595 0.0
H371 H 0.84443 0.32922 0.89702 0.0
H372 H 0.80237 0.24091 0.87812 0.0
H373 H 0.70232 0.30319 0.88206 0.0
H374 H 0.72409 0.31133 0.85682 0.0
H375 H 0.73705 0.31922 0.88596 0.0
C376 C 0.80776 0.33025 0.84505 0.0
C377 C 0.82878 0.33756 0.86167 0.0
C378 C 0.78738 0.30944 0.85024 0.0
C379 C 0.78762 0.29539 0.87211 0.0
C380 C 0.80809 0.3031 0.88903 0.0
H381 H 0.65205 0.16802 0.89456 0.0
H382 H 0.6878 0.20446 0.9042 0.0
C383 C 0.82836 0.32424 0.88394 0.0
C384 C 0.76794 0.27108 0.8762 0.0
H385 H 0.69747 0.25299 0.87498 0.0
C386 C 0.77942 0.24356 0.8779 0.0
C387 C 0.73803 0.27457 0.87613 0.0
C388 C 0.72458 0.30369 0.87537 0.0
C389 C 0.76176 0.21934 0.87806 0.0
C390 C 0.7319 0.22277 0.87635 0.0
C391 C 0.72038 0.25035 0.87615 0.0
C392 C 0.71246 0.19825 0.87234 0.0
C393 C 0.77522 0.19025 0.87945 0.0
C394 C 0.7147 0.18242 0.85142 0.0
C395 C 0.69431 0.16179 0.84582 0.0
C396 C 0.67123 0.15648 0.86107 0.0
C397 C 0.66971 0.17142 0.88255 0.0
C398 C 0.69003 0.19234 0.88804 0.0
H399 H 0.7967 0.19123 0.88764 0.0
H400 H 0.76171 0.17528 0.88975 0.0
H401 H 0.77765 0.18159 0.86133 0.0
H402 H 0.73154 0.18693 0.83886 0.0
H403 H 0.69605 0.15074 0.8291 0.0
H404 H 0.38419 0.70375 0.80987 0.0
H405 H 0.34982 0.74202 0.81579 0.0
H406 H 0.32259 0.70311 0.88106 0.0
H407 H 0.35748 0.66496 0.8755 0.0
H408 H 0.29269 0.73399 0.81723 0.0
H409 H 0.32825 0.7862 0.90005 0.0
H410 H 0.35077 0.76224 0.88357 0.0
H411 H 0.32334 0.74839 0.90259 0.0
C412 C 0.37134 0.70363 0.82576 0.0
C413 C 0.37358 0.68129 0.84222 0.0
C414 C 0.35163 0.72551 0.82909 0.0
C415 C 0.33369 0.72558 0.84892 0.0
C416 C 0.33656 0.70386 0.86585 0.0
H417 H 0.18365 0.82628 0.88421 0.0
H418 H 0.22184 0.7908 0.88314 0.0
C419 C 0.35648 0.682 0.86262 0.0
C420 C 0.31044 0.74696 0.85062 0.0
H421 H 0.28287 0.79985 0.88518 0.0
C422 C 0.29067 0.74849 0.83204 0.0
C423 C 0.30765 0.76573 0.87003 0.0
C424 C 0.32876 0.76581 0.89011 0.0
C425 C 0.26817 0.76812 0.83236 0.0
C426 C 0.2655 0.78701 0.85165 0.0
C427 C 0.28502 0.78534 0.87039 0.0
C428 C 0.24269 0.80882 0.8525 0.0
C429 C 0.24715 0.76821 0.8122 0.0
C430 C 0.24194 0.83087 0.83575 0.0
C431 C 0.22016 0.85115 0.83628 0.0
C432 C 0.19873 0.84981 0.85363 0.0
C433 C 0.19972 0.82784 0.87053 0.0
C434 C 0.22157 0.8076 0.87002 0.0
H435 H 0.24814 0.74821 0.80176 0.0
H436 H 0.22505 0.77103 0.81882 0.0
H437 H 0.2521 0.78625 0.8002 0.0
H438 H 0.25827 0.83244 0.82229 0.0
H439 H 0.22017 0.86789 0.8231 0.0
H440 H 0.71192 0.33696 0.66006 0.0
H441 H 0.74721 0.30047 0.65107 0.0
H442 H 0.70683 0.28495 0.58393 0.0
H443 H 0.67125 0.32178 0.59279 0.0
H444 H 0.71539 0.23528 0.61288 0.0
H445 H 0.81446 0.2986 0.60378 0.0
H446 H 0.79412 0.3077 0.62956 0.0
H447 H 0.77941 0.31405 0.60071 0.0
C448 C 0.71081 0.3262 0.64317 0.0
C449 C 0.6888 0.33228 0.62712 0.0
C450 C 0.7311 0.30542 0.63801 0.0
C451 C 0.72981 0.29018 0.61674 0.0
C452 C 0.70831 0.29664 0.60037 0.0
H453 H 0.86727 0.16465 0.5988 0.0
H454 H 0.83072 0.19929 0.58724 0.0
C455 C 0.68809 0.31774 0.60541 0.0
C456 C 0.74955 0.26599 0.61288 0.0
H457 H 0.82021 0.24898 0.61345 0.0
C458 C 0.7383 0.23825 0.61249 0.0
C459 C 0.77941 0.26988 0.61211 0.0
C460 C 0.79261 0.29919 0.61133 0.0
C461 C 0.75621 0.2143 0.61298 0.0
C462 C 0.78606 0.21824 0.61407 0.0
C463 C 0.79731 0.24595 0.6128 0.0
C464 C 0.80583 0.19436 0.61916 0.0
C465 C 0.743 0.18499 0.61302 0.0
C466 C 0.80372 0.17981 0.64075 0.0
C467 C 0.82456 0.1602 0.64742 0.0
C468 C 0.84798 0.1547 0.63264 0.0
C469 C 0.84937 0.16825 0.61049 0.0
C470 C 0.82858 0.18812 0.6039 0.0
H471 H 0.72158 0.18516 0.60468 0.0
H472 H 0.75667 0.16945 0.60357 0.0
H473 H 0.74043 0.17765 0.63154 0.0
H474 H 0.78668 0.18464 0.653 0.0
H475 H 0.82289 0.1502 0.66462 0.0
H476 H 0.14792 0.69495 0.65996 0.0
H477 H 0.18698 0.72712 0.65028 0.0
H478 H 0.20227 0.68094 0.58573 0.0
H479 H 0.16323 0.64816 0.59553 0.0
H480 H 0.25065 0.6876 0.61137 0.0
H481 H 0.19708 0.79174 0.60399 0.0
H482 H 0.18754 0.7742 0.63101 0.0
H483 H 0.17769 0.75848 0.60315 0.0
C484 C 0.15912 0.69194 0.64342 0.0
C485 C 0.1524 0.66894 0.62852 0.0
C486 C 0.18142 0.71052 0.63783 0.0
C487 C 0.19741 0.70673 0.61712 0.0
C488 C 0.19012 0.6844 0.60173 0.0
H489 H 0.33296 0.83494 0.59972 0.0
H490 H 0.2945 0.80229 0.58834 0.0
C491 C 0.16771 0.66576 0.60731 0.0
C492 C 0.22332 0.72439 0.61301 0.0
H493 H 0.24721 0.79311 0.61427 0.0
C494 C 0.24985 0.71069 0.61151 0.0
C495 C 0.2224 0.75452 0.61275 0.0
C496 C 0.19459 0.77057 0.61255 0.0
C497 C 0.27546 0.72626 0.61142 0.0
C498 C 0.27456 0.75631 0.61332 0.0
C499 C 0.24801 0.77007 0.61313 0.0
C500 C 0.30055 0.77367 0.6179 0.0
C501 C 0.30324 0.71029 0.60976 0.0
C502 C 0.31714 0.76819 0.63802 0.0
C503 C 0.33914 0.7867 0.64448 0.0
C504 C 0.34493 0.8113 0.6311 0.0
C505 C 0.3292 0.81609 0.61033 0.0
C506 C 0.3071 0.79752 0.60387 0.0
H507 H 0.30051 0.68995 0.6 0.0
H508 H 0.31992 0.72319 0.60082 0.0
H509 H 0.31073 0.70499 0.62782 0.0
H510 H 0.31216 0.75037 0.64946 0.0
H511 H 0.3507 0.7824 0.66065 0.0
H512 H 0.97453 0.46203 0.32276 0.0
H513 H 0.01343 0.47309 0.29644 0.0
H514 H 0.02539 0.38358 0.28222 0.0
H515 H 0.98465 0.37227 0.30795 0.0
H516 H 0.06759 0.46263 0.29328 0.0
H517 H 0.01376 0.4109 0.21668 0.0
H518 H 0.99615 0.41446 0.24476 0.0
H519 H 0.02388 0.38848 0.24094 0.0
C520 C 0.98539 0.44449 0.31424 0.0
C521 C 0.976 0.41624 0.31717 0.0
C522 C 0.00793 0.4509 0.2992 0.0
C523 C 0.02215 0.42929 0.28685 0.0
C524 C 0.01426 0.40075 0.29097 0.0
H525 H 0.12971 0.53533 0.19265 0.0
H526 H 0.12327 0.49436 0.21928 0.0
C527 C 0.99113 0.39428 0.30584 0.0
C528 C 0.04324 0.43789 0.26848 0.0
H529 H 0.04945 0.44367 0.20861 0.0
C530 C 0.06407 0.4581 0.27473 0.0
C531 C 0.03904 0.43155 0.24428 0.0
C532 C 0.01696 0.41029 0.23611 0.0
C533 C 0.07778 0.47495 0.25761 0.0
C534 C 0.07154 0.4704 0.23343 0.0
C535 C 0.05384 0.44742 0.22715 0.0
C536 C 0.07739 0.49252 0.21515 0.0
C537 C 0.09646 0.49924 0.26577 0.0
C538 C 0.05413 0.50419 0.20301 0.0
C539 C 0.05783 0.52684 0.18748 0.0
C540 C 0.08491 0.53891 0.18382 0.0
C541 C 0.10853 0.5267 0.19529 0.0
C542 C 0.10483 0.50342 0.21064 0.0
H543 H 0.09575 0.50213 0.28523 0.0
H544 H 0.11886 0.49493 0.2607 0.0
H545 H 0.08981 0.51951 0.25732 0.0
H546 H 0.0327 0.49639 0.20615 0.0
H547 H 0.03908 0.53556 0.17901 0.0
H548 H 0.93814 0.11379 0.21141 0.0
H549 H 0.97923 0.0982 0.23454 0.0
H550 H 0.01422 0.05716 0.17286 0.0
H551 H 0.97251 0.07157 0.15005 0.0
H552 H 0.00815 0.02066 0.2064 0.0
H553 H 0.06155 0.11416 0.24541 0.0
H554 H 0.02404 0.11514 0.25121 0.0
H555 H 0.03673 0.11733 0.2212 0.0
C556 C 0.95512 0.10234 0.20261 0.0
C557 C 0.95209 0.09369 0.17901 0.0
C558 C 0.97874 0.09353 0.21582 0.0
C559 C 1.00003 0.07657 0.20546 0.0
C560 C 0.99812 0.07017 0.18129 0.0
H561 H 0.11101 0.9558 0.28073 0.0
H562 H 0.09874 0.99135 0.2506 0.0
C563 C 0.97429 0.07844 0.16825 0.0
C564 C 0.02108 0.06131 0.22048 0.0
H565 H 0.06695 0.06939 0.26688 0.0
C566 C 0.0216 0.03143 0.21916 0.0
C567 C 0.03855 0.07524 0.23728 0.0
C568 C 0.04041 0.10726 0.23868 0.0
C569 C 0.03765 0.01507 0.23498 0.0
C570 C 0.05397 0.02893 0.25255 0.0
C571 C 0.05451 0.05883 0.25332 0.0
C572 C 0.06701 0.01245 0.27207 0.0
C573 C 0.03553 0.98298 0.23374 0.0
C574 C 0.05448 0.01369 0.2945 0.0
C575 C 0.0614 0.99351 0.31165 0.0
C576 C 0.0811 0.97176 0.30672 0.0
C577 C 0.09571 0.97224 0.28503 0.0
C578 C 0.08864 0.99245 0.26778 0.0
H579 H 0.01884 0.97575 0.22119 0.0
H580 H 0.05624 0.97413 0.22783 0.0
H581 H 0.03069 0.97396 0.25143 0.0
H582 H 0.0378 0.02897 0.29819 0.0
H583 H 0.05002 0.99394 0.3283 0.0
H584 H 0.53199 0.035 0.3312 0.0
H585 H 0.49664 0.02691 0.30105 0.0
H586 H 0.49797 0.11625 0.28293 0.0
H587 H 0.53532 0.12434 0.31266 0.0
H588 H 0.44526 0.04312 0.2921 0.0
H589 H 0.51511 0.08413 0.21995 0.0
H590 H 0.52801 0.08027 0.2497 0.0
H591 H 0.50447 0.10909 0.24223 0.0
C592 C 0.52481 0.05315 0.321 0.0
C593 C 0.53693 0.08031 0.32418 0.0
C594 C 0.50431 0.04846 0.30373 0.0
C595 C 0.49484 0.0708 0.28927 0.0
C596 C 0.50548 0.09844 0.29333 0.0
H597 H 0.38559 0.97727 0.18739 0.0
H598 H 0.39494 0.017 0.21465 0.0
C599 C 0.52666 0.10311 0.31047 0.0
C600 C 0.47558 0.06368 0.26919 0.0
H601 H 0.47624 0.05648 0.20921 0.0
C602 C 0.4517 0.04642 0.27389 0.0
C603 C 0.48368 0.06841 0.2454 0.0
C604 C 0.50926 0.08633 0.23888 0.0
C605 C 0.43816 0.03081 0.25594 0.0
C606 C 0.44782 0.03374 0.23236 0.0
C607 C 0.46915 0.05394 0.22733 0.0
C608 C 0.44087 0.01232 0.21381 0.0
C609 C 0.41561 0.00936 0.26282 0.0
C610 C 0.46343 0.99739 0.20332 0.0
C611 C 0.45819 0.97547 0.1874 0.0
C612 C 0.43017 0.96743 0.1817 0.0
C613 C 0.40741 0.98279 0.19162 0.0
C614 C 0.41274 0.00535 0.20734 0.0
H615 H 0.41396 0.00667 0.28227 0.0
H616 H 0.39459 0.0166 0.25623 0.0
H617 H 0.42025 0.98824 0.25491 0.0
H618 H 0.48532 0.00209 0.20801 0.0
H619 H 0.47631 0.96416 0.1802 0.0
H620 H 0.49958 0.38216 0.18184 0.0
H621 H 0.45752 0.39149 0.20646 0.0
H622 H 0.46968 0.48186 0.19627 0.0
H623 H 0.51001 0.47277 0.17104 0.0
H624 H 0.45536 0.41418 0.24634 0.0
H625 H 0.38681 0.48204 0.1931 0.0
H626 H 0.41519 0.4618 0.17968 0.0
H627 H 0.42145 0.49756 0.19046 0.0
C628 C 0.49267 0.40395 0.18434 0.0
C629 C 0.50824 0.42669 0.17448 0.0
C630 C 0.46863 0.40927 0.19842 0.0
C631 C 0.45984 0.43741 0.20293 0.0
C632 C 0.47501 0.45992 0.19244 0.0
H633 H 0.44773 0.52324 0.32228 0.0
H634 H 0.45109 0.4858 0.29338 0.0
C635 C 0.49855 0.45465 0.17818 0.0
C636 C 0.43801 0.4441 0.2212 0.0
H637 H 0.39289 0.49818 0.23543 0.0
C638 C 0.44092 0.43191 0.24373 0.0
C639 C 0.41784 0.46619 0.21798 0.0
C640 C 0.40997 0.47727 0.19385 0.0
C641 C 0.42754 0.44399 0.26349 0.0
C642 C 0.41211 0.4697 0.26079 0.0
C643 C 0.4057 0.47921 0.23787 0.0
C644 C 0.40759 0.48963 0.28091 0.0
C645 C 0.43135 0.42979 0.28718 0.0
C646 C 0.38213 0.50514 0.28352 0.0
C647 C 0.3804 0.5276 0.29983 0.0
C648 C 0.4041 0.53485 0.31381 0.0
C649 C 0.42895 0.51832 0.31193 0.0
C650 C 0.43078 0.49638 0.29552 0.0
H651 H 0.42988 0.40628 0.28527 0.0
H652 H 0.45293 0.43465 0.29411 0.0
H653 H 0.41513 0.43687 0.30018 0.0
H654 H 0.36397 0.50059 0.27235 0.0
H655 H 0.36095 0.5399 0.30083 0.0
H656 H 0.00208 0.55829 0.64543 0.0
H657 H 0.96115 0.54434 0.6695 0.0
H658 H 0.99522 0.59241 0.72802 0.0
H659 H 0.03529 0.60766 0.70347 0.0
H660 H 0.96992 0.51117 0.70439 0.0
H661 H 0.91285 0.60387 0.7405 0.0
H662 H 0.93677 0.60693 0.71562 0.0
H663 H 0.95035 0.60766 0.74541 0.0
C664 C 1.00011 0.56685 0.66312 0.0
C665 C 0.02179 0.58396 0.67267 0.0
C666 C 0.97675 0.55885 0.67689 0.0
C667 C 0.97495 0.56727 0.70065 0.0
C668 C 0.99558 0.58615 0.70963 0.0
H669 H 0.93827 0.49026 0.82847 0.0
H670 H 0.94555 0.52437 0.79655 0.0
C671 C 0.01864 0.59475 0.69562 0.0
C672 C 0.95532 0.55195 0.71696 0.0
H673 H 0.91165 0.56062 0.76474 0.0
C674 C 0.9565 0.52204 0.7171 0.0
C675 C 0.93793 0.566 0.73372 0.0
C676 C 0.93419 0.59789 0.73363 0.0
C677 C 0.94238 0.50593 0.73434 0.0
C678 C 0.9263 0.52006 0.7519 0.0
C679 C 0.92392 0.54986 0.7512 0.0
C680 C 0.91563 0.50427 0.77277 0.0
C681 C 0.94642 0.474 0.73458 0.0
C682 C 0.89516 0.48258 0.77044 0.0
C683 C 0.89099 0.46286 0.78871 0.0
C684 C 0.90734 0.46461 0.80947 0.0
C685 C 0.92564 0.48808 0.81257 0.0
C686 C 0.92971 0.50774 0.79438 0.0
H687 H 0.96271 0.4669 0.72163 0.0
H688 H 0.95294 0.46667 0.75243 0.0
H689 H 0.92596 0.46342 0.73013 0.0
H690 H 0.8839 0.47975 0.75392 0.0
H691 H 0.87664 0.44511 0.78583 0.0
H692 H 0.02873 0.94129 0.85501 0.0
H693 H 0.98943 0.95176 0.82816 0.0
H694 H 0.03915 0.92003 0.76973 0.0
H695 H 0.078 0.90839 0.79674 0.0
H696 H 0.99639 0.99115 0.79687 0.0
H697 H 0.96189 0.89489 0.749 0.0
H698 H 0.98261 0.89302 0.77583 0.0
H699 H 0.99986 0.89853 0.74772 0.0
C700 C 0.03082 0.93556 0.83656 0.0
C701 C 0.05644 0.92419 0.8279 0.0
C702 C 0.00834 0.94154 0.82123 0.0
C703 C 0.01119 0.93667 0.79688 0.0
C704 C 0.03604 0.92338 0.78847 0.0
H705 H 0.9751 0.01913 0.67143 0.0
H706 H 0.98506 0.98423 0.70219 0.0
C707 C 0.05837 0.91687 0.80392 0.0
C708 C 0.99102 0.95029 0.7801 0.0
H709 H 0.95524 0.94008 0.72825 0.0
C710 C 0.98671 0.97978 0.78225 0.0
C711 C 0.97846 0.93557 0.76094 0.0
C712 C 0.98072 0.9037 0.75839 0.0
C713 C 0.97192 0.99525 0.76503 0.0
C714 C 0.96076 0.98079 0.74517 0.0
C715 C 0.96375 0.95109 0.74354 0.0
C716 C 0.94996 0.9969 0.72455 0.0
C717 C 0.97014 0.02725 0.76741 0.0
C718 C 0.92597 0.01462 0.72638 0.0
C719 C 0.92024 0.03482 0.70879 0.0
C720 C 0.9385 0.03751 0.6892 0.0
C721 C 0.96087 0.01789 0.68647 0.0
C722 C 0.96651 0.99777 0.70397 0.0
H723 H 0.98344 0.03544 0.78215 0.0
H724 H 0.9771 0.03781 0.75082 0.0
H725 H 0.94773 0.03347 0.77085 0.0
H726 H 0.91274 0.01401 0.74205 0.0
H727 H 0.90275 0.04951 0.71133 0.0
H728 H 0.61765 0.04762 0.78503 0.0
H729 H 0.60927 0.00987 0.75584 0.0
H730 H 0.54194 0.97564 0.79928 0.0
H731 H 0.55006 0.01308 0.82837 0.0
H732 H 0.57855 0.93314 0.77228 0.0
H733 H 0.53096 0.02168 0.71974 0.0
H734 H 0.56697 0.02567 0.73013 0.0
H735 H 0.5381 0.02531 0.75089 0.0
C736 C 0.60167 0.03153 0.78869 0.0
C737 C 0.58419 0.03357 0.8088 0.0
C738 C 0.5969 0.01002 0.772 0.0
C739 C 0.57482 0.99019 0.77537 0.0
C740 C 0.55911 0.99072 0.7964 0.0
H741 H 0.45676 0.8791 0.71308 0.0
H742 H 0.49642 0.897 0.73676 0.0
C743 C 0.56367 0.01226 0.81293 0.0
C744 C 0.56466 0.97201 0.75575 0.0
H745 H 0.52261 0.97546 0.70687 0.0
C746 C 0.5668 0.94228 0.75764 0.0
C747 C 0.54937 0.98406 0.73673 0.0
C748 C 0.54596 0.0159 0.73413 0.0
C749 C 0.55326 0.9242 0.74129 0.0
C750 C 0.53645 0.93626 0.72309 0.0
C751 C 0.53554 0.96606 0.72068 0.0
C752 C 0.51712 0.91914 0.70779 0.0
C753 C 0.55691 0.89246 0.74389 0.0
C754 C 0.51568 0.92491 0.68346 0.0
C755 C 0.49251 0.91542 0.67014 0.0
C756 C 0.47076 0.89933 0.68075 0.0
C757 C 0.47357 0.89104 0.70444 0.0
C758 C 0.49639 0.90121 0.71796 0.0
H759 H 0.57814 0.88731 0.75143 0.0
H760 H 0.54057 0.88415 0.75629 0.0
H761 H 0.5546 0.88131 0.72671 0.0
H762 H 0.53135 0.93863 0.67515 0.0
H763 H 0.49067 0.92219 0.6519 0.0
H764 H 0.60111 0.4917 0.64486 0.0
H765 H 0.59283 0.5327 0.67051 0.0
H766 H 0.61844 0.48264 0.73085 0.0
H767 H 0.62842 0.44234 0.70498 0.0
H768 H 0.55172 0.52935 0.69917 0.0
H769 H 0.64484 0.55784 0.75323 0.0
H770 H 0.64809 0.53637 0.72692 0.0
H771 H 0.63909 0.52018 0.75488 0.0
C772 C 0.60625 0.48999 0.66346 0.0
C773 C 0.61532 0.46395 0.67302 0.0
C774 C 0.60147 0.51338 0.67813 0.0
C775 C 0.60494 0.51091 0.7027 0.0
C776 C 0.61625 0.48552 0.71197 0.0
H777 H 0.5093 0.54628 0.82071 0.0
H778 H 0.54773 0.53574 0.79312 0.0
C779 C 0.6218 0.46233 0.69717 0.0
C780 C 0.5911 0.53191 0.71866 0.0
H781 H 0.59805 0.56544 0.77191 0.0
C782 C 0.5622 0.538 0.71465 0.0
C783 C 0.60456 0.54314 0.73901 0.0
C784 C 0.63595 0.53924 0.74358 0.0
C785 C 0.54595 0.55314 0.7311 0.0
C786 C 0.55895 0.5627 0.75217 0.0
C787 C 0.58817 0.55807 0.75571 0.0
C788 C 0.54131 0.57348 0.77187 0.0
C789 C 0.51446 0.55698 0.7266 0.0
C790 C 0.52594 0.59898 0.76973 0.0
C791 C 0.50377 0.60505 0.78547 0.0
C792 C 0.49668 0.58561 0.80348 0.0
C793 C 0.51395 0.56149 0.80683 0.0
C794 C 0.53609 0.55552 0.79117 0.0
H795 H 0.50712 0.54528 0.71067 0.0
H796 H 0.50188 0.54946 0.74202 0.0
H797 H 0.50981 0.57993 0.72399 0.0
H798 H 0.52983 0.61317 0.75498 0.0
H799 H 0.49097 0.62389 0.78251 0.0
H800 H 0.99998 0.66184 0.17516 0.0
H801 H 0.9776 0.69647 0.20198 0.0
H802 H 0.05889 0.73777 0.21175 0.0
H803 H 0.08135 0.70315 0.18561 0.0
H804 H 1.00079 0.70327 0.2517 0.0
H805 H 0.99826 0.80357 0.20023 0.0
H806 H 0.99717 0.76873 0.18658 0.0
H807 H 0.03052 0.78356 0.19628 0.0
C808 C 0.01287 0.67872 0.18267 0.0
C809 C 0.0424 0.67983 0.17844 0.0
C810 C 1.00009 0.69837 0.19795 0.0
C811 C 0.01659 0.71974 0.20857 0.0
C812 C 0.04576 0.72163 0.20343 0.0
H813 H 0.07086 0.80392 0.31855 0.0
H814 H 0.05013 0.76883 0.29188 0.0
C815 C 0.05859 0.70177 0.18862 0.0
C816 C 0.00489 0.73823 0.22724 0.0
H817 H 0.00433 0.80831 0.24261 0.0
C818 C 1.00043 0.72625 0.24965 0.0
C819 C 0.00409 0.76809 0.22443 0.0
C820 C 0.00749 0.7818 0.20051 0.0
C821 C 0.99866 0.74356 0.26976 0.0
C822 C 1.00151 0.77336 0.26723 0.0
C823 C 0.00236 0.7854 0.24454 0.0
C824 C 0.01038 0.79148 0.28724 0.0
C825 C 0.9961 0.72978 0.29372 0.0
C826 C 0.99466 0.8156 0.29382 0.0
C827 C 0.0064 0.83559 0.30941 0.0
C828 C 0.03428 0.83198 0.31794 0.0
C829 C 0.04933 0.80716 0.31219 0.0
C830 C 0.03742 0.78701 0.2971 0.0
H831 H 0.98468 0.70907 0.29258 0.0
H832 H 0.01775 0.72559 0.30078 0.0
H833 H 0.98473 0.74386 0.30634 0.0
H834 H 0.97393 0.81956 0.2861 0.0
H835 H 0.99452 0.85473 0.31345 0.0
H836 H 0.83259 0.00763 0.18408 0.0
H837 H 0.80237 0.98484 0.21428 0.0
H838 H 0.75545 0.06312 0.22232 0.0
H839 H 0.7857 0.08599 0.1928 0.0
H840 H 0.79876 0.01036 0.26253 0.0
H841 H 0.69352 0.99805 0.21974 0.0
H842 H 0.72657 0.99891 0.20328 0.0
H843 H 0.71037 0.03152 0.21309 0.0
C844 C 0.81534 0.01966 0.19191 0.0
C845 C 0.81145 0.04857 0.18621 0.0
C846 C 0.7982 0.00667 0.20915 0.0
C847 C 0.77655 0.02225 0.22029 0.0
C848 C 0.77178 0.05062 0.21365 0.0
H849 H 0.70217 0.07623 0.33634 0.0
H850 H 0.73569 0.05664 0.30781 0.0
C851 C 0.78915 0.06371 0.19688 0.0
C852 C 0.76099 0.01082 0.24092 0.0
H853 H 0.69315 0.00668 0.26204 0.0
C854 C 0.77572 0.00847 0.26239 0.0
C855 C 0.73104 0.00799 0.24066 0.0
C856 C 0.71443 0.00896 0.2179 0.0
C857 C 0.76094 0.00673 0.2839 0.0
C858 C 0.73085 0.00749 0.28377 0.0
C859 C 0.71626 0.00635 0.26215 0.0
C860 C 0.71445 0.01579 0.305 0.0
C861 C 0.77759 0.00621 0.30664 0.0
C862 C 0.6917 0.99909 0.31331 0.0
C863 C 0.67261 0.01022 0.32995 0.0
C864 C 0.6757 0.03842 0.33789 0.0
C865 C 0.69938 0.05441 0.33052 0.0
C866 C 0.71865 0.04315 0.31434 0.0
H867 H 0.79858 0.99572 0.30414 0.0
H868 H 0.78161 0.02841 0.3125 0.0
H869 H 0.76567 0.99493 0.3208 0.0
H870 H 0.68792 0.97807 0.30607 0.0
H871 H 0.65431 0.99761 0.33518 0.0
H872 H 0.49619 0.65137 0.31529 0.0
H873 H 0.51742 0.6846 0.28656 0.0
H874 H 0.43992 0.73378 0.28658 0.0
H875 H 0.41851 0.70055 0.31463 0.0
H876 H 0.48725 0.69396 0.24045 0.0
H877 H 0.50736 0.79365 0.28994 0.0
H878 H 0.50713 0.7589 0.30383 0.0
H879 H 0.47416 0.77678 0.29748 0.0
C880 C 0.48403 0.6697 0.30957 0.0
C881 C 0.45569 0.67341 0.31705 0.0
C882 C 0.49614 0.68857 0.29319 0.0
C883 C 0.4803 0.71172 0.28471 0.0
C884 C 0.45261 0.71625 0.29321 0.0
H885 H 0.42011 0.80314 0.17908 0.0
H886 H 0.43876 0.76694 0.20586 0.0
C887 C 0.44035 0.69719 0.30912 0.0
C888 C 0.49043 0.72916 0.26469 0.0
H889 H 0.4956 0.79886 0.24841 0.0
C890 C 0.49019 0.71679 0.24215 0.0
C891 C 0.49447 0.75884 0.26701 0.0
C892 C 0.49608 0.77284 0.29091 0.0
C893 C 0.4906 0.73382 0.22179 0.0
C894 C 0.49132 0.76374 0.2242 0.0
C895 C 0.4949 0.77586 0.24664 0.0
C896 C 0.48214 0.78258 0.20479 0.0
C897 C 0.48797 0.71989 0.19792 0.0
C898 C 0.50054 0.80305 0.19505 0.0
C899 C 0.48996 0.82358 0.17938 0.0
C900 C 0.46074 0.82425 0.1739 0.0
C901 C 0.44269 0.80309 0.18306 0.0
C902 C 0.45334 0.78234 0.19824 0.0
H903 H 0.49592 0.69762 0.1983 0.0
H904 H 0.46518 0.71938 0.19268 0.0
H905 H 0.49992 0.73209 0.18431 0.0
H906 H 0.52276 0.8037 0.20018 0.0
H907 H 0.50422 0.83986 0.17268 0.0
H908 H 0.64643 0.41597 0.21268 0.0
H909 H 0.68397 0.43109 0.23929 0.0
H910 H 0.70104 0.50409 0.19514 0.0
H911 H 0.66333 0.48874 0.16785 0.0
H912 H 0.74915 0.47573 0.20633 0.0
H913 H 0.68842 0.49329 0.28809 0.0
H914 H 0.67899 0.45933 0.27597 0.0
H915 H 0.6714 0.49135 0.25951 0.0
C916 C 0.65788 0.43542 0.20863 0.0
C917 C 0.65184 0.45114 0.18809 0.0
C918 C 0.67917 0.44425 0.22408 0.0
C919 C 0.69482 0.46913 0.21957 0.0
C920 C 0.6889 0.48504 0.19913 0.0
H921 H 0.82583 0.48084 0.33085 0.0
H922 H 0.78872 0.49934 0.30439 0.0
C923 C 0.66744 0.47619 0.18355 0.0
C924 C 0.71913 0.47631 0.23515 0.0
H925 H 0.73744 0.47573 0.29342 0.0
C926 C 0.74659 0.47662 0.22535 0.0
C927 C 0.71589 0.47833 0.25994 0.0
C928 C 0.68701 0.4809 0.27142 0.0
C929 C 0.77081 0.47561 0.23981 0.0
C930 C 0.76735 0.47357 0.26459 0.0
C931 C 0.74008 0.47659 0.2744 0.0
C932 C 0.79083 0.46387 0.28007 0.0
C933 C 0.79981 0.4753 0.22835 0.0
C934 C 0.80379 0.43758 0.27544 0.0
C935 C 0.82474 0.42698 0.29042 0.0
C936 C 0.83309 0.44229 0.3106 0.0
C937 C 0.8199 0.46855 0.31543 0.0
C938 C 0.79881 0.47921 0.30031 0.0
H939 H 0.79973 0.48778 0.21166 0.0
H940 H 0.81641 0.48413 0.24026 0.0
H941 H 0.80556 0.45304 0.22384 0.0
H942 H 0.79731 0.4249 0.26038 0.0
H943 H 0.83424 0.40661 0.2862 0.0
H944 H 0.93988 0.20388 0.6829 0.0
H945 H 0.95876 0.23984 0.70969 0.0
H946 H 0.04006 0.1972 0.71036 0.0
H947 H 0.02127 0.16109 0.68299 0.0
H948 H 0.01314 0.20528 0.7558 0.0
H949 H 0.01751 0.30586 0.70525 0.0
H950 H 0.98546 0.28621 0.69931 0.0
H951 H 0.01941 0.27124 0.69132 0.0
C952 C 0.962 0.20253 0.68826 0.0
C953 C 0.9791 0.1797 0.68096 0.0
C954 C 0.97283 0.22321 0.70342 0.0
C955 C 1.00089 0.22134 0.71177 0.0
C956 C 0.01846 0.19917 0.70384 0.0
H957 H 0.0066 0.35608 0.81862 0.0
H958 H 0.03063 0.32286 0.79165 0.0
C959 C 0.00773 0.17864 0.68823 0.0
C960 C 0.00969 0.24027 0.7313 0.0
H961 H 0.00522 0.3101 0.74709 0.0
C962 C 0.01252 0.22827 0.75388 0.0
C963 C 0.00934 0.2702 0.72875 0.0
C964 C 0.00807 0.28414 0.70479 0.0
C965 C 0.0114 0.24537 0.77415 0.0
C966 C 0.00725 0.27501 0.77162 0.0
C967 C 0.00807 0.28729 0.74902 0.0
C968 C 0.99594 0.29245 0.79121 0.0
C969 C 0.01251 0.2314 0.79811 0.0
C970 C 0.96873 0.2861 0.80005 0.0
C971 C 0.95489 0.3051 0.81502 0.0
C972 C 0.96809 0.33074 0.82161 0.0
C973 C 0.99606 0.33634 0.81394 0.0
C974 C 0.00977 0.31745 0.79855 0.0
H975 H 0.02534 0.21154 0.79756 0.0
H976 H 0.02168 0.24598 0.81155 0.0
H977 H 0.99058 0.22558 0.80366 0.0
H978 H 0.95744 0.26722 0.79423 0.0
H979 H 0.93336 0.30025 0.82069 0.0
H980 H 0.31325 0.88523 0.7045 0.0
H981 H 0.28046 0.89943 0.73563 0.0
H982 H 0.30236 0.98763 0.72399 0.0
H983 H 0.33498 0.97353 0.69218 0.0
H984 H 0.29554 0.92601 0.77612 0.0
H985 H 0.21571 0.99055 0.72731 0.0
H986 H 0.2408 0.96756 0.71253 0.0
H987 H 0.2521 1.00162 0.72357 0.0
C988 C 0.31087 0.90772 0.7083 0.0
C989 C 0.32679 0.92827 0.69592 0.0
C990 C 0.29211 0.91579 0.72614 0.0
C991 C 0.28888 0.94457 0.73213 0.0
C992 C 0.30416 0.96532 0.71942 0.0
H993 H 0.21084 0.986 0.86924 0.0
H994 H 0.24423 0.98507 0.83569 0.0
C995 C 0.32284 0.95724 0.70129 0.0
C996 C 0.27076 0.95221 0.75263 0.0
H997 H 0.21036 0.98769 0.76876 0.0
C998 C 0.27701 0.93965 0.77455 0.0
C999 C 0.24651 0.96985 0.75048 0.0
C1000 C 0.23813 0.98302 0.72719 0.0
C1001 C 0.25933 0.94364 0.79422 0.0
C1002 C 0.23513 0.96134 0.79211 0.0
C1003 C 0.22913 0.97438 0.77035 0.0
C1004 C 0.21458 0.96458 0.81179 0.0
C1005 C 0.26602 0.92786 0.8168 0.0
C1006 C 0.18666 0.95436 0.80916 0.0
C1007 C 0.16773 0.95501 0.82816 0.0
C1008 C 0.17649 0.96574 0.8501 0.0
C1009 C 0.20393 0.9772 0.85251 0.0
C1010 C 0.22292 0.97659 0.83345 0.0
H1011 H 0.28158 0.9104 0.81391 0.0
H1012 H 0.27533 0.94293 0.82976 0.0
H1013 H 0.24638 0.91862 0.82466 0.0
H1014 H 0.17974 0.94518 0.79257 0.0
H1015 H 0.14636 0.94675 0.82581 0.0
H1016 H 0.49678 0.15954 0.81442 0.0
H1017 H 0.47779 0.1956 0.78703 0.0
H1018 H 0.56133 0.23347 0.78155 0.0
H1019 H 0.58029 0.19786 0.80852 0.0
H1020 H 0.51204 0.27336 0.78498 0.0
H1021 H 0.50325 0.18994 0.71521 0.0
H1022 H 0.4866 0.18479 0.7436 0.0
H1023 H 0.52467 0.18382 0.74117 0.0
C1024 C 0.51088 0.17595 0.80771 0.0
C1025 C 0.54008 0.17573 0.81335 0.0
C1026 C 0.50004 0.19642 0.79206 0.0
C1027 C 0.51825 0.217 0.78221 0.0
C1028 C 0.54694 0.21777 0.78901 0.0
H1029 H 0.58803 0.30075 0.67822 0.0
H1030 H 0.56407 0.26895 0.70583 0.0
C1031 C 0.55778 0.1973 0.80433 0.0
C1032 C 0.50908 0.23618 0.76296 0.0
H1033 H 0.50859 0.23732 0.70275 0.0
C1034 C 0.51002 0.26564 0.76701 0.0
C1035 C 0.50648 0.2259 0.7396 0.0
C1036 C 0.50517 0.1944 0.73441 0.0
C1037 C 0.51156 0.28498 0.74814 0.0
C1038 C 0.51218 0.27443 0.72477 0.0
C1039 C 0.50808 0.24524 0.72073 0.0
C1040 C 0.52414 0.29188 0.7054 0.0
C1041 C 0.51564 0.31625 0.7533 0.0
C1042 C 0.50928 0.3149 0.69552 0.0
C1043 C 0.52298 0.33318 0.67951 0.0
C1044 C 0.55175 0.32876 0.6735 0.0
C1045 C 0.56596 0.30488 0.68265 0.0
C1046 C 0.55225 0.2866 0.69835 0.0
H1047 H 0.51457 0.32098 0.7725 0.0
H1048 H 0.53664 0.32344 0.74647 0.0
H1049 H 0.49895 0.3288 0.74414 0.0
H1050 H 0.48752 0.31921 0.70075 0.0
H1051 H 0.51153 0.35145 0.67274 0.0
H1052 H 0.34795 0.51099 0.81653 0.0
H1053 H 0.30948 0.49206 0.79156 0.0
H1054 H 0.31335 0.56768 0.74836 0.0
H1055 H 0.3515 0.58644 0.77269 0.0
H1056 H 0.2569 0.51523 0.78378 0.0
H1057 H 0.31263 0.50587 0.69864 0.0
H1058 H 0.33152 0.50893 0.72633 0.0
H1059 H 0.31929 0.54034 0.71106 0.0
C1060 C 0.34074 0.52342 0.80154 0.0
C1061 C 0.35286 0.55023 0.79661 0.0
C1062 C 0.31885 0.51252 0.78729 0.0
C1063 C 0.30905 0.52814 0.76774 0.0
C1064 C 0.32116 0.55483 0.76287 0.0
H1065 H 0.16165 0.57918 0.7094 0.0
H1066 H 0.20023 0.56181 0.73387 0.0
C1067 C 0.34283 0.5657 0.77703 0.0
C1068 C 0.28447 0.51838 0.75343 0.0
H1069 H 0.26169 0.51785 0.69627 0.0
C1070 C 0.25804 0.51489 0.76465 0.0
C1071 C 0.28595 0.51704 0.72849 0.0
C1072 C 0.31399 0.51791 0.71549 0.0
C1073 C 0.23274 0.51351 0.7515 0.0
C1074 C 0.23399 0.51632 0.72663 0.0
C1075 C 0.26062 0.51633 0.71536 0.0
C1076 C 0.2086 0.52444 0.71261 0.0
C1077 C 0.20481 0.51062 0.76447 0.0
C1078 C 0.20074 0.50956 0.69208 0.0
C1079 C 0.17859 0.5197 0.67774 0.0
C1080 C 0.16432 0.54508 0.68357 0.0
C1081 C 0.17211 0.55958 0.7043 0.0
C1082 C 0.19401 0.54946 0.71855 0.0
H1083 H 0.20744 0.49758 0.78071 0.0
H1084 H 0.1974 0.53204 0.76998 0.0
H1085 H 0.18818 0.50071 0.7532 0.0
H1086 H 0.21203 0.49043 0.68699 0.0
H1087 H 0.17313 0.50807 0.66186 0.0
H1088 H 0.99255 0.57072 0.08591 0.0
H1089 H 0.97953 0.54288 0.05122 0.0
H1090 H 0.06414 0.55418 0.02295 0.0
H1091 H 0.07761 0.58178 0.05797 0.0
H1092 H 0.97969 0.55499 0.00337 0.0
H1093 H 0.05498 0.46745 0.0247 0.0
H1094 H 0.04628 0.4952 0.0455 0.0
H1095 H 0.07107 0.50204 0.02196 0.0
C1096 C 0.00838 0.56755 0.07224 0.0
C1097 C 0.03623 0.57825 0.0748 0.0
C1098 C 1.00087 0.55161 0.05242 0.0
C1099 C 0.02102 0.54596 0.03478 0.0
C1100 C 0.04845 0.55777 0.03666 0.0
H1101 H 0.01282 0.44811 0.90567 0.0
H1102 H 0.02721 0.47689 0.93953 0.0
C1103 C 0.05604 0.57374 0.05656 0.0
C1104 C 0.0133 0.52708 0.01482 0.0
H1105 H 0.0292 0.46333 0.98898 0.0
C1106 C 0.99048 0.53494 0.00021 0.0
C1107 C 0.02734 0.50086 0.01087 0.0
C1108 C 0.05112 0.49067 0.02668 0.0
C1109 C 0.98154 0.51744 0.98155 0.0
C1110 C 0.99555 0.49122 0.97765 0.0
C1111 C 0.01846 0.48341 0.99214 0.0
C1112 C 0.98723 0.47203 0.95811 0.0
C1113 C 0.95751 0.52733 0.96589 0.0
C1114 C 0.96026 0.45905 0.95771 0.0
C1115 C 0.95196 0.44243 0.93839 0.0
C1116 C 0.97054 0.43861 0.91918 0.0
C1117 C 0.99795 0.45074 0.92013 0.0
C1118 C 0.00624 0.46721 0.93946 0.0
H1119 H 0.95311 0.55042 0.96811 0.0
H1120 H 0.96245 0.52315 0.94703 0.0
H1121 H 0.93784 0.51538 0.97047 0.0
H1122 H 0.94548 0.46218 0.97217 0.0
H1123 H 0.93073 0.43334 0.93819 0.0
H1124 H 0.03217 0.03375 0.90211 0.0
H1125 H 0.99619 0.05159 0.92973 0.0
H1126 H 0.03041 0.99788 0.98455 0.0
H1127 H 0.06633 0.97974 0.95708 0.0
H1128 H 0.95515 0.01485 0.95641 0.0
H1129 H 0.02564 0.08119 0.01293 0.0
H1130 H 0.03502 0.07114 0.98312 0.0
H1131 H 0.03842 0.04586 0.00677 0.0
C1132 C 0.03221 0.02591 0.92011 0.0
C1133 C 0.05215 0.00537 0.92744 0.0
C1134 C 0.01159 0.03607 0.9358 0.0
C1135 C 0.01084 0.02617 0.95915 0.0
C1136 C 0.03089 0.00596 0.96663 0.0
H1137 H 0.89583 0.01343 0.07256 0.0
H1138 H 0.92203 0.00776 0.03563 0.0
C1139 C 0.05133 0.99558 0.9509 0.0
C1140 C 0.98855 0.03614 0.97563 0.0
H1141 H 0.97929 0.07105 0.02784 0.0
C1142 C 0.96028 0.02747 0.97188 0.0
C1143 C 0.99532 0.05287 0.99557 0.0
C1144 C 0.0252 0.06357 -0.00015 0.0
C1145 C 0.9388 0.03392 0.98829 0.0
C1146 C 0.94591 0.0493 0.00892 0.0
C1147 C 0.9739 0.05921 0.01201 0.0
C1148 C 0.92555 0.05296 0.02865 0.0
C1149 C 0.90882 0.02377 0.98371 0.0
C1150 C 0.91832 0.08027 0.03673 0.0
C1151 C 0.90315 0.08358 0.05784 0.0
C1152 C 0.89549 0.05962 0.07136 0.0
C1153 C 0.90142 0.03229 0.06253 0.0
C1154 C 0.91629 0.02901 0.04135 0.0
H1155 H 0.90514 0.01973 0.96462 0.0
H1156 H 0.90517 0.0035 0.99336 0.0
H1157 H 0.89298 0.03956 0.99004 0.0
H1158 H 0.92546 0.09901 0.02723 0.0
H1159 H 0.89906 0.10491 0.06428 0.0
H1160 H 0.42584 0.92888 0.05697 0.0
H1161 H 0.43788 0.9571 0.02187 0.0
H1162 H 0.52574 0.96006 0.044 0.0
H1163 H 0.51408 0.93163 0.07873 0.0
H1164 H 0.46032 0.01181 0.0227 0.0
H1165 H 0.53299 0.93915 0.9747 0.0
H1166 H 0.50974 0.92701 -0.00194 0.0
H1167 H 0.54294 0.94431 0.00499 0.0
C1168 C 0.44783 0.93502 0.05407 0.0
C1169 C 0.46901 0.92797 0.07062 0.0
C1170 C 0.45464 0.95125 0.03409 0.0
C1171 C 0.48275 0.96045 0.03022 0.0
C1172 C 0.50403 0.95273 0.04636 0.0
H1173 H 0.56966 0.07299 0.93213 0.0
H1174 H 0.55565 0.04446 0.96653 0.0
C1175 C 0.49726 0.93656 0.06629 0.0
C1176 C 0.48963 0.97986 0.01035 0.0
H1177 H 0.53332 0.98786 0.96257 0.0
C1178 C 0.47608 0.00649 0.00941 0.0
C1179 C 0.51032 0.97293 0.99313 0.0
C1180 C 0.52465 0.94419 0.99258 0.0
C1181 C 0.48314 0.02663 0.992 0.0
C1182 C 0.50408 0.0198 0.97498 0.0
C1183 C 0.51747 0.99312 0.97581 0.0
C1184 C 0.51175 0.03959 0.95561 0.0
C1185 C 0.46862 0.05527 0.99224 0.0
C1186 C 0.49159 0.0466 0.93831 0.0
C1187 C 0.4995 0.06284 0.9187 0.0
C1188 C 0.52777 0.07231 0.91597 0.0
C1189 C 0.5477 0.06616 0.93378 0.0
C1190 C 0.53977 0.04977 0.95337 0.0
H1191 H 0.45854 0.05977 0.0096 0.0
H1192 H 0.48399 0.07259 0.98811 0.0
H1193 H 0.45169 0.05554 0.97858 0.0
H1194 H 0.46997 0.0386 0.93952 0.0
H1195 H 0.48366 0.06713 0.90527 0.0
H1196 H 0.44446 0.5778 0.9235 0.0
H1197 H 0.46945 0.56287 0.95944 0.0
H1198 H 0.47146 0.47638 0.93395 0.0
H1199 H 0.44691 0.49109 0.89795 0.0
H1200 H 0.45704 0.52175 0.99427 0.0
H1201 H 0.55578 0.4946 0.94524 0.0
H1202 H 0.52723 0.51494 0.9322 0.0
H1203 H 0.52437 0.47686 0.93466 0.0
C1204 C 0.44989 0.55554 0.92569 0.0
C1205 C 0.44394 0.53569 0.90777 0.0
C1206 C 0.46425 0.54707 0.94619 0.0
C1207 C 0.47292 0.51866 0.94906 0.0
C1208 C 0.46561 0.49854 0.9318 0.0
H1209 H 0.56534 0.42651 0.05798 0.0
H1210 H 0.54073 0.44096 0.02172 0.0
C1211 C 0.45136 0.50698 0.91131 0.0
C1212 C 0.49015 0.51013 0.96984 0.0
H1213 H 0.55453 0.48224 0.98587 0.0
C1214 C 0.47839 0.51324 0.99246 0.0
C1215 C 0.51802 0.499 0.9674 0.0
C1216 C 0.53226 0.49636 0.9436 0.0
C1217 C 0.49357 0.50504 0.01271 0.0
C1218 C 0.52142 0.4939 0.01026 0.0
C1219 C 0.53317 0.49075 0.98765 0.0
C1220 C 0.53866 0.48558 0.03107 0.0
C1221 C 0.47945 0.50783 0.03655 0.0
C1222 C 0.54665 0.50606 0.04782 0.0
C1223 C 0.56074 0.49793 0.06845 0.0
C1224 C 0.56725 0.46913 0.07269 0.0
C1225 C 0.56063 0.44885 0.05526 0.0
C1226 C 0.54649 0.45705 0.03458 0.0
H1227 H 0.45597 0.51007 0.03498 0.0
H1228 H 0.48418 0.48908 0.04785 0.0
H1229 H 0.4878 0.5271 0.04557 0.0
H1230 H 0.54135 0.52829 0.04519 0.0
H1231 H 0.56568 0.51413 0.08144 0.0
H1232 H 0.99025 0.94424 0.41025 0.0
H1233 H 0.98019 0.97243 0.44545 0.0
H1234 H 0.06668 0.96082 0.46916 0.0
H1235 H 0.07712 0.93273 0.43372 0.0
H1236 H 0.98524 0.96006 0.49413 0.0
H1237 H 0.05699 0.04823 0.46608 0.0
H1238 H 0.0458 0.02031 0.44622 0.0
H1239 H 0.07325 0.01366 0.46761 0.0
C1240 C 0.0071 0.94739 0.42305 0.0
C1241 C 0.03457 0.93646 0.4191 0.0
C1242 C 1.00129 0.96352 0.44315 0.0
C1243 C 0.02283 0.96916 0.45962 0.0
C1244 C 0.04992 0.95715 0.45637 0.0
H1245 H 0.02967 0.06926 0.58712 0.0
H1246 H 0.03998 0.04115 0.55192 0.0
C1247 C 0.05578 0.94092 0.43623 0.0
C1248 C 0.01698 0.98833 0.47976 0.0
H1249 H 0.03494 0.05278 0.50344 0.0
C1250 C 0.99605 0.98035 0.49619 0.0
C1251 C 0.03106 0.01484 0.48224 0.0
C1252 C 0.05287 0.02499 0.46453 0.0
C1253 C 0.98916 0.99797 0.51534 0.0
C1254 C 0.0032 0.02451 0.51781 0.0
C1255 C 0.02414 0.03248 0.50139 0.0
C1256 C 0.99722 0.04375 0.53789 0.0
C1257 C 0.9674 0.98776 0.53308 0.0
C1258 C 0.96999 0.05541 0.54119 0.0
C1259 C 0.96398 0.07156 0.56133 0.0
C1260 C 0.98518 0.07634 0.57841 0.0
C1261 C 0.01282 0.06587 0.57436 0.0
C1262 C 0.01877 0.04977 0.55426 0.0
H1263 H 0.96355 0.96446 0.53167 0.0
H1264 H 0.97432 0.99269 0.55138 0.0
H1265 H 0.94689 0.99881 0.52985 0.0
H1266 H 0.95323 0.05148 0.52846 0.0
H1267 H 0.94253 0.07941 0.56391 0.0
H1268 H 0.55807 0.98686 0.42324 0.0
H1269 H 0.52629 0.97291 0.45537 0.0
H1270 H 0.53147 0.05766 0.48433 0.0
H1271 H 0.56366 0.07184 0.45223 0.0
H1272 H 0.53541 0.01375 0.51836 0.0
H1273 H 0.44252 0.99737 0.45932 0.0
H1274 H 0.47371 0.97786 0.45074 0.0
H1275 H 0.47421 0.01616 0.45001 0.0
C1276 C 0.5527 0.00253 0.43653 0.0
C1277 C 0.56328 0.03054 0.43508 0.0
C1278 C 0.53431 0.99455 0.45479 0.0
C1279 C 0.52595 0.01443 0.47189 0.0
C1280 C 0.53743 0.04207 0.47114 0.0
H1281 H 0.41764 0.00218 0.59656 0.0
H1282 H 0.44549 0.01979 0.56312 0.0
C1283 C 0.5559 0.05011 0.45285 0.0
C1284 C 0.50519 0.00625 0.49049 0.0
H1285 H 0.43745 0.98135 0.49898 0.0
C1286 C 0.51392 0.00689 0.51416 0.0
C1287 C 0.47716 0.99727 0.48494 0.0
C1288 C 0.46618 0.99734 0.4599 0.0
C1289 C 0.49564 0.99803 0.53241 0.0
C1290 C 0.46768 0.98882 0.52684 0.0
C1291 C 0.45887 0.98841 0.50318 0.0
C1292 C 0.44758 0.97905 0.54541 0.0
C1293 C 0.50672 0.9978 0.55743 0.0
C1294 C 0.43806 0.95068 0.54583 0.0
C1295 C 0.42182 0.94056 0.56485 0.0
C1296 C 0.41485 0.9587 0.58373 0.0
C1297 C 0.42282 0.98757 0.58241 0.0
C1298 C 0.43894 0.99766 0.56339 0.0
H1299 H 0.53036 0.99884 0.55803 0.0
H1300 H 0.49828 0.01661 0.56698 0.0
H1301 H 0.4996 0.97835 0.56694 0.0
H1302 H 0.44428 0.93603 0.53199 0.0
H1303 H 0.41605 0.91821 0.56532 0.0
H1304 H 0.50045 0.43982 0.58695 0.0
H1305 H 0.4833 0.4678 0.55354 0.0
H1306 H 0.56157 0.45145 0.51608 0.0
H1307 H 0.57909 0.42341 0.54963 0.0
H1308 H 0.54604 0.51021 0.51982 0.0
H1309 H 0.45622 0.4439 0.48719 0.0
H1310 H 0.45591 0.45056 0.51843 0.0
H1311 H 0.48412 0.42977 0.50574 0.0
C1312 C 0.51386 0.44172 0.57145 0.0
C1313 C 0.54116 0.42941 0.57093 0.0
C1314 C 0.50395 0.45764 0.55233 0.0
C1315 C 0.52108 0.46151 0.5323 0.0
C1316 C 0.548 0.44857 0.53138 0.0
H1317 H 0.50874 0.56215 0.40536 0.0
H1318 H 0.52448 0.53422 0.43919 0.0
C1319 C 0.55791 0.43248 0.5505 0.0
C1320 C 0.51169 0.48084 0.51317 0.0
H1321 H 0.45981 0.49081 0.4718 0.0
C1322 C 0.5273 0.50592 0.5092 0.0
C1323 C 0.48703 0.47531 0.4996 0.0
C1324 C 0.46993 0.44832 0.50275 0.0
C1325 C 0.51873 0.52582 0.49213 0.0
C1326 C 0.49421 0.52018 0.47839 0.0
C1327 C 0.47851 0.49516 0.48246 0.0
C1328 C 0.48527 0.5392 0.45886 0.0
C1329 C 0.53571 0.55294 0.48927 0.0
C1330 C 0.4579 0.55123 0.45861 0.0
C1331 C 0.44872 0.56719 0.43916 0.0
C1332 C 0.46672 0.57112 0.41957 0.0
C1333 C 0.49437 0.55964 0.4202 0.0
C1334 C 0.50349 0.54376 0.43959 0.0
H1335 H 0.54819 0.55793 0.50542 0.0
H1336 H 0.55096 0.55036 0.47445 0.0
H1337 H 0.52163 0.57128 0.4852 0.0
H1338 H 0.44347 0.54782 0.47329 0.0
H1339 H 0.42726 0.57562 0.43915 0.0
H1340 H 0.92883 0.50261 0.41171 0.0
H1341 H 0.95834 0.51682 0.44517 0.0
H1342 H 0.95877 0.43013 0.47042 0.0
H1343 H 0.92955 0.41555 0.43665 0.0
H1344 H 0.95182 0.513 0.49365 0.0
H1345 H 0.04364 0.44824 0.46313 0.0
H1346 H 0.01302 0.4551 0.44475 0.0
H1347 H 0.01127 0.42847 0.46754 0.0
C1348 C 0.93485 0.48657 0.42452 0.0
C1349 C 0.92704 0.45787 0.42138 0.0
C1350 C 0.95178 0.49476 0.44363 0.0
C1351 C 0.96133 0.47443 0.45996 0.0
C1352 C 0.95221 0.44604 0.45768 0.0
H1353 H 0.06889 0.48416 0.58349 0.0
H1354 H 0.04021 0.46903 0.54976 0.0
C1355 C 0.93526 0.4378 0.43851 0.0
C1356 C 0.98148 0.483 0.47886 0.0
H1357 H 0.04883 0.47185 0.49981 0.0
C1358 C 0.97305 0.50406 0.49498 0.0
C1359 C 0.00925 0.47141 0.48046 0.0
C1360 C 0.02002 0.44974 0.46294 0.0
C1361 C 0.99144 0.5135 0.5129 0.0
C1362 C 0.01917 0.50188 0.51451 0.0
C1363 C 0.0276 0.48079 0.49844 0.0
C1364 C 0.03926 0.51063 0.53336 0.0
C1365 C 0.98084 0.53538 0.53031 0.0
C1366 C 0.04925 0.5388 0.53478 0.0
C1367 C 0.06582 0.54753 0.55402 0.0
C1368 C 0.07261 0.52821 0.57215 0.0
C1369 C 0.06395 0.49962 0.5699 0.0
C1370 C 0.04751 0.49092 0.55064 0.0
H1371 H 0.95728 0.53754 0.52978 0.0
H1372 H 0.98732 0.52972 0.54857 0.0
H1373 H 0.99032 0.55641 0.52596 0.0
H1374 H 0.04354 0.55421 0.52136 0.0
H1375 H 0.07216 0.56968 0.55522 0.0
loop_
_geom_bond_atom_site_label_1
_geom_bond_atom_site_label_2
_geom_bond_distance
_geom_bond_site_symmetry_2
_ccdc_geom_bond_type
O0 Cd1 2.223 1_655 S
O0 C8 1.315 1_655 S
Cd1 O0 2.223 1_455 S
Cd1 O4 2.297 1_455 S
Cd1 O5 2.439 . S
Cd1 O11 2.240 . S
Cd2 O3 2.240 . S
Cd2 O10 2.223 . S
Cd2 O12 2.297 . S
Cd2 O13 2.439 . S
O3 Cd2 2.240 . S
O3 C8 1.279 . S
O4 Cd1 2.297 1_655 S
O4 C6 1.247 1_655 S
O5 Cd1 2.439 . S
O5 C6 1.208 . S
C6 O4 1.247 1_455 S
C6 O5 1.208 . S
C7 O12 1.247 . S
C7 O13 1.208 . S
C8 O0 1.315 1_455 S
C8 O3 1.279 . S
C9 O10 1.315 . S
C9 O11 1.279 . S
O10 Cd2 2.223 . S
O10 C9 1.315 . S
O11 Cd1 2.240 . S
O11 C9 1.279 . S
O12 Cd2 2.297 . S
O12 C7 1.247 . S
O13 Cd2 2.439 . S
O13 C7 1.208 . S
O14 Cd15 2.223 1_565 S
O14 C22 1.315 1_565 S
Cd15 O14 2.223 1_545 S
Cd15 O18 2.297 1_545 S
Cd15 O19 2.439 . S
Cd15 O25 2.240 . S
Cd16 O17 2.240 . S
Cd16 O24 2.223 . S
Cd16 O26 2.297 . S
Cd16 O27 2.439 . S
O17 Cd16 2.240 . S
O17 C22 1.279 . S
O18 Cd15 2.297 1_565 S
O18 C20 1.247 1_565 S
O19 Cd15 2.439 . S
O19 C20 1.208 . S
C20 O18 1.247 1_545 S
C20 O19 1.208 . S
C21 O26 1.247 . S
C21 O27 1.208 . S
C22 O14 1.315 1_545 S
C22 O17 1.279 . S
C23 O24 1.315 . S
C23 O25 1.279 . S
O24 Cd16 2.223 . S
O24 C23 1.315 . S
O25 Cd15 2.240 . S
O25 C23 1.279 . S
O26 Cd16 2.297 . S
O26 C21 1.247 . S
O27 Cd16 2.439 . S
O27 C21 1.208 . S
O28 Cd29 2.223 . S
O28 C36 1.315 . S
Cd29 O28 2.223 . S
Cd29 O32 2.297 . S
Cd29 O33 2.439 . S
Cd29 O39 2.240 . S
Cd30 O31 2.240 . S
Cd30 O38 2.223 . S
Cd30 O40 2.297 . S
Cd30 O41 2.439 . S
O31 Cd30 2.240 . S
O31 C36 1.279 . S
O32 Cd29 2.297 . S
O32 C34 1.247 . S
O33 Cd29 2.439 . S
O33 C34 1.208 . S
C34 O32 1.247 . S
C34 O33 1.208 . S
C35 O40 1.247 . S
C35 O41 1.208 . S
C36 O28 1.315 . S
C36 O31 1.279 . S
C37 O38 1.315 . S
C37 O39 1.279 . S
O38 Cd30 2.223 . S
O38 C37 1.315 . S
O39 Cd29 2.240 . S
O39 C37 1.279 . S
O40 Cd30 2.297 . S
O40 C35 1.247 . S
O41 Cd30 2.439 . S
O41 C35 1.208 . S
O42 Cd43 2.223 . S
O42 C50 1.315 . S
Cd43 O42 2.223 . S
Cd43 O46 2.297 . S
Cd43 O47 2.439 . S
Cd43 O53 2.240 . S
Cd44 O45 2.240 . S
Cd44 O52 2.223 . S
Cd44 O54 2.297 . S
Cd44 O55 2.439 . S
O45 Cd44 2.240 . S
O45 C50 1.279 . S
O46 Cd43 2.297 . S
O46 C48 1.247 . S
O47 Cd43 2.439 . S
O47 C48 1.208 . S
C48 O46 1.247 . S
C48 O47 1.208 . S
C49 O54 1.247 . S
C49 O55 1.208 . S
C50 O42 1.315 . S
C50 O45 1.279 . S
C51 O52 1.315 . S
C51 O53 1.279 . S
O52 Cd44 2.223 . S
O52 C51 1.315 . S
O53 Cd43 2.240 . S
O53 C51 1.279 . S
O54 Cd44 2.297 . S
O54 C49 1.247 . S
O55 Cd44 2.439 . S
O55 C49 1.208 . S
O56 Cd57 2.223 1_655 S
O56 C64 1.315 1_655 S
Cd57 O56 2.223 1_455 S
Cd57 O60 2.297 1_455 S
Cd57 O61 2.439 . S
Cd57 O67 2.240 . S
Cd58 O59 2.240 . S
Cd58 O66 2.223 . S
Cd58 O68 2.297 . S
Cd58 O69 2.439 . S
O59 Cd58 2.240 . S
O59 C64 1.279 . S
O60 Cd57 2.297 1_655 S
O60 C62 1.247 1_655 S
O61 Cd57 2.439 . S
O61 C62 1.208 . S
C62 O60 1.247 1_455 S
C62 O61 1.208 . S
C63 O68 1.247 . S
C63 O69 1.208 . S
C64 O56 1.315 1_455 S
C64 O59 1.279 . S
C65 O66 1.315 . S
C65 O67 1.279 . S
O66 Cd58 2.223 . S
O66 C65 1.315 . S
O67 Cd57 2.240 . S
O67 C65 1.279 . S
O68 Cd58 2.297 . S
O68 C63 1.247 . S
O69 Cd58 2.439 . S
O69 C63 1.208 . S
O70 Cd71 2.223 1_565 S
O70 C78 1.315 1_565 S
Cd71 O70 2.223 1_545 S
Cd71 O74 2.297 1_545 S
Cd71 O75 2.439 . S
Cd71 O81 2.240 . S
Cd72 O73 2.240 . S
Cd72 O80 2.223 . S
Cd72 O82 2.297 . S
Cd72 O83 2.439 . S
O73 Cd72 2.240 . S
O73 C78 1.279 . S
O74 Cd71 2.297 1_565 S
O74 C76 1.247 1_565 S
O75 Cd71 2.439 . S
O75 C76 1.208 . S
C76 O74 1.247 1_545 S
C76 O75 1.208 . S
C77 O82 1.247 . S
C77 O83 1.208 . S
C78 O70 1.315 1_545 S
C78 O73 1.279 . S
C79 O80 1.315 . S
C79 O81 1.279 . S
O80 Cd72 2.223 . S
O80 C79 1.315 . S
O81 Cd71 2.240 . S
O81 C79 1.279 . S
O82 Cd72 2.297 . S
O82 C77 1.247 . S
O83 Cd72 2.439 . S
O83 C77 1.208 . S
O84 Cd85 2.223 . S
O84 C92 1.315 . S
Cd85 O84 2.223 . S
Cd85 O88 2.297 . S
Cd85 O89 2.439 . S
Cd85 O95 2.240 . S
Cd86 O87 2.240 . S
Cd86 O94 2.223 . S
Cd86 O96 2.297 . S
Cd86 O97 2.439 . S
O87 Cd86 2.240 . S
O87 C92 1.279 . S
O88 Cd85 2.297 . S
O88 C90 1.247 . S
O89 Cd85 2.439 . S
O89 C90 1.208 . S
C90 O88 1.247 . S
C90 O89 1.208 . S
C91 O96 1.247 . S
C91 O97 1.208 . S
C92 O84 1.315 . S
C92 O87 1.279 . S
C93 O94 1.315 . S
C93 O95 1.279 . S
O94 Cd86 2.223 . S
O94 C93 1.315 . S
O95 Cd85 2.240 . S
O95 C93 1.279 . S
O96 Cd86 2.297 . S
O96 C91 1.247 . S
O97 Cd86 2.439 . S
O97 C91 1.208 . S
O98 Cd99 2.223 . S
O98 C106 1.315 . S
Cd99 O98 2.223 . S
Cd99 O102 2.297 . S
Cd99 O103 2.439 . S
Cd99 O109 2.240 . S
Cd100 O101 2.240 . S
Cd100 O108 2.223 . S
Cd100 O110 2.297 . S
Cd100 O111 2.439 . S
O101 Cd100 2.240 . S
O101 C106 1.279 . S
O102 Cd99 2.297 . S
O102 C104 1.247 . S
O103 Cd99 2.439 . S
O103 C104 1.208 . S
C104 O102 1.247 . S
C104 O103 1.208 . S
C105 O110 1.247 . S
C105 O111 1.208 . S
C106 O98 1.315 . S
C106 O101 1.279 . S
C107 O108 1.315 . S
C107 O109 1.279 . S
O108 Cd100 2.223 . S
O108 C107 1.315 . S
O109 Cd99 2.240 . S
O109 C107 1.279 . S
O110 Cd100 2.297 . S
O110 C105 1.247 . S
O111 Cd100 2.439 . S
O111 C105 1.208 . S
O112 Cd113 2.223 1_455 S
O112 C120 1.315 1_455 S
Cd113 O112 2.223 1_655 S
Cd113 O116 2.297 1_655 S
Cd113 O117 2.439 . S
Cd113 O123 2.240 . S
Cd114 O115 2.240 . S
Cd114 O122 2.223 . S
Cd114 O124 2.297 . S
Cd114 O125 2.439 . S
O115 Cd114 2.240 . S
O115 C120 1.279 . S
O116 Cd113 2.297 1_455 S
O116 C118 1.247 1_455 S
O117 Cd113 2.439 . S
O117 C118 1.208 . S
C118 O116 1.247 1_655 S
C118 O117 1.208 . S
C119 O124 1.247 . S
C119 O125 1.208 . S
C120 O112 1.315 1_655 S
C120 O115 1.279 . S
C121 O122 1.315 . S
C121 O123 1.279 . S
O122 Cd114 2.223 . S
O122 C121 1.315 . S
O123 Cd113 2.240 . S
O123 C121 1.279 . S
O124 Cd114 2.297 . S
O124 C119 1.247 . S
O125 Cd114 2.439 . S
O125 C119 1.208 . S
O126 Cd127 2.223 1_545 S
O126 C134 1.315 1_545 S
Cd127 O126 2.223 1_565 S
Cd127 O130 2.297 1_565 S
Cd127 O131 2.439 . S
Cd127 O137 2.240 . S
Cd128 O129 2.240 . S
Cd128 O136 2.223 . S
Cd128 O138 2.297 . S
Cd128 O139 2.439 . S
O129 Cd128 2.240 . S
O129 C134 1.279 . S
O130 Cd127 2.297 1_545 S
O130 C132 1.247 1_545 S
O131 Cd127 2.439 . S
O131 C132 1.208 . S
C132 O130 1.247 1_565 S
C132 O131 1.208 . S
C133 O138 1.247 . S
C133 O139 1.208 . S
C134 O126 1.315 1_565 S
C134 O129 1.279 . S
C135 O136 1.315 . S
C135 O137 1.279 . S
O136 Cd128 2.223 . S
O136 C135 1.315 . S
O137 Cd127 2.240 . S
O137 C135 1.279 . S
O138 Cd128 2.297 . S
O138 C133 1.247 . S
O139 Cd128 2.439 . S
O139 C133 1.208 . S
O140 Cd141 2.223 . S
O140 C148 1.315 . S
Cd141 O140 2.223 . S
Cd141 O144 2.297 . S
Cd141 O145 2.439 . S
Cd141 O151 2.240 . S
Cd142 O143 2.240 . S
Cd142 O150 2.223 . S
Cd142 O152 2.297 . S
Cd142 O153 2.439 . S
O143 Cd142 2.240 . S
O143 C148 1.279 . S
O144 Cd141 2.297 . S
O144 C146 1.247 . S
O145 Cd141 2.439 . S
O145 C146 1.208 . S
C146 O144 1.247 . S
C146 O145 1.208 . S
C147 O152 1.247 . S
C147 O153 1.208 . S
C148 O140 1.315 . S
C148 O143 1.279 . S
C149 O150 1.315 . S
C149 O151 1.279 . S
O150 Cd142 2.223 . S
O150 C149 1.315 . S
O151 Cd141 2.240 . S
O151 C149 1.279 . S
O152 Cd142 2.297 . S
O152 C147 1.247 . S
O153 Cd142 2.439 . S
O153 C147 1.208 . S
O154 Cd155 2.223 . S
O154 C162 1.315 . S
Cd155 O154 2.223 . S
Cd155 O158 2.297 . S
Cd155 O159 2.439 . S
Cd155 O165 2.240 . S
Cd156 O157 2.240 . S
Cd156 O164 2.223 . S
Cd156 O166 2.297 . S
Cd156 O167 2.439 . S
O157 Cd156 2.240 . S
O157 C162 1.279 . S
O158 Cd155 2.297 . S
O158 C160 1.247 . S
O159 Cd155 2.439 . S
O159 C160 1.208 . S
C160 O158 1.247 . S
C160 O159 1.208 . S
C161 O166 1.247 . S
C161 O167 1.208 . S
C162 O154 1.315 . S
C162 O157 1.279 . S
C163 O164 1.315 . S
C163 O165 1.279 . S
O164 Cd156 2.223 . S
O164 C163 1.315 . S
O165 Cd155 2.240 . S
O165 C163 1.279 . S
O166 Cd156 2.297 . S
O166 C161 1.247 . S
O167 Cd156 2.439 . S
O167 C161 1.208 . S
O168 Cd169 2.223 1_455 S
O168 C176 1.315 1_455 S
Cd169 O168 2.223 1_655 S
Cd169 O172 2.297 1_655 S
Cd169 O173 2.439 . S
Cd169 O179 2.240 . S
Cd170 O171 2.240 . S
Cd170 O178 2.223 . S
Cd170 O180 2.297 . S
Cd170 O181 2.439 . S
O171 Cd170 2.240 . S
O171 C176 1.279 . S
O172 Cd169 2.297 1_455 S
O172 C174 1.247 1_455 S
O173 Cd169 2.439 . S
O173 C174 1.208 . S
C174 O172 1.247 1_655 S
C174 O173 1.208 . S
C175 O180 1.247 . S
C175 O181 1.208 . S
C176 O168 1.315 1_655 S
C176 O171 1.279 . S
C177 O178 1.315 . S
C177 O179 1.279 . S
O178 Cd170 2.223 . S
O178 C177 1.315 . S
O179 Cd169 2.240 . S
O179 C177 1.279 . S
O180 Cd170 2.297 . S
O180 C175 1.247 . S
O181 Cd170 2.439 . S
O181 C175 1.208 . S
O182 Cd183 2.223 1_545 S
O182 C190 1.315 1_545 S
Cd183 O182 2.223 1_565 S
Cd183 O186 2.297 1_565 S
Cd183 O187 2.439 . S
Cd183 O193 2.240 . S
Cd184 O185 2.240 . S
Cd184 O192 2.223 . S
Cd184 O194 2.297 . S
Cd184 O195 2.439 . S
O185 Cd184 2.240 . S
O185 C190 1.279 . S
O186 Cd183 2.297 1_545 S
O186 C188 1.247 1_545 S
O187 Cd183 2.439 . S
O187 C188 1.208 . S
C188 O186 1.247 1_565 S
C188 O187 1.208 . S
C189 O194 1.247 . S
C189 O195 1.208 . S
C190 O182 1.315 1_565 S
C190 O185 1.279 . S
C191 O192 1.315 . S
C191 O193 1.279 . S
O192 Cd184 2.223 . S
O192 C191 1.315 . S
O193 Cd183 2.240 . S
O193 C191 1.279 . S
O194 Cd184 2.297 . S
O194 C189 1.247 . S
O195 Cd184 2.439 . S
O195 C189 1.208 . S
O196 Cd197 2.223 . S
O196 C204 1.315 . S
Cd197 O196 2.223 . S
Cd197 O200 2.297 . S
Cd197 O201 2.439 . S
Cd197 O207 2.240 . S
Cd198 O199 2.240 . S
Cd198 O206 2.223 . S
Cd198 O208 2.297 . S
Cd198 O209 2.439 . S
O199 Cd198 2.240 . S
O199 C204 1.279 . S
O200 Cd197 2.297 . S
O200 C202 1.247 . S
O201 Cd197 2.439 . S
O201 C202 1.208 . S
C202 O200 1.247 . S
C202 O201 1.208 . S
C203 O208 1.247 . S
C203 O209 1.208 . S
C204 O196 1.315 . S
C204 O199 1.279 . S
C205 O206 1.315 . S
C205 O207 1.279 . S
O206 Cd198 2.223 . S
O206 C205 1.315 . S
O207 Cd197 2.240 . S
O207 C205 1.279 . S
O208 Cd198 2.297 . S
O208 C203 1.247 . S
O209 Cd198 2.439 . S
O209 C203 1.208 . S
O210 Cd211 2.223 . S
O210 C218 1.315 . S
Cd211 O210 2.223 . S
Cd211 O214 2.297 . S
Cd211 O215 2.439 . S
Cd211 O221 2.240 . S
Cd212 O213 2.240 . S
Cd212 O220 2.223 . S
Cd212 O222 2.297 . S
Cd212 O223 2.439 . S
O213 Cd212 2.240 . S
O213 C218 1.279 . S
O214 Cd211 2.297 . S
O214 C216 1.247 . S
O215 Cd211 2.439 . S
O215 C216 1.208 . S
C216 O214 1.247 . S
C216 O215 1.208 . S
C217 O222 1.247 . S
C217 O223 1.208 . S
C218 O210 1.315 . S
C218 O213 1.279 . S
C219 O220 1.315 . S
C219 O221 1.279 . S
O220 Cd212 2.223 . S
O220 C219 1.315 . S
O221 Cd211 2.240 . S
O221 C219 1.279 . S
O222 Cd212 2.297 . S
O222 C217 1.247 . S
O223 Cd212 2.439 . S
O223 C217 1.208 . S
H224 C232 0.929 . S
H225 C234 0.930 . S
H226 C236 0.930 . S
H227 C239 0.929 . S
H228 C242 0.930 . S
H229 C244 0.960 . S
H230 C244 0.960 . S
H231 C244 0.960 . S
C232 H224 0.929 . S
C232 C233 1.377 . S
C232 C234 1.384 . S
C233 C232 1.377 . S
C233 C239 1.390 . S
C234 H225 0.930 . S
C234 C232 1.384 . S
C234 C235 1.372 . S
C235 C234 1.372 . S
C235 C236 1.400 . S
C235 C240 1.490 . S
C236 H226 0.930 . S
C236 C235 1.400 . S
C236 C239 1.386 . S
H237 C253 0.930 . S
H238 C254 0.931 . S
C239 H227 0.929 . S
C239 C233 1.390 . S
C239 C236 1.386 . S
C240 C235 1.490 . S
C240 C242 1.395 . S
C240 C243 1.403 . S
H241 C247 0.930 . S
C242 H228 0.930 . S
C242 C240 1.395 . S
C242 C245 1.403 . S
C243 C240 1.403 . S
C243 C244 1.524 . S
C243 C247 1.400 . S
C244 H229 0.960 . S
C244 H230 0.960 . S
C244 H231 0.960 . S
C244 C243 1.524 . S
C245 C242 1.403 . S
C245 C246 1.392 . S
C245 C249 1.495 . S
C246 C245 1.392 . S
C246 C247 1.385 . S
C246 C248 1.478 . S
C247 H241 0.930 . S
C247 C243 1.400 . S
C247 C246 1.385 . S
C248 C246 1.478 . S
C248 C250 1.381 . S
C248 C254 1.383 . S
C249 C245 1.495 . S
C249 H255 0.959 . S
C249 H256 0.961 . S
C249 H257 0.960 . S
C250 C248 1.381 . S
C250 C251 1.394 . S
C250 H258 0.930 . S
C251 C250 1.394 . S
C251 C252 1.383 . S
C251 H259 0.929 . S
C252 C251 1.383 . S
C252 C253 1.377 . S
C253 H237 0.930 . S
C253 C252 1.377 . S
C253 C254 1.379 . S
C254 H238 0.931 . S
C254 C248 1.383 . S
C254 C253 1.379 . S
H255 C249 0.959 . S
H256 C249 0.961 . S
H257 C249 0.960 . S
H258 C250 0.930 . S
H259 C251 0.929 . S
H260 C268 0.929 . S
H261 C270 0.930 . S
H262 C272 0.930 . S
H263 C275 0.929 . S
H264 C278 0.930 . S
H265 C280 0.960 . S
H266 C280 0.960 . S
H267 C280 0.960 . S
C268 H260 0.929 . S
C268 C269 1.377 . S
C268 C270 1.384 . S
C269 C268 1.377 . S
C269 C275 1.390 . S
C270 H261 0.930 . S
C270 C268 1.384 . S
C270 C271 1.372 . S
C271 C270 1.372 . S
C271 C272 1.400 . S
C271 C276 1.490 . S
C272 H262 0.930 . S
C272 C271 1.400 . S
C272 C275 1.386 . S
H273 C289 0.930 . S
H274 C290 0.931 . S
C275 H263 0.929 . S
C275 C269 1.390 . S
C275 C272 1.386 . S
C276 C271 1.490 . S
C276 C278 1.395 . S
C276 C279 1.403 . S
H277 C283 0.930 . S
C278 H264 0.930 . S
C278 C276 1.395 . S
C278 C281 1.403 . S
C279 C276 1.403 . S
C279 C280 1.524 . S
C279 C283 1.400 . S
C280 H265 0.960 . S
C280 H266 0.960 . S
C280 H267 0.960 . S
C280 C279 1.524 . S
C281 C278 1.403 . S
C281 C282 1.392 . S
C281 C285 1.495 . S
C282 C281 1.392 . S
C282 C283 1.385 . S
C282 C284 1.478 . S
C283 H277 0.930 . S
C283 C279 1.400 . S
C283 C282 1.385 . S
C284 C282 1.478 . S
C284 C286 1.381 . S
C284 C290 1.383 . S
C285 C281 1.495 . S
C285 H291 0.959 . S
C285 H292 0.961 . S
C285 H293 0.960 . S
C286 C284 1.381 . S
C286 C287 1.394 . S
C286 H294 0.930 . S
C287 C286 1.394 . S
C287 C288 1.383 . S
C287 H295 0.929 . S
C288 C287 1.383 . S
C288 C289 1.377 . S
C289 H273 0.930 . S
C289 C288 1.377 . S
C289 C290 1.379 . S
C290 H274 0.931 . S
C290 C284 1.383 . S
C290 C289 1.379 . S
H291 C285 0.959 . S
H292 C285 0.961 . S
H293 C285 0.960 . S
H294 C286 0.930 . S
H295 C287 0.929 . S
H296 C304 0.929 . S
H297 C306 0.930 . S
H298 C308 0.930 . S
H299 C311 0.929 . S
H300 C314 0.930 . S
H301 C316 0.960 . S
H302 C316 0.960 . S
H303 C316 0.960 . S
C304 H296 0.929 . S
C304 C305 1.377 . S
C304 C306 1.384 . S
C305 C304 1.377 . S
C305 C311 1.390 . S
C306 H297 0.930 . S
C306 C304 1.384 . S
C306 C307 1.372 . S
C307 C306 1.372 . S
C307 C308 1.400 . S
C307 C312 1.490 . S
C308 H298 0.930 . S
C308 C307 1.400 . S
C308 C311 1.386 . S
H309 C325 0.930 . S
H310 C326 0.931 . S
C311 H299 0.929 . S
C311 C305 1.390 . S
C311 C308 1.386 . S
C312 C307 1.490 . S
C312 C314 1.395 . S
C312 C315 1.403 . S
H313 C319 0.930 . S
C314 H300 0.930 . S
C314 C312 1.395 . S
C314 C317 1.403 . S
C315 C312 1.403 . S
C315 C316 1.524 . S
C315 C319 1.400 . S
C316 H301 0.960 . S
C316 H302 0.960 . S
C316 H303 0.960 . S
C316 C315 1.524 . S
C317 C314 1.403 . S
C317 C318 1.392 . S
C317 C321 1.495 . S
C318 C317 1.392 . S
C318 C319 1.385 . S
C318 C320 1.478 . S
C319 H313 0.930 . S
C319 C315 1.400 . S
C319 C318 1.385 . S
C320 C318 1.478 . S
C320 C322 1.381 . S
C320 C326 1.383 . S
C321 C317 1.495 . S
C321 H327 0.959 . S
C321 H328 0.961 . S
C321 H329 0.960 . S
C322 C320 1.381 . S
C322 C323 1.394 . S
C322 H330 0.930 . S
C323 C322 1.394 . S
C323 C324 1.383 . S
C323 H331 0.929 . S
C324 C323 1.383 . S
C324 C325 1.377 . S
C325 H309 0.930 . S
C325 C324 1.377 . S
C325 C326 1.379 . S
C326 H310 0.931 . S
C326 C320 1.383 . S
C326 C325 1.379 . S
H327 C321 0.959 . S
H328 C321 0.961 . S
H329 C321 0.960 . S
H330 C322 0.930 . S
H331 C323 0.929 . S
H332 C340 0.929 . S
H333 C342 0.930 . S
H334 C344 0.930 . S
H335 C347 0.929 . S
H336 C350 0.930 . S
H337 C352 0.960 . S
H338 C352 0.960 . S
H339 C352 0.960 . S
C340 H332 0.929 . S
C340 C341 1.377 . S
C340 C342 1.384 . S
C341 C340 1.377 . S
C341 C347 1.390 . S
C342 H333 0.930 . S
C342 C340 1.384 . S
C342 C343 1.372 . S
C343 C342 1.372 . S
C343 C344 1.400 . S
C343 C348 1.490 . S
C344 H334 0.930 . S
C344 C343 1.400 . S
C344 C347 1.386 . S
H345 C361 0.930 . S
H346 C362 0.931 . S
C347 H335 0.929 . S
C347 C341 1.390 . S
C347 C344 1.386 . S
C348 C343 1.490 . S
C348 C350 1.395 . S
C348 C351 1.403 . S
H349 C355 0.930 . S
C350 H336 0.930 . S
C350 C348 1.395 . S
C350 C353 1.403 . S
C351 C348 1.403 . S
C351 C352 1.524 . S
C351 C355 1.400 . S
C352 H337 0.960 . S
C352 H338 0.960 . S
C352 H339 0.960 . S
C352 C351 1.524 . S
C353 C350 1.403 . S
C353 C354 1.392 . S
C353 C357 1.495 . S
C354 C353 1.392 . S
C354 C355 1.385 . S
C354 C356 1.478 . S
C355 H349 0.930 . S
C355 C351 1.400 . S
C355 C354 1.385 . S
C356 C354 1.478 . S
C356 C358 1.381 . S
C356 C362 1.383 . S
C357 C353 1.495 . S
C357 H363 0.959 . S
C357 H364 0.961 . S
C357 H365 0.960 . S
C358 C356 1.381 . S
C358 C359 1.394 . S
C358 H366 0.930 . S
C359 C358 1.394 . S
C359 C360 1.383 . S
C359 H367 0.929 . S
C360 C359 1.383 . S
C360 C361 1.377 . S
C361 H345 0.930 . S
C361 C360 1.377 . S
C361 C362 1.379 . S
C362 H346 0.931 . S
C362 C356 1.383 . S
C362 C361 1.379 . S
H363 C357 0.959 . S
H364 C357 0.961 . S
H365 C357 0.960 . S
H366 C358 0.930 . S
H367 C359 0.929 . S
H368 C376 0.929 . S
H369 C378 0.930 . S
H370 C380 0.930 . S
H371 C383 0.929 . S
H372 C386 0.930 . S
H373 C388 0.960 . S
H374 C388 0.960 . S
H375 C388 0.960 . S
C376 H368 0.929 . S
C376 C377 1.377 . S
C376 C378 1.384 . S
C377 C376 1.377 . S
C377 C383 1.390 . S
C378 H369 0.930 . S
C378 C376 1.384 . S
C378 C379 1.372 . S
C379 C378 1.372 . S
C379 C380 1.400 . S
C379 C384 1.490 . S
C380 H370 0.930 . S
C380 C379 1.400 . S
C380 C383 1.386 . S
H381 C397 0.930 . S
H382 C398 0.931 . S
C383 H371 0.929 . S
C383 C377 1.390 . S
C383 C380 1.386 . S
C384 C379 1.490 . S
C384 C386 1.395 . S
C384 C387 1.403 . S
H385 C391 0.930 . S
C386 H372 0.930 . S
C386 C384 1.395 . S
C386 C389 1.403 . S
C387 C384 1.403 . S
C387 C388 1.524 . S
C387 C391 1.400 . S
C388 H373 0.960 . S
C388 H374 0.960 . S
C388 H375 0.960 . S
C388 C387 1.524 . S
C389 C386 1.403 . S
C389 C390 1.392 . S
C389 C393 1.495 . S
C390 C389 1.392 . S
C390 C391 1.385 . S
C390 C392 1.478 . S
C391 H385 0.930 . S
C391 C387 1.400 . S
C391 C390 1.385 . S
C392 C390 1.478 . S
C392 C394 1.381 . S
C392 C398 1.383 . S
C393 C389 1.495 . S
C393 H399 0.959 . S
C393 H400 0.961 . S
C393 H401 0.960 . S
C394 C392 1.381 . S
C394 C395 1.394 . S
C394 H402 0.930 . S
C395 C394 1.394 . S
C395 C396 1.383 . S
C395 H403 0.929 . S
C396 C395 1.383 . S
C396 C397 1.377 . S
C397 H381 0.930 . S
C397 C396 1.377 . S
C397 C398 1.379 . S
C398 H382 0.931 . S
C398 C392 1.383 . S
C398 C397 1.379 . S
H399 C393 0.959 . S
H400 C393 0.961 . S
H401 C393 0.960 . S
H402 C394 0.930 . S
H403 C395 0.929 . S
H404 C412 0.929 . S
H405 C414 0.930 . S
H406 C416 0.930 . S
H407 C419 0.929 . S
H408 C422 0.930 . S
H409 C424 0.960 . S
H410 C424 0.960 . S
H411 C424 0.960 . S
C412 H404 0.929 . S
C412 C413 1.377 . S
C412 C414 1.384 . S
C413 C412 1.377 . S
C413 C419 1.390 . S
C414 H405 0.930 . S
C414 C412 1.384 . S
C414 C415 1.372 . S
C415 C414 1.372 . S
C415 C416 1.400 . S
C415 C420 1.490 . S
C416 H406 0.930 . S
C416 C415 1.400 . S
C416 C419 1.386 . S
H417 C433 0.930 . S
H418 C434 0.931 . S
C419 H407 0.929 . S
C419 C413 1.390 . S
C419 C416 1.386 . S
C420 C415 1.490 . S
C420 C422 1.395 . S
C420 C423 1.403 . S
H421 C427 0.930 . S
C422 H408 0.930 . S
C422 C420 1.395 . S
C422 C425 1.403 . S
C423 C420 1.403 . S
C423 C424 1.524 . S
C423 C427 1.400 . S
C424 H409 0.960 . S
C424 H410 0.960 . S
C424 H411 0.960 . S
C424 C423 1.524 . S
C425 C422 1.403 . S
C425 C426 1.392 . S
C425 C429 1.495 . S
C426 C425 1.392 . S
C426 C427 1.385 . S
C426 C428 1.478 . S
C427 H421 0.930 . S
C427 C423 1.400 . S
C427 C426 1.385 . S
C428 C426 1.478 . S
C428 C430 1.381 . S
C428 C434 1.383 . S
C429 C425 1.495 . S
C429 H435 0.959 . S
C429 H436 0.961 . S
C429 H437 0.960 . S
C430 C428 1.381 . S
C430 C431 1.394 . S
C430 H438 0.930 . S
C431 C430 1.394 . S
C431 C432 1.383 . S
C431 H439 0.929 . S
C432 C431 1.383 . S
C432 C433 1.377 . S
C433 H417 0.930 . S
C433 C432 1.377 . S
C433 C434 1.379 . S
C434 H418 0.931 . S
C434 C428 1.383 . S
C434 C433 1.379 . S
H435 C429 0.959 . S
H436 C429 0.961 . S
H437 C429 0.960 . S
H438 C430 0.930 . S
H439 C431 0.929 . S
H440 C448 0.929 . S
H441 C450 0.930 . S
H442 C452 0.930 . S
H443 C455 0.929 . S
H444 C458 0.930 . S
H445 C460 0.960 . S
H446 C460 0.960 . S
H447 C460 0.960 . S
C448 H440 0.929 . S
C448 C449 1.377 . S
C448 C450 1.384 . S
C449 C448 1.377 . S
C449 C455 1.390 . S
C450 H441 0.930 . S
C450 C448 1.384 . S
C450 C451 1.372 . S
C451 C450 1.372 . S
C451 C452 1.400 . S
C451 C456 1.490 . S
C452 H442 0.930 . S
C452 C451 1.400 . S
C452 C455 1.386 . S
H453 C469 0.930 . S
H454 C470 0.931 . S
C455 H443 0.929 . S
C455 C449 1.390 . S
C455 C452 1.386 . S
C456 C451 1.490 . S
C456 C458 1.395 . S
C456 C459 1.403 . S
H457 C463 0.930 . S
C458 H444 0.930 . S
C458 C456 1.395 . S
C458 C461 1.403 . S
C459 C456 1.403 . S
C459 C460 1.524 . S
C459 C463 1.400 . S
C460 H445 0.960 . S
C460 H446 0.960 . S
C460 H447 0.960 . S
C460 C459 1.524 . S
C461 C458 1.403 . S
C461 C462 1.392 . S
C461 C465 1.495 . S
C462 C461 1.392 . S
C462 C463 1.385 . S
C462 C464 1.478 . S
C463 H457 0.930 . S
C463 C459 1.400 . S
C463 C462 1.385 . S
C464 C462 1.478 . S
C464 C466 1.381 . S
C464 C470 1.383 . S
C465 C461 1.495 . S
C465 H471 0.959 . S
C465 H472 0.961 . S
C465 H473 0.960 . S
C466 C464 1.381 . S
C466 C467 1.394 . S
C466 H474 0.930 . S
C467 C466 1.394 . S
C467 C468 1.383 . S
C467 H475 0.929 . S
C468 C467 1.383 . S
C468 C469 1.377 . S
C469 H453 0.930 . S
C469 C468 1.377 . S
C469 C470 1.379 . S
C470 H454 0.931 . S
C470 C464 1.383 . S
C470 C469 1.379 . S
H471 C465 0.959 . S
H472 C465 0.961 . S
H473 C465 0.960 . S
H474 C466 0.930 . S
H475 C467 0.929 . S
H476 C484 0.929 . S
H477 C486 0.930 . S
H478 C488 0.930 . S
H479 C491 0.929 . S
H480 C494 0.930 . S
H481 C496 0.960 . S
H482 C496 0.960 . S
H483 C496 0.960 . S
C484 H476 0.929 . S
C484 C485 1.377 . S
C484 C486 1.384 . S
C485 C484 1.377 . S
C485 C491 1.390 . S
C486 H477 0.930 . S
C486 C484 1.384 . S
C486 C487 1.372 . S
C487 C486 1.372 . S
C487 C488 1.400 . S
C487 C492 1.490 . S
C488 H478 0.930 . S
C488 C487 1.400 . S
C488 C491 1.386 . S
H489 C505 0.930 . S
H490 C506 0.931 . S
C491 H479 0.929 . S
C491 C485 1.390 . S
C491 C488 1.386 . S
C492 C487 1.490 . S
C492 C494 1.395 . S
C492 C495 1.403 . S
H493 C499 0.930 . S
C494 H480 0.930 . S
C494 C492 1.395 . S
C494 C497 1.403 . S
C495 C492 1.403 . S
C495 C496 1.524 . S
C495 C499 1.400 . S
C496 H481 0.960 . S
C496 H482 0.960 . S
C496 H483 0.960 . S
C496 C495 1.524 . S
C497 C494 1.403 . S
C497 C498 1.392 . S
C497 C501 1.495 . S
C498 C497 1.392 . S
C498 C499 1.385 . S
C498 C500 1.478 . S
C499 H493 0.930 . S
C499 C495 1.400 . S
C499 C498 1.385 . S
C500 C498 1.478 . S
C500 C502 1.381 . S
C500 C506 1.383 . S
C501 C497 1.495 . S
C501 H507 0.959 . S
C501 H508 0.961 . S
C501 H509 0.960 . S
C502 C500 1.381 . S
C502 C503 1.394 . S
C502 H510 0.930 . S
C503 C502 1.394 . S
C503 C504 1.383 . S
C503 H511 0.929 . S
C504 C503 1.383 . S
C504 C505 1.377 . S
C505 H489 0.930 . S
C505 C504 1.377 . S
C505 C506 1.379 . S
C506 H490 0.931 . S
C506 C500 1.383 . S
C506 C505 1.379 . S
H507 C501 0.959 . S
H508 C501 0.961 . S
H509 C501 0.960 . S
H510 C502 0.930 . S
H511 C503 0.929 . S
H512 C520 0.929 . S
H513 C522 0.930 . S
H514 C524 0.930 . S
H515 C527 0.929 . S
H516 C530 0.930 . S
H517 C532 0.960 . S
H518 C532 0.960 . S
H519 C532 0.960 . S
C520 H512 0.929 . S
C520 C521 1.377 . S
C520 C522 1.384 . S
C521 C520 1.377 . S
C521 C527 1.390 . S
C522 H513 0.930 . S
C522 C520 1.384 . S
C522 C523 1.372 . S
C523 C522 1.372 . S
C523 C524 1.400 . S
C523 C528 1.490 . S
C524 H514 0.930 . S
C524 C523 1.400 . S
C524 C527 1.386 . S
H525 C541 0.930 . S
H526 C542 0.931 1_455 S
C527 H515 0.929 . S
C527 C521 1.390 . S
C527 C524 1.386 . S
C528 C523 1.490 . S
C528 C530 1.395 . S
C528 C531 1.403 . S
H529 C535 0.930 . S
C530 H516 0.930 . S
C530 C528 1.395 . S
C530 C533 1.403 . S
C531 C528 1.403 . S
C531 C532 1.524 . S
C531 C535 1.400 . S
C532 H517 0.960 . S
C532 H518 0.960 . S
C532 H519 0.960 . S
C532 C531 1.524 . S
C533 C530 1.403 . S
C533 C534 1.392 . S
C533 C537 1.495 . S
C534 C533 1.392 . S
C534 C535 1.385 . S
C534 C536 1.478 . S
C535 H529 0.930 . S
C535 C531 1.400 . S
C535 C534 1.385 . S
C536 C534 1.478 . S
C536 C538 1.381 . S
C536 C542 1.383 . S
C537 C533 1.495 . S
C537 H543 0.959 . S
C537 H544 0.961 . S
C537 H545 0.960 . S
C538 C536 1.381 . S
C538 C539 1.394 . S
C538 H546 0.930 . S
C539 C538 1.394 . S
C539 C540 1.384 . S
C539 H547 0.929 . S
C540 C539 1.384 . S
C540 C541 1.376 1_655 S
C541 H525 0.930 . S
C541 C540 1.376 1_455 S
C541 C542 1.379 1_455 S
C542 H526 0.931 1_655 S
C542 C536 1.383 . S
C542 C541 1.379 1_655 S
H543 C537 0.959 . S
H544 C537 0.961 . S
H545 C537 0.960 . S
H546 C538 0.930 . S
H547 C539 0.929 . S
H548 C556 0.929 1_545 S
H549 C558 0.930 . S
H550 C560 0.930 . S
H551 C563 0.929 . S
H552 C566 0.930 . S
H553 C568 0.960 . S
H554 C568 0.960 1_545 S
H555 C568 0.960 . S
C556 H548 0.929 1_565 S
C556 C557 1.379 . S
C556 C558 1.384 . S
C557 C556 1.379 . S
C557 C563 1.395 . S
C558 H549 0.930 . S
C558 C556 1.384 . S
C558 C559 1.372 . S
C559 C558 1.372 . S
C559 C560 1.400 . S
C559 C564 1.490 . S
C560 H550 0.930 . S
C560 C559 1.400 . S
C560 C563 1.386 . S
H561 C577 0.930 . S
H562 C578 0.931 1_455 S
C563 H551 0.929 . S
C563 C557 1.395 . S
C563 C560 1.386 . S
C564 C559 1.490 . S
C564 C566 1.395 . S
C564 C567 1.403 . S
H565 C571 0.930 . S
C566 H552 0.930 . S
C566 C564 1.395 . S
C566 C569 1.403 . S
C567 C564 1.403 . S
C567 C568 1.524 . S
C567 C571 1.400 . S
C568 H553 0.960 . S
C568 H554 0.960 1_565 S
C568 H555 0.960 . S
C568 C567 1.524 . S
C569 C566 1.403 . S
C569 C570 1.392 . S
C569 C573 1.495 . S
C570 C569 1.392 . S
C570 C571 1.385 . S
C570 C572 1.478 . S
C571 H565 0.930 . S
C571 C567 1.400 . S
C571 C570 1.385 . S
C572 C570 1.478 . S
C572 C574 1.381 . S
C572 C578 1.383 . S
C573 C569 1.495 . S
C573 H579 0.959 . S
C573 H580 0.961 . S
C573 H581 0.960 . S
C574 C572 1.381 . S
C574 C575 1.394 . S
C574 H582 0.930 . S
C575 C574 1.394 . S
C575 C576 1.383 . S
C575 H583 0.929 . S
C576 C575 1.383 . S
C576 C577 1.377 1_655 S
C577 H561 0.930 . S
C577 C576 1.377 1_455 S
C577 C578 1.379 1_455 S
C578 H562 0.931 1_655 S
C578 C572 1.383 . S
C578 C577 1.379 1_655 S
H579 C573 0.959 . S
H580 C573 0.961 . S
H581 C573 0.960 . S
H582 C574 0.930 . S
H583 C575 0.929 . S
H584 C592 0.929 . S
H585 C594 0.930 . S
H586 C596 0.922 1_545 S
H587 C599 0.929 . S
H588 C602 0.930 . S
H589 C604 0.960 . S
H590 C604 0.960 . S
H591 C604 0.960 1_545 S
C592 H584 0.929 . S
C592 C593 1.414 . S
C592 C594 1.384 . S
C593 C592 1.414 . S
C593 C599 1.371 1_565 S
C594 H585 0.930 . S
C594 C592 1.384 . S
C594 C595 1.372 . S
C595 C594 1.372 . S
C595 C596 1.416 . S
C595 C600 1.490 . S
C596 H586 0.922 1_565 S
C596 C595 1.416 . S
C596 C599 1.378 1_565 S
H597 C613 0.930 . S
H598 C614 0.931 . S
C599 H587 0.929 . S
C599 C593 1.371 1_545 S
C599 C596 1.378 1_545 S
C600 C595 1.490 . S
C600 C602 1.395 . S
C600 C603 1.403 . S
H601 C607 0.930 . S
C602 H588 0.930 . S
C602 C600 1.395 . S
C602 C605 1.403 . S
C603 C600 1.403 . S
C603 C604 1.524 . S
C603 C607 1.400 . S
C604 H589 0.960 . S
C604 H590 0.960 . S
C604 H591 0.960 1_565 S
C604 C603 1.524 . S
C605 C602 1.403 . S
C605 C606 1.392 . S
C605 C609 1.495 . S
C606 C605 1.392 . S
C606 C607 1.385 . S
C606 C608 1.478 . S
C607 H601 0.930 . S
C607 C603 1.400 . S
C607 C606 1.385 . S
C608 C606 1.478 . S
C608 C610 1.381 . S
C608 C614 1.383 . S
C609 C605 1.495 . S
C609 H615 0.959 . S
C609 H616 0.961 . S
C609 H617 0.960 . S
C610 C608 1.381 . S
C610 C611 1.394 . S
C610 H618 0.930 . S
C611 C610 1.394 . S
C611 C612 1.383 . S
C611 H619 0.929 . S
C612 C611 1.383 . S
C612 C613 1.377 . S
C613 H597 0.930 . S
C613 C612 1.377 . S
C613 C614 1.379 . S
C614 H598 0.931 . S
C614 C608 1.383 . S
C614 C613 1.379 . S
H615 C609 0.959 . S
H616 C609 0.961 . S
H617 C609 0.960 . S
H618 C610 0.930 . S
H619 C611 0.929 . S
H620 C628 0.929 . S
H621 C630 0.930 . S
H622 C632 0.930 . S
H623 C635 0.929 . S
H624 C638 0.930 . S
H625 C640 0.960 . S
H626 C640 0.960 . S
H627 C640 0.960 . S
C628 H620 0.929 . S
C628 C629 1.377 . S
C628 C630 1.384 . S
C629 C628 1.377 . S
C629 C635 1.390 . S
C630 H621 0.930 . S
C630 C628 1.384 . S
C630 C631 1.372 . S
C631 C630 1.372 . S
C631 C632 1.400 . S
C631 C636 1.490 . S
C632 H622 0.930 . S
C632 C631 1.400 . S
C632 C635 1.386 . S
H633 C649 0.930 . S
H634 C650 0.931 . S
C635 H623 0.929 . S
C635 C629 1.390 . S
C635 C632 1.386 . S
C636 C631 1.490 . S
C636 C638 1.395 . S
C636 C639 1.403 . S
H637 C643 0.930 . S
C638 H624 0.930 . S
C638 C636 1.395 . S
C638 C641 1.403 . S
C639 C636 1.403 . S
C639 C640 1.524 . S
C639 C643 1.400 . S
C640 H625 0.960 . S
C640 H626 0.960 . S
C640 H627 0.960 . S
C640 C639 1.524 . S
C641 C638 1.403 . S
C641 C642 1.392 . S
C641 C645 1.495 . S
C642 C641 1.392 . S
C642 C643 1.385 . S
C642 C644 1.478 . S
C643 H637 0.930 . S
C643 C639 1.400 . S
C643 C642 1.385 . S
C644 C642 1.478 . S
C644 C646 1.381 . S
C644 C650 1.383 . S
C645 C641 1.495 . S
C645 H651 0.959 . S
C645 H652 0.961 . S
C645 H653 0.960 . S
C646 C644 1.381 . S
C646 C647 1.394 . S
C646 H654 0.930 . S
C647 C646 1.394 . S
C647 C648 1.383 . S
C647 H655 0.929 . S
C648 C647 1.383 . S
C648 C649 1.377 . S
C649 H633 0.930 . S
C649 C648 1.377 . S
C649 C650 1.379 . S
C650 H634 0.931 . S
C650 C644 1.383 . S
C650 C649 1.379 . S
H651 C645 0.959 . S
H652 C645 0.961 . S
H653 C645 0.960 . S
H654 C646 0.930 . S
H655 C647 0.929 . S
H656 C664 0.929 . S
H657 C666 0.930 . S
H658 C668 0.930 . S
H659 C671 0.929 . S
H660 C674 0.930 . S
H661 C676 0.960 . S
H662 C676 0.960 . S
H663 C676 0.960 . S
C664 H656 0.929 . S
C664 C665 1.377 . S
C664 C666 1.384 . S
C665 C664 1.377 . S
C665 C671 1.390 . S
C666 H657 0.930 . S
C666 C664 1.384 . S
C666 C667 1.372 . S
C667 C666 1.372 . S
C667 C668 1.400 . S
C667 C672 1.490 . S
C668 H658 0.930 . S
C668 C667 1.400 . S
C668 C671 1.386 . S
H669 C685 0.930 . S
H670 C686 0.931 . S
C671 H659 0.929 . S
C671 C665 1.390 . S
C671 C668 1.386 . S
C672 C667 1.490 . S
C672 C674 1.395 . S
C672 C675 1.403 . S
H673 C679 0.930 . S
C674 H660 0.930 . S
C674 C672 1.395 . S
C674 C677 1.403 . S
C675 C672 1.403 . S
C675 C676 1.524 . S
C675 C679 1.400 . S
C676 H661 0.960 . S
C676 H662 0.960 . S
C676 H663 0.960 . S
C676 C675 1.524 . S
C677 C674 1.403 . S
C677 C678 1.392 . S
C677 C681 1.495 . S
C678 C677 1.392 . S
C678 C679 1.385 . S
C678 C680 1.478 . S
C679 H673 0.930 . S
C679 C675 1.400 . S
C679 C678 1.385 . S
C680 C678 1.478 . S
C680 C682 1.381 . S
C680 C686 1.383 . S
C681 C677 1.495 . S
C681 H687 0.959 . S
C681 H688 0.961 . S
C681 H689 0.960 . S
C682 C680 1.381 . S
C682 C683 1.394 . S
C682 H690 0.930 . S
C683 C682 1.394 . S
C683 C684 1.383 . S
C683 H691 0.929 1_455 S
C684 C683 1.383 . S
C684 C685 1.377 . S
C685 H669 0.930 . S
C685 C684 1.377 . S
C685 C686 1.379 . S
C686 H670 0.931 . S
C686 C680 1.383 . S
C686 C685 1.379 . S
H687 C681 0.959 . S
H688 C681 0.961 . S
H689 C681 0.960 . S
H690 C682 0.930 . S
H691 C683 0.929 1_655 S
H692 C700 0.913 1_565 S
H693 C702 0.930 . S
H694 C704 0.930 . S
H695 C707 0.929 . S
H696 C710 0.930 . S
H697 C712 0.960 . S
H698 C712 0.960 1_565 S
H699 C712 0.960 . S
C700 H692 0.913 1_545 S
C700 C701 1.377 . S
C700 C702 1.402 . S
C701 C700 1.377 . S
C701 C707 1.395 . S
C702 H693 0.930 . S
C702 C700 1.402 . S
C702 C703 1.372 . S
C703 C702 1.372 . S
C703 C704 1.400 . S
C703 C708 1.490 . S
C704 H694 0.930 . S
C704 C703 1.400 . S
C704 C707 1.386 . S
H705 C721 0.930 . S
H706 C722 0.931 . S
C707 H695 0.929 . S
C707 C701 1.395 . S
C707 C704 1.386 . S
C708 C703 1.490 . S
C708 C710 1.395 . S
C708 C711 1.403 . S
H709 C715 0.930 . S
C710 H696 0.930 . S
C710 C708 1.395 . S
C710 C713 1.403 . S
C711 C708 1.403 . S
C711 C712 1.524 . S
C711 C715 1.400 . S
C712 H697 0.960 . S
C712 H698 0.960 1_545 S
C712 H699 0.960 . S
C712 C711 1.524 . S
C713 C710 1.403 . S
C713 C714 1.392 . S
C713 C717 1.495 . S
C714 C713 1.392 . S
C714 C715 1.385 . S
C714 C716 1.478 . S
C715 H709 0.930 . S
C715 C711 1.400 . S
C715 C714 1.385 . S
C716 C714 1.478 . S
C716 C718 1.381 1_455 S
C716 C722 1.383 . S
C717 C713 1.495 . S
C717 H723 0.959 . S
C717 H724 0.961 . S
C717 H725 0.960 1_455 S
C718 C716 1.381 1_655 S
C718 C719 1.394 . S
C718 H726 0.930 . S
C719 C718 1.394 . S
C719 C720 1.383 . S
C719 H727 0.929 . S
C720 C719 1.383 . S
C720 C721 1.376 1_655 S
C721 H705 0.930 . S
C721 C720 1.376 1_455 S
C721 C722 1.379 . S
C722 H706 0.931 . S
C722 C716 1.383 . S
C722 C721 1.379 . S
H723 C717 0.959 . S
H724 C717 0.961 . S
H725 C717 0.960 1_655 S
H726 C718 0.930 . S
H727 C719 0.929 . S
H728 C736 0.929 . S
H729 C738 0.930 . S
H730 C740 0.930 . S
H731 C743 0.929 . S
H732 C746 0.930 . S
H733 C748 0.960 . S
H734 C748 0.960 . S
H735 C748 0.960 . S
C736 H728 0.929 . S
C736 C737 1.377 . S
C736 C738 1.384 . S
C737 C736 1.377 . S
C737 C743 1.390 . S
C738 H729 0.930 . S
C738 C736 1.384 . S
C738 C739 1.372 . S
C739 C738 1.372 . S
C739 C740 1.400 . S
C739 C744 1.490 . S
C740 H730 0.930 . S
C740 C739 1.400 . S
C740 C743 1.386 . S
H741 C757 0.932 . S
H742 C758 0.931 . S
C743 H731 0.929 . S
C743 C737 1.390 . S
C743 C740 1.386 . S
C744 C739 1.490 . S
C744 C746 1.395 . S
C744 C747 1.403 . S
H745 C751 0.930 . S
C746 H732 0.930 . S
C746 C744 1.395 . S
C746 C749 1.403 . S
C747 C744 1.403 . S
C747 C748 1.524 . S
C747 C751 1.400 . S
C748 H733 0.960 . S
C748 H734 0.960 . S
C748 H735 0.960 . S
C748 C747 1.524 . S
C749 C746 1.403 . S
C749 C750 1.392 . S
C749 C753 1.495 . S
C750 C749 1.392 . S
C750 C751 1.385 . S
C750 C752 1.478 . S
C751 H745 0.930 . S
C751 C747 1.400 . S
C751 C750 1.385 . S
C752 C750 1.478 . S
C752 C754 1.381 . S
C752 C758 1.383 . S
C753 C749 1.495 . S
C753 H759 0.965 . S
C753 H760 0.961 1_545 S
C753 H761 0.960 . S
C754 C752 1.381 . S
C754 C755 1.394 . S
C754 H762 0.930 . S
C755 C754 1.394 . S
C755 C756 1.368 1_545 S
C755 H763 0.929 . S
C756 C755 1.368 1_565 S
C756 C757 1.376 . S
C757 H741 0.932 . S
C757 C756 1.376 . S
C757 C758 1.377 1_565 S
C758 H742 0.931 . S
C758 C752 1.383 . S
C758 C757 1.377 1_545 S
H759 C753 0.965 . S
H760 C753 0.961 1_565 S
H761 C753 0.960 . S
H762 C754 0.930 . S
H763 C755 0.929 . S
H764 C772 0.929 . S
H765 C774 0.930 . S
H766 C776 0.930 . S
H767 C779 0.929 . S
H768 C782 0.930 . S
H769 C784 0.960 . S
H770 C784 0.960 . S
H771 C784 0.960 . S
C772 H764 0.929 . S
C772 C773 1.377 . S
C772 C774 1.384 . S
C773 C772 1.377 . S
C773 C779 1.390 . S
C774 H765 0.930 . S
C774 C772 1.384 . S
C774 C775 1.372 . S
C775 C774 1.372 . S
C775 C776 1.400 . S
C775 C780 1.490 . S
C776 H766 0.930 . S
C776 C775 1.400 . S
C776 C779 1.386 . S
H777 C793 0.930 . S
H778 C794 0.931 . S
C779 H767 0.929 . S
C779 C773 1.390 . S
C779 C776 1.386 . S
C780 C775 1.490 . S
C780 C782 1.395 . S
C780 C783 1.403 . S
H781 C787 0.930 . S
C782 H768 0.930 . S
C782 C780 1.395 . S
C782 C785 1.403 . S
C783 C780 1.403 . S
C783 C784 1.524 . S
C783 C787 1.400 . S
C784 H769 0.960 . S
C784 H770 0.960 . S
C784 H771 0.960 . S
C784 C783 1.524 . S
C785 C782 1.403 . S
C785 C786 1.392 . S
C785 C789 1.495 . S
C786 C785 1.392 . S
C786 C787 1.385 . S
C786 C788 1.478 . S
C787 H781 0.930 . S
C787 C783 1.400 . S
C787 C786 1.385 . S
C788 C786 1.478 . S
C788 C790 1.381 . S
C788 C794 1.383 . S
C789 C785 1.495 . S
C789 H795 0.959 . S
C789 H796 0.961 . S
C789 H797 0.960 . S
C790 C788 1.381 . S
C790 C791 1.394 . S
C790 H798 0.930 . S
C791 C790 1.394 . S
C791 C792 1.383 . S
C791 H799 0.929 . S
C792 C791 1.383 . S
C792 C793 1.377 . S
C793 H777 0.930 . S
C793 C792 1.377 . S
C793 C794 1.379 . S
C794 H778 0.931 . S
C794 C788 1.383 . S
C794 C793 1.379 . S
H795 C789 0.959 . S
H796 C789 0.961 . S
H797 C789 0.960 . S
H798 C790 0.930 . S
H799 C791 0.929 . S
H800 C808 0.929 . S
H801 C810 0.930 . S
H802 C812 0.930 . S
H803 C815 0.929 . S
H804 C818 0.930 . S
H805 C820 0.960 . S
H806 C820 0.960 . S
H807 C820 0.960 . S
C808 H800 0.929 . S
C808 C809 1.377 1_655 S
C808 C810 1.384 . S
C809 C808 1.377 1_455 S
C809 C815 1.390 . S
C810 H801 0.930 . S
C810 C808 1.384 . S
C810 C811 1.372 1_655 S
C811 C810 1.372 1_455 S
C811 C812 1.400 . S
C811 C816 1.490 . S
C812 H802 0.930 . S
C812 C811 1.400 . S
C812 C815 1.386 . S
H813 C829 0.930 . S
H814 C830 0.931 . S
C815 H803 0.929 . S
C815 C809 1.390 . S
C815 C812 1.386 . S
C816 C811 1.490 . S
C816 C818 1.395 . S
C816 C819 1.403 . S
H817 C823 0.930 . S
C818 H804 0.930 . S
C818 C816 1.395 . S
C818 C821 1.403 . S
C819 C816 1.403 . S
C819 C820 1.524 . S
C819 C823 1.400 . S
C820 H805 0.960 . S
C820 H806 0.960 . S
C820 H807 0.960 . S
C820 C819 1.524 . S
C821 C818 1.403 . S
C821 C822 1.392 . S
C821 C825 1.495 . S
C822 C821 1.392 . S
C822 C823 1.385 . S
C822 C824 1.478 . S
C823 H817 0.930 . S
C823 C819 1.400 . S
C823 C822 1.385 . S
C824 C822 1.478 . S
C824 C826 1.381 1_455 S
C824 C830 1.383 . S
C825 C821 1.495 . S
C825 H831 0.959 . S
C825 H832 0.961 . S
C825 H833 0.960 1_455 S
C826 C824 1.381 1_655 S
C826 C827 1.394 . S
C826 H834 0.930 . S
C827 C826 1.394 . S
C827 C828 1.383 1_655 S
C827 H835 0.929 . S
C828 C827 1.383 1_455 S
C828 C829 1.377 . S
C829 H813 0.930 . S
C829 C828 1.377 . S
C829 C830 1.379 . S
C830 H814 0.931 . S
C830 C824 1.383 . S
C830 C829 1.379 . S
H831 C825 0.959 . S
H832 C825 0.961 . S
H833 C825 0.960 1_655 S
H834 C826 0.930 . S
H835 C827 0.929 . S
H836 C844 0.929 . S
H837 C846 0.930 . S
H838 C848 0.930 . S
H839 C851 0.929 . S
H840 C854 0.924 1_565 S
H841 C856 0.960 . S
H842 C856 0.960 . S
H843 C856 0.960 . S
C844 H836 0.929 . S
C844 C845 1.377 1_565 S
C844 C846 1.384 . S
C845 C844 1.377 1_545 S
C845 C851 1.390 . S
C846 H837 0.930 . S
C846 C844 1.384 . S
C846 C847 1.372 1_565 S
C847 C846 1.372 1_545 S
C847 C848 1.400 . S
C847 C852 1.490 . S
C848 H838 0.930 . S
C848 C847 1.400 . S
C848 C851 1.386 . S
H849 C865 0.930 . S
H850 C866 0.931 . S
C851 H839 0.929 . S
C851 C845 1.390 . S
C851 C848 1.386 . S
C852 C847 1.490 . S
C852 C854 1.401 . S
C852 C855 1.403 . S
H853 C859 0.930 . S
C854 H840 0.924 1_545 S
C854 C852 1.401 . S
C854 C857 1.403 1_545 S
C855 C852 1.403 . S
C855 C856 1.524 . S
C855 C859 1.400 . S
C856 H841 0.960 . S
C856 H842 0.960 . S
C856 H843 0.960 . S
C856 C855 1.524 . S
C857 C854 1.403 1_565 S
C857 C858 1.392 1_565 S
C857 C861 1.495 . S
C858 C857 1.392 1_545 S
C858 C859 1.385 . S
C858 C860 1.478 . S
C859 H853 0.930 . S
C859 C855 1.400 . S
C859 C858 1.385 . S
C860 C858 1.478 . S
C860 C862 1.381 1_545 S
C860 C866 1.383 . S
C861 C857 1.495 . S
C861 H867 0.959 . S
C861 H868 0.961 . S
C861 H869 0.960 . S
C862 C860 1.381 1_565 S
C862 C863 1.394 . S
C862 H870 0.930 . S
C863 C862 1.394 . S
C863 C864 1.383 1_565 S
C863 H871 0.929 . S
C864 C863 1.383 1_545 S
C864 C865 1.377 . S
C865 H849 0.930 . S
C865 C864 1.377 . S
C865 C866 1.379 . S
C866 H850 0.931 . S
C866 C860 1.383 . S
C866 C865 1.379 . S
H867 C861 0.959 . S
H868 C861 0.961 . S
H869 C861 0.960 . S
H870 C862 0.930 . S
H871 C863 0.929 . S
H872 C880 0.929 . S
H873 C882 0.930 . S
H874 C884 0.930 . S
H875 C887 0.929 . S
H876 C890 0.930 . S
H877 C892 0.960 . S
H878 C892 0.960 . S
H879 C892 0.960 . S
C880 H872 0.929 . S
C880 C881 1.377 . S
C880 C882 1.384 . S
C881 C880 1.377 . S
C881 C887 1.390 . S
C882 H873 0.930 . S
C882 C880 1.384 . S
C882 C883 1.372 . S
C883 C882 1.372 . S
C883 C884 1.400 . S
C883 C888 1.490 . S
C884 H874 0.930 . S
C884 C883 1.400 . S
C884 C887 1.386 . S
H885 C901 0.930 . S
H886 C902 0.931 . S
C887 H875 0.929 . S
C887 C881 1.390 . S
C887 C884 1.386 . S
C888 C883 1.490 . S
C888 C890 1.395 . S
C888 C891 1.403 . S
H889 C895 0.930 . S
C890 H876 0.930 . S
C890 C888 1.395 . S
C890 C893 1.403 . S
C891 C888 1.403 . S
C891 C892 1.524 . S
C891 C895 1.400 . S
C892 H877 0.960 . S
C892 H878 0.960 . S
C892 H879 0.960 . S
C892 C891 1.524 . S
C893 C890 1.403 . S
C893 C894 1.392 . S
C893 C897 1.495 . S
C894 C893 1.392 . S
C894 C895 1.385 . S
C894 C896 1.478 . S
C895 H889 0.930 . S
C895 C891 1.400 . S
C895 C894 1.385 . S
C896 C894 1.478 . S
C896 C898 1.381 . S
C896 C902 1.383 . S
C897 C893 1.495 . S
C897 H903 0.959 . S
C897 H904 0.961 . S
C897 H905 0.960 . S
C898 C896 1.381 . S
C898 C899 1.394 . S
C898 H906 0.930 . S
C899 C898 1.394 . S
C899 C900 1.383 . S
C899 H907 0.929 . S
C900 C899 1.383 . S
C900 C901 1.377 . S
C901 H885 0.930 . S
C901 C900 1.377 . S
C901 C902 1.379 . S
C902 H886 0.931 . S
C902 C896 1.383 . S
C902 C901 1.379 . S
H903 C897 0.959 . S
H904 C897 0.961 . S
H905 C897 0.960 . S
H906 C898 0.930 . S
H907 C899 0.929 . S
H908 C916 0.929 . S
H909 C918 0.930 . S
H910 C920 0.930 . S
H911 C923 0.929 . S
H912 C926 0.930 . S
H913 C928 0.960 . S
H914 C928 0.960 . S
H915 C928 0.960 . S
C916 H908 0.929 . S
C916 C917 1.377 . S
C916 C918 1.384 . S
C917 C916 1.377 . S
C917 C923 1.390 . S
C918 H909 0.930 . S
C918 C916 1.384 . S
C918 C919 1.372 . S
C919 C918 1.372 . S
C919 C920 1.400 . S
C919 C924 1.490 . S
C920 H910 0.930 . S
C920 C919 1.400 . S
C920 C923 1.386 . S
H921 C937 0.930 . S
H922 C938 0.931 . S
C923 H911 0.929 . S
C923 C917 1.390 . S
C923 C920 1.386 . S
C924 C919 1.490 . S
C924 C926 1.395 . S
C924 C927 1.403 . S
H925 C931 0.930 . S
C926 H912 0.930 . S
C926 C924 1.395 . S
C926 C929 1.403 . S
C927 C924 1.403 . S
C927 C928 1.524 . S
C927 C931 1.400 . S
C928 H913 0.960 . S
C928 H914 0.960 . S
C928 H915 0.960 . S
C928 C927 1.524 . S
C929 C926 1.403 . S
C929 C930 1.392 . S
C929 C933 1.495 . S
C930 C929 1.392 . S
C930 C931 1.385 . S
C930 C932 1.478 . S
C931 H925 0.930 . S
C931 C927 1.400 . S
C931 C930 1.385 . S
C932 C930 1.478 . S
C932 C934 1.381 . S
C932 C938 1.383 . S
C933 C929 1.495 . S
C933 H939 0.959 . S
C933 H940 0.961 . S
C933 H941 0.960 . S
C934 C932 1.381 . S
C934 C935 1.394 . S
C934 H942 0.930 . S
C935 C934 1.394 . S
C935 C936 1.383 . S
C935 H943 0.929 . S
C936 C935 1.383 . S
C936 C937 1.377 . S
C937 H921 0.930 . S
C937 C936 1.377 . S
C937 C938 1.379 . S
C938 H922 0.931 . S
C938 C932 1.383 . S
C938 C937 1.379 . S
H939 C933 0.959 . S
H940 C933 0.961 . S
H941 C933 0.960 . S
H942 C934 0.930 . S
H943 C935 0.929 . S
H944 C952 0.929 . S
H945 C954 0.930 . S
H946 C956 0.930 . S
H947 C959 0.929 . S
H948 C962 0.930 . S
H949 C964 0.954 1_455 S
H950 C964 0.960 . S
H951 C964 0.960 1_455 S
C952 H944 0.929 . S
C952 C953 1.377 . S
C952 C954 1.384 . S
C953 C952 1.377 . S
C953 C959 1.390 1_655 S
C954 H945 0.930 . S
C954 C952 1.384 . S
C954 C955 1.372 . S
C955 C954 1.372 . S
C955 C956 1.400 1_655 S
C955 C960 1.490 . S
C956 H946 0.930 . S
C956 C955 1.400 1_455 S
C956 C959 1.386 . S
H957 C973 0.930 . S
H958 C974 0.931 . S
C959 H947 0.929 . S
C959 C953 1.390 1_455 S
C959 C956 1.386 . S
C960 C955 1.490 . S
C960 C962 1.395 . S
C960 C963 1.403 . S
H961 C967 0.930 . S
C962 H948 0.930 . S
C962 C960 1.395 . S
C962 C965 1.403 . S
C963 C960 1.403 . S
C963 C964 1.524 . S
C963 C967 1.400 . S
C964 H949 0.954 1_655 S
C964 H950 0.960 . S
C964 H951 0.960 1_655 S
C964 C963 1.524 . S
C965 C962 1.403 . S
C965 C966 1.392 . S
C965 C969 1.495 . S
C966 C965 1.392 . S
C966 C967 1.385 . S
C966 C968 1.478 . S
C967 H961 0.930 . S
C967 C963 1.400 . S
C967 C966 1.385 . S
C968 C966 1.478 . S
C968 C970 1.381 . S
C968 C974 1.383 1_655 S
C969 C965 1.495 . S
C969 H975 0.959 . S
C969 H976 0.961 . S
C969 H977 0.960 . S
C970 C968 1.381 . S
C970 C971 1.394 . S
C970 H978 0.930 . S
C971 C970 1.394 . S
C971 C972 1.383 . S
C971 H979 0.929 . S
C972 C971 1.383 . S
C972 C973 1.377 1_655 S
C973 H957 0.930 . S
C973 C972 1.377 1_455 S
C973 C974 1.379 . S
C974 H958 0.931 . S
C974 C968 1.383 1_455 S
C974 C973 1.379 . S
H975 C969 0.959 . S
H976 C969 0.961 . S
H977 C969 0.960 . S
H978 C970 0.930 . S
H979 C971 0.929 . S
H980 C988 0.929 . S
H981 C990 0.930 . S
H982 C992 0.930 . S
H983 C995 0.929 . S
H984 C998 0.930 . S
H985 C1000 0.960 . S
H986 C1000 0.960 . S
H987 C1000 0.960 . S
C988 H980 0.929 . S
C988 C989 1.377 . S
C988 C990 1.384 . S
C989 C988 1.377 . S
C989 C995 1.390 . S
C990 H981 0.930 . S
C990 C988 1.384 . S
C990 C991 1.372 . S
C991 C990 1.372 . S
C991 C992 1.400 . S
C991 C996 1.490 . S
C992 H982 0.930 . S
C992 C991 1.400 . S
C992 C995 1.386 . S
H993 C1009 0.930 . S
H994 C1010 0.931 . S
C995 H983 0.929 . S
C995 C989 1.390 . S
C995 C992 1.386 . S
C996 C991 1.490 . S
C996 C998 1.395 . S
C996 C999 1.403 1_565 S
H997 C1003 0.930 1_545 S
C998 H984 0.930 . S
C998 C996 1.395 . S
C998 C1001 1.403 . S
C999 C996 1.403 1_545 S
C999 C1000 1.524 . S
C999 C1003 1.400 1_545 S
C1000 H985 0.960 . S
C1000 H986 0.960 . S
C1000 H987 0.960 . S
C1000 C999 1.524 . S
C1001 C998 1.403 . S
C1001 C1002 1.392 . S
C1001 C1005 1.495 . S
C1002 C1001 1.392 . S
C1002 C1003 1.385 . S
C1002 C1004 1.478 . S
C1003 H997 0.930 1_565 S
C1003 C999 1.400 1_565 S
C1003 C1002 1.385 . S
C1004 C1002 1.478 . S
C1004 C1006 1.381 . S
C1004 C1010 1.383 . S
C1005 C1001 1.495 . S
C1005 H1011 0.959 . S
C1005 H1012 0.961 . S
C1005 H1013 0.960 . S
C1006 C1004 1.381 . S
C1006 C1007 1.394 . S
C1006 H1014 0.930 . S
C1007 C1006 1.394 . S
C1007 C1008 1.383 . S
C1007 H1015 0.929 . S
C1008 C1007 1.383 . S
C1008 C1009 1.377 . S
C1009 H993 0.930 . S
C1009 C1008 1.377 . S
C1009 C1010 1.379 . S
C1010 H994 0.931 . S
C1010 C1004 1.383 . S
C1010 C1009 1.379 . S
H1011 C1005 0.959 . S
H1012 C1005 0.961 . S
H1013 C1005 0.960 . S
H1014 C1006 0.930 . S
H1015 C1007 0.929 . S
H1016 C1024 0.929 . S
H1017 C1026 0.930 . S
H1018 C1028 0.930 . S
H1019 C1031 0.929 . S
H1020 C1034 0.930 . S
H1021 C1036 0.960 . S
H1022 C1036 0.960 . S
H1023 C1036 0.960 . S
C1024 H1016 0.929 . S
C1024 C1025 1.377 . S
C1024 C1026 1.384 . S
C1025 C1024 1.377 . S
C1025 C1031 1.390 . S
C1026 H1017 0.930 . S
C1026 C1024 1.384 . S
C1026 C1027 1.372 . S
C1027 C1026 1.372 . S
C1027 C1028 1.400 . S
C1027 C1032 1.490 . S
C1028 H1018 0.930 . S
C1028 C1027 1.400 . S
C1028 C1031 1.386 . S
H1029 C1045 0.930 . S
H1030 C1046 0.931 . S
C1031 H1019 0.929 . S
C1031 C1025 1.390 . S
C1031 C1028 1.386 . S
C1032 C1027 1.490 . S
C1032 C1034 1.395 . S
C1032 C1035 1.403 . S
H1033 C1039 0.930 . S
C1034 H1020 0.930 . S
C1034 C1032 1.395 . S
C1034 C1037 1.403 . S
C1035 C1032 1.403 . S
C1035 C1036 1.524 . S
C1035 C1039 1.400 . S
C1036 H1021 0.960 . S
C1036 H1022 0.960 . S
C1036 H1023 0.960 . S
C1036 C1035 1.524 . S
C1037 C1034 1.403 . S
C1037 C1038 1.392 . S
C1037 C1041 1.495 . S
C1038 C1037 1.392 . S
C1038 C1039 1.385 . S
C1038 C1040 1.478 . S
C1039 H1033 0.930 . S
C1039 C1035 1.400 . S
C1039 C1038 1.385 . S
C1040 C1038 1.478 . S
C1040 C1042 1.381 . S
C1040 C1046 1.383 . S
C1041 C1037 1.495 . S
C1041 H1047 0.959 . S
C1041 H1048 0.961 . S
C1041 H1049 0.960 . S
C1042 C1040 1.381 . S
C1042 C1043 1.394 . S
C1042 H1050 0.930 . S
C1043 C1042 1.394 . S
C1043 C1044 1.383 . S
C1043 H1051 0.929 . S
C1044 C1043 1.383 . S
C1044 C1045 1.377 . S
C1045 H1029 0.930 . S
C1045 C1044 1.377 . S
C1045 C1046 1.379 . S
C1046 H1030 0.931 . S
C1046 C1040 1.383 . S
C1046 C1045 1.379 . S
H1047 C1041 0.959 . S
H1048 C1041 0.961 . S
H1049 C1041 0.960 . S
H1050 C1042 0.930 . S
H1051 C1043 0.929 . S
H1052 C1060 0.929 . S
H1053 C1062 0.930 . S
H1054 C1064 0.930 . S
H1055 C1067 0.929 . S
H1056 C1070 0.930 . S
H1057 C1072 0.960 . S
H1058 C1072 0.960 . S
H1059 C1072 0.960 . S
C1060 H1052 0.929 . S
C1060 C1061 1.377 . S
C1060 C1062 1.384 . S
C1061 C1060 1.377 . S
C1061 C1067 1.390 . S
C1062 H1053 0.930 . S
C1062 C1060 1.384 . S
C1062 C1063 1.372 . S
C1063 C1062 1.372 . S
C1063 C1064 1.400 . S
C1063 C1068 1.490 . S
C1064 H1054 0.930 . S
C1064 C1063 1.400 . S
C1064 C1067 1.386 . S
H1065 C1081 0.930 . S
H1066 C1082 0.931 . S
C1067 H1055 0.929 . S
C1067 C1061 1.390 . S
C1067 C1064 1.386 . S
C1068 C1063 1.490 . S
C1068 C1070 1.395 . S
C1068 C1071 1.403 . S
H1069 C1075 0.930 . S
C1070 H1056 0.930 . S
C1070 C1068 1.395 . S
C1070 C1073 1.403 . S
C1071 C1068 1.403 . S
C1071 C1072 1.524 . S
C1071 C1075 1.400 . S
C1072 H1057 0.960 . S
C1072 H1058 0.960 . S
C1072 H1059 0.960 . S
C1072 C1071 1.524 . S
C1073 C1070 1.403 . S
C1073 C1074 1.392 . S
C1073 C1077 1.495 . S
C1074 C1073 1.392 . S
C1074 C1075 1.385 . S
C1074 C1076 1.478 . S
C1075 H1069 0.930 . S
C1075 C1071 1.400 . S
C1075 C1074 1.385 . S
C1076 C1074 1.478 . S
C1076 C1078 1.381 . S
C1076 C1082 1.383 . S
C1077 C1073 1.495 . S
C1077 H1083 0.959 . S
C1077 H1084 0.961 . S
C1077 H1085 0.960 . S
C1078 C1076 1.381 . S
C1078 C1079 1.394 . S
C1078 H1086 0.930 . S
C1079 C1078 1.394 . S
C1079 C1080 1.383 . S
C1079 H1087 0.929 . S
C1080 C1079 1.383 . S
C1080 C1081 1.377 . S
C1081 H1065 0.930 . S
C1081 C1080 1.377 . S
C1081 C1082 1.379 . S
C1082 H1066 0.931 . S
C1082 C1076 1.383 . S
C1082 C1081 1.379 . S
H1083 C1077 0.959 . S
H1084 C1077 0.961 . S
H1085 C1077 0.960 . S
H1086 C1078 0.930 . S
H1087 C1079 0.929 . S
H1088 C1096 0.929 . S
H1089 C1098 0.930 . S
H1090 C1100 0.930 . S
H1091 C1103 0.929 . S
H1092 C1106 0.930 . S
H1093 C1108 0.960 . S
H1094 C1108 0.990 . S
H1095 C1108 0.960 . S
C1096 H1088 0.929 . S
C1096 C1097 1.377 1_655 S
C1096 C1098 1.384 . S
C1097 C1096 1.377 1_455 S
C1097 C1103 1.390 . S
C1098 H1089 0.930 . S
C1098 C1096 1.384 . S
C1098 C1099 1.372 1_655 S
C1099 C1098 1.372 1_455 S
C1099 C1100 1.400 . S
C1099 C1104 1.491 . S
C1100 H1090 0.930 . S
C1100 C1099 1.400 . S
C1100 C1103 1.386 . S
H1101 C1117 0.930 . S
H1102 C1118 0.931 . S
C1103 H1091 0.929 . S
C1103 C1097 1.390 . S
C1103 C1100 1.386 . S
C1104 C1099 1.491 . S
C1104 C1106 1.392 1_454 S
C1104 C1107 1.405 . S
H1105 C1111 0.930 . S
C1106 H1092 0.930 . S
C1106 C1104 1.392 1_656 S
C1106 C1109 1.403 . S
C1107 C1104 1.405 . S
C1107 C1108 1.524 . S
C1107 C1111 1.400 . S
C1108 H1093 0.960 . S
C1108 H1094 0.990 . S
C1108 H1095 0.960 . S
C1108 C1107 1.524 . S
C1109 C1106 1.403 . S
C1109 C1110 1.392 . S
C1109 C1113 1.495 . S
C1110 C1109 1.392 . S
C1110 C1111 1.385 1_656 S
C1110 C1112 1.478 . S
C1111 H1105 0.930 . S
C1111 C1107 1.400 . S
C1111 C1110 1.385 1_454 S
C1112 C1110 1.478 . S
C1112 C1114 1.381 . S
C1112 C1118 1.383 1_655 S
C1113 C1109 1.495 . S
C1113 H1119 0.959 . S
C1113 H1120 0.961 . S
C1113 H1121 0.960 . S
C1114 C1112 1.381 . S
C1114 C1115 1.394 . S
C1114 H1122 0.930 . S
C1115 C1114 1.394 . S
C1115 C1116 1.383 . S
C1115 H1123 0.929 . S
C1116 C1115 1.383 . S
C1116 C1117 1.377 1_655 S
C1117 H1101 0.930 . S
C1117 C1116 1.377 1_455 S
C1117 C1118 1.379 . S
C1118 H1102 0.931 . S
C1118 C1112 1.383 1_455 S
C1118 C1117 1.379 . S
H1119 C1113 0.959 . S
H1120 C1113 0.961 . S
H1121 C1113 0.960 . S
H1122 C1114 0.930 . S
H1123 C1115 0.929 . S
H1124 C1132 0.929 . S
H1125 C1134 0.930 . S
H1126 C1136 0.930 . S
H1127 C1139 0.929 . S
H1128 C1142 0.930 . S
H1129 C1144 0.960 . S
H1130 C1144 0.960 . S
H1131 C1144 0.960 1_565 S
C1132 H1124 0.929 . S
C1132 C1133 1.377 1_545 S
C1132 C1134 1.384 . S
C1133 C1132 1.377 1_565 S
C1133 C1139 1.390 . S
C1134 H1125 0.930 . S
C1134 C1132 1.384 . S
C1134 C1135 1.372 1_545 S
C1135 C1134 1.372 1_565 S
C1135 C1136 1.400 . S
C1135 C1140 1.493 . S
C1136 H1126 0.930 . S
C1136 C1135 1.400 . S
C1136 C1139 1.386 . S
H1137 C1153 0.930 . S
H1138 C1154 0.931 . S
C1139 H1127 0.929 . S
C1139 C1133 1.390 . S
C1139 C1136 1.386 . S
C1140 C1135 1.493 . S
C1140 C1142 1.397 1_455 S
C1140 C1143 1.398 1_566 S
H1141 C1147 0.930 . S
C1142 H1128 0.930 . S
C1142 C1140 1.397 1_655 S
C1142 C1145 1.406 . S
C1143 C1140 1.398 1_544 S
C1143 C1144 1.524 . S
C1143 C1147 1.400 1_455 S
C1144 H1129 0.960 . S
C1144 H1130 0.960 . S
C1144 H1131 0.960 1_545 S
C1144 C1143 1.524 . S
C1145 C1142 1.406 . S
C1145 C1146 1.388 1_566 S
C1145 C1149 1.499 . S
C1146 C1145 1.388 1_544 S
C1146 C1147 1.385 . S
C1146 C1148 1.478 . S
C1147 H1141 0.930 . S
C1147 C1143 1.400 1_655 S
C1147 C1146 1.385 . S
C1148 C1146 1.478 . S
C1148 C1150 1.381 . S
C1148 C1154 1.383 1_545 S
C1149 C1145 1.499 . S
C1149 H1155 0.959 . S
C1149 H1156 0.961 . S
C1149 H1157 0.960 1_565 S
C1150 C1148 1.381 . S
C1150 C1151 1.394 . S
C1150 H1158 0.930 . S
C1151 C1150 1.394 . S
C1151 C1152 1.383 . S
C1151 H1159 0.929 . S
C1152 C1151 1.383 . S
C1152 C1153 1.377 1_545 S
C1153 H1137 0.930 . S
C1153 C1152 1.377 1_565 S
C1153 C1154 1.379 . S
C1154 H1138 0.931 . S
C1154 C1148 1.383 1_565 S
C1154 C1153 1.379 . S
H1155 C1149 0.959 . S
H1156 C1149 0.961 . S
H1157 C1149 0.960 1_545 S
H1158 C1150 0.930 . S
H1159 C1151 0.929 . S
H1160 C1168 0.929 . S
H1161 C1170 0.930 . S
H1162 C1172 0.930 . S
H1163 C1175 0.929 . S
H1164 C1178 0.930 . S
H1165 C1180 0.960 . S
H1166 C1180 0.960 . S
H1167 C1180 0.960 . S
C1168 H1160 0.929 . S
C1168 C1169 1.377 . S
C1168 C1170 1.384 . S
C1169 C1168 1.377 . S
C1169 C1175 1.390 . S
C1170 H1161 0.930 . S
C1170 C1168 1.384 . S
C1170 C1171 1.372 . S
C1171 C1170 1.372 . S
C1171 C1172 1.400 . S
C1171 C1176 1.490 . S
C1172 H1162 0.930 . S
C1172 C1171 1.400 . S
C1172 C1175 1.386 . S
H1173 C1189 0.930 . S
H1174 C1190 0.931 . S
C1175 H1163 0.929 . S
C1175 C1169 1.390 . S
C1175 C1172 1.386 . S
C1176 C1171 1.490 . S
C1176 C1178 1.395 1_565 S
C1176 C1179 1.403 1_554 S
H1177 C1183 0.930 . S
C1178 H1164 0.930 . S
C1178 C1176 1.395 1_545 S
C1178 C1181 1.403 . S
C1179 C1176 1.403 1_556 S
C1179 C1180 1.524 . S
C1179 C1183 1.400 1_565 S
C1180 H1165 0.960 . S
C1180 H1166 0.960 . S
C1180 H1167 0.960 . S
C1180 C1179 1.524 . S
C1181 C1178 1.403 . S
C1181 C1182 1.392 1_554 S
C1181 C1185 1.495 . S
C1182 C1181 1.392 1_556 S
C1182 C1183 1.385 . S
C1182 C1184 1.478 . S
C1183 H1177 0.930 . S
C1183 C1179 1.400 1_545 S
C1183 C1182 1.385 . S
C1184 C1182 1.478 . S
C1184 C1186 1.381 . S
C1184 C1190 1.383 . S
C1185 C1181 1.495 . S
C1185 H1191 0.959 . S
C1185 H1192 0.961 . S
C1185 H1193 0.960 . S
C1186 C1184 1.381 . S
C1186 C1187 1.394 . S
C1186 H1194 0.930 . S
C1187 C1186 1.394 . S
C1187 C1188 1.383 . S
C1187 H1195 0.929 . S
C1188 C1187 1.383 . S
C1188 C1189 1.377 . S
C1189 H1173 0.930 . S
C1189 C1188 1.377 . S
C1189 C1190 1.379 . S
C1190 H1174 0.931 . S
C1190 C1184 1.383 . S
C1190 C1189 1.379 . S
H1191 C1185 0.959 . S
H1192 C1185 0.961 . S
H1193 C1185 0.960 . S
H1194 C1186 0.930 . S
H1195 C1187 0.929 . S
H1196 C1204 0.929 . S
H1197 C1206 0.930 . S
H1198 C1208 0.930 . S
H1199 C1211 0.929 . S
H1200 C1214 0.930 . S
H1201 C1216 0.960 . S
H1202 C1216 0.960 . S
H1203 C1216 0.960 . S
C1204 H1196 0.929 . S
C1204 C1205 1.377 . S
C1204 C1206 1.384 . S
C1205 C1204 1.377 . S
C1205 C1211 1.390 . S
C1206 H1197 0.930 . S
C1206 C1204 1.384 . S
C1206 C1207 1.372 . S
C1207 C1206 1.372 . S
C1207 C1208 1.400 . S
C1207 C1212 1.490 . S
C1208 H1198 0.930 . S
C1208 C1207 1.400 . S
C1208 C1211 1.386 . S
H1209 C1225 0.930 . S
H1210 C1226 0.931 . S
C1211 H1199 0.929 . S
C1211 C1205 1.390 . S
C1211 C1208 1.386 . S
C1212 C1207 1.490 . S
C1212 C1214 1.395 1_556 S
C1212 C1215 1.403 . S
H1213 C1219 0.930 . S
C1214 H1200 0.930 . S
C1214 C1212 1.395 1_554 S
C1214 C1217 1.403 . S
C1215 C1212 1.403 . S
C1215 C1216 1.524 . S
C1215 C1219 1.400 . S
C1216 H1201 0.960 . S
C1216 H1202 0.960 . S
C1216 H1203 0.960 . S
C1216 C1215 1.524 . S
C1217 C1214 1.403 . S
C1217 C1218 1.392 . S
C1217 C1221 1.495 . S
C1218 C1217 1.392 . S
C1218 C1219 1.385 1_554 S
C1218 C1220 1.478 . S
C1219 H1213 0.930 . S
C1219 C1215 1.400 . S
C1219 C1218 1.385 1_556 S
C1220 C1218 1.478 . S
C1220 C1222 1.381 . S
C1220 C1226 1.383 . S
C1221 C1217 1.495 . S
C1221 H1227 0.959 . S
C1221 H1228 0.961 . S
C1221 H1229 0.960 . S
C1222 C1220 1.381 . S
C1222 C1223 1.394 . S
C1222 H1230 0.930 . S
C1223 C1222 1.394 . S
C1223 C1224 1.383 . S
C1223 H1231 0.929 . S
C1224 C1223 1.383 . S
C1224 C1225 1.377 . S
C1225 H1209 0.930 . S
C1225 C1224 1.377 . S
C1225 C1226 1.379 . S
C1226 H1210 0.931 . S
C1226 C1220 1.383 . S
C1226 C1225 1.379 . S
H1227 C1221 0.959 . S
H1228 C1221 0.961 . S
H1229 C1221 0.960 . S
H1230 C1222 0.930 . S
H1231 C1223 0.929 . S
H1232 C1240 0.929 . S
H1233 C1242 0.930 . S
H1234 C1244 0.930 . S
H1235 C1247 0.929 . S
H1236 C1250 0.930 . S
H1237 C1252 0.960 . S
H1238 C1252 0.960 1_565 S
H1239 C1252 0.962 1_455 S
C1240 H1232 0.929 . S
C1240 C1241 1.377 1_655 S
C1240 C1242 1.384 . S
C1241 C1240 1.377 1_455 S
C1241 C1247 1.390 . S
C1242 H1233 0.930 . S
C1242 C1240 1.384 . S
C1242 C1243 1.372 1_655 S
C1243 C1242 1.372 1_455 S
C1243 C1244 1.400 . S
C1243 C1248 1.490 . S
C1244 H1234 0.930 . S
C1244 C1243 1.400 . S
C1244 C1247 1.386 . S
H1245 C1261 0.930 . S
H1246 C1262 0.931 . S
C1247 H1235 0.929 . S
C1247 C1241 1.390 . S
C1247 C1244 1.386 . S
C1248 C1243 1.490 . S
C1248 C1250 1.395 . S
C1248 C1251 1.403 1_465 S
H1249 C1255 0.930 . S
C1250 H1236 0.930 . S
C1250 C1248 1.395 . S
C1250 C1253 1.403 . S
C1251 C1248 1.403 1_645 S
C1251 C1252 1.524 . S
C1251 C1255 1.400 . S
C1252 H1237 0.960 . S
C1252 H1238 0.960 1_545 S
C1252 H1239 0.962 1_655 S
C1252 C1251 1.524 . S
C1253 C1250 1.403 . S
C1253 C1254 1.392 1_465 S
C1253 C1257 1.495 . S
C1254 C1253 1.392 1_645 S
C1254 C1255 1.385 . S
C1254 C1256 1.478 . S
C1255 H1249 0.930 . S
C1255 C1251 1.400 . S
C1255 C1254 1.385 . S
C1256 C1254 1.478 . S
C1256 C1258 1.381 . S
C1256 C1262 1.383 1_655 S
C1257 C1253 1.495 . S
C1257 H1263 0.959 . S
C1257 H1264 0.961 1_565 S
C1257 H1265 0.960 1_455 S
C1258 C1256 1.381 . S
C1258 C1259 1.394 . S
C1258 H1266 0.930 . S
C1259 C1258 1.394 . S
C1259 C1260 1.383 . S
C1259 H1267 0.929 . S
C1260 C1259 1.383 . S
C1260 C1261 1.377 1_655 S
C1261 H1245 0.930 . S
C1261 C1260 1.377 1_455 S
C1261 C1262 1.379 . S
C1262 H1246 0.931 . S
C1262 C1256 1.383 1_455 S
C1262 C1261 1.379 . S
H1263 C1257 0.959 . S
H1264 C1257 0.961 1_545 S
H1265 C1257 0.960 1_655 S
H1266 C1258 0.930 . S
H1267 C1259 0.929 . S
H1268 C1276 0.926 1_565 S
H1269 C1278 0.928 1_565 S
H1270 C1280 0.930 . S
H1271 C1283 0.929 . S
H1272 C1286 0.930 . S
H1273 C1288 0.960 . S
H1274 C1288 0.960 . S
H1275 C1288 0.960 . S
C1276 H1268 0.926 1_545 S
C1276 C1277 1.377 . S
C1276 C1278 1.384 . S
C1277 C1276 1.377 . S
C1277 C1283 1.390 . S
C1278 H1269 0.928 1_545 S
C1278 C1276 1.384 . S
C1278 C1279 1.373 . S
C1279 C1278 1.373 . S
C1279 C1280 1.400 . S
C1279 C1284 1.490 . S
C1280 H1270 0.930 . S
C1280 C1279 1.400 . S
C1280 C1283 1.386 . S
H1281 C1297 0.930 . S
H1282 C1298 0.931 . S
C1283 H1271 0.929 . S
C1283 C1277 1.390 . S
C1283 C1280 1.386 . S
C1284 C1279 1.490 . S
C1284 C1286 1.395 . S
C1284 C1287 1.403 1_545 S
H1285 C1291 0.930 . S
C1286 H1272 0.930 . S
C1286 C1284 1.395 . S
C1286 C1289 1.403 . S
C1287 C1284 1.403 1_565 S
C1287 C1288 1.524 . S
C1287 C1291 1.400 . S
C1288 H1273 0.960 . S
C1288 H1274 0.960 . S
C1288 H1275 0.960 . S
C1288 C1287 1.524 . S
C1289 C1286 1.403 . S
C1289 C1290 1.392 . S
C1289 C1293 1.495 . S
C1290 C1289 1.392 . S
C1290 C1291 1.385 1_545 S
C1290 C1292 1.477 1_545 S
C1291 H1285 0.930 . S
C1291 C1287 1.400 . S
C1291 C1290 1.385 1_565 S
C1292 C1290 1.477 1_565 S
C1292 C1294 1.384 . S
C1292 C1298 1.381 1_565 S
C1293 C1289 1.495 . S
C1293 H1299 0.959 . S
C1293 H1300 0.961 . S
C1293 H1301 0.960 . S
C1294 C1292 1.384 . S
C1294 C1295 1.394 . S
C1294 H1302 0.930 . S
C1295 C1294 1.394 . S
C1295 C1296 1.383 . S
C1295 H1303 0.929 . S
C1296 C1295 1.383 . S
C1296 C1297 1.377 1_565 S
C1297 H1281 0.930 . S
C1297 C1296 1.377 1_545 S
C1297 C1298 1.379 . S
C1298 H1282 0.931 . S
C1298 C1292 1.381 1_545 S
C1298 C1297 1.379 . S
H1299 C1293 0.959 . S
H1300 C1293 0.961 . S
H1301 C1293 0.960 . S
H1302 C1294 0.930 . S
H1303 C1295 0.929 . S
H1304 C1312 0.929 . S
H1305 C1314 0.930 . S
H1306 C1316 0.930 . S
H1307 C1319 0.929 . S
H1308 C1322 0.930 . S
H1309 C1324 0.960 . S
H1310 C1324 0.960 . S
H1311 C1324 0.960 . S
C1312 H1304 0.929 . S
C1312 C1313 1.377 . S
C1312 C1314 1.384 . S
C1313 C1312 1.377 . S
C1313 C1319 1.390 . S
C1314 H1305 0.930 . S
C1314 C1312 1.384 . S
C1314 C1315 1.372 . S
C1315 C1314 1.372 . S
C1315 C1316 1.400 . S
C1315 C1320 1.490 . S
C1316 H1306 0.930 . S
C1316 C1315 1.400 . S
C1316 C1319 1.386 . S
H1317 C1333 0.930 . S
H1318 C1334 0.931 . S
C1319 H1307 0.929 . S
C1319 C1313 1.390 . S
C1319 C1316 1.386 . S
C1320 C1315 1.490 . S
C1320 C1322 1.395 . S
C1320 C1323 1.403 . S
H1321 C1327 0.930 . S
C1322 H1308 0.930 . S
C1322 C1320 1.395 . S
C1322 C1325 1.403 . S
C1323 C1320 1.403 . S
C1323 C1324 1.524 . S
C1323 C1327 1.400 . S
C1324 H1309 0.960 . S
C1324 H1310 0.960 . S
C1324 H1311 0.960 . S
C1324 C1323 1.524 . S
C1325 C1322 1.403 . S
C1325 C1326 1.392 . S
C1325 C1329 1.495 . S
C1326 C1325 1.392 . S
C1326 C1327 1.385 . S
C1326 C1328 1.478 . S
C1327 H1321 0.930 . S
C1327 C1323 1.400 . S
C1327 C1326 1.385 . S
C1328 C1326 1.478 . S
C1328 C1330 1.381 . S
C1328 C1334 1.383 . S
C1329 C1325 1.495 . S
C1329 H1335 0.959 . S
C1329 H1336 0.961 . S
C1329 H1337 0.960 . S
C1330 C1328 1.381 . S
C1330 C1331 1.394 . S
C1330 H1338 0.930 . S
C1331 C1330 1.394 . S
C1331 C1332 1.383 . S
C1331 H1339 0.929 . S
C1332 C1331 1.383 . S
C1332 C1333 1.377 . S
C1333 H1317 0.930 . S
C1333 C1332 1.377 . S
C1333 C1334 1.379 . S
C1334 H1318 0.931 . S
C1334 C1328 1.383 . S
C1334 C1333 1.379 . S
H1335 C1329 0.959 . S
H1336 C1329 0.961 . S
H1337 C1329 0.960 . S
H1338 C1330 0.930 . S
H1339 C1331 0.929 . S
H1340 C1348 0.929 . S
H1341 C1350 0.930 . S
H1342 C1352 0.930 . S
H1343 C1355 0.929 . S
H1344 C1358 0.930 . S
H1345 C1360 0.960 . S
H1346 C1360 0.960 1_655 S
H1347 C1360 0.961 . S
C1348 H1340 0.929 . S
C1348 C1349 1.377 . S
C1348 C1350 1.384 . S
C1349 C1348 1.377 . S
C1349 C1355 1.390 . S
C1350 H1341 0.930 . S
C1350 C1348 1.384 . S
C1350 C1351 1.372 . S
C1351 C1350 1.372 . S
C1351 C1352 1.400 . S
C1351 C1356 1.490 . S
C1352 H1342 0.930 . S
C1352 C1351 1.400 . S
C1352 C1355 1.386 . S
H1353 C1369 0.930 . S
H1354 C1370 0.931 . S
C1355 H1343 0.929 . S
C1355 C1349 1.390 . S
C1355 C1352 1.386 . S
C1356 C1351 1.490 . S
C1356 C1358 1.395 . S
C1356 C1359 1.403 1_655 S
H1357 C1363 0.930 . S
C1358 H1344 0.930 . S
C1358 C1356 1.395 . S
C1358 C1361 1.403 . S
C1359 C1356 1.403 1_455 S
C1359 C1360 1.524 . S
C1359 C1363 1.400 . S
C1360 H1345 0.960 . S
C1360 H1346 0.960 1_455 S
C1360 H1347 0.961 . S
C1360 C1359 1.524 . S
C1361 C1358 1.403 . S
C1361 C1362 1.392 1_655 S
C1361 C1365 1.495 . S
C1362 C1361 1.392 1_455 S
C1362 C1363 1.385 . S
C1362 C1364 1.478 . S
C1363 H1357 0.930 . S
C1363 C1359 1.400 . S
C1363 C1362 1.385 . S
C1364 C1362 1.478 . S
C1364 C1366 1.381 . S
C1364 C1370 1.383 . S
C1365 C1361 1.495 . S
C1365 H1371 0.959 . S
C1365 H1372 0.961 . S
C1365 H1373 0.960 . S
C1366 C1364 1.381 . S
C1366 C1367 1.394 . S
C1366 H1374 0.930 . S
C1367 C1366 1.394 . S
C1367 C1368 1.383 . S
C1367 H1375 0.929 . S
C1368 C1367 1.383 . S
C1368 C1369 1.377 . S
C1369 H1353 0.930 . S
C1369 C1368 1.377 . S
C1369 C1370 1.379 . S
C1370 H1354 0.931 . S
C1370 C1364 1.383 . S
C1370 C1369 1.379 . S
H1371 C1365 0.959 . S
H1372 C1365 0.961 . S
H1373 C1365 0.960 . S
H1374 C1366 0.930 . S
H1375 C1367 0.929 . S
C233 C7 1.587 . S
C252 C35 1.597 . S
C269 C21 1.588 . S
C288 C49 1.606 . S
C305 C63 1.587 . S
C324 C91 1.594 . S
C341 C105 1.596 . S
C360 C77 1.590 . S
C377 C119 1.588 . S
C396 C147 1.589 . S
C413 C161 1.595 . S
C432 C133 1.567 . S
C449 C203 1.588 . S
C468 C175 1.588 . S
C485 C217 1.587 . S
C504 C189 1.595 . S
C521 C106 1.572 . S
C540 C8 1.571 1_655 S
C557 C22 1.572 1_565 S
C576 C64 1.557 1_655 S
C593 C78 1.559 1_565 S
C612 C36 1.577 . S
C629 C50 1.572 . S
C648 C92 1.575 . S
C665 C218 1.573 . S
C684 C120 1.556 1_455 S
C701 C134 1.572 1_545 S
C720 C176 1.574 . S
C737 C148 1.573 . S
C756 C190 1.595 . S
C773 C204 1.576 . S
C792 C162 1.571 . S
C809 C9 0.676 . S
C828 C65 0.734 . S
C845 C23 0.675 . S
C864 C79 0.751 . S
C881 C93 0.676 . S
C900 C37 0.746 . S
C917 C51 0.665 . S
C936 C107 0.663 . S
C953 C177 0.657 . S
C972 C121 0.708 . S
C989 C191 0.676 . S
C1008 C135 0.595 . S
C1025 C149 0.663 . S
C1044 C205 0.582 . S
C1061 C163 0.640 . S
C1080 C219 0.751 . S
C1097 C6 1.734 . S
C1116 C118 1.720 . S
C1133 C132 1.737 . S
C1152 C20 1.747 . S
C1169 C34 1.738 . S
C1188 C146 1.748 . S
C1205 C160 1.735 . S
C1224 C48 1.718 . S
C1241 C62 1.735 . S
C1260 C174 1.718 . S
C1277 C76 1.737 . S
C1296 C188 1.721 . S
C1313 C202 1.735 . S
C1332 C90 1.741 . S
C1349 C104 1.735 . S
C1368 C216 1.718 . S
