# Generated by pormake.
# Topology vme, (6)-cn, num edge types: 1
# Building blocks:
#     Node 0, Type 0, BuildingBlock: VOLQOD_clean_sbu_1, # of connection points: 6
#     Node 1, Type 0, BuildingBlock: VOLQOD_clean_sbu_1, # of connection points: 6
#     Node 2, Type 0, BuildingBlock: VOLQOD_clean_sbu_1, # of connection points: 6
#     Node 3, Type 0, BuildingBlock: VOLQOD_clean_sbu_1, # of connection points: 6
#     Edge 4, Type (0, 0), BuildingBlock: ZUJKAS_clean_linker_0, # of connection points: 2
#     Edge 5, Type (0, 0), BuildingBlock: ZUJKAS_clean_linker_0, # of connection points: 2
#     Edge 6, Type (0, 0), BuildingBlock: ZUJKAS_clean_linker_0, # of connection points: 2
#     Edge 7, Type (0, 0), BuildingBlock: ZUJKAS_clean_linker_0, # of connection points: 2
#     Edge 8, Type (0, 0), BuildingBlock: ZUJKAS_clean_linker_0, # of connection points: 2
#     Edge 9, Type (0, 0), BuildingBlock: ZUJKAS_clean_linker_0, # of connection points: 2
#     Edge 10, Type (0, 0), BuildingBlock: ZUJKAS_clean_linker_0, # of connection points: 2
#     Edge 11, Type (0, 0), BuildingBlock: ZUJKAS_clean_linker_0, # of connection points: 2
#     Edge 12, Type (0, 0), BuildingBlock: ZUJKAS_clean_linker_0, # of connection points: 2
#     Edge 13, Type (0, 0), BuildingBlock: ZUJKAS_clean_linker_0, # of connection points: 2
#     Edge 14, Type (0, 0), BuildingBlock: ZUJKAS_clean_linker_0, # of connection points: 2
#     Edge 15, Type (0, 0), BuildingBlock: ZUJKAS_clean_linker_0, # of connection points: 2
# Relax obj value: 0.301
# Max RMSD: 0.246
# Mean RMSD: 0.246
data_MOF--net-vme--node1-VOLQOD_clean_sbu_1--edge1-ZUJKAS_clean_linker_0
_symmetry_space_group_name_H-M    P1
_symmetry_Int_Tables_number       1
_symmetry_cell_setting            triclinic
loop_
_symmetry_equiv_pos_as_xyz
'x, y, z'
_cell_length_a     34.149382
_cell_length_b     34.498905
_cell_length_c     37.16401
_cell_angle_alpha  89.911227
_cell_angle_beta   114.9381
_cell_angle_gamma 90.000515
loop_
_atom_site_label
_atom_site_type_symbol
_atom_site_fract_x
_atom_site_fract_y
_atom_site_fract_z
_atom_type_partial_charge
O0 O 0.10585 0.38683 0.38241 0.0
Zn1 Zn 0.12718 0.36606 0.34331 0.0
O2 O 0.19003 0.36559 0.36723 0.0
Zn3 Zn 0.2121 0.3128 0.37149 0.0
Zn4 Zn 0.21179 0.38951 0.4189 0.0
Zn5 Zn 0.20966 0.3966 0.33497 0.0
O6 O 0.24089 0.30521 0.33346 0.0
O7 O 0.22752 0.36194 0.30189 0.0
O8 O 0.10252 0.31218 0.32703 0.0
O9 O 0.16193 0.27598 0.35398 0.0
O10 O 0.24971 0.29778 0.42914 0.0
O11 O 0.24038 0.34961 0.46016 0.0
O12 O 0.25837 0.42812 0.42682 0.0
O13 O 0.10354 0.40444 0.29814 0.0
O14 O 0.26201 0.42763 0.36872 0.0
O15 O 0.16281 0.43275 0.30011 0.0
C16 C 0.1237 0.40684 0.41397 0.0
C17 C 0.24132 0.32719 0.30586 0.0
C18 C 0.25524 0.31568 0.46099 0.0
C19 C 0.12104 0.27921 0.33596 0.0
C20 C 0.27649 0.43855 0.4047 0.0
C21 C 0.12182 0.43103 0.28688 0.0
O22 O 0.16427 0.41278 0.42993 0.0
O23 O 0.87928 0.88253 0.10757 0.0
Zn24 Zn 0.86349 0.86357 0.15072 0.0
O25 O 0.80138 0.86364 0.13327 0.0
Zn26 Zn 0.77986 0.8109 0.13218 0.0
Zn27 Zn 0.77536 0.88704 0.08122 0.0
Zn28 Zn 0.78666 0.89551 0.16856 0.0
O29 O 0.75162 0.80578 0.17089 0.0
O30 O 0.77053 0.86167 0.20362 0.0
O31 O 0.88884 0.81012 0.16698 0.0
O32 O 0.83021 0.77384 0.15156 0.0
O33 O 0.7416 0.79395 0.07518 0.0
O34 O 0.7449 0.84643 0.04173 0.0
O35 O 0.72991 0.92543 0.07667 0.0
O36 O 0.89128 0.90301 0.19372 0.0
O37 O 0.73395 0.92797 0.13771 0.0
O38 O 0.83636 0.93039 0.20141 0.0
C39 C 0.85928 0.90341 0.077 0.0
C40 C 0.7543 0.82783 0.19951 0.0
C41 C 0.73254 0.8118 0.04248 0.0
C42 C 0.87106 0.77713 0.16447 0.0
C43 C 0.71581 0.93762 0.10126 0.0
C44 C 0.87639 0.92885 0.20905 0.0
O45 O 0.81918 0.9107 0.06493 0.0
O46 O 0.88472 0.60919 0.61701 0.0
Zn47 Zn 0.86612 0.62986 0.65787 0.0
O48 O 0.8034 0.63161 0.63644 0.0
Zn49 Zn 0.7828 0.68474 0.63489 0.0
Zn50 Zn 0.77927 0.60907 0.584 0.0
Zn51 Zn 0.78472 0.59995 0.66905 0.0
O52 O 0.75337 0.69071 0.67256 0.0
O53 O 0.76812 0.63376 0.70372 0.0
O54 O 0.89225 0.6832 0.67376 0.0
O55 O 0.834 0.72067 0.65506 0.0
O56 O 0.74587 0.70227 0.5777 0.0
O57 O 0.75065 0.65026 0.54448 0.0
O58 O 0.73232 0.57116 0.57648 0.0
O59 O 0.89068 0.59076 0.70244 0.0
O60 O 0.73156 0.56949 0.63575 0.0
O61 O 0.8318 0.56314 0.70217 0.0
C62 C 0.86532 0.59016 0.58502 0.0
C63 C 0.75367 0.66827 0.70012 0.0
C64 C 0.73801 0.6848 0.54508 0.0
C65 C 0.87489 0.71662 0.66961 0.0
C66 C 0.7155 0.55981 0.59934 0.0
C67 C 0.87267 0.56425 0.71411 0.0
O68 O 0.8246 0.58525 0.57006 0.0
O69 O 0.10374 0.10647 0.87723 0.0
Zn70 Zn 0.12679 0.12798 0.83975 0.0
O71 O 0.18961 0.12899 0.86495 0.0
Zn72 Zn 0.21109 0.18204 0.86882 0.0
Zn73 Zn 0.20964 0.10536 0.91684 0.0
Zn74 Zn 0.21146 0.09779 0.83442 0.0
O75 O 0.24315 0.18895 0.83357 0.0
O76 O 0.2319 0.13205 0.80264 0.0
O77 O 0.1017 0.18171 0.82355 0.0
O78 O 0.16051 0.21862 0.84709 0.0
O79 O 0.2459 0.19787 0.92689 0.0
O80 O 0.2367 0.14565 0.95768 0.0
O81 O 0.25714 0.06716 0.92702 0.0
O82 O 0.10503 0.08975 0.79444 0.0
O83 O 0.26319 0.06685 0.87001 0.0
O84 O 0.16535 0.06156 0.79871 0.0
C85 C 0.12071 0.08672 0.90908 0.0
C86 C 0.24571 0.1668 0.80708 0.0
C87 C 0.25097 0.17984 0.95863 0.0
C88 C 0.1196 0.21499 0.82979 0.0
C89 C 0.27654 0.05644 0.9061 0.0
C90 C 0.12425 0.06314 0.78425 0.0
O91 O 0.16137 0.08148 0.9265 0.0
H92 H 0.86892 0.97663 0.26486 0.0
H93 H 0.91196 0.03462 0.29446 0.0
H94 H 0.9886 0.01324 0.22917 0.0
H95 H 0.9479 0.95434 0.2019 0.0
H96 H 0.0382 0.03834 0.2969 0.0
H97 H 0.89536 0.13529 0.23949 0.0
H98 H 0.89265 0.09972 0.27356 0.0
H99 H 0.89181 0.08466 0.22682 0.0
C100 C 0.89545 0.98409 0.25743 0.0
C101 C 0.905 0.96101 0.23104 0.0
C102 C 0.91967 0.01749 0.27393 0.0
C103 C 0.95273 0.0291 0.26312 0.0
C104 C 0.9632 0.00514 0.23793 0.0
H105 H 0.04894 0.26239 0.26871 0.0
H106 H 0.0086 0.20121 0.25275 0.0
C107 C 0.9399 0.97133 0.22238 0.0
C108 C 0.97621 0.06635 0.27705 0.0
H109 H 0.9623 0.16417 0.27998 0.0
C110 C 0.02153 0.06586 0.29311 0.0
C111 C 0.95455 0.10243 0.27153 0.0
C112 C 0.90594 0.10571 0.25154 0.0
C113 C 0.04573 0.1002 0.30295 0.0
C114 C 0.02418 0.13617 0.29884 0.0
C115 C 0.9789 0.13666 0.28345 0.0
C116 C 0.04784 0.17368 0.30904 0.0
C117 C 0.09391 0.09738 0.3158 0.0
C118 C 0.08271 0.17901 0.34618 0.0
C119 C 0.10654 0.21331 0.35467 0.0
C120 C 0.09484 0.24363 0.32685 0.0
C121 C 0.0586 0.2393 0.29054 0.0
C122 C 0.03556 0.20442 0.28152 0.0
H123 H 0.10274 0.07039 0.30468 0.0
H124 H 0.10632 0.12245 0.30499 0.0
H125 H 0.11044 0.09661 0.34869 0.0
H126 H 0.09177 0.15653 0.3686 0.0
H127 H 0.1339 0.21633 0.38323 0.0
H128 H 0.14968 0.49642 0.26276 0.0
H129 H 0.10795 0.55522 0.23467 0.0
H130 H 0.99282 0.49906 0.22916 0.0
H131 H 0.03402 0.43999 0.25699 0.0
H132 H 0.98166 0.54877 0.16142 0.0
H133 H 0.06824 0.61995 0.30827 0.0
H134 H 0.10157 0.59895 0.28672 0.0
H135 H 0.06889 0.56813 0.3019 0.0
C136 C 0.11531 0.49621 0.25486 0.0
C137 C 0.09535 0.46359 0.26269 0.0
C138 C 0.0916 0.52993 0.23898 0.0
C139 C 0.04759 0.53162 0.23066 0.0
C140 C 0.02687 0.49833 0.23568 0.0
H141 H 0.8451 0.70252 0.16687 0.0
H142 H 0.88879 0.6437 0.18118 0.0
C143 C 0.05053 0.46459 0.25159 0.0
C144 C 0.02387 0.56881 0.21979 0.0
H145 H 0.01675 0.65742 0.25735 0.0
C146 C 0.98936 0.57264 0.18225 0.0
C147 C 0.03408 0.59977 0.24716 0.0
C148 C 0.06998 0.59663 0.28841 0.0
C149 C 0.96478 0.60683 0.17124 0.0
C150 C 0.97448 0.63754 0.19891 0.0
C151 C 0.00942 0.63385 0.23622 0.0
C152 C 0.94807 0.67334 0.19026 0.0
C153 C 0.92899 0.60991 0.12997 0.0
C154 C 0.96724 0.7097 0.19208 0.0
C155 C 0.94246 0.74353 0.18439 0.0
C156 C 0.89801 0.7416 0.17485 0.0
C157 C 0.87915 0.70511 0.17383 0.0
C158 C 0.90399 0.67137 0.18166 0.0
H159 H 0.93395 0.58946 0.10918 0.0
H160 H 0.89782 0.60253 0.13093 0.0
H161 H 0.92655 0.63979 0.11806 0.0
H162 H 0.00134 0.71186 0.19906 0.0
H163 H 0.95805 0.77111 0.18543 0.0
H164 H 0.0364 0.05379 0.75199 0.0
H165 H 0.99632 0.99401 0.72539 0.0
H166 H 0.11342 0.93767 0.73618 0.0
H167 H 0.15402 -0.00281 0.76305 0.0
H168 H 0.98787 0.94182 0.66027 0.0
H169 H 0.07179 0.87588 0.81043 0.0
H170 H 0.07195 0.92742 0.80206 0.0
H171 H 0.10579 0.89591 0.78905 0.0
C172 C 0.05359 0.029 0.74796 0.0
C173 C 0.09861 0.03018 0.76026 0.0
C174 C 0.03057 0.99484 0.73275 0.0
C175 C 0.05214 0.96132 0.72965 0.0
C176 C 0.09639 0.96314 0.73902 0.0
H177 H 0.96244 0.72119 0.69268 0.0
H178 H 0.00646 0.77989 0.70498 0.0
C179 C 0.11947 -0.00271 0.75418 0.0
C180 C 0.02896 0.92384 0.71982 0.0
H181 H 0.02112 0.83705 0.76057 0.0
C182 C 0.99521 0.91879 0.68206 0.0
C183 C 0.03871 0.89395 0.74842 0.0
C184 C 0.07379 0.89844 0.7899 0.0
C185 C 0.97084 0.88447 0.67207 0.0
C186 C 0.97992 0.85492 0.70099 0.0
C187 C 0.01423 0.85975 0.7385 0.0
C188 C 0.95326 0.81938 0.69348 0.0
C189 C 0.93584 0.88007 0.63057 0.0
C190 C 0.909 0.8221 0.68394 0.0
C191 C 0.88378 0.7887 0.6769 0.0
C192 C 0.90239 0.75179 0.67966 0.0
C193 C 0.94703 0.74911 0.69029 0.0
C194 C 0.97223 0.78263 0.69721 0.0
H195 H 0.94154 0.89929 0.60924 0.0
H196 H 0.93359 0.84966 0.62014 0.0
H197 H 0.90433 0.88824 0.63039 0.0
H198 H 0.89393 0.85012 0.68202 0.0
H199 H 0.84959 0.7919 0.66908 0.0
H200 H 0.84439 0.49734 0.73507 0.0
H201 H 0.88596 0.43817 0.76156 0.0
H202 H 0.00168 0.49598 0.77068 0.0
H203 H 0.96054 0.55538 0.74425 0.0
H204 H 0.93106 0.40177 0.72058 0.0
H205 H 0.04 0.43586 0.87716 0.0
H206 H 0.99089 0.46261 0.84942 0.0
H207 H 0.03836 0.47169 0.84137 0.0
C208 C 0.87888 0.49787 0.74359 0.0
C209 C 0.89905 0.53113 0.73725 0.0
C210 C 0.90253 0.46394 0.75864 0.0
C211 C 0.94684 0.46277 0.76815 0.0
C212 C 0.96759 0.49645 0.76399 0.0
H213 H 0.14599 0.28953 0.82837 0.0
H214 H 0.10225 0.34838 0.81288 0.0
C215 C 0.94394 0.53037 0.74875 0.0
C216 C 0.97035 0.42542 0.77819 0.0
H217 H 0.05546 0.37857 0.85008 0.0
C218 C 0.95801 0.39645 0.74902 0.0
C219 C 0.00563 0.41887 0.81516 0.0
C220 C 0.01943 0.44873 0.84778 0.0
C221 C 0.98083 0.36141 0.75541 0.0
C222 C 0.01631 0.35482 0.79238 0.0
C223 C 0.02826 0.38366 0.82176 0.0
C224 C 0.04222 0.31869 0.80083 0.0
C225 C 0.9677 0.33243 0.72196 0.0
C226 C 0.02298 0.28236 0.79919 0.0
C227 C 0.04784 0.24851 0.80762 0.0
C228 C 0.09255 0.25044 0.81844 0.0
C229 C 0.11166 0.28693 0.82013 0.0
C230 C 0.08674 0.32066 0.8114 0.0
H231 H 0.94803 0.34611 0.69277 0.0
H232 H 0.99642 0.31865 0.7206 0.0
H233 H 0.94788 0.30936 0.72694 0.0
H234 H 0.98885 0.2802 0.79196 0.0
H235 H 0.03218 0.22094 0.80648 0.0
H236 H 0.95273 0.59355 0.60902 0.0
H237 H 0.99515 0.56251 0.57818 0.0
H238 H 0.8788 0.51521 0.48699 0.0
H239 H 0.83588 0.54647 0.51727 0.0
H240 H -0.00125 0.48229 0.56508 0.0
H241 H 0.93984 0.5664 0.42436 0.0
H242 H 0.93216 0.58251 0.46715 0.0
H243 H 0.89826 0.54522 0.43565 0.0
C244 C 0.93603 0.57682 0.58222 0.0
C245 C 0.89086 0.57256 0.56556 0.0
C246 C 0.96036 0.55908 0.5647 0.0
C247 C 0.94 0.53699 0.53015 0.0
C248 C 0.89498 0.53275 0.51329 0.0
H249 H 0.0359 0.40233 0.38738 0.0
H250 H 0.9912 0.43253 0.41644 0.0
C251 C 0.87056 0.55048 0.53077 0.0
C252 C 0.96616 0.51712 0.5127 0.0
H253 H 0.98499 0.51251 0.42968 0.0
C254 C 0.99589 0.48893 0.53553 0.0
C255 C 0.96209 0.52586 0.47412 0.0
C256 C 0.93165 0.55687 0.44893 0.0
C257 C 0.02151 0.46886 0.52059 0.0
C258 C 0.01765 0.47777 0.48211 0.0
C259 C 0.98772 0.50579 0.45917 0.0
C260 C 0.04491 0.45878 0.4653 0.0
C261 C 0.05197 0.43789 0.54584 0.0
C262 C 0.08982 0.46384 0.48312 0.0
C263 C 0.11549 0.44662 0.46669 0.0
C264 C 0.09661 0.42422 0.43197 0.0
C265 C 0.05151 0.41929 0.41419 0.0
C266 C 0.02589 0.43655 0.43067 0.0
H267 H 0.0431 0.42776 0.56982 0.0
H268 H 0.05232 0.41259 0.52754 0.0
H269 H 0.08518 0.44989 0.55994 0.0
H270 H 0.10497 0.48153 0.50947 0.0
H271 H 0.15007 0.45119 0.48104 0.0
H272 H 0.94598 0.89857 0.09791 0.0
H273 H 0.987 0.92997 0.06595 0.0
H274 H 0.86951 0.97843 0.97718 0.0
H275 H 0.82801 0.94758 0.00929 0.0
H276 H 0.97948 0.92254 0.98833 0.0
H277 H 0.94739 0.07352 0.0209 0.0
H278 H 0.9368 0.03193 0.04496 0.0
H279 H 0.90018 0.04441 0.99508 0.0
C280 C 0.92872 0.91581 0.07154 0.0
C281 C 0.8837 0.92078 0.05631 0.0
C282 C 0.95227 0.93372 0.05333 0.0
C283 C 0.93133 0.95695 0.01964 0.0
C284 C 0.88631 0.96121 0.00367 0.0
H285 H 0.03269 0.09132 0.87988 0.0
H286 H 0.98584 0.05919 0.90546 0.0
C287 C 0.86267 0.94339 0.02194 0.0
C288 C 0.95692 0.97667 0.00144 0.0
H289 H 0.98695 0.06592 0.98232 0.0
C290 C 0.98112 0.95388 0.98695 0.0
C291 C 0.95887 0.01754 0.99976 0.0
C292 C 0.93475 0.04339 0.01627 0.0
C293 C 0.00728 0.97093 0.97068 0.0
C294 C 0.00966 0.01178 0.96948 0.0
C295 C 0.98498 0.03458 0.9834 0.0
C296 C 0.03817 0.03141 0.95444 0.0
C297 C 0.03184 0.94514 0.95459 0.0
C298 C 0.08309 0.02688 0.97403 0.0
C299 C 0.11002 0.0452 0.95959 0.0
C300 C 0.09241 0.06851 0.92536 0.0
C301 C 0.04734 0.07351 0.90625 0.0
C302 C 0.02048 0.0552 0.92077 0.0
H303 H 0.01836 0.91532 0.94871 0.0
H304 H 0.03138 0.95725 0.92671 0.0
H305 H 0.066 0.94317 0.97669 0.0
H306 H 0.09732 0.00919 0.00054 0.0
H307 H 0.14457 0.04088 0.97514 0.0
H308 H 0.24844 0.25684 0.97603 0.0
H309 H 0.2642 0.28363 0.0419 0.0
H310 H 0.31207 0.17221 0.095 0.0
H311 H 0.29608 0.14534 0.02964 0.0
H312 H 0.24129 0.20013 0.10677 0.0
H313 H 0.37055 0.31108 0.1463 0.0
H314 H 0.32815 0.31486 0.09698 0.0
H315 H 0.36321 0.27338 0.11029 0.0
C316 C 0.26383 0.23854 0.00193 0.0
C317 C 0.27061 0.19896 0.99775 0.0
C318 C 0.27285 0.25384 0.03955 0.0
C319 C 0.28928 0.22983 0.0733 0.0
C320 C 0.2994 0.19119 0.06936 0.0
H321 H 0.27523 0.25533 0.30302 0.0
H322 H 0.29382 0.2302 0.25048 0.0
C323 C 0.29019 0.1759 0.03198 0.0
C324 C 0.28917 0.24274 0.11123 0.0
H325 H 0.33029 0.30961 0.18536 0.0
C326 C 0.26115 0.22376 0.12428 0.0
C327 C 0.31487 0.27369 0.1337 0.0
C328 C 0.3462 0.29433 0.1214 0.0
C329 C 0.25696 0.2357 0.15851 0.0
C330 C 0.28241 0.26691 0.18097 0.0
C331 C 0.31109 0.28547 0.16831 0.0
C332 C 0.27662 0.28288 0.21544 0.0
C333 C 0.22379 0.21593 0.16915 0.0
C334 C 0.26275 0.32127 0.21408 0.0
C335 C 0.25265 0.33578 0.24412 0.0
C336 C 0.25606 0.31217 0.27626 0.0
C337 C 0.27178 0.27414 0.2785 0.0
C338 C 0.28224 0.2597 0.24842 0.0
H339 H 0.20027 0.19888 0.14396 0.0
H340 H 0.24037 0.19569 0.19425 0.0
H341 H 0.20565 0.23742 0.17842 0.0
H342 H 0.25826 0.3397 0.189 0.0
H343 H 0.24095 0.36531 0.24142 0.0
H344 H 0.76243 0.86517 0.2669 0.0
H345 H 0.74359 0.84151 0.3192 0.0
H346 H 0.69301 0.73645 0.25313 0.0
H347 H 0.71295 0.75953 0.20065 0.0
H348 H 0.6682 0.81949 0.32231 0.0
H349 H 0.78264 0.69555 0.35766 0.0
H350 H 0.78206 0.73427 0.32482 0.0
H351 H 0.74202 0.69659 0.30748 0.0
C352 C 0.74715 0.83703 0.26321 0.0
C353 C 0.73974 0.81401 0.22968 0.0
C354 C 0.73621 0.82365 0.29318 0.0
C355 C 0.7175 0.787 0.2904 0.0
C356 C 0.70827 0.76452 0.25626 0.0
H357 H 0.68689 0.65356 0.4739 0.0
H358 H 0.67144 0.68102 0.40876 0.0
C359 C 0.71955 0.7778 0.22624 0.0
C360 C 0.71007 0.77194 0.32442 0.0
H361 H 0.74283 0.70158 0.39564 0.0
C362 C 0.68422 0.79353 0.3382 0.0
C363 C 0.73133 0.73827 0.34532 0.0
C364 C 0.76138 0.71496 0.33339 0.0
C365 C 0.67928 0.78241 0.37247 0.0
C366 C 0.70095 0.74904 0.3935 0.0
C367 C 0.72601 0.72706 0.37925 0.0
C368 C 0.70013 0.73676 0.43141 0.0
C369 C 0.65105 0.80638 0.38596 0.0
C370 C 0.71954 0.75969 0.46567 0.0
C371 C 0.72815 0.7441 0.50312 0.0
C372 C 0.71797 0.70524 0.50664 0.0
C373 C 0.6953 0.68356 0.47203 0.0
C374 C 0.68645 0.69918 0.43479 0.0
H375 H 0.62819 0.82475 0.36156 0.0
H376 H 0.63238 0.78759 0.39736 0.0
H377 H 0.67174 0.82575 0.41039 0.0
H378 H 0.73098 0.78857 0.46379 0.0
H379 H 0.74604 0.76128 0.52933 0.0
H380 H 0.68181 0.84346 0.97117 0.0
H381 H 0.66685 0.81616 0.90617 0.0
H382 H 0.72467 0.70799 0.96138 0.0
H383 H 0.73941 0.73514 0.02679 0.0
H384 H 0.73999 0.79437 0.89509 0.0
H385 H 0.62196 0.67363 0.85747 0.0
H386 H 0.62551 0.71109 0.89269 0.0
H387 H 0.66425 0.67234 0.90699 0.0
C388 C 0.6899 0.81337 0.96937 0.0
C389 C 0.71213 0.7915 0.00404 0.0
C390 C 0.68133 0.79784 0.93219 0.0
C391 C 0.69475 0.76013 0.92894 0.0
C392 C 0.71349 0.73698 0.96318 0.0
H393 H 0.75827 0.63041 0.76624 0.0
H394 H 0.73844 0.65442 0.81775 0.0
C395 C 0.72188 0.7525 0.00056 0.0
C396 C 0.69631 0.74796 0.89136 0.0
H397 H 0.66328 0.67846 0.81945 0.0
C398 C 0.72274 0.76934 0.87818 0.0
C399 C 0.67409 0.71515 0.86971 0.0
C400 C 0.64454 0.69182 0.88215 0.0
C401 C 0.72887 0.75804 0.84471 0.0
C402 C 0.70699 0.72495 0.82313 0.0
C403 C 0.67978 0.70399 0.83584 0.0
C404 C 0.71504 0.7098 0.78951 0.0
C405 C 0.76041 0.78058 0.83403 0.0
C406 C 0.70765 0.73268 0.75591 0.0
C407 C 0.71955 0.7192 0.72638 0.0
C408 C 0.73847 0.68238 0.72973 0.0
C409 C 0.744 0.659 0.76264 0.0
C410 C 0.73249 0.67259 0.79216 0.0
H411 H 0.78184 0.79926 0.85886 0.0
H412 H 0.78089 0.76077 0.82576 0.0
H413 H 0.74225 0.79962 0.80826 0.0
H414 H 0.69335 0.7612 0.75285 0.0
H415 H 0.71439 0.73775 0.70124 0.0
H416 H 0.26693 0.12517 0.75552 0.0
H417 H 0.28509 0.14987 0.70304 0.0
H418 H 0.28085 0.2669 0.74182 0.0
H419 H 0.26205 0.24241 0.79447 0.0
H420 H 0.22797 0.25427 0.66253 0.0
H421 H 0.39229 0.19777 0.69849 0.0
H422 H 0.35521 0.16139 0.6996 0.0
H423 H 0.37008 0.20051 0.73477 0.0
C424 C 0.27055 0.15618 0.75343 0.0
C425 C 0.26267 0.18186 0.77906 0.0
C426 C 0.28139 0.1702 0.72357 0.0
C427 C 0.28483 0.21016 0.7188 0.0
C428 C 0.27868 0.23589 0.74525 0.0
H429 H 0.29882 0.34952 0.53269 0.0
H430 H 0.31373 0.32126 0.59745 0.0
C431 C 0.26796 0.22186 0.77531 0.0
C432 C 0.2893 0.22501 0.68329 0.0
H433 H 0.35214 0.22088 0.63202 0.0
C434 C 0.25535 0.24732 0.65611 0.0
C435 C 0.32488 0.21554 0.67481 0.0
C436 C 0.3629 0.19278 0.70362 0.0
C437 C 0.25558 0.25981 0.62034 0.0
C438 C 0.29084 0.25001 0.61164 0.0
C439 C 0.32507 0.22803 0.63882 0.0
C440 C 0.29234 0.26379 0.57462 0.0
C441 C 0.21786 0.28312 0.59169 0.0
C442 C 0.27739 0.24018 0.54073 0.0
C443 C 0.26897 0.25623 0.50351 0.0
C444 C 0.27503 0.29611 0.49996 0.0
C445 C 0.29354 0.31875 0.53453 0.0
C446 C 0.3022 0.30268 0.57156 0.0
H447 H 0.19077 0.28438 0.60076 0.0
H448 H 0.22858 0.31319 0.59006 0.0
H449 H 0.2058 0.27048 0.56146 0.0
H450 H 0.26942 0.21009 0.54267 0.0
H451 H 0.25448 0.2382 0.47735 0.0
H452 H 0.32983 0.45834 0.36952 0.0
H453 H 0.40478 0.48004 0.40286 0.0
H454 H 0.39386 0.48499 0.51418 0.0
H455 H 0.31883 0.46375 0.48124 0.0
H456 H 0.44086 0.54754 0.50059 0.0
H457 H 0.49731 0.40294 0.4761 0.0
H458 H 0.45966 0.42687 0.43213 0.0
H459 H 0.44258 0.4117 0.46953 0.0
C460 C 0.34304 0.46475 0.40095 0.0
C461 C 0.3185 0.45878 0.42282 0.0
C462 C 0.38595 0.47686 0.41996 0.0
C463 C 0.40494 0.4831 0.46105 0.0
C464 C 0.37976 0.47988 0.48247 0.0
H465 H 0.66308 0.54056 0.63568 0.0
H466 H 0.58801 0.51888 0.60334 0.0
C467 C 0.33687 0.46779 0.46354 0.0
C468 C 0.45162 0.49097 0.48218 0.0
H469 H 0.55084 0.45089 0.50579 0.0
C470 C 0.46497 0.52645 0.50187 0.0
C471 C 0.48278 0.46315 0.48385 0.0
C472 C 0.47003 0.42386 0.46459 0.0
C473 C 0.50893 0.53526 0.5226 0.0
C474 C 0.54009 0.50748 0.52418 0.0
C475 C 0.52673 0.47196 0.50458 0.0
C476 C 0.58678 0.51555 0.54475 0.0
C477 C 0.5217 0.57456 0.54182 0.0
C478 C 0.61137 0.51867 0.52278 0.0
C479 C 0.65429 0.53075 0.54113 0.0
C480 C 0.67331 0.53983 0.58182 0.0
C481 C 0.64936 0.53405 0.60426 0.0
C482 C 0.60638 0.52197 0.58582 0.0
H483 H 0.49432 0.59538 0.53061 0.0
H484 H 0.53255 0.57153 0.57434 0.0
H485 H 0.54885 0.58686 0.53649 0.0
H486 H 0.5968 0.51343 0.49108 0.0
H487 H 0.67188 0.53462 0.523 0.0
H488 H 0.31647 0.03196 0.98323 0.0
H489 H 0.3918 0.01213 0.01891 0.0
H490 H 0.40808 0.0171 0.91009 0.0
H491 H 0.33287 0.03728 0.87403 0.0
H492 H 0.44221 0.95014 0.00763 0.0
H493 H 0.49641 0.09653 0.98539 0.0
H494 H 0.44145 0.0864 0.97733 0.0
H495 H 0.46034 0.07259 0.94079 0.0
C496 C 0.33577 0.02818 0.96666 0.0
C497 C 0.31879 0.03677 0.92584 0.0
C498 C 0.37882 0.01691 0.98716 0.0
C499 C 0.40554 0.01414 0.96722 0.0
C500 C 0.38801 0.01992 0.92605 0.0
H501 H 0.67063 0.96609 0.02646 0.0
H502 H 0.59575 0.98797 0.99718 0.0
C503 C 0.34495 0.03116 0.90548 0.0
C504 C 0.45226 0.00725 0.98981 0.0
H505 H 0.55088 0.04899 0.01469 0.0
C506 C 0.46605 0.97174 0.00945 0.0
C507 C 0.48302 0.03578 0.99224 0.0
C508 C 0.46971 0.07513 0.97314 0.0
C509 C 0.51014 0.96341 0.03043 0.0
C510 C 0.54095 0.99173 0.03234 0.0
C511 C 0.52708 0.02748 0.01323 0.0
C512 C 0.58774 0.98365 0.05175 0.0
C513 C 0.52343 0.92392 0.0492 0.0
C514 C 0.6085 0.9758 0.09255 0.0
C515 C 0.65143 0.96328 0.10949 0.0
C516 C 0.67411 0.95847 0.08579 0.0
C517 C 0.65401 0.96913 0.0455 0.0
C518 C 0.6112 0.98164 0.02867 0.0
H519 H 0.49618 0.90299 0.03822 0.0
H520 H 0.55029 0.91201 0.04319 0.0
H521 H 0.53492 0.92651 0.08183 0.0
H522 H 0.59103 0.978 0.11095 0.0
H523 H 0.66601 0.9555 0.14064 0.0
loop_
_geom_bond_atom_site_label_1
_geom_bond_atom_site_label_2
_geom_bond_distance
_geom_bond_site_symmetry_2
_ccdc_geom_bond_type
O0 Zn1 1.953 . S
O0 C16 1.225 . S
Zn1 O0 1.953 . S
Zn1 O2 1.949 . S
Zn1 O8 1.919 . S
Zn1 O13 1.924 . S
O2 Zn1 1.949 . S
O2 Zn3 1.923 . S
O2 Zn4 1.950 . S
O2 Zn5 1.945 . S
Zn3 O2 1.923 . S
Zn3 O6 1.933 . S
Zn3 O9 1.941 . S
Zn3 O10 1.965 . S
Zn4 O2 1.950 . S
Zn4 O11 1.938 . S
Zn4 O12 1.906 . S
Zn4 O22 1.953 . S
Zn5 O2 1.945 . S
Zn5 O7 1.932 . S
Zn5 O14 1.977 . S
Zn5 O15 1.910 . S
O6 Zn3 1.933 . S
O6 C17 1.226 . S
O7 Zn5 1.932 . S
O7 C17 1.307 . S
O8 Zn1 1.919 . S
O8 C19 1.253 . S
O9 Zn3 1.941 . S
O9 C19 1.283 . S
O10 Zn3 1.965 . S
O10 C18 1.303 . S
O11 Zn4 1.938 . S
O11 C18 1.247 . S
O12 Zn4 1.906 . S
O12 C20 1.304 . S
O13 Zn1 1.924 . S
O13 C21 1.311 . S
O14 Zn5 1.977 . S
O14 C20 1.272 . S
O15 Zn5 1.910 . S
O15 C21 1.231 . S
C16 O0 1.225 . S
C16 O22 1.298 . S
C17 O6 1.226 . S
C17 O7 1.307 . S
C18 O10 1.303 . S
C18 O11 1.247 . S
C19 O8 1.253 . S
C19 O9 1.283 . S
C20 O12 1.304 . S
C20 O14 1.272 . S
C21 O13 1.311 . S
C21 O15 1.231 . S
O22 Zn4 1.953 . S
O22 C16 1.298 . S
O23 Zn24 1.953 . S
O23 C39 1.225 . S
Zn24 O23 1.953 . S
Zn24 O25 1.949 . S
Zn24 O31 1.919 . S
Zn24 O36 1.924 . S
O25 Zn24 1.949 . S
O25 Zn26 1.923 . S
O25 Zn27 1.950 . S
O25 Zn28 1.945 . S
Zn26 O25 1.923 . S
Zn26 O29 1.933 . S
Zn26 O32 1.941 . S
Zn26 O33 1.965 . S
Zn27 O25 1.950 . S
Zn27 O34 1.938 . S
Zn27 O35 1.906 . S
Zn27 O45 1.953 . S
Zn28 O25 1.945 . S
Zn28 O30 1.932 . S
Zn28 O37 1.977 . S
Zn28 O38 1.910 . S
O29 Zn26 1.933 . S
O29 C40 1.226 . S
O30 Zn28 1.932 . S
O30 C40 1.307 . S
O31 Zn24 1.919 . S
O31 C42 1.253 . S
O32 Zn26 1.941 . S
O32 C42 1.283 . S
O33 Zn26 1.965 . S
O33 C41 1.303 . S
O34 Zn27 1.938 . S
O34 C41 1.247 . S
O35 Zn27 1.906 . S
O35 C43 1.304 . S
O36 Zn24 1.924 . S
O36 C44 1.311 . S
O37 Zn28 1.977 . S
O37 C43 1.272 . S
O38 Zn28 1.910 . S
O38 C44 1.231 . S
C39 O23 1.225 . S
C39 O45 1.298 . S
C40 O29 1.226 . S
C40 O30 1.307 . S
C41 O33 1.303 . S
C41 O34 1.247 . S
C42 O31 1.253 . S
C42 O32 1.283 . S
C43 O35 1.304 . S
C43 O37 1.272 . S
C44 O36 1.311 . S
C44 O38 1.231 . S
O45 Zn27 1.953 . S
O45 C39 1.298 . S
O46 Zn47 1.953 . S
O46 C62 1.225 . S
Zn47 O46 1.953 . S
Zn47 O48 1.949 . S
Zn47 O54 1.919 . S
Zn47 O59 1.924 . S
O48 Zn47 1.949 . S
O48 Zn49 1.923 . S
O48 Zn50 1.950 . S
O48 Zn51 1.945 . S
Zn49 O48 1.923 . S
Zn49 O52 1.933 . S
Zn49 O55 1.941 . S
Zn49 O56 1.965 . S
Zn50 O48 1.950 . S
Zn50 O57 1.938 . S
Zn50 O58 1.906 . S
Zn50 O68 1.953 . S
Zn51 O48 1.945 . S
Zn51 O53 1.932 . S
Zn51 O60 1.977 . S
Zn51 O61 1.910 . S
O52 Zn49 1.933 . S
O52 C63 1.226 . S
O53 Zn51 1.932 . S
O53 C63 1.307 . S
O54 Zn47 1.919 . S
O54 C65 1.253 . S
O55 Zn49 1.941 . S
O55 C65 1.283 . S
O56 Zn49 1.965 . S
O56 C64 1.303 . S
O57 Zn50 1.938 . S
O57 C64 1.247 . S
O58 Zn50 1.906 . S
O58 C66 1.304 . S
O59 Zn47 1.924 . S
O59 C67 1.311 . S
O60 Zn51 1.977 . S
O60 C66 1.272 . S
O61 Zn51 1.910 . S
O61 C67 1.231 . S
C62 O46 1.225 . S
C62 O68 1.298 . S
C63 O52 1.226 . S
C63 O53 1.307 . S
C64 O56 1.303 . S
C64 O57 1.247 . S
C65 O54 1.253 . S
C65 O55 1.283 . S
C66 O58 1.304 . S
C66 O60 1.272 . S
C67 O59 1.311 . S
C67 O61 1.231 . S
O68 Zn50 1.953 . S
O68 C62 1.298 . S
O69 Zn70 1.953 . S
O69 C85 1.225 . S
Zn70 O69 1.953 . S
Zn70 O71 1.949 . S
Zn70 O77 1.919 . S
Zn70 O82 1.924 . S
O71 Zn70 1.949 . S
O71 Zn72 1.923 . S
O71 Zn73 1.950 . S
O71 Zn74 1.945 . S
Zn72 O71 1.923 . S
Zn72 O75 1.933 . S
Zn72 O78 1.941 . S
Zn72 O79 1.965 . S
Zn73 O71 1.950 . S
Zn73 O80 1.938 . S
Zn73 O81 1.906 . S
Zn73 O91 1.953 . S
Zn74 O71 1.945 . S
Zn74 O76 1.932 . S
Zn74 O83 1.977 . S
Zn74 O84 1.910 . S
O75 Zn72 1.933 . S
O75 C86 1.226 . S
O76 Zn74 1.932 . S
O76 C86 1.307 . S
O77 Zn70 1.919 . S
O77 C88 1.253 . S
O78 Zn72 1.941 . S
O78 C88 1.283 . S
O79 Zn72 1.965 . S
O79 C87 1.303 . S
O80 Zn73 1.938 . S
O80 C87 1.247 . S
O81 Zn73 1.906 . S
O81 C89 1.304 . S
O82 Zn70 1.924 . S
O82 C90 1.311 . S
O83 Zn74 1.977 . S
O83 C89 1.272 . S
O84 Zn74 1.910 . S
O84 C90 1.231 . S
C85 O69 1.225 . S
C85 O91 1.298 . S
C86 O75 1.226 . S
C86 O76 1.307 . S
C87 O79 1.303 . S
C87 O80 1.247 . S
C88 O77 1.253 . S
C88 O78 1.283 . S
C89 O81 1.304 . S
C89 O83 1.272 . S
C90 O82 1.311 . S
C90 O84 1.231 . S
O91 Zn73 1.953 . S
O91 C85 1.298 . S
H92 C100 0.929 1_565 S
H93 C102 0.930 . S
H94 C104 0.930 . S
H95 C107 0.929 . S
H96 C110 0.930 . S
H97 C112 0.960 . S
H98 C112 0.960 . S
H99 C112 0.960 . S
C100 H92 0.929 1_545 S
C100 C101 1.375 1_545 S
C100 C102 1.384 . S
C101 C100 1.375 1_565 S
C101 C107 1.378 1_565 S
C102 H93 0.930 . S
C102 C100 1.384 . S
C102 C103 1.372 . S
C103 C102 1.372 . S
C103 C104 1.400 . S
C103 C108 1.490 . S
C104 H94 0.930 . S
C104 C103 1.400 . S
C104 C107 1.386 . S
H105 C121 0.930 . S
H106 C122 0.931 . S
C107 H95 0.929 . S
C107 C101 1.378 1_545 S
C107 C104 1.386 . S
C108 C103 1.490 . S
C108 C110 1.395 1_655 S
C108 C111 1.403 . S
H109 C115 0.930 . S
C110 H96 0.930 . S
C110 C108 1.395 1_455 S
C110 C113 1.403 . S
C111 C108 1.403 . S
C111 C112 1.524 . S
C111 C115 1.400 . S
C112 H97 0.960 . S
C112 H98 0.960 . S
C112 H99 0.960 . S
C112 C111 1.524 . S
C113 C110 1.403 . S
C113 C114 1.392 . S
C113 C117 1.495 . S
C114 C113 1.392 . S
C114 C115 1.385 1_455 S
C114 C116 1.478 . S
C115 H109 0.930 . S
C115 C111 1.400 . S
C115 C114 1.385 1_655 S
C116 C114 1.478 . S
C116 C118 1.381 . S
C116 C122 1.383 . S
C117 C113 1.495 . S
C117 H123 0.959 . S
C117 H124 0.961 . S
C117 H125 0.960 . S
C118 C116 1.381 . S
C118 C119 1.394 . S
C118 H126 0.930 . S
C119 C118 1.394 . S
C119 C120 1.383 . S
C119 H127 0.929 . S
C120 C119 1.383 . S
C120 C121 1.377 . S
C121 H105 0.930 . S
C121 C120 1.377 . S
C121 C122 1.379 . S
C122 H106 0.931 . S
C122 C116 1.383 . S
C122 C121 1.379 . S
H123 C117 0.959 . S
H124 C117 0.961 . S
H125 C117 0.960 . S
H126 C118 0.930 . S
H127 C119 0.929 . S
H128 C136 0.929 . S
H129 C138 0.930 . S
H130 C140 0.930 . S
H131 C143 0.929 . S
H132 C146 0.930 1_655 S
H133 C148 0.960 . S
H134 C148 0.960 . S
H135 C148 0.960 . S
C136 H128 0.929 . S
C136 C137 1.377 . S
C136 C138 1.384 . S
C137 C136 1.377 . S
C137 C143 1.390 . S
C138 H129 0.930 . S
C138 C136 1.384 . S
C138 C139 1.372 . S
C139 C138 1.372 . S
C139 C140 1.400 . S
C139 C144 1.490 . S
C140 H130 0.930 . S
C140 C139 1.400 . S
C140 C143 1.386 . S
H141 C157 0.930 . S
H142 C158 0.931 . S
C143 H131 0.929 . S
C143 C137 1.390 . S
C143 C140 1.386 . S
C144 C139 1.490 . S
C144 C146 1.395 . S
C144 C147 1.403 . S
H145 C151 0.930 . S
C146 H132 0.930 1_455 S
C146 C144 1.395 . S
C146 C149 1.403 1_455 S
C147 C144 1.403 . S
C147 C148 1.524 . S
C147 C151 1.400 . S
C148 H133 0.960 . S
C148 H134 0.960 . S
C148 H135 0.960 . S
C148 C147 1.524 . S
C149 C146 1.403 1_655 S
C149 C150 1.392 . S
C149 C153 1.495 . S
C150 C149 1.392 . S
C150 C151 1.385 1_655 S
C150 C152 1.478 . S
C151 H145 0.930 . S
C151 C147 1.400 . S
C151 C150 1.385 1_455 S
C152 C150 1.478 . S
C152 C154 1.381 . S
C152 C158 1.383 . S
C153 C149 1.495 . S
C153 H159 0.959 . S
C153 H160 0.961 . S
C153 H161 0.960 . S
C154 C152 1.381 . S
C154 C155 1.394 . S
C154 H162 0.930 . S
C155 C154 1.394 . S
C155 C156 1.383 . S
C155 H163 0.929 . S
C156 C155 1.383 . S
C156 C157 1.377 . S
C157 H141 0.930 . S
C157 C156 1.377 . S
C157 C158 1.379 . S
C158 H142 0.931 . S
C158 C152 1.383 . S
C158 C157 1.379 . S
H159 C153 0.959 . S
H160 C153 0.961 . S
H161 C153 0.960 . S
H162 C154 0.930 . S
H163 C155 0.929 . S
H164 C172 0.929 1_545 S
H165 C174 0.930 . S
H166 C176 0.930 . S
H167 C179 0.929 . S
H168 C182 0.930 . S
H169 C184 0.960 . S
H170 C184 0.960 . S
H171 C184 0.960 . S
C172 H164 0.929 1_565 S
C172 C173 1.374 1_565 S
C172 C174 1.384 . S
C173 C172 1.374 1_545 S
C173 C179 1.383 1_545 S
C174 H165 0.930 . S
C174 C172 1.384 . S
C174 C175 1.372 . S
C175 C174 1.372 . S
C175 C176 1.400 . S
C175 C180 1.490 . S
C176 H166 0.930 . S
C176 C175 1.400 . S
C176 C179 1.386 . S
H177 C193 0.930 . S
H178 C194 0.931 . S
C179 H167 0.929 . S
C179 C173 1.383 1_565 S
C179 C176 1.386 . S
C180 C175 1.490 . S
C180 C182 1.395 1_455 S
C180 C183 1.403 . S
H181 C187 0.930 . S
C182 H168 0.930 . S
C182 C180 1.395 1_655 S
C182 C185 1.403 . S
C183 C180 1.403 . S
C183 C184 1.524 . S
C183 C187 1.400 . S
C184 H169 0.960 . S
C184 H170 0.960 . S
C184 H171 0.960 . S
C184 C183 1.524 . S
C185 C182 1.403 . S
C185 C186 1.392 . S
C185 C189 1.495 . S
C186 C185 1.392 . S
C186 C187 1.385 1_655 S
C186 C188 1.478 . S
C187 H181 0.930 . S
C187 C183 1.400 . S
C187 C186 1.385 1_455 S
C188 C186 1.478 . S
C188 C190 1.381 . S
C188 C194 1.383 . S
C189 C185 1.495 . S
C189 H195 0.959 . S
C189 H196 0.961 . S
C189 H197 0.960 . S
C190 C188 1.381 . S
C190 C191 1.394 . S
C190 H198 0.930 . S
C191 C190 1.394 . S
C191 C192 1.383 . S
C191 H199 0.929 . S
C192 C191 1.383 . S
C192 C193 1.377 . S
C193 H177 0.930 . S
C193 C192 1.377 . S
C193 C194 1.379 . S
C194 H178 0.931 . S
C194 C188 1.383 . S
C194 C193 1.379 . S
H195 C189 0.959 . S
H196 C189 0.961 . S
H197 C189 0.960 . S
H198 C190 0.930 . S
H199 C191 0.929 . S
H200 C208 0.929 . S
H201 C210 0.930 . S
H202 C212 0.930 . S
H203 C215 0.929 . S
H204 C218 0.930 . S
H205 C220 0.960 . S
H206 C220 0.960 . S
H207 C220 0.960 . S
C208 H200 0.929 . S
C208 C209 1.377 . S
C208 C210 1.384 . S
C209 C208 1.377 . S
C209 C215 1.390 . S
C210 H201 0.930 . S
C210 C208 1.384 . S
C210 C211 1.372 . S
C211 C210 1.372 . S
C211 C212 1.400 . S
C211 C216 1.490 . S
C212 H202 0.930 . S
C212 C211 1.400 . S
C212 C215 1.386 . S
H213 C229 0.930 . S
H214 C230 0.931 . S
C215 H203 0.929 . S
C215 C209 1.390 . S
C215 C212 1.386 . S
C216 C211 1.490 . S
C216 C218 1.395 . S
C216 C219 1.392 1_655 S
H217 C223 0.930 . S
C218 H204 0.930 . S
C218 C216 1.395 . S
C218 C221 1.403 . S
C219 C216 1.392 1_455 S
C219 C220 1.529 . S
C219 C223 1.405 . S
C220 H205 0.960 . S
C220 H206 0.960 . S
C220 H207 0.960 . S
C220 C219 1.529 . S
C221 C218 1.403 . S
C221 C222 1.392 . S
C221 C225 1.495 . S
C222 C221 1.392 . S
C222 C223 1.385 1_655 S
C222 C224 1.478 1_655 S
C223 H217 0.930 . S
C223 C219 1.405 . S
C223 C222 1.385 1_455 S
C224 C222 1.478 1_455 S
C224 C226 1.381 . S
C224 C230 1.383 . S
C225 C221 1.495 . S
C225 H231 0.959 . S
C225 H232 0.961 . S
C225 H233 0.960 . S
C226 C224 1.381 . S
C226 C227 1.394 . S
C226 H234 0.930 1_455 S
C227 C226 1.394 . S
C227 C228 1.383 . S
C227 H235 0.929 . S
C228 C227 1.383 . S
C228 C229 1.377 . S
C229 H213 0.930 . S
C229 C228 1.377 . S
C229 C230 1.379 . S
C230 H214 0.931 . S
C230 C224 1.383 . S
C230 C229 1.379 . S
H231 C225 0.959 . S
H232 C225 0.961 . S
H233 C225 0.960 . S
H234 C226 0.930 1_655 S
H235 C227 0.929 . S
H236 C244 0.929 . S
H237 C246 0.930 . S
H238 C248 0.930 . S
H239 C251 0.929 . S
H240 C254 0.930 . S
H241 C256 0.960 . S
H242 C256 0.960 . S
H243 C256 0.960 . S
C244 H236 0.929 . S
C244 C245 1.377 . S
C244 C246 1.384 . S
C245 C244 1.377 . S
C245 C251 1.390 . S
C246 H237 0.930 . S
C246 C244 1.384 . S
C246 C247 1.372 . S
C247 C246 1.372 . S
C247 C248 1.400 . S
C247 C252 1.490 . S
C248 H238 0.930 . S
C248 C247 1.400 . S
C248 C251 1.386 . S
H249 C265 0.930 . S
H250 C266 0.931 . S
C251 H239 0.929 . S
C251 C245 1.390 . S
C251 C248 1.386 . S
C252 C247 1.490 . S
C252 C254 1.395 1_655 S
C252 C255 1.403 . S
H253 C259 0.930 . S
C254 H240 0.930 . S
C254 C252 1.395 1_455 S
C254 C257 1.403 . S
C255 C252 1.403 . S
C255 C256 1.524 . S
C255 C259 1.400 . S
C256 H241 0.960 . S
C256 H242 0.960 . S
C256 H243 0.960 . S
C256 C255 1.524 . S
C257 C254 1.403 . S
C257 C258 1.392 . S
C257 C261 1.495 . S
C258 C257 1.392 . S
C258 C259 1.385 1_455 S
C258 C260 1.478 . S
C259 H253 0.930 . S
C259 C255 1.400 . S
C259 C258 1.385 1_655 S
C260 C258 1.478 . S
C260 C262 1.381 . S
C260 C266 1.383 . S
C261 C257 1.495 . S
C261 H267 0.959 . S
C261 H268 0.961 . S
C261 H269 0.960 . S
C262 C260 1.381 . S
C262 C263 1.394 . S
C262 H270 0.930 . S
C263 C262 1.394 . S
C263 C264 1.383 . S
C263 H271 0.929 . S
C264 C263 1.383 . S
C264 C265 1.377 . S
C265 H249 0.930 . S
C265 C264 1.377 . S
C265 C266 1.379 . S
C266 H250 0.931 . S
C266 C260 1.383 . S
C266 C265 1.379 . S
H267 C261 0.959 . S
H268 C261 0.961 . S
H269 C261 0.960 . S
H270 C262 0.930 . S
H271 C263 0.929 . S
H272 C280 0.929 . S
H273 C282 0.930 . S
H274 C284 0.930 . S
H275 C287 0.929 1_556 S
H276 C290 0.930 . S
H277 C292 0.960 . S
H278 C292 0.960 . S
H279 C292 0.960 . S
C280 H272 0.929 . S
C280 C281 1.377 . S
C280 C282 1.384 . S
C281 C280 1.377 . S
C281 C287 1.390 . S
C282 H273 0.930 . S
C282 C280 1.384 . S
C282 C283 1.372 . S
C283 C282 1.372 . S
C283 C284 1.400 1_554 S
C283 C288 1.490 . S
C284 H274 0.930 . S
C284 C283 1.400 1_556 S
C284 C287 1.386 1_556 S
H285 C301 0.930 . S
H286 C302 0.931 . S
C287 H275 0.929 1_554 S
C287 C281 1.390 . S
C287 C284 1.386 1_554 S
C288 C283 1.490 . S
C288 C290 1.395 1_655 S
C288 C291 1.403 1_564 S
H289 C295 0.930 . S
C290 H276 0.930 . S
C290 C288 1.395 1_455 S
C290 C293 1.403 . S
C291 C288 1.403 1_546 S
C291 C292 1.524 . S
C291 C295 1.400 . S
C292 H277 0.960 . S
C292 H278 0.960 . S
C292 H279 0.960 . S
C292 C291 1.524 . S
C293 C290 1.403 . S
C293 C294 1.392 1_564 S
C293 C297 1.495 . S
C294 C293 1.392 1_546 S
C294 C295 1.385 1_455 S
C294 C296 1.478 . S
C295 H289 0.930 . S
C295 C291 1.400 . S
C295 C294 1.385 1_655 S
C296 C294 1.478 . S
C296 C298 1.381 1_556 S
C296 C302 1.383 . S
C297 C293 1.495 . S
C297 H303 0.959 . S
C297 H304 0.961 . S
C297 H305 0.960 . S
C298 C296 1.381 1_554 S
C298 C299 1.375 1_554 S
C298 H306 0.930 . S
C299 C298 1.375 1_556 S
C299 C300 1.414 . S
C299 H307 0.918 1_556 S
C300 C299 1.414 . S
C300 C301 1.377 . S
C301 H285 0.930 . S
C301 C300 1.377 . S
C301 C302 1.379 . S
C302 H286 0.931 . S
C302 C296 1.383 . S
C302 C301 1.379 . S
H303 C297 0.959 . S
H304 C297 0.961 . S
H305 C297 0.960 . S
H306 C298 0.930 . S
H307 C299 0.918 1_554 S
H308 C316 0.929 1_556 S
H309 C318 0.930 . S
H310 C320 0.930 . S
H311 C323 0.929 . S
H312 C326 0.930 . S
H313 C328 0.960 . S
H314 C328 0.960 . S
H315 C328 0.960 . S
C316 H308 0.929 1_554 S
C316 C317 1.377 . S
C316 C318 1.384 . S
C317 C316 1.377 . S
C317 C323 1.390 . S
C318 H309 0.930 . S
C318 C316 1.384 . S
C318 C319 1.372 . S
C319 C318 1.372 . S
C319 C320 1.400 . S
C319 C324 1.490 . S
C320 H310 0.930 . S
C320 C319 1.400 . S
C320 C323 1.386 . S
H321 C337 0.930 . S
H322 C338 0.931 . S
C323 H311 0.929 . S
C323 C317 1.390 . S
C323 C320 1.386 . S
C324 C319 1.490 . S
C324 C326 1.395 . S
C324 C327 1.403 . S
H325 C331 0.930 . S
C326 H312 0.930 . S
C326 C324 1.395 . S
C326 C329 1.403 . S
C327 C324 1.403 . S
C327 C328 1.524 . S
C327 C331 1.400 . S
C328 H313 0.960 . S
C328 H314 0.960 . S
C328 H315 0.960 . S
C328 C327 1.524 . S
C329 C326 1.403 . S
C329 C330 1.392 . S
C329 C333 1.495 . S
C330 C329 1.392 . S
C330 C331 1.385 . S
C330 C332 1.478 . S
C331 H325 0.930 . S
C331 C327 1.400 . S
C331 C330 1.385 . S
C332 C330 1.478 . S
C332 C334 1.381 . S
C332 C338 1.383 . S
C333 C329 1.495 . S
C333 H339 0.959 . S
C333 H340 0.961 . S
C333 H341 0.960 . S
C334 C332 1.381 . S
C334 C335 1.394 . S
C334 H342 0.930 . S
C335 C334 1.394 . S
C335 C336 1.383 . S
C335 H343 0.929 . S
C336 C335 1.383 . S
C336 C337 1.377 . S
C337 H321 0.930 . S
C337 C336 1.377 . S
C337 C338 1.379 . S
C338 H322 0.931 . S
C338 C332 1.383 . S
C338 C337 1.379 . S
H339 C333 0.959 . S
H340 C333 0.961 . S
H341 C333 0.960 . S
H342 C334 0.930 . S
H343 C335 0.929 . S
H344 C352 0.929 . S
H345 C354 0.930 . S
H346 C356 0.930 . S
H347 C359 0.929 . S
H348 C362 0.930 . S
H349 C364 0.960 . S
H350 C364 0.960 . S
H351 C364 0.960 . S
C352 H344 0.929 . S
C352 C353 1.377 . S
C352 C354 1.384 . S
C353 C352 1.377 . S
C353 C359 1.390 . S
C354 H345 0.930 . S
C354 C352 1.384 . S
C354 C355 1.372 . S
C355 C354 1.372 . S
C355 C356 1.400 . S
C355 C360 1.490 . S
C356 H346 0.930 . S
C356 C355 1.400 . S
C356 C359 1.386 . S
H357 C373 0.930 . S
H358 C374 0.931 . S
C359 H347 0.929 . S
C359 C353 1.390 . S
C359 C356 1.386 . S
C360 C355 1.490 . S
C360 C362 1.395 . S
C360 C363 1.403 . S
H361 C367 0.930 . S
C362 H348 0.930 . S
C362 C360 1.395 . S
C362 C365 1.403 . S
C363 C360 1.403 . S
C363 C364 1.524 . S
C363 C367 1.400 . S
C364 H349 0.960 . S
C364 H350 0.960 . S
C364 H351 0.960 . S
C364 C363 1.524 . S
C365 C362 1.403 . S
C365 C366 1.392 . S
C365 C369 1.495 . S
C366 C365 1.392 . S
C366 C367 1.385 . S
C366 C368 1.478 . S
C367 H361 0.930 . S
C367 C363 1.400 . S
C367 C366 1.385 . S
C368 C366 1.478 . S
C368 C370 1.381 . S
C368 C374 1.383 . S
C369 C365 1.495 . S
C369 H375 0.959 . S
C369 H376 0.961 . S
C369 H377 0.960 . S
C370 C368 1.381 . S
C370 C371 1.394 . S
C370 H378 0.930 . S
C371 C370 1.394 . S
C371 C372 1.383 . S
C371 H379 0.929 . S
C372 C371 1.383 . S
C372 C373 1.377 . S
C373 H357 0.930 . S
C373 C372 1.377 . S
C373 C374 1.379 . S
C374 H358 0.931 . S
C374 C368 1.383 . S
C374 C373 1.379 . S
H375 C369 0.959 . S
H376 C369 0.961 . S
H377 C369 0.960 . S
H378 C370 0.930 . S
H379 C371 0.929 . S
H380 C388 0.929 . S
H381 C390 0.930 . S
H382 C392 0.930 . S
H383 C395 0.929 1_554 S
H384 C398 0.930 . S
H385 C400 0.960 . S
H386 C400 0.960 . S
H387 C400 0.960 . S
C388 H380 0.929 . S
C388 C389 1.377 . S
C388 C390 1.384 . S
C389 C388 1.377 . S
C389 C395 1.390 . S
C390 H381 0.930 . S
C390 C388 1.384 . S
C390 C391 1.372 . S
C391 C390 1.372 . S
C391 C392 1.400 . S
C391 C396 1.490 . S
C392 H382 0.930 . S
C392 C391 1.400 . S
C392 C395 1.386 . S
H393 C409 0.930 . S
H394 C410 0.931 . S
C395 H383 0.929 1_556 S
C395 C389 1.390 . S
C395 C392 1.386 . S
C396 C391 1.490 . S
C396 C398 1.395 . S
C396 C399 1.403 . S
H397 C403 0.930 . S
C398 H384 0.930 . S
C398 C396 1.395 . S
C398 C401 1.403 . S
C399 C396 1.403 . S
C399 C400 1.524 . S
C399 C403 1.400 . S
C400 H385 0.960 . S
C400 H386 0.960 . S
C400 H387 0.960 . S
C400 C399 1.524 . S
C401 C398 1.403 . S
C401 C402 1.392 . S
C401 C405 1.495 . S
C402 C401 1.392 . S
C402 C403 1.385 . S
C402 C404 1.478 . S
C403 H397 0.930 . S
C403 C399 1.400 . S
C403 C402 1.385 . S
C404 C402 1.478 . S
C404 C406 1.381 . S
C404 C410 1.383 . S
C405 C401 1.495 . S
C405 H411 0.959 . S
C405 H412 0.961 . S
C405 H413 0.960 . S
C406 C404 1.381 . S
C406 C407 1.394 . S
C406 H414 0.930 . S
C407 C406 1.394 . S
C407 C408 1.383 . S
C407 H415 0.929 . S
C408 C407 1.383 . S
C408 C409 1.377 . S
C409 H393 0.930 . S
C409 C408 1.377 . S
C409 C410 1.379 . S
C410 H394 0.931 . S
C410 C404 1.383 . S
C410 C409 1.379 . S
H411 C405 0.959 . S
H412 C405 0.961 . S
H413 C405 0.960 . S
H414 C406 0.930 . S
H415 C407 0.929 . S
H416 C424 0.929 . S
H417 C426 0.930 . S
H418 C428 0.930 . S
H419 C431 0.929 . S
H420 C434 0.930 . S
H421 C436 0.960 . S
H422 C436 0.960 . S
H423 C436 0.960 . S
C424 H416 0.929 . S
C424 C425 1.377 . S
C424 C426 1.384 . S
C425 C424 1.377 . S
C425 C431 1.390 . S
C426 H417 0.930 . S
C426 C424 1.384 . S
C426 C427 1.372 . S
C427 C426 1.372 . S
C427 C428 1.400 . S
C427 C432 1.490 . S
C428 H418 0.930 . S
C428 C427 1.400 . S
C428 C431 1.386 . S
H429 C445 0.930 . S
H430 C446 0.931 . S
C431 H419 0.929 . S
C431 C425 1.390 . S
C431 C428 1.386 . S
C432 C427 1.490 . S
C432 C434 1.395 . S
C432 C435 1.403 . S
H433 C439 0.930 . S
C434 H420 0.930 . S
C434 C432 1.395 . S
C434 C437 1.403 . S
C435 C432 1.403 . S
C435 C436 1.524 . S
C435 C439 1.400 . S
C436 H421 0.960 . S
C436 H422 0.960 . S
C436 H423 0.960 . S
C436 C435 1.524 . S
C437 C434 1.403 . S
C437 C438 1.392 . S
C437 C441 1.495 . S
C438 C437 1.392 . S
C438 C439 1.385 . S
C438 C440 1.478 . S
C439 H433 0.930 . S
C439 C435 1.400 . S
C439 C438 1.385 . S
C440 C438 1.478 . S
C440 C442 1.381 . S
C440 C446 1.383 . S
C441 C437 1.495 . S
C441 H447 0.959 . S
C441 H448 0.961 . S
C441 H449 0.960 . S
C442 C440 1.381 . S
C442 C443 1.394 . S
C442 H450 0.930 . S
C443 C442 1.394 . S
C443 C444 1.383 . S
C443 H451 0.929 . S
C444 C443 1.383 . S
C444 C445 1.377 . S
C445 H429 0.930 . S
C445 C444 1.377 . S
C445 C446 1.379 . S
C446 H430 0.931 . S
C446 C440 1.383 . S
C446 C445 1.379 . S
H447 C441 0.959 . S
H448 C441 0.961 . S
H449 C441 0.960 . S
H450 C442 0.930 . S
H451 C443 0.929 . S
H452 C460 0.929 . S
H453 C462 0.930 . S
H454 C464 0.930 . S
H455 C467 0.929 . S
H456 C470 0.930 . S
H457 C472 0.960 . S
H458 C472 0.960 . S
H459 C472 0.960 . S
C460 H452 0.929 . S
C460 C461 1.377 . S
C460 C462 1.384 . S
C461 C460 1.377 . S
C461 C467 1.390 . S
C462 H453 0.930 . S
C462 C460 1.384 . S
C462 C463 1.372 . S
C463 C462 1.372 . S
C463 C464 1.400 . S
C463 C468 1.490 . S
C464 H454 0.930 . S
C464 C463 1.400 . S
C464 C467 1.386 . S
H465 C481 0.930 . S
H466 C482 0.931 . S
C467 H455 0.929 . S
C467 C461 1.390 . S
C467 C464 1.386 . S
C468 C463 1.490 . S
C468 C470 1.395 . S
C468 C471 1.403 . S
H469 C475 0.930 . S
C470 H456 0.930 . S
C470 C468 1.395 . S
C470 C473 1.403 . S
C471 C468 1.403 . S
C471 C472 1.524 . S
C471 C475 1.400 . S
C472 H457 0.960 . S
C472 H458 0.960 . S
C472 H459 0.960 . S
C472 C471 1.524 . S
C473 C470 1.403 . S
C473 C474 1.392 . S
C473 C477 1.495 . S
C474 C473 1.392 . S
C474 C475 1.385 . S
C474 C476 1.478 . S
C475 H469 0.930 . S
C475 C471 1.400 . S
C475 C474 1.385 . S
C476 C474 1.478 . S
C476 C478 1.381 . S
C476 C482 1.383 . S
C477 C473 1.495 . S
C477 H483 0.959 . S
C477 H484 0.961 . S
C477 H485 0.960 . S
C478 C476 1.381 . S
C478 C479 1.394 . S
C478 H486 0.930 . S
C479 C478 1.394 . S
C479 C480 1.383 . S
C479 H487 0.929 . S
C480 C479 1.383 . S
C480 C481 1.377 . S
C481 H465 0.930 . S
C481 C480 1.377 . S
C481 C482 1.379 . S
C482 H466 0.931 . S
C482 C476 1.383 . S
C482 C481 1.379 . S
H483 C477 0.959 . S
H484 C477 0.961 . S
H485 C477 0.960 . S
H486 C478 0.930 . S
H487 C479 0.929 . S
H488 C496 0.929 . S
H489 C498 0.930 1_554 S
H490 C500 0.930 . S
H491 C503 0.929 . S
H492 C506 0.930 . S
H493 C508 0.960 . S
H494 C508 0.960 1_554 S
H495 C508 0.960 . S
C496 H488 0.929 . S
C496 C497 1.377 . S
C496 C498 1.384 . S
C497 C496 1.377 . S
C497 C503 1.390 . S
C498 H489 0.930 1_556 S
C498 C496 1.384 . S
C498 C499 1.372 . S
C499 C498 1.372 . S
C499 C500 1.400 . S
C499 C504 1.490 . S
C500 H490 0.930 . S
C500 C499 1.400 . S
C500 C503 1.386 . S
H501 C517 0.930 . S
H502 C518 0.931 1_556 S
C503 H491 0.929 . S
C503 C497 1.390 . S
C503 C500 1.386 . S
C504 C499 1.490 . S
C504 C506 1.395 1_545 S
C504 C507 1.403 . S
H505 C511 0.930 . S
C506 H492 0.930 . S
C506 C504 1.395 1_565 S
C506 C509 1.403 1_556 S
C507 C504 1.403 . S
C507 C508 1.524 . S
C507 C511 1.400 1_556 S
C508 H493 0.960 . S
C508 H494 0.960 1_556 S
C508 H495 0.960 . S
C508 C507 1.524 . S
C509 C506 1.403 1_554 S
C509 C510 1.392 . S
C509 C513 1.495 . S
C510 C509 1.392 . S
C510 C511 1.385 1_565 S
C510 C512 1.478 . S
C511 H505 0.930 . S
C511 C507 1.400 1_554 S
C511 C510 1.385 1_545 S
C512 C510 1.478 . S
C512 C514 1.381 . S
C512 C518 1.383 . S
C513 C509 1.495 . S
C513 H519 0.959 . S
C513 H520 0.959 1_554 S
C513 H521 0.960 . S
C514 C512 1.381 . S
C514 C515 1.394 . S
C514 H522 0.930 . S
C515 C514 1.394 . S
C515 C516 1.383 . S
C515 H523 0.929 . S
C516 C515 1.383 . S
C516 C517 1.377 . S
C517 H501 0.930 . S
C517 C516 1.377 . S
C517 C518 1.379 . S
C518 H502 0.931 1_554 S
C518 C512 1.383 . S
C518 C517 1.379 . S
H519 C513 0.959 . S
H520 C513 0.959 1_556 S
H521 C513 0.960 . S
H522 C514 0.930 . S
H523 C515 0.929 . S
C101 C44 1.664 . S
C120 C19 1.598 . S
C137 C21 1.650 . S
C156 C42 1.592 . S
C173 C90 1.660 . S
C192 C65 1.596 . S
C209 C67 1.649 . S
C228 C88 1.624 . S
C245 C62 0.652 . S
C264 C16 0.694 . S
C281 C39 0.650 . S
C300 C85 0.688 . S
C317 C87 1.516 1_554 S
C336 C17 1.491 . S
C353 C40 1.495 . S
C372 C64 1.524 . S
C389 C41 1.513 1_556 S
C408 C63 1.497 . S
C425 C86 1.497 . S
C444 C18 1.508 . S
C461 C20 1.255 . S
C480 C66 1.258 . S
C497 C89 1.256 . S
C516 C43 1.258 . S
