# Generated by pormake.
# Topology rho, (4)-cn, num edge types: 1
# Building blocks:
#     Node 0, Type 0, BuildingBlock: QUQFOY_clean_sbu_3, # of connection points: 4
#     Node 1, Type 0, BuildingBlock: QUQFOY_clean_sbu_3, # of connection points: 4
#     Node 2, Type 0, BuildingBlock: QUQFOY_clean_sbu_3, # of connection points: 4
#     Node 3, Type 0, BuildingBlock: QUQFOY_clean_sbu_3, # of connection points: 4
#     Node 4, Type 0, BuildingBlock: QUQFOY_clean_sbu_3, # of connection points: 4
#     Node 5, Type 0, BuildingBlock: QUQFOY_clean_sbu_3, # of connection points: 4
#     Node 6, Type 0, BuildingBlock: QUQFOY_clean_sbu_3, # of connection points: 4
#     Node 7, Type 0, BuildingBlock: QUQFOY_clean_sbu_3, # of connection points: 4
#     Node 8, Type 0, BuildingBlock: QUQFOY_clean_sbu_3, # of connection points: 4
#     Node 9, Type 0, BuildingBlock: QUQFOY_clean_sbu_3, # of connection points: 4
#     Node 10, Type 0, BuildingBlock: QUQFOY_clean_sbu_3, # of connection points: 4
#     Node 11, Type 0, BuildingBlock: QUQFOY_clean_sbu_3, # of connection points: 4
#     Node 12, Type 0, BuildingBlock: QUQFOY_clean_sbu_3, # of connection points: 4
#     Node 13, Type 0, BuildingBlock: QUQFOY_clean_sbu_3, # of connection points: 4
#     Node 14, Type 0, BuildingBlock: QUQFOY_clean_sbu_3, # of connection points: 4
#     Node 15, Type 0, BuildingBlock: QUQFOY_clean_sbu_3, # of connection points: 4
#     Node 16, Type 0, BuildingBlock: QUQFOY_clean_sbu_3, # of connection points: 4
#     Node 17, Type 0, BuildingBlock: QUQFOY_clean_sbu_3, # of connection points: 4
#     Node 18, Type 0, BuildingBlock: QUQFOY_clean_sbu_3, # of connection points: 4
#     Node 19, Type 0, BuildingBlock: QUQFOY_clean_sbu_3, # of connection points: 4
#     Node 20, Type 0, BuildingBlock: QUQFOY_clean_sbu_3, # of connection points: 4
#     Node 21, Type 0, BuildingBlock: QUQFOY_clean_sbu_3, # of connection points: 4
#     Node 22, Type 0, BuildingBlock: QUQFOY_clean_sbu_3, # of connection points: 4
#     Node 23, Type 0, BuildingBlock: QUQFOY_clean_sbu_3, # of connection points: 4
#     Node 24, Type 0, BuildingBlock: QUQFOY_clean_sbu_3, # of connection points: 4
#     Node 25, Type 0, BuildingBlock: QUQFOY_clean_sbu_3, # of connection points: 4
#     Node 26, Type 0, BuildingBlock: QUQFOY_clean_sbu_3, # of connection points: 4
#     Node 27, Type 0, BuildingBlock: QUQFOY_clean_sbu_3, # of connection points: 4
#     Node 28, Type 0, BuildingBlock: QUQFOY_clean_sbu_3, # of connection points: 4
#     Node 29, Type 0, BuildingBlock: QUQFOY_clean_sbu_3, # of connection points: 4
#     Node 30, Type 0, BuildingBlock: QUQFOY_clean_sbu_3, # of connection points: 4
#     Node 31, Type 0, BuildingBlock: QUQFOY_clean_sbu_3, # of connection points: 4
#     Node 32, Type 0, BuildingBlock: QUQFOY_clean_sbu_3, # of connection points: 4
#     Node 33, Type 0, BuildingBlock: QUQFOY_clean_sbu_3, # of connection points: 4
#     Node 34, Type 0, BuildingBlock: QUQFOY_clean_sbu_3, # of connection points: 4
#     Node 35, Type 0, BuildingBlock: QUQFOY_clean_sbu_3, # of connection points: 4
#     Node 36, Type 0, BuildingBlock: QUQFOY_clean_sbu_3, # of connection points: 4
#     Node 37, Type 0, BuildingBlock: QUQFOY_clean_sbu_3, # of connection points: 4
#     Node 38, Type 0, BuildingBlock: QUQFOY_clean_sbu_3, # of connection points: 4
#     Node 39, Type 0, BuildingBlock: QUQFOY_clean_sbu_3, # of connection points: 4
#     Node 40, Type 0, BuildingBlock: QUQFOY_clean_sbu_3, # of connection points: 4
#     Node 41, Type 0, BuildingBlock: QUQFOY_clean_sbu_3, # of connection points: 4
#     Node 42, Type 0, BuildingBlock: QUQFOY_clean_sbu_3, # of connection points: 4
#     Node 43, Type 0, BuildingBlock: QUQFOY_clean_sbu_3, # of connection points: 4
#     Node 44, Type 0, BuildingBlock: QUQFOY_clean_sbu_3, # of connection points: 4
#     Node 45, Type 0, BuildingBlock: QUQFOY_clean_sbu_3, # of connection points: 4
#     Node 46, Type 0, BuildingBlock: QUQFOY_clean_sbu_3, # of connection points: 4
#     Node 47, Type 0, BuildingBlock: QUQFOY_clean_sbu_3, # of connection points: 4
#     Edge 48, Type (0, 0), None
#     Edge 49, Type (0, 0), None
#     Edge 50, Type (0, 0), None
#     Edge 51, Type (0, 0), None
#     Edge 52, Type (0, 0), None
#     Edge 53, Type (0, 0), None
#     Edge 54, Type (0, 0), None
#     Edge 55, Type (0, 0), None
#     Edge 56, Type (0, 0), None
#     Edge 57, Type (0, 0), None
#     Edge 58, Type (0, 0), None
#     Edge 59, Type (0, 0), None
#     Edge 60, Type (0, 0), None
#     Edge 61, Type (0, 0), None
#     Edge 62, Type (0, 0), None
#     Edge 63, Type (0, 0), None
#     Edge 64, Type (0, 0), None
#     Edge 65, Type (0, 0), None
#     Edge 66, Type (0, 0), None
#     Edge 67, Type (0, 0), None
#     Edge 68, Type (0, 0), None
#     Edge 69, Type (0, 0), None
#     Edge 70, Type (0, 0), None
#     Edge 71, Type (0, 0), None
#     Edge 72, Type (0, 0), None
#     Edge 73, Type (0, 0), None
#     Edge 74, Type (0, 0), None
#     Edge 75, Type (0, 0), None
#     Edge 76, Type (0, 0), None
#     Edge 77, Type (0, 0), None
#     Edge 78, Type (0, 0), None
#     Edge 79, Type (0, 0), None
#     Edge 80, Type (0, 0), None
#     Edge 81, Type (0, 0), None
#     Edge 82, Type (0, 0), None
#     Edge 83, Type (0, 0), None
#     Edge 84, Type (0, 0), None
#     Edge 85, Type (0, 0), None
#     Edge 86, Type (0, 0), None
#     Edge 87, Type (0, 0), None
#     Edge 88, Type (0, 0), None
#     Edge 89, Type (0, 0), None
#     Edge 90, Type (0, 0), None
#     Edge 91, Type (0, 0), None
#     Edge 92, Type (0, 0), None
#     Edge 93, Type (0, 0), None
#     Edge 94, Type (0, 0), None
#     Edge 95, Type (0, 0), None
#     Edge 96, Type (0, 0), None
#     Edge 97, Type (0, 0), None
#     Edge 98, Type (0, 0), None
#     Edge 99, Type (0, 0), None
#     Edge 100, Type (0, 0), None
#     Edge 101, Type (0, 0), None
#     Edge 102, Type (0, 0), None
#     Edge 103, Type (0, 0), None
#     Edge 104, Type (0, 0), None
#     Edge 105, Type (0, 0), None
#     Edge 106, Type (0, 0), None
#     Edge 107, Type (0, 0), None
#     Edge 108, Type (0, 0), None
#     Edge 109, Type (0, 0), None
#     Edge 110, Type (0, 0), None
#     Edge 111, Type (0, 0), None
#     Edge 112, Type (0, 0), None
#     Edge 113, Type (0, 0), None
#     Edge 114, Type (0, 0), None
#     Edge 115, Type (0, 0), None
#     Edge 116, Type (0, 0), None
#     Edge 117, Type (0, 0), None
#     Edge 118, Type (0, 0), None
#     Edge 119, Type (0, 0), None
#     Edge 120, Type (0, 0), None
#     Edge 121, Type (0, 0), None
#     Edge 122, Type (0, 0), None
#     Edge 123, Type (0, 0), None
#     Edge 124, Type (0, 0), None
#     Edge 125, Type (0, 0), None
#     Edge 126, Type (0, 0), None
#     Edge 127, Type (0, 0), None
#     Edge 128, Type (0, 0), None
#     Edge 129, Type (0, 0), None
#     Edge 130, Type (0, 0), None
#     Edge 131, Type (0, 0), None
#     Edge 132, Type (0, 0), None
#     Edge 133, Type (0, 0), None
#     Edge 134, Type (0, 0), None
#     Edge 135, Type (0, 0), None
#     Edge 136, Type (0, 0), None
#     Edge 137, Type (0, 0), None
#     Edge 138, Type (0, 0), None
#     Edge 139, Type (0, 0), None
#     Edge 140, Type (0, 0), None
#     Edge 141, Type (0, 0), None
#     Edge 142, Type (0, 0), None
#     Edge 143, Type (0, 0), None
# Relax obj value: 0.075
# Max RMSD: 0.099
# Mean RMSD: 0.090
data_MOF--net-rho--node1-QUQFOY_clean_sbu_3--edge1-none
_symmetry_space_group_name_H-M    P1
_symmetry_Int_Tables_number       1
_symmetry_cell_setting            triclinic
loop_
_symmetry_equiv_pos_as_xyz
'x, y, z'
_cell_length_a     34.019688
_cell_length_b     35.118162
_cell_length_c     35.009842
_cell_angle_alpha  90.495636
_cell_angle_beta   90.571043
_cell_angle_gamma 92.867433
loop_
_atom_site_label
_atom_site_type_symbol
_atom_site_fract_x
_atom_site_fract_y
_atom_site_fract_z
_atom_type_partial_charge
C0 C 0.13804 0.15518 0.34842 0.0
O1 O 0.10575 0.13612 0.35271 0.0
Cd2 Cd 0.04781 0.16284 0.37749 0.0
O3 O 0.14016 0.19118 0.35328 0.0
Cd4 Cd 0.09328 0.24105 0.36636 0.0
C5 C 0.08783 0.21221 0.45602 0.0
O6 O 0.03061 0.21473 0.33889 0.0
O7 O 0.02747 0.25947 0.38126 0.0
O8 O 0.11374 0.27826 0.31227 0.0
C9 C 0.00994 0.23812 0.35653 0.0
O10 O 0.06493 0.18552 0.44237 0.0
C11 C 0.11802 0.30939 0.3309 0.0
O12 O 0.10546 0.23625 0.43439 0.0
O13 O 0.1151 0.3079 0.36697 0.0
C14 C 0.8254 0.0923 0.35328 0.0
O15 O 0.83492 0.05785 0.35423 0.0
Cd16 Cd 0.79473 0.00746 0.38036 0.0
O17 O 0.79041 0.10134 0.36042 0.0
Cd18 Cd 0.72591 0.06823 0.37278 0.0
C19 C 0.76065 0.05764 0.45978 0.0
O20 O 0.73267 0.00279 0.35094 0.0
O21 O 0.6903 0.01239 0.39536 0.0
O22 O 0.69663 0.08853 0.3143 0.0
C23 C 0.70623 -0.01074 0.37311 0.0
O24 O 0.78019 0.03223 0.44337 0.0
C25 C 0.6656 0.09993 0.32959 0.0
O26 O 0.73828 0.0789 0.44093 0.0
O27 O 0.66434 0.1006 0.36589 0.0
C28 C 0.82371 0.79867 0.34782 0.0
O29 O 0.85605 0.8175 0.35355 0.0
Cd30 Cd 0.91206 0.78834 0.38008 0.0
O31 O 0.82131 0.76266 0.35166 0.0
Cd32 Cd 0.86559 0.71036 0.362 0.0
C33 C 0.8682 0.73499 0.45369 0.0
O34 O 0.92821 0.73807 0.33861 0.0
O35 O 0.93113 0.68907 0.37524 0.0
O36 O 0.84245 0.68712 0.30119 0.0
C37 C 0.94875 0.71295 0.35366 0.0
O38 O 0.89079 0.76236 0.44182 0.0
C39 C 0.83997 0.65231 0.31058 0.0
O40 O 0.85166 0.71088 0.4305 0.0
O41 O 0.8446 0.64467 0.34573 0.0
C42 C 0.12744 0.86207 0.35454 0.0
O43 O 0.11827 0.89664 0.3543 0.0
Cd44 Cd 0.16205 0.94611 0.37883 0.0
O45 O 0.16279 0.85312 0.36036 0.0
Cd46 Cd 0.22938 0.88319 0.36782 0.0
C47 C 0.19787 0.8929 0.45556 0.0
O48 O 0.22315 0.94896 0.3486 0.0
O49 O 0.26888 0.93769 0.3899 0.0
O50 O 0.24544 0.8613 0.30548 0.0
C51 C 0.25137 0.96166 0.36992 0.0
O52 O 0.17856 0.91883 0.43983 0.0
C53 C 0.27918 0.84997 0.31421 0.0
O54 O 0.21969 0.8715 0.43618 0.0
O55 O 0.28873 0.85007 0.34949 0.0
C56 C 0.09634 0.82125 0.60201 0.0
O57 O 0.06069 0.83039 0.602 0.0
Cd58 Cd 0.00657 0.78997 0.57964 0.0
O59 O 0.10545 0.78712 0.59529 0.0
Cd60 Cd 0.0739 0.72294 0.58509 0.0
C61 C 0.05444 0.7562 0.49836 0.0
O62 O 0.00823 0.73106 0.60983 0.0
O63 O 0.01528 0.68337 0.57169 0.0
O64 O 0.10636 0.70407 0.64224 0.0
C65 C -0.00751 0.70292 0.59137 0.0
O66 O 0.02873 0.77489 0.51573 0.0
C67 C 0.11563 0.67157 0.63018 0.0
O68 O 0.07802 0.73524 0.51626 0.0
O69 O 0.10934 0.66405 0.59495 0.0
C70 C 0.32202 0.09286 0.62149 0.0
O71 O 0.34153 0.09176 0.59086 0.0
Cd72 Cd 0.30744 0.06949 0.53451 0.0
O73 O 0.2847 0.08996 0.62096 0.0
Cd74 Cd 0.22867 0.08696 0.57758 0.0
C75 C 0.25082 -0.00282 0.57925 0.0
O76 O 0.25664 0.11053 0.51822 0.0
O77 O 0.20435 0.07279 0.51372 0.0
O78 O 0.21074 0.14744 0.60078 0.0
C79 C 0.22943 0.09497 0.49751 0.0
O80 O 0.27857 0.00869 0.55731 0.0
C81 C 0.17453 0.13797 0.60461 0.0
O82 O 0.22678 0.02006 0.59315 0.0
O83 O 0.16373 0.10312 0.59928 0.0
C84 C 0.85722 0.1305 0.60468 0.0
O85 O 0.89287 0.12152 0.60328 0.0
Cd86 Cd 0.94652 0.1604 0.5794 0.0
O87 O 0.84751 0.16424 0.59722 0.0
Cd88 Cd 0.88166 0.22651 0.58295 0.0
C89 C 0.90121 0.19237 0.49642 0.0
O90 O 0.94772 0.22015 0.60964 0.0
O91 O 0.94058 0.26373 0.56745 0.0
O92 O 0.85434 0.25762 0.63702 0.0
C93 C 0.96323 0.2469 0.58986 0.0
O94 O 0.92687 0.17368 0.51402 0.0
C95 C 0.84409 0.28673 0.61889 0.0
O96 O 0.8775 0.21304 0.51428 0.0
O97 O 0.84666 0.28574 0.58269 0.0
C98 C 0.62225 0.85435 0.60091 0.0
O99 O 0.61066 0.85941 0.56688 0.0
Cd100 Cd 0.65351 0.88142 0.5188 0.0
O101 O 0.65876 0.8546 0.60953 0.0
Cd102 Cd 0.72241 0.85857 0.57546 0.0
C103 C 0.70594 0.94976 0.5756 0.0
O104 O 0.70128 0.83591 0.51289 0.0
O105 O 0.7533 0.87361 0.51425 0.0
O106 O 0.74016 0.79734 0.59772 0.0
C107 C 0.73012 0.85115 0.49522 0.0
O108 O 0.68172 0.93971 0.54892 0.0
C109 C 0.77601 0.80729 0.60415 0.0
O110 O 0.72593 0.92554 0.59306 0.0
O111 O 0.78596 0.84256 0.60199 0.0
C112 C 0.36312 0.09506 0.31356 0.0
O113 O 0.39733 0.08539 0.32285 0.0
Cd114 Cd 0.44471 0.06105 0.28203 0.0
O115 O 0.35149 0.09426 0.27878 0.0
Cd116 Cd 0.38403 0.08074 0.21693 0.0
C117 C 0.38713 -0.01142 0.23712 0.0
O118 O 0.44896 0.10834 0.23472 0.0
O119 O 0.44718 0.07166 0.18533 0.0
O120 O 0.35833 0.13547 0.18615 0.0
C121 C 0.46675 0.09529 0.20644 0.0
O122 O 0.41578 -0.00062 0.25903 0.0
C123 C 0.34967 0.11792 0.15508 0.0
O124 O 0.3677 0.01256 0.21887 0.0
O125 O 0.35263 0.08208 0.15452 0.0
C126 C 0.83313 0.34591 0.15362 0.0
O127 O 0.86611 0.34263 0.13757 0.0
Cd128 Cd 0.92741 0.36435 0.16886 0.0
O129 O 0.83132 0.35428 0.18891 0.0
Cd130 Cd 0.8733 0.36142 0.24563 0.0
C131 C 0.89344 0.44768 0.20924 0.0
O132 O 0.93869 0.34118 0.23091 0.0
O133 O 0.93229 0.38153 0.27779 0.0
O134 O 0.8502 0.29883 0.26114 0.0
C135 C 0.95471 0.36284 0.25679 0.0
O136 O 0.91445 0.42914 0.18636 0.0
C137 C 0.8432 0.30573 0.29599 0.0
O138 O 0.8712 0.43083 0.23385 0.0
O139 O 0.84534 0.34055 0.307 0.0
C140 C 0.59688 0.85164 0.30974 0.0
O141 O 0.56138 0.85632 0.31872 0.0
Cd142 Cd 0.51151 0.88074 0.27977 0.0
O143 O 0.60884 0.85689 0.27569 0.0
Cd144 Cd 0.57829 0.87169 0.21308 0.0
C145 C 0.56545 0.96024 0.24427 0.0
O146 O 0.51215 0.84384 0.22399 0.0
O147 O 0.51865 0.88179 0.17647 0.0
O148 O 0.60739 0.81863 0.18252 0.0
C149 C 0.49626 0.86 0.19612 0.0
O150 O 0.53794 0.94459 0.26407 0.0
C151 C 0.61786 0.83676 0.15278 0.0
O152 O 0.58743 0.94055 0.22345 0.0
O153 O 0.61401 0.87254 0.15292 0.0
C154 C 0.13881 0.6062 0.15042 0.0
O155 O 0.10593 0.60402 0.1329 0.0
Cd156 Cd 0.04712 0.58098 0.16469 0.0
O157 O 0.14057 0.60253 0.18651 0.0
Cd158 Cd 0.096 0.59782 0.2416 0.0
C159 C 0.08542 0.50674 0.21715 0.0
O160 O 0.03293 0.61892 0.21832 0.0
O161 O 0.0318 0.58182 0.26748 0.0
O162 O 0.11972 0.66002 0.26116 0.0
C163 C 0.0132 0.6021 0.24443 0.0
O164 O 0.06363 0.51942 0.19079 0.0
C165 C 0.12282 0.65225 0.29634 0.0
O166 O 0.10456 0.52912 0.24035 0.0
O167 O 0.11883 0.61732 0.30567 0.0
C168 C 0.32429 0.84049 0.64913 0.0
O169 O 0.35698 0.84189 0.63193 0.0
Cd170 Cd 0.41637 0.86466 0.66428 0.0
O171 O 0.32295 0.8445 0.68524 0.0
Cd172 Cd 0.36766 0.84886 0.74111 0.0
C173 C 0.37838 0.93958 0.71674 0.0
O174 O 0.43013 0.8273 0.71796 0.0
O175 O 0.43232 0.86454 0.76768 0.0
O176 O 0.34301 0.78704 0.75951 0.0
C177 C 0.45045 0.84431 0.74422 0.0
O178 O 0.39989 0.9265 0.69055 0.0
C179 C 0.33996 0.79499 0.79473 0.0
O180 O 0.35957 0.91758 0.73979 0.0
O181 O 0.34482 0.82989 0.80467 0.0
C182 C 0.09563 0.34953 0.81136 0.0
O183 O 0.06026 0.35496 0.82025 0.0
Cd184 Cd 0.01167 0.38079 0.7807 0.0
O185 O 0.10781 0.35497 0.7774 0.0
Cd186 Cd 0.07729 0.37093 0.71494 0.0
C187 C 0.06601 0.45987 0.74479 0.0
O188 O 0.01074 0.34341 0.72504 0.0
O189 O 0.01793 0.38251 0.67851 0.0
O190 O 0.10461 0.31695 0.68462 0.0
C191 C -0.00468 0.36007 0.69721 0.0
O192 O 0.03852 0.44444 0.76475 0.0
C193 C 0.11479 0.33455 0.6545 0.0
O194 O 0.08789 0.4399 0.72416 0.0
O195 O 0.1122 0.37049 0.6545 0.0
C196 C 0.63062 0.10066 0.65507 0.0
O197 O 0.59737 0.10347 0.63883 0.0
Cd198 Cd 0.53675 0.08127 0.6696 0.0
O199 O 0.63294 0.09239 0.69025 0.0
Cd200 Cd 0.59105 0.08511 0.74622 0.0
C201 C 0.57094 -0.00163 0.70976 0.0
O202 O 0.52511 0.10502 0.73164 0.0
O203 O 0.53266 0.06443 0.77753 0.0
O204 O 0.61339 0.14793 0.7631 0.0
C205 C 0.50974 0.08337 0.75721 0.0
O206 O 0.54975 0.01663 0.68674 0.0
C207 C 0.62033 0.14112 0.798 0.0
O208 O 0.5935 0.01557 0.7346 0.0
O209 O 0.61888 0.10629 0.80831 0.0
C210 C 0.86057 0.59313 0.81199 0.0
O211 O 0.89508 0.58462 0.82159 0.0
Cd212 Cd 0.94342 0.5609 0.78174 0.0
O213 O 0.84921 0.59198 0.77713 0.0
Cd214 Cd 0.88239 0.57956 0.71538 0.0
C215 C 0.8859 0.48787 0.73755 0.0
O216 O 0.94694 0.60759 0.73397 0.0
O217 O 0.94612 0.57056 0.68488 0.0
O218 O 0.85529 0.63338 0.68386 0.0
C219 C 0.96539 0.5941 0.70635 0.0
O220 O 0.91442 0.49902 0.75947 0.0
C221 C 0.84659 0.61529 0.65309 0.0
O222 O 0.86668 0.51149 0.71858 0.0
O223 O 0.85093 0.57965 0.65275 0.0
C224 C 0.14154 0.3545 0.12129 0.0
O225 O 0.12177 0.35595 0.0905 0.0
Cd226 Cd 0.15495 0.37824 0.03477 0.0
O227 O 0.17888 0.35752 0.12124 0.0
Cd228 Cd 0.23423 0.36127 0.07788 0.0
C229 C 0.21244 0.45102 0.08017 0.0
O230 O 0.20519 0.33682 0.01816 0.0
O231 O 0.25696 0.375 0.014 0.0
O232 O 0.25429 0.3016 0.10069 0.0
C233 C 0.23181 0.35239 -0.00242 0.0
O234 O 0.18435 0.43933 0.05797 0.0
C235 C 0.29037 0.31199 0.10463 0.0
O236 O 0.23652 0.42823 0.09415 0.0
O237 O 0.30017 0.34695 0.09938 0.0
C238 C 0.32905 0.58494 0.85253 0.0
O239 O 0.33829 0.5504 0.85338 0.0
Cd240 Cd 0.29676 0.50045 0.87872 0.0
O241 O 0.29397 0.59419 0.85891 0.0
Cd242 Cd 0.22861 0.56269 0.87044 0.0
C243 C 0.26463 0.55259 0.95757 0.0
O244 O 0.23441 0.49678 0.84948 0.0
O245 O 0.19179 0.50779 0.8933 0.0
O246 O 0.19918 0.5837 0.81182 0.0
C247 C 0.20761 0.484 0.87167 0.0
O248 O 0.28347 0.52648 0.94148 0.0
C249 C 0.16887 0.59633 0.82745 0.0
O250 O 0.24226 0.57375 0.93855 0.0
O251 O 0.16813 0.59703 0.86377 0.0
C252 C 0.32161 0.29054 0.84941 0.0
O253 O 0.35396 0.30976 0.85366 0.0
Cd254 Cd 0.41288 0.28373 0.87806 0.0
O255 O 0.31975 0.25463 0.8543 0.0
Cd256 Cd 0.36744 0.20544 0.86757 0.0
C257 C 0.3758 0.23625 0.95712 0.0
O258 O 0.42965 0.23078 0.84006 0.0
O259 O 0.43321 0.18692 0.88269 0.0
O260 O 0.34653 0.16742 0.81328 0.0
C261 C 0.45038 0.20745 0.85777 0.0
O262 O 0.39826 0.26265 0.94322 0.0
C263 C 0.34343 0.13641 0.83164 0.0
O264 O 0.35738 0.21183 0.93571 0.0
O265 O 0.34655 0.13838 0.86778 0.0
C266 C 0.63017 0.35425 0.85605 0.0
O267 O 0.62065 0.38871 0.85588 0.0
Cd268 Cd 0.66326 0.43876 0.88082 0.0
O269 O 0.66549 0.34561 0.86249 0.0
Cd270 Cd 0.7313 0.37731 0.87029 0.0
C271 C 0.70166 0.38786 0.95804 0.0
O272 O 0.72384 0.44253 0.84996 0.0
O273 O 0.76982 0.43288 0.89149 0.0
O274 O 0.74662 0.35547 0.80812 0.0
C275 C 0.75187 0.4561 0.87099 0.0
O276 O 0.6815 0.41301 0.94205 0.0
C277 C 0.78094 0.34535 0.81627 0.0
O278 O 0.7234 0.36634 0.93876 0.0
O279 O 0.79123 0.34579 0.85136 0.0
C280 C 0.63478 0.64707 0.84734 0.0
O281 O 0.60243 0.62862 0.85321 0.0
Cd282 Cd 0.54766 0.65889 0.87999 0.0
O283 O 0.63767 0.68314 0.85116 0.0
Cd284 Cd 0.5947 0.73641 0.86154 0.0
C285 C 0.59452 0.71342 0.95321 0.0
O286 O 0.53174 0.70822 0.83793 0.0
O287 O 0.52918 0.758 0.87427 0.0
O288 O 0.61771 0.75866 0.80107 0.0
C289 C 0.51128 0.7335 0.85279 0.0
O290 O 0.57137 0.68601 0.94147 0.0
C291 C 0.62111 0.79354 0.81074 0.0
O292 O 0.61048 0.73706 0.92995 0.0
O293 O 0.61654 0.80168 0.84582 0.0
C294 C 0.84061 0.59258 0.10065 0.0
O295 O 0.85165 0.58798 0.06651 0.0
Cd296 Cd 0.80745 0.56596 0.01831 0.0
O297 O 0.80426 0.5924 0.10912 0.0
Cd298 Cd 0.73987 0.58929 0.07541 0.0
C299 C 0.75688 0.49818 0.075 0.0
O300 O 0.75914 0.61114 0.01303 0.0
O301 O 0.70704 0.57362 0.01425 0.0
O302 O 0.7242 0.65125 0.09809 0.0
C303 C 0.72984 0.5958 -0.00469 0.0
O304 O 0.78048 0.50804 0.0484 0.0
C305 C 0.6883 0.64223 0.1045 0.0
O306 O 0.73688 0.52244 0.09244 0.0
O307 O 0.67746 0.60711 0.10232 0.0
C308 C 0.36647 0.62928 0.10336 0.0
O309 O 0.40205 0.62004 0.10244 0.0
Cd310 Cd 0.45568 0.65898 0.07854 0.0
O311 O 0.35716 0.66318 0.09614 0.0
Cd312 Cd 0.39105 0.72552 0.08253 0.0
C313 C 0.40825 0.68933 -0.00387 0.0
O314 O 0.45784 0.71931 0.10795 0.0
O315 O 0.4496 0.76259 0.06561 0.0
O316 O 0.36372 0.75662 0.13698 0.0
C317 C 0.47283 0.74588 0.08757 0.0
O318 O 0.43438 0.67097 0.01345 0.0
C319 C 0.35186 0.78504 0.11872 0.0
O320 O 0.38528 0.71066 0.01413 0.0
O321 O 0.35445 0.784 0.08252 0.0
C322 C 0.6058 0.31987 0.10383 0.0
O323 O 0.57004 0.32865 0.10331 0.0
Cd324 Cd 0.51584 0.28813 0.08143 0.0
O325 O 0.6154 0.28588 0.09704 0.0
Cd326 Cd 0.58382 0.2216 0.08639 0.0
C327 C 0.56129 0.25239 -0.00048 0.0
O328 O 0.51904 0.23003 0.1126 0.0
O329 O 0.52487 0.18161 0.07522 0.0
O330 O 0.61723 0.20283 0.14285 0.0
C331 C 0.50269 0.20161 0.09508 0.0
O332 O 0.53608 0.27146 0.01719 0.0
C333 C 0.62484 0.16977 0.13101 0.0
O334 O 0.58574 0.23224 0.01725 0.0
O335 O 0.61807 0.16223 0.09587 0.0
C336 C 0.84298 0.63599 0.61739 0.0
O337 O 0.84339 0.61788 0.58592 0.0
Cd338 Cd 0.87428 0.65048 0.53314 0.0
O339 O 0.84992 0.67179 0.61841 0.0
Cd340 Cd 0.85882 0.72571 0.57586 0.0
C341 C 0.95018 0.69934 0.58343 0.0
O342 O 0.84176 0.70436 0.50982 0.0
O343 O 0.88349 0.7527 0.51766 0.0
O344 O 0.79479 0.74453 0.59354 0.0
C345 C 0.86324 0.731 0.49507 0.0
O346 O 0.93766 0.67316 0.56027 0.0
C347 C 0.80548 0.77858 0.60258 0.0
O348 O 0.92731 0.72382 0.5966 0.0
O349 O 0.84207 0.78792 0.60131 0.0
C350 C 0.12724 0.85172 0.60167 0.0
O351 O 0.11701 0.88593 0.60022 0.0
Cd352 Cd 0.15731 0.93782 0.57668 0.0
O353 O 0.1627 0.84336 0.59577 0.0
Cd354 Cd 0.22721 0.87714 0.58514 0.0
C355 C 0.19656 0.89133 0.49725 0.0
O356 O 0.21854 0.94245 0.60744 0.0
O357 O 0.26342 0.93343 0.5653 0.0
O358 O 0.25752 0.85549 0.64309 0.0
C359 C 0.24567 0.95638 0.58627 0.0
O360 O 0.17597 0.91577 0.51389 0.0
C361 C 0.28811 0.84423 0.62686 0.0
O362 O 0.21782 0.86904 0.51609 0.0
O363 O 0.28856 0.84445 0.59055 0.0
C364 C 0.11673 0.31324 0.61868 0.0
O365 O 0.1152 0.33087 0.5873 0.0
Cd366 Cd 0.08238 0.29748 0.53479 0.0
O367 O 0.10875 0.2776 0.61978 0.0
Cd368 Cd 0.09569 0.22266 0.57808 0.0
C369 C 0.0056 0.25072 0.5837 0.0
O370 O 0.11396 0.24236 0.51314 0.0
O371 O 0.07029 0.19559 0.51912 0.0
O372 O 0.15812 0.20155 0.59722 0.0
C373 C 0.09196 0.21615 0.4975 0.0
O374 O 0.01847 0.27599 0.5604 0.0
C375 C 0.14614 0.16756 0.60416 0.0
O376 O 0.02813 0.22661 0.59802 0.0
O377 O 0.10933 0.15944 0.60173 0.0
C378 C 0.82677 0.0996 0.6062 0.0
O379 O 0.83774 0.0656 0.60641 0.0
Cd380 Cd 0.79964 0.01219 0.5811 0.0
O381 O 0.79109 0.10675 0.5992 0.0
Cd382 Cd 0.728 0.06968 0.58873 0.0
C383 C 0.76144 0.05834 0.50152 0.0
O384 O 0.73727 0.00366 0.60815 0.0
O385 O 0.69472 0.01393 0.56328 0.0
O386 O 0.69757 0.08741 0.64744 0.0
C387 C 0.71137 -0.00962 0.58443 0.0
O388 O 0.7825 0.03414 0.51793 0.0
C389 C 0.66616 0.09835 0.63206 0.0
O390 O 0.73879 0.07928 0.52041 0.0
O391 O 0.66495 0.09996 0.59577 0.0
C392 C 0.85695 0.12206 0.35231 0.0
O393 O 0.89222 0.11193 0.35297 0.0
Cd394 Cd 0.9462 0.1522 0.37449 0.0
O395 O 0.84891 0.1567 0.35797 0.0
Cd396 Cd 0.88477 0.21951 0.36626 0.0
C397 C 0.90151 0.19128 0.45463 0.0
O398 O 0.94855 0.20777 0.33772 0.0
O399 O 0.94739 0.25415 0.37838 0.0
O400 O 0.85293 0.2416 0.30995 0.0
C401 C 0.96696 0.23511 0.35505 0.0
O402 O 0.92658 0.17077 0.43857 0.0
C403 C 0.8459 0.27438 0.32296 0.0
O404 O 0.87895 0.21186 0.43523 0.0
O405 O 0.85298 0.28063 0.35826 0.0
C406 C 0.62537 0.84893 0.34095 0.0
O407 O 0.61273 0.85301 0.37464 0.0
Cd408 Cd 0.6509 0.87491 0.42778 0.0
O409 O 0.66212 0.85064 0.33398 0.0
Cd410 Cd 0.72318 0.85809 0.37343 0.0
C411 C 0.70055 0.9484 0.37943 0.0
O412 O 0.70273 0.83368 0.43489 0.0
O413 O 0.75199 0.87489 0.43567 0.0
O414 O 0.75448 0.80164 0.35183 0.0
C415 C 0.73026 0.85101 0.45365 0.0
O416 O 0.67639 0.93691 0.40497 0.0
C417 C 0.78749 0.8192 0.34639 0.0
O418 O 0.72115 0.92535 0.36108 0.0
O419 O 0.78886 0.85535 0.34859 0.0
C420 C 0.09607 0.8322 0.35545 0.0
O421 O 0.0607 0.84178 0.35767 0.0
Cd422 Cd 0.00838 0.79921 0.37755 0.0
O423 O 0.10506 0.79772 0.35989 0.0
Cd424 Cd 0.07323 0.73355 0.36777 0.0
C425 C 0.05463 0.75833 0.45665 0.0
O426 O 0.00975 0.74476 0.33845 0.0
O427 O 0.01159 0.69555 0.37458 0.0
O428 O 0.10809 0.715 0.31205 0.0
C429 C -0.00831 0.71609 0.35291 0.0
O430 O 0.02918 0.77865 0.44075 0.0
C431 C 0.11669 0.68249 0.32418 0.0
O432 O 0.07824 0.73921 0.43706 0.0
O433 O 0.10839 0.67479 0.35866 0.0
C434 C 0.33507 0.09916 0.34441 0.0
O435 O 0.34765 0.09425 0.37816 0.0
Cd436 Cd 0.30962 0.07308 0.43048 0.0
O437 O 0.29835 0.09926 0.33689 0.0
Cd438 Cd 0.23767 0.09367 0.37548 0.0
C439 C 0.25784 0.00227 0.37819 0.0
O440 O 0.25867 0.11494 0.43923 0.0
O441 O 0.20834 0.075 0.43572 0.0
O442 O 0.20719 0.15164 0.35595 0.0
C443 C 0.23063 0.09711 0.456 0.0
O444 O 0.28246 0.0125 0.40445 0.0
C445 C 0.1743 0.13456 0.34787 0.0
O446 O 0.23768 0.02631 0.36067 0.0
O447 O 0.17266 0.09837 0.3483 0.0
C448 C 0.59319 0.85572 0.63108 0.0
O449 O 0.55767 0.86007 0.62147 0.0
Cd450 Cd 0.51019 0.88063 0.66436 0.0
O451 O 0.60456 0.85871 0.66582 0.0
Cd452 Cd 0.57504 0.86666 0.72964 0.0
C453 C 0.56599 0.9567 0.70811 0.0
O454 O 0.51116 0.83584 0.71366 0.0
O455 O 0.51277 0.87098 0.76423 0.0
O456 O 0.609 0.81125 0.74743 0.0
C457 C 0.49333 0.84789 0.74241 0.0
O458 O 0.53869 0.94227 0.68646 0.0
C459 C 0.61658 0.8222 0.78143 0.0
O460 O 0.58723 0.93572 0.72831 0.0
O461 O 0.60854 0.85602 0.79041 0.0
C462 C 0.1332 0.60108 0.80457 0.0
O463 O 0.10056 0.60381 0.82135 0.0
Cd464 Cd 0.03925 0.58409 0.79008 0.0
O465 O 0.13435 0.59426 0.76885 0.0
Cd466 Cd 0.09028 0.5892 0.71255 0.0
C467 C 0.07048 0.50162 0.74517 0.0
O468 O 0.02833 0.61498 0.73165 0.0
O469 O 0.02654 0.57413 0.68465 0.0
O470 O 0.11688 0.64991 0.69324 0.0
C471 C 0.00834 0.59637 0.7061 0.0
O472 O 0.05019 0.51925 0.76941 0.0
C473 C 0.12029 0.64136 0.65818 0.0
O474 O 0.09187 0.51952 0.72065 0.0
O475 O 0.11523 0.60627 0.64881 0.0
C476 C 0.3485 0.10052 0.81157 0.0
O477 O 0.35565 0.07107 0.83059 0.0
Cd478 Cd 0.39024 0.02127 0.80052 0.0
O479 O 0.35574 0.10202 0.77612 0.0
Cd480 Cd 0.37787 0.06198 0.72443 0.0
C481 C 0.46752 0.07386 0.75876 0.0
O482 O 0.35592 -0.00304 0.74491 0.0
O483 O 0.4009 0.00236 0.70174 0.0
O484 O 0.32217 0.07921 0.68728 0.0
C485 C 0.37733 -0.019 0.72065 0.0
O486 O 0.455 0.04967 0.78331 0.0
C487 C 0.34196 0.08825 0.65789 0.0
O488 O 0.44465 0.08665 0.73367 0.0
O489 O 0.37906 0.08648 0.65991 0.0
C490 C 0.84178 0.32293 0.63951 0.0
O491 O 0.84257 0.35388 0.6211 0.0
Cd492 Cd 0.87592 0.40886 0.65134 0.0
O493 O 0.8501 0.32311 0.67491 0.0
Cd494 Cd 0.86306 0.36705 0.72814 0.0
C495 C 0.95288 0.36391 0.69468 0.0
O496 O 0.85082 0.43302 0.70975 0.0
O497 O 0.89567 0.42372 0.75298 0.0
O498 O 0.7989 0.35258 0.75206 0.0
C499 C 0.87615 0.4469 0.73388 0.0
O500 O 0.93993 0.38625 0.66951 0.0
C501 C 0.80965 0.34408 0.78561 0.0
O502 O 0.93046 0.34901 0.72008 0.0
O503 O 0.84647 0.34347 0.79236 0.0
C504 C 0.63011 0.10316 0.30622 0.0
O505 O 0.59701 0.10486 0.32236 0.0
Cd506 Cd 0.53714 0.08445 0.28913 0.0
O507 O 0.63227 0.0962 0.27061 0.0
Cd508 Cd 0.59137 0.08921 0.21264 0.0
C509 C 0.56988 0.00196 0.24492 0.0
O510 O 0.52995 0.11613 0.23062 0.0
O511 O 0.52761 0.07665 0.1827 0.0
O512 O 0.62227 0.14835 0.19402 0.0
C513 C 0.50962 0.09839 0.20484 0.0
O514 O 0.54885 0.01958 0.26856 0.0
C515 C 0.62663 0.13942 0.1592 0.0
O516 O 0.5922 0.01982 0.22117 0.0
O517 O 0.61943 0.10461 0.14975 0.0
C518 C 0.87 0.59051 0.13096 0.0
O519 O 0.90528 0.5855 0.12155 0.0
Cd520 Cd 0.9532 0.56506 0.16465 0.0
O521 O 0.85898 0.58779 0.16557 0.0
Cd522 Cd 0.88838 0.57959 0.22978 0.0
C523 C 0.89813 0.48934 0.20764 0.0
O524 O 0.95179 0.61032 0.2142 0.0
O525 O 0.95118 0.57674 0.26515 0.0
O526 O 0.85328 0.63443 0.24749 0.0
C527 C 0.97026 0.59904 0.24302 0.0
O528 O 0.92514 0.50359 0.18631 0.0
C529 C 0.84575 0.62359 0.2812 0.0
O530 O 0.87688 0.51049 0.2276 0.0
O531 O 0.8548 0.59015 0.29013 0.0
C532 C 0.34666 0.82095 0.13921 0.0
O533 O 0.34518 0.8517 0.12065 0.0
Cd534 Cd 0.3766 0.90785 0.15056 0.0
O535 O 0.3546 0.82191 0.17471 0.0
Cd536 Cd 0.36369 0.86786 0.22717 0.0
C537 C 0.45382 0.86417 0.19423 0.0
O538 O 0.35208 0.934 0.20848 0.0
O539 O 0.39709 0.9242 0.2515 0.0
O540 O 0.29852 0.85499 0.25002 0.0
C541 C 0.37755 0.94761 0.23268 0.0
O542 O 0.44069 0.88591 0.16863 0.0
C543 C 0.30838 0.84717 0.28402 0.0
O544 O 0.43156 0.84996 0.22016 0.0
O545 O 0.34501 0.84576 0.29147 0.0
C546 C 0.11446 0.34535 0.31106 0.0
O547 O 0.10901 0.37536 0.33026 0.0
Cd548 Cd 0.07501 0.42553 0.30045 0.0
O549 O 0.10672 0.34383 0.27553 0.0
Cd550 Cd 0.08594 0.38449 0.22406 0.0
C551 C -0.00309 0.37272 0.25801 0.0
O552 O 0.10831 0.44969 0.24525 0.0
O553 O 0.0622 0.44381 0.20221 0.0
O554 O 0.14166 0.36736 0.18753 0.0
C555 C 0.08635 0.46536 0.2211 0.0
O556 O 0.00999 0.39694 0.28296 0.0
C557 C 0.12178 0.35853 0.15759 0.0
O558 O 0.01915 0.36005 0.23251 0.0
O559 O 0.08467 0.36013 0.1591 0.0
C560 C 0.83212 0.59604 0.84263 0.0
O561 O 0.84475 0.59153 0.87642 0.0
Cd562 Cd 0.80718 0.57029 0.92881 0.0
O563 O 0.79539 0.59482 0.83493 0.0
Cd564 Cd 0.7348 0.58727 0.87358 0.0
C565 C 0.75744 0.49691 0.87841 0.0
O566 O 0.75609 0.61233 0.9352 0.0
O567 O 0.70654 0.57151 0.93559 0.0
O568 O 0.70393 0.64356 0.85173 0.0
C569 C 0.72874 0.5955 0.95377 0.0
O570 O 0.78181 0.50831 0.90445 0.0
C571 C 0.6707 0.62618 0.84599 0.0
O572 O 0.73661 0.51999 0.86038 0.0
O573 O 0.66898 0.59007 0.84818 0.0
C574 C 0.6363 0.35074 0.10424 0.0
O575 O 0.62551 0.3848 0.10376 0.0
Cd576 Cd 0.66419 0.43685 0.07849 0.0
O577 O 0.67183 0.34309 0.09767 0.0
Cd578 Cd 0.73558 0.3783 0.08701 0.0
C579 C 0.70187 0.38779 -0.00023 0.0
O580 O 0.72648 0.44448 0.10695 0.0
O581 O 0.76899 0.43399 0.06285 0.0
O582 O 0.76641 0.36025 0.14569 0.0
C583 C 0.75222 0.45768 0.08381 0.0
O584 O 0.68129 0.41239 0.01618 0.0
C585 C 0.79742 0.3488 0.13037 0.0
O586 O 0.72459 0.36692 0.01868 0.0
O587 O 0.79823 0.34725 0.09408 0.0
C588 C 0.62224 0.81583 0.11699 0.0
O589 O 0.62126 0.83352 0.0856 0.0
Cd590 Cd 0.5905 0.79932 0.03229 0.0
O591 O 0.61585 0.77996 0.11768 0.0
Cd592 Cd 0.60686 0.72498 0.07536 0.0
C593 C 0.51516 0.75037 0.08096 0.0
O594 O 0.6227 0.74494 0.00925 0.0
O595 O 0.58107 0.69682 0.01723 0.0
O596 O 0.67081 0.70528 0.09355 0.0
C597 C 0.6008 0.71805 -0.00544 0.0
O598 O 0.52724 0.77608 0.05776 0.0
C599 C 0.65953 0.67163 0.10274 0.0
O600 O 0.53851 0.72685 0.0951 0.0
O601 O 0.62276 0.66304 0.10133 0.0
C602 C 0.33565 0.59869 0.10396 0.0
O603 O 0.3461 0.56451 0.10298 0.0
Cd604 Cd 0.3066 0.51108 0.07957 0.0
O605 O 0.30001 0.60658 0.09775 0.0
Cd606 Cd 0.2361 0.57105 0.08705 0.0
C607 C 0.26674 0.55474 -0.00072 0.0
O608 O 0.24524 0.50606 0.10899 0.0
O609 O 0.20012 0.51461 0.06617 0.0
O610 O 0.20592 0.59255 0.14489 0.0
C611 C 0.21797 0.49191 0.08729 0.0
O612 O 0.28777 0.53071 0.01598 0.0
C613 C 0.17491 0.60313 0.12847 0.0
O614 O 0.24551 0.57716 0.01804 0.0
O615 O 0.17418 0.60283 0.09213 0.0
C616 C 0.34859 0.13903 0.11947 0.0
O617 O 0.34955 0.12098 0.08801 0.0
Cd618 Cd 0.38313 0.15257 0.03636 0.0
O619 O 0.35738 0.17454 0.121 0.0
Cd620 Cd 0.37081 0.22847 0.07923 0.0
C621 C 0.46038 0.19893 0.08736 0.0
O622 O 0.35141 0.20728 0.01441 0.0
O623 O 0.39518 0.2542 0.02012 0.0
O624 O 0.30825 0.24876 0.09774 0.0
C625 C 0.373 0.23313 -0.00137 0.0
O626 O 0.44705 0.17316 0.06412 0.0
C627 C 0.31955 0.28314 0.10446 0.0
O628 O 0.43844 0.22422 0.10042 0.0
O629 O 0.35617 0.29202 0.10222 0.0
C630 C 0.12388 0.34561 0.84263 0.0
O631 O 0.11128 0.34968 0.87634 0.0
Cd632 Cd 0.14998 0.37214 0.92905 0.0
O633 O 0.16064 0.34652 0.83579 0.0
Cd634 Cd 0.22169 0.35212 0.8754 0.0
C635 C 0.20121 0.44332 0.87884 0.0
O636 O 0.20173 0.33135 0.939 0.0
O637 O 0.25124 0.37218 0.93598 0.0
O638 O 0.25244 0.29394 0.85618 0.0
C639 C 0.22972 0.34991 0.95602 0.0
O640 O 0.17674 0.4329 0.90451 0.0
C641 C 0.28522 0.31102 0.84861 0.0
O642 O 0.22141 0.4194 0.86116 0.0
O643 O 0.28667 0.34723 0.8491 0.0
C644 C 0.59897 0.32421 0.8563 0.0
O645 O 0.56358 0.3338 0.85814 0.0
Cd646 Cd 0.51136 0.29204 0.87892 0.0
O647 O 0.60796 0.28973 0.86092 0.0
Cd648 Cd 0.57544 0.2257 0.86894 0.0
C649 C 0.55986 0.25303 0.95775 0.0
O650 O 0.51161 0.23734 0.84019 0.0
O651 O 0.51312 0.18975 0.87839 0.0
O652 O 0.60836 0.20477 0.81295 0.0
C653 C 0.49329 0.20958 0.85596 0.0
O654 O 0.53401 0.27305 0.94206 0.0
C655 C 0.61631 0.17221 0.82549 0.0
O656 O 0.58253 0.23301 0.938 0.0
O657 O 0.60892 0.16557 0.86038 0.0
C658 C 0.3607 0.61465 0.85239 0.0
O659 O 0.39602 0.60469 0.85369 0.0
Cd660 Cd 0.4499 0.64613 0.87405 0.0
O661 O 0.35242 0.64926 0.85767 0.0
Cd662 Cd 0.38692 0.7125 0.86587 0.0
C663 C 0.40706 0.68689 0.95439 0.0
O664 O 0.45014 0.70127 0.83661 0.0
O665 O 0.44878 0.74968 0.87481 0.0
O666 O 0.35261 0.73179 0.80983 0.0
C667 C 0.46834 0.72971 0.85231 0.0
O668 O 0.43188 0.66624 0.93814 0.0
C669 C 0.34489 0.76458 0.82228 0.0
O670 O 0.38341 0.70643 0.93512 0.0
O671 O 0.35308 0.77207 0.85714 0.0
loop_
_geom_bond_atom_site_label_1
_geom_bond_atom_site_label_2
_geom_bond_distance
_geom_bond_site_symmetry_2
_ccdc_geom_bond_type
C0 O1 1.306 . S
C0 O3 1.160 . S
O1 C0 1.306 . S
O1 Cd2 2.228 . S
Cd2 O1 2.228 . S
Cd2 O6 2.273 . S
Cd2 O10 2.277 . S
O3 C0 1.160 . S
O3 Cd4 2.203 . S
Cd4 O3 2.203 . S
Cd4 O6 2.411 . S
Cd4 O7 2.333 . S
Cd4 O8 2.352 . S
Cd4 O12 2.277 . S
Cd4 O13 2.356 . S
C5 O10 1.209 . S
C5 O12 1.226 . S
O6 Cd2 2.273 . S
O6 Cd4 2.411 . S
O6 C9 1.320 . S
O7 Cd4 2.333 . S
O7 C9 1.214 . S
O8 Cd4 2.352 . S
O8 C11 1.258 . S
C9 O6 1.320 . S
C9 O7 1.214 . S
O10 Cd2 2.277 . S
O10 C5 1.209 . S
C11 O8 1.258 . S
C11 O13 1.282 . S
O12 Cd4 2.277 . S
O12 C5 1.226 . S
O13 Cd4 2.356 . S
O13 C11 1.282 . S
C14 O15 1.306 . S
C14 O17 1.160 . S
O15 C14 1.306 . S
O15 Cd16 2.228 . S
Cd16 O15 2.228 . S
Cd16 O20 2.273 . S
Cd16 O24 2.277 . S
O17 C14 1.160 . S
O17 Cd18 2.203 . S
Cd18 O17 2.203 . S
Cd18 O20 2.411 . S
Cd18 O21 2.333 . S
Cd18 O22 2.352 . S
Cd18 O26 2.277 . S
Cd18 O27 2.356 . S
C19 O24 1.209 . S
C19 O26 1.226 . S
O20 Cd16 2.273 . S
O20 Cd18 2.411 . S
O20 C23 1.320 . S
O21 Cd18 2.333 . S
O21 C23 1.214 . S
O22 Cd18 2.352 . S
O22 C25 1.258 . S
C23 O20 1.320 . S
C23 O21 1.214 . S
O24 Cd16 2.277 . S
O24 C19 1.209 . S
C25 O22 1.258 . S
C25 O27 1.282 . S
O26 Cd18 2.277 . S
O26 C19 1.226 . S
O27 Cd18 2.356 . S
O27 C25 1.282 . S
C28 O29 1.306 . S
C28 O31 1.160 . S
O29 C28 1.306 . S
O29 Cd30 2.228 . S
Cd30 O29 2.228 . S
Cd30 O34 2.273 . S
Cd30 O38 2.277 . S
O31 C28 1.160 . S
O31 Cd32 2.203 . S
Cd32 O31 2.203 . S
Cd32 O34 2.411 . S
Cd32 O35 2.333 . S
Cd32 O36 2.352 . S
Cd32 O40 2.277 . S
Cd32 O41 2.356 . S
C33 O38 1.209 . S
C33 O40 1.226 . S
O34 Cd30 2.273 . S
O34 Cd32 2.411 . S
O34 C37 1.320 . S
O35 Cd32 2.333 . S
O35 C37 1.214 . S
O36 Cd32 2.352 . S
O36 C39 1.258 . S
C37 O34 1.320 . S
C37 O35 1.214 . S
O38 Cd30 2.277 . S
O38 C33 1.209 . S
C39 O36 1.258 . S
C39 O41 1.282 . S
O40 Cd32 2.277 . S
O40 C33 1.226 . S
O41 Cd32 2.356 . S
O41 C39 1.282 . S
C42 O43 1.306 . S
C42 O45 1.160 . S
O43 C42 1.306 . S
O43 Cd44 2.228 . S
Cd44 O43 2.228 . S
Cd44 O48 2.273 . S
Cd44 O52 2.277 . S
O45 C42 1.160 . S
O45 Cd46 2.203 . S
Cd46 O45 2.203 . S
Cd46 O48 2.411 . S
Cd46 O49 2.333 . S
Cd46 O50 2.352 . S
Cd46 O54 2.277 . S
Cd46 O55 2.356 . S
C47 O52 1.209 . S
C47 O54 1.226 . S
O48 Cd44 2.273 . S
O48 Cd46 2.411 . S
O48 C51 1.320 . S
O49 Cd46 2.333 . S
O49 C51 1.214 . S
O50 Cd46 2.352 . S
O50 C53 1.258 . S
C51 O48 1.320 . S
C51 O49 1.214 . S
O52 Cd44 2.277 . S
O52 C47 1.209 . S
C53 O50 1.258 . S
C53 O55 1.282 . S
O54 Cd46 2.277 . S
O54 C47 1.226 . S
O55 Cd46 2.356 . S
O55 C53 1.282 . S
C56 O57 1.306 . S
C56 O59 1.160 . S
O57 C56 1.306 . S
O57 Cd58 2.228 . S
Cd58 O57 2.228 . S
Cd58 O62 2.273 . S
Cd58 O66 2.277 . S
O59 C56 1.160 . S
O59 Cd60 2.203 . S
Cd60 O59 2.203 . S
Cd60 O62 2.411 . S
Cd60 O63 2.333 . S
Cd60 O64 2.352 . S
Cd60 O68 2.277 . S
Cd60 O69 2.356 . S
C61 O66 1.209 . S
C61 O68 1.226 . S
O62 Cd58 2.273 . S
O62 Cd60 2.411 . S
O62 C65 1.320 . S
O63 Cd60 2.333 . S
O63 C65 1.214 . S
O64 Cd60 2.352 . S
O64 C67 1.258 . S
C65 O62 1.320 . S
C65 O63 1.214 . S
O66 Cd58 2.277 . S
O66 C61 1.209 . S
C67 O64 1.258 . S
C67 O69 1.282 . S
O68 Cd60 2.277 . S
O68 C61 1.226 . S
O69 Cd60 2.356 . S
O69 C67 1.282 . S
C70 O71 1.306 . S
C70 O73 1.160 . S
O71 C70 1.306 . S
O71 Cd72 2.228 . S
Cd72 O71 2.228 . S
Cd72 O76 2.273 . S
Cd72 O80 2.277 . S
O73 C70 1.160 . S
O73 Cd74 2.203 . S
Cd74 O73 2.203 . S
Cd74 O76 2.411 . S
Cd74 O77 2.333 . S
Cd74 O78 2.352 . S
Cd74 O82 2.277 . S
Cd74 O83 2.356 . S
C75 O80 1.209 . S
C75 O82 1.226 . S
O76 Cd72 2.273 . S
O76 Cd74 2.411 . S
O76 C79 1.320 . S
O77 Cd74 2.333 . S
O77 C79 1.214 . S
O78 Cd74 2.352 . S
O78 C81 1.258 . S
C79 O76 1.320 . S
C79 O77 1.214 . S
O80 Cd72 2.277 . S
O80 C75 1.209 . S
C81 O78 1.258 . S
C81 O83 1.282 . S
O82 Cd74 2.277 . S
O82 C75 1.226 . S
O83 Cd74 2.356 . S
O83 C81 1.282 . S
C84 O85 1.306 . S
C84 O87 1.160 . S
O85 C84 1.306 . S
O85 Cd86 2.228 . S
Cd86 O85 2.228 . S
Cd86 O90 2.273 . S
Cd86 O94 2.277 . S
O87 C84 1.160 . S
O87 Cd88 2.203 . S
Cd88 O87 2.203 . S
Cd88 O90 2.411 . S
Cd88 O91 2.333 . S
Cd88 O92 2.352 . S
Cd88 O96 2.277 . S
Cd88 O97 2.356 . S
C89 O94 1.209 . S
C89 O96 1.226 . S
O90 Cd86 2.273 . S
O90 Cd88 2.411 . S
O90 C93 1.320 . S
O91 Cd88 2.333 . S
O91 C93 1.214 . S
O92 Cd88 2.352 . S
O92 C95 1.258 . S
C93 O90 1.320 . S
C93 O91 1.214 . S
O94 Cd86 2.277 . S
O94 C89 1.209 . S
C95 O92 1.258 . S
C95 O97 1.282 . S
O96 Cd88 2.277 . S
O96 C89 1.226 . S
O97 Cd88 2.356 . S
O97 C95 1.282 . S
C98 O99 1.306 . S
C98 O101 1.160 . S
O99 C98 1.306 . S
O99 Cd100 2.228 . S
Cd100 O99 2.228 . S
Cd100 O104 2.273 . S
Cd100 O108 2.277 . S
O101 C98 1.160 . S
O101 Cd102 2.203 . S
Cd102 O101 2.203 . S
Cd102 O104 2.411 . S
Cd102 O105 2.333 . S
Cd102 O106 2.352 . S
Cd102 O110 2.277 . S
Cd102 O111 2.356 . S
C103 O108 1.209 . S
C103 O110 1.226 . S
O104 Cd100 2.273 . S
O104 Cd102 2.411 . S
O104 C107 1.320 . S
O105 Cd102 2.333 . S
O105 C107 1.214 . S
O106 Cd102 2.352 . S
O106 C109 1.258 . S
C107 O104 1.320 . S
C107 O105 1.214 . S
O108 Cd100 2.277 . S
O108 C103 1.209 . S
C109 O106 1.258 . S
C109 O111 1.282 . S
O110 Cd102 2.277 . S
O110 C103 1.226 . S
O111 Cd102 2.356 . S
O111 C109 1.282 . S
C112 O113 1.306 . S
C112 O115 1.160 . S
O113 C112 1.306 . S
O113 Cd114 2.228 . S
Cd114 O113 2.228 . S
Cd114 O118 2.273 . S
Cd114 O122 2.277 . S
O115 C112 1.160 . S
O115 Cd116 2.203 . S
Cd116 O115 2.203 . S
Cd116 O118 2.411 . S
Cd116 O119 2.333 . S
Cd116 O120 2.352 . S
Cd116 O124 2.277 . S
Cd116 O125 2.356 . S
C117 O122 1.209 . S
C117 O124 1.226 . S
O118 Cd114 2.273 . S
O118 Cd116 2.411 . S
O118 C121 1.320 . S
O119 Cd116 2.333 . S
O119 C121 1.214 . S
O120 Cd116 2.352 . S
O120 C123 1.258 . S
C121 O118 1.320 . S
C121 O119 1.214 . S
O122 Cd114 2.277 . S
O122 C117 1.209 . S
C123 O120 1.258 . S
C123 O125 1.282 . S
O124 Cd116 2.277 . S
O124 C117 1.226 . S
O125 Cd116 2.356 . S
O125 C123 1.282 . S
C126 O127 1.306 . S
C126 O129 1.160 . S
O127 C126 1.306 . S
O127 Cd128 2.228 . S
Cd128 O127 2.228 . S
Cd128 O132 2.273 . S
Cd128 O136 2.277 . S
O129 C126 1.160 . S
O129 Cd130 2.203 . S
Cd130 O129 2.203 . S
Cd130 O132 2.411 . S
Cd130 O133 2.333 . S
Cd130 O134 2.352 . S
Cd130 O138 2.277 . S
Cd130 O139 2.356 . S
C131 O136 1.209 . S
C131 O138 1.226 . S
O132 Cd128 2.273 . S
O132 Cd130 2.411 . S
O132 C135 1.320 . S
O133 Cd130 2.333 . S
O133 C135 1.214 . S
O134 Cd130 2.352 . S
O134 C137 1.258 . S
C135 O132 1.320 . S
C135 O133 1.214 . S
O136 Cd128 2.277 . S
O136 C131 1.209 . S
C137 O134 1.258 . S
C137 O139 1.282 . S
O138 Cd130 2.277 . S
O138 C131 1.226 . S
O139 Cd130 2.356 . S
O139 C137 1.282 . S
C140 O141 1.306 . S
C140 O143 1.160 . S
O141 C140 1.306 . S
O141 Cd142 2.228 . S
Cd142 O141 2.228 . S
Cd142 O146 2.273 . S
Cd142 O150 2.277 . S
O143 C140 1.160 . S
O143 Cd144 2.203 . S
Cd144 O143 2.203 . S
Cd144 O146 2.411 . S
Cd144 O147 2.333 . S
Cd144 O148 2.352 . S
Cd144 O152 2.277 . S
Cd144 O153 2.356 . S
C145 O150 1.209 . S
C145 O152 1.226 . S
O146 Cd142 2.273 . S
O146 Cd144 2.411 . S
O146 C149 1.320 . S
O147 Cd144 2.333 . S
O147 C149 1.214 . S
O148 Cd144 2.352 . S
O148 C151 1.258 . S
C149 O146 1.320 . S
C149 O147 1.214 . S
O150 Cd142 2.277 . S
O150 C145 1.209 . S
C151 O148 1.258 . S
C151 O153 1.282 . S
O152 Cd144 2.277 . S
O152 C145 1.226 . S
O153 Cd144 2.356 . S
O153 C151 1.282 . S
C154 O155 1.306 . S
C154 O157 1.160 . S
O155 C154 1.306 . S
O155 Cd156 2.228 . S
Cd156 O155 2.228 . S
Cd156 O160 2.273 . S
Cd156 O164 2.277 . S
O157 C154 1.160 . S
O157 Cd158 2.203 . S
Cd158 O157 2.203 . S
Cd158 O160 2.411 . S
Cd158 O161 2.333 . S
Cd158 O162 2.352 . S
Cd158 O166 2.277 . S
Cd158 O167 2.356 . S
C159 O164 1.209 . S
C159 O166 1.226 . S
O160 Cd156 2.273 . S
O160 Cd158 2.411 . S
O160 C163 1.320 . S
O161 Cd158 2.333 . S
O161 C163 1.214 . S
O162 Cd158 2.352 . S
O162 C165 1.258 . S
C163 O160 1.320 . S
C163 O161 1.214 . S
O164 Cd156 2.277 . S
O164 C159 1.209 . S
C165 O162 1.258 . S
C165 O167 1.282 . S
O166 Cd158 2.277 . S
O166 C159 1.226 . S
O167 Cd158 2.356 . S
O167 C165 1.282 . S
C168 O169 1.306 . S
C168 O171 1.160 . S
O169 C168 1.306 . S
O169 Cd170 2.228 . S
Cd170 O169 2.228 . S
Cd170 O174 2.273 . S
Cd170 O178 2.277 . S
O171 C168 1.160 . S
O171 Cd172 2.203 . S
Cd172 O171 2.203 . S
Cd172 O174 2.411 . S
Cd172 O175 2.333 . S
Cd172 O176 2.352 . S
Cd172 O180 2.277 . S
Cd172 O181 2.356 . S
C173 O178 1.209 . S
C173 O180 1.226 . S
O174 Cd170 2.273 . S
O174 Cd172 2.411 . S
O174 C177 1.320 . S
O175 Cd172 2.333 . S
O175 C177 1.214 . S
O176 Cd172 2.352 . S
O176 C179 1.258 . S
C177 O174 1.320 . S
C177 O175 1.214 . S
O178 Cd170 2.277 . S
O178 C173 1.209 . S
C179 O176 1.258 . S
C179 O181 1.282 . S
O180 Cd172 2.277 . S
O180 C173 1.226 . S
O181 Cd172 2.356 . S
O181 C179 1.282 . S
C182 O183 1.306 . S
C182 O185 1.160 . S
O183 C182 1.306 . S
O183 Cd184 2.228 . S
Cd184 O183 2.228 . S
Cd184 O188 2.273 . S
Cd184 O192 2.277 . S
O185 C182 1.160 . S
O185 Cd186 2.203 . S
Cd186 O185 2.203 . S
Cd186 O188 2.411 . S
Cd186 O189 2.333 . S
Cd186 O190 2.352 . S
Cd186 O194 2.277 . S
Cd186 O195 2.356 . S
C187 O192 1.209 . S
C187 O194 1.226 . S
O188 Cd184 2.273 . S
O188 Cd186 2.411 . S
O188 C191 1.320 . S
O189 Cd186 2.333 . S
O189 C191 1.214 . S
O190 Cd186 2.352 . S
O190 C193 1.258 . S
C191 O188 1.320 . S
C191 O189 1.214 . S
O192 Cd184 2.277 . S
O192 C187 1.209 . S
C193 O190 1.258 . S
C193 O195 1.282 . S
O194 Cd186 2.277 . S
O194 C187 1.226 . S
O195 Cd186 2.356 . S
O195 C193 1.282 . S
C196 O197 1.306 . S
C196 O199 1.160 . S
O197 C196 1.306 . S
O197 Cd198 2.228 . S
Cd198 O197 2.228 . S
Cd198 O202 2.273 . S
Cd198 O206 2.277 . S
O199 C196 1.160 . S
O199 Cd200 2.203 . S
Cd200 O199 2.203 . S
Cd200 O202 2.411 . S
Cd200 O203 2.333 . S
Cd200 O204 2.352 . S
Cd200 O208 2.277 . S
Cd200 O209 2.356 . S
C201 O206 1.209 . S
C201 O208 1.226 . S
O202 Cd198 2.273 . S
O202 Cd200 2.411 . S
O202 C205 1.320 . S
O203 Cd200 2.333 . S
O203 C205 1.214 . S
O204 Cd200 2.352 . S
O204 C207 1.258 . S
C205 O202 1.320 . S
C205 O203 1.214 . S
O206 Cd198 2.277 . S
O206 C201 1.209 . S
C207 O204 1.258 . S
C207 O209 1.282 . S
O208 Cd200 2.277 . S
O208 C201 1.226 . S
O209 Cd200 2.356 . S
O209 C207 1.282 . S
C210 O211 1.306 . S
C210 O213 1.160 . S
O211 C210 1.306 . S
O211 Cd212 2.228 . S
Cd212 O211 2.228 . S
Cd212 O216 2.273 . S
Cd212 O220 2.277 . S
O213 C210 1.160 . S
O213 Cd214 2.203 . S
Cd214 O213 2.203 . S
Cd214 O216 2.411 . S
Cd214 O217 2.333 . S
Cd214 O218 2.352 . S
Cd214 O222 2.277 . S
Cd214 O223 2.356 . S
C215 O220 1.209 . S
C215 O222 1.226 . S
O216 Cd212 2.273 . S
O216 Cd214 2.411 . S
O216 C219 1.320 . S
O217 Cd214 2.333 . S
O217 C219 1.214 . S
O218 Cd214 2.352 . S
O218 C221 1.258 . S
C219 O216 1.320 . S
C219 O217 1.214 . S
O220 Cd212 2.277 . S
O220 C215 1.209 . S
C221 O218 1.258 . S
C221 O223 1.282 . S
O222 Cd214 2.277 . S
O222 C215 1.226 . S
O223 Cd214 2.356 . S
O223 C221 1.282 . S
C224 O225 1.306 . S
C224 O227 1.160 . S
O225 C224 1.306 . S
O225 Cd226 2.228 . S
Cd226 O225 2.228 . S
Cd226 O230 2.273 . S
Cd226 O234 2.277 . S
O227 C224 1.160 . S
O227 Cd228 2.203 . S
Cd228 O227 2.203 . S
Cd228 O230 2.411 . S
Cd228 O231 2.333 . S
Cd228 O232 2.352 . S
Cd228 O236 2.277 . S
Cd228 O237 2.356 . S
C229 O234 1.209 . S
C229 O236 1.226 . S
O230 Cd226 2.273 . S
O230 Cd228 2.411 . S
O230 C233 1.320 . S
O231 Cd228 2.333 . S
O231 C233 1.214 . S
O232 Cd228 2.352 . S
O232 C235 1.258 . S
C233 O230 1.320 . S
C233 O231 1.214 . S
O234 Cd226 2.277 . S
O234 C229 1.209 . S
C235 O232 1.258 . S
C235 O237 1.282 . S
O236 Cd228 2.277 . S
O236 C229 1.226 . S
O237 Cd228 2.356 . S
O237 C235 1.282 . S
C238 O239 1.306 . S
C238 O241 1.160 . S
O239 C238 1.306 . S
O239 Cd240 2.228 . S
Cd240 O239 2.228 . S
Cd240 O244 2.273 . S
Cd240 O248 2.277 . S
O241 C238 1.160 . S
O241 Cd242 2.203 . S
Cd242 O241 2.203 . S
Cd242 O244 2.411 . S
Cd242 O245 2.333 . S
Cd242 O246 2.352 . S
Cd242 O250 2.277 . S
Cd242 O251 2.356 . S
C243 O248 1.209 . S
C243 O250 1.226 . S
O244 Cd240 2.273 . S
O244 Cd242 2.411 . S
O244 C247 1.320 . S
O245 Cd242 2.333 . S
O245 C247 1.214 . S
O246 Cd242 2.352 . S
O246 C249 1.258 . S
C247 O244 1.320 . S
C247 O245 1.214 . S
O248 Cd240 2.277 . S
O248 C243 1.209 . S
C249 O246 1.258 . S
C249 O251 1.282 . S
O250 Cd242 2.277 . S
O250 C243 1.226 . S
O251 Cd242 2.356 . S
O251 C249 1.282 . S
C252 O253 1.306 . S
C252 O255 1.160 . S
O253 C252 1.306 . S
O253 Cd254 2.228 . S
Cd254 O253 2.228 . S
Cd254 O258 2.273 . S
Cd254 O262 2.277 . S
O255 C252 1.160 . S
O255 Cd256 2.203 . S
Cd256 O255 2.203 . S
Cd256 O258 2.411 . S
Cd256 O259 2.333 . S
Cd256 O260 2.352 . S
Cd256 O264 2.277 . S
Cd256 O265 2.356 . S
C257 O262 1.209 . S
C257 O264 1.226 . S
O258 Cd254 2.273 . S
O258 Cd256 2.411 . S
O258 C261 1.320 . S
O259 Cd256 2.333 . S
O259 C261 1.214 . S
O260 Cd256 2.352 . S
O260 C263 1.258 . S
C261 O258 1.320 . S
C261 O259 1.214 . S
O262 Cd254 2.277 . S
O262 C257 1.209 . S
C263 O260 1.258 . S
C263 O265 1.282 . S
O264 Cd256 2.277 . S
O264 C257 1.226 . S
O265 Cd256 2.356 . S
O265 C263 1.282 . S
C266 O267 1.306 . S
C266 O269 1.160 . S
O267 C266 1.306 . S
O267 Cd268 2.228 . S
Cd268 O267 2.228 . S
Cd268 O272 2.273 . S
Cd268 O276 2.277 . S
O269 C266 1.160 . S
O269 Cd270 2.203 . S
Cd270 O269 2.203 . S
Cd270 O272 2.411 . S
Cd270 O273 2.333 . S
Cd270 O274 2.352 . S
Cd270 O278 2.277 . S
Cd270 O279 2.356 . S
C271 O276 1.209 . S
C271 O278 1.226 . S
O272 Cd268 2.273 . S
O272 Cd270 2.411 . S
O272 C275 1.320 . S
O273 Cd270 2.333 . S
O273 C275 1.214 . S
O274 Cd270 2.352 . S
O274 C277 1.258 . S
C275 O272 1.320 . S
C275 O273 1.214 . S
O276 Cd268 2.277 . S
O276 C271 1.209 . S
C277 O274 1.258 . S
C277 O279 1.282 . S
O278 Cd270 2.277 . S
O278 C271 1.226 . S
O279 Cd270 2.356 . S
O279 C277 1.282 . S
C280 O281 1.306 . S
C280 O283 1.160 . S
O281 C280 1.306 . S
O281 Cd282 2.228 . S
Cd282 O281 2.228 . S
Cd282 O286 2.273 . S
Cd282 O290 2.277 . S
O283 C280 1.160 . S
O283 Cd284 2.203 . S
Cd284 O283 2.203 . S
Cd284 O286 2.411 . S
Cd284 O287 2.333 . S
Cd284 O288 2.352 . S
Cd284 O292 2.277 . S
Cd284 O293 2.356 . S
C285 O290 1.209 . S
C285 O292 1.226 . S
O286 Cd282 2.273 . S
O286 Cd284 2.411 . S
O286 C289 1.320 . S
O287 Cd284 2.333 . S
O287 C289 1.214 . S
O288 Cd284 2.352 . S
O288 C291 1.258 . S
C289 O286 1.320 . S
C289 O287 1.214 . S
O290 Cd282 2.277 . S
O290 C285 1.209 . S
C291 O288 1.258 . S
C291 O293 1.282 . S
O292 Cd284 2.277 . S
O292 C285 1.226 . S
O293 Cd284 2.356 . S
O293 C291 1.282 . S
C294 O295 1.306 . S
C294 O297 1.160 . S
O295 C294 1.306 . S
O295 Cd296 2.228 . S
Cd296 O295 2.228 . S
Cd296 O300 2.273 . S
Cd296 O304 2.277 . S
O297 C294 1.160 . S
O297 Cd298 2.203 . S
Cd298 O297 2.203 . S
Cd298 O300 2.411 . S
Cd298 O301 2.333 . S
Cd298 O302 2.352 . S
Cd298 O306 2.277 . S
Cd298 O307 2.356 . S
C299 O304 1.209 . S
C299 O306 1.226 . S
O300 Cd296 2.273 . S
O300 Cd298 2.411 . S
O300 C303 1.320 . S
O301 Cd298 2.333 . S
O301 C303 1.214 . S
O302 Cd298 2.352 . S
O302 C305 1.258 . S
C303 O300 1.320 . S
C303 O301 1.214 . S
O304 Cd296 2.277 . S
O304 C299 1.209 . S
C305 O302 1.258 . S
C305 O307 1.282 . S
O306 Cd298 2.277 . S
O306 C299 1.226 . S
O307 Cd298 2.356 . S
O307 C305 1.282 . S
C308 O309 1.306 . S
C308 O311 1.160 . S
O309 C308 1.306 . S
O309 Cd310 2.228 . S
Cd310 O309 2.228 . S
Cd310 O314 2.273 . S
Cd310 O318 2.277 . S
O311 C308 1.160 . S
O311 Cd312 2.203 . S
Cd312 O311 2.203 . S
Cd312 O314 2.411 . S
Cd312 O315 2.333 . S
Cd312 O316 2.352 . S
Cd312 O320 2.277 . S
Cd312 O321 2.356 . S
C313 O318 1.209 . S
C313 O320 1.226 . S
O314 Cd310 2.273 . S
O314 Cd312 2.411 . S
O314 C317 1.320 . S
O315 Cd312 2.333 . S
O315 C317 1.214 . S
O316 Cd312 2.352 . S
O316 C319 1.258 . S
C317 O314 1.320 . S
C317 O315 1.214 . S
O318 Cd310 2.277 . S
O318 C313 1.209 . S
C319 O316 1.258 . S
C319 O321 1.282 . S
O320 Cd312 2.277 . S
O320 C313 1.226 . S
O321 Cd312 2.356 . S
O321 C319 1.282 . S
C322 O323 1.306 . S
C322 O325 1.160 . S
O323 C322 1.306 . S
O323 Cd324 2.228 . S
Cd324 O323 2.228 . S
Cd324 O328 2.273 . S
Cd324 O332 2.277 . S
O325 C322 1.160 . S
O325 Cd326 2.203 . S
Cd326 O325 2.203 . S
Cd326 O328 2.411 . S
Cd326 O329 2.333 . S
Cd326 O330 2.352 . S
Cd326 O334 2.277 . S
Cd326 O335 2.356 . S
C327 O332 1.209 . S
C327 O334 1.226 . S
O328 Cd324 2.273 . S
O328 Cd326 2.411 . S
O328 C331 1.320 . S
O329 Cd326 2.333 . S
O329 C331 1.214 . S
O330 Cd326 2.352 . S
O330 C333 1.258 . S
C331 O328 1.320 . S
C331 O329 1.214 . S
O332 Cd324 2.277 . S
O332 C327 1.209 . S
C333 O330 1.258 . S
C333 O335 1.282 . S
O334 Cd326 2.277 . S
O334 C327 1.226 . S
O335 Cd326 2.356 . S
O335 C333 1.282 . S
C336 O337 1.306 . S
C336 O339 1.160 . S
O337 C336 1.306 . S
O337 Cd338 2.228 . S
Cd338 O337 2.228 . S
Cd338 O342 2.273 . S
Cd338 O346 2.277 . S
O339 C336 1.160 . S
O339 Cd340 2.203 . S
Cd340 O339 2.203 . S
Cd340 O342 2.411 . S
Cd340 O343 2.333 . S
Cd340 O344 2.352 . S
Cd340 O348 2.277 . S
Cd340 O349 2.356 . S
C341 O346 1.209 . S
C341 O348 1.226 . S
O342 Cd338 2.273 . S
O342 Cd340 2.411 . S
O342 C345 1.320 . S
O343 Cd340 2.333 . S
O343 C345 1.214 . S
O344 Cd340 2.352 . S
O344 C347 1.258 . S
C345 O342 1.320 . S
C345 O343 1.214 . S
O346 Cd338 2.277 . S
O346 C341 1.209 . S
C347 O344 1.258 . S
C347 O349 1.282 . S
O348 Cd340 2.277 . S
O348 C341 1.226 . S
O349 Cd340 2.356 . S
O349 C347 1.282 . S
C350 O351 1.306 . S
C350 O353 1.160 . S
O351 C350 1.306 . S
O351 Cd352 2.228 . S
Cd352 O351 2.228 . S
Cd352 O356 2.273 . S
Cd352 O360 2.277 . S
O353 C350 1.160 . S
O353 Cd354 2.203 . S
Cd354 O353 2.203 . S
Cd354 O356 2.411 . S
Cd354 O357 2.333 . S
Cd354 O358 2.352 . S
Cd354 O362 2.277 . S
Cd354 O363 2.356 . S
C355 O360 1.209 . S
C355 O362 1.226 . S
O356 Cd352 2.273 . S
O356 Cd354 2.411 . S
O356 C359 1.320 . S
O357 Cd354 2.333 . S
O357 C359 1.214 . S
O358 Cd354 2.352 . S
O358 C361 1.258 . S
C359 O356 1.320 . S
C359 O357 1.214 . S
O360 Cd352 2.277 . S
O360 C355 1.209 . S
C361 O358 1.258 . S
C361 O363 1.282 . S
O362 Cd354 2.277 . S
O362 C355 1.226 . S
O363 Cd354 2.356 . S
O363 C361 1.282 . S
C364 O365 1.306 . S
C364 O367 1.160 . S
O365 C364 1.306 . S
O365 Cd366 2.228 . S
Cd366 O365 2.228 . S
Cd366 O370 2.273 . S
Cd366 O374 2.277 . S
O367 C364 1.160 . S
O367 Cd368 2.203 . S
Cd368 O367 2.203 . S
Cd368 O370 2.411 . S
Cd368 O371 2.333 . S
Cd368 O372 2.352 . S
Cd368 O376 2.277 . S
Cd368 O377 2.356 . S
C369 O374 1.209 . S
C369 O376 1.226 . S
O370 Cd366 2.273 . S
O370 Cd368 2.411 . S
O370 C373 1.320 . S
O371 Cd368 2.333 . S
O371 C373 1.214 . S
O372 Cd368 2.352 . S
O372 C375 1.258 . S
C373 O370 1.320 . S
C373 O371 1.214 . S
O374 Cd366 2.277 . S
O374 C369 1.209 . S
C375 O372 1.258 . S
C375 O377 1.282 . S
O376 Cd368 2.277 . S
O376 C369 1.226 . S
O377 Cd368 2.356 . S
O377 C375 1.282 . S
C378 O379 1.306 . S
C378 O381 1.160 . S
O379 C378 1.306 . S
O379 Cd380 2.228 . S
Cd380 O379 2.228 . S
Cd380 O384 2.273 . S
Cd380 O388 2.277 . S
O381 C378 1.160 . S
O381 Cd382 2.203 . S
Cd382 O381 2.203 . S
Cd382 O384 2.411 . S
Cd382 O385 2.333 . S
Cd382 O386 2.352 . S
Cd382 O390 2.277 . S
Cd382 O391 2.356 . S
C383 O388 1.209 . S
C383 O390 1.226 . S
O384 Cd380 2.273 . S
O384 Cd382 2.411 . S
O384 C387 1.320 . S
O385 Cd382 2.333 . S
O385 C387 1.214 . S
O386 Cd382 2.352 . S
O386 C389 1.258 . S
C387 O384 1.320 . S
C387 O385 1.214 . S
O388 Cd380 2.277 . S
O388 C383 1.209 . S
C389 O386 1.258 . S
C389 O391 1.282 . S
O390 Cd382 2.277 . S
O390 C383 1.226 . S
O391 Cd382 2.356 . S
O391 C389 1.282 . S
C392 O393 1.306 . S
C392 O395 1.160 . S
O393 C392 1.306 . S
O393 Cd394 2.228 . S
Cd394 O393 2.228 . S
Cd394 O398 2.273 . S
Cd394 O402 2.277 . S
O395 C392 1.160 . S
O395 Cd396 2.203 . S
Cd396 O395 2.203 . S
Cd396 O398 2.411 . S
Cd396 O399 2.333 . S
Cd396 O400 2.352 . S
Cd396 O404 2.277 . S
Cd396 O405 2.356 . S
C397 O402 1.209 . S
C397 O404 1.226 . S
O398 Cd394 2.273 . S
O398 Cd396 2.411 . S
O398 C401 1.320 . S
O399 Cd396 2.333 . S
O399 C401 1.214 . S
O400 Cd396 2.352 . S
O400 C403 1.258 . S
C401 O398 1.320 . S
C401 O399 1.214 . S
O402 Cd394 2.277 . S
O402 C397 1.209 . S
C403 O400 1.258 . S
C403 O405 1.282 . S
O404 Cd396 2.277 . S
O404 C397 1.226 . S
O405 Cd396 2.356 . S
O405 C403 1.282 . S
C406 O407 1.306 . S
C406 O409 1.160 . S
O407 C406 1.306 . S
O407 Cd408 2.228 . S
Cd408 O407 2.228 . S
Cd408 O412 2.273 . S
Cd408 O416 2.277 . S
O409 C406 1.160 . S
O409 Cd410 2.203 . S
Cd410 O409 2.203 . S
Cd410 O412 2.411 . S
Cd410 O413 2.333 . S
Cd410 O414 2.352 . S
Cd410 O418 2.277 . S
Cd410 O419 2.356 . S
C411 O416 1.209 . S
C411 O418 1.226 . S
O412 Cd408 2.273 . S
O412 Cd410 2.411 . S
O412 C415 1.320 . S
O413 Cd410 2.333 . S
O413 C415 1.214 . S
O414 Cd410 2.352 . S
O414 C417 1.258 . S
C415 O412 1.320 . S
C415 O413 1.214 . S
O416 Cd408 2.277 . S
O416 C411 1.209 . S
C417 O414 1.258 . S
C417 O419 1.282 . S
O418 Cd410 2.277 . S
O418 C411 1.226 . S
O419 Cd410 2.356 . S
O419 C417 1.282 . S
C420 O421 1.306 . S
C420 O423 1.160 . S
O421 C420 1.306 . S
O421 Cd422 2.228 . S
Cd422 O421 2.228 . S
Cd422 O426 2.273 . S
Cd422 O430 2.277 . S
O423 C420 1.160 . S
O423 Cd424 2.203 . S
Cd424 O423 2.203 . S
Cd424 O426 2.411 . S
Cd424 O427 2.333 . S
Cd424 O428 2.352 . S
Cd424 O432 2.277 . S
Cd424 O433 2.356 . S
C425 O430 1.209 . S
C425 O432 1.226 . S
O426 Cd422 2.273 . S
O426 Cd424 2.411 . S
O426 C429 1.320 . S
O427 Cd424 2.333 . S
O427 C429 1.214 . S
O428 Cd424 2.352 . S
O428 C431 1.258 . S
C429 O426 1.320 . S
C429 O427 1.214 . S
O430 Cd422 2.277 . S
O430 C425 1.209 . S
C431 O428 1.258 . S
C431 O433 1.282 . S
O432 Cd424 2.277 . S
O432 C425 1.226 . S
O433 Cd424 2.356 . S
O433 C431 1.282 . S
C434 O435 1.306 . S
C434 O437 1.160 . S
O435 C434 1.306 . S
O435 Cd436 2.228 . S
Cd436 O435 2.228 . S
Cd436 O440 2.273 . S
Cd436 O444 2.277 . S
O437 C434 1.160 . S
O437 Cd438 2.203 . S
Cd438 O437 2.203 . S
Cd438 O440 2.411 . S
Cd438 O441 2.333 . S
Cd438 O442 2.352 . S
Cd438 O446 2.277 . S
Cd438 O447 2.356 . S
C439 O444 1.209 . S
C439 O446 1.226 . S
O440 Cd436 2.273 . S
O440 Cd438 2.411 . S
O440 C443 1.320 . S
O441 Cd438 2.333 . S
O441 C443 1.214 . S
O442 Cd438 2.352 . S
O442 C445 1.258 . S
C443 O440 1.320 . S
C443 O441 1.214 . S
O444 Cd436 2.277 . S
O444 C439 1.209 . S
C445 O442 1.258 . S
C445 O447 1.282 . S
O446 Cd438 2.277 . S
O446 C439 1.226 . S
O447 Cd438 2.356 . S
O447 C445 1.282 . S
C448 O449 1.306 . S
C448 O451 1.160 . S
O449 C448 1.306 . S
O449 Cd450 2.228 . S
Cd450 O449 2.228 . S
Cd450 O454 2.273 . S
Cd450 O458 2.277 . S
O451 C448 1.160 . S
O451 Cd452 2.203 . S
Cd452 O451 2.203 . S
Cd452 O454 2.411 . S
Cd452 O455 2.333 . S
Cd452 O456 2.352 . S
Cd452 O460 2.277 . S
Cd452 O461 2.356 . S
C453 O458 1.209 . S
C453 O460 1.226 . S
O454 Cd450 2.273 . S
O454 Cd452 2.411 . S
O454 C457 1.320 . S
O455 Cd452 2.333 . S
O455 C457 1.214 . S
O456 Cd452 2.352 . S
O456 C459 1.258 . S
C457 O454 1.320 . S
C457 O455 1.214 . S
O458 Cd450 2.277 . S
O458 C453 1.209 . S
C459 O456 1.258 . S
C459 O461 1.282 . S
O460 Cd452 2.277 . S
O460 C453 1.226 . S
O461 Cd452 2.356 . S
O461 C459 1.282 . S
C462 O463 1.306 . S
C462 O465 1.160 . S
O463 C462 1.306 . S
O463 Cd464 2.228 . S
Cd464 O463 2.228 . S
Cd464 O468 2.273 . S
Cd464 O472 2.277 . S
O465 C462 1.160 . S
O465 Cd466 2.203 . S
Cd466 O465 2.203 . S
Cd466 O468 2.411 . S
Cd466 O469 2.333 . S
Cd466 O470 2.352 . S
Cd466 O474 2.277 . S
Cd466 O475 2.356 . S
C467 O472 1.209 . S
C467 O474 1.226 . S
O468 Cd464 2.273 . S
O468 Cd466 2.411 . S
O468 C471 1.320 . S
O469 Cd466 2.333 . S
O469 C471 1.214 . S
O470 Cd466 2.352 . S
O470 C473 1.258 . S
C471 O468 1.320 . S
C471 O469 1.214 . S
O472 Cd464 2.277 . S
O472 C467 1.209 . S
C473 O470 1.258 . S
C473 O475 1.282 . S
O474 Cd466 2.277 . S
O474 C467 1.226 . S
O475 Cd466 2.356 . S
O475 C473 1.282 . S
C476 O477 1.306 . S
C476 O479 1.160 . S
O477 C476 1.306 . S
O477 Cd478 2.228 . S
Cd478 O477 2.228 . S
Cd478 O482 2.273 . S
Cd478 O486 2.277 . S
O479 C476 1.160 . S
O479 Cd480 2.203 . S
Cd480 O479 2.203 . S
Cd480 O482 2.411 . S
Cd480 O483 2.333 . S
Cd480 O484 2.352 . S
Cd480 O488 2.277 . S
Cd480 O489 2.356 . S
C481 O486 1.209 . S
C481 O488 1.226 . S
O482 Cd478 2.273 . S
O482 Cd480 2.411 . S
O482 C485 1.320 . S
O483 Cd480 2.333 . S
O483 C485 1.214 . S
O484 Cd480 2.352 . S
O484 C487 1.258 . S
C485 O482 1.320 . S
C485 O483 1.214 . S
O486 Cd478 2.277 . S
O486 C481 1.209 . S
C487 O484 1.258 . S
C487 O489 1.282 . S
O488 Cd480 2.277 . S
O488 C481 1.226 . S
O489 Cd480 2.356 . S
O489 C487 1.282 . S
C490 O491 1.306 . S
C490 O493 1.160 . S
O491 C490 1.306 . S
O491 Cd492 2.228 . S
Cd492 O491 2.228 . S
Cd492 O496 2.273 . S
Cd492 O500 2.277 . S
O493 C490 1.160 . S
O493 Cd494 2.203 . S
Cd494 O493 2.203 . S
Cd494 O496 2.411 . S
Cd494 O497 2.333 . S
Cd494 O498 2.352 . S
Cd494 O502 2.277 . S
Cd494 O503 2.356 . S
C495 O500 1.209 . S
C495 O502 1.226 . S
O496 Cd492 2.273 . S
O496 Cd494 2.411 . S
O496 C499 1.320 . S
O497 Cd494 2.333 . S
O497 C499 1.214 . S
O498 Cd494 2.352 . S
O498 C501 1.258 . S
C499 O496 1.320 . S
C499 O497 1.214 . S
O500 Cd492 2.277 . S
O500 C495 1.209 . S
C501 O498 1.258 . S
C501 O503 1.282 . S
O502 Cd494 2.277 . S
O502 C495 1.226 . S
O503 Cd494 2.356 . S
O503 C501 1.282 . S
C504 O505 1.306 . S
C504 O507 1.160 . S
O505 C504 1.306 . S
O505 Cd506 2.228 . S
Cd506 O505 2.228 . S
Cd506 O510 2.273 . S
Cd506 O514 2.277 . S
O507 C504 1.160 . S
O507 Cd508 2.203 . S
Cd508 O507 2.203 . S
Cd508 O510 2.411 . S
Cd508 O511 2.333 . S
Cd508 O512 2.352 . S
Cd508 O516 2.277 . S
Cd508 O517 2.356 . S
C509 O514 1.209 . S
C509 O516 1.226 . S
O510 Cd506 2.273 . S
O510 Cd508 2.411 . S
O510 C513 1.320 . S
O511 Cd508 2.333 . S
O511 C513 1.214 . S
O512 Cd508 2.352 . S
O512 C515 1.258 . S
C513 O510 1.320 . S
C513 O511 1.214 . S
O514 Cd506 2.277 . S
O514 C509 1.209 . S
C515 O512 1.258 . S
C515 O517 1.282 . S
O516 Cd508 2.277 . S
O516 C509 1.226 . S
O517 Cd508 2.356 . S
O517 C515 1.282 . S
C518 O519 1.306 . S
C518 O521 1.160 . S
O519 C518 1.306 . S
O519 Cd520 2.228 . S
Cd520 O519 2.228 . S
Cd520 O524 2.273 . S
Cd520 O528 2.277 . S
O521 C518 1.160 . S
O521 Cd522 2.203 . S
Cd522 O521 2.203 . S
Cd522 O524 2.411 . S
Cd522 O525 2.333 . S
Cd522 O526 2.352 . S
Cd522 O530 2.277 . S
Cd522 O531 2.356 . S
C523 O528 1.209 . S
C523 O530 1.226 . S
O524 Cd520 2.273 . S
O524 Cd522 2.411 . S
O524 C527 1.320 . S
O525 Cd522 2.333 . S
O525 C527 1.214 . S
O526 Cd522 2.352 . S
O526 C529 1.258 . S
C527 O524 1.320 . S
C527 O525 1.214 . S
O528 Cd520 2.277 . S
O528 C523 1.209 . S
C529 O526 1.258 . S
C529 O531 1.282 . S
O530 Cd522 2.277 . S
O530 C523 1.226 . S
O531 Cd522 2.356 . S
O531 C529 1.282 . S
C532 O533 1.306 . S
C532 O535 1.160 . S
O533 C532 1.306 . S
O533 Cd534 2.228 . S
Cd534 O533 2.228 . S
Cd534 O538 2.273 . S
Cd534 O542 2.277 . S
O535 C532 1.160 . S
O535 Cd536 2.203 . S
Cd536 O535 2.203 . S
Cd536 O538 2.411 . S
Cd536 O539 2.333 . S
Cd536 O540 2.352 . S
Cd536 O544 2.277 . S
Cd536 O545 2.356 . S
C537 O542 1.209 . S
C537 O544 1.226 . S
O538 Cd534 2.273 . S
O538 Cd536 2.411 . S
O538 C541 1.320 . S
O539 Cd536 2.333 . S
O539 C541 1.214 . S
O540 Cd536 2.352 . S
O540 C543 1.258 . S
C541 O538 1.320 . S
C541 O539 1.214 . S
O542 Cd534 2.277 . S
O542 C537 1.209 . S
C543 O540 1.258 . S
C543 O545 1.282 . S
O544 Cd536 2.277 . S
O544 C537 1.226 . S
O545 Cd536 2.356 . S
O545 C543 1.282 . S
C546 O547 1.306 . S
C546 O549 1.160 . S
O547 C546 1.306 . S
O547 Cd548 2.228 . S
Cd548 O547 2.228 . S
Cd548 O552 2.273 . S
Cd548 O556 2.277 . S
O549 C546 1.160 . S
O549 Cd550 2.203 . S
Cd550 O549 2.203 . S
Cd550 O552 2.411 . S
Cd550 O553 2.333 . S
Cd550 O554 2.352 . S
Cd550 O558 2.277 . S
Cd550 O559 2.356 . S
C551 O556 1.209 . S
C551 O558 1.226 . S
O552 Cd548 2.273 . S
O552 Cd550 2.411 . S
O552 C555 1.320 . S
O553 Cd550 2.333 . S
O553 C555 1.214 . S
O554 Cd550 2.352 . S
O554 C557 1.258 . S
C555 O552 1.320 . S
C555 O553 1.214 . S
O556 Cd548 2.277 . S
O556 C551 1.209 . S
C557 O554 1.258 . S
C557 O559 1.282 . S
O558 Cd550 2.277 . S
O558 C551 1.226 . S
O559 Cd550 2.356 . S
O559 C557 1.282 . S
C560 O561 1.306 . S
C560 O563 1.160 . S
O561 C560 1.306 . S
O561 Cd562 2.228 . S
Cd562 O561 2.228 . S
Cd562 O566 2.273 . S
Cd562 O570 2.277 . S
O563 C560 1.160 . S
O563 Cd564 2.203 . S
Cd564 O563 2.203 . S
Cd564 O566 2.411 . S
Cd564 O567 2.333 . S
Cd564 O568 2.352 . S
Cd564 O572 2.277 . S
Cd564 O573 2.356 . S
C565 O570 1.209 . S
C565 O572 1.226 . S
O566 Cd562 2.273 . S
O566 Cd564 2.411 . S
O566 C569 1.320 . S
O567 Cd564 2.333 . S
O567 C569 1.214 . S
O568 Cd564 2.352 . S
O568 C571 1.258 . S
C569 O566 1.320 . S
C569 O567 1.214 . S
O570 Cd562 2.277 . S
O570 C565 1.209 . S
C571 O568 1.258 . S
C571 O573 1.282 . S
O572 Cd564 2.277 . S
O572 C565 1.226 . S
O573 Cd564 2.356 . S
O573 C571 1.282 . S
C574 O575 1.306 . S
C574 O577 1.160 . S
O575 C574 1.306 . S
O575 Cd576 2.228 . S
Cd576 O575 2.228 . S
Cd576 O580 2.273 . S
Cd576 O584 2.277 . S
O577 C574 1.160 . S
O577 Cd578 2.203 . S
Cd578 O577 2.203 . S
Cd578 O580 2.411 . S
Cd578 O581 2.333 . S
Cd578 O582 2.352 . S
Cd578 O586 2.277 . S
Cd578 O587 2.356 . S
C579 O584 1.209 . S
C579 O586 1.226 . S
O580 Cd576 2.273 . S
O580 Cd578 2.411 . S
O580 C583 1.320 . S
O581 Cd578 2.333 . S
O581 C583 1.214 . S
O582 Cd578 2.352 . S
O582 C585 1.258 . S
C583 O580 1.320 . S
C583 O581 1.214 . S
O584 Cd576 2.277 . S
O584 C579 1.209 . S
C585 O582 1.258 . S
C585 O587 1.282 . S
O586 Cd578 2.277 . S
O586 C579 1.226 . S
O587 Cd578 2.356 . S
O587 C585 1.282 . S
C588 O589 1.306 . S
C588 O591 1.160 . S
O589 C588 1.306 . S
O589 Cd590 2.228 . S
Cd590 O589 2.228 . S
Cd590 O594 2.273 . S
Cd590 O598 2.277 . S
O591 C588 1.160 . S
O591 Cd592 2.203 . S
Cd592 O591 2.203 . S
Cd592 O594 2.411 . S
Cd592 O595 2.333 . S
Cd592 O596 2.352 . S
Cd592 O600 2.277 . S
Cd592 O601 2.356 . S
C593 O598 1.209 . S
C593 O600 1.226 . S
O594 Cd590 2.273 . S
O594 Cd592 2.411 . S
O594 C597 1.320 . S
O595 Cd592 2.333 . S
O595 C597 1.214 . S
O596 Cd592 2.352 . S
O596 C599 1.258 . S
C597 O594 1.320 . S
C597 O595 1.214 . S
O598 Cd590 2.277 . S
O598 C593 1.209 . S
C599 O596 1.258 . S
C599 O601 1.282 . S
O600 Cd592 2.277 . S
O600 C593 1.226 . S
O601 Cd592 2.356 . S
O601 C599 1.282 . S
C602 O603 1.306 . S
C602 O605 1.160 . S
O603 C602 1.306 . S
O603 Cd604 2.228 . S
Cd604 O603 2.228 . S
Cd604 O608 2.273 . S
Cd604 O612 2.277 . S
O605 C602 1.160 . S
O605 Cd606 2.203 . S
Cd606 O605 2.203 . S
Cd606 O608 2.411 . S
Cd606 O609 2.333 . S
Cd606 O610 2.352 . S
Cd606 O614 2.277 . S
Cd606 O615 2.356 . S
C607 O612 1.209 . S
C607 O614 1.226 . S
O608 Cd604 2.273 . S
O608 Cd606 2.411 . S
O608 C611 1.320 . S
O609 Cd606 2.333 . S
O609 C611 1.214 . S
O610 Cd606 2.352 . S
O610 C613 1.258 . S
C611 O608 1.320 . S
C611 O609 1.214 . S
O612 Cd604 2.277 . S
O612 C607 1.209 . S
C613 O610 1.258 . S
C613 O615 1.282 . S
O614 Cd606 2.277 . S
O614 C607 1.226 . S
O615 Cd606 2.356 . S
O615 C613 1.282 . S
C616 O617 1.306 . S
C616 O619 1.160 . S
O617 C616 1.306 . S
O617 Cd618 2.228 . S
Cd618 O617 2.228 . S
Cd618 O622 2.273 . S
Cd618 O626 2.277 . S
O619 C616 1.160 . S
O619 Cd620 2.203 . S
Cd620 O619 2.203 . S
Cd620 O622 2.411 . S
Cd620 O623 2.333 . S
Cd620 O624 2.352 . S
Cd620 O628 2.277 . S
Cd620 O629 2.356 . S
C621 O626 1.209 . S
C621 O628 1.226 . S
O622 Cd618 2.273 . S
O622 Cd620 2.411 . S
O622 C625 1.320 . S
O623 Cd620 2.333 . S
O623 C625 1.214 . S
O624 Cd620 2.352 . S
O624 C627 1.258 . S
C625 O622 1.320 . S
C625 O623 1.214 . S
O626 Cd618 2.277 . S
O626 C621 1.209 . S
C627 O624 1.258 . S
C627 O629 1.282 . S
O628 Cd620 2.277 . S
O628 C621 1.226 . S
O629 Cd620 2.356 . S
O629 C627 1.282 . S
C630 O631 1.306 . S
C630 O633 1.160 . S
O631 C630 1.306 . S
O631 Cd632 2.228 . S
Cd632 O631 2.228 . S
Cd632 O636 2.273 . S
Cd632 O640 2.277 . S
O633 C630 1.160 . S
O633 Cd634 2.203 . S
Cd634 O633 2.203 . S
Cd634 O636 2.411 . S
Cd634 O637 2.333 . S
Cd634 O638 2.352 . S
Cd634 O642 2.277 . S
Cd634 O643 2.356 . S
C635 O640 1.209 . S
C635 O642 1.226 . S
O636 Cd632 2.273 . S
O636 Cd634 2.411 . S
O636 C639 1.320 . S
O637 Cd634 2.333 . S
O637 C639 1.214 . S
O638 Cd634 2.352 . S
O638 C641 1.258 . S
C639 O636 1.320 . S
C639 O637 1.214 . S
O640 Cd632 2.277 . S
O640 C635 1.209 . S
C641 O638 1.258 . S
C641 O643 1.282 . S
O642 Cd634 2.277 . S
O642 C635 1.226 . S
O643 Cd634 2.356 . S
O643 C641 1.282 . S
C644 O645 1.306 . S
C644 O647 1.160 . S
O645 C644 1.306 . S
O645 Cd646 2.228 . S
Cd646 O645 2.228 . S
Cd646 O650 2.273 . S
Cd646 O654 2.277 . S
O647 C644 1.160 . S
O647 Cd648 2.203 . S
Cd648 O647 2.203 . S
Cd648 O650 2.411 . S
Cd648 O651 2.333 . S
Cd648 O652 2.352 . S
Cd648 O656 2.277 . S
Cd648 O657 2.356 . S
C649 O654 1.209 . S
C649 O656 1.226 . S
O650 Cd646 2.273 . S
O650 Cd648 2.411 . S
O650 C653 1.320 . S
O651 Cd648 2.333 . S
O651 C653 1.214 . S
O652 Cd648 2.352 . S
O652 C655 1.258 . S
C653 O650 1.320 . S
C653 O651 1.214 . S
O654 Cd646 2.277 . S
O654 C649 1.209 . S
C655 O652 1.258 . S
C655 O657 1.282 . S
O656 Cd648 2.277 . S
O656 C649 1.226 . S
O657 Cd648 2.356 . S
O657 C655 1.282 . S
C658 O659 1.306 . S
C658 O661 1.160 . S
O659 C658 1.306 . S
O659 Cd660 2.228 . S
Cd660 O659 2.228 . S
Cd660 O664 2.273 . S
Cd660 O668 2.277 . S
O661 C658 1.160 . S
O661 Cd662 2.203 . S
Cd662 O661 2.203 . S
Cd662 O664 2.411 . S
Cd662 O665 2.333 . S
Cd662 O666 2.352 . S
Cd662 O670 2.277 . S
Cd662 O671 2.356 . S
C663 O668 1.209 . S
C663 O670 1.226 . S
O664 Cd660 2.273 . S
O664 Cd662 2.411 . S
O664 C667 1.320 . S
O665 Cd662 2.333 . S
O665 C667 1.214 . S
O666 Cd662 2.352 . S
O666 C669 1.258 . S
C667 O664 1.320 . S
C667 O665 1.214 . S
O668 Cd660 2.277 . S
O668 C663 1.209 . S
C669 O666 1.258 . S
C669 O671 1.282 . S
O670 Cd662 2.277 . S
O670 C663 1.226 . S
O671 Cd662 2.356 . S
O671 C669 1.282 . S
C546 C11 1.400 . S
C25 C504 1.237 . S
C39 C529 1.359 . S
C543 C53 1.179 . S
C473 C67 1.249 . S
C70 C487 1.250 . S
C95 C490 1.310 . S
C98 C448 1.271 . S
C112 C434 1.485 . S
C403 C137 1.235 . S
C406 C140 1.387 . S
C165 C431 1.324 . S
C168 C361 1.273 . S
C193 C364 1.344 . S
C389 C196 1.176 . S
C336 C221 1.421 . S
C235 C627 1.239 . S
C658 C238 1.237 . S
C641 C252 1.434 . S
C644 C266 1.131 . S
C571 C280 1.419 . S
C599 C305 1.266 . S
C308 C602 1.271 . S
C574 C322 1.168 . S
C459 C291 1.371 . S
C249 C462 1.233 . S
C476 C263 1.389 . S
C501 C277 1.184 . S
C333 C515 1.256 . S
C518 C294 1.254 . S
C319 C532 1.304 . S
C224 C557 1.267 . S
C560 C210 1.478 . S
C179 C669 1.340 . S
C630 C182 1.393 . S
C207 C655 1.220 . S
C126 C585 1.153 . S
C151 C588 1.348 . S
C154 C613 1.296 . S
C616 C123 1.415 . S
C347 C109 1.282 . S
C392 C14 1.220 . S
C417 C28 1.393 . S
C420 C42 1.148 . S
C445 C0 1.457 . S
C81 C375 1.219 . S
C378 C84 1.255 . S
C350 C56 1.185 . S
C5 C373 1.501 . S
C383 C19 1.442 . S
C33 C345 1.491 . S
C47 C355 1.436 . S
C61 C425 1.443 . S
C443 C79 1.534 . S
C89 C397 1.459 . S
C415 C107 1.552 . S
C121 C513 1.502 . S
C523 C131 1.435 . S
C149 C537 1.463 . S
C159 C555 1.486 . S
C177 C457 1.452 . S
C187 C467 1.475 . S
C481 C205 1.391 . S
C215 C499 1.510 . S
C611 C229 1.492 . S
C247 C635 1.519 . S
C261 C653 1.470 . S
C565 C275 1.485 . S
C667 C289 1.478 . S
C299 C583 1.485 . S
C593 C317 1.456 . S
C331 C621 1.423 . S
C597 C285 1.497 1_554 S
C243 C607 1.456 1_556 S
C625 C257 1.496 1_554 S
C579 C271 1.419 1_554 S
C649 C327 1.432 1_556 S
C303 C569 1.546 1_554 S
C663 C313 1.467 1_556 S
C233 C639 1.541 1_554 S
C471 C219 1.504 1_455 S
C173 C485 1.478 1_565 S
C191 C495 1.462 1_455 S
C453 C201 1.442 1_565 S
C135 C551 1.400 1_655 S
C509 C145 1.474 1_545 S
C163 C527 1.444 1_455 S
C117 C541 1.511 1_545 S
C387 C103 1.511 1_545 S
C23 C411 1.508 1_545 S
C37 C429 1.449 1_655 S
C439 C51 1.495 1_545 S
C9 C401 1.500 1_455 S
C75 C359 1.467 1_545 S
C93 C369 1.448 1_655 S
C65 C341 1.430 1_455 S
