# Generated by pormake.
# Topology snp, (6)-cn, num edge types: 1
# Building blocks:
#     Node 0, Type 0, BuildingBlock: KUMBUR_clean_sbu_0, # of connection points: 6
#     Node 1, Type 0, BuildingBlock: KUMBUR_clean_sbu_0, # of connection points: 6
#     Node 2, Type 0, BuildingBlock: KUMBUR_clean_sbu_0, # of connection points: 6
#     Node 3, Type 0, BuildingBlock: KUMBUR_clean_sbu_0, # of connection points: 6
#     Edge 4, Type (0, 0), BuildingBlock: OJICUG_clean_linker_0, # of connection points: 2
#     Edge 5, Type (0, 0), BuildingBlock: OJICUG_clean_linker_0, # of connection points: 2
#     Edge 6, Type (0, 0), BuildingBlock: OJICUG_clean_linker_0, # of connection points: 2
#     Edge 7, Type (0, 0), BuildingBlock: OJICUG_clean_linker_0, # of connection points: 2
#     Edge 8, Type (0, 0), BuildingBlock: OJICUG_clean_linker_0, # of connection points: 2
#     Edge 9, Type (0, 0), BuildingBlock: OJICUG_clean_linker_0, # of connection points: 2
#     Edge 10, Type (0, 0), BuildingBlock: OJICUG_clean_linker_0, # of connection points: 2
#     Edge 11, Type (0, 0), BuildingBlock: OJICUG_clean_linker_0, # of connection points: 2
#     Edge 12, Type (0, 0), BuildingBlock: OJICUG_clean_linker_0, # of connection points: 2
#     Edge 13, Type (0, 0), BuildingBlock: OJICUG_clean_linker_0, # of connection points: 2
#     Edge 14, Type (0, 0), BuildingBlock: OJICUG_clean_linker_0, # of connection points: 2
#     Edge 15, Type (0, 0), BuildingBlock: OJICUG_clean_linker_0, # of connection points: 2
# Relax obj value: 0.256
# Max RMSD: 0.289
# Mean RMSD: 0.256
data_MOF--net-snp--node1-KUMBUR_clean_sbu_0--edge1-OJICUG_clean_linker_0
_symmetry_space_group_name_H-M    P1
_symmetry_Int_Tables_number       1
_symmetry_cell_setting            triclinic
loop_
_symmetry_equiv_pos_as_xyz
'x, y, z'
_cell_length_a     17.992363
_cell_length_b     20.125702
_cell_length_c     25.800328
_cell_angle_alpha  118.47376
_cell_angle_beta   92.796864
_cell_angle_gamma 97.652073
loop_
_atom_site_label
_atom_site_type_symbol
_atom_site_fract_x
_atom_site_fract_y
_atom_site_fract_z
_atom_type_partial_charge
Tb0 Tb 0.42316 0.21992 0.30398 0.0
C1 C 0.50226 0.91382 0.268 0.0
C2 C 0.45254 0.81572 0.16748 0.0
C3 C 0.56366 0.80317 0.2174 0.0
C4 C 0.44975 0.88612 0.21847 0.0
C5 C 0.55974 0.87274 0.26832 0.0
C6 C 0.5102 0.77476 0.16701 0.0
C7 C 0.60456 0.972 0.3693 0.0
N8 N 0.49765 0.98245 0.31566 0.0
C9 C 0.54671 0.01085 0.36676 0.0
C10 C 0.61138 0.90286 0.3198 0.0
Tb11 Tb 0.39787 0.03959 0.30833 0.0
N12 N 0.39456 0.92717 0.22105 0.0
C13 C 0.33808 0.89847 0.17453 0.0
C14 C 0.39663 0.78803 0.11892 0.0
C15 C 0.33883 0.82935 0.12269 0.0
H16 H 0.54242 0.06404 0.40553 0.0
H17 H 0.29462 0.80793 0.0857 0.0
H18 H 0.51344 0.7207 0.12818 0.0
H19 H 0.64382 0.9954 0.40953 0.0
H20 H 0.2924 0.92867 0.17629 0.0
H21 H 0.70175 0.39371 0.41495 0.0
H22 H 0.39684 0.73432 0.07882 0.0
H23 H 0.25935 0.29093 0.32999 0.0
H24 H 0.60953 0.30132 0.32962 0.0
H25 H 0.20507 0.38079 0.41481 0.0
H26 H 0.6075 0.77076 0.21662 0.0
H27 H 0.65937 0.47072 0.51255 0.0
H28 H 0.55104 0.51437 0.57039 0.0
H29 H 0.65627 0.87305 0.32197 0.0
H30 H 0.41405 0.51306 0.56954 0.0
N31 N 0.51503 0.31581 0.37871 0.0
C32 C 0.58964 0.33141 0.37199 0.0
C33 C 0.61852 0.42822 0.47531 0.0
C34 C 0.54121 0.42082 0.47992 0.0
C35 C 0.64258 0.385 0.42039 0.0
C36 C 0.49041 0.3643 0.42993 0.0
H37 H 0.28479 0.46476 0.51122 0.0
N38 N 0.36877 0.31386 0.37807 0.0
C39 C 0.26383 0.37589 0.42 0.0
C40 C 0.41419 0.36402 0.42929 0.0
C41 C 0.29516 0.32311 0.37191 0.0
C42 C 0.3089 0.42324 0.47423 0.0
C43 C 0.38569 0.41963 0.47885 0.0
O44 O 0.35383 0.24345 0.24892 0.0
O45 O 0.39844 0.09546 0.25417 0.0
O46 O 0.51069 0.05602 0.28415 0.0
O47 O 0.53187 0.18725 0.31892 0.0
O48 O 0.45874 0.14994 0.2171 0.0
O49 O 0.4741 0.28208 0.26458 0.0
O50 O 0.37336 0.02543 0.38232 0.0
O51 O 0.38839 0.16034 0.351 0.0
O52 O 0.30148 0.17573 0.29422 0.0
O53 O 0.29273 0.04556 0.26334 0.0
O54 O 0.44054 0.12682 0.40116 0.0
O55 O 0.30091 0.96122 0.30005 0.0
C56 C 0.42838 0.08319 0.20768 0.0
C57 C 0.39988 0.34129 0.22598 0.0
C58 C 0.39658 0.39075 0.15592 0.0
C59 C 0.40438 0.33122 0.16865 0.0
C60 C 0.38281 0.46074 0.20199 0.0
C61 C 0.38647 0.41122 0.27143 0.0
C62 C 0.37775 0.47067 0.25924 0.0
C63 C 0.55381 0.11962 0.29243 0.0
C64 C 0.41051 0.27702 0.23575 0.0
C65 C 0.43512 0.47127 0.53067 0.0
C66 C 0.51298 0.47175 0.53125 0.0
C67 C 0.41229 0.18376 0.40433 0.0
C68 C 0.31196 0.9017 0.3608 0.0
C69 C 0.28431 0.89918 0.41077 0.0
C70 C 0.28349 0.83287 0.41764 0.0
C71 C 0.31031 0.76983 0.37325 0.0
C72 C 0.33785 0.83727 0.31796 0.0
C73 C 0.33715 0.77222 0.32426 0.0
C74 C 0.26275 0.10458 0.26706 0.0
C75 C 0.31515 0.97141 0.35361 0.0
H76 H 0.4135 0.27623 0.13369 0.0
H77 H 0.37718 0.50821 0.19412 0.0
H78 H 0.38299 0.41973 0.31593 0.0
H79 H 0.36755 0.52488 0.29436 0.0
H80 H 0.26425 0.94869 0.44421 0.0
H81 H 0.30899 0.71729 0.37543 0.0
H82 H 0.35827 0.83679 0.27917 0.0
H83 H 0.35702 0.72285 0.29056 0.0
Tb84 Tb 0.06957 0.32085 0.6223 0.0
C85 C 0.40827 0.42283 0.72159 0.0
C86 C 0.48 0.3346 0.6517 0.0
C87 C 0.5396 0.46718 0.71842 0.0
C88 C 0.41183 0.35051 0.67612 0.0
C89 C 0.47238 0.48177 0.74404 0.0
C90 C 0.54342 0.39368 0.67234 0.0
C91 C 0.40057 0.56315 0.81829 0.0
N92 N 0.34243 0.43458 0.74526 0.0
C93 C 0.33873 0.50268 0.79477 0.0
C94 C 0.46749 0.55295 0.79245 0.0
Tb95 Tb 0.24499 0.33136 0.70438 0.0
N96 N 0.34933 0.29496 0.65748 0.0
C97 C 0.35279 0.22092 0.61634 0.0
C98 C 0.48289 0.25945 0.6083 0.0
C99 C 0.41918 0.20224 0.59097 0.0
H100 H 0.28735 0.51121 0.81518 0.0
H101 H 0.42095 0.14376 0.55775 0.0
H102 H 0.59606 0.38274 0.65377 0.0
H103 H 0.39666 0.61748 0.85649 0.0
H104 H 0.30431 0.17596 0.60202 0.0
H105 H 0.90987 0.48614 0.79725 0.0
H106 H 0.53415 0.24484 0.58845 0.0
H107 H 0.01349 0.15896 0.49299 0.0
H108 H 0.01983 0.46329 0.74188 0.0
H109 H 0.90157 0.05683 0.44662 0.0
H110 H 0.58933 0.51186 0.7347 0.0
H111 H 0.79693 0.38417 0.7633 0.0
H112 H 0.72956 0.25257 0.68643 0.0
H113 H 0.51547 0.59972 0.811 0.0
H114 H 0.72726 0.13557 0.59079 0.0
N115 N 0.97146 0.34782 0.67813 0.0
C116 C 0.97152 0.41766 0.72681 0.0
C117 C 0.84538 0.3734 0.739 0.0
C118 C 0.84406 0.30346 0.68739 0.0
C119 C 0.90893 0.43118 0.75819 0.0
C120 C 0.90857 0.29259 0.65733 0.0
H121 H 0.79075 0.06252 0.50068 0.0
N122 N 0.96886 0.22133 0.57456 0.0
C123 C 0.90258 0.10411 0.49101 0.0
C124 C 0.90703 0.22719 0.60353 0.0
C125 C 0.9662 0.1624 0.51769 0.0
C126 C 0.84018 0.10747 0.52169 0.0
C127 C 0.8413 0.17021 0.57823 0.0
O128 O 0.07533 0.33651 0.5473 0.0
O129 O 0.1892 0.31712 0.62297 0.0
O130 O 0.25647 0.42582 0.68583 0.0
O131 O 0.12967 0.43465 0.68838 0.0
O132 O 0.12236 0.25669 0.54287 0.0
O133 O 0.0085 0.39924 0.61441 0.0
O134 O 0.25774 0.35089 0.79208 0.0
O135 O 0.12273 0.32227 0.70085 0.0
O136 O 0.06121 0.21225 0.619 0.0
O137 O 0.18947 0.21267 0.64203 0.0
O138 O 0.18418 0.39901 0.77861 0.0
O139 O 0.28618 0.24865 0.72064 0.0
C140 C 0.19098 0.27468 0.56786 0.0
C141 C 0.95921 0.35243 0.51259 0.0
C142 C 0.90964 0.28558 0.40587 0.0
C143 C 0.97099 0.3158 0.45196 0.0
C144 C 0.83639 0.29473 0.42196 0.0
C145 C 0.88533 0.36031 0.5266 0.0
C146 C 0.8247 0.3322 0.4816 0.0
C147 C 0.20084 0.46381 0.69134 0.0
C148 C 0.02352 0.37867 0.56047 0.0
C149 C 0.77811 0.17895 0.60928 0.0
C150 C 0.77946 0.24552 0.66377 0.0
C151 C 0.11581 0.36574 0.75474 0.0
C152 C 0.35798 0.30433 0.81671 0.0
C153 C 0.35338 0.32059 0.87576 0.0
C154 C 0.419 0.33622 0.91471 0.0
C155 C 0.48963 0.33596 0.89344 0.0
C156 C 0.429 0.30394 0.79651 0.0
C157 C 0.49436 0.3198 0.83481 0.0
C158 C 0.118 0.17765 0.61995 0.0
C159 C 0.28795 0.29039 0.77812 0.0
H160 H 0.02792 0.31013 0.44085 0.0
H161 H 0.78728 0.27092 0.38858 0.0
H162 H 0.87395 0.38688 0.57231 0.0
H163 H 0.76792 0.33801 0.49301 0.0
H164 H 0.29829 0.31982 0.89093 0.0
H165 H 0.54146 0.34898 0.92225 0.0
H166 H 0.43412 0.29087 0.75124 0.0
H167 H 0.549 0.31966 0.81899 0.0
Tb168 Tb 0.88692 0.10851 0.05516 0.0
C169 C 0.85843 0.77016 0.94054 0.0
C170 C 0.73285 0.73711 0.8874 0.0
C171 C 0.81879 0.64606 0.85115 0.0
C172 C 0.78831 0.78887 0.93573 0.0
C173 C 0.87475 0.69878 0.89777 0.0
C174 C 0.74775 0.6649 0.84633 0.0
C175 C 0.99937 0.73461 0.95176 0.0
N176 N 0.9108 0.82177 0.9869 0.0
C177 C 0.98017 0.80373 0.99358 0.0
C178 C 0.94647 0.68184 0.90356 0.0
Tb179 Tb 0.86996 0.92855 0.05739 0.0
N180 N 0.77537 0.85866 0.97704 0.0
C181 C 0.70995 0.88244 0.96846 0.0
C182 C 0.66455 0.75983 0.88102 0.0
C183 C 0.65375 0.83341 0.92107 0.0
H184 H 0.02103 0.84149 0.03161 0.0
H185 H 0.60228 0.85284 0.91521 0.0
H186 H 0.70508 0.62365 0.81005 0.0
H187 H 0.05463 0.7215 0.9574 0.0
H188 H 0.7005 0.93993 0.99614 0.0
H189 H 0.04556 0.35003 0.25461 0.0
H190 H 0.62092 0.72203 0.84428 0.0
H191 H 0.71347 0.08115 0.98627 0.0
H192 H 0.02216 0.22024 0.16919 0.0
H193 H 0.61303 0.15632 0.99669 0.0
H194 H 0.82993 0.59064 0.81853 0.0
H195 H 0.94975 0.43356 0.2729 0.0
H196 H 0.82341 0.45171 0.24094 0.0
H197 H 0.96122 0.62789 0.87158 0.0
H198 H 0.70624 0.39932 0.17061 0.0
N199 N 0.9132 0.22748 0.13837 0.0
C200 C 0.97957 0.25505 0.1759 0.0
C201 C 0.93903 0.37612 0.23499 0.0
C202 C 0.8718 0.34847 0.19597 0.0
C203 C 0.9932 0.32919 0.2248 0.0
C204 C 0.86057 0.27313 0.1474 0.0
H205 H 0.62747 0.28938 0.07955 0.0
N206 N 0.78606 0.17055 0.06267 0.0
C207 C 0.66401 0.1817 1.02827 0.0
C208 C 0.79502 0.24396 0.10792 0.0
C209 C 0.72176 0.13934 1.02236 0.0
C210 C 0.6723 0.25677 0.0751 0.0
C211 C 0.73831 0.28884 0.11572 0.0
O212 O 0.88956 0.12974 0.98214 0.0
O213 O 0.89258 0.98604 1.00523 0.0
O214 O 0.98823 0.96244 0.05049 0.0
O215 O 0.99725 0.09436 0.08726 0.0
O216 O 0.82467 0.02757 0.96776 0.0
O217 O 0.98766 0.16655 0.04596 0.0
O218 O 0.91747 0.87948 0.10423 0.0
O219 O 0.88881 0.05173 0.10711 0.0
O220 O 0.78688 0.10111 0.10105 0.0
O221 O 0.7669 0.97538 0.08664 0.0
O222 O 0.91588 0.99832 0.1527 0.0
O223 O 0.79582 0.86686 0.0864 0.0
C224 C 0.85526 0.96893 0.95653 0.0
C225 C 0.97575 0.23976 0.99616 0.0
C226 C 0.00592 0.31056 0.9408 0.0
C227 C 0.98556 0.24014 0.94173 0.0
C228 C 0.01728 0.37932 0.99584 0.0
C229 C 0.98566 0.31007 0.04903 0.0
C230 C 0.00632 0.37892 0.04877 0.0
C231 C 0.02734 0.03344 0.07935 0.0
C232 C 0.95894 0.16659 0.99854 0.0
C233 C 0.74912 0.36392 0.16388 0.0
C234 C 0.81577 0.3937 0.20395 0.0
C235 C 0.91147 0.06481 0.15913 0.0
C236 C 0.84161 0.7788 0.11176 0.0
C237 C 0.83609 0.77853 0.16592 0.0
C238 C 0.82747 0.70924 0.16811 0.0
C239 C 0.82438 0.64004 0.11472 0.0
C240 C 0.83806 0.70925 0.05922 0.0
C241 C 0.82954 0.64024 0.06083 0.0
C242 C 0.74822 0.0445 0.10747 0.0
C243 C 0.85135 0.85294 0.11229 0.0
H244 H 0.97747 0.18598 0.9007 0.0
H245 H 0.03653 0.43447 0.99891 0.0
H246 H 0.97919 0.31209 0.09111 0.0
H247 H 0.01523 0.43261 0.09022 0.0
H248 H 0.83961 0.83265 0.20655 0.0
H249 H 0.81685 0.58556 0.11442 0.0
H250 H 0.84178 0.70818 1.01716 0.0
H251 H 0.8267 0.58657 1.02009 0.0
Tb252 Tb 0.99262 0.75592 0.61776 0.0
C253 C 0.29622 0.9666 0.72161 0.0
C254 C 0.38173 0.88199 0.66711 0.0
C255 C 0.41624 0.01935 0.7045 0.0
C256 C 0.31171 0.89306 0.6895 0.0
C257 C 0.34875 0.03054 0.73015 0.0
C258 C 0.43288 0.94522 0.67328 0.0
C259 C 0.26758 0.1127 0.79359 0.0
N260 N 0.23155 0.97574 0.74734 0.0
C261 C 0.21763 0.04764 0.78456 0.0
C262 C 0.3332 0.10402 0.76597 0.0
Tb263 Tb 0.1548 0.86528 0.72942 0.0
N264 N 0.26136 0.83332 0.68499 0.0
C265 C 0.28012 0.76203 0.66216 0.0
C266 C 0.40004 0.80844 0.64209 0.0
C267 C 0.34972 0.74858 0.64095 0.0
H268 H 0.16728 0.05479 0.8064 0.0
H269 H 0.36389 0.69173 0.62289 0.0
H270 H 0.48649 0.93768 0.65574 0.0
H271 H 0.25563 0.16934 0.82223 0.0
H272 H 0.2422 0.71562 0.66078 0.0
H273 H 0.77551 0.92869 0.64532 0.0
H274 H 0.45363 0.79776 0.62513 0.0
H275 H 0.96255 0.57633 0.60634 0.0
H276 H 0.88716 0.87458 0.60592 0.0
H277 H 0.88968 0.5143 0.65339 0.0
H278 H 0.45706 0.06786 0.71028 0.0
H279 H 0.70191 0.88335 0.70435 0.0
H280 H 0.67971 0.79037 0.74279 0.0
H281 H 0.37276 0.15411 0.77378 0.0
H282 H 0.71108 0.67672 0.74448 0.0
N283 N 0.88546 0.80672 0.64938 0.0
C284 C 0.85942 0.85764 0.63498 0.0
C285 C 0.7528 0.86108 0.68876 0.0
C286 C 0.77489 0.80316 0.69798 0.0
C287 C 0.79435 0.88707 0.65579 0.0
C288 C 0.84167 0.77588 0.67657 0.0
H289 H 0.79027 0.57407 0.71262 0.0
N290 N 0.91821 0.6814 0.64904 0.0
C291 C 0.88133 0.57047 0.66137 0.0
C292 C 0.85963 0.71198 0.67763 0.0
C293 C 0.92479 0.608 0.63638 0.0
C294 C 0.8255 0.60453 0.69501 0.0
C295 C 0.81179 0.67448 0.7013 0.0
O296 O 0.92197 0.6664 0.54226 0.0
O297 O 0.11217 0.80248 0.63546 0.0
O298 O 0.13626 0.92865 0.68473 0.0
O299 O 0.011 0.87728 0.63999 0.0
O300 O 0.07814 0.70956 0.55719 0.0
O301 O 0.97137 0.77096 0.5437 0.0
O302 O 0.18193 0.92763 0.82308 0.0
O303 O 0.0334 0.82325 0.7136 0.0
O304 O 0.05613 0.67503 0.62334 0.0
O305 O 0.09854 0.75789 0.72056 0.0
O306 O 0.07357 0.9355 0.77713 0.0
O307 O 0.21577 0.81794 0.77078 0.0
C308 C 0.13711 0.76147 0.587 0.0
C309 C 0.85881 0.70321 0.47867 0.0
C310 C 0.80199 0.70613 0.39154 0.0
C311 C 0.86544 0.70451 0.42495 0.0
C312 C 0.73153 0.7064 0.41298 0.0
C313 C 0.78788 0.7027 0.49881 0.0
C314 C 0.72468 0.70445 0.46606 0.0
C315 C 0.07297 0.92993 0.65773 0.0
C316 C 0.9275 0.70448 0.51299 0.0
C317 C 0.74877 0.70508 0.72683 0.0
C318 C 0.73042 0.76945 0.72531 0.0
C319 C 0.01294 0.88382 0.75282 0.0
C320 C 0.29246 0.90359 0.8618 0.0
C321 C 0.29616 0.91695 0.92084 0.0
C322 C 0.36668 0.93861 0.95656 0.0
C323 C 0.43312 0.94659 0.93175 0.0
C324 C 0.35976 0.91171 0.83852 0.0
C325 C 0.42947 0.93309 0.87331 0.0
C326 C 0.09453 0.6911 0.67348 0.0
C327 C 0.21861 0.87621 0.82391 0.0
H328 H 0.92049 0.70562 0.40975 0.0
H329 H 0.68144 0.70698 0.38826 0.0
H330 H 0.78139 0.70137 0.53983 0.0
H331 H 0.67006 0.70425 0.48187 0.0
H332 H 0.2442 0.90946 0.93852 0.0
H333 H 0.48821 0.96514 0.95786 0.0
H334 H 0.35871 0.90063 0.79327 0.0
H335 H 0.48106 0.93948 0.85493 0.0
C336 C 0.1343 0.12328 0.15664 0.0
C337 C 0.09249 0.04875 0.12331 0.0
H338 H 0.21394 0.2016 0.2313 0.0
C339 C 0.10339 0.99408 0.14105 0.0
H340 H 0.12802 0.16689 0.14439 0.0
C341 C 0.15541 0.01316 0.19009 0.0
C342 C 0.1966 0.08799 0.22363 0.0
H343 H 0.0702 0.9371 0.11869 0.0
H344 H 0.16374 0.96905 0.20139 0.0
C345 C 0.1837 0.14327 0.2071 0.0
C346 C 0.14919 0.00501 0.62216 0.0
C347 C 0.07856 0.98342 0.63564 0.0
H348 H 0.21484 0.07936 0.5989 0.0
C349 C 0.01584 0.01301 0.62761 0.0
H350 H 0.19801 0.98068 0.6261 0.0
C351 C 0.02619 0.07141 0.61329 0.0
C352 C 0.09932 0.09921 0.60724 0.0
H353 H 0.96087 0.99586 0.63709 0.0
H354 H 0.97901 0.09977 0.61351 0.0
C355 C 0.15877 0.06076 0.6058 0.0
C356 C 0.68291 0.018 0.18073 0.0
C357 C 0.69641 0.06431 0.15372 0.0
H358 H 0.632 1.00176 0.24787 0.0
C359 C 0.66901 0.13371 0.17737 0.0
H360 H 0.7046 0.96492 0.16511 0.0
C361 C 0.62752 0.15513 0.22573 0.0
C362 C 0.61298 0.1081 0.2521 0.0
H363 H 0.67908 0.17122 0.15828 0.0
H364 H 0.60321 0.2062 0.23959 0.0
C365 C 0.64238 0.03984 0.22931 0.0
C366 C 0.19967 0.59765 0.74047 0.0
C367 C 0.21223 0.53365 0.6893 0.0
H368 H 0.14543 0.69474 0.77506 0.0
C369 C 0.19481 0.52589 0.63305 0.0
H370 H 0.21157 0.60265 0.78393 0.0
C371 C 0.15419 0.57638 0.62737 0.0
C372 C 0.13404 0.63601 0.67834 0.0
H373 H 0.20322 0.47518 0.59325 0.0
H374 H 0.13729 0.56792 0.58345 0.0
C375 C 0.15953 0.64829 0.73501 0.0
C376 C 0.23646 0.18509 0.47688 0.0
C377 C 0.25369 0.25289 0.53178 0.0
H378 H 0.27037 0.11457 0.39278 0.0
C379 C 0.32342 0.30179 0.54397 0.0
H380 H 0.18212 0.14745 0.465 0.0
C381 C 0.37764 0.27873 0.5041 0.0
C382 C 0.35876 0.21169 0.44858 0.0
H383 H 0.33594 0.35715 0.5839 0.0
H384 H 0.43318 0.31399 0.51595 0.0
C385 C 0.28717 0.16603 0.43537 0.0
C386 C 0.07226 0.27116 0.79011 0.0
C387 C 0.06862 0.34124 0.79084 0.0
H388 H 0.05737 0.20643 0.83661 0.0
C389 C 0.03633 0.39597 0.83716 0.0
H390 H 0.09925 0.2286 0.75614 0.0
C391 C 0.00931 0.38212 0.88178 0.0
C392 C 0.01897 0.31533 0.88476 0.0
H393 H 0.03537 0.4517 0.84079 0.0
H394 H 0.98418 0.42643 0.91582 0.0
C395 C 0.04836 0.25857 0.83667 0.0
C396 C 0.77241 0.75607 0.32125 0.0
C397 C 0.80916 0.70751 0.33457 0.0
H398 H 0.74931 0.79475 0.25875 0.0
C399 C 0.85235 0.65984 0.29282 0.0
H400 H 0.73918 0.79398 0.35256 0.0
C401 C 0.85824 0.66038 0.23903 0.0
C402 C 0.82157 0.70902 0.22568 0.0
H403 H 0.88082 0.62121 0.30133 0.0
H404 H 0.89225 0.62311 0.20811 0.0
C405 C 0.77879 0.75704 0.26766 0.0
C406 C 0.43393 0.94478 0.04778 0.0
C407 C 0.37198 0.95833 1.02061 0.0
H408 H 0.49966 0.97293 0.12971 0.0
C409 C 0.32046 0.99977 0.0569 0.0
H410 H 0.47415 0.91185 1.02135 0.0
C411 C 0.33443 0.03279 0.11876 0.0
C412 C 0.39937 0.02446 0.14594 0.0
H413 H 0.27287 0.0127 0.0382 0.0
H414 H 0.29869 0.07164 0.14542 0.0
C415 C 0.44802 0.97846 0.10984 0.0
C416 C 0.86125 0.94654 0.85264 0.0
C417 C 0.8835 0.92914 0.8974 0.0
H418 H 0.88801 0.94995 0.77369 0.0
C419 C 0.94151 0.88573 0.88802 0.0
H420 H 0.81774 0.98094 0.85822 0.0
C421 C 0.97691 0.86176 0.83618 0.0
C422 C 0.9582 0.88441 0.79403 0.0
H423 H 0.96361 0.87498 0.92228 0.0
H424 H 0.0241 0.83197 0.83193 0.0
C425 C 0.90046 0.9276 0.80325 0.0
C426 C 0.18494 0.85115 0.48853 0.0
C427 C 0.25244 0.82578 0.46856 0.0
H428 H 0.09489 0.84777 0.53882 0.0
C429 C 0.28464 0.78402 0.49224 0.0
H430 H 0.15651 0.88082 0.47011 0.0
C431 C 0.24902 0.76577 0.53234 0.0
C432 C 0.1824 0.79218 0.55316 0.0
H433 H 0.33601 0.76222 0.47775 0.0
H434 H 0.27142 0.72691 0.54399 0.0
C435 C 0.1499 0.83308 0.52901 0.0
C436 C 0.46149 0.32307 1.00329 0.0
C437 C 0.41391 0.35186 0.97701 0.0
H438 H 0.49458 0.31407 0.08003 0.0
C439 C 0.36142 0.39516 1.01068 0.0
H440 H 0.50203 0.28875 0.97871 0.0
C441 C 0.35624 0.40864 0.06882 0.0
C442 C 0.40344 0.3792 0.09481 0.0
H443 H 0.32448 0.41912 0.99227 0.0
H444 H 0.31426 0.44099 0.09297 0.0
C445 C 0.45652 0.33678 0.06134 0.0
C446 C 0.97537 0.13982 0.2632 0.0
C447 C 0.92276 0.13497 0.21879 0.0
H448 H 0.0126 0.18937 0.35615 0.0
C449 C 0.87153 0.18635 0.23644 0.0
H450 H 0.0148 0.10013 0.25153 0.0
C451 C 0.87107 0.23895 0.29655 0.0
C452 C 0.9201 0.24005 0.3414 0.0
H453 H 0.82918 0.18444 0.2048 0.0
H454 H 0.82983 0.27668 0.30783 0.0
C455 C 0.97416 0.19142 0.32354 0.0
loop_
_geom_bond_atom_site_label_1
_geom_bond_atom_site_label_2
_geom_bond_distance
_geom_bond_site_symmetry_2
_ccdc_geom_bond_type
Tb0 N31 2.660 . S
Tb0 N38 2.600 . S
Tb0 O44 2.546 . S
Tb0 O45 2.610 1_545 S
Tb0 O47 2.320 . S
Tb0 O48 2.552 . S
Tb0 O49 2.413 . S
Tb0 O51 2.362 . S
Tb0 O52 2.421 . S
Tb0 C64 2.833 . S
C1 C4 1.432 . S
C1 C5 1.414 . S
C1 N8 1.359 . S
C2 C4 1.417 . S
C2 C6 1.433 . S
C2 C14 1.410 . S
C3 C5 1.444 . S
C3 C6 1.320 . S
C3 H26 0.929 1_554 S
C4 C1 1.432 . S
C4 C2 1.417 . S
C4 N12 1.360 . S
C5 C1 1.414 . S
C5 C3 1.444 . S
C5 C10 1.385 . S
C6 C2 1.433 . S
C6 C3 1.320 . S
C6 H18 0.926 1_554 S
C7 C9 1.392 . S
C7 C10 1.370 . S
C7 H19 0.931 . S
N8 C1 1.359 . S
N8 C9 1.327 . S
N8 Tb11 2.600 . S
C9 C7 1.392 . S
C9 N8 1.327 . S
C9 H16 0.930 . S
C10 C5 1.385 . S
C10 C7 1.370 . S
C10 H29 0.930 . S
Tb11 N8 2.600 . S
Tb11 N12 2.660 . S
Tb11 O45 2.362 . S
Tb11 O46 2.421 . S
Tb11 O50 2.546 . S
Tb11 O51 2.610 1_565 S
Tb11 O53 2.320 . S
Tb11 O54 2.552 1_565 S
Tb11 O55 2.413 . S
Tb11 C75 2.833 . S
N12 C4 1.360 . S
N12 Tb11 2.660 . S
N12 C13 1.305 . S
C13 N12 1.305 . S
C13 C15 1.407 . S
C13 H20 0.930 . S
C14 C2 1.410 . S
C14 C15 1.345 . S
C14 H22 0.930 1_554 S
C15 C13 1.407 . S
C15 C14 1.345 . S
C15 H17 0.930 . S
H16 C9 0.930 . S
H17 C15 0.930 . S
H18 C6 0.926 1_556 S
H19 C7 0.931 . S
H20 C13 0.930 . S
H21 C35 0.930 . S
H22 C14 0.930 1_556 S
H23 C41 0.930 . S
H24 C32 0.930 . S
H25 C39 0.931 . S
H26 C3 0.929 1_556 S
H27 C33 0.930 . S
H28 C66 0.930 . S
H29 C10 0.930 . S
H30 C65 0.929 . S
N31 Tb0 2.660 . S
N31 C32 1.305 . S
N31 C36 1.360 . S
C32 H24 0.930 . S
C32 N31 1.305 . S
C32 C35 1.407 . S
C33 H27 0.930 . S
C33 C34 1.410 . S
C33 C35 1.345 . S
C34 C33 1.410 . S
C34 C36 1.417 . S
C34 C66 1.432 . S
C35 H21 0.930 . S
C35 C32 1.407 . S
C35 C33 1.345 . S
C36 N31 1.360 . S
C36 C34 1.417 . S
C36 C40 1.432 . S
H37 C42 0.930 . S
N38 Tb0 2.600 . S
N38 C40 1.359 . S
N38 C41 1.327 . S
C39 H25 0.931 . S
C39 C41 1.392 . S
C39 C42 1.370 . S
C40 C36 1.432 . S
C40 N38 1.359 . S
C40 C43 1.414 . S
C41 H23 0.930 . S
C41 N38 1.327 . S
C41 C39 1.392 . S
C42 H37 0.930 . S
C42 C39 1.370 . S
C42 C43 1.385 . S
C43 C40 1.414 . S
C43 C42 1.385 . S
C43 C65 1.444 . S
O44 Tb0 2.546 . S
O44 C64 1.251 . S
O45 Tb0 2.610 1_565 S
O45 Tb11 2.362 . S
O45 C56 1.283 . S
O46 Tb11 2.421 . S
O46 C63 1.262 1_565 S
O47 Tb0 2.320 . S
O47 C63 1.260 . S
O48 Tb0 2.552 . S
O48 C56 1.243 1_545 S
O49 Tb0 2.413 . S
O49 C64 1.256 . S
O50 Tb11 2.546 . S
O50 C75 1.251 . S
O51 Tb0 2.362 . S
O51 Tb11 2.610 1_545 S
O51 C67 1.283 . S
O52 Tb0 2.421 . S
O52 C74 1.262 . S
O53 Tb11 2.320 . S
O53 C74 1.260 1_565 S
O54 Tb11 2.552 1_545 S
O54 C67 1.243 . S
O55 Tb11 2.413 . S
O55 C75 1.256 . S
C56 O45 1.283 . S
C56 O48 1.243 1_565 S
C57 C59 1.382 . S
C57 C61 1.393 . S
C57 C64 1.500 . S
C58 C59 1.400 . S
C58 C60 1.384 . S
C59 C57 1.382 . S
C59 C58 1.400 . S
C59 H76 0.930 . S
C60 C58 1.384 . S
C60 C62 1.392 . S
C60 H77 0.931 . S
C61 C57 1.393 . S
C61 C62 1.401 . S
C61 H78 0.930 . S
C62 C60 1.392 . S
C62 C61 1.401 . S
C62 H79 0.930 . S
C63 O46 1.262 1_545 S
C63 O47 1.260 . S
C64 Tb0 2.833 . S
C64 O44 1.251 . S
C64 O49 1.256 . S
C64 C57 1.500 . S
C65 H30 0.929 . S
C65 C43 1.444 . S
C65 C66 1.317 . S
C66 H28 0.930 . S
C66 C34 1.432 . S
C66 C65 1.317 . S
C67 O51 1.283 . S
C67 O54 1.243 . S
C68 C69 1.382 . S
C68 C72 1.393 . S
C68 C75 1.500 . S
C69 C68 1.382 . S
C69 C70 1.400 . S
C69 H80 0.930 . S
C70 C69 1.400 . S
C70 C71 1.384 . S
C71 C70 1.384 . S
C71 C73 1.392 . S
C71 H81 0.931 . S
C72 C68 1.393 . S
C72 C73 1.401 . S
C72 H82 0.930 . S
C73 C71 1.392 . S
C73 C72 1.401 . S
C73 H83 0.930 . S
C74 O52 1.262 . S
C74 O53 1.260 1_545 S
C75 Tb11 2.833 . S
C75 O50 1.251 . S
C75 O55 1.256 . S
C75 C68 1.500 . S
H76 C59 0.930 . S
H77 C60 0.931 . S
H78 C61 0.930 . S
H79 C62 0.930 . S
H80 C69 0.930 . S
H81 C71 0.931 . S
H82 C72 0.930 . S
H83 C73 0.930 . S
Tb84 N115 2.660 . S
Tb84 N122 2.600 . S
Tb84 O128 2.546 . S
Tb84 O129 2.610 . S
Tb84 O131 2.320 . S
Tb84 O132 2.552 . S
Tb84 O133 2.413 . S
Tb84 O135 2.362 . S
Tb84 O136 2.421 . S
Tb84 C148 2.833 . S
C85 C88 1.432 . S
C85 C89 1.414 . S
C85 N92 1.359 . S
C86 C88 1.417 . S
C86 C90 1.432 . S
C86 C98 1.410 . S
C87 C89 1.444 . S
C87 C90 1.317 . S
C87 H110 0.929 . S
C88 C85 1.432 . S
C88 C86 1.417 . S
C88 N96 1.360 . S
C89 C85 1.414 . S
C89 C87 1.444 . S
C89 C94 1.385 . S
C90 C86 1.432 . S
C90 C87 1.317 . S
C90 H102 0.930 . S
C91 C93 1.392 . S
C91 C94 1.370 . S
C91 H103 0.931 . S
N92 C85 1.359 . S
N92 C93 1.327 . S
N92 Tb95 2.600 . S
C93 C91 1.392 . S
C93 N92 1.327 . S
C93 H100 0.930 . S
C94 C89 1.385 . S
C94 C91 1.370 . S
C94 H113 0.930 . S
Tb95 N92 2.600 . S
Tb95 N96 2.660 . S
Tb95 O129 2.362 . S
Tb95 O130 2.421 . S
Tb95 O134 2.546 . S
Tb95 O135 2.610 . S
Tb95 O137 2.320 . S
Tb95 O138 2.552 . S
Tb95 O139 2.413 . S
Tb95 C159 2.833 . S
N96 C88 1.360 . S
N96 Tb95 2.660 . S
N96 C97 1.305 . S
C97 N96 1.305 . S
C97 C99 1.407 . S
C97 H104 0.930 . S
C98 C86 1.410 . S
C98 C99 1.345 . S
C98 H106 0.930 . S
C99 C97 1.407 . S
C99 C98 1.345 . S
C99 H101 0.930 . S
H100 C93 0.930 . S
H101 C99 0.930 . S
H102 C90 0.930 . S
H103 C91 0.931 . S
H104 C97 0.930 . S
H105 C119 0.930 . S
H106 C98 0.930 . S
H107 C125 0.930 1_455 S
H108 C116 0.930 . S
H109 C123 0.930 . S
H110 C87 0.929 . S
H111 C117 0.930 . S
H112 C150 0.930 . S
H113 C94 0.930 . S
H114 C149 0.929 . S
N115 Tb84 2.660 . S
N115 C116 1.305 . S
N115 C120 1.360 1_455 S
C116 H108 0.930 . S
C116 N115 1.305 . S
C116 C119 1.407 1_455 S
C117 H111 0.930 . S
C117 C118 1.410 . S
C117 C119 1.345 . S
C118 C117 1.410 . S
C118 C120 1.417 . S
C118 C150 1.432 . S
C119 H105 0.930 . S
C119 C116 1.407 1_655 S
C119 C117 1.345 . S
C120 N115 1.360 1_655 S
C120 C118 1.417 . S
C120 C124 1.432 . S
H121 C126 0.930 . S
N122 Tb84 2.600 . S
N122 C124 1.359 1_455 S
N122 C125 1.327 1_455 S
C123 H109 0.930 . S
C123 C125 1.392 . S
C123 C126 1.370 . S
C124 C120 1.432 . S
C124 N122 1.359 1_655 S
C124 C127 1.414 . S
C125 H107 0.930 1_655 S
C125 N122 1.327 1_655 S
C125 C123 1.392 . S
C126 H121 0.930 . S
C126 C123 1.370 . S
C126 C127 1.385 . S
C127 C124 1.414 . S
C127 C126 1.385 . S
C127 C149 1.444 . S
O128 Tb84 2.546 . S
O128 C148 1.251 . S
O129 Tb84 2.610 . S
O129 Tb95 2.362 . S
O129 C140 1.283 . S
O130 Tb95 2.421 . S
O130 C147 1.262 . S
O131 Tb84 2.320 . S
O131 C147 1.260 . S
O132 Tb84 2.552 . S
O132 C140 1.243 . S
O133 Tb84 2.413 . S
O133 C148 1.256 . S
O134 Tb95 2.546 . S
O134 C159 1.251 . S
O135 Tb84 2.362 . S
O135 Tb95 2.610 . S
O135 C151 1.283 . S
O136 Tb84 2.421 . S
O136 C158 1.262 . S
O137 Tb95 2.320 . S
O137 C158 1.260 . S
O138 Tb95 2.552 . S
O138 C151 1.243 . S
O139 Tb95 2.413 . S
O139 C159 1.256 . S
C140 O129 1.283 . S
C140 O132 1.243 . S
C141 C143 1.382 . S
C141 C145 1.393 1_455 S
C141 C148 1.500 . S
C142 C143 1.400 1_655 S
C142 C144 1.384 . S
C143 C141 1.382 . S
C143 C142 1.400 1_455 S
C143 H160 0.930 . S
C144 C142 1.384 . S
C144 C146 1.392 . S
C144 H161 0.931 . S
C145 C141 1.393 1_655 S
C145 C146 1.401 . S
C145 H162 0.930 . S
C146 C144 1.392 . S
C146 C145 1.401 . S
C146 H163 0.930 . S
C147 O130 1.262 . S
C147 O131 1.260 . S
C148 Tb84 2.833 . S
C148 O128 1.251 . S
C148 O133 1.256 . S
C148 C141 1.500 . S
C149 H114 0.929 . S
C149 C127 1.444 . S
C149 C150 1.317 . S
C150 H112 0.930 . S
C150 C118 1.432 . S
C150 C149 1.317 . S
C151 O135 1.283 . S
C151 O138 1.243 . S
C152 C153 1.382 . S
C152 C156 1.393 . S
C152 C159 1.500 . S
C153 C152 1.382 . S
C153 C154 1.400 . S
C153 H164 0.930 . S
C154 C153 1.400 . S
C154 C155 1.384 . S
C155 C154 1.384 . S
C155 C157 1.392 . S
C155 H165 0.931 . S
C156 C152 1.393 . S
C156 C157 1.401 . S
C156 H166 0.930 . S
C157 C155 1.392 . S
C157 C156 1.401 . S
C157 H167 0.930 . S
C158 O136 1.262 . S
C158 O137 1.260 . S
C159 Tb95 2.833 . S
C159 O134 1.251 . S
C159 O139 1.256 . S
C159 C152 1.500 . S
H160 C143 0.930 . S
H161 C144 0.931 . S
H162 C145 0.930 . S
H163 C146 0.930 . S
H164 C153 0.930 . S
H165 C155 0.931 . S
H166 C156 0.930 . S
H167 C157 0.930 . S
Tb168 N199 2.660 . S
Tb168 N206 2.600 . S
Tb168 O212 2.546 . S
Tb168 O213 2.610 . S
Tb168 O215 2.320 1_655 S
Tb168 O216 2.552 1_554 S
Tb168 O217 2.413 . S
Tb168 O219 2.362 . S
Tb168 O220 2.421 . S
Tb168 C232 2.833 . S
C169 C172 1.432 . S
C169 C173 1.414 . S
C169 N176 1.359 1_556 S
C170 C172 1.417 . S
C170 C174 1.432 . S
C170 C182 1.410 . S
C171 C173 1.444 . S
C171 C174 1.317 . S
C171 H194 0.929 . S
C172 C169 1.432 . S
C172 C170 1.417 . S
C172 N180 1.360 1_556 S
C173 C169 1.414 . S
C173 C171 1.444 . S
C173 C178 1.385 1_655 S
C174 C170 1.432 . S
C174 C171 1.317 . S
C174 H186 0.930 . S
C175 C177 1.392 . S
C175 C178 1.370 1_554 S
C175 H187 0.931 . S
N176 C169 1.359 1_554 S
N176 C177 1.327 1_655 S
N176 Tb179 2.600 1_565 S
C177 C175 1.392 . S
C177 N176 1.327 1_455 S
C177 H184 0.930 . S
C178 C173 1.385 1_455 S
C178 C175 1.370 1_556 S
C178 H197 0.930 . S
Tb179 N176 2.600 1_545 S
Tb179 N180 2.660 1_545 S
Tb179 O213 2.362 . S
Tb179 O214 2.421 1_655 S
Tb179 O218 2.546 1_545 S
Tb179 O219 2.610 . S
Tb179 O221 2.320 . S
Tb179 O222 2.552 . S
Tb179 O223 2.413 1_545 S
Tb179 C243 2.833 1_545 S
N180 C172 1.360 1_554 S
N180 Tb179 2.660 1_565 S
N180 C181 1.305 1_554 S
C181 N180 1.305 1_556 S
C181 C183 1.407 . S
C181 H188 0.930 1_556 S
C182 C170 1.410 . S
C182 C183 1.345 . S
C182 H190 0.930 . S
C183 C181 1.407 . S
C183 C182 1.345 . S
C183 H185 0.930 . S
H184 C177 0.930 . S
H185 C183 0.930 . S
H186 C174 0.930 . S
H187 C175 0.931 . S
H188 C181 0.930 1_554 S
H189 C203 0.930 . S
H190 C182 0.930 . S
H191 C209 0.930 . S
H192 C200 0.930 . S
H193 C207 0.931 . S
H194 C171 0.929 . S
H195 C201 0.930 . S
H196 C234 0.930 . S
H197 C178 0.930 . S
H198 C233 0.929 . S
N199 Tb168 2.660 . S
N199 C200 1.305 1_655 S
N199 C204 1.360 . S
C200 H192 0.930 . S
C200 N199 1.305 1_455 S
C200 C203 1.407 . S
C201 H195 0.930 . S
C201 C202 1.416 . S
C201 C203 1.345 . S
C202 C201 1.416 . S
C202 C204 1.414 1_455 S
C202 C234 1.428 1_455 S
C203 H189 0.930 . S
C203 C200 1.407 . S
C203 C201 1.345 . S
C204 N199 1.360 . S
C204 C202 1.414 1_655 S
C204 C208 1.432 . S
H205 C210 0.930 . S
N206 Tb168 2.600 . S
N206 C208 1.359 . S
N206 C209 1.327 . S
C207 H193 0.931 . S
C207 C209 1.392 . S
C207 C210 1.370 . S
C208 C204 1.432 . S
C208 N206 1.359 . S
C208 C211 1.414 . S
C209 H191 0.930 . S
C209 N206 1.327 . S
C209 C207 1.392 . S
C210 H205 0.930 . S
C210 C207 1.370 . S
C210 C211 1.385 . S
C211 C208 1.414 . S
C211 C210 1.385 . S
C211 C233 1.444 . S
O212 Tb168 2.546 . S
O212 C232 1.251 . S
O213 Tb168 2.610 . S
O213 Tb179 2.362 . S
O213 C224 1.283 1_554 S
O214 Tb179 2.421 1_455 S
O214 C231 1.262 . S
O215 Tb168 2.320 1_455 S
O215 C231 1.260 . S
O216 Tb168 2.552 1_556 S
O216 C224 1.243 . S
O217 Tb168 2.413 . S
O217 C232 1.256 . S
O218 Tb179 2.546 1_565 S
O218 C243 1.251 . S
O219 Tb168 2.362 . S
O219 Tb179 2.610 . S
O219 C235 1.283 . S
O220 Tb168 2.421 . S
O220 C242 1.262 . S
O221 Tb179 2.320 . S
O221 C242 1.260 . S
O222 Tb179 2.552 . S
O222 C235 1.243 . S
O223 Tb179 2.413 1_565 S
O223 C243 1.256 . S
C224 O213 1.283 1_556 S
C224 O216 1.243 . S
C225 C227 1.382 . S
C225 C229 1.393 . S
C225 C232 1.500 1_556 S
C226 C227 1.400 1_455 S
C226 C228 1.384 1_455 S
C227 C225 1.382 . S
C227 C226 1.400 1_655 S
C227 H244 0.930 1_655 S
C228 C226 1.384 1_655 S
C228 C230 1.392 . S
C228 H245 0.931 . S
C229 C225 1.393 . S
C229 C230 1.401 . S
C229 H246 0.930 1_556 S
C230 C228 1.392 . S
C230 C229 1.401 . S
C230 H247 0.930 . S
C231 O214 1.262 . S
C231 O215 1.260 . S
C232 Tb168 2.833 . S
C232 O212 1.251 . S
C232 O217 1.256 . S
C232 C225 1.500 1_554 S
C233 H198 0.929 . S
C233 C211 1.444 . S
C233 C234 1.317 . S
C234 H196 0.930 . S
C234 C202 1.428 1_655 S
C234 C233 1.317 . S
C235 O219 1.283 . S
C235 O222 1.243 . S
C236 C237 1.382 . S
C236 C240 1.393 . S
C236 C243 1.500 . S
C237 C236 1.382 . S
C237 C238 1.400 . S
C237 H248 0.930 . S
C238 C237 1.400 . S
C238 C239 1.384 . S
C239 C238 1.384 . S
C239 C241 1.392 . S
C239 H249 0.931 . S
C240 C236 1.393 . S
C240 C241 1.401 . S
C240 H250 0.930 . S
C241 C239 1.392 . S
C241 C240 1.401 . S
C241 H251 0.930 . S
C242 O220 1.262 . S
C242 O221 1.260 . S
C243 Tb179 2.833 1_565 S
C243 O218 1.251 . S
C243 O223 1.256 . S
C243 C236 1.500 . S
H244 C227 0.930 1_455 S
H245 C228 0.931 . S
H246 C229 0.930 1_554 S
H247 C230 0.930 . S
H248 C237 0.930 . S
H249 C239 0.931 . S
H250 C240 0.930 . S
H251 C241 0.930 . S
Tb252 N283 2.660 . S
Tb252 N290 2.600 . S
Tb252 O296 2.546 . S
Tb252 O297 2.610 1_655 S
Tb252 O299 2.320 . S
Tb252 O300 2.552 1_655 S
Tb252 O301 2.413 . S
Tb252 O303 2.362 . S
Tb252 O304 2.421 . S
Tb252 C316 2.833 . S
C253 C256 1.432 . S
C253 C257 1.414 . S
C253 N260 1.359 . S
C254 C256 1.417 . S
C254 C258 1.432 . S
C254 C266 1.410 . S
C255 C257 1.444 . S
C255 C258 1.317 . S
C255 H278 0.929 . S
C256 C253 1.432 . S
C256 C254 1.417 . S
C256 N264 1.360 . S
C257 C253 1.414 . S
C257 C255 1.444 . S
C257 C262 1.385 1_565 S
C258 C254 1.432 . S
C258 C255 1.317 . S
C258 H270 0.930 . S
C259 C261 1.392 . S
C259 C262 1.370 . S
C259 H271 0.931 . S
N260 C253 1.359 . S
N260 C261 1.327 1_565 S
N260 Tb263 2.600 . S
C261 C259 1.392 . S
C261 N260 1.327 1_545 S
C261 H268 0.930 . S
C262 C257 1.385 1_545 S
C262 C259 1.370 . S
C262 H281 0.930 . S
Tb263 N260 2.600 . S
Tb263 N264 2.660 . S
Tb263 O297 2.362 . S
Tb263 O298 2.421 . S
Tb263 O302 2.546 . S
Tb263 O303 2.610 1_455 S
Tb263 O305 2.320 . S
Tb263 O306 2.552 . S
Tb263 O307 2.413 . S
Tb263 C327 2.833 . S
N264 C256 1.360 . S
N264 Tb263 2.660 . S
N264 C265 1.305 . S
C265 N264 1.305 . S
C265 C267 1.407 . S
C265 H272 0.930 . S
C266 C254 1.410 . S
C266 C267 1.345 . S
C266 H274 0.930 . S
C267 C265 1.407 . S
C267 C266 1.345 . S
C267 H269 0.930 . S
H268 C261 0.930 . S
H269 C267 0.930 . S
H270 C258 0.930 . S
H271 C259 0.931 . S
H272 C265 0.930 . S
H273 C287 0.930 1_545 S
H274 C266 0.930 . S
H275 C293 0.930 . S
H276 C284 0.930 . S
H277 C291 0.931 . S
H278 C255 0.929 . S
H279 C285 0.930 . S
H280 C318 0.930 . S
H281 C262 0.930 . S
H282 C317 0.929 . S
N283 Tb252 2.660 . S
N283 C284 1.305 . S
N283 C288 1.360 . S
C284 H276 0.930 . S
C284 N283 1.305 . S
C284 C287 1.407 . S
C285 H279 0.930 . S
C285 C286 1.410 . S
C285 C287 1.345 . S
C286 C285 1.410 . S
C286 C288 1.417 . S
C286 C318 1.432 . S
C287 H273 0.930 1_565 S
C287 C284 1.407 . S
C287 C285 1.345 . S
C288 N283 1.360 . S
C288 C286 1.417 . S
C288 C292 1.432 . S
H289 C294 0.930 . S
N290 Tb252 2.600 . S
N290 C292 1.359 . S
N290 C293 1.327 . S
C291 H277 0.931 . S
C291 C293 1.392 . S
C291 C294 1.370 . S
C292 C288 1.432 . S
C292 N290 1.359 . S
C292 C295 1.414 . S
C293 H275 0.930 . S
C293 N290 1.327 . S
C293 C291 1.392 . S
C294 H289 0.930 . S
C294 C291 1.370 . S
C294 C295 1.385 . S
C295 C292 1.414 . S
C295 C294 1.385 . S
C295 C317 1.444 . S
O296 Tb252 2.546 . S
O296 C316 1.251 . S
O297 Tb252 2.610 1_455 S
O297 Tb263 2.362 . S
O297 C308 1.283 . S
O298 Tb263 2.421 . S
O298 C315 1.262 . S
O299 Tb252 2.320 . S
O299 C315 1.260 1_655 S
O300 Tb252 2.552 1_455 S
O300 C308 1.243 . S
O301 Tb252 2.413 . S
O301 C316 1.256 . S
O302 Tb263 2.546 . S
O302 C327 1.251 . S
O303 Tb252 2.362 . S
O303 Tb263 2.610 1_655 S
O303 C319 1.283 . S
O304 Tb252 2.421 . S
O304 C326 1.262 1_655 S
O305 Tb263 2.320 . S
O305 C326 1.260 . S
O306 Tb263 2.552 . S
O306 C319 1.243 1_455 S
O307 Tb263 2.413 . S
O307 C327 1.256 . S
C308 O297 1.283 . S
C308 O300 1.243 . S
C309 C311 1.382 . S
C309 C313 1.393 . S
C309 C316 1.500 . S
C310 C311 1.400 . S
C310 C312 1.384 . S
C311 C309 1.382 . S
C311 C310 1.400 . S
C311 H328 0.930 . S
C312 C310 1.384 . S
C312 C314 1.392 . S
C312 H329 0.931 . S
C313 C309 1.393 . S
C313 C314 1.401 . S
C313 H330 0.930 . S
C314 C312 1.392 . S
C314 C313 1.401 . S
C314 H331 0.930 . S
C315 O298 1.262 . S
C315 O299 1.260 1_455 S
C316 Tb252 2.833 . S
C316 O296 1.251 . S
C316 O301 1.256 . S
C316 C309 1.500 . S
C317 H282 0.929 . S
C317 C295 1.444 . S
C317 C318 1.317 . S
C318 H280 0.930 . S
C318 C286 1.432 . S
C318 C317 1.317 . S
C319 O303 1.283 . S
C319 O306 1.243 1_655 S
C320 C321 1.382 . S
C320 C324 1.393 . S
C320 C327 1.500 . S
C321 C320 1.382 . S
C321 C322 1.400 . S
C321 H332 0.930 . S
C322 C321 1.400 . S
C322 C323 1.384 . S
C323 C322 1.384 . S
C323 C325 1.392 . S
C323 H333 0.931 . S
C324 C320 1.393 . S
C324 C325 1.401 . S
C324 H334 0.930 1_565 S
C325 C323 1.392 . S
C325 C324 1.401 . S
C325 H335 0.930 1_565 S
C326 O304 1.262 1_455 S
C326 O305 1.260 . S
C327 Tb263 2.833 . S
C327 O302 1.251 . S
C327 O307 1.256 . S
C327 C320 1.500 . S
H328 C311 0.930 . S
H329 C312 0.931 . S
H330 C313 0.930 . S
H331 C314 0.930 . S
H332 C321 0.930 . S
H333 C323 0.931 . S
H334 C324 0.930 1_545 S
H335 C325 0.930 1_545 S
C336 C337 1.387 . S
C336 H340 0.950 . S
C336 C345 1.390 . S
C337 C336 1.387 . S
C337 C339 1.387 . S
H338 C345 0.950 . S
C339 C337 1.387 . S
C339 C341 1.390 1_545 S
C339 H343 0.950 1_545 S
H340 C336 0.950 . S
C341 C339 1.390 1_565 S
C341 C342 1.387 1_565 S
C341 H344 0.950 . S
C342 C341 1.387 1_545 S
C342 C345 1.387 . S
H343 C339 0.950 1_565 S
H344 C341 0.950 . S
C345 C336 1.390 . S
C345 H338 0.950 . S
C345 C342 1.387 . S
C346 C347 1.387 . S
C346 H350 0.950 . S
C346 C355 1.390 . S
C347 C346 1.387 . S
C347 C349 1.387 1_545 S
H348 C355 0.950 . S
C349 C347 1.387 1_565 S
C349 C351 1.390 1_565 S
C349 H353 0.950 . S
H350 C346 0.950 . S
C351 C349 1.390 1_545 S
C351 C352 1.387 . S
C351 H354 0.950 . S
C352 C351 1.387 . S
C352 C355 1.387 . S
H353 C349 0.950 . S
H354 C351 0.950 . S
C355 C346 1.390 . S
C355 H348 0.950 . S
C355 C352 1.387 . S
C356 C357 1.387 . S
C356 H360 0.950 1_545 S
C356 C365 1.390 1_545 S
C357 C356 1.387 . S
C357 C359 1.387 . S
H358 C365 0.950 . S
C359 C357 1.387 . S
C359 C361 1.390 . S
C359 H363 0.950 . S
H360 C356 0.950 1_565 S
C361 C359 1.390 . S
C361 C362 1.387 . S
C361 H364 0.950 . S
C362 C361 1.387 . S
C362 C365 1.387 1_545 S
H363 C359 0.950 . S
H364 C361 0.950 . S
C365 C356 1.390 1_565 S
C365 H358 0.950 . S
C365 C362 1.387 1_565 S
C366 C367 1.387 . S
C366 H370 0.950 . S
C366 C375 1.390 . S
C367 C366 1.387 . S
C367 C369 1.387 . S
H368 C375 0.950 . S
C369 C367 1.387 . S
C369 C371 1.390 . S
C369 H373 0.950 . S
H370 C366 0.950 . S
C371 C369 1.390 . S
C371 C372 1.387 . S
C371 H374 0.950 . S
C372 C371 1.387 . S
C372 C375 1.387 . S
H373 C369 0.950 . S
H374 C371 0.950 . S
C375 C366 1.390 . S
C375 H368 0.950 . S
C375 C372 1.387 . S
C376 C377 1.387 . S
C376 H380 0.950 . S
C376 C385 1.390 . S
C377 C376 1.387 . S
C377 C379 1.387 . S
H378 C385 0.950 . S
C379 C377 1.387 . S
C379 C381 1.390 . S
C379 H383 0.950 . S
H380 C376 0.950 . S
C381 C379 1.390 . S
C381 C382 1.387 . S
C381 H384 0.950 . S
C382 C381 1.387 . S
C382 C385 1.387 . S
H383 C379 0.950 . S
H384 C381 0.950 . S
C385 C376 1.390 . S
C385 H378 0.950 . S
C385 C382 1.387 . S
C386 C387 1.387 . S
C386 H390 0.950 . S
C386 C395 1.390 . S
C387 C386 1.387 . S
C387 C389 1.387 . S
H388 C395 0.950 . S
C389 C387 1.387 . S
C389 C391 1.390 . S
C389 H393 0.950 . S
H390 C386 0.950 . S
C391 C389 1.390 . S
C391 C392 1.387 . S
C391 H394 0.950 . S
C392 C391 1.387 . S
C392 C395 1.387 . S
H393 C389 0.950 . S
H394 C391 0.950 . S
C395 C386 1.390 . S
C395 H388 0.950 . S
C395 C392 1.387 . S
C396 C397 1.387 . S
C396 H400 0.950 . S
C396 C405 1.390 . S
C397 C396 1.387 . S
C397 C399 1.387 . S
H398 C405 0.950 . S
C399 C397 1.387 . S
C399 C401 1.390 . S
C399 H403 0.950 . S
H400 C396 0.950 . S
C401 C399 1.390 . S
C401 C402 1.387 . S
C401 H404 0.950 . S
C402 C401 1.387 . S
C402 C405 1.387 . S
H403 C399 0.950 . S
H404 C401 0.950 . S
C405 C396 1.390 . S
C405 H398 0.950 . S
C405 C402 1.387 . S
C406 C407 1.387 . S
C406 H410 0.950 . S
C406 C415 1.390 1_556 S
C407 C406 1.387 . S
C407 C409 1.387 . S
H408 C415 0.950 . S
C409 C407 1.387 . S
C409 C411 1.390 1_556 S
C409 H413 0.950 . S
H410 C406 0.950 . S
C411 C409 1.390 1_554 S
C411 C412 1.387 . S
C411 H414 0.950 1_565 S
C412 C411 1.387 . S
C412 C415 1.387 . S
H413 C409 0.950 . S
H414 C411 0.950 1_545 S
C415 C406 1.390 1_554 S
C415 H408 0.950 . S
C415 C412 1.387 . S
C416 C417 1.387 . S
C416 H420 0.950 1_565 S
C416 C425 1.390 . S
C417 C416 1.387 . S
C417 C419 1.387 . S
H418 C425 0.950 . S
C419 C417 1.387 . S
C419 C421 1.390 . S
C419 H423 0.950 . S
H420 C416 0.950 1_545 S
C421 C419 1.390 . S
C421 C422 1.387 . S
C421 H424 0.950 . S
C422 C421 1.387 . S
C422 C425 1.387 . S
H423 C419 0.950 . S
H424 C421 0.950 . S
C425 C416 1.390 . S
C425 H418 0.950 . S
C425 C422 1.387 . S
C426 C427 1.387 . S
C426 H430 0.950 . S
C426 C435 1.390 . S
C427 C426 1.387 . S
C427 C429 1.387 . S
H428 C435 0.950 . S
C429 C427 1.387 . S
C429 C431 1.390 . S
C429 H433 0.950 . S
H430 C426 0.950 . S
C431 C429 1.390 . S
C431 C432 1.387 . S
C431 H434 0.950 . S
C432 C431 1.387 . S
C432 C435 1.387 . S
H433 C429 0.950 . S
H434 C431 0.950 . S
C435 C426 1.390 . S
C435 H428 0.950 . S
C435 C432 1.387 . S
C436 C437 1.387 . S
C436 H440 0.950 . S
C436 C445 1.390 . S
C437 C436 1.387 . S
C437 C439 1.387 . S
H438 C445 0.950 . S
C439 C437 1.387 . S
C439 C441 1.390 1_556 S
C439 H443 0.950 1_556 S
H440 C436 0.950 . S
C441 C439 1.390 1_554 S
C441 C442 1.387 . S
C441 H444 0.950 . S
C442 C441 1.387 . S
C442 C445 1.387 1_554 S
H443 C439 0.950 1_554 S
H444 C441 0.950 . S
C445 C436 1.390 . S
C445 H438 0.950 . S
C445 C442 1.387 1_556 S
C446 C447 1.387 . S
C446 H450 0.950 . S
C446 C455 1.390 . S
C447 C446 1.387 . S
C447 C449 1.387 . S
H448 C455 0.950 . S
C449 C447 1.387 . S
C449 C451 1.390 . S
C449 H453 0.950 . S
H450 C446 0.950 . S
C451 C449 1.390 . S
C451 C452 1.387 . S
C451 H454 0.950 . S
C452 C451 1.387 . S
C452 C455 1.387 . S
H453 C449 0.950 . S
H454 C451 0.950 . S
C455 C446 1.390 . S
C455 H448 0.950 . S
C455 C452 1.387 . S
C337 C231 1.444 . S
C342 C74 1.444 . S
C347 C315 1.324 1_545 S
C352 C158 1.324 . S
C357 C242 1.451 . S
C362 C63 1.451 . S
C367 C147 1.551 . S
C372 C326 1.551 . S
C377 C140 1.937 . S
C382 C67 2.117 . S
C387 C151 1.923 . S
C392 C226 1.961 . S
C397 C310 1.183 . S
C402 C238 0.974 . S
C407 C322 0.888 . S
C412 C56 1.020 . S
C417 C224 2.117 1_565 S
C422 C319 1.935 . S
C427 C70 1.960 . S
C432 C308 1.920 . S
C437 C154 1.184 . S
C442 C58 0.974 . S
C447 C235 1.019 . S
C452 C142 0.890 . S
