# Generated by pormake.
# Topology unj, (4)-cn, num edge types: 1
# Building blocks:
#     Node 0, Type 0, BuildingBlock: CEKHIL_clean_sbu_0, # of connection points: 4
#     Node 1, Type 0, BuildingBlock: CEKHIL_clean_sbu_0, # of connection points: 4
#     Node 2, Type 0, BuildingBlock: CEKHIL_clean_sbu_0, # of connection points: 4
#     Node 3, Type 0, BuildingBlock: CEKHIL_clean_sbu_0, # of connection points: 4
#     Node 4, Type 0, BuildingBlock: CEKHIL_clean_sbu_0, # of connection points: 4
#     Node 5, Type 0, BuildingBlock: CEKHIL_clean_sbu_0, # of connection points: 4
#     Edge 6, Type (0, 0), BuildingBlock: XIVTED_clean_linker_0, # of connection points: 2
#     Edge 7, Type (0, 0), BuildingBlock: XIVTED_clean_linker_0, # of connection points: 2
#     Edge 8, Type (0, 0), BuildingBlock: XIVTED_clean_linker_0, # of connection points: 2
#     Edge 9, Type (0, 0), BuildingBlock: XIVTED_clean_linker_0, # of connection points: 2
#     Edge 10, Type (0, 0), BuildingBlock: XIVTED_clean_linker_0, # of connection points: 2
#     Edge 11, Type (0, 0), BuildingBlock: XIVTED_clean_linker_0, # of connection points: 2
#     Edge 12, Type (0, 0), BuildingBlock: XIVTED_clean_linker_0, # of connection points: 2
#     Edge 13, Type (0, 0), BuildingBlock: XIVTED_clean_linker_0, # of connection points: 2
#     Edge 14, Type (0, 0), BuildingBlock: XIVTED_clean_linker_0, # of connection points: 2
#     Edge 15, Type (0, 0), BuildingBlock: XIVTED_clean_linker_0, # of connection points: 2
#     Edge 16, Type (0, 0), BuildingBlock: XIVTED_clean_linker_0, # of connection points: 2
#     Edge 17, Type (0, 0), BuildingBlock: XIVTED_clean_linker_0, # of connection points: 2
# Relax obj value: 0.029
# Max RMSD: 0.081
# Mean RMSD: 0.081
data_MOF--net-unj--node1-CEKHIL_clean_sbu_0--edge1-XIVTED_clean_linker_0
_symmetry_space_group_name_H-M    P1
_symmetry_Int_Tables_number       1
_symmetry_cell_setting            triclinic
loop_
_symmetry_equiv_pos_as_xyz
'x, y, z'
_cell_length_a     32.590965
_cell_length_b     32.616674
_cell_length_c     36.621835
_cell_angle_alpha  89.943576
_cell_angle_beta   90.039321
_cell_angle_gamma 120.04302
loop_
_atom_site_label
_atom_site_type_symbol
_atom_site_fract_x
_atom_site_fract_y
_atom_site_fract_z
_atom_type_partial_charge
Co0 Co 0.50444 0.25483 0.58262 0.0
O1 O 0.51493 0.31133 0.60712 0.0
O2 O 0.44818 0.24265 0.60992 0.0
C3 C 0.53486 0.29231 0.52892 0.0
O4 O 0.4793 0.189 0.55982 0.0
Co5 Co 0.58744 0.24619 0.54932 0.0
O6 O 0.5366 0.1883 0.52624 0.0
C7 C 0.57037 0.23596 0.62924 0.0
C8 C 0.47161 0.28728 0.61873 0.0
C9 C 0.4939 0.16854 0.53741 0.0
O10 O 0.53191 0.23781 0.62584 0.0
O11 O 0.59796 0.24124 0.60256 0.0
O12 O 0.4909 0.27769 0.5372 0.0
O13 O 0.55909 0.28557 0.55357 0.0
Co14 Co 0.26006 0.49805 0.74901 0.0
O15 O 0.21414 0.50933 0.77277 0.0
O16 O 0.2156 0.4425 0.7769 0.0
C17 C 0.25314 0.52728 0.69469 0.0
O18 O 0.30071 0.4723 0.72709 0.0
Co19 Co 0.35194 0.58033 0.7153 0.0
O20 O 0.35923 0.52909 0.69342 0.0
C21 C 0.34479 0.56482 0.7954 0.0
C22 C 0.19455 0.4663 0.78498 0.0
C23 C 0.33609 0.48658 0.70497 0.0
O24 O 0.30446 0.52631 0.7922 0.0
O25 O 0.36723 0.59191 0.7685 0.0
O26 O 0.22375 0.48354 0.70351 0.0
O27 O 0.28411 0.55204 0.71918 0.0
Co28 Co 0.7716 0.25428 0.91623 0.0
O29 O 0.71448 0.20898 0.9406 0.0
O30 O 0.78253 0.20967 0.94392 0.0
C31 C 0.7347 0.2476 0.86232 0.0
O32 O 0.83782 0.29393 0.89369 0.0
Co33 Co 0.78263 0.3465 0.88225 0.0
O34 O 0.84033 0.35247 0.85965 0.0
C35 C 0.79138 0.33959 0.96236 0.0
C36 C 0.73782 0.18911 0.9525 0.0
C37 C 0.85915 0.32884 0.87119 0.0
O38 O 0.78898 0.29902 0.95925 0.0
O39 O 0.78688 0.36207 0.93542 0.0
O40 O 0.74857 0.21778 0.87092 0.0
O41 O 0.74191 0.27891 0.88675 0.0
Co42 Co 0.52736 0.76585 0.0826 0.0
O43 O 0.51568 0.70863 0.10667 0.0
O44 O 0.583 0.77669 0.11019 0.0
C45 C 0.49718 0.72941 0.02856 0.0
O46 O 0.55378 0.83219 0.06039 0.0
Co47 Co 0.44585 0.77677 0.04896 0.0
O48 O 0.49749 0.83502 0.02687 0.0
C49 C 0.46178 0.78528 0.12904 0.0
C50 C 0.55892 0.73194 0.11858 0.0
C51 C 0.54002 0.85376 0.03831 0.0
O52 O 0.49992 0.7828 0.12582 0.0
O53 O 0.43472 0.7809 0.10218 0.0
O54 O 0.54093 0.74329 0.03711 0.0
O55 O 0.473 0.7363 0.05311 0.0
Co56 Co 0.77231 0.52217 0.24909 0.0
O57 O 0.81783 0.51048 0.27321 0.0
O58 O 0.8171 0.57774 0.2767 0.0
C59 C 0.77873 0.4921 0.19508 0.0
O60 O 0.73238 0.54856 0.2268 0.0
Co61 Co 0.67987 0.44069 0.21547 0.0
O62 O 0.67343 0.49228 0.19317 0.0
C63 C 0.68722 0.45645 0.29555 0.0
C64 C 0.83775 0.55366 0.28513 0.0
C65 C 0.69713 0.53478 0.2046 0.0
O66 O 0.7278 0.49467 0.29229 0.0
O67 O 0.66459 0.4294 0.26869 0.0
O68 O 0.80858 0.53581 0.20363 0.0
O69 O 0.74757 0.46789 0.21962 0.0
Co70 Co 0.26086 0.7674 0.41601 0.0
O71 O 0.31801 0.81348 0.43993 0.0
O72 O 0.24954 0.8119 0.4434 0.0
C73 C 0.29738 0.77378 0.362 0.0
O74 O 0.1945 0.72695 0.39389 0.0
Co75 Co 0.25048 0.67516 0.38271 0.0
O76 O 0.19198 0.66792 0.36059 0.0
C77 C 0.24271 0.68307 0.46281 0.0
C78 C 0.29437 0.83306 0.45171 0.0
C79 C 0.17305 0.69153 0.3719 0.0
O80 O 0.24433 0.72325 0.4594 0.0
O81 O 0.24739 0.66056 0.43602 0.0
O82 O 0.28318 0.80338 0.37037 0.0
O83 O 0.29069 0.74287 0.38668 0.0
H84 H 0.51799 0.11002 0.50246 0.0
H85 H 0.25866 0.89009 0.47434 0.0
H86 H 0.39632 0.11285 0.5461 0.0
H87 H 0.38736 0.88305 0.47046 0.0
H88 H 0.30491 0.97187 0.4975 0.0
H89 H 0.46734 0.02804 0.48542 0.0
C90 C 0.48047 0.09356 0.50837 0.0
C91 C 0.46157 0.11876 0.52584 0.0
C92 C 0.3227 0.95204 0.49191 0.0
C93 C 0.40278 0.02358 0.50623 0.0
C94 C 0.29639 0.90541 0.4788 0.0
C95 C 0.31922 0.87974 0.4702 0.0
C96 C 0.37206 0.97301 0.49594 0.0
C97 C 0.36816 0.90139 0.47643 0.0
C98 C 0.4515 0.04636 0.49878 0.0
C99 C 0.41248 0.09486 0.53276 0.0
N100 N 0.39284 0.94669 0.48851 0.0
N101 N 0.38463 0.04854 0.52278 0.0
H102 H 0.37793 0.25178 0.63905 0.0
H103 H 0.42131 0.51103 0.67445 0.0
H104 H 0.51517 0.37885 0.64102 0.0
H105 H 0.29199 0.38853 0.71101 0.0
H106 H 0.45245 0.4602 0.65773 0.0
H107 H 0.34253 0.2978 0.66293 0.0
C108 C 0.40067 0.28906 0.64497 0.0
C109 C 0.44957 0.31158 0.63774 0.0
C110 C 0.41727 0.44417 0.66948 0.0
C111 C 0.40937 0.3642 0.66435 0.0
C112 C 0.39917 0.47328 0.67886 0.0
C113 C 0.35373 0.45419 0.69415 0.0
C114 C 0.38985 0.3951 0.67491 0.0
C115 C 0.32721 0.40482 0.69934 0.0
C116 C 0.38043 0.31525 0.65848 0.0
C117 C 0.47731 0.35995 0.64583 0.0
N118 N 0.34555 0.37682 0.68952 0.0
N119 N 0.4568 0.38455 0.65829 0.0
H120 H 0.91249 0.28456 0.88 0.0
H121 H 0.14713 0.51099 0.80574 0.0
H122 H 0.91998 0.4116 0.83722 0.0
H123 H 0.13553 0.37323 0.80653 0.0
H124 H 0.0668 0.47574 0.82894 0.0
H125 H 0.99624 0.31644 0.86263 0.0
C126 C 0.93151 0.31893 0.86696 0.0
C127 C 0.90891 0.34531 0.86004 0.0
C128 C 0.08173 0.45307 0.82425 0.0
C129 C 1.00443 0.38205 0.84085 0.0
C130 C 0.12785 0.47327 0.81115 0.0
C131 C 0.14808 0.44501 0.80382 0.0
C132 C 0.05515 0.40404 0.8303 0.0
C133 C 0.12121 0.3963 0.81168 0.0
C134 C 0.9792 0.33702 0.85708 0.0
C135 C 0.93543 0.38966 0.84306 0.0
N136 N 0.07585 0.37718 0.82435 0.0
N137 N 0.98154 0.40656 0.83433 0.0
H138 H 0.63797 0.90646 0.0454 0.0
H139 H 0.64609 0.14251 0.97473 0.0
H140 H 0.51743 0.9156 0.00708 0.0
H141 H 0.7716 0.12965 0.97302 0.0
H142 H 0.60096 0.06229 0.99819 0.0
H143 H 0.68977 0.99033 0.02842 0.0
C144 C 0.62239 0.92589 0.03344 0.0
C145 C 0.57318 0.90369 0.02756 0.0
C146 C 0.63843 0.07693 0.9929 0.0
C147 C 0.63189 0.99935 0.00883 0.0
C148 C 0.66438 0.12297 0.97964 0.0
C149 C 0.71268 0.1428 0.97154 0.0
C150 C 0.66068 0.05003 0.99827 0.0
C151 C 0.73436 0.11564 0.97879 0.0
C152 C 0.65195 0.97364 0.02378 0.0
C153 C 0.55502 0.93073 0.01199 0.0
N154 N 0.7081 0.07038 0.99157 0.0
N155 N 0.58423 0.97687 0.00342 0.0
H156 H 0.74179 0.63256 0.21239 0.0
H157 H 0.51407 0.63986 0.13977 0.0
H158 H 0.61328 0.5122 0.1722 0.0
H159 H 0.6521 0.76598 0.13971 0.0
H160 H 0.54936 0.59489 0.16311 0.0
H161 H 0.70958 0.68413 0.19517 0.0
C162 C 0.70702 0.61697 0.19996 0.0
C163 C 0.68036 0.56786 0.19366 0.0
C164 C 0.57208 0.63246 0.1582 0.0
C165 C 0.64325 0.62632 0.17465 0.0
C166 C 0.55185 0.65831 0.14502 0.0
C167 C 0.58018 0.70676 0.13743 0.0
C168 C 0.62119 0.65494 0.16404 0.0
C169 C 0.62897 0.72863 0.14507 0.0
C170 C 0.68874 0.6464 0.19017 0.0
C171 C 0.63547 0.54971 0.17748 0.0
N172 N 0.64811 0.70247 0.1578 0.0
N173 N 0.61843 0.57878 0.1688 0.0
H174 H 0.12009 0.7364 0.37889 0.0
H175 H 0.88466 0.50865 0.30673 0.0
H176 H 0.1115 0.6072 0.34035 0.0
H177 H 0.89708 0.64676 0.30612 0.0
H178 H 0.96485 0.54375 0.33031 0.0
H179 H 0.03631 0.70422 0.36151 0.0
C180 C 0.10079 0.70146 0.3668 0.0
C181 C 0.12312 0.67461 0.36099 0.0
C182 C 0.95013 0.56653 0.32524 0.0
C183 C 0.02754 0.63755 0.34178 0.0
C184 C 0.9041 0.54642 0.31191 0.0
C185 C 0.88414 0.57483 0.3041 0.0
C186 C 0.97689 0.61561 0.33099 0.0
C187 C 0.91119 0.62358 0.31166 0.0
C188 C 0.05308 0.6832 0.35692 0.0
C189 C 0.09626 0.62953 0.34524 0.0
N190 N 0.95644 0.6426 0.32452 0.0
N191 N 0.05014 0.61252 0.33644 0.0
H192 H 0.62858 0.33647 0.51106 0.0
H193 H 0.59324 0.40899 0.31123 0.0
H194 H 0.49294 0.30907 0.47016 0.0
H195 H 0.73061 0.46745 0.36216 0.0
H196 H 0.5559 0.37229 0.36909 0.0
H197 H 0.66651 0.38287 0.45632 0.0
C198 C 0.60671 0.34007 0.49047 0.0
C199 C 0.55744 0.31868 0.49508 0.0
C200 C 0.59417 0.39354 0.36783 0.0
C201 C 0.60079 0.37201 0.43239 0.0
C202 C 0.61554 0.41452 0.3348 0.0
C203 C 0.66511 0.44102 0.33189 0.0
C204 C 0.62253 0.39832 0.39814 0.0
C205 C 0.69228 0.44738 0.3633 0.0
C206 C 0.62849 0.36689 0.45936 0.0
C207 C 0.53097 0.3248 0.46764 0.0
N208 N 0.67062 0.42555 0.39508 0.0
N209 N 0.55297 0.35072 0.43735 0.0
H210 H 0.27306 0.72707 0.52943 0.0
H211 H 0.19482 0.48388 0.63614 0.0
H212 H 0.19926 0.58928 0.47875 0.0
H213 H 0.30108 0.62084 0.67629 0.0
H214 H 0.18649 0.52228 0.58131 0.0
H215 H 0.27257 0.68887 0.58749 0.0
C216 C 0.25604 0.68882 0.53071 0.0
C217 C 0.23658 0.66129 0.49926 0.0
C218 C 0.21162 0.54388 0.60216 0.0
C219 C 0.23607 0.61756 0.5651 0.0
C220 C 0.21647 0.52196 0.63335 0.0
C221 C 0.24889 0.54917 0.66064 0.0
C222 C 0.23906 0.59337 0.59845 0.0
C223 C 0.27587 0.59846 0.65577 0.0
C224 C 0.25613 0.66708 0.56367 0.0
C225 C 0.2152 0.61185 0.50228 0.0
N226 N 0.27029 0.619 0.62532 0.0
N227 N 0.21567 0.59161 0.53453 0.0
H228 H 0.69121 0.29763 0.84419 0.0
H229 H 0.61741 0.18911 0.64489 0.0
H230 H 0.71704 0.18826 0.80395 0.0
H231 H 0.55916 0.26796 0.69585 0.0
H232 H 0.65403 0.18827 0.70277 0.0
H233 H 0.64451 0.28895 0.78959 0.0
C234 C 0.68722 0.27188 0.82377 0.0
C235 C 0.70825 0.24374 0.82852 0.0
C236 C 0.63282 0.20529 0.70151 0.0
C237 C 0.65457 0.23352 0.766 0.0
C238 C 0.61188 0.20578 0.66849 0.0
C239 C 0.5855 0.22893 0.66559 0.0
C240 C 0.62813 0.22888 0.73181 0.0
C241 C 0.57914 0.24964 0.69701 0.0
C242 C 0.66021 0.26671 0.79274 0.0
C243 C 0.7016 0.21077 0.8013 0.0
N244 N 0.60097 0.24975 0.72877 0.0
N245 N 0.67553 0.20675 0.77109 0.0
H246 H 0.43874 0.61219 0.81114 0.0
H247 H 0.40366 0.68644 0.01021 0.0
H248 H 0.30136 0.55441 0.86187 0.0
H249 H 0.53896 0.71191 0.97017 0.0
H250 H 0.36568 0.64004 0.95551 0.0
H251 H 0.4761 0.64916 0.86892 0.0
C252 C 0.41645 0.60687 0.83466 0.0
C253 C 0.36688 0.58047 0.83172 0.0
C254 C 0.40363 0.65561 0.95873 0.0
C255 C 0.40945 0.6235 0.89785 0.0
C256 C 0.42545 0.68244 0.98981 0.0
C257 C 0.47463 0.70326 0.99466 0.0
C258 C 0.43122 0.64992 0.93203 0.0
C259 C 0.50099 0.69663 0.96745 0.0
C260 C 0.43782 0.62801 0.86763 0.0
C261 C 0.3397 0.57439 0.86305 0.0
N262 N 0.47897 0.67071 0.9372 0.0
N263 N 0.36136 0.59638 0.89477 0.0
H264 H 0.83801 0.43355 0.97787 0.0
H265 H 0.72858 0.39858 0.17698 0.0
H266 H 0.75876 0.29639 0.02897 0.0
H267 H 0.83801 0.53394 0.13662 0.0
H268 H 0.7373 0.36064 0.12242 0.0
H269 H 0.83837 0.47098 0.03556 0.0
C270 C 0.82113 0.41132 0.00145 0.0
C271 C 0.79803 0.36178 -0.00136 0.0
C272 C 0.75952 0.3986 0.12553 0.0
C273 C 0.79756 0.40445 0.06467 0.0
C274 C 0.75434 0.42039 0.15653 0.0
C275 C 0.78251 0.46958 0.16125 0.0
C276 C 0.79277 0.42621 0.09878 0.0
C277 C 0.81547 0.49597 0.134 0.0
C278 C 0.82135 0.43274 0.03438 0.0
C279 C 0.77706 0.3347 0.03005 0.0
N280 N 0.81953 0.47397 0.10381 0.0
N281 N 0.77671 0.3564 0.06171 0.0
H282 H 0.3407 0.72359 0.34402 0.0
H283 H 0.41513 0.8325 0.14467 0.0
H284 H 0.3148 0.83284 0.30337 0.0
H285 H 0.47215 0.75241 0.19562 0.0
H286 H 0.37834 0.83322 0.20244 0.0
H287 H 0.38724 0.73204 0.28943 0.0
C288 C 0.34464 0.74927 0.32351 0.0
C289 C 0.32364 0.77744 0.32815 0.0
C290 C 0.3993 0.81592 0.2012 0.0
C291 C 0.37716 0.7874 0.26563 0.0
C292 C 0.42034 0.8155 0.16824 0.0
C293 C 0.44643 0.79206 0.16536 0.0
C294 C 0.40361 0.792 0.23148 0.0
C295 C 0.45239 0.77096 0.19675 0.0
C296 C 0.37155 0.75429 0.29248 0.0
C297 C 0.33021 0.81029 0.30081 0.0
N298 N 0.4305 0.77081 0.22846 0.0
N299 N 0.35621 0.8142 0.2706 0.0
loop_
_geom_bond_atom_site_label_1
_geom_bond_atom_site_label_2
_geom_bond_distance
_geom_bond_site_symmetry_2
_ccdc_geom_bond_type
Co0 O1 2.216 . S
Co0 O2 2.091 . S
Co0 O4 2.004 . S
Co0 O10 2.021 . S
Co0 O12 2.137 . S
Co0 O13 2.244 . S
O1 Co0 2.216 . S
O1 C8 1.247 . S
O2 Co0 2.091 . S
O2 C8 1.261 . S
C3 O12 1.247 . S
C3 O13 1.272 . S
O4 Co0 2.004 . S
O4 C9 1.259 . S
Co5 O6 2.061 . S
Co5 O11 2.052 . S
Co5 O13 2.135 . S
O6 Co5 2.061 . S
O6 C9 1.235 . S
C7 O10 1.238 . S
C7 O11 1.241 . S
C8 O1 1.247 . S
C8 O2 1.261 . S
C9 O4 1.259 . S
C9 O6 1.235 . S
O10 Co0 2.021 . S
O10 C7 1.238 . S
O11 Co5 2.052 . S
O11 C7 1.241 . S
O12 Co0 2.137 . S
O12 C3 1.247 . S
O13 Co0 2.244 . S
O13 C3 1.272 . S
O13 Co5 2.135 . S
Co14 O15 2.216 . S
Co14 O16 2.091 . S
Co14 O18 2.004 . S
Co14 O24 2.021 . S
Co14 O26 2.137 . S
Co14 O27 2.244 . S
O15 Co14 2.216 . S
O15 C22 1.247 . S
O16 Co14 2.091 . S
O16 C22 1.261 . S
C17 O26 1.247 . S
C17 O27 1.272 . S
O18 Co14 2.004 . S
O18 C23 1.259 . S
Co19 O20 2.061 . S
Co19 O25 2.052 . S
Co19 O27 2.135 . S
O20 Co19 2.061 . S
O20 C23 1.235 . S
C21 O24 1.238 . S
C21 O25 1.241 . S
C22 O15 1.247 . S
C22 O16 1.261 . S
C23 O18 1.259 . S
C23 O20 1.235 . S
O24 Co14 2.021 . S
O24 C21 1.238 . S
O25 Co19 2.052 . S
O25 C21 1.241 . S
O26 Co14 2.137 . S
O26 C17 1.247 . S
O27 Co14 2.244 . S
O27 C17 1.272 . S
O27 Co19 2.135 . S
Co28 O29 2.216 . S
Co28 O30 2.091 . S
Co28 O32 2.004 . S
Co28 O38 2.021 . S
Co28 O40 2.137 . S
Co28 O41 2.244 . S
O29 Co28 2.216 . S
O29 C36 1.247 . S
O30 Co28 2.091 . S
O30 C36 1.261 . S
C31 O40 1.247 . S
C31 O41 1.272 . S
O32 Co28 2.004 . S
O32 C37 1.259 . S
Co33 O34 2.061 . S
Co33 O39 2.052 . S
Co33 O41 2.135 . S
O34 Co33 2.061 . S
O34 C37 1.235 . S
C35 O38 1.238 . S
C35 O39 1.241 . S
C36 O29 1.247 . S
C36 O30 1.261 . S
C37 O32 1.259 . S
C37 O34 1.235 . S
O38 Co28 2.021 . S
O38 C35 1.238 . S
O39 Co33 2.052 . S
O39 C35 1.241 . S
O40 Co28 2.137 . S
O40 C31 1.247 . S
O41 Co28 2.244 . S
O41 C31 1.272 . S
O41 Co33 2.135 . S
Co42 O43 2.216 . S
Co42 O44 2.091 . S
Co42 O46 2.004 . S
Co42 O52 2.021 . S
Co42 O54 2.137 . S
Co42 O55 2.244 . S
O43 Co42 2.216 . S
O43 C50 1.247 . S
O44 Co42 2.091 . S
O44 C50 1.261 . S
C45 O54 1.247 . S
C45 O55 1.272 . S
O46 Co42 2.004 . S
O46 C51 1.259 . S
Co47 O48 2.061 . S
Co47 O53 2.052 . S
Co47 O55 2.135 . S
O48 Co47 2.061 . S
O48 C51 1.235 . S
C49 O52 1.238 . S
C49 O53 1.241 . S
C50 O43 1.247 . S
C50 O44 1.261 . S
C51 O46 1.259 . S
C51 O48 1.235 . S
O52 Co42 2.021 . S
O52 C49 1.238 . S
O53 Co47 2.052 . S
O53 C49 1.241 . S
O54 Co42 2.137 . S
O54 C45 1.247 . S
O55 Co42 2.244 . S
O55 C45 1.272 . S
O55 Co47 2.135 . S
Co56 O57 2.216 . S
Co56 O58 2.091 . S
Co56 O60 2.004 . S
Co56 O66 2.021 . S
Co56 O68 2.137 . S
Co56 O69 2.244 . S
O57 Co56 2.216 . S
O57 C64 1.247 . S
O58 Co56 2.091 . S
O58 C64 1.261 . S
C59 O68 1.247 . S
C59 O69 1.272 . S
O60 Co56 2.004 . S
O60 C65 1.259 . S
Co61 O62 2.061 . S
Co61 O67 2.052 . S
Co61 O69 2.135 . S
O62 Co61 2.061 . S
O62 C65 1.235 . S
C63 O66 1.238 . S
C63 O67 1.241 . S
C64 O57 1.247 . S
C64 O58 1.261 . S
C65 O60 1.259 . S
C65 O62 1.235 . S
O66 Co56 2.021 . S
O66 C63 1.238 . S
O67 Co61 2.052 . S
O67 C63 1.241 . S
O68 Co56 2.137 . S
O68 C59 1.247 . S
O69 Co56 2.244 . S
O69 C59 1.272 . S
O69 Co61 2.135 . S
Co70 O71 2.216 . S
Co70 O72 2.091 . S
Co70 O74 2.004 . S
Co70 O80 2.021 . S
Co70 O82 2.137 . S
Co70 O83 2.244 . S
O71 Co70 2.216 . S
O71 C78 1.247 . S
O72 Co70 2.091 . S
O72 C78 1.261 . S
C73 O82 1.247 . S
C73 O83 1.272 . S
O74 Co70 2.004 . S
O74 C79 1.259 . S
Co75 O76 2.061 . S
Co75 O81 2.052 . S
Co75 O83 2.135 . S
O76 Co75 2.061 . S
O76 C79 1.235 . S
C77 O80 1.238 . S
C77 O81 1.241 . S
C78 O71 1.247 . S
C78 O72 1.261 . S
C79 O74 1.259 . S
C79 O76 1.235 . S
O80 Co70 2.021 . S
O80 C77 1.238 . S
O81 Co75 2.052 . S
O81 C77 1.241 . S
O82 Co70 2.137 . S
O82 C73 1.247 . S
O83 Co70 2.244 . S
O83 C73 1.272 . S
O83 Co75 2.135 . S
H84 C90 0.930 . S
H85 C94 0.930 . S
H86 C99 0.929 . S
H87 C97 0.929 . S
H88 C92 0.929 1_545 S
H89 C98 0.929 . S
C90 H84 0.930 . S
C90 C91 1.367 . S
C90 C98 1.378 . S
C91 C90 1.367 . S
C91 C99 1.433 . S
C92 H88 0.929 1_565 S
C92 C94 1.378 . S
C92 C96 1.350 . S
C93 C96 1.463 1_545 S
C93 C98 1.350 . S
C93 N101 1.427 . S
C94 H85 0.930 . S
C94 C92 1.378 . S
C94 C95 1.367 . S
C95 C94 1.367 . S
C95 C97 1.433 . S
C96 C92 1.350 . S
C96 C93 1.463 1_565 S
C96 N100 1.427 . S
C97 H87 0.929 . S
C97 C95 1.433 . S
C97 N100 1.384 . S
C98 H89 0.929 . S
C98 C90 1.378 . S
C98 C93 1.350 . S
C99 H86 0.929 . S
C99 C91 1.433 . S
C99 N101 1.384 . S
N100 C96 1.427 . S
N100 C97 1.384 . S
N101 C93 1.427 . S
N101 C99 1.384 . S
H102 C108 0.930 . S
H103 C112 0.930 . S
H104 C117 0.929 . S
H105 C115 0.929 . S
H106 C110 0.929 . S
H107 C116 0.929 . S
C108 H102 0.930 . S
C108 C109 1.367 . S
C108 C116 1.378 . S
C109 C108 1.367 . S
C109 C117 1.433 . S
C110 H106 0.929 . S
C110 C112 1.378 . S
C110 C114 1.350 . S
C111 C114 1.463 . S
C111 C116 1.350 . S
C111 N119 1.427 . S
C112 H103 0.930 . S
C112 C110 1.378 . S
C112 C113 1.367 . S
C113 C112 1.367 . S
C113 C115 1.433 . S
C114 C110 1.350 . S
C114 C111 1.463 . S
C114 N118 1.427 . S
C115 H105 0.929 . S
C115 C113 1.433 . S
C115 N118 1.384 . S
C116 H107 0.929 . S
C116 C108 1.378 . S
C116 C111 1.350 . S
C117 H104 0.929 . S
C117 C109 1.433 . S
C117 N119 1.384 . S
N118 C114 1.427 . S
N118 C115 1.384 . S
N119 C111 1.427 . S
N119 C117 1.384 . S
H120 C126 0.930 . S
H121 C130 0.930 . S
H122 C135 0.929 . S
H123 C133 0.929 . S
H124 C128 0.917 1_655 S
H125 C134 0.929 . S
C126 H120 0.930 . S
C126 C127 1.367 . S
C126 C134 1.378 . S
C127 C126 1.367 . S
C127 C135 1.433 . S
C128 H124 0.917 1_455 S
C128 C130 1.378 . S
C128 C132 1.350 . S
C129 C132 1.463 1_655 S
C129 C134 1.350 . S
C129 N137 1.427 . S
C130 H121 0.930 . S
C130 C128 1.378 . S
C130 C131 1.367 . S
C131 C130 1.367 . S
C131 C133 1.433 . S
C132 C128 1.350 . S
C132 C129 1.463 1_455 S
C132 N136 1.427 . S
C133 H123 0.929 . S
C133 C131 1.433 . S
C133 N136 1.384 . S
C134 H125 0.929 . S
C134 C126 1.378 . S
C134 C129 1.350 . S
C135 H122 0.929 . S
C135 C127 1.433 . S
C135 N137 1.384 . S
N136 C132 1.427 . S
N136 C133 1.384 . S
N137 C129 1.427 . S
N137 C135 1.384 . S
H138 C144 0.930 1_556 S
H139 C148 0.930 1_554 S
H140 C153 0.929 . S
H141 C151 0.929 . S
H142 C146 0.929 . S
H143 C152 0.929 . S
C144 H138 0.930 1_554 S
C144 C145 1.367 . S
C144 C152 1.378 1_554 S
C145 C144 1.367 . S
C145 C153 1.433 . S
C146 H142 0.929 . S
C146 C148 1.378 1_554 S
C146 C150 1.350 1_554 S
C147 C150 1.463 1_564 S
C147 C152 1.350 1_554 S
C147 N155 1.427 . S
C148 H139 0.930 1_556 S
C148 C146 1.378 1_556 S
C148 C149 1.367 . S
C149 C148 1.367 . S
C149 C151 1.433 . S
C150 C146 1.350 1_556 S
C150 C147 1.463 1_546 S
C150 N154 1.427 . S
C151 H141 0.929 . S
C151 C149 1.433 . S
C151 N154 1.384 . S
C152 H143 0.929 . S
C152 C144 1.378 1_556 S
C152 C147 1.350 1_556 S
C153 H140 0.929 . S
C153 C145 1.433 . S
C153 N155 1.384 . S
N154 C150 1.427 . S
N154 C151 1.384 . S
N155 C147 1.427 . S
N155 C153 1.384 . S
H156 C162 0.930 . S
H157 C166 0.930 . S
H158 C171 0.929 . S
H159 C169 0.929 . S
H160 C164 0.929 . S
H161 C170 0.929 . S
C162 H156 0.930 . S
C162 C163 1.367 . S
C162 C170 1.378 . S
C163 C162 1.367 . S
C163 C171 1.433 . S
C164 H160 0.929 . S
C164 C166 1.378 . S
C164 C168 1.350 . S
C165 C168 1.463 . S
C165 C170 1.350 . S
C165 N173 1.427 . S
C166 H157 0.930 . S
C166 C164 1.378 . S
C166 C167 1.367 . S
C167 C166 1.367 . S
C167 C169 1.433 . S
C168 C164 1.350 . S
C168 C165 1.463 . S
C168 N172 1.427 . S
C169 H159 0.929 . S
C169 C167 1.433 . S
C169 N172 1.384 . S
C170 H161 0.929 . S
C170 C162 1.378 . S
C170 C165 1.350 . S
C171 H158 0.929 . S
C171 C163 1.433 . S
C171 N173 1.384 . S
N172 C168 1.427 . S
N172 C169 1.384 . S
N173 C165 1.427 . S
N173 C171 1.384 . S
H174 C180 0.930 . S
H175 C184 0.930 . S
H176 C189 0.929 . S
H177 C187 0.929 . S
H178 C182 0.929 1_455 S
H179 C188 0.929 . S
C180 H174 0.930 . S
C180 C181 1.367 . S
C180 C188 1.378 . S
C181 C180 1.367 . S
C181 C189 1.433 . S
C182 H178 0.929 1_655 S
C182 C184 1.378 . S
C182 C186 1.350 . S
C183 C186 1.463 1_455 S
C183 C188 1.350 . S
C183 N191 1.427 . S
C184 H175 0.930 . S
C184 C182 1.378 . S
C184 C185 1.367 . S
C185 C184 1.367 . S
C185 C187 1.433 . S
C186 C182 1.350 . S
C186 C183 1.463 1_655 S
C186 N190 1.427 . S
C187 H177 0.929 . S
C187 C185 1.433 . S
C187 N190 1.384 . S
C188 H179 0.929 . S
C188 C180 1.378 . S
C188 C183 1.350 . S
C189 H176 0.929 . S
C189 C181 1.433 . S
C189 N191 1.384 . S
N190 C186 1.427 . S
N190 C187 1.384 . S
N191 C183 1.427 . S
N191 C189 1.384 . S
H192 C198 0.930 . S
H193 C202 0.930 . S
H194 C207 0.929 . S
H195 C205 0.929 . S
H196 C200 0.929 . S
H197 C206 0.929 . S
C198 H192 0.930 . S
C198 C199 1.367 . S
C198 C206 1.378 . S
C199 C198 1.367 . S
C199 C207 1.433 . S
C200 H196 0.929 . S
C200 C202 1.378 . S
C200 C204 1.350 . S
C201 C204 1.463 . S
C201 C206 1.350 . S
C201 N209 1.427 . S
C202 H193 0.930 . S
C202 C200 1.378 . S
C202 C203 1.367 . S
C203 C202 1.367 . S
C203 C205 1.433 . S
C204 C200 1.350 . S
C204 C201 1.463 . S
C204 N208 1.427 . S
C205 H195 0.929 . S
C205 C203 1.433 . S
C205 N208 1.384 . S
C206 H197 0.929 . S
C206 C198 1.378 . S
C206 C201 1.350 . S
C207 H194 0.929 . S
C207 C199 1.433 . S
C207 N209 1.384 . S
N208 C204 1.427 . S
N208 C205 1.384 . S
N209 C201 1.427 . S
N209 C207 1.384 . S
H210 C216 0.930 . S
H211 C220 0.930 . S
H212 C225 0.929 . S
H213 C223 0.929 . S
H214 C218 0.929 . S
H215 C224 0.929 . S
C216 H210 0.930 . S
C216 C217 1.367 . S
C216 C224 1.378 . S
C217 C216 1.367 . S
C217 C225 1.433 . S
C218 H214 0.929 . S
C218 C220 1.378 . S
C218 C222 1.350 . S
C219 C222 1.463 . S
C219 C224 1.350 . S
C219 N227 1.427 . S
C220 H211 0.930 . S
C220 C218 1.378 . S
C220 C221 1.367 . S
C221 C220 1.367 . S
C221 C223 1.433 . S
C222 C218 1.350 . S
C222 C219 1.463 . S
C222 N226 1.427 . S
C223 H213 0.929 . S
C223 C221 1.433 . S
C223 N226 1.384 . S
C224 H215 0.929 . S
C224 C216 1.378 . S
C224 C219 1.350 . S
C225 H212 0.929 . S
C225 C217 1.433 . S
C225 N227 1.384 . S
N226 C222 1.427 . S
N226 C223 1.384 . S
N227 C219 1.427 . S
N227 C225 1.384 . S
H228 C234 0.930 . S
H229 C238 0.930 . S
H230 C243 0.929 . S
H231 C241 0.929 . S
H232 C236 0.929 . S
H233 C242 0.929 . S
C234 H228 0.930 . S
C234 C235 1.367 . S
C234 C242 1.378 . S
C235 C234 1.367 . S
C235 C243 1.433 . S
C236 H232 0.929 . S
C236 C238 1.378 . S
C236 C240 1.350 . S
C237 C240 1.463 . S
C237 C242 1.350 . S
C237 N245 1.427 . S
C238 H229 0.930 . S
C238 C236 1.378 . S
C238 C239 1.367 . S
C239 C238 1.367 . S
C239 C241 1.433 . S
C240 C236 1.350 . S
C240 C237 1.463 . S
C240 N244 1.427 . S
C241 H231 0.929 . S
C241 C239 1.433 . S
C241 N244 1.384 . S
C242 H233 0.929 . S
C242 C234 1.378 . S
C242 C237 1.350 . S
C243 H230 0.929 . S
C243 C235 1.433 . S
C243 N245 1.384 . S
N244 C240 1.427 . S
N244 C241 1.384 . S
N245 C237 1.427 . S
N245 C243 1.384 . S
H246 C252 0.930 . S
H247 C256 0.930 . S
H248 C261 0.929 . S
H249 C259 0.929 1_554 S
H250 C254 0.929 . S
H251 C260 0.929 . S
C252 H246 0.930 . S
C252 C253 1.367 . S
C252 C260 1.378 . S
C253 C252 1.367 . S
C253 C261 1.433 . S
C254 H250 0.929 . S
C254 C256 1.378 . S
C254 C258 1.350 . S
C255 C258 1.463 . S
C255 C260 1.350 . S
C255 N263 1.427 . S
C256 H247 0.930 . S
C256 C254 1.378 . S
C256 C257 1.367 . S
C257 C256 1.367 . S
C257 C259 1.433 . S
C258 C254 1.350 . S
C258 C255 1.463 . S
C258 N262 1.427 . S
C259 H249 0.929 1_556 S
C259 C257 1.433 . S
C259 N262 1.384 . S
C260 H251 0.929 . S
C260 C252 1.378 . S
C260 C255 1.350 . S
C261 H248 0.929 . S
C261 C253 1.433 . S
C261 N263 1.384 . S
N262 C258 1.427 . S
N262 C259 1.384 . S
N263 C255 1.427 . S
N263 C261 1.384 . S
H264 C270 0.930 1_556 S
H265 C274 0.930 . S
H266 C279 0.929 . S
H267 C277 0.929 . S
H268 C272 0.929 . S
H269 C278 0.929 . S
C270 H264 0.930 1_554 S
C270 C271 1.367 . S
C270 C278 1.378 . S
C271 C270 1.367 . S
C271 C279 1.433 . S
C272 H268 0.929 . S
C272 C274 1.378 . S
C272 C276 1.350 . S
C273 C276 1.463 . S
C273 C278 1.350 . S
C273 N281 1.427 . S
C274 H265 0.930 . S
C274 C272 1.378 . S
C274 C275 1.367 . S
C275 C274 1.367 . S
C275 C277 1.433 . S
C276 C272 1.350 . S
C276 C273 1.463 . S
C276 N280 1.427 . S
C277 H267 0.929 . S
C277 C275 1.433 . S
C277 N280 1.384 . S
C278 H269 0.929 . S
C278 C270 1.378 . S
C278 C273 1.350 . S
C279 H266 0.929 . S
C279 C271 1.433 . S
C279 N281 1.384 . S
N280 C276 1.427 . S
N280 C277 1.384 . S
N281 C273 1.427 . S
N281 C279 1.384 . S
H282 C288 0.930 . S
H283 C292 0.930 . S
H284 C297 0.929 . S
H285 C295 0.929 . S
H286 C290 0.929 . S
H287 C296 0.929 . S
C288 H282 0.930 . S
C288 C289 1.367 . S
C288 C296 1.378 . S
C289 C288 1.367 . S
C289 C297 1.433 . S
C290 H286 0.929 . S
C290 C292 1.378 . S
C290 C294 1.350 . S
C291 C294 1.463 . S
C291 C296 1.350 . S
C291 N299 1.427 . S
C292 H283 0.930 . S
C292 C290 1.378 . S
C292 C293 1.367 . S
C293 C292 1.367 . S
C293 C295 1.433 . S
C294 C290 1.350 . S
C294 C291 1.463 . S
C294 N298 1.427 . S
C295 H285 0.929 . S
C295 C293 1.433 . S
C295 N298 1.384 . S
C296 H287 0.929 . S
C296 C288 1.378 . S
C296 C291 1.350 . S
C297 H284 0.929 . S
C297 C289 1.433 . S
C297 N299 1.384 . S
N298 C294 1.427 . S
N298 C295 1.384 . S
N299 C291 1.427 . S
N299 C297 1.384 . S
C91 C9 1.608 . S
C95 C78 1.615 . S
C109 C8 1.615 . S
C113 C23 1.606 . S
C127 C37 1.610 . S
C131 C22 1.617 . S
C145 C51 1.608 . S
C149 C36 1.617 . S
C163 C65 1.610 . S
C167 C50 1.617 . S
C181 C79 1.610 . S
C185 C64 1.617 . S
C199 C3 1.457 . S
C203 C63 1.420 . S
C217 C77 1.431 . S
C221 C17 1.456 . S
C235 C31 1.457 . S
C239 C7 1.428 . S
C253 C21 1.429 . S
C257 C45 1.457 1_556 S
C271 C35 1.420 1_554 S
C275 C59 1.457 . S
C289 C73 1.457 . S
C293 C49 1.420 . S
