# Generated by pormake.
# Topology vmi, (6)-cn, num edge types: 1
# Building blocks:
#     Node 0, Type 0, BuildingBlock: IZENUY_clean_sbu_0, # of connection points: 6
#     Node 1, Type 0, BuildingBlock: IZENUY_clean_sbu_0, # of connection points: 6
#     Node 2, Type 0, BuildingBlock: IZENUY_clean_sbu_0, # of connection points: 6
#     Node 3, Type 0, BuildingBlock: IZENUY_clean_sbu_0, # of connection points: 6
#     Node 4, Type 0, BuildingBlock: IZENUY_clean_sbu_0, # of connection points: 6
#     Node 5, Type 0, BuildingBlock: IZENUY_clean_sbu_0, # of connection points: 6
#     Node 6, Type 0, BuildingBlock: IZENUY_clean_sbu_0, # of connection points: 6
#     Node 7, Type 0, BuildingBlock: IZENUY_clean_sbu_0, # of connection points: 6
#     Edge 8, Type (0, 0), BuildingBlock: MIFKUJ_clean_linker_0, # of connection points: 2
#     Edge 9, Type (0, 0), BuildingBlock: MIFKUJ_clean_linker_0, # of connection points: 2
#     Edge 10, Type (0, 0), BuildingBlock: MIFKUJ_clean_linker_0, # of connection points: 2
#     Edge 11, Type (0, 0), BuildingBlock: MIFKUJ_clean_linker_0, # of connection points: 2
#     Edge 12, Type (0, 0), BuildingBlock: MIFKUJ_clean_linker_0, # of connection points: 2
#     Edge 13, Type (0, 0), BuildingBlock: MIFKUJ_clean_linker_0, # of connection points: 2
#     Edge 14, Type (0, 0), BuildingBlock: MIFKUJ_clean_linker_0, # of connection points: 2
#     Edge 15, Type (0, 0), BuildingBlock: MIFKUJ_clean_linker_0, # of connection points: 2
#     Edge 16, Type (0, 0), BuildingBlock: MIFKUJ_clean_linker_0, # of connection points: 2
#     Edge 17, Type (0, 0), BuildingBlock: MIFKUJ_clean_linker_0, # of connection points: 2
#     Edge 18, Type (0, 0), BuildingBlock: MIFKUJ_clean_linker_0, # of connection points: 2
#     Edge 19, Type (0, 0), BuildingBlock: MIFKUJ_clean_linker_0, # of connection points: 2
#     Edge 20, Type (0, 0), BuildingBlock: MIFKUJ_clean_linker_0, # of connection points: 2
#     Edge 21, Type (0, 0), BuildingBlock: MIFKUJ_clean_linker_0, # of connection points: 2
#     Edge 22, Type (0, 0), BuildingBlock: MIFKUJ_clean_linker_0, # of connection points: 2
#     Edge 23, Type (0, 0), BuildingBlock: MIFKUJ_clean_linker_0, # of connection points: 2
#     Edge 24, Type (0, 0), BuildingBlock: MIFKUJ_clean_linker_0, # of connection points: 2
#     Edge 25, Type (0, 0), BuildingBlock: MIFKUJ_clean_linker_0, # of connection points: 2
#     Edge 26, Type (0, 0), BuildingBlock: MIFKUJ_clean_linker_0, # of connection points: 2
#     Edge 27, Type (0, 0), BuildingBlock: MIFKUJ_clean_linker_0, # of connection points: 2
#     Edge 28, Type (0, 0), BuildingBlock: MIFKUJ_clean_linker_0, # of connection points: 2
#     Edge 29, Type (0, 0), BuildingBlock: MIFKUJ_clean_linker_0, # of connection points: 2
#     Edge 30, Type (0, 0), BuildingBlock: MIFKUJ_clean_linker_0, # of connection points: 2
#     Edge 31, Type (0, 0), BuildingBlock: MIFKUJ_clean_linker_0, # of connection points: 2
# Relax obj value: 0.332
# Max RMSD: 0.290
# Mean RMSD: 0.290
data_MOF--net-vmi--node1-IZENUY_clean_sbu_0--edge1-MIFKUJ_clean_linker_0
_symmetry_space_group_name_H-M    P1
_symmetry_Int_Tables_number       1
_symmetry_cell_setting            triclinic
loop_
_symmetry_equiv_pos_as_xyz
'x, y, z'
_cell_length_a     35.075488
_cell_length_b     57.823023
_cell_length_c     38.003213
_cell_angle_alpha  89.906848
_cell_angle_beta   109.82754
_cell_angle_gamma 89.919704
loop_
_atom_site_label
_atom_site_type_symbol
_atom_site_fract_x
_atom_site_fract_y
_atom_site_fract_z
_atom_type_partial_charge
Fe0 Fe 0.18268 0.05463 0.23269 0.0
Fe1 Fe 0.15092 0.1011 0.19541 0.0
O2 O 0.19205 0.08378 0.22323 0.0
Fe3 Fe 0.24186 0.09527 0.24116 0.0
O4 O 0.26287 0.07252 0.22044 0.0
O5 O 0.23283 0.04331 0.2365 0.0
O6 O 0.16546 0.04747 0.18306 0.0
C7 C 0.13641 0.05785 0.159 0.0
C8 C 0.23196 0.06957 0.30156 0.0
O9 O 0.12354 0.07695 0.16687 0.0
C10 C 0.19967 0.13406 0.24693 0.0
O11 O 0.1308 0.06008 0.23169 0.0
O12 O 0.1239 0.09785 0.22831 0.0
O13 O 0.25431 0.08008 0.28646 0.0
O14 O 0.19902 0.06027 0.28216 0.0
C15 C 0.21003 0.11264 0.16653 0.0
O16 O 0.17105 0.12863 0.21758 0.0
O17 O 0.22627 0.11941 0.26352 0.0
C18 C 0.11339 0.07834 0.23677 0.0
O19 O 0.17456 0.10545 0.16079 0.0
O20 O 0.23702 0.11228 0.19878 0.0
C21 C 0.2605 0.05118 0.22562 0.0
Fe22 Fe 0.3472 0.1036 0.80273 0.0
Fe23 Fe 0.25953 0.09801 0.74958 0.0
O24 O 0.30922 0.08673 0.77005 0.0
Fe25 Fe 0.32003 0.05852 0.75769 0.0
O26 O 0.35652 0.05131 0.80388 0.0
O27 O 0.3565 0.0816 0.83874 0.0
O28 O 0.31185 0.11685 0.82313 0.0
C29 C 0.27709 0.11043 0.82268 0.0
C30 C 0.39022 0.08068 0.76074 0.0
O31 O 0.25331 0.09961 0.79502 0.0
C32 C 0.27226 0.07882 0.68904 0.0
O33 O 0.34113 0.12752 0.76985 0.0
O34 O 0.27486 0.12828 0.75214 0.0
O35 O 0.35993 0.06901 0.7416 0.0
O36 O 0.38904 0.0927 0.78828 0.0
C37 C 0.24406 0.05108 0.76003 0.0
O38 O 0.26388 0.09697 0.70343 0.0
O39 O 0.28581 0.06098 0.7089 0.0
C40 C 0.30793 0.13801 0.75489 0.0
O41 O 0.23368 0.07002 0.74284 0.0
O42 O 0.281 0.04558 0.77316 0.0
C43 C 0.3649 0.06067 0.83568 0.0
Fe44 Fe 0.81801 0.95418 0.756 0.0
Fe45 Fe 0.75761 0.9144 0.74349 0.0
O46 O 0.80724 0.92533 0.76527 0.0
Fe47 Fe 0.84495 0.90733 0.79611 0.0
O48 O 0.85432 0.92751 0.83421 0.0
O49 O 0.85383 0.95976 0.80322 0.0
O50 O 0.77844 0.9658 0.77206 0.0
C51 C 0.74156 0.96064 0.75741 0.0
C52 C 0.88859 0.9328 0.75742 0.0
O53 O 0.73158 0.94237 0.7384 0.0
C54 C 0.80581 0.87452 0.74608 0.0
O55 O 0.78442 0.95326 0.70669 0.0
O56 O 0.76291 0.91716 0.69811 0.0
O57 O 0.88708 0.91921 0.78314 0.0
O58 O 0.8585 0.94513 0.73964 0.0
C59 C 0.77474 0.89965 0.81519 0.0
O60 O 0.77279 0.88413 0.744 0.0
O61 O 0.83884 0.88505 0.76084 0.0
C62 C 0.77124 0.93597 0.68544 0.0
O63 O 0.75101 0.91126 0.78843 0.0
O64 O 0.80916 0.89304 0.81484 0.0
C65 C 0.8625 0.94865 0.83368 0.0
Fe66 Fe 0.74953 0.91139 0.24204 0.0
Fe67 Fe 0.66079 0.90431 0.19318 0.0
O68 O 0.69956 0.92235 0.22237 0.0
Fe69 Fe 0.68938 0.95128 0.23162 0.0
O70 O 0.72733 0.96277 0.21345 0.0
O71 O 0.77531 0.93919 0.24513 0.0
O72 O 0.75282 0.90791 0.19572 0.0
C73 C 0.72784 0.89613 0.17021 0.0
C74 C 0.7398 0.93351 0.30151 0.0
O75 O 0.69487 0.88923 0.17342 0.0
C76 C 0.61954 0.93077 0.23302 0.0
O77 O 0.73444 0.8813 0.24339 0.0
O78 O 0.66855 0.88239 0.22967 0.0
O79 O 0.72485 0.95055 0.28009 0.0
O80 O 0.74764 0.91462 0.28868 0.0
C81 C 0.64317 0.94556 0.1546 0.0
O82 O 0.61988 0.91694 0.20725 0.0
O83 O 0.65043 0.94254 0.25022 0.0
C84 C 0.7021 0.87212 0.2442 0.0
O85 O 0.65023 0.9242 0.15416 0.0
O86 O 0.65209 0.95659 0.18508 0.0
C87 C 0.76433 0.95764 0.2267 0.0
Fe88 Fe 0.65162 0.60639 0.69605 0.0
Fe89 Fe 0.7431 0.59929 0.74008 0.0
O90 O 0.69295 0.58823 0.72134 0.0
Fe91 Fe 0.68315 0.55861 0.72735 0.0
O92 O 0.66563 0.55383 0.67708 0.0
O93 O 0.62366 0.58334 0.66532 0.0
O94 O 0.67464 0.61245 0.66134 0.0
C95 C 0.71067 0.61857 0.66663 0.0
C96 C 0.61471 0.58102 0.73537 0.0
O97 O 0.7383 0.61718 0.69853 0.0
C98 C 0.73209 0.57144 0.79787 0.0
O99 O 0.67233 0.63316 0.72053 0.0
O100 O 0.72843 0.62282 0.76429 0.0
O101 O 0.63168 0.56352 0.72721 0.0
O102 O 0.62501 0.60119 0.7292 0.0
C103 C 0.7609 0.55581 0.72038 0.0
O104 O 0.75486 0.58285 0.78424 0.0
O105 O 0.69972 0.56212 0.77723 0.0
C106 C 0.70204 0.63788 0.74938 0.0
O107 O 0.76432 0.57731 0.7181 0.0
O108 O 0.73265 0.54736 0.72965 0.0
C109 C 0.63644 0.56508 0.65474 0.0
Fe110 Fe 0.84459 0.60108 0.29758 0.0
Fe111 Fe 0.757 0.59251 0.2464 0.0
O112 O 0.80779 0.58279 0.26656 0.0
Fe113 Fe 0.82083 0.55476 0.25563 0.0
O114 O 0.8582 0.54907 0.302 0.0
O115 O 0.85607 0.58002 0.33486 0.0
O116 O 0.80857 0.61378 0.31779 0.0
C117 C 0.77523 0.60597 0.3191 0.0
C118 C 0.88912 0.578 0.2569 0.0
O119 O 0.75183 0.5943 0.29231 0.0
C120 C 0.77173 0.57344 0.18662 0.0
O121 O 0.83571 0.62424 0.26299 0.0
O122 O 0.76958 0.62316 0.24726 0.0
O123 O 0.85916 0.56598 0.23832 0.0
O124 O 0.88725 0.59075 0.28346 0.0
C125 C 0.74629 0.54555 0.26013 0.0
O126 O 0.76061 0.5912 0.19997 0.0
O127 O 0.78605 0.55593 0.20704 0.0
C128 C 0.80146 0.63376 0.24854 0.0
O129 O 0.73377 0.5638 0.24148 0.0
O130 O 0.78361 0.54105 0.27248 0.0
C131 C 0.86576 0.55919 0.3331 0.0
Fe132 Fe 0.32465 0.4514 0.26037 0.0
Fe133 Fe 0.26785 0.41032 0.2566 0.0
O134 O 0.31689 0.42284 0.27347 0.0
Fe135 Fe 0.35871 0.40724 0.30387 0.0
O136 O 0.38396 0.43288 0.32908 0.0
O137 O 0.34002 0.46116 0.30866 0.0
O138 O 0.27339 0.46213 0.25387 0.0
C139 C 0.24662 0.45492 0.26652 0.0
C140 C 0.39647 0.42833 0.26112 0.0
O141 O 0.24527 0.43387 0.2743 0.0
C142 C 0.31262 0.37167 0.25634 0.0
O143 O 0.31046 0.44282 0.21232 0.0
O144 O 0.25522 0.42345 0.20952 0.0
O145 O 0.38675 0.40904 0.27133 0.0
O146 O 0.37722 0.44647 0.26343 0.0
C147 C 0.29909 0.39762 0.33346 0.0
O148 O 0.28542 0.3854 0.23762 0.0
O149 O 0.34045 0.37854 0.28532 0.0
C150 C 0.27861 0.43224 0.19381 0.0
O151 O 0.27313 0.39522 0.30092 0.0
O152 O 0.33431 0.40493 0.33829 0.0
C153 C 0.36958 0.45218 0.33416 0.0
Fe154 Fe 0.24347 0.41501 0.74575 0.0
Fe155 Fe 0.15347 0.40927 0.69606 0.0
O156 O 0.19379 0.42651 0.72519 0.0
Fe157 Fe 0.18364 0.45573 0.73357 0.0
O158 O 0.23452 0.467 0.7408 0.0
O159 O 0.26651 0.4379 0.7271 0.0
O160 O 0.24165 0.39838 0.70379 0.0
C161 C 0.21586 0.39779 0.67087 0.0
C162 C 0.22717 0.43978 0.80368 0.0
O163 O 0.1798 0.40451 0.66364 0.0
C164 C 0.11283 0.43284 0.73416 0.0
O165 O 0.22639 0.39061 0.76643 0.0
O166 O 0.17232 0.38161 0.71921 0.0
O167 O 0.19587 0.44978 0.78243 0.0
O168 O 0.25228 0.42996 0.7909 0.0
C169 C 0.142 0.45261 0.65929 0.0
O170 O 0.12343 0.41306 0.72666 0.0
O171 O 0.13083 0.45074 0.72893 0.0
C172 C 0.20049 0.37596 0.74889 0.0
O173 O 0.12805 0.43354 0.66611 0.0
O174 O 0.1701 0.46288 0.68434 0.0
C175 C 0.26331 0.45925 0.7315 0.0
H176 H 0.60658 0.96103 0.28335 0.0
H177 H 0.54189 0.9768 0.28277 0.0
H178 H 0.47869 0.93072 0.19283 0.0
H179 H 0.5434 0.91524 0.19248 0.0
H180 H 0.4514 0.97253 0.17568 0.0
H181 H 0.47702 0.9248 0.28374 0.0
H182 H 0.51632 0.9091 0.34584 0.0
H183 H 0.51923 0.97628 0.3946 0.0
H184 H 0.48076 0.99253 0.33264 0.0
H185 H 0.27176 0.0053 0.24482 0.0
H186 H 0.3286 0.9805 0.24565 0.0
H187 H 0.38088 0.03683 0.20314 0.0
H188 H 0.32403 0.06169 0.20181 0.0
H189 H 0.40821 0.98528 0.28555 0.0
H190 H 0.43008 0.01966 0.15401 0.0
H191 H 0.3923 0.03225 0.08945 0.0
H192 H 0.29195 0.98941 0.08836 0.0
H193 H 0.32984 0.97612 0.15261 0.0
C194 C 0.57895 0.95388 0.26387 0.0
C195 C 0.58037 0.93689 0.23781 0.0
C196 C 0.54185 0.9629 0.26368 0.0
C197 C 0.50524 0.95494 0.23783 0.0
C198 C 0.50648 0.9372 0.213 0.0
C199 C 0.54358 0.92823 0.21303 0.0
C200 C 0.46606 0.96634 0.23474 0.0
C201 C 0.44215 0.97527 0.19981 0.0
C202 C 0.4533 0.9697 0.266 0.0
C203 C 0.4762 0.95992 0.30341 0.0
C204 C 0.48629 0.93628 0.30763 0.0
C205 C 0.50841 0.92728 0.34283 0.0
C206 C 0.52025 0.94168 0.37414 0.0
C207 C 0.50994 0.96513 0.37033 0.0
C208 C 0.48803 0.97425 0.33516 0.0
C209 C 0.29508 0.01237 0.23521 0.0
C210 C 0.29327 0.03555 0.2233 0.0
C211 C 0.32767 0.99816 0.23587 0.0
C212 C 0.35895 0.00672 0.22429 0.0
C213 C 0.35686 0.02971 0.21171 0.0
C214 C 0.32436 0.04395 0.21114 0.0
C215 C 0.39459 0.99197 0.22678 0.0
C216 C 0.41774 0.98247 0.26156 0.0
C217 C 0.40679 0.98803 0.19549 0.0
C218 C 0.383 0.9967 0.15775 0.0
C219 C 0.40022 0.01272 0.13972 0.0
C220 C 0.37875 0.02002 0.10329 0.0
C221 C 0.33987 0.01149 0.08471 0.0
C222 C 0.32218 0.99589 0.10273 0.0
C223 C 0.34364 0.98848 0.13915 0.0
H224 H 0.32344 0.01702 0.05638 0.0
H225 H 0.53746 0.93469 0.40135 0.0
H226 H 0.9624 0.91197 0.79284 0.0
H227 H 0.02877 0.92462 0.79223 0.0
H228 H 0.97095 0.97801 0.71242 0.0
H229 H 0.90489 0.9649 0.71158 0.0
H230 H 0.0314 0.96242 0.69646 0.0
H231 H 0.01249 0.98481 0.81358 0.0
H232 H 1.00249 0.9767 0.87366 0.0
H233 H 0.11301 0.93738 0.91044 0.0
H234 H 0.1232 0.94484 0.85031 0.0
H235 H 0.16245 0.05635 0.72717 0.0
H236 H 0.10906 0.02947 0.72665 0.0
H237 H 0.19818 0.98135 0.79396 0.0
H238 H 0.25251 0.00842 0.79474 0.0
H239 H 0.13117 0.98674 0.81796 0.0
H240 H 0.15484 0.96944 0.70467 0.0
H241 H 0.16554 0.97815 0.64519 0.0
H242 H 0.04697 0.00862 0.60189 0.0
H243 H 0.03577 1.00042 0.66133 0.0
C244 C 0.96379 0.92611 0.77459 0.0
C245 C 0.92821 0.93759 0.75264 0.0
C246 C 1.00184 0.93347 0.77454 0.0
C247 C 0.00512 0.95274 0.75312 0.0
C248 C 0.96946 0.96324 0.72948 0.0
C249 C 0.93152 0.95571 0.72909 0.0
C250 C 0.04518 0.96293 0.75619 0.0
C251 C 0.05307 0.96778 0.72307 0.0
C252 C 0.07441 0.96929 0.79099 0.0
C253 C 0.06829 0.96509 0.82723 0.0
C254 C 0.03449 0.97429 0.83438 0.0
C255 C 0.0288 0.96982 0.86845 0.0
C256 C 0.05701 0.95642 0.89575 0.0
C257 C 0.0911 0.94765 0.88918 0.0
C258 C 0.09681 0.95197 0.85512 0.0
C259 C 0.17099 0.04007 0.74192 0.0
C260 C 0.21196 0.03452 0.76079 0.0
C261 C 0.14028 0.02466 0.74145 0.0
C262 C 0.14961 1.00325 0.75977 0.0
C263 C 0.19034 0.99773 0.77943 0.0
C264 C 0.22133 0.01319 0.77976 0.0
C265 C 0.11626 0.98698 0.75818 0.0
C266 C 0.10975 0.98099 0.79147 0.0
C267 C 0.08815 0.97965 0.72359 0.0
C268 C 0.09456 0.98441 0.68758 0.0
C269 C 0.13113 0.97813 0.68256 0.0
C270 C 0.13728 0.98296 0.64883 0.0
C271 C 0.10698 0.99396 0.61979 0.0
C272 C 0.07042 1.0001 0.6244 0.0
C273 C 0.06413 0.99533 0.6581 0.0
H274 H 0.1118 0.9977 0.59371 0.0
H275 H 0.05254 0.95279 0.922 0.0
H276 H 0.74805 0.99851 0.80301 0.0
H277 H 0.69369 0.02524 0.80358 0.0
H278 H 0.6084 0.98673 0.7142 0.0
H279 H 0.66195 0.96004 0.71362 0.0
H280 H 0.60134 0.03364 0.70164 0.0
H281 H 0.60992 0.97973 0.80036 0.0
H282 H 0.64085 0.95838 0.85943 0.0
H283 H 0.66634 0.02238 0.91999 0.0
H284 H 0.63618 0.04416 0.86113 0.0
H285 H 0.40498 0.05472 0.70641 0.0
H286 H 0.47054 0.04179 0.70495 0.0
H287 H 0.53101 0.08411 0.80097 0.0
H288 H 0.46537 0.09666 0.80339 0.0
H289 H 0.55934 0.04251 0.8128 0.0
H290 H 0.53647 0.095 0.71308 0.0
H291 H 0.50184 0.1151 0.65355 0.0
H292 H 0.49857 0.052 0.59326 0.0
H293 H 0.53207 0.0313 0.65247 0.0
C294 C 0.71771 0.99579 0.78348 0.0
C295 C 0.70939 0.97711 0.75831 0.0
C296 C 0.68669 0.01103 0.78389 0.0
C297 C 0.64698 0.00797 0.7589 0.0
C298 C 0.63881 0.9895 0.7336 0.0
C299 C 0.66952 0.97416 0.73348 0.0
C300 C 0.61346 0.02371 0.75899 0.0
C301 C 0.59171 0.03539 0.72578 0.0
C302 C 0.60194 0.02662 0.79094 0.0
C303 C 0.62157 0.01361 0.82619 0.0
C304 C 0.62278 0.98928 0.82616 0.0
C305 C 0.63998 0.9771 0.85965 0.0
C306 C 0.65575 0.98902 0.89343 0.0
C307 C 0.65429 0.01317 0.89378 0.0
C308 C 0.6372 0.02544 0.86036 0.0
C309 C 0.43216 0.0617 0.72682 0.0
C310 C 0.42973 0.07662 0.75524 0.0
C311 C 0.46977 0.05439 0.72575 0.0
C312 C 0.50591 0.06208 0.75266 0.0
C313 C 0.50362 0.07794 0.77985 0.0
C314 C 0.46597 0.08519 0.78108 0.0
C315 C 0.54543 0.05147 0.75484 0.0
C316 C 0.56874 0.04088 0.7886 0.0
C317 C 0.55784 0.04925 0.72319 0.0
C318 C 0.53665 0.06152 0.68742 0.0
C319 C 0.52794 0.0853 0.68721 0.0
C320 C 0.50857 0.09683 0.65347 0.0
C321 C 0.49813 0.08485 0.61964 0.0
C322 C 0.50687 0.06129 0.61948 0.0
C323 C 0.52594 0.04963 0.65316 0.0
H324 H 0.48312 0.09381 0.59356 0.0
H325 H 0.66895 0.97955 0.91934 0.0
H326 H 0.75552 0.99677 0.18309 0.0
H327 H 0.80834 0.02503 0.1843 0.0
H328 H 0.89614 0.98516 0.27022 0.0
H329 H 0.84429 0.95698 0.26897 0.0
H330 H 0.89853 0.03211 0.28674 0.0
H331 H 0.89549 0.98142 0.18515 0.0
H332 H 0.86543 0.96174 0.12454 0.0
H333 H 0.8374 0.02742 0.06877 0.0
H334 H 0.86672 0.04753 0.12923 0.0
H335 H 0.09652 0.04839 0.28422 0.0
H336 H 0.0293 0.03693 0.28379 0.0
H337 H 0.97479 0.08937 0.20107 0.0
H338 H 0.04237 0.1012 0.20197 0.0
H339 H 0.946 0.04452 0.17921 0.0
H340 H 0.96235 0.09456 0.28211 0.0
H341 H 0.99686 0.11257 0.34342 0.0
H342 H 0.0035 0.04671 0.3975 0.0
H343 H 0.96954 0.02821 0.33647 0.0
C344 C 0.78612 0.99405 0.20214 0.0
C345 C 0.79566 0.97462 0.22591 0.0
C346 C 0.81621 0.01018 0.20279 0.0
C347 C 0.85608 0.00721 0.2275 0.0
C348 C 0.86552 0.98786 0.25114 0.0
C349 C 0.8358 0.97167 0.25018 0.0
C350 C 0.88857 0.02396 0.22904 0.0
C351 C 0.90892 0.03489 0.26324 0.0
C352 C 0.90134 0.02802 0.19804 0.0
C353 C 0.88269 0.01598 0.16181 0.0
C354 C 0.88238 0.99168 0.16006 0.0
C355 C 0.86562 0.98044 0.12571 0.0
C356 C 0.84946 0.99332 0.09285 0.0
C357 C 0.84988 0.01747 0.09427 0.0
C358 C 0.86653 0.0288 0.12857 0.0
C359 C 0.07026 0.05797 0.26692 0.0
C360 C 0.07452 0.07569 0.24325 0.0
C361 C 0.03189 0.05143 0.26665 0.0
C362 C 0.99704 0.06228 0.24232 0.0
C363 C 1.00132 0.08085 0.2201 0.0
C364 C 0.03989 0.08771 0.22088 0.0
C365 C 0.95666 0.0522 0.23724 0.0
C366 C 0.93489 0.04239 0.20242 0.0
C367 C 0.94281 0.04898 0.26776 0.0
C368 C 0.96348 0.05998 0.30461 0.0
C369 C 0.9714 0.08388 0.30703 0.0
C370 C 0.99077 0.09419 0.34176 0.0
C371 C 1.00225 0.08081 0.37433 0.0
C372 C 0.99444 0.05707 0.37224 0.0
C373 C 0.97508 0.04666 0.33759 0.0
H374 H 0.01734 0.08881 0.40118 0.0
H375 H 0.83684 0.98456 0.06631 0.0
H376 H 0.09866 0.46543 0.77858 0.0
H377 H 0.0331 0.47963 0.77763 0.0
H378 H 0.9739 0.42397 0.70384 0.0
H379 H 0.04028 0.40991 0.70412 0.0
H380 H 0.94201 0.46415 0.67546 0.0
H381 H 0.96952 0.42878 0.79432 0.0
H382 H 0.0099 0.41805 0.85909 0.0
H383 H 0.01948 0.48957 0.89105 0.0
H384 H 0.97966 0.50078 0.82635 0.0
H385 H 0.75525 0.50981 0.70264 0.0
H386 H 0.81057 0.48344 0.70357 0.0
H387 H 0.89501 0.54013 0.73333 0.0
H388 H 0.83986 0.56672 0.73132 0.0
H389 H 0.90649 0.49343 0.78303 0.0
H390 H 0.88946 0.52813 0.66174 0.0
H391 H 0.85289 0.53865 0.59602 0.0
H392 H 0.82457 0.46721 0.56906 0.0
H393 H 0.86027 0.45631 0.63491 0.0
C394 C 0.07177 0.45575 0.7631 0.0
C395 C 0.07453 0.43656 0.74147 0.0
C396 C 0.03419 0.46386 0.76265 0.0
C397 C 0.99836 0.45286 0.74081 0.0
C398 C 1.00113 0.43273 0.72099 0.0
C399 C 0.03903 0.42453 0.72148 0.0
C400 C 0.95862 0.46419 0.73554 0.0
C401 C 0.93374 0.47 0.69903 0.0
C402 C 0.94809 0.47229 0.76623 0.0
C403 C 0.97169 0.46562 0.80536 0.0
C404 C 0.98041 0.44224 0.81509 0.0
C405 C 0.00319 0.43607 0.85182 0.0
C406 C 0.01728 0.45312 0.87916 0.0
C407 C 0.00852 0.47638 0.86984 0.0
C408 C 0.98577 0.48265 0.83316 0.0
C409 C 0.78551 0.51671 0.70878 0.0
C410 C 0.79321 0.54034 0.71696 0.0
C411 C 0.81699 0.50165 0.70924 0.0
C412 C 0.85674 0.50989 0.71847 0.0
C413 C 0.86442 0.53351 0.72595 0.0
C414 C 0.83287 0.54867 0.72468 0.0
C415 C 0.89086 0.49368 0.7232 0.0
C416 C 0.91447 0.48704 0.7596 0.0
C417 C 0.90017 0.48477 0.69248 0.0
C418 C 0.87688 0.49146 0.6534 0.0
C419 C 0.87474 0.51471 0.64199 0.0
C420 C 0.85442 0.52072 0.60464 0.0
C421 C 0.83646 0.5036 0.57837 0.0
C422 C 0.83848 0.48045 0.58945 0.0
C423 C 0.85869 0.47436 0.62679 0.0
H424 H 0.82103 0.50825 0.54941 0.0
H425 H 0.03495 0.44831 0.90756 0.0
H426 H 0.66585 0.55295 0.24566 0.0
H427 H 0.61552 0.526 0.25222 0.0
H428 H 0.70736 0.47329 0.29176 0.0
H429 H 0.75852 0.50042 0.28522 0.0
H430 H 0.63662 0.45664 0.23859 0.0
H431 H 0.67269 0.49637 0.35319 0.0
H432 H 0.6894 0.5294 0.39666 0.0
H433 H 0.56924 0.55658 0.34555 0.0
H434 H 0.55196 0.52396 0.30126 0.0
H435 H 0.46646 0.40231 0.28914 0.0
H436 H 0.53494 0.41478 0.29301 0.0
H437 H 0.48396 0.47504 0.2268 0.0
H438 H 0.41608 0.46264 0.22219 0.0
H439 H 0.54542 0.48047 0.3073 0.0
H440 H 0.51776 0.4425 0.18531 0.0
H441 H 0.50318 0.4081 0.14468 0.0
H442 H 0.61147 0.37528 0.2168 0.0
H443 H 0.62636 0.40941 0.25817 0.0
C444 C 0.67556 0.53565 0.25578 0.0
C445 C 0.71628 0.52886 0.26484 0.0
C446 C 0.6467 0.52027 0.25972 0.0
C447 C 0.65772 0.4977 0.27285 0.0
C448 C 0.69826 0.49067 0.28171 0.0
C449 C 0.72742 0.5062 0.27805 0.0
C450 C 0.62609 0.48168 0.2763 0.0
C451 C 0.61725 0.46155 0.25434 0.0
C452 C 0.60097 0.48795 0.2971 0.0
C453 C 0.6111 0.50773 0.32367 0.0
C454 C 0.64989 0.50948 0.35097 0.0
C455 C 0.65947 0.52813 0.3758 0.0
C456 C 0.63043 0.54511 0.37381 0.0
C457 C 0.59172 0.54343 0.34704 0.0
C458 C 0.582 0.52484 0.32207 0.0
C459 C 0.46982 0.41774 0.27428 0.0
C460 C 0.43593 0.43161 0.25561 0.0
C461 C 0.50892 0.42492 0.27676 0.0
C462 C 0.51436 0.44597 0.26057 0.0
C463 C 0.48034 0.45884 0.23969 0.0
C464 C 0.44157 0.45167 0.23699 0.0
C465 C 0.55502 0.45623 0.26822 0.0
C466 C 0.5655 0.47528 0.2924 0.0
C467 C 0.58185 0.44876 0.25 0.0
C468 C 0.57283 0.42834 0.2251 0.0
C469 C 0.53819 0.42784 0.19274 0.0
C470 C 0.52994 0.40842 0.16951 0.0
C471 C 0.55629 0.38947 0.17823 0.0
C472 C 0.59103 0.38994 0.21013 0.0
C473 C 0.59939 0.40932 0.23346 0.0
H474 H 0.54987 0.37446 0.1602 0.0
H475 H 0.63792 0.55954 0.39304 0.0
H476 H 0.90423 0.54913 0.20625 0.0
H477 H 0.96922 0.53326 0.20869 0.0
H478 H 0.03036 0.5789 0.30005 0.0
H479 H 0.96482 0.59422 0.29895 0.0
H480 H 0.0359 0.54514 0.20114 0.0
H481 H 0.11342 0.55128 0.36067 0.0
H482 H 0.09477 0.55594 0.41734 0.0
H483 H 0.98065 0.52281 0.36222 0.0
H484 H 0.99886 0.51759 0.30557 0.0
H485 H 0.23492 0.50038 0.24471 0.0
H486 H 0.17906 0.52579 0.24434 0.0
H487 H 0.12852 0.47121 0.29223 0.0
H488 H 0.1846 0.44576 0.29321 0.0
H489 H 0.12106 0.51176 0.32285 0.0
H490 H 0.09202 0.48238 0.19846 0.0
H491 H 0.10593 0.47447 0.14021 0.0
H492 H 0.11521 0.54731 0.12262 0.0
H493 H 0.10189 0.55565 0.1811 0.0
C494 C 0.93143 0.55613 0.22659 0.0
C495 C 0.92904 0.57273 0.25285 0.0
C496 C 0.96879 0.54701 0.22788 0.0
C497 C 0.00487 0.55437 0.25518 0.0
C498 C 0.00294 0.57243 0.27934 0.0
C499 C 0.96539 0.58138 0.27843 0.0
C500 C 0.04358 0.54185 0.25965 0.0
C501 C 0.05467 0.53807 0.22787 0.0
C502 C 0.06798 0.53216 0.29434 0.0
C503 C 0.05728 0.53437 0.32873 0.0
C504 C 0.08443 0.54489 0.36076 0.0
C505 C 0.07393 0.54763 0.39287 0.0
C506 C 0.0364 0.53984 0.3933 0.0
C507 C 0.00957 0.52897 0.36182 0.0
C508 C 0.01998 0.52609 0.32972 0.0
C509 C 0.21211 0.49378 0.25542 0.0
C510 C 0.21409 0.47087 0.26856 0.0
C511 C 0.18008 0.50835 0.25509 0.0
C512 C 0.14916 0.50035 0.26771 0.0
C513 C 0.15188 0.47779 0.28221 0.0
C514 C 0.18391 0.4632 0.28256 0.0
C515 C 0.11312 0.51506 0.26434 0.0
C516 C 0.10259 0.51918 0.29628 0.0
C517 C 0.08863 0.52456 0.22963 0.0
C518 C 0.0964 0.51963 0.19435 0.0
C519 C 0.09733 0.49671 0.18231 0.0
C520 C 0.10506 0.49215 0.14924 0.0
C521 C 0.11155 0.51038 0.12778 0.0
C522 C 0.11024 0.53321 0.13931 0.0
C523 C 0.10258 0.53787 0.1724 0.0
H524 H 0.11746 0.5068 0.10216 0.0
H525 H 0.02817 0.54222 0.41804 0.0
H526 H 0.59954 0.54441 0.77247 0.0
H527 H 0.53336 0.53047 0.77064 0.0
H528 H 0.47748 0.59281 0.71396 0.0
H529 H 0.5442 0.60685 0.71494 0.0
H530 H 0.45274 0.56443 0.78338 0.0
H531 H 0.45733 0.56378 0.65561 0.0
H532 H 0.49401 0.55722 0.61136 0.0
H533 H 0.5166 0.48673 0.6483 0.0
H534 H 0.48069 0.49301 0.69325 0.0
H535 H 0.26235 0.50665 0.73108 0.0
H536 H 0.31645 0.53292 0.7299 0.0
H537 H 0.3916 0.47451 0.72608 0.0
H538 H 0.33718 0.44817 0.72606 0.0
H539 H 0.4014 0.50657 0.68194 0.0
H540 H 0.40177 0.50532 0.80878 0.0
H541 H 0.37234 0.50962 0.85886 0.0
H542 H 0.34609 0.58106 0.82939 0.0
H543 H 0.37491 0.57709 0.77879 0.0
C544 C 0.57337 0.5555 0.76051 0.0
C545 C 0.57701 0.57665 0.74358 0.0
C546 C 0.53558 0.54747 0.75947 0.0
C547 C 0.50061 0.56047 0.74176 0.0
C548 C 0.50428 0.58254 0.7277 0.0
C549 C 0.54237 0.59061 0.72853 0.0
C550 C 0.46062 0.54939 0.73462 0.0
C551 C 0.44066 0.55227 0.7606 0.0
C552 C 0.44599 0.53292 0.70572 0.0
C553 C 0.46668 0.52894 0.67804 0.0
C554 C 0.47043 0.54694 0.65451 0.0
C555 C 0.49102 0.54327 0.62927 0.0
C556 C 0.50773 0.5216 0.62711 0.0
C557 C 0.50369 0.50352 0.65005 0.0
C558 C 0.48319 0.50712 0.67538 0.0
C559 C 0.29033 0.49937 0.72982 0.0
C560 C 0.29548 0.47525 0.72899 0.0
C561 C 0.32135 0.51445 0.72929 0.0
C562 C 0.35852 0.50576 0.72856 0.0
C563 C 0.3633 0.4817 0.7267 0.0
C564 C 0.33214 0.46662 0.72682 0.0
C565 C 0.39286 0.52158 0.73067 0.0
C566 C 0.41233 0.51927 0.70406 0.0
C567 C 0.40724 0.53842 0.75927 0.0
C568 C 0.39003 0.54084 0.78973 0.0
C569 C 0.38944 0.5219 0.81281 0.0
C570 C 0.37292 0.52428 0.84131 0.0
C571 C 0.35724 0.54558 0.84723 0.0
C572 C 0.35816 0.56456 0.82472 0.0
C573 C 0.3746 0.56226 0.79614 0.0
H574 H 0.34446 0.54739 0.86932 0.0
H575 H 0.52373 0.51878 0.60764 0.0
H576 H 0.14381 0.01346 0.13545 0.0
H577 H 0.09903 0.99451 0.07874 0.0
H578 H 0.03189 0.05807 0.04508 0.0
H579 H 0.07588 0.07696 0.1012 0.0
H580 H 0.98232 0.02303 0.0446 0.0
H581 H 0.08804 0.03768 0.99195 0.0
H582 H 0.15594 0.03663 0.98598 0.0
H583 H 0.15886 0.9627 -0.00289 0.0
H584 H 0.09042 0.96325 0.00193 0.0
H585 H 0.8701 0.99481 0.85068 0.0
H586 H 0.91646 0.01268 0.90778 0.0
H587 H 0.95946 0.9452 0.95214 0.0
H588 H 0.91267 0.9272 0.89598 0.0
H589 H 0.02041 0.98084 0.94805 0.0
H590 H 0.9099 0.96677 0.99302 0.0
H591 H 0.83916 0.96879 0.99156 0.0
H592 H 0.84482 0.04295 0.99352 0.0
H593 H 0.91544 0.0414 0.99435 0.0
C594 C 0.1198 0.02343 0.11572 0.0
C595 C 0.11297 0.04659 0.12324 0.0
C596 C 0.09437 0.01263 0.08325 0.0
C597 C 0.06197 0.02487 0.05783 0.0
C598 C 0.05644 0.04824 0.06448 0.0
C599 C 0.08166 0.05899 0.09671 0.0
C600 C 0.03164 0.01308 0.02593 0.0
C601 C 0.99067 0.01399 0.02329 0.0
C602 C 0.04254 1.00083 -0.0014 0.0
C603 C 0.08449 1.00054 -0.00206 0.0
C604 C 0.10339 0.02123 0.99356 0.0
C605 C 0.14182 0.02071 0.99012 0.0
C606 C 0.16194 0.99966 0.99172 0.0
C607 C 0.14339 0.97902 -0.00382 0.0
C608 C 0.10468 0.97941 -0.00099 0.0
C609 C 0.88905 0.98382 0.87285 0.0
C610 C 0.88769 0.95964 0.86893 0.0
C611 C 0.91537 0.99401 0.90537 0.0
C612 C 0.94113 0.98018 0.934 0.0
C613 C 0.93959 0.95608 0.93032 0.0
C614 C 0.91274 0.94587 0.89829 0.0
C615 C 0.97151 0.99086 0.96681 0.0
C616 C 0.01232 0.98972 0.96958 0.0
C617 C 0.96043 1.00296 0.99409 0.0
C618 C 0.9178 1.00397 0.99317 0.0
C619 C 0.89591 0.98352 0.99259 0.0
C620 C 0.85585 0.98458 0.99198 0.0
C621 C 0.83743 0.00598 0.99219 0.0
C622 C 0.85908 0.02638 0.99317 0.0
C623 C 0.89913 0.02542 0.99374 0.0
H624 H 0.80647 0.00676 0.99184 0.0
H625 H 0.19179 0.99933 0.98925 0.0
H626 H 0.63058 0.99197 0.14267 0.0
H627 H 0.58595 0.01113 0.08642 0.0
H628 H 0.55821 0.94533 0.03037 0.0
H629 H 0.60331 0.92597 0.08636 0.0
H630 H 0.56561 0.98222 0.98346 0.0
H631 H 0.49617 0.96491 0.0711 0.0
H632 H 0.49743 0.96573 0.13635 0.0
H633 H 0.49933 0.03997 0.13508 0.0
H634 H 0.49902 0.03957 0.07003 0.0
H635 H 0.38457 0.01464 0.84123 0.0
H636 H 0.43159 0.99436 0.89496 0.0
H637 H 0.4496 0.05707 0.95986 0.0
H638 H 0.40184 0.07735 0.9066 0.0
H639 H 0.44793 0.02127 0.00257 0.0
H640 H 0.51347 0.03964 0.91484 0.0
H641 H 0.52195 0.04023 0.85331 0.0
H642 H 0.53529 0.96632 0.85666 0.0
H643 H 0.52479 0.96518 0.91762 0.0
C644 C 0.61539 0.98157 0.11826 0.0
C645 C 0.61995 0.95739 0.11923 0.0
C646 C 0.58999 0.99257 0.08612 0.0
C647 C 0.5683 0.97958 0.05452 0.0
C648 C 0.57459 0.95563 0.05455 0.0
C649 C 0.60021 0.9446 0.08666 0.0
C650 C 0.53618 0.99068 0.02302 0.0
C651 C 0.53953 0.99048 0.98734 0.0
C652 C 0.50274 1.00186 0.02854 0.0
C653 C 0.49791 1.00221 0.06584 0.0
C654 C 0.49664 0.98141 0.08468 0.0
C655 C 0.49743 0.98179 0.12169 0.0
C656 C 0.49894 1.00289 0.13996 0.0
C657 C 0.49854 0.02365 0.12096 0.0
C658 C 0.49796 0.02336 0.08399 0.0
C659 C 0.39815 0.02408 0.86706 0.0
C660 C 0.38974 0.04771 0.86942 0.0
C661 C 0.42517 0.01246 0.89773 0.0
C662 C 0.44482 0.0243 0.93122 0.0
C663 C 0.43498 0.04758 0.93427 0.0
C664 C 0.40768 0.05918 0.90371 0.0
C665 C 0.47697 0.01277 0.96245 0.0
C666 C 0.4737 0.01289 -0.00171 0.0
C667 C 0.5107 1.00167 0.95704 0.0
C668 C 0.51764 1.0023 0.92059 0.0
C669 C 0.51771 0.02347 0.90231 0.0
C670 C 0.52291 0.02389 0.86747 0.0
C671 C 0.52913 1.00329 0.85098 0.0
C672 C 0.53026 0.98224 0.86938 0.0
C673 C 0.52448 0.98169 0.90401 0.0
H674 H 0.53303 1.0036 0.82394 0.0
H675 H 0.50025 1.00316 0.16882 0.0
H676 H 0.64282 0.5223 0.62547 0.0
H677 H 0.5984 0.50654 0.56572 0.0
H678 H 0.53268 0.57104 0.54116 0.0
H679 H 0.57664 0.58694 0.60006 0.0
H680 H 0.48393 0.53381 0.53881 0.0
H681 H 0.57818 0.5575 0.47809 0.0
H682 H 0.64361 0.56188 0.4678 0.0
H683 H 0.66247 0.48847 0.47825 0.0
H684 H 0.59641 0.48359 0.48727 0.0
H685 H 0.35933 0.49764 0.35101 0.0
H686 H 0.40371 0.5198 0.40438 0.0
H687 H 0.47571 0.45869 0.44573 0.0
H688 H 0.43188 0.43652 0.39354 0.0
H689 H 0.52006 0.49789 0.43592 0.0
H690 H 0.4174 0.47595 0.48896 0.0
H691 H 0.34877 0.47439 0.49307 0.0
H692 H 0.34475 0.54856 0.49598 0.0
H693 H 0.41305 0.55058 0.49119 0.0
C694 C 0.61925 0.53318 0.60709 0.0
C695 C 0.61281 0.5557 0.61774 0.0
C696 C 0.59417 0.52425 0.5729 0.0
C697 C 0.56243 0.53772 0.5492 0.0
C698 C 0.55706 0.56045 0.55914 0.0
C699 C 0.5821 0.5694 0.59297 0.0
C700 C 0.53179 0.5273 0.51641 0.0
C701 C 0.49164 0.52625 0.51596 0.0
C702 C 0.54206 0.51738 0.48697 0.0
C703 C 0.58271 0.52022 0.48382 0.0
C704 C 0.59647 0.54232 0.4785 0.0
C705 C 0.63347 0.54487 0.47257 0.0
C706 C 0.65735 0.5255 0.47273 0.0
C707 C 0.64402 0.50347 0.47831 0.0
C708 C 0.60667 0.50078 0.48352 0.0
C709 C 0.3843 0.48892 0.37179 0.0
C710 C 0.39248 0.46545 0.36775 0.0
C711 C 0.40953 0.50155 0.40213 0.0
C712 C 0.44304 0.4908 0.42853 0.0
C713 C 0.45017 0.46725 0.42533 0.0
C714 C 0.42502 0.45465 0.39543 0.0
C715 C 0.47236 0.50407 0.45864 0.0
C716 C 0.51229 0.50561 0.45862 0.0
C717 C 0.46167 0.51472 0.48738 0.0
C718 C 0.42013 0.51342 0.48916 0.0
C719 C 0.40165 0.49194 0.48989 0.0
C720 C 0.36286 0.49097 0.49249 0.0
C721 C 0.3424 0.51137 0.49471 0.0
C722 C 0.36061 0.53278 0.49419 0.0
C723 C 0.39933 0.53384 0.49151 0.0
H724 H 0.31255 0.51064 0.49705 0.0
H725 H 0.68612 0.52755 0.46842 0.0
H726 H 0.09872 0.43247 0.59371 0.0
H727 H 0.05415 0.45141 0.53726 0.0
H728 H 0.08965 0.51812 0.58846 0.0
H729 H 0.13477 0.4992 0.64525 0.0
H730 H 0.0047 0.5103 0.55986 0.0
H731 H 0.11993 0.50437 0.51946 0.0
H732 H 0.17662 0.48408 0.50823 0.0
H733 H 0.0928 0.43813 0.43159 0.0
H734 H 0.03558 0.45792 0.44274 0.0
H735 H 0.90529 0.57873 0.40099 0.0
H736 H 0.95205 0.55998 0.45626 0.0
H737 H 0.92957 0.49424 0.39941 0.0
H738 H 0.8834 0.51304 0.34335 0.0
H739 H 0.00803 0.50099 0.43121 0.0
H740 H 0.8935 0.5059 0.47044 0.0
H741 H 0.83551 0.52378 0.48288 0.0
H742 H 0.91608 0.56982 0.56218 0.0
H743 H 0.97457 0.55248 0.54979 0.0
C744 C 0.09751 0.45119 0.59273 0.0
C745 C 0.11996 0.4644 0.62385 0.0
C746 C 0.07217 0.46197 0.56046 0.0
C747 C 0.0687 0.48611 0.55883 0.0
C748 C 0.09207 0.49943 0.58935 0.0
C749 C 0.11792 0.48864 0.62158 0.0
C750 C 0.03838 0.49716 0.52621 0.0
C751 C 0.0058 0.50881 0.53176 0.0
C752 C 0.03918 0.49418 0.48957 0.0
C753 C 0.07348 0.48248 0.48229 0.0
C754 C 0.11358 0.48983 0.50043 0.0
C755 C 0.1458 0.47844 0.49403 0.0
C756 C 0.13829 0.45977 0.46937 0.0
C757 C 0.09854 0.45256 0.45077 0.0
C758 C 0.0662 0.46388 0.45709 0.0
C759 C 0.90983 0.56023 0.40032 0.0
C760 C 0.89075 0.54737 0.36772 0.0
C761 C 0.93649 0.54952 0.43204 0.0
C762 C 0.94406 0.52569 0.43204 0.0
C763 C 0.92413 0.51266 0.39995 0.0
C764 C 0.89775 0.52342 0.368 0.0
C765 C 0.97464 0.51476 0.46479 0.0
C766 C 0.00709 0.50288 0.45929 0.0
C767 C 0.97358 0.51743 0.50147 0.0
C768 C 0.93843 0.52805 0.50883 0.0
C769 C 0.89885 0.52 0.49023 0.0
C770 C 0.86589 0.53002 0.49731 0.0
C771 C 0.8721 0.54801 0.52314 0.0
C772 C 0.91131 0.55594 0.54207 0.0
C773 C 0.94439 0.54602 0.53504 0.0
H774 H 0.84656 0.55572 0.52861 0.0
H775 H 0.16326 0.45087 0.46471 0.0
H776 H 0.20811 0.09686 0.83563 0.0
H777 H 0.1906 0.10399 0.89178 0.0
H778 H 0.30005 0.14383 0.93883 0.0
H779 H 0.31742 0.13713 0.88291 0.0
H780 H 0.22916 0.08994 0.95991 0.0
H781 H 0.28793 0.18502 -0.0022 0.0
H782 H 0.28747 0.22233 0.96611 0.0
H783 H 0.18703 0.19965 0.87189 0.0
H784 H 0.18643 0.16235 0.90317 0.0
H785 H 0.27951 0.10636 0.15093 0.0
H786 H 0.28836 0.11362 0.09051 0.0
H787 H 0.17066 0.14608 0.04944 0.0
H788 H 0.16123 0.13835 0.1093 0.0
H789 H 0.23541 0.16591 0.02244 0.0
H790 H 0.16034 0.09777 0.02792 0.0
H791 H 0.14946 0.06365 0.06231 0.0
H792 H 0.26235 0.03478 0.06291 0.0
H793 H 0.27455 0.06908 0.0293 0.0
C794 C 0.22812 0.10743 0.8577 0.0
C795 C 0.26425 0.11633 0.85484 0.0
C796 C 0.21813 0.11143 0.88979 0.0
C797 C 0.24392 0.12452 0.91942 0.0
C798 C 0.27938 0.13396 0.91613 0.0
C799 C 0.28941 0.12995 0.88418 0.0
C800 C 0.23572 0.12686 0.95501 0.0
C801 C 0.2303 0.10661 0.97328 0.0
C802 C 0.23633 0.14863 0.97235 0.0
C803 C 0.23736 0.17078 0.95279 0.0
C804 C 0.26567 0.188 0.97036 0.0
C805 C 0.26551 0.20919 0.95251 0.0
C806 C 0.23708 0.21341 0.91711 0.0
C807 C 0.20894 0.19638 0.89936 0.0
C808 C 0.20895 0.17518 0.91709 0.0
C809 C 0.25619 0.11571 0.1294 0.0
C810 C 0.21955 0.12158 0.13434 0.0
C811 C 0.26126 0.11987 0.09505 0.0
C812 C 0.23004 0.1303 0.06572 0.0
C813 C 0.19508 0.13815 0.0719 0.0
C814 C 0.18964 0.13356 0.10589 0.0
C815 C 0.23064 0.12909 0.02722 0.0
C816 C 0.23438 0.1494 0.00863 0.0
C817 C 0.22682 0.10757 0.00885 0.0
C818 C 0.21853 0.08608 0.02644 0.0
C819 C 0.18298 0.08419 0.03555 0.0
C820 C 0.1767 0.0649 0.05509 0.0
C821 C 0.20549 0.04718 0.06516 0.0
C822 C 0.24034 0.04862 0.0553 0.0
C823 C 0.24695 0.06798 0.036 0.0
H824 H 0.20055 0.03221 0.08021 0.0
H825 H 0.23708 0.22979 0.9033 0.0
H826 H 0.81775 0.87422 0.87609 0.0
H827 H 0.80293 0.86881 0.93351 0.0
H828 H 0.69 0.90574 0.88564 0.0
H829 H 0.70511 0.91181 0.82804 0.0
H830 H 0.73171 0.92285 0.95087 0.0
H831 H 0.69136 0.84754 0.90428 0.0
H832 H 0.69657 0.80989 0.87589 0.0
H833 H 0.80236 0.79308 0.96971 0.0
H834 H 0.79819 0.8308 -0.00154 0.0
H835 H 0.68636 0.86621 0.11548 0.0
H836 H 0.69055 0.86286 0.05306 0.0
H837 H 0.7905 0.91087 0.08301 0.0
H838 H 0.78604 0.91472 0.14563 0.0
H839 H 0.74526 0.84995 0.02319 0.0
H840 H 0.77608 0.94778 0.00687 0.0
H841 H 0.76317 0.98564 0.0305 0.0
H842 H 0.66339 0.95697 0.0569 0.0
H843 H 0.67472 0.9191 0.03238 0.0
C844 C 0.7894 0.88089 0.87743 0.0
C845 C 0.7627 0.89359 0.84759 0.0
C846 C 0.78086 0.87763 0.91024 0.0
C847 C 0.74524 0.88672 0.91369 0.0
C848 C 0.71764 0.89856 0.88341 0.0
C849 C 0.72627 0.90195 0.85054 0.0
C850 C 0.7392 0.88588 0.95024 0.0
C851 C 0.73439 0.9069 0.9666 0.0
C852 C 0.74216 0.86498 0.9704 0.0
C853 C 0.7446 0.84211 0.95343 0.0
C854 C 0.71591 0.8359 0.91877 0.0
C855 C 0.71866 0.81452 0.90262 0.0
C856 C 0.74982 0.79912 0.92094 0.0
C857 C 0.77824 0.80504 0.95554 0.0
C858 C 0.77566 0.8264 0.97181 0.0
C859 C 0.70968 0.87582 0.10905 0.0
C860 C 0.7356 0.89095 0.13532 0.0
C861 C 0.71206 0.87381 0.07337 0.0
C862 C 0.74029 0.88693 0.06332 0.0
C863 C 0.76803 0.9009 0.09018 0.0
C864 C 0.76566 0.90294 0.12598 0.0
C865 C 0.73894 0.887 0.0241 0.0
C866 C 0.74237 0.86586 0.00732 0.0
C867 C 0.73372 0.90775 0.00317 0.0
C868 C 0.72669 0.93045 0.01827 0.0
C869 C 0.75133 0.94953 0.01767 0.0
C870 C 0.74427 0.971 0.03121 0.0
C871 C 0.71273 0.97363 0.04553 0.0
C872 C 0.68796 0.95484 0.04605 0.0
C873 C 0.69467 0.93336 0.03231 0.0
H874 H 0.70736 0.99026 0.05605 0.0
H875 H 0.75192 0.78261 0.90836 0.0
H876 H 0.7087 0.59071 0.3351 0.0
H877 H 0.69275 0.59798 0.39209 0.0
H878 H 0.80034 0.6398 0.43525 0.0
H879 H 0.81602 0.63308 0.37853 0.0
H880 H 0.73268 0.58636 0.46156 0.0
H881 H 0.78745 0.68232 0.49042 0.0
H882 H 0.78809 0.71765 0.45408 0.0
H883 H 0.68769 0.69202 0.36251 0.0
H884 H 0.68598 0.65674 0.39844 0.0
H885 H 0.77961 0.6093 0.65144 0.0
H886 H 0.7884 0.6129 0.59034 0.0
H887 H 0.67278 0.64741 0.54625 0.0
H888 H 0.66335 0.64334 0.60692 0.0
H889 H 0.73449 0.66428 0.51693 0.0
H890 H 0.66689 0.5967 0.53426 0.0
H891 H 0.65657 0.56221 0.56756 0.0
H892 H 0.76416 0.53142 0.55859 0.0
H893 H 0.77599 0.56622 0.526 0.0
C894 C 0.72861 0.60174 0.3565 0.0
C895 C 0.76353 0.6114 0.35213 0.0
C896 C 0.71955 0.60579 0.38912 0.0
C897 C 0.74511 0.61966 0.41777 0.0
C898 C 0.77973 0.62944 0.41326 0.0
C899 C 0.78875 0.62545 0.38078 0.0
C900 C 0.73711 0.62304 0.45333 0.0
C901 C 0.73302 0.60341 0.47352 0.0
C902 C 0.73646 0.64534 0.46863 0.0
C903 C 0.73687 0.66675 0.44706 0.0
C904 C 0.76537 0.68427 0.46261 0.0
C905 C 0.76594 0.70428 0.44206 0.0
C906 C 0.73804 0.70703 0.40596 0.0
C907 C 0.70939 0.68982 0.39041 0.0
C908 C 0.70864 0.6698 0.41084 0.0
C909 C 0.75676 0.61835 0.62908 0.0
C910 C 0.72072 0.62592 0.6337 0.0
C911 C 0.76174 0.62033 0.59422 0.0
C912 C 0.73105 0.63026 0.56384 0.0
C913 C 0.69678 0.63976 0.5694 0.0
C914 C 0.69139 0.63734 0.60397 0.0
C915 C 0.73192 0.62761 0.52542 0.0
C916 C 0.73439 0.64731 0.50479 0.0
C917 C 0.72971 0.60545 0.50911 0.0
C918 C 0.72279 0.58431 0.52834 0.0
C919 C 0.68889 0.58281 0.54004 0.0
C920 C 0.68277 0.56317 0.55884 0.0
C921 C 0.70997 0.54468 0.56566 0.0
C922 C 0.74335 0.54583 0.55355 0.0
C923 C 0.74981 0.56553 0.53493 0.0
H924 H 0.70497 0.5294 0.57999 0.0
H925 H 0.73857 0.72249 0.39005 0.0
H926 H 0.16805 0.37564 0.60885 0.0
H927 H 0.18271 0.36837 0.55136 0.0
H928 H 0.30348 0.39509 0.60314 0.0
H929 H 0.28933 0.40202 0.66133 0.0
H930 H 0.23334 0.41694 0.52771 0.0
H931 H 0.31752 0.35082 0.58812 0.0
H932 H 0.32991 0.3135 0.62163 0.0
H933 H 0.23184 0.28287 0.53332 0.0
H934 H 0.21863 0.32013 0.49946 0.0
H935 H 0.34007 0.41082 0.40462 0.0
H936 H 0.32227 0.40405 0.4602 0.0
H937 H 0.21743 0.36506 0.39519 0.0
H938 H 0.23476 0.37208 0.33844 0.0
H939 H 0.272 0.34629 0.47362 0.0
H940 H 0.19162 0.40984 0.40969 0.0
H941 H 0.17762 0.44644 0.37424 0.0
H942 H 0.26189 0.48175 0.46754 0.0
H943 H 0.27752 0.44522 0.50319 0.0
C944 C 0.19808 0.37945 0.60829 0.0
C945 C 0.22756 0.38951 0.63937 0.0
C946 C 0.20638 0.37521 0.57553 0.0
C947 C 0.24412 0.38112 0.57329 0.0
C948 C 0.27432 0.39018 0.60474 0.0
C949 C 0.26626 0.39408 0.63786 0.0
C950 C 0.2497 0.38095 0.53662 0.0
C951 C 0.24221 0.40158 0.51599 0.0
C952 C 0.25931 0.36059 0.52091 0.0
C953 C 0.2668 0.33832 0.54149 0.0
C954 C 0.29831 0.33621 0.57605 0.0
C955 C 0.30566 0.31502 0.59499 0.0
C956 C 0.28174 0.29581 0.57957 0.0
C957 C 0.25041 0.29775 0.54518 0.0
C958 C 0.24301 0.31889 0.5261 0.0
C959 C 0.31341 0.40057 0.40195 0.0
C960 C 0.2887 0.39203 0.36703 0.0
C961 C 0.30337 0.39671 0.43383 0.0
C962 C 0.26865 0.38409 0.43163 0.0
C963 C 0.24448 0.37477 0.39724 0.0
C964 C 0.25424 0.37892 0.36494 0.0
C965 C 0.25681 0.38247 0.46522 0.0
C966 C 0.2628 0.36159 0.4852 0.0
C967 C 0.24525 0.40256 0.48024 0.0
C968 C 0.23614 0.42467 0.45896 0.0
C969 C 0.2077 0.42532 0.42247 0.0
C970 C 0.19943 0.44607 0.40234 0.0
C971 C 0.21905 0.46639 0.41857 0.0
C972 C 0.24694 0.46598 0.45496 0.0
C973 C 0.25553 0.44524 0.47514 0.0
H974 H 0.2125 0.48246 0.40302 0.0
H975 H 0.28736 0.27945 0.59435 0.0
H976 H 0.20238 0.04057 0.34262 0.0
H977 H 0.2136 0.04253 0.40942 0.0
H978 H 0.29804 0.09851 0.42086 0.0
H979 H 0.28748 0.09643 0.35372 0.0
H980 H 0.32142 0.06761 0.48211 0.0
H981 H 0.20325 0.11198 0.41081 0.0
H982 H 0.13873 0.11626 0.3584 0.0
H983 H 0.08724 0.06066 0.40238 0.0
H984 H 0.1515 0.05598 0.45489 0.0
H985 H 0.24421 0.11344 0.63709 0.0
H986 H 0.23908 0.11273 0.57118 0.0
H987 H 0.27987 0.04183 0.5833 0.0
H988 H 0.28541 0.04236 0.649 0.0
H989 H 0.19604 0.0848 0.51047 0.0
H990 H 0.34584 0.03551 0.53704 0.0
H991 H 0.40886 0.02849 0.59017 0.0
H992 H 0.39739 0.09487 0.63601 0.0
H993 H 0.33471 0.10248 0.58286 0.0
C994 C 0.22386 0.05308 0.35936 0.0
C995 C 0.2437 0.06855 0.34278 0.0
C996 C 0.2302 0.05417 0.39755 0.0
C997 C 0.25602 0.07096 0.41988 0.0
C998 C 0.27786 0.08549 0.40401 0.0
C999 C 0.27177 0.08429 0.36568 0.0
C1000 C 0.25732 0.07447 0.45888 0.0
C1001 C 0.29412 0.07149 0.48834 0.0
C1002 C 0.2217 0.07979 0.46692 0.0
C1003 C 0.18222 0.08359 0.4367 0.0
C1004 C 0.17811 0.10072 0.40933 0.0
C1005 C 0.14159 0.1032 0.37959 0.0
C1006 C 0.10889 0.08874 0.37703 0.0
C1007 C 0.11251 0.07191 0.40442 0.0
C1008 C 0.14895 0.06937 0.43424 0.0
C1009 C 0.25171 0.09762 0.62564 0.0
C1010 C 0.26547 0.078 0.64842 0.0
C1011 C 0.24867 0.09725 0.58798 0.0
C1012 C 0.25961 0.07734 0.57258 0.0
C1013 C 0.27182 0.05748 0.59483 0.0
C1014 C 0.27486 0.05781 0.63238 0.0
C1015 C 0.25997 0.07749 0.53373 0.0
C1016 C 0.22346 0.08119 0.50427 0.0
C1017 C 0.29591 0.073 0.52575 0.0
C1018 C 0.33537 0.06946 0.55611 0.0
C1019 C 0.35702 0.04872 0.55821 0.0
C1020 C 0.39258 0.04461 0.58839 0.0
C1021 C 0.40682 0.06114 0.61658 0.0
C1022 C 0.3861 0.08203 0.61427 0.0
C1023 C 0.3506 0.08626 0.5841 0.0
H1024 H 0.43396 0.05778 0.64018 0.0
H1025 H 0.08079 0.09055 0.35379 0.0
H1026 H 0.76375 0.90089 0.63603 0.0
H1027 H 0.75907 0.90396 0.57059 0.0
H1028 H 0.75902 0.97836 0.57812 0.0
H1029 H 0.76445 0.97552 0.64407 0.0
H1030 H 0.69868 0.9555 0.50922 0.0
H1031 H 0.84036 0.96071 0.58335 0.0
H1032 H 0.90218 0.94824 0.63394 0.0
H1033 H 0.89643 0.88212 0.58113 0.0
H1034 H 0.83407 0.89405 0.53058 0.0
H1035 H 0.7352 0.9728 0.33966 0.0
H1036 H 0.74331 0.97611 0.40582 0.0
H1037 H 0.7715 0.90334 0.4212 0.0
H1038 H 0.76416 0.89989 0.35517 0.0
H1039 H 0.81901 0.92874 0.47963 0.0
H1040 H 0.67686 0.92202 0.40763 0.0
H1041 H 0.61461 0.93338 0.35648 0.0
H1042 H 0.61987 1.00086 0.40479 0.0
H1043 H 0.68253 0.99003 0.45594 0.0
C1044 C 0.76222 0.91792 0.62369 0.0
C1045 C 0.76463 0.93798 0.64516 0.0
C1046 C 0.7596 0.91962 0.58639 0.0
C1047 C 0.75887 0.94137 0.56987 0.0
C1048 C 0.75952 0.96146 0.59061 0.0
C1049 C 0.7628 0.95979 0.6282 0.0
C1050 C 0.76 0.94287 0.53159 0.0
C1051 C 0.72513 0.95007 0.50267 0.0
C1052 C 0.79437 0.9353 0.52339 0.0
C1053 C 0.83231 0.9282 0.55336 0.0
C1054 C 0.85207 0.94344 0.58269 0.0
C1055 C 0.88724 0.93648 0.61134 0.0
C1056 C 0.90317 0.91438 0.61079 0.0
C1057 C 0.88402 0.89922 0.58153 0.0
C1058 C 0.84878 0.90608 0.55286 0.0
C1059 C 0.74358 0.95754 0.35717 0.0
C1060 C 0.7487 0.93603 0.34212 0.0
C1061 C 0.74811 0.95947 0.39493 0.0
C1062 C 0.75733 0.93989 0.41813 0.0
C1063 C 0.76427 0.91863 0.40364 0.0
C1064 C 0.75998 0.91669 0.36591 0.0
C1065 C 0.75755 0.94125 0.45698 0.0
C1066 C 0.79265 0.93447 0.48607 0.0
C1067 C 0.72325 0.94906 0.46527 0.0
C1068 C 0.68466 0.9553 0.43539 0.0
C1069 C 0.66484 0.93932 0.40726 0.0
C1070 C 0.62952 0.94566 0.37826 0.0
C1071 C 0.6135 0.96788 0.37726 0.0
C1072 C 0.63245 0.9837 0.40552 0.0
C1073 C 0.66785 0.97746 0.43455 0.0
H1074 H 0.58637 0.97282 0.35462 0.0
H1075 H 0.93039 0.90902 0.633 0.0
H1076 H 0.68799 0.55 0.83501 0.0
H1077 H 0.69908 0.55056 0.90149 0.0
H1078 H 0.80978 0.58895 0.92113 0.0
H1079 H 0.79817 0.58914 0.85374 0.0
H1080 H 0.75302 0.53431 0.96004 0.0
H1081 H 0.82197 0.62571 0.99598 0.0
H1082 H 0.82215 0.6631 0.96459 0.0
H1083 H 0.70613 0.64748 0.88311 0.0
H1084 H 0.70497 0.6102 0.91434 0.0
H1085 H 0.81499 0.54663 0.15518 0.0
H1086 H 0.81302 0.54678 0.09049 0.0
H1087 H 0.71949 0.59907 0.06328 0.0
H1088 H 0.72273 0.59976 0.12873 0.0
H1089 H 0.76959 0.60865 0.02856 0.0
H1090 H 0.69869 0.54022 0.04156 0.0
H1091 H 0.68869 0.50328 0.06975 0.0
H1092 H 0.79068 0.47392 0.04747 0.0
H1093 H 0.8016 0.5108 0.01956 0.0
C1094 C 0.71499 0.55843 0.85331 0.0
C1095 C 0.74214 0.56963 0.8389 0.0
C1096 C 0.7213 0.55868 0.89148 0.0
C1097 C 0.75499 0.57001 0.91632 0.0
C1098 C 0.78318 0.58043 0.90237 0.0
C1099 C 0.77667 0.58038 0.8639 0.0
C1100 C 0.75944 0.57121 0.95652 0.0
C1101 C 0.75691 0.55057 0.97507 0.0
C1102 C 0.76361 0.59247 0.97593 0.0
C1103 C 0.76367 0.61503 0.95726 0.0
C1104 C 0.79645 0.6303 0.97144 0.0
C1105 C 0.79671 0.65147 0.95367 0.0
C1106 C 0.76424 0.65762 0.92178 0.0
C1107 C 0.73133 0.64266 0.90772 0.0
C1108 C 0.73087 0.6215 0.92543 0.0
C1109 C 0.79373 0.55803 0.13537 0.0
C1110 C 0.76851 0.57292 0.14687 0.0
C1111 C 0.79267 0.55812 0.09837 0.0
C1112 C 0.76557 0.57262 0.07178 0.0
C1113 C 0.74061 0.58769 0.08326 0.0
C1114 C 0.74225 0.58796 0.12057 0.0
C1115 C 0.76294 0.57173 0.03195 0.0
C1116 C 0.766 0.59239 0.01358 0.0
C1117 C 0.75776 0.55057 0.01218 0.0
C1118 C 0.75119 0.52834 0.02881 0.0
C1119 C 0.71914 0.52593 0.04291 0.0
C1120 C 0.71329 0.505 0.0588 0.0
C1121 C 0.7391 0.48629 0.06049 0.0
C1122 C 0.77075 0.48844 0.04619 0.0
C1123 C 0.77676 0.50935 0.0303 0.0
H1124 H 0.73452 0.47009 0.07281 0.0
H1125 H 0.76455 0.674 0.90803 0.0
H1126 H 0.29652 0.42987 0.86305 0.0
H1127 H 0.30279 0.42699 0.92923 0.0
H1128 H 0.17564 0.44322 0.90046 0.0
H1129 H 0.16966 0.44711 0.83528 0.0
H1130 H 0.21334 0.46497 0.95958 0.0
H1131 H 0.21505 0.38674 0.9203 0.0
H1132 H 0.23823 0.35344 0.89239 0.0
H1133 H 0.35616 0.35794 0.97655 0.0
H1134 H 0.33388 0.39152 0.00462 0.0
H1135 H 0.20427 0.42826 0.13808 0.0
H1136 H 0.19149 0.42696 0.07021 0.0
H1137 H 0.32016 0.42967 0.0909 0.0
H1138 H 0.33303 0.43135 0.15795 0.0
H1139 H 0.27676 0.39634 0.03555 0.0
H1140 H 0.27206 0.47738 0.07037 0.0
H1141 H 0.24503 0.5095 0.0976 0.0
H1142 H 0.12558 0.49682 0.01985 0.0
H1143 H 0.15188 0.46441 0.99246 0.0
C1144 C 0.2701 0.43299 0.87101 0.0
C1145 C 0.23274 0.43884 0.84398 0.0
C1146 C 0.27357 0.43118 0.90874 0.0
C1147 C 0.2395 0.43457 0.9198 0.0
C1148 C 0.20239 0.4406 0.89277 0.0
C1149 C 0.19908 0.44283 0.8554 0.0
C1150 C 0.24208 0.43193 0.95942 0.0
C1151 C 0.22667 0.44976 0.9759 0.0
C1152 C 0.25948 0.41214 0.98092 0.0
C1153 C 0.2729 0.39179 0.96436 0.0
C1154 C 0.24601 0.38073 0.93271 0.0
C1155 C 0.25898 0.36179 0.91687 0.0
C1156 C 0.29867 0.35361 0.93264 0.0
C1157 C 0.32544 0.36431 0.96434 0.0
C1158 C 0.31265 0.38329 0.98024 0.0
C1159 C 0.22968 0.42842 0.128 0.0
C1160 C 0.26955 0.43021 0.15313 0.0
C1161 C 0.22241 0.42766 0.08941 0.0
C1162 C 0.25498 0.42824 0.07576 0.0
C1163 C 0.29471 0.42914 0.10094 0.0
C1164 C 0.30192 0.43031 0.1392 0.0
C1165 C 0.24825 0.42935 0.03529 0.0
C1166 C 0.26299 0.41132 0.01881 0.0
C1167 C 0.22951 0.44869 0.01353 0.0
C1168 C 0.21384 0.46834 0.02966 0.0
C1169 C 0.23998 0.48134 0.05928 0.0
C1170 C 0.22481 0.49961 0.07469 0.0
C1171 C 0.1836 0.50516 0.06052 0.0
C1172 C 0.15749 0.49248 0.03083 0.0
C1173 C 0.17251 0.47418 0.01533 0.0
H1174 H 0.17193 0.51933 0.07248 0.0
H1175 H 0.30865 0.33895 0.92032 0.0
H1176 H 0.26652 0.15381 0.29853 0.0
H1177 H 0.28611 0.19447 0.3018 0.0
H1178 H 0.17108 0.21145 0.21835 0.0
H1179 H 0.15134 0.17085 0.21458 0.0
H1180 H 0.23312 0.22713 0.19869 0.0
H1181 H 0.195 0.22968 0.30856 0.0
H1182 H 0.19525 0.21724 0.37073 0.0
H1183 H 0.32302 0.23052 0.41716 0.0
H1184 H 0.32365 0.24274 0.35513 0.0
H1185 H 0.24795 0.34976 0.20567 0.0
H1186 H 0.23078 0.30891 0.20488 0.0
H1187 H 0.34515 0.2953 0.29176 0.0
H1188 H 0.36225 0.33632 0.29335 0.0
H1189 H 0.28536 0.27747 0.31023 0.0
H1190 H 0.3238 0.27535 0.20101 0.0
H1191 H 0.32415 0.28756 0.13892 0.0
H1192 H 0.1969 0.27306 0.09128 0.0
H1193 H 0.19565 0.26107 0.1532 0.0
C1194 C 0.24489 0.16625 0.28159 0.0
C1195 C 0.20748 0.15895 0.25599 0.0
C1196 C 0.2562 0.18954 0.28346 0.0
C1197 C 0.2302 0.206 0.26007 0.0
C1198 C 0.19178 0.19901 0.2364 0.0
C1199 C 0.18045 0.17577 0.23448 0.0
C1200 C 0.24426 0.23001 0.25786 0.0
C1201 C 0.24398 0.23828 0.22299 0.0
C1202 C 0.25975 0.24425 0.28977 0.0
C1203 C 0.25944 0.23691 0.3271 0.0
C1204 C 0.22322 0.22976 0.33195 0.0
C1205 C 0.22319 0.22279 0.36718 0.0
C1206 C 0.25915 0.22303 0.39785 0.0
C1207 C 0.2952 0.23031 0.39337 0.0
C1208 C 0.2954 0.23728 0.35819 0.0
C1209 C 0.26996 0.33805 0.22402 0.0
C1210 C 0.30641 0.34643 0.24977 0.0
C1211 C 0.26006 0.31461 0.22352 0.0
C1212 C 0.28662 0.29898 0.24833 0.0
C1213 C 0.32404 0.30706 0.27253 0.0
C1214 C 0.3339 0.33052 0.2732 0.0
C1215 C 0.27401 0.27467 0.25097 0.0
C1216 C 0.2746 0.26632 0.28592 0.0
C1217 C 0.25892 0.26031 0.21915 0.0
C1218 C 0.25957 0.26751 0.18184 0.0
C1219 C 0.29582 0.27495 0.17736 0.0
C1220 C 0.29619 0.28179 0.14218 0.0
C1221 C 0.26055 0.28114 0.11119 0.0
C1222 C 0.22448 0.27358 0.11531 0.0
C1223 C 0.22393 0.26673 0.15044 0.0
H1224 H 0.26091 0.28644 0.08398 0.0
H1225 H 0.25906 0.21763 0.42511 0.0
H1226 H 0.36322 0.17088 0.79256 0.0
H1227 H 0.35086 0.21271 0.7923 0.0
H1228 H 0.23607 0.20386 0.70386 0.0
H1229 H 0.24835 0.1623 0.70386 0.0
H1230 H 0.27183 0.24447 0.69595 0.0
H1231 H 0.24026 0.2029 0.79291 0.0
H1232 H 0.25878 0.17609 0.8466 0.0
H1233 H 0.35153 0.22286 0.91 0.0
H1234 H 0.33407 0.24979 0.85631 0.0
H1235 H 0.15568 0.3387 0.71331 0.0
H1236 H 0.17816 0.29853 0.71704 0.0
H1237 H 0.28806 0.3161 0.80648 0.0
H1238 H 0.26559 0.35635 0.80342 0.0
H1239 H 0.26114 0.27232 0.81582 0.0
H1240 H 0.28743 0.31561 0.71799 0.0
H1241 H 0.26856 0.34086 0.66229 0.0
H1242 H 0.184 0.28992 0.5994 0.0
H1243 H 0.20189 0.26449 0.65485 0.0
C1244 C 0.33608 0.17799 0.77217 0.0
C1245 C 0.30664 0.16331 0.74836 0.0
C1246 C 0.32883 0.20186 0.77229 0.0
C1247 C 0.29213 0.21137 0.74854 0.0
C1248 C 0.26448 0.19696 0.72254 0.0
C1249 C 0.27155 0.17318 0.72258 0.0
C1250 C 0.28024 0.23563 0.75313 0.0
C1251 C 0.26939 0.25053 0.72211 0.0
C1252 C 0.27733 0.24364 0.78737 0.0
C1253 C 0.28622 0.22821 0.82045 0.0
C1254 C 0.26472 0.20743 0.81825 0.0
C1255 C 0.27515 0.19216 0.8486 0.0
C1256 C 0.30666 0.19763 0.88152 0.0
C1257 C 0.32738 0.21856 0.88435 0.0
C1258 C 0.31722 0.23384 0.85397 0.0
C1259 C 0.18416 0.334 0.7345 0.0
C1260 C 0.20905 0.35095 0.75765 0.0
C1261 C 0.19711 0.31098 0.73641 0.0
C1262 C 0.23534 0.30441 0.76132 0.0
C1263 C 0.25865 0.3208 0.78676 0.0
C1264 C 0.24566 0.34385 0.78496 0.0
C1265 C 0.25228 0.2811 0.75844 0.0
C1266 C 0.26401 0.26638 0.78977 0.0
C1267 C 0.25578 0.27317 0.72435 0.0
C1268 C 0.24571 0.28823 0.69071 0.0
C1269 C 0.2646 0.30985 0.69236 0.0
C1270 C 0.25402 0.32422 0.66086 0.0
C1271 C 0.22481 0.31708 0.62747 0.0
C1272 C 0.20639 0.29548 0.62539 0.0
C1273 C 0.2168 0.28107 0.65681 0.0
H1274 H 0.21679 0.32812 0.60305 0.0
H1275 H 0.31469 0.18578 0.905 0.0
H1276 H 0.76977 0.6562 0.80219 0.0
H1277 H 0.79247 0.69639 0.80576 0.0
H1278 H 0.67909 0.71569 0.72196 0.0
H1279 H 0.65613 0.67572 0.71812 0.0
H1280 H 0.74474 0.72736 0.70214 0.0
H1281 H 0.7032 0.73449 0.81014 0.0
H1282 H 0.70217 0.72408 0.87275 0.0
H1283 H 0.82989 0.73727 0.92001 0.0
H1284 H 0.83184 0.74738 0.85754 0.0
H1285 H 0.74562 0.84897 0.69859 0.0
H1286 H 0.73518 0.8075 0.70209 0.0
H1287 H 0.8525 0.80094 0.78798 0.0
H1288 H 0.86298 0.84277 0.78477 0.0
H1289 H 0.79372 0.78127 0.8094 0.0
H1290 H 0.83521 0.77638 0.70294 0.0
H1291 H 0.83729 0.78652 0.64059 0.0
H1292 H 0.71165 0.76862 0.59081 0.0
H1293 H 0.70862 0.75869 0.65294 0.0
C1294 C 0.74913 0.66909 0.78531 0.0
C1295 C 0.7113 0.66259 0.75944 0.0
C1296 C 0.76225 0.69209 0.78735 0.0
C1297 C 0.73769 0.70898 0.76373 0.0
C1298 C 0.69871 0.70288 0.74015 0.0
C1299 C 0.68553 0.67999 0.73817 0.0
C1300 C 0.75383 0.73236 0.76058 0.0
C1301 C 0.75503 0.73926 0.72552 0.0
C1302 C 0.76892 0.74746 0.79145 0.0
C1303 C 0.76776 0.74139 0.82904 0.0
C1304 C 0.73116 0.73492 0.8338 0.0
C1305 C 0.7304 0.72913 0.86929 0.0
C1306 C 0.76598 0.72991 0.90031 0.0
C1307 C 0.80237 0.73659 0.89593 0.0
C1308 C 0.80332 0.74237 0.86049 0.0
C1309 C 0.76976 0.8386 0.71742 0.0
C1310 C 0.80516 0.84912 0.74129 0.0
C1311 C 0.76374 0.81486 0.71945 0.0
C1312 C 0.79302 0.80105 0.74534 0.0
C1313 C 0.82947 0.81127 0.76783 0.0
C1314 C 0.83565 0.83512 0.76562 0.0
C1315 C 0.78367 0.77647 0.75069 0.0
C1316 C 0.78384 0.76929 0.78612 0.0
C1317 C 0.77 0.76099 0.7202 0.0
C1318 C 0.77164 0.76694 0.6827 0.0
C1319 C 0.80793 0.77478 0.67875 0.0
C1320 C 0.80929 0.78046 0.64343 0.0
C1321 C 0.77461 0.77825 0.61177 0.0
C1322 C 0.73849 0.77033 0.61536 0.0
C1323 C 0.73695 0.76464 0.65063 0.0
H1324 H 0.77573 0.78266 0.58445 0.0
H1325 H 0.76532 0.72542 0.92776 0.0
H1326 H 0.73937 0.65641 0.1977 0.0
H1327 H 0.72297 0.69742 0.19755 0.0
H1328 H 0.83678 0.70939 0.28589 0.0
H1329 H 0.85326 0.66806 0.28626 0.0
H1330 H 0.77316 0.72633 0.30339 0.0
H1331 H 0.81897 0.7318 0.19878 0.0
H1332 H 0.82332 0.72126 0.13742 0.0
H1333 H 0.69654 0.73586 0.08483 0.0
H1334 H 0.69128 0.74618 0.14598 0.0
H1335 H 0.762 0.84959 0.29757 0.0
H1336 H 0.77654 0.80822 0.30008 0.0
H1337 H 0.66305 0.79651 0.2112 0.0
H1338 H 0.64843 0.83815 0.20856 0.0
H1339 H 0.72614 0.77925 0.19426 0.0
H1340 H 0.68048 0.77419 0.29887 0.0
H1341 H 0.67586 0.78401 0.3604 0.0
H1342 H 0.80222 0.76842 0.41321 0.0
H1343 H 0.80777 0.7588 0.35192 0.0
C1344 C 0.76151 0.66791 0.21629 0.0
C1345 C 0.79769 0.65903 0.24186 0.0
C1346 C 0.75205 0.69137 0.21623 0.0
C1347 C 0.77856 0.70655 0.24176 0.0
C1348 C 0.81582 0.69799 0.26596 0.0
C1349 C 0.82548 0.67444 0.26583 0.0
C1350 C 0.76556 0.73075 0.24513 0.0
C1351 C 0.76359 0.73808 0.2797 0.0
C1352 C 0.75163 0.74578 0.2139 0.0
C1353 C 0.75466 0.73956 0.17706 0.0
C1354 C 0.79193 0.73257 0.17419 0.0
C1355 C 0.79458 0.72668 0.13943 0.0
C1356 C 0.76021 0.72784 0.10726 0.0
C1357 C 0.72313 0.73495 0.10978 0.0
C1358 C 0.72031 0.74084 0.14448 0.0
C1359 C 0.73944 0.83809 0.2795 0.0
C1360 C 0.70401 0.8471 0.25296 0.0
C1361 C 0.74782 0.81441 0.28092 0.0
C1362 C 0.721 0.79918 0.25575 0.0
C1363 C 0.68423 0.80793 0.23089 0.0
C1364 C 0.67564 0.83169 0.22969 0.0
C1365 C 0.73373 0.77489 0.25257 0.0
C1366 C 0.73569 0.76753 0.21799 0.0
C1367 C 0.74768 0.75986 0.28382 0.0
C1368 C 0.74463 0.76602 0.32069 0.0
C1369 C 0.7074 0.7731 0.32353 0.0
C1370 C 0.70459 0.77858 0.35839 0.0
C1371 C 0.73876 0.77693 0.39067 0.0
C1372 C 0.77581 0.76977 0.38817 0.0
C1373 C 0.77879 0.76427 0.35338 0.0
H1374 H 0.7365 0.78112 0.41764 0.0
H1375 H 0.76232 0.72327 0.08037 0.0
loop_
_geom_bond_atom_site_label_1
_geom_bond_atom_site_label_2
_geom_bond_distance
_geom_bond_site_symmetry_2
_ccdc_geom_bond_type
Fe0 O2 1.918 . S
Fe0 O5 1.997 . S
Fe0 O6 2.002 . S
Fe0 O11 1.976 . S
Fe0 O14 1.996 . S
Fe1 O2 1.918 . S
Fe1 O9 1.997 . S
Fe1 O12 1.996 . S
Fe1 O16 1.976 . S
Fe1 O19 2.002 . S
O2 Fe0 1.918 . S
O2 Fe1 1.918 . S
O2 Fe3 1.918 . S
Fe3 O2 1.918 . S
Fe3 O4 2.002 . S
Fe3 O13 1.976 . S
Fe3 O17 1.996 . S
Fe3 O20 1.997 . S
O4 Fe3 2.002 . S
O4 C21 1.295 . S
O5 Fe0 1.997 . S
O5 C21 1.235 . S
O6 Fe0 2.002 . S
O6 C7 1.295 . S
C7 O6 1.295 . S
C7 O9 1.235 . S
C8 O13 1.287 . S
C8 O14 1.255 . S
O9 Fe1 1.997 . S
O9 C7 1.235 . S
C10 O16 1.287 . S
C10 O17 1.255 . S
O11 Fe0 1.976 . S
O11 C18 1.287 . S
O12 Fe1 1.996 . S
O12 C18 1.255 . S
O13 Fe3 1.976 . S
O13 C8 1.287 . S
O14 Fe0 1.996 . S
O14 C8 1.255 . S
C15 O19 1.295 . S
C15 O20 1.235 . S
O16 Fe1 1.976 . S
O16 C10 1.287 . S
O17 Fe3 1.996 . S
O17 C10 1.255 . S
C18 O11 1.287 . S
C18 O12 1.255 . S
O19 Fe1 2.002 . S
O19 C15 1.295 . S
O20 Fe3 1.997 . S
O20 C15 1.235 . S
C21 O4 1.295 . S
C21 O5 1.235 . S
Fe22 O24 1.918 . S
Fe22 O27 1.997 . S
Fe22 O28 2.002 . S
Fe22 O33 1.976 . S
Fe22 O36 1.996 . S
Fe23 O24 1.918 . S
Fe23 O31 1.997 . S
Fe23 O34 1.996 . S
Fe23 O38 1.976 . S
Fe23 O41 2.002 . S
O24 Fe22 1.918 . S
O24 Fe23 1.918 . S
O24 Fe25 1.918 . S
Fe25 O24 1.918 . S
Fe25 O26 2.002 . S
Fe25 O35 1.976 . S
Fe25 O39 1.996 . S
Fe25 O42 1.997 . S
O26 Fe25 2.002 . S
O26 C43 1.295 . S
O27 Fe22 1.997 . S
O27 C43 1.235 . S
O28 Fe22 2.002 . S
O28 C29 1.295 . S
C29 O28 1.295 . S
C29 O31 1.235 . S
C30 O35 1.287 . S
C30 O36 1.255 . S
O31 Fe23 1.997 . S
O31 C29 1.235 . S
C32 O38 1.287 . S
C32 O39 1.255 . S
O33 Fe22 1.976 . S
O33 C40 1.287 . S
O34 Fe23 1.996 . S
O34 C40 1.255 . S
O35 Fe25 1.976 . S
O35 C30 1.287 . S
O36 Fe22 1.996 . S
O36 C30 1.255 . S
C37 O41 1.295 . S
C37 O42 1.235 . S
O38 Fe23 1.976 . S
O38 C32 1.287 . S
O39 Fe25 1.996 . S
O39 C32 1.255 . S
C40 O33 1.287 . S
C40 O34 1.255 . S
O41 Fe23 2.002 . S
O41 C37 1.295 . S
O42 Fe25 1.997 . S
O42 C37 1.235 . S
C43 O26 1.295 . S
C43 O27 1.235 . S
Fe44 O46 1.918 . S
Fe44 O49 1.997 . S
Fe44 O50 2.002 . S
Fe44 O55 1.976 . S
Fe44 O58 1.996 . S
Fe45 O46 1.918 . S
Fe45 O53 1.997 . S
Fe45 O56 1.996 . S
Fe45 O60 1.976 . S
Fe45 O63 2.002 . S
O46 Fe44 1.918 . S
O46 Fe45 1.918 . S
O46 Fe47 1.918 . S
Fe47 O46 1.918 . S
Fe47 O48 2.002 . S
Fe47 O57 1.976 . S
Fe47 O61 1.996 . S
Fe47 O64 1.997 . S
O48 Fe47 2.002 . S
O48 C65 1.295 . S
O49 Fe44 1.997 . S
O49 C65 1.235 . S
O50 Fe44 2.002 . S
O50 C51 1.295 . S
C51 O50 1.295 . S
C51 O53 1.235 . S
C52 O57 1.287 . S
C52 O58 1.255 . S
O53 Fe45 1.997 . S
O53 C51 1.235 . S
C54 O60 1.287 . S
C54 O61 1.255 . S
O55 Fe44 1.976 . S
O55 C62 1.287 . S
O56 Fe45 1.996 . S
O56 C62 1.255 . S
O57 Fe47 1.976 . S
O57 C52 1.287 . S
O58 Fe44 1.996 . S
O58 C52 1.255 . S
C59 O63 1.295 . S
C59 O64 1.235 . S
O60 Fe45 1.976 . S
O60 C54 1.287 . S
O61 Fe47 1.996 . S
O61 C54 1.255 . S
C62 O55 1.287 . S
C62 O56 1.255 . S
O63 Fe45 2.002 . S
O63 C59 1.295 . S
O64 Fe47 1.997 . S
O64 C59 1.235 . S
C65 O48 1.295 . S
C65 O49 1.235 . S
Fe66 O68 1.918 . S
Fe66 O71 1.997 . S
Fe66 O72 2.002 . S
Fe66 O77 1.976 . S
Fe66 O80 1.996 . S
Fe67 O68 1.918 . S
Fe67 O75 1.997 . S
Fe67 O78 1.996 . S
Fe67 O82 1.976 . S
Fe67 O85 2.002 . S
O68 Fe66 1.918 . S
O68 Fe67 1.918 . S
O68 Fe69 1.918 . S
Fe69 O68 1.918 . S
Fe69 O70 2.002 . S
Fe69 O79 1.976 . S
Fe69 O83 1.996 . S
Fe69 O86 1.997 . S
O70 Fe69 2.002 . S
O70 C87 1.295 . S
O71 Fe66 1.997 . S
O71 C87 1.235 . S
O72 Fe66 2.002 . S
O72 C73 1.295 . S
C73 O72 1.295 . S
C73 O75 1.235 . S
C74 O79 1.287 . S
C74 O80 1.255 . S
O75 Fe67 1.997 . S
O75 C73 1.235 . S
C76 O82 1.287 . S
C76 O83 1.255 . S
O77 Fe66 1.976 . S
O77 C84 1.287 . S
O78 Fe67 1.996 . S
O78 C84 1.255 . S
O79 Fe69 1.976 . S
O79 C74 1.287 . S
O80 Fe66 1.996 . S
O80 C74 1.255 . S
C81 O85 1.295 . S
C81 O86 1.235 . S
O82 Fe67 1.976 . S
O82 C76 1.287 . S
O83 Fe69 1.996 . S
O83 C76 1.255 . S
C84 O77 1.287 . S
C84 O78 1.255 . S
O85 Fe67 2.002 . S
O85 C81 1.295 . S
O86 Fe69 1.997 . S
O86 C81 1.235 . S
C87 O70 1.295 . S
C87 O71 1.235 . S
Fe88 O90 1.918 . S
Fe88 O93 1.997 . S
Fe88 O94 2.002 . S
Fe88 O99 1.976 . S
Fe88 O102 1.996 . S
Fe89 O90 1.918 . S
Fe89 O97 1.997 . S
Fe89 O100 1.996 . S
Fe89 O104 1.976 . S
Fe89 O107 2.002 . S
O90 Fe88 1.918 . S
O90 Fe89 1.918 . S
O90 Fe91 1.918 . S
Fe91 O90 1.918 . S
Fe91 O92 2.002 . S
Fe91 O101 1.976 . S
Fe91 O105 1.996 . S
Fe91 O108 1.997 . S
O92 Fe91 2.002 . S
O92 C109 1.295 . S
O93 Fe88 1.997 . S
O93 C109 1.235 . S
O94 Fe88 2.002 . S
O94 C95 1.295 . S
C95 O94 1.295 . S
C95 O97 1.235 . S
C96 O101 1.287 . S
C96 O102 1.255 . S
O97 Fe89 1.997 . S
O97 C95 1.235 . S
C98 O104 1.287 . S
C98 O105 1.255 . S
O99 Fe88 1.976 . S
O99 C106 1.287 . S
O100 Fe89 1.996 . S
O100 C106 1.255 . S
O101 Fe91 1.976 . S
O101 C96 1.287 . S
O102 Fe88 1.996 . S
O102 C96 1.255 . S
C103 O107 1.295 . S
C103 O108 1.235 . S
O104 Fe89 1.976 . S
O104 C98 1.287 . S
O105 Fe91 1.996 . S
O105 C98 1.255 . S
C106 O99 1.287 . S
C106 O100 1.255 . S
O107 Fe89 2.002 . S
O107 C103 1.295 . S
O108 Fe91 1.997 . S
O108 C103 1.235 . S
C109 O92 1.295 . S
C109 O93 1.235 . S
Fe110 O112 1.918 . S
Fe110 O115 1.997 . S
Fe110 O116 2.002 . S
Fe110 O121 1.976 . S
Fe110 O124 1.996 . S
Fe111 O112 1.918 . S
Fe111 O119 1.997 . S
Fe111 O122 1.996 . S
Fe111 O126 1.976 . S
Fe111 O129 2.002 . S
O112 Fe110 1.918 . S
O112 Fe111 1.918 . S
O112 Fe113 1.918 . S
Fe113 O112 1.918 . S
Fe113 O114 2.002 . S
Fe113 O123 1.976 . S
Fe113 O127 1.996 . S
Fe113 O130 1.997 . S
O114 Fe113 2.002 . S
O114 C131 1.295 . S
O115 Fe110 1.997 . S
O115 C131 1.235 . S
O116 Fe110 2.002 . S
O116 C117 1.295 . S
C117 O116 1.295 . S
C117 O119 1.235 . S
C118 O123 1.287 . S
C118 O124 1.255 . S
O119 Fe111 1.997 . S
O119 C117 1.235 . S
C120 O126 1.287 . S
C120 O127 1.255 . S
O121 Fe110 1.976 . S
O121 C128 1.287 . S
O122 Fe111 1.996 . S
O122 C128 1.255 . S
O123 Fe113 1.976 . S
O123 C118 1.287 . S
O124 Fe110 1.996 . S
O124 C118 1.255 . S
C125 O129 1.295 . S
C125 O130 1.235 . S
O126 Fe111 1.976 . S
O126 C120 1.287 . S
O127 Fe113 1.996 . S
O127 C120 1.255 . S
C128 O121 1.287 . S
C128 O122 1.255 . S
O129 Fe111 2.002 . S
O129 C125 1.295 . S
O130 Fe113 1.997 . S
O130 C125 1.235 . S
C131 O114 1.295 . S
C131 O115 1.235 . S
Fe132 O134 1.918 . S
Fe132 O137 1.997 . S
Fe132 O138 2.002 . S
Fe132 O143 1.976 . S
Fe132 O146 1.996 . S
Fe133 O134 1.918 . S
Fe133 O141 1.997 . S
Fe133 O144 1.996 . S
Fe133 O148 1.976 . S
Fe133 O151 2.002 . S
O134 Fe132 1.918 . S
O134 Fe133 1.918 . S
O134 Fe135 1.918 . S
Fe135 O134 1.918 . S
Fe135 O136 2.002 . S
Fe135 O145 1.976 . S
Fe135 O149 1.996 . S
Fe135 O152 1.997 . S
O136 Fe135 2.002 . S
O136 C153 1.295 . S
O137 Fe132 1.997 . S
O137 C153 1.235 . S
O138 Fe132 2.002 . S
O138 C139 1.295 . S
C139 O138 1.295 . S
C139 O141 1.235 . S
C140 O145 1.287 . S
C140 O146 1.255 . S
O141 Fe133 1.997 . S
O141 C139 1.235 . S
C142 O148 1.287 . S
C142 O149 1.255 . S
O143 Fe132 1.976 . S
O143 C150 1.287 . S
O144 Fe133 1.996 . S
O144 C150 1.255 . S
O145 Fe135 1.976 . S
O145 C140 1.287 . S
O146 Fe132 1.996 . S
O146 C140 1.255 . S
C147 O151 1.295 . S
C147 O152 1.235 . S
O148 Fe133 1.976 . S
O148 C142 1.287 . S
O149 Fe135 1.996 . S
O149 C142 1.255 . S
C150 O143 1.287 . S
C150 O144 1.255 . S
O151 Fe133 2.002 . S
O151 C147 1.295 . S
O152 Fe135 1.997 . S
O152 C147 1.235 . S
C153 O136 1.295 . S
C153 O137 1.235 . S
Fe154 O156 1.918 . S
Fe154 O159 1.997 . S
Fe154 O160 2.002 . S
Fe154 O165 1.976 . S
Fe154 O168 1.996 . S
Fe155 O156 1.918 . S
Fe155 O163 1.997 . S
Fe155 O166 1.996 . S
Fe155 O170 1.976 . S
Fe155 O173 2.002 . S
O156 Fe154 1.918 . S
O156 Fe155 1.918 . S
O156 Fe157 1.918 . S
Fe157 O156 1.918 . S
Fe157 O158 2.002 . S
Fe157 O167 1.976 . S
Fe157 O171 1.996 . S
Fe157 O174 1.997 . S
O158 Fe157 2.002 . S
O158 C175 1.295 . S
O159 Fe154 1.997 . S
O159 C175 1.235 . S
O160 Fe154 2.002 . S
O160 C161 1.295 . S
C161 O160 1.295 . S
C161 O163 1.235 . S
C162 O167 1.287 . S
C162 O168 1.255 . S
O163 Fe155 1.997 . S
O163 C161 1.235 . S
C164 O170 1.287 . S
C164 O171 1.255 . S
O165 Fe154 1.976 . S
O165 C172 1.287 . S
O166 Fe155 1.996 . S
O166 C172 1.255 . S
O167 Fe157 1.976 . S
O167 C162 1.287 . S
O168 Fe154 1.996 . S
O168 C162 1.255 . S
C169 O173 1.295 . S
C169 O174 1.235 . S
O170 Fe155 1.976 . S
O170 C164 1.287 . S
O171 Fe157 1.996 . S
O171 C164 1.255 . S
C172 O165 1.287 . S
C172 O166 1.255 . S
O173 Fe155 2.002 . S
O173 C169 1.295 . S
O174 Fe157 1.997 . S
O174 C169 1.235 . S
C175 O158 1.295 . S
C175 O159 1.235 . S
H176 C194 0.951 . S
H177 C196 0.951 . S
H178 C198 0.950 . S
H179 C199 0.950 . S
H180 C201 0.950 . S
H181 C204 0.950 . S
H182 C205 0.950 . S
H183 C207 0.950 . S
H184 C208 0.950 . S
H185 C209 0.951 . S
H186 C211 0.951 . S
H187 C213 0.950 . S
H188 C214 0.950 . S
H189 C216 0.950 . S
H190 C219 0.950 . S
H191 C220 0.950 . S
H192 C222 0.950 . S
H193 C223 0.950 1_565 S
C194 H176 0.951 . S
C194 C195 1.366 . S
C194 C196 1.388 . S
C195 C194 1.366 . S
C195 C199 1.385 . S
C196 H177 0.951 . S
C196 C194 1.388 . S
C196 C197 1.366 . S
C197 C196 1.366 . S
C197 C198 1.414 . S
C197 C200 1.499 . S
C198 H178 0.950 . S
C198 C197 1.414 . S
C198 C199 1.374 . S
C199 H179 0.950 . S
C199 C195 1.385 . S
C199 C198 1.374 . S
C200 C197 1.499 . S
C200 C201 1.373 . S
C200 C202 1.389 . S
C201 H180 0.950 . S
C201 C200 1.373 . S
C201 C217 1.377 . S
C202 C200 1.389 . S
C202 C203 1.524 . S
C202 C216 1.377 . S
C203 C202 1.524 . S
C203 C204 1.397 . S
C203 C208 1.363 . S
C204 H181 0.950 . S
C204 C203 1.397 . S
C204 C205 1.334 . S
C205 H182 0.950 . S
C205 C204 1.334 . S
C205 C206 1.287 . S
C206 C205 1.287 . S
C206 C207 1.524 . S
C206 H225 0.913 . S
C207 H183 0.950 . S
C207 C206 1.524 . S
C207 C208 1.415 . S
C208 H184 0.950 . S
C208 C203 1.363 . S
C208 C207 1.415 . S
C209 H185 0.951 . S
C209 C210 1.366 . S
C209 C211 1.388 . S
C210 C209 1.366 . S
C210 C214 1.385 . S
C211 H186 0.951 . S
C211 C209 1.388 . S
C211 C212 1.366 . S
C212 C211 1.366 . S
C212 C213 1.414 . S
C212 C215 1.499 1_545 S
C213 H187 0.950 . S
C213 C212 1.414 . S
C213 C214 1.374 . S
C214 H188 0.950 . S
C214 C210 1.385 . S
C214 C213 1.374 . S
C215 C212 1.499 1_565 S
C215 C216 1.373 . S
C215 C217 1.389 . S
C216 H189 0.950 . S
C216 C202 1.377 . S
C216 C215 1.373 . S
C217 C201 1.377 . S
C217 C215 1.389 . S
C217 C218 1.524 1_565 S
C218 C217 1.524 1_545 S
C218 C219 1.397 . S
C218 C223 1.363 . S
C219 H190 0.950 . S
C219 C218 1.397 . S
C219 C220 1.334 . S
C220 H191 0.950 . S
C220 C219 1.334 . S
C220 C221 1.287 . S
C221 C220 1.287 . S
C221 C222 1.524 . S
C221 H224 0.999 . S
C222 H192 0.950 . S
C222 C221 1.524 . S
C222 C223 1.415 . S
C223 H193 0.950 1_545 S
C223 C218 1.363 . S
C223 C222 1.415 . S
H224 C221 0.999 . S
H225 C206 0.913 . S
H226 C244 0.951 . S
H227 C246 0.951 . S
H228 C248 0.950 . S
H229 C249 0.950 . S
H230 C251 0.950 . S
H231 C254 0.950 . S
H232 C255 0.950 . S
H233 C257 0.950 . S
H234 C258 0.950 . S
H235 C259 0.951 . S
H236 C261 0.951 . S
H237 C263 0.950 . S
H238 C264 0.950 . S
H239 C266 0.950 . S
H240 C269 0.950 . S
H241 C270 0.954 . S
H242 C272 0.950 . S
H243 C273 0.950 . S
C244 H226 0.951 . S
C244 C245 1.366 . S
C244 C246 1.388 1_655 S
C245 C244 1.366 . S
C245 C249 1.385 . S
C246 H227 0.951 . S
C246 C244 1.388 1_455 S
C246 C247 1.366 . S
C247 C246 1.366 . S
C247 C248 1.414 1_455 S
C247 C250 1.499 . S
C248 H228 0.950 . S
C248 C247 1.414 1_655 S
C248 C249 1.374 . S
C249 H229 0.950 . S
C249 C245 1.385 . S
C249 C248 1.374 . S
C250 C247 1.499 . S
C250 C251 1.373 . S
C250 C252 1.389 . S
C251 H230 0.950 . S
C251 C250 1.373 . S
C251 C267 1.377 . S
C252 C250 1.389 . S
C252 C253 1.524 . S
C252 C266 1.377 . S
C253 C252 1.524 . S
C253 C254 1.397 . S
C253 C258 1.363 . S
C254 H231 0.950 . S
C254 C253 1.397 . S
C254 C255 1.334 . S
C255 H232 0.950 . S
C255 C254 1.334 . S
C255 C256 1.287 . S
C256 C255 1.287 . S
C256 C257 1.524 . S
C256 H275 0.913 . S
C257 H233 0.950 . S
C257 C256 1.524 . S
C257 C258 1.415 . S
C258 H234 0.950 . S
C258 C253 1.363 . S
C258 C257 1.415 . S
C259 H235 0.951 . S
C259 C260 1.366 . S
C259 C261 1.388 . S
C260 C259 1.366 . S
C260 C264 1.385 . S
C261 H236 0.951 . S
C261 C259 1.388 . S
C261 C262 1.366 . S
C262 C261 1.366 . S
C262 C263 1.414 1_545 S
C262 C265 1.499 1_545 S
C263 H237 0.950 . S
C263 C262 1.414 1_565 S
C263 C264 1.374 1_565 S
C264 H238 0.950 . S
C264 C260 1.385 . S
C264 C263 1.374 1_545 S
C265 C262 1.499 1_565 S
C265 C266 1.373 . S
C265 C267 1.389 . S
C266 H239 0.950 . S
C266 C252 1.377 . S
C266 C265 1.373 . S
C267 C251 1.377 . S
C267 C265 1.389 . S
C267 C268 1.508 1_565 S
C268 C267 1.508 1_545 S
C268 C269 1.382 1_545 S
C268 C273 1.390 . S
C269 H240 0.950 . S
C269 C268 1.382 1_565 S
C269 C270 1.338 . S
C270 H241 0.954 . S
C270 C269 1.338 . S
C270 C271 1.278 1_565 S
C271 C270 1.278 1_545 S
C271 C272 1.524 . S
C271 H274 0.999 . S
C272 H242 0.950 . S
C272 C271 1.524 . S
C272 C273 1.415 . S
C273 H243 0.950 . S
C273 C268 1.390 . S
C273 C272 1.415 . S
H274 C271 0.999 . S
H275 C256 0.913 . S
H276 C294 0.951 . S
H277 C296 0.951 . S
H278 C298 0.950 . S
H279 C299 0.950 . S
H280 C301 0.950 . S
H281 C304 0.950 . S
H282 C305 0.950 . S
H283 C307 0.950 . S
H284 C308 0.950 . S
H285 C309 0.951 . S
H286 C311 0.951 . S
H287 C313 0.950 . S
H288 C314 0.950 . S
H289 C316 0.950 . S
H290 C319 0.950 . S
H291 C320 0.950 . S
H292 C322 0.950 1_565 S
H293 C323 0.950 1_565 S
C294 H276 0.951 . S
C294 C295 1.366 . S
C294 C296 1.388 1_565 S
C295 C294 1.366 . S
C295 C299 1.385 . S
C296 H277 0.951 . S
C296 C294 1.388 1_545 S
C296 C297 1.366 1_545 S
C297 C296 1.366 1_565 S
C297 C298 1.414 . S
C297 C300 1.499 1_565 S
C298 H278 0.950 . S
C298 C297 1.414 . S
C298 C299 1.374 . S
C299 H279 0.950 . S
C299 C295 1.385 . S
C299 C298 1.374 . S
C300 C297 1.499 1_545 S
C300 C301 1.373 . S
C300 C302 1.389 . S
C301 H280 0.950 . S
C301 C300 1.373 . S
C301 C317 1.377 . S
C302 C300 1.389 . S
C302 C303 1.524 . S
C302 C316 1.377 . S
C303 C302 1.524 . S
C303 C304 1.397 1_545 S
C303 C308 1.363 . S
C304 H281 0.950 . S
C304 C303 1.397 1_565 S
C304 C305 1.334 . S
C305 H282 0.950 . S
C305 C304 1.334 . S
C305 C306 1.287 1_565 S
C306 C305 1.287 1_545 S
C306 C307 1.524 . S
C306 H325 0.905 1_545 S
C307 H283 0.950 . S
C307 C306 1.524 . S
C307 C308 1.415 . S
C308 H284 0.950 . S
C308 C303 1.363 . S
C308 C307 1.415 . S
C309 H285 0.951 . S
C309 C310 1.366 . S
C309 C311 1.388 . S
C310 C309 1.366 . S
C310 C314 1.385 . S
C311 H286 0.951 . S
C311 C309 1.388 . S
C311 C312 1.366 . S
C312 C311 1.366 . S
C312 C313 1.414 . S
C312 C315 1.499 . S
C313 H287 0.950 . S
C313 C312 1.414 . S
C313 C314 1.374 . S
C314 H288 0.950 . S
C314 C310 1.385 . S
C314 C313 1.374 . S
C315 C312 1.499 . S
C315 C316 1.373 . S
C315 C317 1.389 . S
C316 H289 0.950 . S
C316 C302 1.377 . S
C316 C315 1.373 . S
C317 C301 1.377 . S
C317 C315 1.389 . S
C317 C318 1.524 . S
C318 C317 1.524 . S
C318 C319 1.397 . S
C318 C323 1.363 . S
C319 H290 0.950 . S
C319 C318 1.397 . S
C319 C320 1.334 . S
C320 H291 0.950 . S
C320 C319 1.334 . S
C320 C321 1.287 . S
C321 C320 1.287 . S
C321 C322 1.524 . S
C321 H324 0.999 . S
C322 H292 0.950 1_545 S
C322 C321 1.524 . S
C322 C323 1.415 . S
C323 H293 0.950 1_545 S
C323 C318 1.363 . S
C323 C322 1.415 . S
H324 C321 0.999 . S
H325 C306 0.905 1_565 S
H326 C344 0.951 . S
H327 C346 0.951 1_545 S
H328 C348 0.950 . S
H329 C349 0.950 . S
H330 C351 0.950 . S
H331 C354 0.950 . S
H332 C355 0.950 . S
H333 C357 0.950 . S
H334 C358 0.950 1_545 S
H335 C359 0.951 . S
H336 C361 0.951 . S
H337 C363 0.950 . S
H338 C364 0.950 . S
H339 C366 0.950 . S
H340 C369 0.950 . S
H341 C370 0.950 . S
H342 C372 0.950 . S
H343 C373 0.950 . S
C344 H326 0.951 . S
C344 C345 1.366 . S
C344 C346 1.388 . S
C345 C344 1.366 . S
C345 C349 1.385 . S
C346 H327 0.951 1_565 S
C346 C344 1.388 . S
C346 C347 1.366 . S
C347 C346 1.366 . S
C347 C348 1.414 . S
C347 C350 1.499 1_565 S
C348 H328 0.950 . S
C348 C347 1.414 . S
C348 C349 1.374 . S
C349 H329 0.950 . S
C349 C345 1.385 . S
C349 C348 1.374 . S
C350 C347 1.499 1_545 S
C350 C351 1.373 . S
C350 C352 1.389 . S
C351 H330 0.950 . S
C351 C350 1.373 . S
C351 C367 1.377 . S
C352 C350 1.389 . S
C352 C353 1.524 1_545 S
C352 C366 1.377 . S
C353 C352 1.524 1_565 S
C353 C354 1.397 . S
C353 C358 1.363 . S
C354 H331 0.950 . S
C354 C353 1.397 . S
C354 C355 1.334 . S
C355 H332 0.950 . S
C355 C354 1.334 . S
C355 C356 1.287 . S
C356 C355 1.287 . S
C356 C357 1.524 . S
C356 H375 0.913 . S
C357 H333 0.950 . S
C357 C356 1.524 . S
C357 C358 1.415 . S
C358 H334 0.950 1_565 S
C358 C353 1.363 . S
C358 C357 1.415 . S
C359 H335 0.951 . S
C359 C360 1.366 . S
C359 C361 1.388 . S
C360 C359 1.366 . S
C360 C364 1.385 . S
C361 H336 0.951 . S
C361 C359 1.388 . S
C361 C362 1.366 1_455 S
C362 C361 1.366 1_655 S
C362 C363 1.414 . S
C362 C365 1.499 . S
C363 H337 0.950 . S
C363 C362 1.414 . S
C363 C364 1.374 1_655 S
C364 H338 0.950 . S
C364 C360 1.385 . S
C364 C363 1.374 1_455 S
C365 C362 1.499 . S
C365 C366 1.373 . S
C365 C367 1.389 . S
C366 H339 0.950 . S
C366 C352 1.377 . S
C366 C365 1.373 . S
C367 C351 1.377 . S
C367 C365 1.389 . S
C367 C368 1.524 . S
C368 C367 1.524 . S
C368 C369 1.397 . S
C368 C373 1.363 . S
C369 H340 0.950 . S
C369 C368 1.397 . S
C369 C370 1.334 . S
C370 H341 0.950 . S
C370 C369 1.334 . S
C370 C371 1.287 . S
C371 C370 1.287 . S
C371 C372 1.524 . S
C371 H374 0.999 . S
C372 H342 0.950 . S
C372 C371 1.524 . S
C372 C373 1.415 . S
C373 H343 0.950 . S
C373 C368 1.363 . S
C373 C372 1.415 . S
H374 C371 0.999 . S
H375 C356 0.913 . S
H376 C394 0.951 . S
H377 C396 0.951 . S
H378 C398 0.950 . S
H379 C399 0.950 . S
H380 C401 0.950 . S
H381 C404 0.950 . S
H382 C405 0.950 . S
H383 C407 0.950 . S
H384 C408 0.950 . S
H385 C409 0.951 . S
H386 C411 0.951 . S
H387 C413 0.950 . S
H388 C414 0.950 . S
H389 C416 0.950 . S
H390 C419 0.950 . S
H391 C420 0.950 . S
H392 C422 0.950 . S
H393 C423 0.950 . S
C394 H376 0.951 . S
C394 C395 1.366 . S
C394 C396 1.388 . S
C395 C394 1.366 . S
C395 C399 1.385 . S
C396 H377 0.951 . S
C396 C394 1.388 . S
C396 C397 1.366 1_455 S
C397 C396 1.366 1_655 S
C397 C398 1.414 . S
C397 C400 1.499 . S
C398 H378 0.950 . S
C398 C397 1.414 . S
C398 C399 1.374 1_655 S
C399 H379 0.950 . S
C399 C395 1.385 . S
C399 C398 1.374 1_455 S
C400 C397 1.499 . S
C400 C401 1.373 . S
C400 C402 1.389 . S
C401 H380 0.950 . S
C401 C400 1.373 . S
C401 C417 1.377 . S
C402 C400 1.389 . S
C402 C403 1.524 . S
C402 C416 1.377 . S
C403 C402 1.524 . S
C403 C404 1.397 . S
C403 C408 1.363 . S
C404 H381 0.950 . S
C404 C403 1.397 . S
C404 C405 1.334 1_655 S
C405 H382 0.950 . S
C405 C404 1.334 1_455 S
C405 C406 1.287 . S
C406 C405 1.287 . S
C406 C407 1.524 . S
C406 H425 0.913 . S
C407 H383 0.950 . S
C407 C406 1.524 . S
C407 C408 1.415 1_455 S
C408 H384 0.950 . S
C408 C403 1.363 . S
C408 C407 1.415 1_655 S
C409 H385 0.951 . S
C409 C410 1.366 . S
C409 C411 1.388 . S
C410 C409 1.366 . S
C410 C414 1.385 . S
C411 H386 0.951 . S
C411 C409 1.388 . S
C411 C412 1.366 . S
C412 C411 1.366 . S
C412 C413 1.414 . S
C412 C415 1.499 . S
C413 H387 0.950 . S
C413 C412 1.414 . S
C413 C414 1.374 . S
C414 H388 0.950 . S
C414 C410 1.385 . S
C414 C413 1.374 . S
C415 C412 1.499 . S
C415 C416 1.373 . S
C415 C417 1.389 . S
C416 H389 0.950 . S
C416 C402 1.377 . S
C416 C415 1.373 . S
C417 C401 1.377 . S
C417 C415 1.389 . S
C417 C418 1.524 . S
C418 C417 1.524 . S
C418 C419 1.397 . S
C418 C423 1.363 . S
C419 H390 0.950 . S
C419 C418 1.397 . S
C419 C420 1.334 . S
C420 H391 0.950 . S
C420 C419 1.334 . S
C420 C421 1.287 . S
C421 C420 1.287 . S
C421 C422 1.524 . S
C421 H424 0.999 . S
C422 H392 0.950 . S
C422 C421 1.524 . S
C422 C423 1.415 . S
C423 H393 0.950 . S
C423 C418 1.363 . S
C423 C422 1.415 . S
H424 C421 0.999 . S
H425 C406 0.913 . S
H426 C444 0.951 . S
H427 C446 0.951 . S
H428 C448 0.950 . S
H429 C449 0.950 . S
H430 C451 0.950 . S
H431 C454 0.950 . S
H432 C455 0.950 . S
H433 C457 0.950 . S
H434 C458 0.950 . S
H435 C459 0.951 . S
H436 C461 0.951 . S
H437 C463 0.950 . S
H438 C464 0.950 . S
H439 C466 0.950 . S
H440 C469 0.950 . S
H441 C470 0.950 . S
H442 C472 0.950 . S
H443 C473 0.950 . S
C444 H426 0.951 . S
C444 C445 1.366 . S
C444 C446 1.388 . S
C445 C444 1.366 . S
C445 C449 1.385 . S
C446 H427 0.951 . S
C446 C444 1.388 . S
C446 C447 1.366 . S
C447 C446 1.366 . S
C447 C448 1.414 . S
C447 C450 1.499 . S
C448 H428 0.950 . S
C448 C447 1.414 . S
C448 C449 1.374 . S
C449 H429 0.950 . S
C449 C445 1.385 . S
C449 C448 1.374 . S
C450 C447 1.499 . S
C450 C451 1.373 . S
C450 C452 1.389 . S
C451 H430 0.950 . S
C451 C450 1.373 . S
C451 C467 1.377 . S
C452 C450 1.389 . S
C452 C453 1.524 . S
C452 C466 1.377 . S
C453 C452 1.524 . S
C453 C454 1.397 . S
C453 C458 1.363 . S
C454 H431 0.950 . S
C454 C453 1.397 . S
C454 C455 1.334 . S
C455 H432 0.950 . S
C455 C454 1.334 . S
C455 C456 1.287 . S
C456 C455 1.287 . S
C456 C457 1.524 . S
C456 H475 0.913 . S
C457 H433 0.950 . S
C457 C456 1.524 . S
C457 C458 1.415 . S
C458 H434 0.950 . S
C458 C453 1.363 . S
C458 C457 1.415 . S
C459 H435 0.951 . S
C459 C460 1.366 . S
C459 C461 1.388 . S
C460 C459 1.366 . S
C460 C464 1.385 . S
C461 H436 0.951 . S
C461 C459 1.388 . S
C461 C462 1.366 . S
C462 C461 1.366 . S
C462 C463 1.414 . S
C462 C465 1.499 . S
C463 H437 0.950 . S
C463 C462 1.414 . S
C463 C464 1.374 . S
C464 H438 0.950 . S
C464 C460 1.385 . S
C464 C463 1.374 . S
C465 C462 1.499 . S
C465 C466 1.373 . S
C465 C467 1.389 . S
C466 H439 0.950 . S
C466 C452 1.377 . S
C466 C465 1.373 . S
C467 C451 1.377 . S
C467 C465 1.389 . S
C467 C468 1.524 . S
C468 C467 1.524 . S
C468 C469 1.397 . S
C468 C473 1.363 . S
C469 H440 0.950 . S
C469 C468 1.397 . S
C469 C470 1.334 . S
C470 H441 0.950 . S
C470 C469 1.334 . S
C470 C471 1.287 . S
C471 C470 1.287 . S
C471 C472 1.524 . S
C471 H474 0.999 . S
C472 H442 0.950 . S
C472 C471 1.524 . S
C472 C473 1.415 . S
C473 H443 0.950 . S
C473 C468 1.363 . S
C473 C472 1.415 . S
H474 C471 0.999 . S
H475 C456 0.913 . S
H476 C494 0.951 . S
H477 C496 0.951 . S
H478 C498 0.950 1_455 S
H479 C499 0.950 . S
H480 C501 0.950 . S
H481 C504 0.950 . S
H482 C505 0.950 . S
H483 C507 0.950 . S
H484 C508 0.950 . S
H485 C509 0.951 . S
H486 C511 0.951 . S
H487 C513 0.950 . S
H488 C514 0.950 . S
H489 C516 0.950 . S
H490 C519 0.950 . S
H491 C520 0.950 . S
H492 C522 0.950 . S
H493 C523 0.950 . S
C494 H476 0.951 . S
C494 C495 1.366 . S
C494 C496 1.388 . S
C495 C494 1.366 . S
C495 C499 1.385 . S
C496 H477 0.951 . S
C496 C494 1.388 . S
C496 C497 1.366 1_655 S
C497 C496 1.366 1_455 S
C497 C498 1.414 1_455 S
C497 C500 1.499 . S
C498 H478 0.950 1_655 S
C498 C497 1.414 1_655 S
C498 C499 1.374 . S
C499 H479 0.950 . S
C499 C495 1.385 . S
C499 C498 1.374 . S
C500 C497 1.499 . S
C500 C501 1.373 . S
C500 C502 1.389 . S
C501 H480 0.950 . S
C501 C500 1.373 . S
C501 C517 1.377 . S
C502 C500 1.389 . S
C502 C503 1.524 . S
C502 C516 1.377 . S
C503 C502 1.524 . S
C503 C504 1.397 . S
C503 C508 1.363 . S
C504 H481 0.950 . S
C504 C503 1.397 . S
C504 C505 1.334 . S
C505 H482 0.950 . S
C505 C504 1.334 . S
C505 C506 1.287 . S
C506 C505 1.287 . S
C506 C507 1.524 . S
C506 H525 0.913 . S
C507 H483 0.950 . S
C507 C506 1.524 . S
C507 C508 1.415 . S
C508 H484 0.950 . S
C508 C503 1.363 . S
C508 C507 1.415 . S
C509 H485 0.951 . S
C509 C510 1.366 . S
C509 C511 1.388 . S
C510 C509 1.366 . S
C510 C514 1.385 . S
C511 H486 0.951 . S
C511 C509 1.388 . S
C511 C512 1.366 . S
C512 C511 1.366 . S
C512 C513 1.414 . S
C512 C515 1.499 . S
C513 H487 0.950 . S
C513 C512 1.414 . S
C513 C514 1.374 . S
C514 H488 0.950 . S
C514 C510 1.385 . S
C514 C513 1.374 . S
C515 C512 1.499 . S
C515 C516 1.373 . S
C515 C517 1.389 . S
C516 H489 0.950 . S
C516 C502 1.377 . S
C516 C515 1.373 . S
C517 C501 1.377 . S
C517 C515 1.389 . S
C517 C518 1.524 . S
C518 C517 1.524 . S
C518 C519 1.397 . S
C518 C523 1.363 . S
C519 H490 0.950 . S
C519 C518 1.397 . S
C519 C520 1.334 . S
C520 H491 0.950 . S
C520 C519 1.334 . S
C520 C521 1.287 . S
C521 C520 1.287 . S
C521 C522 1.524 . S
C521 H524 0.999 . S
C522 H492 0.950 . S
C522 C521 1.524 . S
C522 C523 1.415 . S
C523 H493 0.950 . S
C523 C518 1.363 . S
C523 C522 1.415 . S
H524 C521 0.999 . S
H525 C506 0.913 . S
H526 C544 0.951 . S
H527 C546 0.951 . S
H528 C548 0.950 . S
H529 C549 0.950 . S
H530 C551 0.950 . S
H531 C554 0.950 . S
H532 C555 0.950 . S
H533 C557 0.950 . S
H534 C558 0.950 . S
H535 C559 0.951 . S
H536 C561 0.951 . S
H537 C563 0.950 . S
H538 C564 0.950 . S
H539 C566 0.950 . S
H540 C569 0.950 . S
H541 C570 0.950 . S
H542 C572 0.950 . S
H543 C573 0.950 . S
C544 H526 0.951 . S
C544 C545 1.366 . S
C544 C546 1.388 . S
C545 C544 1.366 . S
C545 C549 1.385 . S
C546 H527 0.951 . S
C546 C544 1.388 . S
C546 C547 1.366 . S
C547 C546 1.366 . S
C547 C548 1.414 . S
C547 C550 1.499 . S
C548 H528 0.950 . S
C548 C547 1.414 . S
C548 C549 1.374 . S
C549 H529 0.950 . S
C549 C545 1.385 . S
C549 C548 1.374 . S
C550 C547 1.499 . S
C550 C551 1.373 . S
C550 C552 1.389 . S
C551 H530 0.950 . S
C551 C550 1.373 . S
C551 C567 1.377 . S
C552 C550 1.389 . S
C552 C553 1.524 . S
C552 C566 1.377 . S
C553 C552 1.524 . S
C553 C554 1.397 . S
C553 C558 1.363 . S
C554 H531 0.950 . S
C554 C553 1.397 . S
C554 C555 1.334 . S
C555 H532 0.950 . S
C555 C554 1.334 . S
C555 C556 1.287 . S
C556 C555 1.287 . S
C556 C557 1.524 . S
C556 H575 0.913 . S
C557 H533 0.950 . S
C557 C556 1.524 . S
C557 C558 1.415 . S
C558 H534 0.950 . S
C558 C553 1.363 . S
C558 C557 1.415 . S
C559 H535 0.951 . S
C559 C560 1.366 . S
C559 C561 1.388 . S
C560 C559 1.366 . S
C560 C564 1.385 . S
C561 H536 0.951 . S
C561 C559 1.388 . S
C561 C562 1.366 . S
C562 C561 1.366 . S
C562 C563 1.414 . S
C562 C565 1.499 . S
C563 H537 0.950 . S
C563 C562 1.414 . S
C563 C564 1.374 . S
C564 H538 0.950 . S
C564 C560 1.385 . S
C564 C563 1.374 . S
C565 C562 1.499 . S
C565 C566 1.373 . S
C565 C567 1.389 . S
C566 H539 0.950 . S
C566 C552 1.377 . S
C566 C565 1.373 . S
C567 C551 1.377 . S
C567 C565 1.389 . S
C567 C568 1.524 . S
C568 C567 1.524 . S
C568 C569 1.397 . S
C568 C573 1.363 . S
C569 H540 0.950 . S
C569 C568 1.397 . S
C569 C570 1.334 . S
C570 H541 0.950 . S
C570 C569 1.334 . S
C570 C571 1.287 . S
C571 C570 1.287 . S
C571 C572 1.524 . S
C571 H574 0.999 . S
C572 H542 0.950 . S
C572 C571 1.524 . S
C572 C573 1.415 . S
C573 H543 0.950 . S
C573 C568 1.363 . S
C573 C572 1.415 . S
H574 C571 0.999 . S
H575 C556 0.913 . S
H576 C594 0.951 . S
H577 C596 0.951 1_565 S
H578 C598 0.950 . S
H579 C599 0.950 . S
H580 C601 0.950 . S
H581 C604 0.950 . S
H582 C605 0.950 . S
H583 C607 0.950 . S
H584 C608 0.950 . S
H585 C609 0.951 . S
H586 C611 0.951 1_545 S
H587 C613 0.950 . S
H588 C614 0.950 . S
H589 C616 0.950 . S
H590 C619 0.950 . S
H591 C620 0.950 . S
H592 C622 0.950 . S
H593 C623 0.950 . S
C594 H576 0.951 . S
C594 C595 1.366 . S
C594 C596 1.388 . S
C595 C594 1.366 . S
C595 C599 1.385 . S
C596 H577 0.951 1_545 S
C596 C594 1.388 . S
C596 C597 1.366 . S
C597 C596 1.366 . S
C597 C598 1.414 . S
C597 C600 1.499 . S
C598 H578 0.950 . S
C598 C597 1.414 . S
C598 C599 1.374 . S
C599 H579 0.950 . S
C599 C595 1.385 . S
C599 C598 1.374 . S
C600 C597 1.499 . S
C600 C601 1.373 . S
C600 C602 1.389 1_545 S
C601 H580 0.950 . S
C601 C600 1.373 . S
C601 C617 1.377 1_454 S
C602 C600 1.389 1_565 S
C602 C603 1.524 . S
C602 C616 1.377 1_454 S
C603 C602 1.524 . S
C603 C604 1.397 . S
C603 C608 1.363 . S
C604 H581 0.950 . S
C604 C603 1.397 . S
C604 C605 1.334 . S
C605 H582 0.950 . S
C605 C604 1.334 . S
C605 C606 1.287 . S
C606 C605 1.287 . S
C606 C607 1.524 . S
C606 H625 0.913 . S
C607 H583 0.950 . S
C607 C606 1.524 . S
C607 C608 1.415 . S
C608 H584 0.950 . S
C608 C603 1.363 . S
C608 C607 1.415 . S
C609 H585 0.951 . S
C609 C610 1.366 . S
C609 C611 1.388 . S
C610 C609 1.366 . S
C610 C614 1.385 . S
C611 H586 0.951 1_565 S
C611 C609 1.388 . S
C611 C612 1.366 . S
C612 C611 1.366 . S
C612 C613 1.414 . S
C612 C615 1.499 . S
C613 H587 0.950 . S
C613 C612 1.414 . S
C613 C614 1.374 . S
C614 H588 0.950 . S
C614 C610 1.385 . S
C614 C613 1.374 . S
C615 C612 1.499 . S
C615 C616 1.373 . S
C615 C617 1.389 1_565 S
C616 H589 0.950 . S
C616 C602 1.377 1_656 S
C616 C615 1.373 . S
C617 C601 1.377 1_656 S
C617 C615 1.389 1_545 S
C617 C618 1.524 . S
C618 C617 1.524 . S
C618 C619 1.397 . S
C618 C623 1.363 . S
C619 H590 0.950 . S
C619 C618 1.397 . S
C619 C620 1.334 . S
C620 H591 0.950 . S
C620 C619 1.334 . S
C620 C621 1.287 . S
C621 C620 1.287 . S
C621 C622 1.524 . S
C621 H624 0.999 . S
C622 H592 0.950 . S
C622 C621 1.524 . S
C622 C623 1.415 . S
C623 H593 0.950 . S
C623 C618 1.363 . S
C623 C622 1.415 . S
H624 C621 0.999 . S
H625 C606 0.913 . S
H626 C644 0.951 . S
H627 C646 0.951 . S
H628 C648 0.950 . S
H629 C649 0.950 . S
H630 C651 0.950 . S
H631 C654 0.950 . S
H632 C655 0.950 . S
H633 C657 0.950 . S
H634 C658 0.950 . S
H635 C659 0.951 . S
H636 C661 0.951 . S
H637 C663 0.950 . S
H638 C664 0.950 . S
H639 C666 0.950 . S
H640 C669 0.950 . S
H641 C670 0.950 . S
H642 C672 0.950 . S
H643 C673 0.950 . S
C644 H626 0.951 . S
C644 C645 1.366 . S
C644 C646 1.388 . S
C645 C644 1.366 . S
C645 C649 1.385 . S
C646 H627 0.951 . S
C646 C644 1.388 . S
C646 C647 1.366 . S
C647 C646 1.366 . S
C647 C648 1.414 . S
C647 C650 1.499 . S
C648 H628 0.950 . S
C648 C647 1.414 . S
C648 C649 1.374 . S
C649 H629 0.950 . S
C649 C645 1.385 . S
C649 C648 1.374 . S
C650 C647 1.499 . S
C650 C651 1.373 . S
C650 C652 1.389 1_565 S
C651 H630 0.950 . S
C651 C650 1.373 . S
C651 C667 1.377 1_554 S
C652 C650 1.389 1_545 S
C652 C653 1.524 . S
C652 C666 1.377 1_554 S
C653 C652 1.524 . S
C653 C654 1.397 . S
C653 C658 1.363 . S
C654 H631 0.950 . S
C654 C653 1.397 . S
C654 C655 1.334 . S
C655 H632 0.950 . S
C655 C654 1.334 . S
C655 C656 1.287 . S
C656 C655 1.287 . S
C656 C657 1.524 . S
C656 H675 0.913 . S
C657 H633 0.950 . S
C657 C656 1.524 . S
C657 C658 1.415 . S
C658 H634 0.950 . S
C658 C653 1.363 . S
C658 C657 1.415 . S
C659 H635 0.951 . S
C659 C660 1.366 . S
C659 C661 1.388 . S
C660 C659 1.366 . S
C660 C664 1.385 . S
C661 H636 0.951 . S
C661 C659 1.388 . S
C661 C662 1.366 . S
C662 C661 1.366 . S
C662 C663 1.414 . S
C662 C665 1.499 . S
C663 H637 0.950 . S
C663 C662 1.414 . S
C663 C664 1.374 . S
C664 H638 0.950 . S
C664 C660 1.385 . S
C664 C663 1.374 . S
C665 C662 1.499 . S
C665 C666 1.373 . S
C665 C667 1.389 1_545 S
C666 H639 0.950 . S
C666 C652 1.377 1_556 S
C666 C665 1.373 . S
C667 C651 1.377 1_556 S
C667 C665 1.389 1_565 S
C667 C668 1.524 . S
C668 C667 1.524 . S
C668 C669 1.397 . S
C668 C673 1.363 . S
C669 H640 0.950 . S
C669 C668 1.397 . S
C669 C670 1.334 . S
C670 H641 0.950 . S
C670 C669 1.334 . S
C670 C671 1.287 . S
C671 C670 1.287 . S
C671 C672 1.524 . S
C671 H674 0.999 . S
C672 H642 0.950 . S
C672 C671 1.524 . S
C672 C673 1.415 . S
C673 H643 0.950 . S
C673 C668 1.363 . S
C673 C672 1.415 . S
H674 C671 0.999 . S
H675 C656 0.913 . S
H676 C694 0.951 . S
H677 C696 0.951 . S
H678 C698 0.950 . S
H679 C699 0.950 . S
H680 C701 0.950 . S
H681 C704 0.950 . S
H682 C705 0.950 . S
H683 C707 0.950 . S
H684 C708 0.950 . S
H685 C709 0.951 . S
H686 C711 0.951 . S
H687 C713 0.950 . S
H688 C714 0.950 . S
H689 C716 0.950 . S
H690 C719 0.950 . S
H691 C720 0.950 . S
H692 C722 0.950 . S
H693 C723 0.950 . S
C694 H676 0.951 . S
C694 C695 1.366 . S
C694 C696 1.388 . S
C695 C694 1.366 . S
C695 C699 1.385 . S
C696 H677 0.951 . S
C696 C694 1.388 . S
C696 C697 1.366 . S
C697 C696 1.366 . S
C697 C698 1.414 . S
C697 C700 1.499 . S
C698 H678 0.950 . S
C698 C697 1.414 . S
C698 C699 1.374 . S
C699 H679 0.950 . S
C699 C695 1.385 . S
C699 C698 1.374 . S
C700 C697 1.499 . S
C700 C701 1.373 . S
C700 C702 1.389 . S
C701 H680 0.950 . S
C701 C700 1.373 . S
C701 C717 1.377 . S
C702 C700 1.389 . S
C702 C703 1.524 . S
C702 C716 1.377 . S
C703 C702 1.524 . S
C703 C704 1.397 . S
C703 C708 1.363 . S
C704 H681 0.950 . S
C704 C703 1.397 . S
C704 C705 1.334 . S
C705 H682 0.950 . S
C705 C704 1.334 . S
C705 C706 1.287 . S
C706 C705 1.287 . S
C706 C707 1.524 . S
C706 H725 0.913 . S
C707 H683 0.950 . S
C707 C706 1.524 . S
C707 C708 1.415 . S
C708 H684 0.950 . S
C708 C703 1.363 . S
C708 C707 1.415 . S
C709 H685 0.951 . S
C709 C710 1.366 . S
C709 C711 1.388 . S
C710 C709 1.366 . S
C710 C714 1.385 . S
C711 H686 0.951 . S
C711 C709 1.388 . S
C711 C712 1.366 . S
C712 C711 1.366 . S
C712 C713 1.414 . S
C712 C715 1.499 . S
C713 H687 0.950 . S
C713 C712 1.414 . S
C713 C714 1.374 . S
C714 H688 0.950 . S
C714 C710 1.385 . S
C714 C713 1.374 . S
C715 C712 1.499 . S
C715 C716 1.373 . S
C715 C717 1.389 . S
C716 H689 0.950 . S
C716 C702 1.377 . S
C716 C715 1.373 . S
C717 C701 1.377 . S
C717 C715 1.389 . S
C717 C718 1.524 . S
C718 C717 1.524 . S
C718 C719 1.397 . S
C718 C723 1.363 . S
C719 H690 0.950 . S
C719 C718 1.397 . S
C719 C720 1.334 . S
C720 H691 0.950 . S
C720 C719 1.334 . S
C720 C721 1.287 . S
C721 C720 1.287 . S
C721 C722 1.524 . S
C721 H724 0.999 . S
C722 H692 0.950 . S
C722 C721 1.524 . S
C722 C723 1.415 . S
C723 H693 0.950 . S
C723 C718 1.363 . S
C723 C722 1.415 . S
H724 C721 0.999 . S
H725 C706 0.913 . S
H726 C744 0.951 . S
H727 C746 0.951 . S
H728 C748 0.950 . S
H729 C749 0.950 . S
H730 C751 0.950 . S
H731 C754 0.950 . S
H732 C755 0.950 . S
H733 C757 0.950 . S
H734 C758 0.950 . S
H735 C759 0.951 . S
H736 C761 0.951 . S
H737 C763 0.950 . S
H738 C764 0.950 . S
H739 C766 0.950 . S
H740 C769 0.950 . S
H741 C770 0.950 . S
H742 C772 0.950 . S
H743 C773 0.950 . S
C744 H726 0.951 . S
C744 C745 1.366 . S
C744 C746 1.388 . S
C745 C744 1.366 . S
C745 C749 1.385 . S
C746 H727 0.951 . S
C746 C744 1.388 . S
C746 C747 1.366 . S
C747 C746 1.366 . S
C747 C748 1.414 . S
C747 C750 1.499 . S
C748 H728 0.950 . S
C748 C747 1.414 . S
C748 C749 1.374 . S
C749 H729 0.950 . S
C749 C745 1.385 . S
C749 C748 1.374 . S
C750 C747 1.499 . S
C750 C751 1.373 1_455 S
C750 C752 1.389 . S
C751 H730 0.950 . S
C751 C750 1.373 1_655 S
C751 C767 1.377 . S
C752 C750 1.389 . S
C752 C753 1.524 . S
C752 C766 1.377 . S
C753 C752 1.524 . S
C753 C754 1.397 . S
C753 C758 1.363 . S
C754 H731 0.950 . S
C754 C753 1.397 . S
C754 C755 1.334 . S
C755 H732 0.950 . S
C755 C754 1.334 . S
C755 C756 1.287 . S
C756 C755 1.287 . S
C756 C757 1.524 . S
C756 H775 0.913 . S
C757 H733 0.950 . S
C757 C756 1.524 . S
C757 C758 1.415 . S
C758 H734 0.950 . S
C758 C753 1.363 . S
C758 C757 1.415 . S
C759 H735 0.951 . S
C759 C760 1.366 . S
C759 C761 1.388 . S
C760 C759 1.366 . S
C760 C764 1.385 . S
C761 H736 0.951 . S
C761 C759 1.388 . S
C761 C762 1.366 . S
C762 C761 1.366 . S
C762 C763 1.414 . S
C762 C765 1.499 . S
C763 H737 0.950 . S
C763 C762 1.414 . S
C763 C764 1.374 . S
C764 H738 0.950 . S
C764 C760 1.385 . S
C764 C763 1.374 . S
C765 C762 1.499 . S
C765 C766 1.373 1_655 S
C765 C767 1.389 . S
C766 H739 0.950 . S
C766 C752 1.377 . S
C766 C765 1.373 1_455 S
C767 C751 1.377 . S
C767 C765 1.389 . S
C767 C768 1.524 . S
C768 C767 1.524 . S
C768 C769 1.397 . S
C768 C773 1.363 . S
C769 H740 0.950 . S
C769 C768 1.397 . S
C769 C770 1.334 . S
C770 H741 0.950 . S
C770 C769 1.334 . S
C770 C771 1.287 . S
C771 C770 1.287 . S
C771 C772 1.524 . S
C771 H774 0.999 . S
C772 H742 0.950 . S
C772 C771 1.524 . S
C772 C773 1.415 . S
C773 H743 0.950 . S
C773 C768 1.363 . S
C773 C772 1.415 . S
H774 C771 0.999 . S
H775 C756 0.913 . S
H776 C794 0.951 . S
H777 C796 0.951 . S
H778 C798 0.950 . S
H779 C799 0.950 . S
H780 C801 0.950 . S
H781 C804 0.950 . S
H782 C805 0.950 . S
H783 C807 0.950 . S
H784 C808 0.950 . S
H785 C809 0.951 . S
H786 C811 0.951 . S
H787 C813 0.950 . S
H788 C814 0.950 . S
H789 C816 0.950 . S
H790 C819 0.950 . S
H791 C820 0.950 . S
H792 C822 0.950 . S
H793 C823 0.950 . S
C794 H776 0.951 . S
C794 C795 1.366 . S
C794 C796 1.388 . S
C795 C794 1.366 . S
C795 C799 1.385 . S
C796 H777 0.951 . S
C796 C794 1.388 . S
C796 C797 1.366 . S
C797 C796 1.366 . S
C797 C798 1.414 . S
C797 C800 1.499 . S
C798 H778 0.950 . S
C798 C797 1.414 . S
C798 C799 1.374 . S
C799 H779 0.950 . S
C799 C795 1.385 . S
C799 C798 1.374 . S
C800 C797 1.499 . S
C800 C801 1.373 . S
C800 C802 1.389 . S
C801 H780 0.950 . S
C801 C800 1.373 . S
C801 C817 1.377 1_556 S
C802 C800 1.389 . S
C802 C803 1.524 . S
C802 C816 1.377 1_556 S
C803 C802 1.524 . S
C803 C804 1.397 . S
C803 C808 1.363 . S
C804 H781 0.950 . S
C804 C803 1.397 . S
C804 C805 1.334 . S
C805 H782 0.950 . S
C805 C804 1.334 . S
C805 C806 1.287 . S
C806 C805 1.287 . S
C806 C807 1.524 . S
C806 H825 0.913 . S
C807 H783 0.950 . S
C807 C806 1.524 . S
C807 C808 1.415 . S
C808 H784 0.950 . S
C808 C803 1.363 . S
C808 C807 1.415 . S
C809 H785 0.951 . S
C809 C810 1.366 . S
C809 C811 1.388 . S
C810 C809 1.366 . S
C810 C814 1.385 . S
C811 H786 0.951 . S
C811 C809 1.388 . S
C811 C812 1.366 . S
C812 C811 1.366 . S
C812 C813 1.414 . S
C812 C815 1.499 . S
C813 H787 0.950 . S
C813 C812 1.414 . S
C813 C814 1.374 . S
C814 H788 0.950 . S
C814 C810 1.385 . S
C814 C813 1.374 . S
C815 C812 1.499 . S
C815 C816 1.373 . S
C815 C817 1.389 . S
C816 H789 0.950 . S
C816 C802 1.377 1_554 S
C816 C815 1.373 . S
C817 C801 1.377 1_554 S
C817 C815 1.389 . S
C817 C818 1.524 . S
C818 C817 1.524 . S
C818 C819 1.397 . S
C818 C823 1.363 . S
C819 H790 0.950 . S
C819 C818 1.397 . S
C819 C820 1.334 . S
C820 H791 0.950 . S
C820 C819 1.334 . S
C820 C821 1.287 . S
C821 C820 1.287 . S
C821 C822 1.524 . S
C821 H824 0.999 . S
C822 H792 0.950 . S
C822 C821 1.524 . S
C822 C823 1.415 . S
C823 H793 0.950 . S
C823 C818 1.363 . S
C823 C822 1.415 . S
H824 C821 0.999 . S
H825 C806 0.913 . S
H826 C844 0.951 . S
H827 C846 0.951 . S
H828 C848 0.950 . S
H829 C849 0.950 . S
H830 C851 0.950 . S
H831 C854 0.950 . S
H832 C855 0.950 . S
H833 C857 0.950 . S
H834 C858 0.950 . S
H835 C859 0.951 . S
H836 C861 0.951 . S
H837 C863 0.950 . S
H838 C864 0.950 . S
H839 C866 0.950 . S
H840 C869 0.950 . S
H841 C870 0.950 . S
H842 C872 0.950 . S
H843 C873 0.950 . S
C844 H826 0.951 . S
C844 C845 1.366 . S
C844 C846 1.388 . S
C845 C844 1.366 . S
C845 C849 1.385 . S
C846 H827 0.951 . S
C846 C844 1.388 . S
C846 C847 1.366 . S
C847 C846 1.366 . S
C847 C848 1.414 . S
C847 C850 1.499 . S
C848 H828 0.950 . S
C848 C847 1.414 . S
C848 C849 1.374 . S
C849 H829 0.950 . S
C849 C845 1.385 . S
C849 C848 1.374 . S
C850 C847 1.499 . S
C850 C851 1.373 . S
C850 C852 1.389 . S
C851 H830 0.950 . S
C851 C850 1.373 . S
C851 C867 1.377 1_556 S
C852 C850 1.389 . S
C852 C853 1.524 . S
C852 C866 1.377 1_556 S
C853 C852 1.524 . S
C853 C854 1.397 . S
C853 C858 1.363 . S
C854 H831 0.950 . S
C854 C853 1.397 . S
C854 C855 1.334 . S
C855 H832 0.950 . S
C855 C854 1.334 . S
C855 C856 1.287 . S
C856 C855 1.287 . S
C856 C857 1.524 . S
C856 H875 0.913 . S
C857 H833 0.950 . S
C857 C856 1.524 . S
C857 C858 1.415 . S
C858 H834 0.950 . S
C858 C853 1.363 . S
C858 C857 1.415 . S
C859 H835 0.951 . S
C859 C860 1.366 . S
C859 C861 1.388 . S
C860 C859 1.366 . S
C860 C864 1.385 . S
C861 H836 0.951 . S
C861 C859 1.388 . S
C861 C862 1.366 . S
C862 C861 1.366 . S
C862 C863 1.414 . S
C862 C865 1.499 . S
C863 H837 0.950 . S
C863 C862 1.414 . S
C863 C864 1.374 . S
C864 H838 0.950 . S
C864 C860 1.385 . S
C864 C863 1.374 . S
C865 C862 1.499 . S
C865 C866 1.373 . S
C865 C867 1.389 . S
C866 H839 0.950 . S
C866 C852 1.377 1_554 S
C866 C865 1.373 . S
C867 C851 1.377 1_554 S
C867 C865 1.389 . S
C867 C868 1.524 . S
C868 C867 1.524 . S
C868 C869 1.397 . S
C868 C873 1.363 . S
C869 H840 0.950 . S
C869 C868 1.397 . S
C869 C870 1.334 . S
C870 H841 0.950 . S
C870 C869 1.334 . S
C870 C871 1.287 . S
C871 C870 1.287 . S
C871 C872 1.524 . S
C871 H874 0.999 . S
C872 H842 0.950 . S
C872 C871 1.524 . S
C872 C873 1.415 . S
C873 H843 0.950 . S
C873 C868 1.363 . S
C873 C872 1.415 . S
H874 C871 0.999 . S
H875 C856 0.913 . S
H876 C894 0.951 . S
H877 C896 0.951 . S
H878 C898 0.950 . S
H879 C899 0.950 . S
H880 C901 0.950 . S
H881 C904 0.950 . S
H882 C905 0.950 . S
H883 C907 0.950 . S
H884 C908 0.950 . S
H885 C909 0.951 . S
H886 C911 0.951 . S
H887 C913 0.950 . S
H888 C914 0.950 . S
H889 C916 0.950 . S
H890 C919 0.950 . S
H891 C920 0.950 . S
H892 C922 0.950 . S
H893 C923 0.950 . S
C894 H876 0.951 . S
C894 C895 1.366 . S
C894 C896 1.388 . S
C895 C894 1.366 . S
C895 C899 1.385 . S
C896 H877 0.951 . S
C896 C894 1.388 . S
C896 C897 1.366 . S
C897 C896 1.366 . S
C897 C898 1.414 . S
C897 C900 1.499 . S
C898 H878 0.950 . S
C898 C897 1.414 . S
C898 C899 1.374 . S
C899 H879 0.950 . S
C899 C895 1.385 . S
C899 C898 1.374 . S
C900 C897 1.499 . S
C900 C901 1.373 . S
C900 C902 1.389 . S
C901 H880 0.950 . S
C901 C900 1.373 . S
C901 C917 1.377 . S
C902 C900 1.389 . S
C902 C903 1.524 . S
C902 C916 1.377 . S
C903 C902 1.524 . S
C903 C904 1.397 . S
C903 C908 1.363 . S
C904 H881 0.950 . S
C904 C903 1.397 . S
C904 C905 1.334 . S
C905 H882 0.950 . S
C905 C904 1.334 . S
C905 C906 1.287 . S
C906 C905 1.287 . S
C906 C907 1.524 . S
C906 H925 0.913 . S
C907 H883 0.950 . S
C907 C906 1.524 . S
C907 C908 1.415 . S
C908 H884 0.950 . S
C908 C903 1.363 . S
C908 C907 1.415 . S
C909 H885 0.951 . S
C909 C910 1.366 . S
C909 C911 1.388 . S
C910 C909 1.366 . S
C910 C914 1.385 . S
C911 H886 0.951 . S
C911 C909 1.388 . S
C911 C912 1.366 . S
C912 C911 1.366 . S
C912 C913 1.414 . S
C912 C915 1.499 . S
C913 H887 0.950 . S
C913 C912 1.414 . S
C913 C914 1.374 . S
C914 H888 0.950 . S
C914 C910 1.385 . S
C914 C913 1.374 . S
C915 C912 1.499 . S
C915 C916 1.373 . S
C915 C917 1.389 . S
C916 H889 0.950 . S
C916 C902 1.377 . S
C916 C915 1.373 . S
C917 C901 1.377 . S
C917 C915 1.389 . S
C917 C918 1.524 . S
C918 C917 1.524 . S
C918 C919 1.397 . S
C918 C923 1.363 . S
C919 H890 0.950 . S
C919 C918 1.397 . S
C919 C920 1.334 . S
C920 H891 0.950 . S
C920 C919 1.334 . S
C920 C921 1.287 . S
C921 C920 1.287 . S
C921 C922 1.524 . S
C921 H924 0.999 . S
C922 H892 0.950 . S
C922 C921 1.524 . S
C922 C923 1.415 . S
C923 H893 0.950 . S
C923 C918 1.363 . S
C923 C922 1.415 . S
H924 C921 0.999 . S
H925 C906 0.913 . S
H926 C944 0.951 . S
H927 C946 0.951 . S
H928 C948 0.950 . S
H929 C949 0.950 . S
H930 C951 0.950 . S
H931 C954 0.950 . S
H932 C955 0.950 . S
H933 C957 0.950 . S
H934 C958 0.950 . S
H935 C959 0.951 . S
H936 C961 0.951 . S
H937 C963 0.950 . S
H938 C964 0.950 . S
H939 C966 0.950 . S
H940 C969 0.950 . S
H941 C970 0.950 . S
H942 C972 0.950 . S
H943 C973 0.950 . S
C944 H926 0.951 . S
C944 C945 1.366 . S
C944 C946 1.388 . S
C945 C944 1.366 . S
C945 C949 1.385 . S
C946 H927 0.951 . S
C946 C944 1.388 . S
C946 C947 1.366 . S
C947 C946 1.366 . S
C947 C948 1.414 . S
C947 C950 1.499 . S
C948 H928 0.950 . S
C948 C947 1.414 . S
C948 C949 1.374 . S
C949 H929 0.950 . S
C949 C945 1.385 . S
C949 C948 1.374 . S
C950 C947 1.499 . S
C950 C951 1.373 . S
C950 C952 1.389 . S
C951 H930 0.950 . S
C951 C950 1.373 . S
C951 C967 1.377 . S
C952 C950 1.389 . S
C952 C953 1.524 . S
C952 C966 1.377 . S
C953 C952 1.524 . S
C953 C954 1.397 . S
C953 C958 1.363 . S
C954 H931 0.950 . S
C954 C953 1.397 . S
C954 C955 1.334 . S
C955 H932 0.950 . S
C955 C954 1.334 . S
C955 C956 1.287 . S
C956 C955 1.287 . S
C956 C957 1.524 . S
C956 H975 0.913 . S
C957 H933 0.950 . S
C957 C956 1.524 . S
C957 C958 1.415 . S
C958 H934 0.950 . S
C958 C953 1.363 . S
C958 C957 1.415 . S
C959 H935 0.951 . S
C959 C960 1.366 . S
C959 C961 1.388 . S
C960 C959 1.366 . S
C960 C964 1.385 . S
C961 H936 0.951 . S
C961 C959 1.388 . S
C961 C962 1.366 . S
C962 C961 1.366 . S
C962 C963 1.414 . S
C962 C965 1.499 . S
C963 H937 0.950 . S
C963 C962 1.414 . S
C963 C964 1.374 . S
C964 H938 0.950 . S
C964 C960 1.385 . S
C964 C963 1.374 . S
C965 C962 1.499 . S
C965 C966 1.373 . S
C965 C967 1.389 . S
C966 H939 0.950 . S
C966 C952 1.377 . S
C966 C965 1.373 . S
C967 C951 1.377 . S
C967 C965 1.389 . S
C967 C968 1.524 . S
C968 C967 1.524 . S
C968 C969 1.397 . S
C968 C973 1.363 . S
C969 H940 0.950 . S
C969 C968 1.397 . S
C969 C970 1.334 . S
C970 H941 0.950 . S
C970 C969 1.334 . S
C970 C971 1.287 . S
C971 C970 1.287 . S
C971 C972 1.524 . S
C971 H974 0.999 . S
C972 H942 0.950 . S
C972 C971 1.524 . S
C972 C973 1.415 . S
C973 H943 0.950 . S
C973 C968 1.363 . S
C973 C972 1.415 . S
H974 C971 0.999 . S
H975 C956 0.913 . S
H976 C994 0.951 . S
H977 C996 0.951 . S
H978 C998 0.950 . S
H979 C999 0.950 . S
H980 C1001 0.950 . S
H981 C1004 0.950 . S
H982 C1005 0.950 . S
H983 C1007 0.950 . S
H984 C1008 0.950 . S
H985 C1009 0.951 . S
H986 C1011 0.951 . S
H987 C1013 0.950 . S
H988 C1014 0.950 . S
H989 C1016 0.950 . S
H990 C1019 0.950 . S
H991 C1020 0.950 . S
H992 C1022 0.950 . S
H993 C1023 0.950 . S
C994 H976 0.951 . S
C994 C995 1.366 . S
C994 C996 1.388 . S
C995 C994 1.366 . S
C995 C999 1.385 . S
C996 H977 0.951 . S
C996 C994 1.388 . S
C996 C997 1.366 . S
C997 C996 1.366 . S
C997 C998 1.414 . S
C997 C1000 1.499 . S
C998 H978 0.950 . S
C998 C997 1.414 . S
C998 C999 1.374 . S
C999 H979 0.950 . S
C999 C995 1.385 . S
C999 C998 1.374 . S
C1000 C997 1.499 . S
C1000 C1001 1.373 . S
C1000 C1002 1.389 . S
C1001 H980 0.950 . S
C1001 C1000 1.373 . S
C1001 C1017 1.377 . S
C1002 C1000 1.389 . S
C1002 C1003 1.524 . S
C1002 C1016 1.377 . S
C1003 C1002 1.524 . S
C1003 C1004 1.397 . S
C1003 C1008 1.363 . S
C1004 H981 0.950 . S
C1004 C1003 1.397 . S
C1004 C1005 1.334 . S
C1005 H982 0.950 . S
C1005 C1004 1.334 . S
C1005 C1006 1.287 . S
C1006 C1005 1.287 . S
C1006 C1007 1.524 . S
C1006 H1025 0.913 . S
C1007 H983 0.950 . S
C1007 C1006 1.524 . S
C1007 C1008 1.415 . S
C1008 H984 0.950 . S
C1008 C1003 1.363 . S
C1008 C1007 1.415 . S
C1009 H985 0.951 . S
C1009 C1010 1.366 . S
C1009 C1011 1.388 . S
C1010 C1009 1.366 . S
C1010 C1014 1.385 . S
C1011 H986 0.951 . S
C1011 C1009 1.388 . S
C1011 C1012 1.366 . S
C1012 C1011 1.366 . S
C1012 C1013 1.414 . S
C1012 C1015 1.499 . S
C1013 H987 0.950 . S
C1013 C1012 1.414 . S
C1013 C1014 1.374 . S
C1014 H988 0.950 . S
C1014 C1010 1.385 . S
C1014 C1013 1.374 . S
C1015 C1012 1.499 . S
C1015 C1016 1.373 . S
C1015 C1017 1.389 . S
C1016 H989 0.950 . S
C1016 C1002 1.377 . S
C1016 C1015 1.373 . S
C1017 C1001 1.377 . S
C1017 C1015 1.389 . S
C1017 C1018 1.524 . S
C1018 C1017 1.524 . S
C1018 C1019 1.397 . S
C1018 C1023 1.363 . S
C1019 H990 0.950 . S
C1019 C1018 1.397 . S
C1019 C1020 1.334 . S
C1020 H991 0.950 . S
C1020 C1019 1.334 . S
C1020 C1021 1.287 . S
C1021 C1020 1.287 . S
C1021 C1022 1.524 . S
C1021 H1024 0.999 . S
C1022 H992 0.950 . S
C1022 C1021 1.524 . S
C1022 C1023 1.415 . S
C1023 H993 0.950 . S
C1023 C1018 1.363 . S
C1023 C1022 1.415 . S
H1024 C1021 0.999 . S
H1025 C1006 0.913 . S
H1026 C1044 0.951 . S
H1027 C1046 0.951 . S
H1028 C1048 0.950 . S
H1029 C1049 0.950 . S
H1030 C1051 0.950 . S
H1031 C1054 0.950 . S
H1032 C1055 0.950 . S
H1033 C1057 0.950 . S
H1034 C1058 0.950 . S
H1035 C1059 0.951 . S
H1036 C1061 0.951 . S
H1037 C1063 0.950 . S
H1038 C1064 0.950 . S
H1039 C1066 0.950 . S
H1040 C1069 0.950 . S
H1041 C1070 0.950 . S
H1042 C1072 0.950 . S
H1043 C1073 0.950 . S
C1044 H1026 0.951 . S
C1044 C1045 1.366 . S
C1044 C1046 1.388 . S
C1045 C1044 1.366 . S
C1045 C1049 1.385 . S
C1046 H1027 0.951 . S
C1046 C1044 1.388 . S
C1046 C1047 1.366 . S
C1047 C1046 1.366 . S
C1047 C1048 1.414 . S
C1047 C1050 1.499 . S
C1048 H1028 0.950 . S
C1048 C1047 1.414 . S
C1048 C1049 1.374 . S
C1049 H1029 0.950 . S
C1049 C1045 1.385 . S
C1049 C1048 1.374 . S
C1050 C1047 1.499 . S
C1050 C1051 1.373 . S
C1050 C1052 1.389 . S
C1051 H1030 0.950 . S
C1051 C1050 1.373 . S
C1051 C1067 1.377 . S
C1052 C1050 1.389 . S
C1052 C1053 1.524 . S
C1052 C1066 1.377 . S
C1053 C1052 1.524 . S
C1053 C1054 1.397 . S
C1053 C1058 1.363 . S
C1054 H1031 0.950 . S
C1054 C1053 1.397 . S
C1054 C1055 1.334 . S
C1055 H1032 0.950 . S
C1055 C1054 1.334 . S
C1055 C1056 1.287 . S
C1056 C1055 1.287 . S
C1056 C1057 1.524 . S
C1056 H1075 0.913 . S
C1057 H1033 0.950 . S
C1057 C1056 1.524 . S
C1057 C1058 1.415 . S
C1058 H1034 0.950 . S
C1058 C1053 1.363 . S
C1058 C1057 1.415 . S
C1059 H1035 0.951 . S
C1059 C1060 1.366 . S
C1059 C1061 1.388 . S
C1060 C1059 1.366 . S
C1060 C1064 1.385 . S
C1061 H1036 0.951 . S
C1061 C1059 1.388 . S
C1061 C1062 1.366 . S
C1062 C1061 1.366 . S
C1062 C1063 1.414 . S
C1062 C1065 1.499 . S
C1063 H1037 0.950 . S
C1063 C1062 1.414 . S
C1063 C1064 1.374 . S
C1064 H1038 0.950 . S
C1064 C1060 1.385 . S
C1064 C1063 1.374 . S
C1065 C1062 1.499 . S
C1065 C1066 1.373 . S
C1065 C1067 1.389 . S
C1066 H1039 0.950 . S
C1066 C1052 1.377 . S
C1066 C1065 1.373 . S
C1067 C1051 1.377 . S
C1067 C1065 1.389 . S
C1067 C1068 1.524 . S
C1068 C1067 1.524 . S
C1068 C1069 1.397 . S
C1068 C1073 1.363 . S
C1069 H1040 0.950 . S
C1069 C1068 1.397 . S
C1069 C1070 1.334 . S
C1070 H1041 0.950 . S
C1070 C1069 1.334 . S
C1070 C1071 1.287 . S
C1071 C1070 1.287 . S
C1071 C1072 1.524 1_565 S
C1071 H1074 0.999 1_565 S
C1072 H1042 0.950 . S
C1072 C1071 1.524 1_545 S
C1072 C1073 1.415 1_545 S
C1073 H1043 0.950 . S
C1073 C1068 1.363 . S
C1073 C1072 1.415 1_565 S
H1074 C1071 0.999 1_545 S
H1075 C1056 0.913 . S
H1076 C1094 0.951 . S
H1077 C1096 0.951 . S
H1078 C1098 0.950 . S
H1079 C1099 0.950 . S
H1080 C1101 0.950 . S
H1081 C1104 0.950 . S
H1082 C1105 0.950 . S
H1083 C1107 0.950 . S
H1084 C1108 0.950 . S
H1085 C1109 0.951 . S
H1086 C1111 0.951 . S
H1087 C1113 0.950 . S
H1088 C1114 0.950 . S
H1089 C1116 0.950 . S
H1090 C1119 0.950 . S
H1091 C1120 0.950 . S
H1092 C1122 0.950 . S
H1093 C1123 0.950 . S
C1094 H1076 0.951 . S
C1094 C1095 1.366 . S
C1094 C1096 1.388 . S
C1095 C1094 1.366 . S
C1095 C1099 1.385 . S
C1096 H1077 0.951 . S
C1096 C1094 1.388 . S
C1096 C1097 1.366 . S
C1097 C1096 1.366 . S
C1097 C1098 1.414 . S
C1097 C1100 1.499 . S
C1098 H1078 0.950 . S
C1098 C1097 1.414 . S
C1098 C1099 1.374 . S
C1099 H1079 0.950 . S
C1099 C1095 1.385 . S
C1099 C1098 1.374 . S
C1100 C1097 1.499 . S
C1100 C1101 1.373 . S
C1100 C1102 1.389 . S
C1101 H1080 0.950 . S
C1101 C1100 1.373 . S
C1101 C1117 1.377 1_556 S
C1102 C1100 1.389 . S
C1102 C1103 1.524 . S
C1102 C1116 1.377 1_556 S
C1103 C1102 1.524 . S
C1103 C1104 1.397 . S
C1103 C1108 1.363 . S
C1104 H1081 0.950 . S
C1104 C1103 1.397 . S
C1104 C1105 1.334 . S
C1105 H1082 0.950 . S
C1105 C1104 1.334 . S
C1105 C1106 1.287 . S
C1106 C1105 1.287 . S
C1106 C1107 1.524 . S
C1106 H1125 0.913 . S
C1107 H1083 0.950 . S
C1107 C1106 1.524 . S
C1107 C1108 1.415 . S
C1108 H1084 0.950 . S
C1108 C1103 1.363 . S
C1108 C1107 1.415 . S
C1109 H1085 0.951 . S
C1109 C1110 1.366 . S
C1109 C1111 1.388 . S
C1110 C1109 1.366 . S
C1110 C1114 1.385 . S
C1111 H1086 0.951 . S
C1111 C1109 1.388 . S
C1111 C1112 1.366 . S
C1112 C1111 1.366 . S
C1112 C1113 1.414 . S
C1112 C1115 1.499 . S
C1113 H1087 0.950 . S
C1113 C1112 1.414 . S
C1113 C1114 1.374 . S
C1114 H1088 0.950 . S
C1114 C1110 1.385 . S
C1114 C1113 1.374 . S
C1115 C1112 1.499 . S
C1115 C1116 1.373 . S
C1115 C1117 1.389 . S
C1116 H1089 0.950 . S
C1116 C1102 1.377 1_554 S
C1116 C1115 1.373 . S
C1117 C1101 1.377 1_554 S
C1117 C1115 1.389 . S
C1117 C1118 1.524 . S
C1118 C1117 1.524 . S
C1118 C1119 1.397 . S
C1118 C1123 1.363 . S
C1119 H1090 0.950 . S
C1119 C1118 1.397 . S
C1119 C1120 1.334 . S
C1120 H1091 0.950 . S
C1120 C1119 1.334 . S
C1120 C1121 1.287 . S
C1121 C1120 1.287 . S
C1121 C1122 1.524 . S
C1121 H1124 0.999 . S
C1122 H1092 0.950 . S
C1122 C1121 1.524 . S
C1122 C1123 1.415 . S
C1123 H1093 0.950 . S
C1123 C1118 1.363 . S
C1123 C1122 1.415 . S
H1124 C1121 0.999 . S
H1125 C1106 0.913 . S
H1126 C1144 0.951 . S
H1127 C1146 0.951 . S
H1128 C1148 0.950 . S
H1129 C1149 0.950 . S
H1130 C1151 0.950 . S
H1131 C1154 0.950 . S
H1132 C1155 0.950 . S
H1133 C1157 0.950 . S
H1134 C1158 0.950 1_554 S
H1135 C1159 0.951 . S
H1136 C1161 0.951 . S
H1137 C1163 0.950 . S
H1138 C1164 0.950 . S
H1139 C1166 0.950 . S
H1140 C1169 0.950 . S
H1141 C1170 0.950 . S
H1142 C1172 0.950 . S
H1143 C1173 0.950 1_556 S
C1144 H1126 0.951 . S
C1144 C1145 1.366 . S
C1144 C1146 1.388 . S
C1145 C1144 1.366 . S
C1145 C1149 1.385 . S
C1146 H1127 0.951 . S
C1146 C1144 1.388 . S
C1146 C1147 1.366 . S
C1147 C1146 1.366 . S
C1147 C1148 1.414 . S
C1147 C1150 1.499 . S
C1148 H1128 0.950 . S
C1148 C1147 1.414 . S
C1148 C1149 1.374 . S
C1149 H1129 0.950 . S
C1149 C1145 1.385 . S
C1149 C1148 1.374 . S
C1150 C1147 1.499 . S
C1150 C1151 1.373 . S
C1150 C1152 1.389 . S
C1151 H1130 0.950 . S
C1151 C1150 1.373 . S
C1151 C1167 1.377 1_556 S
C1152 C1150 1.389 . S
C1152 C1153 1.524 . S
C1152 C1166 1.377 1_556 S
C1153 C1152 1.524 . S
C1153 C1154 1.397 . S
C1153 C1158 1.363 . S
C1154 H1131 0.950 . S
C1154 C1153 1.397 . S
C1154 C1155 1.334 . S
C1155 H1132 0.950 . S
C1155 C1154 1.334 . S
C1155 C1156 1.287 . S
C1156 C1155 1.287 . S
C1156 C1157 1.524 . S
C1156 H1175 0.913 . S
C1157 H1133 0.950 . S
C1157 C1156 1.524 . S
C1157 C1158 1.415 . S
C1158 H1134 0.950 1_556 S
C1158 C1153 1.363 . S
C1158 C1157 1.415 . S
C1159 H1135 0.951 . S
C1159 C1160 1.366 . S
C1159 C1161 1.388 . S
C1160 C1159 1.366 . S
C1160 C1164 1.385 . S
C1161 H1136 0.951 . S
C1161 C1159 1.388 . S
C1161 C1162 1.366 . S
C1162 C1161 1.366 . S
C1162 C1163 1.414 . S
C1162 C1165 1.499 . S
C1163 H1137 0.950 . S
C1163 C1162 1.414 . S
C1163 C1164 1.374 . S
C1164 H1138 0.950 . S
C1164 C1160 1.385 . S
C1164 C1163 1.374 . S
C1165 C1162 1.499 . S
C1165 C1166 1.373 . S
C1165 C1167 1.389 . S
C1166 H1139 0.950 . S
C1166 C1152 1.377 1_554 S
C1166 C1165 1.373 . S
C1167 C1151 1.377 1_554 S
C1167 C1165 1.389 . S
C1167 C1168 1.524 . S
C1168 C1167 1.524 . S
C1168 C1169 1.397 . S
C1168 C1173 1.363 . S
C1169 H1140 0.950 . S
C1169 C1168 1.397 . S
C1169 C1170 1.334 . S
C1170 H1141 0.950 . S
C1170 C1169 1.334 . S
C1170 C1171 1.287 . S
C1171 C1170 1.287 . S
C1171 C1172 1.524 . S
C1171 H1174 0.999 . S
C1172 H1142 0.950 . S
C1172 C1171 1.524 . S
C1172 C1173 1.415 . S
C1173 H1143 0.950 1_554 S
C1173 C1168 1.363 . S
C1173 C1172 1.415 . S
H1174 C1171 0.999 . S
H1175 C1156 0.913 . S
H1176 C1194 0.951 . S
H1177 C1196 0.951 . S
H1178 C1198 0.950 . S
H1179 C1199 0.950 . S
H1180 C1201 0.950 . S
H1181 C1204 0.950 . S
H1182 C1205 0.950 . S
H1183 C1207 0.950 . S
H1184 C1208 0.950 . S
H1185 C1209 0.951 . S
H1186 C1211 0.951 . S
H1187 C1213 0.950 . S
H1188 C1214 0.950 . S
H1189 C1216 0.950 . S
H1190 C1219 0.950 . S
H1191 C1220 0.950 . S
H1192 C1222 0.950 . S
H1193 C1223 0.950 . S
C1194 H1176 0.951 . S
C1194 C1195 1.366 . S
C1194 C1196 1.388 . S
C1195 C1194 1.366 . S
C1195 C1199 1.385 . S
C1196 H1177 0.951 . S
C1196 C1194 1.388 . S
C1196 C1197 1.366 . S
C1197 C1196 1.366 . S
C1197 C1198 1.414 . S
C1197 C1200 1.499 . S
C1198 H1178 0.950 . S
C1198 C1197 1.414 . S
C1198 C1199 1.374 . S
C1199 H1179 0.950 . S
C1199 C1195 1.385 . S
C1199 C1198 1.374 . S
C1200 C1197 1.499 . S
C1200 C1201 1.373 . S
C1200 C1202 1.389 . S
C1201 H1180 0.950 . S
C1201 C1200 1.373 . S
C1201 C1217 1.377 . S
C1202 C1200 1.389 . S
C1202 C1203 1.524 . S
C1202 C1216 1.377 . S
C1203 C1202 1.524 . S
C1203 C1204 1.397 . S
C1203 C1208 1.363 . S
C1204 H1181 0.950 . S
C1204 C1203 1.397 . S
C1204 C1205 1.334 . S
C1205 H1182 0.950 . S
C1205 C1204 1.334 . S
C1205 C1206 1.287 . S
C1206 C1205 1.287 . S
C1206 C1207 1.524 . S
C1206 H1225 0.913 . S
C1207 H1183 0.950 . S
C1207 C1206 1.524 . S
C1207 C1208 1.415 . S
C1208 H1184 0.950 . S
C1208 C1203 1.363 . S
C1208 C1207 1.415 . S
C1209 H1185 0.951 . S
C1209 C1210 1.366 . S
C1209 C1211 1.388 . S
C1210 C1209 1.366 . S
C1210 C1214 1.385 . S
C1211 H1186 0.951 . S
C1211 C1209 1.388 . S
C1211 C1212 1.366 . S
C1212 C1211 1.366 . S
C1212 C1213 1.414 . S
C1212 C1215 1.499 . S
C1213 H1187 0.950 . S
C1213 C1212 1.414 . S
C1213 C1214 1.374 . S
C1214 H1188 0.950 . S
C1214 C1210 1.385 . S
C1214 C1213 1.374 . S
C1215 C1212 1.499 . S
C1215 C1216 1.373 . S
C1215 C1217 1.389 . S
C1216 H1189 0.950 . S
C1216 C1202 1.377 . S
C1216 C1215 1.373 . S
C1217 C1201 1.377 . S
C1217 C1215 1.389 . S
C1217 C1218 1.524 . S
C1218 C1217 1.524 . S
C1218 C1219 1.397 . S
C1218 C1223 1.363 . S
C1219 H1190 0.950 . S
C1219 C1218 1.397 . S
C1219 C1220 1.334 . S
C1220 H1191 0.950 . S
C1220 C1219 1.334 . S
C1220 C1221 1.287 . S
C1221 C1220 1.287 . S
C1221 C1222 1.524 . S
C1221 H1224 0.999 . S
C1222 H1192 0.950 . S
C1222 C1221 1.524 . S
C1222 C1223 1.415 . S
C1223 H1193 0.950 . S
C1223 C1218 1.363 . S
C1223 C1222 1.415 . S
H1224 C1221 0.999 . S
H1225 C1206 0.913 . S
H1226 C1244 0.951 . S
H1227 C1246 0.951 . S
H1228 C1248 0.950 . S
H1229 C1249 0.950 . S
H1230 C1251 0.950 . S
H1231 C1254 0.950 . S
H1232 C1255 0.950 . S
H1233 C1257 0.950 . S
H1234 C1258 0.950 . S
H1235 C1259 0.951 . S
H1236 C1261 0.951 . S
H1237 C1263 0.950 . S
H1238 C1264 0.950 . S
H1239 C1266 0.950 . S
H1240 C1269 0.950 . S
H1241 C1270 0.950 . S
H1242 C1272 0.950 . S
H1243 C1273 0.950 . S
C1244 H1226 0.951 . S
C1244 C1245 1.366 . S
C1244 C1246 1.388 . S
C1245 C1244 1.366 . S
C1245 C1249 1.385 . S
C1246 H1227 0.951 . S
C1246 C1244 1.388 . S
C1246 C1247 1.366 . S
C1247 C1246 1.366 . S
C1247 C1248 1.414 . S
C1247 C1250 1.499 . S
C1248 H1228 0.950 . S
C1248 C1247 1.414 . S
C1248 C1249 1.374 . S
C1249 H1229 0.950 . S
C1249 C1245 1.385 . S
C1249 C1248 1.374 . S
C1250 C1247 1.499 . S
C1250 C1251 1.373 . S
C1250 C1252 1.389 . S
C1251 H1230 0.950 . S
C1251 C1250 1.373 . S
C1251 C1267 1.377 . S
C1252 C1250 1.389 . S
C1252 C1253 1.524 . S
C1252 C1266 1.377 . S
C1253 C1252 1.524 . S
C1253 C1254 1.397 . S
C1253 C1258 1.363 . S
C1254 H1231 0.950 . S
C1254 C1253 1.397 . S
C1254 C1255 1.334 . S
C1255 H1232 0.950 . S
C1255 C1254 1.334 . S
C1255 C1256 1.287 . S
C1256 C1255 1.287 . S
C1256 C1257 1.524 . S
C1256 H1275 0.913 . S
C1257 H1233 0.950 . S
C1257 C1256 1.524 . S
C1257 C1258 1.415 . S
C1258 H1234 0.950 . S
C1258 C1253 1.363 . S
C1258 C1257 1.415 . S
C1259 H1235 0.951 . S
C1259 C1260 1.366 . S
C1259 C1261 1.388 . S
C1260 C1259 1.366 . S
C1260 C1264 1.385 . S
C1261 H1236 0.951 . S
C1261 C1259 1.388 . S
C1261 C1262 1.366 . S
C1262 C1261 1.366 . S
C1262 C1263 1.414 . S
C1262 C1265 1.499 . S
C1263 H1237 0.950 . S
C1263 C1262 1.414 . S
C1263 C1264 1.374 . S
C1264 H1238 0.950 . S
C1264 C1260 1.385 . S
C1264 C1263 1.374 . S
C1265 C1262 1.499 . S
C1265 C1266 1.373 . S
C1265 C1267 1.389 . S
C1266 H1239 0.950 . S
C1266 C1252 1.377 . S
C1266 C1265 1.373 . S
C1267 C1251 1.377 . S
C1267 C1265 1.389 . S
C1267 C1268 1.524 . S
C1268 C1267 1.524 . S
C1268 C1269 1.397 . S
C1268 C1273 1.363 . S
C1269 H1240 0.950 . S
C1269 C1268 1.397 . S
C1269 C1270 1.334 . S
C1270 H1241 0.950 . S
C1270 C1269 1.334 . S
C1270 C1271 1.287 . S
C1271 C1270 1.287 . S
C1271 C1272 1.524 . S
C1271 H1274 0.999 . S
C1272 H1242 0.950 . S
C1272 C1271 1.524 . S
C1272 C1273 1.415 . S
C1273 H1243 0.950 . S
C1273 C1268 1.363 . S
C1273 C1272 1.415 . S
H1274 C1271 0.999 . S
H1275 C1256 0.913 . S
H1276 C1294 0.951 . S
H1277 C1296 0.951 . S
H1278 C1298 0.950 . S
H1279 C1299 0.950 . S
H1280 C1301 0.950 . S
H1281 C1304 0.950 . S
H1282 C1305 0.950 . S
H1283 C1307 0.950 . S
H1284 C1308 0.950 . S
H1285 C1309 0.951 . S
H1286 C1311 0.951 . S
H1287 C1313 0.950 . S
H1288 C1314 0.950 . S
H1289 C1316 0.950 . S
H1290 C1319 0.950 . S
H1291 C1320 0.950 . S
H1292 C1322 0.950 . S
H1293 C1323 0.950 . S
C1294 H1276 0.951 . S
C1294 C1295 1.366 . S
C1294 C1296 1.388 . S
C1295 C1294 1.366 . S
C1295 C1299 1.385 . S
C1296 H1277 0.951 . S
C1296 C1294 1.388 . S
C1296 C1297 1.366 . S
C1297 C1296 1.366 . S
C1297 C1298 1.414 . S
C1297 C1300 1.499 . S
C1298 H1278 0.950 . S
C1298 C1297 1.414 . S
C1298 C1299 1.374 . S
C1299 H1279 0.950 . S
C1299 C1295 1.385 . S
C1299 C1298 1.374 . S
C1300 C1297 1.499 . S
C1300 C1301 1.373 . S
C1300 C1302 1.389 . S
C1301 H1280 0.950 . S
C1301 C1300 1.373 . S
C1301 C1317 1.377 . S
C1302 C1300 1.389 . S
C1302 C1303 1.524 . S
C1302 C1316 1.377 . S
C1303 C1302 1.524 . S
C1303 C1304 1.397 . S
C1303 C1308 1.363 . S
C1304 H1281 0.950 . S
C1304 C1303 1.397 . S
C1304 C1305 1.334 . S
C1305 H1282 0.950 . S
C1305 C1304 1.334 . S
C1305 C1306 1.287 . S
C1306 C1305 1.287 . S
C1306 C1307 1.524 . S
C1306 H1325 0.913 . S
C1307 H1283 0.950 . S
C1307 C1306 1.524 . S
C1307 C1308 1.415 . S
C1308 H1284 0.950 . S
C1308 C1303 1.363 . S
C1308 C1307 1.415 . S
C1309 H1285 0.951 . S
C1309 C1310 1.366 . S
C1309 C1311 1.388 . S
C1310 C1309 1.366 . S
C1310 C1314 1.385 . S
C1311 H1286 0.951 . S
C1311 C1309 1.388 . S
C1311 C1312 1.366 . S
C1312 C1311 1.366 . S
C1312 C1313 1.414 . S
C1312 C1315 1.499 . S
C1313 H1287 0.950 . S
C1313 C1312 1.414 . S
C1313 C1314 1.374 . S
C1314 H1288 0.950 . S
C1314 C1310 1.385 . S
C1314 C1313 1.374 . S
C1315 C1312 1.499 . S
C1315 C1316 1.373 . S
C1315 C1317 1.389 . S
C1316 H1289 0.950 . S
C1316 C1302 1.377 . S
C1316 C1315 1.373 . S
C1317 C1301 1.377 . S
C1317 C1315 1.389 . S
C1317 C1318 1.524 . S
C1318 C1317 1.524 . S
C1318 C1319 1.397 . S
C1318 C1323 1.363 . S
C1319 H1290 0.950 . S
C1319 C1318 1.397 . S
C1319 C1320 1.334 . S
C1320 H1291 0.950 . S
C1320 C1319 1.334 . S
C1320 C1321 1.287 . S
C1321 C1320 1.287 . S
C1321 C1322 1.524 . S
C1321 H1324 0.999 . S
C1322 H1292 0.950 . S
C1322 C1321 1.524 . S
C1322 C1323 1.415 . S
C1323 H1293 0.950 . S
C1323 C1318 1.363 . S
C1323 C1322 1.415 . S
H1324 C1321 0.999 . S
H1325 C1306 0.913 . S
H1326 C1344 0.951 . S
H1327 C1346 0.951 . S
H1328 C1348 0.950 . S
H1329 C1349 0.950 . S
H1330 C1351 0.950 . S
H1331 C1354 0.950 . S
H1332 C1355 0.950 . S
H1333 C1357 0.950 . S
H1334 C1358 0.950 . S
H1335 C1359 0.951 . S
H1336 C1361 0.951 . S
H1337 C1363 0.950 . S
H1338 C1364 0.950 . S
H1339 C1366 0.950 . S
H1340 C1369 0.950 . S
H1341 C1370 0.950 . S
H1342 C1372 0.950 . S
H1343 C1373 0.950 . S
C1344 H1326 0.951 . S
C1344 C1345 1.366 . S
C1344 C1346 1.388 . S
C1345 C1344 1.366 . S
C1345 C1349 1.385 . S
C1346 H1327 0.951 . S
C1346 C1344 1.388 . S
C1346 C1347 1.366 . S
C1347 C1346 1.366 . S
C1347 C1348 1.414 . S
C1347 C1350 1.499 . S
C1348 H1328 0.950 . S
C1348 C1347 1.414 . S
C1348 C1349 1.374 . S
C1349 H1329 0.950 . S
C1349 C1345 1.385 . S
C1349 C1348 1.374 . S
C1350 C1347 1.499 . S
C1350 C1351 1.373 . S
C1350 C1352 1.389 . S
C1351 H1330 0.950 . S
C1351 C1350 1.373 . S
C1351 C1367 1.377 . S
C1352 C1350 1.389 . S
C1352 C1353 1.524 . S
C1352 C1366 1.377 . S
C1353 C1352 1.524 . S
C1353 C1354 1.397 . S
C1353 C1358 1.363 . S
C1354 H1331 0.950 . S
C1354 C1353 1.397 . S
C1354 C1355 1.334 . S
C1355 H1332 0.950 . S
C1355 C1354 1.334 . S
C1355 C1356 1.287 . S
C1356 C1355 1.287 . S
C1356 C1357 1.524 . S
C1356 H1375 0.913 . S
C1357 H1333 0.950 . S
C1357 C1356 1.524 . S
C1357 C1358 1.415 . S
C1358 H1334 0.950 . S
C1358 C1353 1.363 . S
C1358 C1357 1.415 . S
C1359 H1335 0.951 . S
C1359 C1360 1.366 . S
C1359 C1361 1.388 . S
C1360 C1359 1.366 . S
C1360 C1364 1.385 . S
C1361 H1336 0.951 . S
C1361 C1359 1.388 . S
C1361 C1362 1.366 . S
C1362 C1361 1.366 . S
C1362 C1363 1.414 . S
C1362 C1365 1.499 . S
C1363 H1337 0.950 . S
C1363 C1362 1.414 . S
C1363 C1364 1.374 . S
C1364 H1338 0.950 . S
C1364 C1360 1.385 . S
C1364 C1363 1.374 . S
C1365 C1362 1.499 . S
C1365 C1366 1.373 . S
C1365 C1367 1.389 . S
C1366 H1339 0.950 . S
C1366 C1352 1.377 . S
C1366 C1365 1.373 . S
C1367 C1351 1.377 . S
C1367 C1365 1.389 . S
C1367 C1368 1.524 . S
C1368 C1367 1.524 . S
C1368 C1369 1.397 . S
C1368 C1373 1.363 . S
C1369 H1340 0.950 . S
C1369 C1368 1.397 . S
C1369 C1370 1.334 . S
C1370 H1341 0.950 . S
C1370 C1369 1.334 . S
C1370 C1371 1.287 . S
C1371 C1370 1.287 . S
C1371 C1372 1.524 . S
C1371 H1374 0.999 . S
C1372 H1342 0.950 . S
C1372 C1371 1.524 . S
C1372 C1373 1.415 . S
C1373 H1343 0.950 . S
C1373 C1368 1.363 . S
C1373 C1372 1.415 . S
H1374 C1371 0.999 . S
H1375 C1356 0.913 . S
C195 C76 1.244 . S
C210 C21 1.292 . S
C245 C52 1.245 . S
C260 C37 1.292 . S
C295 C51 1.309 . S
C310 C30 1.265 . S
C345 C87 1.309 . S
C360 C18 1.264 . S
C395 C164 1.245 . S
C410 C103 1.292 . S
C445 C125 1.292 . S
C460 C140 1.244 . S
C495 C118 1.265 . S
C510 C139 1.309 . S
C545 C96 1.266 . S
C560 C175 1.309 . S
C595 C7 0.988 . S
C610 C65 0.984 . S
C645 C81 0.984 . S
C660 C43 0.988 . S
C695 C109 0.988 . S
C710 C153 0.984 . S
C745 C169 0.984 . S
C760 C131 0.988 . S
C795 C29 0.760 . S
C810 C15 0.760 . S
C845 C59 0.756 . S
C860 C73 0.757 . S
C895 C117 0.759 . S
C910 C95 0.760 . S
C945 C161 0.756 . S
C960 C147 0.757 . S
C995 C8 1.267 . S
C1010 C32 1.267 . S
C1045 C62 1.289 . S
C1060 C74 1.289 . S
C1095 C98 1.267 . S
C1110 C120 1.267 . S
C1145 C162 1.288 . S
C1160 C150 1.288 . S
C1195 C10 1.610 . S
C1210 C142 1.621 . S
C1245 C40 1.610 . S
C1260 C172 1.621 . S
C1295 C106 1.609 . S
C1310 C54 1.620 . S
C1345 C128 1.610 . S
C1360 C84 1.620 . S
