# Generated by pormake.
# Topology ecn, (8)-cn, num edge types: 1
# Building blocks:
#     Node 0, Type 0, BuildingBlock: TAGTUT_clean_sbu_1, # of connection points: 8
#     Node 1, Type 0, BuildingBlock: TAGTUT_clean_sbu_1, # of connection points: 8
#     Node 2, Type 0, BuildingBlock: TAGTUT_clean_sbu_1, # of connection points: 8
#     Node 3, Type 0, BuildingBlock: TAGTUT_clean_sbu_1, # of connection points: 8
#     Node 4, Type 0, BuildingBlock: TAGTUT_clean_sbu_1, # of connection points: 8
#     Node 5, Type 0, BuildingBlock: TAGTUT_clean_sbu_1, # of connection points: 8
#     Node 6, Type 0, BuildingBlock: TAGTUT_clean_sbu_1, # of connection points: 8
#     Node 7, Type 0, BuildingBlock: TAGTUT_clean_sbu_1, # of connection points: 8
#     Node 8, Type 0, BuildingBlock: TAGTUT_clean_sbu_1, # of connection points: 8
#     Edge 9, Type (0, 0), BuildingBlock: CIFDUS_clean_linker_0, # of connection points: 2
#     Edge 10, Type (0, 0), BuildingBlock: CIFDUS_clean_linker_0, # of connection points: 2
#     Edge 11, Type (0, 0), BuildingBlock: CIFDUS_clean_linker_0, # of connection points: 2
#     Edge 12, Type (0, 0), BuildingBlock: CIFDUS_clean_linker_0, # of connection points: 2
#     Edge 13, Type (0, 0), BuildingBlock: CIFDUS_clean_linker_0, # of connection points: 2
#     Edge 14, Type (0, 0), BuildingBlock: CIFDUS_clean_linker_0, # of connection points: 2
#     Edge 15, Type (0, 0), BuildingBlock: CIFDUS_clean_linker_0, # of connection points: 2
#     Edge 16, Type (0, 0), BuildingBlock: CIFDUS_clean_linker_0, # of connection points: 2
#     Edge 17, Type (0, 0), BuildingBlock: CIFDUS_clean_linker_0, # of connection points: 2
#     Edge 18, Type (0, 0), BuildingBlock: CIFDUS_clean_linker_0, # of connection points: 2
#     Edge 19, Type (0, 0), BuildingBlock: CIFDUS_clean_linker_0, # of connection points: 2
#     Edge 20, Type (0, 0), BuildingBlock: CIFDUS_clean_linker_0, # of connection points: 2
#     Edge 21, Type (0, 0), BuildingBlock: CIFDUS_clean_linker_0, # of connection points: 2
#     Edge 22, Type (0, 0), BuildingBlock: CIFDUS_clean_linker_0, # of connection points: 2
#     Edge 23, Type (0, 0), BuildingBlock: CIFDUS_clean_linker_0, # of connection points: 2
#     Edge 24, Type (0, 0), BuildingBlock: CIFDUS_clean_linker_0, # of connection points: 2
#     Edge 25, Type (0, 0), BuildingBlock: CIFDUS_clean_linker_0, # of connection points: 2
#     Edge 26, Type (0, 0), BuildingBlock: CIFDUS_clean_linker_0, # of connection points: 2
#     Edge 27, Type (0, 0), BuildingBlock: CIFDUS_clean_linker_0, # of connection points: 2
#     Edge 28, Type (0, 0), BuildingBlock: CIFDUS_clean_linker_0, # of connection points: 2
#     Edge 29, Type (0, 0), BuildingBlock: CIFDUS_clean_linker_0, # of connection points: 2
#     Edge 30, Type (0, 0), BuildingBlock: CIFDUS_clean_linker_0, # of connection points: 2
#     Edge 31, Type (0, 0), BuildingBlock: CIFDUS_clean_linker_0, # of connection points: 2
#     Edge 32, Type (0, 0), BuildingBlock: CIFDUS_clean_linker_0, # of connection points: 2
#     Edge 33, Type (0, 0), BuildingBlock: CIFDUS_clean_linker_0, # of connection points: 2
#     Edge 34, Type (0, 0), BuildingBlock: CIFDUS_clean_linker_0, # of connection points: 2
#     Edge 35, Type (0, 0), BuildingBlock: CIFDUS_clean_linker_0, # of connection points: 2
#     Edge 36, Type (0, 0), BuildingBlock: CIFDUS_clean_linker_0, # of connection points: 2
#     Edge 37, Type (0, 0), BuildingBlock: CIFDUS_clean_linker_0, # of connection points: 2
#     Edge 38, Type (0, 0), BuildingBlock: CIFDUS_clean_linker_0, # of connection points: 2
#     Edge 39, Type (0, 0), BuildingBlock: CIFDUS_clean_linker_0, # of connection points: 2
#     Edge 40, Type (0, 0), BuildingBlock: CIFDUS_clean_linker_0, # of connection points: 2
#     Edge 41, Type (0, 0), BuildingBlock: CIFDUS_clean_linker_0, # of connection points: 2
#     Edge 42, Type (0, 0), BuildingBlock: CIFDUS_clean_linker_0, # of connection points: 2
#     Edge 43, Type (0, 0), BuildingBlock: CIFDUS_clean_linker_0, # of connection points: 2
#     Edge 44, Type (0, 0), BuildingBlock: CIFDUS_clean_linker_0, # of connection points: 2
# Relax obj value: 0.100
# Max RMSD: 0.218
# Mean RMSD: 0.208
data_MOF--net-ecn--node1-TAGTUT_clean_sbu_1--edge1-CIFDUS_clean_linker_0
_symmetry_space_group_name_H-M    P1
_symmetry_Int_Tables_number       1
_symmetry_cell_setting            triclinic
loop_
_symmetry_equiv_pos_as_xyz
'x, y, z'
_cell_length_a     45.897486
_cell_length_b     44.865138
_cell_length_c     13.162972
_cell_angle_alpha  89.848519
_cell_angle_beta   90.862032
_cell_angle_gamma 117.27978
loop_
_atom_site_label
_atom_site_type_symbol
_atom_site_fract_x
_atom_site_fract_y
_atom_site_fract_z
_atom_type_partial_charge
C0 C 1.00749 0.18717 -0.0068 0.0
C1 C 0.02873 0.13171 0.20507 0.0
C2 C 0.12741 0.25051 0.29212 0.0
Mg3 Mg 0.04513 0.15852 -0.02174 0.0
O4 O 0.06672 0.20349 0.0449 0.0
Mg5 Mg 0.05642 0.21749 0.19339 0.0
Mg6 Mg 0.1156 0.2188 0.06886 0.0
O7 O 0.16313 0.23338 0.0998 0.0
Mg8 Mg 0.18783 0.27705 0.14812 0.0
Mg9 Mg 0.17786 0.22305 0.96983 0.0
C10 C 0.10896 0.18612 0.84549 0.0
C11 C 0.12669 0.1525 0.07178 0.0
O12 O 0.03621 0.20013 0.03482 0.0
O13 O 1.0017 0.164 0.92862 0.0
O14 O 0.03401 0.16034 0.24247 0.0
O15 O 0.03379 0.12755 0.11179 0.0
O16 O 0.07998 0.16305 0.86323 0.0
O17 O 0.12495 0.21001 0.9082 0.0
C18 C 0.10459 0.28601 0.06889 0.0
O19 O 0.12149 0.27189 0.03608 0.0
O20 O 0.08071 0.27123 0.13051 0.0
O21 O 0.22873 0.23642 0.05627 0.0
O22 O 0.2324 0.27379 0.1756 0.0
O23 O 0.19854 0.27774 0.9092 0.0
C24 C 0.24383 0.25594 0.1321 0.0
O25 O 0.19332 0.31048 0.02707 0.0
O26 O 0.15689 0.27247 0.27391 0.0
C27 C 0.20033 0.30585 0.93723 0.0
O28 O 0.10937 0.22807 0.22741 0.0
O29 O 0.10786 0.16532 0.09564 0.0
O30 O 0.15432 0.16949 0.02872 0.0
C31 C 0.77272 0.76677 0.11433 0.0
C32 C 0.71935 0.80567 0.91355 0.0
C33 C 0.81841 0.91487 0.87055 0.0
Mg34 Mg 0.73856 0.81286 0.14176 0.0
O35 O 0.78134 0.84449 0.10944 0.0
Mg36 Mg 0.79999 0.83875 -0.02046 0.0
Mg37 Mg 0.79138 0.89262 0.099 0.0
O38 O 0.79983 0.9405 0.08857 0.0
Mg39 Mg 0.8379 0.97419 0.03376 0.0
Mg40 Mg 0.78584 0.9446 0.22788 0.0
C41 C 0.75354 0.86874 0.31179 0.0
C42 C 0.72276 0.89727 0.08317 0.0
O43 O 0.79085 0.78581 0.04329 0.0
O44 O 0.75134 0.7727 0.15953 0.0
O45 O 0.74973 0.81526 0.89695 0.0
O46 O 0.70892 0.80531 0.00349 0.0
O47 O 0.73609 0.83814 0.2827 0.0
O48 O 0.776 0.89057 0.25707 0.0
C49 C 0.85973 0.88819 0.12926 0.0
O50 O 0.84379 0.90436 0.1514 0.0
O51 O 0.84836 0.86326 0.06762 0.0
O52 O 0.7938 0.99689 0.1845 0.0
O53 O 0.82745 0.0169 0.05135 0.0
O54 O 0.84072 0.97012 0.28622 0.0
C55 C 0.80928 0.01984 0.11969 0.0
O56 O 0.87313 0.97966 0.15088 0.0
O57 O 0.8307 0.94663 0.88845 0.0
C58 C 0.86923 0.98051 0.24682 0.0
O59 O 0.80832 0.89328 0.94187 0.0
O60 O 0.73878 0.88236 0.04852 0.0
O61 O 0.73489 0.91997 0.15268 0.0
C62 C 0.23389 0.00748 0.94121 0.0
C63 C 0.19768 0.90072 0.85163 0.0
C64 C 0.08396 0.89987 0.77143 0.0
Mg65 Mg 0.19543 0.93836 0.04227 0.0
O66 O 0.16055 0.94291 -0.01534 0.0
Mg67 Mg 0.16107 0.95179 0.83672 0.0
Mg68 Mg 0.11486 0.90628 -0.00424 0.0
O69 O 0.06934 0.86901 0.00734 0.0
Mg70 Mg 0.0334 0.87085 0.94736 0.0
Mg71 Mg 0.0696 0.86152 0.15602 0.0
C72 C 0.14567 0.91084 0.21903 0.0
C73 C 0.11663 0.83651 0.03868 0.0
O74 O 0.21259 0.99871 0.868 0.0
O75 O 0.23178 0.98818 0.01535 0.0
O76 O 0.18598 0.91699 0.79858 0.0
O77 O 0.20118 0.9039 0.9477 0.0
O78 O 0.17554 0.92266 0.19128 0.0
O79 O 0.12201 0.90607 0.15827 0.0
C80 C 0.11565 0.97747 0.95995 0.0
O81 O 0.10222 0.94967 0.00813 0.0
O82 O 0.13675 0.98306 0.89025 0.0
O83 O 0.01841 0.81556 0.13189 0.0
O84 O 0.99698 0.82045 -0.0188 0.0
O85 O 0.04286 0.89463 0.18864 0.0
C86 C 0.99599 0.80421 0.06227 0.0
O87 O 0.02708 0.90622 0.03809 0.0
O88 O 0.05388 0.88609 0.79847 0.0
C89 C 0.03017 0.90969 0.13429 0.0
O90 O 0.10799 0.907 0.83309 0.0
O91 O 0.12795 0.8634 -0.01421 0.0
O92 O 0.09561 0.83069 0.10908 0.0
C93 C 0.66003 0.51324 0.40425 0.0
C94 C 0.70142 0.46224 0.57421 0.0
C95 C 0.80178 0.57857 0.65576 0.0
Mg96 Mg 0.71285 0.49082 0.35962 0.0
O97 O 0.73921 0.5348 0.40466 0.0
Mg98 Mg 0.72982 0.54603 0.5436 0.0
Mg99 Mg 0.78678 0.54828 0.42606 0.0
O100 O 0.83383 0.56054 0.45001 0.0
Mg101 Mg 0.86148 0.60169 0.50954 0.0
Mg102 Mg 0.845 0.55084 0.31267 0.0
C103 C 0.77234 0.51399 0.20683 0.0
C104 C 0.79516 0.48048 0.41849 0.0
O105 O 0.67836 0.53169 0.47705 0.0
O106 O 0.66816 0.49547 0.34626 0.0
O107 O 0.70809 0.49175 0.60472 0.0
O108 O 0.70627 0.45673 0.48248 0.0
O109 O 0.74254 0.49365 0.22914 0.0
O110 O 0.79135 0.53815 0.26506 0.0
C111 C 0.77576 0.6149 0.42099 0.0
O112 O 0.79418 0.60211 0.39152 0.0
O113 O 0.75118 0.59876 0.47846 0.0
O114 O 0.89618 0.5605 0.38539 0.0
O115 O 0.90302 0.59238 0.52413 0.0
O116 O 0.86603 0.6074 0.2619 0.0
C117 C 0.91214 0.57522 0.46703 0.0
O118 O 0.86802 0.638 0.3981 0.0
O119 O 0.83231 0.59766 0.64045 0.0
C120 C 0.87093 0.63529 0.30302 0.0
O121 O 0.78279 0.55852 0.58789 0.0
O122 O 0.77819 0.49419 0.45321 0.0
O123 O 0.82093 0.4966 0.36554 0.0
C124 C 0.43476 0.09927 0.39822 0.0
C125 C 0.3874 0.14305 0.20722 0.0
C126 C 0.48929 0.25008 0.16332 0.0
Mg127 Mg 0.40706 0.15042 0.43237 0.0
O128 O 0.45097 0.17967 0.4022 0.0
Mg129 Mg 0.46792 0.1729 0.27012 0.0
Mg130 Mg 0.46284 0.22837 0.39245 0.0
O131 O 0.47352 0.27709 0.38388 0.0
Mg132 Mg 0.5117 0.30993 0.32718 0.0
Mg133 Mg 0.46168 0.28147 0.52589 0.0
C134 C 0.42473 0.20545 0.60469 0.0
C135 C 0.39695 0.23881 0.3794 0.0
O136 O 0.45573 0.11884 0.33354 0.0
O137 O 0.41429 0.10675 0.44249 0.0
O138 O 0.41744 0.151 0.19132 0.0
O139 O 0.37737 0.14449 0.29636 0.0
O140 O 0.40575 0.17528 0.57493 0.0
O141 O 0.44804 0.2264 0.55057 0.0
C142 C 0.53085 0.22171 0.40825 0.0
O143 O 0.51555 0.23812 0.4353 0.0
O144 O 0.5179 0.1963 0.34882 0.0
O145 O 0.47483 0.33574 0.49149 0.0
O146 O 0.50418 0.35456 0.34974 0.0
O147 O 0.51643 0.30097 0.5826 0.0
C148 C 0.48975 0.35895 0.42689 0.0
O149 O 0.54675 0.31218 0.44134 0.0
O150 O 0.50272 0.2819 0.18168 0.0
C151 C 0.54401 0.31009 0.5382 0.0
O152 O 0.47811 0.22833 0.23401 0.0
O153 O 0.41076 0.22121 0.34804 0.0
O154 O 0.41059 0.26174 0.44801 0.0
C155 C 0.90665 0.35488 0.2655 0.0
C156 C 0.88177 0.25213 0.16519 0.0
C157 C 0.76182 0.23721 0.08473 0.0
Mg158 Mg 0.87269 0.28416 0.35717 0.0
O159 O 0.83606 0.28621 0.30235 0.0
Mg160 Mg 0.83645 0.29522 0.15448 0.0
Mg161 Mg 0.79322 0.24506 0.30922 0.0
O162 O 0.7505 0.20317 0.31675 0.0
Mg163 Mg 0.7118 0.19874 0.25759 0.0
Mg164 Mg 0.75126 0.19424 0.46407 0.0
C165 C 0.82409 0.25091 0.53307 0.0
C166 C 0.80535 0.18031 0.34258 0.0
O167 O 0.88519 0.3458 0.19235 0.0
O168 O 0.90617 0.33502 0.3358 0.0
O169 O 0.86756 0.26654 0.11503 0.0
O170 O 0.88398 0.25372 0.26158 0.0
O171 O 0.85392 0.26593 0.50448 0.0
O172 O 0.79974 0.244 0.4728 0.0
C173 C 0.78135 0.30964 0.2679 0.0
O174 O 0.77227 0.28267 0.32001 0.0
O175 O 0.80423 0.31899 0.20212 0.0
O176 O 0.70522 0.14407 0.43432 0.0
O177 O 0.68038 0.14619 0.28764 0.0
O178 O 0.71658 0.21911 0.50128 0.0
C179 C 0.6828 0.13034 0.36579 0.0
O180 O 0.69847 0.2282 0.3513 0.0
O181 O 0.73204 0.21907 0.11169 0.0
C182 C 0.70036 0.23069 0.44778 0.0
O183 O 0.7864 0.24606 0.1457 0.0
O184 O 0.81451 0.20816 0.29581 0.0
O185 O 0.78314 0.17043 0.4105 0.0
C186 C 0.33034 0.85501 0.66989 0.0
C187 C 0.37066 0.79761 0.83144 0.0
C188 C 0.47343 0.9154 0.91657 0.0
Mg189 Mg 0.37965 0.82857 0.61747 0.0
O190 O 0.4091 0.8704 0.67025 0.0
Mg191 Mg 0.40049 0.88219 0.80889 0.0
Mg192 Mg 0.45591 0.88079 0.69389 0.0
O193 O 0.5023 0.89041 0.71834 0.0
Mg194 Mg 0.5319 0.93277 0.76609 0.0
Mg195 Mg 0.51195 0.87494 0.58681 0.0
C196 C 0.43955 0.84728 0.4688 0.0
C197 C 0.45849 0.81024 0.70765 0.0
O198 O 0.3491 0.87049 0.74573 0.0
O199 O 0.33727 0.83783 0.60582 0.0
O200 O 0.37814 0.82655 0.87005 0.0
O201 O 0.37235 0.79354 0.73621 0.0
O202 O 0.40884 0.83002 0.48726 0.0
O203 O 0.45998 0.86784 0.53343 0.0
C204 C 0.44843 0.94885 0.67775 0.0
O205 O 0.46645 0.9349 0.65447 0.0
O206 O 0.42336 0.9344 0.73516 0.0
O207 O 0.5616 0.8821 0.66672 0.0
O208 O 0.57091 0.91974 0.7918 0.0
O209 O 0.53805 0.92891 0.52072 0.0
C210 C 0.57814 0.89904 0.74501 0.0
O211 O 0.54162 0.96587 0.6401 0.0
O212 O 0.5037 0.93401 0.89565 0.0
C213 C 0.54489 0.9587 0.54876 0.0
O214 O 0.4534 0.89375 0.8536 0.0
O215 O 0.44319 0.8267 0.73257 0.0
O216 O 0.4844 0.82288 0.65411 0.0
C217 C 0.11294 0.4417 0.75483 0.0
C218 C 0.05804 0.47992 0.56405 0.0
C219 C 0.16009 0.59254 0.53006 0.0
Mg220 Mg 0.07873 0.48742 0.78838 0.0
O221 O 0.12193 0.51865 0.75667 0.0
Mg222 Mg 0.13942 0.5145 0.62335 0.0
Mg223 Mg 0.13107 0.56642 0.75382 0.0
O224 O 0.13924 0.61432 0.75321 0.0
Mg225 Mg 0.17778 0.64859 0.70239 0.0
Mg226 Mg 0.129 0.61563 0.89961 0.0
C227 C 0.09744 0.53922 0.96925 0.0
C228 C 0.0629 0.57089 0.76244 0.0
O229 O 0.13194 0.46139 0.68602 0.0
O230 O 0.09098 0.44713 0.79796 0.0
O231 O 0.08837 0.48949 0.54756 0.0
O232 O 0.04777 0.48034 0.65365 0.0
O233 O 0.07748 0.50976 0.9362 0.0
O234 O 0.11886 0.56132 0.91278 0.0
C235 C 0.20145 0.56568 0.7611 0.0
O236 O 0.18453 0.57987 0.79129 0.0
O237 O 0.18982 0.54072 0.69982 0.0
O238 O 0.1379 0.66887 0.87172 0.0
O239 O 0.16738 0.69092 0.73159 0.0
O240 O 0.18469 0.6395 0.95123 0.0
C241 C 0.15179 0.69306 0.80925 0.0
O242 O 0.2147 0.65265 0.8101 0.0
O243 O 0.17398 0.62381 0.55536 0.0
C244 C 0.21246 0.65088 0.90673 0.0
O245 O 0.1446 0.56904 0.59327 0.0
O246 O 0.07771 0.55608 0.71903 0.0
O247 O 0.07676 0.59284 0.83326 0.0
C248 C 0.56648 0.68111 0.61146 0.0
C249 C 0.53747 0.58032 0.48299 0.0
C250 C 0.42191 0.57038 0.41046 0.0
Mg251 Mg 0.53055 0.60774 0.68683 0.0
O252 O 0.49471 0.61226 0.63594 0.0
Mg253 Mg 0.49588 0.626 0.49121 0.0
Mg254 Mg 0.45104 0.57169 0.63512 0.0
O255 O 0.40721 0.53107 0.63543 0.0
Mg256 Mg 0.37101 0.53455 0.58262 0.0
Mg257 Mg 0.40707 0.52056 0.78293 0.0
C258 C 0.4807 0.57192 0.85841 0.0
C259 C 0.45934 0.50424 0.6599 0.0
O260 O 0.54487 0.6747 0.53975 0.0
O261 O 0.56553 0.65897 0.67446 0.0
O262 O 0.52599 0.59841 0.43979 0.0
O263 O 0.53887 0.5781 0.57915 0.0
O264 O 0.51084 0.58654 0.83232 0.0
O265 O 0.45714 0.56719 0.79717 0.0
C266 C 0.44056 0.6377 0.61068 0.0
O267 O 0.43127 0.60962 0.6562 0.0
O268 O 0.46404 0.64898 0.54706 0.0
O269 O 0.35769 0.47393 0.74848 0.0
O270 O 0.33442 0.48349 0.6081 0.0
O271 O 0.37716 0.54926 0.82724 0.0
C272 C 0.33465 0.46464 0.68102 0.0
O273 O 0.36304 0.56649 0.684 0.0
O274 O 0.39174 0.5543 0.43621 0.0
C275 C 0.36437 0.56566 0.78063 0.0
O276 O 0.44582 0.57734 0.47261 0.0
O277 O 0.46964 0.53248 0.61387 0.0
O278 O 0.43694 0.49483 0.72737 0.0
H279 H 0.26971 0.21106 0.11268 0.0
H280 H 0.28759 0.3047 0.25515 0.0
H281 H 0.33443 0.30634 0.3469 0.0
H282 H 0.37014 0.28152 0.39088 0.0
H283 H 0.35579 0.18966 0.24626 0.0
H284 H 0.30793 0.18682 0.15311 0.0
C285 C 0.28411 0.23199 0.16278 0.0
C286 C 0.27471 0.2576 0.17677 0.0
C287 C 0.31151 0.23292 0.21666 0.0
C288 C 0.29378 0.28442 0.24281 0.0
C289 C 0.32071 0.28544 0.29595 0.0
C290 C 0.35645 0.26061 0.33987 0.0
C291 C 0.36639 0.23547 0.32744 0.0
C292 C 0.32958 0.2597 0.28457 0.0
C293 C 0.3485 0.20906 0.2589 0.0
C294 C 0.32121 0.20759 0.20488 0.0
H295 H 0.76297 0.1232 0.2572 0.0
H296 H 0.86579 0.18232 0.32431 0.0
H297 H 0.87751 0.13952 0.2435 0.0
H298 H 0.85679 0.08245 0.16696 0.0
H299 H 0.75335 0.02456 0.10302 0.0
H300 H 0.74336 0.07002 0.16688 0.0
C301 C 0.78793 0.12655 0.25434 0.0
C302 C 0.81352 0.15521 0.29794 0.0
C303 C 0.79422 0.10229 0.20697 0.0
C304 C 0.84586 0.16008 0.29169 0.0
C305 C 0.85243 0.13571 0.24546 0.0
C306 C 0.83234 0.0805 0.16382 0.0
C307 C 0.80581 0.0506 0.1292 0.0
C308 C 0.82668 0.10644 0.20385 0.0
C309 C 0.77405 0.04767 0.12798 0.0
C310 C 0.76831 0.07341 0.16564 0.0
H311 H 0.94296 0.78573 0.17892 0.0
H312 H 0.99019 0.7473 0.97473 0.0
H313 H 0.95103 0.68959 0.01829 0.0
H314 H 0.90869 0.65089 0.13405 0.0
H315 H 0.86276 0.69029 0.34121 0.0
H316 H 0.89502 0.74652 0.27457 0.0
C317 C 0.94403 0.76458 0.14254 0.0
C318 C 0.96918 0.77029 0.07453 0.0
C319 C 0.92168 0.73169 0.16863 0.0
C320 C 0.97076 0.74309 0.02737 0.0
C321 C 0.9485 0.71022 0.05251 0.0
C322 C 0.90509 0.67164 0.1623 0.0
C323 C 0.8838 0.66656 0.24345 0.0
C324 C 0.92454 0.70423 0.12573 0.0
C325 C 0.87936 0.69367 0.27955 0.0
C326 C 0.89793 0.7259 0.24197 0.0
H327 H 0.76084 0.74243 0.3041 0.0
H328 H 0.79953 0.73007 0.01967 0.0
H329 H 0.80774 0.68389 0.09307 0.0
H330 H 0.79966 0.64422 0.23631 0.0
H331 H 0.76112 0.659 0.51842 0.0
H332 H 0.75762 0.70741 0.44792 0.0
C333 C 0.7709 0.72959 0.25741 0.0
C334 C 0.77874 0.73915 0.15559 0.0
C335 C 0.7758 0.7036 0.30019 0.0
C336 C 0.79281 0.72289 0.09778 0.0
C337 C 0.79755 0.69654 0.13988 0.0
C338 C 0.79119 0.65854 0.28277 0.0
C339 C 0.78044 0.64785 0.38243 0.0
C340 C 0.78866 0.68632 0.24084 0.0
C341 C 0.76932 0.66652 0.44148 0.0
C342 C 0.76716 0.69414 0.40108 0.0
H343 H 0.29779 0.03765 0.8872 0.0
H344 H 0.22389 0.05444 0.03711 0.0
H345 H 0.26613 0.10256 0.12827 0.0
H346 H 0.32331 0.13133 0.1914 0.0
H347 H 0.39757 0.11661 0.03355 0.0
H348 H 0.35619 0.07684 0.91861 0.0
C349 C 0.29111 0.05298 0.93577 0.0
C350 C 0.25797 0.04275 0.95551 0.0
C351 C 0.31559 0.08044 -0.0112 0.0
C352 C 0.24939 0.06227 0.02004 0.0
C353 C 0.27352 0.08946 0.07338 0.0
C354 C 0.33059 0.12023 0.13003 0.0
C355 C 0.3634 0.12631 0.1234 0.0
C356 C 0.30665 0.09753 0.06265 0.0
C357 C 0.37242 0.11205 0.04203 0.0
C358 C 0.34873 0.08913 -0.02399 0.0
H359 H 0.96222 0.20026 0.89322 0.0
H360 H 0.99391 0.18627 0.19163 0.0
H361 H 0.95504 0.20179 0.26967 0.0
H362 H 0.9169 0.22461 0.25429 0.0
H363 H 0.88564 0.24217 0.9592 0.0
H364 H 0.91953 0.21998 0.8781 0.0
C365 C 0.9601 0.20019 -0.02482 0.0
C366 C 0.981 0.19251 0.03704 0.0
C367 C 0.93818 0.21013 0.0198 0.0
C368 C 0.97839 0.19261 0.14294 0.0
C369 C 0.95614 0.20141 0.18749 0.0
C370 C 0.91685 0.22321 0.17207 0.0
C371 C 0.89875 0.23531 0.113 0.0
C372 C 0.93665 0.21109 0.12677 0.0
C373 C 0.89941 0.23325 0.00659 0.0
C374 C 0.91884 0.22059 0.96029 0.0
H375 H 0.93469 0.58183 0.65972 0.0
H376 H 0.95163 0.55505 0.35978 0.0
H377 H 0.99798 0.54725 0.42697 0.0
H378 H 0.03603 0.55217 0.57075 0.0
H379 H 0.01714 0.57926 0.86825 0.0
H380 H 0.96878 0.58219 0.80214 0.0
C381 C 0.94854 0.57447 0.60831 0.0
C382 C 0.94012 0.56983 0.50423 0.0
C383 C 0.97469 0.56982 0.64742 0.0
C384 C 0.95785 0.55927 0.43993 0.0
C385 C 0.98429 0.55474 0.47846 0.0
C386 C 0.0209 0.55802 0.62131 0.0
C387 C 0.03038 0.56577 0.72432 0.0
C388 C 0.99322 0.56039 0.5821 0.0
C389 C 1.0106 0.57347 0.78871 0.0
C390 C 0.983 0.57532 0.75088 0.0
H391 H 0.47165 0.48955 0.46946 0.0
H392 H 0.47366 0.46514 0.7859 0.0
H393 H 0.48703 0.42024 0.73998 0.0
H394 H 0.49288 0.38491 0.61122 0.0
H395 H 0.48985 0.40676 0.29329 0.0
H396 H 0.48319 0.45654 0.33817 0.0
C397 C 0.4756 0.47468 0.52805 0.0
C398 C 0.47179 0.48054 0.63097 0.0
C399 C 0.48294 0.44855 0.50082 0.0
C400 C 0.47654 0.46101 0.7064 0.0
C401 C 0.48416 0.43539 0.68018 0.0
C402 C 0.49093 0.40064 0.55144 0.0
C403 C 0.49108 0.39184 0.4491 0.0
C404 C 0.48656 0.42845 0.5778 0.0
C405 C 0.48953 0.41295 0.3726 0.0
C406 C 0.48548 0.44119 0.39836 0.0
H407 H 0.6072 0.98073 0.50012 0.0
H408 H 0.52437 0.99978 0.45177 0.0
H409 H 0.56004 0.05448 0.37641 0.0
H410 H 0.61628 0.09977 0.34692 0.0
H411 H 0.69894 0.08138 0.41258 0.0
H412 H 0.66215 0.02336 0.45675 0.0
C413 C 0.59697 0.99655 0.47009 0.0
C414 C 0.56354 0.98675 0.48108 0.0
C415 C 0.61777 0.02818 0.43109 0.0
C416 C 0.55025 0.00732 0.44425 0.0
C417 C 0.57063 0.03849 0.40152 0.0
C418 C 0.62601 0.08272 0.36893 0.0
C419 C 0.66007 0.09457 0.37738 0.0
C420 C 0.60466 0.04971 0.39809 0.0
C421 C 0.6727 0.07263 0.40675 0.0
C422 C 0.65172 0.03954 0.43188 0.0
H423 H 0.48609 0.08647 0.45076 0.0
H424 H 0.38076 0.04043 0.4184 0.0
H425 H 0.37599 0.99016 0.50347 0.0
H426 H 0.40094 0.96089 0.59814 0.0
H427 H 0.50593 1.00482 0.63257 0.0
H428 H 0.51182 0.0544 0.53668 0.0
C429 C 0.46226 0.06502 0.46004 0.0
C430 C 0.43378 0.06704 0.42799 0.0
C431 C 0.4596 0.03623 0.51162 0.0
C432 C 0.40297 0.03937 0.44216 0.0
C433 C 0.4002 0.01073 0.49156 0.0
C434 C 0.42514 0.98146 0.58536 0.0
C435 C 0.45295 0.97959 0.62372 0.0
C436 C 0.42821 0.00928 0.52907 0.0
C437 C 0.48417 0.00593 0.60431 0.0
C438 C 0.48749 0.03417 0.5493 0.0
H439 H 0.99517 0.47203 0.53873 0.0
H440 H 0.06835 0.45189 0.39527 0.0
H441 H 0.02846 0.41699 0.26835 0.0
H442 H 0.97063 0.38326 0.21962 0.0
H443 H 0.89701 0.40286 0.35934 0.0
H444 H 0.93905 0.44751 0.46294 0.0
C445 C 1.00244 0.46044 0.47863 0.0
C446 C 0.03451 0.46392 0.47847 0.0
C447 C 0.97925 0.44032 0.40448 0.0
C448 C 0.04375 0.44934 0.39854 0.0
C449 C 0.02092 0.42929 0.32547 0.0
C450 C 0.96411 0.39864 0.26851 0.0
C451 C 0.93093 0.39007 0.28128 0.0
C452 C 0.9883 0.42345 0.33023 0.0
C453 C 0.92255 0.40953 0.34681 0.0
C454 C 0.94654 0.43458 0.40777 0.0
H455 H 0.53761 0.52257 0.52936 0.0
H456 H 0.57209 0.60135 0.30684 0.0
H457 H 0.61069 0.58208 0.24413 0.0
H458 H 0.64232 0.55083 0.28256 0.0
H459 H 0.60661 0.4726 0.50713 0.0
H460 H 0.55924 0.48234 0.53633 0.0
C461 C 0.5522 0.53434 0.46342 0.0
C462 C 0.55227 0.56332 0.42315 0.0
C463 C 0.57416 0.52327 0.429 0.0
C464 C 0.5718 0.57898 0.33911 0.0
C465 C 0.594 0.56812 0.30394 0.0
C466 C 0.62328 0.53507 0.33434 0.0
C467 C 0.62756 0.51122 0.39326 0.0
C468 C 0.59663 0.54148 0.35247 0.0
C469 C 0.60335 0.49098 0.46117 0.0
C470 C 0.57654 0.49674 0.47837 0.0
H471 H 0.59615 0.90602 0.94194 0.0
H472 H 0.61861 0.87644 0.65404 0.0
H473 H 0.66355 0.86912 0.73575 0.0
H474 H 0.69934 0.87611 0.88847 0.0
H475 H 0.67464 0.90583 0.17329 0.0
H476 H 0.62739 0.90758 0.09339 0.0
C477 C 0.61087 0.89806 0.89643 0.0
C478 C 0.60452 0.89262 0.79139 0.0
C479 C 0.63623 0.89378 0.94377 0.0
C480 C 0.62324 0.88125 0.73475 0.0
C481 C 0.64891 0.87706 0.78157 0.0
C482 C 0.68318 0.88225 0.93329 0.0
C483 C 0.6908 0.89119 0.03678 0.0
C484 C 0.65603 0.88385 0.88601 0.0
C485 C 0.66962 0.89919 0.09358 0.0
C486 C 0.64262 0.90034 0.04784 0.0
H487 H 0.14391 0.71274 -0.00598 0.0
H488 H 0.15653 0.74378 0.68035 0.0
H489 H 0.14799 0.79236 0.72532 0.0
H490 H 0.13305 0.82325 0.85313 0.0
H491 H 0.12041 0.79064 0.16546 0.0
H492 H 0.13237 0.74465 0.12099 0.0
C493 C 0.14475 0.73004 0.93499 0.0
C494 C 0.15016 0.72436 0.83357 0.0
C495 C 0.13954 0.7573 0.96117 0.0
C496 C 0.15214 0.74753 0.75877 0.0
C497 C 0.14706 0.77509 0.78443 0.0
C498 C 0.13329 0.80624 0.91149 0.0
C499 C 0.12607 0.81031 0.0126 0.0
C500 C 0.14013 0.77981 0.8852 0.0
C501 C 0.12598 0.78796 0.08734 0.0
C502 C 0.13285 0.76176 0.06198 0.0
H503 H 0.24269 0.31546 0.78494 0.0
H504 H 0.19285 0.36267 0.94233 0.0
H505 H 0.22691 0.41572 0.85875 0.0
H506 H 0.27726 0.45076 0.76601 0.0
H507 H 0.33119 0.40505 0.62619 0.0
H508 H 0.28934 0.34935 0.6771 0.0
C509 C 0.2387 0.33713 0.79873 0.0
C510 C 0.21541 0.33522 0.86994 0.0
C511 C 0.25961 0.36799 0.75481 0.0
C512 C 0.21066 0.36355 0.88783 0.0
C513 C 0.2303 0.39397 0.84069 0.0
C514 C 0.27916 0.42837 0.74451 0.0
C515 C 0.30677 0.43148 0.69233 0.0
C516 C 0.25582 0.39682 0.77782 0.0
C517 C 0.30977 0.4028 0.6659 0.0
C518 C 0.286 0.37112 0.69542 0.0
H519 H 0.13009 0.31395 0.88439 0.0
H520 H 0.09144 0.33213 0.16159 0.0
H521 H 0.09262 0.38256 0.08889 0.0
H522 H 0.10028 0.41872 0.94508 0.0
H523 H 0.13823 0.40259 0.66409 0.0
H524 H 0.14221 0.35428 0.74043 0.0
C525 C 0.1225 0.32933 0.92932 0.0
C526 C 0.11051 0.31916 0.02839 0.0
C527 C 0.12276 0.35832 0.88611 0.0
C528 C 0.10056 0.33922 0.08528 0.0
C529 C 0.10116 0.36804 0.04366 0.0
C530 C 0.10932 0.40465 0.89963 0.0
C531 C 0.11812 0.41376 0.79791 0.0
C532 C 0.11138 0.37727 0.94362 0.0
C533 C 0.13087 0.39587 0.74201 0.0
C534 C 0.13307 0.36825 0.78573 0.0
H535 H 0.65597 0.79645 0.89469 0.0
H536 H 0.72973 0.78072 0.73757 0.0
H537 H 0.68913 0.74552 0.61237 0.0
H538 H 0.63092 0.71041 0.56775 0.0
H539 H 0.55709 0.72679 0.71952 0.0
H540 H 0.59928 0.77101 0.82404 0.0
C541 C 0.66323 0.78582 0.83195 0.0
C542 C 0.69568 0.79045 0.82766 0.0
C543 C 0.63967 0.76563 0.75883 0.0
C544 C 0.70486 0.77722 0.74414 0.0
C545 C 0.68161 0.75694 0.6722 0.0
C546 C 0.62432 0.72492 0.62 0.0
C547 C 0.59109 0.71568 0.63535 0.0
C548 C 0.64869 0.74978 0.68131 0.0
C549 C 0.58264 0.734 0.70506 0.0
C550 C 0.60674 0.75886 0.76621 0.0
H551 H 0.27873 0.8241 0.78819 0.0
H552 H 0.31427 0.89156 0.53525 0.0
H553 H 0.26974 0.907 0.55528 0.0
H554 H 0.22792 0.90938 0.66807 0.0
H555 H 0.1989 0.84635 0.93352 0.0
H556 H 0.23196 0.81984 0.88298 0.0
C557 C 0.27585 0.84122 0.73533 0.0
C558 C 0.2993 0.85667 0.66054 0.0
C559 C 0.25118 0.85079 0.75 0.0
C560 C 0.29602 0.8792 0.59281 0.0
C561 C 0.2708 0.88822 0.60499 0.0
C562 C 0.22801 0.88902 0.71245 0.0
C563 C 0.21059 0.87956 0.80374 0.0
C564 C 0.24919 0.8754 0.68666 0.0
C565 C 0.21146 0.85362 0.86184 0.0
C566 C 0.23084 0.83875 0.83391 0.0
H567 H 0.07072 1.00188 0.95134 0.0
H568 H 0.16411 0.01894 0.0789 0.0
H569 H 0.17384 0.07374 0.14254 0.0
H570 H 0.15958 0.11984 0.13882 0.0
H571 H 0.0671 0.10444 0.00874 0.0
H572 H 0.05241 0.04575 0.97285 0.0
C573 C 0.0927 0.01745 -0.00487 0.0
C574 C 0.11697 0.00711 0.00958 0.0
C575 C 0.09819 0.04912 0.03129 0.0
C576 C 0.14544 0.02705 0.06629 0.0
C577 C 0.15098 0.05824 0.10273 0.0
C578 C 0.13582 0.10324 0.10558 0.0
C579 C 0.11433 0.11608 0.07719 0.0
C580 C 0.1281 0.07002 0.08243 0.0
C581 C 0.08366 0.0947 0.03344 0.0
C582 C 0.07551 0.06131 0.01124 0.0
H583 H 0.97977 0.11854 0.33956 0.0
H584 H 0.0345 0.07419 0.19597 0.0
H585 H 0.98981 0.01834 0.22381 0.0
H586 H 0.93021 0.98503 0.24045 0.0
H587 H 0.87462 0.029 0.37946 0.0
H588 H 0.9245 0.08163 0.40461 0.0
C589 C 0.98257 0.0966 0.31904 0.0
C590 C 1.00997 0.1005 0.26299 0.0
C591 C 0.95613 0.0644 0.33206 0.0
C592 C 0.01332 0.07182 0.23727 0.0
C593 C 0.9876 0.03982 0.25233 0.0
C594 C 0.92931 1.00554 0.28096 0.0
C595 C 0.89873 1.00332 0.30594 0.0
C596 C 0.958 0.03606 0.29231 0.0
C597 C 0.89786 0.03003 0.35923 0.0
C598 C 0.92639 0.06042 0.37218 0.0
H599 H 0.9176 0.94301 0.09789 0.0
H600 H 0.8723 0.85103 0.26684 0.0
H601 H 0.92613 0.85657 0.31605 0.0
H602 H 0.98418 0.87991 0.27459 0.0
H603 H 0.02874 0.96817 0.08882 0.0
H604 H 0.97796 0.97317 0.08721 0.0
C605 C 0.91976 0.92505 0.1488 0.0
C606 C 0.8914 0.89673 0.1791 0.0
C607 C 0.95084 0.92785 0.17366 0.0
C608 C 0.89407 0.87305 0.24317 0.0
C609 C 0.92481 0.8762 0.27104 0.0
C610 C 0.98331 0.90135 0.23898 0.0
C611 C 1.0099 0.9234 0.18087 0.0
C612 C 0.95327 0.9025 0.23212 0.0
C613 C 1.00847 0.9509 0.13396 0.0
C614 C 0.97919 0.95334 0.13134 0.0
H615 H 0.78048 0.33601 0.45108 0.0
H616 H 0.7558 0.33741 0.13458 0.0
H617 H 0.75114 0.38892 0.16125 0.0
H618 H 0.76581 0.43894 0.26513 0.0
H619 H 0.79658 0.44147 0.57675 0.0
H620 H 0.78695 0.38298 0.56304 0.0
C621 C 0.77281 0.34701 0.38928 0.0
C622 C 0.76844 0.33325 0.29109 0.0
C623 C 0.77207 0.37767 0.4042 0.0
C624 C 0.75916 0.34777 0.21065 0.0
C625 C 0.75679 0.3773 0.22576 0.0
C626 C 0.76938 0.42617 0.33071 0.0
C627 C 0.78189 0.44399 0.42152 0.0
C628 C 0.76498 0.39334 0.3207 0.0
C629 C 0.78679 0.42782 0.50636 0.0
C630 C 0.7815 0.39458 0.49812 0.0
H631 H 0.69007 0.3971 0.56268 0.0
H632 H 0.65858 0.46199 0.71584 0.0
H633 H 0.60511 0.41478 0.74476 0.0
H634 H 0.56345 0.36 0.67825 0.0
H635 H 0.59493 0.29545 0.5269 0.0
H636 H 0.65212 0.3368 0.5477 0.0
C637 C 0.67205 0.4006 0.60664 0.0
C638 C 0.67791 0.43321 0.63336 0.0
C639 C 0.64092 0.37339 0.62115 0.0
C640 C 0.65461 0.43726 0.69248 0.0
C641 C 0.62371 0.41025 0.70815 0.0
C642 C 0.58291 0.35427 0.65502 0.0
C643 C 0.57511 0.32522 0.59719 0.0
C644 C 0.61585 0.3788 0.66572 0.0
C645 C 0.6005 0.31808 0.56799 0.0
C646 C 0.63323 0.34189 0.5798 0.0
H647 H 0.56119 0.20318 0.55684 0.0
H648 H 0.57884 0.26981 0.30301 0.0
H649 H 0.63765 0.28725 0.31573 0.0
H650 H 0.68164 0.27567 0.37779 0.0
H651 H 0.66348 0.20382 0.6169 0.0
H652 H 0.60815 0.19801 0.63679 0.0
C653 C 0.5782 0.22213 0.50645 0.0
C654 C 0.56611 0.23554 0.42972 0.0
C655 C 0.61195 0.23132 0.51252 0.0
C656 C 0.58792 0.25948 0.36288 0.0
C657 C 0.62146 0.26944 0.37028 0.0
C658 C 0.66598 0.25975 0.43707 0.0
C659 C 0.67634 0.23971 0.49433 0.0
C660 C 0.63353 0.25459 0.44223 0.0
C661 C 0.6561 0.21951 0.57175 0.0
C662 C 0.62415 0.21562 0.58149 0.0
H663 H 0.41633 0.76065 0.59057 0.0
H664 H 0.47119 0.78125 0.87191 0.0
H665 H 0.46161 0.72286 0.88051 0.0
H666 H 0.44967 0.67132 0.7853 0.0
H667 H 0.40193 0.65439 0.49191 0.0
H668 H 0.39536 0.7052 0.51107 0.0
C669 C 0.42498 0.75177 0.65548 0.0
C670 C 0.44437 0.77459 0.73043 0.0
C671 C 0.42082 0.71888 0.65667 0.0
C672 C 0.45605 0.76362 0.81396 0.0
C673 C 0.45078 0.73042 0.81827 0.0
C674 C 0.43658 0.67817 0.72803 0.0
C675 C 0.42629 0.65966 0.63748 0.0
C676 C 0.43492 0.70848 0.73693 0.0
C677 C 0.40986 0.66858 0.56222 0.0
C678 C 0.40643 0.6977 0.57282 0.0
H679 H 0.27148 0.65176 0.88648 0.0
H680 H 0.22253 0.69861 0.04821 0.0
H681 H 0.27391 0.75034 0.06377 0.0
H682 H 0.32702 0.78595 -0.01688 0.0
H683 H 0.37415 0.73914 0.81059 0.0
H684 H 0.33003 0.68388 0.84941 0.0
C685 C 0.2725 0.67275 0.92946 0.0
C686 C 0.24318 0.67168 0.96357 0.0
C687 C 0.30183 0.7029 0.93354 0.0
C688 C 0.24477 0.69881 0.02083 0.0
C689 C 0.27411 0.7287 0.02802 0.0
C690 C 0.32843 0.7636 0.9584 0.0
C691 C 0.35336 0.76664 0.89181 0.0
C692 C 0.30209 0.73177 -0.02251 0.0
C693 C 0.35491 0.73745 0.86048 0.0
C694 C 0.32949 0.70579 0.88197 0.0
H695 H 0.35035 0.61604 0.7293 0.0
H696 H 0.32859 0.53779 0.94997 0.0
H697 H 0.27511 0.53528 -0.02091 0.0
H698 H 0.22975 0.54397 0.90483 0.0
H699 H 0.25051 0.61887 0.67391 0.0
H700 H 0.30895 0.63405 0.68468 0.0
C701 C 0.33443 0.5995 0.78702 0.0
C702 C 0.3428 0.57634 0.83481 0.0
C703 C 0.30301 0.59678 0.79856 0.0
C704 C 0.3225 0.55558 0.91119 0.0
C705 C 0.2916 0.55369 0.92645 0.0
C706 C 0.24739 0.56437 0.8598 0.0
C707 C 0.2363 0.58025 0.78831 0.0
C708 C 0.28075 0.5723 0.86478 0.0
C709 C 0.25888 0.60644 0.72922 0.0
C710 C 0.29217 0.61501 0.73523 0.0
H711 H 0.1392 0.24627 0.75823 0.0
H712 H 0.09467 0.13996 0.6945 0.0
H713 H 0.09083 0.15097 0.5139 0.0
H714 H 0.0976 0.1905 0.3785 0.0
H715 H 0.14203 0.29669 0.44275 0.0
H716 H 0.14598 0.2857 0.62331 0.0
C717 C 0.12956 0.22551 0.70457 0.0
C718 C 0.11739 0.19235 0.73872 0.0
C719 C 0.12561 0.23185 0.60323 0.0
C720 C 0.1045 0.16569 0.66886 0.0
C721 C 0.10163 0.17191 0.56656 0.0
C722 C 0.10714 0.21116 0.43253 0.0
C723 C 0.11915 0.24429 0.39872 0.0
C724 C 0.11112 0.20479 0.5339 0.0
C725 C 0.1322 0.27097 0.46844 0.0
C726 C 0.13514 0.26475 0.57065 0.0
H727 H 0.7613 0.83448 0.46619 0.0
H728 H 0.75245 0.92369 0.39318 0.0
H729 H 0.77488 0.94741 0.5606 0.0
H730 H 0.80122 0.94448 0.72049 0.0
H731 H 0.81222 0.85617 0.79099 0.0
H732 H 0.78565 0.83057 0.62946 0.0
C733 C 0.76315 0.85854 0.48879 0.0
C734 C 0.75493 0.87726 0.4191 0.0
C735 C 0.77774 0.87266 0.58227 0.0
C736 C 0.75828 0.90883 0.44699 0.0
C737 C 0.77161 0.92256 0.54163 0.0
C738 C 0.79849 0.91996 0.6994 0.0
C739 C 0.80917 0.90243 0.76622 0.0
C740 C 0.78256 0.9052 0.60807 0.0
C741 C 0.80455 0.87024 0.73973 0.0
C742 C 0.78902 0.85548 0.64822 0.0
H743 H 0.13361 0.8956 0.68624 0.0
H744 H 0.04934 0.91164 0.62122 0.0
H745 H 0.06102 0.91485 0.43956 0.0
H746 H 0.09552 0.91402 0.30503 0.0
H747 H 0.18011 0.89835 0.36923 0.0
H748 H 0.16816 0.89454 0.5509 0.0
C749 C 0.1183 0.90062 0.63249 0.0
C750 C 0.09124 0.90419 0.66518 0.0
C751 C 0.125 0.90214 0.53042 0.0
C752 C 0.07051 0.90919 0.59593 0.0
C753 C 0.0771 0.91092 0.49313 0.0
C754 C 0.11096 0.90903 0.35836 0.0
C755 C 0.13824 0.90588 0.32537 0.0
C756 C 0.1042 0.9073 0.46029 0.0
C757 C 0.15886 0.90062 0.39453 0.0
C758 C 0.15211 0.89855 0.4974 0.0
H759 H 0.83953 0.57797 0.80933 0.0
H760 H 0.74064 0.55843 0.73104 0.0
H761 H 0.72122 0.52882 0.89163 0.0
H762 H 0.73291 0.50886 0.05151 0.0
H763 H 0.83198 0.52923 0.12964 0.0
H764 H 0.85086 0.55646 0.96566 0.0
C765 C 0.81386 0.56808 0.82858 0.0
C766 C 0.79147 0.57061 0.76006 0.0
C767 C 0.80288 0.54993 0.9174 0.0
C768 C 0.75819 0.55697 0.78409 0.0
C769 C 0.74709 0.5396 0.87449 0.0
C770 C 0.75842 0.51817 0.03094 0.0
C771 C 0.78121 0.51723 0.10106 0.0
C772 C 0.76918 0.53541 0.94036 0.0
C773 C 0.81423 0.52975 0.07544 0.0
C774 C 0.82503 0.54583 -0.01681 0.0
H775 H 0.47379 0.2809 0.01293 0.0
H776 H 0.48175 0.19094 0.08388 0.0
H777 H 0.45496 0.16585 0.92222 0.0
H778 H 0.43113 0.17052 0.759 0.0
H779 H 0.42533 0.26128 0.68522 0.0
H780 H 0.44814 0.28474 0.85261 0.0
C781 C 0.47037 0.25612 -0.00816 0.0
C782 C 0.48018 0.23795 0.05884 0.0
C783 C 0.4543 0.24167 0.90044 0.0
C784 C 0.47471 0.20548 0.03244 0.0
C785 C 0.45906 0.191 0.94088 0.0
C786 C 0.43372 0.19489 0.78148 0.0
C787 C 0.42625 0.21411 0.71173 0.0
C788 C 0.44853 0.20879 0.87484 0.0
C789 C 0.43058 0.24606 0.73924 0.0
C790 C 0.44413 0.25962 0.83381 0.0
H791 H 0.76566 0.23056 0.61858 0.0
H792 H 0.86831 0.2633 0.68775 0.0
H793 H 0.85818 0.2675 0.86686 0.0
H794 H 0.82047 0.26096 -0.00074 0.0
H795 H 0.71772 0.22744 0.93117 0.0
H796 H 0.72818 0.22589 0.7506 0.0
C797 C 0.78579 0.23798 0.67252 0.0
C798 C 0.81759 0.24657 0.64058 0.0
C799 C 0.78001 0.24098 0.77346 0.0
C800 C 0.84351 0.25637 0.71132 0.0
C801 C 0.83786 0.25907 0.81305 0.0
C802 C 0.80039 0.25391 0.94541 0.0
C803 C 0.76842 0.24392 -0.02214 0.0
C804 C 0.80628 0.25172 0.84413 0.0
C805 C 0.74258 0.23496 0.90713 0.0
C806 C 0.74843 0.23367 0.80467 0.0
H807 H 0.48088 0.90536 0.38475 0.0
H808 H 0.41505 0.80172 0.31504 0.0
H809 H 0.41562 0.81561 0.13502 0.0
H810 H 0.43271 0.85737 0.00202 0.0
H811 H 0.49876 0.96105 0.07077 0.0
H812 H 0.4984 0.9472 0.25091 0.0
C813 C 0.46749 0.88559 0.32981 0.0
C814 C 0.44821 0.85251 0.36205 0.0
C815 C 0.46656 0.89405 0.22849 0.0
C816 C 0.43037 0.82725 0.29082 0.0
C817 C 0.43017 0.8353 0.18881 0.0
C818 C 0.44628 0.8772 0.0566 0.0
C819 C 0.46543 0.91026 0.02402 0.0
C820 C 0.44738 0.86876 0.15775 0.0
C821 C 0.4835 0.93552 0.09509 0.0
C822 C 0.48382 0.9275 0.19721 0.0
H823 H 0.10591 0.54447 0.44427 0.0
H824 H 0.2021 0.62377 0.37698 0.0
H825 H 0.18916 0.6154 0.1951 0.0
H826 H 0.15083 0.58654 0.06029 0.0
H827 H 0.05458 0.50625 0.12322 0.0
H828 H 0.06708 0.51474 0.30603 0.0
C829 C 0.12441 0.55909 0.38963 0.0
C830 C 0.1552 0.58407 0.42264 0.0
C831 C 0.11648 0.55464 0.28648 0.0
C832 C 0.1785 0.60409 0.35212 0.0
C833 C 0.17099 0.59951 0.24892 0.0
C834 C 0.13214 0.57112 0.1133 0.0
C835 C 0.10158 0.54612 0.07851 0.0
C836 C 0.13994 0.57522 0.21599 0.0
C837 C 0.07814 0.52586 0.14862 0.0
C838 C 0.08544 0.53042 0.25253 0.0
H839 H 0.47515 0.57254 0.32744 0.0
H840 H 0.38393 0.57466 0.25609 0.0
H841 H 0.393 0.571 0.07495 0.0
H842 H 0.42666 0.56737 0.94247 0.0
H843 H 0.5186 0.5666 0.01245 0.0
H844 H 0.50898 0.5689 0.19402 0.0
C845 C 0.45775 0.57329 0.27239 0.0
C846 C 0.42932 0.57456 0.30366 0.0
C847 C 0.46276 0.57043 0.17052 0.0
C848 C 0.40619 0.57411 0.23236 0.0
C849 C 0.41118 0.57167 0.12974 0.0
C850 C 0.44424 0.56677 -0.00299 0.0
C851 C 0.47306 0.56646 0.96515 0.0
C852 C 0.43917 0.56938 0.09883 0.0
C853 C 0.49612 0.56662 0.03637 0.0
C854 C 0.49082 0.56831 0.1393 0.0
loop_
_geom_bond_atom_site_label_1
_geom_bond_atom_site_label_2
_geom_bond_distance
_geom_bond_site_symmetry_2
_ccdc_geom_bond_type
C0 O12 1.241 . S
C0 O13 1.280 1_554 S
C1 O14 1.277 . S
C1 O15 1.245 . S
C2 O26 1.247 . S
C2 O28 1.289 . S
Mg3 O4 1.926 1_556 S
Mg3 O13 1.984 . S
Mg3 O15 1.988 1_556 S
Mg3 O16 2.061 . S
O4 Mg3 1.926 1_554 S
O4 Mg5 1.986 . S
O4 Mg6 1.917 . S
Mg5 O4 1.986 . S
Mg5 O12 2.042 . S
Mg5 O14 2.041 . S
Mg5 O20 2.038 . S
Mg5 O28 2.238 . S
Mg6 O4 1.917 . S
Mg6 O7 1.917 . S
Mg6 O17 2.106 1_554 S
Mg6 O19 2.079 . S
Mg6 O28 2.106 . S
Mg6 O29 2.079 . S
O7 Mg6 1.917 . S
O7 Mg8 1.926 . S
O7 Mg9 1.986 1_554 S
Mg8 O7 1.926 . S
Mg8 O22 1.984 . S
Mg8 O25 1.988 . S
Mg8 O26 2.061 . S
Mg9 O7 1.986 1_556 S
Mg9 O17 2.238 . S
Mg9 O21 2.042 1_556 S
Mg9 O23 2.041 . S
Mg9 O30 2.038 . S
C10 O16 1.247 . S
C10 O17 1.289 . S
C11 O29 1.245 . S
C11 O30 1.274 1_554 S
O12 C0 1.241 . S
O12 Mg5 2.042 . S
O13 C0 1.280 1_556 S
O13 Mg3 1.984 . S
O14 C1 1.277 . S
O14 Mg5 2.041 . S
O15 C1 1.245 . S
O15 Mg3 1.988 1_554 S
O16 Mg3 2.061 . S
O16 C10 1.247 . S
O17 Mg6 2.106 1_556 S
O17 Mg9 2.238 . S
O17 C10 1.289 . S
C18 O19 1.245 . S
C18 O20 1.274 . S
O19 Mg6 2.079 . S
O19 C18 1.245 . S
O20 Mg5 2.038 . S
O20 C18 1.274 . S
O21 Mg9 2.042 1_554 S
O21 C24 1.241 . S
O22 Mg8 1.984 . S
O22 C24 1.280 . S
O23 Mg9 2.041 . S
O23 C27 1.277 . S
C24 O21 1.241 . S
C24 O22 1.280 . S
O25 Mg8 1.988 . S
O25 C27 1.245 1_554 S
O26 C2 1.247 . S
O26 Mg8 2.061 . S
C27 O23 1.277 . S
C27 O25 1.245 1_556 S
O28 C2 1.289 . S
O28 Mg5 2.238 . S
O28 Mg6 2.106 . S
O29 Mg6 2.079 . S
O29 C11 1.245 . S
O30 Mg9 2.038 . S
O30 C11 1.274 1_556 S
C31 O43 1.241 . S
C31 O44 1.280 . S
C32 O45 1.277 1_554 S
C32 O46 1.245 . S
C33 O57 1.247 . S
C33 O59 1.289 . S
Mg34 O35 1.926 . S
Mg34 O44 1.984 . S
Mg34 O46 1.988 . S
Mg34 O47 2.061 . S
O35 Mg34 1.926 . S
O35 Mg36 1.986 . S
O35 Mg37 1.917 . S
Mg36 O35 1.986 . S
Mg36 O43 2.042 . S
Mg36 O45 2.041 1_554 S
Mg36 O51 2.038 . S
Mg36 O59 2.238 1_554 S
Mg37 O35 1.917 . S
Mg37 O38 1.917 . S
Mg37 O48 2.106 . S
Mg37 O50 2.079 . S
Mg37 O59 2.106 1_554 S
Mg37 O60 2.079 . S
O38 Mg37 1.917 . S
O38 Mg39 1.926 . S
O38 Mg40 1.986 . S
Mg39 O38 1.926 . S
Mg39 O53 1.984 . S
Mg39 O56 1.988 . S
Mg39 O57 2.061 1_554 S
Mg40 O38 1.986 . S
Mg40 O48 2.238 . S
Mg40 O52 2.042 . S
Mg40 O54 2.041 . S
Mg40 O61 2.038 . S
C41 O47 1.247 . S
C41 O48 1.289 . S
C42 O60 1.245 . S
C42 O61 1.274 . S
O43 C31 1.241 . S
O43 Mg36 2.042 . S
O44 C31 1.280 . S
O44 Mg34 1.984 . S
O45 C32 1.277 1_556 S
O45 Mg36 2.041 1_556 S
O46 C32 1.245 . S
O46 Mg34 1.988 . S
O47 Mg34 2.061 . S
O47 C41 1.247 . S
O48 Mg37 2.106 . S
O48 Mg40 2.238 . S
O48 C41 1.289 . S
C49 O50 1.245 . S
C49 O51 1.274 . S
O50 Mg37 2.079 . S
O50 C49 1.245 . S
O51 Mg36 2.038 . S
O51 C49 1.274 . S
O52 Mg40 2.042 . S
O52 C55 1.241 . S
O53 Mg39 1.984 . S
O53 C55 1.280 . S
O54 Mg40 2.041 . S
O54 C58 1.277 . S
C55 O52 1.241 . S
C55 O53 1.280 . S
O56 Mg39 1.988 . S
O56 C58 1.245 . S
O57 C33 1.247 . S
O57 Mg39 2.061 1_556 S
C58 O54 1.277 . S
C58 O56 1.245 . S
O59 C33 1.289 . S
O59 Mg36 2.238 1_556 S
O59 Mg37 2.106 1_556 S
O60 Mg37 2.079 . S
O60 C42 1.245 . S
O61 Mg40 2.038 . S
O61 C42 1.274 . S
C62 O74 1.241 1_554 S
C62 O75 1.280 . S
C63 O76 1.277 . S
C63 O77 1.245 1_556 S
C64 O88 1.247 . S
C64 O90 1.289 . S
Mg65 O66 1.926 . S
Mg65 O75 1.984 . S
Mg65 O77 1.988 . S
Mg65 O78 2.061 . S
O66 Mg65 1.926 . S
O66 Mg67 1.986 1_554 S
O66 Mg68 1.917 . S
Mg67 O66 1.986 1_556 S
Mg67 O74 2.042 . S
Mg67 O76 2.041 . S
Mg67 O82 2.038 . S
Mg67 O90 2.238 . S
Mg68 O66 1.917 . S
Mg68 O69 1.917 1_554 S
Mg68 O79 2.106 . S
Mg68 O81 2.079 . S
Mg68 O90 2.106 1_554 S
Mg68 O91 2.079 1_554 S
O69 Mg68 1.917 1_556 S
O69 Mg70 1.926 . S
O69 Mg71 1.986 1_556 S
Mg70 O69 1.926 . S
Mg70 O84 1.984 . S
Mg70 O87 1.988 . S
Mg70 O88 2.061 . S
Mg71 O69 1.986 1_554 S
Mg71 O79 2.238 . S
Mg71 O83 2.042 . S
Mg71 O85 2.041 . S
Mg71 O92 2.038 . S
C72 O78 1.247 . S
C72 O79 1.289 . S
C73 O91 1.245 1_554 S
C73 O92 1.274 . S
O74 C62 1.241 1_556 S
O74 Mg67 2.042 . S
O75 C62 1.280 . S
O75 Mg65 1.984 . S
O76 C63 1.277 . S
O76 Mg67 2.041 . S
O77 C63 1.245 1_554 S
O77 Mg65 1.988 . S
O78 Mg65 2.061 . S
O78 C72 1.247 . S
O79 Mg68 2.106 . S
O79 Mg71 2.238 . S
O79 C72 1.289 . S
C80 O81 1.245 1_556 S
C80 O82 1.274 . S
O81 Mg68 2.079 . S
O81 C80 1.245 1_554 S
O82 Mg67 2.038 . S
O82 C80 1.274 . S
O83 Mg71 2.042 . S
O83 C86 1.241 1_554 S
O84 Mg70 1.984 . S
O84 C86 1.280 . S
O85 Mg71 2.041 . S
O85 C89 1.277 . S
C86 O83 1.241 1_556 S
C86 O84 1.280 . S
O87 Mg70 1.988 . S
O87 C89 1.245 1_556 S
O88 C64 1.247 . S
O88 Mg70 2.061 . S
C89 O85 1.277 . S
C89 O87 1.245 1_554 S
O90 C64 1.289 . S
O90 Mg67 2.238 . S
O90 Mg68 2.106 1_556 S
O91 Mg68 2.079 1_556 S
O91 C73 1.245 1_556 S
O92 Mg71 2.038 . S
O92 C73 1.274 . S
C93 O105 1.241 . S
C93 O106 1.280 . S
C94 O107 1.277 . S
C94 O108 1.245 . S
C95 O119 1.247 . S
C95 O121 1.289 . S
Mg96 O97 1.926 . S
Mg96 O106 1.984 . S
Mg96 O108 1.988 . S
Mg96 O109 2.061 . S
O97 Mg96 1.926 . S
O97 Mg98 1.986 . S
O97 Mg99 1.917 . S
Mg98 O97 1.986 . S
Mg98 O105 2.042 . S
Mg98 O107 2.041 . S
Mg98 O113 2.038 . S
Mg98 O121 2.238 . S
Mg99 O97 1.917 . S
Mg99 O100 1.917 . S
Mg99 O110 2.106 . S
Mg99 O112 2.079 . S
Mg99 O121 2.106 . S
Mg99 O122 2.079 . S
O100 Mg99 1.917 . S
O100 Mg101 1.926 . S
O100 Mg102 1.986 . S
Mg101 O100 1.926 . S
Mg101 O115 1.984 . S
Mg101 O118 1.988 . S
Mg101 O119 2.061 . S
Mg102 O100 1.986 . S
Mg102 O110 2.238 . S
Mg102 O114 2.042 . S
Mg102 O116 2.041 . S
Mg102 O123 2.038 . S
C103 O109 1.247 . S
C103 O110 1.289 . S
C104 O122 1.245 . S
C104 O123 1.274 . S
O105 C93 1.241 . S
O105 Mg98 2.042 . S
O106 C93 1.280 . S
O106 Mg96 1.984 . S
O107 C94 1.277 . S
O107 Mg98 2.041 . S
O108 C94 1.245 . S
O108 Mg96 1.988 . S
O109 Mg96 2.061 . S
O109 C103 1.247 . S
O110 Mg99 2.106 . S
O110 Mg102 2.238 . S
O110 C103 1.289 . S
C111 O112 1.245 . S
C111 O113 1.274 . S
O112 Mg99 2.079 . S
O112 C111 1.245 . S
O113 Mg98 2.038 . S
O113 C111 1.274 . S
O114 Mg102 2.042 . S
O114 C117 1.241 . S
O115 Mg101 1.984 . S
O115 C117 1.280 . S
O116 Mg102 2.041 . S
O116 C120 1.277 . S
C117 O114 1.241 . S
C117 O115 1.280 . S
O118 Mg101 1.988 . S
O118 C120 1.245 . S
O119 C95 1.247 . S
O119 Mg101 2.061 . S
C120 O116 1.277 . S
C120 O118 1.245 . S
O121 C95 1.289 . S
O121 Mg98 2.238 . S
O121 Mg99 2.106 . S
O122 Mg99 2.079 . S
O122 C104 1.245 . S
O123 Mg102 2.038 . S
O123 C104 1.274 . S
C124 O136 1.241 . S
C124 O137 1.280 . S
C125 O138 1.277 . S
C125 O139 1.245 . S
C126 O150 1.247 . S
C126 O152 1.289 . S
Mg127 O128 1.926 . S
Mg127 O137 1.984 . S
Mg127 O139 1.988 . S
Mg127 O140 2.061 . S
O128 Mg127 1.926 . S
O128 Mg129 1.986 . S
O128 Mg130 1.917 . S
Mg129 O128 1.986 . S
Mg129 O136 2.042 . S
Mg129 O138 2.041 . S
Mg129 O144 2.038 . S
Mg129 O152 2.238 . S
Mg130 O128 1.917 . S
Mg130 O131 1.917 . S
Mg130 O141 2.106 . S
Mg130 O143 2.079 . S
Mg130 O152 2.106 . S
Mg130 O153 2.079 . S
O131 Mg130 1.917 . S
O131 Mg132 1.926 . S
O131 Mg133 1.986 . S
Mg132 O131 1.926 . S
Mg132 O146 1.984 . S
Mg132 O149 1.988 . S
Mg132 O150 2.061 . S
Mg133 O131 1.986 . S
Mg133 O141 2.238 . S
Mg133 O145 2.042 . S
Mg133 O147 2.041 . S
Mg133 O154 2.038 . S
C134 O140 1.247 . S
C134 O141 1.289 . S
C135 O153 1.245 . S
C135 O154 1.274 . S
O136 C124 1.241 . S
O136 Mg129 2.042 . S
O137 C124 1.280 . S
O137 Mg127 1.984 . S
O138 C125 1.277 . S
O138 Mg129 2.041 . S
O139 C125 1.245 . S
O139 Mg127 1.988 . S
O140 Mg127 2.061 . S
O140 C134 1.247 . S
O141 Mg130 2.106 . S
O141 Mg133 2.238 . S
O141 C134 1.289 . S
C142 O143 1.245 . S
C142 O144 1.274 . S
O143 Mg130 2.079 . S
O143 C142 1.245 . S
O144 Mg129 2.038 . S
O144 C142 1.274 . S
O145 Mg133 2.042 . S
O145 C148 1.241 . S
O146 Mg132 1.984 . S
O146 C148 1.280 . S
O147 Mg133 2.041 . S
O147 C151 1.277 . S
C148 O145 1.241 . S
C148 O146 1.280 . S
O149 Mg132 1.988 . S
O149 C151 1.245 . S
O150 C126 1.247 . S
O150 Mg132 2.061 . S
C151 O147 1.277 . S
C151 O149 1.245 . S
O152 C126 1.289 . S
O152 Mg129 2.238 . S
O152 Mg130 2.106 . S
O153 Mg130 2.079 . S
O153 C135 1.245 . S
O154 Mg133 2.038 . S
O154 C135 1.274 . S
C155 O167 1.241 . S
C155 O168 1.280 . S
C156 O169 1.277 . S
C156 O170 1.245 . S
C157 O181 1.247 . S
C157 O183 1.289 . S
Mg158 O159 1.926 . S
Mg158 O168 1.984 . S
Mg158 O170 1.988 . S
Mg158 O171 2.061 . S
O159 Mg158 1.926 . S
O159 Mg160 1.986 . S
O159 Mg161 1.917 . S
Mg160 O159 1.986 . S
Mg160 O167 2.042 . S
Mg160 O169 2.041 . S
Mg160 O175 2.038 . S
Mg160 O183 2.238 . S
Mg161 O159 1.917 . S
Mg161 O162 1.917 . S
Mg161 O172 2.106 . S
Mg161 O174 2.079 . S
Mg161 O183 2.106 . S
Mg161 O184 2.079 . S
O162 Mg161 1.917 . S
O162 Mg163 1.926 . S
O162 Mg164 1.986 . S
Mg163 O162 1.926 . S
Mg163 O177 1.984 . S
Mg163 O180 1.988 . S
Mg163 O181 2.061 . S
Mg164 O162 1.986 . S
Mg164 O172 2.238 . S
Mg164 O176 2.042 . S
Mg164 O178 2.041 . S
Mg164 O185 2.038 . S
C165 O171 1.247 . S
C165 O172 1.289 . S
C166 O184 1.245 . S
C166 O185 1.274 . S
O167 C155 1.241 . S
O167 Mg160 2.042 . S
O168 C155 1.280 . S
O168 Mg158 1.984 . S
O169 C156 1.277 . S
O169 Mg160 2.041 . S
O170 C156 1.245 . S
O170 Mg158 1.988 . S
O171 Mg158 2.061 . S
O171 C165 1.247 . S
O172 Mg161 2.106 . S
O172 Mg164 2.238 . S
O172 C165 1.289 . S
C173 O174 1.245 . S
C173 O175 1.274 . S
O174 Mg161 2.079 . S
O174 C173 1.245 . S
O175 Mg160 2.038 . S
O175 C173 1.274 . S
O176 Mg164 2.042 . S
O176 C179 1.241 . S
O177 Mg163 1.984 . S
O177 C179 1.280 . S
O178 Mg164 2.041 . S
O178 C182 1.277 . S
C179 O176 1.241 . S
C179 O177 1.280 . S
O180 Mg163 1.988 . S
O180 C182 1.245 . S
O181 C157 1.247 . S
O181 Mg163 2.061 . S
C182 O178 1.277 . S
C182 O180 1.245 . S
O183 C157 1.289 . S
O183 Mg160 2.238 . S
O183 Mg161 2.106 . S
O184 Mg161 2.079 . S
O184 C166 1.245 . S
O185 Mg164 2.038 . S
O185 C166 1.274 . S
C186 O198 1.241 . S
C186 O199 1.280 . S
C187 O200 1.277 . S
C187 O201 1.245 . S
C188 O212 1.247 . S
C188 O214 1.289 . S
Mg189 O190 1.926 . S
Mg189 O199 1.984 . S
Mg189 O201 1.988 . S
Mg189 O202 2.061 . S
O190 Mg189 1.926 . S
O190 Mg191 1.986 . S
O190 Mg192 1.917 . S
Mg191 O190 1.986 . S
Mg191 O198 2.042 . S
Mg191 O200 2.041 . S
Mg191 O206 2.038 . S
Mg191 O214 2.238 . S
Mg192 O190 1.917 . S
Mg192 O193 1.917 . S
Mg192 O203 2.106 . S
Mg192 O205 2.079 . S
Mg192 O214 2.106 . S
Mg192 O215 2.079 . S
O193 Mg192 1.917 . S
O193 Mg194 1.926 . S
O193 Mg195 1.986 . S
Mg194 O193 1.926 . S
Mg194 O208 1.984 . S
Mg194 O211 1.988 . S
Mg194 O212 2.061 . S
Mg195 O193 1.986 . S
Mg195 O203 2.238 . S
Mg195 O207 2.042 . S
Mg195 O209 2.041 . S
Mg195 O216 2.038 . S
C196 O202 1.247 . S
C196 O203 1.289 . S
C197 O215 1.245 . S
C197 O216 1.274 . S
O198 C186 1.241 . S
O198 Mg191 2.042 . S
O199 C186 1.280 . S
O199 Mg189 1.984 . S
O200 C187 1.277 . S
O200 Mg191 2.041 . S
O201 C187 1.245 . S
O201 Mg189 1.988 . S
O202 Mg189 2.061 . S
O202 C196 1.247 . S
O203 Mg192 2.106 . S
O203 Mg195 2.238 . S
O203 C196 1.289 . S
C204 O205 1.245 . S
C204 O206 1.274 . S
O205 Mg192 2.079 . S
O205 C204 1.245 . S
O206 Mg191 2.038 . S
O206 C204 1.274 . S
O207 Mg195 2.042 . S
O207 C210 1.241 . S
O208 Mg194 1.984 . S
O208 C210 1.280 . S
O209 Mg195 2.041 . S
O209 C213 1.277 . S
C210 O207 1.241 . S
C210 O208 1.280 . S
O211 Mg194 1.988 . S
O211 C213 1.245 . S
O212 C188 1.247 . S
O212 Mg194 2.061 . S
C213 O209 1.277 . S
C213 O211 1.245 . S
O214 C188 1.289 . S
O214 Mg191 2.238 . S
O214 Mg192 2.106 . S
O215 Mg192 2.079 . S
O215 C197 1.245 . S
O216 Mg195 2.038 . S
O216 C197 1.274 . S
C217 O229 1.241 . S
C217 O230 1.280 . S
C218 O231 1.277 . S
C218 O232 1.245 . S
C219 O243 1.247 . S
C219 O245 1.289 . S
Mg220 O221 1.926 . S
Mg220 O230 1.984 . S
Mg220 O232 1.988 . S
Mg220 O233 2.061 1_556 S
O221 Mg220 1.926 . S
O221 Mg222 1.986 . S
O221 Mg223 1.917 . S
Mg222 O221 1.986 . S
Mg222 O229 2.042 . S
Mg222 O231 2.041 . S
Mg222 O237 2.038 . S
Mg222 O245 2.238 . S
Mg223 O221 1.917 . S
Mg223 O224 1.917 . S
Mg223 O234 2.106 . S
Mg223 O236 2.079 . S
Mg223 O245 2.106 . S
Mg223 O246 2.079 . S
O224 Mg223 1.917 . S
O224 Mg225 1.926 . S
O224 Mg226 1.986 . S
Mg225 O224 1.926 . S
Mg225 O239 1.984 . S
Mg225 O242 1.988 . S
Mg225 O243 2.061 . S
Mg226 O224 1.986 . S
Mg226 O234 2.238 . S
Mg226 O238 2.042 . S
Mg226 O240 2.041 . S
Mg226 O247 2.038 . S
C227 O233 1.247 . S
C227 O234 1.289 1_554 S
C228 O246 1.245 . S
C228 O247 1.274 . S
O229 C217 1.241 . S
O229 Mg222 2.042 . S
O230 C217 1.280 . S
O230 Mg220 1.984 . S
O231 C218 1.277 . S
O231 Mg222 2.041 . S
O232 C218 1.245 . S
O232 Mg220 1.988 . S
O233 Mg220 2.061 1_554 S
O233 C227 1.247 . S
O234 Mg223 2.106 . S
O234 Mg226 2.238 . S
O234 C227 1.289 1_556 S
C235 O236 1.245 . S
C235 O237 1.274 . S
O236 Mg223 2.079 . S
O236 C235 1.245 . S
O237 Mg222 2.038 . S
O237 C235 1.274 . S
O238 Mg226 2.042 . S
O238 C241 1.241 . S
O239 Mg225 1.984 . S
O239 C241 1.280 . S
O240 Mg226 2.041 . S
O240 C244 1.277 . S
C241 O238 1.241 . S
C241 O239 1.280 . S
O242 Mg225 1.988 . S
O242 C244 1.245 . S
O243 C219 1.247 . S
O243 Mg225 2.061 . S
C244 O240 1.277 . S
C244 O242 1.245 . S
O245 C219 1.289 . S
O245 Mg222 2.238 . S
O245 Mg223 2.106 . S
O246 Mg223 2.079 . S
O246 C228 1.245 . S
O247 Mg226 2.038 . S
O247 C228 1.274 . S
C248 O260 1.241 . S
C248 O261 1.280 . S
C249 O262 1.277 . S
C249 O263 1.245 . S
C250 O274 1.247 . S
C250 O276 1.289 . S
Mg251 O252 1.926 . S
Mg251 O261 1.984 . S
Mg251 O263 1.988 . S
Mg251 O264 2.061 . S
O252 Mg251 1.926 . S
O252 Mg253 1.986 . S
O252 Mg254 1.917 . S
Mg253 O252 1.986 . S
Mg253 O260 2.042 . S
Mg253 O262 2.041 . S
Mg253 O268 2.038 . S
Mg253 O276 2.238 . S
Mg254 O252 1.917 . S
Mg254 O255 1.917 . S
Mg254 O265 2.106 . S
Mg254 O267 2.079 . S
Mg254 O276 2.106 . S
Mg254 O277 2.079 . S
O255 Mg254 1.917 . S
O255 Mg256 1.926 . S
O255 Mg257 1.986 . S
Mg256 O255 1.926 . S
Mg256 O270 1.984 . S
Mg256 O273 1.988 . S
Mg256 O274 2.061 . S
Mg257 O255 1.986 . S
Mg257 O265 2.238 . S
Mg257 O269 2.042 . S
Mg257 O271 2.041 . S
Mg257 O278 2.038 . S
C258 O264 1.247 . S
C258 O265 1.289 . S
C259 O277 1.245 . S
C259 O278 1.274 . S
O260 C248 1.241 . S
O260 Mg253 2.042 . S
O261 C248 1.280 . S
O261 Mg251 1.984 . S
O262 C249 1.277 . S
O262 Mg253 2.041 . S
O263 C249 1.245 . S
O263 Mg251 1.988 . S
O264 Mg251 2.061 . S
O264 C258 1.247 . S
O265 Mg254 2.106 . S
O265 Mg257 2.238 . S
O265 C258 1.289 . S
C266 O267 1.245 . S
C266 O268 1.274 . S
O267 Mg254 2.079 . S
O267 C266 1.245 . S
O268 Mg253 2.038 . S
O268 C266 1.274 . S
O269 Mg257 2.042 . S
O269 C272 1.241 . S
O270 Mg256 1.984 . S
O270 C272 1.280 . S
O271 Mg257 2.041 . S
O271 C275 1.277 . S
C272 O269 1.241 . S
C272 O270 1.280 . S
O273 Mg256 1.988 . S
O273 C275 1.245 . S
O274 C250 1.247 . S
O274 Mg256 2.061 . S
C275 O271 1.277 . S
C275 O273 1.245 . S
O276 C250 1.289 . S
O276 Mg253 2.238 . S
O276 Mg254 2.106 . S
O277 Mg254 2.079 . S
O277 C259 1.245 . S
O278 Mg257 2.038 . S
O278 C259 1.274 . S
H279 C285 0.930 . S
H280 C288 0.930 . S
H281 C289 0.930 . S
H282 C290 0.930 . S
H283 C293 0.930 . S
H284 C294 0.930 . S
C285 H279 0.930 . S
C285 C286 1.355 . S
C285 C287 1.415 . S
C286 C285 1.355 . S
C286 C288 1.419 . S
C287 C285 1.415 . S
C287 C292 1.425 . S
C287 C294 1.409 . S
C288 H280 0.930 . S
C288 C286 1.419 . S
C288 C289 1.362 . S
C289 H281 0.930 . S
C289 C288 1.362 . S
C289 C292 1.409 . S
C290 H282 0.930 . S
C290 C291 1.355 . S
C290 C292 1.415 . S
C291 C290 1.355 . S
C291 C293 1.419 . S
C292 C287 1.425 . S
C292 C289 1.409 . S
C292 C290 1.415 . S
C293 H283 0.930 . S
C293 C291 1.419 . S
C293 C294 1.362 . S
C294 H284 0.930 . S
C294 C287 1.409 . S
C294 C293 1.362 . S
H295 C301 0.930 . S
H296 C304 0.930 . S
H297 C305 0.930 . S
H298 C306 0.930 . S
H299 C309 0.930 . S
H300 C310 0.930 . S
C301 H295 0.930 . S
C301 C302 1.355 . S
C301 C303 1.415 . S
C302 C301 1.355 . S
C302 C304 1.419 . S
C303 C301 1.415 . S
C303 C308 1.425 . S
C303 C310 1.409 . S
C304 H296 0.930 . S
C304 C302 1.419 . S
C304 C305 1.362 . S
C305 H297 0.930 . S
C305 C304 1.362 . S
C305 C308 1.409 . S
C306 H298 0.930 . S
C306 C307 1.355 . S
C306 C308 1.415 . S
C307 C306 1.355 . S
C307 C309 1.419 . S
C308 C303 1.425 . S
C308 C305 1.409 . S
C308 C306 1.415 . S
C309 H299 0.930 . S
C309 C307 1.419 . S
C309 C310 1.362 . S
C310 H300 0.930 . S
C310 C303 1.409 . S
C310 C309 1.362 . S
H311 C317 0.930 . S
H312 C320 0.930 . S
H313 C321 0.930 . S
H314 C322 0.930 . S
H315 C325 0.930 . S
H316 C326 0.930 . S
C317 H311 0.930 . S
C317 C318 1.355 1_554 S
C317 C319 1.415 . S
C318 C317 1.355 1_556 S
C318 C320 1.419 . S
C319 C317 1.415 . S
C319 C324 1.425 . S
C319 C326 1.409 . S
C320 H312 0.930 . S
C320 C318 1.419 . S
C320 C321 1.362 . S
C321 H313 0.930 . S
C321 C320 1.362 . S
C321 C324 1.409 1_556 S
C322 H314 0.930 . S
C322 C323 1.355 . S
C322 C324 1.415 . S
C323 C322 1.355 . S
C323 C325 1.419 . S
C324 C319 1.425 . S
C324 C321 1.409 1_554 S
C324 C322 1.415 . S
C325 H315 0.930 . S
C325 C323 1.419 . S
C325 C326 1.362 . S
C326 H316 0.930 . S
C326 C319 1.409 . S
C326 C325 1.362 . S
H327 C333 0.930 . S
H328 C336 0.930 . S
H329 C337 0.930 . S
H330 C338 0.930 . S
H331 C341 0.930 . S
H332 C342 0.930 . S
C333 H327 0.930 . S
C333 C334 1.355 . S
C333 C335 1.415 . S
C334 C333 1.355 . S
C334 C336 1.419 . S
C335 C333 1.415 . S
C335 C340 1.425 . S
C335 C342 1.409 . S
C336 H328 0.930 . S
C336 C334 1.419 . S
C336 C337 1.362 . S
C337 H329 0.930 . S
C337 C336 1.362 . S
C337 C340 1.409 . S
C338 H330 0.930 . S
C338 C339 1.355 . S
C338 C340 1.415 . S
C339 C338 1.355 . S
C339 C341 1.419 . S
C340 C335 1.425 . S
C340 C337 1.409 . S
C340 C338 1.415 . S
C341 H331 0.930 . S
C341 C339 1.419 . S
C341 C342 1.362 . S
C342 H332 0.930 . S
C342 C335 1.409 . S
C342 C341 1.362 . S
H343 C349 0.930 . S
H344 C352 0.930 1_565 S
H345 C353 0.930 . S
H346 C354 0.930 . S
H347 C357 0.930 . S
H348 C358 0.930 . S
C349 H343 0.930 . S
C349 C350 1.355 . S
C349 C351 1.415 . S
C350 C349 1.355 . S
C350 C352 1.419 . S
C351 C349 1.415 . S
C351 C356 1.425 . S
C351 C358 1.409 . S
C352 H344 0.930 1_545 S
C352 C350 1.419 . S
C352 C353 1.362 . S
C353 H345 0.930 . S
C353 C352 1.362 . S
C353 C356 1.409 . S
C354 H346 0.930 . S
C354 C355 1.355 . S
C354 C356 1.415 . S
C355 C354 1.355 . S
C355 C357 1.419 . S
C356 C351 1.425 . S
C356 C353 1.409 . S
C356 C354 1.415 . S
C357 H347 0.930 . S
C357 C355 1.419 . S
C357 C358 1.362 . S
C358 H348 0.930 . S
C358 C351 1.409 . S
C358 C357 1.362 . S
H359 C365 0.930 . S
H360 C368 0.930 . S
H361 C369 0.930 . S
H362 C370 0.930 . S
H363 C373 0.930 . S
H364 C374 0.921 1_556 S
C365 H359 0.930 . S
C365 C366 1.355 1_556 S
C365 C367 1.415 1_556 S
C366 C365 1.355 1_554 S
C366 C368 1.419 . S
C367 C365 1.415 1_554 S
C367 C372 1.425 . S
C367 C374 1.413 . S
C368 H360 0.930 . S
C368 C366 1.419 . S
C368 C369 1.362 . S
C369 H361 0.930 . S
C369 C368 1.362 . S
C369 C372 1.409 . S
C370 H362 0.930 . S
C370 C371 1.355 . S
C370 C372 1.415 . S
C371 C370 1.355 . S
C371 C373 1.419 . S
C372 C367 1.425 . S
C372 C369 1.409 . S
C372 C370 1.415 . S
C373 H363 0.930 . S
C373 C371 1.419 . S
C373 C374 1.368 . S
C374 H364 0.921 1_554 S
C374 C367 1.413 . S
C374 C373 1.368 . S
H375 C381 0.930 . S
H376 C384 0.930 . S
H377 C385 0.960 . S
H378 C386 0.930 . S
H379 C389 0.930 . S
H380 C390 0.930 . S
C381 H375 0.930 . S
C381 C382 1.355 . S
C381 C383 1.415 . S
C382 C381 1.355 . S
C382 C384 1.419 . S
C383 C381 1.415 . S
C383 C388 1.425 . S
C383 C390 1.409 . S
C384 H376 0.930 . S
C384 C382 1.419 . S
C384 C385 1.362 . S
C385 H377 0.960 . S
C385 C384 1.362 . S
C385 C388 1.409 . S
C386 H378 0.930 . S
C386 C387 1.355 . S
C386 C388 1.415 1_455 S
C387 C386 1.355 . S
C387 C389 1.419 1_455 S
C388 C383 1.425 . S
C388 C385 1.409 . S
C388 C386 1.415 1_655 S
C389 H379 0.930 . S
C389 C387 1.419 1_655 S
C389 C390 1.362 . S
C390 H380 0.930 . S
C390 C383 1.409 . S
C390 C389 1.362 . S
H391 C397 0.930 . S
H392 C400 0.930 . S
H393 C401 0.930 . S
H394 C402 0.930 . S
H395 C405 0.930 . S
H396 C406 0.930 . S
C397 H391 0.930 . S
C397 C398 1.355 . S
C397 C399 1.415 . S
C398 C397 1.355 . S
C398 C400 1.419 . S
C399 C397 1.415 . S
C399 C404 1.425 . S
C399 C406 1.409 . S
C400 H392 0.930 . S
C400 C398 1.419 . S
C400 C401 1.362 . S
C401 H393 0.930 . S
C401 C400 1.362 . S
C401 C404 1.409 . S
C402 H394 0.930 . S
C402 C403 1.355 . S
C402 C404 1.415 . S
C403 C402 1.355 . S
C403 C405 1.419 . S
C404 C399 1.425 . S
C404 C401 1.409 . S
C404 C402 1.415 . S
C405 H395 0.930 . S
C405 C403 1.419 . S
C405 C406 1.362 . S
C406 H396 0.930 . S
C406 C399 1.409 . S
C406 C405 1.362 . S
H407 C413 0.930 1_565 S
H408 C416 0.930 . S
H409 C417 0.930 . S
H410 C418 0.930 . S
H411 C421 0.930 . S
H412 C422 0.930 . S
C413 H407 0.930 1_545 S
C413 C414 1.355 . S
C413 C415 1.415 . S
C414 C413 1.355 . S
C414 C416 1.419 . S
C415 C413 1.415 . S
C415 C420 1.425 . S
C415 C422 1.409 . S
C416 H408 0.930 . S
C416 C414 1.419 . S
C416 C417 1.362 . S
C417 H409 0.930 . S
C417 C416 1.362 . S
C417 C420 1.409 . S
C418 H410 0.930 . S
C418 C419 1.355 . S
C418 C420 1.415 . S
C419 C418 1.355 . S
C419 C421 1.419 . S
C420 C415 1.425 . S
C420 C417 1.409 . S
C420 C418 1.415 . S
C421 H411 0.930 . S
C421 C419 1.419 . S
C421 C422 1.362 . S
C422 H412 0.930 . S
C422 C415 1.409 . S
C422 C421 1.362 . S
H423 C429 0.930 . S
H424 C432 0.930 . S
H425 C433 0.930 . S
H426 C434 0.930 . S
H427 C437 0.930 . S
H428 C438 0.930 . S
C429 H423 0.930 . S
C429 C430 1.355 . S
C429 C431 1.415 . S
C430 C429 1.355 . S
C430 C432 1.419 . S
C431 C429 1.415 . S
C431 C436 1.425 . S
C431 C438 1.409 . S
C432 H424 0.930 . S
C432 C430 1.419 . S
C432 C433 1.362 . S
C433 H425 0.930 . S
C433 C432 1.362 . S
C433 C436 1.409 . S
C434 H426 0.930 . S
C434 C435 1.355 . S
C434 C436 1.415 1_565 S
C435 C434 1.355 . S
C435 C437 1.419 1_565 S
C436 C431 1.425 . S
C436 C433 1.409 . S
C436 C434 1.415 1_545 S
C437 H427 0.930 . S
C437 C435 1.419 1_545 S
C437 C438 1.362 . S
C438 H428 0.930 . S
C438 C431 1.409 . S
C438 C437 1.362 . S
H439 C445 0.930 . S
H440 C448 0.930 . S
H441 C449 0.930 . S
H442 C450 0.930 . S
H443 C453 0.930 . S
H444 C454 0.930 . S
C445 H439 0.930 . S
C445 C446 1.355 1_655 S
C445 C447 1.415 . S
C446 C445 1.355 1_455 S
C446 C448 1.419 . S
C447 C445 1.415 . S
C447 C452 1.425 . S
C447 C454 1.409 . S
C448 H440 0.930 . S
C448 C446 1.419 . S
C448 C449 1.362 1_455 S
C449 H441 0.930 . S
C449 C448 1.362 1_655 S
C449 C452 1.409 . S
C450 H442 0.930 . S
C450 C451 1.355 . S
C450 C452 1.415 . S
C451 C450 1.355 . S
C451 C453 1.419 . S
C452 C447 1.425 . S
C452 C449 1.409 . S
C452 C450 1.415 . S
C453 H443 0.930 . S
C453 C451 1.419 . S
C453 C454 1.362 . S
C454 H444 0.930 . S
C454 C447 1.409 . S
C454 C453 1.362 . S
H455 C461 0.930 . S
H456 C464 0.930 . S
H457 C465 0.930 . S
H458 C466 0.930 . S
H459 C469 0.930 . S
H460 C470 0.930 . S
C461 H455 0.930 . S
C461 C462 1.355 . S
C461 C463 1.415 . S
C462 C461 1.355 . S
C462 C464 1.419 . S
C463 C461 1.415 . S
C463 C468 1.425 . S
C463 C470 1.409 . S
C464 H456 0.930 . S
C464 C462 1.419 . S
C464 C465 1.362 . S
C465 H457 0.930 . S
C465 C464 1.362 . S
C465 C468 1.409 . S
C466 H458 0.930 . S
C466 C467 1.355 . S
C466 C468 1.415 . S
C467 C466 1.355 . S
C467 C469 1.419 . S
C468 C463 1.425 . S
C468 C465 1.409 . S
C468 C466 1.415 . S
C469 H459 0.930 . S
C469 C467 1.419 . S
C469 C470 1.362 . S
C470 H460 0.930 . S
C470 C463 1.409 . S
C470 C469 1.362 . S
H471 C477 0.930 . S
H472 C480 0.930 . S
H473 C481 0.930 . S
H474 C482 0.930 1_556 S
H475 C485 0.930 . S
H476 C486 0.930 . S
C477 H471 0.930 . S
C477 C478 1.355 . S
C477 C479 1.415 1_556 S
C478 C477 1.355 . S
C478 C480 1.419 . S
C479 C477 1.415 1_554 S
C479 C484 1.425 1_554 S
C479 C486 1.409 . S
C480 H472 0.930 . S
C480 C478 1.419 . S
C480 C481 1.362 . S
C481 H473 0.930 . S
C481 C480 1.362 . S
C481 C484 1.409 . S
C482 H474 0.930 1_554 S
C482 C483 1.355 . S
C482 C484 1.415 1_554 S
C483 C482 1.355 . S
C483 C485 1.419 . S
C484 C479 1.425 1_556 S
C484 C481 1.409 . S
C484 C482 1.415 1_556 S
C485 H475 0.930 . S
C485 C483 1.419 . S
C485 C486 1.362 . S
C486 H476 0.930 . S
C486 C479 1.409 . S
C486 C485 1.362 . S
H487 C493 0.930 . S
H488 C496 0.930 . S
H489 C497 0.930 . S
H490 C498 0.930 . S
H491 C501 0.930 . S
H492 C502 0.930 . S
C493 H487 0.930 . S
C493 C494 1.355 . S
C493 C495 1.415 . S
C494 C493 1.355 . S
C494 C496 1.419 . S
C495 C493 1.415 . S
C495 C500 1.425 . S
C495 C502 1.409 1_556 S
C496 H488 0.930 . S
C496 C494 1.419 . S
C496 C497 1.362 . S
C497 H489 0.930 . S
C497 C496 1.362 . S
C497 C500 1.409 . S
C498 H490 0.930 . S
C498 C499 1.355 . S
C498 C500 1.415 . S
C499 C498 1.355 . S
C499 C501 1.419 1_556 S
C500 C495 1.425 . S
C500 C497 1.409 . S
C500 C498 1.415 . S
C501 H491 0.930 . S
C501 C499 1.419 1_554 S
C501 C502 1.362 . S
C502 H492 0.930 . S
C502 C495 1.409 1_554 S
C502 C501 1.362 . S
H503 C509 0.930 . S
H504 C512 0.930 1_554 S
H505 C513 0.930 . S
H506 C514 0.930 . S
H507 C517 0.930 . S
H508 C518 0.930 . S
C509 H503 0.930 . S
C509 C510 1.355 . S
C509 C511 1.415 . S
C510 C509 1.355 . S
C510 C512 1.419 . S
C511 C509 1.415 . S
C511 C516 1.425 . S
C511 C518 1.409 . S
C512 H504 0.930 1_556 S
C512 C510 1.419 . S
C512 C513 1.362 . S
C513 H505 0.930 . S
C513 C512 1.362 . S
C513 C516 1.409 . S
C514 H506 0.930 . S
C514 C515 1.355 . S
C514 C516 1.415 . S
C515 C514 1.355 . S
C515 C517 1.419 . S
C516 C511 1.425 . S
C516 C513 1.409 . S
C516 C514 1.415 . S
C517 H507 0.930 . S
C517 C515 1.419 . S
C517 C518 1.362 . S
C518 H508 0.930 . S
C518 C511 1.409 . S
C518 C517 1.362 . S
H519 C525 0.930 . S
H520 C528 0.930 . S
H521 C529 0.930 . S
H522 C530 0.930 . S
H523 C533 0.930 . S
H524 C534 0.930 . S
C525 H519 0.930 . S
C525 C526 1.355 . S
C525 C527 1.415 1_554 S
C526 C525 1.355 . S
C526 C528 1.419 . S
C527 C525 1.415 1_556 S
C527 C532 1.425 . S
C527 C534 1.409 . S
C528 H520 0.930 . S
C528 C526 1.419 . S
C528 C529 1.362 . S
C529 H521 0.930 . S
C529 C528 1.362 . S
C529 C532 1.409 1_554 S
C530 H522 0.930 . S
C530 C531 1.355 . S
C530 C532 1.415 . S
C531 C530 1.355 . S
C531 C533 1.419 . S
C532 C527 1.425 . S
C532 C529 1.409 1_556 S
C532 C530 1.415 . S
C533 H523 0.930 . S
C533 C531 1.419 . S
C533 C534 1.362 . S
C534 H524 0.930 . S
C534 C527 1.409 . S
C534 C533 1.362 . S
H535 C541 0.930 1_554 S
H536 C544 0.930 . S
H537 C545 0.930 . S
H538 C546 0.930 . S
H539 C549 0.930 . S
H540 C550 0.930 . S
C541 H535 0.930 1_556 S
C541 C542 1.355 . S
C541 C543 1.415 . S
C542 C541 1.355 . S
C542 C544 1.419 . S
C543 C541 1.415 . S
C543 C548 1.425 . S
C543 C550 1.409 . S
C544 H536 0.930 . S
C544 C542 1.419 . S
C544 C545 1.362 . S
C545 H537 0.930 . S
C545 C544 1.362 . S
C545 C548 1.409 . S
C546 H538 0.930 . S
C546 C547 1.355 . S
C546 C548 1.415 . S
C547 C546 1.355 . S
C547 C549 1.419 . S
C548 C543 1.425 . S
C548 C545 1.409 . S
C548 C546 1.415 . S
C549 H539 0.930 . S
C549 C547 1.419 . S
C549 C550 1.362 . S
C550 H540 0.930 . S
C550 C543 1.409 . S
C550 C549 1.362 . S
H551 C557 0.930 . S
H552 C560 0.930 . S
H553 C561 0.930 . S
H554 C562 0.930 . S
H555 C565 0.930 . S
H556 C566 0.930 . S
C557 H551 0.930 . S
C557 C558 1.355 . S
C557 C559 1.415 . S
C558 C557 1.355 . S
C558 C560 1.419 . S
C559 C557 1.415 . S
C559 C564 1.425 . S
C559 C566 1.409 . S
C560 H552 0.930 . S
C560 C558 1.419 . S
C560 C561 1.362 . S
C561 H553 0.930 . S
C561 C560 1.362 . S
C561 C564 1.409 . S
C562 H554 0.930 . S
C562 C563 1.355 . S
C562 C564 1.415 . S
C563 C562 1.355 . S
C563 C565 1.419 . S
C564 C559 1.425 . S
C564 C561 1.409 . S
C564 C562 1.415 . S
C565 H555 0.930 . S
C565 C563 1.419 . S
C565 C566 1.362 . S
C566 H556 0.930 . S
C566 C559 1.409 . S
C566 C565 1.362 . S
H567 C573 0.930 1_565 S
H568 C576 0.930 . S
H569 C577 0.930 . S
H570 C578 0.930 . S
H571 C581 0.930 . S
H572 C582 0.930 . S
C573 H567 0.930 1_545 S
C573 C574 1.355 1_556 S
C573 C575 1.415 1_556 S
C574 C573 1.355 1_554 S
C574 C576 1.419 . S
C575 C573 1.415 1_554 S
C575 C580 1.425 . S
C575 C582 1.409 . S
C576 H568 0.930 . S
C576 C574 1.419 . S
C576 C577 1.362 . S
C577 H569 0.930 . S
C577 C576 1.362 . S
C577 C580 1.409 . S
C578 H570 0.930 . S
C578 C579 1.355 . S
C578 C580 1.415 . S
C579 C578 1.355 . S
C579 C581 1.419 . S
C580 C575 1.425 . S
C580 C577 1.409 . S
C580 C578 1.415 . S
C581 H571 0.930 . S
C581 C579 1.419 . S
C581 C582 1.362 . S
C582 H572 0.930 . S
C582 C575 1.409 . S
C582 C581 1.362 . S
H583 C589 0.930 . S
H584 C592 0.930 1_455 S
H585 C593 0.930 . S
H586 C594 0.930 . S
H587 C597 0.930 . S
H588 C598 0.930 . S
C589 H583 0.930 . S
C589 C590 1.355 . S
C589 C591 1.415 . S
C590 C589 1.355 . S
C590 C592 1.419 . S
C591 C589 1.415 . S
C591 C596 1.425 . S
C591 C598 1.409 . S
C592 H584 0.930 1_655 S
C592 C590 1.419 . S
C592 C593 1.362 . S
C593 H585 0.930 . S
C593 C592 1.362 . S
C593 C596 1.409 . S
C594 H586 0.930 . S
C594 C595 1.355 . S
C594 C596 1.415 . S
C595 C594 1.355 . S
C595 C597 1.419 . S
C596 C591 1.425 . S
C596 C593 1.409 . S
C596 C594 1.415 . S
C597 H587 0.930 . S
C597 C595 1.419 . S
C597 C598 1.362 . S
C598 H588 0.930 . S
C598 C591 1.409 . S
C598 C597 1.362 . S
H599 C605 0.930 . S
H600 C608 0.930 . S
H601 C609 0.930 . S
H602 C610 0.930 . S
H603 C613 0.930 1_455 S
H604 C614 0.930 . S
C605 H599 0.930 . S
C605 C606 1.355 . S
C605 C607 1.415 . S
C606 C605 1.355 . S
C606 C608 1.419 . S
C607 C605 1.415 . S
C607 C612 1.425 . S
C607 C614 1.409 . S
C608 H600 0.930 . S
C608 C606 1.419 . S
C608 C609 1.362 . S
C609 H601 0.930 . S
C609 C608 1.362 . S
C609 C612 1.409 . S
C610 H602 0.930 . S
C610 C611 1.355 . S
C610 C612 1.415 . S
C611 C610 1.355 . S
C611 C613 1.419 . S
C612 C607 1.425 . S
C612 C609 1.409 . S
C612 C610 1.415 . S
C613 H603 0.930 1_655 S
C613 C611 1.419 . S
C613 C614 1.362 . S
C614 H604 0.930 . S
C614 C607 1.409 . S
C614 C613 1.362 . S
H615 C621 0.930 . S
H616 C624 0.930 . S
H617 C625 0.930 . S
H618 C626 0.930 . S
H619 C629 0.930 . S
H620 C630 0.930 . S
C621 H615 0.930 . S
C621 C622 1.355 . S
C621 C623 1.415 . S
C622 C621 1.355 . S
C622 C624 1.419 . S
C623 C621 1.415 . S
C623 C628 1.425 . S
C623 C630 1.409 . S
C624 H616 0.930 . S
C624 C622 1.419 . S
C624 C625 1.362 . S
C625 H617 0.930 . S
C625 C624 1.362 . S
C625 C628 1.409 . S
C626 H618 0.930 . S
C626 C627 1.355 . S
C626 C628 1.415 . S
C627 C626 1.355 . S
C627 C629 1.419 . S
C628 C623 1.425 . S
C628 C625 1.409 . S
C628 C626 1.415 . S
C629 H619 0.930 . S
C629 C627 1.419 . S
C629 C630 1.362 . S
C630 H620 0.930 . S
C630 C623 1.409 . S
C630 C629 1.362 . S
H631 C637 0.930 . S
H632 C640 0.930 . S
H633 C641 0.930 . S
H634 C642 0.930 . S
H635 C645 0.930 . S
H636 C646 0.930 . S
C637 H631 0.930 . S
C637 C638 1.355 . S
C637 C639 1.415 . S
C638 C637 1.355 . S
C638 C640 1.419 . S
C639 C637 1.415 . S
C639 C644 1.425 . S
C639 C646 1.409 . S
C640 H632 0.930 . S
C640 C638 1.419 . S
C640 C641 1.362 . S
C641 H633 0.930 . S
C641 C640 1.362 . S
C641 C644 1.409 . S
C642 H634 0.930 . S
C642 C643 1.355 . S
C642 C644 1.415 . S
C643 C642 1.355 . S
C643 C645 1.419 . S
C644 C639 1.425 . S
C644 C641 1.409 . S
C644 C642 1.415 . S
C645 H635 0.930 . S
C645 C643 1.419 . S
C645 C646 1.362 . S
C646 H636 0.930 . S
C646 C639 1.409 . S
C646 C645 1.362 . S
H647 C653 0.930 . S
H648 C656 0.930 . S
H649 C657 0.930 . S
H650 C658 0.930 . S
H651 C661 0.930 . S
H652 C662 0.930 . S
C653 H647 0.930 . S
C653 C654 1.355 . S
C653 C655 1.415 . S
C654 C653 1.355 . S
C654 C656 1.419 . S
C655 C653 1.415 . S
C655 C660 1.425 . S
C655 C662 1.409 . S
C656 H648 0.930 . S
C656 C654 1.419 . S
C656 C657 1.362 . S
C657 H649 0.930 . S
C657 C656 1.362 . S
C657 C660 1.409 . S
C658 H650 0.930 . S
C658 C659 1.355 . S
C658 C660 1.415 . S
C659 C658 1.355 . S
C659 C661 1.419 . S
C660 C655 1.425 . S
C660 C657 1.409 . S
C660 C658 1.415 . S
C661 H651 0.930 . S
C661 C659 1.419 . S
C661 C662 1.362 . S
C662 H652 0.930 . S
C662 C655 1.409 . S
C662 C661 1.362 . S
H663 C669 0.930 . S
H664 C672 0.930 . S
H665 C673 0.930 . S
H666 C674 0.930 . S
H667 C677 0.930 . S
H668 C678 0.930 . S
C669 H663 0.930 . S
C669 C670 1.355 . S
C669 C671 1.415 . S
C670 C669 1.355 . S
C670 C672 1.419 . S
C671 C669 1.415 . S
C671 C676 1.425 . S
C671 C678 1.409 . S
C672 H664 0.930 . S
C672 C670 1.419 . S
C672 C673 1.362 . S
C673 H665 0.930 . S
C673 C672 1.362 . S
C673 C676 1.409 . S
C674 H666 0.930 . S
C674 C675 1.355 . S
C674 C676 1.415 . S
C675 C674 1.355 . S
C675 C677 1.419 . S
C676 C671 1.425 . S
C676 C673 1.409 . S
C676 C674 1.415 . S
C677 H667 0.930 . S
C677 C675 1.419 . S
C677 C678 1.362 . S
C678 H668 0.930 . S
C678 C671 1.409 . S
C678 C677 1.362 . S
H679 C685 0.930 . S
H680 C688 0.930 . S
H681 C689 0.930 . S
H682 C690 0.930 1_554 S
H683 C693 0.930 . S
H684 C694 0.930 . S
C685 H679 0.930 . S
C685 C686 1.355 . S
C685 C687 1.415 . S
C686 C685 1.355 . S
C686 C688 1.419 1_556 S
C687 C685 1.415 . S
C687 C692 1.425 . S
C687 C694 1.409 . S
C688 H680 0.930 . S
C688 C686 1.419 1_554 S
C688 C689 1.362 . S
C689 H681 0.930 . S
C689 C688 1.362 . S
C689 C692 1.409 1_554 S
C690 H682 0.930 1_556 S
C690 C691 1.355 . S
C690 C692 1.415 . S
C691 C690 1.355 . S
C691 C693 1.419 . S
C692 C687 1.425 . S
C692 C689 1.409 1_556 S
C692 C690 1.415 . S
C693 H683 0.930 . S
C693 C691 1.419 . S
C693 C694 1.362 . S
C694 H684 0.930 . S
C694 C687 1.409 . S
C694 C693 1.362 . S
H695 C701 0.930 . S
H696 C704 0.930 . S
H697 C705 0.930 . S
H698 C706 0.930 . S
H699 C709 0.930 . S
H700 C710 0.930 . S
C701 H695 0.930 . S
C701 C702 1.355 . S
C701 C703 1.415 . S
C702 C701 1.355 . S
C702 C704 1.419 . S
C703 C701 1.415 . S
C703 C708 1.425 . S
C703 C710 1.409 . S
C704 H696 0.930 . S
C704 C702 1.419 . S
C704 C705 1.362 . S
C705 H697 0.930 . S
C705 C704 1.362 . S
C705 C708 1.409 . S
C706 H698 0.930 . S
C706 C707 1.355 . S
C706 C708 1.415 . S
C707 C706 1.355 . S
C707 C709 1.419 . S
C708 C703 1.425 . S
C708 C705 1.409 . S
C708 C706 1.415 . S
C709 H699 0.930 . S
C709 C707 1.419 . S
C709 C710 1.362 . S
C710 H700 0.930 . S
C710 C703 1.409 . S
C710 C709 1.362 . S
H711 C717 0.930 . S
H712 C720 0.930 . S
H713 C721 0.930 . S
H714 C722 0.930 . S
H715 C725 0.930 . S
H716 C726 0.930 . S
C717 H711 0.930 . S
C717 C718 1.355 . S
C717 C719 1.415 . S
C718 C717 1.355 . S
C718 C720 1.419 . S
C719 C717 1.415 . S
C719 C724 1.425 . S
C719 C726 1.409 . S
C720 H712 0.930 . S
C720 C718 1.419 . S
C720 C721 1.362 . S
C721 H713 0.930 . S
C721 C720 1.362 . S
C721 C724 1.409 . S
C722 H714 0.930 . S
C722 C723 1.355 . S
C722 C724 1.415 . S
C723 C722 1.355 . S
C723 C725 1.419 . S
C724 C719 1.425 . S
C724 C721 1.409 . S
C724 C722 1.415 . S
C725 H715 0.930 . S
C725 C723 1.419 . S
C725 C726 1.362 . S
C726 H716 0.930 . S
C726 C719 1.409 . S
C726 C725 1.362 . S
H727 C733 0.930 . S
H728 C736 0.930 . S
H729 C737 0.930 . S
H730 C738 0.930 . S
H731 C741 0.930 . S
H732 C742 0.930 . S
C733 H727 0.930 . S
C733 C734 1.355 . S
C733 C735 1.415 . S
C734 C733 1.355 . S
C734 C736 1.419 . S
C735 C733 1.415 . S
C735 C740 1.425 . S
C735 C742 1.409 . S
C736 H728 0.930 . S
C736 C734 1.419 . S
C736 C737 1.362 . S
C737 H729 0.930 . S
C737 C736 1.362 . S
C737 C740 1.409 . S
C738 H730 0.930 . S
C738 C739 1.355 . S
C738 C740 1.415 . S
C739 C738 1.355 . S
C739 C741 1.419 . S
C740 C735 1.425 . S
C740 C737 1.409 . S
C740 C738 1.415 . S
C741 H731 0.930 . S
C741 C739 1.419 . S
C741 C742 1.362 . S
C742 H732 0.930 . S
C742 C735 1.409 . S
C742 C741 1.362 . S
H743 C749 0.930 . S
H744 C752 0.930 . S
H745 C753 0.930 . S
H746 C754 0.930 . S
H747 C757 0.930 . S
H748 C758 0.930 . S
C749 H743 0.930 . S
C749 C750 1.355 . S
C749 C751 1.415 . S
C750 C749 1.355 . S
C750 C752 1.419 . S
C751 C749 1.415 . S
C751 C756 1.425 . S
C751 C758 1.409 . S
C752 H744 0.930 . S
C752 C750 1.419 . S
C752 C753 1.362 . S
C753 H745 0.930 . S
C753 C752 1.362 . S
C753 C756 1.409 . S
C754 H746 0.930 . S
C754 C755 1.355 . S
C754 C756 1.415 . S
C755 C754 1.355 . S
C755 C757 1.419 . S
C756 C751 1.425 . S
C756 C753 1.409 . S
C756 C754 1.415 . S
C757 H747 0.930 . S
C757 C755 1.419 . S
C757 C758 1.362 . S
C758 H748 0.930 . S
C758 C751 1.409 . S
C758 C757 1.362 . S
H759 C765 0.930 . S
H760 C768 0.930 . S
H761 C769 0.930 . S
H762 C770 0.930 . S
H763 C773 0.930 . S
H764 C774 0.930 . S
C765 H759 0.930 . S
C765 C766 1.355 . S
C765 C767 1.415 . S
C766 C765 1.355 . S
C766 C768 1.419 . S
C767 C765 1.415 . S
C767 C772 1.425 . S
C767 C774 1.409 . S
C768 H760 0.930 . S
C768 C766 1.419 . S
C768 C769 1.362 . S
C769 H761 0.930 . S
C769 C768 1.362 . S
C769 C772 1.409 . S
C770 H762 0.930 . S
C770 C771 1.355 . S
C770 C772 1.415 1_554 S
C771 C770 1.355 . S
C771 C773 1.419 . S
C772 C767 1.425 . S
C772 C769 1.409 . S
C772 C770 1.415 1_556 S
C773 H763 0.930 . S
C773 C771 1.419 . S
C773 C774 1.362 1_554 S
C774 H764 0.930 . S
C774 C767 1.409 . S
C774 C773 1.362 1_556 S
H775 C781 0.930 . S
H776 C784 0.930 . S
H777 C785 0.931 1_556 S
H778 C786 0.930 . S
H779 C789 0.930 . S
H780 C790 0.930 . S
C781 H775 0.930 . S
C781 C782 1.355 . S
C781 C783 1.415 1_554 S
C782 C781 1.355 . S
C782 C784 1.419 . S
C783 C781 1.415 1_556 S
C783 C788 1.425 . S
C783 C790 1.409 . S
C784 H776 0.930 . S
C784 C782 1.419 . S
C784 C785 1.362 . S
C785 H777 0.931 1_554 S
C785 C784 1.362 . S
C785 C788 1.409 1_554 S
C786 H778 0.930 . S
C786 C787 1.355 . S
C786 C788 1.415 . S
C787 C786 1.355 . S
C787 C789 1.419 . S
C788 C783 1.425 . S
C788 C785 1.409 1_556 S
C788 C786 1.415 . S
C789 H779 0.930 . S
C789 C787 1.419 . S
C789 C790 1.362 . S
C790 H780 0.930 . S
C790 C783 1.409 . S
C790 C789 1.362 . S
H791 C797 0.930 . S
H792 C800 0.930 . S
H793 C801 0.930 . S
H794 C802 0.930 . S
H795 C805 0.930 1_554 S
H796 C806 0.930 . S
C797 H791 0.930 . S
C797 C798 1.355 . S
C797 C799 1.415 . S
C798 C797 1.355 . S
C798 C800 1.419 . S
C799 C797 1.415 . S
C799 C804 1.425 . S
C799 C806 1.409 . S
C800 H792 0.930 . S
C800 C798 1.419 . S
C800 C801 1.362 . S
C801 H793 0.930 . S
C801 C800 1.362 . S
C801 C804 1.409 . S
C802 H794 0.930 . S
C802 C803 1.355 1_556 S
C802 C804 1.415 . S
C803 C802 1.355 1_554 S
C803 C805 1.419 1_554 S
C804 C799 1.425 . S
C804 C801 1.409 . S
C804 C802 1.415 . S
C805 H795 0.930 1_556 S
C805 C803 1.419 1_556 S
C805 C806 1.362 . S
C806 H796 0.930 . S
C806 C799 1.409 . S
C806 C805 1.362 . S
H807 C813 0.930 . S
H808 C816 0.930 . S
H809 C817 0.930 . S
H810 C818 0.930 . S
H811 C821 0.930 . S
H812 C822 0.930 . S
C813 H807 0.930 . S
C813 C814 1.355 . S
C813 C815 1.415 . S
C814 C813 1.355 . S
C814 C816 1.419 . S
C815 C813 1.415 . S
C815 C820 1.425 . S
C815 C822 1.409 . S
C816 H808 0.930 . S
C816 C814 1.419 . S
C816 C817 1.362 . S
C817 H809 0.930 . S
C817 C816 1.362 . S
C817 C820 1.409 . S
C818 H810 0.930 . S
C818 C819 1.355 . S
C818 C820 1.415 . S
C819 C818 1.355 . S
C819 C821 1.419 . S
C820 C815 1.425 . S
C820 C817 1.409 . S
C820 C818 1.415 . S
C821 H811 0.930 . S
C821 C819 1.419 . S
C821 C822 1.362 . S
C822 H812 0.930 . S
C822 C815 1.409 . S
C822 C821 1.362 . S
H823 C829 0.930 . S
H824 C832 0.930 . S
H825 C833 0.930 . S
H826 C834 0.930 . S
H827 C837 0.930 . S
H828 C838 0.930 . S
C829 H823 0.930 . S
C829 C830 1.355 . S
C829 C831 1.415 . S
C830 C829 1.355 . S
C830 C832 1.419 . S
C831 C829 1.415 . S
C831 C836 1.425 . S
C831 C838 1.409 . S
C832 H824 0.930 . S
C832 C830 1.419 . S
C832 C833 1.362 . S
C833 H825 0.930 . S
C833 C832 1.362 . S
C833 C836 1.409 . S
C834 H826 0.930 . S
C834 C835 1.355 . S
C834 C836 1.415 . S
C835 C834 1.355 . S
C835 C837 1.419 . S
C836 C831 1.425 . S
C836 C833 1.409 . S
C836 C834 1.415 . S
C837 H827 0.930 . S
C837 C835 1.419 . S
C837 C838 1.362 . S
C838 H828 0.930 . S
C838 C831 1.409 . S
C838 C837 1.362 . S
H839 C845 0.930 . S
H840 C848 0.930 . S
H841 C849 0.930 . S
H842 C850 0.930 . S
H843 C853 0.923 1_556 S
H844 C854 0.930 . S
C845 H839 0.930 . S
C845 C846 1.355 . S
C845 C847 1.415 . S
C846 C845 1.355 . S
C846 C848 1.419 . S
C847 C845 1.415 . S
C847 C852 1.425 . S
C847 C854 1.409 . S
C848 H840 0.930 . S
C848 C846 1.419 . S
C848 C849 1.362 . S
C849 H841 0.930 . S
C849 C848 1.362 . S
C849 C852 1.409 . S
C850 H842 0.930 . S
C850 C851 1.355 1_554 S
C850 C852 1.415 . S
C851 C850 1.355 1_556 S
C851 C853 1.416 1_556 S
C852 C847 1.425 . S
C852 C849 1.409 . S
C852 C850 1.415 . S
C853 H843 0.923 1_554 S
C853 C851 1.416 1_554 S
C853 C854 1.372 . S
C854 H844 0.930 . S
C854 C847 1.409 . S
C854 C853 1.372 . S
C286 C24 1.863 . S
C291 C135 1.910 . S
C302 C166 1.881 . S
C307 C55 1.717 1_545 S
C318 C86 1.768 1_655 S
C323 C120 1.980 . S
C334 C31 1.604 . S
C339 C111 1.596 . S
C350 C62 1.523 1_545 S
C355 C125 1.623 . S
C366 C0 1.370 1_655 S
C371 C156 1.568 . S
C382 C117 1.862 . S
C387 C228 1.940 . S
C398 C259 1.870 . S
C403 C148 1.662 . S
C414 C213 1.978 1_545 S
C419 C179 1.768 . S
C430 C124 1.556 . S
C435 C204 1.628 . S
C446 C218 1.608 . S
C451 C155 1.558 . S
C462 C249 1.533 . S
C467 C93 1.436 . S
C478 C210 1.889 . S
C483 C42 1.935 . S
C494 C241 1.706 . S
C499 C73 1.873 1_556 S
C510 C27 1.977 . S
C515 C272 1.768 . S
C526 C18 1.594 . S
C531 C217 1.608 . S
C542 C32 1.592 1_556 S
C547 C248 1.587 . S
C558 C186 1.424 . S
C563 C63 1.581 . S
C574 C80 1.794 1_544 S
C579 C11 1.824 . S
C590 C1 1.579 1_655 S
C595 C58 1.474 1_545 S
C606 C49 1.676 . S
C611 C89 1.638 1_655 S
C622 C173 1.796 . S
C627 C104 1.833 . S
C638 C94 1.504 . S
C643 C151 1.558 . S
C654 C142 1.702 . S
C659 C182 1.581 . S
C670 C197 1.811 . S
C675 C266 1.828 . S
C686 C244 1.566 . S
C691 C187 1.505 . S
C702 C275 1.643 . S
C707 C235 1.672 . S
C718 C10 0.791 . S
C723 C2 0.791 . S
C734 C41 0.905 . S
C739 C33 0.905 . S
C750 C64 0.790 . S
C755 C72 0.790 . S
C766 C95 0.897 . S
C771 C103 0.897 . S
C782 C126 0.913 . S
C787 C134 0.913 . S
C798 C165 0.838 . S
C803 C157 0.838 . S
C814 C196 0.794 . S
C819 C188 0.794 1_554 S
C830 C219 0.897 . S
C835 C227 0.897 . S
C846 C250 0.795 . S
C851 C258 0.795 . S
