# Generated by pormake.
# Topology uob, (4)-cn, num edge types: 1
# Building blocks:
#     Node 0, Type 0, BuildingBlock: KOZSID_clean_sbu_0, # of connection points: 4
#     Node 1, Type 0, BuildingBlock: KOZSID_clean_sbu_0, # of connection points: 4
#     Node 2, Type 0, BuildingBlock: KOZSID_clean_sbu_0, # of connection points: 4
#     Node 3, Type 0, BuildingBlock: KOZSID_clean_sbu_0, # of connection points: 4
#     Node 4, Type 0, BuildingBlock: KOZSID_clean_sbu_0, # of connection points: 4
#     Node 5, Type 0, BuildingBlock: KOZSID_clean_sbu_0, # of connection points: 4
#     Node 6, Type 0, BuildingBlock: KOZSID_clean_sbu_0, # of connection points: 4
#     Node 7, Type 0, BuildingBlock: KOZSID_clean_sbu_0, # of connection points: 4
#     Node 8, Type 0, BuildingBlock: KOZSID_clean_sbu_0, # of connection points: 4
#     Node 9, Type 0, BuildingBlock: KOZSID_clean_sbu_0, # of connection points: 4
#     Node 10, Type 0, BuildingBlock: KOZSID_clean_sbu_0, # of connection points: 4
#     Node 11, Type 0, BuildingBlock: KOZSID_clean_sbu_0, # of connection points: 4
#     Node 12, Type 0, BuildingBlock: KOZSID_clean_sbu_0, # of connection points: 4
#     Node 13, Type 0, BuildingBlock: KOZSID_clean_sbu_0, # of connection points: 4
#     Node 14, Type 0, BuildingBlock: KOZSID_clean_sbu_0, # of connection points: 4
#     Node 15, Type 0, BuildingBlock: KOZSID_clean_sbu_0, # of connection points: 4
#     Edge 16, Type (0, 0), BuildingBlock: TEMPAE_clean_linker_10, # of connection points: 2
#     Edge 17, Type (0, 0), BuildingBlock: TEMPAE_clean_linker_10, # of connection points: 2
#     Edge 18, Type (0, 0), BuildingBlock: TEMPAE_clean_linker_10, # of connection points: 2
#     Edge 19, Type (0, 0), BuildingBlock: TEMPAE_clean_linker_10, # of connection points: 2
#     Edge 20, Type (0, 0), BuildingBlock: TEMPAE_clean_linker_10, # of connection points: 2
#     Edge 21, Type (0, 0), BuildingBlock: TEMPAE_clean_linker_10, # of connection points: 2
#     Edge 22, Type (0, 0), BuildingBlock: TEMPAE_clean_linker_10, # of connection points: 2
#     Edge 23, Type (0, 0), BuildingBlock: TEMPAE_clean_linker_10, # of connection points: 2
#     Edge 24, Type (0, 0), BuildingBlock: TEMPAE_clean_linker_10, # of connection points: 2
#     Edge 25, Type (0, 0), BuildingBlock: TEMPAE_clean_linker_10, # of connection points: 2
#     Edge 26, Type (0, 0), BuildingBlock: TEMPAE_clean_linker_10, # of connection points: 2
#     Edge 27, Type (0, 0), BuildingBlock: TEMPAE_clean_linker_10, # of connection points: 2
#     Edge 28, Type (0, 0), BuildingBlock: TEMPAE_clean_linker_10, # of connection points: 2
#     Edge 29, Type (0, 0), BuildingBlock: TEMPAE_clean_linker_10, # of connection points: 2
#     Edge 30, Type (0, 0), BuildingBlock: TEMPAE_clean_linker_10, # of connection points: 2
#     Edge 31, Type (0, 0), BuildingBlock: TEMPAE_clean_linker_10, # of connection points: 2
#     Edge 32, Type (0, 0), BuildingBlock: TEMPAE_clean_linker_10, # of connection points: 2
#     Edge 33, Type (0, 0), BuildingBlock: TEMPAE_clean_linker_10, # of connection points: 2
#     Edge 34, Type (0, 0), BuildingBlock: TEMPAE_clean_linker_10, # of connection points: 2
#     Edge 35, Type (0, 0), BuildingBlock: TEMPAE_clean_linker_10, # of connection points: 2
#     Edge 36, Type (0, 0), BuildingBlock: TEMPAE_clean_linker_10, # of connection points: 2
#     Edge 37, Type (0, 0), BuildingBlock: TEMPAE_clean_linker_10, # of connection points: 2
#     Edge 38, Type (0, 0), BuildingBlock: TEMPAE_clean_linker_10, # of connection points: 2
#     Edge 39, Type (0, 0), BuildingBlock: TEMPAE_clean_linker_10, # of connection points: 2
#     Edge 40, Type (0, 0), BuildingBlock: TEMPAE_clean_linker_10, # of connection points: 2
#     Edge 41, Type (0, 0), BuildingBlock: TEMPAE_clean_linker_10, # of connection points: 2
#     Edge 42, Type (0, 0), BuildingBlock: TEMPAE_clean_linker_10, # of connection points: 2
#     Edge 43, Type (0, 0), BuildingBlock: TEMPAE_clean_linker_10, # of connection points: 2
#     Edge 44, Type (0, 0), BuildingBlock: TEMPAE_clean_linker_10, # of connection points: 2
#     Edge 45, Type (0, 0), BuildingBlock: TEMPAE_clean_linker_10, # of connection points: 2
#     Edge 46, Type (0, 0), BuildingBlock: TEMPAE_clean_linker_10, # of connection points: 2
#     Edge 47, Type (0, 0), BuildingBlock: TEMPAE_clean_linker_10, # of connection points: 2
# Relax obj value: 0.100
# Max RMSD: 0.277
# Mean RMSD: 0.243
data_MOF--net-uob--node1-KOZSID_clean_sbu_0--edge1-TEMPAE_clean_linker_10
_symmetry_space_group_name_H-M    P1
_symmetry_Int_Tables_number       1
_symmetry_cell_setting            triclinic
loop_
_symmetry_equiv_pos_as_xyz
'x, y, z'
_cell_length_a     56.804906
_cell_length_b     70.740995
_cell_length_c     34.66626
_cell_angle_alpha  90.064354
_cell_angle_beta   89.994039
_cell_angle_gamma 89.979671
loop_
_atom_site_label
_atom_site_type_symbol
_atom_site_fract_x
_atom_site_fract_y
_atom_site_fract_z
_atom_type_partial_charge
C0 C 0.18238 0.07487 0.32359 0.0
C1 C 0.20212 0.06368 0.31782 0.0
C2 C 0.19482 0.0483 0.2967 0.0
C3 C 0.17113 0.051 0.29068 0.0
N4 N 0.16322 0.06713 0.30655 0.0
Co5 Co 0.13037 0.07626 0.30578 0.0
N6 N 0.1182 0.05037 0.29792 0.0
C7 C 0.13056 0.03587 0.28294 0.0
C8 C 0.11727 0.01985 0.2783 0.0
C9 C 0.09517 0.02465 0.2909 0.0
C10 C 0.09623 0.0434 0.30293 0.0
N11 N 0.09746 0.08531 0.30492 0.0
C12 C 0.0771 0.07553 0.31036 0.0
C13 C 0.05802 0.08779 0.30898 0.0
C14 C 0.06689 0.10555 0.30145 0.0
C15 C 0.09089 0.10334 0.29898 0.0
N16 N 0.14351 0.10188 0.31415 0.0
C17 C 0.13229 0.1182 0.30686 0.0
C18 C 0.14525 0.13359 0.31886 0.0
C19 C 0.16569 0.12634 0.33463 0.0
C20 C 0.16417 0.10686 0.33144 0.0
N21 N 0.13135 0.08005 0.24877 0.0
C22 C 0.1248 0.09186 0.1709 0.0
C23 C 0.14475 0.09744 0.19244 0.0
C24 C 0.14776 0.09131 0.23108 0.0
C25 C 0.10934 0.07915 0.18882 0.0
C26 C 0.11276 0.07362 0.22718 0.0
N27 N 0.12776 0.07332 0.36207 0.0
C28 C 0.11253 0.0866 0.42101 0.0
C29 C 0.11674 0.06981 0.44063 0.0
C30 C 0.12757 0.05483 0.4207 0.0
C31 C 0.13297 0.05688 0.38111 0.0
C32 C 0.11815 0.08808 0.38222 0.0
H33 H 0.14068 0.04514 0.36568 0.0
H34 H 0.11374 0.10114 0.36837 0.0
H35 H 0.16278 0.09639 0.24715 0.0
H36 H 0.09936 0.06486 0.23979 0.0
C37 C 0.1551 0.03709 0.27884 0.0
C38 C 0.18249 0.09314 0.34375 0.0
C39 C 0.07562 0.05466 0.31474 0.0
C40 C 0.10789 0.11798 0.29884 0.0
H41 H 0.21981 0.06628 0.32813 0.0
H42 H 0.20527 0.0361 0.2888 0.0
H43 H 0.12302 1.0062 0.26778 0.0
H44 H 0.07994 0.01547 0.2903 0.0
H45 H 0.03965 0.0844 0.31326 0.0
H46 H 0.05704 0.11863 0.29992 0.0
H47 H 0.13982 0.14825 0.31879 0.0
H48 H 0.17976 0.13443 0.34764 0.0
H49 H 0.15749 0.10711 0.18023 0.0
H50 H 0.09413 0.07371 0.17365 0.0
H51 H 0.10438 0.09852 0.43548 0.0
H52 H 0.13123 0.04161 0.43522 0.0
C53 C 0.89779 0.63372 0.48251 0.0
C54 C 0.87591 0.63252 0.46493 0.0
C55 C 0.85982 0.63016 0.49399 0.0
C56 C 0.87278 0.63012 0.52747 0.0
N57 N 0.89596 0.63245 0.52121 0.0
Co58 Co 0.92102 0.63347 0.56077 0.0
N59 N 0.90095 0.61982 0.59803 0.0
C60 C 0.87757 0.61686 0.59505 0.0
C61 C 0.86916 0.60454 0.62222 0.0
C62 C 0.88832 0.59974 0.64399 0.0
C63 C 0.90737 0.6099 0.6295 0.0
N64 N 0.94587 0.63482 0.6006 0.0
C65 C 0.94735 0.62594 0.63521 0.0
C66 C 0.96688 0.63226 0.65554 0.0
C67 C 0.97776 0.64559 0.6328 0.0
C68 C 0.9643 0.64678 0.59996 0.0
N69 N 0.9406 0.64665 0.52184 0.0
C70 C 0.95971 0.65723 0.52908 0.0
C71 C 0.9705 0.66318 0.49561 0.0
C72 C 0.95728 0.65577 0.46578 0.0
C73 C 0.93915 0.64569 0.48272 0.0
N74 N 0.90901 0.65826 0.58044 0.0
C75 C 0.90362 0.69499 0.61356 0.0
C76 C 0.9042 0.69228 0.5732 0.0
C77 C 0.90686 0.6739 0.5573 0.0
C78 C 0.90405 0.67863 0.63637 0.0
C79 C 0.90656 0.66067 0.61953 0.0
N80 N 0.93452 0.60901 0.54326 0.0
C81 C 0.97007 0.59072 0.53338 0.0
C82 C 0.95752 0.57369 0.53328 0.0
C83 C 0.9328 0.57489 0.53658 0.0
C84 C 0.92165 0.59266 0.54107 0.0
C85 C 0.95843 0.60795 0.53837 0.0
H86 H 0.90275 0.5931 0.54421 0.0
H87 H 0.96922 0.62038 0.54022 0.0
H88 H 0.90826 0.67246 0.52635 0.0
H89 H 0.90781 0.64882 0.6388 0.0
C90 C 0.86501 0.62301 0.56274 0.0
C91 C 0.92 0.63595 0.46189 0.0
C92 C 0.92937 0.61301 0.65101 0.0
C93 C 0.96961 0.65724 0.56638 0.0
H94 H 0.8721 0.63281 0.43433 0.0
H95 H 0.84118 0.62738 0.49082 0.0
H96 H 0.8514 0.59916 0.62508 0.0
H97 H 0.88805 0.59052 0.66888 0.0
H98 H 0.97243 0.62793 0.68406 0.0
H99 H 0.99375 0.65328 0.63931 0.0
H100 H 0.98683 0.67095 0.49307 0.0
H101 H 0.96072 0.6574 0.43526 0.0
H102 H 0.9037 0.70432 0.55399 0.0
H103 H 0.90296 0.67963 0.6675 0.0
H104 H 0.9891 0.59079 0.53148 0.0
H105 H 0.92216 0.5622 0.53612 0.0
C106 C 0.3298 0.44836 0.82561 0.0
C107 C 0.30979 0.45928 0.82022 0.0
C108 C 0.31661 0.47474 0.79897 0.0
C109 C 0.34031 0.47236 0.7925 0.0
N110 N 0.34867 0.45635 0.80822 0.0
Co111 Co 0.38172 0.44768 0.80674 0.0
N112 N 0.39332 0.47371 0.79845 0.0
C113 C 0.3805 0.48802 0.78375 0.0
C114 C 0.39342 0.5042 0.77863 0.0
C115 C 0.41574 0.49973 0.79059 0.0
C116 C 0.4152 0.481 0.80278 0.0
N117 N 0.41485 0.4391 0.80508 0.0
C118 C 0.43507 0.44915 0.80996 0.0
C119 C 0.45436 0.43711 0.80833 0.0
C120 C 0.44579 0.41923 0.8011 0.0
C121 C 0.42173 0.42113 0.7991 0.0
N122 N 0.36923 0.42191 0.81563 0.0
C123 C 0.38075 0.40573 0.80822 0.0
C124 C 0.36822 0.39018 0.82048 0.0
C125 C 0.34772 0.39717 0.83654 0.0
C126 C 0.34879 0.41666 0.83325 0.0
N127 N 0.38025 0.44372 0.74985 0.0
C128 C 0.3859 0.43174 0.67189 0.0
C129 C 0.36631 0.42608 0.69415 0.0
C130 C 0.36373 0.4323 0.73281 0.0
C131 C 0.40147 0.44461 0.68918 0.0
C132 C 0.39848 0.45023 0.72761 0.0
N133 N 0.38467 0.45081 0.8629 0.0
C134 C 0.40026 0.43789 0.92182 0.0
C135 C 0.3947 0.45435 0.94178 0.0
C136 C 0.38316 0.46899 0.92193 0.0
C137 C 0.37835 0.46695 0.88214 0.0
C138 C 0.39508 0.43638 0.88289 0.0
H139 H 0.37002 0.47843 0.86679 0.0
H140 H 0.40021 0.42351 0.86888 0.0
H141 H 0.34897 0.42717 0.74942 0.0
H142 H 0.41191 0.45915 0.73974 0.0
C143 C 0.35596 0.48645 0.78028 0.0
C144 C 0.33019 0.43011 0.84574 0.0
C145 C 0.43621 0.47006 0.81404 0.0
C146 C 0.40506 0.40627 0.79954 0.0
H147 H 0.29222 0.45646 0.83084 0.0
H148 H 0.30585 0.48678 0.79125 0.0
H149 H 0.38728 0.51774 0.76817 0.0
H150 H 0.43078 0.50909 0.78947 0.0
H151 H 0.47269 0.44071 0.81229 0.0
H152 H 0.45587 0.40627 0.79952 0.0
H153 H 0.37396 0.37559 0.82031 0.0
H154 H 0.3339 0.3889 0.84977 0.0
H155 H 0.35352 0.41629 0.68248 0.0
H156 H 0.41642 0.45012 0.67342 0.0
H157 H 0.40893 0.42621 0.93624 0.0
H158 H 0.37844 0.48194 0.93671 0.0
C159 C 0.61174 0.88671 0.98861 0.0
C160 C 0.63423 0.88896 0.9736 0.0
C161 C 0.64825 0.89441 1.00342 0.0
C162 C 0.63364 0.89507 0.03481 0.0
N163 N 0.6112 0.89002 0.02729 0.0
Co164 Co 0.58449 0.88943 0.06534 0.0
N165 N 0.60591 0.89617 0.10923 0.0
C166 C 0.6289 0.90079 0.10673 0.0
C167 C 0.63951 0.90384 0.14163 0.0
C168 C 0.62216 0.90121 0.16819 0.0
C169 C 0.60184 0.89671 0.14778 0.0
N170 N 0.55791 0.8892 0.10324 0.0
C171 C 0.55782 0.89197 0.14212 0.0
C172 C 0.53511 0.89189 0.15673 0.0
C173 C 0.52037 0.88919 0.12599 0.0
C174 C 0.53487 0.88781 0.09444 0.0
N175 N 0.56346 0.88248 0.02072 0.0
C176 C 0.53977 0.88148 0.02197 0.0
C177 C 0.52965 0.87781 0.9868 0.0
C178 C 0.54799 0.87688 0.96128 0.0
C179 C 0.56834 0.88003 0.98237 0.0
N180 N 0.59016 0.86197 0.07676 0.0
C181 C 0.59501 0.82491 0.10921 0.0
C182 C 0.57335 0.83162 0.09513 0.0
C183 C 0.57137 0.84984 0.07912 0.0
C184 C 0.61449 0.83706 0.10453 0.0
C185 C 0.61176 0.85527 0.08813 0.0
N186 N 0.57745 0.91677 0.05593 0.0
C187 C 0.55943 0.94068 1.01529 0.0
C188 C 0.55369 0.9519 0.04741 0.0
C189 C 0.56215 0.94589 0.08333 0.0
C190 C 0.57401 0.92858 0.08682 0.0
C191 C 0.57155 0.92347 0.02011 0.0
H192 H 0.57906 0.92443 0.1152 0.0
H193 H 0.5751 0.91536 0.99478 0.0
H194 H 0.55416 0.85427 0.07025 0.0
H195 H 0.62714 0.86404 0.08592 0.0
C196 C 0.64057 0.90025 0.07166 0.0
C197 C 0.59128 0.88352 0.96393 0.0
C198 C 0.57858 0.89606 0.16582 0.0
C199 C 0.52765 0.8845 0.05651 0.0
H200 H 0.63971 0.88744 0.94384 0.0
H201 H 0.66683 0.89778 1.00225 0.0
H202 H 0.65775 0.90734 0.14714 0.0
H203 H 0.62413 0.90298 0.19903 0.0
H204 H 0.52981 0.89391 0.18645 0.0
H205 H 0.50134 0.88838 0.12657 0.0
H206 H 0.51108 0.87658 0.98026 0.0
H207 H 0.54652 0.87506 0.93037 0.0
H208 H 0.55755 0.82318 0.09784 0.0
H209 H 0.63184 0.83264 0.11375 0.0
H210 H 0.55419 0.94495 0.98656 0.0
H211 H 0.55857 0.95398 0.10922 0.0
C212 C 0.18434 0.44639 0.03937 0.0
C213 C 0.20381 0.45785 0.04529 0.0
C214 C 0.19615 0.47305 0.06662 0.0
C215 C 0.17253 0.46998 0.0726 0.0
N216 N 0.165 0.45379 0.05653 0.0
Co217 Co 0.13234 0.4442 0.0571 0.0
N218 N 0.11955 0.46989 0.06531 0.0
C219 C 0.13161 0.48448 0.0806 0.0
C220 C 0.11794 0.50023 0.08605 0.0
C221 C 0.0959 0.49516 0.07373 0.0
C222 C 0.09736 0.47653 0.06092 0.0
N223 N 0.09965 0.43464 0.05768 0.0
C224 C 0.07903 0.44411 0.05247 0.0
C225 C 0.06031 0.43149 0.05303 0.0
C226 C 0.06962 0.41384 0.0601 0.0
C227 C 0.09353 0.41646 0.063 0.0
N228 N 0.14612 0.41879 0.04844 0.0
C229 C 0.13529 0.40227 0.0554 0.0
C230 C 0.14863 0.38712 0.04326 0.0
C231 C 0.16891 0.39472 0.02771 0.0
C232 C 0.16692 0.41416 0.03118 0.0
N233 N 0.13329 0.44027 0.11405 0.0
C234 C 0.12682 0.42851 0.19192 0.0
C235 C 0.1469 0.42309 0.17053 0.0
C236 C 0.14987 0.4292 0.13185 0.0
C237 C 0.11118 0.44101 0.17387 0.0
C238 C 0.11454 0.44649 0.13553 0.0
N239 N 0.12974 0.44733 1.00087 0.0
C240 C 0.1148 0.43417 0.94163 0.0
C241 C 0.11818 0.45125 0.92263 0.0
C242 C 0.12851 0.46632 0.94294 0.0
C243 C 0.13423 0.46404 0.98234 0.0
C244 C 0.12065 0.43251 0.9803 0.0
H245 H 0.14155 0.47585 0.99808 0.0
H246 H 0.11678 0.41923 0.99377 0.0
H247 H 0.16501 0.42427 0.11585 0.0
H248 H 0.10095 0.45503 0.12288 0.0
C249 C 0.15617 0.48359 0.08466 0.0
C250 C 0.18492 0.42817 0.01903 0.0
C251 C 0.07691 0.46501 0.04926 0.0
C252 C 0.11087 0.4021 0.06308 0.0
H253 H 0.22157 0.45555 0.03495 0.0
H254 H 0.2063 0.48538 0.07469 0.0
H255 H 0.12337 0.51386 0.09713 0.0
H256 H 0.08043 0.50406 0.0752 0.0
H257 H 0.04187 0.43455 0.0485 0.0
H258 H 0.06014 0.40058 0.06105 0.0
H259 H 0.14352 0.37238 0.04303 0.0
H260 H 0.18316 0.38687 1.01459 0.0
H261 H 0.15978 0.41359 0.1829 0.0
H262 H 0.09585 0.44633 0.18895 0.0
H263 H 0.10702 0.4222 0.92682 0.0
H264 H 0.13152 0.47977 0.9289 0.0
C265 C 0.6124 0.63492 0.3735 0.0
C266 C 0.63488 0.63261 0.38847 0.0
C267 C 0.64888 0.62715 0.35862 0.0
C268 C 0.63425 0.62654 0.32724 0.0
N269 N 0.61182 0.63163 0.33481 0.0
Co270 Co 0.5851 0.63225 0.2968 0.0
N271 N 0.60651 0.62557 0.25284 0.0
C272 C 0.62949 0.62092 0.25531 0.0
C273 C 0.64009 0.61789 0.22038 0.0
C274 C 0.62275 0.6206 0.19385 0.0
C275 C 0.60243 0.6251 0.21429 0.0
N276 N 0.5585 0.63252 0.25894 0.0
C277 C 0.55841 0.62985 0.22004 0.0
C278 C 0.53569 0.62994 0.20545 0.0
C279 C 0.52095 0.63254 0.23625 0.0
C280 C 0.53546 0.63386 0.26779 0.0
N281 N 0.56407 0.63912 0.34149 0.0
C282 C 0.54038 0.64005 0.3403 0.0
C283 C 0.53027 0.64367 0.37551 0.0
C284 C 0.54862 0.64463 0.40098 0.0
C285 C 0.56897 0.64156 0.37984 0.0
N286 N 0.59071 0.65972 0.28552 0.0
C287 C 0.59539 0.6968 0.2531 0.0
C288 C 0.57379 0.69007 0.26734 0.0
C289 C 0.57189 0.67184 0.28334 0.0
C290 C 0.6149 0.68466 0.25762 0.0
C291 C 0.61226 0.66644 0.27401 0.0
N292 N 0.57813 0.6049 0.30605 0.0
C293 C 0.56026 0.58091 0.34668 0.0
C294 C 0.55444 0.56975 0.31453 0.0
C295 C 0.56278 0.57582 0.27857 0.0
C296 C 0.5746 0.59315 0.27511 0.0
C297 C 0.57235 0.59814 0.34188 0.0
H298 H 0.57955 0.59735 0.2467 0.0
H299 H 0.57597 0.60622 0.36722 0.0
H300 H 0.5547 0.66739 0.29231 0.0
H301 H 0.62766 0.65767 0.27609 0.0
C302 C 0.64116 0.62139 0.29037 0.0
C303 C 0.59195 0.63818 0.39822 0.0
C304 C 0.57917 0.62583 0.19627 0.0
C305 C 0.52826 0.63707 0.30576 0.0
H306 H 0.64039 0.6341 0.41822 0.0
H307 H 0.66745 0.62374 0.35975 0.0
H308 H 0.65833 0.61438 0.21484 0.0
H309 H 0.62472 0.61888 0.163 0.0
H310 H 0.53038 0.62799 0.17573 0.0
H311 H 0.50192 0.63332 0.2357 0.0
H312 H 0.5117 0.64486 0.38209 0.0
H313 H 0.54717 0.64645 0.4319 0.0
H314 H 0.55796 0.6985 0.26477 0.0
H315 H 0.63222 0.68909 0.24825 0.0
H316 H 0.55511 0.57659 0.37543 0.0
H317 H 0.55913 0.56777 0.25266 0.0
C318 C 0.32778 0.07374 0.5364 0.0
C319 C 0.30785 0.06274 0.54191 0.0
C320 C 0.31482 0.04731 0.5631 0.0
C321 C 0.33852 0.04977 0.56941 0.0
N322 N 0.34675 0.06581 0.55365 0.0
Co323 Co 0.37975 0.07459 0.55493 0.0
N324 N 0.39152 0.0486 0.56311 0.0
C325 C 0.37882 0.03425 0.57789 0.0
C326 C 0.39185 0.01811 0.58293 0.0
C327 C 0.41412 0.02266 0.57084 0.0
C328 C 0.41344 0.04139 0.55866 0.0
N329 N 0.41281 0.0833 0.55635 0.0
C330 C 0.43309 0.07332 0.55136 0.0
C331 C 0.45231 0.08542 0.55287 0.0
C332 C 0.44364 0.10327 0.56013 0.0
C333 C 0.4196 0.10129 0.56228 0.0
N334 N 0.36706 0.10033 0.54616 0.0
C335 C 0.3785 0.11655 0.55351 0.0
C336 C 0.36583 0.13206 0.54136 0.0
C337 C 0.34534 0.125 0.52543 0.0
C338 C 0.34654 0.10551 0.52869 0.0
N339 N 0.3784 0.07853 0.61184 0.0
C340 C 0.38426 0.09045 0.68981 0.0
C341 C 0.36458 0.09611 0.66773 0.0
C342 C 0.3619 0.08991 0.62907 0.0
C343 C 0.39981 0.07763 0.67234 0.0
C344 C 0.39673 0.07204 0.63391 0.0
N345 N 0.3826 0.07149 0.49874 0.0
C346 C 0.39805 0.08446 0.43976 0.0
C347 C 0.39284 0.06789 0.41993 0.0
C348 C 0.38151 0.05317 0.43985 0.0
C349 C 0.37657 0.05525 0.47959 0.0
C350 C 0.39278 0.08599 0.47866 0.0
H351 H 0.36841 0.04371 0.495 0.0
H352 H 0.39772 0.09892 0.49261 0.0
H353 H 0.34707 0.09504 0.61259 0.0
H354 H 0.41016 0.06317 0.62166 0.0
C355 C 0.35428 0.03573 0.58152 0.0
C356 C 0.328 0.092 0.51629 0.0
C357 C 0.43435 0.05241 0.5473 0.0
C358 C 0.40283 0.11609 0.56198 0.0
H359 H 0.29024 0.06551 0.53142 0.0
H360 H 0.30416 0.03523 0.57088 0.0
H361 H 0.38582 1.00455 0.59344 0.0
H362 H 0.42922 0.01335 0.5719 0.0
H363 H 0.47066 0.08188 0.54883 0.0
H364 H 0.45365 0.11627 0.56167 0.0
H365 H 0.37149 0.14666 0.5415 0.0
H366 H 0.33144 0.13323 0.51229 0.0
H367 H 0.35179 0.10587 0.67955 0.0
H368 H 0.41482 0.07212 0.68795 0.0
H369 H 0.40657 0.09619 0.42528 0.0
H370 H 0.37707 0.04013 0.42516 0.0
C371 C 0.8962 0.89101 0.86774 0.0
C372 C 0.87371 0.89244 0.88309 0.0
C373 C 0.85854 0.89355 0.85235 0.0
C374 C 0.87258 0.89268 0.8201 0.0
N375 N 0.89556 0.89106 0.82872 0.0
Co376 Co 0.92173 0.88941 0.79121 0.0
N377 N 0.90255 0.90167 0.7508 0.0
C378 C 0.87886 0.90249 0.75012 0.0
C379 C 0.87027 0.91135 0.7179 0.0
C380 C 0.88977 0.91624 0.6969 0.0
C381 C 0.90931 0.91009 0.71765 0.0
N382 N 0.94779 0.88775 0.75366 0.0
C383 C 0.95083 0.89708 0.71981 0.0
C384 C 0.97157 0.89137 0.70218 0.0
C385 C 0.98155 0.87791 0.72583 0.0
C386 C 0.96643 0.87611 0.75661 0.0
N387 N 0.94022 0.87724 0.83283 0.0
C388 C 0.95958 0.86662 0.82772 0.0
C389 C 0.96929 0.86109 0.86234 0.0
C390 C 0.95508 0.86877 0.89063 0.0
C391 C 0.93741 0.8786 0.87177 0.0
N392 N 0.91082 0.86408 0.77268 0.0
C393 C 0.90544 0.82681 0.74222 0.0
C394 C 0.90421 0.83039 0.78227 0.0
C395 C 0.90698 0.84905 0.79688 0.0
C396 C 0.90793 0.84258 0.71815 0.0
C397 C 0.91042 0.86079 0.73365 0.0
N398 N 0.93418 0.91435 0.80751 0.0
C399 C 0.96922 0.93313 0.81756 0.0
C400 C 0.95652 0.94996 0.81421 0.0
C401 C 0.93189 0.94857 0.8101 0.0
C402 C 0.92105 0.93061 0.80671 0.0
C403 C 0.95787 0.91572 0.81436 0.0
H404 H 0.90229 0.92988 0.80175 0.0
H405 H 0.9688 0.90335 0.81527 0.0
H406 H 0.90697 0.85119 0.82775 0.0
H407 H 0.91326 0.8721 0.7135 0.0
C408 C 0.86564 0.89745 0.78263 0.0
C409 C 0.91762 0.8886 0.89079 0.0
C410 C 0.93358 0.91038 0.7029 0.0
C411 C 0.97071 0.86618 0.79127 0.0
H412 H 0.86883 0.89274 0.91327 0.0
H413 H 0.8397 0.89577 0.85348 0.0
H414 H 0.85208 0.91433 0.71092 0.0
H415 H 0.88949 0.92313 0.66905 0.0
H416 H 0.97867 0.89633 0.67504 0.0
H417 H 0.99823 0.8708 0.72164 0.0
H418 H 0.98556 0.85342 0.86665 0.0
H419 H 0.95762 0.8675 0.92144 0.0
H420 H 0.90214 0.81879 0.80233 0.0
H421 H 0.90841 0.84089 0.6871 0.0
H422 H 0.98814 0.93338 0.82156 0.0
H423 H 0.92125 0.96122 0.80769 0.0
C424 C 0.68583 0.57662 0.82546 0.0
C425 C 0.7056 0.56536 0.82055 0.0
C426 C 0.69843 0.54974 0.80009 0.0
C427 C 0.67478 0.55236 0.79356 0.0
N428 N 0.66677 0.56868 0.8085 0.0
Co429 Co 0.63396 0.57784 0.80639 0.0
N430 N 0.62176 0.55189 0.79934 0.0
C431 C 0.63426 0.53721 0.78539 0.0
C432 C 0.62098 0.52117 0.78092 0.0
C433 C 0.59874 0.52613 0.7925 0.0
C434 C 0.5997 0.545 0.80382 0.0
N435 N 0.60105 0.58691 0.80414 0.0
C436 C 0.58058 0.57723 0.8093 0.0
C437 C 0.56158 0.58952 0.80681 0.0
C438 C 0.5706 0.60718 0.79877 0.0
C439 C 0.59462 0.60489 0.79715 0.0
N440 N 0.64709 0.60354 0.81393 0.0
C441 C 0.63598 0.61978 0.80552 0.0
C442 C 0.64882 0.6353 0.81715 0.0
C443 C 0.66908 0.62822 0.83383 0.0
C444 C 0.6676 0.60871 0.83148 0.0
N445 N 0.63561 0.58106 0.74945 0.0
C446 C 0.62923 0.59346 0.67224 0.0
C447 C 0.64927 0.59871 0.69376 0.0
C448 C 0.65221 0.59226 0.73212 0.0
C449 C 0.61374 0.58058 0.68948 0.0
C450 C 0.61713 0.57469 0.72758 0.0
N451 N 0.63077 0.57557 0.86259 0.0
C452 C 0.61524 0.58987 0.92017 0.0
C453 C 0.61914 0.57339 0.94096 0.0
C454 C 0.63005 0.55803 0.92237 0.0
C455 C 0.63575 0.55942 0.88277 0.0
C456 C 0.6211 0.59067 0.88152 0.0
H457 H 0.64351 0.54742 0.86825 0.0
H458 H 0.61683 0.60352 0.86679 0.0
H459 H 0.66722 0.59719 0.7484 0.0
H460 H 0.60368 0.56587 0.73991 0.0
C461 C 0.65884 0.53836 0.78194 0.0
C462 C 0.68584 0.59512 0.84476 0.0
C463 C 0.57892 0.55639 0.81434 0.0
C464 C 0.61167 0.61949 0.79678 0.0
H465 H 0.72324 0.56809 0.83097 0.0
H466 H 0.70893 0.53746 0.79292 0.0
H467 H 0.62682 0.50742 0.77111 0.0
H468 H 0.58349 0.51698 0.79165 0.0
H469 H 0.54314 0.58624 0.81066 0.0
H470 H 0.56083 0.62026 0.79633 0.0
H471 H 0.6434 0.64996 0.81624 0.0
H472 H 0.68298 0.63648 0.84687 0.0
H473 H 0.66205 0.60845 0.68187 0.0
H474 H 0.59846 0.5754 0.67406 0.0
H475 H 0.60711 0.60209 0.93363 0.0
H476 H 0.6335 0.54505 0.93787 0.0
C477 C 0.39418 0.131 0.99084 0.0
C478 C 0.37175 0.12996 0.97515 0.0
C479 C 0.35636 0.12926 1.00567 0.0
C480 C 0.37022 0.12995 0.03814 0.0
N481 N 0.3933 0.1311 0.02985 0.0
Co482 Co 0.4193 0.13223 0.06768 0.0
N483 N 0.39954 0.12039 0.10787 0.0
C484 C 0.37583 0.12004 0.10825 0.0
C485 C 0.36685 0.11133 0.14035 0.0
C486 C 0.3861 0.10603 0.16157 0.0
C487 C 0.4059 0.11182 0.14107 0.0
N488 N 0.44518 0.13343 0.10558 0.0
C489 C 0.44775 0.12406 0.13948 0.0
C490 C 0.46858 0.12935 0.15738 0.0
C491 C 0.4791 0.14258 0.13382 0.0
C492 C 0.4642 0.14466 0.10283 0.0
N493 N 0.43842 0.14391 0.02625 0.0
C494 C 0.45811 0.15411 0.03152 0.0
C495 C 0.4682 0.15929 0.99698 0.0
C496 C 0.45391 0.15183 0.96856 0.0
C497 C 0.43581 0.14246 0.98729 0.0
N498 N 0.40908 0.15783 0.08591 0.0
C499 C 0.40336 0.19512 0.11625 0.0
C500 C 0.40436 0.1917 0.07615 0.0
C501 C 0.40686 0.17303 0.06161 0.0
C502 C 0.40444 0.17925 0.14034 0.0
C503 C 0.40745 0.16105 0.1249 0.0
N504 N 0.43096 0.10702 0.05156 0.0
C505 C 0.46507 0.08755 0.03852 0.0
C506 C 0.45174 0.07096 0.04072 0.0
C507 C 0.42735 0.07292 0.04735 0.0
C508 C 0.41728 0.09108 0.05227 0.0
C509 C 0.45453 0.10516 0.04407 0.0
H510 H 0.39862 0.09219 0.05788 0.0
H511 H 0.46596 0.11723 0.04401 0.0
H512 H 0.40781 0.171 0.03076 0.0
H513 H 0.40959 0.14968 0.14517 0.0
C514 C 0.36293 0.12534 0.07554 0.0
C515 C 0.41583 0.13281 0.96813 0.0
C516 C 0.4301 0.11103 0.15603 0.0
C517 C 0.46902 0.15441 0.06814 0.0
H518 H 0.36705 0.12962 0.9449 0.0
H519 H 0.33748 0.12738 1.00427 0.0
H520 H 0.34854 0.10868 0.14709 0.0
H521 H 0.38552 0.09911 0.18938 0.0
H522 H 0.47541 0.12424 0.18458 0.0
H523 H 0.49599 0.14932 0.13818 0.0
H524 H 0.48475 0.16658 0.99282 0.0
H525 H 0.45667 0.15292 0.93777 0.0
H526 H 0.40335 0.20339 0.05607 0.0
H527 H 0.40405 0.18089 0.1714 0.0
H528 H 0.48394 0.087 0.03426 0.0
H529 H 0.41618 0.06056 0.04902 0.0
C530 C 0.82812 0.94603 0.32286 0.0
C531 C 0.80817 0.957 0.31729 0.0
C532 C 0.81515 0.97245 0.29616 0.0
C533 C 0.83887 0.97002 0.28994 0.0
N534 N 0.84709 0.95398 0.30571 0.0
Co535 Co 0.88008 0.94519 0.30461 0.0
N536 N 0.89181 0.97119 0.29662 0.0
C537 C 0.87917 0.98555 0.28176 0.0
C538 C 0.89219 1.00171 0.27706 0.0
C539 C 0.9144 0.99715 0.2895 0.0
C540 C 0.91367 0.97839 0.3015 0.0
N541 N 0.91314 0.9365 0.30342 0.0
C542 C 0.93334 0.94648 0.30883 0.0
C543 C 0.95261 0.93442 0.30738 0.0
C544 C 0.94403 0.91657 0.29981 0.0
C545 C 0.91999 0.91853 0.2974 0.0
N546 N 0.86742 0.91944 0.31309 0.0
C547 C 0.87888 0.90324 0.30567 0.0
C548 C 0.86623 0.88771 0.31774 0.0
C549 C 0.84572 0.89475 0.33368 0.0
C550 C 0.84689 0.91425 0.33051 0.0
N551 N 0.8789 0.94134 0.24766 0.0
C552 C 0.88497 0.92963 0.16961 0.0
C553 C 0.8652 0.92396 0.19146 0.0
C554 C 0.86243 0.93004 0.23019 0.0
C555 C 0.90051 0.94236 0.18736 0.0
C556 C 0.89732 0.94785 0.22582 0.0
N557 N 0.88282 0.94824 0.36084 0.0
C558 C 0.89845 0.93525 0.41969 0.0
C559 C 0.89385 0.95199 0.43934 0.0
C560 C 0.88263 0.96678 0.41947 0.0
C561 C 0.87726 0.96461 0.37991 0.0
C562 C 0.89281 0.93365 0.38094 0.0
H563 H 0.86924 0.97622 0.36451 0.0
H564 H 0.89746 0.92062 0.36705 0.0
H565 H 0.84754 0.9249 0.24649 0.0
H566 H 0.91073 0.95666 0.23829 0.0
C567 C 0.85463 0.98408 0.27793 0.0
C568 C 0.82837 0.92776 0.34296 0.0
C569 C 0.93447 0.96736 0.31329 0.0
C570 C 0.90325 0.90371 0.29741 0.0
H571 H 0.79055 0.95421 0.32772 0.0
H572 H 0.80447 0.98454 0.28837 0.0
H573 H 0.88619 0.0153 0.26664 0.0
H574 H 0.92949 1.00648 0.28887 0.0
H575 H 0.97093 0.93799 0.31167 0.0
H576 H 0.95408 0.90359 0.29826 0.0
H577 H 0.87191 0.87311 0.31759 0.0
H578 H 0.83184 0.88651 0.3468 0.0
H579 H 0.85243 0.91427 0.1794 0.0
H580 H 0.91559 0.94787 0.17194 0.0
H581 H 0.90688 0.92346 0.43414 0.0
H582 H 0.87866 0.97995 0.43402 0.0
C583 C 0.11293 0.39155 0.49341 0.0
C584 C 0.13543 0.39279 0.47802 0.0
C585 C 0.15061 0.39391 0.50871 0.0
C586 C 0.13658 0.39326 0.54097 0.0
N587 N 0.11357 0.39175 0.53243 0.0
Co588 Co 0.08743 0.39032 0.57004 0.0
N589 N 0.10681 0.40251 0.61041 0.0
C590 C 0.13051 0.40326 0.6109 0.0
C591 C 0.13924 0.41208 0.64308 0.0
C592 C 0.11985 0.41703 0.66428 0.0
C593 C 0.10021 0.41093 0.6437 0.0
N594 N 0.06146 0.3888 0.60777 0.0
C595 C 0.05866 0.39799 0.64187 0.0
C596 C 0.03793 0.39235 0.65962 0.0
C597 C 0.02771 0.37907 0.6358 0.0
C598 C 0.04268 0.37731 0.60481 0.0
N599 N 0.06871 0.3783 0.52844 0.0
C600 C 0.0492 0.36787 0.53357 0.0
C601 C 0.03944 0.36233 0.49898 0.0
C602 C 0.05376 0.3698 0.47066 0.0
C603 C 0.07155 0.37952 0.48948 0.0
N604 N 0.09815 0.36488 0.58835 0.0
C605 C 0.10428 0.32763 0.61857 0.0
C606 C 0.1034 0.33104 0.57848 0.0
C607 C 0.1007 0.34969 0.56402 0.0
C608 C 0.10293 0.34349 0.64272 0.0
C609 C 0.09973 0.36168 0.62733 0.0
N610 N 0.07521 0.41536 0.55374 0.0
C611 C 0.04073 0.4343 0.53985 0.0
C612 C 0.05369 0.4511 0.54163 0.0
C613 C 0.07808 0.4495 0.54868 0.0
C614 C 0.08853 0.43151 0.55426 0.0
C615 C 0.05163 0.41687 0.54602 0.0
H616 H 0.10718 0.43071 0.5601 0.0
H617 H 0.04046 0.40463 0.54611 0.0
H618 H 0.09985 0.35171 0.53316 0.0
H619 H 0.09739 0.37302 0.64764 0.0
C620 C 0.14362 0.39808 0.57836 0.0
C621 C 0.09149 0.38922 0.47039 0.0
C622 C 0.07603 0.41115 0.65886 0.0
C623 C 0.03817 0.36747 0.57007 0.0
H624 H 0.1403 0.39296 0.44784 0.0
H625 H 0.16947 0.396 0.50754 0.0
H626 H 0.15748 0.41498 0.64993 0.0
H627 H 0.12027 0.42388 0.69219 0.0
H628 H 0.031 0.39725 0.68695 0.0
H629 H 0.011 0.37204 0.64005 0.0
H630 H 0.0231 0.35475 0.49471 0.0
H631 H 0.05126 0.36844 0.43984 0.0
H632 H 0.10465 0.31937 0.55834 0.0
H633 H 0.10325 0.34185 0.67378 0.0
H634 H 0.02187 0.43456 0.53528 0.0
H635 H 0.089 0.46202 0.55007 0.0
C636 C 0.68393 0.9459 0.53644 0.0
C637 C 0.70371 0.95716 0.54109 0.0
C638 C 0.69661 0.97279 0.56162 0.0
C639 C 0.67299 0.97016 0.56843 0.0
N640 N 0.66494 0.95384 0.5536 0.0
Co641 Co 0.63214 0.94469 0.55592 0.0
N642 N 0.61996 0.97065 0.563 0.0
C643 C 0.63248 0.98533 0.57685 0.0
C644 C 0.6192 1.00137 0.58133 0.0
C645 C 0.59694 0.99641 0.56985 0.0
C646 C 0.59789 0.97754 0.55858 0.0
N647 N 0.59924 0.93563 0.55842 0.0
C648 C 0.57876 0.94532 0.5533 0.0
C649 C 0.55976 0.93304 0.55592 0.0
C650 C 0.5688 0.91539 0.564 0.0
C651 C 0.59282 0.91766 0.56551 0.0
N652 N 0.64523 0.91898 0.54829 0.0
C653 C 0.63416 0.90274 0.5568 0.0
C654 C 0.64702 0.88723 0.54518 0.0
C655 C 0.66724 0.8943 0.52839 0.0
C656 C 0.6657 0.91382 0.53064 0.0
N657 N 0.63393 0.94147 0.61284 0.0
C658 C 0.62767 0.92899 0.69005 0.0
C659 C 0.64761 0.92366 0.66831 0.0
C660 C 0.6505 0.93017 0.63 0.0
C661 C 0.61225 0.94201 0.673 0.0
C662 C 0.61555 0.94791 0.63488 0.0
N663 N 0.62884 0.94694 0.49974 0.0
C664 C 0.6133 0.93262 0.4422 0.0
C665 C 0.61752 0.94901 0.42125 0.0
C666 C 0.62854 0.96432 0.43976 0.0
C667 C 0.63406 0.963 0.47944 0.0
C668 C 0.61902 0.93188 0.48091 0.0
H669 H 0.64194 0.97497 0.49389 0.0
H670 H 0.61461 0.91909 0.49573 0.0
H671 H 0.66545 0.92519 0.61359 0.0
H672 H 0.60213 0.9568 0.62269 0.0
C673 C 0.65706 0.98418 0.58015 0.0
C674 C 0.68386 0.9274 0.51719 0.0
C675 C 0.57712 0.96615 0.54811 0.0
C676 C 0.60987 0.90305 0.56575 0.0
H677 H 0.7213 0.95444 0.53043 0.0
H678 H 0.70711 0.98508 0.56863 0.0
H679 H 0.62505 0.01514 0.59107 0.0
H680 H 0.58169 1.00557 0.57071 0.0
H681 H 0.54133 0.93633 0.55211 0.0
H682 H 0.55903 0.90232 0.5665 0.0
H683 H 0.64164 0.87256 0.54621 0.0
H684 H 0.6812 0.88607 0.51539 0.0
H685 H 0.66033 0.91382 0.67999 0.0
H686 H 0.59708 0.94729 0.68857 0.0
H687 H 0.60509 0.92043 0.4288 0.0
H688 H 0.63224 0.97722 0.42413 0.0
C689 C 0.11247 0.13097 0.87022 0.0
C690 C 0.13484 0.12952 0.88604 0.0
C691 C 0.15027 0.12856 0.85564 0.0
C692 C 0.13651 0.12951 0.8231 0.0
N693 N 0.11344 0.13106 0.83121 0.0
Co694 Co 0.08763 0.1329 0.79308 0.0
N695 N 0.10722 0.12083 0.75286 0.0
C696 C 0.13091 0.11997 0.75278 0.0
C697 C 0.13979 0.11122 0.72061 0.0
C698 C 0.1205 0.10643 0.699 0.0
C699 C 0.10078 0.11254 0.71937 0.0
N700 N 0.06202 0.13484 0.75481 0.0
C701 C 0.05935 0.12573 0.72059 0.0
C702 C 0.03881 0.13156 0.70253 0.0
C703 C 0.02857 0.14486 0.72632 0.0
C704 C 0.04335 0.14646 0.7576 0.0
N705 N 0.06866 0.14472 0.83462 0.0
C706 C 0.04928 0.1553 0.82934 0.0
C707 C 0.03923 0.1606 0.86387 0.0
C708 C 0.05323 0.15282 0.8923 0.0
C709 C 0.07113 0.14316 0.8736 0.0
N710 N 0.09868 0.15839 0.77564 0.0
C711 C 0.10477 0.19577 0.74607 0.0
C712 C 0.10347 0.19223 0.78609 0.0
C713 C 0.10082 0.17352 0.80025 0.0
C714 C 0.1039 0.17997 0.7217 0.0
C715 C 0.10071 0.16173 0.73675 0.0
N716 N 0.07504 0.10785 0.80829 0.0
C717 C 0.03996 0.08898 0.81712 0.0
C718 C 0.05278 0.07218 0.81436 0.0
C719 C 0.07746 0.07364 0.81104 0.0
C720 C 0.08826 0.09163 0.80795 0.0
C721 C 0.05126 0.10641 0.81423 0.0
H722 H 0.10707 0.09241 0.80367 0.0
H723 H 0.04026 0.11875 0.81477 0.0
H724 H 0.0996 0.1714 0.83104 0.0
H725 H 0.09865 0.15046 0.71621 0.0
C726 C 0.14381 0.12489 0.78572 0.0
C727 C 0.09086 0.1332 0.89286 0.0
C728 C 0.07666 0.11238 0.70396 0.0
C729 C 0.03861 0.15606 0.79256 0.0
H730 H 0.13947 0.1291 0.91632 0.0
H731 H 0.1691 0.12636 0.85715 0.0
H732 H 0.15805 0.10823 0.71404 0.0
H733 H 0.12102 0.09964 0.67103 0.0
H734 H 0.03198 0.12674 0.67509 0.0
H735 H 0.01192 0.15197 0.72192 0.0
H736 H 0.02291 0.16824 0.868 0.0
H737 H 0.05044 0.15394 0.92309 0.0
H738 H 0.10435 0.20385 0.8064 0.0
H739 H 0.10454 0.18172 0.69068 0.0
H740 H 0.021 0.08869 0.82051 0.0
H741 H 0.08819 0.06102 0.8091 0.0
C742 C 0.82745 0.5736 0.03632 0.0
C743 C 0.80693 0.56297 0.03722 0.0
C744 C 0.81242 0.54633 0.05549 0.0
C745 C 0.83587 0.54777 0.0648 0.0
N746 N 0.84536 0.56429 0.05362 0.0
Co747 Co 0.87833 0.57221 0.06215 0.0
N748 N 0.88889 0.54566 0.06632 0.0
C749 C 0.87505 0.53087 0.07536 0.0
C750 C 0.88736 0.51428 0.07883 0.0
C751 C 0.91038 0.51898 0.07178 0.0
C752 C 0.91084 0.53827 0.06401 0.0
N753 N 0.91125 0.57989 0.07281 0.0
C754 C 0.93154 0.56982 0.06934 0.0
C755 C 0.95072 0.58134 0.07745 0.0
C756 C 0.94189 0.59883 0.08743 0.0
C757 C 0.91784 0.59729 0.08445 0.0
N758 N 0.86712 0.59854 0.05583 0.0
C759 C 0.8786 0.61408 0.06765 0.0
C760 C 0.86726 0.63038 0.05631 0.0
C761 C 0.84756 0.62457 0.03615 0.0
C762 C 0.84786 0.60499 0.03628 0.0
N763 N 0.87323 0.57349 0.11876 0.0
C764 C 0.87992 0.58615 0.19537 0.0
C765 C 0.86115 0.59299 0.1728 0.0
C766 C 0.85791 0.58628 0.13474 0.0
C767 C 0.89315 0.57119 0.18021 0.0
C768 C 0.88955 0.5651 0.14233 0.0
N769 N 0.88494 0.57211 1.00637 0.0
C770 C 0.90733 0.58652 0.95558 0.0
C771 C 0.89514 0.57652 0.92722 0.0
C772 C 0.87838 0.5631 0.93985 0.0
C773 C 0.87399 0.56076 0.97982 0.0
C774 C 0.90095 0.58509 0.99369 0.0
H775 H 0.86133 0.55031 0.98905 0.0
H776 H 0.90898 0.59516 1.01246 0.0
H777 H 0.84424 0.59259 0.11733 0.0
H778 H 0.90182 0.55487 0.13134 0.0
C779 C 0.85048 0.53276 0.07578 0.0
C780 C 0.8293 0.59259 0.01967 0.0
C781 C 0.93262 0.54939 0.05939 0.0
C782 C 0.90179 0.61255 0.08208 0.0
H783 H 0.78991 0.56674 0.02549 0.0
H784 H 0.80101 0.53423 0.05944 0.0
H785 H 0.88043 0.50037 0.08521 0.0
H786 H 0.92517 0.50937 0.07341 0.0
H787 H 0.96919 0.57785 0.07541 0.0
H788 H 0.95196 0.61149 0.09333 0.0
H789 H 0.87321 0.64478 0.06038 0.0
H790 H 0.83463 0.63366 0.02274 0.0
H791 H 0.84998 0.60425 0.18341 0.0
H792 H 0.90721 0.56481 0.19682 0.0
H793 H 0.92155 0.59613 0.94889 0.0
H794 H 0.86845 0.55474 0.9194 0.0
C795 C 0.39501 0.39076 0.37099 0.0
C796 C 0.3726 0.39185 0.38675 0.0
C797 C 0.35719 0.39257 0.35628 0.0
C798 C 0.37101 0.39184 0.32376 0.0
N799 N 0.39409 0.39064 0.33199 0.0
Co800 Co 0.42005 0.38946 0.29409 0.0
N801 N 0.40028 0.40134 0.25396 0.0
C802 C 0.37657 0.40174 0.25364 0.0
C803 C 0.36759 0.41049 0.22156 0.0
C804 C 0.38684 0.41575 0.20031 0.0
C805 C 0.40664 0.40993 0.22078 0.0
N806 N 0.44589 0.38822 0.25613 0.0
C807 C 0.44847 0.3976 0.22225 0.0
C808 C 0.46927 0.39227 0.20429 0.0
C809 C 0.47977 0.37901 0.22779 0.0
C810 C 0.46488 0.37694 0.25881 0.0
N811 N 0.43918 0.37775 0.33546 0.0
C812 C 0.45884 0.36751 0.33013 0.0
C813 C 0.46897 0.36232 0.36465 0.0
C814 C 0.45473 0.36982 0.3931 0.0
C815 C 0.43662 0.37922 0.37442 0.0
N816 N 0.40975 0.36389 0.27588 0.0
C817 C 0.40381 0.32663 0.24555 0.0
C818 C 0.40488 0.33003 0.28565 0.0
C819 C 0.40748 0.3487 0.30018 0.0
C820 C 0.40496 0.34249 0.22146 0.0
C821 C 0.40808 0.36068 0.2369 0.0
N822 N 0.43178 0.41465 0.31019 0.0
C823 C 0.46592 0.43407 0.32313 0.0
C824 C 0.4526 0.45068 0.32107 0.0
C825 C 0.4282 0.44875 0.31454 0.0
C826 C 0.4181 0.43061 0.3096 0.0
C827 C 0.45535 0.41648 0.31758 0.0
H828 H 0.39944 0.42952 0.30407 0.0
H829 H 0.46678 0.40439 0.31755 0.0
H830 H 0.40847 0.35073 0.33103 0.0
H831 H 0.41025 0.37204 0.21662 0.0
C832 C 0.36369 0.39646 0.28638 0.0
C833 C 0.41669 0.38893 0.39362 0.0
C834 C 0.43083 0.41069 0.20579 0.0
C835 C 0.46972 0.36718 0.29348 0.0
H836 H 0.36794 0.39222 0.41702 0.0
H837 H 0.3383 0.39449 0.35775 0.0
H838 H 0.34928 0.41317 0.21487 0.0
H839 H 0.38626 0.42269 0.17253 0.0
H840 H 0.47609 0.39739 0.1771 0.0
H841 H 0.49664 0.37223 0.22338 0.0
H842 H 0.48551 0.355 0.36876 0.0
H843 H 0.45753 0.36874 0.42388 0.0
H844 H 0.40382 0.31835 0.30574 0.0
H845 H 0.40453 0.34085 0.1904 0.0
H846 H 0.4848 0.4346 0.32731 0.0
H847 H 0.41703 0.46113 0.31297 0.0
C848 C 0.29038 0.10953 0.49774 0.0
C849 C 0.30822 0.09651 0.48853 0.0
C850 C 0.26982 0.11126 0.47469 0.0
C851 C 0.26672 0.09962 0.44157 0.0
C852 C 0.28507 0.08684 0.43172 0.0
C853 C 0.30534 0.08538 0.45526 0.0
C854 C 0.25094 0.12505 0.48672 0.0
C855 C 0.28292 0.07409 0.39695 0.0
C856 C 0.20499 0.08611 0.40471 0.0
C857 C 0.20232 0.09737 0.37163 0.0
C858 C 0.22528 0.08723 0.42828 0.0
C859 C 0.24386 0.0998 0.41864 0.0
C860 C 0.24098 0.11159 0.38574 0.0
C861 C 0.2204 0.11019 0.36266 0.0
C862 C 0.22718 0.07435 0.46281 0.0
C863 C 0.26012 0.12518 0.37396 0.0
H864 H 0.292 0.11779 0.52394 0.0
H865 H 0.31878 0.07505 0.44824 0.0
H866 H 0.24582 0.13411 0.46199 0.0
H867 H 0.23501 0.11717 0.49586 0.0
H868 H 0.25671 0.13425 0.51093 0.0
H869 H 0.29928 0.0659 0.39152 0.0
H870 H 0.2682 0.06401 0.40131 0.0
H871 H 0.27878 0.08254 0.37089 0.0
H872 H 0.19135 0.07592 0.41155 0.0
H873 H 0.21894 0.11855 0.3366 0.0
H874 H 0.23149 0.08266 0.48903 0.0
H875 H 0.24172 0.0641 0.45827 0.0
H876 H 0.21067 0.06634 0.4681 0.0
H877 H 0.26541 0.13409 0.39885 0.0
H878 H 0.25452 0.13453 0.34992 0.0
H879 H 0.2759 0.11713 0.36466 0.0
C880 C 0.9204 0.80229 0.69444 0.0
C881 C 0.90506 0.80705 0.72491 0.0
C882 C 0.91998 0.78429 0.67652 0.0
C883 C 0.90362 0.77035 0.68869 0.0
C884 C 0.88813 0.77499 0.71959 0.0
C885 C 0.88916 0.79308 0.73743 0.0
C886 C 0.93724 0.78018 0.64449 0.0
C887 C 0.87022 0.76084 0.73358 0.0
C888 C 0.88988 0.72947 0.61768 0.0
C889 C 0.90348 0.71445 0.6323 0.0
C890 C 0.88941 0.74747 0.63593 0.0
C891 C 0.90314 0.75094 0.66955 0.0
C892 C 0.91707 0.73589 0.68414 0.0
C893 C 0.91699 0.71802 0.66566 0.0
C894 C 0.87409 0.76283 0.61924 0.0
C895 C 0.93241 0.73872 0.71923 0.0
H896 H 0.93308 0.81268 0.68468 0.0
H897 H 0.87708 0.79644 0.76063 0.0
H898 H 0.94822 0.76777 0.65217 0.0
H899 H 0.92761 0.77656 0.61764 0.0
H900 H 0.94904 0.79235 0.6385 0.0
H901 H 0.85918 0.76654 0.75736 0.0
H902 H 0.85857 0.7566 0.70938 0.0
H903 H 0.87923 0.74789 0.7439 0.0
H904 H 0.87921 0.72707 0.59224 0.0
H905 H 0.92795 0.70682 0.67715 0.0
H906 H 0.88513 0.77501 0.61039 0.0
H907 H 0.86161 0.76803 0.64149 0.0
H908 H 0.86388 0.75789 0.59382 0.0
H909 H 0.94538 0.75012 0.71366 0.0
H910 H 0.9421 0.72567 0.72734 0.0
H911 H 0.9215 0.74326 0.74411 0.0
C912 C 0.29271 0.41249 0.86456 0.0
C913 C 0.31052 0.42554 0.87366 0.0
C914 C 0.27222 0.4107 0.88776 0.0
C915 C 0.26917 0.42232 0.92093 0.0
C916 C 0.28749 0.43514 0.93067 0.0
C917 C 0.30769 0.43665 0.90697 0.0
C918 C 0.25337 0.39689 0.87584 0.0
C919 C 0.28539 0.44786 0.96548 0.0
C920 C 0.20743 0.43557 0.95824 0.0
C921 C 0.20489 0.42423 0.99123 0.0
C922 C 0.2277 0.43459 0.93459 0.0
C923 C 0.24639 0.42206 0.94404 0.0
C924 C 0.24366 0.41022 0.9769 0.0
C925 C 0.2231 0.4115 1.00008 0.0
C926 C 0.22945 0.44752 0.90012 0.0
C927 C 0.26291 0.3967 0.9885 0.0
H928 H 0.2943 0.40424 0.83833 0.0
H929 H 0.32111 0.44701 0.9139 0.0
H930 H 0.24838 0.38779 0.90058 0.0
H931 H 0.23736 0.40473 0.86689 0.0
H932 H 0.25909 0.38773 0.85153 0.0
H933 H 0.30174 0.45607 0.97082 0.0
H934 H 0.27062 0.45791 0.96127 0.0
H935 H 0.28135 0.43938 0.99156 0.0
H936 H 0.19369 0.44569 0.9515 0.0
H937 H 0.22174 0.40308 0.02607 0.0
H938 H 0.23367 0.43924 0.87381 0.0
H939 H 0.24398 0.45777 0.90456 0.0
H940 H 0.2129 0.45552 0.89504 0.0
H941 H 0.26815 0.3878 0.96355 0.0
H942 H 0.25746 0.38734 1.0126 0.0
H943 H 0.27869 0.40479 0.99761 0.0
C944 C 0.58243 0.79043 0.11846 0.0
C945 C 0.59686 0.80577 0.12933 0.0
C946 C 0.58297 0.77288 0.13821 0.0
C947 C 0.59839 0.77015 0.16998 0.0
C948 C 0.61331 0.7854 0.18074 0.0
C949 C 0.61237 0.80285 0.16053 0.0
C950 C 0.56673 0.75725 0.1252 0.0
C951 C 0.6301 0.7834 0.2142 0.0
C952 C 0.58271 0.73127 0.24399 0.0
C953 C 0.59714 0.71594 0.23297 0.0
C954 C 0.58315 0.74881 0.22423 0.0
C955 C 0.59845 0.75156 0.19231 0.0
C956 C 0.61337 0.73632 0.1814 0.0
C957 C 0.61253 0.71887 0.20162 0.0
C958 C 0.56692 0.76444 0.23739 0.0
C959 C 0.63003 0.73833 0.14777 0.0
H960 H 0.57062 0.79205 0.09417 0.0
H961 H 0.62348 0.8144 0.16997 0.0
H962 H 0.57709 0.74445 0.11786 0.0
H963 H 0.55463 0.75336 0.14904 0.0
H964 H 0.55604 0.76133 0.0997 0.0
H965 H 0.64123 0.79616 0.21822 0.0
H966 H 0.62006 0.78086 0.24114 0.0
H967 H 0.64175 0.771 0.20967 0.0
H968 H 0.57099 0.72964 0.26839 0.0
H969 H 0.62363 0.70733 0.19207 0.0
H970 H 0.55472 0.76831 0.21368 0.0
H971 H 0.57729 0.77725 0.24462 0.0
H972 H 0.55634 0.76035 0.263 0.0
H973 H 0.61989 0.74086 0.12093 0.0
H974 H 0.64117 0.72558 0.14364 0.0
H975 H 0.64166 0.75074 0.15218 0.0
C976 C 0.70842 0.58815 0.90564 0.0
C977 C 0.70548 0.59959 0.87287 0.0
C978 C 0.72866 0.58944 0.92928 0.0
C979 C 0.74684 0.60248 0.92021 0.0
C980 C 0.74363 0.61451 0.88776 0.0
C981 C 0.72318 0.61284 0.86442 0.0
C982 C 0.73099 0.57619 0.96316 0.0
C983 C 0.76228 0.62867 0.87672 0.0
C984 C 0.79267 0.61128 1.00074 0.0
C985 C 0.81073 0.59857 0.99087 0.0
C986 C 0.77237 0.61342 0.97721 0.0
C987 C 0.76971 0.60243 0.94308 0.0
C988 C 0.78839 0.59014 0.93238 0.0
C989 C 0.80846 0.58838 0.95625 0.0
C990 C 0.75321 0.62678 0.98997 0.0
C991 C 0.78667 0.57801 0.89665 0.0
H992 H 0.69509 0.57764 0.91208 0.0
H993 H 0.72158 0.62133 0.83856 0.0
H994 H 0.74598 0.56641 0.95826 0.0
H995 H 0.73484 0.58429 0.98984 0.0
H996 H 0.71482 0.56767 0.96788 0.0
H997 H 0.75625 0.63832 0.85348 0.0
H998 H 0.76747 0.63722 0.90217 0.0
H999 H 0.77823 0.6211 0.86655 0.0
H1000 H 0.79379 0.6188 0.02792 0.0
H1001 H 0.82204 0.57824 0.94873 0.0
H1002 H 0.73759 0.61855 0.99929 0.0
H1003 H 0.74761 0.6359 0.9656 0.0
H1004 H 0.75892 0.63592 1.0143 0.0
H1005 H 0.77231 0.56753 0.90027 0.0
H1006 H 0.8033 0.57029 0.8906 0.0
H1007 H 0.78221 0.58682 0.87123 0.0
C1008 C 0.41658 0.29203 0.24154 0.0
C1009 C 0.40229 0.30692 0.22822 0.0
C1010 C 0.41671 0.27406 0.22321 0.0
C1011 C 0.40188 0.27047 0.19094 0.0
C1012 C 0.387 0.28532 0.17802 0.0
C1013 C 0.38754 0.30322 0.19641 0.0
C1014 C 0.43315 0.25897 0.23798 0.0
C1015 C 0.37047 0.28233 0.14451 0.0
C1016 C 0.41632 0.22965 0.12022 0.0
C1017 C 0.40197 0.21483 0.13358 0.0
C1018 C 0.41658 0.24763 0.13854 0.0
C1019 C 0.40181 0.25128 0.17086 0.0
C1020 C 0.38687 0.2365 0.18384 0.0
C1021 C 0.38728 0.21859 0.16544 0.0
C1022 C 0.43309 0.26265 0.12371 0.0
C1023 C 0.37039 0.23956 0.21741 0.0
H1024 H 0.42829 0.29462 0.26564 0.0
H1025 H 0.37623 0.31441 0.18584 0.0
H1026 H 0.42297 0.24628 0.24663 0.0
H1027 H 0.44536 0.25456 0.21466 0.0
H1028 H 0.44368 0.26385 0.26308 0.0
H1029 H 0.35947 0.29498 0.13857 0.0
H1030 H 0.38067 0.27885 0.11815 0.0
H1031 H 0.35869 0.27016 0.15044 0.0
H1032 H 0.428 0.22702 0.09607 0.0
H1033 H 0.37591 0.20745 0.17605 0.0
H1034 H 0.44536 0.267 0.14699 0.0
H1035 H 0.42298 0.27538 0.1151 0.0
H1036 H 0.44356 0.25772 0.09857 0.0
H1037 H 0.38064 0.24299 0.24373 0.0
H1038 H 0.35933 0.22695 0.22339 0.0
H1039 H 0.35867 0.25178 0.21152 0.0
C1040 C 0.80588 0.93462 0.404 0.0
C1041 C 0.80873 0.92332 0.37098 0.0
C1042 C 0.78572 0.93323 0.42776 0.0
C1043 C 0.76746 0.92029 0.41841 0.0
C1044 C 0.77053 0.90845 0.38558 0.0
C1045 C 0.79097 0.91016 0.36227 0.0
C1046 C 0.78356 0.9462 0.46218 0.0
C1047 C 0.75174 0.89448 0.37413 0.0
C1048 C 0.72162 0.91018 0.49823 0.0
C1049 C 0.70343 0.92287 0.48906 0.0
C1050 C 0.74207 0.90863 0.47488 0.0
C1051 C 0.7447 0.92015 0.44154 0.0
C1052 C 0.72598 0.93257 0.43168 0.0
C1053 C 0.70582 0.93382 0.45549 0.0
C1054 C 0.76134 0.89521 0.48686 0.0
C1055 C 0.72764 0.94518 0.39671 0.0
H1056 H 0.81927 0.94506 0.41063 0.0
H1057 H 0.79256 0.90175 0.33624 0.0
H1058 H 0.7687 0.95614 0.45771 0.0
H1059 H 0.77963 0.9379 0.48854 0.0
H1060 H 0.79985 0.95454 0.46719 0.0
H1061 H 0.75753 0.88513 0.35018 0.0
H1062 H 0.74675 0.88559 0.39918 0.0
H1063 H 0.73572 0.90221 0.36484 0.0
H1064 H 0.72037 0.90208 0.52466 0.0
H1065 H 0.69209 0.94391 0.4485 0.0
H1066 H 0.77708 0.90339 0.49587 0.0
H1067 H 0.76666 0.88618 0.46215 0.0
H1068 H 0.75588 0.88597 0.51116 0.0
H1069 H 0.74208 0.95555 0.40077 0.0
H1070 H 0.71103 0.95304 0.39131 0.0
H1071 H 0.73194 0.93669 0.37072 0.0
C1072 C 0.12039 0.3042 0.6678 0.0
C1073 C 0.10582 0.3079 0.63577 0.0
C1074 C 0.12095 0.28626 0.68596 0.0
C1075 C 0.10629 0.27136 0.67258 0.0
C1076 C 0.09164 0.27496 0.64011 0.0
C1077 C 0.09174 0.29297 0.62203 0.0
C1078 C 0.13731 0.28327 0.7197 0.0
C1079 C 0.07542 0.25982 0.62485 0.0
C1080 C 0.12107 0.21945 0.69756 0.0
C1081 C 0.1062 0.21555 0.72911 0.0
C1082 C 0.1215 0.23741 0.67947 0.0
C1083 C 0.10638 0.25212 0.69241 0.0
C1084 C 0.09143 0.24832 0.72442 0.0
C1085 C 0.09167 0.2303 0.74246 0.0
C1086 C 0.13817 0.24062 0.64623 0.0
C1087 C 0.07473 0.26325 0.73919 0.0
H1088 H 0.13154 0.31542 0.67871 0.0
H1089 H 0.08017 0.29554 0.59775 0.0
H1090 H 0.12698 0.27968 0.74584 0.0
H1091 H 0.14922 0.27117 0.71379 0.0
H1092 H 0.14816 0.29596 0.72599 0.0
H1093 H 0.06499 0.26471 0.59966 0.0
H1094 H 0.08575 0.24721 0.61618 0.0
H1095 H 0.0631 0.2553 0.64792 0.0
H1096 H 0.13256 0.20837 0.68696 0.0
H1097 H 0.07986 0.22756 0.76635 0.0
H1098 H 0.14974 0.25289 0.65248 0.0
H1099 H 0.12807 0.24405 0.61977 0.0
H1100 H 0.14938 0.22808 0.6403 0.0
H1101 H 0.08469 0.276 0.74813 0.0
H1102 H 0.06414 0.25822 0.7641 0.0
H1103 H 0.06256 0.2676 0.71577 0.0
C1104 C 0.05257 0.02982 0.35003 0.0
C1105 C 0.053 0.04423 0.32217 0.0
C1106 C 0.03386 0.01676 0.352 0.0
C1107 C 0.0145 0.01851 0.32646 0.0
C1108 C 0.01417 0.03374 0.29983 0.0
C1109 C 0.03364 0.04607 0.29731 0.0
C1110 C 0.03557 1.00041 0.37978 0.0
C1111 C 0.9936 0.03665 0.27291 0.0
C1112 C 0.97642 0.97632 0.29637 0.0
C1113 C 0.9569 0.97804 0.32095 0.0
C1114 C 0.99579 0.98872 0.29935 0.0
C1115 C 0.9952 1.00392 0.32614 0.0
C1116 C 0.97564 1.00557 0.3513 0.0
C1117 C 0.95703 0.99244 0.34889 0.0
C1118 C 0.01656 0.98592 0.2728 0.0
C1119 C 0.97365 0.02188 0.37922 0.0
H1120 H 0.06769 0.02807 0.36879 0.0
H1121 H 0.03411 0.05661 0.27468 0.0
H1122 H 0.01954 0.99957 0.39792 0.0
H1123 H 0.03679 0.98698 0.3633 0.0
H1124 H 0.05118 1.00153 0.39896 0.0
H1125 H 0.99438 0.05057 0.25819 0.0
H1126 H 0.99354 0.02541 0.25059 0.0
H1127 H 0.97674 0.03565 0.28896 0.0
H1128 H 0.97617 0.9658 0.27365 0.0
H1129 H 0.94178 0.9941 0.36743 0.0
H1130 H 0.0333 0.98687 0.28921 0.0
H1131 H 0.01679 0.99723 0.25069 0.0
H1132 H 0.01592 0.97204 0.25779 0.0
H1133 H 0.98951 0.02269 0.39779 0.0
H1134 H 0.95785 0.02074 0.39796 0.0
H1135 H 0.97262 0.03534 0.36287 0.0
C1136 C 0.99088 0.55322 0.50825 0.0
C1137 C 0.97066 0.55513 0.53147 0.0
C1138 C 0.00485 0.53671 0.50893 0.0
C1139 C 0.99865 0.52143 0.53333 0.0
C1140 C 0.97798 0.52305 0.55621 0.0
C1141 C 0.96429 0.53977 0.55498 0.0
C1142 C 0.02649 0.53572 0.48372 0.0
C1143 C 0.97053 0.50719 0.58259 0.0
C1144 C 0.02268 0.4719 0.51071 0.0
C1145 C 0.04114 0.46982 0.53748 0.0
C1146 C 0.00894 0.48851 0.50895 0.0
C1147 C 0.0136 0.50372 0.53449 0.0
C1148 C 0.03259 0.50195 0.56094 0.0
C1149 C 0.0461 0.48513 0.56207 0.0
C1150 C 0.98913 0.48965 0.48001 0.0
C1151 C 0.03837 0.51774 0.58865 0.0
H1152 H 0.99592 0.56476 0.48948 0.0
H1153 H 0.94896 0.54103 0.57341 0.0
H1154 H 0.04237 0.53365 0.50186 0.0
H1155 H 0.02528 0.52339 0.464 0.0
H1156 H 0.02891 0.5487 0.46615 0.0
H1157 H 0.95391 0.51043 0.59815 0.0
H1158 H 0.96804 0.49401 0.56571 0.0
H1159 H 0.98456 0.50441 0.60411 0.0
H1160 H 0.01879 0.46038 0.49109 0.0
H1161 H 0.06007 0.48373 0.58316 0.0
H1162 H 0.99163 0.50208 0.46097 0.0
H1163 H 0.97213 0.4916 0.49525 0.0
H1164 H 0.98793 0.47676 0.46176 0.0
H1165 H 0.04188 0.53097 0.5725 0.0
H1166 H 0.05393 0.51445 0.60686 0.0
H1167 H 0.02307 0.52046 0.60777 0.0
C1168 C 0.47817 0.47881 0.79619 0.0
C1169 C 0.45873 0.4808 0.82089 0.0
C1170 C 0.49775 0.49103 0.79877 0.0
C1171 C 0.49747 0.50639 0.82519 0.0
C1172 C 0.47793 0.50841 0.85032 0.0
C1173 C 0.45914 0.49541 0.8484 0.0
C1174 C 0.51846 0.48781 0.77229 0.0
C1175 C 0.47621 0.52493 0.87776 0.0
C1176 C 0.55523 0.53177 0.84937 0.0
C1177 C 0.55611 0.54606 0.82125 0.0
C1178 C 0.53632 0.51889 0.8512 0.0
C1179 C 0.51712 0.52072 0.82533 0.0
C1180 C 0.51725 0.53582 0.79837 0.0
C1181 C 0.53697 0.54792 0.79592 0.0
C1182 C 0.5376 0.50264 0.87928 0.0
C1183 C 0.49689 0.53885 0.7711 0.0
H1184 H 0.47773 0.46815 0.77374 0.0
H1185 H 0.44399 0.49731 0.86705 0.0
H1186 H 0.51884 0.49893 0.74979 0.0
H1187 H 0.53522 0.48874 0.78864 0.0
H1188 H 0.5176 0.47382 0.75778 0.0
H1189 H 0.46024 0.52422 0.89619 0.0
H1190 H 0.49194 0.52554 0.89665 0.0
H1191 H 0.47573 0.53831 0.86105 0.0
H1192 H 0.57016 0.52998 0.86851 0.0
H1193 H 0.53776 0.55833 0.77307 0.0
H1194 H 0.53838 0.48911 0.86306 0.0
H1195 H 0.52157 0.50218 0.89749 0.0
H1196 H 0.55326 0.50354 0.89837 0.0
H1197 H 0.49681 0.52758 0.74886 0.0
H1198 H 0.49796 0.55274 0.75627 0.0
H1199 H 0.47992 0.53805 0.78687 0.0
C1200 C 0.54252 0.98536 0.06667 0.0
C1201 C 0.53828 0.9692 0.04402 0.0
C1202 C 0.52752 1.00127 0.06522 0.0
C1203 C 0.50755 1.00122 0.04064 0.0
C1204 C 0.5032 0.985 0.01759 0.0
C1205 C 0.51856 0.9693 0.01946 0.0
C1206 C 0.53314 0.01823 0.09004 0.0
C1207 C 0.48214 0.98416 0.9911 0.0
C1208 C 0.45867 0.03724 0.06328 0.0
C1209 C 0.46395 0.05208 0.03777 0.0
C1210 C 0.47225 0.02046 0.06389 0.0
C1211 C 0.49167 0.01832 0.03841 0.0
C1212 C 0.49649 0.03295 1.01166 0.0
C1213 C 0.48262 0.04949 1.01158 0.0
C1214 C 0.46628 1.00526 0.09276 0.0
C1215 C 0.51682 0.03141 0.98379 0.0
H1216 H 0.55776 0.98566 0.08545 0.0
H1217 H 0.51476 0.95688 1.00226 0.0
H1218 H 0.53585 0.03084 0.07156 0.0
H1219 H 0.51811 0.02136 0.10945 0.0
H1220 H 0.54915 0.01606 0.10789 0.0
H1221 H 0.48106 0.97056 0.97518 0.0
H1222 H 0.46573 0.98607 1.00802 0.0
H1223 H 0.48296 0.99587 0.96987 0.0
H1224 H 0.4445 0.03904 0.0839 0.0
H1225 H 0.48672 0.06064 0.99125 0.0
H1226 H 0.48085 1.00382 0.11387 0.0
H1227 H 0.46434 0.99143 0.07799 0.0
H1228 H 0.44978 1.0084 0.10875 0.0
H1229 H 0.53363 0.03065 1.00004 0.0
H1230 H 0.5177 0.04362 0.96369 0.0
H1231 H 0.51534 0.01823 0.9666 0.0
C1232 C 0.0346 0.47194 0.06797 0.0
C1233 C 0.05384 0.47508 0.04337 0.0
C1234 C 0.0145 0.48364 0.06678 0.0
C1235 C 0.01419 0.49975 0.04241 0.0
C1236 C 0.03351 0.50292 0.01735 0.0
C1237 C 0.05268 0.49027 0.01734 0.0
C1238 C 0.99396 0.47907 0.09276 0.0
C1239 C 0.03475 0.52041 0.99251 0.0
C1240 C 0.95643 0.52576 0.02172 0.0
C1241 C 0.95523 0.5388 0.05229 0.0
C1242 C 0.9753 0.51292 0.01826 0.0
C1243 C 0.9943 0.51377 0.0447 0.0
C1244 C 0.99381 0.5276 0.07439 0.0
C1245 C 0.97395 0.53939 0.0787 0.0
C1246 C 0.97419 0.49773 0.98769 0.0
C1247 C 0.01399 0.52967 0.10242 0.0
H1248 H 0.03557 0.46082 0.08935 0.0
H1249 H 0.06766 0.49301 0.99878 0.0
H1250 H 0.99414 0.48861 0.11815 0.0
H1251 H 0.97701 0.48122 0.07743 0.0
H1252 H 0.99471 0.46426 0.10334 0.0
H1253 H 0.0506 0.52053 0.97372 0.0
H1254 H 0.01889 0.52158 0.97405 0.0
H1255 H 0.03517 0.53313 1.01129 0.0
H1256 H 0.94182 0.5249 1.00166 0.0
H1257 H 0.9728 0.54857 0.10364 0.0
H1258 H 0.9739 0.48364 1.00173 0.0
H1259 H 0.99005 0.49822 0.96912 0.0
H1260 H 0.95834 0.49908 0.96912 0.0
H1261 H 0.01348 0.51798 0.12366 0.0
H1262 H 0.0131 0.54326 0.11847 0.0
H1263 H 0.03113 0.5289 0.08711 0.0
C1264 C 0.45948 0.48443 0.29867 0.0
C1265 C 0.46482 0.46954 0.32404 0.0
C1266 C 0.47304 0.50121 0.29809 0.0
C1267 C 0.49251 0.50331 0.32346 0.0
C1268 C 0.49741 0.48863 0.35007 0.0
C1269 C 0.48355 0.47209 0.35013 0.0
C1270 C 0.46699 0.51646 0.26937 0.0
C1271 C 0.51781 0.49011 0.37782 0.0
C1272 C 0.54327 0.53632 0.29512 0.0
C1273 C 0.53907 0.55244 0.31791 0.0
C1274 C 0.52829 0.5204 0.29654 0.0
C1275 C 0.50837 0.52041 0.32126 0.0
C1276 C 0.50406 0.53658 0.34447 0.0
C1277 C 0.5194 0.55229 0.34261 0.0
C1278 C 0.53386 0.50349 0.27156 0.0
C1279 C 0.48307 0.53737 0.3711 0.0
H1280 H 0.44526 0.48267 0.27813 0.0
H1281 H 0.4877 0.4609 0.37036 0.0
H1282 H 0.46507 0.53027 0.28426 0.0
H1283 H 0.48151 0.51794 0.24818 0.0
H1284 H 0.45046 0.51335 0.25347 0.0
H1285 H 0.51875 0.47787 0.39781 0.0
H1286 H 0.53457 0.49091 0.36146 0.0
H1287 H 0.51635 0.50326 0.39513 0.0
H1288 H 0.55846 0.53606 0.27623 0.0
H1289 H 0.51563 0.56468 0.35993 0.0
H1290 H 0.51879 0.5004 0.25221 0.0
H1291 H 0.53663 0.49085 0.28992 0.0
H1292 H 0.54983 0.5057 0.25362 0.0
H1293 H 0.46662 0.5355 0.35427 0.0
H1294 H 0.48201 0.55095 0.38713 0.0
H1295 H 0.48395 0.52563 0.39223 0.0
C1296 C 0.45743 0.02712 0.513 0.0
C1297 C 0.45694 0.04174 0.54047 0.0
C1298 C 0.47626 0.01414 0.51121 0.0
C1299 C 0.49574 0.01619 0.53643 0.0
C1300 C 0.49595 0.03159 0.56277 0.0
C1301 C 0.47634 0.04379 0.56523 0.0
C1302 C 0.47461 0.99759 0.48384 0.0
C1303 C 0.51661 0.03485 0.58932 0.0
C1304 C 0.53514 0.97469 0.56623 0.0
C1305 C 0.55434 0.9765 0.541 0.0
C1306 C 0.51544 0.9868 0.56358 0.0
C1307 C 0.51538 1.00186 0.53651 0.0
C1308 C 0.53464 1.00363 0.51075 0.0
C1309 C 0.55354 0.99073 0.51278 0.0
C1310 C 0.49501 0.98384 0.59075 0.0
C1311 C 0.536 0.01984 0.48257 0.0
H1312 H 0.44231 0.02519 0.49431 0.0
H1313 H 0.47584 0.05447 0.58764 0.0
H1314 H 0.49041 0.99693 0.4651 0.0
H1315 H 0.47404 0.98424 0.50062 0.0
H1316 H 0.45871 0.9983 0.46525 0.0
H1317 H 0.51572 0.04887 0.60371 0.0
H1318 H 0.51694 0.02378 0.61192 0.0
H1319 H 0.53341 0.03388 0.57307 0.0
H1320 H 0.53587 0.96433 0.58917 0.0
H1321 H 0.56852 0.99248 0.49371 0.0
H1322 H 0.47807 0.98463 0.57487 0.0
H1323 H 0.49488 0.99516 0.6129 0.0
H1324 H 0.49604 0.96997 0.60569 0.0
H1325 H 0.52001 0.02028 0.46426 0.0
H1326 H 0.5517 0.01888 0.46356 0.0
H1327 H 0.53676 0.03339 0.4987 0.0
C1328 C 0.04584 0.03851 0.8373 0.0
C1329 C 0.03977 0.05367 0.81315 0.0
C1330 C 0.03213 0.02178 0.83826 0.0
C1331 C 0.01205 0.01995 0.81405 0.0
C1332 C 0.00627 0.03507 0.78896 0.0
C1333 C 0.02003 0.05165 0.78901 0.0
C1334 C 0.03893 1.00616 0.86567 0.0
C1335 C 0.98548 0.03375 0.76197 0.0
C1336 C 0.98954 0.97031 0.78931 0.0
C1337 C 0.96962 0.96843 0.81311 0.0
C1338 C 1.00332 0.98688 0.78929 0.0
C1339 C 0.99739 1.00212 0.81406 0.0
C1340 C 0.97715 1.0004 0.83795 0.0
C1341 C 0.96342 0.98369 0.83694 0.0
C1342 C 0.02428 0.98807 0.76262 0.0
C1343 C 0.97019 0.01614 0.86503 0.0
H1344 H 0.0609 0.03994 0.85627 0.0
H1345 H 0.0153 0.06317 0.76992 0.0
H1346 H 0.02411 1.00317 0.8856 0.0
H1347 H 0.04252 0.99298 0.84933 0.0
H1348 H 0.05476 1.00978 0.88299 0.0
H1349 H 0.98347 0.0466 0.74386 0.0
H1350 H 0.98748 0.02131 0.74272 0.0
H1351 H 0.96906 0.03169 0.77875 0.0
H1352 H 0.99438 0.9587 0.77046 0.0
H1353 H 0.94822 0.98236 0.85564 0.0
H1354 H 0.0406 0.99022 0.77965 0.0
H1355 H 0.0224 1.00041 0.74314 0.0
H1356 H 0.02641 0.97514 0.74475 0.0
H1357 H 0.9849 0.01924 0.88512 0.0
H1358 H 0.95428 0.0126 0.88218 0.0
H1359 H 0.96667 0.02924 0.84844 0.0
C1360 C 0.07486 0.08385 0.66157 0.0
C1361 C 0.07342 0.10356 0.66524 0.0
C1362 C 0.07958 0.07533 0.62565 0.0
C1363 C 0.08318 0.08683 0.59272 0.0
C1364 C 0.08016 0.10669 0.59595 0.0
C1365 C 0.07536 0.1148 0.63217 0.0
C1366 C 0.08237 0.05415 0.62359 0.0
C1367 C 0.08371 0.11952 0.56168 0.0
C1368 C 0.12469 0.07266 0.51119 0.0
C1369 C 0.10884 0.06872 0.48134 0.0
C1370 C 0.11656 0.0775 0.54833 0.0
C1371 C 0.09199 0.07848 0.55567 0.0
C1372 C 0.07602 0.07323 0.52618 0.0
C1373 C 0.08463 0.06854 0.48933 0.0
C1374 C 0.13425 0.08287 0.57891 0.0
C1375 C 0.04976 0.07389 0.53266 0.0
H1376 H 0.0739 0.0752 0.68732 0.0
H1377 H 0.0749 0.13006 0.63517 0.0
H1378 H 0.07296 0.04836 0.59814 0.0
H1379 H 0.10129 0.05059 0.62023 0.0
H1380 H 0.07567 0.04707 0.64998 0.0
H1381 H 0.07874 0.13439 0.56814 0.0
H1382 H 0.10249 0.11922 0.55286 0.0
H1383 H 0.07315 0.11452 0.53678 0.0
H1384 H 0.14336 0.07325 0.50479 0.0
H1385 H 0.07236 0.06587 0.466 0.0
H1386 H 0.13055 0.07521 0.60614 0.0
H1387 H 0.13281 0.09822 0.58519 0.0
H1388 H 0.15262 0.07977 0.56987 0.0
H1389 H 0.04507 0.06697 0.56031 0.0
H1390 H 0.0399 0.06692 0.50891 0.0
H1391 H 0.04394 0.08884 0.53454 0.0
C1392 C 0.94263 0.59547 0.71029 0.0
C1393 C 0.92835 0.60922 0.69321 0.0
C1394 C 0.9383 0.58939 0.74832 0.0
C1395 C 0.91825 0.59631 0.76843 0.0
C1396 C 0.90393 0.6103 0.75095 0.0
C1397 C 0.91004 0.61733 0.71467 0.0
C1398 C 0.95495 0.57533 0.76631 0.0
C1399 C 0.88162 0.61769 0.7694 0.0
C1400 C 0.89658 0.56806 0.85566 0.0
C1401 C 0.90004 0.58115 0.88564 0.0
C1402 C 0.90221 0.5727 0.81713 0.0
C1403 C 0.9131 0.59032 0.80876 0.0
C1404 C 0.91719 0.60327 0.83899 0.0
C1405 C 0.90924 0.59906 0.87604 0.0
C1406 C 0.89637 0.5586 0.78588 0.0
C1407 C 0.92974 0.62189 0.83278 0.0
H1408 H 0.95684 0.58924 0.6937 0.0
H1409 H 0.89909 0.62812 0.70152 0.0
H1410 H 0.95672 0.57762 0.79786 0.0
H1411 H 0.94812 0.56084 0.76147 0.0
H1412 H 0.97271 0.57615 0.75297 0.0
H1413 H 0.86783 0.62003 0.74717 0.0
H1414 H 0.87437 0.608 0.79154 0.0
H1415 H 0.88521 0.6316 0.78293 0.0
H1416 H 0.88945 0.55422 0.86202 0.0
H1417 H 0.91057 0.61012 0.89748 0.0
H1418 H 0.91107 0.54837 0.78317 0.0
H1419 H 0.89354 0.56543 0.75745 0.0
H1420 H 0.88032 0.55043 0.79344 0.0
H1421 H 0.94219 0.62134 0.80813 0.0
H1422 H 0.93976 0.62606 0.85898 0.0
H1423 H 0.9166 0.63315 0.82729 0.0
C1424 C 0.43224 0.43956 0.16446 0.0
C1425 C 0.43409 0.41986 0.16748 0.0
C1426 C 0.42793 0.44828 0.12866 0.0
C1427 C 0.42513 0.43698 0.09519 0.0
C1428 C 0.42845 0.41714 0.09787 0.0
C1429 C 0.43285 0.40883 0.13399 0.0
C1430 C 0.42481 0.46945 0.12717 0.0
C1431 C 0.42571 0.40451 0.06302 0.0
C1432 C 0.38522 0.45124 1.01176 0.0
C1433 C 0.40167 0.4554 0.98294 0.0
C1434 C 0.3926 0.44632 0.04923 0.0
C1435 C 0.417 0.44551 0.05796 0.0
C1436 C 0.43355 0.45103 0.02957 0.0
C1437 C 0.42568 0.45579 0.99235 0.0
C1438 C 0.37433 0.44062 0.07862 0.0
C1439 C 0.45965 0.45057 0.03757 0.0
H1440 H 0.43266 0.44804 0.19054 0.0
H1441 H 0.43362 0.39356 0.13648 0.0
H1442 H 0.4347 0.47552 0.10253 0.0
H1443 H 0.40593 0.47283 0.12275 0.0
H1444 H 0.43078 0.47641 0.1542 0.0
H1445 H 0.43067 0.38963 0.06926 0.0
H1446 H 0.40713 0.40479 0.05315 0.0
H1447 H 0.43675 0.40973 0.03888 0.0
H1448 H 0.36671 0.45052 1.00425 0.0
H1449 H 0.43843 0.45866 0.96981 0.0
H1450 H 0.3774 0.44807 0.10633 0.0
H1451 H 0.37577 0.42523 0.08437 0.0
H1452 H 0.35614 0.44371 0.06867 0.0
H1453 H 0.46363 0.45738 0.06567 0.0
H1454 H 0.46992 0.45778 1.01461 0.0
H1455 H 0.46565 0.43567 0.03936 0.0
C1456 C 0.5853 0.94726 0.37323 0.0
C1457 C 0.60947 0.94917 0.38064 0.0
C1458 C 0.57712 0.94064 0.33745 0.0
C1459 C 0.59353 0.93583 0.30833 0.0
C1460 C 0.61786 0.93926 0.31462 0.0
C1461 C 0.62557 0.94582 0.35086 0.0
C1462 C 0.55109 0.93726 0.33213 0.0
C1463 C 0.63592 0.93462 0.28411 0.0
C1464 C 0.58106 0.89576 0.2378 0.0
C1465 C 0.57619 0.90569 0.20387 0.0
C1466 C 0.58563 0.90542 0.27249 0.0
C1467 C 0.58562 0.92549 0.27301 0.0
C1468 C 0.5793 0.93551 0.23923 0.0
C1469 C 0.57456 0.92546 0.2051 0.0
C1470 C 0.59185 0.89416 0.30801 0.0
C1471 C 0.57909 0.95683 0.23838 0.0
H1472 H 0.57289 0.94953 0.39657 0.0
H1473 H 0.64426 0.9469 0.35684 0.0
H1474 H 0.54511 0.94263 0.30372 0.0
H1475 H 0.54756 0.92183 0.33273 0.0
H1476 H 0.54047 0.9441 0.35515 0.0
H1477 H 0.63715 0.91905 0.28065 0.0
H1478 H 0.63056 0.94057 0.25585 0.0
H1479 H 0.65365 0.94013 0.29163 0.0
H1480 H 0.58271 0.8805 0.2366 0.0
H1481 H 0.57104 0.93317 0.17875 0.0
H1482 H 0.5811 0.8989 0.33292 0.0
H1483 H 0.6106 0.89658 0.31553 0.0
H1484 H 0.5891 0.87875 0.30376 0.0
H1485 H 0.56906 0.96255 0.26324 0.0
H1486 H 0.5713 0.96243 0.2113 0.0
H1487 H 0.5974 0.96217 0.24085 0.0
C1488 C 0.07431 0.43931 0.70231 0.0
C1489 C 0.07279 0.41964 0.69788 0.0
C1490 C 0.07923 0.44747 0.73849 0.0
C1491 C 0.08294 0.43565 0.77091 0.0
C1492 C 0.07975 0.41585 0.76697 0.0
C1493 C 0.07475 0.40809 0.7305 0.0
C1494 C 0.0822 0.46862 0.74133 0.0
C1495 C 0.08339 0.40267 0.80067 0.0
C1496 C 0.12535 0.44878 0.85181 0.0
C1497 C 0.10985 0.45261 0.8822 0.0
C1498 C 0.11682 0.44432 0.81475 0.0
C1499 C 0.09217 0.44359 0.80804 0.0
C1500 C 0.07653 0.44868 0.83815 0.0
C1501 C 0.08556 0.453 0.87491 0.0
C1502 C 0.13415 0.43909 0.7835 0.0
C1503 C 0.05021 0.44825 0.83235 0.0
H1504 H 0.07333 0.44821 0.6769 0.0
H1505 H 0.0742 0.39287 0.72691 0.0
H1506 H 0.07306 0.47421 0.76722 0.0
H1507 H 0.10117 0.47205 0.74435 0.0
H1508 H 0.07531 0.47598 0.71538 0.0
H1509 H 0.07816 0.38792 0.79377 0.0
H1510 H 0.10224 0.40271 0.80906 0.0
H1511 H 0.07311 0.40754 0.826 0.0
H1512 H 0.14408 0.44804 0.85768 0.0
H1513 H 0.07355 0.45556 0.89867 0.0
H1514 H 0.13033 0.44711 0.75674 0.0
H1515 H 0.1324 0.42384 0.77654 0.0
H1516 H 0.15264 0.4419 0.79223 0.0
H1517 H 0.04533 0.45545 0.80508 0.0
H1518 H 0.04065 0.45509 0.8566 0.0
H1519 H 0.04423 0.43336 0.83008 0.0
C1520 C 0.58187 0.6263 0.12432 0.0
C1521 C 0.57679 0.61632 0.1581 0.0
C1522 C 0.58653 0.61669 0.0896 0.0
C1523 C 0.58637 0.59663 0.08888 0.0
C1524 C 0.57979 0.58657 0.12247 0.0
C1525 C 0.57498 0.59656 0.15665 0.0
C1526 C 0.59304 0.62801 0.05428 0.0
C1527 C 0.5794 0.56524 0.1231 0.0
C1528 C 0.5866 0.57514 0.9884 0.0
C1529 C 0.6108 0.57313 0.98141 0.0
C1530 C 0.57822 0.58169 0.02411 0.0
C1531 C 0.59445 0.58633 0.05359 0.0
C1532 C 0.6188 0.5828 0.04771 0.0
C1533 C 0.62672 0.57632 1.01153 0.0
C1534 C 0.55217 0.58518 0.02901 0.0
C1535 C 0.63668 0.58727 0.0786 0.0
H1536 H 0.58365 0.64155 0.1257 0.0
H1537 H 0.5713 0.58881 0.18289 0.0
H1538 H 0.61182 0.62552 0.04704 0.0
H1539 H 0.5824 0.62338 0.02915 0.0
H1540 H 0.59036 0.64342 0.05863 0.0
H1541 H 0.57136 0.55964 0.14997 0.0
H1542 H 0.56951 0.55965 0.09798 0.0
H1543 H 0.59768 0.5598 0.12095 0.0
H1544 H 0.57434 0.57301 0.96481 0.0
H1545 H 0.64544 0.57516 1.00588 0.0
H1546 H 0.54874 0.60062 0.02845 0.0
H1547 H 0.54596 0.57979 0.05726 0.0
H1548 H 0.54167 0.57842 1.00574 0.0
H1549 H 0.63798 0.60282 0.08228 0.0
H1550 H 0.65442 0.58169 0.07134 0.0
H1551 H 0.63108 0.58126 0.10669 0.0
C1552 C 0.42407 0.06629 0.36977 0.0
C1553 C 0.40001 0.06679 0.37887 0.0
C1554 C 0.43215 0.07096 0.33263 0.0
C1555 C 0.41578 0.07653 0.30399 0.0
C1556 C 0.39133 0.07586 0.31242 0.0
C1557 C 0.38374 0.07101 0.34982 0.0
C1558 C 0.45829 0.07129 0.32496 0.0
C1559 C 0.37324 0.08161 0.28278 0.0
C1560 C 0.43208 0.11301 0.22782 0.0
C1561 C 0.43333 0.10192 0.19441 0.0
C1562 C 0.42757 0.10477 0.26398 0.0
C1563 C 0.42414 0.08495 0.26679 0.0
C1564 C 0.42697 0.07358 0.23343 0.0
C1565 C 0.4314 0.08222 0.19758 0.0
C1566 C 0.42481 0.11748 0.29871 0.0
C1567 C 0.42373 0.05243 0.23505 0.0
H1568 H 0.43668 0.06338 0.39249 0.0
H1569 H 0.3652 0.07183 0.35709 0.0
H1570 H 0.46236 0.06443 0.29694 0.0
H1571 H 0.4644 0.08616 0.32317 0.0
H1572 H 0.4684 0.06406 0.34808 0.0
H1573 H 0.35498 0.07866 0.29254 0.0
H1574 H 0.37485 0.09698 0.27688 0.0
H1575 H 0.37637 0.07407 0.25518 0.0
H1576 H 0.43292 0.12827 0.22521 0.0
H1577 H 0.43182 0.0737 0.17156 0.0
H1578 H 0.4357 0.11223 0.32301 0.0
H1579 H 0.40619 0.11734 0.30838 0.0
H1580 H 0.42992 0.13232 0.29242 0.0
H1581 H 0.43347 0.04636 0.25986 0.0
H1582 H 0.42978 0.0454 0.20815 0.0
H1583 H 0.40481 0.04914 0.23926 0.0
C1584 C 0.93536 0.90781 0.63121 0.0
C1585 C 0.93708 0.91914 0.66424 0.0
C1586 C 0.93061 0.91582 0.59491 0.0
C1587 C 0.92742 0.93565 0.59159 0.0
C1588 C 0.93086 0.94725 0.62447 0.0
C1589 C 0.93554 0.93883 0.66046 0.0
C1590 C 0.92725 0.90289 0.56069 0.0
C1591 C 0.92789 0.96841 0.6223 0.0
C1592 C 0.92589 0.95361 0.48809 0.0
C1593 C 0.90169 0.95324 0.48005 0.0
C1594 C 0.93452 0.94911 0.52499 0.0
C1595 C 0.91857 0.94386 0.55449 0.0
C1596 C 0.89399 0.94465 0.54709 0.0
C1597 C 0.88585 0.94931 0.5099 0.0
C1598 C 0.96078 0.94865 0.53154 0.0
C1599 C 0.87633 0.93926 0.57769 0.0
H1600 H 0.93591 0.89257 0.63429 0.0
H1601 H 0.93633 0.94755 0.68619 0.0
H1602 H 0.90848 0.90303 0.55182 0.0
H1603 H 0.93778 0.90791 0.53579 0.0
H1604 H 0.93238 0.88807 0.56723 0.0
H1605 H 0.93456 0.97559 0.64864 0.0
H1606 H 0.93722 0.97419 0.59679 0.0
H1607 H 0.90894 0.97185 0.61898 0.0
H1608 H 0.93816 0.95629 0.46475 0.0
H1609 H 0.86719 0.94859 0.50347 0.0
H1610 H 0.96676 0.93375 0.53349 0.0
H1611 H 0.96536 0.95566 0.55917 0.0
H1612 H 0.97058 0.95565 0.50778 0.0
H1613 H 0.87795 0.92395 0.58415 0.0
H1614 H 0.85794 0.94219 0.56856 0.0
H1615 H 0.87991 0.94706 0.60483 0.0
C1616 C 0.09388 0.14186 0.96386 0.0
C1617 C 0.09147 0.12802 0.93505 0.0
C1618 C 0.09901 0.1369 1.00258 0.0
C1619 C 0.10191 0.1176 1.01306 0.0
C1620 C 0.09894 0.1036 0.98406 0.0
C1621 C 0.094 0.10897 0.94563 0.0
C1622 C 0.10211 0.15239 0.03207 0.0
C1623 C 0.10156 0.08288 0.99341 0.0
C1624 C 0.13719 0.1034 0.10382 0.0
C1625 C 0.11935 0.09937 0.1308 0.0
C1626 C 0.13184 0.10965 0.06593 0.0
C1627 C 0.10804 0.11196 0.05411 0.0
C1628 C 0.09002 0.10828 0.08136 0.0
C1629 C 0.09583 0.10224 0.11903 0.0
C1630 C 0.15175 0.11352 0.03823 0.0
C1631 C 0.06441 0.11045 0.07056 0.0
H1632 H 0.09272 0.15662 0.95578 0.0
H1633 H 0.09272 0.09823 0.9234 0.0
H1634 H 0.09029 0.14995 0.05705 0.0
H1635 H 0.12043 0.15221 0.04313 0.0
H1636 H 0.09836 0.1666 0.01995 0.0
H1637 H 0.09784 0.07369 0.96813 0.0
H1638 H 0.11974 0.08 1.00351 0.0
H1639 H 0.08943 0.07895 0.01717 0.0
H1640 H 0.1554 0.10126 0.11197 0.0
H1641 H 0.08172 0.09982 0.13943 0.0
H1642 H 0.15016 0.12803 0.02642 0.0
H1643 H 0.15073 0.10358 1.0135 0.0
H1644 H 0.16928 0.11201 0.05209 0.0
H1645 H 0.06098 0.12506 0.06045 0.0
H1646 H 0.05242 0.10733 0.09504 0.0
H1647 H 0.06009 0.10077 0.04635 0.0
C1648 C 0.91842 0.6427 0.39046 0.0
C1649 C 0.92089 0.62968 0.42067 0.0
C1650 C 0.9128 0.63665 0.35267 0.0
C1651 C 0.9093 0.61712 0.34492 0.0
C1652 C 0.91272 0.60393 0.37519 0.0
C1653 C 0.91837 0.61036 0.41252 0.0
C1654 C 0.90948 0.65125 0.32146 0.0
C1655 C 0.90934 0.58301 0.3686 0.0
C1656 C 0.87029 0.60085 0.26058 0.0
C1657 C 0.88701 0.59503 0.23316 0.0
C1658 C 0.87726 0.60842 0.29663 0.0
C1659 C 0.90154 0.61039 0.30563 0.0
C1660 C 0.91843 0.60504 0.27762 0.0
C1661 C 0.91101 0.59751 0.24199 0.0
C1662 C 0.85859 0.61391 0.32551 0.0
C1663 C 0.94446 0.60697 0.28554 0.0
H1664 H 0.91958 0.65768 0.39685 0.0
H1665 H 0.91966 0.6003 0.43602 0.0
H1666 H 0.91987 0.6474 0.2955 0.0
H1667 H 0.8907 0.65168 0.31276 0.0
H1668 H 0.91481 0.6656 0.33108 0.0
H1669 H 0.91382 0.57451 0.39452 0.0
H1670 H 0.89074 0.58016 0.36075 0.0
H1671 H 0.92043 0.57815 0.34418 0.0
H1672 H 0.85174 0.59905 0.2543 0.0
H1673 H 0.92418 0.59357 0.22082 0.0
H1674 H 0.86112 0.6288 0.33471 0.0
H1675 H 0.86021 0.60497 0.35165 0.0
H1676 H 0.84051 0.61233 0.31371 0.0
H1677 H 0.94868 0.62175 0.29377 0.0
H1678 H 0.95538 0.60298 0.26022 0.0
H1679 H 0.94946 0.59783 0.31019 0.0
C1680 C 0.41422 0.42143 0.61896 0.0
C1681 C 0.39086 0.42415 0.63167 0.0
C1682 C 0.41952 0.41523 0.58118 0.0
C1683 C 0.40112 0.41121 0.5548 0.0
C1684 C 0.37749 0.41338 0.56757 0.0
C1685 C 0.37266 0.41982 0.60554 0.0
C1686 C 0.44497 0.41322 0.56931 0.0
C1687 C 0.35721 0.40916 0.54083 0.0
C1688 C 0.41345 0.41352 0.44576 0.0
C1689 C 0.41617 0.39442 0.43564 0.0
C1690 C 0.40897 0.41913 0.48421 0.0
C1691 C 0.40667 0.40533 0.51369 0.0
C1692 C 0.4097 0.38598 0.50363 0.0
C1693 C 0.41437 0.38078 0.46487 0.0
C1694 C 0.40619 0.4399 0.49312 0.0
C1695 C 0.40727 0.37069 0.53364 0.0
H1696 H 0.42862 0.4241 0.63871 0.0
H1697 H 0.35455 0.42184 0.6144 0.0
H1698 H 0.44847 0.39856 0.55949 0.0
H1699 H 0.44875 0.42273 0.54465 0.0
H1700 H 0.45731 0.41667 0.59316 0.0
H1701 H 0.33988 0.41062 0.55538 0.0
H1702 H 0.3577 0.41892 0.51582 0.0
H1703 H 0.3588 0.39457 0.52931 0.0
H1704 H 0.4143 0.42411 0.4232 0.0
H1705 H 0.41571 0.36597 0.45715 0.0
H1706 H 0.41866 0.44413 0.5162 0.0
H1707 H 0.38815 0.44268 0.50399 0.0
H1708 H 0.40934 0.44893 0.46743 0.0
H1709 H 0.41951 0.37338 0.55797 0.0
H1710 H 0.41093 0.35641 0.52171 0.0
H1711 H 0.38915 0.37084 0.54559 0.0
C1712 C 0.59858 0.91739 0.74031 0.0
C1713 C 0.62211 0.92077 0.72935 0.0
C1714 C 0.59264 0.91058 0.77731 0.0
C1715 C 0.61057 0.90667 0.80457 0.0
C1716 C 0.6344 0.90948 0.79348 0.0
C1717 C 0.63987 0.91647 0.75625 0.0
C1718 C 0.56701 0.9079 0.78746 0.0
C1719 C 0.65418 0.90543 0.82131 0.0
C1720 C 0.59543 0.9084 0.91241 0.0
C1721 C 0.59319 0.88922 0.9221 0.0
C1722 C 0.60074 0.9142 0.87447 0.0
C1723 C 0.60427 0.90052 0.84508 0.0
C1724 C 0.60168 0.88108 0.85461 0.0
C1725 C 0.59621 0.87568 0.89292 0.0
C1726 C 0.60308 0.93505 0.86606 0.0
C1727 C 0.6053 0.86594 0.82451 0.0
H1728 H 0.58458 0.92004 0.71981 0.0
H1729 H 0.65809 0.919 0.7486 0.0
H1730 H 0.56386 0.89314 0.79693 0.0
H1731 H 0.56224 0.91728 0.81193 0.0
H1732 H 0.55514 0.91107 0.76285 0.0
H1733 H 0.67178 0.90728 0.80786 0.0
H1734 H 0.65286 0.91503 0.84655 0.0
H1735 H 0.65275 0.89075 0.83231 0.0
H1736 H 0.59369 0.91895 0.93489 0.0
H1737 H 0.595 0.86083 0.90035 0.0
H1738 H 0.59101 0.93911 0.84231 0.0
H1739 H 0.62126 0.93821 0.85634 0.0
H1740 H 0.59908 0.94394 0.89167 0.0
H1741 H 0.59345 0.86841 0.79959 0.0
H1742 H 0.60196 0.85154 0.83602 0.0
H1743 H 0.62363 0.86657 0.81353 0.0
C1744 C 0.09483 0.41295 0.41679 0.0
C1745 C 0.09247 0.39399 0.42807 0.0
C1746 C 0.10007 0.41797 0.37829 0.0
C1747 C 0.10352 0.40371 0.34999 0.0
C1748 C 0.10083 0.38449 0.36119 0.0
C1749 C 0.09539 0.37988 0.39996 0.0
C1750 C 0.10243 0.43862 0.3681 0.0
C1751 C 0.10446 0.36874 0.33245 0.0
C1752 C 0.09783 0.41793 0.24344 0.0
C1753 C 0.12135 0.42106 0.232 0.0
C1754 C 0.0919 0.41216 0.2812 0.0
C1755 C 0.10982 0.40898 0.30887 0.0
C1756 C 0.13366 0.41147 0.29737 0.0
C1757 C 0.13911 0.41748 0.25936 0.0
C1758 C 0.06627 0.40977 0.29168 0.0
C1759 C 0.15346 0.4081 0.32553 0.0
H1760 H 0.09316 0.4239 0.43853 0.0
H1761 H 0.09435 0.3652 0.40865 0.0
H1762 H 0.12063 0.44157 0.35819 0.0
H1763 H 0.0904 0.44219 0.34397 0.0
H1764 H 0.0984 0.44803 0.39292 0.0
H1765 H 0.10094 0.3546 0.34513 0.0
H1766 H 0.09276 0.37075 0.30717 0.0
H1767 H 0.12286 0.36903 0.3217 0.0
H1768 H 0.08379 0.41999 0.22272 0.0
H1769 H 0.15732 0.41982 0.25142 0.0
H1770 H 0.06159 0.41966 0.31535 0.0
H1771 H 0.06306 0.39523 0.3024 0.0
H1772 H 0.05437 0.41247 0.26686 0.0
H1773 H 0.15216 0.41831 0.34975 0.0
H1774 H 0.17104 0.40962 0.31185 0.0
H1775 H 0.15202 0.39371 0.33801 0.0
C1776 C 0.6001 0.60546 0.62248 0.0
C1777 C 0.62361 0.60164 0.63295 0.0
C1778 C 0.59405 0.6122 0.58548 0.0
C1779 C 0.61185 0.61553 0.55767 0.0
C1780 C 0.63568 0.61226 0.56823 0.0
C1781 C 0.64126 0.60539 0.60553 0.0
C1782 C 0.56843 0.61544 0.57593 0.0
C1783 C 0.65532 0.61564 0.53977 0.0
C1784 C 0.59552 0.61351 0.45029 0.0
C1785 C 0.59396 0.63269 0.44014 0.0
C1786 C 0.601 0.60782 0.48824 0.0
C1787 C 0.60538 0.62159 0.51717 0.0
C1788 C 0.60346 0.64102 0.50718 0.0
C1789 C 0.59783 0.64632 0.46887 0.0
C1790 C 0.60263 0.58698 0.49715 0.0
C1791 C 0.60795 0.65624 0.53676 0.0
H1792 H 0.58621 0.60319 0.64339 0.0
H1793 H 0.65945 0.60252 0.61283 0.0
H1794 H 0.56574 0.6302 0.56606 0.0
H1795 H 0.56307 0.606 0.55192 0.0
H1796 H 0.5567 0.61276 0.60098 0.0
H1797 H 0.67297 0.61342 0.55279 0.0
H1798 H 0.65337 0.60594 0.51482 0.0
H1799 H 0.65434 0.63029 0.52846 0.0
H1800 H 0.59312 0.60288 0.42816 0.0
H1801 H 0.59715 0.66114 0.46106 0.0
H1802 H 0.59063 0.58337 0.52129 0.0
H1803 H 0.62077 0.58342 0.50652 0.0
H1804 H 0.59806 0.57803 0.47188 0.0
H1805 H 0.59628 0.65421 0.56208 0.0
H1806 H 0.60502 0.67064 0.52497 0.0
H1807 H 0.62637 0.65524 0.54724 0.0
C1808 C 0.41271 0.10072 0.74255 0.0
C1809 C 0.38932 0.09801 0.73002 0.0
C1810 C 0.41813 0.10686 0.78033 0.0
C1811 C 0.39981 0.11082 0.8069 0.0
C1812 C 0.37613 0.10867 0.79432 0.0
C1813 C 0.37119 0.10229 0.75635 0.0
C1814 C 0.44361 0.10885 0.79199 0.0
C1815 C 0.35593 0.11284 0.82127 0.0
C1816 C 0.41248 0.10831 0.91582 0.0
C1817 C 0.41522 0.12739 0.92607 0.0
C1818 C 0.40788 0.10277 0.87737 0.0
C1819 C 0.40548 0.11663 0.84802 0.0
C1820 C 0.40852 0.13596 0.8582 0.0
C1821 C 0.41332 0.14109 0.89696 0.0
C1822 C 0.4051 0.08202 0.86832 0.0
C1823 C 0.40599 0.15131 0.82833 0.0
H1824 H 0.42705 0.0981 0.72266 0.0
H1825 H 0.35306 0.10027 0.74763 0.0
H1826 H 0.44713 0.1235 0.8019 0.0
H1827 H 0.44748 0.0993 0.81654 0.0
H1828 H 0.45588 0.10546 0.768 0.0
H1829 H 0.33856 0.11141 0.80685 0.0
H1830 H 0.3565 0.10302 0.84619 0.0
H1831 H 0.35755 0.1274 0.83289 0.0
H1832 H 0.4134 0.09768 0.93829 0.0
H1833 H 0.41467 0.15588 0.90479 0.0
H1834 H 0.4175 0.07784 0.84509 0.0
H1835 H 0.38703 0.07926 0.85759 0.0
H1836 H 0.40834 0.07295 0.89391 0.0
H1837 H 0.41815 0.14867 0.80388 0.0
H1838 H 0.40967 0.16557 0.84034 0.0
H1839 H 0.38783 0.15118 0.81654 0.0
C1840 C 0.87211 0.91819 0.10271 0.0
C1841 C 0.89014 0.92219 0.12935 0.0
C1842 C 0.87718 0.91198 0.06466 0.0
C1843 C 0.90089 0.9097 0.05236 0.0
C1844 C 0.91911 0.91337 0.07927 0.0
C1845 C 0.91357 0.91936 0.1171 0.0
C1846 C 0.85707 0.90813 0.03733 0.0
C1847 C 0.94464 0.91122 0.06793 0.0
C1848 C 0.91455 0.87988 0.96171 0.0
C1849 C 0.91684 0.89374 0.933 0.0
C1850 C 0.90959 0.88481 1.00052 0.0
C1851 C 0.90673 0.9041 1.01118 0.0
C1852 C 0.9095 0.91812 0.98224 0.0
C1853 C 0.91429 0.91278 0.94373 0.0
C1854 C 0.90667 0.86929 0.02995 0.0
C1855 C 0.9069 0.93883 0.99179 0.0
H1856 H 0.85395 0.92031 0.11123 0.0
H1857 H 0.92783 0.92178 0.13724 0.0
H1858 H 0.8579 0.91809 1.01266 0.0
H1859 H 0.85858 0.89362 0.02537 0.0
H1860 H 0.83964 0.90962 0.05154 0.0
H1861 H 0.95681 0.91433 0.0922 0.0
H1862 H 0.94801 0.89661 0.05766 0.0
H1863 H 0.94877 0.92091 0.04371 0.0
H1864 H 0.91573 0.86512 0.95352 0.0
H1865 H 0.91549 0.92354 0.92157 0.0
H1866 H 0.88844 0.8695 0.04144 0.0
H1867 H 0.91871 0.87168 0.05467 0.0
H1868 H 0.91026 0.85508 0.01763 0.0
H1869 H 0.8888 0.94167 1.00235 0.0
H1870 H 0.91037 0.94804 0.96649 0.0
H1871 H 0.91923 0.94277 1.01529 0.0
loop_
_geom_bond_atom_site_label_1
_geom_bond_atom_site_label_2
_geom_bond_distance
_geom_bond_site_symmetry_2
_ccdc_geom_bond_type
C0 C1 1.443 . S
C0 N4 1.376 . S
C0 C38 1.389 . S
C1 C0 1.443 . S
C1 C2 1.340 . S
C1 H41 0.951 . S
C2 C1 1.340 . S
C2 C3 1.439 . S
C2 H42 0.950 . S
C3 C2 1.439 . S
C3 N4 1.374 . S
C3 C37 1.395 . S
N4 C0 1.376 . S
N4 C3 1.374 . S
N4 Co5 2.008 . S
Co5 N4 2.008 . S
Co5 N6 1.995 . S
Co5 N11 2.008 . S
Co5 N16 1.995 . S
Co5 N21 2.282 . S
Co5 N27 2.282 . S
N6 Co5 1.995 . S
N6 C7 1.376 . S
N6 C10 1.383 . S
C7 N6 1.376 . S
C7 C8 1.446 . S
C7 C37 1.391 . S
C8 C7 1.446 . S
C8 C9 1.339 . S
C8 H43 0.949 . S
C9 C8 1.339 . S
C9 C10 1.439 . S
C9 H44 0.950 . S
C10 N6 1.383 . S
C10 C9 1.439 . S
C10 C39 1.392 . S
N11 Co5 2.008 . S
N11 C12 1.376 . S
N11 C15 1.374 . S
C12 N11 1.376 . S
C12 C13 1.443 . S
C12 C39 1.389 . S
C13 C12 1.443 . S
C13 C14 1.340 . S
C13 H45 0.951 . S
C14 C13 1.340 . S
C14 C15 1.439 . S
C14 H46 0.950 . S
C15 N11 1.374 . S
C15 C14 1.439 . S
C15 C40 1.395 . S
N16 Co5 1.995 . S
N16 C17 1.376 . S
N16 C20 1.383 . S
C17 N16 1.376 . S
C17 C18 1.446 . S
C17 C40 1.391 . S
C18 C17 1.446 . S
C18 C19 1.339 . S
C18 H47 0.949 . S
C19 C18 1.339 . S
C19 C20 1.439 . S
C19 H48 0.950 . S
C20 N16 1.383 . S
C20 C19 1.439 . S
C20 C38 1.392 . S
N21 Co5 2.282 . S
N21 C24 1.332 . S
N21 C26 1.332 . S
C22 C23 1.386 . S
C22 C25 1.388 . S
C23 C22 1.386 . S
C23 C24 1.382 . S
C23 H49 0.950 . S
C24 N21 1.332 . S
C24 C23 1.382 . S
C24 H35 0.952 . S
C25 C22 1.388 . S
C25 C26 1.382 . S
C25 H50 0.950 . S
C26 N21 1.332 . S
C26 C25 1.382 . S
C26 H36 0.948 . S
N27 Co5 2.282 . S
N27 C31 1.332 . S
N27 C32 1.332 . S
C28 C29 1.388 . S
C28 C32 1.382 . S
C28 H51 0.950 . S
C29 C28 1.388 . S
C29 C30 1.386 . S
C30 C29 1.386 . S
C30 C31 1.382 . S
C30 H52 0.950 . S
C31 N27 1.332 . S
C31 C30 1.382 . S
C31 H33 0.952 . S
C32 N27 1.332 . S
C32 C28 1.382 . S
C32 H34 0.948 . S
H33 C31 0.952 . S
H34 C32 0.948 . S
H35 C24 0.952 . S
H36 C26 0.948 . S
C37 C3 1.395 . S
C37 C7 1.391 . S
C38 C0 1.389 . S
C38 C20 1.392 . S
C39 C10 1.392 . S
C39 C12 1.389 . S
C40 C15 1.395 . S
C40 C17 1.391 . S
H41 C1 0.951 . S
H42 C2 0.950 . S
H43 C8 0.949 . S
H44 C9 0.950 . S
H45 C13 0.951 . S
H46 C14 0.950 . S
H47 C18 0.949 . S
H48 C19 0.950 . S
H49 C23 0.950 . S
H50 C25 0.950 . S
H51 C28 0.950 . S
H52 C30 0.950 . S
C53 C54 1.443 . S
C53 N57 1.376 . S
C53 C91 1.389 . S
C54 C53 1.443 . S
C54 C55 1.340 . S
C54 H94 0.951 . S
C55 C54 1.340 . S
C55 C56 1.439 . S
C55 H95 0.950 . S
C56 C55 1.439 . S
C56 N57 1.374 . S
C56 C90 1.395 . S
N57 C53 1.376 . S
N57 C56 1.374 . S
N57 Co58 2.008 . S
Co58 N57 2.008 . S
Co58 N59 1.995 . S
Co58 N64 2.008 . S
Co58 N69 1.995 . S
Co58 N74 2.282 . S
Co58 N80 2.282 . S
N59 Co58 1.995 . S
N59 C60 1.376 . S
N59 C63 1.383 . S
C60 N59 1.376 . S
C60 C61 1.446 . S
C60 C90 1.391 . S
C61 C60 1.446 . S
C61 C62 1.339 . S
C61 H96 0.949 . S
C62 C61 1.339 . S
C62 C63 1.439 . S
C62 H97 0.950 . S
C63 N59 1.383 . S
C63 C62 1.439 . S
C63 C92 1.392 . S
N64 Co58 2.008 . S
N64 C65 1.376 . S
N64 C68 1.374 . S
C65 N64 1.376 . S
C65 C66 1.443 . S
C65 C92 1.389 . S
C66 C65 1.443 . S
C66 C67 1.340 . S
C66 H98 0.951 . S
C67 C66 1.340 . S
C67 C68 1.439 . S
C67 H99 0.950 . S
C68 N64 1.374 . S
C68 C67 1.439 . S
C68 C93 1.395 . S
N69 Co58 1.995 . S
N69 C70 1.376 . S
N69 C73 1.383 . S
C70 N69 1.376 . S
C70 C71 1.446 . S
C70 C93 1.391 . S
C71 C70 1.446 . S
C71 C72 1.339 . S
C71 H100 0.949 . S
C72 C71 1.339 . S
C72 C73 1.439 . S
C72 H101 0.950 . S
C73 N69 1.383 . S
C73 C72 1.439 . S
C73 C91 1.392 . S
N74 Co58 2.282 . S
N74 C77 1.332 . S
N74 C79 1.332 . S
C75 C76 1.386 . S
C75 C78 1.388 . S
C76 C75 1.386 . S
C76 C77 1.382 . S
C76 H102 0.950 . S
C77 N74 1.332 . S
C77 C76 1.382 . S
C77 H88 0.952 . S
C78 C75 1.388 . S
C78 C79 1.382 . S
C78 H103 0.950 . S
C79 N74 1.332 . S
C79 C78 1.382 . S
C79 H89 0.948 . S
N80 Co58 2.282 . S
N80 C84 1.332 . S
N80 C85 1.332 . S
C81 C82 1.388 . S
C81 C85 1.382 . S
C81 H104 0.950 . S
C82 C81 1.388 . S
C82 C83 1.386 . S
C83 C82 1.386 . S
C83 C84 1.382 . S
C83 H105 0.950 . S
C84 N80 1.332 . S
C84 C83 1.382 . S
C84 H86 0.952 . S
C85 N80 1.332 . S
C85 C81 1.382 . S
C85 H87 0.948 . S
H86 C84 0.952 . S
H87 C85 0.948 . S
H88 C77 0.952 . S
H89 C79 0.948 . S
C90 C56 1.395 . S
C90 C60 1.391 . S
C91 C53 1.389 . S
C91 C73 1.392 . S
C92 C63 1.392 . S
C92 C65 1.389 . S
C93 C68 1.395 . S
C93 C70 1.391 . S
H94 C54 0.951 . S
H95 C55 0.950 . S
H96 C61 0.949 . S
H97 C62 0.950 . S
H98 C66 0.951 . S
H99 C67 0.950 . S
H100 C71 0.949 . S
H101 C72 0.950 . S
H102 C76 0.950 . S
H103 C78 0.950 . S
H104 C81 0.950 . S
H105 C83 0.950 . S
C106 C107 1.443 . S
C106 N110 1.376 . S
C106 C144 1.389 . S
C107 C106 1.443 . S
C107 C108 1.340 . S
C107 H147 0.951 . S
C108 C107 1.340 . S
C108 C109 1.439 . S
C108 H148 0.950 . S
C109 C108 1.439 . S
C109 N110 1.374 . S
C109 C143 1.395 . S
N110 C106 1.376 . S
N110 C109 1.374 . S
N110 Co111 2.008 . S
Co111 N110 2.008 . S
Co111 N112 1.995 . S
Co111 N117 2.008 . S
Co111 N122 1.995 . S
Co111 N127 2.282 . S
Co111 N133 2.282 . S
N112 Co111 1.995 . S
N112 C113 1.376 . S
N112 C116 1.383 . S
C113 N112 1.376 . S
C113 C114 1.446 . S
C113 C143 1.391 . S
C114 C113 1.446 . S
C114 C115 1.339 . S
C114 H149 0.949 . S
C115 C114 1.339 . S
C115 C116 1.439 . S
C115 H150 0.950 . S
C116 N112 1.383 . S
C116 C115 1.439 . S
C116 C145 1.392 . S
N117 Co111 2.008 . S
N117 C118 1.376 . S
N117 C121 1.374 . S
C118 N117 1.376 . S
C118 C119 1.443 . S
C118 C145 1.389 . S
C119 C118 1.443 . S
C119 C120 1.340 . S
C119 H151 0.951 . S
C120 C119 1.340 . S
C120 C121 1.439 . S
C120 H152 0.950 . S
C121 N117 1.374 . S
C121 C120 1.439 . S
C121 C146 1.395 . S
N122 Co111 1.995 . S
N122 C123 1.376 . S
N122 C126 1.383 . S
C123 N122 1.376 . S
C123 C124 1.446 . S
C123 C146 1.391 . S
C124 C123 1.446 . S
C124 C125 1.339 . S
C124 H153 0.949 . S
C125 C124 1.339 . S
C125 C126 1.439 . S
C125 H154 0.950 . S
C126 N122 1.383 . S
C126 C125 1.439 . S
C126 C144 1.392 . S
N127 Co111 2.282 . S
N127 C130 1.332 . S
N127 C132 1.332 . S
C128 C129 1.386 . S
C128 C131 1.388 . S
C129 C128 1.386 . S
C129 C130 1.382 . S
C129 H155 0.950 . S
C130 N127 1.332 . S
C130 C129 1.382 . S
C130 H141 0.952 . S
C131 C128 1.388 . S
C131 C132 1.382 . S
C131 H156 0.950 . S
C132 N127 1.332 . S
C132 C131 1.382 . S
C132 H142 0.948 . S
N133 Co111 2.282 . S
N133 C137 1.332 . S
N133 C138 1.332 . S
C134 C135 1.388 . S
C134 C138 1.382 . S
C134 H157 0.950 . S
C135 C134 1.388 . S
C135 C136 1.386 . S
C136 C135 1.386 . S
C136 C137 1.382 . S
C136 H158 0.950 . S
C137 N133 1.332 . S
C137 C136 1.382 . S
C137 H139 0.952 . S
C138 N133 1.332 . S
C138 C134 1.382 . S
C138 H140 0.948 . S
H139 C137 0.952 . S
H140 C138 0.948 . S
H141 C130 0.952 . S
H142 C132 0.948 . S
C143 C109 1.395 . S
C143 C113 1.391 . S
C144 C106 1.389 . S
C144 C126 1.392 . S
C145 C116 1.392 . S
C145 C118 1.389 . S
C146 C121 1.395 . S
C146 C123 1.391 . S
H147 C107 0.951 . S
H148 C108 0.950 . S
H149 C114 0.949 . S
H150 C115 0.950 . S
H151 C119 0.951 . S
H152 C120 0.950 . S
H153 C124 0.949 . S
H154 C125 0.950 . S
H155 C129 0.950 . S
H156 C131 0.950 . S
H157 C134 0.950 . S
H158 C136 0.950 . S
C159 C160 1.443 . S
C159 N163 1.376 1_556 S
C159 C197 1.389 . S
C160 C159 1.443 . S
C160 C161 1.340 . S
C160 H200 0.951 . S
C161 C160 1.340 . S
C161 C162 1.439 1_556 S
C161 H201 0.950 . S
C162 C161 1.439 1_554 S
C162 N163 1.374 . S
C162 C196 1.395 . S
N163 C159 1.376 1_554 S
N163 C162 1.374 . S
N163 Co164 2.008 . S
Co164 N163 2.008 . S
Co164 N165 1.995 . S
Co164 N170 2.008 . S
Co164 N175 1.995 . S
Co164 N180 2.282 . S
Co164 N186 2.282 . S
N165 Co164 1.995 . S
N165 C166 1.376 . S
N165 C169 1.383 . S
C166 N165 1.376 . S
C166 C167 1.446 . S
C166 C196 1.391 . S
C167 C166 1.446 . S
C167 C168 1.339 . S
C167 H202 0.949 . S
C168 C167 1.339 . S
C168 C169 1.439 . S
C168 H203 0.950 . S
C169 N165 1.383 . S
C169 C168 1.439 . S
C169 C198 1.392 . S
N170 Co164 2.008 . S
N170 C171 1.376 . S
N170 C174 1.374 . S
C171 N170 1.376 . S
C171 C172 1.443 . S
C171 C198 1.389 . S
C172 C171 1.443 . S
C172 C173 1.340 . S
C172 H204 0.951 . S
C173 C172 1.340 . S
C173 C174 1.439 . S
C173 H205 0.950 . S
C174 N170 1.374 . S
C174 C173 1.439 . S
C174 C199 1.395 . S
N175 Co164 1.995 . S
N175 C176 1.376 . S
N175 C179 1.383 1_554 S
C176 N175 1.376 . S
C176 C177 1.446 1_554 S
C176 C199 1.391 . S
C177 C176 1.446 1_556 S
C177 C178 1.339 . S
C177 H206 0.949 . S
C178 C177 1.339 . S
C178 C179 1.439 . S
C178 H207 0.950 . S
C179 N175 1.383 1_556 S
C179 C178 1.439 . S
C179 C197 1.392 . S
N180 Co164 2.282 . S
N180 C183 1.332 . S
N180 C185 1.332 . S
C181 C182 1.386 . S
C181 C184 1.388 . S
C182 C181 1.386 . S
C182 C183 1.382 . S
C182 H208 0.950 . S
C183 N180 1.332 . S
C183 C182 1.382 . S
C183 H194 0.952 . S
C184 C181 1.388 . S
C184 C185 1.382 . S
C184 H209 0.950 . S
C185 N180 1.332 . S
C185 C184 1.382 . S
C185 H195 0.948 . S
N186 Co164 2.282 . S
N186 C190 1.332 . S
N186 C191 1.332 . S
C187 C188 1.388 . S
C187 C191 1.382 . S
C187 H210 0.950 1_554 S
C188 C187 1.388 . S
C188 C189 1.386 . S
C189 C188 1.386 . S
C189 C190 1.382 . S
C189 H211 0.950 . S
C190 N186 1.332 . S
C190 C189 1.382 . S
C190 H192 0.952 . S
C191 N186 1.332 . S
C191 C187 1.382 . S
C191 H193 0.948 . S
H192 C190 0.952 . S
H193 C191 0.948 . S
H194 C183 0.952 . S
H195 C185 0.948 . S
C196 C162 1.395 . S
C196 C166 1.391 . S
C197 C159 1.389 . S
C197 C179 1.392 . S
C198 C169 1.392 . S
C198 C171 1.389 . S
C199 C174 1.395 . S
C199 C176 1.391 . S
H200 C160 0.951 . S
H201 C161 0.950 . S
H202 C167 0.949 . S
H203 C168 0.950 . S
H204 C172 0.951 . S
H205 C173 0.950 . S
H206 C177 0.949 . S
H207 C178 0.950 . S
H208 C182 0.950 . S
H209 C184 0.950 . S
H210 C187 0.950 1_556 S
H211 C189 0.950 . S
C212 C213 1.436 1_554 S
C212 N216 1.384 . S
C212 C250 1.388 1_554 S
C213 C212 1.436 1_556 S
C213 C214 1.340 . S
C213 H253 0.951 . S
C214 C213 1.340 . S
C214 C215 1.439 1_556 S
C214 H254 0.950 . S
C215 C214 1.439 1_554 S
C215 N216 1.374 . S
C215 C249 1.395 . S
N216 C212 1.384 . S
N216 C215 1.374 . S
N216 Co217 2.008 . S
Co217 N216 2.008 . S
Co217 N218 1.995 . S
Co217 N223 2.008 . S
Co217 N228 1.995 . S
Co217 N233 2.282 . S
Co217 N239 2.282 1_554 S
N218 Co217 1.995 . S
N218 C219 1.376 . S
N218 C222 1.383 . S
C219 N218 1.376 . S
C219 C220 1.446 . S
C219 C249 1.391 . S
C220 C219 1.446 . S
C220 C221 1.339 . S
C220 H255 0.949 . S
C221 C220 1.339 . S
C221 C222 1.439 . S
C221 H256 0.950 . S
C222 N218 1.383 . S
C222 C221 1.439 . S
C222 C251 1.392 . S
N223 Co217 2.008 . S
N223 C224 1.376 . S
N223 C227 1.374 . S
C224 N223 1.376 . S
C224 C225 1.443 . S
C224 C251 1.389 . S
C225 C224 1.443 . S
C225 C226 1.340 . S
C225 H257 0.951 . S
C226 C225 1.340 . S
C226 C227 1.439 . S
C226 H258 0.950 . S
C227 N223 1.374 . S
C227 C226 1.439 . S
C227 C252 1.395 . S
N228 Co217 1.995 . S
N228 C229 1.376 . S
N228 C232 1.383 . S
C229 N228 1.376 . S
C229 C230 1.446 . S
C229 C252 1.391 . S
C230 C229 1.446 . S
C230 C231 1.339 . S
C230 H259 0.949 . S
C231 C230 1.339 . S
C231 C232 1.439 . S
C231 H260 0.958 . S
C232 N228 1.383 . S
C232 C231 1.439 . S
C232 C250 1.389 1_554 S
N233 Co217 2.282 . S
N233 C236 1.332 . S
N233 C238 1.332 . S
C234 C235 1.386 . S
C234 C237 1.388 . S
C235 C234 1.386 . S
C235 C236 1.382 . S
C235 H261 0.950 . S
C236 N233 1.332 . S
C236 C235 1.382 . S
C236 H247 0.952 . S
C237 C234 1.388 . S
C237 C238 1.382 . S
C237 H262 0.950 . S
C238 N233 1.332 . S
C238 C237 1.382 . S
C238 H248 0.948 . S
N239 Co217 2.282 1_556 S
N239 C243 1.332 . S
N239 C244 1.332 . S
C240 C241 1.388 . S
C240 C244 1.382 . S
C240 H263 0.950 . S
C241 C240 1.388 . S
C241 C242 1.386 . S
C242 C241 1.386 . S
C242 C243 1.382 . S
C242 H264 0.950 . S
C243 N239 1.332 . S
C243 C242 1.382 . S
C243 H245 0.952 . S
C244 N239 1.332 . S
C244 C240 1.382 . S
C244 H246 0.948 . S
H245 C243 0.952 . S
H246 C244 0.948 . S
H247 C236 0.952 . S
H248 C238 0.948 . S
C249 C215 1.395 . S
C249 C219 1.391 . S
C250 C212 1.388 1_556 S
C250 C232 1.389 1_556 S
C251 C222 1.392 . S
C251 C224 1.389 . S
C252 C227 1.395 . S
C252 C229 1.391 . S
H253 C213 0.951 . S
H254 C214 0.950 . S
H255 C220 0.949 . S
H256 C221 0.950 . S
H257 C225 0.951 . S
H258 C226 0.950 . S
H259 C230 0.949 . S
H260 C231 0.958 . S
H261 C235 0.950 . S
H262 C237 0.950 . S
H263 C240 0.950 . S
H264 C242 0.950 . S
C265 C266 1.443 . S
C265 N269 1.376 . S
C265 C303 1.389 . S
C266 C265 1.443 . S
C266 C267 1.340 . S
C266 H306 0.951 . S
C267 C266 1.340 . S
C267 C268 1.439 . S
C267 H307 0.950 . S
C268 C267 1.439 . S
C268 N269 1.374 . S
C268 C302 1.395 . S
N269 C265 1.376 . S
N269 C268 1.374 . S
N269 Co270 2.008 . S
Co270 N269 2.008 . S
Co270 N271 1.995 . S
Co270 N276 2.008 . S
Co270 N281 1.995 . S
Co270 N286 2.282 . S
Co270 N292 2.282 . S
N271 Co270 1.995 . S
N271 C272 1.376 . S
N271 C275 1.383 . S
C272 N271 1.376 . S
C272 C273 1.446 . S
C272 C302 1.391 . S
C273 C272 1.446 . S
C273 C274 1.339 . S
C273 H308 0.949 . S
C274 C273 1.339 . S
C274 C275 1.439 . S
C274 H309 0.950 . S
C275 N271 1.383 . S
C275 C274 1.439 . S
C275 C304 1.392 . S
N276 Co270 2.008 . S
N276 C277 1.376 . S
N276 C280 1.374 . S
C277 N276 1.376 . S
C277 C278 1.443 . S
C277 C304 1.389 . S
C278 C277 1.443 . S
C278 C279 1.340 . S
C278 H310 0.951 . S
C279 C278 1.340 . S
C279 C280 1.439 . S
C279 H311 0.950 . S
C280 N276 1.374 . S
C280 C279 1.439 . S
C280 C305 1.395 . S
N281 Co270 1.995 . S
N281 C282 1.376 . S
N281 C285 1.383 . S
C282 N281 1.376 . S
C282 C283 1.446 . S
C282 C305 1.391 . S
C283 C282 1.446 . S
C283 C284 1.339 . S
C283 H312 0.949 . S
C284 C283 1.339 . S
C284 C285 1.439 . S
C284 H313 0.950 . S
C285 N281 1.383 . S
C285 C284 1.439 . S
C285 C303 1.392 . S
N286 Co270 2.282 . S
N286 C289 1.332 . S
N286 C291 1.332 . S
C287 C288 1.386 . S
C287 C290 1.388 . S
C288 C287 1.386 . S
C288 C289 1.382 . S
C288 H314 0.950 . S
C289 N286 1.332 . S
C289 C288 1.382 . S
C289 H300 0.952 . S
C290 C287 1.388 . S
C290 C291 1.382 . S
C290 H315 0.950 . S
C291 N286 1.332 . S
C291 C290 1.382 . S
C291 H301 0.948 . S
N292 Co270 2.282 . S
N292 C296 1.332 . S
N292 C297 1.332 . S
C293 C294 1.388 . S
C293 C297 1.382 . S
C293 H316 0.950 . S
C294 C293 1.388 . S
C294 C295 1.386 . S
C295 C294 1.386 . S
C295 C296 1.382 . S
C295 H317 0.950 . S
C296 N292 1.332 . S
C296 C295 1.382 . S
C296 H298 0.952 . S
C297 N292 1.332 . S
C297 C293 1.382 . S
C297 H299 0.948 . S
H298 C296 0.952 . S
H299 C297 0.948 . S
H300 C289 0.952 . S
H301 C291 0.948 . S
C302 C268 1.395 . S
C302 C272 1.391 . S
C303 C265 1.389 . S
C303 C285 1.392 . S
C304 C275 1.392 . S
C304 C277 1.389 . S
C305 C280 1.395 . S
C305 C282 1.391 . S
H306 C266 0.951 . S
H307 C267 0.950 . S
H308 C273 0.949 . S
H309 C274 0.950 . S
H310 C278 0.951 . S
H311 C279 0.950 . S
H312 C283 0.949 . S
H313 C284 0.950 . S
H314 C288 0.950 . S
H315 C290 0.950 . S
H316 C293 0.950 . S
H317 C295 0.950 . S
C318 C319 1.443 . S
C318 N322 1.376 . S
C318 C356 1.389 . S
C319 C318 1.443 . S
C319 C320 1.340 . S
C319 H359 0.951 . S
C320 C319 1.340 . S
C320 C321 1.439 . S
C320 H360 0.950 . S
C321 C320 1.439 . S
C321 N322 1.374 . S
C321 C355 1.395 . S
N322 C318 1.376 . S
N322 C321 1.374 . S
N322 Co323 2.008 . S
Co323 N322 2.008 . S
Co323 N324 1.995 . S
Co323 N329 2.008 . S
Co323 N334 1.995 . S
Co323 N339 2.282 . S
Co323 N345 2.282 . S
N324 Co323 1.995 . S
N324 C325 1.376 . S
N324 C328 1.383 . S
C325 N324 1.376 . S
C325 C326 1.446 . S
C325 C355 1.391 . S
C326 C325 1.446 . S
C326 C327 1.339 . S
C326 H361 0.949 . S
C327 C326 1.339 . S
C327 C328 1.439 . S
C327 H362 0.950 . S
C328 N324 1.383 . S
C328 C327 1.439 . S
C328 C357 1.392 . S
N329 Co323 2.008 . S
N329 C330 1.376 . S
N329 C333 1.374 . S
C330 N329 1.376 . S
C330 C331 1.443 . S
C330 C357 1.389 . S
C331 C330 1.443 . S
C331 C332 1.340 . S
C331 H363 0.951 . S
C332 C331 1.340 . S
C332 C333 1.439 . S
C332 H364 0.950 . S
C333 N329 1.374 . S
C333 C332 1.439 . S
C333 C358 1.395 . S
N334 Co323 1.995 . S
N334 C335 1.376 . S
N334 C338 1.383 . S
C335 N334 1.376 . S
C335 C336 1.446 . S
C335 C358 1.391 . S
C336 C335 1.446 . S
C336 C337 1.339 . S
C336 H365 0.949 . S
C337 C336 1.339 . S
C337 C338 1.439 . S
C337 H366 0.950 . S
C338 N334 1.383 . S
C338 C337 1.439 . S
C338 C356 1.392 . S
N339 Co323 2.282 . S
N339 C342 1.332 . S
N339 C344 1.332 . S
C340 C341 1.386 . S
C340 C343 1.388 . S
C341 C340 1.386 . S
C341 C342 1.382 . S
C341 H367 0.950 . S
C342 N339 1.332 . S
C342 C341 1.382 . S
C342 H353 0.952 . S
C343 C340 1.388 . S
C343 C344 1.382 . S
C343 H368 0.950 . S
C344 N339 1.332 . S
C344 C343 1.382 . S
C344 H354 0.948 . S
N345 Co323 2.282 . S
N345 C349 1.332 . S
N345 C350 1.332 . S
C346 C347 1.388 . S
C346 C350 1.382 . S
C346 H369 0.950 . S
C347 C346 1.388 . S
C347 C348 1.386 . S
C348 C347 1.386 . S
C348 C349 1.382 . S
C348 H370 0.950 . S
C349 N345 1.332 . S
C349 C348 1.382 . S
C349 H351 0.952 . S
C350 N345 1.332 . S
C350 C346 1.382 . S
C350 H352 0.948 . S
H351 C349 0.952 . S
H352 C350 0.948 . S
H353 C342 0.952 . S
H354 C344 0.948 . S
C355 C321 1.395 . S
C355 C325 1.391 . S
C356 C318 1.389 . S
C356 C338 1.392 . S
C357 C328 1.392 . S
C357 C330 1.389 . S
C358 C333 1.395 . S
C358 C335 1.391 . S
H359 C319 0.951 . S
H360 C320 0.950 . S
H361 C326 0.949 . S
H362 C327 0.950 . S
H363 C331 0.951 . S
H364 C332 0.950 . S
H365 C336 0.949 . S
H366 C337 0.950 . S
H367 C341 0.950 . S
H368 C343 0.950 . S
H369 C346 0.950 . S
H370 C348 0.950 . S
C371 C372 1.443 . S
C371 N375 1.376 . S
C371 C409 1.389 . S
C372 C371 1.443 . S
C372 C373 1.340 . S
C372 H412 0.951 . S
C373 C372 1.340 . S
C373 C374 1.439 . S
C373 H413 0.950 . S
C374 C373 1.439 . S
C374 N375 1.374 . S
C374 C408 1.395 . S
N375 C371 1.376 . S
N375 C374 1.374 . S
N375 Co376 2.008 . S
Co376 N375 2.008 . S
Co376 N377 1.995 . S
Co376 N382 2.008 . S
Co376 N387 1.995 . S
Co376 N392 2.282 . S
Co376 N398 2.282 . S
N377 Co376 1.995 . S
N377 C378 1.376 . S
N377 C381 1.383 . S
C378 N377 1.376 . S
C378 C379 1.446 . S
C378 C408 1.391 . S
C379 C378 1.446 . S
C379 C380 1.339 . S
C379 H414 0.949 . S
C380 C379 1.339 . S
C380 C381 1.439 . S
C380 H415 0.950 . S
C381 N377 1.383 . S
C381 C380 1.439 . S
C381 C410 1.392 . S
N382 Co376 2.008 . S
N382 C383 1.376 . S
N382 C386 1.374 . S
C383 N382 1.376 . S
C383 C384 1.443 . S
C383 C410 1.389 . S
C384 C383 1.443 . S
C384 C385 1.340 . S
C384 H416 0.951 . S
C385 C384 1.340 . S
C385 C386 1.439 . S
C385 H417 0.950 . S
C386 N382 1.374 . S
C386 C385 1.439 . S
C386 C411 1.395 . S
N387 Co376 1.995 . S
N387 C388 1.376 . S
N387 C391 1.383 . S
C388 N387 1.376 . S
C388 C389 1.446 . S
C388 C411 1.391 . S
C389 C388 1.446 . S
C389 C390 1.339 . S
C389 H418 0.949 . S
C390 C389 1.339 . S
C390 C391 1.439 . S
C390 H419 0.950 . S
C391 N387 1.383 . S
C391 C390 1.439 . S
C391 C409 1.392 . S
N392 Co376 2.282 . S
N392 C395 1.332 . S
N392 C397 1.332 . S
C393 C394 1.386 . S
C393 C396 1.388 . S
C394 C393 1.386 . S
C394 C395 1.382 . S
C394 H420 0.950 . S
C395 N392 1.332 . S
C395 C394 1.382 . S
C395 H406 0.952 . S
C396 C393 1.388 . S
C396 C397 1.382 . S
C396 H421 0.950 . S
C397 N392 1.332 . S
C397 C396 1.382 . S
C397 H407 0.948 . S
N398 Co376 2.282 . S
N398 C402 1.332 . S
N398 C403 1.332 . S
C399 C400 1.388 . S
C399 C403 1.382 . S
C399 H422 0.950 . S
C400 C399 1.388 . S
C400 C401 1.386 . S
C401 C400 1.386 . S
C401 C402 1.382 . S
C401 H423 0.950 . S
C402 N398 1.332 . S
C402 C401 1.382 . S
C402 H404 0.952 . S
C403 N398 1.332 . S
C403 C399 1.382 . S
C403 H405 0.948 . S
H404 C402 0.952 . S
H405 C403 0.948 . S
H406 C395 0.952 . S
H407 C397 0.948 . S
C408 C374 1.395 . S
C408 C378 1.391 . S
C409 C371 1.389 . S
C409 C391 1.392 . S
C410 C381 1.392 . S
C410 C383 1.389 . S
C411 C386 1.395 . S
C411 C388 1.391 . S
H412 C372 0.951 . S
H413 C373 0.950 . S
H414 C379 0.949 . S
H415 C380 0.950 . S
H416 C384 0.951 . S
H417 C385 0.950 . S
H418 C389 0.949 . S
H419 C390 0.950 . S
H420 C394 0.950 . S
H421 C396 0.950 . S
H422 C399 0.950 . S
H423 C401 0.950 . S
C424 C425 1.443 . S
C424 N428 1.376 . S
C424 C462 1.389 . S
C425 C424 1.443 . S
C425 C426 1.340 . S
C425 H465 0.951 . S
C426 C425 1.340 . S
C426 C427 1.439 . S
C426 H466 0.950 . S
C427 C426 1.439 . S
C427 N428 1.374 . S
C427 C461 1.395 . S
N428 C424 1.376 . S
N428 C427 1.374 . S
N428 Co429 2.008 . S
Co429 N428 2.008 . S
Co429 N430 1.995 . S
Co429 N435 2.008 . S
Co429 N440 1.995 . S
Co429 N445 2.282 . S
Co429 N451 2.282 . S
N430 Co429 1.995 . S
N430 C431 1.376 . S
N430 C434 1.383 . S
C431 N430 1.376 . S
C431 C432 1.446 . S
C431 C461 1.391 . S
C432 C431 1.446 . S
C432 C433 1.339 . S
C432 H467 0.949 . S
C433 C432 1.339 . S
C433 C434 1.439 . S
C433 H468 0.950 . S
C434 N430 1.383 . S
C434 C433 1.439 . S
C434 C463 1.392 . S
N435 Co429 2.008 . S
N435 C436 1.376 . S
N435 C439 1.374 . S
C436 N435 1.376 . S
C436 C437 1.443 . S
C436 C463 1.389 . S
C437 C436 1.443 . S
C437 C438 1.340 . S
C437 H469 0.951 . S
C438 C437 1.340 . S
C438 C439 1.439 . S
C438 H470 0.950 . S
C439 N435 1.374 . S
C439 C438 1.439 . S
C439 C464 1.395 . S
N440 Co429 1.995 . S
N440 C441 1.376 . S
N440 C444 1.383 . S
C441 N440 1.376 . S
C441 C442 1.446 . S
C441 C464 1.391 . S
C442 C441 1.446 . S
C442 C443 1.339 . S
C442 H471 0.949 . S
C443 C442 1.339 . S
C443 C444 1.439 . S
C443 H472 0.950 . S
C444 N440 1.383 . S
C444 C443 1.439 . S
C444 C462 1.392 . S
N445 Co429 2.282 . S
N445 C448 1.332 . S
N445 C450 1.332 . S
C446 C447 1.386 . S
C446 C449 1.388 . S
C447 C446 1.386 . S
C447 C448 1.382 . S
C447 H473 0.950 . S
C448 N445 1.332 . S
C448 C447 1.382 . S
C448 H459 0.952 . S
C449 C446 1.388 . S
C449 C450 1.382 . S
C449 H474 0.950 . S
C450 N445 1.332 . S
C450 C449 1.382 . S
C450 H460 0.948 . S
N451 Co429 2.282 . S
N451 C455 1.332 . S
N451 C456 1.332 . S
C452 C453 1.388 . S
C452 C456 1.382 . S
C452 H475 0.950 . S
C453 C452 1.388 . S
C453 C454 1.386 . S
C454 C453 1.386 . S
C454 C455 1.382 . S
C454 H476 0.950 . S
C455 N451 1.332 . S
C455 C454 1.382 . S
C455 H457 0.952 . S
C456 N451 1.332 . S
C456 C452 1.382 . S
C456 H458 0.948 . S
H457 C455 0.952 . S
H458 C456 0.948 . S
H459 C448 0.952 . S
H460 C450 0.948 . S
C461 C427 1.395 . S
C461 C431 1.391 . S
C462 C424 1.389 . S
C462 C444 1.392 . S
C463 C434 1.392 . S
C463 C436 1.389 . S
C464 C439 1.395 . S
C464 C441 1.391 . S
H465 C425 0.951 . S
H466 C426 0.950 . S
H467 C432 0.949 . S
H468 C433 0.950 . S
H469 C437 0.951 . S
H470 C438 0.950 . S
H471 C442 0.949 . S
H472 C443 0.950 . S
H473 C447 0.950 . S
H474 C449 0.950 . S
H475 C452 0.950 . S
H476 C454 0.950 . S
C477 C478 1.443 . S
C477 N481 1.376 1_556 S
C477 C515 1.389 . S
C478 C477 1.443 . S
C478 C479 1.340 . S
C478 H518 0.951 . S
C479 C478 1.340 . S
C479 C480 1.439 1_556 S
C479 H519 0.950 . S
C480 C479 1.439 1_554 S
C480 N481 1.374 . S
C480 C514 1.395 . S
N481 C477 1.376 1_554 S
N481 C480 1.374 . S
N481 Co482 2.008 . S
Co482 N481 2.008 . S
Co482 N483 1.995 . S
Co482 N488 2.008 . S
Co482 N493 1.995 . S
Co482 N498 2.282 . S
Co482 N504 2.282 . S
N483 Co482 1.995 . S
N483 C484 1.376 . S
N483 C487 1.383 . S
C484 N483 1.376 . S
C484 C485 1.446 . S
C484 C514 1.391 . S
C485 C484 1.446 . S
C485 C486 1.339 . S
C485 H520 0.949 . S
C486 C485 1.339 . S
C486 C487 1.439 . S
C486 H521 0.950 . S
C487 N483 1.383 . S
C487 C486 1.439 . S
C487 C516 1.392 . S
N488 Co482 2.008 . S
N488 C489 1.376 . S
N488 C492 1.374 . S
C489 N488 1.376 . S
C489 C490 1.443 . S
C489 C516 1.389 . S
C490 C489 1.443 . S
C490 C491 1.340 . S
C490 H522 0.951 . S
C491 C490 1.340 . S
C491 C492 1.439 . S
C491 H523 0.950 . S
C492 N488 1.374 . S
C492 C491 1.439 . S
C492 C517 1.395 . S
N493 Co482 1.995 . S
N493 C494 1.376 . S
N493 C497 1.383 1_554 S
C494 N493 1.376 . S
C494 C495 1.446 1_554 S
C494 C517 1.391 . S
C495 C494 1.446 1_556 S
C495 C496 1.339 . S
C495 H524 0.949 . S
C496 C495 1.339 . S
C496 C497 1.439 . S
C496 H525 0.950 . S
C497 N493 1.383 1_556 S
C497 C496 1.439 . S
C497 C515 1.392 . S
N498 Co482 2.282 . S
N498 C501 1.332 . S
N498 C503 1.332 . S
C499 C500 1.386 . S
C499 C502 1.388 . S
C500 C499 1.386 . S
C500 C501 1.382 . S
C500 H526 0.950 . S
C501 N498 1.332 . S
C501 C500 1.382 . S
C501 H512 0.952 . S
C502 C499 1.388 . S
C502 C503 1.382 . S
C502 H527 0.950 . S
C503 N498 1.332 . S
C503 C502 1.382 . S
C503 H513 0.948 . S
N504 Co482 2.282 . S
N504 C508 1.332 . S
N504 C509 1.332 . S
C505 C506 1.388 . S
C505 C509 1.382 . S
C505 H528 0.950 1_554 S
C506 C505 1.388 . S
C506 C507 1.386 . S
C507 C506 1.386 . S
C507 C508 1.382 . S
C507 H529 0.950 . S
C508 N504 1.332 . S
C508 C507 1.382 . S
C508 H510 0.952 . S
C509 N504 1.332 . S
C509 C505 1.382 . S
C509 H511 0.948 . S
H510 C508 0.952 . S
H511 C509 0.948 . S
H512 C501 0.952 . S
H513 C503 0.948 . S
C514 C480 1.395 . S
C514 C484 1.391 . S
C515 C477 1.389 . S
C515 C497 1.392 . S
C516 C487 1.392 . S
C516 C489 1.389 . S
C517 C492 1.395 . S
C517 C494 1.391 . S
H518 C478 0.951 . S
H519 C479 0.950 . S
H520 C485 0.949 . S
H521 C486 0.950 . S
H522 C490 0.951 . S
H523 C491 0.950 . S
H524 C495 0.949 . S
H525 C496 0.950 . S
H526 C500 0.950 . S
H527 C502 0.950 . S
H528 C505 0.950 1_556 S
H529 C507 0.950 . S
C530 C531 1.443 . S
C530 N534 1.376 . S
C530 C568 1.389 . S
C531 C530 1.443 . S
C531 C532 1.340 . S
C531 H571 0.951 . S
C532 C531 1.340 . S
C532 C533 1.439 . S
C532 H572 0.950 . S
C533 C532 1.439 . S
C533 N534 1.374 . S
C533 C567 1.395 . S
N534 C530 1.376 . S
N534 C533 1.374 . S
N534 Co535 2.008 . S
Co535 N534 2.008 . S
Co535 N536 1.995 . S
Co535 N541 2.008 . S
Co535 N546 1.995 . S
Co535 N551 2.282 . S
Co535 N557 2.282 . S
N536 Co535 1.995 . S
N536 C537 1.376 . S
N536 C540 1.383 . S
C537 N536 1.376 . S
C537 C538 1.446 . S
C537 C567 1.391 . S
C538 C537 1.446 . S
C538 C539 1.339 . S
C538 H573 0.949 . S
C539 C538 1.339 . S
C539 C540 1.439 . S
C539 H574 0.950 . S
C540 N536 1.383 . S
C540 C539 1.439 . S
C540 C569 1.392 . S
N541 Co535 2.008 . S
N541 C542 1.376 . S
N541 C545 1.374 . S
C542 N541 1.376 . S
C542 C543 1.443 . S
C542 C569 1.389 . S
C543 C542 1.443 . S
C543 C544 1.340 . S
C543 H575 0.951 . S
C544 C543 1.340 . S
C544 C545 1.439 . S
C544 H576 0.950 . S
C545 N541 1.374 . S
C545 C544 1.439 . S
C545 C570 1.395 . S
N546 Co535 1.995 . S
N546 C547 1.376 . S
N546 C550 1.383 . S
C547 N546 1.376 . S
C547 C548 1.446 . S
C547 C570 1.391 . S
C548 C547 1.446 . S
C548 C549 1.339 . S
C548 H577 0.949 . S
C549 C548 1.339 . S
C549 C550 1.439 . S
C549 H578 0.950 . S
C550 N546 1.383 . S
C550 C549 1.439 . S
C550 C568 1.392 . S
N551 Co535 2.282 . S
N551 C554 1.332 . S
N551 C556 1.332 . S
C552 C553 1.386 . S
C552 C555 1.388 . S
C553 C552 1.386 . S
C553 C554 1.382 . S
C553 H579 0.950 . S
C554 N551 1.332 . S
C554 C553 1.382 . S
C554 H565 0.952 . S
C555 C552 1.388 . S
C555 C556 1.382 . S
C555 H580 0.950 . S
C556 N551 1.332 . S
C556 C555 1.382 . S
C556 H566 0.948 . S
N557 Co535 2.282 . S
N557 C561 1.332 . S
N557 C562 1.332 . S
C558 C559 1.388 . S
C558 C562 1.382 . S
C558 H581 0.950 . S
C559 C558 1.388 . S
C559 C560 1.386 . S
C560 C559 1.386 . S
C560 C561 1.382 . S
C560 H582 0.950 . S
C561 N557 1.332 . S
C561 C560 1.382 . S
C561 H563 0.952 . S
C562 N557 1.332 . S
C562 C558 1.382 . S
C562 H564 0.948 . S
H563 C561 0.952 . S
H564 C562 0.948 . S
H565 C554 0.952 . S
H566 C556 0.948 . S
C567 C533 1.395 . S
C567 C537 1.391 . S
C568 C530 1.389 . S
C568 C550 1.392 . S
C569 C540 1.392 . S
C569 C542 1.389 . S
C570 C545 1.395 . S
C570 C547 1.391 . S
H571 C531 0.951 . S
H572 C532 0.950 . S
H573 C538 0.949 . S
H574 C539 0.950 . S
H575 C543 0.951 . S
H576 C544 0.950 . S
H577 C548 0.949 . S
H578 C549 0.950 . S
H579 C553 0.950 . S
H580 C555 0.950 . S
H581 C558 0.950 . S
H582 C560 0.950 . S
C583 C584 1.443 . S
C583 N587 1.376 . S
C583 C621 1.389 . S
C584 C583 1.443 . S
C584 C585 1.340 . S
C584 H624 0.951 . S
C585 C584 1.340 . S
C585 C586 1.439 . S
C585 H625 0.950 . S
C586 C585 1.439 . S
C586 N587 1.374 . S
C586 C620 1.395 . S
N587 C583 1.376 . S
N587 C586 1.374 . S
N587 Co588 2.008 . S
Co588 N587 2.008 . S
Co588 N589 1.995 . S
Co588 N594 2.008 . S
Co588 N599 1.995 . S
Co588 N604 2.282 . S
Co588 N610 2.282 . S
N589 Co588 1.995 . S
N589 C590 1.376 . S
N589 C593 1.383 . S
C590 N589 1.376 . S
C590 C591 1.446 . S
C590 C620 1.391 . S
C591 C590 1.446 . S
C591 C592 1.339 . S
C591 H626 0.949 . S
C592 C591 1.339 . S
C592 C593 1.439 . S
C592 H627 0.950 . S
C593 N589 1.383 . S
C593 C592 1.439 . S
C593 C622 1.392 . S
N594 Co588 2.008 . S
N594 C595 1.376 . S
N594 C598 1.374 . S
C595 N594 1.376 . S
C595 C596 1.443 . S
C595 C622 1.389 . S
C596 C595 1.443 . S
C596 C597 1.340 . S
C596 H628 0.951 . S
C597 C596 1.340 . S
C597 C598 1.439 . S
C597 H629 0.950 . S
C598 N594 1.374 . S
C598 C597 1.439 . S
C598 C623 1.395 . S
N599 Co588 1.995 . S
N599 C600 1.376 . S
N599 C603 1.383 . S
C600 N599 1.376 . S
C600 C601 1.446 . S
C600 C623 1.391 . S
C601 C600 1.446 . S
C601 C602 1.339 . S
C601 H630 0.949 . S
C602 C601 1.339 . S
C602 C603 1.439 . S
C602 H631 0.950 . S
C603 N599 1.383 . S
C603 C602 1.439 . S
C603 C621 1.392 . S
N604 Co588 2.282 . S
N604 C607 1.332 . S
N604 C609 1.332 . S
C605 C606 1.386 . S
C605 C608 1.388 . S
C606 C605 1.386 . S
C606 C607 1.382 . S
C606 H632 0.950 . S
C607 N604 1.332 . S
C607 C606 1.382 . S
C607 H618 0.952 . S
C608 C605 1.388 . S
C608 C609 1.382 . S
C608 H633 0.950 . S
C609 N604 1.332 . S
C609 C608 1.382 . S
C609 H619 0.948 . S
N610 Co588 2.282 . S
N610 C614 1.332 . S
N610 C615 1.332 . S
C611 C612 1.388 . S
C611 C615 1.382 . S
C611 H634 0.950 . S
C612 C611 1.388 . S
C612 C613 1.386 . S
C613 C612 1.386 . S
C613 C614 1.382 . S
C613 H635 0.950 . S
C614 N610 1.332 . S
C614 C613 1.382 . S
C614 H616 0.952 . S
C615 N610 1.332 . S
C615 C611 1.382 . S
C615 H617 0.948 . S
H616 C614 0.952 . S
H617 C615 0.948 . S
H618 C607 0.952 . S
H619 C609 0.948 . S
C620 C586 1.395 . S
C620 C590 1.391 . S
C621 C583 1.389 . S
C621 C603 1.392 . S
C622 C593 1.392 . S
C622 C595 1.389 . S
C623 C598 1.395 . S
C623 C600 1.391 . S
H624 C584 0.951 . S
H625 C585 0.950 . S
H626 C591 0.949 . S
H627 C592 0.950 . S
H628 C596 0.951 . S
H629 C597 0.950 . S
H630 C601 0.949 . S
H631 C602 0.950 . S
H632 C606 0.950 . S
H633 C608 0.950 . S
H634 C611 0.950 . S
H635 C613 0.950 . S
C636 C637 1.443 . S
C636 N640 1.376 . S
C636 C674 1.389 . S
C637 C636 1.443 . S
C637 C638 1.340 . S
C637 H677 0.951 . S
C638 C637 1.340 . S
C638 C639 1.439 . S
C638 H678 0.950 . S
C639 C638 1.439 . S
C639 N640 1.374 . S
C639 C673 1.395 . S
N640 C636 1.376 . S
N640 C639 1.374 . S
N640 Co641 2.008 . S
Co641 N640 2.008 . S
Co641 N642 1.995 . S
Co641 N647 2.008 . S
Co641 N652 1.995 . S
Co641 N657 2.282 . S
Co641 N663 2.282 . S
N642 Co641 1.995 . S
N642 C643 1.376 . S
N642 C646 1.383 . S
C643 N642 1.376 . S
C643 C644 1.446 . S
C643 C673 1.391 . S
C644 C643 1.446 . S
C644 C645 1.339 . S
C644 H679 0.949 . S
C645 C644 1.339 . S
C645 C646 1.439 . S
C645 H680 0.950 . S
C646 N642 1.383 . S
C646 C645 1.439 . S
C646 C675 1.392 . S
N647 Co641 2.008 . S
N647 C648 1.376 . S
N647 C651 1.374 . S
C648 N647 1.376 . S
C648 C649 1.443 . S
C648 C675 1.389 . S
C649 C648 1.443 . S
C649 C650 1.340 . S
C649 H681 0.951 . S
C650 C649 1.340 . S
C650 C651 1.439 . S
C650 H682 0.950 . S
C651 N647 1.374 . S
C651 C650 1.439 . S
C651 C676 1.395 . S
N652 Co641 1.995 . S
N652 C653 1.376 . S
N652 C656 1.383 . S
C653 N652 1.376 . S
C653 C654 1.446 . S
C653 C676 1.391 . S
C654 C653 1.446 . S
C654 C655 1.339 . S
C654 H683 0.949 . S
C655 C654 1.339 . S
C655 C656 1.439 . S
C655 H684 0.950 . S
C656 N652 1.383 . S
C656 C655 1.439 . S
C656 C674 1.392 . S
N657 Co641 2.282 . S
N657 C660 1.332 . S
N657 C662 1.332 . S
C658 C659 1.386 . S
C658 C661 1.388 . S
C659 C658 1.386 . S
C659 C660 1.382 . S
C659 H685 0.950 . S
C660 N657 1.332 . S
C660 C659 1.382 . S
C660 H671 0.952 . S
C661 C658 1.388 . S
C661 C662 1.382 . S
C661 H686 0.950 . S
C662 N657 1.332 . S
C662 C661 1.382 . S
C662 H672 0.948 . S
N663 Co641 2.282 . S
N663 C667 1.332 . S
N663 C668 1.332 . S
C664 C665 1.388 . S
C664 C668 1.382 . S
C664 H687 0.950 . S
C665 C664 1.388 . S
C665 C666 1.386 . S
C666 C665 1.386 . S
C666 C667 1.382 . S
C666 H688 0.950 . S
C667 N663 1.332 . S
C667 C666 1.382 . S
C667 H669 0.952 . S
C668 N663 1.332 . S
C668 C664 1.382 . S
C668 H670 0.948 . S
H669 C667 0.952 . S
H670 C668 0.948 . S
H671 C660 0.952 . S
H672 C662 0.948 . S
C673 C639 1.395 . S
C673 C643 1.391 . S
C674 C636 1.389 . S
C674 C656 1.392 . S
C675 C646 1.392 . S
C675 C648 1.389 . S
C676 C651 1.395 . S
C676 C653 1.391 . S
H677 C637 0.951 . S
H678 C638 0.950 . S
H679 C644 0.949 . S
H680 C645 0.950 . S
H681 C649 0.951 . S
H682 C650 0.950 . S
H683 C654 0.949 . S
H684 C655 0.950 . S
H685 C659 0.950 . S
H686 C661 0.950 . S
H687 C664 0.950 . S
H688 C666 0.950 . S
C689 C690 1.443 . S
C689 N693 1.376 . S
C689 C727 1.389 . S
C690 C689 1.443 . S
C690 C691 1.340 . S
C690 H730 0.951 . S
C691 C690 1.340 . S
C691 C692 1.439 . S
C691 H731 0.950 . S
C692 C691 1.439 . S
C692 N693 1.374 . S
C692 C726 1.395 . S
N693 C689 1.376 . S
N693 C692 1.374 . S
N693 Co694 2.008 . S
Co694 N693 2.008 . S
Co694 N695 1.995 . S
Co694 N700 2.008 . S
Co694 N705 1.995 . S
Co694 N710 2.282 . S
Co694 N716 2.282 . S
N695 Co694 1.995 . S
N695 C696 1.376 . S
N695 C699 1.383 . S
C696 N695 1.376 . S
C696 C697 1.446 . S
C696 C726 1.391 . S
C697 C696 1.446 . S
C697 C698 1.339 . S
C697 H732 0.949 . S
C698 C697 1.339 . S
C698 C699 1.439 . S
C698 H733 0.950 . S
C699 N695 1.383 . S
C699 C698 1.439 . S
C699 C728 1.392 . S
N700 Co694 2.008 . S
N700 C701 1.376 . S
N700 C704 1.374 . S
C701 N700 1.376 . S
C701 C702 1.443 . S
C701 C728 1.389 . S
C702 C701 1.443 . S
C702 C703 1.340 . S
C702 H734 0.951 . S
C703 C702 1.340 . S
C703 C704 1.439 . S
C703 H735 0.950 . S
C704 N700 1.374 . S
C704 C703 1.439 . S
C704 C729 1.395 . S
N705 Co694 1.995 . S
N705 C706 1.376 . S
N705 C709 1.383 . S
C706 N705 1.376 . S
C706 C707 1.446 . S
C706 C729 1.391 . S
C707 C706 1.446 . S
C707 C708 1.339 . S
C707 H736 0.949 . S
C708 C707 1.339 . S
C708 C709 1.439 . S
C708 H737 0.950 . S
C709 N705 1.383 . S
C709 C708 1.439 . S
C709 C727 1.392 . S
N710 Co694 2.282 . S
N710 C713 1.332 . S
N710 C715 1.332 . S
C711 C712 1.386 . S
C711 C714 1.388 . S
C712 C711 1.386 . S
C712 C713 1.382 . S
C712 H738 0.950 . S
C713 N710 1.332 . S
C713 C712 1.382 . S
C713 H724 0.952 . S
C714 C711 1.388 . S
C714 C715 1.382 . S
C714 H739 0.950 . S
C715 N710 1.332 . S
C715 C714 1.382 . S
C715 H725 0.948 . S
N716 Co694 2.282 . S
N716 C720 1.332 . S
N716 C721 1.332 . S
C717 C718 1.388 . S
C717 C721 1.382 . S
C717 H740 0.950 . S
C718 C717 1.388 . S
C718 C719 1.386 . S
C719 C718 1.386 . S
C719 C720 1.382 . S
C719 H741 0.950 . S
C720 N716 1.332 . S
C720 C719 1.382 . S
C720 H722 0.952 . S
C721 N716 1.332 . S
C721 C717 1.382 . S
C721 H723 0.948 . S
H722 C720 0.952 . S
H723 C721 0.948 . S
H724 C713 0.952 . S
H725 C715 0.948 . S
C726 C692 1.395 . S
C726 C696 1.391 . S
C727 C689 1.389 . S
C727 C709 1.392 . S
C728 C699 1.392 . S
C728 C701 1.389 . S
C729 C704 1.395 . S
C729 C706 1.391 . S
H730 C690 0.951 . S
H731 C691 0.950 . S
H732 C697 0.949 . S
H733 C698 0.950 . S
H734 C702 0.951 . S
H735 C703 0.950 . S
H736 C707 0.949 . S
H737 C708 0.950 . S
H738 C712 0.950 . S
H739 C714 0.950 . S
H740 C717 0.950 . S
H741 C719 0.950 . S
C742 C743 1.436 1_554 S
C742 N746 1.384 . S
C742 C780 1.388 1_554 S
C743 C742 1.436 1_556 S
C743 C744 1.340 . S
C743 H783 0.951 . S
C744 C743 1.340 . S
C744 C745 1.439 1_556 S
C744 H784 0.950 . S
C745 C744 1.439 1_554 S
C745 N746 1.374 . S
C745 C779 1.395 . S
N746 C742 1.384 . S
N746 C745 1.374 . S
N746 Co747 2.008 . S
Co747 N746 2.008 . S
Co747 N748 1.995 . S
Co747 N753 2.008 . S
Co747 N758 1.995 . S
Co747 N763 2.282 . S
Co747 N769 2.282 1_554 S
N748 Co747 1.995 . S
N748 C749 1.376 . S
N748 C752 1.383 . S
C749 N748 1.376 . S
C749 C750 1.446 . S
C749 C779 1.391 . S
C750 C749 1.446 . S
C750 C751 1.339 . S
C750 H785 0.949 . S
C751 C750 1.339 . S
C751 C752 1.439 . S
C751 H786 0.950 . S
C752 N748 1.383 . S
C752 C751 1.439 . S
C752 C781 1.392 . S
N753 Co747 2.008 . S
N753 C754 1.376 . S
N753 C757 1.374 . S
C754 N753 1.376 . S
C754 C755 1.443 . S
C754 C781 1.389 . S
C755 C754 1.443 . S
C755 C756 1.340 . S
C755 H787 0.951 . S
C756 C755 1.340 . S
C756 C757 1.439 . S
C756 H788 0.950 . S
C757 N753 1.374 . S
C757 C756 1.439 . S
C757 C782 1.395 . S
N758 Co747 1.995 . S
N758 C759 1.376 . S
N758 C762 1.383 . S
C759 N758 1.376 . S
C759 C760 1.446 . S
C759 C782 1.391 . S
C760 C759 1.446 . S
C760 C761 1.339 . S
C760 H789 0.949 . S
C761 C760 1.339 . S
C761 C762 1.439 . S
C761 H790 0.958 . S
C762 N758 1.383 . S
C762 C761 1.439 . S
C762 C780 1.389 1_554 S
N763 Co747 2.282 . S
N763 C766 1.332 . S
N763 C768 1.332 . S
C764 C765 1.386 . S
C764 C767 1.388 . S
C765 C764 1.386 . S
C765 C766 1.382 . S
C765 H791 0.950 . S
C766 N763 1.332 . S
C766 C765 1.382 . S
C766 H777 0.952 . S
C767 C764 1.388 . S
C767 C768 1.382 . S
C767 H792 0.950 . S
C768 N763 1.332 . S
C768 C767 1.382 . S
C768 H778 0.948 . S
N769 Co747 2.282 1_556 S
N769 C773 1.332 . S
N769 C774 1.332 . S
C770 C771 1.388 . S
C770 C774 1.382 . S
C770 H793 0.950 . S
C771 C770 1.388 . S
C771 C772 1.386 . S
C772 C771 1.386 . S
C772 C773 1.382 . S
C772 H794 0.950 . S
C773 N769 1.332 . S
C773 C772 1.382 . S
C773 H775 0.952 . S
C774 N769 1.332 . S
C774 C770 1.382 . S
C774 H776 0.948 . S
H775 C773 0.952 . S
H776 C774 0.948 . S
H777 C766 0.952 . S
H778 C768 0.948 . S
C779 C745 1.395 . S
C779 C749 1.391 . S
C780 C742 1.388 1_556 S
C780 C762 1.389 1_556 S
C781 C752 1.392 . S
C781 C754 1.389 . S
C782 C757 1.395 . S
C782 C759 1.391 . S
H783 C743 0.951 . S
H784 C744 0.950 . S
H785 C750 0.949 . S
H786 C751 0.950 . S
H787 C755 0.951 . S
H788 C756 0.950 . S
H789 C760 0.949 . S
H790 C761 0.958 . S
H791 C765 0.950 . S
H792 C767 0.950 . S
H793 C770 0.950 . S
H794 C772 0.950 . S
C795 C796 1.443 . S
C795 N799 1.376 . S
C795 C833 1.389 . S
C796 C795 1.443 . S
C796 C797 1.340 . S
C796 H836 0.951 . S
C797 C796 1.340 . S
C797 C798 1.439 . S
C797 H837 0.950 . S
C798 C797 1.439 . S
C798 N799 1.374 . S
C798 C832 1.395 . S
N799 C795 1.376 . S
N799 C798 1.374 . S
N799 Co800 2.008 . S
Co800 N799 2.008 . S
Co800 N801 1.995 . S
Co800 N806 2.008 . S
Co800 N811 1.995 . S
Co800 N816 2.282 . S
Co800 N822 2.282 . S
N801 Co800 1.995 . S
N801 C802 1.376 . S
N801 C805 1.383 . S
C802 N801 1.376 . S
C802 C803 1.446 . S
C802 C832 1.391 . S
C803 C802 1.446 . S
C803 C804 1.339 . S
C803 H838 0.949 . S
C804 C803 1.339 . S
C804 C805 1.439 . S
C804 H839 0.950 . S
C805 N801 1.383 . S
C805 C804 1.439 . S
C805 C834 1.392 . S
N806 Co800 2.008 . S
N806 C807 1.376 . S
N806 C810 1.374 . S
C807 N806 1.376 . S
C807 C808 1.443 . S
C807 C834 1.389 . S
C808 C807 1.443 . S
C808 C809 1.340 . S
C808 H840 0.951 . S
C809 C808 1.340 . S
C809 C810 1.439 . S
C809 H841 0.950 . S
C810 N806 1.374 . S
C810 C809 1.439 . S
C810 C835 1.395 . S
N811 Co800 1.995 . S
N811 C812 1.376 . S
N811 C815 1.383 . S
C812 N811 1.376 . S
C812 C813 1.446 . S
C812 C835 1.391 . S
C813 C812 1.446 . S
C813 C814 1.339 . S
C813 H842 0.949 . S
C814 C813 1.339 . S
C814 C815 1.439 . S
C814 H843 0.950 . S
C815 N811 1.383 . S
C815 C814 1.439 . S
C815 C833 1.392 . S
N816 Co800 2.282 . S
N816 C819 1.332 . S
N816 C821 1.332 . S
C817 C818 1.386 . S
C817 C820 1.388 . S
C818 C817 1.386 . S
C818 C819 1.382 . S
C818 H844 0.950 . S
C819 N816 1.332 . S
C819 C818 1.382 . S
C819 H830 0.952 . S
C820 C817 1.388 . S
C820 C821 1.382 . S
C820 H845 0.950 . S
C821 N816 1.332 . S
C821 C820 1.382 . S
C821 H831 0.948 . S
N822 Co800 2.282 . S
N822 C826 1.332 . S
N822 C827 1.332 . S
C823 C824 1.388 . S
C823 C827 1.382 . S
C823 H846 0.950 . S
C824 C823 1.388 . S
C824 C825 1.386 . S
C825 C824 1.386 . S
C825 C826 1.382 . S
C825 H847 0.950 . S
C826 N822 1.332 . S
C826 C825 1.382 . S
C826 H828 0.952 . S
C827 N822 1.332 . S
C827 C823 1.382 . S
C827 H829 0.948 . S
H828 C826 0.952 . S
H829 C827 0.948 . S
H830 C819 0.952 . S
H831 C821 0.948 . S
C832 C798 1.395 . S
C832 C802 1.391 . S
C833 C795 1.389 . S
C833 C815 1.392 . S
C834 C805 1.392 . S
C834 C807 1.389 . S
C835 C810 1.395 . S
C835 C812 1.391 . S
H836 C796 0.951 . S
H837 C797 0.950 . S
H838 C803 0.949 . S
H839 C804 0.950 . S
H840 C808 0.951 . S
H841 C809 0.950 . S
H842 C813 0.949 . S
H843 C814 0.950 . S
H844 C818 0.950 . S
H845 C820 0.950 . S
H846 C823 0.950 . S
H847 C825 0.950 . S
C848 C849 1.391 . S
C848 C850 1.394 . S
C848 H864 0.931 . S
C849 C848 1.391 . S
C849 C853 1.376 . S
C850 C848 1.394 . S
C850 C851 1.369 . S
C850 C854 1.531 . S
C851 C850 1.369 . S
C851 C852 1.410 . S
C851 C859 1.503 . S
C852 C851 1.410 . S
C852 C853 1.392 . S
C852 C855 1.511 . S
C853 C849 1.376 . S
C853 C852 1.392 . S
C853 H865 0.929 . S
C854 C850 1.531 . S
C854 H866 0.960 . S
C854 H867 0.962 . S
C854 H868 0.960 . S
C855 C852 1.511 . S
C855 H869 0.961 . S
C855 H870 0.961 . S
C855 H871 0.961 . S
C856 C857 1.370 . S
C856 C858 1.363 . S
C856 H872 0.931 . S
C857 C856 1.370 . S
C857 C861 1.408 . S
C858 C856 1.363 . S
C858 C859 1.370 . S
C858 C862 1.524 . S
C859 C851 1.503 . S
C859 C858 1.370 . S
C859 C860 1.403 . S
C860 C859 1.403 . S
C860 C861 1.404 . S
C860 C863 1.539 . S
C861 C857 1.408 . S
C861 C860 1.404 . S
C861 H873 0.930 . S
C862 C858 1.524 . S
C862 H874 0.956 . S
C862 H875 0.961 . S
C862 H876 0.961 . S
C863 C860 1.539 . S
C863 H877 0.958 . S
C863 H878 0.961 . S
C863 H879 0.960 . S
H864 C848 0.931 . S
H865 C853 0.929 . S
H866 C854 0.960 . S
H867 C854 0.962 . S
H868 C854 0.960 . S
H869 C855 0.961 . S
H870 C855 0.961 . S
H871 C855 0.961 . S
H872 C856 0.931 . S
H873 C861 0.930 . S
H874 C862 0.956 . S
H875 C862 0.961 . S
H876 C862 0.961 . S
H877 C863 0.958 . S
H878 C863 0.961 . S
H879 C863 0.960 . S
C880 C881 1.391 . S
C880 C882 1.394 . S
C880 H896 0.931 . S
C881 C880 1.391 . S
C881 C885 1.376 . S
C882 C880 1.394 . S
C882 C883 1.369 . S
C882 C886 1.531 . S
C883 C882 1.369 . S
C883 C884 1.410 . S
C883 C891 1.503 . S
C884 C883 1.410 . S
C884 C885 1.392 . S
C884 C887 1.511 . S
C885 C881 1.376 . S
C885 C884 1.392 . S
C885 H897 0.929 . S
C886 C882 1.531 . S
C886 H898 0.960 . S
C886 H899 0.962 . S
C886 H900 0.960 . S
C887 C884 1.511 . S
C887 H901 0.961 . S
C887 H902 0.961 . S
C887 H903 0.961 . S
C888 C889 1.370 . S
C888 C890 1.363 . S
C888 H904 0.931 . S
C889 C888 1.370 . S
C889 C893 1.408 . S
C890 C888 1.363 . S
C890 C891 1.370 . S
C890 C894 1.524 . S
C891 C883 1.503 . S
C891 C890 1.370 . S
C891 C892 1.403 . S
C892 C891 1.403 . S
C892 C893 1.404 . S
C892 C895 1.539 . S
C893 C889 1.408 . S
C893 C892 1.404 . S
C893 H905 0.930 . S
C894 C890 1.524 . S
C894 H906 0.956 . S
C894 H907 0.961 . S
C894 H908 0.961 . S
C895 C892 1.539 . S
C895 H909 0.958 . S
C895 H910 0.961 . S
C895 H911 0.960 . S
H896 C880 0.931 . S
H897 C885 0.929 . S
H898 C886 0.960 . S
H899 C886 0.962 . S
H900 C886 0.960 . S
H901 C887 0.961 . S
H902 C887 0.961 . S
H903 C887 0.961 . S
H904 C888 0.931 . S
H905 C893 0.930 . S
H906 C894 0.956 . S
H907 C894 0.961 . S
H908 C894 0.961 . S
H909 C895 0.958 . S
H910 C895 0.961 . S
H911 C895 0.960 . S
C912 C913 1.391 . S
C912 C914 1.394 . S
C912 H928 0.931 . S
C913 C912 1.391 . S
C913 C917 1.376 . S
C914 C912 1.394 . S
C914 C915 1.369 . S
C914 C918 1.531 . S
C915 C914 1.369 . S
C915 C916 1.410 . S
C915 C923 1.503 . S
C916 C915 1.410 . S
C916 C917 1.392 . S
C916 C919 1.511 . S
C917 C913 1.376 . S
C917 C916 1.392 . S
C917 H929 0.929 . S
C918 C914 1.531 . S
C918 H930 0.960 . S
C918 H931 0.962 . S
C918 H932 0.960 . S
C919 C916 1.511 . S
C919 H933 0.961 . S
C919 H934 0.961 . S
C919 H935 0.961 . S
C920 C921 1.370 . S
C920 C922 1.363 . S
C920 H936 0.931 . S
C921 C920 1.370 . S
C921 C925 1.408 . S
C922 C920 1.363 . S
C922 C923 1.370 . S
C922 C926 1.524 . S
C923 C915 1.503 . S
C923 C922 1.370 . S
C923 C924 1.403 . S
C924 C923 1.403 . S
C924 C925 1.404 . S
C924 C927 1.539 . S
C925 C921 1.408 . S
C925 C924 1.404 . S
C925 H937 0.930 . S
C926 C922 1.524 . S
C926 H938 0.956 . S
C926 H939 0.961 . S
C926 H940 0.961 . S
C927 C924 1.539 . S
C927 H941 0.958 . S
C927 H942 0.961 . S
C927 H943 0.960 . S
H928 C912 0.931 . S
H929 C917 0.929 . S
H930 C918 0.960 . S
H931 C918 0.962 . S
H932 C918 0.960 . S
H933 C919 0.961 . S
H934 C919 0.961 . S
H935 C919 0.961 . S
H936 C920 0.931 . S
H937 C925 0.930 . S
H938 C926 0.956 . S
H939 C926 0.961 . S
H940 C926 0.961 . S
H941 C927 0.958 . S
H942 C927 0.961 . S
H943 C927 0.960 . S
C944 C945 1.391 . S
C944 C946 1.394 . S
C944 H960 0.931 . S
C945 C944 1.391 . S
C945 C949 1.376 . S
C946 C944 1.394 . S
C946 C947 1.369 . S
C946 C950 1.531 . S
C947 C946 1.369 . S
C947 C948 1.410 . S
C947 C955 1.503 . S
C948 C947 1.410 . S
C948 C949 1.392 . S
C948 C951 1.511 . S
C949 C945 1.376 . S
C949 C948 1.392 . S
C949 H961 0.929 . S
C950 C946 1.531 . S
C950 H962 0.960 . S
C950 H963 0.962 . S
C950 H964 0.960 . S
C951 C948 1.511 . S
C951 H965 0.961 . S
C951 H966 0.961 . S
C951 H967 0.961 . S
C952 C953 1.370 . S
C952 C954 1.363 . S
C952 H968 0.931 . S
C953 C952 1.370 . S
C953 C957 1.408 . S
C954 C952 1.363 . S
C954 C955 1.370 . S
C954 C958 1.524 . S
C955 C947 1.503 . S
C955 C954 1.370 . S
C955 C956 1.403 . S
C956 C955 1.403 . S
C956 C957 1.404 . S
C956 C959 1.539 . S
C957 C953 1.408 . S
C957 C956 1.404 . S
C957 H969 0.930 . S
C958 C954 1.524 . S
C958 H970 0.956 . S
C958 H971 0.961 . S
C958 H972 0.961 . S
C959 C956 1.539 . S
C959 H973 0.958 . S
C959 H974 0.961 . S
C959 H975 0.960 . S
H960 C944 0.931 . S
H961 C949 0.929 . S
H962 C950 0.960 . S
H963 C950 0.962 . S
H964 C950 0.960 . S
H965 C951 0.961 . S
H966 C951 0.961 . S
H967 C951 0.961 . S
H968 C952 0.931 . S
H969 C957 0.930 . S
H970 C958 0.956 . S
H971 C958 0.961 . S
H972 C958 0.961 . S
H973 C959 0.958 . S
H974 C959 0.961 . S
H975 C959 0.960 . S
C976 C977 1.391 . S
C976 C978 1.394 . S
C976 H992 0.931 . S
C977 C976 1.391 . S
C977 C981 1.376 . S
C978 C976 1.394 . S
C978 C979 1.369 . S
C978 C982 1.531 . S
C979 C978 1.369 . S
C979 C980 1.410 . S
C979 C987 1.503 . S
C980 C979 1.410 . S
C980 C981 1.392 . S
C980 C983 1.511 . S
C981 C977 1.376 . S
C981 C980 1.392 . S
C981 H993 0.929 . S
C982 C978 1.531 . S
C982 H994 0.960 . S
C982 H995 0.962 . S
C982 H996 0.960 . S
C983 C980 1.511 . S
C983 H997 0.961 . S
C983 H998 0.961 . S
C983 H999 0.961 . S
C984 C985 1.370 . S
C984 C986 1.363 . S
C984 H1000 0.931 1_556 S
C985 C984 1.370 . S
C985 C989 1.408 . S
C986 C984 1.363 . S
C986 C987 1.370 . S
C986 C990 1.524 . S
C987 C979 1.503 . S
C987 C986 1.370 . S
C987 C988 1.403 . S
C988 C987 1.403 . S
C988 C989 1.404 . S
C988 C991 1.539 . S
C989 C985 1.408 . S
C989 C988 1.404 . S
C989 H1001 0.930 . S
C990 C986 1.524 . S
C990 H1002 0.956 . S
C990 H1003 0.961 . S
C990 H1004 0.961 . S
C991 C988 1.539 . S
C991 H1005 0.958 . S
C991 H1006 0.961 . S
C991 H1007 0.960 . S
H992 C976 0.931 . S
H993 C981 0.929 . S
H994 C982 0.960 . S
H995 C982 0.962 . S
H996 C982 0.960 . S
H997 C983 0.961 . S
H998 C983 0.961 . S
H999 C983 0.961 . S
H1000 C984 0.931 1_554 S
H1001 C989 0.930 . S
H1002 C990 0.956 . S
H1003 C990 0.961 . S
H1004 C990 0.961 . S
H1005 C991 0.958 . S
H1006 C991 0.961 . S
H1007 C991 0.960 . S
C1008 C1009 1.391 . S
C1008 C1010 1.394 . S
C1008 H1024 0.931 . S
C1009 C1008 1.391 . S
C1009 C1013 1.376 . S
C1010 C1008 1.394 . S
C1010 C1011 1.369 . S
C1010 C1014 1.531 . S
C1011 C1010 1.369 . S
C1011 C1012 1.410 . S
C1011 C1019 1.503 . S
C1012 C1011 1.410 . S
C1012 C1013 1.392 . S
C1012 C1015 1.511 . S
C1013 C1009 1.376 . S
C1013 C1012 1.392 . S
C1013 H1025 0.929 . S
C1014 C1010 1.531 . S
C1014 H1026 0.960 . S
C1014 H1027 0.962 . S
C1014 H1028 0.960 . S
C1015 C1012 1.511 . S
C1015 H1029 0.961 . S
C1015 H1030 0.961 . S
C1015 H1031 0.961 . S
C1016 C1017 1.370 . S
C1016 C1018 1.363 . S
C1016 H1032 0.931 . S
C1017 C1016 1.370 . S
C1017 C1021 1.408 . S
C1018 C1016 1.363 . S
C1018 C1019 1.370 . S
C1018 C1022 1.524 . S
C1019 C1011 1.503 . S
C1019 C1018 1.370 . S
C1019 C1020 1.403 . S
C1020 C1019 1.403 . S
C1020 C1021 1.404 . S
C1020 C1023 1.539 . S
C1021 C1017 1.408 . S
C1021 C1020 1.404 . S
C1021 H1033 0.930 . S
C1022 C1018 1.524 . S
C1022 H1034 0.956 . S
C1022 H1035 0.961 . S
C1022 H1036 0.961 . S
C1023 C1020 1.539 . S
C1023 H1037 0.958 . S
C1023 H1038 0.961 . S
C1023 H1039 0.960 . S
H1024 C1008 0.931 . S
H1025 C1013 0.929 . S
H1026 C1014 0.960 . S
H1027 C1014 0.962 . S
H1028 C1014 0.960 . S
H1029 C1015 0.961 . S
H1030 C1015 0.961 . S
H1031 C1015 0.961 . S
H1032 C1016 0.931 . S
H1033 C1021 0.930 . S
H1034 C1022 0.956 . S
H1035 C1022 0.961 . S
H1036 C1022 0.961 . S
H1037 C1023 0.958 . S
H1038 C1023 0.961 . S
H1039 C1023 0.960 . S
C1040 C1041 1.391 . S
C1040 C1042 1.394 . S
C1040 H1056 0.931 . S
C1041 C1040 1.391 . S
C1041 C1045 1.376 . S
C1042 C1040 1.394 . S
C1042 C1043 1.369 . S
C1042 C1046 1.531 . S
C1043 C1042 1.369 . S
C1043 C1044 1.410 . S
C1043 C1051 1.503 . S
C1044 C1043 1.410 . S
C1044 C1045 1.392 . S
C1044 C1047 1.511 . S
C1045 C1041 1.376 . S
C1045 C1044 1.392 . S
C1045 H1057 0.929 . S
C1046 C1042 1.531 . S
C1046 H1058 0.960 . S
C1046 H1059 0.962 . S
C1046 H1060 0.960 . S
C1047 C1044 1.511 . S
C1047 H1061 0.961 . S
C1047 H1062 0.961 . S
C1047 H1063 0.961 . S
C1048 C1049 1.370 . S
C1048 C1050 1.363 . S
C1048 H1064 0.931 . S
C1049 C1048 1.370 . S
C1049 C1053 1.408 . S
C1050 C1048 1.363 . S
C1050 C1051 1.370 . S
C1050 C1054 1.524 . S
C1051 C1043 1.503 . S
C1051 C1050 1.370 . S
C1051 C1052 1.403 . S
C1052 C1051 1.403 . S
C1052 C1053 1.404 . S
C1052 C1055 1.539 . S
C1053 C1049 1.408 . S
C1053 C1052 1.404 . S
C1053 H1065 0.930 . S
C1054 C1050 1.524 . S
C1054 H1066 0.956 . S
C1054 H1067 0.961 . S
C1054 H1068 0.961 . S
C1055 C1052 1.539 . S
C1055 H1069 0.958 . S
C1055 H1070 0.961 . S
C1055 H1071 0.960 . S
H1056 C1040 0.931 . S
H1057 C1045 0.929 . S
H1058 C1046 0.960 . S
H1059 C1046 0.962 . S
H1060 C1046 0.960 . S
H1061 C1047 0.961 . S
H1062 C1047 0.961 . S
H1063 C1047 0.961 . S
H1064 C1048 0.931 . S
H1065 C1053 0.930 . S
H1066 C1054 0.956 . S
H1067 C1054 0.961 . S
H1068 C1054 0.961 . S
H1069 C1055 0.958 . S
H1070 C1055 0.961 . S
H1071 C1055 0.960 . S
C1072 C1073 1.391 . S
C1072 C1074 1.394 . S
C1072 H1088 0.931 . S
C1073 C1072 1.391 . S
C1073 C1077 1.376 . S
C1074 C1072 1.394 . S
C1074 C1075 1.369 . S
C1074 C1078 1.531 . S
C1075 C1074 1.369 . S
C1075 C1076 1.410 . S
C1075 C1083 1.503 . S
C1076 C1075 1.410 . S
C1076 C1077 1.392 . S
C1076 C1079 1.511 . S
C1077 C1073 1.376 . S
C1077 C1076 1.392 . S
C1077 H1089 0.929 . S
C1078 C1074 1.531 . S
C1078 H1090 0.960 . S
C1078 H1091 0.962 . S
C1078 H1092 0.960 . S
C1079 C1076 1.511 . S
C1079 H1093 0.961 . S
C1079 H1094 0.961 . S
C1079 H1095 0.961 . S
C1080 C1081 1.370 . S
C1080 C1082 1.363 . S
C1080 H1096 0.931 . S
C1081 C1080 1.370 . S
C1081 C1085 1.408 . S
C1082 C1080 1.363 . S
C1082 C1083 1.370 . S
C1082 C1086 1.524 . S
C1083 C1075 1.503 . S
C1083 C1082 1.370 . S
C1083 C1084 1.403 . S
C1084 C1083 1.403 . S
C1084 C1085 1.404 . S
C1084 C1087 1.539 . S
C1085 C1081 1.408 . S
C1085 C1084 1.404 . S
C1085 H1097 0.930 . S
C1086 C1082 1.524 . S
C1086 H1098 0.956 . S
C1086 H1099 0.961 . S
C1086 H1100 0.961 . S
C1087 C1084 1.539 . S
C1087 H1101 0.958 . S
C1087 H1102 0.961 . S
C1087 H1103 0.960 . S
H1088 C1072 0.931 . S
H1089 C1077 0.929 . S
H1090 C1078 0.960 . S
H1091 C1078 0.962 . S
H1092 C1078 0.960 . S
H1093 C1079 0.961 . S
H1094 C1079 0.961 . S
H1095 C1079 0.961 . S
H1096 C1080 0.931 . S
H1097 C1085 0.930 . S
H1098 C1086 0.956 . S
H1099 C1086 0.961 . S
H1100 C1086 0.961 . S
H1101 C1087 0.958 . S
H1102 C1087 0.961 . S
H1103 C1087 0.960 . S
C1104 C1105 1.391 . S
C1104 C1106 1.394 . S
C1104 H1120 0.931 . S
C1105 C1104 1.391 . S
C1105 C1109 1.376 . S
C1106 C1104 1.394 . S
C1106 C1107 1.369 . S
C1106 C1110 1.531 . S
C1107 C1106 1.369 . S
C1107 C1108 1.410 . S
C1107 C1115 1.503 1_445 S
C1108 C1107 1.410 . S
C1108 C1109 1.392 . S
C1108 C1111 1.511 1_455 S
C1109 C1105 1.376 . S
C1109 C1108 1.392 . S
C1109 H1121 0.929 . S
C1110 C1106 1.531 . S
C1110 H1122 0.961 1_445 S
C1110 H1123 0.962 1_545 S
C1110 H1124 0.960 . S
C1111 C1108 1.511 1_655 S
C1111 H1125 0.981 . S
C1111 H1126 0.961 . S
C1111 H1127 0.961 . S
C1112 C1113 1.370 . S
C1112 C1114 1.363 1_655 S
C1112 H1128 0.931 1_655 S
C1113 C1112 1.370 . S
C1113 C1117 1.408 . S
C1114 C1112 1.363 1_455 S
C1114 C1115 1.370 1_455 S
C1114 C1118 1.524 . S
C1115 C1107 1.503 1_665 S
C1115 C1114 1.370 1_655 S
C1115 C1116 1.403 . S
C1116 C1115 1.403 . S
C1116 C1117 1.404 . S
C1116 C1119 1.539 1_565 S
C1117 C1113 1.408 . S
C1117 C1116 1.404 . S
C1117 H1129 0.930 . S
C1118 C1114 1.524 . S
C1118 H1130 0.956 . S
C1118 H1131 0.961 . S
C1118 H1132 0.961 . S
C1119 C1116 1.539 1_545 S
C1119 H1133 0.958 . S
C1119 H1134 0.961 . S
C1119 H1135 0.960 . S
H1120 C1104 0.931 . S
H1121 C1109 0.929 . S
H1122 C1110 0.961 1_665 S
H1123 C1110 0.962 1_565 S
H1124 C1110 0.960 . S
H1125 C1111 0.981 . S
H1126 C1111 0.961 . S
H1127 C1111 0.961 . S
H1128 C1112 0.931 1_455 S
H1129 C1117 0.930 . S
H1130 C1118 0.956 . S
H1131 C1118 0.961 . S
H1132 C1118 0.961 . S
H1133 C1119 0.958 . S
H1134 C1119 0.961 . S
H1135 C1119 0.960 . S
C1136 C1137 1.391 . S
C1136 C1138 1.394 . S
C1136 H1152 0.931 . S
C1137 C1136 1.391 . S
C1137 C1141 1.376 . S
C1138 C1136 1.394 . S
C1138 C1139 1.369 . S
C1138 C1142 1.531 1_655 S
C1139 C1138 1.369 . S
C1139 C1140 1.410 . S
C1139 C1147 1.503 1_655 S
C1140 C1139 1.410 . S
C1140 C1141 1.392 . S
C1140 C1143 1.511 . S
C1141 C1137 1.376 . S
C1141 C1140 1.392 . S
C1141 H1153 0.929 . S
C1142 C1138 1.531 1_455 S
C1142 H1154 0.960 . S
C1142 H1155 0.962 . S
C1142 H1156 0.960 . S
C1143 C1140 1.511 . S
C1143 H1157 0.961 . S
C1143 H1158 0.961 . S
C1143 H1159 0.961 . S
C1144 C1145 1.370 . S
C1144 C1146 1.363 . S
C1144 H1160 0.931 . S
C1145 C1144 1.370 . S
C1145 C1149 1.408 . S
C1146 C1144 1.363 . S
C1146 C1147 1.370 . S
C1146 C1150 1.524 1_455 S
C1147 C1139 1.503 1_455 S
C1147 C1146 1.370 . S
C1147 C1148 1.403 . S
C1148 C1147 1.403 . S
C1148 C1149 1.404 . S
C1148 C1151 1.539 . S
C1149 C1145 1.408 . S
C1149 C1148 1.404 . S
C1149 H1161 0.930 . S
C1150 C1146 1.524 1_655 S
C1150 H1162 0.956 . S
C1150 H1163 0.961 . S
C1150 H1164 0.961 . S
C1151 C1148 1.539 . S
C1151 H1165 0.958 . S
C1151 H1166 0.961 . S
C1151 H1167 0.960 . S
H1152 C1136 0.931 . S
H1153 C1141 0.929 . S
H1154 C1142 0.960 . S
H1155 C1142 0.962 . S
H1156 C1142 0.960 . S
H1157 C1143 0.961 . S
H1158 C1143 0.961 . S
H1159 C1143 0.961 . S
H1160 C1144 0.931 . S
H1161 C1149 0.930 . S
H1162 C1150 0.956 . S
H1163 C1150 0.961 . S
H1164 C1150 0.961 . S
H1165 C1151 0.958 . S
H1166 C1151 0.961 . S
H1167 C1151 0.960 . S
C1168 C1169 1.391 . S
C1168 C1170 1.394 . S
C1168 H1184 0.931 . S
C1169 C1168 1.391 . S
C1169 C1173 1.376 . S
C1170 C1168 1.394 . S
C1170 C1171 1.369 . S
C1170 C1174 1.531 . S
C1171 C1170 1.369 . S
C1171 C1172 1.410 . S
C1171 C1179 1.503 . S
C1172 C1171 1.410 . S
C1172 C1173 1.392 . S
C1172 C1175 1.511 . S
C1173 C1169 1.376 . S
C1173 C1172 1.392 . S
C1173 H1185 0.929 . S
C1174 C1170 1.531 . S
C1174 H1186 0.960 . S
C1174 H1187 0.962 . S
C1174 H1188 0.960 . S
C1175 C1172 1.511 . S
C1175 H1189 0.961 . S
C1175 H1190 0.961 . S
C1175 H1191 0.961 . S
C1176 C1177 1.370 . S
C1176 C1178 1.363 . S
C1176 H1192 0.931 . S
C1177 C1176 1.370 . S
C1177 C1181 1.408 . S
C1178 C1176 1.363 . S
C1178 C1179 1.370 . S
C1178 C1182 1.524 . S
C1179 C1171 1.503 . S
C1179 C1178 1.370 . S
C1179 C1180 1.403 . S
C1180 C1179 1.403 . S
C1180 C1181 1.404 . S
C1180 C1183 1.539 . S
C1181 C1177 1.408 . S
C1181 C1180 1.404 . S
C1181 H1193 0.930 . S
C1182 C1178 1.524 . S
C1182 H1194 0.956 . S
C1182 H1195 0.961 . S
C1182 H1196 0.961 . S
C1183 C1180 1.539 . S
C1183 H1197 0.958 . S
C1183 H1198 0.961 . S
C1183 H1199 0.960 . S
H1184 C1168 0.931 . S
H1185 C1173 0.929 . S
H1186 C1174 0.960 . S
H1187 C1174 0.962 . S
H1188 C1174 0.960 . S
H1189 C1175 0.961 . S
H1190 C1175 0.961 . S
H1191 C1175 0.961 . S
H1192 C1176 0.931 . S
H1193 C1181 0.930 . S
H1194 C1182 0.956 . S
H1195 C1182 0.961 . S
H1196 C1182 0.961 . S
H1197 C1183 0.958 . S
H1198 C1183 0.961 . S
H1199 C1183 0.960 . S
C1200 C1201 1.391 . S
C1200 C1202 1.420 . S
C1200 H1216 0.931 . S
C1201 C1200 1.391 . S
C1201 C1205 1.376 . S
C1202 C1200 1.420 . S
C1202 C1203 1.382 . S
C1202 C1206 1.492 1_565 S
C1203 C1202 1.382 . S
C1203 C1204 1.410 . S
C1203 C1211 1.503 1_565 S
C1204 C1203 1.410 . S
C1204 C1205 1.392 . S
C1204 C1207 1.511 . S
C1205 C1201 1.376 . S
C1205 C1204 1.392 . S
C1205 H1217 0.929 . S
C1206 C1202 1.492 1_545 S
C1206 H1218 0.960 . S
C1206 H1219 0.962 1_556 S
C1206 H1220 0.960 . S
C1207 C1204 1.511 . S
C1207 H1221 0.961 . S
C1207 H1222 0.961 . S
C1207 H1223 0.961 . S
C1208 C1209 1.370 1_554 S
C1208 C1210 1.363 . S
C1208 H1224 0.931 . S
C1209 C1208 1.370 1_556 S
C1209 C1213 1.408 . S
C1210 C1208 1.363 . S
C1210 C1211 1.370 1_554 S
C1210 C1214 1.524 . S
C1211 C1203 1.503 1_545 S
C1211 C1210 1.370 1_556 S
C1211 C1212 1.403 . S
C1212 C1211 1.403 . S
C1212 C1213 1.404 . S
C1212 C1215 1.539 . S
C1213 C1209 1.408 . S
C1213 C1212 1.404 . S
C1213 H1225 0.930 . S
C1214 C1210 1.524 . S
C1214 H1226 0.956 . S
C1214 H1227 0.961 1_545 S
C1214 H1228 0.961 . S
C1215 C1212 1.539 . S
C1215 H1229 0.958 . S
C1215 H1230 0.961 . S
C1215 H1231 0.960 1_545 S
H1216 C1200 0.931 . S
H1217 C1205 0.929 . S
H1218 C1206 0.960 . S
H1219 C1206 0.962 1_554 S
H1220 C1206 0.960 . S
H1221 C1207 0.961 . S
H1222 C1207 0.961 . S
H1223 C1207 0.961 . S
H1224 C1208 0.931 . S
H1225 C1213 0.930 . S
H1226 C1214 0.956 . S
H1227 C1214 0.961 1_565 S
H1228 C1214 0.961 . S
H1229 C1215 0.958 . S
H1230 C1215 0.961 . S
H1231 C1215 0.960 1_565 S
C1232 C1233 1.391 . S
C1232 C1234 1.394 1_455 S
C1232 H1248 0.931 . S
C1233 C1232 1.391 . S
C1233 C1237 1.376 . S
C1234 C1232 1.394 1_655 S
C1234 C1235 1.369 1_655 S
C1234 C1238 1.531 . S
C1235 C1234 1.369 1_455 S
C1235 C1236 1.410 . S
C1235 C1243 1.503 1_455 S
C1236 C1235 1.410 . S
C1236 C1237 1.392 . S
C1236 C1239 1.511 . S
C1237 C1233 1.376 . S
C1237 C1236 1.392 . S
C1237 H1249 0.929 . S
C1238 C1234 1.531 . S
C1238 H1250 0.960 . S
C1238 H1251 0.962 . S
C1238 H1252 0.960 . S
C1239 C1236 1.511 . S
C1239 H1253 0.961 . S
C1239 H1254 0.961 . S
C1239 H1255 0.961 . S
C1240 C1241 1.370 . S
C1240 C1242 1.363 . S
C1240 H1256 0.931 . S
C1241 C1240 1.370 . S
C1241 C1245 1.408 . S
C1242 C1240 1.363 . S
C1242 C1243 1.370 . S
C1242 C1246 1.524 1_554 S
C1243 C1235 1.503 1_655 S
C1243 C1242 1.370 . S
C1243 C1244 1.403 . S
C1244 C1243 1.403 . S
C1244 C1245 1.404 . S
C1244 C1247 1.539 1_655 S
C1245 C1241 1.408 . S
C1245 C1244 1.404 . S
C1245 H1257 0.930 . S
C1246 C1242 1.524 1_556 S
C1246 H1258 0.956 1_556 S
C1246 H1259 0.961 . S
C1246 H1260 0.961 . S
C1247 C1244 1.539 1_455 S
C1247 H1261 0.958 . S
C1247 H1262 0.961 . S
C1247 H1263 0.960 . S
H1248 C1232 0.931 . S
H1249 C1237 0.929 . S
H1250 C1238 0.960 . S
H1251 C1238 0.962 . S
H1252 C1238 0.960 . S
H1253 C1239 0.961 . S
H1254 C1239 0.961 . S
H1255 C1239 0.961 . S
H1256 C1240 0.931 . S
H1257 C1245 0.930 . S
H1258 C1246 0.956 1_554 S
H1259 C1246 0.961 . S
H1260 C1246 0.961 . S
H1261 C1247 0.958 . S
H1262 C1247 0.961 . S
H1263 C1247 0.960 . S
C1264 C1265 1.391 . S
C1264 C1266 1.394 . S
C1264 H1280 0.931 . S
C1265 C1264 1.391 . S
C1265 C1269 1.376 . S
C1266 C1264 1.394 . S
C1266 C1267 1.369 . S
C1266 C1270 1.531 . S
C1267 C1266 1.369 . S
C1267 C1268 1.410 . S
C1267 C1275 1.503 . S
C1268 C1267 1.410 . S
C1268 C1269 1.392 . S
C1268 C1271 1.511 . S
C1269 C1265 1.376 . S
C1269 C1268 1.392 . S
C1269 H1281 0.929 . S
C1270 C1266 1.531 . S
C1270 H1282 0.960 . S
C1270 H1283 0.962 . S
C1270 H1284 0.960 . S
C1271 C1268 1.511 . S
C1271 H1285 0.961 . S
C1271 H1286 0.961 . S
C1271 H1287 0.961 . S
C1272 C1273 1.370 . S
C1272 C1274 1.363 . S
C1272 H1288 0.931 . S
C1273 C1272 1.370 . S
C1273 C1277 1.408 . S
C1274 C1272 1.363 . S
C1274 C1275 1.370 . S
C1274 C1278 1.524 . S
C1275 C1267 1.503 . S
C1275 C1274 1.370 . S
C1275 C1276 1.403 . S
C1276 C1275 1.403 . S
C1276 C1277 1.404 . S
C1276 C1279 1.539 . S
C1277 C1273 1.408 . S
C1277 C1276 1.404 . S
C1277 H1289 0.930 . S
C1278 C1274 1.524 . S
C1278 H1290 0.956 . S
C1278 H1291 0.961 . S
C1278 H1292 0.961 . S
C1279 C1276 1.539 . S
C1279 H1293 0.958 . S
C1279 H1294 0.961 . S
C1279 H1295 0.960 . S
H1280 C1264 0.931 . S
H1281 C1269 0.929 . S
H1282 C1270 0.960 . S
H1283 C1270 0.962 . S
H1284 C1270 0.960 . S
H1285 C1271 0.961 . S
H1286 C1271 0.961 . S
H1287 C1271 0.961 . S
H1288 C1272 0.931 . S
H1289 C1277 0.930 . S
H1290 C1278 0.956 . S
H1291 C1278 0.961 . S
H1292 C1278 0.961 . S
H1293 C1279 0.958 . S
H1294 C1279 0.961 . S
H1295 C1279 0.960 . S
C1296 C1297 1.391 . S
C1296 C1298 1.394 . S
C1296 H1312 0.931 . S
C1297 C1296 1.391 . S
C1297 C1301 1.376 . S
C1298 C1296 1.394 . S
C1298 C1299 1.369 . S
C1298 C1302 1.531 1_545 S
C1299 C1298 1.369 . S
C1299 C1300 1.410 . S
C1299 C1307 1.503 1_545 S
C1300 C1299 1.410 . S
C1300 C1301 1.392 . S
C1300 C1303 1.511 . S
C1301 C1297 1.376 . S
C1301 C1300 1.392 . S
C1301 H1313 0.929 . S
C1302 C1298 1.531 1_565 S
C1302 H1314 0.960 . S
C1302 H1315 0.962 . S
C1302 H1316 0.960 1_565 S
C1303 C1300 1.511 . S
C1303 H1317 0.961 . S
C1303 H1318 0.961 . S
C1303 H1319 0.961 . S
C1304 C1305 1.370 . S
C1304 C1306 1.363 . S
C1304 H1320 0.931 . S
C1305 C1304 1.370 . S
C1305 C1309 1.408 . S
C1306 C1304 1.363 . S
C1306 C1307 1.370 . S
C1306 C1310 1.524 . S
C1307 C1299 1.503 1_565 S
C1307 C1306 1.370 . S
C1307 C1308 1.403 . S
C1308 C1307 1.403 . S
C1308 C1309 1.404 . S
C1308 C1311 1.539 1_565 S
C1309 C1305 1.408 . S
C1309 C1308 1.404 . S
C1309 H1321 0.930 . S
C1310 C1306 1.524 . S
C1310 H1322 0.956 . S
C1310 H1323 0.961 . S
C1310 H1324 0.961 . S
C1311 C1308 1.539 1_545 S
C1311 H1325 0.957 . S
C1311 H1326 0.962 . S
C1311 H1327 0.960 . S
H1312 C1296 0.931 . S
H1313 C1301 0.929 . S
H1314 C1302 0.960 . S
H1315 C1302 0.962 . S
H1316 C1302 0.960 1_545 S
H1317 C1303 0.961 . S
H1318 C1303 0.961 . S
H1319 C1303 0.961 . S
H1320 C1304 0.931 . S
H1321 C1309 0.930 . S
H1322 C1310 0.956 . S
H1323 C1310 0.961 . S
H1324 C1310 0.961 . S
H1325 C1311 0.957 . S
H1326 C1311 0.962 . S
H1327 C1311 0.960 . S
C1328 C1329 1.391 . S
C1328 C1330 1.394 . S
C1328 H1344 0.931 . S
C1329 C1328 1.391 . S
C1329 C1333 1.376 . S
C1330 C1328 1.394 . S
C1330 C1331 1.369 . S
C1330 C1334 1.531 1_545 S
C1331 C1330 1.369 . S
C1331 C1332 1.410 . S
C1331 C1339 1.503 1_445 S
C1332 C1331 1.410 . S
C1332 C1333 1.392 . S
C1332 C1335 1.511 1_455 S
C1333 C1329 1.376 . S
C1333 C1332 1.392 . S
C1333 H1345 0.929 . S
C1334 C1330 1.531 1_565 S
C1334 H1346 0.960 . S
C1334 H1347 0.962 . S
C1334 H1348 0.960 . S
C1335 C1332 1.511 1_655 S
C1335 H1349 0.961 . S
C1335 H1350 0.961 . S
C1335 H1351 0.961 . S
C1336 C1337 1.370 . S
C1336 C1338 1.363 . S
C1336 H1352 0.931 . S
C1337 C1336 1.370 . S
C1337 C1341 1.408 . S
C1338 C1336 1.363 . S
C1338 C1339 1.370 . S
C1338 C1342 1.524 . S
C1339 C1331 1.503 1_665 S
C1339 C1338 1.370 . S
C1339 C1340 1.403 . S
C1340 C1339 1.403 . S
C1340 C1341 1.404 . S
C1340 C1343 1.539 . S
C1341 C1337 1.408 . S
C1341 C1340 1.404 . S
C1341 H1353 0.930 . S
C1342 C1338 1.524 . S
C1342 H1354 0.956 1_655 S
C1342 H1355 0.961 1_565 S
C1342 H1356 0.961 . S
C1343 C1340 1.539 . S
C1343 H1357 0.958 . S
C1343 H1358 0.961 . S
C1343 H1359 0.960 1_565 S
H1344 C1328 0.931 . S
H1345 C1333 0.929 . S
H1346 C1334 0.960 . S
H1347 C1334 0.962 . S
H1348 C1334 0.960 . S
H1349 C1335 0.961 . S
H1350 C1335 0.961 . S
H1351 C1335 0.961 . S
H1352 C1336 0.931 . S
H1353 C1341 0.930 . S
H1354 C1342 0.956 1_455 S
H1355 C1342 0.961 1_545 S
H1356 C1342 0.961 . S
H1357 C1343 0.958 . S
H1358 C1343 0.961 . S
H1359 C1343 0.960 1_545 S
C1360 C1361 1.391 . S
C1360 C1362 1.394 . S
C1360 H1376 0.931 . S
C1361 C1360 1.391 . S
C1361 C1365 1.376 . S
C1362 C1360 1.394 . S
C1362 C1363 1.369 . S
C1362 C1366 1.531 . S
C1363 C1362 1.369 . S
C1363 C1364 1.410 . S
C1363 C1371 1.503 . S
C1364 C1363 1.410 . S
C1364 C1365 1.392 . S
C1364 C1367 1.511 . S
C1365 C1361 1.376 . S
C1365 C1364 1.392 . S
C1365 H1377 0.929 . S
C1366 C1362 1.531 . S
C1366 H1378 0.960 . S
C1366 H1379 0.962 . S
C1366 H1380 0.960 . S
C1367 C1364 1.511 . S
C1367 H1381 0.961 . S
C1367 H1382 0.961 . S
C1367 H1383 0.961 . S
C1368 C1369 1.370 . S
C1368 C1370 1.363 . S
C1368 H1384 0.931 . S
C1369 C1368 1.370 . S
C1369 C1373 1.408 . S
C1370 C1368 1.363 . S
C1370 C1371 1.370 . S
C1370 C1374 1.524 . S
C1371 C1363 1.503 . S
C1371 C1370 1.370 . S
C1371 C1372 1.403 . S
C1372 C1371 1.403 . S
C1372 C1373 1.404 . S
C1372 C1375 1.539 . S
C1373 C1369 1.408 . S
C1373 C1372 1.404 . S
C1373 H1385 0.930 . S
C1374 C1370 1.524 . S
C1374 H1386 0.956 . S
C1374 H1387 0.961 . S
C1374 H1388 0.961 . S
C1375 C1372 1.539 . S
C1375 H1389 0.958 . S
C1375 H1390 0.961 . S
C1375 H1391 0.960 . S
H1376 C1360 0.931 . S
H1377 C1365 0.929 . S
H1378 C1366 0.960 . S
H1379 C1366 0.962 . S
H1380 C1366 0.960 . S
H1381 C1367 0.961 . S
H1382 C1367 0.961 . S
H1383 C1367 0.961 . S
H1384 C1368 0.931 . S
H1385 C1373 0.930 . S
H1386 C1374 0.956 . S
H1387 C1374 0.961 . S
H1388 C1374 0.961 . S
H1389 C1375 0.958 . S
H1390 C1375 0.961 . S
H1391 C1375 0.960 . S
C1392 C1393 1.391 . S
C1392 C1394 1.394 . S
C1392 H1408 0.931 . S
C1393 C1392 1.391 . S
C1393 C1397 1.376 . S
C1394 C1392 1.394 . S
C1394 C1395 1.369 . S
C1394 C1398 1.531 . S
C1395 C1394 1.369 . S
C1395 C1396 1.410 . S
C1395 C1403 1.503 . S
C1396 C1395 1.410 . S
C1396 C1397 1.392 . S
C1396 C1399 1.511 . S
C1397 C1393 1.376 . S
C1397 C1396 1.392 . S
C1397 H1409 0.929 . S
C1398 C1394 1.531 . S
C1398 H1410 0.960 . S
C1398 H1411 0.962 . S
C1398 H1412 0.960 . S
C1399 C1396 1.511 . S
C1399 H1413 0.961 . S
C1399 H1414 0.961 . S
C1399 H1415 0.961 . S
C1400 C1401 1.370 . S
C1400 C1402 1.363 . S
C1400 H1416 0.931 . S
C1401 C1400 1.370 . S
C1401 C1405 1.408 . S
C1402 C1400 1.363 . S
C1402 C1403 1.370 . S
C1402 C1406 1.524 . S
C1403 C1395 1.503 . S
C1403 C1402 1.370 . S
C1403 C1404 1.403 . S
C1404 C1403 1.403 . S
C1404 C1405 1.404 . S
C1404 C1407 1.539 . S
C1405 C1401 1.408 . S
C1405 C1404 1.404 . S
C1405 H1417 0.930 . S
C1406 C1402 1.524 . S
C1406 H1418 0.956 . S
C1406 H1419 0.961 . S
C1406 H1420 0.961 . S
C1407 C1404 1.539 . S
C1407 H1421 0.958 . S
C1407 H1422 0.961 . S
C1407 H1423 0.960 . S
H1408 C1392 0.931 . S
H1409 C1397 0.929 . S
H1410 C1398 0.960 . S
H1411 C1398 0.962 . S
H1412 C1398 0.960 . S
H1413 C1399 0.961 . S
H1414 C1399 0.961 . S
H1415 C1399 0.961 . S
H1416 C1400 0.931 . S
H1417 C1405 0.930 . S
H1418 C1406 0.956 . S
H1419 C1406 0.961 . S
H1420 C1406 0.961 . S
H1421 C1407 0.958 . S
H1422 C1407 0.961 . S
H1423 C1407 0.960 . S
C1424 C1425 1.391 . S
C1424 C1426 1.394 . S
C1424 H1440 0.931 . S
C1425 C1424 1.391 . S
C1425 C1429 1.376 . S
C1426 C1424 1.394 . S
C1426 C1427 1.369 . S
C1426 C1430 1.531 . S
C1427 C1426 1.369 . S
C1427 C1428 1.410 . S
C1427 C1435 1.503 . S
C1428 C1427 1.410 . S
C1428 C1429 1.392 . S
C1428 C1431 1.511 . S
C1429 C1425 1.376 . S
C1429 C1428 1.392 . S
C1429 H1441 0.929 . S
C1430 C1426 1.531 . S
C1430 H1442 0.960 . S
C1430 H1443 0.962 . S
C1430 H1444 0.960 . S
C1431 C1428 1.511 . S
C1431 H1445 0.961 . S
C1431 H1446 0.961 . S
C1431 H1447 0.961 . S
C1432 C1433 1.370 1_554 S
C1432 C1434 1.363 . S
C1432 H1448 0.928 1_554 S
C1433 C1432 1.370 1_556 S
C1433 C1437 1.408 . S
C1434 C1432 1.363 . S
C1434 C1435 1.370 . S
C1434 C1438 1.524 . S
C1435 C1427 1.503 . S
C1435 C1434 1.370 . S
C1435 C1436 1.403 . S
C1436 C1435 1.403 . S
C1436 C1437 1.404 1_554 S
C1436 C1439 1.539 . S
C1437 C1433 1.408 . S
C1437 C1436 1.404 1_556 S
C1437 H1449 0.930 . S
C1438 C1434 1.524 . S
C1438 H1450 0.956 . S
C1438 H1451 0.961 . S
C1438 H1452 0.961 . S
C1439 C1436 1.539 . S
C1439 H1453 0.958 . S
C1439 H1454 0.961 . S
C1439 H1455 0.960 . S
H1440 C1424 0.931 . S
H1441 C1429 0.929 . S
H1442 C1430 0.960 . S
H1443 C1430 0.962 . S
H1444 C1430 0.960 . S
H1445 C1431 0.961 . S
H1446 C1431 0.961 . S
H1447 C1431 0.961 . S
H1448 C1432 0.928 1_556 S
H1449 C1437 0.930 . S
H1450 C1438 0.956 . S
H1451 C1438 0.961 . S
H1452 C1438 0.961 . S
H1453 C1439 0.958 . S
H1454 C1439 0.961 . S
H1455 C1439 0.960 . S
C1456 C1457 1.391 . S
C1456 C1458 1.394 . S
C1456 H1472 0.931 . S
C1457 C1456 1.391 . S
C1457 C1461 1.376 . S
C1458 C1456 1.394 . S
C1458 C1459 1.369 . S
C1458 C1462 1.531 . S
C1459 C1458 1.369 . S
C1459 C1460 1.410 . S
C1459 C1467 1.503 . S
C1460 C1459 1.410 . S
C1460 C1461 1.392 . S
C1460 C1463 1.511 . S
C1461 C1457 1.376 . S
C1461 C1460 1.392 . S
C1461 H1473 0.929 . S
C1462 C1458 1.531 . S
C1462 H1474 0.960 . S
C1462 H1475 0.962 . S
C1462 H1476 0.960 . S
C1463 C1460 1.511 . S
C1463 H1477 0.961 . S
C1463 H1478 0.961 . S
C1463 H1479 0.961 . S
C1464 C1465 1.370 . S
C1464 C1466 1.363 . S
C1464 H1480 0.931 . S
C1465 C1464 1.370 . S
C1465 C1469 1.408 . S
C1466 C1464 1.363 . S
C1466 C1467 1.370 . S
C1466 C1470 1.524 . S
C1467 C1459 1.503 . S
C1467 C1466 1.370 . S
C1467 C1468 1.403 . S
C1468 C1467 1.403 . S
C1468 C1469 1.404 . S
C1468 C1471 1.539 . S
C1469 C1465 1.408 . S
C1469 C1468 1.404 . S
C1469 H1481 0.930 . S
C1470 C1466 1.524 . S
C1470 H1482 0.956 . S
C1470 H1483 0.961 . S
C1470 H1484 0.961 . S
C1471 C1468 1.539 . S
C1471 H1485 0.958 . S
C1471 H1486 0.961 . S
C1471 H1487 0.960 . S
H1472 C1456 0.931 . S
H1473 C1461 0.929 . S
H1474 C1462 0.960 . S
H1475 C1462 0.962 . S
H1476 C1462 0.960 . S
H1477 C1463 0.961 . S
H1478 C1463 0.961 . S
H1479 C1463 0.961 . S
H1480 C1464 0.931 . S
H1481 C1469 0.930 . S
H1482 C1470 0.956 . S
H1483 C1470 0.961 . S
H1484 C1470 0.961 . S
H1485 C1471 0.958 . S
H1486 C1471 0.961 . S
H1487 C1471 0.960 . S
C1488 C1489 1.391 . S
C1488 C1490 1.394 . S
C1488 H1504 0.931 . S
C1489 C1488 1.391 . S
C1489 C1493 1.376 . S
C1490 C1488 1.394 . S
C1490 C1491 1.369 . S
C1490 C1494 1.531 . S
C1491 C1490 1.369 . S
C1491 C1492 1.410 . S
C1491 C1499 1.503 . S
C1492 C1491 1.410 . S
C1492 C1493 1.392 . S
C1492 C1495 1.511 . S
C1493 C1489 1.376 . S
C1493 C1492 1.392 . S
C1493 H1505 0.929 . S
C1494 C1490 1.531 . S
C1494 H1506 0.960 . S
C1494 H1507 0.962 . S
C1494 H1508 0.960 . S
C1495 C1492 1.511 . S
C1495 H1509 0.961 . S
C1495 H1510 0.961 . S
C1495 H1511 0.961 . S
C1496 C1497 1.370 . S
C1496 C1498 1.363 . S
C1496 H1512 0.931 . S
C1497 C1496 1.370 . S
C1497 C1501 1.408 . S
C1498 C1496 1.363 . S
C1498 C1499 1.370 . S
C1498 C1502 1.524 . S
C1499 C1491 1.503 . S
C1499 C1498 1.370 . S
C1499 C1500 1.403 . S
C1500 C1499 1.403 . S
C1500 C1501 1.404 . S
C1500 C1503 1.539 . S
C1501 C1497 1.408 . S
C1501 C1500 1.404 . S
C1501 H1513 0.930 . S
C1502 C1498 1.524 . S
C1502 H1514 0.956 . S
C1502 H1515 0.961 . S
C1502 H1516 0.961 . S
C1503 C1500 1.539 . S
C1503 H1517 0.958 . S
C1503 H1518 0.961 . S
C1503 H1519 0.960 . S
H1504 C1488 0.931 . S
H1505 C1493 0.929 . S
H1506 C1494 0.960 . S
H1507 C1494 0.962 . S
H1508 C1494 0.960 . S
H1509 C1495 0.961 . S
H1510 C1495 0.961 . S
H1511 C1495 0.961 . S
H1512 C1496 0.931 . S
H1513 C1501 0.930 . S
H1514 C1502 0.956 . S
H1515 C1502 0.961 . S
H1516 C1502 0.961 . S
H1517 C1503 0.958 . S
H1518 C1503 0.961 . S
H1519 C1503 0.960 . S
C1520 C1521 1.391 . S
C1520 C1522 1.394 . S
C1520 H1536 0.931 . S
C1521 C1520 1.391 . S
C1521 C1525 1.376 . S
C1522 C1520 1.394 . S
C1522 C1523 1.369 . S
C1522 C1526 1.531 . S
C1523 C1522 1.369 . S
C1523 C1524 1.410 . S
C1523 C1531 1.503 . S
C1524 C1523 1.410 . S
C1524 C1525 1.392 . S
C1524 C1527 1.511 . S
C1525 C1521 1.376 . S
C1525 C1524 1.392 . S
C1525 H1537 0.929 . S
C1526 C1522 1.531 . S
C1526 H1538 0.960 . S
C1526 H1539 0.962 . S
C1526 H1540 0.960 . S
C1527 C1524 1.511 . S
C1527 H1541 0.961 . S
C1527 H1542 0.961 . S
C1527 H1543 0.961 . S
C1528 C1529 1.388 . S
C1528 C1530 1.337 1_556 S
C1528 H1544 0.940 . S
C1529 C1528 1.388 . S
C1529 C1533 1.408 . S
C1530 C1528 1.337 1_554 S
C1530 C1531 1.370 . S
C1530 C1534 1.524 . S
C1531 C1523 1.503 . S
C1531 C1530 1.370 . S
C1531 C1532 1.403 . S
C1532 C1531 1.403 . S
C1532 C1533 1.404 1_554 S
C1532 C1535 1.539 . S
C1533 C1529 1.408 . S
C1533 C1532 1.404 1_556 S
C1533 H1545 0.930 . S
C1534 C1530 1.524 . S
C1534 H1546 0.956 . S
C1534 H1547 0.961 . S
C1534 H1548 0.961 . S
C1535 C1532 1.539 . S
C1535 H1549 0.958 . S
C1535 H1550 0.961 . S
C1535 H1551 0.960 . S
H1536 C1520 0.931 . S
H1537 C1525 0.929 . S
H1538 C1526 0.960 . S
H1539 C1526 0.962 . S
H1540 C1526 0.960 . S
H1541 C1527 0.961 . S
H1542 C1527 0.961 . S
H1543 C1527 0.961 . S
H1544 C1528 0.940 . S
H1545 C1533 0.930 . S
H1546 C1534 0.956 . S
H1547 C1534 0.961 . S
H1548 C1534 0.961 . S
H1549 C1535 0.958 . S
H1550 C1535 0.961 . S
H1551 C1535 0.960 . S
C1552 C1553 1.391 . S
C1552 C1554 1.394 . S
C1552 H1568 0.931 . S
C1553 C1552 1.391 . S
C1553 C1557 1.376 . S
C1554 C1552 1.394 . S
C1554 C1555 1.369 . S
C1554 C1558 1.531 . S
C1555 C1554 1.369 . S
C1555 C1556 1.410 . S
C1555 C1563 1.503 . S
C1556 C1555 1.410 . S
C1556 C1557 1.392 . S
C1556 C1559 1.511 . S
C1557 C1553 1.376 . S
C1557 C1556 1.392 . S
C1557 H1569 0.929 . S
C1558 C1554 1.531 . S
C1558 H1570 0.960 . S
C1558 H1571 0.962 . S
C1558 H1572 0.960 . S
C1559 C1556 1.511 . S
C1559 H1573 0.961 . S
C1559 H1574 0.961 . S
C1559 H1575 0.961 . S
C1560 C1561 1.370 . S
C1560 C1562 1.363 . S
C1560 H1576 0.931 . S
C1561 C1560 1.370 . S
C1561 C1565 1.408 . S
C1562 C1560 1.363 . S
C1562 C1563 1.370 . S
C1562 C1566 1.524 . S
C1563 C1555 1.503 . S
C1563 C1562 1.370 . S
C1563 C1564 1.403 . S
C1564 C1563 1.403 . S
C1564 C1565 1.404 . S
C1564 C1567 1.539 . S
C1565 C1561 1.408 . S
C1565 C1564 1.404 . S
C1565 H1577 0.930 . S
C1566 C1562 1.524 . S
C1566 H1578 0.956 . S
C1566 H1579 0.961 . S
C1566 H1580 0.961 . S
C1567 C1564 1.539 . S
C1567 H1581 0.958 . S
C1567 H1582 0.961 . S
C1567 H1583 0.960 . S
H1568 C1552 0.931 . S
H1569 C1557 0.929 . S
H1570 C1558 0.960 . S
H1571 C1558 0.962 . S
H1572 C1558 0.960 . S
H1573 C1559 0.961 . S
H1574 C1559 0.961 . S
H1575 C1559 0.961 . S
H1576 C1560 0.931 . S
H1577 C1565 0.930 . S
H1578 C1566 0.956 . S
H1579 C1566 0.961 . S
H1580 C1566 0.961 . S
H1581 C1567 0.958 . S
H1582 C1567 0.961 . S
H1583 C1567 0.960 . S
C1584 C1585 1.391 . S
C1584 C1586 1.394 . S
C1584 H1600 0.931 . S
C1585 C1584 1.391 . S
C1585 C1589 1.376 . S
C1586 C1584 1.394 . S
C1586 C1587 1.369 . S
C1586 C1590 1.531 . S
C1587 C1586 1.369 . S
C1587 C1588 1.410 . S
C1587 C1595 1.503 . S
C1588 C1587 1.410 . S
C1588 C1589 1.392 . S
C1588 C1591 1.511 . S
C1589 C1585 1.376 . S
C1589 C1588 1.392 . S
C1589 H1601 0.929 . S
C1590 C1586 1.531 . S
C1590 H1602 0.960 . S
C1590 H1603 0.962 . S
C1590 H1604 0.960 . S
C1591 C1588 1.511 . S
C1591 H1605 0.961 . S
C1591 H1606 0.961 . S
C1591 H1607 0.961 . S
C1592 C1593 1.370 . S
C1592 C1594 1.363 . S
C1592 H1608 0.931 . S
C1593 C1592 1.370 . S
C1593 C1597 1.408 . S
C1594 C1592 1.363 . S
C1594 C1595 1.370 . S
C1594 C1598 1.524 . S
C1595 C1587 1.503 . S
C1595 C1594 1.370 . S
C1595 C1596 1.403 . S
C1596 C1595 1.403 . S
C1596 C1597 1.404 . S
C1596 C1599 1.539 . S
C1597 C1593 1.408 . S
C1597 C1596 1.404 . S
C1597 H1609 0.930 . S
C1598 C1594 1.524 . S
C1598 H1610 0.956 . S
C1598 H1611 0.961 . S
C1598 H1612 0.961 . S
C1599 C1596 1.539 . S
C1599 H1613 0.958 . S
C1599 H1614 0.961 . S
C1599 H1615 0.960 . S
H1600 C1584 0.931 . S
H1601 C1589 0.929 . S
H1602 C1590 0.960 . S
H1603 C1590 0.962 . S
H1604 C1590 0.960 . S
H1605 C1591 0.961 . S
H1606 C1591 0.961 . S
H1607 C1591 0.961 . S
H1608 C1592 0.931 . S
H1609 C1597 0.930 . S
H1610 C1598 0.956 . S
H1611 C1598 0.961 . S
H1612 C1598 0.961 . S
H1613 C1599 0.958 . S
H1614 C1599 0.961 . S
H1615 C1599 0.960 . S
C1616 C1617 1.391 . S
C1616 C1618 1.394 . S
C1616 H1632 0.931 . S
C1617 C1616 1.391 . S
C1617 C1621 1.376 . S
C1618 C1616 1.394 . S
C1618 C1619 1.369 1_556 S
C1618 C1622 1.531 1_556 S
C1619 C1618 1.369 1_554 S
C1619 C1620 1.410 1_554 S
C1619 C1627 1.503 . S
C1620 C1619 1.410 1_556 S
C1620 C1621 1.392 . S
C1620 C1623 1.499 1_556 S
C1621 C1617 1.376 . S
C1621 C1620 1.392 . S
C1621 H1633 0.929 . S
C1622 C1618 1.531 1_554 S
C1622 H1634 0.960 . S
C1622 H1635 0.962 . S
C1622 H1636 0.962 . S
C1623 C1620 1.499 1_554 S
C1623 H1637 0.941 1_554 S
C1623 H1638 0.983 . S
C1623 H1639 0.972 . S
C1624 C1625 1.370 . S
C1624 C1626 1.363 . S
C1624 H1640 0.931 . S
C1625 C1624 1.370 . S
C1625 C1629 1.408 . S
C1626 C1624 1.363 . S
C1626 C1627 1.370 . S
C1626 C1630 1.524 . S
C1627 C1619 1.503 . S
C1627 C1626 1.370 . S
C1627 C1628 1.403 . S
C1628 C1627 1.403 . S
C1628 C1629 1.404 . S
C1628 C1631 1.539 . S
C1629 C1625 1.408 . S
C1629 C1628 1.404 . S
C1629 H1641 0.930 . S
C1630 C1626 1.524 . S
C1630 H1642 0.956 . S
C1630 H1643 0.961 . S
C1630 H1644 0.961 . S
C1631 C1628 1.539 . S
C1631 H1645 0.958 . S
C1631 H1646 0.961 . S
C1631 H1647 0.960 . S
H1632 C1616 0.931 . S
H1633 C1621 0.929 . S
H1634 C1622 0.960 . S
H1635 C1622 0.962 . S
H1636 C1622 0.962 . S
H1637 C1623 0.941 1_556 S
H1638 C1623 0.983 . S
H1639 C1623 0.972 . S
H1640 C1624 0.931 . S
H1641 C1629 0.930 . S
H1642 C1630 0.956 . S
H1643 C1630 0.961 . S
H1644 C1630 0.961 . S
H1645 C1631 0.958 . S
H1646 C1631 0.961 . S
H1647 C1631 0.960 . S
C1648 C1649 1.391 . S
C1648 C1650 1.394 . S
C1648 H1664 0.931 . S
C1649 C1648 1.391 . S
C1649 C1653 1.376 . S
C1650 C1648 1.394 . S
C1650 C1651 1.369 . S
C1650 C1654 1.531 . S
C1651 C1650 1.369 . S
C1651 C1652 1.410 . S
C1651 C1659 1.503 . S
C1652 C1651 1.410 . S
C1652 C1653 1.392 . S
C1652 C1655 1.511 . S
C1653 C1649 1.376 . S
C1653 C1652 1.392 . S
C1653 H1665 0.929 . S
C1654 C1650 1.531 . S
C1654 H1666 0.960 . S
C1654 H1667 0.962 . S
C1654 H1668 0.960 . S
C1655 C1652 1.511 . S
C1655 H1669 0.961 . S
C1655 H1670 0.961 . S
C1655 H1671 0.961 . S
C1656 C1657 1.370 . S
C1656 C1658 1.363 . S
C1656 H1672 0.931 . S
C1657 C1656 1.370 . S
C1657 C1661 1.408 . S
C1658 C1656 1.363 . S
C1658 C1659 1.370 . S
C1658 C1662 1.524 . S
C1659 C1651 1.503 . S
C1659 C1658 1.370 . S
C1659 C1660 1.403 . S
C1660 C1659 1.403 . S
C1660 C1661 1.404 . S
C1660 C1663 1.539 . S
C1661 C1657 1.408 . S
C1661 C1660 1.404 . S
C1661 H1673 0.930 . S
C1662 C1658 1.524 . S
C1662 H1674 0.956 . S
C1662 H1675 0.961 . S
C1662 H1676 0.961 . S
C1663 C1660 1.539 . S
C1663 H1677 0.958 . S
C1663 H1678 0.961 . S
C1663 H1679 0.960 . S
H1664 C1648 0.931 . S
H1665 C1653 0.929 . S
H1666 C1654 0.960 . S
H1667 C1654 0.962 . S
H1668 C1654 0.960 . S
H1669 C1655 0.961 . S
H1670 C1655 0.961 . S
H1671 C1655 0.961 . S
H1672 C1656 0.931 . S
H1673 C1661 0.930 . S
H1674 C1662 0.956 . S
H1675 C1662 0.961 . S
H1676 C1662 0.961 . S
H1677 C1663 0.958 . S
H1678 C1663 0.961 . S
H1679 C1663 0.960 . S
C1680 C1681 1.391 . S
C1680 C1682 1.394 . S
C1680 H1696 0.931 . S
C1681 C1680 1.391 . S
C1681 C1685 1.376 . S
C1682 C1680 1.394 . S
C1682 C1683 1.369 . S
C1682 C1686 1.531 . S
C1683 C1682 1.369 . S
C1683 C1684 1.410 . S
C1683 C1691 1.503 . S
C1684 C1683 1.410 . S
C1684 C1685 1.392 . S
C1684 C1687 1.511 . S
C1685 C1681 1.376 . S
C1685 C1684 1.392 . S
C1685 H1697 0.929 . S
C1686 C1682 1.531 . S
C1686 H1698 0.960 . S
C1686 H1699 0.962 . S
C1686 H1700 0.960 . S
C1687 C1684 1.511 . S
C1687 H1701 0.961 . S
C1687 H1702 0.961 . S
C1687 H1703 0.961 . S
C1688 C1689 1.370 . S
C1688 C1690 1.363 . S
C1688 H1704 0.931 . S
C1689 C1688 1.370 . S
C1689 C1693 1.408 . S
C1690 C1688 1.363 . S
C1690 C1691 1.370 . S
C1690 C1694 1.524 . S
C1691 C1683 1.503 . S
C1691 C1690 1.370 . S
C1691 C1692 1.403 . S
C1692 C1691 1.403 . S
C1692 C1693 1.404 . S
C1692 C1695 1.539 . S
C1693 C1689 1.408 . S
C1693 C1692 1.404 . S
C1693 H1705 0.930 . S
C1694 C1690 1.524 . S
C1694 H1706 0.956 . S
C1694 H1707 0.961 . S
C1694 H1708 0.961 . S
C1695 C1692 1.539 . S
C1695 H1709 0.958 . S
C1695 H1710 0.961 . S
C1695 H1711 0.960 . S
H1696 C1680 0.931 . S
H1697 C1685 0.929 . S
H1698 C1686 0.960 . S
H1699 C1686 0.962 . S
H1700 C1686 0.960 . S
H1701 C1687 0.961 . S
H1702 C1687 0.961 . S
H1703 C1687 0.961 . S
H1704 C1688 0.931 . S
H1705 C1693 0.930 . S
H1706 C1694 0.956 . S
H1707 C1694 0.961 . S
H1708 C1694 0.961 . S
H1709 C1695 0.958 . S
H1710 C1695 0.961 . S
H1711 C1695 0.960 . S
C1712 C1713 1.391 . S
C1712 C1714 1.394 . S
C1712 H1728 0.931 . S
C1713 C1712 1.391 . S
C1713 C1717 1.376 . S
C1714 C1712 1.394 . S
C1714 C1715 1.369 . S
C1714 C1718 1.531 . S
C1715 C1714 1.369 . S
C1715 C1716 1.410 . S
C1715 C1723 1.503 . S
C1716 C1715 1.410 . S
C1716 C1717 1.392 . S
C1716 C1719 1.511 . S
C1717 C1713 1.376 . S
C1717 C1716 1.392 . S
C1717 H1729 0.929 . S
C1718 C1714 1.531 . S
C1718 H1730 0.960 . S
C1718 H1731 0.962 . S
C1718 H1732 0.960 . S
C1719 C1716 1.511 . S
C1719 H1733 0.961 . S
C1719 H1734 0.961 . S
C1719 H1735 0.961 . S
C1720 C1721 1.370 . S
C1720 C1722 1.363 . S
C1720 H1736 0.931 . S
C1721 C1720 1.370 . S
C1721 C1725 1.408 . S
C1722 C1720 1.363 . S
C1722 C1723 1.370 . S
C1722 C1726 1.524 . S
C1723 C1715 1.503 . S
C1723 C1722 1.370 . S
C1723 C1724 1.403 . S
C1724 C1723 1.403 . S
C1724 C1725 1.404 . S
C1724 C1727 1.539 . S
C1725 C1721 1.408 . S
C1725 C1724 1.404 . S
C1725 H1737 0.930 . S
C1726 C1722 1.524 . S
C1726 H1738 0.956 . S
C1726 H1739 0.961 . S
C1726 H1740 0.961 . S
C1727 C1724 1.539 . S
C1727 H1741 0.958 . S
C1727 H1742 0.961 . S
C1727 H1743 0.960 . S
H1728 C1712 0.931 . S
H1729 C1717 0.929 . S
H1730 C1718 0.960 . S
H1731 C1718 0.962 . S
H1732 C1718 0.960 . S
H1733 C1719 0.961 . S
H1734 C1719 0.961 . S
H1735 C1719 0.961 . S
H1736 C1720 0.931 . S
H1737 C1725 0.930 . S
H1738 C1726 0.956 . S
H1739 C1726 0.961 . S
H1740 C1726 0.961 . S
H1741 C1727 0.958 . S
H1742 C1727 0.961 . S
H1743 C1727 0.960 . S
C1744 C1745 1.391 . S
C1744 C1746 1.394 . S
C1744 H1760 0.931 . S
C1745 C1744 1.391 . S
C1745 C1749 1.376 . S
C1746 C1744 1.394 . S
C1746 C1747 1.369 . S
C1746 C1750 1.531 . S
C1747 C1746 1.369 . S
C1747 C1748 1.410 . S
C1747 C1755 1.503 . S
C1748 C1747 1.410 . S
C1748 C1749 1.392 . S
C1748 C1751 1.511 . S
C1749 C1745 1.376 . S
C1749 C1748 1.392 . S
C1749 H1761 0.929 . S
C1750 C1746 1.531 . S
C1750 H1762 0.960 . S
C1750 H1763 0.962 . S
C1750 H1764 0.960 . S
C1751 C1748 1.511 . S
C1751 H1765 0.961 . S
C1751 H1766 0.961 . S
C1751 H1767 0.961 . S
C1752 C1753 1.370 . S
C1752 C1754 1.363 . S
C1752 H1768 0.931 . S
C1753 C1752 1.370 . S
C1753 C1757 1.408 . S
C1754 C1752 1.363 . S
C1754 C1755 1.370 . S
C1754 C1758 1.524 . S
C1755 C1747 1.503 . S
C1755 C1754 1.370 . S
C1755 C1756 1.403 . S
C1756 C1755 1.403 . S
C1756 C1757 1.404 . S
C1756 C1759 1.539 . S
C1757 C1753 1.408 . S
C1757 C1756 1.404 . S
C1757 H1769 0.930 . S
C1758 C1754 1.524 . S
C1758 H1770 0.956 . S
C1758 H1771 0.961 . S
C1758 H1772 0.961 . S
C1759 C1756 1.539 . S
C1759 H1773 0.958 . S
C1759 H1774 0.961 . S
C1759 H1775 0.960 . S
H1760 C1744 0.931 . S
H1761 C1749 0.929 . S
H1762 C1750 0.960 . S
H1763 C1750 0.962 . S
H1764 C1750 0.960 . S
H1765 C1751 0.961 . S
H1766 C1751 0.961 . S
H1767 C1751 0.961 . S
H1768 C1752 0.931 . S
H1769 C1757 0.930 . S
H1770 C1758 0.956 . S
H1771 C1758 0.961 . S
H1772 C1758 0.961 . S
H1773 C1759 0.958 . S
H1774 C1759 0.961 . S
H1775 C1759 0.960 . S
C1776 C1777 1.391 . S
C1776 C1778 1.394 . S
C1776 H1792 0.931 . S
C1777 C1776 1.391 . S
C1777 C1781 1.376 . S
C1778 C1776 1.394 . S
C1778 C1779 1.369 . S
C1778 C1782 1.531 . S
C1779 C1778 1.369 . S
C1779 C1780 1.410 . S
C1779 C1787 1.503 . S
C1780 C1779 1.410 . S
C1780 C1781 1.392 . S
C1780 C1783 1.511 . S
C1781 C1777 1.376 . S
C1781 C1780 1.392 . S
C1781 H1793 0.929 . S
C1782 C1778 1.531 . S
C1782 H1794 0.960 . S
C1782 H1795 0.962 . S
C1782 H1796 0.960 . S
C1783 C1780 1.511 . S
C1783 H1797 0.961 . S
C1783 H1798 0.961 . S
C1783 H1799 0.961 . S
C1784 C1785 1.370 . S
C1784 C1786 1.363 . S
C1784 H1800 0.931 . S
C1785 C1784 1.370 . S
C1785 C1789 1.408 . S
C1786 C1784 1.363 . S
C1786 C1787 1.370 . S
C1786 C1790 1.524 . S
C1787 C1779 1.503 . S
C1787 C1786 1.370 . S
C1787 C1788 1.403 . S
C1788 C1787 1.403 . S
C1788 C1789 1.404 . S
C1788 C1791 1.539 . S
C1789 C1785 1.408 . S
C1789 C1788 1.404 . S
C1789 H1801 0.930 . S
C1790 C1786 1.524 . S
C1790 H1802 0.956 . S
C1790 H1803 0.961 . S
C1790 H1804 0.961 . S
C1791 C1788 1.539 . S
C1791 H1805 0.958 . S
C1791 H1806 0.961 . S
C1791 H1807 0.960 . S
H1792 C1776 0.931 . S
H1793 C1781 0.929 . S
H1794 C1782 0.960 . S
H1795 C1782 0.962 . S
H1796 C1782 0.960 . S
H1797 C1783 0.961 . S
H1798 C1783 0.961 . S
H1799 C1783 0.961 . S
H1800 C1784 0.931 . S
H1801 C1789 0.930 . S
H1802 C1790 0.956 . S
H1803 C1790 0.961 . S
H1804 C1790 0.961 . S
H1805 C1791 0.958 . S
H1806 C1791 0.961 . S
H1807 C1791 0.960 . S
C1808 C1809 1.391 . S
C1808 C1810 1.394 . S
C1808 H1824 0.931 . S
C1809 C1808 1.391 . S
C1809 C1813 1.376 . S
C1810 C1808 1.394 . S
C1810 C1811 1.369 . S
C1810 C1814 1.531 . S
C1811 C1810 1.369 . S
C1811 C1812 1.410 . S
C1811 C1819 1.503 . S
C1812 C1811 1.410 . S
C1812 C1813 1.392 . S
C1812 C1815 1.511 . S
C1813 C1809 1.376 . S
C1813 C1812 1.392 . S
C1813 H1825 0.929 . S
C1814 C1810 1.531 . S
C1814 H1826 0.960 . S
C1814 H1827 0.962 . S
C1814 H1828 0.960 . S
C1815 C1812 1.511 . S
C1815 H1829 0.961 . S
C1815 H1830 0.961 . S
C1815 H1831 0.961 . S
C1816 C1817 1.370 . S
C1816 C1818 1.363 . S
C1816 H1832 0.931 . S
C1817 C1816 1.370 . S
C1817 C1821 1.408 . S
C1818 C1816 1.363 . S
C1818 C1819 1.370 . S
C1818 C1822 1.524 . S
C1819 C1811 1.503 . S
C1819 C1818 1.370 . S
C1819 C1820 1.403 . S
C1820 C1819 1.403 . S
C1820 C1821 1.404 . S
C1820 C1823 1.539 . S
C1821 C1817 1.408 . S
C1821 C1820 1.404 . S
C1821 H1833 0.930 . S
C1822 C1818 1.524 . S
C1822 H1834 0.956 . S
C1822 H1835 0.961 . S
C1822 H1836 0.961 . S
C1823 C1820 1.539 . S
C1823 H1837 0.958 . S
C1823 H1838 0.961 . S
C1823 H1839 0.960 . S
H1824 C1808 0.931 . S
H1825 C1813 0.929 . S
H1826 C1814 0.960 . S
H1827 C1814 0.962 . S
H1828 C1814 0.960 . S
H1829 C1815 0.961 . S
H1830 C1815 0.961 . S
H1831 C1815 0.961 . S
H1832 C1816 0.931 . S
H1833 C1821 0.930 . S
H1834 C1822 0.956 . S
H1835 C1822 0.961 . S
H1836 C1822 0.961 . S
H1837 C1823 0.958 . S
H1838 C1823 0.961 . S
H1839 C1823 0.960 . S
C1840 C1841 1.391 . S
C1840 C1842 1.394 . S
C1840 H1856 0.931 . S
C1841 C1840 1.391 . S
C1841 C1845 1.376 . S
C1842 C1840 1.394 . S
C1842 C1843 1.369 . S
C1842 C1846 1.531 . S
C1843 C1842 1.369 . S
C1843 C1844 1.410 . S
C1843 C1851 1.503 . S
C1844 C1843 1.410 . S
C1844 C1845 1.392 . S
C1844 C1847 1.511 . S
C1845 C1841 1.376 . S
C1845 C1844 1.392 . S
C1845 H1857 0.929 . S
C1846 C1842 1.531 . S
C1846 H1858 0.938 1_554 S
C1846 H1859 0.962 . S
C1846 H1860 0.960 . S
C1847 C1844 1.511 . S
C1847 H1861 0.961 . S
C1847 H1862 0.961 . S
C1847 H1863 0.961 . S
C1848 C1849 1.370 . S
C1848 C1850 1.363 . S
C1848 H1864 0.931 . S
C1849 C1848 1.370 . S
C1849 C1853 1.408 . S
C1850 C1848 1.363 . S
C1850 C1851 1.370 1_556 S
C1850 C1854 1.524 1_556 S
C1851 C1843 1.503 . S
C1851 C1850 1.370 1_554 S
C1851 C1852 1.403 1_554 S
C1852 C1851 1.403 1_556 S
C1852 C1853 1.404 . S
C1852 C1855 1.539 . S
C1853 C1849 1.408 . S
C1853 C1852 1.404 . S
C1853 H1865 0.930 . S
C1854 C1850 1.524 1_554 S
C1854 H1866 0.956 . S
C1854 H1867 0.961 . S
C1854 H1868 0.961 1_554 S
C1855 C1852 1.539 . S
C1855 H1869 0.958 . S
C1855 H1870 0.961 . S
C1855 H1871 0.960 1_556 S
H1856 C1840 0.931 . S
H1857 C1845 0.929 . S
H1858 C1846 0.938 1_556 S
H1859 C1846 0.962 . S
H1860 C1846 0.960 . S
H1861 C1847 0.961 . S
H1862 C1847 0.961 . S
H1863 C1847 0.961 . S
H1864 C1848 0.931 . S
H1865 C1853 0.930 . S
H1866 C1854 0.956 . S
H1867 C1854 0.961 . S
H1868 C1854 0.961 1_556 S
H1869 C1855 0.958 . S
H1870 C1855 0.961 . S
H1871 C1855 0.960 1_554 S
C849 C356 2.327 . S
C857 C38 2.323 . S
C881 C393 2.219 . S
C889 C75 2.214 . S
C913 C144 2.327 . S
C921 C250 2.329 . S
C945 C181 2.229 . S
C953 C287 2.220 . S
C977 C462 2.311 . S
C985 C780 2.318 . S
C1009 C817 2.229 . S
C1017 C499 2.220 . S
C1041 C568 2.297 . S
C1049 C674 2.309 . S
C1073 C605 2.199 . S
C1081 C711 2.219 . S
C1105 C39 2.725 . S
C1113 C569 2.709 . S
C1137 C82 1.972 . S
C1145 C612 2.003 . S
C1169 C145 2.702 . S
C1177 C463 2.725 . S
C1201 C188 2.012 1_556 S
C1209 C506 2.008 1_556 S
C1233 C251 2.713 . S
C1241 C781 2.724 . S
C1265 C824 2.013 . S
C1273 C294 2.008 . S
C1297 C357 2.713 . S
C1305 C675 2.708 . S
C1329 C718 2.008 . S
C1337 C400 2.010 . S
C1361 C728 1.028 . S
C1369 C29 1.047 . S
C1393 C92 1.068 . S
C1401 C771 1.045 . S
C1425 C834 1.066 . S
C1433 C135 1.038 . S
C1457 C665 1.070 . S
C1465 C198 1.041 . S
C1489 C622 1.023 . S
C1497 C241 1.050 . S
C1521 C304 1.062 . S
C1529 C453 1.048 . S
C1553 C347 1.071 . S
C1561 C516 1.036 . S
C1585 C410 1.057 . S
C1593 C559 1.051 . S
C1617 C727 1.722 . S
C1625 C22 1.704 . S
C1649 C91 1.722 . S
C1657 C764 1.704 . S
C1681 C128 1.692 . S
C1689 C833 1.714 . S
C1713 C658 1.692 . S
C1721 C197 1.714 . S
C1745 C621 1.695 . S
C1753 C234 1.712 . S
C1777 C446 1.701 . S
C1785 C303 1.710 . S
C1809 C340 1.691 . S
C1817 C515 1.714 . S
C1841 C552 1.712 . S
C1849 C409 1.714 . S
