# Generated by pormake.
# Topology vmb, (5)-cn, num edge types: 1
# Building blocks:
#     Node 0, Type 0, BuildingBlock: XOMCOT_clean_sbu_0, # of connection points: 5
#     Node 1, Type 0, BuildingBlock: XOMCOT_clean_sbu_0, # of connection points: 5
#     Node 2, Type 0, BuildingBlock: XOMCOT_clean_sbu_0, # of connection points: 5
#     Node 3, Type 0, BuildingBlock: XOMCOT_clean_sbu_0, # of connection points: 5
#     Node 4, Type 0, BuildingBlock: XOMCOT_clean_sbu_0, # of connection points: 5
#     Node 5, Type 0, BuildingBlock: XOMCOT_clean_sbu_0, # of connection points: 5
#     Node 6, Type 0, BuildingBlock: XOMCOT_clean_sbu_0, # of connection points: 5
#     Node 7, Type 0, BuildingBlock: XOMCOT_clean_sbu_0, # of connection points: 5
#     Edge 8, Type (0, 0), BuildingBlock: KIFKEQ_clean_linker_1, # of connection points: 2
#     Edge 9, Type (0, 0), BuildingBlock: KIFKEQ_clean_linker_1, # of connection points: 2
#     Edge 10, Type (0, 0), BuildingBlock: KIFKEQ_clean_linker_1, # of connection points: 2
#     Edge 11, Type (0, 0), BuildingBlock: KIFKEQ_clean_linker_1, # of connection points: 2
#     Edge 12, Type (0, 0), BuildingBlock: KIFKEQ_clean_linker_1, # of connection points: 2
#     Edge 13, Type (0, 0), BuildingBlock: KIFKEQ_clean_linker_1, # of connection points: 2
#     Edge 14, Type (0, 0), BuildingBlock: KIFKEQ_clean_linker_1, # of connection points: 2
#     Edge 15, Type (0, 0), BuildingBlock: KIFKEQ_clean_linker_1, # of connection points: 2
#     Edge 16, Type (0, 0), BuildingBlock: KIFKEQ_clean_linker_1, # of connection points: 2
#     Edge 17, Type (0, 0), BuildingBlock: KIFKEQ_clean_linker_1, # of connection points: 2
#     Edge 18, Type (0, 0), BuildingBlock: KIFKEQ_clean_linker_1, # of connection points: 2
#     Edge 19, Type (0, 0), BuildingBlock: KIFKEQ_clean_linker_1, # of connection points: 2
#     Edge 20, Type (0, 0), BuildingBlock: KIFKEQ_clean_linker_1, # of connection points: 2
#     Edge 21, Type (0, 0), BuildingBlock: KIFKEQ_clean_linker_1, # of connection points: 2
#     Edge 22, Type (0, 0), BuildingBlock: KIFKEQ_clean_linker_1, # of connection points: 2
#     Edge 23, Type (0, 0), BuildingBlock: KIFKEQ_clean_linker_1, # of connection points: 2
#     Edge 24, Type (0, 0), BuildingBlock: KIFKEQ_clean_linker_1, # of connection points: 2
#     Edge 25, Type (0, 0), BuildingBlock: KIFKEQ_clean_linker_1, # of connection points: 2
#     Edge 26, Type (0, 0), BuildingBlock: KIFKEQ_clean_linker_1, # of connection points: 2
#     Edge 27, Type (0, 0), BuildingBlock: KIFKEQ_clean_linker_1, # of connection points: 2
# Relax obj value: 0.128
# Max RMSD: 0.193
# Mean RMSD: 0.193
data_MOF--net-vmb--node1-XOMCOT_clean_sbu_0--edge1-KIFKEQ_clean_linker_1
_symmetry_space_group_name_H-M    P1
_symmetry_Int_Tables_number       1
_symmetry_cell_setting            triclinic
loop_
_symmetry_equiv_pos_as_xyz
'x, y, z'
_cell_length_a     37.818175
_cell_length_b     43.341914
_cell_length_c     30.704331
_cell_angle_alpha  89.842718
_cell_angle_beta   116.7096
_cell_angle_gamma 90.039409
loop_
_atom_site_label
_atom_site_type_symbol
_atom_site_fract_x
_atom_site_fract_y
_atom_site_fract_z
_atom_type_partial_charge
Co0 Co 0.28768 0.09174 0.4108 0.0
C1 C 0.37024 0.07289 0.43734 0.0
C2 C 0.36909 0.11863 0.46279 0.0
C3 C 0.40803 0.11025 0.47714 0.0
N4 N 0.34522 0.0952 0.43742 0.0
N5 N 0.40858 0.08136 0.46134 0.0
H6 H 0.36084 0.05053 0.42062 0.0
H7 H 0.35946 0.14004 0.47186 0.0
C8 C 0.28481 0.15978 0.41194 0.0
O9 O 0.29 0.15942 0.37244 0.0
N10 N 0.23088 0.08716 0.38502 0.0
C11 C 0.21321 0.06203 0.3923 0.0
C12 C 0.17306 0.06651 0.37019 0.0
C13 C 0.20102 0.1065 0.35744 0.0
N14 N 0.1653 0.0944 0.34833 0.0
C15 C 0.31193 0.04704 0.48697 0.0
C16 C 0.27693 0.07532 0.53849 0.0
C17 C 0.29421 0.04619 0.5532 0.0
C18 C 0.31226 0.0321 0.52739 0.0
C19 C 0.27675 0.08925 0.49753 0.0
N20 N 0.29396 0.07504 0.47224 0.0
H21 H 0.32472 0.03549 0.46633 0.0
H22 H 0.26079 0.11064 0.48481 0.0
H23 H 0.22855 0.04167 0.41229 0.0
H24 H 0.20526 0.12881 0.34457 0.0
O25 O 0.28889 0.05391 0.37875 0.0
O26 O 0.28199 0.10071 0.34651 0.0
O27 O 0.28406 0.13456 0.43292 0.0
C28 C 0.28533 0.07115 0.34232 0.0
H29 H 0.43394 0.12389 0.49909 0.0
H30 H 0.15105 0.05013 0.36912 0.0
H31 H 0.26201 0.08657 0.5571 0.0
H32 H 0.32587 0.00956 0.53786 0.0
Co33 Co 0.76274 0.08713 0.05868 0.0
C34 C 0.67981 0.06819 0.03077 0.0
C35 C 0.68145 0.11384 0.0049 0.0
C36 C 0.64243 0.10565 -0.00985 0.0
N37 N 0.70509 0.09039 0.03086 0.0
N38 N 0.64154 0.07684 0.00626 0.0
H39 H 0.68899 0.04584 0.04782 0.0
H40 H 0.69134 0.13516 -0.00423 0.0
C41 C 0.76484 0.15539 0.05986 0.0
O42 O 0.75874 0.15431 0.09869 0.0
N43 N 0.81965 0.08288 0.08556 0.0
C44 C 0.83785 0.058 0.07868 0.0
C45 C 0.87792 0.06295 0.10088 0.0
C46 C 0.84906 0.10256 0.11285 0.0
N47 N 0.88506 0.0909 0.12229 0.0
C48 C 0.73937 0.04469 0.97996 0.0
C49 C 0.77686 0.07452 0.93249 0.0
C50 C 0.75957 0.04559 0.9156 0.0
C51 C 0.74005 0.03088 0.93942 0.0
C52 C 0.77604 0.08727 0.97356 0.0
N53 N 0.7577 0.07226 -0.00308 0.0
H54 H 0.72563 0.03254 -0.00091 0.0
H55 H 0.79199 0.10845 -0.01217 0.0
H56 H 0.82289 0.0376 0.05866 0.0
H57 H 0.8443 0.12487 0.12507 0.0
O58 O 0.76114 0.04832 0.08829 0.0
O59 O 0.76726 0.09411 0.12305 0.0
O60 O 0.76653 0.13056 0.03883 0.0
C61 C 0.76403 0.06434 0.12544 0.0
H62 H 0.61669 0.11941 0.96783 0.0
H63 H 0.90027 0.04689 0.10211 0.0
H64 H 0.7918 0.08695 0.91492 0.0
H65 H 0.72683 1.00831 0.92824 0.0
Co66 Co 0.75762 0.92597 0.55538 0.0
C67 C 0.67889 0.95225 0.53124 0.0
C68 C 0.67925 0.90298 0.53922 0.0
C69 C 0.64187 0.91382 0.52805 0.0
N70 N 0.7023 0.92708 0.54096 0.0
N71 N 0.64172 0.94481 0.52319 0.0
H72 H 0.68882 0.97548 0.52975 0.0
H73 H 0.68896 0.87922 0.54603 0.0
C74 C 0.77386 0.86101 0.55471 0.0
O75 O 0.80078 0.86652 0.59945 0.0
N76 N 0.81294 0.92479 0.56823 0.0
C77 C 0.82499 0.91531 0.53534 0.0
C78 C 0.86549 0.9152 0.55648 0.0
C79 C 0.84668 0.93037 0.60933 0.0
N80 N 0.8795 0.92465 0.60319 0.0
C81 C 0.76022 0.97189 0.49151 0.0
C82 C 0.71474 0.94122 0.40526 0.0
C83 C 0.73203 0.96961 0.40396 0.0
C84 C 0.75428 0.98528 0.4476 0.0
C85 C 0.72084 0.92883 0.45016 0.0
N86 N 0.74436 0.94381 0.49241 0.0
H87 H 0.77891 0.98354 0.52512 0.0
H88 H 0.70734 0.907 0.45098 0.0
H89 H 0.80553 0.90804 0.49859 0.0
H90 H 0.84715 0.93787 0.64307 0.0
O91 O 0.7662 0.96346 0.59232 0.0
O92 O 0.77085 0.91614 0.62223 0.0
O93 O 0.75148 0.88286 0.52918 0.0
C94 C 0.77203 0.94578 0.62919 0.0
H95 H 0.61695 0.90002 0.52482 0.0
H96 H 0.88291 0.90779 0.53856 0.0
H97 H 0.69711 0.92866 0.37202 0.0
H98 H 0.76847 1.00708 0.44798 0.0
Co99 Co 0.28689 0.9317 0.9114 0.0
C100 C 0.36703 0.95434 0.93524 0.0
C101 C 0.36448 0.90488 0.93071 0.0
C102 C 0.40247 0.91425 0.94181 0.0
N103 N 0.34243 0.93006 0.92686 0.0
N104 N 0.40397 0.94536 0.94449 0.0
H105 H 0.35809 0.97808 0.93494 0.0
H106 H 0.3537 0.8814 0.92538 0.0
C107 C 0.27636 0.87721 0.96636 0.0
O108 O 0.2599 0.89486 -0.01327 0.0
N109 N 0.23052 0.93383 0.89572 0.0
C110 C 0.21471 0.94222 0.9257 0.0
C111 C 0.17428 0.94064 0.90113 0.0
C112 C 0.19867 0.92764 0.85265 0.0
N113 N 0.16417 0.93157 0.85526 0.0
C114 C 0.29031 0.98247 0.9709 0.0
C115 C 0.3297 0.95315 0.05998 0.0
C116 C 0.31352 0.98259 0.05788 0.0
C117 C 0.29592 0.99796 0.01296 0.0
C118 C 0.32428 0.93872 0.01676 0.0
N119 N 0.30165 0.95243 0.97285 0.0
H120 H 0.27413 0.99399 0.93634 0.0
H121 H 0.33676 0.91608 0.01849 0.0
H122 H 0.23091 0.94858 0.96354 0.0
H123 H 0.2004 0.92018 0.82009 0.0
O124 O 0.28082 0.96761 0.87197 0.0
O125 O 0.27384 0.91928 0.84553 0.0
O126 O 0.29029 0.88877 0.93892 0.0
C127 C 0.2739 0.94863 0.83642 0.0
H128 H 0.42688 0.89933 0.94651 0.0
H129 H 0.15378 0.94621 0.9157 0.0
H130 H 0.3446 0.94076 0.09414 0.0
H131 H 0.2847 0.02126 0.00991 0.0
Co132 Co 0.78396 0.58562 0.40903 0.0
C133 C 0.8659 0.5662 0.43735 0.0
C134 C 0.85854 0.61459 0.42057 0.0
C135 C 0.89677 0.6062 0.43103 0.0
N136 N 0.83934 0.58945 0.42461 0.0
N137 N 0.90134 0.5757 0.4415 0.0
H138 H 0.85882 0.54253 0.44158 0.0
H139 H 0.84544 0.63723 0.40963 0.0
C140 C 0.76253 0.64057 0.45075 0.0
O141 O 0.74101 0.62244 0.46354 0.0
N142 N 0.72772 0.58105 0.39247 0.0
C143 C 0.71115 0.56572 0.41721 0.0
C144 C 0.67088 0.56963 0.3939 0.0
C145 C 0.69658 0.59367 0.35373 0.0
N146 N 0.66175 0.58712 0.35409 0.0
C147 C 0.79664 0.53719 0.4777 0.0
C148 C 0.82701 0.57364 0.56017 0.0
C149 C 0.81832 0.54264 0.56405 0.0
C150 C 0.80476 0.52397 0.52256 0.0
C151 C 0.8187 0.58585 0.51453 0.0
N152 N 0.80044 0.56825 0.47356 0.0
H153 H 0.78429 0.52277 0.4457 0.0
H154 H 0.82651 0.60953 0.51239 0.0
H155 H 0.72649 0.5536 0.45118 0.0
H156 H 0.69928 0.6079 0.32637 0.0
O157 O 0.78124 0.54822 0.37409 0.0
O158 O 0.7702 0.59535 0.3421 0.0
O159 O 0.78349 0.62936 0.43151 0.0
C160 C 0.77275 0.56586 0.33639 0.0
H161 H 0.9193 0.6214 0.43055 0.0
H162 H 0.6498 0.56022 0.40527 0.0
H163 H 0.83924 0.58845 0.59191 0.0
H164 H 0.79806 0.4998 0.52405 0.0
Co165 Co 0.2567 0.59016 0.05382 0.0
C166 C 0.17632 0.56729 0.02694 0.0
C167 C 0.18024 0.61593 0.04132 0.0
C168 C 0.14256 0.60601 0.03092 0.0
N169 N 0.20122 0.5916 0.03863 0.0
N170 N 0.14016 0.57534 0.02204 0.0
H171 H 0.18479 0.54411 0.02254 0.0
H172 H 0.19176 0.63906 0.05136 0.0
C173 C 0.27173 0.64602 0.00692 0.0
O174 O 0.29107 0.62852 -0.00986 0.0
N175 N 0.31315 0.58807 0.0698 0.0
C176 C 0.32986 0.57694 0.04216 0.0
C177 C 0.37009 0.58072 0.06631 0.0
C178 C 0.34428 0.59802 0.11111 0.0
N179 N 0.37915 0.59388 0.10958 0.0
C180 C 0.24951 0.54177 -0.0122 0.0
C181 C 0.21206 0.57596 0.90306 0.0
C182 C 0.22468 0.5459 0.90073 0.0
C183 C 0.24197 0.52825 0.94346 0.0
C184 C 0.21971 0.58843 0.94827 0.0
N185 N 0.24122 0.5722 -0.00989 0.0
H186 H 0.2648 0.52837 0.02071 0.0
H187 H 0.20909 0.61135 0.94955 0.0
H188 H 0.31447 0.56807 0.00566 0.0
H189 H 0.34169 0.60851 0.14146 0.0
O190 O 0.26218 0.55272 0.09015 0.0
O191 O 0.27 0.60006 0.12055 0.0
O192 O 0.25401 0.63406 0.02986 0.0
C193 C 0.26945 0.57045 0.12728 0.0
H194 H 0.11923 0.62017 0.0315 0.0
H195 H 0.3912 0.57413 0.05317 0.0
H196 H 0.19723 0.58985 0.87042 0.0
H197 H 0.25186 0.50485 0.94312 0.0
Co198 Co 0.26 0.43048 0.55863 0.0
C199 C 0.17786 0.45089 0.53254 0.0
C200 C 0.17819 0.40502 0.50697 0.0
C201 C 0.13944 0.41396 0.49236 0.0
N202 N 0.20243 0.4282 0.5324 0.0
N203 N 0.13926 0.44292 0.50832 0.0
H204 H 0.18789 0.47307 0.5496 0.0
H205 H 0.18756 0.38335 0.49827 0.0
C206 C 0.268 0.36247 0.56335 0.0
O207 O 0.27439 0.36397 0.609 0.0
N208 N 0.317 0.43388 0.58392 0.0
C209 C 0.33503 0.45831 0.57528 0.0
C210 C 0.37509 0.45338 0.59714 0.0
C211 C 0.34667 0.41454 0.61213 0.0
N212 N 0.38252 0.42591 0.62024 0.0
C213 C 0.23684 0.47342 0.48023 0.0
C214 C 0.27123 0.44246 0.4303 0.0
C215 C 0.2554 0.47197 0.41448 0.0
C216 C 0.23733 0.48723 0.43947 0.0
C217 C 0.27066 0.4297 0.47161 0.0
N218 N 0.25401 0.44533 0.49631 0.0
H219 H 0.22431 0.48599 0.50029 0.0
H220 H 0.28552 0.40794 0.48494 0.0
H221 H 0.31998 0.47852 0.55451 0.0
H222 H 0.34232 0.39277 0.62628 0.0
O223 O 0.26015 0.46933 0.5889 0.0
O224 O 0.26545 0.42343 0.6234 0.0
O225 O 0.26152 0.38696 0.53791 0.0
C226 C 0.26307 0.45323 0.62613 0.0
H227 H 0.11344 0.40046 0.47027 0.0
H228 H 0.39724 0.46921 0.59714 0.0
H229 H 0.28492 0.42958 0.41173 0.0
H230 H 0.2252 0.51022 0.42907 0.0
Co231 Co 0.78595 0.42646 0.90863 0.0
C232 C 0.86815 0.44618 0.93377 0.0
C233 C 0.86761 0.40083 0.96137 0.0
C234 C 0.90641 0.40955 0.97582 0.0
N235 N 0.84347 0.42384 0.93481 0.0
N236 N 0.90667 0.43812 0.95839 0.0
H237 H 0.85836 0.46855 0.91704 0.0
H238 H 0.85812 0.37941 0.9708 0.0
C239 C 0.77727 0.35847 0.90482 0.0
O240 O 0.77062 0.35973 0.85905 0.0
N241 N 0.72897 0.4303 0.88339 0.0
C242 C 0.71132 0.4549 0.89207 0.0
C243 C 0.6712 0.45041 0.87016 0.0
C244 C 0.699 0.41131 0.85504 0.0
N245 N 0.66333 0.42307 0.84695 0.0
C246 C 0.80943 0.46947 -0.0134 0.0
C247 C 0.77453 0.43891 0.03651 0.0
C248 C 0.79029 0.46843 0.05184 0.0
C249 C 0.80871 0.48348 0.02699 0.0
C250 C 0.77528 0.42597 -0.00445 0.0
N251 N 0.79211 0.44143 0.9708 0.0
H252 H 0.82216 0.48186 0.96652 0.0
H253 H 0.76029 0.40428 0.98243 0.0
H254 H 0.72666 0.47496 0.91285 0.0
H255 H 0.703 0.38954 0.84074 0.0
O256 O 0.78607 0.46519 0.87801 0.0
O257 O 0.7804 0.41923 0.84392 0.0
O258 O 0.78412 0.38306 0.92987 0.0
C259 C 0.783 0.44901 0.84092 0.0
H260 H 0.93237 0.39591 -0.00226 0.0
H261 H 0.64929 0.46649 0.87015 0.0
H262 H 0.76064 0.42618 0.05507 0.0
H263 H 0.82086 0.50646 0.03712 0.0
H264 H 0.25152 0.01374 0.05864 0.0
H265 H 0.36966 0.98147 0.154 0.0
H266 H 0.2461 0.03579 0.12787 0.0
H267 H 0.36347 1.00301 0.22399 0.0
H268 H 0.30963 0.01334 0.33419 0.0
H269 H 0.31898 0.99245 0.26627 0.0
H270 H 0.27946 0.0788 0.18887 0.0
H271 H 0.2701 0.09977 0.25671 0.0
C272 C 0.27664 0.01177 0.09429 0.0
C273 C 0.31133 0.99626 0.10071 0.0
C274 C 0.27336 0.02427 0.13393 0.0
C275 C 0.30443 0.02122 0.181 0.0
C276 C 0.33904 1.00549 0.18786 0.0
C277 C 0.34254 0.99317 0.14794 0.0
C278 C 0.30269 0.02777 0.30252 0.0
C279 C 0.28883 0.05807 0.30039 0.0
C280 C 0.30848 0.01593 0.26402 0.0
C281 C 0.30006 0.0341 0.22265 0.0
C282 C 0.28597 0.06432 0.22041 0.0
C283 C 0.28059 0.07628 0.2591 0.0
H284 H 0.73721 1.0065 0.12743 0.0
H285 H 0.77974 0.08916 0.21379 0.0
H286 H 0.72456 0.98318 0.19116 0.0
H287 H 0.76876 0.06535 0.27873 0.0
H288 H 0.74979 0.93965 0.33884 0.0
H289 H 0.75721 0.96219 0.27062 0.0
H290 H 0.71703 0.05015 0.29796 0.0
H291 H 0.71117 0.02764 0.36737 0.0
C292 C 0.74447 0.01949 0.16047 0.0
C293 C 0.75958 0.04959 0.16585 0.0
C294 C 0.73725 1.00611 0.19703 0.0
C295 C 0.74548 0.02241 0.24001 0.0
C296 C 0.76129 0.05238 0.24565 0.0
C297 C 0.76801 0.06592 0.20875 0.0
C298 C 0.74185 0.96363 0.32953 0.0
C299 C 0.73 0.98199 0.35817 0.0
C300 C 0.74612 0.9766 0.29052 0.0
C301 C 0.73815 1.00809 0.27914 0.0
C302 C 0.72437 0.02602 0.30649 0.0
C303 C 0.72061 0.01313 0.34585 0.0
H304 H 0.79245 1.00457 0.66133 0.0
H305 H 0.76098 0.91655 0.70056 0.0
H306 H 0.79221 0.02786 0.73364 0.0
H307 H 0.76019 0.94005 0.77246 0.0
H308 H 0.82364 0.04636 0.89642 0.0
H309 H 0.83028 0.0213 0.82952 0.0
H310 H 0.7128 0.98342 0.77774 0.0
H311 H 0.70508 0.00958 0.84321 0.0
C312 C 0.78597 0.99018 0.68574 0.0
C313 C 0.77665 0.95884 0.67548 0.0
C314 C 0.78592 1.00346 0.72702 0.0
C315 C 0.7759 0.98569 0.7581 0.0
C316 C 0.7677 0.95416 0.74865 0.0
C317 C 0.76843 0.94075 0.70782 0.0
C318 C 0.79888 0.03316 0.87037 0.0
C319 C 0.76365 0.03021 0.87501 0.0
C320 C 0.80293 0.01862 0.83242 0.0
C321 C 0.77214 1.00042 0.79894 0.0
C322 C 0.73713 0.99707 0.80368 0.0
C323 C 0.73279 0.012 0.84117 0.0
H324 H 0.28905 0.91797 0.76929 0.0
H325 H 0.24978 1.00555 0.79852 0.0
H326 H 0.29304 0.94047 0.6986 0.0
H327 H 0.25201 0.02773 0.72696 0.0
H328 H 0.31278 0.06863 0.64329 0.0
H329 H 0.3042 0.04319 0.70869 0.0
H330 H 0.25842 0.96229 0.61835 0.0
H331 H 0.26839 0.98761 0.55351 0.0
C332 C 0.28029 0.94179 0.75975 0.0
C333 C 0.26956 0.9602 0.7894 0.0
C334 C 0.28254 0.95469 0.71932 0.0
C335 C 0.27359 0.98606 0.70777 0.0
C336 C 0.26028 1.00376 0.73576 0.0
C337 C 0.25863 0.99102 0.77645 0.0
C338 C 0.30105 0.04537 0.63766 0.0
C339 C 0.29125 0.03001 0.59364 0.0
C340 C 0.29579 0.03087 0.67483 0.0
C341 C 0.28005 1.00086 0.66842 0.0
C342 C 0.27086 0.98531 0.62454 0.0
C343 C 0.27658 0.99974 0.5875 0.0
H344 H 0.78152 0.59652 0.26451 0.0
H345 H 0.75752 0.50645 0.30585 0.0
H346 H 0.78372 0.57399 0.19273 0.0
H347 H 0.75904 0.48414 0.23368 0.0
H348 H 0.72633 0.46615 0.07092 0.0
H349 H 0.71874 0.49086 0.13738 0.0
H350 H 0.83416 0.53234 0.1876 0.0
H351 H 0.84293 0.5065 0.12252 0.0
C352 C 0.77604 0.57205 0.25774 0.0
C353 C 0.76945 0.55313 0.29055 0.0
C354 C 0.77756 0.55921 0.21702 0.0
C355 C 0.7717 0.52744 0.20817 0.0
C356 C 0.76348 0.50875 0.23986 0.0
C357 C 0.76271 0.52147 0.28105 0.0
C358 C 0.75045 0.48009 0.09652 0.0
C359 C 0.7855 0.48402 0.09174 0.0
C360 C 0.74584 0.49443 0.13418 0.0
C361 C 0.77583 0.51343 0.16717 0.0
C362 C 0.81049 0.51799 0.16204 0.0
C363 C 0.81542 0.50324 0.12482 0.0
H364 H 0.28688 0.51122 0.15881 0.0
H365 H 0.26017 0.60047 0.19916 0.0
H366 H 0.28616 0.4884 0.23129 0.0
H367 H 0.25889 0.57745 0.27132 0.0
H368 H 0.20222 0.50987 0.34366 0.0
H369 H 0.21022 0.53577 0.27795 0.0
H370 H 0.32544 0.49413 0.32671 0.0
H371 H 0.31856 0.46928 0.39376 0.0
C372 C 0.2813 0.52597 0.18349 0.0
C373 C 0.27351 0.55754 0.17353 0.0
C374 C 0.28099 0.51296 0.22487 0.0
C375 C 0.27223 0.53123 0.25641 0.0
C376 C 0.26544 0.56295 0.24717 0.0
C377 C 0.26644 0.57608 0.20621 0.0
C378 C 0.22952 0.50657 0.3409 0.0
C379 C 0.25963 0.48732 0.37386 0.0
C380 C 0.23402 0.52136 0.30329 0.0
C381 C 0.26843 0.51685 0.29759 0.0
C382 C 0.29852 0.4977 0.33032 0.0
C383 C 0.29433 0.48328 0.36836 0.0
H384 H 0.24918 0.57548 0.84127 0.0
H385 H 0.20025 0.48917 0.85953 0.0
H386 H 0.25858 0.55353 0.77439 0.0
H387 H 0.20858 0.46726 0.79152 0.0
H388 H 0.27503 0.42713 0.71258 0.0
H389 H 0.26259 0.45047 0.77657 0.0
H390 H 0.22632 0.53505 0.69292 0.0
H391 H 0.2402 0.51211 0.63008 0.0
C392 C 0.23941 0.55205 0.82998 0.0
C393 C 0.22399 0.53397 0.85542 0.0
C394 C 0.24487 0.53942 0.79175 0.0
C395 C 0.2347 0.50854 0.77795 0.0
C396 C 0.21756 0.49091 0.80203 0.0
C397 C 0.21245 0.50347 0.8406 0.0
C398 C 0.26482 0.45081 0.70824 0.0
C399 C 0.25881 0.46788 0.66662 0.0
C400 C 0.25724 0.46407 0.74456 0.0
C401 C 0.24312 0.49454 0.73963 0.0
C402 C 0.2376 0.51167 0.69813 0.0
C403 C 0.24556 0.49852 0.66212 0.0
H404 H 0.77333 0.42227 0.75595 0.0
H405 H 0.80355 0.50835 0.83509 0.0
H406 H 0.78531 0.44577 0.69149 0.0
H407 H 0.81672 0.53151 0.77165 0.0
H408 H 0.79003 0.57065 0.62086 0.0
H409 H 0.78197 0.54835 0.68853 0.0
H410 H 0.83949 0.46475 0.67701 0.0
H411 H 0.84697 0.48706 0.60846 0.0
C412 C 0.78241 0.44621 0.75945 0.0
C413 C 0.78722 0.46356 0.80024 0.0
C414 C 0.78971 0.45957 0.72288 0.0
C415 C 0.80222 0.49044 0.72668 0.0
C416 C 0.80668 0.5078 0.76739 0.0
C417 C 0.79911 0.49453 0.80371 0.0
C418 C 0.80177 0.54779 0.6335 0.0
C419 C 0.81914 0.53056 0.60949 0.0
C420 C 0.79704 0.53496 0.67218 0.0
C421 C 0.80978 0.50469 0.68782 0.0
C422 C 0.82864 0.48791 0.66508 0.0
C423 C 0.83317 0.50071 0.62614 0.0
H424 H 0.56407 0.93274 0.46768 0.0
H425 H 0.64473 1.00359 0.55488 0.0
H426 H 0.50821 0.96654 0.45173 0.0
H427 H 0.5888 0.03735 0.54037 0.0
H428 H 0.47977 0.10035 0.4698 0.0
H429 H 0.53679 0.06803 0.48328 0.0
H430 H 0.47188 0.98732 0.48936 0.0
H431 H 0.41499 0.01952 0.47447 0.0
C432 C 0.56982 0.9555 0.4838 0.0
C433 C 0.60883 0.9654 0.5127 0.0
C434 C 0.53774 0.97493 0.47486 0.0
C435 C 0.54369 1.00474 0.49511 0.0
C436 C 0.58288 0.01478 0.52357 0.0
C437 C 0.61504 0.9954 0.53204 0.0
C438 C 0.47788 0.0757 0.47415 0.0
C439 C 0.44273 0.06249 0.47058 0.0
C440 C 0.5106 0.05712 0.48205 0.0
C441 C 0.5091 0.02487 0.4871 0.0
C442 C 0.47403 0.01187 0.48439 0.0
C443 C 0.4413 0.03037 0.47597 0.0
H444 H 0.40353 1.00322 0.91028 0.0
H445 H 0.48119 0.93165 0.00082 0.0
H446 H 0.46069 0.03538 0.92478 0.0
H447 H 0.53838 0.96395 0.01666 0.0
H448 H 0.63446 0.01481 -0.00439 0.0
H449 H 0.57673 0.98348 0.98049 0.0
H450 H 0.51255 0.0656 0.98225 0.0
H451 H 0.57031 0.09695 -0.00399 0.0
C452 C 0.43283 0.99451 0.93381 0.0
C453 C 0.43778 0.9648 0.95424 0.0
C454 C 0.46571 0.013 0.94228 0.0
C455 C 0.50446 1.00238 0.97184 0.0
C456 C 0.50922 0.97278 -0.00718 0.0
C457 C 0.47637 0.95421 -0.01609 0.0
C458 C 0.60812 0.02615 -0.00689 0.0
C459 C 0.60708 0.05839 -0.00274 0.0
C460 C 0.57491 1.00815 -0.01546 0.0
C461 C 0.53975 0.02183 0.98038 0.0
C462 C 0.53875 0.05417 -0.01554 0.0
C463 C 0.57192 0.07221 -0.00748 0.0
H464 H 0.95968 0.58649 0.4147 0.0
H465 H 0.92168 0.52177 0.49226 0.0
H466 H 1.01702 0.55428 0.43109 0.0
H467 H 0.97922 0.48957 0.50897 0.0
H468 H 0.06463 0.42376 0.48669 0.0
H469 H 1.00707 0.45585 0.47024 0.0
H470 H 0.07893 0.5376 0.49524 0.0
H471 H 0.13588 0.50568 0.50949 0.0
C472 C 0.96372 0.56558 0.43573 0.0
C473 C 0.93588 0.55683 0.45211 0.0
C474 C 0.99672 0.54703 0.44518 0.0
C475 C 1.00293 0.51922 0.47142 0.0
C476 C 0.97516 0.51053 0.48797 0.0
C477 C 0.9421 0.52906 0.47843 0.0
C478 C 0.06815 0.44856 0.48828 0.0
C479 C 0.10517 0.46195 0.4995 0.0
C480 C 0.03515 0.46703 0.47938 0.0
C481 C 0.03819 0.49942 0.4814 0.0
C482 C 0.07522 0.51279 0.49276 0.0
C483 C 0.10818 0.49436 0.50162 0.0
H484 H 0.14147 0.51333 0.03744 0.0
H485 H 0.06242 0.59139 0.98353 0.0
H486 H 0.08529 0.47963 0.02032 0.0
H487 H 1.00638 0.55787 0.96828 0.0
H488 H 0.91035 0.48449 0.90081 0.0
H489 H 0.96687 0.5173 0.91539 0.0
H490 H 0.0371 0.46772 0.04893 0.0
H491 H 0.98058 0.43481 0.0342 0.0
C492 C 0.11216 0.52338 0.02177 0.0
C493 C 0.1067 0.55523 0.0118 0.0
C494 C 0.07987 0.50403 0.0125 0.0
C495 C 0.04114 0.51593 -0.00706 0.0
C496 C 0.03566 0.54775 0.98281 0.0
C497 C 0.06795 0.56711 -0.00788 0.0
C498 C 0.93773 0.48066 0.93345 0.0
C499 C 0.94069 0.45697 0.96638 0.0
C500 C 0.97023 0.49955 0.94186 0.0
C501 C 1.00667 0.49533 0.98347 0.0
C502 C 1.00976 0.47143 0.01614 0.0
C503 C 0.97725 0.4525 0.00769 0.0
H504 H 0.10293 0.09048 0.36781 0.0
H505 H 0.13893 0.12482 0.26203 0.0
H506 H 0.0339 0.10005 0.3114 0.0
H507 H 0.0694 0.135 0.20506 0.0
H508 H 0.94778 0.08716 0.10338 0.0
H509 H 1.0164 0.09854 0.15921 0.0
H510 H 0.97943 0.13489 0.26318 0.0
H511 H 0.91035 0.12286 0.20688 0.0
C512 C 0.09599 0.10084 0.33276 0.0
C513 C 0.12617 0.10653 0.319 0.0
C514 C 0.05641 0.10661 0.3005 0.0
C515 C 0.04593 0.11804 0.2534 0.0
C516 C 0.07643 0.12586 0.24089 0.0
C517 C 0.11624 0.1203 0.27354 0.0
C518 C 0.95429 0.09814 0.13779 0.0
C519 C 0.92386 0.1037 0.15113 0.0
C520 C 0.99361 0.10498 0.16968 0.0
C521 C 1.00361 0.11739 0.21599 0.0
C522 C 0.97279 0.12501 0.22798 0.0
C523 C 0.93323 0.11837 0.1957 0.0
H524 H 0.10214 0.90832 0.86505 0.0
H525 H 0.13611 0.94764 0.76032 0.0
H526 H 0.03333 0.90662 0.80347 0.0
H527 H 0.0669 0.94718 0.6986 0.0
H528 H 0.94492 0.91622 0.58809 0.0
H529 H 1.01327 0.91615 0.6479 0.0
H530 H 0.97863 0.93905 0.76014 0.0
H531 H 0.90963 0.93743 0.70072 0.0
C532 C 0.0947 0.91668 0.82868 0.0
C533 C 0.12433 0.92816 0.81737 0.0
C534 C 0.05522 0.91597 0.79344 0.0
C535 C 0.04423 0.92715 0.74605 0.0
C536 C 0.07417 0.93805 0.73449 0.0
C537 C 0.11384 0.93833 0.76972 0.0
C538 C 0.95128 0.92099 0.62537 0.0
C539 C 0.92079 0.92641 0.63895 0.0
C540 C 0.99102 0.92131 0.65987 0.0
C541 C 1.00177 0.92744 0.70909 0.0
C542 C 0.97155 0.93358 0.72273 0.0
C543 C 0.93167 0.93296 0.68825 0.0
H544 H 0.43842 0.61903 0.09583 0.0
H545 H 0.40888 0.58287 0.20615 0.0
H546 H 0.50753 0.62397 0.15587 0.0
H547 H 0.47828 0.58607 0.26618 0.0
H548 H 0.60278 0.60652 0.37351 0.0
H549 H 0.53373 0.61474 0.31518 0.0
H550 H 0.56244 0.59282 0.19731 0.0
H551 H 0.63179 0.58633 0.25607 0.0
C552 C 0.4469 0.61228 0.13321 0.0
C553 C 0.41853 0.60048 0.14649 0.0
C554 C 0.48655 0.61482 0.1676 0.0
C555 C 0.49899 0.605 0.21602 0.0
C556 C 0.47005 0.5943 0.22958 0.0
C557 C 0.4302 0.59235 0.19525 0.0
C558 C 0.59418 0.60398 0.33498 0.0
C559 C 0.62239 0.59569 0.31914 0.0
C560 C 0.55457 0.60841 0.30149 0.0
C561 C 0.54201 0.60403 0.25129 0.0
C562 C 0.57078 0.59687 0.23546 0.0
C563 C 0.61059 0.59303 0.26903 0.0
H564 H 0.6368 0.39321 0.76031 0.0
H565 H 0.6009 0.42666 0.86646 0.0
H566 H 0.5673 0.38301 0.70353 0.0
H567 H 0.53191 0.41726 0.81011 0.0
H568 H 0.40829 0.3948 0.70599 0.0
H569 H 0.47745 0.3831 0.76241 0.0
H570 H 0.51391 0.41849 0.65716 0.0
H571 H 0.44521 0.42936 0.60111 0.0
C572 C 0.61414 0.3976 0.77191 0.0
C573 C 0.62413 0.41113 0.81746 0.0
C574 C 0.57433 0.39204 0.73935 0.0
C575 C 0.54383 0.39965 0.75195 0.0
C576 C 0.55438 0.41087 0.79909 0.0
C577 C 0.59396 0.41657 0.83131 0.0
C578 C 0.43107 0.39916 0.69458 0.0
C579 C 0.42149 0.41341 0.64952 0.0
C580 C 0.47071 0.39272 0.72695 0.0
C581 C 0.50143 0.40018 0.71464 0.0
C582 C 0.49124 0.41219 0.66793 0.0
C583 C 0.45184 0.41876 0.63591 0.0
H584 H 0.29423 0.30692 0.60928 0.0
H585 H 0.24458 0.35022 0.4672 0.0
H586 H 0.29843 0.25808 0.57267 0.0
H587 H 0.24751 0.30128 0.43043 0.0
H588 H 0.2978 0.2179 0.38725 0.0
H589 H 0.29379 0.26655 0.42433 0.0
H590 H 0.25911 0.2174 0.52173 0.0
H591 H 0.26443 0.16877 0.48579 0.0
C592 C 0.28385 0.30594 0.57019 0.0
C593 C 0.2692 0.33246 0.54121 0.0
C594 C 0.28608 0.2779 0.54913 0.0
C595 C 0.27339 0.2757 0.49854 0.0
C596 C 0.25825 0.30221 0.46957 0.0
C597 C 0.25632 0.33026 0.49066 0.0
C598 C 0.2893 0.21749 0.41656 0.0
C599 C 0.28154 0.18944 0.43361 0.0
C600 C 0.28678 0.24541 0.43768 0.0
C601 C 0.2761 0.24596 0.47607 0.0
C602 C 0.26806 0.21786 0.49283 0.0
C603 C 0.27088 0.18995 0.47197 0.0
H604 H 0.7999 0.34696 0.00117 0.0
H605 H 0.75206 0.30253 0.86039 0.0
H606 H 0.79777 0.29816 0.03921 0.0
H607 H 0.74875 0.25381 0.89827 0.0
H608 H 0.78626 0.16546 -0.0128 0.0
H609 H 0.79007 0.2143 0.95061 0.0
H610 H 0.75257 0.26215 0.0461 0.0
H611 H 0.74995 0.21316 0.08387 0.0
C612 C 0.78871 0.32679 0.97825 0.0
C613 C 0.7762 0.32862 0.92771 0.0
C614 C 0.78725 0.29882 8e-05 0.0
C615 C 0.77301 0.27201 0.97186 0.0
C616 C 0.76047 0.27388 0.92126 0.0
C617 C 0.76218 0.30184 0.89946 0.0
C618 C 0.77887 0.18637 0.00052 0.0
C619 C 0.76773 0.18538 0.03846 0.0
C620 C 0.78081 0.21441 0.97925 0.0
C621 C 0.77141 0.24221 -0.00487 0.0
C622 C 0.76049 0.24124 0.03333 0.0
C623 C 0.7588 0.21314 0.05487 0.0
H624 H 0.7081 0.67363 0.46603 0.0
H625 H 0.81832 0.68292 0.45679 0.0
H626 H 0.70992 0.7284 0.48501 0.0
H627 H 0.82022 0.73785 0.47634 0.0
H628 H 0.83145 0.8174 0.58591 0.0
H629 H 0.82796 0.76529 0.5548 0.0
H630 H 0.70807 0.78206 0.44581 0.0
H631 H 0.71164 0.83475 0.4767 0.0
C632 C 0.73267 0.6874 0.46793 0.0
C633 C 0.76327 0.67397 0.46035 0.0
C634 C 0.73346 0.71879 0.47833 0.0
C635 C 0.76516 0.73727 0.48205 0.0
C636 C 0.7955 0.724 0.47378 0.0
C637 C 0.79439 0.69265 0.46256 0.0
C638 C 0.80437 0.81008 0.55514 0.0
C639 C 0.77167 0.83002 0.53393 0.0
C640 C 0.80255 0.78034 0.53711 0.0
C641 C 0.7678 0.76974 0.49793 0.0
C642 C 0.73517 0.78975 0.47619 0.0
C643 C 0.73723 0.81981 0.49374 0.0
H644 H 0.26364 0.84548 0.03508 0.0
H645 H 0.29115 0.83255 0.91418 0.0
H646 H 0.26269 0.78976 0.04513 0.0
H647 H 0.2885 0.77693 0.92271 0.0
H648 H 0.31967 0.67934 0.97996 0.0
H649 H 0.32217 0.73491 0.97213 0.0
H650 H 0.22515 0.74498 0.00917 0.0
H651 H 0.22389 0.68915 0.01909 0.0
C652 C 0.26938 0.83072 0.01056 0.0
C653 C 0.27759 0.84344 0.97394 0.0
C654 C 0.26848 0.79874 0.01602 0.0
C655 C 0.27532 0.7787 -0.01539 0.0
C656 C 0.28373 0.79154 0.94813 0.0
C657 C 0.28512 0.8235 0.94308 0.0
C658 C 0.29871 0.69337 -0.01377 0.0
C659 C 0.2715 0.67982 3e-05 0.0
C660 C 0.30003 0.72533 0.98152 0.0
C661 C 0.27381 0.74459 -0.01014 0.0
C662 C 0.24626 0.73096 0.00323 0.0
C663 C 0.24529 0.69893 0.00855 0.0
loop_
_geom_bond_atom_site_label_1
_geom_bond_atom_site_label_2
_geom_bond_distance
_geom_bond_site_symmetry_2
_ccdc_geom_bond_type
Co0 N4 2.148 . S
Co0 N10 2.128 . S
Co0 N20 2.194 . S
Co0 O25 2.351 . S
Co0 O26 2.155 . S
Co0 O27 2.096 . S
C1 N4 1.301 . S
C1 N5 1.328 . S
C1 H6 0.930 . S
C2 C3 1.333 . S
C2 N4 1.317 . S
C2 H7 0.930 . S
C3 C2 1.333 . S
C3 N5 1.350 . S
C3 H29 0.931 . S
N4 Co0 2.148 . S
N4 C1 1.301 . S
N4 C2 1.317 . S
N5 C1 1.328 . S
N5 C3 1.350 . S
H6 C1 0.930 . S
H7 C2 0.930 . S
C8 O9 1.224 . S
C8 O27 1.247 . S
O9 C8 1.224 . S
N10 Co0 2.128 . S
N10 C11 1.355 . S
N10 C13 1.311 . S
C11 N10 1.355 . S
C11 C12 1.363 . S
C11 H23 0.929 . S
C12 C11 1.363 . S
C12 N14 1.375 . S
C12 H30 0.931 . S
C13 N10 1.311 . S
C13 N14 1.347 . S
C13 H24 0.929 . S
N14 C12 1.375 . S
N14 C13 1.347 . S
C15 C18 1.365 . S
C15 N20 1.328 . S
C15 H21 0.929 . S
C16 C17 1.362 . S
C16 C19 1.378 . S
C16 H31 0.929 . S
C17 C16 1.362 . S
C17 C18 1.366 . S
C18 C15 1.365 . S
C18 C17 1.366 . S
C18 H32 0.930 1_545 S
C19 C16 1.378 . S
C19 N20 1.315 . S
C19 H22 0.930 . S
N20 Co0 2.194 . S
N20 C15 1.328 . S
N20 C19 1.315 . S
H21 C15 0.929 . S
H22 C19 0.930 . S
H23 C11 0.929 . S
H24 C13 0.929 . S
O25 Co0 2.351 . S
O25 C28 1.244 . S
O26 Co0 2.155 . S
O26 C28 1.240 . S
O27 Co0 2.096 . S
O27 C8 1.247 . S
C28 O25 1.244 . S
C28 O26 1.240 . S
H29 C3 0.931 . S
H30 C12 0.931 . S
H31 C16 0.929 . S
H32 C18 0.930 1_565 S
Co33 N37 2.148 . S
Co33 N43 2.128 . S
Co33 N53 2.194 . S
Co33 O58 2.351 . S
Co33 O59 2.155 . S
Co33 O60 2.096 . S
C34 N37 1.301 . S
C34 N38 1.328 . S
C34 H39 0.930 . S
C35 C36 1.333 . S
C35 N37 1.317 . S
C35 H40 0.930 . S
C36 C35 1.333 . S
C36 N38 1.350 . S
C36 H62 0.932 1_554 S
N37 Co33 2.148 . S
N37 C34 1.301 . S
N37 C35 1.317 . S
N38 C34 1.328 . S
N38 C36 1.350 . S
H39 C34 0.930 . S
H40 C35 0.930 . S
C41 O42 1.224 . S
C41 O60 1.247 . S
O42 C41 1.224 . S
N43 Co33 2.128 . S
N43 C44 1.355 . S
N43 C46 1.311 . S
C44 N43 1.355 . S
C44 C45 1.363 . S
C44 H56 0.929 . S
C45 C44 1.363 . S
C45 N47 1.375 . S
C45 H63 0.931 . S
C46 N43 1.311 . S
C46 N47 1.347 . S
C46 H57 0.929 . S
N47 C45 1.375 . S
N47 C46 1.347 . S
C48 C51 1.365 1_554 S
C48 N53 1.328 . S
C48 H54 0.929 . S
C49 C50 1.362 . S
C49 C52 1.378 . S
C49 H64 0.929 . S
C50 C49 1.362 . S
C50 C51 1.366 . S
C51 C48 1.365 1_556 S
C51 C50 1.366 . S
C51 H65 0.930 1_545 S
C52 C49 1.378 . S
C52 N53 1.315 1_556 S
C52 H55 0.930 . S
N53 Co33 2.194 . S
N53 C48 1.328 . S
N53 C52 1.315 1_554 S
H54 C48 0.929 . S
H55 C52 0.930 . S
H56 C44 0.929 . S
H57 C46 0.929 . S
O58 Co33 2.351 . S
O58 C61 1.244 . S
O59 Co33 2.155 . S
O59 C61 1.240 . S
O60 Co33 2.096 . S
O60 C41 1.247 . S
C61 O58 1.244 . S
C61 O59 1.240 . S
H62 C36 0.932 1_556 S
H63 C45 0.931 . S
H64 C49 0.929 . S
H65 C51 0.930 1_565 S
Co66 N70 2.148 . S
Co66 N76 2.128 . S
Co66 N86 2.194 . S
Co66 O91 2.351 . S
Co66 O92 2.155 . S
Co66 O93 2.096 . S
C67 N70 1.301 . S
C67 N71 1.328 . S
C67 H72 0.930 . S
C68 C69 1.333 . S
C68 N70 1.317 . S
C68 H73 0.930 . S
C69 C68 1.333 . S
C69 N71 1.350 . S
C69 H95 0.931 . S
N70 Co66 2.148 . S
N70 C67 1.301 . S
N70 C68 1.317 . S
N71 C67 1.328 . S
N71 C69 1.350 . S
H72 C67 0.930 . S
H73 C68 0.930 . S
C74 O75 1.224 . S
C74 O93 1.247 . S
O75 C74 1.224 . S
N76 Co66 2.128 . S
N76 C77 1.355 . S
N76 C79 1.311 . S
C77 N76 1.355 . S
C77 C78 1.363 . S
C77 H89 0.929 . S
C78 C77 1.363 . S
C78 N80 1.375 . S
C78 H96 0.931 . S
C79 N76 1.311 . S
C79 N80 1.347 . S
C79 H90 0.929 . S
N80 C78 1.375 . S
N80 C79 1.347 . S
C81 C84 1.365 . S
C81 N86 1.328 . S
C81 H87 0.929 . S
C82 C83 1.362 . S
C82 C85 1.378 . S
C82 H97 0.929 . S
C83 C82 1.362 . S
C83 C84 1.366 . S
C84 C81 1.365 . S
C84 C83 1.366 . S
C84 H98 0.930 1_565 S
C85 C82 1.378 . S
C85 N86 1.315 . S
C85 H88 0.930 . S
N86 Co66 2.194 . S
N86 C81 1.328 . S
N86 C85 1.315 . S
H87 C81 0.929 . S
H88 C85 0.930 . S
H89 C77 0.929 . S
H90 C79 0.929 . S
O91 Co66 2.351 . S
O91 C94 1.244 . S
O92 Co66 2.155 . S
O92 C94 1.240 . S
O93 Co66 2.096 . S
O93 C74 1.247 . S
C94 O91 1.244 . S
C94 O92 1.240 . S
H95 C69 0.931 . S
H96 C78 0.931 . S
H97 C82 0.929 . S
H98 C84 0.930 1_545 S
Co99 N103 2.148 . S
Co99 N109 2.128 . S
Co99 N119 2.194 . S
Co99 O124 2.351 . S
Co99 O125 2.155 . S
Co99 O126 2.096 . S
C100 N103 1.301 . S
C100 N104 1.328 . S
C100 H105 0.930 . S
C101 C102 1.333 . S
C101 N103 1.317 . S
C101 H106 0.930 . S
C102 C101 1.333 . S
C102 N104 1.350 . S
C102 H128 0.932 1_556 S
N103 Co99 2.148 . S
N103 C100 1.301 . S
N103 C101 1.317 . S
N104 C100 1.328 . S
N104 C102 1.350 . S
H105 C100 0.930 . S
H106 C101 0.930 . S
C107 O108 1.224 . S
C107 O126 1.247 . S
O108 C107 1.224 . S
N109 Co99 2.128 . S
N109 C110 1.355 . S
N109 C112 1.311 . S
C110 N109 1.355 . S
C110 C111 1.363 . S
C110 H122 0.929 . S
C111 C110 1.363 . S
C111 N113 1.375 . S
C111 H129 0.931 . S
C112 N109 1.311 . S
C112 N113 1.347 . S
C112 H123 0.929 . S
N113 C111 1.375 . S
N113 C112 1.347 . S
C114 C117 1.365 1_556 S
C114 N119 1.328 . S
C114 H120 0.929 . S
C115 C116 1.362 . S
C115 C118 1.378 . S
C115 H130 0.929 . S
C116 C115 1.362 . S
C116 C117 1.366 . S
C117 C114 1.365 1_554 S
C117 C116 1.366 . S
C117 H131 0.930 1_565 S
C118 C115 1.378 . S
C118 N119 1.315 1_554 S
C118 H121 0.930 . S
N119 Co99 2.194 . S
N119 C114 1.328 . S
N119 C118 1.315 1_556 S
H120 C114 0.929 . S
H121 C118 0.930 . S
H122 C110 0.929 . S
H123 C112 0.929 . S
O124 Co99 2.351 . S
O124 C127 1.244 . S
O125 Co99 2.155 . S
O125 C127 1.240 . S
O126 Co99 2.096 . S
O126 C107 1.247 . S
C127 O124 1.244 . S
C127 O125 1.240 . S
H128 C102 0.932 1_554 S
H129 C111 0.931 . S
H130 C115 0.929 . S
H131 C117 0.930 1_545 S
Co132 N136 2.148 . S
Co132 N142 2.128 . S
Co132 N152 2.194 . S
Co132 O157 2.351 . S
Co132 O158 2.155 . S
Co132 O159 2.096 . S
C133 N136 1.301 . S
C133 N137 1.328 . S
C133 H138 0.930 . S
C134 C135 1.333 . S
C134 N136 1.317 . S
C134 H139 0.930 . S
C135 C134 1.333 . S
C135 N137 1.350 . S
C135 H161 0.931 . S
N136 Co132 2.148 . S
N136 C133 1.301 . S
N136 C134 1.317 . S
N137 C133 1.328 . S
N137 C135 1.350 . S
H138 C133 0.930 . S
H139 C134 0.930 . S
C140 O141 1.224 . S
C140 O159 1.247 . S
O141 C140 1.224 . S
N142 Co132 2.128 . S
N142 C143 1.355 . S
N142 C145 1.311 . S
C143 N142 1.355 . S
C143 C144 1.363 . S
C143 H155 0.929 . S
C144 C143 1.363 . S
C144 N146 1.375 . S
C144 H162 0.931 . S
C145 N142 1.311 . S
C145 N146 1.347 . S
C145 H156 0.929 . S
N146 C144 1.375 . S
N146 C145 1.347 . S
C147 C150 1.365 . S
C147 N152 1.328 . S
C147 H153 0.929 . S
C148 C149 1.362 . S
C148 C151 1.378 . S
C148 H163 0.929 . S
C149 C148 1.362 . S
C149 C150 1.366 . S
C150 C147 1.365 . S
C150 C149 1.366 . S
C150 H164 0.930 . S
C151 C148 1.378 . S
C151 N152 1.315 . S
C151 H154 0.930 . S
N152 Co132 2.194 . S
N152 C147 1.328 . S
N152 C151 1.315 . S
H153 C147 0.929 . S
H154 C151 0.930 . S
H155 C143 0.929 . S
H156 C145 0.929 . S
O157 Co132 2.351 . S
O157 C160 1.244 . S
O158 Co132 2.155 . S
O158 C160 1.240 . S
O159 Co132 2.096 . S
O159 C140 1.247 . S
C160 O157 1.244 . S
C160 O158 1.240 . S
H161 C135 0.931 . S
H162 C144 0.931 . S
H163 C148 0.929 . S
H164 C150 0.930 . S
Co165 N169 2.148 . S
Co165 N175 2.128 . S
Co165 N185 2.194 . S
Co165 O190 2.351 . S
Co165 O191 2.155 . S
Co165 O192 2.096 . S
C166 N169 1.301 . S
C166 N170 1.328 . S
C166 H171 0.930 . S
C167 C168 1.333 . S
C167 N169 1.317 . S
C167 H172 0.930 . S
C168 C167 1.333 . S
C168 N170 1.350 . S
C168 H194 0.932 1_554 S
N169 Co165 2.148 . S
N169 C166 1.301 . S
N169 C167 1.317 . S
N170 C166 1.328 . S
N170 C168 1.350 . S
H171 C166 0.930 . S
H172 C167 0.930 . S
C173 O174 1.224 . S
C173 O192 1.247 . S
O174 C173 1.224 . S
N175 Co165 2.128 . S
N175 C176 1.355 . S
N175 C178 1.311 . S
C176 N175 1.355 . S
C176 C177 1.363 . S
C176 H188 0.929 . S
C177 C176 1.363 . S
C177 N179 1.375 . S
C177 H195 0.931 . S
C178 N175 1.311 . S
C178 N179 1.347 . S
C178 H189 0.929 . S
N179 C177 1.375 . S
N179 C178 1.347 . S
C180 C183 1.365 1_554 S
C180 N185 1.328 . S
C180 H186 0.929 . S
C181 C182 1.362 . S
C181 C184 1.378 . S
C181 H196 0.929 . S
C182 C181 1.362 . S
C182 C183 1.366 . S
C183 C180 1.365 1_556 S
C183 C182 1.366 . S
C183 H197 0.930 . S
C184 C181 1.378 . S
C184 N185 1.315 1_556 S
C184 H187 0.930 . S
N185 Co165 2.194 . S
N185 C180 1.328 . S
N185 C184 1.315 1_554 S
H186 C180 0.929 . S
H187 C184 0.930 . S
H188 C176 0.929 . S
H189 C178 0.929 . S
O190 Co165 2.351 . S
O190 C193 1.244 . S
O191 Co165 2.155 . S
O191 C193 1.240 . S
O192 Co165 2.096 . S
O192 C173 1.247 . S
C193 O190 1.244 . S
C193 O191 1.240 . S
H194 C168 0.932 1_556 S
H195 C177 0.931 . S
H196 C181 0.929 . S
H197 C183 0.930 . S
Co198 N202 2.148 . S
Co198 N208 2.128 . S
Co198 N218 2.194 . S
Co198 O223 2.351 . S
Co198 O224 2.155 . S
Co198 O225 2.096 . S
C199 N202 1.301 . S
C199 N203 1.328 . S
C199 H204 0.930 . S
C200 C201 1.333 . S
C200 N202 1.317 . S
C200 H205 0.930 . S
C201 C200 1.333 . S
C201 N203 1.350 . S
C201 H227 0.931 . S
N202 Co198 2.148 . S
N202 C199 1.301 . S
N202 C200 1.317 . S
N203 C199 1.328 . S
N203 C201 1.350 . S
H204 C199 0.930 . S
H205 C200 0.930 . S
C206 O207 1.224 . S
C206 O225 1.247 . S
O207 C206 1.224 . S
N208 Co198 2.128 . S
N208 C209 1.355 . S
N208 C211 1.311 . S
C209 N208 1.355 . S
C209 C210 1.363 . S
C209 H221 0.929 . S
C210 C209 1.363 . S
C210 N212 1.375 . S
C210 H228 0.931 . S
C211 N208 1.311 . S
C211 N212 1.347 . S
C211 H222 0.929 . S
N212 C210 1.375 . S
N212 C211 1.347 . S
C213 C216 1.365 . S
C213 N218 1.328 . S
C213 H219 0.929 . S
C214 C215 1.362 . S
C214 C217 1.378 . S
C214 H229 0.929 . S
C215 C214 1.362 . S
C215 C216 1.366 . S
C216 C213 1.365 . S
C216 C215 1.366 . S
C216 H230 0.930 . S
C217 C214 1.378 . S
C217 N218 1.315 . S
C217 H220 0.930 . S
N218 Co198 2.194 . S
N218 C213 1.328 . S
N218 C217 1.315 . S
H219 C213 0.929 . S
H220 C217 0.930 . S
H221 C209 0.929 . S
H222 C211 0.929 . S
O223 Co198 2.351 . S
O223 C226 1.244 . S
O224 Co198 2.155 . S
O224 C226 1.240 . S
O225 Co198 2.096 . S
O225 C206 1.247 . S
C226 O223 1.244 . S
C226 O224 1.240 . S
H227 C201 0.931 . S
H228 C210 0.931 . S
H229 C214 0.929 . S
H230 C216 0.930 . S
Co231 N235 2.148 . S
Co231 N241 2.128 . S
Co231 N251 2.194 . S
Co231 O256 2.351 . S
Co231 O257 2.155 . S
Co231 O258 2.096 . S
C232 N235 1.301 . S
C232 N236 1.328 . S
C232 H237 0.930 . S
C233 C234 1.333 . S
C233 N235 1.317 . S
C233 H238 0.930 . S
C234 C233 1.333 . S
C234 N236 1.350 . S
C234 H260 0.932 1_556 S
N235 Co231 2.148 . S
N235 C232 1.301 . S
N235 C233 1.317 . S
N236 C232 1.328 . S
N236 C234 1.350 . S
H237 C232 0.930 . S
H238 C233 0.930 . S
C239 O240 1.224 . S
C239 O258 1.247 . S
O240 C239 1.224 . S
N241 Co231 2.128 . S
N241 C242 1.355 . S
N241 C244 1.311 . S
C242 N241 1.355 . S
C242 C243 1.363 . S
C242 H254 0.929 . S
C243 C242 1.363 . S
C243 N245 1.375 . S
C243 H261 0.931 . S
C244 N241 1.311 . S
C244 N245 1.347 . S
C244 H255 0.929 . S
N245 C243 1.375 . S
N245 C244 1.347 . S
C246 C249 1.365 1_556 S
C246 N251 1.328 . S
C246 H252 0.929 . S
C247 C248 1.362 . S
C247 C250 1.378 . S
C247 H262 0.929 . S
C248 C247 1.362 . S
C248 C249 1.366 . S
C249 C246 1.365 1_554 S
C249 C248 1.366 . S
C249 H263 0.930 . S
C250 C247 1.378 . S
C250 N251 1.315 1_554 S
C250 H253 0.930 . S
N251 Co231 2.194 . S
N251 C246 1.328 . S
N251 C250 1.315 1_556 S
H252 C246 0.929 . S
H253 C250 0.930 . S
H254 C242 0.929 . S
H255 C244 0.929 . S
O256 Co231 2.351 . S
O256 C259 1.244 . S
O257 Co231 2.155 . S
O257 C259 1.240 . S
O258 Co231 2.096 . S
O258 C239 1.247 . S
C259 O256 1.244 . S
C259 O257 1.240 . S
H260 C234 0.932 1_554 S
H261 C243 0.931 . S
H262 C247 0.929 . S
H263 C249 0.930 . S
H264 C272 0.950 . S
H265 C277 0.950 . S
H266 C274 0.950 . S
H267 C276 0.950 . S
H268 C278 0.950 . S
H269 C280 0.950 . S
H270 C282 0.950 . S
H271 C283 0.950 . S
C272 H264 0.950 . S
C272 C273 1.386 1_545 S
C272 C274 1.391 . S
C273 C272 1.386 1_565 S
C273 C277 1.393 . S
C274 H266 0.950 . S
C274 C272 1.391 . S
C274 C275 1.400 . S
C275 C274 1.400 . S
C275 C276 1.398 1_545 S
C275 C281 1.491 . S
C276 H267 0.950 . S
C276 C275 1.398 1_565 S
C276 C277 1.391 . S
C277 H265 0.950 . S
C277 C273 1.393 . S
C277 C276 1.391 . S
C278 H268 0.950 . S
C278 C279 1.386 . S
C278 C280 1.391 . S
C279 C278 1.386 . S
C279 C283 1.393 . S
C280 H269 0.950 . S
C280 C278 1.391 . S
C280 C281 1.400 . S
C281 C275 1.491 . S
C281 C280 1.400 . S
C281 C282 1.398 . S
C282 H270 0.950 . S
C282 C281 1.398 . S
C282 C283 1.391 . S
C283 H271 0.950 . S
C283 C279 1.393 . S
C283 C282 1.391 . S
H284 C292 0.950 . S
H285 C297 0.950 . S
H286 C294 0.950 . S
H287 C296 0.950 . S
H288 C298 0.953 . S
H289 C300 0.950 . S
H290 C302 0.950 . S
H291 C303 0.950 . S
C292 H284 0.950 . S
C292 C293 1.386 . S
C292 C294 1.391 . S
C293 C292 1.386 . S
C293 C297 1.393 . S
C294 H286 0.950 . S
C294 C292 1.391 . S
C294 C295 1.400 . S
C295 C294 1.400 . S
C295 C296 1.398 . S
C295 C301 1.491 . S
C296 H287 0.950 . S
C296 C295 1.398 . S
C296 C297 1.391 . S
C297 H285 0.950 . S
C297 C293 1.393 . S
C297 C296 1.391 . S
C298 H288 0.953 . S
C298 C299 1.371 1_545 S
C298 C300 1.404 . S
C299 C298 1.371 1_565 S
C299 C303 1.393 . S
C300 H289 0.950 . S
C300 C298 1.404 . S
C300 C301 1.400 . S
C301 C295 1.491 . S
C301 C300 1.400 . S
C301 C302 1.398 1_545 S
C302 H290 0.950 . S
C302 C301 1.398 1_565 S
C302 C303 1.391 . S
C303 H291 0.950 . S
C303 C299 1.393 . S
C303 C302 1.391 . S
H304 C312 0.950 . S
H305 C317 0.950 . S
H306 C314 0.950 . S
H307 C316 0.950 . S
H308 C318 0.955 . S
H309 C320 0.950 . S
H310 C322 0.950 . S
H311 C323 0.950 . S
C312 H304 0.950 . S
C312 C313 1.386 . S
C312 C314 1.391 . S
C313 C312 1.386 . S
C313 C317 1.393 . S
C314 H306 0.950 . S
C314 C312 1.391 . S
C314 C315 1.400 . S
C315 C314 1.400 . S
C315 C316 1.398 . S
C315 C321 1.491 . S
C316 H307 0.950 . S
C316 C315 1.398 . S
C316 C317 1.391 . S
C317 H305 0.950 . S
C317 C313 1.393 . S
C317 C316 1.391 . S
C318 H308 0.955 . S
C318 C319 1.370 1_565 S
C318 C320 1.404 . S
C319 C318 1.370 1_545 S
C319 C323 1.393 . S
C320 H309 0.950 . S
C320 C318 1.404 . S
C320 C321 1.400 . S
C321 C315 1.491 . S
C321 C320 1.400 . S
C321 C322 1.398 1_565 S
C322 H310 0.950 . S
C322 C321 1.398 1_545 S
C322 C323 1.391 . S
C323 H311 0.950 . S
C323 C319 1.393 . S
C323 C322 1.391 . S
H324 C332 0.950 . S
H325 C337 0.950 . S
H326 C334 0.950 . S
H327 C336 0.950 1_545 S
H328 C338 0.950 . S
H329 C340 0.950 . S
H330 C342 0.950 . S
H331 C343 0.950 . S
C332 H324 0.950 . S
C332 C333 1.386 . S
C332 C334 1.391 . S
C333 C332 1.386 . S
C333 C337 1.393 . S
C334 H326 0.950 . S
C334 C332 1.391 . S
C334 C335 1.400 . S
C335 C334 1.400 . S
C335 C336 1.398 . S
C335 C341 1.491 . S
C336 H327 0.950 1_565 S
C336 C335 1.398 . S
C336 C337 1.391 . S
C337 H325 0.950 . S
C337 C333 1.393 . S
C337 C336 1.391 . S
C338 H328 0.950 . S
C338 C339 1.386 . S
C338 C340 1.391 . S
C339 C338 1.386 . S
C339 C343 1.393 1_545 S
C340 H329 0.950 . S
C340 C338 1.391 . S
C340 C341 1.400 1_545 S
C341 C335 1.491 . S
C341 C340 1.400 1_565 S
C341 C342 1.398 . S
C342 H330 0.950 . S
C342 C341 1.398 . S
C342 C343 1.391 . S
C343 H331 0.950 . S
C343 C339 1.393 1_565 S
C343 C342 1.391 . S
H344 C352 0.950 . S
H345 C357 0.950 . S
H346 C354 0.950 . S
H347 C356 0.950 . S
H348 C358 0.950 . S
H349 C360 0.950 . S
H350 C362 0.950 . S
H351 C363 0.950 . S
C352 H344 0.950 . S
C352 C353 1.386 . S
C352 C354 1.391 . S
C353 C352 1.386 . S
C353 C357 1.393 . S
C354 H346 0.950 . S
C354 C352 1.391 . S
C354 C355 1.400 . S
C355 C354 1.400 . S
C355 C356 1.398 . S
C355 C361 1.491 . S
C356 H347 0.950 . S
C356 C355 1.398 . S
C356 C357 1.391 . S
C357 H345 0.950 . S
C357 C353 1.393 . S
C357 C356 1.391 . S
C358 H348 0.950 . S
C358 C359 1.386 . S
C358 C360 1.391 . S
C359 C358 1.386 . S
C359 C363 1.393 . S
C360 H349 0.950 . S
C360 C358 1.391 . S
C360 C361 1.400 . S
C361 C355 1.491 . S
C361 C360 1.400 . S
C361 C362 1.398 . S
C362 H350 0.950 . S
C362 C361 1.398 . S
C362 C363 1.391 . S
C363 H351 0.950 . S
C363 C359 1.393 . S
C363 C362 1.391 . S
H364 C372 0.950 . S
H365 C377 0.950 . S
H366 C374 0.950 . S
H367 C376 0.950 . S
H368 C378 0.950 . S
H369 C380 0.950 . S
H370 C382 0.950 . S
H371 C383 0.950 . S
C372 H364 0.950 . S
C372 C373 1.386 . S
C372 C374 1.391 . S
C373 C372 1.386 . S
C373 C377 1.393 . S
C374 H366 0.950 . S
C374 C372 1.391 . S
C374 C375 1.400 . S
C375 C374 1.400 . S
C375 C376 1.398 . S
C375 C381 1.491 . S
C376 H367 0.950 . S
C376 C375 1.398 . S
C376 C377 1.391 . S
C377 H365 0.950 . S
C377 C373 1.393 . S
C377 C376 1.391 . S
C378 H368 0.950 . S
C378 C379 1.386 . S
C378 C380 1.391 . S
C379 C378 1.386 . S
C379 C383 1.393 . S
C380 H369 0.950 . S
C380 C378 1.391 . S
C380 C381 1.400 . S
C381 C375 1.491 . S
C381 C380 1.400 . S
C381 C382 1.398 . S
C382 H370 0.950 . S
C382 C381 1.398 . S
C382 C383 1.391 . S
C383 H371 0.950 . S
C383 C379 1.393 . S
C383 C382 1.391 . S
H384 C392 0.950 . S
H385 C397 0.950 . S
H386 C394 0.950 . S
H387 C396 0.950 . S
H388 C398 0.950 . S
H389 C400 0.950 . S
H390 C402 0.950 . S
H391 C403 0.950 . S
C392 H384 0.950 . S
C392 C393 1.386 . S
C392 C394 1.391 . S
C393 C392 1.386 . S
C393 C397 1.393 . S
C394 H386 0.950 . S
C394 C392 1.391 . S
C394 C395 1.400 . S
C395 C394 1.400 . S
C395 C396 1.398 . S
C395 C401 1.491 . S
C396 H387 0.950 . S
C396 C395 1.398 . S
C396 C397 1.391 . S
C397 H385 0.950 . S
C397 C393 1.393 . S
C397 C396 1.391 . S
C398 H388 0.950 . S
C398 C399 1.386 . S
C398 C400 1.391 . S
C399 C398 1.386 . S
C399 C403 1.393 . S
C400 H389 0.950 . S
C400 C398 1.391 . S
C400 C401 1.400 . S
C401 C395 1.491 . S
C401 C400 1.400 . S
C401 C402 1.398 . S
C402 H390 0.950 . S
C402 C401 1.398 . S
C402 C403 1.391 . S
C403 H391 0.950 . S
C403 C399 1.393 . S
C403 C402 1.391 . S
H404 C412 0.950 . S
H405 C417 0.950 . S
H406 C414 0.950 . S
H407 C416 0.950 . S
H408 C418 0.950 . S
H409 C420 0.950 . S
H410 C422 0.950 . S
H411 C423 0.950 . S
C412 H404 0.950 . S
C412 C413 1.386 . S
C412 C414 1.391 . S
C413 C412 1.386 . S
C413 C417 1.393 . S
C414 H406 0.950 . S
C414 C412 1.391 . S
C414 C415 1.400 . S
C415 C414 1.400 . S
C415 C416 1.398 . S
C415 C421 1.491 . S
C416 H407 0.950 . S
C416 C415 1.398 . S
C416 C417 1.391 . S
C417 H405 0.950 . S
C417 C413 1.393 . S
C417 C416 1.391 . S
C418 H408 0.950 . S
C418 C419 1.386 . S
C418 C420 1.391 . S
C419 C418 1.386 . S
C419 C423 1.393 . S
C420 H409 0.950 . S
C420 C418 1.391 . S
C420 C421 1.400 . S
C421 C415 1.491 . S
C421 C420 1.400 . S
C421 C422 1.398 . S
C422 H410 0.950 . S
C422 C421 1.398 . S
C422 C423 1.391 . S
C423 H411 0.950 . S
C423 C419 1.393 . S
C423 C422 1.391 . S
H424 C432 0.950 . S
H425 C437 0.950 . S
H426 C434 0.950 . S
H427 C436 0.950 . S
H428 C438 0.950 . S
H429 C440 0.950 . S
H430 C442 0.950 . S
H431 C443 0.950 . S
C432 H424 0.950 . S
C432 C433 1.386 . S
C432 C434 1.391 . S
C433 C432 1.386 . S
C433 C437 1.393 . S
C434 H426 0.950 . S
C434 C432 1.391 . S
C434 C435 1.400 . S
C435 C434 1.400 . S
C435 C436 1.398 1_565 S
C435 C441 1.491 1_565 S
C436 H427 0.950 . S
C436 C435 1.398 1_545 S
C436 C437 1.391 1_545 S
C437 H425 0.950 . S
C437 C433 1.393 . S
C437 C436 1.391 1_565 S
C438 H428 0.950 . S
C438 C439 1.386 . S
C438 C440 1.391 . S
C439 C438 1.386 . S
C439 C443 1.393 . S
C440 H429 0.950 . S
C440 C438 1.391 . S
C440 C441 1.400 . S
C441 C435 1.491 1_545 S
C441 C440 1.400 . S
C441 C442 1.398 1_545 S
C442 H430 0.950 . S
C442 C441 1.398 1_565 S
C442 C443 1.391 1_565 S
C443 H431 0.950 . S
C443 C439 1.393 . S
C443 C442 1.391 1_545 S
H444 C452 0.950 . S
H445 C457 0.950 . S
H446 C454 0.950 . S
H447 C456 0.950 . S
H448 C458 0.950 . S
H449 C460 0.950 . S
H450 C462 0.950 . S
H451 C463 0.950 . S
C452 H444 0.950 . S
C452 C453 1.386 . S
C452 C454 1.391 . S
C453 C452 1.386 . S
C453 C457 1.393 1_556 S
C454 H446 0.950 . S
C454 C452 1.391 . S
C454 C455 1.414 . S
C455 C454 1.414 . S
C455 C456 1.376 1_556 S
C455 C461 1.507 1_566 S
C456 H447 0.950 . S
C456 C455 1.376 1_554 S
C456 C457 1.391 . S
C457 H445 0.950 . S
C457 C453 1.393 1_554 S
C457 C456 1.391 . S
C458 H448 0.950 . S
C458 C459 1.386 . S
C458 C460 1.391 . S
C459 C458 1.386 . S
C459 C463 1.393 1_554 S
C460 H449 0.950 . S
C460 C458 1.391 . S
C460 C461 1.414 . S
C461 C455 1.507 1_544 S
C461 C460 1.414 . S
C461 C462 1.376 1_554 S
C462 H450 0.950 . S
C462 C461 1.376 1_556 S
C462 C463 1.391 . S
C463 H451 0.950 . S
C463 C459 1.393 1_556 S
C463 C462 1.391 . S
H464 C472 0.950 . S
H465 C477 0.950 . S
H466 C474 0.950 1_455 S
H467 C476 0.950 . S
H468 C478 0.950 . S
H469 C480 0.950 1_655 S
H470 C482 0.950 . S
H471 C483 0.950 . S
C472 H464 0.950 . S
C472 C473 1.386 . S
C472 C474 1.391 . S
C473 C472 1.386 . S
C473 C477 1.393 . S
C474 H466 0.950 1_655 S
C474 C472 1.391 . S
C474 C475 1.400 . S
C475 C474 1.400 . S
C475 C476 1.398 . S
C475 C481 1.491 1_655 S
C476 H467 0.950 . S
C476 C475 1.398 . S
C476 C477 1.391 . S
C477 H465 0.950 . S
C477 C473 1.393 . S
C477 C476 1.391 . S
C478 H468 0.950 . S
C478 C479 1.386 . S
C478 C480 1.391 . S
C479 C478 1.386 . S
C479 C483 1.393 . S
C480 H469 0.950 1_455 S
C480 C478 1.391 . S
C480 C481 1.400 . S
C481 C475 1.491 1_455 S
C481 C480 1.400 . S
C481 C482 1.398 . S
C482 H470 0.950 . S
C482 C481 1.398 . S
C482 C483 1.391 . S
C483 H471 0.950 . S
C483 C479 1.393 . S
C483 C482 1.391 . S
H484 C492 0.950 . S
H485 C497 0.950 . S
H486 C494 0.950 . S
H487 C496 0.950 1_655 S
H488 C498 0.950 . S
H489 C500 0.950 . S
H490 C502 0.950 1_455 S
H491 C503 0.950 . S
C492 H484 0.950 . S
C492 C493 1.386 . S
C492 C494 1.391 . S
C493 C492 1.386 . S
C493 C497 1.393 1_554 S
C494 H486 0.950 . S
C494 C492 1.391 . S
C494 C495 1.415 . S
C495 C494 1.415 . S
C495 C496 1.376 1_554 S
C495 C501 1.507 1_454 S
C496 H487 0.950 1_455 S
C496 C495 1.376 1_556 S
C496 C497 1.391 . S
C497 H485 0.950 . S
C497 C493 1.393 1_556 S
C497 C496 1.391 . S
C498 H488 0.950 . S
C498 C499 1.386 . S
C498 C500 1.391 . S
C499 C498 1.386 . S
C499 C503 1.393 1_556 S
C500 H489 0.950 . S
C500 C498 1.391 . S
C500 C501 1.415 . S
C501 C495 1.507 1_656 S
C501 C500 1.415 . S
C501 C502 1.376 1_556 S
C502 H490 0.950 1_655 S
C502 C501 1.376 1_554 S
C502 C503 1.391 . S
C503 H491 0.950 . S
C503 C499 1.393 1_554 S
C503 C502 1.391 . S
H504 C512 0.950 . S
H505 C517 0.950 . S
H506 C514 0.950 . S
H507 C516 0.950 . S
H508 C518 0.950 . S
H509 C520 0.950 . S
H510 C522 0.950 . S
H511 C523 0.950 . S
C512 H504 0.950 . S
C512 C513 1.386 . S
C512 C514 1.391 . S
C513 C512 1.386 . S
C513 C517 1.393 . S
C514 H506 0.950 . S
C514 C512 1.391 . S
C514 C515 1.400 . S
C515 C514 1.400 . S
C515 C516 1.398 . S
C515 C521 1.491 1_455 S
C516 H507 0.950 . S
C516 C515 1.398 . S
C516 C517 1.391 . S
C517 H505 0.950 . S
C517 C513 1.393 . S
C517 C516 1.391 . S
C518 H508 0.950 . S
C518 C519 1.386 . S
C518 C520 1.391 . S
C519 C518 1.386 . S
C519 C523 1.393 . S
C520 H509 0.950 . S
C520 C518 1.391 . S
C520 C521 1.400 . S
C521 C515 1.491 1_655 S
C521 C520 1.400 . S
C521 C522 1.398 . S
C522 H510 0.950 . S
C522 C521 1.398 . S
C522 C523 1.391 . S
C523 H511 0.950 . S
C523 C519 1.393 . S
C523 C522 1.391 . S
H524 C532 0.950 . S
H525 C537 0.950 . S
H526 C534 0.950 . S
H527 C536 0.950 . S
H528 C538 0.950 . S
H529 C540 0.950 . S
H530 C542 0.950 . S
H531 C543 0.950 . S
C532 H524 0.950 . S
C532 C533 1.386 . S
C532 C534 1.391 . S
C533 C532 1.386 . S
C533 C537 1.393 . S
C534 H526 0.950 . S
C534 C532 1.391 . S
C534 C535 1.400 . S
C535 C534 1.400 . S
C535 C536 1.398 . S
C535 C541 1.491 1_455 S
C536 H527 0.950 . S
C536 C535 1.398 . S
C536 C537 1.391 . S
C537 H525 0.950 . S
C537 C533 1.393 . S
C537 C536 1.391 . S
C538 H528 0.950 . S
C538 C539 1.386 . S
C538 C540 1.391 . S
C539 C538 1.386 . S
C539 C543 1.393 . S
C540 H529 0.950 . S
C540 C538 1.391 . S
C540 C541 1.400 . S
C541 C535 1.491 1_655 S
C541 C540 1.400 . S
C541 C542 1.398 . S
C542 H530 0.950 . S
C542 C541 1.398 . S
C542 C543 1.391 . S
C543 H531 0.950 . S
C543 C539 1.393 . S
C543 C542 1.391 . S
H544 C552 0.950 . S
H545 C557 0.950 . S
H546 C554 0.950 . S
H547 C556 0.950 . S
H548 C558 0.950 . S
H549 C560 0.950 . S
H550 C562 0.950 . S
H551 C563 0.950 . S
C552 H544 0.950 . S
C552 C553 1.386 . S
C552 C554 1.391 . S
C553 C552 1.386 . S
C553 C557 1.393 . S
C554 H546 0.950 . S
C554 C552 1.391 . S
C554 C555 1.400 . S
C555 C554 1.400 . S
C555 C556 1.398 . S
C555 C561 1.491 . S
C556 H547 0.950 . S
C556 C555 1.398 . S
C556 C557 1.391 . S
C557 H545 0.950 . S
C557 C553 1.393 . S
C557 C556 1.391 . S
C558 H548 0.950 . S
C558 C559 1.386 . S
C558 C560 1.391 . S
C559 C558 1.386 . S
C559 C563 1.393 . S
C560 H549 0.950 . S
C560 C558 1.391 . S
C560 C561 1.400 . S
C561 C555 1.491 . S
C561 C560 1.400 . S
C561 C562 1.398 . S
C562 H550 0.950 . S
C562 C561 1.398 . S
C562 C563 1.391 . S
C563 H551 0.950 . S
C563 C559 1.393 . S
C563 C562 1.391 . S
H564 C572 0.950 . S
H565 C577 0.950 . S
H566 C574 0.950 . S
H567 C576 0.950 . S
H568 C578 0.950 . S
H569 C580 0.950 . S
H570 C582 0.950 . S
H571 C583 0.950 . S
C572 H564 0.950 . S
C572 C573 1.386 . S
C572 C574 1.391 . S
C573 C572 1.386 . S
C573 C577 1.393 . S
C574 H566 0.950 . S
C574 C572 1.391 . S
C574 C575 1.400 . S
C575 C574 1.400 . S
C575 C576 1.398 . S
C575 C581 1.491 . S
C576 H567 0.950 . S
C576 C575 1.398 . S
C576 C577 1.391 . S
C577 H565 0.950 . S
C577 C573 1.393 . S
C577 C576 1.391 . S
C578 H568 0.950 . S
C578 C579 1.386 . S
C578 C580 1.391 . S
C579 C578 1.386 . S
C579 C583 1.393 . S
C580 H569 0.950 . S
C580 C578 1.391 . S
C580 C581 1.400 . S
C581 C575 1.491 . S
C581 C580 1.400 . S
C581 C582 1.398 . S
C582 H570 0.950 . S
C582 C581 1.398 . S
C582 C583 1.391 . S
C583 H571 0.950 . S
C583 C579 1.393 . S
C583 C582 1.391 . S
H584 C592 0.950 . S
H585 C597 0.950 . S
H586 C594 0.950 . S
H587 C596 0.950 . S
H588 C598 0.950 . S
H589 C600 0.950 . S
H590 C602 0.950 . S
H591 C603 0.950 . S
C592 H584 0.950 . S
C592 C593 1.386 . S
C592 C594 1.391 . S
C593 C592 1.386 . S
C593 C597 1.393 . S
C594 H586 0.950 . S
C594 C592 1.391 . S
C594 C595 1.400 . S
C595 C594 1.400 . S
C595 C596 1.398 . S
C595 C601 1.491 . S
C596 H587 0.950 . S
C596 C595 1.398 . S
C596 C597 1.391 . S
C597 H585 0.950 . S
C597 C593 1.393 . S
C597 C596 1.391 . S
C598 H588 0.950 . S
C598 C599 1.386 . S
C598 C600 1.391 . S
C599 C598 1.386 . S
C599 C603 1.393 . S
C600 H589 0.950 . S
C600 C598 1.391 . S
C600 C601 1.400 . S
C601 C595 1.491 . S
C601 C600 1.400 . S
C601 C602 1.398 . S
C602 H590 0.950 . S
C602 C601 1.398 . S
C602 C603 1.391 . S
C603 H591 0.950 . S
C603 C599 1.393 . S
C603 C602 1.391 . S
H604 C612 0.950 . S
H605 C617 0.950 . S
H606 C614 0.950 . S
H607 C616 0.950 . S
H608 C618 0.950 . S
H609 C620 0.950 . S
H610 C622 0.950 . S
H611 C623 0.950 . S
C612 H604 0.950 . S
C612 C613 1.386 1_554 S
C612 C614 1.391 . S
C613 C612 1.386 1_556 S
C613 C617 1.393 . S
C614 H606 0.950 . S
C614 C612 1.391 . S
C614 C615 1.400 1_554 S
C615 C614 1.400 1_556 S
C615 C616 1.398 . S
C615 C621 1.491 1_556 S
C616 H607 0.950 . S
C616 C615 1.398 . S
C616 C617 1.391 . S
C617 H605 0.950 . S
C617 C613 1.393 . S
C617 C616 1.391 . S
C618 H608 0.950 . S
C618 C619 1.386 1_556 S
C618 C620 1.391 . S
C619 C618 1.386 1_554 S
C619 C623 1.393 . S
C620 H609 0.950 . S
C620 C618 1.391 . S
C620 C621 1.400 1_556 S
C621 C615 1.491 1_554 S
C621 C620 1.400 1_554 S
C621 C622 1.398 . S
C622 H610 0.950 . S
C622 C621 1.398 . S
C622 C623 1.391 . S
C623 H611 0.950 . S
C623 C619 1.393 . S
C623 C622 1.391 . S
H624 C632 0.950 . S
H625 C637 0.950 . S
H626 C634 0.950 . S
H627 C636 0.950 . S
H628 C638 0.950 . S
H629 C640 0.950 . S
H630 C642 0.950 . S
H631 C643 0.950 . S
C632 H624 0.950 . S
C632 C633 1.386 . S
C632 C634 1.391 . S
C633 C632 1.386 . S
C633 C637 1.393 . S
C634 H626 0.950 . S
C634 C632 1.391 . S
C634 C635 1.400 . S
C635 C634 1.400 . S
C635 C636 1.398 . S
C635 C641 1.491 . S
C636 H627 0.950 . S
C636 C635 1.398 . S
C636 C637 1.391 . S
C637 H625 0.950 . S
C637 C633 1.393 . S
C637 C636 1.391 . S
C638 H628 0.950 . S
C638 C639 1.386 . S
C638 C640 1.391 . S
C639 C638 1.386 . S
C639 C643 1.393 . S
C640 H629 0.950 . S
C640 C638 1.391 . S
C640 C641 1.400 . S
C641 C635 1.491 . S
C641 C640 1.400 . S
C641 C642 1.398 . S
C642 H630 0.950 . S
C642 C641 1.398 . S
C642 C643 1.391 . S
C643 H631 0.950 . S
C643 C639 1.393 . S
C643 C642 1.391 . S
H644 C652 0.950 . S
H645 C657 0.950 . S
H646 C654 0.950 . S
H647 C656 0.950 . S
H648 C658 0.950 . S
H649 C660 0.950 . S
H650 C662 0.950 . S
H651 C663 0.950 . S
C652 H644 0.950 . S
C652 C653 1.386 1_554 S
C652 C654 1.391 . S
C653 C652 1.386 1_556 S
C653 C657 1.393 . S
C654 H646 0.950 . S
C654 C652 1.391 . S
C654 C655 1.400 1_554 S
C655 C654 1.400 1_556 S
C655 C656 1.398 . S
C655 C661 1.491 1_556 S
C656 H647 0.950 . S
C656 C655 1.398 . S
C656 C657 1.391 . S
C657 H645 0.950 . S
C657 C653 1.393 . S
C657 C656 1.391 . S
C658 H648 0.950 . S
C658 C659 1.386 1_556 S
C658 C660 1.391 . S
C659 C658 1.386 1_554 S
C659 C663 1.393 . S
C660 H649 0.950 . S
C660 C658 1.391 . S
C660 C661 1.400 1_556 S
C661 C655 1.491 1_554 S
C661 C660 1.400 1_554 S
C661 C662 1.398 . S
C662 H650 0.950 . S
C662 C661 1.398 . S
C662 C663 1.391 . S
C663 H651 0.950 . S
C663 C659 1.393 . S
C663 C662 1.391 . S
C273 C116 0.934 . S
C279 C28 0.936 . S
C293 C61 0.948 . S
C299 C83 0.947 . S
C313 C94 0.935 . S
C319 C50 0.933 . S
C333 C127 0.946 . S
C339 C17 0.945 . S
C353 C160 0.950 . S
C359 C248 0.950 . S
C373 C193 0.934 . S
C379 C215 0.932 . S
C393 C182 0.950 . S
C399 C226 0.950 . S
C413 C259 0.938 . S
C419 C149 0.935 . S
C433 N71 2.038 . S
C439 N5 2.038 . S
C453 N104 2.042 . S
C459 N38 2.042 . S
C473 N137 2.046 . S
C479 N203 2.046 . S
C493 N170 2.043 . S
C499 N236 2.043 . S
C513 N14 1.776 . S
C519 N47 1.752 . S
C533 N113 1.757 . S
C539 N80 1.777 . S
C553 N179 1.774 . S
C559 N146 1.764 . S
C573 N245 1.774 . S
C579 N212 1.751 . S
C593 C206 1.527 . S
C599 C8 1.527 . S
C613 C239 1.513 . S
C619 C41 1.513 . S
C633 C140 1.512 . S
C639 C74 1.512 . S
C653 C107 1.518 . S
C659 C173 1.518 . S
