# Generated by pormake.
# Topology snx, (6)-cn, num edge types: 1
# Building blocks:
#     Node 0, Type 0, BuildingBlock: IZENUY_clean_sbu_0, # of connection points: 6
#     Node 1, Type 0, BuildingBlock: IZENUY_clean_sbu_0, # of connection points: 6
#     Node 2, Type 0, BuildingBlock: IZENUY_clean_sbu_0, # of connection points: 6
#     Node 3, Type 0, BuildingBlock: IZENUY_clean_sbu_0, # of connection points: 6
#     Node 4, Type 0, BuildingBlock: IZENUY_clean_sbu_0, # of connection points: 6
#     Node 5, Type 0, BuildingBlock: IZENUY_clean_sbu_0, # of connection points: 6
#     Edge 6, Type (0, 0), BuildingBlock: FUNLAD_clean_linker_1, # of connection points: 2
#     Edge 7, Type (0, 0), BuildingBlock: FUNLAD_clean_linker_1, # of connection points: 2
#     Edge 8, Type (0, 0), BuildingBlock: FUNLAD_clean_linker_1, # of connection points: 2
#     Edge 9, Type (0, 0), BuildingBlock: FUNLAD_clean_linker_1, # of connection points: 2
#     Edge 10, Type (0, 0), BuildingBlock: FUNLAD_clean_linker_1, # of connection points: 2
#     Edge 11, Type (0, 0), BuildingBlock: FUNLAD_clean_linker_1, # of connection points: 2
#     Edge 12, Type (0, 0), BuildingBlock: FUNLAD_clean_linker_1, # of connection points: 2
#     Edge 13, Type (0, 0), BuildingBlock: FUNLAD_clean_linker_1, # of connection points: 2
#     Edge 14, Type (0, 0), BuildingBlock: FUNLAD_clean_linker_1, # of connection points: 2
#     Edge 15, Type (0, 0), BuildingBlock: FUNLAD_clean_linker_1, # of connection points: 2
#     Edge 16, Type (0, 0), BuildingBlock: FUNLAD_clean_linker_1, # of connection points: 2
#     Edge 17, Type (0, 0), BuildingBlock: FUNLAD_clean_linker_1, # of connection points: 2
#     Edge 18, Type (0, 0), BuildingBlock: FUNLAD_clean_linker_1, # of connection points: 2
#     Edge 19, Type (0, 0), BuildingBlock: FUNLAD_clean_linker_1, # of connection points: 2
#     Edge 20, Type (0, 0), BuildingBlock: FUNLAD_clean_linker_1, # of connection points: 2
#     Edge 21, Type (0, 0), BuildingBlock: FUNLAD_clean_linker_1, # of connection points: 2
#     Edge 22, Type (0, 0), BuildingBlock: FUNLAD_clean_linker_1, # of connection points: 2
#     Edge 23, Type (0, 0), BuildingBlock: FUNLAD_clean_linker_1, # of connection points: 2
# Relax obj value: 0.026
# Max RMSD: 0.068
# Mean RMSD: 0.067
data_MOF--net-snx--node1-IZENUY_clean_sbu_0--edge1-FUNLAD_clean_linker_1
_symmetry_space_group_name_H-M    P1
_symmetry_Int_Tables_number       1
_symmetry_cell_setting            triclinic
loop_
_symmetry_equiv_pos_as_xyz
'x, y, z'
_cell_length_a     36.9092
_cell_length_b     36.805267
_cell_length_c     22.320843
_cell_angle_alpha  90.50819
_cell_angle_beta   89.913933
_cell_angle_gamma 120.03266
loop_
_atom_site_label
_atom_site_type_symbol
_atom_site_fract_x
_atom_site_fract_y
_atom_site_fract_z
_atom_type_partial_charge
Fe0 Fe 0.1843 0.33695 0.27624 0.0
Fe1 Fe 0.21227 0.42234 0.33849 0.0
O2 O 0.20608 0.39231 0.27235 0.0
Fe3 Fe 0.22205 0.41774 0.20171 0.0
O4 O 0.16904 0.38767 0.1716 0.0
O5 O 0.15759 0.32622 0.20332 0.0
O6 O 0.13626 0.32934 0.30984 0.0
C7 C 0.13369 0.34801 0.35583 0.0
C8 C 0.24534 0.35529 0.19318 0.0
O9 O 0.16464 0.38188 0.37461 0.0
C10 C 0.28717 0.47257 0.27349 0.0
O11 O 0.20681 0.33744 0.34959 0.0
O12 O 0.24413 0.40415 0.37497 0.0
O13 O 0.23632 0.38071 0.16906 0.0
O14 O 0.23062 0.33973 0.24347 0.0
C15 C 0.19011 0.46474 0.26068 0.0
O16 O 0.26131 0.46788 0.3142 0.0
O17 O 0.27603 0.44947 0.22706 0.0
C18 C 0.23532 0.3666 0.38066 0.0
O19 O 0.18112 0.44378 0.30827 0.0
O20 O 0.21146 0.46009 0.22031 0.0
C21 C 0.148 0.34797 0.17029 0.0
Fe22 Fe 0.81419 0.21726 0.71055 0.0
Fe23 Fe 0.82232 0.21192 0.84652 0.0
O24 O 0.83399 0.2026 0.77269 0.0
Fe25 Fe 0.86531 0.17882 0.76097 0.0
O26 O 0.9035 0.22282 0.7176 0.0
O27 O 0.8585 0.22955 0.6611 0.0
O28 O 0.8416 0.27219 0.73361 0.0
C29 C 0.83766 0.28505 0.78453 0.0
C30 C 0.80091 0.14038 0.67238 0.0
O31 O 0.82208 0.26017 0.82798 0.0
C32 C 0.818 0.13288 0.8559 0.0
O33 O 0.76609 0.208 0.74798 0.0
O34 O 0.76623 0.17982 0.83416 0.0
O35 O 0.83662 0.14938 0.69282 0.0
O36 O 0.78538 0.16342 0.68364 0.0
C37 C 0.90485 0.23483 0.85992 0.0
O38 O 0.82093 0.1657 0.87924 0.0
O39 O 0.82987 0.13273 0.8031 0.0
C40 C 0.7469 0.18682 0.79352 0.0
O41 O 0.87707 0.24495 0.86419 0.0
O42 O 0.89941 0.20396 0.82735 0.0
C43 C 0.89524 0.23711 0.67176 0.0
Fe44 Fe 0.70722 0.85474 0.26286 0.0
Fe45 Fe 0.62518 0.81571 0.19111 0.0
O46 O 0.65155 0.82895 0.26107 0.0
Fe47 Fe 0.62208 0.8161 0.32852 0.0
O48 O 0.66132 0.86302 0.37054 0.0
O49 O 0.71083 0.89888 0.30457 0.0
O50 O 0.7143 0.88523 0.19409 0.0
C51 C 0.68939 0.89419 0.16753 0.0
C52 C 0.68258 0.7971 0.35941 0.0
O53 O 0.65038 0.87025 0.17013 0.0
C54 C 0.57505 0.74457 0.25309 0.0
O55 O 0.70824 0.81245 0.22108 0.0
O56 O 0.66406 0.80759 0.15149 0.0
O57 O 0.6442 0.78483 0.35412 0.0
O58 O 0.71002 0.8292 0.33205 0.0
C59 C 0.5759 0.83952 0.26072 0.0
O60 O 0.59839 0.76038 0.20831 0.0
O61 O 0.5778 0.76691 0.29846 0.0
C62 C 0.69138 0.79941 0.17039 0.0
O63 O 0.58086 0.821 0.21635 0.0
O64 O 0.59687 0.84597 0.30819 0.0
C65 C 0.693 0.89696 0.35361 0.0
Fe66 Fe 0.87433 0.70288 0.75791 0.0
Fe67 Fe 0.83517 0.62178 0.83157 0.0
O68 O 0.84271 0.6474 0.76164 0.0
Fe69 Fe 0.81907 0.61742 0.69569 0.0
O70 O 0.86939 0.63679 0.65957 0.0
O71 O 0.89549 0.70345 0.68306 0.0
O72 O 0.91943 0.70183 0.78807 0.0
C73 C 0.92013 0.68644 0.83787 0.0
C74 C 0.8119 0.69042 0.67996 0.0
O75 O 0.88649 0.66006 0.86305 0.0
C76 C 0.75576 0.57365 0.77451 0.0
O77 O 0.85888 0.7124 0.83232 0.0
O78 O 0.81083 0.64996 0.8637 0.0
O79 O 0.81077 0.65752 0.66004 0.0
O80 O 0.83199 0.70846 0.72695 0.0
C81 C 0.84648 0.56854 0.75786 0.0
O82 O 0.78263 0.57842 0.81351 0.0
O83 O 0.76661 0.59493 0.72703 0.0
C84 C 0.82822 0.68953 0.86596 0.0
O85 O 0.85891 0.59182 0.80403 0.0
O86 O 0.8237 0.57228 0.71893 0.0
C87 C 0.89667 0.67477 0.65289 0.0
Fe88 Fe 0.19046 0.86759 0.25574 0.0
Fe89 Fe 0.22807 0.81726 0.20029 0.0
O90 O 0.21409 0.83627 0.26436 0.0
Fe91 Fe 0.22362 0.82383 0.33712 0.0
O92 O 0.16843 0.79773 0.35576 0.0
O93 O 0.15802 0.84813 0.32362 0.0
O94 O 0.14674 0.82622 0.21487 0.0
C95 C 0.14998 0.80903 0.16774 0.0
C96 C 0.24358 0.90875 0.34875 0.0
O97 O 0.18453 0.81184 0.15326 0.0
C98 C 0.29558 0.83928 0.28146 0.0
O99 O 0.21851 0.89282 0.18623 0.0
O100 O 0.26301 0.87011 0.17393 0.0
O101 O 0.23332 0.87356 0.3719 0.0
O102 O 0.23264 0.91101 0.29614 0.0
C103 C 0.19652 0.74818 0.27145 0.0
O104 O 0.27426 0.81915 0.23578 0.0
O105 O 0.27929 0.84918 0.32343 0.0
C106 C 0.25204 0.89694 0.16417 0.0
O107 O 0.19383 0.76323 0.22232 0.0
O108 O 0.2159 0.77184 0.31564 0.0
C109 C 0.14642 0.81511 0.35375 0.0
Fe110 Fe 0.42679 0.22105 0.70179 0.0
Fe111 Fe 0.42368 0.22361 0.83927 0.0
O112 O 0.39746 0.21006 0.76901 0.0
Fe113 Fe 0.34219 0.18577 0.76638 0.0
O114 O 0.33739 0.14033 0.72705 0.0
O115 O 0.38674 0.1748 0.66056 0.0
O116 O 0.44876 0.18896 0.72445 0.0
C117 C 0.47 0.19525 0.77137 0.0
C118 C 0.36862 0.24252 0.66854 0.0
O119 O 0.46734 0.2163 0.81465 0.0
C120 C 0.35879 0.24241 0.85664 0.0
O121 O 0.4723 0.26961 0.73101 0.0
O122 O 0.45166 0.27877 0.81969 0.0
O123 O 0.34065 0.21092 0.69619 0.0
O124 O 0.40679 0.25368 0.67375 0.0
C125 C 0.35739 0.14628 0.86463 0.0
O126 O 0.38529 0.23357 0.87745 0.0
O127 O 0.34291 0.22949 0.80556 0.0
C128 C 0.47479 0.29333 0.77434 0.0
O129 O 0.39677 0.16918 0.86301 0.0
O130 O 0.33387 0.15608 0.83605 0.0
C131 C 0.3554 0.14122 0.67871 0.0
H132 H 0.20053 0.52296 0.21937 0.0
C133 C 0.1846 0.50174 0.25624 0.0
H134 H 0.15053 0.49251 0.3358 0.0
H135 H 0.2246 0.68411 0.39861 0.0
H136 H 0.23988 0.65677 0.48722 0.0
H137 H 0.22495 0.5836 0.49013 0.0
H138 H 0.19393 0.53715 0.405 0.0
C139 C 0.1656 0.51294 0.29797 0.0
C140 C 0.17082 0.5561 0.29797 0.0
C141 C 0.18974 0.58322 0.34805 0.0
C142 C 0.19979 0.62597 0.3456 0.0
C143 C 0.21743 0.6518 0.39707 0.0
C144 C 0.22623 0.63647 0.4485 0.0
C145 C 0.21774 0.59526 0.45018 0.0
C146 C 0.19976 0.56885 0.40078 0.0
H147 H 0.14893 0.68124 0.26093 0.0
C148 C 0.18097 0.70278 0.27474 0.0
H149 H 0.23877 0.71036 0.30207 0.0
H150 H 0.12494 0.5109 0.20065 0.0
H151 H 0.11438 0.53905 0.10856 0.0
H152 H 0.14319 0.61525 0.09728 0.0
H153 H 0.18092 0.66333 0.17852 0.0
C154 C 0.2066 0.68811 0.28946 0.0
C155 C 0.19254 0.64225 0.29232 0.0
C156 C 0.17373 0.61508 0.2421 0.0
C157 C 0.1607 0.57161 0.24637 0.0
C158 C 0.138 0.54451 0.1981 0.0
C159 C 0.13142 0.5602 0.14524 0.0
C160 C 0.14739 0.60305 0.13905 0.0
C161 C 0.1685 0.63031 0.18658 0.0
H162 H 0.69112 0.16892 0.84991 0.0
C163 C 0.7038 0.17811 0.80506 0.0
H164 H 0.69524 0.19559 0.71888 0.0
H165 H 0.50538 0.12036 0.84 0.0
H166 H 0.50318 0.05352 0.84811 0.0
H167 H 0.56489 0.04725 0.82251 0.0
H168 H 0.62928 0.10775 0.78941 0.0
C169 C 0.68209 0.1856 0.76333 0.0
C170 C 0.644 0.18816 0.77814 0.0
C171 C 0.60634 0.15218 0.79632 0.0
C172 C 0.57025 0.15545 0.80918 0.0
C173 C 0.53335 0.11935 0.8285 0.0
C174 C 0.53171 0.08086 0.83347 0.0
C175 C 0.5665 0.07735 0.81922 0.0
C176 C 0.6034 0.11244 0.80067 0.0
H177 H 0.50513 0.16718 0.73139 0.0
C178 C 0.50326 0.1841 0.77038 0.0
H179 H 0.53341 0.21661 0.85 0.0
H180 H 0.71099 0.26358 0.74406 0.0
H181 H 0.7113 0.32886 0.72988 0.0
H182 H 0.64834 0.33395 0.75053 0.0
H183 H 0.58428 0.27339 0.78411 0.0
C184 C 0.53347 0.19775 0.8123 0.0
C185 C 0.57154 0.19433 0.80232 0.0
C186 C 0.609 0.23018 0.78369 0.0
C187 C 0.64523 0.22714 0.77155 0.0
C188 C 0.68219 0.26364 0.75289 0.0
C189 C 0.68295 0.30151 0.74493 0.0
C190 C 0.64751 0.30438 0.75652 0.0
C191 C 0.61093 0.26931 0.77583 0.0
H192 H 0.33875 0.52445 0.323 0.0
C193 C 0.32989 0.50871 0.27956 0.0
H194 H 0.34779 0.51185 0.18885 0.0
H195 H 0.46221 0.71106 0.22996 0.0
H196 H 0.40255 0.7081 0.17971 0.0
H197 H 0.33935 0.64012 0.1574 0.0
H198 H 0.33557 0.57461 0.18484 0.0
C199 C 0.35656 0.52526 0.23363 0.0
C200 C 0.39618 0.56585 0.24225 0.0
C201 C 0.39807 0.60378 0.22523 0.0
C202 C 0.43436 0.64297 0.2385 0.0
C203 C 0.43534 0.6804 0.22121 0.0
C204 C 0.40133 0.67916 0.19227 0.0
C205 C 0.36574 0.64089 0.17976 0.0
C206 C 0.36396 0.60354 0.19584 0.0
H207 H 0.54081 0.68209 0.21007 0.0
C208 C 0.54025 0.70094 0.24747 0.0
H209 H 0.50392 0.70455 0.31806 0.0
H210 H 0.40353 0.49894 0.27774 0.0
H211 H 0.46286 0.50187 0.3294 0.0
H212 H 0.52536 0.5699 0.35399 0.0
H213 H 0.52902 0.63544 0.32698 0.0
C214 C 0.50634 0.68537 0.28273 0.0
C215 C 0.46877 0.64415 0.26851 0.0
C216 C 0.46715 0.60622 0.28474 0.0
C217 C 0.43087 0.567 0.27132 0.0
C218 C 0.43012 0.52956 0.28766 0.0
C219 C 0.46398 0.53081 0.31713 0.0
C220 C 0.49921 0.56912 0.3309 0.0
C221 C 0.50095 0.60649 0.31502 0.0
H222 H 0.84443 0.5157 0.70852 0.0
C223 C 0.85348 0.53267 0.75104 0.0
H224 H 0.87288 0.53215 0.83996 0.0
H225 H 0.77802 0.33171 0.80323 0.0
H226 H 0.72755 0.33901 0.8636 0.0
H227 H 0.73851 0.40896 0.89032 0.0
H228 H 0.80032 0.47209 0.85684 0.0
C229 C 0.86603 0.51746 0.79584 0.0
C230 C 0.86354 0.47606 0.788 0.0
C231 C 0.82819 0.43948 0.80997 0.0
C232 C 0.82255 0.39917 0.79603 0.0
C233 C 0.78528 0.36318 0.81502 0.0
C234 C 0.75563 0.36689 0.84911 0.0
C235 C 0.76174 0.40626 0.86402 0.0
C236 C 0.79738 0.44223 0.8445 0.0
H237 H 0.84909 0.33936 0.84001 0.0
C238 C 0.84699 0.32858 0.79393 0.0
H239 H 0.84671 0.34353 0.70292 0.0
H240 H 0.93565 0.54005 0.74184 0.0
H241 H 0.98769 0.53336 0.68359 0.0
H242 H 0.97911 0.46368 0.66136 0.0
H243 H 0.91844 0.40028 0.69691 0.0
C244 C 0.84867 0.35357 0.74931 0.0
C245 C 0.85342 0.39562 0.76232 0.0
C246 C 0.8891 0.43236 0.74117 0.0
C247 C 0.89413 0.47259 0.75402 0.0
C248 C 0.93015 0.50876 0.73272 0.0
C249 C 0.96032 0.50536 0.69951 0.0
C250 C 0.95549 0.46612 0.68701 0.0
C251 C 0.92045 0.42996 0.7076 0.0
H252 H 0.52983 0.84996 0.21348 0.0
C253 C 0.54077 0.84779 0.25781 0.0
H254 H 0.52601 0.83987 0.34988 0.0
H255 H 0.40526 0.90954 0.23109 0.0
H256 H 0.46934 0.97679 0.22529 0.0
H257 H 0.5372 0.98383 0.25343 0.0
H258 H 0.54141 0.92347 0.28704 0.0
C259 C 0.5178 0.84572 0.30569 0.0
C260 C 0.47646 0.84305 0.29692 0.0
C261 C 0.47431 0.87878 0.27898 0.0
C262 C 0.43497 0.87493 0.26444 0.0
C263 C 0.43406 0.91086 0.24435 0.0
C264 C 0.47067 0.94963 0.2405 0.0
C265 C 0.50889 0.95357 0.25618 0.0
C266 C 0.5109 0.91867 0.27516 0.0
H267 H 0.35568 0.86513 0.32978 0.0
C268 C 0.33856 0.84708 0.29043 0.0
H269 H 0.33887 0.81108 0.21646 0.0
H270 H 0.46931 0.76852 0.3316 0.0
H271 H 0.40505 0.7017 0.34049 0.0
H272 H 0.33677 0.69521 0.31686 0.0
H273 H 0.33228 0.75558 0.28451 0.0
C274 C 0.35624 0.83097 0.25429 0.0
C275 C 0.39769 0.83548 0.26921 0.0
C276 C 0.39978 0.79992 0.28837 0.0
C277 C 0.43915 0.80373 0.3024 0.0
C278 C 0.44026 0.76756 0.32088 0.0
C279 C 0.40359 0.72897 0.32618 0.0
C280 C 0.36515 0.72531 0.3128 0.0
C281 C 0.36306 0.76023 0.29415 0.0
H282 H 0.71051 0.51339 0.81349 0.0
C283 C 0.71384 0.536 0.77977 0.0
H284 H 0.68465 0.54861 0.70852 0.0
H285 H 0.55805 0.36035 0.63798 0.0
H286 H 0.59306 0.39081 0.54465 0.0
H287 H 0.65205 0.46351 0.54138 0.0
H288 H 0.67577 0.50645 0.63104 0.0
C289 C 0.68138 0.52656 0.74303 0.0
C290 C 0.64292 0.48378 0.74411 0.0
C291 C 0.63 0.45862 0.69123 0.0
C292 C 0.59693 0.41604 0.69352 0.0
C293 C 0.58376 0.39235 0.63948 0.0
C294 C 0.60347 0.4095 0.58536 0.0
C295 C 0.63661 0.45045 0.58351 0.0
C296 C 0.64987 0.47483 0.63556 0.0
H297 H 0.49929 0.36026 0.79565 0.0
C298 C 0.50683 0.33831 0.77404 0.0
H299 H 0.55243 0.32981 0.72994 0.0
H300 H 0.65036 0.52556 0.84954 0.0
H301 H 0.61958 0.49409 0.94504 0.0
H302 H 0.57305 0.41751 0.95318 0.0
H303 H 0.55536 0.37246 0.86571 0.0
C304 C 0.54517 0.35222 0.75078 0.0
C305 C 0.57792 0.39784 0.74907 0.0
C306 C 0.59107 0.42303 0.80204 0.0
C307 C 0.62146 0.46652 0.79866 0.0
C308 C 0.63001 0.49187 0.85067 0.0
C309 C 0.61226 0.47428 0.90559 0.0
C310 C 0.58584 0.43124 0.91008 0.0
C311 C 0.57541 0.40576 0.85916 0.0
H312 H 0.3194 0.27066 0.87568 0.0
C313 C 0.34215 0.26353 0.89497 0.0
H314 H 0.37594 0.26611 0.97282 0.0
H315 H 0.35793 0.40835 0.10511 0.0
H316 H 0.43224 0.44485 0.08276 0.0
H317 H 0.46241 0.41199 1.01825 0.0
H318 H 0.41857 0.3424 0.97592 0.0
C319 C 0.35266 0.27228 0.95315 0.0
C320 C 0.33416 0.29188 0.99202 0.0
C321 C 0.36023 0.33266 1.01619 0.0
C322 C 0.34279 0.35183 0.05285 0.0
C323 C 0.36955 0.3925 0.07663 0.0
C324 C 0.41224 0.41378 0.0642 0.0
C325 C 0.42923 0.39526 0.02793 0.0
C326 C 0.4037 0.35523 1.00401 0.0
H327 H 0.27164 0.31362 0.17811 0.0
C328 C 0.26781 0.33843 0.15845 0.0
H329 H 0.27827 0.37611 0.0821 0.0
H330 H 0.27611 0.21094 0.96027 0.0
H331 H 0.20168 0.17551 0.98018 0.0
H332 H 0.17069 0.21088 0.0373 0.0
H333 H 0.21415 0.28155 0.07593 0.0
C334 C 0.28106 0.35083 0.10221 0.0
C335 C 0.29934 0.33024 0.0652 0.0
C336 C 0.27319 0.28947 0.04099 0.0
C337 C 0.29076 0.26985 1.00557 0.0
C338 C 0.26427 0.22815 0.98505 0.0
C339 C 0.22146 0.20726 0.99659 0.0
C340 C 0.20404 0.2271 0.02893 0.0
C341 C 0.22943 0.26767 0.05106 0.0
H342 H 0.92292 0.2803 0.59594 0.0
C343 C 0.9278 0.26038 0.62666 0.0
H344 H 0.96614 0.23529 0.64993 0.0
H345 H 1.02014 0.3146 0.37197 0.0
H346 H 0.94855 0.26539 0.3431 0.0
H347 H 0.89733 0.21892 0.41785 0.0
H348 H 0.91703 0.22262 0.52211 0.0
C349 C 0.96119 0.25534 0.61956 0.0
C350 C 0.99322 0.27815 0.57235 0.0
C351 C 0.98191 0.2731 0.5107 0.0
C352 C 1.01232 0.29728 0.46672 0.0
C353 C 0.99911 0.29491 0.40654 0.0
C354 C 0.95796 0.26709 0.38943 0.0
C355 C 0.92907 0.24112 0.43156 0.0
C356 C 0.94072 0.24391 0.49148 0.0
H357 H 0.07533 0.29293 0.38657 0.0
C358 C 0.0959 0.32646 0.39341 0.0
H359 H 0.10885 0.37992 0.44467 0.0
H360 H 1.02551 0.29605 0.68631 0.0
H361 H 0.09817 0.34102 0.71405 0.0
H362 H 0.15223 0.37686 0.63701 0.0
H363 H 0.13386 0.36897 0.53189 0.0
C364 C 0.08799 0.34645 0.43782 0.0
C365 C 0.05488 0.32335 0.48361 0.0
C366 C 0.06644 0.3272 0.54503 0.0
C367 C 0.03549 0.30522 0.58942 0.0
C368 C 0.04776 0.31111 0.65052 0.0
C369 C 0.08942 0.33689 0.66719 0.0
C370 C 0.11982 0.3572 0.62383 0.0
C371 C 0.10871 0.3525 0.56348 0.0
H372 H 0.80869 0.06996 0.87456 0.0
C373 C 0.80473 0.09525 0.89278 0.0
H374 H 0.78544 0.11726 0.96688 0.0
H375 H 0.70557 0.91078 1.01154 0.0
H376 H 0.66914 0.89943 0.91688 0.0
H377 H 0.67994 0.95933 0.85521 0.0
H378 H 0.72822 0.0307 0.88684 0.0
C379 C 0.78863 0.0917 0.94793 0.0
C380 C 0.77853 0.05523 0.98709 0.0
C381 C 0.74794 1.01382 0.96964 0.0
C382 C 0.73928 0.97945 1.00732 0.0
C383 C 0.71141 0.93817 0.98642 0.0
C384 C 0.69056 0.93118 0.93189 0.0
C385 C 0.69682 0.96488 0.89704 0.0
C386 C 0.72502 1.00576 0.91551 0.0
H387 H 0.68282 0.93897 0.11058 0.0
C388 C 0.70525 0.93051 0.12736 0.0
H389 H 0.76801 0.94399 0.12441 0.0
H390 H 0.84098 0.13004 0.03252 0.0
H391 H 0.87507 0.1413 0.12906 0.0
H392 H 0.85572 0.08231 0.19781 0.0
H393 H 0.80261 1.01153 0.16998 0.0
C394 C 0.74497 0.95164 0.10789 0.0
C395 C 0.75845 0.98677 0.06468 0.0
C396 C 0.78916 0.02804 0.08196 0.0
C397 C 0.79954 0.06222 0.04289 0.0
C398 C 0.83111 0.103 0.06083 0.0
C399 C 0.85108 0.10993 0.11611 0.0
C400 C 0.84024 0.07671 0.15477 0.0
C401 C 0.80968 0.0362 0.13818 0.0
H402 H 0.67024 0.74642 0.42242 0.0
C403 C 0.69495 0.77507 0.40265 0.0
H404 H 0.75999 0.8179 0.40048 0.0
H405 H 0.72309 0.71011 0.65598 0.0
H406 H 0.68424 0.74416 0.68636 0.0
H407 H 0.67502 0.79092 0.61732 0.0
H408 H 0.70345 0.80274 0.51684 0.0
C409 C 0.73472 0.78974 0.42038 0.0
C410 C 0.74551 0.76675 0.46527 0.0
C411 C 0.7308 0.76214 0.52512 0.0
C412 C 0.7386 0.73747 0.56634 0.0
C413 C 0.72035 0.73049 0.62401 0.0
C414 C 0.69758 0.74954 0.64187 0.0
C415 C 0.6922 0.77568 0.60291 0.0
C416 C 0.70845 0.78195 0.54516 0.0
H417 H 0.80342 0.7438 0.65591 0.0
C418 C 0.79541 0.71209 0.64292 0.0
H419 H 0.76647 0.66387 0.5782 0.0
H420 H 0.7786 0.76963 0.35442 0.0
H421 H 0.82161 0.73972 0.32582 0.0
H422 H 0.83988 0.70174 0.39924 0.0
H423 H 0.81481 0.69284 0.5013 0.0
C424 C 0.77363 0.69516 0.59203 0.0
C425 C 0.76376 0.71999 0.54903 0.0
C426 C 0.77973 0.72594 0.48973 0.0
C427 C 0.77018 0.74888 0.44773 0.0
C428 C 0.78546 0.75314 0.38842 0.0
C429 C 0.81018 0.7361 0.37133 0.0
C430 C 0.8204 0.71465 0.41263 0.0
C431 C 0.80556 0.70961 0.47114 0.0
H432 H 0.98863 0.72709 0.84764 0.0
C433 C 0.96038 0.7042 0.87042 0.0
H434 H 0.93484 0.67186 0.95121 0.0
H435 H 0.10103 0.6982 0.06837 0.0
H436 H 0.06588 0.62381 0.0446 0.0
H437 H 1.00197 0.59089 0.98226 0.0
H438 H 0.97262 0.6321 0.94367 0.0
C439 C 0.96265 0.69522 0.92813 0.0
C440 C 1.00283 0.71601 0.96239 0.0
C441 C 1.02 0.69165 0.98384 0.0
C442 C 0.05724 0.71077 1.01905 0.0
C443 C 0.07312 0.68544 0.04088 0.0
C444 C 0.05323 0.64266 0.02763 0.0
C445 C 1.01722 0.62412 0.99259 0.0
C446 C 1.00066 0.64814 0.97083 0.0
H447 H 0.08491 0.78796 0.14107 0.0
C448 C 0.11366 0.78915 0.12673 0.0
H449 H 0.14299 0.77347 0.0579 0.0
H450 H 0.97617 0.77147 0.93446 0.0
H451 H 1.01331 0.84632 0.95373 0.0
H452 H 0.08136 0.88049 1.00623 0.0
H453 H 0.11207 0.83969 0.04111 0.0
C454 C 0.11497 0.77362 0.07252 0.0
C455 C 0.07746 0.75432 0.03249 0.0
C456 C 0.06115 0.77901 1.0092 0.0
C457 C 1.02314 0.75966 0.97574 0.0
C458 C 1.00595 0.78465 0.95734 0.0
C459 C 1.0268 0.82772 0.96854 0.0
C460 C 0.06501 0.84692 0.99833 0.0
C461 C 0.08213 0.82304 1.01852 0.0
H462 H 0.30899 0.07539 0.65707 0.0
C463 C 0.33673 0.10309 0.64065 0.0
H464 H 0.38035 0.12857 0.56992 0.0
H465 H 0.34246 0.95207 0.46701 0.0
H466 H 0.4119 0.97844 0.50885 0.0
H467 H 0.4453 0.04337 0.5699 0.0
H468 H 0.40958 0.08251 0.58917 0.0
C469 C 0.35198 0.10168 0.58648 0.0
C470 C 0.33176 0.06275 0.54898 0.0
C471 C 0.35295 0.04013 0.53837 0.0
C472 C 0.33344 1.00236 0.50384 0.0
C473 C 0.35557 0.98066 0.49348 0.0
C474 C 0.39549 0.99548 0.51715 0.0
C475 C 0.41431 0.03207 0.55147 0.0
C476 C 0.39346 0.05425 0.56213 0.0
H477 H 0.27238 0.97703 0.3638 0.0
C478 C 0.26447 0.94758 0.38529 0.0
H479 H 0.26584 0.91862 0.46593 0.0
H480 H 0.2845 0.10117 0.55413 0.0
H481 H 0.21408 0.07356 0.51567 0.0
H482 H 0.17794 1.00515 0.46307 0.0
H483 H 0.21236 0.96448 0.44748 0.0
C484 C 0.27257 0.94757 0.44399 0.0
C485 C 0.29269 0.98717 0.48011 0.0
C486 C 0.27129 1.00961 0.49122 0.0
C487 C 0.29128 0.04799 0.52432 0.0
C488 C 0.27017 0.07099 0.5316 0.0
C489 C 0.2298 0.05564 0.50938 0.0
C490 C 0.20953 1.01722 0.47957 0.0
C491 C 0.22982 0.99432 0.47053 0.0
H492 H 0.68372 0.75954 0.09225 0.0
C493 C 0.70474 0.77672 0.12919 0.0
H494 H 0.7638 0.79614 0.16811 0.0
H495 H 0.79281 0.65748 0.04406 0.0
H496 H 0.7937 0.64282 0.14954 0.0
H497 H 0.77615 0.68001 0.22648 0.0
H498 H 0.75801 0.73238 0.19851 0.0
C499 C 0.74229 0.77914 0.13163 0.0
C500 C 0.75488 0.75807 0.08487 0.0
C501 C 0.76478 0.72697 0.10178 0.0
C502 C 0.77412 0.70488 0.05719 0.0
C503 C 0.7848 0.67471 0.07577 0.0
C504 C 0.78551 0.66603 0.13624 0.0
C505 C 0.77567 0.68699 0.17957 0.0
C506 C 0.76535 0.71706 0.16284 0.0
H507 H 0.83459 0.74468 0.91487 0.0
C508 C 0.81594 0.71065 0.91179 0.0
H509 H 0.76495 0.65618 0.94777 0.0
H510 H 0.74736 0.82239 0.03668 0.0
H511 H 0.74272 0.83465 0.93128 0.0
H512 H 0.74857 0.78954 0.85398 0.0
H513 H 0.7607 0.73304 0.88168 0.0
C514 C 0.78323 0.69025 0.94902 0.0
C515 C 0.7729 0.71333 0.99547 0.0
C516 C 0.76258 0.7442 0.97855 0.0
C517 C 0.75562 0.76791 0.02323 0.0
C518 C 0.74984 0.80144 1.00485 0.0
C519 C 0.7476 0.80916 0.9444 0.0
C520 C 0.75115 0.78395 0.9009 0.0
C521 C 0.75854 0.75183 0.91748 0.0
H522 H 0.92905 0.6601 0.5815 0.0
C523 C 0.92927 0.68557 0.60686 0.0
H524 H 0.96094 0.751 0.6228 0.0
H525 H 0.13632 0.78677 0.5278 0.0
H526 H 0.1492 0.79636 0.6348 0.0
H527 H 0.09125 0.77769 0.70564 0.0
H528 H 1.0201 0.74956 0.66989 0.0
C529 C 0.95938 0.72533 0.59633 0.0
C530 C 0.99384 0.73525 0.55297 0.0
C531 C 0.03526 0.75129 0.57459 0.0
C532 C 0.06859 0.76145 0.53377 0.0
C533 C 0.10971 0.778 0.55673 0.0
C534 C 0.11759 0.78375 0.6181 0.0
C535 C 0.08498 0.77329 0.65797 0.0
C536 C 0.04426 0.75724 0.63678 0.0
H537 H 0.09192 0.817 0.39084 0.0
C538 C 0.10889 0.79993 0.3919 0.0
H539 H 0.11344 0.75067 0.43227 0.0
H540 H 0.91887 0.70854 0.49583 0.0
H541 H 0.90555 0.69633 0.38914 0.0
H542 H 0.96249 0.70957 0.31907 0.0
H543 H 0.03329 0.73568 0.35514 0.0
C544 C 0.09596 0.76713 0.42897 0.0
C545 C 0.06052 0.75544 0.47129 0.0
C546 C 1.01897 0.73869 0.44969 0.0
C547 C 0.98574 0.72937 0.49044 0.0
C548 C 0.94499 0.71472 0.46726 0.0
C549 C 0.93693 0.70782 0.40603 0.0
C550 C 0.96903 0.71539 0.36654 0.0
C551 C 1.0096 0.73062 0.38784 0.0
H552 H 0.30499 0.93347 0.10268 0.0
C553 C 0.27695 0.93143 0.1219 0.0
H554 H 0.23859 0.95885 0.12643 0.0
H555 H 0.37181 0.13938 0.04089 0.0
H556 H 0.36771 0.15214 0.14683 0.0
H557 H 0.32921 0.09325 0.21622 0.0
H558 H 0.2944 0.02123 0.18012 0.0
C559 C 0.26582 0.95975 0.10617 0.0
C560 C 0.29137 0.99489 0.06427 0.0
C561 C 0.31205 0.03685 0.08611 0.0
C562 C 0.3347 0.07085 0.04616 0.0
C563 C 0.35449 0.11239 0.06926 0.0
C564 C 0.35237 0.12017 0.12998 0.0
C565 C 0.33065 0.08702 0.16904 0.0
C566 C 0.31072 0.04581 0.14766 0.0
H567 H 0.30347 0.09018 0.90288 0.0
C568 C 0.33741 0.10924 0.90414 0.0
H569 H 0.39267 0.11846 0.94631 0.0
H570 H 0.25296 0.91869 1.00614 0.0
H571 H 0.25866 0.906 0.90079 0.0
H572 H 0.3011 0.96467 0.8328 0.0
H573 H 0.3376 0.03653 0.86969 0.0
C574 C 0.3589 0.09893 0.94235 0.0
C575 C 0.33667 0.06296 0.98429 0.0
C576 C 0.31673 0.02097 0.96257 0.0
C577 C 0.2935 0.98696 1.00234 0.0
C578 C 0.2722 0.94559 0.9786 0.0
C579 C 0.275 0.93786 0.91805 0.0
C580 C 0.29879 0.97091 0.87973 0.0
C581 C 0.31944 1.01202 0.90145 0.0
H582 H 0.37819 0.2793 0.58655 0.0
C583 C 0.35643 0.26325 0.62283 0.0
H584 H 0.29793 0.24619 0.66078 0.0
H585 H 0.33639 0.38625 0.44038 0.0
H586 H 0.40038 0.43372 0.49322 0.0
H587 H 0.41953 0.41223 0.58685 0.0
H588 H 0.37572 0.34249 0.62651 0.0
C589 C 0.3195 0.26228 0.62432 0.0
C590 C 0.30483 0.2786 0.57415 0.0
C591 C 0.32883 0.32085 0.55478 0.0
C592 C 0.31571 0.33465 0.50401 0.0
C593 C 0.343 0.37522 0.48135 0.0
C594 C 0.38015 0.40266 0.51087 0.0
C595 C 0.39108 0.39047 0.56333 0.0
C596 C 0.36584 0.35012 0.58525 0.0
H597 H 0.26656 0.37627 0.46851 0.0
C598 C 0.2556 0.356 0.42911 0.0
H599 H 0.2496 0.3024 0.38558 0.0
H600 H 0.25192 0.19504 0.59685 0.0
H601 H 0.18515 0.1496 0.54947 0.0
H602 H 0.15809 0.17614 0.47041 0.0
H603 H 0.19813 0.24797 0.43728 0.0
C604 C 0.26041 0.3221 0.42558 0.0
C605 C 0.27625 0.3077 0.4767 0.0
C606 C 0.25149 0.26596 0.49764 0.0
C607 C 0.26625 0.25115 0.54521 0.0
C608 C 0.24181 0.20857 0.5625 0.0
C609 C 0.20337 0.18195 0.53546 0.0
C610 C 0.18822 0.19685 0.49084 0.0
C611 C 0.21176 0.23825 0.47203 0.0
H612 H 0.94461 0.28454 0.92409 0.0
C613 C 0.94188 0.25766 0.89938 0.0
H614 H 0.96891 0.21941 0.88549 0.0
H615 H 0.14632 0.35916 0.98897 0.0
H616 H 0.16283 0.35685 0.88428 0.0
H617 H 0.10721 0.31458 0.811 0.0
H618 H 0.03456 0.27448 0.84173 0.0
C619 C 0.97025 0.24573 0.90988 0.0
C620 C 1.00435 0.26886 0.95518 0.0
C621 C 0.0466 0.29257 0.93648 0.0
C622 C 0.07873 0.31724 0.97884 0.0
C623 C 0.12065 0.34023 0.95876 0.0
C624 C 0.13059 0.33915 0.89878 0.0
C625 C 0.09925 0.31539 0.85747 0.0
C626 C 0.05768 0.29244 0.87576 0.0
H627 H 0.09602 0.29108 0.12941 0.0
C628 C 0.11332 0.32515 0.1269 0.0
H629 H 0.12068 0.37764 0.07901 0.0
H630 H 0.92797 0.22146 1.00847 0.0
H631 H 0.91118 0.22416 0.11283 0.0
H632 H 0.9657 0.27126 0.18454 0.0
H633 H 0.03748 0.31531 0.15254 0.0
C634 C 0.10274 0.3438 0.0843 0.0
C635 C 0.06867 0.31826 0.04002 0.0
C636 C 1.02639 0.29414 0.05887 0.0
C637 C 0.99447 0.2686 1.0168 0.0
C638 C 0.95307 0.2429 0.03778 0.0
C639 C 0.94304 0.24386 0.09773 0.0
C640 C 0.97377 0.27025 0.13814 0.0
C641 C 1.01496 0.29519 0.1192 0.0
H642 H 0.74257 0.96075 0.37924 0.0
C643 C 0.71306 0.93432 0.39382 0.0
H644 H 0.66868 0.91011 0.46336 0.0
H645 H 0.78505 0.02034 0.67521 0.0
H646 H 0.76691 0.95 0.70451 0.0
H647 H 0.72862 0.88996 0.63534 0.0
H648 H 0.7077 0.89975 0.53682 0.0
C649 C 0.6975 0.93674 0.44741 0.0
C650 C 0.7211 0.97373 0.48886 0.0
C651 C 0.73383 0.96772 0.5462 0.0
C652 C 0.75693 1.00261 0.58567 0.0
C653 C 0.76821 0.99524 0.64304 0.0
C654 C 0.75791 0.95497 0.66054 0.0
C655 C 0.73629 0.92116 0.62165 0.0
C656 C 0.72435 0.92725 0.56516 0.0
H657 H 0.74657 0.09722 0.61662 0.0
C658 C 0.77755 0.10415 0.63093 0.0
H659 H 0.82342 0.08612 0.62434 0.0
H660 H 0.69623 0.99641 0.38698 0.0
H661 H 0.71811 0.06715 0.35504 0.0
H662 H 0.76514 0.12815 0.41805 0.0
H663 H 0.78948 0.1187 0.51415 0.0
C664 C 0.79296 0.08031 0.60937 0.0
C665 C 0.76815 0.04383 0.56763 0.0
C666 C 0.75613 0.04998 0.50979 0.0
C667 C 0.73135 1.01486 0.47144 0.0
C668 C 0.71705 0.02191 0.41629 0.0
C669 C 0.72906 0.06239 0.39762 0.0
C670 C 0.75535 0.09672 0.43323 0.0
C671 C 0.76881 0.09079 0.48863 0.0
loop_
_geom_bond_atom_site_label_1
_geom_bond_atom_site_label_2
_geom_bond_distance
_geom_bond_site_symmetry_2
_ccdc_geom_bond_type
Fe0 O2 1.918 . S
Fe0 O5 1.997 . S
Fe0 O6 2.002 . S
Fe0 O11 1.976 . S
Fe0 O14 1.996 . S
Fe1 O2 1.918 . S
Fe1 O9 1.997 . S
Fe1 O12 1.996 . S
Fe1 O16 1.976 . S
Fe1 O19 2.002 . S
O2 Fe0 1.918 . S
O2 Fe1 1.918 . S
O2 Fe3 1.918 . S
Fe3 O2 1.918 . S
Fe3 O4 2.002 . S
Fe3 O13 1.976 . S
Fe3 O17 1.996 . S
Fe3 O20 1.997 . S
O4 Fe3 2.002 . S
O4 C21 1.295 . S
O5 Fe0 1.997 . S
O5 C21 1.235 . S
O6 Fe0 2.002 . S
O6 C7 1.295 . S
C7 O6 1.295 . S
C7 O9 1.235 . S
C8 O13 1.287 . S
C8 O14 1.255 . S
O9 Fe1 1.997 . S
O9 C7 1.235 . S
C10 O16 1.287 . S
C10 O17 1.255 . S
O11 Fe0 1.976 . S
O11 C18 1.287 . S
O12 Fe1 1.996 . S
O12 C18 1.255 . S
O13 Fe3 1.976 . S
O13 C8 1.287 . S
O14 Fe0 1.996 . S
O14 C8 1.255 . S
C15 O19 1.295 . S
C15 O20 1.235 . S
O16 Fe1 1.976 . S
O16 C10 1.287 . S
O17 Fe3 1.996 . S
O17 C10 1.255 . S
C18 O11 1.287 . S
C18 O12 1.255 . S
O19 Fe1 2.002 . S
O19 C15 1.295 . S
O20 Fe3 1.997 . S
O20 C15 1.235 . S
C21 O4 1.295 . S
C21 O5 1.235 . S
Fe22 O24 1.918 . S
Fe22 O27 1.997 . S
Fe22 O28 2.002 . S
Fe22 O33 1.976 . S
Fe22 O36 1.996 . S
Fe23 O24 1.918 . S
Fe23 O31 1.997 . S
Fe23 O34 1.996 . S
Fe23 O38 1.976 . S
Fe23 O41 2.002 . S
O24 Fe22 1.918 . S
O24 Fe23 1.918 . S
O24 Fe25 1.918 . S
Fe25 O24 1.918 . S
Fe25 O26 2.002 . S
Fe25 O35 1.976 . S
Fe25 O39 1.996 . S
Fe25 O42 1.997 . S
O26 Fe25 2.002 . S
O26 C43 1.295 . S
O27 Fe22 1.997 . S
O27 C43 1.235 . S
O28 Fe22 2.002 . S
O28 C29 1.295 . S
C29 O28 1.295 . S
C29 O31 1.235 . S
C30 O35 1.287 . S
C30 O36 1.255 . S
O31 Fe23 1.997 . S
O31 C29 1.235 . S
C32 O38 1.287 . S
C32 O39 1.255 . S
O33 Fe22 1.976 . S
O33 C40 1.287 . S
O34 Fe23 1.996 . S
O34 C40 1.255 . S
O35 Fe25 1.976 . S
O35 C30 1.287 . S
O36 Fe22 1.996 . S
O36 C30 1.255 . S
C37 O41 1.295 . S
C37 O42 1.235 . S
O38 Fe23 1.976 . S
O38 C32 1.287 . S
O39 Fe25 1.996 . S
O39 C32 1.255 . S
C40 O33 1.287 . S
C40 O34 1.255 . S
O41 Fe23 2.002 . S
O41 C37 1.295 . S
O42 Fe25 1.997 . S
O42 C37 1.235 . S
C43 O26 1.295 . S
C43 O27 1.235 . S
Fe44 O46 1.918 . S
Fe44 O49 1.997 . S
Fe44 O50 2.002 . S
Fe44 O55 1.976 . S
Fe44 O58 1.996 . S
Fe45 O46 1.918 . S
Fe45 O53 1.997 . S
Fe45 O56 1.996 . S
Fe45 O60 1.976 . S
Fe45 O63 2.002 . S
O46 Fe44 1.918 . S
O46 Fe45 1.918 . S
O46 Fe47 1.918 . S
Fe47 O46 1.918 . S
Fe47 O48 2.002 . S
Fe47 O57 1.976 . S
Fe47 O61 1.996 . S
Fe47 O64 1.997 . S
O48 Fe47 2.002 . S
O48 C65 1.295 . S
O49 Fe44 1.997 . S
O49 C65 1.235 . S
O50 Fe44 2.002 . S
O50 C51 1.295 . S
C51 O50 1.295 . S
C51 O53 1.235 . S
C52 O57 1.287 . S
C52 O58 1.255 . S
O53 Fe45 1.997 . S
O53 C51 1.235 . S
C54 O60 1.287 . S
C54 O61 1.255 . S
O55 Fe44 1.976 . S
O55 C62 1.287 . S
O56 Fe45 1.996 . S
O56 C62 1.255 . S
O57 Fe47 1.976 . S
O57 C52 1.287 . S
O58 Fe44 1.996 . S
O58 C52 1.255 . S
C59 O63 1.295 . S
C59 O64 1.235 . S
O60 Fe45 1.976 . S
O60 C54 1.287 . S
O61 Fe47 1.996 . S
O61 C54 1.255 . S
C62 O55 1.287 . S
C62 O56 1.255 . S
O63 Fe45 2.002 . S
O63 C59 1.295 . S
O64 Fe47 1.997 . S
O64 C59 1.235 . S
C65 O48 1.295 . S
C65 O49 1.235 . S
Fe66 O68 1.918 . S
Fe66 O71 1.997 . S
Fe66 O72 2.002 . S
Fe66 O77 1.976 . S
Fe66 O80 1.996 . S
Fe67 O68 1.918 . S
Fe67 O75 1.997 . S
Fe67 O78 1.996 . S
Fe67 O82 1.976 . S
Fe67 O85 2.002 . S
O68 Fe66 1.918 . S
O68 Fe67 1.918 . S
O68 Fe69 1.918 . S
Fe69 O68 1.918 . S
Fe69 O70 2.002 . S
Fe69 O79 1.976 . S
Fe69 O83 1.996 . S
Fe69 O86 1.997 . S
O70 Fe69 2.002 . S
O70 C87 1.295 . S
O71 Fe66 1.997 . S
O71 C87 1.235 . S
O72 Fe66 2.002 . S
O72 C73 1.295 . S
C73 O72 1.295 . S
C73 O75 1.235 . S
C74 O79 1.287 . S
C74 O80 1.255 . S
O75 Fe67 1.997 . S
O75 C73 1.235 . S
C76 O82 1.287 . S
C76 O83 1.255 . S
O77 Fe66 1.976 . S
O77 C84 1.287 . S
O78 Fe67 1.996 . S
O78 C84 1.255 . S
O79 Fe69 1.976 . S
O79 C74 1.287 . S
O80 Fe66 1.996 . S
O80 C74 1.255 . S
C81 O85 1.295 . S
C81 O86 1.235 . S
O82 Fe67 1.976 . S
O82 C76 1.287 . S
O83 Fe69 1.996 . S
O83 C76 1.255 . S
C84 O77 1.287 . S
C84 O78 1.255 . S
O85 Fe67 2.002 . S
O85 C81 1.295 . S
O86 Fe69 1.997 . S
O86 C81 1.235 . S
C87 O70 1.295 . S
C87 O71 1.235 . S
Fe88 O90 1.918 . S
Fe88 O93 1.997 . S
Fe88 O94 2.002 . S
Fe88 O99 1.976 . S
Fe88 O102 1.996 . S
Fe89 O90 1.918 . S
Fe89 O97 1.997 . S
Fe89 O100 1.996 . S
Fe89 O104 1.976 . S
Fe89 O107 2.002 . S
O90 Fe88 1.918 . S
O90 Fe89 1.918 . S
O90 Fe91 1.918 . S
Fe91 O90 1.918 . S
Fe91 O92 2.002 . S
Fe91 O101 1.976 . S
Fe91 O105 1.996 . S
Fe91 O108 1.997 . S
O92 Fe91 2.002 . S
O92 C109 1.295 . S
O93 Fe88 1.997 . S
O93 C109 1.235 . S
O94 Fe88 2.002 . S
O94 C95 1.295 . S
C95 O94 1.295 . S
C95 O97 1.235 . S
C96 O101 1.287 . S
C96 O102 1.255 . S
O97 Fe89 1.997 . S
O97 C95 1.235 . S
C98 O104 1.287 . S
C98 O105 1.255 . S
O99 Fe88 1.976 . S
O99 C106 1.287 . S
O100 Fe89 1.996 . S
O100 C106 1.255 . S
O101 Fe91 1.976 . S
O101 C96 1.287 . S
O102 Fe88 1.996 . S
O102 C96 1.255 . S
C103 O107 1.295 . S
C103 O108 1.235 . S
O104 Fe89 1.976 . S
O104 C98 1.287 . S
O105 Fe91 1.996 . S
O105 C98 1.255 . S
C106 O99 1.287 . S
C106 O100 1.255 . S
O107 Fe89 2.002 . S
O107 C103 1.295 . S
O108 Fe91 1.997 . S
O108 C103 1.235 . S
C109 O92 1.295 . S
C109 O93 1.235 . S
Fe110 O112 1.918 . S
Fe110 O115 1.997 . S
Fe110 O116 2.002 . S
Fe110 O121 1.976 . S
Fe110 O124 1.996 . S
Fe111 O112 1.918 . S
Fe111 O119 1.997 . S
Fe111 O122 1.996 . S
Fe111 O126 1.976 . S
Fe111 O129 2.002 . S
O112 Fe110 1.918 . S
O112 Fe111 1.918 . S
O112 Fe113 1.918 . S
Fe113 O112 1.918 . S
Fe113 O114 2.002 . S
Fe113 O123 1.976 . S
Fe113 O127 1.996 . S
Fe113 O130 1.997 . S
O114 Fe113 2.002 . S
O114 C131 1.295 . S
O115 Fe110 1.997 . S
O115 C131 1.235 . S
O116 Fe110 2.002 . S
O116 C117 1.295 . S
C117 O116 1.295 . S
C117 O119 1.235 . S
C118 O123 1.287 . S
C118 O124 1.255 . S
O119 Fe111 1.997 . S
O119 C117 1.235 . S
C120 O126 1.287 . S
C120 O127 1.255 . S
O121 Fe110 1.976 . S
O121 C128 1.287 . S
O122 Fe111 1.996 . S
O122 C128 1.255 . S
O123 Fe113 1.976 . S
O123 C118 1.287 . S
O124 Fe110 1.996 . S
O124 C118 1.255 . S
C125 O129 1.295 . S
C125 O130 1.235 . S
O126 Fe111 1.976 . S
O126 C120 1.287 . S
O127 Fe113 1.996 . S
O127 C120 1.255 . S
C128 O121 1.287 . S
C128 O122 1.255 . S
O129 Fe111 2.002 . S
O129 C125 1.295 . S
O130 Fe113 1.997 . S
O130 C125 1.235 . S
C131 O114 1.295 . S
C131 O115 1.235 . S
H132 C133 0.951 . S
C133 H132 0.951 . S
C133 C139 1.265 . S
H134 C139 0.950 . S
H135 C143 0.949 . S
H136 C144 0.950 . S
H137 C145 0.951 . S
H138 C146 0.951 . S
C139 C133 1.265 . S
C139 H134 0.950 . S
C139 C140 1.478 . S
C140 C139 1.478 . S
C140 C141 1.397 . S
C140 C157 1.394 . S
C141 C140 1.397 . S
C141 C142 1.438 . S
C141 C146 1.429 . S
C142 C141 1.438 . S
C142 C143 1.428 . S
C142 C155 1.394 . S
C143 H135 0.949 . S
C143 C142 1.428 . S
C143 C144 1.345 . S
C144 H136 0.950 . S
C144 C143 1.345 . S
C144 C145 1.424 . S
C145 H137 0.951 . S
C145 C144 1.424 . S
C145 C146 1.347 . S
C146 H138 0.951 . S
C146 C141 1.429 . S
C146 C145 1.347 . S
H147 C148 0.951 . S
C148 H147 0.951 . S
C148 C154 1.265 . S
H149 C154 0.950 . S
H150 C158 0.949 . S
H151 C159 0.950 . S
H152 C160 0.951 . S
H153 C161 0.951 . S
C154 C148 1.265 . S
C154 H149 0.950 . S
C154 C155 1.478 . S
C155 C142 1.394 . S
C155 C154 1.478 . S
C155 C156 1.397 . S
C156 C155 1.397 . S
C156 C157 1.438 . S
C156 C161 1.429 . S
C157 C140 1.394 . S
C157 C156 1.438 . S
C157 C158 1.428 . S
C158 H150 0.949 . S
C158 C157 1.428 . S
C158 C159 1.345 . S
C159 H151 0.950 . S
C159 C158 1.345 . S
C159 C160 1.424 . S
C160 H152 0.951 . S
C160 C159 1.424 . S
C160 C161 1.347 . S
C161 H153 0.951 . S
C161 C156 1.429 . S
C161 C160 1.347 . S
H162 C163 0.951 . S
C163 H162 0.951 . S
C163 C169 1.265 . S
H164 C169 0.950 . S
H165 C173 0.949 . S
H166 C174 0.950 . S
H167 C175 0.951 . S
H168 C176 0.951 . S
C169 C163 1.265 . S
C169 H164 0.950 . S
C169 C170 1.478 . S
C170 C169 1.478 . S
C170 C171 1.397 . S
C170 C187 1.394 . S
C171 C170 1.397 . S
C171 C172 1.438 . S
C171 C176 1.429 . S
C172 C171 1.438 . S
C172 C173 1.428 . S
C172 C185 1.394 . S
C173 H165 0.949 . S
C173 C172 1.428 . S
C173 C174 1.345 . S
C174 H166 0.950 . S
C174 C173 1.345 . S
C174 C175 1.424 . S
C175 H167 0.951 . S
C175 C174 1.424 . S
C175 C176 1.347 . S
C176 H168 0.951 . S
C176 C171 1.429 . S
C176 C175 1.347 . S
H177 C178 0.951 . S
C178 H177 0.951 . S
C178 C184 1.265 . S
H179 C184 0.950 . S
H180 C188 0.949 . S
H181 C189 0.950 . S
H182 C190 0.951 . S
H183 C191 0.951 . S
C184 C178 1.265 . S
C184 H179 0.950 . S
C184 C185 1.478 . S
C185 C172 1.394 . S
C185 C184 1.478 . S
C185 C186 1.397 . S
C186 C185 1.397 . S
C186 C187 1.438 . S
C186 C191 1.429 . S
C187 C170 1.394 . S
C187 C186 1.438 . S
C187 C188 1.428 . S
C188 H180 0.949 . S
C188 C187 1.428 . S
C188 C189 1.345 . S
C189 H181 0.950 . S
C189 C188 1.345 . S
C189 C190 1.424 . S
C190 H182 0.951 . S
C190 C189 1.424 . S
C190 C191 1.347 . S
C191 H183 0.951 . S
C191 C186 1.429 . S
C191 C190 1.347 . S
H192 C193 0.951 . S
C193 H192 0.951 . S
C193 C199 1.265 . S
H194 C199 0.950 . S
H195 C203 0.949 . S
H196 C204 0.950 . S
H197 C205 0.951 . S
H198 C206 0.951 . S
C199 C193 1.265 . S
C199 H194 0.950 . S
C199 C200 1.478 . S
C200 C199 1.478 . S
C200 C201 1.397 . S
C200 C217 1.394 . S
C201 C200 1.397 . S
C201 C202 1.438 . S
C201 C206 1.429 . S
C202 C201 1.438 . S
C202 C203 1.428 . S
C202 C215 1.394 . S
C203 H195 0.949 . S
C203 C202 1.428 . S
C203 C204 1.345 . S
C204 H196 0.950 . S
C204 C203 1.345 . S
C204 C205 1.424 . S
C205 H197 0.951 . S
C205 C204 1.424 . S
C205 C206 1.347 . S
C206 H198 0.951 . S
C206 C201 1.429 . S
C206 C205 1.347 . S
H207 C208 0.951 . S
C208 H207 0.951 . S
C208 C214 1.265 . S
H209 C214 0.950 . S
H210 C218 0.949 . S
H211 C219 0.950 . S
H212 C220 0.951 . S
H213 C221 0.951 . S
C214 C208 1.265 . S
C214 H209 0.950 . S
C214 C215 1.478 . S
C215 C202 1.394 . S
C215 C214 1.478 . S
C215 C216 1.397 . S
C216 C215 1.397 . S
C216 C217 1.438 . S
C216 C221 1.429 . S
C217 C200 1.394 . S
C217 C216 1.438 . S
C217 C218 1.428 . S
C218 H210 0.949 . S
C218 C217 1.428 . S
C218 C219 1.345 . S
C219 H211 0.950 . S
C219 C218 1.345 . S
C219 C220 1.424 . S
C220 H212 0.951 . S
C220 C219 1.424 . S
C220 C221 1.347 . S
C221 H213 0.951 . S
C221 C216 1.429 . S
C221 C220 1.347 . S
H222 C223 0.951 . S
C223 H222 0.951 . S
C223 C229 1.265 . S
H224 C229 0.950 . S
H225 C233 0.949 . S
H226 C234 0.950 . S
H227 C235 0.951 . S
H228 C236 0.951 . S
C229 C223 1.265 . S
C229 H224 0.950 . S
C229 C230 1.478 . S
C230 C229 1.478 . S
C230 C231 1.397 . S
C230 C247 1.394 . S
C231 C230 1.397 . S
C231 C232 1.438 . S
C231 C236 1.429 . S
C232 C231 1.438 . S
C232 C233 1.428 . S
C232 C245 1.394 . S
C233 H225 0.949 . S
C233 C232 1.428 . S
C233 C234 1.345 . S
C234 H226 0.950 . S
C234 C233 1.345 . S
C234 C235 1.424 . S
C235 H227 0.951 . S
C235 C234 1.424 . S
C235 C236 1.347 . S
C236 H228 0.951 . S
C236 C231 1.429 . S
C236 C235 1.347 . S
H237 C238 0.951 . S
C238 H237 0.951 . S
C238 C244 1.265 . S
H239 C244 0.950 . S
H240 C248 0.949 . S
H241 C249 0.950 . S
H242 C250 0.951 . S
H243 C251 0.951 . S
C244 C238 1.265 . S
C244 H239 0.950 . S
C244 C245 1.478 . S
C245 C232 1.394 . S
C245 C244 1.478 . S
C245 C246 1.397 . S
C246 C245 1.397 . S
C246 C247 1.438 . S
C246 C251 1.429 . S
C247 C230 1.394 . S
C247 C246 1.438 . S
C247 C248 1.428 . S
C248 H240 0.949 . S
C248 C247 1.428 . S
C248 C249 1.345 . S
C249 H241 0.950 . S
C249 C248 1.345 . S
C249 C250 1.424 . S
C250 H242 0.951 . S
C250 C249 1.424 . S
C250 C251 1.347 . S
C251 H243 0.951 . S
C251 C246 1.429 . S
C251 C250 1.347 . S
H252 C253 0.951 . S
C253 H252 0.951 . S
C253 C259 1.265 . S
H254 C259 0.950 . S
H255 C263 0.949 . S
H256 C264 0.950 . S
H257 C265 0.951 . S
H258 C266 0.951 . S
C259 C253 1.265 . S
C259 H254 0.950 . S
C259 C260 1.478 . S
C260 C259 1.478 . S
C260 C261 1.397 . S
C260 C277 1.394 . S
C261 C260 1.397 . S
C261 C262 1.438 . S
C261 C266 1.429 . S
C262 C261 1.438 . S
C262 C263 1.428 . S
C262 C275 1.394 . S
C263 H255 0.949 . S
C263 C262 1.428 . S
C263 C264 1.345 . S
C264 H256 0.950 . S
C264 C263 1.345 . S
C264 C265 1.424 . S
C265 H257 0.951 . S
C265 C264 1.424 . S
C265 C266 1.347 . S
C266 H258 0.951 . S
C266 C261 1.429 . S
C266 C265 1.347 . S
H267 C268 0.951 . S
C268 H267 0.951 . S
C268 C274 1.265 . S
H269 C274 0.950 . S
H270 C278 0.949 . S
H271 C279 0.950 . S
H272 C280 0.951 . S
H273 C281 0.951 . S
C274 C268 1.265 . S
C274 H269 0.950 . S
C274 C275 1.478 . S
C275 C262 1.394 . S
C275 C274 1.478 . S
C275 C276 1.397 . S
C276 C275 1.397 . S
C276 C277 1.438 . S
C276 C281 1.429 . S
C277 C260 1.394 . S
C277 C276 1.438 . S
C277 C278 1.428 . S
C278 H270 0.949 . S
C278 C277 1.428 . S
C278 C279 1.345 . S
C279 H271 0.950 . S
C279 C278 1.345 . S
C279 C280 1.424 . S
C280 H272 0.951 . S
C280 C279 1.424 . S
C280 C281 1.347 . S
C281 H273 0.951 . S
C281 C276 1.429 . S
C281 C280 1.347 . S
H282 C283 0.951 . S
C283 H282 0.951 . S
C283 C289 1.265 . S
H284 C289 0.950 . S
H285 C293 0.949 . S
H286 C294 0.950 . S
H287 C295 0.951 . S
H288 C296 0.951 . S
C289 C283 1.265 . S
C289 H284 0.950 . S
C289 C290 1.478 . S
C290 C289 1.478 . S
C290 C291 1.397 . S
C290 C307 1.394 . S
C291 C290 1.397 . S
C291 C292 1.438 . S
C291 C296 1.429 . S
C292 C291 1.438 . S
C292 C293 1.428 . S
C292 C305 1.394 . S
C293 H285 0.949 . S
C293 C292 1.428 . S
C293 C294 1.345 . S
C294 H286 0.950 . S
C294 C293 1.345 . S
C294 C295 1.424 . S
C295 H287 0.951 . S
C295 C294 1.424 . S
C295 C296 1.347 . S
C296 H288 0.951 . S
C296 C291 1.429 . S
C296 C295 1.347 . S
H297 C298 0.951 . S
C298 H297 0.951 . S
C298 C304 1.265 . S
H299 C304 0.950 . S
H300 C308 0.949 . S
H301 C309 0.950 . S
H302 C310 0.951 . S
H303 C311 0.951 . S
C304 C298 1.265 . S
C304 H299 0.950 . S
C304 C305 1.478 . S
C305 C292 1.394 . S
C305 C304 1.478 . S
C305 C306 1.397 . S
C306 C305 1.397 . S
C306 C307 1.438 . S
C306 C311 1.429 . S
C307 C290 1.394 . S
C307 C306 1.438 . S
C307 C308 1.428 . S
C308 H300 0.949 . S
C308 C307 1.428 . S
C308 C309 1.345 . S
C309 H301 0.950 . S
C309 C308 1.345 . S
C309 C310 1.424 . S
C310 H302 0.951 . S
C310 C309 1.424 . S
C310 C311 1.347 . S
C311 H303 0.951 . S
C311 C306 1.429 . S
C311 C310 1.347 . S
H312 C313 0.951 . S
C313 H312 0.951 . S
C313 C319 1.265 . S
H314 C319 0.950 . S
H315 C323 0.949 . S
H316 C324 0.950 . S
H317 C325 0.951 . S
H318 C326 0.951 1_556 S
C319 C313 1.265 . S
C319 H314 0.950 . S
C319 C320 1.478 . S
C320 C319 1.478 . S
C320 C321 1.397 1_556 S
C320 C337 1.394 . S
C321 C320 1.397 1_554 S
C321 C322 1.438 . S
C321 C326 1.429 . S
C322 C321 1.438 . S
C322 C323 1.428 . S
C322 C335 1.394 . S
C323 H315 0.949 . S
C323 C322 1.428 . S
C323 C324 1.345 . S
C324 H316 0.950 . S
C324 C323 1.345 . S
C324 C325 1.424 . S
C325 H317 0.951 . S
C325 C324 1.424 . S
C325 C326 1.347 . S
C326 H318 0.951 1_554 S
C326 C321 1.429 . S
C326 C325 1.347 . S
H327 C328 0.951 . S
C328 H327 0.951 . S
C328 C334 1.265 . S
H329 C334 0.950 . S
H330 C338 0.949 . S
H331 C339 0.950 . S
H332 C340 0.951 . S
H333 C341 0.951 1_554 S
C334 C328 1.265 . S
C334 H329 0.950 . S
C334 C335 1.478 . S
C335 C322 1.394 . S
C335 C334 1.478 . S
C335 C336 1.397 1_554 S
C336 C335 1.397 1_556 S
C336 C337 1.438 . S
C336 C341 1.429 . S
C337 C320 1.394 . S
C337 C336 1.438 . S
C337 C338 1.428 . S
C338 H330 0.949 . S
C338 C337 1.428 . S
C338 C339 1.345 . S
C339 H331 0.950 . S
C339 C338 1.345 . S
C339 C340 1.424 . S
C340 H332 0.951 . S
C340 C339 1.424 . S
C340 C341 1.347 . S
C341 H333 0.951 1_556 S
C341 C336 1.429 . S
C341 C340 1.347 . S
H342 C343 0.951 . S
C343 H342 0.951 . S
C343 C349 1.265 . S
H344 C349 0.950 . S
H345 C353 0.949 1_455 S
H346 C354 0.950 . S
H347 C355 0.951 . S
H348 C356 0.951 . S
C349 C343 1.265 . S
C349 H344 0.950 . S
C349 C350 1.478 . S
C350 C349 1.478 . S
C350 C351 1.397 . S
C350 C367 1.394 1_655 S
C351 C350 1.397 . S
C351 C352 1.438 . S
C351 C356 1.429 . S
C352 C351 1.438 . S
C352 C353 1.428 . S
C352 C365 1.394 1_655 S
C353 H345 0.949 1_655 S
C353 C352 1.428 . S
C353 C354 1.345 . S
C354 H346 0.950 . S
C354 C353 1.345 . S
C354 C355 1.424 . S
C355 H347 0.951 . S
C355 C354 1.424 . S
C355 C356 1.347 . S
C356 H348 0.951 . S
C356 C351 1.429 . S
C356 C355 1.347 . S
H357 C358 0.951 . S
C358 H357 0.951 . S
C358 C364 1.265 . S
H359 C364 0.950 . S
H360 C368 0.949 1_655 S
H361 C369 0.950 . S
H362 C370 0.951 . S
H363 C371 0.951 . S
C364 C358 1.265 . S
C364 H359 0.950 . S
C364 C365 1.478 . S
C365 C352 1.394 1_455 S
C365 C364 1.478 . S
C365 C366 1.397 . S
C366 C365 1.397 . S
C366 C367 1.438 . S
C366 C371 1.429 . S
C367 C350 1.394 1_455 S
C367 C366 1.438 . S
C367 C368 1.428 . S
C368 H360 0.949 1_455 S
C368 C367 1.428 . S
C368 C369 1.345 . S
C369 H361 0.950 . S
C369 C368 1.345 . S
C369 C370 1.424 . S
C370 H362 0.951 . S
C370 C369 1.424 . S
C370 C371 1.347 . S
C371 H363 0.951 . S
C371 C366 1.429 . S
C371 C370 1.347 . S
H372 C373 0.951 . S
C373 H372 0.951 . S
C373 C379 1.265 . S
H374 C379 0.950 . S
H375 C383 0.949 1_554 S
H376 C384 0.950 . S
H377 C385 0.951 . S
H378 C386 0.951 . S
C379 C373 1.265 . S
C379 H374 0.950 . S
C379 C380 1.478 . S
C380 C379 1.478 . S
C380 C381 1.397 1_545 S
C380 C397 1.394 1_556 S
C381 C380 1.397 1_565 S
C381 C382 1.438 . S
C381 C386 1.429 . S
C382 C381 1.438 . S
C382 C383 1.428 . S
C382 C395 1.394 1_556 S
C383 H375 0.949 1_556 S
C383 C382 1.428 . S
C383 C384 1.345 . S
C384 H376 0.950 . S
C384 C383 1.345 . S
C384 C385 1.424 . S
C385 H377 0.951 . S
C385 C384 1.424 . S
C385 C386 1.347 . S
C386 H378 0.951 . S
C386 C381 1.429 . S
C386 C385 1.347 . S
H387 C388 0.951 . S
C388 H387 0.951 . S
C388 C394 1.265 . S
H389 C394 0.950 . S
H390 C398 0.949 . S
H391 C399 0.950 . S
H392 C400 0.951 . S
H393 C401 0.951 . S
C394 C388 1.265 . S
C394 H389 0.950 . S
C394 C395 1.478 . S
C395 C382 1.394 1_554 S
C395 C394 1.478 . S
C395 C396 1.397 1_565 S
C396 C395 1.397 1_545 S
C396 C397 1.438 . S
C396 C401 1.429 . S
C397 C380 1.394 1_554 S
C397 C396 1.438 . S
C397 C398 1.428 . S
C398 H390 0.949 . S
C398 C397 1.428 . S
C398 C399 1.345 . S
C399 H391 0.950 . S
C399 C398 1.345 . S
C399 C400 1.424 . S
C400 H392 0.951 . S
C400 C399 1.424 . S
C400 C401 1.347 . S
C401 H393 0.951 . S
C401 C396 1.429 . S
C401 C400 1.347 . S
H402 C403 0.951 . S
C403 H402 0.951 . S
C403 C409 1.265 . S
H404 C409 0.950 . S
H405 C413 0.949 . S
H406 C414 0.950 . S
H407 C415 0.951 . S
H408 C416 0.951 . S
C409 C403 1.265 . S
C409 H404 0.950 . S
C409 C410 1.478 . S
C410 C409 1.478 . S
C410 C411 1.397 . S
C410 C427 1.394 . S
C411 C410 1.397 . S
C411 C412 1.438 . S
C411 C416 1.429 . S
C412 C411 1.438 . S
C412 C413 1.428 . S
C412 C425 1.394 . S
C413 H405 0.949 . S
C413 C412 1.428 . S
C413 C414 1.345 . S
C414 H406 0.950 . S
C414 C413 1.345 . S
C414 C415 1.424 . S
C415 H407 0.951 . S
C415 C414 1.424 . S
C415 C416 1.347 . S
C416 H408 0.951 . S
C416 C411 1.429 . S
C416 C415 1.347 . S
H417 C418 0.951 . S
C418 H417 0.951 . S
C418 C424 1.265 . S
H419 C424 0.950 . S
H420 C428 0.949 . S
H421 C429 0.950 . S
H422 C430 0.951 . S
H423 C431 0.951 . S
C424 C418 1.265 . S
C424 H419 0.950 . S
C424 C425 1.478 . S
C425 C412 1.394 . S
C425 C424 1.478 . S
C425 C426 1.397 . S
C426 C425 1.397 . S
C426 C427 1.438 . S
C426 C431 1.429 . S
C427 C410 1.394 . S
C427 C426 1.438 . S
C427 C428 1.428 . S
C428 H420 0.949 . S
C428 C427 1.428 . S
C428 C429 1.345 . S
C429 H421 0.950 . S
C429 C428 1.345 . S
C429 C430 1.424 . S
C430 H422 0.951 . S
C430 C429 1.424 . S
C430 C431 1.347 . S
C431 H423 0.951 . S
C431 C426 1.429 . S
C431 C430 1.347 . S
H432 C433 0.951 . S
C433 H432 0.951 . S
C433 C439 1.265 . S
H434 C439 0.950 . S
H435 C443 0.949 . S
H436 C444 0.950 . S
H437 C445 0.951 . S
H438 C446 0.945 1_556 S
C439 C433 1.265 . S
C439 H434 0.950 . S
C439 C440 1.478 . S
C440 C439 1.478 . S
C440 C441 1.398 1_556 S
C440 C457 1.394 . S
C441 C440 1.398 1_554 S
C441 C442 1.437 1_655 S
C441 C446 1.429 . S
C442 C441 1.437 1_455 S
C442 C443 1.428 . S
C442 C455 1.394 . S
C443 H435 0.949 . S
C443 C442 1.428 . S
C443 C444 1.345 . S
C444 H436 0.950 . S
C444 C443 1.345 . S
C444 C445 1.424 1_455 S
C445 H437 0.951 . S
C445 C444 1.424 1_655 S
C445 C446 1.353 . S
C446 H438 0.945 1_554 S
C446 C441 1.429 . S
C446 C445 1.353 . S
H447 C448 0.951 . S
C448 H447 0.951 . S
C448 C454 1.265 . S
H449 C454 0.950 . S
H450 C458 0.949 . S
H451 C459 0.929 1_655 S
H452 C460 0.951 . S
H453 C461 0.945 1_554 S
C454 C448 1.265 . S
C454 H449 0.950 . S
C454 C455 1.478 . S
C455 C442 1.394 . S
C455 C454 1.478 . S
C455 C456 1.398 1_554 S
C456 C455 1.398 1_556 S
C456 C457 1.437 1_455 S
C456 C461 1.429 . S
C457 C440 1.394 . S
C457 C456 1.437 1_655 S
C457 C458 1.428 . S
C458 H450 0.949 . S
C458 C457 1.428 . S
C458 C459 1.342 1_655 S
C459 H451 0.929 1_455 S
C459 C458 1.342 1_455 S
C459 C460 1.448 . S
C460 H452 0.951 . S
C460 C459 1.448 . S
C460 C461 1.353 . S
C461 H453 0.945 1_556 S
C461 C456 1.429 . S
C461 C460 1.353 . S
H462 C463 0.951 . S
C463 H462 0.951 . S
C463 C469 1.265 . S
H464 C469 0.950 . S
H465 C473 0.949 . S
H466 C474 0.950 . S
H467 C475 0.951 . S
H468 C476 0.960 . S
C469 C463 1.265 . S
C469 H464 0.950 . S
C469 C470 1.478 . S
C470 C469 1.478 . S
C470 C471 1.397 . S
C470 C487 1.394 . S
C471 C470 1.397 . S
C471 C472 1.438 1_545 S
C471 C476 1.435 . S
C472 C471 1.438 1_565 S
C472 C473 1.428 . S
C472 C485 1.394 . S
C473 H465 0.949 . S
C473 C472 1.428 . S
C473 C474 1.345 . S
C474 H466 0.950 . S
C474 C473 1.345 . S
C474 C475 1.424 . S
C475 H467 0.951 . S
C475 C474 1.424 . S
C475 C476 1.333 1_565 S
C476 H468 0.960 . S
C476 C471 1.435 . S
C476 C475 1.333 1_545 S
H477 C478 0.951 . S
C478 H477 0.951 . S
C478 C484 1.265 . S
H479 C484 0.950 . S
H480 C488 0.949 . S
H481 C489 0.950 . S
H482 C490 0.951 . S
H483 C491 0.956 . S
C484 C478 1.265 . S
C484 H479 0.950 . S
C484 C485 1.478 . S
C485 C472 1.394 . S
C485 C484 1.478 . S
C485 C486 1.428 . S
C486 C485 1.428 . S
C486 C487 1.419 1_565 S
C486 C491 1.419 . S
C487 C470 1.394 . S
C487 C486 1.419 1_545 S
C487 C488 1.428 . S
C488 H480 0.949 . S
C488 C487 1.428 . S
C488 C489 1.345 . S
C489 H481 0.950 . S
C489 C488 1.345 . S
C489 C490 1.424 . S
C490 H482 0.951 . S
C490 C489 1.424 . S
C490 C491 1.339 1_545 S
C491 H483 0.956 . S
C491 C486 1.419 . S
C491 C490 1.339 1_565 S
H492 C493 0.951 . S
C493 H492 0.951 . S
C493 C499 1.265 . S
H494 C499 0.950 . S
H495 C503 0.949 1_556 S
H496 C504 0.950 . S
H497 C505 0.951 . S
H498 C506 0.951 . S
C499 C493 1.265 . S
C499 H494 0.950 . S
C499 C500 1.478 . S
C500 C499 1.478 . S
C500 C501 1.397 . S
C500 C517 1.394 1_554 S
C501 C500 1.397 . S
C501 C502 1.438 . S
C501 C506 1.429 . S
C502 C501 1.438 . S
C502 C503 1.428 . S
C502 C515 1.394 1_554 S
C503 H495 0.949 1_554 S
C503 C502 1.428 . S
C503 C504 1.345 . S
C504 H496 0.950 . S
C504 C503 1.345 . S
C504 C505 1.424 . S
C505 H497 0.951 . S
C505 C504 1.424 . S
C505 C506 1.347 . S
C506 H498 0.951 . S
C506 C501 1.429 . S
C506 C505 1.347 . S
H507 C508 0.951 . S
C508 H507 0.951 . S
C508 C514 1.265 . S
H509 C514 0.950 . S
H510 C518 0.949 1_554 S
H511 C519 0.950 . S
H512 C520 0.951 . S
H513 C521 0.951 . S
C514 C508 1.265 . S
C514 H509 0.950 . S
C514 C515 1.478 . S
C515 C502 1.394 1_556 S
C515 C514 1.478 . S
C515 C516 1.397 . S
C516 C515 1.397 . S
C516 C517 1.438 . S
C516 C521 1.429 . S
C517 C500 1.394 1_556 S
C517 C516 1.438 . S
C517 C518 1.428 . S
C518 H510 0.949 1_556 S
C518 C517 1.428 . S
C518 C519 1.345 . S
C519 H511 0.950 . S
C519 C518 1.345 . S
C519 C520 1.424 . S
C520 H512 0.951 . S
C520 C519 1.424 . S
C520 C521 1.347 . S
C521 H513 0.951 . S
C521 C516 1.429 . S
C521 C520 1.347 . S
H522 C523 0.951 . S
C523 H522 0.951 . S
C523 C529 1.265 . S
H524 C529 0.950 . S
H525 C533 0.949 . S
H526 C534 0.950 . S
H527 C535 0.951 . S
H528 C536 0.951 1_655 S
C529 C523 1.265 . S
C529 H524 0.950 . S
C529 C530 1.478 . S
C530 C529 1.478 . S
C530 C531 1.397 1_655 S
C530 C547 1.394 . S
C531 C530 1.397 1_455 S
C531 C532 1.438 . S
C531 C536 1.429 . S
C532 C531 1.438 . S
C532 C533 1.428 . S
C532 C545 1.394 . S
C533 H525 0.949 . S
C533 C532 1.428 . S
C533 C534 1.345 . S
C534 H526 0.950 . S
C534 C533 1.345 . S
C534 C535 1.424 . S
C535 H527 0.951 . S
C535 C534 1.424 . S
C535 C536 1.347 . S
C536 H528 0.951 1_455 S
C536 C531 1.429 . S
C536 C535 1.347 . S
H537 C538 0.951 . S
C538 H537 0.951 . S
C538 C544 1.265 . S
H539 C544 0.950 . S
H540 C548 0.949 . S
H541 C549 0.950 . S
H542 C550 0.951 . S
H543 C551 0.931 1_455 S
C544 C538 1.265 . S
C544 H539 0.950 . S
C544 C545 1.478 . S
C545 C532 1.394 . S
C545 C544 1.478 . S
C545 C546 1.397 . S
C546 C545 1.397 . S
C546 C547 1.438 1_455 S
C546 C551 1.439 1_455 S
C547 C530 1.394 . S
C547 C546 1.438 1_655 S
C547 C548 1.428 . S
C548 H540 0.949 . S
C548 C547 1.428 . S
C548 C549 1.345 . S
C549 H541 0.950 . S
C549 C548 1.345 . S
C549 C550 1.424 . S
C550 H542 0.951 . S
C550 C549 1.424 . S
C550 C551 1.357 . S
C551 H543 0.931 1_655 S
C551 C546 1.439 1_655 S
C551 C550 1.357 . S
H552 C553 0.951 . S
C553 H552 0.951 . S
C553 C559 1.265 . S
H554 C559 0.950 . S
H555 C563 0.949 1_556 S
H556 C564 0.950 . S
H557 C565 0.951 . S
H558 C566 0.951 1_565 S
C559 C553 1.265 . S
C559 H554 0.950 . S
C559 C560 1.478 . S
C560 C559 1.478 . S
C560 C561 1.397 1_565 S
C560 C577 1.394 1_554 S
C561 C560 1.397 1_545 S
C561 C562 1.438 . S
C561 C566 1.429 . S
C562 C561 1.438 . S
C562 C563 1.428 . S
C562 C575 1.394 1_554 S
C563 H555 0.949 1_554 S
C563 C562 1.428 . S
C563 C564 1.345 . S
C564 H556 0.950 . S
C564 C563 1.345 . S
C564 C565 1.424 . S
C565 H557 0.951 . S
C565 C564 1.424 . S
C565 C566 1.347 . S
C566 H558 0.951 1_545 S
C566 C561 1.429 . S
C566 C565 1.347 . S
H567 C568 0.951 . S
C568 H567 0.951 . S
C568 C574 1.265 . S
H569 C574 0.950 . S
H570 C578 0.949 1_554 S
H571 C579 0.950 . S
H572 C580 0.951 . S
H573 C581 0.951 1_545 S
C574 C568 1.265 . S
C574 H569 0.950 . S
C574 C575 1.478 . S
C575 C562 1.394 1_556 S
C575 C574 1.478 . S
C575 C576 1.397 1_545 S
C576 C575 1.397 1_565 S
C576 C577 1.438 . S
C576 C581 1.429 . S
C577 C560 1.394 1_556 S
C577 C576 1.438 . S
C577 C578 1.428 . S
C578 H570 0.949 1_556 S
C578 C577 1.428 . S
C578 C579 1.345 . S
C579 H571 0.950 . S
C579 C578 1.345 . S
C579 C580 1.424 . S
C580 H572 0.951 . S
C580 C579 1.424 . S
C580 C581 1.347 . S
C581 H573 0.951 1_565 S
C581 C576 1.429 . S
C581 C580 1.347 . S
H582 C583 0.951 . S
C583 H582 0.951 . S
C583 C589 1.265 . S
H584 C589 0.950 . S
H585 C593 0.949 . S
H586 C594 0.950 . S
H587 C595 0.951 . S
H588 C596 0.951 . S
C589 C583 1.265 . S
C589 H584 0.950 . S
C589 C590 1.478 . S
C590 C589 1.478 . S
C590 C591 1.397 . S
C590 C607 1.394 . S
C591 C590 1.397 . S
C591 C592 1.438 . S
C591 C596 1.429 . S
C592 C591 1.438 . S
C592 C593 1.428 . S
C592 C605 1.394 . S
C593 H585 0.949 . S
C593 C592 1.428 . S
C593 C594 1.345 . S
C594 H586 0.950 . S
C594 C593 1.345 . S
C594 C595 1.424 . S
C595 H587 0.951 . S
C595 C594 1.424 . S
C595 C596 1.347 . S
C596 H588 0.951 . S
C596 C591 1.429 . S
C596 C595 1.347 . S
H597 C598 0.951 . S
C598 H597 0.951 . S
C598 C604 1.265 . S
H599 C604 0.950 . S
H600 C608 0.949 . S
H601 C609 0.950 . S
H602 C610 0.951 . S
H603 C611 0.951 . S
C604 C598 1.265 . S
C604 H599 0.950 . S
C604 C605 1.478 . S
C605 C592 1.394 . S
C605 C604 1.478 . S
C605 C606 1.397 . S
C606 C605 1.397 . S
C606 C607 1.438 . S
C606 C611 1.429 . S
C607 C590 1.394 . S
C607 C606 1.438 . S
C607 C608 1.428 . S
C608 H600 0.949 . S
C608 C607 1.428 . S
C608 C609 1.345 . S
C609 H601 0.950 . S
C609 C608 1.345 . S
C609 C610 1.424 . S
C610 H602 0.951 . S
C610 C609 1.424 . S
C610 C611 1.347 . S
C611 H603 0.951 . S
C611 C606 1.429 . S
C611 C610 1.347 . S
H612 C613 0.951 . S
C613 H612 0.951 . S
C613 C619 1.265 . S
H614 C619 0.950 . S
H615 C623 0.949 1_554 S
H616 C624 0.950 . S
H617 C625 0.951 . S
H618 C626 0.951 . S
C619 C613 1.265 . S
C619 H614 0.950 . S
C619 C620 1.478 . S
C620 C619 1.478 . S
C620 C621 1.397 1_655 S
C620 C637 1.394 1_556 S
C621 C620 1.397 1_455 S
C621 C622 1.438 . S
C621 C626 1.429 . S
C622 C621 1.438 . S
C622 C623 1.428 . S
C622 C635 1.394 1_556 S
C623 H615 0.949 1_556 S
C623 C622 1.428 . S
C623 C624 1.345 . S
C624 H616 0.950 . S
C624 C623 1.345 . S
C624 C625 1.424 . S
C625 H617 0.951 . S
C625 C624 1.424 . S
C625 C626 1.347 . S
C626 H618 0.951 . S
C626 C621 1.429 . S
C626 C625 1.347 . S
H627 C628 0.951 . S
C628 H627 0.951 . S
C628 C634 1.265 . S
H629 C634 0.950 . S
H630 C638 0.949 1_556 S
H631 C639 0.950 . S
H632 C640 0.951 . S
H633 C641 0.951 . S
C634 C628 1.265 . S
C634 H629 0.950 . S
C634 C635 1.478 . S
C635 C622 1.394 1_554 S
C635 C634 1.478 . S
C635 C636 1.397 1_455 S
C636 C635 1.397 1_655 S
C636 C637 1.438 . S
C636 C641 1.429 . S
C637 C620 1.394 1_554 S
C637 C636 1.438 . S
C637 C638 1.428 . S
C638 H630 0.949 1_554 S
C638 C637 1.428 . S
C638 C639 1.345 . S
C639 H631 0.950 . S
C639 C638 1.345 . S
C639 C640 1.424 . S
C640 H632 0.951 . S
C640 C639 1.424 . S
C640 C641 1.347 . S
C641 H633 0.951 . S
C641 C636 1.429 . S
C641 C640 1.347 . S
H642 C643 0.951 . S
C643 H642 0.951 . S
C643 C649 1.265 . S
H644 C649 0.950 . S
H645 C653 0.949 1_545 S
H646 C654 0.950 . S
H647 C655 0.951 . S
H648 C656 0.951 . S
C649 C643 1.265 . S
C649 H644 0.950 . S
C649 C650 1.478 . S
C650 C649 1.478 . S
C650 C651 1.397 . S
C650 C667 1.387 1_565 S
C651 C650 1.397 . S
C651 C652 1.453 . S
C651 C656 1.429 . S
C652 C651 1.453 . S
C652 C653 1.423 . S
C652 C665 1.386 1_565 S
C653 H645 0.949 1_565 S
C653 C652 1.423 . S
C653 C654 1.345 . S
C654 H646 0.950 . S
C654 C653 1.345 . S
C654 C655 1.424 . S
C655 H647 0.951 . S
C655 C654 1.424 . S
C655 C656 1.347 . S
C656 H648 0.951 . S
C656 C651 1.429 . S
C656 C655 1.347 . S
H657 C658 0.951 . S
C658 H657 0.951 . S
C658 C664 1.265 . S
H659 C664 0.950 . S
H660 C668 0.949 1_565 S
H661 C669 0.950 . S
H662 C670 0.951 . S
H663 C671 0.951 . S
C664 C658 1.265 . S
C664 H659 0.950 . S
C664 C665 1.478 . S
C665 C652 1.386 1_545 S
C665 C664 1.478 . S
C665 C666 1.397 . S
C666 C665 1.397 . S
C666 C667 1.450 . S
C666 C671 1.429 . S
C667 C650 1.387 1_545 S
C667 C666 1.450 . S
C667 C668 1.424 . S
C668 H660 0.949 1_545 S
C668 C667 1.424 . S
C668 C669 1.345 . S
C669 H661 0.950 . S
C669 C668 1.345 . S
C669 C670 1.424 . S
C670 H662 0.951 . S
C670 C669 1.424 . S
C670 C671 1.347 . S
C671 H663 0.951 . S
C671 C666 1.429 . S
C671 C670 1.347 . S
C133 C15 1.410 . S
C148 C103 1.480 . S
C163 C40 1.406 . S
C178 C117 1.443 . S
C193 C10 1.370 . S
C208 C54 1.412 . S
C223 C81 1.459 . S
C238 C29 1.437 . S
C253 C59 1.384 . S
C268 C98 1.438 . S
C283 C76 1.370 . S
C298 C128 1.412 . S
C313 C120 1.477 . S
C328 C8 1.476 . S
C343 C43 1.556 . S
C358 C7 1.530 . S
C373 C32 1.507 . S
C388 C51 1.514 . S
C403 C52 1.479 . S
C418 C74 1.470 . S
C433 C73 1.557 . S
C448 C95 1.559 . S
C463 C131 1.502 . S
C478 C96 1.519 . S
C493 C62 1.469 . S
C508 C84 1.469 . S
C523 C87 1.559 . S
C538 C109 1.543 . S
C553 C106 1.515 . S
C568 C125 1.501 . S
C583 C118 1.468 . S
C598 C18 1.468 . S
C613 C37 1.541 . S
C628 C21 1.525 . S
C643 C65 1.490 . S
C658 C30 1.510 . S
