# Generated by pormake.
# Topology dmp, (4)-cn, num edge types: 1
# Building blocks:
#     Node 0, Type 0, BuildingBlock: ICAMEG_clean_sbu_1, # of connection points: 4
#     Node 1, Type 0, BuildingBlock: ICAMEG_clean_sbu_1, # of connection points: 4
#     Node 2, Type 0, BuildingBlock: ICAMEG_clean_sbu_1, # of connection points: 4
#     Node 3, Type 0, BuildingBlock: ICAMEG_clean_sbu_1, # of connection points: 4
#     Edge 4, Type (0, 0), BuildingBlock: XUDNAN_clean_linker_2, # of connection points: 2
#     Edge 5, Type (0, 0), BuildingBlock: XUDNAN_clean_linker_2, # of connection points: 2
#     Edge 6, Type (0, 0), BuildingBlock: XUDNAN_clean_linker_2, # of connection points: 2
#     Edge 7, Type (0, 0), BuildingBlock: XUDNAN_clean_linker_2, # of connection points: 2
#     Edge 8, Type (0, 0), BuildingBlock: XUDNAN_clean_linker_2, # of connection points: 2
#     Edge 9, Type (0, 0), BuildingBlock: XUDNAN_clean_linker_2, # of connection points: 2
#     Edge 10, Type (0, 0), BuildingBlock: XUDNAN_clean_linker_2, # of connection points: 2
#     Edge 11, Type (0, 0), BuildingBlock: XUDNAN_clean_linker_2, # of connection points: 2
# Relax obj value: 0.008
# Max RMSD: 0.070
# Mean RMSD: 0.070
data_MOF--net-dmp--node1-ICAMEG_clean_sbu_1--edge1-XUDNAN_clean_linker_2
_symmetry_space_group_name_H-M    P1
_symmetry_Int_Tables_number       1
_symmetry_cell_setting            triclinic
loop_
_symmetry_equiv_pos_as_xyz
'x, y, z'
_cell_length_a     43.036702
_cell_length_b     19.063318
_cell_length_c     18.015202
_cell_angle_alpha  90.01857
_cell_angle_beta   90.182264
_cell_angle_gamma 89.978707
loop_
_atom_site_label
_atom_site_type_symbol
_atom_site_fract_x
_atom_site_fract_y
_atom_site_fract_z
_atom_type_partial_charge
Co0 Co 0.12468 0.28242 0.16577 0.0
Co1 Co 0.12703 0.229 0.34868 0.0
O2 O 0.10449 0.25337 0.25777 0.0
C3 C 0.08398 0.16501 0.11774 0.0
O4 O 0.09424 0.1293 0.17511 0.0
C5 C 0.08286 0.33883 0.39737 0.0
O6 O 0.09187 0.37556 0.33969 0.0
O7 O 0.15186 0.3171 0.34422 0.0
O8 O 0.15623 0.33806 0.22208 0.0
H9 H 0.2218 0.19725 0.50883 0.0
H10 H 0.05685 0.30327 0.18319 0.0
O11 O 0.0936 0.22729 0.10637 0.0
H12 H 0.10012 0.53998 0.14501 0.0
H13 H 0.12642 0.36528 0.90043 0.0
H14 H 0.19008 0.29589 0.11634 0.0
H15 H 0.1343 0.43611 0.14413 0.0
H16 H 0.10155 0.32929 0.01759 0.0
O17 O 0.09453 0.27837 0.40933 0.0
H18 H 0.19332 0.22796 0.39438 0.0
H19 H 0.10755 0.17924 0.49835 0.0
H20 H 0.2159 0.33237 1.00064 0.0
H21 H 0.02178 0.4057 0.18398 0.0
H22 H 0.184 0.36732 0.89157 0.0
H23 H 0.04342 0.5251 0.16504 0.0
O24 O 0.15285 0.19962 0.16873 0.0
H25 H 0.02916 0.08569 0.33735 0.0
H26 H 0.14294 0.07797 0.37001 0.0
H27 H 0.11298 0.96771 0.37174 0.0
H28 H 0.05566 0.97116 0.35537 0.0
H29 H 0.06006 0.19467 0.33546 0.0
H30 H 0.13509 0.14882 0.61429 0.0
H31 H 0.19264 0.15741 0.61988 0.0
O32 O 0.16005 0.17948 0.29047 0.0
C33 C 0.16365 0.35007 0.2895 0.0
C34 C 0.19673 0.19312 0.50704 0.0
C35 C 0.14805 0.16601 0.56624 0.0
N36 N 0.14883 0.20487 0.43953 0.0
C37 C 0.18047 0.21023 0.44231 0.0
C38 C 0.13258 0.18348 0.50052 0.0
C39 C 0.18035 0.17082 0.56933 0.0
C40 C 0.06637 0.35501 0.17412 0.0
N41 N 0.09754 0.36366 0.16323 0.0
C42 C 0.04643 0.41283 0.17495 0.0
C43 C 0.05859 0.47982 0.16444 0.0
C44 C 0.09041 0.48821 0.15325 0.0
C45 C 0.10966 0.4292 0.15295 0.0
C46 C 0.14057 0.35026 0.94759 0.0
C47 C 0.17604 0.31146 0.06929 0.0
C48 C 0.12662 0.32966 0.014 0.0
N49 N 0.14435 0.311 0.0739 0.0
C50 C 0.19079 0.33186 0.00384 0.0
C51 C 0.17288 0.35142 0.94267 0.0
C52 C 0.16685 0.16922 0.22238 0.0
C53 C 0.05411 0.08353 0.34479 0.0
C54 C 0.11801 0.0799 0.36274 0.0
C55 C 0.10116 0.0173 0.36391 0.0
C56 C 0.069 0.01928 0.35477 0.0
N57 N 0.10323 0.14272 0.35299 0.0
C58 C 0.07171 0.14509 0.34408 0.0
Co59 Co 0.38808 0.77935 0.32777 0.0
Co60 Co 0.38088 0.73053 0.14383 0.0
O61 O 0.40525 0.74976 0.23275 0.0
C62 C 0.42118 0.64859 0.36266 0.0
O63 O 0.40545 0.62155 0.30711 0.0
C64 C 0.4257 0.83933 0.09778 0.0
O65 O 0.41779 0.87331 0.15823 0.0
O66 O 0.35728 0.81942 0.15525 0.0
O67 O 0.35803 0.84469 0.2773 0.0
H68 H 0.28289 0.71089 0.99291 0.0
H69 H 0.45622 0.78415 0.30398 0.0
O70 O 0.41763 0.7131 0.37962 0.0
H71 H 0.42524 0.02829 0.35599 0.0
H72 H 0.39586 0.84839 0.59683 0.0
H73 H 0.32481 0.80692 0.38605 0.0
H74 H 0.38634 0.93325 0.35679 0.0
H75 H 0.41632 0.8122 0.47484 0.0
O76 O 0.41291 0.78069 0.08251 0.0
H77 H 0.31383 0.73489 0.10555 0.0
H78 H 0.39699 0.6867 0.98984 0.0
H79 H 0.30339 0.84382 0.50672 0.0
H80 H 0.4959 0.8775 0.30303 0.0
H81 H 0.33903 0.86476 0.61321 0.0
H82 H 0.48046 1.00064 0.32884 0.0
O83 O 0.3558 0.70449 0.32459 0.0
H84 H 0.47703 0.58102 0.13761 0.0
H85 H 0.36274 0.58174 0.11676 0.0
H86 H 0.39123 0.46993 0.10604 0.0
H87 H 0.4488 0.46914 0.11635 0.0
H88 H 0.44759 0.69159 0.14859 0.0
H89 H 0.36697 0.66298 0.87563 0.0
H90 H 0.30949 0.67471 0.87684 0.0
O91 O 0.34853 0.68063 0.20348 0.0
C92 C 0.34855 0.85571 0.21095 0.0
C93 C 0.30792 0.7054 0.99173 0.0
C94 C 0.35512 0.6786 0.92589 0.0
N95 N 0.35714 0.71161 0.0544 0.0
C96 C 0.32555 0.7187 0.0554 0.0
C97 C 0.37199 0.69226 0.99065 0.0
C98 C 0.32286 0.68516 0.92661 0.0
C99 C 0.44939 0.83749 0.31611 0.0
N100 N 0.41904 0.8532 0.33082 0.0
C101 C 0.47193 0.89017 0.31516 0.0
C102 C 0.46324 0.95927 0.32954 0.0
C103 C 0.43226 0.97483 0.34472 0.0
C104 C 0.41033 0.92082 0.345 0.0
C105 C 0.38011 0.8396 0.55081 0.0
C106 C 0.34049 0.81649 0.43195 0.0
C107 C 0.39155 0.81899 0.48168 0.0
N108 N 0.3718 0.80819 0.42325 0.0
C109 C 0.32821 0.83712 0.50023 0.0
C110 C 0.34822 0.84879 0.55996 0.0
C111 C 0.3415 0.67331 0.27189 0.0
C112 C 0.45195 0.58072 0.13277 0.0
C113 C 0.38779 0.58181 0.12143 0.0
C114 C 0.4038 0.51835 0.11519 0.0
C115 C 0.4361 0.51795 0.12095 0.0
N116 N 0.40352 0.64317 0.13281 0.0
C117 C 0.43518 0.6432 0.13863 0.0
Co118 Co 0.88845 0.76632 0.85156 0.0
Co119 Co 0.88672 0.73356 0.66257 0.0
O120 O 0.90867 0.74812 0.75651 0.0
C121 C 0.93056 0.88816 0.83538 0.0
O122 O 0.91929 0.89604 0.76808 0.0
C123 C 0.92558 0.60546 0.67656 0.0
O124 O 0.91483 0.59826 0.74427 0.0
O125 O 0.85756 0.66444 0.70872 0.0
O126 O 0.85589 0.69511 0.82919 0.0
H127 H 0.79266 0.70985 0.49854 0.0
H128 H 0.95574 0.73361 0.84649 0.0
O129 O 0.92084 0.8384 0.87633 0.0
H130 H 0.9094 0.54906 0.00265 0.0
H131 H 0.88697 0.81595 0.12609 0.0
H132 H 0.82313 0.78139 0.90125 0.0
H133 H 0.8768 0.64311 0.94975 0.0
H134 H 0.91169 0.79118 0.00554 0.0
O135 O 0.9164 0.65631 0.63626 0.0
H136 H 0.82053 0.72985 0.61647 0.0
H137 H 0.90719 0.70452 0.50743 0.0
H138 H 0.79746 0.80569 0.0207 0.0
H139 H 0.98929 0.64092 0.89882 0.0
H140 H 0.82945 0.82312 0.13425 0.0
H141 H 0.96611 0.54766 0.97736 0.0
O142 O 0.86129 0.84035 0.80695 0.0
H143 H 0.99098 0.8414 0.61098 0.0
H144 H 0.87836 0.85727 0.56302 0.0
H145 H 0.91346 0.94531 0.50832 0.0
H146 H 0.97025 0.93759 0.53211 0.0
H147 H 0.95496 0.75499 0.66523 0.0
H148 H 0.88025 0.68391 0.38836 0.0
H149 H 0.82257 0.68673 0.38337 0.0
O150 O 0.85704 0.81074 0.68638 0.0
C151 C 0.84637 0.65888 0.77408 0.0
C152 C 0.8178 0.70874 0.49994 0.0
C153 C 0.86696 0.69405 0.43814 0.0
N154 N 0.86545 0.7188 0.56876 0.0
C155 C 0.83372 0.7202 0.56652 0.0
C156 C 0.88209 0.7056 0.50575 0.0
C157 C 0.8346 0.69567 0.43537 0.0
C158 C 0.94553 0.6935 0.88108 0.0
N159 N 0.91435 0.69384 0.89519 0.0
C160 C 0.96462 0.64103 0.91035 0.0
C161 C 0.95159 0.58867 0.95433 0.0
C162 C 0.91978 0.58939 0.96849 0.0
C163 C 0.9014 0.64264 0.93819 0.0
C164 C 0.87278 0.80835 0.07704 0.0
C165 C 0.83721 0.78857 0.95046 0.0
C166 C 0.88665 0.79447 0.00859 0.0
N167 N 0.86886 0.78449 0.94648 0.0
C168 C 0.82254 0.80247 0.01792 0.0
C169 C 0.84051 0.81233 0.08158 0.0
C170 C 0.84969 0.84851 0.74217 0.0
C171 C 0.96628 0.84532 0.60018 0.0
C172 C 0.90298 0.85394 0.5741 0.0
C173 C 0.92277 0.90373 0.54271 0.0
C174 C 0.95463 0.89932 0.55601 0.0
N175 N 0.91456 0.80117 0.61741 0.0
C176 C 0.94578 0.79643 0.63058 0.0
Co177 Co 0.62535 0.27119 0.6688 0.0
Co178 Co 0.62715 0.23294 0.85554 0.0
O179 O 0.60509 0.24817 0.76233 0.0
C180 C 0.58841 0.39782 0.62473 0.0
O181 O 0.61417 0.43466 0.62239 0.0
C182 C 0.58905 0.10453 0.83894 0.0
O183 O 0.60071 0.09807 0.77202 0.0
O184 O 0.65611 0.16506 0.80747 0.0
O185 O 0.66113 0.20782 0.69183 0.0
H186 H 0.72166 0.20706 0.01769 0.0
H187 H 0.56004 0.22096 0.67043 0.0
O188 O 0.58909 0.33366 0.6448 0.0
H189 H 0.61679 0.05132 0.51485 0.0
H190 H 0.62719 0.32044 0.39398 0.0
H191 H 0.68982 0.30399 0.62299 0.0
H192 H 0.64393 0.15263 0.57009 0.0
H193 H 0.60265 0.28893 0.51295 0.0
O194 O 0.59761 0.15508 0.88047 0.0
H195 H 0.69347 0.22892 0.90058 0.0
H196 H 0.60712 0.2012 0.01032 0.0
H197 H 0.7153 0.3357 0.50532 0.0
H198 H 0.53192 0.12083 0.6156 0.0
H199 H 0.68392 0.34408 0.38967 0.0
H200 H 0.56034 0.035 0.53735 0.0
O201 O 0.64835 0.35039 0.71653 0.0
H202 H 0.52286 0.33812 0.91299 0.0
H203 H 0.63575 0.3556 0.95644 0.0
H204 H 0.60066 0.44156 0.0149 0.0
H205 H 0.54374 0.43293 0.99352 0.0
H206 H 0.55886 0.25378 0.85496 0.0
H207 H 0.6344 0.17874 0.1286 0.0
H208 H 0.69208 0.18181 0.13282 0.0
O209 O 0.65674 0.31063 0.83247 0.0
C210 C 0.66949 0.16686 0.74432 0.0
C211 C 0.69652 0.20585 0.01664 0.0
C212 C 0.64754 0.18983 0.07885 0.0
N213 N 0.64869 0.21685 0.94874 0.0
C214 C 0.68042 0.21837 0.95053 0.0
C215 C 0.63223 0.20245 0.01169 0.0
C216 C 0.67991 0.19159 0.08118 0.0
C217 C 0.57253 0.18431 0.63578 0.0
N218 N 0.60359 0.19296 0.62314 0.0
C219 C 0.55649 0.12751 0.60516 0.0
C220 C 0.57247 0.0793 0.56138 0.0
C221 C 0.60414 0.0884 0.54879 0.0
C222 C 0.61942 0.14578 0.5804 0.0
C223 C 0.64111 0.31702 0.44399 0.0
C224 C 0.676 0.30758 0.57295 0.0
C225 C 0.62733 0.29931 0.51153 0.0
N226 N 0.64477 0.29487 0.57493 0.0
C227 C 0.69056 0.32552 0.50645 0.0
C228 C 0.67294 0.33025 0.44161 0.0
C229 C 0.66181 0.35392 0.77976 0.0
C230 C 0.54761 0.34239 0.92278 0.0
C231 C 0.61106 0.35189 0.94637 0.0
C232 C 0.59128 0.40052 0.97987 0.0
C233 C 0.55934 0.39561 0.96791 0.0
N234 N 0.59938 0.29973 0.90237 0.0
C235 C 0.56811 0.2947 0.8902 0.0
H236 H 0.31287 0.92428 0.3151 0.0
H237 H 0.32823 0.90763 0.07749 0.0
H238 H 0.28382 0.98651 0.05484 0.0
H239 H 0.23092 0.91986 0.30639 0.0
H240 H 0.22498 0.9819 0.38053 0.0
H241 H 0.25953 0.92859 0.37914 0.0
H242 H 0.29382 0.04009 0.38463 0.0
H243 H 0.25936 0.09377 0.38693 0.0
H244 H 0.28831 0.10826 0.31649 0.0
H245 H 0.23617 0.06265 0.0573 0.0
H246 H 0.18993 0.13437 0.08514 0.0
H247 H 0.20486 0.09927 0.32096 0.0
C248 C 0.30731 0.93814 0.25832 0.0
C249 C 0.32425 0.90976 0.19814 0.0
C250 C 0.31576 0.92867 0.12466 0.0
C251 C 0.2905 0.97342 0.11112 0.0
C252 C 0.27385 0.99892 0.17155 0.0
C253 C 0.282 0.98239 0.24372 0.0
C254 C 0.25953 0.0148 0.29859 0.0
C255 C 0.24275 0.95788 0.34381 0.0
C256 C 0.27626 0.06736 0.34966 0.0
C257 C 0.23739 0.0517 0.2459 0.0
C258 C 0.24611 0.04204 0.1729 0.0
C259 C 0.22916 0.07079 0.11429 0.0
C260 C 0.20282 0.11127 0.13072 0.0
C261 C 0.19355 0.12256 0.20525 0.0
C262 C 0.21112 0.09172 0.26334 0.0
H263 H 0.1979 0.42198 0.18652 0.0
H264 H 0.18632 0.39571 0.4244 0.0
H265 H 0.23011 0.47715 0.44629 0.0
H266 H 0.28013 0.42339 0.18785 0.0
H267 H 0.28345 0.48773 0.11502 0.0
H268 H 0.25009 0.43085 0.11832 0.0
H269 H 0.21357 0.53891 0.11935 0.0
H270 H 0.24681 0.5962 0.11556 0.0
H271 H 0.21881 0.60576 0.18909 0.0
H272 H 0.27635 0.55961 0.44151 0.0
H273 H 0.32079 0.63609 0.41075 0.0
H274 H 0.30224 0.60452 0.17586 0.0
C275 C 0.20423 0.43367 0.2434 0.0
C276 C 0.18846 0.40247 0.30376 0.0
C277 C 0.19788 0.41909 0.37718 0.0
C278 C 0.22277 0.46524 0.39018 0.0
C279 C 0.23804 0.49416 0.32924 0.0
C280 C 0.22905 0.47903 0.25733 0.0
C281 C 0.24978 0.51502 0.20133 0.0
C282 C 0.26687 0.46102 0.15279 0.0
C283 C 0.23113 0.56707 0.15354 0.0
C284 C 0.27198 0.55272 0.25293 0.0
C285 C 0.2648 0.54034 0.32648 0.0
C286 C 0.28215 0.5697 0.38408 0.0
C287 C 0.3074 0.61302 0.36599 0.0
C288 C 0.31518 0.62638 0.29083 0.0
C289 C 0.29711 0.59544 0.23388 0.0
H290 H 0.70318 0.08879 0.84621 0.0
H291 H 0.69818 0.14208 0.61182 0.0
H292 H 0.74435 0.07002 0.58812 0.0
H293 H 0.78697 0.09346 0.85916 0.0
H294 H 0.78955 0.02045 0.92245 0.0
H295 H 0.75548 0.07546 0.9221 0.0
H296 H 0.72072 0.96647 0.90004 0.0
H297 H 0.75467 0.91117 0.90073 0.0
H298 H 0.72857 0.90966 0.82229 0.0
H299 H 0.78985 0.99105 0.58773 0.0
H300 H 0.83273 0.90885 0.61094 0.0
H301 H 0.81093 0.90895 0.84621 0.0
C302 C 0.71167 0.08493 0.78983 0.0
C303 C 0.69673 0.12088 0.73084 0.0
C304 C 0.70891 0.11494 0.65803 0.0
C305 C 0.73526 0.07421 0.64388 0.0
C306 C 0.74949 0.04003 0.7031 0.0
C307 C 0.73827 0.04485 0.77466 0.0
C308 C 0.75835 0.00286 0.82804 0.0
C309 C 0.77348 0.05094 0.88638 0.0
C310 C 0.73945 0.94404 0.86493 0.0
C311 C 0.78238 0.97335 0.77495 0.0
C312 C 0.77667 0.99559 0.70322 0.0
C313 C 0.79475 0.97364 0.64373 0.0
C314 C 0.81913 0.92687 0.65757 0.0
C315 C 0.8255 0.90277 0.73047 0.0
C316 C 0.80702 0.9272 0.79005 0.0
H317 H 0.80733 0.5957 0.67101 0.0
H318 H 0.82447 0.61493 0.9081 0.0
H319 H 0.77809 0.54443 0.9335 0.0
H320 H 0.72414 0.60943 0.68189 0.0
H321 H 0.71655 0.54591 0.60995 0.0
H322 H 0.75194 0.59642 0.6085 0.0
H323 H 0.78437 0.48201 0.60512 0.0
H324 H 0.74907 0.43122 0.60576 0.0
H325 H 0.77842 0.41627 0.67559 0.0
H326 H 0.73048 0.47289 0.9352 0.0
H327 H 0.68493 0.3984 0.91269 0.0
H328 H 0.69593 0.42686 0.6749 0.0
C329 C 0.80154 0.58431 0.72819 0.0
C330 C 0.81983 0.61079 0.78748 0.0
C331 C 0.8111 0.59532 0.86155 0.0
C332 C 0.78464 0.55541 0.87673 0.0
C333 C 0.76686 0.53138 0.81741 0.0
C334 C 0.77489 0.5447 0.74458 0.0
C335 C 0.75132 0.51252 0.69159 0.0
C336 C 0.73502 0.56949 0.64525 0.0
C337 C 0.76672 0.45722 0.64157 0.0
C338 C 0.72902 0.47887 0.74628 0.0
C339 C 0.73856 0.49072 0.81846 0.0
C340 C 0.72264 0.46341 0.87895 0.0
C341 C 0.69665 0.42125 0.86549 0.0
C342 C 0.68658 0.40685 0.79204 0.0
C343 C 0.70273 0.43741 0.73171 0.0
H344 H 0.05103 0.04189 0.13341 0.0
H345 H 0.06605 0.21602 0.98235 0.0
H346 H 0.02922 0.16343 0.8933 0.0
H347 H 0.04435 0.90679 0.99413 0.0
H348 H 0.01409 0.85993 0.04206 0.0
H349 H 0.04198 0.9107 0.09395 0.0
H350 H 0.99726 0.98055 0.15538 0.0
H351 H 0.96923 0.92991 0.10378 0.0
H352 H 0.969 0.02428 0.09756 0.0
H353 H 0.99111 0.09142 0.81957 0.0
H354 H 0.95287 0.0073 0.76894 0.0
H355 H 0.96166 0.88131 0.96875 0.0
C356 C 0.04665 0.06886 0.08152 0.0
C357 C 0.06157 0.13305 0.06489 0.0
C358 C 0.05494 0.16689 0.99654 0.0
C359 C 0.03408 0.13734 0.94541 0.0
C360 C 0.01982 0.07406 0.96341 0.0
C361 C 0.02567 0.04034 0.02994 0.0
C362 C 1.00677 0.97349 0.03616 0.0
C363 C 0.02808 0.90892 0.0419 0.0
C364 C 0.98423 0.97732 0.10213 0.0
C365 C 0.98948 0.9749 0.96271 0.0
C366 C 0.99744 0.03318 0.92143 0.0
C367 C 0.98463 0.04565 0.85148 0.0
C368 C 0.96294 0.9975 0.82313 0.0
C369 C 0.95414 0.93776 0.86482 0.0
C370 C 0.96777 0.92651 0.93546 0.0
H371 H 0.55752 0.10845 0.97112 0.0
H372 H 0.56611 0.98823 0.76742 0.0
H373 H 0.5256 0.9066 0.81178 0.0
H374 H 0.54517 0.96177 0.09398 0.0
H375 H 0.51741 0.00779 0.15074 0.0
H376 H 0.54748 0.05578 0.10345 0.0
H377 H 0.50579 0.13386 0.0403 0.0
H378 H 0.47561 0.08611 0.08736 0.0
H379 H 0.47499 0.09324 0.9876 0.0
H380 H 0.48389 0.83811 0.87872 0.0
H381 H 0.44383 0.78923 0.96188 0.0
H382 H 0.46218 0.95561 0.12077 0.0
C383 C 0.55105 0.06479 0.93585 0.0
C384 C 0.56516 0.05461 0.86581 0.0
C385 C 0.55576 0.99703 0.82134 0.0
C386 C 0.53275 0.95037 0.84607 0.0
C387 C 0.5193 0.96207 0.91531 0.0
C388 C 0.52809 0.01793 0.95951 0.0
C389 C 0.50971 0.01954 0.03112 0.0
C390 C 0.53123 0.01067 0.09881 0.0
C391 C 0.49038 0.0872 0.03689 0.0
C392 C 0.48914 0.95588 0.02032 0.0
C393 C 0.49509 0.9233 0.95331 0.0
C394 C 0.47904 0.86326 0.93129 0.0
C395 C 0.45632 0.83586 0.97896 0.0
C396 C 0.44974 0.86864 0.0478 0.0
C397 C 0.46649 0.92945 0.06843 0.0
H398 H 0.95653 0.61325 0.54379 0.0
H399 H 0.94752 0.48476 0.74154 0.0
H400 H 0.98631 0.4019 0.69108 0.0
H401 H 0.96535 0.4719 0.41304 0.0
H402 H 0.99348 0.51787 0.35733 0.0
H403 H 0.96474 0.56637 0.40865 0.0
H404 H 0.00834 0.63737 0.4737 0.0
H405 H 0.03721 0.58915 0.42254 0.0
H406 H 0.0388 0.59145 0.52251 0.0
H407 H 0.02595 0.33253 0.61819 0.0
H408 H 0.06439 0.28391 0.53071 0.0
H409 H 0.04812 0.45922 0.38169 0.0
C410 C 0.96258 0.56758 0.57654 0.0
C411 C 0.94881 0.55538 0.64662 0.0
C412 C 0.95765 0.49521 0.68772 0.0
C413 C 0.97966 0.4478 0.65946 0.0
C414 C 0.99272 0.46142 0.59018 0.0
C415 C 0.98458 0.52 0.54939 0.0
C416 C 1.00238 0.52323 0.47698 0.0
C417 C 0.98016 0.51961 0.41005 0.0
C418 C 0.0229 0.58921 0.47379 0.0
C419 C 0.02185 0.45726 0.48329 0.0
C420 C 0.01584 0.42218 0.54884 0.0
C421 C 0.03086 0.35965 0.56678 0.0
C422 C 0.05265 0.33239 0.51661 0.0
C423 C 0.0594 0.36776 0.44932 0.0
C424 C 0.04365 0.43101 0.43272 0.0
H425 H 0.47577 0.68304 0.43493 0.0
H426 H 0.41329 0.50982 0.3884 0.0
H427 H 0.44757 0.4299 0.45841 0.0
H428 H 0.54527 0.58403 0.40926 0.0
H429 H 0.56694 0.62765 0.48155 0.0
H430 H 0.53613 0.67333 0.43399 0.0
H431 H 0.50945 0.69885 0.55981 0.0
H432 H 0.54018 0.65312 0.6078 0.0
H433 H 0.50033 0.62709 0.62113 0.0
H434 H 0.48826 0.36829 0.53061 0.0
H435 H 0.53562 0.32507 0.5917 0.0
H436 H 0.57464 0.53523 0.58629 0.0
C437 C 0.46919 0.62847 0.44058 0.0
C438 C 0.44174 0.60259 0.40696 0.0
C439 C 0.43418 0.53064 0.41385 0.0
C440 C 0.45342 0.48493 0.4538 0.0
C441 C 0.48041 0.5117 0.48583 0.0
C442 C 0.48858 0.58153 0.47914 0.0
C443 C 0.52015 0.59507 0.51437 0.0
C444 C 0.5435 0.62157 0.45632 0.0
C445 C 0.51735 0.64659 0.57966 0.0
C446 C 0.52845 0.52183 0.54119 0.0
C447 C 0.50486 0.47505 0.52509 0.0
C448 C 0.50691 0.40437 0.54364 0.0
C449 C 0.53397 0.38038 0.57862 0.0
C450 C 0.55899 0.42663 0.594 0.0
C451 C 0.55597 0.49854 0.57546 0.0
loop_
_geom_bond_atom_site_label_1
_geom_bond_atom_site_label_2
_geom_bond_distance
_geom_bond_site_symmetry_2
_ccdc_geom_bond_type
Co0 O2 2.143 . S
Co0 O8 2.074 . S
Co0 O11 2.093 . S
Co0 O24 2.097 . S
Co0 N41 2.151 . S
Co0 N49 2.214 . S
Co1 O2 2.160 . S
Co1 O7 2.058 . S
Co1 O17 2.057 . S
Co1 O32 2.037 . S
Co1 N36 2.145 . S
Co1 N57 2.257 . S
O2 Co0 2.143 . S
O2 Co1 2.160 . S
C3 O4 1.278 . S
C3 O11 1.224 . S
O4 C3 1.278 . S
C5 O6 1.245 . S
C5 O17 1.232 . S
O6 C5 1.245 . S
O7 Co1 2.058 . S
O7 C33 1.269 . S
O8 Co0 2.074 . S
O8 C33 1.257 . S
H9 C34 0.930 . S
H10 C40 0.930 . S
O11 Co0 2.093 . S
O11 C3 1.224 . S
H12 C44 0.929 1_556 S
H13 C46 0.930 . S
H14 C47 0.930 . S
H15 C45 0.929 . S
H16 C48 0.928 . S
O17 Co1 2.057 . S
O17 C5 1.232 . S
H18 C37 0.929 . S
H19 C38 0.929 . S
H20 C50 0.931 . S
H21 C42 0.929 . S
H22 C51 0.930 . S
H23 C43 0.931 . S
O24 Co0 2.097 . S
O24 C52 1.214 . S
H25 C53 0.929 . S
H26 C54 0.929 . S
H27 C55 0.930 . S
H28 C56 0.929 . S
H29 C58 0.930 . S
H30 C35 0.930 . S
H31 C39 0.930 . S
O32 Co1 2.037 . S
O32 C52 1.234 . S
C33 O7 1.269 . S
C33 O8 1.257 . S
C34 H9 0.930 . S
C34 C37 1.388 . S
C34 C39 1.418 . S
C35 H30 0.930 . S
C35 C38 1.404 . S
C35 C39 1.353 . S
N36 Co1 2.145 . S
N36 C37 1.397 . S
N36 C38 1.334 . S
C37 H18 0.929 . S
C37 C34 1.388 . S
C37 N36 1.397 . S
C38 H19 0.929 . S
C38 C35 1.404 . S
C38 N36 1.334 . S
C39 H31 0.930 . S
C39 C34 1.418 . S
C39 C35 1.353 . S
C40 H10 0.930 . S
C40 N41 1.330 . S
C40 C42 1.446 . S
N41 Co0 2.151 . S
N41 C40 1.330 . S
N41 C45 1.418 . S
C42 H21 0.929 . S
C42 C40 1.446 . S
C42 C43 1.332 1_554 S
C43 H23 0.931 . S
C43 C42 1.332 1_556 S
C43 C44 1.267 1_556 S
C44 H12 0.929 1_554 S
C44 C43 1.267 1_554 S
C44 C45 1.251 . S
C45 H15 0.929 . S
C45 N41 1.418 . S
C45 C44 1.251 . S
C46 H13 0.930 . S
C46 C48 1.406 . S
C46 C51 1.261 . S
C47 H14 0.930 . S
C47 N49 1.325 . S
C47 C50 1.357 . S
C48 H16 0.928 . S
C48 C46 1.406 . S
C48 N49 1.261 1_556 S
N49 Co0 2.214 . S
N49 C47 1.325 . S
N49 C48 1.261 1_554 S
C50 H20 0.931 . S
C50 C47 1.357 . S
C50 C51 1.312 1_554 S
C51 H22 0.930 . S
C51 C46 1.261 . S
C51 C50 1.312 1_556 S
C52 O24 1.214 . S
C52 O32 1.234 . S
C53 H25 0.929 . S
C53 C56 1.391 . S
C53 C58 1.391 . S
C54 H26 0.929 . S
C54 C55 1.390 . S
C54 N57 1.391 . S
C55 H27 0.930 . S
C55 C54 1.390 . S
C55 C56 1.392 . S
C56 H28 0.929 . S
C56 C53 1.391 . S
C56 C55 1.392 . S
N57 Co1 2.257 . S
N57 C54 1.391 . S
N57 C58 1.388 . S
C58 H29 0.930 . S
C58 C53 1.391 . S
C58 N57 1.388 . S
Co59 O61 2.143 . S
Co59 O67 2.074 . S
Co59 O70 2.093 . S
Co59 O83 2.097 . S
Co59 N100 2.151 . S
Co59 N108 2.214 . S
Co60 O61 2.160 . S
Co60 O66 2.058 . S
Co60 O76 2.057 . S
Co60 O91 2.037 . S
Co60 N95 2.145 . S
Co60 N116 2.257 . S
O61 Co59 2.143 . S
O61 Co60 2.160 . S
C62 O63 1.278 . S
C62 O70 1.224 . S
O63 C62 1.278 . S
C64 O65 1.245 . S
C64 O76 1.232 . S
O65 C64 1.245 . S
O66 Co60 2.058 . S
O66 C92 1.269 . S
O67 Co59 2.074 . S
O67 C92 1.257 . S
H68 C93 0.930 . S
H69 C99 0.930 . S
O70 Co59 2.093 . S
O70 C62 1.224 . S
H71 C103 0.929 . S
H72 C105 0.930 . S
H73 C106 0.930 . S
H74 C104 0.929 . S
H75 C107 0.928 . S
O76 Co60 2.057 . S
O76 C64 1.232 . S
H77 C96 0.929 . S
H78 C97 0.929 . S
H79 C109 0.931 . S
H80 C101 0.929 . S
H81 C110 0.930 . S
H82 C102 0.931 . S
O83 Co59 2.097 . S
O83 C111 1.214 . S
H84 C112 0.929 . S
H85 C113 0.929 . S
H86 C114 0.930 . S
H87 C115 0.929 . S
H88 C117 0.930 . S
H89 C94 0.930 . S
H90 C98 0.930 . S
O91 Co60 2.037 . S
O91 C111 1.234 . S
C92 O66 1.269 . S
C92 O67 1.257 . S
C93 H68 0.930 . S
C93 C96 1.388 1_556 S
C93 C98 1.418 . S
C94 H89 0.930 . S
C94 C97 1.404 . S
C94 C98 1.353 . S
N95 Co60 2.145 . S
N95 C96 1.397 . S
N95 C97 1.334 1_554 S
C96 H77 0.929 . S
C96 C93 1.388 1_554 S
C96 N95 1.397 . S
C97 H78 0.929 . S
C97 C94 1.404 . S
C97 N95 1.334 1_556 S
C98 H90 0.930 . S
C98 C93 1.418 . S
C98 C94 1.353 . S
C99 H69 0.930 . S
C99 N100 1.330 . S
C99 C101 1.446 . S
N100 Co59 2.151 . S
N100 C99 1.330 . S
N100 C104 1.418 . S
C101 H80 0.929 . S
C101 C99 1.446 . S
C101 C102 1.332 . S
C102 H82 0.931 . S
C102 C101 1.332 . S
C102 C103 1.267 . S
C103 H71 0.929 . S
C103 C102 1.267 . S
C103 C104 1.251 . S
C104 H74 0.929 . S
C104 N100 1.418 . S
C104 C103 1.251 . S
C105 H72 0.930 . S
C105 C107 1.406 . S
C105 C110 1.261 . S
C106 H73 0.930 . S
C106 N108 1.325 . S
C106 C109 1.357 . S
C107 H75 0.928 . S
C107 C105 1.406 . S
C107 N108 1.261 . S
N108 Co59 2.214 . S
N108 C106 1.325 . S
N108 C107 1.261 . S
C109 H79 0.931 . S
C109 C106 1.357 . S
C109 C110 1.312 . S
C110 H81 0.930 . S
C110 C105 1.261 . S
C110 C109 1.312 . S
C111 O83 1.214 . S
C111 O91 1.234 . S
C112 H84 0.929 . S
C112 C115 1.391 . S
C112 C117 1.391 . S
C113 H85 0.929 . S
C113 C114 1.390 . S
C113 N116 1.391 . S
C114 H86 0.930 . S
C114 C113 1.390 . S
C114 C115 1.392 . S
C115 H87 0.929 . S
C115 C112 1.391 . S
C115 C114 1.392 . S
N116 Co60 2.257 . S
N116 C113 1.391 . S
N116 C117 1.388 . S
C117 H88 0.930 . S
C117 C112 1.391 . S
C117 N116 1.388 . S
Co118 O120 2.143 . S
Co118 O126 2.074 . S
Co118 O129 2.093 . S
Co118 O142 2.097 . S
Co118 N159 2.151 . S
Co118 N167 2.214 . S
Co119 O120 2.160 . S
Co119 O125 2.058 . S
Co119 O135 2.057 . S
Co119 O150 2.037 . S
Co119 N154 2.145 . S
Co119 N175 2.257 . S
O120 Co118 2.143 . S
O120 Co119 2.160 . S
C121 O122 1.278 . S
C121 O129 1.224 . S
O122 C121 1.278 . S
C123 O124 1.245 . S
C123 O135 1.232 . S
O124 C123 1.245 . S
O125 Co119 2.058 . S
O125 C151 1.269 . S
O126 Co118 2.074 . S
O126 C151 1.257 . S
H127 C152 0.930 . S
H128 C158 0.930 . S
O129 Co118 2.093 . S
O129 C121 1.224 . S
H130 C162 0.929 1_554 S
H131 C164 0.930 . S
H132 C165 0.930 . S
H133 C163 0.929 . S
H134 C166 0.928 . S
O135 Co119 2.057 . S
O135 C123 1.232 . S
H136 C155 0.929 . S
H137 C156 0.929 . S
H138 C168 0.931 . S
H139 C160 0.929 . S
H140 C169 0.930 . S
H141 C161 0.931 . S
O142 Co118 2.097 . S
O142 C170 1.214 . S
H143 C171 0.929 . S
H144 C172 0.929 . S
H145 C173 0.930 . S
H146 C174 0.929 . S
H147 C176 0.930 . S
H148 C153 0.930 . S
H149 C157 0.930 . S
O150 Co119 2.037 . S
O150 C170 1.234 . S
C151 O125 1.269 . S
C151 O126 1.257 . S
C152 H127 0.930 . S
C152 C155 1.388 . S
C152 C157 1.418 . S
C153 H148 0.930 . S
C153 C156 1.404 . S
C153 C157 1.353 . S
N154 Co119 2.145 . S
N154 C155 1.397 . S
N154 C156 1.334 . S
C155 H136 0.929 . S
C155 C152 1.388 . S
C155 N154 1.397 . S
C156 H137 0.929 . S
C156 C153 1.404 . S
C156 N154 1.334 . S
C157 H149 0.930 . S
C157 C152 1.418 . S
C157 C153 1.353 . S
C158 H128 0.930 . S
C158 N159 1.330 . S
C158 C160 1.446 . S
N159 Co118 2.151 . S
N159 C158 1.330 . S
N159 C163 1.418 . S
C160 H139 0.929 . S
C160 C158 1.446 . S
C160 C161 1.332 1_556 S
C161 H141 0.931 . S
C161 C160 1.332 1_554 S
C161 C162 1.267 1_554 S
C162 H130 0.929 1_556 S
C162 C161 1.267 1_556 S
C162 C163 1.251 . S
C163 H133 0.929 . S
C163 N159 1.418 . S
C163 C162 1.251 . S
C164 H131 0.930 . S
C164 C166 1.406 . S
C164 C169 1.261 . S
C165 H132 0.930 . S
C165 N167 1.325 . S
C165 C168 1.357 . S
C166 H134 0.928 . S
C166 C164 1.406 . S
C166 N167 1.261 1_554 S
N167 Co118 2.214 . S
N167 C165 1.325 . S
N167 C166 1.261 1_556 S
C168 H138 0.931 . S
C168 C165 1.357 . S
C168 C169 1.312 1_556 S
C169 H140 0.930 . S
C169 C164 1.261 . S
C169 C168 1.312 1_554 S
C170 O142 1.214 . S
C170 O150 1.234 . S
C171 H143 0.929 . S
C171 C174 1.391 . S
C171 C176 1.391 . S
C172 H144 0.929 . S
C172 C173 1.390 . S
C172 N175 1.391 . S
C173 H145 0.930 . S
C173 C172 1.390 . S
C173 C174 1.392 . S
C174 H146 0.929 . S
C174 C171 1.391 . S
C174 C173 1.392 . S
N175 Co119 2.257 . S
N175 C172 1.391 . S
N175 C176 1.388 . S
C176 H147 0.930 . S
C176 C171 1.391 . S
C176 N175 1.388 . S
Co177 O179 2.143 . S
Co177 O185 2.074 . S
Co177 O188 2.093 . S
Co177 O201 2.097 . S
Co177 N218 2.151 . S
Co177 N226 2.214 . S
Co178 O179 2.160 . S
Co178 O184 2.058 . S
Co178 O194 2.057 . S
Co178 O209 2.037 . S
Co178 N213 2.145 . S
Co178 N234 2.257 . S
O179 Co177 2.143 . S
O179 Co178 2.160 . S
C180 O181 1.278 . S
C180 O188 1.224 . S
O181 C180 1.278 . S
C182 O183 1.245 . S
C182 O194 1.232 . S
O183 C182 1.245 . S
O184 Co178 2.058 . S
O184 C210 1.269 . S
O185 Co177 2.074 . S
O185 C210 1.257 . S
H186 C211 0.930 . S
H187 C217 0.930 . S
O188 Co177 2.093 . S
O188 C180 1.224 . S
H189 C221 0.929 . S
H190 C223 0.930 . S
H191 C224 0.930 . S
H192 C222 0.929 . S
H193 C225 0.928 . S
O194 Co178 2.057 . S
O194 C182 1.232 . S
H195 C214 0.929 . S
H196 C215 0.929 . S
H197 C227 0.931 . S
H198 C219 0.929 . S
H199 C228 0.930 . S
H200 C220 0.931 . S
O201 Co177 2.097 . S
O201 C229 1.214 . S
H202 C230 0.929 . S
H203 C231 0.929 . S
H204 C232 0.930 . S
H205 C233 0.929 . S
H206 C235 0.930 . S
H207 C212 0.930 . S
H208 C216 0.930 . S
O209 Co178 2.037 . S
O209 C229 1.234 . S
C210 O184 1.269 . S
C210 O185 1.257 . S
C211 H186 0.930 . S
C211 C214 1.388 1_554 S
C211 C216 1.418 . S
C212 H207 0.930 . S
C212 C215 1.404 . S
C212 C216 1.353 . S
N213 Co178 2.145 . S
N213 C214 1.397 . S
N213 C215 1.334 1_556 S
C214 H195 0.929 . S
C214 C211 1.388 1_556 S
C214 N213 1.397 . S
C215 H196 0.929 . S
C215 C212 1.404 . S
C215 N213 1.334 1_554 S
C216 H208 0.930 . S
C216 C211 1.418 . S
C216 C212 1.353 . S
C217 H187 0.930 . S
C217 N218 1.330 . S
C217 C219 1.446 . S
N218 Co177 2.151 . S
N218 C217 1.330 . S
N218 C222 1.418 . S
C219 H198 0.929 . S
C219 C217 1.446 . S
C219 C220 1.332 . S
C220 H200 0.931 . S
C220 C219 1.332 . S
C220 C221 1.267 . S
C221 H189 0.929 . S
C221 C220 1.267 . S
C221 C222 1.251 . S
C222 H192 0.929 . S
C222 N218 1.418 . S
C222 C221 1.251 . S
C223 H190 0.930 . S
C223 C225 1.406 . S
C223 C228 1.261 . S
C224 H191 0.930 . S
C224 N226 1.325 . S
C224 C227 1.357 . S
C225 H193 0.928 . S
C225 C223 1.406 . S
C225 N226 1.261 . S
N226 Co177 2.214 . S
N226 C224 1.325 . S
N226 C225 1.261 . S
C227 H197 0.931 . S
C227 C224 1.357 . S
C227 C228 1.312 . S
C228 H199 0.930 . S
C228 C223 1.261 . S
C228 C227 1.312 . S
C229 O201 1.214 . S
C229 O209 1.234 . S
C230 H202 0.929 . S
C230 C233 1.391 . S
C230 C235 1.391 . S
C231 H203 0.929 . S
C231 C232 1.390 . S
C231 N234 1.391 . S
C232 H204 0.930 . S
C232 C231 1.390 . S
C232 C233 1.392 . S
C233 H205 0.929 . S
C233 C230 1.391 . S
C233 C232 1.392 . S
N234 Co178 2.257 . S
N234 C231 1.391 . S
N234 C235 1.388 . S
C235 H206 0.930 . S
C235 C230 1.391 . S
C235 N234 1.388 . S
H236 C248 0.930 . S
H237 C250 0.930 . S
H238 C251 0.930 . S
H239 C255 0.959 . S
H240 C255 0.959 . S
H241 C255 0.961 . S
H242 C256 0.960 . S
H243 C256 0.961 . S
H244 C256 0.959 . S
H245 C259 0.929 . S
H246 C260 0.931 . S
H247 C262 0.930 . S
C248 H236 0.930 . S
C248 C249 1.399 . S
C248 C253 1.399 . S
C249 C248 1.399 . S
C249 C250 1.376 . S
C250 H237 0.930 . S
C250 C249 1.376 . S
C250 C251 1.388 . S
C251 H238 0.930 . S
C251 C250 1.388 . S
C251 C252 1.390 . S
C252 C251 1.390 . S
C252 C253 1.394 . S
C252 C258 1.465 1_565 S
C253 C248 1.399 . S
C253 C252 1.394 . S
C253 C254 1.516 . S
C254 C253 1.516 . S
C254 C255 1.502 . S
C254 C256 1.561 1_565 S
C254 C257 1.526 1_565 S
C255 H239 0.959 . S
C255 H240 0.959 . S
C255 H241 0.961 . S
C255 C254 1.502 . S
C256 H242 0.960 . S
C256 H243 0.961 . S
C256 H244 0.959 . S
C256 C254 1.561 1_545 S
C257 C254 1.526 1_545 S
C257 C258 1.396 . S
C257 C262 1.390 . S
C258 C252 1.465 1_545 S
C258 C257 1.396 . S
C258 C259 1.399 . S
C259 H245 0.929 . S
C259 C258 1.399 . S
C259 C260 1.385 . S
C260 H246 0.931 . S
C260 C259 1.385 . S
C260 C261 1.389 . S
C261 C260 1.389 . S
C261 C262 1.387 . S
C262 H247 0.930 . S
C262 C257 1.390 . S
C262 C261 1.387 . S
H263 C275 0.930 . S
H264 C277 0.930 . S
H265 C278 0.930 . S
H266 C282 0.959 . S
H267 C282 0.959 . S
H268 C282 0.961 . S
H269 C283 0.960 . S
H270 C283 0.961 . S
H271 C283 0.959 . S
H272 C286 0.929 . S
H273 C287 0.931 . S
H274 C289 0.930 . S
C275 H263 0.930 . S
C275 C276 1.399 . S
C275 C280 1.399 . S
C276 C275 1.399 . S
C276 C277 1.376 . S
C277 H264 0.930 . S
C277 C276 1.376 . S
C277 C278 1.388 . S
C278 H265 0.930 . S
C278 C277 1.388 . S
C278 C279 1.390 . S
C279 C278 1.390 . S
C279 C280 1.394 . S
C279 C285 1.465 . S
C280 C275 1.399 . S
C280 C279 1.394 . S
C280 C281 1.516 . S
C281 C280 1.516 . S
C281 C282 1.502 . S
C281 C283 1.561 . S
C281 C284 1.526 . S
C282 H266 0.959 . S
C282 H267 0.959 . S
C282 H268 0.961 . S
C282 C281 1.502 . S
C283 H269 0.960 . S
C283 H270 0.961 . S
C283 H271 0.959 . S
C283 C281 1.561 . S
C284 C281 1.526 . S
C284 C285 1.396 . S
C284 C289 1.390 . S
C285 C279 1.465 . S
C285 C284 1.396 . S
C285 C286 1.399 . S
C286 H272 0.929 . S
C286 C285 1.399 . S
C286 C287 1.385 . S
C287 H273 0.931 . S
C287 C286 1.385 . S
C287 C288 1.389 . S
C288 C287 1.389 . S
C288 C289 1.387 . S
C289 H274 0.930 . S
C289 C284 1.390 . S
C289 C288 1.387 . S
H290 C302 0.930 . S
H291 C304 0.930 . S
H292 C305 0.930 1_565 S
H293 C309 0.959 . S
H294 C309 0.959 . S
H295 C309 0.961 . S
H296 C310 0.960 1_545 S
H297 C310 0.961 . S
H298 C310 0.959 . S
H299 C313 0.929 . S
H300 C314 0.931 . S
H301 C316 0.930 . S
C302 H290 0.930 . S
C302 C303 1.399 . S
C302 C307 1.399 . S
C303 C302 1.399 . S
C303 C304 1.376 . S
C304 H291 0.930 . S
C304 C303 1.376 . S
C304 C305 1.388 . S
C305 H292 0.930 1_545 S
C305 C304 1.388 . S
C305 C306 1.390 . S
C306 C305 1.390 . S
C306 C307 1.394 . S
C306 C312 1.465 1_545 S
C307 C302 1.399 . S
C307 C306 1.394 . S
C307 C308 1.516 . S
C308 C307 1.516 . S
C308 C309 1.502 . S
C308 C310 1.561 1_545 S
C308 C311 1.526 1_545 S
C309 H293 0.959 . S
C309 H294 0.959 . S
C309 H295 0.961 . S
C309 C308 1.502 . S
C310 H296 0.960 1_565 S
C310 H297 0.961 . S
C310 H298 0.959 . S
C310 C308 1.561 1_565 S
C311 C308 1.526 1_565 S
C311 C312 1.396 . S
C311 C316 1.390 . S
C312 C306 1.465 1_565 S
C312 C311 1.396 . S
C312 C313 1.399 . S
C313 H299 0.929 . S
C313 C312 1.399 . S
C313 C314 1.385 . S
C314 H300 0.931 . S
C314 C313 1.385 . S
C314 C315 1.389 . S
C315 C314 1.389 . S
C315 C316 1.387 . S
C316 H301 0.930 . S
C316 C311 1.390 . S
C316 C315 1.387 . S
H317 C329 0.930 . S
H318 C331 0.930 . S
H319 C332 0.930 . S
H320 C336 0.959 . S
H321 C336 0.959 . S
H322 C336 0.961 . S
H323 C337 0.960 . S
H324 C337 0.961 . S
H325 C337 0.959 . S
H326 C340 0.929 . S
H327 C341 0.931 . S
H328 C343 0.930 . S
C329 H317 0.930 . S
C329 C330 1.399 . S
C329 C334 1.399 . S
C330 C329 1.399 . S
C330 C331 1.376 . S
C331 H318 0.930 . S
C331 C330 1.376 . S
C331 C332 1.388 . S
C332 H319 0.930 . S
C332 C331 1.388 . S
C332 C333 1.390 . S
C333 C332 1.390 . S
C333 C334 1.394 . S
C333 C339 1.465 . S
C334 C329 1.399 . S
C334 C333 1.394 . S
C334 C335 1.516 . S
C335 C334 1.516 . S
C335 C336 1.502 . S
C335 C337 1.561 . S
C335 C338 1.526 . S
C336 H320 0.959 . S
C336 H321 0.959 . S
C336 H322 0.961 . S
C336 C335 1.502 . S
C337 H323 0.960 . S
C337 H324 0.961 . S
C337 H325 0.959 . S
C337 C335 1.561 . S
C338 C335 1.526 . S
C338 C339 1.396 . S
C338 C343 1.390 . S
C339 C333 1.465 . S
C339 C338 1.396 . S
C339 C340 1.399 . S
C340 H326 0.929 . S
C340 C339 1.399 . S
C340 C341 1.385 . S
C341 H327 0.931 . S
C341 C340 1.385 . S
C341 C342 1.389 . S
C342 C341 1.389 . S
C342 C343 1.387 . S
C343 H328 0.930 . S
C343 C338 1.390 . S
C343 C342 1.387 . S
H344 C356 0.930 . S
H345 C358 0.930 . S
H346 C359 0.930 . S
H347 C363 0.959 . S
H348 C363 0.959 . S
H349 C363 0.961 . S
H350 C364 0.960 . S
H351 C364 0.961 . S
H352 C364 0.959 . S
H353 C367 0.929 1_455 S
H354 C368 0.931 . S
H355 C370 0.930 1_554 S
C356 H344 0.930 . S
C356 C357 1.399 . S
C356 C361 1.399 . S
C357 C356 1.399 . S
C357 C358 1.376 . S
C358 H345 0.930 . S
C358 C357 1.376 . S
C358 C359 1.388 1_554 S
C359 H346 0.930 . S
C359 C358 1.388 1_556 S
C359 C360 1.390 . S
C360 C359 1.390 . S
C360 C361 1.394 1_556 S
C360 C366 1.465 1_445 S
C361 C356 1.399 . S
C361 C360 1.394 1_554 S
C361 C362 1.508 1_445 S
C362 C361 1.508 1_665 S
C362 C363 1.512 . S
C362 C364 1.551 1_565 S
C362 C365 1.533 1_554 S
C363 H347 0.959 . S
C363 H348 0.959 . S
C363 H349 0.961 . S
C363 C362 1.512 . S
C364 H350 0.960 . S
C364 H351 0.961 . S
C364 H352 0.959 . S
C364 C362 1.551 1_545 S
C365 C362 1.533 1_556 S
C365 C366 1.396 . S
C365 C370 1.390 . S
C366 C360 1.465 1_665 S
C366 C365 1.396 . S
C366 C367 1.399 . S
C367 H353 0.929 1_655 S
C367 C366 1.399 . S
C367 C368 1.385 . S
C368 H354 0.931 . S
C368 C367 1.385 . S
C368 C369 1.389 . S
C369 C368 1.389 . S
C369 C370 1.387 . S
C370 H355 0.930 1_556 S
C370 C365 1.390 . S
C370 C369 1.387 . S
H371 C383 0.930 . S
H372 C385 0.930 . S
H373 C386 0.930 . S
H374 C390 0.959 . S
H375 C390 0.959 . S
H376 C390 0.961 . S
H377 C391 0.960 . S
H378 C391 0.961 . S
H379 C391 0.959 . S
H380 C394 0.929 . S
H381 C395 0.931 . S
H382 C397 0.930 . S
C383 H371 0.930 . S
C383 C384 1.399 . S
C383 C388 1.399 . S
C384 C383 1.399 . S
C384 C385 1.376 . S
C385 H372 0.930 . S
C385 C384 1.376 . S
C385 C386 1.388 1_545 S
C386 H373 0.930 . S
C386 C385 1.388 1_565 S
C386 C387 1.390 . S
C387 C386 1.390 . S
C387 C388 1.394 1_565 S
C387 C393 1.465 1_556 S
C388 C383 1.399 . S
C388 C387 1.394 1_545 S
C388 C389 1.513 1_556 S
C389 C388 1.513 1_554 S
C389 C390 1.507 . S
C389 C391 1.556 1_554 S
C389 C392 1.528 1_545 S
C390 H374 0.959 . S
C390 H375 0.959 . S
C390 H376 0.961 . S
C390 C389 1.507 . S
C391 H377 0.960 . S
C391 H378 0.961 . S
C391 H379 0.959 . S
C391 C389 1.556 1_556 S
C392 C389 1.528 1_565 S
C392 C393 1.396 . S
C392 C397 1.390 . S
C393 C387 1.465 1_554 S
C393 C392 1.396 . S
C393 C394 1.399 . S
C394 H380 0.929 . S
C394 C393 1.399 . S
C394 C395 1.385 . S
C395 H381 0.931 . S
C395 C394 1.385 . S
C395 C396 1.389 . S
C396 C395 1.389 . S
C396 C397 1.387 . S
C397 H382 0.930 . S
C397 C392 1.390 . S
C397 C396 1.387 . S
H398 C410 0.930 . S
H399 C412 0.930 . S
H400 C413 0.930 . S
H401 C417 0.959 . S
H402 C417 0.959 . S
H403 C417 0.961 . S
H404 C418 0.960 . S
H405 C418 0.961 . S
H406 C418 0.959 . S
H407 C421 0.929 . S
H408 C422 0.931 . S
H409 C424 0.930 . S
C410 H398 0.930 . S
C410 C411 1.399 . S
C410 C415 1.399 . S
C411 C410 1.399 . S
C411 C412 1.376 . S
C412 H399 0.930 . S
C412 C411 1.376 . S
C412 C413 1.388 . S
C413 H400 0.930 . S
C413 C412 1.388 . S
C413 C414 1.390 . S
C414 C413 1.390 . S
C414 C415 1.394 . S
C414 C420 1.465 1_655 S
C415 C410 1.399 . S
C415 C414 1.394 . S
C415 C416 1.516 . S
C416 C415 1.516 . S
C416 C417 1.502 . S
C416 C418 1.561 1_655 S
C416 C419 1.526 1_655 S
C417 H401 0.959 . S
C417 H402 0.959 . S
C417 H403 0.961 . S
C417 C416 1.502 . S
C418 H404 0.960 . S
C418 H405 0.961 . S
C418 H406 0.959 . S
C418 C416 1.561 1_455 S
C419 C416 1.526 1_455 S
C419 C420 1.396 . S
C419 C424 1.390 . S
C420 C414 1.465 1_455 S
C420 C419 1.396 . S
C420 C421 1.399 . S
C421 H407 0.929 . S
C421 C420 1.399 . S
C421 C422 1.385 . S
C422 H408 0.931 . S
C422 C421 1.385 . S
C422 C423 1.389 . S
C423 C422 1.389 . S
C423 C424 1.387 . S
C424 H409 0.930 . S
C424 C419 1.390 . S
C424 C423 1.387 . S
H425 C437 0.930 . S
H426 C439 0.930 . S
H427 C440 0.930 . S
H428 C444 0.959 . S
H429 C444 0.959 . S
H430 C444 0.961 . S
H431 C445 0.960 . S
H432 C445 0.961 . S
H433 C445 0.959 . S
H434 C448 0.929 . S
H435 C449 0.931 . S
H436 C451 0.930 . S
C437 H425 0.930 . S
C437 C438 1.399 . S
C437 C442 1.399 . S
C438 C437 1.399 . S
C438 C439 1.376 . S
C439 H426 0.930 . S
C439 C438 1.376 . S
C439 C440 1.388 . S
C440 H427 0.930 . S
C440 C439 1.388 . S
C440 C441 1.390 . S
C441 C440 1.390 . S
C441 C442 1.394 . S
C441 C447 1.465 . S
C442 C437 1.399 . S
C442 C441 1.394 . S
C442 C443 1.516 . S
C443 C442 1.516 . S
C443 C444 1.502 . S
C443 C445 1.561 . S
C443 C446 1.526 . S
C444 H428 0.959 . S
C444 H429 0.959 . S
C444 H430 0.961 . S
C444 C443 1.502 . S
C445 H431 0.960 . S
C445 H432 0.961 . S
C445 H433 0.959 . S
C445 C443 1.561 . S
C446 C443 1.526 . S
C446 C447 1.396 . S
C446 C451 1.390 . S
C447 C441 1.465 . S
C447 C446 1.396 . S
C447 C448 1.399 . S
C448 H434 0.929 . S
C448 C447 1.399 . S
C448 C449 1.385 . S
C449 H435 0.931 . S
C449 C448 1.385 . S
C449 C450 1.389 . S
C450 C449 1.389 . S
C450 C451 1.387 . S
C451 H436 0.930 . S
C451 C446 1.390 . S
C451 C450 1.387 . S
C249 C92 1.311 . S
C261 C52 1.307 . S
C276 C33 1.315 . S
C288 C111 1.307 . S
C303 C210 1.327 . S
C315 C170 1.320 . S
C330 C151 1.326 . S
C342 C229 1.317 . S
C357 C3 1.485 . S
C369 C121 1.479 . S
C384 C182 1.474 . S
C396 C64 1.503 . S
C411 C123 1.483 . S
C423 C5 1.499 . S
C438 C62 1.455 . S
C450 C180 1.500 . S
