# Generated by pormake.
# Topology upc, (4)-cn, num edge types: 1
# Building blocks:
#     Node 0, Type 0, BuildingBlock: ESEHIV_clean_sbu_0, # of connection points: 4
#     Node 1, Type 0, BuildingBlock: ESEHIV_clean_sbu_0, # of connection points: 4
#     Node 2, Type 0, BuildingBlock: ESEHIV_clean_sbu_0, # of connection points: 4
#     Node 3, Type 0, BuildingBlock: ESEHIV_clean_sbu_0, # of connection points: 4
#     Node 4, Type 0, BuildingBlock: ESEHIV_clean_sbu_0, # of connection points: 4
#     Node 5, Type 0, BuildingBlock: ESEHIV_clean_sbu_0, # of connection points: 4
#     Node 6, Type 0, BuildingBlock: ESEHIV_clean_sbu_0, # of connection points: 4
#     Node 7, Type 0, BuildingBlock: ESEHIV_clean_sbu_0, # of connection points: 4
#     Node 8, Type 0, BuildingBlock: ESEHIV_clean_sbu_0, # of connection points: 4
#     Node 9, Type 0, BuildingBlock: ESEHIV_clean_sbu_0, # of connection points: 4
#     Node 10, Type 0, BuildingBlock: ESEHIV_clean_sbu_0, # of connection points: 4
#     Node 11, Type 0, BuildingBlock: ESEHIV_clean_sbu_0, # of connection points: 4
#     Node 12, Type 0, BuildingBlock: ESEHIV_clean_sbu_0, # of connection points: 4
#     Node 13, Type 0, BuildingBlock: ESEHIV_clean_sbu_0, # of connection points: 4
#     Node 14, Type 0, BuildingBlock: ESEHIV_clean_sbu_0, # of connection points: 4
#     Node 15, Type 0, BuildingBlock: ESEHIV_clean_sbu_0, # of connection points: 4
#     Edge 16, Type (0, 0), BuildingBlock: ZUJKAS_clean_linker_0, # of connection points: 2
#     Edge 17, Type (0, 0), BuildingBlock: ZUJKAS_clean_linker_0, # of connection points: 2
#     Edge 18, Type (0, 0), BuildingBlock: ZUJKAS_clean_linker_0, # of connection points: 2
#     Edge 19, Type (0, 0), BuildingBlock: ZUJKAS_clean_linker_0, # of connection points: 2
#     Edge 20, Type (0, 0), BuildingBlock: ZUJKAS_clean_linker_0, # of connection points: 2
#     Edge 21, Type (0, 0), BuildingBlock: ZUJKAS_clean_linker_0, # of connection points: 2
#     Edge 22, Type (0, 0), BuildingBlock: ZUJKAS_clean_linker_0, # of connection points: 2
#     Edge 23, Type (0, 0), BuildingBlock: ZUJKAS_clean_linker_0, # of connection points: 2
#     Edge 24, Type (0, 0), BuildingBlock: ZUJKAS_clean_linker_0, # of connection points: 2
#     Edge 25, Type (0, 0), BuildingBlock: ZUJKAS_clean_linker_0, # of connection points: 2
#     Edge 26, Type (0, 0), BuildingBlock: ZUJKAS_clean_linker_0, # of connection points: 2
#     Edge 27, Type (0, 0), BuildingBlock: ZUJKAS_clean_linker_0, # of connection points: 2
#     Edge 28, Type (0, 0), BuildingBlock: ZUJKAS_clean_linker_0, # of connection points: 2
#     Edge 29, Type (0, 0), BuildingBlock: ZUJKAS_clean_linker_0, # of connection points: 2
#     Edge 30, Type (0, 0), BuildingBlock: ZUJKAS_clean_linker_0, # of connection points: 2
#     Edge 31, Type (0, 0), BuildingBlock: ZUJKAS_clean_linker_0, # of connection points: 2
#     Edge 32, Type (0, 0), BuildingBlock: ZUJKAS_clean_linker_0, # of connection points: 2
#     Edge 33, Type (0, 0), BuildingBlock: ZUJKAS_clean_linker_0, # of connection points: 2
#     Edge 34, Type (0, 0), BuildingBlock: ZUJKAS_clean_linker_0, # of connection points: 2
#     Edge 35, Type (0, 0), BuildingBlock: ZUJKAS_clean_linker_0, # of connection points: 2
#     Edge 36, Type (0, 0), BuildingBlock: ZUJKAS_clean_linker_0, # of connection points: 2
#     Edge 37, Type (0, 0), BuildingBlock: ZUJKAS_clean_linker_0, # of connection points: 2
#     Edge 38, Type (0, 0), BuildingBlock: ZUJKAS_clean_linker_0, # of connection points: 2
#     Edge 39, Type (0, 0), BuildingBlock: ZUJKAS_clean_linker_0, # of connection points: 2
#     Edge 40, Type (0, 0), BuildingBlock: ZUJKAS_clean_linker_0, # of connection points: 2
#     Edge 41, Type (0, 0), BuildingBlock: ZUJKAS_clean_linker_0, # of connection points: 2
#     Edge 42, Type (0, 0), BuildingBlock: ZUJKAS_clean_linker_0, # of connection points: 2
#     Edge 43, Type (0, 0), BuildingBlock: ZUJKAS_clean_linker_0, # of connection points: 2
#     Edge 44, Type (0, 0), BuildingBlock: ZUJKAS_clean_linker_0, # of connection points: 2
#     Edge 45, Type (0, 0), BuildingBlock: ZUJKAS_clean_linker_0, # of connection points: 2
#     Edge 46, Type (0, 0), BuildingBlock: ZUJKAS_clean_linker_0, # of connection points: 2
#     Edge 47, Type (0, 0), BuildingBlock: ZUJKAS_clean_linker_0, # of connection points: 2
# Relax obj value: 0.157
# Max RMSD: 0.202
# Mean RMSD: 0.182
data_MOF--net-upc--node1-ESEHIV_clean_sbu_0--edge1-ZUJKAS_clean_linker_0
_symmetry_space_group_name_H-M    P1
_symmetry_Int_Tables_number       1
_symmetry_cell_setting            triclinic
loop_
_symmetry_equiv_pos_as_xyz
'x, y, z'
_cell_length_a     46.23797
_cell_length_b     51.8222
_cell_length_c     56.22015
_cell_angle_alpha  90.174246
_cell_angle_beta   90.081896
_cell_angle_gamma 90.12388
loop_
_atom_site_label
_atom_site_type_symbol
_atom_site_fract_x
_atom_site_fract_y
_atom_site_fract_z
_atom_type_partial_charge
Cu0 Cu 0.10157 0.66102 0.15498 0.0
N1 N 0.08528 0.69294 0.16171 0.0
N2 N 0.08761 0.73515 0.16967 0.0
C3 C 0.09966 0.71511 0.15805 0.0
C4 C 0.06405 0.72522 0.18056 0.0
C5 C 0.06274 0.69907 0.17569 0.0
O6 O 0.14292 0.66788 0.16051 0.0
C7 C 0.08638 0.63542 0.19847 0.0
O8 O 0.10083 0.65417 0.20889 0.0
H9 H 0.11984 0.71606 0.14841 0.0
H10 H 0.04797 0.68525 0.18343 0.0
N11 N 0.09218 0.65253 0.12349 0.0
N12 N 0.07176 0.63238 0.09237 0.0
C13 C 0.07923 0.63075 0.11562 0.0
C14 C 0.09257 0.66856 0.10473 0.0
C15 C 0.0803 0.65615 0.08551 0.0
C16 C 0.16022 0.67502 0.14411 0.0
O17 O 0.15281 0.67116 0.12184 0.0
H18 H 0.07459 0.61442 0.12694 0.0
H19 H 0.10014 0.68832 0.10528 0.0
O20 O 0.08504 0.63476 0.17585 0.0
H21 H 0.05031 0.73553 0.19291 0.0
H22 H 0.07657 0.66455 0.06817 0.0
Cu23 Cu 0.89045 0.10859 0.13947 0.0
N24 N 0.86453 0.08116 0.13739 0.0
N25 N 0.82706 0.05668 0.14816 0.0
C26 C 0.83802 0.08079 0.1471 0.0
C27 C 0.84733 0.0413 0.13833 0.0
C28 C 0.87042 0.05651 0.1316 0.0
O29 O 0.86788 0.14048 0.14308 0.0
C30 C 0.90974 0.08878 0.18392 0.0
O31 O 0.882 0.08509 0.1876 0.0
H32 H 0.82837 0.09739 0.15567 0.0
H33 H 0.89099 0.0498 0.12488 0.0
N34 N 0.91068 0.11072 0.11084 0.0
N35 N 0.93861 0.10098 0.07959 0.0
C36 C 0.92888 0.09333 0.10116 0.0
C37 C 0.90883 0.13 0.09499 0.0
C38 C 0.92597 0.12409 0.07574 0.0
C39 C 0.85482 0.14838 0.16168 0.0
O40 O 0.85813 0.13578 0.18173 0.0
H41 H 0.93474 0.07546 0.10979 0.0
H42 H 0.89548 0.14696 0.09712 0.0
O43 O 0.91779 0.10041 0.16507 0.0
H44 H 0.84642 0.02044 0.13766 0.0
H45 H 0.9282 0.13565 0.05986 0.0
Cu46 Cu 0.40027 0.92462 0.15872 0.0
N47 N 0.43264 0.90398 0.16304 0.0
N48 N 0.45939 0.86985 0.17272 0.0
C49 C 0.43292 0.87832 0.16638 0.0
C50 C 0.47645 0.891 0.17325 0.0
C51 C 0.45985 0.91204 0.16723 0.0
O52 O 0.36621 0.9019 0.15831 0.0
C53 C 0.40104 0.97429 0.18153 0.0
O54 O 0.39488 0.98329 0.16032 0.0
H55 H 0.41366 0.86642 0.16595 0.0
H56 H 0.46671 0.93201 0.16724 0.0
N57 N 0.40401 0.94099 0.12929 0.0
N58 N 0.42396 0.96055 0.09792 0.0
C59 C 0.42882 0.94833 0.11872 0.0
C60 C 0.3827 0.94869 0.11465 0.0
C61 C 0.39493 0.96086 0.0953 0.0
C62 C 0.35692 0.88978 0.17649 0.0
O63 O 0.36894 0.8943 0.19728 0.0
H64 H 0.44999 0.94534 0.12641 0.0
H65 H 0.35987 0.9459 0.11797 0.0
O66 O 0.4017 0.94993 0.18471 0.0
H67 H 0.49891 0.89139 0.17868 0.0
H68 H 0.38336 0.96915 0.08043 0.0
Cu69 Cu 0.61719 0.39591 0.14276 0.0
N70 N 0.65106 0.41181 0.15296 0.0
N71 N 0.69682 0.41432 0.16546 0.0
C72 C 0.67344 0.39905 0.16255 0.0
C73 C 0.68861 0.43783 0.15763 0.0
C74 C 0.66032 0.43617 0.14979 0.0
O75 O 0.62592 0.35887 0.14592 0.0
C76 C 0.58571 0.40944 0.1848 0.0
O77 O 0.60848 0.4005 0.19607 0.0
H78 H 0.67262 0.37877 0.16696 0.0
H79 H 0.64779 0.45132 0.14155 0.0
N80 N 0.61084 0.40625 0.11127 0.0
N81 N 0.59019 0.42264 0.07863 0.0
C82 C 0.58591 0.41402 0.10105 0.0
C83 C 0.63153 0.41063 0.09494 0.0
C84 C 0.61886 0.42042 0.07476 0.0
C85 C 0.63968 0.34678 0.12967 0.0
O86 O 0.64261 0.35764 0.10877 0.0
H87 H 0.56523 0.41386 0.11004 0.0
H88 H 0.65441 0.40764 0.09782 0.0
O89 O 0.5849 0.40808 0.16218 0.0
H90 H 0.70231 0.45475 0.15678 0.0
H91 H 0.63008 0.42653 0.05884 0.0
Cu92 Cu 0.14533 0.91674 0.35697 0.0
N93 N 0.17646 0.92766 0.33862 0.0
N94 N 0.20145 0.92547 0.30472 0.0
C95 C 0.18772 0.91218 0.32189 0.0
C96 C 0.19925 0.95049 0.31118 0.0
C97 C 0.184 0.95178 0.33229 0.0
O98 O 0.14984 0.879 0.35914 0.0
C99 C 0.10477 0.95194 0.33944 0.0
O100 O 0.12048 0.96759 0.35259 0.0
H101 H 0.18184 0.892 0.32026 0.0
H102 H 0.17598 0.96915 0.34066 0.0
N103 N 0.14598 0.93256 0.38704 0.0
N104 N 0.13125 0.95403 0.41943 0.0
C105 C 0.12306 0.94095 0.39969 0.0
C106 C 0.16943 0.94056 0.39922 0.0
C107 C 0.16043 0.95363 0.41927 0.0
C108 C 0.17144 0.87035 0.37083 0.0
O109 O 0.18757 0.8868 0.38273 0.0
H110 H 0.10086 0.93828 0.39406 0.0
H111 H 0.19153 0.938 0.39341 0.0
O112 O 0.1109 0.92791 0.33927 0.0
H113 H 0.20522 0.96671 0.30012 0.0
H114 H 0.17429 0.96329 0.43204 0.0
Cu115 Cu 0.60284 0.15055 0.37065 0.0
N116 N 0.62595 0.12206 0.3643 0.0
N117 N 0.65228 0.09428 0.34304 0.0
C118 C 0.64251 0.11874 0.34493 0.0
C119 C 0.64187 0.0819 0.36233 0.0
C120 C 0.62552 0.09909 0.37536 0.0
O121 O 0.62592 0.18162 0.36381 0.0
C122 C 0.57042 0.14375 0.32824 0.0
O123 O 0.59481 0.15028 0.31791 0.0
H124 H 0.64637 0.13381 0.33206 0.0
H125 H 0.61289 0.09478 0.39104 0.0
N126 N 0.59215 0.14853 0.40262 0.0
N127 N 0.5694 0.13494 0.43546 0.0
C128 C 0.56881 0.13622 0.41142 0.0
C129 C 0.60817 0.1552 0.42164 0.0
C130 C 0.59417 0.14701 0.44188 0.0
C131 C 0.62464 0.20273 0.37551 0.0
O132 O 0.60483 0.20535 0.39205 0.0
H133 H 0.55228 0.12768 0.40024 0.0
H134 H 0.6292 0.16434 0.42076 0.0
O135 O 0.56859 0.14544 0.3508 0.0
H136 H 0.64441 0.06156 0.36605 0.0
H137 H 0.60245 0.14872 0.45982 0.0
Cu138 Cu 0.38567 0.60864 0.35262 0.0
N139 N 0.417 0.62891 0.34392 0.0
N140 N 0.44429 0.65528 0.32216 0.0
C141 C 0.41818 0.64399 0.32459 0.0
C142 C 0.4601 0.64722 0.3409 0.0
C143 C 0.44319 0.63077 0.35428 0.0
O144 O 0.35109 0.62964 0.34621 0.0
C145 C 0.39133 0.5767 0.31159 0.0
O146 O 0.38483 0.59785 0.29995 0.0
H147 H 0.40009 0.64673 0.31263 0.0
H148 H 0.44959 0.62063 0.37022 0.0
N149 N 0.38992 0.6012 0.38492 0.0
N150 N 0.40564 0.58209 0.41814 0.0
C151 C 0.40221 0.57999 0.39432 0.0
C152 C 0.38552 0.61732 0.40335 0.0
C153 C 0.39504 0.60556 0.42386 0.0
C154 C 0.32901 0.63142 0.35971 0.0
O155 O 0.32672 0.6158 0.37797 0.0
H156 H 0.40987 0.56395 0.38369 0.0
H157 H 0.37691 0.63664 0.40183 0.0
O158 O 0.38982 0.5768 0.33422 0.0
H159 H 0.48238 0.65244 0.34442 0.0
H160 H 0.39462 0.61387 0.44154 0.0
Cu161 Cu 0.91856 0.40202 0.36299 0.0
N162 N 0.93281 0.37699 0.34235 0.0
N163 N 0.92955 0.35444 0.30855 0.0
C164 C 0.91526 0.3642 0.32738 0.0
C165 C 0.95751 0.36099 0.31203 0.0
C166 C 0.95951 0.37477 0.33306 0.0
O167 O 0.87743 0.39304 0.36702 0.0
C168 C 0.95142 0.44403 0.3471 0.0
O169 O 0.97139 0.43165 0.35912 0.0
H170 H 0.89191 0.36549 0.32833 0.0
H171 H 0.9784 0.38496 0.3395 0.0
N172 N 0.93858 0.40138 0.39202 0.0
N173 N 0.96238 0.41516 0.42436 0.0
C174 C 0.9444 0.42164 0.40636 0.0
C175 C 0.9532 0.38139 0.40131 0.0
C176 C 0.96774 0.38977 0.42132 0.0
C177 C 0.87116 0.37317 0.37941 0.0
O178 O 0.892 0.36161 0.39112 0.0
H179 H 0.93645 0.44094 0.4031 0.0
H180 H 0.95414 0.3623 0.39351 0.0
O181 O 0.92565 0.43507 0.34689 0.0
H182 H 0.97461 0.35847 0.29909 0.0
H183 H 0.98235 0.37835 0.43203 0.0
Cu184 Cu 0.89271 0.41873 0.88728 0.0
N185 N 0.87201 0.42363 0.85928 0.0
N186 N 0.86166 0.41245 0.82174 0.0
C187 C 0.86871 0.40414 0.8437 0.0
C188 C 0.86012 0.43841 0.82369 0.0
C189 C 0.86663 0.44528 0.84691 0.0
O190 O 0.87872 0.38606 0.89985 0.0
C191 C 0.94363 0.4407 0.872 0.0
O192 O 0.92899 0.46148 0.87775 0.0
H193 H 0.87478 0.38449 0.84782 0.0
H194 H 0.86991 0.46465 0.85362 0.0
N195 N 0.88783 0.44515 0.9098 0.0
N196 N 0.89937 0.47307 0.93881 0.0
C197 C 0.9071 0.4515 0.92686 0.0
C198 C 0.86693 0.46311 0.91113 0.0
C199 C 0.87393 0.4803 0.92905 0.0
C200 C 0.85249 0.386 0.90679 0.0
O201 O 0.83828 0.40792 0.90698 0.0
H202 H 0.9269 0.44088 0.92983 0.0
H203 H 0.84847 0.46415 0.89933 0.0
O204 O 0.9326 0.41862 0.87625 0.0
H205 H 0.85656 0.45161 0.8091 0.0
H206 H 0.86189 0.49746 0.93373 0.0
Cu207 Cu 0.10213 0.91871 0.87018 0.0
N208 N 0.06778 0.91837 0.85288 0.0
N209 N 0.0352 0.9315 0.82616 0.0
C210 C 0.06293 0.93293 0.83353 0.0
C211 C 0.02203 0.91533 0.84155 0.0
C212 C 0.04226 0.90722 0.85803 0.0
O213 O 0.09539 0.93917 0.89858 0.0
C214 C 0.15735 0.93691 0.85263 0.0
O215 O 0.16883 0.92984 0.87297 0.0
H216 H 0.07912 0.9455 0.82584 0.0
H217 H 0.03837 0.89492 0.8732 0.0
N218 N 0.11298 0.88519 0.87854 0.0
N219 N 0.13883 0.84909 0.88345 0.0
C220 C 0.13747 0.87249 0.87289 0.0
C221 C 0.09823 0.86927 0.89296 0.0
C222 C 0.11406 0.84703 0.89602 0.0
C223 C 0.09079 0.96331 0.89715 0.0
O224 O 0.093 0.97462 0.87634 0.0
H225 H 0.15431 0.88055 0.86183 0.0
H226 H 0.07761 0.87375 0.90102 0.0
O227 O 0.13038 0.93409 0.84917 0.0
H228 H 0.99933 0.91021 0.84126 0.0
H229 H 0.10777 0.83066 0.90676 0.0
Cu230 Cu 0.64311 0.1214 0.88329 0.0
N231 N 0.6681 0.11511 0.85808 0.0
N232 N 0.68255 0.12445 0.82113 0.0
C233 C 0.6731 0.1338 0.84212 0.0
C234 C 0.68404 0.09863 0.82419 0.0
C235 C 0.67505 0.0929 0.84706 0.0
O236 O 0.6538 0.15552 0.89496 0.0
C237 C 0.59656 0.09594 0.86414 0.0
O238 O 0.61267 0.07656 0.87118 0.0
H239 H 0.66611 0.15351 0.84487 0.0
H240 H 0.67092 0.07386 0.85413 0.0
N241 N 0.64531 0.09727 0.90794 0.0
N242 N 0.62998 0.07274 0.93817 0.0
C243 C 0.62369 0.0924 0.92329 0.0
C244 C 0.66623 0.08023 0.91321 0.0
C245 C 0.65688 0.06511 0.93189 0.0
C246 C 0.67829 0.15694 0.90534 0.0
O247 O 0.6926 0.13549 0.90925 0.0
H248 H 0.60323 0.10243 0.92268 0.0
H249 H 0.68655 0.07858 0.90382 0.0
O250 O 0.60496 0.11888 0.86871 0.0
H251 H 0.6889 0.08473 0.81036 0.0
H252 H 0.66893 0.04955 0.93995 0.0
Cu253 Cu 0.40986 0.59812 0.87376 0.0
N254 N 0.44014 0.60112 0.85203 0.0
N255 N 0.47349 0.58877 0.82559 0.0
C256 C 0.45772 0.58199 0.84481 0.0
C257 C 0.46608 0.61346 0.82103 0.0
C258 C 0.44545 0.62099 0.83732 0.0
O259 O 0.4236 0.57881 0.90128 0.0
C260 C 0.37972 0.56285 0.8435 0.0
O261 O 0.40437 0.55037 0.84271 0.0
H262 H 0.45777 0.56302 0.85278 0.0
H263 H 0.43379 0.63906 0.83749 0.0
N264 N 0.3985 0.63107 0.8834 0.0
N265 N 0.37218 0.66695 0.8879 0.0
C266 C 0.37345 0.64305 0.8782 0.0
C267 C 0.41369 0.64787 0.89674 0.0
C268 C 0.39753 0.66999 0.89958 0.0
C269 C 0.4167 0.55569 0.9064 0.0
O270 O 0.39782 0.54336 0.89309 0.0
H271 H 0.35639 0.63424 0.86776 0.0
H272 H 0.43508 0.64428 0.9038 0.0
O273 O 0.37732 0.58248 0.85704 0.0
H274 H 0.47339 0.62465 0.80595 0.0
H275 H 0.40418 0.68711 0.90923 0.0
Cu276 Cu 0.92788 0.15424 0.62476 0.0
N277 N 0.94492 0.18341 0.63852 0.0
N278 N 0.9477 0.22129 0.65756 0.0
C279 C 0.93051 0.20463 0.64563 0.0
C280 C 0.9741 0.21017 0.65781 0.0
C281 C 0.97233 0.18682 0.64596 0.0
O282 O 0.88789 0.16368 0.61913 0.0
C283 C 0.93412 0.12691 0.6682 0.0
O284 O 0.93206 0.14993 0.67788 0.0
H285 H 0.9075 0.20719 0.6432 0.0
H286 H 0.98948 0.17285 0.64375 0.0
N287 N 0.94525 0.147 0.59557 0.0
N288 N 0.96763 0.12628 0.5659 0.0
C289 C 0.95978 0.12557 0.58906 0.0
C290 C 0.944 0.16178 0.57599 0.0
C291 C 0.95775 0.14907 0.55766 0.0
C292 C 0.86945 0.16537 0.63584 0.0
O293 O 0.8761 0.15633 0.65693 0.0
H294 H 0.96374 0.1095 0.60087 0.0
H295 H 0.93341 0.18034 0.57506 0.0
O296 O 0.93209 0.12459 0.6457 0.0
H297 H 0.99315 0.21805 0.66638 0.0
H298 H 0.9603 0.15611 0.53968 0.0
Cu299 Cu 0.3895 0.94853 0.63122 0.0
N300 N 0.42077 0.95109 0.65194 0.0
N301 N 0.44936 0.96783 0.68019 0.0
C302 C 0.42584 0.97139 0.66632 0.0
C303 C 0.45947 0.94423 0.67413 0.0
C304 C 0.44174 0.93394 0.65672 0.0
O305 O 0.39885 0.96862 0.60314 0.0
C306 C 0.3304 0.95873 0.64444 0.0
O307 O 0.32264 0.94716 0.6246 0.0
H308 H 0.4124 0.98843 0.66648 0.0
H309 H 0.44372 0.91519 0.64839 0.0
N310 N 0.38298 0.91406 0.62263 0.0
N311 N 0.36246 0.87511 0.61838 0.0
C312 C 0.36178 0.89803 0.62997 0.0
C313 C 0.39781 0.90075 0.60613 0.0
C314 C 0.38526 0.87677 0.60346 0.0
C315 C 0.39912 0.99317 0.60332 0.0
O316 O 0.39046 1.00546 0.62249 0.0
H317 H 0.34562 0.90339 0.64296 0.0
H318 H 0.41616 0.9082 0.59638 0.0
O319 O 0.35706 0.962 0.64901 0.0
H320 H 0.47793 0.93475 0.68205 0.0
H321 H 0.39232 0.86183 0.59132 0.0
Cu322 Cu 0.5993 0.37541 0.62309 0.0
N323 N 0.58429 0.34589 0.63749 0.0
N324 N 0.58428 0.30827 0.65677 0.0
C325 C 0.59992 0.32513 0.64385 0.0
C326 C 0.55763 0.31873 0.65843 0.0
C327 C 0.55767 0.34193 0.64639 0.0
O328 O 0.63946 0.36729 0.61657 0.0
C329 C 0.59369 0.40291 0.66658 0.0
O330 O 0.59776 0.38011 0.67615 0.0
H331 H 0.62279 0.32313 0.64032 0.0
H332 H 0.54 0.35551 0.64516 0.0
N333 N 0.58013 0.38117 0.5944 0.0
N334 N 0.5548 0.39983 0.56519 0.0
C335 C 0.56555 0.40237 0.5875 0.0
C336 C 0.57864 0.36468 0.57595 0.0
C337 C 0.56306 0.37608 0.55794 0.0
C338 C 0.65868 0.36713 0.63279 0.0
O339 O 0.65267 0.37733 0.6536 0.0
H340 H 0.56279 0.41919 0.59871 0.0
H341 H 0.58846 0.34575 0.5756 0.0
O342 O 0.59438 0.40514 0.64402 0.0
H343 H 0.53966 0.31059 0.6682 0.0
H344 H 0.55873 0.36764 0.54067 0.0
Cu345 Cu 0.13171 0.59446 0.6361 0.0
N346 N 0.10497 0.59131 0.6607 0.0
N347 N 0.07995 0.57323 0.69031 0.0
C348 C 0.09762 0.56916 0.67159 0.0
C349 C 0.07578 0.59901 0.69103 0.0
C350 C 0.09133 0.61012 0.67278 0.0
O351 O 0.11879 0.57229 0.61006 0.0
C352 C 0.17435 0.56048 0.65476 0.0
O353 O 0.15628 0.5419 0.64894 0.0
H354 H 0.10536 0.55044 0.66601 0.0
H355 H 0.09331 0.63051 0.66907 0.0
N356 N 0.13558 0.62915 0.62753 0.0
N357 N 0.15543 0.66833 0.62335 0.0
C358 C 0.15974 0.64354 0.62984 0.0
C359 C 0.11516 0.64537 0.61943 0.0
C360 C 0.12737 0.66951 0.6167 0.0
C361 C 0.11556 0.57927 0.58852 0.0
O362 O 0.12302 0.60273 0.58222 0.0
H363 H 0.18007 0.63589 0.63624 0.0
H364 H 0.09288 0.64006 0.6161 0.0
O365 O 0.16841 0.58361 0.64916 0.0
H366 H 0.06334 0.60924 0.70433 0.0
H367 H 0.11621 0.68672 0.61089 0.0
H368 H 0.17366 0.69845 0.18684 0.0
H369 H 0.20737 0.7344 0.19339 0.0
H370 H 0.23466 0.72957 0.12026 0.0
H371 H 0.20088 0.69398 0.11346 0.0
H372 H 0.26915 0.73988 0.18589 0.0
H373 H 0.20661 0.8045 0.12612 0.0
H374 H 0.19113 0.77565 0.13891 0.0
H375 H 0.21579 0.77339 0.11435 0.0
C376 C 0.18722 0.70467 0.17225 0.0
C377 C 0.18433 0.69333 0.14955 0.0
C378 C 0.2064 0.72537 0.176 0.0
C379 C 0.22306 0.73516 0.15717 0.0
C380 C 0.2215 0.72285 0.13492 0.0
H381 H 0.33783 0.86642 0.13542 0.0
H382 H 0.3054 0.82923 0.13159 0.0
C383 C 0.20232 0.70228 0.13113 0.0
C384 C 0.24151 0.7586 0.16051 0.0
H385 H 0.2504 0.82081 0.14162 0.0
C386 C 0.265 0.75762 0.17631 0.0
C387 C 0.23623 0.78172 0.14787 0.0
C388 C 0.21097 0.78411 0.13098 0.0
C389 C 0.2838 0.77884 0.17935 0.0
C390 C 0.27841 0.80213 0.16687 0.0
C391 C 0.25467 0.80311 0.15122 0.0
C392 C 0.29741 0.82547 0.16936 0.0
C393 C 0.30988 0.77566 0.19525 0.0
C394 C 0.30331 0.83639 0.19178 0.0
C395 C 0.32215 0.85753 0.19404 0.0
C396 C 0.33512 0.86867 0.17388 0.0
C397 C 0.32825 0.85841 0.15135 0.0
C398 C 0.30969 0.83706 0.14913 0.0
H399 H 0.31568 0.75501 0.19748 0.0
H400 H 0.32896 0.78607 0.18806 0.0
H401 H 0.30492 0.7836 0.21313 0.0
H402 H 0.29345 0.8285 0.20764 0.0
H403 H 0.32669 0.86504 0.21166 0.0
H404 H 0.82407 0.17115 0.19786 0.0
H405 H 0.78621 0.20401 0.19464 0.0
H406 H 0.79894 0.20702 0.11879 0.0
H407 H 0.8368 0.17425 0.12179 0.0
H408 H 0.7882 0.25588 0.17409 0.0
H409 H 0.71116 0.19085 0.12729 0.0
H410 H 0.7421 0.17894 0.1435 0.0
H411 H 0.74667 0.19262 0.11442 0.0
C412 C 0.819 0.1789 0.18049 0.0
C413 C 0.83349 0.16988 0.16007 0.0
C414 C 0.79731 0.19771 0.17869 0.0
C415 C 0.7894 0.20772 0.15644 0.0
C416 C 0.80434 0.1993 0.13612 0.0
H417 H 0.66657 0.31484 0.09814 0.0
H418 H 0.70157 0.28092 0.10651 0.0
C419 C 0.82614 0.18063 0.1379 0.0
C420 C 0.76528 0.22667 0.15435 0.0
H421 H 0.69826 0.23501 0.12976 0.0
C422 C 0.76841 0.25128 0.16458 0.0
C423 C 0.73945 0.22067 0.14194 0.0
C424 C 0.73439 0.19428 0.1313 0.0
C425 C 0.7469 0.27032 0.162 0.0
C426 C 0.72115 0.2644 0.14936 0.0
C427 C 0.71787 0.2396 0.13951 0.0
C428 C 0.69822 0.28407 0.14478 0.0
C429 C 0.7525 0.29695 0.17196 0.0
C430 C 0.68377 0.29674 0.16348 0.0
C431 C 0.66351 0.31625 0.15872 0.0
C432 C 0.65723 0.32344 0.13514 0.0
C433 C 0.67083 0.3099 0.11652 0.0
C434 C 0.69095 0.29046 0.12128 0.0
H435 H 0.77576 0.30007 0.17609 0.0
H436 H 0.74539 0.31204 0.15926 0.0
H437 H 0.74009 0.29943 0.18868 0.0
H438 H 0.68847 0.2918 0.18178 0.0
H439 H 0.65359 0.32632 0.17351 0.0
H440 H 0.15904 0.83419 0.33597 0.0
H441 H 0.18161 0.79161 0.33082 0.0
H442 H 0.22876 0.80247 0.39633 0.0
H443 H 0.20689 0.84489 0.40127 0.0
H444 H 0.26418 0.78818 0.36091 0.0
H445 H 0.1695 0.72218 0.3628 0.0
H446 H 0.16727 0.74758 0.34121 0.0
H447 H 0.16736 0.7554 0.37237 0.0
C448 C 0.17372 0.82722 0.34952 0.0
C449 C 0.1811 0.84298 0.36907 0.0
C450 C 0.18664 0.80282 0.34657 0.0
C451 C 0.20688 0.79361 0.36326 0.0
C452 C 0.21335 0.80904 0.38315 0.0
H453 H 0.28308 0.64392 0.38831 0.0
H454 H 0.25282 0.68249 0.38668 0.0
C455 C 0.20071 0.83334 0.38599 0.0
C456 C 0.22296 0.76886 0.35958 0.0
H457 H 0.21499 0.70336 0.35434 0.0
C458 C 0.25336 0.76966 0.35937 0.0
C459 C 0.20898 0.74457 0.35774 0.0
C460 C 0.17649 0.74221 0.35873 0.0
C461 C 0.2701 0.74707 0.35777 0.0
C462 C 0.25617 0.72277 0.35572 0.0
C463 C 0.22574 0.72193 0.35568 0.0
C464 C 0.27288 0.69806 0.35508 0.0
C465 C 0.3026 0.74944 0.35925 0.0
C466 C 0.29378 0.69335 0.33743 0.0
C467 C 0.31133 0.67129 0.33838 0.0
C468 C 0.3082 0.65323 0.35688 0.0
C469 C 0.28625 0.65736 0.37382 0.0
C470 C 0.26883 0.67947 0.37291 0.0
H471 H 0.30942 0.76836 0.36675 0.0
H472 H 0.31192 0.73389 0.37041 0.0
H473 H 0.31187 0.74776 0.34112 0.0
H474 H 0.29694 0.70702 0.32314 0.0
H475 H 0.32783 0.66873 0.32493 0.0
H476 H 0.84835 0.33928 0.41109 0.0
H477 H 0.80443 0.31346 0.40715 0.0
H478 H 0.78468 0.35135 0.34095 0.0
H479 H 0.82869 0.37782 0.34505 0.0
H480 H 0.7355 0.34295 0.36845 0.0
H481 H 0.79888 0.25288 0.36152 0.0
H482 H 0.80716 0.27062 0.38812 0.0
H483 H 0.81536 0.28438 0.35953 0.0
C484 C 0.83454 0.3424 0.39579 0.0
C485 C 0.84218 0.36058 0.37833 0.0
C486 C 0.80948 0.32743 0.39347 0.0
C487 C 0.79154 0.32986 0.37343 0.0
C488 C 0.79827 0.3489 0.35648 0.0
H489 H 0.66794 0.20506 0.34199 0.0
H490 H 0.70669 0.23717 0.33878 0.0
C491 C 0.82337 0.36414 0.3589 0.0
C492 C 0.76637 0.312 0.37014 0.0
H493 H 0.74833 0.24794 0.36897 0.0
C494 C 0.73832 0.32218 0.36835 0.0
C495 C 0.76993 0.28483 0.36946 0.0
C496 C 0.79948 0.27252 0.3695 0.0
C497 C 0.71378 0.306 0.3669 0.0
C498 C 0.71726 0.27881 0.36777 0.0
C499 C 0.74542 0.2687 0.3686 0.0
C500 C 0.69218 0.26044 0.36849 0.0
C501 C 0.68442 0.31829 0.36422 0.0
C502 C 0.67088 0.26263 0.38619 0.0
C503 C 0.64852 0.2444 0.38792 0.0
C504 C 0.64707 0.22321 0.37222 0.0
C505 C 0.66826 0.22112 0.35436 0.0
C506 C 0.69052 0.2395 0.35253 0.0
H507 H 0.68607 0.33761 0.3558 0.0
H508 H 0.66969 0.30607 0.35335 0.0
H509 H 0.67467 0.32095 0.38207 0.0
H510 H 0.67196 0.27806 0.3992 0.0
H511 H 0.63283 0.24657 0.40206 0.0
H512 H 0.79907 0.38087 0.92646 0.0
H513 H 0.76975 0.34189 0.92949 0.0
H514 H 0.83972 0.29697 0.90038 0.0
H515 H 0.86933 0.33619 0.89701 0.0
H516 H 0.78655 0.28894 0.87742 0.0
H517 H 0.77411 0.2808 0.9752 0.0
H518 H 0.76507 0.31206 0.96373 0.0
H519 H 0.80166 0.3006 0.96161 0.0
C520 C 0.80848 0.36267 0.92102 0.0
C521 C 0.83659 0.36166 0.9115 0.0
C522 C 0.79168 0.34034 0.9229 0.0
C523 C 0.80261 0.31646 0.91539 0.0
C524 C 0.83092 0.31521 0.90639 0.0
H525 H 0.72633 0.16546 0.93219 0.0
H526 H 0.75492 0.20495 0.93511 0.0
C527 C 0.84787 0.3376 0.90459 0.0
C528 C 0.78367 0.29327 0.91544 0.0
H529 H 0.74269 0.25481 0.95145 0.0
C530 C 0.77707 0.28138 0.89362 0.0
C531 C 0.77137 0.28341 0.93659 0.0
C532 C 0.77858 0.2947 0.96065 0.0
C533 C 0.75825 0.2601 0.89233 0.0
C534 C 0.74532 0.25068 0.9134 0.0
C535 C 0.75224 0.26233 0.93527 0.0
C536 C 0.72613 0.22765 0.91325 0.0
C537 C 0.7528 0.24755 0.86847 0.0
C538 C 0.69985 0.2275 0.90064 0.0
C539 C 0.6833 0.20485 0.89896 0.0
C540 C 0.69284 0.182 0.90987 0.0
C541 C 0.71844 0.18266 0.92343 0.0
C542 C 0.73483 0.20524 0.92516 0.0
H543 H 0.76909 0.25349 0.85503 0.0
H544 H 0.75313 0.22619 0.87 0.0
H545 H 0.73114 0.25332 0.86188 0.0
H546 H 0.69247 0.24474 0.89166 0.0
H547 H 0.66371 0.20498 0.88838 0.0
H548 H 0.35963 0.70564 0.91891 0.0
H549 H 0.31993 0.73651 0.91627 0.0
H550 H 0.29158 0.70115 0.85074 0.0
H551 H 0.33135 0.67023 0.85316 0.0
H552 H 0.307 0.77229 0.88108 0.0
H553 H 0.21806 0.70098 0.89115 0.0
H554 H 0.25529 0.69332 0.89768 0.0
H555 H 0.24281 0.69404 0.86739 0.0
C556 C 0.34512 0.70447 0.90383 0.0
C557 C 0.34872 0.68528 0.8863 0.0
C558 C 0.32233 0.72211 0.9024 0.0
C559 C 0.30253 0.72094 0.88349 0.0
C560 C 0.30622 0.70208 0.86578 0.0
H561 H 0.17896 0.84339 0.84848 0.0
H562 H 0.21901 0.81258 0.8475 0.0
C563 C 0.32899 0.68438 0.8672 0.0
C564 C 0.27821 0.73963 0.88231 0.0
H565 H 0.20448 0.74397 0.88259 0.0
C566 C 0.28457 0.76612 0.88137 0.0
C567 C 0.24896 0.73155 0.88295 0.0
C568 C 0.24075 0.70345 0.88506 0.0
C569 C 0.2625 0.78474 0.88099 0.0
C570 C 0.23325 0.77664 0.88122 0.0
C571 C 0.2269 0.75015 0.88221 0.0
C572 C 0.20889 0.79534 0.8815 0.0
C573 C 0.27072 0.81294 0.88102 0.0
C574 C 0.18948 0.79554 0.90066 0.0
C575 C 0.16654 0.81307 0.90124 0.0
C576 C 0.16237 0.83078 0.88261 0.0
C577 C 0.18173 0.83035 0.8633 0.0
C578 C 0.20468 0.81274 0.86272 0.0
H579 H 0.29354 0.81595 0.88662 0.0
H580 H 0.26823 0.82075 0.86278 0.0
H581 H 0.25645 0.82417 0.89307 0.0
H582 H 0.19229 0.78231 0.91536 0.0
H583 H 0.15239 0.81299 0.91655 0.0
H584 H 0.67191 0.33528 0.59543 0.0
H585 H 0.70819 0.30105 0.59478 0.0
H586 H 0.73849 0.3248 0.66401 0.0
H587 H 0.70229 0.35918 0.6649 0.0
H588 H 0.78334 0.31138 0.62941 0.0
H589 H 0.69773 0.23664 0.63916 0.0
H590 H 0.69219 0.25949 0.61558 0.0
H591 H 0.69172 0.27029 0.64594 0.0
C592 C 0.68663 0.3336 0.61035 0.0
C593 C 0.68402 0.34987 0.63032 0.0
C594 C 0.7072 0.31389 0.61 0.0
C595 C 0.72557 0.31014 0.62954 0.0
C596 C 0.72431 0.3273 0.64884 0.0
H597 H 0.82734 0.17615 0.66855 0.0
H598 H 0.79144 0.21073 0.66667 0.0
C599 C 0.70365 0.34697 0.64927 0.0
C600 C 0.74516 0.28761 0.63031 0.0
H601 H 0.74548 0.22173 0.6327 0.0
C602 C 0.77513 0.29178 0.63009 0.0
C603 C 0.73427 0.26211 0.6317 0.0
C604 C 0.70224 0.25672 0.63332 0.0
C605 C 0.79457 0.27101 0.63066 0.0
C606 C 0.78366 0.24548 0.63113 0.0
C607 C 0.7537 0.24133 0.63194 0.0
C608 C 0.8032 0.22289 0.63121 0.0
C609 C 0.82665 0.2765 0.63113 0.0
C610 C 0.82084 0.21767 0.61151 0.0
C611 C 0.84122 0.19783 0.61244 0.0
C612 C 0.84438 0.1829 0.63315 0.0
C613 C 0.82553 0.1873 0.65236 0.0
C614 C 0.80505 0.20709 0.65136 0.0
H615 H 0.83135 0.29691 0.63589 0.0
H616 H 0.83779 0.26374 0.64406 0.0
H617 H 0.83587 0.27265 0.61326 0.0
H618 H 0.81937 0.22942 0.59565 0.0
H619 H 0.85532 0.19497 0.5973 0.0
H620 H 0.20247 0.6728 0.65213 0.0
H621 H 0.23745 0.70821 0.65323 0.0
H622 H 0.19084 0.74681 0.59724 0.0
H623 H 0.15571 0.7115 0.59609 0.0
H624 H 0.27354 0.72591 0.61895 0.0
H625 H 0.19875 0.80391 0.64625 0.0
H626 H 0.18897 0.77022 0.64769 0.0
H627 H 0.1871 0.78725 0.61989 0.0
C628 C 0.19967 0.68875 0.63997 0.0
C629 C 0.17614 0.68928 0.62405 0.0
C630 C 0.21965 0.70907 0.64071 0.0
C631 C 0.21655 0.73042 0.62561 0.0
C632 C 0.19329 0.7309 0.60952 0.0
H633 H 0.34913 0.8396 0.58446 0.0
H634 H 0.31443 0.80427 0.58739 0.0
C635 C 0.17322 0.71063 0.60884 0.0
C636 C 0.23819 0.75174 0.62617 0.0
H637 H 0.24543 0.81704 0.63282 0.0
C638 C 0.2674 0.74581 0.62212 0.0
C639 C 0.23031 0.77769 0.63069 0.0
C640 C 0.19963 0.78517 0.63662 0.0
C641 C 0.28878 0.76514 0.62186 0.0
C642 C 0.28069 0.79123 0.62526 0.0
C643 C 0.25161 0.79709 0.62995 0.0
C644 C 0.302 0.81273 0.62367 0.0
C645 C 0.31989 0.75734 0.61821 0.0
C646 C 0.3061 0.82978 0.64286 0.0
C647 C 0.32596 0.85017 0.64121 0.0
C648 C 0.3421 0.85398 0.62029 0.0
C649 C 0.33766 0.83698 0.60104 0.0
C650 C 0.31777 0.8167 0.60268 0.0
H651 H 0.32348 0.73681 0.62299 0.0
H652 H 0.32559 0.7597 0.59917 0.0
H653 H 0.33474 0.76956 0.62897 0.0
H654 H 0.29408 0.82719 0.65921 0.0
H655 H 0.3289 0.86274 0.65642 0.0
H656 H 0.92644 0.46283 0.30607 0.0
H657 H 0.9467 0.4958 0.27935 0.0
H658 H 0.01646 0.50909 0.32891 0.0
H659 H 0.99693 0.47595 0.35511 0.0
H660 H 0.96051 0.54751 0.28319 0.0
H661 H 0.06046 0.49092 0.2693 0.0
H662 H 0.02895 0.47757 0.28365 0.0
H663 H 0.05399 0.49738 0.30018 0.0
C664 C 0.94587 0.47307 0.31136 0.0
C665 C 0.96027 0.46657 0.33256 0.0
C666 C 0.9575 0.49182 0.29605 0.0
C667 C 0.98363 0.50442 0.30176 0.0
C668 C 0.99686 0.49908 0.32368 0.0
H669 H 0.08929 0.62795 0.24667 0.0
H670 H 0.06303 0.5961 0.27052 0.0
C671 C 0.98551 0.48023 0.33875 0.0
C672 C 0.99769 0.52262 0.28478 0.0
H673 H 0.06181 0.5349 0.25655 0.0
C674 C 0.98253 0.5446 0.27717 0.0
C675 C 0.02641 0.51877 0.27666 0.0
C676 C 0.0433 0.49475 0.28266 0.0
C677 C 0.99572 0.56321 0.26249 0.0
C678 C 0.02474 0.55979 0.25527 0.0
C679 C 0.03965 0.53759 0.26235 0.0
C680 C 0.04019 0.57928 0.24067 0.0
C681 C 0.97891 0.58677 0.25513 0.0
C682 C 0.03627 0.58019 0.21594 0.0
C683 C 0.05146 0.59822 0.20219 0.0
C684 C 0.07078 0.61581 0.21295 0.0
C685 C 0.0746 0.61477 0.23777 0.0
C686 C 0.05958 0.5966 0.25146 0.0
H687 H 0.95701 0.58731 0.2632 0.0
H688 H 0.9909 0.60448 0.2604 0.0
H689 H 0.97663 0.58701 0.23547 0.0
H690 H 0.02153 0.56687 0.20727 0.0
H691 H 0.04789 0.59849 0.18315 0.0
H692 H 0.96753 0.07965 0.17598 0.0
H693 H 1.00069 0.05451 0.20083 0.0
H694 H 0.93352 0.04488 0.25321 0.0
H695 H 0.90015 0.06924 0.22825 0.0
H696 H 0.02211 0.06053 0.24433 0.0
H697 H 0.95669 0.97113 0.24333 0.0
H698 H 0.94893 0.99807 0.22413 0.0
H699 H 0.93649 0.99805 0.25448 0.0
C700 C 0.95989 0.07233 0.19287 0.0
C701 C 0.93108 0.07633 0.20002 0.0
C702 C 0.97885 0.05784 0.20704 0.0
C703 C 0.96944 0.0471 0.22864 0.0
C704 C 0.94109 0.05213 0.23628 0.0
H705 H 0.07739 0.9978 0.34514 0.0
H706 H 0.04472 0.01935 0.31758 0.0
C707 C 0.92208 0.06635 0.22206 0.0
C708 C 0.9893 0.03101 0.24341 0.0
H709 H 0.99448 0.97326 0.27251 0.0
C710 C 0.01612 0.04138 0.25032 0.0
C711 C 0.98192 1.00571 0.25087 0.0
C712 C 0.95458 0.99247 0.2426 0.0
C713 C 0.03518 0.02763 0.2651 0.0
C714 C 0.02695 1.00305 0.27384 0.0
C715 C 1.00064 0.99224 0.2662 0.0
C716 C 0.04504 0.98869 0.29137 0.0
C717 C 0.06414 0.03957 0.27098 0.0
C718 C 0.05483 0.96349 0.28661 0.0
C719 C 0.07323 0.9508 0.30269 0.0
C720 C 0.08218 0.96315 0.32377 0.0
C721 C 0.07124 0.98785 0.32892 0.0
C722 C 0.05272 1.00034 0.31305 0.0
H723 H 0.07088 0.05366 0.25718 0.0
H724 H 0.06252 0.05012 0.28813 0.0
H725 H 0.08121 0.02465 0.27265 0.0
H726 H 0.04895 0.95395 0.27012 0.0
H727 H 0.08133 0.93181 0.29817 0.0
H728 H 0.52064 0.12067 0.34462 0.0
H729 H 0.48756 0.09255 0.32228 0.0
H730 H 0.53583 0.10703 0.25815 0.0
H731 H 0.56904 0.13493 0.28025 0.0
H732 H 0.45223 0.09994 0.28117 0.0
H733 H 0.53865 0.02793 0.26512 0.0
H734 H 0.54228 0.05359 0.28672 0.0
H735 H 0.54783 0.05997 0.25564 0.0
C736 C 0.52399 0.11819 0.32569 0.0
C737 C 0.5477 0.12996 0.3143 0.0
C738 C 0.50507 0.10204 0.31295 0.0
C739 C 0.50956 0.09724 0.28863 0.0
C740 C 0.53228 0.11001 0.277 0.0
H741 H 0.40279 0.02704 0.18022 0.0
H742 H 0.42648 0.05626 0.20829 0.0
C743 C 0.55116 0.12613 0.28967 0.0
C744 C 0.49126 0.07821 0.27553 0.0
H745 H 0.49479 0.02202 0.24367 0.0
C746 C 0.46148 0.08282 0.27308 0.0
C747 C 0.50319 0.05559 0.26535 0.0
C748 C 0.53468 0.04876 0.26849 0.0
C749 C 0.44356 0.06591 0.26001 0.0
C750 C 0.45579 0.04394 0.24887 0.0
C751 C 0.48538 0.03892 0.25203 0.0
C752 C 0.4387 0.02638 0.23313 0.0
C753 C 0.41166 0.07165 0.25839 0.0
C754 C 0.43763 0.99971 0.2376 0.0
C755 C 0.42414 0.98284 0.22146 0.0
C756 C 0.41166 0.99226 0.20035 0.0
C757 C 0.41203 0.01906 0.19631 0.0
C758 C 0.42546 0.03589 0.21245 0.0
H759 H 0.40438 0.08406 0.27337 0.0
H760 H 0.40726 0.08213 0.24158 0.0
H761 H 0.39865 0.05361 0.25836 0.0
H762 H 0.44782 0.99187 0.25336 0.0
H763 H 0.42444 0.96234 0.22513 0.0
H764 H 0.54086 0.43816 0.16691 0.0
H765 H 0.50528 0.46346 0.18915 0.0
H766 H 0.54172 0.43639 0.25513 0.0
H767 H 0.57785 0.41166 0.23306 0.0
H768 H 0.46318 0.45153 0.22066 0.0
H769 H 0.54511 0.51311 0.26537 0.0
H770 H 0.55415 0.49169 0.24119 0.0
H771 H 0.55024 0.47937 0.27092 0.0
C772 C 0.54127 0.43749 0.18616 0.0
C773 C 0.56247 0.42303 0.19817 0.0
C774 C 0.52086 0.452 0.19887 0.0
C775 C 0.52114 0.45237 0.22387 0.0
C776 C 0.54152 0.43708 0.23588 0.0
H777 H 0.4202 0.53541 0.33074 0.0
H778 H 0.44953 0.50341 0.30962 0.0
C779 C 0.56208 0.42276 0.2232 0.0
C780 C 0.5004 0.46898 0.23732 0.0
H781 H 0.4967 0.51757 0.27855 0.0
C782 C 0.47055 0.466 0.23327 0.0
C783 C 0.5099 0.48801 0.25376 0.0
C784 C 0.54159 0.49347 0.25793 0.0
C785 C 0.45006 0.48122 0.24538 0.0
C786 C 0.45961 0.50005 0.2619 0.0
C787 C 0.48938 0.50296 0.26604 0.0
C788 C 0.43925 0.51765 0.2745 0.0
C789 C 0.41831 0.47688 0.24063 0.0
C790 C 0.4234 0.53614 0.26179 0.0
C791 C 0.40669 0.55455 0.27382 0.0
C792 C 0.40542 0.55486 0.29884 0.0
C793 C 0.42047 0.53567 0.31148 0.0
C794 C 0.43737 0.5174 0.29943 0.0
H795 H 0.41424 0.458 0.23181 0.0
H796 H 0.40574 0.4777 0.25743 0.0
H797 H 0.4102 0.49234 0.22876 0.0
H798 H 0.42482 0.53697 0.24258 0.0
H799 H 0.39552 0.56906 0.26349 0.0
H800 H 0.10497 0.52743 0.70155 0.0
H801 H 0.08765 0.49568 0.7303 0.0
H802 H 0.01484 0.54446 0.74656 0.0
H803 H 0.03153 0.57597 0.71734 0.0
H804 H 0.0794 0.50213 0.7786 0.0
H805 H 0.97668 0.47443 0.73479 0.0
H806 H 1.00507 0.4916 0.71944 0.0
H807 H 0.98013 0.50873 0.73827 0.0
C808 C 0.08498 0.53123 0.71089 0.0
C809 C 0.06951 0.55423 0.70697 0.0
C810 C 0.07523 0.51311 0.72746 0.0
C811 C 0.04972 0.51749 0.74029 0.0
C812 C 0.03428 0.54042 0.73649 0.0
H813 H 0.98198 0.48005 0.87224 0.0
H814 H 0.0138 0.49257 0.83977 0.0
C815 C 0.04402 0.55857 0.71997 0.0
C816 C 0.03984 0.4988 0.7585 0.0
H817 H 0.98044 0.46505 0.77659 0.0
C818 C 0.05795 0.49364 0.77798 0.0
C819 C 1.01215 0.48721 0.75744 0.0
C820 C 0.9925 0.49053 0.73623 0.0
C821 C 0.04828 0.47869 0.79722 0.0
C822 C 0.01967 0.46898 0.79707 0.0
C823 C 1.00233 0.47262 0.77682 0.0
C824 C 1.00583 0.45824 0.8187 0.0
C825 C 0.06857 0.47399 0.81777 0.0
C826 C 0.99125 0.4344 0.81802 0.0
C827 C 0.973 0.42713 0.83676 0.0
C828 C 0.96879 0.44384 0.85617 0.0
C829 C 0.98498 0.46675 0.85753 0.0
C830 C 1.00331 0.47388 0.839 0.0
H831 H 0.09145 0.47395 0.81177 0.0
H832 H 0.06613 0.48977 0.83099 0.0
H833 H 0.06382 0.45536 0.82668 0.0
H834 H 0.9927 0.42214 0.80244 0.0
H835 H 0.96044 0.40955 0.83509 0.0
H836 H 0.98009 0.94937 0.82418 0.0
H837 H 0.96011 0.97914 0.79473 0.0
H838 H 0.04097 0.97801 0.75659 0.0
H839 H 0.06105 0.94838 0.78601 0.0
H840 H 0.023 0.02663 0.76627 0.0
H841 H 0.93299 0.97045 0.72624 0.0
H842 H 0.93169 0.97201 0.75813 0.0
H843 H 0.96117 0.95565 0.74376 0.0
C844 C 0.99337 0.955 0.80923 0.0
C845 C 0.02221 0.94662 0.8075 0.0
C846 C 0.98191 0.97199 0.79237 0.0
C847 C 0.99896 0.98064 0.77332 0.0
C848 C 0.02742 0.97159 0.77114 0.0
H849 H 0.94674 0.07747 0.65398 0.0
H850 H 0.96153 0.04129 0.67918 0.0
C851 C 0.03891 0.95475 0.78802 0.0
C852 C 0.98818 1.00085 0.7569 0.0
H853 H 0.93419 1.01556 0.71766 0.0
C854 C 1.00367 0.02412 0.75555 0.0
C855 C 0.96311 0.99749 0.74274 0.0
C856 C 0.9464 0.97246 0.74256 0.0
C857 C 0.99455 0.04429 0.74077 0.0
C858 C 0.96888 0.04133 0.72731 0.0
C859 C 0.95367 0.01788 0.72822 0.0
C860 C 0.95768 0.06251 0.71221 0.0
C861 C 0.01271 0.06849 0.73952 0.0
C862 C 0.94986 0.08618 0.7225 0.0
C863 C 0.94154 0.10688 0.7082 0.0
C864 C 0.94064 0.10426 0.6833 0.0
C865 C 0.9473 0.08017 0.67309 0.0
C866 C 0.95573 0.05946 0.68745 0.0
H867 H 0.03518 0.06507 0.74578 0.0
H868 H 0.01355 0.07607 0.72108 0.0
H869 H 1.003 0.08353 0.75109 0.0
H870 H 0.95066 0.08878 0.74161 0.0
H871 H 0.93627 0.12506 0.71668 0.0
H872 H 0.57283 0.12705 0.82972 0.0
H873 H 0.53928 0.11336 0.7981 0.0
H874 H 0.53311 0.03801 0.83015 0.0
H875 H 0.56587 0.0516 0.86165 0.0
H876 H 0.55145 0.07527 0.76675 0.0
H877 H 0.45004 0.05028 0.81272 0.0
H878 H 0.47773 0.06991 0.82653 0.0
H879 H 0.48015 0.0352 0.82712 0.0
C880 C 0.56346 0.1079 0.83041 0.0
C881 C 0.57194 0.09038 0.84813 0.0
C882 C 0.54446 0.10004 0.81228 0.0
C883 C 0.53341 0.07472 0.81187 0.0
C884 C 0.54074 0.05779 0.83032 0.0
H885 H 0.50365 0.96858 0.69895 0.0
H886 H 0.52223 0.9976 0.72961 0.0
C887 C 0.55969 0.06555 0.84826 0.0
C888 C 0.51735 0.06461 0.79091 0.0
H889 H 0.45943 0.02697 0.77588 0.0
C890 C 0.53101 0.06518 0.76863 0.0
C891 C 0.49049 0.05172 0.79321 0.0
C892 C 0.47364 0.05199 0.81616 0.0
C893 C 0.51947 0.05184 0.749 0.0
C894 C 0.49397 0.03703 0.75189 0.0
C895 C 0.47931 0.03787 0.77374 0.0
C896 C 0.48275 0.01972 0.73286 0.0
C897 C 0.53497 0.05352 0.72545 0.0
C898 C 0.45406 0.02185 0.725 0.0
C899 C 0.44315 1.0049 0.70777 0.0
C900 C 0.46069 0.98536 0.698 0.0
C901 C 0.48942 0.98321 0.70606 0.0
C902 C 0.50025 1.0001 0.72338 0.0
H903 H 0.54758 0.07173 0.72405 0.0
H904 H 0.5504 0.03723 0.72393 0.0
H905 H 0.51957 0.05245 0.71031 0.0
H906 H 0.44004 0.03663 0.73225 0.0
H907 H 0.4208 1.00696 0.70246 0.0
H908 H 0.59331 0.40473 0.71509 0.0
H909 H 0.57727 0.44014 0.74056 0.0
H910 H 0.56178 0.48715 0.67872 0.0
H911 H 0.57761 0.45166 0.65295 0.0
H912 H 0.59637 0.49273 0.74512 0.0
H913 H 0.48268 0.48392 0.71336 0.0
H914 H 0.50939 0.45927 0.7079 0.0
H915 H 0.5097 0.48846 0.69078 0.0
C916 C 0.5867 0.42264 0.70684 0.0
C917 C 0.58647 0.42526 0.68195 0.0
C918 C 0.57764 0.4429 0.72147 0.0
C919 C 0.56801 0.46612 0.71152 0.0
C920 C 0.56877 0.46923 0.68672 0.0
H921 H 0.51724 0.60205 0.79581 0.0
H922 H 0.54225 0.57371 0.76753 0.0
C923 C 0.57792 0.44896 0.67204 0.0
C924 C 0.5558 0.48641 0.72717 0.0
H925 H 0.49232 0.51567 0.74229 0.0
C926 C 0.57369 0.49796 0.7444 0.0
C927 C 0.52613 0.49292 0.72632 0.0
C928 C 0.5057 0.48042 0.70875 0.0
C929 C 0.56257 0.5157 0.761 0.0
C930 C 0.53288 0.52207 0.76019 0.0
C931 C 0.51511 0.51079 0.74276 0.0
C932 C 0.51927 0.5392 0.77811 0.0
C933 C 0.58238 0.5268 0.77977 0.0
C934 C 0.49806 0.52921 0.79333 0.0
C935 C 0.4837 0.5453 0.80936 0.0
C936 C 0.49011 0.57185 0.81043 0.0
C937 C 0.51172 0.58175 0.79537 0.0
C938 C 0.52617 0.56556 0.77934 0.0
H939 H 0.6034 0.5165 0.78055 0.0
H940 H 0.58673 0.54739 0.77571 0.0
H941 H 0.572 0.5259 0.79755 0.0
H942 H 0.49231 0.50894 0.79256 0.0
H943 H 0.46687 0.53701 0.8203 0.0
H944 H 0.06108 0.77992 0.18175 0.0
H945 H 0.08463 0.81998 0.19472 0.0
H946 H 0.16823 0.7858 0.18205 0.0
H947 H 0.14506 0.74631 0.16883 0.0
H948 H 0.11756 0.82252 0.23283 0.0
H949 H 0.18228 0.85675 0.15675 0.0
H950 H 0.15574 0.83133 0.15363 0.0
H951 H 0.19168 0.82431 0.16431 0.0
C952 C 0.08445 0.78117 0.18133 0.0
C953 C 0.10108 0.75982 0.17431 0.0
C954 C 0.09789 0.80408 0.1886 0.0
C955 C 0.12823 0.80607 0.18905 0.0
C956 C 0.14483 0.78511 0.18121 0.0
H957 H 0.22944 0.88231 0.29219 0.0
H958 H 0.21616 0.85567 0.25783 0.0
C959 C 0.13143 0.76235 0.17375 0.0
C960 C 0.1425 0.82832 0.20093 0.0
H961 H 0.19756 0.87221 0.19585 0.0
C962 C 0.13462 0.83369 0.22451 0.0
C963 C 0.16502 0.84279 0.1902 0.0
C964 C 0.17391 0.83862 0.16472 0.0
C965 C 0.14919 0.85246 0.23789 0.0
C966 C 0.17239 0.86614 0.22749 0.0
C967 C 0.17986 0.86148 0.20374 0.0
C968 C 0.18908 0.88481 0.24182 0.0
C969 C 0.14022 0.85708 0.26339 0.0
C970 C 0.18 0.91057 0.24304 0.0
C971 C 0.1878 0.92586 0.26256 0.0
C972 C 0.20446 0.91534 0.28107 0.0
C973 C 0.21671 0.89078 0.27805 0.0
C974 C 0.20906 0.87557 0.2585 0.0
H975 H 0.11982 0.84687 0.26795 0.0
H976 H 0.15751 0.85018 0.27551 0.0
H977 H 0.13725 0.87803 0.26674 0.0
H978 H 0.1644 0.9179 0.23036 0.0
H979 H 0.17782 0.94461 0.26461 0.0
H980 H 0.82429 1.01516 0.17718 0.0
H981 H 0.78906 1.00853 0.20908 0.0
H982 H 0.74179 0.07546 0.18557 0.0
H983 H 0.77675 0.08193 0.15357 0.0
H984 H 0.78372 0.04706 0.24319 0.0
H985 H 0.67686 0.02543 0.20357 0.0
H986 H 0.71038 0.02034 0.18773 0.0
H987 H 0.69456 0.05201 0.18923 0.0
C988 C 0.80573 0.02779 0.17823 0.0
C989 C 0.80322 0.04913 0.16298 0.0
C990 C 0.78571 0.02406 0.19652 0.0
C991 C 0.76271 0.04138 0.19957 0.0
C992 C 0.75904 0.06157 0.18327 0.0
H993 H 0.65315 0.11171 0.29757 0.0
H994 H 0.67975 0.09364 0.26423 0.0
C995 C 0.77911 0.06539 0.16512 0.0
C996 C 0.7456 0.04133 0.22177 0.0
H997 H 0.67649 0.04574 0.24242 0.0
C998 C 0.76028 0.04611 0.24321 0.0
C999 C 0.71509 0.04017 0.22164 0.0
C1000 C 0.69831 0.03395 0.19932 0.0
C1001 C 0.74521 0.05175 0.26421 0.0
C1002 C 0.71462 0.05202 0.26379 0.0
C1003 C 0.69995 0.04563 0.24267 0.0
C1004 C 0.69762 0.06179 0.28419 0.0
C1005 C 0.76216 0.05916 0.28617 0.0
C1006 C 0.69863 0.04975 0.3065 0.0
C1007 C 0.68382 0.06039 0.32586 0.0
C1008 C 0.66754 0.08312 0.32317 0.0
C1009 C 0.66601 0.09463 0.30057 0.0
C1010 C 0.68091 0.0841 0.28134 0.0
H1011 H 0.78537 0.0627 0.28221 0.0
H1012 H 0.75303 0.07681 0.2945 0.0
H1013 H 0.76086 0.04329 0.29933 0.0
H1014 H 0.71105 0.03227 0.30898 0.0
H1015 H 0.68545 0.05101 0.34297 0.0
H1016 H 0.42528 0.6548 0.27673 0.0
H1017 H 0.43517 0.68705 0.24621 0.0
H1018 H 0.49251 0.72706 0.29444 0.0
H1019 H 0.48259 0.6948 0.32517 0.0
H1020 H 0.42137 0.73868 0.25391 0.0
H1021 H 0.53747 0.7276 0.23107 0.0
H1022 H 0.51684 0.7025 0.24553 0.0
H1023 H 0.52999 0.72961 0.26238 0.0
C1024 C 0.44018 0.67034 0.28078 0.0
C1025 C 0.45287 0.67251 0.30343 0.0
C1026 C 0.446 0.6886 0.26327 0.0
C1027 C 0.46473 0.70928 0.26803 0.0
C1028 C 0.47844 0.71093 0.29027 0.0
H1029 H 0.49579 0.85843 0.2089 0.0
H1030 H 0.49962 0.81697 0.22924 0.0
C1031 C 0.47268 0.69257 0.30783 0.0
C1032 C 0.46689 0.73072 0.25087 0.0
H1033 H 0.51412 0.76582 0.21732 0.0
C1034 C 0.44157 0.74444 0.24566 0.0
C1035 C 0.49334 0.73822 0.24037 0.0
C1036 C 0.52095 0.72361 0.24492 0.0
C1037 C 0.44206 0.76599 0.23073 0.0
C1038 C 0.46853 0.77363 0.22027 0.0
C1039 C 0.49386 0.75975 0.22525 0.0
C1040 C 0.47035 0.79702 0.20537 0.0
C1041 C 0.4144 0.78097 0.22711 0.0
C1042 C 0.4537 0.79915 0.18459 0.0
C1043 C 0.45129 0.82286 0.17307 0.0
C1044 C 0.46587 0.84468 0.18194 0.0
C1045 C 0.48442 0.84194 0.2016 0.0
C1046 C 0.48658 0.81828 0.21326 0.0
H1047 H 0.39787 0.77618 0.24074 0.0
H1048 H 0.41853 0.80208 0.22774 0.0
H1049 H 0.40519 0.77616 0.20941 0.0
H1050 H 0.44152 0.78277 0.17794 0.0
H1051 H 0.43725 0.82441 0.15772 0.0
H1052 H 0.73773 0.44481 0.18592 0.0
H1053 H 0.78364 0.43089 0.20327 0.0
H1054 H 0.76465 0.35223 0.18349 0.0
H1055 H 0.71958 0.36598 0.16517 0.0
H1056 H 0.7878 0.39819 0.24028 0.0
H1057 H 0.84844 0.35782 0.16383 0.0
H1058 H 0.81704 0.3781 0.16014 0.0
H1059 H 0.81284 0.34437 0.16684 0.0
C1060 C 0.74361 0.42465 0.18475 0.0
C1061 C 0.72475 0.40655 0.17433 0.0
C1062 C 0.76981 0.4167 0.19474 0.0
C1063 C 0.77772 0.39055 0.19439 0.0
C1064 C 0.7593 0.37255 0.1835 0.0
H1065 H 0.88478 0.32232 0.30156 0.0
H1066 H 0.84946 0.32649 0.2693 0.0
C1067 C 0.73321 0.38046 0.17342 0.0
C1068 C 0.8036 0.38172 0.20759 0.0
H1069 H 0.86633 0.34726 0.20268 0.0
C1070 C 0.80506 0.38724 0.23199 0.0
C1071 C 0.82608 0.3674 0.19673 0.0
C1072 C 0.82622 0.36177 0.17039 0.0
C1073 C 0.82813 0.37856 0.24594 0.0
C1074 C 0.85014 0.36356 0.23527 0.0
C1075 C 0.84911 0.35839 0.21079 0.0
C1076 C 0.87478 0.35426 0.24958 0.0
C1077 C 0.82888 0.38569 0.27202 0.0
C1078 C 0.90157 0.36688 0.24803 0.0
C1079 C 0.92189 0.36424 0.2663 0.0
C1080 C 0.91542 0.34911 0.28632 0.0
C1081 C 0.89016 0.33402 0.28625 0.0
C1082 C 0.86998 0.33651 0.26794 0.0
H1083 H 0.81354 0.4015 0.27631 0.0
H1084 H 0.82282 0.3686 0.28278 0.0
H1085 H 0.85096 0.3918 0.27746 0.0
H1086 H 0.9056 0.38067 0.23397 0.0
H1087 H 0.94105 0.37627 0.26606 0.0
H1088 H 0.9041 0.25341 0.64497 0.0
H1089 H 0.88649 0.29089 0.66719 0.0
H1090 H 0.95198 0.2783 0.72062 0.0
H1091 H 0.96996 0.24123 0.69827 0.0
H1092 H 0.86335 0.29343 0.70971 0.0
H1093 H 0.96163 0.354 0.71058 0.0
H1094 H 0.95815 0.32604 0.69158 0.0
H1095 H 0.96928 0.32257 0.72215 0.0
C1096 C 0.91491 0.25881 0.66134 0.0
C1097 C 0.93858 0.24442 0.66977 0.0
C1098 C 0.90486 0.28027 0.67401 0.0
C1099 C 0.91822 0.2878 0.6954 0.0
C1100 C 0.94187 0.27347 0.7038 0.0
H1101 H 0.84926 0.36164 0.81777 0.0
H1102 H 0.85982 0.33361 0.78406 0.0
C1103 C 0.95211 0.25218 0.69103 0.0
C1104 C 0.90638 0.30954 0.70975 0.0
H1105 H 0.92635 0.36328 0.74104 0.0
C1106 C 0.87705 0.30892 0.71626 0.0
C1107 C 0.92394 0.33018 0.71788 0.0
C1108 C 0.9549 0.33341 0.70994 0.0
C1109 C 0.86528 0.3275 0.73171 0.0
C1110 C 0.8835 0.34683 0.74146 0.0
C1111 C 0.9124 0.34829 0.73389 0.0
C1112 C 0.87382 0.36445 0.76084 0.0
C1113 C 0.83345 0.32608 0.73744 0.0
C1114 C 0.87824 0.39124 0.75922 0.0
C1115 C 0.8727 0.40734 0.77877 0.0
C1116 C 0.86279 0.39692 0.80037 0.0
C1117 C 0.85713 0.37027 0.8015 0.0
C1118 C 0.86282 0.35422 0.78208 0.0
H1119 H 0.82106 0.31737 0.72248 0.0
H1120 H 0.83028 0.3136 0.75323 0.0
H1121 H 0.82439 0.34545 0.74136 0.0
H1122 H 0.88686 0.39961 0.74308 0.0
H1123 H 0.87761 0.42769 0.7773 0.0
H1124 H 0.27459 0.94112 0.64749 0.0
H1125 H 0.24296 0.94301 0.68237 0.0
H1126 H 0.30691 0.98822 0.71984 0.0
H1127 H 0.33851 0.98661 0.68514 0.0
H1128 H 0.2603 0.9225 0.72664 0.0
H1129 H 0.23065 0.02588 0.73496 0.0
H1130 H 0.244 1.01198 0.7076 0.0
H1131 H 0.26866 0.02001 0.73123 0.0
C1132 C 0.2816 0.95204 0.66292 0.0
C1133 C 0.3091 0.96364 0.66356 0.0
C1134 C 0.26356 0.95301 0.68286 0.0
C1135 C 0.27254 0.96588 0.70363 0.0
C1136 C 0.29936 0.97853 0.70389 0.0
H1137 H 0.21636 0.93348 0.84837 0.0
H1138 H 0.24531 0.94231 0.81275 0.0
C1139 C 0.31745 0.97747 0.68405 0.0
C1140 C 0.25538 0.96379 0.72578 0.0
H1141 H 0.22034 0.99906 0.76827 0.0
C1142 C 0.25144 0.93922 0.73569 0.0
C1143 C 0.24388 0.98565 0.73751 0.0
C1144 C 0.24674 1.01237 0.72723 0.0
C1145 C 0.23655 0.93592 0.75719 0.0
C1146 C 0.22561 0.95781 0.76921 0.0
C1147 C 0.22916 0.98237 0.75915 0.0
C1148 C 0.20903 0.95525 0.79159 0.0
C1149 C 0.23226 0.90899 0.76673 0.0
C1150 C 0.17933 0.96049 0.79167 0.0
C1151 C 0.16279 0.95547 0.81189 0.0
C1152 C 0.17571 0.94527 0.8325 0.0
C1153 C 0.20577 0.94129 0.83278 0.0
C1154 C 0.2223 0.9462 0.81244 0.0
H1155 H 0.23712 0.89399 0.75316 0.0
H1156 H 0.24691 0.90599 0.78213 0.0
H1157 H 0.20969 0.90627 0.77299 0.0
H1158 H 0.16874 0.96757 0.77578 0.0
H1159 H 0.13971 0.95893 0.81112 0.0
H1160 H 0.6952 0.1749 0.81543 0.0
H1161 H 0.68299 0.20145 0.78112 0.0
H1162 H 0.65748 0.13329 0.74213 0.0
H1163 H 0.66833 0.1067 0.77692 0.0
H1164 H 0.69746 0.20543 0.73488 0.0
H1165 H 0.58296 0.17366 0.74319 0.0
H1166 H 0.61 0.16572 0.76507 0.0
H1167 H 0.60833 0.14825 0.73741 0.0
C1168 C 0.68729 0.16551 0.79946 0.0
C1169 C 0.68214 0.13876 0.79914 0.0
C1170 C 0.68045 0.18071 0.77979 0.0
C1171 C 0.6685 0.16947 0.75927 0.0
C1172 C 0.66591 0.14247 0.75802 0.0
H1173 H 0.62619 0.27578 0.64153 0.0
H1174 H 0.64716 0.23956 0.66349 0.0
C1175 C 0.67252 0.12723 0.77784 0.0
C1176 C 0.6566 0.18641 0.74034 0.0
H1177 H 0.59319 0.20462 0.7141 0.0
C1178 C 0.67472 0.20512 0.73012 0.0
C1179 C 0.62681 0.1862 0.73441 0.0
C1180 C 0.60578 0.16756 0.7457 0.0
C1181 C 0.66376 0.2241 0.71474 0.0
C1182 C 0.63392 0.22395 0.70892 0.0
C1183 C 0.61604 0.20469 0.7185 0.0
C1184 C 0.62025 0.24475 0.69462 0.0
C1185 C 0.68403 0.24484 0.70591 0.0
C1186 C 0.59718 0.25895 0.70426 0.0
C1187 C 0.58475 0.27923 0.69153 0.0
C1188 C 0.59528 0.28589 0.66894 0.0
C1189 C 0.61789 0.27127 0.65903 0.0
C1190 C 0.63003 0.2507 0.67163 0.0
H1191 H 0.70403 0.24605 0.71684 0.0
H1192 H 0.69051 0.24032 0.68737 0.0
H1193 H 0.67341 0.26404 0.70605 0.0
H1194 H 0.58919 0.25473 0.72193 0.0
H1195 H 0.5676 0.29028 0.69974 0.0
H1196 H 0.37833 0.52289 0.81164 0.0
H1197 H 0.34355 0.51607 0.77941 0.0
H1198 H 0.29452 0.58183 0.80341 0.0
H1199 H 0.32892 0.58864 0.83591 0.0
H1200 H 0.25999 0.53966 0.78903 0.0
H1201 H 0.34333 0.56441 0.72155 0.0
H1202 H 0.35255 0.53837 0.74116 0.0
H1203 H 0.34844 0.57043 0.75291 0.0
C1204 C 0.35993 0.53571 0.81029 0.0
C1205 C 0.35657 0.55649 0.82621 0.0
C1206 C 0.34018 0.53185 0.79177 0.0
C1207 C 0.31684 0.54877 0.78875 0.0
C1208 C 0.31252 0.56865 0.80536 0.0
H1209 H 0.21593 0.59444 0.66946 0.0
H1210 H 0.25137 0.58834 0.70113 0.0
C1211 C 0.33221 0.5725 0.82393 0.0
C1212 C 0.29772 0.5467 0.76765 0.0
H1213 H 0.29702 0.55337 0.70723 0.0
C1214 C 0.26806 0.54242 0.77111 0.0
C1215 C 0.30837 0.55063 0.74434 0.0
C1216 C 0.33985 0.55643 0.73965 0.0
C1217 C 0.24864 0.54229 0.75188 0.0
C1218 C 0.2593 0.54619 0.72858 0.0
C1219 C 0.28901 0.55011 0.7251 0.0
C1220 C 0.23964 0.5486 0.70787 0.0
C1221 C 0.21675 0.53905 0.75676 0.0
C1222 C 0.22198 0.52796 0.7006 0.0
C1223 C 0.20164 0.53137 0.68243 0.0
C1224 C 0.19869 0.55547 0.67124 0.0
C1225 C 0.21751 0.57566 0.67777 0.0
C1226 C 0.2378 0.57222 0.69588 0.0
H1227 H 0.21161 0.54131 0.77595 0.0
H1228 H 0.20392 0.55332 0.74652 0.0
H1229 H 0.20982 0.51946 0.7511 0.0
H1230 H 0.22347 0.50942 0.70936 0.0
H1231 H 0.18753 0.51541 0.67779 0.0
H1232 H 0.07228 0.62708 0.04439 0.0
H1233 H 0.0422 0.59832 0.02029 0.0
H1234 H 1.0042 0.56686 0.08391 0.0
H1235 H 0.03414 0.59573 0.10822 0.0
H1236 H 0.01845 0.52912 0.04983 0.0
H1237 H 0.95526 0.60866 0.00953 0.0
H1238 H 0.99366 0.61219 0.00607 0.0
H1239 H 0.978 0.61328 0.03532 0.0
C1240 C 0.05745 0.61416 0.0533 0.0
C1241 C 0.05547 0.614 0.07829 0.0
C1242 C 0.04024 0.59771 0.03947 0.0
C1243 C 0.02052 0.5808 0.05027 0.0
C1244 C 0.01916 0.57987 0.0752 0.0
H1245 H 0.8793 0.50554 0.973 0.0
H1246 H 0.908 0.5305 1.0016 0.0
C1247 C 0.03642 0.59633 0.08908 0.0
C1248 C 1.00117 0.56433 0.03546 0.0
H1249 H 0.94914 0.56702 0.99232 0.0
C1250 C 1.00318 0.53738 0.03735 0.0
C1251 C 0.9809 0.57512 0.01945 0.0
C1252 C 0.97654 0.60389 0.01757 0.0
C1253 C 0.98607 0.52095 0.02314 0.0
C1254 C 0.96671 0.53176 0.00638 0.0
C1255 C 0.96414 0.55871 0.00501 0.0
C1256 C 0.94924 0.51558 0.98979 0.0
C1257 C 0.98868 0.49216 0.0264 0.0
C1258 C 0.96283 0.49899 0.97352 0.0
C1259 C 0.94648 0.48474 0.95712 0.0
C1260 C 0.91613 0.48692 0.95647 0.0
C1261 C 0.90259 0.50353 0.97285 0.0
C1262 C 0.91897 0.51774 0.98929 0.0
H1263 H 0.99766 0.48728 0.04416 0.0
H1264 H 0.96737 0.48248 0.02432 0.0
H1265 H 1.00356 0.4843 0.01273 0.0
H1266 H 0.98618 0.4975 0.97311 0.0
H1267 H 0.95777 0.47262 0.9445 0.0
H1268 H 0.07355 0.94427 0.94033 0.0
H1269 H 0.05035 0.96793 0.97283 0.0
H1270 H 0.0603 0.03897 0.93393 0.0
H1271 H 0.08285 1.01542 0.90113 0.0
H1272 H 0.06718 1.00808 1.00177 0.0
H1273 H 0.974 0.03742 0.9459 0.0
H1274 H 0.99987 1.01358 0.93631 0.0
H1275 H 1.00822 0.04741 0.93404 0.0
C1276 C 0.071 0.96496 0.93875 0.0
C1277 C 0.07976 0.97791 0.91799 0.0
C1278 C 0.05772 0.97846 0.95736 0.0
C1279 C 0.05296 1.00514 0.95559 0.0
C1280 C 0.06301 0.01829 0.93542 0.0
H1281 H 0.97073 0.12095 0.04357 0.0
H1282 H 0.99957 0.09723 0.01455 0.0
C1283 C 0.07609 1.0048 0.91673 0.0
C1284 C 0.03684 0.01908 0.97454 0.0
H1285 H 0.97716 0.05641 0.98428 0.0
C1286 C 0.04744 0.01855 0.99797 0.0
C1287 C 1.01093 0.0326 0.96962 0.0
C1288 C 0.99739 0.03263 0.94516 0.0
C1289 C 0.03317 0.03169 0.01648 0.0
C1290 C 1.00758 0.04551 0.01142 0.0
C1291 C 0.99691 0.04592 0.98806 0.0
C1292 C 0.99142 0.05979 0.03004 0.0
C1293 C 0.04583 0.03113 0.04121 0.0
C1294 C 0.97723 0.0466 0.04841 0.0
C1295 C 0.96035 0.06009 0.06494 0.0
C1296 C 0.9573 0.08708 0.0634 0.0
C1297 C 0.97208 0.1002 0.04517 0.0
C1298 C 0.98879 0.08668 0.02861 0.0
H1299 H 0.06848 0.02402 0.04125 0.0
H1300 H 0.04533 0.05067 0.04937 0.0
H1301 H 0.03268 0.0181 0.0525 0.0
H1302 H 0.97859 0.02577 0.04959 0.0
H1303 H 0.94907 0.04923 0.07847 0.0
H1304 H 0.47868 0.94363 0.09072 0.0
H1305 H 0.51514 0.96255 0.06433 0.0
H1306 H 0.45428 0.02093 0.04293 0.0
H1307 H 0.41773 1.0022 0.06933 0.0
H1308 H 0.5056 0.97371 0.01055 0.0
H1309 H 0.53228 0.05847 0.06766 0.0
H1310 H 0.51737 0.02899 0.07965 0.0
H1311 H 0.49465 0.05064 0.06333 0.0
C1312 C 0.47311 0.96059 0.08052 0.0
C1313 C 0.44532 0.97145 0.08216 0.0
C1314 C 0.4939 0.97127 0.06538 0.0
C1315 C 0.4874 0.99319 0.05185 0.0
C1316 C 0.45971 1.00407 0.05335 0.0
H1317 H 0.58211 0.09428 0.95818 0.0
H1318 H 0.54824 0.07399 0.98544 0.0
C1319 C 0.43881 0.99325 0.06831 0.0
C1320 C 0.50949 1.00461 0.03597 0.0
H1321 H 0.55431 0.05658 0.02989 0.0
C1322 C 0.51641 0.99176 0.01475 0.0
C1323 C 0.5233 0.02819 0.04153 0.0
C1324 C 0.51678 0.04245 0.06433 0.0
C1325 C 0.53642 1.00221 0.99861 0.0
C1326 C 0.5505 0.02579 0.00423 0.0
C1327 C 0.54363 0.0385 0.0256 0.0
C1328 C 0.57171 0.03803 0.98786 0.0
C1329 C 0.54148 0.98832 0.97536 0.0
C1330 C 0.5966 0.02482 0.98041 0.0
C1331 C 0.6159 0.03624 0.96439 0.0
C1332 C 0.61094 0.06131 0.95568 0.0
C1333 C 0.58647 0.07479 0.96392 0.0
C1334 C 0.5671 0.06327 0.97976 0.0
H1335 H 0.5234 0.97496 0.97096 0.0
H1336 H 0.5441 1.00218 0.96049 0.0
H1337 H 0.56153 0.97669 0.97674 0.0
H1338 H 0.60108 1.00558 0.9869 0.0
H1339 H 0.63437 0.02515 0.95856 0.0
H1340 H 0.45071 0.5768 0.94136 0.0
H1341 H 0.47718 0.55417 0.97266 0.0
H1342 H 0.44326 0.4815 0.94737 0.0
H1343 H 0.41601 0.50405 0.91649 0.0
H1344 H 0.4435 0.48342 0.99538 0.0
H1345 H 0.55051 0.51435 0.96123 0.0
H1346 H 0.52726 0.54087 0.96851 0.0
H1347 H 0.51752 0.51921 0.94472 0.0
C1348 C 0.44876 0.55601 0.94252 0.0
C1349 C 0.43142 0.54222 0.92628 0.0
C1350 C 0.46407 0.54308 0.96035 0.0
C1351 C 0.46278 0.51606 0.96206 0.0
C1352 C 0.44475 0.50234 0.94634 0.0
H1353 H 0.59067 0.42014 0.03068 0.0
H1354 H 0.55796 0.44195 0.00316 0.0
C1355 C 0.42919 0.51528 0.92866 0.0
C1356 C 0.48062 0.502 0.97984 0.0
H1357 H 0.55025 0.49242 0.99811 0.0
C1358 C 0.46685 0.48536 0.99597 0.0
C1359 C 0.51115 0.50421 0.9804 0.0
C1360 C 0.52754 0.52041 0.96265 0.0
C1361 C 0.48273 0.471 0.01269 0.0
C1362 C 0.51318 0.47379 0.01367 0.0
C1363 C 0.5269 0.4904 0.9975 0.0
C1364 C 0.53152 0.45913 0.0307 0.0
C1365 C 0.46679 0.45246 0.02866 0.0
C1366 C 0.52748 0.46128 0.05541 0.0
C1367 C 0.5461 0.44859 0.0712 0.0
C1368 C 0.56939 0.43389 0.06258 0.0
C1369 C 0.57311 0.43152 0.03786 0.0
C1370 C 0.55439 0.44396 0.02212 0.0
H1371 H 0.44524 0.44726 0.02128 0.0
H1372 H 0.47938 0.43449 0.03137 0.0
H1373 H 0.46335 0.46169 0.04626 0.0
H1374 H 0.51046 0.47335 0.06251 0.0
H1375 H 0.54294 0.45108 0.09014 0.0
H1376 H 0.08039 0.97769 0.40947 0.0
H1377 H 0.05182 1.00477 0.4363 0.0
H1378 H 0.11212 0.98955 0.49313 0.0
H1379 H 0.14105 0.96286 0.4662 0.0
H1380 H 0.02397 0.99593 0.47772 0.0
H1381 H 0.11183 0.06715 0.49298 0.0
H1382 H 0.11403 0.04252 0.47033 0.0
H1383 H 0.12176 0.03486 0.50089 0.0
C1384 C 0.0874 0.97989 0.42774 0.0
C1385 C 0.11313 0.96829 0.43568 0.0
C1386 C 0.07111 0.99547 0.44305 0.0
C1387 C 0.08013 0.99971 0.46662 0.0
C1388 C 0.10515 0.98724 0.47485 0.0
H1389 H 1.00749 0.09236 0.58239 0.0
H1390 H 0.03407 0.06002 0.55913 0.0
C1391 C 0.12162 0.9719 0.45948 0.0
C1392 C 0.06353 1.01739 0.48242 0.0
H1393 H 0.06953 0.07208 0.51632 0.0
C1394 C 0.03395 1.01258 0.48612 0.0
C1395 C 0.07649 0.03923 0.49336 0.0
C1396 C 0.10769 0.04645 0.48904 0.0
C1397 C 0.0171 0.02887 0.50054 0.0
C1398 C 0.03013 0.05058 0.51149 0.0
C1399 C 0.05969 0.05528 0.50802 0.0
C1400 C 0.01318 0.06929 0.5258 0.0
C1401 C 0.98551 0.02273 0.50412 0.0
C1402 C 0.99277 0.08526 0.51473 0.0
C1403 C 0.97773 0.10379 0.52792 0.0
C1404 C 0.98271 0.10669 0.55248 0.0
C1405 C 1.00297 0.09044 0.56357 0.0
C1406 C 0.01824 0.07205 0.5503 0.0
H1407 H 0.98017 1.00266 0.49863 0.0
H1408 H 0.97934 0.02541 0.52305 0.0
H1409 H 0.97227 0.03613 0.49328 0.0
H1410 H 0.98878 0.08362 0.4958 0.0
H1411 H 0.96208 0.11578 0.51888 0.0
H1412 H 0.56236 0.14184 0.48311 0.0
H1413 H 0.53101 0.11725 0.50963 0.0
H1414 H 0.4989 0.07327 0.45002 0.0
H1415 H 0.53071 0.0972 0.42332 0.0
H1416 H 0.45508 0.09374 0.48471 0.0
H1417 H 0.5452 0.0384 0.52563 0.0
H1418 H 0.54998 0.07283 0.52413 0.0
H1419 H 0.54854 0.05423 0.49718 0.0
C1420 C 0.54887 0.12685 0.47554 0.0
C1421 C 0.54946 0.12148 0.45096 0.0
C1422 C 0.53084 0.11287 0.49077 0.0
C1423 C 0.51287 0.0933 0.4818 0.0
C1424 C 0.51266 0.08832 0.45728 0.0
H1425 H 0.42709 0.97362 0.56432 0.0
H1426 H 0.4527 0.99765 0.5334 0.0
C1427 C 0.53083 0.10216 0.44201 0.0
C1428 C 0.49476 0.07773 0.49813 0.0
H1429 H 0.49888 0.03342 0.54285 0.0
C1430 C 0.46458 0.08048 0.49739 0.0
C1431 C 0.50726 0.06027 0.51444 0.0
C1432 C 0.53951 0.05599 0.5154 0.0
C1433 C 0.44659 0.06662 0.51297 0.0
C1434 C 0.45916 0.04968 0.52972 0.0
C1435 C 0.4893 0.04651 0.53006 0.0
C1436 C 0.44156 0.03528 0.54733 0.0
C1437 C 0.41427 0.07004 0.51133 0.0
C1438 C 0.42665 0.04847 0.56536 0.0
C1439 C 0.41208 0.0348 0.58314 0.0
C1440 C 0.41213 1.00764 0.58323 0.0
C1441 C 0.42649 0.9945 0.56477 0.0
C1442 C 0.44121 1.0082 0.54709 0.0
H1443 H 0.40773 0.07906 0.49425 0.0
H1444 H 0.40299 0.0512 0.51312 0.0
H1445 H 0.40694 0.08274 0.52606 0.0
H1446 H 0.42699 0.06936 0.56608 0.0
H1447 H 0.40132 0.04553 0.59711 0.0
H1448 H 0.55352 0.45196 0.57149 0.0
H1449 H 0.52638 0.48338 0.54805 0.0
H1450 H 0.49285 0.42197 0.50401 0.0
H1451 H 0.51887 0.3904 0.52783 0.0
H1452 H 0.53094 0.49409 0.50047 0.0
H1453 H 0.41975 0.46079 0.52082 0.0
H1454 H 0.45085 0.45041 0.53768 0.0
H1455 H 0.44248 0.43559 0.5095 0.0
C1456 C 0.54001 0.44504 0.5571 0.0
C1457 C 0.53842 0.41852 0.55168 0.0
C1458 C 0.52464 0.46308 0.5436 0.0
C1459 C 0.50721 0.45503 0.52448 0.0
C1460 C 0.50565 0.42864 0.51897 0.0
H1461 H 0.40951 0.53016 0.41261 0.0
H1462 H 0.43458 0.49972 0.43873 0.0
C1463 C 0.52092 0.41059 0.53247 0.0
C1464 C 0.49158 0.47424 0.50969 0.0
H1465 H 0.42462 0.49053 0.48876 0.0
C1466 C 0.50766 0.49345 0.49808 0.0
C1467 C 0.4612 0.47338 0.50654 0.0
C1468 C 0.44251 0.45409 0.51947 0.0
C1469 C 0.4943 0.5114 0.48296 0.0
C1470 C 0.464 0.5103 0.47958 0.0
C1471 C 0.44787 0.49124 0.4913 0.0
C1472 C 0.44866 0.52879 0.46391 0.0
C1473 C 0.51279 0.53103 0.47026 0.0
C1474 C 0.44795 0.55516 0.46958 0.0
C1475 C 0.43368 0.57259 0.45469 0.0
C1476 C 0.41978 0.56399 0.43381 0.0
C1477 C 0.42028 0.53748 0.42836 0.0
C1478 C 0.43445 0.52004 0.44333 0.0
H1479 H 0.53605 0.5257 0.47054 0.0
H1480 H 0.50575 0.53318 0.45147 0.0
H1481 H 0.51046 0.55004 0.47917 0.0
H1482 H 0.45844 0.56228 0.48554 0.0
H1483 H 0.43399 0.59285 0.45937 0.0
H1484 H 0.98137 0.40277 0.46849 0.0
H1485 H 1.0067 0.43096 0.49668 0.0
H1486 H 1.00008 0.4941 0.4472 0.0
H1487 H 0.97466 0.46609 0.41903 0.0
H1488 H 0.05816 0.45594 0.49084 0.0
H1489 H 0.97148 0.52736 0.50798 0.0
H1490 H 0.96462 0.49687 0.49342 0.0
H1491 H 0.97967 0.52343 0.47699 0.0
C1492 C 0.9852 0.42268 0.46366 0.0
C1493 C 0.97583 0.43217 0.44154 0.0
C1494 C 0.99962 0.4388 0.47981 0.0
C1495 C 1.00496 0.46477 0.47424 0.0
C1496 C 0.99558 0.47433 0.45219 0.0
H1497 H 0.09973 0.58974 0.54259 0.0
H1498 H 0.07387 0.5615 0.51477 0.0
C1499 C 0.98102 0.45826 0.43607 0.0
C1500 C 0.02147 0.48148 0.49102 0.0
H1501 H 0.01845 0.53801 0.5224 0.0
C1502 C 0.0494 0.4738 0.49785 0.0
C1503 C 1.01006 0.50482 0.50015 0.0
C1504 C 0.97972 0.51353 0.49446 0.0
C1505 C 0.06638 0.48902 0.51321 0.0
C1506 C 0.05504 0.51241 0.5222 0.0
C1507 C 0.02714 0.52011 0.5154 0.0
C1508 C 0.07167 0.52909 0.53885 0.0
C1509 C 0.09656 0.48022 0.51933 0.0
C1510 C 0.07899 0.52025 0.56165 0.0
C1511 C 0.09374 0.53635 0.57762 0.0
C1512 C 0.10144 0.56166 0.57112 0.0
C1513 C 0.09428 0.57035 0.54817 0.0
C1514 C 0.07942 0.55427 0.53225 0.0
H1515 H 0.10446 0.46523 0.50676 0.0
H1516 H 0.11193 0.49672 0.51923 0.0
H1517 H 0.09656 0.47183 0.53747 0.0
H1518 H 0.07283 0.50103 0.56724 0.0
H1519 H 0.09877 0.52905 0.59518 0.0
loop_
_geom_bond_atom_site_label_1
_geom_bond_atom_site_label_2
_geom_bond_distance
_geom_bond_site_symmetry_2
_ccdc_geom_bond_type
Cu0 N1 1.999 . S
Cu0 O6 1.974 . S
Cu0 N11 1.985 . S
Cu0 O20 1.959 . S
N1 Cu0 1.999 . S
N1 C3 1.263 . S
N1 C5 1.389 . S
N2 C3 1.358 . S
N2 C4 1.400 . S
C3 N1 1.263 . S
C3 N2 1.358 . S
C3 H9 0.930 . S
C4 N2 1.400 . S
C4 C5 1.351 . S
C4 H21 0.930 . S
C5 N1 1.389 . S
C5 C4 1.351 . S
C5 H10 0.930 . S
O6 Cu0 1.974 . S
O6 C16 1.282 . S
C7 O8 1.261 . S
C7 O20 1.251 . S
O8 C7 1.261 . S
H9 C3 0.930 . S
H10 C5 0.930 . S
N11 Cu0 1.985 . S
N11 C13 1.335 . S
N11 C14 1.390 . S
N12 C13 1.345 . S
N12 C15 1.336 . S
C13 N11 1.335 . S
C13 N12 1.345 . S
C13 H18 0.930 . S
C14 N11 1.390 . S
C14 C15 1.346 . S
C14 H19 0.930 . S
C15 N12 1.336 . S
C15 C14 1.346 . S
C15 H22 0.929 . S
C16 O6 1.282 . S
C16 O17 1.216 . S
O17 C16 1.216 . S
H18 C13 0.930 . S
H19 C14 0.930 . S
O20 Cu0 1.959 . S
O20 C7 1.251 . S
H21 C4 0.930 . S
H22 C15 0.929 . S
Cu23 N24 1.999 . S
Cu23 O29 1.974 . S
Cu23 N34 1.985 . S
Cu23 O43 1.959 . S
N24 Cu23 1.999 . S
N24 C26 1.263 . S
N24 C28 1.389 . S
N25 C26 1.358 . S
N25 C27 1.400 . S
C26 N24 1.263 . S
C26 N25 1.358 . S
C26 H32 0.930 . S
C27 N25 1.400 . S
C27 C28 1.351 . S
C27 H44 0.930 . S
C28 N24 1.389 . S
C28 C27 1.351 . S
C28 H33 0.930 . S
O29 Cu23 1.974 . S
O29 C39 1.282 . S
C30 O31 1.261 . S
C30 O43 1.251 . S
O31 C30 1.261 . S
H32 C26 0.930 . S
H33 C28 0.930 . S
N34 Cu23 1.985 . S
N34 C36 1.335 . S
N34 C37 1.390 . S
N35 C36 1.345 . S
N35 C38 1.336 . S
C36 N34 1.335 . S
C36 N35 1.345 . S
C36 H41 0.930 . S
C37 N34 1.390 . S
C37 C38 1.346 . S
C37 H42 0.930 . S
C38 N35 1.336 . S
C38 C37 1.346 . S
C38 H45 0.929 . S
C39 O29 1.282 . S
C39 O40 1.216 . S
O40 C39 1.216 . S
H41 C36 0.930 . S
H42 C37 0.930 . S
O43 Cu23 1.959 . S
O43 C30 1.251 . S
H44 C27 0.930 . S
H45 C38 0.929 . S
Cu46 N47 1.999 . S
Cu46 O52 1.974 . S
Cu46 N57 1.985 . S
Cu46 O66 1.959 . S
N47 Cu46 1.999 . S
N47 C49 1.263 . S
N47 C51 1.389 . S
N48 C49 1.358 . S
N48 C50 1.400 . S
C49 N47 1.263 . S
C49 N48 1.358 . S
C49 H55 0.930 . S
C50 N48 1.400 . S
C50 C51 1.351 . S
C50 H67 0.930 . S
C51 N47 1.389 . S
C51 C50 1.351 . S
C51 H56 0.930 . S
O52 Cu46 1.974 . S
O52 C62 1.282 . S
C53 O54 1.261 . S
C53 O66 1.251 . S
O54 C53 1.261 . S
H55 C49 0.930 . S
H56 C51 0.930 . S
N57 Cu46 1.985 . S
N57 C59 1.335 . S
N57 C60 1.390 . S
N58 C59 1.345 . S
N58 C61 1.336 . S
C59 N57 1.335 . S
C59 N58 1.345 . S
C59 H64 0.930 . S
C60 N57 1.390 . S
C60 C61 1.346 . S
C60 H65 0.930 . S
C61 N58 1.336 . S
C61 C60 1.346 . S
C61 H68 0.929 . S
C62 O52 1.282 . S
C62 O63 1.216 . S
O63 C62 1.216 . S
H64 C59 0.930 . S
H65 C60 0.930 . S
O66 Cu46 1.959 . S
O66 C53 1.251 . S
H67 C50 0.930 . S
H68 C61 0.929 . S
Cu69 N70 1.999 . S
Cu69 O75 1.974 . S
Cu69 N80 1.985 . S
Cu69 O89 1.959 . S
N70 Cu69 1.999 . S
N70 C72 1.263 . S
N70 C74 1.389 . S
N71 C72 1.358 . S
N71 C73 1.400 . S
C72 N70 1.263 . S
C72 N71 1.358 . S
C72 H78 0.930 . S
C73 N71 1.400 . S
C73 C74 1.351 . S
C73 H90 0.930 . S
C74 N70 1.389 . S
C74 C73 1.351 . S
C74 H79 0.930 . S
O75 Cu69 1.974 . S
O75 C85 1.282 . S
C76 O77 1.261 . S
C76 O89 1.251 . S
O77 C76 1.261 . S
H78 C72 0.930 . S
H79 C74 0.930 . S
N80 Cu69 1.985 . S
N80 C82 1.335 . S
N80 C83 1.390 . S
N81 C82 1.345 . S
N81 C84 1.336 . S
C82 N80 1.335 . S
C82 N81 1.345 . S
C82 H87 0.930 . S
C83 N80 1.390 . S
C83 C84 1.346 . S
C83 H88 0.930 . S
C84 N81 1.336 . S
C84 C83 1.346 . S
C84 H91 0.929 . S
C85 O75 1.282 . S
C85 O86 1.216 . S
O86 C85 1.216 . S
H87 C82 0.930 . S
H88 C83 0.930 . S
O89 Cu69 1.959 . S
O89 C76 1.251 . S
H90 C73 0.930 . S
H91 C84 0.929 . S
Cu92 N93 1.999 . S
Cu92 O98 1.974 . S
Cu92 N103 1.985 . S
Cu92 O112 1.959 . S
N93 Cu92 1.999 . S
N93 C95 1.263 . S
N93 C97 1.389 . S
N94 C95 1.358 . S
N94 C96 1.400 . S
C95 N93 1.263 . S
C95 N94 1.358 . S
C95 H101 0.930 . S
C96 N94 1.400 . S
C96 C97 1.351 . S
C96 H113 0.930 . S
C97 N93 1.389 . S
C97 C96 1.351 . S
C97 H102 0.930 . S
O98 Cu92 1.974 . S
O98 C108 1.282 . S
C99 O100 1.261 . S
C99 O112 1.251 . S
O100 C99 1.261 . S
H101 C95 0.930 . S
H102 C97 0.930 . S
N103 Cu92 1.985 . S
N103 C105 1.335 . S
N103 C106 1.390 . S
N104 C105 1.345 . S
N104 C107 1.336 . S
C105 N103 1.335 . S
C105 N104 1.345 . S
C105 H110 0.930 . S
C106 N103 1.390 . S
C106 C107 1.346 . S
C106 H111 0.930 . S
C107 N104 1.336 . S
C107 C106 1.346 . S
C107 H114 0.929 . S
C108 O98 1.282 . S
C108 O109 1.216 . S
O109 C108 1.216 . S
H110 C105 0.930 . S
H111 C106 0.930 . S
O112 Cu92 1.959 . S
O112 C99 1.251 . S
H113 C96 0.930 . S
H114 C107 0.929 . S
Cu115 N116 1.999 . S
Cu115 O121 1.974 . S
Cu115 N126 1.985 . S
Cu115 O135 1.959 . S
N116 Cu115 1.999 . S
N116 C118 1.263 . S
N116 C120 1.389 . S
N117 C118 1.358 . S
N117 C119 1.400 . S
C118 N116 1.263 . S
C118 N117 1.358 . S
C118 H124 0.930 . S
C119 N117 1.400 . S
C119 C120 1.351 . S
C119 H136 0.930 . S
C120 N116 1.389 . S
C120 C119 1.351 . S
C120 H125 0.930 . S
O121 Cu115 1.974 . S
O121 C131 1.282 . S
C122 O123 1.261 . S
C122 O135 1.251 . S
O123 C122 1.261 . S
H124 C118 0.930 . S
H125 C120 0.930 . S
N126 Cu115 1.985 . S
N126 C128 1.335 . S
N126 C129 1.390 . S
N127 C128 1.345 . S
N127 C130 1.336 . S
C128 N126 1.335 . S
C128 N127 1.345 . S
C128 H133 0.930 . S
C129 N126 1.390 . S
C129 C130 1.346 . S
C129 H134 0.930 . S
C130 N127 1.336 . S
C130 C129 1.346 . S
C130 H137 0.929 . S
C131 O121 1.282 . S
C131 O132 1.216 . S
O132 C131 1.216 . S
H133 C128 0.930 . S
H134 C129 0.930 . S
O135 Cu115 1.959 . S
O135 C122 1.251 . S
H136 C119 0.930 . S
H137 C130 0.929 . S
Cu138 N139 1.999 . S
Cu138 O144 1.974 . S
Cu138 N149 1.985 . S
Cu138 O158 1.959 . S
N139 Cu138 1.999 . S
N139 C141 1.263 . S
N139 C143 1.389 . S
N140 C141 1.358 . S
N140 C142 1.400 . S
C141 N139 1.263 . S
C141 N140 1.358 . S
C141 H147 0.930 . S
C142 N140 1.400 . S
C142 C143 1.351 . S
C142 H159 0.930 . S
C143 N139 1.389 . S
C143 C142 1.351 . S
C143 H148 0.930 . S
O144 Cu138 1.974 . S
O144 C154 1.282 . S
C145 O146 1.261 . S
C145 O158 1.251 . S
O146 C145 1.261 . S
H147 C141 0.930 . S
H148 C143 0.930 . S
N149 Cu138 1.985 . S
N149 C151 1.335 . S
N149 C152 1.390 . S
N150 C151 1.345 . S
N150 C153 1.336 . S
C151 N149 1.335 . S
C151 N150 1.345 . S
C151 H156 0.930 . S
C152 N149 1.390 . S
C152 C153 1.346 . S
C152 H157 0.930 . S
C153 N150 1.336 . S
C153 C152 1.346 . S
C153 H160 0.929 . S
C154 O144 1.282 . S
C154 O155 1.216 . S
O155 C154 1.216 . S
H156 C151 0.930 . S
H157 C152 0.930 . S
O158 Cu138 1.959 . S
O158 C145 1.251 . S
H159 C142 0.930 . S
H160 C153 0.929 . S
Cu161 N162 1.999 . S
Cu161 O167 1.974 . S
Cu161 N172 1.985 . S
Cu161 O181 1.959 . S
N162 Cu161 1.999 . S
N162 C164 1.263 . S
N162 C166 1.389 . S
N163 C164 1.358 . S
N163 C165 1.400 . S
C164 N162 1.263 . S
C164 N163 1.358 . S
C164 H170 0.930 . S
C165 N163 1.400 . S
C165 C166 1.351 . S
C165 H182 0.930 . S
C166 N162 1.389 . S
C166 C165 1.351 . S
C166 H171 0.930 . S
O167 Cu161 1.974 . S
O167 C177 1.282 . S
C168 O169 1.261 . S
C168 O181 1.251 . S
O169 C168 1.261 . S
H170 C164 0.930 . S
H171 C166 0.930 . S
N172 Cu161 1.985 . S
N172 C174 1.335 . S
N172 C175 1.390 . S
N173 C174 1.345 . S
N173 C176 1.336 . S
C174 N172 1.335 . S
C174 N173 1.345 . S
C174 H179 0.930 . S
C175 N172 1.390 . S
C175 C176 1.346 . S
C175 H180 0.930 . S
C176 N173 1.336 . S
C176 C175 1.346 . S
C176 H183 0.929 . S
C177 O167 1.282 . S
C177 O178 1.216 . S
O178 C177 1.216 . S
H179 C174 0.930 . S
H180 C175 0.930 . S
O181 Cu161 1.959 . S
O181 C168 1.251 . S
H182 C165 0.930 . S
H183 C176 0.929 . S
Cu184 N185 1.999 . S
Cu184 O190 1.974 . S
Cu184 N195 1.985 . S
Cu184 O204 1.959 . S
N185 Cu184 1.999 . S
N185 C187 1.263 . S
N185 C189 1.389 . S
N186 C187 1.358 . S
N186 C188 1.400 . S
C187 N185 1.263 . S
C187 N186 1.358 . S
C187 H193 0.930 . S
C188 N186 1.400 . S
C188 C189 1.351 . S
C188 H205 0.930 . S
C189 N185 1.389 . S
C189 C188 1.351 . S
C189 H194 0.930 . S
O190 Cu184 1.974 . S
O190 C200 1.282 . S
C191 O192 1.261 . S
C191 O204 1.251 . S
O192 C191 1.261 . S
H193 C187 0.930 . S
H194 C189 0.930 . S
N195 Cu184 1.985 . S
N195 C197 1.335 . S
N195 C198 1.390 . S
N196 C197 1.345 . S
N196 C199 1.336 . S
C197 N195 1.335 . S
C197 N196 1.345 . S
C197 H202 0.930 . S
C198 N195 1.390 . S
C198 C199 1.346 . S
C198 H203 0.930 . S
C199 N196 1.336 . S
C199 C198 1.346 . S
C199 H206 0.929 . S
C200 O190 1.282 . S
C200 O201 1.216 . S
O201 C200 1.216 . S
H202 C197 0.930 . S
H203 C198 0.930 . S
O204 Cu184 1.959 . S
O204 C191 1.251 . S
H205 C188 0.930 . S
H206 C199 0.929 . S
Cu207 N208 1.999 . S
Cu207 O213 1.974 . S
Cu207 N218 1.985 . S
Cu207 O227 1.959 . S
N208 Cu207 1.999 . S
N208 C210 1.263 . S
N208 C212 1.389 . S
N209 C210 1.358 . S
N209 C211 1.400 . S
C210 N208 1.263 . S
C210 N209 1.358 . S
C210 H216 0.930 . S
C211 N209 1.400 . S
C211 C212 1.351 . S
C211 H228 0.930 . S
C212 N208 1.389 . S
C212 C211 1.351 . S
C212 H217 0.930 . S
O213 Cu207 1.974 . S
O213 C223 1.282 . S
C214 O215 1.261 . S
C214 O227 1.251 . S
O215 C214 1.261 . S
H216 C210 0.930 . S
H217 C212 0.930 . S
N218 Cu207 1.985 . S
N218 C220 1.335 . S
N218 C221 1.390 . S
N219 C220 1.345 . S
N219 C222 1.336 . S
C220 N218 1.335 . S
C220 N219 1.345 . S
C220 H225 0.930 . S
C221 N218 1.390 . S
C221 C222 1.346 . S
C221 H226 0.930 . S
C222 N219 1.336 . S
C222 C221 1.346 . S
C222 H229 0.929 . S
C223 O213 1.282 . S
C223 O224 1.216 . S
O224 C223 1.216 . S
H225 C220 0.930 . S
H226 C221 0.930 . S
O227 Cu207 1.959 . S
O227 C214 1.251 . S
H228 C211 0.930 . S
H229 C222 0.929 . S
Cu230 N231 1.999 . S
Cu230 O236 1.974 . S
Cu230 N241 1.985 . S
Cu230 O250 1.959 . S
N231 Cu230 1.999 . S
N231 C233 1.263 . S
N231 C235 1.389 . S
N232 C233 1.358 . S
N232 C234 1.400 . S
C233 N231 1.263 . S
C233 N232 1.358 . S
C233 H239 0.930 . S
C234 N232 1.400 . S
C234 C235 1.351 . S
C234 H251 0.930 . S
C235 N231 1.389 . S
C235 C234 1.351 . S
C235 H240 0.930 . S
O236 Cu230 1.974 . S
O236 C246 1.282 . S
C237 O238 1.261 . S
C237 O250 1.251 . S
O238 C237 1.261 . S
H239 C233 0.930 . S
H240 C235 0.930 . S
N241 Cu230 1.985 . S
N241 C243 1.335 . S
N241 C244 1.390 . S
N242 C243 1.345 . S
N242 C245 1.336 . S
C243 N241 1.335 . S
C243 N242 1.345 . S
C243 H248 0.930 . S
C244 N241 1.390 . S
C244 C245 1.346 . S
C244 H249 0.930 . S
C245 N242 1.336 . S
C245 C244 1.346 . S
C245 H252 0.929 . S
C246 O236 1.282 . S
C246 O247 1.216 . S
O247 C246 1.216 . S
H248 C243 0.930 . S
H249 C244 0.930 . S
O250 Cu230 1.959 . S
O250 C237 1.251 . S
H251 C234 0.930 . S
H252 C245 0.929 . S
Cu253 N254 1.999 . S
Cu253 O259 1.974 . S
Cu253 N264 1.985 . S
Cu253 O273 1.959 . S
N254 Cu253 1.999 . S
N254 C256 1.263 . S
N254 C258 1.389 . S
N255 C256 1.358 . S
N255 C257 1.400 . S
C256 N254 1.263 . S
C256 N255 1.358 . S
C256 H262 0.930 . S
C257 N255 1.400 . S
C257 C258 1.351 . S
C257 H274 0.930 . S
C258 N254 1.389 . S
C258 C257 1.351 . S
C258 H263 0.930 . S
O259 Cu253 1.974 . S
O259 C269 1.282 . S
C260 O261 1.261 . S
C260 O273 1.251 . S
O261 C260 1.261 . S
H262 C256 0.930 . S
H263 C258 0.930 . S
N264 Cu253 1.985 . S
N264 C266 1.335 . S
N264 C267 1.390 . S
N265 C266 1.345 . S
N265 C268 1.336 . S
C266 N264 1.335 . S
C266 N265 1.345 . S
C266 H271 0.930 . S
C267 N264 1.390 . S
C267 C268 1.346 . S
C267 H272 0.930 . S
C268 N265 1.336 . S
C268 C267 1.346 . S
C268 H275 0.929 . S
C269 O259 1.282 . S
C269 O270 1.216 . S
O270 C269 1.216 . S
H271 C266 0.930 . S
H272 C267 0.930 . S
O273 Cu253 1.959 . S
O273 C260 1.251 . S
H274 C257 0.930 . S
H275 C268 0.929 . S
Cu276 N277 1.999 . S
Cu276 O282 1.974 . S
Cu276 N287 1.985 . S
Cu276 O296 1.959 . S
N277 Cu276 1.999 . S
N277 C279 1.263 . S
N277 C281 1.389 . S
N278 C279 1.358 . S
N278 C280 1.400 . S
C279 N277 1.263 . S
C279 N278 1.358 . S
C279 H285 0.930 . S
C280 N278 1.400 . S
C280 C281 1.351 . S
C280 H297 0.930 . S
C281 N277 1.389 . S
C281 C280 1.351 . S
C281 H286 0.930 . S
O282 Cu276 1.974 . S
O282 C292 1.282 . S
C283 O284 1.261 . S
C283 O296 1.251 . S
O284 C283 1.261 . S
H285 C279 0.930 . S
H286 C281 0.930 . S
N287 Cu276 1.985 . S
N287 C289 1.335 . S
N287 C290 1.390 . S
N288 C289 1.345 . S
N288 C291 1.336 . S
C289 N287 1.335 . S
C289 N288 1.345 . S
C289 H294 0.930 . S
C290 N287 1.390 . S
C290 C291 1.346 . S
C290 H295 0.930 . S
C291 N288 1.336 . S
C291 C290 1.346 . S
C291 H298 0.929 . S
C292 O282 1.282 . S
C292 O293 1.216 . S
O293 C292 1.216 . S
H294 C289 0.930 . S
H295 C290 0.930 . S
O296 Cu276 1.959 . S
O296 C283 1.251 . S
H297 C280 0.930 . S
H298 C291 0.929 . S
Cu299 N300 1.999 . S
Cu299 O305 1.974 . S
Cu299 N310 1.985 . S
Cu299 O319 1.959 . S
N300 Cu299 1.999 . S
N300 C302 1.263 . S
N300 C304 1.389 . S
N301 C302 1.358 . S
N301 C303 1.400 . S
C302 N300 1.263 . S
C302 N301 1.358 . S
C302 H308 0.930 . S
C303 N301 1.400 . S
C303 C304 1.351 . S
C303 H320 0.930 . S
C304 N300 1.389 . S
C304 C303 1.351 . S
C304 H309 0.930 . S
O305 Cu299 1.974 . S
O305 C315 1.282 . S
C306 O307 1.261 . S
C306 O319 1.251 . S
O307 C306 1.261 . S
H308 C302 0.930 . S
H309 C304 0.930 . S
N310 Cu299 1.985 . S
N310 C312 1.335 . S
N310 C313 1.390 . S
N311 C312 1.345 . S
N311 C314 1.336 . S
C312 N310 1.335 . S
C312 N311 1.345 . S
C312 H317 0.930 . S
C313 N310 1.390 . S
C313 C314 1.346 . S
C313 H318 0.930 . S
C314 N311 1.336 . S
C314 C313 1.346 . S
C314 H321 0.929 . S
C315 O305 1.282 . S
C315 O316 1.216 . S
O316 C315 1.216 . S
H317 C312 0.930 . S
H318 C313 0.930 . S
O319 Cu299 1.959 . S
O319 C306 1.251 . S
H320 C303 0.930 . S
H321 C314 0.929 . S
Cu322 N323 1.999 . S
Cu322 O328 1.974 . S
Cu322 N333 1.985 . S
Cu322 O342 1.959 . S
N323 Cu322 1.999 . S
N323 C325 1.263 . S
N323 C327 1.389 . S
N324 C325 1.358 . S
N324 C326 1.400 . S
C325 N323 1.263 . S
C325 N324 1.358 . S
C325 H331 0.930 . S
C326 N324 1.400 . S
C326 C327 1.351 . S
C326 H343 0.930 . S
C327 N323 1.389 . S
C327 C326 1.351 . S
C327 H332 0.930 . S
O328 Cu322 1.974 . S
O328 C338 1.282 . S
C329 O330 1.261 . S
C329 O342 1.251 . S
O330 C329 1.261 . S
H331 C325 0.930 . S
H332 C327 0.930 . S
N333 Cu322 1.985 . S
N333 C335 1.335 . S
N333 C336 1.390 . S
N334 C335 1.345 . S
N334 C337 1.336 . S
C335 N333 1.335 . S
C335 N334 1.345 . S
C335 H340 0.930 . S
C336 N333 1.390 . S
C336 C337 1.346 . S
C336 H341 0.930 . S
C337 N334 1.336 . S
C337 C336 1.346 . S
C337 H344 0.929 . S
C338 O328 1.282 . S
C338 O339 1.216 . S
O339 C338 1.216 . S
H340 C335 0.930 . S
H341 C336 0.930 . S
O342 Cu322 1.959 . S
O342 C329 1.251 . S
H343 C326 0.930 . S
H344 C337 0.929 . S
Cu345 N346 1.999 . S
Cu345 O351 1.974 . S
Cu345 N356 1.985 . S
Cu345 O365 1.959 . S
N346 Cu345 1.999 . S
N346 C348 1.263 . S
N346 C350 1.389 . S
N347 C348 1.358 . S
N347 C349 1.400 . S
C348 N346 1.263 . S
C348 N347 1.358 . S
C348 H354 0.930 . S
C349 N347 1.400 . S
C349 C350 1.351 . S
C349 H366 0.930 . S
C350 N346 1.389 . S
C350 C349 1.351 . S
C350 H355 0.930 . S
O351 Cu345 1.974 . S
O351 C361 1.282 . S
C352 O353 1.261 . S
C352 O365 1.251 . S
O353 C352 1.261 . S
H354 C348 0.930 . S
H355 C350 0.930 . S
N356 Cu345 1.985 . S
N356 C358 1.335 . S
N356 C359 1.390 . S
N357 C358 1.345 . S
N357 C360 1.336 . S
C358 N356 1.335 . S
C358 N357 1.345 . S
C358 H363 0.930 . S
C359 N356 1.390 . S
C359 C360 1.346 . S
C359 H364 0.930 . S
C360 N357 1.336 . S
C360 C359 1.346 . S
C360 H367 0.929 . S
C361 O351 1.282 . S
C361 O362 1.216 . S
O362 C361 1.216 . S
H363 C358 0.930 . S
H364 C359 0.930 . S
O365 Cu345 1.959 . S
O365 C352 1.251 . S
H366 C349 0.930 . S
H367 C360 0.929 . S
H368 C376 0.929 . S
H369 C378 0.930 . S
H370 C380 0.930 . S
H371 C383 0.929 . S
H372 C386 0.930 . S
H373 C388 0.960 . S
H374 C388 0.960 . S
H375 C388 0.960 . S
C376 H368 0.929 . S
C376 C377 1.377 . S
C376 C378 1.384 . S
C377 C376 1.377 . S
C377 C383 1.390 . S
C378 H369 0.930 . S
C378 C376 1.384 . S
C378 C379 1.372 . S
C379 C378 1.372 . S
C379 C380 1.400 . S
C379 C384 1.490 . S
C380 H370 0.930 . S
C380 C379 1.400 . S
C380 C383 1.386 . S
H381 C397 0.930 . S
H382 C398 0.931 . S
C383 H371 0.929 . S
C383 C377 1.390 . S
C383 C380 1.386 . S
C384 C379 1.490 . S
C384 C386 1.395 . S
C384 C387 1.403 . S
H385 C391 0.930 . S
C386 H372 0.930 . S
C386 C384 1.395 . S
C386 C389 1.403 . S
C387 C384 1.403 . S
C387 C388 1.524 . S
C387 C391 1.400 . S
C388 H373 0.960 . S
C388 H374 0.960 . S
C388 H375 0.960 . S
C388 C387 1.524 . S
C389 C386 1.403 . S
C389 C390 1.392 . S
C389 C393 1.495 . S
C390 C389 1.392 . S
C390 C391 1.385 . S
C390 C392 1.478 . S
C391 H385 0.930 . S
C391 C387 1.400 . S
C391 C390 1.385 . S
C392 C390 1.478 . S
C392 C394 1.381 . S
C392 C398 1.383 . S
C393 C389 1.495 . S
C393 H399 0.959 . S
C393 H400 0.961 . S
C393 H401 0.960 . S
C394 C392 1.381 . S
C394 C395 1.394 . S
C394 H402 0.930 . S
C395 C394 1.394 . S
C395 C396 1.383 . S
C395 H403 0.929 . S
C396 C395 1.383 . S
C396 C397 1.377 . S
C397 H381 0.930 . S
C397 C396 1.377 . S
C397 C398 1.379 . S
C398 H382 0.931 . S
C398 C392 1.383 . S
C398 C397 1.379 . S
H399 C393 0.959 . S
H400 C393 0.961 . S
H401 C393 0.960 . S
H402 C394 0.930 . S
H403 C395 0.929 . S
H404 C412 0.929 . S
H405 C414 0.930 . S
H406 C416 0.930 . S
H407 C419 0.929 . S
H408 C422 0.930 . S
H409 C424 0.960 . S
H410 C424 0.960 . S
H411 C424 0.960 . S
C412 H404 0.929 . S
C412 C413 1.377 . S
C412 C414 1.384 . S
C413 C412 1.377 . S
C413 C419 1.390 . S
C414 H405 0.930 . S
C414 C412 1.384 . S
C414 C415 1.372 . S
C415 C414 1.372 . S
C415 C416 1.400 . S
C415 C420 1.490 . S
C416 H406 0.930 . S
C416 C415 1.400 . S
C416 C419 1.386 . S
H417 C433 0.930 . S
H418 C434 0.931 . S
C419 H407 0.929 . S
C419 C413 1.390 . S
C419 C416 1.386 . S
C420 C415 1.490 . S
C420 C422 1.395 . S
C420 C423 1.403 . S
H421 C427 0.930 . S
C422 H408 0.930 . S
C422 C420 1.395 . S
C422 C425 1.403 . S
C423 C420 1.403 . S
C423 C424 1.524 . S
C423 C427 1.400 . S
C424 H409 0.960 . S
C424 H410 0.960 . S
C424 H411 0.960 . S
C424 C423 1.524 . S
C425 C422 1.403 . S
C425 C426 1.392 . S
C425 C429 1.495 . S
C426 C425 1.392 . S
C426 C427 1.385 . S
C426 C428 1.478 . S
C427 H421 0.930 . S
C427 C423 1.400 . S
C427 C426 1.385 . S
C428 C426 1.478 . S
C428 C430 1.381 . S
C428 C434 1.383 . S
C429 C425 1.495 . S
C429 H435 0.959 . S
C429 H436 0.961 . S
C429 H437 0.960 . S
C430 C428 1.381 . S
C430 C431 1.394 . S
C430 H438 0.930 . S
C431 C430 1.394 . S
C431 C432 1.383 . S
C431 H439 0.929 . S
C432 C431 1.383 . S
C432 C433 1.377 . S
C433 H417 0.930 . S
C433 C432 1.377 . S
C433 C434 1.379 . S
C434 H418 0.931 . S
C434 C428 1.383 . S
C434 C433 1.379 . S
H435 C429 0.959 . S
H436 C429 0.961 . S
H437 C429 0.960 . S
H438 C430 0.930 . S
H439 C431 0.929 . S
H440 C448 0.929 . S
H441 C450 0.930 . S
H442 C452 0.930 . S
H443 C455 0.929 . S
H444 C458 0.930 . S
H445 C460 0.960 . S
H446 C460 0.960 . S
H447 C460 0.960 . S
C448 H440 0.929 . S
C448 C449 1.377 . S
C448 C450 1.384 . S
C449 C448 1.377 . S
C449 C455 1.390 . S
C450 H441 0.930 . S
C450 C448 1.384 . S
C450 C451 1.372 . S
C451 C450 1.372 . S
C451 C452 1.400 . S
C451 C456 1.490 . S
C452 H442 0.930 . S
C452 C451 1.400 . S
C452 C455 1.386 . S
H453 C469 0.930 . S
H454 C470 0.931 . S
C455 H443 0.929 . S
C455 C449 1.390 . S
C455 C452 1.386 . S
C456 C451 1.490 . S
C456 C458 1.395 . S
C456 C459 1.403 . S
H457 C463 0.930 . S
C458 H444 0.930 . S
C458 C456 1.395 . S
C458 C461 1.403 . S
C459 C456 1.403 . S
C459 C460 1.524 . S
C459 C463 1.400 . S
C460 H445 0.960 . S
C460 H446 0.960 . S
C460 H447 0.960 . S
C460 C459 1.524 . S
C461 C458 1.403 . S
C461 C462 1.392 . S
C461 C465 1.495 . S
C462 C461 1.392 . S
C462 C463 1.385 . S
C462 C464 1.478 . S
C463 H457 0.930 . S
C463 C459 1.400 . S
C463 C462 1.385 . S
C464 C462 1.478 . S
C464 C466 1.381 . S
C464 C470 1.383 . S
C465 C461 1.495 . S
C465 H471 0.959 . S
C465 H472 0.961 . S
C465 H473 0.960 . S
C466 C464 1.381 . S
C466 C467 1.394 . S
C466 H474 0.930 . S
C467 C466 1.394 . S
C467 C468 1.383 . S
C467 H475 0.929 . S
C468 C467 1.383 . S
C468 C469 1.377 . S
C469 H453 0.930 . S
C469 C468 1.377 . S
C469 C470 1.379 . S
C470 H454 0.931 . S
C470 C464 1.383 . S
C470 C469 1.379 . S
H471 C465 0.959 . S
H472 C465 0.961 . S
H473 C465 0.960 . S
H474 C466 0.930 . S
H475 C467 0.929 . S
H476 C484 0.929 . S
H477 C486 0.930 . S
H478 C488 0.930 . S
H479 C491 0.929 . S
H480 C494 0.930 . S
H481 C496 0.960 . S
H482 C496 0.960 . S
H483 C496 0.960 . S
C484 H476 0.929 . S
C484 C485 1.377 . S
C484 C486 1.384 . S
C485 C484 1.377 . S
C485 C491 1.390 . S
C486 H477 0.930 . S
C486 C484 1.384 . S
C486 C487 1.372 . S
C487 C486 1.372 . S
C487 C488 1.400 . S
C487 C492 1.490 . S
C488 H478 0.930 . S
C488 C487 1.400 . S
C488 C491 1.386 . S
H489 C505 0.930 . S
H490 C506 0.931 . S
C491 H479 0.929 . S
C491 C485 1.390 . S
C491 C488 1.386 . S
C492 C487 1.490 . S
C492 C494 1.395 . S
C492 C495 1.403 . S
H493 C499 0.930 . S
C494 H480 0.930 . S
C494 C492 1.395 . S
C494 C497 1.403 . S
C495 C492 1.403 . S
C495 C496 1.524 . S
C495 C499 1.400 . S
C496 H481 0.960 . S
C496 H482 0.960 . S
C496 H483 0.960 . S
C496 C495 1.524 . S
C497 C494 1.403 . S
C497 C498 1.392 . S
C497 C501 1.495 . S
C498 C497 1.392 . S
C498 C499 1.385 . S
C498 C500 1.478 . S
C499 H493 0.930 . S
C499 C495 1.400 . S
C499 C498 1.385 . S
C500 C498 1.478 . S
C500 C502 1.381 . S
C500 C506 1.383 . S
C501 C497 1.495 . S
C501 H507 0.959 . S
C501 H508 0.961 . S
C501 H509 0.960 . S
C502 C500 1.381 . S
C502 C503 1.394 . S
C502 H510 0.930 . S
C503 C502 1.394 . S
C503 C504 1.383 . S
C503 H511 0.929 . S
C504 C503 1.383 . S
C504 C505 1.377 . S
C505 H489 0.930 . S
C505 C504 1.377 . S
C505 C506 1.379 . S
C506 H490 0.931 . S
C506 C500 1.383 . S
C506 C505 1.379 . S
H507 C501 0.959 . S
H508 C501 0.961 . S
H509 C501 0.960 . S
H510 C502 0.930 . S
H511 C503 0.929 . S
H512 C520 0.929 . S
H513 C522 0.930 . S
H514 C524 0.930 . S
H515 C527 0.929 . S
H516 C530 0.930 . S
H517 C532 0.960 . S
H518 C532 0.960 . S
H519 C532 0.960 . S
C520 H512 0.929 . S
C520 C521 1.377 . S
C520 C522 1.384 . S
C521 C520 1.377 . S
C521 C527 1.390 . S
C522 H513 0.930 . S
C522 C520 1.384 . S
C522 C523 1.372 . S
C523 C522 1.372 . S
C523 C524 1.400 . S
C523 C528 1.490 . S
C524 H514 0.930 . S
C524 C523 1.400 . S
C524 C527 1.386 . S
H525 C541 0.930 . S
H526 C542 0.931 . S
C527 H515 0.929 . S
C527 C521 1.390 . S
C527 C524 1.386 . S
C528 C523 1.490 . S
C528 C530 1.395 . S
C528 C531 1.403 . S
H529 C535 0.930 . S
C530 H516 0.930 . S
C530 C528 1.395 . S
C530 C533 1.403 . S
C531 C528 1.403 . S
C531 C532 1.524 . S
C531 C535 1.400 . S
C532 H517 0.960 . S
C532 H518 0.960 . S
C532 H519 0.960 . S
C532 C531 1.524 . S
C533 C530 1.403 . S
C533 C534 1.392 . S
C533 C537 1.495 . S
C534 C533 1.392 . S
C534 C535 1.385 . S
C534 C536 1.478 . S
C535 H529 0.930 . S
C535 C531 1.400 . S
C535 C534 1.385 . S
C536 C534 1.478 . S
C536 C538 1.381 . S
C536 C542 1.383 . S
C537 C533 1.495 . S
C537 H543 0.959 . S
C537 H544 0.961 . S
C537 H545 0.960 . S
C538 C536 1.381 . S
C538 C539 1.394 . S
C538 H546 0.930 . S
C539 C538 1.394 . S
C539 C540 1.383 . S
C539 H547 0.929 . S
C540 C539 1.383 . S
C540 C541 1.377 . S
C541 H525 0.930 . S
C541 C540 1.377 . S
C541 C542 1.379 . S
C542 H526 0.931 . S
C542 C536 1.383 . S
C542 C541 1.379 . S
H543 C537 0.959 . S
H544 C537 0.961 . S
H545 C537 0.960 . S
H546 C538 0.930 . S
H547 C539 0.929 . S
H548 C556 0.929 . S
H549 C558 0.930 . S
H550 C560 0.930 . S
H551 C563 0.929 . S
H552 C566 0.930 . S
H553 C568 0.960 . S
H554 C568 0.960 . S
H555 C568 0.960 . S
C556 H548 0.929 . S
C556 C557 1.377 . S
C556 C558 1.384 . S
C557 C556 1.377 . S
C557 C563 1.390 . S
C558 H549 0.930 . S
C558 C556 1.384 . S
C558 C559 1.372 . S
C559 C558 1.372 . S
C559 C560 1.400 . S
C559 C564 1.490 . S
C560 H550 0.930 . S
C560 C559 1.400 . S
C560 C563 1.386 . S
H561 C577 0.930 . S
H562 C578 0.931 . S
C563 H551 0.929 . S
C563 C557 1.390 . S
C563 C560 1.386 . S
C564 C559 1.490 . S
C564 C566 1.395 . S
C564 C567 1.403 . S
H565 C571 0.930 . S
C566 H552 0.930 . S
C566 C564 1.395 . S
C566 C569 1.403 . S
C567 C564 1.403 . S
C567 C568 1.524 . S
C567 C571 1.400 . S
C568 H553 0.960 . S
C568 H554 0.960 . S
C568 H555 0.960 . S
C568 C567 1.524 . S
C569 C566 1.403 . S
C569 C570 1.392 . S
C569 C573 1.495 . S
C570 C569 1.392 . S
C570 C571 1.385 . S
C570 C572 1.478 . S
C571 H565 0.930 . S
C571 C567 1.400 . S
C571 C570 1.385 . S
C572 C570 1.478 . S
C572 C574 1.381 . S
C572 C578 1.383 . S
C573 C569 1.495 . S
C573 H579 0.959 . S
C573 H580 0.961 . S
C573 H581 0.960 . S
C574 C572 1.381 . S
C574 C575 1.394 . S
C574 H582 0.930 . S
C575 C574 1.394 . S
C575 C576 1.383 . S
C575 H583 0.929 . S
C576 C575 1.383 . S
C576 C577 1.377 . S
C577 H561 0.930 . S
C577 C576 1.377 . S
C577 C578 1.379 . S
C578 H562 0.931 . S
C578 C572 1.383 . S
C578 C577 1.379 . S
H579 C573 0.959 . S
H580 C573 0.961 . S
H581 C573 0.960 . S
H582 C574 0.930 . S
H583 C575 0.929 . S
H584 C592 0.929 . S
H585 C594 0.930 . S
H586 C596 0.930 . S
H587 C599 0.929 . S
H588 C602 0.930 . S
H589 C604 0.960 . S
H590 C604 0.960 . S
H591 C604 0.960 . S
C592 H584 0.929 . S
C592 C593 1.377 . S
C592 C594 1.384 . S
C593 C592 1.377 . S
C593 C599 1.390 . S
C594 H585 0.930 . S
C594 C592 1.384 . S
C594 C595 1.372 . S
C595 C594 1.372 . S
C595 C596 1.400 . S
C595 C600 1.490 . S
C596 H586 0.930 . S
C596 C595 1.400 . S
C596 C599 1.386 . S
H597 C613 0.930 . S
H598 C614 0.931 . S
C599 H587 0.929 . S
C599 C593 1.390 . S
C599 C596 1.386 . S
C600 C595 1.490 . S
C600 C602 1.395 . S
C600 C603 1.403 . S
H601 C607 0.930 . S
C602 H588 0.930 . S
C602 C600 1.395 . S
C602 C605 1.403 . S
C603 C600 1.403 . S
C603 C604 1.524 . S
C603 C607 1.400 . S
C604 H589 0.960 . S
C604 H590 0.960 . S
C604 H591 0.960 . S
C604 C603 1.524 . S
C605 C602 1.403 . S
C605 C606 1.392 . S
C605 C609 1.495 . S
C606 C605 1.392 . S
C606 C607 1.385 . S
C606 C608 1.478 . S
C607 H601 0.930 . S
C607 C603 1.400 . S
C607 C606 1.385 . S
C608 C606 1.478 . S
C608 C610 1.381 . S
C608 C614 1.383 . S
C609 C605 1.495 . S
C609 H615 0.959 . S
C609 H616 0.961 . S
C609 H617 0.960 . S
C610 C608 1.381 . S
C610 C611 1.394 . S
C610 H618 0.930 . S
C611 C610 1.394 . S
C611 C612 1.383 . S
C611 H619 0.929 . S
C612 C611 1.383 . S
C612 C613 1.377 . S
C613 H597 0.930 . S
C613 C612 1.377 . S
C613 C614 1.379 . S
C614 H598 0.931 . S
C614 C608 1.383 . S
C614 C613 1.379 . S
H615 C609 0.959 . S
H616 C609 0.961 . S
H617 C609 0.960 . S
H618 C610 0.930 . S
H619 C611 0.929 . S
H620 C628 0.929 . S
H621 C630 0.930 . S
H622 C632 0.930 . S
H623 C635 0.929 . S
H624 C638 0.930 . S
H625 C640 0.960 . S
H626 C640 0.960 . S
H627 C640 0.960 . S
C628 H620 0.929 . S
C628 C629 1.377 . S
C628 C630 1.384 . S
C629 C628 1.377 . S
C629 C635 1.390 . S
C630 H621 0.930 . S
C630 C628 1.384 . S
C630 C631 1.372 . S
C631 C630 1.372 . S
C631 C632 1.400 . S
C631 C636 1.490 . S
C632 H622 0.930 . S
C632 C631 1.400 . S
C632 C635 1.386 . S
H633 C649 0.930 . S
H634 C650 0.931 . S
C635 H623 0.929 . S
C635 C629 1.390 . S
C635 C632 1.386 . S
C636 C631 1.490 . S
C636 C638 1.395 . S
C636 C639 1.403 . S
H637 C643 0.930 . S
C638 H624 0.930 . S
C638 C636 1.395 . S
C638 C641 1.403 . S
C639 C636 1.403 . S
C639 C640 1.524 . S
C639 C643 1.400 . S
C640 H625 0.960 . S
C640 H626 0.960 . S
C640 H627 0.960 . S
C640 C639 1.524 . S
C641 C638 1.403 . S
C641 C642 1.392 . S
C641 C645 1.495 . S
C642 C641 1.392 . S
C642 C643 1.385 . S
C642 C644 1.478 . S
C643 H637 0.930 . S
C643 C639 1.400 . S
C643 C642 1.385 . S
C644 C642 1.478 . S
C644 C646 1.381 . S
C644 C650 1.383 . S
C645 C641 1.495 . S
C645 H651 0.959 . S
C645 H652 0.961 . S
C645 H653 0.960 . S
C646 C644 1.381 . S
C646 C647 1.394 . S
C646 H654 0.930 . S
C647 C646 1.394 . S
C647 C648 1.383 . S
C647 H655 0.929 . S
C648 C647 1.383 . S
C648 C649 1.377 . S
C649 H633 0.930 . S
C649 C648 1.377 . S
C649 C650 1.379 . S
C650 H634 0.931 . S
C650 C644 1.383 . S
C650 C649 1.379 . S
H651 C645 0.959 . S
H652 C645 0.961 . S
H653 C645 0.960 . S
H654 C646 0.930 . S
H655 C647 0.929 . S
H656 C664 0.929 . S
H657 C666 0.920 1_455 S
H658 C668 0.930 . S
H659 C671 0.929 . S
H660 C674 0.930 1_655 S
H661 C676 0.960 . S
H662 C676 0.960 . S
H663 C676 0.960 . S
C664 H656 0.929 . S
C664 C665 1.377 . S
C664 C666 1.398 . S
C665 C664 1.377 . S
C665 C671 1.390 . S
C666 H657 0.920 1_655 S
C666 C664 1.398 . S
C666 C667 1.369 1_655 S
C667 C666 1.369 1_455 S
C667 C668 1.400 1_455 S
C667 C672 1.490 . S
C668 H658 0.930 . S
C668 C667 1.400 1_655 S
C668 C671 1.386 . S
H669 C685 0.930 . S
H670 C686 0.931 . S
C671 H659 0.929 . S
C671 C665 1.390 . S
C671 C668 1.386 . S
C672 C667 1.490 . S
C672 C674 1.395 . S
C672 C675 1.403 . S
H673 C679 0.930 . S
C674 H660 0.930 1_455 S
C674 C672 1.395 . S
C674 C677 1.403 . S
C675 C672 1.403 . S
C675 C676 1.524 . S
C675 C679 1.400 . S
C676 H661 0.960 . S
C676 H662 0.960 . S
C676 H663 0.960 . S
C676 C675 1.524 . S
C677 C674 1.403 . S
C677 C678 1.392 . S
C677 C681 1.495 . S
C678 C677 1.392 . S
C678 C679 1.385 . S
C678 C680 1.478 . S
C679 H673 0.930 . S
C679 C675 1.400 . S
C679 C678 1.385 . S
C680 C678 1.478 . S
C680 C682 1.381 . S
C680 C686 1.383 . S
C681 C677 1.495 . S
C681 H687 0.959 1_455 S
C681 H688 0.961 . S
C681 H689 0.960 . S
C682 C680 1.381 . S
C682 C683 1.394 . S
C682 H690 0.930 . S
C683 C682 1.394 . S
C683 C684 1.383 . S
C683 H691 0.929 . S
C684 C683 1.383 . S
C684 C685 1.377 . S
C685 H669 0.930 . S
C685 C684 1.377 . S
C685 C686 1.379 . S
C686 H670 0.931 . S
C686 C680 1.383 . S
C686 C685 1.379 . S
H687 C681 0.959 1_655 S
H688 C681 0.961 . S
H689 C681 0.960 . S
H690 C682 0.930 . S
H691 C683 0.929 . S
H692 C700 0.929 . S
H693 C702 0.930 . S
H694 C704 0.930 . S
H695 C707 0.929 . S
H696 C710 0.930 . S
H697 C712 0.960 1_565 S
H698 C712 0.960 . S
H699 C712 0.960 . S
C700 H692 0.929 . S
C700 C701 1.377 . S
C700 C702 1.384 1_655 S
C701 C700 1.377 . S
C701 C707 1.390 . S
C702 H693 0.930 . S
C702 C700 1.384 1_455 S
C702 C703 1.372 . S
C703 C702 1.372 . S
C703 C704 1.400 1_455 S
C703 C708 1.490 . S
C704 H694 0.930 . S
C704 C703 1.400 1_655 S
C704 C707 1.386 . S
H705 C721 0.930 . S
H706 C722 0.931 1_545 S
C707 H695 0.929 . S
C707 C701 1.390 . S
C707 C704 1.386 . S
C708 C703 1.490 . S
C708 C710 1.395 . S
C708 C711 1.403 . S
H709 C715 0.930 1_565 S
C710 H696 0.930 . S
C710 C708 1.395 . S
C710 C713 1.403 . S
C711 C708 1.403 . S
C711 C712 1.524 1_455 S
C711 C715 1.400 . S
C712 H697 0.960 1_545 S
C712 H698 0.960 . S
C712 H699 0.960 . S
C712 C711 1.524 1_655 S
C713 C710 1.403 . S
C713 C714 1.392 . S
C713 C717 1.495 . S
C714 C713 1.392 . S
C714 C715 1.385 . S
C714 C716 1.478 1_545 S
C715 H709 0.930 1_545 S
C715 C711 1.400 . S
C715 C714 1.385 . S
C716 C714 1.478 1_565 S
C716 C718 1.381 . S
C716 C722 1.383 . S
C717 C713 1.495 . S
C717 H723 0.959 . S
C717 H724 0.961 . S
C717 H725 0.960 . S
C718 C716 1.381 . S
C718 C719 1.394 . S
C718 H726 0.930 . S
C719 C718 1.394 . S
C719 C720 1.383 . S
C719 H727 0.929 . S
C720 C719 1.383 . S
C720 C721 1.377 . S
C721 H705 0.930 . S
C721 C720 1.377 . S
C721 C722 1.379 . S
C722 H706 0.931 1_565 S
C722 C716 1.383 . S
C722 C721 1.379 . S
H723 C717 0.959 . S
H724 C717 0.961 . S
H725 C717 0.960 . S
H726 C718 0.930 . S
H727 C719 0.929 . S
H728 C736 0.929 . S
H729 C738 0.930 . S
H730 C740 0.930 . S
H731 C743 0.929 . S
H732 C746 0.930 . S
H733 C748 0.960 . S
H734 C748 0.960 . S
H735 C748 0.960 . S
C736 H728 0.929 . S
C736 C737 1.377 . S
C736 C738 1.384 . S
C737 C736 1.377 . S
C737 C743 1.390 . S
C738 H729 0.930 . S
C738 C736 1.384 . S
C738 C739 1.372 . S
C739 C738 1.372 . S
C739 C740 1.400 . S
C739 C744 1.490 . S
C740 H730 0.930 . S
C740 C739 1.400 . S
C740 C743 1.386 . S
H741 C757 0.930 . S
H742 C758 0.931 . S
C743 H731 0.929 . S
C743 C737 1.390 . S
C743 C740 1.386 . S
C744 C739 1.490 . S
C744 C746 1.395 . S
C744 C747 1.403 . S
H745 C751 0.930 . S
C746 H732 0.930 . S
C746 C744 1.395 . S
C746 C749 1.403 . S
C747 C744 1.403 . S
C747 C748 1.524 . S
C747 C751 1.400 . S
C748 H733 0.960 . S
C748 H734 0.960 . S
C748 H735 0.960 . S
C748 C747 1.524 . S
C749 C746 1.403 . S
C749 C750 1.392 . S
C749 C753 1.495 1_545 S
C750 C749 1.392 . S
C750 C751 1.385 . S
C750 C752 1.478 1_545 S
C751 H745 0.930 . S
C751 C747 1.400 . S
C751 C750 1.385 . S
C752 C750 1.478 1_565 S
C752 C754 1.381 . S
C752 C758 1.383 1_565 S
C753 C749 1.495 1_565 S
C753 H759 0.959 1_565 S
C753 H760 0.961 1_565 S
C753 H761 0.960 . S
C754 C752 1.381 . S
C754 C755 1.394 . S
C754 H762 0.930 . S
C755 C754 1.394 . S
C755 C756 1.383 . S
C755 H763 0.929 . S
C756 C755 1.383 . S
C756 C757 1.377 . S
C757 H741 0.930 . S
C757 C756 1.377 . S
C757 C758 1.379 1_565 S
C758 H742 0.931 . S
C758 C752 1.383 1_545 S
C758 C757 1.379 1_545 S
H759 C753 0.959 1_545 S
H760 C753 0.961 1_545 S
H761 C753 0.960 . S
H762 C754 0.930 . S
H763 C755 0.929 . S
H764 C772 0.929 . S
H765 C774 0.930 . S
H766 C776 0.930 . S
H767 C779 0.929 . S
H768 C782 0.930 . S
H769 C784 0.960 . S
H770 C784 0.960 . S
H771 C784 0.960 . S
C772 H764 0.929 . S
C772 C773 1.377 . S
C772 C774 1.384 . S
C773 C772 1.377 . S
C773 C779 1.390 . S
C774 H765 0.930 . S
C774 C772 1.384 . S
C774 C775 1.372 . S
C775 C774 1.372 . S
C775 C776 1.400 . S
C775 C780 1.490 . S
C776 H766 0.930 . S
C776 C775 1.400 . S
C776 C779 1.386 . S
H777 C793 0.930 . S
H778 C794 0.931 . S
C779 H767 0.929 . S
C779 C773 1.390 . S
C779 C776 1.386 . S
C780 C775 1.490 . S
C780 C782 1.395 . S
C780 C783 1.403 . S
H781 C787 0.930 . S
C782 H768 0.930 . S
C782 C780 1.395 . S
C782 C785 1.403 . S
C783 C780 1.403 . S
C783 C784 1.524 . S
C783 C787 1.400 . S
C784 H769 0.960 . S
C784 H770 0.960 . S
C784 H771 0.960 . S
C784 C783 1.524 . S
C785 C782 1.403 . S
C785 C786 1.392 . S
C785 C789 1.495 . S
C786 C785 1.392 . S
C786 C787 1.385 . S
C786 C788 1.478 . S
C787 H781 0.930 . S
C787 C783 1.400 . S
C787 C786 1.385 . S
C788 C786 1.478 . S
C788 C790 1.381 . S
C788 C794 1.383 . S
C789 C785 1.495 . S
C789 H795 0.959 . S
C789 H796 0.961 . S
C789 H797 0.960 . S
C790 C788 1.381 . S
C790 C791 1.394 . S
C790 H798 0.930 . S
C791 C790 1.394 . S
C791 C792 1.383 . S
C791 H799 0.929 . S
C792 C791 1.383 . S
C792 C793 1.377 . S
C793 H777 0.930 . S
C793 C792 1.377 . S
C793 C794 1.379 . S
C794 H778 0.931 . S
C794 C788 1.383 . S
C794 C793 1.379 . S
H795 C789 0.959 . S
H796 C789 0.961 . S
H797 C789 0.960 . S
H798 C790 0.930 . S
H799 C791 0.929 . S
H800 C808 0.929 . S
H801 C810 0.930 . S
H802 C812 0.930 . S
H803 C815 0.929 . S
H804 C818 0.930 1_455 S
H805 C820 0.960 . S
H806 C820 0.960 . S
H807 C820 0.960 . S
C808 H800 0.929 . S
C808 C809 1.377 . S
C808 C810 1.384 . S
C809 C808 1.377 . S
C809 C815 1.390 1_455 S
C810 H801 0.930 . S
C810 C808 1.384 . S
C810 C811 1.372 1_455 S
C811 C810 1.372 1_655 S
C811 C812 1.400 . S
C811 C816 1.490 . S
C812 H802 0.930 . S
C812 C811 1.400 . S
C812 C815 1.386 . S
H813 C829 0.930 . S
H814 C830 0.931 . S
C815 H803 0.929 . S
C815 C809 1.390 1_655 S
C815 C812 1.386 . S
C816 C811 1.490 . S
C816 C818 1.395 . S
C816 C819 1.403 . S
H817 C823 0.930 . S
C818 H804 0.930 1_655 S
C818 C816 1.395 . S
C818 C821 1.403 . S
C819 C816 1.403 . S
C819 C820 1.524 . S
C819 C823 1.400 . S
C820 H805 0.960 . S
C820 H806 0.960 . S
C820 H807 0.960 . S
C820 C819 1.524 . S
C821 C818 1.403 . S
C821 C822 1.392 . S
C821 C825 1.495 . S
C822 C821 1.392 . S
C822 C823 1.385 . S
C822 C824 1.478 . S
C823 H817 0.930 . S
C823 C819 1.400 . S
C823 C822 1.385 . S
C824 C822 1.478 . S
C824 C826 1.381 . S
C824 C830 1.383 . S
C825 C821 1.495 . S
C825 H831 0.959 1_655 S
C825 H832 0.961 . S
C825 H833 0.960 . S
C826 C824 1.381 . S
C826 C827 1.394 . S
C826 H834 0.930 . S
C827 C826 1.394 . S
C827 C828 1.383 . S
C827 H835 0.929 . S
C828 C827 1.383 . S
C828 C829 1.377 . S
C829 H813 0.930 . S
C829 C828 1.377 . S
C829 C830 1.379 . S
C830 H814 0.931 . S
C830 C824 1.383 . S
C830 C829 1.379 . S
H831 C825 0.959 1_455 S
H832 C825 0.961 . S
H833 C825 0.960 . S
H834 C826 0.930 . S
H835 C827 0.929 . S
H836 C844 0.929 . S
H837 C846 0.930 . S
H838 C848 0.930 . S
H839 C851 0.929 . S
H840 C854 0.930 . S
H841 C856 0.960 . S
H842 C856 0.960 . S
H843 C856 0.960 1_455 S
C844 H836 0.929 . S
C844 C845 1.377 1_655 S
C844 C846 1.384 . S
C845 C844 1.377 1_455 S
C845 C851 1.390 . S
C846 H837 0.930 . S
C846 C844 1.384 . S
C846 C847 1.372 . S
C847 C846 1.372 . S
C847 C848 1.400 1_655 S
C847 C852 1.490 . S
C848 H838 0.930 . S
C848 C847 1.400 1_455 S
C848 C851 1.386 . S
H849 C865 0.930 . S
H850 C866 0.931 . S
C851 H839 0.929 . S
C851 C845 1.390 . S
C851 C848 1.386 . S
C852 C847 1.490 . S
C852 C854 1.395 1_565 S
C852 C855 1.403 . S
H853 C859 0.919 1_565 S
C854 H840 0.930 . S
C854 C852 1.395 1_545 S
C854 C857 1.403 . S
C855 C852 1.403 . S
C855 C856 1.524 . S
C855 C859 1.379 1_565 S
C856 H841 0.960 . S
C856 H842 0.960 . S
C856 H843 0.960 1_655 S
C856 C855 1.524 . S
C857 C854 1.403 . S
C857 C858 1.392 . S
C857 C861 1.495 . S
C858 C857 1.392 . S
C858 C859 1.419 . S
C858 C860 1.478 . S
C859 H853 0.919 1_545 S
C859 C855 1.379 1_545 S
C859 C858 1.419 . S
C860 C858 1.478 . S
C860 C862 1.381 . S
C860 C866 1.383 . S
C861 C857 1.495 . S
C861 H867 0.959 . S
C861 H868 0.961 . S
C861 H869 0.960 . S
C862 C860 1.381 . S
C862 C863 1.394 . S
C862 H870 0.930 . S
C863 C862 1.394 . S
C863 C864 1.383 . S
C863 H871 0.929 . S
C864 C863 1.383 . S
C864 C865 1.377 . S
C865 H849 0.930 . S
C865 C864 1.377 . S
C865 C866 1.379 . S
C866 H850 0.931 . S
C866 C860 1.383 . S
C866 C865 1.379 . S
H867 C861 0.959 . S
H868 C861 0.961 . S
H869 C861 0.960 . S
H870 C862 0.930 . S
H871 C863 0.929 . S
H872 C880 0.929 . S
H873 C882 0.930 . S
H874 C884 0.930 . S
H875 C887 0.929 . S
H876 C890 0.930 . S
H877 C892 0.960 . S
H878 C892 0.960 . S
H879 C892 0.960 . S
C880 H872 0.929 . S
C880 C881 1.377 . S
C880 C882 1.384 . S
C881 C880 1.377 . S
C881 C887 1.390 . S
C882 H873 0.930 . S
C882 C880 1.384 . S
C882 C883 1.372 . S
C883 C882 1.372 . S
C883 C884 1.400 . S
C883 C888 1.490 . S
C884 H874 0.930 . S
C884 C883 1.400 . S
C884 C887 1.386 . S
H885 C901 0.930 . S
H886 C902 0.931 . S
C887 H875 0.929 . S
C887 C881 1.390 . S
C887 C884 1.386 . S
C888 C883 1.490 . S
C888 C890 1.395 . S
C888 C891 1.403 1_545 S
H889 C895 0.930 . S
C890 H876 0.930 . S
C890 C888 1.395 . S
C890 C893 1.403 . S
C891 C888 1.403 1_565 S
C891 C892 1.524 . S
C891 C895 1.400 . S
C892 H877 0.960 . S
C892 H878 0.960 . S
C892 H879 0.960 . S
C892 C891 1.524 . S
C893 C890 1.403 . S
C893 C894 1.379 1_545 S
C893 C897 1.495 . S
C894 C893 1.379 1_565 S
C894 C895 1.393 . S
C894 C896 1.484 . S
C895 H889 0.930 . S
C895 C891 1.400 . S
C895 C894 1.393 . S
C896 C894 1.484 . S
C896 C898 1.381 . S
C896 C902 1.383 . S
C897 C893 1.495 . S
C897 H903 0.959 . S
C897 H904 0.961 . S
C897 H905 0.960 . S
C898 C896 1.381 . S
C898 C899 1.394 . S
C898 H906 0.930 1_565 S
C899 C898 1.394 . S
C899 C900 1.383 . S
C899 H907 0.929 . S
C900 C899 1.383 . S
C900 C901 1.377 . S
C901 H885 0.930 . S
C901 C900 1.377 . S
C901 C902 1.379 . S
C902 H886 0.931 . S
C902 C896 1.383 . S
C902 C901 1.379 . S
H903 C897 0.959 . S
H904 C897 0.961 . S
H905 C897 0.960 . S
H906 C898 0.930 1_545 S
H907 C899 0.929 . S
H908 C916 0.929 . S
H909 C918 0.930 . S
H910 C920 0.930 . S
H911 C923 0.929 . S
H912 C926 0.930 . S
H913 C928 0.960 . S
H914 C928 0.960 . S
H915 C928 0.960 . S
C916 H908 0.929 . S
C916 C917 1.377 . S
C916 C918 1.384 . S
C917 C916 1.377 . S
C917 C923 1.390 . S
C918 H909 0.930 . S
C918 C916 1.384 . S
C918 C919 1.372 . S
C919 C918 1.372 . S
C919 C920 1.400 . S
C919 C924 1.490 . S
C920 H910 0.930 . S
C920 C919 1.400 . S
C920 C923 1.386 . S
H921 C937 0.930 . S
H922 C938 0.931 . S
C923 H911 0.929 . S
C923 C917 1.390 . S
C923 C920 1.386 . S
C924 C919 1.490 . S
C924 C926 1.395 . S
C924 C927 1.403 . S
H925 C931 0.930 . S
C926 H912 0.930 . S
C926 C924 1.395 . S
C926 C929 1.403 . S
C927 C924 1.403 . S
C927 C928 1.524 . S
C927 C931 1.400 . S
C928 H913 0.960 . S
C928 H914 0.960 . S
C928 H915 0.960 . S
C928 C927 1.524 . S
C929 C926 1.403 . S
C929 C930 1.392 . S
C929 C933 1.495 . S
C930 C929 1.392 . S
C930 C931 1.385 . S
C930 C932 1.478 . S
C931 H925 0.930 . S
C931 C927 1.400 . S
C931 C930 1.385 . S
C932 C930 1.478 . S
C932 C934 1.381 . S
C932 C938 1.383 . S
C933 C929 1.495 . S
C933 H939 0.959 . S
C933 H940 0.961 . S
C933 H941 0.960 . S
C934 C932 1.381 . S
C934 C935 1.394 . S
C934 H942 0.930 . S
C935 C934 1.394 . S
C935 C936 1.383 . S
C935 H943 0.929 . S
C936 C935 1.383 . S
C936 C937 1.377 . S
C937 H921 0.930 . S
C937 C936 1.377 . S
C937 C938 1.379 . S
C938 H922 0.931 . S
C938 C932 1.383 . S
C938 C937 1.379 . S
H939 C933 0.959 . S
H940 C933 0.961 . S
H941 C933 0.960 . S
H942 C934 0.930 . S
H943 C935 0.929 . S
H944 C952 0.929 . S
H945 C954 0.930 . S
H946 C956 0.930 . S
H947 C959 0.929 . S
H948 C962 0.930 . S
H949 C964 0.960 . S
H950 C964 0.960 . S
H951 C964 0.960 . S
C952 H944 0.929 . S
C952 C953 1.377 . S
C952 C954 1.384 . S
C953 C952 1.377 . S
C953 C959 1.390 . S
C954 H945 0.930 . S
C954 C952 1.384 . S
C954 C955 1.372 . S
C955 C954 1.372 . S
C955 C956 1.400 . S
C955 C960 1.490 . S
C956 H946 0.930 . S
C956 C955 1.400 . S
C956 C959 1.386 . S
H957 C973 0.930 . S
H958 C974 0.931 . S
C959 H947 0.929 . S
C959 C953 1.390 . S
C959 C956 1.386 . S
C960 C955 1.490 . S
C960 C962 1.395 . S
C960 C963 1.403 . S
H961 C967 0.930 . S
C962 H948 0.930 . S
C962 C960 1.395 . S
C962 C965 1.403 . S
C963 C960 1.403 . S
C963 C964 1.524 . S
C963 C967 1.400 . S
C964 H949 0.960 . S
C964 H950 0.960 . S
C964 H951 0.960 . S
C964 C963 1.524 . S
C965 C962 1.403 . S
C965 C966 1.392 . S
C965 C969 1.495 . S
C966 C965 1.392 . S
C966 C967 1.385 . S
C966 C968 1.478 . S
C967 H961 0.930 . S
C967 C963 1.400 . S
C967 C966 1.385 . S
C968 C966 1.478 . S
C968 C970 1.381 . S
C968 C974 1.383 . S
C969 C965 1.495 . S
C969 H975 0.959 . S
C969 H976 0.961 . S
C969 H977 0.960 . S
C970 C968 1.381 . S
C970 C971 1.394 . S
C970 H978 0.930 . S
C971 C970 1.394 . S
C971 C972 1.383 . S
C971 H979 0.929 . S
C972 C971 1.383 . S
C972 C973 1.377 . S
C973 H957 0.930 . S
C973 C972 1.377 . S
C973 C974 1.379 . S
C974 H958 0.931 . S
C974 C968 1.383 . S
C974 C973 1.379 . S
H975 C969 0.959 . S
H976 C969 0.961 . S
H977 C969 0.960 . S
H978 C970 0.930 . S
H979 C971 0.929 . S
H980 C988 0.929 . S
H981 C990 0.930 . S
H982 C992 0.930 . S
H983 C995 0.929 . S
H984 C998 0.930 . S
H985 C1000 0.960 . S
H986 C1000 0.960 . S
H987 C1000 0.960 . S
C988 H980 0.929 . S
C988 C989 1.377 . S
C988 C990 1.384 . S
C989 C988 1.377 . S
C989 C995 1.390 . S
C990 H981 0.930 . S
C990 C988 1.384 . S
C990 C991 1.372 . S
C991 C990 1.372 . S
C991 C992 1.400 . S
C991 C996 1.490 . S
C992 H982 0.930 . S
C992 C991 1.400 . S
C992 C995 1.386 . S
H993 C1009 0.930 . S
H994 C1010 0.931 . S
C995 H983 0.929 . S
C995 C989 1.390 . S
C995 C992 1.386 . S
C996 C991 1.490 . S
C996 C998 1.395 . S
C996 C999 1.403 . S
H997 C1003 0.930 . S
C998 H984 0.930 . S
C998 C996 1.395 . S
C998 C1001 1.403 . S
C999 C996 1.403 . S
C999 C1000 1.524 . S
C999 C1003 1.400 . S
C1000 H985 0.960 . S
C1000 H986 0.960 . S
C1000 H987 0.960 . S
C1000 C999 1.524 . S
C1001 C998 1.403 . S
C1001 C1002 1.392 . S
C1001 C1005 1.495 . S
C1002 C1001 1.392 . S
C1002 C1003 1.385 . S
C1002 C1004 1.478 . S
C1003 H997 0.930 . S
C1003 C999 1.400 . S
C1003 C1002 1.385 . S
C1004 C1002 1.478 . S
C1004 C1006 1.381 . S
C1004 C1010 1.383 . S
C1005 C1001 1.495 . S
C1005 H1011 0.959 . S
C1005 H1012 0.961 . S
C1005 H1013 0.960 . S
C1006 C1004 1.381 . S
C1006 C1007 1.394 . S
C1006 H1014 0.930 . S
C1007 C1006 1.394 . S
C1007 C1008 1.383 . S
C1007 H1015 0.929 . S
C1008 C1007 1.383 . S
C1008 C1009 1.377 . S
C1009 H993 0.930 . S
C1009 C1008 1.377 . S
C1009 C1010 1.379 . S
C1010 H994 0.931 . S
C1010 C1004 1.383 . S
C1010 C1009 1.379 . S
H1011 C1005 0.959 . S
H1012 C1005 0.961 . S
H1013 C1005 0.960 . S
H1014 C1006 0.930 . S
H1015 C1007 0.929 . S
H1016 C1024 0.929 . S
H1017 C1026 0.930 . S
H1018 C1028 0.930 . S
H1019 C1031 0.929 . S
H1020 C1034 0.930 . S
H1021 C1036 0.960 . S
H1022 C1036 0.960 . S
H1023 C1036 0.960 . S
C1024 H1016 0.929 . S
C1024 C1025 1.377 . S
C1024 C1026 1.384 . S
C1025 C1024 1.377 . S
C1025 C1031 1.390 . S
C1026 H1017 0.930 . S
C1026 C1024 1.384 . S
C1026 C1027 1.372 . S
C1027 C1026 1.372 . S
C1027 C1028 1.400 . S
C1027 C1032 1.490 . S
C1028 H1018 0.930 . S
C1028 C1027 1.400 . S
C1028 C1031 1.386 . S
H1029 C1045 0.930 . S
H1030 C1046 0.931 . S
C1031 H1019 0.929 . S
C1031 C1025 1.390 . S
C1031 C1028 1.386 . S
C1032 C1027 1.490 . S
C1032 C1034 1.395 . S
C1032 C1035 1.403 . S
H1033 C1039 0.930 . S
C1034 H1020 0.930 . S
C1034 C1032 1.395 . S
C1034 C1037 1.403 . S
C1035 C1032 1.403 . S
C1035 C1036 1.524 . S
C1035 C1039 1.400 . S
C1036 H1021 0.960 . S
C1036 H1022 0.960 . S
C1036 H1023 0.960 . S
C1036 C1035 1.524 . S
C1037 C1034 1.403 . S
C1037 C1038 1.392 . S
C1037 C1041 1.495 . S
C1038 C1037 1.392 . S
C1038 C1039 1.385 . S
C1038 C1040 1.478 . S
C1039 H1033 0.930 . S
C1039 C1035 1.400 . S
C1039 C1038 1.385 . S
C1040 C1038 1.478 . S
C1040 C1042 1.381 . S
C1040 C1046 1.383 . S
C1041 C1037 1.495 . S
C1041 H1047 0.959 . S
C1041 H1048 0.961 . S
C1041 H1049 0.960 . S
C1042 C1040 1.381 . S
C1042 C1043 1.394 . S
C1042 H1050 0.930 . S
C1043 C1042 1.394 . S
C1043 C1044 1.383 . S
C1043 H1051 0.929 . S
C1044 C1043 1.383 . S
C1044 C1045 1.377 . S
C1045 H1029 0.930 . S
C1045 C1044 1.377 . S
C1045 C1046 1.379 . S
C1046 H1030 0.931 . S
C1046 C1040 1.383 . S
C1046 C1045 1.379 . S
H1047 C1041 0.959 . S
H1048 C1041 0.961 . S
H1049 C1041 0.960 . S
H1050 C1042 0.930 . S
H1051 C1043 0.929 . S
H1052 C1060 0.929 . S
H1053 C1062 0.930 . S
H1054 C1064 0.930 . S
H1055 C1067 0.929 . S
H1056 C1070 0.930 . S
H1057 C1072 0.960 . S
H1058 C1072 0.960 . S
H1059 C1072 0.960 . S
C1060 H1052 0.929 . S
C1060 C1061 1.377 . S
C1060 C1062 1.384 . S
C1061 C1060 1.377 . S
C1061 C1067 1.390 . S
C1062 H1053 0.930 . S
C1062 C1060 1.384 . S
C1062 C1063 1.372 . S
C1063 C1062 1.372 . S
C1063 C1064 1.400 . S
C1063 C1068 1.490 . S
C1064 H1054 0.930 . S
C1064 C1063 1.400 . S
C1064 C1067 1.386 . S
H1065 C1081 0.930 . S
H1066 C1082 0.931 . S
C1067 H1055 0.929 . S
C1067 C1061 1.390 . S
C1067 C1064 1.386 . S
C1068 C1063 1.490 . S
C1068 C1070 1.395 . S
C1068 C1071 1.403 . S
H1069 C1075 0.930 . S
C1070 H1056 0.930 . S
C1070 C1068 1.395 . S
C1070 C1073 1.403 . S
C1071 C1068 1.403 . S
C1071 C1072 1.524 . S
C1071 C1075 1.400 . S
C1072 H1057 0.960 . S
C1072 H1058 0.960 . S
C1072 H1059 0.960 . S
C1072 C1071 1.524 . S
C1073 C1070 1.403 . S
C1073 C1074 1.392 . S
C1073 C1077 1.495 . S
C1074 C1073 1.392 . S
C1074 C1075 1.385 . S
C1074 C1076 1.478 . S
C1075 H1069 0.930 . S
C1075 C1071 1.400 . S
C1075 C1074 1.385 . S
C1076 C1074 1.478 . S
C1076 C1078 1.381 . S
C1076 C1082 1.383 . S
C1077 C1073 1.495 . S
C1077 H1083 0.959 . S
C1077 H1084 0.961 . S
C1077 H1085 0.960 . S
C1078 C1076 1.381 . S
C1078 C1079 1.394 . S
C1078 H1086 0.930 . S
C1079 C1078 1.394 . S
C1079 C1080 1.383 . S
C1079 H1087 0.929 . S
C1080 C1079 1.383 . S
C1080 C1081 1.377 . S
C1081 H1065 0.930 . S
C1081 C1080 1.377 . S
C1081 C1082 1.379 . S
C1082 H1066 0.931 . S
C1082 C1076 1.383 . S
C1082 C1081 1.379 . S
H1083 C1077 0.959 . S
H1084 C1077 0.961 . S
H1085 C1077 0.960 . S
H1086 C1078 0.930 . S
H1087 C1079 0.929 . S
H1088 C1096 0.929 . S
H1089 C1098 0.930 . S
H1090 C1100 0.930 . S
H1091 C1103 0.929 . S
H1092 C1106 0.930 . S
H1093 C1108 0.960 . S
H1094 C1108 0.960 . S
H1095 C1108 0.960 . S
C1096 H1088 0.929 . S
C1096 C1097 1.377 . S
C1096 C1098 1.384 . S
C1097 C1096 1.377 . S
C1097 C1103 1.390 . S
C1098 H1089 0.930 . S
C1098 C1096 1.384 . S
C1098 C1099 1.372 . S
C1099 C1098 1.372 . S
C1099 C1100 1.400 . S
C1099 C1104 1.490 . S
C1100 H1090 0.930 . S
C1100 C1099 1.400 . S
C1100 C1103 1.386 . S
H1101 C1117 0.930 . S
H1102 C1118 0.931 . S
C1103 H1091 0.929 . S
C1103 C1097 1.390 . S
C1103 C1100 1.386 . S
C1104 C1099 1.490 . S
C1104 C1106 1.395 . S
C1104 C1107 1.403 . S
H1105 C1111 0.930 . S
C1106 H1092 0.930 . S
C1106 C1104 1.395 . S
C1106 C1109 1.403 . S
C1107 C1104 1.403 . S
C1107 C1108 1.524 . S
C1107 C1111 1.400 . S
C1108 H1093 0.960 . S
C1108 H1094 0.960 . S
C1108 H1095 0.960 . S
C1108 C1107 1.524 . S
C1109 C1106 1.403 . S
C1109 C1110 1.392 . S
C1109 C1113 1.495 . S
C1110 C1109 1.392 . S
C1110 C1111 1.385 . S
C1110 C1112 1.478 . S
C1111 H1105 0.930 . S
C1111 C1107 1.400 . S
C1111 C1110 1.385 . S
C1112 C1110 1.478 . S
C1112 C1114 1.381 . S
C1112 C1118 1.383 . S
C1113 C1109 1.495 . S
C1113 H1119 0.959 . S
C1113 H1120 0.961 . S
C1113 H1121 0.960 . S
C1114 C1112 1.381 . S
C1114 C1115 1.394 . S
C1114 H1122 0.930 . S
C1115 C1114 1.394 . S
C1115 C1116 1.383 . S
C1115 H1123 0.929 . S
C1116 C1115 1.383 . S
C1116 C1117 1.377 . S
C1117 H1101 0.930 . S
C1117 C1116 1.377 . S
C1117 C1118 1.379 . S
C1118 H1102 0.931 . S
C1118 C1112 1.383 . S
C1118 C1117 1.379 . S
H1119 C1113 0.959 . S
H1120 C1113 0.961 . S
H1121 C1113 0.960 . S
H1122 C1114 0.930 . S
H1123 C1115 0.929 . S
H1124 C1132 0.929 . S
H1125 C1134 0.930 . S
H1126 C1136 0.930 . S
H1127 C1139 0.929 . S
H1128 C1142 0.930 . S
H1129 C1144 0.960 . S
H1130 C1144 0.960 . S
H1131 C1144 0.960 . S
C1132 H1124 0.929 . S
C1132 C1133 1.377 . S
C1132 C1134 1.384 . S
C1133 C1132 1.377 . S
C1133 C1139 1.390 . S
C1134 H1125 0.930 . S
C1134 C1132 1.384 . S
C1134 C1135 1.372 . S
C1135 C1134 1.372 . S
C1135 C1136 1.400 . S
C1135 C1140 1.490 . S
C1136 H1126 0.930 . S
C1136 C1135 1.400 . S
C1136 C1139 1.386 . S
H1137 C1153 0.930 . S
H1138 C1154 0.931 . S
C1139 H1127 0.929 . S
C1139 C1133 1.390 . S
C1139 C1136 1.386 . S
C1140 C1135 1.490 . S
C1140 C1142 1.395 . S
C1140 C1143 1.403 . S
H1141 C1147 0.930 . S
C1142 H1128 0.930 . S
C1142 C1140 1.395 . S
C1142 C1145 1.403 . S
C1143 C1140 1.403 . S
C1143 C1144 1.524 . S
C1143 C1147 1.400 . S
C1144 H1129 0.960 . S
C1144 H1130 0.960 . S
C1144 H1131 0.960 . S
C1144 C1143 1.524 . S
C1145 C1142 1.403 . S
C1145 C1146 1.392 . S
C1145 C1149 1.495 . S
C1146 C1145 1.392 . S
C1146 C1147 1.385 . S
C1146 C1148 1.478 . S
C1147 H1141 0.930 . S
C1147 C1143 1.400 . S
C1147 C1146 1.385 . S
C1148 C1146 1.478 . S
C1148 C1150 1.381 . S
C1148 C1154 1.383 . S
C1149 C1145 1.495 . S
C1149 H1155 0.959 . S
C1149 H1156 0.961 . S
C1149 H1157 0.960 . S
C1150 C1148 1.381 . S
C1150 C1151 1.394 . S
C1150 H1158 0.930 . S
C1151 C1150 1.394 . S
C1151 C1152 1.383 . S
C1151 H1159 0.929 . S
C1152 C1151 1.383 . S
C1152 C1153 1.377 . S
C1153 H1137 0.930 . S
C1153 C1152 1.377 . S
C1153 C1154 1.379 . S
C1154 H1138 0.931 . S
C1154 C1148 1.383 . S
C1154 C1153 1.379 . S
H1155 C1149 0.959 . S
H1156 C1149 0.961 . S
H1157 C1149 0.960 . S
H1158 C1150 0.930 . S
H1159 C1151 0.929 . S
H1160 C1168 0.929 . S
H1161 C1170 0.930 . S
H1162 C1172 0.930 . S
H1163 C1175 0.929 . S
H1164 C1178 0.930 . S
H1165 C1180 0.960 . S
H1166 C1180 0.960 . S
H1167 C1180 0.960 . S
C1168 H1160 0.929 . S
C1168 C1169 1.377 . S
C1168 C1170 1.384 . S
C1169 C1168 1.377 . S
C1169 C1175 1.390 . S
C1170 H1161 0.930 . S
C1170 C1168 1.384 . S
C1170 C1171 1.372 . S
C1171 C1170 1.372 . S
C1171 C1172 1.400 . S
C1171 C1176 1.490 . S
C1172 H1162 0.930 . S
C1172 C1171 1.400 . S
C1172 C1175 1.386 . S
H1173 C1189 0.930 . S
H1174 C1190 0.931 . S
C1175 H1163 0.929 . S
C1175 C1169 1.390 . S
C1175 C1172 1.386 . S
C1176 C1171 1.490 . S
C1176 C1178 1.395 . S
C1176 C1179 1.403 . S
H1177 C1183 0.930 . S
C1178 H1164 0.930 . S
C1178 C1176 1.395 . S
C1178 C1181 1.403 . S
C1179 C1176 1.403 . S
C1179 C1180 1.524 . S
C1179 C1183 1.400 . S
C1180 H1165 0.960 . S
C1180 H1166 0.960 . S
C1180 H1167 0.960 . S
C1180 C1179 1.524 . S
C1181 C1178 1.403 . S
C1181 C1182 1.392 . S
C1181 C1185 1.495 . S
C1182 C1181 1.392 . S
C1182 C1183 1.385 . S
C1182 C1184 1.478 . S
C1183 H1177 0.930 . S
C1183 C1179 1.400 . S
C1183 C1182 1.385 . S
C1184 C1182 1.478 . S
C1184 C1186 1.381 . S
C1184 C1190 1.383 . S
C1185 C1181 1.495 . S
C1185 H1191 0.959 . S
C1185 H1192 0.961 . S
C1185 H1193 0.960 . S
C1186 C1184 1.381 . S
C1186 C1187 1.394 . S
C1186 H1194 0.930 . S
C1187 C1186 1.394 . S
C1187 C1188 1.383 . S
C1187 H1195 0.929 . S
C1188 C1187 1.383 . S
C1188 C1189 1.377 . S
C1189 H1173 0.930 . S
C1189 C1188 1.377 . S
C1189 C1190 1.379 . S
C1190 H1174 0.931 . S
C1190 C1184 1.383 . S
C1190 C1189 1.379 . S
H1191 C1185 0.959 . S
H1192 C1185 0.961 . S
H1193 C1185 0.960 . S
H1194 C1186 0.930 . S
H1195 C1187 0.929 . S
H1196 C1204 0.929 . S
H1197 C1206 0.930 . S
H1198 C1208 0.930 . S
H1199 C1211 0.929 . S
H1200 C1214 0.930 . S
H1201 C1216 0.960 . S
H1202 C1216 0.960 . S
H1203 C1216 0.960 . S
C1204 H1196 0.929 . S
C1204 C1205 1.377 . S
C1204 C1206 1.384 . S
C1205 C1204 1.377 . S
C1205 C1211 1.390 . S
C1206 H1197 0.930 . S
C1206 C1204 1.384 . S
C1206 C1207 1.372 . S
C1207 C1206 1.372 . S
C1207 C1208 1.400 . S
C1207 C1212 1.490 . S
C1208 H1198 0.930 . S
C1208 C1207 1.400 . S
C1208 C1211 1.386 . S
H1209 C1225 0.930 . S
H1210 C1226 0.931 . S
C1211 H1199 0.929 . S
C1211 C1205 1.390 . S
C1211 C1208 1.386 . S
C1212 C1207 1.490 . S
C1212 C1214 1.395 . S
C1212 C1215 1.403 . S
H1213 C1219 0.930 . S
C1214 H1200 0.930 . S
C1214 C1212 1.395 . S
C1214 C1217 1.403 . S
C1215 C1212 1.403 . S
C1215 C1216 1.524 . S
C1215 C1219 1.400 . S
C1216 H1201 0.960 . S
C1216 H1202 0.960 . S
C1216 H1203 0.960 . S
C1216 C1215 1.524 . S
C1217 C1214 1.403 . S
C1217 C1218 1.392 . S
C1217 C1221 1.495 . S
C1218 C1217 1.392 . S
C1218 C1219 1.385 . S
C1218 C1220 1.478 . S
C1219 H1213 0.930 . S
C1219 C1215 1.400 . S
C1219 C1218 1.385 . S
C1220 C1218 1.478 . S
C1220 C1222 1.381 . S
C1220 C1226 1.383 . S
C1221 C1217 1.495 . S
C1221 H1227 0.959 . S
C1221 H1228 0.961 . S
C1221 H1229 0.960 . S
C1222 C1220 1.381 . S
C1222 C1223 1.394 . S
C1222 H1230 0.930 . S
C1223 C1222 1.394 . S
C1223 C1224 1.383 . S
C1223 H1231 0.929 . S
C1224 C1223 1.383 . S
C1224 C1225 1.377 . S
C1225 H1209 0.930 . S
C1225 C1224 1.377 . S
C1225 C1226 1.379 . S
C1226 H1210 0.931 . S
C1226 C1220 1.383 . S
C1226 C1225 1.379 . S
H1227 C1221 0.959 . S
H1228 C1221 0.961 . S
H1229 C1221 0.960 . S
H1230 C1222 0.930 . S
H1231 C1223 0.929 . S
H1232 C1240 0.929 . S
H1233 C1242 0.930 . S
H1234 C1244 0.930 . S
H1235 C1247 0.929 . S
H1236 C1250 0.930 . S
H1237 C1252 0.960 . S
H1238 C1252 0.977 . S
H1239 C1252 0.960 . S
C1240 H1232 0.929 . S
C1240 C1241 1.377 . S
C1240 C1242 1.384 . S
C1241 C1240 1.377 . S
C1241 C1247 1.390 . S
C1242 H1233 0.930 . S
C1242 C1240 1.384 . S
C1242 C1243 1.372 . S
C1243 C1242 1.372 . S
C1243 C1244 1.400 . S
C1243 C1248 1.490 . S
C1244 H1234 0.930 . S
C1244 C1243 1.400 . S
C1244 C1247 1.386 . S
H1245 C1261 0.930 . S
H1246 C1262 0.931 1_554 S
C1247 H1235 0.929 . S
C1247 C1241 1.390 . S
C1247 C1244 1.386 . S
C1248 C1243 1.490 . S
C1248 C1250 1.395 . S
C1248 C1251 1.403 1_455 S
H1249 C1255 0.930 . S
C1250 H1236 0.930 . S
C1250 C1248 1.395 . S
C1250 C1253 1.403 1_554 S
C1251 C1248 1.403 1_655 S
C1251 C1252 1.524 . S
C1251 C1255 1.400 . S
C1252 H1237 0.960 . S
C1252 H1238 0.977 . S
C1252 H1239 0.960 . S
C1252 C1251 1.524 . S
C1253 C1250 1.403 1_556 S
C1253 C1254 1.392 1_455 S
C1253 C1257 1.495 . S
C1254 C1253 1.392 1_655 S
C1254 C1255 1.385 1_556 S
C1254 C1256 1.478 . S
C1255 H1249 0.930 . S
C1255 C1251 1.400 . S
C1255 C1254 1.385 1_554 S
C1256 C1254 1.478 . S
C1256 C1258 1.381 . S
C1256 C1262 1.383 . S
C1257 C1253 1.495 . S
C1257 H1263 0.959 . S
C1257 H1264 0.961 1_455 S
C1257 H1265 0.960 . S
C1258 C1256 1.381 . S
C1258 C1259 1.394 . S
C1258 H1266 0.930 . S
C1259 C1258 1.394 . S
C1259 C1260 1.383 . S
C1259 H1267 0.929 . S
C1260 C1259 1.383 . S
C1260 C1261 1.377 . S
C1261 H1245 0.930 . S
C1261 C1260 1.377 . S
C1261 C1262 1.379 . S
C1262 H1246 0.931 1_556 S
C1262 C1256 1.383 . S
C1262 C1261 1.379 . S
H1263 C1257 0.959 . S
H1264 C1257 0.961 1_655 S
H1265 C1257 0.960 . S
H1266 C1258 0.930 . S
H1267 C1259 0.929 . S
H1268 C1276 0.929 . S
H1269 C1278 0.930 . S
H1270 C1280 0.930 . S
H1271 C1283 0.929 . S
H1272 C1286 0.930 . S
H1273 C1288 0.960 1_545 S
H1274 C1288 0.960 . S
H1275 C1288 0.961 . S
C1276 H1268 0.929 . S
C1276 C1277 1.377 . S
C1276 C1278 1.384 . S
C1277 C1276 1.377 . S
C1277 C1283 1.390 . S
C1278 H1269 0.930 . S
C1278 C1276 1.384 . S
C1278 C1279 1.372 . S
C1279 C1278 1.372 . S
C1279 C1280 1.400 . S
C1279 C1284 1.490 . S
C1280 H1270 0.930 . S
C1280 C1279 1.400 . S
C1280 C1283 1.386 . S
H1281 C1297 0.930 . S
H1282 C1298 0.931 1_456 S
C1283 H1271 0.929 . S
C1283 C1277 1.390 . S
C1283 C1280 1.386 . S
C1284 C1279 1.490 . S
C1284 C1286 1.395 . S
C1284 C1287 1.403 1_465 S
H1285 C1291 0.930 . S
C1286 H1272 0.930 . S
C1286 C1284 1.395 . S
C1286 C1289 1.403 1_566 S
C1287 C1284 1.403 1_645 S
C1287 C1288 1.524 1_545 S
C1287 C1291 1.400 . S
C1288 H1273 0.960 1_565 S
C1288 H1274 0.960 . S
C1288 H1275 0.961 . S
C1288 C1287 1.524 1_565 S
C1289 C1286 1.403 1_544 S
C1289 C1290 1.395 . S
C1289 C1293 1.495 . S
C1290 C1289 1.395 . S
C1290 C1291 1.368 1_454 S
C1290 C1292 1.492 1_455 S
C1291 H1285 0.930 . S
C1291 C1287 1.400 . S
C1291 C1290 1.368 1_656 S
C1292 C1290 1.492 1_655 S
C1292 C1294 1.381 . S
C1292 C1298 1.383 . S
C1293 C1289 1.495 . S
C1293 H1299 0.959 . S
C1293 H1300 0.961 . S
C1293 H1301 0.960 . S
C1294 C1292 1.381 . S
C1294 C1295 1.394 . S
C1294 H1302 0.930 . S
C1295 C1294 1.394 . S
C1295 C1296 1.383 . S
C1295 H1303 0.929 . S
C1296 C1295 1.383 . S
C1296 C1297 1.377 . S
C1297 H1281 0.930 . S
C1297 C1296 1.377 . S
C1297 C1298 1.379 . S
C1298 H1282 0.931 1_654 S
C1298 C1292 1.383 . S
C1298 C1297 1.379 . S
H1299 C1293 0.959 . S
H1300 C1293 0.961 . S
H1301 C1293 0.960 . S
H1302 C1294 0.930 . S
H1303 C1295 0.929 . S
H1304 C1312 0.929 . S
H1305 C1314 0.930 . S
H1306 C1316 0.908 1_545 S
H1307 C1319 0.928 1_545 S
H1308 C1322 0.930 1_556 S
H1309 C1324 0.960 . S
H1310 C1324 0.960 . S
H1311 C1324 0.960 . S
C1312 H1304 0.929 . S
C1312 C1313 1.377 . S
C1312 C1314 1.384 . S
C1313 C1312 1.377 . S
C1313 C1319 1.390 . S
C1314 H1305 0.930 . S
C1314 C1312 1.384 . S
C1314 C1315 1.372 . S
C1315 C1314 1.372 . S
C1315 C1316 1.413 . S
C1315 C1320 1.490 . S
C1316 H1306 0.908 1_565 S
C1316 C1315 1.413 . S
C1316 C1319 1.394 . S
H1317 C1333 0.930 . S
H1318 C1334 0.931 . S
C1319 H1307 0.928 1_565 S
C1319 C1313 1.390 . S
C1319 C1316 1.394 . S
C1320 C1315 1.490 . S
C1320 C1322 1.395 . S
C1320 C1323 1.403 1_565 S
H1321 C1327 0.930 . S
C1322 H1308 0.930 1_554 S
C1322 C1320 1.395 . S
C1322 C1325 1.403 1_554 S
C1323 C1320 1.403 1_545 S
C1323 C1324 1.524 . S
C1323 C1327 1.400 . S
C1324 H1309 0.960 . S
C1324 H1310 0.960 . S
C1324 H1311 0.960 . S
C1324 C1323 1.524 . S
C1325 C1322 1.403 1_556 S
C1325 C1326 1.392 1_565 S
C1325 C1329 1.495 . S
C1326 C1325 1.392 1_545 S
C1326 C1327 1.385 1_556 S
C1326 C1328 1.478 . S
C1327 H1321 0.930 . S
C1327 C1323 1.400 . S
C1327 C1326 1.385 1_554 S
C1328 C1326 1.478 . S
C1328 C1330 1.381 . S
C1328 C1334 1.383 . S
C1329 C1325 1.495 . S
C1329 H1335 0.959 . S
C1329 H1336 0.961 . S
C1329 H1337 0.960 . S
C1330 C1328 1.381 . S
C1330 C1331 1.394 . S
C1330 H1338 0.930 1_545 S
C1331 C1330 1.394 . S
C1331 C1332 1.383 . S
C1331 H1339 0.929 . S
C1332 C1331 1.383 . S
C1332 C1333 1.377 . S
C1333 H1317 0.930 . S
C1333 C1332 1.377 . S
C1333 C1334 1.379 . S
C1334 H1318 0.931 . S
C1334 C1328 1.383 . S
C1334 C1333 1.379 . S
H1335 C1329 0.959 . S
H1336 C1329 0.961 . S
H1337 C1329 0.960 . S
H1338 C1330 0.930 1_565 S
H1339 C1331 0.929 . S
H1340 C1348 0.929 . S
H1341 C1350 0.930 . S
H1342 C1352 0.930 . S
H1343 C1355 0.929 . S
H1344 C1358 0.930 . S
H1345 C1360 0.960 . S
H1346 C1360 0.960 . S
H1347 C1360 0.960 . S
C1348 H1340 0.929 . S
C1348 C1349 1.377 . S
C1348 C1350 1.384 . S
C1349 C1348 1.377 . S
C1349 C1355 1.390 . S
C1350 H1341 0.930 . S
C1350 C1348 1.384 . S
C1350 C1351 1.372 . S
C1351 C1350 1.372 . S
C1351 C1352 1.400 . S
C1351 C1356 1.490 . S
C1352 H1342 0.930 . S
C1352 C1351 1.400 . S
C1352 C1355 1.386 . S
H1353 C1369 0.930 . S
H1354 C1370 0.931 1_556 S
C1355 H1343 0.929 . S
C1355 C1349 1.390 . S
C1355 C1352 1.386 . S
C1356 C1351 1.490 . S
C1356 C1358 1.395 . S
C1356 C1359 1.403 . S
H1357 C1363 0.930 . S
C1358 H1344 0.930 . S
C1358 C1356 1.395 . S
C1358 C1361 1.403 1_556 S
C1359 C1356 1.403 . S
C1359 C1360 1.524 . S
C1359 C1363 1.400 . S
C1360 H1345 0.960 . S
C1360 H1346 0.960 . S
C1360 H1347 0.960 . S
C1360 C1359 1.524 . S
C1361 C1358 1.403 1_554 S
C1361 C1362 1.402 . S
C1361 C1365 1.495 . S
C1362 C1361 1.402 . S
C1362 C1363 1.344 1_554 S
C1362 C1364 1.509 . S
C1363 H1357 0.930 . S
C1363 C1359 1.400 . S
C1363 C1362 1.344 1_556 S
C1364 C1362 1.509 . S
C1364 C1366 1.381 . S
C1364 C1370 1.383 . S
C1365 C1361 1.495 . S
C1365 H1371 0.959 . S
C1365 H1372 0.961 . S
C1365 H1373 0.960 . S
C1366 C1364 1.381 . S
C1366 C1367 1.394 . S
C1366 H1374 0.930 . S
C1367 C1366 1.394 . S
C1367 C1368 1.383 . S
C1367 H1375 0.929 . S
C1368 C1367 1.383 . S
C1368 C1369 1.377 . S
C1369 H1353 0.930 . S
C1369 C1368 1.377 . S
C1369 C1370 1.379 . S
C1370 H1354 0.931 1_554 S
C1370 C1364 1.383 . S
C1370 C1369 1.379 . S
H1371 C1365 0.959 . S
H1372 C1365 0.961 . S
H1373 C1365 0.960 . S
H1374 C1366 0.930 . S
H1375 C1367 0.929 . S
H1376 C1384 0.929 . S
H1377 C1386 0.941 . S
H1378 C1388 0.930 . S
H1379 C1391 0.929 . S
H1380 C1394 0.930 . S
H1381 C1396 0.960 . S
H1382 C1396 0.960 . S
H1383 C1396 0.960 . S
C1384 H1376 0.929 . S
C1384 C1385 1.377 . S
C1384 C1386 1.384 . S
C1385 C1384 1.377 . S
C1385 C1391 1.390 . S
C1386 H1377 0.941 . S
C1386 C1384 1.384 . S
C1386 C1387 1.372 . S
C1387 C1386 1.372 . S
C1387 C1388 1.400 . S
C1387 C1392 1.490 . S
C1388 H1378 0.930 . S
C1388 C1387 1.400 . S
C1388 C1391 1.386 . S
H1389 C1405 0.930 . S
H1390 C1406 0.931 . S
C1391 H1379 0.929 . S
C1391 C1385 1.390 . S
C1391 C1388 1.386 . S
C1392 C1387 1.490 . S
C1392 C1394 1.395 1_455 S
C1392 C1395 1.403 1_565 S
H1393 C1399 0.928 1_455 S
C1394 H1380 0.930 . S
C1394 C1392 1.395 1_655 S
C1394 C1397 1.403 . S
C1395 C1392 1.403 1_545 S
C1395 C1396 1.524 . S
C1395 C1399 1.400 1_455 S
C1396 H1381 0.960 . S
C1396 H1382 0.960 . S
C1396 H1383 0.960 . S
C1396 C1395 1.524 . S
C1397 C1394 1.403 . S
C1397 C1398 1.392 1_565 S
C1397 C1401 1.495 . S
C1398 C1397 1.392 1_545 S
C1398 C1399 1.385 . S
C1398 C1400 1.478 . S
C1399 H1393 0.928 1_655 S
C1399 C1395 1.400 1_655 S
C1399 C1398 1.385 . S
C1400 C1398 1.478 . S
C1400 C1402 1.381 . S
C1400 C1406 1.383 . S
C1401 C1397 1.495 . S
C1401 H1407 0.959 . S
C1401 H1408 0.961 . S
C1401 H1409 0.925 1_565 S
C1402 C1400 1.381 . S
C1402 C1403 1.394 . S
C1402 H1410 0.930 . S
C1403 C1402 1.394 . S
C1403 C1404 1.383 . S
C1403 H1411 0.929 . S
C1404 C1403 1.383 . S
C1404 C1405 1.377 . S
C1405 H1389 0.930 . S
C1405 C1404 1.377 . S
C1405 C1406 1.379 . S
C1406 H1390 0.931 . S
C1406 C1400 1.383 . S
C1406 C1405 1.379 . S
H1407 C1401 0.959 . S
H1408 C1401 0.961 . S
H1409 C1401 0.925 1_545 S
H1410 C1402 0.930 . S
H1411 C1403 0.929 . S
H1412 C1420 0.929 . S
H1413 C1422 0.930 . S
H1414 C1424 0.930 . S
H1415 C1427 0.929 . S
H1416 C1430 0.930 . S
H1417 C1432 0.960 . S
H1418 C1432 0.960 . S
H1419 C1432 0.960 . S
C1420 H1412 0.929 . S
C1420 C1421 1.377 . S
C1420 C1422 1.384 . S
C1421 C1420 1.377 . S
C1421 C1427 1.390 . S
C1422 H1413 0.930 . S
C1422 C1420 1.384 . S
C1422 C1423 1.372 . S
C1423 C1422 1.372 . S
C1423 C1424 1.400 . S
C1423 C1428 1.490 . S
C1424 H1414 0.930 . S
C1424 C1423 1.400 . S
C1424 C1427 1.386 . S
H1425 C1441 0.930 . S
H1426 C1442 0.931 . S
C1427 H1415 0.929 . S
C1427 C1421 1.390 . S
C1427 C1424 1.386 . S
C1428 C1423 1.490 . S
C1428 C1430 1.395 . S
C1428 C1431 1.403 . S
H1429 C1435 0.930 . S
C1430 H1416 0.930 . S
C1430 C1428 1.395 . S
C1430 C1433 1.403 . S
C1431 C1428 1.403 . S
C1431 C1432 1.524 . S
C1431 C1435 1.400 1_545 S
C1432 H1417 0.960 . S
C1432 H1418 0.960 . S
C1432 H1419 0.960 . S
C1432 C1431 1.524 . S
C1433 C1430 1.403 . S
C1433 C1434 1.392 1_545 S
C1433 C1437 1.495 . S
C1434 C1433 1.392 1_565 S
C1434 C1435 1.385 . S
C1434 C1436 1.478 . S
C1435 H1429 0.930 . S
C1435 C1431 1.400 1_565 S
C1435 C1434 1.385 . S
C1436 C1434 1.478 . S
C1436 C1438 1.381 . S
C1436 C1442 1.383 . S
C1437 C1433 1.495 . S
C1437 H1443 0.959 . S
C1437 H1444 0.961 1_545 S
C1437 H1445 0.960 . S
C1438 C1436 1.381 . S
C1438 C1439 1.394 . S
C1438 H1446 0.930 . S
C1439 C1438 1.394 . S
C1439 C1440 1.383 . S
C1439 H1447 0.929 . S
C1440 C1439 1.383 . S
C1440 C1441 1.377 . S
C1441 H1425 0.930 . S
C1441 C1440 1.377 . S
C1441 C1442 1.379 . S
C1442 H1426 0.931 . S
C1442 C1436 1.383 . S
C1442 C1441 1.379 . S
H1443 C1437 0.959 . S
H1444 C1437 0.961 1_565 S
H1445 C1437 0.960 . S
H1446 C1438 0.930 . S
H1447 C1439 0.929 . S
H1448 C1456 0.929 . S
H1449 C1458 0.930 . S
H1450 C1460 0.930 . S
H1451 C1463 0.929 . S
H1452 C1466 0.930 . S
H1453 C1468 0.960 . S
H1454 C1468 0.960 . S
H1455 C1468 0.960 . S
C1456 H1448 0.929 . S
C1456 C1457 1.377 . S
C1456 C1458 1.384 . S
C1457 C1456 1.377 . S
C1457 C1463 1.390 . S
C1458 H1449 0.930 . S
C1458 C1456 1.384 . S
C1458 C1459 1.372 . S
C1459 C1458 1.372 . S
C1459 C1460 1.400 . S
C1459 C1464 1.490 . S
C1460 H1450 0.930 . S
C1460 C1459 1.400 . S
C1460 C1463 1.386 . S
H1461 C1477 0.930 . S
H1462 C1478 0.931 . S
C1463 H1451 0.929 . S
C1463 C1457 1.390 . S
C1463 C1460 1.386 . S
C1464 C1459 1.490 . S
C1464 C1466 1.395 . S
C1464 C1467 1.403 . S
H1465 C1471 0.930 . S
C1466 H1452 0.930 . S
C1466 C1464 1.395 . S
C1466 C1469 1.403 . S
C1467 C1464 1.403 . S
C1467 C1468 1.524 . S
C1467 C1471 1.400 . S
C1468 H1453 0.960 . S
C1468 H1454 0.960 . S
C1468 H1455 0.960 . S
C1468 C1467 1.524 . S
C1469 C1466 1.403 . S
C1469 C1470 1.392 . S
C1469 C1473 1.495 . S
C1470 C1469 1.392 . S
C1470 C1471 1.385 . S
C1470 C1472 1.478 . S
C1471 H1465 0.930 . S
C1471 C1467 1.400 . S
C1471 C1470 1.385 . S
C1472 C1470 1.478 . S
C1472 C1474 1.381 . S
C1472 C1478 1.383 . S
C1473 C1469 1.495 . S
C1473 H1479 0.959 . S
C1473 H1480 0.961 . S
C1473 H1481 0.960 . S
C1474 C1472 1.381 . S
C1474 C1475 1.394 . S
C1474 H1482 0.930 . S
C1475 C1474 1.394 . S
C1475 C1476 1.383 . S
C1475 H1483 0.929 . S
C1476 C1475 1.383 . S
C1476 C1477 1.377 . S
C1477 H1461 0.930 . S
C1477 C1476 1.377 . S
C1477 C1478 1.379 . S
C1478 H1462 0.931 . S
C1478 C1472 1.383 . S
C1478 C1477 1.379 . S
H1479 C1473 0.959 . S
H1480 C1473 0.961 . S
H1481 C1473 0.960 . S
H1482 C1474 0.930 . S
H1483 C1475 0.929 . S
H1484 C1492 0.929 . S
H1485 C1494 0.930 . S
H1486 C1496 0.930 1_455 S
H1487 C1499 0.929 . S
H1488 C1502 0.930 . S
H1489 C1504 0.960 . S
H1490 C1504 0.960 . S
H1491 C1504 0.960 . S
C1492 H1484 0.929 . S
C1492 C1493 1.377 . S
C1492 C1494 1.384 . S
C1493 C1492 1.377 . S
C1493 C1499 1.390 . S
C1494 H1485 0.930 . S
C1494 C1492 1.384 . S
C1494 C1495 1.372 . S
C1495 C1494 1.372 . S
C1495 C1496 1.400 . S
C1495 C1500 1.490 1_655 S
C1496 H1486 0.930 1_655 S
C1496 C1495 1.400 . S
C1496 C1499 1.386 . S
H1497 C1513 0.930 . S
H1498 C1514 0.931 . S
C1499 H1487 0.929 . S
C1499 C1493 1.390 . S
C1499 C1496 1.386 . S
C1500 C1495 1.490 1_455 S
C1500 C1502 1.395 . S
C1500 C1503 1.403 1_455 S
H1501 C1507 0.930 1_655 S
C1502 H1488 0.930 . S
C1502 C1500 1.395 . S
C1502 C1505 1.403 . S
C1503 C1500 1.403 1_655 S
C1503 C1504 1.524 . S
C1503 C1507 1.400 1_655 S
C1504 H1489 0.960 . S
C1504 H1490 0.960 . S
C1504 H1491 0.960 . S
C1504 C1503 1.524 . S
C1505 C1502 1.403 . S
C1505 C1506 1.392 . S
C1505 C1509 1.495 . S
C1506 C1505 1.392 . S
C1506 C1507 1.385 . S
C1506 C1508 1.478 . S
C1507 H1501 0.930 1_455 S
C1507 C1503 1.400 1_455 S
C1507 C1506 1.385 . S
C1508 C1506 1.478 . S
C1508 C1510 1.381 . S
C1508 C1514 1.383 . S
C1509 C1505 1.495 . S
C1509 H1515 0.959 . S
C1509 H1516 0.961 . S
C1509 H1517 0.960 . S
C1510 C1508 1.381 . S
C1510 C1511 1.394 . S
C1510 H1518 0.930 . S
C1511 C1510 1.394 . S
C1511 C1512 1.383 . S
C1511 H1519 0.929 . S
C1512 C1511 1.383 . S
C1512 C1513 1.377 . S
C1513 H1497 0.930 . S
C1513 C1512 1.377 . S
C1513 C1514 1.379 . S
C1514 H1498 0.931 . S
C1514 C1508 1.383 . S
C1514 C1513 1.379 . S
H1515 C1509 0.959 . S
H1516 C1509 0.961 . S
H1517 C1509 0.960 . S
H1518 C1510 0.930 . S
H1519 C1511 0.929 . S
C377 C16 1.689 . S
C396 C62 1.678 . S
C413 C39 1.958 . S
C432 C85 1.966 . S
C449 C108 1.688 . S
C468 C154 1.692 . S
C485 C177 1.963 . S
C504 C131 1.955 . S
C521 C200 1.113 . S
C540 C246 1.087 . S
C557 N265 1.224 . S
C576 N219 1.219 . S
C593 C338 1.114 . S
C612 C292 1.113 . S
C629 N357 1.225 . S
C648 N311 1.225 . S
C665 C168 2.196 . S
C684 C7 2.213 . S
C701 C30 2.197 . S
C720 C99 2.201 . S
C737 C122 2.195 . S
C756 C53 2.194 . S
C773 C76 2.197 . S
C792 C145 2.203 . S
C809 N347 1.443 . S
C828 C191 1.548 . S
C845 N209 1.431 . S
C864 C283 1.509 . S
C881 C237 1.537 . S
C900 N301 1.471 . S
C917 C329 1.532 . S
C936 N255 1.454 . S
C953 N2 0.662 . S
C972 N94 0.645 . S
C989 N25 0.628 . S
C1008 N117 0.697 . S
C1025 N140 0.676 . S
C1044 N48 0.748 . S
C1061 N71 0.624 . S
C1080 N163 0.633 . S
C1097 N278 0.812 . S
C1116 N186 0.879 . S
C1133 C306 0.968 . S
C1152 C214 0.994 . S
C1169 N232 0.811 . S
C1188 N324 0.828 . S
C1205 C260 0.971 . S
C1224 C352 0.981 . S
C1241 N12 2.206 . S
C1260 N196 2.200 . S
C1277 C223 2.004 . S
C1296 N35 2.086 . S
C1313 N58 2.208 . S
C1332 N242 2.221 . S
C1349 C269 2.004 . S
C1368 N81 2.084 . S
C1385 N104 2.212 . S
C1404 N288 2.221 . S
C1421 N127 2.074 . S
C1440 C315 1.975 . S
C1457 N334 2.217 . S
C1476 N150 2.194 . S
C1493 N173 2.072 . S
C1512 C361 1.971 . S
