# Generated by pormake.
# Topology unu, (4)-cn, num edge types: 1
# Building blocks:
#     Node 0, Type 0, BuildingBlock: QUQFOY_clean_sbu_1, # of connection points: 4
#     Node 1, Type 0, BuildingBlock: QUQFOY_clean_sbu_1, # of connection points: 4
#     Node 2, Type 0, BuildingBlock: QUQFOY_clean_sbu_1, # of connection points: 4
#     Node 3, Type 0, BuildingBlock: QUQFOY_clean_sbu_1, # of connection points: 4
#     Node 4, Type 0, BuildingBlock: QUQFOY_clean_sbu_1, # of connection points: 4
#     Node 5, Type 0, BuildingBlock: QUQFOY_clean_sbu_1, # of connection points: 4
#     Node 6, Type 0, BuildingBlock: QUQFOY_clean_sbu_1, # of connection points: 4
#     Node 7, Type 0, BuildingBlock: QUQFOY_clean_sbu_1, # of connection points: 4
#     Node 8, Type 0, BuildingBlock: QUQFOY_clean_sbu_1, # of connection points: 4
#     Node 9, Type 0, BuildingBlock: QUQFOY_clean_sbu_1, # of connection points: 4
#     Node 10, Type 0, BuildingBlock: QUQFOY_clean_sbu_1, # of connection points: 4
#     Node 11, Type 0, BuildingBlock: QUQFOY_clean_sbu_1, # of connection points: 4
#     Node 12, Type 0, BuildingBlock: QUQFOY_clean_sbu_1, # of connection points: 4
#     Node 13, Type 0, BuildingBlock: QUQFOY_clean_sbu_1, # of connection points: 4
#     Node 14, Type 0, BuildingBlock: QUQFOY_clean_sbu_1, # of connection points: 4
#     Node 15, Type 0, BuildingBlock: QUQFOY_clean_sbu_1, # of connection points: 4
#     Node 16, Type 0, BuildingBlock: QUQFOY_clean_sbu_1, # of connection points: 4
#     Node 17, Type 0, BuildingBlock: QUQFOY_clean_sbu_1, # of connection points: 4
#     Node 18, Type 0, BuildingBlock: QUQFOY_clean_sbu_1, # of connection points: 4
#     Node 19, Type 0, BuildingBlock: QUQFOY_clean_sbu_1, # of connection points: 4
#     Node 20, Type 0, BuildingBlock: QUQFOY_clean_sbu_1, # of connection points: 4
#     Node 21, Type 0, BuildingBlock: QUQFOY_clean_sbu_1, # of connection points: 4
#     Node 22, Type 0, BuildingBlock: QUQFOY_clean_sbu_1, # of connection points: 4
#     Node 23, Type 0, BuildingBlock: QUQFOY_clean_sbu_1, # of connection points: 4
#     Node 24, Type 0, BuildingBlock: QUQFOY_clean_sbu_1, # of connection points: 4
#     Node 25, Type 0, BuildingBlock: QUQFOY_clean_sbu_1, # of connection points: 4
#     Node 26, Type 0, BuildingBlock: QUQFOY_clean_sbu_1, # of connection points: 4
#     Node 27, Type 0, BuildingBlock: QUQFOY_clean_sbu_1, # of connection points: 4
#     Node 28, Type 0, BuildingBlock: QUQFOY_clean_sbu_1, # of connection points: 4
#     Node 29, Type 0, BuildingBlock: QUQFOY_clean_sbu_1, # of connection points: 4
#     Node 30, Type 0, BuildingBlock: QUQFOY_clean_sbu_1, # of connection points: 4
#     Node 31, Type 0, BuildingBlock: QUQFOY_clean_sbu_1, # of connection points: 4
#     Node 32, Type 0, BuildingBlock: QUQFOY_clean_sbu_1, # of connection points: 4
#     Node 33, Type 0, BuildingBlock: QUQFOY_clean_sbu_1, # of connection points: 4
#     Node 34, Type 0, BuildingBlock: QUQFOY_clean_sbu_1, # of connection points: 4
#     Node 35, Type 0, BuildingBlock: QUQFOY_clean_sbu_1, # of connection points: 4
#     Edge 36, Type (0, 0), None
#     Edge 37, Type (0, 0), None
#     Edge 38, Type (0, 0), None
#     Edge 39, Type (0, 0), None
#     Edge 40, Type (0, 0), None
#     Edge 41, Type (0, 0), None
#     Edge 42, Type (0, 0), None
#     Edge 43, Type (0, 0), None
#     Edge 44, Type (0, 0), None
#     Edge 45, Type (0, 0), None
#     Edge 46, Type (0, 0), None
#     Edge 47, Type (0, 0), None
#     Edge 48, Type (0, 0), None
#     Edge 49, Type (0, 0), None
#     Edge 50, Type (0, 0), None
#     Edge 51, Type (0, 0), None
#     Edge 52, Type (0, 0), None
#     Edge 53, Type (0, 0), None
#     Edge 54, Type (0, 0), None
#     Edge 55, Type (0, 0), None
#     Edge 56, Type (0, 0), None
#     Edge 57, Type (0, 0), None
#     Edge 58, Type (0, 0), None
#     Edge 59, Type (0, 0), None
#     Edge 60, Type (0, 0), None
#     Edge 61, Type (0, 0), None
#     Edge 62, Type (0, 0), None
#     Edge 63, Type (0, 0), None
#     Edge 64, Type (0, 0), None
#     Edge 65, Type (0, 0), None
#     Edge 66, Type (0, 0), None
#     Edge 67, Type (0, 0), None
#     Edge 68, Type (0, 0), None
#     Edge 69, Type (0, 0), None
#     Edge 70, Type (0, 0), None
#     Edge 71, Type (0, 0), None
#     Edge 72, Type (0, 0), None
#     Edge 73, Type (0, 0), None
#     Edge 74, Type (0, 0), None
#     Edge 75, Type (0, 0), None
#     Edge 76, Type (0, 0), None
#     Edge 77, Type (0, 0), None
#     Edge 78, Type (0, 0), None
#     Edge 79, Type (0, 0), None
#     Edge 80, Type (0, 0), None
#     Edge 81, Type (0, 0), None
#     Edge 82, Type (0, 0), None
#     Edge 83, Type (0, 0), None
#     Edge 84, Type (0, 0), None
#     Edge 85, Type (0, 0), None
#     Edge 86, Type (0, 0), None
#     Edge 87, Type (0, 0), None
#     Edge 88, Type (0, 0), None
#     Edge 89, Type (0, 0), None
#     Edge 90, Type (0, 0), None
#     Edge 91, Type (0, 0), None
#     Edge 92, Type (0, 0), None
#     Edge 93, Type (0, 0), None
#     Edge 94, Type (0, 0), None
#     Edge 95, Type (0, 0), None
#     Edge 96, Type (0, 0), None
#     Edge 97, Type (0, 0), None
#     Edge 98, Type (0, 0), None
#     Edge 99, Type (0, 0), None
#     Edge 100, Type (0, 0), None
#     Edge 101, Type (0, 0), None
#     Edge 102, Type (0, 0), None
#     Edge 103, Type (0, 0), None
#     Edge 104, Type (0, 0), None
#     Edge 105, Type (0, 0), None
#     Edge 106, Type (0, 0), None
#     Edge 107, Type (0, 0), None
# Relax obj value: 0.066
# Max RMSD: 0.145
# Mean RMSD: 0.145
data_MOF--net-unu--node1-QUQFOY_clean_sbu_1--edge1-none
_symmetry_space_group_name_H-M    P1
_symmetry_Int_Tables_number       1
_symmetry_cell_setting            triclinic
loop_
_symmetry_equiv_pos_as_xyz
'x, y, z'
_cell_length_a     18.710686
_cell_length_b     18.710451
_cell_length_c     63.876161
_cell_angle_alpha  90.00005
_cell_angle_beta   89.999557
_cell_angle_gamma 119.99936
loop_
_atom_site_label
_atom_site_type_symbol
_atom_site_fract_x
_atom_site_fract_y
_atom_site_fract_z
_atom_type_partial_charge
O0 O 0.19936 1.00808 0.11534 0.0
Cd1 Cd 0.30525 0.12004 0.11495 0.0
Cd2 Cd 0.29047 0.11691 0.15523 0.0
O3 O 0.21857 0.99036 0.14855 0.0
O4 O 0.38007 0.1168 0.09287 0.0
O5 O 0.39911 0.11015 0.12694 0.0
C6 C 0.41801 0.10279 0.1079 0.0
C7 C 0.38529 0.19199 0.18114 0.0
C8 C 0.17772 0.96266 0.13149 0.0
C9 C 0.23425 0.21729 0.13312 0.0
O10 O 0.22862 0.17609 0.14928 0.0
O11 O 0.27439 0.21457 0.11717 0.0
O12 O 0.30994 0.13901 0.1859 0.0
O13 O 0.40936 0.19453 0.16207 0.0
O14 O 0.12594 0.21818 0.11535 0.0
Cd15 Cd 1.01397 0.21209 0.11495 0.0
Cd16 Cd 1.0171 0.20041 0.15524 0.0
O17 O 0.14365 0.25509 0.14857 0.0
O18 O 1.01718 0.29015 0.09288 0.0
O19 O 1.02384 0.31582 0.12695 0.0
C20 C 1.0312 0.34209 0.10791 0.0
C21 C 0.94196 0.22011 0.18115 0.0
C22 C 0.17134 0.24199 0.13149 0.0
C23 C 0.91674 1.04382 0.13312 0.0
O24 O 0.95793 0.07938 0.14928 0.0
O25 O 0.91945 0.0867 0.11718 0.0
O26 O 0.99495 0.19776 0.18591 0.0
O27 O 0.93944 0.24165 0.16208 0.0
O28 O 0.91581 0.93462 0.11534 0.0
Cd29 Cd 0.9219 0.82874 0.11494 0.0
Cd30 Cd 0.93356 0.84348 0.15523 0.0
O31 O 0.87895 0.91542 0.14857 0.0
O32 O 0.84383 0.75391 0.09286 0.0
O33 O 0.81818 0.73487 0.12694 0.0
C34 C 0.79191 0.71597 0.1079 0.0
C35 C 0.91383 0.74865 0.18114 0.0
C36 C 0.89203 0.95622 0.1315 0.0
C37 C 0.09014 0.8997 0.13311 0.0
O38 O 1.0546 0.9053 0.14928 0.0
O39 O 1.0473 0.85963 0.11715 0.0
O40 O 0.93622 0.824 0.1859 0.0
O41 O 0.89227 0.72458 0.16208 0.0
O42 O 1.03483 0.17261 0.42949 0.0
Cd43 Cd 0.14679 0.2785 0.42988 0.0
Cd44 Cd 0.14365 0.2637 0.38961 0.0
O45 O 1.0171 0.19182 0.39628 0.0
O46 O 0.14356 0.35332 0.45196 0.0
O47 O 0.13691 0.37236 0.41789 0.0
C48 C 0.12955 0.39125 0.43693 0.0
C49 C 0.21876 0.35852 0.36369 0.0
C50 C 0.98941 0.15098 0.41335 0.0
C51 C 0.24402 0.20747 0.41172 0.0
O52 O 0.20282 0.20183 0.39556 0.0
O53 O 0.24131 0.24763 0.42766 0.0
O54 O 0.16577 0.28317 0.35893 0.0
O55 O 0.22129 0.38259 0.38276 0.0
O56 O 0.96138 0.88909 0.4295 0.0
Cd57 Cd 0.85549 0.89516 0.4299 0.0
Cd58 Cd 0.87022 0.9068 0.38961 0.0
O59 O 0.94216 0.85219 0.39628 0.0
O60 O 0.78068 0.8171 0.45198 0.0
O61 O 0.76162 0.79143 0.41791 0.0
C62 C 0.74273 0.76516 0.43695 0.0
C63 C 0.77541 0.88705 0.36369 0.0
C64 C 0.98301 0.86532 0.41335 0.0
C65 C 0.92644 0.06339 0.41173 0.0
O66 O 0.93204 1.02784 0.39556 0.0
O67 O 0.88637 1.02055 0.42768 0.0
O68 O 0.85077 0.90945 0.35894 0.0
O69 O 0.75133 0.8655 0.38276 0.0
O70 O 0.24494 0.09918 0.42949 0.0
Cd71 Cd 0.23884 0.98721 0.42989 0.0
Cd72 Cd 0.22717 0.9903 0.3896 0.0
O73 O 0.2818 0.11685 0.39627 0.0
O74 O 0.3169 0.99044 0.45197 0.0
O75 O 0.34255 0.99705 0.41789 0.0
C76 C 0.36883 1.00443 0.43693 0.0
C77 C 0.24689 0.91518 0.36369 0.0
C78 C 0.26872 0.14456 0.41334 0.0
C79 C 1.0706 0.88994 0.41172 0.0
O80 O 0.10614 0.93109 0.39555 0.0
O81 O 0.11344 0.89271 0.42768 0.0
O82 O 0.22451 0.96815 0.35893 0.0
O83 O 0.26845 0.91268 0.38276 0.0
O84 O 0.96133 0.09906 0.92949 0.0
Cd85 Cd 0.85543 0.9871 0.92989 0.0
Cd86 Cd 0.87022 0.99023 0.88961 0.0
O87 O 0.94212 0.11678 0.89628 0.0
O88 O 0.78062 0.99034 0.95197 0.0
O89 O 0.76158 0.99699 0.91789 0.0
C90 C 0.74268 1.00435 0.93693 0.0
C91 C 0.7754 0.91515 0.86369 0.0
C92 C 0.98296 0.14448 0.91335 0.0
C93 C 0.92644 0.88985 0.91172 0.0
O94 O 0.93207 0.93104 0.89556 0.0
O95 O 0.88629 0.89257 0.92766 0.0
O96 O 0.85075 0.96813 0.85894 0.0
O97 O 0.75133 0.91261 0.88276 0.0
O98 O 1.03475 0.88896 0.92949 0.0
Cd99 Cd 0.14672 0.89505 0.92988 0.0
Cd100 Cd 0.14359 0.90673 0.8896 0.0
O101 O 1.01704 0.85205 0.89627 0.0
O102 O 0.1435 0.81699 0.95196 0.0
O103 O 0.13685 0.79132 0.91788 0.0
C104 C 0.12949 0.76505 0.93692 0.0
C105 C 0.21873 0.88702 0.86369 0.0
C106 C 0.98935 0.86515 0.91334 0.0
C107 C 0.24395 0.06331 0.91171 0.0
O108 O 0.20275 1.02776 0.89555 0.0
O109 O 0.24124 1.02044 0.92766 0.0
O110 O 0.16574 0.90938 0.85893 0.0
O111 O 0.22124 0.86549 0.88276 0.0
O112 O 0.24488 0.17252 0.92949 0.0
Cd113 Cd 0.23879 0.2784 0.9299 0.0
Cd114 Cd 0.22713 0.26366 0.8896 0.0
O115 O 0.28174 0.19172 0.89627 0.0
O116 O 0.31685 0.35323 0.95197 0.0
O117 O 0.34251 0.37227 0.9179 0.0
C118 C 0.36878 0.39117 0.93694 0.0
C119 C 0.24686 0.35849 0.86369 0.0
C120 C 0.26866 0.15092 0.91334 0.0
C121 C 1.07055 0.20744 0.91173 0.0
O122 O 0.10609 0.20184 0.89556 0.0
O123 O 0.11339 0.24751 0.92768 0.0
O124 O 0.22447 0.28314 0.85893 0.0
O125 O 0.26842 0.38256 0.88276 0.0
O126 O 0.12585 0.93453 0.61534 0.0
Cd127 Cd 1.0139 0.82864 0.61495 0.0
Cd128 Cd 1.01704 0.84344 0.65523 0.0
O129 O 0.14358 0.91532 0.64855 0.0
O130 O 1.01712 0.75382 0.59287 0.0
O131 O 1.02378 0.73478 0.62695 0.0
C132 C 1.03114 0.71589 0.6079 0.0
C133 C 0.94193 0.74862 0.68114 0.0
C134 C 0.17128 0.95616 0.63149 0.0
C135 C 0.91666 0.89967 0.63312 0.0
O136 O 0.95787 0.90531 0.64928 0.0
O137 O 0.91937 0.85951 0.61717 0.0
O138 O 0.99492 0.82397 0.6859 0.0
O139 O 0.93939 0.72455 0.66208 0.0
O140 O 0.19931 0.21805 0.61534 0.0
Cd141 Cd 0.3052 0.21198 0.61493 0.0
Cd142 Cd 0.29047 0.20034 0.65522 0.0
O143 O 0.21853 0.25494 0.64855 0.0
O144 O 0.38001 0.29004 0.59286 0.0
O145 O 0.39907 0.31571 0.62693 0.0
C146 C 0.41795 0.34198 0.60789 0.0
C147 C 0.38527 0.22008 0.68114 0.0
C148 C 0.17768 0.24181 0.63149 0.0
C149 C 0.23425 1.04375 0.63311 0.0
O150 O 0.22865 0.0793 0.64927 0.0
O151 O 0.27432 0.08659 0.61715 0.0
O152 O 0.30991 0.19769 0.68589 0.0
O153 O 0.40936 0.24164 0.66208 0.0
O154 O 0.91575 1.00796 0.61534 0.0
Cd155 Cd 0.92185 0.11993 0.61494 0.0
Cd156 Cd 0.93352 0.11684 0.65523 0.0
O157 O 0.87889 0.99029 0.64857 0.0
O158 O 0.84379 0.1167 0.59287 0.0
O159 O 0.81814 0.11009 0.62694 0.0
C160 C 0.79186 0.10271 0.6079 0.0
C161 C 0.9138 0.19196 0.68115 0.0
C162 C 0.89197 0.96258 0.6315 0.0
C163 C 0.09009 0.21719 0.63311 0.0
O164 O 1.05455 0.17605 0.64928 0.0
O165 O 1.04725 0.21443 0.61716 0.0
O166 O 0.93618 0.13899 0.68591 0.0
O167 O 0.89224 0.19446 0.66208 0.0
O168 O 0.86602 0.34141 0.44868 0.0
Cd169 Cd 0.97192 0.45337 0.44828 0.0
Cd170 Cd 0.95713 0.45023 0.48856 0.0
O171 O 0.88524 0.32369 0.48188 0.0
O172 O 1.04673 0.45014 0.4262 0.0
O173 O 1.06578 0.44349 0.46028 0.0
C174 C 0.08465 0.43612 0.44123 0.0
C175 C 1.05195 0.52532 0.51448 0.0
C176 C 0.84439 0.29599 0.46482 0.0
C177 C 0.90091 0.55062 0.46645 0.0
O178 O 0.89528 0.50942 0.48261 0.0
O179 O 0.94106 0.5479 0.4505 0.0
O180 O 0.9766 0.47234 0.51923 0.0
O181 O 1.07602 0.52786 0.49541 0.0
O182 O 0.7926 0.55151 0.44868 0.0
Cd183 Cd 0.68063 0.54542 0.44828 0.0
Cd184 Cd 0.68376 0.53374 0.48857 0.0
O185 O 0.81031 0.58841 0.4819 0.0
O186 O 0.68385 0.62347 0.42621 0.0
O187 O 0.6905 0.64915 0.46029 0.0
C188 C 0.69787 0.6754 0.44125 0.0
C189 C 0.60862 0.55344 0.51448 0.0
C190 C 0.838 0.57531 0.46483 0.0
C191 C 0.5834 0.37715 0.46645 0.0
O192 O 0.62459 0.4127 0.48261 0.0
O193 O 0.58612 0.42002 0.45051 0.0
O194 O 0.6616 0.53108 0.51924 0.0
O195 O 0.6061 0.57498 0.49541 0.0
O196 O 0.58248 0.26795 0.44867 0.0
Cd197 Cd 0.58857 0.16207 0.44827 0.0
Cd198 Cd 0.60023 0.1768 0.48856 0.0
O199 O 0.54562 0.24875 0.4819 0.0
O200 O 0.51051 0.08725 0.42619 0.0
O201 O 0.48486 0.0682 0.46027 0.0
C202 C 0.45859 1.04932 0.44123 0.0
C203 C 0.58049 0.08197 0.51448 0.0
C204 C 0.5587 0.28954 0.46483 0.0
C205 C 0.75681 0.23302 0.46644 0.0
O206 O 0.72126 0.23862 0.48261 0.0
O207 O 0.71396 0.19296 0.45049 0.0
O208 O 0.60289 0.15733 0.51924 0.0
O209 O 0.55893 0.05791 0.49541 0.0
O210 O 0.70148 0.50592 0.76282 0.0
Cd211 Cd 0.81344 0.61181 0.76322 0.0
Cd212 Cd 0.8103 0.59701 0.72294 0.0
O213 O 0.68375 0.52514 0.72962 0.0
O214 O 0.81021 0.68664 0.7853 0.0
O215 O 0.80355 0.70567 0.75122 0.0
C216 C 0.7962 0.72457 0.77026 0.0
C217 C 0.88541 0.69183 0.69702 0.0
C218 C 0.65606 0.48429 0.74668 0.0
C219 C 0.91067 0.54079 0.74505 0.0
O220 O 0.86947 0.53514 0.72889 0.0
O221 O 0.90796 0.58094 0.76099 0.0
O222 O 0.83242 0.61648 0.69227 0.0
O223 O 0.88794 0.7159 0.71609 0.0
O224 O 0.62802 0.2224 0.76283 0.0
Cd225 Cd 0.52213 0.22847 0.76323 0.0
Cd226 Cd 0.53687 0.24011 0.72295 0.0
O227 O 0.60881 0.18551 0.72962 0.0
O228 O 0.44732 0.15042 0.78531 0.0
O229 O 0.42827 0.12475 0.75124 0.0
C230 C 0.40938 0.09848 0.77028 0.0
C231 C 0.44206 0.22037 0.69703 0.0
C232 C 0.64966 0.19864 0.74668 0.0
C233 C 0.59309 0.39671 0.74506 0.0
O234 O 0.59869 0.36116 0.72889 0.0
O235 O 0.55302 0.35387 0.76102 0.0
O236 O 0.51742 0.24277 0.69227 0.0
O237 O 0.41798 0.19882 0.71609 0.0
O238 O 0.91158 0.43249 0.76283 0.0
Cd239 Cd 0.90549 0.32052 0.76323 0.0
Cd240 Cd 0.89382 0.32361 0.72293 0.0
O241 O 0.94845 0.45016 0.7296 0.0
O242 O 0.98355 0.32375 0.7853 0.0
O243 O 1.0092 0.33037 0.75123 0.0
C244 C 1.03548 0.33775 0.77027 0.0
C245 C 0.91353 0.24849 0.69702 0.0
C246 C 0.93537 0.47788 0.74667 0.0
C247 C 0.73724 0.22326 0.74506 0.0
O248 O 0.77278 0.26441 0.72889 0.0
O249 O 0.78009 0.22602 0.76101 0.0
O250 O 0.89116 0.30147 0.69226 0.0
O251 O 0.93509 0.24599 0.71609 0.0
O252 O 0.62801 0.43241 0.26282 0.0
Cd253 Cd 0.52212 0.32045 0.26322 0.0
Cd254 Cd 0.5369 0.32359 0.22294 0.0
O255 O 0.6088 0.45013 0.22962 0.0
O256 O 0.4473 0.32369 0.2853 0.0
O257 O 0.42826 0.33034 0.25123 0.0
C258 C 0.40937 0.3377 0.27027 0.0
C259 C 0.44209 0.2485 0.19703 0.0
C260 C 0.64965 0.47783 0.24668 0.0
C261 C 0.59312 0.2232 0.24505 0.0
O262 O 0.59876 0.2644 0.22889 0.0
O263 O 0.55298 0.22593 0.261 0.0
O264 O 0.51744 0.30148 0.19227 0.0
O265 O 0.41801 0.24596 0.21609 0.0
O266 O 0.70144 0.22231 0.26282 0.0
Cd267 Cd 0.8134 0.2284 0.26322 0.0
Cd268 Cd 0.81027 0.24008 0.22293 0.0
O269 O 0.68372 0.1854 0.2296 0.0
O270 O 0.81019 0.15034 0.28529 0.0
O271 O 0.80353 0.12467 0.25122 0.0
C272 C 0.79618 0.0984 0.27026 0.0
C273 C 0.88542 0.22038 0.19702 0.0
C274 C 0.65603 0.1985 0.24667 0.0
C275 C 0.91064 0.39667 0.24505 0.0
O276 O 0.86944 0.36111 0.22889 0.0
O277 O 0.90792 0.35379 0.26099 0.0
O278 O 0.83243 0.24273 0.19226 0.0
O279 O 0.88793 0.19884 0.21609 0.0
O280 O 0.91156 0.50587 0.26283 0.0
Cd281 Cd 0.90547 0.61175 0.26323 0.0
Cd282 Cd 0.89381 0.59701 0.22294 0.0
O283 O 0.94843 0.52507 0.2296 0.0
O284 O 0.98354 0.68658 0.28531 0.0
O285 O 1.00919 0.70562 0.25123 0.0
C286 C 1.03547 0.72452 0.27027 0.0
C287 C 0.91355 0.69184 0.19702 0.0
C288 C 0.93534 0.48427 0.24667 0.0
C289 C 0.73723 0.54079 0.24506 0.0
O290 O 0.77278 0.53519 0.22889 0.0
O291 O 0.78008 0.58086 0.26101 0.0
O292 O 0.89115 0.61649 0.19226 0.0
O293 O 0.93511 0.71591 0.21609 0.0
O294 O 0.79252 0.26787 0.94868 0.0
Cd295 Cd 0.68056 0.16197 0.94828 0.0
Cd296 Cd 0.68371 0.17678 0.98856 0.0
O297 O 0.81026 0.24865 0.98188 0.0
O298 O 0.68379 0.08715 0.9262 0.0
O299 O 0.69045 0.06812 0.96028 0.0
C300 C 0.69781 1.04924 0.94124 0.0
C301 C 0.6086 0.08196 1.01448 0.0
C302 C 0.83795 0.28949 0.96482 0.0
C303 C 0.58334 0.23301 0.96645 0.0
O304 O 0.62455 0.23865 0.98261 0.0
O305 O 0.58604 0.19285 0.95051 0.0
O306 O 0.6616 0.15731 1.01923 0.0
O307 O 0.60606 0.05789 0.99541 0.0
O308 O 0.86598 0.55138 0.94867 0.0
Cd309 Cd 0.97187 0.54531 0.94826 0.0
Cd310 Cd 0.95714 0.53367 0.98855 0.0
O311 O 0.8852 0.58827 0.98188 0.0
O312 O 1.04667 0.62336 0.92618 0.0
O313 O 1.06574 0.64903 0.96026 0.0
C314 C 0.0846 0.67529 0.94122 0.0
C315 C 1.05195 0.55342 1.01447 0.0
C316 C 0.84435 0.57515 0.96482 0.0
C317 C 0.90092 0.37708 0.96644 0.0
O318 O 0.89533 0.41263 0.98261 0.0
O319 O 0.94099 0.41992 0.95048 0.0
O320 O 0.97659 0.53102 1.01923 0.0
O321 O 1.07603 0.57498 0.99541 0.0
O322 O 0.58242 0.3413 0.94868 0.0
Cd323 Cd 0.58852 0.45327 0.94827 0.0
Cd324 Cd 0.60019 0.45018 0.98857 0.0
O325 O 0.54556 0.32363 0.9819 0.0
O326 O 0.51046 0.45004 0.92619 0.0
O327 O 0.48481 0.44342 0.96027 0.0
C328 C 0.45855 0.43604 0.94123 0.0
C329 C 0.58048 0.5253 1.01448 0.0
C330 C 0.55864 0.29592 0.96483 0.0
C331 C 0.75677 0.55053 0.96644 0.0
O332 O 0.72123 0.50939 0.98261 0.0
O333 O 0.71392 0.54776 0.95049 0.0
O334 O 0.60286 0.47233 1.01924 0.0
O335 O 0.55892 0.52781 0.99541 0.0
O336 O 0.53268 0.67473 0.78201 0.0
Cd337 Cd 0.63857 0.78669 0.78161 0.0
Cd338 Cd 0.62379 0.78356 0.82189 0.0
O339 O 0.55189 0.65701 0.81522 0.0
O340 O 0.71338 0.78345 0.75953 0.0
O341 O 0.73243 0.77681 0.79361 0.0
C342 C 0.7513 0.76944 0.77457 0.0
C343 C 0.7186 0.85864 0.84781 0.0
C344 C 0.51104 0.62931 0.79815 0.0
C345 C 0.56756 0.88394 0.79978 0.0
O346 O 0.56193 0.84274 0.81594 0.0
O347 O 0.60771 0.88121 0.78384 0.0
O348 O 0.64325 0.80566 0.85257 0.0
O349 O 0.74267 0.86118 0.82874 0.0
O350 O 0.45925 0.88482 0.78201 0.0
Cd351 Cd 0.34728 0.87874 0.78162 0.0
Cd352 Cd 0.35041 0.86706 0.8219 0.0
O353 O 0.47696 0.92173 0.81523 0.0
O354 O 0.3505 0.95679 0.75954 0.0
O355 O 0.35715 0.98246 0.79362 0.0
C356 C 0.36451 1.00872 0.77458 0.0
C357 C 0.27527 0.88676 0.84781 0.0
C358 C 0.50465 0.90863 0.79816 0.0
C359 C 0.25005 0.71047 0.79978 0.0
O360 O 0.29124 0.74602 0.81595 0.0
O361 O 0.25277 0.75334 0.78384 0.0
O362 O 0.32826 0.8644 0.85257 0.0
O363 O 0.27275 0.90829 0.82874 0.0
O364 O 0.24913 0.60126 0.78201 0.0
Cd365 Cd 0.25522 0.49538 0.7816 0.0
Cd366 Cd 0.26688 0.51013 0.8219 0.0
O367 O 0.21226 0.58207 0.81523 0.0
O368 O 0.17716 0.42056 0.75952 0.0
O369 O 0.15151 0.40152 0.7936 0.0
C370 C 0.12524 0.38264 0.77456 0.0
C371 C 0.24715 0.4153 0.84781 0.0
C372 C 0.22535 0.62286 0.79816 0.0
C373 C 0.42346 0.56635 0.79977 0.0
O374 O 0.38791 0.57194 0.81594 0.0
O375 O 0.38061 0.52628 0.78382 0.0
O376 O 0.26954 0.49065 0.85257 0.0
O377 O 0.22558 0.39123 0.82874 0.0
O378 O 0.36817 0.83927 0.09616 0.0
Cd379 Cd 0.48012 0.94517 0.09655 0.0
Cd380 Cd 0.47698 0.93036 0.05627 0.0
O381 O 0.35043 0.85849 0.06295 0.0
O382 O 0.4769 1.01999 0.11863 0.0
O383 O 0.47024 1.03902 0.08455 0.0
C384 C 0.46288 0.0579 0.1036 0.0
C385 C 0.55208 1.02517 0.03036 0.0
C386 C 0.32274 0.81764 0.08002 0.0
C387 C 0.57735 0.87413 0.07838 0.0
O388 O 0.53614 0.86849 0.06222 0.0
O389 O 0.57464 0.91429 0.09433 0.0
O390 O 0.49909 0.94983 0.0256 0.0
O391 O 0.55463 1.04925 0.04943 0.0
O392 O 0.2947 0.55576 0.09616 0.0
Cd393 Cd 0.18881 0.56183 0.09657 0.0
Cd394 Cd 0.20354 0.57347 0.05628 0.0
O395 O 0.27549 0.51887 0.06295 0.0
O396 O 0.11401 0.48377 0.11865 0.0
O397 O 0.09495 0.4581 0.08457 0.0
C398 C 1.07608 0.43185 0.10361 0.0
C399 C 0.10874 0.55372 0.03036 0.0
C400 C 0.31634 0.53199 0.08001 0.0
C401 C 0.25977 0.73006 0.0784 0.0
O402 O 0.26536 0.69451 0.06223 0.0
O403 O 0.2197 0.68722 0.09435 0.0
O404 O 0.1841 0.57612 0.02561 0.0
O405 O 0.08465 0.53216 0.04943 0.0
O406 O 0.57827 0.76584 0.09616 0.0
Cd407 Cd 0.57217 0.65387 0.09656 0.0
Cd408 Cd 0.5605 0.65695 0.05627 0.0
O409 O 0.61513 0.78351 0.06294 0.0
O410 O 0.65022 0.6571 0.11864 0.0
O411 O 0.67588 0.66372 0.08456 0.0
C412 C 0.70214 0.6711 0.1036 0.0
C413 C 0.58021 0.58184 0.03036 0.0
C414 C 0.60205 0.81122 0.08001 0.0
C415 C 0.40392 0.55661 0.07839 0.0
O416 O 0.43946 0.59775 0.06222 0.0
O417 O 0.44677 0.55937 0.09434 0.0
O418 O 0.55783 0.63481 0.0256 0.0
O419 O 0.60177 0.57933 0.04942 0.0
O420 O 0.29466 0.76573 0.59616 0.0
Cd421 Cd 0.18877 0.65377 0.59655 0.0
Cd422 Cd 0.20356 0.65691 0.55628 0.0
O423 O 0.27545 0.78345 0.56295 0.0
O424 O 0.11395 0.657 0.61864 0.0
O425 O 0.09491 0.66365 0.58456 0.0
C426 C 1.07603 0.67102 0.6036 0.0
C427 C 0.10874 0.58182 0.53036 0.0
C428 C 0.3163 0.81115 0.58001 0.0
C429 C 0.25978 0.55652 0.57839 0.0
O430 O 0.26541 0.59772 0.56223 0.0
O431 O 0.21963 0.55924 0.59433 0.0
O432 O 0.18409 0.6348 0.5256 0.0
O433 O 0.08467 0.57928 0.54943 0.0
O434 O 0.36809 0.55563 0.59615 0.0
Cd435 Cd 0.48006 0.56172 0.59655 0.0
Cd436 Cd 0.47693 0.5734 0.55626 0.0
O437 O 0.35038 0.51873 0.56294 0.0
O438 O 0.47684 0.48367 0.61863 0.0
O439 O 0.47018 0.45799 0.58455 0.0
C440 C 0.46282 0.43174 0.60359 0.0
C441 C 0.55207 0.5537 0.53036 0.0
C442 C 0.32269 0.53182 0.58001 0.0
C443 C 0.57729 0.72999 0.57838 0.0
O444 O 0.53609 0.69443 0.56222 0.0
O445 O 0.57457 0.68711 0.59433 0.0
O446 O 0.49909 0.57606 0.52559 0.0
O447 O 0.55459 0.53216 0.54942 0.0
O448 O 0.57821 0.83919 0.59616 0.0
Cd449 Cd 0.57212 0.94507 0.59657 0.0
Cd450 Cd 0.56046 0.93034 0.55627 0.0
O451 O 0.61507 0.85839 0.56294 0.0
O452 O 0.65018 1.01989 0.61865 0.0
O453 O 0.67583 1.03894 0.58457 0.0
C454 C 0.7021 0.05782 0.60361 0.0
C455 C 0.5802 1.02517 0.53036 0.0
C456 C 0.60199 0.81759 0.58001 0.0
C457 C 0.40388 0.87411 0.57839 0.0
O458 O 0.43942 0.86852 0.56222 0.0
O459 O 0.44672 0.91418 0.59435 0.0
O460 O 0.5578 0.94981 0.5256 0.0
O461 O 0.60176 1.04923 0.54942 0.0
O462 O 0.4592 0.60121 0.28201 0.0
Cd463 Cd 0.34725 0.49532 0.28162 0.0
Cd464 Cd 0.35038 0.51012 0.32189 0.0
O465 O 0.47693 0.582 0.31522 0.0
O466 O 0.35047 0.42051 0.25953 0.0
O467 O 0.35713 0.40147 0.29361 0.0
C468 C 0.36449 0.38259 0.27457 0.0
C469 C 0.27528 0.41531 0.34781 0.0
C470 C 0.50463 0.62284 0.29815 0.0
C471 C 0.25002 0.56635 0.29978 0.0
O472 O 0.29122 0.572 0.31594 0.0
O473 O 0.25273 0.5262 0.28384 0.0
O474 O 0.32827 0.49065 0.35257 0.0
O475 O 0.27274 0.39124 0.32874 0.0
O476 O 0.53267 0.88473 0.282 0.0
Cd477 Cd 0.63856 0.87866 0.2816 0.0
Cd478 Cd 0.62382 0.86702 0.32189 0.0
O479 O 0.55188 0.92163 0.31522 0.0
O480 O 0.71336 0.95672 0.25952 0.0
O481 O 0.73242 0.98239 0.2936 0.0
C482 C 0.75129 1.00864 0.27456 0.0
C483 C 0.71862 0.88676 0.34781 0.0
C484 C 0.51103 0.9085 0.29815 0.0
C485 C 0.5676 0.71043 0.29977 0.0
O486 O 0.562 0.74598 0.31594 0.0
O487 O 0.60767 0.75327 0.28382 0.0
O488 O 0.64327 0.86437 0.35256 0.0
O489 O 0.74271 0.90832 0.32874 0.0
O490 O 0.24911 0.67465 0.28201 0.0
Cd491 Cd 0.2552 0.78662 0.2816 0.0
Cd492 Cd 0.26687 0.78353 0.3219 0.0
O493 O 0.21224 0.65698 0.31523 0.0
O494 O 0.17715 0.78339 0.25953 0.0
O495 O 0.15149 0.77678 0.29361 0.0
C496 C 0.12523 0.76939 0.27457 0.0
C497 C 0.24716 0.85865 0.34781 0.0
C498 C 0.22532 0.62927 0.29816 0.0
C499 C 0.42345 0.88388 0.29978 0.0
O500 O 0.38791 0.84274 0.31594 0.0
O501 O 0.3806 0.88112 0.28382 0.0
O502 O 0.26954 0.80568 0.35257 0.0
O503 O 0.2256 0.86116 0.32874 0.0
loop_
_geom_bond_atom_site_label_1
_geom_bond_atom_site_label_2
_geom_bond_distance
_geom_bond_site_symmetry_2
_ccdc_geom_bond_type
O0 Cd1 2.223 1_565 S
O0 C8 1.315 . S
Cd1 O0 2.223 1_545 S
Cd1 O4 2.297 1_545 S
Cd1 O5 2.439 1_545 S
Cd1 O11 2.240 . S
Cd2 O3 2.240 1_545 S
Cd2 O10 2.223 . S
Cd2 O12 2.297 . S
Cd2 O13 2.439 . S
O3 Cd2 2.240 1_565 S
O3 C8 1.279 . S
O4 Cd1 2.297 1_565 S
O4 C6 1.247 . S
O5 Cd1 2.439 1_565 S
O5 C6 1.208 . S
C6 O4 1.247 . S
C6 O5 1.208 . S
C7 O12 1.247 . S
C7 O13 1.208 . S
C8 O0 1.315 . S
C8 O3 1.279 . S
C9 O10 1.315 . S
C9 O11 1.279 . S
O10 Cd2 2.223 . S
O10 C9 1.315 . S
O11 Cd1 2.240 . S
O11 C9 1.279 . S
O12 Cd2 2.297 . S
O12 C7 1.247 . S
O13 Cd2 2.439 . S
O13 C7 1.208 . S
O14 Cd15 2.223 1_455 S
O14 C22 1.315 . S
Cd15 O14 2.223 1_655 S
Cd15 O18 2.297 1_655 S
Cd15 O19 2.439 1_655 S
Cd15 O25 2.240 . S
Cd16 O17 2.240 1_655 S
Cd16 O24 2.223 . S
Cd16 O26 2.297 . S
Cd16 O27 2.439 . S
O17 Cd16 2.240 1_455 S
O17 C22 1.279 . S
O18 Cd15 2.297 1_455 S
O18 C20 1.247 . S
O19 Cd15 2.439 1_455 S
O19 C20 1.208 . S
C20 O18 1.247 . S
C20 O19 1.208 . S
C21 O26 1.247 . S
C21 O27 1.208 . S
C22 O14 1.315 . S
C22 O17 1.279 . S
C23 O24 1.315 . S
C23 O25 1.279 . S
O24 Cd16 2.223 . S
O24 C23 1.315 . S
O25 Cd15 2.240 . S
O25 C23 1.279 . S
O26 Cd16 2.297 . S
O26 C21 1.247 . S
O27 Cd16 2.439 . S
O27 C21 1.208 . S
O28 Cd29 2.223 . S
O28 C36 1.315 . S
Cd29 O28 2.223 . S
Cd29 O32 2.297 . S
Cd29 O33 2.439 . S
Cd29 O39 2.240 . S
Cd30 O31 2.240 . S
Cd30 O38 2.223 . S
Cd30 O40 2.297 . S
Cd30 O41 2.439 . S
O31 Cd30 2.240 . S
O31 C36 1.279 . S
O32 Cd29 2.297 . S
O32 C34 1.247 . S
O33 Cd29 2.439 . S
O33 C34 1.208 . S
C34 O32 1.247 . S
C34 O33 1.208 . S
C35 O40 1.247 . S
C35 O41 1.208 . S
C36 O28 1.315 . S
C36 O31 1.279 . S
C37 O38 1.315 . S
C37 O39 1.279 . S
O38 Cd30 2.223 . S
O38 C37 1.315 . S
O39 Cd29 2.240 . S
O39 C37 1.279 . S
O40 Cd30 2.297 . S
O40 C35 1.247 . S
O41 Cd30 2.439 . S
O41 C35 1.208 . S
O42 Cd43 2.223 1_655 S
O42 C50 1.315 . S
Cd43 O42 2.223 1_455 S
Cd43 O46 2.297 1_455 S
Cd43 O47 2.439 1_455 S
Cd43 O53 2.240 . S
Cd44 O45 2.240 1_455 S
Cd44 O52 2.223 . S
Cd44 O54 2.297 . S
Cd44 O55 2.439 . S
O45 Cd44 2.240 1_655 S
O45 C50 1.279 . S
O46 Cd43 2.297 1_655 S
O46 C48 1.247 . S
O47 Cd43 2.439 1_655 S
O47 C48 1.208 . S
C48 O46 1.247 . S
C48 O47 1.208 . S
C49 O54 1.247 . S
C49 O55 1.208 . S
C50 O42 1.315 . S
C50 O45 1.279 . S
C51 O52 1.315 . S
C51 O53 1.279 . S
O52 Cd44 2.223 . S
O52 C51 1.315 . S
O53 Cd43 2.240 . S
O53 C51 1.279 . S
O54 Cd44 2.297 . S
O54 C49 1.247 . S
O55 Cd44 2.439 . S
O55 C49 1.208 . S
O56 Cd57 2.223 . S
O56 C64 1.315 . S
Cd57 O56 2.223 . S
Cd57 O60 2.297 . S
Cd57 O61 2.439 . S
Cd57 O67 2.240 . S
Cd58 O59 2.240 . S
Cd58 O66 2.223 . S
Cd58 O68 2.297 . S
Cd58 O69 2.439 . S
O59 Cd58 2.240 . S
O59 C64 1.279 . S
O60 Cd57 2.297 . S
O60 C62 1.247 . S
O61 Cd57 2.439 . S
O61 C62 1.208 . S
C62 O60 1.247 . S
C62 O61 1.208 . S
C63 O68 1.247 . S
C63 O69 1.208 . S
C64 O56 1.315 . S
C64 O59 1.279 . S
C65 O66 1.315 . S
C65 O67 1.279 . S
O66 Cd58 2.223 . S
O66 C65 1.315 . S
O67 Cd57 2.240 . S
O67 C65 1.279 . S
O68 Cd58 2.297 . S
O68 C63 1.247 . S
O69 Cd58 2.439 . S
O69 C63 1.208 . S
O70 Cd71 2.223 1_545 S
O70 C78 1.315 . S
Cd71 O70 2.223 1_565 S
Cd71 O74 2.297 1_565 S
Cd71 O75 2.439 1_565 S
Cd71 O81 2.240 . S
Cd72 O73 2.240 1_565 S
Cd72 O80 2.223 . S
Cd72 O82 2.297 . S
Cd72 O83 2.439 . S
O73 Cd72 2.240 1_545 S
O73 C78 1.279 . S
O74 Cd71 2.297 1_545 S
O74 C76 1.247 . S
O75 Cd71 2.439 1_545 S
O75 C76 1.208 . S
C76 O74 1.247 . S
C76 O75 1.208 . S
C77 O82 1.247 . S
C77 O83 1.208 . S
C78 O70 1.315 . S
C78 O73 1.279 . S
C79 O80 1.315 . S
C79 O81 1.279 . S
O80 Cd72 2.223 . S
O80 C79 1.315 . S
O81 Cd71 2.240 . S
O81 C79 1.279 . S
O82 Cd72 2.297 . S
O82 C77 1.247 . S
O83 Cd72 2.439 . S
O83 C77 1.208 . S
O84 Cd85 2.223 1_545 S
O84 C92 1.315 . S
Cd85 O84 2.223 1_565 S
Cd85 O88 2.297 1_565 S
Cd85 O89 2.439 1_565 S
Cd85 O95 2.240 . S
Cd86 O87 2.240 1_565 S
Cd86 O94 2.223 . S
Cd86 O96 2.297 . S
Cd86 O97 2.439 . S
O87 Cd86 2.240 1_545 S
O87 C92 1.279 . S
O88 Cd85 2.297 1_545 S
O88 C90 1.247 . S
O89 Cd85 2.439 1_545 S
O89 C90 1.208 . S
C90 O88 1.247 . S
C90 O89 1.208 . S
C91 O96 1.247 . S
C91 O97 1.208 . S
C92 O84 1.315 . S
C92 O87 1.279 . S
C93 O94 1.315 . S
C93 O95 1.279 . S
O94 Cd86 2.223 . S
O94 C93 1.315 . S
O95 Cd85 2.240 . S
O95 C93 1.279 . S
O96 Cd86 2.297 . S
O96 C91 1.247 . S
O97 Cd86 2.439 . S
O97 C91 1.208 . S
O98 Cd99 2.223 1_655 S
O98 C106 1.315 . S
Cd99 O98 2.223 1_455 S
Cd99 O102 2.297 1_455 S
Cd99 O103 2.439 1_455 S
Cd99 O109 2.240 . S
Cd100 O101 2.240 1_455 S
Cd100 O108 2.223 . S
Cd100 O110 2.297 . S
Cd100 O111 2.439 . S
O101 Cd100 2.240 1_655 S
O101 C106 1.279 . S
O102 Cd99 2.297 1_655 S
O102 C104 1.247 . S
O103 Cd99 2.439 1_655 S
O103 C104 1.208 . S
C104 O102 1.247 . S
C104 O103 1.208 . S
C105 O110 1.247 . S
C105 O111 1.208 . S
C106 O98 1.315 . S
C106 O101 1.279 . S
C107 O108 1.315 . S
C107 O109 1.279 . S
O108 Cd100 2.223 . S
O108 C107 1.315 . S
O109 Cd99 2.240 . S
O109 C107 1.279 . S
O110 Cd100 2.297 . S
O110 C105 1.247 . S
O111 Cd100 2.439 . S
O111 C105 1.208 . S
O112 Cd113 2.223 . S
O112 C120 1.315 . S
Cd113 O112 2.223 . S
Cd113 O116 2.297 . S
Cd113 O117 2.439 . S
Cd113 O123 2.240 . S
Cd114 O115 2.240 . S
Cd114 O122 2.223 . S
Cd114 O124 2.297 . S
Cd114 O125 2.439 . S
O115 Cd114 2.240 . S
O115 C120 1.279 . S
O116 Cd113 2.297 . S
O116 C118 1.247 . S
O117 Cd113 2.439 . S
O117 C118 1.208 . S
C118 O116 1.247 . S
C118 O117 1.208 . S
C119 O124 1.247 . S
C119 O125 1.208 . S
C120 O112 1.315 . S
C120 O115 1.279 . S
C121 O122 1.315 . S
C121 O123 1.279 . S
O122 Cd114 2.223 . S
O122 C121 1.315 . S
O123 Cd113 2.240 . S
O123 C121 1.279 . S
O124 Cd114 2.297 . S
O124 C119 1.247 . S
O125 Cd114 2.439 . S
O125 C119 1.208 . S
O126 Cd127 2.223 1_455 S
O126 C134 1.315 . S
Cd127 O126 2.223 1_655 S
Cd127 O130 2.297 1_655 S
Cd127 O131 2.439 1_655 S
Cd127 O137 2.240 . S
Cd128 O129 2.240 1_655 S
Cd128 O136 2.223 . S
Cd128 O138 2.297 . S
Cd128 O139 2.439 . S
O129 Cd128 2.240 1_455 S
O129 C134 1.279 . S
O130 Cd127 2.297 1_455 S
O130 C132 1.247 . S
O131 Cd127 2.439 1_455 S
O131 C132 1.208 . S
C132 O130 1.247 . S
C132 O131 1.208 . S
C133 O138 1.247 . S
C133 O139 1.208 . S
C134 O126 1.315 . S
C134 O129 1.279 . S
C135 O136 1.315 . S
C135 O137 1.279 . S
O136 Cd128 2.223 . S
O136 C135 1.315 . S
O137 Cd127 2.240 . S
O137 C135 1.279 . S
O138 Cd128 2.297 . S
O138 C133 1.247 . S
O139 Cd128 2.439 . S
O139 C133 1.208 . S
O140 Cd141 2.223 . S
O140 C148 1.315 . S
Cd141 O140 2.223 . S
Cd141 O144 2.297 . S
Cd141 O145 2.439 . S
Cd141 O151 2.240 . S
Cd142 O143 2.240 . S
Cd142 O150 2.223 . S
Cd142 O152 2.297 . S
Cd142 O153 2.439 . S
O143 Cd142 2.240 . S
O143 C148 1.279 . S
O144 Cd141 2.297 . S
O144 C146 1.247 . S
O145 Cd141 2.439 . S
O145 C146 1.208 . S
C146 O144 1.247 . S
C146 O145 1.208 . S
C147 O152 1.247 . S
C147 O153 1.208 . S
C148 O140 1.315 . S
C148 O143 1.279 . S
C149 O150 1.315 . S
C149 O151 1.279 . S
O150 Cd142 2.223 . S
O150 C149 1.315 . S
O151 Cd141 2.240 . S
O151 C149 1.279 . S
O152 Cd142 2.297 . S
O152 C147 1.247 . S
O153 Cd142 2.439 . S
O153 C147 1.208 . S
O154 Cd155 2.223 1_565 S
O154 C162 1.315 . S
Cd155 O154 2.223 1_545 S
Cd155 O158 2.297 1_545 S
Cd155 O159 2.439 1_545 S
Cd155 O165 2.240 . S
Cd156 O157 2.240 1_545 S
Cd156 O164 2.223 . S
Cd156 O166 2.297 . S
Cd156 O167 2.439 . S
O157 Cd156 2.240 1_565 S
O157 C162 1.279 . S
O158 Cd155 2.297 1_565 S
O158 C160 1.247 . S
O159 Cd155 2.439 1_565 S
O159 C160 1.208 . S
C160 O158 1.247 . S
C160 O159 1.208 . S
C161 O166 1.247 . S
C161 O167 1.208 . S
C162 O154 1.315 . S
C162 O157 1.279 . S
C163 O164 1.315 . S
C163 O165 1.279 . S
O164 Cd156 2.223 . S
O164 C163 1.315 . S
O165 Cd155 2.240 . S
O165 C163 1.279 . S
O166 Cd156 2.297 . S
O166 C161 1.247 . S
O167 Cd156 2.439 . S
O167 C161 1.208 . S
O168 Cd169 2.223 . S
O168 C176 1.315 . S
Cd169 O168 2.223 . S
Cd169 O172 2.297 . S
Cd169 O173 2.439 . S
Cd169 O179 2.240 . S
Cd170 O171 2.240 . S
Cd170 O178 2.223 . S
Cd170 O180 2.297 . S
Cd170 O181 2.439 . S
O171 Cd170 2.240 . S
O171 C176 1.279 . S
O172 Cd169 2.297 . S
O172 C174 1.247 . S
O173 Cd169 2.439 . S
O173 C174 1.208 . S
C174 O172 1.247 . S
C174 O173 1.208 . S
C175 O180 1.247 . S
C175 O181 1.208 . S
C176 O168 1.315 . S
C176 O171 1.279 . S
C177 O178 1.315 . S
C177 O179 1.279 . S
O178 Cd170 2.223 . S
O178 C177 1.315 . S
O179 Cd169 2.240 . S
O179 C177 1.279 . S
O180 Cd170 2.297 . S
O180 C175 1.247 . S
O181 Cd170 2.439 . S
O181 C175 1.208 . S
O182 Cd183 2.223 . S
O182 C190 1.315 . S
Cd183 O182 2.223 . S
Cd183 O186 2.297 . S
Cd183 O187 2.439 . S
Cd183 O193 2.240 . S
Cd184 O185 2.240 . S
Cd184 O192 2.223 . S
Cd184 O194 2.297 . S
Cd184 O195 2.439 . S
O185 Cd184 2.240 . S
O185 C190 1.279 . S
O186 Cd183 2.297 . S
O186 C188 1.247 . S
O187 Cd183 2.439 . S
O187 C188 1.208 . S
C188 O186 1.247 . S
C188 O187 1.208 . S
C189 O194 1.247 . S
C189 O195 1.208 . S
C190 O182 1.315 . S
C190 O185 1.279 . S
C191 O192 1.315 . S
C191 O193 1.279 . S
O192 Cd184 2.223 . S
O192 C191 1.315 . S
O193 Cd183 2.240 . S
O193 C191 1.279 . S
O194 Cd184 2.297 . S
O194 C189 1.247 . S
O195 Cd184 2.439 . S
O195 C189 1.208 . S
O196 Cd197 2.223 . S
O196 C204 1.315 . S
Cd197 O196 2.223 . S
Cd197 O200 2.297 . S
Cd197 O201 2.439 . S
Cd197 O207 2.240 . S
Cd198 O199 2.240 . S
Cd198 O206 2.223 . S
Cd198 O208 2.297 . S
Cd198 O209 2.439 . S
O199 Cd198 2.240 . S
O199 C204 1.279 . S
O200 Cd197 2.297 . S
O200 C202 1.247 . S
O201 Cd197 2.439 . S
O201 C202 1.208 . S
C202 O200 1.247 . S
C202 O201 1.208 . S
C203 O208 1.247 . S
C203 O209 1.208 . S
C204 O196 1.315 . S
C204 O199 1.279 . S
C205 O206 1.315 . S
C205 O207 1.279 . S
O206 Cd198 2.223 . S
O206 C205 1.315 . S
O207 Cd197 2.240 . S
O207 C205 1.279 . S
O208 Cd198 2.297 . S
O208 C203 1.247 . S
O209 Cd198 2.439 . S
O209 C203 1.208 . S
O210 Cd211 2.223 . S
O210 C218 1.315 . S
Cd211 O210 2.223 . S
Cd211 O214 2.297 . S
Cd211 O215 2.439 . S
Cd211 O221 2.240 . S
Cd212 O213 2.240 . S
Cd212 O220 2.223 . S
Cd212 O222 2.297 . S
Cd212 O223 2.439 . S
O213 Cd212 2.240 . S
O213 C218 1.279 . S
O214 Cd211 2.297 . S
O214 C216 1.247 . S
O215 Cd211 2.439 . S
O215 C216 1.208 . S
C216 O214 1.247 . S
C216 O215 1.208 . S
C217 O222 1.247 . S
C217 O223 1.208 . S
C218 O210 1.315 . S
C218 O213 1.279 . S
C219 O220 1.315 . S
C219 O221 1.279 . S
O220 Cd212 2.223 . S
O220 C219 1.315 . S
O221 Cd211 2.240 . S
O221 C219 1.279 . S
O222 Cd212 2.297 . S
O222 C217 1.247 . S
O223 Cd212 2.439 . S
O223 C217 1.208 . S
O224 Cd225 2.223 . S
O224 C232 1.315 . S
Cd225 O224 2.223 . S
Cd225 O228 2.297 . S
Cd225 O229 2.439 . S
Cd225 O235 2.240 . S
Cd226 O227 2.240 . S
Cd226 O234 2.223 . S
Cd226 O236 2.297 . S
Cd226 O237 2.439 . S
O227 Cd226 2.240 . S
O227 C232 1.279 . S
O228 Cd225 2.297 . S
O228 C230 1.247 . S
O229 Cd225 2.439 . S
O229 C230 1.208 . S
C230 O228 1.247 . S
C230 O229 1.208 . S
C231 O236 1.247 . S
C231 O237 1.208 . S
C232 O224 1.315 . S
C232 O227 1.279 . S
C233 O234 1.315 . S
C233 O235 1.279 . S
O234 Cd226 2.223 . S
O234 C233 1.315 . S
O235 Cd225 2.240 . S
O235 C233 1.279 . S
O236 Cd226 2.297 . S
O236 C231 1.247 . S
O237 Cd226 2.439 . S
O237 C231 1.208 . S
O238 Cd239 2.223 . S
O238 C246 1.315 . S
Cd239 O238 2.223 . S
Cd239 O242 2.297 . S
Cd239 O243 2.439 . S
Cd239 O249 2.240 . S
Cd240 O241 2.240 . S
Cd240 O248 2.223 . S
Cd240 O250 2.297 . S
Cd240 O251 2.439 . S
O241 Cd240 2.240 . S
O241 C246 1.279 . S
O242 Cd239 2.297 . S
O242 C244 1.247 . S
O243 Cd239 2.439 . S
O243 C244 1.208 . S
C244 O242 1.247 . S
C244 O243 1.208 . S
C245 O250 1.247 . S
C245 O251 1.208 . S
C246 O238 1.315 . S
C246 O241 1.279 . S
C247 O248 1.315 . S
C247 O249 1.279 . S
O248 Cd240 2.223 . S
O248 C247 1.315 . S
O249 Cd239 2.240 . S
O249 C247 1.279 . S
O250 Cd240 2.297 . S
O250 C245 1.247 . S
O251 Cd240 2.439 . S
O251 C245 1.208 . S
O252 Cd253 2.223 . S
O252 C260 1.315 . S
Cd253 O252 2.223 . S
Cd253 O256 2.297 . S
Cd253 O257 2.439 . S
Cd253 O263 2.240 . S
Cd254 O255 2.240 . S
Cd254 O262 2.223 . S
Cd254 O264 2.297 . S
Cd254 O265 2.439 . S
O255 Cd254 2.240 . S
O255 C260 1.279 . S
O256 Cd253 2.297 . S
O256 C258 1.247 . S
O257 Cd253 2.439 . S
O257 C258 1.208 . S
C258 O256 1.247 . S
C258 O257 1.208 . S
C259 O264 1.247 . S
C259 O265 1.208 . S
C260 O252 1.315 . S
C260 O255 1.279 . S
C261 O262 1.315 . S
C261 O263 1.279 . S
O262 Cd254 2.223 . S
O262 C261 1.315 . S
O263 Cd253 2.240 . S
O263 C261 1.279 . S
O264 Cd254 2.297 . S
O264 C259 1.247 . S
O265 Cd254 2.439 . S
O265 C259 1.208 . S
O266 Cd267 2.223 . S
O266 C274 1.315 . S
Cd267 O266 2.223 . S
Cd267 O270 2.297 . S
Cd267 O271 2.439 . S
Cd267 O277 2.240 . S
Cd268 O269 2.240 . S
Cd268 O276 2.223 . S
Cd268 O278 2.297 . S
Cd268 O279 2.439 . S
O269 Cd268 2.240 . S
O269 C274 1.279 . S
O270 Cd267 2.297 . S
O270 C272 1.247 . S
O271 Cd267 2.439 . S
O271 C272 1.208 . S
C272 O270 1.247 . S
C272 O271 1.208 . S
C273 O278 1.247 . S
C273 O279 1.208 . S
C274 O266 1.315 . S
C274 O269 1.279 . S
C275 O276 1.315 . S
C275 O277 1.279 . S
O276 Cd268 2.223 . S
O276 C275 1.315 . S
O277 Cd267 2.240 . S
O277 C275 1.279 . S
O278 Cd268 2.297 . S
O278 C273 1.247 . S
O279 Cd268 2.439 . S
O279 C273 1.208 . S
O280 Cd281 2.223 . S
O280 C288 1.315 . S
Cd281 O280 2.223 . S
Cd281 O284 2.297 . S
Cd281 O285 2.439 . S
Cd281 O291 2.240 . S
Cd282 O283 2.240 . S
Cd282 O290 2.223 . S
Cd282 O292 2.297 . S
Cd282 O293 2.439 . S
O283 Cd282 2.240 . S
O283 C288 1.279 . S
O284 Cd281 2.297 . S
O284 C286 1.247 . S
O285 Cd281 2.439 . S
O285 C286 1.208 . S
C286 O284 1.247 . S
C286 O285 1.208 . S
C287 O292 1.247 . S
C287 O293 1.208 . S
C288 O280 1.315 . S
C288 O283 1.279 . S
C289 O290 1.315 . S
C289 O291 1.279 . S
O290 Cd282 2.223 . S
O290 C289 1.315 . S
O291 Cd281 2.240 . S
O291 C289 1.279 . S
O292 Cd282 2.297 . S
O292 C287 1.247 . S
O293 Cd282 2.439 . S
O293 C287 1.208 . S
O294 Cd295 2.223 . S
O294 C302 1.315 . S
Cd295 O294 2.223 . S
Cd295 O298 2.297 . S
Cd295 O299 2.439 . S
Cd295 O305 2.240 . S
Cd296 O297 2.240 . S
Cd296 O304 2.223 . S
Cd296 O306 2.297 1_556 S
Cd296 O307 2.439 . S
O297 Cd296 2.240 . S
O297 C302 1.279 . S
O298 Cd295 2.297 . S
O298 C300 1.247 . S
O299 Cd295 2.439 . S
O299 C300 1.208 . S
C300 O298 1.247 . S
C300 O299 1.208 . S
C301 O306 1.247 1_556 S
C301 O307 1.208 . S
C302 O294 1.315 . S
C302 O297 1.279 . S
C303 O304 1.315 . S
C303 O305 1.279 . S
O304 Cd296 2.223 . S
O304 C303 1.315 . S
O305 Cd295 2.240 . S
O305 C303 1.279 . S
O306 Cd296 2.297 1_554 S
O306 C301 1.247 1_554 S
O307 Cd296 2.439 . S
O307 C301 1.208 . S
O308 Cd309 2.223 . S
O308 C316 1.315 . S
Cd309 O308 2.223 . S
Cd309 O312 2.297 . S
Cd309 O313 2.439 . S
Cd309 O319 2.240 . S
Cd310 O311 2.240 . S
Cd310 O318 2.223 . S
Cd310 O320 2.297 1_556 S
Cd310 O321 2.439 . S
O311 Cd310 2.240 . S
O311 C316 1.279 . S
O312 Cd309 2.297 . S
O312 C314 1.247 . S
O313 Cd309 2.439 . S
O313 C314 1.208 . S
C314 O312 1.247 . S
C314 O313 1.208 . S
C315 O320 1.247 1_556 S
C315 O321 1.208 . S
C316 O308 1.315 . S
C316 O311 1.279 . S
C317 O318 1.315 . S
C317 O319 1.279 . S
O318 Cd310 2.223 . S
O318 C317 1.315 . S
O319 Cd309 2.240 . S
O319 C317 1.279 . S
O320 Cd310 2.297 1_554 S
O320 C315 1.247 1_554 S
O321 Cd310 2.439 . S
O321 C315 1.208 . S
O322 Cd323 2.223 . S
O322 C330 1.315 . S
Cd323 O322 2.223 . S
Cd323 O326 2.297 . S
Cd323 O327 2.439 . S
Cd323 O333 2.240 . S
Cd324 O325 2.240 . S
Cd324 O332 2.223 . S
Cd324 O334 2.297 1_556 S
Cd324 O335 2.439 . S
O325 Cd324 2.240 . S
O325 C330 1.279 . S
O326 Cd323 2.297 . S
O326 C328 1.247 . S
O327 Cd323 2.439 . S
O327 C328 1.208 . S
C328 O326 1.247 . S
C328 O327 1.208 . S
C329 O334 1.247 1_556 S
C329 O335 1.208 . S
C330 O322 1.315 . S
C330 O325 1.279 . S
C331 O332 1.315 . S
C331 O333 1.279 . S
O332 Cd324 2.223 . S
O332 C331 1.315 . S
O333 Cd323 2.240 . S
O333 C331 1.279 . S
O334 Cd324 2.297 1_554 S
O334 C329 1.247 1_554 S
O335 Cd324 2.439 . S
O335 C329 1.208 . S
O336 Cd337 2.223 . S
O336 C344 1.315 . S
Cd337 O336 2.223 . S
Cd337 O340 2.297 . S
Cd337 O341 2.439 . S
Cd337 O347 2.240 . S
Cd338 O339 2.240 . S
Cd338 O346 2.223 . S
Cd338 O348 2.297 . S
Cd338 O349 2.439 . S
O339 Cd338 2.240 . S
O339 C344 1.279 . S
O340 Cd337 2.297 . S
O340 C342 1.247 . S
O341 Cd337 2.439 . S
O341 C342 1.208 . S
C342 O340 1.247 . S
C342 O341 1.208 . S
C343 O348 1.247 . S
C343 O349 1.208 . S
C344 O336 1.315 . S
C344 O339 1.279 . S
C345 O346 1.315 . S
C345 O347 1.279 . S
O346 Cd338 2.223 . S
O346 C345 1.315 . S
O347 Cd337 2.240 . S
O347 C345 1.279 . S
O348 Cd338 2.297 . S
O348 C343 1.247 . S
O349 Cd338 2.439 . S
O349 C343 1.208 . S
O350 Cd351 2.223 . S
O350 C358 1.315 . S
Cd351 O350 2.223 . S
Cd351 O354 2.297 . S
Cd351 O355 2.439 . S
Cd351 O361 2.240 . S
Cd352 O353 2.240 . S
Cd352 O360 2.223 . S
Cd352 O362 2.297 . S
Cd352 O363 2.439 . S
O353 Cd352 2.240 . S
O353 C358 1.279 . S
O354 Cd351 2.297 . S
O354 C356 1.247 . S
O355 Cd351 2.439 . S
O355 C356 1.208 . S
C356 O354 1.247 . S
C356 O355 1.208 . S
C357 O362 1.247 . S
C357 O363 1.208 . S
C358 O350 1.315 . S
C358 O353 1.279 . S
C359 O360 1.315 . S
C359 O361 1.279 . S
O360 Cd352 2.223 . S
O360 C359 1.315 . S
O361 Cd351 2.240 . S
O361 C359 1.279 . S
O362 Cd352 2.297 . S
O362 C357 1.247 . S
O363 Cd352 2.439 . S
O363 C357 1.208 . S
O364 Cd365 2.223 . S
O364 C372 1.315 . S
Cd365 O364 2.223 . S
Cd365 O368 2.297 . S
Cd365 O369 2.439 . S
Cd365 O375 2.240 . S
Cd366 O367 2.240 . S
Cd366 O374 2.223 . S
Cd366 O376 2.297 . S
Cd366 O377 2.439 . S
O367 Cd366 2.240 . S
O367 C372 1.279 . S
O368 Cd365 2.297 . S
O368 C370 1.247 . S
O369 Cd365 2.439 . S
O369 C370 1.208 . S
C370 O368 1.247 . S
C370 O369 1.208 . S
C371 O376 1.247 . S
C371 O377 1.208 . S
C372 O364 1.315 . S
C372 O367 1.279 . S
C373 O374 1.315 . S
C373 O375 1.279 . S
O374 Cd366 2.223 . S
O374 C373 1.315 . S
O375 Cd365 2.240 . S
O375 C373 1.279 . S
O376 Cd366 2.297 . S
O376 C371 1.247 . S
O377 Cd366 2.439 . S
O377 C371 1.208 . S
O378 Cd379 2.223 . S
O378 C386 1.315 . S
Cd379 O378 2.223 . S
Cd379 O382 2.297 . S
Cd379 O383 2.439 . S
Cd379 O389 2.240 . S
Cd380 O381 2.240 . S
Cd380 O388 2.223 . S
Cd380 O390 2.297 1_554 S
Cd380 O391 2.439 . S
O381 Cd380 2.240 . S
O381 C386 1.279 . S
O382 Cd379 2.297 . S
O382 C384 1.247 . S
O383 Cd379 2.439 . S
O383 C384 1.208 . S
C384 O382 1.247 . S
C384 O383 1.208 . S
C385 O390 1.247 1_554 S
C385 O391 1.208 . S
C386 O378 1.315 . S
C386 O381 1.279 . S
C387 O388 1.315 . S
C387 O389 1.279 . S
O388 Cd380 2.223 . S
O388 C387 1.315 . S
O389 Cd379 2.240 . S
O389 C387 1.279 . S
O390 Cd380 2.297 1_556 S
O390 C385 1.247 1_556 S
O391 Cd380 2.439 . S
O391 C385 1.208 . S
O392 Cd393 2.223 . S
O392 C400 1.315 . S
Cd393 O392 2.223 . S
Cd393 O396 2.297 . S
Cd393 O397 2.439 . S
Cd393 O403 2.240 . S
Cd394 O395 2.240 . S
Cd394 O402 2.223 . S
Cd394 O404 2.297 1_554 S
Cd394 O405 2.439 . S
O395 Cd394 2.240 . S
O395 C400 1.279 . S
O396 Cd393 2.297 . S
O396 C398 1.247 . S
O397 Cd393 2.439 . S
O397 C398 1.208 . S
C398 O396 1.247 . S
C398 O397 1.208 . S
C399 O404 1.247 1_554 S
C399 O405 1.208 . S
C400 O392 1.315 . S
C400 O395 1.279 . S
C401 O402 1.315 . S
C401 O403 1.279 . S
O402 Cd394 2.223 . S
O402 C401 1.315 . S
O403 Cd393 2.240 . S
O403 C401 1.279 . S
O404 Cd394 2.297 1_556 S
O404 C399 1.247 1_556 S
O405 Cd394 2.439 . S
O405 C399 1.208 . S
O406 Cd407 2.223 . S
O406 C414 1.315 . S
Cd407 O406 2.223 . S
Cd407 O410 2.297 . S
Cd407 O411 2.439 . S
Cd407 O417 2.240 . S
Cd408 O409 2.240 . S
Cd408 O416 2.223 . S
Cd408 O418 2.297 1_554 S
Cd408 O419 2.439 . S
O409 Cd408 2.240 . S
O409 C414 1.279 . S
O410 Cd407 2.297 . S
O410 C412 1.247 . S
O411 Cd407 2.439 . S
O411 C412 1.208 . S
C412 O410 1.247 . S
C412 O411 1.208 . S
C413 O418 1.247 1_554 S
C413 O419 1.208 . S
C414 O406 1.315 . S
C414 O409 1.279 . S
C415 O416 1.315 . S
C415 O417 1.279 . S
O416 Cd408 2.223 . S
O416 C415 1.315 . S
O417 Cd407 2.240 . S
O417 C415 1.279 . S
O418 Cd408 2.297 1_556 S
O418 C413 1.247 1_556 S
O419 Cd408 2.439 . S
O419 C413 1.208 . S
O420 Cd421 2.223 . S
O420 C428 1.315 . S
Cd421 O420 2.223 . S
Cd421 O424 2.297 . S
Cd421 O425 2.439 . S
Cd421 O431 2.240 . S
Cd422 O423 2.240 . S
Cd422 O430 2.223 . S
Cd422 O432 2.297 . S
Cd422 O433 2.439 . S
O423 Cd422 2.240 . S
O423 C428 1.279 . S
O424 Cd421 2.297 . S
O424 C426 1.247 . S
O425 Cd421 2.439 . S
O425 C426 1.208 . S
C426 O424 1.247 . S
C426 O425 1.208 . S
C427 O432 1.247 . S
C427 O433 1.208 . S
C428 O420 1.315 . S
C428 O423 1.279 . S
C429 O430 1.315 . S
C429 O431 1.279 . S
O430 Cd422 2.223 . S
O430 C429 1.315 . S
O431 Cd421 2.240 . S
O431 C429 1.279 . S
O432 Cd422 2.297 . S
O432 C427 1.247 . S
O433 Cd422 2.439 . S
O433 C427 1.208 . S
O434 Cd435 2.223 . S
O434 C442 1.315 . S
Cd435 O434 2.223 . S
Cd435 O438 2.297 . S
Cd435 O439 2.439 . S
Cd435 O445 2.240 . S
Cd436 O437 2.240 . S
Cd436 O444 2.223 . S
Cd436 O446 2.297 . S
Cd436 O447 2.439 . S
O437 Cd436 2.240 . S
O437 C442 1.279 . S
O438 Cd435 2.297 . S
O438 C440 1.247 . S
O439 Cd435 2.439 . S
O439 C440 1.208 . S
C440 O438 1.247 . S
C440 O439 1.208 . S
C441 O446 1.247 . S
C441 O447 1.208 . S
C442 O434 1.315 . S
C442 O437 1.279 . S
C443 O444 1.315 . S
C443 O445 1.279 . S
O444 Cd436 2.223 . S
O444 C443 1.315 . S
O445 Cd435 2.240 . S
O445 C443 1.279 . S
O446 Cd436 2.297 . S
O446 C441 1.247 . S
O447 Cd436 2.439 . S
O447 C441 1.208 . S
O448 Cd449 2.223 . S
O448 C456 1.315 . S
Cd449 O448 2.223 . S
Cd449 O452 2.297 . S
Cd449 O453 2.439 . S
Cd449 O459 2.240 . S
Cd450 O451 2.240 . S
Cd450 O458 2.223 . S
Cd450 O460 2.297 . S
Cd450 O461 2.439 . S
O451 Cd450 2.240 . S
O451 C456 1.279 . S
O452 Cd449 2.297 . S
O452 C454 1.247 . S
O453 Cd449 2.439 . S
O453 C454 1.208 . S
C454 O452 1.247 . S
C454 O453 1.208 . S
C455 O460 1.247 . S
C455 O461 1.208 . S
C456 O448 1.315 . S
C456 O451 1.279 . S
C457 O458 1.315 . S
C457 O459 1.279 . S
O458 Cd450 2.223 . S
O458 C457 1.315 . S
O459 Cd449 2.240 . S
O459 C457 1.279 . S
O460 Cd450 2.297 . S
O460 C455 1.247 . S
O461 Cd450 2.439 . S
O461 C455 1.208 . S
O462 Cd463 2.223 . S
O462 C470 1.315 . S
Cd463 O462 2.223 . S
Cd463 O466 2.297 . S
Cd463 O467 2.439 . S
Cd463 O473 2.240 . S
Cd464 O465 2.240 . S
Cd464 O472 2.223 . S
Cd464 O474 2.297 . S
Cd464 O475 2.439 . S
O465 Cd464 2.240 . S
O465 C470 1.279 . S
O466 Cd463 2.297 . S
O466 C468 1.247 . S
O467 Cd463 2.439 . S
O467 C468 1.208 . S
C468 O466 1.247 . S
C468 O467 1.208 . S
C469 O474 1.247 . S
C469 O475 1.208 . S
C470 O462 1.315 . S
C470 O465 1.279 . S
C471 O472 1.315 . S
C471 O473 1.279 . S
O472 Cd464 2.223 . S
O472 C471 1.315 . S
O473 Cd463 2.240 . S
O473 C471 1.279 . S
O474 Cd464 2.297 . S
O474 C469 1.247 . S
O475 Cd464 2.439 . S
O475 C469 1.208 . S
O476 Cd477 2.223 . S
O476 C484 1.315 . S
Cd477 O476 2.223 . S
Cd477 O480 2.297 . S
Cd477 O481 2.439 . S
Cd477 O487 2.240 . S
Cd478 O479 2.240 . S
Cd478 O486 2.223 . S
Cd478 O488 2.297 . S
Cd478 O489 2.439 . S
O479 Cd478 2.240 . S
O479 C484 1.279 . S
O480 Cd477 2.297 . S
O480 C482 1.247 . S
O481 Cd477 2.439 . S
O481 C482 1.208 . S
C482 O480 1.247 . S
C482 O481 1.208 . S
C483 O488 1.247 . S
C483 O489 1.208 . S
C484 O476 1.315 . S
C484 O479 1.279 . S
C485 O486 1.315 . S
C485 O487 1.279 . S
O486 Cd478 2.223 . S
O486 C485 1.315 . S
O487 Cd477 2.240 . S
O487 C485 1.279 . S
O488 Cd478 2.297 . S
O488 C483 1.247 . S
O489 Cd478 2.439 . S
O489 C483 1.208 . S
O490 Cd491 2.223 . S
O490 C498 1.315 . S
Cd491 O490 2.223 . S
Cd491 O494 2.297 . S
Cd491 O495 2.439 . S
Cd491 O501 2.240 . S
Cd492 O493 2.240 . S
Cd492 O500 2.223 . S
Cd492 O502 2.297 . S
Cd492 O503 2.439 . S
O493 Cd492 2.240 . S
O493 C498 1.279 . S
O494 Cd491 2.297 . S
O494 C496 1.247 . S
O495 Cd491 2.439 . S
O495 C496 1.208 . S
C496 O494 1.247 . S
C496 O495 1.208 . S
C497 O502 1.247 . S
C497 O503 1.208 . S
C498 O490 1.315 . S
C498 O493 1.279 . S
C499 O500 1.315 . S
C499 O501 1.279 . S
O500 Cd492 2.223 . S
O500 C499 1.315 . S
O501 Cd491 2.240 . S
O501 C499 1.279 . S
O502 Cd492 2.297 . S
O502 C497 1.247 . S
O503 Cd492 2.439 . S
O503 C497 1.208 . S
C7 C259 1.438 . S
C273 C21 1.438 . S
C287 C35 1.438 . S
C49 C469 1.438 . S
C63 C483 1.438 . S
C77 C497 1.438 . S
C343 C91 1.438 . S
C105 C357 1.438 . S
C119 C371 1.438 . S
C217 C133 1.438 . S
C231 C147 1.438 . S
C245 C161 1.438 . S
C427 C175 1.438 1_455 S
C441 C189 1.438 . S
C203 C455 1.438 1_545 S
C385 C301 1.438 1_564 S
C315 C399 1.438 1_656 S
C329 C413 1.438 1_556 S
C6 C384 1.542 . S
C398 C20 1.542 . S
C412 C34 1.542 . S
C174 C48 1.542 . S
C188 C62 1.542 . S
C202 C76 1.542 . S
C90 C300 1.542 . S
C314 C104 1.542 . S
C328 C118 1.542 . S
C132 C426 1.542 . S
C146 C440 1.542 . S
C160 C454 1.542 . S
C216 C342 1.542 . S
C230 C356 1.542 1_545 S
C244 C370 1.542 1_655 S
C258 C468 1.542 . S
C482 C272 1.542 1_565 S
C286 C496 1.542 1_655 S
C22 C9 1.309 . S
C23 C36 1.309 1_545 S
C37 C8 1.309 1_655 S
C51 C78 1.309 . S
C50 C65 1.309 1_545 S
C79 C64 1.309 1_455 S
C93 C106 1.309 . S
C107 C120 1.309 1_565 S
C121 C92 1.309 1_455 S
C162 C135 1.309 . S
C149 C134 1.309 1_545 S
C148 C163 1.309 1_455 S
C190 C177 1.309 . S
C204 C191 1.309 . S
C176 C205 1.309 . S
C219 C246 1.309 . S
C233 C218 1.309 . S
C247 C232 1.309 . S
C274 C261 1.309 . S
C275 C288 1.309 . S
C289 C260 1.309 . S
C303 C330 1.309 . S
C317 C302 1.309 . S
C316 C331 1.309 . S
C358 C345 1.309 . S
C359 C372 1.309 . S
C344 C373 1.309 . S
C387 C414 1.309 . S
C401 C386 1.309 . S
C415 C400 1.309 . S
C429 C442 1.309 . S
C443 C456 1.309 . S
C457 C428 1.309 . S
C471 C498 1.309 . S
C485 C470 1.309 . S
C484 C499 1.309 . S
