# Generated by pormake.
# Topology noy, (5)-cn, num edge types: 1
# Building blocks:
#     Node 0, Type 0, BuildingBlock: XOMCOT_clean_sbu_1, # of connection points: 5
#     Node 1, Type 0, BuildingBlock: XOMCOT_clean_sbu_1, # of connection points: 5
#     Node 2, Type 0, BuildingBlock: XOMCOT_clean_sbu_1, # of connection points: 5
#     Node 3, Type 0, BuildingBlock: XOMCOT_clean_sbu_1, # of connection points: 5
#     Node 4, Type 0, BuildingBlock: XOMCOT_clean_sbu_1, # of connection points: 5
#     Node 5, Type 0, BuildingBlock: XOMCOT_clean_sbu_1, # of connection points: 5
#     Node 6, Type 0, BuildingBlock: XOMCOT_clean_sbu_1, # of connection points: 5
#     Node 7, Type 0, BuildingBlock: XOMCOT_clean_sbu_1, # of connection points: 5
#     Edge 8, Type (0, 0), BuildingBlock: CIFDUS_clean_linker_0, # of connection points: 2
#     Edge 9, Type (0, 0), BuildingBlock: CIFDUS_clean_linker_0, # of connection points: 2
#     Edge 10, Type (0, 0), BuildingBlock: CIFDUS_clean_linker_0, # of connection points: 2
#     Edge 11, Type (0, 0), BuildingBlock: CIFDUS_clean_linker_0, # of connection points: 2
#     Edge 12, Type (0, 0), BuildingBlock: CIFDUS_clean_linker_0, # of connection points: 2
#     Edge 13, Type (0, 0), BuildingBlock: CIFDUS_clean_linker_0, # of connection points: 2
#     Edge 14, Type (0, 0), BuildingBlock: CIFDUS_clean_linker_0, # of connection points: 2
#     Edge 15, Type (0, 0), BuildingBlock: CIFDUS_clean_linker_0, # of connection points: 2
#     Edge 16, Type (0, 0), BuildingBlock: CIFDUS_clean_linker_0, # of connection points: 2
#     Edge 17, Type (0, 0), BuildingBlock: CIFDUS_clean_linker_0, # of connection points: 2
#     Edge 18, Type (0, 0), BuildingBlock: CIFDUS_clean_linker_0, # of connection points: 2
#     Edge 19, Type (0, 0), BuildingBlock: CIFDUS_clean_linker_0, # of connection points: 2
#     Edge 20, Type (0, 0), BuildingBlock: CIFDUS_clean_linker_0, # of connection points: 2
#     Edge 21, Type (0, 0), BuildingBlock: CIFDUS_clean_linker_0, # of connection points: 2
#     Edge 22, Type (0, 0), BuildingBlock: CIFDUS_clean_linker_0, # of connection points: 2
#     Edge 23, Type (0, 0), BuildingBlock: CIFDUS_clean_linker_0, # of connection points: 2
#     Edge 24, Type (0, 0), BuildingBlock: CIFDUS_clean_linker_0, # of connection points: 2
#     Edge 25, Type (0, 0), BuildingBlock: CIFDUS_clean_linker_0, # of connection points: 2
#     Edge 26, Type (0, 0), BuildingBlock: CIFDUS_clean_linker_0, # of connection points: 2
#     Edge 27, Type (0, 0), BuildingBlock: CIFDUS_clean_linker_0, # of connection points: 2
# Relax obj value: 0.154
# Max RMSD: 0.179
# Mean RMSD: 0.179
data_MOF--net-noy--node1-XOMCOT_clean_sbu_1--edge1-CIFDUS_clean_linker_0
_symmetry_space_group_name_H-M    P1
_symmetry_Int_Tables_number       1
_symmetry_cell_setting            triclinic
loop_
_symmetry_equiv_pos_as_xyz
'x, y, z'
_cell_length_a     44.493587
_cell_length_b     40.912147
_cell_length_c     18.213215
_cell_angle_alpha  90.087214
_cell_angle_beta   90.042667
_cell_angle_gamma 89.892818
loop_
_atom_site_label
_atom_site_type_symbol
_atom_site_fract_x
_atom_site_fract_y
_atom_site_fract_z
_atom_type_partial_charge
C0 C 0.31088 0.39994 0.17709 0.0
C1 C 0.30803 0.42362 0.12447 0.0
N2 N 0.3059 0.45292 0.15802 0.0
N3 N 0.31044 0.41392 0.24403 0.0
C4 C 0.30754 0.44633 0.2309 0.0
H5 H 0.31414 0.37415 0.16701 0.0
Co6 Co 0.31628 0.38915 0.3282 0.0
C7 C 0.30681 0.43237 0.45805 0.0
O8 O 0.32806 0.41522 0.4901 0.0
N9 N 0.32222 0.36206 0.41187 0.0
C10 C 0.34013 0.32657 0.49388 0.0
C11 C 0.34702 0.3456 0.43395 0.0
C12 C 0.30057 0.35226 0.45917 0.0
N13 N 0.31086 0.33081 0.50978 0.0
O14 O 0.27749 0.36877 0.31145 0.0
H15 H 0.36876 0.34659 0.40801 0.0
H16 H 0.27742 0.36026 0.45537 0.0
O17 O 0.29911 0.42516 0.39175 0.0
C18 C 0.2827 0.34081 0.28217 0.0
O19 O 0.3108 0.33098 0.27824 0.0
N20 N 0.35538 0.40607 0.33437 0.0
C21 C 0.41538 0.42314 0.31408 0.0
C22 C 0.39571 0.44443 0.35063 0.0
C23 C 0.36539 0.43587 0.35819 0.0
C24 C 0.37414 0.38586 0.29639 0.0
C25 C 0.40421 0.39375 0.28606 0.0
H26 H 0.3502 0.45379 0.38061 0.0
H27 H 0.36549 0.36331 0.2737 0.0
H28 H 0.30729 0.46467 0.27374 0.0
H29 H 0.30894 0.41955 0.06579 0.0
H30 H 0.35552 0.3108 0.52332 0.0
H31 H 0.40352 0.46782 0.37098 0.0
H32 H 0.41871 0.37684 0.25691 0.0
C33 C 0.65687 0.64274 0.68024 0.0
C34 C 0.65807 0.62056 0.62337 0.0
N35 N 0.68007 0.59874 0.63777 0.0
N36 N 0.67786 0.63486 0.73056 0.0
C37 C 0.6919 0.60834 0.7027 0.0
H38 H 0.64099 0.66264 0.68595 0.0
Co39 Co 0.68387 0.65501 0.82141 0.0
C40 C 0.71625 0.60281 0.9108 0.0
O41 O 0.73286 0.62354 0.94803 0.0
N42 N 0.6897 0.67562 0.91327 0.0
C43 C 0.68684 0.68807 0.03223 0.0
C44 C 0.67843 0.66611 0.97872 0.0
C45 C 0.70479 0.7035 0.92861 0.0
N46 N 0.7035 0.71159 1.00065 0.0
O47 O 0.72324 0.66837 0.78828 0.0
H48 H 0.66513 0.64433 0.98722 0.0
H49 H 0.71644 0.71779 0.88773 0.0
O50 O 0.69811 0.61328 0.86165 0.0
C51 C 0.71816 0.69327 0.74756 0.0
O52 O 0.69059 0.70474 0.74404 0.0
N53 N 0.64438 0.64479 0.84679 0.0
C54 C 0.5822 0.63739 0.8466 0.0
C55 C 0.6011 0.60992 0.84306 0.0
C56 C 0.63232 0.61413 0.84347 0.0
C57 C 0.62637 0.67157 0.85294 0.0
C58 C 0.59523 0.66841 0.85386 0.0
H59 H 0.64661 0.59303 0.8356 0.0
H60 H 0.63623 0.69572 0.8526 0.0
H61 H 0.71023 0.59606 0.73028 0.0
H62 H 0.64295 0.6198 0.57686 0.0
H63 H 0.68186 0.68626 0.09025 0.0
H64 H 0.59185 0.58559 0.8371 0.0
H65 H 0.58151 0.6903 0.85524 0.0
C66 C 0.34008 0.64528 0.84171 0.0
C67 C 0.33807 0.62372 0.89914 0.0
N68 N 0.3162 0.60195 0.88398 0.0
N69 N 0.31968 0.63726 0.79006 0.0
C70 C 0.30536 0.61083 0.81735 0.0
H71 H 0.3559 0.6652 0.83706 0.0
Co72 Co 0.31551 0.65945 0.70092 0.0
C73 C 0.279 0.6145 0.60537 0.0
O74 O 0.26316 0.63891 0.57887 0.0
N75 N 0.31191 0.6825 0.61152 0.0
C76 C 0.31476 0.69755 0.49417 0.0
C77 C 0.32238 0.67383 0.54464 0.0
C78 C 0.29842 0.71171 0.60029 0.0
N79 N 0.29953 0.72136 0.52933 0.0
O80 O 0.27677 0.67578 0.73349 0.0
H81 H 0.33425 0.65133 0.53292 0.0
H82 H 0.28781 0.72574 0.64334 0.0
O83 O 0.29875 0.61992 0.6549 0.0
C84 C 0.2832 0.69917 0.7776 0.0
O85 O 0.3116 0.70735 0.78504 0.0
N86 N 0.35435 0.64641 0.67619 0.0
C87 C 0.41533 0.63337 0.69121 0.0
C88 C 0.39487 0.6077 0.6812 0.0
C89 C 0.36418 0.61474 0.67433 0.0
C90 C 0.37421 0.67161 0.67976 0.0
C91 C 0.40486 0.66563 0.68717 0.0
H92 H 0.34834 0.59476 0.67429 0.0
H93 H 0.36595 0.69644 0.6833 0.0
H94 H 0.28749 0.59828 0.78863 0.0
H95 H 0.35244 0.62349 0.94707 0.0
H96 H 0.31909 0.69667 0.43574 0.0
H97 H 0.4022 0.58248 0.68464 0.0
H98 H 0.42006 0.68607 0.6942 0.0
C99 C 0.68894 0.39002 0.36312 0.0
C100 C 0.68991 0.41451 0.41457 0.0
N101 N 0.69037 0.44347 0.37938 0.0
N102 N 0.68897 0.40327 0.29549 0.0
C103 C 0.68966 0.43592 0.30701 0.0
H104 H 0.6873 0.36417 0.37448 0.0
Co105 Co 0.68529 0.37899 0.20972 0.0
C106 C 0.7038 0.4236 0.0857 0.0
O107 O 0.68835 0.40569 0.03928 0.0
N108 N 0.68131 0.35297 0.12419 0.0
C109 C 0.66385 0.31951 0.0374 0.0
C110 C 0.65623 0.33924 0.09589 0.0
C111 C 0.70386 0.34084 0.08227 0.0
N112 N 0.69386 0.32061 0.0288 0.0
O113 O 0.72319 0.35772 0.23232 0.0
H114 H 0.63374 0.34266 0.1168 0.0
H115 H 0.72731 0.3464 0.09171 0.0
O116 O 0.70499 0.41513 0.1536 0.0
C117 C 0.71722 0.32984 0.26071 0.0
O118 O 0.68901 0.32032 0.26104 0.0
N119 N 0.64681 0.39692 0.19679 0.0
C120 C 0.5869 0.41611 0.20821 0.0
C121 C 0.60699 0.43409 0.16507 0.0
C122 C 0.6372 0.42447 0.16126 0.0
C123 C 0.62738 0.37938 0.23892 0.0
C124 C 0.5974 0.38854 0.24556 0.0
H125 H 0.65244 0.43987 0.13163 0.0
H126 H 0.63549 0.35815 0.26827 0.0
H127 H 0.68908 0.45376 0.26324 0.0
H128 H 0.68904 0.41117 0.47346 0.0
H129 H 0.64845 0.30551 1.00383 0.0
H130 H 0.59959 0.45582 0.13631 0.0
H131 H 0.58245 0.374 0.27918 0.0
C132 C 0.83907 0.88686 0.1858 0.0
C133 C 0.83763 0.90869 0.12831 0.0
N134 N 0.81681 0.93166 0.14417 0.0
N135 N 0.81932 0.89593 0.23809 0.0
C136 C 0.80577 0.9229 0.21058 0.0
H137 H 0.85467 0.86668 0.19098 0.0
Co138 Co 0.81619 0.87786 0.33291 0.0
C139 C 0.78125 0.93023 0.41371 0.0
O140 O 0.76375 0.90975 0.44899 0.0
N141 N 0.81336 0.86 0.4288 0.0
C142 C 0.81855 0.85578 0.54978 0.0
C143 C 0.82283 0.87549 0.48995 0.0
C144 C 0.80369 0.83049 0.45322 0.0
N145 N 0.8066 0.82718 0.52723 0.0
O146 O 0.77704 0.86145 0.30781 0.0
H147 H 0.83229 0.89982 0.4911 0.0
H148 H 0.79501 0.81174 0.41717 0.0
O149 O 0.80091 0.91947 0.36879 0.0
C150 C 0.78319 0.83566 0.27101 0.0
O151 O 0.81139 0.8261 0.26772 0.0
N152 N 0.85555 0.8909 0.3517 0.0
C153 C 0.91727 0.9016 0.34824 0.0
C154 C 0.89712 0.92787 0.34148 0.0
C155 C 0.86614 0.922 0.34354 0.0
C156 C 0.8748 0.86532 0.36044 0.0
C157 C 0.90573 0.87015 0.35971 0.0
H158 H 0.85084 0.94207 0.33386 0.0
H159 H 0.86605 0.84073 0.36409 0.0
H160 H 0.78869 0.93644 0.23986 0.0
H161 H 0.85214 0.90862 0.08067 0.0
H162 H 0.82355 0.8626 0.60582 0.0
H163 H 0.9052 0.95247 0.33224 0.0
H164 H 0.92045 0.84911 0.36359 0.0
C165 C 0.19051 0.15889 0.66646 0.0
C166 C 0.19154 0.13496 0.6134 0.0
N167 N 0.19183 0.10554 0.64672 0.0
N168 N 0.1903 0.14484 0.73326 0.0
C169 C 0.1911 0.11232 0.71954 0.0
H170 H 0.18901 0.18492 0.65685 0.0
Co171 Co 0.18599 0.16791 0.8213 0.0
C172 C 0.19763 0.11986 0.94073 0.0
O173 O 0.17853 0.13573 0.98268 0.0
N174 N 0.18167 0.19261 0.91021 0.0
C175 C 0.16442 0.22521 0.99926 0.0
C176 C 0.15675 0.20665 0.939 0.0
C177 C 0.20415 0.20311 0.95476 0.0
N178 N 0.19432 0.2231 1.00914 0.0
O179 O 0.22507 0.18674 0.80577 0.0
H180 H 0.13426 0.2043 0.91762 0.0
H181 H 0.22753 0.19697 0.94598 0.0
O182 O 0.20289 0.1303 0.87569 0.0
C183 C 0.22101 0.21552 0.78037 0.0
O184 O 0.19341 0.22703 0.77861 0.0
N185 N 0.14657 0.15222 0.82689 0.0
C186 C 0.08822 0.13518 0.78573 0.0
C187 C 0.10663 0.1127 0.82292 0.0
C188 C 0.1361 0.12154 0.84212 0.0
C189 C 0.12863 0.17433 0.79226 0.0
C190 C 0.09938 0.16657 0.77228 0.0
H191 H 0.15072 0.10297 0.8641 0.0
H192 H 0.13766 0.19792 0.77734 0.0
H193 H 0.19051 0.09397 0.76214 0.0
H194 H 0.19079 0.13903 0.55474 0.0
H195 H 0.14909 0.23925 0.03301 0.0
H196 H 0.09895 0.08802 0.83313 0.0
H197 H 0.0859 0.18481 0.74439 0.0
C198 C 0.81432 0.14136 0.8693 0.0
C199 C 0.81318 0.11704 0.92118 0.0
N200 N 0.81087 0.088 0.88652 0.0
N201 N 0.8126 0.12799 0.80184 0.0
C202 C 0.81062 0.09538 0.81399 0.0
H203 H 0.81711 0.16716 0.88011 0.0
Co204 Co 0.81574 0.15228 0.71527 0.0
C205 C 0.80084 0.10678 0.59322 0.0
O206 O 0.8196 0.12288 0.55107 0.0
N207 N 0.8189 0.17832 0.62799 0.0
C208 C 0.83509 0.2112 0.5386 0.0
C209 C 0.84352 0.19182 0.59681 0.0
C210 C 0.7958 0.19007 0.58694 0.0
N211 N 0.80498 0.21023 0.53239 0.0
O212 O 0.77751 0.1722 0.73682 0.0
H213 H 0.86639 0.18842 0.6148 0.0
H214 H 0.77249 0.18451 0.59816 0.0
O215 O 0.79683 0.11618 0.65969 0.0
C216 C 0.78289 0.20035 0.76432 0.0
O217 O 0.81093 0.21045 0.76548 0.0
N218 N 0.85456 0.13528 0.70328 0.0
C219 C 0.91428 0.11698 0.72294 0.0
C220 C 0.89372 0.09495 0.69229 0.0
C221 C 0.86361 0.10449 0.6836 0.0
C222 C 0.87436 0.15637 0.73502 0.0
C223 C 0.9044 0.14798 0.74411 0.0
H224 H 0.84769 0.08649 0.66497 0.0
H225 H 0.8665 0.17986 0.75449 0.0
H226 H 0.80948 0.0774 0.77052 0.0
H227 H 0.81511 0.1205 0.97991 0.0
H228 H 0.85011 0.22488 0.50351 0.0
H229 H 0.90068 0.07046 0.67721 0.0
H230 H 0.91969 0.1653 0.76923 0.0
C231 C 0.15885 0.90514 0.34729 0.0
C232 C 0.15986 0.92798 0.40274 0.0
N233 N 0.18145 0.94996 0.38686 0.0
N234 N 0.17961 0.91256 0.29616 0.0
C235 C 0.19326 0.93975 0.3222 0.0
H236 H 0.14322 0.885 0.34317 0.0
Co237 Co 0.18474 0.89066 0.20609 0.0
C238 C 0.21714 0.94161 0.11346 0.0
O239 O 0.23311 0.921 0.07415 0.0
N240 N 0.18956 0.86839 0.11551 0.0
C241 C 0.18661 0.85386 0.99765 0.0
C242 C 0.1784 0.87692 0.04924 0.0
C243 C 0.20425 0.83992 0.10265 0.0
N244 N 0.20301 0.83057 0.03132 0.0
O245 O 0.224 0.87646 0.23783 0.0
H246 H 0.16542 0.8988 0.03876 0.0
H247 H 0.21563 0.82612 0.14488 0.0
O248 O 0.19955 0.93104 0.16333 0.0
C249 C 0.21832 0.8527 0.28122 0.0
O250 O 0.19019 0.84352 0.28878 0.0
N251 N 0.14539 0.90172 0.18143 0.0
C252 C 0.08387 0.91171 0.19386 0.0
C253 C 0.10322 0.93834 0.18398 0.0
C254 C 0.1342 0.93283 0.1785 0.0
C255 C 0.12663 0.87555 0.18503 0.0
C256 C 0.09572 0.87999 0.19128 0.0
H257 H 0.14909 0.95362 0.17838 0.0
H258 H 0.13595 0.85118 0.18927 0.0
H259 H 0.21127 0.95205 0.29368 0.0
H260 H 0.14485 0.92904 0.4494 0.0
H261 H 0.1817 0.85478 0.93949 0.0
H262 H 0.09479 0.96317 0.18644 0.0
H263 H 0.08137 0.85887 0.19846 0.0
H264 H 0.4466 0.42706 0.18713 0.0
H265 H 0.45608 0.43528 0.42187 0.0
H266 H 0.51089 0.4372 0.4093 0.0
H267 H 0.5559 0.42957 0.33219 0.0
H268 H 0.54643 0.42224 0.0973 0.0
H269 H 0.49173 0.42737 0.10869 0.0
C270 C 0.46076 0.42991 0.23523 0.0
C271 C 0.4476 0.43073 0.30533 0.0
C272 C 0.49211 0.43088 0.22744 0.0
C273 C 0.46589 0.43469 0.36746 0.0
C274 C 0.49715 0.43554 0.36026 0.0
C275 C 0.54178 0.42972 0.28359 0.0
C276 C 0.55487 0.42523 0.2141 0.0
C277 C 0.51049 0.43262 0.29072 0.0
C278 C 0.53666 0.42572 0.15123 0.0
C279 C 0.50546 0.42844 0.15782 0.0
H280 H 0.55285 0.60207 0.74201 0.0
H281 H 0.53784 0.66746 0.92452 0.0
H282 H 0.48451 0.67072 0.89365 0.0
H283 H 0.44314 0.65854 0.80952 0.0
H284 H 0.45725 0.59337 0.62664 0.0
H285 H 0.50998 0.58604 0.66332 0.0
C286 C 0.53774 0.6164 0.77599 0.0
C287 C 0.54928 0.63466 0.83525 0.0
C288 C 0.50712 0.6185 0.75728 0.0
C289 C 0.52952 0.65345 0.87825 0.0
C290 C 0.49907 0.65537 0.86057 0.0
C291 C 0.45782 0.64275 0.77769 0.0
C292 C 0.44666 0.627 0.71471 0.0
C293 C 0.48783 0.63871 0.79915 0.0
C294 C 0.46554 0.60591 0.67499 0.0
C295 C 0.49561 0.60178 0.69593 0.0
H296 H 0.05713 0.88737 0.31395 0.0
H297 H 0.04028 0.94782 0.12481 0.0
H298 H 0.98718 0.95287 0.16016 0.0
H299 H 0.94502 0.93612 0.24006 0.0
H300 H 0.96289 0.87581 0.42939 0.0
H301 H 0.0163 0.87478 0.39908 0.0
C302 C 0.04177 0.90164 0.28052 0.0
C303 C 0.05224 0.91668 0.2162 0.0
C304 C 0.01159 0.90444 0.30133 0.0
C305 C 0.03249 0.93582 0.17422 0.0
C306 C 0.00222 0.93866 0.19443 0.0
C307 C 0.96074 0.92341 0.27557 0.0
C308 C 0.95002 0.90585 0.33661 0.0
C309 C 0.99143 0.92263 0.25731 0.0
C310 C 0.97058 0.88918 0.38168 0.0
C311 C 0.00108 0.88854 0.36435 0.0
H312 H 0.04306 0.10284 0.85692 0.0
H313 H 0.06584 0.14735 0.64974 0.0
H314 H 0.01419 0.14125 0.60751 0.0
H315 H 0.96126 0.13007 0.63553 0.0
H316 H 0.93757 0.08663 0.84247 0.0
H317 H 0.99074 0.08474 0.87835 0.0
C318 C 0.03679 0.11052 0.80203 0.0
C319 C 0.05805 0.12622 0.75723 0.0
C320 C 0.00684 0.10719 0.77814 0.0
C321 C 0.04967 0.13597 0.68603 0.0
C322 C 0.02017 0.13239 0.66165 0.0
C323 C 0.96799 0.11927 0.68741 0.0
C324 C 0.94593 0.10821 0.73617 0.0
C325 C 0.99837 0.11905 0.70809 0.0
C326 C 0.95448 0.09482 0.80392 0.0
C327 C 0.98478 0.09406 0.8246 0.0
H328 H 0.32497 0.59357 0.02989 0.0
H329 H 0.28962 0.54602 0.83644 0.0
H330 H 0.28039 0.49661 0.90724 0.0
H331 H 0.28574 0.46557 0.02122 0.0
H332 H 0.32468 0.51143 0.21239 0.0
H333 H 0.32876 0.56292 0.14547 0.0
C334 C 0.31537 0.57242 1.00291 0.0
C335 C 0.30834 0.57365 0.92738 0.0
C336 C 0.31077 0.5437 0.04362 0.0
C337 C 0.29512 0.5461 0.89429 0.0
C338 C 0.29001 0.51765 0.93473 0.0
C339 C 0.29527 0.48672 0.04838 0.0
C340 C 0.30531 0.4843 0.12163 0.0
C341 C 0.29831 0.51598 1.00898 0.0
C342 C 0.31668 0.51241 0.15633 0.0
C343 C 0.31925 0.54186 0.11781 0.0
H344 H 0.71043 0.45944 0.51418 0.0
H345 H 0.66822 0.49981 0.32114 0.0
H346 H 0.66316 0.5526 0.38287 0.0
H347 H 0.66806 0.58629 0.49444 0.0
H348 H 0.70757 0.54398 0.68921 0.0
H349 H 0.71634 0.49315 0.62389 0.0
C350 C 0.69995 0.47967 0.48557 0.0
C351 C 0.68943 0.4754 0.4133 0.0
C352 C 0.69658 0.50972 0.52183 0.0
C353 C 0.67668 0.50229 0.37656 0.0
C354 C 0.67358 0.53248 0.41208 0.0
C355 C 0.67849 0.56598 0.52281 0.0
C356 C 0.68697 0.56927 0.5971 0.0
C357 C 0.683 0.53632 0.48519 0.0
C358 C 0.70104 0.54266 0.63213 0.0
C359 C 0.7059 0.51331 0.59487 0.0
H360 H 0.73544 0.5736 0.03855 0.0
H361 H 0.69577 0.55223 0.82753 0.0
H362 H 0.69133 0.49481 0.86083 0.0
H363 H 0.69553 0.45129 0.95165 0.0
H364 H 0.73197 0.47197 0.16637 0.0
H365 H 0.74113 0.52873 0.12959 0.0
C366 C 0.72617 0.55629 0.99953 0.0
C367 C 0.71603 0.56741 0.93034 0.0
C368 C 0.72297 0.52311 0.01985 0.0
C369 C 0.70376 0.54457 0.88099 0.0
C370 C 0.70117 0.51163 0.90007 0.0
C371 C 0.7058 0.46798 0.99053 0.0
C372 C 0.713 0.4571 0.06195 0.0
C373 C 0.71025 0.50071 0.96965 0.0
C374 C 0.72622 0.47944 0.11108 0.0
C375 C 0.73134 0.51201 0.0901 0.0
H376 H 0.28049 0.48851 0.40062 0.0
H377 H 0.31116 0.44507 0.60323 0.0
H378 H 0.30435 0.49667 0.66704 0.0
H379 H 0.29398 0.55553 0.6645 0.0
H380 H 0.26111 0.59968 0.46527 0.0
H381 H 0.26427 0.54693 0.40197 0.0
C382 C 0.28505 0.49018 0.45898 0.0
C383 C 0.29673 0.46279 0.49647 0.0
C384 C 0.28104 0.52036 0.49627 0.0
C385 C 0.30254 0.46566 0.57231 0.0
C386 C 0.29871 0.49529 0.6092 0.0
C387 C 0.28717 0.55355 0.60745 0.0
C388 C 0.27752 0.58166 0.56978 0.0
C389 C 0.28873 0.52303 0.57149 0.0
C390 C 0.26855 0.57848 0.49592 0.0
C391 C 0.27047 0.54827 0.45945 0.0
H392 H 0.79249 0.07319 0.0237 0.0
H393 H 0.8295 0.03036 0.82691 0.0
H394 H 0.83289 0.97735 0.88812 0.0
H395 H 0.82778 0.94376 0.99989 0.0
H396 H 0.79275 0.98811 0.19759 0.0
H397 H 0.78616 0.03957 0.13359 0.0
C398 C 0.80146 0.05236 0.99411 0.0
C399 C 0.81097 0.05606 0.92079 0.0
C400 C 0.80375 0.02204 0.02997 0.0
C401 C 0.82182 0.0284 0.88307 0.0
C402 C 0.82396 0.99804 0.9183 0.0
C403 C 0.81877 0.96463 0.02921 0.0
C404 C 0.81096 0.96164 0.10408 0.0
C405 C 0.81538 0.99466 0.99214 0.0
C406 C 0.79877 0.9891 0.14019 0.0
C407 C 0.79514 1.01884 0.10362 0.0
H408 H 0.20982 0.09043 0.50882 0.0
H409 H 0.17076 0.04864 0.70414 0.0
H410 H 0.16592 0.99609 0.64205 0.0
H411 H 0.17054 0.96254 0.53054 0.0
H412 H 0.20718 1.00532 0.33346 0.0
H413 H 0.21523 0.05667 0.39812 0.0
C414 C 0.20008 0.06996 0.53789 0.0
C415 C 0.19053 0.07385 0.61124 0.0
C416 C 0.19688 0.03981 0.50142 0.0
C417 C 0.1786 0.04659 0.64812 0.0
C418 C 0.17561 1.01646 0.61238 0.0
C419 C 0.18016 0.98307 0.50143 0.0
C420 C 0.18804 0.97978 0.42673 0.0
C421 C 0.18432 1.01289 0.53874 0.0
C422 C 0.2011 1.0067 0.39084 0.0
C423 C 0.20554 0.0363 0.42776 0.0
H424 H 0.19004 0.09182 0.07424 0.0
H425 H 0.22893 0.07363 0.86109 0.0
H426 H 0.24071 1.01742 0.89748 0.0
H427 H 0.23625 0.97201 0.98721 0.0
H428 H 0.19536 0.99115 0.19789 0.0
H429 H 0.18834 0.0482 0.16518 0.0
C430 C 0.20136 0.07575 0.03571 0.0
C431 C 0.20834 0.08703 0.96473 0.0
C432 C 0.20762 0.04339 0.05657 0.0
C433 C 0.2232 0.06572 0.91603 0.0
C434 C 0.22986 0.03347 0.93677 0.0
C435 C 0.22621 0.98877 0.02632 0.0
C436 C 0.21629 0.97706 0.095 0.0
C437 C 0.22164 0.0218 1.00651 0.0
C438 C 0.20315 0.99923 0.14468 0.0
C439 C 0.19904 0.03199 0.12595 0.0
H440 H 0.80805 0.07987 0.45833 0.0
H441 H 0.76876 0.06056 0.67039 0.0
H442 H 0.75649 1.00483 0.63119 0.0
H443 H 0.76108 0.95999 0.53972 0.0
H444 H 0.80327 0.9799 0.33126 0.0
H445 H 0.81 0.03686 0.36587 0.0
C446 C 0.7965 0.06369 0.49601 0.0
C447 C 0.78957 0.07447 0.56751 0.0
C448 C 0.79014 0.03156 0.4737 0.0
C449 C 0.77445 0.05301 0.61509 0.0
C450 C 0.76753 1.02104 0.59275 0.0
C451 C 0.77127 0.97695 0.50147 0.0
C452 C 0.78163 0.96556 0.43282 0.0
C453 C 0.77585 1.00979 0.52263 0.0
C454 C 0.7951 0.98786 0.38432 0.0
C455 C 0.79905 1.02051 0.40417 0.0
H456 H 0.28906 0.2794 0.23055 0.0
H457 H 0.22476 0.35828 0.24245 0.0
H458 H 0.19083 0.32787 0.16068 0.0
H459 H 0.18155 0.28056 0.07803 0.0
H460 H 0.24748 0.20321 0.06553 0.0
H461 H 0.27897 0.23177 0.15428 0.0
C462 C 0.2675 0.28999 0.21601 0.0
C463 C 0.25957 0.32125 0.24259 0.0
C464 C 0.24863 0.27281 0.16777 0.0
C465 C 0.23141 0.33427 0.22328 0.0
C466 C 0.21214 0.31695 0.17598 0.0
C467 C 0.20262 0.26972 0.09536 0.0
C468 C 0.21217 0.23972 0.06429 0.0
C469 C 0.2208 0.28646 0.14667 0.0
C470 C 0.23975 0.22639 0.08716 0.0
C471 C 0.2577 0.24264 0.13843 0.0
H472 H 0.7662 0.73192 0.77988 0.0
H473 H 0.71719 0.68865 0.60075 0.0
H474 H 0.74194 0.72518 0.51367 0.0
H475 H 0.77201 0.77446 0.49124 0.0
H476 H 0.82189 0.81723 0.6709 0.0
H477 H 0.80233 0.77632 0.75392 0.0
C478 C 0.76198 0.72966 0.72142 0.0
C479 C 0.74038 0.70727 0.69645 0.0
C480 C 0.77575 0.75146 0.67169 0.0
C481 C 0.73425 0.7053 0.62087 0.0
C482 C 0.74809 0.7265 0.57118 0.0
C483 C 0.77912 0.77471 0.54808 0.0
C484 C 0.79782 0.80002 0.57413 0.0
C485 C 0.76804 0.75056 0.59629 0.0
C486 C 0.80673 0.79917 0.64859 0.0
C487 C 0.79574 0.7754 0.69664 0.0
H488 H 0.18722 0.79789 0.90669 0.0
H489 H 0.25409 0.80156 0.07852 0.0
H490 H 0.2825 0.75842 0.01836 0.0
H491 H 0.29089 0.72292 0.91289 0.0
H492 H 0.22579 0.71848 0.73803 0.0
H493 H 0.19396 0.7583 0.80359 0.0
C494 C 0.20797 0.78919 0.93099 0.0
C495 C 0.21846 0.80328 0.99724 0.0
C496 C 0.22451 0.76421 0.89554 0.0
C497 C 0.24518 0.79119 0.02835 0.0
C498 C 0.26162 0.76656 0.99365 0.0
C499 C 0.2695 0.73032 0.88946 0.0
C500 C 0.26072 0.71792 0.82062 0.0
C501 C 0.25179 0.75334 0.92681 0.0
C502 C 0.23288 0.72746 0.79125 0.0
C503 C 0.2149 0.75047 0.82846 0.0
H504 H 0.70851 0.27004 0.31964 0.0
H505 H 0.77596 0.345 0.2972 0.0
H506 H 0.80964 0.31391 0.37824 0.0
H507 H 0.81842 0.26687 0.46141 0.0
H508 H 0.74975 0.19312 0.48352 0.0
H509 H 0.7178 0.22279 0.39766 0.0
C510 C 0.73067 0.27965 0.33179 0.0
C511 C 0.73961 0.30998 0.30223 0.0
C512 C 0.74952 0.26203 0.37934 0.0
C513 C 0.76849 0.32174 0.31874 0.0
C514 C 0.78767 0.30402 0.36552 0.0
C515 C 0.79663 0.25704 0.4469 0.0
C516 C 0.78654 0.2277 0.47972 0.0
C517 C 0.77823 0.27434 0.39705 0.0
C518 C 0.75799 0.21575 0.46052 0.0
C519 C 0.73975 0.23263 0.41086 0.0
H520 H 0.6865 0.74339 0.12485 0.0
H521 H 0.75596 0.73909 0.95973 0.0
H522 H 0.78496 0.77991 0.02625 0.0
H523 H 0.79284 0.81311 0.13573 0.0
H524 H 0.72463 0.81854 0.30302 0.0
H525 H 0.69263 0.78121 0.23111 0.0
C526 C 0.70794 0.7515 0.10343 0.0
C527 C 0.71911 0.73789 0.03746 0.0
C528 C 0.72468 0.77509 0.14239 0.0
C529 C 0.74667 0.74917 1.00979 0.0
C530 C 0.76339 0.77241 0.0481 0.0
C531 C 0.77078 0.80642 0.15612 0.0
C532 C 0.76112 0.81822 0.22472 0.0
C533 C 0.7529 0.78501 0.11497 0.0
C534 C 0.73241 0.80982 0.25015 0.0
C535 C 0.71431 0.78829 0.2093 0.0
H536 H 0.21872 0.27885 0.74103 0.0
H537 H 0.27634 0.19404 0.73158 0.0
H538 H 0.31063 0.22331 0.6492 0.0
H539 H 0.32126 0.27132 0.5705 0.0
H540 H 0.262 0.35488 0.57914 0.0
H541 H 0.23097 0.32746 0.67031 0.0
C542 C 0.23897 0.26677 0.72175 0.0
C543 C 0.24485 0.23419 0.74209 0.0
C544 C 0.25797 0.28337 0.67315 0.0
C545 C 0.27133 0.21913 0.71707 0.0
C546 C 0.29078 0.23579 0.66942 0.0
C547 C 0.30181 0.28371 0.59309 0.0
C548 C 0.29379 0.31505 0.56712 0.0
C549 C 0.2839 0.26765 0.64561 0.0
C550 C 0.26835 0.33058 0.59677 0.0
C551 C 0.2507 0.31499 0.64937 0.0
H552 H 0.78909 0.26221 0.81252 0.0
H553 H 0.72529 0.183 0.80491 0.0
H554 H 0.69103 0.21424 0.88423 0.0
H555 H 0.68133 0.26252 0.96356 0.0
H556 H 0.74668 0.34029 0.97145 0.0
H557 H 0.77851 0.31079 0.88502 0.0
C558 C 0.76758 0.25173 0.82754 0.0
C559 C 0.75986 0.22017 0.8031 0.0
C560 C 0.7485 0.26942 0.87417 0.0
C561 C 0.73177 0.20725 0.82274 0.0
C562 C 0.71229 0.22504 0.86853 0.0
C563 C 0.70236 0.27317 0.94566 0.0
C564 C 0.71173 0.30351 0.97477 0.0
C565 C 0.72072 0.25591 0.89579 0.0
C566 C 0.73918 0.31678 0.95128 0.0
C567 C 0.75731 0.30001 0.90139 0.0
H568 H 0.2124 0.83074 0.41791 0.0
H569 H 0.27508 0.83322 0.23797 0.0
H570 H 0.30736 0.79335 0.30184 0.0
H571 H 0.31466 0.75379 0.40438 0.0
H572 H 0.2498 0.75173 0.58069 0.0
H573 H 0.22164 0.79557 0.52305 0.0
C574 C 0.23342 0.82296 0.39317 0.0
C575 C 0.24138 0.83471 0.32341 0.0
C576 C 0.25129 0.79984 0.42939 0.0
C577 C 0.2687 0.82471 0.29203 0.0
C578 C 0.2869 0.80166 0.32823 0.0
C579 C 0.29443 0.76303 0.43022 0.0
C580 C 0.28441 0.74918 0.49692 0.0
C581 C 0.27795 0.78834 0.39611 0.0
C582 C 0.25837 0.76192 0.5301 0.0
C583 C 0.24205 0.78695 0.49686 0.0
loop_
_geom_bond_atom_site_label_1
_geom_bond_atom_site_label_2
_geom_bond_distance
_geom_bond_site_symmetry_2
_ccdc_geom_bond_type
C0 C1 1.351 . S
C0 N3 1.368 . S
C0 H5 0.931 . S
C1 C0 1.351 . S
C1 N2 1.373 . S
C1 H29 0.930 . S
N2 C1 1.373 . S
N2 C4 1.340 . S
N3 C0 1.368 . S
N3 C4 1.321 . S
N3 Co6 2.135 . S
C4 N2 1.340 . S
C4 N3 1.321 . S
C4 H28 0.930 . S
H5 C0 0.931 . S
Co6 N3 2.135 . S
Co6 N9 2.121 . S
Co6 O14 2.055 . S
Co6 O17 2.039 . S
Co6 N20 2.140 . S
C7 O8 1.227 . S
C7 O17 1.265 . S
O8 C7 1.227 . S
N9 Co6 2.121 . S
N9 C11 1.375 . S
N9 C12 1.313 . S
C10 C11 1.338 . S
C10 N13 1.377 . S
C10 H30 0.930 . S
C11 N9 1.375 . S
C11 C10 1.338 . S
C11 H15 0.931 . S
C12 N9 1.313 . S
C12 N13 1.344 . S
C12 H16 0.930 . S
N13 C10 1.377 . S
N13 C12 1.344 . S
O14 Co6 2.055 . S
O14 C18 1.253 . S
H15 C11 0.931 . S
H16 C12 0.930 . S
O17 Co6 2.039 . S
O17 C7 1.265 . S
C18 O14 1.253 . S
C18 O19 1.227 . S
O19 C18 1.227 . S
N20 Co6 2.140 . S
N20 C23 1.346 . S
N20 C24 1.345 . S
C21 C22 1.387 . S
C21 C25 1.391 . S
C22 C21 1.387 . S
C22 C23 1.369 . S
C22 H31 0.929 . S
C23 N20 1.346 . S
C23 C22 1.369 . S
C23 H26 0.928 . S
C24 N20 1.345 . S
C24 C25 1.371 . S
C24 H27 0.931 . S
C25 C21 1.391 . S
C25 C24 1.371 . S
C25 H32 0.930 . S
H26 C23 0.928 . S
H27 C24 0.931 . S
H28 C4 0.930 . S
H29 C1 0.930 . S
H30 C10 0.930 . S
H31 C22 0.929 . S
H32 C25 0.930 . S
C33 C34 1.351 . S
C33 N36 1.368 . S
C33 H38 0.931 . S
C34 C33 1.351 . S
C34 N35 1.373 . S
C34 H62 0.930 . S
N35 C34 1.373 . S
N35 C37 1.340 . S
N36 C33 1.368 . S
N36 C37 1.321 . S
N36 Co39 2.135 . S
C37 N35 1.340 . S
C37 N36 1.321 . S
C37 H61 0.930 . S
H38 C33 0.931 . S
Co39 N36 2.135 . S
Co39 N42 2.121 . S
Co39 O47 2.055 . S
Co39 O50 2.039 . S
Co39 N53 2.140 . S
C40 O41 1.227 . S
C40 O50 1.265 . S
O41 C40 1.227 . S
N42 Co39 2.121 . S
N42 C44 1.375 . S
N42 C45 1.313 . S
C43 C44 1.338 . S
C43 N46 1.377 . S
C43 H63 0.930 1_556 S
C44 N42 1.375 . S
C44 C43 1.338 . S
C44 H48 0.931 . S
C45 N42 1.313 . S
C45 N46 1.344 . S
C45 H49 0.930 . S
N46 C43 1.377 . S
N46 C45 1.344 . S
O47 Co39 2.055 . S
O47 C51 1.253 . S
H48 C44 0.931 . S
H49 C45 0.930 . S
O50 Co39 2.039 . S
O50 C40 1.265 . S
C51 O47 1.253 . S
C51 O52 1.227 . S
O52 C51 1.227 . S
N53 Co39 2.140 . S
N53 C56 1.346 . S
N53 C57 1.345 . S
C54 C55 1.387 . S
C54 C58 1.391 . S
C55 C54 1.387 . S
C55 C56 1.369 . S
C55 H64 0.929 . S
C56 N53 1.346 . S
C56 C55 1.369 . S
C56 H59 0.928 . S
C57 N53 1.345 . S
C57 C58 1.371 . S
C57 H60 0.931 . S
C58 C54 1.391 . S
C58 C57 1.371 . S
C58 H65 0.930 . S
H59 C56 0.928 . S
H60 C57 0.931 . S
H61 C37 0.930 . S
H62 C34 0.930 . S
H63 C43 0.930 1_554 S
H64 C55 0.929 . S
H65 C58 0.930 . S
C66 C67 1.351 . S
C66 N69 1.368 . S
C66 H71 0.931 . S
C67 C66 1.351 . S
C67 N68 1.373 . S
C67 H95 0.930 . S
N68 C67 1.373 . S
N68 C70 1.340 . S
N69 C66 1.368 . S
N69 C70 1.321 . S
N69 Co72 2.135 . S
C70 N68 1.340 . S
C70 N69 1.321 . S
C70 H94 0.930 . S
H71 C66 0.931 . S
Co72 N69 2.135 . S
Co72 N75 2.121 . S
Co72 O80 2.055 . S
Co72 O83 2.039 . S
Co72 N86 2.140 . S
C73 O74 1.227 . S
C73 O83 1.265 . S
O74 C73 1.227 . S
N75 Co72 2.121 . S
N75 C77 1.375 . S
N75 C78 1.313 . S
C76 C77 1.338 . S
C76 N79 1.377 . S
C76 H96 0.930 . S
C77 N75 1.375 . S
C77 C76 1.338 . S
C77 H81 0.931 . S
C78 N75 1.313 . S
C78 N79 1.344 . S
C78 H82 0.930 . S
N79 C76 1.377 . S
N79 C78 1.344 . S
O80 Co72 2.055 . S
O80 C84 1.253 . S
H81 C77 0.931 . S
H82 C78 0.930 . S
O83 Co72 2.039 . S
O83 C73 1.265 . S
C84 O80 1.253 . S
C84 O85 1.227 . S
O85 C84 1.227 . S
N86 Co72 2.140 . S
N86 C89 1.346 . S
N86 C90 1.345 . S
C87 C88 1.387 . S
C87 C91 1.391 . S
C88 C87 1.387 . S
C88 C89 1.369 . S
C88 H97 0.929 . S
C89 N86 1.346 . S
C89 C88 1.369 . S
C89 H92 0.928 . S
C90 N86 1.345 . S
C90 C91 1.371 . S
C90 H93 0.931 . S
C91 C87 1.391 . S
C91 C90 1.371 . S
C91 H98 0.930 . S
H92 C89 0.928 . S
H93 C90 0.931 . S
H94 C70 0.930 . S
H95 C67 0.930 . S
H96 C76 0.930 . S
H97 C88 0.929 . S
H98 C91 0.930 . S
C99 C100 1.351 . S
C99 N102 1.368 . S
C99 H104 0.931 . S
C100 C99 1.351 . S
C100 N101 1.373 . S
C100 H128 0.930 . S
N101 C100 1.373 . S
N101 C103 1.340 . S
N102 C99 1.368 . S
N102 C103 1.321 . S
N102 Co105 2.135 . S
C103 N101 1.340 . S
C103 N102 1.321 . S
C103 H127 0.930 . S
H104 C99 0.931 . S
Co105 N102 2.135 . S
Co105 N108 2.121 . S
Co105 O113 2.055 . S
Co105 O116 2.039 . S
Co105 N119 2.140 . S
C106 O107 1.227 . S
C106 O116 1.265 . S
O107 C106 1.227 . S
N108 Co105 2.121 . S
N108 C110 1.375 . S
N108 C111 1.313 . S
C109 C110 1.338 . S
C109 N112 1.377 . S
C109 H129 0.930 1_554 S
C110 N108 1.375 . S
C110 C109 1.338 . S
C110 H114 0.931 . S
C111 N108 1.313 . S
C111 N112 1.344 . S
C111 H115 0.930 . S
N112 C109 1.377 . S
N112 C111 1.344 . S
O113 Co105 2.055 . S
O113 C117 1.253 . S
H114 C110 0.931 . S
H115 C111 0.930 . S
O116 Co105 2.039 . S
O116 C106 1.265 . S
C117 O113 1.253 . S
C117 O118 1.227 . S
O118 C117 1.227 . S
N119 Co105 2.140 . S
N119 C122 1.346 . S
N119 C123 1.345 . S
C120 C121 1.387 . S
C120 C124 1.391 . S
C121 C120 1.387 . S
C121 C122 1.369 . S
C121 H130 0.929 . S
C122 N119 1.346 . S
C122 C121 1.369 . S
C122 H125 0.928 . S
C123 N119 1.345 . S
C123 C124 1.371 . S
C123 H126 0.931 . S
C124 C120 1.391 . S
C124 C123 1.371 . S
C124 H131 0.930 . S
H125 C122 0.928 . S
H126 C123 0.931 . S
H127 C103 0.930 . S
H128 C100 0.930 . S
H129 C109 0.930 1_556 S
H130 C121 0.929 . S
H131 C124 0.930 . S
C132 C133 1.351 . S
C132 N135 1.368 . S
C132 H137 0.931 . S
C133 C132 1.351 . S
C133 N134 1.373 . S
C133 H161 0.930 . S
N134 C133 1.373 . S
N134 C136 1.340 . S
N135 C132 1.368 . S
N135 C136 1.321 . S
N135 Co138 2.135 . S
C136 N134 1.340 . S
C136 N135 1.321 . S
C136 H160 0.930 . S
H137 C132 0.931 . S
Co138 N135 2.135 . S
Co138 N141 2.121 . S
Co138 O146 2.055 . S
Co138 O149 2.039 . S
Co138 N152 2.140 . S
C139 O140 1.227 . S
C139 O149 1.265 . S
O140 C139 1.227 . S
N141 Co138 2.121 . S
N141 C143 1.375 . S
N141 C144 1.313 . S
C142 C143 1.338 . S
C142 N145 1.377 . S
C142 H162 0.930 . S
C143 N141 1.375 . S
C143 C142 1.338 . S
C143 H147 0.931 . S
C144 N141 1.313 . S
C144 N145 1.344 . S
C144 H148 0.930 . S
N145 C142 1.377 . S
N145 C144 1.344 . S
O146 Co138 2.055 . S
O146 C150 1.253 . S
H147 C143 0.931 . S
H148 C144 0.930 . S
O149 Co138 2.039 . S
O149 C139 1.265 . S
C150 O146 1.253 . S
C150 O151 1.227 . S
O151 C150 1.227 . S
N152 Co138 2.140 . S
N152 C155 1.346 . S
N152 C156 1.345 . S
C153 C154 1.387 . S
C153 C157 1.391 . S
C154 C153 1.387 . S
C154 C155 1.369 . S
C154 H163 0.929 . S
C155 N152 1.346 . S
C155 C154 1.369 . S
C155 H158 0.928 . S
C156 N152 1.345 . S
C156 C157 1.371 . S
C156 H159 0.931 . S
C157 C153 1.391 . S
C157 C156 1.371 . S
C157 H164 0.930 . S
H158 C155 0.928 . S
H159 C156 0.931 . S
H160 C136 0.930 . S
H161 C133 0.930 . S
H162 C142 0.930 . S
H163 C154 0.929 . S
H164 C157 0.930 . S
C165 C166 1.351 . S
C165 N168 1.368 . S
C165 H170 0.931 . S
C166 C165 1.351 . S
C166 N167 1.373 . S
C166 H194 0.930 . S
N167 C166 1.373 . S
N167 C169 1.340 . S
N168 C165 1.368 . S
N168 C169 1.321 . S
N168 Co171 2.135 . S
C169 N167 1.340 . S
C169 N168 1.321 . S
C169 H193 0.930 . S
H170 C165 0.931 . S
Co171 N168 2.135 . S
Co171 N174 2.121 . S
Co171 O179 2.055 . S
Co171 O182 2.039 . S
Co171 N185 2.140 . S
C172 O173 1.227 . S
C172 O182 1.265 . S
O173 C172 1.227 . S
N174 Co171 2.121 . S
N174 C176 1.375 . S
N174 C177 1.313 . S
C175 C176 1.338 . S
C175 N178 1.377 . S
C175 H195 0.930 1_556 S
C176 N174 1.375 . S
C176 C175 1.338 . S
C176 H180 0.931 . S
C177 N174 1.313 . S
C177 N178 1.344 . S
C177 H181 0.930 . S
N178 C175 1.377 . S
N178 C177 1.344 . S
O179 Co171 2.055 . S
O179 C183 1.253 . S
H180 C176 0.931 . S
H181 C177 0.930 . S
O182 Co171 2.039 . S
O182 C172 1.265 . S
C183 O179 1.253 . S
C183 O184 1.227 . S
O184 C183 1.227 . S
N185 Co171 2.140 . S
N185 C188 1.346 . S
N185 C189 1.345 . S
C186 C187 1.387 . S
C186 C190 1.391 . S
C187 C186 1.387 . S
C187 C188 1.369 . S
C187 H196 0.929 . S
C188 N185 1.346 . S
C188 C187 1.369 . S
C188 H191 0.928 . S
C189 N185 1.345 . S
C189 C190 1.371 . S
C189 H192 0.931 . S
C190 C186 1.391 . S
C190 C189 1.371 . S
C190 H197 0.930 . S
H191 C188 0.928 . S
H192 C189 0.931 . S
H193 C169 0.930 . S
H194 C166 0.930 . S
H195 C175 0.930 1_554 S
H196 C187 0.929 . S
H197 C190 0.930 . S
C198 C199 1.351 . S
C198 N201 1.368 . S
C198 H203 0.931 . S
C199 C198 1.351 . S
C199 N200 1.373 . S
C199 H227 0.930 . S
N200 C199 1.373 . S
N200 C202 1.340 . S
N201 C198 1.368 . S
N201 C202 1.321 . S
N201 Co204 2.135 . S
C202 N200 1.340 . S
C202 N201 1.321 . S
C202 H226 0.930 . S
H203 C198 0.931 . S
Co204 N201 2.135 . S
Co204 N207 2.121 . S
Co204 O212 2.055 . S
Co204 O215 2.039 . S
Co204 N218 2.140 . S
C205 O206 1.227 . S
C205 O215 1.265 . S
O206 C205 1.227 . S
N207 Co204 2.121 . S
N207 C209 1.375 . S
N207 C210 1.313 . S
C208 C209 1.338 . S
C208 N211 1.377 . S
C208 H228 0.930 . S
C209 N207 1.375 . S
C209 C208 1.338 . S
C209 H213 0.931 . S
C210 N207 1.313 . S
C210 N211 1.344 . S
C210 H214 0.930 . S
N211 C208 1.377 . S
N211 C210 1.344 . S
O212 Co204 2.055 . S
O212 C216 1.253 . S
H213 C209 0.931 . S
H214 C210 0.930 . S
O215 Co204 2.039 . S
O215 C205 1.265 . S
C216 O212 1.253 . S
C216 O217 1.227 . S
O217 C216 1.227 . S
N218 Co204 2.140 . S
N218 C221 1.346 . S
N218 C222 1.345 . S
C219 C220 1.387 . S
C219 C223 1.391 . S
C220 C219 1.387 . S
C220 C221 1.369 . S
C220 H229 0.929 . S
C221 N218 1.346 . S
C221 C220 1.369 . S
C221 H224 0.928 . S
C222 N218 1.345 . S
C222 C223 1.371 . S
C222 H225 0.931 . S
C223 C219 1.391 . S
C223 C222 1.371 . S
C223 H230 0.930 . S
H224 C221 0.928 . S
H225 C222 0.931 . S
H226 C202 0.930 . S
H227 C199 0.930 . S
H228 C208 0.930 . S
H229 C220 0.929 . S
H230 C223 0.930 . S
C231 C232 1.351 . S
C231 N234 1.368 . S
C231 H236 0.931 . S
C232 C231 1.351 . S
C232 N233 1.373 . S
C232 H260 0.930 . S
N233 C232 1.373 . S
N233 C235 1.340 . S
N234 C231 1.368 . S
N234 C235 1.321 . S
N234 Co237 2.135 . S
C235 N233 1.340 . S
C235 N234 1.321 . S
C235 H259 0.930 . S
H236 C231 0.931 . S
Co237 N234 2.135 . S
Co237 N240 2.121 . S
Co237 O245 2.055 . S
Co237 O248 2.039 . S
Co237 N251 2.140 . S
C238 O239 1.227 . S
C238 O248 1.265 . S
O239 C238 1.227 . S
N240 Co237 2.121 . S
N240 C242 1.375 . S
N240 C243 1.313 . S
C241 C242 1.338 . S
C241 N244 1.377 . S
C241 H261 0.930 1_554 S
C242 N240 1.375 . S
C242 C241 1.338 . S
C242 H246 0.931 . S
C243 N240 1.313 . S
C243 N244 1.344 . S
C243 H247 0.930 . S
N244 C241 1.377 . S
N244 C243 1.344 . S
O245 Co237 2.055 . S
O245 C249 1.253 . S
H246 C242 0.931 . S
H247 C243 0.930 . S
O248 Co237 2.039 . S
O248 C238 1.265 . S
C249 O245 1.253 . S
C249 O250 1.227 . S
O250 C249 1.227 . S
N251 Co237 2.140 . S
N251 C254 1.346 . S
N251 C255 1.345 . S
C252 C253 1.387 . S
C252 C256 1.391 . S
C253 C252 1.387 . S
C253 C254 1.369 . S
C253 H262 0.929 . S
C254 N251 1.346 . S
C254 C253 1.369 . S
C254 H257 0.928 . S
C255 N251 1.345 . S
C255 C256 1.371 . S
C255 H258 0.931 . S
C256 C252 1.391 . S
C256 C255 1.371 . S
C256 H263 0.930 . S
H257 C254 0.928 . S
H258 C255 0.931 . S
H259 C235 0.930 . S
H260 C232 0.930 . S
H261 C241 0.930 1_556 S
H262 C253 0.929 . S
H263 C256 0.930 . S
H264 C270 0.930 . S
H265 C273 0.930 . S
H266 C274 0.930 . S
H267 C275 0.930 . S
H268 C278 0.930 . S
H269 C279 0.930 . S
C270 H264 0.930 . S
C270 C271 1.355 . S
C270 C272 1.415 . S
C271 C270 1.355 . S
C271 C273 1.419 . S
C272 C270 1.415 . S
C272 C277 1.425 . S
C272 C279 1.409 . S
C273 H265 0.930 . S
C273 C271 1.419 . S
C273 C274 1.362 . S
C274 H266 0.930 . S
C274 C273 1.362 . S
C274 C277 1.409 . S
C275 H267 0.930 . S
C275 C276 1.355 . S
C275 C277 1.415 . S
C276 C275 1.355 . S
C276 C278 1.419 . S
C277 C272 1.425 . S
C277 C274 1.409 . S
C277 C275 1.415 . S
C278 H268 0.930 . S
C278 C276 1.419 . S
C278 C279 1.362 . S
C279 H269 0.930 . S
C279 C272 1.409 . S
C279 C278 1.362 . S
H280 C286 0.930 . S
H281 C289 0.930 . S
H282 C290 0.930 . S
H283 C291 0.930 . S
H284 C294 0.930 . S
H285 C295 0.930 . S
C286 H280 0.930 . S
C286 C287 1.355 . S
C286 C288 1.415 . S
C287 C286 1.355 . S
C287 C289 1.419 . S
C288 C286 1.415 . S
C288 C293 1.425 . S
C288 C295 1.409 . S
C289 H281 0.930 . S
C289 C287 1.419 . S
C289 C290 1.362 . S
C290 H282 0.930 . S
C290 C289 1.362 . S
C290 C293 1.409 . S
C291 H283 0.930 . S
C291 C292 1.355 . S
C291 C293 1.415 . S
C292 C291 1.355 . S
C292 C294 1.419 . S
C293 C288 1.425 . S
C293 C290 1.409 . S
C293 C291 1.415 . S
C294 H284 0.930 . S
C294 C292 1.419 . S
C294 C295 1.362 . S
C295 H285 0.930 . S
C295 C288 1.409 . S
C295 C294 1.362 . S
H296 C302 0.930 . S
H297 C305 0.930 . S
H298 C306 0.930 . S
H299 C307 0.930 . S
H300 C310 0.930 . S
H301 C311 0.930 . S
C302 H296 0.930 . S
C302 C303 1.355 . S
C302 C304 1.415 . S
C303 C302 1.355 . S
C303 C305 1.419 . S
C304 C302 1.415 . S
C304 C309 1.425 1_455 S
C304 C311 1.409 1_455 S
C305 H297 0.930 . S
C305 C303 1.419 . S
C305 C306 1.362 . S
C306 H298 0.930 . S
C306 C305 1.362 . S
C306 C309 1.409 1_455 S
C307 H299 0.930 . S
C307 C308 1.355 . S
C307 C309 1.415 . S
C308 C307 1.355 . S
C308 C310 1.419 . S
C309 C304 1.425 1_655 S
C309 C306 1.409 1_655 S
C309 C307 1.415 . S
C310 H300 0.930 . S
C310 C308 1.419 . S
C310 C311 1.362 . S
C311 H301 0.930 . S
C311 C304 1.409 1_655 S
C311 C310 1.362 . S
H312 C318 0.930 . S
H313 C321 0.930 . S
H314 C322 0.930 . S
H315 C323 0.930 . S
H316 C326 0.930 . S
H317 C327 0.930 . S
C318 H312 0.930 . S
C318 C319 1.355 . S
C318 C320 1.415 . S
C319 C318 1.355 . S
C319 C321 1.419 . S
C320 C318 1.415 . S
C320 C325 1.425 1_455 S
C320 C327 1.409 1_455 S
C321 H313 0.930 . S
C321 C319 1.419 . S
C321 C322 1.362 . S
C322 H314 0.930 . S
C322 C321 1.362 . S
C322 C325 1.409 1_455 S
C323 H315 0.930 . S
C323 C324 1.355 . S
C323 C325 1.415 . S
C324 C323 1.355 . S
C324 C326 1.419 . S
C325 C320 1.425 1_655 S
C325 C322 1.409 1_655 S
C325 C323 1.415 . S
C326 H316 0.930 . S
C326 C324 1.419 . S
C326 C327 1.362 . S
C327 H317 0.930 . S
C327 C320 1.409 1_655 S
C327 C326 1.362 . S
H328 C334 0.930 . S
H329 C337 0.930 . S
H330 C338 0.930 . S
H331 C339 0.930 . S
H332 C342 0.930 . S
H333 C343 0.930 . S
C334 H328 0.930 . S
C334 C335 1.355 . S
C334 C336 1.415 1_556 S
C335 C334 1.355 . S
C335 C337 1.419 . S
C336 C334 1.415 1_554 S
C336 C341 1.425 1_554 S
C336 C343 1.409 . S
C337 H329 0.930 . S
C337 C335 1.419 . S
C337 C338 1.362 . S
C338 H330 0.930 . S
C338 C337 1.362 . S
C338 C341 1.409 . S
C339 H331 0.930 . S
C339 C340 1.355 . S
C339 C341 1.415 1_554 S
C340 C339 1.355 . S
C340 C342 1.419 . S
C341 C336 1.425 1_556 S
C341 C338 1.409 . S
C341 C339 1.415 1_556 S
C342 H332 0.930 . S
C342 C340 1.419 . S
C342 C343 1.362 . S
C343 H333 0.930 . S
C343 C336 1.409 . S
C343 C342 1.362 . S
H344 C350 0.930 . S
H345 C353 0.930 . S
H346 C354 0.930 . S
H347 C355 0.930 . S
H348 C358 0.930 . S
H349 C359 0.930 . S
C350 H344 0.930 . S
C350 C351 1.355 . S
C350 C352 1.415 . S
C351 C350 1.355 . S
C351 C353 1.419 . S
C352 C350 1.415 . S
C352 C357 1.425 . S
C352 C359 1.409 . S
C353 H345 0.930 . S
C353 C351 1.419 . S
C353 C354 1.362 . S
C354 H346 0.930 . S
C354 C353 1.362 . S
C354 C357 1.409 . S
C355 H347 0.930 . S
C355 C356 1.355 . S
C355 C357 1.415 . S
C356 C355 1.355 . S
C356 C358 1.419 . S
C357 C352 1.425 . S
C357 C354 1.409 . S
C357 C355 1.415 . S
C358 H348 0.930 . S
C358 C356 1.419 . S
C358 C359 1.362 . S
C359 H349 0.930 . S
C359 C352 1.409 . S
C359 C358 1.362 . S
H360 C366 0.930 1_554 S
H361 C369 0.930 . S
H362 C370 0.930 . S
H363 C371 0.930 1_556 S
H364 C374 0.930 . S
H365 C375 0.930 . S
C366 H360 0.930 1_556 S
C366 C367 1.355 . S
C366 C368 1.415 1_556 S
C367 C366 1.355 . S
C367 C369 1.419 . S
C368 C366 1.415 1_554 S
C368 C373 1.425 1_554 S
C368 C375 1.409 . S
C369 H361 0.930 . S
C369 C367 1.419 . S
C369 C370 1.362 . S
C370 H362 0.930 . S
C370 C369 1.362 . S
C370 C373 1.409 . S
C371 H363 0.930 1_554 S
C371 C372 1.355 . S
C371 C373 1.415 1_554 S
C372 C371 1.355 . S
C372 C374 1.419 . S
C373 C368 1.425 1_556 S
C373 C370 1.409 . S
C373 C371 1.415 1_556 S
C374 H364 0.930 . S
C374 C372 1.419 . S
C374 C375 1.362 . S
C375 H365 0.930 . S
C375 C368 1.409 . S
C375 C374 1.362 . S
H376 C382 0.930 . S
H377 C385 0.930 . S
H378 C386 0.930 . S
H379 C387 0.930 . S
H380 C390 0.930 . S
H381 C391 0.930 . S
C382 H376 0.930 . S
C382 C383 1.355 . S
C382 C384 1.415 . S
C383 C382 1.355 . S
C383 C385 1.419 . S
C384 C382 1.415 . S
C384 C389 1.425 . S
C384 C391 1.409 . S
C385 H377 0.930 . S
C385 C383 1.419 . S
C385 C386 1.362 . S
C386 H378 0.930 . S
C386 C385 1.362 . S
C386 C389 1.409 . S
C387 H379 0.930 . S
C387 C388 1.355 . S
C387 C389 1.415 . S
C388 C387 1.355 . S
C388 C390 1.419 . S
C389 C384 1.425 . S
C389 C386 1.409 . S
C389 C387 1.415 . S
C390 H380 0.930 . S
C390 C388 1.419 . S
C390 C391 1.362 . S
C391 H381 0.930 . S
C391 C384 1.409 . S
C391 C390 1.362 . S
H392 C398 0.930 . S
H393 C401 0.930 . S
H394 C402 0.930 1_565 S
H395 C403 0.930 . S
H396 C406 0.930 . S
H397 C407 0.930 1_545 S
C398 H392 0.930 . S
C398 C399 1.355 . S
C398 C400 1.415 . S
C399 C398 1.355 . S
C399 C401 1.419 . S
C400 C398 1.415 . S
C400 C405 1.425 1_546 S
C400 C407 1.409 1_546 S
C401 H393 0.930 . S
C401 C399 1.419 . S
C401 C402 1.362 . S
C402 H394 0.930 1_545 S
C402 C401 1.362 . S
C402 C405 1.409 1_546 S
C403 H395 0.930 . S
C403 C404 1.355 . S
C403 C405 1.415 . S
C404 C403 1.355 . S
C404 C406 1.419 . S
C405 C400 1.425 1_564 S
C405 C402 1.409 1_564 S
C405 C403 1.415 . S
C406 H396 0.930 . S
C406 C404 1.419 . S
C406 C407 1.362 . S
C407 H397 0.930 1_565 S
C407 C400 1.409 1_564 S
C407 C406 1.362 . S
H408 C414 0.930 . S
H409 C417 0.930 . S
H410 C418 0.930 . S
H411 C419 0.930 . S
H412 C422 0.930 . S
H413 C423 0.930 . S
C414 H408 0.930 . S
C414 C415 1.355 . S
C414 C416 1.415 1_545 S
C415 C414 1.355 . S
C415 C417 1.419 . S
C416 C414 1.415 1_565 S
C416 C421 1.425 1_565 S
C416 C423 1.409 . S
C417 H409 0.930 . S
C417 C415 1.419 . S
C417 C418 1.362 . S
C418 H410 0.930 . S
C418 C417 1.362 . S
C418 C421 1.409 . S
C419 H411 0.930 . S
C419 C420 1.355 . S
C419 C421 1.415 1_565 S
C420 C419 1.355 . S
C420 C422 1.419 . S
C421 C416 1.425 1_545 S
C421 C418 1.409 . S
C421 C419 1.415 1_545 S
C422 H412 0.930 . S
C422 C420 1.419 . S
C422 C423 1.362 . S
C423 H413 0.930 . S
C423 C416 1.409 . S
C423 C422 1.362 . S
H424 C430 0.930 . S
H425 C433 0.930 . S
H426 C434 0.935 . S
H427 C435 0.930 . S
H428 C438 0.930 . S
H429 C439 0.935 . S
C430 H424 0.930 . S
C430 C431 1.355 . S
C430 C432 1.415 1_556 S
C431 C430 1.355 . S
C431 C433 1.419 . S
C432 C430 1.415 1_554 S
C432 C437 1.425 1_544 S
C432 C439 1.411 . S
C433 H425 0.930 . S
C433 C431 1.419 . S
C433 C434 1.356 1_545 S
C434 H426 0.935 . S
C434 C433 1.356 1_565 S
C434 C437 1.411 . S
C435 H427 0.930 . S
C435 C436 1.355 . S
C435 C437 1.415 1_554 S
C436 C435 1.355 . S
C436 C438 1.419 . S
C437 C432 1.425 1_566 S
C437 C434 1.411 . S
C437 C435 1.415 1_556 S
C438 H428 0.930 . S
C438 C436 1.419 . S
C438 C439 1.356 1_565 S
C439 H429 0.935 . S
C439 C432 1.411 . S
C439 C438 1.356 1_545 S
H440 C446 0.930 . S
H441 C449 0.930 . S
H442 C450 0.930 . S
H443 C451 0.930 . S
H444 C454 0.930 . S
H445 C455 0.930 . S
C446 H440 0.930 . S
C446 C447 1.355 . S
C446 C448 1.415 . S
C447 C446 1.355 . S
C447 C449 1.419 . S
C448 C446 1.415 . S
C448 C453 1.425 1_545 S
C448 C455 1.409 . S
C449 H441 0.930 . S
C449 C447 1.419 . S
C449 C450 1.362 1_545 S
C450 H442 0.930 . S
C450 C449 1.362 1_565 S
C450 C453 1.409 . S
C451 H443 0.930 . S
C451 C452 1.355 . S
C451 C453 1.415 . S
C452 C451 1.355 . S
C452 C454 1.419 . S
C453 C448 1.425 1_565 S
C453 C450 1.409 . S
C453 C451 1.415 . S
C454 H444 0.930 . S
C454 C452 1.419 . S
C454 C455 1.362 1_565 S
C455 H445 0.930 . S
C455 C448 1.409 . S
C455 C454 1.362 1_545 S
H456 C462 0.930 . S
H457 C465 0.930 . S
H458 C466 0.930 . S
H459 C467 0.930 . S
H460 C470 0.930 . S
H461 C471 0.930 . S
C462 H456 0.930 . S
C462 C463 1.355 . S
C462 C464 1.415 . S
C463 C462 1.355 . S
C463 C465 1.419 . S
C464 C462 1.415 . S
C464 C469 1.425 . S
C464 C471 1.409 . S
C465 H457 0.930 . S
C465 C463 1.419 . S
C465 C466 1.362 . S
C466 H458 0.930 . S
C466 C465 1.362 . S
C466 C469 1.409 . S
C467 H459 0.930 . S
C467 C468 1.355 . S
C467 C469 1.415 1_556 S
C468 C467 1.355 . S
C468 C470 1.419 1_556 S
C469 C464 1.425 . S
C469 C466 1.409 . S
C469 C467 1.415 1_554 S
C470 H460 0.930 . S
C470 C468 1.419 1_554 S
C470 C471 1.362 . S
C471 H461 0.930 . S
C471 C464 1.409 . S
C471 C470 1.362 . S
H472 C478 0.930 . S
H473 C481 0.930 . S
H474 C482 0.930 . S
H475 C483 0.930 . S
H476 C486 0.930 . S
H477 C487 0.930 . S
C478 H472 0.930 . S
C478 C479 1.355 . S
C478 C480 1.415 . S
C479 C478 1.355 . S
C479 C481 1.419 . S
C480 C478 1.415 . S
C480 C485 1.425 . S
C480 C487 1.409 . S
C481 H473 0.930 . S
C481 C479 1.419 . S
C481 C482 1.362 . S
C482 H474 0.930 . S
C482 C481 1.362 . S
C482 C485 1.409 . S
C483 H475 0.930 . S
C483 C484 1.355 . S
C483 C485 1.415 . S
C484 C483 1.355 . S
C484 C486 1.419 . S
C485 C480 1.425 . S
C485 C482 1.409 . S
C485 C483 1.415 . S
C486 H476 0.930 . S
C486 C484 1.419 . S
C486 C487 1.362 . S
C487 H477 0.930 . S
C487 C480 1.409 . S
C487 C486 1.362 . S
H488 C494 0.930 . S
H489 C497 0.930 . S
H490 C498 0.930 . S
H491 C499 0.930 . S
H492 C502 0.930 . S
H493 C503 0.930 . S
C494 H488 0.930 . S
C494 C495 1.355 1_556 S
C494 C496 1.415 . S
C495 C494 1.355 1_554 S
C495 C497 1.419 . S
C496 C494 1.415 . S
C496 C501 1.425 . S
C496 C503 1.409 . S
C497 H489 0.930 . S
C497 C495 1.419 . S
C497 C498 1.362 1_554 S
C498 H490 0.930 . S
C498 C497 1.362 1_556 S
C498 C501 1.409 . S
C499 H491 0.930 . S
C499 C500 1.355 . S
C499 C501 1.415 . S
C500 C499 1.355 . S
C500 C502 1.419 . S
C501 C496 1.425 . S
C501 C498 1.409 . S
C501 C499 1.415 . S
C502 H492 0.930 . S
C502 C500 1.419 . S
C502 C503 1.362 . S
C503 H493 0.930 . S
C503 C496 1.409 . S
C503 C502 1.362 . S
H504 C510 0.930 . S
H505 C513 0.930 . S
H506 C514 0.930 . S
H507 C515 0.930 . S
H508 C518 0.930 . S
H509 C519 0.930 . S
C510 H504 0.930 . S
C510 C511 1.355 . S
C510 C512 1.415 . S
C511 C510 1.355 . S
C511 C513 1.419 . S
C512 C510 1.415 . S
C512 C517 1.425 . S
C512 C519 1.409 . S
C513 H505 0.930 . S
C513 C511 1.419 . S
C513 C514 1.362 . S
C514 H506 0.930 . S
C514 C513 1.362 . S
C514 C517 1.409 . S
C515 H507 0.930 . S
C515 C516 1.355 . S
C515 C517 1.415 . S
C516 C515 1.355 . S
C516 C518 1.419 . S
C517 C512 1.425 . S
C517 C514 1.409 . S
C517 C515 1.415 . S
C518 H508 0.930 . S
C518 C516 1.419 . S
C518 C519 1.362 . S
C519 H509 0.930 . S
C519 C512 1.409 . S
C519 C518 1.362 . S
H520 C526 0.930 . S
H521 C529 0.930 . S
H522 C530 0.930 . S
H523 C531 0.930 . S
H524 C534 0.930 . S
H525 C535 0.930 . S
C526 H520 0.930 . S
C526 C527 1.355 . S
C526 C528 1.415 1_556 S
C527 C526 1.355 . S
C527 C529 1.419 1_556 S
C528 C526 1.415 1_554 S
C528 C533 1.425 . S
C528 C535 1.409 . S
C529 H521 0.930 . S
C529 C527 1.419 1_554 S
C529 C530 1.362 . S
C530 H522 0.930 . S
C530 C529 1.362 . S
C530 C533 1.409 . S
C531 H523 0.930 . S
C531 C532 1.355 . S
C531 C533 1.415 . S
C532 C531 1.355 . S
C532 C534 1.419 . S
C533 C528 1.425 . S
C533 C530 1.409 . S
C533 C531 1.415 . S
C534 H524 0.930 . S
C534 C532 1.419 . S
C534 C535 1.362 . S
C535 H525 0.930 . S
C535 C528 1.409 . S
C535 C534 1.362 . S
H536 C542 0.930 . S
H537 C545 0.930 . S
H538 C546 0.930 . S
H539 C547 0.930 . S
H540 C550 0.930 . S
H541 C551 0.930 . S
C542 H536 0.930 . S
C542 C543 1.355 . S
C542 C544 1.415 . S
C543 C542 1.355 . S
C543 C545 1.419 . S
C544 C542 1.415 . S
C544 C549 1.425 . S
C544 C551 1.409 . S
C545 H537 0.930 . S
C545 C543 1.419 . S
C545 C546 1.362 . S
C546 H538 0.930 . S
C546 C545 1.362 . S
C546 C549 1.409 . S
C547 H539 0.930 . S
C547 C548 1.355 . S
C547 C549 1.415 . S
C548 C547 1.355 . S
C548 C550 1.419 . S
C549 C544 1.425 . S
C549 C546 1.409 . S
C549 C547 1.415 . S
C550 H540 0.930 . S
C550 C548 1.419 . S
C550 C551 1.362 . S
C551 H541 0.930 . S
C551 C544 1.409 . S
C551 C550 1.362 . S
H552 C558 0.930 . S
H553 C561 0.930 . S
H554 C562 0.930 . S
H555 C563 0.930 . S
H556 C566 0.930 . S
H557 C567 0.930 . S
C558 H552 0.930 . S
C558 C559 1.355 . S
C558 C560 1.415 . S
C559 C558 1.355 . S
C559 C561 1.419 . S
C560 C558 1.415 . S
C560 C565 1.425 . S
C560 C567 1.409 1_556 S
C561 H553 0.930 . S
C561 C559 1.419 . S
C561 C562 1.362 . S
C562 H554 0.930 . S
C562 C561 1.362 . S
C562 C565 1.409 . S
C563 H555 0.930 . S
C563 C564 1.355 1_556 S
C563 C565 1.415 . S
C564 C563 1.355 1_554 S
C564 C566 1.419 . S
C565 C560 1.425 . S
C565 C562 1.409 . S
C565 C563 1.415 . S
C566 H556 0.930 . S
C566 C564 1.419 . S
C566 C567 1.362 . S
C567 H557 0.930 . S
C567 C560 1.409 1_554 S
C567 C566 1.362 . S
H568 C574 0.930 . S
H569 C577 0.930 . S
H570 C578 0.930 . S
H571 C579 0.930 . S
H572 C582 0.930 . S
H573 C583 0.930 . S
C574 H568 0.930 . S
C574 C575 1.355 . S
C574 C576 1.415 . S
C575 C574 1.355 . S
C575 C577 1.419 . S
C576 C574 1.415 . S
C576 C581 1.425 . S
C576 C583 1.409 . S
C577 H569 0.930 . S
C577 C575 1.419 . S
C577 C578 1.362 . S
C578 H570 0.930 . S
C578 C577 1.362 . S
C578 C581 1.409 . S
C579 H571 0.930 . S
C579 C580 1.355 . S
C579 C581 1.415 . S
C580 C579 1.355 . S
C580 C582 1.419 . S
C581 C576 1.425 . S
C581 C578 1.409 . S
C581 C579 1.415 . S
C582 H572 0.930 . S
C582 C580 1.419 . S
C582 C583 1.362 . S
C583 H573 0.930 . S
C583 C576 1.409 . S
C583 C582 1.362 . S
C271 C21 1.526 . S
C276 C120 1.521 . S
C287 C54 1.527 . S
C292 C87 1.514 . S
C303 C252 1.514 . S
C308 C153 1.527 . S
C319 C186 1.498 . S
C324 C219 1.497 . S
C335 N68 1.145 . S
C340 N2 1.155 . S
C351 N101 1.156 . S
C356 N35 1.135 . S
C367 C40 1.589 . S
C372 C106 1.594 . S
C383 C7 1.608 . S
C388 C73 1.622 . S
C399 N200 1.130 . S
C404 N134 1.085 . S
C415 N167 1.067 . S
C420 N233 1.106 . S
C431 C172 1.623 . S
C436 C238 1.575 . S
C447 C205 1.595 . S
C452 C139 1.588 . S
C463 C18 1.392 . S
C468 N178 1.393 . S
C479 C51 1.392 . S
C484 N145 1.403 . S
C495 N244 1.398 . S
C500 C84 1.433 . S
C511 C117 1.412 . S
C516 N211 1.425 . S
C527 N46 1.369 . S
C532 C150 1.430 . S
C543 C183 1.409 . S
C548 N13 1.425 . S
C559 C216 1.434 . S
C564 N112 1.394 . S
C575 C249 1.396 . S
C580 N79 1.417 . S
