# Generated by pormake.
# Topology wfa, (4)-cn, num edge types: 1
# Building blocks:
#     Node 0, Type 0, BuildingBlock: ESEHIV_clean_sbu_0, # of connection points: 4
#     Node 1, Type 0, BuildingBlock: ESEHIV_clean_sbu_0, # of connection points: 4
#     Node 2, Type 0, BuildingBlock: ESEHIV_clean_sbu_0, # of connection points: 4
#     Node 3, Type 0, BuildingBlock: ESEHIV_clean_sbu_0, # of connection points: 4
#     Node 4, Type 0, BuildingBlock: ESEHIV_clean_sbu_0, # of connection points: 4
#     Node 5, Type 0, BuildingBlock: ESEHIV_clean_sbu_0, # of connection points: 4
#     Node 6, Type 0, BuildingBlock: ESEHIV_clean_sbu_0, # of connection points: 4
#     Node 7, Type 0, BuildingBlock: ESEHIV_clean_sbu_0, # of connection points: 4
#     Node 8, Type 0, BuildingBlock: ESEHIV_clean_sbu_0, # of connection points: 4
#     Node 9, Type 0, BuildingBlock: ESEHIV_clean_sbu_0, # of connection points: 4
#     Node 10, Type 0, BuildingBlock: ESEHIV_clean_sbu_0, # of connection points: 4
#     Node 11, Type 0, BuildingBlock: ESEHIV_clean_sbu_0, # of connection points: 4
#     Node 12, Type 0, BuildingBlock: ESEHIV_clean_sbu_0, # of connection points: 4
#     Node 13, Type 0, BuildingBlock: ESEHIV_clean_sbu_0, # of connection points: 4
#     Node 14, Type 0, BuildingBlock: ESEHIV_clean_sbu_0, # of connection points: 4
#     Node 15, Type 0, BuildingBlock: ESEHIV_clean_sbu_0, # of connection points: 4
#     Edge 16, Type (0, 0), BuildingBlock: XUDNAN_clean_linker_2, # of connection points: 2
#     Edge 17, Type (0, 0), BuildingBlock: XUDNAN_clean_linker_2, # of connection points: 2
#     Edge 18, Type (0, 0), BuildingBlock: XUDNAN_clean_linker_2, # of connection points: 2
#     Edge 19, Type (0, 0), BuildingBlock: XUDNAN_clean_linker_2, # of connection points: 2
#     Edge 20, Type (0, 0), BuildingBlock: XUDNAN_clean_linker_2, # of connection points: 2
#     Edge 21, Type (0, 0), BuildingBlock: XUDNAN_clean_linker_2, # of connection points: 2
#     Edge 22, Type (0, 0), BuildingBlock: XUDNAN_clean_linker_2, # of connection points: 2
#     Edge 23, Type (0, 0), BuildingBlock: XUDNAN_clean_linker_2, # of connection points: 2
#     Edge 24, Type (0, 0), BuildingBlock: XUDNAN_clean_linker_2, # of connection points: 2
#     Edge 25, Type (0, 0), BuildingBlock: XUDNAN_clean_linker_2, # of connection points: 2
#     Edge 26, Type (0, 0), BuildingBlock: XUDNAN_clean_linker_2, # of connection points: 2
#     Edge 27, Type (0, 0), BuildingBlock: XUDNAN_clean_linker_2, # of connection points: 2
#     Edge 28, Type (0, 0), BuildingBlock: XUDNAN_clean_linker_2, # of connection points: 2
#     Edge 29, Type (0, 0), BuildingBlock: XUDNAN_clean_linker_2, # of connection points: 2
#     Edge 30, Type (0, 0), BuildingBlock: XUDNAN_clean_linker_2, # of connection points: 2
#     Edge 31, Type (0, 0), BuildingBlock: XUDNAN_clean_linker_2, # of connection points: 2
#     Edge 32, Type (0, 0), BuildingBlock: XUDNAN_clean_linker_2, # of connection points: 2
#     Edge 33, Type (0, 0), BuildingBlock: XUDNAN_clean_linker_2, # of connection points: 2
#     Edge 34, Type (0, 0), BuildingBlock: XUDNAN_clean_linker_2, # of connection points: 2
#     Edge 35, Type (0, 0), BuildingBlock: XUDNAN_clean_linker_2, # of connection points: 2
#     Edge 36, Type (0, 0), BuildingBlock: XUDNAN_clean_linker_2, # of connection points: 2
#     Edge 37, Type (0, 0), BuildingBlock: XUDNAN_clean_linker_2, # of connection points: 2
#     Edge 38, Type (0, 0), BuildingBlock: XUDNAN_clean_linker_2, # of connection points: 2
#     Edge 39, Type (0, 0), BuildingBlock: XUDNAN_clean_linker_2, # of connection points: 2
#     Edge 40, Type (0, 0), BuildingBlock: XUDNAN_clean_linker_2, # of connection points: 2
#     Edge 41, Type (0, 0), BuildingBlock: XUDNAN_clean_linker_2, # of connection points: 2
#     Edge 42, Type (0, 0), BuildingBlock: XUDNAN_clean_linker_2, # of connection points: 2
#     Edge 43, Type (0, 0), BuildingBlock: XUDNAN_clean_linker_2, # of connection points: 2
#     Edge 44, Type (0, 0), BuildingBlock: XUDNAN_clean_linker_2, # of connection points: 2
#     Edge 45, Type (0, 0), BuildingBlock: XUDNAN_clean_linker_2, # of connection points: 2
#     Edge 46, Type (0, 0), BuildingBlock: XUDNAN_clean_linker_2, # of connection points: 2
#     Edge 47, Type (0, 0), BuildingBlock: XUDNAN_clean_linker_2, # of connection points: 2
# Relax obj value: 0.146
# Max RMSD: 0.163
# Mean RMSD: 0.152
data_MOF--net-wfa--node1-ESEHIV_clean_sbu_0--edge1-XUDNAN_clean_linker_2
_symmetry_space_group_name_H-M    P1
_symmetry_Int_Tables_number       1
_symmetry_cell_setting            triclinic
loop_
_symmetry_equiv_pos_as_xyz
'x, y, z'
_cell_length_a     53.202566
_cell_length_b     53.03134
_cell_length_c     23.078834
_cell_angle_alpha  88.487928
_cell_angle_beta   88.465716
_cell_angle_gamma 88.750012
loop_
_atom_site_label
_atom_site_type_symbol
_atom_site_fract_x
_atom_site_fract_y
_atom_site_fract_z
_atom_type_partial_charge
Cu0 Cu 0.65192 0.06639 0.00909 0.0
N1 N 0.63328 0.04091 0.04641 0.0
N2 N 0.60025 0.02635 0.09834 0.0
C3 C 0.61199 0.04682 0.07615 0.0
C4 C 0.61506 1.00652 0.08264 0.0
C5 C 0.63543 0.01558 0.05016 0.0
O6 O 0.62435 0.08921 0.98459 0.0
C7 C 0.69116 0.06198 0.08363 0.0
O8 O 0.69031 0.0393 0.06225 0.0
H9 H 0.60541 0.06607 0.08188 0.0
H10 H 0.65054 1.00449 0.03065 0.0
N11 N 0.67143 0.05564 0.9446 0.0
N12 N 0.70056 0.05572 0.87237 0.0
C13 C 0.69038 0.06835 0.91782 0.0
C14 C 0.66974 0.03412 0.91549 0.0
C15 C 0.68754 0.03417 0.87091 0.0
C16 C 0.61027 0.0802 0.94646 0.0
O17 O 0.6185 0.06022 0.91874 0.0
H18 H 0.6963 0.0867 0.93092 0.0
H19 H 0.65636 0.01949 0.92564 0.0
O20 O 0.67521 0.07866 0.06607 0.0
H21 H 0.61131 0.98693 0.09318 0.0
H22 H 0.69078 0.01932 0.84012 0.0
Cu23 Cu 0.52972 0.62634 0.0657 0.0
N24 N 0.55804 0.61255 0.10354 0.0
N25 N 0.56577 0.58305 0.17305 0.0
C26 C 0.55794 0.58781 0.11875 0.0
C27 C 0.5733 0.60551 0.19132 0.0
C28 C 0.56884 0.62354 0.14837 0.0
O29 O 0.50985 0.59575 0.05236 0.0
C30 C 0.5268 0.67204 0.12496 0.0
O31 O 0.54538 0.67666 0.08782 0.0
H32 H 0.54738 0.57426 0.09626 0.0
H33 H 0.56907 0.64363 0.15465 0.0
N34 N 0.53694 0.64372 0.99497 0.0
N35 N 0.53329 0.67142 0.92003 0.0
C36 C 0.52274 0.66232 0.97018 0.0
C37 C 0.5572 0.64102 0.95943 0.0
C38 C 0.55497 0.65794 0.91321 0.0
C39 C 0.51608 0.58051 0.01173 0.0
O40 O 0.53152 0.5884 0.97011 0.0
H41 H 0.50501 0.66903 0.98875 0.0
H42 H 0.57262 0.6278 0.96688 0.0
O43 O 0.51538 0.65109 0.12145 0.0
H44 H 0.57751 0.60942 0.2358 0.0
H45 H 0.56861 0.66049 0.87803 0.0
Cu46 Cu 0.88715 0.50119 1.008 0.0
N47 N 0.90308 0.52375 0.05471 0.0
N48 N 0.93097 0.53299 0.12138 0.0
C49 C 0.92192 0.51513 0.0878 0.0
C50 C 0.91689 0.55393 0.10954 0.0
C51 C 0.89967 0.54819 0.06791 0.0
O52 O 0.91686 0.48075 0.98305 0.0
C53 C 0.84428 0.49938 0.07842 0.0
O54 O 0.84268 0.52237 0.05596 0.0
H55 H 0.92804 0.49554 0.08909 0.0
H56 H 0.88538 0.56068 0.04993 0.0
N57 N 0.87023 0.51711 0.94517 0.0
N58 N 0.84129 0.52671 0.87814 0.0
C59 C 0.84994 0.50912 0.91692 0.0
C60 C 0.87455 0.54038 0.92309 0.0
C61 C 0.85688 0.54631 0.88203 0.0
C62 C 0.93398 0.49275 0.95437 0.0
O63 O 0.92813 0.51518 0.93259 0.0
H64 H 0.84105 0.49126 0.92643 0.0
H65 H 0.88921 0.55251 0.93695 0.0
O66 O 0.86249 0.48503 0.06138 0.0
H67 H 0.91858 0.5719 0.13011 0.0
H68 H 0.85549 0.56389 0.85731 0.0
Cu69 Cu 0.99409 0.87663 0.05825 0.0
N70 N 0.02877 0.87598 0.0664 0.0
N71 N 0.06538 0.883 0.10743 0.0
C72 C 0.04112 0.89047 0.1026 0.0
C73 C 0.06846 0.86307 0.07254 0.0
C74 C 0.04579 0.8588 0.04714 0.0
O75 O 0.98279 0.91238 0.0622 0.0
C76 C 0.9826 0.8604 0.17505 0.0
O77 O 0.99068 0.88269 0.18838 0.0
H78 H 0.032 0.90508 0.12801 0.0
H79 H 0.04166 0.84347 0.01914 0.0
N80 N 0.98609 0.86145 0.98853 0.0
N81 N 0.97949 0.83107 0.92484 0.0
C82 C 0.98685 0.83644 0.97885 0.0
C83 C 0.97796 0.87237 0.93902 0.0
C84 C 0.97394 0.85375 0.89972 0.0
C85 C 0.99275 0.92919 0.02859 0.0
O86 O 1.00931 0.92197 0.98881 0.0
H87 H 0.99283 0.82252 0.01101 0.0
H88 H 0.97484 0.89243 0.93217 0.0
O89 O 0.98108 0.85501 0.12182 0.0
H90 H 0.08558 0.85187 0.06734 0.0
H91 H 0.9669 0.85675 0.85647 0.0
Cu92 Cu 0.15934 0.04217 0.46419 0.0
N93 N 0.15498 1.00774 0.45387 0.0
N94 N 0.14761 0.97181 0.40976 0.0
C95 C 0.15097 0.99683 0.40309 0.0
C96 C 0.15008 0.9666 0.46687 0.0
C97 C 0.15461 0.98888 0.49407 0.0
O98 O 0.12523 0.05827 0.46706 0.0
C99 C 0.20155 0.04051 0.38999 0.0
O100 O 0.20629 0.02106 0.42474 0.0
H101 H 0.15037 1.00709 0.36196 0.0
H102 H 0.15699 0.99125 0.53998 0.0
N103 N 0.17466 0.04598 0.53619 0.0
N104 N 0.20263 0.0475 0.60727 0.0
C105 C 0.19922 0.04783 0.5492 0.0
C106 C 0.16226 0.04472 0.5877 0.0
C107 C 0.17933 0.04562 0.63137 0.0
C108 C 0.10798 0.05278 0.43219 0.0
O109 O 0.11383 0.0383 0.3884 0.0
H110 H 0.21435 0.04854 0.517 0.0
H111 H 0.14215 0.04259 0.59305 0.0
O112 O 0.18156 0.05373 0.39964 0.0
H113 H 0.14783 0.94822 0.48766 0.0
H114 H 0.1749 0.04481 0.67742 0.0
Cu115 Cu 0.51653 0.12666 0.47335 0.0
N116 N 0.48848 0.1142 0.43597 0.0
N117 N 0.47796 0.0889 0.3641 0.0
C118 C 0.49017 0.0909 0.41407 0.0
C119 C 0.46678 0.11173 0.3554 0.0
C120 C 0.47319 0.12722 0.39978 0.0
O121 O 0.5374 0.09572 0.48535 0.0
C122 C 0.51858 0.17289 0.41265 0.0
O123 O 0.50004 0.17766 0.44975 0.0
H124 H 0.50404 0.07711 0.42755 0.0
H125 H 0.47008 0.14741 0.40005 0.0
N126 N 0.50916 0.14294 0.54401 0.0
N127 N 0.51161 0.17009 0.61697 0.0
C128 C 0.52237 0.16161 0.56704 0.0
C129 C 0.48935 0.13952 0.58059 0.0
C130 C 0.49086 0.15608 0.62555 0.0
C131 C 0.52985 0.07877 0.52206 0.0
O132 O 0.51256 0.08519 0.56092 0.0
H133 H 0.53944 0.16894 0.54713 0.0
H134 H 0.47462 0.12618 0.57449 0.0
O135 O 0.53031 0.15164 0.41703 0.0
H136 H 0.45744 0.1178 0.31618 0.0
H137 H 0.47725 0.15811 0.66089 0.0
Cu138 Cu 0.39322 0.5075 0.46999 0.0
N139 N 0.4116 0.48194 0.43199 0.0
N140 N 0.44643 0.47436 0.37758 0.0
C141 C 0.43692 0.4825 0.42863 0.0
C142 C 0.42628 0.46693 0.34874 0.0
C143 C 0.40491 0.47144 0.38237 0.0
O144 O 0.41975 0.53224 0.48294 0.0
C145 C 0.34819 0.50539 0.40856 0.0
O146 O 0.34657 0.48423 0.43921 0.0
H147 H 0.44786 0.49301 0.45789 0.0
H148 H 0.38592 0.47121 0.36701 0.0
N149 N 0.37766 0.49574 0.53971 0.0
N150 N 0.34893 0.48993 0.61164 0.0
C151 C 0.35484 0.50276 0.56181 0.0
C152 C 0.38638 0.4778 0.57676 0.0
C153 C 0.36884 0.47431 0.62128 0.0
C154 C 0.43395 0.53092 0.52693 0.0
O155 O 0.42662 0.51751 0.57268 0.0
H156 H 0.34276 0.5169 0.54152 0.0
H157 H 0.40418 0.46776 0.57139 0.0
O158 O 0.36704 0.51943 0.41593 0.0
H159 H 0.42655 0.46256 0.30315 0.0
H160 H 0.37032 0.46082 0.6571 0.0
Cu161 Cu 0.97627 0.3869 0.52109 0.0
N162 N 0.99941 0.40392 0.47236 0.0
N163 N 1.01108 0.43459 0.40941 0.0
C164 C 0.99447 0.42733 0.45117 0.0
C165 C 0.02716 0.41476 0.40305 0.0
C166 C 0.01999 0.39584 0.44237 0.0
O167 O 0.9555 0.41534 0.55081 0.0
C168 C 0.97226 0.34378 0.4551 0.0
O169 O 0.99437 0.33953 0.47787 0.0
H170 H 0.97763 0.4381 0.46235 0.0
H171 H 0.02826 0.37708 0.44623 0.0
N172 N 0.99194 0.36841 0.58199 0.0
N173 N 1.00045 0.33876 0.65075 0.0
C174 C 0.98291 0.34884 0.61477 0.0
C175 C 0.01583 0.37082 0.59817 0.0
C176 C 0.02111 0.35272 0.64031 0.0
C177 C 0.96715 0.43196 0.5785 0.0
O178 O 0.99006 0.42635 0.59516 0.0
H179 H 0.96423 0.34153 0.61064 0.0
H180 H 0.02872 0.38451 0.57963 0.0
O181 O 0.95965 0.36349 0.47002 0.0
H182 H 0.04224 0.41362 0.37074 0.0
H183 H 0.03892 0.34998 0.6614 0.0
Cu184 Cu 0.38424 0.03581 0.95068 0.0
N185 N 0.39616 1.00234 0.94348 0.0
N186 N 0.42131 0.96864 0.92689 0.0
C187 C 0.41827 0.99394 0.92021 0.0
C188 C 0.40031 0.96085 0.95551 0.0
C189 C 0.38491 0.98161 0.96568 0.0
O190 O 0.41385 0.05731 0.95233 0.0
C191 C 0.34123 0.03266 0.88124 0.0
O192 O 0.33576 1.01447 0.91892 0.0
H193 H 0.43226 1.00611 0.90047 0.0
H194 H 0.36692 0.98167 0.98866 0.0
N195 N 0.36751 0.03799 0.02348 0.0
N196 N 0.33915 0.04117 0.09702 0.0
C197 C 0.34322 0.04328 0.03878 0.0
C198 C 0.37903 0.03271 0.0736 0.0
C199 C 0.36176 0.03463 0.11872 0.0
C200 C 0.42945 0.06028 0.9099 0.0
O201 O 0.4244 0.05077 0.85962 0.0
H202 H 0.32876 0.04793 1.00796 0.0
H203 H 0.39872 0.02747 0.0769 0.0
O204 O 0.36153 0.04468 0.88696 0.0
H205 H 0.39628 0.94152 0.96806 0.0
H206 H 0.36564 0.0315 0.16417 0.0
Cu207 Cu 0.51513 0.34642 0.95826 0.0
N208 N 0.49079 0.35622 0.90537 0.0
N209 N 0.49076 0.36886 0.81187 0.0
C210 C 0.49873 0.37338 0.8655 0.0
C211 C 0.47569 0.34878 0.81904 0.0
C212 C 0.47573 0.34102 0.87674 0.0
O213 O 0.52942 0.37923 0.97898 0.0
C214 C 0.52513 0.30038 0.90638 0.0
O215 O 0.50538 0.29506 0.93938 0.0
H216 H 0.51448 0.3853 0.87323 0.0
H217 H 0.46885 0.32322 0.89381 0.0
N218 N 0.50322 0.32929 0.02586 0.0
N219 N 0.50297 0.30186 0.10173 0.0
C220 C 0.51689 0.31283 0.05848 0.0
C221 C 0.47982 0.32885 0.04938 0.0
C222 C 0.47963 0.31208 0.09627 0.0
C223 C 0.51374 0.39409 1.0049 0.0
O224 O 0.4914 0.38558 0.01956 0.0
H225 H 0.5366 0.3086 0.04968 0.0
H226 H 0.46386 0.33943 0.03262 0.0
O227 O 0.53504 0.32207 0.91096 0.0
H228 H 0.46793 0.33839 0.7842 0.0
H229 H 0.46332 0.30708 0.12281 0.0
Cu230 Cu 0.17031 0.50578 0.98125 0.0
N231 N 0.16539 0.54053 0.97429 0.0
N232 N 0.15462 0.57647 0.92807 0.0
C233 C 0.16589 0.55357 0.92353 0.0
C234 C 0.14709 0.57806 0.98419 0.0
C235 C 0.15384 0.55583 0.01271 0.0
O236 O 0.13618 0.49116 0.98405 0.0
C237 C 0.21471 0.49716 0.91204 0.0
O238 O 0.22582 0.50331 0.95959 0.0
H239 H 0.17166 0.54528 0.88277 0.0
H240 H 0.14863 0.55031 0.05679 0.0
N241 N 0.18752 0.49752 0.05 0.0
N242 N 0.21461 0.49789 0.12335 0.0
C243 C 0.20454 0.51105 0.07798 0.0
C244 C 0.18662 0.47523 0.07888 0.0
C245 C 0.20316 0.47536 0.12381 0.0
C246 C 0.11931 0.49872 0.94864 0.0
O247 O 0.12568 0.51472 0.90668 0.0
H248 H 0.20979 0.52992 0.06432 0.0
H249 H 0.17524 0.45963 0.06692 0.0
O250 O 0.19073 0.49592 0.91253 0.0
H251 H 0.13586 0.59336 1.00221 0.0
H252 H 0.20708 0.45957 0.15304 0.0
Cu253 Cu 0.95569 0.16634 0.02839 0.0
N254 N 0.92308 0.1591 1.00759 0.0
N255 N 0.89545 0.13616 0.96146 0.0
C256 C 0.91804 0.14731 0.95855 0.0
C257 C 0.8855 0.14196 0.01401 0.0
C258 C 0.9027 0.15597 0.04257 0.0
O259 O 0.97104 0.13229 0.04037 0.0
C260 C 0.95885 0.20634 0.94438 0.0
O261 O 0.93559 0.21042 0.96296 0.0
H262 H 0.93166 0.14531 0.92329 0.0
H263 H 0.90149 0.16122 0.08754 0.0
N264 N 0.95538 0.18222 0.10067 0.0
N265 N 0.95525 0.20983 0.17297 0.0
C266 C 0.95287 0.20679 0.11512 0.0
C267 C 0.95917 0.16952 0.15099 0.0
C268 C 0.95916 0.18635 0.19531 0.0
C269 C 0.97561 0.11575 1.0019 0.0
O270 O 0.97443 0.12243 0.94683 0.0
H271 H 0.95003 0.22211 0.0839 0.0
H272 H 0.96204 0.1493 0.15502 0.0
O273 O 0.97144 0.18791 0.96705 0.0
H274 H 0.86818 0.13461 0.03266 0.0
H275 H 0.96171 0.18161 0.24071 0.0
Cu276 Cu 0.87128 0.06231 0.50171 0.0
N277 N 0.87454 0.03407 0.55055 0.0
N278 N 0.87227 0.02488 0.64566 0.0
C279 C 0.8838 0.03838 0.60283 0.0
C280 C 0.85586 1.0104 0.61878 0.0
C281 C 0.85743 0.01597 0.55994 0.0
O282 O 0.90572 0.07541 0.49123 0.0
C283 C 0.82546 0.0735 0.55545 0.0
O284 O 0.81923 0.05548 0.521 0.0
H285 H 0.8947 0.05493 0.61057 0.0
H286 H 0.84401 1.01052 0.52844 0.0
N287 N 0.85678 0.05453 0.43076 0.0
N288 N 0.83037 0.0549 0.35619 0.0
C289 C 0.83845 0.06746 0.40239 0.0
C290 C 0.86063 0.03324 0.40115 0.0
C291 C 0.84459 0.03346 0.35526 0.0
C292 C 0.92253 0.06092 0.46816 0.0
O293 O 0.91557 0.03911 0.44906 0.0
H294 H 0.83032 0.08508 0.41736 0.0
H295 H 0.87358 0.01815 0.41328 0.0
O296 O 0.84755 0.08247 0.54951 0.0
H297 H 0.84149 0.99922 0.64057 0.0
H298 H 0.84331 0.01861 0.3243 0.0
Cu299 Cu 0.52396 0.84693 0.55967 0.0
N300 N 0.54631 0.85765 0.61469 0.0
N301 N 0.54646 0.87525 0.70225 0.0
C302 C 0.53807 0.87691 0.64764 0.0
C303 C 0.56152 0.8544 0.70326 0.0
C304 C 0.56139 0.84358 0.64928 0.0
O305 O 0.51018 0.88002 0.53145 0.0
C306 C 0.5147 0.80182 0.61783 0.0
O307 O 0.53573 0.79684 0.58894 0.0
H308 H 0.52254 0.88921 0.63518 0.0
H309 H 0.56875 0.82501 0.63917 0.0
N310 N 0.53735 0.82838 0.49612 0.0
N311 N 0.53888 0.80008 0.4248 0.0
C312 C 0.52421 0.81231 0.46445 0.0
C313 C 0.56122 0.82623 0.4758 0.0
C314 C 0.56219 0.80899 0.43175 0.0
C315 C 0.52577 0.89302 0.5003 0.0
O316 O 0.54695 0.88203 0.48331 0.0
H317 H 0.50428 0.80931 0.47132 0.0
H318 H 0.57694 0.836 0.49283 0.0
O319 O 0.50374 0.8233 0.60871 0.0
H320 H 0.56979 0.84603 0.74174 0.0
H321 H 0.57898 0.80282 0.40821 0.0
Cu322 Cu 0.66564 0.49522 0.52705 0.0
N323 N 0.65543 0.46236 0.54599 0.0
N324 N 0.62991 0.43126 0.5757 0.0
C325 C 0.63378 0.45634 0.5741 0.0
C326 C 0.65003 0.42102 0.54735 0.0
C327 C 0.66571 0.44027 0.52898 0.0
O328 O 0.63391 0.515 0.51819 0.0
C329 C 0.70578 0.49365 0.60767 0.0
O330 O 0.70858 0.47039 0.59003 0.0
H331 H 0.62047 0.47015 0.59068 0.0
H332 H 0.68299 0.43836 0.50354 0.0
N333 N 0.68185 0.49565 0.45325 0.0
N334 N 0.70932 0.49376 0.37761 0.0
C335 C 0.70579 0.48995 0.4357 0.0
C336 C 0.67001 0.50296 0.40468 0.0
C337 C 0.68674 0.50187 0.35837 0.0
C338 C 0.61773 0.52086 0.5578 0.0
O339 O 0.62338 0.51691 0.61241 0.0
H340 H 0.72037 0.48363 0.46487 0.0
H341 H 0.65043 0.50881 0.40315 0.0
O342 O 0.68822 0.50762 0.58632 0.0
H343 H 0.65311 0.40113 0.53976 0.0
H344 H 0.68248 0.50649 0.31368 0.0
Cu345 Cu 0.98617 0.66326 0.57241 0.0
N346 N 0.02097 0.66217 0.57884 0.0
N347 N 0.05852 0.65445 0.61734 0.0
C348 C 0.03358 0.6504 0.62178 0.0
C349 C 0.06172 0.6692 0.56922 0.0
C350 C 0.03847 0.67401 0.54565 0.0
O351 O 0.97539 0.6278 0.58013 0.0
C352 C 0.97501 0.67968 0.68771 0.0
O353 O 0.98134 0.65645 0.70329 0.0
H354 H 0.02454 0.63912 0.6557 0.0
H355 H 0.03453 0.68575 0.5078 0.0
N356 N 0.9785 0.6789 0.50071 0.0
N357 N 0.97386 0.70952 0.43228 0.0
C358 C 0.9789 0.70393 0.48852 0.0
C359 C 0.97312 0.66816 0.45051 0.0
C360 C 0.97018 0.68693 0.4084 0.0
C361 C 0.95513 0.61854 0.56235 0.0
O362 O 0.93825 0.63374 0.53867 0.0
H363 H 0.98354 0.71763 0.52022 0.0
H364 H 0.97174 0.64807 0.44472 0.0
O365 O 0.97398 0.68552 0.63393 0.0
H366 H 0.07944 0.67662 0.55314 0.0
H367 H 0.96563 0.68402 0.3637 0.0
H368 H 0.48832 0.09867 0.24984 0.0
H369 H 0.48793 0.03915 0.38192 0.0
H370 H 0.51477 1.01245 0.31853 0.0
H371 H 0.49219 0.05427 0.12025 0.0
H372 H 0.51278 0.07517 0.08005 0.0
H373 H 0.48859 0.08791 0.1279 0.0
H374 H 0.52134 0.11222 0.18307 0.0
H375 H 0.5459 0.10049 0.13562 0.0
H376 H 0.54808 0.09545 0.21289 0.0
H377 H 0.54951 0.99676 0.25126 0.0
H378 H 0.58603 0.99245 0.18316 0.0
H379 H 0.56238 0.06135 0.09313 0.0
C380 C 0.49261 0.0795 0.26407 0.0
C381 C 0.48586 0.07097 0.32079 0.0
C382 C 0.49273 0.046 0.33848 0.0
C383 C 0.50804 0.03071 0.30276 0.0
C384 C 0.51588 0.04039 0.24868 0.0
C385 C 0.50779 0.06398 0.2287 0.0
C386 C 0.52111 0.0712 0.172 0.0
C387 C 0.50254 0.07221 0.12212 0.0
C388 C 0.53492 0.09631 0.17623 0.0
C389 C 0.53938 0.04909 0.16587 0.0
C390 C 0.53573 0.03117 0.2096 0.0
C391 C 0.55206 1.01033 0.21585 0.0
C392 C 0.57278 1.008 0.17697 0.0
C393 C 0.57719 0.0266 0.13292 0.0
C394 C 0.55972 0.04691 0.12657 0.0
H395 H 0.44674 0.51916 0.3219 0.0
H396 H 0.49443 0.45597 0.37369 0.0
H397 H 0.53169 0.47773 0.32973 0.0
H398 H 0.47498 0.53203 0.18795 0.0
H399 H 0.47294 0.56602 0.19035 0.0
H400 H 0.45025 0.54709 0.22957 0.0
H401 H 0.46004 0.5666 0.32781 0.0
H402 H 0.48019 0.58762 0.28648 0.0
H403 H 0.49242 0.56989 0.34699 0.0
H404 H 0.56354 0.50707 0.27786 0.0
H405 H 0.58649 0.54044 0.22118 0.0
H406 H 0.51719 0.58396 0.20617 0.0
C407 C 0.46509 0.50996 0.32346 0.0
C408 C 0.46795 0.48584 0.34988 0.0
C409 C 0.49207 0.47432 0.35262 0.0
C410 C 0.51321 0.48663 0.32823 0.0
C411 C 0.50976 0.51054 0.30228 0.0
C412 C 0.48623 0.52214 0.30038 0.0
C413 C 0.48715 0.54762 0.26943 0.0
C414 C 0.47041 0.54821 0.21607 0.0
C415 C 0.4795 0.56913 0.31022 0.0
C416 C 0.51485 0.54842 0.25303 0.0
C417 C 0.52774 0.52709 0.27281 0.0
C418 C 0.55364 0.52388 0.26249 0.0
C419 C 0.56657 0.54285 0.23071 0.0
C420 C 0.55353 0.56462 0.21014 0.0
C421 C 0.52747 0.56745 0.22205 0.0
H422 H 0.96905 0.49828 0.11936 0.0
H423 H 0.9341 0.55661 0.22419 0.0
H424 H 0.95972 0.54224 0.30701 0.0
H425 H 0.96408 0.45193 0.21951 0.0
H426 H 0.99327 0.43554 0.20225 0.0
H427 H 0.97808 0.45464 0.14764 0.0
H428 H 0.0185 0.48059 0.13136 0.0
H429 H 0.03391 0.46127 0.1858 0.0
H430 H 0.03251 0.49508 0.19209 0.0
H431 H 0.98155 0.51624 0.38271 0.0
H432 H 0.99694 0.48088 0.44473 0.0
H433 H 0.01646 0.43809 0.29225 0.0
C434 C 0.96726 0.50848 0.15929 0.0
C435 C 0.94945 0.52853 0.16536 0.0
C436 C 0.94779 0.54145 0.21822 0.0
C437 C 0.96228 0.53335 0.26553 0.0
C438 C 0.97856 0.51252 0.25902 0.0
C439 C 0.98132 0.50042 0.20687 0.0
C440 C 0.99695 0.47629 0.21308 0.0
C441 C 0.9822 0.45326 0.19457 0.0
C442 C 0.02195 0.47844 0.17854 0.0
C443 C 1.00116 0.47572 0.27779 0.0
C444 C 0.99105 0.49719 0.30317 0.0
C445 C 0.99007 0.4997 0.36314 0.0
C446 C 0.99878 0.47951 0.39805 0.0
C447 C 1.00812 0.45692 0.37314 0.0
C448 C 1.01016 0.45543 0.31221 0.0
H449 H 0.06852 0.93095 0.14342 0.0
H450 H 0.10113 0.85578 0.16499 0.0
H451 H 0.12775 0.87085 0.24266 0.0
H452 H 0.12588 0.96543 0.17079 0.0
H453 H 0.10889 0.98999 0.20882 0.0
H454 H 0.09395 0.97354 0.15219 0.0
H455 H 0.05743 0.96174 0.22371 0.0
H456 H 0.0723 0.978 0.28058 0.0
H457 H 0.06437 0.94529 0.29095 0.0
H458 H 0.14754 0.8934 0.32498 0.0
H459 H 0.16135 0.92255 0.39967 0.0
H460 H 0.1164 0.98285 0.32174 0.0
C461 C 0.08146 0.91774 0.1641 0.0
C462 C 0.08279 0.89221 0.1482 0.0
C463 C 0.10005 0.87549 0.17599 0.0
C464 C 0.11512 0.88385 0.22037 0.0
C465 C 0.11291 0.90905 0.23587 0.0
C466 C 0.09674 0.92582 0.20799 0.0
C467 C 0.09734 0.95174 0.23367 0.0
C468 C 0.1071 0.97133 0.18868 0.0
C469 C 0.07132 0.95964 0.25871 0.0
C470 C 0.11601 0.94684 0.28114 0.0
C471 C 0.12477 0.92211 0.28193 0.0
C472 C 0.1411 0.9129 0.32421 0.0
C473 C 0.14873 0.92947 0.36656 0.0
C474 C 0.14019 0.95494 0.36586 0.0
C475 C 0.1237 0.96363 0.32241 0.0
H476 H 0.45221 0.97716 0.83288 0.0
H477 H 0.43824 0.92462 0.97662 0.0
H478 H 0.473 0.89699 0.94086 0.0
H479 H 0.46248 0.93208 0.73078 0.0
H480 H 0.48727 0.94701 0.68945 0.0
H481 H 0.46444 0.966 0.72844 0.0
H482 H 0.49795 0.98757 0.7845 0.0
H483 H 0.52289 0.97013 0.74813 0.0
H484 H 0.52037 0.96917 0.82591 0.0
H485 H 0.50745 0.87346 0.88458 0.0
H486 H 0.53591 0.85504 0.80989 0.0
H487 H 0.52761 0.92307 0.70349 0.0
C488 C 0.45682 0.96016 0.85764 0.0
C489 C 0.44251 0.95317 0.90778 0.0
C490 C 0.44878 0.93033 0.93791 0.0
C491 C 0.46867 0.91461 0.9182 0.0
C492 C 0.48223 0.92195 0.86825 0.0
C493 C 0.4765 0.94418 0.83839 0.0
C494 C 0.4924 0.94676 0.78328 0.0
C495 C 0.47565 0.94808 0.72987 0.0
C496 C 0.50938 0.96978 0.78555 0.0
C497 C 0.50766 0.92231 0.78599 0.0
C498 C 0.50182 0.90837 0.83575 0.0
C499 C 0.51243 0.8844 0.84588 0.0
C500 C 0.52879 0.87413 0.80332 0.0
C501 C 0.53423 0.88769 0.75084 0.0
C502 C 0.52398 0.91237 0.74326 0.0
H503 H 0.5985 0.44768 0.66236 0.0
H504 H 0.61142 0.38618 0.54412 0.0
H505 H 0.57344 0.36535 0.58446 0.0
H506 H 0.57773 0.41042 0.78299 0.0
H507 H 0.55468 0.43346 0.80746 0.0
H508 H 0.58226 0.44352 0.76729 0.0
H509 H 0.55409 0.46662 0.69217 0.0
H510 H 0.5264 0.45658 0.73241 0.0
H511 H 0.53024 0.44948 0.65665 0.0
H512 H 0.53511 0.35013 0.64251 0.0
H513 H 0.50224 0.34071 0.71684 0.0
H514 H 0.51282 0.41378 0.79158 0.0
C515 C 0.59322 0.43003 0.64417 0.0
C516 C 0.60799 0.41869 0.59969 0.0
C517 C 0.60062 0.3952 0.57842 0.0
C518 C 0.5789 0.38333 0.6007 0.0
C519 C 0.56467 0.39522 0.64411 0.0
C520 C 0.57165 0.418 0.66575 0.0
C521 C 0.55394 0.42635 0.71428 0.0
C522 C 0.56799 0.42855 0.77136 0.0
C523 C 0.54033 0.45124 0.69788 0.0
C524 C 0.53599 0.40459 0.71712 0.0
C525 C 0.54237 0.38682 0.67623 0.0
C526 C 0.52969 0.36413 0.67402 0.0
C527 C 0.51077 0.35905 0.71616 0.0
C528 C 0.5047 0.3766 0.76002 0.0
C529 C 0.51684 0.40007 0.75845 0.0
H530 H 0.05172 0.64244 0.73195 0.0
H531 H 0.1083 0.64624 0.59321 0.0
H532 H 0.14038 0.62995 0.66094 0.0
H533 H 0.0916 0.66018 0.84853 0.0
H534 H 0.07723 0.63856 0.90042 0.0
H535 H 0.05912 0.65195 0.84188 0.0
H536 H 0.04823 0.60707 0.80973 0.0
H537 H 0.06611 0.59358 0.86839 0.0
H538 H 0.07331 0.58455 0.79497 0.0
H539 H 0.16546 0.60997 0.74211 0.0
H540 H 0.18145 0.58821 0.83052 0.0
H541 H 0.10853 0.59826 0.91565 0.0
C542 C 0.07081 0.63983 0.71559 0.0
C543 C 0.07745 0.6456 0.65707 0.0
C544 C 0.1028 0.64223 0.63791 0.0
C545 C 0.12113 0.63292 0.67605 0.0
C546 C 0.11385 0.62726 0.73332 0.0
C547 C 0.0893 0.63065 0.75301 0.0
C548 C 0.08607 0.62227 0.81593 0.0
C549 C 0.07803 0.64457 0.85393 0.0
C550 C 0.06733 0.60059 0.82261 0.0
C551 C 0.11261 0.61328 0.82844 0.0
C552 C 0.12839 0.61634 0.7803 0.0
C553 C 0.15337 0.60784 0.78031 0.0
C554 C 0.1623 0.59554 0.83052 0.0
C555 C 0.14636 0.59203 0.88001 0.0
C556 C 0.12133 0.60141 0.87907 0.0
H557 H 0.92413 0.10676 0.88967 0.0
H558 H 0.847 0.12275 0.94522 0.0
H559 H 0.83248 0.09044 0.87866 0.0
H560 H 0.91192 0.10079 0.74171 0.0
H561 H 0.93547 0.07627 0.73115 0.0
H562 H 0.93912 0.09894 0.78668 0.0
H563 H 0.94304 0.06255 0.86339 0.0
H564 H 0.93922 0.03977 0.80784 0.0
H565 H 0.91856 0.03965 0.87105 0.0
H566 H 0.82663 0.0583 0.79964 0.0
H567 H 0.82973 0.03288 0.7113 0.0
H568 H 0.91081 0.03836 0.7099 0.0
C569 C 0.90414 0.10376 0.88789 0.0
C570 C 0.88669 0.11754 0.92257 0.0
C571 C 0.86074 0.11235 0.91936 0.0
C572 C 0.85235 0.094 0.88178 0.0
C573 C 0.87018 0.08085 0.84814 0.0
C574 C 0.89552 0.08568 0.85084 0.0
C575 C 0.91092 0.07033 0.80799 0.0
C576 C 0.92518 0.08761 0.7643 0.0
C577 C 0.929 0.05197 0.83944 0.0
C578 C 0.89028 0.05643 0.77947 0.0
C579 C 0.86689 0.0624 0.80359 0.0
C580 C 0.84489 0.0532 0.78113 0.0
C581 C 0.84684 0.03849 0.73132 0.0
C582 C 0.87061 0.03328 0.70448 0.0
C583 C 0.89252 0.04165 0.73037 0.0
H584 H 0.70684 0.04361 0.75925 0.0
H585 H 0.74013 0.0855 0.89534 0.0
H586 H 0.77514 0.09757 0.82772 0.0
H587 H 0.76405 0.01899 0.69812 0.0
H588 H 0.75333 0.02133 0.62472 0.0
H589 H 0.731 0.01704 0.6839 0.0
H590 H 0.70644 0.05726 0.64942 0.0
H591 H 0.72888 0.06176 0.59043 0.0
H592 H 0.72265 0.08668 0.64081 0.0
H593 H 0.8083 0.10288 0.74352 0.0
H594 H 0.83505 0.10061 0.65376 0.0
H595 H 0.77807 0.05655 0.57462 0.0
C596 C 0.72147 0.05529 0.77503 0.0
C597 C 0.72069 0.06353 0.83279 0.0
C598 C 0.74014 0.07913 0.85119 0.0
C599 C 0.76016 0.08601 0.81306 0.0
C600 C 0.76034 0.07743 0.75633 0.0
C601 C 0.74134 0.06249 0.73756 0.0
C602 C 0.74581 0.05527 0.67513 0.0
C603 C 0.74872 0.02645 0.67021 0.0
C604 C 0.72469 0.06588 0.63669 0.0
C605 C 0.77039 0.06825 0.66151 0.0
C606 C 0.77867 0.08096 0.7086 0.0
C607 C 0.80172 0.09325 0.70622 0.0
C608 C 0.81676 0.09202 0.65491 0.0
C609 C 0.80862 0.0787 0.60661 0.0
C610 C 0.78487 0.06716 0.61023 0.0
H611 H 0.52845 0.75246 0.62713 0.0
H612 H 0.48658 0.81071 0.71888 0.0
H613 H 0.48355 0.78204 0.80574 0.0
H614 H 0.49684 0.69705 0.69433 0.0
H615 H 0.5259 0.67895 0.69556 0.0
H616 H 0.52092 0.70262 0.63933 0.0
H617 H 0.56211 0.72404 0.66667 0.0
H618 H 0.56704 0.70075 0.72348 0.0
H619 H 0.56591 0.73378 0.74013 0.0
H620 H 0.48965 0.74749 0.88656 0.0
H621 H 0.50336 0.71175 0.9503 0.0
H622 H 0.5424 0.6776 0.80395 0.0
C623 C 0.51799 0.75906 0.66489 0.0
C624 C 0.50749 0.78382 0.66585 0.0
C625 C 0.49432 0.7917 0.71658 0.0
C626 C 0.49271 0.77555 0.76627 0.0
C627 C 0.50425 0.75157 0.76438 0.0
C628 C 0.51641 0.74337 0.71447 0.0
C629 C 0.52912 0.71779 0.72397 0.0
C630 C 0.51749 0.69793 0.68605 0.0
C631 C 0.55773 0.7192 0.71292 0.0
C632 C 0.52281 0.71291 0.78751 0.0
C633 C 0.5082 0.73236 0.81019 0.0
C634 C 0.50084 0.73212 0.86877 0.0
C635 C 0.50868 0.71165 0.90473 0.0
C636 C 0.52402 0.69174 0.88239 0.0
C637 C 0.53088 0.6925 0.82274 0.0
H638 H 0.82172 0.48585 0.82588 0.0
H639 H 0.81058 0.56621 0.84923 0.0
H640 H 0.77421 0.56633 0.78521 0.0
H641 H 0.80685 0.48659 0.67532 0.0
H642 H 0.7909 0.45693 0.67871 0.0
H643 H 0.81536 0.46275 0.72883 0.0
H644 H 0.78465 0.45313 0.81514 0.0
H645 H 0.76011 0.44722 0.76523 0.0
H646 H 0.75509 0.4703 0.82055 0.0
H647 H 0.73915 0.55806 0.7166 0.0
H648 H 0.70899 0.54201 0.64735 0.0
H649 H 0.74295 0.46718 0.66617 0.0
C650 C 0.81142 0.50337 0.81804 0.0
C651 C 0.81917 0.52605 0.84271 0.0
C652 C 0.80531 0.54865 0.83052 0.0
C653 C 0.78447 0.5489 0.79435 0.0
C654 C 0.77753 0.52638 0.7701 0.0
C655 C 0.79059 0.50401 0.78133 0.0
C656 C 0.77967 0.48264 0.74795 0.0
C657 C 0.79937 0.47158 0.70517 0.0
C658 C 0.76926 0.46211 0.78971 0.0
C659 C 0.75859 0.49652 0.71615 0.0
C660 C 0.75758 0.5217 0.72985 0.0
C661 C 0.73978 0.53833 0.70564 0.0
C662 C 0.72266 0.52904 0.66628 0.0
C663 C 0.72345 0.50333 0.65095 0.0
C664 C 0.74172 0.48695 0.67669 0.0
H665 H 0.97915 0.8197 0.8096 0.0
H666 H 0.97489 0.78588 0.98293 0.0
H667 H 0.97166 0.74389 0.94101 0.0
H668 H 0.93451 0.77844 0.74532 0.0
H669 H 0.95166 0.777 0.67701 0.0
H670 H 0.95338 0.80461 0.72049 0.0
H671 H 1.00195 0.8 0.72007 0.0
H672 H 1.00037 0.77245 0.67647 0.0
H673 H 0.01631 0.77063 0.74443 0.0
H674 H 0.96991 0.70516 0.8803 0.0
H675 H 0.9704 0.67275 0.80542 0.0
H676 H 0.97452 0.7315 0.67113 0.0
C677 C 0.97727 0.80357 0.83893 0.0
C678 C 0.97737 0.80637 0.89992 0.0
C679 C 0.97525 0.78447 0.93627 0.0
C680 C 0.97319 0.76044 0.91279 0.0
C681 C 0.97318 0.75843 0.8527 0.0
C682 C 0.97515 0.77939 0.81621 0.0
C683 C 0.97514 0.77193 0.75308 0.0
C684 C 0.95231 0.7837 0.72216 0.0
C685 C 0.99992 0.77918 0.72168 0.0
C686 C 0.97299 0.74349 0.75981 0.0
C687 C 0.97184 0.73611 0.81768 0.0
C688 C 0.97062 0.71076 0.83487 0.0
C689 C 0.97088 0.69245 0.79192 0.0
C690 C 0.97228 0.69947 0.73225 0.0
C691 C 0.97306 0.72545 0.71626 0.0
H692 H 0.21261 0.02497 0.71171 0.0
H693 H 0.24593 0.07073 0.57278 0.0
H694 H 0.28533 0.0725 0.62748 0.0
H695 H 0.23978 0.05605 0.83005 0.0
H696 H 0.24455 0.02739 0.87241 0.0
H697 H 0.21931 0.0298 0.82199 0.0
H698 H 0.23638 0.98971 0.77108 0.0
H699 H 0.26164 0.98714 0.82145 0.0
H700 H 0.26856 0.98851 0.74456 0.0
H701 H 0.32099 0.0703 0.70111 0.0
H702 H 0.3499 0.06197 0.78228 0.0
H703 H 0.29296 0.01671 0.87055 0.0
C704 C 0.2281 0.03552 0.69282 0.0
C705 C 0.22604 0.04789 0.63797 0.0
C706 C 0.24706 0.06101 0.61448 0.0
C707 C 0.26947 0.06222 0.64546 0.0
C708 C 0.27073 0.04999 0.69972 0.0
C709 C 0.25061 0.03669 0.72281 0.0
C710 C 0.25672 0.02475 0.7813 0.0
C711 C 0.23904 0.03513 0.82926 0.0
C712 C 0.25577 0.99581 0.77946 0.0
C713 C 0.28339 0.03352 0.78796 0.0
C714 C 0.29118 0.04819 0.74074 0.0
C715 C 0.31505 0.05871 0.73806 0.0
C716 C 0.33135 0.05394 0.78448 0.0
C717 C 0.32384 0.03859 0.83284 0.0
C718 C 0.29945 0.02839 0.8342 0.0
H719 H 0.50189 0.17623 0.73245 0.0
H720 H 0.5393 0.21089 0.58235 0.0
H721 H 0.55087 0.24679 0.64193 0.0
H722 H 0.47522 0.23216 0.78888 0.0
H723 H 0.47929 0.22263 0.86364 0.0
H724 H 0.47583 0.19915 0.80974 0.0
H725 H 0.51788 0.17779 0.84037 0.0
H726 H 0.52154 0.20136 0.89416 0.0
H727 H 0.54603 0.19612 0.84005 0.0
H728 H 0.55536 0.28124 0.71876 0.0
H729 H 0.5517 0.30956 0.80284 0.0
H730 H 0.51225 0.25119 0.90121 0.0
C731 C 0.51259 0.19128 0.71195 0.0
C732 C 0.51963 0.19056 0.6524 0.0
C733 C 0.53388 0.2107 0.62787 0.0
C734 C 0.54049 0.23128 0.66146 0.0
C735 C 0.53299 0.23147 0.71992 0.0
C736 C 0.51946 0.21182 0.74486 0.0
C737 C 0.5128 0.21672 0.80785 0.0
C738 C 0.48409 0.21773 0.81809 0.0
C739 C 0.52531 0.19681 0.84796 0.0
C740 C 0.52418 0.24242 0.81436 0.0
C741 C 0.53592 0.25072 0.76349 0.0
C742 C 0.54652 0.27467 0.75898 0.0
C743 C 0.54454 0.29063 0.80713 0.0
C744 C 0.53196 0.2826 0.85907 0.0
C745 C 0.52224 0.25793 0.86253 0.0
H746 H 0.34374 0.48393 0.72871 0.0
H747 H 0.30175 0.49965 0.5731 0.0
H748 H 0.26215 0.50122 0.63205 0.0
H749 H 0.29806 0.44456 0.80313 0.0
H750 H 0.30386 0.45691 0.87344 0.0
H751 H 0.32862 0.45636 0.81866 0.0
H752 H 0.33423 0.50447 0.82838 0.0
H753 H 0.30962 0.50513 0.88343 0.0
H754 H 0.30745 0.52555 0.81999 0.0
H755 H 0.22666 0.50023 0.70965 0.0
H756 H 0.19952 0.50082 0.79872 0.0
H757 H 0.26533 0.48731 0.90296 0.0
C758 C 0.3262 0.48754 0.707 0.0
C759 C 0.32586 0.49155 0.64617 0.0
C760 C 0.30251 0.49668 0.6196 0.0
C761 C 0.2799 0.49743 0.65275 0.0
C762 C 0.2809 0.49324 0.71263 0.0
C763 C 0.30354 0.48867 0.7395 0.0
C764 C 0.29974 0.48583 0.80465 0.0
C765 C 0.30806 0.45934 0.82622 0.0
C766 C 0.31358 0.50648 0.83594 0.0
C767 C 0.27145 0.48949 0.81043 0.0
C768 C 0.26081 0.49344 0.75691 0.0
C769 C 0.23487 0.49719 0.75173 0.0
C770 C 0.21955 0.49735 0.80254 0.0
C771 C 0.23023 0.49411 0.8579 0.0
C772 C 0.25652 0.48988 0.86139 0.0
H773 H 0.95869 0.32202 0.71126 0.0
H774 H 0.03803 0.30575 0.67968 0.0
H775 H 0.03597 0.26974 0.74929 0.0
H776 H 0.95844 0.30772 0.86377 0.0
H777 H 0.92791 0.29357 0.86598 0.0
H778 H 0.93527 0.3175 0.81171 0.0
H779 H 0.92391 0.28709 0.73088 0.0
H780 H 0.91646 0.26308 0.78495 0.0
H781 H 0.93922 0.25647 0.7278 0.0
H782 H 0.02553 0.23547 0.82445 0.0
H783 H 1.00748 0.20648 0.89966 0.0
H784 H 0.9351 0.24505 0.88383 0.0
C785 C 0.97554 0.3107 0.71851 0.0
C786 C 0.99857 0.31693 0.68987 0.0
C787 C 0.02025 0.30172 0.7014 0.0
C788 C 0.01924 0.28105 0.74075 0.0
C789 C 0.99639 0.27564 0.76878 0.0
C790 C 0.97491 0.29002 0.75821 0.0
C791 C 0.95293 0.28054 0.7955 0.0
C792 C 0.94306 0.30106 0.83668 0.0
C793 C 0.93189 0.27124 0.75751 0.0
C794 C 0.96542 0.25874 0.82874 0.0
C795 C 0.99048 0.25612 0.81247 0.0
C796 C 1.0059 0.23736 0.83744 0.0
C797 C 0.99548 0.22093 0.88021 0.0
C798 C 0.96987 0.22335 0.89804 0.0
C799 C 0.95476 0.24258 0.8715 0.0
H800 H 0.24754 0.01841 0.36927 0.0
H801 H 0.19536 0.07386 0.29645 0.0
H802 H 0.22444 0.07987 0.21136 0.0
H803 H 0.30424 0.04963 0.32495 0.0
H804 H 0.32116 0.02055 0.31055 0.0
H805 H 0.29615 0.02108 0.36464 0.0
H806 H 0.27391 0.98554 0.31208 0.0
H807 H 0.29879 0.98498 0.25766 0.0
H808 H 0.26663 0.98986 0.23658 0.0
H809 H 0.2601 0.07851 0.13183 0.0
H810 H 0.29883 0.07187 0.07112 0.0
H811 H 0.32637 0.01742 0.19891 0.0
C812 C 0.24211 0.03191 0.33564 0.0
C813 C 0.21906 0.04565 0.3397 0.0
C814 C 0.21292 0.06317 0.29454 0.0
C815 C 0.22931 0.06662 0.24592 0.0
C816 C 0.25181 0.05249 0.2432 0.0
C817 C 0.25818 0.03562 0.28733 0.0
C818 C 0.28336 0.02275 0.27509 0.0
C819 C 0.30235 0.02888 0.32156 0.0
C820 C 0.28049 0.99409 0.27004 0.0
C821 C 0.29038 0.03497 0.21712 0.0
C822 C 0.272 0.05198 0.19892 0.0
C823 C 0.27458 0.06527 0.14602 0.0
C824 C 0.29658 0.06129 0.11158 0.0
C825 C 0.31584 0.0443 0.1303 0.0
C826 C 0.31233 0.03089 0.18361 0.0
H827 H 0.49342 0.21746 0.39088 0.0
H828 H 0.55294 0.16904 0.32076 0.0
H829 H 0.55691 0.19796 0.23482 0.0
H830 H 0.46371 0.23084 0.25897 0.0
H831 H 0.45533 0.26299 0.27583 0.0
H832 H 0.45878 0.2397 0.33337 0.0
H833 H 0.49158 0.2673 0.38135 0.0
H834 H 0.48813 0.29078 0.32412 0.0
H835 H 0.51879 0.27755 0.33963 0.0
H836 H 0.55265 0.23189 0.15384 0.0
H837 H 0.5404 0.26656 0.08596 0.0
H838 H 0.48314 0.29183 0.20981 0.0
C839 C 0.50759 0.21299 0.35799 0.0
C840 C 0.52301 0.19095 0.36298 0.0
C841 C 0.54106 0.18585 0.3183 0.0
C842 C 0.5434 0.20218 0.26927 0.0
C843 C 0.52756 0.22353 0.2655 0.0
C844 C 0.51005 0.22891 0.30891 0.0
C845 C 0.49443 0.25232 0.29379 0.0
C846 C 0.46641 0.24607 0.29028 0.0
C847 C 0.49848 0.27322 0.33731 0.0
C848 C 0.5056 0.25921 0.2346 0.0
C849 C 0.52484 0.24256 0.21912 0.0
C850 C 0.53772 0.24507 0.16589 0.0
C851 C 0.53069 0.26496 0.12763 0.0
C852 C 0.5108 0.28208 0.14235 0.0
C853 C 0.49826 0.27905 0.19686 0.0
H854 H 0.30416 0.48111 0.39286 0.0
H855 H 0.34926 0.54205 0.32076 0.0
H856 H 0.3189 0.5484 0.24159 0.0
H857 H 0.28841 0.45486 0.26056 0.0
H858 H 0.25693 0.44679 0.28387 0.0
H859 H 0.28127 0.44839 0.33624 0.0
H860 H 0.25434 0.4807 0.39463 0.0
H861 H 0.22983 0.47909 0.34257 0.0
H862 H 0.24285 0.50912 0.35879 0.0
H863 H 0.28405 0.54586 0.16602 0.0
H864 H 0.24878 0.53537 0.10409 0.0
H865 H 0.22658 0.47676 0.22879 0.0
C866 C 0.30762 0.49602 0.36087 0.0
C867 C 0.3292 0.51111 0.36327 0.0
C868 C 0.33286 0.53034 0.32021 0.0
C869 C 0.3157 0.53403 0.27496 0.0
C870 C 0.29483 0.51848 0.27353 0.0
C871 C 0.29072 0.49999 0.3158 0.0
C872 C 0.26735 0.48527 0.30416 0.0
C873 C 0.27389 0.45717 0.2957 0.0
C874 C 0.24741 0.48876 0.35293 0.0
C875 C 0.25907 0.49798 0.24808 0.0
C876 C 0.27502 0.51717 0.23103 0.0
C877 C 0.27137 0.53101 0.17949 0.0
C878 C 0.25111 0.52495 0.14455 0.0
C879 C 0.23461 0.50515 0.16096 0.0
C880 C 0.23875 0.49181 0.21404 0.0
H881 H 0.98208 0.21953 0.26784 0.0
H882 H 0.92669 0.25237 0.15246 0.0
H883 H 0.92346 0.29034 0.21337 0.0
H884 H 0.9547 0.24119 0.40065 0.0
H885 H 0.98448 0.24719 0.4325 0.0
H886 H 0.98237 0.22312 0.37937 0.0
H887 H 0.01726 0.24454 0.31627 0.0
H888 H 0.01966 0.26853 0.36948 0.0
H889 H 0.01362 0.27736 0.29511 0.0
H890 H 0.92556 0.3245 0.29205 0.0
H891 H 0.93572 0.35226 0.37295 0.0
H892 H 0.9903 0.29632 0.43341 0.0
C893 C 0.96919 0.23465 0.25536 0.0
C894 C 0.95447 0.23285 0.20553 0.0
C895 C 0.93823 0.25336 0.19022 0.0
C896 C 0.93617 0.27491 0.22485 0.0
C897 C 0.95068 0.27582 0.2744 0.0
C898 C 0.96712 0.25626 0.28897 0.0
C899 C 0.98114 0.26177 0.34329 0.0
C900 C 0.97531 0.24215 0.39181 0.0
C901 C 1.0096 0.26314 0.33024 0.0
C902 C 0.96998 0.28743 0.35763 0.0
C903 C 0.9523 0.29529 0.31786 0.0
C904 C 0.93947 0.31847 0.32316 0.0
C905 C 0.94523 0.33407 0.36949 0.0
C906 C 0.96382 0.32656 0.40967 0.0
C907 C 0.97604 0.30276 0.40352 0.0
H908 H 0.72415 0.02803 0.13192 0.0
H909 H 0.70243 0.10734 0.1335 0.0
H910 H 0.73581 0.11466 0.20411 0.0
H911 H 0.73731 0.02101 0.28323 0.0
H912 H 0.7634 0.99937 0.27098 0.0
H913 H 0.73783 1.00091 0.22139 0.0
H914 H 0.76935 1.00968 0.136 0.0
H915 H 0.79501 1.00827 0.18535 0.0
H916 H 0.79027 0.03586 0.13933 0.0
H917 H 0.77296 0.11264 0.27488 0.0
H918 H 0.8087 0.10168 0.33783 0.0
H919 H 0.80423 0.02345 0.289 0.0
C920 C 0.72627 0.04702 0.14693 0.0
C921 C 0.7106 0.06715 0.12689 0.0
C922 C 0.71415 0.09161 0.14814 0.0
C923 C 0.7331 0.09592 0.18823 0.0
C924 C 0.74828 0.07555 0.20677 0.0
C925 C 0.7449 0.05158 0.18674 0.0
C926 C 0.76342 0.03272 0.21287 0.0
C927 C 0.74966 1.01231 0.24928 0.0
C928 C 0.78052 0.02095 0.16556 0.0
C929 C 0.77799 0.04974 0.25073 0.0
C930 C 0.7691 0.07439 0.24688 0.0
C931 C 0.77993 0.09334 0.27818 0.0
C932 C 0.80023 0.08689 0.31414 0.0
C933 C 0.80961 0.06165 0.31876 0.0
C934 C 0.79807 0.04299 0.28634 0.0
H935 H 0.56108 0.78814 0.32072 0.0
H936 H 0.50046 0.76704 0.44034 0.0
H937 H 0.48923 0.73275 0.37577 0.0
H938 H 0.52831 0.77592 0.18879 0.0
H939 H 0.55616 0.764 0.15167 0.0
H940 H 0.5588 0.78715 0.20682 0.0
H941 H 0.58964 0.75739 0.2623 0.0
H942 H 0.58713 0.7342 0.2073 0.0
H943 H 0.58023 0.7258 0.28214 0.0
H944 H 0.48609 0.69861 0.29788 0.0
H945 H 0.49095 0.66982 0.21488 0.0
H946 H 0.55292 0.7145 0.14675 0.0
C947 C 0.54545 0.77633 0.33351 0.0
C948 C 0.5317 0.78047 0.38595 0.0
C949 C 0.51117 0.7646 0.4003 0.0
C950 C 0.50471 0.74491 0.36389 0.0
C951 C 0.51877 0.7413 0.3127 0.0
C952 C 0.53863 0.75675 0.29747 0.0
C953 C 0.5509 0.74902 0.24041 0.0
C954 C 0.54838 0.77029 0.19419 0.0
C955 C 0.57861 0.74113 0.24855 0.0
C956 C 0.53515 0.72661 0.22614 0.0
C957 C 0.51667 0.72232 0.26816 0.0
C958 C 0.50041 0.70202 0.26458 0.0
C959 C 0.50326 0.68573 0.21718 0.0
C960 C 0.52216 0.68983 0.1737 0.0
C961 C 0.53807 0.71076 0.17861 0.0
H962 H 0.72244 0.52082 0.28052 0.0
H963 H 0.74775 0.45939 0.39344 0.0
H964 H 0.78493 0.45245 0.32779 0.0
H965 H 0.7402 0.49301 0.14581 0.0
H966 H 0.74983 0.52241 0.11206 0.0
H967 H 0.72573 0.52234 0.16836 0.0
H968 H 0.75136 0.55326 0.22739 0.0
H969 H 0.77541 0.55361 0.17103 0.0
H970 H 0.78346 0.54522 0.24452 0.0
H971 H 0.8193 0.45191 0.24479 0.0
H972 H 0.84819 0.4603 0.16032 0.0
H973 H 0.7993 0.52233 0.10502 0.0
C974 C 0.73569 0.50579 0.29149 0.0
C975 C 0.73199 0.4905 0.34204 0.0
C976 C 0.7502 0.47143 0.3552 0.0
C977 C 0.77128 0.46726 0.31785 0.0
C978 C 0.77404 0.48246 0.2677 0.0
C979 C 0.75676 0.50153 0.2551 0.0
C980 C 0.76393 0.51574 0.19956 0.0
C981 C 0.74372 0.51321 0.15375 0.0
C982 C 0.76884 0.5436 0.21136 0.0
C983 C 0.78796 0.50173 0.18237 0.0
C984 C 0.79355 0.48245 0.22171 0.0
C985 C 0.81501 0.46703 0.21398 0.0
C986 C 0.83126 0.47181 0.16565 0.0
C987 C 0.82609 0.49197 0.12588 0.0
C988 C 0.80393 0.50678 0.13449 0.0
H989 H 0.98055 0.80869 0.16497 0.0
H990 H 0.97498 0.86799 0.291 0.0
H991 H 0.97061 0.83588 0.36987 0.0
H992 H 0.93653 0.76538 0.23791 0.0
H993 H 0.95496 0.73767 0.2195 0.0
H994 H 0.95586 0.76534 0.17253 0.0
H995 H 1.00432 0.76597 0.17982 0.0
H996 H 1.00358 0.73838 0.22695 0.0
H997 H 0.01816 0.76662 0.25021 0.0
H998 H 0.96828 0.79724 0.43569 0.0
H999 H 0.96852 0.75522 0.48353 0.0
H1000 H 0.9774 0.72067 0.31539 0.0
C1001 C 0.97796 0.81495 0.20906 0.0
C1002 C 0.97787 0.84097 0.22164 0.0
C1003 C 0.97499 0.84825 0.28013 0.0
C1004 C 0.97248 0.83012 0.3253 0.0
C1005 C 0.97303 0.80466 0.31155 0.0
C1006 C 0.9757 0.79704 0.25486 0.0
C1007 C 0.97692 0.76844 0.25221 0.0
C1008 C 0.95474 0.75863 0.21855 0.0
C1009 C 1.00225 0.75932 0.22574 0.0
C1010 C 0.97461 0.76119 0.31623 0.0
C1011 C 0.97226 0.78237 0.34963 0.0
C1012 C 0.97014 0.78052 0.4099 0.0
C1013 C 0.97048 0.75643 0.4368 0.0
C1014 C 0.97309 0.73428 0.40373 0.0
C1015 C 0.9751 0.73695 0.34239 0.0
H1016 H 0.47268 0.05287 0.84498 0.0
H1017 H 0.44359 0.09093 0.99743 0.0
H1018 H 0.48642 0.10551 0.01681 0.0
H1019 H 0.52728 0.02902 0.90832 0.0
H1020 H 0.54681 0.03221 0.84362 0.0
H1021 H 0.51353 0.02811 0.83789 0.0
H1022 H 0.51038 0.0692 0.7749 0.0
H1023 H 0.54371 0.07351 0.78075 0.0
H1024 H 0.52186 0.0982 0.80225 0.0
H1025 H 0.53406 0.11208 0.02484 0.0
H1026 H 0.58063 0.10854 0.0221 0.0
H1027 H 0.57777 0.06578 0.86489 0.0
C1028 C 0.47517 0.06475 0.88176 0.0
C1029 C 0.45464 0.07102 0.91926 0.0
C1030 C 0.45895 0.086 0.96785 0.0
C1031 C 0.48326 0.09437 0.97919 0.0
C1032 C 0.50321 0.08735 0.94202 0.0
C1033 C 0.49932 0.07286 0.89423 0.0
C1034 C 0.52395 0.06597 0.86361 0.0
C1035 C 0.52813 0.03713 0.86339 0.0
C1036 C 0.52503 0.07741 0.80171 0.0
C1037 C 0.54244 0.07841 0.90209 0.0
C1038 C 0.53023 0.09095 0.94678 0.0
C1039 C 0.54373 0.10256 0.98955 0.0
C1040 C 0.57024 0.10064 0.98744 0.0
C1041 C 0.58302 0.08713 0.94297 0.0
C1042 C 0.56873 0.07652 0.89915 0.0
H1043 H 0.52832 0.43317 0.92927 0.0
H1044 H 0.5078 0.41584 0.10863 0.0
H1045 H 0.50597 0.46128 0.12928 0.0
H1046 H 0.56637 0.49001 0.95742 0.0
H1047 H 0.55529 0.50687 0.8939 0.0
H1048 H 0.55786 0.47292 0.89457 0.0
H1049 H 0.51115 0.47082 0.86778 0.0
H1050 H 0.50819 0.50471 0.86823 0.0
H1051 H 0.48742 0.48573 0.91332 0.0
H1052 H 0.50311 0.50839 0.12955 0.0
H1053 H 0.50202 0.55455 0.11108 0.0
H1054 H 0.5241 0.5428 0.9315 0.0
C1055 C 0.52446 0.43899 0.9733 0.0
C1056 C 0.51892 0.42084 0.01789 0.0
C1057 C 0.51271 0.42931 0.07428 0.0
C1058 C 0.51142 0.45514 0.0863 0.0
C1059 C 0.51616 0.47258 0.04133 0.0
C1060 C 0.52287 0.46496 0.98604 0.0
C1061 C 0.52575 0.48788 0.94523 0.0
C1062 C 0.55294 0.48952 0.92138 0.0
C1063 C 0.50701 0.48723 0.89572 0.0
C1064 C 0.51931 0.50939 0.98609 0.0
C1065 C 0.51382 0.50004 0.04124 0.0
C1066 C 0.50712 0.51601 0.08644 0.0
C1067 C 0.50631 0.54224 0.07543 0.0
C1068 C 0.51256 0.55258 0.01981 0.0
C1069 C 0.51894 0.53569 0.97449 0.0
H1070 H 0.97243 0.51109 0.88578 0.0
H1071 H 0.95767 0.45887 0.02973 0.0
H1072 H 1.00363 0.45281 0.0422 0.0
H1073 H 0.02909 0.47906 0.8273 0.0
H1074 H 0.04405 0.50843 0.80836 0.0
H1075 H 1.01028 0.50661 0.80845 0.0
H1076 H 1.00675 0.54369 0.8792 0.0
H1077 H 0.04047 0.54549 0.87976 0.0
H1078 H 0.02282 0.54137 0.94698 0.0
H1079 H 0.05242 0.45582 0.04342 0.0
H1080 H 0.09764 0.46573 0.02998 0.0
H1081 H 0.07929 0.51576 0.88479 0.0
C1082 C 0.97878 0.49789 0.91918 0.0
C1083 C 0.96125 0.4852 0.95628 0.0
C1084 C 0.97057 0.46843 0.99994 0.0
C1085 C 0.99672 0.46505 1.00763 0.0
C1086 C 0.01344 0.47841 0.97107 0.0
C1087 C 1.00469 0.49429 0.92725 0.0
C1088 C 0.02619 0.50734 0.89499 0.0
C1089 C 0.02747 0.4999 0.83099 0.0
C1090 C 0.02391 0.53617 0.9006 0.0
C1091 C 0.04852 0.49659 0.92765 0.0
C1092 C 0.04094 0.47995 0.97148 0.0
C1093 C 0.05845 0.46859 0.00868 0.0
C1094 C 0.08417 0.47435 1.00078 0.0
C1095 C 0.0923 0.49137 0.95601 0.0
C1096 C 0.074 0.50243 0.91907 0.0
H1097 H 0.99389 0.07635 0.93549 0.0
H1098 H 0.96301 0.09287 0.10652 0.0
H1099 H 0.96336 0.04728 0.13186 0.0
H1100 H 0.96114 0.01954 0.91355 0.0
H1101 H 0.98741 1.00365 0.8785 0.0
H1102 H 0.98479 0.03754 0.87425 0.0
H1103 H 0.0292 0.04055 0.91691 0.0
H1104 H 0.03173 1.00663 0.92125 0.0
H1105 H 0.03576 0.02477 0.98516 0.0
H1106 H 0.96439 0.99889 0.13612 0.0
H1107 H 0.97058 0.95294 0.12253 0.0
H1108 H 1.00313 0.96817 0.95119 0.0
C1109 C 0.98744 0.07043 0.97852 0.0
C1110 C 0.97844 0.0884 0.01899 0.0
C1111 C 0.97019 0.07966 0.0748 0.0
C1112 C 0.97016 0.05371 0.08952 0.0
C1113 C 0.9788 0.03651 0.04837 0.0
C1114 C 0.98773 0.04457 0.99433 0.0
C1115 C 0.99664 0.02227 0.95855 0.0
C1116 C 0.98159 0.02069 0.9029 0.0
C1117 C 0.02502 0.02364 0.94466 0.0
C1118 C 0.9908 1.0004 1.00025 0.0
C1119 C 0.98037 1.00894 0.05174 0.0
C1120 C 0.97276 0.99208 0.09608 0.0
C1121 C 0.9762 0.96595 0.08785 0.0
C1122 C 0.98738 0.95677 0.03588 0.0
C1123 C 0.99464 0.97443 0.99163 0.0
H1124 H 0.06664 0.03392 0.38156 0.0
H1125 H 0.08784 0.08784 0.50862 0.0
H1126 H 0.04269 0.09821 0.52801 0.0
H1127 H 1.01261 0.06844 0.32509 0.0
H1128 H 0.99466 0.04033 0.3176 0.0
H1129 H 0.02848 0.0387 0.31154 0.0
H1130 H 0.02951 1.00406 0.39269 0.0
H1131 H 0.99573 1.00552 0.399 0.0
H1132 H 0.01432 1.01008 0.46188 0.0
H1133 H 0.99376 0.10175 0.5342 0.0
H1134 H 0.9476 0.09598 0.531 0.0
H1135 H 0.95979 0.03855 0.40238 0.0
C1136 C 0.06193 0.04821 0.41297 0.0
C1137 C 0.08099 0.06027 0.44306 0.0
C1138 C 0.07371 0.07843 0.48466 0.0
C1139 C 0.04806 0.08446 0.49587 0.0
C1140 C 0.02977 0.07205 0.46551 0.0
C1141 C 0.03654 0.05418 0.42511 0.0
C1142 C 0.01358 0.04236 0.40043 0.0
C1143 C 1.01226 0.04779 0.33477 0.0
C1144 C 0.01328 1.01382 0.41436 0.0
C1145 C 0.9927 0.05624 0.43323 0.0
C1146 C 1.00225 0.07352 0.47022 0.0
C1147 C 0.98622 0.08828 0.50522 0.0
C1148 C 0.95996 0.08498 0.50296 0.0
C1149 C 0.94991 0.06685 0.46644 0.0
C1150 C 0.96671 0.0526 0.43084 0.0
H1151 H 0.50771 0.93013 0.57471 0.0
H1152 H 0.54036 0.91894 0.40302 0.0
H1153 H 0.5458 0.96487 0.39006 0.0
H1154 H 0.47505 0.9921 0.5422 0.0
H1155 H 0.48209 1.00328 0.61293 0.0
H1156 H 0.47814 0.97008 0.60229 0.0
H1157 H 0.5239 0.96204 0.64483 0.0
H1158 H 0.52578 0.99563 0.65373 0.0
H1159 H 0.54966 0.97897 0.61209 0.0
H1160 H 0.55154 1.01208 0.39924 0.0
H1161 H 0.55195 0.057 0.42535 0.0
H1162 H 0.51569 0.03798 0.59099 0.0
C1163 C 0.51511 0.93745 0.53362 0.0
C1164 C 0.52312 0.92084 0.48935 0.0
C1165 C 0.53372 0.93123 0.43718 0.0
C1166 C 0.53707 0.95735 0.42954 0.0
C1167 C 0.52991 0.97313 0.47466 0.0
C1168 C 0.51881 0.96365 0.52538 0.0
C1169 C 0.51391 0.98469 0.568 0.0
C1170 C 0.48563 0.98772 0.58225 0.0
C1171 C 0.52918 0.98007 0.62298 0.0
C1172 C 0.52374 1.00734 0.53336 0.0
C1173 C 0.53317 1.00025 0.47982 0.0
C1174 C 0.54399 0.01781 0.44098 0.0
C1175 C 0.54442 0.04333 0.45651 0.0
C1176 C 0.53393 0.05128 0.51035 0.0
C1177 C 0.5239 0.03274 0.54948 0.0
H1178 H 0.57608 0.5272 0.63077 0.0
H1179 H 0.5992 0.53018 0.44898 0.0
H1180 H 0.55499 0.53776 0.42207 0.0
H1181 H 0.52139 0.49384 0.61452 0.0
H1182 H 0.50245 0.51027 0.66801 0.0
H1183 H 0.53602 0.50844 0.67452 0.0
H1184 H 0.53844 0.55676 0.67688 0.0
H1185 H 0.50472 0.55919 0.67151 0.0
H1186 H 0.52466 0.5758 0.61967 0.0
H1187 H 0.50777 0.54122 0.41467 0.0
H1188 H 0.46139 0.54054 0.4264 0.0
H1189 H 0.46873 0.53403 0.61288 0.0
C1190 C 0.57198 0.53002 0.58533 0.0
C1191 C 0.59139 0.5283 0.54208 0.0
C1192 C 0.5849 0.5316 0.48309 0.0
C1193 C 0.55975 0.53595 0.46732 0.0
C1194 C 0.54111 0.53715 0.51096 0.0
C1195 C 0.54693 0.53441 0.56882 0.0
C1196 C 0.52318 0.53503 0.60701 0.0
C1197 C 0.52061 0.51041 0.64311 0.0
C1198 C 0.52273 0.55807 0.64608 0.0
C1199 C 0.50306 0.53758 0.56159 0.0
C1200 C 0.51382 0.53924 0.50654 0.0
C1201 C 0.49906 0.54068 0.4575 0.0
C1202 C 0.4727 0.54024 0.46469 0.0
C1203 C 0.46118 0.53739 0.52056 0.0
C1204 C 0.47676 0.53654 0.56957 0.0
H1205 H 0.98711 0.58057 0.60371 0.0
H1206 H 0.91417 0.59293 0.52685 0.0
H1207 H 0.90797 0.54691 0.52738 0.0
H1208 H 1.00441 0.52572 0.52388 0.0
H1209 H 0.02027 0.51007 0.58322 0.0
H1210 H 0.01842 0.544 0.57887 0.0
H1211 H 0.99792 0.54463 0.68209 0.0
H1212 H 0.99963 0.51068 0.68647 0.0
H1213 H 0.96986 0.52694 0.69743 0.0
H1214 H 0.91066 0.49856 0.53187 0.0
H1215 H 0.92228 0.45309 0.54019 0.0
H1216 H 0.99282 0.47255 0.61603 0.0
C1217 C 0.9697 0.57367 0.58749 0.0
C1218 C 0.9511 0.59063 0.56542 0.0
C1219 C 0.92873 0.58054 0.5442 0.0
C1220 C 0.925 0.55432 0.54432 0.0
C1221 C 0.94375 0.53816 0.56601 0.0
C1222 C 0.96565 0.5475 0.58737 0.0
C1223 C 0.98319 0.5261 0.60671 0.0
C1224 C 1.00804 0.52651 0.57104 0.0
C1225 C 0.98792 0.52716 0.67205 0.0
C1226 C 0.96781 0.50332 0.59282 0.0
C1227 C 0.94511 0.51059 0.56929 0.0
C1228 C 0.92831 0.49272 0.55084 0.0
C1229 C 0.93501 0.46686 0.55591 0.0
C1230 C 0.95832 0.45898 0.57944 0.0
C1231 C 0.97466 0.47768 0.59866 0.0
loop_
_geom_bond_atom_site_label_1
_geom_bond_atom_site_label_2
_geom_bond_distance
_geom_bond_site_symmetry_2
_ccdc_geom_bond_type
Cu0 N1 1.999 . S
Cu0 O6 1.974 . S
Cu0 N11 1.985 1_544 S
Cu0 O20 1.959 . S
N1 Cu0 1.999 . S
N1 C3 1.263 . S
N1 C5 1.389 . S
N2 C3 1.358 . S
N2 C4 1.400 . S
C3 N1 1.263 . S
C3 N2 1.358 . S
C3 H9 0.930 . S
C4 N2 1.400 . S
C4 C5 1.351 . S
C4 H21 0.930 . S
C5 N1 1.389 . S
C5 C4 1.351 . S
C5 H10 0.930 . S
O6 Cu0 1.974 . S
O6 C16 1.282 1_545 S
C7 O8 1.261 . S
C7 O20 1.251 1_565 S
O8 C7 1.261 . S
H9 C3 0.930 . S
H10 C5 0.930 . S
N11 Cu0 1.985 1_566 S
N11 C13 1.335 . S
N11 C14 1.390 . S
N12 C13 1.345 . S
N12 C15 1.336 . S
C13 N11 1.335 . S
C13 N12 1.345 . S
C13 H18 0.930 1_565 S
C14 N11 1.390 . S
C14 C15 1.346 . S
C14 H19 0.930 . S
C15 N12 1.336 . S
C15 C14 1.346 . S
C15 H22 0.929 . S
C16 O6 1.282 1_565 S
C16 O17 1.216 . S
O17 C16 1.216 . S
H18 C13 0.930 1_545 S
H19 C14 0.930 . S
O20 Cu0 1.959 . S
O20 C7 1.251 1_545 S
H21 C4 0.930 . S
H22 C15 0.929 . S
Cu23 N24 1.999 . S
Cu23 O29 1.974 . S
Cu23 N34 1.978 1_554 S
Cu23 O43 1.959 . S
N24 Cu23 1.999 . S
N24 C26 1.263 . S
N24 C28 1.389 . S
N25 C26 1.358 . S
N25 C27 1.400 . S
C26 N24 1.263 . S
C26 N25 1.358 . S
C26 H32 0.930 . S
C27 N25 1.400 . S
C27 C28 1.351 . S
C27 H44 0.930 . S
C28 N24 1.389 . S
C28 C27 1.351 . S
C28 H33 0.930 . S
O29 Cu23 1.974 . S
O29 C39 1.282 . S
C30 O31 1.261 . S
C30 O43 1.251 . S
O31 C30 1.261 . S
H32 C26 0.930 . S
H33 C28 0.930 . S
N34 Cu23 1.978 1_556 S
N34 C36 1.336 . S
N34 C37 1.398 . S
N35 C36 1.345 . S
N35 C38 1.336 . S
C36 N34 1.336 . S
C36 N35 1.345 . S
C36 H41 0.930 1_556 S
C37 N34 1.398 . S
C37 C38 1.346 . S
C37 H42 0.930 . S
C38 N35 1.336 . S
C38 C37 1.346 . S
C38 H45 0.929 . S
C39 O29 1.282 . S
C39 O40 1.216 . S
O40 C39 1.216 . S
H41 C36 0.930 1_554 S
H42 C37 0.930 . S
O43 Cu23 1.959 . S
O43 C30 1.251 . S
H44 C27 0.930 . S
H45 C38 0.929 . S
Cu46 N47 1.999 . S
Cu46 O52 1.974 . S
Cu46 N57 1.985 1_554 S
Cu46 O66 1.959 . S
N47 Cu46 1.999 . S
N47 C49 1.263 . S
N47 C51 1.389 . S
N48 C49 1.358 . S
N48 C50 1.400 . S
C49 N47 1.263 . S
C49 N48 1.358 . S
C49 H55 0.930 . S
C50 N48 1.400 . S
C50 C51 1.351 . S
C50 H67 0.930 . S
C51 N47 1.389 . S
C51 C50 1.351 . S
C51 H56 0.930 . S
O52 Cu46 1.974 . S
O52 C62 1.282 . S
C53 O54 1.261 . S
C53 O66 1.251 . S
O54 C53 1.261 . S
H55 C49 0.930 . S
H56 C51 0.930 . S
N57 Cu46 1.985 1_556 S
N57 C59 1.335 . S
N57 C60 1.390 . S
N58 C59 1.345 . S
N58 C61 1.336 . S
C59 N57 1.335 . S
C59 N58 1.345 . S
C59 H64 0.930 1_556 S
C60 N57 1.390 . S
C60 C61 1.346 . S
C60 H65 0.930 . S
C61 N58 1.336 . S
C61 C60 1.346 . S
C61 H68 0.929 . S
C62 O52 1.282 . S
C62 O63 1.216 . S
O63 C62 1.216 . S
H64 C59 0.930 1_554 S
H65 C60 0.930 . S
O66 Cu46 1.959 . S
O66 C53 1.251 . S
H67 C50 0.930 . S
H68 C61 0.929 . S
Cu69 N70 1.999 . S
Cu69 O75 1.974 1_554 S
Cu69 N80 1.985 1_454 S
Cu69 O89 1.959 . S
N70 Cu69 1.999 . S
N70 C72 1.263 . S
N70 C74 1.389 . S
N71 C72 1.358 . S
N71 C73 1.400 . S
C72 N70 1.263 . S
C72 N71 1.358 . S
C72 H78 0.930 . S
C73 N71 1.400 . S
C73 C74 1.351 . S
C73 H90 0.930 . S
C74 N70 1.389 . S
C74 C73 1.351 . S
C74 H79 0.930 . S
O75 Cu69 1.974 1_556 S
O75 C85 1.282 1_455 S
C76 O77 1.261 . S
C76 O89 1.251 1_655 S
O77 C76 1.261 . S
H78 C72 0.930 . S
H79 C74 0.930 . S
N80 Cu69 1.985 1_656 S
N80 C82 1.335 . S
N80 C83 1.390 . S
N81 C82 1.345 . S
N81 C84 1.336 . S
C82 N80 1.335 . S
C82 N81 1.345 . S
C82 H87 0.930 1_655 S
C83 N80 1.390 . S
C83 C84 1.346 . S
C83 H88 0.930 . S
C84 N81 1.336 . S
C84 C83 1.346 . S
C84 H91 0.929 . S
C85 O75 1.282 1_655 S
C85 O86 1.212 1_556 S
O86 C85 1.212 1_554 S
H87 C82 0.930 1_455 S
H88 C83 0.930 . S
O89 Cu69 1.959 . S
O89 C76 1.251 1_455 S
H90 C73 0.930 . S
H91 C84 0.929 . S
Cu92 N93 1.999 . S
Cu92 O98 1.974 . S
Cu92 N103 1.985 1_565 S
Cu92 O112 1.959 . S
N93 Cu92 1.999 . S
N93 C95 1.263 . S
N93 C97 1.389 . S
N94 C95 1.358 . S
N94 C96 1.400 . S
C95 N93 1.263 . S
C95 N94 1.358 . S
C95 H101 0.930 . S
C96 N94 1.400 . S
C96 C97 1.351 . S
C96 H113 0.930 . S
C97 N93 1.389 . S
C97 C96 1.351 . S
C97 H102 0.930 . S
O98 Cu92 1.974 . S
O98 C108 1.282 1_565 S
C99 O100 1.261 . S
C99 O112 1.251 1_545 S
O100 C99 1.261 . S
H101 C95 0.930 . S
H102 C97 0.930 . S
N103 Cu92 1.985 1_545 S
N103 C105 1.335 . S
N103 C106 1.390 . S
N104 C105 1.345 . S
N104 C107 1.336 . S
C105 N103 1.335 . S
C105 N104 1.345 . S
C105 H110 0.930 1_545 S
C106 N103 1.390 . S
C106 C107 1.346 . S
C106 H111 0.930 . S
C107 N104 1.336 . S
C107 C106 1.346 . S
C107 H114 0.929 . S
C108 O98 1.282 1_545 S
C108 O109 1.216 . S
O109 C108 1.216 . S
H110 C105 0.930 1_565 S
H111 C106 0.930 . S
O112 Cu92 1.959 . S
O112 C99 1.251 1_565 S
H113 C96 0.930 . S
H114 C107 0.929 . S
Cu115 N116 1.999 . S
Cu115 O121 1.974 . S
Cu115 N126 1.985 . S
Cu115 O135 1.959 . S
N116 Cu115 1.999 . S
N116 C118 1.263 . S
N116 C120 1.389 . S
N117 C118 1.358 . S
N117 C119 1.400 . S
C118 N116 1.263 . S
C118 N117 1.358 . S
C118 H124 0.930 . S
C119 N117 1.400 . S
C119 C120 1.351 . S
C119 H136 0.930 . S
C120 N116 1.389 . S
C120 C119 1.351 . S
C120 H125 0.930 . S
O121 Cu115 1.974 . S
O121 C131 1.282 . S
C122 O123 1.261 . S
C122 O135 1.251 . S
O123 C122 1.261 . S
H124 C118 0.930 . S
H125 C120 0.930 . S
N126 Cu115 1.985 . S
N126 C128 1.335 . S
N126 C129 1.390 . S
N127 C128 1.345 . S
N127 C130 1.336 . S
C128 N126 1.335 . S
C128 N127 1.345 . S
C128 H133 0.930 . S
C129 N126 1.390 . S
C129 C130 1.346 . S
C129 H134 0.930 . S
C130 N127 1.336 . S
C130 C129 1.346 . S
C130 H137 0.929 . S
C131 O121 1.282 . S
C131 O132 1.216 . S
O132 C131 1.216 . S
H133 C128 0.930 . S
H134 C129 0.930 . S
O135 Cu115 1.959 . S
O135 C122 1.251 . S
H136 C119 0.930 . S
H137 C130 0.929 . S
Cu138 N139 1.999 . S
Cu138 O144 1.974 . S
Cu138 N149 1.985 . S
Cu138 O158 1.959 . S
N139 Cu138 1.999 . S
N139 C141 1.263 . S
N139 C143 1.389 . S
N140 C141 1.358 . S
N140 C142 1.400 . S
C141 N139 1.263 . S
C141 N140 1.358 . S
C141 H147 0.930 . S
C142 N140 1.400 . S
C142 C143 1.351 . S
C142 H159 0.930 . S
C143 N139 1.389 . S
C143 C142 1.351 . S
C143 H148 0.930 . S
O144 Cu138 1.974 . S
O144 C154 1.282 . S
C145 O146 1.261 . S
C145 O158 1.251 . S
O146 C145 1.261 . S
H147 C141 0.930 . S
H148 C143 0.930 . S
N149 Cu138 1.985 . S
N149 C151 1.335 . S
N149 C152 1.390 . S
N150 C151 1.345 . S
N150 C153 1.336 . S
C151 N149 1.335 . S
C151 N150 1.345 . S
C151 H156 0.930 . S
C152 N149 1.390 . S
C152 C153 1.346 . S
C152 H157 0.930 . S
C153 N150 1.336 . S
C153 C152 1.346 . S
C153 H160 0.929 . S
C154 O144 1.282 . S
C154 O155 1.216 . S
O155 C154 1.216 . S
H156 C151 0.930 . S
H157 C152 0.930 . S
O158 Cu138 1.959 . S
O158 C145 1.251 . S
H159 C142 0.930 . S
H160 C153 0.929 . S
Cu161 N162 1.999 . S
Cu161 O167 1.974 . S
Cu161 N172 1.985 1_655 S
Cu161 O181 1.959 . S
N162 Cu161 1.999 . S
N162 C164 1.263 . S
N162 C166 1.389 . S
N163 C164 1.358 . S
N163 C165 1.400 . S
C164 N162 1.263 . S
C164 N163 1.358 . S
C164 H170 0.930 . S
C165 N163 1.400 . S
C165 C166 1.351 . S
C165 H182 0.930 . S
C166 N162 1.389 . S
C166 C165 1.351 . S
C166 H171 0.930 . S
O167 Cu161 1.974 . S
O167 C177 1.282 1_655 S
C168 O169 1.261 . S
C168 O181 1.251 1_455 S
O169 C168 1.261 . S
H170 C164 0.930 . S
H171 C166 0.930 . S
N172 Cu161 1.985 1_455 S
N172 C174 1.335 . S
N172 C175 1.390 . S
N173 C174 1.345 . S
N173 C176 1.336 . S
C174 N172 1.335 . S
C174 N173 1.345 . S
C174 H179 0.930 1_455 S
C175 N172 1.390 . S
C175 C176 1.346 . S
C175 H180 0.930 . S
C176 N173 1.336 . S
C176 C175 1.346 . S
C176 H183 0.929 . S
C177 O167 1.282 1_455 S
C177 O178 1.216 . S
O178 C177 1.216 . S
H179 C174 0.930 1_655 S
H180 C175 0.930 . S
O181 Cu161 1.959 . S
O181 C168 1.251 1_655 S
H182 C165 0.930 . S
H183 C176 0.929 . S
Cu184 N185 1.999 . S
Cu184 O190 1.974 . S
Cu184 N195 1.985 1_566 S
Cu184 O204 1.959 . S
N185 Cu184 1.999 . S
N185 C187 1.263 . S
N185 C189 1.389 . S
N186 C187 1.358 . S
N186 C188 1.400 . S
C187 N185 1.263 . S
C187 N186 1.358 . S
C187 H193 0.930 . S
C188 N186 1.400 . S
C188 C189 1.351 . S
C188 H205 0.930 . S
C189 N185 1.389 . S
C189 C188 1.351 . S
C189 H194 0.930 . S
O190 Cu184 1.974 . S
O190 C200 1.282 1_565 S
C191 O192 1.261 . S
C191 O204 1.251 1_545 S
O192 C191 1.261 . S
H193 C187 0.930 . S
H194 C189 0.930 . S
N195 Cu184 1.985 1_544 S
N195 C197 1.335 . S
N195 C198 1.390 . S
N196 C197 1.345 . S
N196 C199 1.336 . S
C197 N195 1.335 . S
C197 N196 1.345 . S
C197 H202 0.930 1_545 S
C198 N195 1.390 . S
C198 C199 1.346 . S
C198 H203 0.930 . S
C199 N196 1.336 . S
C199 C198 1.346 . S
C199 H206 0.929 . S
C200 O190 1.282 1_545 S
C200 O201 1.216 . S
O201 C200 1.216 . S
H202 C197 0.930 1_565 S
H203 C198 0.930 . S
O204 Cu184 1.959 . S
O204 C191 1.251 1_565 S
H205 C188 0.930 . S
H206 C199 0.929 . S
Cu207 N208 1.999 . S
Cu207 O213 1.974 . S
Cu207 N218 1.978 1_556 S
Cu207 O227 1.959 . S
N208 Cu207 1.999 . S
N208 C210 1.263 . S
N208 C212 1.389 . S
N209 C210 1.358 . S
N209 C211 1.400 . S
C210 N208 1.263 . S
C210 N209 1.358 . S
C210 H216 0.930 . S
C211 N209 1.400 . S
C211 C212 1.351 . S
C211 H228 0.930 . S
C212 N208 1.389 . S
C212 C211 1.351 . S
C212 H217 0.930 . S
O213 Cu207 1.974 . S
O213 C223 1.282 . S
C214 O215 1.261 . S
C214 O227 1.251 . S
O215 C214 1.261 . S
H216 C210 0.930 . S
H217 C212 0.930 . S
N218 Cu207 1.978 1_554 S
N218 C220 1.336 . S
N218 C221 1.398 . S
N219 C220 1.345 . S
N219 C222 1.336 . S
C220 N218 1.336 . S
C220 N219 1.345 . S
C220 H225 0.930 1_554 S
C221 N218 1.398 . S
C221 C222 1.346 . S
C221 H226 0.930 . S
C222 N219 1.336 . S
C222 C221 1.346 . S
C222 H229 0.929 . S
C223 O213 1.282 . S
C223 O224 1.216 . S
O224 C223 1.216 . S
H225 C220 0.930 1_556 S
H226 C221 0.930 . S
O227 Cu207 1.959 . S
O227 C214 1.251 . S
H228 C211 0.930 . S
H229 C222 0.929 . S
Cu230 N231 1.999 . S
Cu230 O236 1.974 . S
Cu230 N241 1.985 1_556 S
Cu230 O250 1.959 . S
N231 Cu230 1.999 . S
N231 C233 1.263 . S
N231 C235 1.389 . S
N232 C233 1.358 . S
N232 C234 1.400 . S
C233 N231 1.263 . S
C233 N232 1.358 . S
C233 H239 0.930 . S
C234 N232 1.400 . S
C234 C235 1.351 . S
C234 H251 0.930 . S
C235 N231 1.389 . S
C235 C234 1.351 . S
C235 H240 0.930 . S
O236 Cu230 1.974 . S
O236 C246 1.282 . S
C237 O238 1.261 . S
C237 O250 1.251 . S
O238 C237 1.261 . S
H239 C233 0.930 . S
H240 C235 0.930 . S
N241 Cu230 1.985 1_554 S
N241 C243 1.335 . S
N241 C244 1.390 . S
N242 C243 1.345 . S
N242 C245 1.336 . S
C243 N241 1.335 . S
C243 N242 1.345 . S
C243 H248 0.930 1_554 S
C244 N241 1.390 . S
C244 C245 1.346 . S
C244 H249 0.930 . S
C245 N242 1.336 . S
C245 C244 1.346 . S
C245 H252 0.929 . S
C246 O236 1.282 . S
C246 O247 1.216 . S
O247 C246 1.216 . S
H248 C243 0.930 1_556 S
H249 C244 0.930 . S
O250 Cu230 1.959 . S
O250 C237 1.251 . S
H251 C234 0.930 . S
H252 C245 0.929 . S
Cu253 N254 1.999 . S
Cu253 O259 1.974 1_556 S
Cu253 N264 1.985 1_656 S
Cu253 O273 1.959 . S
N254 Cu253 1.999 . S
N254 C256 1.263 . S
N254 C258 1.389 . S
N255 C256 1.358 . S
N255 C257 1.400 . S
C256 N254 1.263 . S
C256 N255 1.358 . S
C256 H262 0.930 . S
C257 N255 1.400 . S
C257 C258 1.351 . S
C257 H274 0.930 . S
C258 N254 1.389 . S
C258 C257 1.351 . S
C258 H263 0.930 . S
O259 Cu253 1.974 1_554 S
O259 C269 1.282 1_655 S
C260 O261 1.261 . S
C260 O273 1.251 1_455 S
O261 C260 1.261 . S
H262 C256 0.930 . S
H263 C258 0.930 . S
N264 Cu253 1.985 1_454 S
N264 C266 1.335 . S
N264 C267 1.390 . S
N265 C266 1.345 . S
N265 C268 1.336 . S
C266 N264 1.335 . S
C266 N265 1.345 . S
C266 H271 0.930 1_455 S
C267 N264 1.390 . S
C267 C268 1.346 . S
C267 H272 0.930 . S
C268 N265 1.336 . S
C268 C267 1.346 . S
C268 H275 0.929 . S
C269 O259 1.282 1_455 S
C269 O270 1.212 1_554 S
O270 C269 1.212 1_556 S
H271 C266 0.930 1_655 S
H272 C267 0.930 . S
O273 Cu253 1.959 . S
O273 C260 1.251 1_655 S
H274 C257 0.930 . S
H275 C268 0.929 . S
Cu276 N277 1.999 . S
Cu276 O282 1.974 . S
Cu276 N287 1.985 1_545 S
Cu276 O296 1.959 . S
N277 Cu276 1.999 . S
N277 C279 1.263 . S
N277 C281 1.389 . S
N278 C279 1.358 . S
N278 C280 1.400 . S
C279 N277 1.263 . S
C279 N278 1.358 . S
C279 H285 0.930 . S
C280 N278 1.400 . S
C280 C281 1.351 . S
C280 H297 0.930 . S
C281 N277 1.389 . S
C281 C280 1.351 . S
C281 H286 0.930 . S
O282 Cu276 1.974 . S
O282 C292 1.282 1_545 S
C283 O284 1.261 . S
C283 O296 1.251 1_565 S
O284 C283 1.261 . S
H285 C279 0.930 . S
H286 C281 0.930 . S
N287 Cu276 1.985 1_565 S
N287 C289 1.335 . S
N287 C290 1.390 . S
N288 C289 1.345 . S
N288 C291 1.336 . S
C289 N287 1.335 . S
C289 N288 1.345 . S
C289 H294 0.930 1_565 S
C290 N287 1.390 . S
C290 C291 1.346 . S
C290 H295 0.930 . S
C291 N288 1.336 . S
C291 C290 1.346 . S
C291 H298 0.929 . S
C292 O282 1.282 1_565 S
C292 O293 1.216 . S
O293 C292 1.216 . S
H294 C289 0.930 1_545 S
H295 C290 0.930 . S
O296 Cu276 1.959 . S
O296 C283 1.251 1_545 S
H297 C280 0.930 . S
H298 C291 0.929 . S
Cu299 N300 1.999 . S
Cu299 O305 1.974 . S
Cu299 N310 1.985 . S
Cu299 O319 1.959 . S
N300 Cu299 1.999 . S
N300 C302 1.263 . S
N300 C304 1.389 . S
N301 C302 1.358 . S
N301 C303 1.400 . S
C302 N300 1.263 . S
C302 N301 1.358 . S
C302 H308 0.930 . S
C303 N301 1.400 . S
C303 C304 1.351 . S
C303 H320 0.930 . S
C304 N300 1.389 . S
C304 C303 1.351 . S
C304 H309 0.930 . S
O305 Cu299 1.974 . S
O305 C315 1.282 . S
C306 O307 1.261 . S
C306 O319 1.251 . S
O307 C306 1.261 . S
H308 C302 0.930 . S
H309 C304 0.930 . S
N310 Cu299 1.985 . S
N310 C312 1.335 . S
N310 C313 1.390 . S
N311 C312 1.345 . S
N311 C314 1.336 . S
C312 N310 1.335 . S
C312 N311 1.345 . S
C312 H317 0.930 . S
C313 N310 1.390 . S
C313 C314 1.346 . S
C313 H318 0.930 . S
C314 N311 1.336 . S
C314 C313 1.346 . S
C314 H321 0.929 . S
C315 O305 1.282 . S
C315 O316 1.216 . S
O316 C315 1.216 . S
H317 C312 0.930 . S
H318 C313 0.930 . S
O319 Cu299 1.959 . S
O319 C306 1.251 . S
H320 C303 0.930 . S
H321 C314 0.929 . S
Cu322 N323 1.999 . S
Cu322 O328 1.974 . S
Cu322 N333 1.985 . S
Cu322 O342 1.959 . S
N323 Cu322 1.999 . S
N323 C325 1.263 . S
N323 C327 1.389 . S
N324 C325 1.358 . S
N324 C326 1.400 . S
C325 N323 1.263 . S
C325 N324 1.358 . S
C325 H331 0.930 . S
C326 N324 1.400 . S
C326 C327 1.351 . S
C326 H343 0.930 . S
C327 N323 1.389 . S
C327 C326 1.351 . S
C327 H332 0.930 . S
O328 Cu322 1.974 . S
O328 C338 1.282 . S
C329 O330 1.261 . S
C329 O342 1.251 . S
O330 C329 1.261 . S
H331 C325 0.930 . S
H332 C327 0.930 . S
N333 Cu322 1.985 . S
N333 C335 1.335 . S
N333 C336 1.390 . S
N334 C335 1.345 . S
N334 C337 1.336 . S
C335 N333 1.335 . S
C335 N334 1.345 . S
C335 H340 0.930 . S
C336 N333 1.390 . S
C336 C337 1.346 . S
C336 H341 0.930 . S
C337 N334 1.336 . S
C337 C336 1.346 . S
C337 H344 0.929 . S
C338 O328 1.282 . S
C338 O339 1.216 . S
O339 C338 1.216 . S
H340 C335 0.930 . S
H341 C336 0.930 . S
O342 Cu322 1.959 . S
O342 C329 1.251 . S
H343 C326 0.930 . S
H344 C337 0.929 . S
Cu345 N346 1.999 . S
Cu345 O351 1.974 . S
Cu345 N356 1.985 1_455 S
Cu345 O365 1.959 . S
N346 Cu345 1.999 . S
N346 C348 1.263 . S
N346 C350 1.389 . S
N347 C348 1.358 . S
N347 C349 1.400 . S
C348 N346 1.263 . S
C348 N347 1.358 . S
C348 H354 0.930 . S
C349 N347 1.400 . S
C349 C350 1.351 . S
C349 H366 0.930 . S
C350 N346 1.389 . S
C350 C349 1.351 . S
C350 H355 0.930 . S
O351 Cu345 1.974 . S
O351 C361 1.282 1_455 S
C352 O353 1.261 . S
C352 O365 1.251 1_655 S
O353 C352 1.261 . S
H354 C348 0.930 . S
H355 C350 0.930 . S
N356 Cu345 1.985 1_655 S
N356 C358 1.335 . S
N356 C359 1.390 . S
N357 C358 1.345 . S
N357 C360 1.336 . S
C358 N356 1.335 . S
C358 N357 1.345 . S
C358 H363 0.930 1_655 S
C359 N356 1.390 . S
C359 C360 1.346 . S
C359 H364 0.930 . S
C360 N357 1.336 . S
C360 C359 1.346 . S
C360 H367 0.929 . S
C361 O351 1.282 1_655 S
C361 O362 1.216 . S
O362 C361 1.216 . S
H363 C358 0.930 1_455 S
H364 C359 0.930 . S
O365 Cu345 1.959 . S
O365 C352 1.251 1_455 S
H366 C349 0.930 . S
H367 C360 0.929 . S
H368 C380 0.930 . S
H369 C382 0.930 . S
H370 C383 0.930 . S
H371 C387 0.959 . S
H372 C387 0.959 1_565 S
H373 C387 0.961 . S
H374 C388 0.960 . S
H375 C388 0.961 . S
H376 C388 0.959 . S
H377 C391 0.929 . S
H378 C392 0.931 . S
H379 C394 0.930 . S
C380 H368 0.930 . S
C380 C381 1.399 . S
C380 C385 1.399 . S
C381 C380 1.399 . S
C381 C382 1.376 . S
C382 H369 0.930 . S
C382 C381 1.376 . S
C382 C383 1.388 . S
C383 H370 0.930 . S
C383 C382 1.388 . S
C383 C384 1.390 . S
C384 C383 1.390 . S
C384 C385 1.394 . S
C384 C390 1.465 . S
C385 C380 1.399 . S
C385 C384 1.394 . S
C385 C386 1.516 . S
C386 C385 1.516 . S
C386 C387 1.502 . S
C386 C388 1.561 . S
C386 C389 1.526 . S
C387 H371 0.959 . S
C387 H372 0.959 1_545 S
C387 H373 0.961 . S
C387 C386 1.502 . S
C388 H374 0.960 . S
C388 H375 0.961 . S
C388 H376 0.959 . S
C388 C386 1.561 . S
C389 C386 1.526 . S
C389 C390 1.396 . S
C389 C394 1.390 . S
C390 C384 1.465 . S
C390 C389 1.396 . S
C390 C391 1.399 . S
C391 H377 0.929 . S
C391 C390 1.399 . S
C391 C392 1.385 . S
C392 H378 0.931 . S
C392 C391 1.385 . S
C392 C393 1.389 . S
C393 C392 1.389 . S
C393 C394 1.387 . S
C394 H379 0.930 . S
C394 C389 1.390 . S
C394 C393 1.387 . S
H395 C407 0.930 . S
H396 C409 0.930 . S
H397 C410 0.930 . S
H398 C414 0.959 . S
H399 C414 0.959 . S
H400 C414 0.961 . S
H401 C415 0.960 . S
H402 C415 0.961 . S
H403 C415 0.959 . S
H404 C418 0.929 . S
H405 C419 0.931 . S
H406 C421 0.930 . S
C407 H395 0.930 . S
C407 C408 1.399 . S
C407 C412 1.399 . S
C408 C407 1.399 . S
C408 C409 1.376 . S
C409 H396 0.930 . S
C409 C408 1.376 . S
C409 C410 1.388 . S
C410 H397 0.930 . S
C410 C409 1.388 . S
C410 C411 1.390 . S
C411 C410 1.390 . S
C411 C412 1.394 . S
C411 C417 1.465 . S
C412 C407 1.399 . S
C412 C411 1.394 . S
C412 C413 1.516 . S
C413 C412 1.516 . S
C413 C414 1.502 . S
C413 C415 1.561 . S
C413 C416 1.526 . S
C414 H398 0.959 . S
C414 H399 0.959 . S
C414 H400 0.961 . S
C414 C413 1.502 . S
C415 H401 0.960 . S
C415 H402 0.961 . S
C415 H403 0.959 . S
C415 C413 1.561 . S
C416 C413 1.526 . S
C416 C417 1.396 . S
C416 C421 1.390 . S
C417 C411 1.465 . S
C417 C416 1.396 . S
C417 C418 1.399 . S
C418 H404 0.929 . S
C418 C417 1.399 . S
C418 C419 1.385 . S
C419 H405 0.931 . S
C419 C418 1.385 . S
C419 C420 1.389 . S
C420 C419 1.389 . S
C420 C421 1.387 . S
C421 H406 0.930 . S
C421 C416 1.390 . S
C421 C420 1.387 . S
H422 C434 0.930 . S
H423 C436 0.930 . S
H424 C437 0.930 . S
H425 C441 0.959 . S
H426 C441 0.959 . S
H427 C441 0.961 . S
H428 C442 0.960 . S
H429 C442 0.961 . S
H430 C442 0.959 . S
H431 C445 0.929 . S
H432 C446 0.931 . S
H433 C448 0.930 . S
C434 H422 0.930 . S
C434 C435 1.399 . S
C434 C439 1.399 . S
C435 C434 1.399 . S
C435 C436 1.376 . S
C436 H423 0.930 . S
C436 C435 1.376 . S
C436 C437 1.388 . S
C437 H424 0.930 . S
C437 C436 1.388 . S
C437 C438 1.390 . S
C438 C437 1.390 . S
C438 C439 1.394 . S
C438 C444 1.465 . S
C439 C434 1.399 . S
C439 C438 1.394 . S
C439 C440 1.516 . S
C440 C439 1.516 . S
C440 C441 1.502 . S
C440 C442 1.561 . S
C440 C443 1.526 . S
C441 H425 0.959 . S
C441 H426 0.959 . S
C441 H427 0.961 . S
C441 C440 1.502 . S
C442 H428 0.960 . S
C442 H429 0.961 . S
C442 H430 0.959 . S
C442 C440 1.561 . S
C443 C440 1.526 . S
C443 C444 1.396 . S
C443 C448 1.390 . S
C444 C438 1.465 . S
C444 C443 1.396 . S
C444 C445 1.399 . S
C445 H431 0.929 . S
C445 C444 1.399 . S
C445 C446 1.385 . S
C446 H432 0.931 . S
C446 C445 1.385 . S
C446 C447 1.389 . S
C447 C446 1.389 . S
C447 C448 1.387 . S
C448 H433 0.930 . S
C448 C443 1.390 . S
C448 C447 1.387 . S
H449 C461 0.930 . S
H450 C463 0.930 . S
H451 C464 0.930 . S
H452 C468 0.959 . S
H453 C468 0.959 . S
H454 C468 0.961 . S
H455 C469 0.960 . S
H456 C469 0.961 . S
H457 C469 0.959 . S
H458 C472 0.929 . S
H459 C473 0.931 . S
H460 C475 0.930 . S
C461 H449 0.930 . S
C461 C462 1.399 . S
C461 C466 1.399 . S
C462 C461 1.399 . S
C462 C463 1.376 . S
C463 H450 0.930 . S
C463 C462 1.376 . S
C463 C464 1.388 . S
C464 H451 0.930 . S
C464 C463 1.388 . S
C464 C465 1.390 . S
C465 C464 1.390 . S
C465 C466 1.394 . S
C465 C471 1.465 . S
C466 C461 1.399 . S
C466 C465 1.394 . S
C466 C467 1.516 . S
C467 C466 1.516 . S
C467 C468 1.502 . S
C467 C469 1.561 . S
C467 C470 1.526 . S
C468 H452 0.959 . S
C468 H453 0.959 . S
C468 H454 0.961 . S
C468 C467 1.502 . S
C469 H455 0.960 . S
C469 H456 0.961 . S
C469 H457 0.959 . S
C469 C467 1.561 . S
C470 C467 1.526 . S
C470 C471 1.396 . S
C470 C475 1.390 . S
C471 C465 1.465 . S
C471 C470 1.396 . S
C471 C472 1.399 . S
C472 H458 0.929 . S
C472 C471 1.399 . S
C472 C473 1.385 . S
C473 H459 0.931 . S
C473 C472 1.385 . S
C473 C474 1.389 . S
C474 C473 1.389 . S
C474 C475 1.387 . S
C475 H460 0.930 . S
C475 C470 1.390 . S
C475 C474 1.387 . S
H476 C488 0.930 . S
H477 C490 0.930 . S
H478 C491 0.930 . S
H479 C495 0.959 . S
H480 C495 0.959 . S
H481 C495 0.961 . S
H482 C496 0.960 . S
H483 C496 0.961 . S
H484 C496 0.959 . S
H485 C499 0.929 . S
H486 C500 0.931 . S
H487 C502 0.930 . S
C488 H476 0.930 . S
C488 C489 1.399 . S
C488 C493 1.399 . S
C489 C488 1.399 . S
C489 C490 1.376 . S
C490 H477 0.930 . S
C490 C489 1.376 . S
C490 C491 1.388 . S
C491 H478 0.930 . S
C491 C490 1.388 . S
C491 C492 1.390 . S
C492 C491 1.390 . S
C492 C493 1.394 . S
C492 C498 1.465 . S
C493 C488 1.399 . S
C493 C492 1.394 . S
C493 C494 1.516 . S
C494 C493 1.516 . S
C494 C495 1.502 . S
C494 C496 1.561 . S
C494 C497 1.526 . S
C495 H479 0.959 . S
C495 H480 0.959 . S
C495 H481 0.961 . S
C495 C494 1.502 . S
C496 H482 0.960 . S
C496 H483 0.961 . S
C496 H484 0.959 . S
C496 C494 1.561 . S
C497 C494 1.526 . S
C497 C498 1.396 . S
C497 C502 1.390 . S
C498 C492 1.465 . S
C498 C497 1.396 . S
C498 C499 1.399 . S
C499 H485 0.929 . S
C499 C498 1.399 . S
C499 C500 1.385 . S
C500 H486 0.931 . S
C500 C499 1.385 . S
C500 C501 1.389 . S
C501 C500 1.389 . S
C501 C502 1.387 . S
C502 H487 0.930 . S
C502 C497 1.390 . S
C502 C501 1.387 . S
H503 C515 0.930 . S
H504 C517 0.930 . S
H505 C518 0.930 . S
H506 C522 0.959 . S
H507 C522 0.959 . S
H508 C522 0.961 . S
H509 C523 0.960 . S
H510 C523 0.961 . S
H511 C523 0.959 . S
H512 C526 0.929 . S
H513 C527 0.931 . S
H514 C529 0.930 . S
C515 H503 0.930 . S
C515 C516 1.399 . S
C515 C520 1.399 . S
C516 C515 1.399 . S
C516 C517 1.376 . S
C517 H504 0.930 . S
C517 C516 1.376 . S
C517 C518 1.388 . S
C518 H505 0.930 . S
C518 C517 1.388 . S
C518 C519 1.390 . S
C519 C518 1.390 . S
C519 C520 1.394 . S
C519 C525 1.465 . S
C520 C515 1.399 . S
C520 C519 1.394 . S
C520 C521 1.516 . S
C521 C520 1.516 . S
C521 C522 1.502 . S
C521 C523 1.561 . S
C521 C524 1.526 . S
C522 H506 0.959 . S
C522 H507 0.959 . S
C522 H508 0.961 . S
C522 C521 1.502 . S
C523 H509 0.960 . S
C523 H510 0.961 . S
C523 H511 0.959 . S
C523 C521 1.561 . S
C524 C521 1.526 . S
C524 C525 1.396 . S
C524 C529 1.390 . S
C525 C519 1.465 . S
C525 C524 1.396 . S
C525 C526 1.399 . S
C526 H512 0.929 . S
C526 C525 1.399 . S
C526 C527 1.385 . S
C527 H513 0.931 . S
C527 C526 1.385 . S
C527 C528 1.389 . S
C528 C527 1.389 . S
C528 C529 1.387 . S
C529 H514 0.930 . S
C529 C524 1.390 . S
C529 C528 1.387 . S
H530 C542 0.930 . S
H531 C544 0.930 . S
H532 C545 0.930 . S
H533 C549 0.959 . S
H534 C549 0.959 . S
H535 C549 0.961 . S
H536 C550 0.960 . S
H537 C550 0.961 . S
H538 C550 0.959 . S
H539 C553 0.929 . S
H540 C554 0.931 . S
H541 C556 0.930 . S
C542 H530 0.930 . S
C542 C543 1.399 . S
C542 C547 1.399 . S
C543 C542 1.399 . S
C543 C544 1.376 . S
C544 H531 0.930 . S
C544 C543 1.376 . S
C544 C545 1.388 . S
C545 H532 0.930 . S
C545 C544 1.388 . S
C545 C546 1.390 . S
C546 C545 1.390 . S
C546 C547 1.394 . S
C546 C552 1.465 . S
C547 C542 1.399 . S
C547 C546 1.394 . S
C547 C548 1.516 . S
C548 C547 1.516 . S
C548 C549 1.502 . S
C548 C550 1.561 . S
C548 C551 1.526 . S
C549 H533 0.959 . S
C549 H534 0.959 . S
C549 H535 0.961 . S
C549 C548 1.502 . S
C550 H536 0.960 . S
C550 H537 0.961 . S
C550 H538 0.959 . S
C550 C548 1.561 . S
C551 C548 1.526 . S
C551 C552 1.396 . S
C551 C556 1.390 . S
C552 C546 1.465 . S
C552 C551 1.396 . S
C552 C553 1.399 . S
C553 H539 0.929 . S
C553 C552 1.399 . S
C553 C554 1.385 . S
C554 H540 0.931 . S
C554 C553 1.385 . S
C554 C555 1.389 . S
C555 C554 1.389 . S
C555 C556 1.387 . S
C556 H541 0.930 . S
C556 C551 1.390 . S
C556 C555 1.387 . S
H557 C569 0.930 . S
H558 C571 0.930 . S
H559 C572 0.930 . S
H560 C576 0.959 . S
H561 C576 0.959 . S
H562 C576 0.961 . S
H563 C577 0.960 . S
H564 C577 0.961 . S
H565 C577 0.959 . S
H566 C580 0.929 . S
H567 C581 0.931 . S
H568 C583 0.930 . S
C569 H557 0.930 . S
C569 C570 1.399 . S
C569 C574 1.399 . S
C570 C569 1.399 . S
C570 C571 1.376 . S
C571 H558 0.930 . S
C571 C570 1.376 . S
C571 C572 1.388 . S
C572 H559 0.930 . S
C572 C571 1.388 . S
C572 C573 1.390 . S
C573 C572 1.390 . S
C573 C574 1.394 . S
C573 C579 1.465 . S
C574 C569 1.399 . S
C574 C573 1.394 . S
C574 C575 1.516 . S
C575 C574 1.516 . S
C575 C576 1.502 . S
C575 C577 1.561 . S
C575 C578 1.526 . S
C576 H560 0.959 . S
C576 H561 0.959 . S
C576 H562 0.961 . S
C576 C575 1.502 . S
C577 H563 0.960 . S
C577 H564 0.961 . S
C577 H565 0.959 . S
C577 C575 1.561 . S
C578 C575 1.526 . S
C578 C579 1.396 . S
C578 C583 1.390 . S
C579 C573 1.465 . S
C579 C578 1.396 . S
C579 C580 1.399 . S
C580 H566 0.929 . S
C580 C579 1.399 . S
C580 C581 1.385 . S
C581 H567 0.931 . S
C581 C580 1.385 . S
C581 C582 1.389 . S
C582 C581 1.389 . S
C582 C583 1.387 . S
C583 H568 0.930 . S
C583 C578 1.390 . S
C583 C582 1.387 . S
H584 C596 0.930 . S
H585 C598 0.931 . S
H586 C599 0.930 1_545 S
H587 C603 0.959 . S
H588 C603 0.959 . S
H589 C603 0.961 . S
H590 C604 0.960 . S
H591 C604 0.961 . S
H592 C604 0.959 . S
H593 C607 0.929 . S
H594 C608 0.931 . S
H595 C610 0.930 . S
C596 H584 0.930 . S
C596 C597 1.399 . S
C596 C601 1.399 . S
C597 C596 1.399 . S
C597 C598 1.376 . S
C598 H585 0.931 . S
C598 C597 1.376 . S
C598 C599 1.388 . S
C599 H586 0.930 1_565 S
C599 C598 1.388 . S
C599 C600 1.390 . S
C600 C599 1.390 . S
C600 C601 1.394 . S
C600 C606 1.465 . S
C601 C596 1.399 . S
C601 C600 1.394 . S
C601 C602 1.516 . S
C602 C601 1.516 . S
C602 C603 1.502 . S
C602 C604 1.561 . S
C602 C605 1.526 . S
C603 H587 0.959 . S
C603 H588 0.959 . S
C603 H589 0.961 . S
C603 C602 1.502 . S
C604 H590 0.960 . S
C604 H591 0.961 . S
C604 H592 0.959 . S
C604 C602 1.561 . S
C605 C602 1.526 . S
C605 C606 1.396 . S
C605 C610 1.390 . S
C606 C600 1.465 . S
C606 C605 1.396 . S
C606 C607 1.399 1_565 S
C607 H593 0.929 . S
C607 C606 1.399 1_545 S
C607 C608 1.385 . S
C608 H594 0.931 . S
C608 C607 1.385 . S
C608 C609 1.389 1_545 S
C609 C608 1.389 1_565 S
C609 C610 1.387 . S
C610 H595 0.930 . S
C610 C605 1.390 . S
C610 C609 1.387 . S
H611 C623 0.930 . S
H612 C625 0.930 . S
H613 C626 0.930 . S
H614 C630 0.959 . S
H615 C630 0.959 . S
H616 C630 0.961 . S
H617 C631 0.960 . S
H618 C631 0.961 . S
H619 C631 0.959 . S
H620 C634 0.929 . S
H621 C635 0.931 . S
H622 C637 0.930 . S
C623 H611 0.930 . S
C623 C624 1.399 . S
C623 C628 1.399 . S
C624 C623 1.399 . S
C624 C625 1.376 . S
C625 H612 0.930 . S
C625 C624 1.376 . S
C625 C626 1.388 . S
C626 H613 0.930 . S
C626 C625 1.388 . S
C626 C627 1.390 . S
C627 C626 1.390 . S
C627 C628 1.394 . S
C627 C633 1.465 . S
C628 C623 1.399 . S
C628 C627 1.394 . S
C628 C629 1.516 . S
C629 C628 1.516 . S
C629 C630 1.502 . S
C629 C631 1.561 . S
C629 C632 1.526 . S
C630 H614 0.959 . S
C630 H615 0.959 . S
C630 H616 0.961 . S
C630 C629 1.502 . S
C631 H617 0.960 . S
C631 H618 0.961 . S
C631 H619 0.959 . S
C631 C629 1.561 . S
C632 C629 1.526 . S
C632 C633 1.396 . S
C632 C637 1.390 . S
C633 C627 1.465 . S
C633 C632 1.396 . S
C633 C634 1.399 . S
C634 H620 0.929 . S
C634 C633 1.399 . S
C634 C635 1.385 . S
C635 H621 0.931 . S
C635 C634 1.385 . S
C635 C636 1.389 . S
C636 C635 1.389 . S
C636 C637 1.387 . S
C637 H622 0.930 . S
C637 C632 1.390 . S
C637 C636 1.387 . S
H638 C650 0.930 . S
H639 C652 0.930 . S
H640 C653 0.930 . S
H641 C657 0.959 . S
H642 C657 0.959 . S
H643 C657 0.961 . S
H644 C658 0.960 . S
H645 C658 0.961 . S
H646 C658 0.959 . S
H647 C661 0.929 . S
H648 C662 0.931 . S
H649 C664 0.930 . S
C650 H638 0.930 . S
C650 C651 1.399 . S
C650 C655 1.399 . S
C651 C650 1.399 . S
C651 C652 1.376 . S
C652 H639 0.930 . S
C652 C651 1.376 . S
C652 C653 1.388 . S
C653 H640 0.930 . S
C653 C652 1.388 . S
C653 C654 1.390 . S
C654 C653 1.390 . S
C654 C655 1.394 . S
C654 C660 1.465 . S
C655 C650 1.399 . S
C655 C654 1.394 . S
C655 C656 1.516 . S
C656 C655 1.516 . S
C656 C657 1.502 . S
C656 C658 1.561 . S
C656 C659 1.526 . S
C657 H641 0.959 . S
C657 H642 0.959 . S
C657 H643 0.961 . S
C657 C656 1.502 . S
C658 H644 0.960 . S
C658 H645 0.961 . S
C658 H646 0.959 . S
C658 C656 1.561 . S
C659 C656 1.526 . S
C659 C660 1.396 . S
C659 C664 1.390 . S
C660 C654 1.465 . S
C660 C659 1.396 . S
C660 C661 1.399 . S
C661 H647 0.929 . S
C661 C660 1.399 . S
C661 C662 1.385 . S
C662 H648 0.931 . S
C662 C661 1.385 . S
C662 C663 1.389 . S
C663 C662 1.389 . S
C663 C664 1.387 . S
C664 H649 0.930 . S
C664 C659 1.390 . S
C664 C663 1.387 . S
H665 C677 0.930 . S
H666 C679 0.930 . S
H667 C680 0.930 1_455 S
H668 C684 0.959 . S
H669 C684 0.959 . S
H670 C684 0.961 . S
H671 C685 0.961 . S
H672 C685 0.962 . S
H673 C685 0.953 1_455 S
H674 C688 0.929 . S
H675 C689 0.931 . S
H676 C691 0.930 . S
C677 H665 0.930 . S
C677 C678 1.399 . S
C677 C682 1.399 . S
C678 C677 1.399 . S
C678 C679 1.376 . S
C679 H666 0.930 . S
C679 C678 1.376 . S
C679 C680 1.388 . S
C680 H667 0.930 1_655 S
C680 C679 1.388 . S
C680 C681 1.390 . S
C681 C680 1.390 . S
C681 C682 1.394 . S
C681 C687 1.465 . S
C682 C677 1.399 . S
C682 C681 1.394 . S
C682 C683 1.516 . S
C683 C682 1.516 . S
C683 C684 1.502 . S
C683 C685 1.565 . S
C683 C686 1.526 . S
C684 H668 0.959 . S
C684 H669 0.959 . S
C684 H670 0.961 . S
C684 C683 1.502 . S
C685 H671 0.961 . S
C685 H672 0.962 . S
C685 H673 0.953 1_655 S
C685 C683 1.565 . S
C686 C683 1.526 . S
C686 C687 1.396 . S
C686 C691 1.390 . S
C687 C681 1.465 . S
C687 C686 1.396 . S
C687 C688 1.399 1_655 S
C688 H674 0.929 . S
C688 C687 1.399 1_455 S
C688 C689 1.385 . S
C689 H675 0.931 . S
C689 C688 1.385 . S
C689 C690 1.389 1_455 S
C690 C689 1.389 1_655 S
C690 C691 1.387 . S
C691 H676 0.930 . S
C691 C686 1.390 . S
C691 C690 1.387 . S
H692 C704 0.930 1_565 S
H693 C706 0.930 . S
H694 C707 0.930 . S
H695 C711 0.959 1_545 S
H696 C711 0.959 . S
H697 C711 0.961 . S
H698 C712 0.960 . S
H699 C712 0.961 . S
H700 C712 0.959 . S
H701 C715 0.929 . S
H702 C716 0.931 . S
H703 C718 0.930 . S
C704 H692 0.930 1_545 S
C704 C705 1.399 . S
C704 C709 1.399 . S
C705 C704 1.399 . S
C705 C706 1.376 . S
C706 H693 0.930 . S
C706 C705 1.376 . S
C706 C707 1.388 . S
C707 H694 0.930 . S
C707 C706 1.388 . S
C707 C708 1.390 . S
C708 C707 1.390 . S
C708 C709 1.394 . S
C708 C714 1.465 . S
C709 C704 1.399 . S
C709 C708 1.394 . S
C709 C710 1.516 1_545 S
C710 C709 1.516 1_565 S
C710 C711 1.502 . S
C710 C712 1.561 . S
C710 C713 1.528 1_565 S
C711 H695 0.959 1_565 S
C711 H696 0.959 . S
C711 H697 0.961 . S
C711 C710 1.502 . S
C712 H698 0.960 . S
C712 H699 0.961 . S
C712 H700 0.959 . S
C712 C710 1.561 . S
C713 C710 1.528 1_545 S
C713 C714 1.393 . S
C713 C718 1.390 1_545 S
C714 C708 1.465 . S
C714 C713 1.393 . S
C714 C715 1.399 . S
C715 H701 0.929 . S
C715 C714 1.399 . S
C715 C716 1.385 . S
C716 H702 0.931 . S
C716 C715 1.385 . S
C716 C717 1.389 . S
C717 C716 1.389 . S
C717 C718 1.387 1_545 S
C718 H703 0.930 . S
C718 C713 1.390 1_565 S
C718 C717 1.387 1_565 S
H719 C731 0.930 . S
H720 C733 0.930 . S
H721 C734 0.930 . S
H722 C738 0.959 . S
H723 C738 0.959 . S
H724 C738 0.961 . S
H725 C739 0.960 . S
H726 C739 0.961 . S
H727 C739 0.959 . S
H728 C742 0.929 . S
H729 C743 0.931 . S
H730 C745 0.930 . S
C731 H719 0.930 . S
C731 C732 1.399 . S
C731 C736 1.399 . S
C732 C731 1.399 . S
C732 C733 1.376 . S
C733 H720 0.930 . S
C733 C732 1.376 . S
C733 C734 1.388 . S
C734 H721 0.930 . S
C734 C733 1.388 . S
C734 C735 1.390 . S
C735 C734 1.390 . S
C735 C736 1.394 . S
C735 C741 1.465 . S
C736 C731 1.399 . S
C736 C735 1.394 . S
C736 C737 1.516 . S
C737 C736 1.516 . S
C737 C738 1.502 . S
C737 C739 1.561 . S
C737 C740 1.526 . S
C738 H722 0.959 . S
C738 H723 0.959 . S
C738 H724 0.961 . S
C738 C737 1.502 . S
C739 H725 0.960 . S
C739 H726 0.961 . S
C739 H727 0.959 . S
C739 C737 1.561 . S
C740 C737 1.526 . S
C740 C741 1.396 . S
C740 C745 1.390 . S
C741 C735 1.465 . S
C741 C740 1.396 . S
C741 C742 1.399 . S
C742 H728 0.929 . S
C742 C741 1.399 . S
C742 C743 1.385 . S
C743 H729 0.931 . S
C743 C742 1.385 . S
C743 C744 1.389 . S
C744 C743 1.389 . S
C744 C745 1.387 . S
C745 H730 0.930 . S
C745 C740 1.390 . S
C745 C744 1.387 . S
H746 C758 0.930 . S
H747 C760 0.930 . S
H748 C761 0.930 . S
H749 C765 0.959 . S
H750 C765 0.959 . S
H751 C765 0.961 . S
H752 C766 0.960 . S
H753 C766 0.961 . S
H754 C766 0.959 . S
H755 C769 0.929 . S
H756 C770 0.931 . S
H757 C772 0.930 . S
C758 H746 0.930 . S
C758 C759 1.399 . S
C758 C763 1.399 . S
C759 C758 1.399 . S
C759 C760 1.376 . S
C760 H747 0.930 . S
C760 C759 1.376 . S
C760 C761 1.388 . S
C761 H748 0.930 . S
C761 C760 1.388 . S
C761 C762 1.390 . S
C762 C761 1.390 . S
C762 C763 1.394 . S
C762 C768 1.465 . S
C763 C758 1.399 . S
C763 C762 1.394 . S
C763 C764 1.516 . S
C764 C763 1.516 . S
C764 C765 1.502 . S
C764 C766 1.561 . S
C764 C767 1.526 . S
C765 H749 0.959 . S
C765 H750 0.959 . S
C765 H751 0.961 . S
C765 C764 1.502 . S
C766 H752 0.960 . S
C766 H753 0.961 . S
C766 H754 0.959 . S
C766 C764 1.561 . S
C767 C764 1.526 . S
C767 C768 1.396 . S
C767 C772 1.390 . S
C768 C762 1.465 . S
C768 C767 1.396 . S
C768 C769 1.399 . S
C769 H755 0.929 . S
C769 C768 1.399 . S
C769 C770 1.385 . S
C770 H756 0.931 . S
C770 C769 1.385 . S
C770 C771 1.389 . S
C771 C770 1.389 . S
C771 C772 1.387 . S
C772 H757 0.930 . S
C772 C767 1.390 . S
C772 C771 1.387 . S
H773 C785 0.930 . S
H774 C787 0.930 . S
H775 C788 0.930 . S
H776 C792 0.959 . S
H777 C792 0.959 . S
H778 C792 0.961 . S
H779 C793 0.960 . S
H780 C793 0.961 . S
H781 C793 0.959 . S
H782 C796 0.929 . S
H783 C797 0.931 . S
H784 C799 0.930 1_655 S
C785 H773 0.930 . S
C785 C786 1.399 . S
C785 C790 1.399 . S
C786 C785 1.399 . S
C786 C787 1.376 . S
C787 H774 0.930 . S
C787 C786 1.376 . S
C787 C788 1.388 . S
C788 H775 0.930 . S
C788 C787 1.388 . S
C788 C789 1.390 . S
C789 C788 1.390 . S
C789 C790 1.394 . S
C789 C795 1.465 . S
C790 C785 1.399 . S
C790 C789 1.394 . S
C790 C791 1.516 . S
C791 C790 1.516 . S
C791 C792 1.502 1_455 S
C791 C793 1.561 . S
C791 C794 1.526 . S
C792 H776 0.959 . S
C792 H777 0.959 . S
C792 H778 0.961 . S
C792 C791 1.502 1_655 S
C793 H779 0.960 . S
C793 H780 0.961 . S
C793 H781 0.959 . S
C793 C791 1.561 . S
C794 C791 1.526 . S
C794 C795 1.396 . S
C794 C799 1.390 . S
C795 C789 1.465 . S
C795 C794 1.396 . S
C795 C796 1.399 . S
C796 H782 0.929 . S
C796 C795 1.399 . S
C796 C797 1.385 . S
C797 H783 0.931 . S
C797 C796 1.385 . S
C797 C798 1.389 . S
C798 C797 1.389 . S
C798 C799 1.387 . S
C799 H784 0.930 1_455 S
C799 C794 1.390 . S
C799 C798 1.387 . S
H800 C812 0.930 . S
H801 C814 0.930 . S
H802 C815 0.930 . S
H803 C819 0.959 . S
H804 C819 0.959 . S
H805 C819 0.961 . S
H806 C820 0.960 . S
H807 C820 0.961 . S
H808 C820 0.959 . S
H809 C823 0.929 . S
H810 C824 0.931 . S
H811 C826 0.930 . S
C812 H800 0.930 . S
C812 C813 1.399 1_565 S
C812 C817 1.399 . S
C813 C812 1.399 1_545 S
C813 C814 1.376 . S
C814 H801 0.930 . S
C814 C813 1.376 . S
C814 C815 1.388 . S
C815 H802 0.930 . S
C815 C814 1.388 . S
C815 C816 1.390 . S
C816 C815 1.390 . S
C816 C817 1.394 1_545 S
C816 C822 1.465 . S
C817 C812 1.399 . S
C817 C816 1.394 1_565 S
C817 C818 1.516 . S
C818 C817 1.516 . S
C818 C819 1.502 . S
C818 C820 1.561 . S
C818 C821 1.526 1_565 S
C819 H803 0.959 . S
C819 H804 0.959 . S
C819 H805 0.961 . S
C819 C818 1.502 . S
C820 H806 0.960 . S
C820 H807 0.961 . S
C820 H808 0.959 . S
C820 C818 1.561 . S
C821 C818 1.526 1_545 S
C821 C822 1.396 . S
C821 C826 1.390 1_545 S
C822 C816 1.465 . S
C822 C821 1.396 . S
C822 C823 1.399 . S
C823 H809 0.929 . S
C823 C822 1.399 . S
C823 C824 1.385 . S
C824 H810 0.931 . S
C824 C823 1.385 . S
C824 C825 1.389 . S
C825 C824 1.389 . S
C825 C826 1.387 1_545 S
C826 H811 0.930 . S
C826 C821 1.390 1_565 S
C826 C825 1.387 1_565 S
H827 C839 0.930 . S
H828 C841 0.930 . S
H829 C842 0.930 . S
H830 C846 0.959 . S
H831 C846 0.959 . S
H832 C846 0.961 . S
H833 C847 0.960 . S
H834 C847 0.961 . S
H835 C847 0.959 . S
H836 C850 0.929 . S
H837 C851 0.931 . S
H838 C853 0.930 . S
C839 H827 0.930 . S
C839 C840 1.399 . S
C839 C844 1.399 . S
C840 C839 1.399 . S
C840 C841 1.376 . S
C841 H828 0.930 . S
C841 C840 1.376 . S
C841 C842 1.388 . S
C842 H829 0.930 . S
C842 C841 1.388 . S
C842 C843 1.390 . S
C843 C842 1.390 . S
C843 C844 1.394 . S
C843 C849 1.465 . S
C844 C839 1.399 . S
C844 C843 1.394 . S
C844 C845 1.516 . S
C845 C844 1.516 . S
C845 C846 1.502 . S
C845 C847 1.561 . S
C845 C848 1.526 . S
C846 H830 0.959 . S
C846 H831 0.959 . S
C846 H832 0.961 . S
C846 C845 1.502 . S
C847 H833 0.960 . S
C847 H834 0.961 . S
C847 H835 0.959 . S
C847 C845 1.561 . S
C848 C845 1.526 . S
C848 C849 1.396 . S
C848 C853 1.390 . S
C849 C843 1.465 . S
C849 C848 1.396 . S
C849 C850 1.399 . S
C850 H836 0.929 . S
C850 C849 1.399 . S
C850 C851 1.385 . S
C851 H837 0.931 . S
C851 C850 1.385 . S
C851 C852 1.389 . S
C852 C851 1.389 . S
C852 C853 1.387 . S
C853 H838 0.930 . S
C853 C848 1.390 . S
C853 C852 1.387 . S
H854 C866 0.930 . S
H855 C868 0.930 . S
H856 C869 0.930 . S
H857 C873 0.959 . S
H858 C873 0.959 . S
H859 C873 0.961 . S
H860 C874 0.960 . S
H861 C874 0.961 . S
H862 C874 0.959 . S
H863 C877 0.929 . S
H864 C878 0.931 . S
H865 C880 0.930 . S
C866 H854 0.930 . S
C866 C867 1.399 . S
C866 C871 1.399 . S
C867 C866 1.399 . S
C867 C868 1.376 . S
C868 H855 0.930 . S
C868 C867 1.376 . S
C868 C869 1.388 . S
C869 H856 0.930 . S
C869 C868 1.388 . S
C869 C870 1.390 . S
C870 C869 1.390 . S
C870 C871 1.394 . S
C870 C876 1.465 . S
C871 C866 1.399 . S
C871 C870 1.394 . S
C871 C872 1.516 . S
C872 C871 1.516 . S
C872 C873 1.502 . S
C872 C874 1.561 . S
C872 C875 1.526 . S
C873 H857 0.959 . S
C873 H858 0.959 . S
C873 H859 0.961 . S
C873 C872 1.502 . S
C874 H860 0.960 . S
C874 H861 0.961 . S
C874 H862 0.959 . S
C874 C872 1.561 . S
C875 C872 1.526 . S
C875 C876 1.396 . S
C875 C880 1.390 . S
C876 C870 1.465 . S
C876 C875 1.396 . S
C876 C877 1.399 . S
C877 H863 0.929 . S
C877 C876 1.399 . S
C877 C878 1.385 . S
C878 H864 0.931 . S
C878 C877 1.385 . S
C878 C879 1.389 . S
C879 C878 1.389 . S
C879 C880 1.387 . S
C880 H865 0.930 . S
C880 C875 1.390 . S
C880 C879 1.387 . S
H881 C893 0.948 . S
H882 C895 0.930 . S
H883 C896 0.930 . S
H884 C900 0.959 . S
H885 C900 0.959 . S
H886 C900 0.961 . S
H887 C901 0.960 . S
H888 C901 0.961 . S
H889 C901 0.959 . S
H890 C904 0.929 . S
H891 C905 0.931 . S
H892 C907 0.930 . S
C893 H881 0.948 . S
C893 C894 1.384 1_655 S
C893 C898 1.396 1_655 S
C894 C893 1.384 1_455 S
C894 C895 1.376 . S
C895 H882 0.930 . S
C895 C894 1.376 . S
C895 C896 1.388 . S
C896 H883 0.930 . S
C896 C895 1.388 . S
C896 C897 1.390 . S
C897 C896 1.390 . S
C897 C898 1.394 . S
C897 C903 1.465 . S
C898 C893 1.396 1_455 S
C898 C897 1.394 . S
C898 C899 1.516 1_455 S
C899 C898 1.516 1_655 S
C899 C900 1.502 . S
C899 C901 1.561 . S
C899 C902 1.526 . S
C900 H884 0.959 . S
C900 H885 0.959 . S
C900 H886 0.961 . S
C900 C899 1.502 . S
C901 H887 0.960 . S
C901 H888 0.961 . S
C901 H889 0.959 . S
C901 C899 1.561 . S
C902 C899 1.526 . S
C902 C903 1.396 1_655 S
C902 C907 1.390 . S
C903 C897 1.465 . S
C903 C902 1.396 1_455 S
C903 C904 1.399 . S
C904 H890 0.929 . S
C904 C903 1.399 . S
C904 C905 1.385 . S
C905 H891 0.931 . S
C905 C904 1.385 . S
C905 C906 1.389 . S
C906 C905 1.389 . S
C906 C907 1.387 1_455 S
C907 H892 0.930 . S
C907 C902 1.390 . S
C907 C906 1.387 1_655 S
H908 C920 0.930 . S
H909 C922 0.930 . S
H910 C923 0.930 . S
H911 C927 0.959 . S
H912 C927 0.959 . S
H913 C927 0.961 . S
H914 C928 0.960 . S
H915 C928 0.961 . S
H916 C928 0.959 . S
H917 C931 0.929 . S
H918 C932 0.931 . S
H919 C934 0.930 . S
C920 H908 0.930 . S
C920 C921 1.399 . S
C920 C925 1.399 . S
C921 C920 1.399 . S
C921 C922 1.376 1_565 S
C922 H909 0.930 . S
C922 C921 1.376 1_545 S
C922 C923 1.388 . S
C923 H910 0.930 . S
C923 C922 1.388 . S
C923 C924 1.426 . S
C924 C923 1.426 . S
C924 C925 1.351 1_545 S
C924 C930 1.464 1_545 S
C925 C920 1.399 . S
C925 C924 1.351 1_565 S
C925 C926 1.516 . S
C926 C925 1.516 . S
C926 C927 1.502 . S
C926 C928 1.561 . S
C926 C929 1.526 . S
C927 H911 0.959 . S
C927 H912 0.959 . S
C927 H913 0.961 . S
C927 C926 1.502 . S
C928 H914 0.960 . S
C928 H915 0.961 . S
C928 H916 0.959 . S
C928 C926 1.561 . S
C929 C926 1.526 . S
C929 C930 1.396 . S
C929 C934 1.390 . S
C930 C924 1.464 1_565 S
C930 C929 1.396 . S
C930 C931 1.399 1_565 S
C931 H917 0.929 . S
C931 C930 1.399 1_545 S
C931 C932 1.385 . S
C932 H918 0.931 . S
C932 C931 1.385 . S
C932 C933 1.389 1_545 S
C933 C932 1.389 1_565 S
C933 C934 1.387 . S
C934 H919 0.930 . S
C934 C929 1.390 . S
C934 C933 1.387 . S
H935 C947 0.930 . S
H936 C949 0.930 . S
H937 C950 0.930 . S
H938 C954 0.959 . S
H939 C954 0.959 . S
H940 C954 0.961 . S
H941 C955 0.960 . S
H942 C955 0.961 . S
H943 C955 0.959 . S
H944 C958 0.929 . S
H945 C959 0.931 . S
H946 C961 0.930 . S
C947 H935 0.930 . S
C947 C948 1.399 . S
C947 C952 1.399 . S
C948 C947 1.399 . S
C948 C949 1.376 . S
C949 H936 0.930 . S
C949 C948 1.376 . S
C949 C950 1.388 . S
C950 H937 0.930 . S
C950 C949 1.388 . S
C950 C951 1.390 . S
C951 C950 1.390 . S
C951 C952 1.394 . S
C951 C957 1.465 . S
C952 C947 1.399 . S
C952 C951 1.394 . S
C952 C953 1.516 . S
C953 C952 1.516 . S
C953 C954 1.502 . S
C953 C955 1.561 . S
C953 C956 1.526 . S
C954 H938 0.959 . S
C954 H939 0.959 . S
C954 H940 0.961 . S
C954 C953 1.502 . S
C955 H941 0.960 . S
C955 H942 0.961 . S
C955 H943 0.959 . S
C955 C953 1.561 . S
C956 C953 1.526 . S
C956 C957 1.396 . S
C956 C961 1.390 . S
C957 C951 1.465 . S
C957 C956 1.396 . S
C957 C958 1.399 . S
C958 H944 0.929 . S
C958 C957 1.399 . S
C958 C959 1.385 . S
C959 H945 0.931 . S
C959 C958 1.385 . S
C959 C960 1.389 . S
C960 C959 1.389 . S
C960 C961 1.387 . S
C961 H946 0.930 . S
C961 C956 1.390 . S
C961 C960 1.387 . S
H962 C974 0.930 . S
H963 C976 0.930 . S
H964 C977 0.930 . S
H965 C981 0.959 . S
H966 C981 0.959 . S
H967 C981 0.961 . S
H968 C982 0.960 . S
H969 C982 0.961 . S
H970 C982 0.959 . S
H971 C985 0.929 . S
H972 C986 0.931 . S
H973 C988 0.930 . S
C974 H962 0.930 . S
C974 C975 1.399 . S
C974 C979 1.399 . S
C975 C974 1.399 . S
C975 C976 1.376 . S
C976 H963 0.930 . S
C976 C975 1.376 . S
C976 C977 1.388 . S
C977 H964 0.930 . S
C977 C976 1.388 . S
C977 C978 1.390 . S
C978 C977 1.390 . S
C978 C979 1.394 . S
C978 C984 1.465 . S
C979 C974 1.399 . S
C979 C978 1.394 . S
C979 C980 1.516 . S
C980 C979 1.516 . S
C980 C981 1.502 . S
C980 C982 1.561 . S
C980 C983 1.526 . S
C981 H965 0.959 . S
C981 H966 0.959 . S
C981 H967 0.961 . S
C981 C980 1.502 . S
C982 H968 0.960 . S
C982 H969 0.961 . S
C982 H970 0.959 . S
C982 C980 1.561 . S
C983 C980 1.526 . S
C983 C984 1.396 . S
C983 C988 1.390 . S
C984 C978 1.465 . S
C984 C983 1.396 . S
C984 C985 1.399 . S
C985 H971 0.929 . S
C985 C984 1.399 . S
C985 C986 1.385 . S
C986 H972 0.931 . S
C986 C985 1.385 . S
C986 C987 1.389 . S
C987 C986 1.389 . S
C987 C988 1.387 . S
C988 H973 0.930 . S
C988 C983 1.390 . S
C988 C987 1.387 . S
H989 C1001 0.930 . S
H990 C1003 0.930 . S
H991 C1004 0.930 . S
H992 C1008 0.959 . S
H993 C1008 0.959 . S
H994 C1008 0.961 . S
H995 C1009 0.960 . S
H996 C1009 0.961 . S
H997 C1009 0.945 1_455 S
H998 C1012 0.929 . S
H999 C1013 0.931 . S
H1000 C1015 0.930 . S
C1001 H989 0.930 . S
C1001 C1002 1.399 . S
C1001 C1006 1.399 . S
C1002 C1001 1.399 . S
C1002 C1003 1.376 1_655 S
C1003 H990 0.930 . S
C1003 C1002 1.376 1_455 S
C1003 C1004 1.388 . S
C1004 H991 0.930 . S
C1004 C1003 1.388 . S
C1004 C1005 1.374 1_455 S
C1005 C1004 1.374 1_655 S
C1005 C1006 1.412 . S
C1005 C1011 1.468 . S
C1006 C1001 1.399 . S
C1006 C1005 1.412 . S
C1006 C1007 1.516 . S
C1007 C1006 1.516 . S
C1007 C1008 1.502 . S
C1007 C1009 1.561 . S
C1007 C1010 1.526 . S
C1008 H992 0.959 . S
C1008 H993 0.959 . S
C1008 H994 0.961 . S
C1008 C1007 1.502 . S
C1009 H995 0.960 . S
C1009 H996 0.961 . S
C1009 H997 0.945 1_655 S
C1009 C1007 1.561 . S
C1010 C1007 1.526 . S
C1010 C1011 1.396 . S
C1010 C1015 1.390 . S
C1011 C1005 1.468 . S
C1011 C1010 1.396 . S
C1011 C1012 1.399 1_655 S
C1012 H998 0.929 . S
C1012 C1011 1.399 1_455 S
C1012 C1013 1.385 . S
C1013 H999 0.931 . S
C1013 C1012 1.385 . S
C1013 C1014 1.389 1_455 S
C1014 C1013 1.389 1_655 S
C1014 C1015 1.387 . S
C1015 H1000 0.930 . S
C1015 C1010 1.390 . S
C1015 C1014 1.387 . S
H1016 C1028 0.930 . S
H1017 C1030 0.930 . S
H1018 C1031 0.930 . S
H1019 C1035 0.959 . S
H1020 C1035 0.959 . S
H1021 C1035 0.961 . S
H1022 C1036 0.960 . S
H1023 C1036 0.961 . S
H1024 C1036 0.959 . S
H1025 C1039 0.929 . S
H1026 C1040 0.931 . S
H1027 C1042 0.930 1_554 S
C1028 H1016 0.930 . S
C1028 C1029 1.399 1_565 S
C1028 C1033 1.399 . S
C1029 C1028 1.399 1_545 S
C1029 C1030 1.376 1_554 S
C1030 H1017 0.930 . S
C1030 C1029 1.376 1_556 S
C1030 C1031 1.388 . S
C1031 H1018 0.930 . S
C1031 C1030 1.388 . S
C1031 C1032 1.390 . S
C1032 C1031 1.390 . S
C1032 C1033 1.394 1_546 S
C1032 C1038 1.465 . S
C1033 C1028 1.399 . S
C1033 C1032 1.394 1_564 S
C1033 C1034 1.516 . S
C1034 C1033 1.516 . S
C1034 C1035 1.502 . S
C1034 C1036 1.561 1_554 S
C1034 C1037 1.526 1_554 S
C1035 H1019 0.959 . S
C1035 H1020 0.959 . S
C1035 H1021 0.961 . S
C1035 C1034 1.502 . S
C1036 H1022 0.960 . S
C1036 H1023 0.961 . S
C1036 H1024 0.959 . S
C1036 C1034 1.561 1_556 S
C1037 C1034 1.526 1_556 S
C1037 C1038 1.396 1_565 S
C1037 C1042 1.390 . S
C1038 C1032 1.465 . S
C1038 C1037 1.396 1_545 S
C1038 C1039 1.399 . S
C1039 H1025 0.929 . S
C1039 C1038 1.399 . S
C1039 C1040 1.385 . S
C1040 H1026 0.931 . S
C1040 C1039 1.385 . S
C1040 C1041 1.389 1_545 S
C1041 C1040 1.389 1_565 S
C1041 C1042 1.387 . S
C1042 H1027 0.930 1_556 S
C1042 C1037 1.390 . S
C1042 C1041 1.387 . S
H1043 C1055 0.930 . S
H1044 C1057 0.930 . S
H1045 C1058 0.930 . S
H1046 C1062 0.959 . S
H1047 C1062 0.959 . S
H1048 C1062 0.961 . S
H1049 C1063 0.960 . S
H1050 C1063 0.961 . S
H1051 C1063 0.959 . S
H1052 C1066 0.929 . S
H1053 C1067 0.931 . S
H1054 C1069 0.930 . S
C1055 H1043 0.930 . S
C1055 C1056 1.399 1_556 S
C1055 C1060 1.399 . S
C1056 C1055 1.399 1_554 S
C1056 C1057 1.376 . S
C1057 H1044 0.930 . S
C1057 C1056 1.376 . S
C1057 C1058 1.388 . S
C1058 H1045 0.930 . S
C1058 C1057 1.388 . S
C1058 C1059 1.390 . S
C1059 C1058 1.390 . S
C1059 C1060 1.394 1_554 S
C1059 C1065 1.465 . S
C1060 C1055 1.399 . S
C1060 C1059 1.394 1_556 S
C1060 C1061 1.516 . S
C1061 C1060 1.516 . S
C1061 C1062 1.502 . S
C1061 C1063 1.561 . S
C1061 C1064 1.526 . S
C1062 H1046 0.959 . S
C1062 H1047 0.959 . S
C1062 H1048 0.961 . S
C1062 C1061 1.502 . S
C1063 H1049 0.960 . S
C1063 H1050 0.961 . S
C1063 H1051 0.959 . S
C1063 C1061 1.561 . S
C1064 C1061 1.526 . S
C1064 C1065 1.396 1_556 S
C1064 C1069 1.390 . S
C1065 C1059 1.465 . S
C1065 C1064 1.396 1_554 S
C1065 C1066 1.399 . S
C1066 H1052 0.929 . S
C1066 C1065 1.399 . S
C1066 C1067 1.385 . S
C1067 H1053 0.931 . S
C1067 C1066 1.385 . S
C1067 C1068 1.389 . S
C1068 C1067 1.389 . S
C1068 C1069 1.387 1_554 S
C1069 H1054 0.930 . S
C1069 C1064 1.390 . S
C1069 C1068 1.387 1_556 S
H1070 C1082 0.930 . S
H1071 C1084 0.930 . S
H1072 C1085 0.930 . S
H1073 C1089 0.959 . S
H1074 C1089 0.959 . S
H1075 C1089 0.961 . S
H1076 C1090 0.960 1_655 S
H1077 C1090 0.961 . S
H1078 C1090 0.959 . S
H1079 C1093 0.929 . S
H1080 C1094 0.931 . S
H1081 C1096 0.930 . S
C1082 H1070 0.930 . S
C1082 C1083 1.399 1_556 S
C1082 C1087 1.399 . S
C1083 C1082 1.399 1_554 S
C1083 C1084 1.376 . S
C1084 H1071 0.930 . S
C1084 C1083 1.376 . S
C1084 C1085 1.388 . S
C1085 H1072 0.930 . S
C1085 C1084 1.388 . S
C1085 C1086 1.390 . S
C1086 C1085 1.390 . S
C1086 C1087 1.394 1_554 S
C1086 C1092 1.465 1_655 S
C1087 C1082 1.399 . S
C1087 C1086 1.394 1_556 S
C1087 C1088 1.516 . S
C1088 C1087 1.516 . S
C1088 C1089 1.502 . S
C1088 C1090 1.561 1_655 S
C1088 C1091 1.526 1_655 S
C1089 H1073 0.959 . S
C1089 H1074 0.959 . S
C1089 H1075 0.961 . S
C1089 C1088 1.502 . S
C1090 H1076 0.960 1_455 S
C1090 H1077 0.961 . S
C1090 H1078 0.959 . S
C1090 C1088 1.561 1_455 S
C1091 C1088 1.526 1_455 S
C1091 C1092 1.396 1_556 S
C1091 C1096 1.390 . S
C1092 C1086 1.465 1_455 S
C1092 C1091 1.396 1_554 S
C1092 C1093 1.399 . S
C1093 H1079 0.929 . S
C1093 C1092 1.399 . S
C1093 C1094 1.385 . S
C1094 H1080 0.931 . S
C1094 C1093 1.385 . S
C1094 C1095 1.389 . S
C1095 C1094 1.389 . S
C1095 C1096 1.387 1_554 S
C1096 H1081 0.930 . S
C1096 C1091 1.390 . S
C1096 C1095 1.387 1_556 S
H1097 C1109 0.938 . S
H1098 C1111 0.930 . S
H1099 C1112 0.930 . S
H1100 C1116 0.959 . S
H1101 C1116 0.959 1_565 S
H1102 C1116 0.961 . S
H1103 C1117 0.960 . S
H1104 C1117 0.961 1_565 S
H1105 C1117 0.956 1_565 S
H1106 C1120 0.929 . S
H1107 C1121 0.931 . S
H1108 C1123 0.930 . S
C1109 H1097 0.938 . S
C1109 C1110 1.391 1_656 S
C1109 C1114 1.399 1_655 S
C1110 C1109 1.391 1_454 S
C1110 C1111 1.376 . S
C1111 H1098 0.930 . S
C1111 C1110 1.376 . S
C1111 C1112 1.388 . S
C1112 H1099 0.930 . S
C1112 C1111 1.388 . S
C1112 C1113 1.390 . S
C1113 C1112 1.390 . S
C1113 C1114 1.393 1_554 S
C1113 C1119 1.465 1_545 S
C1114 C1109 1.399 1_455 S
C1114 C1113 1.393 1_556 S
C1114 C1115 1.517 1_455 S
C1115 C1114 1.517 1_655 S
C1115 C1116 1.502 . S
C1115 C1117 1.561 1_655 S
C1115 C1118 1.526 1_545 S
C1116 H1100 0.959 . S
C1116 H1101 0.959 1_545 S
C1116 H1102 0.961 . S
C1116 C1115 1.502 . S
C1117 H1103 0.960 . S
C1117 H1104 0.961 1_545 S
C1117 H1105 0.956 1_545 S
C1117 C1115 1.561 1_455 S
C1118 C1115 1.526 1_565 S
C1118 C1119 1.396 1_656 S
C1118 C1123 1.390 . S
C1119 C1113 1.465 1_565 S
C1119 C1118 1.396 1_454 S
C1119 C1120 1.399 . S
C1120 H1106 0.929 . S
C1120 C1119 1.399 . S
C1120 C1121 1.385 . S
C1121 H1107 0.931 . S
C1121 C1120 1.385 . S
C1121 C1122 1.389 1_454 S
C1122 C1121 1.389 1_656 S
C1122 C1123 1.387 . S
C1123 H1108 0.930 . S
C1123 C1118 1.390 . S
C1123 C1122 1.387 . S
H1124 C1136 0.930 . S
H1125 C1138 0.930 . S
H1126 C1139 0.930 . S
H1127 C1143 0.959 . S
H1128 C1143 0.959 1_655 S
H1129 C1143 0.961 . S
H1130 C1144 0.960 . S
H1131 C1144 0.961 1_655 S
H1132 C1144 0.957 1_655 S
H1133 C1147 0.929 . S
H1134 C1148 0.931 . S
H1135 C1150 0.930 . S
C1136 H1124 0.930 . S
C1136 C1137 1.399 1_565 S
C1136 C1141 1.399 . S
C1137 C1136 1.399 1_545 S
C1137 C1138 1.376 . S
C1138 H1125 0.930 . S
C1138 C1137 1.376 . S
C1138 C1139 1.388 . S
C1139 H1126 0.930 . S
C1139 C1138 1.388 . S
C1139 C1140 1.390 . S
C1140 C1139 1.390 . S
C1140 C1141 1.394 1_545 S
C1140 C1146 1.465 1_455 S
C1141 C1136 1.399 . S
C1141 C1140 1.394 1_565 S
C1141 C1142 1.516 . S
C1142 C1141 1.516 . S
C1142 C1143 1.502 . S
C1142 C1144 1.561 . S
C1142 C1145 1.526 1_455 S
C1143 H1127 0.959 . S
C1143 H1128 0.959 1_455 S
C1143 H1129 0.961 . S
C1143 C1142 1.502 . S
C1144 H1130 0.960 . S
C1144 H1131 0.961 1_455 S
C1144 H1132 0.957 1_455 S
C1144 C1142 1.561 . S
C1145 C1142 1.526 1_655 S
C1145 C1146 1.396 1_565 S
C1145 C1150 1.390 . S
C1146 C1140 1.465 1_655 S
C1146 C1145 1.396 1_545 S
C1146 C1147 1.399 . S
C1147 H1133 0.929 . S
C1147 C1146 1.399 . S
C1147 C1148 1.385 . S
C1148 H1134 0.931 . S
C1148 C1147 1.385 . S
C1148 C1149 1.389 1_545 S
C1149 C1148 1.389 1_565 S
C1149 C1150 1.387 . S
C1150 H1135 0.930 . S
C1150 C1145 1.390 . S
C1150 C1149 1.387 . S
H1151 C1163 0.930 . S
H1152 C1165 0.930 . S
H1153 C1166 0.930 . S
H1154 C1170 0.959 . S
H1155 C1170 0.959 . S
H1156 C1170 0.961 . S
H1157 C1171 0.960 1_565 S
H1158 C1171 0.961 . S
H1159 C1171 0.959 . S
H1160 C1174 0.929 . S
H1161 C1175 0.931 . S
H1162 C1177 0.930 . S
C1163 H1151 0.930 . S
C1163 C1164 1.399 . S
C1163 C1168 1.399 . S
C1164 C1163 1.399 . S
C1164 C1165 1.376 . S
C1165 H1152 0.930 . S
C1165 C1164 1.376 . S
C1165 C1166 1.388 . S
C1166 H1153 0.930 . S
C1166 C1165 1.388 . S
C1166 C1167 1.390 . S
C1167 C1166 1.390 . S
C1167 C1168 1.394 . S
C1167 C1173 1.465 1_565 S
C1168 C1163 1.399 . S
C1168 C1167 1.394 . S
C1168 C1169 1.516 . S
C1169 C1168 1.516 . S
C1169 C1170 1.502 . S
C1169 C1171 1.561 1_565 S
C1169 C1172 1.526 1_565 S
C1170 H1154 0.959 . S
C1170 H1155 0.959 . S
C1170 H1156 0.961 . S
C1170 C1169 1.502 . S
C1171 H1157 0.960 1_545 S
C1171 H1158 0.961 . S
C1171 H1159 0.959 . S
C1171 C1169 1.561 1_545 S
C1172 C1169 1.526 1_545 S
C1172 C1173 1.396 . S
C1172 C1177 1.390 . S
C1173 C1167 1.465 1_545 S
C1173 C1172 1.396 . S
C1173 C1174 1.399 . S
C1174 H1160 0.929 . S
C1174 C1173 1.399 . S
C1174 C1175 1.385 . S
C1175 H1161 0.931 . S
C1175 C1174 1.385 . S
C1175 C1176 1.389 . S
C1176 C1175 1.389 . S
C1176 C1177 1.387 . S
C1177 H1162 0.930 . S
C1177 C1172 1.390 . S
C1177 C1176 1.387 . S
H1178 C1190 0.930 . S
H1179 C1192 0.930 . S
H1180 C1193 0.930 . S
H1181 C1197 0.959 . S
H1182 C1197 0.959 . S
H1183 C1197 0.961 . S
H1184 C1198 0.960 . S
H1185 C1198 0.961 . S
H1186 C1198 0.959 . S
H1187 C1201 0.929 . S
H1188 C1202 0.931 . S
H1189 C1204 0.930 . S
C1190 H1178 0.930 . S
C1190 C1191 1.399 . S
C1190 C1195 1.399 . S
C1191 C1190 1.399 . S
C1191 C1192 1.376 . S
C1192 H1179 0.930 . S
C1192 C1191 1.376 . S
C1192 C1193 1.388 . S
C1193 H1180 0.930 . S
C1193 C1192 1.388 . S
C1193 C1194 1.390 . S
C1194 C1193 1.390 . S
C1194 C1195 1.394 . S
C1194 C1200 1.465 . S
C1195 C1190 1.399 . S
C1195 C1194 1.394 . S
C1195 C1196 1.516 . S
C1196 C1195 1.516 . S
C1196 C1197 1.502 . S
C1196 C1198 1.561 . S
C1196 C1199 1.526 . S
C1197 H1181 0.959 . S
C1197 H1182 0.959 . S
C1197 H1183 0.961 . S
C1197 C1196 1.502 . S
C1198 H1184 0.960 . S
C1198 H1185 0.961 . S
C1198 H1186 0.959 . S
C1198 C1196 1.561 . S
C1199 C1196 1.526 . S
C1199 C1200 1.396 . S
C1199 C1204 1.390 . S
C1200 C1194 1.465 . S
C1200 C1199 1.396 . S
C1200 C1201 1.399 . S
C1201 H1187 0.929 . S
C1201 C1200 1.399 . S
C1201 C1202 1.385 . S
C1202 H1188 0.931 . S
C1202 C1201 1.385 . S
C1202 C1203 1.389 . S
C1203 C1202 1.389 . S
C1203 C1204 1.387 . S
C1204 H1189 0.930 . S
C1204 C1199 1.390 . S
C1204 C1203 1.387 . S
H1205 C1217 0.930 . S
H1206 C1219 0.930 . S
H1207 C1220 0.930 . S
H1208 C1224 0.959 . S
H1209 C1224 0.959 . S
H1210 C1224 0.961 . S
H1211 C1225 0.960 . S
H1212 C1225 0.961 . S
H1213 C1225 0.959 . S
H1214 C1228 0.929 . S
H1215 C1229 0.931 . S
H1216 C1231 0.930 . S
C1217 H1205 0.930 . S
C1217 C1218 1.399 1_455 S
C1217 C1222 1.399 . S
C1218 C1217 1.399 1_655 S
C1218 C1219 1.376 . S
C1219 H1206 0.930 . S
C1219 C1218 1.376 . S
C1219 C1220 1.388 . S
C1220 H1207 0.930 . S
C1220 C1219 1.388 . S
C1220 C1221 1.390 . S
C1221 C1220 1.390 . S
C1221 C1222 1.394 1_655 S
C1221 C1227 1.465 . S
C1222 C1217 1.399 . S
C1222 C1221 1.394 1_455 S
C1222 C1223 1.516 . S
C1223 C1222 1.516 . S
C1223 C1224 1.502 . S
C1223 C1225 1.561 . S
C1223 C1226 1.526 . S
C1224 H1208 0.959 . S
C1224 H1209 0.959 . S
C1224 H1210 0.961 . S
C1224 C1223 1.502 . S
C1225 H1211 0.960 . S
C1225 H1212 0.961 . S
C1225 H1213 0.959 . S
C1225 C1223 1.561 . S
C1226 C1223 1.526 . S
C1226 C1227 1.396 1_455 S
C1226 C1231 1.390 . S
C1227 C1221 1.465 . S
C1227 C1226 1.396 1_655 S
C1227 C1228 1.399 . S
C1228 H1214 0.929 . S
C1228 C1227 1.399 . S
C1228 C1229 1.385 . S
C1229 H1215 0.931 . S
C1229 C1228 1.385 . S
C1229 C1230 1.389 1_655 S
C1230 C1229 1.389 1_455 S
C1230 C1231 1.387 . S
C1231 H1216 0.930 . S
C1231 C1226 1.390 . S
C1231 C1230 1.387 . S
C381 N117 0.511 . S
C393 N2 0.457 . S
C408 N140 0.958 . S
C420 N25 0.898 . S
C435 N48 0.754 . S
C447 N163 0.634 . S
C462 N71 0.462 . S
C474 N94 0.536 . S
C489 N186 0.501 . S
C501 N301 0.514 . S
C516 N324 0.861 . S
C528 N209 0.830 . S
C543 N347 0.589 . S
C555 N232 0.697 . S
C570 N255 0.354 . S
C582 N278 0.362 . S
C597 N12 1.685 . S
C609 C283 1.753 . S
C624 C306 2.099 . S
C636 N35 2.040 . S
C651 N58 2.320 . S
C663 C329 2.367 . S
C678 N81 1.910 . S
C690 C352 1.902 . S
C705 N104 1.927 . S
C717 C191 1.899 . S
C732 N127 2.317 . S
C744 C214 2.345 . S
C759 N150 2.038 . S
C771 C237 2.097 . S
C786 N173 1.702 . S
C798 C260 1.749 . S
C813 C99 1.711 . S
C825 N196 1.731 . S
C840 C122 2.109 . S
C852 N219 2.049 . S
C867 C145 2.360 . S
C879 N242 2.298 . S
C894 N265 1.905 . S
C906 C168 1.914 . S
C921 C7 1.931 . S
C933 N288 1.887 . S
C948 N311 2.338 . S
C960 C30 2.349 . S
C975 N334 2.075 . S
C987 C53 2.075 . S
C1002 C76 1.718 . S
C1014 N357 1.728 . S
C1029 C200 1.491 1_554 S
C1041 C16 1.528 1_556 S
C1056 C223 2.133 1_554 S
C1068 C39 2.082 . S
C1083 C62 2.510 . S
C1095 C246 2.535 1_554 S
C1110 C269 1.902 . S
C1122 C85 1.861 . S
C1137 C108 1.899 . S
C1149 C292 1.876 . S
C1164 C315 2.538 . S
C1176 C131 2.501 . S
C1191 C338 2.134 . S
C1203 C154 2.084 . S
C1218 C361 1.515 . S
C1230 C177 1.503 . S
