# Generated by pormake.
# Topology wmi, (6)-cn, num edge types: 1
# Building blocks:
#     Node 0, Type 0, BuildingBlock: HISSIN_clean_sbu_0, # of connection points: 6
#     Node 1, Type 0, BuildingBlock: HISSIN_clean_sbu_0, # of connection points: 6
#     Node 2, Type 0, BuildingBlock: HISSIN_clean_sbu_0, # of connection points: 6
#     Node 3, Type 0, BuildingBlock: HISSIN_clean_sbu_0, # of connection points: 6
#     Node 4, Type 0, BuildingBlock: HISSIN_clean_sbu_0, # of connection points: 6
#     Node 5, Type 0, BuildingBlock: HISSIN_clean_sbu_0, # of connection points: 6
#     Node 6, Type 0, BuildingBlock: HISSIN_clean_sbu_0, # of connection points: 6
#     Node 7, Type 0, BuildingBlock: HISSIN_clean_sbu_0, # of connection points: 6
#     Node 8, Type 0, BuildingBlock: HISSIN_clean_sbu_0, # of connection points: 6
#     Node 9, Type 0, BuildingBlock: HISSIN_clean_sbu_0, # of connection points: 6
#     Node 10, Type 0, BuildingBlock: HISSIN_clean_sbu_0, # of connection points: 6
#     Node 11, Type 0, BuildingBlock: HISSIN_clean_sbu_0, # of connection points: 6
#     Node 12, Type 0, BuildingBlock: HISSIN_clean_sbu_0, # of connection points: 6
#     Node 13, Type 0, BuildingBlock: HISSIN_clean_sbu_0, # of connection points: 6
#     Node 14, Type 0, BuildingBlock: HISSIN_clean_sbu_0, # of connection points: 6
#     Node 15, Type 0, BuildingBlock: HISSIN_clean_sbu_0, # of connection points: 6
#     Node 16, Type 0, BuildingBlock: HISSIN_clean_sbu_0, # of connection points: 6
#     Node 17, Type 0, BuildingBlock: HISSIN_clean_sbu_0, # of connection points: 6
#     Edge 18, Type (0, 0), BuildingBlock: CIFDUS_clean_linker_0, # of connection points: 2
#     Edge 19, Type (0, 0), BuildingBlock: CIFDUS_clean_linker_0, # of connection points: 2
#     Edge 20, Type (0, 0), BuildingBlock: CIFDUS_clean_linker_0, # of connection points: 2
#     Edge 21, Type (0, 0), BuildingBlock: CIFDUS_clean_linker_0, # of connection points: 2
#     Edge 22, Type (0, 0), BuildingBlock: CIFDUS_clean_linker_0, # of connection points: 2
#     Edge 23, Type (0, 0), BuildingBlock: CIFDUS_clean_linker_0, # of connection points: 2
#     Edge 24, Type (0, 0), BuildingBlock: CIFDUS_clean_linker_0, # of connection points: 2
#     Edge 25, Type (0, 0), BuildingBlock: CIFDUS_clean_linker_0, # of connection points: 2
#     Edge 26, Type (0, 0), BuildingBlock: CIFDUS_clean_linker_0, # of connection points: 2
#     Edge 27, Type (0, 0), BuildingBlock: CIFDUS_clean_linker_0, # of connection points: 2
#     Edge 28, Type (0, 0), BuildingBlock: CIFDUS_clean_linker_0, # of connection points: 2
#     Edge 29, Type (0, 0), BuildingBlock: CIFDUS_clean_linker_0, # of connection points: 2
#     Edge 30, Type (0, 0), BuildingBlock: CIFDUS_clean_linker_0, # of connection points: 2
#     Edge 31, Type (0, 0), BuildingBlock: CIFDUS_clean_linker_0, # of connection points: 2
#     Edge 32, Type (0, 0), BuildingBlock: CIFDUS_clean_linker_0, # of connection points: 2
#     Edge 33, Type (0, 0), BuildingBlock: CIFDUS_clean_linker_0, # of connection points: 2
#     Edge 34, Type (0, 0), BuildingBlock: CIFDUS_clean_linker_0, # of connection points: 2
#     Edge 35, Type (0, 0), BuildingBlock: CIFDUS_clean_linker_0, # of connection points: 2
#     Edge 36, Type (0, 0), BuildingBlock: CIFDUS_clean_linker_0, # of connection points: 2
#     Edge 37, Type (0, 0), BuildingBlock: CIFDUS_clean_linker_0, # of connection points: 2
#     Edge 38, Type (0, 0), BuildingBlock: CIFDUS_clean_linker_0, # of connection points: 2
#     Edge 39, Type (0, 0), BuildingBlock: CIFDUS_clean_linker_0, # of connection points: 2
#     Edge 40, Type (0, 0), BuildingBlock: CIFDUS_clean_linker_0, # of connection points: 2
#     Edge 41, Type (0, 0), BuildingBlock: CIFDUS_clean_linker_0, # of connection points: 2
#     Edge 42, Type (0, 0), BuildingBlock: CIFDUS_clean_linker_0, # of connection points: 2
#     Edge 43, Type (0, 0), BuildingBlock: CIFDUS_clean_linker_0, # of connection points: 2
#     Edge 44, Type (0, 0), BuildingBlock: CIFDUS_clean_linker_0, # of connection points: 2
#     Edge 45, Type (0, 0), BuildingBlock: CIFDUS_clean_linker_0, # of connection points: 2
#     Edge 46, Type (0, 0), BuildingBlock: CIFDUS_clean_linker_0, # of connection points: 2
#     Edge 47, Type (0, 0), BuildingBlock: CIFDUS_clean_linker_0, # of connection points: 2
#     Edge 48, Type (0, 0), BuildingBlock: CIFDUS_clean_linker_0, # of connection points: 2
#     Edge 49, Type (0, 0), BuildingBlock: CIFDUS_clean_linker_0, # of connection points: 2
#     Edge 50, Type (0, 0), BuildingBlock: CIFDUS_clean_linker_0, # of connection points: 2
#     Edge 51, Type (0, 0), BuildingBlock: CIFDUS_clean_linker_0, # of connection points: 2
#     Edge 52, Type (0, 0), BuildingBlock: CIFDUS_clean_linker_0, # of connection points: 2
#     Edge 53, Type (0, 0), BuildingBlock: CIFDUS_clean_linker_0, # of connection points: 2
#     Edge 54, Type (0, 0), BuildingBlock: CIFDUS_clean_linker_0, # of connection points: 2
#     Edge 55, Type (0, 0), BuildingBlock: CIFDUS_clean_linker_0, # of connection points: 2
#     Edge 56, Type (0, 0), BuildingBlock: CIFDUS_clean_linker_0, # of connection points: 2
#     Edge 57, Type (0, 0), BuildingBlock: CIFDUS_clean_linker_0, # of connection points: 2
#     Edge 58, Type (0, 0), BuildingBlock: CIFDUS_clean_linker_0, # of connection points: 2
#     Edge 59, Type (0, 0), BuildingBlock: CIFDUS_clean_linker_0, # of connection points: 2
#     Edge 60, Type (0, 0), BuildingBlock: CIFDUS_clean_linker_0, # of connection points: 2
#     Edge 61, Type (0, 0), BuildingBlock: CIFDUS_clean_linker_0, # of connection points: 2
#     Edge 62, Type (0, 0), BuildingBlock: CIFDUS_clean_linker_0, # of connection points: 2
#     Edge 63, Type (0, 0), BuildingBlock: CIFDUS_clean_linker_0, # of connection points: 2
#     Edge 64, Type (0, 0), BuildingBlock: CIFDUS_clean_linker_0, # of connection points: 2
#     Edge 65, Type (0, 0), BuildingBlock: CIFDUS_clean_linker_0, # of connection points: 2
#     Edge 66, Type (0, 0), BuildingBlock: CIFDUS_clean_linker_0, # of connection points: 2
#     Edge 67, Type (0, 0), BuildingBlock: CIFDUS_clean_linker_0, # of connection points: 2
#     Edge 68, Type (0, 0), BuildingBlock: CIFDUS_clean_linker_0, # of connection points: 2
#     Edge 69, Type (0, 0), BuildingBlock: CIFDUS_clean_linker_0, # of connection points: 2
#     Edge 70, Type (0, 0), BuildingBlock: CIFDUS_clean_linker_0, # of connection points: 2
#     Edge 71, Type (0, 0), BuildingBlock: CIFDUS_clean_linker_0, # of connection points: 2
# Relax obj value: 0.094
# Max RMSD: 0.213
# Mean RMSD: 0.213
data_MOF--net-wmi--node1-HISSIN_clean_sbu_0--edge1-CIFDUS_clean_linker_0
_symmetry_space_group_name_H-M    P1
_symmetry_Int_Tables_number       1
_symmetry_cell_setting            triclinic
loop_
_symmetry_equiv_pos_as_xyz
'x, y, z'
_cell_length_a     36.49346
_cell_length_b     36.609976
_cell_length_c     70.344718
_cell_angle_alpha  90.118804
_cell_angle_beta   90.060036
_cell_angle_gamma 120.05443
loop_
_atom_site_label
_atom_site_type_symbol
_atom_site_fract_x
_atom_site_fract_y
_atom_site_fract_z
_atom_type_partial_charge
Eu0 Eu 0.55642 0.05617 0.11134 0.0
Eu1 Eu 0.45788 0.99789 0.09524 0.0
C2 C 0.53588 0.03622 0.06702 0.0
C3 C 0.67595 0.13867 0.12025 0.0
C4 C 0.68836 0.15506 0.10184 0.0
C5 C 0.74618 0.19002 0.13185 0.0
C6 C 0.7296 0.18844 0.09844 0.0
C7 C 0.70505 0.15681 0.13522 0.0
C8 C 0.75932 0.20594 0.11337 0.0
C9 C 0.63451 0.10053 0.12402 0.0
O10 O 0.47663 0.95182 0.10708 0.0
O11 O 0.54846 0.99321 0.1039 0.0
C12 C 0.51456 0.95605 0.10581 0.0
O13 O 0.51191 1.02056 0.13604 0.0
O14 O 0.40959 0.9641 0.07327 0.0
O15 O 0.39138 0.96108 0.10277 0.0
O16 O 0.45861 0.02663 0.12327 0.0
C17 C 0.47495 1.01837 0.13793 0.0
O18 O 0.53323 0.10192 0.10724 0.0
O19 O 0.47399 0.06506 0.08811 0.0
O20 O 0.50147 1.00161 0.072 0.0
O21 O 0.6035 0.10544 0.13017 0.0
O22 O 0.62171 0.06974 0.11177 0.0
O23 O 0.55778 0.06649 0.07943 0.0
C24 C 0.35316 0.89895 0.08463 0.0
C25 C 0.35733 0.87336 0.09836 0.0
C26 C 0.29607 0.83591 0.06983 0.0
C27 C 0.33043 0.82962 0.0981 0.0
C28 C 0.32268 0.87983 0.07024 0.0
C29 C 0.29923 0.81044 0.08396 0.0
C30 C 0.37932 0.94543 0.08574 0.0
C31 C 0.50338 0.10041 0.09619 0.0
H32 H 0.66652 0.14143 0.09002 0.0
H33 H 0.76778 0.20315 0.14377 0.0
H34 H 0.73857 0.19967 0.08402 0.0
H35 H 0.69623 0.14465 0.14953 0.0
H36 H 0.38092 0.88722 0.10952 0.0
H37 H 0.27217 0.82197 0.05881 0.0
H38 H 0.33395 0.81075 0.10902 0.0
H39 H 0.31898 0.89892 0.0595 0.0
Eu40 Eu 1.02292 0.50962 0.10779 0.0
Eu41 Eu 0.08149 0.47236 0.08991 0.0
C42 C 0.04217 0.51236 0.06237 0.0
C43 C 0.93742 0.54091 0.11552 0.0
C44 C 0.91353 0.51972 0.09937 0.0
C45 C 0.89064 0.56943 0.12098 0.0
C46 C 0.87814 0.52298 0.09419 0.0
C47 C 0.92593 0.56606 0.12616 0.0
C48 C 0.86594 0.54759 0.10503 0.0
C49 C 0.97405 0.53688 0.12159 0.0
O50 O 0.12119 0.54378 0.08915 0.0
O51 O 0.09042 0.55896 0.11403 0.0
C52 C 0.12166 0.57031 0.10194 0.0
O53 O 1.03466 0.47225 0.13079 0.0
O54 O 0.12023 0.46722 0.0677 0.0
O55 O 0.11139 0.43397 0.09422 0.0
O56 O 0.09982 0.48885 0.12024 0.0
C57 C 0.07115 0.47368 0.13351 0.0
O58 O 0.97942 0.45172 0.09104 0.0
O59 O 1.01539 0.4163 0.09565 0.0
O60 O 0.05065 0.48181 0.06453 0.0
O61 O 0.96735 0.49869 0.12407 0.0
O62 O 1.00986 0.56097 0.113 0.0
O63 O 0.0349 0.53075 0.07687 0.0
C64 C 0.17915 0.46495 0.08021 0.0
C65 C 0.20648 0.50889 0.07968 0.0
C66 C 0.24002 0.45571 0.08493 0.0
C67 C 0.25023 0.52604 0.0815 0.0
C68 C 0.19623 0.43854 0.08293 0.0
C69 C 0.26752 0.49966 0.08413 0.0
C70 C 0.13292 0.4467 0.07846 0.0
C71 C 0.97974 0.41621 0.09235 0.0
H72 H 0.92203 0.50039 0.09086 0.0
H73 H 0.88201 0.58821 0.1298 0.0
H74 H 0.86027 0.50615 0.08168 0.0
H75 H 0.94399 0.58271 0.13866 0.0
H76 H 0.19402 0.53003 0.07789 0.0
H77 H 0.25243 0.43457 0.08681 0.0
H78 H 0.27052 0.56 0.08107 0.0
H79 H 0.17569 0.40461 0.08351 0.0
Eu80 Eu 0.57193 0.52742 0.10651 0.0
Eu81 Eu 0.60529 0.62217 0.088 0.0
C82 C 0.56955 0.54283 0.06131 0.0
C83 C 0.54507 0.41171 0.11471 0.0
C84 C 0.52091 0.38658 0.09926 0.0
C85 C 0.56568 0.35942 0.12182 0.0
C86 C 0.51925 0.34821 0.09515 0.0
C87 C 0.56717 0.3975 0.12596 0.0
C88 C 0.54185 0.33429 0.10633 0.0
C89 C 0.54632 0.45165 0.11995 0.0
O90 O 0.53348 0.58773 0.0886 0.0
O91 O 0.52221 0.544 0.11383 0.0
C92 C 0.50856 0.56202 0.10187 0.0
O93 O 0.60676 0.57673 0.12982 0.0
O94 O 0.59957 0.66267 0.0669 0.0
O95 O 0.64798 0.69036 0.08868 0.0
O96 O 0.59344 0.62743 0.11854 0.0
C97 C 0.60685 0.61261 0.13203 0.0
O98 O 0.63265 0.54489 0.09146 0.0
O99 O 0.66363 0.61656 0.09443 0.0
O100 O 0.60135 0.58117 0.06376 0.0
O101 O 0.58337 0.4843 0.12367 0.0
O102 O 0.52205 0.46198 0.11053 0.0
O103 O 0.54932 0.51821 0.07578 0.0
C104 C 0.61521 0.72884 0.07929 0.0
C105 C 0.58067 0.71891 0.09127 0.0
C106 C 0.62753 0.80011 0.07623 0.0
C107 C 0.56974 0.74956 0.09578 0.0
C108 C 0.6383 0.76948 0.0717 0.0
C109 C 0.59342 0.79071 0.08849 0.0
C110 C 0.62805 0.69745 0.07506 0.0
C111 C 0.66667 0.58229 0.09252 0.0
H112 H 0.50325 0.39646 0.09035 0.0
H113 H 0.58287 0.34938 0.13096 0.0
H114 H 0.50079 0.32975 0.08307 0.0
H115 H 0.5855 0.41582 0.13811 0.0
H116 H 0.56254 0.68762 0.09732 0.0
H117 H 0.64603 0.83131 0.07015 0.0
H118 H 0.54355 0.7414 0.10535 0.0
H119 H 0.66495 0.77766 0.0624 0.0
Eu120 Eu 0.06684 0.53228 0.90651 0.0
Eu121 Eu 1.00094 0.44318 0.92824 0.0
C122 C 0.05462 0.52654 0.95196 0.0
C123 C 0.15587 0.64767 0.89938 0.0
C124 C 0.17366 0.65435 0.91767 0.0
C125 C 0.20304 0.72214 0.89239 0.0
C126 C 0.20663 0.69428 0.92307 0.0
C127 C 0.17025 0.68207 0.88694 0.0
C128 C 0.22236 0.7285 0.91036 0.0
C129 C 0.12536 0.60461 0.89253 0.0
O130 O 0.95941 0.46806 0.91668 0.0
O131 O 1.0106 0.53806 0.91482 0.0
C132 C 0.97062 0.50828 0.91537 0.0
O133 O 1.02925 0.48862 0.88181 0.0
O134 O 0.95287 0.40722 0.94953 0.0
O135 O 0.97864 0.37612 0.93254 0.0
O136 O 0.99396 0.42494 0.89766 0.0
C137 C 1.00493 0.44695 0.88193 0.0
O138 O 0.08786 0.48513 0.90277 0.0
O139 O 0.06912 0.4567 0.93201 0.0
O140 O 1.01672 0.49437 0.94935 0.0
O141 O 0.13213 0.57464 0.89824 0.0
O142 O 0.08517 0.59286 0.89265 0.0
O143 O 0.08283 0.54023 0.9382 0.0
C144 C 0.90601 0.3371 0.93981 0.0
C145 C 0.87727 0.34583 0.93043 0.0
C146 C 0.85313 0.26249 0.93961 0.0
C147 C 0.83659 0.3132 0.9259 0.0
C148 C 0.89375 0.29522 0.94429 0.0
C149 C 0.82404 0.27117 0.93046 0.0
C150 C 0.94912 0.37125 0.9444 0.0
C151 C 0.0957 0.46891 0.91762 0.0
H152 H 0.16301 0.62839 0.92758 0.0
H153 H 0.21456 0.74766 0.88221 0.0
H154 H 0.2204 0.69819 0.9371 0.0
H155 H 0.15712 0.67763 0.87275 0.0
H156 H 0.88628 0.37789 0.92657 0.0
H157 H 0.84425 0.23046 0.94343 0.0
H158 H 0.81506 0.3208 0.91865 0.0
H159 H 0.91559 0.28785 0.9514 0.0
Eu160 Eu 0.52872 0.54833 0.90729 0.0
Eu161 Eu 0.6244 0.58735 0.92609 0.0
C162 C 0.54553 0.55788 0.95267 0.0
C163 C 0.40967 0.51072 0.89676 0.0
C164 C 0.39607 0.51494 0.91492 0.0
C165 C 0.34209 0.49649 0.8837 0.0
C166 C 0.35563 0.51025 0.91739 0.0
C167 C 0.38216 0.50108 0.88128 0.0
C168 C 0.32839 0.50158 0.90171 0.0
C169 C 0.45186 0.51556 0.89332 0.0
O170 O 0.59004 0.51575 0.92823 0.0
O171 O 0.54928 0.50093 0.90162 0.0
C172 C 0.56671 0.48925 0.91477 0.0
O173 O 0.5769 0.58277 0.88362 0.0
O174 O 0.66551 0.58668 0.94845 0.0
O175 O 0.69322 0.62722 0.92405 0.0
O176 O 0.6295 0.57327 0.89578 0.0
C177 C 0.61373 0.58448 0.88184 0.0
O178 O 0.54338 0.6102 0.92032 0.0
O179 O 0.6162 0.64427 0.91942 0.0
O180 O 0.58411 0.58855 0.94953 0.0
O181 O 0.48271 0.55312 0.88899 0.0
O182 O 0.46412 0.49541 0.90455 0.0
O183 O 0.52135 0.53279 0.93896 0.0
C184 C 0.72858 0.59305 0.9362 0.0
C185 C 0.7131 0.55269 0.92825 0.0
C186 C 0.79838 0.60019 0.9386 0.0
C187 C 0.73999 0.5361 0.92559 0.0
C188 C 0.77139 0.61667 0.94133 0.0
C189 C 0.78304 0.55966 0.9307 0.0
C190 C 0.7002 0.6105 0.939 0.0
C191 C 0.58036 0.64505 0.92053 0.0
H192 H 0.41679 0.52223 0.92711 0.0
H193 H 0.32179 0.48916 0.87135 0.0
H194 H 0.34617 0.51459 0.93142 0.0
H195 H 0.3918 0.49727 0.86719 0.0
H196 H 0.68016 0.53402 0.92406 0.0
H197 H 0.8312 0.61902 0.94291 0.0
H198 H 0.72719 0.50506 0.91927 0.0
H199 H 0.78396 0.64784 0.94748 0.0
Eu200 Eu 0.51648 1.00571 0.91025 0.0
Eu201 Eu 0.47763 0.06439 0.92827 0.0
C202 C 0.51105 1.01804 0.9559 0.0
C203 C 0.55288 0.92327 0.89905 0.0
C204 C 0.55174 0.90754 0.91738 0.0
C205 C 0.57231 0.87326 0.88638 0.0
C206 C 0.56099 0.8749 0.92017 0.0
C207 C 0.56293 0.9056 0.88362 0.0
C208 C 0.57186 0.85759 0.9047 0.0
C209 C 0.54597 0.95933 0.89554 0.0
O210 O 0.54847 0.1037 0.93072 0.0
O211 O 0.569 0.07341 0.90745 0.0
C212 C 0.57743 0.10431 0.91943 0.0
O213 O 0.48365 1.02198 0.8867 0.0
O214 O 0.47365 0.10441 0.95032 0.0
O215 O 0.43738 0.09221 0.92436 0.0
O216 O 0.49898 0.08574 0.89865 0.0
C217 C 0.48566 0.05876 0.88462 0.0
O218 O 0.45398 0.96056 0.92365 0.0
O219 O 0.42187 1.0003 0.92013 0.0
O220 O 0.48258 0.02944 0.95324 0.0
O221 O 0.50724 0.95147 0.89311 0.0
O222 O 0.56861 0.99364 0.90542 0.0
O223 O 0.53098 1.01149 0.94186 0.0
C224 C 0.46665 0.16048 0.93804 0.0
C225 C 0.49109 0.18322 0.92231 0.0
C226 C 0.47533 0.22573 0.95138 0.0
C227 C 0.50722 0.22684 0.92106 0.0
C228 C 0.45892 0.18207 0.95254 0.0
C229 C 0.49971 0.24868 0.93562 0.0
C230 C 0.45071 0.11476 0.93989 0.0
C231 C 0.41962 0.96338 0.922 0.0
H232 H 0.54425 0.92081 0.92954 0.0
H233 H 0.57968 0.86033 0.87407 0.0
H234 H 0.56051 0.86387 0.93449 0.0
H235 H 0.56401 0.9172 0.86936 0.0
H236 H 0.49804 0.16735 0.91108 0.0
H237 H 0.46857 0.24147 0.96274 0.0
H238 H 0.52626 0.2436 0.90885 0.0
H239 H 0.44038 0.16518 0.96485 0.0
Eu240 Eu 0.21435 0.39297 0.44045 0.0
Eu241 Eu 0.11661 0.33655 0.42317 0.0
C242 C 0.19487 0.38132 0.39477 0.0
C243 C 0.33172 0.47754 0.45026 0.0
C244 C 0.3352 0.50528 0.43572 0.0
C245 C 0.40652 0.52352 0.45761 0.0
C246 C 0.37401 0.54209 0.43226 0.0
C247 C 0.36773 0.48679 0.46105 0.0
C248 C 0.4102 0.55195 0.44327 0.0
C249 C 0.29095 0.4392 0.45462 0.0
O250 O 0.1464 0.29571 0.41982 0.0
O251 O 0.19876 0.32515 0.44257 0.0
C252 C 0.17543 0.29462 0.43053 0.0
O253 O 0.16602 0.37675 0.46439 0.0
O254 O 0.06932 0.29548 0.40241 0.0
O255 O 0.04945 0.31368 0.428 0.0
O256 O 0.11727 0.31344 0.45231 0.0
C257 C 0.13125 0.33989 0.4665 0.0
O258 O 0.19902 0.43965 0.42739 0.0
O259 O 0.12734 0.40131 0.4316 0.0
O260 O 0.15514 0.37024 0.3977 0.0
O261 O 0.25905 0.44444 0.4588 0.0
O262 O 0.27966 0.40647 0.44369 0.0
O263 O 0.22171 0.38747 0.40865 0.0
C264 C 1.00594 0.24432 0.41694 0.0
C265 C 1.01879 0.21505 0.42145 0.0
C266 C 0.93262 0.18946 0.42108 0.0
C267 C 0.98872 0.17316 0.42557 0.0
C268 C 0.96271 0.23128 0.41681 0.0
C269 C 0.94528 0.15991 0.4255 0.0
C270 C 0.03748 0.28877 0.41321 0.0
C271 C 0.16242 0.43783 0.42938 0.0
H272 H 0.30785 0.49863 0.42714 0.0
H273 H 0.43334 0.53016 0.46655 0.0
H274 H 0.37565 0.56283 0.42093 0.0
H275 H 0.36573 0.4658 0.47235 0.0
H276 H 0.0521 0.22466 0.42191 0.0
H277 H 0.89939 0.18014 0.42074 0.0
H278 H 0.9995 0.15132 0.42915 0.0
H279 H 0.95224 0.2535 0.41351 0.0
Eu280 Eu 0.68952 0.8522 0.44491 0.0
Eu281 Eu 0.74609 0.81154 0.42854 0.0
C282 C 0.6957 0.83627 0.40018 0.0
C283 C 0.60536 0.88689 0.45126 0.0
C284 C 0.60931 0.92483 0.44443 0.0
C285 C 0.52874 0.85632 0.4513 0.0
C286 C 0.57339 0.92867 0.44133 0.0
C287 C 0.56454 0.85241 0.4543 0.0
C288 C 0.53272 0.89478 0.44521 0.0
C289 C 0.6438 0.88489 0.45661 0.0
O290 O 0.78325 0.88201 0.42354 0.0
O291 O 0.75754 0.90302 0.44832 0.0
C292 C 0.78629 0.91152 0.43522 0.0
O293 O 0.70514 0.82122 0.46953 0.0
O294 O 0.78638 0.80762 0.40666 0.0
O295 O 0.77434 0.77183 0.43271 0.0
O296 O 0.76861 0.83542 0.45777 0.0
C297 C 0.74185 0.82289 0.4718 0.0
O298 O 0.642 0.78756 0.4342 0.0
O299 O 0.68239 0.75597 0.43756 0.0
O300 O 0.70278 0.80581 0.40497 0.0
O301 O 0.6389 0.84903 0.46268 0.0
O302 O 0.67695 0.90468 0.44574 0.0
O303 O 0.69665 0.86314 0.4129 0.0
C304 C 0.844 0.80335 0.41975 0.0
C305 C 0.8618 0.80345 0.43753 0.0
C306 C 0.915 0.83999 0.40626 0.0
C307 C 0.90567 0.82172 0.43964 0.0
C308 C 0.87111 0.82154 0.40413 0.0
C309 C 0.93283 0.84039 0.42405 0.0
C310 C 0.79773 0.78598 0.41746 0.0
C311 C 0.64507 0.75348 0.43607 0.0
H312 H 0.64033 0.95206 0.44207 0.0
H313 H 0.49781 0.82945 0.45424 0.0
H314 H 0.57757 0.95878 0.4368 0.0
H315 H 0.56017 0.82268 0.45953 0.0
H316 H 0.84195 0.78977 0.44991 0.0
H317 H 0.93495 0.85346 0.3939 0.0
H318 H 0.91837 0.82173 0.45356 0.0
H319 H 0.85836 0.82176 0.39024 0.0
Eu320 Eu 0.24318 0.86977 0.4438 0.0
Eu321 Eu 0.26749 0.95954 0.42225 0.0
C322 C 0.23391 0.87524 0.39854 0.0
C323 C 0.21767 0.75472 0.45134 0.0
C324 C 0.23204 0.74866 0.43374 0.0
C325 C 0.18834 0.67991 0.45814 0.0
C326 C 0.22554 0.70882 0.4286 0.0
C327 C 0.19512 0.71986 0.46332 0.0
C328 C 0.2043 0.67407 0.44089 0.0
C329 C 0.22884 0.7975 0.45803 0.0
O330 O 0.20283 0.93637 0.43547 0.0
O331 O 0.18142 0.86569 0.43676 0.0
C332 C 0.17291 0.89653 0.43707 0.0
O333 O 0.2483 0.91349 0.46825 0.0
O334 O 0.25493 0.99493 0.40084 0.0
O335 O 0.31068 0.02734 0.41854 0.0
O336 O 0.28481 0.97723 0.45264 0.0
C337 C 0.27057 0.95528 0.4683 0.0
O338 O 0.31205 0.91628 0.44668 0.0
O339 O 0.32121 0.94525 0.41751 0.0
O340 O 0.22975 0.9082 0.40141 0.0
O341 O 0.2661 0.82816 0.45319 0.0
O342 O 0.19994 0.80844 0.45687 0.0
O343 O 0.24846 0.86087 0.41199 0.0
C344 C 0.27543 0.06457 0.41057 0.0
C345 C 0.23549 0.05435 0.41777 0.0
C346 C 0.29658 0.13896 0.41205 0.0
C347 C 0.22607 0.08618 0.42191 0.0
C348 C 0.30586 0.1071 0.40777 0.0
C349 C 0.25654 0.12889 0.41914 0.0
C350 C 0.28602 0.03138 0.40636 0.0
C351 C 0.33575 0.93267 0.43172 0.0
H352 H 0.24931 0.77496 0.42416 0.0
H353 H 0.17218 0.654 0.46801 0.0
H354 H 0.23774 0.70536 0.4151 0.0
H355 H 0.18385 0.7238 0.47699 0.0
H356 H 0.21158 1.02177 0.42028 0.0
H357 H 0.3206 0.17151 0.40959 0.0
H358 H 0.19515 0.07739 0.42757 0.0
H359 H 0.33688 0.11568 0.40229 0.0
Eu360 Eu 0.73424 0.85888 0.2459 0.0
Eu361 Eu 0.67782 0.75765 0.25697 0.0
C362 C 0.71657 0.82396 0.28902 0.0
C363 C 0.81733 0.97888 0.24394 0.0
C364 C 0.85058 0.97834 0.25374 0.0
C365 C 0.85801 0.05573 0.24367 0.0
C366 C 0.88763 1.01624 0.25812 0.0
C367 C 0.82104 1.01783 0.23927 0.0
C368 C 0.89219 0.05545 0.25281 0.0
C369 C 0.77946 0.9395 0.23765 0.0
O370 O 0.63747 0.78794 0.26223 0.0
O371 O 0.66671 0.84042 0.24004 0.0
C372 C 0.6357 0.81663 0.25162 0.0
O373 O 0.72412 0.81911 0.21898 0.0
O374 O 0.63672 0.70955 0.27729 0.0
O375 O 0.6498 0.69067 0.25005 0.0
O376 O 0.66004 0.76465 0.22772 0.0
C377 C 0.6889 0.78381 0.21482 0.0
O378 O 0.78065 0.84092 0.25704 0.0
O379 O 0.74434 0.77039 0.24917 0.0
O380 O 0.71744 0.79143 0.28196 0.0
O381 O 0.78558 0.91036 0.23015 0.0
O382 O 0.74658 0.92369 0.24879 0.0
O383 O 0.71773 0.85305 0.27762 0.0
C384 C 0.57951 0.65127 0.26223 0.0
C385 C 0.5606 0.64798 0.24439 0.0
C386 C 0.50937 0.6074 0.27577 0.0
C387 C 0.5165 0.62454 0.24228 0.0
C388 C 0.55345 0.63053 0.27785 0.0
C389 C 0.4903 0.60428 0.25799 0.0
C390 C 0.62573 0.67874 0.26516 0.0
C391 C 0.78014 0.80549 0.25327 0.0
H392 H 0.84827 0.94864 0.25763 0.0
H393 H 0.86048 0.08515 0.23917 0.0
H394 H 0.91305 1.01482 0.2654 0.0
H395 H 0.79572 1.01893 0.23172 0.0
H396 H 0.57977 0.66408 0.2321 0.0
H397 H 0.4902 0.5917 0.2881 0.0
H398 H 0.50284 0.62302 0.22842 0.0
H399 H 0.5672 0.63277 0.29176 0.0
Eu400 Eu 0.208 0.87599 0.24211 0.0
Eu401 Eu 0.30443 0.914 0.26056 0.0
C402 C 0.22523 0.87946 0.28785 0.0
C403 C 0.08888 0.83825 0.23031 0.0
C404 C 0.0725 0.83569 0.24864 0.0
C405 C 1.02066 0.82198 0.21697 0.0
C406 C 1.03035 0.82614 0.2511 0.0
C407 C 0.06267 0.83162 0.21456 0.0
C408 C 1.00367 0.81871 0.23527 0.0
C409 C 0.13214 0.84544 0.22707 0.0
O410 O 0.27126 0.84282 0.26251 0.0
O411 O 0.22714 0.8272 0.23687 0.0
C412 C 0.24593 0.81602 0.24961 0.0
O413 O 0.25779 0.91183 0.21912 0.0
O414 O 0.34837 0.91501 0.28188 0.0
O415 O 0.37254 0.95704 0.25771 0.0
O416 O 0.30671 0.89641 0.23047 0.0
C417 C 0.29307 0.9106 0.21682 0.0
O418 O 0.22315 0.93691 0.2562 0.0
O419 O 0.29537 0.96985 0.25361 0.0
O420 O 0.26441 0.90961 0.28525 0.0
O421 O 0.16278 0.88414 0.22458 0.0
O422 O 0.14408 0.82338 0.23718 0.0
O423 O 0.19931 0.85899 0.27362 0.0
C424 C 0.41343 0.92797 0.26877 0.0
C425 C 0.40075 0.88599 0.26396 0.0
C426 C 0.48694 0.94604 0.26578 0.0
C427 C 0.43101 0.87408 0.26022 0.0
C428 C 0.45668 0.95784 0.26965 0.0
C429 C 0.47448 0.90403 0.26099 0.0
C430 C 0.3819 0.94116 0.27225 0.0
C431 C 0.26017 0.97149 0.25523 0.0
H432 H 0.09208 0.84052 0.26104 0.0
H433 H 1.00153 0.81732 0.20444 0.0
H434 H 1.0184 0.82368 0.2654 0.0
H435 H 0.07459 0.83343 0.20028 0.0
H436 H 0.36746 0.86248 0.26296 0.0
H437 H 0.52016 0.96978 0.26668 0.0
H438 H 0.42038 0.84163 0.25635 0.0
H439 H 0.46708 0.99039 0.27326 0.0
Eu440 Eu 0.18929 0.32997 0.23981 0.0
Eu441 Eu 0.15264 0.39051 0.2566 0.0
C442 C 0.19659 0.35614 0.28368 0.0
C443 C 0.21827 0.24169 0.23369 0.0
C444 C 0.25275 0.24352 0.24354 0.0
C445 C 0.18609 0.16511 0.23214 0.0
C446 C 0.25383 0.20669 0.24772 0.0
C447 C 0.18496 0.20199 0.22801 0.0
C448 C 0.22061 0.16692 0.24202 0.0
C449 C 0.21894 0.28142 0.22849 0.0
O450 O 0.21657 0.43667 0.2438 0.0
O451 O 0.24647 0.39422 0.24202 0.0
C452 C 0.24944 0.43137 0.24149 0.0
O453 O 0.17869 0.36354 0.21479 0.0
O454 O 0.13957 0.42336 0.27942 0.0
O455 O 0.12293 0.42772 0.25027 0.0
O456 O 0.12245 0.36297 0.22861 0.0
C457 C 0.14522 0.36822 0.21351 0.0
O458 O 0.11974 0.28648 0.24378 0.0
O459 O 0.10264 0.32366 0.26509 0.0
O460 O 0.19836 0.39084 0.27787 0.0
O461 O 0.18452 0.27906 0.22159 0.0
O462 O 0.23883 0.31332 0.24008 0.0
O463 O 0.1842 0.32387 0.27203 0.0
C464 C 0.14825 0.48888 0.269 0.0
C465 C 0.17986 0.51469 0.25598 0.0
C466 C 0.15281 0.55154 0.2833 0.0
C467 C 0.19691 0.55839 0.25628 0.0
C468 C 0.13531 0.50765 0.28284 0.0
C469 C 0.18316 0.57722 0.26977 0.0
C470 C 0.1274 0.44254 0.26751 0.0
C471 C 0.09386 0.28826 0.25623 0.0
H472 H 0.27921 0.2736 0.24794 0.0
H473 H 0.16021 0.1352 0.22723 0.0
H474 H 0.28068 0.20944 0.25554 0.0
H475 H 0.15819 0.19937 0.22016 0.0
H476 H 0.19072 0.501 0.24527 0.0
H477 H 0.14155 0.56528 0.29381 0.0
H478 H 0.22062 0.57748 0.24585 0.0
H479 H 0.11103 0.4883 0.29302 0.0
Eu480 Eu 0.87553 0.71989 0.7754 0.0
Eu481 Eu 0.77964 0.66067 0.75664 0.0
C482 C 0.85893 0.70361 0.73016 0.0
C483 C 0.99534 0.80066 0.78346 0.0
C484 C 1.00221 0.82592 0.76735 0.0
C485 C 0.07113 0.8394 0.7899 0.0
C486 C 0.04336 0.85791 0.76263 0.0
C487 C 1.03014 0.80763 0.7946 0.0
C488 C 0.07846 0.86511 0.77385 0.0
C489 C 0.95257 0.76673 0.78898 0.0
O490 O 0.81301 0.62258 0.75633 0.0
O491 O 0.85613 0.65263 0.78209 0.0
C492 C 0.83803 0.62191 0.76962 0.0
O493 O 0.82713 0.70595 0.79905 0.0
O494 O 0.73844 0.61573 0.73514 0.0
O495 O 0.71125 0.6352 0.75756 0.0
O496 O 0.77444 0.64321 0.78716 0.0
C497 C 0.79031 0.67083 0.80094 0.0
O498 O 0.85914 0.7648 0.76121 0.0
O499 O 0.78689 0.72494 0.76339 0.0
O500 O 0.82116 0.69856 0.7327 0.0
O501 O 0.93891 0.72996 0.78102 0.0
O502 O 0.92277 0.77636 0.79052 0.0
O503 O 0.883 0.70578 0.74456 0.0
C504 C 0.67255 0.56429 0.74754 0.0
C505 C 0.68349 0.53913 0.75854 0.0
C506 C 0.60071 0.5054 0.74505 0.0
C507 C 0.65307 0.49733 0.76285 0.0
C508 C 0.63111 0.54702 0.7407 0.0
C509 C 0.61113 0.48016 0.75636 0.0
C510 C 0.70376 0.60879 0.74362 0.0
C511 C 0.82186 0.76197 0.76202 0.0
H512 H 0.97582 0.82093 0.75847 0.0
H513 H 0.09703 0.84434 0.7991 0.0
H514 H 0.04772 0.87676 0.75009 0.0
H515 H 1.02557 0.78856 0.8071 0.0
H516 H 0.7154 0.55203 0.764 0.0
H517 H 0.56887 0.49297 0.73959 0.0
H518 H 0.66203 0.47889 0.7717 0.0
H519 H 0.62212 0.56589 0.73216 0.0
Eu520 Eu 0.34416 0.17921 0.77858 0.0
Eu521 Eu 0.39956 0.1362 0.763 0.0
C522 C 0.36563 0.17965 0.73439 0.0
C523 C 0.26108 0.21305 0.78473 0.0
C524 C 0.23083 0.18078 0.77313 0.0
C525 C 0.21783 0.24645 0.78497 0.0
C526 C 0.19404 0.18106 0.76769 0.0
C527 C 0.2545 0.24602 0.79047 0.0
C528 C 0.18695 0.21379 0.77364 0.0
C529 C 0.30028 0.21367 0.79038 0.0
O530 O 0.44802 0.2017 0.77383 0.0
O531 O 0.40779 0.23352 0.77157 0.0
C532 C 0.44468 0.23587 0.77295 0.0
O533 O 0.37936 0.17017 0.80343 0.0
O534 O 0.43009 0.11677 0.74153 0.0
O535 O 0.43641 0.10739 0.77153 0.0
O536 O 0.36995 0.1095 0.79101 0.0
C537 C 0.37992 0.13476 0.80553 0.0
O538 O 0.29565 0.11122 0.77379 0.0
O539 O 0.33152 0.0862 0.75572 0.0
O540 O 0.39854 0.17653 0.73939 0.0
O541 O 0.29641 0.17893 0.79744 0.0
O542 O 0.33146 0.23143 0.77835 0.0
O543 O 0.33524 0.17219 0.74654 0.0
C544 C 0.49543 0.12454 0.75236 0.0
C545 C 0.52402 0.16077 0.76262 0.0
C546 C 0.55412 0.1163 0.74175 0.0
C547 C 0.56723 0.17384 0.76295 0.0
C548 C 0.51093 0.10312 0.74153 0.0
C549 C 0.58261 0.15096 0.75298 0.0
C550 C 0.44936 0.10662 0.75434 0.0
C551 C 0.2963 0.08203 0.76313 0.0
H552 H 0.23564 0.15536 0.7683 0.0
H553 H 0.21316 0.27181 0.79 0.0
H554 H 0.17113 0.15566 0.75879 0.0
H555 H 0.27769 0.2714 0.7993 0.0
H556 H 0.5127 0.17788 0.77106 0.0
H557 H 0.56502 0.09852 0.73355 0.0
H558 H 0.58814 0.2005 0.7718 0.0
H559 H 0.48944 0.07527 0.73344 0.0
Eu560 Eu 0.88899 0.19085 0.77298 0.0
Eu561 Eu 0.92926 0.28902 0.7567 0.0
C562 C 0.89067 0.21073 0.72848 0.0
C563 C 0.85819 0.07338 0.78018 0.0
C564 C 0.89213 0.06806 0.78594 0.0
C565 C 0.82315 1.00173 0.76721 0.0
C566 C 0.89156 0.03005 0.78238 0.0
C567 C 0.82367 0.03966 0.77083 0.0
C568 C 0.85704 0.99625 0.77296 0.0
C569 C 0.85706 0.11262 0.78468 0.0
O570 O 0.86305 0.2698 0.76702 0.0
O571 O 0.83359 0.19794 0.76504 0.0
C572 C 0.82975 0.23161 0.76599 0.0
O573 O 0.89484 0.23453 0.79762 0.0
O574 O 0.94682 0.33769 0.73493 0.0
O575 O 0.95748 0.35508 0.76471 0.0
O576 O 0.95451 0.28857 0.78546 0.0
C577 C 0.92863 0.27215 0.7997 0.0
O578 O 0.95864 0.21554 0.77044 0.0
O579 O 0.98105 0.27323 0.75064 0.0
O580 O 0.89106 0.24565 0.73301 0.0
O581 O 0.89063 0.14457 0.79218 0.0
O582 O 0.83886 0.12478 0.77226 0.0
O583 O 0.89906 0.18948 0.74117 0.0
C584 C 0.93871 0.39502 0.74551 0.0
C585 C 0.89488 0.3777 0.74306 0.0
C586 C 0.94632 0.46438 0.74946 0.0
C587 C 0.87686 0.40363 0.7439 0.0
C588 C 0.9643 0.43854 0.74848 0.0
C589 C 0.90233 0.44716 0.74748 0.0
C590 C 0.95749 0.36782 0.74744 0.0
C591 C 0.98729 0.24488 0.75942 0.0
H592 H 0.91902 0.09306 0.7934 0.0
H593 H 0.79626 0.97682 0.75973 0.0
H594 H 0.91796 0.02695 0.78735 0.0
H595 H 0.79679 0.04251 0.76637 0.0
H596 H 0.8745 0.344 0.74109 0.0
H597 H 0.9668 0.49785 0.752 0.0
H598 H 0.84286 0.38943 0.74246 0.0
H599 H 0.9981 0.45237 0.75062 0.0
Eu600 Eu 0.40176 0.21067 0.57828 0.0
Eu601 Eu 0.3428 0.11457 0.59583 0.0
C602 C 0.38993 0.19199 0.62363 0.0
C603 C 0.49013 0.32694 0.57117 0.0
C604 C 0.49135 0.35208 0.58664 0.0
C605 C 0.56407 0.37807 0.56477 0.0
C606 C 0.52865 0.3898 0.59112 0.0
C607 C 0.52688 0.34061 0.56026 0.0
C608 C 0.5656 0.40314 0.5803 0.0
C609 C 0.45077 0.28755 0.56567 0.0
O610 O 0.30448 0.14798 0.59759 0.0
O611 O 0.33462 0.19355 0.57269 0.0
C612 C 0.30385 0.17427 0.58501 0.0
O613 O 0.38589 0.1626 0.55424 0.0
O614 O 0.29793 0.07106 0.61663 0.0
O615 O 0.31862 0.04684 0.59342 0.0
O616 O 0.32226 0.11218 0.56588 0.0
C617 C 0.34945 0.12719 0.55198 0.0
O618 O 0.44662 0.19316 0.59136 0.0
O619 O 0.40647 0.12189 0.58688 0.0
O620 O 0.38121 0.15322 0.62043 0.0
O621 O 0.45461 0.25529 0.56063 0.0
O622 O 0.41682 0.27623 0.57581 0.0
O623 O 0.39265 0.2175 0.60984 0.0
C624 C 0.24749 1.00653 0.60276 0.0
C625 C 0.22247 1.0182 0.59204 0.0
C626 C 0.18898 0.93448 0.60356 0.0
C627 C 0.18088 0.98807 0.58707 0.0
C628 C 0.23041 0.96461 0.60858 0.0
C629 C 0.16384 0.94574 0.5926 0.0
C630 C 0.29177 0.03758 0.60732 0.0
C631 C 0.44372 0.15647 0.58859 0.0
H632 H 0.46352 0.3427 0.59529 0.0
H633 H 0.59162 0.38768 0.55588 0.0
H634 H 0.52873 0.40818 0.60322 0.0
H635 H 0.52682 0.32235 0.5481 0.0
H636 H 0.23531 0.05049 0.58733 0.0
H637 H 0.17659 0.90226 0.60827 0.0
H638 H 0.16248 0.99765 0.57851 0.0
H639 H 0.24926 0.95507 0.61685 0.0
Eu640 Eu 0.86735 0.21671 0.57197 0.0
Eu641 Eu 0.96492 0.25705 0.58991 0.0
C642 C 0.88474 0.21204 0.61634 0.0
C643 C 0.74844 0.18101 0.56485 0.0
C644 C 0.7374 0.18184 0.58393 0.0
C645 C 0.67853 0.16729 0.55521 0.0
C646 C 0.69703 0.17492 0.5886 0.0
C647 C 0.71878 0.17403 0.55057 0.0
C648 C 0.6669 0.16722 0.57431 0.0
C649 C 0.78911 0.18385 0.55967 0.0
O650 O 0.94946 0.19288 0.57852 0.0
O651 O 0.87694 0.16142 0.5754 0.0
C652 C 0.91181 0.15949 0.5759 0.0
O653 O 0.9128 0.22725 0.54749 0.0
O654 O 1.01125 0.27568 0.613 0.0
O655 O 1.03204 0.28563 0.58366 0.0
O656 O 0.96718 0.28475 0.56138 0.0
C657 C 0.95072 0.26106 0.54638 0.0
O658 O 0.89175 0.28607 0.57502 0.0
O659 O 0.9458 0.30605 0.59687 0.0
O660 O 0.9197 0.21273 0.61154 0.0
O661 O 0.81997 0.22016 0.55387 0.0
O662 O 0.80242 0.16462 0.57089 0.0
O663 O 0.86414 0.22218 0.60402 0.0
C664 C 0.07048 0.26834 0.60474 0.0
C665 C 0.11437 0.29456 0.60313 0.0
C666 C 0.0803 0.20751 0.60757 0.0
C667 C 0.14102 0.27741 0.60334 0.0
C668 C 0.05355 0.22471 0.6072 0.0
C669 C 0.12425 0.23363 0.60519 0.0
C670 C 0.0429 0.28631 0.60136 0.0
C671 C 0.91888 0.3133 0.58731 0.0
H672 H 0.75973 0.18714 0.59523 0.0
H673 H 0.65612 0.16105 0.54383 0.0
H674 H 0.68946 0.17572 0.60342 0.0
H675 H 0.72644 0.17285 0.53578 0.0
H676 H 0.12796 0.32821 0.60104 0.0
H677 H 0.06649 0.17366 0.60889 0.0
H678 H 0.17478 0.29835 0.6017 0.0
H679 H 1.01962 0.20385 0.60816 0.0
Eu680 Eu 0.86165 0.67927 0.5767 0.0
Eu681 Eu 0.81972 0.73748 0.59018 0.0
C682 C 0.86956 0.71252 0.61949 0.0
C683 C 0.8924 0.59267 0.57088 0.0
C684 C 0.92834 0.58885 0.56791 0.0
C685 C 0.85463 0.52015 0.58214 0.0
C686 C 0.92741 0.55091 0.57182 0.0
C687 C 0.85565 0.55822 0.57828 0.0
C688 C 0.89038 0.51585 0.57876 0.0
C689 C 0.89418 0.6328 0.56608 0.0
O690 O 0.88448 0.78396 0.57804 0.0
O691 O 0.91704 0.74416 0.57986 0.0
C692 C 0.91881 0.7806 0.57803 0.0
O693 O 0.85176 0.71173 0.55097 0.0
O694 O 0.79858 0.76855 0.61041 0.0
O695 O 0.79363 0.77578 0.58004 0.0
O696 O 0.79124 0.70272 0.56329 0.0
C697 C 0.81599 0.71177 0.54868 0.0
O698 O 0.79308 0.63286 0.58174 0.0
O699 O 0.7703 0.67107 0.5994 0.0
O700 O 0.86495 0.74342 0.61296 0.0
O701 O 0.86073 0.63073 0.55822 0.0
O702 O 0.91142 0.66284 0.57872 0.0
O703 O 0.85961 0.67879 0.60909 0.0
C704 C 0.81185 0.83501 0.59886 0.0
C705 C 0.85574 0.85967 0.60184 0.0
C706 C 0.80859 0.89888 0.59391 0.0
C707 C 0.87603 0.90376 0.60064 0.0
C708 C 0.78838 0.85494 0.59517 0.0
C709 C 0.85276 0.92378 0.59623 0.0
C710 C 0.79128 0.78886 0.59702 0.0
C711 C 0.76461 0.63501 0.59238 0.0
H712 H 0.95708 0.61513 0.56227 0.0
H713 H 0.82573 0.49399 0.58769 0.0
H714 H 0.95532 0.54865 0.56882 0.0
H715 H 0.82766 0.56059 0.5809 0.0
H716 H 0.87448 0.84475 0.60445 0.0
H717 H 0.78967 0.91339 0.59081 0.0
H718 H 0.91008 0.92202 0.6024 0.0
H719 H 0.75458 0.83642 0.59265 0.0
H720 H 0.58808 0.95558 0.10875 0.0
H721 H 0.45389 0.87229 0.10077 0.0
H722 H 0.46602 0.81284 0.09564 0.0
H723 H 0.51595 0.78592 0.09108 0.0
H724 H 0.6499 0.87131 0.09877 0.0
H725 H 0.63658 0.92861 0.10612 0.0
C726 C 0.56127 0.92441 0.106 0.0
C727 C 0.52014 0.91857 0.10499 0.0
C728 C 0.56855 0.8908 0.10277 0.0
C729 C 0.4859 0.87775 0.10164 0.0
C730 C 0.49287 0.84379 0.0986 0.0
C731 C 0.54211 0.81697 0.09457 0.0
C732 C 0.58398 0.82441 0.09408 0.0
C733 C 0.53422 0.85012 0.09877 0.0
C734 C 0.61752 0.86488 0.09861 0.0
C735 C 0.60992 0.89765 0.10294 0.0
H736 H 0.25445 0.76341 0.11418 0.0
H737 H 0.27619 0.754 0.05461 0.0
H738 H 0.22532 0.67811 0.0552 0.0
H739 H 0.1728 0.61486 0.07248 0.0
H740 H 0.14839 0.62565 0.13163 0.0
H741 H 0.20249 0.70034 0.13146 0.0
C742 C 0.24834 0.74462 0.10138 0.0
C743 C 0.26913 0.76422 0.08439 0.0
C744 C 0.2186 0.70123 0.10177 0.0
C745 C 0.26038 0.73965 0.06783 0.0
C746 C 0.23143 0.69626 0.06819 0.0
C747 C 0.17972 0.63347 0.08539 0.0
C748 C 0.15674 0.61467 0.10208 0.0
C749 C 0.21012 0.67675 0.08505 0.0
C750 C 0.16559 0.63936 0.1186 0.0
C751 C 0.19649 0.68209 0.11851 0.0
H752 H 0.31029 0.47946 0.10983 0.0
H753 H 0.32933 0.5611 0.06223 0.0
H754 H 0.40581 0.58966 0.06421 0.0
H755 H 0.46703 0.589 0.07853 0.0
H756 H 0.44757 0.50705 0.12619 0.0
H757 H 0.37178 0.48132 0.12513 0.0
C758 C 0.33121 0.50341 0.09986 0.0
C759 C 0.31411 0.5179 0.08583 0.0
C760 C 0.37515 0.51971 0.10109 0.0
C761 C 0.34169 0.54953 0.07323 0.0
C762 C 0.38542 0.56577 0.07431 0.0
C763 C 0.44631 0.5658 0.0888 0.0
C764 C 0.46317 0.54989 0.10234 0.0
C765 C 0.4025 0.55083 0.08808 0.0
C766 C 0.43567 0.51988 0.11556 0.0
C767 C 0.39217 0.50497 0.11495 0.0
H768 H 0.88643 0.46249 0.9255 0.0
H769 H 0.98233 0.58512 0.90561 0.0
H770 H 0.93302 0.61114 0.90821 0.0
H771 H 0.8637 0.60064 0.91714 0.0
H772 H 0.76719 0.47912 0.93752 0.0
H773 H 0.81526 0.45126 0.93349 0.0
C774 C 0.89636 0.49474 0.92155 0.0
C775 C 0.93828 0.52174 0.91548 0.0
C776 C 0.86772 0.50994 0.92323 0.0
C777 C 0.9505 0.56355 0.91049 0.0
C778 C 0.92228 0.57862 0.91196 0.0
C779 C 0.85319 0.56812 0.92083 0.0
C780 C 0.81191 0.54221 0.92776 0.0
C781 C 0.88105 0.55236 0.91857 0.0
C782 C 0.79867 0.49982 0.93204 0.0
C783 C 0.82626 0.48387 0.92982 0.0
H784 H 0.50058 0.29436 0.90487 0.0
H785 H 0.53804 0.30758 0.9638 0.0
H786 H 0.56449 0.38347 0.96231 0.0
H787 H 0.57467 0.4459 0.94456 0.0
H788 H 0.53515 0.43186 0.88587 0.0
H789 H 0.5126 0.35691 0.88691 0.0
C790 C 0.51498 0.31392 0.91733 0.0
C791 C 0.51715 0.29518 0.93444 0.0
C792 C 0.52986 0.35754 0.91642 0.0
C793 C 0.53542 0.32101 0.95052 0.0
C794 C 0.55077 0.3645 0.94965 0.0
C795 C 0.56159 0.42655 0.93194 0.0
C796 C 0.55664 0.4446 0.91516 0.0
C797 C 0.54784 0.38309 0.93272 0.0
C798 C 0.53922 0.41887 0.899 0.0
C799 C 0.52623 0.37591 0.89957 0.0
H800 H 0.65102 0.10711 0.90956 0.0
H801 H 0.60168 0.18299 0.93282 0.0
H802 H 0.67348 0.24167 0.93758 0.0
H803 H 0.75027 0.27045 0.93658 0.0
H804 H 0.80018 0.19425 0.91446 0.0
H805 H 0.7283 0.13665 0.90795 0.0
C806 C 0.65602 0.13667 0.91546 0.0
C807 C 0.62104 0.14065 0.92081 0.0
C808 C 0.69751 0.17011 0.91854 0.0
C809 C 0.62805 0.179 0.92866 0.0
C810 C 0.66911 0.21261 0.93139 0.0
C811 C 0.74541 0.2414 0.93013 0.0
C812 C 0.78048 0.23662 0.92601 0.0
C813 C 0.70406 0.20835 0.92661 0.0
C814 C 0.77366 0.19854 0.91794 0.0
C815 C 0.73259 0.16568 0.91413 0.0
H816 H 0.18479 0.131 0.41047 0.0
H817 H 0.30634 0.20319 0.43791 0.0
H818 H 0.29123 0.25984 0.44468 0.0
H819 H 0.24429 0.2898 0.44206 0.0
H820 H 0.12346 0.21825 0.41384 0.0
H821 H 0.13725 0.16036 0.40839 0.0
C822 C 0.20778 0.15895 0.41811 0.0
C823 C 0.24668 0.16283 0.42364 0.0
C824 C 0.199 0.19157 0.42184 0.0
C825 C 0.27637 0.19957 0.43329 0.0
C826 C 0.26767 0.23191 0.43725 0.0
C827 C 0.22077 0.26138 0.43489 0.0
C828 C 0.18286 0.25846 0.42841 0.0
C829 C 0.2292 0.22839 0.43149 0.0
C830 C 0.15297 0.22151 0.41895 0.0
C831 C 0.16083 0.18832 0.41581 0.0
H832 H 0.94227 0.08822 0.41264 0.0
H833 H 0.87628 0.13192 0.44859 0.0
H834 H 0.82241 0.05904 0.45547 0.0
H835 H 0.79297 0.98296 0.45058 0.0
H836 H 0.8581 0.93917 0.41404 0.0
H837 H 0.91362 1.01194 0.40832 0.0
C838 C 0.91632 0.08176 0.42213 0.0
C839 C 0.91324 0.11548 0.43003 0.0
C840 C 0.8853 0.03975 0.42594 0.0
C841 C 0.87911 0.10657 0.44212 0.0
C842 C 0.84841 0.06489 0.44614 0.0
C843 C 0.81949 0.98925 0.4415 0.0
C844 C 0.8213 0.95556 0.43277 0.0
C845 C 0.85101 0.03123 0.43802 0.0
C846 C 0.85578 0.96444 0.42091 0.0
C847 C 0.88757 1.00608 0.41761 0.0
H848 H 0.13365 0.93702 0.42202 0.0
H849 H 0.11091 0.82868 0.45521 0.0
H850 H 0.03509 0.80304 0.45497 0.0
H851 H 0.97471 0.80834 0.44347 0.0
H852 H 0.99586 0.91482 0.40931 0.0
H853 H 0.07247 0.94391 0.41161 0.0
C854 C 0.11207 0.90819 0.42944 0.0
C855 C 0.12787 0.88477 0.43859 0.0
C856 C 0.0681 0.89291 0.42884 0.0
C857 C 0.09952 0.84718 0.44796 0.0
C858 C 0.05612 0.83242 0.44781 0.0
C859 C 0.99606 0.83823 0.43676 0.0
C860 C 0.97949 0.85925 0.4262 0.0
C861 C 0.03997 0.85455 0.438 0.0
C862 C 1.00772 0.89767 0.41733 0.0
C863 C 0.05156 0.91445 0.41872 0.0
H864 H 0.47675 0.83426 0.27302 0.0
H865 H 0.54492 0.94644 0.23895 0.0
H866 H 0.59951 0.92824 0.23237 0.0
H867 H 0.62906 0.88184 0.237 0.0
H868 H 0.56208 0.77016 0.27155 0.0
H869 H 0.50564 0.78649 0.27697 0.0
C870 C 0.50335 0.85447 0.264 0.0
C871 C 0.50682 0.89181 0.25658 0.0
C872 C 0.53485 0.84391 0.26033 0.0
C873 C 0.54175 0.91788 0.24508 0.0
C874 C 0.57289 0.90738 0.24122 0.0
C875 C 0.60198 0.86078 0.24559 0.0
C876 C 0.59993 0.82478 0.25385 0.0
C877 C 0.56995 0.87067 0.24889 0.0
C878 C 0.56461 0.79811 0.26503 0.0
C879 C 0.5323 0.80746 0.26817 0.0
H880 H 0.25024 0.77236 0.27991 0.0
H881 H 0.21941 0.76016 0.22015 0.0
H882 H 0.19913 0.68567 0.221 0.0
H883 H 0.18725 0.62329 0.23898 0.0
H884 H 0.2139 0.634 0.29909 0.0
H885 H 0.23851 0.70973 0.29793 0.0
C886 C 0.23954 0.75347 0.26704 0.0
C887 C 0.23651 0.77177 0.24997 0.0
C888 C 0.22686 0.71035 0.26775 0.0
C889 C 0.22196 0.74678 0.23346 0.0
C890 C 0.21034 0.70419 0.23394 0.0
C891 C 0.19887 0.64235 0.25178 0.0
C892 C 0.19899 0.62324 0.26908 0.0
C893 C 0.21222 0.68555 0.25104 0.0
C894 C 0.21337 0.64806 0.28564 0.0
C895 C 0.22754 0.69131 0.28495 0.0
H896 H 0.44446 0.5488 0.22982 0.0
H897 H 0.43046 0.60412 0.28151 0.0
H898 H 0.35347 0.55964 0.27946 0.0
H899 H 0.29024 0.50007 0.26449 0.0
H900 H 0.30548 0.44218 0.21404 0.0
H901 H 0.38136 0.49322 0.2137 0.0
C902 C 0.42455 0.55166 0.24046 0.0
C903 C 0.44331 0.57954 0.25588 0.0
C904 C 0.38031 0.52556 0.23933 0.0
C905 C 0.41693 0.58242 0.26966 0.0
C906 C 0.37284 0.55715 0.26844 0.0
C907 C 0.31012 0.49961 0.25315 0.0
C908 C 0.29242 0.46792 0.23916 0.0
C909 C 0.35415 0.52797 0.25354 0.0
C910 C 0.31852 0.46669 0.22482 0.0
C911 C 0.36192 0.49561 0.22472 0.0
H912 H 0.81284 0.55695 0.74425 0.0
H913 H 0.89006 0.61185 0.79432 0.0
H914 H 0.91559 0.56195 0.79212 0.0
H915 H 0.919 0.50517 0.77515 0.0
H916 H 0.84242 0.45004 0.72508 0.0
H917 H 0.81341 0.49732 0.72821 0.0
C918 C 0.83491 0.55776 0.75481 0.0
C919 C 0.84963 0.58841 0.76937 0.0
C920 C 0.84983 0.52908 0.75339 0.0
C921 C 0.87821 0.5888 0.78292 0.0
C922 C 0.89299 0.56032 0.78165 0.0
C923 C 0.89606 0.50362 0.76488 0.0
C924 C 0.88325 0.4745 0.74978 0.0
C925 C 0.87959 0.53083 0.76678 0.0
C926 C 0.85277 0.47217 0.73684 0.0
C927 C 0.83629 0.49928 0.73859 0.0
H928 H 0.61519 0.40705 0.75709 0.0
H929 H 0.53174 0.45615 0.7686 0.0
H930 H 0.47459 0.38556 0.77614 0.0
H931 H 0.44697 0.31009 0.77786 0.0
H932 H 0.52793 0.25837 0.76596 0.0
H933 H 0.58769 0.32989 0.76068 0.0
C934 C 0.58461 0.40227 0.76143 0.0
C935 C 0.57764 0.43689 0.76197 0.0
C936 C 0.55149 0.3612 0.76573 0.0
C937 C 0.53777 0.43009 0.76763 0.0
C938 C 0.50509 0.38972 0.77207 0.0
C939 C 0.4777 0.31422 0.77422 0.0
C940 C 0.48276 0.27873 0.77215 0.0
C941 C 0.5114 0.35506 0.77088 0.0
C942 C 0.52307 0.28505 0.76768 0.0
C943 C 0.55718 0.32596 0.76453 0.0
H944 H 0.65554 0.22857 0.75502 0.0
H945 H 0.60968 0.0946 0.75747 0.0
H946 H 0.68137 0.10824 0.76222 0.0
H947 H 0.75643 0.1571 0.76555 0.0
H948 H 0.80493 0.29147 0.76333 0.0
H949 H 0.73265 0.27868 0.75908 0.0
C950 C 0.66127 0.20241 0.75667 0.0
C951 C 0.62711 0.16054 0.75558 0.0
C952 C 0.70293 0.21047 0.7596 0.0
C953 C 0.63525 0.12707 0.75772 0.0
C954 C 0.67627 0.13482 0.76064 0.0
C955 C 0.7515 0.18384 0.7642 0.0
C956 C 0.78627 0.22524 0.76474 0.0
C957 C 0.71026 0.17627 0.76155 0.0
C958 C 0.77883 0.25926 0.76303 0.0
C959 C 0.73749 0.25193 0.76052 0.0
H960 H 0.18372 0.25123 0.57836 0.0
H961 H 0.12764 0.1747 0.62806 0.0
H962 H 0.17671 0.14742 0.62573 0.0
H963 H 0.23815 0.14826 0.6103 0.0
H964 H 0.29285 0.22526 0.56039 0.0
H965 H 0.24177 0.24922 0.5621 0.0
C966 C 0.18236 0.2287 0.58874 0.0
C967 C 0.15254 0.21546 0.60351 0.0
C968 C 0.21046 0.21319 0.58727 0.0
C969 C 0.15041 0.18544 0.61657 0.0
C970 C 0.17853 0.16995 0.61527 0.0
C971 C 0.23864 0.16996 0.5997 0.0
C972 C 0.26968 0.18509 0.58533 0.0
C973 C 0.20904 0.18395 0.60077 0.0
C974 C 0.26965 0.21316 0.57169 0.0
C975 C 0.24042 0.22703 0.57265 0.0
H976 H 0.83902 0.96532 0.56784 0.0
H977 H 0.91516 0.98655 0.61802 0.0
H978 H 0.94588 0.06298 0.61445 0.0
H979 H 0.94495 0.12341 0.59891 0.0
H980 H 0.86497 0.10012 0.54995 0.0
H981 H 0.84232 0.02511 0.55101 0.0
C982 C 0.86234 0.98666 0.57802 0.0
C983 C 0.8742 0.97025 0.59336 0.0
C984 C 0.87932 0.03032 0.57602 0.0
C985 C 0.90535 0.99838 0.60611 0.0
C986 C 0.92283 0.04208 0.60411 0.0
C987 C 0.92354 0.10195 0.5882 0.0
C988 C 0.90673 0.11706 0.57431 0.0
C989 C 0.90936 0.05842 0.58934 0.0
C990 C 0.87835 0.08903 0.56071 0.0
C991 C 0.86517 0.04615 0.56139 0.0
H992 H 0.09084 0.95004 0.5928 0.0
H993 H 0.13968 0.86768 0.57861 0.0
H994 H 0.06854 0.8111 0.57093 0.0
H995 H 0.99258 0.7833 0.57046 0.0
H996 H 0.94156 0.86347 0.58517 0.0
H997 H 1.01353 0.923 0.58986 0.0
C998 C 0.0859 0.91986 0.58779 0.0
C999 C 0.12052 0.9129 0.58659 0.0
C1000 C 0.04459 0.88714 0.58345 0.0
C1001 C 0.11356 0.8736 0.58009 0.0
C1002 C 0.0729 0.84128 0.57557 0.0
C1003 C 0.99702 0.81387 0.57452 0.0
C1004 C 0.96161 0.81871 0.57769 0.0
C1005 C 0.03818 0.84743 0.57758 0.0
C1006 C 0.96819 0.85878 0.58266 0.0
C1007 C 1.00937 0.89275 0.58548 0.0
H1008 H 0.5226 0.97605 0.04121 0.0
H1009 H 0.56946 0.10958 0.04689 0.0
H1010 H 0.56918 0.11622 0.01226 0.0
H1011 H 0.54627 0.08202 0.98082 0.0
H1012 H 0.50119 0.94903 0.97498 0.0
H1013 H 0.5101 0.9439 0.00932 0.0
C1014 C 0.53363 1.00676 0.03481 0.0
C1015 C 0.54562 0.04225 0.04652 0.0
C1016 C 0.53308 1.01018 0.01495 0.0
C1017 C 0.56027 0.08191 0.03815 0.0
C1018 C 0.55969 0.0856 0.01837 0.0
C1019 C 0.53921 0.05215 0.98711 0.0
C1020 C 0.52277 1.0158 0.97566 0.0
C1021 C 0.54474 0.04969 1.00671 0.0
C1022 C 0.5139 0.97725 0.98368 0.0
C1023 C 0.51884 0.97438 1.00325 0.0
H1024 H 1.00549 0.53575 0.97783 0.0
H1025 H 0.12826 0.54759 0.97056 0.0
H1026 H 0.13717 0.54898 1.00513 0.0
H1027 H 0.10435 0.53422 0.03692 0.0
H1028 H 0.98187 0.52285 0.04428 0.0
H1029 H 0.97831 0.53406 0.01007 0.0
C1030 C 1.03475 0.53997 0.98386 0.0
C1031 C 0.06606 0.54116 0.97176 0.0
C1032 C 0.03917 0.53993 1.00368 0.0
C1033 C 0.10392 0.54688 0.97962 0.0
C1034 C 0.10871 0.54709 0.99937 0.0
C1035 C 0.0773 0.53507 0.03101 0.0
C1036 C 0.04304 0.52708 0.04285 0.0
C1037 C 0.0757 0.54164 0.01146 0.0
C1038 C 1.00841 0.52881 0.03531 0.0
C1039 C 1.00637 0.53503 0.0158 0.0
H1040 H 0.53402 0.49313 0.97514 0.0
H1041 H 0.53088 0.6092 0.97459 0.0
H1042 H 0.53234 0.61132 0.00931 0.0
H1043 H 0.54736 0.58714 0.03906 0.0
H1044 H 0.55409 0.47308 0.04037 0.0
H1045 H 0.5381 0.46262 1.00611 0.0
C1046 C 0.5318 0.51776 0.98275 0.0
C1047 C 0.53175 0.55071 0.97253 0.0
C1048 C 0.53445 0.51961 1.00273 0.0
C1049 C 0.53021 0.58328 0.98232 0.0
C1050 C 0.53159 0.58474 1.00211 0.0
C1051 C 0.54451 0.55957 0.03185 0.0
C1052 C 0.55248 0.53123 0.04192 0.0
C1053 C 0.53577 0.55421 0.01236 0.0
C1054 C 0.54821 0.4953 0.03272 0.0
C1055 C 0.53925 0.4895 0.01318 0.0
H1056 H 0.16647 0.31593 0.3707 0.0
H1057 H 0.25157 0.45003 0.37461 0.0
H1058 H 0.26376 0.45328 0.34014 0.0
H1059 H 0.24337 0.41883 0.30871 0.0
H1060 H 0.15911 0.28426 0.30499 0.0
H1061 H 0.15416 0.27993 0.33969 0.0
C1062 C 0.18828 0.34566 0.36396 0.0
C1063 C 0.20796 0.38279 0.37492 0.0
C1064 C 0.19513 0.34708 0.34427 0.0
C1065 C 0.23628 0.42119 0.3663 0.0
C1066 C 0.24303 0.42299 0.34665 0.0
C1067 C 0.2246 0.38843 0.31553 0.0
C1068 C 0.20124 0.35195 0.30432 0.0
C1069 C 0.22169 0.38629 0.33545 0.0
C1070 C 0.17745 0.31273 0.3133 0.0
C1071 C 0.1743 0.31032 0.33313 0.0
H1072 H 0.66409 0.77565 0.37392 0.0
H1073 H 0.72059 0.9102 0.38053 0.0
H1074 H 0.72974 0.91916 0.34587 0.0
H1075 H 0.72932 0.88823 0.31392 0.0
H1076 H 0.67677 0.75317 0.3098 0.0
H1077 H 0.65898 0.74518 0.34305 0.0
C1078 C 0.67782 0.80696 0.36777 0.0
C1079 C 0.69201 0.84217 0.37968 0.0
C1080 C 0.68454 0.81187 0.3482 0.0
C1081 C 0.70921 0.88251 0.37156 0.0
C1082 C 0.71494 0.88765 0.35178 0.0
C1083 C 0.71384 0.8572 0.32037 0.0
C1084 C 0.70531 0.82157 0.30936 0.0
C1085 C 0.70409 0.85256 0.33998 0.0
C1086 C 0.68475 0.78141 0.31788 0.0
C1087 C 0.67415 0.77657 0.33696 0.0
H1088 H 0.26311 0.85419 0.31296 0.0
H1089 H 0.15919 0.87762 0.30693 0.0
H1090 H 0.14821 0.87141 0.3415 0.0
H1091 H 0.17577 0.87034 0.37338 0.0
H1092 H 0.27967 0.84667 0.37932 0.0
H1093 H 0.28247 0.84062 0.34471 0.0
C1094 C 0.23744 0.85692 0.31925 0.0
C1095 C 0.21218 0.86677 0.30764 0.0
C1096 C 0.23155 0.85338 0.33902 0.0
C1097 C 0.17884 0.86998 0.31571 0.0
C1098 C 0.17281 0.86668 0.33543 0.0
C1099 C 0.19827 0.86271 0.36709 0.0
C1100 C 0.22786 0.85944 0.3788 0.0
C1101 C 0.20001 0.85995 0.34724 0.0
C1102 C 0.25655 0.84916 0.37059 0.0
C1103 C 0.25844 0.8462 0.35081 0.0
H1104 H 0.90824 0.76408 0.70497 0.0
H1105 H 0.83061 0.62972 0.71195 0.0
H1106 H 0.83259 0.61904 0.67767 0.0
H1107 H 0.84686 0.64918 0.64534 0.0
H1108 H 0.9218 0.78416 0.63861 0.0
H1109 H 0.93129 0.7934 0.67291 0.0
C1110 C 0.89305 0.73252 0.69895 0.0
C1111 C 0.8696 0.69771 0.71074 0.0
C1112 C 0.8934 0.72679 0.6792 0.0
C1113 C 0.84918 0.65686 0.70296 0.0
C1114 C 0.85006 0.65079 0.68339 0.0
C1115 C 0.86628 0.68041 0.65139 0.0
C1116 C 0.88307 0.71592 0.63952 0.0
C1117 C 0.87069 0.68565 0.67127 0.0
C1118 C 0.90802 0.75633 0.64752 0.0
C1119 C 0.91342 0.76171 0.66715 0.0
H1120 H 0.32461 0.16931 0.64731 0.0
H1121 H 0.46069 0.24079 0.6444 0.0
H1122 H 0.46489 0.24776 0.67915 0.0
H1123 H 0.4299 0.22501 0.71017 0.0
H1124 H 0.29363 0.15279 0.71324 0.0
H1125 H 0.2891 0.15524 0.67854 0.0
C1126 C 0.35503 0.18743 0.65436 0.0
C1127 C 0.39235 0.20479 0.64355 0.0
C1128 C 0.35703 0.1907 0.67427 0.0
C1129 C 0.43172 0.22773 0.65258 0.0
C1130 C 0.43404 0.23135 0.67239 0.0
C1131 C 0.39918 0.21043 0.70325 0.0
C1132 C 0.36214 0.18819 0.71416 0.0
C1133 C 0.39695 0.2117 0.68337 0.0
C1134 C 0.32254 0.17003 0.70511 0.0
C1135 C 0.31999 0.17119 0.68528 0.0
H1136 H 0.90687 0.1728 0.64282 0.0
H1137 H 0.83601 0.23723 0.63551 0.0
H1138 H 0.82777 0.23838 0.66997 0.0
H1139 H 0.84838 0.22897 0.70205 0.0
H1140 H 0.91934 0.16472 0.70944 0.0
H1141 H 0.91945 0.15511 0.67498 0.0
C1142 C 0.88907 0.18654 0.64875 0.0
C1143 C 0.87263 0.20551 0.63665 0.0
C1144 C 0.88481 0.18741 0.66855 0.0
C1145 C 0.84905 0.22254 0.6445 0.0
C1146 C 0.84458 0.22345 0.66422 0.0
C1147 C 0.86339 0.21235 0.69613 0.0
C1148 C 0.88442 0.19814 0.70822 0.0
C1149 C 0.86352 0.20722 0.67636 0.0
C1150 C 0.90305 0.17601 0.70042 0.0
C1151 C 0.90332 0.17076 0.68072 0.0
H1152 H 0.3729 0.92395 0.21183 0.0
H1153 H 0.27778 0.94323 0.18459 0.0
H1154 H 0.32669 0.97996 0.15843 0.0
H1155 H 0.39605 1.00658 0.14345 0.0
H1156 H 0.49132 0.98741 0.17055 0.0
H1157 H 0.44268 0.9512 0.19692 0.0
C1158 C 0.36254 0.93585 0.20012 0.0
C1159 C 0.32133 0.93043 0.20017 0.0
C1160 C 0.39104 0.95741 0.18526 0.0
C1161 C 0.30901 0.9466 0.18492 0.0
C1162 C 0.33709 0.9678 0.17 0.0
C1163 C 0.40651 0.99478 0.15515 0.0
C1164 C 0.44759 0.99991 0.15497 0.0
C1165 C 0.37819 0.97352 0.17008 0.0
C1166 C 0.46017 0.98422 0.17031 0.0
C1167 C 0.43222 0.96326 0.18534 0.0
H1168 H 0.13611 0.45817 0.13843 0.0
H1169 H 1.02328 0.44229 0.1659 0.0
H1170 H 0.03531 0.40625 0.19244 0.0
H1171 H 0.07808 0.38004 0.20784 0.0
H1172 H 0.19073 0.39565 0.18029 0.0
H1173 H 0.17793 0.43045 0.15347 0.0
C1174 C 0.11414 0.44713 0.15025 0.0
C1175 C 0.07892 0.45343 0.1502 0.0
C1176 C 0.12097 0.42596 0.1653 0.0
C1177 C 0.0507 0.43824 0.16558 0.0
C1178 C 0.05752 0.41746 0.18072 0.0
C1179 C 0.09981 0.3907 0.19593 0.0
C1180 C 0.13545 0.38508 0.19615 0.0
C1181 C 0.09252 0.41113 0.1807 0.0
C1182 C 0.16301 0.39922 0.18052 0.0
C1183 C 0.15582 0.4194 0.16523 0.0
H1184 H 0.66283 0.70149 0.21208 0.0
H1185 H 0.70144 0.81235 0.17786 0.0
H1186 H 0.68014 0.76835 0.14896 0.0
H1187 H 0.64556 0.69772 0.13402 0.0
H1188 H 0.60914 0.58738 0.16847 0.0
H1189 H 0.63465 0.63204 0.19699 0.0
C1190 C 0.66699 0.71611 0.19826 0.0
C1191 C 0.68324 0.76001 0.19702 0.0
C1192 C 0.65471 0.69068 0.18193 0.0
C1193 C 0.68914 0.7787 0.1791 0.0
C1194 C 0.67665 0.75348 0.16266 0.0
C1195 C 0.64328 0.68341 0.14778 0.0
C1196 C 0.62477 0.63914 0.14924 0.0
C1197 C 0.65853 0.70934 0.16398 0.0
C1198 C 0.62297 0.62121 0.16704 0.0
C1199 C 0.6375 0.64675 0.1833 0.0
H1200 H 0.9429 0.36508 0.87768 0.0
H1201 H 0.03689 0.47165 0.84583 0.0
H1202 H 1.02107 0.42646 0.81772 0.0
H1203 H 0.98392 0.35624 0.80297 0.0
H1204 H 0.88963 0.24963 0.83467 0.0
H1205 H 0.90288 0.29554 0.86235 0.0
C1206 C 0.95986 0.37871 0.86457 0.0
C1207 C 0.99142 0.4219 0.86397 0.0
C1208 C 0.95101 0.3524 0.8486 0.0
C1209 C 1.01246 0.43878 0.84674 0.0
C1210 C 1.00364 0.4128 0.83072 0.0
C1211 C 0.96617 0.34278 0.81592 0.0
C1212 C 0.93608 0.29917 0.81677 0.0
C1213 C 0.9736 0.36945 0.83162 0.0
C1214 C 0.91312 0.2828 0.83363 0.0
C1215 C 0.92065 0.30913 0.84943 0.0
H1216 H 0.69887 0.63094 0.88062 0.0
H1217 H 0.58832 0.57669 0.84453 0.0
H1218 H 0.63396 0.59992 0.81629 0.0
H1219 H 0.70515 0.6322 0.80212 0.0
H1220 H 0.81571 0.69004 0.83819 0.0
H1221 H 0.77006 0.66904 0.86642 0.0
C1222 C 0.68473 0.62433 0.86655 0.0
C1223 C 0.64023 0.60155 0.8646 0.0
C1224 C 0.71115 0.63834 0.85051 0.0
C1225 C 0.62237 0.59402 0.84636 0.0
C1226 C 0.64849 0.60717 0.83026 0.0
C1227 C 0.71929 0.64036 0.81618 0.0
C1228 C 0.76379 0.6621 0.81814 0.0
C1229 C 0.69287 0.62877 0.8322 0.0
C1230 C 0.78165 0.67326 0.83636 0.0
C1231 C 0.75553 0.66111 0.85245 0.0
H1232 H 0.39113 0.06751 0.8109 0.0
H1233 H 0.41233 0.18241 0.83806 0.0
H1234 H 0.44851 0.1697 0.86442 0.0
H1235 H 0.47461 0.12642 0.87942 0.0
H1236 H 0.45324 1.01157 0.85212 0.0
H1237 H 0.4172 0.02444 0.82582 0.0
C1238 C 0.40338 0.08982 0.82261 0.0
C1239 C 0.39876 0.12592 0.82247 0.0
C1240 C 0.42461 0.08259 0.83753 0.0
C1241 C 0.41511 0.15432 0.8378 0.0
C1242 C 0.43603 0.14715 0.85282 0.0
C1243 C 0.46243 0.10424 0.86768 0.0
C1244 C 0.46696 0.06805 0.86777 0.0
C1245 C 0.44121 0.11154 0.85275 0.0
C1246 C 0.45053 0.03971 0.85243 0.0
C1247 C 0.4297 0.04697 0.83743 0.0
H1248 H 1.03047 0.32723 0.54161 0.0
H1249 H 0.93321 0.2169 0.51266 0.0
H1250 H 0.98128 0.23095 0.48583 0.0
H1251 H 0.05101 0.27387 0.47094 0.0
H1252 H 0.14796 0.38434 0.49996 0.0
H1253 H 0.09979 0.37032 0.52669 0.0
C1254 C 1.01945 0.30623 0.52941 0.0
C1255 C 0.97796 0.27099 0.5292 0.0
C1256 C 0.0474 0.31424 0.51419 0.0
C1257 C 0.96468 0.24431 0.51322 0.0
C1258 C 0.9923 0.25223 0.49792 0.0
C1259 C 0.06193 0.29483 0.48316 0.0
C1260 C 0.10344 0.33009 0.48345 0.0
C1261 C 1.03382 0.2869 0.49834 0.0
C1262 C 0.11649 0.35694 0.49936 0.0
C1263 C 0.08883 0.34901 0.51461 0.0
H1264 H 0.81032 0.81307 0.47711 0.0
H1265 H 0.6931 0.7875 0.5036 0.0
H1266 H 0.70511 0.74908 0.52904 0.0
H1267 H 0.74793 0.72187 0.54328 0.0
H1268 H 0.86511 0.74719 0.51687 0.0
H1269 H 0.85324 0.78574 0.49138 0.0
C1270 C 0.78738 0.79942 0.48849 0.0
C1271 C 0.75079 0.80344 0.48843 0.0
C1272 C 0.79412 0.77671 0.50284 0.0
C1273 C 0.72158 0.78525 0.50331 0.0
C1274 C 0.72832 0.763 0.51778 0.0
C1275 C 0.77093 0.73555 0.53192 0.0
C1276 C 0.80745 0.73143 0.53201 0.0
C1277 C 0.76425 0.75824 0.51757 0.0
C1278 C 0.83669 0.74953 0.51712 0.0
C1279 C 0.83002 0.77186 0.50264 0.0
H1280 H 0.33226 0.03656 0.47329 0.0
H1281 H 0.23314 0.93081 0.50361 0.0
H1282 H 0.24851 0.9754 0.53199 0.0
H1283 H 0.28896 0.04468 0.5477 0.0
H1284 H 0.38901 0.14961 0.51731 0.0
H1285 H 0.37385 0.10478 0.48915 0.0
C1286 C 0.31383 0.023 0.48608 0.0
C1287 C 0.28122 0.98026 0.48623 0.0
C1288 C 0.3228 0.04878 0.5022 0.0
C1289 C 0.25836 0.96341 0.50307 0.0
C1290 C 0.26703 0.98901 0.51925 0.0
C1291 C 0.30737 0.05799 0.53489 0.0
C1292 C 0.33988 0.10082 0.53457 0.0
C1293 C 0.2989 0.03183 0.51889 0.0
C1294 C 0.36375 0.11703 0.51793 0.0
C1295 C 0.35512 0.09134 0.50186 0.0
H1296 H 0.47418 0.25701 0.09621 0.0
H1297 H 0.60899 0.32134 0.10642 0.0
H1298 H 0.60899 0.25527 0.10258 0.0
H1299 H 0.57065 0.17896 0.09869 0.0
H1300 H 0.43602 0.11257 0.08846 0.0
H1301 H 0.43617 0.17977 0.08942 0.0
C1302 C 0.50362 0.25663 0.09731 0.0
C1303 C 0.54145 0.29414 0.10196 0.0
C1304 C 0.50345 0.21816 0.09509 0.0
C1305 C 0.57928 0.29294 0.10333 0.0
C1306 C 0.57938 0.25516 0.10103 0.0
C1307 C 0.54126 0.17907 0.09652 0.0
C1308 C 0.50327 0.14068 0.09374 0.0
C1309 C 0.54159 0.21752 0.09733 0.0
C1310 C 0.46571 0.14163 0.09061 0.0
C1311 C 0.46578 0.18005 0.0913 0.0
H1312 H 0.7872 0.27449 0.08998 0.0
H1313 H 0.83234 0.21452 0.12875 0.0
H1314 H 0.90497 0.27198 0.12439 0.0
H1315 H 0.95576 0.3418 0.11092 0.0
H1316 H 0.90965 0.40212 0.0729 0.0
H1317 H 0.83805 0.34188 0.07523 0.0
C1318 C 0.81293 0.27362 0.09728 0.0
C1319 C 0.80397 0.2402 0.10981 0.0
C1320 C 0.8548 0.30696 0.09477 0.0
C1321 C 0.83797 0.2401 0.11929 0.0
C1322 C 0.87969 0.27289 0.11671 0.0
C1323 C 0.93016 0.34129 0.10285 0.0
C1324 C 0.93818 0.37642 0.0917 0.0
C1325 C 0.88853 0.30682 0.10466 0.0
C1326 C 0.90444 0.37555 0.0816 0.0
C1327 C 0.86335 0.34113 0.08298 0.0
H1328 H 0.68319 0.51833 0.08696 0.0
H1329 H 0.74485 0.65135 0.10006 0.0
H1330 H 0.81216 0.65284 0.10446 0.0
H1331 H 0.85286 0.61537 0.1061 0.0
H1332 H 0.78965 0.48199 0.09354 0.0
H1333 H 0.72394 0.4819 0.08728 0.0
C1334 C 0.71134 0.54785 0.09063 0.0
C1335 C 0.70868 0.58468 0.09323 0.0
C1336 C 0.74982 0.54839 0.09331 0.0
C1337 C 0.74577 0.62252 0.09791 0.0
C1338 C 0.78432 0.62334 0.10053 0.0
C1339 C 0.8247 0.58627 0.10201 0.0
C1340 C 0.82648 0.54872 0.10032 0.0
C1341 C 0.7866 0.58631 0.09854 0.0
C1342 C 0.78965 0.51149 0.09473 0.0
C1343 C 0.75184 0.51132 0.09126 0.0
H1344 H 0.26562 0.46178 0.92885 0.0
H1345 H 0.29803 0.53929 0.87856 0.0
H1346 H 0.22944 0.53495 0.87912 0.0
H1347 H 0.16034 0.50871 0.89303 0.0
H1348 H 0.1252 0.43276 0.9438 0.0
H1349 H 0.19471 0.43695 0.94392 0.0
C1350 C 0.25768 0.47793 0.91813 0.0
C1351 C 0.28692 0.50029 0.90347 0.0
C1352 C 0.21764 0.47539 0.91853 0.0
C1353 C 0.27603 0.52109 0.88973 0.0
C1354 C 0.23678 0.51879 0.89007 0.0
C1355 C 0.16745 0.49275 0.90417 0.0
C1356 C 0.13713 0.47 0.91829 0.0
C1357 C 0.20725 0.49571 0.90423 0.0
C1358 C 0.14769 0.45026 0.93268 0.0
C1359 C 0.18752 0.45275 0.93275 0.0
H1360 H 0.53358 0.78867 0.92812 0.0
H1361 H 0.63461 0.84919 0.88733 0.0
H1362 H 0.64928 0.79119 0.88986 0.0
H1363 H 0.63041 0.72033 0.90218 0.0
H1364 H 0.5277 0.6595 0.9421 0.0
H1365 H 0.51758 0.7205 0.94175 0.0
C1366 C 0.55925 0.78958 0.91999 0.0
C1367 C 0.58261 0.82334 0.90743 0.0
C1368 C 0.5674 0.75582 0.9214 0.0
C1369 C 0.61548 0.82341 0.89688 0.0
C1370 C 0.62412 0.79026 0.89839 0.0
C1371 C 0.60647 0.72092 0.91108 0.0
C1372 C 0.57996 0.68539 0.9222 0.0
C1373 C 0.5999 0.75589 0.9104 0.0
C1374 C 0.54852 0.68636 0.93339 0.0
C1375 C 0.54257 0.72123 0.93316 0.0
H1376 H 0.40173 0.88394 0.93129 0.0
H1377 H 0.34371 0.95315 0.90957 0.0
H1378 H 0.27727 0.88697 0.90448 0.0
H1379 H 0.23648 0.80878 0.90474 0.0
H1380 H 0.2952 0.74054 0.92682 0.0
H1381 H 0.36015 0.80681 0.9333 0.0
C1382 C 0.37451 0.88469 0.92556 0.0
C1383 C 0.37796 0.92363 0.92074 0.0
C1384 C 0.33639 0.84651 0.92267 0.0
C1385 C 0.34209 0.92377 0.91348 0.0
C1386 C 0.30407 0.88585 0.91046 0.0
C1387 C 0.26348 0.80847 0.91101 0.0
C1388 C 0.26082 0.76957 0.91527 0.0
C1389 C 0.30099 0.84694 0.91475 0.0
C1390 C 0.29604 0.76986 0.92359 0.0
C1391 C 0.33338 0.80781 0.9272 0.0
H1392 H 0.13627 0.59405 0.44506 0.0
H1393 H 0.26649 0.66126 0.42669 0.0
H1394 H 0.26433 0.5946 0.42065 0.0
H1395 H 0.2268 0.51733 0.42185 0.0
H1396 H 0.09647 0.44923 0.44006 0.0
H1397 H 0.09738 0.51589 0.44481 0.0
C1398 C 0.16414 0.59408 0.43972 0.0
C1399 C 0.20149 0.63281 0.43634 0.0
C1400 C 0.16273 0.55539 0.43626 0.0
C1401 C 0.23715 0.63212 0.42921 0.0
C1402 C 0.23605 0.59393 0.42585 0.0
C1403 C 0.19842 0.51691 0.42674 0.0
C1404 C 0.16166 0.4781 0.43066 0.0
C1405 C 0.19916 0.55539 0.42947 0.0
C1406 C 0.12522 0.47847 0.43689 0.0
C1407 C 0.12576 0.51667 0.43969 0.0
H1408 H 0.56408 0.73772 0.43228 0.0
H1409 H 0.63586 0.67492 0.44178 0.0
H1410 H 0.56998 0.60718 0.44441 0.0
H1411 H 0.49164 0.56583 0.44463 0.0
H1412 H 0.4209 0.62995 0.43567 0.0
H1413 H 0.48667 0.69676 0.43198 0.0
C1414 C 0.56554 0.70929 0.43486 0.0
C1415 C 0.60519 0.71171 0.43686 0.0
C1416 C 0.52754 0.67046 0.43642 0.0
C1417 C 0.60601 0.67424 0.44016 0.0
C1418 C 0.56825 0.63541 0.4417 0.0
C1419 C 0.49055 0.59442 0.44195 0.0
C1420 C 0.451 0.59249 0.4404 0.0
C1421 C 0.52877 0.63315 0.43999 0.0
C1422 C 0.45055 0.63002 0.43665 0.0
C1423 C 0.48827 0.66845 0.43467 0.0
H1424 H 0.50791 0.93181 0.41765 0.0
H1425 H 0.47302 0.8712 0.47249 0.0
H1426 H 0.41098 0.87946 0.47319 0.0
H1427 H 0.36623 0.90244 0.45853 0.0
H1428 H 0.39669 0.96118 0.40327 0.0
H1429 H 0.46118 0.9556 0.40254 0.0
C1430 C 0.48669 0.92054 0.42973 0.0
C1431 C 0.49495 0.90041 0.44492 0.0
C1432 C 0.45046 0.9252 0.43002 0.0
C1433 C 0.4671 0.88598 0.46046 0.0
C1434 C 0.43171 0.89096 0.46095 0.0
C1435 C 0.38685 0.91435 0.44625 0.0
C1436 C 0.37646 0.93238 0.43097 0.0
C1437 C 0.42302 0.91029 0.44581 0.0
C1438 C 0.40387 0.94733 0.41527 0.0
C1439 C 0.44068 0.94398 0.41484 0.0
H1440 H 0.80754 0.76099 0.23163 0.0
H1441 H 0.84643 0.85412 0.27627 0.0
H1442 H 0.9179 0.86488 0.27542 0.0
H1443 H 0.97117 0.85204 0.26053 0.0
H1444 H 0.9339 0.7605 0.21526 0.0
H1445 H 0.86083 0.74541 0.2177 0.0
C1446 C 0.83151 0.78302 0.24138 0.0
C1447 C 0.82149 0.80665 0.254 0.0
C1448 C 0.87329 0.78995 0.24051 0.0
C1449 C 0.8532 0.83559 0.26635 0.0
C1450 C 0.89423 0.84189 0.26586 0.0
C1451 C 0.94702 0.82831 0.25137 0.0
C1452 C 0.95843 0.80774 0.23765 0.0
C1453 C 0.90493 0.81989 0.25276 0.0
C1454 C 0.92645 0.77746 0.22576 0.0
C1455 C 0.88445 0.76857 0.22721 0.0
H1456 H 0.1941 0.98561 0.25948 0.0
H1457 H 0.32843 0.0502 0.2484 0.0
H1458 H 0.32828 0.11635 0.24376 0.0
H1459 H 0.28919 0.15501 0.24114 0.0
H1460 H 0.15498 0.08984 0.25268 0.0
H1461 H 0.15596 0.02473 0.25849 0.0
C1462 C 0.22352 1.01415 0.25619 0.0
C1463 C 0.26124 1.01268 0.25425 0.0
C1464 C 0.22314 0.05198 0.25337 0.0
C1465 C 0.29894 0.05022 0.25004 0.0
C1466 C 0.29883 0.0881 0.24729 0.0
C1467 C 0.26021 0.12676 0.24518 0.0
C1468 C 0.22196 0.12755 0.24628 0.0
C1469 C 0.26101 0.08925 0.24868 0.0
C1470 C 0.18473 0.09024 0.25131 0.0
C1471 C 0.1853 0.05295 0.2548 0.0
H1472 H 0.90685 0.13386 0.26408 0.0
H1473 H 0.97098 0.06726 0.24654 0.0
H1474 H 0.03867 0.13265 0.24765 0.0
H1475 H 0.07931 0.20903 0.25133 0.0
H1476 H 1.01729 0.27769 0.26852 0.0
H1477 H 0.94926 0.21127 0.26994 0.0
C1478 C 0.93567 0.13367 0.26056 0.0
C1479 C 0.93357 0.09542 0.25521 0.0
C1480 C 0.97488 0.17178 0.26109 0.0
C1481 C 0.97143 0.09584 0.25095 0.0
C1482 C 1.01026 0.13338 0.25143 0.0
C1483 C 0.05099 0.2096 0.2555 0.0
C1484 C 0.05334 0.24841 0.25959 0.0
C1485 C 1.01226 0.17154 0.25617 0.0
C1486 C 1.01641 0.24832 0.2653 0.0
C1487 C 0.97747 0.21033 0.26599 0.0
H1488 H 0.88714 0.84253 0.75753 0.0
H1489 H 0.75281 0.77149 0.76846 0.0
H1490 H 0.75158 0.83729 0.77244 0.0
H1491 H 0.7894 0.91513 0.77441 0.0
H1492 H 0.92355 0.98547 0.76282 0.0
H1493 H 0.924 0.91982 0.75785 0.0
C1494 C 0.85742 0.84125 0.76064 0.0
C1495 C 0.8201 0.80182 0.76272 0.0
C1496 C 0.85698 0.87922 0.76304 0.0
C1497 C 0.78202 0.80118 0.76672 0.0
C1498 C 0.78133 0.83889 0.76909 0.0
C1499 C 0.81868 0.91625 0.77055 0.0
C1500 C 0.85649 0.95561 0.76921 0.0
C1501 C 0.81872 0.87814 0.7675 0.0
C1502 C 0.89411 0.95595 0.76439 0.0
C1503 C 0.89437 0.9183 0.76138 0.0
H1504 H 0.27483 0.999 0.76689 0.0
H1505 H 0.2239 0.07943 0.75299 0.0
H1506 H 0.15211 1.01902 0.75355 0.0
H1507 H 0.10322 0.94489 0.76138 0.0
H1508 H 0.15306 0.86394 0.77635 0.0
H1509 H 0.22522 0.92256 0.77217 0.0
C1510 C 0.24802 1.00293 0.76349 0.0
C1511 C 0.25468 0.04358 0.75978 0.0
C1512 C 0.20638 0.96801 0.76444 0.0
C1513 C 0.21957 0.04842 0.75582 0.0
C1514 C 0.17845 1.0139 0.75625 0.0
C1515 C 0.12975 0.93973 0.76337 0.0
C1516 C 0.12239 0.89993 0.76937 0.0
C1517 C 0.17134 0.97374 0.76106 0.0
C1518 C 0.15754 0.89432 0.77209 0.0
C1519 C 0.19896 0.92785 0.7696 0.0
H1520 H 0.17512 0.27889 0.76223 0.0
H1521 H 0.10742 0.14567 0.77494 0.0
H1522 H 0.04024 0.14324 0.76982 0.0
H1523 H 1.00054 0.17936 0.76408 0.0
H1524 H 0.06631 0.31259 0.75173 0.0
H1525 H 0.13443 0.31454 0.75414 0.0
C1526 C 0.14563 0.24935 0.76383 0.0
C1527 C 0.14643 0.21252 0.76905 0.0
C1528 C 0.10681 0.24817 0.76095 0.0
C1529 C 0.10791 0.17437 0.77077 0.0
C1530 C 0.06939 0.17298 0.76795 0.0
C1531 C 1.02974 0.20888 0.76177 0.0
C1532 C 1.02836 0.24592 0.75795 0.0
C1533 C 0.06847 0.20976 0.76336 0.0
C1534 C 0.06647 0.28364 0.75466 0.0
C1535 C 0.10541 0.28478 0.75619 0.0
H1536 H 0.48391 0.11817 0.60552 0.0
H1537 H 0.49232 0.19825 0.55893 0.0
H1538 H 0.56127 0.20799 0.55007 0.0
H1539 H 0.6209 0.19697 0.55637 0.0
H1540 H 0.61502 0.11879 0.60337 0.0
H1541 H 0.5442 0.1057 0.61142 0.0
C1542 C 0.50071 0.13714 0.59329 0.0
C1543 C 0.48302 0.1572 0.58277 0.0
C1544 C 0.54118 0.14353 0.58851 0.0
C1545 C 0.50534 0.18239 0.56716 0.0
C1546 C 0.54483 0.18811 0.56213 0.0
C1547 C 0.60401 0.17665 0.56825 0.0
C1548 C 0.62349 0.15897 0.57921 0.0
C1549 C 0.56334 0.16932 0.57282 0.0
C1550 C 0.60118 0.13332 0.59479 0.0
C1551 C 0.56046 0.12556 0.59934 0.0
H1552 H 0.85648 0.32906 0.57744 0.0
H1553 H 0.98171 0.38891 0.60203 0.0
H1554 H 0.98343 0.45681 0.60234 0.0
H1555 H 0.95046 0.49976 0.59388 0.0
H1556 H 0.82547 0.43819 0.56887 0.0
H1557 H 0.82255 0.37039 0.57064 0.0
C1558 C 0.88423 0.35686 0.58296 0.0
C1559 C 0.91915 0.35388 0.58952 0.0
C1560 C 0.88503 0.39559 0.58298 0.0
C1561 C 0.95441 0.39022 0.59688 0.0
C1562 C 0.95546 0.4291 0.59697 0.0
C1563 C 0.92258 0.47149 0.58883 0.0
C1564 C 0.88822 0.47429 0.58123 0.0
C1565 C 0.92118 0.4323 0.58976 0.0
C1566 C 0.85214 0.43712 0.57501 0.0
C1567 C 0.85055 0.39827 0.57589 0.0
H1568 H 0.57697 0.48068 0.59093 0.0
H1569 H 0.64525 0.41452 0.58061 0.0
H1570 H 0.71223 0.47965 0.58528 0.0
H1571 H 0.7517 0.55583 0.58988 0.0
H1572 H 0.68547 0.62393 0.59999 0.0
H1573 H 0.61752 0.5575 0.59842 0.0
C1574 C 0.60649 0.48042 0.58999 0.0
C1575 C 0.60591 0.44268 0.58507 0.0
C1576 C 0.6453 0.51833 0.59269 0.0
C1577 C 0.64461 0.44311 0.5839 0.0
C1578 C 0.68301 0.48035 0.58669 0.0
C1579 C 0.72246 0.55625 0.59194 0.0
C1580 C 0.72375 0.59497 0.59486 0.0
C1581 C 0.68376 0.51824 0.59068 0.0
C1582 C 0.68549 0.59466 0.59778 0.0
C1583 C 0.6466 0.55666 0.59671 0.0
loop_
_geom_bond_atom_site_label_1
_geom_bond_atom_site_label_2
_geom_bond_distance
_geom_bond_site_symmetry_2
_ccdc_geom_bond_type
Eu0 C9 2.828 . S
Eu0 O11 2.392 1_545 S
Eu0 O13 2.418 . S
Eu0 O18 2.373 . S
Eu0 O21 2.488 . S
Eu0 O22 2.471 . S
Eu0 O23 2.349 . S
Eu1 O10 2.373 . S
Eu1 O14 2.488 . S
Eu1 O15 2.471 . S
Eu1 O16 2.349 . S
Eu1 O19 2.392 1_565 S
Eu1 O20 2.418 . S
Eu1 C30 2.828 . S
C2 O20 1.244 1_545 S
C2 O23 1.265 . S
C3 C4 1.379 . S
C3 C7 1.373 . S
C3 C9 1.505 . S
C4 C3 1.379 . S
C4 C6 1.369 . S
C4 H32 0.930 . S
C5 C7 1.383 . S
C5 C8 1.382 . S
C5 H33 0.930 . S
C6 C4 1.369 . S
C6 C8 1.392 . S
C6 H34 0.930 . S
C7 C3 1.373 . S
C7 C5 1.383 . S
C7 H35 0.931 . S
C8 C5 1.382 . S
C8 C6 1.392 . S
C9 Eu0 2.828 . S
C9 C3 1.505 . S
C9 O21 1.249 . S
C9 O22 1.244 . S
O10 Eu1 2.373 . S
O10 C12 1.258 . S
O11 Eu0 2.392 1_565 S
O11 C12 1.242 . S
C12 O10 1.258 . S
C12 O11 1.242 . S
O13 Eu0 2.418 . S
O13 C17 1.244 1_545 S
O14 Eu1 2.488 . S
O14 C30 1.249 . S
O15 Eu1 2.471 . S
O15 C30 1.244 . S
O16 Eu1 2.349 . S
O16 C17 1.265 . S
C17 O13 1.244 1_565 S
C17 O16 1.265 . S
O18 Eu0 2.373 . S
O18 C31 1.258 . S
O19 Eu1 2.392 1_545 S
O19 C31 1.242 . S
O20 Eu1 2.418 . S
O20 C2 1.244 1_565 S
O21 Eu0 2.488 . S
O21 C9 1.249 . S
O22 Eu0 2.471 . S
O22 C9 1.244 . S
O23 Eu0 2.349 . S
O23 C2 1.265 . S
C24 C25 1.379 . S
C24 C28 1.373 . S
C24 C30 1.505 . S
C25 C24 1.379 . S
C25 C27 1.369 . S
C25 H36 0.930 . S
C26 C28 1.383 . S
C26 C29 1.382 . S
C26 H37 0.930 . S
C27 C25 1.369 . S
C27 C29 1.392 . S
C27 H38 0.930 . S
C28 C24 1.373 . S
C28 C26 1.383 . S
C28 H39 0.931 . S
C29 C26 1.382 . S
C29 C27 1.392 . S
C30 Eu1 2.828 . S
C30 O14 1.249 . S
C30 O15 1.244 . S
C30 C24 1.505 . S
C31 O18 1.258 . S
C31 O19 1.242 . S
H32 C4 0.930 . S
H33 C5 0.930 . S
H34 C6 0.930 . S
H35 C7 0.931 . S
H36 C25 0.930 . S
H37 C26 0.930 . S
H38 C27 0.930 . S
H39 C28 0.931 . S
Eu40 C49 2.828 . S
Eu40 O51 2.392 1_655 S
Eu40 O53 2.418 . S
Eu40 O58 2.373 . S
Eu40 O61 2.488 . S
Eu40 O62 2.471 . S
Eu40 O63 2.349 1_655 S
Eu41 O50 2.373 . S
Eu41 O54 2.488 . S
Eu41 O55 2.471 . S
Eu41 O56 2.349 . S
Eu41 O59 2.392 1_455 S
Eu41 O60 2.418 . S
Eu41 C70 2.828 . S
C42 O60 1.244 . S
C42 O63 1.265 . S
C43 C44 1.379 . S
C43 C47 1.373 . S
C43 C49 1.505 . S
C44 C43 1.379 . S
C44 C46 1.369 . S
C44 H72 0.930 . S
C45 C47 1.383 . S
C45 C48 1.382 . S
C45 H73 0.930 . S
C46 C44 1.369 . S
C46 C48 1.392 . S
C46 H74 0.930 . S
C47 C43 1.373 . S
C47 C45 1.383 . S
C47 H75 0.931 . S
C48 C45 1.382 . S
C48 C46 1.392 . S
C49 Eu40 2.828 . S
C49 C43 1.505 . S
C49 O61 1.249 . S
C49 O62 1.244 . S
O50 Eu41 2.373 . S
O50 C52 1.258 . S
O51 Eu40 2.392 1_455 S
O51 C52 1.242 . S
C52 O50 1.258 . S
C52 O51 1.242 . S
O53 Eu40 2.418 . S
O53 C57 1.244 1_655 S
O54 Eu41 2.488 . S
O54 C70 1.249 . S
O55 Eu41 2.471 . S
O55 C70 1.244 . S
O56 Eu41 2.349 . S
O56 C57 1.265 . S
C57 O53 1.244 1_455 S
C57 O56 1.265 . S
O58 Eu40 2.373 . S
O58 C71 1.258 . S
O59 Eu41 2.392 1_655 S
O59 C71 1.242 . S
O60 Eu41 2.418 . S
O60 C42 1.244 . S
O61 Eu40 2.488 . S
O61 C49 1.249 . S
O62 Eu40 2.471 . S
O62 C49 1.244 . S
O63 Eu40 2.349 1_455 S
O63 C42 1.265 . S
C64 C65 1.379 . S
C64 C68 1.373 . S
C64 C70 1.505 . S
C65 C64 1.379 . S
C65 C67 1.369 . S
C65 H76 0.930 . S
C66 C68 1.383 . S
C66 C69 1.382 . S
C66 H77 0.930 . S
C67 C65 1.369 . S
C67 C69 1.392 . S
C67 H78 0.930 . S
C68 C64 1.373 . S
C68 C66 1.383 . S
C68 H79 0.931 . S
C69 C66 1.382 . S
C69 C67 1.392 . S
C70 Eu41 2.828 . S
C70 O54 1.249 . S
C70 O55 1.244 . S
C70 C64 1.505 . S
C71 O58 1.258 . S
C71 O59 1.242 . S
H72 C44 0.930 . S
H73 C45 0.930 . S
H74 C46 0.930 . S
H75 C47 0.931 . S
H76 C65 0.930 . S
H77 C66 0.930 . S
H78 C67 0.930 . S
H79 C68 0.931 . S
Eu80 C89 2.828 . S
Eu80 O91 2.392 . S
Eu80 O93 2.418 . S
Eu80 O98 2.373 . S
Eu80 O101 2.488 . S
Eu80 O102 2.471 . S
Eu80 O103 2.349 . S
Eu81 O90 2.373 . S
Eu81 O94 2.488 . S
Eu81 O95 2.471 . S
Eu81 O96 2.349 . S
Eu81 O99 2.392 . S
Eu81 O100 2.418 . S
Eu81 C110 2.828 . S
C82 O100 1.244 . S
C82 O103 1.265 . S
C83 C84 1.379 . S
C83 C87 1.373 . S
C83 C89 1.505 . S
C84 C83 1.379 . S
C84 C86 1.369 . S
C84 H112 0.930 . S
C85 C87 1.383 . S
C85 C88 1.382 . S
C85 H113 0.930 . S
C86 C84 1.369 . S
C86 C88 1.392 . S
C86 H114 0.930 . S
C87 C83 1.373 . S
C87 C85 1.383 . S
C87 H115 0.931 . S
C88 C85 1.382 . S
C88 C86 1.392 . S
C89 Eu80 2.828 . S
C89 C83 1.505 . S
C89 O101 1.249 . S
C89 O102 1.244 . S
O90 Eu81 2.373 . S
O90 C92 1.258 . S
O91 Eu80 2.392 . S
O91 C92 1.242 . S
C92 O90 1.258 . S
C92 O91 1.242 . S
O93 Eu80 2.418 . S
O93 C97 1.244 . S
O94 Eu81 2.488 . S
O94 C110 1.249 . S
O95 Eu81 2.471 . S
O95 C110 1.244 . S
O96 Eu81 2.349 . S
O96 C97 1.265 . S
C97 O93 1.244 . S
C97 O96 1.265 . S
O98 Eu80 2.373 . S
O98 C111 1.258 . S
O99 Eu81 2.392 . S
O99 C111 1.242 . S
O100 Eu81 2.418 . S
O100 C82 1.244 . S
O101 Eu80 2.488 . S
O101 C89 1.249 . S
O102 Eu80 2.471 . S
O102 C89 1.244 . S
O103 Eu80 2.349 . S
O103 C82 1.265 . S
C104 C105 1.379 . S
C104 C108 1.373 . S
C104 C110 1.505 . S
C105 C104 1.379 . S
C105 C107 1.369 . S
C105 H116 0.930 . S
C106 C108 1.383 . S
C106 C109 1.382 . S
C106 H117 0.930 . S
C107 C105 1.369 . S
C107 C109 1.392 . S
C107 H118 0.930 . S
C108 C104 1.373 . S
C108 C106 1.383 . S
C108 H119 0.931 . S
C109 C106 1.382 . S
C109 C107 1.392 . S
C110 Eu81 2.828 . S
C110 O94 1.249 . S
C110 O95 1.244 . S
C110 C104 1.505 . S
C111 O98 1.258 . S
C111 O99 1.242 . S
H112 C84 0.930 . S
H113 C85 0.930 . S
H114 C86 0.930 . S
H115 C87 0.931 . S
H116 C105 0.930 . S
H117 C106 0.930 . S
H118 C107 0.930 . S
H119 C108 0.931 . S
Eu120 C129 2.828 . S
Eu120 O131 2.392 1_455 S
Eu120 O133 2.418 . S
Eu120 O138 2.373 . S
Eu120 O141 2.488 . S
Eu120 O142 2.471 . S
Eu120 O143 2.349 . S
Eu121 O130 2.373 . S
Eu121 O134 2.488 . S
Eu121 O135 2.471 . S
Eu121 O136 2.349 . S
Eu121 O139 2.392 1_655 S
Eu121 O140 2.418 . S
Eu121 C150 2.828 . S
C122 O140 1.244 1_455 S
C122 O143 1.265 . S
C123 C124 1.379 . S
C123 C127 1.373 . S
C123 C129 1.505 . S
C124 C123 1.379 . S
C124 C126 1.369 . S
C124 H152 0.930 . S
C125 C127 1.383 . S
C125 C128 1.382 . S
C125 H153 0.930 . S
C126 C124 1.369 . S
C126 C128 1.392 . S
C126 H154 0.930 . S
C127 C123 1.373 . S
C127 C125 1.383 . S
C127 H155 0.931 . S
C128 C125 1.382 . S
C128 C126 1.392 . S
C129 Eu120 2.828 . S
C129 C123 1.505 . S
C129 O141 1.249 . S
C129 O142 1.244 . S
O130 Eu121 2.373 . S
O130 C132 1.258 . S
O131 Eu120 2.392 1_655 S
O131 C132 1.242 . S
C132 O130 1.258 . S
C132 O131 1.242 . S
O133 Eu120 2.418 . S
O133 C137 1.244 1_455 S
O134 Eu121 2.488 . S
O134 C150 1.249 . S
O135 Eu121 2.471 . S
O135 C150 1.244 . S
O136 Eu121 2.349 . S
O136 C137 1.265 . S
C137 O133 1.244 1_655 S
C137 O136 1.265 . S
O138 Eu120 2.373 . S
O138 C151 1.258 . S
O139 Eu121 2.392 1_455 S
O139 C151 1.242 . S
O140 Eu121 2.418 . S
O140 C122 1.244 1_655 S
O141 Eu120 2.488 . S
O141 C129 1.249 . S
O142 Eu120 2.471 . S
O142 C129 1.244 . S
O143 Eu120 2.349 . S
O143 C122 1.265 . S
C144 C145 1.379 . S
C144 C148 1.373 . S
C144 C150 1.505 . S
C145 C144 1.379 . S
C145 C147 1.369 . S
C145 H156 0.930 . S
C146 C148 1.383 . S
C146 C149 1.382 . S
C146 H157 0.930 . S
C147 C145 1.369 . S
C147 C149 1.392 . S
C147 H158 0.930 . S
C148 C144 1.373 . S
C148 C146 1.383 . S
C148 H159 0.931 . S
C149 C146 1.382 . S
C149 C147 1.392 . S
C150 Eu121 2.828 . S
C150 O134 1.249 . S
C150 O135 1.244 . S
C150 C144 1.505 . S
C151 O138 1.258 . S
C151 O139 1.242 . S
H152 C124 0.930 . S
H153 C125 0.930 . S
H154 C126 0.930 . S
H155 C127 0.931 . S
H156 C145 0.930 . S
H157 C146 0.930 . S
H158 C147 0.930 . S
H159 C148 0.931 . S
Eu160 C169 2.828 . S
Eu160 O171 2.392 . S
Eu160 O173 2.418 . S
Eu160 O178 2.373 . S
Eu160 O181 2.488 . S
Eu160 O182 2.471 . S
Eu160 O183 2.349 . S
Eu161 O170 2.373 . S
Eu161 O174 2.488 . S
Eu161 O175 2.471 . S
Eu161 O176 2.349 . S
Eu161 O179 2.392 . S
Eu161 O180 2.418 . S
Eu161 C190 2.828 . S
C162 O180 1.244 . S
C162 O183 1.265 . S
C163 C164 1.379 . S
C163 C167 1.373 . S
C163 C169 1.505 . S
C164 C163 1.379 . S
C164 C166 1.369 . S
C164 H192 0.930 . S
C165 C167 1.383 . S
C165 C168 1.382 . S
C165 H193 0.930 . S
C166 C164 1.369 . S
C166 C168 1.392 . S
C166 H194 0.930 . S
C167 C163 1.373 . S
C167 C165 1.383 . S
C167 H195 0.931 . S
C168 C165 1.382 . S
C168 C166 1.392 . S
C169 Eu160 2.828 . S
C169 C163 1.505 . S
C169 O181 1.249 . S
C169 O182 1.244 . S
O170 Eu161 2.373 . S
O170 C172 1.258 . S
O171 Eu160 2.392 . S
O171 C172 1.242 . S
C172 O170 1.258 . S
C172 O171 1.242 . S
O173 Eu160 2.418 . S
O173 C177 1.244 . S
O174 Eu161 2.488 . S
O174 C190 1.249 . S
O175 Eu161 2.471 . S
O175 C190 1.244 . S
O176 Eu161 2.349 . S
O176 C177 1.265 . S
C177 O173 1.244 . S
C177 O176 1.265 . S
O178 Eu160 2.373 . S
O178 C191 1.258 . S
O179 Eu161 2.392 . S
O179 C191 1.242 . S
O180 Eu161 2.418 . S
O180 C162 1.244 . S
O181 Eu160 2.488 . S
O181 C169 1.249 . S
O182 Eu160 2.471 . S
O182 C169 1.244 . S
O183 Eu160 2.349 . S
O183 C162 1.265 . S
C184 C185 1.379 . S
C184 C188 1.373 . S
C184 C190 1.505 . S
C185 C184 1.379 . S
C185 C187 1.369 . S
C185 H196 0.930 . S
C186 C188 1.383 . S
C186 C189 1.382 . S
C186 H197 0.930 . S
C187 C185 1.369 . S
C187 C189 1.392 . S
C187 H198 0.930 . S
C188 C184 1.373 . S
C188 C186 1.383 . S
C188 H199 0.931 . S
C189 C186 1.382 . S
C189 C187 1.392 . S
C190 Eu161 2.828 . S
C190 O174 1.249 . S
C190 O175 1.244 . S
C190 C184 1.505 . S
C191 O178 1.258 . S
C191 O179 1.242 . S
H192 C164 0.930 . S
H193 C165 0.930 . S
H194 C166 0.930 . S
H195 C167 0.931 . S
H196 C185 0.930 . S
H197 C186 0.930 . S
H198 C187 0.930 . S
H199 C188 0.931 . S
Eu200 C209 2.828 . S
Eu200 O211 2.392 1_565 S
Eu200 O213 2.418 . S
Eu200 O218 2.373 . S
Eu200 O221 2.488 . S
Eu200 O222 2.471 . S
Eu200 O223 2.349 1_565 S
Eu201 O210 2.373 . S
Eu201 O214 2.488 . S
Eu201 O215 2.471 . S
Eu201 O216 2.349 . S
Eu201 O219 2.392 1_545 S
Eu201 O220 2.418 . S
Eu201 C230 2.828 . S
C202 O220 1.244 . S
C202 O223 1.265 . S
C203 C204 1.379 . S
C203 C207 1.373 . S
C203 C209 1.505 . S
C204 C203 1.379 . S
C204 C206 1.369 . S
C204 H232 0.930 . S
C205 C207 1.383 . S
C205 C208 1.382 . S
C205 H233 0.930 . S
C206 C204 1.369 . S
C206 C208 1.392 . S
C206 H234 0.930 . S
C207 C203 1.373 . S
C207 C205 1.383 . S
C207 H235 0.931 . S
C208 C205 1.382 . S
C208 C206 1.392 . S
C209 Eu200 2.828 . S
C209 C203 1.505 . S
C209 O221 1.249 . S
C209 O222 1.244 . S
O210 Eu201 2.373 . S
O210 C212 1.258 . S
O211 Eu200 2.392 1_545 S
O211 C212 1.242 . S
C212 O210 1.258 . S
C212 O211 1.242 . S
O213 Eu200 2.418 . S
O213 C217 1.244 1_565 S
O214 Eu201 2.488 . S
O214 C230 1.249 . S
O215 Eu201 2.471 . S
O215 C230 1.244 . S
O216 Eu201 2.349 . S
O216 C217 1.265 . S
C217 O213 1.244 1_545 S
C217 O216 1.265 . S
O218 Eu200 2.373 . S
O218 C231 1.258 . S
O219 Eu201 2.392 1_565 S
O219 C231 1.242 . S
O220 Eu201 2.418 . S
O220 C202 1.244 . S
O221 Eu200 2.488 . S
O221 C209 1.249 . S
O222 Eu200 2.471 . S
O222 C209 1.244 . S
O223 Eu200 2.349 1_545 S
O223 C202 1.265 . S
C224 C225 1.379 . S
C224 C228 1.373 . S
C224 C230 1.505 . S
C225 C224 1.379 . S
C225 C227 1.369 . S
C225 H236 0.930 . S
C226 C228 1.383 . S
C226 C229 1.382 . S
C226 H237 0.930 . S
C227 C225 1.369 . S
C227 C229 1.392 . S
C227 H238 0.930 . S
C228 C224 1.373 . S
C228 C226 1.383 . S
C228 H239 0.931 . S
C229 C226 1.382 . S
C229 C227 1.392 . S
C230 Eu201 2.828 . S
C230 O214 1.249 . S
C230 O215 1.244 . S
C230 C224 1.505 . S
C231 O218 1.258 . S
C231 O219 1.242 . S
H232 C204 0.930 . S
H233 C205 0.930 . S
H234 C206 0.930 . S
H235 C207 0.931 . S
H236 C225 0.930 . S
H237 C226 0.930 . S
H238 C227 0.930 . S
H239 C228 0.931 . S
Eu240 C249 2.828 . S
Eu240 O251 2.392 . S
Eu240 O253 2.418 . S
Eu240 O258 2.373 . S
Eu240 O261 2.488 . S
Eu240 O262 2.471 . S
Eu240 O263 2.349 . S
Eu241 O250 2.373 . S
Eu241 O254 2.488 . S
Eu241 O255 2.471 . S
Eu241 O256 2.349 . S
Eu241 O259 2.392 . S
Eu241 O260 2.418 . S
Eu241 C270 2.828 . S
C242 O260 1.244 . S
C242 O263 1.265 . S
C243 C244 1.379 . S
C243 C247 1.373 . S
C243 C249 1.505 . S
C244 C243 1.379 . S
C244 C246 1.369 . S
C244 H272 0.930 . S
C245 C247 1.383 . S
C245 C248 1.382 . S
C245 H273 0.930 . S
C246 C244 1.369 . S
C246 C248 1.392 . S
C246 H274 0.930 . S
C247 C243 1.373 . S
C247 C245 1.383 . S
C247 H275 0.931 . S
C248 C245 1.382 . S
C248 C246 1.392 . S
C249 Eu240 2.828 . S
C249 C243 1.505 . S
C249 O261 1.249 . S
C249 O262 1.244 . S
O250 Eu241 2.373 . S
O250 C252 1.258 . S
O251 Eu240 2.392 . S
O251 C252 1.242 . S
C252 O250 1.258 . S
C252 O251 1.242 . S
O253 Eu240 2.418 . S
O253 C257 1.244 . S
O254 Eu241 2.488 . S
O254 C270 1.249 . S
O255 Eu241 2.471 . S
O255 C270 1.244 . S
O256 Eu241 2.349 . S
O256 C257 1.265 . S
C257 O253 1.244 . S
C257 O256 1.265 . S
O258 Eu240 2.373 . S
O258 C271 1.258 . S
O259 Eu241 2.392 . S
O259 C271 1.242 . S
O260 Eu241 2.418 . S
O260 C242 1.244 . S
O261 Eu240 2.488 . S
O261 C249 1.249 . S
O262 Eu240 2.471 . S
O262 C249 1.244 . S
O263 Eu240 2.349 . S
O263 C242 1.265 . S
C264 C265 1.379 . S
C264 C268 1.373 . S
C264 C270 1.505 1_655 S
C265 C264 1.379 . S
C265 C267 1.369 . S
C265 H276 0.930 . S
C266 C268 1.383 . S
C266 C269 1.382 . S
C266 H277 0.930 . S
C267 C265 1.369 . S
C267 C269 1.392 . S
C267 H278 0.930 . S
C268 C264 1.373 . S
C268 C266 1.383 . S
C268 H279 0.931 . S
C269 C266 1.382 . S
C269 C267 1.392 . S
C270 Eu241 2.828 . S
C270 O254 1.249 . S
C270 O255 1.244 . S
C270 C264 1.505 1_455 S
C271 O258 1.258 . S
C271 O259 1.242 . S
H272 C244 0.930 . S
H273 C245 0.930 . S
H274 C246 0.930 . S
H275 C247 0.931 . S
H276 C265 0.930 . S
H277 C266 0.930 . S
H278 C267 0.930 . S
H279 C268 0.931 . S
Eu280 C289 2.828 . S
Eu280 O291 2.392 . S
Eu280 O293 2.418 . S
Eu280 O298 2.373 . S
Eu280 O301 2.488 . S
Eu280 O302 2.471 . S
Eu280 O303 2.349 . S
Eu281 O290 2.373 . S
Eu281 O294 2.488 . S
Eu281 O295 2.471 . S
Eu281 O296 2.349 . S
Eu281 O299 2.392 . S
Eu281 O300 2.418 . S
Eu281 C310 2.828 . S
C282 O300 1.244 . S
C282 O303 1.265 . S
C283 C284 1.379 . S
C283 C287 1.373 . S
C283 C289 1.505 . S
C284 C283 1.379 . S
C284 C286 1.369 . S
C284 H312 0.930 . S
C285 C287 1.383 . S
C285 C288 1.382 . S
C285 H313 0.930 . S
C286 C284 1.369 . S
C286 C288 1.392 . S
C286 H314 0.930 . S
C287 C283 1.373 . S
C287 C285 1.383 . S
C287 H315 0.931 . S
C288 C285 1.382 . S
C288 C286 1.392 . S
C289 Eu280 2.828 . S
C289 C283 1.505 . S
C289 O301 1.249 . S
C289 O302 1.244 . S
O290 Eu281 2.373 . S
O290 C292 1.258 . S
O291 Eu280 2.392 . S
O291 C292 1.242 . S
C292 O290 1.258 . S
C292 O291 1.242 . S
O293 Eu280 2.418 . S
O293 C297 1.244 . S
O294 Eu281 2.488 . S
O294 C310 1.249 . S
O295 Eu281 2.471 . S
O295 C310 1.244 . S
O296 Eu281 2.349 . S
O296 C297 1.265 . S
C297 O293 1.244 . S
C297 O296 1.265 . S
O298 Eu280 2.373 . S
O298 C311 1.258 . S
O299 Eu281 2.392 . S
O299 C311 1.242 . S
O300 Eu281 2.418 . S
O300 C282 1.244 . S
O301 Eu280 2.488 . S
O301 C289 1.249 . S
O302 Eu280 2.471 . S
O302 C289 1.244 . S
O303 Eu280 2.349 . S
O303 C282 1.265 . S
C304 C305 1.379 . S
C304 C308 1.373 . S
C304 C310 1.505 . S
C305 C304 1.379 . S
C305 C307 1.369 . S
C305 H316 0.930 . S
C306 C308 1.383 . S
C306 C309 1.382 . S
C306 H317 0.930 . S
C307 C305 1.369 . S
C307 C309 1.392 . S
C307 H318 0.930 . S
C308 C304 1.373 . S
C308 C306 1.383 . S
C308 H319 0.931 . S
C309 C306 1.382 . S
C309 C307 1.392 . S
C310 Eu281 2.828 . S
C310 O294 1.249 . S
C310 O295 1.244 . S
C310 C304 1.505 . S
C311 O298 1.258 . S
C311 O299 1.242 . S
H312 C284 0.930 . S
H313 C285 0.930 . S
H314 C286 0.930 . S
H315 C287 0.931 . S
H316 C305 0.930 . S
H317 C306 0.930 . S
H318 C307 0.930 . S
H319 C308 0.931 . S
Eu320 C329 2.828 . S
Eu320 O331 2.392 . S
Eu320 O333 2.418 . S
Eu320 O338 2.373 . S
Eu320 O341 2.488 . S
Eu320 O342 2.471 . S
Eu320 O343 2.349 . S
Eu321 O330 2.373 . S
Eu321 O334 2.488 . S
Eu321 O335 2.471 . S
Eu321 O336 2.349 . S
Eu321 O339 2.392 . S
Eu321 O340 2.418 . S
Eu321 C350 2.828 . S
C322 O340 1.244 . S
C322 O343 1.265 . S
C323 C324 1.379 . S
C323 C327 1.373 . S
C323 C329 1.505 . S
C324 C323 1.379 . S
C324 C326 1.369 . S
C324 H352 0.930 . S
C325 C327 1.383 . S
C325 C328 1.382 . S
C325 H353 0.930 . S
C326 C324 1.369 . S
C326 C328 1.392 . S
C326 H354 0.930 . S
C327 C323 1.373 . S
C327 C325 1.383 . S
C327 H355 0.931 . S
C328 C325 1.382 . S
C328 C326 1.392 . S
C329 Eu320 2.828 . S
C329 C323 1.505 . S
C329 O341 1.249 . S
C329 O342 1.244 . S
O330 Eu321 2.373 . S
O330 C332 1.258 . S
O331 Eu320 2.392 . S
O331 C332 1.242 . S
C332 O330 1.258 . S
C332 O331 1.242 . S
O333 Eu320 2.418 . S
O333 C337 1.244 . S
O334 Eu321 2.488 . S
O334 C350 1.249 . S
O335 Eu321 2.471 . S
O335 C350 1.244 . S
O336 Eu321 2.349 . S
O336 C337 1.265 . S
C337 O333 1.244 . S
C337 O336 1.265 . S
O338 Eu320 2.373 . S
O338 C351 1.258 . S
O339 Eu321 2.392 . S
O339 C351 1.242 . S
O340 Eu321 2.418 . S
O340 C322 1.244 . S
O341 Eu320 2.488 . S
O341 C329 1.249 . S
O342 Eu320 2.471 . S
O342 C329 1.244 . S
O343 Eu320 2.349 . S
O343 C322 1.265 . S
C344 C345 1.379 . S
C344 C348 1.373 . S
C344 C350 1.505 1_545 S
C345 C344 1.379 . S
C345 C347 1.369 . S
C345 H356 0.930 . S
C346 C348 1.383 . S
C346 C349 1.382 . S
C346 H357 0.930 . S
C347 C345 1.369 . S
C347 C349 1.392 . S
C347 H358 0.930 . S
C348 C344 1.373 . S
C348 C346 1.383 . S
C348 H359 0.931 . S
C349 C346 1.382 . S
C349 C347 1.392 . S
C350 Eu321 2.828 . S
C350 O334 1.249 . S
C350 O335 1.244 . S
C350 C344 1.505 1_565 S
C351 O338 1.258 . S
C351 O339 1.242 . S
H352 C324 0.930 . S
H353 C325 0.930 . S
H354 C326 0.930 . S
H355 C327 0.931 . S
H356 C345 0.930 . S
H357 C346 0.930 . S
H358 C347 0.930 . S
H359 C348 0.931 . S
Eu360 C369 2.828 . S
Eu360 O371 2.392 . S
Eu360 O373 2.418 . S
Eu360 O378 2.373 . S
Eu360 O381 2.488 . S
Eu360 O382 2.471 . S
Eu360 O383 2.349 . S
Eu361 O370 2.373 . S
Eu361 O374 2.488 . S
Eu361 O375 2.471 . S
Eu361 O376 2.349 . S
Eu361 O379 2.392 . S
Eu361 O380 2.418 . S
Eu361 C390 2.828 . S
C362 O380 1.244 . S
C362 O383 1.265 . S
C363 C364 1.379 . S
C363 C367 1.373 . S
C363 C369 1.505 . S
C364 C363 1.379 . S
C364 C366 1.369 1_565 S
C364 H392 0.930 . S
C365 C367 1.383 1_545 S
C365 C368 1.382 . S
C365 H393 0.930 . S
C366 C364 1.369 1_545 S
C366 C368 1.392 . S
C366 H394 0.930 . S
C367 C363 1.373 . S
C367 C365 1.383 1_565 S
C367 H395 0.931 . S
C368 C365 1.382 . S
C368 C366 1.392 . S
C369 Eu360 2.828 . S
C369 C363 1.505 . S
C369 O381 1.249 . S
C369 O382 1.244 . S
O370 Eu361 2.373 . S
O370 C372 1.258 . S
O371 Eu360 2.392 . S
O371 C372 1.242 . S
C372 O370 1.258 . S
C372 O371 1.242 . S
O373 Eu360 2.418 . S
O373 C377 1.244 . S
O374 Eu361 2.488 . S
O374 C390 1.249 . S
O375 Eu361 2.471 . S
O375 C390 1.244 . S
O376 Eu361 2.349 . S
O376 C377 1.265 . S
C377 O373 1.244 . S
C377 O376 1.265 . S
O378 Eu360 2.373 . S
O378 C391 1.258 . S
O379 Eu361 2.392 . S
O379 C391 1.242 . S
O380 Eu361 2.418 . S
O380 C362 1.244 . S
O381 Eu360 2.488 . S
O381 C369 1.249 . S
O382 Eu360 2.471 . S
O382 C369 1.244 . S
O383 Eu360 2.349 . S
O383 C362 1.265 . S
C384 C385 1.379 . S
C384 C388 1.373 . S
C384 C390 1.505 . S
C385 C384 1.379 . S
C385 C387 1.369 . S
C385 H396 0.930 . S
C386 C388 1.383 . S
C386 C389 1.382 . S
C386 H397 0.930 . S
C387 C385 1.369 . S
C387 C389 1.392 . S
C387 H398 0.930 . S
C388 C384 1.373 . S
C388 C386 1.383 . S
C388 H399 0.931 . S
C389 C386 1.382 . S
C389 C387 1.392 . S
C390 Eu361 2.828 . S
C390 O374 1.249 . S
C390 O375 1.244 . S
C390 C384 1.505 . S
C391 O378 1.258 . S
C391 O379 1.242 . S
H392 C364 0.930 . S
H393 C365 0.930 . S
H394 C366 0.930 . S
H395 C367 0.931 . S
H396 C385 0.930 . S
H397 C386 0.930 . S
H398 C387 0.930 . S
H399 C388 0.931 . S
Eu400 C409 2.828 . S
Eu400 O411 2.392 . S
Eu400 O413 2.418 . S
Eu400 O418 2.373 . S
Eu400 O421 2.488 . S
Eu400 O422 2.471 . S
Eu400 O423 2.349 . S
Eu401 O410 2.373 . S
Eu401 O414 2.488 . S
Eu401 O415 2.471 . S
Eu401 O416 2.349 . S
Eu401 O419 2.392 . S
Eu401 O420 2.418 . S
Eu401 C430 2.828 . S
C402 O420 1.244 . S
C402 O423 1.265 . S
C403 C404 1.379 . S
C403 C407 1.373 . S
C403 C409 1.505 . S
C404 C403 1.379 . S
C404 C406 1.369 . S
C404 H432 0.930 . S
C405 C407 1.383 1_655 S
C405 C408 1.382 . S
C405 H433 0.930 . S
C406 C404 1.369 . S
C406 C408 1.392 1_455 S
C406 H434 0.930 . S
C407 C403 1.373 . S
C407 C405 1.383 1_455 S
C407 H435 0.931 . S
C408 C405 1.382 . S
C408 C406 1.392 1_655 S
C409 Eu400 2.828 . S
C409 C403 1.505 . S
C409 O421 1.249 . S
C409 O422 1.244 . S
O410 Eu401 2.373 . S
O410 C412 1.258 . S
O411 Eu400 2.392 . S
O411 C412 1.242 . S
C412 O410 1.258 . S
C412 O411 1.242 . S
O413 Eu400 2.418 . S
O413 C417 1.244 . S
O414 Eu401 2.488 . S
O414 C430 1.249 . S
O415 Eu401 2.471 . S
O415 C430 1.244 . S
O416 Eu401 2.349 . S
O416 C417 1.265 . S
C417 O413 1.244 . S
C417 O416 1.265 . S
O418 Eu400 2.373 . S
O418 C431 1.258 . S
O419 Eu401 2.392 . S
O419 C431 1.242 . S
O420 Eu401 2.418 . S
O420 C402 1.244 . S
O421 Eu400 2.488 . S
O421 C409 1.249 . S
O422 Eu400 2.471 . S
O422 C409 1.244 . S
O423 Eu400 2.349 . S
O423 C402 1.265 . S
C424 C425 1.379 . S
C424 C428 1.373 . S
C424 C430 1.505 . S
C425 C424 1.379 . S
C425 C427 1.369 . S
C425 H436 0.930 . S
C426 C428 1.383 . S
C426 C429 1.382 . S
C426 H437 0.930 . S
C427 C425 1.369 . S
C427 C429 1.392 . S
C427 H438 0.930 . S
C428 C424 1.373 . S
C428 C426 1.383 . S
C428 H439 0.931 . S
C429 C426 1.382 . S
C429 C427 1.392 . S
C430 Eu401 2.828 . S
C430 O414 1.249 . S
C430 O415 1.244 . S
C430 C424 1.505 . S
C431 O418 1.258 . S
C431 O419 1.242 . S
H432 C404 0.930 . S
H433 C405 0.930 . S
H434 C406 0.930 . S
H435 C407 0.931 . S
H436 C425 0.930 . S
H437 C426 0.930 . S
H438 C427 0.930 . S
H439 C428 0.931 . S
Eu440 C449 2.828 . S
Eu440 O451 2.392 . S
Eu440 O453 2.418 . S
Eu440 O458 2.373 . S
Eu440 O461 2.488 . S
Eu440 O462 2.471 . S
Eu440 O463 2.349 . S
Eu441 O450 2.373 . S
Eu441 O454 2.488 . S
Eu441 O455 2.471 . S
Eu441 O456 2.349 . S
Eu441 O459 2.392 . S
Eu441 O460 2.418 . S
Eu441 C470 2.828 . S
C442 O460 1.244 . S
C442 O463 1.265 . S
C443 C444 1.379 . S
C443 C447 1.373 . S
C443 C449 1.505 . S
C444 C443 1.379 . S
C444 C446 1.369 . S
C444 H472 0.930 . S
C445 C447 1.383 . S
C445 C448 1.382 . S
C445 H473 0.930 . S
C446 C444 1.369 . S
C446 C448 1.392 . S
C446 H474 0.930 . S
C447 C443 1.373 . S
C447 C445 1.383 . S
C447 H475 0.931 . S
C448 C445 1.382 . S
C448 C446 1.392 . S
C449 Eu440 2.828 . S
C449 C443 1.505 . S
C449 O461 1.249 . S
C449 O462 1.244 . S
O450 Eu441 2.373 . S
O450 C452 1.258 . S
O451 Eu440 2.392 . S
O451 C452 1.242 . S
C452 O450 1.258 . S
C452 O451 1.242 . S
O453 Eu440 2.418 . S
O453 C457 1.244 . S
O454 Eu441 2.488 . S
O454 C470 1.249 . S
O455 Eu441 2.471 . S
O455 C470 1.244 . S
O456 Eu441 2.349 . S
O456 C457 1.265 . S
C457 O453 1.244 . S
C457 O456 1.265 . S
O458 Eu440 2.373 . S
O458 C471 1.258 . S
O459 Eu441 2.392 . S
O459 C471 1.242 . S
O460 Eu441 2.418 . S
O460 C442 1.244 . S
O461 Eu440 2.488 . S
O461 C449 1.249 . S
O462 Eu440 2.471 . S
O462 C449 1.244 . S
O463 Eu440 2.349 . S
O463 C442 1.265 . S
C464 C465 1.379 . S
C464 C468 1.373 . S
C464 C470 1.505 . S
C465 C464 1.379 . S
C465 C467 1.369 . S
C465 H476 0.930 . S
C466 C468 1.383 . S
C466 C469 1.382 . S
C466 H477 0.930 . S
C467 C465 1.369 . S
C467 C469 1.392 . S
C467 H478 0.930 . S
C468 C464 1.373 . S
C468 C466 1.383 . S
C468 H479 0.931 . S
C469 C466 1.382 . S
C469 C467 1.392 . S
C470 Eu441 2.828 . S
C470 O454 1.249 . S
C470 O455 1.244 . S
C470 C464 1.505 . S
C471 O458 1.258 . S
C471 O459 1.242 . S
H472 C444 0.930 . S
H473 C445 0.930 . S
H474 C446 0.930 . S
H475 C447 0.931 . S
H476 C465 0.930 . S
H477 C466 0.930 . S
H478 C467 0.930 . S
H479 C468 0.931 . S
Eu480 C489 2.828 . S
Eu480 O491 2.392 . S
Eu480 O493 2.418 . S
Eu480 O498 2.373 . S
Eu480 O501 2.488 . S
Eu480 O502 2.471 . S
Eu480 O503 2.349 . S
Eu481 O490 2.373 . S
Eu481 O494 2.488 . S
Eu481 O495 2.471 . S
Eu481 O496 2.349 . S
Eu481 O499 2.392 . S
Eu481 O500 2.418 . S
Eu481 C510 2.828 . S
C482 O500 1.244 . S
C482 O503 1.265 . S
C483 C484 1.379 . S
C483 C487 1.373 . S
C483 C489 1.505 . S
C484 C483 1.379 . S
C484 C486 1.369 1_655 S
C484 H512 0.930 . S
C485 C487 1.383 1_455 S
C485 C488 1.382 . S
C485 H513 0.930 . S
C486 C484 1.369 1_455 S
C486 C488 1.392 . S
C486 H514 0.930 . S
C487 C483 1.373 . S
C487 C485 1.383 1_655 S
C487 H515 0.931 . S
C488 C485 1.382 . S
C488 C486 1.392 . S
C489 Eu480 2.828 . S
C489 C483 1.505 . S
C489 O501 1.249 . S
C489 O502 1.244 . S
O490 Eu481 2.373 . S
O490 C492 1.258 . S
O491 Eu480 2.392 . S
O491 C492 1.242 . S
C492 O490 1.258 . S
C492 O491 1.242 . S
O493 Eu480 2.418 . S
O493 C497 1.244 . S
O494 Eu481 2.488 . S
O494 C510 1.249 . S
O495 Eu481 2.471 . S
O495 C510 1.244 . S
O496 Eu481 2.349 . S
O496 C497 1.265 . S
C497 O493 1.244 . S
C497 O496 1.265 . S
O498 Eu480 2.373 . S
O498 C511 1.258 . S
O499 Eu481 2.392 . S
O499 C511 1.242 . S
O500 Eu481 2.418 . S
O500 C482 1.244 . S
O501 Eu480 2.488 . S
O501 C489 1.249 . S
O502 Eu480 2.471 . S
O502 C489 1.244 . S
O503 Eu480 2.349 . S
O503 C482 1.265 . S
C504 C505 1.379 . S
C504 C508 1.373 . S
C504 C510 1.505 . S
C505 C504 1.379 . S
C505 C507 1.369 . S
C505 H516 0.930 . S
C506 C508 1.383 . S
C506 C509 1.382 . S
C506 H517 0.930 . S
C507 C505 1.369 . S
C507 C509 1.392 . S
C507 H518 0.930 . S
C508 C504 1.373 . S
C508 C506 1.383 . S
C508 H519 0.931 . S
C509 C506 1.382 . S
C509 C507 1.392 . S
C510 Eu481 2.828 . S
C510 O494 1.249 . S
C510 O495 1.244 . S
C510 C504 1.505 . S
C511 O498 1.258 . S
C511 O499 1.242 . S
H512 C484 0.930 . S
H513 C485 0.930 . S
H514 C486 0.930 . S
H515 C487 0.931 . S
H516 C505 0.930 . S
H517 C506 0.930 . S
H518 C507 0.930 . S
H519 C508 0.931 . S
Eu520 C529 2.828 . S
Eu520 O531 2.392 . S
Eu520 O533 2.418 . S
Eu520 O538 2.373 . S
Eu520 O541 2.488 . S
Eu520 O542 2.471 . S
Eu520 O543 2.349 . S
Eu521 O530 2.373 . S
Eu521 O534 2.488 . S
Eu521 O535 2.471 . S
Eu521 O536 2.349 . S
Eu521 O539 2.392 . S
Eu521 O540 2.418 . S
Eu521 C550 2.828 . S
C522 O540 1.244 . S
C522 O543 1.265 . S
C523 C524 1.379 . S
C523 C527 1.373 . S
C523 C529 1.505 . S
C524 C523 1.379 . S
C524 C526 1.369 . S
C524 H552 0.930 . S
C525 C527 1.383 . S
C525 C528 1.382 . S
C525 H553 0.930 . S
C526 C524 1.369 . S
C526 C528 1.392 . S
C526 H554 0.930 . S
C527 C523 1.373 . S
C527 C525 1.383 . S
C527 H555 0.931 . S
C528 C525 1.382 . S
C528 C526 1.392 . S
C529 Eu520 2.828 . S
C529 C523 1.505 . S
C529 O541 1.249 . S
C529 O542 1.244 . S
O530 Eu521 2.373 . S
O530 C532 1.258 . S
O531 Eu520 2.392 . S
O531 C532 1.242 . S
C532 O530 1.258 . S
C532 O531 1.242 . S
O533 Eu520 2.418 . S
O533 C537 1.244 . S
O534 Eu521 2.488 . S
O534 C550 1.249 . S
O535 Eu521 2.471 . S
O535 C550 1.244 . S
O536 Eu521 2.349 . S
O536 C537 1.265 . S
C537 O533 1.244 . S
C537 O536 1.265 . S
O538 Eu520 2.373 . S
O538 C551 1.258 . S
O539 Eu521 2.392 . S
O539 C551 1.242 . S
O540 Eu521 2.418 . S
O540 C522 1.244 . S
O541 Eu520 2.488 . S
O541 C529 1.249 . S
O542 Eu520 2.471 . S
O542 C529 1.244 . S
O543 Eu520 2.349 . S
O543 C522 1.265 . S
C544 C545 1.379 . S
C544 C548 1.373 . S
C544 C550 1.505 . S
C545 C544 1.379 . S
C545 C547 1.369 . S
C545 H556 0.930 . S
C546 C548 1.383 . S
C546 C549 1.382 . S
C546 H557 0.930 . S
C547 C545 1.369 . S
C547 C549 1.392 . S
C547 H558 0.930 . S
C548 C544 1.373 . S
C548 C546 1.383 . S
C548 H559 0.931 . S
C549 C546 1.382 . S
C549 C547 1.392 . S
C550 Eu521 2.828 . S
C550 O534 1.249 . S
C550 O535 1.244 . S
C550 C544 1.505 . S
C551 O538 1.258 . S
C551 O539 1.242 . S
H552 C524 0.930 . S
H553 C525 0.930 . S
H554 C526 0.930 . S
H555 C527 0.931 . S
H556 C545 0.930 . S
H557 C546 0.930 . S
H558 C547 0.930 . S
H559 C548 0.931 . S
Eu560 C569 2.828 . S
Eu560 O571 2.392 . S
Eu560 O573 2.418 . S
Eu560 O578 2.373 . S
Eu560 O581 2.488 . S
Eu560 O582 2.471 . S
Eu560 O583 2.349 . S
Eu561 O570 2.373 . S
Eu561 O574 2.488 . S
Eu561 O575 2.471 . S
Eu561 O576 2.349 . S
Eu561 O579 2.392 . S
Eu561 O580 2.418 . S
Eu561 C590 2.828 . S
C562 O580 1.244 . S
C562 O583 1.265 . S
C563 C564 1.379 . S
C563 C567 1.373 . S
C563 C569 1.505 . S
C564 C563 1.379 . S
C564 C566 1.369 . S
C564 H592 0.930 . S
C565 C567 1.383 1_565 S
C565 C568 1.382 . S
C565 H593 0.930 . S
C566 C564 1.369 . S
C566 C568 1.392 1_545 S
C566 H594 0.930 . S
C567 C563 1.373 . S
C567 C565 1.383 1_545 S
C567 H595 0.931 . S
C568 C565 1.382 . S
C568 C566 1.392 1_565 S
C569 Eu560 2.828 . S
C569 C563 1.505 . S
C569 O581 1.249 . S
C569 O582 1.244 . S
O570 Eu561 2.373 . S
O570 C572 1.258 . S
O571 Eu560 2.392 . S
O571 C572 1.242 . S
C572 O570 1.258 . S
C572 O571 1.242 . S
O573 Eu560 2.418 . S
O573 C577 1.244 . S
O574 Eu561 2.488 . S
O574 C590 1.249 . S
O575 Eu561 2.471 . S
O575 C590 1.244 . S
O576 Eu561 2.349 . S
O576 C577 1.265 . S
C577 O573 1.244 . S
C577 O576 1.265 . S
O578 Eu560 2.373 . S
O578 C591 1.258 . S
O579 Eu561 2.392 . S
O579 C591 1.242 . S
O580 Eu561 2.418 . S
O580 C562 1.244 . S
O581 Eu560 2.488 . S
O581 C569 1.249 . S
O582 Eu560 2.471 . S
O582 C569 1.244 . S
O583 Eu560 2.349 . S
O583 C562 1.265 . S
C584 C585 1.379 . S
C584 C588 1.373 . S
C584 C590 1.505 . S
C585 C584 1.379 . S
C585 C587 1.369 . S
C585 H596 0.930 . S
C586 C588 1.383 . S
C586 C589 1.382 . S
C586 H597 0.930 . S
C587 C585 1.369 . S
C587 C589 1.392 . S
C587 H598 0.930 . S
C588 C584 1.373 . S
C588 C586 1.383 . S
C588 H599 0.931 . S
C589 C586 1.382 . S
C589 C587 1.392 . S
C590 Eu561 2.828 . S
C590 O574 1.249 . S
C590 O575 1.244 . S
C590 C584 1.505 . S
C591 O578 1.258 . S
C591 O579 1.242 . S
H592 C564 0.930 . S
H593 C565 0.930 . S
H594 C566 0.930 . S
H595 C567 0.931 . S
H596 C585 0.930 . S
H597 C586 0.930 . S
H598 C587 0.930 . S
H599 C588 0.931 . S
Eu600 C609 2.828 . S
Eu600 O611 2.392 . S
Eu600 O613 2.418 . S
Eu600 O618 2.373 . S
Eu600 O621 2.488 . S
Eu600 O622 2.471 . S
Eu600 O623 2.349 . S
Eu601 O610 2.373 . S
Eu601 O614 2.488 . S
Eu601 O615 2.471 . S
Eu601 O616 2.349 . S
Eu601 O619 2.392 . S
Eu601 O620 2.418 . S
Eu601 C630 2.828 . S
C602 O620 1.244 . S
C602 O623 1.265 . S
C603 C604 1.379 . S
C603 C607 1.373 . S
C603 C609 1.505 . S
C604 C603 1.379 . S
C604 C606 1.369 . S
C604 H632 0.930 . S
C605 C607 1.383 . S
C605 C608 1.382 . S
C605 H633 0.930 . S
C606 C604 1.369 . S
C606 C608 1.392 . S
C606 H634 0.930 . S
C607 C603 1.373 . S
C607 C605 1.383 . S
C607 H635 0.931 . S
C608 C605 1.382 . S
C608 C606 1.392 . S
C609 Eu600 2.828 . S
C609 C603 1.505 . S
C609 O621 1.249 . S
C609 O622 1.244 . S
O610 Eu601 2.373 . S
O610 C612 1.258 . S
O611 Eu600 2.392 . S
O611 C612 1.242 . S
C612 O610 1.258 . S
C612 O611 1.242 . S
O613 Eu600 2.418 . S
O613 C617 1.244 . S
O614 Eu601 2.488 . S
O614 C630 1.249 . S
O615 Eu601 2.471 . S
O615 C630 1.244 . S
O616 Eu601 2.349 . S
O616 C617 1.265 . S
C617 O613 1.244 . S
C617 O616 1.265 . S
O618 Eu600 2.373 . S
O618 C631 1.258 . S
O619 Eu601 2.392 . S
O619 C631 1.242 . S
O620 Eu601 2.418 . S
O620 C602 1.244 . S
O621 Eu600 2.488 . S
O621 C609 1.249 . S
O622 Eu600 2.471 . S
O622 C609 1.244 . S
O623 Eu600 2.349 . S
O623 C602 1.265 . S
C624 C625 1.379 . S
C624 C628 1.373 . S
C624 C630 1.505 1_565 S
C625 C624 1.379 . S
C625 C627 1.369 . S
C625 H636 0.930 . S
C626 C628 1.383 . S
C626 C629 1.382 . S
C626 H637 0.930 . S
C627 C625 1.369 . S
C627 C629 1.392 . S
C627 H638 0.930 . S
C628 C624 1.373 . S
C628 C626 1.383 . S
C628 H639 0.931 . S
C629 C626 1.382 . S
C629 C627 1.392 . S
C630 Eu601 2.828 . S
C630 O614 1.249 . S
C630 O615 1.244 . S
C630 C624 1.505 1_545 S
C631 O618 1.258 . S
C631 O619 1.242 . S
H632 C604 0.930 . S
H633 C605 0.930 . S
H634 C606 0.930 . S
H635 C607 0.931 . S
H636 C625 0.930 . S
H637 C626 0.930 . S
H638 C627 0.930 . S
H639 C628 0.931 . S
Eu640 C649 2.828 . S
Eu640 O651 2.392 . S
Eu640 O653 2.418 . S
Eu640 O658 2.373 . S
Eu640 O661 2.488 . S
Eu640 O662 2.471 . S
Eu640 O663 2.349 . S
Eu641 O650 2.373 . S
Eu641 O654 2.488 . S
Eu641 O655 2.471 . S
Eu641 O656 2.349 . S
Eu641 O659 2.392 . S
Eu641 O660 2.418 . S
Eu641 C670 2.828 . S
C642 O660 1.244 . S
C642 O663 1.265 . S
C643 C644 1.379 . S
C643 C647 1.373 . S
C643 C649 1.505 . S
C644 C643 1.379 . S
C644 C646 1.369 . S
C644 H672 0.930 . S
C645 C647 1.383 . S
C645 C648 1.382 . S
C645 H673 0.930 . S
C646 C644 1.369 . S
C646 C648 1.392 . S
C646 H674 0.930 . S
C647 C643 1.373 . S
C647 C645 1.383 . S
C647 H675 0.931 . S
C648 C645 1.382 . S
C648 C646 1.392 . S
C649 Eu640 2.828 . S
C649 C643 1.505 . S
C649 O661 1.249 . S
C649 O662 1.244 . S
O650 Eu641 2.373 . S
O650 C652 1.258 . S
O651 Eu640 2.392 . S
O651 C652 1.242 . S
C652 O650 1.258 . S
C652 O651 1.242 . S
O653 Eu640 2.418 . S
O653 C657 1.244 . S
O654 Eu641 2.488 . S
O654 C670 1.249 . S
O655 Eu641 2.471 . S
O655 C670 1.244 . S
O656 Eu641 2.349 . S
O656 C657 1.265 . S
C657 O653 1.244 . S
C657 O656 1.265 . S
O658 Eu640 2.373 . S
O658 C671 1.258 . S
O659 Eu641 2.392 . S
O659 C671 1.242 . S
O660 Eu641 2.418 . S
O660 C642 1.244 . S
O661 Eu640 2.488 . S
O661 C649 1.249 . S
O662 Eu640 2.471 . S
O662 C649 1.244 . S
O663 Eu640 2.349 . S
O663 C642 1.265 . S
C664 C665 1.379 . S
C664 C668 1.373 . S
C664 C670 1.505 1_455 S
C665 C664 1.379 . S
C665 C667 1.369 . S
C665 H676 0.930 . S
C666 C668 1.383 . S
C666 C669 1.382 . S
C666 H677 0.930 . S
C667 C665 1.369 . S
C667 C669 1.392 . S
C667 H678 0.930 . S
C668 C664 1.373 . S
C668 C666 1.383 . S
C668 H679 0.931 . S
C669 C666 1.382 . S
C669 C667 1.392 . S
C670 Eu641 2.828 . S
C670 O654 1.249 . S
C670 O655 1.244 . S
C670 C664 1.505 1_655 S
C671 O658 1.258 . S
C671 O659 1.242 . S
H672 C644 0.930 . S
H673 C645 0.930 . S
H674 C646 0.930 . S
H675 C647 0.931 . S
H676 C665 0.930 . S
H677 C666 0.930 . S
H678 C667 0.930 . S
H679 C668 0.931 . S
Eu680 C689 2.828 . S
Eu680 O691 2.392 . S
Eu680 O693 2.418 . S
Eu680 O698 2.373 . S
Eu680 O701 2.488 . S
Eu680 O702 2.471 . S
Eu680 O703 2.349 . S
Eu681 O690 2.373 . S
Eu681 O694 2.488 . S
Eu681 O695 2.471 . S
Eu681 O696 2.349 . S
Eu681 O699 2.392 . S
Eu681 O700 2.418 . S
Eu681 C710 2.828 . S
C682 O700 1.244 . S
C682 O703 1.265 . S
C683 C684 1.379 . S
C683 C687 1.373 . S
C683 C689 1.505 . S
C684 C683 1.379 . S
C684 C686 1.369 . S
C684 H712 0.930 . S
C685 C687 1.383 . S
C685 C688 1.382 . S
C685 H713 0.930 . S
C686 C684 1.369 . S
C686 C688 1.392 . S
C686 H714 0.930 . S
C687 C683 1.373 . S
C687 C685 1.383 . S
C687 H715 0.931 . S
C688 C685 1.382 . S
C688 C686 1.392 . S
C689 Eu680 2.828 . S
C689 C683 1.505 . S
C689 O701 1.249 . S
C689 O702 1.244 . S
O690 Eu681 2.373 . S
O690 C692 1.258 . S
O691 Eu680 2.392 . S
O691 C692 1.242 . S
C692 O690 1.258 . S
C692 O691 1.242 . S
O693 Eu680 2.418 . S
O693 C697 1.244 . S
O694 Eu681 2.488 . S
O694 C710 1.249 . S
O695 Eu681 2.471 . S
O695 C710 1.244 . S
O696 Eu681 2.349 . S
O696 C697 1.265 . S
C697 O693 1.244 . S
C697 O696 1.265 . S
O698 Eu680 2.373 . S
O698 C711 1.258 . S
O699 Eu681 2.392 . S
O699 C711 1.242 . S
O700 Eu681 2.418 . S
O700 C682 1.244 . S
O701 Eu680 2.488 . S
O701 C689 1.249 . S
O702 Eu680 2.471 . S
O702 C689 1.244 . S
O703 Eu680 2.349 . S
O703 C682 1.265 . S
C704 C705 1.379 . S
C704 C708 1.373 . S
C704 C710 1.505 . S
C705 C704 1.379 . S
C705 C707 1.369 . S
C705 H716 0.930 . S
C706 C708 1.383 . S
C706 C709 1.382 . S
C706 H717 0.930 . S
C707 C705 1.369 . S
C707 C709 1.392 . S
C707 H718 0.930 . S
C708 C704 1.373 . S
C708 C706 1.383 . S
C708 H719 0.931 . S
C709 C706 1.382 . S
C709 C707 1.392 . S
C710 Eu681 2.828 . S
C710 O694 1.249 . S
C710 O695 1.244 . S
C710 C704 1.505 . S
C711 O698 1.258 . S
C711 O699 1.242 . S
H712 C684 0.930 . S
H713 C685 0.930 . S
H714 C686 0.930 . S
H715 C687 0.931 . S
H716 C705 0.930 . S
H717 C706 0.930 . S
H718 C707 0.930 . S
H719 C708 0.931 . S
H720 C726 0.930 . S
H721 C729 0.930 . S
H722 C730 0.930 . S
H723 C731 0.930 . S
H724 C734 0.930 . S
H725 C735 0.930 . S
C726 H720 0.930 . S
C726 C727 1.355 . S
C726 C728 1.415 . S
C727 C726 1.355 . S
C727 C729 1.419 . S
C728 C726 1.415 . S
C728 C733 1.425 . S
C728 C735 1.409 . S
C729 H721 0.930 . S
C729 C727 1.419 . S
C729 C730 1.362 . S
C730 H722 0.930 . S
C730 C729 1.362 . S
C730 C733 1.409 . S
C731 H723 0.930 . S
C731 C732 1.355 . S
C731 C733 1.415 . S
C732 C731 1.355 . S
C732 C734 1.419 . S
C733 C728 1.425 . S
C733 C730 1.409 . S
C733 C731 1.415 . S
C734 H724 0.930 . S
C734 C732 1.419 . S
C734 C735 1.362 . S
C735 H725 0.930 . S
C735 C728 1.409 . S
C735 C734 1.362 . S
H736 C742 0.930 . S
H737 C745 0.930 . S
H738 C746 0.930 . S
H739 C747 0.930 . S
H740 C750 0.930 . S
H741 C751 0.930 . S
C742 H736 0.930 . S
C742 C743 1.355 . S
C742 C744 1.415 . S
C743 C742 1.355 . S
C743 C745 1.419 . S
C744 C742 1.415 . S
C744 C749 1.425 . S
C744 C751 1.409 . S
C745 H737 0.930 . S
C745 C743 1.419 . S
C745 C746 1.362 . S
C746 H738 0.930 . S
C746 C745 1.362 . S
C746 C749 1.409 . S
C747 H739 0.930 . S
C747 C748 1.355 . S
C747 C749 1.415 . S
C748 C747 1.355 . S
C748 C750 1.419 . S
C749 C744 1.425 . S
C749 C746 1.409 . S
C749 C747 1.415 . S
C750 H740 0.930 . S
C750 C748 1.419 . S
C750 C751 1.362 . S
C751 H741 0.930 . S
C751 C744 1.409 . S
C751 C750 1.362 . S
H752 C758 0.930 . S
H753 C761 0.930 . S
H754 C762 0.930 . S
H755 C763 0.930 . S
H756 C766 0.930 . S
H757 C767 0.930 . S
C758 H752 0.930 . S
C758 C759 1.355 . S
C758 C760 1.415 . S
C759 C758 1.355 . S
C759 C761 1.419 . S
C760 C758 1.415 . S
C760 C765 1.425 . S
C760 C767 1.409 . S
C761 H753 0.930 . S
C761 C759 1.419 . S
C761 C762 1.362 . S
C762 H754 0.930 . S
C762 C761 1.362 . S
C762 C765 1.409 . S
C763 H755 0.930 . S
C763 C764 1.355 . S
C763 C765 1.415 . S
C764 C763 1.355 . S
C764 C766 1.419 . S
C765 C760 1.425 . S
C765 C762 1.409 . S
C765 C763 1.415 . S
C766 H756 0.930 . S
C766 C764 1.419 . S
C766 C767 1.362 . S
C767 H757 0.930 . S
C767 C760 1.409 . S
C767 C766 1.362 . S
H768 C774 0.930 . S
H769 C777 0.930 . S
H770 C778 0.930 . S
H771 C779 0.930 . S
H772 C782 0.930 . S
H773 C783 0.930 . S
C774 H768 0.930 . S
C774 C775 1.355 . S
C774 C776 1.415 . S
C775 C774 1.355 . S
C775 C777 1.419 . S
C776 C774 1.415 . S
C776 C781 1.425 . S
C776 C783 1.409 . S
C777 H769 0.930 . S
C777 C775 1.419 . S
C777 C778 1.362 . S
C778 H770 0.930 . S
C778 C777 1.362 . S
C778 C781 1.409 . S
C779 H771 0.930 . S
C779 C780 1.355 . S
C779 C781 1.415 . S
C780 C779 1.355 . S
C780 C782 1.419 . S
C781 C776 1.425 . S
C781 C778 1.409 . S
C781 C779 1.415 . S
C782 H772 0.930 . S
C782 C780 1.419 . S
C782 C783 1.362 . S
C783 H773 0.930 . S
C783 C776 1.409 . S
C783 C782 1.362 . S
H784 C790 0.930 . S
H785 C793 0.930 . S
H786 C794 0.930 . S
H787 C795 0.930 . S
H788 C798 0.930 . S
H789 C799 0.930 . S
C790 H784 0.930 . S
C790 C791 1.355 . S
C790 C792 1.415 . S
C791 C790 1.355 . S
C791 C793 1.419 . S
C792 C790 1.415 . S
C792 C797 1.425 . S
C792 C799 1.409 . S
C793 H785 0.930 . S
C793 C791 1.419 . S
C793 C794 1.362 . S
C794 H786 0.930 . S
C794 C793 1.362 . S
C794 C797 1.409 . S
C795 H787 0.930 . S
C795 C796 1.355 . S
C795 C797 1.415 . S
C796 C795 1.355 . S
C796 C798 1.419 . S
C797 C792 1.425 . S
C797 C794 1.409 . S
C797 C795 1.415 . S
C798 H788 0.930 . S
C798 C796 1.419 . S
C798 C799 1.362 . S
C799 H789 0.930 . S
C799 C792 1.409 . S
C799 C798 1.362 . S
H800 C806 0.930 . S
H801 C809 0.930 . S
H802 C810 0.930 . S
H803 C811 0.930 . S
H804 C814 0.930 . S
H805 C815 0.930 . S
C806 H800 0.930 . S
C806 C807 1.355 . S
C806 C808 1.415 . S
C807 C806 1.355 . S
C807 C809 1.419 . S
C808 C806 1.415 . S
C808 C813 1.425 . S
C808 C815 1.409 . S
C809 H801 0.930 . S
C809 C807 1.419 . S
C809 C810 1.362 . S
C810 H802 0.930 . S
C810 C809 1.362 . S
C810 C813 1.409 . S
C811 H803 0.930 . S
C811 C812 1.355 . S
C811 C813 1.415 . S
C812 C811 1.355 . S
C812 C814 1.419 . S
C813 C808 1.425 . S
C813 C810 1.409 . S
C813 C811 1.415 . S
C814 H804 0.930 . S
C814 C812 1.419 . S
C814 C815 1.362 . S
C815 H805 0.930 . S
C815 C808 1.409 . S
C815 C814 1.362 . S
H816 C822 0.930 . S
H817 C825 0.930 . S
H818 C826 0.930 . S
H819 C827 0.930 . S
H820 C830 0.930 . S
H821 C831 0.930 . S
C822 H816 0.930 . S
C822 C823 1.355 . S
C822 C824 1.415 . S
C823 C822 1.355 . S
C823 C825 1.419 . S
C824 C822 1.415 . S
C824 C829 1.425 . S
C824 C831 1.409 . S
C825 H817 0.930 . S
C825 C823 1.419 . S
C825 C826 1.362 . S
C826 H818 0.930 . S
C826 C825 1.362 . S
C826 C829 1.409 . S
C827 H819 0.930 . S
C827 C828 1.355 . S
C827 C829 1.415 . S
C828 C827 1.355 . S
C828 C830 1.419 . S
C829 C824 1.425 . S
C829 C826 1.409 . S
C829 C827 1.415 . S
C830 H820 0.930 . S
C830 C828 1.419 . S
C830 C831 1.362 . S
C831 H821 0.930 . S
C831 C824 1.409 . S
C831 C830 1.362 . S
H832 C838 0.930 . S
H833 C841 0.930 . S
H834 C842 0.930 . S
H835 C843 0.930 . S
H836 C846 0.930 . S
H837 C847 0.930 . S
C838 H832 0.930 . S
C838 C839 1.355 . S
C838 C840 1.415 1_545 S
C839 C838 1.355 . S
C839 C841 1.419 . S
C840 C838 1.415 1_565 S
C840 C845 1.425 . S
C840 C847 1.409 . S
C841 H833 0.930 . S
C841 C839 1.419 . S
C841 C842 1.362 . S
C842 H834 0.930 . S
C842 C841 1.362 . S
C842 C845 1.409 1_545 S
C843 H835 0.930 . S
C843 C844 1.355 . S
C843 C845 1.415 . S
C844 C843 1.355 . S
C844 C846 1.419 . S
C845 C840 1.425 . S
C845 C842 1.409 1_565 S
C845 C843 1.415 . S
C846 H836 0.930 . S
C846 C844 1.419 . S
C846 C847 1.362 . S
C847 H837 0.930 . S
C847 C840 1.409 . S
C847 C846 1.362 . S
H848 C854 0.930 . S
H849 C857 0.930 . S
H850 C858 0.930 . S
H851 C859 0.930 . S
H852 C862 0.930 . S
H853 C863 0.930 . S
C854 H848 0.930 . S
C854 C855 1.355 . S
C854 C856 1.415 . S
C855 C854 1.355 . S
C855 C857 1.419 . S
C856 C854 1.415 . S
C856 C861 1.425 . S
C856 C863 1.409 . S
C857 H849 0.930 . S
C857 C855 1.419 . S
C857 C858 1.362 . S
C858 H850 0.930 . S
C858 C857 1.362 . S
C858 C861 1.409 . S
C859 H851 0.930 . S
C859 C860 1.355 . S
C859 C861 1.415 1_655 S
C860 C859 1.355 . S
C860 C862 1.419 . S
C861 C856 1.425 . S
C861 C858 1.409 . S
C861 C859 1.415 1_455 S
C862 H852 0.930 . S
C862 C860 1.419 . S
C862 C863 1.362 1_655 S
C863 H853 0.930 . S
C863 C856 1.409 . S
C863 C862 1.362 1_455 S
H864 C870 0.930 . S
H865 C873 0.930 . S
H866 C874 0.930 . S
H867 C875 0.930 . S
H868 C878 0.930 . S
H869 C879 0.930 . S
C870 H864 0.930 . S
C870 C871 1.355 . S
C870 C872 1.415 . S
C871 C870 1.355 . S
C871 C873 1.419 . S
C872 C870 1.415 . S
C872 C877 1.425 . S
C872 C879 1.409 . S
C873 H865 0.930 . S
C873 C871 1.419 . S
C873 C874 1.362 . S
C874 H866 0.930 . S
C874 C873 1.362 . S
C874 C877 1.409 . S
C875 H867 0.930 . S
C875 C876 1.355 . S
C875 C877 1.415 . S
C876 C875 1.355 . S
C876 C878 1.419 . S
C877 C872 1.425 . S
C877 C874 1.409 . S
C877 C875 1.415 . S
C878 H868 0.930 . S
C878 C876 1.419 . S
C878 C879 1.362 . S
C879 H869 0.930 . S
C879 C872 1.409 . S
C879 C878 1.362 . S
H880 C886 0.930 . S
H881 C889 0.930 . S
H882 C890 0.930 . S
H883 C891 0.930 . S
H884 C894 0.930 . S
H885 C895 0.930 . S
C886 H880 0.930 . S
C886 C887 1.355 . S
C886 C888 1.415 . S
C887 C886 1.355 . S
C887 C889 1.419 . S
C888 C886 1.415 . S
C888 C893 1.425 . S
C888 C895 1.409 . S
C889 H881 0.930 . S
C889 C887 1.419 . S
C889 C890 1.362 . S
C890 H882 0.930 . S
C890 C889 1.362 . S
C890 C893 1.409 . S
C891 H883 0.930 . S
C891 C892 1.355 . S
C891 C893 1.415 . S
C892 C891 1.355 . S
C892 C894 1.419 . S
C893 C888 1.425 . S
C893 C890 1.409 . S
C893 C891 1.415 . S
C894 H884 0.930 . S
C894 C892 1.419 . S
C894 C895 1.362 . S
C895 H885 0.930 . S
C895 C888 1.409 . S
C895 C894 1.362 . S
H896 C902 0.930 . S
H897 C905 0.930 . S
H898 C906 0.930 . S
H899 C907 0.930 . S
H900 C910 0.930 . S
H901 C911 0.930 . S
C902 H896 0.930 . S
C902 C903 1.355 . S
C902 C904 1.415 . S
C903 C902 1.355 . S
C903 C905 1.419 . S
C904 C902 1.415 . S
C904 C909 1.425 . S
C904 C911 1.409 . S
C905 H897 0.930 . S
C905 C903 1.419 . S
C905 C906 1.362 . S
C906 H898 0.930 . S
C906 C905 1.362 . S
C906 C909 1.409 . S
C907 H899 0.930 . S
C907 C908 1.355 . S
C907 C909 1.415 . S
C908 C907 1.355 . S
C908 C910 1.419 . S
C909 C904 1.425 . S
C909 C906 1.409 . S
C909 C907 1.415 . S
C910 H900 0.930 . S
C910 C908 1.419 . S
C910 C911 1.362 . S
C911 H901 0.930 . S
C911 C904 1.409 . S
C911 C910 1.362 . S
H912 C918 0.930 . S
H913 C921 0.930 . S
H914 C922 0.930 . S
H915 C923 0.930 . S
H916 C926 0.930 . S
H917 C927 0.930 . S
C918 H912 0.930 . S
C918 C919 1.355 . S
C918 C920 1.415 . S
C919 C918 1.355 . S
C919 C921 1.419 . S
C920 C918 1.415 . S
C920 C925 1.425 . S
C920 C927 1.409 . S
C921 H913 0.930 . S
C921 C919 1.419 . S
C921 C922 1.362 . S
C922 H914 0.930 . S
C922 C921 1.362 . S
C922 C925 1.409 . S
C923 H915 0.930 . S
C923 C924 1.355 . S
C923 C925 1.415 . S
C924 C923 1.355 . S
C924 C926 1.419 . S
C925 C920 1.425 . S
C925 C922 1.409 . S
C925 C923 1.415 . S
C926 H916 0.930 . S
C926 C924 1.419 . S
C926 C927 1.362 . S
C927 H917 0.930 . S
C927 C920 1.409 . S
C927 C926 1.362 . S
H928 C934 0.930 . S
H929 C937 0.930 . S
H930 C938 0.930 . S
H931 C939 0.930 . S
H932 C942 0.930 . S
H933 C943 0.930 . S
C934 H928 0.930 . S
C934 C935 1.355 . S
C934 C936 1.415 . S
C935 C934 1.355 . S
C935 C937 1.419 . S
C936 C934 1.415 . S
C936 C941 1.425 . S
C936 C943 1.409 . S
C937 H929 0.930 . S
C937 C935 1.419 . S
C937 C938 1.362 . S
C938 H930 0.930 . S
C938 C937 1.362 . S
C938 C941 1.409 . S
C939 H931 0.930 . S
C939 C940 1.355 . S
C939 C941 1.415 . S
C940 C939 1.355 . S
C940 C942 1.419 . S
C941 C936 1.425 . S
C941 C938 1.409 . S
C941 C939 1.415 . S
C942 H932 0.930 . S
C942 C940 1.419 . S
C942 C943 1.362 . S
C943 H933 0.930 . S
C943 C936 1.409 . S
C943 C942 1.362 . S
H944 C950 0.930 . S
H945 C953 0.930 . S
H946 C954 0.930 . S
H947 C955 0.930 . S
H948 C958 0.930 . S
H949 C959 0.930 . S
C950 H944 0.930 . S
C950 C951 1.355 . S
C950 C952 1.415 . S
C951 C950 1.355 . S
C951 C953 1.419 . S
C952 C950 1.415 . S
C952 C957 1.425 . S
C952 C959 1.409 . S
C953 H945 0.930 . S
C953 C951 1.419 . S
C953 C954 1.362 . S
C954 H946 0.930 . S
C954 C953 1.362 . S
C954 C957 1.409 . S
C955 H947 0.930 . S
C955 C956 1.355 . S
C955 C957 1.415 . S
C956 C955 1.355 . S
C956 C958 1.419 . S
C957 C952 1.425 . S
C957 C954 1.409 . S
C957 C955 1.415 . S
C958 H948 0.930 . S
C958 C956 1.419 . S
C958 C959 1.362 . S
C959 H949 0.930 . S
C959 C952 1.409 . S
C959 C958 1.362 . S
H960 C966 0.930 . S
H961 C969 0.930 . S
H962 C970 0.930 . S
H963 C971 0.930 . S
H964 C974 0.930 . S
H965 C975 0.930 . S
C966 H960 0.930 . S
C966 C967 1.355 . S
C966 C968 1.415 . S
C967 C966 1.355 . S
C967 C969 1.419 . S
C968 C966 1.415 . S
C968 C973 1.425 . S
C968 C975 1.409 . S
C969 H961 0.930 . S
C969 C967 1.419 . S
C969 C970 1.362 . S
C970 H962 0.930 . S
C970 C969 1.362 . S
C970 C973 1.409 . S
C971 H963 0.930 . S
C971 C972 1.355 . S
C971 C973 1.415 . S
C972 C971 1.355 . S
C972 C974 1.419 . S
C973 C968 1.425 . S
C973 C970 1.409 . S
C973 C971 1.415 . S
C974 H964 0.930 . S
C974 C972 1.419 . S
C974 C975 1.362 . S
C975 H965 0.930 . S
C975 C968 1.409 . S
C975 C974 1.362 . S
H976 C982 0.930 . S
H977 C985 0.930 . S
H978 C986 0.930 . S
H979 C987 0.930 . S
H980 C990 0.930 . S
H981 C991 0.930 . S
C982 H976 0.930 . S
C982 C983 1.355 . S
C982 C984 1.415 1_565 S
C983 C982 1.355 . S
C983 C985 1.419 . S
C984 C982 1.415 1_545 S
C984 C989 1.425 . S
C984 C991 1.409 . S
C985 H977 0.930 . S
C985 C983 1.419 . S
C985 C986 1.362 1_565 S
C986 H978 0.930 . S
C986 C985 1.362 1_545 S
C986 C989 1.409 . S
C987 H979 0.930 . S
C987 C988 1.355 . S
C987 C989 1.415 . S
C988 C987 1.355 . S
C988 C990 1.419 . S
C989 C984 1.425 . S
C989 C986 1.409 . S
C989 C987 1.415 . S
C990 H980 0.930 . S
C990 C988 1.419 . S
C990 C991 1.362 . S
C991 H981 0.930 . S
C991 C984 1.409 . S
C991 C990 1.362 . S
H992 C998 0.930 . S
H993 C1001 0.930 . S
H994 C1002 0.930 . S
H995 C1003 0.930 . S
H996 C1006 0.930 . S
H997 C1007 0.930 . S
C998 H992 0.930 . S
C998 C999 1.355 . S
C998 C1000 1.415 1_455 S
C999 C998 1.355 . S
C999 C1001 1.419 . S
C1000 C998 1.415 1_655 S
C1000 C1005 1.425 . S
C1000 C1007 1.409 . S
C1001 H993 0.930 . S
C1001 C999 1.419 . S
C1001 C1002 1.362 . S
C1002 H994 0.930 . S
C1002 C1001 1.362 . S
C1002 C1005 1.409 1_455 S
C1003 H995 0.930 . S
C1003 C1004 1.355 . S
C1003 C1005 1.415 . S
C1004 C1003 1.355 . S
C1004 C1006 1.419 . S
C1005 C1000 1.425 . S
C1005 C1002 1.409 1_655 S
C1005 C1003 1.415 . S
C1006 H996 0.930 . S
C1006 C1004 1.419 . S
C1006 C1007 1.362 . S
C1007 H997 0.930 . S
C1007 C1000 1.409 . S
C1007 C1006 1.362 . S
H1008 C1014 0.930 . S
H1009 C1017 0.930 . S
H1010 C1018 0.930 . S
H1011 C1019 0.930 . S
H1012 C1022 0.930 . S
H1013 C1023 0.930 . S
C1014 H1008 0.930 . S
C1014 C1015 1.355 1_565 S
C1014 C1016 1.415 . S
C1015 C1014 1.355 1_545 S
C1015 C1017 1.419 . S
C1016 C1014 1.415 . S
C1016 C1021 1.425 1_564 S
C1016 C1023 1.409 1_554 S
C1017 H1009 0.930 . S
C1017 C1015 1.419 . S
C1017 C1018 1.362 . S
C1018 H1010 0.930 . S
C1018 C1017 1.362 . S
C1018 C1021 1.409 1_554 S
C1019 H1011 0.930 . S
C1019 C1020 1.355 . S
C1019 C1021 1.415 . S
C1020 C1019 1.355 . S
C1020 C1022 1.419 1_545 S
C1021 C1016 1.425 1_546 S
C1021 C1018 1.409 1_556 S
C1021 C1019 1.415 . S
C1022 H1012 0.930 . S
C1022 C1020 1.419 1_565 S
C1022 C1023 1.362 . S
C1023 H1013 0.930 . S
C1023 C1016 1.409 1_556 S
C1023 C1022 1.362 . S
H1024 C1030 0.930 1_655 S
H1025 C1033 0.930 . S
H1026 C1034 0.930 . S
H1027 C1035 0.930 . S
H1028 C1038 0.930 . S
H1029 C1039 0.930 . S
C1030 H1024 0.930 1_455 S
C1030 C1031 1.355 . S
C1030 C1032 1.415 . S
C1031 C1030 1.355 . S
C1031 C1033 1.419 . S
C1032 C1030 1.415 . S
C1032 C1037 1.425 1_556 S
C1032 C1039 1.409 1_456 S
C1033 H1025 0.930 . S
C1033 C1031 1.419 . S
C1033 C1034 1.362 . S
C1034 H1026 0.930 . S
C1034 C1033 1.362 . S
C1034 C1037 1.409 1_556 S
C1035 H1027 0.930 . S
C1035 C1036 1.355 . S
C1035 C1037 1.415 . S
C1036 C1035 1.355 . S
C1036 C1038 1.419 1_455 S
C1037 C1032 1.425 1_554 S
C1037 C1034 1.409 1_554 S
C1037 C1035 1.415 . S
C1038 H1028 0.930 . S
C1038 C1036 1.419 1_655 S
C1038 C1039 1.362 . S
C1039 H1029 0.930 . S
C1039 C1032 1.409 1_654 S
C1039 C1038 1.362 . S
H1040 C1046 0.930 . S
H1041 C1049 0.930 . S
H1042 C1050 0.930 . S
H1043 C1051 0.930 . S
H1044 C1054 0.930 . S
H1045 C1055 0.930 . S
C1046 H1040 0.930 . S
C1046 C1047 1.355 . S
C1046 C1048 1.415 . S
C1047 C1046 1.355 . S
C1047 C1049 1.419 . S
C1048 C1046 1.415 . S
C1048 C1053 1.425 1_556 S
C1048 C1055 1.409 1_556 S
C1049 H1041 0.930 . S
C1049 C1047 1.419 . S
C1049 C1050 1.362 . S
C1050 H1042 0.930 . S
C1050 C1049 1.362 . S
C1050 C1053 1.409 1_556 S
C1051 H1043 0.930 . S
C1051 C1052 1.355 . S
C1051 C1053 1.415 . S
C1052 C1051 1.355 . S
C1052 C1054 1.419 . S
C1053 C1048 1.425 1_554 S
C1053 C1050 1.409 1_554 S
C1053 C1051 1.415 . S
C1054 H1044 0.930 . S
C1054 C1052 1.419 . S
C1054 C1055 1.362 . S
C1055 H1045 0.930 . S
C1055 C1048 1.409 1_554 S
C1055 C1054 1.362 . S
H1056 C1062 0.930 . S
H1057 C1065 0.930 . S
H1058 C1066 0.930 . S
H1059 C1067 0.930 . S
H1060 C1070 0.930 . S
H1061 C1071 0.930 . S
C1062 H1056 0.930 . S
C1062 C1063 1.355 . S
C1062 C1064 1.415 . S
C1063 C1062 1.355 . S
C1063 C1065 1.419 . S
C1064 C1062 1.415 . S
C1064 C1069 1.425 . S
C1064 C1071 1.409 . S
C1065 H1057 0.930 . S
C1065 C1063 1.419 . S
C1065 C1066 1.362 . S
C1066 H1058 0.930 . S
C1066 C1065 1.362 . S
C1066 C1069 1.409 . S
C1067 H1059 0.930 . S
C1067 C1068 1.355 . S
C1067 C1069 1.415 . S
C1068 C1067 1.355 . S
C1068 C1070 1.419 . S
C1069 C1064 1.425 . S
C1069 C1066 1.409 . S
C1069 C1067 1.415 . S
C1070 H1060 0.930 . S
C1070 C1068 1.419 . S
C1070 C1071 1.362 . S
C1071 H1061 0.930 . S
C1071 C1064 1.409 . S
C1071 C1070 1.362 . S
H1072 C1078 0.930 . S
H1073 C1081 0.930 . S
H1074 C1082 0.930 . S
H1075 C1083 0.930 . S
H1076 C1086 0.930 . S
H1077 C1087 0.930 . S
C1078 H1072 0.930 . S
C1078 C1079 1.355 . S
C1078 C1080 1.415 . S
C1079 C1078 1.355 . S
C1079 C1081 1.419 . S
C1080 C1078 1.415 . S
C1080 C1085 1.425 . S
C1080 C1087 1.409 . S
C1081 H1073 0.930 . S
C1081 C1079 1.419 . S
C1081 C1082 1.362 . S
C1082 H1074 0.930 . S
C1082 C1081 1.362 . S
C1082 C1085 1.409 . S
C1083 H1075 0.930 . S
C1083 C1084 1.355 . S
C1083 C1085 1.415 . S
C1084 C1083 1.355 . S
C1084 C1086 1.419 . S
C1085 C1080 1.425 . S
C1085 C1082 1.409 . S
C1085 C1083 1.415 . S
C1086 H1076 0.930 . S
C1086 C1084 1.419 . S
C1086 C1087 1.362 . S
C1087 H1077 0.930 . S
C1087 C1080 1.409 . S
C1087 C1086 1.362 . S
H1088 C1094 0.930 . S
H1089 C1097 0.930 . S
H1090 C1098 0.930 . S
H1091 C1099 0.930 . S
H1092 C1102 0.930 . S
H1093 C1103 0.930 . S
C1094 H1088 0.930 . S
C1094 C1095 1.355 . S
C1094 C1096 1.415 . S
C1095 C1094 1.355 . S
C1095 C1097 1.419 . S
C1096 C1094 1.415 . S
C1096 C1101 1.425 . S
C1096 C1103 1.409 . S
C1097 H1089 0.930 . S
C1097 C1095 1.419 . S
C1097 C1098 1.362 . S
C1098 H1090 0.930 . S
C1098 C1097 1.362 . S
C1098 C1101 1.409 . S
C1099 H1091 0.930 . S
C1099 C1100 1.355 . S
C1099 C1101 1.415 . S
C1100 C1099 1.355 . S
C1100 C1102 1.419 . S
C1101 C1096 1.425 . S
C1101 C1098 1.409 . S
C1101 C1099 1.415 . S
C1102 H1092 0.930 . S
C1102 C1100 1.419 . S
C1102 C1103 1.362 . S
C1103 H1093 0.930 . S
C1103 C1096 1.409 . S
C1103 C1102 1.362 . S
H1104 C1110 0.930 . S
H1105 C1113 0.930 . S
H1106 C1114 0.930 . S
H1107 C1115 0.930 . S
H1108 C1118 0.930 . S
H1109 C1119 0.930 . S
C1110 H1104 0.930 . S
C1110 C1111 1.355 . S
C1110 C1112 1.415 . S
C1111 C1110 1.355 . S
C1111 C1113 1.419 . S
C1112 C1110 1.415 . S
C1112 C1117 1.425 . S
C1112 C1119 1.409 . S
C1113 H1105 0.930 . S
C1113 C1111 1.419 . S
C1113 C1114 1.362 . S
C1114 H1106 0.930 . S
C1114 C1113 1.362 . S
C1114 C1117 1.409 . S
C1115 H1107 0.930 . S
C1115 C1116 1.355 . S
C1115 C1117 1.415 . S
C1116 C1115 1.355 . S
C1116 C1118 1.419 . S
C1117 C1112 1.425 . S
C1117 C1114 1.409 . S
C1117 C1115 1.415 . S
C1118 H1108 0.930 . S
C1118 C1116 1.419 . S
C1118 C1119 1.362 . S
C1119 H1109 0.930 . S
C1119 C1112 1.409 . S
C1119 C1118 1.362 . S
H1120 C1126 0.930 . S
H1121 C1129 0.930 . S
H1122 C1130 0.930 . S
H1123 C1131 0.930 . S
H1124 C1134 0.930 . S
H1125 C1135 0.930 . S
C1126 H1120 0.930 . S
C1126 C1127 1.355 . S
C1126 C1128 1.415 . S
C1127 C1126 1.355 . S
C1127 C1129 1.419 . S
C1128 C1126 1.415 . S
C1128 C1133 1.425 . S
C1128 C1135 1.409 . S
C1129 H1121 0.930 . S
C1129 C1127 1.419 . S
C1129 C1130 1.362 . S
C1130 H1122 0.930 . S
C1130 C1129 1.362 . S
C1130 C1133 1.409 . S
C1131 H1123 0.930 . S
C1131 C1132 1.355 . S
C1131 C1133 1.415 . S
C1132 C1131 1.355 . S
C1132 C1134 1.419 . S
C1133 C1128 1.425 . S
C1133 C1130 1.409 . S
C1133 C1131 1.415 . S
C1134 H1124 0.930 . S
C1134 C1132 1.419 . S
C1134 C1135 1.362 . S
C1135 H1125 0.930 . S
C1135 C1128 1.409 . S
C1135 C1134 1.362 . S
H1136 C1142 0.930 . S
H1137 C1145 0.930 . S
H1138 C1146 0.930 . S
H1139 C1147 0.930 . S
H1140 C1150 0.930 . S
H1141 C1151 0.930 . S
C1142 H1136 0.930 . S
C1142 C1143 1.355 . S
C1142 C1144 1.415 . S
C1143 C1142 1.355 . S
C1143 C1145 1.419 . S
C1144 C1142 1.415 . S
C1144 C1149 1.425 . S
C1144 C1151 1.409 . S
C1145 H1137 0.930 . S
C1145 C1143 1.419 . S
C1145 C1146 1.362 . S
C1146 H1138 0.930 . S
C1146 C1145 1.362 . S
C1146 C1149 1.409 . S
C1147 H1139 0.930 . S
C1147 C1148 1.355 . S
C1147 C1149 1.415 . S
C1148 C1147 1.355 . S
C1148 C1150 1.419 . S
C1149 C1144 1.425 . S
C1149 C1146 1.409 . S
C1149 C1147 1.415 . S
C1150 H1140 0.930 . S
C1150 C1148 1.419 . S
C1150 C1151 1.362 . S
C1151 H1141 0.930 . S
C1151 C1144 1.409 . S
C1151 C1150 1.362 . S
H1152 C1158 0.930 . S
H1153 C1161 0.930 . S
H1154 C1162 0.930 . S
H1155 C1163 0.930 . S
H1156 C1166 0.930 . S
H1157 C1167 0.930 . S
C1158 H1152 0.930 . S
C1158 C1159 1.355 . S
C1158 C1160 1.415 . S
C1159 C1158 1.355 . S
C1159 C1161 1.419 . S
C1160 C1158 1.415 . S
C1160 C1165 1.425 . S
C1160 C1167 1.409 . S
C1161 H1153 0.930 . S
C1161 C1159 1.419 . S
C1161 C1162 1.362 . S
C1162 H1154 0.930 . S
C1162 C1161 1.362 . S
C1162 C1165 1.409 . S
C1163 H1155 0.930 . S
C1163 C1164 1.355 . S
C1163 C1165 1.415 . S
C1164 C1163 1.355 . S
C1164 C1166 1.419 . S
C1165 C1160 1.425 . S
C1165 C1162 1.409 . S
C1165 C1163 1.415 . S
C1166 H1156 0.930 . S
C1166 C1164 1.419 . S
C1166 C1167 1.362 . S
C1167 H1157 0.930 . S
C1167 C1160 1.409 . S
C1167 C1166 1.362 . S
H1168 C1174 0.930 . S
H1169 C1177 0.930 1_655 S
H1170 C1178 0.930 . S
H1171 C1179 0.930 . S
H1172 C1182 0.930 . S
H1173 C1183 0.930 . S
C1174 H1168 0.930 . S
C1174 C1175 1.355 . S
C1174 C1176 1.415 . S
C1175 C1174 1.355 . S
C1175 C1177 1.419 . S
C1176 C1174 1.415 . S
C1176 C1181 1.425 . S
C1176 C1183 1.409 . S
C1177 H1169 0.930 1_455 S
C1177 C1175 1.419 . S
C1177 C1178 1.362 . S
C1178 H1170 0.930 . S
C1178 C1177 1.362 . S
C1178 C1181 1.409 . S
C1179 H1171 0.930 . S
C1179 C1180 1.355 . S
C1179 C1181 1.415 . S
C1180 C1179 1.355 . S
C1180 C1182 1.419 . S
C1181 C1176 1.425 . S
C1181 C1178 1.409 . S
C1181 C1179 1.415 . S
C1182 H1172 0.930 . S
C1182 C1180 1.419 . S
C1182 C1183 1.362 . S
C1183 H1173 0.930 . S
C1183 C1176 1.409 . S
C1183 C1182 1.362 . S
H1184 C1190 0.930 . S
H1185 C1193 0.930 . S
H1186 C1194 0.930 . S
H1187 C1195 0.930 . S
H1188 C1198 0.930 . S
H1189 C1199 0.930 . S
C1190 H1184 0.930 . S
C1190 C1191 1.355 . S
C1190 C1192 1.415 . S
C1191 C1190 1.355 . S
C1191 C1193 1.419 . S
C1192 C1190 1.415 . S
C1192 C1197 1.425 . S
C1192 C1199 1.409 . S
C1193 H1185 0.930 . S
C1193 C1191 1.419 . S
C1193 C1194 1.362 . S
C1194 H1186 0.930 . S
C1194 C1193 1.362 . S
C1194 C1197 1.409 . S
C1195 H1187 0.930 . S
C1195 C1196 1.355 . S
C1195 C1197 1.415 . S
C1196 C1195 1.355 . S
C1196 C1198 1.419 . S
C1197 C1192 1.425 . S
C1197 C1194 1.409 . S
C1197 C1195 1.415 . S
C1198 H1188 0.930 . S
C1198 C1196 1.419 . S
C1198 C1199 1.362 . S
C1199 H1189 0.930 . S
C1199 C1192 1.409 . S
C1199 C1198 1.362 . S
H1200 C1206 0.930 . S
H1201 C1209 0.930 . S
H1202 C1210 0.930 . S
H1203 C1211 0.930 . S
H1204 C1214 0.930 . S
H1205 C1215 0.930 . S
C1206 H1200 0.930 . S
C1206 C1207 1.355 . S
C1206 C1208 1.415 . S
C1207 C1206 1.355 . S
C1207 C1209 1.419 . S
C1208 C1206 1.415 . S
C1208 C1213 1.425 . S
C1208 C1215 1.409 . S
C1209 H1201 0.930 . S
C1209 C1207 1.419 . S
C1209 C1210 1.362 . S
C1210 H1202 0.930 . S
C1210 C1209 1.362 . S
C1210 C1213 1.409 . S
C1211 H1203 0.930 . S
C1211 C1212 1.355 . S
C1211 C1213 1.415 . S
C1212 C1211 1.355 . S
C1212 C1214 1.419 . S
C1213 C1208 1.425 . S
C1213 C1210 1.409 . S
C1213 C1211 1.415 . S
C1214 H1204 0.930 . S
C1214 C1212 1.419 . S
C1214 C1215 1.362 . S
C1215 H1205 0.930 . S
C1215 C1208 1.409 . S
C1215 C1214 1.362 . S
H1216 C1222 0.930 . S
H1217 C1225 0.930 . S
H1218 C1226 0.930 . S
H1219 C1227 0.930 . S
H1220 C1230 0.930 . S
H1221 C1231 0.930 . S
C1222 H1216 0.930 . S
C1222 C1223 1.355 . S
C1222 C1224 1.415 . S
C1223 C1222 1.355 . S
C1223 C1225 1.419 . S
C1224 C1222 1.415 . S
C1224 C1229 1.425 . S
C1224 C1231 1.409 . S
C1225 H1217 0.930 . S
C1225 C1223 1.419 . S
C1225 C1226 1.362 . S
C1226 H1218 0.930 . S
C1226 C1225 1.362 . S
C1226 C1229 1.409 . S
C1227 H1219 0.930 . S
C1227 C1228 1.355 . S
C1227 C1229 1.415 . S
C1228 C1227 1.355 . S
C1228 C1230 1.419 . S
C1229 C1224 1.425 . S
C1229 C1226 1.409 . S
C1229 C1227 1.415 . S
C1230 H1220 0.930 . S
C1230 C1228 1.419 . S
C1230 C1231 1.362 . S
C1231 H1221 0.930 . S
C1231 C1224 1.409 . S
C1231 C1230 1.362 . S
H1232 C1238 0.930 . S
H1233 C1241 0.930 . S
H1234 C1242 0.930 . S
H1235 C1243 0.930 . S
H1236 C1246 0.930 . S
H1237 C1247 0.930 . S
C1238 H1232 0.930 . S
C1238 C1239 1.355 . S
C1238 C1240 1.415 . S
C1239 C1238 1.355 . S
C1239 C1241 1.419 . S
C1240 C1238 1.415 . S
C1240 C1245 1.425 . S
C1240 C1247 1.409 . S
C1241 H1233 0.930 . S
C1241 C1239 1.419 . S
C1241 C1242 1.362 . S
C1242 H1234 0.930 . S
C1242 C1241 1.362 . S
C1242 C1245 1.409 . S
C1243 H1235 0.930 . S
C1243 C1244 1.355 . S
C1243 C1245 1.415 . S
C1244 C1243 1.355 . S
C1244 C1246 1.419 . S
C1245 C1240 1.425 . S
C1245 C1242 1.409 . S
C1245 C1243 1.415 . S
C1246 H1236 0.930 . S
C1246 C1244 1.419 . S
C1246 C1247 1.362 . S
C1247 H1237 0.930 . S
C1247 C1240 1.409 . S
C1247 C1246 1.362 . S
H1248 C1254 0.930 . S
H1249 C1257 0.930 . S
H1250 C1258 0.930 1_455 S
H1251 C1259 0.930 . S
H1252 C1262 0.930 . S
H1253 C1263 0.930 . S
C1254 H1248 0.930 . S
C1254 C1255 1.355 . S
C1254 C1256 1.415 . S
C1255 C1254 1.355 . S
C1255 C1257 1.419 . S
C1256 C1254 1.415 . S
C1256 C1261 1.425 1_655 S
C1256 C1263 1.409 1_655 S
C1257 H1249 0.930 . S
C1257 C1255 1.419 . S
C1257 C1258 1.362 . S
C1258 H1250 0.930 1_655 S
C1258 C1257 1.362 . S
C1258 C1261 1.409 1_655 S
C1259 H1251 0.930 . S
C1259 C1260 1.355 . S
C1259 C1261 1.415 . S
C1260 C1259 1.355 . S
C1260 C1262 1.419 . S
C1261 C1256 1.425 1_455 S
C1261 C1258 1.409 1_455 S
C1261 C1259 1.415 . S
C1262 H1252 0.930 . S
C1262 C1260 1.419 . S
C1262 C1263 1.362 . S
C1263 H1253 0.930 . S
C1263 C1256 1.409 1_455 S
C1263 C1262 1.362 . S
H1264 C1270 0.930 . S
H1265 C1273 0.930 . S
H1266 C1274 0.930 . S
H1267 C1275 0.930 . S
H1268 C1278 0.930 . S
H1269 C1279 0.930 . S
C1270 H1264 0.930 . S
C1270 C1271 1.355 . S
C1270 C1272 1.415 . S
C1271 C1270 1.355 . S
C1271 C1273 1.419 . S
C1272 C1270 1.415 . S
C1272 C1277 1.425 . S
C1272 C1279 1.409 . S
C1273 H1265 0.930 . S
C1273 C1271 1.419 . S
C1273 C1274 1.362 . S
C1274 H1266 0.930 . S
C1274 C1273 1.362 . S
C1274 C1277 1.409 . S
C1275 H1267 0.930 . S
C1275 C1276 1.355 . S
C1275 C1277 1.415 . S
C1276 C1275 1.355 . S
C1276 C1278 1.419 . S
C1277 C1272 1.425 . S
C1277 C1274 1.409 . S
C1277 C1275 1.415 . S
C1278 H1268 0.930 . S
C1278 C1276 1.419 . S
C1278 C1279 1.362 . S
C1279 H1269 0.930 . S
C1279 C1272 1.409 . S
C1279 C1278 1.362 . S
H1280 C1286 0.930 . S
H1281 C1289 0.930 . S
H1282 C1290 0.930 . S
H1283 C1291 0.930 . S
H1284 C1294 0.930 . S
H1285 C1295 0.930 1_565 S
C1286 H1280 0.930 . S
C1286 C1287 1.355 . S
C1286 C1288 1.415 . S
C1287 C1286 1.355 . S
C1287 C1289 1.419 . S
C1288 C1286 1.415 . S
C1288 C1293 1.425 1_565 S
C1288 C1295 1.409 1_565 S
C1289 H1281 0.930 . S
C1289 C1287 1.419 . S
C1289 C1290 1.362 1_565 S
C1290 H1282 0.930 . S
C1290 C1289 1.362 1_545 S
C1290 C1293 1.409 . S
C1291 H1283 0.930 . S
C1291 C1292 1.355 . S
C1291 C1293 1.415 . S
C1292 C1291 1.355 . S
C1292 C1294 1.419 . S
C1293 C1288 1.425 1_545 S
C1293 C1290 1.409 . S
C1293 C1291 1.415 . S
C1294 H1284 0.930 . S
C1294 C1292 1.419 . S
C1294 C1295 1.362 . S
C1295 H1285 0.930 1_545 S
C1295 C1288 1.409 1_545 S
C1295 C1294 1.362 . S
H1296 C1302 0.930 . S
H1297 C1305 0.930 . S
H1298 C1306 0.930 . S
H1299 C1307 0.930 . S
H1300 C1310 0.930 . S
H1301 C1311 0.930 . S
C1302 H1296 0.930 . S
C1302 C1303 1.355 . S
C1302 C1304 1.415 . S
C1303 C1302 1.355 . S
C1303 C1305 1.419 . S
C1304 C1302 1.415 . S
C1304 C1309 1.425 . S
C1304 C1311 1.409 . S
C1305 H1297 0.930 . S
C1305 C1303 1.419 . S
C1305 C1306 1.362 . S
C1306 H1298 0.930 . S
C1306 C1305 1.362 . S
C1306 C1309 1.409 . S
C1307 H1299 0.930 . S
C1307 C1308 1.355 . S
C1307 C1309 1.415 . S
C1308 C1307 1.355 . S
C1308 C1310 1.419 . S
C1309 C1304 1.425 . S
C1309 C1306 1.409 . S
C1309 C1307 1.415 . S
C1310 H1300 0.930 . S
C1310 C1308 1.419 . S
C1310 C1311 1.362 . S
C1311 H1301 0.930 . S
C1311 C1304 1.409 . S
C1311 C1310 1.362 . S
H1312 C1318 0.930 . S
H1313 C1321 0.930 . S
H1314 C1322 0.930 . S
H1315 C1323 0.930 . S
H1316 C1326 0.930 . S
H1317 C1327 0.930 . S
C1318 H1312 0.930 . S
C1318 C1319 1.355 . S
C1318 C1320 1.415 . S
C1319 C1318 1.355 . S
C1319 C1321 1.419 . S
C1320 C1318 1.415 . S
C1320 C1325 1.425 . S
C1320 C1327 1.409 . S
C1321 H1313 0.930 . S
C1321 C1319 1.419 . S
C1321 C1322 1.362 . S
C1322 H1314 0.930 . S
C1322 C1321 1.362 . S
C1322 C1325 1.409 . S
C1323 H1315 0.930 . S
C1323 C1324 1.355 . S
C1323 C1325 1.415 . S
C1324 C1323 1.355 . S
C1324 C1326 1.419 . S
C1325 C1320 1.425 . S
C1325 C1322 1.409 . S
C1325 C1323 1.415 . S
C1326 H1316 0.930 . S
C1326 C1324 1.419 . S
C1326 C1327 1.362 . S
C1327 H1317 0.930 . S
C1327 C1320 1.409 . S
C1327 C1326 1.362 . S
H1328 C1334 0.930 . S
H1329 C1337 0.930 . S
H1330 C1338 0.930 . S
H1331 C1339 0.930 . S
H1332 C1342 0.930 . S
H1333 C1343 0.930 . S
C1334 H1328 0.930 . S
C1334 C1335 1.355 . S
C1334 C1336 1.415 . S
C1335 C1334 1.355 . S
C1335 C1337 1.419 . S
C1336 C1334 1.415 . S
C1336 C1341 1.425 . S
C1336 C1343 1.409 . S
C1337 H1329 0.930 . S
C1337 C1335 1.419 . S
C1337 C1338 1.362 . S
C1338 H1330 0.930 . S
C1338 C1337 1.362 . S
C1338 C1341 1.409 . S
C1339 H1331 0.930 . S
C1339 C1340 1.355 . S
C1339 C1341 1.415 . S
C1340 C1339 1.355 . S
C1340 C1342 1.419 . S
C1341 C1336 1.425 . S
C1341 C1338 1.409 . S
C1341 C1339 1.415 . S
C1342 H1332 0.930 . S
C1342 C1340 1.419 . S
C1342 C1343 1.362 . S
C1343 H1333 0.930 . S
C1343 C1336 1.409 . S
C1343 C1342 1.362 . S
H1344 C1350 0.930 . S
H1345 C1353 0.930 . S
H1346 C1354 0.930 . S
H1347 C1355 0.930 . S
H1348 C1358 0.930 . S
H1349 C1359 0.930 . S
C1350 H1344 0.930 . S
C1350 C1351 1.355 . S
C1350 C1352 1.415 . S
C1351 C1350 1.355 . S
C1351 C1353 1.419 . S
C1352 C1350 1.415 . S
C1352 C1357 1.425 . S
C1352 C1359 1.409 . S
C1353 H1345 0.930 . S
C1353 C1351 1.419 . S
C1353 C1354 1.362 . S
C1354 H1346 0.930 . S
C1354 C1353 1.362 . S
C1354 C1357 1.409 . S
C1355 H1347 0.930 . S
C1355 C1356 1.355 . S
C1355 C1357 1.415 . S
C1356 C1355 1.355 . S
C1356 C1358 1.419 . S
C1357 C1352 1.425 . S
C1357 C1354 1.409 . S
C1357 C1355 1.415 . S
C1358 H1348 0.930 . S
C1358 C1356 1.419 . S
C1358 C1359 1.362 . S
C1359 H1349 0.930 . S
C1359 C1352 1.409 . S
C1359 C1358 1.362 . S
H1360 C1366 0.930 . S
H1361 C1369 0.930 . S
H1362 C1370 0.930 . S
H1363 C1371 0.930 . S
H1364 C1374 0.930 . S
H1365 C1375 0.930 . S
C1366 H1360 0.930 . S
C1366 C1367 1.355 . S
C1366 C1368 1.415 . S
C1367 C1366 1.355 . S
C1367 C1369 1.419 . S
C1368 C1366 1.415 . S
C1368 C1373 1.425 . S
C1368 C1375 1.409 . S
C1369 H1361 0.930 . S
C1369 C1367 1.419 . S
C1369 C1370 1.362 . S
C1370 H1362 0.930 . S
C1370 C1369 1.362 . S
C1370 C1373 1.409 . S
C1371 H1363 0.930 . S
C1371 C1372 1.355 . S
C1371 C1373 1.415 . S
C1372 C1371 1.355 . S
C1372 C1374 1.419 . S
C1373 C1368 1.425 . S
C1373 C1370 1.409 . S
C1373 C1371 1.415 . S
C1374 H1364 0.930 . S
C1374 C1372 1.419 . S
C1374 C1375 1.362 . S
C1375 H1365 0.930 . S
C1375 C1368 1.409 . S
C1375 C1374 1.362 . S
H1376 C1382 0.930 . S
H1377 C1385 0.930 . S
H1378 C1386 0.930 . S
H1379 C1387 0.930 . S
H1380 C1390 0.930 . S
H1381 C1391 0.930 . S
C1382 H1376 0.930 . S
C1382 C1383 1.355 . S
C1382 C1384 1.415 . S
C1383 C1382 1.355 . S
C1383 C1385 1.419 . S
C1384 C1382 1.415 . S
C1384 C1389 1.425 . S
C1384 C1391 1.409 . S
C1385 H1377 0.930 . S
C1385 C1383 1.419 . S
C1385 C1386 1.362 . S
C1386 H1378 0.930 . S
C1386 C1385 1.362 . S
C1386 C1389 1.409 . S
C1387 H1379 0.930 . S
C1387 C1388 1.355 . S
C1387 C1389 1.415 . S
C1388 C1387 1.355 . S
C1388 C1390 1.419 . S
C1389 C1384 1.425 . S
C1389 C1386 1.409 . S
C1389 C1387 1.415 . S
C1390 H1380 0.930 . S
C1390 C1388 1.419 . S
C1390 C1391 1.362 . S
C1391 H1381 0.930 . S
C1391 C1384 1.409 . S
C1391 C1390 1.362 . S
H1392 C1398 0.930 . S
H1393 C1401 0.930 . S
H1394 C1402 0.930 . S
H1395 C1403 0.930 . S
H1396 C1406 0.930 . S
H1397 C1407 0.930 . S
C1398 H1392 0.930 . S
C1398 C1399 1.355 . S
C1398 C1400 1.415 . S
C1399 C1398 1.355 . S
C1399 C1401 1.419 . S
C1400 C1398 1.415 . S
C1400 C1405 1.425 . S
C1400 C1407 1.409 . S
C1401 H1393 0.930 . S
C1401 C1399 1.419 . S
C1401 C1402 1.362 . S
C1402 H1394 0.930 . S
C1402 C1401 1.362 . S
C1402 C1405 1.409 . S
C1403 H1395 0.930 . S
C1403 C1404 1.355 . S
C1403 C1405 1.415 . S
C1404 C1403 1.355 . S
C1404 C1406 1.419 . S
C1405 C1400 1.425 . S
C1405 C1402 1.409 . S
C1405 C1403 1.415 . S
C1406 H1396 0.930 . S
C1406 C1404 1.419 . S
C1406 C1407 1.362 . S
C1407 H1397 0.930 . S
C1407 C1400 1.409 . S
C1407 C1406 1.362 . S
H1408 C1414 0.930 . S
H1409 C1417 0.930 . S
H1410 C1418 0.930 . S
H1411 C1419 0.930 . S
H1412 C1422 0.930 . S
H1413 C1423 0.930 . S
C1414 H1408 0.930 . S
C1414 C1415 1.355 . S
C1414 C1416 1.415 . S
C1415 C1414 1.355 . S
C1415 C1417 1.419 . S
C1416 C1414 1.415 . S
C1416 C1421 1.425 . S
C1416 C1423 1.409 . S
C1417 H1409 0.930 . S
C1417 C1415 1.419 . S
C1417 C1418 1.362 . S
C1418 H1410 0.930 . S
C1418 C1417 1.362 . S
C1418 C1421 1.409 . S
C1419 H1411 0.930 . S
C1419 C1420 1.355 . S
C1419 C1421 1.415 . S
C1420 C1419 1.355 . S
C1420 C1422 1.419 . S
C1421 C1416 1.425 . S
C1421 C1418 1.409 . S
C1421 C1419 1.415 . S
C1422 H1412 0.930 . S
C1422 C1420 1.419 . S
C1422 C1423 1.362 . S
C1423 H1413 0.930 . S
C1423 C1416 1.409 . S
C1423 C1422 1.362 . S
H1424 C1430 0.930 . S
H1425 C1433 0.930 . S
H1426 C1434 0.930 . S
H1427 C1435 0.930 . S
H1428 C1438 0.930 . S
H1429 C1439 0.930 . S
C1430 H1424 0.930 . S
C1430 C1431 1.355 . S
C1430 C1432 1.415 . S
C1431 C1430 1.355 . S
C1431 C1433 1.419 . S
C1432 C1430 1.415 . S
C1432 C1437 1.425 . S
C1432 C1439 1.409 . S
C1433 H1425 0.930 . S
C1433 C1431 1.419 . S
C1433 C1434 1.362 . S
C1434 H1426 0.930 . S
C1434 C1433 1.362 . S
C1434 C1437 1.409 . S
C1435 H1427 0.930 . S
C1435 C1436 1.355 . S
C1435 C1437 1.415 . S
C1436 C1435 1.355 . S
C1436 C1438 1.419 . S
C1437 C1432 1.425 . S
C1437 C1434 1.409 . S
C1437 C1435 1.415 . S
C1438 H1428 0.930 . S
C1438 C1436 1.419 . S
C1438 C1439 1.362 . S
C1439 H1429 0.930 . S
C1439 C1432 1.409 . S
C1439 C1438 1.362 . S
H1440 C1446 0.930 . S
H1441 C1449 0.930 . S
H1442 C1450 0.930 . S
H1443 C1451 0.930 . S
H1444 C1454 0.930 . S
H1445 C1455 0.930 . S
C1446 H1440 0.930 . S
C1446 C1447 1.355 . S
C1446 C1448 1.415 . S
C1447 C1446 1.355 . S
C1447 C1449 1.419 . S
C1448 C1446 1.415 . S
C1448 C1453 1.425 . S
C1448 C1455 1.409 . S
C1449 H1441 0.930 . S
C1449 C1447 1.419 . S
C1449 C1450 1.362 . S
C1450 H1442 0.930 . S
C1450 C1449 1.362 . S
C1450 C1453 1.409 . S
C1451 H1443 0.930 . S
C1451 C1452 1.355 . S
C1451 C1453 1.415 . S
C1452 C1451 1.355 . S
C1452 C1454 1.419 . S
C1453 C1448 1.425 . S
C1453 C1450 1.409 . S
C1453 C1451 1.415 . S
C1454 H1444 0.930 . S
C1454 C1452 1.419 . S
C1454 C1455 1.362 . S
C1455 H1445 0.930 . S
C1455 C1448 1.409 . S
C1455 C1454 1.362 . S
H1456 C1462 0.930 . S
H1457 C1465 0.930 . S
H1458 C1466 0.930 . S
H1459 C1467 0.930 . S
H1460 C1470 0.930 . S
H1461 C1471 0.930 1_565 S
C1462 H1456 0.930 . S
C1462 C1463 1.355 . S
C1462 C1464 1.415 1_565 S
C1463 C1462 1.355 . S
C1463 C1465 1.419 1_565 S
C1464 C1462 1.415 1_545 S
C1464 C1469 1.425 . S
C1464 C1471 1.409 . S
C1465 H1457 0.930 . S
C1465 C1463 1.419 1_545 S
C1465 C1466 1.362 . S
C1466 H1458 0.930 . S
C1466 C1465 1.362 . S
C1466 C1469 1.409 . S
C1467 H1459 0.930 . S
C1467 C1468 1.355 . S
C1467 C1469 1.415 . S
C1468 C1467 1.355 . S
C1468 C1470 1.419 . S
C1469 C1464 1.425 . S
C1469 C1466 1.409 . S
C1469 C1467 1.415 . S
C1470 H1460 0.930 . S
C1470 C1468 1.419 . S
C1470 C1471 1.362 . S
C1471 H1461 0.930 1_545 S
C1471 C1464 1.409 . S
C1471 C1470 1.362 . S
H1472 C1478 0.930 . S
H1473 C1481 0.930 . S
H1474 C1482 0.930 . S
H1475 C1483 0.930 . S
H1476 C1486 0.913 1_655 S
H1477 C1487 0.930 . S
C1478 H1472 0.930 . S
C1478 C1479 1.355 . S
C1478 C1480 1.415 . S
C1479 C1478 1.355 . S
C1479 C1481 1.419 . S
C1480 C1478 1.415 . S
C1480 C1485 1.425 1_655 S
C1480 C1487 1.409 . S
C1481 H1473 0.930 . S
C1481 C1479 1.419 . S
C1481 C1482 1.362 1_655 S
C1482 H1474 0.930 . S
C1482 C1481 1.362 1_455 S
C1482 C1485 1.409 . S
C1483 H1475 0.930 . S
C1483 C1484 1.355 . S
C1483 C1485 1.415 . S
C1484 C1483 1.355 . S
C1484 C1486 1.448 . S
C1485 C1480 1.425 1_455 S
C1485 C1482 1.409 . S
C1485 C1483 1.415 . S
C1486 H1476 0.913 1_455 S
C1486 C1484 1.448 . S
C1486 C1487 1.351 1_455 S
C1487 H1477 0.930 . S
C1487 C1480 1.409 . S
C1487 C1486 1.351 1_655 S
H1488 C1494 0.930 . S
H1489 C1497 0.930 . S
H1490 C1498 0.930 . S
H1491 C1499 0.930 . S
H1492 C1502 0.930 . S
H1493 C1503 0.930 . S
C1494 H1488 0.930 . S
C1494 C1495 1.355 . S
C1494 C1496 1.415 . S
C1495 C1494 1.355 . S
C1495 C1497 1.419 . S
C1496 C1494 1.415 . S
C1496 C1501 1.425 . S
C1496 C1503 1.409 . S
C1497 H1489 0.930 . S
C1497 C1495 1.419 . S
C1497 C1498 1.362 . S
C1498 H1490 0.930 . S
C1498 C1497 1.362 . S
C1498 C1501 1.409 . S
C1499 H1491 0.930 . S
C1499 C1500 1.355 . S
C1499 C1501 1.415 . S
C1500 C1499 1.355 . S
C1500 C1502 1.419 . S
C1501 C1496 1.425 . S
C1501 C1498 1.409 . S
C1501 C1499 1.415 . S
C1502 H1492 0.930 . S
C1502 C1500 1.419 . S
C1502 C1503 1.362 . S
C1503 H1493 0.930 . S
C1503 C1496 1.409 . S
C1503 C1502 1.362 . S
H1504 C1510 0.930 1_565 S
H1505 C1513 0.930 . S
H1506 C1514 0.930 . S
H1507 C1515 0.930 . S
H1508 C1518 0.930 . S
H1509 C1519 0.930 . S
C1510 H1504 0.930 1_545 S
C1510 C1511 1.355 . S
C1510 C1512 1.415 1_545 S
C1511 C1510 1.355 . S
C1511 C1513 1.419 . S
C1512 C1510 1.415 1_565 S
C1512 C1517 1.396 1_565 S
C1512 C1519 1.409 . S
C1513 H1505 0.930 . S
C1513 C1511 1.419 . S
C1513 C1514 1.362 . S
C1514 H1506 0.930 . S
C1514 C1513 1.362 . S
C1514 C1517 1.439 . S
C1515 H1507 0.930 . S
C1515 C1516 1.355 . S
C1515 C1517 1.413 1_565 S
C1516 C1515 1.355 . S
C1516 C1518 1.419 . S
C1517 C1512 1.396 1_545 S
C1517 C1514 1.439 . S
C1517 C1515 1.413 1_545 S
C1518 H1508 0.930 . S
C1518 C1516 1.419 . S
C1518 C1519 1.362 . S
C1519 H1509 0.930 . S
C1519 C1512 1.409 . S
C1519 C1518 1.362 . S
H1520 C1526 0.930 . S
H1521 C1529 0.930 . S
H1522 C1530 0.930 1_655 S
H1523 C1531 0.930 . S
H1524 C1534 0.930 . S
H1525 C1535 0.930 . S
C1526 H1520 0.930 . S
C1526 C1527 1.355 . S
C1526 C1528 1.415 . S
C1527 C1526 1.355 . S
C1527 C1529 1.419 . S
C1528 C1526 1.415 . S
C1528 C1533 1.425 . S
C1528 C1535 1.409 . S
C1529 H1521 0.930 . S
C1529 C1527 1.419 . S
C1529 C1530 1.362 . S
C1530 H1522 0.930 1_455 S
C1530 C1529 1.362 . S
C1530 C1533 1.409 . S
C1531 H1523 0.930 . S
C1531 C1532 1.355 . S
C1531 C1533 1.415 1_655 S
C1532 C1531 1.355 . S
C1532 C1534 1.419 1_655 S
C1533 C1528 1.425 . S
C1533 C1530 1.409 . S
C1533 C1531 1.415 1_455 S
C1534 H1524 0.930 . S
C1534 C1532 1.419 1_455 S
C1534 C1535 1.362 . S
C1535 H1525 0.930 . S
C1535 C1528 1.409 . S
C1535 C1534 1.362 . S
H1536 C1542 0.930 . S
H1537 C1545 0.930 . S
H1538 C1546 0.930 . S
H1539 C1547 0.930 . S
H1540 C1550 0.930 . S
H1541 C1551 0.930 . S
C1542 H1536 0.930 . S
C1542 C1543 1.355 . S
C1542 C1544 1.415 . S
C1543 C1542 1.355 . S
C1543 C1545 1.419 . S
C1544 C1542 1.415 . S
C1544 C1549 1.425 . S
C1544 C1551 1.409 . S
C1545 H1537 0.930 . S
C1545 C1543 1.419 . S
C1545 C1546 1.362 . S
C1546 H1538 0.930 . S
C1546 C1545 1.362 . S
C1546 C1549 1.409 . S
C1547 H1539 0.930 . S
C1547 C1548 1.355 . S
C1547 C1549 1.415 . S
C1548 C1547 1.355 . S
C1548 C1550 1.419 . S
C1549 C1544 1.425 . S
C1549 C1546 1.409 . S
C1549 C1547 1.415 . S
C1550 H1540 0.930 . S
C1550 C1548 1.419 . S
C1550 C1551 1.362 . S
C1551 H1541 0.930 . S
C1551 C1544 1.409 . S
C1551 C1550 1.362 . S
H1552 C1558 0.930 . S
H1553 C1561 0.930 . S
H1554 C1562 0.930 . S
H1555 C1563 0.930 . S
H1556 C1566 0.930 . S
H1557 C1567 0.930 . S
C1558 H1552 0.930 . S
C1558 C1559 1.355 . S
C1558 C1560 1.415 . S
C1559 C1558 1.355 . S
C1559 C1561 1.419 . S
C1560 C1558 1.415 . S
C1560 C1565 1.425 . S
C1560 C1567 1.409 . S
C1561 H1553 0.930 . S
C1561 C1559 1.419 . S
C1561 C1562 1.362 . S
C1562 H1554 0.930 . S
C1562 C1561 1.362 . S
C1562 C1565 1.409 . S
C1563 H1555 0.930 . S
C1563 C1564 1.355 . S
C1563 C1565 1.415 . S
C1564 C1563 1.355 . S
C1564 C1566 1.419 . S
C1565 C1560 1.425 . S
C1565 C1562 1.409 . S
C1565 C1563 1.415 . S
C1566 H1556 0.930 . S
C1566 C1564 1.419 . S
C1566 C1567 1.362 . S
C1567 H1557 0.930 . S
C1567 C1560 1.409 . S
C1567 C1566 1.362 . S
H1568 C1574 0.930 . S
H1569 C1577 0.930 . S
H1570 C1578 0.930 . S
H1571 C1579 0.930 . S
H1572 C1582 0.930 . S
H1573 C1583 0.930 . S
C1574 H1568 0.930 . S
C1574 C1575 1.355 . S
C1574 C1576 1.415 . S
C1575 C1574 1.355 . S
C1575 C1577 1.419 . S
C1576 C1574 1.415 . S
C1576 C1581 1.425 . S
C1576 C1583 1.409 . S
C1577 H1569 0.930 . S
C1577 C1575 1.419 . S
C1577 C1578 1.362 . S
C1578 H1570 0.930 . S
C1578 C1577 1.362 . S
C1578 C1581 1.409 . S
C1579 H1571 0.930 . S
C1579 C1580 1.355 . S
C1579 C1581 1.415 . S
C1580 C1579 1.355 . S
C1580 C1582 1.419 . S
C1581 C1576 1.425 . S
C1581 C1578 1.409 . S
C1581 C1579 1.415 . S
C1582 H1572 0.930 . S
C1582 C1580 1.419 . S
C1582 C1583 1.362 . S
C1583 H1573 0.930 . S
C1583 C1576 1.409 . S
C1583 C1582 1.362 . S
C727 C12 1.272 . S
C732 C109 1.261 . S
C743 C29 1.270 . S
C748 C52 1.241 . S
C759 C69 1.258 . S
C764 C92 1.224 . S
C775 C132 1.224 . S
C780 C189 1.258 . S
C791 C229 1.272 . S
C796 C172 1.254 . S
C807 C212 1.275 . S
C812 C149 1.265 . S
C823 C349 1.269 . S
C828 C252 1.274 . S
C839 C269 1.264 . S
C844 C292 1.274 . S
C855 C332 1.268 . S
C860 C309 1.272 . S
C871 C429 1.266 . S
C876 C372 1.275 . S
C887 C412 1.246 . S
C892 C469 1.271 . S
C903 C389 1.272 . S
C908 C452 1.250 . S
C919 C492 1.227 . S
C924 C589 1.264 . S
C935 C509 1.267 . S
C940 C532 1.275 . S
C951 C549 1.267 . S
C956 C572 1.275 . S
C967 C669 1.272 . S
C972 C612 1.268 . S
C983 C709 1.261 . S
C988 C652 1.224 . S
C999 C629 1.261 . S
C1004 C692 1.272 . S
C1015 C2 1.752 . S
C1020 C202 1.685 . S
C1031 C122 1.702 . S
C1036 C42 1.754 . S
C1047 C162 1.686 . S
C1052 C82 1.752 . S
C1063 C242 1.703 . S
C1068 C442 1.754 . S
C1079 C282 1.705 . S
C1084 C362 1.686 . S
C1095 C402 1.745 . S
C1100 C322 1.679 . S
C1111 C482 1.677 . S
C1116 C682 1.724 . S
C1127 C602 1.725 . S
C1132 C522 1.677 . S
C1143 C642 1.747 . S
C1148 C562 1.679 . S
C1159 C417 2.350 . S
C1164 C17 2.350 . S
C1175 C57 2.337 . S
C1180 C457 2.337 . S
C1191 C377 2.331 . S
C1196 C97 2.331 . S
C1207 C137 2.360 . S
C1212 C577 2.360 . S
C1223 C177 2.346 . S
C1228 C497 2.346 . S
C1239 C537 2.336 . S
C1244 C217 2.337 . S
C1255 C657 2.345 . S
C1260 C257 2.346 . S
C1271 C297 2.358 . S
C1276 C697 2.357 . S
C1287 C337 2.331 . S
C1292 C617 2.331 . S
C1303 C88 1.743 . S
C1308 C31 1.787 . S
C1319 C8 1.697 . S
C1324 C71 1.763 . S
C1335 C111 1.789 . S
C1340 C48 1.756 . S
C1351 C168 1.731 . S
C1356 C151 1.781 . S
C1367 C208 1.696 . S
C1372 C191 1.762 . S
C1383 C231 1.775 . S
C1388 C128 1.732 . S
C1399 C328 1.756 . S
C1404 C271 1.790 . S
C1415 C311 1.784 . S
C1420 C248 1.749 . S
C1431 C288 1.695 . S
C1436 C351 1.762 . S
C1447 C391 1.764 . S
C1452 C408 1.698 . S
C1463 C431 1.790 . S
C1468 C448 1.756 . S
C1479 C368 1.757 . S
C1484 C471 1.790 . S
C1495 C511 1.761 . S
C1500 C568 1.697 . S
C1511 C551 1.765 . S
C1516 C488 1.700 . S
C1527 C528 1.755 . S
C1532 C591 1.790 . S
C1543 C631 1.762 . S
C1548 C648 1.696 . S
C1559 C671 1.772 . S
C1564 C688 1.712 . S
C1575 C608 1.741 . S
C1580 C711 1.786 . S
