# Generated by pormake.
# Topology vbk, (5)-cn, num edge types: 1
# Building blocks:
#     Node 0, Type 0, BuildingBlock: BEQFEK_clean_sbu_0, # of connection points: 5
#     Node 1, Type 0, BuildingBlock: BEQFEK_clean_sbu_0, # of connection points: 5
#     Node 2, Type 0, BuildingBlock: BEQFEK_clean_sbu_0, # of connection points: 5
#     Node 3, Type 0, BuildingBlock: BEQFEK_clean_sbu_0, # of connection points: 5
#     Node 4, Type 0, BuildingBlock: BEQFEK_clean_sbu_0, # of connection points: 5
#     Node 5, Type 0, BuildingBlock: BEQFEK_clean_sbu_0, # of connection points: 5
#     Node 6, Type 0, BuildingBlock: BEQFEK_clean_sbu_0, # of connection points: 5
#     Node 7, Type 0, BuildingBlock: BEQFEK_clean_sbu_0, # of connection points: 5
#     Node 8, Type 0, BuildingBlock: BEQFEK_clean_sbu_0, # of connection points: 5
#     Node 9, Type 0, BuildingBlock: BEQFEK_clean_sbu_0, # of connection points: 5
#     Node 10, Type 0, BuildingBlock: BEQFEK_clean_sbu_0, # of connection points: 5
#     Node 11, Type 0, BuildingBlock: BEQFEK_clean_sbu_0, # of connection points: 5
#     Node 12, Type 0, BuildingBlock: BEQFEK_clean_sbu_0, # of connection points: 5
#     Node 13, Type 0, BuildingBlock: BEQFEK_clean_sbu_0, # of connection points: 5
#     Node 14, Type 0, BuildingBlock: BEQFEK_clean_sbu_0, # of connection points: 5
#     Node 15, Type 0, BuildingBlock: BEQFEK_clean_sbu_0, # of connection points: 5
#     Edge 16, Type (0, 0), BuildingBlock: UVAHIK_clean_linker_0, # of connection points: 2
#     Edge 17, Type (0, 0), BuildingBlock: UVAHIK_clean_linker_0, # of connection points: 2
#     Edge 18, Type (0, 0), BuildingBlock: UVAHIK_clean_linker_0, # of connection points: 2
#     Edge 19, Type (0, 0), BuildingBlock: UVAHIK_clean_linker_0, # of connection points: 2
#     Edge 20, Type (0, 0), BuildingBlock: UVAHIK_clean_linker_0, # of connection points: 2
#     Edge 21, Type (0, 0), BuildingBlock: UVAHIK_clean_linker_0, # of connection points: 2
#     Edge 22, Type (0, 0), BuildingBlock: UVAHIK_clean_linker_0, # of connection points: 2
#     Edge 23, Type (0, 0), BuildingBlock: UVAHIK_clean_linker_0, # of connection points: 2
#     Edge 24, Type (0, 0), BuildingBlock: UVAHIK_clean_linker_0, # of connection points: 2
#     Edge 25, Type (0, 0), BuildingBlock: UVAHIK_clean_linker_0, # of connection points: 2
#     Edge 26, Type (0, 0), BuildingBlock: UVAHIK_clean_linker_0, # of connection points: 2
#     Edge 27, Type (0, 0), BuildingBlock: UVAHIK_clean_linker_0, # of connection points: 2
#     Edge 28, Type (0, 0), BuildingBlock: UVAHIK_clean_linker_0, # of connection points: 2
#     Edge 29, Type (0, 0), BuildingBlock: UVAHIK_clean_linker_0, # of connection points: 2
#     Edge 30, Type (0, 0), BuildingBlock: UVAHIK_clean_linker_0, # of connection points: 2
#     Edge 31, Type (0, 0), BuildingBlock: UVAHIK_clean_linker_0, # of connection points: 2
#     Edge 32, Type (0, 0), BuildingBlock: UVAHIK_clean_linker_0, # of connection points: 2
#     Edge 33, Type (0, 0), BuildingBlock: UVAHIK_clean_linker_0, # of connection points: 2
#     Edge 34, Type (0, 0), BuildingBlock: UVAHIK_clean_linker_0, # of connection points: 2
#     Edge 35, Type (0, 0), BuildingBlock: UVAHIK_clean_linker_0, # of connection points: 2
#     Edge 36, Type (0, 0), BuildingBlock: UVAHIK_clean_linker_0, # of connection points: 2
#     Edge 37, Type (0, 0), BuildingBlock: UVAHIK_clean_linker_0, # of connection points: 2
#     Edge 38, Type (0, 0), BuildingBlock: UVAHIK_clean_linker_0, # of connection points: 2
#     Edge 39, Type (0, 0), BuildingBlock: UVAHIK_clean_linker_0, # of connection points: 2
#     Edge 40, Type (0, 0), BuildingBlock: UVAHIK_clean_linker_0, # of connection points: 2
#     Edge 41, Type (0, 0), BuildingBlock: UVAHIK_clean_linker_0, # of connection points: 2
#     Edge 42, Type (0, 0), BuildingBlock: UVAHIK_clean_linker_0, # of connection points: 2
#     Edge 43, Type (0, 0), BuildingBlock: UVAHIK_clean_linker_0, # of connection points: 2
#     Edge 44, Type (0, 0), BuildingBlock: UVAHIK_clean_linker_0, # of connection points: 2
#     Edge 45, Type (0, 0), BuildingBlock: UVAHIK_clean_linker_0, # of connection points: 2
#     Edge 46, Type (0, 0), BuildingBlock: UVAHIK_clean_linker_0, # of connection points: 2
#     Edge 47, Type (0, 0), BuildingBlock: UVAHIK_clean_linker_0, # of connection points: 2
#     Edge 48, Type (0, 0), BuildingBlock: UVAHIK_clean_linker_0, # of connection points: 2
#     Edge 49, Type (0, 0), BuildingBlock: UVAHIK_clean_linker_0, # of connection points: 2
#     Edge 50, Type (0, 0), BuildingBlock: UVAHIK_clean_linker_0, # of connection points: 2
#     Edge 51, Type (0, 0), BuildingBlock: UVAHIK_clean_linker_0, # of connection points: 2
#     Edge 52, Type (0, 0), BuildingBlock: UVAHIK_clean_linker_0, # of connection points: 2
#     Edge 53, Type (0, 0), BuildingBlock: UVAHIK_clean_linker_0, # of connection points: 2
#     Edge 54, Type (0, 0), BuildingBlock: UVAHIK_clean_linker_0, # of connection points: 2
#     Edge 55, Type (0, 0), BuildingBlock: UVAHIK_clean_linker_0, # of connection points: 2
# Relax obj value: 0.035
# Max RMSD: 0.071
# Mean RMSD: 0.071
data_MOF--net-vbk--node1-BEQFEK_clean_sbu_0--edge1-UVAHIK_clean_linker_0
_symmetry_space_group_name_H-M    P1
_symmetry_Int_Tables_number       1
_symmetry_cell_setting            triclinic
loop_
_symmetry_equiv_pos_as_xyz
'x, y, z'
_cell_length_a     94.577012
_cell_length_b     53.736213
_cell_length_c     34.08156
_cell_angle_alpha  90.030286
_cell_angle_beta   90.007556
_cell_angle_gamma 90.004834
loop_
_atom_site_label
_atom_site_type_symbol
_atom_site_fract_x
_atom_site_fract_y
_atom_site_fract_z
_atom_type_partial_charge
Co0 Co 0.10322 0.14152 0.16324 0.0
Co1 Co 0.1362 0.14832 0.1634 0.0
C2 C 0.12293 0.10151 0.13417 0.0
O3 O 0.1106 0.11013 0.14072 0.0
O4 O 0.13399 0.114 0.14258 0.0
C5 C 0.07602 0.11817 0.177 0.0
O6 O 0.08327 0.09738 0.17939 0.0
C7 C 0.16603 0.14223 0.18735 0.0
C8 C 0.17464 0.17911 0.17143 0.0
C9 C 0.17819 0.15666 0.18874 0.0
N10 N 0.15575 0.15569 0.17025 0.0
N11 N 0.16104 0.17754 0.16026 0.0
C12 C 0.16384 0.11706 0.20499 0.0
H13 H 0.15241 0.11357 0.20994 0.0
H14 H 0.16974 0.11543 0.23304 0.0
H15 H 0.16795 0.10275 0.18448 0.0
C16 C 0.10702 0.15558 0.2464 0.0
N17 N 0.11234 0.14946 0.21107 0.0
N18 N 0.12608 0.1533 0.21113 0.0
C19 C 0.12989 0.16264 0.24635 0.0
C20 C 0.11792 0.16435 0.26998 0.0
C21 C 0.09169 0.15352 0.25681 0.0
H22 H 0.08558 0.16755 0.23998 0.0
H23 H 0.08776 0.13482 0.24848 0.0
H24 H 0.08988 0.15626 0.28867 0.0
O25 O 0.10599 0.16873 0.12455 0.0
O26 O 0.12938 0.17175 0.12307 0.0
H27 H 0.14785 0.18454 0.22995 0.0
H28 H 0.14434 0.18481 0.28166 0.0
C29 C 0.14426 0.17304 0.25497 0.0
H30 H 0.15183 0.15749 0.25896 0.0
H31 H 0.15522 0.19174 0.14701 0.0
O32 O 0.08251 0.13854 0.17092 0.0
C33 C 0.11725 0.1784 0.11088 0.0
Co34 Co 0.39664 0.8535 0.66308 0.0
Co35 Co 0.36353 0.84873 0.65845 0.0
C36 C 0.37866 0.8941 0.62926 0.0
O37 O 0.39067 0.88497 0.63809 0.0
O38 O 0.36726 0.88231 0.6364 0.0
C39 C 0.42387 0.8756 0.67954 0.0
O40 O 0.41679 0.89664 0.6798 0.0
C41 C 0.33362 0.85797 0.67954 0.0
C42 C 0.32297 0.82813 0.64609 0.0
C43 C 0.32042 0.84819 0.67057 0.0
N44 N 0.34351 0.84421 0.66121 0.0
N45 N 0.33705 0.82638 0.6414 0.0
C46 C 0.33676 0.88107 0.70245 0.0
H47 H 0.34794 0.88678 0.69838 0.0
H48 H 0.33488 0.87757 0.73407 0.0
H49 H 0.32955 0.89628 0.69317 0.0
C50 C 0.39083 0.84151 0.74609 0.0
N51 N 0.3863 0.84721 0.70977 0.0
N52 N 0.37253 0.84378 0.70782 0.0
C53 C 0.36795 0.83486 0.74257 0.0
C54 C 0.3794 0.83324 0.76812 0.0
C55 C 0.40591 0.8437 0.75897 0.0
H56 H 0.4102 0.86191 0.74946 0.0
H57 H 0.40696 0.84231 0.79131 0.0
H58 H 0.41225 0.82882 0.74481 0.0
O59 O 0.39394 0.82568 0.62517 0.0
O60 O 0.37055 0.82374 0.62088 0.0
H61 H 0.34921 0.81648 0.72165 0.0
H62 H 0.35349 0.80985 0.77206 0.0
C63 C 0.35343 0.82452 0.74918 0.0
H64 H 0.34632 0.83971 0.75893 0.0
H65 H 0.34224 0.8132 0.62414 0.0
O66 O 0.41727 0.8553 0.67379 0.0
C67 C 0.38275 0.81618 0.61067 0.0
Co68 Co 0.10441 0.85552 0.83573 0.0
Co69 Co 0.13744 0.84868 0.83581 0.0
C70 C 0.12341 0.89443 0.86905 0.0
O71 O 0.11114 0.88643 0.86046 0.0
O72 O 0.13445 0.88188 0.86075 0.0
C73 C 0.07708 0.87851 0.82443 0.0
O74 O 0.08426 0.89943 0.82542 0.0
C75 C 0.16669 0.85813 0.80942 0.0
C76 C 0.17825 0.82806 0.83983 0.0
C77 C 0.18011 0.84832 0.81528 0.0
N78 N 0.15735 0.84419 0.82949 0.0
N79 N 0.16434 0.82624 0.84755 0.0
C80 C 0.16288 0.88138 0.78773 0.0
H81 H 0.15209 0.88765 0.79582 0.0
H82 H 0.16313 0.87775 0.75572 0.0
H83 H 0.1707 0.89625 0.79415 0.0
C84 C 0.10853 0.84392 0.75181 0.0
N85 N 0.1138 0.84921 0.78754 0.0
N86 N 0.12752 0.84506 0.78754 0.0
C87 C 0.13132 0.83605 0.75211 0.0
C88 C 0.11941 0.83519 0.72814 0.0
C89 C 0.09326 0.8467 0.74113 0.0
H90 H 0.08935 0.86498 0.7516 0.0
H91 H 0.09162 0.84556 0.70895 0.0
H92 H 0.08703 0.83192 0.75587 0.0
O93 O 0.10759 0.82761 0.87312 0.0
O94 O 0.13091 0.82267 0.8724 0.0
H95 H 0.15001 0.81647 0.77055 0.0
H96 H 0.14458 0.80982 0.72099 0.0
C97 C 0.14544 0.82464 0.74355 0.0
H98 H 0.15269 0.8392 0.73241 0.0
H99 H 0.15964 0.81292 0.86552 0.0
O100 O 0.08364 0.85795 0.82771 0.0
C101 C 0.11871 0.81644 0.88475 0.0
Co102 Co 0.3971 0.14582 0.335 0.0
Co103 Co 0.36389 0.14775 0.33649 0.0
C104 C 0.37906 0.10409 0.36832 0.0
O105 O 0.39093 0.11412 0.36022 0.0
O106 O 0.36744 0.1148 0.35987 0.0
C107 C 0.42386 0.12473 0.31145 0.0
O108 O 0.4163 0.10513 0.3019 0.0
C109 C 0.33285 0.13962 0.32375 0.0
C110 C 0.32547 0.17841 0.33028 0.0
C111 C 0.32077 0.15444 0.32301 0.0
N112 N 0.34411 0.15436 0.33087 0.0
N113 N 0.33955 0.17746 0.33478 0.0
C114 C 0.33365 0.11197 0.3191 0.0
H115 H 0.34315 0.10447 0.3339 0.0
H116 H 0.33439 0.10734 0.28744 0.0
H117 H 0.32404 0.10297 0.33124 0.0
C118 C 0.39185 0.15942 0.25199 0.0
N119 N 0.38728 0.15211 0.2876 0.0
N120 N 0.37337 0.15162 0.28771 0.0
C121 C 0.36864 0.1578 0.25173 0.0
C122 C 0.38017 0.16325 0.22787 0.0
C123 C 0.40693 0.16582 0.24324 0.0
H124 H 0.41207 0.17371 0.26971 0.0
H125 H 0.41267 0.14863 0.23475 0.0
H126 H 0.40777 0.17952 0.21903 0.0
O127 O 0.394 0.17351 0.37195 0.0
O128 O 0.37056 0.17335 0.3744 0.0
H129 H 0.3484 0.17548 0.25298 0.0
H130 H 0.35195 0.15843 0.20825 0.0
C131 C 0.35334 0.15849 0.24057 0.0
H132 H 0.34788 0.14204 0.25292 0.0
H133 H 0.34611 0.19267 0.3405 0.0
O134 O 0.41772 0.14376 0.32558 0.0
C135 C 0.38244 0.18204 0.38546 0.0
Co136 Co 0.89758 0.85536 0.83526 0.0
Co137 Co 0.86464 0.84724 0.83543 0.0
C138 C 0.87771 0.89413 0.86656 0.0
O139 O 0.89009 0.88627 0.85858 0.0
O140 O 0.86677 0.88115 0.85874 0.0
C141 C 0.92483 0.87919 0.82418 0.0
O142 O 0.91765 0.90011 0.82549 0.0
C143 C 0.83468 0.85355 0.81206 0.0
C144 C 0.82626 0.81621 0.82587 0.0
C145 C 0.82258 0.839 0.80991 0.0
N146 N 0.84506 0.83984 0.82828 0.0
N147 N 0.83987 0.81769 0.83699 0.0
C148 C 0.83676 0.87915 0.79592 0.0
H149 H 0.84817 0.8829 0.79108 0.0
H150 H 0.83083 0.88138 0.76803 0.0
H151 H 0.83262 0.89292 0.8173 0.0
C152 C 0.89366 0.84312 0.7514 0.0
N153 N 0.8884 0.84796 0.78729 0.0
N154 N 0.87468 0.84383 0.78721 0.0
C155 C 0.87083 0.83559 0.75135 0.0
C156 C 0.88274 0.83495 0.72735 0.0
C157 C 0.90892 0.84609 0.74073 0.0
H158 H 0.91271 0.86452 0.75085 0.0
H159 H 0.9106 0.84469 0.7086 0.0
H160 H 0.91523 0.83157 0.75588 0.0
O161 O 0.89497 0.82785 0.87345 0.0
O162 O 0.87172 0.82242 0.87346 0.0
H163 H 0.85289 0.81321 0.76631 0.0
H164 H 0.85647 0.81421 0.71464 0.0
C165 C 0.85649 0.82533 0.74203 0.0
H166 H 0.8489 0.84092 0.73889 0.0
H167 H 0.84576 0.80326 0.84932 0.0
O168 O 0.91829 0.8586 0.82724 0.0
C169 C 0.88398 0.81665 0.88584 0.0
Co170 Co 0.6029 0.14484 0.33259 0.0
Co171 Co 0.63611 0.14544 0.3336 0.0
C172 C 0.62046 0.10226 0.36519 0.0
O173 O 0.60871 0.11281 0.35741 0.0
O174 O 0.63219 0.11252 0.35657 0.0
C175 C 0.57602 0.12454 0.309 0.0
O176 O 0.5835 0.10491 0.29913 0.0
C177 C 0.6669 0.13603 0.31921 0.0
C178 C 0.67511 0.17393 0.32995 0.0
C179 C 0.67927 0.15005 0.31998 0.0
N180 N 0.65597 0.15114 0.32812 0.0
N181 N 0.66102 0.1737 0.33451 0.0
C182 C 0.66553 0.10872 0.31157 0.0
H183 H 0.65576 0.10127 0.32505 0.0
H184 H 0.66494 0.10549 0.27946 0.0
H185 H 0.67488 0.09861 0.32312 0.0
C186 C 0.60815 0.1595 0.25012 0.0
N187 N 0.6127 0.1511 0.28515 0.0
N188 N 0.6266 0.15017 0.28502 0.0
C189 C 0.63133 0.1572 0.24943 0.0
C190 C 0.61982 0.16366 0.22613 0.0
C191 C 0.59314 0.16688 0.24224 0.0
H192 H 0.58829 0.17458 0.26925 0.0
H193 H 0.58705 0.15015 0.23334 0.0
H194 H 0.5924 0.18101 0.21864 0.0
O195 O 0.6064 0.17226 0.36986 0.0
O196 O 0.62983 0.17104 0.37198 0.0
H197 H 0.65164 0.17456 0.25273 0.0
H198 H 0.64802 0.1597 0.20612 0.0
C199 C 0.64663 0.15826 0.23836 0.0
H200 H 0.65202 0.14121 0.24873 0.0
H201 H 0.65481 0.18904 0.34203 0.0
O202 O 0.58225 0.14342 0.32335 0.0
C203 C 0.61811 0.18019 0.38333 0.0
Co204 Co 0.89701 0.14461 0.15983 0.0
Co205 Co 0.86391 0.14783 0.16187 0.0
C206 C 0.87782 0.10376 0.12783 0.0
O207 O 0.8899 0.11341 0.13473 0.0
O208 O 0.86644 0.11474 0.13782 0.0
C209 C 0.92378 0.12174 0.17867 0.0
O210 O 0.91611 0.10197 0.18649 0.0
C211 C 0.83349 0.14042 0.18071 0.0
C212 C 0.8264 0.17962 0.18135 0.0
C213 C 0.82187 0.15551 0.18815 0.0
N214 N 0.84443 0.15511 0.17049 0.0
N215 N 0.84001 0.17844 0.17026 0.0
C216 C 0.83463 0.11297 0.18713 0.0
H217 H 0.84581 0.10754 0.19211 0.0
H218 H 0.82804 0.10716 0.21248 0.0
H219 H 0.8307 0.10316 0.16062 0.0
C220 C 0.8932 0.15827 0.24342 0.0
N221 N 0.88803 0.15109 0.20834 0.0
N222 N 0.87414 0.15097 0.2098 0.0
C223 C 0.87002 0.15717 0.24638 0.0
C224 C 0.88194 0.1624 0.26886 0.0
C225 C 0.90846 0.1642 0.25045 0.0
H226 H 0.91324 0.17217 0.22353 0.0
H227 H 0.91418 0.14677 0.25775 0.0
H228 H 0.90982 0.17763 0.27487 0.0
O229 O 0.89378 0.17271 0.12383 0.0
O230 O 0.87033 0.17342 0.12353 0.0
H231 H 0.84977 0.17487 0.24797 0.0
H232 H 0.85414 0.15793 0.29214 0.0
C233 C 0.85494 0.15791 0.25966 0.0
H234 H 0.84928 0.14138 0.24834 0.0
H235 H 0.84647 0.19368 0.164 0.0
O236 O 0.91771 0.14154 0.16718 0.0
C237 C 0.88217 0.18176 0.11154 0.0
Co238 Co 0.60307 0.85347 0.66494 0.0
Co239 Co 0.63637 0.85192 0.66362 0.0
C240 C 0.6211 0.89573 0.63284 0.0
O241 O 0.60927 0.8854 0.64058 0.0
O242 O 0.63278 0.88517 0.64119 0.0
C243 C 0.57604 0.87499 0.68517 0.0
O244 O 0.58338 0.89542 0.69104 0.0
C245 C 0.66751 0.85946 0.67669 0.0
C246 C 0.6746 0.82051 0.67002 0.0
C247 C 0.67948 0.84433 0.67751 0.0
N248 N 0.65614 0.84501 0.66932 0.0
N249 N 0.66053 0.82181 0.66532 0.0
C250 C 0.6669 0.88711 0.68148 0.0
H251 H 0.65747 0.89483 0.66657 0.0
H252 H 0.66613 0.89167 0.71316 0.0
H253 H 0.6766 0.89591 0.66952 0.0
C254 C 0.60827 0.83921 0.74752 0.0
N255 N 0.61288 0.84679 0.71211 0.0
N256 N 0.62679 0.84738 0.71215 0.0
C257 C 0.63148 0.84097 0.74808 0.0
C258 C 0.61992 0.83529 0.7717 0.0
C259 C 0.59317 0.83278 0.75597 0.0
H260 H 0.58815 0.8247 0.72947 0.0
H261 H 0.58736 0.85 0.76392 0.0
H262 H 0.59225 0.81924 0.78037 0.0
O263 O 0.60628 0.8263 0.62715 0.0
O264 O 0.62971 0.82697 0.62462 0.0
H265 H 0.65177 0.82345 0.74698 0.0
H266 H 0.64809 0.84032 0.79178 0.0
C267 C 0.64676 0.84037 0.75944 0.0
H268 H 0.6522 0.8569 0.74729 0.0
H269 H 0.65387 0.80677 0.65944 0.0
O270 O 0.58241 0.8553 0.6744 0.0
C271 C 0.61789 0.81825 0.61322 0.0
Co272 Co 0.60256 0.64436 0.16126 0.0
Co273 Co 0.63568 0.64627 0.16324 0.0
C274 C 0.62127 0.60226 0.13109 0.0
O275 O 0.60935 0.61258 0.13764 0.0
O276 O 0.63283 0.61286 0.14055 0.0
C277 C 0.57586 0.62304 0.18411 0.0
O278 O 0.58362 0.60445 0.19689 0.0
C279 C 0.66619 0.63922 0.18221 0.0
C280 C 0.67317 0.67847 0.18054 0.0
C281 C 0.67777 0.65458 0.1886 0.0
N282 N 0.65519 0.65358 0.17134 0.0
N283 N 0.65955 0.67691 0.16974 0.0
C284 C 0.66517 0.61191 0.19006 0.0
H285 H 0.654 0.60637 0.19482 0.0
H286 H 0.67165 0.60681 0.21601 0.0
H287 H 0.66933 0.60161 0.1643 0.0
C288 C 0.60653 0.65972 0.24397 0.0
N289 N 0.6116 0.65133 0.20946 0.0
N290 N 0.62549 0.65062 0.21099 0.0
C291 C 0.62968 0.65765 0.24712 0.0
C292 C 0.61784 0.66406 0.26913 0.0
C293 C 0.59139 0.66681 0.25038 0.0
H294 H 0.58669 0.67373 0.22265 0.0
H295 H 0.58539 0.65012 0.25988 0.0
H296 H 0.59033 0.68143 0.27317 0.0
O297 O 0.60604 0.67178 0.12417 0.0
O298 O 0.62949 0.67129 0.12385 0.0
H299 H 0.65004 0.675 0.24738 0.0
H300 H 0.64558 0.65946 0.29271 0.0
C301 C 0.64477 0.65848 0.26026 0.0
H302 H 0.65033 0.64154 0.25009 0.0
H303 H 0.65304 0.69196 0.16274 0.0
O304 O 0.58187 0.64171 0.16843 0.0
C305 C 0.61779 0.68001 0.11151 0.0
Co306 Co 0.89756 0.35203 0.6603 0.0
Co307 Co 0.86445 0.34922 0.66199 0.0
C308 C 0.87855 0.39323 0.62861 0.0
O309 O 0.89058 0.3834 0.63554 0.0
O310 O 0.86711 0.38235 0.63831 0.0
C311 C 0.92393 0.37427 0.68343 0.0
O312 O 0.91588 0.39281 0.69495 0.0
C313 C 0.83402 0.3568 0.68048 0.0
C314 C 0.82688 0.31763 0.6812 0.0
C315 C 0.82238 0.34177 0.6879 0.0
N316 N 0.84495 0.34205 0.67038 0.0
N317 N 0.8405 0.31875 0.67019 0.0
C318 C 0.83518 0.38427 0.68683 0.0
H319 H 0.84636 0.38967 0.69193 0.0
H320 H 0.82856 0.39016 0.71207 0.0
H321 H 0.83132 0.39403 0.66023 0.0
C322 C 0.89356 0.33816 0.74381 0.0
N323 N 0.88849 0.34545 0.70868 0.0
N324 N 0.8746 0.34586 0.70999 0.0
C325 C 0.87039 0.33979 0.74654 0.0
C326 C 0.88224 0.33431 0.76914 0.0
C327 C 0.90876 0.33186 0.75108 0.0
H328 H 0.91367 0.32449 0.72391 0.0
H329 H 0.9145 0.34899 0.75988 0.0
H330 H 0.90989 0.31781 0.77469 0.0
O331 O 0.89433 0.32409 0.62394 0.0
O332 O 0.87087 0.3237 0.62346 0.0
H333 H 0.85 0.32261 0.74818 0.0
H334 H 0.85446 0.33968 0.79218 0.0
C335 C 0.8553 0.33951 0.75971 0.0
H336 H 0.84978 0.35612 0.74816 0.0
H337 H 0.84695 0.30347 0.66404 0.0
O338 O 0.91824 0.35521 0.66801 0.0
C339 C 0.88269 0.31525 0.61146 0.0
Co340 Co 0.60313 0.35315 0.83164 0.0
Co341 Co 0.63636 0.35253 0.83141 0.0
C342 C 0.62094 0.39587 0.86307 0.0
O343 O 0.60914 0.38527 0.8559 0.0
O344 O 0.63262 0.3856 0.85405 0.0
C345 C 0.57619 0.37344 0.80865 0.0
O346 O 0.5837 0.39277 0.7976 0.0
C347 C 0.66718 0.36154 0.81672 0.0
C348 C 0.67516 0.32335 0.82614 0.0
C349 C 0.67946 0.34728 0.81696 0.0
N350 N 0.65616 0.34654 0.82522 0.0
N351 N 0.66107 0.3238 0.83077 0.0
C352 C 0.66601 0.38898 0.81 0.0
H353 H 0.65632 0.39649 0.82383 0.0
H354 H 0.66541 0.39262 0.77801 0.0
H355 H 0.67545 0.39873 0.8218 0.0
C356 C 0.60799 0.33883 0.74868 0.0
N357 N 0.6127 0.34668 0.78389 0.0
N358 N 0.6266 0.34763 0.78328 0.0
C359 C 0.63117 0.34117 0.74726 0.0
C360 C 0.61955 0.33509 0.72411 0.0
C361 C 0.59291 0.33192 0.74077 0.0
H362 H 0.58798 0.32429 0.76771 0.0
H363 H 0.58699 0.34884 0.73194 0.0
H364 H 0.59207 0.31788 0.71704 0.0
O365 O 0.60679 0.32601 0.86927 0.0
O366 O 0.63022 0.32738 0.87062 0.0
H367 H 0.65162 0.32423 0.74838 0.0
H368 H 0.64761 0.34031 0.70306 0.0
C369 C 0.6464 0.34079 0.73542 0.0
H370 H 0.65174 0.35766 0.74678 0.0
H371 H 0.65477 0.30851 0.83787 0.0
O372 O 0.58243 0.35468 0.82334 0.0
C373 C 0.61856 0.3183 0.8826 0.0
Co374 Co 0.89678 0.64333 0.3357 0.0
Co375 Co 0.86373 0.6491 0.33619 0.0
C376 C 0.87781 0.60363 0.36853 0.0
O377 O 0.88999 0.61212 0.35987 0.0
O378 O 0.86661 0.61589 0.36079 0.0
C379 C 0.92358 0.62032 0.31768 0.0
O380 O 0.91604 0.60005 0.31246 0.0
C381 C 0.83319 0.64109 0.31851 0.0
C382 C 0.82489 0.67851 0.33236 0.0
C383 C 0.82081 0.6551 0.31968 0.0
N384 N 0.84401 0.65575 0.32982 0.0
N385 N 0.83893 0.67804 0.33803 0.0
C386 C 0.83469 0.61416 0.3082 0.0
H387 H 0.84447 0.6063 0.32107 0.0
H388 H 0.83538 0.61225 0.27585 0.0
H389 H 0.82537 0.60347 0.31857 0.0
C390 C 0.89244 0.65655 0.25233 0.0
N391 N 0.88736 0.65008 0.28781 0.0
N392 N 0.87351 0.6524 0.28775 0.0
C393 C 0.86935 0.66057 0.25218 0.0
C394 C 0.8812 0.66342 0.22854 0.0
C395 C 0.90786 0.65937 0.24344 0.0
H396 H 0.91298 0.67055 0.26683 0.0
H397 H 0.91288 0.64071 0.24322 0.0
H398 H 0.90969 0.66845 0.21467 0.0
O399 O 0.89393 0.67097 0.37341 0.0
O400 O 0.87058 0.67494 0.37302 0.0
H401 H 0.85097 0.6831 0.26066 0.0
H402 H 0.8534 0.67261 0.21063 0.0
C403 C 0.85445 0.66735 0.24197 0.0
H404 H 0.84744 0.65128 0.24791 0.0
H405 H 0.84507 0.693 0.3476 0.0
O406 O 0.9174 0.64046 0.32712 0.0
C407 C 0.88271 0.68165 0.38528 0.0
Co408 Co 0.3971 0.35271 0.83725 0.0
Co409 Co 0.36398 0.35043 0.83417 0.0
C410 C 0.37808 0.39428 0.86794 0.0
O411 O 0.39009 0.38423 0.86157 0.0
O412 O 0.36662 0.38359 0.85775 0.0
C413 C 0.42395 0.37412 0.81539 0.0
O414 O 0.4163 0.39302 0.80325 0.0
C415 C 0.33353 0.35761 0.8149 0.0
C416 C 0.32668 0.31828 0.81383 0.0
C417 C 0.32201 0.34232 0.80722 0.0
N418 N 0.34454 0.34309 0.82508 0.0
N419 N 0.34026 0.31969 0.82503 0.0
C420 C 0.33448 0.38513 0.80888 0.0
H421 H 0.34563 0.39083 0.80415 0.0
H422 H 0.3279 0.39092 0.78352 0.0
H423 H 0.33044 0.39469 0.83548 0.0
C424 C 0.39347 0.33866 0.75367 0.0
N425 N 0.38827 0.34614 0.78856 0.0
N426 N 0.37438 0.34678 0.78667 0.0
C427 C 0.37033 0.34069 0.75 0.0
C428 C 0.38226 0.33493 0.72792 0.0
C429 C 0.40867 0.33209 0.74705 0.0
H430 H 0.41339 0.32467 0.77443 0.0
H431 H 0.41455 0.34911 0.73849 0.0
H432 H 0.40985 0.31799 0.72349 0.0
O433 O 0.39354 0.32493 0.87362 0.0
O434 O 0.37009 0.32509 0.87322 0.0
H435 H 0.34989 0.32373 0.74732 0.0
H436 H 0.35464 0.34092 0.70373 0.0
C437 C 0.3553 0.34062 0.73622 0.0
H438 H 0.34977 0.35724 0.74777 0.0
H439 H 0.34681 0.30454 0.83121 0.0
O440 O 0.41784 0.35538 0.83053 0.0
C441 C 0.38178 0.31643 0.88576 0.0
Co442 Co 0.10262 0.64389 0.33498 0.0
Co443 Co 0.13561 0.6506 0.33505 0.0
C444 C 0.12185 0.60504 0.36853 0.0
O445 O 0.10959 0.61316 0.35993 0.0
O446 O 0.13294 0.61744 0.36015 0.0
C447 C 0.07568 0.62023 0.32094 0.0
O448 O 0.08312 0.59962 0.31901 0.0
C449 C 0.16585 0.64268 0.31485 0.0
C450 C 0.17485 0.67843 0.33495 0.0
C451 C 0.17849 0.6558 0.31827 0.0
N452 N 0.15532 0.65704 0.32887 0.0
N453 N 0.16081 0.67836 0.34073 0.0
C454 C 0.16381 0.61663 0.30046 0.0
H455 H 0.15369 0.60887 0.31136 0.0
H456 H 0.16345 0.61669 0.26793 0.0
H457 H 0.17275 0.60466 0.3099 0.0
C458 C 0.10684 0.6554 0.25084 0.0
N459 N 0.11199 0.65023 0.28675 0.0
N460 N 0.12577 0.65365 0.2867 0.0
C461 C 0.12979 0.66175 0.25095 0.0
C462 C 0.11791 0.66306 0.2269 0.0
C463 C 0.09153 0.65346 0.24017 0.0
H464 H 0.08746 0.63499 0.2492 0.0
H465 H 0.08981 0.65564 0.20817 0.0
H466 H 0.08546 0.6679 0.25627 0.0
O467 O 0.10541 0.67194 0.37231 0.0
O468 O 0.12873 0.67636 0.3716 0.0
H469 H 0.14795 0.68344 0.26653 0.0
H470 H 0.14452 0.68259 0.21467 0.0
C471 C 0.14427 0.6715 0.24205 0.0
H472 H 0.1517 0.65564 0.23917 0.0
H473 H 0.15497 0.69287 0.35305 0.0
O474 O 0.08196 0.64081 0.32684 0.0
C475 C 0.1166 0.68288 0.38395 0.0
Co476 Co 0.39694 0.64392 0.1599 0.0
Co477 Co 0.36391 0.64781 0.16476 0.0
C478 C 0.37738 0.60286 0.13147 0.0
O479 O 0.38955 0.61227 0.13779 0.0
O480 O 0.3661 0.61442 0.14088 0.0
C481 C 0.42369 0.6221 0.18108 0.0
O482 O 0.41593 0.60374 0.19464 0.0
C483 C 0.33347 0.64114 0.18447 0.0
C484 C 0.32697 0.68061 0.18771 0.0
C485 C 0.32209 0.65656 0.19293 0.0
N486 N 0.34461 0.65558 0.17507 0.0
N487 N 0.34055 0.67908 0.17649 0.0
C488 C 0.33418 0.61348 0.18881 0.0
H489 H 0.3452 0.60749 0.19479 0.0
H490 H 0.32709 0.6071 0.21275 0.0
H491 H 0.33064 0.6047 0.16101 0.0
C492 C 0.39413 0.65883 0.24339 0.0
N493 N 0.38857 0.65144 0.20888 0.0
N494 N 0.3747 0.65118 0.21163 0.0
C495 C 0.371 0.65744 0.24851 0.0
C496 C 0.38316 0.6629 0.26983 0.0
C497 C 0.40945 0.66489 0.2491 0.0
H498 H 0.41408 0.67184 0.22132 0.0
H499 H 0.41517 0.64775 0.25789 0.0
H500 H 0.41094 0.67919 0.27221 0.0
O501 O 0.39328 0.67088 0.12214 0.0
O502 O 0.36991 0.67333 0.1259 0.0
H503 H 0.35081 0.67513 0.25316 0.0
H504 H 0.35571 0.65706 0.29572 0.0
C505 C 0.35609 0.65784 0.26321 0.0
H506 H 0.35024 0.64166 0.25132 0.0
H507 H 0.34722 0.69417 0.17106 0.0
O508 O 0.41768 0.64075 0.1654 0.0
C509 C 0.38163 0.68064 0.11162 0.0
Co510 Co 0.10251 0.35699 0.66302 0.0
Co511 Co 0.13564 0.35195 0.66361 0.0
C512 C 0.12164 0.39774 0.63332 0.0
O513 O 0.10944 0.38894 0.64106 0.0
O514 O 0.13284 0.38547 0.64085 0.0
C515 C 0.07579 0.37846 0.68628 0.0
O516 O 0.08348 0.39748 0.69774 0.0
C517 C 0.16639 0.35931 0.68033 0.0
C518 C 0.17408 0.32114 0.66909 0.0
C519 C 0.17854 0.3447 0.67996 0.0
N520 N 0.1553 0.34486 0.67033 0.0
N521 N 0.16003 0.32211 0.66369 0.0
C522 C 0.16539 0.38659 0.6887 0.0
H523 H 0.15582 0.39467 0.67509 0.0
H524 H 0.16468 0.38946 0.72087 0.0
H525 H 0.17494 0.39641 0.67778 0.0
C526 C 0.10658 0.34021 0.74503 0.0
N527 N 0.11172 0.34856 0.71059 0.0
N528 N 0.12562 0.34778 0.71149 0.0
C529 C 0.12979 0.33958 0.74699 0.0
C530 C 0.11788 0.33422 0.76941 0.0
C531 C 0.09126 0.33461 0.75191 0.0
H532 H 0.08638 0.32741 0.7246 0.0
H533 H 0.08574 0.35204 0.76027 0.0
H534 H 0.08977 0.32068 0.77551 0.0
O535 O 0.10557 0.33063 0.6237 0.0
O536 O 0.12893 0.32691 0.62482 0.0
H537 H 0.14935 0.31976 0.74361 0.0
H538 H 0.14602 0.33389 0.79093 0.0
C539 C 0.14492 0.33629 0.75875 0.0
H540 H 0.15108 0.35284 0.74972 0.0
H541 H 0.15364 0.30719 0.65533 0.0
O542 O 0.08184 0.35967 0.67108 0.0
C543 C 0.11689 0.32041 0.61159 0.0
C544 C 0.19783 0.16956 0.23229 0.0
C545 C 0.19182 0.15139 0.20798 0.0
C546 C 0.21135 0.16629 0.24766 0.0
C547 C 0.24054 0.12067 0.26254 0.0
H548 H 0.26276 0.18131 0.26578 0.0
C549 C 0.30199 0.12966 0.28761 0.0
C550 C 0.30581 0.14788 0.31532 0.0
C551 C 0.28778 0.12652 0.27683 0.0
C552 C 0.25666 0.16424 0.26524 0.0
H553 H 0.19494 0.11527 0.18126 0.0
H554 H 0.21895 0.10981 0.20704 0.0
H555 H 0.23863 0.18274 0.24185 0.0
H556 H 0.29771 0.17622 0.35468 0.0
H557 H 0.2731 0.17099 0.33545 0.0
H558 H 0.25907 0.10224 0.28497 0.0
C559 C 0.21309 0.12635 0.21506 0.0
C560 C 0.24278 0.16504 0.25178 0.0
C561 C 0.19936 0.12945 0.20023 0.0
C562 C 0.29513 0.16213 0.33309 0.0
C563 C 0.28104 0.15914 0.32215 0.0
C564 C 0.25461 0.11983 0.27558 0.0
C565 C 0.21936 0.14506 0.23822 0.0
C566 C 0.2344 0.14341 0.25098 0.0
C567 C 0.27728 0.1418 0.29321 0.0
C568 C 0.26267 0.14174 0.27768 0.0
H569 H 0.19212 0.1865 0.23909 0.0
H570 H 0.21561 0.18072 0.26644 0.0
H571 H 0.23441 0.10365 0.26237 0.0
H572 H 0.30995 0.11883 0.27256 0.0
H573 H 0.28512 0.11319 0.25415 0.0
C574 C 0.20589 0.85628 0.82342 0.0
C575 C 0.19385 0.85664 0.79933 0.0
C576 C 0.21924 0.86134 0.80783 0.0
C577 C 0.23874 0.85419 0.71721 0.0
H578 H 0.26742 0.89419 0.76856 0.0
C579 C 0.29518 0.8573 0.65592 0.0
C580 C 0.30626 0.85654 0.68323 0.0
C581 C 0.28136 0.86223 0.66807 0.0
C582 C 0.25958 0.88277 0.75401 0.0
H583 H 0.18629 0.86251 0.74004 0.0
H584 H 0.20969 0.87119 0.71262 0.0
H585 H 0.24325 0.89409 0.79392 0.0
H586 H 0.31167 0.86034 0.74464 0.0
H587 H 0.28751 0.86827 0.76626 0.0
H588 H 0.25501 0.84171 0.67864 0.0
C589 C 0.20874 0.86736 0.74371 0.0
C590 C 0.24572 0.88285 0.76843 0.0
C591 C 0.19534 0.86267 0.75947 0.0
C592 C 0.30337 0.86141 0.72285 0.0
C593 C 0.28948 0.86593 0.73519 0.0
C594 C 0.25259 0.85383 0.70312 0.0
C595 C 0.22085 0.86638 0.76764 0.0
C596 C 0.2352 0.86836 0.75039 0.0
C597 C 0.27824 0.86592 0.70803 0.0
C598 C 0.26327 0.86791 0.72154 0.0
H599 H 0.20501 0.85157 0.85423 0.0
H600 H 0.22839 0.86017 0.82688 0.0
H601 H 0.2309 0.84251 0.70311 0.0
H602 H 0.29717 0.8537 0.62513 0.0
H603 H 0.27309 0.86267 0.64612 0.0
C604 C 0.70508 0.83581 0.66794 0.0
C605 C 0.69451 0.85045 0.68544 0.0
C606 C 0.71918 0.83837 0.67905 0.0
C607 C 0.7459 0.87722 0.72572 0.0
H608 H 0.76168 0.81391 0.75825 0.0
C609 C 0.80138 0.86648 0.79964 0.0
C610 C 0.80884 0.84452 0.79128 0.0
C611 C 0.78759 0.8698 0.78531 0.0
C612 C 0.75759 0.83172 0.74867 0.0
H613 H 0.69061 0.87975 0.72795 0.0
H614 H 0.71546 0.88464 0.74665 0.0
H615 H 0.7375 0.8158 0.73474 0.0
H616 H 0.80826 0.8096 0.75967 0.0
H617 H 0.78466 0.81575 0.73328 0.0
H618 H 0.7662 0.89305 0.73887 0.0
C619 C 0.7127 0.87131 0.72405 0.0
C620 C 0.74367 0.83279 0.73543 0.0
C621 C 0.69848 0.86861 0.7131 0.0
C622 C 0.80263 0.82656 0.76694 0.0
C623 C 0.78905 0.83003 0.75211 0.0
C624 C 0.75999 0.87612 0.73855 0.0
C625 C 0.72309 0.85568 0.70791 0.0
C626 C 0.73773 0.85544 0.72339 0.0
C627 C 0.78115 0.8513 0.76208 0.0
C628 C 0.76606 0.85323 0.74967 0.0
H629 H 0.7024 0.82175 0.64639 0.0
H630 H 0.72702 0.82626 0.66587 0.0
H631 H 0.74151 0.89493 0.71663 0.0
H632 H 0.80592 0.88049 0.81868 0.0
H633 H 0.78182 0.88635 0.79375 0.0
C634 C 0.69746 0.1265 0.28057 0.0
C635 C 0.69405 0.14285 0.31139 0.0
C636 C 0.71158 0.12331 0.26899 0.0
C637 C 0.74358 0.16002 0.26543 0.0
H638 H 0.76417 0.09889 0.24551 0.0
C639 C 0.80251 0.16382 0.23527 0.0
C640 C 0.80803 0.14894 0.20516 0.0
C641 C 0.7889 0.15977 0.24936 0.0
C642 C 0.75849 0.1161 0.25053 0.0
H643 H 0.70273 0.16749 0.35563 0.0
H644 H 0.72721 0.16202 0.3354 0.0
H645 H 0.73954 0.09703 0.26839 0.0
H646 H 0.80387 0.11766 0.16679 0.0
H647 H 0.77969 0.11089 0.1908 0.0
H648 H 0.7621 0.17926 0.24699 0.0
C649 C 0.71903 0.15181 0.32002 0.0
C650 C 0.74444 0.115 0.26369 0.0
C651 C 0.70502 0.15491 0.33159 0.0
C652 C 0.79985 0.12927 0.19025 0.0
C653 C 0.78604 0.12541 0.20403 0.0
C654 C 0.75746 0.16112 0.25202 0.0
C655 C 0.72241 0.13662 0.28785 0.0
C656 C 0.73699 0.13701 0.27198 0.0
C657 C 0.7803 0.14108 0.23309 0.0
C658 C 0.76522 0.13923 0.24519 0.0
H659 H 0.68925 0.11736 0.26383 0.0
H660 H 0.71393 0.11164 0.2439 0.0
H661 H 0.73796 0.17728 0.27064 0.0
H662 H 0.8087 0.17886 0.24768 0.0
H663 H 0.785 0.1717 0.27261 0.0
C664 C 0.69707 0.6639 0.23541 0.0
C665 C 0.69168 0.64856 0.20569 0.0
C666 C 0.7108 0.66063 0.24914 0.0
C667 C 0.74197 0.61865 0.24968 0.0
H668 H 0.76149 0.68104 0.26839 0.0
C669 C 0.80286 0.632 0.27853 0.0
C670 C 0.80607 0.64816 0.30979 0.0
C671 C 0.7888 0.62848 0.2667 0.0
C672 C 0.75616 0.66345 0.26353 0.0
H673 H 0.69615 0.61722 0.16775 0.0
H674 H 0.72054 0.61184 0.19108 0.0
H675 H 0.73721 0.68157 0.24556 0.0
H676 H 0.79705 0.67238 0.35413 0.0
H677 H 0.77268 0.66642 0.33327 0.0
H678 H 0.76134 0.60074 0.26705 0.0
C679 C 0.71402 0.62612 0.20428 0.0
C680 C 0.7422 0.66372 0.25062 0.0
C681 C 0.70009 0.62918 0.1909 0.0
C682 C 0.79494 0.65994 0.32979 0.0
C683 C 0.78099 0.65655 0.31788 0.0
C684 C 0.7561 0.61841 0.2623 0.0
C685 C 0.71963 0.6423 0.23284 0.0
C686 C 0.7348 0.64137 0.24435 0.0
C687 C 0.7778 0.6413 0.28563 0.0
C688 C 0.76319 0.64086 0.27007 0.0
H689 H 0.6907 0.67875 0.24769 0.0
H690 H 0.71459 0.67292 0.27204 0.0
H691 H 0.73658 0.60111 0.24509 0.0
H692 H 0.81116 0.62315 0.2618 0.0
H693 H 0.7866 0.6168 0.2415 0.0
C694 C 0.80301 0.33365 0.73507 0.0
C695 C 0.80854 0.34842 0.70486 0.0
C696 C 0.78938 0.33772 0.74906 0.0
C697 C 0.75892 0.38124 0.7497 0.0
H698 H 0.73842 0.31997 0.76929 0.0
C699 C 0.69784 0.37094 0.77845 0.0
C700 C 0.69429 0.35437 0.80882 0.0
C701 C 0.712 0.37411 0.76729 0.0
C702 C 0.74403 0.33726 0.76426 0.0
H703 H 0.8044 0.37956 0.66626 0.0
H704 H 0.7802 0.38638 0.6901 0.0
H705 H 0.76263 0.31809 0.74621 0.0
H706 H 0.70276 0.3293 0.85273 0.0
H707 H 0.72732 0.33478 0.83331 0.0
H708 H 0.73989 0.40023 0.76717 0.0
C709 C 0.78655 0.37192 0.70347 0.0
C710 C 0.75794 0.33621 0.75116 0.0
C711 C 0.80037 0.36803 0.68978 0.0
C712 C 0.70516 0.34205 0.82902 0.0
C713 C 0.71922 0.34516 0.8179 0.0
C714 C 0.74483 0.38228 0.76257 0.0
C715 C 0.78079 0.35634 0.73259 0.0
C716 C 0.76569 0.35813 0.74448 0.0
C717 C 0.72275 0.36057 0.78614 0.0
C718 C 0.73738 0.36024 0.77068 0.0
H719 H 0.80919 0.31865 0.7476 0.0
H720 H 0.78547 0.32586 0.77234 0.0
H721 H 0.76459 0.39846 0.74478 0.0
H722 H 0.6897 0.38029 0.76175 0.0
H723 H 0.71446 0.38597 0.74253 0.0
C724 C 0.19691 0.36774 0.7196 0.0
C725 C 0.19339 0.35126 0.68903 0.0
C726 C 0.21106 0.37094 0.73086 0.0
C727 C 0.2435 0.33497 0.73316 0.0
H728 H 0.26336 0.39697 0.75211 0.0
C729 C 0.30265 0.33376 0.76024 0.0
C730 C 0.3081 0.34865 0.79044 0.0
C731 C 0.28892 0.33732 0.74668 0.0
C732 C 0.25789 0.37953 0.74734 0.0
H733 H 0.20193 0.32613 0.64524 0.0
H734 H 0.22646 0.33161 0.66495 0.0
H735 H 0.23856 0.39776 0.73055 0.0
H736 H 0.30371 0.37951 0.82943 0.0
H737 H 0.27934 0.38544 0.80632 0.0
H738 H 0.26243 0.31655 0.75049 0.0
C739 C 0.21833 0.34194 0.68035 0.0
C740 C 0.24374 0.38 0.73495 0.0
C741 C 0.20429 0.33883 0.66907 0.0
C742 C 0.29974 0.36791 0.80589 0.0
C743 C 0.28582 0.37128 0.79264 0.0
C744 C 0.25749 0.33448 0.74577 0.0
C745 C 0.22184 0.35749 0.712 0.0
C746 C 0.23653 0.35768 0.72705 0.0
C747 C 0.28015 0.35553 0.76359 0.0
C748 C 0.26498 0.3567 0.75225 0.0
H749 H 0.18877 0.37712 0.73624 0.0
H750 H 0.21349 0.38287 0.75558 0.0
H751 H 0.23809 0.31746 0.72827 0.0
H752 H 0.30897 0.31902 0.74743 0.0
H753 H 0.28506 0.32536 0.72344 0.0
C754 C 0.19618 0.6342 0.2743 0.0
C755 C 0.19313 0.64864 0.3077 0.0
C756 C 0.21022 0.63064 0.2623 0.0
C757 C 0.24322 0.66423 0.26421 0.0
H758 H 0.26245 0.60235 0.24001 0.0
C759 C 0.3025 0.66436 0.23952 0.0
C760 C 0.30801 0.6502 0.20855 0.0
C761 C 0.28864 0.66089 0.25203 0.0
C762 C 0.25715 0.61978 0.24621 0.0
H763 H 0.2024 0.66961 0.35563 0.0
H764 H 0.22672 0.66366 0.33446 0.0
H765 H 0.23754 0.60166 0.2607 0.0
H766 H 0.30357 0.62074 0.167 0.0
H767 H 0.27897 0.615 0.18823 0.0
H768 H 0.26242 0.68261 0.24918 0.0
C769 C 0.21831 0.65515 0.31754 0.0
C770 C 0.24295 0.61935 0.25809 0.0
C771 C 0.20438 0.65856 0.3296 0.0
C772 C 0.29956 0.63175 0.19117 0.0
C773 C 0.2855 0.62849 0.20335 0.0
C774 C 0.25726 0.66471 0.25202 0.0
C775 C 0.22135 0.64173 0.28327 0.0
C776 C 0.23599 0.64159 0.26798 0.0
C777 C 0.27979 0.64354 0.23326 0.0
C778 C 0.26453 0.6425 0.24375 0.0
H779 H 0.18779 0.6268 0.25619 0.0
H780 H 0.21233 0.62038 0.23556 0.0
H781 H 0.238 0.68169 0.27081 0.0
H782 H 0.30889 0.67848 0.25375 0.0
H783 H 0.28476 0.67225 0.27597 0.0
C784 C 0.9474 0.14266 0.17608 0.0
C785 C 0.93938 0.12097 0.18215 0.0
C786 C 0.96213 0.14191 0.17772 0.0
C787 C 0.99245 0.10449 0.21296 0.0
H788 H 0.0129 0.14211 0.13419 0.0
C789 C 0.05302 0.09579 0.18763 0.0
C790 C 0.06042 0.11805 0.18068 0.0
C791 C 0.03824 0.09572 0.18963 0.0
C792 C 0.00736 0.13171 0.15665 0.0
H793 H 0.94058 0.08157 0.19555 0.0
H794 H 0.96637 0.08021 0.19792 0.0
H795 H 0.98719 0.14269 0.1344 0.0
H796 H 0.05809 0.1578 0.17137 0.0
H797 H 0.0324 0.15765 0.17494 0.0
H798 H 0.01274 0.09338 0.23492 0.0
C799 C 0.96123 0.09785 0.19227 0.0
C800 C 0.99261 0.13206 0.15681 0.0
C801 C 0.94644 0.09861 0.19071 0.0
C802 C 0.05274 0.14028 0.17649 0.0
C803 C 0.038 0.1402 0.17834 0.0
C804 C 0.00725 0.10408 0.21272 0.0
C805 C 0.96925 0.11945 0.18535 0.0
C806 C 0.98496 0.11861 0.18511 0.0
C807 C 0.03057 0.1179 0.18455 0.0
C808 C 0.01486 0.11783 0.1847 0.0
H809 H 0.9423 0.16026 0.16981 0.0
H810 H 0.96797 0.159 0.17303 0.0
H811 H 0.98689 0.09411 0.23539 0.0
H812 H 0.05862 0.07835 0.19106 0.0
H813 H 0.0328 0.07822 0.19421 0.0
C814 C 0.55278 0.85276 0.68503 0.0
C815 C 0.56046 0.87498 0.68938 0.0
C816 C 0.53804 0.85281 0.68697 0.0
C817 C 0.50718 0.88995 0.71969 0.0
H818 H 0.48722 0.8496 0.64327 0.0
C819 C 0.44685 0.8978 0.69099 0.0
C820 C 0.43942 0.87549 0.68478 0.0
C821 C 0.46161 0.89774 0.69407 0.0
C822 C 0.49262 0.86074 0.66513 0.0
H823 H 0.55865 0.91465 0.70013 0.0
H824 H 0.53286 0.91479 0.70302 0.0
H825 H 0.51294 0.84956 0.64412 0.0
H826 H 0.44163 0.83552 0.67801 0.0
H827 H 0.46731 0.83543 0.6835 0.0
H828 H 0.48676 0.90132 0.74032 0.0
C829 C 0.53827 0.89726 0.6985 0.0
C830 C 0.50738 0.86071 0.66565 0.0
C831 C 0.55306 0.8972 0.69664 0.0
C832 C 0.44703 0.85307 0.68253 0.0
C833 C 0.46176 0.85302 0.68548 0.0
C834 C 0.49238 0.89003 0.7191 0.0
C835 C 0.53058 0.8751 0.69321 0.0
C836 C 0.51485 0.87524 0.69299 0.0
C837 C 0.46923 0.87538 0.69086 0.0
C838 C 0.48494 0.87536 0.69186 0.0
H839 H 0.55816 0.83526 0.67977 0.0
H840 H 0.53247 0.83533 0.68353 0.0
H841 H 0.5126 0.90115 0.74142 0.0
H842 H 0.44131 0.9154 0.69291 0.0
H843 H 0.46706 0.9153 0.69792 0.0
C844 C 0.9479 0.90201 0.81845 0.0
C845 C 0.94042 0.87943 0.82007 0.0
C846 C 0.96268 0.9021 0.81624 0.0
C847 C 0.99353 0.86273 0.83892 0.0
H848 H 0.01394 0.90919 0.77284 0.0
C849 C 0.05384 0.85638 0.81905 0.0
C850 C 0.06149 0.8788 0.8203 0.0
C851 C 0.0391 0.85659 0.8168 0.0
C852 C 0.00839 0.89626 0.79171 0.0
H853 H 0.94258 0.83922 0.81949 0.0
H854 H 0.96827 0.8394 0.81536 0.0
H855 H 0.9881 0.90939 0.77285 0.0
H856 H 0.05963 0.91903 0.81932 0.0
H857 H 0.03387 0.91938 0.81575 0.0
H858 H 0.01375 0.84968 0.85803 0.0
C859 C 0.96275 0.85705 0.81644 0.0
C860 C 0.99359 0.89637 0.79172 0.0
C861 C 0.94801 0.85696 0.81861 0.0
C862 C 0.05407 0.90143 0.81844 0.0
C863 C 0.0393 0.90164 0.81617 0.0
C864 C 0.00829 0.86262 0.83893 0.0
C865 C 0.97028 0.8796 0.81565 0.0
C866 C 0.986 0.87957 0.81529 0.0
C867 C 0.03163 0.87921 0.81575 0.0
C868 C 0.01591 0.87935 0.8153 0.0
H869 H 0.94238 0.91965 0.81948 0.0
H870 H 0.96816 0.91979 0.81599 0.0
H871 H 0.98802 0.84986 0.858 0.0
H872 H 0.05923 0.83861 0.82013 0.0
H873 H 0.03353 0.83899 0.81586 0.0
C874 C 0.5526 0.14585 0.3147 0.0
C875 C 0.56044 0.12452 0.30489 0.0
C876 C 0.53786 0.14562 0.3128 0.0
C877 C 0.50725 0.11215 0.27078 0.0
H878 H 0.48721 0.1431 0.35725 0.0
C879 C 0.44659 0.10315 0.29421 0.0
C880 C 0.43943 0.1246 0.307 0.0
C881 C 0.46136 0.10287 0.29185 0.0
C882 C 0.49263 0.13463 0.33264 0.0
H883 H 0.55893 0.08638 0.2844 0.0
H884 H 0.53312 0.08593 0.28142 0.0
H885 H 0.51292 0.14312 0.35675 0.0
H886 H 0.44217 0.16284 0.32613 0.0
H887 H 0.46782 0.16239 0.32169 0.0
H888 H 0.48685 0.10361 0.24681 0.0
C889 C 0.53842 0.10289 0.29031 0.0
C890 C 0.50738 0.13464 0.33234 0.0
C891 C 0.5532 0.10312 0.29221 0.0
C892 C 0.44734 0.14591 0.31651 0.0
C893 C 0.46206 0.14563 0.31416 0.0
C894 C 0.49244 0.11213 0.27108 0.0
C895 C 0.53058 0.12405 0.3011 0.0
C896 C 0.51487 0.12356 0.30131 0.0
C897 C 0.46927 0.12403 0.30228 0.0
C898 C 0.48498 0.12353 0.30191 0.0
H899 H 0.55783 0.16273 0.32424 0.0
H900 H 0.53215 0.16238 0.32059 0.0
H901 H 0.51271 0.10364 0.24629 0.0
H902 H 0.44081 0.08642 0.28662 0.0
H903 H 0.46661 0.08589 0.28284 0.0
C904 C 0.44626 0.60042 0.19966 0.0
C905 C 0.43931 0.62123 0.18377 0.0
C906 C 0.46104 0.59957 0.20116 0.0
C907 C 0.49252 0.62722 0.15444 0.0
H908 H 0.51253 0.603 0.24611 0.0
C909 C 0.55212 0.64226 0.17313 0.0
C910 C 0.56025 0.62218 0.18684 0.0
C911 C 0.53739 0.64123 0.17404 0.0
C912 C 0.50708 0.60955 0.22015 0.0
H913 H 0.44243 0.65771 0.15784 0.0
H914 H 0.46809 0.6563 0.16077 0.0
H915 H 0.48666 0.60274 0.24529 0.0
H916 H 0.55926 0.58545 0.21312 0.0
H917 H 0.53343 0.58363 0.21451 0.0
H918 H 0.51284 0.63415 0.1293 0.0
C919 C 0.46216 0.64044 0.17146 0.0
C920 C 0.49228 0.6094 0.21966 0.0
C921 C 0.44743 0.64129 0.16997 0.0
C922 C 0.5533 0.60122 0.20227 0.0
C923 C 0.53851 0.60021 0.20324 0.0
C924 C 0.50726 0.62739 0.15493 0.0
C925 C 0.46915 0.6195 0.18673 0.0
C926 C 0.48485 0.61852 0.18695 0.0
C927 C 0.5304 0.62011 0.18868 0.0
C928 C 0.51472 0.61884 0.18793 0.0
H929 H 0.4403 0.58466 0.21058 0.0
H930 H 0.46612 0.58311 0.21288 0.0
H931 H 0.48712 0.63385 0.12843 0.0
H932 H 0.55712 0.65878 0.16134 0.0
H933 H 0.53145 0.65706 0.1633 0.0
C934 C 0.05323 0.39963 0.70625 0.0
C935 C 0.06022 0.37872 0.69082 0.0
C936 C 0.03848 0.39986 0.70968 0.0
C937 C 0.00734 0.35808 0.71236 0.0
H938 H 0.98663 0.41657 0.67868 0.0
C939 C 0.94794 0.35513 0.67696 0.0
C940 C 0.93947 0.37538 0.68834 0.0
C941 C 0.96261 0.35616 0.68097 0.0
C942 C 0.99225 0.40022 0.68876 0.0
H943 H 0.05721 0.34156 0.66724 0.0
H944 H 0.03159 0.34208 0.67284 0.0
H945 H 0.01243 0.41729 0.6793 0.0
H946 H 0.9398 0.41253 0.71329 0.0
H947 H 0.96549 0.41425 0.72046 0.0
H948 H 0.98719 0.34087 0.72126 0.0
C949 C 0.03747 0.3582 0.68276 0.0
C950 C 0.00704 0.40064 0.68912 0.0
C951 C 0.05217 0.35798 0.67929 0.0
C952 C 0.94602 0.39664 0.70412 0.0
C953 C 0.96074 0.39768 0.70807 0.0
C954 C 0.99257 0.35766 0.71199 0.0
C955 C 0.03044 0.37915 0.69788 0.0
C956 C 0.01475 0.37943 0.70034 0.0
C957 C 0.9692 0.37745 0.69647 0.0
C958 C 0.98486 0.37859 0.69961 0.0
H959 H 0.05912 0.41588 0.71552 0.0
H960 H 0.03338 0.41619 0.72179 0.0
H961 H 0.01296 0.3416 0.72191 0.0
H962 H 0.94325 0.33847 0.66466 0.0
H963 H 0.96883 0.3404 0.67119 0.0
C964 C 0.44663 0.39552 0.79706 0.0
C965 C 0.43956 0.3745 0.8118 0.0
C966 C 0.46141 0.39593 0.79479 0.0
C967 C 0.49291 0.36591 0.83777 0.0
H968 H 0.51259 0.39344 0.7479 0.0
C969 C 0.55267 0.35289 0.81745 0.0
C970 C 0.56057 0.37369 0.80551 0.0
C971 C 0.53792 0.3534 0.81646 0.0
C972 C 0.50724 0.38592 0.77336 0.0
H973 H 0.44245 0.33718 0.8348 0.0
H974 H 0.4681 0.33783 0.83052 0.0
H975 H 0.48673 0.39371 0.7495 0.0
H976 H 0.55916 0.41117 0.78219 0.0
H977 H 0.53334 0.41211 0.78071 0.0
H978 H 0.51332 0.35809 0.86168 0.0
C979 C 0.46228 0.35418 0.82135 0.0
C980 C 0.49244 0.38608 0.77429 0.0
C981 C 0.44755 0.35377 0.82361 0.0
C982 C 0.55339 0.39484 0.79165 0.0
C983 C 0.53859 0.39534 0.79062 0.0
C984 C 0.50766 0.36573 0.83683 0.0
C985 C 0.4694 0.37533 0.80728 0.0
C986 C 0.48511 0.37589 0.8064 0.0
C987 C 0.5307 0.37473 0.80351 0.0
C988 C 0.515 0.37554 0.80451 0.0
H989 H 0.44078 0.41179 0.78767 0.0
H990 H 0.46658 0.41257 0.78408 0.0
H991 H 0.48761 0.3584 0.86333 0.0
H992 H 0.55786 0.33621 0.82799 0.0
H993 H 0.53216 0.33705 0.82591 0.0
C994 C 0.94633 0.59735 0.30628 0.0
C995 C 0.93916 0.61976 0.31391 0.0
C996 C 0.96112 0.59681 0.30473 0.0
C997 C 0.99219 0.63179 0.33971 0.0
H998 H 0.01276 0.59323 0.26227 0.0
C999 C 0.0522 0.64163 0.32078 0.0
C1000 C 0.0601 0.61962 0.31692 0.0
C1001 C 0.03747 0.64108 0.31869 0.0
C1002 C 0.00714 0.60389 0.28429 0.0
H1003 H 0.94188 0.6593 0.32456 0.0
H1004 H 0.96755 0.65836 0.3215 0.0
H1005 H 0.98689 0.59332 0.26146 0.0
H1006 H 0.05873 0.57982 0.30681 0.0
H1007 H 0.03292 0.57888 0.30326 0.0
H1008 H 0.01235 0.6424 0.36256 0.0
C1009 C 0.96179 0.64112 0.31744 0.0
C1010 C 0.99234 0.60394 0.28384 0.0
C1011 C 0.94706 0.64167 0.31899 0.0
C1012 C 0.05294 0.5971 0.31001 0.0
C1013 C 0.03817 0.59657 0.30777 0.0
C1014 C 0.00693 0.63177 0.34011 0.0
C1015 C 0.96901 0.61865 0.31083 0.0
C1016 C 0.98471 0.61805 0.3114 0.0
C1017 C 0.03028 0.61852 0.31257 0.0
C1018 C 0.01459 0.61798 0.31227 0.0
H1019 H 0.94055 0.58015 0.30218 0.0
H1020 H 0.96636 0.57917 0.29982 0.0
H1021 H 0.98663 0.64242 0.36189 0.0
H1022 H 0.05737 0.65933 0.32586 0.0
H1023 H 0.03169 0.65837 0.32185 0.0
C1024 C 0.13763 0.06859 0.10122 0.0
C1025 C 0.12431 0.07757 0.11288 0.0
C1026 C 0.1387 0.04764 0.07698 0.0
C1027 C 0.11812 0.99388 0.03869 0.0
H1028 H 0.14408 0.99768 0.95077 0.0
C1029 C 0.11242 0.92986 0.90558 0.0
C1030 C 0.12468 0.91745 0.89279 0.0
C1031 C 0.11334 0.94943 0.93235 0.0
C1032 C 0.13689 0.99628 0.97539 0.0
H1033 H 0.10169 0.07091 0.10942 0.0
H1034 H 0.10356 0.03482 0.06704 0.0
H1035 H 0.14409 0.0306 0.00033 0.0
H1036 H 0.14759 0.91688 0.8965 0.0
H1037 H 0.14916 0.95138 0.94317 0.0
H1038 H 0.11068 0.95994 0.01324 0.0
C1039 C 0.11321 0.0437 0.07685 0.0
C1040 C 0.13692 0.01504 0.00389 0.0
C1041 C 0.11214 0.06455 0.10107 0.0
C1042 C 0.13794 0.92598 0.90584 0.0
C1043 C 0.13885 0.94573 0.93252 0.0
C1044 C 0.11802 0.97529 0.01012 0.0
C1045 C 0.12648 0.03522 0.06394 0.0
C1046 C 0.12739 0.01424 0.03558 0.0
C1047 C 0.12653 0.95719 0.94681 0.0
C1048 C 0.12724 0.97647 0.97787 0.0
H1049 H 0.14723 0.07812 0.10989 0.0
H1050 H 0.1491 0.04135 0.06807 0.0
H1051 H 0.11084 0.99239 0.06311 0.0
H1052 H 0.10203 0.92396 0.89597 0.0
H1053 H 0.10368 0.95826 0.94226 0.0
C1054 C 0.39065 0.93019 0.59681 0.0
C1055 C 0.37809 0.91781 0.60714 0.0
C1056 C 0.3903 0.95093 0.57217 0.0
C1057 C 0.36823 0.9799 0.49579 0.0
H1058 H 0.39372 0.03571 0.50992 0.0
C1059 C 0.36582 0.0698 0.40217 0.0
C1060 C 0.37877 0.08067 0.39124 0.0
C1061 C 0.36551 0.04942 0.42763 0.0
C1062 C 0.38665 0.02011 0.50534 0.0
H1063 H 0.35524 0.91828 0.60104 0.0
H1064 H 0.35465 0.95473 0.55845 0.0
H1065 H 0.39324 0.00248 0.55854 0.0
H1066 H 0.40157 0.07785 0.39715 0.0
H1067 H 0.40099 0.04221 0.44127 0.0
H1068 H 0.36163 0.99763 0.44257 0.0
C1069 C 0.36479 0.94805 0.56884 0.0
C1070 C 0.38635 0.0011 0.53325 0.0
C1071 C 0.36513 0.92728 0.59351 0.0
C1072 C 0.39141 0.07005 0.4051 0.0
C1073 C 0.39108 0.04974 0.43064 0.0
C1074 C 0.3685 0.99896 0.46792 0.0
C1075 C 0.3774 0.95984 0.55732 0.0
C1076 C 0.3772 0.98069 0.5287 0.0
C1077 C 0.37813 0.03951 0.44278 0.0
C1078 C 0.37778 0.0192 0.47226 0.0
H1079 H 0.40083 0.92344 0.60674 0.0
H1080 H 0.40022 0.95941 0.56362 0.0
H1081 H 0.36122 0.96424 0.49106 0.0
H1082 H 0.35588 0.07746 0.39203 0.0
H1083 H 0.35536 0.04201 0.43656 0.0
C1084 C 0.88834 0.93211 0.89708 0.0
C1085 C 0.87626 0.9179 0.88831 0.0
C1086 C 0.8874 0.95301 0.92121 0.0
C1087 C 0.86535 0.98012 -0.0007 0.0
H1088 H 0.88908 0.03789 0.98167 0.0
C1089 C 0.86384 0.06976 0.09524 0.0
C1090 C 0.877 0.08055 0.10441 0.0
C1091 C 0.863 0.04964 0.06926 0.0
C1092 C 0.88247 0.02179 0.98715 0.0
H1093 H 0.85358 0.9152 0.89689 0.0
H1094 H 0.85192 0.95204 0.93875 0.0
H1095 H 0.88845 0.00473 0.93297 0.0
H1096 H 0.89964 0.07781 0.09478 0.0
H1097 H 0.89814 0.04276 0.04971 0.0
H1098 H 0.85939 0.99737 0.0536 0.0
C1099 C 0.86217 0.94667 0.92738 0.0
C1100 C 0.8821 0.00279 0.95923 0.0
C1101 C 0.8631 0.92568 0.90313 0.0
C1102 C 0.88932 0.0701 0.08825 0.0
C1103 C 0.88847 0.05012 0.06216 0.0
C1104 C 0.86567 0.99923 0.02719 0.0
C1105 C 0.87435 0.96034 0.93717 0.0
C1106 C 0.87371 0.98153 0.96522 0.0
C1107 C 0.87529 0.04 0.05176 0.0
C1108 C 0.87442 0.02008 0.02168 0.0
H1109 H 0.89866 0.92672 0.88622 0.0
H1110 H 0.89704 0.96288 0.92849 0.0
H1111 H 0.8589 0.96387 0.00508 0.0
H1112 H 0.85413 0.0773 0.10722 0.0
H1113 H 0.8527 0.04224 0.06176 0.0
C1114 C 0.60774 0.06838 0.4014 0.0
C1115 C 0.6205 0.07887 0.38819 0.0
C1116 C 0.60782 0.04822 0.42727 0.0
C1117 C 0.63033 0.99805 0.46764 0.0
H1118 H 0.6046 0.0019 0.55607 0.0
C1119 C 0.63405 0.92961 0.5972 0.0
C1120 C 0.62122 0.91924 0.61015 0.0
C1121 C 0.63409 0.9499 0.57155 0.0
C1122 C 0.61177 0.00045 0.53139 0.0
H1123 H 0.64337 0.07556 0.39047 0.0
H1124 H 0.64349 0.04049 0.43565 0.0
H1125 H 0.6042 0.03436 0.50612 0.0
H1126 H 0.59837 0.92289 0.60766 0.0
H1127 H 0.59847 0.95813 0.56288 0.0
H1128 H 0.63789 0.96412 0.4929 0.0
C1129 C 0.63341 0.04781 0.4259 0.0
C1130 C 0.61151 0.01899 0.50269 0.0
C1131 C 0.63334 0.06799 0.40006 0.0
C1132 C 0.60845 0.93036 0.59826 0.0
C1133 C 0.6085 0.95065 0.57266 0.0
C1134 C 0.63059 0.9795 0.49634 0.0
C1135 C 0.62066 0.03804 0.44045 0.0
C1136 C 0.62078 0.018 0.47045 0.0
C1137 C 0.62131 0.96031 0.55836 0.0
C1138 C 0.6213 0.98047 0.52854 0.0
H1139 H 0.59765 0.07618 0.39269 0.0
H1140 H 0.59782 0.04079 0.43735 0.0
H1141 H 0.63749 0.99659 0.44295 0.0
H1142 H 0.64409 0.92162 0.60589 0.0
H1143 H 0.64414 0.95723 0.56163 0.0
C1144 C 0.60898 0.56721 0.09665 0.0
C1145 C 0.62164 0.57868 0.10856 0.0
C1146 C 0.60922 0.54683 0.07122 0.0
C1147 C 0.63149 0.51829 0.99512 0.0
H1148 H 0.60528 0.46317 0.00489 0.0
C1149 C 0.63398 0.4301 0.89766 0.0
C1150 C 0.62109 0.41929 0.88606 0.0
C1151 C 0.63417 0.4502 0.9237 0.0
C1152 C 0.61254 0.4786 0.00147 0.0
H1153 H 0.64453 0.57687 0.10454 0.0
H1154 H 0.64491 0.54109 0.06047 0.0
H1155 H 0.60569 0.49549 0.05507 0.0
H1156 H 0.59826 0.42206 0.89117 0.0
H1157 H 0.59862 0.45729 0.93616 0.0
H1158 H 0.63832 0.50138 0.94146 0.0
C1159 C 0.6348 0.5482 0.0703 0.0
C1160 C 0.61281 0.49707 0.03031 0.0
C1161 C 0.63457 0.56858 0.09581 0.0
C1162 C 0.60838 0.4298 0.89967 0.0
C1163 C 0.60858 0.44987 0.92573 0.0
C1164 C 0.63123 0.49979 0.96627 0.0
C1165 C 0.62211 0.53742 0.0571 0.0
C1166 C 0.62225 0.51718 0.0274 0.0
C1167 C 0.62148 0.45993 0.93872 0.0
C1168 C 0.62171 0.4798 0.96904 0.0
H1169 H 0.59883 0.57444 0.10592 0.0
H1170 H 0.59925 0.53908 0.06143 0.0
H1171 H 0.63873 0.53376 0.99166 0.0
H1172 H 0.64397 0.42252 0.88775 0.0
H1173 H 0.64428 0.45745 0.93327 0.0
C1174 C 0.86476 0.42727 0.59564 0.0
C1175 C 0.87787 0.41659 0.60556 0.0
C1176 C 0.8641 0.44758 0.57004 0.0
C1177 C 0.88433 0.47667 0.49032 0.0
H1178 H 0.85963 0.53327 0.50689 0.0
C1179 C 0.88919 0.56683 0.40058 0.0
C1180 C 0.87684 0.58001 0.39081 0.0
C1181 C 0.88856 0.546 0.42492 0.0
C1182 C 0.86641 0.51741 0.50151 0.0
H1183 H 0.90059 0.4197 0.59773 0.0
H1184 H 0.89939 0.45513 0.5534 0.0
H1185 H 0.86011 0.49961 0.555 0.0
H1186 H 0.85404 0.58094 0.39785 0.0
H1187 H 0.85294 0.54426 0.44002 0.0
H1188 H 0.89065 0.49432 0.43692 0.0
C1189 C 0.88962 0.44753 0.5649 0.0
C1190 C 0.86673 0.49818 0.52916 0.0
C1191 C 0.8903 0.42733 0.59057 0.0
C1192 C 0.86376 0.5713 0.4049 0.0
C1193 C 0.86314 0.55039 0.42931 0.0
C1194 C 0.88398 0.4958 0.46265 0.0
C1195 C 0.87651 0.45756 0.55372 0.0
C1196 C 0.87582 0.47776 0.52408 0.0
C1197 C 0.87556 0.53772 0.44006 0.0
C1198 C 0.87515 0.51655 0.46811 0.0
H1199 H 0.85497 0.41951 0.6067 0.0
H1200 H 0.85383 0.45488 0.5619 0.0
H1201 H 0.89123 0.46091 0.48515 0.0
H1202 H 0.89945 0.57298 0.3903 0.0
H1203 H 0.89836 0.53688 0.43293 0.0
C1204 C 0.3643 0.42807 0.90161 0.0
C1205 C 0.37741 0.41759 0.89117 0.0
C1206 C 0.36365 0.44815 0.92768 0.0
C1207 C 0.38413 0.47669 0.00757 0.0
H1208 H 0.35888 0.53284 0.99383 0.0
C1209 C 0.38884 0.5663 0.09895 0.0
C1210 C 0.37644 0.57907 0.1096 0.0
C1211 C 0.38821 0.54552 0.07445 0.0
C1212 C 0.36582 0.51709 0.99842 0.0
H1213 H 0.40014 0.4209 0.89844 0.0
H1214 H 0.39898 0.45597 0.94352 0.0
H1215 H 0.35937 0.49979 0.94463 0.0
H1216 H 0.35357 0.57926 0.10415 0.0
H1217 H 0.35249 0.54271 0.06164 0.0
H1218 H 0.39062 0.49389 0.06123 0.0
C1219 C 0.3892 0.44835 0.93213 0.0
C1220 C 0.36614 0.49822 0.97014 0.0
C1221 C 0.38986 0.42836 0.90602 0.0
C1222 C 0.36334 0.56993 0.09642 0.0
C1223 C 0.36272 0.54911 0.0718 0.0
C1224 C 0.38379 0.49548 0.03584 0.0
C1225 C 0.37609 0.45811 0.94393 0.0
C1226 C 0.37543 0.47797 0.9742 0.0
C1227 C 0.37518 0.53693 0.06 0.0
C1228 C 0.37475 0.51605 0.03141 0.0
H1229 H 0.3545 0.42028 0.89068 0.0
H1230 H 0.35339 0.45524 0.93627 0.0
H1231 H 0.39118 0.46105 0.01197 0.0
H1232 H 0.39912 0.57277 0.10857 0.0
H1233 H 0.39803 0.53676 0.06567 0.0
C1234 C 0.11072 0.56953 0.40448 0.0
C1235 C 0.12302 0.58203 0.39224 0.0
C1236 C 0.11154 0.5499 0.43113 0.0
C1237 C 0.13506 0.50317 0.47469 0.0
H1238 H 0.10841 0.50614 0.56111 0.0
C1239 C 0.13597 0.43113 0.60051 0.0
C1240 C 0.12272 0.42161 0.61179 0.0
C1241 C 0.13686 0.45204 0.57621 0.0
C1242 C 0.11585 0.50491 0.53704 0.0
H1243 H 0.14591 0.5827 0.39685 0.0
H1244 H 0.1473 0.54813 0.44335 0.0
H1245 H 0.10831 0.53875 0.51152 0.0
H1246 H 0.10004 0.42726 0.60752 0.0
H1247 H 0.1016 0.46334 0.56497 0.0
H1248 H 0.14239 0.46901 0.49974 0.0
C1249 C 0.13704 0.55373 0.43234 0.0
C1250 C 0.11579 0.52358 0.50862 0.0
C1251 C 0.13623 0.57354 0.40576 0.0
C1252 C 0.11043 0.43406 0.59948 0.0
C1253 C 0.11132 0.45488 0.57516 0.0
C1254 C 0.13506 0.48435 0.50304 0.0
C1255 C 0.12466 0.54217 0.44603 0.0
C1256 C 0.12525 0.52275 0.47688 0.0
C1257 C 0.12454 0.46389 0.56268 0.0
C1258 C 0.12533 0.48484 0.53428 0.0
H1259 H 0.10037 0.57539 0.39448 0.0
H1260 H 0.10184 0.54098 0.44055 0.0
H1261 H 0.14243 0.50201 0.45044 0.0
H1262 H 0.14566 0.42208 0.6096 0.0
H1263 H 0.14721 0.45876 0.56767 0.0
C1264 C 0.12561 0.29873 0.81143 0.0
C1265 C 0.11732 0.32015 0.80672 0.0
C1266 C 0.12475 0.28469 0.84571 0.0
C1267 C 0.11183 0.28614 0.94887 0.0
H1268 H 0.11699 0.21477 0.93921 0.0
C1269 C 0.10379 0.20994 0.07126 0.0
C1270 C 0.11637 0.19678 0.07872 0.0
C1271 C 0.10297 0.22648 0.0396 0.0
C1272 C 0.11549 0.23468 0.94221 0.0
H1273 H 0.1016 0.34376 0.83401 0.0
H1274 H 0.09956 0.31856 0.89352 0.0
H1275 H 0.11688 0.24052 0.88048 0.0
H1276 H 0.13794 0.19077 0.05906 0.0
H1277 H 0.13628 0.219 0.00322 0.0
H1278 H 0.11008 0.27972 0.01095 0.0
C1279 C 0.10705 0.31295 0.87118 0.0
C1280 C 0.11557 0.24951 0.90868 0.0
C1281 C 0.1081 0.32728 0.837 0.0
C1282 C 0.12811 0.20067 0.0542 0.0
C1283 C 0.12719 0.21674 0.02222 0.0
C1284 C 0.11149 0.27114 0.98245 0.0
C1285 C 0.1153 0.29134 0.87584 0.0
C1286 C 0.11408 0.27552 0.91157 0.0
C1287 C 0.1146 0.22963 0.01456 0.0
C1288 C 0.1136 0.24539 0.9793 0.0
H1289 H 0.13261 0.2925 0.7883 0.0
H1290 H 0.13152 0.26854 0.84844 0.0
H1291 H 0.11077 0.30608 0.95235 0.0
H1292 H 0.09459 0.20738 0.08976 0.0
H1293 H 0.09316 0.23626 0.034 0.0
C1294 C 0.37191 0.79044 0.55765 0.0
C1295 C 0.3838 0.79647 0.58046 0.0
C1296 C 0.3728 0.77249 0.52824 0.0
C1297 C 0.39855 0.73964 0.46487 0.0
H1298 H 0.36525 0.701 0.43827 0.0
C1299 C 0.3943 0.66713 0.33652 0.0
C1300 C 0.38402 0.6746 0.30914 0.0
C1301 C 0.39525 0.67894 0.37309 0.0
C1302 C 0.37465 0.71152 0.44566 0.0
H1303 H 0.4059 0.78796 0.5908 0.0
H1304 H 0.40735 0.75595 0.54001 0.0
H1305 H 0.36523 0.72656 0.49739 0.0
H1306 H 0.36698 0.70069 0.29817 0.0
H1307 H 0.36815 0.72025 0.3626 0.0
H1308 H 0.4079 0.72421 0.41282 0.0
C1309 C 0.39741 0.76555 0.54432 0.0
C1310 C 0.37463 0.72635 0.47926 0.0
C1311 C 0.39657 0.78382 0.57355 0.0
C1312 C 0.37471 0.69397 0.31904 0.0
C1313 C 0.37545 0.70532 0.35575 0.0
C1314 C 0.39865 0.72439 0.43156 0.0
C1315 C 0.38553 0.75975 0.52114 0.0
C1316 C 0.38639 0.74128 0.4886 0.0
C1317 C 0.38574 0.69798 0.38298 0.0
C1318 C 0.38655 0.71082 0.42117 0.0
H1319 H 0.36194 0.79997 0.56189 0.0
H1320 H 0.36351 0.76908 0.51043 0.0
H1321 H 0.40776 0.75099 0.47086 0.0
H1322 H 0.40157 0.65219 0.32966 0.0
H1323 H 0.40328 0.67305 0.39376 0.0
C1324 C 0.10572 0.79497 0.93909 0.0
C1325 C 0.1176 0.79652 0.91449 0.0
C1326 C 0.10525 0.77746 0.96939 0.0
C1327 C 0.12915 0.73827 0.02982 0.0
H1328 H 0.09383 0.71 0.06658 0.0
C1329 C 0.12633 0.66765 0.15759 0.0
C1330 C 0.11692 0.67455 0.18754 0.0
C1331 C 0.12601 0.67984 0.12135 0.0
C1332 C 0.10376 0.71775 0.05652 0.0
H1333 H 0.13798 0.78012 0.90101 0.0
H1334 H 0.13693 0.74898 0.95273 0.0
H1335 H 0.09399 0.73575 0.00759 0.0
H1336 H 0.09979 0.69942 0.2032 0.0
H1337 H 0.09892 0.72014 0.1395 0.0
H1338 H 0.13888 0.72002 0.07871 0.0
C1339 C 0.12818 0.76182 0.94967 0.0
C1340 C 0.10387 0.73263 0.02289 0.0
C1341 C 0.12875 0.77957 0.91981 0.0
C1342 C 0.10697 0.69339 0.18034 0.0
C1343 C 0.1065 0.70529 0.14397 0.0
C1344 C 0.12906 0.7231 0.06307 0.0
C1345 C 0.11656 0.76084 0.9754 0.0
C1346 C 0.11653 0.74343 0.00943 0.0
C1347 C 0.11614 0.69887 0.11432 0.0
C1348 C 0.11634 0.71303 0.07707 0.0
H1349 H 0.097 0.80787 0.93587 0.0
H1350 H 0.09622 0.77759 0.98889 0.0
H1351 H 0.13907 0.74659 0.02094 0.0
H1352 H 0.13405 0.65309 0.16244 0.0
H1353 H 0.13352 0.67449 0.09887 0.0
C1354 C 0.39269 0.33039 0.66046 0.0
C1355 C 0.38267 0.32311 0.68865 0.0
C1356 C 0.39324 0.31847 0.62394 0.0
C1357 C 0.37188 0.28418 0.5539 0.0
H1358 H 0.40596 0.24875 0.52437 0.0
C1359 C 0.37078 0.20627 0.43905 0.0
C1360 C 0.38274 0.20181 0.41567 0.0
C1361 C 0.3712 0.22398 0.46896 0.0
C1362 C 0.39644 0.25896 0.53156 0.0
H1363 H 0.36565 0.29725 0.70113 0.0
H1364 H 0.36616 0.27738 0.63687 0.0
H1365 H 0.40603 0.27532 0.58249 0.0
H1366 H 0.40439 0.21306 0.40446 0.0
H1367 H 0.40496 0.24468 0.45581 0.0
H1368 H 0.36224 0.26826 0.50313 0.0
C1369 C 0.37354 0.29231 0.64297 0.0
C1370 C 0.3965 0.27409 0.56495 0.0
C1371 C 0.37319 0.30381 0.67962 0.0
C1372 C 0.39503 0.21593 0.42222 0.0
C1373 C 0.39538 0.23396 0.45182 0.0
C1374 C 0.37187 0.26945 0.52016 0.0
C1375 C 0.38359 0.29945 0.61491 0.0
C1376 C 0.38412 0.2863 0.57688 0.0
C1377 C 0.3835 0.23804 0.47589 0.0
C1378 C 0.38404 0.25606 0.50913 0.0
H1379 H 0.40008 0.34527 0.66667 0.0
H1380 H 0.40109 0.32421 0.60266 0.0
H1381 H 0.36224 0.29365 0.56243 0.0
H1382 H 0.36118 0.19558 0.43497 0.0
H1383 H 0.36193 0.22611 0.48733 0.0
C1384 C 0.88785 0.66546 0.15759 0.0
C1385 C 0.88206 0.67688 0.19093 0.0
C1386 C 0.88906 0.67872 0.12242 0.0
C1387 C 0.8919 0.7423 0.08452 0.0
H1388 H 0.87811 0.71497 0.98634 0.0
C1389 C 0.89796 0.79479 0.93804 0.0
C1390 C 0.88534 0.79733 0.91657 0.0
C1391 C 0.89879 0.77801 0.9693 0.0
C1392 C 0.88205 0.72277 0.01355 0.0
H1393 H 0.87317 0.71089 0.21435 0.0
H1394 H 0.87535 0.73418 0.15302 0.0
H1395 H 0.87705 0.6898 0.0462 0.0
H1396 H 0.86392 0.78341 0.90997 0.0
H1397 H 0.86544 0.75404 0.96432 0.0
H1398 H 0.8967 0.77537 0.05221 0.0
C1399 C 0.87891 0.71503 0.15389 0.0
C1400 C 0.88153 0.70834 0.04767 0.0
C1401 C 0.87755 0.7017 0.1888 0.0
C1402 C 0.87378 0.78201 0.92604 0.0
C1403 C 0.87467 0.76506 0.95699 0.0
C1404 C 0.89258 0.75659 0.05039 0.0
C1405 C 0.88472 0.70371 0.12038 0.0
C1406 C 0.88622 0.71815 0.0836 0.0
C1407 C 0.88709 0.76322 0.97939 0.0
C1408 C 0.88747 0.74712 0.01468 0.0
H1409 H 0.89145 0.64634 0.15886 0.0
H1410 H 0.89364 0.66962 0.09706 0.0
H1411 H 0.89571 0.75022 0.11178 0.0
H1412 H 0.90707 0.80627 0.93149 0.0
H1413 H 0.90853 0.77681 0.9859 0.0
C1414 C 0.60621 0.21483 0.42008 0.0
C1415 C 0.61817 0.19988 0.41368 0.0
C1416 C 0.60623 0.23291 0.44964 0.0
C1417 C 0.63044 0.26682 0.51819 0.0
H1418 H 0.59621 0.27579 0.57924 0.0
C1419 C 0.6291 0.30384 0.67663 0.0
C1420 C 0.61959 0.32324 0.68485 0.0
C1421 C 0.62891 0.29199 0.64022 0.0
C1422 C 0.60578 0.27369 0.56208 0.0
H1423 H 0.63955 0.19214 0.43325 0.0
H1424 H 0.63941 0.22272 0.48559 0.0
H1425 H 0.59586 0.24874 0.52176 0.0
H1426 H 0.60243 0.34545 0.6615 0.0
H1427 H 0.6017 0.32384 0.598 0.0
H1428 H 0.64048 0.29071 0.5602 0.0
C1429 C 0.63014 0.22123 0.46712 0.0
C1430 C 0.6056 0.25827 0.52902 0.0
C1431 C 0.63019 0.20349 0.43722 0.0
C1432 C 0.60982 0.33046 0.65595 0.0
C1433 C 0.60943 0.31821 0.61972 0.0
C1434 C 0.63066 0.28184 0.55162 0.0
C1435 C 0.61816 0.23617 0.47386 0.0
C1436 C 0.618 0.2543 0.50698 0.0
C1437 C 0.619 0.2989 0.61161 0.0
C1438 C 0.61839 0.28512 0.57411 0.0
H1439 H 0.59682 0.21263 0.40218 0.0
H1440 H 0.5969 0.24431 0.45344 0.0
H1441 H 0.6401 0.26479 0.50146 0.0
H1442 H 0.63648 0.29739 0.69867 0.0
H1443 H 0.63624 0.27688 0.63483 0.0
C1444 C 0.8947 0.21571 0.07493 0.0
C1445 C 0.88239 0.20171 0.08166 0.0
C1446 C 0.89502 0.23383 0.04549 0.0
C1447 C 0.87148 0.2695 0.97732 0.0
H1448 H 0.90566 0.27515 0.91502 0.0
C1449 C 0.8731 0.30328 0.81747 0.0
C1450 C 0.88252 0.32267 0.80855 0.0
C1451 C 0.87334 0.29194 0.85423 0.0
C1452 C 0.89612 0.27399 0.93255 0.0
H1453 H 0.86074 0.19579 0.06293 0.0
H1454 H 0.86143 0.22644 0.01076 0.0
H1455 H 0.90554 0.24864 0.97312 0.0
H1456 H 0.89975 0.34517 0.8309 0.0
H1457 H 0.90062 0.32434 0.89508 0.0
H1458 H 0.86189 0.29367 0.93496 0.0
C1459 C 0.87074 0.22418 0.02888 0.0
C1460 C 0.89604 0.25889 0.96596 0.0
C1461 C 0.87036 0.20639 0.05869 0.0
C1462 C 0.89239 0.33021 0.837 0.0
C1463 C 0.89286 0.31843 0.87363 0.0
C1464 C 0.87151 0.28418 0.94354 0.0
C1465 C 0.88309 0.23809 0.02169 0.0
C1466 C 0.88363 0.25606 0.98841 0.0
C1467 C 0.88326 0.29931 0.88252 0.0
C1468 C 0.88376 0.28623 0.92059 0.0
H1469 H 0.90411 0.21268 0.09241 0.0
H1470 H 0.90463 0.24445 0.04138 0.0
H1471 H 0.86184 0.26837 0.99435 0.0
H1472 H 0.86566 0.29653 0.79577 0.0
H1473 H 0.86601 0.27693 0.86024 0.0
C1474 C 0.60551 0.7851 0.57424 0.0
C1475 C 0.61767 0.79949 0.58148 0.0
C1476 C 0.6051 0.76859 0.54249 0.0
C1477 C 0.61872 0.76175 0.44477 0.0
H1478 H 0.61082 0.69112 0.45265 0.0
C1479 C 0.62686 0.69784 0.31267 0.0
C1480 C 0.61761 0.67779 0.30682 0.0
C1481 C 0.62647 0.71152 0.34738 0.0
C1482 C 0.61281 0.71087 0.44981 0.0
H1483 H 0.63899 0.80748 0.56158 0.0
H1484 H 0.63808 0.77916 0.50567 0.0
H1485 H 0.61063 0.71697 0.51185 0.0
H1486 H 0.60062 0.6563 0.33252 0.0
H1487 H 0.59941 0.68099 0.39281 0.0
H1488 H 0.62046 0.75627 0.38303 0.0
C1489 C 0.62896 0.78055 0.52479 0.0
C1490 C 0.61276 0.72559 0.48373 0.0
C1491 C 0.62948 0.79666 0.55686 0.0
C1492 C 0.60787 0.67172 0.33638 0.0
C1493 C 0.60729 0.68572 0.37101 0.0
C1494 C 0.61851 0.74723 0.41089 0.0
C1495 C 0.61673 0.76659 0.51712 0.0
C1496 C 0.61596 0.75104 0.48146 0.0
C1497 C 0.61654 0.70593 0.37682 0.0
C1498 C 0.61583 0.72149 0.41297 0.0
H1499 H 0.59627 0.7868 0.59282 0.0
H1500 H 0.59555 0.75801 0.53699 0.0
H1501 H 0.62099 0.78146 0.4423 0.0
H1502 H 0.63429 0.70331 0.2901 0.0
H1503 H 0.63397 0.72656 0.35098 0.0
C1504 C 0.63003 0.70325 0.05792 0.0
C1505 C 0.61794 0.69963 0.08111 0.0
C1506 C 0.63009 0.72103 0.02811 0.0
C1507 C 0.60577 0.75836 0.96597 0.0
H1508 H 0.64078 0.79074 0.93588 0.0
C1509 C 0.61044 0.83109 0.84016 0.0
C1510 C 0.62006 0.82359 0.81104 0.0
C1511 C 0.61002 0.81883 0.87635 0.0
C1512 C 0.63093 0.7819 0.94418 0.0
H1513 H 0.59655 0.71236 0.0921 0.0
H1514 H 0.59681 0.74412 0.04105 0.0
H1515 H 0.64021 0.76459 0.99432 0.0
H1516 H 0.63671 0.79734 0.79688 0.0
H1517 H 0.63645 0.77682 0.86068 0.0
H1518 H 0.59654 0.77616 0.9158 0.0
C1519 C 0.60613 0.7327 0.04501 0.0
C1520 C 0.6306 0.76674 0.97742 0.0
C1521 C 0.60599 0.71457 0.07445 0.0
C1522 C 0.62944 0.80399 0.81907 0.0
C1523 C 0.62924 0.79213 0.85545 0.0
C1524 C 0.60606 0.77393 0.93313 0.0
C1525 C 0.61814 0.736 0.02116 0.0
C1526 C 0.6181 0.75423 0.98822 0.0
C1527 C 0.61943 0.79925 0.88421 0.0
C1528 C 0.61871 0.78535 0.92152 0.0
H1529 H 0.63937 0.69189 0.06211 0.0
H1530 H 0.63943 0.72254 0.0099 0.0
H1531 H 0.596 0.74884 0.9729 0.0
H1532 H 0.60316 0.84627 0.83478 0.0
H1533 H 0.60238 0.82462 0.8982 0.0
C1534 C 0.87312 0.19395 0.31684 0.0
C1535 C 0.88234 0.17421 0.30816 0.0
C1536 C 0.87345 0.20541 0.35353 0.0
C1537 C 0.89624 0.2229 0.43209 0.0
H1538 H 0.86192 0.22936 0.49355 0.0
C1539 C 0.89506 0.28118 0.57464 0.0
C1540 C 0.88284 0.29541 0.58136 0.0
C1541 C 0.89529 0.26311 0.54508 0.0
C1542 C 0.87158 0.228 0.47662 0.0
H1543 H 0.89929 0.15122 0.33081 0.0
H1544 H 0.90031 0.17223 0.39488 0.0
H1545 H 0.86185 0.20402 0.43417 0.0
H1546 H 0.86125 0.30182 0.56243 0.0
H1547 H 0.86181 0.27127 0.51006 0.0
H1548 H 0.9058 0.24805 0.47275 0.0
C1549 C 0.89265 0.17834 0.3733 0.0
C1550 C 0.87154 0.21329 0.44284 0.0
C1551 C 0.8921 0.16644 0.33675 0.0
C1552 C 0.87081 0.29103 0.55821 0.0
C1553 C 0.87111 0.2733 0.52828 0.0
C1554 C 0.89622 0.23803 0.46549 0.0
C1555 C 0.88325 0.1978 0.38198 0.0
C1556 C 0.8838 0.21093 0.42002 0.0
C1557 C 0.88337 0.25914 0.52115 0.0
C1558 C 0.88381 0.24116 0.48782 0.0
H1559 H 0.86579 0.20087 0.29504 0.0
H1560 H 0.86626 0.22068 0.35938 0.0
H1561 H 0.90578 0.22149 0.41466 0.0
H1562 H 0.90447 0.28397 0.59225 0.0
H1563 H 0.90484 0.2523 0.54101 0.0
C1564 C 0.62937 0.19706 0.18263 0.0
C1565 C 0.62006 0.17704 0.18814 0.0
C1566 C 0.62921 0.21061 0.14778 0.0
C1567 C 0.6157 0.2101 0.04489 0.0
H1568 H 0.62355 0.28077 0.05301 0.0
C1569 C 0.60683 0.28466 0.92206 0.0
C1570 C 0.61877 0.29948 0.91424 0.0
C1571 C 0.60687 0.26799 0.9536 0.0
C1572 C 0.62139 0.26104 0.05036 0.0
H1573 H 0.60332 0.15538 0.16153 0.0
H1574 H 0.60248 0.17987 0.10115 0.0
H1575 H 0.62345 0.25532 0.11196 0.0
H1576 H 0.64016 0.30812 0.93294 0.0
H1577 H 0.64002 0.27954 0.98852 0.0
H1578 H 0.61313 0.21646 0.98305 0.0
C1579 C 0.61023 0.18468 0.12327 0.0
C1580 C 0.62144 0.24635 0.08406 0.0
C1581 C 0.61059 0.17078 0.15799 0.0
C1582 C 0.6308 0.29697 0.93812 0.0
C1583 C 0.63073 0.2807 0.97 0.0
C1584 C 0.61539 0.22497 0.01117 0.0
C1585 C 0.61948 0.20495 0.11786 0.0
C1586 C 0.61882 0.22059 0.08179 0.0
C1587 C 0.61873 0.26626 0.97821 0.0
C1588 C 0.61843 0.25048 0.01366 0.0
H1589 H 0.6366 0.20265 0.20562 0.0
H1590 H 0.63672 0.22568 0.14451 0.0
H1591 H 0.61378 0.19033 0.04185 0.0
H1592 H 0.59743 0.28611 0.90406 0.0
H1593 H 0.59749 0.25706 0.95954 0.0
C1594 C 0.87227 0.71811 0.4206 0.0
C1595 C 0.88363 0.70165 0.41499 0.0
C1596 C 0.87273 0.73603 0.45027 0.0
C1597 C 0.89702 0.76666 0.52217 0.0
H1598 H 0.86217 0.77791 0.57944 0.0
C1599 C 0.89417 0.80576 0.67986 0.0
C1600 C 0.88389 0.82394 0.68766 0.0
C1601 C 0.8947 0.79406 0.6433 0.0
C1602 C 0.87194 0.77522 0.56339 0.0
H1603 H 0.9045 0.69134 0.43566 0.0
H1604 H 0.90512 0.72188 0.48836 0.0
H1605 H 0.86202 0.75117 0.52183 0.0
H1606 H 0.86633 0.84464 0.66332 0.0
H1607 H 0.86697 0.82358 0.59945 0.0
H1608 H 0.90699 0.78985 0.56531 0.0
C1609 C 0.89598 0.72151 0.46923 0.0
C1610 C 0.87187 0.75995 0.53022 0.0
C1611 C 0.8956 0.70384 0.43913 0.0
C1612 C 0.87428 0.83053 0.65803 0.0
C1613 C 0.87466 0.81855 0.62162 0.0
C1614 C 0.89711 0.78164 0.55572 0.0
C1615 C 0.88447 0.73766 0.47551 0.0
C1616 C 0.88444 0.75525 0.50935 0.0
C1617 C 0.88481 0.80005 0.61406 0.0
C1618 C 0.88459 0.78588 0.5768 0.0
H1619 H 0.86296 0.71708 0.40215 0.0
H1620 H 0.86381 0.74849 0.45355 0.0
H1621 H 0.90685 0.76391 0.50647 0.0
H1622 H 0.90154 0.8 0.70243 0.0
H1623 H 0.90251 0.77963 0.63841 0.0
C1624 C 0.3936 0.28194 0.92291 0.0
C1625 C 0.38161 0.29675 0.91604 0.0
C1626 C 0.3935 0.26394 0.95253 0.0
C1627 C 0.36916 0.23015 0.0209 0.0
H1628 H 0.40331 0.22154 0.08245 0.0
C1629 C 0.37062 0.19429 0.1801 0.0
C1630 C 0.38 0.17472 0.18835 0.0
C1631 C 0.37076 0.20589 0.14349 0.0
C1632 C 0.39377 0.22355 0.06515 0.0
H1633 H 0.36013 0.30431 0.9348 0.0
H1634 H 0.36014 0.27389 0.98734 0.0
H1635 H 0.40372 0.24837 0.02478 0.0
H1636 H 0.39686 0.15187 0.16481 0.0
H1637 H 0.39754 0.17306 0.10099 0.0
H1638 H 0.35908 0.20644 0.06306 0.0
C1639 C 0.36949 0.2754 0.96916 0.0
C1640 C 0.39398 0.23883 0.03197 0.0
C1641 C 0.3695 0.29305 0.93914 0.0
C1642 C 0.38958 0.16701 0.15925 0.0
C1643 C 0.38994 0.17902 0.12283 0.0
C1644 C 0.3689 0.21528 0.05449 0.0
C1645 C 0.3815 0.26063 0.9764 0.0
C1646 C 0.38161 0.24266 0.00972 0.0
C1647 C 0.38051 0.19853 0.11473 0.0
C1648 C 0.38115 0.21213 0.07712 0.0
H1649 H 0.40305 0.28421 0.90532 0.0
H1650 H 0.40286 0.25264 0.95667 0.0
H1651 H 0.35952 0.23207 0.00404 0.0
H1652 H 0.3634 0.20112 0.20226 0.0
H1653 H 0.36355 0.22116 0.13807 0.0
C1654 C 0.10756 0.80573 0.68172 0.0
C1655 C 0.11821 0.82334 0.68904 0.0
C1656 C 0.10679 0.79365 0.64551 0.0
C1657 C 0.12893 0.77338 0.56452 0.0
H1658 H 0.09348 0.76402 0.50921 0.0
C1659 C 0.1271 0.71917 0.41939 0.0
C1660 C 0.11571 0.70275 0.41388 0.0
C1661 C 0.12689 0.73658 0.44979 0.0
C1662 C 0.10344 0.76623 0.52446 0.0
H1663 H 0.13636 0.84225 0.6644 0.0
H1664 H 0.13523 0.82063 0.60111 0.0
H1665 H 0.09409 0.78939 0.56866 0.0
H1666 H 0.09499 0.69213 0.43531 0.0
H1667 H 0.09479 0.72193 0.48922 0.0
H1668 H 0.13824 0.74951 0.52167 0.0
C1669 C 0.12742 0.81636 0.62336 0.0
C1670 C 0.10379 0.78087 0.55839 0.0
C1671 C 0.12807 0.82869 0.65946 0.0
C1672 C 0.1039 0.70461 0.43871 0.0
C1673 C 0.10378 0.72181 0.46953 0.0
C1674 C 0.12856 0.75852 0.53092 0.0
C1675 C 0.11679 0.79865 0.61612 0.0
C1676 C 0.11652 0.78445 0.57885 0.0
C1677 C 0.11538 0.73775 0.47585 0.0
C1678 C 0.1158 0.75462 0.51054 0.0
H1679 H 0.10003 0.80077 0.70435 0.0
H1680 H 0.09864 0.77978 0.64096 0.0
H1681 H 0.13885 0.77553 0.58006 0.0
H1682 H 0.13628 0.71841 0.40043 0.0
H1683 H 0.13585 0.74894 0.45309 0.0
C1684 C 0.39011 0.80335 0.81576 0.0
C1685 C 0.37974 0.82124 0.8072 0.0
C1686 C 0.39032 0.79151 0.85216 0.0
C1687 C 0.36758 0.77142 0.93122 0.0
H1688 H 0.40248 0.76455 0.98999 0.0
C1689 C 0.36964 0.71524 0.07528 0.0
C1690 C 0.38163 0.70024 0.08116 0.0
C1691 C 0.36939 0.73291 0.04521 0.0
C1692 C 0.39267 0.76605 0.97379 0.0
H1693 H 0.36139 0.84066 0.8297 0.0
H1694 H 0.36148 0.81923 0.89332 0.0
H1695 H 0.40205 0.78994 0.9307 0.0
H1696 H 0.4028 0.69219 0.06035 0.0
H1697 H 0.40221 0.72227 0.00719 0.0
H1698 H 0.35831 0.74663 0.97289 0.0
C1699 C 0.36955 0.81471 0.8719 0.0
C1700 C 0.39243 0.78073 0.93999 0.0
C1701 C 0.36948 0.82689 0.83562 0.0
C1702 C 0.39344 0.70356 0.05675 0.0
C1703 C 0.39312 0.72098 0.02637 0.0
C1704 C 0.36787 0.75644 0.96472 0.0
C1705 C 0.38 0.79695 0.88047 0.0
C1706 C 0.37993 0.78328 0.91814 0.0
C1707 C 0.38105 0.73577 0.01998 0.0
C1708 C 0.38047 0.75327 0.98615 0.0
H1709 H 0.39791 0.7981 0.79402 0.0
H1710 H 0.39834 0.77755 0.85778 0.0
H1711 H 0.35785 0.7729 0.91463 0.0
H1712 H 0.36041 0.71329 0.09386 0.0
H1713 H 0.36002 0.74427 0.0417 0.0
C1714 C 0.12602 0.17211 0.33895 0.0
C1715 C 0.11665 0.17734 0.30812 0.0
C1716 C 0.1255 0.18589 0.37376 0.0
C1717 C 0.11202 0.24629 0.41184 0.0
H1718 H 0.12132 0.21784 0.51316 0.0
C1719 C 0.10402 0.29961 0.55648 0.0
C1720 C 0.11612 0.30141 0.58026 0.0
C1721 C 0.10366 0.28298 0.52501 0.0
C1722 C 0.11874 0.22596 0.48497 0.0
H1723 H 0.09921 0.20066 0.28963 0.0
H1724 H 0.09765 0.22361 0.35089 0.0
H1725 H 0.1211 0.19124 0.45491 0.0
H1726 H 0.13711 0.28648 0.59067 0.0
H1727 H 0.13631 0.257 0.53594 0.0
H1728 H 0.10935 0.28085 0.44219 0.0
C1729 C 0.10575 0.20948 0.34806 0.0
C1730 C 0.11868 0.21081 0.45156 0.0
C1731 C 0.10646 0.19602 0.31312 0.0
C1732 C 0.12766 0.2856 0.57275 0.0
C1733 C 0.12719 0.26866 0.54162 0.0
C1734 C 0.11186 0.26127 0.44525 0.0
C1735 C 0.11544 0.20499 0.37858 0.0
C1736 C 0.11533 0.2208 0.4145 0.0
C1737 C 0.11529 0.26754 0.51709 0.0
C1738 C 0.11524 0.25128 0.48208 0.0
H1739 H 0.13395 0.15769 0.33579 0.0
H1740 H 0.13323 0.18203 0.39635 0.0
H1741 H 0.10977 0.25488 0.3838 0.0
H1742 H 0.09496 0.31154 0.56146 0.0
H1743 H 0.09432 0.28232 0.50661 0.0
loop_
_geom_bond_atom_site_label_1
_geom_bond_atom_site_label_2
_geom_bond_distance
_geom_bond_site_symmetry_2
_ccdc_geom_bond_type
Co0 O3 1.970 . S
Co0 N17 1.989 . S
Co0 O25 1.967 . S
Co0 O32 1.920 . S
Co1 O4 1.966 . S
Co1 N10 2.022 . S
Co1 N18 1.993 . S
Co1 O26 1.941 . S
C2 O3 1.258 . S
C2 O4 1.263 . S
O3 Co0 1.970 . S
O3 C2 1.258 . S
O4 Co1 1.966 . S
O4 C2 1.263 . S
C5 O6 1.235 . S
C5 O32 1.289 . S
O6 C5 1.235 . S
C7 C9 1.400 . S
C7 N10 1.351 . S
C7 C12 1.501 . S
C8 C9 1.387 . S
C8 N11 1.341 . S
C9 C7 1.400 . S
C9 C8 1.387 . S
N10 Co1 2.022 . S
N10 C7 1.351 . S
N10 N11 1.365 . S
N11 C8 1.341 . S
N11 N10 1.365 . S
N11 H31 0.862 . S
C12 C7 1.501 . S
C12 H13 0.961 . S
C12 H14 0.961 . S
C12 H15 0.960 . S
H13 C12 0.961 . S
H14 C12 0.961 . S
H15 C12 0.960 . S
C16 N17 1.342 . S
C16 C20 1.401 . S
C16 C21 1.499 . S
N17 Co0 1.989 . S
N17 C16 1.342 . S
N17 N18 1.388 . S
N18 Co1 1.993 . S
N18 N17 1.388 . S
N18 C19 1.346 . S
C19 N18 1.346 . S
C19 C20 1.396 . S
C19 C29 1.510 . S
C20 C16 1.401 . S
C20 C19 1.396 . S
C21 C16 1.499 . S
C21 H22 0.959 . S
C21 H23 0.960 . S
C21 H24 0.961 . S
H22 C21 0.959 . S
H23 C21 0.960 . S
H24 C21 0.961 . S
O25 Co0 1.967 . S
O25 C33 1.258 . S
O26 Co1 1.941 . S
O26 C33 1.266 . S
H27 C29 0.959 . S
H28 C29 0.961 . S
C29 C19 1.510 . S
C29 H27 0.959 . S
C29 H28 0.961 . S
C29 H30 0.960 . S
H30 C29 0.960 . S
H31 N11 0.862 . S
O32 Co0 1.920 . S
O32 C5 1.289 . S
C33 O25 1.258 . S
C33 O26 1.266 . S
Co34 O37 1.970 . S
Co34 N51 1.989 . S
Co34 O59 1.967 . S
Co34 O66 1.920 . S
Co35 O38 1.966 . S
Co35 N44 2.022 . S
Co35 N52 1.993 . S
Co35 O60 1.941 . S
C36 O37 1.258 . S
C36 O38 1.263 . S
O37 Co34 1.970 . S
O37 C36 1.258 . S
O38 Co35 1.966 . S
O38 C36 1.263 . S
C39 O40 1.235 . S
C39 O66 1.289 . S
O40 C39 1.235 . S
C41 C43 1.400 . S
C41 N44 1.351 . S
C41 C46 1.501 . S
C42 C43 1.387 . S
C42 N45 1.341 . S
C43 C41 1.400 . S
C43 C42 1.387 . S
N44 Co35 2.022 . S
N44 C41 1.351 . S
N44 N45 1.365 . S
N45 C42 1.341 . S
N45 N44 1.365 . S
N45 H65 0.862 . S
C46 C41 1.501 . S
C46 H47 0.961 . S
C46 H48 0.961 . S
C46 H49 0.960 . S
H47 C46 0.961 . S
H48 C46 0.961 . S
H49 C46 0.960 . S
C50 N51 1.342 . S
C50 C54 1.401 . S
C50 C55 1.499 . S
N51 Co34 1.989 . S
N51 C50 1.342 . S
N51 N52 1.388 . S
N52 Co35 1.993 . S
N52 N51 1.388 . S
N52 C53 1.346 . S
C53 N52 1.346 . S
C53 C54 1.396 . S
C53 C63 1.510 . S
C54 C50 1.401 . S
C54 C53 1.396 . S
C55 C50 1.499 . S
C55 H56 0.959 . S
C55 H57 0.960 . S
C55 H58 0.961 . S
H56 C55 0.959 . S
H57 C55 0.960 . S
H58 C55 0.961 . S
O59 Co34 1.967 . S
O59 C67 1.258 . S
O60 Co35 1.941 . S
O60 C67 1.266 . S
H61 C63 0.959 . S
H62 C63 0.961 . S
C63 C53 1.510 . S
C63 H61 0.959 . S
C63 H62 0.961 . S
C63 H64 0.960 . S
H64 C63 0.960 . S
H65 N45 0.862 . S
O66 Co34 1.920 . S
O66 C39 1.289 . S
C67 O59 1.258 . S
C67 O60 1.266 . S
Co68 O71 1.970 . S
Co68 N85 1.989 . S
Co68 O93 1.967 . S
Co68 O100 1.920 . S
Co69 O72 1.966 . S
Co69 N78 2.022 . S
Co69 N86 1.993 . S
Co69 O94 1.941 . S
C70 O71 1.258 . S
C70 O72 1.263 . S
O71 Co68 1.970 . S
O71 C70 1.258 . S
O72 Co69 1.966 . S
O72 C70 1.263 . S
C73 O74 1.235 . S
C73 O100 1.289 . S
O74 C73 1.235 . S
C75 C77 1.400 . S
C75 N78 1.351 . S
C75 C80 1.501 . S
C76 C77 1.387 . S
C76 N79 1.341 . S
C77 C75 1.400 . S
C77 C76 1.387 . S
N78 Co69 2.022 . S
N78 C75 1.351 . S
N78 N79 1.365 . S
N79 C76 1.341 . S
N79 N78 1.365 . S
N79 H99 0.862 . S
C80 C75 1.501 . S
C80 H81 0.961 . S
C80 H82 0.961 . S
C80 H83 0.960 . S
H81 C80 0.961 . S
H82 C80 0.961 . S
H83 C80 0.960 . S
C84 N85 1.342 . S
C84 C88 1.401 . S
C84 C89 1.499 . S
N85 Co68 1.989 . S
N85 C84 1.342 . S
N85 N86 1.388 . S
N86 Co69 1.993 . S
N86 N85 1.388 . S
N86 C87 1.346 . S
C87 N86 1.346 . S
C87 C88 1.396 . S
C87 C97 1.510 . S
C88 C84 1.401 . S
C88 C87 1.396 . S
C89 C84 1.499 . S
C89 H90 0.959 . S
C89 H91 0.960 . S
C89 H92 0.961 . S
H90 C89 0.959 . S
H91 C89 0.960 . S
H92 C89 0.961 . S
O93 Co68 1.967 . S
O93 C101 1.258 . S
O94 Co69 1.941 . S
O94 C101 1.266 . S
H95 C97 0.959 . S
H96 C97 0.961 . S
C97 C87 1.510 . S
C97 H95 0.959 . S
C97 H96 0.961 . S
C97 H98 0.960 . S
H98 C97 0.960 . S
H99 N79 0.862 . S
O100 Co68 1.920 . S
O100 C73 1.289 . S
C101 O93 1.258 . S
C101 O94 1.266 . S
Co102 O105 1.970 . S
Co102 N119 1.989 . S
Co102 O127 1.967 . S
Co102 O134 1.920 . S
Co103 O106 1.966 . S
Co103 N112 2.022 . S
Co103 N120 1.993 . S
Co103 O128 1.941 . S
C104 O105 1.258 . S
C104 O106 1.263 . S
O105 Co102 1.970 . S
O105 C104 1.258 . S
O106 Co103 1.966 . S
O106 C104 1.263 . S
C107 O108 1.235 . S
C107 O134 1.289 . S
O108 C107 1.235 . S
C109 C111 1.400 . S
C109 N112 1.351 . S
C109 C114 1.501 . S
C110 C111 1.387 . S
C110 N113 1.341 . S
C111 C109 1.400 . S
C111 C110 1.387 . S
N112 Co103 2.022 . S
N112 C109 1.351 . S
N112 N113 1.365 . S
N113 C110 1.341 . S
N113 N112 1.365 . S
N113 H133 0.862 . S
C114 C109 1.501 . S
C114 H115 0.961 . S
C114 H116 0.961 . S
C114 H117 0.960 . S
H115 C114 0.961 . S
H116 C114 0.961 . S
H117 C114 0.960 . S
C118 N119 1.342 . S
C118 C122 1.401 . S
C118 C123 1.499 . S
N119 Co102 1.989 . S
N119 C118 1.342 . S
N119 N120 1.388 . S
N120 Co103 1.993 . S
N120 N119 1.388 . S
N120 C121 1.346 . S
C121 N120 1.346 . S
C121 C122 1.396 . S
C121 C131 1.510 . S
C122 C118 1.401 . S
C122 C121 1.396 . S
C123 C118 1.499 . S
C123 H124 0.959 . S
C123 H125 0.960 . S
C123 H126 0.961 . S
H124 C123 0.959 . S
H125 C123 0.960 . S
H126 C123 0.961 . S
O127 Co102 1.967 . S
O127 C135 1.258 . S
O128 Co103 1.941 . S
O128 C135 1.266 . S
H129 C131 0.959 . S
H130 C131 0.961 . S
C131 C121 1.510 . S
C131 H129 0.959 . S
C131 H130 0.961 . S
C131 H132 0.960 . S
H132 C131 0.960 . S
H133 N113 0.862 . S
O134 Co102 1.920 . S
O134 C107 1.289 . S
C135 O127 1.258 . S
C135 O128 1.266 . S
Co136 O139 1.970 . S
Co136 N153 1.989 . S
Co136 O161 1.967 . S
Co136 O168 1.920 . S
Co137 O140 1.966 . S
Co137 N146 2.022 . S
Co137 N154 1.993 . S
Co137 O162 1.941 . S
C138 O139 1.258 . S
C138 O140 1.263 . S
O139 Co136 1.970 . S
O139 C138 1.258 . S
O140 Co137 1.966 . S
O140 C138 1.263 . S
C141 O142 1.235 . S
C141 O168 1.289 . S
O142 C141 1.235 . S
C143 C145 1.400 . S
C143 N146 1.351 . S
C143 C148 1.501 . S
C144 C145 1.387 . S
C144 N147 1.341 . S
C145 C143 1.400 . S
C145 C144 1.387 . S
N146 Co137 2.022 . S
N146 C143 1.351 . S
N146 N147 1.365 . S
N147 C144 1.341 . S
N147 N146 1.365 . S
N147 H167 0.862 . S
C148 C143 1.501 . S
C148 H149 0.961 . S
C148 H150 0.961 . S
C148 H151 0.960 . S
H149 C148 0.961 . S
H150 C148 0.961 . S
H151 C148 0.960 . S
C152 N153 1.342 . S
C152 C156 1.401 . S
C152 C157 1.499 . S
N153 Co136 1.989 . S
N153 C152 1.342 . S
N153 N154 1.388 . S
N154 Co137 1.993 . S
N154 N153 1.388 . S
N154 C155 1.346 . S
C155 N154 1.346 . S
C155 C156 1.396 . S
C155 C165 1.510 . S
C156 C152 1.401 . S
C156 C155 1.396 . S
C157 C152 1.499 . S
C157 H158 0.959 . S
C157 H159 0.960 . S
C157 H160 0.961 . S
H158 C157 0.959 . S
H159 C157 0.960 . S
H160 C157 0.961 . S
O161 Co136 1.967 . S
O161 C169 1.258 . S
O162 Co137 1.941 . S
O162 C169 1.266 . S
H163 C165 0.959 . S
H164 C165 0.961 . S
C165 C155 1.510 . S
C165 H163 0.959 . S
C165 H164 0.961 . S
C165 H166 0.960 . S
H166 C165 0.960 . S
H167 N147 0.862 . S
O168 Co136 1.920 . S
O168 C141 1.289 . S
C169 O161 1.258 . S
C169 O162 1.266 . S
Co170 O173 1.970 . S
Co170 N187 1.989 . S
Co170 O195 1.967 . S
Co170 O202 1.920 . S
Co171 O174 1.966 . S
Co171 N180 2.022 . S
Co171 N188 1.993 . S
Co171 O196 1.941 . S
C172 O173 1.258 . S
C172 O174 1.263 . S
O173 Co170 1.970 . S
O173 C172 1.258 . S
O174 Co171 1.966 . S
O174 C172 1.263 . S
C175 O176 1.235 . S
C175 O202 1.289 . S
O176 C175 1.235 . S
C177 C179 1.400 . S
C177 N180 1.351 . S
C177 C182 1.501 . S
C178 C179 1.387 . S
C178 N181 1.341 . S
C179 C177 1.400 . S
C179 C178 1.387 . S
N180 Co171 2.022 . S
N180 C177 1.351 . S
N180 N181 1.365 . S
N181 C178 1.341 . S
N181 N180 1.365 . S
N181 H201 0.862 . S
C182 C177 1.501 . S
C182 H183 0.961 . S
C182 H184 0.961 . S
C182 H185 0.960 . S
H183 C182 0.961 . S
H184 C182 0.961 . S
H185 C182 0.960 . S
C186 N187 1.342 . S
C186 C190 1.401 . S
C186 C191 1.499 . S
N187 Co170 1.989 . S
N187 C186 1.342 . S
N187 N188 1.388 . S
N188 Co171 1.993 . S
N188 N187 1.388 . S
N188 C189 1.346 . S
C189 N188 1.346 . S
C189 C190 1.396 . S
C189 C199 1.510 . S
C190 C186 1.401 . S
C190 C189 1.396 . S
C191 C186 1.499 . S
C191 H192 0.959 . S
C191 H193 0.960 . S
C191 H194 0.961 . S
H192 C191 0.959 . S
H193 C191 0.960 . S
H194 C191 0.961 . S
O195 Co170 1.967 . S
O195 C203 1.258 . S
O196 Co171 1.941 . S
O196 C203 1.266 . S
H197 C199 0.959 . S
H198 C199 0.961 . S
C199 C189 1.510 . S
C199 H197 0.959 . S
C199 H198 0.961 . S
C199 H200 0.960 . S
H200 C199 0.960 . S
H201 N181 0.862 . S
O202 Co170 1.920 . S
O202 C175 1.289 . S
C203 O195 1.258 . S
C203 O196 1.266 . S
Co204 O207 1.970 . S
Co204 N221 1.989 . S
Co204 O229 1.967 . S
Co204 O236 1.920 . S
Co205 O208 1.966 . S
Co205 N214 2.022 . S
Co205 N222 1.993 . S
Co205 O230 1.941 . S
C206 O207 1.258 . S
C206 O208 1.263 . S
O207 Co204 1.970 . S
O207 C206 1.258 . S
O208 Co205 1.966 . S
O208 C206 1.263 . S
C209 O210 1.235 . S
C209 O236 1.289 . S
O210 C209 1.235 . S
C211 C213 1.400 . S
C211 N214 1.351 . S
C211 C216 1.501 . S
C212 C213 1.387 . S
C212 N215 1.341 . S
C213 C211 1.400 . S
C213 C212 1.387 . S
N214 Co205 2.022 . S
N214 C211 1.351 . S
N214 N215 1.365 . S
N215 C212 1.341 . S
N215 N214 1.365 . S
N215 H235 0.862 . S
C216 C211 1.501 . S
C216 H217 0.961 . S
C216 H218 0.961 . S
C216 H219 0.960 . S
H217 C216 0.961 . S
H218 C216 0.961 . S
H219 C216 0.960 . S
C220 N221 1.342 . S
C220 C224 1.401 . S
C220 C225 1.499 . S
N221 Co204 1.989 . S
N221 C220 1.342 . S
N221 N222 1.388 . S
N222 Co205 1.993 . S
N222 N221 1.388 . S
N222 C223 1.346 . S
C223 N222 1.346 . S
C223 C224 1.396 . S
C223 C233 1.510 . S
C224 C220 1.401 . S
C224 C223 1.396 . S
C225 C220 1.499 . S
C225 H226 0.959 . S
C225 H227 0.960 . S
C225 H228 0.961 . S
H226 C225 0.959 . S
H227 C225 0.960 . S
H228 C225 0.961 . S
O229 Co204 1.967 . S
O229 C237 1.258 . S
O230 Co205 1.941 . S
O230 C237 1.266 . S
H231 C233 0.959 . S
H232 C233 0.961 . S
C233 C223 1.510 . S
C233 H231 0.959 . S
C233 H232 0.961 . S
C233 H234 0.960 . S
H234 C233 0.960 . S
H235 N215 0.862 . S
O236 Co204 1.920 . S
O236 C209 1.289 . S
C237 O229 1.258 . S
C237 O230 1.266 . S
Co238 O241 1.970 . S
Co238 N255 1.989 . S
Co238 O263 1.967 . S
Co238 O270 1.920 . S
Co239 O242 1.966 . S
Co239 N248 2.022 . S
Co239 N256 1.993 . S
Co239 O264 1.941 . S
C240 O241 1.258 . S
C240 O242 1.263 . S
O241 Co238 1.970 . S
O241 C240 1.258 . S
O242 Co239 1.966 . S
O242 C240 1.263 . S
C243 O244 1.235 . S
C243 O270 1.289 . S
O244 C243 1.235 . S
C245 C247 1.400 . S
C245 N248 1.351 . S
C245 C250 1.501 . S
C246 C247 1.387 . S
C246 N249 1.341 . S
C247 C245 1.400 . S
C247 C246 1.387 . S
N248 Co239 2.022 . S
N248 C245 1.351 . S
N248 N249 1.365 . S
N249 C246 1.341 . S
N249 N248 1.365 . S
N249 H269 0.862 . S
C250 C245 1.501 . S
C250 H251 0.961 . S
C250 H252 0.961 . S
C250 H253 0.960 . S
H251 C250 0.961 . S
H252 C250 0.961 . S
H253 C250 0.960 . S
C254 N255 1.342 . S
C254 C258 1.401 . S
C254 C259 1.499 . S
N255 Co238 1.989 . S
N255 C254 1.342 . S
N255 N256 1.388 . S
N256 Co239 1.993 . S
N256 N255 1.388 . S
N256 C257 1.346 . S
C257 N256 1.346 . S
C257 C258 1.396 . S
C257 C267 1.510 . S
C258 C254 1.401 . S
C258 C257 1.396 . S
C259 C254 1.499 . S
C259 H260 0.959 . S
C259 H261 0.960 . S
C259 H262 0.961 . S
H260 C259 0.959 . S
H261 C259 0.960 . S
H262 C259 0.961 . S
O263 Co238 1.967 . S
O263 C271 1.258 . S
O264 Co239 1.941 . S
O264 C271 1.266 . S
H265 C267 0.959 . S
H266 C267 0.961 . S
C267 C257 1.510 . S
C267 H265 0.959 . S
C267 H266 0.961 . S
C267 H268 0.960 . S
H268 C267 0.960 . S
H269 N249 0.862 . S
O270 Co238 1.920 . S
O270 C243 1.289 . S
C271 O263 1.258 . S
C271 O264 1.266 . S
Co272 O275 1.970 . S
Co272 N289 1.989 . S
Co272 O297 1.967 . S
Co272 O304 1.920 . S
Co273 O276 1.966 . S
Co273 N282 2.022 . S
Co273 N290 1.993 . S
Co273 O298 1.941 . S
C274 O275 1.258 . S
C274 O276 1.263 . S
O275 Co272 1.970 . S
O275 C274 1.258 . S
O276 Co273 1.966 . S
O276 C274 1.263 . S
C277 O278 1.235 . S
C277 O304 1.289 . S
O278 C277 1.235 . S
C279 C281 1.400 . S
C279 N282 1.351 . S
C279 C284 1.501 . S
C280 C281 1.387 . S
C280 N283 1.341 . S
C281 C279 1.400 . S
C281 C280 1.387 . S
N282 Co273 2.022 . S
N282 C279 1.351 . S
N282 N283 1.365 . S
N283 C280 1.341 . S
N283 N282 1.365 . S
N283 H303 0.862 . S
C284 C279 1.501 . S
C284 H285 0.961 . S
C284 H286 0.961 . S
C284 H287 0.960 . S
H285 C284 0.961 . S
H286 C284 0.961 . S
H287 C284 0.960 . S
C288 N289 1.342 . S
C288 C292 1.401 . S
C288 C293 1.499 . S
N289 Co272 1.989 . S
N289 C288 1.342 . S
N289 N290 1.388 . S
N290 Co273 1.993 . S
N290 N289 1.388 . S
N290 C291 1.346 . S
C291 N290 1.346 . S
C291 C292 1.396 . S
C291 C301 1.510 . S
C292 C288 1.401 . S
C292 C291 1.396 . S
C293 C288 1.499 . S
C293 H294 0.959 . S
C293 H295 0.960 . S
C293 H296 0.961 . S
H294 C293 0.959 . S
H295 C293 0.960 . S
H296 C293 0.961 . S
O297 Co272 1.967 . S
O297 C305 1.258 . S
O298 Co273 1.941 . S
O298 C305 1.266 . S
H299 C301 0.959 . S
H300 C301 0.961 . S
C301 C291 1.510 . S
C301 H299 0.959 . S
C301 H300 0.961 . S
C301 H302 0.960 . S
H302 C301 0.960 . S
H303 N283 0.862 . S
O304 Co272 1.920 . S
O304 C277 1.289 . S
C305 O297 1.258 . S
C305 O298 1.266 . S
Co306 O309 1.970 . S
Co306 N323 1.989 . S
Co306 O331 1.967 . S
Co306 O338 1.920 . S
Co307 O310 1.966 . S
Co307 N316 2.022 . S
Co307 N324 1.993 . S
Co307 O332 1.941 . S
C308 O309 1.258 . S
C308 O310 1.263 . S
O309 Co306 1.970 . S
O309 C308 1.258 . S
O310 Co307 1.966 . S
O310 C308 1.263 . S
C311 O312 1.235 . S
C311 O338 1.289 . S
O312 C311 1.235 . S
C313 C315 1.400 . S
C313 N316 1.351 . S
C313 C318 1.501 . S
C314 C315 1.387 . S
C314 N317 1.341 . S
C315 C313 1.400 . S
C315 C314 1.387 . S
N316 Co307 2.022 . S
N316 C313 1.351 . S
N316 N317 1.365 . S
N317 C314 1.341 . S
N317 N316 1.365 . S
N317 H337 0.862 . S
C318 C313 1.501 . S
C318 H319 0.961 . S
C318 H320 0.961 . S
C318 H321 0.960 . S
H319 C318 0.961 . S
H320 C318 0.961 . S
H321 C318 0.960 . S
C322 N323 1.342 . S
C322 C326 1.401 . S
C322 C327 1.499 . S
N323 Co306 1.989 . S
N323 C322 1.342 . S
N323 N324 1.388 . S
N324 Co307 1.993 . S
N324 N323 1.388 . S
N324 C325 1.346 . S
C325 N324 1.346 . S
C325 C326 1.396 . S
C325 C335 1.510 . S
C326 C322 1.401 . S
C326 C325 1.396 . S
C327 C322 1.499 . S
C327 H328 0.959 . S
C327 H329 0.960 . S
C327 H330 0.961 . S
H328 C327 0.959 . S
H329 C327 0.960 . S
H330 C327 0.961 . S
O331 Co306 1.967 . S
O331 C339 1.258 . S
O332 Co307 1.941 . S
O332 C339 1.266 . S
H333 C335 0.959 . S
H334 C335 0.961 . S
C335 C325 1.510 . S
C335 H333 0.959 . S
C335 H334 0.961 . S
C335 H336 0.960 . S
H336 C335 0.960 . S
H337 N317 0.862 . S
O338 Co306 1.920 . S
O338 C311 1.289 . S
C339 O331 1.258 . S
C339 O332 1.266 . S
Co340 O343 1.970 . S
Co340 N357 1.989 . S
Co340 O365 1.967 . S
Co340 O372 1.920 . S
Co341 O344 1.966 . S
Co341 N350 2.022 . S
Co341 N358 1.993 . S
Co341 O366 1.941 . S
C342 O343 1.258 . S
C342 O344 1.263 . S
O343 Co340 1.970 . S
O343 C342 1.258 . S
O344 Co341 1.966 . S
O344 C342 1.263 . S
C345 O346 1.235 . S
C345 O372 1.289 . S
O346 C345 1.235 . S
C347 C349 1.400 . S
C347 N350 1.351 . S
C347 C352 1.501 . S
C348 C349 1.387 . S
C348 N351 1.341 . S
C349 C347 1.400 . S
C349 C348 1.387 . S
N350 Co341 2.022 . S
N350 C347 1.351 . S
N350 N351 1.365 . S
N351 C348 1.341 . S
N351 N350 1.365 . S
N351 H371 0.862 . S
C352 C347 1.501 . S
C352 H353 0.961 . S
C352 H354 0.961 . S
C352 H355 0.960 . S
H353 C352 0.961 . S
H354 C352 0.961 . S
H355 C352 0.960 . S
C356 N357 1.342 . S
C356 C360 1.401 . S
C356 C361 1.499 . S
N357 Co340 1.989 . S
N357 C356 1.342 . S
N357 N358 1.388 . S
N358 Co341 1.993 . S
N358 N357 1.388 . S
N358 C359 1.346 . S
C359 N358 1.346 . S
C359 C360 1.396 . S
C359 C369 1.510 . S
C360 C356 1.401 . S
C360 C359 1.396 . S
C361 C356 1.499 . S
C361 H362 0.959 . S
C361 H363 0.960 . S
C361 H364 0.961 . S
H362 C361 0.959 . S
H363 C361 0.960 . S
H364 C361 0.961 . S
O365 Co340 1.967 . S
O365 C373 1.258 . S
O366 Co341 1.941 . S
O366 C373 1.266 . S
H367 C369 0.959 . S
H368 C369 0.961 . S
C369 C359 1.510 . S
C369 H367 0.959 . S
C369 H368 0.961 . S
C369 H370 0.960 . S
H370 C369 0.960 . S
H371 N351 0.862 . S
O372 Co340 1.920 . S
O372 C345 1.289 . S
C373 O365 1.258 . S
C373 O366 1.266 . S
Co374 O377 1.970 . S
Co374 N391 1.989 . S
Co374 O399 1.967 . S
Co374 O406 1.920 . S
Co375 O378 1.966 . S
Co375 N384 2.022 . S
Co375 N392 1.993 . S
Co375 O400 1.941 . S
C376 O377 1.258 . S
C376 O378 1.263 . S
O377 Co374 1.970 . S
O377 C376 1.258 . S
O378 Co375 1.966 . S
O378 C376 1.263 . S
C379 O380 1.235 . S
C379 O406 1.289 . S
O380 C379 1.235 . S
C381 C383 1.400 . S
C381 N384 1.351 . S
C381 C386 1.501 . S
C382 C383 1.387 . S
C382 N385 1.341 . S
C383 C381 1.400 . S
C383 C382 1.387 . S
N384 Co375 2.022 . S
N384 C381 1.351 . S
N384 N385 1.365 . S
N385 C382 1.341 . S
N385 N384 1.365 . S
N385 H405 0.862 . S
C386 C381 1.501 . S
C386 H387 0.961 . S
C386 H388 0.961 . S
C386 H389 0.960 . S
H387 C386 0.961 . S
H388 C386 0.961 . S
H389 C386 0.960 . S
C390 N391 1.342 . S
C390 C394 1.401 . S
C390 C395 1.499 . S
N391 Co374 1.989 . S
N391 C390 1.342 . S
N391 N392 1.388 . S
N392 Co375 1.993 . S
N392 N391 1.388 . S
N392 C393 1.346 . S
C393 N392 1.346 . S
C393 C394 1.396 . S
C393 C403 1.510 . S
C394 C390 1.401 . S
C394 C393 1.396 . S
C395 C390 1.499 . S
C395 H396 0.959 . S
C395 H397 0.960 . S
C395 H398 0.961 . S
H396 C395 0.959 . S
H397 C395 0.960 . S
H398 C395 0.961 . S
O399 Co374 1.967 . S
O399 C407 1.258 . S
O400 Co375 1.941 . S
O400 C407 1.266 . S
H401 C403 0.959 . S
H402 C403 0.961 . S
C403 C393 1.510 . S
C403 H401 0.959 . S
C403 H402 0.961 . S
C403 H404 0.960 . S
H404 C403 0.960 . S
H405 N385 0.862 . S
O406 Co374 1.920 . S
O406 C379 1.289 . S
C407 O399 1.258 . S
C407 O400 1.266 . S
Co408 O411 1.970 . S
Co408 N425 1.989 . S
Co408 O433 1.967 . S
Co408 O440 1.920 . S
Co409 O412 1.966 . S
Co409 N418 2.022 . S
Co409 N426 1.993 . S
Co409 O434 1.941 . S
C410 O411 1.258 . S
C410 O412 1.263 . S
O411 Co408 1.970 . S
O411 C410 1.258 . S
O412 Co409 1.966 . S
O412 C410 1.263 . S
C413 O414 1.235 . S
C413 O440 1.289 . S
O414 C413 1.235 . S
C415 C417 1.400 . S
C415 N418 1.351 . S
C415 C420 1.501 . S
C416 C417 1.387 . S
C416 N419 1.341 . S
C417 C415 1.400 . S
C417 C416 1.387 . S
N418 Co409 2.022 . S
N418 C415 1.351 . S
N418 N419 1.365 . S
N419 C416 1.341 . S
N419 N418 1.365 . S
N419 H439 0.862 . S
C420 C415 1.501 . S
C420 H421 0.961 . S
C420 H422 0.961 . S
C420 H423 0.960 . S
H421 C420 0.961 . S
H422 C420 0.961 . S
H423 C420 0.960 . S
C424 N425 1.342 . S
C424 C428 1.401 . S
C424 C429 1.499 . S
N425 Co408 1.989 . S
N425 C424 1.342 . S
N425 N426 1.388 . S
N426 Co409 1.993 . S
N426 N425 1.388 . S
N426 C427 1.346 . S
C427 N426 1.346 . S
C427 C428 1.396 . S
C427 C437 1.510 . S
C428 C424 1.401 . S
C428 C427 1.396 . S
C429 C424 1.499 . S
C429 H430 0.959 . S
C429 H431 0.960 . S
C429 H432 0.961 . S
H430 C429 0.959 . S
H431 C429 0.960 . S
H432 C429 0.961 . S
O433 Co408 1.967 . S
O433 C441 1.258 . S
O434 Co409 1.941 . S
O434 C441 1.266 . S
H435 C437 0.959 . S
H436 C437 0.961 . S
C437 C427 1.510 . S
C437 H435 0.959 . S
C437 H436 0.961 . S
C437 H438 0.960 . S
H438 C437 0.960 . S
H439 N419 0.862 . S
O440 Co408 1.920 . S
O440 C413 1.289 . S
C441 O433 1.258 . S
C441 O434 1.266 . S
Co442 O445 1.970 . S
Co442 N459 1.989 . S
Co442 O467 1.967 . S
Co442 O474 1.920 . S
Co443 O446 1.966 . S
Co443 N452 2.022 . S
Co443 N460 1.993 . S
Co443 O468 1.941 . S
C444 O445 1.258 . S
C444 O446 1.263 . S
O445 Co442 1.970 . S
O445 C444 1.258 . S
O446 Co443 1.966 . S
O446 C444 1.263 . S
C447 O448 1.235 . S
C447 O474 1.289 . S
O448 C447 1.235 . S
C449 C451 1.400 . S
C449 N452 1.351 . S
C449 C454 1.501 . S
C450 C451 1.387 . S
C450 N453 1.341 . S
C451 C449 1.400 . S
C451 C450 1.387 . S
N452 Co443 2.022 . S
N452 C449 1.351 . S
N452 N453 1.365 . S
N453 C450 1.341 . S
N453 N452 1.365 . S
N453 H473 0.862 . S
C454 C449 1.501 . S
C454 H455 0.961 . S
C454 H456 0.961 . S
C454 H457 0.960 . S
H455 C454 0.961 . S
H456 C454 0.961 . S
H457 C454 0.960 . S
C458 N459 1.342 . S
C458 C462 1.401 . S
C458 C463 1.499 . S
N459 Co442 1.989 . S
N459 C458 1.342 . S
N459 N460 1.388 . S
N460 Co443 1.993 . S
N460 N459 1.388 . S
N460 C461 1.346 . S
C461 N460 1.346 . S
C461 C462 1.396 . S
C461 C471 1.510 . S
C462 C458 1.401 . S
C462 C461 1.396 . S
C463 C458 1.499 . S
C463 H464 0.959 . S
C463 H465 0.960 . S
C463 H466 0.961 . S
H464 C463 0.959 . S
H465 C463 0.960 . S
H466 C463 0.961 . S
O467 Co442 1.967 . S
O467 C475 1.258 . S
O468 Co443 1.941 . S
O468 C475 1.266 . S
H469 C471 0.959 . S
H470 C471 0.961 . S
C471 C461 1.510 . S
C471 H469 0.959 . S
C471 H470 0.961 . S
C471 H472 0.960 . S
H472 C471 0.960 . S
H473 N453 0.862 . S
O474 Co442 1.920 . S
O474 C447 1.289 . S
C475 O467 1.258 . S
C475 O468 1.266 . S
Co476 O479 1.970 . S
Co476 N493 1.989 . S
Co476 O501 1.967 . S
Co476 O508 1.920 . S
Co477 O480 1.966 . S
Co477 N486 2.022 . S
Co477 N494 1.993 . S
Co477 O502 1.941 . S
C478 O479 1.258 . S
C478 O480 1.263 . S
O479 Co476 1.970 . S
O479 C478 1.258 . S
O480 Co477 1.966 . S
O480 C478 1.263 . S
C481 O482 1.235 . S
C481 O508 1.289 . S
O482 C481 1.235 . S
C483 C485 1.400 . S
C483 N486 1.351 . S
C483 C488 1.501 . S
C484 C485 1.387 . S
C484 N487 1.341 . S
C485 C483 1.400 . S
C485 C484 1.387 . S
N486 Co477 2.022 . S
N486 C483 1.351 . S
N486 N487 1.365 . S
N487 C484 1.341 . S
N487 N486 1.365 . S
N487 H507 0.862 . S
C488 C483 1.501 . S
C488 H489 0.961 . S
C488 H490 0.961 . S
C488 H491 0.960 . S
H489 C488 0.961 . S
H490 C488 0.961 . S
H491 C488 0.960 . S
C492 N493 1.342 . S
C492 C496 1.401 . S
C492 C497 1.499 . S
N493 Co476 1.989 . S
N493 C492 1.342 . S
N493 N494 1.388 . S
N494 Co477 1.993 . S
N494 N493 1.388 . S
N494 C495 1.346 . S
C495 N494 1.346 . S
C495 C496 1.396 . S
C495 C505 1.510 . S
C496 C492 1.401 . S
C496 C495 1.396 . S
C497 C492 1.499 . S
C497 H498 0.959 . S
C497 H499 0.960 . S
C497 H500 0.961 . S
H498 C497 0.959 . S
H499 C497 0.960 . S
H500 C497 0.961 . S
O501 Co476 1.967 . S
O501 C509 1.258 . S
O502 Co477 1.941 . S
O502 C509 1.266 . S
H503 C505 0.959 . S
H504 C505 0.961 . S
C505 C495 1.510 . S
C505 H503 0.959 . S
C505 H504 0.961 . S
C505 H506 0.960 . S
H506 C505 0.960 . S
H507 N487 0.862 . S
O508 Co476 1.920 . S
O508 C481 1.289 . S
C509 O501 1.258 . S
C509 O502 1.266 . S
Co510 O513 1.970 . S
Co510 N527 1.989 . S
Co510 O535 1.967 . S
Co510 O542 1.920 . S
Co511 O514 1.966 . S
Co511 N520 2.022 . S
Co511 N528 1.993 . S
Co511 O536 1.941 . S
C512 O513 1.258 . S
C512 O514 1.263 . S
O513 Co510 1.970 . S
O513 C512 1.258 . S
O514 Co511 1.966 . S
O514 C512 1.263 . S
C515 O516 1.235 . S
C515 O542 1.289 . S
O516 C515 1.235 . S
C517 C519 1.400 . S
C517 N520 1.351 . S
C517 C522 1.501 . S
C518 C519 1.387 . S
C518 N521 1.341 . S
C519 C517 1.400 . S
C519 C518 1.387 . S
N520 Co511 2.022 . S
N520 C517 1.351 . S
N520 N521 1.365 . S
N521 C518 1.341 . S
N521 N520 1.365 . S
N521 H541 0.862 . S
C522 C517 1.501 . S
C522 H523 0.961 . S
C522 H524 0.961 . S
C522 H525 0.960 . S
H523 C522 0.961 . S
H524 C522 0.961 . S
H525 C522 0.960 . S
C526 N527 1.342 . S
C526 C530 1.401 . S
C526 C531 1.499 . S
N527 Co510 1.989 . S
N527 C526 1.342 . S
N527 N528 1.388 . S
N528 Co511 1.993 . S
N528 N527 1.388 . S
N528 C529 1.346 . S
C529 N528 1.346 . S
C529 C530 1.396 . S
C529 C539 1.510 . S
C530 C526 1.401 . S
C530 C529 1.396 . S
C531 C526 1.499 . S
C531 H532 0.959 . S
C531 H533 0.960 . S
C531 H534 0.961 . S
H532 C531 0.959 . S
H533 C531 0.960 . S
H534 C531 0.961 . S
O535 Co510 1.967 . S
O535 C543 1.258 . S
O536 Co511 1.941 . S
O536 C543 1.266 . S
H537 C539 0.959 . S
H538 C539 0.961 . S
C539 C529 1.510 . S
C539 H537 0.959 . S
C539 H538 0.961 . S
C539 H540 0.960 . S
H540 C539 0.960 . S
H541 N521 0.862 . S
O542 Co510 1.920 . S
O542 C515 1.289 . S
C543 O535 1.258 . S
C543 O536 1.266 . S
C544 C545 1.349 . S
C544 C546 1.327 . S
C544 H569 0.950 . S
C545 C544 1.349 . S
C545 C561 1.349 . S
C546 C544 1.327 . S
C546 C565 1.429 . S
C546 H570 0.950 . S
C547 C564 1.574 . S
C547 C566 1.368 . S
C547 H571 0.949 . S
H548 C552 0.949 . S
C549 C550 1.349 . S
C549 C551 1.327 . S
C549 H572 0.950 . S
C550 C549 1.349 . S
C550 C562 1.349 . S
C551 C549 1.327 . S
C551 C567 1.429 . S
C551 H573 0.950 . S
C552 H548 0.949 . S
C552 C560 1.574 . S
C552 C568 1.368 . S
H553 C561 0.950 . S
H554 C559 0.950 . S
H555 C560 0.949 . S
H556 C562 0.950 . S
H557 C563 0.950 . S
H558 C564 0.949 . S
C559 H554 0.950 . S
C559 C561 1.327 . S
C559 C565 1.429 . S
C560 C552 1.574 . S
C560 H555 0.949 . S
C560 C566 1.368 . S
C561 C545 1.349 . S
C561 H553 0.950 . S
C561 C559 1.327 . S
C562 C550 1.349 . S
C562 H556 0.950 . S
C562 C563 1.327 . S
C563 H557 0.950 . S
C563 C562 1.327 . S
C563 C567 1.429 . S
C564 C547 1.574 . S
C564 H558 0.949 . S
C564 C568 1.368 . S
C565 C546 1.429 . S
C565 C559 1.429 . S
C565 C566 1.523 . S
C566 C547 1.368 . S
C566 C560 1.368 . S
C566 C565 1.523 . S
C567 C551 1.429 . S
C567 C563 1.429 . S
C567 C568 1.523 . S
C568 C552 1.368 . S
C568 C564 1.368 . S
C568 C567 1.523 . S
H569 C544 0.950 . S
H570 C546 0.950 . S
H571 C547 0.949 . S
H572 C549 0.950 . S
H573 C551 0.950 . S
C574 C575 1.349 . S
C574 C576 1.327 . S
C574 H599 0.950 . S
C575 C574 1.349 . S
C575 C591 1.349 . S
C576 C574 1.327 . S
C576 C595 1.429 . S
C576 H600 0.950 . S
C577 C594 1.574 . S
C577 C596 1.368 . S
C577 H601 0.949 . S
H578 C582 0.949 . S
C579 C580 1.349 . S
C579 C581 1.327 . S
C579 H602 0.950 . S
C580 C579 1.349 . S
C580 C592 1.349 . S
C581 C579 1.327 . S
C581 C597 1.429 . S
C581 H603 0.950 . S
C582 H578 0.949 . S
C582 C590 1.574 . S
C582 C598 1.368 . S
H583 C591 0.950 . S
H584 C589 0.950 . S
H585 C590 0.949 . S
H586 C592 0.950 . S
H587 C593 0.950 . S
H588 C594 0.949 . S
C589 H584 0.950 . S
C589 C591 1.327 . S
C589 C595 1.429 . S
C590 C582 1.574 . S
C590 H585 0.949 . S
C590 C596 1.368 . S
C591 C575 1.349 . S
C591 H583 0.950 . S
C591 C589 1.327 . S
C592 C580 1.349 . S
C592 H586 0.950 . S
C592 C593 1.327 . S
C593 H587 0.950 . S
C593 C592 1.327 . S
C593 C597 1.429 . S
C594 C577 1.574 . S
C594 H588 0.949 . S
C594 C598 1.368 . S
C595 C576 1.429 . S
C595 C589 1.429 . S
C595 C596 1.523 . S
C596 C577 1.368 . S
C596 C590 1.368 . S
C596 C595 1.523 . S
C597 C581 1.429 . S
C597 C593 1.429 . S
C597 C598 1.523 . S
C598 C582 1.368 . S
C598 C594 1.368 . S
C598 C597 1.523 . S
H599 C574 0.950 . S
H600 C576 0.950 . S
H601 C577 0.949 . S
H602 C579 0.950 . S
H603 C581 0.950 . S
C604 C605 1.349 . S
C604 C606 1.327 . S
C604 H629 0.950 . S
C605 C604 1.349 . S
C605 C621 1.349 . S
C606 C604 1.327 . S
C606 C625 1.429 . S
C606 H630 0.950 . S
C607 C624 1.574 . S
C607 C626 1.368 . S
C607 H631 0.949 . S
H608 C612 0.949 . S
C609 C610 1.349 . S
C609 C611 1.327 . S
C609 H632 0.950 . S
C610 C609 1.349 . S
C610 C622 1.349 . S
C611 C609 1.327 . S
C611 C627 1.429 . S
C611 H633 0.950 . S
C612 H608 0.949 . S
C612 C620 1.574 . S
C612 C628 1.368 . S
H613 C621 0.950 . S
H614 C619 0.950 . S
H615 C620 0.949 . S
H616 C622 0.950 . S
H617 C623 0.950 . S
H618 C624 0.949 . S
C619 H614 0.950 . S
C619 C621 1.327 . S
C619 C625 1.429 . S
C620 C612 1.574 . S
C620 H615 0.949 . S
C620 C626 1.368 . S
C621 C605 1.349 . S
C621 H613 0.950 . S
C621 C619 1.327 . S
C622 C610 1.349 . S
C622 H616 0.950 . S
C622 C623 1.327 . S
C623 H617 0.950 . S
C623 C622 1.327 . S
C623 C627 1.429 . S
C624 C607 1.574 . S
C624 H618 0.949 . S
C624 C628 1.368 . S
C625 C606 1.429 . S
C625 C619 1.429 . S
C625 C626 1.523 . S
C626 C607 1.368 . S
C626 C620 1.368 . S
C626 C625 1.523 . S
C627 C611 1.429 . S
C627 C623 1.429 . S
C627 C628 1.523 . S
C628 C612 1.368 . S
C628 C624 1.368 . S
C628 C627 1.523 . S
H629 C604 0.950 . S
H630 C606 0.950 . S
H631 C607 0.949 . S
H632 C609 0.950 . S
H633 C611 0.950 . S
C634 C635 1.349 . S
C634 C636 1.327 . S
C634 H659 0.950 . S
C635 C634 1.349 . S
C635 C651 1.349 . S
C636 C634 1.327 . S
C636 C655 1.429 . S
C636 H660 0.950 . S
C637 C654 1.574 . S
C637 C656 1.368 . S
C637 H661 0.949 . S
H638 C642 0.949 . S
C639 C640 1.349 . S
C639 C641 1.327 . S
C639 H662 0.950 . S
C640 C639 1.349 . S
C640 C652 1.349 . S
C641 C639 1.327 . S
C641 C657 1.429 . S
C641 H663 0.950 . S
C642 H638 0.949 . S
C642 C650 1.574 . S
C642 C658 1.368 . S
H643 C651 0.950 . S
H644 C649 0.950 . S
H645 C650 0.949 . S
H646 C652 0.950 . S
H647 C653 0.950 . S
H648 C654 0.949 . S
C649 H644 0.950 . S
C649 C651 1.327 . S
C649 C655 1.429 . S
C650 C642 1.574 . S
C650 H645 0.949 . S
C650 C656 1.368 . S
C651 C635 1.349 . S
C651 H643 0.950 . S
C651 C649 1.327 . S
C652 C640 1.349 . S
C652 H646 0.950 . S
C652 C653 1.327 . S
C653 H647 0.950 . S
C653 C652 1.327 . S
C653 C657 1.429 . S
C654 C637 1.574 . S
C654 H648 0.949 . S
C654 C658 1.368 . S
C655 C636 1.429 . S
C655 C649 1.429 . S
C655 C656 1.523 . S
C656 C637 1.368 . S
C656 C650 1.368 . S
C656 C655 1.523 . S
C657 C641 1.429 . S
C657 C653 1.429 . S
C657 C658 1.523 . S
C658 C642 1.368 . S
C658 C654 1.368 . S
C658 C657 1.523 . S
H659 C634 0.950 . S
H660 C636 0.950 . S
H661 C637 0.949 . S
H662 C639 0.950 . S
H663 C641 0.950 . S
C664 C665 1.349 . S
C664 C666 1.327 . S
C664 H689 0.950 . S
C665 C664 1.349 . S
C665 C681 1.349 . S
C666 C664 1.327 . S
C666 C685 1.429 . S
C666 H690 0.950 . S
C667 C684 1.574 . S
C667 C686 1.368 . S
C667 H691 0.949 . S
H668 C672 0.949 . S
C669 C670 1.349 . S
C669 C671 1.327 . S
C669 H692 0.950 . S
C670 C669 1.349 . S
C670 C682 1.349 . S
C671 C669 1.327 . S
C671 C687 1.429 . S
C671 H693 0.950 . S
C672 H668 0.949 . S
C672 C680 1.574 . S
C672 C688 1.368 . S
H673 C681 0.950 . S
H674 C679 0.950 . S
H675 C680 0.949 . S
H676 C682 0.950 . S
H677 C683 0.950 . S
H678 C684 0.949 . S
C679 H674 0.950 . S
C679 C681 1.327 . S
C679 C685 1.429 . S
C680 C672 1.574 . S
C680 H675 0.949 . S
C680 C686 1.368 . S
C681 C665 1.349 . S
C681 H673 0.950 . S
C681 C679 1.327 . S
C682 C670 1.349 . S
C682 H676 0.950 . S
C682 C683 1.327 . S
C683 H677 0.950 . S
C683 C682 1.327 . S
C683 C687 1.429 . S
C684 C667 1.574 . S
C684 H678 0.949 . S
C684 C688 1.368 . S
C685 C666 1.429 . S
C685 C679 1.429 . S
C685 C686 1.523 . S
C686 C667 1.368 . S
C686 C680 1.368 . S
C686 C685 1.523 . S
C687 C671 1.429 . S
C687 C683 1.429 . S
C687 C688 1.523 . S
C688 C672 1.368 . S
C688 C684 1.368 . S
C688 C687 1.523 . S
H689 C664 0.950 . S
H690 C666 0.950 . S
H691 C667 0.949 . S
H692 C669 0.950 . S
H693 C671 0.950 . S
C694 C695 1.349 . S
C694 C696 1.327 . S
C694 H719 0.950 . S
C695 C694 1.349 . S
C695 C711 1.349 . S
C696 C694 1.327 . S
C696 C715 1.429 . S
C696 H720 0.950 . S
C697 C714 1.574 . S
C697 C716 1.368 . S
C697 H721 0.949 . S
H698 C702 0.949 . S
C699 C700 1.349 . S
C699 C701 1.327 . S
C699 H722 0.950 . S
C700 C699 1.349 . S
C700 C712 1.349 . S
C701 C699 1.327 . S
C701 C717 1.429 . S
C701 H723 0.950 . S
C702 H698 0.949 . S
C702 C710 1.574 . S
C702 C718 1.368 . S
H703 C711 0.950 . S
H704 C709 0.950 . S
H705 C710 0.949 . S
H706 C712 0.950 . S
H707 C713 0.950 . S
H708 C714 0.949 . S
C709 H704 0.950 . S
C709 C711 1.327 . S
C709 C715 1.429 . S
C710 C702 1.574 . S
C710 H705 0.949 . S
C710 C716 1.368 . S
C711 C695 1.349 . S
C711 H703 0.950 . S
C711 C709 1.327 . S
C712 C700 1.349 . S
C712 H706 0.950 . S
C712 C713 1.327 . S
C713 H707 0.950 . S
C713 C712 1.327 . S
C713 C717 1.429 . S
C714 C697 1.574 . S
C714 H708 0.949 . S
C714 C718 1.368 . S
C715 C696 1.429 . S
C715 C709 1.429 . S
C715 C716 1.523 . S
C716 C697 1.368 . S
C716 C710 1.368 . S
C716 C715 1.523 . S
C717 C701 1.429 . S
C717 C713 1.429 . S
C717 C718 1.523 . S
C718 C702 1.368 . S
C718 C714 1.368 . S
C718 C717 1.523 . S
H719 C694 0.950 . S
H720 C696 0.950 . S
H721 C697 0.949 . S
H722 C699 0.950 . S
H723 C701 0.950 . S
C724 C725 1.349 . S
C724 C726 1.327 . S
C724 H749 0.950 . S
C725 C724 1.349 . S
C725 C741 1.349 . S
C726 C724 1.327 . S
C726 C745 1.429 . S
C726 H750 0.950 . S
C727 C744 1.574 . S
C727 C746 1.368 . S
C727 H751 0.949 . S
H728 C732 0.949 . S
C729 C730 1.349 . S
C729 C731 1.327 . S
C729 H752 0.950 . S
C730 C729 1.349 . S
C730 C742 1.349 . S
C731 C729 1.327 . S
C731 C747 1.429 . S
C731 H753 0.950 . S
C732 H728 0.949 . S
C732 C740 1.574 . S
C732 C748 1.368 . S
H733 C741 0.950 . S
H734 C739 0.950 . S
H735 C740 0.949 . S
H736 C742 0.950 . S
H737 C743 0.950 . S
H738 C744 0.949 . S
C739 H734 0.950 . S
C739 C741 1.327 . S
C739 C745 1.429 . S
C740 C732 1.574 . S
C740 H735 0.949 . S
C740 C746 1.368 . S
C741 C725 1.349 . S
C741 H733 0.950 . S
C741 C739 1.327 . S
C742 C730 1.349 . S
C742 H736 0.950 . S
C742 C743 1.327 . S
C743 H737 0.950 . S
C743 C742 1.327 . S
C743 C747 1.429 . S
C744 C727 1.574 . S
C744 H738 0.949 . S
C744 C748 1.368 . S
C745 C726 1.429 . S
C745 C739 1.429 . S
C745 C746 1.523 . S
C746 C727 1.368 . S
C746 C740 1.368 . S
C746 C745 1.523 . S
C747 C731 1.429 . S
C747 C743 1.429 . S
C747 C748 1.523 . S
C748 C732 1.368 . S
C748 C744 1.368 . S
C748 C747 1.523 . S
H749 C724 0.950 . S
H750 C726 0.950 . S
H751 C727 0.949 . S
H752 C729 0.950 . S
H753 C731 0.950 . S
C754 C755 1.349 . S
C754 C756 1.327 . S
C754 H779 0.950 . S
C755 C754 1.349 . S
C755 C771 1.349 . S
C756 C754 1.327 . S
C756 C775 1.429 . S
C756 H780 0.950 . S
C757 C774 1.574 . S
C757 C776 1.368 . S
C757 H781 0.949 . S
H758 C762 0.949 . S
C759 C760 1.349 . S
C759 C761 1.327 . S
C759 H782 0.950 . S
C760 C759 1.349 . S
C760 C772 1.349 . S
C761 C759 1.327 . S
C761 C777 1.429 . S
C761 H783 0.950 . S
C762 H758 0.949 . S
C762 C770 1.574 . S
C762 C778 1.368 . S
H763 C771 0.950 . S
H764 C769 0.950 . S
H765 C770 0.949 . S
H766 C772 0.950 . S
H767 C773 0.950 . S
H768 C774 0.949 . S
C769 H764 0.950 . S
C769 C771 1.327 . S
C769 C775 1.429 . S
C770 C762 1.574 . S
C770 H765 0.949 . S
C770 C776 1.368 . S
C771 C755 1.349 . S
C771 H763 0.950 . S
C771 C769 1.327 . S
C772 C760 1.349 . S
C772 H766 0.950 . S
C772 C773 1.327 . S
C773 H767 0.950 . S
C773 C772 1.327 . S
C773 C777 1.429 . S
C774 C757 1.574 . S
C774 H768 0.949 . S
C774 C778 1.368 . S
C775 C756 1.429 . S
C775 C769 1.429 . S
C775 C776 1.523 . S
C776 C757 1.368 . S
C776 C770 1.368 . S
C776 C775 1.523 . S
C777 C761 1.429 . S
C777 C773 1.429 . S
C777 C778 1.523 . S
C778 C762 1.368 . S
C778 C774 1.368 . S
C778 C777 1.523 . S
H779 C754 0.950 . S
H780 C756 0.950 . S
H781 C757 0.949 . S
H782 C759 0.950 . S
H783 C761 0.950 . S
C784 C785 1.349 . S
C784 C786 1.327 . S
C784 H809 0.950 . S
C785 C784 1.349 . S
C785 C801 1.349 . S
C786 C784 1.327 . S
C786 C805 1.429 . S
C786 H810 0.950 . S
C787 C804 1.574 1_655 S
C787 C806 1.368 . S
C787 H811 0.949 . S
H788 C792 0.949 . S
C789 C790 1.349 . S
C789 C791 1.327 . S
C789 H812 0.950 . S
C790 C789 1.349 . S
C790 C802 1.349 . S
C791 C789 1.327 . S
C791 C807 1.429 . S
C791 H813 0.950 . S
C792 H788 0.949 . S
C792 C800 1.574 1_455 S
C792 C808 1.368 . S
H793 C801 0.950 . S
H794 C799 0.950 . S
H795 C800 0.949 . S
H796 C802 0.950 . S
H797 C803 0.950 . S
H798 C804 0.949 . S
C799 H794 0.950 . S
C799 C801 1.327 . S
C799 C805 1.429 . S
C800 C792 1.574 1_655 S
C800 H795 0.949 . S
C800 C806 1.368 . S
C801 C785 1.349 . S
C801 H793 0.950 . S
C801 C799 1.327 . S
C802 C790 1.349 . S
C802 H796 0.950 . S
C802 C803 1.327 . S
C803 H797 0.950 . S
C803 C802 1.327 . S
C803 C807 1.429 . S
C804 C787 1.574 1_455 S
C804 H798 0.949 . S
C804 C808 1.368 . S
C805 C786 1.429 . S
C805 C799 1.429 . S
C805 C806 1.523 . S
C806 C787 1.368 . S
C806 C800 1.368 . S
C806 C805 1.523 . S
C807 C791 1.429 . S
C807 C803 1.429 . S
C807 C808 1.523 . S
C808 C792 1.368 . S
C808 C804 1.368 . S
C808 C807 1.523 . S
H809 C784 0.950 . S
H810 C786 0.950 . S
H811 C787 0.949 . S
H812 C789 0.950 . S
H813 C791 0.950 . S
C814 C815 1.349 . S
C814 C816 1.327 . S
C814 H839 0.950 . S
C815 C814 1.349 . S
C815 C831 1.349 . S
C816 C814 1.327 . S
C816 C835 1.429 . S
C816 H840 0.950 . S
C817 C834 1.574 . S
C817 C836 1.368 . S
C817 H841 0.949 . S
H818 C822 0.949 . S
C819 C820 1.349 . S
C819 C821 1.327 . S
C819 H842 0.950 . S
C820 C819 1.349 . S
C820 C832 1.349 . S
C821 C819 1.327 . S
C821 C837 1.429 . S
C821 H843 0.950 . S
C822 H818 0.949 . S
C822 C830 1.574 . S
C822 C838 1.368 . S
H823 C831 0.950 . S
H824 C829 0.950 . S
H825 C830 0.949 . S
H826 C832 0.950 . S
H827 C833 0.950 . S
H828 C834 0.949 . S
C829 H824 0.950 . S
C829 C831 1.327 . S
C829 C835 1.429 . S
C830 C822 1.574 . S
C830 H825 0.949 . S
C830 C836 1.368 . S
C831 C815 1.349 . S
C831 H823 0.950 . S
C831 C829 1.327 . S
C832 C820 1.349 . S
C832 H826 0.950 . S
C832 C833 1.327 . S
C833 H827 0.950 . S
C833 C832 1.327 . S
C833 C837 1.429 . S
C834 C817 1.574 . S
C834 H828 0.949 . S
C834 C838 1.368 . S
C835 C816 1.429 . S
C835 C829 1.429 . S
C835 C836 1.523 . S
C836 C817 1.368 . S
C836 C830 1.368 . S
C836 C835 1.523 . S
C837 C821 1.429 . S
C837 C833 1.429 . S
C837 C838 1.523 . S
C838 C822 1.368 . S
C838 C834 1.368 . S
C838 C837 1.523 . S
H839 C814 0.950 . S
H840 C816 0.950 . S
H841 C817 0.949 . S
H842 C819 0.950 . S
H843 C821 0.950 . S
C844 C845 1.349 . S
C844 C846 1.327 . S
C844 H869 0.950 . S
C845 C844 1.349 . S
C845 C861 1.349 . S
C846 C844 1.327 . S
C846 C865 1.429 . S
C846 H870 0.950 . S
C847 C864 1.574 1_655 S
C847 C866 1.368 . S
C847 H871 0.949 . S
H848 C852 0.949 . S
C849 C850 1.349 . S
C849 C851 1.327 . S
C849 H872 0.950 . S
C850 C849 1.349 . S
C850 C862 1.349 . S
C851 C849 1.327 . S
C851 C867 1.429 . S
C851 H873 0.950 . S
C852 H848 0.949 . S
C852 C860 1.574 1_455 S
C852 C868 1.368 . S
H853 C861 0.950 . S
H854 C859 0.950 . S
H855 C860 0.949 . S
H856 C862 0.950 . S
H857 C863 0.950 . S
H858 C864 0.949 . S
C859 H854 0.950 . S
C859 C861 1.327 . S
C859 C865 1.429 . S
C860 C852 1.574 1_655 S
C860 H855 0.949 . S
C860 C866 1.368 . S
C861 C845 1.349 . S
C861 H853 0.950 . S
C861 C859 1.327 . S
C862 C850 1.349 . S
C862 H856 0.950 . S
C862 C863 1.327 . S
C863 H857 0.950 . S
C863 C862 1.327 . S
C863 C867 1.429 . S
C864 C847 1.574 1_455 S
C864 H858 0.949 . S
C864 C868 1.368 . S
C865 C846 1.429 . S
C865 C859 1.429 . S
C865 C866 1.523 . S
C866 C847 1.368 . S
C866 C860 1.368 . S
C866 C865 1.523 . S
C867 C851 1.429 . S
C867 C863 1.429 . S
C867 C868 1.523 . S
C868 C852 1.368 . S
C868 C864 1.368 . S
C868 C867 1.523 . S
H869 C844 0.950 . S
H870 C846 0.950 . S
H871 C847 0.949 . S
H872 C849 0.950 . S
H873 C851 0.950 . S
C874 C875 1.349 . S
C874 C876 1.327 . S
C874 H899 0.950 . S
C875 C874 1.349 . S
C875 C891 1.349 . S
C876 C874 1.327 . S
C876 C895 1.429 . S
C876 H900 0.950 . S
C877 C894 1.574 . S
C877 C896 1.368 . S
C877 H901 0.949 . S
H878 C882 0.949 . S
C879 C880 1.349 . S
C879 C881 1.327 . S
C879 H902 0.950 . S
C880 C879 1.349 . S
C880 C892 1.349 . S
C881 C879 1.327 . S
C881 C897 1.429 . S
C881 H903 0.950 . S
C882 H878 0.949 . S
C882 C890 1.574 . S
C882 C898 1.368 . S
H883 C891 0.950 . S
H884 C889 0.950 . S
H885 C890 0.949 . S
H886 C892 0.950 . S
H887 C893 0.950 . S
H888 C894 0.949 . S
C889 H884 0.950 . S
C889 C891 1.327 . S
C889 C895 1.429 . S
C890 C882 1.574 . S
C890 H885 0.949 . S
C890 C896 1.368 . S
C891 C875 1.349 . S
C891 H883 0.950 . S
C891 C889 1.327 . S
C892 C880 1.349 . S
C892 H886 0.950 . S
C892 C893 1.327 . S
C893 H887 0.950 . S
C893 C892 1.327 . S
C893 C897 1.429 . S
C894 C877 1.574 . S
C894 H888 0.949 . S
C894 C898 1.368 . S
C895 C876 1.429 . S
C895 C889 1.429 . S
C895 C896 1.523 . S
C896 C877 1.368 . S
C896 C890 1.368 . S
C896 C895 1.523 . S
C897 C881 1.429 . S
C897 C893 1.429 . S
C897 C898 1.523 . S
C898 C882 1.368 . S
C898 C894 1.368 . S
C898 C897 1.523 . S
H899 C874 0.950 . S
H900 C876 0.950 . S
H901 C877 0.949 . S
H902 C879 0.950 . S
H903 C881 0.950 . S
C904 C905 1.349 . S
C904 C906 1.327 . S
C904 H929 0.950 . S
C905 C904 1.349 . S
C905 C921 1.349 . S
C906 C904 1.327 . S
C906 C925 1.429 . S
C906 H930 0.950 . S
C907 C924 1.574 . S
C907 C926 1.368 . S
C907 H931 0.949 . S
H908 C912 0.949 . S
C909 C910 1.349 . S
C909 C911 1.327 . S
C909 H932 0.950 . S
C910 C909 1.349 . S
C910 C922 1.349 . S
C911 C909 1.327 . S
C911 C927 1.429 . S
C911 H933 0.950 . S
C912 H908 0.949 . S
C912 C920 1.574 . S
C912 C928 1.368 . S
H913 C921 0.950 . S
H914 C919 0.950 . S
H915 C920 0.949 . S
H916 C922 0.950 . S
H917 C923 0.950 . S
H918 C924 0.949 . S
C919 H914 0.950 . S
C919 C921 1.327 . S
C919 C925 1.429 . S
C920 C912 1.574 . S
C920 H915 0.949 . S
C920 C926 1.368 . S
C921 C905 1.349 . S
C921 H913 0.950 . S
C921 C919 1.327 . S
C922 C910 1.349 . S
C922 H916 0.950 . S
C922 C923 1.327 . S
C923 H917 0.950 . S
C923 C922 1.327 . S
C923 C927 1.429 . S
C924 C907 1.574 . S
C924 H918 0.949 . S
C924 C928 1.368 . S
C925 C906 1.429 . S
C925 C919 1.429 . S
C925 C926 1.523 . S
C926 C907 1.368 . S
C926 C920 1.368 . S
C926 C925 1.523 . S
C927 C911 1.429 . S
C927 C923 1.429 . S
C927 C928 1.523 . S
C928 C912 1.368 . S
C928 C924 1.368 . S
C928 C927 1.523 . S
H929 C904 0.950 . S
H930 C906 0.950 . S
H931 C907 0.949 . S
H932 C909 0.950 . S
H933 C911 0.950 . S
C934 C935 1.349 . S
C934 C936 1.327 . S
C934 H959 0.950 . S
C935 C934 1.349 . S
C935 C951 1.349 . S
C936 C934 1.327 . S
C936 C955 1.429 . S
C936 H960 0.950 . S
C937 C954 1.574 1_455 S
C937 C956 1.368 . S
C937 H961 0.949 . S
H938 C942 0.949 . S
C939 C940 1.349 . S
C939 C941 1.327 . S
C939 H962 0.950 . S
C940 C939 1.349 . S
C940 C952 1.349 . S
C941 C939 1.327 . S
C941 C957 1.429 . S
C941 H963 0.950 . S
C942 H938 0.949 . S
C942 C950 1.574 1_655 S
C942 C958 1.368 . S
H943 C951 0.950 . S
H944 C949 0.950 . S
H945 C950 0.949 . S
H946 C952 0.950 . S
H947 C953 0.950 . S
H948 C954 0.949 . S
C949 H944 0.950 . S
C949 C951 1.327 . S
C949 C955 1.429 . S
C950 C942 1.574 1_455 S
C950 H945 0.949 . S
C950 C956 1.368 . S
C951 C935 1.349 . S
C951 H943 0.950 . S
C951 C949 1.327 . S
C952 C940 1.349 . S
C952 H946 0.950 . S
C952 C953 1.327 . S
C953 H947 0.950 . S
C953 C952 1.327 . S
C953 C957 1.429 . S
C954 C937 1.574 1_655 S
C954 H948 0.949 . S
C954 C958 1.368 . S
C955 C936 1.429 . S
C955 C949 1.429 . S
C955 C956 1.523 . S
C956 C937 1.368 . S
C956 C950 1.368 . S
C956 C955 1.523 . S
C957 C941 1.429 . S
C957 C953 1.429 . S
C957 C958 1.523 . S
C958 C942 1.368 . S
C958 C954 1.368 . S
C958 C957 1.523 . S
H959 C934 0.950 . S
H960 C936 0.950 . S
H961 C937 0.949 . S
H962 C939 0.950 . S
H963 C941 0.950 . S
C964 C965 1.349 . S
C964 C966 1.327 . S
C964 H989 0.950 . S
C965 C964 1.349 . S
C965 C981 1.349 . S
C966 C964 1.327 . S
C966 C985 1.429 . S
C966 H990 0.950 . S
C967 C984 1.574 . S
C967 C986 1.368 . S
C967 H991 0.949 . S
H968 C972 0.949 . S
C969 C970 1.349 . S
C969 C971 1.327 . S
C969 H992 0.950 . S
C970 C969 1.349 . S
C970 C982 1.349 . S
C971 C969 1.327 . S
C971 C987 1.429 . S
C971 H993 0.950 . S
C972 H968 0.949 . S
C972 C980 1.574 . S
C972 C988 1.368 . S
H973 C981 0.950 . S
H974 C979 0.950 . S
H975 C980 0.949 . S
H976 C982 0.950 . S
H977 C983 0.950 . S
H978 C984 0.949 . S
C979 H974 0.950 . S
C979 C981 1.327 . S
C979 C985 1.429 . S
C980 C972 1.574 . S
C980 H975 0.949 . S
C980 C986 1.368 . S
C981 C965 1.349 . S
C981 H973 0.950 . S
C981 C979 1.327 . S
C982 C970 1.349 . S
C982 H976 0.950 . S
C982 C983 1.327 . S
C983 H977 0.950 . S
C983 C982 1.327 . S
C983 C987 1.429 . S
C984 C967 1.574 . S
C984 H978 0.949 . S
C984 C988 1.368 . S
C985 C966 1.429 . S
C985 C979 1.429 . S
C985 C986 1.523 . S
C986 C967 1.368 . S
C986 C980 1.368 . S
C986 C985 1.523 . S
C987 C971 1.429 . S
C987 C983 1.429 . S
C987 C988 1.523 . S
C988 C972 1.368 . S
C988 C984 1.368 . S
C988 C987 1.523 . S
H989 C964 0.950 . S
H990 C966 0.950 . S
H991 C967 0.949 . S
H992 C969 0.950 . S
H993 C971 0.950 . S
C994 C995 1.349 . S
C994 C996 1.327 . S
C994 H1019 0.950 . S
C995 C994 1.349 . S
C995 C1011 1.349 . S
C996 C994 1.327 . S
C996 C1015 1.429 . S
C996 H1020 0.950 . S
C997 C1014 1.574 1_655 S
C997 C1016 1.368 . S
C997 H1021 0.949 . S
H998 C1002 0.949 . S
C999 C1000 1.349 . S
C999 C1001 1.327 . S
C999 H1022 0.950 . S
C1000 C999 1.349 . S
C1000 C1012 1.349 . S
C1001 C999 1.327 . S
C1001 C1017 1.429 . S
C1001 H1023 0.950 . S
C1002 H998 0.949 . S
C1002 C1010 1.574 1_455 S
C1002 C1018 1.368 . S
H1003 C1011 0.950 . S
H1004 C1009 0.950 . S
H1005 C1010 0.949 . S
H1006 C1012 0.950 . S
H1007 C1013 0.950 . S
H1008 C1014 0.949 . S
C1009 H1004 0.950 . S
C1009 C1011 1.327 . S
C1009 C1015 1.429 . S
C1010 C1002 1.574 1_655 S
C1010 H1005 0.949 . S
C1010 C1016 1.368 . S
C1011 C995 1.349 . S
C1011 H1003 0.950 . S
C1011 C1009 1.327 . S
C1012 C1000 1.349 . S
C1012 H1006 0.950 . S
C1012 C1013 1.327 . S
C1013 H1007 0.950 . S
C1013 C1012 1.327 . S
C1013 C1017 1.429 . S
C1014 C997 1.574 1_455 S
C1014 H1008 0.949 . S
C1014 C1018 1.368 . S
C1015 C996 1.429 . S
C1015 C1009 1.429 . S
C1015 C1016 1.523 . S
C1016 C997 1.368 . S
C1016 C1010 1.368 . S
C1016 C1015 1.523 . S
C1017 C1001 1.429 . S
C1017 C1013 1.429 . S
C1017 C1018 1.523 . S
C1018 C1002 1.368 . S
C1018 C1014 1.368 . S
C1018 C1017 1.523 . S
H1019 C994 0.950 . S
H1020 C996 0.950 . S
H1021 C997 0.949 . S
H1022 C999 0.950 . S
H1023 C1001 0.950 . S
C1024 C1025 1.349 . S
C1024 C1026 1.327 . S
C1024 H1049 0.950 . S
C1025 C1024 1.349 . S
C1025 C1041 1.349 . S
C1026 C1024 1.327 . S
C1026 C1045 1.429 . S
C1026 H1050 0.950 . S
C1027 C1044 1.574 . S
C1027 C1046 1.368 1_565 S
C1027 H1051 0.949 . S
H1028 C1032 0.949 . S
C1029 C1030 1.349 . S
C1029 C1031 1.327 . S
C1029 H1052 0.950 . S
C1030 C1029 1.349 . S
C1030 C1042 1.349 . S
C1031 C1029 1.327 . S
C1031 C1047 1.429 . S
C1031 H1053 0.950 . S
C1032 H1028 0.949 . S
C1032 C1040 1.574 . S
C1032 C1048 1.368 1_545 S
H1033 C1041 0.950 . S
H1034 C1039 0.950 . S
H1035 C1040 0.949 . S
H1036 C1042 0.950 . S
H1037 C1043 0.950 . S
H1038 C1044 0.949 . S
C1039 H1034 0.950 . S
C1039 C1041 1.327 . S
C1039 C1045 1.429 . S
C1040 C1032 1.574 . S
C1040 H1035 0.949 . S
C1040 C1046 1.368 1_556 S
C1041 C1025 1.349 . S
C1041 H1033 0.950 . S
C1041 C1039 1.327 . S
C1042 C1030 1.349 . S
C1042 H1036 0.950 . S
C1042 C1043 1.327 . S
C1043 H1037 0.950 . S
C1043 C1042 1.327 . S
C1043 C1047 1.429 . S
C1044 C1027 1.574 . S
C1044 H1038 0.949 . S
C1044 C1048 1.368 1_554 S
C1045 C1026 1.429 . S
C1045 C1039 1.429 . S
C1045 C1046 1.523 . S
C1046 C1027 1.368 1_545 S
C1046 C1040 1.368 1_554 S
C1046 C1045 1.523 . S
C1047 C1031 1.429 . S
C1047 C1043 1.429 . S
C1047 C1048 1.523 . S
C1048 C1032 1.368 1_565 S
C1048 C1044 1.368 1_556 S
C1048 C1047 1.523 . S
H1049 C1024 0.950 . S
H1050 C1026 0.950 . S
H1051 C1027 0.949 . S
H1052 C1029 0.950 . S
H1053 C1031 0.950 . S
C1054 C1055 1.349 . S
C1054 C1056 1.327 . S
C1054 H1079 0.950 . S
C1055 C1054 1.349 . S
C1055 C1071 1.349 . S
C1056 C1054 1.327 . S
C1056 C1075 1.429 . S
C1056 H1080 0.950 . S
C1057 C1074 1.574 1_565 S
C1057 C1076 1.368 . S
C1057 H1081 0.949 . S
H1058 C1062 0.949 . S
C1059 C1060 1.349 . S
C1059 C1061 1.327 . S
C1059 H1082 0.950 . S
C1060 C1059 1.349 . S
C1060 C1072 1.349 . S
C1061 C1059 1.327 . S
C1061 C1077 1.429 . S
C1061 H1083 0.950 . S
C1062 H1058 0.949 . S
C1062 C1070 1.574 1_545 S
C1062 C1078 1.368 . S
H1063 C1071 0.950 . S
H1064 C1069 0.950 . S
H1065 C1070 0.949 . S
H1066 C1072 0.950 . S
H1067 C1073 0.950 . S
H1068 C1074 0.949 . S
C1069 H1064 0.950 . S
C1069 C1071 1.327 . S
C1069 C1075 1.429 . S
C1070 C1062 1.574 1_565 S
C1070 H1065 0.949 . S
C1070 C1076 1.368 . S
C1071 C1055 1.349 . S
C1071 H1063 0.950 . S
C1071 C1069 1.327 . S
C1072 C1060 1.349 . S
C1072 H1066 0.950 . S
C1072 C1073 1.327 . S
C1073 H1067 0.950 . S
C1073 C1072 1.327 . S
C1073 C1077 1.429 . S
C1074 C1057 1.574 1_545 S
C1074 H1068 0.949 . S
C1074 C1078 1.368 . S
C1075 C1056 1.429 . S
C1075 C1069 1.429 . S
C1075 C1076 1.523 . S
C1076 C1057 1.368 . S
C1076 C1070 1.368 . S
C1076 C1075 1.523 . S
C1077 C1061 1.429 . S
C1077 C1073 1.429 . S
C1077 C1078 1.523 . S
C1078 C1062 1.368 . S
C1078 C1074 1.368 . S
C1078 C1077 1.523 . S
H1079 C1054 0.950 . S
H1080 C1056 0.950 . S
H1081 C1057 0.949 . S
H1082 C1059 0.950 . S
H1083 C1061 0.950 . S
C1084 C1085 1.349 . S
C1084 C1086 1.327 . S
C1084 H1109 0.950 . S
C1085 C1084 1.349 . S
C1085 C1101 1.349 . S
C1086 C1084 1.327 . S
C1086 C1105 1.429 . S
C1086 H1110 0.950 . S
C1087 C1104 1.574 . S
C1087 C1106 1.368 1_554 S
C1087 H1111 0.949 . S
H1088 C1092 0.949 . S
C1089 C1090 1.349 . S
C1089 C1091 1.327 . S
C1089 H1112 0.950 . S
C1090 C1089 1.349 . S
C1090 C1102 1.349 . S
C1091 C1089 1.327 . S
C1091 C1107 1.429 . S
C1091 H1113 0.950 . S
C1092 H1088 0.949 . S
C1092 C1100 1.574 . S
C1092 C1108 1.368 1_556 S
H1093 C1101 0.950 . S
H1094 C1099 0.950 . S
H1095 C1100 0.949 . S
H1096 C1102 0.950 . S
H1097 C1103 0.950 . S
H1098 C1104 0.949 . S
C1099 H1094 0.950 . S
C1099 C1101 1.327 . S
C1099 C1105 1.429 . S
C1100 C1092 1.574 . S
C1100 H1095 0.949 . S
C1100 C1106 1.368 1_545 S
C1101 C1085 1.349 . S
C1101 H1093 0.950 . S
C1101 C1099 1.327 . S
C1102 C1090 1.349 . S
C1102 H1096 0.950 . S
C1102 C1103 1.327 . S
C1103 H1097 0.950 . S
C1103 C1102 1.327 . S
C1103 C1107 1.429 . S
C1104 C1087 1.574 . S
C1104 H1098 0.949 . S
C1104 C1108 1.368 1_565 S
C1105 C1086 1.429 . S
C1105 C1099 1.429 . S
C1105 C1106 1.523 . S
C1106 C1087 1.368 1_556 S
C1106 C1100 1.368 1_565 S
C1106 C1105 1.523 . S
C1107 C1091 1.429 . S
C1107 C1103 1.429 . S
C1107 C1108 1.523 . S
C1108 C1092 1.368 1_554 S
C1108 C1104 1.368 1_545 S
C1108 C1107 1.523 . S
H1109 C1084 0.950 . S
H1110 C1086 0.950 . S
H1111 C1087 0.949 . S
H1112 C1089 0.950 . S
H1113 C1091 0.950 . S
C1114 C1115 1.349 . S
C1114 C1116 1.327 . S
C1114 H1139 0.950 . S
C1115 C1114 1.349 . S
C1115 C1131 1.349 . S
C1116 C1114 1.327 . S
C1116 C1135 1.429 . S
C1116 H1140 0.950 . S
C1117 C1134 1.574 . S
C1117 C1136 1.368 1_565 S
C1117 H1141 0.949 . S
H1118 C1122 0.949 . S
C1119 C1120 1.349 . S
C1119 C1121 1.327 . S
C1119 H1142 0.950 . S
C1120 C1119 1.349 . S
C1120 C1132 1.349 . S
C1121 C1119 1.327 . S
C1121 C1137 1.429 . S
C1121 H1143 0.950 . S
C1122 H1118 0.949 . S
C1122 C1130 1.574 . S
C1122 C1138 1.368 1_545 S
H1123 C1131 0.950 . S
H1124 C1129 0.950 . S
H1125 C1130 0.949 . S
H1126 C1132 0.950 . S
H1127 C1133 0.950 . S
H1128 C1134 0.949 . S
C1129 H1124 0.950 . S
C1129 C1131 1.327 . S
C1129 C1135 1.429 . S
C1130 C1122 1.574 . S
C1130 H1125 0.949 . S
C1130 C1136 1.368 . S
C1131 C1115 1.349 . S
C1131 H1123 0.950 . S
C1131 C1129 1.327 . S
C1132 C1120 1.349 . S
C1132 H1126 0.950 . S
C1132 C1133 1.327 . S
C1133 H1127 0.950 . S
C1133 C1132 1.327 . S
C1133 C1137 1.429 . S
C1134 C1117 1.574 . S
C1134 H1128 0.949 . S
C1134 C1138 1.368 . S
C1135 C1116 1.429 . S
C1135 C1129 1.429 . S
C1135 C1136 1.523 . S
C1136 C1117 1.368 1_545 S
C1136 C1130 1.368 . S
C1136 C1135 1.523 . S
C1137 C1121 1.429 . S
C1137 C1133 1.429 . S
C1137 C1138 1.523 . S
C1138 C1122 1.368 1_565 S
C1138 C1134 1.368 . S
C1138 C1137 1.523 . S
H1139 C1114 0.950 . S
H1140 C1116 0.950 . S
H1141 C1117 0.949 . S
H1142 C1119 0.950 . S
H1143 C1121 0.950 . S
C1144 C1145 1.349 . S
C1144 C1146 1.327 . S
C1144 H1169 0.950 . S
C1145 C1144 1.349 . S
C1145 C1161 1.349 . S
C1146 C1144 1.327 . S
C1146 C1165 1.429 . S
C1146 H1170 0.950 . S
C1147 C1164 1.574 1_554 S
C1147 C1166 1.368 . S
C1147 H1171 0.949 . S
H1148 C1152 0.949 . S
C1149 C1150 1.349 . S
C1149 C1151 1.327 . S
C1149 H1172 0.950 . S
C1150 C1149 1.349 . S
C1150 C1162 1.349 . S
C1151 C1149 1.327 . S
C1151 C1167 1.429 . S
C1151 H1173 0.950 . S
C1152 H1148 0.949 . S
C1152 C1160 1.574 1_556 S
C1152 C1168 1.368 . S
H1153 C1161 0.950 . S
H1154 C1159 0.950 . S
H1155 C1160 0.949 . S
H1156 C1162 0.950 . S
H1157 C1163 0.950 . S
H1158 C1164 0.949 . S
C1159 H1154 0.950 . S
C1159 C1161 1.327 . S
C1159 C1165 1.429 . S
C1160 C1152 1.574 1_554 S
C1160 H1155 0.949 . S
C1160 C1166 1.368 . S
C1161 C1145 1.349 . S
C1161 H1153 0.950 . S
C1161 C1159 1.327 . S
C1162 C1150 1.349 . S
C1162 H1156 0.950 . S
C1162 C1163 1.327 . S
C1163 H1157 0.950 . S
C1163 C1162 1.327 . S
C1163 C1167 1.429 . S
C1164 C1147 1.574 1_556 S
C1164 H1158 0.949 . S
C1164 C1168 1.368 . S
C1165 C1146 1.429 . S
C1165 C1159 1.429 . S
C1165 C1166 1.523 . S
C1166 C1147 1.368 . S
C1166 C1160 1.368 . S
C1166 C1165 1.523 . S
C1167 C1151 1.429 . S
C1167 C1163 1.429 . S
C1167 C1168 1.523 . S
C1168 C1152 1.368 . S
C1168 C1164 1.368 . S
C1168 C1167 1.523 . S
H1169 C1144 0.950 . S
H1170 C1146 0.950 . S
H1171 C1147 0.949 . S
H1172 C1149 0.950 . S
H1173 C1151 0.950 . S
C1174 C1175 1.349 . S
C1174 C1176 1.327 . S
C1174 H1199 0.950 . S
C1175 C1174 1.349 . S
C1175 C1191 1.349 . S
C1176 C1174 1.327 . S
C1176 C1195 1.429 . S
C1176 H1200 0.950 . S
C1177 C1194 1.574 . S
C1177 C1196 1.368 . S
C1177 H1201 0.949 . S
H1178 C1182 0.949 . S
C1179 C1180 1.349 . S
C1179 C1181 1.327 . S
C1179 H1202 0.950 . S
C1180 C1179 1.349 . S
C1180 C1192 1.349 . S
C1181 C1179 1.327 . S
C1181 C1197 1.429 . S
C1181 H1203 0.950 . S
C1182 H1178 0.949 . S
C1182 C1190 1.574 . S
C1182 C1198 1.368 . S
H1183 C1191 0.950 . S
H1184 C1189 0.950 . S
H1185 C1190 0.949 . S
H1186 C1192 0.950 . S
H1187 C1193 0.950 . S
H1188 C1194 0.949 . S
C1189 H1184 0.950 . S
C1189 C1191 1.327 . S
C1189 C1195 1.429 . S
C1190 C1182 1.574 . S
C1190 H1185 0.949 . S
C1190 C1196 1.368 . S
C1191 C1175 1.349 . S
C1191 H1183 0.950 . S
C1191 C1189 1.327 . S
C1192 C1180 1.349 . S
C1192 H1186 0.950 . S
C1192 C1193 1.327 . S
C1193 H1187 0.950 . S
C1193 C1192 1.327 . S
C1193 C1197 1.429 . S
C1194 C1177 1.574 . S
C1194 H1188 0.949 . S
C1194 C1198 1.368 . S
C1195 C1176 1.429 . S
C1195 C1189 1.429 . S
C1195 C1196 1.523 . S
C1196 C1177 1.368 . S
C1196 C1190 1.368 . S
C1196 C1195 1.523 . S
C1197 C1181 1.429 . S
C1197 C1193 1.429 . S
C1197 C1198 1.523 . S
C1198 C1182 1.368 . S
C1198 C1194 1.368 . S
C1198 C1197 1.523 . S
H1199 C1174 0.950 . S
H1200 C1176 0.950 . S
H1201 C1177 0.949 . S
H1202 C1179 0.950 . S
H1203 C1181 0.950 . S
C1204 C1205 1.349 . S
C1204 C1206 1.327 . S
C1204 H1229 0.950 . S
C1205 C1204 1.349 . S
C1205 C1221 1.349 . S
C1206 C1204 1.327 . S
C1206 C1225 1.429 . S
C1206 H1230 0.950 . S
C1207 C1224 1.574 . S
C1207 C1226 1.368 1_554 S
C1207 H1231 0.949 . S
H1208 C1212 0.949 . S
C1209 C1210 1.349 . S
C1209 C1211 1.327 . S
C1209 H1232 0.950 . S
C1210 C1209 1.349 . S
C1210 C1222 1.349 . S
C1211 C1209 1.327 . S
C1211 C1227 1.429 . S
C1211 H1233 0.950 . S
C1212 H1208 0.949 . S
C1212 C1220 1.574 . S
C1212 C1228 1.368 1_556 S
H1213 C1221 0.950 . S
H1214 C1219 0.950 . S
H1215 C1220 0.949 . S
H1216 C1222 0.950 . S
H1217 C1223 0.950 . S
H1218 C1224 0.949 . S
C1219 H1214 0.950 . S
C1219 C1221 1.327 . S
C1219 C1225 1.429 . S
C1220 C1212 1.574 . S
C1220 H1215 0.949 . S
C1220 C1226 1.368 . S
C1221 C1205 1.349 . S
C1221 H1213 0.950 . S
C1221 C1219 1.327 . S
C1222 C1210 1.349 . S
C1222 H1216 0.950 . S
C1222 C1223 1.327 . S
C1223 H1217 0.950 . S
C1223 C1222 1.327 . S
C1223 C1227 1.429 . S
C1224 C1207 1.574 . S
C1224 H1218 0.949 . S
C1224 C1228 1.368 . S
C1225 C1206 1.429 . S
C1225 C1219 1.429 . S
C1225 C1226 1.523 . S
C1226 C1207 1.368 1_556 S
C1226 C1220 1.368 . S
C1226 C1225 1.523 . S
C1227 C1211 1.429 . S
C1227 C1223 1.429 . S
C1227 C1228 1.523 . S
C1228 C1212 1.368 1_554 S
C1228 C1224 1.368 . S
C1228 C1227 1.523 . S
H1229 C1204 0.950 . S
H1230 C1206 0.950 . S
H1231 C1207 0.949 . S
H1232 C1209 0.950 . S
H1233 C1211 0.950 . S
C1234 C1235 1.349 . S
C1234 C1236 1.327 . S
C1234 H1259 0.950 . S
C1235 C1234 1.349 . S
C1235 C1251 1.349 . S
C1236 C1234 1.327 . S
C1236 C1255 1.429 . S
C1236 H1260 0.950 . S
C1237 C1254 1.574 . S
C1237 C1256 1.368 . S
C1237 H1261 0.949 . S
H1238 C1242 0.949 . S
C1239 C1240 1.349 . S
C1239 C1241 1.327 . S
C1239 H1262 0.950 . S
C1240 C1239 1.349 . S
C1240 C1252 1.349 . S
C1241 C1239 1.327 . S
C1241 C1257 1.429 . S
C1241 H1263 0.950 . S
C1242 H1238 0.949 . S
C1242 C1250 1.574 . S
C1242 C1258 1.368 . S
H1243 C1251 0.950 . S
H1244 C1249 0.950 . S
H1245 C1250 0.949 . S
H1246 C1252 0.950 . S
H1247 C1253 0.950 . S
H1248 C1254 0.949 . S
C1249 H1244 0.950 . S
C1249 C1251 1.327 . S
C1249 C1255 1.429 . S
C1250 C1242 1.574 . S
C1250 H1245 0.949 . S
C1250 C1256 1.368 . S
C1251 C1235 1.349 . S
C1251 H1243 0.950 . S
C1251 C1249 1.327 . S
C1252 C1240 1.349 . S
C1252 H1246 0.950 . S
C1252 C1253 1.327 . S
C1253 H1247 0.950 . S
C1253 C1252 1.327 . S
C1253 C1257 1.429 . S
C1254 C1237 1.574 . S
C1254 H1248 0.949 . S
C1254 C1258 1.368 . S
C1255 C1236 1.429 . S
C1255 C1249 1.429 . S
C1255 C1256 1.523 . S
C1256 C1237 1.368 . S
C1256 C1250 1.368 . S
C1256 C1255 1.523 . S
C1257 C1241 1.429 . S
C1257 C1253 1.429 . S
C1257 C1258 1.523 . S
C1258 C1242 1.368 . S
C1258 C1254 1.368 . S
C1258 C1257 1.523 . S
H1259 C1234 0.950 . S
H1260 C1236 0.950 . S
H1261 C1237 0.949 . S
H1262 C1239 0.950 . S
H1263 C1241 0.950 . S
C1264 C1265 1.349 . S
C1264 C1266 1.327 . S
C1264 H1289 0.950 . S
C1265 C1264 1.349 . S
C1265 C1281 1.349 . S
C1266 C1264 1.327 . S
C1266 C1285 1.429 . S
C1266 H1290 0.950 . S
C1267 C1284 1.574 . S
C1267 C1286 1.368 . S
C1267 H1291 0.949 . S
H1268 C1272 0.949 . S
C1269 C1270 1.349 . S
C1269 C1271 1.327 . S
C1269 H1292 0.950 . S
C1270 C1269 1.349 . S
C1270 C1282 1.349 . S
C1271 C1269 1.327 . S
C1271 C1287 1.429 1_554 S
C1271 H1293 0.950 . S
C1272 H1268 0.949 . S
C1272 C1280 1.574 . S
C1272 C1288 1.368 . S
H1273 C1281 0.950 . S
H1274 C1279 0.950 . S
H1275 C1280 0.949 . S
H1276 C1282 0.950 . S
H1277 C1283 0.950 . S
H1278 C1284 0.949 . S
C1279 H1274 0.950 . S
C1279 C1281 1.327 . S
C1279 C1285 1.429 . S
C1280 C1272 1.574 . S
C1280 H1275 0.949 . S
C1280 C1286 1.368 . S
C1281 C1265 1.349 . S
C1281 H1273 0.950 . S
C1281 C1279 1.327 . S
C1282 C1270 1.349 . S
C1282 H1276 0.950 . S
C1282 C1283 1.327 1_554 S
C1283 H1277 0.950 . S
C1283 C1282 1.327 1_556 S
C1283 C1287 1.429 . S
C1284 C1267 1.574 . S
C1284 H1278 0.949 . S
C1284 C1288 1.368 . S
C1285 C1266 1.429 . S
C1285 C1279 1.429 . S
C1285 C1286 1.523 . S
C1286 C1267 1.368 . S
C1286 C1280 1.368 . S
C1286 C1285 1.523 . S
C1287 C1271 1.429 1_556 S
C1287 C1283 1.429 . S
C1287 C1288 1.523 . S
C1288 C1272 1.368 . S
C1288 C1284 1.368 . S
C1288 C1287 1.523 . S
H1289 C1264 0.950 . S
H1290 C1266 0.950 . S
H1291 C1267 0.949 . S
H1292 C1269 0.950 . S
H1293 C1271 0.950 . S
C1294 C1295 1.349 . S
C1294 C1296 1.327 . S
C1294 H1319 0.950 . S
C1295 C1294 1.349 . S
C1295 C1311 1.349 . S
C1296 C1294 1.327 . S
C1296 C1315 1.429 . S
C1296 H1320 0.950 . S
C1297 C1314 1.574 . S
C1297 C1316 1.368 . S
C1297 H1321 0.949 . S
H1298 C1302 0.949 . S
C1299 C1300 1.349 . S
C1299 C1301 1.327 . S
C1299 H1322 0.950 . S
C1300 C1299 1.349 . S
C1300 C1312 1.349 . S
C1301 C1299 1.327 . S
C1301 C1317 1.429 . S
C1301 H1323 0.950 . S
C1302 H1298 0.949 . S
C1302 C1310 1.574 . S
C1302 C1318 1.368 . S
H1303 C1311 0.950 . S
H1304 C1309 0.950 . S
H1305 C1310 0.949 . S
H1306 C1312 0.950 . S
H1307 C1313 0.950 . S
H1308 C1314 0.949 . S
C1309 H1304 0.950 . S
C1309 C1311 1.327 . S
C1309 C1315 1.429 . S
C1310 C1302 1.574 . S
C1310 H1305 0.949 . S
C1310 C1316 1.368 . S
C1311 C1295 1.349 . S
C1311 H1303 0.950 . S
C1311 C1309 1.327 . S
C1312 C1300 1.349 . S
C1312 H1306 0.950 . S
C1312 C1313 1.327 . S
C1313 H1307 0.950 . S
C1313 C1312 1.327 . S
C1313 C1317 1.429 . S
C1314 C1297 1.574 . S
C1314 H1308 0.949 . S
C1314 C1318 1.368 . S
C1315 C1296 1.429 . S
C1315 C1309 1.429 . S
C1315 C1316 1.523 . S
C1316 C1297 1.368 . S
C1316 C1310 1.368 . S
C1316 C1315 1.523 . S
C1317 C1301 1.429 . S
C1317 C1313 1.429 . S
C1317 C1318 1.523 . S
C1318 C1302 1.368 . S
C1318 C1314 1.368 . S
C1318 C1317 1.523 . S
H1319 C1294 0.950 . S
H1320 C1296 0.950 . S
H1321 C1297 0.949 . S
H1322 C1299 0.950 . S
H1323 C1301 0.950 . S
C1324 C1325 1.349 . S
C1324 C1326 1.346 . S
C1324 H1349 0.950 . S
C1325 C1324 1.349 . S
C1325 C1341 1.349 . S
C1326 C1324 1.346 . S
C1326 C1345 1.424 1_556 S
C1326 H1350 0.935 1_556 S
C1327 C1344 1.574 . S
C1327 C1346 1.368 . S
C1327 H1351 0.949 . S
H1328 C1332 0.949 . S
C1329 C1330 1.349 . S
C1329 C1331 1.327 . S
C1329 H1352 0.950 . S
C1330 C1329 1.349 . S
C1330 C1342 1.349 . S
C1331 C1329 1.327 . S
C1331 C1347 1.429 . S
C1331 H1353 0.950 . S
C1332 H1328 0.949 . S
C1332 C1340 1.574 . S
C1332 C1348 1.368 . S
H1333 C1341 0.950 . S
H1334 C1339 0.950 . S
H1335 C1340 0.949 . S
H1336 C1342 0.950 . S
H1337 C1343 0.950 . S
H1338 C1344 0.949 . S
C1339 H1334 0.950 . S
C1339 C1341 1.327 . S
C1339 C1345 1.429 1_556 S
C1340 C1332 1.574 . S
C1340 H1335 0.949 . S
C1340 C1346 1.368 . S
C1341 C1325 1.349 . S
C1341 H1333 0.950 . S
C1341 C1339 1.327 . S
C1342 C1330 1.349 . S
C1342 H1336 0.950 . S
C1342 C1343 1.327 . S
C1343 H1337 0.950 . S
C1343 C1342 1.327 . S
C1343 C1347 1.429 . S
C1344 C1327 1.574 . S
C1344 H1338 0.949 . S
C1344 C1348 1.368 . S
C1345 C1326 1.424 1_554 S
C1345 C1339 1.429 1_554 S
C1345 C1346 1.523 . S
C1346 C1327 1.368 . S
C1346 C1340 1.368 . S
C1346 C1345 1.523 . S
C1347 C1331 1.429 . S
C1347 C1343 1.429 . S
C1347 C1348 1.523 . S
C1348 C1332 1.368 . S
C1348 C1344 1.368 . S
C1348 C1347 1.523 . S
H1349 C1324 0.950 . S
H1350 C1326 0.935 1_554 S
H1351 C1327 0.949 . S
H1352 C1329 0.950 . S
H1353 C1331 0.950 . S
C1354 C1355 1.349 . S
C1354 C1356 1.327 . S
C1354 H1379 0.950 . S
C1355 C1354 1.349 . S
C1355 C1371 1.349 . S
C1356 C1354 1.327 . S
C1356 C1375 1.429 . S
C1356 H1380 0.950 . S
C1357 C1374 1.574 . S
C1357 C1376 1.368 . S
C1357 H1381 0.949 . S
H1358 C1362 0.949 . S
C1359 C1360 1.349 . S
C1359 C1361 1.327 . S
C1359 H1382 0.950 . S
C1360 C1359 1.349 . S
C1360 C1372 1.349 . S
C1361 C1359 1.327 . S
C1361 C1377 1.429 . S
C1361 H1383 0.950 . S
C1362 H1358 0.949 . S
C1362 C1370 1.574 . S
C1362 C1378 1.368 . S
H1363 C1371 0.950 . S
H1364 C1369 0.950 . S
H1365 C1370 0.949 . S
H1366 C1372 0.950 . S
H1367 C1373 0.950 . S
H1368 C1374 0.949 . S
C1369 H1364 0.950 . S
C1369 C1371 1.327 . S
C1369 C1375 1.429 . S
C1370 C1362 1.574 . S
C1370 H1365 0.949 . S
C1370 C1376 1.368 . S
C1371 C1355 1.349 . S
C1371 H1363 0.950 . S
C1371 C1369 1.327 . S
C1372 C1360 1.349 . S
C1372 H1366 0.950 . S
C1372 C1373 1.327 . S
C1373 H1367 0.950 . S
C1373 C1372 1.327 . S
C1373 C1377 1.429 . S
C1374 C1357 1.574 . S
C1374 H1368 0.949 . S
C1374 C1378 1.368 . S
C1375 C1356 1.429 . S
C1375 C1369 1.429 . S
C1375 C1376 1.523 . S
C1376 C1357 1.368 . S
C1376 C1370 1.368 . S
C1376 C1375 1.523 . S
C1377 C1361 1.429 . S
C1377 C1373 1.429 . S
C1377 C1378 1.523 . S
C1378 C1362 1.368 . S
C1378 C1374 1.368 . S
C1378 C1377 1.523 . S
H1379 C1354 0.950 . S
H1380 C1356 0.950 . S
H1381 C1357 0.949 . S
H1382 C1359 0.950 . S
H1383 C1361 0.950 . S
C1384 C1385 1.349 . S
C1384 C1386 1.327 . S
C1384 H1409 0.950 . S
C1385 C1384 1.349 . S
C1385 C1401 1.349 . S
C1386 C1384 1.327 . S
C1386 C1405 1.429 . S
C1386 H1410 0.950 . S
C1387 C1404 1.574 . S
C1387 C1406 1.368 . S
C1387 H1411 0.949 . S
H1388 C1392 0.949 . S
C1389 C1390 1.349 . S
C1389 C1391 1.327 1_556 S
C1389 H1412 0.950 . S
C1390 C1389 1.349 . S
C1390 C1402 1.349 . S
C1391 C1389 1.327 1_554 S
C1391 C1407 1.429 . S
C1391 H1413 0.950 . S
C1392 H1388 0.949 . S
C1392 C1400 1.574 . S
C1392 C1408 1.368 . S
H1393 C1401 0.950 . S
H1394 C1399 0.950 . S
H1395 C1400 0.949 . S
H1396 C1402 0.950 . S
H1397 C1403 0.950 . S
H1398 C1404 0.949 . S
C1399 H1394 0.950 . S
C1399 C1401 1.327 . S
C1399 C1405 1.429 . S
C1400 C1392 1.574 . S
C1400 H1395 0.949 . S
C1400 C1406 1.368 . S
C1401 C1385 1.349 . S
C1401 H1393 0.950 . S
C1401 C1399 1.327 . S
C1402 C1390 1.349 . S
C1402 H1396 0.950 . S
C1402 C1403 1.327 . S
C1403 H1397 0.950 . S
C1403 C1402 1.327 . S
C1403 C1407 1.429 1_556 S
C1404 C1387 1.574 . S
C1404 H1398 0.949 . S
C1404 C1408 1.368 . S
C1405 C1386 1.429 . S
C1405 C1399 1.429 . S
C1405 C1406 1.523 . S
C1406 C1387 1.368 . S
C1406 C1400 1.368 . S
C1406 C1405 1.523 . S
C1407 C1391 1.429 . S
C1407 C1403 1.429 1_554 S
C1407 C1408 1.523 . S
C1408 C1392 1.368 . S
C1408 C1404 1.368 . S
C1408 C1407 1.523 . S
H1409 C1384 0.950 . S
H1410 C1386 0.950 . S
H1411 C1387 0.949 . S
H1412 C1389 0.950 . S
H1413 C1391 0.950 . S
C1414 C1415 1.349 . S
C1414 C1416 1.327 . S
C1414 H1439 0.950 . S
C1415 C1414 1.349 . S
C1415 C1431 1.349 . S
C1416 C1414 1.327 . S
C1416 C1435 1.429 . S
C1416 H1440 0.950 . S
C1417 C1434 1.574 . S
C1417 C1436 1.368 . S
C1417 H1441 0.949 . S
H1418 C1422 0.949 . S
C1419 C1420 1.349 . S
C1419 C1421 1.327 . S
C1419 H1442 0.950 . S
C1420 C1419 1.349 . S
C1420 C1432 1.349 . S
C1421 C1419 1.327 . S
C1421 C1437 1.429 . S
C1421 H1443 0.950 . S
C1422 H1418 0.949 . S
C1422 C1430 1.574 . S
C1422 C1438 1.368 . S
H1423 C1431 0.950 . S
H1424 C1429 0.950 . S
H1425 C1430 0.949 . S
H1426 C1432 0.950 . S
H1427 C1433 0.950 . S
H1428 C1434 0.949 . S
C1429 H1424 0.950 . S
C1429 C1431 1.327 . S
C1429 C1435 1.429 . S
C1430 C1422 1.574 . S
C1430 H1425 0.949 . S
C1430 C1436 1.368 . S
C1431 C1415 1.349 . S
C1431 H1423 0.950 . S
C1431 C1429 1.327 . S
C1432 C1420 1.349 . S
C1432 H1426 0.950 . S
C1432 C1433 1.327 . S
C1433 H1427 0.950 . S
C1433 C1432 1.327 . S
C1433 C1437 1.429 . S
C1434 C1417 1.574 . S
C1434 H1428 0.949 . S
C1434 C1438 1.368 . S
C1435 C1416 1.429 . S
C1435 C1429 1.429 . S
C1435 C1436 1.523 . S
C1436 C1417 1.368 . S
C1436 C1430 1.368 . S
C1436 C1435 1.523 . S
C1437 C1421 1.429 . S
C1437 C1433 1.429 . S
C1437 C1438 1.523 . S
C1438 C1422 1.368 . S
C1438 C1434 1.368 . S
C1438 C1437 1.523 . S
H1439 C1414 0.950 . S
H1440 C1416 0.950 . S
H1441 C1417 0.949 . S
H1442 C1419 0.950 . S
H1443 C1421 0.950 . S
C1444 C1445 1.349 . S
C1444 C1446 1.327 . S
C1444 H1469 0.950 . S
C1445 C1444 1.349 . S
C1445 C1461 1.349 . S
C1446 C1444 1.327 . S
C1446 C1465 1.429 1_554 S
C1446 H1470 0.950 . S
C1447 C1464 1.574 . S
C1447 C1466 1.368 . S
C1447 H1471 0.949 . S
H1448 C1452 0.949 . S
C1449 C1450 1.349 . S
C1449 C1451 1.327 . S
C1449 H1472 0.950 . S
C1450 C1449 1.349 . S
C1450 C1462 1.349 . S
C1451 C1449 1.327 . S
C1451 C1467 1.429 . S
C1451 H1473 0.950 . S
C1452 H1448 0.949 . S
C1452 C1460 1.574 . S
C1452 C1468 1.368 . S
H1453 C1461 0.950 . S
H1454 C1459 0.950 1_556 S
H1455 C1460 0.949 . S
H1456 C1462 0.950 . S
H1457 C1463 0.950 . S
H1458 C1464 0.949 . S
C1459 H1454 0.950 1_554 S
C1459 C1461 1.327 . S
C1459 C1465 1.429 1_554 S
C1460 C1452 1.574 . S
C1460 H1455 0.949 . S
C1460 C1466 1.368 . S
C1461 C1445 1.349 . S
C1461 H1453 0.950 . S
C1461 C1459 1.327 . S
C1462 C1450 1.349 . S
C1462 H1456 0.950 . S
C1462 C1463 1.327 . S
C1463 H1457 0.950 . S
C1463 C1462 1.327 . S
C1463 C1467 1.429 . S
C1464 C1447 1.574 . S
C1464 H1458 0.949 . S
C1464 C1468 1.368 . S
C1465 C1446 1.429 1_556 S
C1465 C1459 1.429 1_556 S
C1465 C1466 1.523 . S
C1466 C1447 1.368 . S
C1466 C1460 1.368 . S
C1466 C1465 1.523 . S
C1467 C1451 1.429 . S
C1467 C1463 1.429 . S
C1467 C1468 1.523 . S
C1468 C1452 1.368 . S
C1468 C1464 1.368 . S
C1468 C1467 1.523 . S
H1469 C1444 0.950 . S
H1470 C1446 0.950 . S
H1471 C1447 0.949 . S
H1472 C1449 0.950 . S
H1473 C1451 0.950 . S
C1474 C1475 1.349 . S
C1474 C1476 1.327 . S
C1474 H1499 0.950 . S
C1475 C1474 1.349 . S
C1475 C1491 1.349 . S
C1476 C1474 1.327 . S
C1476 C1495 1.429 . S
C1476 H1500 0.950 . S
C1477 C1494 1.574 . S
C1477 C1496 1.368 . S
C1477 H1501 0.949 . S
H1478 C1482 0.949 . S
C1479 C1480 1.349 . S
C1479 C1481 1.327 . S
C1479 H1502 0.950 . S
C1480 C1479 1.349 . S
C1480 C1492 1.349 . S
C1481 C1479 1.327 . S
C1481 C1497 1.429 . S
C1481 H1503 0.950 . S
C1482 H1478 0.949 . S
C1482 C1490 1.574 . S
C1482 C1498 1.368 . S
H1483 C1491 0.950 . S
H1484 C1489 0.950 . S
H1485 C1490 0.949 . S
H1486 C1492 0.950 . S
H1487 C1493 0.950 . S
H1488 C1494 0.949 . S
C1489 H1484 0.950 . S
C1489 C1491 1.327 . S
C1489 C1495 1.429 . S
C1490 C1482 1.574 . S
C1490 H1485 0.949 . S
C1490 C1496 1.368 . S
C1491 C1475 1.349 . S
C1491 H1483 0.950 . S
C1491 C1489 1.327 . S
C1492 C1480 1.349 . S
C1492 H1486 0.950 . S
C1492 C1493 1.327 . S
C1493 H1487 0.950 . S
C1493 C1492 1.327 . S
C1493 C1497 1.429 . S
C1494 C1477 1.574 . S
C1494 H1488 0.949 . S
C1494 C1498 1.368 . S
C1495 C1476 1.429 . S
C1495 C1489 1.429 . S
C1495 C1496 1.523 . S
C1496 C1477 1.368 . S
C1496 C1490 1.368 . S
C1496 C1495 1.523 . S
C1497 C1481 1.429 . S
C1497 C1493 1.429 . S
C1497 C1498 1.523 . S
C1498 C1482 1.368 . S
C1498 C1494 1.368 . S
C1498 C1497 1.523 . S
H1499 C1474 0.950 . S
H1500 C1476 0.950 . S
H1501 C1477 0.949 . S
H1502 C1479 0.950 . S
H1503 C1481 0.950 . S
C1504 C1505 1.349 . S
C1504 C1506 1.327 . S
C1504 H1529 0.950 . S
C1505 C1504 1.349 . S
C1505 C1521 1.349 . S
C1506 C1504 1.327 . S
C1506 C1525 1.429 1_554 S
C1506 H1530 0.950 1_554 S
C1507 C1524 1.574 . S
C1507 C1526 1.368 . S
C1507 H1531 0.949 . S
H1508 C1512 0.949 . S
C1509 C1510 1.349 . S
C1509 C1511 1.327 . S
C1509 H1532 0.950 . S
C1510 C1509 1.349 . S
C1510 C1522 1.349 . S
C1511 C1509 1.327 . S
C1511 C1527 1.429 . S
C1511 H1533 0.950 . S
C1512 H1508 0.949 . S
C1512 C1520 1.574 . S
C1512 C1528 1.368 . S
H1513 C1521 0.950 . S
H1514 C1519 0.950 . S
H1515 C1520 0.949 . S
H1516 C1522 0.950 . S
H1517 C1523 0.950 . S
H1518 C1524 0.949 . S
C1519 H1514 0.950 . S
C1519 C1521 1.327 . S
C1519 C1525 1.429 1_554 S
C1520 C1512 1.574 . S
C1520 H1515 0.949 . S
C1520 C1526 1.368 . S
C1521 C1505 1.349 . S
C1521 H1513 0.950 . S
C1521 C1519 1.327 . S
C1522 C1510 1.349 . S
C1522 H1516 0.950 . S
C1522 C1523 1.327 . S
C1523 H1517 0.950 . S
C1523 C1522 1.327 . S
C1523 C1527 1.429 . S
C1524 C1507 1.574 . S
C1524 H1518 0.949 . S
C1524 C1528 1.368 . S
C1525 C1506 1.429 1_556 S
C1525 C1519 1.429 1_556 S
C1525 C1526 1.523 . S
C1526 C1507 1.368 . S
C1526 C1520 1.368 . S
C1526 C1525 1.523 . S
C1527 C1511 1.429 . S
C1527 C1523 1.429 . S
C1527 C1528 1.523 . S
C1528 C1512 1.368 . S
C1528 C1524 1.368 . S
C1528 C1527 1.523 . S
H1529 C1504 0.950 . S
H1530 C1506 0.950 1_556 S
H1531 C1507 0.949 . S
H1532 C1509 0.950 . S
H1533 C1511 0.950 . S
C1534 C1535 1.349 . S
C1534 C1536 1.327 . S
C1534 H1559 0.950 . S
C1535 C1534 1.349 . S
C1535 C1551 1.349 . S
C1536 C1534 1.327 . S
C1536 C1555 1.429 . S
C1536 H1560 0.950 . S
C1537 C1554 1.574 . S
C1537 C1556 1.368 . S
C1537 H1561 0.949 . S
H1538 C1542 0.949 . S
C1539 C1540 1.349 . S
C1539 C1541 1.327 . S
C1539 H1562 0.950 . S
C1540 C1539 1.349 . S
C1540 C1552 1.349 . S
C1541 C1539 1.327 . S
C1541 C1557 1.429 . S
C1541 H1563 0.950 . S
C1542 H1538 0.949 . S
C1542 C1550 1.574 . S
C1542 C1558 1.368 . S
H1543 C1551 0.950 . S
H1544 C1549 0.950 . S
H1545 C1550 0.949 . S
H1546 C1552 0.950 . S
H1547 C1553 0.950 . S
H1548 C1554 0.949 . S
C1549 H1544 0.950 . S
C1549 C1551 1.327 . S
C1549 C1555 1.429 . S
C1550 C1542 1.574 . S
C1550 H1545 0.949 . S
C1550 C1556 1.368 . S
C1551 C1535 1.349 . S
C1551 H1543 0.950 . S
C1551 C1549 1.327 . S
C1552 C1540 1.349 . S
C1552 H1546 0.950 . S
C1552 C1553 1.327 . S
C1553 H1547 0.950 . S
C1553 C1552 1.327 . S
C1553 C1557 1.429 . S
C1554 C1537 1.574 . S
C1554 H1548 0.949 . S
C1554 C1558 1.368 . S
C1555 C1536 1.429 . S
C1555 C1549 1.429 . S
C1555 C1556 1.523 . S
C1556 C1537 1.368 . S
C1556 C1550 1.368 . S
C1556 C1555 1.523 . S
C1557 C1541 1.429 . S
C1557 C1553 1.429 . S
C1557 C1558 1.523 . S
C1558 C1542 1.368 . S
C1558 C1554 1.368 . S
C1558 C1557 1.523 . S
H1559 C1534 0.950 . S
H1560 C1536 0.950 . S
H1561 C1537 0.949 . S
H1562 C1539 0.950 . S
H1563 C1541 0.950 . S
C1564 C1565 1.349 . S
C1564 C1566 1.327 . S
C1564 H1589 0.950 . S
C1565 C1564 1.349 . S
C1565 C1581 1.349 . S
C1566 C1564 1.327 . S
C1566 C1585 1.429 . S
C1566 H1590 0.950 . S
C1567 C1584 1.574 . S
C1567 C1586 1.368 . S
C1567 H1591 0.949 . S
H1568 C1572 0.949 . S
C1569 C1570 1.349 . S
C1569 C1571 1.327 . S
C1569 H1592 0.950 . S
C1570 C1569 1.349 . S
C1570 C1582 1.349 . S
C1571 C1569 1.327 . S
C1571 C1587 1.429 1_556 S
C1571 H1593 0.950 . S
C1572 H1568 0.949 . S
C1572 C1580 1.574 . S
C1572 C1588 1.368 . S
H1573 C1581 0.950 . S
H1574 C1579 0.950 . S
H1575 C1580 0.949 . S
H1576 C1582 0.950 . S
H1577 C1583 0.950 . S
H1578 C1584 0.949 . S
C1579 H1574 0.950 . S
C1579 C1581 1.327 . S
C1579 C1585 1.429 . S
C1580 C1572 1.574 . S
C1580 H1575 0.949 . S
C1580 C1586 1.368 . S
C1581 C1565 1.349 . S
C1581 H1573 0.950 . S
C1581 C1579 1.327 . S
C1582 C1570 1.349 . S
C1582 H1576 0.950 . S
C1582 C1583 1.327 1_556 S
C1583 H1577 0.950 . S
C1583 C1582 1.327 1_554 S
C1583 C1587 1.429 . S
C1584 C1567 1.574 . S
C1584 H1578 0.949 . S
C1584 C1588 1.368 . S
C1585 C1566 1.429 . S
C1585 C1579 1.429 . S
C1585 C1586 1.523 . S
C1586 C1567 1.368 . S
C1586 C1580 1.368 . S
C1586 C1585 1.523 . S
C1587 C1571 1.429 1_554 S
C1587 C1583 1.429 . S
C1587 C1588 1.523 . S
C1588 C1572 1.368 . S
C1588 C1584 1.368 . S
C1588 C1587 1.523 . S
H1589 C1564 0.950 . S
H1590 C1566 0.950 . S
H1591 C1567 0.949 . S
H1592 C1569 0.950 . S
H1593 C1571 0.950 . S
C1594 C1595 1.349 . S
C1594 C1596 1.327 . S
C1594 H1619 0.950 . S
C1595 C1594 1.349 . S
C1595 C1611 1.349 . S
C1596 C1594 1.327 . S
C1596 C1615 1.429 . S
C1596 H1620 0.950 . S
C1597 C1614 1.574 . S
C1597 C1616 1.368 . S
C1597 H1621 0.949 . S
H1598 C1602 0.949 . S
C1599 C1600 1.349 . S
C1599 C1601 1.327 . S
C1599 H1622 0.950 . S
C1600 C1599 1.349 . S
C1600 C1612 1.349 . S
C1601 C1599 1.327 . S
C1601 C1617 1.429 . S
C1601 H1623 0.950 . S
C1602 H1598 0.949 . S
C1602 C1610 1.574 . S
C1602 C1618 1.368 . S
H1603 C1611 0.950 . S
H1604 C1609 0.950 . S
H1605 C1610 0.949 . S
H1606 C1612 0.950 . S
H1607 C1613 0.950 . S
H1608 C1614 0.949 . S
C1609 H1604 0.950 . S
C1609 C1611 1.327 . S
C1609 C1615 1.429 . S
C1610 C1602 1.574 . S
C1610 H1605 0.949 . S
C1610 C1616 1.368 . S
C1611 C1595 1.349 . S
C1611 H1603 0.950 . S
C1611 C1609 1.327 . S
C1612 C1600 1.349 . S
C1612 H1606 0.950 . S
C1612 C1613 1.327 . S
C1613 H1607 0.950 . S
C1613 C1612 1.327 . S
C1613 C1617 1.429 . S
C1614 C1597 1.574 . S
C1614 H1608 0.949 . S
C1614 C1618 1.368 . S
C1615 C1596 1.429 . S
C1615 C1609 1.429 . S
C1615 C1616 1.523 . S
C1616 C1597 1.368 . S
C1616 C1610 1.368 . S
C1616 C1615 1.523 . S
C1617 C1601 1.429 . S
C1617 C1613 1.429 . S
C1617 C1618 1.523 . S
C1618 C1602 1.368 . S
C1618 C1614 1.368 . S
C1618 C1617 1.523 . S
H1619 C1594 0.950 . S
H1620 C1596 0.950 . S
H1621 C1597 0.949 . S
H1622 C1599 0.950 . S
H1623 C1601 0.950 . S
C1624 C1625 1.349 . S
C1624 C1626 1.327 . S
C1624 H1649 0.950 . S
C1625 C1624 1.349 . S
C1625 C1641 1.349 . S
C1626 C1624 1.327 . S
C1626 C1645 1.429 1_556 S
C1626 H1650 0.950 . S
C1627 C1644 1.574 . S
C1627 C1646 1.368 . S
C1627 H1651 0.949 . S
H1628 C1632 0.949 . S
C1629 C1630 1.349 . S
C1629 C1631 1.327 . S
C1629 H1652 0.950 . S
C1630 C1629 1.349 . S
C1630 C1642 1.349 . S
C1631 C1629 1.327 . S
C1631 C1647 1.429 . S
C1631 H1653 0.950 . S
C1632 H1628 0.949 . S
C1632 C1640 1.574 . S
C1632 C1648 1.368 . S
H1633 C1641 0.950 . S
H1634 C1639 0.950 1_554 S
H1635 C1640 0.949 . S
H1636 C1642 0.950 . S
H1637 C1643 0.950 . S
H1638 C1644 0.949 . S
C1639 H1634 0.950 1_556 S
C1639 C1641 1.327 . S
C1639 C1645 1.429 1_556 S
C1640 C1632 1.574 . S
C1640 H1635 0.949 . S
C1640 C1646 1.368 . S
C1641 C1625 1.349 . S
C1641 H1633 0.950 . S
C1641 C1639 1.327 . S
C1642 C1630 1.349 . S
C1642 H1636 0.950 . S
C1642 C1643 1.327 . S
C1643 H1637 0.950 . S
C1643 C1642 1.327 . S
C1643 C1647 1.429 . S
C1644 C1627 1.574 . S
C1644 H1638 0.949 . S
C1644 C1648 1.368 . S
C1645 C1626 1.429 1_554 S
C1645 C1639 1.429 1_554 S
C1645 C1646 1.523 . S
C1646 C1627 1.368 . S
C1646 C1640 1.368 . S
C1646 C1645 1.523 . S
C1647 C1631 1.429 . S
C1647 C1643 1.429 . S
C1647 C1648 1.523 . S
C1648 C1632 1.368 . S
C1648 C1644 1.368 . S
C1648 C1647 1.523 . S
H1649 C1624 0.950 . S
H1650 C1626 0.950 . S
H1651 C1627 0.949 . S
H1652 C1629 0.950 . S
H1653 C1631 0.950 . S
C1654 C1655 1.349 . S
C1654 C1656 1.327 . S
C1654 H1679 0.950 . S
C1655 C1654 1.349 . S
C1655 C1671 1.349 . S
C1656 C1654 1.327 . S
C1656 C1675 1.429 . S
C1656 H1680 0.950 . S
C1657 C1674 1.574 . S
C1657 C1676 1.368 . S
C1657 H1681 0.949 . S
H1658 C1662 0.949 . S
C1659 C1660 1.349 . S
C1659 C1661 1.327 . S
C1659 H1682 0.950 . S
C1660 C1659 1.349 . S
C1660 C1672 1.349 . S
C1661 C1659 1.327 . S
C1661 C1677 1.429 . S
C1661 H1683 0.950 . S
C1662 H1658 0.949 . S
C1662 C1670 1.574 . S
C1662 C1678 1.368 . S
H1663 C1671 0.950 . S
H1664 C1669 0.950 . S
H1665 C1670 0.949 . S
H1666 C1672 0.950 . S
H1667 C1673 0.950 . S
H1668 C1674 0.949 . S
C1669 H1664 0.950 . S
C1669 C1671 1.327 . S
C1669 C1675 1.429 . S
C1670 C1662 1.574 . S
C1670 H1665 0.949 . S
C1670 C1676 1.368 . S
C1671 C1655 1.349 . S
C1671 H1663 0.950 . S
C1671 C1669 1.327 . S
C1672 C1660 1.349 . S
C1672 H1666 0.950 . S
C1672 C1673 1.327 . S
C1673 H1667 0.950 . S
C1673 C1672 1.327 . S
C1673 C1677 1.429 . S
C1674 C1657 1.574 . S
C1674 H1668 0.949 . S
C1674 C1678 1.368 . S
C1675 C1656 1.429 . S
C1675 C1669 1.429 . S
C1675 C1676 1.523 . S
C1676 C1657 1.368 . S
C1676 C1670 1.368 . S
C1676 C1675 1.523 . S
C1677 C1661 1.429 . S
C1677 C1673 1.429 . S
C1677 C1678 1.523 . S
C1678 C1662 1.368 . S
C1678 C1674 1.368 . S
C1678 C1677 1.523 . S
H1679 C1654 0.950 . S
H1680 C1656 0.950 . S
H1681 C1657 0.949 . S
H1682 C1659 0.950 . S
H1683 C1661 0.950 . S
C1684 C1685 1.349 . S
C1684 C1686 1.327 . S
C1684 H1709 0.950 . S
C1685 C1684 1.349 . S
C1685 C1701 1.349 . S
C1686 C1684 1.327 . S
C1686 C1705 1.429 . S
C1686 H1710 0.950 . S
C1687 C1704 1.574 . S
C1687 C1706 1.368 . S
C1687 H1711 0.949 . S
H1688 C1692 0.949 . S
C1689 C1690 1.349 . S
C1689 C1691 1.327 . S
C1689 H1712 0.950 . S
C1690 C1689 1.349 . S
C1690 C1702 1.349 . S
C1691 C1689 1.327 . S
C1691 C1707 1.429 1_554 S
C1691 H1713 0.950 . S
C1692 H1688 0.949 . S
C1692 C1700 1.574 . S
C1692 C1708 1.368 . S
H1693 C1701 0.950 . S
H1694 C1699 0.950 . S
H1695 C1700 0.949 . S
H1696 C1702 0.950 . S
H1697 C1703 0.950 . S
H1698 C1704 0.949 . S
C1699 H1694 0.950 . S
C1699 C1701 1.327 . S
C1699 C1705 1.429 . S
C1700 C1692 1.574 . S
C1700 H1695 0.949 . S
C1700 C1706 1.368 . S
C1701 C1685 1.349 . S
C1701 H1693 0.950 . S
C1701 C1699 1.327 . S
C1702 C1690 1.349 . S
C1702 H1696 0.950 . S
C1702 C1703 1.327 1_554 S
C1703 H1697 0.950 . S
C1703 C1702 1.327 1_556 S
C1703 C1707 1.429 . S
C1704 C1687 1.574 . S
C1704 H1698 0.949 . S
C1704 C1708 1.368 . S
C1705 C1686 1.429 . S
C1705 C1699 1.429 . S
C1705 C1706 1.523 . S
C1706 C1687 1.368 . S
C1706 C1700 1.368 . S
C1706 C1705 1.523 . S
C1707 C1691 1.429 1_556 S
C1707 C1703 1.429 . S
C1707 C1708 1.523 . S
C1708 C1692 1.368 . S
C1708 C1704 1.368 . S
C1708 C1707 1.523 . S
H1709 C1684 0.950 . S
H1710 C1686 0.950 . S
H1711 C1687 0.949 . S
H1712 C1689 0.950 . S
H1713 C1691 0.950 . S
C1714 C1715 1.349 . S
C1714 C1716 1.327 . S
C1714 H1739 0.950 . S
C1715 C1714 1.349 . S
C1715 C1731 1.349 . S
C1716 C1714 1.327 . S
C1716 C1735 1.429 . S
C1716 H1740 0.950 . S
C1717 C1734 1.574 . S
C1717 C1736 1.368 . S
C1717 H1741 0.949 . S
H1718 C1722 0.949 . S
C1719 C1720 1.349 . S
C1719 C1721 1.327 . S
C1719 H1742 0.950 . S
C1720 C1719 1.349 . S
C1720 C1732 1.349 . S
C1721 C1719 1.327 . S
C1721 C1737 1.429 . S
C1721 H1743 0.950 . S
C1722 H1718 0.949 . S
C1722 C1730 1.574 . S
C1722 C1738 1.368 . S
H1723 C1731 0.950 . S
H1724 C1729 0.950 . S
H1725 C1730 0.949 . S
H1726 C1732 0.950 . S
H1727 C1733 0.950 . S
H1728 C1734 0.949 . S
C1729 H1724 0.950 . S
C1729 C1731 1.327 . S
C1729 C1735 1.429 . S
C1730 C1722 1.574 . S
C1730 H1725 0.949 . S
C1730 C1736 1.368 . S
C1731 C1715 1.349 . S
C1731 H1723 0.950 . S
C1731 C1729 1.327 . S
C1732 C1720 1.349 . S
C1732 H1726 0.950 . S
C1732 C1733 1.327 . S
C1733 H1727 0.950 . S
C1733 C1732 1.327 . S
C1733 C1737 1.429 . S
C1734 C1717 1.574 . S
C1734 H1728 0.949 . S
C1734 C1738 1.368 . S
C1735 C1716 1.429 . S
C1735 C1729 1.429 . S
C1735 C1736 1.523 . S
C1736 C1717 1.368 . S
C1736 C1730 1.368 . S
C1736 C1735 1.523 . S
C1737 C1721 1.429 . S
C1737 C1733 1.429 . S
C1737 C1738 1.523 . S
C1738 C1722 1.368 . S
C1738 C1734 1.368 . S
C1738 C1737 1.523 . S
H1739 C1714 0.950 . S
H1740 C1716 0.950 . S
H1741 C1717 0.949 . S
H1742 C1719 0.950 . S
H1743 C1721 0.950 . S
C545 C9 1.466 . S
C550 C111 1.466 . S
C575 C77 1.466 . S
C580 C43 1.466 . S
C605 C247 1.466 . S
C610 C145 1.466 . S
C635 C179 1.466 . S
C640 C213 1.466 . S
C665 C281 1.466 . S
C670 C383 1.466 . S
C695 C315 1.466 . S
C700 C349 1.466 . S
C725 C519 1.466 . S
C730 C417 1.466 . S
C755 C451 1.466 . S
C760 C485 1.466 . S
C785 C209 1.493 . S
C790 C5 1.493 . S
C815 C243 1.493 . S
C820 C39 1.493 . S
C845 C141 1.493 . S
C850 C73 1.493 . S
C875 C175 1.493 . S
C880 C107 1.493 . S
C905 C481 1.493 . S
C910 C277 1.493 . S
C935 C515 1.493 . S
C940 C311 1.493 . S
C965 C413 1.493 . S
C970 C345 1.493 . S
C995 C379 1.493 . S
C1000 C447 1.493 . S
C1025 C2 1.546 . S
C1030 C70 1.546 . S
C1055 C36 1.546 . S
C1060 C104 1.546 . S
C1085 C138 1.546 . S
C1090 C206 1.546 . S
C1115 C172 1.546 . S
C1120 C240 1.546 . S
C1145 C274 1.546 . S
C1150 C342 1.546 . S
C1175 C308 1.546 . S
C1180 C376 1.546 . S
C1205 C410 1.546 . S
C1210 C478 1.546 . S
C1235 C444 1.546 . S
C1240 C512 1.546 . S
C1265 C530 1.317 . S
C1270 C33 1.317 . S
C1295 C67 1.317 . S
C1300 C496 1.317 . S
C1325 C101 1.317 . S
C1330 C462 1.317 . S
C1355 C428 1.317 . S
C1360 C135 1.317 . S
C1385 C394 1.317 . S
C1390 C169 1.317 . S
C1415 C203 1.317 . S
C1420 C360 1.317 . S
C1445 C237 1.317 . S
C1450 C326 1.317 . S
C1475 C271 1.317 . S
C1480 C292 1.317 . S
C1505 C305 1.317 . S
C1510 C258 1.317 . S
C1535 C224 1.317 . S
C1540 C339 1.317 . S
C1565 C190 1.317 . S
C1570 C373 1.317 . S
C1595 C407 1.317 . S
C1600 C156 1.317 . S
C1625 C441 1.317 . S
C1630 C122 1.317 . S
C1655 C88 1.317 . S
C1660 C475 1.317 . S
C1685 C54 1.317 . S
C1690 C509 1.317 . S
C1715 C20 1.317 . S
C1720 C543 1.317 . S
