# Generated by pormake.
# Topology wjs, (5)-cn, num edge types: 1
# Building blocks:
#     Node 0, Type 0, BuildingBlock: BEQFEK_clean_sbu_0, # of connection points: 5
#     Node 1, Type 0, BuildingBlock: BEQFEK_clean_sbu_0, # of connection points: 5
#     Node 2, Type 0, BuildingBlock: BEQFEK_clean_sbu_0, # of connection points: 5
#     Node 3, Type 0, BuildingBlock: BEQFEK_clean_sbu_0, # of connection points: 5
#     Node 4, Type 0, BuildingBlock: BEQFEK_clean_sbu_0, # of connection points: 5
#     Node 5, Type 0, BuildingBlock: BEQFEK_clean_sbu_0, # of connection points: 5
#     Node 6, Type 0, BuildingBlock: BEQFEK_clean_sbu_0, # of connection points: 5
#     Node 7, Type 0, BuildingBlock: BEQFEK_clean_sbu_0, # of connection points: 5
#     Node 8, Type 0, BuildingBlock: BEQFEK_clean_sbu_0, # of connection points: 5
#     Node 9, Type 0, BuildingBlock: BEQFEK_clean_sbu_0, # of connection points: 5
#     Node 10, Type 0, BuildingBlock: BEQFEK_clean_sbu_0, # of connection points: 5
#     Node 11, Type 0, BuildingBlock: BEQFEK_clean_sbu_0, # of connection points: 5
#     Edge 12, Type (0, 0), BuildingBlock: XIVTED_clean_linker_0, # of connection points: 2
#     Edge 13, Type (0, 0), BuildingBlock: XIVTED_clean_linker_0, # of connection points: 2
#     Edge 14, Type (0, 0), BuildingBlock: XIVTED_clean_linker_0, # of connection points: 2
#     Edge 15, Type (0, 0), BuildingBlock: XIVTED_clean_linker_0, # of connection points: 2
#     Edge 16, Type (0, 0), BuildingBlock: XIVTED_clean_linker_0, # of connection points: 2
#     Edge 17, Type (0, 0), BuildingBlock: XIVTED_clean_linker_0, # of connection points: 2
#     Edge 18, Type (0, 0), BuildingBlock: XIVTED_clean_linker_0, # of connection points: 2
#     Edge 19, Type (0, 0), BuildingBlock: XIVTED_clean_linker_0, # of connection points: 2
#     Edge 20, Type (0, 0), BuildingBlock: XIVTED_clean_linker_0, # of connection points: 2
#     Edge 21, Type (0, 0), BuildingBlock: XIVTED_clean_linker_0, # of connection points: 2
#     Edge 22, Type (0, 0), BuildingBlock: XIVTED_clean_linker_0, # of connection points: 2
#     Edge 23, Type (0, 0), BuildingBlock: XIVTED_clean_linker_0, # of connection points: 2
#     Edge 24, Type (0, 0), BuildingBlock: XIVTED_clean_linker_0, # of connection points: 2
#     Edge 25, Type (0, 0), BuildingBlock: XIVTED_clean_linker_0, # of connection points: 2
#     Edge 26, Type (0, 0), BuildingBlock: XIVTED_clean_linker_0, # of connection points: 2
#     Edge 27, Type (0, 0), BuildingBlock: XIVTED_clean_linker_0, # of connection points: 2
#     Edge 28, Type (0, 0), BuildingBlock: XIVTED_clean_linker_0, # of connection points: 2
#     Edge 29, Type (0, 0), BuildingBlock: XIVTED_clean_linker_0, # of connection points: 2
#     Edge 30, Type (0, 0), BuildingBlock: XIVTED_clean_linker_0, # of connection points: 2
#     Edge 31, Type (0, 0), BuildingBlock: XIVTED_clean_linker_0, # of connection points: 2
#     Edge 32, Type (0, 0), BuildingBlock: XIVTED_clean_linker_0, # of connection points: 2
#     Edge 33, Type (0, 0), BuildingBlock: XIVTED_clean_linker_0, # of connection points: 2
#     Edge 34, Type (0, 0), BuildingBlock: XIVTED_clean_linker_0, # of connection points: 2
#     Edge 35, Type (0, 0), BuildingBlock: XIVTED_clean_linker_0, # of connection points: 2
#     Edge 36, Type (0, 0), BuildingBlock: XIVTED_clean_linker_0, # of connection points: 2
#     Edge 37, Type (0, 0), BuildingBlock: XIVTED_clean_linker_0, # of connection points: 2
#     Edge 38, Type (0, 0), BuildingBlock: XIVTED_clean_linker_0, # of connection points: 2
#     Edge 39, Type (0, 0), BuildingBlock: XIVTED_clean_linker_0, # of connection points: 2
#     Edge 40, Type (0, 0), BuildingBlock: XIVTED_clean_linker_0, # of connection points: 2
#     Edge 41, Type (0, 0), BuildingBlock: XIVTED_clean_linker_0, # of connection points: 2
# Relax obj value: 0.267
# Max RMSD: 0.222
# Mean RMSD: 0.222
data_MOF--net-wjs--node1-BEQFEK_clean_sbu_0--edge1-XIVTED_clean_linker_0
_symmetry_space_group_name_H-M    P1
_symmetry_Int_Tables_number       1
_symmetry_cell_setting            triclinic
loop_
_symmetry_equiv_pos_as_xyz
'x, y, z'
_cell_length_a     30.236207
_cell_length_b     30.3049
_cell_length_c     76.297104
_cell_angle_alpha  89.95674
_cell_angle_beta   90.008783
_cell_angle_gamma 119.99186
loop_
_atom_site_label
_atom_site_type_symbol
_atom_site_fract_x
_atom_site_fract_y
_atom_site_fract_z
_atom_type_partial_charge
Co0 Co 0.21029 0.31708 0.02082 0.0
Co1 Co 0.19432 0.40139 0.00334 0.0
C2 C 0.19929 0.31787 0.98277 0.0
O3 O 0.20322 0.2963 -0.00351 0.0
O4 O 0.19579 0.35805 0.98364 0.0
C5 C 0.23953 0.24438 0.03172 0.0
O6 O 0.26239 0.25321 0.01642 0.0
C7 C 0.12012 0.42331 0.98753 0.0
C8 C 0.16119 0.50719 0.98557 0.0
C9 C 0.11432 0.464 0.98242 0.0
N10 N 0.16783 0.44153 0.99366 0.0
N11 N 0.19237 0.49173 0.99238 0.0
C12 C 0.08196 0.36775 0.98577 0.0
H13 H 0.05414 0.35545 -0.00331 0.0
H14 H 0.06046 0.36053 0.97331 0.0
H15 H 0.10117 0.34474 0.98625 0.0
C16 C 0.12193 0.29986 0.04107 0.0
N17 N 0.1553 0.32372 0.02805 0.0
N18 N 0.15059 0.36202 0.02229 0.0
C19 C 0.11496 0.36497 0.03217 0.0
C20 C 0.09546 0.32526 0.04423 0.0
C21 C 0.11753 0.25515 0.05096 0.0
H22 H 0.11981 0.22808 0.04173 0.0
H23 H 0.08099 0.23504 0.05829 0.0
H24 H 0.14965 0.26865 0.06039 0.0
O25 O 0.27471 0.38161 0.02349 0.0
O26 O 0.26704 0.44415 0.01132 0.0
H27 H 0.13799 0.44312 0.02632 0.0
H28 H 0.09759 0.41715 0.04544 0.0
C29 C 0.10504 0.40866 0.03196 0.0
H30 H 0.07051 0.39834 0.02402 0.0
H31 H 0.23011 0.51541 -0.00369 0.0
O32 O 0.21548 0.26722 0.03579 0.0
C33 C 0.2935 0.42831 0.01938 0.0
Co34 Co 0.8875 0.23182 0.19096 0.0
Co35 Co 0.78523 0.19728 0.17046 0.0
C36 C 0.87885 0.21668 0.15165 0.0
O37 O 0.90347 0.2281 0.16605 0.0
O38 O 0.83142 0.2023 0.15118 0.0
C39 C 0.98873 0.25089 0.20004 0.0
O40 O 0.99758 0.25546 0.1831 0.0
C41 C 0.6927 0.12916 0.15067 0.0
C42 C 0.63586 0.14327 0.16382 0.0
C43 C 0.64083 0.11195 0.15173 0.0
N44 N 0.71713 0.16829 0.16189 0.0
N45 N 0.68308 0.17747 0.16932 0.0
C46 C 0.71786 0.10461 0.14101 0.0
H47 H 0.75168 0.10948 0.14836 0.0
H48 H 0.69082 0.06348 0.1388 0.0
H49 H 0.73103 0.12349 0.12808 0.0
C50 C 0.82303 0.1384 0.21054 0.0
N51 N 0.82903 0.172 0.19796 0.0
N52 N 0.78598 0.15564 0.18934 0.0
C53 C 0.75101 0.11006 0.19614 0.0
C54 C 0.77363 0.09758 0.20968 0.0
C55 C 0.86335 0.14696 0.22369 0.0
H56 H 0.88124 0.18653 0.22871 0.0
H57 H 0.89336 0.14183 0.21724 0.0
H58 H 0.84751 0.12049 0.23498 0.0
O59 O 0.87892 0.29117 0.19354 0.0
O60 O 0.80963 0.26978 0.17756 0.0
H61 H 0.67718 0.09861 0.18963 0.0
H62 H 0.67649 0.04123 0.19645 0.0
C63 C 0.69818 0.07739 0.1891 0.0
H64 H 0.70055 0.06761 0.17532 0.0
H65 H 0.69167 0.20462 0.17911 0.0
O66 O 0.94564 0.24218 0.20575 0.0
C67 C 0.84725 0.30216 0.18673 0.0
Co68 Co 0.68396 0.89458 0.34696 0.0
Co69 Co 0.59585 0.7878 0.335 0.0
C70 C 0.67187 0.86767 0.30978 0.0
O71 O 0.69808 0.8988 0.32186 0.0
O72 O 0.63193 0.82511 0.31311 0.0
C73 C 0.77681 0.99206 0.35486 0.0
O74 O 0.79122 0.99459 0.33847 0.0
C75 C 0.5665 0.68848 0.32047 0.0
C76 C 0.48919 0.63983 0.33131 0.0
C77 C 0.52725 0.63852 0.3216 0.0
N78 N 0.55247 0.71809 0.32914 0.0
N79 N 0.50583 0.68895 0.33534 0.0
C80 C 0.61888 0.707 0.31325 0.0
H81 H 0.64659 0.74426 0.3191 0.0
H82 H 0.63134 0.67877 0.31578 0.0
H83 H 0.61806 0.71177 0.29885 0.0
C84 C 0.71024 0.83254 0.36889 0.0
N85 N 0.68116 0.83673 0.35647 0.0
N86 N 0.64266 0.79146 0.35268 0.0
C87 C 0.64542 0.75677 0.36311 0.0
C88 C 0.68841 0.78191 0.37371 0.0
C89 C 0.75787 0.8766 0.37617 0.0
H90 H 0.78101 0.90215 0.36534 0.0
H91 H 0.78127 0.86365 0.38334 0.0
H92 H 0.7474 0.89849 0.38524 0.0
O93 O 0.61928 0.89376 0.35079 0.0
O94 O 0.55432 0.8185 0.34307 0.0
H95 H 0.56681 0.69785 0.3633 0.0
H96 H 0.60809 0.68424 0.3766 0.0
C97 C 0.60519 0.70176 0.3642 0.0
H98 H 0.60992 0.68094 0.35308 0.0
H99 H 0.48651 0.70221 0.34311 0.0
O100 O 0.73488 0.95458 0.35995 0.0
C101 C 0.57159 0.86344 0.34905 0.0
Co102 Co 0.78216 0.67567 0.51947 0.0
Co103 Co 0.80223 0.59311 0.50276 0.0
C104 C 0.7961 0.67467 0.48145 0.0
O105 O 0.79017 0.69569 0.49496 0.0
O106 O 0.801 0.63536 0.48267 0.0
C107 C 0.76077 0.75578 0.52868 0.0
O108 O 0.75129 0.75717 0.51194 0.0
C109 C 0.87709 0.5711 0.48747 0.0
C110 C 0.83589 0.48711 0.48599 0.0
C111 C 0.88263 0.53014 0.48254 0.0
N112 N 0.82957 0.55315 0.49374 0.0
N113 N 0.805 0.5029 0.49277 0.0
C114 C 0.91507 0.62657 0.48529 0.0
H115 H 0.89585 0.64957 0.48581 0.0
H116 H 0.94356 0.6394 0.496 0.0
H117 H 0.93577 0.63318 0.47267 0.0
C118 C 0.86959 0.69502 0.54074 0.0
N119 N 0.83774 0.67086 0.52739 0.0
N120 N 0.84438 0.63356 0.52182 0.0
C121 C 0.87988 0.63168 0.53212 0.0
C122 C 0.89716 0.67096 0.54429 0.0
C123 C 0.87132 0.73853 0.55062 0.0
H124 H 0.86964 0.76577 0.5413 0.0
H125 H 0.90664 0.75886 0.55858 0.0
H126 H 0.83774 0.72373 0.55945 0.0
O127 O 0.71878 0.6102 0.52213 0.0
O128 O 0.72953 0.54911 0.51036 0.0
H129 H 0.89967 0.58152 0.54563 0.0
H130 H 0.9262 0.60032 0.52412 0.0
C131 C 0.8916 0.58919 0.53212 0.0
H132 H 0.85926 0.55402 0.5266 0.0
H133 H 0.7673 0.47943 0.4968 0.0
O134 O 0.77414 0.72458 0.53408 0.0
C135 C 0.7017 0.56368 0.51817 0.0
Co136 Co 0.10107 0.76041 0.69194 0.0
Co137 Co 0.20354 0.7955 0.6716 0.0
C138 C 0.11155 0.7762 0.65239 0.0
O139 O 0.08665 0.76404 0.66675 0.0
O140 O 0.15916 0.79149 0.65201 0.0
C141 C 0.02751 0.7846 0.70365 0.0
O142 O 0.05123 0.82144 0.69216 0.0
C143 C 0.2984 0.86128 0.65225 0.0
C144 C 0.35326 0.84849 0.66741 0.0
C145 C 0.35005 0.87843 0.65431 0.0
N146 N 0.2724 0.82355 0.66388 0.0
N147 N 0.30535 0.81515 0.67253 0.0
C148 C 0.2748 0.88471 0.6411 0.0
H149 H 0.23979 0.88036 0.6474 0.0
H150 H 0.30211 0.92566 0.63866 0.0
H151 H 0.26392 0.86472 0.6283 0.0
C152 C 0.16682 0.8526 0.71237 0.0
N153 N 0.15994 0.81966 0.69943 0.0
N154 N 0.20217 0.83733 0.69021 0.0
C155 C 0.23668 0.88364 0.69662 0.0
C156 C 0.21496 0.89484 0.71073 0.0
C157 C 0.1302 0.84202 0.72714 0.0
H158 H 0.10601 0.80046 0.72932 0.0
H159 H 0.10575 0.85864 0.72407 0.0
H160 H 0.1512 0.86003 0.73942 0.0
O161 O 0.10852 0.7007 0.69505 0.0
O162 O 0.17753 0.7225 0.67882 0.0
H163 H 0.31211 0.90032 0.68989 0.0
H164 H 0.30759 0.956 0.69506 0.0
C165 C 0.28792 0.91809 0.6887 0.0
H166 H 0.2832 0.92381 0.67467 0.0
H167 H 0.29541 0.7892 0.68283 0.0
O168 O 0.0415 0.7517 0.70548 0.0
C169 C 0.14018 0.68995 0.68809 0.0
Co170 Co 0.302 0.09441 0.84703 0.0
Co171 Co 0.39213 0.2001 0.83473 0.0
C172 C 0.3118 0.12462 0.80998 0.0
O173 O 0.28608 0.09342 0.82209 0.0
O174 O 0.35298 0.16593 0.81319 0.0
C175 C 0.20013 0.01321 0.85473 0.0
O176 O 0.18606 0.03363 0.84229 0.0
C177 C 0.42732 0.3023 0.8212 0.0
C178 C 0.5112 0.33816 0.8231 0.0
C179 C 0.4725 0.34708 0.81777 0.0
N180 N 0.43883 0.26868 0.82833 0.0
N181 N 0.48901 0.29032 0.82945 0.0
C182 C 0.37423 0.29007 0.81661 0.0
H183 H 0.3737 0.30494 0.80336 0.0
H184 H 0.34745 0.24842 0.81714 0.0
H185 H 0.36094 0.30859 0.8261 0.0
C186 C 0.2853 0.15985 0.87136 0.0
N187 N 0.31055 0.15377 0.85794 0.0
N188 N 0.34961 0.19828 0.85357 0.0
C189 C 0.35107 0.2341 0.8645 0.0
C190 C 0.31017 0.21079 0.87601 0.0
C191 C 0.23767 0.11758 0.87938 0.0
H192 H 0.20844 0.09909 0.86902 0.0
H193 H 0.22153 0.13135 0.88962 0.0
H194 H 0.24592 0.08882 0.88512 0.0
O195 O 0.36464 0.0896 0.84916 0.0
O196 O 0.4299 0.16427 0.84088 0.0
H197 H 0.39747 0.30399 0.87866 0.0
H198 H 0.38509 0.31162 0.8562 0.0
C199 C 0.39358 0.28823 0.86526 0.0
H200 H 0.43013 0.29095 0.8613 0.0
H201 H 0.5081 0.27224 0.83435 0.0
O202 O 0.24712 0.03301 0.85856 0.0
C203 C 0.41216 0.11874 0.84634 0.0
Co204 Co 0.69842 0.79181 0.7997 0.0
Co205 Co 0.60264 0.80279 0.80749 0.0
C206 C 0.6729 0.80255 0.8359 0.0
O207 O 0.70449 0.80148 0.82514 0.0
O208 O 0.6325 0.80202 0.83078 0.0
C209 C 0.80197 0.80882 0.79401 0.0
O210 O 0.81825 0.84377 0.80632 0.0
C211 C 0.56133 0.86482 0.82045 0.0
C212 C 0.48766 0.83333 0.80651 0.0
C213 C 0.52006 0.87187 0.81778 0.0
N214 N 0.55387 0.824 0.81118 0.0
N215 N 0.50934 0.80474 0.8031 0.0
C216 C 0.60975 0.89962 0.82994 0.0
H217 H 0.64185 0.89569 0.8247 0.0
H218 H 0.6188 0.93981 0.8288 0.0
H219 H 0.60482 0.88919 0.84404 0.0
C220 C 0.72375 0.87881 0.77648 0.0
N221 N 0.69389 0.84463 0.7886 0.0
N222 N 0.65297 0.84854 0.79117 0.0
C223 C 0.65527 0.88513 0.78043 0.0
C224 C 0.70027 0.90547 0.77081 0.0
C225 C 0.7739 0.88565 0.77042 0.0
H226 H 0.79889 0.89297 0.78193 0.0
H227 H 0.79379 0.91825 0.76128 0.0
H228 H 0.76771 0.85029 0.76391 0.0
O229 O 0.6373 0.7257 0.79468 0.0
O230 O 0.56764 0.73124 0.79892 0.0
H231 H 0.61785 0.91873 0.76589 0.0
H232 H 0.61215 0.91899 0.78938 0.0
C233 C 0.61288 0.89656 0.77803 0.0
H234 H 0.57584 0.8605 0.77741 0.0
H235 H 0.49495 0.77363 0.79461 0.0
O236 O 0.75501 0.78478 0.78993 0.0
C237 C 0.58897 0.70571 0.79459 0.0
Co238 Co 0.88541 0.66656 0.95514 0.0
Co239 Co 0.78664 0.58953 0.9757 0.0
C240 C 0.87747 0.67206 0.9941 0.0
O241 O 0.90128 0.68847 0.97967 0.0
O242 O 0.83221 0.63422 0.99457 0.0
C243 C 0.95813 0.76472 0.94232 0.0
O244 O 0.93676 0.78 0.954 0.0
C245 C 0.69526 0.5644 -0.00413 0.0
C246 C 0.64524 0.48232 0.99065 0.0
C247 C 0.64663 0.52373 -0.0011 0.0
N248 N 0.72104 0.54799 0.98602 0.0
N249 N 0.69122 0.4987 0.98316 0.0
C250 C 0.71789 0.61781 0.00257 0.0
H251 H 0.74524 0.64513 0.99287 0.0
H252 H 0.68815 0.6277 0.00575 0.0
H253 H 0.73957 0.62133 0.01472 0.0
C254 C 0.81167 0.68384 0.93558 0.0
N255 N 0.82273 0.65975 0.94815 0.0
N256 N 0.78075 0.62841 0.95671 0.0
C257 C 0.74153 0.6324 0.94983 0.0
C258 C 0.76037 0.66853 0.93652 0.0
C259 C 0.84851 0.71821 0.92196 0.0
H260 H 0.87572 0.70525 0.91845 0.0
H261 H 0.86978 0.75763 0.92712 0.0
H262 H 0.82815 0.71861 0.9099 0.0
O263 O 0.88428 0.60199 0.95282 0.0
O264 O 0.81646 0.54597 0.968 0.0
H265 H 0.67616 0.56352 0.95877 0.0
H266 H 0.66067 0.60489 0.94653 0.0
C267 C 0.68748 0.60376 0.95616 0.0
H268 H 0.68419 0.62148 0.9684 0.0
H269 H 0.70161 0.47668 0.97557 0.0
O270 O 0.94225 0.71743 0.94066 0.0
C271 C 0.85613 0.55729 0.95883 0.0
Co272 Co 0.23027 0.89194 0.12289 0.0
Co273 Co 0.19725 0.78557 0.1398 0.0
C274 C 0.20969 0.87425 0.16116 0.0
O275 O 0.22151 0.90224 0.14758 0.0
O276 O 0.19909 0.82795 0.16029 0.0
C277 C 0.23439 0.98645 0.11483 0.0
O278 O 0.21445 0.98151 0.1305 0.0
C279 C 0.12168 0.69087 0.15624 0.0
C280 C 0.1446 0.63615 0.14701 0.0
C281 C 0.10707 0.63971 0.15627 0.0
N282 N 0.16573 0.71646 0.1473 0.0
N283 N 0.17978 0.68369 0.1421 0.0
C284 C 0.09126 0.71422 0.16266 0.0
H285 H 0.10147 0.74957 0.15524 0.0
H286 H 0.04971 0.68694 0.16143 0.0
H287 H 0.10007 0.72412 0.17671 0.0
C288 C 0.14105 0.83139 0.10108 0.0
N289 N 0.17215 0.83521 0.11426 0.0
N290 N 0.1585 0.78968 0.12046 0.0
C291 C 0.11831 0.75492 0.11095 0.0
C292 C 0.10617 0.78044 0.09838 0.0
C293 C 0.14419 0.87612 0.09156 0.0
H294 H 0.14584 0.90417 0.10123 0.0
H295 H 0.11071 0.86496 0.08294 0.0
H296 H 0.17961 0.89465 0.08359 0.0
O297 O 0.29022 0.88394 0.12047 0.0
O298 O 0.27028 0.81034 0.13323 0.0
H299 H 0.1249 0.68831 0.11452 0.0
H300 H 0.07138 0.67821 0.10113 0.0
C301 C 0.09468 0.69843 0.11278 0.0
H302 H 0.0696 0.68555 0.12448 0.0
H303 H 0.21186 0.69338 0.13438 0.0
O304 O 0.24438 0.95291 0.10929 0.0
C305 C 0.30218 0.85112 0.12531 0.0
Co306 Co 0.32402 0.21908 0.29027 0.0
Co307 Co 0.40032 0.19021 0.30763 0.0
C308 C 0.32338 0.2037 0.32863 0.0
O309 O 0.30536 0.21303 0.31497 0.0
O310 O 0.35945 0.19353 0.32771 0.0
C311 C 0.23671 0.22995 0.28186 0.0
O312 O 0.22574 0.22121 0.2986 0.0
C313 C 0.4221 0.11534 0.32358 0.0
C314 C 0.50641 0.15556 0.32331 0.0
C315 C 0.46365 0.11001 0.32803 0.0
N316 N 0.43955 0.16169 0.3164 0.0
N317 N 0.48998 0.18561 0.31632 0.0
C318 C 0.36691 0.07863 0.32715 0.0
H319 H 0.34382 0.09758 0.32568 0.0
H320 H 0.35243 0.04648 0.31777 0.0
H321 H 0.36232 0.06267 0.34056 0.0
C322 C 0.29727 0.12847 0.26964 0.0
N323 N 0.32429 0.16082 0.28254 0.0
N324 N 0.35861 0.15001 0.28847 0.0
C325 C 0.35581 0.11124 0.2788 0.0
C326 C 0.31658 0.09627 0.26664 0.0
C327 C 0.25343 0.12845 0.26049 0.0
H328 H 0.22908 0.13347 0.27023 0.0
H329 H 0.22963 0.09234 0.25329 0.0
H330 H 0.26834 0.1608 0.25113 0.0
O331 O 0.39166 0.28031 0.28774 0.0
O332 O 0.4468 0.26254 0.30069 0.0
H333 H 0.39953 0.08178 0.26628 0.0
H334 H 0.37889 0.05932 0.28813 0.0
C335 C 0.39371 0.09323 0.27952 0.0
H336 H 0.43081 0.12351 0.28468 0.0
H337 H 0.51315 0.22239 0.31147 0.0
O338 O 0.27637 0.23081 0.27591 0.0
C339 C 0.43676 0.29353 0.29273 0.0
Co340 Co 0.1073 0.32167 0.45695 0.0
Co341 Co 0.2072 0.40266 0.47574 0.0
C342 C 0.11595 0.31862 0.49514 0.0
O343 O 0.09105 0.299 0.48113 0.0
O344 O 0.1604 0.358 0.4948 0.0
C345 C 0.01001 0.23812 0.44523 0.0
O346 O 0.9974 0.23032 0.46188 0.0
C347 C 0.30182 0.42352 0.49261 0.0
C348 C 0.34505 0.50746 0.49436 0.0
C349 C 0.34815 0.46419 0.49791 0.0
N350 N 0.273 0.44189 0.48601 0.0
N351 N 0.29888 0.4921 0.48718 0.0
C352 C 0.28392 0.36792 0.49459 0.0
H353 H 0.24165 0.34517 0.49408 0.0
H354 H 0.29925 0.35516 0.48377 0.0
H355 H 0.29797 0.36083 0.50713 0.0
C356 C 0.1788 0.3027 0.4377 0.0
N357 N 0.16908 0.32718 0.4504 0.0
N358 N 0.21218 0.36422 0.45668 0.0
C359 C 0.25115 0.36588 0.44737 0.0
C360 C 0.23096 0.32647 0.43523 0.0
C361 C 0.13856 0.25857 0.42755 0.0
H362 H 0.108 0.23195 0.43655 0.0
H363 H 0.15471 0.23766 0.42059 0.0
H364 H 0.12152 0.27283 0.41777 0.0
O365 O 0.10939 0.38727 0.45476 0.0
O366 O 0.17929 0.44706 0.46798 0.0
H367 H 0.32273 0.41687 0.43495 0.0
H368 H 0.3279 0.39574 0.45634 0.0
C369 C 0.30553 0.40802 0.44825 0.0
H370 H 0.30815 0.44279 0.45403 0.0
H371 H 0.28532 0.51585 0.48288 0.0
O372 O 0.05358 0.2744 0.44082 0.0
C373 C 0.13796 0.43328 0.45954 0.0
Co374 Co 0.76693 0.09761 0.62434 0.0
Co375 Co 0.7974 0.20331 0.64121 0.0
C376 C 0.78964 0.11573 0.66236 0.0
O377 O 0.77789 0.08746 0.64886 0.0
O378 O 0.79826 0.1614 0.66144 0.0
C379 C 0.7558 -0.00037 0.61587 0.0
O380 O 0.76501 0.99705 0.63255 0.0
C381 C 0.87202 0.29925 0.6572 0.0
C382 C 0.8454 0.35163 0.64856 0.0
C383 C 0.88473 0.34991 0.65727 0.0
N384 N 0.82732 0.27221 0.64875 0.0
N385 N 0.81107 0.30357 0.64391 0.0
C386 C 0.90471 0.27786 0.66305 0.0
H387 H 0.89441 0.24216 0.65587 0.0
H388 H 0.94575 0.30597 0.66103 0.0
H389 H 0.89842 0.2691 0.67726 0.0
C390 C 0.8553 0.16 0.60247 0.0
N391 N 0.82374 0.15542 0.61558 0.0
N392 N 0.83605 0.20071 0.62165 0.0
C393 C 0.87561 0.23609 0.61204 0.0
C394 C 0.88888 0.21121 0.5996 0.0
C395 C 0.85417 0.11575 0.59329 0.0
H396 H 0.85052 0.0871 0.6031 0.0
H397 H 0.88934 0.12755 0.58552 0.0
H398 H 0.82053 0.0977 0.58447 0.0
O399 O 0.70548 0.10336 0.62249 0.0
O400 O 0.72388 0.17672 0.63505 0.0
H401 H 0.86681 0.30132 0.616 0.0
H402 H 0.91921 0.31268 0.60177 0.0
C403 C 0.89769 0.29243 0.61372 0.0
H404 H 0.92423 0.30642 0.62503 0.0
H405 H 0.77802 0.29261 0.63659 0.0
O406 O 0.75426 0.03817 0.61015 0.0
C407 C 0.69246 0.13536 0.62735 0.0
H408 H 0.20314 0.22463 0.06522 0.0
H409 H 0.27264 0.00611 0.08146 0.0
H410 H 0.28058 0.18239 0.02695 0.0
H411 H 0.20911 0.06001 0.12111 0.0
H412 H 0.27691 0.07084 0.06138 0.0
H413 H 0.20547 0.16455 0.08583 0.0
C414 C 0.22068 0.20271 0.06113 0.0
C415 C 0.24157 0.20843 0.04429 0.0
C416 C 0.26233 0.06871 0.0745 0.0
C417 C 0.24438 0.13944 0.06791 0.0
C418 C 0.2599 0.03178 0.08599 0.0
C419 C 0.24033 0.02756 0.10298 0.0
C420 C 0.24486 0.1015 0.08001 0.0
C421 C 0.22438 0.06182 0.10813 0.0
C422 C 0.22211 0.16847 0.07295 0.0
C423 C 0.264 0.17915 0.03979 0.0
N424 N 0.22677 0.09719 0.09665 0.0
N425 N 0.26464 0.14572 0.05153 0.0
H426 H 0.24732 0.24661 0.24646 0.0
H427 H 0.98164 0.24137 0.23574 0.0
H428 H 0.14765 0.22858 0.28976 0.0
H429 H 0.08304 0.2635 0.19255 0.0
H430 H 0.04333 0.23936 0.25582 0.0
H431 H 0.18887 0.25539 0.22663 0.0
C432 C 0.21322 0.24468 0.25182 0.0
C433 C 0.20232 0.23677 0.26981 0.0
C434 C 0.05223 0.24488 0.24196 0.0
C435 C 0.13514 0.24667 0.24714 0.0
C436 C 0.01701 0.24607 0.23047 0.0
C437 C 0.02711 0.25245 0.21241 0.0
C438 C 0.09791 0.25 0.23537 0.0
C439 C 0.07361 0.2584 0.20636 0.0
C440 C 0.17985 0.2497 0.24048 0.0
C441 C 0.15756 0.23456 0.27599 0.0
N442 N 0.10721 0.25683 0.21782 0.0
N443 N 0.12554 0.23935 0.26466 0.0
H444 H 0.02593 0.24318 0.40981 0.0
H445 H 0.75766 0.99469 0.38964 0.0
H446 H 0.91423 0.15546 0.44949 0.0
H447 H 0.87144 0.07675 0.34989 0.0
H448 H 0.81322 0.05582 0.4114 0.0
H449 H 0.96868 0.18522 0.38749 0.0
C450 C 0.9893 0.21179 0.41385 0.0
C451 C 0.97489 0.20408 0.43158 0.0
C452 C 0.82609 0.06064 0.39793 0.0
C453 C 0.90917 0.13759 0.40603 0.0
C454 C 0.79432 0.02572 0.38544 0.0
C455 C 0.80996 0.03052 0.36787 0.0
C456 C 0.874 0.10083 0.39288 0.0
C457 C 0.85788 0.07156 0.36327 0.0
C458 C 0.95665 0.1787 0.40106 0.0
C459 C 0.92694 0.16284 0.43599 0.0
N460 N 0.8883 0.10514 0.37573 0.0
N461 N 0.89584 0.13109 0.42329 0.0
H462 H 0.73937 0.83217 0.52202 0.0
H463 H 0.76241 0.91443 0.62286 0.0
H464 H 0.77224 0.75776 0.56419 0.0
H465 H 0.73982 0.99578 0.58051 0.0
H466 H 0.76031 0.85304 0.60166 0.0
H467 H 0.73411 0.88949 0.54341 0.0
C468 C 0.74534 0.82779 0.53576 0.0
C469 C 0.75642 0.79025 0.54132 0.0
C470 C 0.75562 0.88423 0.59702 0.0
C471 C 0.7504 0.8555 0.56583 0.0
C472 C 0.75672 0.91922 0.60912 0.0
C473 C 0.75148 0.96038 0.60344 0.0
C474 C 0.74925 0.89047 0.57911 0.0
C475 C 0.74415 0.96468 0.58548 0.0
C476 C 0.74236 0.86051 0.54797 0.0
C477 C 0.76381 0.78627 0.55929 0.0
N478 N 0.74343 0.93026 0.57395 0.0
N479 N 0.76072 0.81852 0.57089 0.0
H480 H 0.02014 0.86772 0.71284 0.0
H481 H 0.786 0.7231 0.77718 0.0
H482 H 0.9571 0.70788 0.72436 0.0
H483 H 0.89887 0.88129 0.7847 0.0
H484 H 0.84159 0.71611 0.75536 0.0
H485 H 0.96784 0.87316 0.7363 0.0
C486 C 0.9948 0.83362 0.72015 0.0
C487 C 0.99271 0.78718 0.71662 0.0
C488 C 0.85439 0.75215 0.76194 0.0
C489 C 0.93313 0.79329 0.74341 0.0
C490 C 0.82282 0.75616 0.77437 0.0
C491 C 0.83813 0.80278 0.78275 0.0
C492 C 0.90092 0.79541 0.75756 0.0
C493 C 0.886 0.84457 0.77863 0.0
C494 C 0.96549 0.83694 0.73365 0.0
C495 C 0.95976 0.74438 0.72666 0.0
N496 N 0.91551 0.84011 0.7661 0.0
N497 N 0.93092 0.74836 0.73955 0.0
H498 H 0.10293 0.99257 0.86163 0.0
H499 H 0.03001 0.75532 0.9237 0.0
H500 H 0.21098 0.9436 0.87408 0.0
H501 H 0.96903 0.85566 0.93165 0.0
H502 H 0.08803 0.81406 0.9014 0.0
H503 H 0.04332 0.93114 0.88303 0.0
C504 C 0.11376 0.96836 0.86867 0.0
C505 C 0.16184 0.97302 0.86613 0.0
C506 C 0.06202 0.82317 0.9081 0.0
C507 C 0.09416 0.90307 0.89044 0.0
C508 C 0.029 0.7898 0.92078 0.0
C509 C 0.99506 0.80097 0.92958 0.0
C510 C 0.06011 0.86727 0.90393 0.0
C511 C 0.99507 0.846 0.92529 0.0
C512 C 0.08 0.93377 0.88096 0.0
C513 C 0.17427 0.94121 0.87573 0.0
N514 N 0.02684 0.87738 0.91263 0.0
N515 N 0.14052 0.90735 0.88743 0.0
H516 H 0.60837 0.58508 0.98938 0.0
H517 H 0.35284 0.41953 0.04429 0.0
H518 H 0.58108 0.46134 0.02388 0.0
H519 H 0.36114 0.51039 -0.00048 0.0
H520 H 0.44504 0.45517 0.04285 0.0
H521 H 0.52651 0.57644 -0.00161 0.0
C522 C 0.58582 0.55715 -0.00074 0.0
C523 C 0.60165 0.52431 0.00613 0.0
C524 C 0.42694 0.46813 0.03354 0.0
C525 C 0.50789 0.51366 0.01623 0.0
C526 C 0.37432 0.44809 0.03442 0.0
C527 C 0.34918 0.4614 0.02181 0.0
C528 C 0.45477 0.50156 0.01989 0.0
C529 C 0.37898 0.49893 0.00945 0.0
C530 C 0.53897 0.55195 0.00427 0.0
C531 C 0.57027 0.48757 0.0184 0.0
N532 N 0.43024 0.51702 0.00856 0.0
N533 N 0.52482 0.48313 0.02302 0.0
H534 H 0.83067 0.35196 0.16002 0.0
H535 H 0.06415 0.62149 0.18893 0.0
H536 H 0.90307 0.37693 0.21061 0.0
H537 H 0.03898 0.56034 0.13658 0.0
H538 H 0.98542 0.54452 0.19852 0.0
H539 H 0.885 0.44263 0.15346 0.0
C540 C 0.85631 0.37684 0.17007 0.0
C541 C 0.86308 0.35678 0.18577 0.0
C542 C 0.99682 0.54858 0.18489 0.0
C543 C 0.92547 0.46008 0.17825 0.0
C544 C 0.04153 0.59216 0.17945 0.0
C545 C 0.05802 0.59646 0.16205 0.0
C546 C 0.96813 0.51004 0.17268 0.0
C547 C 0.02769 0.55782 0.15018 0.0
C548 C 0.88773 0.42845 0.16622 0.0
C549 C 0.89722 0.39085 0.19825 0.0
N550 N 0.98419 0.51612 0.15572 0.0
N551 N 0.9279 0.4408 0.19411 0.0
H552 H 0.40487 0.00923 0.31882 0.0
H553 H 0.58377 0.93515 0.37282 0.0
H554 H 0.52639 0.11 0.35342 0.0
H555 H 0.48413 0.84216 0.33126 0.0
H556 H 0.54416 0.9881 0.37175 0.0
H557 H 0.41637 0.93852 0.32856 0.0
C558 C 0.43288 0.01616 0.32886 0.0
C559 C 0.46456 0.06543 0.33544 0.0
C560 C 0.53016 0.95557 0.36307 0.0
C561 C 0.47848 0.9851 0.34638 0.0
C562 C 0.55255 0.92512 0.36376 0.0
C563 C 0.53769 0.88475 0.35192 0.0
C564 C 0.49314 0.94613 0.35026 0.0
C565 C 0.49679 0.87311 0.34057 0.0
C566 C 0.43974 0.97588 0.33429 0.0
C567 C 0.50135 0.07259 0.34799 0.0
N568 N 0.4766 0.90442 0.33973 0.0
N569 N 0.50748 0.03298 0.35298 0.0
H570 H 0.38987 0.40721 0.48627 0.0
H571 H 0.64092 0.56774 0.54353 0.0
H572 H 0.41159 0.52209 0.52405 0.0
H573 H 0.63633 0.48274 0.49758 0.0
H574 H 0.54845 0.52986 0.54201 0.0
H575 H 0.47149 0.4155 0.49524 0.0
C576 C 0.41106 0.43309 0.4968 0.0
C577 C 0.39383 0.46377 0.50456 0.0
C578 C 0.56742 0.51862 0.53245 0.0
C579 C 0.4874 0.47394 0.51466 0.0
C580 C 0.62019 0.53994 0.53339 0.0
C581 C 0.64634 0.52897 0.52048 0.0
C582 C 0.54057 0.48648 0.5184 0.0
C583 C 0.61759 0.49236 0.50774 0.0
C584 C 0.45785 0.4381 0.5018 0.0
C585 C 0.42364 0.49786 0.51773 0.0
N586 N 0.56619 0.47318 0.50678 0.0
N587 N 0.46903 0.50217 0.52232 0.0
H588 H 0.94839 0.42962 0.63682 0.0
H589 H 0.08618 0.61538 0.71224 0.0
H590 H 0.93155 0.37078 0.68932 0.0
H591 H 0.15561 0.64022 0.66113 0.0
H592 H 0.03376 0.52462 0.70548 0.0
H593 H 0.0264 0.50677 0.64581 0.0
C594 C 0.96152 0.43301 0.65023 0.0
C595 C 0.93362 0.39442 0.66243 0.0
C596 C 0.06169 0.54964 0.69597 0.0
C597 C 0.02222 0.48241 0.67286 0.0
C598 C 0.09181 0.60139 0.69986 0.0
C599 C 0.12474 0.63546 0.68713 0.0
C600 C 0.06367 0.53234 0.6791 0.0
C601 C 0.13053 0.61536 0.67129 0.0
C602 C 0.00621 0.47668 0.65532 0.0
C603 C 0.9522 0.40008 0.6796 0.0
N604 N 0.09905 0.56531 0.6675 0.0
N605 N 0.99492 0.44391 0.68445 0.0
H606 H 0.50696 0.93693 0.79698 0.0
H607 H 0.40624 0.04448 0.86813 0.0
H608 H 0.5212 0.90521 0.85111 0.0
H609 H 0.48974 0.13776 0.82391 0.0
H610 H 0.44441 0.99083 0.86282 0.0
H611 H 0.49495 0.0077 0.80632 0.0
C612 C 0.50763 0.94511 0.81084 0.0
C613 C 0.51468 0.9154 0.82335 0.0
C614 C 0.45536 0.02385 0.85459 0.0
C615 C 0.50054 0.99536 0.83408 0.0
C616 C 0.43373 0.05446 0.85762 0.0
C617 C 0.44483 0.09543 0.8464 0.0
C618 C 0.48682 0.03342 0.83991 0.0
C619 C 0.4804 0.10664 0.8329 0.0
C620 C 0.50132 0.98563 0.81614 0.0
C621 C 0.51575 0.92748 0.84113 0.0
N622 N 0.49913 0.07494 0.82972 0.0
N623 N 0.50774 0.9661 0.84604 0.0
H624 H 0.54479 0.40784 0.79426 0.0
H625 H 0.49314 0.63867 0.80715 0.0
H626 H 0.41857 0.39633 0.82424 0.0
H627 H 0.61636 0.64604 0.77637 0.0
H628 H 0.45518 0.54592 0.809 0.0
H629 H 0.56286 0.49121 0.78365 0.0
C630 C 0.52046 0.42266 0.79842 0.0
C631 C 0.47994 0.39502 0.81003 0.0
C632 C 0.48997 0.56777 0.80154 0.0
C633 C 0.50068 0.49081 0.79816 0.0
C634 C 0.51139 0.62066 0.80035 0.0
C635 C 0.55841 0.6501 0.79186 0.0
C636 C 0.51589 0.54451 0.79418 0.0
C637 C 0.58051 0.62483 0.78332 0.0
C638 C 0.53063 0.47018 0.79232 0.0
C639 C 0.44951 0.41585 0.81501 0.0
N640 N 0.55949 0.57366 0.78493 0.0
N641 N 0.46089 0.46283 0.80921 0.0
H642 H 0.91773 0.55451 0.93342 0.0
H643 H 0.01637 0.40854 0.99499 0.0
H644 H 0.84396 0.4825 0.98201 0.0
H645 H 0.10726 0.51989 0.95583 0.0
H646 H 0.9421 0.41512 0.98587 0.0
H647 H 0.97395 0.51888 0.93649 0.0
C648 C 0.91235 0.5299 0.94449 0.0
C649 C 0.87669 0.52218 0.95764 0.0
C650 C 0.97808 0.43737 0.97907 0.0
C651 C 0.9418 0.48221 0.96142 0.0
C652 C 0.02037 0.43335 0.98417 0.0
C653 C 0.06788 0.46343 0.97602 0.0
C654 C 0.98338 0.47143 0.96567 0.0
C655 C 0.0713 0.49613 0.96245 0.0
C656 C 0.94479 0.50995 0.94631 0.0
C657 C 0.87109 0.4896 0.97161 0.0
N658 N 0.02967 0.49933 0.95772 0.0
N659 N 0.90413 0.4716 0.97334 0.0
H660 H 0.35707 0.83309 0.1498 0.0
H661 H 0.61499 0.07764 0.11799 0.0
H662 H 0.37211 0.90895 0.10048 0.0
H663 H 0.57155 0.0348 0.17181 0.0
H664 H 0.5384 -0.00159 0.1086 0.0
H665 H 0.44911 0.88723 0.15446 0.0
C666 C 0.38005 0.85953 0.13959 0.0
C667 C 0.35697 0.86728 0.12488 0.0
C668 C 0.54626 0.00606 0.12245 0.0
C669 C 0.46164 0.92971 0.13027 0.0
C670 C 0.58965 0.0511 0.12777 0.0
C671 C 0.59858 0.06277 0.14563 0.0
C672 C 0.51248 0.97245 0.13515 0.0
C673 C 0.56517 0.02736 0.15789 0.0
C674 C 0.43244 0.89087 0.14236 0.0
C675 C 0.3885 0.90239 0.11213 0.0
N676 N 0.52341 0.98389 0.15243 0.0
N677 N 0.43917 0.93308 0.11526 0.0
H678 H 0.51099 0.55918 0.34231 0.0
H679 H 0.44804 0.36502 0.2686 0.0
H680 H 0.54608 0.61357 0.2891 0.0
H681 H 0.50684 0.34728 0.31798 0.0
H682 H 0.48592 0.45628 0.2745 0.0
H683 H 0.50838 0.4803 0.33337 0.0
C684 C 0.51835 0.5544 0.32875 0.0
C685 C 0.52832 0.59233 0.31636 0.0
C686 C 0.49195 0.43269 0.28377 0.0
C687 C 0.52501 0.50251 0.30601 0.0
C688 C 0.47058 0.38072 0.28037 0.0
C689 C 0.474 0.34859 0.29289 0.0
C690 C 0.5154 0.45209 0.30001 0.0
C691 C 0.50333 0.37073 0.30798 0.0
C692 C 0.51743 0.50978 0.32369 0.0
C693 C 0.53814 0.58486 0.29898 0.0
N694 N 0.5216 0.42093 0.31139 0.0
N695 N 0.53521 0.54021 0.2942 0.0
H696 H 0.98181 0.58706 0.49387 0.0
H697 H 0.07204 0.4299 0.43464 0.0
H698 H 0.88718 0.47178 0.4564 0.0
H699 H 0.15335 0.51288 0.48081 0.0
H700 H 0.01663 0.46658 0.43708 0.0
H701 H 0.05504 0.57923 0.48438 0.0
C702 C 0.97675 0.56112 0.48332 0.0
C703 C 0.92849 0.53025 0.47578 0.0
C704 C 0.04722 0.47764 0.44649 0.0
C705 C 0.01177 0.52072 0.46505 0.0
C706 C 0.07915 0.45701 0.44503 0.0
C707 C 0.11677 0.46768 0.45772 0.0
C708 C 0.0526 0.50886 0.46084 0.0
C709 C 0.12462 0.50345 0.47079 0.0
C710 C 0.01846 0.55639 0.47802 0.0
C711 C 0.92374 0.49614 0.46256 0.0
N712 N 0.092 0.522 0.47225 0.0
N713 N 0.96478 0.49218 0.45765 0.0
H714 H 0.37808 0.90966 0.62037 0.0
H715 H 0.63708 0.15452 0.65133 0.0
H716 H 0.4196 0.95643 0.67401 0.0
H717 H 0.62248 0.07443 0.60305 0.0
H718 H 0.54488 0.10117 0.65592 0.0
H719 H 0.4561 0.98714 0.6107 0.0
C720 C 0.40331 0.93668 0.63004 0.0
C721 C 0.39335 0.9266 0.64796 0.0
C722 C 0.56171 0.09635 0.64407 0.0
C723 C 0.48115 0.01496 0.63715 0.0
C724 C 0.6142 0.12718 0.64134 0.0
C725 C 0.63741 0.11815 0.62695 0.0
C726 C 0.53254 0.05671 0.63225 0.0
C727 C 0.606 0.08197 0.61446 0.0
C728 C 0.44754 0.98073 0.62457 0.0
C729 C 0.42672 0.96261 0.66007 0.0
N730 N 0.55522 0.05187 0.61754 0.0
N731 N 0.46929 0.0051 0.65445 0.0
H732 H 0.29036 0.28969 0.87678 0.0
H733 H 0.19409 0.22734 0.97591 0.0
H734 H 0.30285 0.18094 0.90975 0.0
H735 H 0.22183 0.36668 0.95079 0.0
H736 H 0.22192 0.20385 0.94946 0.0
H737 H 0.25826 0.31593 0.90213 0.0
C738 C 0.28694 0.27197 0.88942 0.0
C739 C 0.29843 0.23279 0.89129 0.0
C740 C 0.22174 0.2395 0.94966 0.0
C741 C 0.26122 0.26139 0.91991 0.0
C742 C 0.20543 0.25278 0.96473 0.0
C743 C 0.20623 0.29938 0.96566 0.0
C744 C 0.23908 0.27295 0.93531 0.0
C745 C 0.22079 0.33046 0.95065 0.0
C746 C 0.26836 0.28657 0.90378 0.0
C747 C 0.2936 0.21081 0.90781 0.0
N748 N 0.23717 0.3169 0.93608 0.0
N749 N 0.27487 0.22504 0.92144 0.0
H750 H 0.9944 0.29788 0.04497 0.0
H751 H 0.97694 0.23734 0.14762 0.0
H752 H 0.12297 0.33256 0.07817 0.0
H753 H 0.84766 0.22084 0.11809 0.0
H754 H 0.02899 0.26755 0.12137 0.0
H755 H 0.93843 0.26877 0.07097 0.0
C756 C 0.01079 0.30029 0.0578 0.0
C757 C 0.06295 0.31728 0.0596 0.0
C758 C 0.98922 0.25725 0.12055 0.0
C759 C -7e-05 0.28334 0.08903 0.0
C760 C 0.95931 0.23963 0.13556 0.0
C761 C 0.90792 0.22693 0.13513 0.0
C762 C 0.96779 0.2623 0.10488 0.0
C763 C 0.88716 0.23026 0.11902 0.0
C764 C 0.97899 0.28329 0.07255 0.0
C765 C 0.08274 0.3194 0.07634 0.0
N766 N 0.9173 0.24797 0.10452 0.0
N767 N 0.05117 0.30221 0.09038 0.0
H768 H 0.76622 0.92163 0.29511 0.0
H769 H 0.68369 0.05368 0.22794 0.0
H770 H 0.60584 0.85564 0.28356 0.0
H771 H 0.81426 0.03701 0.21654 0.0
H772 H 0.65384 0.98308 0.24892 0.0
H773 H 0.78652 0.96635 0.26691 0.0
C774 C 0.73538 0.91567 0.28641 0.0
C775 C 0.68439 0.88508 0.29155 0.0
C776 C 0.68845 0.99427 0.24153 0.0
C777 C 0.70715 0.93718 0.2598 0.0
C778 C 0.70538 0.03435 0.22957 0.0
C779 C 0.75153 0.05113 0.22062 0.0
C780 C 0.71873 0.97206 0.24485 0.0
C781 C 0.77884 0.02556 0.22344 0.0
C782 C 0.74691 0.94107 0.27037 0.0
C783 C 0.64566 0.87873 0.27994 0.0
N784 N 0.76262 0.98793 0.23561 0.0
N785 N 0.65782 0.90572 0.26474 0.0
H786 H 0.69937 0.81716 0.40677 0.0
H787 H 0.778 0.62616 0.44952 0.0
H788 H 0.70927 0.70351 0.37582 0.0
H789 H 0.7994 0.76401 0.47395 0.0
H790 H 0.75221 0.65085 0.42239 0.0
H791 H 0.73158 0.79302 0.43203 0.0
C792 C 0.70836 0.78692 0.40537 0.0
C793 C 0.70243 0.76265 0.38925 0.0
C794 C 0.7632 0.67584 0.43365 0.0
C795 C 0.73939 0.73459 0.4181 0.0
C796 C 0.77825 0.66201 0.44909 0.0
C797 C 0.79028 0.6928 0.46409 0.0
C798 C 0.76006 0.72054 0.43335 0.0
C799 C 0.78981 0.73872 0.46281 0.0
C800 C 0.72694 0.77324 0.41976 0.0
C801 C 0.71357 0.72307 0.38812 0.0
N802 N 0.77443 0.75085 0.4478 0.0
N803 N 0.73178 0.71021 0.40241 0.0
H804 H 0.86583 0.6607 0.57788 0.0
H805 H 0.14642 0.78108 0.61872 0.0
H806 H -0.00115 0.70151 0.54627 0.0
H807 H 0.01082 0.74644 0.64819 0.0
H808 H 0.09461 0.75187 0.59202 0.0
H809 H 0.91929 0.68808 0.60403 0.0
C810 C 0.90643 0.67485 0.57657 0.0
C811 C 0.9283 0.67913 0.56006 0.0
C812 C 0.07639 0.75097 0.60434 0.0
C813 C 0.99003 0.71151 0.58978 0.0
C814 C 0.10596 0.76799 0.61957 0.0
C815 C 0.08291 0.766 0.63577 0.0
C816 C 0.0235 0.73183 0.60536 0.0
C817 C 0.0303 0.74848 0.63606 0.0
C818 C 0.93703 0.69084 0.59144 0.0
C819 C 0.98088 0.69759 0.55889 0.0
N820 N 0.00246 0.73188 0.62113 0.0
N821 N 0.01026 0.71359 0.5736 0.0
H822 H 0.30802 0.94689 0.72704 0.0
H823 H 0.2167 0.0667 0.79608 0.0
H824 H 0.16812 0.94898 0.71841 0.0
H825 H 0.37679 0.14205 0.78285 0.0
H826 H 0.19672 0.02227 0.76788 0.0
H827 H 0.33525 0.01786 0.74773 0.0
C828 C 0.28363 0.96306 0.72922 0.0
C829 C 0.23562 0.94194 0.72122 0.0
C830 C 0.23611 0.04954 0.77098 0.0
C831 C 0.26559 0.02143 0.74504 0.0
C832 C 0.24745 0.07481 0.78702 0.0
C833 C 0.29837 0.10782 0.79173 0.0
C834 C 0.27611 0.05612 0.75995 0.0
C835 C 0.33699 0.11697 0.77962 0.0
C836 C 0.29906 0.00336 0.741 0.0
C837 C 0.20495 0.96358 0.72466 0.0
N838 N 0.32518 0.09012 0.76442 0.0
N839 N 0.21997 0.00152 0.73661 0.0
H840 H 0.76091 0.84669 0.85487 0.0
H841 H 0.67505 0.61955 0.91577 0.0
H842 H 0.59959 0.73947 0.85878 0.0
H843 H 0.7894 0.76835 0.93373 0.0
H844 H 0.64497 0.6602 0.89475 0.0
H845 H 0.77338 0.81873 0.88367 0.0
C846 C 0.72802 0.81823 0.86204 0.0
C847 C 0.67924 0.79534 0.85458 0.0
C848 C 0.67572 0.68381 0.90366 0.0
C849 C 0.69333 0.76194 0.88698 0.0
C850 C 0.69264 0.66066 0.91568 0.0
C851 C 0.73467 0.69079 0.92641 0.0
C852 C 0.70211 0.73717 0.90214 0.0
C853 C 0.75716 0.74395 0.92548 0.0
C854 C 0.73507 0.80229 0.87841 0.0
C855 C 0.63776 0.75823 0.86424 0.0
N856 N 0.7414 0.76557 0.91325 0.0
N857 N 0.6459 0.74157 0.87979 0.0
H858 H 0.97138 0.75632 -0.00196 0.0
H859 H 0.00278 0.71404 0.09967 0.0
H860 H 0.84947 0.63491 0.02766 0.0
H861 H 0.12725 0.79996 0.06394 0.0
H862 H 0.9426 0.68923 0.07487 0.0
H863 H 0.02493 0.78128 0.02401 0.0
C864 C 0.95557 0.73523 0.01007 0.0
C865 C 0.90604 0.69299 0.01058 0.0
C866 C 0.98313 0.71332 0.07251 0.0
C867 C 0.96771 0.72106 0.04042 0.0
C868 C 0.01729 0.72708 0.08657 0.0
C869 C 0.06968 0.75937 0.08373 0.0
C870 C 0.00189 0.73248 0.05568 0.0
C871 C 0.08695 0.77553 0.06663 0.0
C872 C 0.98638 0.7493 0.02489 0.0
C873 C 0.88756 0.66756 0.02665 0.0
N874 N 0.05314 0.76228 0.05329 0.0
N875 N 0.91863 0.68171 0.04095 0.0
H876 H 0.20204 0.95812 0.16744 0.0
H877 H 0.29194 0.99575 0.26738 0.0
H878 H 0.22884 0.84732 0.19362 0.0
H879 H 0.31054 0.11571 0.23245 0.0
H880 H 0.25928 0.93535 0.24258 0.0
H881 H 0.22682 0.00922 0.19393 0.0
C882 C 0.21258 0.94422 0.17888 0.0
C883 C 0.21415 0.89882 0.17825 0.0
C884 C 0.27068 0.97496 0.24042 0.0
C885 C 0.24356 0.95779 0.20865 0.0
C886 C 0.28955 0.0093 0.25447 0.0
C887 C 0.30297 0.06033 0.2519 0.0
C888 C 0.26517 0.99219 0.2239 0.0
C889 C 0.29945 0.07637 0.23502 0.0
C890 C 0.22708 0.97361 0.19398 0.0
C891 C 0.22731 0.88225 0.19357 0.0
N892 N 0.28048 0.04237 0.22172 0.0
N893 N 0.24219 0.91214 0.20817 0.0
H894 H 0.29907 0.29179 0.4357 0.0
H895 H 0.23963 0.21197 0.33554 0.0
H896 H 0.21673 0.33767 0.4011 0.0
H897 H 0.37049 0.21808 0.36075 0.0
H898 H 0.22255 0.24522 0.36202 0.0
H899 H 0.32248 0.25739 0.41023 0.0
C900 C 0.2872 0.29574 0.42268 0.0
C901 C 0.25603 0.3173 0.42031 0.0
C902 C 0.25493 0.23913 0.36182 0.0
C903 C 0.28065 0.277 0.39162 0.0
C904 C 0.26446 0.21967 0.34674 0.0
C905 C 0.307 0.21291 0.34582 0.0
C906 C 0.28798 0.25185 0.37621 0.0
C907 C 0.33736 0.22292 0.36089 0.0
C908 C 0.3 0.27575 0.40826 0.0
C909 C 0.24078 0.32114 0.40335 0.0
N910 N 0.32752 0.24239 0.3755 0.0
N911 N 0.25268 0.30058 0.38968 0.0
H912 H 0.99135 0.28182 0.60083 0.0
H913 H 0.02763 0.22955 0.50086 0.0
H914 H 0.86896 0.18874 0.56528 0.0
H915 H 0.1426 0.3634 0.52775 0.0
H916 H 0.97501 0.20526 0.52705 0.0
H917 H 0.05221 0.30728 0.57617 0.0
C918 C 0.9774 0.26734 0.5878 0.0
C919 C 0.92546 0.23279 0.58498 0.0
C920 C 0.01187 0.23984 0.52729 0.0
C921 C 0.99404 0.26033 0.55717 0.0
C922 C 0.04216 0.25357 0.51236 0.0
C923 C 0.08928 0.29901 0.51201 0.0
C924 C 0.02863 0.27165 0.54205 0.0
C925 C 0.10634 0.32818 0.52743 0.0
C926 C 0.01196 0.28147 0.57384 0.0
C927 C 0.90892 0.21484 0.56798 0.0
N928 N 0.07571 0.31426 0.54185 0.0
N929 N 0.94313 0.22842 0.55477 0.0
H930 H 0.80026 0.03332 0.66854 0.0
H931 H 0.7139 0.00197 0.76909 0.0
H932 H 0.77422 0.1441 0.69504 0.0
H933 H 0.72053 0.8867 0.73803 0.0
H934 H 0.74332 0.05928 0.74346 0.0
H935 H 0.78232 0.98536 0.69565 0.0
C936 C 0.79127 0.04786 0.68016 0.0
C937 C 0.78806 0.09239 0.67949 0.0
C938 C 0.73846 0.02149 0.74232 0.0
C939 C 0.76651 0.03702 0.71063 0.0
C940 C 0.72149 0.98888 0.75685 0.0
C941 C 0.71541 0.94001 0.75558 0.0
C942 C 0.7493 0.00476 0.72656 0.0
C943 C 0.72553 0.92446 0.73955 0.0
C944 C 0.78078 0.02031 0.69565 0.0
C945 C 0.77696 0.10982 0.69501 0.0
N946 N 0.74211 0.95675 0.72571 0.0
N947 N 0.7659 0.08168 0.70996 0.0
loop_
_geom_bond_atom_site_label_1
_geom_bond_atom_site_label_2
_geom_bond_distance
_geom_bond_site_symmetry_2
_ccdc_geom_bond_type
Co0 O3 1.970 . S
Co0 N17 1.989 . S
Co0 O25 1.967 . S
Co0 O32 1.920 . S
Co1 O4 1.966 1_554 S
Co1 N10 2.022 . S
Co1 N18 1.993 . S
Co1 O26 1.941 . S
C2 O3 1.258 1_556 S
C2 O4 1.263 . S
O3 Co0 1.970 . S
O3 C2 1.258 1_554 S
O4 Co1 1.966 1_556 S
O4 C2 1.263 . S
C5 O6 1.235 . S
C5 O32 1.289 . S
O6 C5 1.235 . S
C7 C9 1.400 . S
C7 N10 1.351 1_556 S
C7 C12 1.501 . S
C8 C9 1.387 1_554 S
C8 N11 1.341 . S
C9 C7 1.400 . S
C9 C8 1.387 1_556 S
N10 Co1 2.022 . S
N10 C7 1.351 1_554 S
N10 N11 1.365 . S
N11 C8 1.341 . S
N11 N10 1.365 . S
N11 H31 0.862 . S
C12 C7 1.501 . S
C12 H13 0.961 . S
C12 H14 0.961 . S
C12 H15 0.960 . S
H13 C12 0.961 . S
H14 C12 0.961 . S
H15 C12 0.960 . S
C16 N17 1.342 . S
C16 C20 1.401 . S
C16 C21 1.499 . S
N17 Co0 1.989 . S
N17 C16 1.342 . S
N17 N18 1.388 . S
N18 Co1 1.993 . S
N18 N17 1.388 . S
N18 C19 1.346 . S
C19 N18 1.346 . S
C19 C20 1.396 . S
C19 C29 1.510 . S
C20 C16 1.401 . S
C20 C19 1.396 . S
C21 C16 1.499 . S
C21 H22 0.959 . S
C21 H23 0.960 . S
C21 H24 0.961 . S
H22 C21 0.959 . S
H23 C21 0.960 . S
H24 C21 0.961 . S
O25 Co0 1.967 . S
O25 C33 1.258 . S
O26 Co1 1.941 . S
O26 C33 1.266 . S
H27 C29 0.959 . S
H28 C29 0.961 . S
C29 C19 1.510 . S
C29 H27 0.959 . S
C29 H28 0.961 . S
C29 H30 0.960 . S
H30 C29 0.960 . S
H31 N11 0.862 . S
O32 Co0 1.920 . S
O32 C5 1.289 . S
C33 O25 1.258 . S
C33 O26 1.266 . S
Co34 O37 1.970 . S
Co34 N51 1.989 . S
Co34 O59 1.967 . S
Co34 O66 1.920 . S
Co35 O38 1.966 . S
Co35 N44 2.022 . S
Co35 N52 1.993 . S
Co35 O60 1.941 . S
C36 O37 1.258 . S
C36 O38 1.263 . S
O37 Co34 1.970 . S
O37 C36 1.258 . S
O38 Co35 1.966 . S
O38 C36 1.263 . S
C39 O40 1.235 . S
C39 O66 1.289 . S
O40 C39 1.235 . S
C41 C43 1.400 . S
C41 N44 1.351 . S
C41 C46 1.501 . S
C42 C43 1.387 . S
C42 N45 1.341 . S
C43 C41 1.400 . S
C43 C42 1.387 . S
N44 Co35 2.022 . S
N44 C41 1.351 . S
N44 N45 1.365 . S
N45 C42 1.341 . S
N45 N44 1.365 . S
N45 H65 0.862 . S
C46 C41 1.501 . S
C46 H47 0.961 . S
C46 H48 0.961 . S
C46 H49 0.960 . S
H47 C46 0.961 . S
H48 C46 0.961 . S
H49 C46 0.960 . S
C50 N51 1.342 . S
C50 C54 1.401 . S
C50 C55 1.499 . S
N51 Co34 1.989 . S
N51 C50 1.342 . S
N51 N52 1.388 . S
N52 Co35 1.993 . S
N52 N51 1.388 . S
N52 C53 1.346 . S
C53 N52 1.346 . S
C53 C54 1.396 . S
C53 C63 1.510 . S
C54 C50 1.401 . S
C54 C53 1.396 . S
C55 C50 1.499 . S
C55 H56 0.959 . S
C55 H57 0.960 . S
C55 H58 0.961 . S
H56 C55 0.959 . S
H57 C55 0.960 . S
H58 C55 0.961 . S
O59 Co34 1.967 . S
O59 C67 1.258 . S
O60 Co35 1.941 . S
O60 C67 1.266 . S
H61 C63 0.959 . S
H62 C63 0.961 . S
C63 C53 1.510 . S
C63 H61 0.959 . S
C63 H62 0.961 . S
C63 H64 0.960 . S
H64 C63 0.960 . S
H65 N45 0.862 . S
O66 Co34 1.920 . S
O66 C39 1.289 . S
C67 O59 1.258 . S
C67 O60 1.266 . S
Co68 O71 1.970 . S
Co68 N85 1.989 . S
Co68 O93 1.967 . S
Co68 O100 1.920 . S
Co69 O72 1.966 . S
Co69 N78 2.022 . S
Co69 N86 1.993 . S
Co69 O94 1.941 . S
C70 O71 1.258 . S
C70 O72 1.263 . S
O71 Co68 1.970 . S
O71 C70 1.258 . S
O72 Co69 1.966 . S
O72 C70 1.263 . S
C73 O74 1.235 . S
C73 O100 1.289 . S
O74 C73 1.235 . S
C75 C77 1.400 . S
C75 N78 1.351 . S
C75 C80 1.501 . S
C76 C77 1.387 . S
C76 N79 1.341 . S
C77 C75 1.400 . S
C77 C76 1.387 . S
N78 Co69 2.022 . S
N78 C75 1.351 . S
N78 N79 1.365 . S
N79 C76 1.341 . S
N79 N78 1.365 . S
N79 H99 0.862 . S
C80 C75 1.501 . S
C80 H81 0.961 . S
C80 H82 0.961 . S
C80 H83 0.960 . S
H81 C80 0.961 . S
H82 C80 0.961 . S
H83 C80 0.960 . S
C84 N85 1.342 . S
C84 C88 1.401 . S
C84 C89 1.499 . S
N85 Co68 1.989 . S
N85 C84 1.342 . S
N85 N86 1.388 . S
N86 Co69 1.993 . S
N86 N85 1.388 . S
N86 C87 1.346 . S
C87 N86 1.346 . S
C87 C88 1.396 . S
C87 C97 1.510 . S
C88 C84 1.401 . S
C88 C87 1.396 . S
C89 C84 1.499 . S
C89 H90 0.959 . S
C89 H91 0.960 . S
C89 H92 0.961 . S
H90 C89 0.959 . S
H91 C89 0.960 . S
H92 C89 0.961 . S
O93 Co68 1.967 . S
O93 C101 1.258 . S
O94 Co69 1.941 . S
O94 C101 1.266 . S
H95 C97 0.959 . S
H96 C97 0.961 . S
C97 C87 1.510 . S
C97 H95 0.959 . S
C97 H96 0.961 . S
C97 H98 0.960 . S
H98 C97 0.960 . S
H99 N79 0.862 . S
O100 Co68 1.920 . S
O100 C73 1.289 . S
C101 O93 1.258 . S
C101 O94 1.266 . S
Co102 O105 1.970 . S
Co102 N119 1.989 . S
Co102 O127 1.967 . S
Co102 O134 1.920 . S
Co103 O106 1.966 . S
Co103 N112 2.022 . S
Co103 N120 1.993 . S
Co103 O128 1.941 . S
C104 O105 1.258 . S
C104 O106 1.263 . S
O105 Co102 1.970 . S
O105 C104 1.258 . S
O106 Co103 1.966 . S
O106 C104 1.263 . S
C107 O108 1.235 . S
C107 O134 1.289 . S
O108 C107 1.235 . S
C109 C111 1.400 . S
C109 N112 1.351 . S
C109 C114 1.501 . S
C110 C111 1.387 . S
C110 N113 1.341 . S
C111 C109 1.400 . S
C111 C110 1.387 . S
N112 Co103 2.022 . S
N112 C109 1.351 . S
N112 N113 1.365 . S
N113 C110 1.341 . S
N113 N112 1.365 . S
N113 H133 0.862 . S
C114 C109 1.501 . S
C114 H115 0.961 . S
C114 H116 0.961 . S
C114 H117 0.960 . S
H115 C114 0.961 . S
H116 C114 0.961 . S
H117 C114 0.960 . S
C118 N119 1.342 . S
C118 C122 1.401 . S
C118 C123 1.499 . S
N119 Co102 1.989 . S
N119 C118 1.342 . S
N119 N120 1.388 . S
N120 Co103 1.993 . S
N120 N119 1.388 . S
N120 C121 1.346 . S
C121 N120 1.346 . S
C121 C122 1.396 . S
C121 C131 1.510 . S
C122 C118 1.401 . S
C122 C121 1.396 . S
C123 C118 1.499 . S
C123 H124 0.959 . S
C123 H125 0.960 . S
C123 H126 0.961 . S
H124 C123 0.959 . S
H125 C123 0.960 . S
H126 C123 0.961 . S
O127 Co102 1.967 . S
O127 C135 1.258 . S
O128 Co103 1.941 . S
O128 C135 1.266 . S
H129 C131 0.959 . S
H130 C131 0.961 . S
C131 C121 1.510 . S
C131 H129 0.959 . S
C131 H130 0.961 . S
C131 H132 0.960 . S
H132 C131 0.960 . S
H133 N113 0.862 . S
O134 Co102 1.920 . S
O134 C107 1.289 . S
C135 O127 1.258 . S
C135 O128 1.266 . S
Co136 O139 1.970 . S
Co136 N153 1.989 . S
Co136 O161 1.967 . S
Co136 O168 1.920 . S
Co137 O140 1.966 . S
Co137 N146 2.022 . S
Co137 N154 1.993 . S
Co137 O162 1.941 . S
C138 O139 1.258 . S
C138 O140 1.263 . S
O139 Co136 1.970 . S
O139 C138 1.258 . S
O140 Co137 1.966 . S
O140 C138 1.263 . S
C141 O142 1.235 . S
C141 O168 1.289 . S
O142 C141 1.235 . S
C143 C145 1.400 . S
C143 N146 1.351 . S
C143 C148 1.501 . S
C144 C145 1.387 . S
C144 N147 1.341 . S
C145 C143 1.400 . S
C145 C144 1.387 . S
N146 Co137 2.022 . S
N146 C143 1.351 . S
N146 N147 1.365 . S
N147 C144 1.341 . S
N147 N146 1.365 . S
N147 H167 0.862 . S
C148 C143 1.501 . S
C148 H149 0.961 . S
C148 H150 0.961 . S
C148 H151 0.960 . S
H149 C148 0.961 . S
H150 C148 0.961 . S
H151 C148 0.960 . S
C152 N153 1.342 . S
C152 C156 1.401 . S
C152 C157 1.499 . S
N153 Co136 1.989 . S
N153 C152 1.342 . S
N153 N154 1.388 . S
N154 Co137 1.993 . S
N154 N153 1.388 . S
N154 C155 1.346 . S
C155 N154 1.346 . S
C155 C156 1.396 . S
C155 C165 1.510 . S
C156 C152 1.401 . S
C156 C155 1.396 . S
C157 C152 1.499 . S
C157 H158 0.959 . S
C157 H159 0.960 . S
C157 H160 0.961 . S
H158 C157 0.959 . S
H159 C157 0.960 . S
H160 C157 0.961 . S
O161 Co136 1.967 . S
O161 C169 1.258 . S
O162 Co137 1.941 . S
O162 C169 1.266 . S
H163 C165 0.959 . S
H164 C165 0.961 . S
C165 C155 1.510 . S
C165 H163 0.959 . S
C165 H164 0.961 . S
C165 H166 0.960 . S
H166 C165 0.960 . S
H167 N147 0.862 . S
O168 Co136 1.920 . S
O168 C141 1.289 . S
C169 O161 1.258 . S
C169 O162 1.266 . S
Co170 O173 1.970 . S
Co170 N187 1.989 . S
Co170 O195 1.967 . S
Co170 O202 1.920 . S
Co171 O174 1.966 . S
Co171 N180 2.022 . S
Co171 N188 1.993 . S
Co171 O196 1.941 . S
C172 O173 1.258 . S
C172 O174 1.263 . S
O173 Co170 1.970 . S
O173 C172 1.258 . S
O174 Co171 1.966 . S
O174 C172 1.263 . S
C175 O176 1.235 . S
C175 O202 1.289 . S
O176 C175 1.235 . S
C177 C179 1.400 . S
C177 N180 1.351 . S
C177 C182 1.501 . S
C178 C179 1.387 . S
C178 N181 1.341 . S
C179 C177 1.400 . S
C179 C178 1.387 . S
N180 Co171 2.022 . S
N180 C177 1.351 . S
N180 N181 1.365 . S
N181 C178 1.341 . S
N181 N180 1.365 . S
N181 H201 0.862 . S
C182 C177 1.501 . S
C182 H183 0.961 . S
C182 H184 0.961 . S
C182 H185 0.960 . S
H183 C182 0.961 . S
H184 C182 0.961 . S
H185 C182 0.960 . S
C186 N187 1.342 . S
C186 C190 1.401 . S
C186 C191 1.499 . S
N187 Co170 1.989 . S
N187 C186 1.342 . S
N187 N188 1.388 . S
N188 Co171 1.993 . S
N188 N187 1.388 . S
N188 C189 1.346 . S
C189 N188 1.346 . S
C189 C190 1.396 . S
C189 C199 1.510 . S
C190 C186 1.401 . S
C190 C189 1.396 . S
C191 C186 1.499 . S
C191 H192 0.959 . S
C191 H193 0.960 . S
C191 H194 0.961 . S
H192 C191 0.959 . S
H193 C191 0.960 . S
H194 C191 0.961 . S
O195 Co170 1.967 . S
O195 C203 1.258 . S
O196 Co171 1.941 . S
O196 C203 1.266 . S
H197 C199 0.959 . S
H198 C199 0.961 . S
C199 C189 1.510 . S
C199 H197 0.959 . S
C199 H198 0.961 . S
C199 H200 0.960 . S
H200 C199 0.960 . S
H201 N181 0.862 . S
O202 Co170 1.920 . S
O202 C175 1.289 . S
C203 O195 1.258 . S
C203 O196 1.266 . S
Co204 O207 1.970 . S
Co204 N221 1.989 . S
Co204 O229 1.967 . S
Co204 O236 1.920 . S
Co205 O208 1.966 . S
Co205 N214 2.022 . S
Co205 N222 1.993 . S
Co205 O230 1.941 . S
C206 O207 1.258 . S
C206 O208 1.263 . S
O207 Co204 1.970 . S
O207 C206 1.258 . S
O208 Co205 1.966 . S
O208 C206 1.263 . S
C209 O210 1.235 . S
C209 O236 1.289 . S
O210 C209 1.235 . S
C211 C213 1.400 . S
C211 N214 1.351 . S
C211 C216 1.501 . S
C212 C213 1.387 . S
C212 N215 1.341 . S
C213 C211 1.400 . S
C213 C212 1.387 . S
N214 Co205 2.022 . S
N214 C211 1.351 . S
N214 N215 1.365 . S
N215 C212 1.341 . S
N215 N214 1.365 . S
N215 H235 0.862 . S
C216 C211 1.501 . S
C216 H217 0.961 . S
C216 H218 0.961 . S
C216 H219 0.960 . S
H217 C216 0.961 . S
H218 C216 0.961 . S
H219 C216 0.960 . S
C220 N221 1.342 . S
C220 C224 1.401 . S
C220 C225 1.499 . S
N221 Co204 1.989 . S
N221 C220 1.342 . S
N221 N222 1.388 . S
N222 Co205 1.993 . S
N222 N221 1.388 . S
N222 C223 1.346 . S
C223 N222 1.346 . S
C223 C224 1.396 . S
C223 C233 1.510 . S
C224 C220 1.401 . S
C224 C223 1.396 . S
C225 C220 1.499 . S
C225 H226 0.959 . S
C225 H227 0.960 . S
C225 H228 0.961 . S
H226 C225 0.959 . S
H227 C225 0.960 . S
H228 C225 0.961 . S
O229 Co204 1.967 . S
O229 C237 1.258 . S
O230 Co205 1.941 . S
O230 C237 1.266 . S
H231 C233 0.959 . S
H232 C233 0.961 . S
C233 C223 1.510 . S
C233 H231 0.959 . S
C233 H232 0.961 . S
C233 H234 0.960 . S
H234 C233 0.960 . S
H235 N215 0.862 . S
O236 Co204 1.920 . S
O236 C209 1.289 . S
C237 O229 1.258 . S
C237 O230 1.266 . S
Co238 O241 1.970 . S
Co238 N255 1.989 . S
Co238 O263 1.967 . S
Co238 O270 1.920 . S
Co239 O242 1.966 . S
Co239 N248 2.022 . S
Co239 N256 1.993 . S
Co239 O264 1.941 . S
C240 O241 1.258 . S
C240 O242 1.263 . S
O241 Co238 1.970 . S
O241 C240 1.258 . S
O242 Co239 1.966 . S
O242 C240 1.263 . S
C243 O244 1.235 . S
C243 O270 1.289 . S
O244 C243 1.235 . S
C245 C247 1.400 . S
C245 N248 1.351 . S
C245 C250 1.501 1_556 S
C246 C247 1.387 . S
C246 N249 1.341 . S
C247 C245 1.400 . S
C247 C246 1.387 . S
N248 Co239 2.022 . S
N248 C245 1.351 . S
N248 N249 1.365 . S
N249 C246 1.341 . S
N249 N248 1.365 . S
N249 H269 0.862 . S
C250 C245 1.501 1_554 S
C250 H251 0.961 . S
C250 H252 0.961 . S
C250 H253 0.960 . S
H251 C250 0.961 . S
H252 C250 0.961 . S
H253 C250 0.960 . S
C254 N255 1.342 . S
C254 C258 1.401 . S
C254 C259 1.499 . S
N255 Co238 1.989 . S
N255 C254 1.342 . S
N255 N256 1.388 . S
N256 Co239 1.993 . S
N256 N255 1.388 . S
N256 C257 1.346 . S
C257 N256 1.346 . S
C257 C258 1.396 . S
C257 C267 1.510 . S
C258 C254 1.401 . S
C258 C257 1.396 . S
C259 C254 1.499 . S
C259 H260 0.959 . S
C259 H261 0.960 . S
C259 H262 0.961 . S
H260 C259 0.959 . S
H261 C259 0.960 . S
H262 C259 0.961 . S
O263 Co238 1.967 . S
O263 C271 1.258 . S
O264 Co239 1.941 . S
O264 C271 1.266 . S
H265 C267 0.959 . S
H266 C267 0.961 . S
C267 C257 1.510 . S
C267 H265 0.959 . S
C267 H266 0.961 . S
C267 H268 0.960 . S
H268 C267 0.960 . S
H269 N249 0.862 . S
O270 Co238 1.920 . S
O270 C243 1.289 . S
C271 O263 1.258 . S
C271 O264 1.266 . S
Co272 O275 1.970 . S
Co272 N289 1.989 . S
Co272 O297 1.967 . S
Co272 O304 1.920 . S
Co273 O276 1.966 . S
Co273 N282 2.022 . S
Co273 N290 1.993 . S
Co273 O298 1.941 . S
C274 O275 1.258 . S
C274 O276 1.263 . S
O275 Co272 1.970 . S
O275 C274 1.258 . S
O276 Co273 1.966 . S
O276 C274 1.263 . S
C277 O278 1.235 . S
C277 O304 1.289 . S
O278 C277 1.235 . S
C279 C281 1.400 . S
C279 N282 1.351 . S
C279 C284 1.501 . S
C280 C281 1.387 . S
C280 N283 1.341 . S
C281 C279 1.400 . S
C281 C280 1.387 . S
N282 Co273 2.022 . S
N282 C279 1.351 . S
N282 N283 1.365 . S
N283 C280 1.341 . S
N283 N282 1.365 . S
N283 H303 0.862 . S
C284 C279 1.501 . S
C284 H285 0.961 . S
C284 H286 0.961 . S
C284 H287 0.960 . S
H285 C284 0.961 . S
H286 C284 0.961 . S
H287 C284 0.960 . S
C288 N289 1.342 . S
C288 C292 1.401 . S
C288 C293 1.499 . S
N289 Co272 1.989 . S
N289 C288 1.342 . S
N289 N290 1.388 . S
N290 Co273 1.993 . S
N290 N289 1.388 . S
N290 C291 1.346 . S
C291 N290 1.346 . S
C291 C292 1.396 . S
C291 C301 1.510 . S
C292 C288 1.401 . S
C292 C291 1.396 . S
C293 C288 1.499 . S
C293 H294 0.959 . S
C293 H295 0.960 . S
C293 H296 0.961 . S
H294 C293 0.959 . S
H295 C293 0.960 . S
H296 C293 0.961 . S
O297 Co272 1.967 . S
O297 C305 1.258 . S
O298 Co273 1.941 . S
O298 C305 1.266 . S
H299 C301 0.959 . S
H300 C301 0.961 . S
C301 C291 1.510 . S
C301 H299 0.959 . S
C301 H300 0.961 . S
C301 H302 0.960 . S
H302 C301 0.960 . S
H303 N283 0.862 . S
O304 Co272 1.920 . S
O304 C277 1.289 . S
C305 O297 1.258 . S
C305 O298 1.266 . S
Co306 O309 1.970 . S
Co306 N323 1.989 . S
Co306 O331 1.967 . S
Co306 O338 1.920 . S
Co307 O310 1.966 . S
Co307 N316 2.022 . S
Co307 N324 1.993 . S
Co307 O332 1.941 . S
C308 O309 1.258 . S
C308 O310 1.263 . S
O309 Co306 1.970 . S
O309 C308 1.258 . S
O310 Co307 1.966 . S
O310 C308 1.263 . S
C311 O312 1.235 . S
C311 O338 1.289 . S
O312 C311 1.235 . S
C313 C315 1.400 . S
C313 N316 1.351 . S
C313 C318 1.501 . S
C314 C315 1.387 . S
C314 N317 1.341 . S
C315 C313 1.400 . S
C315 C314 1.387 . S
N316 Co307 2.022 . S
N316 C313 1.351 . S
N316 N317 1.365 . S
N317 C314 1.341 . S
N317 N316 1.365 . S
N317 H337 0.862 . S
C318 C313 1.501 . S
C318 H319 0.961 . S
C318 H320 0.961 . S
C318 H321 0.960 . S
H319 C318 0.961 . S
H320 C318 0.961 . S
H321 C318 0.960 . S
C322 N323 1.342 . S
C322 C326 1.401 . S
C322 C327 1.499 . S
N323 Co306 1.989 . S
N323 C322 1.342 . S
N323 N324 1.388 . S
N324 Co307 1.993 . S
N324 N323 1.388 . S
N324 C325 1.346 . S
C325 N324 1.346 . S
C325 C326 1.396 . S
C325 C335 1.510 . S
C326 C322 1.401 . S
C326 C325 1.396 . S
C327 C322 1.499 . S
C327 H328 0.959 . S
C327 H329 0.960 . S
C327 H330 0.961 . S
H328 C327 0.959 . S
H329 C327 0.960 . S
H330 C327 0.961 . S
O331 Co306 1.967 . S
O331 C339 1.258 . S
O332 Co307 1.941 . S
O332 C339 1.266 . S
H333 C335 0.959 . S
H334 C335 0.961 . S
C335 C325 1.510 . S
C335 H333 0.959 . S
C335 H334 0.961 . S
C335 H336 0.960 . S
H336 C335 0.960 . S
H337 N317 0.862 . S
O338 Co306 1.920 . S
O338 C311 1.289 . S
C339 O331 1.258 . S
C339 O332 1.266 . S
Co340 O343 1.970 . S
Co340 N357 1.989 . S
Co340 O365 1.967 . S
Co340 O372 1.920 . S
Co341 O344 1.966 . S
Co341 N350 2.022 . S
Co341 N358 1.993 . S
Co341 O366 1.941 . S
C342 O343 1.258 . S
C342 O344 1.263 . S
O343 Co340 1.970 . S
O343 C342 1.258 . S
O344 Co341 1.966 . S
O344 C342 1.263 . S
C345 O346 1.235 . S
C345 O372 1.289 . S
O346 C345 1.235 . S
C347 C349 1.400 . S
C347 N350 1.351 . S
C347 C352 1.501 . S
C348 C349 1.387 . S
C348 N351 1.341 . S
C349 C347 1.400 . S
C349 C348 1.387 . S
N350 Co341 2.022 . S
N350 C347 1.351 . S
N350 N351 1.365 . S
N351 C348 1.341 . S
N351 N350 1.365 . S
N351 H371 0.862 . S
C352 C347 1.501 . S
C352 H353 0.961 . S
C352 H354 0.961 . S
C352 H355 0.960 . S
H353 C352 0.961 . S
H354 C352 0.961 . S
H355 C352 0.960 . S
C356 N357 1.342 . S
C356 C360 1.401 . S
C356 C361 1.499 . S
N357 Co340 1.989 . S
N357 C356 1.342 . S
N357 N358 1.388 . S
N358 Co341 1.993 . S
N358 N357 1.388 . S
N358 C359 1.346 . S
C359 N358 1.346 . S
C359 C360 1.396 . S
C359 C369 1.510 . S
C360 C356 1.401 . S
C360 C359 1.396 . S
C361 C356 1.499 . S
C361 H362 0.959 . S
C361 H363 0.960 . S
C361 H364 0.961 . S
H362 C361 0.959 . S
H363 C361 0.960 . S
H364 C361 0.961 . S
O365 Co340 1.967 . S
O365 C373 1.258 . S
O366 Co341 1.941 . S
O366 C373 1.266 . S
H367 C369 0.959 . S
H368 C369 0.961 . S
C369 C359 1.510 . S
C369 H367 0.959 . S
C369 H368 0.961 . S
C369 H370 0.960 . S
H370 C369 0.960 . S
H371 N351 0.862 . S
O372 Co340 1.920 . S
O372 C345 1.289 . S
C373 O365 1.258 . S
C373 O366 1.266 . S
Co374 O377 1.970 . S
Co374 N391 1.989 . S
Co374 O399 1.967 . S
Co374 O406 1.920 . S
Co375 O378 1.966 . S
Co375 N384 2.022 . S
Co375 N392 1.993 . S
Co375 O400 1.941 . S
C376 O377 1.258 . S
C376 O378 1.263 . S
O377 Co374 1.970 . S
O377 C376 1.258 . S
O378 Co375 1.966 . S
O378 C376 1.263 . S
C379 O380 1.235 . S
C379 O406 1.289 . S
O380 C379 1.235 . S
C381 C383 1.400 . S
C381 N384 1.351 . S
C381 C386 1.501 . S
C382 C383 1.387 . S
C382 N385 1.341 . S
C383 C381 1.400 . S
C383 C382 1.387 . S
N384 Co375 2.022 . S
N384 C381 1.351 . S
N384 N385 1.365 . S
N385 C382 1.341 . S
N385 N384 1.365 . S
N385 H405 0.862 . S
C386 C381 1.501 . S
C386 H387 0.961 . S
C386 H388 0.961 . S
C386 H389 0.960 . S
H387 C386 0.961 . S
H388 C386 0.961 . S
H389 C386 0.960 . S
C390 N391 1.342 . S
C390 C394 1.401 . S
C390 C395 1.499 . S
N391 Co374 1.989 . S
N391 C390 1.342 . S
N391 N392 1.388 . S
N392 Co375 1.993 . S
N392 N391 1.388 . S
N392 C393 1.346 . S
C393 N392 1.346 . S
C393 C394 1.396 . S
C393 C403 1.510 . S
C394 C390 1.401 . S
C394 C393 1.396 . S
C395 C390 1.499 . S
C395 H396 0.959 . S
C395 H397 0.960 . S
C395 H398 0.961 . S
H396 C395 0.959 . S
H397 C395 0.960 . S
H398 C395 0.961 . S
O399 Co374 1.967 . S
O399 C407 1.258 . S
O400 Co375 1.941 . S
O400 C407 1.266 . S
H401 C403 0.959 . S
H402 C403 0.961 . S
C403 C393 1.510 . S
C403 H401 0.959 . S
C403 H402 0.961 . S
C403 H404 0.960 . S
H404 C403 0.960 . S
H405 N385 0.862 . S
O406 Co374 1.920 . S
O406 C379 1.289 . S
C407 O399 1.258 . S
C407 O400 1.266 . S
H408 C414 0.930 . S
H409 C418 0.930 1_565 S
H410 C423 0.929 . S
H411 C421 0.929 . S
H412 C416 0.929 . S
H413 C422 0.929 . S
C414 H408 0.930 . S
C414 C415 1.367 . S
C414 C422 1.378 . S
C415 C414 1.367 . S
C415 C423 1.433 . S
C416 H412 0.929 . S
C416 C418 1.378 . S
C416 C420 1.350 . S
C417 C420 1.463 . S
C417 C422 1.350 . S
C417 N425 1.427 . S
C418 H409 0.930 1_545 S
C418 C416 1.378 . S
C418 C419 1.367 . S
C419 C418 1.367 . S
C419 C421 1.433 . S
C420 C416 1.350 . S
C420 C417 1.463 . S
C420 N424 1.427 . S
C421 H411 0.929 . S
C421 C419 1.433 . S
C421 N424 1.384 . S
C422 H413 0.929 . S
C422 C414 1.378 . S
C422 C417 1.350 . S
C423 H410 0.929 . S
C423 C415 1.433 . S
C423 N425 1.384 . S
N424 C420 1.427 . S
N424 C421 1.384 . S
N425 C417 1.427 . S
N425 C423 1.384 . S
H426 C432 0.930 . S
H427 C436 0.930 1_655 S
H428 C441 0.929 . S
H429 C439 0.929 . S
H430 C434 0.929 . S
H431 C440 0.929 . S
C432 H426 0.930 . S
C432 C433 1.367 . S
C432 C440 1.378 . S
C433 C432 1.367 . S
C433 C441 1.433 . S
C434 H430 0.929 . S
C434 C436 1.378 . S
C434 C438 1.350 . S
C435 C438 1.463 . S
C435 C440 1.350 . S
C435 N443 1.427 . S
C436 H427 0.930 1_455 S
C436 C434 1.378 . S
C436 C437 1.367 . S
C437 C436 1.367 . S
C437 C439 1.433 . S
C438 C434 1.350 . S
C438 C435 1.463 . S
C438 N442 1.427 . S
C439 H429 0.929 . S
C439 C437 1.433 . S
C439 N442 1.384 . S
C440 H431 0.929 . S
C440 C432 1.378 . S
C440 C435 1.350 . S
C441 H428 0.929 . S
C441 C433 1.433 . S
C441 N443 1.384 . S
N442 C438 1.427 . S
N442 C439 1.384 . S
N443 C435 1.427 . S
N443 C441 1.384 . S
H444 C450 0.930 1_455 S
H445 C454 0.930 1_565 S
H446 C459 0.929 . S
H447 C457 0.929 . S
H448 C452 0.929 . S
H449 C458 0.929 . S
C450 H444 0.930 1_655 S
C450 C451 1.367 . S
C450 C458 1.378 . S
C451 C450 1.367 . S
C451 C459 1.433 . S
C452 H448 0.929 . S
C452 C454 1.378 . S
C452 C456 1.350 . S
C453 C456 1.463 . S
C453 C458 1.350 . S
C453 N461 1.427 . S
C454 H445 0.930 1_545 S
C454 C452 1.378 . S
C454 C455 1.367 . S
C455 C454 1.367 . S
C455 C457 1.433 . S
C456 C452 1.350 . S
C456 C453 1.463 . S
C456 N460 1.427 . S
C457 H447 0.929 . S
C457 C455 1.433 . S
C457 N460 1.384 . S
C458 H449 0.929 . S
C458 C450 1.378 . S
C458 C453 1.350 . S
C459 H446 0.929 . S
C459 C451 1.433 . S
C459 N461 1.384 . S
N460 C456 1.427 . S
N460 C457 1.384 . S
N461 C453 1.427 . S
N461 C459 1.384 . S
H462 C468 0.930 . S
H463 C472 0.930 . S
H464 C477 0.929 . S
H465 C475 0.908 1_545 S
H466 C470 0.929 . S
H467 C476 0.929 . S
C468 H462 0.930 . S
C468 C469 1.367 . S
C468 C476 1.378 . S
C469 C468 1.367 . S
C469 C477 1.433 . S
C470 H466 0.929 . S
C470 C472 1.378 . S
C470 C474 1.350 . S
C471 C474 1.463 . S
C471 C476 1.350 . S
C471 N479 1.427 . S
C472 H463 0.930 . S
C472 C470 1.378 . S
C472 C473 1.367 . S
C473 C472 1.367 . S
C473 C475 1.439 . S
C474 C470 1.350 . S
C474 C471 1.463 . S
C474 N478 1.427 . S
C475 H465 0.908 1_565 S
C475 C473 1.439 . S
C475 N478 1.400 . S
C476 H467 0.929 . S
C476 C468 1.378 . S
C476 C471 1.350 . S
C477 H464 0.929 . S
C477 C469 1.433 . S
C477 N479 1.384 . S
N478 C474 1.427 . S
N478 C475 1.400 . S
N479 C471 1.427 . S
N479 C477 1.384 . S
H480 C486 0.930 1_455 S
H481 C490 0.930 . S
H482 C495 0.929 . S
H483 C493 0.929 . S
H484 C488 0.929 . S
H485 C494 0.929 . S
C486 H480 0.930 1_655 S
C486 C487 1.367 . S
C486 C494 1.378 . S
C487 C486 1.367 . S
C487 C495 1.433 . S
C488 H484 0.929 . S
C488 C490 1.378 . S
C488 C492 1.350 . S
C489 C492 1.463 . S
C489 C494 1.350 . S
C489 N497 1.427 . S
C490 H481 0.930 . S
C490 C488 1.378 . S
C490 C491 1.367 . S
C491 C490 1.367 . S
C491 C493 1.433 . S
C492 C488 1.350 . S
C492 C489 1.463 . S
C492 N496 1.427 . S
C493 H483 0.929 . S
C493 C491 1.433 . S
C493 N496 1.384 . S
C494 H485 0.929 . S
C494 C486 1.378 . S
C494 C489 1.350 . S
C495 H482 0.929 . S
C495 C487 1.433 . S
C495 N497 1.384 . S
N496 C492 1.427 . S
N496 C493 1.384 . S
N497 C489 1.427 . S
N497 C495 1.384 . S
H498 C504 0.930 . S
H499 C508 0.930 . S
H500 C513 0.929 . S
H501 C511 0.919 1_655 S
H502 C506 0.929 . S
H503 C512 0.929 . S
C504 H498 0.930 . S
C504 C505 1.367 . S
C504 C512 1.378 . S
C505 C504 1.367 . S
C505 C513 1.433 . S
C506 H502 0.929 . S
C506 C508 1.378 . S
C506 C510 1.350 . S
C507 C510 1.463 . S
C507 C512 1.350 . S
C507 N515 1.427 . S
C508 H499 0.930 . S
C508 C506 1.378 . S
C508 C509 1.367 . S
C509 C508 1.367 . S
C509 C511 1.440 . S
C510 C506 1.350 . S
C510 C507 1.463 . S
C510 N514 1.427 . S
C511 H501 0.919 1_455 S
C511 C509 1.440 . S
C511 N514 1.387 . S
C512 H503 0.929 . S
C512 C504 1.378 . S
C512 C507 1.350 . S
C513 H500 0.929 . S
C513 C505 1.433 . S
C513 N515 1.384 . S
N514 C510 1.427 . S
N514 C511 1.387 . S
N515 C507 1.427 . S
N515 C513 1.384 . S
H516 C522 0.930 . S
H517 C526 0.930 . S
H518 C531 0.929 . S
H519 C529 0.929 . S
H520 C524 0.929 . S
H521 C530 0.923 1_556 S
C522 H516 0.930 . S
C522 C523 1.367 1_556 S
C522 C530 1.374 1_556 S
C523 C522 1.367 1_554 S
C523 C531 1.433 . S
C524 H520 0.929 . S
C524 C526 1.378 . S
C524 C528 1.350 . S
C525 C528 1.463 . S
C525 C530 1.360 . S
C525 N533 1.427 . S
C526 H517 0.930 . S
C526 C524 1.378 . S
C526 C527 1.367 . S
C527 C526 1.367 . S
C527 C529 1.433 . S
C528 C524 1.350 . S
C528 C525 1.463 . S
C528 N532 1.427 . S
C529 H519 0.929 . S
C529 C527 1.433 . S
C529 N532 1.384 . S
C530 H521 0.923 1_554 S
C530 C522 1.374 1_554 S
C530 C525 1.360 . S
C531 H518 0.929 . S
C531 C523 1.433 . S
C531 N533 1.384 . S
N532 C528 1.427 . S
N532 C529 1.384 . S
N533 C525 1.427 . S
N533 C531 1.384 . S
H534 C540 0.930 . S
H535 C544 0.930 . S
H536 C549 0.929 . S
H537 C547 0.929 . S
H538 C542 0.929 . S
H539 C548 0.929 . S
C540 H534 0.930 . S
C540 C541 1.367 . S
C540 C548 1.378 . S
C541 C540 1.367 . S
C541 C549 1.433 . S
C542 H538 0.929 . S
C542 C544 1.378 . S
C542 C546 1.350 . S
C543 C546 1.463 1_655 S
C543 C548 1.350 . S
C543 N551 1.427 . S
C544 H535 0.930 . S
C544 C542 1.378 . S
C544 C545 1.367 . S
C545 C544 1.367 . S
C545 C547 1.433 . S
C546 C542 1.350 . S
C546 C543 1.463 1_455 S
C546 N550 1.427 1_455 S
C547 H537 0.929 . S
C547 C545 1.433 . S
C547 N550 1.384 1_455 S
C548 H539 0.929 . S
C548 C540 1.378 . S
C548 C543 1.350 . S
C549 H536 0.929 . S
C549 C541 1.433 . S
C549 N551 1.384 . S
N550 C546 1.427 1_655 S
N550 C547 1.384 1_655 S
N551 C543 1.427 . S
N551 C549 1.384 . S
H552 C558 0.930 . S
H553 C562 0.930 . S
H554 C567 0.929 . S
H555 C565 0.929 . S
H556 C560 0.926 . S
H557 C566 0.929 1_565 S
C558 H552 0.930 . S
C558 C559 1.367 . S
C558 C566 1.378 . S
C559 C558 1.367 . S
C559 C567 1.433 . S
C560 H556 0.926 . S
C560 C562 1.378 . S
C560 C564 1.350 . S
C561 C564 1.463 1_545 S
C561 C566 1.350 . S
C561 N569 1.427 . S
C562 H553 0.930 . S
C562 C560 1.378 . S
C562 C563 1.367 . S
C563 C562 1.367 . S
C563 C565 1.433 . S
C564 C560 1.350 . S
C564 C561 1.463 1_565 S
C564 N568 1.427 . S
C565 H555 0.929 . S
C565 C563 1.433 . S
C565 N568 1.384 . S
C566 H557 0.929 1_545 S
C566 C558 1.378 . S
C566 C561 1.350 . S
C567 H554 0.929 . S
C567 C559 1.433 . S
C567 N569 1.384 . S
N568 C564 1.427 . S
N568 C565 1.384 . S
N569 C561 1.427 . S
N569 C567 1.384 . S
H570 C576 0.930 . S
H571 C580 0.930 . S
H572 C585 0.929 . S
H573 C583 0.929 . S
H574 C578 0.929 . S
H575 C584 0.929 . S
C576 H570 0.930 . S
C576 C577 1.367 . S
C576 C584 1.378 . S
C577 C576 1.367 . S
C577 C585 1.433 . S
C578 H574 0.929 . S
C578 C580 1.378 . S
C578 C582 1.350 . S
C579 C582 1.463 . S
C579 C584 1.350 . S
C579 N587 1.427 . S
C580 H571 0.930 . S
C580 C578 1.378 . S
C580 C581 1.367 . S
C581 C580 1.367 . S
C581 C583 1.433 . S
C582 C578 1.350 . S
C582 C579 1.463 . S
C582 N586 1.427 . S
C583 H573 0.929 . S
C583 C581 1.433 . S
C583 N586 1.384 . S
C584 H575 0.929 . S
C584 C576 1.378 . S
C584 C579 1.350 . S
C585 H572 0.929 . S
C585 C577 1.433 . S
C585 N587 1.384 . S
N586 C582 1.427 . S
N586 C583 1.384 . S
N587 C579 1.427 . S
N587 C585 1.384 . S
H588 C594 0.930 . S
H589 C598 0.930 . S
H590 C603 0.929 . S
H591 C601 0.929 . S
H592 C596 0.929 . S
H593 C602 0.929 . S
C594 H588 0.930 . S
C594 C595 1.367 . S
C594 C602 1.378 . S
C595 C594 1.367 . S
C595 C603 1.433 . S
C596 H592 0.929 . S
C596 C598 1.378 . S
C596 C600 1.350 . S
C597 C600 1.463 1_655 S
C597 C602 1.350 . S
C597 N605 1.435 . S
C598 H589 0.930 . S
C598 C596 1.378 . S
C598 C599 1.367 . S
C599 C598 1.367 . S
C599 C601 1.433 . S
C600 C596 1.350 . S
C600 C597 1.463 1_455 S
C600 N604 1.427 . S
C601 H591 0.929 . S
C601 C599 1.433 . S
C601 N604 1.384 . S
C602 H593 0.929 . S
C602 C594 1.378 . S
C602 C597 1.350 . S
C603 H590 0.929 . S
C603 C595 1.433 . S
C603 N605 1.385 . S
N604 C600 1.427 . S
N604 C601 1.384 . S
N605 C597 1.435 . S
N605 C603 1.385 . S
H606 C612 0.930 . S
H607 C616 0.930 . S
H608 C621 0.929 . S
H609 C619 0.929 . S
H610 C614 0.929 . S
H611 C620 0.929 . S
C612 H606 0.930 . S
C612 C613 1.367 . S
C612 C620 1.378 . S
C613 C612 1.367 . S
C613 C621 1.433 . S
C614 H610 0.929 . S
C614 C616 1.378 . S
C614 C618 1.350 . S
C615 C618 1.463 1_565 S
C615 C620 1.350 . S
C615 N623 1.427 . S
C616 H607 0.930 . S
C616 C614 1.378 . S
C616 C617 1.367 . S
C617 C616 1.367 . S
C617 C619 1.433 . S
C618 C614 1.350 . S
C618 C615 1.463 1_545 S
C618 N622 1.427 . S
C619 H609 0.929 . S
C619 C617 1.433 . S
C619 N622 1.384 . S
C620 H611 0.929 . S
C620 C612 1.378 . S
C620 C615 1.350 . S
C621 H608 0.929 . S
C621 C613 1.433 . S
C621 N623 1.384 . S
N622 C618 1.427 . S
N622 C619 1.384 . S
N623 C615 1.427 . S
N623 C621 1.384 . S
H624 C630 0.930 . S
H625 C634 0.930 . S
H626 C639 0.929 . S
H627 C637 0.929 . S
H628 C632 0.929 . S
H629 C638 0.929 . S
C630 H624 0.930 . S
C630 C631 1.367 . S
C630 C638 1.378 . S
C631 C630 1.367 . S
C631 C639 1.433 . S
C632 H628 0.929 . S
C632 C634 1.378 . S
C632 C636 1.350 . S
C633 C636 1.463 . S
C633 C638 1.350 . S
C633 N641 1.427 . S
C634 H625 0.930 . S
C634 C632 1.378 . S
C634 C635 1.367 . S
C635 C634 1.367 . S
C635 C637 1.433 . S
C636 C632 1.350 . S
C636 C633 1.463 . S
C636 N640 1.427 . S
C637 H627 0.929 . S
C637 C635 1.433 . S
C637 N640 1.384 . S
C638 H629 0.929 . S
C638 C630 1.378 . S
C638 C633 1.350 . S
C639 H626 0.929 . S
C639 C631 1.433 . S
C639 N641 1.384 . S
N640 C636 1.427 . S
N640 C637 1.384 . S
N641 C633 1.427 . S
N641 C639 1.384 . S
H642 C648 0.930 . S
H643 C652 0.930 . S
H644 C657 0.929 . S
H645 C655 0.929 . S
H646 C650 0.929 . S
H647 C656 0.929 1_455 S
C648 H642 0.930 . S
C648 C649 1.367 . S
C648 C656 1.378 . S
C649 C648 1.367 . S
C649 C657 1.433 . S
C650 H646 0.929 . S
C650 C652 1.378 1_655 S
C650 C654 1.350 1_655 S
C651 C654 1.463 1_655 S
C651 C656 1.350 . S
C651 N659 1.427 . S
C652 H643 0.930 . S
C652 C650 1.378 1_455 S
C652 C653 1.367 . S
C653 C652 1.367 . S
C653 C655 1.433 . S
C654 C650 1.350 1_455 S
C654 C651 1.463 1_455 S
C654 N658 1.427 . S
C655 H645 0.929 . S
C655 C653 1.433 . S
C655 N658 1.384 . S
C656 H647 0.929 1_655 S
C656 C648 1.378 . S
C656 C651 1.350 . S
C657 H644 0.929 . S
C657 C649 1.433 . S
C657 N659 1.384 . S
N658 C654 1.427 . S
N658 C655 1.384 . S
N659 C651 1.427 . S
N659 C657 1.384 . S
H660 C666 0.930 . S
H661 C670 0.930 . S
H662 C675 0.929 . S
H663 C673 0.929 . S
H664 C668 0.929 . S
H665 C674 0.929 . S
C666 H660 0.930 . S
C666 C667 1.367 . S
C666 C674 1.378 . S
C667 C666 1.367 . S
C667 C675 1.433 . S
C668 H664 0.929 . S
C668 C670 1.378 . S
C668 C672 1.350 . S
C669 C672 1.463 1_565 S
C669 C674 1.350 . S
C669 N677 1.427 . S
C670 H661 0.930 . S
C670 C668 1.378 . S
C670 C671 1.367 . S
C671 C670 1.367 . S
C671 C673 1.433 . S
C672 C668 1.350 . S
C672 C669 1.463 1_545 S
C672 N676 1.427 . S
C673 H663 0.929 . S
C673 C671 1.433 . S
C673 N676 1.384 . S
C674 H665 0.929 . S
C674 C666 1.378 . S
C674 C669 1.350 . S
C675 H662 0.929 . S
C675 C667 1.433 . S
C675 N677 1.384 . S
N676 C672 1.427 . S
N676 C673 1.384 . S
N677 C669 1.427 . S
N677 C675 1.384 . S
H678 C684 0.930 . S
H679 C688 0.930 . S
H680 C693 0.929 . S
H681 C691 0.929 . S
H682 C686 0.929 . S
H683 C692 0.929 . S
C684 H678 0.930 . S
C684 C685 1.367 . S
C684 C692 1.378 . S
C685 C684 1.367 . S
C685 C693 1.433 . S
C686 H682 0.929 . S
C686 C688 1.378 . S
C686 C690 1.350 . S
C687 C690 1.463 . S
C687 C692 1.350 . S
C687 N695 1.427 . S
C688 H679 0.930 . S
C688 C686 1.378 . S
C688 C689 1.367 . S
C689 C688 1.367 . S
C689 C691 1.433 . S
C690 C686 1.350 . S
C690 C687 1.463 . S
C690 N694 1.427 . S
C691 H681 0.929 . S
C691 C689 1.433 . S
C691 N694 1.384 . S
C692 H683 0.929 . S
C692 C684 1.378 . S
C692 C687 1.350 . S
C693 H680 0.929 . S
C693 C685 1.433 . S
C693 N695 1.384 . S
N694 C690 1.427 . S
N694 C691 1.384 . S
N695 C687 1.427 . S
N695 C693 1.384 . S
H696 C702 0.933 1_455 S
H697 C706 0.930 . S
H698 C711 0.929 . S
H699 C709 0.929 . S
H700 C704 0.929 1_655 S
H701 C710 0.929 . S
C702 H696 0.933 1_655 S
C702 C703 1.367 . S
C702 C710 1.378 1_655 S
C703 C702 1.367 . S
C703 C711 1.433 . S
C704 H700 0.929 1_455 S
C704 C706 1.378 . S
C704 C708 1.350 . S
C705 C708 1.463 1_655 S
C705 C710 1.350 1_655 S
C705 N713 1.427 . S
C706 H697 0.930 . S
C706 C704 1.378 . S
C706 C707 1.367 . S
C707 C706 1.367 . S
C707 C709 1.433 . S
C708 C704 1.350 . S
C708 C705 1.463 1_455 S
C708 N712 1.427 . S
C709 H699 0.929 . S
C709 C707 1.433 . S
C709 N712 1.384 . S
C710 H701 0.929 . S
C710 C702 1.378 1_455 S
C710 C705 1.350 1_455 S
C711 H698 0.929 . S
C711 C703 1.433 . S
C711 N713 1.384 . S
N712 C708 1.427 . S
N712 C709 1.384 . S
N713 C705 1.427 . S
N713 C711 1.384 . S
H714 C720 0.930 . S
H715 C724 0.930 . S
H716 C729 0.929 . S
H717 C727 0.929 . S
H718 C722 0.929 . S
H719 C728 0.929 1_545 S
C720 H714 0.930 . S
C720 C721 1.367 . S
C720 C728 1.378 . S
C721 C720 1.367 . S
C721 C729 1.433 . S
C722 H718 0.929 . S
C722 C724 1.378 . S
C722 C726 1.350 . S
C723 C726 1.463 1_565 S
C723 C728 1.350 . S
C723 N731 1.427 . S
C724 H715 0.930 . S
C724 C722 1.378 . S
C724 C725 1.367 . S
C725 C724 1.367 . S
C725 C727 1.433 . S
C726 C722 1.350 . S
C726 C723 1.463 1_545 S
C726 N730 1.427 . S
C727 H717 0.929 . S
C727 C725 1.433 . S
C727 N730 1.384 . S
C728 H719 0.929 1_565 S
C728 C720 1.378 . S
C728 C723 1.350 . S
C729 H716 0.929 . S
C729 C721 1.433 . S
C729 N731 1.384 . S
N730 C726 1.427 . S
N730 C727 1.384 . S
N731 C723 1.427 . S
N731 C729 1.384 . S
H732 C738 0.930 . S
H733 C742 0.930 . S
H734 C747 0.929 . S
H735 C745 0.929 . S
H736 C740 0.929 . S
H737 C746 0.929 . S
C738 H732 0.930 . S
C738 C739 1.367 . S
C738 C746 1.378 . S
C739 C738 1.367 . S
C739 C747 1.433 . S
C740 H736 0.929 . S
C740 C742 1.378 . S
C740 C744 1.350 . S
C741 C744 1.463 . S
C741 C746 1.350 . S
C741 N749 1.427 . S
C742 H733 0.930 . S
C742 C740 1.378 . S
C742 C743 1.367 . S
C743 C742 1.367 . S
C743 C745 1.433 . S
C744 C740 1.350 . S
C744 C741 1.463 . S
C744 N748 1.427 . S
C745 H735 0.929 . S
C745 C743 1.433 . S
C745 N748 1.384 . S
C746 H737 0.929 . S
C746 C738 1.378 . S
C746 C741 1.350 . S
C747 H734 0.929 . S
C747 C739 1.433 . S
C747 N749 1.384 . S
N748 C744 1.427 . S
N748 C745 1.384 . S
N749 C741 1.427 . S
N749 C747 1.384 . S
H750 C756 0.930 . S
H751 C760 0.930 . S
H752 C765 0.929 . S
H753 C763 0.929 . S
H754 C758 0.929 1_455 S
H755 C764 0.929 . S
C756 H750 0.930 . S
C756 C757 1.367 . S
C756 C764 1.378 1_455 S
C757 C756 1.367 . S
C757 C765 1.433 . S
C758 H754 0.929 1_655 S
C758 C760 1.378 . S
C758 C762 1.350 . S
C759 C762 1.463 1_455 S
C759 C764 1.350 1_455 S
C759 N767 1.427 . S
C760 H751 0.930 . S
C760 C758 1.378 . S
C760 C761 1.367 . S
C761 C760 1.367 . S
C761 C763 1.433 . S
C762 C758 1.350 . S
C762 C759 1.463 1_655 S
C762 N766 1.427 . S
C763 H753 0.929 . S
C763 C761 1.433 . S
C763 N766 1.384 . S
C764 H755 0.929 . S
C764 C756 1.378 1_655 S
C764 C759 1.350 1_655 S
C765 H752 0.929 . S
C765 C757 1.433 . S
C765 N767 1.384 . S
N766 C762 1.427 . S
N766 C763 1.384 . S
N767 C759 1.427 . S
N767 C765 1.384 . S
H768 C774 0.930 . S
H769 C778 0.930 . S
H770 C783 0.929 . S
H771 C781 0.929 . S
H772 C776 0.929 . S
H773 C782 0.929 . S
C774 H768 0.930 . S
C774 C775 1.367 . S
C774 C782 1.378 . S
C775 C774 1.367 . S
C775 C783 1.433 . S
C776 H772 0.929 . S
C776 C778 1.378 . S
C776 C780 1.350 . S
C777 C780 1.463 1_565 S
C777 C782 1.350 . S
C777 N785 1.427 . S
C778 H769 0.930 . S
C778 C776 1.378 . S
C778 C779 1.367 . S
C779 C778 1.367 . S
C779 C781 1.433 . S
C780 C776 1.350 . S
C780 C777 1.463 1_545 S
C780 N784 1.427 . S
C781 H771 0.929 . S
C781 C779 1.433 . S
C781 N784 1.384 . S
C782 H773 0.929 . S
C782 C774 1.378 . S
C782 C777 1.350 . S
C783 H770 0.929 . S
C783 C775 1.433 . S
C783 N785 1.384 . S
N784 C780 1.427 . S
N784 C781 1.384 . S
N785 C777 1.427 . S
N785 C783 1.384 . S
H786 C792 0.930 . S
H787 C796 0.930 . S
H788 C801 0.929 . S
H789 C799 0.929 . S
H790 C794 0.929 . S
H791 C800 0.929 . S
C792 H786 0.930 . S
C792 C793 1.367 . S
C792 C800 1.378 . S
C793 C792 1.367 . S
C793 C801 1.433 . S
C794 H790 0.929 . S
C794 C796 1.378 . S
C794 C798 1.350 . S
C795 C798 1.463 . S
C795 C800 1.350 . S
C795 N803 1.427 . S
C796 H787 0.930 . S
C796 C794 1.378 . S
C796 C797 1.367 . S
C797 C796 1.367 . S
C797 C799 1.433 . S
C798 C794 1.350 . S
C798 C795 1.463 . S
C798 N802 1.427 . S
C799 H789 0.929 . S
C799 C797 1.433 . S
C799 N802 1.384 . S
C800 H791 0.929 . S
C800 C792 1.378 . S
C800 C795 1.350 . S
C801 H788 0.929 . S
C801 C793 1.433 . S
C801 N803 1.384 . S
N802 C798 1.427 . S
N802 C799 1.384 . S
N803 C795 1.427 . S
N803 C801 1.384 . S
H804 C810 0.930 . S
H805 C814 0.930 . S
H806 C819 0.929 . S
H807 C817 0.929 . S
H808 C812 0.929 . S
H809 C818 0.929 . S
C810 H804 0.930 . S
C810 C811 1.367 . S
C810 C818 1.378 . S
C811 C810 1.367 . S
C811 C819 1.433 . S
C812 H808 0.929 . S
C812 C814 1.378 . S
C812 C816 1.350 . S
C813 C816 1.463 1_655 S
C813 C818 1.350 . S
C813 N821 1.427 1_655 S
C814 H805 0.930 . S
C814 C812 1.378 . S
C814 C815 1.367 . S
C815 C814 1.367 . S
C815 C817 1.433 . S
C816 C812 1.350 . S
C816 C813 1.463 1_455 S
C816 N820 1.427 . S
C817 H807 0.929 . S
C817 C815 1.433 . S
C817 N820 1.384 . S
C818 H809 0.929 . S
C818 C810 1.378 . S
C818 C813 1.350 . S
C819 H806 0.929 . S
C819 C811 1.433 . S
C819 N821 1.384 1_655 S
N820 C816 1.427 . S
N820 C817 1.384 . S
N821 C813 1.427 1_455 S
N821 C819 1.384 1_455 S
H822 C828 0.930 . S
H823 C832 0.930 . S
H824 C837 0.929 . S
H825 C835 0.929 . S
H826 C830 0.929 . S
H827 C836 0.929 . S
C828 H822 0.930 . S
C828 C829 1.367 . S
C828 C836 1.378 . S
C829 C828 1.367 . S
C829 C837 1.433 . S
C830 H826 0.929 . S
C830 C832 1.378 . S
C830 C834 1.350 . S
C831 C834 1.463 1_565 S
C831 C836 1.350 . S
C831 N839 1.427 . S
C832 H823 0.930 . S
C832 C830 1.378 . S
C832 C833 1.367 . S
C833 C832 1.367 . S
C833 C835 1.433 . S
C834 C830 1.350 . S
C834 C831 1.463 1_545 S
C834 N838 1.427 . S
C835 H825 0.929 . S
C835 C833 1.433 . S
C835 N838 1.384 . S
C836 H827 0.929 . S
C836 C828 1.378 . S
C836 C831 1.350 . S
C837 H824 0.929 . S
C837 C829 1.433 . S
C837 N839 1.384 . S
N838 C834 1.427 . S
N838 C835 1.384 . S
N839 C831 1.427 . S
N839 C837 1.384 . S
H840 C846 0.930 . S
H841 C850 0.930 . S
H842 C855 0.929 . S
H843 C853 0.929 . S
H844 C848 0.929 . S
H845 C854 0.929 . S
C846 H840 0.930 . S
C846 C847 1.367 . S
C846 C854 1.378 . S
C847 C846 1.367 . S
C847 C855 1.433 . S
C848 H844 0.929 . S
C848 C850 1.378 . S
C848 C852 1.350 . S
C849 C852 1.463 . S
C849 C854 1.350 . S
C849 N857 1.427 . S
C850 H841 0.930 . S
C850 C848 1.378 . S
C850 C851 1.367 . S
C851 C850 1.367 . S
C851 C853 1.433 . S
C852 C848 1.350 . S
C852 C849 1.463 . S
C852 N856 1.427 . S
C853 H843 0.929 . S
C853 C851 1.433 . S
C853 N856 1.384 . S
C854 H845 0.929 . S
C854 C846 1.378 . S
C854 C849 1.350 . S
C855 H842 0.929 . S
C855 C847 1.433 . S
C855 N857 1.384 . S
N856 C852 1.427 . S
N856 C853 1.384 . S
N857 C849 1.427 . S
N857 C855 1.384 . S
H858 C864 0.930 1_556 S
H859 C868 0.930 . S
H860 C873 0.929 . S
H861 C871 0.929 . S
H862 C866 0.929 . S
H863 C872 0.929 1_455 S
C864 H858 0.930 1_554 S
C864 C865 1.367 . S
C864 C872 1.378 . S
C865 C864 1.367 . S
C865 C873 1.433 . S
C866 H862 0.929 . S
C866 C868 1.378 1_655 S
C866 C870 1.350 1_655 S
C867 C870 1.463 1_655 S
C867 C872 1.350 . S
C867 N875 1.427 . S
C868 H859 0.930 . S
C868 C866 1.378 1_455 S
C868 C869 1.367 . S
C869 C868 1.367 . S
C869 C871 1.433 . S
C870 C866 1.350 1_455 S
C870 C867 1.463 1_455 S
C870 N874 1.427 . S
C871 H861 0.929 . S
C871 C869 1.433 . S
C871 N874 1.384 . S
C872 H863 0.929 1_655 S
C872 C864 1.378 . S
C872 C867 1.350 . S
C873 H860 0.929 . S
C873 C865 1.433 . S
C873 N875 1.384 . S
N874 C870 1.427 . S
N874 C871 1.384 . S
N875 C867 1.427 . S
N875 C873 1.384 . S
H876 C882 0.930 . S
H877 C886 0.930 . S
H878 C891 0.929 . S
H879 C889 0.929 . S
H880 C884 0.907 1_565 S
H881 C890 0.929 1_545 S
C882 H876 0.930 . S
C882 C883 1.367 . S
C882 C890 1.378 . S
C883 C882 1.367 . S
C883 C891 1.433 . S
C884 H880 0.907 1_545 S
C884 C886 1.388 . S
C884 C888 1.361 . S
C885 C888 1.463 1_565 S
C885 C890 1.350 . S
C885 N893 1.427 . S
C886 H877 0.930 . S
C886 C884 1.388 . S
C886 C887 1.367 . S
C887 C886 1.367 . S
C887 C889 1.433 . S
C888 C884 1.361 . S
C888 C885 1.463 1_545 S
C888 N892 1.427 . S
C889 H879 0.929 . S
C889 C887 1.433 . S
C889 N892 1.384 . S
C890 H881 0.929 1_565 S
C890 C882 1.378 . S
C890 C885 1.350 . S
C891 H878 0.929 . S
C891 C883 1.433 . S
C891 N893 1.384 . S
N892 C888 1.427 . S
N892 C889 1.384 . S
N893 C885 1.427 . S
N893 C891 1.384 . S
H894 C900 0.930 . S
H895 C904 0.930 . S
H896 C909 0.929 . S
H897 C907 0.929 . S
H898 C902 0.929 . S
H899 C908 0.929 . S
C900 H894 0.930 . S
C900 C901 1.367 . S
C900 C908 1.378 . S
C901 C900 1.367 . S
C901 C909 1.433 . S
C902 H898 0.929 . S
C902 C904 1.378 . S
C902 C906 1.350 . S
C903 C906 1.463 . S
C903 C908 1.350 . S
C903 N911 1.427 . S
C904 H895 0.930 . S
C904 C902 1.378 . S
C904 C905 1.367 . S
C905 C904 1.367 . S
C905 C907 1.433 . S
C906 C902 1.350 . S
C906 C903 1.463 . S
C906 N910 1.427 . S
C907 H897 0.929 . S
C907 C905 1.433 . S
C907 N910 1.384 . S
C908 H899 0.929 . S
C908 C900 1.378 . S
C908 C903 1.350 . S
C909 H896 0.929 . S
C909 C901 1.433 . S
C909 N911 1.384 . S
N910 C906 1.427 . S
N910 C907 1.384 . S
N911 C903 1.427 . S
N911 C909 1.384 . S
H912 C918 0.930 . S
H913 C922 0.930 . S
H914 C927 0.929 . S
H915 C925 0.929 . S
H916 C920 0.929 1_655 S
H917 C926 0.929 . S
C918 H912 0.930 . S
C918 C919 1.367 . S
C918 C926 1.378 1_655 S
C919 C918 1.367 . S
C919 C927 1.433 . S
C920 H916 0.929 1_455 S
C920 C922 1.378 . S
C920 C924 1.350 . S
C921 C924 1.463 1_655 S
C921 C926 1.350 1_655 S
C921 N929 1.427 . S
C922 H913 0.930 . S
C922 C920 1.378 . S
C922 C923 1.367 . S
C923 C922 1.367 . S
C923 C925 1.433 . S
C924 C920 1.350 . S
C924 C921 1.463 1_455 S
C924 N928 1.427 . S
C925 H915 0.929 . S
C925 C923 1.433 . S
C925 N928 1.384 . S
C926 H917 0.929 . S
C926 C918 1.378 1_455 S
C926 C921 1.350 1_455 S
C927 H914 0.929 . S
C927 C919 1.433 . S
C927 N929 1.384 . S
N928 C924 1.427 . S
N928 C925 1.384 . S
N929 C921 1.427 . S
N929 C927 1.384 . S
H930 C936 0.930 . S
H931 C940 0.930 . S
H932 C945 0.929 . S
H933 C943 0.929 . S
H934 C938 0.929 1_545 S
H935 C944 0.929 1_565 S
C936 H930 0.930 . S
C936 C937 1.367 . S
C936 C944 1.378 . S
C937 C936 1.367 . S
C937 C945 1.433 . S
C938 H934 0.929 1_565 S
C938 C940 1.378 . S
C938 C942 1.350 . S
C939 C942 1.463 1_545 S
C939 C944 1.350 . S
C939 N947 1.427 . S
C940 H931 0.930 . S
C940 C938 1.378 . S
C940 C941 1.367 . S
C941 C940 1.367 . S
C941 C943 1.433 . S
C942 C938 1.350 . S
C942 C939 1.463 1_565 S
C942 N946 1.427 . S
C943 H933 0.929 . S
C943 C941 1.433 . S
C943 N946 1.384 . S
C944 H935 0.929 1_545 S
C944 C936 1.378 . S
C944 C939 1.350 . S
C945 H932 0.929 . S
C945 C937 1.433 . S
C945 N947 1.384 . S
N946 C942 1.427 . S
N946 C943 1.384 . S
N947 C939 1.427 . S
N947 C945 1.384 . S
C415 C5 0.803 . S
C419 C277 0.808 1_545 S
C433 C311 0.810 . S
C437 C39 0.803 1_455 S
C451 C345 0.807 1_655 S
C455 C73 0.804 1_545 S
C469 C107 0.816 . S
C473 C379 0.822 1_565 S
C487 C141 0.804 1_655 S
C491 C209 0.823 . S
C505 C175 0.808 1_565 S
C509 C243 0.824 1_455 S
C523 C247 1.521 1_554 S
C527 C33 1.546 . S
C541 C67 1.546 . S
C545 C281 1.521 . S
C559 C315 1.515 . S
C563 C101 1.550 . S
C577 C349 1.515 . S
C581 C135 1.550 . S
C595 C383 1.512 . S
C599 C169 1.553 . S
C613 C213 1.512 . S
C617 C203 1.552 . S
C631 C179 1.513 . S
C635 C237 1.552 . S
C649 C271 1.546 . S
C653 C9 1.520 . S
C667 C305 1.546 . S
C671 C43 1.522 . S
C685 C77 1.512 . S
C689 C339 1.552 . S
C703 C111 1.523 . S
C707 C373 1.544 . S
C721 C145 1.525 . S
C725 C407 1.543 . S
C739 C190 1.281 . S
C743 C2 1.263 . S
C757 C20 1.275 . S
C761 C36 1.257 . S
C775 C70 1.272 . S
C779 C54 1.287 . S
C793 C88 1.284 . S
C797 C104 1.273 . S
C811 C122 1.278 . S
C815 C138 1.267 . S
C829 C156 1.287 . S
C833 C172 1.273 . S
C847 C206 1.273 . S
C851 C258 1.287 . S
C865 C240 1.257 1_554 S
C869 C292 1.275 . S
C883 C274 1.267 . S
C887 C326 1.284 . S
C901 C360 1.281 . S
C905 C308 1.263 . S
C919 C394 1.278 . S
C923 C342 1.259 . S
C937 C376 1.267 . S
C941 C224 1.285 . S
