# Generated by pormake.
# Topology unr, (4)-cn, num edge types: 1
# Building blocks:
#     Node 0, Type 0, BuildingBlock: QUQFOY_clean_sbu_1, # of connection points: 4
#     Node 1, Type 0, BuildingBlock: QUQFOY_clean_sbu_1, # of connection points: 4
#     Node 2, Type 0, BuildingBlock: QUQFOY_clean_sbu_1, # of connection points: 4
#     Node 3, Type 0, BuildingBlock: QUQFOY_clean_sbu_1, # of connection points: 4
#     Node 4, Type 0, BuildingBlock: QUQFOY_clean_sbu_1, # of connection points: 4
#     Node 5, Type 0, BuildingBlock: QUQFOY_clean_sbu_1, # of connection points: 4
#     Node 6, Type 0, BuildingBlock: QUQFOY_clean_sbu_1, # of connection points: 4
#     Node 7, Type 0, BuildingBlock: QUQFOY_clean_sbu_1, # of connection points: 4
#     Node 8, Type 0, BuildingBlock: QUQFOY_clean_sbu_1, # of connection points: 4
#     Node 9, Type 0, BuildingBlock: QUQFOY_clean_sbu_1, # of connection points: 4
#     Node 10, Type 0, BuildingBlock: QUQFOY_clean_sbu_1, # of connection points: 4
#     Node 11, Type 0, BuildingBlock: QUQFOY_clean_sbu_1, # of connection points: 4
#     Node 12, Type 0, BuildingBlock: QUQFOY_clean_sbu_1, # of connection points: 4
#     Node 13, Type 0, BuildingBlock: QUQFOY_clean_sbu_1, # of connection points: 4
#     Node 14, Type 0, BuildingBlock: QUQFOY_clean_sbu_1, # of connection points: 4
#     Node 15, Type 0, BuildingBlock: QUQFOY_clean_sbu_1, # of connection points: 4
#     Node 16, Type 0, BuildingBlock: QUQFOY_clean_sbu_1, # of connection points: 4
#     Node 17, Type 0, BuildingBlock: QUQFOY_clean_sbu_1, # of connection points: 4
#     Node 18, Type 0, BuildingBlock: QUQFOY_clean_sbu_1, # of connection points: 4
#     Node 19, Type 0, BuildingBlock: QUQFOY_clean_sbu_1, # of connection points: 4
#     Node 20, Type 0, BuildingBlock: QUQFOY_clean_sbu_1, # of connection points: 4
#     Node 21, Type 0, BuildingBlock: QUQFOY_clean_sbu_1, # of connection points: 4
#     Node 22, Type 0, BuildingBlock: QUQFOY_clean_sbu_1, # of connection points: 4
#     Node 23, Type 0, BuildingBlock: QUQFOY_clean_sbu_1, # of connection points: 4
#     Node 24, Type 0, BuildingBlock: QUQFOY_clean_sbu_1, # of connection points: 4
#     Node 25, Type 0, BuildingBlock: QUQFOY_clean_sbu_1, # of connection points: 4
#     Node 26, Type 0, BuildingBlock: QUQFOY_clean_sbu_1, # of connection points: 4
#     Node 27, Type 0, BuildingBlock: QUQFOY_clean_sbu_1, # of connection points: 4
#     Node 28, Type 0, BuildingBlock: QUQFOY_clean_sbu_1, # of connection points: 4
#     Node 29, Type 0, BuildingBlock: QUQFOY_clean_sbu_1, # of connection points: 4
#     Node 30, Type 0, BuildingBlock: QUQFOY_clean_sbu_1, # of connection points: 4
#     Node 31, Type 0, BuildingBlock: QUQFOY_clean_sbu_1, # of connection points: 4
#     Node 32, Type 0, BuildingBlock: QUQFOY_clean_sbu_1, # of connection points: 4
#     Node 33, Type 0, BuildingBlock: QUQFOY_clean_sbu_1, # of connection points: 4
#     Node 34, Type 0, BuildingBlock: QUQFOY_clean_sbu_1, # of connection points: 4
#     Node 35, Type 0, BuildingBlock: QUQFOY_clean_sbu_1, # of connection points: 4
#     Edge 36, Type (0, 0), BuildingBlock: TEMPAE_clean_linker_10, # of connection points: 2
#     Edge 37, Type (0, 0), BuildingBlock: TEMPAE_clean_linker_10, # of connection points: 2
#     Edge 38, Type (0, 0), BuildingBlock: TEMPAE_clean_linker_10, # of connection points: 2
#     Edge 39, Type (0, 0), BuildingBlock: TEMPAE_clean_linker_10, # of connection points: 2
#     Edge 40, Type (0, 0), BuildingBlock: TEMPAE_clean_linker_10, # of connection points: 2
#     Edge 41, Type (0, 0), BuildingBlock: TEMPAE_clean_linker_10, # of connection points: 2
#     Edge 42, Type (0, 0), BuildingBlock: TEMPAE_clean_linker_10, # of connection points: 2
#     Edge 43, Type (0, 0), BuildingBlock: TEMPAE_clean_linker_10, # of connection points: 2
#     Edge 44, Type (0, 0), BuildingBlock: TEMPAE_clean_linker_10, # of connection points: 2
#     Edge 45, Type (0, 0), BuildingBlock: TEMPAE_clean_linker_10, # of connection points: 2
#     Edge 46, Type (0, 0), BuildingBlock: TEMPAE_clean_linker_10, # of connection points: 2
#     Edge 47, Type (0, 0), BuildingBlock: TEMPAE_clean_linker_10, # of connection points: 2
#     Edge 48, Type (0, 0), BuildingBlock: TEMPAE_clean_linker_10, # of connection points: 2
#     Edge 49, Type (0, 0), BuildingBlock: TEMPAE_clean_linker_10, # of connection points: 2
#     Edge 50, Type (0, 0), BuildingBlock: TEMPAE_clean_linker_10, # of connection points: 2
#     Edge 51, Type (0, 0), BuildingBlock: TEMPAE_clean_linker_10, # of connection points: 2
#     Edge 52, Type (0, 0), BuildingBlock: TEMPAE_clean_linker_10, # of connection points: 2
#     Edge 53, Type (0, 0), BuildingBlock: TEMPAE_clean_linker_10, # of connection points: 2
#     Edge 54, Type (0, 0), BuildingBlock: TEMPAE_clean_linker_10, # of connection points: 2
#     Edge 55, Type (0, 0), BuildingBlock: TEMPAE_clean_linker_10, # of connection points: 2
#     Edge 56, Type (0, 0), BuildingBlock: TEMPAE_clean_linker_10, # of connection points: 2
#     Edge 57, Type (0, 0), BuildingBlock: TEMPAE_clean_linker_10, # of connection points: 2
#     Edge 58, Type (0, 0), BuildingBlock: TEMPAE_clean_linker_10, # of connection points: 2
#     Edge 59, Type (0, 0), BuildingBlock: TEMPAE_clean_linker_10, # of connection points: 2
#     Edge 60, Type (0, 0), BuildingBlock: TEMPAE_clean_linker_10, # of connection points: 2
#     Edge 61, Type (0, 0), BuildingBlock: TEMPAE_clean_linker_10, # of connection points: 2
#     Edge 62, Type (0, 0), BuildingBlock: TEMPAE_clean_linker_10, # of connection points: 2
#     Edge 63, Type (0, 0), BuildingBlock: TEMPAE_clean_linker_10, # of connection points: 2
#     Edge 64, Type (0, 0), BuildingBlock: TEMPAE_clean_linker_10, # of connection points: 2
#     Edge 65, Type (0, 0), BuildingBlock: TEMPAE_clean_linker_10, # of connection points: 2
#     Edge 66, Type (0, 0), BuildingBlock: TEMPAE_clean_linker_10, # of connection points: 2
#     Edge 67, Type (0, 0), BuildingBlock: TEMPAE_clean_linker_10, # of connection points: 2
#     Edge 68, Type (0, 0), BuildingBlock: TEMPAE_clean_linker_10, # of connection points: 2
#     Edge 69, Type (0, 0), BuildingBlock: TEMPAE_clean_linker_10, # of connection points: 2
#     Edge 70, Type (0, 0), BuildingBlock: TEMPAE_clean_linker_10, # of connection points: 2
#     Edge 71, Type (0, 0), BuildingBlock: TEMPAE_clean_linker_10, # of connection points: 2
#     Edge 72, Type (0, 0), BuildingBlock: TEMPAE_clean_linker_10, # of connection points: 2
#     Edge 73, Type (0, 0), BuildingBlock: TEMPAE_clean_linker_10, # of connection points: 2
#     Edge 74, Type (0, 0), BuildingBlock: TEMPAE_clean_linker_10, # of connection points: 2
#     Edge 75, Type (0, 0), BuildingBlock: TEMPAE_clean_linker_10, # of connection points: 2
#     Edge 76, Type (0, 0), BuildingBlock: TEMPAE_clean_linker_10, # of connection points: 2
#     Edge 77, Type (0, 0), BuildingBlock: TEMPAE_clean_linker_10, # of connection points: 2
#     Edge 78, Type (0, 0), BuildingBlock: TEMPAE_clean_linker_10, # of connection points: 2
#     Edge 79, Type (0, 0), BuildingBlock: TEMPAE_clean_linker_10, # of connection points: 2
#     Edge 80, Type (0, 0), BuildingBlock: TEMPAE_clean_linker_10, # of connection points: 2
#     Edge 81, Type (0, 0), BuildingBlock: TEMPAE_clean_linker_10, # of connection points: 2
#     Edge 82, Type (0, 0), BuildingBlock: TEMPAE_clean_linker_10, # of connection points: 2
#     Edge 83, Type (0, 0), BuildingBlock: TEMPAE_clean_linker_10, # of connection points: 2
#     Edge 84, Type (0, 0), BuildingBlock: TEMPAE_clean_linker_10, # of connection points: 2
#     Edge 85, Type (0, 0), BuildingBlock: TEMPAE_clean_linker_10, # of connection points: 2
#     Edge 86, Type (0, 0), BuildingBlock: TEMPAE_clean_linker_10, # of connection points: 2
#     Edge 87, Type (0, 0), BuildingBlock: TEMPAE_clean_linker_10, # of connection points: 2
#     Edge 88, Type (0, 0), BuildingBlock: TEMPAE_clean_linker_10, # of connection points: 2
#     Edge 89, Type (0, 0), BuildingBlock: TEMPAE_clean_linker_10, # of connection points: 2
#     Edge 90, Type (0, 0), BuildingBlock: TEMPAE_clean_linker_10, # of connection points: 2
#     Edge 91, Type (0, 0), BuildingBlock: TEMPAE_clean_linker_10, # of connection points: 2
#     Edge 92, Type (0, 0), BuildingBlock: TEMPAE_clean_linker_10, # of connection points: 2
#     Edge 93, Type (0, 0), BuildingBlock: TEMPAE_clean_linker_10, # of connection points: 2
#     Edge 94, Type (0, 0), BuildingBlock: TEMPAE_clean_linker_10, # of connection points: 2
#     Edge 95, Type (0, 0), BuildingBlock: TEMPAE_clean_linker_10, # of connection points: 2
#     Edge 96, Type (0, 0), BuildingBlock: TEMPAE_clean_linker_10, # of connection points: 2
#     Edge 97, Type (0, 0), BuildingBlock: TEMPAE_clean_linker_10, # of connection points: 2
#     Edge 98, Type (0, 0), BuildingBlock: TEMPAE_clean_linker_10, # of connection points: 2
#     Edge 99, Type (0, 0), BuildingBlock: TEMPAE_clean_linker_10, # of connection points: 2
#     Edge 100, Type (0, 0), BuildingBlock: TEMPAE_clean_linker_10, # of connection points: 2
#     Edge 101, Type (0, 0), BuildingBlock: TEMPAE_clean_linker_10, # of connection points: 2
#     Edge 102, Type (0, 0), BuildingBlock: TEMPAE_clean_linker_10, # of connection points: 2
#     Edge 103, Type (0, 0), BuildingBlock: TEMPAE_clean_linker_10, # of connection points: 2
#     Edge 104, Type (0, 0), BuildingBlock: TEMPAE_clean_linker_10, # of connection points: 2
#     Edge 105, Type (0, 0), BuildingBlock: TEMPAE_clean_linker_10, # of connection points: 2
#     Edge 106, Type (0, 0), BuildingBlock: TEMPAE_clean_linker_10, # of connection points: 2
#     Edge 107, Type (0, 0), BuildingBlock: TEMPAE_clean_linker_10, # of connection points: 2
# Relax obj value: 0.305
# Max RMSD: 0.106
# Mean RMSD: 0.106
data_MOF--net-unr--node1-QUQFOY_clean_sbu_1--edge1-TEMPAE_clean_linker_10
_symmetry_space_group_name_H-M    P1
_symmetry_Int_Tables_number       1
_symmetry_cell_setting            triclinic
loop_
_symmetry_equiv_pos_as_xyz
'x, y, z'
_cell_length_a     49.59318
_cell_length_b     49.591533
_cell_length_c     136.36871
_cell_angle_alpha  90.012304
_cell_angle_beta   89.996749
_cell_angle_gamma 119.98328
loop_
_atom_site_label
_atom_site_type_symbol
_atom_site_fract_x
_atom_site_fract_y
_atom_site_fract_z
_atom_type_partial_charge
O0 O 0.16427 0.10357 0.18619 0.0
Cd1 Cd 0.18482 0.15109 0.18754 0.0
Cd2 Cd 0.18178 0.13827 0.2058 0.0
O3 O 0.18296 0.09984 0.20042 0.0
O4 O 0.21585 0.17157 0.17693 0.0
O5 O 0.22788 0.1704 0.19259 0.0
C6 C 0.23664 0.17701 0.18356 0.0
C7 C 0.20493 0.16133 0.22073 0.0
C8 C 0.17004 0.08773 0.19228 0.0
C9 C 0.13618 0.15526 0.19723 0.0
O10 O 0.14115 0.13937 0.20353 0.0
O11 O 0.15526 0.16812 0.19021 0.0
O12 O 0.18176 0.13334 0.22024 0.0
O13 O 0.2165 0.17592 0.2126 0.0
O14 O 0.89972 0.06611 0.18505 0.0
Cd15 Cd 0.85238 0.03947 0.18343 0.0
Cd16 Cd 0.85648 0.04382 0.20279 0.0
O17 O 0.89774 0.08416 0.19957 0.0
O18 O 0.84498 0.05093 0.17022 0.0
O19 O 0.82804 0.06145 0.18399 0.0
C20 C 0.83214 0.06474 0.1746 0.0
C21 C 0.83251 0.0408 0.21791 0.0
C22 C 0.91314 0.08535 0.19197 0.0
C23 C 0.84309 0.98376 0.19235 0.0
O24 O 0.85485 0.0022 0.1996 0.0
O25 O 0.83452 0.99243 0.18479 0.0
O26 O 0.85979 0.04396 0.21731 0.0
O27 O 0.81884 0.0407 0.20985 0.0
O28 O 0.93935 0.83876 0.18537 0.0
Cd29 Cd 0.96479 0.81685 0.18726 0.0
Cd30 Cd 0.95697 0.82359 0.20557 0.0
O31 O 0.91815 0.82368 0.19997 0.0
O32 O 0.95173 0.78284 0.17754 0.0
O33 O 0.94 0.77551 0.19344 0.0
C34 C 0.93639 0.76426 0.18468 0.0
C35 C 0.95556 0.80223 0.22098 0.0
C36 C 0.91863 0.83505 0.19156 0.0
C37 C 0.01958 0.86557 0.19611 0.0
O38 O -0.00022 0.86214 0.20264 0.0
O39 O 0.0118 0.84558 0.1893 0.0
O40 O 0.95282 0.82656 0.21997 0.0
O41 O 0.95756 0.78876 0.21314 0.0
O42 O 0.09482 0.16065 0.31726 0.0
Cd43 Cd 0.14229 0.18109 0.31844 0.0
Cd44 Cd 0.13738 0.1837 0.29957 0.0
O45 O 0.09697 0.18379 0.30334 0.0
O46 O 0.15183 0.20065 0.33154 0.0
O47 O 0.16661 0.22721 0.31753 0.0
C48 C 0.16412 0.227 0.32698 0.0
C49 C 0.16245 0.20715 0.28488 0.0
C50 C 0.08158 0.16832 0.31077 0.0
C51 C 0.15087 0.13564 0.30862 0.0
O52 O 0.138 0.14265 0.30178 0.0
O53 O 0.16035 0.15242 0.31627 0.0
O54 O 0.13463 0.18373 0.28507 0.0
O55 O 0.17593 0.21878 0.29315 0.0
O56 O 0.83225 0.94749 0.31772 0.0
Cd57 Cd 0.81062 0.97355 0.31783 0.0
Cd58 Cd 0.80905 0.96263 0.29915 0.0
O59 O 0.80914 0.92316 0.30415 0.0
O60 O 0.78891 0.96409 0.33059 0.0
O61 O 0.76468 0.95032 0.31617 0.0
C62 C 0.76342 0.9487 0.32565 0.0
C63 C 0.78683 0.96142 0.28388 0.0
C64 C 0.82479 0.9252 0.31177 0.0
C65 C 0.8561 0.02603 0.30755 0.0
O66 O 0.84955 0.00498 0.30114 0.0
O67 O 0.83886 0.02002 0.31506 0.0
O68 O 0.81041 0.95742 0.28475 0.0
O69 O 0.77434 0.96444 0.2918 0.0
O70 O 0.04587 0.89804 0.32039 0.0
Cd71 Cd 0.02032 0.85082 0.32224 0.0
Cd72 Cd 0.02747 0.8534 0.30312 0.0
O73 O 0.06769 0.89412 0.3069 0.0
O74 O 0.03267 0.84375 0.33533 0.0
O75 O 0.04368 0.82796 0.32138 0.0
C76 C 0.04728 0.83203 0.33077 0.0
C77 C 0.02699 0.83125 0.2879 0.0
C78 C 0.06704 0.91049 0.31395 0.0
C79 C 0.96565 0.83979 0.31242 0.0
O80 O 0.98527 0.8516 0.30546 0.0
O81 O 0.97331 0.83168 0.32029 0.0
O82 O 0.03046 0.8586 0.28867 0.0
O83 O 0.02507 0.81638 0.29587 0.0
O84 O 0.82875 0.91451 0.81538 0.0
Cd85 Cd 0.80528 0.86694 0.81368 0.0
Cd86 Cd 0.81758 0.88169 0.79569 0.0
O87 O 0.81818 0.92177 0.80029 0.0
O88 O 0.77059 0.84777 0.82324 0.0
O89 O 0.76436 0.85129 0.80721 0.0
C90 C 0.75257 0.8445 0.81593 0.0
C91 C 0.79962 0.85885 0.78034 0.0
C92 C 0.82802 0.9324 0.80884 0.0
C93 C 0.85507 0.8592 0.80666 0.0
O94 O 0.85484 0.87717 0.80006 0.0
O95 O 0.83261 0.84651 0.81269 0.0
O96 O 0.82333 0.8864 0.78123 0.0
O97 O 0.78442 0.84491 0.78817 0.0
O98 O 0.08547 0.91697 0.81679 0.0
Cd99 Cd 0.13291 0.94096 0.81476 0.0
Cd100 Cd 0.11697 0.93844 0.79688 0.0
O101 O 0.07779 0.89864 0.80175 0.0
O102 O 0.15287 0.92461 0.82371 0.0
O103 O 0.14733 0.91576 0.80761 0.0
C104 C 0.15494 0.91009 0.81611 0.0
C105 C 0.13767 0.94369 0.78118 0.0
C106 C 0.06747 0.89796 0.81035 0.0
C107 C 0.14032 0.9984 0.80795 0.0
O108 O 0.12171 0.9801 0.80149 0.0
O109 O 0.15352 0.9887 0.81381 0.0
O110 O 0.11014 0.93949 0.78255 0.0
O111 O 0.15279 0.94248 0.78871 0.0
O112 O 0.08331 0.17098 0.81703 0.0
Cd113 Cd 0.05973 0.19469 0.81476 0.0
Cd114 Cd 0.06507 0.18311 0.79694 0.0
O115 O 0.10431 0.18365 0.80236 0.0
O116 O 0.07472 0.22972 0.82418 0.0
O117 O 0.08651 0.23523 0.80827 0.0
C118 C 0.09089 0.24725 0.81695 0.0
C119 C 0.06221 0.20108 0.78139 0.0
C120 C 0.10356 0.17298 0.81091 0.0
C121 C 0.00359 0.14504 0.80697 0.0
O122 O 0.023 0.14537 0.80081 0.0
O123 O 0.01216 0.16752 0.81295 0.0
O124 O 0.06666 0.17782 0.78252 0.0
O125 O 0.06167 0.21586 0.78912 0.0
O126 O 0.90323 0.82376 0.68143 0.0
Cd127 Cd 0.85583 0.80095 0.68249 0.0
Cd128 Cd 0.8663 0.81507 0.7012 0.0
O129 O 0.90883 0.81938 0.69726 0.0
O130 O 0.83773 0.7645 0.67361 0.0
O131 O 0.83878 0.76133 0.68989 0.0
C132 C 0.83319 0.7479 0.68141 0.0
C133 C 0.84696 0.80069 0.71714 0.0
C134 C 0.9204 0.82625 0.68867 0.0
C135 C 0.84292 0.84916 0.68831 0.0
O136 O 0.85671 0.84852 0.69608 0.0
O137 O 0.83642 0.82901 0.68162 0.0
O138 O 0.8728 0.82576 0.71538 0.0
O139 O 0.83273 0.78231 0.70988 0.0
O140 O 0.16429 0.08763 0.6838 0.0
Cd141 Cd 0.18432 0.06033 0.68579 0.0
Cd142 Cd 0.16928 0.06087 0.70375 0.0
O143 O 0.16839 0.10023 0.69946 0.0
O144 O 0.21915 0.0741 0.67638 0.0
O145 O 0.22526 0.08358 0.69243 0.0
C146 C 0.23722 0.08818 0.68374 0.0
C147 C 0.18671 0.05477 0.71903 0.0
C148 C 0.16271 0.10418 0.69065 0.0
C149 C 0.13194 0.0025 0.69222 0.0
O150 O 0.13211 0.01994 0.69906 0.0
O151 O 0.15471 0.01257 0.68629 0.0
O152 O 0.16304 0.0587 0.7182 0.0
O153 O 0.20218 0.05665 0.7112 0.0
O154 O 0.91867 0.08846 0.68202 0.0
Cd155 Cd 0.94118 0.13602 0.68189 0.0
Cd156 Cd 0.96 0.13298 0.70023 0.0
O157 O 0.92858 0.0862 0.6977 0.0
O158 O 0.9172 0.14882 0.67344 0.0
O159 O 0.9195 0.15338 0.68971 0.0
C160 C 0.90778 0.15537 0.68145 0.0
C161 C 0.96687 0.15127 0.71638 0.0
C162 C 0.91547 0.07275 0.68971 0.0
C163 C 0.00854 0.16177 0.68407 0.0
O164 O 0.00166 0.15227 0.69285 0.0
O165 O 0.98761 0.15871 0.67808 0.0
O166 O 0.97354 0.1304 0.71376 0.0
O167 O 0.95501 0.1613 0.70992 0.0
O168 O 0.8299 0.42682 0.52012 0.0
Cd169 Cd 0.84491 0.46828 0.51311 0.0
Cd170 Cd 0.83051 0.48391 0.53213 0.0
O171 O 0.8111 0.43604 0.53358 0.0
O172 O 0.86007 0.45957 0.5007 0.0
O173 O 0.8909 0.49618 0.51115 0.0
C174 C 0.88773 0.48045 0.50326 0.0
C175 C 0.84516 0.51037 0.54722 0.0
C176 C 0.81519 0.41758 0.52814 0.0
C177 C 0.80075 0.49296 0.51397 0.0
O178 O 0.8088 0.49985 0.52287 0.0
O179 O 0.81121 0.47874 0.50887 0.0
O180 O 0.81656 0.49356 0.54465 0.0
O181 O 0.86618 0.51253 0.54119 0.0
O182 O 0.56632 0.40167 0.51701 0.0
Cd183 Cd 0.51903 0.3726 0.51851 0.0
Cd184 Cd 0.53395 0.38377 0.53694 0.0
O185 O 0.57396 0.42185 0.53183 0.0
O186 O 0.50275 0.37818 0.50592 0.0
O187 O 0.49459 0.39412 0.52029 0.0
C188 C 0.49289 0.39386 0.51082 0.0
C189 C 0.50953 0.38423 0.55152 0.0
C190 C 0.58379 0.42201 0.52322 0.0
C191 C 0.51587 0.32054 0.5289 0.0
O192 O 0.53193 0.34171 0.53508 0.0
O193 O 0.50329 0.32635 0.5217 0.0
O194 O 0.53739 0.38861 0.5514 0.0
O195 O 0.49606 0.38191 0.54321 0.0
O196 O 0.58569 0.15765 0.52297 0.0
Cd197 Cd 0.61575 0.14118 0.52137 0.0
Cd198 Cd 0.61372 0.1442 0.5415 0.0
O199 O 0.57397 0.14677 0.53855 0.0
O200 O 0.60729 0.12681 0.50756 0.0
O201 O 0.59758 0.09505 0.52017 0.0
C202 C 0.59517 0.09882 0.51089 0.0
C203 C 0.61732 0.12323 0.55653 0.0
C204 C 0.56931 0.15586 0.53034 0.0
C205 C 0.67227 0.19046 0.53025 0.0
O206 O 0.65588 0.18298 0.53801 0.0
O207 O 0.66183 0.17433 0.52249 0.0
O208 O 0.61499 0.14785 0.55602 0.0
O209 O 0.61604 0.1091 0.54845 0.0
O210 O 0.76352 0.47958 0.65266 0.0
Cd211 Cd 0.81047 0.50327 0.6552 0.0
Cd212 Cd 0.81058 0.50317 0.63492 0.0
O213 O 0.7671 0.49797 0.63774 0.0
O214 O 0.81467 0.52448 0.66786 0.0
O215 O 0.83244 0.54938 0.65369 0.0
C216 C 0.82686 0.55014 0.66293 0.0
C217 C 0.82744 0.51663 0.61859 0.0
C218 C 0.75085 0.48398 0.64523 0.0
C219 C 0.82883 0.46178 0.64731 0.0
O220 O 0.81953 0.46851 0.63948 0.0
O221 O 0.83147 0.47671 0.65515 0.0
O222 O 0.80401 0.49028 0.62095 0.0
O223 O 0.84123 0.53659 0.62552 0.0
O224 O 0.4955 0.26214 0.64741 0.0
Cd225 Cd 0.47592 0.28998 0.64815 0.0
Cd226 Cd 0.47623 0.28205 0.62927 0.0
O227 O 0.47497 0.24111 0.63322 0.0
O228 O 0.45835 0.28167 0.66154 0.0
O229 O 0.42957 0.26874 0.64801 0.0
C230 C 0.43128 0.26729 0.65744 0.0
C231 C 0.45509 0.28596 0.61435 0.0
C232 C 0.48909 0.24125 0.641 0.0
C233 C 0.52434 0.34285 0.63869 0.0
O234 O 0.51767 0.32266 0.63198 0.0
O235 O 0.50626 0.33651 0.64599 0.0
O236 O 0.47767 0.28026 0.61475 0.0
O237 O 0.44274 0.28747 0.62252 0.0
O238 O 0.71494 0.22276 0.65383 0.0
Cd239 Cd 0.68932 0.17505 0.65436 0.0
Cd240 Cd 0.70294 0.18286 0.63594 0.0
O241 O 0.7422 0.22206 0.64126 0.0
O242 O 0.69827 0.16369 0.66735 0.0
O243 O 0.71339 0.15309 0.65318 0.0
C244 C 0.7144 0.15389 0.66267 0.0
C245 C 0.70483 0.16022 0.62109 0.0
C246 C 0.73872 0.23663 0.64837 0.0
C247 C 0.63844 0.16684 0.64302 0.0
O248 O 0.66066 0.18173 0.63701 0.0
O249 O 0.64322 0.15568 0.65078 0.0
O250 O 0.70996 0.18829 0.62157 0.0
O251 O 0.70073 0.14529 0.62921 0.0
O252 O 0.497 0.2523 0.14224 0.0
Cd253 Cd 0.47748 0.20799 0.14755 0.0
Cd254 Cd 0.49513 0.19827 0.12813 0.0
O255 O 0.50981 0.24531 0.12736 0.0
O256 O 0.4602 0.2139 0.15994 0.0
O257 O 0.43077 0.18201 0.14819 0.0
C258 C 0.43287 0.19543 0.1565 0.0
C259 C 0.48322 0.1728 0.11289 0.0
C260 C 0.50895 0.263 0.13394 0.0
C261 C 0.52401 0.18652 0.1463 0.0
O262 O 0.52102 0.18635 0.13704 0.0
O263 O 0.50834 0.19398 0.15192 0.0
O264 O 0.51073 0.19467 0.11505 0.0
O265 O 0.46168 0.1649 0.11939 0.0
O266 O 0.76423 0.26824 0.15441 0.0
Cd267 Cd 0.81148 0.28938 0.15301 0.0
Cd268 Cd 0.80312 0.29765 0.1338 0.0
O269 O 0.75739 0.27036 0.13848 0.0
O270 O 0.82717 0.26832 0.16165 0.0
O271 O 0.82489 0.26402 0.14537 0.0
C272 C 0.83005 0.25541 0.15378 0.0
C273 C 0.81258 0.29486 0.11706 0.0
C274 C 0.74631 0.26181 0.14707 0.0
C275 C 0.8391 0.35458 0.14694 0.0
O276 O 0.82768 0.34289 0.13864 0.0
O277 O 0.83609 0.33719 0.15417 0.0
O278 O 0.79591 0.3063 0.12013 0.0
O279 O 0.82324 0.28357 0.12352 0.0
O280 O 0.76895 0.50976 0.14638 0.0
Cd281 Cd 0.73776 0.52462 0.14867 0.0
Cd282 Cd 0.73695 0.52355 0.12827 0.0
O283 O 0.77409 0.51597 0.13033 0.0
O284 O 0.74804 0.5408 0.16221 0.0
O285 O 0.75524 0.5706 0.1492 0.0
C286 C 0.75923 0.56823 0.15847 0.0
C287 C 0.73298 0.54679 0.11383 0.0
C288 C 0.7821 0.5095 0.13845 0.0
C289 C 0.67827 0.47918 0.13976 0.0
O290 O 0.69323 0.48777 0.13175 0.0
O291 O 0.69118 0.49197 0.14781 0.0
O292 O 0.73364 0.52122 0.11378 0.0
O293 O 0.73714 0.56096 0.12211 0.0
O294 O 0.5725 0.16629 0.01234 0.0
Cd295 Cd 0.52525 0.14417 0.01494 0.0
Cd296 Cd 0.54386 0.15049 0.03287 0.0
O297 O 0.58379 0.15473 0.02678 0.0
O298 O 0.50653 0.11708 0.00338 0.0
O299 O 0.50601 0.09948 0.01845 0.0
C300 C 0.50084 0.09416 0.00916 0.0
C301 C 0.52331 0.12564 0.04777 0.0
C302 C 0.59188 0.16494 0.0181 0.0
C303 C 0.51894 0.1907 0.02557 0.0
O304 O 0.53808 0.18845 0.03122 0.0
O305 O 0.50583 0.17119 0.01867 0.0
O306 O 0.55049 0.15005 0.04721 0.0
O307 O 0.50842 0.1137 0.03971 0.0
O308 O 0.83139 0.4055 0.02304 0.0
Cd309 Cd 0.84832 0.3839 0.01429 0.0
Cd310 Cd 0.82888 0.34247 0.03059 0.0
O311 O 0.80354 0.36507 0.03256 0.0
O312 O 0.86431 0.41389 0.00322 0.0
O313 O 0.89458 0.40334 0.01241 0.0
C314 C 0.89182 0.41937 0.00542 0.0
C315 C 0.83925 0.32577 0.0455 0.0
C316 C 0.81039 0.3919 0.02946 0.0
C317 C 0.80742 0.31527 0.01088 0.0
O318 O 0.81643 0.31135 0.0192 0.0
O319 O 0.81556 0.34255 0.00788 0.0
O320 O 0.81205 0.31216 0.0416 0.0
O321 O 0.86133 0.34887 0.04083 0.0
O322 O 0.56758 0.41186 0.0265 0.0
Cd323 Cd 0.59972 0.45805 0.02527 0.0
Cd324 Cd 0.59595 0.45116 0.04475 0.0
O325 O 0.5548 0.4101 0.042 0.0
O326 O 0.59315 0.46494 0.01139 0.0
O327 O 0.58334 0.48746 0.02385 0.0
C328 C 0.58147 0.48138 0.01457 0.0
C329 C 0.60315 0.48225 0.05844 0.0
C330 C 0.55011 0.39709 0.03366 0.0
C331 C 0.65404 0.46073 0.03432 0.0
O332 O 0.63651 0.45065 0.04181 0.0
O333 O 0.64527 0.46904 0.02671 0.0
O334 O 0.59744 0.45402 0.05925 0.0
O335 O 0.60217 0.49229 0.04979 0.0
O336 O 0.48694 0.77287 0.84975 0.0
Cd337 Cd 0.51087 0.81981 0.84719 0.0
Cd338 Cd 0.50916 0.81947 0.86768 0.0
O339 O 0.50319 0.77563 0.86494 0.0
O340 O 0.53068 0.82305 0.83433 0.0
O341 O 0.55719 0.84164 0.84819 0.0
C342 C 0.55689 0.83552 0.83895 0.0
C343 C 0.52112 0.83599 0.88408 0.0
C344 C 0.49012 0.75978 0.8573 0.0
C345 C 0.46952 0.83893 0.85481 0.0
O346 O 0.47567 0.82953 0.86272 0.0
O347 O 0.48461 0.8411 0.84705 0.0
O348 O 0.49472 0.81305 0.88149 0.0
O349 O 0.54201 0.84935 0.87737 0.0
O350 O 0.23181 0.72331 0.84697 0.0
Cd351 Cd 0.18412 0.69749 0.84628 0.0
Cd352 Cd 0.19176 0.70886 0.8648 0.0
O353 O 0.23015 0.74931 0.85974 0.0
O354 O 0.17327 0.70731 0.83336 0.0
O355 O 0.16185 0.72123 0.84762 0.0
C356 C 0.16305 0.72292 0.83814 0.0
C357 C 0.16952 0.70792 0.87999 0.0
C358 C 0.24513 0.74677 0.85259 0.0
C359 C 0.17635 0.64558 0.85681 0.0
O360 O 0.19157 0.66725 0.86297 0.0
O361 O 0.16471 0.65104 0.8493 0.0
O362 O 0.19785 0.71402 0.8792 0.0
O363 O 0.15411 0.70464 0.87202 0.0
O364 O 0.27035 0.5025 0.85175 0.0
Cd365 Cd 0.29871 0.48349 0.85147 0.0
Cd366 Cd 0.28827 0.48249 0.87004 0.0
O367 O 0.24722 0.4799 0.8655 0.0
O368 O 0.29125 0.46482 0.83826 0.0
O369 O 0.27738 0.43722 0.85206 0.0
C370 C 0.2763 0.43814 0.84259 0.0
C371 C 0.29139 0.46128 0.885 0.0
C372 C 0.2482 0.49472 0.85778 0.0
C373 C 0.3497 0.53208 0.86146 0.0
O374 O 0.32839 0.52474 0.86782 0.0
O375 O 0.34486 0.51429 0.85417 0.0
O376 O 0.2844 0.48296 0.8845 0.0
O377 O 0.29452 0.44973 0.87688 0.0
O378 O 0.43536 0.81762 0.98865 0.0
Cd379 Cd 0.48199 0.84539 0.99096 0.0
Cd380 Cd 0.48828 0.83562 0.97171 0.0
O381 O 0.44123 0.82211 0.97259 0.0
O382 O 0.48919 0.87889 1.00026 0.0
O383 O 0.4997 0.88624 0.98425 0.0
C384 C 0.49777 0.89703 0.9927 0.0
C385 C 0.50934 0.84845 0.95583 0.0
C386 C 0.42375 0.81363 0.98012 0.0
C387 C 0.51053 0.80774 0.98794 0.0
O388 O 0.50428 0.80975 0.97903 0.0
O389 O 0.50559 0.82279 0.99453 0.0
O390 O 0.48979 0.82039 0.95837 0.0
O391 O 0.51677 0.8701 0.96227 0.0
O392 O 0.15927 0.58359 0.97871 0.0
Cd393 Cd 0.14355 0.61429 0.97638 0.0
Cd394 Cd 0.15214 0.60508 0.95858 0.0
O395 O 0.14716 0.56372 0.96388 0.0
O396 O 0.11198 0.60703 0.98651 0.0
O397 O 0.10109 0.59473 0.97077 0.0
C398 C 0.09149 0.59351 0.97966 0.0
C399 C 0.13208 0.61007 0.94362 0.0
C400 C 0.15584 0.56276 0.9726 0.0
C401 C 0.19893 0.66474 0.96834 0.0
O402 O 0.19397 0.64403 0.96198 0.0
O403 O 0.17788 0.66001 0.97454 0.0
O404 O 0.15357 0.60272 0.94403 0.0
O405 O 0.12031 0.61257 0.95177 0.0
O406 O 0.41002 0.57223 0.98471 0.0
Cd407 Cd 0.38203 0.52534 0.98213 0.0
Cd408 Cd 0.38706 0.54243 0.96399 0.0
O409 O 0.42494 0.58245 0.96924 0.0
O410 O 0.39324 0.50268 0.99176 0.0
O411 O 0.4058 0.50757 0.97592 0.0
C412 C 0.40858 0.49919 0.98467 0.0
C413 C 0.38633 0.52044 0.94876 0.0
C414 C 0.4278 0.5909 0.97817 0.0
C415 C 0.32567 0.5202 0.97402 0.0
O416 O 0.34444 0.53717 0.96738 0.0
O417 O 0.33464 0.50813 0.98055 0.0
O418 O 0.38891 0.54753 0.94949 0.0
O419 O 0.38633 0.50649 0.95675 0.0
O420 O 0.15605 0.58055 0.48076 0.0
Cd421 Cd 0.14052 0.53448 0.47775 0.0
Cd422 Cd 0.154 0.55564 0.46048 0.0
O423 O 0.14613 0.59006 0.46586 0.0
O424 O 0.10581 0.50842 0.48677 0.0
O425 O 0.09999 0.51389 0.47084 0.0
C426 C 0.08763 0.5037 0.47937 0.0
C427 C 0.13971 0.53317 0.44496 0.0
C428 C 0.15334 0.59862 0.47473 0.0
C429 C 0.1978 0.54091 0.47109 0.0
O430 O 0.19498 0.5588 0.46503 0.0
O431 O 0.17481 0.52269 0.47642 0.0
O432 O 0.15977 0.56229 0.44606 0.0
O433 O 0.12578 0.51718 0.45268 0.0
O434 O 0.43388 0.60654 0.48709 0.0
Cd435 Cd 0.4807 0.62384 0.48812 0.0
Cd436 Cd 0.48183 0.63975 0.4686 0.0
O437 O 0.43506 0.60725 0.47091 0.0
O438 O 0.48827 0.59811 0.49755 0.0
O439 O 0.49516 0.59777 0.4814 0.0
C440 C 0.49447 0.5864 0.49 0.0
C441 C 0.49625 0.64866 0.45195 0.0
C442 C 0.41981 0.59899 0.47891 0.0
C443 C 0.51083 0.69017 0.48482 0.0
O444 O 0.50179 0.6817 0.47607 0.0
O445 O 0.50673 0.67022 0.49132 0.0
O446 O 0.47797 0.65695 0.45585 0.0
O447 O 0.50604 0.63414 0.45744 0.0
O448 O 0.42032 0.83354 0.4831 0.0
Cd449 Cd 0.39282 0.85328 0.48077 0.0
Cd450 Cd 0.39052 0.83348 0.4632 0.0
O451 O 0.43021 0.83311 0.46735 0.0
O452 O 0.40674 0.88832 0.49007 0.0
O453 O 0.41592 0.89419 0.47401 0.0
C454 C 0.42052 0.90632 0.48268 0.0
C455 C 0.38246 0.8477 0.44765 0.0
C456 C 0.4357 0.83002 0.47626 0.0
C457 C 0.33347 0.80035 0.47551 0.0
O458 O 0.34985 0.79809 0.46876 0.0
O459 O 0.34487 0.82452 0.48087 0.0
O460 O 0.38606 0.82396 0.44894 0.0
O461 O 0.38591 0.86509 0.45514 0.0
O462 O 0.25143 0.50017 0.34611 0.0
Cd463 Cd 0.20422 0.479 0.34875 0.0
Cd464 Cd 0.22172 0.49934 0.36633 0.0
O465 O 0.26243 0.5017 0.36185 0.0
O466 O 0.18272 0.44133 0.34046 0.0
O467 O 0.18924 0.44046 0.35659 0.0
C468 C 0.18052 0.4258 0.34833 0.0
C469 C 0.20136 0.48473 0.38211 0.0
C470 C 0.2708 0.50481 0.35291 0.0
C471 C 0.19491 0.53013 0.35412 0.0
O472 O 0.21385 0.53322 0.36088 0.0
O473 O 0.18324 0.50612 0.34869 0.0
O474 O 0.22784 0.50937 0.38057 0.0
O475 O 0.18721 0.46691 0.37473 0.0
O476 O 0.48959 0.73258 0.34551 0.0
Cd477 Cd 0.51977 0.71597 0.34464 0.0
Cd478 Cd 0.50243 0.69669 0.36353 0.0
O479 O 0.48516 0.72695 0.36158 0.0
O480 O 0.55452 0.74329 0.33588 0.0
O481 O 0.55916 0.74098 0.35208 0.0
C482 C 0.57124 0.75366 0.34373 0.0
C483 C 0.51046 0.68796 0.37996 0.0
C484 C 0.47995 0.73704 0.35363 0.0
C485 C 0.48454 0.64886 0.34678 0.0
O486 O 0.48264 0.65554 0.35565 0.0
O487 O 0.50055 0.67021 0.34067 0.0
O488 O 0.48316 0.67801 0.37637 0.0
O489 O 0.53396 0.70402 0.37428 0.0
O490 O 0.22694 0.74475 0.35117 0.0
Cd491 Cd 0.25647 0.79094 0.35426 0.0
Cd492 Cd 0.25067 0.76892 0.3713 0.0
O493 O 0.20806 0.73451 0.36613 0.0
O494 O 0.24549 0.81635 0.3457 0.0
O495 O 0.23498 0.809 0.36167 0.0
C496 C 0.23141 0.8191 0.3533 0.0
C497 C 0.26099 0.79197 0.38677 0.0
C498 C 0.20649 0.7263 0.35721 0.0
C499 C 0.30838 0.78522 0.36011 0.0
O500 O 0.28802 0.76621 0.36605 0.0
O501 O 0.3031 0.80405 0.35529 0.0
O502 O 0.25185 0.7628 0.3857 0.0
O503 O 0.26176 0.80758 0.3791 0.0
C504 C 0.10055 0.17426 0.19129 0.0
C505 C 0.10609 0.15477 0.1974 0.0
C506 C 0.07055 0.17043 0.1905 0.0
C507 C 0.04554 0.14593 0.19567 0.0
C508 C 0.05144 0.12741 0.20225 0.0
C509 C 0.08167 0.13236 0.20313 0.0
C510 C 0.06539 0.1915 0.18373 0.0
C511 C 0.02543 0.10069 0.20781 0.0
C512 C 0.9628 0.12934 0.19875 0.0
C513 C 0.94736 0.10584 0.19173 0.0
C514 C 0.99543 0.14512 0.19952 0.0
C515 C 0.01273 0.13644 0.19332 0.0
C516 C 0.99739 0.11435 0.18577 0.0
C517 C 0.96495 0.09965 0.185 0.0
C518 C 0.01112 0.16954 0.20736 0.0
C519 C 0.01483 0.10407 0.17907 0.0
H520 H 0.11941 0.19192 0.18694 0.0
H521 H 0.08572 0.11726 0.2079 0.0
H522 H 0.05571 0.17939 0.17667 0.0
H523 H 0.04841 0.19742 0.18692 0.0
H524 H 0.08747 0.21338 0.18217 0.0
H525 H 0.03418 0.08949 0.21297 0.0
H526 H 0.0118 0.10889 0.21203 0.0
H527 H 0.00928 0.08279 0.20255 0.0
H528 H 0.94938 0.13464 0.20388 0.0
H529 H 0.95326 0.0817 0.1795 0.0
H530 H 0.03331 0.18928 0.20463 0.0
H531 H 0.01669 0.15927 0.21373 0.0
H532 H 0.99592 0.17861 0.20996 0.0
H533 H 0.03505 0.12452 0.1757 0.0
H534 H -0.00015 0.08852 0.17311 0.0
H535 H 0.02394 0.09139 0.1834 0.0
C536 C 0.86282 0.95045 0.19917 0.0
C537 C 0.84412 0.95445 0.19228 0.0
C538 C 0.86904 0.92599 0.19834 0.0
C539 C 0.85545 0.90431 0.19059 0.0
C540 C 0.83446 0.90663 0.18408 0.0
C541 C 0.82941 0.93205 0.1849 0.0
C542 C 0.89194 0.92472 0.20539 0.0
C543 C 0.81852 0.88323 0.17597 0.0
C544 C 0.90833 0.8736 0.18326 0.0
C545 C 0.89817 0.84811 0.1896 0.0
C546 C 0.89299 0.89084 0.18291 0.0
C547 C 0.86633 0.88175 0.18882 0.0
C548 C 0.85401 0.85401 0.19439 0.0
C549 C 0.87044 0.83778 0.19487 0.0
C550 C 0.9072 0.9205 0.17696 0.0
C551 C 0.82482 0.84276 0.20042 0.0
H552 H 0.87422 0.96754 0.20493 0.0
H553 H 0.81464 0.9348 0.17961 0.0
H554 H 0.88132 0.90167 0.20902 0.0
H555 H 0.91268 0.92789 0.2013 0.0
H556 H 0.89984 0.94296 0.21115 0.0
H557 H 0.79766 0.88368 0.17322 0.0
H558 H 0.83487 0.88874 0.16976 0.0
H559 H 0.81139 0.85932 0.17851 0.0
H560 H 0.92971 0.88162 0.17915 0.0
H561 H 0.86222 0.81771 0.19965 0.0
H562 H 0.91705 0.94082 0.18199 0.0
H563 H 0.88923 0.92159 0.17243 0.0
H564 H 0.92609 0.92269 0.17206 0.0
H565 H 0.83041 0.85658 0.20728 0.0
H566 H 0.81454 0.81783 0.20245 0.0
H567 H 0.80717 0.84591 0.19637 0.0
C568 C 0.13139 0.03777 0.18453 0.0
C569 C 0.15728 0.05405 0.19067 0.0
C570 C 0.11419 0.00518 0.18465 0.0
C571 C 0.12366 0.98853 0.19085 0.0
C572 C 0.15187 0.00476 0.19615 0.0
C573 C 0.16812 0.03745 0.19614 0.0
C574 C 0.08414 0.98886 0.17891 0.0
C575 C 0.16358 0.98774 0.20244 0.0
C576 C 0.05487 0.91907 0.20232 0.0
C577 C 0.04971 0.89512 0.19578 0.0
C578 C 0.07993 0.94924 0.20107 0.0
C579 C 0.10098 0.95555 0.19324 0.0
C580 C 0.09765 0.93092 0.18715 0.0
C581 C 0.07174 0.90097 0.18841 0.0
C582 C 0.0824 0.97481 0.20772 0.0
C583 C 0.12033 0.93644 0.17898 0.0
H584 H 0.12301 0.05047 0.18023 0.0
H585 H 0.18851 0.04997 0.20075 0.0
H586 H 0.08271 0.96907 0.1747 0.0
H587 H 0.06415 0.97928 0.18407 0.0
H588 H 0.08167 0.00478 0.17373 0.0
H589 H 0.18876 0.00253 0.20412 0.0
H590 H 0.15063 0.98102 0.20948 0.0
H591 H 0.15971 0.9661 0.19878 0.0
H592 H 0.03823 0.91478 0.20812 0.0
H593 H 0.06817 0.88251 0.1834 0.0
H594 H 0.0792 0.9919 0.20335 0.0
H595 H 0.10582 0.98746 0.21111 0.0
H596 H 0.06473 0.96576 0.21367 0.0
H597 H 0.11405 0.94548 0.17245 0.0
H598 H 0.11977 0.91455 0.17683 0.0
H599 H 0.14445 0.95393 0.18112 0.0
C600 C 0.16468 0.09713 0.31547 0.0
C601 C 0.14992 0.10537 0.30827 0.0
C602 C 0.15863 0.06635 0.31625 0.0
C603 C 0.13669 0.04334 0.30986 0.0
C604 C 0.12379 0.05211 0.30209 0.0
C605 C 0.1309 0.08311 0.30131 0.0
C606 C 0.17394 0.05808 0.32435 0.0
C607 C 0.10006 0.0283 0.29515 0.0
C608 C 0.11506 0.95856 0.30819 0.0
C609 C 0.08821 0.94454 0.31405 0.0
C610 C 0.13286 0.99112 0.30736 0.0
C611 C 0.12288 0.0098 0.31224 0.0
C612 C 0.09671 0.99576 0.31855 0.0
C613 C 0.07998 0.96335 0.31947 0.0
C614 C 0.16133 0.00533 0.30088 0.0
C615 C 0.08493 0.01474 0.32378 0.0
H616 H 0.17988 0.11436 0.32077 0.0
H617 H 0.11965 0.08931 0.29564 0.0
H618 H 0.15741 0.04745 0.33054 0.0
H619 H 0.18036 0.0408 0.32177 0.0
H620 H 0.19514 0.07894 0.32715 0.0
H621 H 0.09435 0.03928 0.289 0.0
H622 H 0.10866 0.01333 0.29205 0.0
H623 H 0.07829 0.01297 0.29923 0.0
H624 H 0.12175 0.94411 0.30409 0.0
H625 H 0.05931 0.95268 0.32403 0.0
H626 H 0.18022 0.02714 0.30414 0.0
H627 H 0.15538 0.01124 0.29366 0.0
H628 H 0.17017 0.98898 0.29963 0.0
H629 H 0.10382 0.03346 0.32817 0.0
H630 H 0.06507 0.00033 0.32874 0.0
H631 H 0.07722 0.02606 0.31831 0.0
C632 C 0.8948 0.07924 0.31384 0.0
C633 C 0.88638 0.05532 0.30695 0.0
C634 C 0.92559 0.10414 0.31438 0.0
C635 C 0.94844 0.10448 0.30807 0.0
C636 C 0.93949 0.08173 0.30062 0.0
C637 C 0.9085 0.05772 0.30007 0.0
C638 C 0.93401 0.12882 0.32212 0.0
C639 C 0.96311 0.08098 0.29379 0.0
C640 C 0.03285 0.16749 0.30527 0.0
C641 C 0.04758 0.15575 0.31127 0.0
C642 C 0.0002 0.15263 0.30479 0.0
C643 C 0.98211 0.12491 0.31019 0.0
C644 C 0.9969 0.11406 0.31668 0.0
C645 C 0.02941 0.12987 0.31724 0.0
C646 C 0.98524 0.16564 0.29811 0.0
C647 C 0.97856 0.08433 0.32247 0.0
H648 H 0.87771 0.07786 0.31908 0.0
H649 H 0.9022 0.03958 0.29463 0.0
H650 H 0.94472 0.12376 0.32848 0.0
H651 H 0.95125 0.15214 0.31926 0.0
H652 H 0.91319 0.12954 0.32476 0.0
H653 H 0.952 0.06313 0.28794 0.0
H654 H 0.97752 0.10398 0.29026 0.0
H655 H 0.979 0.07572 0.29804 0.0
H656 H 0.0468 0.18778 0.30075 0.0
H657 H 0.0406 0.12071 0.32192 0.0
H658 H 0.96374 0.16324 0.30145 0.0
H659 H 0.97863 0.15251 0.29111 0.0
H660 H 0.00138 0.19058 0.29641 0.0
H661 H 0.96003 0.0851 0.32679 0.0
H662 H 0.99348 0.08004 0.32757 0.0
H663 H 0.96704 0.06429 0.31736 0.0
C664 C 0.82431 0.87514 0.30851 0.0
C665 C 0.83775 0.90433 0.3131 0.0
C666 C 0.8389 0.85707 0.3089 0.0
C667 C 0.86809 0.86913 0.31364 0.0
C668 C 0.88091 0.89793 0.31867 0.0
C669 C 0.86532 0.9149 0.31846 0.0
C670 C 0.82381 0.82586 0.30382 0.0
C671 C 0.91228 0.91203 0.32366 0.0
C672 C 0.91438 0.8293 0.31944 0.0
C673 C 0.9362 0.84054 0.31178 0.0
C674 C 0.88979 0.83573 0.31968 0.0
C675 C 0.88764 0.85449 0.31224 0.0
C676 C 0.90807 0.86365 0.30411 0.0
C677 C 0.93178 0.85618 0.30392 0.0
C678 C 0.86748 0.82426 0.32822 0.0
C679 C 0.90687 0.88393 0.29604 0.0
H680 H 0.80274 0.86669 0.30448 0.0
H681 H 0.87582 0.93745 0.32203 0.0
H682 H 0.83457 0.82835 0.29651 0.0
H683 H 0.82729 0.80875 0.30807 0.0
H684 H 0.79845 0.81647 0.30276 0.0
H685 H 0.9183 0.93395 0.32759 0.0
H686 H 0.91268 0.89537 0.32899 0.0
H687 H 0.93063 0.91716 0.31812 0.0
H688 H 0.91728 0.81672 0.32547 0.0
H689 H 0.94821 0.8646 0.29789 0.0
H690 H 0.84343 0.81688 0.32576 0.0
H691 H 0.87439 0.84339 0.3336 0.0
H692 H 0.8675 0.80445 0.33201 0.0
H693 H 0.88294 0.87375 0.29308 0.0
H694 H 0.9229 0.8871 0.28989 0.0
H695 H 0.91345 0.90721 0.29906 0.0
C696 C 0.88338 0.83352 0.81388 0.0
C697 C 0.88304 0.85601 0.80772 0.0
C698 C 0.9109 0.8323 0.81526 0.0
C699 C 0.9387 0.85469 0.8106 0.0
C700 C 0.93818 0.87698 0.80423 0.0
C701 C 0.91037 0.87709 0.80279 0.0
C702 C 0.91027 0.80766 0.82189 0.0
C703 C 0.96732 0.90157 0.79918 0.0
C704 C 0.02049 0.88807 0.81984 0.0
C705 C 0.03362 0.87942 0.81222 0.0
C706 C 0.98843 0.87722 0.82009 0.0
C707 C 0.9691 0.85678 0.81265 0.0
C708 C 0.98163 0.84458 0.8058 0.0
C709 C 0.01391 0.85638 0.80557 0.0
C710 C 0.97601 0.8907 0.82758 0.0
C711 C 0.96148 0.82157 0.79805 0.0
H712 H 0.86228 0.81704 0.81767 0.0
H713 H 0.9104 0.8946 0.79803 0.0
H714 H 0.92567 0.79913 0.81909 0.0
H715 H 0.91875 0.81771 0.82928 0.0
H716 H 0.88631 0.78755 0.8227 0.0
H717 H 0.96289 0.91736 0.79453 0.0
H718 H 0.9852 0.91586 0.80472 0.0
H719 H 0.97719 0.89041 0.79446 0.0
H720 H 0.03551 0.90554 0.82511 0.0
H721 H 0.02384 0.849 0.7998 0.0
H722 H 0.95364 0.87232 0.83066 0.0
H723 H 0.97157 0.90817 0.82397 0.0
H724 H 0.99269 0.90232 0.83369 0.0
H725 H 0.93855 0.80424 0.80114 0.0
H726 H 0.97281 0.80912 0.79485 0.0
H727 H 0.95723 0.83411 0.79206 0.0
C728 C 0.14547 0.16101 0.80656 0.0
C729 C 0.12201 0.15771 0.81302 0.0
C730 C 0.15716 0.14045 0.80696 0.0
C731 C 0.14444 0.11571 0.81381 0.0
C732 C 0.1237 0.11476 0.82111 0.0
C733 C 0.11293 0.13601 0.82068 0.0
C734 C 0.18053 0.14316 0.79937 0.0
C735 C 0.10979 0.08894 0.82861 0.0
C736 C 0.12334 0.03646 0.80398 0.0
C737 C 0.14393 0.02973 0.80901 0.0
C738 C 0.12392 0.06462 0.80536 0.0
C739 C 0.14615 0.08717 0.8118 0.0
C740 C 0.16807 0.08128 0.81657 0.0
C741 C 0.16642 0.05234 0.81522 0.0
C742 C 0.09985 0.06969 0.80017 0.0
C743 C 0.19263 0.10498 0.8233 0.0
H744 H 0.15324 0.1783 0.80077 0.0
H745 H 0.09521 0.13366 0.82582 0.0
H746 H 0.19752 0.13731 0.80259 0.0
H747 H 0.16823 0.12647 0.79333 0.0
H748 H 0.19334 0.16696 0.79621 0.0
H749 H 0.09804 0.09418 0.83464 0.0
H750 H 0.09235 0.06706 0.82497 0.0
H751 H 0.12795 0.08481 0.8318 0.0
H752 H 0.10588 0.0192 0.79915 0.0
H753 H 0.18254 0.04737 0.81909 0.0
H754 H 0.11149 0.09076 0.79549 0.0
H755 H 0.08549 0.07351 0.80563 0.0
H756 H 0.08406 0.04964 0.79547 0.0
H757 H 0.20128 0.12905 0.82061 0.0
H758 H 0.21267 0.101 0.82408 0.0
H759 H 0.18245 0.10308 0.83069 0.0
C760 C 0.86437 0.97927 0.81853 0.0
C761 C 0.84374 0.96636 0.81062 0.0
C762 C 0.88583 0.01125 0.81891 0.0
C763 C 0.88619 0.03078 0.81128 0.0
C764 C 0.86266 0.0185 0.80402 0.0
C765 C 0.84188 0.98628 0.80369 0.0
C766 C 0.91045 0.02335 0.82681 0.0
C767 C 0.8614 0.03885 0.79602 0.0
C768 C 0.94836 0.11646 0.81321 0.0
C769 C 0.97232 0.11698 0.80759 0.0
C770 C 0.91941 0.08891 0.81416 0.0
C771 C 0.91487 0.06124 0.80962 0.0
C772 C 0.93883 0.06193 0.80379 0.0
C773 C 0.967 0.08978 0.80277 0.0
C774 C 0.89418 0.08931 0.82023 0.0
C775 C 0.93523 0.03294 0.79889 0.0
H776 H 0.86568 0.96411 0.82401 0.0
H777 H 0.82549 0.97656 0.79767 0.0
H778 H 0.93285 0.02762 0.82363 0.0
H779 H 0.91417 0.04577 0.82978 0.0
H780 H 0.90423 0.00657 0.83296 0.0
H781 H 0.83826 0.02773 0.79238 0.0
H782 H 0.86661 0.0618 0.79899 0.0
H783 H 0.87923 0.04306 0.79038 0.0
H784 H 0.95225 0.13746 0.81691 0.0
H785 H 0.98534 0.08987 0.79842 0.0
H786 H 0.8938 0.07985 0.82763 0.0
H787 H 0.87092 0.07455 0.81687 0.0
H788 H 0.89821 0.11332 0.82112 0.0
H789 H 0.93069 0.01492 0.80449 0.0
H790 H 0.95623 0.03751 0.79465 0.0
H791 H 0.91505 0.02314 0.79382 0.0
C792 C 0.91038 0.0218 0.69391 0.0
C793 C 0.89833 0.03854 0.6892 0.0
C794 C 0.89603 0.98943 0.6929 0.0
C795 C 0.86821 0.9733 0.68735 0.0
C796 C 0.85525 0.99002 0.6829 0.0
C797 C 0.87089 0.02264 0.68369 0.0
C798 C 0.91115 0.97262 0.69755 0.0
C799 C 0.82499 0.97351 0.67729 0.0
C800 C 0.85545 0.89569 0.67841 0.0
C801 C 0.84023 0.8769 0.68652 0.0
C802 C 0.86275 0.92691 0.67819 0.0
C803 C 0.8536 0.93905 0.68611 0.0
C804 C 0.83493 0.91896 0.69372 0.0
C805 C 0.82909 0.88822 0.69396 0.0
C806 C 0.88336 0.94764 0.67006 0.0
C807 C 0.82357 0.93062 0.70208 0.0
H808 H 0.93178 0.03421 0.69808 0.0
H809 H 0.86154 0.03572 0.68011 0.0
H810 H 0.89527 0.95569 0.70306 0.0
H811 H 0.91573 0.95931 0.6919 0.0
H812 H 0.93348 0.98882 0.70123 0.0
H813 H 0.81677 0.98964 0.67496 0.0
H814 H 0.82789 0.9622 0.67068 0.0
H815 H 0.80673 0.95484 0.68189 0.0
H816 H 0.86446 0.88697 0.67275 0.0
H817 H 0.81737 0.87359 0.70024 0.0
H818 H 0.90725 0.96268 0.67296 0.0
H819 H 0.87494 0.96315 0.66732 0.0
H820 H 0.88468 0.93398 0.6638 0.0
H821 H 0.84292 0.9438 0.70732 0.0
H822 H 0.80415 0.91114 0.70612 0.0
H823 H 0.81566 0.94662 0.69937 0.0
C824 C 0.10464 0.94723 0.68604 0.0
C825 C 0.10379 0.97177 0.69087 0.0
C826 C 0.07734 0.91815 0.68492 0.0
C827 C 0.04865 0.91415 0.68842 0.0
C828 C 0.04784 0.93903 0.69323 0.0
C829 C 0.0754 0.96729 0.69449 0.0
C830 C 0.07921 0.89197 0.67994 0.0
C831 C 0.01773 0.93609 0.69695 0.0
C832 C 0.96824 0.86006 0.67899 0.0
C833 C 0.95454 0.84186 0.68736 0.0
C834 C 0.00019 0.88167 0.67872 0.0
C835 C 0.01885 0.88463 0.68695 0.0
C836 C 0.00589 0.86332 0.69482 0.0
C837 C 0.97371 0.84238 0.695 0.0
C838 C 0.01301 0.90391 0.67017 0.0
C839 C 0.02534 0.86487 0.70354 0.0
H840 H 0.12661 0.95063 0.68327 0.0
H841 H 0.07454 0.98626 0.69815 0.0
H842 H 0.06462 0.86958 0.68381 0.0
H843 H 0.07028 0.88925 0.67234 0.0
H844 H 0.10353 0.89654 0.67959 0.0
H845 H 0.02113 0.95803 0.70027 0.0
H846 H 0.0008 0.92954 0.69084 0.0
H847 H 0.0072 0.91744 0.70255 0.0
H848 H 0.95365 0.85949 0.67298 0.0
H849 H 0.96338 0.82783 0.7014 0.0
H850 H 0.03624 0.90787 0.66799 0.0
H851 H 0.0158 0.92672 0.67237 0.0
H852 H 0.9973 0.89525 0.6637 0.0
H853 H 0.04875 0.86967 0.70118 0.0
H854 H 0.01401 0.8429 0.70783 0.0
H855 H 0.02856 0.88415 0.70843 0.0
C856 C 0.04123 0.14799 0.6742 0.0
C857 C 0.03941 0.16915 0.68056 0.0
C858 C 0.06776 0.14479 0.67412 0.0
C859 C 0.09321 0.16409 0.68028 0.0
C860 C 0.09341 0.18915 0.68531 0.0
C861 C 0.06599 0.19079 0.68566 0.0
C862 C 0.06669 0.118 0.66853 0.0
C863 C 0.12125 0.21194 0.69122 0.0
C864 C 0.12465 0.12065 0.69467 0.0
C865 C 0.14881 0.12373 0.68864 0.0
C866 C 0.1069 0.13432 0.69208 0.0
C867 C 0.11459 0.15294 0.6835 0.0
C868 C 0.1406 0.15806 0.67778 0.0
C869 C 0.15688 0.14256 0.68027 0.0
C870 C 0.07874 0.12717 0.69826 0.0
C871 C 0.15084 0.17885 0.66887 0.0
H872 H 0.02053 0.13123 0.67028 0.0
H873 H 0.06458 0.20733 0.69053 0.0
H874 H 0.08817 0.12617 0.66413 0.0
H875 H 0.06541 0.10029 0.67378 0.0
H876 H 0.04629 0.10666 0.66354 0.0
H877 H 0.12118 0.23408 0.69237 0.0
H878 H 0.12076 0.20182 0.69851 0.0
H879 H 0.14323 0.21703 0.68751 0.0
H880 H 0.11826 0.10576 0.70108 0.0
H881 H 0.17572 0.14498 0.67563 0.0
H882 H 0.05751 0.11703 0.69363 0.0
H883 H 0.08159 0.14887 0.70156 0.0
H884 H 0.07493 0.11058 0.7043 0.0
H885 H 0.14193 0.16431 0.66218 0.0
H886 H 0.17665 0.19194 0.66835 0.0
H887 H 0.14235 0.19574 0.66896 0.0
C888 C 0.63961 0.44515 0.5273 0.0
C889 C 0.61676 0.44273 0.52078 0.0
C890 C 0.67085 0.45931 0.5244 0.0
C891 C 0.67956 0.47261 0.5149 0.0
C892 C 0.65684 0.4726 0.50862 0.0
C893 C 0.62546 0.45682 0.51153 0.0
C894 C 0.69409 0.45802 0.53128 0.0
C895 C 0.66514 0.48788 0.49866 0.0
C896 C 0.76704 0.51696 0.51429 0.0
C897 C 0.77293 0.49391 0.5107 0.0
C898 C 0.73664 0.51215 0.51444 0.0
C899 C 0.71167 0.48308 0.51137 0.0
C900 C 0.71803 0.46134 0.50669 0.0
C901 C 0.74879 0.46736 0.50623 0.0
C902 C 0.73097 0.53687 0.51876 0.0
C903 C 0.69214 0.43002 0.50331 0.0
H904 H 0.63272 0.43395 0.53441 0.0
H905 H 0.60767 0.45503 0.50652 0.0
H906 H 0.70446 0.44511 0.52777 0.0
H907 H 0.71333 0.48186 0.53289 0.0
H908 H 0.68336 0.44644 0.53834 0.0
H909 H 0.6489 0.49619 0.49652 0.0
H910 H 0.6893 0.50786 0.49847 0.0
H911 H 0.66307 0.47064 0.4931 0.0
H912 H 0.78579 0.53772 0.51764 0.0
H913 H 0.75328 0.44949 0.50345 0.0
H914 H 0.72399 0.53132 0.52656 0.0
H915 H 0.71183 0.53778 0.51483 0.0
H916 H 0.75226 0.5602 0.51845 0.0
H917 H 0.67902 0.416 0.50978 0.0
H918 H 0.70103 0.4168 0.49916 0.0
H919 H 0.67555 0.43287 0.49859 0.0
C920 C 0.49017 0.26287 0.52597 0.0
C921 C 0.51509 0.29049 0.52965 0.0
C922 C 0.49066 0.23476 0.52642 0.0
C923 C 0.51729 0.23484 0.53023 0.0
C924 C 0.54217 0.26266 0.53412 0.0
C925 C 0.54048 0.28993 0.53393 0.0
C926 C 0.46313 0.20541 0.52254 0.0
C927 C 0.57142 0.26414 0.53803 0.0
C928 C 0.53105 0.16949 0.53761 0.0
C929 C 0.54839 0.16905 0.52955 0.0
C930 C 0.51706 0.18812 0.53749 0.0
C931 C 0.52143 0.20731 0.52927 0.0
C932 C 0.53611 0.20442 0.52076 0.0
C933 C 0.549 0.18498 0.52097 0.0
C934 C 0.4999 0.18927 0.54647 0.0
C935 C 0.54141 0.22448 0.51183 0.0
H936 H 0.47034 0.2632 0.52276 0.0
H937 H 0.55986 0.31129 0.53675 0.0
H938 H 0.46713 0.20233 0.51473 0.0
H939 H 0.45967 0.18457 0.52664 0.0
H940 H 0.44143 0.2067 0.52298 0.0
H941 H 0.58859 0.28768 0.54078 0.0
H942 H 0.56561 0.24729 0.54411 0.0
H943 H 0.58265 0.25767 0.53216 0.0
H944 H 0.5298 0.15668 0.5442 0.0
H945 H 0.56177 0.18431 0.51461 0.0
H946 H 0.47925 0.19109 0.54437 0.0
H947 H 0.51546 0.21013 0.55089 0.0
H948 H 0.49224 0.16835 0.55116 0.0
H949 H 0.51948 0.22353 0.50958 0.0
H950 H 0.55048 0.21727 0.50551 0.0
H951 H 0.55849 0.24908 0.51362 0.0
C952 C 0.7186 0.23361 0.5385 0.0
C953 C 0.70109 0.22094 0.52995 0.0
C954 C 0.74188 0.26506 0.53892 0.0
C955 C 0.74683 0.28438 0.53069 0.0
C956 C 0.73046 0.27123 0.52185 0.0
C957 C 0.7081 0.23948 0.52154 0.0
C958 C 0.7598 0.27795 0.54833 0.0
C959 C 0.73468 0.29113 0.51296 0.0
C960 C 0.76996 0.36893 0.53443 0.0
C961 C 0.80001 0.38416 0.53047 0.0
C962 C 0.75274 0.33633 0.53487 0.0
C963 C 0.76638 0.31874 0.53158 0.0
C964 C 0.79762 0.33417 0.5283 0.0
C965 C 0.8139 0.36675 0.52761 0.0
C966 C 0.71927 0.32073 0.53825 0.0
C967 C 0.81336 0.31629 0.52509 0.0
H968 H 0.71327 0.2192 0.545 0.0
H969 H 0.69437 0.22978 0.51495 0.0
H970 H 0.78489 0.29374 0.54678 0.0
H971 H 0.75104 0.29175 0.55218 0.0
H972 H 0.75734 0.25916 0.55333 0.0
H973 H 0.72156 0.27702 0.50649 0.0
H974 H 0.72647 0.30772 0.51467 0.0
H975 H 0.75964 0.30505 0.51097 0.0
H976 H 0.75915 0.3824 0.53656 0.0
H977 H 0.83728 0.37862 0.52461 0.0
H978 H 0.71525 0.30397 0.54422 0.0
H979 H 0.70367 0.30737 0.53208 0.0
H980 H 0.71257 0.33774 0.54092 0.0
H981 H 0.80864 0.29746 0.5304 0.0
H982 H 0.83895 0.33162 0.52436 0.0
H983 H 0.80393 0.30517 0.51789 0.0
C984 C 0.82157 0.4138 0.6391 0.0
C985 C 0.83039 0.43269 0.64751 0.0
C986 C 0.81355 0.3825 0.63967 0.0
C987 C 0.81541 0.37002 0.6488 0.0
C988 C 0.82854 0.39003 0.65698 0.0
C989 C 0.83546 0.42115 0.65629 0.0
C990 C 0.79975 0.36209 0.63074 0.0
C991 C 0.83284 0.37796 0.66666 0.0
C992 C 0.74789 0.28888 0.65295 0.0
C993 C 0.75993 0.27037 0.64957 0.0
C994 C 0.76622 0.32135 0.65311 0.0
C995 C 0.79782 0.33568 0.65015 0.0
C996 C 0.81075 0.31696 0.64741 0.0
C997 C 0.7914 0.28444 0.64692 0.0
C998 C 0.75112 0.3403 0.65584 0.0
C999 C 0.84459 0.33107 0.64463 0.0
H1000 H 0.81829 0.42265 0.6322 0.0
H1001 H 0.84296 0.43574 0.66277 0.0
H1002 H 0.81116 0.3481 0.6294 0.0
H1003 H 0.77462 0.34561 0.63201 0.0
H1004 H 0.80212 0.37582 0.62403 0.0
H1005 H 0.8497 0.39718 0.67143 0.0
H1006 H 0.81021 0.36565 0.67056 0.0
H1007 H 0.84108 0.3611 0.66551 0.0
H1008 H 0.72353 0.27803 0.65498 0.0
H1009 H 0.80084 0.27008 0.64442 0.0
H1010 H 0.75218 0.35492 0.64952 0.0
H1011 H 0.76382 0.35617 0.66201 0.0
H1012 H 0.72636 0.32548 0.65802 0.0
H1013 H 0.84726 0.336 0.63665 0.0
H1014 H 0.85323 0.31472 0.6462 0.0
H1015 H 0.8594 0.35323 0.64859 0.0
C1016 C 0.5637 0.3947 0.6457 0.0
C1017 C 0.55541 0.37127 0.63864 0.0
C1018 C 0.59476 0.41878 0.64666 0.0
C1019 C 0.61796 0.41875 0.64061 0.0
C1020 C 0.60933 0.39637 0.63306 0.0
C1021 C 0.57812 0.37321 0.63208 0.0
C1022 C 0.60296 0.44306 0.65453 0.0
C1023 C 0.63334 0.39517 0.62653 0.0
C1024 C 0.70264 0.48186 0.63866 0.0
C1025 C 0.71672 0.47017 0.64496 0.0
C1026 C 0.67009 0.46676 0.63774 0.0
C1027 C 0.65148 0.43882 0.64298 0.0
C1028 C 0.66559 0.42771 0.64965 0.0
C1029 C 0.69801 0.4438 0.65066 0.0
C1030 C 0.65578 0.47994 0.63086 0.0
C1031 C 0.64669 0.39764 0.65523 0.0
H1032 H 0.5462 0.39362 0.6507 0.0
H1033 H 0.57196 0.35538 0.62654 0.0
H1034 H 0.61332 0.43757 0.66089 0.0
H1035 H 0.62047 0.46646 0.6518 0.0
H1036 H 0.58214 0.44387 0.65712 0.0
H1037 H 0.62257 0.37761 0.62059 0.0
H1038 H 0.64861 0.41821 0.62314 0.0
H1039 H 0.64836 0.38923 0.631 0.0
H1040 H 0.71707 0.50252 0.63435 0.0
H1041 H 0.70881 0.43468 0.65553 0.0
H1042 H 0.63466 0.47853 0.63416 0.0
H1043 H 0.64858 0.46614 0.62398 0.0
H1044 H 0.67242 0.50458 0.62894 0.0
H1045 H 0.62774 0.39818 0.65937 0.0
H1046 H 0.66109 0.39304 0.66046 0.0
H1047 H 0.63566 0.37791 0.64999 0.0
C1048 C 0.60755 0.18692 0.63461 0.0
C1049 C 0.60883 0.16677 0.64157 0.0
C1050 C 0.58236 0.19216 0.6343 0.0
C1051 C 0.55734 0.1762 0.64093 0.0
C1052 C 0.55695 0.15341 0.64728 0.0
C1053 C 0.583 0.14929 0.64765 0.0
C1054 C 0.58399 0.21695 0.62747 0.0
C1055 C 0.52999 0.13486 0.65412 0.0
C1056 C 0.52571 0.22763 0.649 0.0
C1057 C 0.50207 0.22026 0.64209 0.0
C1058 C 0.54258 0.21196 0.6491 0.0
C1059 C 0.53504 0.18761 0.64231 0.0
C1060 C 0.50925 0.17802 0.63595 0.0
C1061 C 0.49333 0.19485 0.63579 0.0
C1062 C 0.57018 0.22334 0.65593 0.0
C1063 C 0.4996 0.15124 0.62892 0.0
H1064 H 0.62723 0.2003 0.62981 0.0
H1065 H 0.58356 0.13323 0.65292 0.0
H1066 H 0.56226 0.20783 0.62313 0.0
H1067 H 0.58642 0.23695 0.63184 0.0
H1068 H 0.60395 0.22563 0.62231 0.0
H1069 H 0.52951 0.11335 0.65668 0.0
H1070 H 0.53216 0.14916 0.66065 0.0
H1071 H 0.50751 0.12838 0.6505 0.0
H1072 H 0.53251 0.24709 0.65395 0.0
H1073 H 0.47473 0.18869 0.63054 0.0
H1074 H 0.59199 0.23342 0.65157 0.0
H1075 H 0.56874 0.20372 0.66023 0.0
H1076 H 0.57184 0.24139 0.66111 0.0
H1077 H 0.51473 0.15943 0.62234 0.0
H1078 H 0.4751 0.14161 0.62649 0.0
H1079 H 0.50217 0.13232 0.63233 0.0
C1080 C 0.69828 0.22325 0.15601 0.0
C1081 C 0.71232 0.24532 0.14851 0.0
C1082 C 0.66584 0.20758 0.15737 0.0
C1083 C 0.64738 0.21502 0.15127 0.0
C1084 C 0.66163 0.23757 0.14376 0.0
C1085 C 0.69385 0.25205 0.14238 0.0
C1086 C 0.65131 0.18294 0.16521 0.0
C1087 C 0.64291 0.24674 0.13722 0.0
C1088 C 0.56238 0.16832 0.14507 0.0
C1089 C 0.55099 0.18507 0.15018 0.0
C1090 C 0.5932 0.17509 0.14634 0.0
C1091 C 0.61314 0.19983 0.15263 0.0
C1092 C 0.60068 0.21425 0.15864 0.0
C1093 C 0.56948 0.20631 0.15744 0.0
C1094 C 0.60526 0.15826 0.14011 0.0
C1095 C 0.62112 0.24095 0.16536 0.0
H1096 H 0.71261 0.21787 0.16071 0.0
H1097 H 0.70475 0.2693 0.13663 0.0
H1098 H 0.63823 0.18909 0.17049 0.0
H1099 H 0.63435 0.16037 0.16184 0.0
H1100 H 0.66893 0.17983 0.16931 0.0
H1101 H 0.65781 0.26572 0.13205 0.0
H1102 H 0.62593 0.22635 0.13288 0.0
H1103 H 0.62951 0.25458 0.14174 0.0
H1104 H 0.54796 0.15161 0.13953 0.0
H1105 H 0.56076 0.21937 0.16139 0.0
H1106 H 0.62216 0.1542 0.14424 0.0
H1107 H 0.61748 0.17274 0.13362 0.0
H1108 H 0.58603 0.13554 0.13746 0.0
H1109 H 0.63803 0.23646 0.1693 0.0
H1110 H 0.6072 0.24543 0.17082 0.0
H1111 H 0.63461 0.26235 0.16091 0.0
C1112 C 0.83138 0.3943 0.15515 0.0
C1113 C 0.84839 0.3874 0.14844 0.0
C1114 C 0.82867 0.42092 0.15395 0.0
C1115 C 0.84449 0.44158 0.14609 0.0
C1116 C 0.86571 0.43719 0.14034 0.0
C1117 C 0.86675 0.40956 0.14138 0.0
C1118 C 0.80573 0.42463 0.16028 0.0
C1119 C 0.8849 0.46001 0.13243 0.0
C1120 C 0.79512 0.46959 0.13347 0.0
C1121 C 0.80322 0.49682 0.13868 0.0
C1122 C 0.80951 0.45207 0.13552 0.0
C1123 C 0.83356 0.46294 0.14266 0.0
C1124 C 0.84389 0.49214 0.14722 0.0
C1125 C 0.8279 0.50833 0.14539 0.0
C1126 C 0.79709 0.42068 0.13064 0.0
C1127 C 0.87051 0.5056 0.15443 0.0
H1128 H 0.81702 0.37699 0.16056 0.0
H1129 H 0.88005 0.40423 0.13621 0.0
H1130 H 0.81664 0.4485 0.16333 0.0
H1131 H 0.78559 0.421 0.15574 0.0
H1132 H 0.79692 0.40777 0.16645 0.0
H1133 H 0.90548 0.45784 0.13048 0.0
H1134 H 0.87053 0.45543 0.12573 0.0
H1135 H 0.89291 0.48428 0.1348 0.0
H1136 H 0.77569 0.46061 0.12839 0.0
H1137 H 0.83405 0.52948 0.14943 0.0
H1138 H 0.78795 0.40206 0.13629 0.0
H1139 H 0.81601 0.41956 0.12668 0.0
H1140 H 0.77812 0.41564 0.12534 0.0
H1141 H 0.86125 0.49855 0.16197 0.0
H1142 H 0.88315 0.53145 0.15417 0.0
H1143 H 0.88727 0.49741 0.15299 0.0
C1144 C 0.55513 0.31066 0.12768 0.0
C1145 C 0.52668 0.29704 0.13268 0.0
C1146 C 0.57638 0.34257 0.12858 0.0
C1147 C 0.56845 0.36136 0.13436 0.0
C1148 C 0.53849 0.34823 0.13861 0.0
C1149 C 0.51811 0.31602 0.13787 0.0
C1150 C 0.6083 0.35557 0.12405 0.0
C1151 C 0.52866 0.36774 0.14444 0.0
C1152 C 0.63826 0.42836 0.14659 0.0
C1153 C 0.64679 0.45182 0.13958 0.0
C1154 C 0.61171 0.39907 0.14523 0.0
C1155 C 0.59287 0.39365 0.13681 0.0
C1156 C 0.59986 0.41829 0.13021 0.0
C1157 C 0.62715 0.44698 0.13157 0.0
C1158 C 0.60534 0.37324 0.15236 0.0
C1159 C 0.57964 0.41385 0.12139 0.0
H1160 H 0.56189 0.29597 0.12374 0.0
H1161 H 0.49599 0.30548 0.1417 0.0
H1162 H 0.61398 0.37632 0.11953 0.0
H1163 H 0.62607 0.36309 0.12994 0.0
H1164 H 0.61016 0.33824 0.11936 0.0
H1165 H 0.50303 0.35562 0.1455 0.0
H1166 H 0.53987 0.37281 0.15176 0.0
H1167 H 0.53622 0.39035 0.14074 0.0
H1168 H 0.65363 0.43209 0.15274 0.0
H1169 H 0.63374 0.46531 0.12619 0.0
H1170 H 0.60837 0.35509 0.14859 0.0
H1171 H 0.58097 0.36201 0.15501 0.0
H1172 H 0.62115 0.38173 0.1588 0.0
H1173 H 0.58372 0.40026 0.11572 0.0
H1174 H 0.5848 0.43645 0.11812 0.0
H1175 H 0.55463 0.40057 0.12341 0.0
C1176 C 0.52373 0.35027 0.02303 0.0
C1177 C 0.52837 0.36332 0.03245 0.0
C1178 C 0.51292 0.31849 0.02177 0.0
C1179 C 0.50596 0.29929 0.03014 0.0
C1180 C 0.50556 0.31137 0.03952 0.0
C1181 C 0.51715 0.3435 0.0406 0.0
C1182 C 0.51349 0.30665 0.01161 0.0
C1183 C 0.4966 0.29117 0.04855 0.0
C1184 C 0.4854 0.2154 0.02534 0.0
C1185 C 0.5145 0.21773 0.02669 0.0
C1186 C 0.48167 0.24147 0.02678 0.0
C1187 C 0.50789 0.27044 0.02934 0.0
C1188 C 0.53733 0.27272 0.03061 0.0
C1189 C 0.54009 0.24626 0.02942 0.0
C1190 C 0.44973 0.23787 0.02579 0.0
C1191 C 0.5662 0.30328 0.03306 0.0
H1192 H 0.53142 0.36533 0.01665 0.0
H1193 H 0.51993 0.35328 0.04789 0.0
H1194 H 0.53482 0.30487 0.01079 0.0
H1195 H 0.49316 0.28314 0.01041 0.0
H1196 H 0.51368 0.32252 0.00583 0.0
H1197 H 0.48996 0.30147 0.05467 0.0
H1198 H 0.47695 0.26749 0.04697 0.0
H1199 H 0.51669 0.28883 0.05098 0.0
H1200 H 0.46552 0.19311 0.02339 0.0
H1201 H 0.56263 0.24804 0.03041 0.0
H1202 H 0.45053 0.25687 0.02129 0.0
H1203 H 0.44114 0.23941 0.03317 0.0
H1204 H 0.43277 0.21515 0.02247 0.0
H1205 H 0.57003 0.32103 0.02744 0.0
H1206 H 0.58742 0.30113 0.03345 0.0
H1207 H 0.56323 0.31205 0.04023 0.0
C1208 C 0.75615 0.29221 0.00267 0.0
C1209 C 0.7802 0.2882 0.00645 0.0
C1210 C 0.72548 0.26727 0.00242 0.0
C1211 C 0.71914 0.23753 0.00566 0.0
C1212 C 0.74412 0.23239 0.00779 0.0
C1213 C 0.77445 0.25799 0.00837 0.0
C1214 C 0.69957 0.27377 0.99997 0.0
C1215 C 0.73847 0.2005 0.01051 0.0
C1216 C 0.648 0.19743 0.02191 0.0
C1217 C 0.62475 0.1792 0.01515 0.0
C1218 C 0.67902 0.21575 0.01892 0.0
C1219 C 0.68715 0.21473 0.00901 0.0
C1220 C 0.66406 0.19434 0.00233 0.0
C1221 C 0.6329 0.17739 0.00543 0.0
C1222 C 0.70265 0.23766 0.02628 0.0
C1223 C 0.67173 0.19119 0.99183 0.0
H1224 H 0.76049 0.31548 0.00109 0.0
H1225 H 0.79312 0.25469 0.01112 0.0
H1226 H 0.68298 0.25618 0.99475 0.0
H1227 H 0.68649 0.27225 0.00675 0.0
H1228 H 0.70848 0.29726 0.99672 0.0
H1229 H 0.7598 0.19879 0.00952 0.0
H1230 H 0.73139 0.19571 0.01832 0.0
H1231 H 0.71941 0.18228 0.00601 0.0
H1232 H 0.64162 0.19897 0.02941 0.0
H1233 H 0.61485 0.16304 1.00021 0.0
H1234 H 0.71302 0.26205 0.02366 0.0
H1235 H 0.72183 0.23246 0.02707 0.0
H1236 H 0.69229 0.23602 0.03363 0.0
H1237 H 0.66838 0.2076 0.98717 0.0
H1238 H 0.65587 0.16731 0.98904 0.0
H1239 H 0.69613 0.1964 0.991 0.0
C1240 C 0.80353 0.43816 0.03137 0.0
C1241 C 0.79145 0.40597 0.03232 0.0
C1242 C 0.78441 0.45129 0.03259 0.0
C1243 C 0.75236 0.43161 0.03455 0.0
C1244 C 0.74036 0.39928 0.03595 0.0
C1245 C 0.76018 0.3869 0.03494 0.0
C1246 C 0.79823 0.48598 0.03135 0.0
C1247 C 0.70619 0.37746 0.03793 0.0
C1248 C 0.69774 0.45962 0.04297 0.0
C1249 C 0.68284 0.45895 0.03416 0.0
C1250 C 0.72194 0.45274 0.04314 0.0
C1251 C 0.73073 0.44415 0.03433 0.0
C1252 C 0.7168 0.44495 0.02535 0.0
C1253 C 0.69324 0.45275 0.02536 0.0
C1254 C 0.73698 0.45315 0.05281 0.0
C1255 C 0.72528 0.43558 0.0158 0.0
H1256 H 0.8278 0.45301 0.02942 0.0
H1257 H 0.75073 0.36199 0.03562 0.0
H1258 H 0.78999 0.49079 0.02436 0.0
H1259 H 0.79049 0.49562 0.03736 0.0
H1260 H 0.82408 0.49843 0.03124 0.0
H1261 H 0.70086 0.35319 0.03928 0.0
H1262 H 0.69854 0.38549 0.04439 0.0
H1263 H 0.69227 0.37745 0.03156 0.0
H1264 H 0.68988 0.46469 0.04979 0.0
H1265 H 0.68162 0.45203 0.01855 0.0
H1266 H 0.76268 0.46527 0.05204 0.0
H1267 H 0.72915 0.42893 0.05516 0.0
H1268 H 0.73091 0.46479 0.05867 0.0
H1269 H 0.7508 0.44914 0.01461 0.0
H1270 H 0.71353 0.4391 0.0094 0.0
H1271 H 0.71856 0.41062 0.01613 0.0
C1272 C 0.29798 0.75708 0.84837 0.0
C1273 C 0.27877 0.76854 0.85153 0.0
C1274 C 0.33038 0.77601 0.84838 0.0
C1275 C 0.34391 0.80764 0.85124 0.0
C1276 C 0.32448 0.81997 0.85374 0.0
C1277 C 0.29204 0.80001 0.85409 0.0
C1278 C 0.35009 0.76151 0.84592 0.0
C1279 C 0.33767 0.85379 0.85639 0.0
C1280 C 0.42163 0.83274 0.86275 0.0
C1281 C 0.44073 0.84099 0.85441 0.0
C1282 C 0.39034 0.82464 0.86201 0.0
C1283 C 0.37815 0.8259 0.85275 0.0
C1284 C 0.39846 0.83878 0.84464 0.0
C1285 C 0.42954 0.84574 0.8455 0.0
C1286 C 0.36963 0.81129 0.8709 0.0
C1287 C 0.38671 0.84265 0.83484 0.0
H1288 H 0.28771 0.7327 0.84642 0.0
H1289 H 0.27712 0.80899 0.85642 0.0
H1290 H 0.36593 0.77409 0.83973 0.0
H1291 H 0.36477 0.76338 0.85232 0.0
H1292 H 0.33582 0.73655 0.84388 0.0
H1293 H 0.32139 0.86203 0.85424 0.0
H1294 H 0.34083 0.85656 0.86445 0.0
H1295 H 0.36053 0.86886 0.85284 0.0
H1296 H 0.43025 0.82982 0.86974 0.0
H1297 H 0.44433 0.85289 0.83906 0.0
H1298 H 0.35315 0.78611 0.86972 0.0
H1299 H 0.35566 0.82282 0.87203 0.0
H1300 H 0.38312 0.81396 0.87769 0.0
H1301 H 0.37479 0.81991 0.83098 0.0
H1302 H 0.40607 0.85952 0.83011 0.0
H1303 H 0.3696 0.85066 0.8358 0.0
C1304 C 0.15772 0.59027 0.85175 0.0
C1305 C 0.17614 0.6158 0.85783 0.0
C1306 C 0.16118 0.5638 0.85181 0.0
C1307 C 0.18425 0.56348 0.85785 0.0
C1308 C 0.20136 0.58831 0.86446 0.0
C1309 C 0.19677 0.61391 0.86446 0.0
C1310 C 0.14147 0.53712 0.845 0.0
C1311 C 0.22648 0.58917 0.87095 0.0
C1312 C 0.20155 0.49866 0.86283 0.0
C1313 C 0.22679 0.5071 0.85648 0.0
C1314 C 0.18493 0.51477 0.86267 0.0
C1315 C 0.1945 0.54037 0.85624 0.0
C1316 C 0.21829 0.54725 0.84929 0.0
C1317 C 0.23381 0.53024 0.84942 0.0
C1318 C 0.15863 0.50577 0.86985 0.0
C1319 C 0.2295 0.57454 0.84235 0.0
H1320 H 0.14132 0.59133 0.84674 0.0
H1321 H 0.21089 0.63338 0.86926 0.0
H1322 H 0.15473 0.53946 0.8382 0.0
H1323 H 0.13532 0.51445 0.84842 0.0
H1324 H 0.11972 0.53693 0.84292 0.0
H1325 H 0.23641 0.60934 0.87606 0.0
H1326 H 0.21714 0.56754 0.87535 0.0
H1327 H 0.24563 0.59067 0.86634 0.0
H1328 H 0.19559 0.48038 0.86819 0.0
H1329 H 0.25301 0.53668 0.84438 0.0
H1330 H 0.13967 0.50842 0.86652 0.0
H1331 H 0.16736 0.52124 0.87635 0.0
H1332 H 0.14891 0.48137 0.8724 0.0
H1333 H 0.20965 0.57354 0.8383 0.0
H1334 H 0.24662 0.57532 0.83694 0.0
H1335 H 0.24071 0.59659 0.8466 0.0
C1336 C 0.3785 0.58528 0.86861 0.0
C1337 C 0.37774 0.56341 0.86192 0.0
C1338 C 0.40145 0.61668 0.86804 0.0
C1339 C 0.42481 0.6264 0.86077 0.0
C1340 C 0.42594 0.60403 0.85458 0.0
C1341 C 0.40208 0.57275 0.85514 0.0
C1342 C 0.39905 0.63977 0.8747 0.0
C1343 C 0.45124 0.6134 0.847 0.0
C1344 C 0.45043 0.70733 0.85141 0.0
C1345 C 0.47613 0.72562 0.85742 0.0
C1346 C 0.43437 0.67484 0.85213 0.0
C1347 C 0.44485 0.66021 0.85882 0.0
C1348 C 0.47209 0.67845 0.86442 0.0
C1349 C 0.48714 0.71108 0.86378 0.0
C1350 C 0.40502 0.65633 0.84618 0.0
C1351 C 0.4846 0.66362 0.87135 0.0
H1352 H 0.35997 0.57829 0.87394 0.0
H1353 H 0.40191 0.55592 0.85003 0.0
H1354 H 0.42159 0.6549 0.8784 0.0
H1355 H 0.39336 0.65505 0.87028 0.0
H1356 H 0.38081 0.62816 0.88041 0.0
H1357 H 0.4526 0.59303 0.84425 0.0
H1358 H 0.44643 0.62445 0.84068 0.0
H1359 H 0.47421 0.6307 0.85007 0.0
H1360 H 0.44181 0.71849 0.84649 0.0
H1361 H 0.50729 0.72519 0.86834 0.0
H1362 H 0.3847 0.64456 0.85117 0.0
H1363 H 0.40628 0.63797 0.84191 0.0
H1364 H 0.40082 0.67117 0.84101 0.0
H1365 H 0.46977 0.65533 0.878 0.0
H1366 H 0.50884 0.68026 0.87367 0.0
H1367 H 0.48406 0.6431 0.86789 0.0
C1368 C 0.44615 0.64664 0.97568 0.0
C1369 C 0.44889 0.62364 0.98072 0.0
C1370 C 0.46319 0.67782 0.97859 0.0
C1371 C 0.4847 0.68637 0.98646 0.0
C1372 C 0.48879 0.66327 0.99123 0.0
C1373 C 0.47008 0.63191 0.98847 0.0
C1374 C 0.45713 0.70134 0.97348 0.0
C1375 C 0.51218 0.67113 0.99936 0.0
C1376 C 0.53197 0.77297 0.98447 0.0
C1377 C 0.51478 0.78139 0.99062 0.0
C1378 C 0.5259 0.74214 0.98423 0.0
C1379 C 0.50097 0.71927 0.98985 0.0
C1380 C 0.48666 0.72858 0.99704 0.0
C1381 C 0.49424 0.75985 0.99747 0.0
C1382 C 0.54355 0.73342 0.97711 0.0
C1383 C 0.46029 0.70502 0.00329 0.0
H1384 H 0.42945 0.63998 0.96974 0.0
H1385 H 0.47215 0.61392 0.99234 0.0
H1386 H 0.45091 0.71397 0.97892 0.0
H1387 H 0.47844 0.7188 0.96962 0.0
H1388 H 0.438 0.69035 0.96802 0.0
H1389 H 0.52249 0.65575 0.99902 0.0
H1390 H 0.53126 0.69572 0.99908 0.0
H1391 H 0.5002 0.66695 0.00654 0.0
H1392 H 0.5482 0.78976 0.97926 0.0
H1393 H 0.48099 0.7664 0.00225 0.0
H1394 H 0.53003 0.72465 0.97021 0.0
H1395 H 0.54704 0.71465 0.98018 0.0
H1396 H 0.56658 0.7538 0.97528 0.0
H1397 H 0.43963 0.69088 0.9986 0.0
H1398 H 0.45363 0.71623 0.00913 0.0
H1399 H 0.46684 0.68894 0.00679 0.0
C1400 C 0.25572 0.69033 0.96512 0.0
C1401 C 0.23066 0.69186 0.96929 0.0
C1402 C 0.28648 0.71343 0.96693 0.0
C1403 C 0.29243 0.73929 0.97284 0.0
C1404 C 0.26727 0.74199 0.97661 0.0
C1405 C 0.23656 0.71793 0.97492 0.0
C1406 C 0.31262 0.70929 0.96293 0.0
C1407 C 0.27279 0.76977 0.98266 0.0
C1408 C 0.37037 0.77485 0.98568 0.0
C1409 C 0.38967 0.79754 0.9789 0.0
C1410 C 0.33825 0.75668 0.98404 0.0
C1411 C 0.32508 0.762 0.97556 0.0
C1412 C 0.34419 0.7864 0.96905 0.0
C1413 C 0.37642 0.80356 0.97071 0.0
C1414 C 0.31883 0.73038 0.99103 0.0
C1415 C 0.33085 0.79343 0.96011 0.0
H1416 H 0.25141 0.6702 0.9608 0.0
H1417 H 0.21726 0.71931 0.9781 0.0
H1418 H 0.32861 0.7297 0.95843 0.0
H1419 H 0.32641 0.7077 0.96908 0.0
H1420 H 0.30397 0.68801 0.95835 0.0
H1421 H 0.25101 0.7705 0.98387 0.0
H1422 H 0.28246 0.76889 0.98991 0.0
H1423 H 0.29011 0.79169 0.97903 0.0
H1424 H 0.38061 0.77015 0.99201 0.0
H1425 H 0.3913 0.82144 0.96553 0.0
H1426 H 0.31041 0.70777 0.98723 0.0
H1427 H 0.29805 0.73151 0.99343 0.0
H1428 H 0.33214 0.73079 0.99764 0.0
H1429 H 0.32465 0.77495 0.95454 0.0
H1430 H 0.34763 0.81616 0.95676 0.0
H1431 H 0.30922 0.79369 0.96202 0.0
C1432 C 0.16661 0.51998 0.96817 0.0
C1433 C 0.16809 0.54178 0.97503 0.0
C1434 C 0.18599 0.50701 0.96909 0.0
C1435 C 0.20776 0.51679 0.97687 0.0
C1436 C 0.20618 0.53529 0.9845 0.0
C1437 C 0.18608 0.54733 0.98353 0.0
C1438 C 0.18568 0.48571 0.96114 0.0
C1439 C 0.2286 0.54586 0.99302 0.0
C1440 C 0.26984 0.49336 0.97972 0.0
C1441 C 0.2945 0.51723 0.97444 0.0
C1442 C 0.2407 0.49176 0.98024 0.0
C1443 C 0.23673 0.51522 0.97568 0.0
C1444 C 0.26158 0.53914 0.97028 0.0
C1445 C 0.28987 0.53956 0.96963 0.0
C1446 C 0.21468 0.46541 0.98586 0.0
C1447 C 0.25873 0.56503 0.96541 0.0
H1448 H 0.15208 0.51481 0.96171 0.0
H1449 H 0.18682 0.56353 0.98901 0.0
H1450 H 0.20468 0.49938 0.95584 0.0
H1451 H 0.18971 0.46736 0.96428 0.0
H1452 H 0.16326 0.47449 0.95708 0.0
H1453 H 0.22141 0.55617 0.99899 0.0
H1454 H 0.2305 0.52613 0.99604 0.0
H1455 H 0.25208 0.5637 0.99044 0.0
H1456 H 0.27325 0.47592 0.98341 0.0
H1457 H 0.30885 0.55819 0.96558 0.0
H1458 H 0.19152 0.45898 0.98277 0.0
H1459 H 0.2153 0.47266 0.99359 0.0
H1460 H 0.21737 0.44447 0.98588 0.0
H1461 H 0.23979 0.5552 0.95989 0.0
H1462 H 0.28056 0.5822 0.96168 0.0
H1463 H 0.25271 0.57757 0.97095 0.0
C1464 C 0.23239 0.52044 0.47683 0.0
C1465 C 0.22877 0.54399 0.47243 0.0
C1466 C 0.26223 0.52427 0.47824 0.0
C1467 C 0.28881 0.55257 0.4754 0.0
C1468 C 0.28514 0.57636 0.47099 0.0
C1469 C 0.25523 0.57163 0.46947 0.0
C1470 C 0.26536 0.4982 0.48276 0.0
C1471 C 0.31286 0.60714 0.46802 0.0
C1472 C 0.36871 0.5846 0.48659 0.0
C1473 C 0.38545 0.58238 0.47865 0.0
C1474 C 0.33655 0.57295 0.4859 0.0
C1475 C 0.32076 0.55819 0.47713 0.0
C1476 C 0.33713 0.55358 0.46942 0.0
C1477 C 0.36941 0.56611 0.47022 0.0
C1478 C 0.32006 0.57883 0.49423 0.0
C1479 C 0.32096 0.53729 0.46005 0.0
H1480 H 0.21197 0.49901 0.47909 0.0
H1481 H 0.25264 0.59007 0.46616 0.0
H1482 H 0.27917 0.49182 0.47786 0.0
H1483 H 0.27811 0.506 0.48981 0.0
H1484 H 0.24239 0.47714 0.48413 0.0
H1485 H 0.30592 0.62345 0.46488 0.0
H1486 H 0.32802 0.61843 0.47447 0.0
H1487 H 0.32698 0.60329 0.46248 0.0
H1488 H 0.38101 0.59711 0.49314 0.0
H1489 H 0.38222 0.56389 0.46412 0.0
H1490 H 0.29779 0.55747 0.49598 0.0
H1491 H 0.31443 0.59698 0.492 0.0
H1492 H 0.33455 0.58686 0.50097 0.0
H1493 H 0.29847 0.51599 0.46168 0.0
H1494 H 0.33552 0.53075 0.45557 0.0
H1495 H 0.31581 0.55293 0.45562 0.0
C1496 C 0.49848 0.72393 0.49477 0.0
C1497 C 0.51752 0.7215 0.48766 0.0
C1498 C 0.49246 0.74871 0.49452 0.0
C1499 C 0.50685 0.77192 0.48721 0.0
C1500 C 0.53062 0.7725 0.48132 0.0
C1501 C 0.53507 0.74669 0.4814 0.0
C1502 C 0.4674 0.74751 0.50109 0.0
C1503 C 0.54851 0.7984 0.47409 0.0
C1504 C 0.45256 0.79154 0.47352 0.0
C1505 C 0.45651 0.81779 0.47855 0.0
C1506 C 0.46906 0.77668 0.47627 0.0
C1507 C 0.4913 0.78939 0.48396 0.0
C1508 C 0.49666 0.81708 0.4887 0.0
C1509 C 0.47847 0.83048 0.48612 0.0
C1510 C 0.46158 0.74659 0.4712 0.0
C1511 C 0.52088 0.83239 0.49663 0.0
H1512 H 0.48497 0.70444 0.49964 0.0
H1513 H 0.55014 0.74499 0.47597 0.0
H1514 H 0.47543 0.77047 0.50457 0.0
H1515 H 0.44648 0.74187 0.49663 0.0
H1516 H 0.46055 0.72969 0.50694 0.0
H1517 H 0.57096 0.79996 0.47208 0.0
H1518 H 0.53459 0.79397 0.46729 0.0
H1519 H 0.55318 0.8211 0.47714 0.0
H1520 H 0.43527 0.78163 0.46774 0.0
H1521 H 0.48151 0.85092 0.48999 0.0
H1522 H 0.45545 0.72788 0.47669 0.0
H1523 H 0.48222 0.74963 0.4671 0.0
H1524 H 0.44192 0.7387 0.46595 0.0
H1525 H 0.50935 0.82585 0.5039 0.0
H1526 H 0.53236 0.85814 0.49603 0.0
H1527 H 0.53902 0.82555 0.49633 0.0
C1528 C 0.27842 0.77783 0.48161 0.0
C1529 C 0.30172 0.77398 0.47712 0.0
C1530 C 0.24788 0.75252 0.48254 0.0
C1531 C 0.24103 0.72273 0.47915 0.0
C1532 C 0.26482 0.71879 0.47483 0.0
C1533 C 0.29465 0.74444 0.47381 0.0
C1534 C 0.22325 0.75777 0.48717 0.0
C1535 C 0.25887 0.68742 0.47121 0.0
C1536 C 0.18073 0.64262 0.48649 0.0
C1537 C 0.16577 0.63169 0.47742 0.0
C1538 C 0.20266 0.67419 0.48782 0.0
C1539 C 0.20936 0.69506 0.47992 0.0
C1540 C 0.19014 0.6851 0.47149 0.0
C1541 C 0.16859 0.65333 0.47029 0.0
C1542 C 0.22185 0.68411 0.49708 0.0
C1543 C 0.19544 0.7071 0.46312 0.0
H1544 H 0.28384 0.80068 0.48419 0.0
H1545 H 0.31266 0.74124 0.47043 0.0
H1546 H 0.20021 0.74324 0.48366 0.0
H1547 H 0.22099 0.75128 0.49503 0.0
H1548 H 0.22952 0.7826 0.48672 0.0
H1549 H 0.28025 0.6883 0.46833 0.0
H1550 H 0.24957 0.67012 0.47725 0.0
H1551 H 0.24123 0.6789 0.46527 0.0
H1552 H 0.17792 0.62619 0.4922 0.0
H1553 H 0.15633 0.64525 0.46338 0.0
H1554 H 0.22694 0.70762 0.49939 0.0
H1555 H 0.24441 0.68515 0.49568 0.0
H1556 H 0.20992 0.66747 0.50317 0.0
H1557 H 0.20147 0.7305 0.4659 0.0
H1558 H 0.17458 0.69821 0.45834 0.0
H1559 H 0.2152 0.70969 0.45859 0.0
C1560 C 0.16944 0.67089 0.36161 0.0
C1561 C 0.18619 0.69329 0.35441 0.0
C1562 C 0.16039 0.63953 0.36004 0.0
C1563 C 0.16868 0.63081 0.35115 0.0
C1564 C 0.18027 0.65221 0.34328 0.0
C1565 C 0.18886 0.68336 0.345 0.0
C1566 C 0.14638 0.61688 0.36843 0.0
C1567 C 0.18825 0.64353 0.33354 0.0
C1568 C 0.21011 0.58558 0.35549 0.0
C1569 C 0.18792 0.55543 0.3526 0.0
C1570 C 0.20414 0.61017 0.35481 0.0
C1571 C 0.17491 0.60448 0.35125 0.0
C1572 C 0.15251 0.5742 0.34808 0.0
C1573 C 0.15938 0.54991 0.34875 0.0
C1574 C 0.22915 0.6422 0.35809 0.0
C1575 C 0.12097 0.56703 0.34436 0.0
H1576 H 0.16625 0.67816 0.3688 0.0
H1577 H 0.20076 0.70036 0.33925 0.0
H1578 H 0.12917 0.59337 0.36571 0.0
H1579 H 0.16508 0.61502 0.3723 0.0
H1580 H 0.13483 0.62467 0.3738 0.0
H1581 H 0.18974 0.65964 0.32764 0.0
H1582 H 0.21122 0.64486 0.33413 0.0
H1583 H 0.17079 0.61937 0.33145 0.0
H1584 H 0.23237 0.59 0.35835 0.0
H1585 H 0.14211 0.52652 0.34656 0.0
H1586 H 0.22069 0.64998 0.36442 0.0
H1587 H 0.23481 0.65928 0.35208 0.0
H1588 H 0.25095 0.64272 0.36032 0.0
H1589 H 0.10533 0.56268 0.35071 0.0
H1590 H 0.11028 0.54589 0.33967 0.0
H1591 H 0.12229 0.58678 0.34014 0.0
C1592 C 0.31411 0.5065 0.34297 0.0
C1593 C 0.304 0.51828 0.35058 0.0
C1594 C 0.34591 0.52069 0.34056 0.0
C1595 C 0.36754 0.54822 0.34553 0.0
C1596 C 0.3571 0.56013 0.3532 0.0
C1597 C 0.32561 0.54453 0.35577 0.0
C1598 C 0.35575 0.50627 0.33261 0.0
C1599 C 0.37893 0.59 0.35853 0.0
C1600 C 0.4533 0.59176 0.3493 0.0
C1601 C 0.46121 0.61768 0.34335 0.0
C1602 C 0.42346 0.56545 0.3488 0.0
C1603 C 0.40088 0.56618 0.34264 0.0
C1604 C 0.41031 0.59017 0.33558 0.0
C1605 C 0.44076 0.61555 0.33591 0.0
C1606 C 0.41493 0.53881 0.35578 0.0
C1607 C 0.38716 0.59144 0.32869 0.0
H1608 H 0.29725 0.48605 0.33898 0.0
H1609 H 0.31759 0.55374 0.36159 0.0
H1610 H 0.35081 0.51294 0.32535 0.0
H1611 H 0.38087 0.51372 0.33299 0.0
H1612 H 0.34203 0.48047 0.33307 0.0
H1613 H 0.36645 0.59739 0.36366 0.0
H1614 H 0.39621 0.58691 0.3628 0.0
H1615 H 0.39193 0.60909 0.35319 0.0
H1616 H 0.46935 0.5932 0.35495 0.0
H1617 H 0.44697 0.63555 0.33125 0.0
H1618 H 0.39766 0.51636 0.35239 0.0
H1619 H 0.40432 0.54222 0.36249 0.0
H1620 H 0.43578 0.53747 0.358 0.0
H1621 H 0.37296 0.56866 0.32502 0.0
H1622 H 0.39874 0.6097 0.32299 0.0
H1623 H 0.3711 0.59651 0.33294 0.0
C1624 C 0.33512 0.75437 0.36007 0.0
C1625 C 0.33658 0.78297 0.35841 0.0
C1626 C 0.36116 0.75094 0.3587 0.0
C1627 C 0.3897 0.77695 0.35578 0.0
C1628 C 0.39144 0.80596 0.35406 0.0
C1629 C 0.36464 0.80857 0.35528 0.0
C1630 C 0.35805 0.71938 0.36042 0.0
C1631 C 0.42167 0.83426 0.3511 0.0
C1632 C 0.45626 0.76411 0.36258 0.0
C1633 C 0.46071 0.75215 0.3538 0.0
C1634 C 0.43507 0.77499 0.36311 0.0
C1635 C 0.41746 0.7732 0.35471 0.0
C1636 C 0.42321 0.76288 0.34569 0.0
C1637 C 0.445 0.75272 0.34532 0.0
C1638 C 0.43004 0.78643 0.37282 0.0
C1639 C 0.4046 0.76015 0.3366 0.0
H1640 H 0.31335 0.73438 0.36235 0.0
H1641 H 0.36579 0.8307 0.35403 0.0
H1642 H 0.36552 0.71184 0.35379 0.0
H1643 H 0.37343 0.7208 0.36654 0.0
H1644 H 0.33381 0.70125 0.36223 0.0
H1645 H 0.41898 0.85491 0.34981 0.0
H1646 H 0.43931 0.83999 0.35694 0.0
H1647 H 0.43089 0.82937 0.34434 0.0
H1648 H 0.46871 0.76417 0.36913 0.0
H1649 H 0.44839 0.74358 0.3385 0.0
H1650 H 0.40757 0.76854 0.37602 0.0
H1651 H 0.42876 0.80796 0.37181 0.0
H1652 H 0.44887 0.7912 0.37815 0.0
H1653 H 0.3805 0.7404 0.33749 0.0
H1654 H 0.4148 0.756 0.32991 0.0
H1655 H 0.40305 0.78149 0.33552 0.0
C1656 C 0.21075 0.22594 0.27485 0.0
C1657 C 0.17908 0.21678 0.27543 0.0
C1658 C 0.22417 0.22529 0.26582 0.0
C1659 C 0.20536 0.2153 0.25729 0.0
C1660 C 0.17449 0.20987 0.25771 0.0
C1661 C 0.16172 0.21056 0.26679 0.0
C1662 C 0.25743 0.23219 0.26564 0.0
C1663 C 0.15372 0.19984 0.24877 0.0
C1664 C 0.22669 0.2094 0.23106 0.0
C1665 C 0.21435 0.17712 0.23033 0.0
C1666 C 0.22709 0.22322 0.24011 0.0
C1667 C 0.21488 0.20419 0.24853 0.0
C1668 C 0.20592 0.17225 0.24799 0.0
C1669 C 0.20571 0.15911 0.23888 0.0
C1670 C 0.2377 0.2575 0.24042 0.0
C1671 C 0.19335 0.15112 0.25682 0.0
H1672 H 0.2243 0.23088 0.28153 0.0
H1673 H 0.13733 0.20393 0.26722 0.0
H1674 H 0.25776 0.21006 0.26628 0.0
H1675 H 0.26906 0.24349 0.25865 0.0
H1676 H 0.271 0.24744 0.27186 0.0
H1677 H 0.13189 0.2004 0.25007 0.0
H1678 H 0.16603 0.21505 0.24243 0.0
H1679 H 0.14743 0.1757 0.24676 0.0
H1680 H 0.23361 0.2235 0.22446 0.0
H1681 H 0.19667 0.13423 0.23837 0.0
H1682 H 0.24909 0.26801 0.24751 0.0
H1683 H 0.21721 0.26069 0.23962 0.0
H1684 H 0.25414 0.27023 0.23435 0.0
H1685 H 0.20871 0.16183 0.26326 0.0
H1686 H 0.19105 0.12797 0.25545 0.0
H1687 H 0.17002 0.14756 0.25872 0.0
C1688 C 0.83509 0.04447 0.23604 0.0
C1689 C 0.81685 0.03418 0.22754 0.0
C1690 C 0.82233 0.03244 0.24525 0.0
C1691 C 0.79053 0.0092 0.24598 0.0
C1692 C 0.77132 0.00086 0.23755 0.0
C1693 C 0.78474 0.01358 0.22838 0.0
C1694 C 0.84365 0.04256 0.25406 0.0
C1695 C 0.73726 0.97658 0.23802 0.0
C1696 C 0.78483 0.9541 0.26586 0.0
C1697 C 0.77789 0.96663 0.27403 0.0
C1698 C 0.78557 0.96555 0.25642 0.0
C1699 C 0.77961 0.99045 0.25515 0.0
C1700 C 0.76919 0.00078 0.26323 0.0
C1701 C 0.76835 0.98862 0.27263 0.0
C1702 C 0.79606 0.95325 0.24799 0.0
C1703 C 0.762 0.02681 0.26216 0.0
H1704 H 0.85987 0.06071 0.23541 0.0
H1705 H 0.77056 0.00555 0.22181 0.0
H1706 H 0.83292 0.04805 0.26032 0.0
H1707 H 0.8475 0.02329 0.25638 0.0
H1708 H 0.86665 0.06332 0.25248 0.0
H1709 H 0.72421 0.97849 0.23169 0.0
H1710 H 0.73481 0.95309 0.23785 0.0
H1711 H 0.72651 0.97854 0.24492 0.0
H1712 H 0.79182 0.93678 0.26693 0.0
H1713 H 0.76292 0.99834 0.27894 0.0
H1714 H 0.82031 0.97073 0.24596 0.0
H1715 H 0.7812 0.94919 0.24146 0.0
H1716 H 0.79543 0.93115 0.24989 0.0
H1717 H 0.78409 0.04944 0.26223 0.0
H1718 H 0.74722 0.02682 0.26828 0.0
H1719 H 0.75008 0.02503 0.25511 0.0
C1720 C -0.00212 0.78603 0.27666 0.0
C1721 C 0.02168 0.81683 0.27812 0.0
C1722 C 0.98603 0.77531 0.26719 0.0
C1723 C -0.0014 0.7959 0.25912 0.0
C1724 C 0.02507 0.82574 0.2605 0.0
C1725 C 0.03609 0.83592 0.27 0.0
C1726 C 0.95814 0.74319 0.26602 0.0
C1727 C 0.03976 0.84824 0.25208 0.0
C1728 C 0.97817 0.77871 0.23219 0.0
C1729 C 0.95999 0.79283 0.23085 0.0
C1730 C 0.98897 0.77691 0.24157 0.0
C1731 C 0.98114 0.78934 0.24973 0.0
C1732 C 0.96015 0.80063 0.24849 0.0
C1733 C 0.95001 0.80241 0.23906 0.0
C1734 C 0.01091 0.7643 0.24259 0.0
C1735 C 0.95061 0.81354 0.25701 0.0
H1736 H 0.98664 0.77126 0.28295 0.0
H1737 H 0.05471 0.85966 0.27115 0.0
H1738 H 0.93671 0.74497 0.26578 0.0
H1739 H 0.95941 0.73225 0.25907 0.0
H1740 H 0.95602 0.7278 0.27224 0.0
H1741 H 0.06259 0.86855 0.25413 0.0
H1742 H 0.0432 0.83646 0.24569 0.0
H1743 H 0.02405 0.85696 0.24975 0.0
H1744 H 0.9859 0.7712 0.22585 0.0
H1745 H 0.93559 0.81294 0.23806 0.0
H1746 H 0.00672 0.7511 0.24952 0.0
H1747 H 0.03523 0.78399 0.24274 0.0
H1748 H 0.00864 0.74893 0.23633 0.0
H1749 H 0.94323 0.79735 0.26333 0.0
H1750 H 0.93127 0.81773 0.25504 0.0
H1751 H 0.97081 0.83595 0.2594 0.0
C1752 C 0.80071 0.78557 0.7278 0.0
C1753 C 0.83262 0.79612 0.72692 0.0
C1754 C 0.78836 0.78951 0.73662 0.0
C1755 C 0.8084 0.80379 0.74473 0.0
C1756 C 0.83999 0.81149 0.74412 0.0
C1757 C 0.85179 0.80794 0.73517 0.0
C1758 C 0.75463 0.78106 0.73695 0.0
C1759 C 0.86203 0.82596 0.75266 0.0
C1760 C 0.80264 0.85981 0.76215 0.0
C1761 C 0.79353 0.84252 0.77085 0.0
C1762 C 0.80468 0.84641 0.75334 0.0
C1763 C 0.7982 0.81515 0.75328 0.0
C1764 C 0.78655 0.79685 0.76187 0.0
C1765 C 0.78408 0.81073 0.77056 0.0
C1766 C 0.81634 0.86656 0.74428 0.0
C1767 C 0.77946 0.76352 0.76214 0.0
H1768 H 0.7859 0.77668 0.72139 0.0
H1769 H 0.87645 0.81597 0.7345 0.0
H1770 H 0.7439 0.77042 0.74409 0.0
H1771 H 0.7531 0.80251 0.7361 0.0
H1772 H 0.74092 0.76469 0.73097 0.0
H1773 H 0.88447 0.82656 0.75144 0.0
H1774 H 0.86697 0.85019 0.75374 0.0
H1775 H 0.85134 0.81289 0.75951 0.0
H1776 H 0.80975 0.88435 0.76235 0.0
H1777 H 0.77722 0.79734 0.7773 0.0
H1778 H 0.80195 0.85394 0.73781 0.0
H1779 H 0.8406 0.8723 0.74273 0.0
H1780 H 0.81605 0.88868 0.74516 0.0
H1781 H 0.76737 0.75095 0.75536 0.0
H1782 H 0.76489 0.75082 0.76858 0.0
H1783 H 0.80163 0.76317 0.76262 0.0
C1784 C 0.18441 0.9767 0.77091 0.0
C1785 C 0.15267 0.95443 0.77151 0.0
C1786 C 0.19705 0.99376 0.76223 0.0
C1787 C 0.17751 0.98793 0.75399 0.0
C1788 C 0.14627 0.96317 0.7543 0.0
C1789 C 0.13415 0.94695 0.76309 0.0
C1790 C 0.23045 0.01986 0.76222 0.0
C1791 C 0.12479 0.95557 0.7456 0.0
C1792 C 0.18229 0.05057 0.73717 0.0
C1793 C 0.19252 0.04383 0.72843 0.0
C1794 C 0.18005 0.03433 0.74582 0.0
C1795 C 0.18761 0.0103 0.74566 0.0
C1796 C 0.20043 0.00519 0.73706 0.0
C1797 C 0.20297 0.02225 0.72853 0.0
C1798 C 0.16707 0.04116 0.75491 0.0
C1799 C 0.2088 0.97986 0.73658 0.0
H1800 H 0.19878 0.98267 0.77743 0.0
H1801 H 0.10965 0.92957 0.76353 0.0
H1802 H 0.24191 0.02102 0.75512 0.0
H1803 H 0.23104 0.04235 0.76323 0.0
H1804 H 0.24408 0.01725 0.76823 0.0
H1805 H 0.10274 0.93314 0.74656 0.0
H1806 H 0.11898 0.9743 0.74461 0.0
H1807 H 0.13636 0.95432 0.7388 0.0
H1808 H 0.17443 0.06742 0.73712 0.0
H1809 H 0.21075 0.01686 0.72176 0.0
H1810 H 0.18126 0.04295 0.76143 0.0
H1811 H 0.14304 0.02178 0.75624 0.0
H1812 H 0.16632 0.06309 0.75422 0.0
H1813 H 0.22053 0.97908 0.74341 0.0
H1814 H 0.22418 0.98306 0.73024 0.0
H1815 H 0.1872 0.95699 0.73579 0.0
C1816 C 0.99357 0.19691 0.72756 0.0
C1817 C 0.97536 0.16464 0.72629 0.0
C1818 C 0.00838 0.20945 0.73658 0.0
C1819 C 0.00414 0.18914 0.74448 0.0
C1820 C 0.9835 0.15672 0.74341 0.0
C1821 C 0.96984 0.14484 0.73426 0.0
C1822 C 0.03051 0.24403 0.73736 0.0
C1823 C 0.97751 0.13427 0.75172 0.0
C1824 C 0.06496 0.20069 0.76321 0.0
C1825 C 0.05309 0.20692 0.77168 0.0
C1826 C 0.05098 0.19804 0.75406 0.0
C1827 C 0.02384 0.20065 0.75344 0.0
C1828 C 0.01325 0.20937 0.76185 0.0
C1829 C 0.02831 0.21279 0.77089 0.0
C1830 C 0.0637 0.18977 0.74521 0.0
C1831 C 0.98427 0.21205 0.76155 0.0
H1832 H -0.00183 0.21215 0.72132 0.0
H1833 H 0.95574 0.11986 0.73324 0.0
H1834 H 0.02787 0.25317 0.7445 0.0
H1835 H 0.05479 0.24862 0.73693 0.0
H1836 H 0.02692 0.25704 0.73135 0.0
H1837 H 0.95786 0.11058 0.7501 0.0
H1838 H -0.00133 0.13254 0.75305 0.0
H1839 H 0.97225 0.14277 0.75858 0.0
H1840 H 0.08422 0.19628 0.76383 0.0
H1841 H 0.01891 0.21732 0.77746 0.0
H1842 H 0.06449 0.2038 0.73876 0.0
H1843 H 0.04816 0.16488 0.74334 0.0
H1844 H 0.08745 0.19357 0.74655 0.0
H1845 H 0.98358 0.22421 0.75482 0.0
H1846 H 0.98256 0.22463 0.76805 0.0
H1847 H 0.96351 0.18835 0.76145 0.0
C1848 C 0.87838 0.5277 0.56231 0.0
C1849 C 0.85261 0.52447 0.55708 0.0
C1850 C 0.88101 0.53366 0.57245 0.0
C1851 C 0.85744 0.53664 0.57737 0.0
C1852 C 0.8334 0.53695 0.57187 0.0
C1853 C 0.83116 0.53062 0.5618 0.0
C1854 C 0.90722 0.53356 0.57803 0.0
C1855 C 0.80807 0.54058 0.57675 0.0
C1856 C 0.82735 0.49736 0.60182 0.0
C1857 C 0.83794 0.52266 0.60827 0.0
C1858 C 0.835 0.50172 0.59186 0.0
C1859 C 0.8536 0.53228 0.58817 0.0
C1860 C 0.8655 0.55798 0.59469 0.0
C1861 C 0.85758 0.55285 0.60472 0.0
C1862 C 0.82201 0.47354 0.58523 0.0
C1863 C 0.88541 0.59086 0.59103 0.0
H1864 H 0.89511 0.52313 0.55865 0.0
H1865 H 0.81149 0.5287 0.55773 0.0
H1866 H 0.916 0.55139 0.58392 0.0
H1867 H 0.89849 0.51051 0.58156 0.0
H1868 H 0.92686 0.53788 0.57312 0.0
H1869 H 0.79437 0.54562 0.57136 0.0
H1870 H 0.79194 0.5187 0.58065 0.0
H1871 H 0.81804 0.55955 0.58226 0.0
H1872 H 0.8126 0.47389 0.60453 0.0
H1873 H 0.86596 0.57246 0.60969 0.0
H1874 H 0.84097 0.47361 0.58089 0.0
H1875 H 0.80529 0.47425 0.57997 0.0
H1876 H 0.80978 0.45132 0.58937 0.0
H1877 H 0.90317 0.59235 0.58577 0.0
H1878 H 0.89734 0.60749 0.59713 0.0
H1879 H 0.87056 0.59817 0.58709 0.0
C1880 C 0.50936 0.38565 0.56971 0.0
C1881 C 0.49246 0.37702 0.56092 0.0
C1882 C 0.49528 0.37142 0.57859 0.0
C1883 C 0.46351 0.34785 0.57867 0.0
C1884 C 0.44547 0.34178 0.57005 0.0
C1885 C 0.46021 0.3565 0.56122 0.0
C1886 C 0.51535 0.3792 0.58765 0.0
C1887 C 0.41136 0.31755 0.56988 0.0
C1888 C 0.45555 0.28573 0.59619 0.0
C1889 C 0.44745 0.29496 0.60488 0.0
C1890 C 0.4577 0.30084 0.58731 0.0
C1891 C 0.45174 0.32595 0.58713 0.0
C1892 C 0.44009 0.33299 0.59565 0.0
C1893 C 0.43806 0.31734 0.60448 0.0
C1894 C 0.46958 0.29201 0.57836 0.0
C1895 C 0.43262 0.35897 0.59573 0.0
H1896 H 0.53421 0.40189 0.56953 0.0
H1897 H 0.44696 0.34985 0.55446 0.0
H1898 H 0.50352 0.3825 0.59405 0.0
H1899 H 0.51938 0.35961 0.58936 0.0
H1900 H 0.53833 0.40062 0.58667 0.0
H1901 H 0.39915 0.32146 0.56369 0.0
H1902 H 0.40886 0.29418 0.56896 0.0
H1903 H 0.39979 0.31749 0.57685 0.0
H1904 H 0.46239 0.2681 0.59645 0.0
H1905 H 0.43168 0.32451 0.61118 0.0
H1906 H 0.49379 0.31062 0.57678 0.0
H1907 H 0.45518 0.28971 0.57185 0.0
H1908 H 0.46954 0.26977 0.5794 0.0
H1909 H 0.45438 0.38147 0.59688 0.0
H1910 H 0.41622 0.35592 0.60174 0.0
H1911 H 0.4224 0.36037 0.58864 0.0
C1912 C 0.6445 0.10164 0.56656 0.0
C1913 C 0.62483 0.11433 0.56604 0.0
C1914 C 0.65839 0.10107 0.57551 0.0
C1915 C 0.65225 0.11338 0.58405 0.0
C1916 C 0.62988 0.12318 0.58369 0.0
C1917 C 0.61658 0.12365 0.57469 0.0
C1918 C 0.6816 0.08985 0.5756 0.0
C1919 C 0.62207 0.13594 0.59264 0.0
C1920 C 0.67586 0.1134 0.61041 0.0
C1921 C 0.6988 0.14479 0.61143 0.0
C1922 C 0.66243 0.10135 0.60119 0.0
C1923 C 0.67239 0.12123 0.59291 0.0
C1924 C 0.69831 0.1517 0.59375 0.0
C1925 C 0.71109 0.16314 0.60302 0.0
C1926 C 0.63544 0.0685 0.60056 0.0
C1927 C 0.71027 0.17353 0.58508 0.0
H1928 H 0.65094 0.0944 0.55988 0.0
H1929 H 0.60106 0.13311 0.57432 0.0
H1930 H 0.70543 0.11012 0.57484 0.0
H1931 H 0.68061 0.07798 0.58259 0.0
H1932 H 0.67755 0.07367 0.56941 0.0
H1933 H 0.60183 0.13934 0.59137 0.0
H1934 H 0.61678 0.12007 0.59898 0.0
H1935 H 0.64242 0.15875 0.59465 0.0
H1936 H 0.66633 0.09906 0.61689 0.0
H1937 H 0.72916 0.18731 0.60378 0.0
H1938 H 0.63575 0.05739 0.59353 0.0
H1939 H 0.61331 0.06893 0.60091 0.0
H1940 H 0.63569 0.05399 0.60673 0.0
H1941 H 0.7127 0.16156 0.57856 0.0
H1942 H 0.73314 0.19452 0.58662 0.0
H1943 H 0.69335 0.18121 0.58322 0.0
C1944 C 0.47728 0.1088 0.0586 0.0
C1945 C 0.50818 0.11574 0.05743 0.0
C1946 C 0.46586 0.11028 0.0679 0.0
C1947 C 0.48573 0.11831 0.07616 0.0
C1948 C 0.51544 0.12105 0.07514 0.0
C1949 C 0.52649 0.1202 0.06575 0.0
C1950 C 0.43401 0.10699 0.06867 0.0
C1951 C 0.53701 0.12854 0.08379 0.0
C1952 C 0.49068 0.17641 0.09496 0.0
C1953 C 0.47756 0.1577 0.10323 0.0
C1954 C 0.49115 0.16338 0.08591 0.0
C1955 C 0.47901 0.13082 0.08519 0.0
C1956 C 0.46408 0.11155 0.0934 0.0
C1957 C 0.46328 0.12528 0.10237 0.0
C1958 C 0.50656 0.18484 0.0773 0.0
C1959 C 0.45107 0.07683 0.09297 0.0
H1960 H 0.46309 0.10543 0.05216 0.0
H1961 H 0.55031 0.12529 0.06485 0.0
H1962 H 0.42215 0.09494 0.07554 0.0
H1963 H 0.43648 0.1305 0.06879 0.0
H1964 H 0.41908 0.09401 0.06232 0.0
H1965 H 0.55647 0.12422 0.08214 0.0
H1966 H 0.54706 0.15346 0.08576 0.0
H1967 H 0.52415 0.11448 0.09027 0.0
H1968 H 0.50159 0.2015 0.09567 0.0
H1969 H 0.45341 0.11088 0.10882 0.0
H1970 H 0.49155 0.176 0.07069 0.0
H1971 H 0.52885 0.1857 0.07558 0.0
H1972 H 0.51158 0.20894 0.07878 0.0
H1973 H 0.43933 0.06711 0.08586 0.0
H1974 H 0.43432 0.06465 0.09902 0.0
H1975 H 0.47045 0.07184 0.09365 0.0
C1976 C 0.86713 0.33819 0.06161 0.0
C1977 C 0.84351 0.31672 0.05546 0.0
C1978 C 0.86662 0.3324 0.07172 0.0
C1979 C 0.84206 0.30444 0.07567 0.0
C1980 C 0.82016 0.28136 0.0693 0.0
C1981 C 0.82106 0.28786 0.05927 0.0
C1982 C 0.89053 0.35753 0.07825 0.0
C1983 C 0.79383 0.25107 0.07317 0.0
C1984 C 0.8393 0.2853 0.10288 0.0
C1985 C 0.82003 0.29625 0.10649 0.0
C1986 C 0.84709 0.28799 0.09286 0.0
C1987 C 0.83538 0.302 0.08637 0.0
C1988 C 0.81597 0.31308 0.09002 0.0
C1989 C 0.80851 0.30999 0.09999 0.0
C1990 C 0.86774 0.27584 0.0892 0.0
C1991 C 0.80289 0.32817 0.08337 0.0
H1992 H 0.88463 0.36048 0.05868 0.0
H1993 H 0.80303 0.27095 0.05451 0.0
H1994 H 0.87991 0.36997 0.08191 0.0
H1995 H 0.89838 0.34738 0.08407 0.0
H1996 H 0.91114 0.37479 0.07404 0.0
H1997 H 0.78243 0.23356 0.06725 0.0
H1998 H 0.80226 0.24116 0.07889 0.0
H1999 H 0.77605 0.25541 0.0766 0.0
H2000 H 0.84839 0.27479 0.10788 0.0
H2001 H 0.79369 0.31863 0.1027 0.0
H2002 H 0.88864 0.29481 0.08557 0.0
H2003 H 0.85516 0.25744 0.08362 0.0
H2004 H 0.87538 0.26605 0.09521 0.0
H2005 H 0.8221 0.34847 0.07957 0.0
H2006 H 0.78877 0.3362 0.08742 0.0
H2007 H 0.78799 0.3114 0.07765 0.0
C2008 C 0.72511 0.54429 0.09588 0.0
C2009 C 0.72209 0.5556 0.10497 0.0
C2010 C 0.70594 0.54175 0.08798 0.0
C2011 C 0.68321 0.55081 0.08924 0.0
C2012 C 0.68307 0.56624 0.09797 0.0
C2013 C 0.70258 0.56842 0.10579 0.0
C2014 C 0.70753 0.5258 0.07874 0.0
C2015 C 0.66017 0.57747 0.09946 0.0
C2016 C 0.63784 0.53493 0.06565 0.0
C2017 C 0.61591 0.50332 0.06697 0.0
C2018 C 0.65805 0.55245 0.07331 0.0
C2019 C 0.65619 0.5378 0.0824 0.0
C2020 C 0.63131 0.5072 0.08411 0.0
C2021 C 0.61146 0.49036 0.07637 0.0
C2022 C 0.68332 0.58545 0.07132 0.0
C2023 C 0.62786 0.49077 0.09376 0.0
H2024 H 0.74058 0.53484 0.09519 0.0
H2025 H 0.70028 0.57739 0.1128 0.0
H2026 H 0.68678 0.50213 0.07832 0.0
H2027 H 0.7074 0.53886 0.07216 0.0
H2028 H 0.7287 0.52351 0.0785 0.0
H2029 H 0.66907 0.59678 0.10488 0.0
H2030 H 0.65505 0.58546 0.09247 0.0
H2031 H 0.63801 0.55807 0.10234 0.0
H2032 H 0.64123 0.5452 0.05841 0.0
H2033 H 0.59412 0.46609 0.07746 0.0
H2034 H 0.7046 0.58545 0.0688 0.0
H2035 H 0.68933 0.59999 0.07803 0.0
H2036 H 0.67623 0.59624 0.06547 0.0
H2037 H 0.64701 0.48547 0.09455 0.0
H2038 H 0.60535 0.46858 0.09428 0.0
H2039 H 0.62949 0.50588 0.09999 0.0
C2040 C 0.52339 0.83109 0.94061 0.0
C2041 C 0.52193 0.85477 0.94576 0.0
C2042 C 0.53018 0.83393 0.93058 0.0
C2043 C 0.53513 0.86094 0.92553 0.0
C2044 C 0.53619 0.88603 0.93085 0.0
C2045 C 0.52972 0.88271 0.94097 0.0
C2046 C 0.5293 0.80678 0.92526 0.0
C2047 C 0.54157 0.91528 0.92573 0.0
C2048 C 0.55593 0.86221 0.89859 0.0
C2049 C 0.52615 0.84645 0.8944 0.0
C2050 C 0.55967 0.86893 0.9087 0.0
C2051 C 0.53302 0.85991 0.91464 0.0
C2052 C 0.50317 0.84586 0.91026 0.0
C2053 C 0.50013 0.83916 0.90023 0.0
C2054 C 0.59186 0.88399 0.91311 0.0
C2055 C 0.47411 0.83619 0.91626 0.0
H2056 H 0.51797 0.80967 0.94436 0.0
H2057 H 0.52879 0.90113 0.94496 0.0
H2058 H 0.50769 0.79472 0.92082 0.0
H2059 H 0.54932 0.81496 0.92017 0.0
H2060 H 0.52971 0.78962 0.9304 0.0
H2061 H 0.54802 0.93468 0.93099 0.0
H2062 H 0.56015 0.92271 0.92012 0.0
H2063 H 0.51991 0.91061 0.9219 0.0
H2064 H 0.5761 0.86805 0.89407 0.0
H2065 H 0.47709 0.82752 0.89699 0.0
H2066 H 0.5949 0.86613 0.91706 0.0
H2067 H 0.59512 0.90209 0.91852 0.0
H2068 H 0.61027 0.89471 0.90741 0.0
H2069 H 0.47005 0.81676 0.92121 0.0
H2070 H 0.45313 0.8284 0.9116 0.0
H2071 H 0.47691 0.85578 0.92091 0.0
C2072 C 0.11179 0.63907 0.93391 0.0
C2073 C 0.12456 0.6194 0.93416 0.0
C2074 C 0.11157 0.65403 0.92517 0.0
C2075 C 0.12434 0.64905 0.91653 0.0
C2076 C 0.13447 0.62691 0.91658 0.0
C2077 C 0.13453 0.61244 0.9254 0.0
C2078 C 0.10007 0.67701 0.9254 0.0
C2079 C 0.14776 0.6204 0.9075 0.0
C2080 C 0.12334 0.676 0.89063 0.0
C2081 C 0.15444 0.69978 0.88972 0.0
C2082 C 0.11183 0.66087 0.89967 0.0
C2083 C 0.13193 0.67 0.9079 0.0
C2084 C 0.16209 0.69649 0.90723 0.0
C2085 C 0.173 0.71095 0.89813 0.0
C2086 C 0.07933 0.6332 0.90013 0.0
C2087 C 0.18411 0.70753 0.91586 0.0
H2088 H 0.10394 0.64448 0.94066 0.0
H2089 H 0.14402 0.59694 0.92552 0.0
H2090 H 0.12027 0.70093 0.92608 0.0
H2091 H 0.08762 0.67602 0.91853 0.0
H2092 H 0.08433 0.67275 0.93173 0.0
H2093 H 0.15139 0.6002 0.90849 0.0
H2094 H 0.13209 0.61574 0.90114 0.0
H2095 H 0.17051 0.64115 0.9057 0.0
H2096 H 0.10887 0.66727 0.88414 0.0
H2097 H 0.19695 0.7296 0.89745 0.0
H2098 H 0.06808 0.63227 0.90725 0.0
H2099 H 0.08049 0.6115 0.89942 0.0
H2100 H 0.06453 0.63368 0.89409 0.0
H2101 H 0.17216 0.70885 0.92256 0.0
H2102 H 0.20487 0.73075 0.91453 0.0
H2103 H 0.19215 0.69064 0.9173 0.0
C2104 C 0.28831 0.45966 0.90313 0.0
C2105 C 0.30037 0.45422 0.89455 0.0
C2106 C 0.30304 0.46315 0.91218 0.0
C2107 C 0.33074 0.46155 0.91262 0.0
C2108 C 0.34097 0.45254 0.90419 0.0
C2109 C 0.32552 0.44885 0.89521 0.0
C2110 C 0.29079 0.47194 0.92104 0.0
C2111 C 0.37001 0.44997 0.90438 0.0
C2112 C 0.38518 0.5221 0.93057 0.0
C2113 C 0.37912 0.50453 0.93916 0.0
C2114 C 0.37175 0.50783 0.92162 0.0
C2115 C 0.3515 0.47517 0.92128 0.0
C2116 C 0.34772 0.45699 0.92972 0.0
C2117 C 0.36169 0.47193 0.9386 0.0
C2118 C 0.37703 0.52813 0.91275 0.0
C2119 C 0.32676 0.42212 0.92964 0.0
H2120 H 0.26864 0.46348 0.90265 0.0
H2121 H 0.33493 0.44465 0.88858 0.0
H2122 H 0.29049 0.45843 0.92756 0.0
H2123 H 0.30636 0.49698 0.92271 0.0
H2124 H 0.26691 0.46792 0.91982 0.0
H2125 H 0.3705 0.43569 0.89818 0.0
H2126 H 0.39072 0.47359 0.90377 0.0
H2127 H 0.37195 0.43964 0.91137 0.0
H2128 H 0.39899 0.54728 0.93095 0.0
H2129 H 0.35697 0.4582 0.94522 0.0
H2130 H 0.35541 0.52871 0.91109 0.0
H2131 H 0.38267 0.51848 0.90624 0.0
H2132 H 0.39618 0.55241 0.91392 0.0
H2133 H 0.30222 0.41647 0.93045 0.0
H2134 H 0.33226 0.41093 0.93578 0.0
H2135 H 0.32868 0.41192 0.92262 0.0
C2136 C 0.13036 0.48718 0.43494 0.0
C2137 C 0.1367 0.51807 0.43537 0.0
C2138 C 0.13545 0.47507 0.42626 0.0
C2139 C 0.1466 0.49422 0.41783 0.0
C2140 C 0.15005 0.52435 0.418 0.0
C2141 C 0.14538 0.53603 0.42681 0.0
C2142 C 0.13154 0.44288 0.42639 0.0
C2143 C 0.16109 0.54526 0.4091 0.0
C2144 C 0.20455 0.49293 0.40014 0.0
C2145 C 0.18622 0.47995 0.39177 0.0
C2146 C 0.19131 0.49528 0.40895 0.0
C2147 C 0.15905 0.48504 0.40932 0.0
C2148 C 0.14005 0.46983 0.40109 0.0
C2149 C 0.15387 0.46721 0.39241 0.0
C2150 C 0.21233 0.51089 0.41763 0.0
C2151 C 0.10563 0.4587 0.40116 0.0
H2152 H 0.12379 0.47324 0.44156 0.0
H2153 H 0.15005 0.55984 0.42711 0.0
H2154 H 0.12049 0.43013 0.41952 0.0
H2155 H 0.15479 0.44487 0.42691 0.0
H2156 H 0.11732 0.42899 0.43273 0.0
H2157 H 0.15851 0.56611 0.41004 0.0
H2158 H 0.18604 0.5532 0.40777 0.0
H2159 H 0.14793 0.53238 0.40249 0.0
H2160 H 0.22954 0.5026 0.39967 0.0
H2161 H 0.13965 0.45735 0.38591 0.0
H2162 H 0.20203 0.49715 0.42441 0.0
H2163 H 0.21489 0.53422 0.41877 0.0
H2164 H 0.23588 0.51385 0.41658 0.0
H2165 H 0.09484 0.44697 0.40818 0.0
H2166 H 0.09331 0.44243 0.39501 0.0
H2167 H 0.10215 0.47905 0.40044 0.0
C2168 C 0.54212 0.69791 0.39533 0.0
C2169 C 0.51396 0.6808 0.39025 0.0
C2170 C 0.54413 0.69267 0.40538 0.0
C2171 C 0.51743 0.66965 0.41038 0.0
C2172 C 0.48954 0.65116 0.40512 0.0
C2173 C 0.48813 0.65706 0.39515 0.0
C2174 C 0.57425 0.71285 0.41076 0.0
C2175 C 0.46059 0.62618 0.41012 0.0
C2176 C 0.51734 0.64026 0.43617 0.0
C2177 C 0.50533 0.65601 0.44154 0.0
C2178 C 0.5231 0.64559 0.42604 0.0
C2179 C 0.51694 0.66734 0.42127 0.0
C2180 C 0.50652 0.68451 0.4268 0.0
C2181 C 0.50072 0.67853 0.43683 0.0
C2182 C 0.5342 0.62684 0.42038 0.0
C2183 C 0.49989 0.70811 0.42204 0.0
H2184 H 0.5622 0.71616 0.39156 0.0
H2185 H 0.46641 0.64337 0.39123 0.0
H2186 H 0.57155 0.72941 0.41556 0.0
H2187 H 0.5802 0.69847 0.41553 0.0
H2188 H 0.5939 0.72642 0.40564 0.0
H2189 H 0.44186 0.61178 0.4048 0.0
H2190 H 0.46606 0.61064 0.41448 0.0
H2191 H 0.45156 0.63715 0.41526 0.0
H2192 H 0.52109 0.62295 0.43979 0.0
H2193 H 0.49194 0.69119 0.44097 0.0
H2194 H 0.55358 0.64209 0.4154 0.0
H2195 H 0.51493 0.60945 0.41575 0.0
H2196 H 0.5421 0.61431 0.4253 0.0
H2197 H 0.51996 0.72461 0.4175 0.0
H2198 H 0.49489 0.72163 0.42752 0.0
H2199 H 0.47947 0.69601 0.4171 0.0
C2200 C 0.37502 0.83895 0.42967 0.0
C2201 C 0.37014 0.85156 0.43822 0.0
C2202 C 0.35765 0.83529 0.42117 0.0
C2203 C 0.33434 0.84385 0.42129 0.0
C2204 C 0.33093 0.85876 0.42967 0.0
C2205 C 0.34912 0.86269 0.43804 0.0
C2206 C 0.36264 0.82004 0.41231 0.0
C2207 C 0.30634 0.86816 0.43012 0.0
C2208 C 0.29828 0.83894 0.39633 0.0
C2209 C 0.27462 0.80761 0.39619 0.0
C2210 C 0.31686 0.85197 0.40471 0.0
C2211 C 0.31123 0.8333 0.41316 0.0
C2212 C 0.28549 0.80257 0.41332 0.0
C2213 C 0.26769 0.79 0.40481 0.0
C2214 C 0.34406 0.88477 0.40421 0.0
C2215 C 0.27815 0.78208 0.42226 0.0
H2216 H 0.39141 0.8305 0.42978 0.0
H2217 H 0.3451 0.87225 0.44467 0.0
H2218 H 0.34251 0.79615 0.41145 0.0
H2219 H 0.3642 0.83321 0.40555 0.0
H2220 H 0.38413 0.81843 0.41294 0.0
H2221 H 0.3104 0.88438 0.43629 0.0
H2222 H 0.3055 0.87935 0.42317 0.0
H2223 H 0.28319 0.84707 0.43115 0.0
H2224 H 0.30384 0.85264 0.38967 0.0
H2225 H 0.24926 0.76585 0.40475 0.0
H2226 H 0.36588 0.88397 0.40329 0.0
H2227 H 0.34621 0.8976 0.4111 0.0
H2228 H 0.34194 0.89794 0.39795 0.0
H2229 H 0.29633 0.77549 0.4232 0.0
H2230 H 0.25518 0.76043 0.42166 0.0
H2231 H 0.2782 0.79482 0.42896 0.0
C2232 C 0.28037 0.1992 0.17151 0.0
C2233 C 0.26861 0.1857 0.18068 0.0
C2234 C 0.30844 0.20245 0.16801 0.0
C2235 C 0.32451 0.19106 0.1737 0.0
C2236 C 0.31327 0.1784 0.18311 0.0
C2237 C 0.28565 0.17627 0.18654 0.0
C2238 C 0.32031 0.21703 0.15807 0.0
C2239 C 0.32943 0.16548 0.18931 0.0
C2240 C 0.37546 0.16754 0.15955 0.0
C2241 C 0.4052 0.19266 0.16147 0.0
C2242 C 0.34898 0.16632 0.16371 0.0
C2243 C 0.3524 0.19129 0.16966 0.0
C2244 C 0.38241 0.21662 0.17165 0.0
C2245 C 0.40848 0.21678 0.16763 0.0
C2246 C 0.31733 0.13853 0.16165 0.0
C2247 C 0.38692 0.24399 0.17775 0.0
H2248 H 0.26723 0.20651 0.16698 0.0
H2249 H 0.27642 0.16544 0.19359 0.0
H2250 H 0.34515 0.23545 0.15857 0.0
H2251 H 0.31887 0.19915 0.15287 0.0
H2252 H 0.30677 0.22739 0.15501 0.0
H2253 H 0.31847 0.15771 0.19664 0.0
H2254 H 0.32868 0.14533 0.18551 0.0
H2255 H 0.35429 0.18321 0.19033 0.0
H2256 H 0.37292 0.14889 0.15479 0.0
H2257 H 0.43144 0.23649 0.16903 0.0
H2258 H 0.30295 0.14597 0.15749 0.0
H2259 H 0.30503 0.12819 0.16865 0.0
H2260 H 0.31884 0.12027 0.15737 0.0
H2261 H 0.37483 0.2552 0.17423 0.0
H2262 H 0.41188 0.26175 0.17868 0.0
H2263 H 0.37642 0.23602 0.18512 0.0
C2264 C 0.84667 0.1039 0.16135 0.0
C2265 C 0.82727 0.08786 0.16929 0.0
C2266 C 0.84763 0.13059 0.15751 0.0
C2267 C 0.82802 0.14083 0.16154 0.0
C2268 C 0.80659 0.12324 0.16903 0.0
C2269 C 0.80686 0.09721 0.17295 0.0
C2270 C 0.87133 0.14909 0.1497 0.0
C2271 C 0.78451 0.13283 0.17327 0.0
C2272 C 0.85175 0.22618 0.16233 0.0
C2273 C 0.83433 0.22823 0.1546 0.0
C2274 C 0.85126 0.1982 0.1643 0.0
C2275 C 0.83192 0.17143 0.15862 0.0
C2276 C 0.81514 0.1737 0.15058 0.0
C2277 C 0.81696 0.20231 0.14856 0.0
C2278 C 0.8704 0.19698 0.17272 0.0
C2279 C 0.79366 0.14553 0.14453 0.0
H2280 H 0.86276 0.09694 0.15857 0.0
H2281 H 0.79179 0.08476 0.17908 0.0
H2282 H 0.86044 0.15516 0.14363 0.0
H2283 H 0.88978 0.17127 0.1529 0.0
H2284 H 0.88244 0.13628 0.14661 0.0
H2285 H 0.76661 0.1145 0.17806 0.0
H2286 H 0.79778 0.15434 0.17768 0.0
H2287 H 0.77261 0.1381 0.16731 0.0
H2288 H 0.86512 0.24627 0.16699 0.0
H2289 H 0.80304 0.2038 0.14268 0.0
H2290 H 0.884 0.18591 0.17034 0.0
H2291 H 0.85476 0.18259 0.17873 0.0
H2292 H 0.88674 0.2205 0.17568 0.0
H2293 H 0.80574 0.13299 0.14208 0.0
H2294 H 0.78462 0.15179 0.13798 0.0
H2295 H 0.77359 0.12914 0.14911 0.0
C2296 C 0.91288 0.71651 0.1743 0.0
C2297 C 0.91148 0.73227 0.18262 0.0
C2298 C 0.88694 0.68837 0.17137 0.0
C2299 C 0.85874 0.67649 0.1767 0.0
C2300 C 0.85753 0.69186 0.18528 0.0
C2301 C 0.88413 0.71936 0.18823 0.0
C2302 C 0.8894 0.67198 0.16237 0.0
C2303 C 0.82769 0.68037 0.19101 0.0
C2304 C 0.78743 0.62565 0.16131 0.0
C2305 C 0.78055 0.59585 0.16426 0.0
C2306 C 0.81179 0.65224 0.16573 0.0
C2307 C 0.83023 0.64876 0.17301 0.0
C2308 C 0.82257 0.61871 0.17628 0.0
C2309 C 0.79748 0.5926 0.17196 0.0
C2310 C 0.81863 0.684 0.16232 0.0
C2311 C 0.84211 0.61404 0.18384 0.0
H2312 H 0.93403 0.72654 0.16997 0.0
H2313 H 0.88286 0.73183 0.19458 0.0
H2314 H 0.88061 0.64702 0.16399 0.0
H2315 H 0.87474 0.67308 0.15642 0.0
H2316 H 0.91371 0.68253 0.15966 0.0
H2317 H 0.8312 0.6938 0.19787 0.0
H2318 H 0.81033 0.6824 0.18641 0.0
H2319 H 0.81762 0.65542 0.1929 0.0
H2320 H 0.77432 0.62818 0.15537 0.0
H2321 H 0.79248 0.56956 0.17418 0.0
H2322 H 0.8409 0.69541 0.15819 0.0
H2323 H 0.82134 0.69903 0.1687 0.0
H2324 H 0.79999 0.68271 0.15748 0.0
H2325 H 0.86555 0.62167 0.18076 0.0
H2326 H 0.8316 0.58932 0.18614 0.0
H2327 H 0.84539 0.62847 0.19043 0.0
C2328 C 0.19002 0.38322 0.35332 0.0
C2329 C 0.17337 0.39332 0.34756 0.0
C2330 C 0.18937 0.35524 0.3512 0.0
C2331 C 0.17083 0.33662 0.34333 0.0
C2332 C 0.15209 0.34561 0.33798 0.0
C2333 C 0.15404 0.37422 0.34005 0.0
C2334 C 0.21025 0.34685 0.35689 0.0
C2335 C 0.13114 0.32576 0.32977 0.0
C2336 C 0.19115 0.28482 0.32843 0.0
C2337 C 0.17034 0.25545 0.33225 0.0
C2338 C 0.19296 0.31175 0.33241 0.0
C2339 C 0.17266 0.30896 0.34016 0.0
C2340 C 0.15251 0.27945 0.3443 0.0
C2341 C 0.15195 0.25305 0.34039 0.0
C2342 C 0.21555 0.34301 0.32803 0.0
C2343 C 0.12997 0.27544 0.35238 0.0
H2344 H 0.20537 0.39828 0.35903 0.0
H2345 H 0.1412 0.38211 0.3356 0.0
H2346 H 0.1972 0.32226 0.35935 0.0
H2347 H 0.22935 0.34928 0.35206 0.0
H2348 H 0.22071 0.36202 0.36341 0.0
H2349 H 0.11536 0.33413 0.32717 0.0
H2350 H 0.14551 0.32608 0.32349 0.0
H2351 H 0.11683 0.30121 0.3322 0.0
H2352 H 0.20539 0.28666 0.32215 0.0
H2353 H 0.13551 0.23027 0.34328 0.0
H2354 H 0.22886 0.35999 0.33391 0.0
H2355 H 0.20253 0.35219 0.32393 0.0
H2356 H 0.23225 0.34157 0.32292 0.0
H2357 H 0.14209 0.29219 0.35842 0.0
H2358 H 0.1181 0.25148 0.35545 0.0
H2359 H 0.11201 0.28038 0.34944 0.0
C2360 C 0.6225 0.78546 0.33566 0.0
C2361 C 0.60188 0.78193 0.34319 0.0
C2362 C 0.64961 0.81414 0.33409 0.0
C2363 C 0.65528 0.84014 0.33992 0.0
C2364 C 0.63476 0.83645 0.34768 0.0
C2365 C 0.60851 0.80712 0.34934 0.0
C2366 C 0.67159 0.81684 0.32599 0.0
C2367 C 0.63945 0.86379 0.35382 0.0
C2368 C 0.73711 0.90914 0.33865 0.0
C2369 C 0.73475 0.92535 0.33057 0.0
C2370 C 0.7111 0.8819 0.34206 0.0
C2371 C 0.68191 0.87135 0.3375 0.0
C2372 C 0.67893 0.88917 0.3299 0.0
C2373 C 0.70558 0.91568 0.32637 0.0
C2374 C 0.71547 0.86311 0.34997 0.0
C2375 C 0.64791 0.87932 0.32512 0.0
H2376 H 0.61714 0.76589 0.3309 0.0
H2377 H 0.59207 0.80438 0.35504 0.0
H2378 H 0.67079 0.8315 0.31999 0.0
H2379 H 0.69588 0.82833 0.32876 0.0
H2380 H 0.66562 0.79379 0.3229 0.0
H2381 H 0.62283 0.85655 0.36006 0.0
H2382 H 0.6635 0.87662 0.35675 0.0
H2383 H 0.63616 0.88028 0.34916 0.0
H2384 H 0.75976 0.91634 0.34182 0.0
H2385 H 0.70378 0.92825 0.32014 0.0
H2386 H 0.71303 0.84149 0.34671 0.0
H2387 H 0.69735 0.85603 0.35571 0.0
H2388 H 0.73873 0.87616 0.3535 0.0
H2389 H 0.64107 0.85849 0.32048 0.0
H2390 H 0.64867 0.89798 0.32042 0.0
H2391 H 0.62956 0.87285 0.33076 0.0
C2392 C 0.08862 0.84905 0.3434 0.0
C2393 C 0.07135 0.82825 0.33588 0.0
C2394 C 0.11535 0.85 0.3472 0.0
C2395 C 0.12435 0.82892 0.34361 0.0
C2396 C 0.10595 0.80666 0.3364 0.0
C2397 C 0.07996 0.80701 0.33247 0.0
C2398 C 0.13486 0.87467 0.35465 0.0
C2399 C 0.11422 0.78309 0.33262 0.0
C2400 C 0.20765 0.84538 0.34402 0.0
C2401 C 0.20702 0.82752 0.35206 0.0
C2402 C 0.1814 0.84769 0.34156 0.0
C2403 C 0.15364 0.8308 0.34707 0.0
C2404 C 0.15339 0.81394 0.35546 0.0
C2405 C 0.1803 0.81294 0.35795 0.0
C2406 C 0.1829 0.86692 0.33277 0.0
C2407 C 0.12409 0.79501 0.36138 0.0
H2408 H 0.08232 0.86592 0.34592 0.0
H2409 H 0.06664 0.79099 0.32663 0.0
H2410 H 0.13918 0.864 0.36117 0.0
H2411 H 0.15787 0.89105 0.35141 0.0
H2412 H 0.1237 0.88816 0.3571 0.0
H2413 H 0.09592 0.76556 0.32774 0.0
H2414 H 0.13638 0.79512 0.32846 0.0
H2415 H 0.1178 0.77078 0.33884 0.0
H2416 H 0.2283 0.85665 0.33946 0.0
H2417 H 0.17957 0.79872 0.3641 0.0
H2418 H 0.17303 0.88205 0.33461 0.0
H2419 H 0.16873 0.85132 0.32672 0.0
H2420 H 0.20712 0.88178 0.33009 0.0
H2421 H 0.11349 0.8093 0.36343 0.0
H2422 H 0.12847 0.78542 0.36817 0.0
H2423 H 0.10678 0.77533 0.35686 0.0
C2424 C 0.70417 0.82136 0.82602 0.0
C2425 C 0.72063 0.83812 0.81772 0.0
C2426 C 0.67611 0.81979 0.8287 0.0
C2427 C 0.665 0.83638 0.82314 0.0
C2428 C 0.68107 0.85255 0.81458 0.0
C2429 C 0.70847 0.85279 0.81189 0.0
C2430 C 0.65896 0.80134 0.83767 0.0
C2431 C 0.67043 0.87117 0.80861 0.0
C2432 C 0.5815 0.8173 0.82678 0.0
C2433 C 0.58486 0.8386 0.83412 0.0
C2434 C 0.60741 0.81642 0.82308 0.0
C2435 C 0.63745 0.83805 0.82657 0.0
C2436 C 0.64111 0.86065 0.83362 0.0
C2437 C 0.61465 0.86028 0.83745 0.0
C2438 C 0.60248 0.79141 0.81579 0.0
C2439 C 0.6729 0.88475 0.83728 0.0
H2440 H 0.71362 0.81004 0.83053 0.0
H2441 H 0.72146 0.8662 0.80555 0.0
H2442 H 0.66028 0.81742 0.84355 0.0
H2443 H 0.63397 0.78569 0.83595 0.0
H2444 H 0.6688 0.78709 0.84053 0.0
H2445 H 0.68453 0.88099 0.80186 0.0
H2446 H 0.64565 0.85651 0.80649 0.0
H2447 H 0.67224 0.89065 0.81312 0.0
H2448 H 0.5584 0.80016 0.8243 0.0
H2449 H 0.61723 0.87673 0.84312 0.0
H2450 H 0.61008 0.77582 0.81908 0.0
H2451 H 0.61684 0.80191 0.80915 0.0
H2452 H 0.57772 0.7771 0.81354 0.0
H2453 H 0.68344 0.87321 0.8415 0.0
H2454 H 0.67192 0.90236 0.84207 0.0
H2455 H 0.68855 0.8969 0.831 0.0
C2456 C 0.17716 0.76234 0.82504 0.0
C2457 C 0.15814 0.74627 0.83305 0.0
C2458 C 0.17786 0.78897 0.82128 0.0
C2459 C 0.15825 0.79904 0.82542 0.0
C2460 C 0.13745 0.78162 0.83307 0.0
C2461 C 0.1381 0.75574 0.83694 0.0
C2462 C 0.20102 0.80742 0.81333 0.0
C2463 C 0.11537 0.79102 0.83743 0.0
C2464 C 0.1789 0.88364 0.82514 0.0
C2465 C 0.16049 0.88382 0.8174 0.0
C2466 C 0.17974 0.85652 0.82748 0.0
C2467 C 0.16072 0.82875 0.82218 0.0
C2468 C 0.14284 0.82913 0.81416 0.0
C2469 C 0.14338 0.85688 0.81175 0.0
C2470 C 0.20005 0.85729 0.83584 0.0
C2471 C 0.12158 0.79983 0.80852 0.0
H2472 H 0.19309 0.75534 0.82213 0.0
H2473 H 0.12345 0.74331 0.84314 0.0
H2474 H 0.18935 0.8121 0.80716 0.0
H2475 H 0.21882 0.83031 0.81631 0.0
H2476 H 0.21302 0.79526 0.81042 0.0
H2477 H 0.09833 0.77307 0.84251 0.0
H2478 H 0.12874 0.81313 0.84155 0.0
H2479 H 0.10243 0.79515 0.83153 0.0
H2480 H 0.19207 0.9045 0.82951 0.0
H2481 H 0.12868 0.85688 0.80587 0.0
H2482 H 0.21411 0.8466 0.83357 0.0
H2483 H 0.18524 0.84348 0.84208 0.0
H2484 H 0.21605 0.88138 0.83844 0.0
H2485 H 0.13446 0.7882 0.80598 0.0
H2486 H 0.1109 0.80452 0.80206 0.0
H2487 H 0.10266 0.78326 0.81343 0.0
C2488 C 0.24366 0.38046 0.84066 0.0
C2489 C 0.25386 0.41043 0.83703 0.0
C2490 C 0.21822 0.35445 0.83636 0.0
C2491 C 0.202 0.3588 0.82852 0.0
C2492 C 0.21291 0.38893 0.82463 0.0
C2493 C 0.23906 0.41432 0.82883 0.0
C2494 C 0.20795 0.32248 0.84047 0.0
C2495 C 0.19576 0.39466 0.81648 0.0
C2496 C 0.14532 0.28835 0.81368 0.0
C2497 C 0.11753 0.27846 0.81888 0.0
C2498 C 0.17302 0.3147 0.81666 0.0
C2499 C 0.17257 0.33212 0.82482 0.0
C2500 C 0.14411 0.32332 0.82969 0.0
C2501 C 0.11699 0.29616 0.82678 0.0
C2502 C 0.20301 0.32276 0.81147 0.0
C2503 C 0.1425 0.34201 0.83819 0.0
H2504 H 0.25506 0.37745 0.847 0.0
H2505 H 0.24658 0.43755 0.8261 0.0
H2506 H 0.18538 0.31361 0.84432 0.0
H2507 H 0.20437 0.30594 0.83445 0.0
H2508 H 0.22515 0.32266 0.84572 0.0
H2509 H 0.20846 0.41912 0.81384 0.0
H2510 H 0.19192 0.37898 0.81019 0.0
H2511 H 0.17249 0.38943 0.81915 0.0
H2512 H 0.14588 0.2743 0.80768 0.0
H2513 H 0.0955 0.28841 0.83081 0.0
H2514 H 0.21868 0.31971 0.81659 0.0
H2515 H 0.21531 0.34749 0.80914 0.0
H2516 H 0.1991 0.30791 0.80492 0.0
H2517 H 0.1554 0.34009 0.84454 0.0
H2518 H 0.11815 0.33392 0.8405 0.0
H2519 H 0.15372 0.36701 0.83619 0.0
C2520 C 0.85148 0.60801 0.66375 0.0
C2521 C 0.82995 0.57861 0.66739 0.0
C2522 C 0.85148 0.6348 0.66708 0.0
C2523 C 0.82863 0.63184 0.67392 0.0
C2524 C 0.80728 0.60223 0.67778 0.0
C2525 C 0.80855 0.57602 0.67458 0.0
C2526 C 0.87533 0.66615 0.66305 0.0
C2527 C 0.78201 0.59798 0.68485 0.0
C2528 C 0.84166 0.70504 0.68692 0.0
C2529 C 0.82693 0.71569 0.6805 0.0
C2530 C 0.84191 0.67738 0.68499 0.0
C2531 C 0.82615 0.65954 0.67663 0.0
C2532 C 0.80938 0.66912 0.67052 0.0
C2533 C 0.81049 0.69746 0.67242 0.0
C2534 C 0.86075 0.66841 0.69153 0.0
C2535 C 0.79131 0.6501 0.66174 0.0
H2536 H 0.86801 0.61 0.65819 0.0
H2537 H 0.79153 0.5532 0.6773 0.0
H2538 H 0.86365 0.67555 0.65837 0.0
H2539 H 0.88693 0.68292 0.66913 0.0
H2540 H 0.89339 0.66482 0.6586 0.0
H2541 H 0.76836 0.57369 0.68759 0.0
H2542 H 0.79212 0.61383 0.69122 0.0
H2543 H 0.76586 0.60411 0.68114 0.0
H2544 H 0.85484 0.71942 0.69308 0.0
H2545 H 0.79914 0.70576 0.66746 0.0
H2546 H 0.88079 0.67027 0.68733 0.0
H2547 H 0.84655 0.64388 0.69395 0.0
H2548 H 0.86979 0.68354 0.69811 0.0
H2549 H 0.80768 0.65079 0.65607 0.0
H2550 H 0.77668 0.65887 0.65844 0.0
H2551 H 0.77608 0.62538 0.66386 0.0
C2552 C 0.40776 0.23008 0.67123 0.0
C2553 C 0.4038 0.24542 0.6632 0.0
C2554 C 0.38217 0.20468 0.67566 0.0
C2555 C 0.35187 0.19511 0.67215 0.0
C2556 C 0.34761 0.21191 0.66448 0.0
C2557 C 0.37373 0.23654 0.65995 0.0
C2558 C 0.38776 0.18685 0.68362 0.0
C2559 C 0.31553 0.20307 0.66079 0.0
C2560 C 0.28611 0.11157 0.67395 0.0
C2561 C 0.26939 0.11316 0.68197 0.0
C2562 C 0.3141 0.13773 0.67103 0.0
C2563 C 0.32478 0.16635 0.67603 0.0
C2564 C 0.30852 0.16772 0.68437 0.0
C2565 C 0.28125 0.14089 0.68734 0.0
C2566 C 0.33148 0.13506 0.66234 0.0
C2567 C 0.31866 0.19796 0.68972 0.0
H2568 H 0.43106 0.2366 0.67366 0.0
H2569 H 0.37068 0.2484 0.65374 0.0
H2570 H 0.37286 0.18359 0.69008 0.0
H2571 H 0.38136 0.16334 0.68086 0.0
H2572 H 0.41246 0.19872 0.68603 0.0
H2573 H 0.31603 0.22062 0.65561 0.0
H2574 H 0.3052 0.18032 0.65696 0.0
H2575 H 0.3 0.20042 0.66702 0.0
H2576 H 0.27685 0.09012 0.66979 0.0
H2577 H 0.26798 0.14227 0.69345 0.0
H2578 H 0.35655 0.1453 0.66411 0.0
H2579 H 0.32969 0.1483 0.65606 0.0
H2580 H 0.32214 0.1105 0.66001 0.0
H2581 H 0.3437 0.20936 0.69166 0.0
H2582 H 0.30502 0.19457 0.69653 0.0
H2583 H 0.31562 0.21416 0.68485 0.0
C2584 C 0.75388 0.1689 0.67581 0.0
C2585 C 0.73784 0.14938 0.66788 0.0
C2586 C 0.78119 0.17073 0.67944 0.0
C2587 C 0.792 0.15178 0.67525 0.0
C2588 C 0.77438 0.13013 0.66781 0.0
C2589 C 0.7478 0.12965 0.66406 0.0
C2590 C 0.79974 0.19474 0.68717 0.0
C2591 C 0.78453 0.10866 0.66342 0.0
C2592 C 0.87756 0.17698 0.67355 0.0
C2593 C 0.88071 0.15988 0.68116 0.0
C2594 C 0.84923 0.17617 0.67198 0.0
C2595 C 0.82317 0.15666 0.6779 0.0
C2596 C 0.82663 0.14026 0.68585 0.0
C2597 C 0.85562 0.14253 0.68749 0.0
C2598 C 0.84681 0.19501 0.66368 0.0
C2599 C 0.79924 0.11852 0.69213 0.0
H2600 H 0.74646 0.18455 0.67868 0.0
H2601 H 0.73538 0.11458 0.65793 0.0
H2602 H 0.80705 0.18446 0.6931 0.0
H2603 H 0.82122 0.21377 0.68381 0.0
H2604 H 0.78641 0.20499 0.69048 0.0
H2605 H 0.7661 0.09034 0.65876 0.0
H2606 H 0.80555 0.12232 0.65884 0.0
H2607 H 0.79079 0.09728 0.6693 0.0
H2608 H 0.89702 0.19027 0.66865 0.0
H2609 H 0.85799 0.12881 0.69326 0.0
H2610 H 0.8352 0.20795 0.66622 0.0
H2611 H 0.8324 0.1792 0.6577 0.0
H2612 H 0.86998 0.21191 0.66062 0.0
H2613 H 0.78624 0.13004 0.69466 0.0
H2614 H 0.80648 0.1102 0.69864 0.0
H2615 H 0.78292 0.098 0.6877 0.0
C2616 C 0.03798 0.50075 0.47442 0.0
C2617 C 0.0542 0.49215 0.48096 0.0
C2618 C 0.00899 0.49722 0.47696 0.0
C2619 C 0.99572 0.48416 0.48616 0.0
C2620 C 0.01074 0.47293 0.49241 0.0
C2621 C 0.04002 0.47737 0.48978 0.0
C2622 C 0.99384 0.50973 0.47014 0.0
C2623 C 0.99682 0.45798 0.50215 0.0
C2624 C 0.94473 0.50895 0.4996 0.0
C2625 C 0.915 0.48355 0.49789 0.0
C2626 C 0.97114 0.51001 0.49545 0.0
C2627 C 0.96768 0.48473 0.48966 0.0
C2628 C 0.93763 0.45949 0.48767 0.0
C2629 C 0.9116 0.45935 0.49173 0.0
C2630 C 0.00284 0.53771 0.49754 0.0
C2631 C 0.93305 0.43194 0.48165 0.0
H2632 H 0.04891 0.51238 0.46762 0.0
H2633 H 0.05243 0.47055 0.49483 0.0
H2634 H 0.96876 0.49258 0.46918 0.0
H2635 H 0.99549 0.53103 0.47338 0.0
H2636 H 0.00512 0.51571 0.46281 0.0
H2637 H 0.00942 0.44712 0.50556 0.0
H2638 H 0.99772 0.47584 0.50726 0.0
H2639 H 0.97199 0.43992 0.50125 0.0
H2640 H 0.94743 0.52773 0.50432 0.0
H2641 H 0.88865 0.4395 0.49044 0.0
H2642 H 0.01576 0.54734 0.49059 0.0
H2643 H 0.0166 0.53031 0.50207 0.0
H2644 H 0.00134 0.55649 0.50151 0.0
H2645 H 0.94561 0.43979 0.47457 0.0
H2646 H 0.90808 0.41536 0.48013 0.0
H2647 H 0.94294 0.41936 0.48564 0.0
C2648 C 0.46769 0.42659 0.51007 0.0
C2649 C 0.48637 0.41614 0.50572 0.0
C2650 C 0.46699 0.45258 0.50631 0.0
C2651 C 0.48649 0.46915 0.4983 0.0
C2652 C 0.50424 0.45778 0.4936 0.0
C2653 C 0.50348 0.43102 0.49727 0.0
C2654 C 0.44672 0.46328 0.51124 0.0
C2655 C 0.5261 0.47529 0.48526 0.0
C2656 C 0.47627 0.53157 0.48559 0.0
C2657 C 0.49616 0.55789 0.49113 0.0
C2658 C 0.47284 0.50239 0.4878 0.0
C2659 C 0.49068 0.49994 0.49549 0.0
C2660 C 0.51212 0.52693 0.50073 0.0
C2661 C 0.51402 0.55551 0.49864 0.0
C2662 C 0.44895 0.47401 0.4823 0.0
C2663 C 0.53247 0.5255 0.50871 0.0
H2664 H 0.45448 0.41509 0.51661 0.0
H2665 H 0.51834 0.42328 0.49397 0.0
H2666 H 0.46148 0.4847 0.51554 0.0
H2667 H 0.43404 0.46907 0.50569 0.0
H2668 H 0.42952 0.44533 0.51629 0.0
H2669 H 0.53593 0.46179 0.48181 0.0
H2670 H 0.51406 0.48126 0.47955 0.0
H2671 H 0.54562 0.4975 0.48808 0.0
H2672 H 0.46195 0.53346 0.47992 0.0
H2673 H 0.52919 0.57596 0.50294 0.0
H2674 H 0.43029 0.4583 0.48743 0.0
H2675 H 0.45962 0.46076 0.47929 0.0
H2676 H 0.43817 0.48013 0.47619 0.0
H2677 H 0.51786 0.51191 0.51502 0.0
H2678 H 0.55003 0.549 0.51137 0.0
H2679 H 0.54478 0.51344 0.506 0.0
C2680 C 0.55988 0.07693 0.49654 0.0
C2681 C 0.57471 0.07218 0.50458 0.0
C2682 C 0.53542 0.05172 0.49164 0.0
C2683 C 0.52623 0.02107 0.49469 0.0
C2684 C 0.54274 0.01612 0.5023 0.0
C2685 C 0.5665 0.04179 0.50727 0.0
C2686 C 0.51799 0.05799 0.48372 0.0
C2687 C 0.53426 0.9837 0.50552 0.0
C2688 C 0.44307 0.95498 0.49253 0.0
C2689 C 0.44501 0.93873 0.48443 0.0
C2690 C 0.46895 0.98298 0.49557 0.0
C2691 C 0.49766 0.99427 0.49057 0.0
C2692 C 0.49933 0.97867 0.4821 0.0
C2693 C 0.47276 0.95125 0.47904 0.0
C2694 C 0.46596 -0.00042 0.50442 0.0
C2695 C 0.52964 0.98957 0.47672 0.0
H2696 H 0.56593 0.1004 0.49448 0.0
H2697 H 0.578 0.03808 0.51346 0.0
H2698 H 0.51483 0.04351 0.47715 0.0
H2699 H 0.49445 0.0516 0.48644 0.0
H2700 H 0.5301 0.08287 0.48148 0.0
H2701 H 0.55174 0.98382 0.51065 0.0
H2702 H 0.51134 0.97256 0.50927 0.0
H2703 H 0.53213 0.96911 0.49907 0.0
H2704 H 0.42159 0.94523 0.49669 0.0
H2705 H 0.47441 0.93837 0.47286 0.0
H2706 H 0.47598 0.02476 0.50285 0.0
H2707 H 0.47922 0.99748 0.51064 0.0
H2708 H 0.44134 0.98985 0.50674 0.0
H2709 H 0.5412 0.0149 0.4752 0.0
H2710 H 0.52628 0.977 0.46967 0.0
H2711 H 0.54565 0.98561 0.48139 0.0
C2712 C 0.47655 0.03644 0.01015 0.0
C2713 C 0.49478 0.06424 0.00506 0.0
C2714 C 0.47549 0.00883 0.00718 0.0
C2715 C 0.49435 0.00962 0.99924 0.0
C2716 C 0.51211 0.03753 0.99392 0.0
C2717 C 0.51158 0.06438 0.99678 0.0
C2718 C 0.4552 0.97916 0.01276 0.0
C2719 C 0.53342 0.03964 0.98567 0.0
C2720 C 0.51908 0.9487 0.00072 0.0
C2721 C 0.50038 0.92769 0.9935 0.0
C2722 C 0.51836 0.97625 0.00236 0.0
C2723 C 0.49721 0.98189 0.99697 0.0
C2724 C 0.47837 0.96066 0.98962 0.0
C2725 C 0.48067 0.93405 0.98783 0.0
C2726 C 0.53975 -0.00101 0.00998 0.0
C2727 C 0.45469 0.96522 0.98401 0.0
H2728 H 0.46369 0.03646 0.01658 0.0
H2729 H 0.5262 0.0861 0.99296 0.0
H2730 H 0.44159 0.95967 0.0076 0.0
H2731 H 0.47 0.97286 0.01719 0.0
H2732 H 0.43882 0.98148 0.01777 0.0
H2733 H 0.5442 0.06254 0.98189 0.0
H2734 H 0.55228 0.03613 0.98865 0.0
H2735 H 0.52056 0.02105 0.98018 0.0
H2736 H 0.53408 0.94343 0.00513 0.0
H2737 H 0.46572 0.91724 0.9824 0.0
H2738 H 0.52588 -0.00037 0.01626 0.0
H2739 H 0.55254 0.02282 0.00685 0.0
H2740 H 0.55692 0.99269 0.01277 0.0
H2741 H 0.43712 0.96463 0.98918 0.0
H2742 H 0.44248 0.94699 0.97834 0.0
H2743 H 0.46601 0.98832 0.98039 0.0
C2744 C 0.94861 0.4475 0.00142 0.0
C2745 C 0.91929 0.44492 0.00055 0.0
C2746 C 0.97508 0.47292 0.99733 0.0
C2747 C 0.97215 0.49657 0.99246 0.0
C2748 C 0.94256 0.49393 0.99148 0.0
C2749 C 0.91642 0.46796 0.99545 0.0
C2750 C 0.00625 0.4747 0.99835 0.0
C2751 C 0.93863 0.51893 0.98648 0.0
C2752 C 0.04751 0.57376 0.99158 0.0
C2753 C 0.05844 0.57279 0.98218 0.0
C2754 C 0.01845 0.54993 0.99482 0.0
C2755 C 0.0003 0.52433 0.98858 0.0
C2756 C 0.01035 0.52423 0.97887 0.0
C2757 C 0.03921 0.54867 0.97576 0.0
C2758 C 0.00805 0.55126 0.00513 0.0
C2759 C 0.99177 0.49723 0.97202 0.0
H2760 H 0.95089 0.42971 0.00532 0.0
H2761 H 0.89381 0.46623 0.99483 0.0
H2762 H 0.0171 0.47749 0.99103 0.0
H2763 H 0.02217 0.49538 0.00278 0.0
H2764 H 0.00431 0.45365 0.00192 0.0
H2765 H 0.91386 0.51288 0.98607 0.0
H2766 H 0.9519 0.54119 0.99053 0.0
H2767 H 0.94822 0.52294 0.97893 0.0
H2768 H 0.06223 0.59245 0.99655 0.0
H2769 H 0.04759 0.5477 0.9685 0.0
H2770 H 0.00909 0.5333 0.0097 0.0
H2771 H 0.98355 0.5461 0.00514 0.0
H2772 H 0.02288 0.57436 0.00859 0.0
H2773 H 0.99212 0.47634 0.97477 0.0
H2774 H 0.00121 0.50213 0.96444 0.0
H2775 H 0.96709 0.49143 0.9718 0.0
C2776 C 0.43055 0.47373 0.99514 0.0
C2777 C 0.43304 0.49157 0.98688 0.0
C2778 C 0.45625 0.47179 0.9985 0.0
C2779 C 0.4853 0.48905 0.99367 0.0
C2780 C 0.48757 0.50607 0.98509 0.0
C2781 C 0.46121 0.50672 0.9817 0.0
C2782 C 0.45266 0.45243 0.00747 0.0
C2783 C 0.51827 0.52536 0.97989 0.0
C2784 C 0.55344 0.5102 0.01068 0.0
C2785 C 0.5616 0.4879 0.00809 0.0
C2786 C 0.52988 0.51216 0.00559 0.0
C2787 C 0.51352 0.4906 0.99798 0.0
C2788 C 0.52268 0.46902 0.99505 0.0
C2789 C 0.54696 0.46825 1.00006 0.0
C2790 C 0.52146 0.53627 0.00867 0.0
C2791 C 0.50538 0.4452 0.98714 0.0
H2792 H 0.40876 0.46208 0.99915 0.0
H2793 H 0.46331 0.52099 0.97541 0.0
H2794 H 0.46259 0.43708 0.00609 0.0
H2795 H 0.46569 0.46793 0.01369 0.0
H2796 H 0.42791 0.43777 0.00968 0.0
H2797 H 0.5155 0.53484 0.97281 0.0
H2798 H 0.53415 0.54514 0.98465 0.0
H2799 H 0.52967 0.5114 0.97846 0.0
H2800 H 0.56478 0.52544 0.01687 0.0
H2801 H 0.55295 0.45071 0.99809 0.0
H2802 H 0.49841 0.52465 0.01234 0.0
H2803 H 0.51961 0.54867 0.00216 0.0
H2804 H 0.53883 0.55365 0.01382 0.0
H2805 H 0.48162 0.42838 0.98978 0.0
H2806 H 0.51728 0.43207 0.98508 0.0
H2807 H 0.50276 0.4565 0.98048 0.0
loop_
_geom_bond_atom_site_label_1
_geom_bond_atom_site_label_2
_geom_bond_distance
_geom_bond_site_symmetry_2
_ccdc_geom_bond_type
O0 Cd1 2.223 . S
O0 C8 1.315 . S
Cd1 O0 2.223 . S
Cd1 O4 2.297 . S
Cd1 O5 2.439 . S
Cd1 O11 2.240 . S
Cd2 O3 2.240 . S
Cd2 O10 2.223 . S
Cd2 O12 2.297 . S
Cd2 O13 2.439 . S
O3 Cd2 2.240 . S
O3 C8 1.279 . S
O4 Cd1 2.297 . S
O4 C6 1.247 . S
O5 Cd1 2.439 . S
O5 C6 1.208 . S
C6 O4 1.247 . S
C6 O5 1.208 . S
C7 O12 1.247 . S
C7 O13 1.208 . S
C8 O0 1.315 . S
C8 O3 1.279 . S
C9 O10 1.315 . S
C9 O11 1.279 . S
O10 Cd2 2.223 . S
O10 C9 1.315 . S
O11 Cd1 2.240 . S
O11 C9 1.279 . S
O12 Cd2 2.297 . S
O12 C7 1.247 . S
O13 Cd2 2.439 . S
O13 C7 1.208 . S
O14 Cd15 2.223 . S
O14 C22 1.315 . S
Cd15 O14 2.223 . S
Cd15 O18 2.297 . S
Cd15 O19 2.439 . S
Cd15 O25 2.240 1_545 S
Cd16 O17 2.240 . S
Cd16 O24 2.223 1_545 S
Cd16 O26 2.297 1_545 S
Cd16 O27 2.439 . S
O17 Cd16 2.240 . S
O17 C22 1.279 . S
O18 Cd15 2.297 . S
O18 C20 1.247 . S
O19 Cd15 2.439 . S
O19 C20 1.208 . S
C20 O18 1.247 . S
C20 O19 1.208 . S
C21 O26 1.247 . S
C21 O27 1.208 1_565 S
C22 O14 1.315 . S
C22 O17 1.279 . S
C23 O24 1.315 . S
C23 O25 1.279 . S
O24 Cd16 2.223 1_565 S
O24 C23 1.315 . S
O25 Cd15 2.240 1_565 S
O25 C23 1.279 . S
O26 Cd16 2.297 1_565 S
O26 C21 1.247 . S
O27 Cd16 2.439 . S
O27 C21 1.208 1_545 S
O28 Cd29 2.223 . S
O28 C36 1.315 . S
Cd29 O28 2.223 . S
Cd29 O32 2.297 . S
Cd29 O33 2.439 . S
Cd29 O39 2.240 1_655 S
Cd30 O31 2.240 . S
Cd30 O38 2.223 1_655 S
Cd30 O40 2.297 1_655 S
Cd30 O41 2.439 . S
O31 Cd30 2.240 . S
O31 C36 1.279 . S
O32 Cd29 2.297 . S
O32 C34 1.247 . S
O33 Cd29 2.439 . S
O33 C34 1.208 . S
C34 O32 1.247 . S
C34 O33 1.208 . S
C35 O40 1.247 . S
C35 O41 1.208 1_455 S
C36 O28 1.315 . S
C36 O31 1.279 . S
C37 O38 1.315 . S
C37 O39 1.279 . S
O38 Cd30 2.223 1_455 S
O38 C37 1.315 . S
O39 Cd29 2.240 1_455 S
O39 C37 1.279 . S
O40 Cd30 2.297 1_455 S
O40 C35 1.247 . S
O41 Cd30 2.439 . S
O41 C35 1.208 1_655 S
O42 Cd43 2.223 . S
O42 C50 1.315 . S
Cd43 O42 2.223 . S
Cd43 O46 2.297 . S
Cd43 O47 2.439 . S
Cd43 O53 2.240 . S
Cd44 O45 2.240 . S
Cd44 O52 2.223 . S
Cd44 O54 2.297 . S
Cd44 O55 2.439 . S
O45 Cd44 2.240 . S
O45 C50 1.279 . S
O46 Cd43 2.297 . S
O46 C48 1.247 . S
O47 Cd43 2.439 . S
O47 C48 1.208 . S
C48 O46 1.247 . S
C48 O47 1.208 . S
C49 O54 1.247 . S
C49 O55 1.208 . S
C50 O42 1.315 . S
C50 O45 1.279 . S
C51 O52 1.315 . S
C51 O53 1.279 . S
O52 Cd44 2.223 . S
O52 C51 1.315 . S
O53 Cd43 2.240 . S
O53 C51 1.279 . S
O54 Cd44 2.297 . S
O54 C49 1.247 . S
O55 Cd44 2.439 . S
O55 C49 1.208 . S
O56 Cd57 2.223 . S
O56 C64 1.315 . S
Cd57 O56 2.223 . S
Cd57 O60 2.297 . S
Cd57 O61 2.439 . S
Cd57 O67 2.240 1_565 S
Cd58 O59 2.240 . S
Cd58 O66 2.223 1_565 S
Cd58 O68 2.297 1_565 S
Cd58 O69 2.439 . S
O59 Cd58 2.240 . S
O59 C64 1.279 . S
O60 Cd57 2.297 . S
O60 C62 1.247 . S
O61 Cd57 2.439 . S
O61 C62 1.208 . S
C62 O60 1.247 . S
C62 O61 1.208 . S
C63 O68 1.247 . S
C63 O69 1.208 1_545 S
C64 O56 1.315 . S
C64 O59 1.279 . S
C65 O66 1.315 . S
C65 O67 1.279 . S
O66 Cd58 2.223 1_545 S
O66 C65 1.315 . S
O67 Cd57 2.240 1_545 S
O67 C65 1.279 . S
O68 Cd58 2.297 1_545 S
O68 C63 1.247 . S
O69 Cd58 2.439 . S
O69 C63 1.208 1_565 S
O70 Cd71 2.223 . S
O70 C78 1.315 . S
Cd71 O70 2.223 . S
Cd71 O74 2.297 . S
Cd71 O75 2.439 . S
Cd71 O81 2.240 1_455 S
Cd72 O73 2.240 . S
Cd72 O80 2.223 1_455 S
Cd72 O82 2.297 1_455 S
Cd72 O83 2.439 . S
O73 Cd72 2.240 . S
O73 C78 1.279 . S
O74 Cd71 2.297 . S
O74 C76 1.247 . S
O75 Cd71 2.439 . S
O75 C76 1.208 . S
C76 O74 1.247 . S
C76 O75 1.208 . S
C77 O82 1.247 . S
C77 O83 1.208 1_655 S
C78 O70 1.315 . S
C78 O73 1.279 . S
C79 O80 1.315 . S
C79 O81 1.279 . S
O80 Cd72 2.223 1_655 S
O80 C79 1.315 . S
O81 Cd71 2.240 1_655 S
O81 C79 1.279 . S
O82 Cd72 2.297 1_655 S
O82 C77 1.247 . S
O83 Cd72 2.439 . S
O83 C77 1.208 1_455 S
O84 Cd85 2.223 . S
O84 C92 1.315 . S
Cd85 O84 2.223 . S
Cd85 O88 2.297 . S
Cd85 O89 2.439 . S
Cd85 O95 2.240 . S
Cd86 O87 2.240 . S
Cd86 O94 2.223 . S
Cd86 O96 2.297 . S
Cd86 O97 2.439 . S
O87 Cd86 2.240 . S
O87 C92 1.279 . S
O88 Cd85 2.297 . S
O88 C90 1.247 . S
O89 Cd85 2.439 . S
O89 C90 1.208 . S
C90 O88 1.247 . S
C90 O89 1.208 . S
C91 O96 1.247 . S
C91 O97 1.208 . S
C92 O84 1.315 . S
C92 O87 1.279 . S
C93 O94 1.315 . S
C93 O95 1.279 . S
O94 Cd86 2.223 . S
O94 C93 1.315 . S
O95 Cd85 2.240 . S
O95 C93 1.279 . S
O96 Cd86 2.297 . S
O96 C91 1.247 . S
O97 Cd86 2.439 . S
O97 C91 1.208 . S
O98 Cd99 2.223 . S
O98 C106 1.315 . S
Cd99 O98 2.223 . S
Cd99 O102 2.297 . S
Cd99 O103 2.439 . S
Cd99 O109 2.240 1_565 S
Cd100 O101 2.240 . S
Cd100 O108 2.223 1_565 S
Cd100 O110 2.297 1_565 S
Cd100 O111 2.439 . S
O101 Cd100 2.240 . S
O101 C106 1.279 . S
O102 Cd99 2.297 . S
O102 C104 1.247 . S
O103 Cd99 2.439 . S
O103 C104 1.208 . S
C104 O102 1.247 . S
C104 O103 1.208 . S
C105 O110 1.247 . S
C105 O111 1.208 1_545 S
C106 O98 1.315 . S
C106 O101 1.279 . S
C107 O108 1.315 . S
C107 O109 1.279 . S
O108 Cd100 2.223 1_545 S
O108 C107 1.315 . S
O109 Cd99 2.240 1_545 S
O109 C107 1.279 . S
O110 Cd100 2.297 1_545 S
O110 C105 1.247 . S
O111 Cd100 2.439 . S
O111 C105 1.208 1_565 S
O112 Cd113 2.223 . S
O112 C120 1.315 . S
Cd113 O112 2.223 . S
Cd113 O116 2.297 . S
Cd113 O117 2.439 . S
Cd113 O123 2.240 1_455 S
Cd114 O115 2.240 . S
Cd114 O122 2.223 1_455 S
Cd114 O124 2.297 1_455 S
Cd114 O125 2.439 . S
O115 Cd114 2.240 . S
O115 C120 1.279 . S
O116 Cd113 2.297 . S
O116 C118 1.247 . S
O117 Cd113 2.439 . S
O117 C118 1.208 . S
C118 O116 1.247 . S
C118 O117 1.208 . S
C119 O124 1.247 . S
C119 O125 1.208 1_655 S
C120 O112 1.315 . S
C120 O115 1.279 . S
C121 O122 1.315 . S
C121 O123 1.279 . S
O122 Cd114 2.223 1_655 S
O122 C121 1.315 . S
O123 Cd113 2.240 1_655 S
O123 C121 1.279 . S
O124 Cd114 2.297 1_655 S
O124 C119 1.247 . S
O125 Cd114 2.439 . S
O125 C119 1.208 1_455 S
O126 Cd127 2.223 . S
O126 C134 1.315 . S
Cd127 O126 2.223 . S
Cd127 O130 2.297 . S
Cd127 O131 2.439 . S
Cd127 O137 2.240 . S
Cd128 O129 2.240 . S
Cd128 O136 2.223 . S
Cd128 O138 2.297 . S
Cd128 O139 2.439 . S
O129 Cd128 2.240 . S
O129 C134 1.279 . S
O130 Cd127 2.297 . S
O130 C132 1.247 . S
O131 Cd127 2.439 . S
O131 C132 1.208 . S
C132 O130 1.247 . S
C132 O131 1.208 . S
C133 O138 1.247 . S
C133 O139 1.208 . S
C134 O126 1.315 . S
C134 O129 1.279 . S
C135 O136 1.315 . S
C135 O137 1.279 . S
O136 Cd128 2.223 . S
O136 C135 1.315 . S
O137 Cd127 2.240 . S
O137 C135 1.279 . S
O138 Cd128 2.297 . S
O138 C133 1.247 . S
O139 Cd128 2.439 . S
O139 C133 1.208 . S
O140 Cd141 2.223 . S
O140 C148 1.315 . S
Cd141 O140 2.223 . S
Cd141 O144 2.297 . S
Cd141 O145 2.439 . S
Cd141 O151 2.240 1_545 S
Cd142 O143 2.240 . S
Cd142 O150 2.223 1_545 S
Cd142 O152 2.297 1_545 S
Cd142 O153 2.439 . S
O143 Cd142 2.240 . S
O143 C148 1.279 . S
O144 Cd141 2.297 . S
O144 C146 1.247 . S
O145 Cd141 2.439 . S
O145 C146 1.208 . S
C146 O144 1.247 . S
C146 O145 1.208 . S
C147 O152 1.247 . S
C147 O153 1.208 1_565 S
C148 O140 1.315 . S
C148 O143 1.279 . S
C149 O150 1.315 . S
C149 O151 1.279 . S
O150 Cd142 2.223 1_565 S
O150 C149 1.315 . S
O151 Cd141 2.240 1_565 S
O151 C149 1.279 . S
O152 Cd142 2.297 1_565 S
O152 C147 1.247 . S
O153 Cd142 2.439 . S
O153 C147 1.208 1_545 S
O154 Cd155 2.223 . S
O154 C162 1.315 . S
Cd155 O154 2.223 . S
Cd155 O158 2.297 . S
Cd155 O159 2.439 . S
Cd155 O165 2.240 1_655 S
Cd156 O157 2.240 . S
Cd156 O164 2.223 1_655 S
Cd156 O166 2.297 1_655 S
Cd156 O167 2.439 . S
O157 Cd156 2.240 . S
O157 C162 1.279 . S
O158 Cd155 2.297 . S
O158 C160 1.247 . S
O159 Cd155 2.439 . S
O159 C160 1.208 . S
C160 O158 1.247 . S
C160 O159 1.208 . S
C161 O166 1.247 . S
C161 O167 1.208 1_455 S
C162 O154 1.315 . S
C162 O157 1.279 . S
C163 O164 1.315 . S
C163 O165 1.279 . S
O164 Cd156 2.223 1_455 S
O164 C163 1.315 . S
O165 Cd155 2.240 1_455 S
O165 C163 1.279 . S
O166 Cd156 2.297 1_455 S
O166 C161 1.247 . S
O167 Cd156 2.439 . S
O167 C161 1.208 1_655 S
O168 Cd169 2.223 . S
O168 C176 1.315 . S
Cd169 O168 2.223 . S
Cd169 O172 2.297 . S
Cd169 O173 2.439 . S
Cd169 O179 2.240 . S
Cd170 O171 2.240 . S
Cd170 O178 2.223 . S
Cd170 O180 2.297 . S
Cd170 O181 2.439 . S
O171 Cd170 2.240 . S
O171 C176 1.279 . S
O172 Cd169 2.297 . S
O172 C174 1.247 . S
O173 Cd169 2.439 . S
O173 C174 1.208 . S
C174 O172 1.247 . S
C174 O173 1.208 . S
C175 O180 1.247 . S
C175 O181 1.208 . S
C176 O168 1.315 . S
C176 O171 1.279 . S
C177 O178 1.315 . S
C177 O179 1.279 . S
O178 Cd170 2.223 . S
O178 C177 1.315 . S
O179 Cd169 2.240 . S
O179 C177 1.279 . S
O180 Cd170 2.297 . S
O180 C175 1.247 . S
O181 Cd170 2.439 . S
O181 C175 1.208 . S
O182 Cd183 2.223 . S
O182 C190 1.315 . S
Cd183 O182 2.223 . S
Cd183 O186 2.297 . S
Cd183 O187 2.439 . S
Cd183 O193 2.240 . S
Cd184 O185 2.240 . S
Cd184 O192 2.223 . S
Cd184 O194 2.297 . S
Cd184 O195 2.439 . S
O185 Cd184 2.240 . S
O185 C190 1.279 . S
O186 Cd183 2.297 . S
O186 C188 1.247 . S
O187 Cd183 2.439 . S
O187 C188 1.208 . S
C188 O186 1.247 . S
C188 O187 1.208 . S
C189 O194 1.247 . S
C189 O195 1.208 . S
C190 O182 1.315 . S
C190 O185 1.279 . S
C191 O192 1.315 . S
C191 O193 1.279 . S
O192 Cd184 2.223 . S
O192 C191 1.315 . S
O193 Cd183 2.240 . S
O193 C191 1.279 . S
O194 Cd184 2.297 . S
O194 C189 1.247 . S
O195 Cd184 2.439 . S
O195 C189 1.208 . S
O196 Cd197 2.223 . S
O196 C204 1.315 . S
Cd197 O196 2.223 . S
Cd197 O200 2.297 . S
Cd197 O201 2.439 . S
Cd197 O207 2.240 . S
Cd198 O199 2.240 . S
Cd198 O206 2.223 . S
Cd198 O208 2.297 . S
Cd198 O209 2.439 . S
O199 Cd198 2.240 . S
O199 C204 1.279 . S
O200 Cd197 2.297 . S
O200 C202 1.247 . S
O201 Cd197 2.439 . S
O201 C202 1.208 . S
C202 O200 1.247 . S
C202 O201 1.208 . S
C203 O208 1.247 . S
C203 O209 1.208 . S
C204 O196 1.315 . S
C204 O199 1.279 . S
C205 O206 1.315 . S
C205 O207 1.279 . S
O206 Cd198 2.223 . S
O206 C205 1.315 . S
O207 Cd197 2.240 . S
O207 C205 1.279 . S
O208 Cd198 2.297 . S
O208 C203 1.247 . S
O209 Cd198 2.439 . S
O209 C203 1.208 . S
O210 Cd211 2.223 . S
O210 C218 1.315 . S
Cd211 O210 2.223 . S
Cd211 O214 2.297 . S
Cd211 O215 2.439 . S
Cd211 O221 2.240 . S
Cd212 O213 2.240 . S
Cd212 O220 2.223 . S
Cd212 O222 2.297 . S
Cd212 O223 2.439 . S
O213 Cd212 2.240 . S
O213 C218 1.279 . S
O214 Cd211 2.297 . S
O214 C216 1.247 . S
O215 Cd211 2.439 . S
O215 C216 1.208 . S
C216 O214 1.247 . S
C216 O215 1.208 . S
C217 O222 1.247 . S
C217 O223 1.208 . S
C218 O210 1.315 . S
C218 O213 1.279 . S
C219 O220 1.315 . S
C219 O221 1.279 . S
O220 Cd212 2.223 . S
O220 C219 1.315 . S
O221 Cd211 2.240 . S
O221 C219 1.279 . S
O222 Cd212 2.297 . S
O222 C217 1.247 . S
O223 Cd212 2.439 . S
O223 C217 1.208 . S
O224 Cd225 2.223 . S
O224 C232 1.315 . S
Cd225 O224 2.223 . S
Cd225 O228 2.297 . S
Cd225 O229 2.439 . S
Cd225 O235 2.240 . S
Cd226 O227 2.240 . S
Cd226 O234 2.223 . S
Cd226 O236 2.297 . S
Cd226 O237 2.439 . S
O227 Cd226 2.240 . S
O227 C232 1.279 . S
O228 Cd225 2.297 . S
O228 C230 1.247 . S
O229 Cd225 2.439 . S
O229 C230 1.208 . S
C230 O228 1.247 . S
C230 O229 1.208 . S
C231 O236 1.247 . S
C231 O237 1.208 . S
C232 O224 1.315 . S
C232 O227 1.279 . S
C233 O234 1.315 . S
C233 O235 1.279 . S
O234 Cd226 2.223 . S
O234 C233 1.315 . S
O235 Cd225 2.240 . S
O235 C233 1.279 . S
O236 Cd226 2.297 . S
O236 C231 1.247 . S
O237 Cd226 2.439 . S
O237 C231 1.208 . S
O238 Cd239 2.223 . S
O238 C246 1.315 . S
Cd239 O238 2.223 . S
Cd239 O242 2.297 . S
Cd239 O243 2.439 . S
Cd239 O249 2.240 . S
Cd240 O241 2.240 . S
Cd240 O248 2.223 . S
Cd240 O250 2.297 . S
Cd240 O251 2.439 . S
O241 Cd240 2.240 . S
O241 C246 1.279 . S
O242 Cd239 2.297 . S
O242 C244 1.247 . S
O243 Cd239 2.439 . S
O243 C244 1.208 . S
C244 O242 1.247 . S
C244 O243 1.208 . S
C245 O250 1.247 . S
C245 O251 1.208 . S
C246 O238 1.315 . S
C246 O241 1.279 . S
C247 O248 1.315 . S
C247 O249 1.279 . S
O248 Cd240 2.223 . S
O248 C247 1.315 . S
O249 Cd239 2.240 . S
O249 C247 1.279 . S
O250 Cd240 2.297 . S
O250 C245 1.247 . S
O251 Cd240 2.439 . S
O251 C245 1.208 . S
O252 Cd253 2.223 . S
O252 C260 1.315 . S
Cd253 O252 2.223 . S
Cd253 O256 2.297 . S
Cd253 O257 2.439 . S
Cd253 O263 2.240 . S
Cd254 O255 2.240 . S
Cd254 O262 2.223 . S
Cd254 O264 2.297 . S
Cd254 O265 2.439 . S
O255 Cd254 2.240 . S
O255 C260 1.279 . S
O256 Cd253 2.297 . S
O256 C258 1.247 . S
O257 Cd253 2.439 . S
O257 C258 1.208 . S
C258 O256 1.247 . S
C258 O257 1.208 . S
C259 O264 1.247 . S
C259 O265 1.208 . S
C260 O252 1.315 . S
C260 O255 1.279 . S
C261 O262 1.315 . S
C261 O263 1.279 . S
O262 Cd254 2.223 . S
O262 C261 1.315 . S
O263 Cd253 2.240 . S
O263 C261 1.279 . S
O264 Cd254 2.297 . S
O264 C259 1.247 . S
O265 Cd254 2.439 . S
O265 C259 1.208 . S
O266 Cd267 2.223 . S
O266 C274 1.315 . S
Cd267 O266 2.223 . S
Cd267 O270 2.297 . S
Cd267 O271 2.439 . S
Cd267 O277 2.240 . S
Cd268 O269 2.240 . S
Cd268 O276 2.223 . S
Cd268 O278 2.297 . S
Cd268 O279 2.439 . S
O269 Cd268 2.240 . S
O269 C274 1.279 . S
O270 Cd267 2.297 . S
O270 C272 1.247 . S
O271 Cd267 2.439 . S
O271 C272 1.208 . S
C272 O270 1.247 . S
C272 O271 1.208 . S
C273 O278 1.247 . S
C273 O279 1.208 . S
C274 O266 1.315 . S
C274 O269 1.279 . S
C275 O276 1.315 . S
C275 O277 1.279 . S
O276 Cd268 2.223 . S
O276 C275 1.315 . S
O277 Cd267 2.240 . S
O277 C275 1.279 . S
O278 Cd268 2.297 . S
O278 C273 1.247 . S
O279 Cd268 2.439 . S
O279 C273 1.208 . S
O280 Cd281 2.223 . S
O280 C288 1.315 . S
Cd281 O280 2.223 . S
Cd281 O284 2.297 . S
Cd281 O285 2.439 . S
Cd281 O291 2.240 . S
Cd282 O283 2.240 . S
Cd282 O290 2.223 . S
Cd282 O292 2.297 . S
Cd282 O293 2.439 . S
O283 Cd282 2.240 . S
O283 C288 1.279 . S
O284 Cd281 2.297 . S
O284 C286 1.247 . S
O285 Cd281 2.439 . S
O285 C286 1.208 . S
C286 O284 1.247 . S
C286 O285 1.208 . S
C287 O292 1.247 . S
C287 O293 1.208 . S
C288 O280 1.315 . S
C288 O283 1.279 . S
C289 O290 1.315 . S
C289 O291 1.279 . S
O290 Cd282 2.223 . S
O290 C289 1.315 . S
O291 Cd281 2.240 . S
O291 C289 1.279 . S
O292 Cd282 2.297 . S
O292 C287 1.247 . S
O293 Cd282 2.439 . S
O293 C287 1.208 . S
O294 Cd295 2.223 . S
O294 C302 1.315 . S
Cd295 O294 2.223 . S
Cd295 O298 2.305 . S
Cd295 O299 2.439 . S
Cd295 O305 2.240 . S
Cd296 O297 2.240 . S
Cd296 O304 2.223 . S
Cd296 O306 2.297 . S
Cd296 O307 2.439 . S
O297 Cd296 2.240 . S
O297 C302 1.279 . S
O298 Cd295 2.305 . S
O298 C300 1.261 . S
O299 Cd295 2.439 . S
O299 C300 1.208 . S
C300 O298 1.261 . S
C300 O299 1.208 . S
C301 O306 1.247 . S
C301 O307 1.208 . S
C302 O294 1.315 . S
C302 O297 1.279 . S
C303 O304 1.315 . S
C303 O305 1.279 . S
O304 Cd296 2.223 . S
O304 C303 1.315 . S
O305 Cd295 2.240 . S
O305 C303 1.279 . S
O306 Cd296 2.297 . S
O306 C301 1.247 . S
O307 Cd296 2.439 . S
O307 C301 1.208 . S
O308 Cd309 2.223 . S
O308 C316 1.315 . S
Cd309 O308 2.223 . S
Cd309 O312 2.305 . S
Cd309 O313 2.439 . S
Cd309 O319 2.240 . S
Cd310 O311 2.240 . S
Cd310 O318 2.223 . S
Cd310 O320 2.297 . S
Cd310 O321 2.439 . S
O311 Cd310 2.240 . S
O311 C316 1.279 . S
O312 Cd309 2.305 . S
O312 C314 1.260 . S
O313 Cd309 2.439 . S
O313 C314 1.208 . S
C314 O312 1.260 . S
C314 O313 1.208 . S
C315 O320 1.247 . S
C315 O321 1.208 . S
C316 O308 1.315 . S
C316 O311 1.279 . S
C317 O318 1.315 . S
C317 O319 1.279 . S
O318 Cd310 2.223 . S
O318 C317 1.315 . S
O319 Cd309 2.240 . S
O319 C317 1.279 . S
O320 Cd310 2.297 . S
O320 C315 1.247 . S
O321 Cd310 2.439 . S
O321 C315 1.208 . S
O322 Cd323 2.223 . S
O322 C330 1.315 . S
Cd323 O322 2.223 . S
Cd323 O326 2.305 . S
Cd323 O327 2.439 . S
Cd323 O333 2.240 . S
Cd324 O325 2.240 . S
Cd324 O332 2.223 . S
Cd324 O334 2.297 . S
Cd324 O335 2.439 . S
O325 Cd324 2.240 . S
O325 C330 1.279 . S
O326 Cd323 2.305 . S
O326 C328 1.261 . S
O327 Cd323 2.439 . S
O327 C328 1.208 . S
C328 O326 1.261 . S
C328 O327 1.208 . S
C329 O334 1.247 . S
C329 O335 1.208 . S
C330 O322 1.315 . S
C330 O325 1.279 . S
C331 O332 1.315 . S
C331 O333 1.279 . S
O332 Cd324 2.223 . S
O332 C331 1.315 . S
O333 Cd323 2.240 . S
O333 C331 1.279 . S
O334 Cd324 2.297 . S
O334 C329 1.247 . S
O335 Cd324 2.439 . S
O335 C329 1.208 . S
O336 Cd337 2.223 . S
O336 C344 1.315 . S
Cd337 O336 2.223 . S
Cd337 O340 2.297 . S
Cd337 O341 2.439 . S
Cd337 O347 2.240 . S
Cd338 O339 2.240 . S
Cd338 O346 2.223 . S
Cd338 O348 2.297 . S
Cd338 O349 2.439 . S
O339 Cd338 2.240 . S
O339 C344 1.279 . S
O340 Cd337 2.297 . S
O340 C342 1.247 . S
O341 Cd337 2.439 . S
O341 C342 1.208 . S
C342 O340 1.247 . S
C342 O341 1.208 . S
C343 O348 1.247 . S
C343 O349 1.208 . S
C344 O336 1.315 . S
C344 O339 1.279 . S
C345 O346 1.315 . S
C345 O347 1.279 . S
O346 Cd338 2.223 . S
O346 C345 1.315 . S
O347 Cd337 2.240 . S
O347 C345 1.279 . S
O348 Cd338 2.297 . S
O348 C343 1.247 . S
O349 Cd338 2.439 . S
O349 C343 1.208 . S
O350 Cd351 2.223 . S
O350 C358 1.315 . S
Cd351 O350 2.223 . S
Cd351 O354 2.297 . S
Cd351 O355 2.439 . S
Cd351 O361 2.240 . S
Cd352 O353 2.240 . S
Cd352 O360 2.223 . S
Cd352 O362 2.297 . S
Cd352 O363 2.439 . S
O353 Cd352 2.240 . S
O353 C358 1.279 . S
O354 Cd351 2.297 . S
O354 C356 1.247 . S
O355 Cd351 2.439 . S
O355 C356 1.208 . S
C356 O354 1.247 . S
C356 O355 1.208 . S
C357 O362 1.247 . S
C357 O363 1.208 . S
C358 O350 1.315 . S
C358 O353 1.279 . S
C359 O360 1.315 . S
C359 O361 1.279 . S
O360 Cd352 2.223 . S
O360 C359 1.315 . S
O361 Cd351 2.240 . S
O361 C359 1.279 . S
O362 Cd352 2.297 . S
O362 C357 1.247 . S
O363 Cd352 2.439 . S
O363 C357 1.208 . S
O364 Cd365 2.223 . S
O364 C372 1.315 . S
Cd365 O364 2.223 . S
Cd365 O368 2.297 . S
Cd365 O369 2.439 . S
Cd365 O375 2.240 . S
Cd366 O367 2.240 . S
Cd366 O374 2.223 . S
Cd366 O376 2.297 . S
Cd366 O377 2.439 . S
O367 Cd366 2.240 . S
O367 C372 1.279 . S
O368 Cd365 2.297 . S
O368 C370 1.247 . S
O369 Cd365 2.439 . S
O369 C370 1.208 . S
C370 O368 1.247 . S
C370 O369 1.208 . S
C371 O376 1.247 . S
C371 O377 1.208 . S
C372 O364 1.315 . S
C372 O367 1.279 . S
C373 O374 1.315 . S
C373 O375 1.279 . S
O374 Cd366 2.223 . S
O374 C373 1.315 . S
O375 Cd365 2.240 . S
O375 C373 1.279 . S
O376 Cd366 2.297 . S
O376 C371 1.247 . S
O377 Cd366 2.439 . S
O377 C371 1.208 . S
O378 Cd379 2.223 . S
O378 C386 1.315 . S
Cd379 O378 2.223 . S
Cd379 O382 2.305 . S
Cd379 O383 2.439 . S
Cd379 O389 2.240 . S
Cd380 O381 2.240 . S
Cd380 O388 2.223 . S
Cd380 O390 2.297 . S
Cd380 O391 2.439 . S
O381 Cd380 2.240 . S
O381 C386 1.279 . S
O382 Cd379 2.305 . S
O382 C384 1.261 . S
O383 Cd379 2.439 . S
O383 C384 1.208 . S
C384 O382 1.261 . S
C384 O383 1.208 . S
C385 O390 1.247 . S
C385 O391 1.208 . S
C386 O378 1.315 . S
C386 O381 1.279 . S
C387 O388 1.315 . S
C387 O389 1.279 . S
O388 Cd380 2.223 . S
O388 C387 1.315 . S
O389 Cd379 2.240 . S
O389 C387 1.279 . S
O390 Cd380 2.297 . S
O390 C385 1.247 . S
O391 Cd380 2.439 . S
O391 C385 1.208 . S
O392 Cd393 2.223 . S
O392 C400 1.315 . S
Cd393 O392 2.223 . S
Cd393 O396 2.305 . S
Cd393 O397 2.439 . S
Cd393 O403 2.240 . S
Cd394 O395 2.240 . S
Cd394 O402 2.223 . S
Cd394 O404 2.297 . S
Cd394 O405 2.439 . S
O395 Cd394 2.240 . S
O395 C400 1.279 . S
O396 Cd393 2.305 . S
O396 C398 1.260 . S
O397 Cd393 2.439 . S
O397 C398 1.208 . S
C398 O396 1.260 . S
C398 O397 1.208 . S
C399 O404 1.247 . S
C399 O405 1.208 . S
C400 O392 1.315 . S
C400 O395 1.279 . S
C401 O402 1.315 . S
C401 O403 1.279 . S
O402 Cd394 2.223 . S
O402 C401 1.315 . S
O403 Cd393 2.240 . S
O403 C401 1.279 . S
O404 Cd394 2.297 . S
O404 C399 1.247 . S
O405 Cd394 2.439 . S
O405 C399 1.208 . S
O406 Cd407 2.223 . S
O406 C414 1.315 . S
Cd407 O406 2.223 . S
Cd407 O410 2.305 . S
Cd407 O411 2.439 . S
Cd407 O417 2.240 . S
Cd408 O409 2.240 . S
Cd408 O416 2.223 . S
Cd408 O418 2.297 . S
Cd408 O419 2.439 . S
O409 Cd408 2.240 . S
O409 C414 1.279 . S
O410 Cd407 2.305 . S
O410 C412 1.261 . S
O411 Cd407 2.439 . S
O411 C412 1.208 . S
C412 O410 1.261 . S
C412 O411 1.208 . S
C413 O418 1.247 . S
C413 O419 1.208 . S
C414 O406 1.315 . S
C414 O409 1.279 . S
C415 O416 1.315 . S
C415 O417 1.279 . S
O416 Cd408 2.223 . S
O416 C415 1.315 . S
O417 Cd407 2.240 . S
O417 C415 1.279 . S
O418 Cd408 2.297 . S
O418 C413 1.247 . S
O419 Cd408 2.439 . S
O419 C413 1.208 . S
O420 Cd421 2.223 . S
O420 C428 1.315 . S
Cd421 O420 2.223 . S
Cd421 O424 2.297 . S
Cd421 O425 2.439 . S
Cd421 O431 2.240 . S
Cd422 O423 2.240 . S
Cd422 O430 2.223 . S
Cd422 O432 2.297 . S
Cd422 O433 2.439 . S
O423 Cd422 2.240 . S
O423 C428 1.279 . S
O424 Cd421 2.297 . S
O424 C426 1.247 . S
O425 Cd421 2.439 . S
O425 C426 1.208 . S
C426 O424 1.247 . S
C426 O425 1.208 . S
C427 O432 1.247 . S
C427 O433 1.208 . S
C428 O420 1.315 . S
C428 O423 1.279 . S
C429 O430 1.315 . S
C429 O431 1.279 . S
O430 Cd422 2.223 . S
O430 C429 1.315 . S
O431 Cd421 2.240 . S
O431 C429 1.279 . S
O432 Cd422 2.297 . S
O432 C427 1.247 . S
O433 Cd422 2.439 . S
O433 C427 1.208 . S
O434 Cd435 2.223 . S
O434 C442 1.315 . S
Cd435 O434 2.223 . S
Cd435 O438 2.297 . S
Cd435 O439 2.439 . S
Cd435 O445 2.240 . S
Cd436 O437 2.240 . S
Cd436 O444 2.223 . S
Cd436 O446 2.297 . S
Cd436 O447 2.439 . S
O437 Cd436 2.240 . S
O437 C442 1.279 . S
O438 Cd435 2.297 . S
O438 C440 1.247 . S
O439 Cd435 2.439 . S
O439 C440 1.208 . S
C440 O438 1.247 . S
C440 O439 1.208 . S
C441 O446 1.247 . S
C441 O447 1.208 . S
C442 O434 1.315 . S
C442 O437 1.279 . S
C443 O444 1.315 . S
C443 O445 1.279 . S
O444 Cd436 2.223 . S
O444 C443 1.315 . S
O445 Cd435 2.240 . S
O445 C443 1.279 . S
O446 Cd436 2.297 . S
O446 C441 1.247 . S
O447 Cd436 2.439 . S
O447 C441 1.208 . S
O448 Cd449 2.223 . S
O448 C456 1.315 . S
Cd449 O448 2.223 . S
Cd449 O452 2.297 . S
Cd449 O453 2.439 . S
Cd449 O459 2.240 . S
Cd450 O451 2.240 . S
Cd450 O458 2.223 . S
Cd450 O460 2.297 . S
Cd450 O461 2.439 . S
O451 Cd450 2.240 . S
O451 C456 1.279 . S
O452 Cd449 2.297 . S
O452 C454 1.247 . S
O453 Cd449 2.439 . S
O453 C454 1.208 . S
C454 O452 1.247 . S
C454 O453 1.208 . S
C455 O460 1.247 . S
C455 O461 1.208 . S
C456 O448 1.315 . S
C456 O451 1.279 . S
C457 O458 1.315 . S
C457 O459 1.279 . S
O458 Cd450 2.223 . S
O458 C457 1.315 . S
O459 Cd449 2.240 . S
O459 C457 1.279 . S
O460 Cd450 2.297 . S
O460 C455 1.247 . S
O461 Cd450 2.439 . S
O461 C455 1.208 . S
O462 Cd463 2.223 . S
O462 C470 1.315 . S
Cd463 O462 2.223 . S
Cd463 O466 2.297 . S
Cd463 O467 2.439 . S
Cd463 O473 2.240 . S
Cd464 O465 2.240 . S
Cd464 O472 2.223 . S
Cd464 O474 2.297 . S
Cd464 O475 2.439 . S
O465 Cd464 2.240 . S
O465 C470 1.279 . S
O466 Cd463 2.297 . S
O466 C468 1.247 . S
O467 Cd463 2.439 . S
O467 C468 1.208 . S
C468 O466 1.247 . S
C468 O467 1.208 . S
C469 O474 1.247 . S
C469 O475 1.208 . S
C470 O462 1.315 . S
C470 O465 1.279 . S
C471 O472 1.315 . S
C471 O473 1.279 . S
O472 Cd464 2.223 . S
O472 C471 1.315 . S
O473 Cd463 2.240 . S
O473 C471 1.279 . S
O474 Cd464 2.297 . S
O474 C469 1.247 . S
O475 Cd464 2.439 . S
O475 C469 1.208 . S
O476 Cd477 2.223 . S
O476 C484 1.315 . S
Cd477 O476 2.223 . S
Cd477 O480 2.297 . S
Cd477 O481 2.439 . S
Cd477 O487 2.240 . S
Cd478 O479 2.240 . S
Cd478 O486 2.223 . S
Cd478 O488 2.297 . S
Cd478 O489 2.439 . S
O479 Cd478 2.240 . S
O479 C484 1.279 . S
O480 Cd477 2.297 . S
O480 C482 1.247 . S
O481 Cd477 2.439 . S
O481 C482 1.208 . S
C482 O480 1.247 . S
C482 O481 1.208 . S
C483 O488 1.247 . S
C483 O489 1.208 . S
C484 O476 1.315 . S
C484 O479 1.279 . S
C485 O486 1.315 . S
C485 O487 1.279 . S
O486 Cd478 2.223 . S
O486 C485 1.315 . S
O487 Cd477 2.240 . S
O487 C485 1.279 . S
O488 Cd478 2.297 . S
O488 C483 1.247 . S
O489 Cd478 2.439 . S
O489 C483 1.208 . S
O490 Cd491 2.223 . S
O490 C498 1.315 . S
Cd491 O490 2.223 . S
Cd491 O494 2.297 . S
Cd491 O495 2.439 . S
Cd491 O501 2.240 . S
Cd492 O493 2.240 . S
Cd492 O500 2.223 . S
Cd492 O502 2.297 . S
Cd492 O503 2.439 . S
O493 Cd492 2.240 . S
O493 C498 1.279 . S
O494 Cd491 2.297 . S
O494 C496 1.247 . S
O495 Cd491 2.439 . S
O495 C496 1.208 . S
C496 O494 1.247 . S
C496 O495 1.208 . S
C497 O502 1.247 . S
C497 O503 1.208 . S
C498 O490 1.315 . S
C498 O493 1.279 . S
C499 O500 1.315 . S
C499 O501 1.279 . S
O500 Cd492 2.223 . S
O500 C499 1.315 . S
O501 Cd491 2.240 . S
O501 C499 1.279 . S
O502 Cd492 2.297 . S
O502 C497 1.247 . S
O503 Cd492 2.439 . S
O503 C497 1.208 . S
C504 C505 1.391 . S
C504 C506 1.394 . S
C504 H520 0.931 . S
C505 C504 1.391 . S
C505 C509 1.376 . S
C506 C504 1.394 . S
C506 C507 1.369 . S
C506 C510 1.531 . S
C507 C506 1.369 . S
C507 C508 1.410 . S
C507 C515 1.503 1_455 S
C508 C507 1.410 . S
C508 C509 1.392 . S
C508 C511 1.511 . S
C509 C505 1.376 . S
C509 C508 1.392 . S
C509 H521 0.929 . S
C510 C506 1.531 . S
C510 H522 0.960 . S
C510 H523 0.962 . S
C510 H524 0.960 . S
C511 C508 1.511 . S
C511 H525 0.961 . S
C511 H526 0.961 . S
C511 H527 0.961 . S
C512 C513 1.370 . S
C512 C514 1.363 . S
C512 H528 0.931 . S
C513 C512 1.370 . S
C513 C517 1.408 . S
C514 C512 1.363 . S
C514 C515 1.370 . S
C514 C518 1.524 . S
C515 C507 1.503 1_655 S
C515 C514 1.370 . S
C515 C516 1.403 . S
C516 C515 1.403 . S
C516 C517 1.404 . S
C516 C519 1.539 . S
C517 C513 1.408 . S
C517 C516 1.404 . S
C517 H529 0.930 . S
C518 C514 1.524 . S
C518 H530 0.956 1_655 S
C518 H531 0.961 1_655 S
C518 H532 0.961 . S
C519 C516 1.539 . S
C519 H533 0.947 . S
C519 H534 0.961 . S
C519 H535 0.960 1_655 S
H520 C504 0.931 . S
H521 C509 0.929 . S
H522 C510 0.960 . S
H523 C510 0.962 . S
H524 C510 0.960 . S
H525 C511 0.961 . S
H526 C511 0.961 . S
H527 C511 0.961 . S
H528 C512 0.931 . S
H529 C517 0.930 . S
H530 C518 0.956 1_455 S
H531 C518 0.961 1_455 S
H532 C518 0.961 . S
H533 C519 0.947 . S
H534 C519 0.961 . S
H535 C519 0.960 1_455 S
C536 C537 1.391 . S
C536 C538 1.394 . S
C536 H552 0.931 . S
C537 C536 1.391 . S
C537 C541 1.376 . S
C538 C536 1.394 . S
C538 C539 1.369 . S
C538 C542 1.531 . S
C539 C538 1.369 . S
C539 C540 1.410 . S
C539 C547 1.503 . S
C540 C539 1.410 . S
C540 C541 1.392 . S
C540 C543 1.511 . S
C541 C537 1.376 . S
C541 C540 1.392 . S
C541 H553 0.929 . S
C542 C538 1.531 . S
C542 H554 0.960 . S
C542 H555 0.962 . S
C542 H556 0.960 . S
C543 C540 1.511 . S
C543 H557 0.961 . S
C543 H558 0.961 . S
C543 H559 0.961 . S
C544 C545 1.370 . S
C544 C546 1.363 . S
C544 H560 0.931 . S
C545 C544 1.370 . S
C545 C549 1.408 . S
C546 C544 1.363 . S
C546 C547 1.370 . S
C546 C550 1.524 . S
C547 C539 1.503 . S
C547 C546 1.370 . S
C547 C548 1.403 . S
C548 C547 1.403 . S
C548 C549 1.404 . S
C548 C551 1.539 . S
C549 C545 1.408 . S
C549 C548 1.404 . S
C549 H561 0.930 . S
C550 C546 1.524 . S
C550 H562 0.956 . S
C550 H563 0.961 . S
C550 H564 0.961 . S
C551 C548 1.539 . S
C551 H565 0.958 . S
C551 H566 0.961 . S
C551 H567 0.960 . S
H552 C536 0.931 . S
H553 C541 0.929 . S
H554 C542 0.960 . S
H555 C542 0.962 . S
H556 C542 0.960 . S
H557 C543 0.961 . S
H558 C543 0.961 . S
H559 C543 0.961 . S
H560 C544 0.931 . S
H561 C549 0.930 . S
H562 C550 0.956 . S
H563 C550 0.961 . S
H564 C550 0.961 . S
H565 C551 0.958 . S
H566 C551 0.961 . S
H567 C551 0.960 . S
C568 C569 1.391 . S
C568 C570 1.394 . S
C568 H584 0.931 . S
C569 C568 1.391 . S
C569 C573 1.376 . S
C570 C568 1.394 . S
C570 C571 1.369 . S
C570 C574 1.533 . S
C571 C570 1.369 . S
C571 C572 1.410 . S
C571 C579 1.503 1_545 S
C572 C571 1.410 . S
C572 C573 1.392 . S
C572 C575 1.511 . S
C573 C569 1.376 . S
C573 C572 1.392 . S
C573 H585 0.929 . S
C574 C570 1.533 . S
C574 H586 0.948 1_545 S
C574 H587 0.965 1_545 S
C574 H588 0.968 . S
C575 C572 1.511 . S
C575 H589 0.961 . S
C575 H590 0.961 1_545 S
C575 H591 0.961 . S
C576 C577 1.370 . S
C576 C578 1.363 . S
C576 H592 0.931 . S
C577 C576 1.370 . S
C577 C581 1.408 . S
C578 C576 1.363 . S
C578 C579 1.370 . S
C578 C582 1.524 . S
C579 C571 1.503 1_565 S
C579 C578 1.370 . S
C579 C580 1.403 . S
C580 C579 1.403 . S
C580 C581 1.404 . S
C580 C583 1.539 . S
C581 C577 1.408 . S
C581 C580 1.404 . S
C581 H593 0.930 . S
C582 C578 1.524 . S
C582 H594 0.956 . S
C582 H595 0.961 . S
C582 H596 0.961 . S
C583 C580 1.539 . S
C583 H597 0.958 . S
C583 H598 0.961 . S
C583 H599 0.960 . S
H584 C568 0.931 . S
H585 C573 0.929 . S
H586 C574 0.948 1_565 S
H587 C574 0.965 1_565 S
H588 C574 0.968 . S
H589 C575 0.961 . S
H590 C575 0.961 1_565 S
H591 C575 0.961 . S
H592 C576 0.931 . S
H593 C581 0.930 . S
H594 C582 0.956 . S
H595 C582 0.961 . S
H596 C582 0.961 . S
H597 C583 0.958 . S
H598 C583 0.961 . S
H599 C583 0.960 . S
C600 C601 1.391 . S
C600 C602 1.394 . S
C600 H616 0.931 . S
C601 C600 1.391 . S
C601 C605 1.376 . S
C602 C600 1.394 . S
C602 C603 1.369 . S
C602 C606 1.531 . S
C603 C602 1.369 . S
C603 C604 1.410 . S
C603 C611 1.503 1_545 S
C604 C603 1.410 . S
C604 C605 1.392 . S
C604 C607 1.511 . S
C605 C601 1.376 . S
C605 C604 1.392 . S
C605 H617 0.929 . S
C606 C602 1.531 . S
C606 H618 0.960 . S
C606 H619 0.962 . S
C606 H620 0.960 . S
C607 C604 1.511 . S
C607 H621 0.961 . S
C607 H622 0.961 . S
C607 H623 0.961 . S
C608 C609 1.370 . S
C608 C610 1.363 . S
C608 H624 0.931 . S
C609 C608 1.370 . S
C609 C613 1.408 . S
C610 C608 1.363 . S
C610 C611 1.370 . S
C610 C614 1.524 . S
C611 C603 1.503 1_565 S
C611 C610 1.370 . S
C611 C612 1.403 . S
C612 C611 1.403 . S
C612 C613 1.404 . S
C612 C615 1.539 . S
C613 C609 1.408 . S
C613 C612 1.404 . S
C613 H625 0.930 . S
C614 C610 1.524 . S
C614 H626 0.956 1_565 S
C614 H627 0.961 1_565 S
C614 H628 0.961 . S
C615 C612 1.539 . S
C615 H629 0.958 . S
C615 H630 0.961 . S
C615 H631 0.960 1_565 S
H616 C600 0.931 . S
H617 C605 0.929 . S
H618 C606 0.960 . S
H619 C606 0.962 . S
H620 C606 0.960 . S
H621 C607 0.961 . S
H622 C607 0.961 . S
H623 C607 0.961 . S
H624 C608 0.931 . S
H625 C613 0.930 . S
H626 C614 0.956 1_545 S
H627 C614 0.961 1_545 S
H628 C614 0.961 . S
H629 C615 0.958 . S
H630 C615 0.961 . S
H631 C615 0.960 1_545 S
C632 C633 1.391 . S
C632 C634 1.394 . S
C632 H648 0.931 . S
C633 C632 1.391 . S
C633 C637 1.376 . S
C634 C632 1.394 . S
C634 C635 1.369 . S
C634 C638 1.531 . S
C635 C634 1.369 . S
C635 C636 1.410 . S
C635 C643 1.503 1_655 S
C636 C635 1.410 . S
C636 C637 1.392 . S
C636 C639 1.511 . S
C637 C633 1.376 . S
C637 C636 1.392 . S
C637 H649 0.929 . S
C638 C634 1.531 . S
C638 H650 0.960 . S
C638 H651 0.962 . S
C638 H652 0.960 . S
C639 C636 1.511 . S
C639 H653 0.961 . S
C639 H654 0.961 . S
C639 H655 0.961 . S
C640 C641 1.370 . S
C640 C642 1.363 . S
C640 H656 0.931 . S
C641 C640 1.370 . S
C641 C645 1.408 . S
C642 C640 1.363 . S
C642 C643 1.370 . S
C642 C646 1.524 . S
C643 C635 1.503 1_455 S
C643 C642 1.370 . S
C643 C644 1.403 . S
C644 C643 1.403 . S
C644 C645 1.404 . S
C644 C647 1.539 . S
C645 C641 1.408 . S
C645 C644 1.404 . S
C645 H657 0.930 . S
C646 C642 1.524 . S
C646 H658 0.956 1_455 S
C646 H659 0.961 1_455 S
C646 H660 0.961 . S
C647 C644 1.539 . S
C647 H661 0.958 . S
C647 H662 0.961 . S
C647 H663 0.960 1_455 S
H648 C632 0.931 . S
H649 C637 0.929 . S
H650 C638 0.960 . S
H651 C638 0.962 . S
H652 C638 0.960 . S
H653 C639 0.961 . S
H654 C639 0.961 . S
H655 C639 0.961 . S
H656 C640 0.931 . S
H657 C645 0.930 . S
H658 C646 0.956 1_655 S
H659 C646 0.961 1_655 S
H660 C646 0.961 . S
H661 C647 0.958 . S
H662 C647 0.961 . S
H663 C647 0.960 1_655 S
C664 C665 1.391 . S
C664 C666 1.394 . S
C664 H680 0.931 . S
C665 C664 1.391 . S
C665 C669 1.376 . S
C666 C664 1.394 . S
C666 C667 1.369 . S
C666 C670 1.531 . S
C667 C666 1.369 . S
C667 C668 1.410 . S
C667 C675 1.503 . S
C668 C667 1.410 . S
C668 C669 1.392 . S
C668 C671 1.511 . S
C669 C665 1.376 . S
C669 C668 1.392 . S
C669 H681 0.929 . S
C670 C666 1.531 . S
C670 H682 0.960 . S
C670 H683 0.962 . S
C670 H684 0.960 . S
C671 C668 1.511 . S
C671 H685 0.961 . S
C671 H686 0.961 . S
C671 H687 0.961 . S
C672 C673 1.370 . S
C672 C674 1.363 . S
C672 H688 0.931 . S
C673 C672 1.370 . S
C673 C677 1.408 . S
C674 C672 1.363 . S
C674 C675 1.370 . S
C674 C678 1.524 . S
C675 C667 1.503 . S
C675 C674 1.370 . S
C675 C676 1.403 . S
C676 C675 1.403 . S
C676 C677 1.404 . S
C676 C679 1.539 . S
C677 C673 1.408 . S
C677 C676 1.404 . S
C677 H689 0.930 . S
C678 C674 1.524 . S
C678 H690 0.956 . S
C678 H691 0.961 . S
C678 H692 0.961 . S
C679 C676 1.539 . S
C679 H693 0.958 . S
C679 H694 0.961 . S
C679 H695 0.960 . S
H680 C664 0.931 . S
H681 C669 0.929 . S
H682 C670 0.960 . S
H683 C670 0.962 . S
H684 C670 0.960 . S
H685 C671 0.961 . S
H686 C671 0.961 . S
H687 C671 0.961 . S
H688 C672 0.931 . S
H689 C677 0.930 . S
H690 C678 0.956 . S
H691 C678 0.961 . S
H692 C678 0.961 . S
H693 C679 0.958 . S
H694 C679 0.961 . S
H695 C679 0.960 . S
C696 C697 1.391 . S
C696 C698 1.394 . S
C696 H712 0.931 . S
C697 C696 1.391 . S
C697 C701 1.376 . S
C698 C696 1.394 . S
C698 C699 1.369 . S
C698 C702 1.531 . S
C699 C698 1.369 . S
C699 C700 1.410 . S
C699 C707 1.503 1_655 S
C700 C699 1.410 . S
C700 C701 1.392 . S
C700 C703 1.511 . S
C701 C697 1.376 . S
C701 C700 1.392 . S
C701 H713 0.929 . S
C702 C698 1.531 . S
C702 H714 0.960 . S
C702 H715 0.962 . S
C702 H716 0.960 . S
C703 C700 1.511 . S
C703 H717 0.961 . S
C703 H718 0.961 . S
C703 H719 0.961 . S
C704 C705 1.370 . S
C704 C706 1.363 . S
C704 H720 0.931 . S
C705 C704 1.370 . S
C705 C709 1.408 . S
C706 C704 1.363 . S
C706 C707 1.370 . S
C706 C710 1.524 1_455 S
C707 C699 1.503 1_455 S
C707 C706 1.370 . S
C707 C708 1.403 . S
C708 C707 1.403 . S
C708 C709 1.404 . S
C708 C711 1.539 . S
C709 C705 1.408 . S
C709 C708 1.404 . S
C709 H721 0.930 . S
C710 C706 1.524 1_655 S
C710 H722 0.956 . S
C710 H723 0.961 . S
C710 H724 0.961 1_655 S
C711 C708 1.539 . S
C711 H725 0.958 . S
C711 H726 0.961 . S
C711 H727 0.960 1_455 S
H712 C696 0.931 . S
H713 C701 0.929 . S
H714 C702 0.960 . S
H715 C702 0.962 . S
H716 C702 0.960 . S
H717 C703 0.961 . S
H718 C703 0.961 . S
H719 C703 0.961 . S
H720 C704 0.931 . S
H721 C709 0.930 . S
H722 C710 0.956 . S
H723 C710 0.961 . S
H724 C710 0.961 1_455 S
H725 C711 0.958 . S
H726 C711 0.961 . S
H727 C711 0.960 1_655 S
C728 C729 1.391 . S
C728 C730 1.394 . S
C728 H744 0.931 . S
C729 C728 1.391 . S
C729 C733 1.376 . S
C730 C728 1.394 . S
C730 C731 1.369 . S
C730 C734 1.531 . S
C731 C730 1.369 . S
C731 C732 1.410 . S
C731 C739 1.503 . S
C732 C731 1.410 . S
C732 C733 1.392 . S
C732 C735 1.511 . S
C733 C729 1.376 . S
C733 C732 1.392 . S
C733 H745 0.929 . S
C734 C730 1.531 . S
C734 H746 0.960 . S
C734 H747 0.962 . S
C734 H748 0.960 . S
C735 C732 1.511 . S
C735 H749 0.961 . S
C735 H750 0.961 . S
C735 H751 0.961 . S
C736 C737 1.370 . S
C736 C738 1.363 . S
C736 H752 0.931 . S
C737 C736 1.370 . S
C737 C741 1.408 . S
C738 C736 1.363 . S
C738 C739 1.370 . S
C738 C742 1.524 . S
C739 C731 1.503 . S
C739 C738 1.370 . S
C739 C740 1.403 . S
C740 C739 1.403 . S
C740 C741 1.404 . S
C740 C743 1.539 . S
C741 C737 1.408 . S
C741 C740 1.404 . S
C741 H753 0.930 . S
C742 C738 1.524 . S
C742 H754 0.956 . S
C742 H755 0.961 . S
C742 H756 0.961 . S
C743 C740 1.539 . S
C743 H757 0.958 . S
C743 H758 0.961 . S
C743 H759 0.960 . S
H744 C728 0.931 . S
H745 C733 0.929 . S
H746 C734 0.960 . S
H747 C734 0.962 . S
H748 C734 0.960 . S
H749 C735 0.961 . S
H750 C735 0.961 . S
H751 C735 0.961 . S
H752 C736 0.931 . S
H753 C741 0.930 . S
H754 C742 0.956 . S
H755 C742 0.961 . S
H756 C742 0.961 . S
H757 C743 0.958 . S
H758 C743 0.961 . S
H759 C743 0.960 . S
C760 C761 1.391 . S
C760 C762 1.394 . S
C760 H776 0.931 . S
C761 C760 1.391 . S
C761 C765 1.376 . S
C762 C760 1.394 . S
C762 C763 1.369 . S
C762 C766 1.545 . S
C763 C762 1.369 . S
C763 C764 1.410 . S
C763 C771 1.503 1_565 S
C764 C763 1.410 . S
C764 C765 1.392 . S
C764 C767 1.511 . S
C765 C761 1.376 . S
C765 C764 1.392 . S
C765 H777 0.929 . S
C766 C762 1.545 . S
C766 H778 0.946 1_565 S
C766 H779 0.943 1_565 S
C766 H780 0.980 . S
C767 C764 1.511 . S
C767 H781 0.961 . S
C767 H782 0.961 1_565 S
C767 H783 0.961 . S
C768 C769 1.370 . S
C768 C770 1.363 . S
C768 H784 0.931 . S
C769 C768 1.370 . S
C769 C773 1.408 . S
C770 C768 1.363 . S
C770 C771 1.370 . S
C770 C774 1.524 . S
C771 C763 1.503 1_545 S
C771 C770 1.370 . S
C771 C772 1.403 . S
C772 C771 1.403 . S
C772 C773 1.404 . S
C772 C775 1.539 . S
C773 C769 1.408 . S
C773 C772 1.404 . S
C773 H785 0.930 . S
C774 C770 1.524 . S
C774 H786 0.956 . S
C774 H787 0.961 . S
C774 H788 0.961 . S
C775 C772 1.539 . S
C775 H789 0.958 . S
C775 H790 0.961 . S
C775 H791 0.960 . S
H776 C760 0.931 . S
H777 C765 0.929 . S
H778 C766 0.946 1_545 S
H779 C766 0.943 1_545 S
H780 C766 0.980 . S
H781 C767 0.961 . S
H782 C767 0.961 1_545 S
H783 C767 0.961 . S
H784 C768 0.931 . S
H785 C773 0.930 . S
H786 C774 0.956 . S
H787 C774 0.961 . S
H788 C774 0.961 . S
H789 C775 0.958 . S
H790 C775 0.961 . S
H791 C775 0.960 . S
C792 C793 1.391 . S
C792 C794 1.394 . S
C792 H808 0.931 . S
C793 C792 1.391 . S
C793 C797 1.376 . S
C794 C792 1.394 . S
C794 C795 1.369 . S
C794 C798 1.531 . S
C795 C794 1.369 . S
C795 C796 1.410 . S
C795 C803 1.503 1_545 S
C796 C795 1.410 . S
C796 C797 1.392 . S
C796 C799 1.511 . S
C797 C793 1.376 . S
C797 C796 1.392 . S
C797 H809 0.929 . S
C798 C794 1.531 . S
C798 H810 0.960 1_545 S
C798 H811 0.962 1_545 S
C798 H812 0.960 . S
C799 C796 1.511 . S
C799 H813 0.961 . S
C799 H814 0.961 1_545 S
C799 H815 0.961 . S
C800 C801 1.370 . S
C800 C802 1.363 . S
C800 H816 0.931 . S
C801 C800 1.370 . S
C801 C805 1.408 . S
C802 C800 1.363 . S
C802 C803 1.370 . S
C802 C806 1.524 . S
C803 C795 1.503 1_565 S
C803 C802 1.370 . S
C803 C804 1.403 . S
C804 C803 1.403 . S
C804 C805 1.404 . S
C804 C807 1.539 . S
C805 C801 1.408 . S
C805 C804 1.404 . S
C805 H817 0.930 . S
C806 C802 1.524 . S
C806 H818 0.956 . S
C806 H819 0.961 . S
C806 H820 0.961 . S
C807 C804 1.539 . S
C807 H821 0.958 . S
C807 H822 0.961 . S
C807 H823 0.960 . S
H808 C792 0.931 . S
H809 C797 0.929 . S
H810 C798 0.960 1_565 S
H811 C798 0.962 1_565 S
H812 C798 0.960 . S
H813 C799 0.961 . S
H814 C799 0.961 1_565 S
H815 C799 0.961 . S
H816 C800 0.931 . S
H817 C805 0.930 . S
H818 C806 0.956 . S
H819 C806 0.961 . S
H820 C806 0.961 . S
H821 C807 0.958 . S
H822 C807 0.961 . S
H823 C807 0.960 . S
C824 C825 1.391 . S
C824 C826 1.394 . S
C824 H840 0.931 . S
C825 C824 1.391 . S
C825 C829 1.376 . S
C826 C824 1.394 . S
C826 C827 1.369 . S
C826 C830 1.531 . S
C827 C826 1.369 . S
C827 C828 1.410 . S
C827 C835 1.503 1_455 S
C828 C827 1.410 . S
C828 C829 1.392 . S
C828 C831 1.511 . S
C829 C825 1.376 . S
C829 C828 1.392 . S
C829 H841 0.929 . S
C830 C826 1.531 . S
C830 H842 0.960 . S
C830 H843 0.962 . S
C830 H844 0.960 . S
C831 C828 1.511 . S
C831 H845 0.961 . S
C831 H846 0.961 . S
C831 H847 0.961 . S
C832 C833 1.370 . S
C832 C834 1.363 . S
C832 H848 0.931 . S
C833 C832 1.370 . S
C833 C837 1.408 . S
C834 C832 1.363 . S
C834 C835 1.370 . S
C834 C838 1.524 1_655 S
C835 C827 1.503 1_655 S
C835 C834 1.370 . S
C835 C836 1.403 . S
C836 C835 1.403 . S
C836 C837 1.404 . S
C836 C839 1.539 . S
C837 C833 1.408 . S
C837 C836 1.404 . S
C837 H849 0.930 . S
C838 C834 1.524 1_455 S
C838 H850 0.956 . S
C838 H851 0.961 . S
C838 H852 0.961 1_455 S
C839 C836 1.539 . S
C839 H853 0.958 . S
C839 H854 0.961 . S
C839 H855 0.960 1_655 S
H840 C824 0.931 . S
H841 C829 0.929 . S
H842 C830 0.960 . S
H843 C830 0.962 . S
H844 C830 0.960 . S
H845 C831 0.961 . S
H846 C831 0.961 . S
H847 C831 0.961 . S
H848 C832 0.931 . S
H849 C837 0.930 . S
H850 C838 0.956 . S
H851 C838 0.961 . S
H852 C838 0.961 1_655 S
H853 C839 0.958 . S
H854 C839 0.961 . S
H855 C839 0.960 1_455 S
C856 C857 1.391 . S
C856 C858 1.394 . S
C856 H872 0.931 . S
C857 C856 1.391 . S
C857 C861 1.376 . S
C858 C856 1.394 . S
C858 C859 1.369 . S
C858 C862 1.531 . S
C859 C858 1.369 . S
C859 C860 1.410 . S
C859 C867 1.503 . S
C860 C859 1.410 . S
C860 C861 1.392 . S
C860 C863 1.511 . S
C861 C857 1.376 . S
C861 C860 1.392 . S
C861 H873 0.929 . S
C862 C858 1.531 . S
C862 H874 0.960 . S
C862 H875 0.962 . S
C862 H876 0.960 . S
C863 C860 1.511 . S
C863 H877 0.961 . S
C863 H878 0.961 . S
C863 H879 0.961 . S
C864 C865 1.370 . S
C864 C866 1.363 . S
C864 H880 0.931 . S
C865 C864 1.370 . S
C865 C869 1.408 . S
C866 C864 1.363 . S
C866 C867 1.370 . S
C866 C870 1.524 . S
C867 C859 1.503 . S
C867 C866 1.370 . S
C867 C868 1.403 . S
C868 C867 1.403 . S
C868 C869 1.404 . S
C868 C871 1.539 . S
C869 C865 1.408 . S
C869 C868 1.404 . S
C869 H881 0.930 . S
C870 C866 1.524 . S
C870 H882 0.956 . S
C870 H883 0.961 . S
C870 H884 0.961 . S
C871 C868 1.539 . S
C871 H885 0.958 . S
C871 H886 0.961 . S
C871 H887 0.960 . S
H872 C856 0.931 . S
H873 C861 0.929 . S
H874 C862 0.960 . S
H875 C862 0.962 . S
H876 C862 0.960 . S
H877 C863 0.961 . S
H878 C863 0.961 . S
H879 C863 0.961 . S
H880 C864 0.931 . S
H881 C869 0.930 . S
H882 C870 0.956 . S
H883 C870 0.961 . S
H884 C870 0.961 . S
H885 C871 0.958 . S
H886 C871 0.961 . S
H887 C871 0.960 . S
C888 C889 1.391 . S
C888 C890 1.394 . S
C888 H904 0.931 . S
C889 C888 1.391 . S
C889 C893 1.376 . S
C890 C888 1.394 . S
C890 C891 1.369 . S
C890 C894 1.531 . S
C891 C890 1.369 . S
C891 C892 1.410 . S
C891 C899 1.503 . S
C892 C891 1.410 . S
C892 C893 1.392 . S
C892 C895 1.511 . S
C893 C889 1.376 . S
C893 C892 1.392 . S
C893 H905 0.929 . S
C894 C890 1.531 . S
C894 H906 0.960 . S
C894 H907 0.962 . S
C894 H908 0.960 . S
C895 C892 1.511 . S
C895 H909 0.961 . S
C895 H910 0.961 . S
C895 H911 0.961 . S
C896 C897 1.370 . S
C896 C898 1.363 . S
C896 H912 0.931 . S
C897 C896 1.370 . S
C897 C901 1.408 . S
C898 C896 1.363 . S
C898 C899 1.370 . S
C898 C902 1.524 . S
C899 C891 1.503 . S
C899 C898 1.370 . S
C899 C900 1.403 . S
C900 C899 1.403 . S
C900 C901 1.404 . S
C900 C903 1.539 . S
C901 C897 1.408 . S
C901 C900 1.404 . S
C901 H913 0.930 . S
C902 C898 1.524 . S
C902 H914 0.956 . S
C902 H915 0.961 . S
C902 H916 0.961 . S
C903 C900 1.539 . S
C903 H917 0.958 . S
C903 H918 0.961 . S
C903 H919 0.960 . S
H904 C888 0.931 . S
H905 C893 0.929 . S
H906 C894 0.960 . S
H907 C894 0.962 . S
H908 C894 0.960 . S
H909 C895 0.961 . S
H910 C895 0.961 . S
H911 C895 0.961 . S
H912 C896 0.931 . S
H913 C901 0.930 . S
H914 C902 0.956 . S
H915 C902 0.961 . S
H916 C902 0.961 . S
H917 C903 0.958 . S
H918 C903 0.961 . S
H919 C903 0.960 . S
C920 C921 1.391 . S
C920 C922 1.394 . S
C920 H936 0.931 . S
C921 C920 1.391 . S
C921 C925 1.376 . S
C922 C920 1.394 . S
C922 C923 1.369 . S
C922 C926 1.531 . S
C923 C922 1.369 . S
C923 C924 1.410 . S
C923 C931 1.503 . S
C924 C923 1.410 . S
C924 C925 1.392 . S
C924 C927 1.511 . S
C925 C921 1.376 . S
C925 C924 1.392 . S
C925 H937 0.929 . S
C926 C922 1.531 . S
C926 H938 0.960 . S
C926 H939 0.962 . S
C926 H940 0.960 . S
C927 C924 1.511 . S
C927 H941 0.961 . S
C927 H942 0.961 . S
C927 H943 0.961 . S
C928 C929 1.370 . S
C928 C930 1.363 . S
C928 H944 0.931 . S
C929 C928 1.370 . S
C929 C933 1.408 . S
C930 C928 1.363 . S
C930 C931 1.370 . S
C930 C934 1.524 . S
C931 C923 1.503 . S
C931 C930 1.370 . S
C931 C932 1.403 . S
C932 C931 1.403 . S
C932 C933 1.404 . S
C932 C935 1.539 . S
C933 C929 1.408 . S
C933 C932 1.404 . S
C933 H945 0.930 . S
C934 C930 1.524 . S
C934 H946 0.956 . S
C934 H947 0.961 . S
C934 H948 0.961 . S
C935 C932 1.539 . S
C935 H949 0.958 . S
C935 H950 0.961 . S
C935 H951 0.960 . S
H936 C920 0.931 . S
H937 C925 0.929 . S
H938 C926 0.960 . S
H939 C926 0.962 . S
H940 C926 0.960 . S
H941 C927 0.961 . S
H942 C927 0.961 . S
H943 C927 0.961 . S
H944 C928 0.931 . S
H945 C933 0.930 . S
H946 C934 0.956 . S
H947 C934 0.961 . S
H948 C934 0.961 . S
H949 C935 0.958 . S
H950 C935 0.961 . S
H951 C935 0.960 . S
C952 C953 1.391 . S
C952 C954 1.394 . S
C952 H968 0.931 . S
C953 C952 1.391 . S
C953 C957 1.376 . S
C954 C952 1.394 . S
C954 C955 1.369 . S
C954 C958 1.531 . S
C955 C954 1.369 . S
C955 C956 1.410 . S
C955 C963 1.503 . S
C956 C955 1.410 . S
C956 C957 1.392 . S
C956 C959 1.511 . S
C957 C953 1.376 . S
C957 C956 1.392 . S
C957 H969 0.929 . S
C958 C954 1.531 . S
C958 H970 0.960 . S
C958 H971 0.962 . S
C958 H972 0.960 . S
C959 C956 1.511 . S
C959 H973 0.961 . S
C959 H974 0.961 . S
C959 H975 0.961 . S
C960 C961 1.370 . S
C960 C962 1.363 . S
C960 H976 0.931 . S
C961 C960 1.370 . S
C961 C965 1.408 . S
C962 C960 1.363 . S
C962 C963 1.370 . S
C962 C966 1.524 . S
C963 C955 1.503 . S
C963 C962 1.370 . S
C963 C964 1.403 . S
C964 C963 1.403 . S
C964 C965 1.404 . S
C964 C967 1.539 . S
C965 C961 1.408 . S
C965 C964 1.404 . S
C965 H977 0.930 . S
C966 C962 1.524 . S
C966 H978 0.956 . S
C966 H979 0.961 . S
C966 H980 0.961 . S
C967 C964 1.539 . S
C967 H981 0.958 . S
C967 H982 0.961 . S
C967 H983 0.960 . S
H968 C952 0.931 . S
H969 C957 0.929 . S
H970 C958 0.960 . S
H971 C958 0.962 . S
H972 C958 0.960 . S
H973 C959 0.961 . S
H974 C959 0.961 . S
H975 C959 0.961 . S
H976 C960 0.931 . S
H977 C965 0.930 . S
H978 C966 0.956 . S
H979 C966 0.961 . S
H980 C966 0.961 . S
H981 C967 0.958 . S
H982 C967 0.961 . S
H983 C967 0.960 . S
C984 C985 1.391 . S
C984 C986 1.394 . S
C984 H1000 0.931 . S
C985 C984 1.391 . S
C985 C989 1.376 . S
C986 C984 1.394 . S
C986 C987 1.369 . S
C986 C990 1.531 . S
C987 C986 1.369 . S
C987 C988 1.410 . S
C987 C995 1.503 . S
C988 C987 1.410 . S
C988 C989 1.392 . S
C988 C991 1.511 . S
C989 C985 1.376 . S
C989 C988 1.392 . S
C989 H1001 0.929 . S
C990 C986 1.531 . S
C990 H1002 0.960 . S
C990 H1003 0.962 . S
C990 H1004 0.960 . S
C991 C988 1.511 . S
C991 H1005 0.961 . S
C991 H1006 0.961 . S
C991 H1007 0.961 . S
C992 C993 1.370 . S
C992 C994 1.363 . S
C992 H1008 0.931 . S
C993 C992 1.370 . S
C993 C997 1.408 . S
C994 C992 1.363 . S
C994 C995 1.370 . S
C994 C998 1.524 . S
C995 C987 1.503 . S
C995 C994 1.370 . S
C995 C996 1.403 . S
C996 C995 1.403 . S
C996 C997 1.404 . S
C996 C999 1.539 . S
C997 C993 1.408 . S
C997 C996 1.404 . S
C997 H1009 0.930 . S
C998 C994 1.524 . S
C998 H1010 0.956 . S
C998 H1011 0.961 . S
C998 H1012 0.961 . S
C999 C996 1.539 . S
C999 H1013 0.958 . S
C999 H1014 0.961 . S
C999 H1015 0.960 . S
H1000 C984 0.931 . S
H1001 C989 0.929 . S
H1002 C990 0.960 . S
H1003 C990 0.962 . S
H1004 C990 0.960 . S
H1005 C991 0.961 . S
H1006 C991 0.961 . S
H1007 C991 0.961 . S
H1008 C992 0.931 . S
H1009 C997 0.930 . S
H1010 C998 0.956 . S
H1011 C998 0.961 . S
H1012 C998 0.961 . S
H1013 C999 0.958 . S
H1014 C999 0.961 . S
H1015 C999 0.960 . S
C1016 C1017 1.391 . S
C1016 C1018 1.394 . S
C1016 H1032 0.931 . S
C1017 C1016 1.391 . S
C1017 C1021 1.376 . S
C1018 C1016 1.394 . S
C1018 C1019 1.369 . S
C1018 C1022 1.531 . S
C1019 C1018 1.369 . S
C1019 C1020 1.410 . S
C1019 C1027 1.503 . S
C1020 C1019 1.410 . S
C1020 C1021 1.392 . S
C1020 C1023 1.511 . S
C1021 C1017 1.376 . S
C1021 C1020 1.392 . S
C1021 H1033 0.929 . S
C1022 C1018 1.531 . S
C1022 H1034 0.960 . S
C1022 H1035 0.962 . S
C1022 H1036 0.960 . S
C1023 C1020 1.511 . S
C1023 H1037 0.961 . S
C1023 H1038 0.961 . S
C1023 H1039 0.961 . S
C1024 C1025 1.370 . S
C1024 C1026 1.363 . S
C1024 H1040 0.931 . S
C1025 C1024 1.370 . S
C1025 C1029 1.408 . S
C1026 C1024 1.363 . S
C1026 C1027 1.370 . S
C1026 C1030 1.524 . S
C1027 C1019 1.503 . S
C1027 C1026 1.370 . S
C1027 C1028 1.403 . S
C1028 C1027 1.403 . S
C1028 C1029 1.404 . S
C1028 C1031 1.539 . S
C1029 C1025 1.408 . S
C1029 C1028 1.404 . S
C1029 H1041 0.930 . S
C1030 C1026 1.524 . S
C1030 H1042 0.956 . S
C1030 H1043 0.961 . S
C1030 H1044 0.961 . S
C1031 C1028 1.539 . S
C1031 H1045 0.958 . S
C1031 H1046 0.961 . S
C1031 H1047 0.960 . S
H1032 C1016 0.931 . S
H1033 C1021 0.929 . S
H1034 C1022 0.960 . S
H1035 C1022 0.962 . S
H1036 C1022 0.960 . S
H1037 C1023 0.961 . S
H1038 C1023 0.961 . S
H1039 C1023 0.961 . S
H1040 C1024 0.931 . S
H1041 C1029 0.930 . S
H1042 C1030 0.956 . S
H1043 C1030 0.961 . S
H1044 C1030 0.961 . S
H1045 C1031 0.958 . S
H1046 C1031 0.961 . S
H1047 C1031 0.960 . S
C1048 C1049 1.391 . S
C1048 C1050 1.394 . S
C1048 H1064 0.931 . S
C1049 C1048 1.391 . S
C1049 C1053 1.376 . S
C1050 C1048 1.394 . S
C1050 C1051 1.369 . S
C1050 C1054 1.531 . S
C1051 C1050 1.369 . S
C1051 C1052 1.410 . S
C1051 C1059 1.503 . S
C1052 C1051 1.410 . S
C1052 C1053 1.392 . S
C1052 C1055 1.511 . S
C1053 C1049 1.376 . S
C1053 C1052 1.392 . S
C1053 H1065 0.929 . S
C1054 C1050 1.531 . S
C1054 H1066 0.960 . S
C1054 H1067 0.962 . S
C1054 H1068 0.960 . S
C1055 C1052 1.511 . S
C1055 H1069 0.961 . S
C1055 H1070 0.961 . S
C1055 H1071 0.961 . S
C1056 C1057 1.370 . S
C1056 C1058 1.363 . S
C1056 H1072 0.931 . S
C1057 C1056 1.370 . S
C1057 C1061 1.408 . S
C1058 C1056 1.363 . S
C1058 C1059 1.370 . S
C1058 C1062 1.524 . S
C1059 C1051 1.503 . S
C1059 C1058 1.370 . S
C1059 C1060 1.403 . S
C1060 C1059 1.403 . S
C1060 C1061 1.404 . S
C1060 C1063 1.539 . S
C1061 C1057 1.408 . S
C1061 C1060 1.404 . S
C1061 H1073 0.930 . S
C1062 C1058 1.524 . S
C1062 H1074 0.956 . S
C1062 H1075 0.961 . S
C1062 H1076 0.961 . S
C1063 C1060 1.539 . S
C1063 H1077 0.958 . S
C1063 H1078 0.961 . S
C1063 H1079 0.960 . S
H1064 C1048 0.931 . S
H1065 C1053 0.929 . S
H1066 C1054 0.960 . S
H1067 C1054 0.962 . S
H1068 C1054 0.960 . S
H1069 C1055 0.961 . S
H1070 C1055 0.961 . S
H1071 C1055 0.961 . S
H1072 C1056 0.931 . S
H1073 C1061 0.930 . S
H1074 C1062 0.956 . S
H1075 C1062 0.961 . S
H1076 C1062 0.961 . S
H1077 C1063 0.958 . S
H1078 C1063 0.961 . S
H1079 C1063 0.960 . S
C1080 C1081 1.391 . S
C1080 C1082 1.394 . S
C1080 H1096 0.931 . S
C1081 C1080 1.391 . S
C1081 C1085 1.376 . S
C1082 C1080 1.394 . S
C1082 C1083 1.369 . S
C1082 C1086 1.531 . S
C1083 C1082 1.369 . S
C1083 C1084 1.410 . S
C1083 C1091 1.503 . S
C1084 C1083 1.410 . S
C1084 C1085 1.392 . S
C1084 C1087 1.511 . S
C1085 C1081 1.376 . S
C1085 C1084 1.392 . S
C1085 H1097 0.929 . S
C1086 C1082 1.531 . S
C1086 H1098 0.960 . S
C1086 H1099 0.962 . S
C1086 H1100 0.960 . S
C1087 C1084 1.511 . S
C1087 H1101 0.961 . S
C1087 H1102 0.961 . S
C1087 H1103 0.961 . S
C1088 C1089 1.370 . S
C1088 C1090 1.363 . S
C1088 H1104 0.931 . S
C1089 C1088 1.370 . S
C1089 C1093 1.408 . S
C1090 C1088 1.363 . S
C1090 C1091 1.370 . S
C1090 C1094 1.524 . S
C1091 C1083 1.503 . S
C1091 C1090 1.370 . S
C1091 C1092 1.403 . S
C1092 C1091 1.403 . S
C1092 C1093 1.404 . S
C1092 C1095 1.539 . S
C1093 C1089 1.408 . S
C1093 C1092 1.404 . S
C1093 H1105 0.930 . S
C1094 C1090 1.524 . S
C1094 H1106 0.956 . S
C1094 H1107 0.961 . S
C1094 H1108 0.961 . S
C1095 C1092 1.539 . S
C1095 H1109 0.958 . S
C1095 H1110 0.961 . S
C1095 H1111 0.960 . S
H1096 C1080 0.931 . S
H1097 C1085 0.929 . S
H1098 C1086 0.960 . S
H1099 C1086 0.962 . S
H1100 C1086 0.960 . S
H1101 C1087 0.961 . S
H1102 C1087 0.961 . S
H1103 C1087 0.961 . S
H1104 C1088 0.931 . S
H1105 C1093 0.930 . S
H1106 C1094 0.956 . S
H1107 C1094 0.961 . S
H1108 C1094 0.961 . S
H1109 C1095 0.958 . S
H1110 C1095 0.961 . S
H1111 C1095 0.960 . S
C1112 C1113 1.391 . S
C1112 C1114 1.394 . S
C1112 H1128 0.931 . S
C1113 C1112 1.391 . S
C1113 C1117 1.376 . S
C1114 C1112 1.394 . S
C1114 C1115 1.369 . S
C1114 C1118 1.531 . S
C1115 C1114 1.369 . S
C1115 C1116 1.410 . S
C1115 C1123 1.503 . S
C1116 C1115 1.410 . S
C1116 C1117 1.392 . S
C1116 C1119 1.511 . S
C1117 C1113 1.376 . S
C1117 C1116 1.392 . S
C1117 H1129 0.929 . S
C1118 C1114 1.531 . S
C1118 H1130 0.960 . S
C1118 H1131 0.962 . S
C1118 H1132 0.960 . S
C1119 C1116 1.511 . S
C1119 H1133 0.961 . S
C1119 H1134 0.961 . S
C1119 H1135 0.961 . S
C1120 C1121 1.370 . S
C1120 C1122 1.363 . S
C1120 H1136 0.931 . S
C1121 C1120 1.370 . S
C1121 C1125 1.408 . S
C1122 C1120 1.363 . S
C1122 C1123 1.370 . S
C1122 C1126 1.524 . S
C1123 C1115 1.503 . S
C1123 C1122 1.370 . S
C1123 C1124 1.403 . S
C1124 C1123 1.403 . S
C1124 C1125 1.404 . S
C1124 C1127 1.539 . S
C1125 C1121 1.408 . S
C1125 C1124 1.404 . S
C1125 H1137 0.930 . S
C1126 C1122 1.524 . S
C1126 H1138 0.956 . S
C1126 H1139 0.961 . S
C1126 H1140 0.961 . S
C1127 C1124 1.539 . S
C1127 H1141 0.958 . S
C1127 H1142 0.961 . S
C1127 H1143 0.960 . S
H1128 C1112 0.931 . S
H1129 C1117 0.929 . S
H1130 C1118 0.960 . S
H1131 C1118 0.962 . S
H1132 C1118 0.960 . S
H1133 C1119 0.961 . S
H1134 C1119 0.961 . S
H1135 C1119 0.961 . S
H1136 C1120 0.931 . S
H1137 C1125 0.930 . S
H1138 C1126 0.956 . S
H1139 C1126 0.961 . S
H1140 C1126 0.961 . S
H1141 C1127 0.958 . S
H1142 C1127 0.961 . S
H1143 C1127 0.960 . S
C1144 C1145 1.391 . S
C1144 C1146 1.394 . S
C1144 H1160 0.931 . S
C1145 C1144 1.391 . S
C1145 C1149 1.376 . S
C1146 C1144 1.394 . S
C1146 C1147 1.369 . S
C1146 C1150 1.531 . S
C1147 C1146 1.369 . S
C1147 C1148 1.410 . S
C1147 C1155 1.503 . S
C1148 C1147 1.410 . S
C1148 C1149 1.392 . S
C1148 C1151 1.511 . S
C1149 C1145 1.376 . S
C1149 C1148 1.392 . S
C1149 H1161 0.929 . S
C1150 C1146 1.531 . S
C1150 H1162 0.960 . S
C1150 H1163 0.962 . S
C1150 H1164 0.960 . S
C1151 C1148 1.511 . S
C1151 H1165 0.961 . S
C1151 H1166 0.961 . S
C1151 H1167 0.961 . S
C1152 C1153 1.370 . S
C1152 C1154 1.363 . S
C1152 H1168 0.931 . S
C1153 C1152 1.370 . S
C1153 C1157 1.408 . S
C1154 C1152 1.363 . S
C1154 C1155 1.370 . S
C1154 C1158 1.524 . S
C1155 C1147 1.503 . S
C1155 C1154 1.370 . S
C1155 C1156 1.403 . S
C1156 C1155 1.403 . S
C1156 C1157 1.404 . S
C1156 C1159 1.539 . S
C1157 C1153 1.408 . S
C1157 C1156 1.404 . S
C1157 H1169 0.930 . S
C1158 C1154 1.524 . S
C1158 H1170 0.956 . S
C1158 H1171 0.961 . S
C1158 H1172 0.961 . S
C1159 C1156 1.539 . S
C1159 H1173 0.958 . S
C1159 H1174 0.961 . S
C1159 H1175 0.960 . S
H1160 C1144 0.931 . S
H1161 C1149 0.929 . S
H1162 C1150 0.960 . S
H1163 C1150 0.962 . S
H1164 C1150 0.960 . S
H1165 C1151 0.961 . S
H1166 C1151 0.961 . S
H1167 C1151 0.961 . S
H1168 C1152 0.931 . S
H1169 C1157 0.930 . S
H1170 C1158 0.956 . S
H1171 C1158 0.961 . S
H1172 C1158 0.961 . S
H1173 C1159 0.958 . S
H1174 C1159 0.961 . S
H1175 C1159 0.960 . S
C1176 C1177 1.391 . S
C1176 C1178 1.394 . S
C1176 H1192 0.834 1_554 S
C1177 C1176 1.391 . S
C1177 C1181 1.376 . S
C1178 C1176 1.394 . S
C1178 C1179 1.369 . S
C1178 C1182 1.531 1_554 S
C1179 C1178 1.369 . S
C1179 C1180 1.410 . S
C1179 C1187 1.503 . S
C1180 C1179 1.410 . S
C1180 C1181 1.392 . S
C1180 C1183 1.511 . S
C1181 C1177 1.376 . S
C1181 C1180 1.392 . S
C1181 H1193 0.929 . S
C1182 C1178 1.531 1_556 S
C1182 H1194 0.960 . S
C1182 H1195 0.962 . S
C1182 H1196 0.960 . S
C1183 C1180 1.511 . S
C1183 H1197 0.961 . S
C1183 H1198 0.961 . S
C1183 H1199 0.961 . S
C1184 C1185 1.370 . S
C1184 C1186 1.363 . S
C1184 H1200 0.931 . S
C1185 C1184 1.370 . S
C1185 C1189 1.408 . S
C1186 C1184 1.363 . S
C1186 C1187 1.370 . S
C1186 C1190 1.524 . S
C1187 C1179 1.503 . S
C1187 C1186 1.370 . S
C1187 C1188 1.403 . S
C1188 C1187 1.403 . S
C1188 C1189 1.404 . S
C1188 C1191 1.539 . S
C1189 C1185 1.408 . S
C1189 C1188 1.404 . S
C1189 H1201 0.930 . S
C1190 C1186 1.524 . S
C1190 H1202 0.956 . S
C1190 H1203 0.961 . S
C1190 H1204 0.961 . S
C1191 C1188 1.539 . S
C1191 H1205 0.958 . S
C1191 H1206 0.961 . S
C1191 H1207 0.960 . S
H1192 C1176 0.834 1_556 S
H1193 C1181 0.929 . S
H1194 C1182 0.960 . S
H1195 C1182 0.962 . S
H1196 C1182 0.960 . S
H1197 C1183 0.961 . S
H1198 C1183 0.961 . S
H1199 C1183 0.961 . S
H1200 C1184 0.931 . S
H1201 C1189 0.930 . S
H1202 C1190 0.956 . S
H1203 C1190 0.961 . S
H1204 C1190 0.961 . S
H1205 C1191 0.958 . S
H1206 C1191 0.961 . S
H1207 C1191 0.960 . S
C1208 C1209 1.391 . S
C1208 C1210 1.394 . S
C1208 H1224 0.931 . S
C1209 C1208 1.391 . S
C1209 C1213 1.376 . S
C1210 C1208 1.394 . S
C1210 C1211 1.369 . S
C1210 C1214 1.531 . S
C1211 C1210 1.369 . S
C1211 C1212 1.410 . S
C1211 C1219 1.503 . S
C1212 C1211 1.410 . S
C1212 C1213 1.392 . S
C1212 C1215 1.511 . S
C1213 C1209 1.376 . S
C1213 C1212 1.392 . S
C1213 H1225 0.929 . S
C1214 C1210 1.531 . S
C1214 H1226 0.960 . S
C1214 H1227 0.962 . S
C1214 H1228 0.960 . S
C1215 C1212 1.511 . S
C1215 H1229 0.961 . S
C1215 H1230 0.961 . S
C1215 H1231 0.961 . S
C1216 C1217 1.370 . S
C1216 C1218 1.363 . S
C1216 H1232 0.931 . S
C1217 C1216 1.370 . S
C1217 C1221 1.408 . S
C1218 C1216 1.363 . S
C1218 C1219 1.370 . S
C1218 C1222 1.524 . S
C1219 C1211 1.503 . S
C1219 C1218 1.370 . S
C1219 C1220 1.403 . S
C1220 C1219 1.403 . S
C1220 C1221 1.404 . S
C1220 C1223 1.539 1_554 S
C1221 C1217 1.408 . S
C1221 C1220 1.404 . S
C1221 H1233 0.840 1_554 S
C1222 C1218 1.524 . S
C1222 H1234 0.956 . S
C1222 H1235 0.961 . S
C1222 H1236 0.961 . S
C1223 C1220 1.539 1_556 S
C1223 H1237 0.958 . S
C1223 H1238 0.961 . S
C1223 H1239 0.960 . S
H1224 C1208 0.931 . S
H1225 C1213 0.929 . S
H1226 C1214 0.960 . S
H1227 C1214 0.962 . S
H1228 C1214 0.960 . S
H1229 C1215 0.961 . S
H1230 C1215 0.961 . S
H1231 C1215 0.961 . S
H1232 C1216 0.931 . S
H1233 C1221 0.840 1_556 S
H1234 C1222 0.956 . S
H1235 C1222 0.961 . S
H1236 C1222 0.961 . S
H1237 C1223 0.958 . S
H1238 C1223 0.961 . S
H1239 C1223 0.960 . S
C1240 C1241 1.391 . S
C1240 C1242 1.394 . S
C1240 H1256 0.931 . S
C1241 C1240 1.391 . S
C1241 C1245 1.376 . S
C1242 C1240 1.394 . S
C1242 C1243 1.369 . S
C1242 C1246 1.531 . S
C1243 C1242 1.369 . S
C1243 C1244 1.410 . S
C1243 C1251 1.503 . S
C1244 C1243 1.410 . S
C1244 C1245 1.392 . S
C1244 C1247 1.511 . S
C1245 C1241 1.376 . S
C1245 C1244 1.392 . S
C1245 H1257 0.929 . S
C1246 C1242 1.531 . S
C1246 H1258 0.960 . S
C1246 H1259 0.962 . S
C1246 H1260 1.004 . S
C1247 C1244 1.511 . S
C1247 H1261 0.961 . S
C1247 H1262 0.961 . S
C1247 H1263 0.961 . S
C1248 C1249 1.370 . S
C1248 C1250 1.363 . S
C1248 H1264 0.931 . S
C1249 C1248 1.370 . S
C1249 C1253 1.408 . S
C1250 C1248 1.363 . S
C1250 C1251 1.370 . S
C1250 C1254 1.524 . S
C1251 C1243 1.503 . S
C1251 C1250 1.370 . S
C1251 C1252 1.403 . S
C1252 C1251 1.403 . S
C1252 C1253 1.404 . S
C1252 C1255 1.539 1_554 S
C1253 C1249 1.408 . S
C1253 C1252 1.404 . S
C1253 H1265 0.930 . S
C1254 C1250 1.524 . S
C1254 H1266 0.956 . S
C1254 H1267 0.961 . S
C1254 H1268 0.961 . S
C1255 C1252 1.539 1_556 S
C1255 H1269 0.958 . S
C1255 H1270 0.961 . S
C1255 H1271 0.960 . S
H1256 C1240 0.931 . S
H1257 C1245 0.929 . S
H1258 C1246 0.960 . S
H1259 C1246 0.962 . S
H1260 C1246 1.004 . S
H1261 C1247 0.961 . S
H1262 C1247 0.961 . S
H1263 C1247 0.961 . S
H1264 C1248 0.931 . S
H1265 C1253 0.930 . S
H1266 C1254 0.956 . S
H1267 C1254 0.961 . S
H1268 C1254 0.961 . S
H1269 C1255 0.958 . S
H1270 C1255 0.961 . S
H1271 C1255 0.960 . S
C1272 C1273 1.391 . S
C1272 C1274 1.394 . S
C1272 H1288 0.931 . S
C1273 C1272 1.391 . S
C1273 C1277 1.376 . S
C1274 C1272 1.394 . S
C1274 C1275 1.369 . S
C1274 C1278 1.531 . S
C1275 C1274 1.369 . S
C1275 C1276 1.410 . S
C1275 C1283 1.503 . S
C1276 C1275 1.410 . S
C1276 C1277 1.392 . S
C1276 C1279 1.511 . S
C1277 C1273 1.376 . S
C1277 C1276 1.392 . S
C1277 H1289 0.929 . S
C1278 C1274 1.531 . S
C1278 H1290 0.960 . S
C1278 H1291 0.962 . S
C1278 H1292 0.960 . S
C1279 C1276 1.511 . S
C1279 H1293 0.961 . S
C1279 H1294 0.961 . S
C1279 H1295 0.961 . S
C1280 C1281 1.370 . S
C1280 C1282 1.363 . S
C1280 H1296 0.931 . S
C1281 C1280 1.370 . S
C1281 C1285 1.408 . S
C1282 C1280 1.363 . S
C1282 C1283 1.370 . S
C1282 C1286 1.524 . S
C1283 C1275 1.503 . S
C1283 C1282 1.370 . S
C1283 C1284 1.403 . S
C1284 C1283 1.403 . S
C1284 C1285 1.404 . S
C1284 C1287 1.539 . S
C1285 C1281 1.408 . S
C1285 C1284 1.404 . S
C1285 H1297 0.930 . S
C1286 C1282 1.524 . S
C1286 H1298 0.956 . S
C1286 H1299 0.961 . S
C1286 H1300 0.961 . S
C1287 C1284 1.539 . S
C1287 H1301 0.958 . S
C1287 H1302 0.961 . S
C1287 H1303 0.960 . S
H1288 C1272 0.931 . S
H1289 C1277 0.929 . S
H1290 C1278 0.960 . S
H1291 C1278 0.962 . S
H1292 C1278 0.960 . S
H1293 C1279 0.961 . S
H1294 C1279 0.961 . S
H1295 C1279 0.961 . S
H1296 C1280 0.931 . S
H1297 C1285 0.930 . S
H1298 C1286 0.956 . S
H1299 C1286 0.961 . S
H1300 C1286 0.961 . S
H1301 C1287 0.958 . S
H1302 C1287 0.961 . S
H1303 C1287 0.960 . S
C1304 C1305 1.391 . S
C1304 C1306 1.394 . S
C1304 H1320 0.931 . S
C1305 C1304 1.391 . S
C1305 C1309 1.376 . S
C1306 C1304 1.394 . S
C1306 C1307 1.369 . S
C1306 C1310 1.531 . S
C1307 C1306 1.369 . S
C1307 C1308 1.410 . S
C1307 C1315 1.503 . S
C1308 C1307 1.410 . S
C1308 C1309 1.392 . S
C1308 C1311 1.511 . S
C1309 C1305 1.376 . S
C1309 C1308 1.392 . S
C1309 H1321 0.929 . S
C1310 C1306 1.531 . S
C1310 H1322 0.960 . S
C1310 H1323 0.962 . S
C1310 H1324 0.960 . S
C1311 C1308 1.511 . S
C1311 H1325 0.961 . S
C1311 H1326 0.961 . S
C1311 H1327 0.961 . S
C1312 C1313 1.370 . S
C1312 C1314 1.363 . S
C1312 H1328 0.931 . S
C1313 C1312 1.370 . S
C1313 C1317 1.408 . S
C1314 C1312 1.363 . S
C1314 C1315 1.370 . S
C1314 C1318 1.524 . S
C1315 C1307 1.503 . S
C1315 C1314 1.370 . S
C1315 C1316 1.403 . S
C1316 C1315 1.403 . S
C1316 C1317 1.404 . S
C1316 C1319 1.539 . S
C1317 C1313 1.408 . S
C1317 C1316 1.404 . S
C1317 H1329 0.930 . S
C1318 C1314 1.524 . S
C1318 H1330 0.956 . S
C1318 H1331 0.961 . S
C1318 H1332 0.961 . S
C1319 C1316 1.539 . S
C1319 H1333 0.958 . S
C1319 H1334 0.961 . S
C1319 H1335 0.960 . S
H1320 C1304 0.931 . S
H1321 C1309 0.929 . S
H1322 C1310 0.960 . S
H1323 C1310 0.962 . S
H1324 C1310 0.960 . S
H1325 C1311 0.961 . S
H1326 C1311 0.961 . S
H1327 C1311 0.961 . S
H1328 C1312 0.931 . S
H1329 C1317 0.930 . S
H1330 C1318 0.956 . S
H1331 C1318 0.961 . S
H1332 C1318 0.961 . S
H1333 C1319 0.958 . S
H1334 C1319 0.961 . S
H1335 C1319 0.960 . S
C1336 C1337 1.391 . S
C1336 C1338 1.394 . S
C1336 H1352 0.931 . S
C1337 C1336 1.391 . S
C1337 C1341 1.376 . S
C1338 C1336 1.394 . S
C1338 C1339 1.369 . S
C1338 C1342 1.531 . S
C1339 C1338 1.369 . S
C1339 C1340 1.410 . S
C1339 C1347 1.503 . S
C1340 C1339 1.410 . S
C1340 C1341 1.392 . S
C1340 C1343 1.511 . S
C1341 C1337 1.376 . S
C1341 C1340 1.392 . S
C1341 H1353 0.929 . S
C1342 C1338 1.531 . S
C1342 H1354 0.960 . S
C1342 H1355 0.962 . S
C1342 H1356 0.960 . S
C1343 C1340 1.511 . S
C1343 H1357 0.961 . S
C1343 H1358 0.961 . S
C1343 H1359 0.961 . S
C1344 C1345 1.370 . S
C1344 C1346 1.363 . S
C1344 H1360 0.931 . S
C1345 C1344 1.370 . S
C1345 C1349 1.408 . S
C1346 C1344 1.363 . S
C1346 C1347 1.370 . S
C1346 C1350 1.524 . S
C1347 C1339 1.503 . S
C1347 C1346 1.370 . S
C1347 C1348 1.403 . S
C1348 C1347 1.403 . S
C1348 C1349 1.404 . S
C1348 C1351 1.539 . S
C1349 C1345 1.408 . S
C1349 C1348 1.404 . S
C1349 H1361 0.930 . S
C1350 C1346 1.524 . S
C1350 H1362 0.956 . S
C1350 H1363 0.961 . S
C1350 H1364 0.961 . S
C1351 C1348 1.539 . S
C1351 H1365 0.958 . S
C1351 H1366 0.961 . S
C1351 H1367 0.960 . S
H1352 C1336 0.931 . S
H1353 C1341 0.929 . S
H1354 C1342 0.960 . S
H1355 C1342 0.962 . S
H1356 C1342 0.960 . S
H1357 C1343 0.961 . S
H1358 C1343 0.961 . S
H1359 C1343 0.961 . S
H1360 C1344 0.931 . S
H1361 C1349 0.930 . S
H1362 C1350 0.956 . S
H1363 C1350 0.961 . S
H1364 C1350 0.961 . S
H1365 C1351 0.958 . S
H1366 C1351 0.961 . S
H1367 C1351 0.960 . S
C1368 C1369 1.391 . S
C1368 C1370 1.394 . S
C1368 H1384 0.931 . S
C1369 C1368 1.391 . S
C1369 C1373 1.376 . S
C1370 C1368 1.394 . S
C1370 C1371 1.369 . S
C1370 C1374 1.531 . S
C1371 C1370 1.369 . S
C1371 C1372 1.410 . S
C1371 C1379 1.503 . S
C1372 C1371 1.410 . S
C1372 C1373 1.392 . S
C1372 C1375 1.511 1_556 S
C1373 C1369 1.376 . S
C1373 C1372 1.392 . S
C1373 H1385 0.929 . S
C1374 C1370 1.531 . S
C1374 H1386 0.960 . S
C1374 H1387 0.962 . S
C1374 H1388 0.960 . S
C1375 C1372 1.511 1_554 S
C1375 H1389 0.961 . S
C1375 H1390 0.928 1_554 S
C1375 H1391 0.961 . S
C1376 C1377 1.370 . S
C1376 C1378 1.363 . S
C1376 H1392 0.931 . S
C1377 C1376 1.370 . S
C1377 C1381 1.408 . S
C1378 C1376 1.363 . S
C1378 C1379 1.370 . S
C1378 C1382 1.524 . S
C1379 C1371 1.503 . S
C1379 C1378 1.370 . S
C1379 C1380 1.403 . S
C1380 C1379 1.403 . S
C1380 C1381 1.404 . S
C1380 C1383 1.539 . S
C1381 C1377 1.408 . S
C1381 C1380 1.404 . S
C1381 H1393 0.930 . S
C1382 C1378 1.524 . S
C1382 H1394 0.956 . S
C1382 H1395 0.961 . S
C1382 H1396 0.961 . S
C1383 C1380 1.539 . S
C1383 H1397 0.958 . S
C1383 H1398 0.902 1_556 S
C1383 H1399 0.960 . S
H1384 C1368 0.931 . S
H1385 C1373 0.929 . S
H1386 C1374 0.960 . S
H1387 C1374 0.962 . S
H1388 C1374 0.960 . S
H1389 C1375 0.961 . S
H1390 C1375 0.928 1_556 S
H1391 C1375 0.961 . S
H1392 C1376 0.931 . S
H1393 C1381 0.930 . S
H1394 C1382 0.956 . S
H1395 C1382 0.961 . S
H1396 C1382 0.961 . S
H1397 C1383 0.958 . S
H1398 C1383 0.902 1_554 S
H1399 C1383 0.960 . S
C1400 C1401 1.391 . S
C1400 C1402 1.394 . S
C1400 H1416 0.931 . S
C1401 C1400 1.391 . S
C1401 C1405 1.376 . S
C1402 C1400 1.394 . S
C1402 C1403 1.369 . S
C1402 C1406 1.531 . S
C1403 C1402 1.369 . S
C1403 C1404 1.410 . S
C1403 C1411 1.503 . S
C1404 C1403 1.410 . S
C1404 C1405 1.392 . S
C1404 C1407 1.511 . S
C1405 C1401 1.376 . S
C1405 C1404 1.392 . S
C1405 H1417 0.929 . S
C1406 C1402 1.531 . S
C1406 H1418 0.960 . S
C1406 H1419 0.962 . S
C1406 H1420 0.960 . S
C1407 C1404 1.511 . S
C1407 H1421 0.961 . S
C1407 H1422 0.961 . S
C1407 H1423 0.961 . S
C1408 C1409 1.370 . S
C1408 C1410 1.363 . S
C1408 H1424 1.012 . S
C1409 C1408 1.370 . S
C1409 C1413 1.408 . S
C1410 C1408 1.363 . S
C1410 C1411 1.370 . S
C1410 C1414 1.473 1_556 S
C1411 C1403 1.503 . S
C1411 C1410 1.370 . S
C1411 C1412 1.403 . S
C1412 C1411 1.403 . S
C1412 C1413 1.404 . S
C1412 C1415 1.539 . S
C1413 C1409 1.408 . S
C1413 C1412 1.404 . S
C1413 H1425 0.930 . S
C1414 C1410 1.473 1_554 S
C1414 H1426 0.932 1_554 S
C1414 H1427 0.974 . S
C1414 H1428 1.017 . S
C1415 C1412 1.539 . S
C1415 H1429 0.958 . S
C1415 H1430 0.961 . S
C1415 H1431 0.960 . S
H1416 C1400 0.931 . S
H1417 C1405 0.929 . S
H1418 C1406 0.960 . S
H1419 C1406 0.962 . S
H1420 C1406 0.960 . S
H1421 C1407 0.961 . S
H1422 C1407 0.961 . S
H1423 C1407 0.961 . S
H1424 C1408 1.012 . S
H1425 C1413 0.930 . S
H1426 C1414 0.932 1_556 S
H1427 C1414 0.974 . S
H1428 C1414 1.017 . S
H1429 C1415 0.958 . S
H1430 C1415 0.961 . S
H1431 C1415 0.960 . S
C1432 C1433 1.391 . S
C1432 C1434 1.394 . S
C1432 H1448 0.931 . S
C1433 C1432 1.391 . S
C1433 C1437 1.376 . S
C1434 C1432 1.394 . S
C1434 C1435 1.369 . S
C1434 C1438 1.531 . S
C1435 C1434 1.369 . S
C1435 C1436 1.410 . S
C1435 C1443 1.503 . S
C1436 C1435 1.410 . S
C1436 C1437 1.392 . S
C1436 C1439 1.511 . S
C1437 C1433 1.376 . S
C1437 C1436 1.392 . S
C1437 H1449 0.929 . S
C1438 C1434 1.531 . S
C1438 H1450 0.960 . S
C1438 H1451 0.962 . S
C1438 H1452 0.960 . S
C1439 C1436 1.511 . S
C1439 H1453 0.961 . S
C1439 H1454 0.961 . S
C1439 H1455 0.961 . S
C1440 C1441 1.370 . S
C1440 C1442 1.363 . S
C1440 H1456 0.931 . S
C1441 C1440 1.370 . S
C1441 C1445 1.408 . S
C1442 C1440 1.363 . S
C1442 C1443 1.370 . S
C1442 C1446 1.533 . S
C1443 C1435 1.503 . S
C1443 C1442 1.370 . S
C1443 C1444 1.403 . S
C1444 C1443 1.403 . S
C1444 C1445 1.404 . S
C1444 C1447 1.539 . S
C1445 C1441 1.408 . S
C1445 C1444 1.404 . S
C1445 H1457 0.930 . S
C1446 C1442 1.533 . S
C1446 H1458 0.952 1_556 S
C1446 H1459 0.963 . S
C1446 H1460 0.954 1_556 S
C1447 C1444 1.539 . S
C1447 H1461 0.958 . S
C1447 H1462 0.961 . S
C1447 H1463 0.960 . S
H1448 C1432 0.931 . S
H1449 C1437 0.929 . S
H1450 C1438 0.960 . S
H1451 C1438 0.962 . S
H1452 C1438 0.960 . S
H1453 C1439 0.961 . S
H1454 C1439 0.961 . S
H1455 C1439 0.961 . S
H1456 C1440 0.931 . S
H1457 C1445 0.930 . S
H1458 C1446 0.952 1_554 S
H1459 C1446 0.963 . S
H1460 C1446 0.954 1_554 S
H1461 C1447 0.958 . S
H1462 C1447 0.961 . S
H1463 C1447 0.960 . S
C1464 C1465 1.391 . S
C1464 C1466 1.394 . S
C1464 H1480 0.931 . S
C1465 C1464 1.391 . S
C1465 C1469 1.376 . S
C1466 C1464 1.394 . S
C1466 C1467 1.369 . S
C1466 C1470 1.531 . S
C1467 C1466 1.369 . S
C1467 C1468 1.410 . S
C1467 C1475 1.503 . S
C1468 C1467 1.410 . S
C1468 C1469 1.392 . S
C1468 C1471 1.511 . S
C1469 C1465 1.376 . S
C1469 C1468 1.392 . S
C1469 H1481 0.929 . S
C1470 C1466 1.531 . S
C1470 H1482 0.960 . S
C1470 H1483 0.962 . S
C1470 H1484 0.960 . S
C1471 C1468 1.511 . S
C1471 H1485 0.961 . S
C1471 H1486 0.961 . S
C1471 H1487 0.961 . S
C1472 C1473 1.370 . S
C1472 C1474 1.363 . S
C1472 H1488 0.931 . S
C1473 C1472 1.370 . S
C1473 C1477 1.408 . S
C1474 C1472 1.363 . S
C1474 C1475 1.370 . S
C1474 C1478 1.524 . S
C1475 C1467 1.503 . S
C1475 C1474 1.370 . S
C1475 C1476 1.403 . S
C1476 C1475 1.403 . S
C1476 C1477 1.404 . S
C1476 C1479 1.539 . S
C1477 C1473 1.408 . S
C1477 C1476 1.404 . S
C1477 H1489 0.930 . S
C1478 C1474 1.524 . S
C1478 H1490 0.956 . S
C1478 H1491 0.961 . S
C1478 H1492 0.961 . S
C1479 C1476 1.539 . S
C1479 H1493 0.958 . S
C1479 H1494 0.961 . S
C1479 H1495 0.960 . S
H1480 C1464 0.931 . S
H1481 C1469 0.929 . S
H1482 C1470 0.960 . S
H1483 C1470 0.962 . S
H1484 C1470 0.960 . S
H1485 C1471 0.961 . S
H1486 C1471 0.961 . S
H1487 C1471 0.961 . S
H1488 C1472 0.931 . S
H1489 C1477 0.930 . S
H1490 C1478 0.956 . S
H1491 C1478 0.961 . S
H1492 C1478 0.961 . S
H1493 C1479 0.958 . S
H1494 C1479 0.961 . S
H1495 C1479 0.960 . S
C1496 C1497 1.391 . S
C1496 C1498 1.394 . S
C1496 H1512 0.931 . S
C1497 C1496 1.391 . S
C1497 C1501 1.376 . S
C1498 C1496 1.394 . S
C1498 C1499 1.369 . S
C1498 C1502 1.531 . S
C1499 C1498 1.369 . S
C1499 C1500 1.410 . S
C1499 C1507 1.503 . S
C1500 C1499 1.410 . S
C1500 C1501 1.392 . S
C1500 C1503 1.511 . S
C1501 C1497 1.376 . S
C1501 C1500 1.392 . S
C1501 H1513 0.929 . S
C1502 C1498 1.531 . S
C1502 H1514 0.960 . S
C1502 H1515 0.962 . S
C1502 H1516 0.960 . S
C1503 C1500 1.511 . S
C1503 H1517 0.961 . S
C1503 H1518 0.961 . S
C1503 H1519 0.961 . S
C1504 C1505 1.370 . S
C1504 C1506 1.363 . S
C1504 H1520 0.931 . S
C1505 C1504 1.370 . S
C1505 C1509 1.408 . S
C1506 C1504 1.363 . S
C1506 C1507 1.370 . S
C1506 C1510 1.524 . S
C1507 C1499 1.503 . S
C1507 C1506 1.370 . S
C1507 C1508 1.403 . S
C1508 C1507 1.403 . S
C1508 C1509 1.404 . S
C1508 C1511 1.539 . S
C1509 C1505 1.408 . S
C1509 C1508 1.404 . S
C1509 H1521 0.930 . S
C1510 C1506 1.524 . S
C1510 H1522 0.956 . S
C1510 H1523 0.961 . S
C1510 H1524 0.961 . S
C1511 C1508 1.539 . S
C1511 H1525 0.958 . S
C1511 H1526 0.961 . S
C1511 H1527 0.960 . S
H1512 C1496 0.931 . S
H1513 C1501 0.929 . S
H1514 C1502 0.960 . S
H1515 C1502 0.962 . S
H1516 C1502 0.960 . S
H1517 C1503 0.961 . S
H1518 C1503 0.961 . S
H1519 C1503 0.961 . S
H1520 C1504 0.931 . S
H1521 C1509 0.930 . S
H1522 C1510 0.956 . S
H1523 C1510 0.961 . S
H1524 C1510 0.961 . S
H1525 C1511 0.958 . S
H1526 C1511 0.961 . S
H1527 C1511 0.960 . S
C1528 C1529 1.391 . S
C1528 C1530 1.394 . S
C1528 H1544 0.931 . S
C1529 C1528 1.391 . S
C1529 C1533 1.376 . S
C1530 C1528 1.394 . S
C1530 C1531 1.369 . S
C1530 C1534 1.531 . S
C1531 C1530 1.369 . S
C1531 C1532 1.410 . S
C1531 C1539 1.503 . S
C1532 C1531 1.410 . S
C1532 C1533 1.392 . S
C1532 C1535 1.511 . S
C1533 C1529 1.376 . S
C1533 C1532 1.392 . S
C1533 H1545 0.929 . S
C1534 C1530 1.531 . S
C1534 H1546 0.960 . S
C1534 H1547 0.962 . S
C1534 H1548 0.960 . S
C1535 C1532 1.511 . S
C1535 H1549 0.961 . S
C1535 H1550 0.961 . S
C1535 H1551 0.961 . S
C1536 C1537 1.370 . S
C1536 C1538 1.363 . S
C1536 H1552 0.931 . S
C1537 C1536 1.370 . S
C1537 C1541 1.408 . S
C1538 C1536 1.363 . S
C1538 C1539 1.370 . S
C1538 C1542 1.524 . S
C1539 C1531 1.503 . S
C1539 C1538 1.370 . S
C1539 C1540 1.403 . S
C1540 C1539 1.403 . S
C1540 C1541 1.404 . S
C1540 C1543 1.539 . S
C1541 C1537 1.408 . S
C1541 C1540 1.404 . S
C1541 H1553 0.930 . S
C1542 C1538 1.524 . S
C1542 H1554 0.956 . S
C1542 H1555 0.961 . S
C1542 H1556 0.961 . S
C1543 C1540 1.539 . S
C1543 H1557 0.958 . S
C1543 H1558 0.961 . S
C1543 H1559 0.960 . S
H1544 C1528 0.931 . S
H1545 C1533 0.929 . S
H1546 C1534 0.960 . S
H1547 C1534 0.962 . S
H1548 C1534 0.960 . S
H1549 C1535 0.961 . S
H1550 C1535 0.961 . S
H1551 C1535 0.961 . S
H1552 C1536 0.931 . S
H1553 C1541 0.930 . S
H1554 C1542 0.956 . S
H1555 C1542 0.961 . S
H1556 C1542 0.961 . S
H1557 C1543 0.958 . S
H1558 C1543 0.961 . S
H1559 C1543 0.960 . S
C1560 C1561 1.391 . S
C1560 C1562 1.394 . S
C1560 H1576 0.931 . S
C1561 C1560 1.391 . S
C1561 C1565 1.376 . S
C1562 C1560 1.394 . S
C1562 C1563 1.369 . S
C1562 C1566 1.531 . S
C1563 C1562 1.369 . S
C1563 C1564 1.410 . S
C1563 C1571 1.503 . S
C1564 C1563 1.410 . S
C1564 C1565 1.392 . S
C1564 C1567 1.511 . S
C1565 C1561 1.376 . S
C1565 C1564 1.392 . S
C1565 H1577 0.929 . S
C1566 C1562 1.531 . S
C1566 H1578 0.960 . S
C1566 H1579 0.962 . S
C1566 H1580 0.960 . S
C1567 C1564 1.511 . S
C1567 H1581 0.961 . S
C1567 H1582 0.961 . S
C1567 H1583 0.961 . S
C1568 C1569 1.370 . S
C1568 C1570 1.363 . S
C1568 H1584 0.931 . S
C1569 C1568 1.370 . S
C1569 C1573 1.408 . S
C1570 C1568 1.363 . S
C1570 C1571 1.370 . S
C1570 C1574 1.524 . S
C1571 C1563 1.503 . S
C1571 C1570 1.370 . S
C1571 C1572 1.403 . S
C1572 C1571 1.403 . S
C1572 C1573 1.404 . S
C1572 C1575 1.539 . S
C1573 C1569 1.408 . S
C1573 C1572 1.404 . S
C1573 H1585 0.930 . S
C1574 C1570 1.524 . S
C1574 H1586 0.956 . S
C1574 H1587 0.961 . S
C1574 H1588 0.961 . S
C1575 C1572 1.539 . S
C1575 H1589 0.958 . S
C1575 H1590 0.961 . S
C1575 H1591 0.960 . S
H1576 C1560 0.931 . S
H1577 C1565 0.929 . S
H1578 C1566 0.960 . S
H1579 C1566 0.962 . S
H1580 C1566 0.960 . S
H1581 C1567 0.961 . S
H1582 C1567 0.961 . S
H1583 C1567 0.961 . S
H1584 C1568 0.931 . S
H1585 C1573 0.930 . S
H1586 C1574 0.956 . S
H1587 C1574 0.961 . S
H1588 C1574 0.961 . S
H1589 C1575 0.958 . S
H1590 C1575 0.961 . S
H1591 C1575 0.960 . S
C1592 C1593 1.391 . S
C1592 C1594 1.394 . S
C1592 H1608 0.931 . S
C1593 C1592 1.391 . S
C1593 C1597 1.376 . S
C1594 C1592 1.394 . S
C1594 C1595 1.369 . S
C1594 C1598 1.531 . S
C1595 C1594 1.369 . S
C1595 C1596 1.410 . S
C1595 C1603 1.503 . S
C1596 C1595 1.410 . S
C1596 C1597 1.392 . S
C1596 C1599 1.511 . S
C1597 C1593 1.376 . S
C1597 C1596 1.392 . S
C1597 H1609 0.929 . S
C1598 C1594 1.531 . S
C1598 H1610 0.960 . S
C1598 H1611 0.962 . S
C1598 H1612 0.960 . S
C1599 C1596 1.511 . S
C1599 H1613 0.961 . S
C1599 H1614 0.961 . S
C1599 H1615 0.961 . S
C1600 C1601 1.370 . S
C1600 C1602 1.363 . S
C1600 H1616 0.931 . S
C1601 C1600 1.370 . S
C1601 C1605 1.408 . S
C1602 C1600 1.363 . S
C1602 C1603 1.370 . S
C1602 C1606 1.524 . S
C1603 C1595 1.503 . S
C1603 C1602 1.370 . S
C1603 C1604 1.403 . S
C1604 C1603 1.403 . S
C1604 C1605 1.404 . S
C1604 C1607 1.539 . S
C1605 C1601 1.408 . S
C1605 C1604 1.404 . S
C1605 H1617 0.930 . S
C1606 C1602 1.524 . S
C1606 H1618 0.956 . S
C1606 H1619 0.961 . S
C1606 H1620 0.961 . S
C1607 C1604 1.539 . S
C1607 H1621 0.958 . S
C1607 H1622 0.961 . S
C1607 H1623 0.960 . S
H1608 C1592 0.931 . S
H1609 C1597 0.929 . S
H1610 C1598 0.960 . S
H1611 C1598 0.962 . S
H1612 C1598 0.960 . S
H1613 C1599 0.961 . S
H1614 C1599 0.961 . S
H1615 C1599 0.961 . S
H1616 C1600 0.931 . S
H1617 C1605 0.930 . S
H1618 C1606 0.956 . S
H1619 C1606 0.961 . S
H1620 C1606 0.961 . S
H1621 C1607 0.958 . S
H1622 C1607 0.961 . S
H1623 C1607 0.960 . S
C1624 C1625 1.391 . S
C1624 C1626 1.394 . S
C1624 H1640 0.931 . S
C1625 C1624 1.391 . S
C1625 C1629 1.376 . S
C1626 C1624 1.394 . S
C1626 C1627 1.369 . S
C1626 C1630 1.531 . S
C1627 C1626 1.369 . S
C1627 C1628 1.410 . S
C1627 C1635 1.503 . S
C1628 C1627 1.410 . S
C1628 C1629 1.392 . S
C1628 C1631 1.511 . S
C1629 C1625 1.376 . S
C1629 C1628 1.392 . S
C1629 H1641 0.929 . S
C1630 C1626 1.531 . S
C1630 H1642 0.960 . S
C1630 H1643 0.962 . S
C1630 H1644 0.960 . S
C1631 C1628 1.511 . S
C1631 H1645 0.961 . S
C1631 H1646 0.961 . S
C1631 H1647 0.961 . S
C1632 C1633 1.370 . S
C1632 C1634 1.363 . S
C1632 H1648 0.931 . S
C1633 C1632 1.370 . S
C1633 C1637 1.408 . S
C1634 C1632 1.363 . S
C1634 C1635 1.370 . S
C1634 C1638 1.524 . S
C1635 C1627 1.503 . S
C1635 C1634 1.370 . S
C1635 C1636 1.403 . S
C1636 C1635 1.403 . S
C1636 C1637 1.404 . S
C1636 C1639 1.539 . S
C1637 C1633 1.408 . S
C1637 C1636 1.404 . S
C1637 H1649 0.930 . S
C1638 C1634 1.524 . S
C1638 H1650 0.956 . S
C1638 H1651 0.961 . S
C1638 H1652 0.961 . S
C1639 C1636 1.539 . S
C1639 H1653 0.958 . S
C1639 H1654 0.961 . S
C1639 H1655 0.960 . S
H1640 C1624 0.931 . S
H1641 C1629 0.929 . S
H1642 C1630 0.960 . S
H1643 C1630 0.962 . S
H1644 C1630 0.960 . S
H1645 C1631 0.961 . S
H1646 C1631 0.961 . S
H1647 C1631 0.961 . S
H1648 C1632 0.931 . S
H1649 C1637 0.930 . S
H1650 C1638 0.956 . S
H1651 C1638 0.961 . S
H1652 C1638 0.961 . S
H1653 C1639 0.958 . S
H1654 C1639 0.961 . S
H1655 C1639 0.960 . S
C1656 C1657 1.391 . S
C1656 C1658 1.394 . S
C1656 H1672 0.931 . S
C1657 C1656 1.391 . S
C1657 C1661 1.376 . S
C1658 C1656 1.394 . S
C1658 C1659 1.369 . S
C1658 C1662 1.531 . S
C1659 C1658 1.369 . S
C1659 C1660 1.410 . S
C1659 C1667 1.503 . S
C1660 C1659 1.410 . S
C1660 C1661 1.392 . S
C1660 C1663 1.511 . S
C1661 C1657 1.376 . S
C1661 C1660 1.392 . S
C1661 H1673 0.929 . S
C1662 C1658 1.531 . S
C1662 H1674 0.960 . S
C1662 H1675 0.962 . S
C1662 H1676 0.960 . S
C1663 C1660 1.511 . S
C1663 H1677 0.961 . S
C1663 H1678 0.961 . S
C1663 H1679 0.961 . S
C1664 C1665 1.370 . S
C1664 C1666 1.363 . S
C1664 H1680 0.931 . S
C1665 C1664 1.370 . S
C1665 C1669 1.408 . S
C1666 C1664 1.363 . S
C1666 C1667 1.370 . S
C1666 C1670 1.524 . S
C1667 C1659 1.503 . S
C1667 C1666 1.370 . S
C1667 C1668 1.403 . S
C1668 C1667 1.403 . S
C1668 C1669 1.404 . S
C1668 C1671 1.539 . S
C1669 C1665 1.408 . S
C1669 C1668 1.404 . S
C1669 H1681 0.930 . S
C1670 C1666 1.524 . S
C1670 H1682 0.956 . S
C1670 H1683 0.961 . S
C1670 H1684 0.961 . S
C1671 C1668 1.539 . S
C1671 H1685 0.958 . S
C1671 H1686 0.961 . S
C1671 H1687 0.960 . S
H1672 C1656 0.931 . S
H1673 C1661 0.929 . S
H1674 C1662 0.960 . S
H1675 C1662 0.962 . S
H1676 C1662 0.960 . S
H1677 C1663 0.961 . S
H1678 C1663 0.961 . S
H1679 C1663 0.961 . S
H1680 C1664 0.931 . S
H1681 C1669 0.930 . S
H1682 C1670 0.956 . S
H1683 C1670 0.961 . S
H1684 C1670 0.961 . S
H1685 C1671 0.958 . S
H1686 C1671 0.961 . S
H1687 C1671 0.960 . S
C1688 C1689 1.391 1_545 S
C1688 C1690 1.394 . S
C1688 H1704 0.931 . S
C1689 C1688 1.391 1_565 S
C1689 C1693 1.376 . S
C1690 C1688 1.394 . S
C1690 C1691 1.369 . S
C1690 C1694 1.531 . S
C1691 C1690 1.369 . S
C1691 C1692 1.410 1_545 S
C1691 C1699 1.503 . S
C1692 C1691 1.410 1_565 S
C1692 C1693 1.392 . S
C1692 C1695 1.511 . S
C1693 C1689 1.376 . S
C1693 C1692 1.392 . S
C1693 H1705 0.929 . S
C1694 C1690 1.531 . S
C1694 H1706 0.960 . S
C1694 H1707 0.962 . S
C1694 H1708 0.960 . S
C1695 C1692 1.511 . S
C1695 H1709 0.961 . S
C1695 H1710 0.961 . S
C1695 H1711 0.961 . S
C1696 C1697 1.370 1_565 S
C1696 C1698 1.363 . S
C1696 H1712 0.931 . S
C1697 C1696 1.370 1_545 S
C1697 C1701 1.408 . S
C1698 C1696 1.363 . S
C1698 C1699 1.370 1_565 S
C1698 C1702 1.524 . S
C1699 C1691 1.503 . S
C1699 C1698 1.370 1_545 S
C1699 C1700 1.403 . S
C1700 C1699 1.403 . S
C1700 C1701 1.404 . S
C1700 C1703 1.539 . S
C1701 C1697 1.408 . S
C1701 C1700 1.404 . S
C1701 H1713 0.930 . S
C1702 C1698 1.524 . S
C1702 H1714 0.956 . S
C1702 H1715 0.961 . S
C1702 H1716 0.961 . S
C1703 C1700 1.539 . S
C1703 H1717 0.958 . S
C1703 H1718 0.961 . S
C1703 H1719 0.960 . S
H1704 C1688 0.931 . S
H1705 C1693 0.929 . S
H1706 C1694 0.960 . S
H1707 C1694 0.962 . S
H1708 C1694 0.960 . S
H1709 C1695 0.961 . S
H1710 C1695 0.961 . S
H1711 C1695 0.961 . S
H1712 C1696 0.931 . S
H1713 C1701 0.930 . S
H1714 C1702 0.956 . S
H1715 C1702 0.961 . S
H1716 C1702 0.961 . S
H1717 C1703 0.958 . S
H1718 C1703 0.961 . S
H1719 C1703 0.960 . S
C1720 C1721 1.391 . S
C1720 C1722 1.394 . S
C1720 H1736 0.931 . S
C1721 C1720 1.391 . S
C1721 C1725 1.376 1_655 S
C1722 C1720 1.394 . S
C1722 C1723 1.369 1_655 S
C1722 C1726 1.531 . S
C1723 C1722 1.369 1_455 S
C1723 C1724 1.410 . S
C1723 C1731 1.503 . S
C1724 C1723 1.410 . S
C1724 C1725 1.392 . S
C1724 C1727 1.511 . S
C1725 C1721 1.376 1_455 S
C1725 C1724 1.392 . S
C1725 H1737 0.929 . S
C1726 C1722 1.531 . S
C1726 H1738 0.960 . S
C1726 H1739 0.962 . S
C1726 H1740 0.960 . S
C1727 C1724 1.511 . S
C1727 H1741 0.961 . S
C1727 H1742 0.961 . S
C1727 H1743 0.961 . S
C1728 C1729 1.370 1_655 S
C1728 C1730 1.363 . S
C1728 H1744 0.931 . S
C1729 C1728 1.370 1_455 S
C1729 C1733 1.408 . S
C1730 C1728 1.363 . S
C1730 C1731 1.370 1_655 S
C1730 C1734 1.524 . S
C1731 C1723 1.503 . S
C1731 C1730 1.370 1_455 S
C1731 C1732 1.403 . S
C1732 C1731 1.403 . S
C1732 C1733 1.404 . S
C1732 C1735 1.539 . S
C1733 C1729 1.408 . S
C1733 C1732 1.404 . S
C1733 H1745 0.930 . S
C1734 C1730 1.524 . S
C1734 H1746 0.956 . S
C1734 H1747 0.961 . S
C1734 H1748 0.961 . S
C1735 C1732 1.539 . S
C1735 H1749 0.958 . S
C1735 H1750 0.961 . S
C1735 H1751 0.960 . S
H1736 C1720 0.931 . S
H1737 C1725 0.929 . S
H1738 C1726 0.960 . S
H1739 C1726 0.962 . S
H1740 C1726 0.960 . S
H1741 C1727 0.961 . S
H1742 C1727 0.961 . S
H1743 C1727 0.961 . S
H1744 C1728 0.931 . S
H1745 C1733 0.930 . S
H1746 C1734 0.956 . S
H1747 C1734 0.961 . S
H1748 C1734 0.961 . S
H1749 C1735 0.958 . S
H1750 C1735 0.961 . S
H1751 C1735 0.960 . S
C1752 C1753 1.391 . S
C1752 C1754 1.394 . S
C1752 H1768 0.931 . S
C1753 C1752 1.391 . S
C1753 C1757 1.376 . S
C1754 C1752 1.394 . S
C1754 C1755 1.369 . S
C1754 C1758 1.531 . S
C1755 C1754 1.369 . S
C1755 C1756 1.410 . S
C1755 C1763 1.503 . S
C1756 C1755 1.410 . S
C1756 C1757 1.392 . S
C1756 C1759 1.511 . S
C1757 C1753 1.376 . S
C1757 C1756 1.392 . S
C1757 H1769 0.929 . S
C1758 C1754 1.531 . S
C1758 H1770 0.960 . S
C1758 H1771 0.962 . S
C1758 H1772 0.960 . S
C1759 C1756 1.511 . S
C1759 H1773 0.961 . S
C1759 H1774 0.961 . S
C1759 H1775 0.961 . S
C1760 C1761 1.370 . S
C1760 C1762 1.363 . S
C1760 H1776 0.931 . S
C1761 C1760 1.370 . S
C1761 C1765 1.408 . S
C1762 C1760 1.363 . S
C1762 C1763 1.370 . S
C1762 C1766 1.524 . S
C1763 C1755 1.503 . S
C1763 C1762 1.370 . S
C1763 C1764 1.403 . S
C1764 C1763 1.403 . S
C1764 C1765 1.404 . S
C1764 C1767 1.539 . S
C1765 C1761 1.408 . S
C1765 C1764 1.404 . S
C1765 H1777 0.930 . S
C1766 C1762 1.524 . S
C1766 H1778 0.956 . S
C1766 H1779 0.961 . S
C1766 H1780 0.961 . S
C1767 C1764 1.539 . S
C1767 H1781 0.958 . S
C1767 H1782 0.961 . S
C1767 H1783 0.960 . S
H1768 C1752 0.931 . S
H1769 C1757 0.929 . S
H1770 C1758 0.960 . S
H1771 C1758 0.962 . S
H1772 C1758 0.960 . S
H1773 C1759 0.961 . S
H1774 C1759 0.961 . S
H1775 C1759 0.961 . S
H1776 C1760 0.931 . S
H1777 C1765 0.930 . S
H1778 C1766 0.956 . S
H1779 C1766 0.961 . S
H1780 C1766 0.961 . S
H1781 C1767 0.958 . S
H1782 C1767 0.961 . S
H1783 C1767 0.960 . S
C1784 C1785 1.391 . S
C1784 C1786 1.394 . S
C1784 H1800 0.931 . S
C1785 C1784 1.391 . S
C1785 C1789 1.376 1_545 S
C1786 C1784 1.394 . S
C1786 C1787 1.369 1_545 S
C1786 C1790 1.531 . S
C1787 C1786 1.369 1_565 S
C1787 C1788 1.410 . S
C1787 C1795 1.503 . S
C1788 C1787 1.410 . S
C1788 C1789 1.392 . S
C1788 C1791 1.511 . S
C1789 C1785 1.376 1_565 S
C1789 C1788 1.392 . S
C1789 H1801 0.929 . S
C1790 C1786 1.531 . S
C1790 H1802 0.960 . S
C1790 H1803 0.962 . S
C1790 H1804 0.960 . S
C1791 C1788 1.511 . S
C1791 H1805 0.961 . S
C1791 H1806 0.961 . S
C1791 H1807 0.961 . S
C1792 C1793 1.370 1_545 S
C1792 C1794 1.363 . S
C1792 H1808 0.931 . S
C1793 C1792 1.370 1_565 S
C1793 C1797 1.408 . S
C1794 C1792 1.363 . S
C1794 C1795 1.370 1_545 S
C1794 C1798 1.524 . S
C1795 C1787 1.503 . S
C1795 C1794 1.370 1_565 S
C1795 C1796 1.403 . S
C1796 C1795 1.403 . S
C1796 C1797 1.404 . S
C1796 C1799 1.539 . S
C1797 C1793 1.408 . S
C1797 C1796 1.404 . S
C1797 H1809 0.930 . S
C1798 C1794 1.524 . S
C1798 H1810 0.956 . S
C1798 H1811 0.961 . S
C1798 H1812 0.961 . S
C1799 C1796 1.539 . S
C1799 H1813 0.958 . S
C1799 H1814 0.961 . S
C1799 H1815 0.960 . S
H1800 C1784 0.931 . S
H1801 C1789 0.929 . S
H1802 C1790 0.960 . S
H1803 C1790 0.962 . S
H1804 C1790 0.960 . S
H1805 C1791 0.961 . S
H1806 C1791 0.961 . S
H1807 C1791 0.961 . S
H1808 C1792 0.931 . S
H1809 C1797 0.930 . S
H1810 C1798 0.956 . S
H1811 C1798 0.961 . S
H1812 C1798 0.961 . S
H1813 C1799 0.958 . S
H1814 C1799 0.961 . S
H1815 C1799 0.960 . S
C1816 C1817 1.391 . S
C1816 C1818 1.394 . S
C1816 H1832 0.931 . S
C1817 C1816 1.391 . S
C1817 C1821 1.376 1_455 S
C1818 C1816 1.394 . S
C1818 C1819 1.346 1_455 S
C1818 C1822 1.531 . S
C1819 C1818 1.346 1_655 S
C1819 C1820 1.428 . S
C1819 C1827 1.506 . S
C1820 C1819 1.428 . S
C1820 C1821 1.392 . S
C1820 C1823 1.511 . S
C1821 C1817 1.376 1_655 S
C1821 C1820 1.392 . S
C1821 H1833 0.929 . S
C1822 C1818 1.531 . S
C1822 H1834 0.960 . S
C1822 H1835 0.962 . S
C1822 H1836 0.960 . S
C1823 C1820 1.511 . S
C1823 H1837 0.961 . S
C1823 H1838 0.961 . S
C1823 H1839 0.961 . S
C1824 C1825 1.370 1_455 S
C1824 C1826 1.363 . S
C1824 H1840 0.931 . S
C1825 C1824 1.370 1_655 S
C1825 C1829 1.408 . S
C1826 C1824 1.363 . S
C1826 C1827 1.370 1_455 S
C1826 C1830 1.524 . S
C1827 C1819 1.506 . S
C1827 C1826 1.370 1_655 S
C1827 C1828 1.403 . S
C1828 C1827 1.403 . S
C1828 C1829 1.404 . S
C1828 C1831 1.539 . S
C1829 C1825 1.408 . S
C1829 C1828 1.404 . S
C1829 H1841 0.930 . S
C1830 C1826 1.524 . S
C1830 H1842 0.956 . S
C1830 H1843 0.961 . S
C1830 H1844 0.961 . S
C1831 C1828 1.539 . S
C1831 H1845 0.958 . S
C1831 H1846 0.961 . S
C1831 H1847 0.960 . S
H1832 C1816 0.931 . S
H1833 C1821 0.929 . S
H1834 C1822 0.960 . S
H1835 C1822 0.962 . S
H1836 C1822 0.960 . S
H1837 C1823 0.961 . S
H1838 C1823 0.961 . S
H1839 C1823 0.961 . S
H1840 C1824 0.931 . S
H1841 C1829 0.930 . S
H1842 C1830 0.956 . S
H1843 C1830 0.961 . S
H1844 C1830 0.961 . S
H1845 C1831 0.958 . S
H1846 C1831 0.961 . S
H1847 C1831 0.960 . S
C1848 C1849 1.391 . S
C1848 C1850 1.394 . S
C1848 H1864 0.931 . S
C1849 C1848 1.391 . S
C1849 C1853 1.376 . S
C1850 C1848 1.394 . S
C1850 C1851 1.369 . S
C1850 C1854 1.531 . S
C1851 C1850 1.369 . S
C1851 C1852 1.410 . S
C1851 C1859 1.503 . S
C1852 C1851 1.410 . S
C1852 C1853 1.392 . S
C1852 C1855 1.511 . S
C1853 C1849 1.376 . S
C1853 C1852 1.392 . S
C1853 H1865 0.929 . S
C1854 C1850 1.531 . S
C1854 H1866 0.960 . S
C1854 H1867 0.962 . S
C1854 H1868 0.960 . S
C1855 C1852 1.511 . S
C1855 H1869 0.961 . S
C1855 H1870 0.961 . S
C1855 H1871 0.961 . S
C1856 C1857 1.370 . S
C1856 C1858 1.363 . S
C1856 H1872 0.931 . S
C1857 C1856 1.370 . S
C1857 C1861 1.408 . S
C1858 C1856 1.363 . S
C1858 C1859 1.370 . S
C1858 C1862 1.524 . S
C1859 C1851 1.503 . S
C1859 C1858 1.370 . S
C1859 C1860 1.403 . S
C1860 C1859 1.403 . S
C1860 C1861 1.404 . S
C1860 C1863 1.539 . S
C1861 C1857 1.408 . S
C1861 C1860 1.404 . S
C1861 H1873 0.930 . S
C1862 C1858 1.524 . S
C1862 H1874 0.956 . S
C1862 H1875 0.961 . S
C1862 H1876 0.961 . S
C1863 C1860 1.539 . S
C1863 H1877 0.958 . S
C1863 H1878 0.961 . S
C1863 H1879 0.960 . S
H1864 C1848 0.931 . S
H1865 C1853 0.929 . S
H1866 C1854 0.960 . S
H1867 C1854 0.962 . S
H1868 C1854 0.960 . S
H1869 C1855 0.961 . S
H1870 C1855 0.961 . S
H1871 C1855 0.961 . S
H1872 C1856 0.931 . S
H1873 C1861 0.930 . S
H1874 C1862 0.956 . S
H1875 C1862 0.961 . S
H1876 C1862 0.961 . S
H1877 C1863 0.958 . S
H1878 C1863 0.961 . S
H1879 C1863 0.960 . S
C1880 C1881 1.391 . S
C1880 C1882 1.394 . S
C1880 H1896 0.931 . S
C1881 C1880 1.391 . S
C1881 C1885 1.376 . S
C1882 C1880 1.394 . S
C1882 C1883 1.369 . S
C1882 C1886 1.531 . S
C1883 C1882 1.369 . S
C1883 C1884 1.410 . S
C1883 C1891 1.503 . S
C1884 C1883 1.410 . S
C1884 C1885 1.392 . S
C1884 C1887 1.511 . S
C1885 C1881 1.376 . S
C1885 C1884 1.392 . S
C1885 H1897 0.929 . S
C1886 C1882 1.531 . S
C1886 H1898 0.960 . S
C1886 H1899 0.962 . S
C1886 H1900 0.960 . S
C1887 C1884 1.511 . S
C1887 H1901 0.961 . S
C1887 H1902 0.961 . S
C1887 H1903 0.961 . S
C1888 C1889 1.370 . S
C1888 C1890 1.363 . S
C1888 H1904 0.931 . S
C1889 C1888 1.370 . S
C1889 C1893 1.408 . S
C1890 C1888 1.363 . S
C1890 C1891 1.370 . S
C1890 C1894 1.524 . S
C1891 C1883 1.503 . S
C1891 C1890 1.370 . S
C1891 C1892 1.403 . S
C1892 C1891 1.403 . S
C1892 C1893 1.404 . S
C1892 C1895 1.539 . S
C1893 C1889 1.408 . S
C1893 C1892 1.404 . S
C1893 H1905 0.930 . S
C1894 C1890 1.524 . S
C1894 H1906 0.956 . S
C1894 H1907 0.961 . S
C1894 H1908 0.961 . S
C1895 C1892 1.539 . S
C1895 H1909 0.958 . S
C1895 H1910 0.961 . S
C1895 H1911 0.960 . S
H1896 C1880 0.931 . S
H1897 C1885 0.929 . S
H1898 C1886 0.960 . S
H1899 C1886 0.962 . S
H1900 C1886 0.960 . S
H1901 C1887 0.961 . S
H1902 C1887 0.961 . S
H1903 C1887 0.961 . S
H1904 C1888 0.931 . S
H1905 C1893 0.930 . S
H1906 C1894 0.956 . S
H1907 C1894 0.961 . S
H1908 C1894 0.961 . S
H1909 C1895 0.958 . S
H1910 C1895 0.961 . S
H1911 C1895 0.960 . S
C1912 C1913 1.391 . S
C1912 C1914 1.394 . S
C1912 H1928 0.931 . S
C1913 C1912 1.391 . S
C1913 C1917 1.376 . S
C1914 C1912 1.394 . S
C1914 C1915 1.369 . S
C1914 C1918 1.531 . S
C1915 C1914 1.369 . S
C1915 C1916 1.410 . S
C1915 C1923 1.503 . S
C1916 C1915 1.410 . S
C1916 C1917 1.392 . S
C1916 C1919 1.511 . S
C1917 C1913 1.376 . S
C1917 C1916 1.392 . S
C1917 H1929 0.929 . S
C1918 C1914 1.531 . S
C1918 H1930 0.960 . S
C1918 H1931 0.962 . S
C1918 H1932 0.960 . S
C1919 C1916 1.511 . S
C1919 H1933 0.961 . S
C1919 H1934 0.961 . S
C1919 H1935 0.961 . S
C1920 C1921 1.370 . S
C1920 C1922 1.363 . S
C1920 H1936 0.931 . S
C1921 C1920 1.370 . S
C1921 C1925 1.408 . S
C1922 C1920 1.363 . S
C1922 C1923 1.370 . S
C1922 C1926 1.524 . S
C1923 C1915 1.503 . S
C1923 C1922 1.370 . S
C1923 C1924 1.403 . S
C1924 C1923 1.403 . S
C1924 C1925 1.404 . S
C1924 C1927 1.539 . S
C1925 C1921 1.408 . S
C1925 C1924 1.404 . S
C1925 H1937 0.930 . S
C1926 C1922 1.524 . S
C1926 H1938 0.956 . S
C1926 H1939 0.961 . S
C1926 H1940 0.961 . S
C1927 C1924 1.539 . S
C1927 H1941 0.958 . S
C1927 H1942 0.961 . S
C1927 H1943 0.960 . S
H1928 C1912 0.931 . S
H1929 C1917 0.929 . S
H1930 C1918 0.960 . S
H1931 C1918 0.962 . S
H1932 C1918 0.960 . S
H1933 C1919 0.961 . S
H1934 C1919 0.961 . S
H1935 C1919 0.961 . S
H1936 C1920 0.931 . S
H1937 C1925 0.930 . S
H1938 C1926 0.956 . S
H1939 C1926 0.961 . S
H1940 C1926 0.961 . S
H1941 C1927 0.958 . S
H1942 C1927 0.961 . S
H1943 C1927 0.960 . S
C1944 C1945 1.391 . S
C1944 C1946 1.394 . S
C1944 H1960 0.931 . S
C1945 C1944 1.391 . S
C1945 C1949 1.376 . S
C1946 C1944 1.394 . S
C1946 C1947 1.369 . S
C1946 C1950 1.531 . S
C1947 C1946 1.369 . S
C1947 C1948 1.410 . S
C1947 C1955 1.503 . S
C1948 C1947 1.410 . S
C1948 C1949 1.392 . S
C1948 C1951 1.511 . S
C1949 C1945 1.376 . S
C1949 C1948 1.392 . S
C1949 H1961 0.929 . S
C1950 C1946 1.531 . S
C1950 H1962 0.960 . S
C1950 H1963 0.962 . S
C1950 H1964 0.960 . S
C1951 C1948 1.511 . S
C1951 H1965 0.961 . S
C1951 H1966 0.961 . S
C1951 H1967 0.961 . S
C1952 C1953 1.370 . S
C1952 C1954 1.363 . S
C1952 H1968 0.931 . S
C1953 C1952 1.370 . S
C1953 C1957 1.408 . S
C1954 C1952 1.363 . S
C1954 C1955 1.370 . S
C1954 C1958 1.524 . S
C1955 C1947 1.503 . S
C1955 C1954 1.370 . S
C1955 C1956 1.403 . S
C1956 C1955 1.403 . S
C1956 C1957 1.404 . S
C1956 C1959 1.539 . S
C1957 C1953 1.408 . S
C1957 C1956 1.404 . S
C1957 H1969 0.930 . S
C1958 C1954 1.524 . S
C1958 H1970 0.956 . S
C1958 H1971 0.961 . S
C1958 H1972 0.961 . S
C1959 C1956 1.539 . S
C1959 H1973 0.958 . S
C1959 H1974 0.961 . S
C1959 H1975 0.960 . S
H1960 C1944 0.931 . S
H1961 C1949 0.929 . S
H1962 C1950 0.960 . S
H1963 C1950 0.962 . S
H1964 C1950 0.960 . S
H1965 C1951 0.961 . S
H1966 C1951 0.961 . S
H1967 C1951 0.961 . S
H1968 C1952 0.931 . S
H1969 C1957 0.930 . S
H1970 C1958 0.956 . S
H1971 C1958 0.961 . S
H1972 C1958 0.961 . S
H1973 C1959 0.958 . S
H1974 C1959 0.961 . S
H1975 C1959 0.960 . S
C1976 C1977 1.391 . S
C1976 C1978 1.394 . S
C1976 H1992 0.931 . S
C1977 C1976 1.391 . S
C1977 C1981 1.376 . S
C1978 C1976 1.394 . S
C1978 C1979 1.369 . S
C1978 C1982 1.531 . S
C1979 C1978 1.369 . S
C1979 C1980 1.410 . S
C1979 C1987 1.503 . S
C1980 C1979 1.410 . S
C1980 C1981 1.392 . S
C1980 C1983 1.511 . S
C1981 C1977 1.376 . S
C1981 C1980 1.392 . S
C1981 H1993 0.929 . S
C1982 C1978 1.531 . S
C1982 H1994 0.960 . S
C1982 H1995 0.962 . S
C1982 H1996 0.960 . S
C1983 C1980 1.511 . S
C1983 H1997 0.961 . S
C1983 H1998 0.961 . S
C1983 H1999 0.961 . S
C1984 C1985 1.370 . S
C1984 C1986 1.363 . S
C1984 H2000 0.931 . S
C1985 C1984 1.370 . S
C1985 C1989 1.408 . S
C1986 C1984 1.363 . S
C1986 C1987 1.370 . S
C1986 C1990 1.524 . S
C1987 C1979 1.503 . S
C1987 C1986 1.370 . S
C1987 C1988 1.403 . S
C1988 C1987 1.403 . S
C1988 C1989 1.404 . S
C1988 C1991 1.539 . S
C1989 C1985 1.408 . S
C1989 C1988 1.404 . S
C1989 H2001 0.930 . S
C1990 C1986 1.524 . S
C1990 H2002 0.956 . S
C1990 H2003 0.961 . S
C1990 H2004 0.961 . S
C1991 C1988 1.539 . S
C1991 H2005 0.958 . S
C1991 H2006 0.961 . S
C1991 H2007 0.960 . S
H1992 C1976 0.931 . S
H1993 C1981 0.929 . S
H1994 C1982 0.960 . S
H1995 C1982 0.962 . S
H1996 C1982 0.960 . S
H1997 C1983 0.961 . S
H1998 C1983 0.961 . S
H1999 C1983 0.961 . S
H2000 C1984 0.931 . S
H2001 C1989 0.930 . S
H2002 C1990 0.956 . S
H2003 C1990 0.961 . S
H2004 C1990 0.961 . S
H2005 C1991 0.958 . S
H2006 C1991 0.961 . S
H2007 C1991 0.960 . S
C2008 C2009 1.391 . S
C2008 C2010 1.394 . S
C2008 H2024 0.931 . S
C2009 C2008 1.391 . S
C2009 C2013 1.376 . S
C2010 C2008 1.394 . S
C2010 C2011 1.369 . S
C2010 C2014 1.531 . S
C2011 C2010 1.369 . S
C2011 C2012 1.410 . S
C2011 C2019 1.503 . S
C2012 C2011 1.410 . S
C2012 C2013 1.392 . S
C2012 C2015 1.511 . S
C2013 C2009 1.376 . S
C2013 C2012 1.392 . S
C2013 H2025 0.929 . S
C2014 C2010 1.531 . S
C2014 H2026 0.960 . S
C2014 H2027 0.962 . S
C2014 H2028 0.960 . S
C2015 C2012 1.511 . S
C2015 H2029 0.961 . S
C2015 H2030 0.961 . S
C2015 H2031 0.961 . S
C2016 C2017 1.370 . S
C2016 C2018 1.363 . S
C2016 H2032 0.931 . S
C2017 C2016 1.370 . S
C2017 C2021 1.408 . S
C2018 C2016 1.363 . S
C2018 C2019 1.370 . S
C2018 C2022 1.524 . S
C2019 C2011 1.503 . S
C2019 C2018 1.370 . S
C2019 C2020 1.403 . S
C2020 C2019 1.403 . S
C2020 C2021 1.404 . S
C2020 C2023 1.539 . S
C2021 C2017 1.408 . S
C2021 C2020 1.404 . S
C2021 H2033 0.930 . S
C2022 C2018 1.524 . S
C2022 H2034 0.956 . S
C2022 H2035 0.961 . S
C2022 H2036 0.961 . S
C2023 C2020 1.539 . S
C2023 H2037 0.958 . S
C2023 H2038 0.961 . S
C2023 H2039 0.960 . S
H2024 C2008 0.931 . S
H2025 C2013 0.929 . S
H2026 C2014 0.960 . S
H2027 C2014 0.962 . S
H2028 C2014 0.960 . S
H2029 C2015 0.961 . S
H2030 C2015 0.961 . S
H2031 C2015 0.961 . S
H2032 C2016 0.931 . S
H2033 C2021 0.930 . S
H2034 C2022 0.956 . S
H2035 C2022 0.961 . S
H2036 C2022 0.961 . S
H2037 C2023 0.958 . S
H2038 C2023 0.961 . S
H2039 C2023 0.960 . S
C2040 C2041 1.391 . S
C2040 C2042 1.394 . S
C2040 H2056 0.931 . S
C2041 C2040 1.391 . S
C2041 C2045 1.376 . S
C2042 C2040 1.394 . S
C2042 C2043 1.369 . S
C2042 C2046 1.531 . S
C2043 C2042 1.369 . S
C2043 C2044 1.410 . S
C2043 C2051 1.503 . S
C2044 C2043 1.410 . S
C2044 C2045 1.392 . S
C2044 C2047 1.511 . S
C2045 C2041 1.376 . S
C2045 C2044 1.392 . S
C2045 H2057 0.929 . S
C2046 C2042 1.531 . S
C2046 H2058 0.960 . S
C2046 H2059 0.962 . S
C2046 H2060 0.960 . S
C2047 C2044 1.511 . S
C2047 H2061 0.961 . S
C2047 H2062 0.961 . S
C2047 H2063 0.961 . S
C2048 C2049 1.370 . S
C2048 C2050 1.363 . S
C2048 H2064 0.931 . S
C2049 C2048 1.370 . S
C2049 C2053 1.408 . S
C2050 C2048 1.363 . S
C2050 C2051 1.370 . S
C2050 C2054 1.524 . S
C2051 C2043 1.503 . S
C2051 C2050 1.370 . S
C2051 C2052 1.403 . S
C2052 C2051 1.403 . S
C2052 C2053 1.404 . S
C2052 C2055 1.539 . S
C2053 C2049 1.408 . S
C2053 C2052 1.404 . S
C2053 H2065 0.930 . S
C2054 C2050 1.524 . S
C2054 H2066 0.956 . S
C2054 H2067 0.961 . S
C2054 H2068 0.961 . S
C2055 C2052 1.539 . S
C2055 H2069 0.958 . S
C2055 H2070 0.961 . S
C2055 H2071 0.960 . S
H2056 C2040 0.931 . S
H2057 C2045 0.929 . S
H2058 C2046 0.960 . S
H2059 C2046 0.962 . S
H2060 C2046 0.960 . S
H2061 C2047 0.961 . S
H2062 C2047 0.961 . S
H2063 C2047 0.961 . S
H2064 C2048 0.931 . S
H2065 C2053 0.930 . S
H2066 C2054 0.956 . S
H2067 C2054 0.961 . S
H2068 C2054 0.961 . S
H2069 C2055 0.958 . S
H2070 C2055 0.961 . S
H2071 C2055 0.960 . S
C2072 C2073 1.391 . S
C2072 C2074 1.394 . S
C2072 H2088 0.931 . S
C2073 C2072 1.391 . S
C2073 C2077 1.376 . S
C2074 C2072 1.394 . S
C2074 C2075 1.369 . S
C2074 C2078 1.531 . S
C2075 C2074 1.369 . S
C2075 C2076 1.410 . S
C2075 C2083 1.503 . S
C2076 C2075 1.410 . S
C2076 C2077 1.392 . S
C2076 C2079 1.511 . S
C2077 C2073 1.376 . S
C2077 C2076 1.392 . S
C2077 H2089 0.929 . S
C2078 C2074 1.531 . S
C2078 H2090 0.960 . S
C2078 H2091 0.962 . S
C2078 H2092 0.960 . S
C2079 C2076 1.511 . S
C2079 H2093 0.961 . S
C2079 H2094 0.961 . S
C2079 H2095 0.961 . S
C2080 C2081 1.370 . S
C2080 C2082 1.363 . S
C2080 H2096 0.931 . S
C2081 C2080 1.370 . S
C2081 C2085 1.408 . S
C2082 C2080 1.363 . S
C2082 C2083 1.370 . S
C2082 C2086 1.524 . S
C2083 C2075 1.503 . S
C2083 C2082 1.370 . S
C2083 C2084 1.403 . S
C2084 C2083 1.403 . S
C2084 C2085 1.404 . S
C2084 C2087 1.539 . S
C2085 C2081 1.408 . S
C2085 C2084 1.404 . S
C2085 H2097 0.930 . S
C2086 C2082 1.524 . S
C2086 H2098 0.956 . S
C2086 H2099 0.961 . S
C2086 H2100 0.961 . S
C2087 C2084 1.539 . S
C2087 H2101 0.958 . S
C2087 H2102 0.961 . S
C2087 H2103 0.960 . S
H2088 C2072 0.931 . S
H2089 C2077 0.929 . S
H2090 C2078 0.960 . S
H2091 C2078 0.962 . S
H2092 C2078 0.960 . S
H2093 C2079 0.961 . S
H2094 C2079 0.961 . S
H2095 C2079 0.961 . S
H2096 C2080 0.931 . S
H2097 C2085 0.930 . S
H2098 C2086 0.956 . S
H2099 C2086 0.961 . S
H2100 C2086 0.961 . S
H2101 C2087 0.958 . S
H2102 C2087 0.961 . S
H2103 C2087 0.960 . S
C2104 C2105 1.391 . S
C2104 C2106 1.394 . S
C2104 H2120 0.931 . S
C2105 C2104 1.391 . S
C2105 C2109 1.376 . S
C2106 C2104 1.394 . S
C2106 C2107 1.369 . S
C2106 C2110 1.531 . S
C2107 C2106 1.369 . S
C2107 C2108 1.410 . S
C2107 C2115 1.503 . S
C2108 C2107 1.410 . S
C2108 C2109 1.392 . S
C2108 C2111 1.511 . S
C2109 C2105 1.376 . S
C2109 C2108 1.392 . S
C2109 H2121 0.929 . S
C2110 C2106 1.531 . S
C2110 H2122 0.960 . S
C2110 H2123 0.962 . S
C2110 H2124 0.960 . S
C2111 C2108 1.511 . S
C2111 H2125 0.961 . S
C2111 H2126 0.961 . S
C2111 H2127 0.961 . S
C2112 C2113 1.370 . S
C2112 C2114 1.363 . S
C2112 H2128 0.931 . S
C2113 C2112 1.370 . S
C2113 C2117 1.408 . S
C2114 C2112 1.363 . S
C2114 C2115 1.370 . S
C2114 C2118 1.524 . S
C2115 C2107 1.503 . S
C2115 C2114 1.370 . S
C2115 C2116 1.403 . S
C2116 C2115 1.403 . S
C2116 C2117 1.404 . S
C2116 C2119 1.539 . S
C2117 C2113 1.408 . S
C2117 C2116 1.404 . S
C2117 H2129 0.930 . S
C2118 C2114 1.524 . S
C2118 H2130 0.956 . S
C2118 H2131 0.961 . S
C2118 H2132 0.961 . S
C2119 C2116 1.539 . S
C2119 H2133 0.958 . S
C2119 H2134 0.961 . S
C2119 H2135 0.960 . S
H2120 C2104 0.931 . S
H2121 C2109 0.929 . S
H2122 C2110 0.960 . S
H2123 C2110 0.962 . S
H2124 C2110 0.960 . S
H2125 C2111 0.961 . S
H2126 C2111 0.961 . S
H2127 C2111 0.961 . S
H2128 C2112 0.931 . S
H2129 C2117 0.930 . S
H2130 C2118 0.956 . S
H2131 C2118 0.961 . S
H2132 C2118 0.961 . S
H2133 C2119 0.958 . S
H2134 C2119 0.961 . S
H2135 C2119 0.960 . S
C2136 C2137 1.391 . S
C2136 C2138 1.394 . S
C2136 H2152 0.931 . S
C2137 C2136 1.391 . S
C2137 C2141 1.376 . S
C2138 C2136 1.394 . S
C2138 C2139 1.369 . S
C2138 C2142 1.531 . S
C2139 C2138 1.369 . S
C2139 C2140 1.410 . S
C2139 C2147 1.503 . S
C2140 C2139 1.410 . S
C2140 C2141 1.392 . S
C2140 C2143 1.511 . S
C2141 C2137 1.376 . S
C2141 C2140 1.392 . S
C2141 H2153 0.929 . S
C2142 C2138 1.531 . S
C2142 H2154 0.960 . S
C2142 H2155 0.962 . S
C2142 H2156 0.960 . S
C2143 C2140 1.511 . S
C2143 H2157 0.961 . S
C2143 H2158 0.961 . S
C2143 H2159 0.961 . S
C2144 C2145 1.370 . S
C2144 C2146 1.363 . S
C2144 H2160 0.931 . S
C2145 C2144 1.370 . S
C2145 C2149 1.408 . S
C2146 C2144 1.363 . S
C2146 C2147 1.370 . S
C2146 C2150 1.524 . S
C2147 C2139 1.503 . S
C2147 C2146 1.370 . S
C2147 C2148 1.403 . S
C2148 C2147 1.403 . S
C2148 C2149 1.404 . S
C2148 C2151 1.539 . S
C2149 C2145 1.408 . S
C2149 C2148 1.404 . S
C2149 H2161 0.930 . S
C2150 C2146 1.524 . S
C2150 H2162 0.956 . S
C2150 H2163 0.961 . S
C2150 H2164 0.961 . S
C2151 C2148 1.539 . S
C2151 H2165 0.958 . S
C2151 H2166 0.961 . S
C2151 H2167 0.960 . S
H2152 C2136 0.931 . S
H2153 C2141 0.929 . S
H2154 C2142 0.960 . S
H2155 C2142 0.962 . S
H2156 C2142 0.960 . S
H2157 C2143 0.961 . S
H2158 C2143 0.961 . S
H2159 C2143 0.961 . S
H2160 C2144 0.931 . S
H2161 C2149 0.930 . S
H2162 C2150 0.956 . S
H2163 C2150 0.961 . S
H2164 C2150 0.961 . S
H2165 C2151 0.958 . S
H2166 C2151 0.961 . S
H2167 C2151 0.960 . S
C2168 C2169 1.391 . S
C2168 C2170 1.394 . S
C2168 H2184 0.931 . S
C2169 C2168 1.391 . S
C2169 C2173 1.376 . S
C2170 C2168 1.394 . S
C2170 C2171 1.369 . S
C2170 C2174 1.531 . S
C2171 C2170 1.369 . S
C2171 C2172 1.410 . S
C2171 C2179 1.503 . S
C2172 C2171 1.410 . S
C2172 C2173 1.392 . S
C2172 C2175 1.511 . S
C2173 C2169 1.376 . S
C2173 C2172 1.392 . S
C2173 H2185 0.929 . S
C2174 C2170 1.531 . S
C2174 H2186 0.960 . S
C2174 H2187 0.962 . S
C2174 H2188 0.960 . S
C2175 C2172 1.511 . S
C2175 H2189 0.961 . S
C2175 H2190 0.961 . S
C2175 H2191 0.961 . S
C2176 C2177 1.370 . S
C2176 C2178 1.363 . S
C2176 H2192 0.931 . S
C2177 C2176 1.370 . S
C2177 C2181 1.408 . S
C2178 C2176 1.363 . S
C2178 C2179 1.370 . S
C2178 C2182 1.524 . S
C2179 C2171 1.503 . S
C2179 C2178 1.370 . S
C2179 C2180 1.403 . S
C2180 C2179 1.403 . S
C2180 C2181 1.404 . S
C2180 C2183 1.539 . S
C2181 C2177 1.408 . S
C2181 C2180 1.404 . S
C2181 H2193 0.930 . S
C2182 C2178 1.524 . S
C2182 H2194 0.956 . S
C2182 H2195 0.961 . S
C2182 H2196 0.961 . S
C2183 C2180 1.539 . S
C2183 H2197 0.958 . S
C2183 H2198 0.961 . S
C2183 H2199 0.960 . S
H2184 C2168 0.931 . S
H2185 C2173 0.929 . S
H2186 C2174 0.960 . S
H2187 C2174 0.962 . S
H2188 C2174 0.960 . S
H2189 C2175 0.961 . S
H2190 C2175 0.961 . S
H2191 C2175 0.961 . S
H2192 C2176 0.931 . S
H2193 C2181 0.930 . S
H2194 C2182 0.956 . S
H2195 C2182 0.961 . S
H2196 C2182 0.961 . S
H2197 C2183 0.958 . S
H2198 C2183 0.961 . S
H2199 C2183 0.960 . S
C2200 C2201 1.391 . S
C2200 C2202 1.394 . S
C2200 H2216 0.931 . S
C2201 C2200 1.391 . S
C2201 C2205 1.376 . S
C2202 C2200 1.394 . S
C2202 C2203 1.369 . S
C2202 C2206 1.531 . S
C2203 C2202 1.369 . S
C2203 C2204 1.410 . S
C2203 C2211 1.503 . S
C2204 C2203 1.410 . S
C2204 C2205 1.392 . S
C2204 C2207 1.511 . S
C2205 C2201 1.376 . S
C2205 C2204 1.392 . S
C2205 H2217 0.929 . S
C2206 C2202 1.531 . S
C2206 H2218 0.960 . S
C2206 H2219 0.962 . S
C2206 H2220 0.960 . S
C2207 C2204 1.511 . S
C2207 H2221 0.961 . S
C2207 H2222 0.961 . S
C2207 H2223 0.961 . S
C2208 C2209 1.370 . S
C2208 C2210 1.363 . S
C2208 H2224 0.931 . S
C2209 C2208 1.370 . S
C2209 C2213 1.408 . S
C2210 C2208 1.363 . S
C2210 C2211 1.370 . S
C2210 C2214 1.524 . S
C2211 C2203 1.503 . S
C2211 C2210 1.370 . S
C2211 C2212 1.403 . S
C2212 C2211 1.403 . S
C2212 C2213 1.404 . S
C2212 C2215 1.539 . S
C2213 C2209 1.408 . S
C2213 C2212 1.404 . S
C2213 H2225 0.930 . S
C2214 C2210 1.524 . S
C2214 H2226 0.956 . S
C2214 H2227 0.961 . S
C2214 H2228 0.961 . S
C2215 C2212 1.539 . S
C2215 H2229 0.958 . S
C2215 H2230 0.961 . S
C2215 H2231 0.960 . S
H2216 C2200 0.931 . S
H2217 C2205 0.929 . S
H2218 C2206 0.960 . S
H2219 C2206 0.962 . S
H2220 C2206 0.960 . S
H2221 C2207 0.961 . S
H2222 C2207 0.961 . S
H2223 C2207 0.961 . S
H2224 C2208 0.931 . S
H2225 C2213 0.930 . S
H2226 C2214 0.956 . S
H2227 C2214 0.961 . S
H2228 C2214 0.961 . S
H2229 C2215 0.958 . S
H2230 C2215 0.961 . S
H2231 C2215 0.960 . S
C2232 C2233 1.391 . S
C2232 C2234 1.394 . S
C2232 H2248 0.931 . S
C2233 C2232 1.391 . S
C2233 C2237 1.376 . S
C2234 C2232 1.394 . S
C2234 C2235 1.369 . S
C2234 C2238 1.531 . S
C2235 C2234 1.369 . S
C2235 C2236 1.410 . S
C2235 C2243 1.503 . S
C2236 C2235 1.410 . S
C2236 C2237 1.392 . S
C2236 C2239 1.511 . S
C2237 C2233 1.376 . S
C2237 C2236 1.392 . S
C2237 H2249 0.929 . S
C2238 C2234 1.531 . S
C2238 H2250 0.960 . S
C2238 H2251 0.962 . S
C2238 H2252 0.960 . S
C2239 C2236 1.511 . S
C2239 H2253 0.961 . S
C2239 H2254 0.961 . S
C2239 H2255 0.961 . S
C2240 C2241 1.370 . S
C2240 C2242 1.363 . S
C2240 H2256 0.931 . S
C2241 C2240 1.370 . S
C2241 C2245 1.408 . S
C2242 C2240 1.363 . S
C2242 C2243 1.370 . S
C2242 C2246 1.524 . S
C2243 C2235 1.503 . S
C2243 C2242 1.370 . S
C2243 C2244 1.403 . S
C2244 C2243 1.403 . S
C2244 C2245 1.404 . S
C2244 C2247 1.539 . S
C2245 C2241 1.408 . S
C2245 C2244 1.404 . S
C2245 H2257 0.930 . S
C2246 C2242 1.524 . S
C2246 H2258 0.956 . S
C2246 H2259 0.961 . S
C2246 H2260 0.961 . S
C2247 C2244 1.539 . S
C2247 H2261 0.958 . S
C2247 H2262 0.961 . S
C2247 H2263 0.960 . S
H2248 C2232 0.931 . S
H2249 C2237 0.929 . S
H2250 C2238 0.960 . S
H2251 C2238 0.962 . S
H2252 C2238 0.960 . S
H2253 C2239 0.961 . S
H2254 C2239 0.961 . S
H2255 C2239 0.961 . S
H2256 C2240 0.931 . S
H2257 C2245 0.930 . S
H2258 C2246 0.956 . S
H2259 C2246 0.961 . S
H2260 C2246 0.961 . S
H2261 C2247 0.958 . S
H2262 C2247 0.961 . S
H2263 C2247 0.960 . S
C2264 C2265 1.391 . S
C2264 C2266 1.394 . S
C2264 H2280 0.931 . S
C2265 C2264 1.391 . S
C2265 C2269 1.376 . S
C2266 C2264 1.394 . S
C2266 C2267 1.369 . S
C2266 C2270 1.531 . S
C2267 C2266 1.369 . S
C2267 C2268 1.410 . S
C2267 C2275 1.503 . S
C2268 C2267 1.410 . S
C2268 C2269 1.392 . S
C2268 C2271 1.511 . S
C2269 C2265 1.376 . S
C2269 C2268 1.392 . S
C2269 H2281 0.929 . S
C2270 C2266 1.531 . S
C2270 H2282 0.960 . S
C2270 H2283 0.962 . S
C2270 H2284 0.960 . S
C2271 C2268 1.511 . S
C2271 H2285 0.961 . S
C2271 H2286 0.961 . S
C2271 H2287 0.961 . S
C2272 C2273 1.370 . S
C2272 C2274 1.363 . S
C2272 H2288 0.931 . S
C2273 C2272 1.370 . S
C2273 C2277 1.408 . S
C2274 C2272 1.363 . S
C2274 C2275 1.370 . S
C2274 C2278 1.524 . S
C2275 C2267 1.503 . S
C2275 C2274 1.370 . S
C2275 C2276 1.403 . S
C2276 C2275 1.403 . S
C2276 C2277 1.404 . S
C2276 C2279 1.539 . S
C2277 C2273 1.408 . S
C2277 C2276 1.404 . S
C2277 H2289 0.930 . S
C2278 C2274 1.524 . S
C2278 H2290 0.956 . S
C2278 H2291 0.961 . S
C2278 H2292 0.961 . S
C2279 C2276 1.539 . S
C2279 H2293 0.958 . S
C2279 H2294 0.961 . S
C2279 H2295 0.960 . S
H2280 C2264 0.931 . S
H2281 C2269 0.929 . S
H2282 C2270 0.960 . S
H2283 C2270 0.962 . S
H2284 C2270 0.960 . S
H2285 C2271 0.961 . S
H2286 C2271 0.961 . S
H2287 C2271 0.961 . S
H2288 C2272 0.931 . S
H2289 C2277 0.930 . S
H2290 C2278 0.956 . S
H2291 C2278 0.961 . S
H2292 C2278 0.961 . S
H2293 C2279 0.958 . S
H2294 C2279 0.961 . S
H2295 C2279 0.960 . S
C2296 C2297 1.391 . S
C2296 C2298 1.394 . S
C2296 H2312 0.931 . S
C2297 C2296 1.391 . S
C2297 C2301 1.376 . S
C2298 C2296 1.394 . S
C2298 C2299 1.369 . S
C2298 C2302 1.531 . S
C2299 C2298 1.369 . S
C2299 C2300 1.410 . S
C2299 C2307 1.503 . S
C2300 C2299 1.410 . S
C2300 C2301 1.392 . S
C2300 C2303 1.511 . S
C2301 C2297 1.376 . S
C2301 C2300 1.392 . S
C2301 H2313 0.929 . S
C2302 C2298 1.531 . S
C2302 H2314 0.960 . S
C2302 H2315 0.962 . S
C2302 H2316 0.960 . S
C2303 C2300 1.511 . S
C2303 H2317 0.961 . S
C2303 H2318 0.961 . S
C2303 H2319 0.961 . S
C2304 C2305 1.370 . S
C2304 C2306 1.363 . S
C2304 H2320 0.931 . S
C2305 C2304 1.370 . S
C2305 C2309 1.408 . S
C2306 C2304 1.363 . S
C2306 C2307 1.370 . S
C2306 C2310 1.524 . S
C2307 C2299 1.503 . S
C2307 C2306 1.370 . S
C2307 C2308 1.403 . S
C2308 C2307 1.403 . S
C2308 C2309 1.404 . S
C2308 C2311 1.539 . S
C2309 C2305 1.408 . S
C2309 C2308 1.404 . S
C2309 H2321 0.930 . S
C2310 C2306 1.524 . S
C2310 H2322 0.956 . S
C2310 H2323 0.961 . S
C2310 H2324 0.961 . S
C2311 C2308 1.539 . S
C2311 H2325 0.958 . S
C2311 H2326 0.961 . S
C2311 H2327 0.960 . S
H2312 C2296 0.931 . S
H2313 C2301 0.929 . S
H2314 C2302 0.960 . S
H2315 C2302 0.962 . S
H2316 C2302 0.960 . S
H2317 C2303 0.961 . S
H2318 C2303 0.961 . S
H2319 C2303 0.961 . S
H2320 C2304 0.931 . S
H2321 C2309 0.930 . S
H2322 C2310 0.956 . S
H2323 C2310 0.961 . S
H2324 C2310 0.961 . S
H2325 C2311 0.958 . S
H2326 C2311 0.961 . S
H2327 C2311 0.960 . S
C2328 C2329 1.391 . S
C2328 C2330 1.394 . S
C2328 H2344 0.931 . S
C2329 C2328 1.391 . S
C2329 C2333 1.376 . S
C2330 C2328 1.394 . S
C2330 C2331 1.369 . S
C2330 C2334 1.531 . S
C2331 C2330 1.369 . S
C2331 C2332 1.410 . S
C2331 C2339 1.503 . S
C2332 C2331 1.410 . S
C2332 C2333 1.392 . S
C2332 C2335 1.511 . S
C2333 C2329 1.376 . S
C2333 C2332 1.392 . S
C2333 H2345 0.929 . S
C2334 C2330 1.531 . S
C2334 H2346 0.960 . S
C2334 H2347 0.962 . S
C2334 H2348 0.960 . S
C2335 C2332 1.511 . S
C2335 H2349 0.961 . S
C2335 H2350 0.961 . S
C2335 H2351 0.961 . S
C2336 C2337 1.370 . S
C2336 C2338 1.363 . S
C2336 H2352 0.931 . S
C2337 C2336 1.370 . S
C2337 C2341 1.408 . S
C2338 C2336 1.363 . S
C2338 C2339 1.370 . S
C2338 C2342 1.524 . S
C2339 C2331 1.503 . S
C2339 C2338 1.370 . S
C2339 C2340 1.403 . S
C2340 C2339 1.403 . S
C2340 C2341 1.404 . S
C2340 C2343 1.539 . S
C2341 C2337 1.408 . S
C2341 C2340 1.404 . S
C2341 H2353 0.930 . S
C2342 C2338 1.524 . S
C2342 H2354 0.956 . S
C2342 H2355 0.961 . S
C2342 H2356 0.961 . S
C2343 C2340 1.539 . S
C2343 H2357 0.958 . S
C2343 H2358 0.961 . S
C2343 H2359 0.960 . S
H2344 C2328 0.931 . S
H2345 C2333 0.929 . S
H2346 C2334 0.960 . S
H2347 C2334 0.962 . S
H2348 C2334 0.960 . S
H2349 C2335 0.961 . S
H2350 C2335 0.961 . S
H2351 C2335 0.961 . S
H2352 C2336 0.931 . S
H2353 C2341 0.930 . S
H2354 C2342 0.956 . S
H2355 C2342 0.961 . S
H2356 C2342 0.961 . S
H2357 C2343 0.958 . S
H2358 C2343 0.961 . S
H2359 C2343 0.960 . S
C2360 C2361 1.391 . S
C2360 C2362 1.394 . S
C2360 H2376 0.931 . S
C2361 C2360 1.391 . S
C2361 C2365 1.376 . S
C2362 C2360 1.394 . S
C2362 C2363 1.369 . S
C2362 C2366 1.531 . S
C2363 C2362 1.369 . S
C2363 C2364 1.410 . S
C2363 C2371 1.503 . S
C2364 C2363 1.410 . S
C2364 C2365 1.392 . S
C2364 C2367 1.511 . S
C2365 C2361 1.376 . S
C2365 C2364 1.392 . S
C2365 H2377 0.929 . S
C2366 C2362 1.531 . S
C2366 H2378 0.960 . S
C2366 H2379 0.962 . S
C2366 H2380 0.960 . S
C2367 C2364 1.511 . S
C2367 H2381 0.961 . S
C2367 H2382 0.961 . S
C2367 H2383 0.961 . S
C2368 C2369 1.370 . S
C2368 C2370 1.363 . S
C2368 H2384 0.931 . S
C2369 C2368 1.370 . S
C2369 C2373 1.408 . S
C2370 C2368 1.363 . S
C2370 C2371 1.370 . S
C2370 C2374 1.524 . S
C2371 C2363 1.503 . S
C2371 C2370 1.370 . S
C2371 C2372 1.403 . S
C2372 C2371 1.403 . S
C2372 C2373 1.404 . S
C2372 C2375 1.539 . S
C2373 C2369 1.408 . S
C2373 C2372 1.404 . S
C2373 H2385 0.930 . S
C2374 C2370 1.524 . S
C2374 H2386 0.956 . S
C2374 H2387 0.961 . S
C2374 H2388 0.961 . S
C2375 C2372 1.539 . S
C2375 H2389 0.958 . S
C2375 H2390 0.961 . S
C2375 H2391 0.960 . S
H2376 C2360 0.931 . S
H2377 C2365 0.929 . S
H2378 C2366 0.960 . S
H2379 C2366 0.962 . S
H2380 C2366 0.960 . S
H2381 C2367 0.961 . S
H2382 C2367 0.961 . S
H2383 C2367 0.961 . S
H2384 C2368 0.931 . S
H2385 C2373 0.930 . S
H2386 C2374 0.956 . S
H2387 C2374 0.961 . S
H2388 C2374 0.961 . S
H2389 C2375 0.958 . S
H2390 C2375 0.961 . S
H2391 C2375 0.960 . S
C2392 C2393 1.391 . S
C2392 C2394 1.394 . S
C2392 H2408 0.931 . S
C2393 C2392 1.391 . S
C2393 C2397 1.376 . S
C2394 C2392 1.394 . S
C2394 C2395 1.369 . S
C2394 C2398 1.531 . S
C2395 C2394 1.369 . S
C2395 C2396 1.410 . S
C2395 C2403 1.503 . S
C2396 C2395 1.410 . S
C2396 C2397 1.392 . S
C2396 C2399 1.511 . S
C2397 C2393 1.376 . S
C2397 C2396 1.392 . S
C2397 H2409 0.929 . S
C2398 C2394 1.531 . S
C2398 H2410 0.960 . S
C2398 H2411 0.962 . S
C2398 H2412 0.960 . S
C2399 C2396 1.511 . S
C2399 H2413 0.961 . S
C2399 H2414 0.961 . S
C2399 H2415 0.961 . S
C2400 C2401 1.370 . S
C2400 C2402 1.363 . S
C2400 H2416 0.931 . S
C2401 C2400 1.370 . S
C2401 C2405 1.408 . S
C2402 C2400 1.363 . S
C2402 C2403 1.370 . S
C2402 C2406 1.524 . S
C2403 C2395 1.503 . S
C2403 C2402 1.370 . S
C2403 C2404 1.403 . S
C2404 C2403 1.403 . S
C2404 C2405 1.404 . S
C2404 C2407 1.539 . S
C2405 C2401 1.408 . S
C2405 C2404 1.404 . S
C2405 H2417 0.930 . S
C2406 C2402 1.524 . S
C2406 H2418 0.956 . S
C2406 H2419 0.961 . S
C2406 H2420 0.961 . S
C2407 C2404 1.539 . S
C2407 H2421 0.958 . S
C2407 H2422 0.961 . S
C2407 H2423 0.960 . S
H2408 C2392 0.931 . S
H2409 C2397 0.929 . S
H2410 C2398 0.960 . S
H2411 C2398 0.962 . S
H2412 C2398 0.960 . S
H2413 C2399 0.961 . S
H2414 C2399 0.961 . S
H2415 C2399 0.961 . S
H2416 C2400 0.931 . S
H2417 C2405 0.930 . S
H2418 C2406 0.956 . S
H2419 C2406 0.961 . S
H2420 C2406 0.961 . S
H2421 C2407 0.958 . S
H2422 C2407 0.961 . S
H2423 C2407 0.960 . S
C2424 C2425 1.391 . S
C2424 C2426 1.394 . S
C2424 H2440 0.931 . S
C2425 C2424 1.391 . S
C2425 C2429 1.376 . S
C2426 C2424 1.394 . S
C2426 C2427 1.369 . S
C2426 C2430 1.531 . S
C2427 C2426 1.369 . S
C2427 C2428 1.410 . S
C2427 C2435 1.503 . S
C2428 C2427 1.410 . S
C2428 C2429 1.392 . S
C2428 C2431 1.511 . S
C2429 C2425 1.376 . S
C2429 C2428 1.392 . S
C2429 H2441 0.929 . S
C2430 C2426 1.531 . S
C2430 H2442 0.960 . S
C2430 H2443 0.962 . S
C2430 H2444 0.960 . S
C2431 C2428 1.511 . S
C2431 H2445 0.961 . S
C2431 H2446 0.961 . S
C2431 H2447 0.961 . S
C2432 C2433 1.370 . S
C2432 C2434 1.363 . S
C2432 H2448 0.931 . S
C2433 C2432 1.370 . S
C2433 C2437 1.408 . S
C2434 C2432 1.363 . S
C2434 C2435 1.370 . S
C2434 C2438 1.524 . S
C2435 C2427 1.503 . S
C2435 C2434 1.370 . S
C2435 C2436 1.403 . S
C2436 C2435 1.403 . S
C2436 C2437 1.404 . S
C2436 C2439 1.539 . S
C2437 C2433 1.408 . S
C2437 C2436 1.404 . S
C2437 H2449 0.930 . S
C2438 C2434 1.524 . S
C2438 H2450 0.956 . S
C2438 H2451 0.961 . S
C2438 H2452 0.961 . S
C2439 C2436 1.539 . S
C2439 H2453 0.958 . S
C2439 H2454 0.961 . S
C2439 H2455 0.960 . S
H2440 C2424 0.931 . S
H2441 C2429 0.929 . S
H2442 C2430 0.960 . S
H2443 C2430 0.962 . S
H2444 C2430 0.960 . S
H2445 C2431 0.961 . S
H2446 C2431 0.961 . S
H2447 C2431 0.961 . S
H2448 C2432 0.931 . S
H2449 C2437 0.930 . S
H2450 C2438 0.956 . S
H2451 C2438 0.961 . S
H2452 C2438 0.961 . S
H2453 C2439 0.958 . S
H2454 C2439 0.961 . S
H2455 C2439 0.960 . S
C2456 C2457 1.391 . S
C2456 C2458 1.394 . S
C2456 H2472 0.931 . S
C2457 C2456 1.391 . S
C2457 C2461 1.376 . S
C2458 C2456 1.394 . S
C2458 C2459 1.369 . S
C2458 C2462 1.531 . S
C2459 C2458 1.369 . S
C2459 C2460 1.410 . S
C2459 C2467 1.503 . S
C2460 C2459 1.410 . S
C2460 C2461 1.392 . S
C2460 C2463 1.511 . S
C2461 C2457 1.376 . S
C2461 C2460 1.392 . S
C2461 H2473 0.929 . S
C2462 C2458 1.531 . S
C2462 H2474 0.960 . S
C2462 H2475 0.962 . S
C2462 H2476 0.960 . S
C2463 C2460 1.511 . S
C2463 H2477 0.961 . S
C2463 H2478 0.961 . S
C2463 H2479 0.961 . S
C2464 C2465 1.370 . S
C2464 C2466 1.363 . S
C2464 H2480 0.931 . S
C2465 C2464 1.370 . S
C2465 C2469 1.408 . S
C2466 C2464 1.363 . S
C2466 C2467 1.370 . S
C2466 C2470 1.524 . S
C2467 C2459 1.503 . S
C2467 C2466 1.370 . S
C2467 C2468 1.403 . S
C2468 C2467 1.403 . S
C2468 C2469 1.404 . S
C2468 C2471 1.539 . S
C2469 C2465 1.408 . S
C2469 C2468 1.404 . S
C2469 H2481 0.930 . S
C2470 C2466 1.524 . S
C2470 H2482 0.956 . S
C2470 H2483 0.961 . S
C2470 H2484 0.961 . S
C2471 C2468 1.539 . S
C2471 H2485 0.958 . S
C2471 H2486 0.961 . S
C2471 H2487 0.960 . S
H2472 C2456 0.931 . S
H2473 C2461 0.929 . S
H2474 C2462 0.960 . S
H2475 C2462 0.962 . S
H2476 C2462 0.960 . S
H2477 C2463 0.961 . S
H2478 C2463 0.961 . S
H2479 C2463 0.961 . S
H2480 C2464 0.931 . S
H2481 C2469 0.930 . S
H2482 C2470 0.956 . S
H2483 C2470 0.961 . S
H2484 C2470 0.961 . S
H2485 C2471 0.958 . S
H2486 C2471 0.961 . S
H2487 C2471 0.960 . S
C2488 C2489 1.391 . S
C2488 C2490 1.394 . S
C2488 H2504 0.931 . S
C2489 C2488 1.391 . S
C2489 C2493 1.376 . S
C2490 C2488 1.394 . S
C2490 C2491 1.369 . S
C2490 C2494 1.531 . S
C2491 C2490 1.369 . S
C2491 C2492 1.410 . S
C2491 C2499 1.503 . S
C2492 C2491 1.410 . S
C2492 C2493 1.392 . S
C2492 C2495 1.511 . S
C2493 C2489 1.376 . S
C2493 C2492 1.392 . S
C2493 H2505 0.929 . S
C2494 C2490 1.531 . S
C2494 H2506 0.960 . S
C2494 H2507 0.962 . S
C2494 H2508 0.960 . S
C2495 C2492 1.511 . S
C2495 H2509 0.961 . S
C2495 H2510 0.961 . S
C2495 H2511 0.961 . S
C2496 C2497 1.370 . S
C2496 C2498 1.363 . S
C2496 H2512 0.931 . S
C2497 C2496 1.370 . S
C2497 C2501 1.408 . S
C2498 C2496 1.363 . S
C2498 C2499 1.370 . S
C2498 C2502 1.524 . S
C2499 C2491 1.503 . S
C2499 C2498 1.370 . S
C2499 C2500 1.403 . S
C2500 C2499 1.403 . S
C2500 C2501 1.404 . S
C2500 C2503 1.539 . S
C2501 C2497 1.408 . S
C2501 C2500 1.404 . S
C2501 H2513 0.930 . S
C2502 C2498 1.524 . S
C2502 H2514 0.956 . S
C2502 H2515 0.961 . S
C2502 H2516 0.961 . S
C2503 C2500 1.539 . S
C2503 H2517 0.958 . S
C2503 H2518 0.961 . S
C2503 H2519 0.960 . S
H2504 C2488 0.931 . S
H2505 C2493 0.929 . S
H2506 C2494 0.960 . S
H2507 C2494 0.962 . S
H2508 C2494 0.960 . S
H2509 C2495 0.961 . S
H2510 C2495 0.961 . S
H2511 C2495 0.961 . S
H2512 C2496 0.931 . S
H2513 C2501 0.930 . S
H2514 C2502 0.956 . S
H2515 C2502 0.961 . S
H2516 C2502 0.961 . S
H2517 C2503 0.958 . S
H2518 C2503 0.961 . S
H2519 C2503 0.960 . S
C2520 C2521 1.391 . S
C2520 C2522 1.394 . S
C2520 H2536 0.931 . S
C2521 C2520 1.391 . S
C2521 C2525 1.376 . S
C2522 C2520 1.394 . S
C2522 C2523 1.369 . S
C2522 C2526 1.531 . S
C2523 C2522 1.369 . S
C2523 C2524 1.410 . S
C2523 C2531 1.503 . S
C2524 C2523 1.410 . S
C2524 C2525 1.392 . S
C2524 C2527 1.511 . S
C2525 C2521 1.376 . S
C2525 C2524 1.392 . S
C2525 H2537 0.929 . S
C2526 C2522 1.531 . S
C2526 H2538 0.960 . S
C2526 H2539 0.962 . S
C2526 H2540 0.960 . S
C2527 C2524 1.511 . S
C2527 H2541 0.961 . S
C2527 H2542 0.961 . S
C2527 H2543 0.961 . S
C2528 C2529 1.370 . S
C2528 C2530 1.363 . S
C2528 H2544 0.931 . S
C2529 C2528 1.370 . S
C2529 C2533 1.408 . S
C2530 C2528 1.363 . S
C2530 C2531 1.370 . S
C2530 C2534 1.524 . S
C2531 C2523 1.503 . S
C2531 C2530 1.370 . S
C2531 C2532 1.403 . S
C2532 C2531 1.403 . S
C2532 C2533 1.404 . S
C2532 C2535 1.539 . S
C2533 C2529 1.408 . S
C2533 C2532 1.404 . S
C2533 H2545 0.930 . S
C2534 C2530 1.524 . S
C2534 H2546 0.956 . S
C2534 H2547 0.961 . S
C2534 H2548 0.961 . S
C2535 C2532 1.539 . S
C2535 H2549 0.958 . S
C2535 H2550 0.961 . S
C2535 H2551 0.960 . S
H2536 C2520 0.931 . S
H2537 C2525 0.929 . S
H2538 C2526 0.960 . S
H2539 C2526 0.962 . S
H2540 C2526 0.960 . S
H2541 C2527 0.961 . S
H2542 C2527 0.961 . S
H2543 C2527 0.961 . S
H2544 C2528 0.931 . S
H2545 C2533 0.930 . S
H2546 C2534 0.956 . S
H2547 C2534 0.961 . S
H2548 C2534 0.961 . S
H2549 C2535 0.958 . S
H2550 C2535 0.961 . S
H2551 C2535 0.960 . S
C2552 C2553 1.391 . S
C2552 C2554 1.394 . S
C2552 H2568 0.931 . S
C2553 C2552 1.391 . S
C2553 C2557 1.376 . S
C2554 C2552 1.394 . S
C2554 C2555 1.369 . S
C2554 C2558 1.531 . S
C2555 C2554 1.369 . S
C2555 C2556 1.410 . S
C2555 C2563 1.503 . S
C2556 C2555 1.410 . S
C2556 C2557 1.392 . S
C2556 C2559 1.511 . S
C2557 C2553 1.376 . S
C2557 C2556 1.392 . S
C2557 H2569 0.929 . S
C2558 C2554 1.531 . S
C2558 H2570 0.960 . S
C2558 H2571 0.962 . S
C2558 H2572 0.960 . S
C2559 C2556 1.511 . S
C2559 H2573 0.961 . S
C2559 H2574 0.961 . S
C2559 H2575 0.961 . S
C2560 C2561 1.370 . S
C2560 C2562 1.363 . S
C2560 H2576 0.931 . S
C2561 C2560 1.370 . S
C2561 C2565 1.408 . S
C2562 C2560 1.363 . S
C2562 C2563 1.370 . S
C2562 C2566 1.524 . S
C2563 C2555 1.503 . S
C2563 C2562 1.370 . S
C2563 C2564 1.403 . S
C2564 C2563 1.403 . S
C2564 C2565 1.404 . S
C2564 C2567 1.539 . S
C2565 C2561 1.408 . S
C2565 C2564 1.404 . S
C2565 H2577 0.930 . S
C2566 C2562 1.524 . S
C2566 H2578 0.956 . S
C2566 H2579 0.961 . S
C2566 H2580 0.961 . S
C2567 C2564 1.539 . S
C2567 H2581 0.958 . S
C2567 H2582 0.961 . S
C2567 H2583 0.960 . S
H2568 C2552 0.931 . S
H2569 C2557 0.929 . S
H2570 C2558 0.960 . S
H2571 C2558 0.962 . S
H2572 C2558 0.960 . S
H2573 C2559 0.961 . S
H2574 C2559 0.961 . S
H2575 C2559 0.961 . S
H2576 C2560 0.931 . S
H2577 C2565 0.930 . S
H2578 C2566 0.956 . S
H2579 C2566 0.961 . S
H2580 C2566 0.961 . S
H2581 C2567 0.958 . S
H2582 C2567 0.961 . S
H2583 C2567 0.960 . S
C2584 C2585 1.391 . S
C2584 C2586 1.394 . S
C2584 H2600 0.931 . S
C2585 C2584 1.391 . S
C2585 C2589 1.376 . S
C2586 C2584 1.394 . S
C2586 C2587 1.369 . S
C2586 C2590 1.531 . S
C2587 C2586 1.369 . S
C2587 C2588 1.410 . S
C2587 C2595 1.503 . S
C2588 C2587 1.410 . S
C2588 C2589 1.392 . S
C2588 C2591 1.511 . S
C2589 C2585 1.376 . S
C2589 C2588 1.392 . S
C2589 H2601 0.929 . S
C2590 C2586 1.531 . S
C2590 H2602 0.960 . S
C2590 H2603 0.962 . S
C2590 H2604 0.960 . S
C2591 C2588 1.511 . S
C2591 H2605 0.961 . S
C2591 H2606 0.961 . S
C2591 H2607 0.961 . S
C2592 C2593 1.370 . S
C2592 C2594 1.363 . S
C2592 H2608 0.931 . S
C2593 C2592 1.370 . S
C2593 C2597 1.408 . S
C2594 C2592 1.363 . S
C2594 C2595 1.370 . S
C2594 C2598 1.524 . S
C2595 C2587 1.503 . S
C2595 C2594 1.370 . S
C2595 C2596 1.403 . S
C2596 C2595 1.403 . S
C2596 C2597 1.404 . S
C2596 C2599 1.539 . S
C2597 C2593 1.408 . S
C2597 C2596 1.404 . S
C2597 H2609 0.930 . S
C2598 C2594 1.524 . S
C2598 H2610 0.956 . S
C2598 H2611 0.961 . S
C2598 H2612 0.961 . S
C2599 C2596 1.539 . S
C2599 H2613 0.958 . S
C2599 H2614 0.961 . S
C2599 H2615 0.960 . S
H2600 C2584 0.931 . S
H2601 C2589 0.929 . S
H2602 C2590 0.960 . S
H2603 C2590 0.962 . S
H2604 C2590 0.960 . S
H2605 C2591 0.961 . S
H2606 C2591 0.961 . S
H2607 C2591 0.961 . S
H2608 C2592 0.931 . S
H2609 C2597 0.930 . S
H2610 C2598 0.956 . S
H2611 C2598 0.961 . S
H2612 C2598 0.961 . S
H2613 C2599 0.958 . S
H2614 C2599 0.961 . S
H2615 C2599 0.960 . S
C2616 C2617 1.391 . S
C2616 C2618 1.394 . S
C2616 H2632 0.931 . S
C2617 C2616 1.391 . S
C2617 C2621 1.376 . S
C2618 C2616 1.394 . S
C2618 C2619 1.369 . S
C2618 C2622 1.531 . S
C2619 C2618 1.369 . S
C2619 C2620 1.410 . S
C2619 C2627 1.503 1_455 S
C2620 C2619 1.410 . S
C2620 C2621 1.392 . S
C2620 C2623 1.511 1_455 S
C2621 C2617 1.376 . S
C2621 C2620 1.392 . S
C2621 H2633 0.929 . S
C2622 C2618 1.531 . S
C2622 H2634 0.960 . S
C2622 H2635 0.962 . S
C2622 H2636 0.960 . S
C2623 C2620 1.511 1_655 S
C2623 H2637 0.961 . S
C2623 H2638 0.961 . S
C2623 H2639 0.961 . S
C2624 C2625 1.370 . S
C2624 C2626 1.363 . S
C2624 H2640 0.931 . S
C2625 C2624 1.370 . S
C2625 C2629 1.408 . S
C2626 C2624 1.363 . S
C2626 C2627 1.370 . S
C2626 C2630 1.524 1_655 S
C2627 C2619 1.503 1_655 S
C2627 C2626 1.370 . S
C2627 C2628 1.403 . S
C2628 C2627 1.403 . S
C2628 C2629 1.404 . S
C2628 C2631 1.539 . S
C2629 C2625 1.408 . S
C2629 C2628 1.404 . S
C2629 H2641 0.930 . S
C2630 C2626 1.524 1_455 S
C2630 H2642 0.956 . S
C2630 H2643 0.961 . S
C2630 H2644 0.961 . S
C2631 C2628 1.539 . S
C2631 H2645 0.958 . S
C2631 H2646 0.961 . S
C2631 H2647 0.960 . S
H2632 C2616 0.931 . S
H2633 C2621 0.929 . S
H2634 C2622 0.960 . S
H2635 C2622 0.962 . S
H2636 C2622 0.960 . S
H2637 C2623 0.961 . S
H2638 C2623 0.961 . S
H2639 C2623 0.961 . S
H2640 C2624 0.931 . S
H2641 C2629 0.930 . S
H2642 C2630 0.956 . S
H2643 C2630 0.961 . S
H2644 C2630 0.961 . S
H2645 C2631 0.958 . S
H2646 C2631 0.961 . S
H2647 C2631 0.960 . S
C2648 C2649 1.391 . S
C2648 C2650 1.394 . S
C2648 H2664 0.931 . S
C2649 C2648 1.391 . S
C2649 C2653 1.376 . S
C2650 C2648 1.394 . S
C2650 C2651 1.369 . S
C2650 C2654 1.531 . S
C2651 C2650 1.369 . S
C2651 C2652 1.410 . S
C2651 C2659 1.503 . S
C2652 C2651 1.410 . S
C2652 C2653 1.392 . S
C2652 C2655 1.511 . S
C2653 C2649 1.376 . S
C2653 C2652 1.392 . S
C2653 H2665 0.929 . S
C2654 C2650 1.531 . S
C2654 H2666 0.960 . S
C2654 H2667 0.962 . S
C2654 H2668 0.960 . S
C2655 C2652 1.511 . S
C2655 H2669 0.961 . S
C2655 H2670 0.961 . S
C2655 H2671 0.961 . S
C2656 C2657 1.370 . S
C2656 C2658 1.363 . S
C2656 H2672 0.931 . S
C2657 C2656 1.370 . S
C2657 C2661 1.408 . S
C2658 C2656 1.363 . S
C2658 C2659 1.370 . S
C2658 C2662 1.524 . S
C2659 C2651 1.503 . S
C2659 C2658 1.370 . S
C2659 C2660 1.403 . S
C2660 C2659 1.403 . S
C2660 C2661 1.404 . S
C2660 C2663 1.539 . S
C2661 C2657 1.408 . S
C2661 C2660 1.404 . S
C2661 H2673 0.930 . S
C2662 C2658 1.524 . S
C2662 H2674 0.956 . S
C2662 H2675 0.961 . S
C2662 H2676 0.961 . S
C2663 C2660 1.539 . S
C2663 H2677 0.958 . S
C2663 H2678 0.961 . S
C2663 H2679 0.960 . S
H2664 C2648 0.931 . S
H2665 C2653 0.929 . S
H2666 C2654 0.960 . S
H2667 C2654 0.962 . S
H2668 C2654 0.960 . S
H2669 C2655 0.961 . S
H2670 C2655 0.961 . S
H2671 C2655 0.961 . S
H2672 C2656 0.931 . S
H2673 C2661 0.930 . S
H2674 C2662 0.956 . S
H2675 C2662 0.961 . S
H2676 C2662 0.961 . S
H2677 C2663 0.958 . S
H2678 C2663 0.961 . S
H2679 C2663 0.960 . S
C2680 C2681 1.391 . S
C2680 C2682 1.394 . S
C2680 H2696 0.931 . S
C2681 C2680 1.391 . S
C2681 C2685 1.376 . S
C2682 C2680 1.394 . S
C2682 C2683 1.369 . S
C2682 C2686 1.531 . S
C2683 C2682 1.369 . S
C2683 C2684 1.410 . S
C2683 C2691 1.503 1_545 S
C2684 C2683 1.410 . S
C2684 C2685 1.392 . S
C2684 C2687 1.511 1_545 S
C2685 C2681 1.376 . S
C2685 C2684 1.392 . S
C2685 H2697 0.929 . S
C2686 C2682 1.531 . S
C2686 H2698 0.960 . S
C2686 H2699 0.962 . S
C2686 H2700 0.960 . S
C2687 C2684 1.511 1_565 S
C2687 H2701 0.961 . S
C2687 H2702 0.961 . S
C2687 H2703 0.961 . S
C2688 C2689 1.370 . S
C2688 C2690 1.363 . S
C2688 H2704 0.931 . S
C2689 C2688 1.370 . S
C2689 C2693 1.408 . S
C2690 C2688 1.363 . S
C2690 C2691 1.370 . S
C2690 C2694 1.524 1_565 S
C2691 C2683 1.503 1_565 S
C2691 C2690 1.370 . S
C2691 C2692 1.403 . S
C2692 C2691 1.403 . S
C2692 C2693 1.404 . S
C2692 C2695 1.539 . S
C2693 C2689 1.408 . S
C2693 C2692 1.404 . S
C2693 H2705 0.930 . S
C2694 C2690 1.524 1_545 S
C2694 H2706 0.956 . S
C2694 H2707 0.961 . S
C2694 H2708 0.961 . S
C2695 C2692 1.539 . S
C2695 H2709 0.958 . S
C2695 H2710 0.961 . S
C2695 H2711 0.960 . S
H2696 C2680 0.931 . S
H2697 C2685 0.929 . S
H2698 C2686 0.960 . S
H2699 C2686 0.962 . S
H2700 C2686 0.960 . S
H2701 C2687 0.961 . S
H2702 C2687 0.961 . S
H2703 C2687 0.961 . S
H2704 C2688 0.931 . S
H2705 C2693 0.930 . S
H2706 C2694 0.956 . S
H2707 C2694 0.961 . S
H2708 C2694 0.961 . S
H2709 C2695 0.958 . S
H2710 C2695 0.961 . S
H2711 C2695 0.960 . S
C2712 C2713 1.391 . S
C2712 C2714 1.394 . S
C2712 H2728 0.931 . S
C2713 C2712 1.391 . S
C2713 C2717 1.376 . S
C2714 C2712 1.394 . S
C2714 C2715 1.369 1_554 S
C2714 C2718 1.531 1_545 S
C2715 C2714 1.369 1_556 S
C2715 C2716 1.410 . S
C2715 C2723 1.503 1_545 S
C2716 C2715 1.410 . S
C2716 C2717 1.392 1_556 S
C2716 C2719 1.511 . S
C2717 C2713 1.376 . S
C2717 C2716 1.392 1_554 S
C2717 H2729 0.929 . S
C2718 C2714 1.531 1_565 S
C2718 H2730 0.960 1_554 S
C2718 H2731 0.962 . S
C2718 H2732 0.959 1_554 S
C2719 C2716 1.511 . S
C2719 H2733 1.020 . S
C2719 H2734 0.961 . S
C2719 H2735 0.961 . S
C2720 C2721 1.370 1_554 S
C2720 C2722 1.363 . S
C2720 H2736 0.931 . S
C2721 C2720 1.370 1_556 S
C2721 C2725 1.408 . S
C2722 C2720 1.363 . S
C2722 C2723 1.370 1_554 S
C2722 C2726 1.524 . S
C2723 C2715 1.503 1_565 S
C2723 C2722 1.370 1_556 S
C2723 C2724 1.403 . S
C2724 C2723 1.403 . S
C2724 C2725 1.404 . S
C2724 C2727 1.539 . S
C2725 C2721 1.408 . S
C2725 C2724 1.404 . S
C2725 H2737 0.930 . S
C2726 C2722 1.524 . S
C2726 H2738 0.956 . S
C2726 H2739 0.961 1_565 S
C2726 H2740 0.961 . S
C2727 C2724 1.539 . S
C2727 H2741 0.958 . S
C2727 H2742 0.961 . S
C2727 H2743 0.960 1_565 S
H2728 C2712 0.931 . S
H2729 C2717 0.929 . S
H2730 C2718 0.960 1_556 S
H2731 C2718 0.962 . S
H2732 C2718 0.959 1_556 S
H2733 C2719 1.020 . S
H2734 C2719 0.961 . S
H2735 C2719 0.961 . S
H2736 C2720 0.931 . S
H2737 C2725 0.930 . S
H2738 C2726 0.956 . S
H2739 C2726 0.961 1_545 S
H2740 C2726 0.961 . S
H2741 C2727 0.958 . S
H2742 C2727 0.961 . S
H2743 C2727 0.960 1_545 S
C2744 C2745 1.391 . S
C2744 C2746 1.427 . S
C2744 H2760 0.931 . S
C2745 C2744 1.391 . S
C2745 C2749 1.376 . S
C2746 C2744 1.427 . S
C2746 C2747 1.352 1_554 S
C2746 C2750 1.526 1_654 S
C2747 C2746 1.352 1_556 S
C2747 C2748 1.414 . S
C2747 C2755 1.503 1_655 S
C2748 C2747 1.414 . S
C2748 C2749 1.378 1_556 S
C2748 C2751 1.524 . S
C2749 C2745 1.376 . S
C2749 C2748 1.378 1_554 S
C2749 H2761 0.929 . S
C2750 C2746 1.526 1_456 S
C2750 H2762 0.955 . S
C2750 H2763 0.968 1_556 S
C2750 H2764 0.959 . S
C2751 C2748 1.524 . S
C2751 H2765 0.917 1_556 S
C2751 H2766 0.961 . S
C2751 H2767 0.961 . S
C2752 C2753 1.370 1_554 S
C2752 C2754 1.363 . S
C2752 H2768 0.931 . S
C2753 C2752 1.370 1_556 S
C2753 C2757 1.408 . S
C2754 C2752 1.363 . S
C2754 C2755 1.370 1_554 S
C2754 C2758 1.524 . S
C2755 C2747 1.503 1_455 S
C2755 C2754 1.370 1_556 S
C2755 C2756 1.403 . S
C2756 C2755 1.403 . S
C2756 C2757 1.404 . S
C2756 C2759 1.539 . S
C2757 C2753 1.408 . S
C2757 C2756 1.404 . S
C2757 H2769 0.930 . S
C2758 C2754 1.524 . S
C2758 H2770 0.956 . S
C2758 H2771 0.961 1_455 S
C2758 H2772 0.961 . S
C2759 C2756 1.539 . S
C2759 H2773 0.958 . S
C2759 H2774 0.961 . S
C2759 H2775 0.960 1_455 S
H2760 C2744 0.931 . S
H2761 C2749 0.929 . S
H2762 C2750 0.955 . S
H2763 C2750 0.968 1_554 S
H2764 C2750 0.959 . S
H2765 C2751 0.917 1_554 S
H2766 C2751 0.961 . S
H2767 C2751 0.961 . S
H2768 C2752 0.931 . S
H2769 C2757 0.930 . S
H2770 C2758 0.956 . S
H2771 C2758 0.961 1_655 S
H2772 C2758 0.961 . S
H2773 C2759 0.958 . S
H2774 C2759 0.961 . S
H2775 C2759 0.960 1_655 S
C2776 C2777 1.391 1_554 S
C2776 C2778 1.394 . S
C2776 H2792 0.931 . S
C2777 C2776 1.391 1_556 S
C2777 C2781 1.376 . S
C2778 C2776 1.394 . S
C2778 C2779 1.369 1_554 S
C2778 C2782 1.531 . S
C2779 C2778 1.369 1_556 S
C2779 C2780 1.410 . S
C2779 C2787 1.503 1_556 S
C2780 C2779 1.410 . S
C2780 C2781 1.392 . S
C2780 C2783 1.511 . S
C2781 C2777 1.376 . S
C2781 C2780 1.392 . S
C2781 H2793 0.929 . S
C2782 C2778 1.531 . S
C2782 H2794 0.960 . S
C2782 H2795 0.962 . S
C2782 H2796 0.960 . S
C2783 C2780 1.511 . S
C2783 H2797 0.961 . S
C2783 H2798 0.961 . S
C2783 H2799 0.961 . S
C2784 C2785 1.370 . S
C2784 C2786 1.363 . S
C2784 H2800 0.931 . S
C2785 C2784 1.370 . S
C2785 C2789 1.408 . S
C2786 C2784 1.363 . S
C2786 C2787 1.370 . S
C2786 C2790 1.524 . S
C2787 C2779 1.503 1_554 S
C2787 C2786 1.370 . S
C2787 C2788 1.403 . S
C2788 C2787 1.403 . S
C2788 C2789 1.404 . S
C2788 C2791 1.552 . S
C2789 C2785 1.408 . S
C2789 C2788 1.404 . S
C2789 H2801 0.930 . S
C2790 C2786 1.524 . S
C2790 H2802 0.956 . S
C2790 H2803 0.961 1_554 S
C2790 H2804 0.961 . S
C2791 C2788 1.552 . S
C2791 H2805 1.021 . S
C2791 H2806 0.935 1_554 S
C2791 H2807 0.916 1_554 S
H2792 C2776 0.931 . S
H2793 C2781 0.929 . S
H2794 C2782 0.960 . S
H2795 C2782 0.962 . S
H2796 C2782 0.960 . S
H2797 C2783 0.961 . S
H2798 C2783 0.961 . S
H2799 C2783 0.961 . S
H2800 C2784 0.931 . S
H2801 C2789 0.930 . S
H2802 C2790 0.956 . S
H2803 C2790 0.961 1_556 S
H2804 C2790 0.961 . S
H2805 C2791 1.021 . S
H2806 C2791 0.935 1_556 S
H2807 C2791 0.916 1_556 S
C505 C9 1.354 . S
C513 C22 1.453 . S
C537 C23 1.362 . S
C545 C36 1.447 . S
C569 C8 1.446 . S
C577 C37 1.360 . S
C601 C51 1.332 . S
C609 C78 1.453 . S
C633 C65 1.367 . S
C641 C50 1.453 . S
C665 C64 1.451 . S
C673 C79 1.323 . S
C697 C93 1.296 . S
C705 C106 1.449 . S
C729 C120 1.446 . S
C737 C107 1.358 . S
C761 C92 1.453 . S
C769 C121 1.323 . S
C793 C162 1.439 . S
C801 C135 1.338 . S
C825 C149 1.335 . S
C833 C134 1.448 . S
C857 C163 1.376 . S
C865 C148 1.451 . S
C889 C190 1.453 . S
C897 C177 1.327 . S
C921 C191 1.357 . S
C929 C204 1.453 . S
C953 C205 1.383 . S
C961 C176 1.450 . S
C985 C219 1.329 . S
C993 C246 1.446 . S
C1017 C233 1.296 . S
C1025 C218 1.452 . S
C1049 C247 1.316 . S
C1057 C232 1.448 . S
C1081 C274 1.452 . S
C1089 C261 1.347 . S
C1113 C275 1.365 . S
C1121 C288 1.452 . S
C1145 C260 1.439 . S
C1153 C289 1.342 . S
C1177 C330 1.453 . S
C1185 C303 1.322 . S
C1209 C317 1.377 . S
C1217 C302 1.451 . S
C1241 C316 1.454 . S
C1249 C331 1.342 . S
C1273 C358 1.441 . S
C1281 C345 1.357 . S
C1305 C359 1.325 . S
C1313 C372 1.454 . S
C1337 C373 1.363 . S
C1345 C344 1.448 . S
C1369 C414 1.454 . S
C1377 C387 1.337 . S
C1401 C401 1.321 . S
C1409 C386 1.448 . S
C1433 C400 1.440 . S
C1441 C415 1.331 . S
C1465 C429 1.325 . S
C1473 C442 1.447 . S
C1497 C443 1.383 . S
C1505 C456 1.449 . S
C1529 C457 1.380 . S
C1537 C428 1.448 . S
C1561 C498 1.440 . S
C1569 C471 1.357 . S
C1593 C470 1.455 . S
C1601 C485 1.335 . S
C1625 C499 1.367 . S
C1633 C484 1.452 . S
C1657 C49 1.724 . S
C1665 C7 1.730 . S
C1689 C21 1.746 . S
C1697 C63 1.762 . S
C1721 C77 1.706 . S
C1729 C35 1.747 . S
C1753 C133 1.754 . S
C1761 C91 1.761 . S
C1785 C105 1.750 . S
C1793 C147 1.761 . S
C1817 C161 1.764 . S
C1825 C119 1.763 . S
C1849 C175 1.776 . S
C1857 C217 1.745 . S
C1881 C189 1.745 . S
C1889 C231 1.762 . S
C1913 C203 1.704 . S
C1921 C245 1.740 . S
C1945 C301 1.743 . S
C1953 C259 1.759 . S
C1977 C315 1.715 . S
C1985 C273 1.748 . S
C2009 C287 1.720 . S
C2017 C329 1.731 . S
C2041 C385 1.704 . S
C2049 C343 1.739 . S
C2073 C399 1.741 . S
C2081 C357 1.732 . S
C2105 C371 1.776 . S
C2113 C413 1.760 . S
C2137 C427 1.772 . S
C2145 C469 1.762 . S
C2169 C483 1.708 . S
C2177 C441 1.743 . S
C2201 C455 1.750 . S
C2209 C497 1.737 . S
C2233 C6 1.608 . S
C2241 C258 1.579 . S
C2265 C20 1.604 . S
C2273 C272 1.580 . S
C2297 C34 1.600 . S
C2305 C286 1.585 . S
C2329 C468 1.607 . S
C2337 C48 1.579 . S
C2361 C482 1.576 . S
C2369 C62 1.596 . S
C2393 C76 1.583 . S
C2401 C496 1.588 . S
C2425 C90 1.573 . S
C2433 C342 1.595 . S
C2457 C356 1.585 . S
C2465 C104 1.587 . S
C2489 C370 1.585 . S
C2497 C118 1.592 . S
C2521 C216 1.566 . S
C2529 C132 1.596 . S
C2553 C230 1.607 . S
C2561 C146 1.580 . S
C2585 C244 1.604 . S
C2593 C160 1.580 . S
C2617 C426 1.597 . S
C2625 C174 1.581 . S
C2649 C188 1.576 . S
C2657 C440 1.594 . S
C2681 C202 1.607 . S
C2689 C454 1.581 . S
C2713 C300 1.584 . S
C2721 C384 1.590 . S
C2745 C314 1.584 . S
C2753 C398 1.592 . S
C2777 C412 1.608 . S
C2785 C328 1.579 . S
