# Generated by pormake.
# Topology noo, (5)-cn, num edge types: 1
# Building blocks:
#     Node 0, Type 0, BuildingBlock: BEQFEK_clean_sbu_0, # of connection points: 5
#     Node 1, Type 0, BuildingBlock: BEQFEK_clean_sbu_0, # of connection points: 5
#     Node 2, Type 0, BuildingBlock: BEQFEK_clean_sbu_0, # of connection points: 5
#     Node 3, Type 0, BuildingBlock: BEQFEK_clean_sbu_0, # of connection points: 5
#     Node 4, Type 0, BuildingBlock: BEQFEK_clean_sbu_0, # of connection points: 5
#     Node 5, Type 0, BuildingBlock: BEQFEK_clean_sbu_0, # of connection points: 5
#     Node 6, Type 0, BuildingBlock: BEQFEK_clean_sbu_0, # of connection points: 5
#     Node 7, Type 0, BuildingBlock: BEQFEK_clean_sbu_0, # of connection points: 5
#     Edge 8, Type (0, 0), BuildingBlock: UVAHIK_clean_linker_0, # of connection points: 2
#     Edge 9, Type (0, 0), BuildingBlock: UVAHIK_clean_linker_0, # of connection points: 2
#     Edge 10, Type (0, 0), BuildingBlock: UVAHIK_clean_linker_0, # of connection points: 2
#     Edge 11, Type (0, 0), BuildingBlock: UVAHIK_clean_linker_0, # of connection points: 2
#     Edge 12, Type (0, 0), BuildingBlock: UVAHIK_clean_linker_0, # of connection points: 2
#     Edge 13, Type (0, 0), BuildingBlock: UVAHIK_clean_linker_0, # of connection points: 2
#     Edge 14, Type (0, 0), BuildingBlock: UVAHIK_clean_linker_0, # of connection points: 2
#     Edge 15, Type (0, 0), BuildingBlock: UVAHIK_clean_linker_0, # of connection points: 2
#     Edge 16, Type (0, 0), BuildingBlock: UVAHIK_clean_linker_0, # of connection points: 2
#     Edge 17, Type (0, 0), BuildingBlock: UVAHIK_clean_linker_0, # of connection points: 2
#     Edge 18, Type (0, 0), BuildingBlock: UVAHIK_clean_linker_0, # of connection points: 2
#     Edge 19, Type (0, 0), BuildingBlock: UVAHIK_clean_linker_0, # of connection points: 2
#     Edge 20, Type (0, 0), BuildingBlock: UVAHIK_clean_linker_0, # of connection points: 2
#     Edge 21, Type (0, 0), BuildingBlock: UVAHIK_clean_linker_0, # of connection points: 2
#     Edge 22, Type (0, 0), BuildingBlock: UVAHIK_clean_linker_0, # of connection points: 2
#     Edge 23, Type (0, 0), BuildingBlock: UVAHIK_clean_linker_0, # of connection points: 2
#     Edge 24, Type (0, 0), BuildingBlock: UVAHIK_clean_linker_0, # of connection points: 2
#     Edge 25, Type (0, 0), BuildingBlock: UVAHIK_clean_linker_0, # of connection points: 2
#     Edge 26, Type (0, 0), BuildingBlock: UVAHIK_clean_linker_0, # of connection points: 2
#     Edge 27, Type (0, 0), BuildingBlock: UVAHIK_clean_linker_0, # of connection points: 2
# Relax obj value: 0.142
# Max RMSD: 0.147
# Mean RMSD: 0.147
data_MOF--net-noo--node1-BEQFEK_clean_sbu_0--edge1-UVAHIK_clean_linker_0
_symmetry_space_group_name_H-M    P1
_symmetry_Int_Tables_number       1
_symmetry_cell_setting            triclinic
loop_
_symmetry_equiv_pos_as_xyz
'x, y, z'
_cell_length_a     50.374558
_cell_length_b     50.355676
_cell_length_c     37.822939
_cell_angle_alpha  90.003951
_cell_angle_beta   90.025025
_cell_angle_gamma 90.019925
loop_
_atom_site_label
_atom_site_type_symbol
_atom_site_fract_x
_atom_site_fract_y
_atom_site_fract_z
_atom_type_partial_charge
Co0 Co 0.37704 0.2541 0.03946 0.0
Co1 Co 0.40108 0.19727 0.04845 0.0
C2 C 0.3693 0.21058 0.98476 0.0
O3 O 0.36561 0.23424 0.99597 0.0
O4 O 0.38264 0.19374 1.0026 0.0
C5 C 0.33606 0.29464 0.03238 0.0
O6 O 0.31994 0.27522 0.02355 0.0
C7 C 0.41968 0.14116 0.04868 0.0
C8 C 0.44544 0.14248 0.096 0.0
C9 C 0.43731 0.12607 0.0687 0.0
N10 N 0.41771 0.16534 0.06363 0.0
N11 N 0.43317 0.16591 0.09183 0.0
C12 C 0.40475 0.13293 0.01631 0.0
H13 H 0.38495 0.14255 0.01593 0.0
H14 H 0.40227 0.11104 0.01533 0.0
H15 H 0.41583 0.13954 0.99253 0.0
C16 C 0.35461 0.24066 0.11056 0.0
N17 N 0.36849 0.23462 0.0811 0.0
N18 N 0.3778 0.21028 0.08401 0.0
C19 C 0.36966 0.19993 0.11501 0.0
C20 C 0.35501 0.21887 0.13305 0.0
C21 C 0.34279 0.26733 0.11796 0.0
H22 H 0.35686 0.28316 0.1099 0.0
H23 H 0.32439 0.26963 0.10212 0.0
H24 H 0.3378 0.26965 0.14637 0.0
O25 O 0.41568 0.26179 0.03752 0.0
O26 O 0.43163 0.22109 0.04241 0.0
H27 H 0.3942 0.17162 0.14151 0.0
H28 H 0.35927 0.1652 0.14534 0.0
C29 C 0.37505 0.17214 0.12706 0.0
H30 H 0.37611 0.15851 0.10408 0.0
H31 H 0.43591 0.18264 0.1077 0.0
O32 O 0.36003 0.28944 0.04013 0.0
C33 C 0.43523 0.24587 0.03871 0.0
Co34 Co 0.74703 0.37707 0.03932 0.0
Co35 Co 0.80419 0.40029 0.04797 0.0
C36 C 0.78951 0.36977 0.98346 0.0
O37 O 0.76603 0.36597 0.99516 0.0
O38 O 0.80663 0.38281 1.00124 0.0
C39 C 0.70619 0.33704 0.02978 0.0
O40 O 0.72539 0.32173 0.01806 0.0
C41 C 0.86128 0.41496 0.04749 0.0
C42 C 0.86228 0.44175 0.0938 0.0
C43 C 0.87786 0.43151 0.06694 0.0
N44 N 0.83701 0.41554 0.0623 0.0
N45 N 0.83779 0.43165 0.08985 0.0
C46 C 0.86832 0.39843 0.01602 0.0
H47 H 0.85736 0.37933 0.01687 0.0
H48 H 0.88997 0.39444 0.01505 0.0
H49 H 0.86237 0.40914 0.99164 0.0
C50 C 0.76089 0.35307 0.10909 0.0
N51 N 0.76688 0.3676 0.08023 0.0
N52 N 0.79146 0.37625 0.08297 0.0
C53 C 0.80216 0.36675 0.11313 0.0
C54 C 0.78309 0.35193 0.13084 0.0
C55 C 0.73444 0.34045 0.11549 0.0
H56 H 0.71848 0.35531 0.11131 0.0
H57 H 0.7315 0.32419 0.0961 0.0
H58 H 0.73293 0.33206 0.14253 0.0
O59 O 0.73998 0.41579 0.0385 0.0
O60 O 0.78077 0.4315 0.04386 0.0
H61 H 0.82946 0.39277 0.13889 0.0
H62 H 0.83675 0.35827 0.14528 0.0
C63 C 0.8296 0.37306 0.12581 0.0
H64 H 0.84355 0.37369 0.10316 0.0
H65 H 0.8214 0.43607 0.10565 0.0
O66 O 0.71155 0.36039 0.04026 0.0
C67 C 0.75598 0.43527 0.04039 0.0
Co68 Co 0.62316 0.74668 0.04001 0.0
Co69 Co 0.60168 0.80454 0.04822 0.0
C70 C 0.6319 0.78921 0.98412 0.0
O71 O 0.63416 0.76545 0.99559 0.0
O72 O 0.62003 0.80703 1.00209 0.0
C73 C 0.66297 0.70575 0.03074 0.0
O74 O 0.67835 0.7251 0.01961 0.0
C75 C 0.58749 0.86178 0.04788 0.0
C76 C 0.5608 0.86287 0.09426 0.0
C77 C 0.57106 0.87843 0.06737 0.0
N78 N 0.58683 0.8375 0.0627 0.0
N79 N 0.57079 0.83834 0.0903 0.0
C80 C 0.60403 0.86873 0.0164 0.0
H81 H 0.62334 0.8582 0.01782 0.0
H82 H 0.60759 0.89045 0.01486 0.0
H83 H 0.59364 0.86212 0.99206 0.0
C84 C 0.64732 0.76012 0.10996 0.0
N85 N 0.63309 0.76641 0.08092 0.0
N86 N 0.6251 0.79122 0.0835 0.0
C87 C 0.63478 0.80177 0.11366 0.0
C88 C 0.649 0.78236 0.1316 0.0
C89 C 0.65915 0.73333 0.11664 0.0
H90 H 0.64399 0.71774 0.11188 0.0
H91 H 0.67568 0.73006 0.09779 0.0
H92 H 0.667 0.73155 0.14393 0.0
O93 O 0.58441 0.74032 0.03948 0.0
O94 O 0.56996 0.78166 0.04338 0.0
H95 H 0.60963 0.82986 0.13935 0.0
H96 H 0.64431 0.83636 0.14531 0.0
C97 C 0.62923 0.82945 0.12607 0.0
H98 H 0.62883 0.84327 0.10327 0.0
H99 H 0.56629 0.82196 0.1061 0.0
O100 O 0.6395 0.71099 0.0408 0.0
C101 C 0.56544 0.75693 0.04058 0.0
Co102 Co 0.25429 0.62453 0.04062 0.0
Co103 Co 0.19749 0.60025 0.0491 0.0
C104 C 0.2112 0.63132 0.98502 0.0
O105 O 0.23471 0.63527 0.99659 0.0
O106 O 0.19424 0.61812 1.00283 0.0
C107 C 0.29411 0.66613 0.03321 0.0
O108 O 0.27442 0.68168 0.02374 0.0
C109 C 0.14145 0.58148 0.04896 0.0
C110 C 0.14266 0.55574 0.09629 0.0
C111 C 0.12633 0.56383 0.0689 0.0
N112 N 0.16558 0.58349 0.06404 0.0
N113 N 0.16608 0.56804 0.09224 0.0
C114 C 0.13329 0.59642 0.01657 0.0
H115 H 0.143 0.61619 0.01615 0.0
H116 H 0.11142 0.59898 0.01559 0.0
H117 H 0.13983 0.58527 0.99281 0.0
C118 C 0.24016 0.64735 0.11128 0.0
N119 N 0.23437 0.63334 0.08181 0.0
N120 N 0.21005 0.62395 0.08446 0.0
C121 C 0.19946 0.63216 0.11527 0.0
C122 C 0.21822 0.64695 0.13349 0.0
C123 C 0.26676 0.6592 0.11902 0.0
H124 H 0.28264 0.64509 0.1113 0.0
H125 H 0.26921 0.67753 0.10309 0.0
H126 H 0.26884 0.66431 0.14743 0.0
O127 O 0.26229 0.58585 0.03944 0.0
O128 O 0.22159 0.56988 0.04401 0.0
H129 H 0.17125 0.60736 0.14153 0.0
H130 H 0.16453 0.64225 0.14532 0.0
C131 C 0.17167 0.62652 0.12709 0.0
H132 H 0.15816 0.62533 0.10401 0.0
H133 H 0.18276 0.56536 0.10823 0.0
O134 O 0.28937 0.64214 0.04145 0.0
C135 C 0.24639 0.56627 0.04074 0.0
Co136 Co 0.87591 0.24641 0.57747 0.0
Co137 Co 0.89884 0.30369 0.56846 0.0
C138 C 0.8688 0.28914 0.63325 0.0
O139 O 0.865 0.26559 0.62173 0.0
O140 O 0.88168 0.30622 0.61523 0.0
C141 C 0.83517 0.20624 0.58628 0.0
O142 O 0.81993 0.22594 0.59661 0.0
C143 C 0.91374 0.36071 0.56894 0.0
C144 C 0.9398 0.36181 0.52193 0.0
C145 C 0.9301 0.3773 0.54925 0.0
N146 N 0.91394 0.33651 0.55385 0.0
N147 N 0.9296 0.33736 0.52587 0.0
C148 C 0.89773 0.36767 0.60091 0.0
H149 H 0.90873 0.36142 0.62493 0.0
H150 H 0.87852 0.3569 0.60036 0.0
H151 H 0.89396 0.38936 0.60227 0.0
C152 C 0.8515 0.26027 0.50771 0.0
N153 N 0.86622 0.26619 0.53649 0.0
N154 N 0.8746 0.29088 0.53389 0.0
C155 C 0.86468 0.30173 0.50408 0.0
C156 C 0.84991 0.28265 0.48637 0.0
C157 C 0.83911 0.23375 0.50101 0.0
H158 H 0.8537 0.21779 0.50661 0.0
H159 H 0.82203 0.23113 0.51916 0.0
H160 H 0.83188 0.23195 0.4734 0.0
O161 O 0.91472 0.23938 0.57801 0.0
O162 O 0.93001 0.2803 0.57222 0.0
H163 H 0.88965 0.32984 0.47807 0.0
H164 H 0.85491 0.33659 0.47318 0.0
C165 C 0.87025 0.32946 0.4919 0.0
H166 H 0.87113 0.34311 0.51487 0.0
H167 H 0.93368 0.32103 0.50978 0.0
O168 O 0.85891 0.211 0.5769 0.0
C169 C 0.93403 0.25556 0.57577 0.0
Co170 Co 0.75266 0.87783 0.57783 0.0
Co171 Co 0.69478 0.89922 0.57006 0.0
C172 C 0.7105 0.8692 0.6342 0.0
O173 O 0.73418 0.86691 0.6225 0.0
O174 O 0.69258 0.88104 0.61635 0.0
C175 C 0.79368 0.83826 0.58734 0.0
O176 O 0.77441 0.82292 0.59879 0.0
C177 C 0.63752 0.9131 0.5709 0.0
C178 C 0.6359 0.93945 0.52418 0.0
C179 C 0.62062 0.92929 0.55141 0.0
N180 N 0.66167 0.91382 0.55577 0.0
N181 N 0.66052 0.92965 0.52796 0.0
C182 C 0.63089 0.89669 0.60264 0.0
H183 H 0.64142 0.87738 0.60119 0.0
H184 H 0.6092 0.8931 0.60458 0.0
H185 H 0.63774 0.90719 0.62677 0.0
C186 C 0.73876 0.85313 0.50836 0.0
N187 N 0.73275 0.86771 0.53719 0.0
N188 N 0.70791 0.87564 0.53487 0.0
C189 C 0.69707 0.86556 0.50515 0.0
C190 C 0.7163 0.85115 0.48719 0.0
C191 C 0.76543 0.84112 0.50154 0.0
H192 H 0.78113 0.85617 0.5062 0.0
H193 H 0.76865 0.82454 0.52036 0.0
H194 H 0.76703 0.83328 0.47421 0.0
O195 O 0.75892 0.91657 0.57809 0.0
O196 O 0.7176 0.93107 0.57442 0.0
H197 H 0.66831 0.89013 0.47975 0.0
H198 H 0.66222 0.85529 0.47444 0.0
C199 C 0.66917 0.87063 0.4933 0.0
H200 H 0.65565 0.87105 0.51642 0.0
H201 H 0.67675 0.93412 0.51188 0.0
O202 O 0.78836 0.86163 0.57691 0.0
C203 C 0.74234 0.93556 0.57698 0.0
Co204 Co 0.12258 0.75412 0.58034 0.0
Co205 Co 0.09816 0.69748 0.57133 0.0
C206 C 0.13028 0.71044 0.63483 0.0
O207 O 0.13403 0.7341 0.62367 0.0
O208 O 0.11678 0.69369 0.61703 0.0
C209 C 0.16389 0.79429 0.58743 0.0
O210 O 0.17988 0.77473 0.59606 0.0
C211 C 0.0797 0.64132 0.57047 0.0
C212 C 0.05337 0.64306 0.52374 0.0
C213 C 0.06195 0.62636 0.55047 0.0
N214 N 0.08131 0.66571 0.55606 0.0
N215 N 0.06551 0.66653 0.52822 0.0
C216 C 0.09515 0.63275 0.60225 0.0
H217 H 0.11485 0.64259 0.60245 0.0
H218 H 0.09786 0.61088 0.60255 0.0
H219 H 0.08431 0.63886 0.62646 0.0
C220 C 0.14467 0.74072 0.50904 0.0
N221 N 0.13085 0.7347 0.53858 0.0
N222 N 0.12136 0.71044 0.53563 0.0
C223 C 0.1293 0.7001 0.50453 0.0
C224 C 0.14401 0.71899 0.48645 0.0
C225 C 0.15665 0.76733 0.50168 0.0
H226 H 0.14276 0.78323 0.51001 0.0
H227 H 0.17517 0.76943 0.51732 0.0
H228 H 0.16147 0.76972 0.47323 0.0
O229 O 0.084 0.76207 0.58252 0.0
O230 O 0.06778 0.72146 0.5777 0.0
H231 H 0.10435 0.67194 0.47839 0.0
H232 H 0.13921 0.66539 0.47385 0.0
C233 C 0.12366 0.67235 0.49246 0.0
H234 H 0.12278 0.65869 0.51539 0.0
H235 H 0.06253 0.68343 0.51274 0.0
O236 O 0.13986 0.7893 0.57977 0.0
C237 C 0.06434 0.74626 0.58146 0.0
Co238 Co 0.24565 0.12397 0.5791 0.0
Co239 Co 0.30258 0.1001 0.57044 0.0
C240 C 0.28887 0.13129 0.63441 0.0
O241 O 0.2653 0.13504 0.62294 0.0
O242 O 0.30586 0.11814 0.61659 0.0
C243 C 0.20543 0.16527 0.58561 0.0
O244 O 0.22503 0.18135 0.59383 0.0
C245 C 0.35861 0.08131 0.57052 0.0
C246 C 0.35739 0.0558 0.52298 0.0
C247 C 0.3737 0.06369 0.55051 0.0
N248 N 0.33453 0.08349 0.55536 0.0
N249 N 0.33402 0.06817 0.52702 0.0
C250 C 0.36673 0.09603 0.60312 0.0
H251 H 0.35711 0.11584 0.60368 0.0
H252 H 0.3886 0.09851 0.60425 0.0
H253 H 0.36005 0.08478 0.62673 0.0
C254 C 0.25939 0.14665 0.5082 0.0
N255 N 0.26535 0.13278 0.53772 0.0
N256 N 0.28974 0.12361 0.53503 0.0
C257 C 0.30022 0.13186 0.50416 0.0
C258 C 0.2813 0.14641 0.48594 0.0
C259 C 0.23267 0.15821 0.50043 0.0
H260 H 0.21691 0.14414 0.50872 0.0
H261 H 0.23024 0.1768 0.51583 0.0
H262 H 0.2304 0.16285 0.47191 0.0
O263 O 0.23796 0.08527 0.58059 0.0
O264 O 0.27873 0.06954 0.57585 0.0
H265 H 0.32867 0.10746 0.47772 0.0
H266 H 0.33507 0.14241 0.47423 0.0
C267 C 0.32807 0.12654 0.49233 0.0
H268 H 0.34158 0.12538 0.51541 0.0
H269 H 0.31736 0.06559 0.51098 0.0
O270 O 0.21038 0.14114 0.57841 0.0
C271 C 0.25396 0.06579 0.5793 0.0
C272 C 0.55724 0.91542 0.02677 0.0
C273 C 0.56331 0.90627 0.06092 0.0
C274 C 0.54626 0.94071 0.02193 0.0
C275 C 0.53467 0.0048 0.0681 0.0
H276 H 0.47168 0.00932 0.0093 0.0
C277 C 0.45631 0.08394 0.0913 0.0
C278 C 0.44856 0.0994 0.0622 0.0
C279 C 0.47098 0.0608 0.08646 0.0
C280 C 0.48944 0.00839 0.02542 0.0
H281 H 0.56319 0.91633 0.11658 0.0
H282 H 0.54404 0.96015 0.10834 0.0
H283 H 0.49855 0.96877 0.00873 0.0
H284 H 0.44994 0.10245 1.00498 0.0
H285 H 0.47491 0.06123 0.9965 0.0
H286 H 0.52495 0.04389 0.08594 0.0
C287 C 0.54808 0.9482 0.08515 0.0
C288 C 0.50489 0.98529 0.025 0.0
C289 C 0.5589 0.92301 0.08994 0.0
C290 C 0.45487 0.09061 0.02791 0.0
C291 C 0.46943 0.06719 0.02303 0.0
C292 C 0.51916 0.02769 0.06874 0.0
C293 C 0.54122 0.95721 0.05118 0.0
C294 C 0.52725 0.98299 0.04714 0.0
C295 C 0.47822 0.05254 0.05238 0.0
C296 C 0.49601 0.02941 0.04818 0.0
H297 H 0.55976 0.90265 1.00399 0.0
H298 H 0.54123 0.94713 0.99544 0.0
H299 H 0.5521 0.00389 0.08484 0.0
H300 H 0.45171 0.09019 0.11802 0.0
H301 H 0.47716 0.0496 0.1095 0.0
C302 C 0.915 0.44508 0.02645 0.0
C303 C 0.90572 0.43921 0.0606 0.0
C304 C 0.94037 0.45588 0.02167 0.0
C305 C 0.00443 0.46708 0.068 0.0
H306 H 0.00962 0.52994 0.00906 0.0
C307 C 0.08415 0.54488 0.09138 0.0
C308 C 0.09965 0.55261 0.06232 0.0
C309 C 0.06095 0.5303 0.08647 0.0
C310 C 0.00851 0.51221 0.02522 0.0
H311 H 0.91563 0.43953 0.11631 0.0
H312 H 0.9596 0.45837 0.10815 0.0
H313 H 0.96884 0.50341 1.00841 0.0
H314 H 0.10274 0.55126 1.0051 0.0
H315 H 0.06143 0.52646 0.99649 0.0
H316 H 0.04357 0.47649 0.08594 0.0
C317 C 0.94767 0.4543 0.08494 0.0
C318 C 0.98527 0.49695 0.02476 0.0
C319 C 0.9224 0.44367 0.08968 0.0
C320 C 0.09087 0.54635 0.028 0.0
C321 C 0.06739 0.53188 0.02305 0.0
C322 C 0.02745 0.48239 0.06867 0.0
C323 C 0.95683 0.46093 0.05096 0.0
C324 C 0.98273 0.47465 0.04695 0.0
C325 C 0.05268 0.52313 0.05235 0.0
C326 C 0.02942 0.5055 0.04806 0.0
H327 H 0.90229 0.44251 1.00362 0.0
H328 H 0.94691 0.46074 0.99517 0.0
H329 H 0.00332 0.44968 0.08479 0.0
H330 H 0.09039 0.54944 0.11812 0.0
H331 H 0.0497 0.52416 0.10947 0.0
C332 C 0.94448 0.41401 0.58998 0.0
C333 C 0.93815 0.40504 0.55582 0.0
C334 C 0.95546 0.43929 0.59494 0.0
C335 C 0.96625 0.50373 0.54948 0.0
H336 H 0.02952 0.50846 0.6077 0.0
C337 C 0.04328 0.58432 0.52709 0.0
C338 C 0.05111 0.59946 0.55646 0.0
C339 C 0.02898 0.5609 0.53157 0.0
C340 C 0.01169 0.50747 0.59175 0.0
H341 H 0.93791 0.4154 0.50026 0.0
H342 H 0.95708 0.45922 0.50872 0.0
H343 H 0.00313 0.46758 0.60787 0.0
H344 H 0.05027 0.60167 0.61376 0.0
H345 H 0.0259 0.56 0.62159 0.0
H346 H 0.97538 0.54312 0.53225 0.0
C347 C 0.95322 0.44711 0.53182 0.0
C348 C 0.99651 0.48418 0.59193 0.0
C349 C 0.94239 0.42193 0.5269 0.0
C350 C 0.04525 0.59009 0.59062 0.0
C351 C 0.03105 0.5664 0.59513 0.0
C352 C 0.98148 0.52681 0.54909 0.0
C353 C 0.96025 0.45597 0.56581 0.0
C354 C 0.97403 0.48182 0.57 0.0
C355 C 0.02217 0.55206 0.56555 0.0
C356 C 0.00472 0.52863 0.56945 0.0
H357 H 0.94211 0.40113 0.61267 0.0
H358 H 0.96063 0.44558 0.62145 0.0
H359 H 0.94872 0.50276 0.53292 0.0
H360 H 0.04754 0.59102 0.50046 0.0
H361 H 0.02274 0.54995 0.50834 0.0
C362 C 0.58392 0.94319 0.59235 0.0
C363 C 0.59281 0.93693 0.55815 0.0
C364 C 0.55864 0.95411 0.59741 0.0
C365 C 0.4942 0.96541 0.55192 0.0
H366 H 0.49022 0.02881 0.61002 0.0
C367 C 0.41573 0.04435 0.52817 0.0
C368 C 0.40025 0.05223 0.55718 0.0
C369 C 0.43874 0.0295 0.53314 0.0
C370 C 0.49099 0.01094 0.59411 0.0
H371 H 0.58228 0.93662 0.50264 0.0
H372 H 0.53848 0.95568 0.51127 0.0
H373 H 0.53067 0.00182 0.61051 0.0
H374 H 0.39703 0.05084 0.61439 0.0
H375 H 0.43804 0.0256 0.6231 0.0
H376 H 0.45507 0.97519 0.53429 0.0
C377 C 0.55063 0.95182 0.53433 0.0
C378 C 0.51404 0.99541 0.59448 0.0
C379 C 0.57581 0.94106 0.52932 0.0
C380 C 0.40889 0.04584 0.59153 0.0
C381 C 0.43219 0.03111 0.59654 0.0
C382 C 0.47137 0.98101 0.55131 0.0
C383 C 0.54188 0.9589 0.56835 0.0
C384 C 0.51615 0.9729 0.57257 0.0
C385 C 0.44684 0.02221 0.56727 0.0
C386 C 0.46985 0.00429 0.57161 0.0
H387 H 0.59688 0.94089 0.61497 0.0
H388 H 0.55242 0.9593 0.62394 0.0
H389 H 0.49497 0.94787 0.53536 0.0
H390 H 0.40961 0.04899 0.50141 0.0
H391 H 0.44995 0.02322 0.51017 0.0
C392 C 0.23846 0.51743 0.03582 0.0
C393 C 0.25646 0.53867 0.03883 0.0
C394 C 0.24745 0.49126 0.0349 0.0
C395 C 0.30701 0.45022 0.01837 0.0
H396 H 0.26642 0.39655 0.06834 0.0
C397 C 0.34497 0.34323 0.0391 0.0
C398 C 0.32676 0.3225 0.03327 0.0
C399 C 0.33651 0.36962 0.03964 0.0
C400 C 0.27781 0.41127 0.05397 0.0
H401 H 0.29814 0.54898 0.04301 0.0
H402 H 0.3139 0.50309 0.04201 0.0
H403 H 0.25202 0.44273 0.07004 0.0
H404 H 0.28533 0.31325 0.02367 0.0
H405 H 0.27052 0.35949 0.02476 0.0
H406 H 0.33297 0.41867 1.00271 0.0
C407 C 0.29279 0.50679 0.03984 0.0
C408 C 0.26957 0.43774 0.0549 0.0
C409 C 0.28376 0.53309 0.04057 0.0
C410 C 0.29984 0.32876 0.02821 0.0
C411 C 0.29135 0.3552 0.029 0.0
C412 C 0.31534 0.42375 0.01763 0.0
C413 C 0.27469 0.48556 0.0372 0.0
C414 C 0.28398 0.45753 0.03694 0.0
C415 C 0.30963 0.3759 0.0346 0.0
C416 C 0.30076 0.40399 0.03532 0.0
H417 H 0.21728 0.52095 0.03412 0.0
H418 H 0.23299 0.47548 0.03209 0.0
H419 H 0.31836 0.46486 1.00383 0.0
H420 H 0.36585 0.33914 0.04316 0.0
H421 H 0.351 0.3851 0.04444 0.0
C422 C 0.48394 0.23806 0.03189 0.0
C423 C 0.46278 0.25596 0.03629 0.0
C424 C 0.51008 0.24712 0.03067 0.0
C425 C 0.55083 0.30741 0.0166 0.0
H426 H 0.6052 0.26533 0.06287 0.0
C427 C 0.65771 0.34523 0.0387 0.0
C428 C 0.67842 0.32751 0.03069 0.0
C429 C 0.63139 0.33657 0.03912 0.0
C430 C 0.59026 0.27715 0.04956 0.0
H431 H 0.45253 0.29751 0.04264 0.0
H432 H 0.49835 0.31334 0.04125 0.0
H433 H 0.55913 0.25059 0.06448 0.0
H434 H 0.68776 0.28672 0.01715 0.0
H435 H 0.64165 0.27152 0.01816 0.0
H436 H 0.58207 0.33418 1.00224 0.0
C437 C 0.49464 0.29229 0.03813 0.0
C438 C 0.56386 0.26871 0.0504 0.0
C439 C 0.46838 0.28322 0.03908 0.0
C440 C 0.67225 0.30086 0.02339 0.0
C441 C 0.64589 0.29213 0.02412 0.0
C442 C 0.57722 0.31595 0.01601 0.0
C443 C 0.51581 0.2743 0.03413 0.0
C444 C 0.54382 0.28366 0.03378 0.0
C445 C 0.6252 0.30995 0.03183 0.0
C446 C 0.59721 0.30085 0.03238 0.0
H447 H 0.48035 0.21693 0.02933 0.0
H448 H 0.5258 0.23275 0.02679 0.0
H449 H 0.536 0.31921 1.00308 0.0
H450 H 0.66176 0.36591 0.04449 0.0
H451 H 0.61589 0.35067 0.04555 0.0
C452 C 0.65504 0.65715 0.03941 0.0
C453 C 0.67265 0.67802 0.03167 0.0
C454 C 0.66389 0.6309 0.03998 0.0
C455 C 0.71872 0.58774 0.00896 0.0
H456 H 0.69087 0.53912 0.07934 0.0
C457 C 0.76367 0.48418 0.03474 0.0
C458 C 0.74586 0.46285 0.03855 0.0
C459 C 0.7544 0.51027 0.03321 0.0
C460 C 0.69861 0.55241 0.05932 0.0
H461 H 0.71346 0.68768 0.01883 0.0
H462 H 0.7291 0.64185 0.02061 0.0
H463 H 0.67592 0.58516 0.07876 0.0
H464 H 0.7043 0.45226 0.04376 0.0
H465 H 0.68811 0.49801 0.04136 0.0
H466 H 0.74178 0.55497 0.99001 0.0
C467 C 0.70829 0.64575 0.02552 0.0
C468 C 0.69004 0.57879 0.05892 0.0
C469 C 0.69937 0.67204 0.0247 0.0
C470 C 0.71853 0.46823 0.0408 0.0
C471 C 0.70927 0.49441 0.03961 0.0
C472 C 0.72745 0.56141 0.00955 0.0
C473 C 0.69063 0.62483 0.03309 0.0
C474 C 0.69996 0.5968 0.03371 0.0
C475 C 0.72713 0.51567 0.03575 0.0
C476 C 0.71748 0.54348 0.03473 0.0
H477 H 0.63427 0.66104 0.04472 0.0
H478 H 0.64963 0.61531 0.04532 0.0
H479 H 0.72643 0.60089 0.98877 0.0
H480 H 0.78486 0.48077 0.03289 0.0
H481 H 0.76864 0.52627 0.03059 0.0
C482 C 0.32746 0.70304 0.02817 0.0
C483 C 0.32175 0.6761 0.0342 0.0
C484 C 0.35371 0.71216 0.02898 0.0
C485 C 0.42093 0.69368 0.06104 0.0
H486 H 0.44447 0.74604 0.99273 0.0
C487 C 0.53153 0.72034 0.0412 0.0
C488 C 0.53759 0.74755 0.03892 0.0
C489 C 0.50514 0.71173 0.04043 0.0
C490 C 0.43811 0.73156 0.01214 0.0
H491 H 0.33914 0.6376 0.04559 0.0
H492 H 0.3847 0.65334 0.04626 0.0
H493 H 0.39838 0.73111 0.99211 0.0
H494 H 0.52061 0.78699 0.0336 0.0
H495 H 0.47469 0.77188 0.0321 0.0
H496 H 0.4608 0.69392 0.08071 0.0
C497 C 0.36898 0.66758 0.04163 0.0
C498 C 0.41169 0.72307 0.01188 0.0
C499 C 0.3428 0.65852 0.04102 0.0
C500 C 0.51668 0.76588 0.03545 0.0
C501 C 0.49035 0.75725 0.03438 0.0
C502 C 0.44737 0.70204 0.06112 0.0
C503 C 0.37479 0.69452 0.03569 0.0
C504 C 0.40277 0.70399 0.03631 0.0
C505 C 0.48428 0.7301 0.03704 0.0
C506 C 0.45625 0.72106 0.03667 0.0
H507 H 0.31168 0.71711 0.02298 0.0
H508 H 0.35744 0.7331 0.02474 0.0
H509 H 0.41466 0.67933 0.08065 0.0
H510 H 0.54714 0.7057 0.04389 0.0
H511 H 0.50105 0.69065 0.04219 0.0
C512 C 0.73357 0.98438 0.58203 0.0
C513 C 0.7518 0.9634 0.57857 0.0
C514 C 0.74233 0.01068 0.58337 0.0
C515 C 0.80224 0.05156 0.60026 0.0
H516 H 0.76165 0.10632 0.55249 0.0
C517 C 0.84242 0.15746 0.57845 0.0
C518 C 0.82504 0.17866 0.58547 0.0
C519 C 0.83315 0.13134 0.57807 0.0
C520 C 0.77304 0.09127 0.56624 0.0
H521 H 0.79358 0.95367 0.57359 0.0
H522 H 0.80884 0.99958 0.57516 0.0
H523 H 0.7464 0.06036 0.55054 0.0
H524 H 0.78421 0.18904 0.59725 0.0
H525 H 0.76796 0.14327 0.59636 0.0
H526 H 0.82909 0.08251 0.61541 0.0
C527 C 0.78777 0.99568 0.57756 0.0
C528 C 0.7643 0.06494 0.5652 0.0
C529 C 0.77902 0.96934 0.57646 0.0
C530 C 0.7981 0.17316 0.5918 0.0
C531 C 0.78878 0.14698 0.59113 0.0
C532 C 0.81106 0.07786 0.60107 0.0
C533 C 0.76953 0.01668 0.58104 0.0
C534 C 0.7788 0.04474 0.58218 0.0
C535 C 0.80625 0.12581 0.58443 0.0
C536 C 0.79657 0.09798 0.58404 0.0
H537 H 0.71246 0.98053 0.58394 0.0
H538 H 0.72776 0.02628 0.58666 0.0
H539 H 0.81365 0.03664 0.61418 0.0
H540 H 0.86329 0.16099 0.5734 0.0
H541 H 0.84701 0.11546 0.5724 0.0
C542 C 0.03143 0.78379 0.58081 0.0
C543 C 0.03687 0.75652 0.58396 0.0
C544 C 0.00521 0.79299 0.58161 0.0
C545 C 0.93596 0.76957 0.56917 0.0
H546 H 0.91775 0.83556 0.61603 0.0
C547 C 0.82755 0.80214 0.59445 0.0
C548 C 0.82145 0.82875 0.58678 0.0
C549 C 0.8539 0.7934 0.59414 0.0
C550 C 0.9226 0.81719 0.60262 0.0
H551 H 0.01909 0.71764 0.59151 0.0
H552 H 0.97372 0.7337 0.59378 0.0
H553 H 0.96377 0.82042 0.61591 0.0
H554 H 0.83824 0.86705 0.57277 0.0
H555 H 0.88412 0.85178 0.57239 0.0
H556 H 0.89469 0.76621 0.55631 0.0
C557 C 0.98953 0.74796 0.58972 0.0
C558 C 0.94897 0.80855 0.60244 0.0
C559 C 0.01562 0.73876 0.58865 0.0
C560 C 0.84224 0.84641 0.57882 0.0
C561 C 0.86855 0.83773 0.57881 0.0
C562 C 0.90959 0.77811 0.56958 0.0
C563 C 0.98393 0.77513 0.5858 0.0
C564 C 0.95597 0.7846 0.58575 0.0
C565 C 0.87467 0.81115 0.58646 0.0
C566 C 0.90264 0.802 0.58629 0.0
H567 H 0.04735 0.79797 0.57703 0.0
H568 H 0.00161 0.81403 0.57816 0.0
H569 H 0.94069 0.7513 0.55544 0.0
H570 H 0.812 0.78804 0.60067 0.0
H571 H 0.85807 0.77283 0.60039 0.0
C572 C 0.26212 0.01699 0.58439 0.0
C573 C 0.24403 0.03815 0.58142 0.0
C574 C 0.25321 0.99079 0.5855 0.0
C575 C 0.1938 0.94961 0.60254 0.0
H576 H 0.23413 0.896 0.55215 0.0
C577 C 0.15532 0.84296 0.5811 0.0
C578 C 0.1734 0.82209 0.58673 0.0
C579 C 0.16394 0.86928 0.58078 0.0
C580 C 0.22282 0.9107 0.56664 0.0
H581 H 0.2023 0.04828 0.57748 0.0
H582 H 0.1867 0.00234 0.57879 0.0
H583 H 0.24861 0.94216 0.55054 0.0
H584 H 0.21477 0.81255 0.59617 0.0
H585 H 0.22989 0.85871 0.59545 0.0
H586 H 0.16782 0.91807 0.61822 0.0
C587 C 0.20781 0.00613 0.5808 0.0
C588 C 0.23111 0.93716 0.56576 0.0
C589 C 0.21674 0.03246 0.57989 0.0
C590 C 0.20036 0.82816 0.59179 0.0
C591 C 0.20903 0.85456 0.59122 0.0
C592 C 0.18542 0.92316 0.60323 0.0
C593 C 0.22598 0.98499 0.58342 0.0
C594 C 0.21676 0.95693 0.58382 0.0
C595 C 0.19087 0.87539 0.58585 0.0
C596 C 0.19989 0.90342 0.58535 0.0
H597 H 0.28329 0.02062 0.58592 0.0
H598 H 0.26773 0.97507 0.58826 0.0
H599 H 0.18251 0.96424 0.61717 0.0
H600 H 0.1344 0.839 0.57706 0.0
H601 H 0.14955 0.88488 0.57613 0.0
C602 C 0.96749 0.21849 0.5766 0.0
C603 C 0.96176 0.2458 0.57726 0.0
C604 C 0.99382 0.20962 0.57749 0.0
C605 C 0.06284 0.2326 0.56156 0.0
H606 H 0.08168 0.17025 0.61618 0.0
C607 C 0.17171 0.20192 0.58882 0.0
C608 C 0.17766 0.17484 0.58465 0.0
C609 C 0.14536 0.21069 0.5879 0.0
C610 C 0.07667 0.18758 0.60059 0.0
H611 H 0.97925 0.28518 0.57994 0.0
H612 H 0.02484 0.26975 0.58225 0.0
H613 H 0.0356 0.18505 0.61458 0.0
H614 H 0.16059 0.13573 0.57624 0.0
H615 H 0.1148 0.15104 0.57475 0.0
H616 H 0.10402 0.23525 0.54794 0.0
C617 C 0.00913 0.25515 0.58023 0.0
C618 C 0.05026 0.19602 0.59957 0.0
C619 C 0.9829 0.26399 0.57913 0.0
C620 C 0.15673 0.15674 0.5796 0.0
C621 C 0.13044 0.16547 0.57894 0.0
C622 C 0.08927 0.22426 0.56277 0.0
C623 C 0.01496 0.22787 0.57924 0.0
C624 C 0.04301 0.21864 0.58004 0.0
C625 C 0.12446 0.19251 0.58309 0.0
C626 C 0.09646 0.20164 0.58225 0.0
H627 H 0.95168 0.20395 0.57503 0.0
H628 H 0.9976 0.18848 0.57627 0.0
H629 H 0.05791 0.24983 0.54573 0.0
H630 H 0.18738 0.21636 0.59273 0.0
H631 H 0.14131 0.23164 0.59143 0.0
C632 C 0.36389 0.2109 0.19676 0.0
C633 C 0.34566 0.21696 0.16998 0.0
C634 C 0.35524 0.20614 0.23119 0.0
C635 C 0.29756 0.21143 0.29246 0.0
H636 H 0.33393 0.15328 0.33896 0.0
C637 C 0.28105 0.18261 0.44033 0.0
C638 C 0.2833 0.15561 0.44895 0.0
C639 C 0.28626 0.19126 0.40576 0.0
C640 C 0.32327 0.16936 0.32632 0.0
H641 H 0.30426 0.22382 0.15798 0.0
H642 H 0.28876 0.21476 0.21834 0.0
H643 H 0.34755 0.16669 0.28034 0.0
H644 H 0.29093 0.11628 0.4284 0.0
H645 H 0.29911 0.13103 0.36807 0.0
H646 H 0.27267 0.21334 0.33844 0.0
C647 C 0.30985 0.21411 0.21292 0.0
C648 C 0.33143 0.1774 0.29279 0.0
C649 C 0.31864 0.21922 0.17839 0.0
C650 C 0.28944 0.13726 0.42235 0.0
C651 C 0.29431 0.14579 0.38788 0.0
C652 C 0.28924 0.20324 0.32614 0.0
C653 C 0.32803 0.20689 0.23957 0.0
C654 C 0.31884 0.19863 0.27541 0.0
C655 C 0.29358 0.17297 0.37929 0.0
C656 C 0.30197 0.18202 0.34344 0.0
H657 H 0.38489 0.2094 0.19088 0.0
H658 H 0.36991 0.20141 0.25115 0.0
H659 H 0.2875 0.22796 0.27997 0.0
H660 H 0.27637 0.19707 0.4606 0.0
H661 H 0.28563 0.21234 0.40018 0.0
C662 C 0.80387 0.32093 0.17448 0.0
C663 C 0.78514 0.34072 0.16686 0.0
C664 C 0.80747 0.3121 0.20923 0.0
C665 C 0.7991 0.33486 0.30088 0.0
H666 H 0.81276 0.26123 0.32472 0.0
C667 C 0.8171 0.30316 0.44512 0.0
C668 C 0.83787 0.28518 0.45091 0.0
C669 C 0.8077 0.30781 0.41089 0.0
C670 C 0.80918 0.28191 0.31848 0.0
H671 H 0.75496 0.36636 0.18891 0.0
H672 H 0.761 0.35085 0.24975 0.0
H673 H 0.80177 0.27321 0.26386 0.0
H674 H 0.86475 0.25737 0.42615 0.0
H675 H 0.84867 0.26563 0.3661 0.0
H676 H 0.80712 0.34378 0.35507 0.0
C677 C 0.77313 0.34229 0.22904 0.0
C678 C 0.80284 0.28876 0.2836 0.0
C679 C 0.76949 0.35101 0.19427 0.0
C680 C 0.84854 0.2712 0.42219 0.0
C681 C 0.83925 0.27591 0.38788 0.0
C682 C 0.80553 0.32805 0.33566 0.0
C683 C 0.79245 0.32302 0.23703 0.0
C684 C 0.79788 0.31535 0.27435 0.0
C685 C 0.81903 0.29465 0.3817 0.0
C686 C 0.81082 0.30151 0.34492 0.0
H687 H 0.81609 0.3127 0.15362 0.0
H688 H 0.82266 0.29741 0.21448 0.0
H689 H 0.79586 0.35559 0.29457 0.0
H690 H 0.80854 0.31405 0.46704 0.0
H691 H 0.79177 0.32198 0.40725 0.0
C692 C 0.69583 0.81816 0.44608 0.0
C693 C 0.71379 0.83899 0.45179 0.0
C694 C 0.69134 0.80852 0.41192 0.0
C695 C 0.71789 0.80905 0.31991 0.0
H696 H 0.64435 0.79597 0.29506 0.0
C697 C 0.68026 0.80262 0.17535 0.0
C698 C 0.66011 0.78427 0.1677 0.0
C699 C 0.68885 0.80635 0.21019 0.0
C700 C 0.66505 0.79911 0.30164 0.0
H701 H 0.74175 0.86568 0.42694 0.0
H702 H 0.73381 0.84914 0.36702 0.0
H703 H 0.65573 0.80773 0.35555 0.0
H704 H 0.63365 0.75482 0.18981 0.0
H705 H 0.64881 0.76101 0.25078 0.0
H706 H 0.72702 0.801 0.26559 0.0
C707 C 0.72339 0.8399 0.38883 0.0
C708 C 0.6716 0.80585 0.33641 0.0
C709 C 0.72792 0.84945 0.42306 0.0
C710 C 0.64928 0.76905 0.19518 0.0
C711 C 0.6578 0.77279 0.23003 0.0
C712 C 0.7113 0.80238 0.28504 0.0
C713 C 0.70468 0.81962 0.38273 0.0
C714 C 0.69808 0.81108 0.346 0.0
C715 C 0.67738 0.79182 0.23805 0.0
C716 C 0.68477 0.7975 0.27544 0.0
H717 H 0.68487 0.80971 0.46801 0.0
H718 H 0.67718 0.79256 0.40835 0.0
H719 H 0.73852 0.81258 0.32642 0.0
H720 H 0.68891 0.81452 0.15445 0.0
H721 H 0.70379 0.82132 0.21542 0.0
C722 C 0.18034 0.71951 0.44104 0.0
C723 C 0.15334 0.71705 0.44951 0.0
C724 C 0.18913 0.71446 0.40649 0.0
C725 C 0.16777 0.67756 0.32665 0.0
H726 H 0.22616 0.71407 0.28091 0.0
C727 C 0.21013 0.63777 0.19709 0.0
C728 C 0.2161 0.65617 0.17046 0.0
C729 C 0.20515 0.64627 0.23154 0.0
C730 C 0.2097 0.7038 0.29323 0.0
H731 H 0.11414 0.70917 0.42867 0.0
H732 H 0.12912 0.70122 0.36839 0.0
H733 H 0.21125 0.72854 0.3394 0.0
H734 H 0.22258 0.69769 0.15877 0.0
H735 H 0.21316 0.71291 0.21917 0.0
H736 H 0.16545 0.65341 0.28048 0.0
C737 C 0.14378 0.70609 0.38832 0.0
C738 C 0.20133 0.71192 0.32693 0.0
C739 C 0.13512 0.71081 0.42276 0.0
C740 C 0.21805 0.68319 0.17905 0.0
C741 C 0.21274 0.69182 0.21361 0.0
C742 C 0.17598 0.66959 0.2931 0.0
C743 C 0.17097 0.70707 0.37988 0.0
C744 C 0.18018 0.6989 0.34401 0.0
C745 C 0.2056 0.67347 0.2401 0.0
C746 C 0.19714 0.68245 0.27595 0.0
H747 H 0.1947 0.72426 0.4614 0.0
H748 H 0.21021 0.71529 0.40103 0.0
H749 H 0.15175 0.66669 0.33912 0.0
H750 H 0.20886 0.61677 0.19107 0.0
H751 H 0.2005 0.63148 0.25137 0.0
C752 C 0.64942 0.77607 0.92445 0.0
C753 C 0.64262 0.7961 0.94875 0.0
C754 C 0.65828 0.78262 0.89048 0.0
C755 C 0.689 0.83586 0.83832 0.0
H756 H 0.65505 0.80214 0.7579 0.0
C757 C 0.72396 0.85172 0.69379 0.0
C758 C 0.70381 0.85849 0.66964 0.0
C759 C 0.71759 0.8428 0.72778 0.0
C760 C 0.66472 0.81168 0.78012 0.0
H761 H 0.64047 0.83874 0.9566 0.0
H762 H 0.65634 0.85008 0.89753 0.0
H763 H 0.64239 0.78917 0.81794 0.0
H764 H 0.66115 0.86052 0.66211 0.0
H765 H 0.65012 0.84452 0.72122 0.0
H766 H 0.71126 0.85844 0.80049 0.0
C767 C 0.65468 0.82934 0.90477 0.0
C768 C 0.65762 0.80413 0.81444 0.0
C769 C 0.64546 0.82281 0.93854 0.0
C770 C 0.67717 0.85556 0.68004 0.0
C771 C 0.67082 0.84626 0.71384 0.0
C772 C 0.69638 0.84312 0.804 0.0
C773 C 0.66092 0.80932 0.88027 0.0
C774 C 0.66948 0.81635 0.84389 0.0
C775 C 0.69095 0.84004 0.73817 0.0
C776 C 0.6841 0.83131 0.77455 0.0
H777 H 0.64744 0.7553 0.93141 0.0
H778 H 0.66312 0.76679 0.87219 0.0
H779 H 0.69857 0.84549 0.86054 0.0
H780 H 0.74469 0.85377 0.68667 0.0
H781 H 0.73351 0.83796 0.74594 0.0
C782 C 0.13158 0.67934 0.68649 0.0
C783 C 0.14095 0.70245 0.66982 0.0
C784 C 0.14069 0.67222 0.72006 0.0
C785 C 0.17468 0.69974 0.79953 0.0
H786 H 0.18035 0.62523 0.8243 0.0
C787 C 0.21931 0.66024 0.93185 0.0
C788 C 0.20373 0.64117 0.94942 0.0
C789 C 0.21265 0.66861 0.89766 0.0
C790 C 0.17875 0.64612 0.81777 0.0
H791 H 0.16775 0.73593 0.67515 0.0
H792 H 0.18435 0.72304 0.73325 0.0
H793 H 0.16808 0.63771 0.76429 0.0
H794 H 0.16884 0.61608 0.94482 0.0
H795 H 0.15759 0.63036 0.88508 0.0
H796 H 0.18601 0.70791 0.85317 0.0
C797 C 0.16939 0.71075 0.72081 0.0
C798 C 0.17158 0.65332 0.7834 0.0
C799 C 0.16 0.71807 0.68734 0.0
C800 C 0.18126 0.63083 0.93213 0.0
C801 C 0.17488 0.63887 0.89782 0.0
C802 C 0.18225 0.69249 0.83383 0.0
C803 C 0.15973 0.6878 0.73775 0.0
C804 C 0.16902 0.68024 0.77389 0.0
C805 C 0.19056 0.65773 0.88017 0.0
C806 C 0.18396 0.6656 0.8434 0.0
H807 H 0.11672 0.66696 0.67394 0.0
H808 H 0.1323 0.65473 0.7324 0.0
H809 H 0.17259 0.72065 0.79347 0.0
H810 H 0.2367 0.66865 0.94445 0.0
H811 H 0.2251 0.68314 0.88457 0.0
C812 C 0.28072 0.1603 0.68748 0.0
C813 C 0.29637 0.14128 0.66993 0.0
C814 C 0.28738 0.16876 0.72164 0.0
C815 C 0.32131 0.14643 0.80151 0.0
H816 H 0.32728 0.22097 0.82589 0.0
C817 C 0.3682 0.17963 0.93295 0.0
C818 C 0.35875 0.20269 0.94967 0.0
C819 C 0.35918 0.17256 0.89931 0.0
C820 C 0.32525 0.20006 0.8198 0.0
H821 H 0.3314 0.11641 0.67451 0.0
H822 H 0.34264 0.13084 0.7342 0.0
H823 H 0.31396 0.20821 0.76614 0.0
H824 H 0.33194 0.23614 0.94433 0.0
H825 H 0.31549 0.22332 0.8861 0.0
H826 H 0.33192 0.13803 0.85501 0.0
C827 C 0.3253 0.13923 0.72146 0.0
C828 C 0.31773 0.1928 0.78548 0.0
C829 C 0.31892 0.13111 0.68718 0.0
C830 C 0.33974 0.21832 0.93211 0.0
C831 C 0.33044 0.21104 0.89857 0.0
C832 C 0.32841 0.15364 0.8359 0.0
C833 C 0.30953 0.15801 0.73912 0.0
C834 C 0.31609 0.16591 0.77589 0.0
C835 C 0.34015 0.18812 0.8816 0.0
C836 C 0.33092 0.18056 0.84544 0.0
H837 H 0.26326 0.16858 0.6749 0.0
H838 H 0.27486 0.18322 0.73473 0.0
H839 H 0.31976 0.12554 0.79496 0.0
H840 H 0.38303 0.16725 0.94552 0.0
H841 H 0.36762 0.15511 0.88695 0.0
C842 C 0.86834 0.31979 0.68535 0.0
C843 C 0.85874 0.29677 0.66868 0.0
C844 C 0.85948 0.3269 0.71902 0.0
C845 C 0.8255 0.2999 0.79876 0.0
H846 H 0.81997 0.37461 0.82256 0.0
C847 C 0.78112 0.34061 0.9306 0.0
C848 C 0.7968 0.35976 0.94789 0.0
C849 C 0.7877 0.33193 0.89652 0.0
C850 C 0.82153 0.35367 0.81631 0.0
H851 H 0.83195 0.26332 0.67424 0.0
H852 H 0.81577 0.27619 0.73261 0.0
H853 H 0.83214 0.36167 0.76272 0.0
H854 H 0.83178 0.38467 0.94291 0.0
H855 H 0.84288 0.36987 0.88334 0.0
H856 H 0.81421 0.29216 0.85252 0.0
C857 C 0.8307 0.28843 0.72002 0.0
C858 C 0.82864 0.3462 0.78204 0.0
C859 C 0.83985 0.28111 0.68642 0.0
C860 C 0.81928 0.36988 0.93043 0.0
C861 C 0.82558 0.36154 0.89623 0.0
C862 C 0.81798 0.30743 0.83298 0.0
C863 C 0.84045 0.31141 0.73683 0.0
C864 C 0.83118 0.31921 0.77288 0.0
C865 C 0.80981 0.34258 0.87886 0.0
C866 C 0.81633 0.33439 0.8422 0.0
H867 H 0.88311 0.33217 0.67266 0.0
H868 H 0.86798 0.34437 0.73128 0.0
H869 H 0.82754 0.27895 0.79295 0.0
H870 H 0.76373 0.33235 0.94336 0.0
H871 H 0.77518 0.31735 0.88366 0.0
loop_
_geom_bond_atom_site_label_1
_geom_bond_atom_site_label_2
_geom_bond_distance
_geom_bond_site_symmetry_2
_ccdc_geom_bond_type
Co0 O3 1.970 1_554 S
Co0 N17 1.989 . S
Co0 O25 1.967 . S
Co0 O32 1.920 . S
Co1 O4 1.966 1_554 S
Co1 N10 2.022 . S
Co1 N18 1.993 . S
Co1 O26 1.941 . S
C2 O3 1.258 . S
C2 O4 1.263 . S
O3 Co0 1.970 1_556 S
O3 C2 1.258 . S
O4 Co1 1.966 1_556 S
O4 C2 1.263 . S
C5 O6 1.235 . S
C5 O32 1.289 . S
O6 C5 1.235 . S
C7 C9 1.400 . S
C7 N10 1.351 . S
C7 C12 1.501 1_554 S
C8 C9 1.387 . S
C8 N11 1.341 . S
C9 C7 1.400 . S
C9 C8 1.387 . S
N10 Co1 2.022 . S
N10 C7 1.351 . S
N10 N11 1.365 . S
N11 C8 1.341 . S
N11 N10 1.365 . S
N11 H31 0.862 . S
C12 C7 1.501 1_556 S
C12 H13 0.961 . S
C12 H14 0.963 . S
C12 H15 0.960 . S
H13 C12 0.961 . S
H14 C12 0.963 . S
H15 C12 0.960 . S
C16 N17 1.342 . S
C16 C20 1.401 . S
C16 C21 1.499 . S
N17 Co0 1.989 . S
N17 C16 1.342 . S
N17 N18 1.388 . S
N18 Co1 1.993 . S
N18 N17 1.388 . S
N18 C19 1.346 . S
C19 N18 1.346 . S
C19 C20 1.396 . S
C19 C29 1.510 . S
C20 C16 1.401 . S
C20 C19 1.396 . S
C21 C16 1.499 . S
C21 H22 0.959 . S
C21 H23 0.960 . S
C21 H24 0.961 . S
H22 C21 0.959 . S
H23 C21 0.960 . S
H24 C21 0.961 . S
O25 Co0 1.967 . S
O25 C33 1.258 . S
O26 Co1 1.941 . S
O26 C33 1.266 . S
H27 C29 0.959 . S
H28 C29 0.961 . S
C29 C19 1.510 . S
C29 H27 0.959 . S
C29 H28 0.961 . S
C29 H30 0.960 . S
H30 C29 0.960 . S
H31 N11 0.862 . S
O32 Co0 1.920 . S
O32 C5 1.289 . S
C33 O25 1.258 . S
C33 O26 1.266 . S
Co34 O37 1.970 1_554 S
Co34 N51 1.989 . S
Co34 O59 1.967 . S
Co34 O66 1.920 . S
Co35 O38 1.966 1_554 S
Co35 N44 2.022 . S
Co35 N52 1.993 . S
Co35 O60 1.941 . S
C36 O37 1.258 . S
C36 O38 1.263 . S
O37 Co34 1.970 1_556 S
O37 C36 1.258 . S
O38 Co35 1.966 1_556 S
O38 C36 1.263 . S
C39 O40 1.235 . S
C39 O66 1.289 . S
O40 C39 1.235 . S
C41 C43 1.400 . S
C41 N44 1.351 . S
C41 C46 1.501 1_554 S
C42 C43 1.387 . S
C42 N45 1.341 . S
C43 C41 1.400 . S
C43 C42 1.387 . S
N44 Co35 2.022 . S
N44 C41 1.351 . S
N44 N45 1.365 . S
N45 C42 1.341 . S
N45 N44 1.365 . S
N45 H65 0.862 . S
C46 C41 1.501 1_556 S
C46 H47 0.961 . S
C46 H48 0.963 . S
C46 H49 0.960 . S
H47 C46 0.961 . S
H48 C46 0.963 . S
H49 C46 0.960 . S
C50 N51 1.342 . S
C50 C54 1.401 . S
C50 C55 1.499 . S
N51 Co34 1.989 . S
N51 C50 1.342 . S
N51 N52 1.388 . S
N52 Co35 1.993 . S
N52 N51 1.388 . S
N52 C53 1.346 . S
C53 N52 1.346 . S
C53 C54 1.396 . S
C53 C63 1.510 . S
C54 C50 1.401 . S
C54 C53 1.396 . S
C55 C50 1.499 . S
C55 H56 0.959 . S
C55 H57 0.960 . S
C55 H58 0.961 . S
H56 C55 0.959 . S
H57 C55 0.960 . S
H58 C55 0.961 . S
O59 Co34 1.967 . S
O59 C67 1.258 . S
O60 Co35 1.941 . S
O60 C67 1.266 . S
H61 C63 0.959 . S
H62 C63 0.961 . S
C63 C53 1.510 . S
C63 H61 0.959 . S
C63 H62 0.961 . S
C63 H64 0.960 . S
H64 C63 0.960 . S
H65 N45 0.862 . S
O66 Co34 1.920 . S
O66 C39 1.289 . S
C67 O59 1.258 . S
C67 O60 1.266 . S
Co68 O71 1.970 1_554 S
Co68 N85 1.989 . S
Co68 O93 1.967 . S
Co68 O100 1.920 . S
Co69 O72 1.966 1_554 S
Co69 N78 2.022 . S
Co69 N86 1.993 . S
Co69 O94 1.941 . S
C70 O71 1.258 . S
C70 O72 1.263 . S
O71 Co68 1.970 1_556 S
O71 C70 1.258 . S
O72 Co69 1.966 1_556 S
O72 C70 1.263 . S
C73 O74 1.235 . S
C73 O100 1.289 . S
O74 C73 1.235 . S
C75 C77 1.400 . S
C75 N78 1.351 . S
C75 C80 1.501 1_554 S
C76 C77 1.387 . S
C76 N79 1.341 . S
C77 C75 1.400 . S
C77 C76 1.387 . S
N78 Co69 2.022 . S
N78 C75 1.351 . S
N78 N79 1.365 . S
N79 C76 1.341 . S
N79 N78 1.365 . S
N79 H99 0.862 . S
C80 C75 1.501 1_556 S
C80 H81 0.961 . S
C80 H82 0.963 . S
C80 H83 0.960 . S
H81 C80 0.961 . S
H82 C80 0.963 . S
H83 C80 0.960 . S
C84 N85 1.342 . S
C84 C88 1.401 . S
C84 C89 1.499 . S
N85 Co68 1.989 . S
N85 C84 1.342 . S
N85 N86 1.388 . S
N86 Co69 1.993 . S
N86 N85 1.388 . S
N86 C87 1.346 . S
C87 N86 1.346 . S
C87 C88 1.396 . S
C87 C97 1.510 . S
C88 C84 1.401 . S
C88 C87 1.396 . S
C89 C84 1.499 . S
C89 H90 0.959 . S
C89 H91 0.960 . S
C89 H92 0.961 . S
H90 C89 0.959 . S
H91 C89 0.960 . S
H92 C89 0.961 . S
O93 Co68 1.967 . S
O93 C101 1.258 . S
O94 Co69 1.941 . S
O94 C101 1.266 . S
H95 C97 0.959 . S
H96 C97 0.961 . S
C97 C87 1.510 . S
C97 H95 0.959 . S
C97 H96 0.961 . S
C97 H98 0.960 . S
H98 C97 0.960 . S
H99 N79 0.862 . S
O100 Co68 1.920 . S
O100 C73 1.289 . S
C101 O93 1.258 . S
C101 O94 1.266 . S
Co102 O105 1.970 1_554 S
Co102 N119 1.989 . S
Co102 O127 1.967 . S
Co102 O134 1.920 . S
Co103 O106 1.966 1_554 S
Co103 N112 2.022 . S
Co103 N120 1.993 . S
Co103 O128 1.941 . S
C104 O105 1.258 . S
C104 O106 1.263 . S
O105 Co102 1.970 1_556 S
O105 C104 1.258 . S
O106 Co103 1.966 1_556 S
O106 C104 1.263 . S
C107 O108 1.235 . S
C107 O134 1.289 . S
O108 C107 1.235 . S
C109 C111 1.400 . S
C109 N112 1.351 . S
C109 C114 1.501 1_554 S
C110 C111 1.387 . S
C110 N113 1.341 . S
C111 C109 1.400 . S
C111 C110 1.387 . S
N112 Co103 2.022 . S
N112 C109 1.351 . S
N112 N113 1.365 . S
N113 C110 1.341 . S
N113 N112 1.365 . S
N113 H133 0.862 . S
C114 C109 1.501 1_556 S
C114 H115 0.961 . S
C114 H116 0.963 . S
C114 H117 0.960 . S
H115 C114 0.961 . S
H116 C114 0.963 . S
H117 C114 0.960 . S
C118 N119 1.342 . S
C118 C122 1.401 . S
C118 C123 1.499 . S
N119 Co102 1.989 . S
N119 C118 1.342 . S
N119 N120 1.388 . S
N120 Co103 1.993 . S
N120 N119 1.388 . S
N120 C121 1.346 . S
C121 N120 1.346 . S
C121 C122 1.396 . S
C121 C131 1.510 . S
C122 C118 1.401 . S
C122 C121 1.396 . S
C123 C118 1.499 . S
C123 H124 0.959 . S
C123 H125 0.960 . S
C123 H126 0.961 . S
H124 C123 0.959 . S
H125 C123 0.960 . S
H126 C123 0.961 . S
O127 Co102 1.967 . S
O127 C135 1.258 . S
O128 Co103 1.941 . S
O128 C135 1.266 . S
H129 C131 0.959 . S
H130 C131 0.961 . S
C131 C121 1.510 . S
C131 H129 0.959 . S
C131 H130 0.961 . S
C131 H132 0.960 . S
H132 C131 0.960 . S
H133 N113 0.862 . S
O134 Co102 1.920 . S
O134 C107 1.289 . S
C135 O127 1.258 . S
C135 O128 1.266 . S
Co136 O139 1.970 . S
Co136 N153 1.989 . S
Co136 O161 1.967 . S
Co136 O168 1.920 . S
Co137 O140 1.966 . S
Co137 N146 2.022 . S
Co137 N154 1.993 . S
Co137 O162 1.941 . S
C138 O139 1.258 . S
C138 O140 1.263 . S
O139 Co136 1.970 . S
O139 C138 1.258 . S
O140 Co137 1.966 . S
O140 C138 1.263 . S
C141 O142 1.235 . S
C141 O168 1.289 . S
O142 C141 1.235 . S
C143 C145 1.400 . S
C143 N146 1.351 . S
C143 C148 1.501 . S
C144 C145 1.387 . S
C144 N147 1.341 . S
C145 C143 1.400 . S
C145 C144 1.387 . S
N146 Co137 2.022 . S
N146 C143 1.351 . S
N146 N147 1.365 . S
N147 C144 1.341 . S
N147 N146 1.365 . S
N147 H167 0.862 . S
C148 C143 1.501 . S
C148 H149 0.961 . S
C148 H150 0.961 . S
C148 H151 0.960 . S
H149 C148 0.961 . S
H150 C148 0.961 . S
H151 C148 0.960 . S
C152 N153 1.342 . S
C152 C156 1.401 . S
C152 C157 1.499 . S
N153 Co136 1.989 . S
N153 C152 1.342 . S
N153 N154 1.388 . S
N154 Co137 1.993 . S
N154 N153 1.388 . S
N154 C155 1.346 . S
C155 N154 1.346 . S
C155 C156 1.396 . S
C155 C165 1.510 . S
C156 C152 1.401 . S
C156 C155 1.396 . S
C157 C152 1.499 . S
C157 H158 0.959 . S
C157 H159 0.960 . S
C157 H160 0.961 . S
H158 C157 0.959 . S
H159 C157 0.960 . S
H160 C157 0.961 . S
O161 Co136 1.967 . S
O161 C169 1.258 . S
O162 Co137 1.941 . S
O162 C169 1.266 . S
H163 C165 0.959 . S
H164 C165 0.961 . S
C165 C155 1.510 . S
C165 H163 0.959 . S
C165 H164 0.961 . S
C165 H166 0.960 . S
H166 C165 0.960 . S
H167 N147 0.862 . S
O168 Co136 1.920 . S
O168 C141 1.289 . S
C169 O161 1.258 . S
C169 O162 1.266 . S
Co170 O173 1.970 . S
Co170 N187 1.989 . S
Co170 O195 1.967 . S
Co170 O202 1.920 . S
Co171 O174 1.966 . S
Co171 N180 2.022 . S
Co171 N188 1.993 . S
Co171 O196 1.941 . S
C172 O173 1.258 . S
C172 O174 1.263 . S
O173 Co170 1.970 . S
O173 C172 1.258 . S
O174 Co171 1.966 . S
O174 C172 1.263 . S
C175 O176 1.235 . S
C175 O202 1.289 . S
O176 C175 1.235 . S
C177 C179 1.400 . S
C177 N180 1.351 . S
C177 C182 1.501 . S
C178 C179 1.387 . S
C178 N181 1.341 . S
C179 C177 1.400 . S
C179 C178 1.387 . S
N180 Co171 2.022 . S
N180 C177 1.351 . S
N180 N181 1.365 . S
N181 C178 1.341 . S
N181 N180 1.365 . S
N181 H201 0.862 . S
C182 C177 1.501 . S
C182 H183 0.961 . S
C182 H184 0.961 . S
C182 H185 0.960 . S
H183 C182 0.961 . S
H184 C182 0.961 . S
H185 C182 0.960 . S
C186 N187 1.342 . S
C186 C190 1.401 . S
C186 C191 1.499 . S
N187 Co170 1.989 . S
N187 C186 1.342 . S
N187 N188 1.388 . S
N188 Co171 1.993 . S
N188 N187 1.388 . S
N188 C189 1.346 . S
C189 N188 1.346 . S
C189 C190 1.396 . S
C189 C199 1.510 . S
C190 C186 1.401 . S
C190 C189 1.396 . S
C191 C186 1.499 . S
C191 H192 0.959 . S
C191 H193 0.960 . S
C191 H194 0.961 . S
H192 C191 0.959 . S
H193 C191 0.960 . S
H194 C191 0.961 . S
O195 Co170 1.967 . S
O195 C203 1.258 . S
O196 Co171 1.941 . S
O196 C203 1.266 . S
H197 C199 0.959 . S
H198 C199 0.961 . S
C199 C189 1.510 . S
C199 H197 0.959 . S
C199 H198 0.961 . S
C199 H200 0.960 . S
H200 C199 0.960 . S
H201 N181 0.862 . S
O202 Co170 1.920 . S
O202 C175 1.289 . S
C203 O195 1.258 . S
C203 O196 1.266 . S
Co204 O207 1.970 . S
Co204 N221 1.989 . S
Co204 O229 1.967 . S
Co204 O236 1.920 . S
Co205 O208 1.966 . S
Co205 N214 2.022 . S
Co205 N222 1.993 . S
Co205 O230 1.941 . S
C206 O207 1.258 . S
C206 O208 1.263 . S
O207 Co204 1.970 . S
O207 C206 1.258 . S
O208 Co205 1.966 . S
O208 C206 1.263 . S
C209 O210 1.235 . S
C209 O236 1.289 . S
O210 C209 1.235 . S
C211 C213 1.400 . S
C211 N214 1.351 . S
C211 C216 1.501 . S
C212 C213 1.387 . S
C212 N215 1.341 . S
C213 C211 1.400 . S
C213 C212 1.387 . S
N214 Co205 2.022 . S
N214 C211 1.351 . S
N214 N215 1.365 . S
N215 C212 1.341 . S
N215 N214 1.365 . S
N215 H235 0.862 . S
C216 C211 1.501 . S
C216 H217 0.961 . S
C216 H218 0.961 . S
C216 H219 0.960 . S
H217 C216 0.961 . S
H218 C216 0.961 . S
H219 C216 0.960 . S
C220 N221 1.342 . S
C220 C224 1.401 . S
C220 C225 1.499 . S
N221 Co204 1.989 . S
N221 C220 1.342 . S
N221 N222 1.388 . S
N222 Co205 1.993 . S
N222 N221 1.388 . S
N222 C223 1.346 . S
C223 N222 1.346 . S
C223 C224 1.396 . S
C223 C233 1.510 . S
C224 C220 1.401 . S
C224 C223 1.396 . S
C225 C220 1.499 . S
C225 H226 0.959 . S
C225 H227 0.960 . S
C225 H228 0.961 . S
H226 C225 0.959 . S
H227 C225 0.960 . S
H228 C225 0.961 . S
O229 Co204 1.967 . S
O229 C237 1.258 . S
O230 Co205 1.941 . S
O230 C237 1.266 . S
H231 C233 0.959 . S
H232 C233 0.961 . S
C233 C223 1.510 . S
C233 H231 0.959 . S
C233 H232 0.961 . S
C233 H234 0.960 . S
H234 C233 0.960 . S
H235 N215 0.862 . S
O236 Co204 1.920 . S
O236 C209 1.289 . S
C237 O229 1.258 . S
C237 O230 1.266 . S
Co238 O241 1.970 . S
Co238 N255 1.989 . S
Co238 O263 1.967 . S
Co238 O270 1.920 . S
Co239 O242 1.966 . S
Co239 N248 2.022 . S
Co239 N256 1.993 . S
Co239 O264 1.941 . S
C240 O241 1.258 . S
C240 O242 1.263 . S
O241 Co238 1.970 . S
O241 C240 1.258 . S
O242 Co239 1.966 . S
O242 C240 1.263 . S
C243 O244 1.235 . S
C243 O270 1.289 . S
O244 C243 1.235 . S
C245 C247 1.400 . S
C245 N248 1.351 . S
C245 C250 1.501 . S
C246 C247 1.387 . S
C246 N249 1.341 . S
C247 C245 1.400 . S
C247 C246 1.387 . S
N248 Co239 2.022 . S
N248 C245 1.351 . S
N248 N249 1.365 . S
N249 C246 1.341 . S
N249 N248 1.365 . S
N249 H269 0.862 . S
C250 C245 1.501 . S
C250 H251 0.961 . S
C250 H252 0.961 . S
C250 H253 0.960 . S
H251 C250 0.961 . S
H252 C250 0.961 . S
H253 C250 0.960 . S
C254 N255 1.342 . S
C254 C258 1.401 . S
C254 C259 1.499 . S
N255 Co238 1.989 . S
N255 C254 1.342 . S
N255 N256 1.388 . S
N256 Co239 1.993 . S
N256 N255 1.388 . S
N256 C257 1.346 . S
C257 N256 1.346 . S
C257 C258 1.396 . S
C257 C267 1.510 . S
C258 C254 1.401 . S
C258 C257 1.396 . S
C259 C254 1.499 . S
C259 H260 0.959 . S
C259 H261 0.960 . S
C259 H262 0.961 . S
H260 C259 0.959 . S
H261 C259 0.960 . S
H262 C259 0.961 . S
O263 Co238 1.967 . S
O263 C271 1.258 . S
O264 Co239 1.941 . S
O264 C271 1.266 . S
H265 C267 0.959 . S
H266 C267 0.961 . S
C267 C257 1.510 . S
C267 H265 0.959 . S
C267 H266 0.961 . S
C267 H268 0.960 . S
H268 C267 0.960 . S
H269 N249 0.862 . S
O270 Co238 1.920 . S
O270 C243 1.289 . S
C271 O263 1.258 . S
C271 O264 1.266 . S
C272 C273 1.349 . S
C272 C274 1.327 . S
C272 H297 0.950 1_554 S
C273 C272 1.349 . S
C273 C289 1.349 . S
C274 C272 1.327 . S
C274 C293 1.429 . S
C274 H298 0.950 1_554 S
C275 C292 1.574 1_565 S
C275 C294 1.368 . S
C275 H299 0.949 . S
H276 C280 0.949 1_556 S
C277 C278 1.349 . S
C277 C279 1.327 . S
C277 H300 0.950 . S
C278 C277 1.349 . S
C278 C290 1.349 . S
C279 C277 1.327 . S
C279 C295 1.429 . S
C279 H301 0.950 . S
C280 H276 0.949 1_554 S
C280 C288 1.574 1_545 S
C280 C296 1.368 . S
H281 C289 0.950 . S
H282 C287 0.950 . S
H283 C288 0.949 1_556 S
H284 C290 0.950 1_556 S
H285 C291 0.950 1_556 S
H286 C292 0.949 . S
C287 H282 0.950 . S
C287 C289 1.327 . S
C287 C293 1.429 . S
C288 C280 1.574 1_565 S
C288 H283 0.949 1_554 S
C288 C294 1.368 . S
C289 C273 1.349 . S
C289 H281 0.950 . S
C289 C287 1.327 . S
C290 C278 1.349 . S
C290 H284 0.950 1_554 S
C290 C291 1.327 . S
C291 H285 0.950 1_554 S
C291 C290 1.327 . S
C291 C295 1.429 . S
C292 C275 1.574 1_545 S
C292 H286 0.949 . S
C292 C296 1.368 . S
C293 C274 1.429 . S
C293 C287 1.429 . S
C293 C294 1.523 . S
C294 C275 1.368 . S
C294 C288 1.368 . S
C294 C293 1.523 . S
C295 C279 1.429 . S
C295 C291 1.429 . S
C295 C296 1.523 . S
C296 C280 1.368 . S
C296 C292 1.368 . S
C296 C295 1.523 . S
H297 C272 0.950 1_556 S
H298 C274 0.950 1_556 S
H299 C275 0.949 . S
H300 C277 0.950 . S
H301 C279 0.950 . S
C302 C303 1.349 . S
C302 C304 1.327 . S
C302 H327 0.950 1_554 S
C303 C302 1.349 . S
C303 C319 1.349 . S
C304 C302 1.327 . S
C304 C323 1.429 . S
C304 H328 0.950 1_554 S
C305 C322 1.574 1_655 S
C305 C324 1.368 . S
C305 H329 0.949 . S
H306 C310 0.949 1_556 S
C307 C308 1.349 . S
C307 C309 1.327 . S
C307 H330 0.950 . S
C308 C307 1.349 . S
C308 C320 1.349 . S
C309 C307 1.327 . S
C309 C325 1.429 . S
C309 H331 0.950 . S
C310 H306 0.949 1_554 S
C310 C318 1.574 1_455 S
C310 C326 1.368 . S
H311 C319 0.950 . S
H312 C317 0.950 . S
H313 C318 0.949 1_556 S
H314 C320 0.950 1_556 S
H315 C321 0.950 1_556 S
H316 C322 0.949 . S
C317 H312 0.950 . S
C317 C319 1.327 . S
C317 C323 1.429 . S
C318 C310 1.574 1_655 S
C318 H313 0.949 1_554 S
C318 C324 1.368 . S
C319 C303 1.349 . S
C319 H311 0.950 . S
C319 C317 1.327 . S
C320 C308 1.349 . S
C320 H314 0.950 1_554 S
C320 C321 1.327 . S
C321 H315 0.950 1_554 S
C321 C320 1.327 . S
C321 C325 1.429 . S
C322 C305 1.574 1_455 S
C322 H316 0.949 . S
C322 C326 1.368 . S
C323 C304 1.429 . S
C323 C317 1.429 . S
C323 C324 1.523 . S
C324 C305 1.368 . S
C324 C318 1.368 . S
C324 C323 1.523 . S
C325 C309 1.429 . S
C325 C321 1.429 . S
C325 C326 1.523 . S
C326 C310 1.368 . S
C326 C322 1.368 . S
C326 C325 1.523 . S
H327 C302 0.950 1_556 S
H328 C304 0.950 1_556 S
H329 C305 0.949 . S
H330 C307 0.950 . S
H331 C309 0.950 . S
C332 C333 1.349 . S
C332 C334 1.327 . S
C332 H357 0.950 . S
C333 C332 1.349 . S
C333 C349 1.349 . S
C334 C332 1.327 . S
C334 C353 1.429 . S
C334 H358 0.950 . S
C335 C352 1.574 . S
C335 C354 1.368 . S
C335 H359 0.949 . S
H336 C340 0.949 . S
C337 C338 1.349 . S
C337 C339 1.327 . S
C337 H360 0.950 . S
C338 C337 1.349 . S
C338 C350 1.349 . S
C339 C337 1.327 . S
C339 C355 1.429 . S
C339 H361 0.950 . S
C340 H336 0.949 . S
C340 C348 1.574 . S
C340 C356 1.368 . S
H341 C349 0.950 . S
H342 C347 0.950 . S
H343 C348 0.949 . S
H344 C350 0.950 . S
H345 C351 0.950 . S
H346 C352 0.949 . S
C347 H342 0.950 . S
C347 C349 1.327 . S
C347 C353 1.429 . S
C348 C340 1.574 . S
C348 H343 0.949 . S
C348 C354 1.368 1_455 S
C349 C333 1.349 . S
C349 H341 0.950 . S
C349 C347 1.327 . S
C350 C338 1.349 . S
C350 H344 0.950 . S
C350 C351 1.327 . S
C351 H345 0.950 . S
C351 C350 1.327 . S
C351 C355 1.429 . S
C352 C335 1.574 . S
C352 H346 0.949 . S
C352 C356 1.368 1_655 S
C353 C334 1.429 . S
C353 C347 1.429 . S
C353 C354 1.523 . S
C354 C335 1.368 . S
C354 C348 1.368 1_655 S
C354 C353 1.523 . S
C355 C339 1.429 . S
C355 C351 1.429 . S
C355 C356 1.523 . S
C356 C340 1.368 . S
C356 C352 1.368 1_455 S
C356 C355 1.523 . S
H357 C332 0.950 . S
H358 C334 0.950 . S
H359 C335 0.949 . S
H360 C337 0.950 . S
H361 C339 0.950 . S
C362 C363 1.349 . S
C362 C364 1.327 . S
C362 H387 0.950 . S
C363 C362 1.349 . S
C363 C379 1.349 . S
C364 C362 1.327 . S
C364 C383 1.429 . S
C364 H388 0.950 . S
C365 C382 1.574 . S
C365 C384 1.368 . S
C365 H389 0.949 . S
H366 C370 0.949 . S
C367 C368 1.349 . S
C367 C369 1.327 . S
C367 H390 0.950 . S
C368 C367 1.349 . S
C368 C380 1.349 . S
C369 C367 1.327 . S
C369 C385 1.429 . S
C369 H391 0.950 . S
C370 H366 0.949 . S
C370 C378 1.574 . S
C370 C386 1.368 . S
H371 C379 0.950 . S
H372 C377 0.950 . S
H373 C378 0.949 . S
H374 C380 0.950 . S
H375 C381 0.950 . S
H376 C382 0.949 . S
C377 H372 0.950 . S
C377 C379 1.327 . S
C377 C383 1.429 . S
C378 C370 1.574 . S
C378 H373 0.949 . S
C378 C384 1.368 1_545 S
C379 C363 1.349 . S
C379 H371 0.950 . S
C379 C377 1.327 . S
C380 C368 1.349 . S
C380 H374 0.950 . S
C380 C381 1.327 . S
C381 H375 0.950 . S
C381 C380 1.327 . S
C381 C385 1.429 . S
C382 C365 1.574 . S
C382 H376 0.949 . S
C382 C386 1.368 1_565 S
C383 C364 1.429 . S
C383 C377 1.429 . S
C383 C384 1.523 . S
C384 C365 1.368 . S
C384 C378 1.368 1_565 S
C384 C383 1.523 . S
C385 C369 1.429 . S
C385 C381 1.429 . S
C385 C386 1.523 . S
C386 C370 1.368 . S
C386 C382 1.368 1_545 S
C386 C385 1.523 . S
H387 C362 0.950 . S
H388 C364 0.950 . S
H389 C365 0.949 . S
H390 C367 0.950 . S
H391 C369 0.950 . S
C392 C393 1.349 . S
C392 C394 1.327 . S
C392 H417 0.950 . S
C393 C392 1.349 . S
C393 C409 1.370 . S
C394 C392 1.327 . S
C394 C413 1.429 . S
C394 H418 0.950 . S
C395 C412 1.574 . S
C395 C414 1.368 . S
C395 H419 0.949 1_554 S
H396 C400 0.949 . S
C397 C398 1.349 . S
C397 C399 1.327 . S
C397 H420 0.950 1_554 S
C398 C397 1.349 . S
C398 C410 1.349 . S
C399 C397 1.327 . S
C399 C415 1.429 . S
C399 H421 0.950 1_554 S
C400 H396 0.949 . S
C400 C408 1.574 . S
C400 C416 1.368 . S
H401 C409 0.928 1_556 S
H402 C407 0.950 1_556 S
H403 C408 0.949 . S
H404 C410 0.950 . S
H405 C411 0.950 . S
H406 C412 0.949 1_556 S
C407 H402 0.950 1_554 S
C407 C409 1.328 . S
C407 C413 1.429 . S
C408 C400 1.574 . S
C408 H403 0.949 . S
C408 C414 1.368 . S
C409 C393 1.370 . S
C409 H401 0.928 1_554 S
C409 C407 1.328 . S
C410 C398 1.349 . S
C410 H404 0.950 . S
C410 C411 1.327 . S
C411 H405 0.950 . S
C411 C410 1.327 . S
C411 C415 1.429 . S
C412 C395 1.574 . S
C412 H406 0.949 1_554 S
C412 C416 1.368 . S
C413 C394 1.429 . S
C413 C407 1.429 . S
C413 C414 1.523 . S
C414 C395 1.368 . S
C414 C408 1.368 . S
C414 C413 1.523 . S
C415 C399 1.429 . S
C415 C411 1.429 . S
C415 C416 1.523 . S
C416 C400 1.368 . S
C416 C412 1.368 . S
C416 C415 1.523 . S
H417 C392 0.950 . S
H418 C394 0.950 . S
H419 C395 0.949 1_556 S
H420 C397 0.950 1_556 S
H421 C399 0.950 1_556 S
C422 C423 1.349 . S
C422 C424 1.327 . S
C422 H447 0.950 . S
C423 C422 1.349 . S
C423 C439 1.372 . S
C424 C422 1.327 . S
C424 C443 1.429 . S
C424 H448 0.950 . S
C425 C442 1.574 . S
C425 C444 1.368 . S
C425 H449 0.949 1_554 S
H426 C430 0.949 . S
C427 C428 1.349 . S
C427 C429 1.327 . S
C427 H450 0.950 1_554 S
C428 C427 1.349 . S
C428 C440 1.349 . S
C429 C427 1.327 . S
C429 C445 1.429 . S
C429 H451 0.950 1_554 S
C430 H426 0.949 . S
C430 C438 1.574 . S
C430 C446 1.368 . S
H431 C439 0.927 1_556 S
H432 C437 0.950 1_556 S
H433 C438 0.949 . S
H434 C440 0.950 . S
H435 C441 0.950 . S
H436 C442 0.949 1_556 S
C437 H432 0.950 1_554 S
C437 C439 1.328 . S
C437 C443 1.429 . S
C438 C430 1.574 . S
C438 H433 0.949 . S
C438 C444 1.368 . S
C439 C423 1.372 . S
C439 H431 0.927 1_554 S
C439 C437 1.328 . S
C440 C428 1.349 . S
C440 H434 0.950 . S
C440 C441 1.327 . S
C441 H435 0.950 . S
C441 C440 1.327 . S
C441 C445 1.429 . S
C442 C425 1.574 . S
C442 H436 0.949 1_554 S
C442 C446 1.368 . S
C443 C424 1.429 . S
C443 C437 1.429 . S
C443 C444 1.523 . S
C444 C425 1.368 . S
C444 C438 1.368 . S
C444 C443 1.523 . S
C445 C429 1.429 . S
C445 C441 1.429 . S
C445 C446 1.523 . S
C446 C430 1.368 . S
C446 C442 1.368 . S
C446 C445 1.523 . S
H447 C422 0.950 . S
H448 C424 0.950 . S
H449 C425 0.949 1_556 S
H450 C427 0.950 1_556 S
H451 C429 0.950 1_556 S
C452 C453 1.349 . S
C452 C454 1.327 . S
C452 H477 0.950 . S
C453 C452 1.349 . S
C453 C469 1.349 . S
C454 C452 1.327 . S
C454 C473 1.429 . S
C454 H478 0.950 . S
C455 C472 1.574 . S
C455 C474 1.368 . S
C455 H479 0.949 1_554 S
H456 C460 0.949 . S
C457 C458 1.348 1_556 S
C457 C459 1.327 1_556 S
C457 H480 0.951 . S
C458 C457 1.348 1_554 S
C458 C470 1.349 . S
C459 C457 1.327 1_554 S
C459 C475 1.440 . S
C459 H481 0.938 1_554 S
C460 H456 0.949 . S
C460 C468 1.574 . S
C460 C476 1.368 . S
H461 C469 0.950 1_556 S
H462 C467 0.950 1_556 S
H463 C468 0.949 . S
H464 C470 0.950 . S
H465 C471 0.950 . S
H466 C472 0.949 1_556 S
C467 H462 0.950 1_554 S
C467 C469 1.327 . S
C467 C473 1.429 . S
C468 C460 1.574 . S
C468 H463 0.949 . S
C468 C474 1.368 . S
C469 C453 1.349 . S
C469 H461 0.950 1_554 S
C469 C467 1.327 . S
C470 C458 1.349 . S
C470 H464 0.950 . S
C470 C471 1.327 . S
C471 H465 0.950 . S
C471 C470 1.327 . S
C471 C475 1.429 . S
C472 C455 1.574 . S
C472 H466 0.949 1_554 S
C472 C476 1.368 . S
C473 C454 1.429 . S
C473 C467 1.429 . S
C473 C474 1.523 . S
C474 C455 1.368 . S
C474 C468 1.368 . S
C474 C473 1.523 . S
C475 C459 1.440 . S
C475 C471 1.429 . S
C475 C476 1.523 . S
C476 C460 1.368 . S
C476 C472 1.368 . S
C476 C475 1.523 . S
H477 C452 0.950 . S
H478 C454 0.950 . S
H479 C455 0.949 1_556 S
H480 C457 0.951 . S
H481 C459 0.938 1_556 S
C482 C483 1.349 . S
C482 C484 1.327 . S
C482 H507 0.950 1_554 S
C483 C482 1.349 . S
C483 C499 1.349 . S
C484 C482 1.327 . S
C484 C503 1.429 . S
C484 H508 0.950 1_554 S
C485 C502 1.574 . S
C485 C504 1.368 . S
C485 H509 0.949 . S
H486 C490 0.949 1_556 S
C487 C488 1.349 . S
C487 C489 1.327 . S
C487 H510 0.950 . S
C488 C487 1.349 . S
C488 C500 1.349 . S
C489 C487 1.327 . S
C489 C505 1.429 . S
C489 H511 0.950 . S
C490 H486 0.949 1_554 S
C490 C498 1.574 . S
C490 C506 1.368 . S
H491 C499 0.950 . S
H492 C497 0.950 . S
H493 C498 0.949 1_556 S
H494 C500 0.950 1_556 S
H495 C501 0.950 1_556 S
H496 C502 0.949 . S
C497 H492 0.950 . S
C497 C499 1.327 . S
C497 C503 1.429 . S
C498 C490 1.574 . S
C498 H493 0.949 1_554 S
C498 C504 1.368 . S
C499 C483 1.349 . S
C499 H491 0.950 . S
C499 C497 1.327 . S
C500 C488 1.349 . S
C500 H494 0.950 1_554 S
C500 C501 1.327 . S
C501 H495 0.950 1_554 S
C501 C500 1.327 . S
C501 C505 1.429 . S
C502 C485 1.574 . S
C502 H496 0.949 . S
C502 C506 1.368 . S
C503 C484 1.429 . S
C503 C497 1.429 . S
C503 C504 1.523 . S
C504 C485 1.368 . S
C504 C498 1.368 . S
C504 C503 1.523 . S
C505 C489 1.429 . S
C505 C501 1.429 . S
C505 C506 1.523 . S
C506 C490 1.368 . S
C506 C502 1.368 . S
C506 C505 1.523 . S
H507 C482 0.950 1_556 S
H508 C484 0.950 1_556 S
H509 C485 0.949 . S
H510 C487 0.950 . S
H511 C489 0.950 . S
C512 C513 1.349 . S
C512 C514 1.327 1_565 S
C512 H537 0.950 . S
C513 C512 1.349 . S
C513 C529 1.349 . S
C514 C512 1.327 1_545 S
C514 C533 1.429 . S
C514 H538 0.950 . S
C515 C532 1.574 . S
C515 C534 1.368 . S
C515 H539 0.949 . S
H516 C520 0.949 . S
C517 C518 1.349 . S
C517 C519 1.327 . S
C517 H540 0.950 . S
C518 C517 1.349 . S
C518 C530 1.349 . S
C519 C517 1.327 . S
C519 C535 1.429 . S
C519 H541 0.950 . S
C520 H516 0.949 . S
C520 C528 1.574 . S
C520 C536 1.368 . S
H521 C529 0.950 . S
H522 C527 0.950 . S
H523 C528 0.949 . S
H524 C530 0.950 . S
H525 C531 0.950 . S
H526 C532 0.949 . S
C527 H522 0.950 . S
C527 C529 1.327 1_545 S
C527 C533 1.429 . S
C528 C520 1.574 . S
C528 H523 0.949 . S
C528 C534 1.368 . S
C529 C513 1.349 . S
C529 H521 0.950 . S
C529 C527 1.327 1_565 S
C530 C518 1.349 . S
C530 H524 0.950 . S
C530 C531 1.327 . S
C531 H525 0.950 . S
C531 C530 1.327 . S
C531 C535 1.429 . S
C532 C515 1.574 . S
C532 H526 0.949 . S
C532 C536 1.368 . S
C533 C514 1.429 . S
C533 C527 1.429 . S
C533 C534 1.523 . S
C534 C515 1.368 . S
C534 C528 1.368 . S
C534 C533 1.523 . S
C535 C519 1.429 . S
C535 C531 1.429 . S
C535 C536 1.523 . S
C536 C520 1.368 . S
C536 C532 1.368 . S
C536 C535 1.523 . S
H537 C512 0.950 . S
H538 C514 0.950 . S
H539 C515 0.949 . S
H540 C517 0.950 . S
H541 C519 0.950 . S
C542 C543 1.349 . S
C542 C544 1.327 1_455 S
C542 H567 0.950 . S
C543 C542 1.349 . S
C543 C559 1.349 . S
C544 C542 1.327 1_655 S
C544 C563 1.429 . S
C544 H568 0.950 . S
C545 C562 1.574 . S
C545 C564 1.368 . S
C545 H569 0.949 . S
H546 C550 0.949 . S
C547 C548 1.349 . S
C547 C549 1.327 . S
C547 H570 0.950 . S
C548 C547 1.349 . S
C548 C560 1.349 . S
C549 C547 1.327 . S
C549 C565 1.429 . S
C549 H571 0.950 . S
C550 H546 0.949 . S
C550 C558 1.574 . S
C550 C566 1.368 . S
H551 C559 0.950 . S
H552 C557 0.950 . S
H553 C558 0.949 . S
H554 C560 0.950 . S
H555 C561 0.950 . S
H556 C562 0.949 . S
C557 H552 0.950 . S
C557 C559 1.327 1_655 S
C557 C563 1.429 . S
C558 C550 1.574 . S
C558 H553 0.949 . S
C558 C564 1.368 . S
C559 C543 1.349 . S
C559 H551 0.950 . S
C559 C557 1.327 1_455 S
C560 C548 1.349 . S
C560 H554 0.950 . S
C560 C561 1.327 . S
C561 H555 0.950 . S
C561 C560 1.327 . S
C561 C565 1.429 . S
C562 C545 1.574 . S
C562 H556 0.949 . S
C562 C566 1.368 . S
C563 C544 1.429 . S
C563 C557 1.429 . S
C563 C564 1.523 . S
C564 C545 1.368 . S
C564 C558 1.368 . S
C564 C563 1.523 . S
C565 C549 1.429 . S
C565 C561 1.429 . S
C565 C566 1.523 . S
C566 C550 1.368 . S
C566 C562 1.368 . S
C566 C565 1.523 . S
H567 C542 0.950 . S
H568 C544 0.950 . S
H569 C545 0.949 . S
H570 C547 0.950 . S
H571 C549 0.950 . S
C572 C573 1.349 . S
C572 C574 1.327 1_545 S
C572 H597 0.950 . S
C573 C572 1.349 . S
C573 C589 1.349 . S
C574 C572 1.327 1_565 S
C574 C593 1.429 . S
C574 H598 0.950 . S
C575 C592 1.574 . S
C575 C594 1.368 . S
C575 H599 0.949 . S
H576 C580 0.949 . S
C577 C578 1.349 . S
C577 C579 1.327 . S
C577 H600 0.950 . S
C578 C577 1.349 . S
C578 C590 1.349 . S
C579 C577 1.327 . S
C579 C595 1.429 . S
C579 H601 0.950 . S
C580 H576 0.949 . S
C580 C588 1.574 . S
C580 C596 1.368 . S
H581 C589 0.950 . S
H582 C587 0.950 . S
H583 C588 0.949 . S
H584 C590 0.950 . S
H585 C591 0.950 . S
H586 C592 0.949 . S
C587 H582 0.950 . S
C587 C589 1.327 1_565 S
C587 C593 1.429 . S
C588 C580 1.574 . S
C588 H583 0.949 . S
C588 C594 1.368 . S
C589 C573 1.349 . S
C589 H581 0.950 . S
C589 C587 1.327 1_545 S
C590 C578 1.349 . S
C590 H584 0.950 . S
C590 C591 1.327 . S
C591 H585 0.950 . S
C591 C590 1.327 . S
C591 C595 1.429 . S
C592 C575 1.574 . S
C592 H586 0.949 . S
C592 C596 1.368 . S
C593 C574 1.429 . S
C593 C587 1.429 . S
C593 C594 1.523 . S
C594 C575 1.368 . S
C594 C588 1.368 . S
C594 C593 1.523 . S
C595 C579 1.429 . S
C595 C591 1.429 . S
C595 C596 1.523 . S
C596 C580 1.368 . S
C596 C592 1.368 . S
C596 C595 1.523 . S
H597 C572 0.950 . S
H598 C574 0.950 . S
H599 C575 0.949 . S
H600 C577 0.950 . S
H601 C579 0.950 . S
C602 C603 1.349 . S
C602 C604 1.327 1_655 S
C602 H627 0.950 . S
C603 C602 1.349 . S
C603 C619 1.349 . S
C604 C602 1.327 1_455 S
C604 C623 1.429 . S
C604 H628 0.950 . S
C605 C622 1.574 . S
C605 C624 1.368 . S
C605 H629 0.949 . S
H606 C610 0.949 . S
C607 C608 1.349 . S
C607 C609 1.327 . S
C607 H630 0.950 . S
C608 C607 1.349 . S
C608 C620 1.349 . S
C609 C607 1.327 . S
C609 C625 1.429 . S
C609 H631 0.950 . S
C610 H606 0.949 . S
C610 C618 1.574 . S
C610 C626 1.368 . S
H611 C619 0.950 . S
H612 C617 0.950 . S
H613 C618 0.949 . S
H614 C620 0.950 . S
H615 C621 0.950 . S
H616 C622 0.949 . S
C617 H612 0.950 . S
C617 C619 1.327 1_455 S
C617 C623 1.429 . S
C618 C610 1.574 . S
C618 H613 0.949 . S
C618 C624 1.368 . S
C619 C603 1.349 . S
C619 H611 0.950 . S
C619 C617 1.327 1_655 S
C620 C608 1.349 . S
C620 H614 0.950 . S
C620 C621 1.327 . S
C621 H615 0.950 . S
C621 C620 1.327 . S
C621 C625 1.429 . S
C622 C605 1.574 . S
C622 H616 0.949 . S
C622 C626 1.368 . S
C623 C604 1.429 . S
C623 C617 1.429 . S
C623 C624 1.523 . S
C624 C605 1.368 . S
C624 C618 1.368 . S
C624 C623 1.523 . S
C625 C609 1.429 . S
C625 C621 1.429 . S
C625 C626 1.523 . S
C626 C610 1.368 . S
C626 C622 1.368 . S
C626 C625 1.523 . S
H627 C602 0.950 . S
H628 C604 0.950 . S
H629 C605 0.949 . S
H630 C607 0.950 . S
H631 C609 0.950 . S
C632 C633 1.349 . S
C632 C634 1.327 . S
C632 H657 0.950 . S
C633 C632 1.349 . S
C633 C649 1.349 . S
C634 C632 1.327 . S
C634 C653 1.429 . S
C634 H658 0.950 . S
C635 C652 1.574 . S
C635 C654 1.368 . S
C635 H659 0.949 . S
H636 C640 0.949 . S
C637 C638 1.349 . S
C637 C639 1.327 . S
C637 H660 0.950 . S
C638 C637 1.349 . S
C638 C650 1.349 . S
C639 C637 1.327 . S
C639 C655 1.429 . S
C639 H661 0.950 . S
C640 H636 0.949 . S
C640 C648 1.574 . S
C640 C656 1.368 . S
H641 C649 0.950 . S
H642 C647 0.950 . S
H643 C648 0.949 . S
H644 C650 0.950 . S
H645 C651 0.950 . S
H646 C652 0.949 . S
C647 H642 0.950 . S
C647 C649 1.327 . S
C647 C653 1.429 . S
C648 C640 1.574 . S
C648 H643 0.949 . S
C648 C654 1.368 . S
C649 C633 1.349 . S
C649 H641 0.950 . S
C649 C647 1.327 . S
C650 C638 1.349 . S
C650 H644 0.950 . S
C650 C651 1.327 . S
C651 H645 0.950 . S
C651 C650 1.327 . S
C651 C655 1.429 . S
C652 C635 1.574 . S
C652 H646 0.949 . S
C652 C656 1.368 . S
C653 C634 1.429 . S
C653 C647 1.429 . S
C653 C654 1.523 . S
C654 C635 1.368 . S
C654 C648 1.368 . S
C654 C653 1.523 . S
C655 C639 1.429 . S
C655 C651 1.429 . S
C655 C656 1.523 . S
C656 C640 1.368 . S
C656 C652 1.368 . S
C656 C655 1.523 . S
H657 C632 0.950 . S
H658 C634 0.950 . S
H659 C635 0.949 . S
H660 C637 0.950 . S
H661 C639 0.950 . S
C662 C663 1.349 . S
C662 C664 1.327 . S
C662 H687 0.950 . S
C663 C662 1.349 . S
C663 C679 1.349 . S
C664 C662 1.327 . S
C664 C683 1.429 . S
C664 H688 0.950 . S
C665 C682 1.574 . S
C665 C684 1.368 . S
C665 H689 0.949 . S
H666 C670 0.949 . S
C667 C668 1.349 . S
C667 C669 1.327 . S
C667 H690 0.950 . S
C668 C667 1.349 . S
C668 C680 1.349 . S
C669 C667 1.327 . S
C669 C685 1.429 . S
C669 H691 0.950 . S
C670 H666 0.949 . S
C670 C678 1.574 . S
C670 C686 1.368 . S
H671 C679 0.950 . S
H672 C677 0.950 . S
H673 C678 0.949 . S
H674 C680 0.950 . S
H675 C681 0.950 . S
H676 C682 0.949 . S
C677 H672 0.950 . S
C677 C679 1.327 . S
C677 C683 1.429 . S
C678 C670 1.574 . S
C678 H673 0.949 . S
C678 C684 1.368 . S
C679 C663 1.349 . S
C679 H671 0.950 . S
C679 C677 1.327 . S
C680 C668 1.349 . S
C680 H674 0.950 . S
C680 C681 1.327 . S
C681 H675 0.950 . S
C681 C680 1.327 . S
C681 C685 1.429 . S
C682 C665 1.574 . S
C682 H676 0.949 . S
C682 C686 1.368 . S
C683 C664 1.429 . S
C683 C677 1.429 . S
C683 C684 1.523 . S
C684 C665 1.368 . S
C684 C678 1.368 . S
C684 C683 1.523 . S
C685 C669 1.429 . S
C685 C681 1.429 . S
C685 C686 1.523 . S
C686 C670 1.368 . S
C686 C682 1.368 . S
C686 C685 1.523 . S
H687 C662 0.950 . S
H688 C664 0.950 . S
H689 C665 0.949 . S
H690 C667 0.950 . S
H691 C669 0.950 . S
C692 C693 1.349 . S
C692 C694 1.327 . S
C692 H717 0.950 . S
C693 C692 1.349 . S
C693 C709 1.349 . S
C694 C692 1.327 . S
C694 C713 1.429 . S
C694 H718 0.950 . S
C695 C712 1.574 . S
C695 C714 1.368 . S
C695 H719 0.949 . S
H696 C700 0.949 . S
C697 C698 1.349 . S
C697 C699 1.327 . S
C697 H720 0.950 . S
C698 C697 1.349 . S
C698 C710 1.349 . S
C699 C697 1.327 . S
C699 C715 1.429 . S
C699 H721 0.950 . S
C700 H696 0.949 . S
C700 C708 1.574 . S
C700 C716 1.368 . S
H701 C709 0.950 . S
H702 C707 0.950 . S
H703 C708 0.949 . S
H704 C710 0.950 . S
H705 C711 0.950 . S
H706 C712 0.949 . S
C707 H702 0.950 . S
C707 C709 1.327 . S
C707 C713 1.429 . S
C708 C700 1.574 . S
C708 H703 0.949 . S
C708 C714 1.368 . S
C709 C693 1.349 . S
C709 H701 0.950 . S
C709 C707 1.327 . S
C710 C698 1.349 . S
C710 H704 0.950 . S
C710 C711 1.327 . S
C711 H705 0.950 . S
C711 C710 1.327 . S
C711 C715 1.429 . S
C712 C695 1.574 . S
C712 H706 0.949 . S
C712 C716 1.368 . S
C713 C694 1.429 . S
C713 C707 1.429 . S
C713 C714 1.523 . S
C714 C695 1.368 . S
C714 C708 1.368 . S
C714 C713 1.523 . S
C715 C699 1.429 . S
C715 C711 1.429 . S
C715 C716 1.523 . S
C716 C700 1.368 . S
C716 C712 1.368 . S
C716 C715 1.523 . S
H717 C692 0.950 . S
H718 C694 0.950 . S
H719 C695 0.949 . S
H720 C697 0.950 . S
H721 C699 0.950 . S
C722 C723 1.349 . S
C722 C724 1.327 . S
C722 H747 0.950 . S
C723 C722 1.349 . S
C723 C739 1.349 . S
C724 C722 1.327 . S
C724 C743 1.429 . S
C724 H748 0.950 . S
C725 C742 1.574 . S
C725 C744 1.368 . S
C725 H749 0.949 . S
H726 C730 0.949 . S
C727 C728 1.349 . S
C727 C729 1.327 . S
C727 H750 0.950 . S
C728 C727 1.349 . S
C728 C740 1.349 . S
C729 C727 1.327 . S
C729 C745 1.429 . S
C729 H751 0.950 . S
C730 H726 0.949 . S
C730 C738 1.574 . S
C730 C746 1.368 . S
H731 C739 0.950 . S
H732 C737 0.950 . S
H733 C738 0.949 . S
H734 C740 0.950 . S
H735 C741 0.950 . S
H736 C742 0.949 . S
C737 H732 0.950 . S
C737 C739 1.327 . S
C737 C743 1.429 . S
C738 C730 1.574 . S
C738 H733 0.949 . S
C738 C744 1.368 . S
C739 C723 1.349 . S
C739 H731 0.950 . S
C739 C737 1.327 . S
C740 C728 1.349 . S
C740 H734 0.950 . S
C740 C741 1.327 . S
C741 H735 0.950 . S
C741 C740 1.327 . S
C741 C745 1.429 . S
C742 C725 1.574 . S
C742 H736 0.949 . S
C742 C746 1.368 . S
C743 C724 1.429 . S
C743 C737 1.429 . S
C743 C744 1.523 . S
C744 C725 1.368 . S
C744 C738 1.368 . S
C744 C743 1.523 . S
C745 C729 1.429 . S
C745 C741 1.429 . S
C745 C746 1.523 . S
C746 C730 1.368 . S
C746 C742 1.368 . S
C746 C745 1.523 . S
H747 C722 0.950 . S
H748 C724 0.950 . S
H749 C725 0.949 . S
H750 C727 0.950 . S
H751 C729 0.950 . S
C752 C753 1.349 . S
C752 C754 1.327 . S
C752 H777 0.950 . S
C753 C752 1.349 . S
C753 C769 1.349 . S
C754 C752 1.327 . S
C754 C773 1.429 . S
C754 H778 0.950 . S
C755 C772 1.574 . S
C755 C774 1.368 . S
C755 H779 0.949 . S
H756 C760 0.949 . S
C757 C758 1.349 . S
C757 C759 1.327 . S
C757 H780 0.950 . S
C758 C757 1.349 . S
C758 C770 1.349 . S
C759 C757 1.327 . S
C759 C775 1.429 . S
C759 H781 0.950 . S
C760 H756 0.949 . S
C760 C768 1.574 . S
C760 C776 1.368 . S
H761 C769 0.950 . S
H762 C767 0.950 . S
H763 C768 0.949 . S
H764 C770 0.950 . S
H765 C771 0.950 . S
H766 C772 0.949 . S
C767 H762 0.950 . S
C767 C769 1.327 . S
C767 C773 1.429 . S
C768 C760 1.574 . S
C768 H763 0.949 . S
C768 C774 1.368 . S
C769 C753 1.349 . S
C769 H761 0.950 . S
C769 C767 1.327 . S
C770 C758 1.349 . S
C770 H764 0.950 . S
C770 C771 1.327 . S
C771 H765 0.950 . S
C771 C770 1.327 . S
C771 C775 1.429 . S
C772 C755 1.574 . S
C772 H766 0.949 . S
C772 C776 1.368 . S
C773 C754 1.429 . S
C773 C767 1.429 . S
C773 C774 1.523 . S
C774 C755 1.368 . S
C774 C768 1.368 . S
C774 C773 1.523 . S
C775 C759 1.429 . S
C775 C771 1.429 . S
C775 C776 1.523 . S
C776 C760 1.368 . S
C776 C772 1.368 . S
C776 C775 1.523 . S
H777 C752 0.950 . S
H778 C754 0.950 . S
H779 C755 0.949 . S
H780 C757 0.950 . S
H781 C759 0.950 . S
C782 C783 1.349 . S
C782 C784 1.327 . S
C782 H807 0.950 . S
C783 C782 1.349 . S
C783 C799 1.349 . S
C784 C782 1.327 . S
C784 C803 1.429 . S
C784 H808 0.950 . S
C785 C802 1.574 . S
C785 C804 1.368 . S
C785 H809 0.949 . S
H786 C790 0.949 . S
C787 C788 1.349 . S
C787 C789 1.327 . S
C787 H810 0.950 . S
C788 C787 1.349 . S
C788 C800 1.349 . S
C789 C787 1.327 . S
C789 C805 1.429 . S
C789 H811 0.950 . S
C790 H786 0.949 . S
C790 C798 1.574 . S
C790 C806 1.368 . S
H791 C799 0.950 . S
H792 C797 0.950 . S
H793 C798 0.949 . S
H794 C800 0.950 . S
H795 C801 0.950 . S
H796 C802 0.949 . S
C797 H792 0.950 . S
C797 C799 1.327 . S
C797 C803 1.429 . S
C798 C790 1.574 . S
C798 H793 0.949 . S
C798 C804 1.368 . S
C799 C783 1.349 . S
C799 H791 0.950 . S
C799 C797 1.327 . S
C800 C788 1.349 . S
C800 H794 0.950 . S
C800 C801 1.327 . S
C801 H795 0.950 . S
C801 C800 1.327 . S
C801 C805 1.429 . S
C802 C785 1.574 . S
C802 H796 0.949 . S
C802 C806 1.368 . S
C803 C784 1.429 . S
C803 C797 1.429 . S
C803 C804 1.523 . S
C804 C785 1.368 . S
C804 C798 1.368 . S
C804 C803 1.523 . S
C805 C789 1.429 . S
C805 C801 1.429 . S
C805 C806 1.523 . S
C806 C790 1.368 . S
C806 C802 1.368 . S
C806 C805 1.523 . S
H807 C782 0.950 . S
H808 C784 0.950 . S
H809 C785 0.949 . S
H810 C787 0.950 . S
H811 C789 0.950 . S
C812 C813 1.349 . S
C812 C814 1.327 . S
C812 H837 0.950 . S
C813 C812 1.349 . S
C813 C829 1.349 . S
C814 C812 1.327 . S
C814 C833 1.429 . S
C814 H838 0.950 . S
C815 C832 1.574 . S
C815 C834 1.368 . S
C815 H839 0.949 . S
H816 C820 0.949 . S
C817 C818 1.349 . S
C817 C819 1.327 . S
C817 H840 0.950 . S
C818 C817 1.349 . S
C818 C830 1.349 . S
C819 C817 1.327 . S
C819 C835 1.429 . S
C819 H841 0.950 . S
C820 H816 0.949 . S
C820 C828 1.574 . S
C820 C836 1.368 . S
H821 C829 0.950 . S
H822 C827 0.950 . S
H823 C828 0.949 . S
H824 C830 0.950 . S
H825 C831 0.950 . S
H826 C832 0.949 . S
C827 H822 0.950 . S
C827 C829 1.327 . S
C827 C833 1.429 . S
C828 C820 1.574 . S
C828 H823 0.949 . S
C828 C834 1.368 . S
C829 C813 1.349 . S
C829 H821 0.950 . S
C829 C827 1.327 . S
C830 C818 1.349 . S
C830 H824 0.950 . S
C830 C831 1.327 . S
C831 H825 0.950 . S
C831 C830 1.327 . S
C831 C835 1.429 . S
C832 C815 1.574 . S
C832 H826 0.949 . S
C832 C836 1.368 . S
C833 C814 1.429 . S
C833 C827 1.429 . S
C833 C834 1.523 . S
C834 C815 1.368 . S
C834 C828 1.368 . S
C834 C833 1.523 . S
C835 C819 1.429 . S
C835 C831 1.429 . S
C835 C836 1.523 . S
C836 C820 1.368 . S
C836 C832 1.368 . S
C836 C835 1.523 . S
H837 C812 0.950 . S
H838 C814 0.950 . S
H839 C815 0.949 . S
H840 C817 0.950 . S
H841 C819 0.950 . S
C842 C843 1.349 . S
C842 C844 1.327 . S
C842 H867 0.950 . S
C843 C842 1.349 . S
C843 C859 1.349 . S
C844 C842 1.327 . S
C844 C863 1.429 . S
C844 H868 0.950 . S
C845 C862 1.574 . S
C845 C864 1.368 . S
C845 H869 0.949 . S
H846 C850 0.949 . S
C847 C848 1.349 . S
C847 C849 1.327 . S
C847 H870 0.950 . S
C848 C847 1.349 . S
C848 C860 1.349 . S
C849 C847 1.327 . S
C849 C865 1.429 . S
C849 H871 0.950 . S
C850 H846 0.949 . S
C850 C858 1.574 . S
C850 C866 1.368 . S
H851 C859 0.950 . S
H852 C857 0.950 . S
H853 C858 0.949 . S
H854 C860 0.950 . S
H855 C861 0.950 . S
H856 C862 0.949 . S
C857 H852 0.950 . S
C857 C859 1.327 . S
C857 C863 1.429 . S
C858 C850 1.574 . S
C858 H853 0.949 . S
C858 C864 1.368 . S
C859 C843 1.349 . S
C859 H851 0.950 . S
C859 C857 1.327 . S
C860 C848 1.349 . S
C860 H854 0.950 . S
C860 C861 1.327 . S
C861 H855 0.950 . S
C861 C860 1.327 . S
C861 C865 1.429 . S
C862 C845 1.574 . S
C862 H856 0.949 . S
C862 C866 1.368 . S
C863 C844 1.429 . S
C863 C857 1.429 . S
C863 C864 1.523 . S
C864 C845 1.368 . S
C864 C858 1.368 . S
C864 C863 1.523 . S
C865 C849 1.429 . S
C865 C861 1.429 . S
C865 C866 1.523 . S
C866 C850 1.368 . S
C866 C862 1.368 . S
C866 C865 1.523 . S
H867 C842 0.950 . S
H868 C844 0.950 . S
H869 C845 0.949 . S
H870 C847 0.950 . S
H871 C849 0.950 . S
C273 C77 0.854 . S
C278 C9 0.854 . S
C303 C43 0.854 . S
C308 C111 0.854 . S
C333 C145 0.854 . S
C338 C213 0.854 . S
C363 C179 0.854 . S
C368 C247 0.854 . S
C393 C135 1.654 . S
C398 C5 1.667 . S
C423 C33 1.654 . S
C428 C39 1.667 . S
C453 C73 1.667 . S
C458 C67 1.654 . S
C483 C107 1.667 . S
C488 C101 1.654 . S
C513 C203 1.654 . S
C518 C141 1.667 . S
C543 C237 1.654 . S
C548 C175 1.667 . S
C573 C271 1.654 . S
C578 C209 1.667 . S
C603 C169 1.654 . S
C608 C243 1.667 . S
C633 C20 1.754 . S
C638 C258 1.754 . S
C663 C54 1.754 . S
C668 C156 1.754 . S
C693 C190 1.754 . S
C698 C88 1.754 . S
C723 C224 1.754 . S
C728 C122 1.754 . S
C753 C70 1.904 . S
C758 C172 1.904 . S
C783 C206 1.904 . S
C788 C104 1.904 . S
C813 C240 1.904 . S
C818 C2 1.904 . S
C843 C138 1.904 . S
C848 C36 1.904 . S
