# Generated by pormake.
# Topology npo, (4)-cn, num edge types: 1
# Building blocks:
#     Node 0, Type 0, BuildingBlock: QUQFOY_clean_sbu_1, # of connection points: 4
#     Node 1, Type 0, BuildingBlock: QUQFOY_clean_sbu_1, # of connection points: 4
#     Node 2, Type 0, BuildingBlock: QUQFOY_clean_sbu_1, # of connection points: 4
#     Node 3, Type 0, BuildingBlock: QUQFOY_clean_sbu_1, # of connection points: 4
#     Node 4, Type 0, BuildingBlock: QUQFOY_clean_sbu_1, # of connection points: 4
#     Node 5, Type 0, BuildingBlock: QUQFOY_clean_sbu_1, # of connection points: 4
#     Edge 6, Type (0, 0), BuildingBlock: FUNLAD_clean_linker_1, # of connection points: 2
#     Edge 7, Type (0, 0), BuildingBlock: FUNLAD_clean_linker_1, # of connection points: 2
#     Edge 8, Type (0, 0), BuildingBlock: FUNLAD_clean_linker_1, # of connection points: 2
#     Edge 9, Type (0, 0), BuildingBlock: FUNLAD_clean_linker_1, # of connection points: 2
#     Edge 10, Type (0, 0), BuildingBlock: FUNLAD_clean_linker_1, # of connection points: 2
#     Edge 11, Type (0, 0), BuildingBlock: FUNLAD_clean_linker_1, # of connection points: 2
#     Edge 12, Type (0, 0), BuildingBlock: FUNLAD_clean_linker_1, # of connection points: 2
#     Edge 13, Type (0, 0), BuildingBlock: FUNLAD_clean_linker_1, # of connection points: 2
#     Edge 14, Type (0, 0), BuildingBlock: FUNLAD_clean_linker_1, # of connection points: 2
#     Edge 15, Type (0, 0), BuildingBlock: FUNLAD_clean_linker_1, # of connection points: 2
#     Edge 16, Type (0, 0), BuildingBlock: FUNLAD_clean_linker_1, # of connection points: 2
#     Edge 17, Type (0, 0), BuildingBlock: FUNLAD_clean_linker_1, # of connection points: 2
# Relax obj value: 0.267
# Max RMSD: 0.245
# Mean RMSD: 0.245
data_MOF--net-npo--node1-QUQFOY_clean_sbu_1--edge1-FUNLAD_clean_linker_1
_symmetry_space_group_name_H-M    P1
_symmetry_Int_Tables_number       1
_symmetry_cell_setting            triclinic
loop_
_symmetry_equiv_pos_as_xyz
'x, y, z'
_cell_length_a     45.447677
_cell_length_b     45.315529
_cell_length_c     29.000282
_cell_angle_alpha  89.806965
_cell_angle_beta   90.401726
_cell_angle_gamma 120.20398
loop_
_atom_site_label
_atom_site_type_symbol
_atom_site_fract_x
_atom_site_fract_y
_atom_site_fract_z
_atom_type_partial_charge
O0 O 0.60538 0.14511 0.30045 0.0
Cd1 Cd 0.55311 0.11453 0.29516 0.0
Cd2 Cd 0.57151 0.11759 0.20557 0.0
O3 O 0.61751 0.12919 0.23498 0.0
O4 O 0.53865 0.10241 0.36028 0.0
O5 O 0.53119 0.0641 0.30732 0.0
C6 C 0.52836 0.0711 0.34961 0.0
C7 C 0.55405 0.08373 0.13948 0.0
C8 C 0.62687 0.14426 0.27357 0.0
C9 C 0.53615 0.15553 0.23493 0.0
O10 O 0.55728 0.15444 0.20757 0.0
O11 O 0.52651 0.137 0.2708 0.0
O12 O 0.5789 0.11472 0.13856 0.0
O13 O 0.53923 0.07134 0.17842 0.0
O14 O 0.46345 0.61744 0.78382 0.0
Cd15 Cd 0.43677 0.56622 0.79963 0.0
Cd16 Cd 0.44629 0.56078 0.70424 0.0
O17 O 0.47284 0.61326 0.71011 0.0
O18 O 0.43522 0.56505 0.86824 0.0
O19 O 0.46014 0.54257 0.82748 0.0
C20 C 0.45189 0.54904 0.86717 0.0
C21 C 0.46743 0.53685 0.65229 0.0
C22 C 0.476 0.63128 0.74524 0.0
C23 C 0.37437 0.53074 0.73963 0.0
O24 O 0.39395 0.53665 0.70561 0.0
O25 O 0.38629 0.53985 0.78015 0.0
O26 O 0.45373 0.55422 0.63856 0.0
O27 O 0.4699 0.53342 0.69609 0.0
O28 O 0.84 0.38638 0.21385 0.0
Cd29 Cd 0.86895 0.43691 0.19536 0.0
Cd30 Cd 0.8752 0.44329 0.29292 0.0
O31 O 0.84805 0.3907 0.28935 0.0
O32 O 0.86858 0.43372 0.12693 0.0
O33 O 0.91594 0.45612 0.16854 0.0
C34 C 0.90118 0.44807 0.12863 0.0
C35 C 0.92028 0.46694 0.34548 0.0
C36 C 0.83526 0.37269 0.25337 0.0
C37 C 0.84095 0.47649 0.24254 0.0
O38 O 0.84907 0.4691 0.28113 0.0
O39 O 0.84787 0.46716 0.20497 0.0
O40 O 0.88911 0.45262 0.35886 0.0
O41 O 0.9261 0.46826 0.30179 0.0
O42 O 0.46765 0.86226 0.72772 0.0
Cd43 Cd 0.4413 0.88649 0.70886 0.0
Cd44 Cd 0.42685 0.88043 0.80414 0.0
O45 O 0.45306 0.85435 0.80119 0.0
O46 O 0.45392 0.89907 0.64327 0.0
O47 O 0.46411 0.9372 0.6977 0.0
C48 C 0.46545 0.93043 0.65483 0.0
C49 C 0.43906 0.91512 0.86894 0.0
C50 C 0.46809 0.85025 0.76722 0.0
C51 C 0.36776 0.84758 0.73771 0.0
O52 O 0.37758 0.85563 0.77925 0.0
O53 O 0.3891 0.85688 0.70516 0.0
O54 O 0.42029 0.88248 0.87161 0.0
O55 O 0.45051 0.92856 0.82899 0.0
O56 O 0.52098 0.37999 0.27733 0.0
Cd57 Cd 0.54342 0.43108 0.29338 0.0
Cd58 Cd 0.55316 0.43676 0.1958 0.0
O59 O 0.52372 0.38431 0.20127 0.0
O60 O 0.53364 0.43094 0.36007 0.0
O61 O 0.51641 0.45418 0.307 0.0
C62 C 0.51841 0.44758 0.34986 0.0
C63 C 0.5414 0.46043 0.13171 0.0
C64 C 0.5146 0.3663 0.23763 0.0
C65 C 0.61521 0.46742 0.25866 0.0
O66 O 0.60349 0.46038 0.21772 0.0
O67 O 0.59547 0.4589 0.29294 0.0
O68 O 0.55755 0.44403 0.12788 0.0
O69 O 0.53202 0.4639 0.17231 0.0
O70 O 0.1352 0.5252 0.78531 0.0
Cd71 Cd 0.10944 0.55101 0.79738 0.0
Cd72 Cd 0.11289 0.55442 0.69952 0.0
O73 O 0.13923 0.52895 0.70938 0.0
O74 O 0.10755 0.54907 0.8659 0.0
O75 O 0.06136 0.52673 0.82206 0.0
C76 C 0.07495 0.53298 0.8627 0.0
C77 C 0.06959 0.53364 0.6445 0.0
C78 C 0.14554 0.51952 0.74767 0.0
C79 C 0.14581 0.62058 0.75092 0.0
O80 O 0.13947 0.60614 0.71173 0.0
O81 O 0.13549 0.60316 0.7877 0.0
O82 O 0.10118 0.54946 0.63273 0.0
O83 O 0.0624 0.52947 0.6879 0.0
H84 H 0.54448 0.20453 0.20898 0.0
C85 C 0.52668 0.18182 0.22796 0.0
H86 H 0.48102 0.15691 0.26524 0.0
H87 H 0.4909 0.29271 0.33801 0.0
H88 H 0.47834 0.25803 0.40688 0.0
H89 H 0.47355 0.2014 0.40382 0.0
H90 H 0.48057 0.17884 0.33203 0.0
C91 C 0.49871 0.17981 0.24662 0.0
C92 C 0.49414 0.21026 0.24712 0.0
C93 C 0.49011 0.22303 0.28977 0.0
C94 C 0.49393 0.25614 0.29186 0.0
C95 C 0.48921 0.26812 0.33469 0.0
C96 C 0.48183 0.24842 0.37448 0.0
C97 C 0.47908 0.21653 0.37273 0.0
C98 C 0.48321 0.20388 0.33107 0.0
H99 H 0.48035 0.31538 0.20755 0.0
C100 C 0.49984 0.32921 0.23353 0.0
H101 H 0.53371 0.32829 0.28235 0.0
H102 H 0.48942 0.18803 0.15855 0.0
H103 H 0.50342 0.22281 0.08921 0.0
H104 H 0.52105 0.28387 0.09419 0.0
H105 H 0.52306 0.30991 0.16749 0.0
C106 C 0.51377 0.3137 0.25713 0.0
C107 C 0.50306 0.27693 0.25181 0.0
C108 C 0.50496 0.26323 0.20859 0.0
C109 C 0.49825 0.22906 0.2061 0.0
C110 C 0.49667 0.2146 0.16232 0.0
C111 C 0.50439 0.23417 0.12238 0.0
C112 C 0.51408 0.26846 0.12516 0.0
C113 C 0.51464 0.28302 0.16765 0.0
H114 H 0.32888 0.51038 0.695 0.0
C115 C 0.33784 0.51687 0.73042 0.0
H116 H 0.32583 0.52535 0.79754 0.0
H117 H 0.22921 0.57334 0.70552 0.0
H118 H 0.28134 0.62801 0.71068 0.0
H119 H 0.33539 0.63159 0.73372 0.0
H120 H 0.33765 0.58041 0.75117 0.0
C121 C 0.3169 0.51722 0.76248 0.0
C122 C 0.28419 0.51449 0.7485 0.0
C123 C 0.28341 0.54472 0.73838 0.0
C124 C 0.25228 0.54266 0.72529 0.0
C125 C 0.25216 0.57329 0.71553 0.0
C126 C 0.28192 0.60493 0.71843 0.0
C127 C 0.31235 0.60694 0.73132 0.0
C128 C 0.31326 0.5773 0.74123 0.0
H129 H 0.1748 0.49983 0.78384 0.0
C130 C 0.16936 0.50648 0.75001 0.0
H131 H 0.18548 0.51786 0.68089 0.0
H132 H 0.27749 0.45197 0.76472 0.0
H133 H 0.22532 0.39696 0.75863 0.0
H134 H 0.17117 0.39337 0.73591 0.0
H135 H 0.16881 0.44479 0.7191 0.0
C136 C 0.18918 0.50922 0.71429 0.0
C137 C 0.22195 0.51042 0.72312 0.0
C138 C 0.22286 0.48018 0.73245 0.0
C139 C 0.2541 0.48223 0.74518 0.0
C140 C 0.2544 0.45174 0.75467 0.0
C141 C 0.22466 0.42007 0.75133 0.0
C142 C 0.19416 0.41805 0.73858 0.0
C143 C 0.19311 0.44769 0.72919 0.0
H144 H 0.68001 0.15501 0.27743 0.0
C145 C 0.66341 0.16537 0.28354 0.0
H146 H 0.6592 0.20843 0.29818 0.0
H147 H 0.79298 0.31788 0.38117 0.0
H148 H 0.75517 0.30317 0.4463 0.0
H149 H 0.69849 0.25114 0.44523 0.0
H150 H 0.67911 0.21384 0.3784 0.0
C151 C 0.67643 0.19863 0.29304 0.0
C152 C 0.71352 0.22365 0.29754 0.0
C153 C 0.72526 0.24422 0.33779 0.0
C154 C 0.75829 0.27373 0.33887 0.0
C155 C 0.76838 0.29497 0.37842 0.0
C156 C 0.74691 0.28677 0.41624 0.0
C157 C 0.71499 0.25751 0.41562 0.0
C158 C 0.70414 0.23642 0.37696 0.0
H159 H 0.79321 0.32394 0.22908 0.0
C160 C 0.81129 0.33584 0.25727 0.0
H161 H 0.8274 0.32933 0.32278 0.0
H162 H 0.70014 0.19112 0.21263 0.0
H163 H 0.74119 0.20085 0.15364 0.0
H164 H 0.80139 0.24579 0.16277 0.0
H165 H 0.82016 0.28242 0.23066 0.0
C166 C 0.80934 0.31732 0.29469 0.0
C167 C 0.77988 0.28189 0.30015 0.0
C168 C 0.77023 0.2582 0.26338 0.0
C169 C 0.73634 0.23025 0.26042 0.0
C170 C 0.72609 0.21073 0.21923 0.0
C171 C 0.74942 0.21639 0.18452 0.0
C172 C 0.78325 0.2418 0.1895 0.0
C173 C 0.79363 0.26269 0.22833 0.0
H174 H 0.4797 0.81588 0.80685 0.0
C175 C 0.48217 0.82745 0.77311 0.0
H176 H 0.49329 0.82623 0.70282 0.0
H177 H 0.54385 0.72776 0.81014 0.0
H178 H 0.59133 0.78089 0.83898 0.0
H179 H 0.59462 0.83601 0.82307 0.0
H180 H 0.55044 0.83838 0.77821 0.0
C181 C 0.49231 0.81621 0.73722 0.0
C182 C 0.49332 0.78408 0.74177 0.0
C183 C 0.51949 0.78322 0.7675 0.0
C184 C 0.51768 0.75148 0.77643 0.0
C185 C 0.54401 0.75123 0.80247 0.0
C186 C 0.57138 0.78151 0.81913 0.0
C187 C 0.57323 0.81256 0.81021 0.0
C188 C 0.54767 0.81357 0.78463 0.0
H189 H 0.49867 0.67884 0.70466 0.0
C190 C 0.49003 0.66824 0.7389 0.0
H191 H 0.47763 0.67729 0.80558 0.0
H192 H 0.43981 0.77711 0.68902 0.0
H193 H 0.39195 0.72416 0.66154 0.0
H194 H 0.38767 0.66889 0.67936 0.0
H195 H 0.4312 0.66628 0.72449 0.0
C196 C 0.4866 0.6874 0.77127 0.0
C197 C 0.4898 0.72079 0.75945 0.0
C198 C 0.46378 0.7217 0.73315 0.0
C199 C 0.46588 0.75347 0.72365 0.0
C200 C 0.43954 0.7537 0.69743 0.0
C201 C 0.41183 0.72346 0.68145 0.0
C202 C 0.40944 0.69237 0.69143 0.0
C203 C 0.43488 0.69131 0.71714 0.0
H204 H 0.66024 0.4864 0.30367 0.0
C205 C 0.6518 0.48182 0.26788 0.0
H206 H 0.66572 0.47884 0.19931 0.0
H207 H 0.8242 0.55711 0.25461 0.0
H208 H 0.82158 0.60506 0.2212 0.0
H209 H 0.76636 0.59968 0.2002 0.0
H210 H 0.71339 0.54632 0.21239 0.0
C211 C 0.67351 0.48385 0.23527 0.0
C212 C 0.70682 0.48757 0.24855 0.0
C213 C 0.73739 0.51881 0.24111 0.0
C214 C 0.76922 0.52185 0.25293 0.0
C215 C 0.79942 0.55339 0.24552 0.0
C216 C 0.79823 0.58109 0.22662 0.0
C217 C 0.76713 0.57807 0.21483 0.0
C218 C 0.73695 0.54735 0.22197 0.0
H219 H 0.81029 0.49439 0.20636 0.0
C220 C 0.81866 0.49133 0.24038 0.0
H221 H 0.81002 0.48972 0.31194 0.0
H222 H 0.65291 0.4231 0.26485 0.0
H223 H 0.6556 0.37581 0.29919 0.0
H224 H 0.71068 0.38173 0.3221 0.0
H225 H 0.76333 0.43493 0.31047 0.0
C226 C 0.80317 0.49434 0.27779 0.0
C227 C 0.7703 0.49357 0.27194 0.0
C228 C 0.73963 0.4626 0.2807 0.0
C229 C 0.70787 0.45939 0.26828 0.0
C230 C 0.67774 0.42747 0.27489 0.0
C231 C 0.6789 0.39992 0.29429 0.0
C232 C 0.70989 0.40324 0.30711 0.0
C233 C 0.73997 0.43404 0.30027 0.0
H234 H 0.32481 0.81526 0.69155 0.0
C235 C 0.3317 0.82332 0.7272 0.0
H236 H 0.31598 0.81322 0.79659 0.0
H237 H 0.16873 0.71678 0.68789 0.0
H238 H 0.17032 0.77005 0.67003 0.0
H239 H 0.22101 0.82551 0.68898 0.0
H240 H 0.27046 0.82811 0.72596 0.0
C241 C 0.30893 0.80676 0.76059 0.0
C242 C 0.2777 0.77378 0.7503 0.0
C243 C 0.24915 0.7728 0.72879 0.0
C244 C 0.21987 0.74084 0.71806 0.0
C245 C 0.19157 0.74044 0.69678 0.0
C246 C 0.19217 0.77078 0.68637 0.0
C247 C 0.22073 0.80203 0.69701 0.0
C248 C 0.24896 0.80319 0.71808 0.0
H249 H 0.17444 0.66857 0.78961 0.0
C250 C 0.16917 0.6576 0.75514 0.0
H251 H 0.18434 0.66619 0.68519 0.0
H252 H 0.32866 0.76682 0.79082 0.0
H253 H 0.32778 0.71381 0.80616 0.0
H254 H 0.27769 0.65845 0.78547 0.0
H255 H 0.22825 0.6558 0.74924 0.0
C256 C 0.18841 0.67659 0.71986 0.0
C257 C 0.21934 0.7101 0.72899 0.0
C258 C 0.24832 0.71112 0.74936 0.0
C259 C 0.27734 0.74299 0.76066 0.0
C260 C 0.30585 0.74331 0.78141 0.0
C261 C 0.30575 0.71305 0.79037 0.0
C262 C 0.27756 0.68189 0.77873 0.0
C263 C 0.2492 0.68077 0.75827 0.0
H264 H 0.43526 0.92255 0.94301 0.0
C265 C 0.44787 0.93561 0.91137 0.0
H266 H 0.48679 0.98154 0.8826 0.0
H267 H 0.4585 0.03019 0.08654 0.0
H268 H 0.40595 0.02127 0.05177 0.0
H269 H 0.38868 0.99651 0.97386 0.0
H270 H 0.42391 0.98052 0.93023 0.0
C271 C 0.47248 0.96849 0.91326 0.0
C272 C 0.48395 0.98591 0.95867 0.0
C273 C 0.46312 0.99519 0.98365 0.0
C274 C 0.47321 0.00967 0.02845 0.0
C275 C 0.45204 0.01896 0.05247 0.0
C276 C 0.42182 0.01403 0.03289 0.0
C277 C 0.41208 6e-05 0.98904 0.0
C278 C 0.43244 0.99081 0.96448 0.0
H279 H 0.55728 0.07622 0.0653 0.0
C280 C 0.543 0.06397 0.09635 0.0
H281 H 0.50026 0.02033 0.12371 0.0
H282 H 0.52995 0.97149 0.91957 0.0
H283 H 0.582 0.97939 0.95475 0.0
H284 H 0.59858 0.00269 0.03347 0.0
H285 H 0.56335 0.01846 0.0773 0.0
C286 C 0.51575 0.03247 0.09351 0.0
C287 C 0.50427 0.01514 0.04797 0.0
C288 C 0.52491 0.00548 0.02314 0.0
C289 C 0.51497 0.99134 0.97816 0.0
C290 C 0.53619 0.9822 0.95394 0.0
C291 C 0.56613 0.98655 0.97374 0.0
C292 C 0.57549 -0.00027 0.01802 0.0
C293 C 0.55516 0.00897 0.04266 0.0
H294 H 0.49228 0.474 0.37657 0.0
C295 C 0.50505 0.46007 0.3864 0.0
H296 H 0.52417 0.44363 0.44132 0.0
H297 H 0.53984 0.56 0.57605 0.0
H298 H 0.59876 0.58076 0.55611 0.0
H299 H 0.61366 0.55223 0.49595 0.0
H300 H 0.56968 0.5029 0.45519 0.0
C301 C 0.51016 0.45626 0.43122 0.0
C302 C 0.50083 0.4726 0.46817 0.0
C303 C 0.52692 0.50094 0.4924 0.0
C304 C 0.51837 0.51715 0.52745 0.0
C305 C 0.54487 0.54623 0.54983 0.0
C306 C 0.57884 0.55854 0.53856 0.0
C307 C 0.58723 0.5425 0.50468 0.0
C308 C 0.5617 0.51412 0.48163 0.0
H309 H 0.49131 0.5068 0.63121 0.0
C310 C 0.47919 0.52076 0.61868 0.0
H311 H 0.46102 0.5352 0.56055 0.0
H312 H 0.44489 0.41698 0.43109 0.0
H313 H 0.38592 0.39587 0.45146 0.0
H314 H 0.371 0.42422 0.51185 0.0
H315 H 0.41498 0.47375 0.55241 0.0
C316 C 0.4743 0.52242 0.57318 0.0
C317 C 0.48374 0.50458 0.53861 0.0
C318 C 0.45769 0.47592 0.51484 0.0
C319 C 0.46625 0.45977 0.47973 0.0
C320 C 0.43978 0.43065 0.4574 0.0
C321 C 0.40582 0.41815 0.46892 0.0
C322 C 0.39743 0.4341 0.50293 0.0
C323 C 0.42293 0.46259 0.52583 0.0
H324 H 0.06847 0.52937 0.93775 0.0
C325 C 0.05468 0.52283 0.9051 0.0
H326 H 0.00608 0.49887 0.87334 0.0
H327 H 0.94165 0.41151 0.05655 0.0
H328 H 0.93692 0.36768 0.00419 0.0
H329 H 0.96183 0.38264 0.92638 0.0
H330 H 0.99175 0.44158 0.90054 0.0
C331 C 0.02059 0.50665 0.90535 0.0
C332 C 0.00221 0.4974 0.95003 0.0
C333 C 0.98412 0.46278 0.96411 0.0
C334 C 0.96928 0.45411 0.00868 0.0
C335 C 0.95255 0.41945 0.0226 0.0
C336 C 0.94988 0.39405 0.993 0.0
C337 C 0.96396 0.40248 0.94923 0.0
C338 C 0.98104 0.43641 0.93482 0.0
H339 H 0.90576 0.44774 0.05335 0.0
C340 C 0.92028 0.4552 0.0854 0.0
H341 H 0.96946 0.47994 0.1153 0.0
H342 H 0.03202 0.56587 0.93179 0.0
H343 H 0.03661 0.60971 0.984 0.0
H344 H 0.01181 0.5948 0.06187 0.0
H345 H 0.98215 0.53596 0.08789 0.0
C346 C 0.95433 0.47106 0.08387 0.0
C347 C 0.97195 0.48006 0.03863 0.0
C348 C 0.98986 0.51467 0.02442 0.0
C349 C 0.00465 0.52332 0.97984 0.0
C350 C 0.02121 0.55796 0.9658 0.0
C351 C 0.02379 0.58336 0.99529 0.0
C352 C 0.00978 0.57497 0.0391 0.0
C353 C 0.99285 0.54106 0.05361 0.0
H354 H 0.50695 0.01818 0.37502 0.0
C355 C 0.51507 0.04425 0.38521 0.0
H356 H 0.52386 0.07795 0.44059 0.0
H357 H 0.42001 0.92846 0.53811 0.0
H358 H 0.37685 0.92537 0.48552 0.0
H359 H 0.39164 0.9685 0.42441 0.0
H360 H 0.44971 0.01487 0.41538 0.0
C361 C 0.5145 0.05173 0.42992 0.0
C362 C 0.50513 0.02568 0.46677 0.0
C363 C 0.47098 -0.00113 0.47169 0.0
C364 C 0.46241 0.97424 0.50726 0.0
C365 C 0.42806 0.94778 0.51155 0.0
C366 C 0.40296 0.94576 0.48169 0.0
C367 C 0.41129 0.97002 0.44727 0.0
C368 C 0.44481 0.99641 0.44229 0.0
H369 H 0.48715 0.98367 0.63045 0.0
C370 C 0.47854 0.95761 0.61966 0.0
H371 H 0.46882 0.92424 0.56355 0.0
H372 H 0.57292 0.07415 0.46708 0.0
H373 H 0.61614 0.07719 0.51952 0.0
H374 H 0.60144 0.03389 0.58037 0.0
H375 H 0.54342 0.98746 0.58934 0.0
C376 C 0.47855 0.95043 0.57469 0.0
C377 C 0.48789 0.97675 0.53822 0.0
C378 C 0.52204 0.00358 0.53331 0.0
C379 C 0.53059 0.02825 0.49779 0.0
C380 C 0.56492 0.05477 0.49354 0.0
C381 C 0.59004 0.05677 0.52332 0.0
C382 C 0.58176 0.03241 0.5576 0.0
C383 C 0.54826 0.00599 0.56256 0.0
H384 H 0.4515 0.54361 0.94259 0.0
C385 C 0.46075 0.53858 0.91078 0.0
H386 H 0.49028 0.51936 0.88169 0.0
H387 H 0.57106 0.54323 0.07157 0.0
H388 H 0.61367 0.59026 0.0262 0.0
H389 H 0.59955 0.60304 0.94913 0.0
H390 H 0.54268 0.56893 0.91703 0.0
C391 C 0.47966 0.52351 0.9128 0.0
C392 C 0.48848 0.51444 0.95814 0.0
C393 C 0.52199 0.53418 0.97595 0.0
C394 C 0.53026 0.5265 0.02009 0.0
C395 C 0.56363 0.54738 0.03773 0.0
C396 C 0.58828 0.5746 0.01218 0.0
C397 C 0.58032 0.58183 0.96881 0.0
C398 C 0.54758 0.56202 0.95078 0.0
H399 H 0.54372 0.47096 0.05742 0.0
C400 C 0.53379 0.47399 0.08998 0.0
H401 H 0.50285 0.49042 0.1219 0.0
H402 H 0.4223 0.47027 0.93292 0.0
H403 H 0.37967 0.42343 0.97843 0.0
H404 H 0.39384 0.41056 0.05539 0.0
H405 H 0.45078 0.44439 0.08724 0.0
C406 C 0.51433 0.48848 0.09015 0.0
C407 C 0.50514 0.49866 0.04591 0.0
C408 C 0.47153 0.47914 0.02831 0.0
C409 C 0.46325 0.48683 0.98418 0.0
C410 C 0.4298 0.46609 0.96669 0.0
C411 C 0.40511 0.43897 0.99234 0.0
C412 C 0.4131 0.4317 0.03564 0.0
C413 C 0.4459 0.45136 0.05352 0.0
H414 H 0.01604 0.50844 0.62068 0.0
C415 C 0.04234 0.52073 0.60932 0.0
H416 H 0.07562 0.53698 0.55235 0.0
H417 H 0.92894 0.42135 0.45693 0.0
H418 H 0.93372 0.37992 0.50467 0.0
H419 H 0.97957 0.39838 0.56272 0.0
H420 H 0.02071 0.45836 0.57366 0.0
C421 C 0.04937 0.52389 0.56399 0.0
C422 C 0.02213 0.51228 0.52825 0.0
C423 C -0.00143 0.477 0.52192 0.0
C424 C 0.9725 0.46632 0.48787 0.0
C425 C 0.94921 0.43094 0.48235 0.0
C426 C 0.95172 0.40684 0.50941 0.0
C427 C 0.97751 0.41724 0.54213 0.0
C428 C 0.00082 0.45183 0.5483 0.0
H429 H 0.97443 0.49218 0.36678 0.0
C430 C 0.94849 0.4809 0.37928 0.0
H431 H 0.91667 0.467 0.43766 0.0
H432 H 0.06379 0.58177 0.53064 0.0
H433 H 0.05932 0.62314 0.48237 0.0
H434 H 0.01375 0.60462 0.42387 0.0
H435 H 0.97252 0.54463 0.41309 0.0
C436 C 0.9426 0.47925 0.42486 0.0
C437 C 0.97049 0.49083 0.45955 0.0
C438 C 0.99426 0.52607 0.46553 0.0
C439 C 0.02028 0.53677 0.49968 0.0
C440 C 0.0436 0.57215 0.50511 0.0
C441 C 0.04127 0.59622 0.47773 0.0
C442 C 0.01564 0.58579 0.44476 0.0
C443 C 0.99224 0.5512 0.43874 0.0
loop_
_geom_bond_atom_site_label_1
_geom_bond_atom_site_label_2
_geom_bond_distance
_geom_bond_site_symmetry_2
_ccdc_geom_bond_type
O0 Cd1 2.223 . S
O0 C8 1.315 . S
Cd1 O0 2.223 . S
Cd1 O4 2.297 . S
Cd1 O5 2.439 . S
Cd1 O11 2.240 . S
Cd2 O3 2.240 . S
Cd2 O10 2.223 . S
Cd2 O12 2.297 . S
Cd2 O13 2.439 . S
O3 Cd2 2.240 . S
O3 C8 1.279 . S
O4 Cd1 2.297 . S
O4 C6 1.247 . S
O5 Cd1 2.439 . S
O5 C6 1.208 . S
C6 O4 1.247 . S
C6 O5 1.208 . S
C7 O12 1.247 . S
C7 O13 1.208 . S
C8 O0 1.315 . S
C8 O3 1.279 . S
C9 O10 1.315 . S
C9 O11 1.279 . S
O10 Cd2 2.223 . S
O10 C9 1.315 . S
O11 Cd1 2.240 . S
O11 C9 1.279 . S
O12 Cd2 2.297 . S
O12 C7 1.247 . S
O13 Cd2 2.439 . S
O13 C7 1.208 . S
O14 Cd15 2.223 . S
O14 C22 1.315 . S
Cd15 O14 2.223 . S
Cd15 O18 2.297 . S
Cd15 O19 2.439 . S
Cd15 O25 2.240 . S
Cd16 O17 2.240 . S
Cd16 O24 2.223 . S
Cd16 O26 2.297 . S
Cd16 O27 2.439 . S
O17 Cd16 2.240 . S
O17 C22 1.279 . S
O18 Cd15 2.297 . S
O18 C20 1.247 . S
O19 Cd15 2.439 . S
O19 C20 1.208 . S
C20 O18 1.247 . S
C20 O19 1.208 . S
C21 O26 1.247 . S
C21 O27 1.208 . S
C22 O14 1.315 . S
C22 O17 1.279 . S
C23 O24 1.315 . S
C23 O25 1.279 . S
O24 Cd16 2.223 . S
O24 C23 1.315 . S
O25 Cd15 2.240 . S
O25 C23 1.279 . S
O26 Cd16 2.297 . S
O26 C21 1.247 . S
O27 Cd16 2.439 . S
O27 C21 1.208 . S
O28 Cd29 2.223 . S
O28 C36 1.315 . S
Cd29 O28 2.223 . S
Cd29 O32 2.297 . S
Cd29 O33 2.439 . S
Cd29 O39 2.240 . S
Cd30 O31 2.240 . S
Cd30 O38 2.223 . S
Cd30 O40 2.297 . S
Cd30 O41 2.439 . S
O31 Cd30 2.240 . S
O31 C36 1.279 . S
O32 Cd29 2.297 . S
O32 C34 1.247 . S
O33 Cd29 2.439 . S
O33 C34 1.208 . S
C34 O32 1.247 . S
C34 O33 1.208 . S
C35 O40 1.247 . S
C35 O41 1.208 . S
C36 O28 1.315 . S
C36 O31 1.279 . S
C37 O38 1.315 . S
C37 O39 1.279 . S
O38 Cd30 2.223 . S
O38 C37 1.315 . S
O39 Cd29 2.240 . S
O39 C37 1.279 . S
O40 Cd30 2.297 . S
O40 C35 1.247 . S
O41 Cd30 2.439 . S
O41 C35 1.208 . S
O42 Cd43 2.223 . S
O42 C50 1.315 . S
Cd43 O42 2.223 . S
Cd43 O46 2.297 . S
Cd43 O47 2.439 . S
Cd43 O53 2.240 . S
Cd44 O45 2.240 . S
Cd44 O52 2.223 . S
Cd44 O54 2.297 . S
Cd44 O55 2.439 . S
O45 Cd44 2.240 . S
O45 C50 1.279 . S
O46 Cd43 2.297 . S
O46 C48 1.247 . S
O47 Cd43 2.439 . S
O47 C48 1.208 . S
C48 O46 1.247 . S
C48 O47 1.208 . S
C49 O54 1.247 . S
C49 O55 1.208 . S
C50 O42 1.315 . S
C50 O45 1.279 . S
C51 O52 1.315 . S
C51 O53 1.279 . S
O52 Cd44 2.223 . S
O52 C51 1.315 . S
O53 Cd43 2.240 . S
O53 C51 1.279 . S
O54 Cd44 2.297 . S
O54 C49 1.247 . S
O55 Cd44 2.439 . S
O55 C49 1.208 . S
O56 Cd57 2.223 . S
O56 C64 1.315 . S
Cd57 O56 2.223 . S
Cd57 O60 2.297 . S
Cd57 O61 2.439 . S
Cd57 O67 2.240 . S
Cd58 O59 2.240 . S
Cd58 O66 2.223 . S
Cd58 O68 2.297 . S
Cd58 O69 2.439 . S
O59 Cd58 2.240 . S
O59 C64 1.279 . S
O60 Cd57 2.297 . S
O60 C62 1.247 . S
O61 Cd57 2.439 . S
O61 C62 1.208 . S
C62 O60 1.247 . S
C62 O61 1.208 . S
C63 O68 1.247 . S
C63 O69 1.208 . S
C64 O56 1.315 . S
C64 O59 1.279 . S
C65 O66 1.315 . S
C65 O67 1.279 . S
O66 Cd58 2.223 . S
O66 C65 1.315 . S
O67 Cd57 2.240 . S
O67 C65 1.279 . S
O68 Cd58 2.297 . S
O68 C63 1.247 . S
O69 Cd58 2.439 . S
O69 C63 1.208 . S
O70 Cd71 2.223 . S
O70 C78 1.315 . S
Cd71 O70 2.223 . S
Cd71 O74 2.297 . S
Cd71 O75 2.439 . S
Cd71 O81 2.240 . S
Cd72 O73 2.240 . S
Cd72 O80 2.223 . S
Cd72 O82 2.297 . S
Cd72 O83 2.439 . S
O73 Cd72 2.240 . S
O73 C78 1.279 . S
O74 Cd71 2.297 . S
O74 C76 1.247 . S
O75 Cd71 2.439 . S
O75 C76 1.208 . S
C76 O74 1.247 . S
C76 O75 1.208 . S
C77 O82 1.247 . S
C77 O83 1.208 . S
C78 O70 1.315 . S
C78 O73 1.279 . S
C79 O80 1.315 . S
C79 O81 1.279 . S
O80 Cd72 2.223 . S
O80 C79 1.315 . S
O81 Cd71 2.240 . S
O81 C79 1.279 . S
O82 Cd72 2.297 . S
O82 C77 1.247 . S
O83 Cd72 2.439 . S
O83 C77 1.208 . S
H84 C85 0.951 . S
C85 H84 0.951 . S
C85 C91 1.265 . S
H86 C91 0.950 . S
H87 C95 0.949 . S
H88 C96 0.950 . S
H89 C97 0.951 . S
H90 C98 0.951 . S
C91 C85 1.265 . S
C91 H86 0.950 . S
C91 C92 1.478 . S
C92 C91 1.478 . S
C92 C93 1.397 . S
C92 C109 1.394 . S
C93 C92 1.397 . S
C93 C94 1.438 . S
C93 C98 1.429 . S
C94 C93 1.438 . S
C94 C95 1.428 . S
C94 C107 1.394 . S
C95 H87 0.949 . S
C95 C94 1.428 . S
C95 C96 1.345 . S
C96 H88 0.950 . S
C96 C95 1.345 . S
C96 C97 1.424 . S
C97 H89 0.951 . S
C97 C96 1.424 . S
C97 C98 1.347 . S
C98 H90 0.951 . S
C98 C93 1.429 . S
C98 C97 1.347 . S
H99 C100 0.951 . S
C100 H99 0.951 . S
C100 C106 1.265 . S
H101 C106 0.950 . S
H102 C110 0.949 . S
H103 C111 0.950 . S
H104 C112 0.951 . S
H105 C113 0.951 . S
C106 C100 1.265 . S
C106 H101 0.950 . S
C106 C107 1.478 . S
C107 C94 1.394 . S
C107 C106 1.478 . S
C107 C108 1.397 . S
C108 C107 1.397 . S
C108 C109 1.438 . S
C108 C113 1.429 . S
C109 C92 1.394 . S
C109 C108 1.438 . S
C109 C110 1.428 . S
C110 H102 0.949 . S
C110 C109 1.428 . S
C110 C111 1.345 . S
C111 H103 0.950 . S
C111 C110 1.345 . S
C111 C112 1.424 . S
C112 H104 0.951 . S
C112 C111 1.424 . S
C112 C113 1.347 . S
C113 H105 0.951 . S
C113 C108 1.429 . S
C113 C112 1.347 . S
H114 C115 0.951 . S
C115 H114 0.951 . S
C115 C121 1.265 . S
H116 C121 0.950 . S
H117 C125 0.949 . S
H118 C126 0.950 . S
H119 C127 0.951 . S
H120 C128 0.951 . S
C121 C115 1.265 . S
C121 H116 0.950 . S
C121 C122 1.478 . S
C122 C121 1.478 . S
C122 C123 1.397 . S
C122 C139 1.394 . S
C123 C122 1.397 . S
C123 C124 1.438 . S
C123 C128 1.429 . S
C124 C123 1.438 . S
C124 C125 1.428 . S
C124 C137 1.394 . S
C125 H117 0.949 . S
C125 C124 1.428 . S
C125 C126 1.345 . S
C126 H118 0.950 . S
C126 C125 1.345 . S
C126 C127 1.424 . S
C127 H119 0.951 . S
C127 C126 1.424 . S
C127 C128 1.347 . S
C128 H120 0.951 . S
C128 C123 1.429 . S
C128 C127 1.347 . S
H129 C130 0.951 . S
C130 H129 0.951 . S
C130 C136 1.265 . S
H131 C136 0.950 . S
H132 C140 0.949 . S
H133 C141 0.950 . S
H134 C142 0.951 . S
H135 C143 0.951 . S
C136 C130 1.265 . S
C136 H131 0.950 . S
C136 C137 1.478 . S
C137 C124 1.394 . S
C137 C136 1.478 . S
C137 C138 1.397 . S
C138 C137 1.397 . S
C138 C139 1.438 . S
C138 C143 1.429 . S
C139 C122 1.394 . S
C139 C138 1.438 . S
C139 C140 1.428 . S
C140 H132 0.949 . S
C140 C139 1.428 . S
C140 C141 1.345 . S
C141 H133 0.950 . S
C141 C140 1.345 . S
C141 C142 1.424 . S
C142 H134 0.951 . S
C142 C141 1.424 . S
C142 C143 1.347 . S
C143 H135 0.951 . S
C143 C138 1.429 . S
C143 C142 1.347 . S
H144 C145 0.951 . S
C145 H144 0.951 . S
C145 C151 1.265 . S
H146 C151 0.950 . S
H147 C155 0.949 . S
H148 C156 0.950 . S
H149 C157 0.951 . S
H150 C158 0.951 . S
C151 C145 1.265 . S
C151 H146 0.950 . S
C151 C152 1.478 . S
C152 C151 1.478 . S
C152 C153 1.397 . S
C152 C169 1.394 . S
C153 C152 1.397 . S
C153 C154 1.438 . S
C153 C158 1.429 . S
C154 C153 1.438 . S
C154 C155 1.428 . S
C154 C167 1.394 . S
C155 H147 0.949 . S
C155 C154 1.428 . S
C155 C156 1.345 . S
C156 H148 0.950 . S
C156 C155 1.345 . S
C156 C157 1.424 . S
C157 H149 0.951 . S
C157 C156 1.424 . S
C157 C158 1.347 . S
C158 H150 0.951 . S
C158 C153 1.429 . S
C158 C157 1.347 . S
H159 C160 0.951 . S
C160 H159 0.951 . S
C160 C166 1.265 . S
H161 C166 0.950 . S
H162 C170 0.949 . S
H163 C171 0.950 . S
H164 C172 0.951 . S
H165 C173 0.951 . S
C166 C160 1.265 . S
C166 H161 0.950 . S
C166 C167 1.478 . S
C167 C154 1.394 . S
C167 C166 1.478 . S
C167 C168 1.397 . S
C168 C167 1.397 . S
C168 C169 1.438 . S
C168 C173 1.429 . S
C169 C152 1.394 . S
C169 C168 1.438 . S
C169 C170 1.428 . S
C170 H162 0.949 . S
C170 C169 1.428 . S
C170 C171 1.345 . S
C171 H163 0.950 . S
C171 C170 1.345 . S
C171 C172 1.424 . S
C172 H164 0.951 . S
C172 C171 1.424 . S
C172 C173 1.347 . S
C173 H165 0.951 . S
C173 C168 1.429 . S
C173 C172 1.347 . S
H174 C175 0.951 . S
C175 H174 0.951 . S
C175 C181 1.265 . S
H176 C181 0.950 . S
H177 C185 0.949 . S
H178 C186 0.950 . S
H179 C187 0.951 . S
H180 C188 0.951 . S
C181 C175 1.265 . S
C181 H176 0.950 . S
C181 C182 1.478 . S
C182 C181 1.478 . S
C182 C183 1.397 . S
C182 C199 1.394 . S
C183 C182 1.397 . S
C183 C184 1.438 . S
C183 C188 1.429 . S
C184 C183 1.438 . S
C184 C185 1.428 . S
C184 C197 1.394 . S
C185 H177 0.949 . S
C185 C184 1.428 . S
C185 C186 1.345 . S
C186 H178 0.950 . S
C186 C185 1.345 . S
C186 C187 1.424 . S
C187 H179 0.951 . S
C187 C186 1.424 . S
C187 C188 1.347 . S
C188 H180 0.951 . S
C188 C183 1.429 . S
C188 C187 1.347 . S
H189 C190 0.951 . S
C190 H189 0.951 . S
C190 C196 1.265 . S
H191 C196 0.950 . S
H192 C200 0.949 . S
H193 C201 0.950 . S
H194 C202 0.951 . S
H195 C203 0.951 . S
C196 C190 1.265 . S
C196 H191 0.950 . S
C196 C197 1.478 . S
C197 C184 1.394 . S
C197 C196 1.478 . S
C197 C198 1.397 . S
C198 C197 1.397 . S
C198 C199 1.438 . S
C198 C203 1.429 . S
C199 C182 1.394 . S
C199 C198 1.438 . S
C199 C200 1.428 . S
C200 H192 0.949 . S
C200 C199 1.428 . S
C200 C201 1.345 . S
C201 H193 0.950 . S
C201 C200 1.345 . S
C201 C202 1.424 . S
C202 H194 0.951 . S
C202 C201 1.424 . S
C202 C203 1.347 . S
C203 H195 0.951 . S
C203 C198 1.429 . S
C203 C202 1.347 . S
H204 C205 0.951 . S
C205 H204 0.951 . S
C205 C211 1.265 . S
H206 C211 0.950 . S
H207 C215 0.949 . S
H208 C216 0.950 . S
H209 C217 0.951 . S
H210 C218 0.951 . S
C211 C205 1.265 . S
C211 H206 0.950 . S
C211 C212 1.478 . S
C212 C211 1.478 . S
C212 C213 1.397 . S
C212 C229 1.394 . S
C213 C212 1.397 . S
C213 C214 1.438 . S
C213 C218 1.429 . S
C214 C213 1.438 . S
C214 C215 1.428 . S
C214 C227 1.394 . S
C215 H207 0.949 . S
C215 C214 1.428 . S
C215 C216 1.345 . S
C216 H208 0.950 . S
C216 C215 1.345 . S
C216 C217 1.424 . S
C217 H209 0.951 . S
C217 C216 1.424 . S
C217 C218 1.347 . S
C218 H210 0.951 . S
C218 C213 1.429 . S
C218 C217 1.347 . S
H219 C220 0.951 . S
C220 H219 0.951 . S
C220 C226 1.265 . S
H221 C226 0.950 . S
H222 C230 0.949 . S
H223 C231 0.950 . S
H224 C232 0.951 . S
H225 C233 0.951 . S
C226 C220 1.265 . S
C226 H221 0.950 . S
C226 C227 1.478 . S
C227 C214 1.394 . S
C227 C226 1.478 . S
C227 C228 1.397 . S
C228 C227 1.397 . S
C228 C229 1.438 . S
C228 C233 1.429 . S
C229 C212 1.394 . S
C229 C228 1.438 . S
C229 C230 1.428 . S
C230 H222 0.949 . S
C230 C229 1.428 . S
C230 C231 1.345 . S
C231 H223 0.950 . S
C231 C230 1.345 . S
C231 C232 1.424 . S
C232 H224 0.951 . S
C232 C231 1.424 . S
C232 C233 1.347 . S
C233 H225 0.951 . S
C233 C228 1.429 . S
C233 C232 1.347 . S
H234 C235 0.951 . S
C235 H234 0.951 . S
C235 C241 1.265 . S
H236 C241 0.950 . S
H237 C245 0.949 . S
H238 C246 0.950 . S
H239 C247 0.951 . S
H240 C248 0.951 . S
C241 C235 1.265 . S
C241 H236 0.950 . S
C241 C242 1.478 . S
C242 C241 1.478 . S
C242 C243 1.397 . S
C242 C259 1.394 . S
C243 C242 1.397 . S
C243 C244 1.438 . S
C243 C248 1.429 . S
C244 C243 1.438 . S
C244 C245 1.428 . S
C244 C257 1.394 . S
C245 H237 0.949 . S
C245 C244 1.428 . S
C245 C246 1.345 . S
C246 H238 0.950 . S
C246 C245 1.345 . S
C246 C247 1.424 . S
C247 H239 0.951 . S
C247 C246 1.424 . S
C247 C248 1.347 . S
C248 H240 0.951 . S
C248 C243 1.429 . S
C248 C247 1.347 . S
H249 C250 0.951 . S
C250 H249 0.951 . S
C250 C256 1.265 . S
H251 C256 0.950 . S
H252 C260 0.949 . S
H253 C261 0.950 . S
H254 C262 0.951 . S
H255 C263 0.951 . S
C256 C250 1.265 . S
C256 H251 0.950 . S
C256 C257 1.478 . S
C257 C244 1.394 . S
C257 C256 1.478 . S
C257 C258 1.397 . S
C258 C257 1.397 . S
C258 C259 1.438 . S
C258 C263 1.429 . S
C259 C242 1.394 . S
C259 C258 1.438 . S
C259 C260 1.428 . S
C260 H252 0.949 . S
C260 C259 1.428 . S
C260 C261 1.345 . S
C261 H253 0.950 . S
C261 C260 1.345 . S
C261 C262 1.424 . S
C262 H254 0.951 . S
C262 C261 1.424 . S
C262 C263 1.347 . S
C263 H255 0.951 . S
C263 C258 1.429 . S
C263 C262 1.347 . S
H264 C265 0.951 . S
C265 H264 0.951 . S
C265 C271 1.265 . S
H266 C271 0.950 . S
H267 C275 0.949 . S
H268 C276 0.950 . S
H269 C277 0.951 1_556 S
H270 C278 0.951 . S
C271 C265 1.265 . S
C271 H266 0.950 . S
C271 C272 1.478 . S
C272 C271 1.478 . S
C272 C273 1.397 . S
C272 C289 1.394 . S
C273 C272 1.397 . S
C273 C274 1.438 1_566 S
C273 C278 1.429 . S
C274 C273 1.438 1_544 S
C274 C275 1.428 . S
C274 C287 1.394 . S
C275 H267 0.949 . S
C275 C274 1.428 . S
C275 C276 1.345 1_545 S
C276 H268 0.950 . S
C276 C275 1.345 1_565 S
C276 C277 1.424 . S
C277 H269 0.951 1_554 S
C277 C276 1.424 . S
C277 C278 1.347 1_554 S
C278 H270 0.951 . S
C278 C273 1.429 . S
C278 C277 1.347 1_556 S
H279 C280 0.951 . S
C280 H279 0.951 . S
C280 C286 1.265 . S
H281 C286 0.950 . S
H282 C290 0.949 . S
H283 C291 0.950 . S
H284 C292 0.951 1_554 S
H285 C293 0.951 . S
C286 C280 1.265 . S
C286 H281 0.950 . S
C286 C287 1.478 . S
C287 C274 1.394 . S
C287 C286 1.478 . S
C287 C288 1.397 . S
C288 C287 1.397 . S
C288 C289 1.438 1_544 S
C288 C293 1.429 . S
C289 C272 1.394 . S
C289 C288 1.438 1_566 S
C289 C290 1.428 . S
C290 H282 0.949 . S
C290 C289 1.428 . S
C290 C291 1.345 1_565 S
C291 H283 0.950 . S
C291 C290 1.345 1_545 S
C291 C292 1.424 . S
C292 H284 0.951 1_556 S
C292 C291 1.424 . S
C292 C293 1.347 1_556 S
C293 H285 0.951 . S
C293 C288 1.429 . S
C293 C292 1.347 1_554 S
H294 C295 0.951 . S
C295 H294 0.951 . S
C295 C301 1.265 . S
H296 C301 0.950 . S
H297 C305 0.949 . S
H298 C306 0.950 . S
H299 C307 0.951 . S
H300 C308 0.951 . S
C301 C295 1.265 . S
C301 H296 0.950 . S
C301 C302 1.478 . S
C302 C301 1.478 . S
C302 C303 1.397 . S
C302 C319 1.394 . S
C303 C302 1.397 . S
C303 C304 1.438 . S
C303 C308 1.429 . S
C304 C303 1.438 . S
C304 C305 1.428 . S
C304 C317 1.394 . S
C305 H297 0.949 . S
C305 C304 1.428 . S
C305 C306 1.345 . S
C306 H298 0.950 . S
C306 C305 1.345 . S
C306 C307 1.424 . S
C307 H299 0.951 . S
C307 C306 1.424 . S
C307 C308 1.347 . S
C308 H300 0.951 . S
C308 C303 1.429 . S
C308 C307 1.347 . S
H309 C310 0.951 . S
C310 H309 0.951 . S
C310 C316 1.265 . S
H311 C316 0.950 . S
H312 C320 0.949 . S
H313 C321 0.950 . S
H314 C322 0.951 . S
H315 C323 0.951 . S
C316 C310 1.265 . S
C316 H311 0.950 . S
C316 C317 1.478 . S
C317 C304 1.394 . S
C317 C316 1.478 . S
C317 C318 1.397 . S
C318 C317 1.397 . S
C318 C319 1.438 . S
C318 C323 1.429 . S
C319 C302 1.394 . S
C319 C318 1.438 . S
C319 C320 1.428 . S
C320 H312 0.949 . S
C320 C319 1.428 . S
C320 C321 1.345 . S
C321 H313 0.950 . S
C321 C320 1.345 . S
C321 C322 1.424 . S
C322 H314 0.951 . S
C322 C321 1.424 . S
C322 C323 1.347 . S
C323 H315 0.951 . S
C323 C318 1.429 . S
C323 C322 1.347 . S
H324 C325 0.951 . S
C325 H324 0.951 . S
C325 C331 1.265 . S
H326 C331 0.950 . S
H327 C335 0.949 . S
H328 C336 0.950 . S
H329 C337 0.951 . S
H330 C338 0.951 . S
C331 C325 1.265 . S
C331 H326 0.950 . S
C331 C332 1.478 . S
C332 C331 1.478 . S
C332 C333 1.397 1_455 S
C332 C349 1.394 . S
C333 C332 1.397 1_655 S
C333 C334 1.438 1_556 S
C333 C338 1.429 . S
C334 C333 1.438 1_554 S
C334 C335 1.428 . S
C334 C347 1.394 . S
C335 H327 0.949 . S
C335 C334 1.428 . S
C335 C336 1.345 1_554 S
C336 H328 0.950 . S
C336 C335 1.345 1_556 S
C336 C337 1.424 . S
C337 H329 0.951 . S
C337 C336 1.424 . S
C337 C338 1.347 . S
C338 H330 0.951 . S
C338 C333 1.429 . S
C338 C337 1.347 . S
H339 C340 0.951 . S
C340 H339 0.951 . S
C340 C346 1.265 . S
H341 C346 0.950 . S
H342 C350 0.949 . S
H343 C351 0.950 . S
H344 C352 0.951 . S
H345 C353 0.951 . S
C346 C340 1.265 . S
C346 H341 0.950 . S
C346 C347 1.478 . S
C347 C334 1.394 . S
C347 C346 1.478 . S
C347 C348 1.397 1_655 S
C348 C347 1.397 1_455 S
C348 C349 1.438 1_554 S
C348 C353 1.429 . S
C349 C332 1.394 . S
C349 C348 1.438 1_556 S
C349 C350 1.428 . S
C350 H342 0.949 . S
C350 C349 1.428 . S
C350 C351 1.345 1_556 S
C351 H343 0.950 . S
C351 C350 1.345 1_554 S
C351 C352 1.424 . S
C352 H344 0.951 . S
C352 C351 1.424 . S
C352 C353 1.347 . S
C353 H345 0.951 . S
C353 C348 1.429 . S
C353 C352 1.347 . S
H354 C355 0.951 . S
C355 H354 0.951 . S
C355 C361 1.265 . S
H356 C361 0.950 . S
H357 C365 0.949 . S
H358 C366 0.950 . S
H359 C367 0.951 . S
H360 C368 0.951 . S
C361 C355 1.265 . S
C361 H356 0.950 . S
C361 C362 1.478 . S
C362 C361 1.478 . S
C362 C363 1.397 1_545 S
C362 C379 1.394 . S
C363 C362 1.397 1_565 S
C363 C364 1.438 . S
C363 C368 1.429 . S
C364 C363 1.438 . S
C364 C365 1.428 . S
C364 C377 1.394 . S
C365 H357 0.949 . S
C365 C364 1.428 . S
C365 C366 1.345 . S
C366 H358 0.950 . S
C366 C365 1.345 . S
C366 C367 1.424 . S
C367 H359 0.951 . S
C367 C366 1.424 . S
C367 C368 1.347 . S
C368 H360 0.951 . S
C368 C363 1.429 . S
C368 C367 1.347 . S
H369 C370 0.951 . S
C370 H369 0.951 . S
C370 C376 1.265 . S
H371 C376 0.950 . S
H372 C380 0.949 . S
H373 C381 0.950 . S
H374 C382 0.951 . S
H375 C383 0.951 . S
C376 C370 1.265 . S
C376 H371 0.950 . S
C376 C377 1.478 . S
C377 C364 1.394 . S
C377 C376 1.478 . S
C377 C378 1.397 1_565 S
C378 C377 1.397 1_545 S
C378 C379 1.438 . S
C378 C383 1.429 . S
C379 C362 1.394 . S
C379 C378 1.438 . S
C379 C380 1.428 . S
C380 H372 0.949 . S
C380 C379 1.428 . S
C380 C381 1.345 . S
C381 H373 0.950 . S
C381 C380 1.345 . S
C381 C382 1.424 . S
C382 H374 0.951 . S
C382 C381 1.424 . S
C382 C383 1.347 . S
C383 H375 0.951 . S
C383 C378 1.429 . S
C383 C382 1.347 . S
H384 C385 0.951 . S
C385 H384 0.951 . S
C385 C391 1.265 . S
H386 C391 0.950 . S
H387 C395 0.949 . S
H388 C396 0.950 . S
H389 C397 0.951 . S
H390 C398 0.951 . S
C391 C385 1.265 . S
C391 H386 0.950 . S
C391 C392 1.478 . S
C392 C391 1.478 . S
C392 C393 1.397 . S
C392 C409 1.394 . S
C393 C392 1.397 . S
C393 C394 1.438 1_556 S
C393 C398 1.429 . S
C394 C393 1.438 1_554 S
C394 C395 1.428 . S
C394 C407 1.394 . S
C395 H387 0.949 . S
C395 C394 1.428 . S
C395 C396 1.345 . S
C396 H388 0.950 . S
C396 C395 1.345 . S
C396 C397 1.424 1_554 S
C397 H389 0.951 . S
C397 C396 1.424 1_556 S
C397 C398 1.347 . S
C398 H390 0.951 . S
C398 C393 1.429 . S
C398 C397 1.347 . S
H399 C400 0.951 . S
C400 H399 0.951 . S
C400 C406 1.265 . S
H401 C406 0.950 . S
H402 C410 0.949 . S
H403 C411 0.950 . S
H404 C412 0.951 . S
H405 C413 0.951 . S
C406 C400 1.265 . S
C406 H401 0.950 . S
C406 C407 1.478 . S
C407 C394 1.394 . S
C407 C406 1.478 . S
C407 C408 1.397 . S
C408 C407 1.397 . S
C408 C409 1.438 1_554 S
C408 C413 1.429 . S
C409 C392 1.394 . S
C409 C408 1.438 1_556 S
C409 C410 1.428 . S
C410 H402 0.949 . S
C410 C409 1.428 . S
C410 C411 1.345 . S
C411 H403 0.950 . S
C411 C410 1.345 . S
C411 C412 1.424 1_556 S
C412 H404 0.951 . S
C412 C411 1.424 1_554 S
C412 C413 1.347 . S
C413 H405 0.951 . S
C413 C408 1.429 . S
C413 C412 1.347 . S
H414 C415 0.951 . S
C415 H414 0.951 . S
C415 C421 1.265 . S
H416 C421 0.950 . S
H417 C425 0.949 . S
H418 C426 0.950 . S
H419 C427 0.951 . S
H420 C428 0.951 . S
C421 C415 1.265 . S
C421 H416 0.950 . S
C421 C422 1.478 . S
C422 C421 1.478 . S
C422 C423 1.397 1_455 S
C422 C439 1.394 . S
C423 C422 1.397 1_655 S
C423 C424 1.438 . S
C423 C428 1.429 . S
C424 C423 1.438 . S
C424 C425 1.428 . S
C424 C437 1.394 . S
C425 H417 0.949 . S
C425 C424 1.428 . S
C425 C426 1.345 . S
C426 H418 0.950 . S
C426 C425 1.345 . S
C426 C427 1.424 . S
C427 H419 0.951 . S
C427 C426 1.424 . S
C427 C428 1.347 . S
C428 H420 0.951 . S
C428 C423 1.429 . S
C428 C427 1.347 . S
H429 C430 0.951 . S
C430 H429 0.951 . S
C430 C436 1.265 . S
H431 C436 0.950 . S
H432 C440 0.949 . S
H433 C441 0.950 . S
H434 C442 0.951 . S
H435 C443 0.951 . S
C436 C430 1.265 . S
C436 H431 0.950 . S
C436 C437 1.478 . S
C437 C424 1.394 . S
C437 C436 1.478 . S
C437 C438 1.397 1_655 S
C438 C437 1.397 1_455 S
C438 C439 1.438 . S
C438 C443 1.429 . S
C439 C422 1.394 . S
C439 C438 1.438 . S
C439 C440 1.428 . S
C440 H432 0.949 . S
C440 C439 1.428 . S
C440 C441 1.345 . S
C441 H433 0.950 . S
C441 C440 1.345 . S
C441 C442 1.424 . S
C442 H434 0.951 . S
C442 C441 1.424 . S
C442 C443 1.347 . S
C443 H435 0.951 . S
C443 C438 1.429 . S
C443 C442 1.347 . S
C85 C9 1.247 . S
C100 C64 1.305 . S
C115 C23 1.293 . S
C130 C78 1.278 . S
C145 C8 1.306 . S
C160 C36 1.250 . S
C175 C50 1.246 . S
C190 C22 1.303 . S
C205 C65 1.270 . S
C220 C37 1.262 . S
C235 C51 1.245 . S
C250 C79 1.302 . S
C265 C49 1.384 . S
C280 C7 1.426 . S
C295 C62 1.478 . S
C310 C21 1.449 . S
C325 C76 1.435 . S
C340 C34 1.385 . S
C355 C6 1.475 . S
C370 C48 1.414 . S
C385 C20 1.386 . S
C400 C63 1.417 . S
C415 C77 1.465 . S
C430 C35 1.400 . S
