# Generated by pormake.
# Topology smm, (6)-cn, num edge types: 1
# Building blocks:
#     Node 0, Type 0, BuildingBlock: INOVEN_clean_sbu_0, # of connection points: 6
#     Node 1, Type 0, BuildingBlock: INOVEN_clean_sbu_0, # of connection points: 6
#     Node 2, Type 0, BuildingBlock: INOVEN_clean_sbu_0, # of connection points: 6
#     Node 3, Type 0, BuildingBlock: INOVEN_clean_sbu_0, # of connection points: 6
#     Node 4, Type 0, BuildingBlock: INOVEN_clean_sbu_0, # of connection points: 6
#     Node 5, Type 0, BuildingBlock: INOVEN_clean_sbu_0, # of connection points: 6
#     Node 6, Type 0, BuildingBlock: INOVEN_clean_sbu_0, # of connection points: 6
#     Node 7, Type 0, BuildingBlock: INOVEN_clean_sbu_0, # of connection points: 6
#     Node 8, Type 0, BuildingBlock: INOVEN_clean_sbu_0, # of connection points: 6
#     Edge 9, Type (0, 0), BuildingBlock: CIFDUS_clean_linker_0, # of connection points: 2
#     Edge 10, Type (0, 0), BuildingBlock: CIFDUS_clean_linker_0, # of connection points: 2
#     Edge 11, Type (0, 0), BuildingBlock: CIFDUS_clean_linker_0, # of connection points: 2
#     Edge 12, Type (0, 0), BuildingBlock: CIFDUS_clean_linker_0, # of connection points: 2
#     Edge 13, Type (0, 0), BuildingBlock: CIFDUS_clean_linker_0, # of connection points: 2
#     Edge 14, Type (0, 0), BuildingBlock: CIFDUS_clean_linker_0, # of connection points: 2
#     Edge 15, Type (0, 0), BuildingBlock: CIFDUS_clean_linker_0, # of connection points: 2
#     Edge 16, Type (0, 0), BuildingBlock: CIFDUS_clean_linker_0, # of connection points: 2
#     Edge 17, Type (0, 0), BuildingBlock: CIFDUS_clean_linker_0, # of connection points: 2
#     Edge 18, Type (0, 0), BuildingBlock: CIFDUS_clean_linker_0, # of connection points: 2
#     Edge 19, Type (0, 0), BuildingBlock: CIFDUS_clean_linker_0, # of connection points: 2
#     Edge 20, Type (0, 0), BuildingBlock: CIFDUS_clean_linker_0, # of connection points: 2
#     Edge 21, Type (0, 0), BuildingBlock: CIFDUS_clean_linker_0, # of connection points: 2
#     Edge 22, Type (0, 0), BuildingBlock: CIFDUS_clean_linker_0, # of connection points: 2
#     Edge 23, Type (0, 0), BuildingBlock: CIFDUS_clean_linker_0, # of connection points: 2
#     Edge 24, Type (0, 0), BuildingBlock: CIFDUS_clean_linker_0, # of connection points: 2
#     Edge 25, Type (0, 0), BuildingBlock: CIFDUS_clean_linker_0, # of connection points: 2
#     Edge 26, Type (0, 0), BuildingBlock: CIFDUS_clean_linker_0, # of connection points: 2
#     Edge 27, Type (0, 0), BuildingBlock: CIFDUS_clean_linker_0, # of connection points: 2
#     Edge 28, Type (0, 0), BuildingBlock: CIFDUS_clean_linker_0, # of connection points: 2
#     Edge 29, Type (0, 0), BuildingBlock: CIFDUS_clean_linker_0, # of connection points: 2
#     Edge 30, Type (0, 0), BuildingBlock: CIFDUS_clean_linker_0, # of connection points: 2
#     Edge 31, Type (0, 0), BuildingBlock: CIFDUS_clean_linker_0, # of connection points: 2
#     Edge 32, Type (0, 0), BuildingBlock: CIFDUS_clean_linker_0, # of connection points: 2
#     Edge 33, Type (0, 0), BuildingBlock: CIFDUS_clean_linker_0, # of connection points: 2
#     Edge 34, Type (0, 0), BuildingBlock: CIFDUS_clean_linker_0, # of connection points: 2
#     Edge 35, Type (0, 0), BuildingBlock: CIFDUS_clean_linker_0, # of connection points: 2
# Relax obj value: 0.044
# Max RMSD: 0.123
# Mean RMSD: 0.123
data_MOF--net-smm--node1-INOVEN_clean_sbu_0--edge1-CIFDUS_clean_linker_0
_symmetry_space_group_name_H-M    P1
_symmetry_Int_Tables_number       1
_symmetry_cell_setting            triclinic
loop_
_symmetry_equiv_pos_as_xyz
'x, y, z'
_cell_length_a     64.183861
_cell_length_b     64.315462
_cell_length_c     12.435438
_cell_angle_alpha  89.989341
_cell_angle_beta   90.208627
_cell_angle_gamma 120.04557
loop_
_atom_site_label
_atom_site_type_symbol
_atom_site_fract_x
_atom_site_fract_y
_atom_site_fract_z
_atom_type_partial_charge
Gd0 Gd 0.07293 0.23084 0.98251 0.0
Gd1 Gd 1.02748 0.18093 0.02356 0.0
C2 C 1.02077 0.22732 0.00675 0.0
C3 C 0.10528 0.27066 0.89632 0.0
C4 C 0.11277 0.29606 0.87733 0.0
C5 C 0.13671 0.31179 0.84866 0.0
C6 C 0.09659 0.30472 0.88302 0.0
C7 C 0.12852 0.34478 0.83088 0.0
C8 C 0.10441 0.32891 0.85986 0.0
C9 C 0.14451 0.33582 0.82549 0.0
C10 C 0.06148 0.21881 0.19017 0.0
C11 C 0.0811 0.18621 0.01866 0.0
C12 C 0.99413 0.13966 0.09442 0.0
C13 C 0.98346 0.11349 0.07725 0.0
C14 C 0.95832 0.09899 0.07814 0.0
C15 C 0.99755 0.10266 0.0608 0.0
C16 C 0.96125 0.06313 0.04586 0.0
C17 C 0.98654 0.07769 0.04555 0.0
C18 C 0.94735 0.07417 0.06265 0.0
C19 C 0.03998 0.19244 0.81593 0.0
O20 O 0.04249 0.2389 0.96315 0.0
O21 O 1.01254 0.20585 0.05134 0.0
O22 O 0.10689 0.26436 -0.00518 0.0
O23 O 0.08611 0.2545 0.84494 0.0
O24 O 0.08348 0.23257 0.15798 0.0
O25 O 0.04704 0.21439 0.11403 0.0
O26 O 0.05846 0.17361 0.05253 0.0
O27 O 0.08955 0.20753 0.97314 0.0
O28 O 0.99062 0.15155 0.01788 0.0
O29 O 1.01568 0.15159 0.13747 0.0
O30 O 1.01789 0.17913 0.84675 0.0
O31 O 0.05392 0.19693 0.89398 0.0
H32 H 0.14941 0.3054 0.84286 0.0
H33 H 0.07798 0.2928 0.90484 0.0
H34 H 0.09166 0.33522 0.8656 0.0
H35 H 0.16304 0.3473 0.80147 0.0
H36 H 0.94709 0.10691 0.09122 0.0
H37 H 1.017 0.11345 0.05941 0.0
H38 H 0.99781 0.06985 0.03195 0.0
H39 H 0.92789 0.06358 0.06527 0.0
Gd40 Gd 0.86166 0.86889 -0.01085 0.0
Gd41 Gd 0.90993 0.87 0.03108 0.0
C42 C 0.86211 0.8184 0.0159 0.0
C43 C 0.82177 0.86183 0.90325 0.0
C44 C 0.79654 0.84285 0.88128 0.0
C45 C 0.77767 0.84537 0.92337 0.0
C46 C 0.79092 0.82335 0.81232 0.0
C47 C 0.74805 0.81007 0.8239 0.0
C48 C 0.76693 0.80712 0.78413 0.0
C49 C 0.75375 0.82916 0.89548 0.0
C50 C 0.8734 0.86882 0.19676 0.0
C51 C 0.90833 0.92031 0.02945 0.0
C52 C 0.95095 0.87686 0.1013 0.0
C53 C 0.97706 0.89312 0.08364 0.0
C54 C 0.98742 0.89597 0.98129 0.0
C55 C 0.99212 0.90497 0.17174 0.0
C56 C 1.02754 0.92154 0.05658 0.0
C57 C 1.01706 0.9191 0.15839 0.0
C58 C 1.01238 0.90997 0.96804 0.0
C59 C 0.8989 0.87194 0.82332 0.0
O60 O 0.8514 0.82946 0.97193 0.0
O61 O 0.8838 0.83078 0.05985 0.0
O62 O 0.82778 0.86862 0.00339 0.0
O63 O 0.83887 0.86111 0.84895 0.0
O64 O 0.86109 0.87864 0.16374 0.0
O65 O 0.87675 0.85795 0.12126 0.0
O66 O 0.91939 0.90862 0.06183 0.0
O67 O 0.88668 0.90897 0.98406 0.0
O68 O 0.93872 0.86188 0.02363 0.0
O69 O 0.93906 0.88597 0.14836 0.0
O70 O 0.91078 0.86163 0.85473 0.0
O71 O 0.89538 0.88211 0.90102 0.0
H72 H 0.78145 0.86023 0.97638 0.0
H73 H 0.80505 0.82092 0.77807 0.0
H74 H 0.76326 0.79274 0.72842 0.0
H75 H 0.7397 0.83174 0.92955 0.0
H76 H 0.97632 0.88716 0.91154 0.0
H77 H 0.98461 0.90295 0.25152 0.0
H78 H 1.02821 0.92757 0.22845 0.0
H79 H 1.01983 0.91174 0.88831 0.0
Gd80 Gd 0.22247 1.01845 0.00806 0.0
Gd81 Gd 0.21969 0.06447 0.04985 0.0
C82 C 0.27217 0.07069 0.03165 0.0
C83 C 0.23074 0.98657 0.92212 0.0
C84 C 0.2502 0.98097 0.90106 0.0
C85 C 0.25321 0.96518 0.96897 0.0
C86 C 0.26431 0.98932 0.80753 0.0
C87 C 0.28322 0.96541 0.84819 0.0
C88 C 0.28068 0.98171 0.78166 0.0
C89 C 0.26956 0.95759 0.94314 0.0
C90 C 0.2228 0.03015 0.21585 0.0
C91 C 0.17039 1.01164 0.04877 0.0
C92 C 0.20997 0.09654 0.12049 0.0
C93 C 0.19074 0.10285 0.10815 0.0
C94 C 0.18958 0.11503 0.01634 0.0
C95 C 0.17401 0.09779 0.19102 0.0
C96 C 0.15582 0.11749 0.09182 0.0
C97 C 0.15669 0.10492 0.18278 0.0
C98 C 0.17233 0.12219 0.00826 0.0
C99 C 0.21792 0.05171 0.8421 0.0
O100 O 0.26153 0.04869 -0.01006 0.0
O101 O 0.25942 0.07956 0.07506 0.0
O102 O 0.22357 0.98538 0.02168 0.0
O103 O 0.23115 1.00427 0.86809 0.0
O104 O 0.21337 1.00807 0.18284 0.0
O105 O 0.23317 0.04448 0.14004 0.0
O106 O 0.1816 0.03435 0.08109 0.0
O107 O 0.18215 1.00198 0.00277 0.0
O108 O 0.22372 0.09985 0.03713 0.0
O109 O 0.2045 0.07681 0.17318 0.0
O110 O 0.22796 0.07386 0.87377 0.0
O111 O 0.208 0.03786 0.9197 0.0
H112 H 0.24248 0.95819 0.04104 0.0
H113 H 0.26225 1.00122 0.75245 0.0
H114 H 0.29069 0.98792 0.70737 0.0
H115 H 0.27129 0.94532 -0.00285 0.0
H116 H 0.20217 0.11932 0.95092 0.0
H117 H 0.17455 0.08865 0.26324 0.0
H118 H 0.14444 0.10121 0.24915 0.0
H119 H 0.17198 0.13153 0.93636 0.0
Gd120 Gd 0.73653 0.56268 0.31319 0.0
Gd121 Gd 0.69349 0.51472 0.36292 0.0
C122 C 0.68626 0.56019 0.38056 0.0
C123 C 0.7675 0.60279 0.22332 0.0
C124 C 0.77862 0.62924 0.21649 0.0
C125 C 0.76518 0.64071 0.19748 0.0
C126 C 0.8038 0.64316 0.22018 0.0
C127 C 0.80222 0.67966 0.18514 0.0
C128 C 0.81544 0.66798 0.20467 0.0
C129 C 0.77689 0.66571 0.18197 0.0
C130 C 0.73241 0.55087 0.52501 0.0
C131 C 0.74482 0.51781 0.32209 0.0
C132 C 0.66132 0.47281 0.43377 0.0
C133 C 0.65007 0.44701 0.40802 0.0
C134 C 0.66222 0.43758 0.35015 0.0
C135 C 0.62641 0.43154 0.44172 0.0
C136 C 0.62695 0.39732 0.36051 0.0
C137 C 0.61496 0.407 0.41831 0.0
C138 C 0.65078 0.41291 0.3269 0.0
C139 C 0.69882 0.52674 0.15064 0.0
O140 O 0.70685 0.57237 0.3278 0.0
O141 O 0.67942 0.53853 0.41855 0.0
O142 O 0.7724 0.5939 0.30796 0.0
O143 O 0.74552 0.58918 0.18714 0.0
O144 O 0.75276 0.56357 0.47604 0.0
O145 O 0.71533 0.54685 0.46227 0.0
O146 O 0.72363 0.50612 0.36961 0.0
O147 O 0.75216 0.53896 0.27684 0.0
O148 O 0.65643 0.48571 0.36845 0.0
O149 O 0.68379 0.48395 0.4658 0.0
O150 O 0.67832 0.51495 0.19869 0.0
O151 O 0.71537 0.53018 0.21522 0.0
H152 H 0.74572 0.63038 0.19346 0.0
H153 H 0.81459 0.63473 0.23283 0.0
H154 H 0.83493 0.67794 0.2056 0.0
H155 H 0.76612 0.67411 0.16804 0.0
H156 H 0.68048 0.44925 0.32282 0.0
H157 H 0.61674 0.43847 0.48662 0.0
H158 H 0.5968 0.39553 0.44705 0.0
H159 H 0.66046 0.4061 0.28152 0.0
Gd160 Gd 0.5284 0.20478 0.30478 0.0
Gd161 Gd 0.57383 0.20422 0.35619 0.0
C162 C 0.52531 0.15389 0.36579 0.0
C163 C 0.48899 0.19864 0.2165 0.0
C164 C 0.46257 0.18293 0.2084 0.0
C165 C 0.44827 0.19372 0.20824 0.0
C166 C 0.45146 0.15789 0.19491 0.0
C167 C 0.412 0.15488 0.18082 0.0
C168 C 0.42638 0.14399 0.1811 0.0
C169 C 0.42335 0.17993 0.19458 0.0
C170 C 0.5402 0.21089 0.5169 0.0
C171 C 0.5762 0.25557 0.31547 0.0
C172 C 0.61495 0.21103 0.42689 0.0
C173 C 0.64089 0.22856 0.4144 0.0
C174 C 0.65771 0.22072 0.41971 0.0
C175 C 0.64914 0.25303 0.39787 0.0
C176 C 0.6908 0.26177 0.39443 0.0
C177 C 0.67378 0.26947 0.38805 0.0
C178 C 0.68239 0.23712 0.40981 0.0
C179 C 0.56152 0.1985 0.1444 0.0
O180 O 0.51531 0.16466 0.31348 0.0
O181 O 0.54732 0.16643 0.40582 0.0
O182 O 0.49768 0.21031 0.3067 0.0
O183 O 0.50271 0.19126 0.17306 0.0
O184 O 0.52977 0.221 0.46751 0.0
O185 O 0.54226 0.19665 0.45396 0.0
O186 O 0.58633 0.24405 0.35944 0.0
O187 O 0.55443 0.24376 0.27275 0.0
O188 O 0.60393 0.19784 0.34285 0.0
O189 O 0.60195 0.21836 0.47762 0.0
O190 O 0.57058 0.18712 0.19377 0.0
O191 O 0.56028 0.21307 0.20813 0.0
H192 H 0.45645 0.21302 0.21718 0.0
H193 H 0.46211 0.14911 0.19443 0.0
H194 H 0.41823 0.12473 0.17166 0.0
H195 H 0.41302 0.18905 0.1929 0.0
H196 H 0.65176 0.2019 0.43248 0.0
H197 H 0.63649 0.2594 0.39307 0.0
H198 H 0.67949 0.28821 0.3748 0.0
H199 H 0.69492 0.23054 0.41647 0.0
Gd200 Gd 0.88834 0.35051 0.31812 0.0
Gd201 Gd 0.88141 0.39239 0.36809 0.0
C202 C 0.93519 0.40197 0.38399 0.0
C203 C 0.89926 0.32078 0.22855 0.0
C204 C 0.91669 0.31224 0.21526 0.0
C205 C 0.92394 0.30332 0.30218 0.0
C206 C 0.92382 0.31019 0.11102 0.0
C207 C 0.94369 0.28894 0.17943 0.0
C208 C 0.93719 0.29874 0.09323 0.0
C209 C 0.93731 0.29184 0.28443 0.0
C210 C 0.88032 0.35446 0.5294 0.0
C211 C 0.83435 0.33978 0.32594 0.0
C212 C 0.86847 0.42235 0.43741 0.0
C213 C 0.85004 0.42952 0.41838 0.0
C214 C 0.84926 0.44064 0.32211 0.0
C215 C 0.83395 0.42669 0.5009 0.0
C216 C 0.81699 0.44637 0.39264 0.0
C217 C 0.8176 0.43492 0.48818 0.0
C218 C 0.83294 0.44897 0.30948 0.0
C219 C 0.88852 0.38732 0.15641 0.0
O220 O 0.9272 0.38123 0.33277 0.0
O221 O 0.92001 0.40855 0.42051 0.0
O222 O 0.88772 0.31657 0.31975 0.0
O223 O 0.90426 0.34133 0.18523 0.0
O224 O 0.87291 0.33418 0.47989 0.0
O225 O 0.89309 0.37166 0.46712 0.0
O226 O 0.84311 0.36108 0.37201 0.0
O227 O 0.84876 0.33302 0.28243 0.0
O228 O 0.88472 0.42758 0.3631 0.0
O229 O 0.86132 0.40136 0.4814 0.0
O230 O 0.89688 0.40776 0.20501 0.0
O231 O 0.8757 0.37061 0.22047 0.0
H232 H 0.91868 0.30455 0.38354 0.0
H233 H 0.91821 0.31661 0.04243 0.0
H234 H 0.9415 0.29666 0.01127 0.0
H235 H 0.94234 0.28488 0.35295 0.0
H236 H 0.86144 0.44321 0.25682 0.0
H237 H 0.83431 0.41847 0.57644 0.0
H238 H 0.80586 0.43288 0.5546 0.0
H239 H 0.83281 0.45742 0.23435 0.0
Gd240 Gd 0.4033 0.89764 0.65367 0.0
Gd241 Gd 0.36138 0.84878 0.70213 0.0
C242 C 0.35167 0.8926 0.71837 0.0
C243 C 0.43331 0.93865 0.56755 0.0
C244 C 0.44372 0.96507 0.56576 0.0
C245 C 0.46878 0.97963 0.57486 0.0
C246 C 0.42982 0.976 0.54578 0.0
C247 C 0.46617 1.01566 0.54221 0.0
C248 C 0.44095 1.00107 0.53419 0.0
C249 C 0.47985 1.00453 0.56326 0.0
C250 C 0.39934 0.88563 0.86505 0.0
C251 C 0.41367 0.85424 0.6587 0.0
C252 C 0.33133 0.80587 0.77075 0.0
C253 C 0.32421 0.78035 0.75154 0.0
C254 C 0.31199 0.76817 0.65721 0.0
C255 C 0.32821 0.76742 0.8321 0.0
C256 C 0.30762 0.7306 0.72563 0.0
C257 C 0.3201 0.74291 0.81925 0.0
C258 C 0.30379 0.7436 0.64448 0.0
C259 C 0.36631 0.86126 0.49075 0.0
O260 O 0.37245 0.90556 0.66786 0.0
O261 O 0.34522 0.8709 0.75488 0.0
O262 O 0.43875 0.92942 0.64923 0.0
O263 O 0.41136 0.92479 0.53161 0.0
O264 O 0.41963 0.89884 0.81645 0.0
O265 O 0.38215 0.88109 0.8021 0.0
O266 O 0.39261 0.84186 0.70652 0.0
O267 O 0.4202 0.87525 0.61403 0.0
O268 O 0.32611 0.81688 0.69616 0.0
O269 O 0.35236 0.81973 0.8154 0.0
O270 O 0.34587 0.84904 0.539 0.0
O271 O 0.3831 0.86511 0.55482 0.0
H272 H 0.47997 0.97166 0.58837 0.0
H273 H 0.41044 0.96521 0.53765 0.0
H274 H 0.4298 1.00901 0.51901 0.0
H275 H 0.4993 1.01498 0.56787 0.0
H276 H 0.30848 0.77752 0.59356 0.0
H277 H 0.33727 0.7762 0.90622 0.0
H278 H 0.32309 0.73346 0.88413 0.0
H279 H 0.2945 0.7348 0.57086 0.0
Gd280 Gd 0.19392 0.53305 0.65213 0.0
Gd281 Gd 0.24308 0.54013 0.70106 0.0
C282 C 0.19889 0.48684 0.72085 0.0
C283 C 0.15238 0.52084 0.56571 0.0
C284 C 0.12699 0.50125 0.55025 0.0
C285 C 0.10887 0.4986 0.62174 0.0
C286 C 0.12013 0.48706 0.45649 0.0
C287 C 0.07761 0.46885 0.50371 0.0
C288 C 0.09579 0.47101 0.43377 0.0
C289 C 0.08454 0.48258 0.59896 0.0
C290 C 0.20676 0.542 0.86255 0.0
C291 C 0.23739 0.58709 0.66038 0.0
C292 C 0.28571 0.55169 0.77146 0.0
C293 C 0.3117 0.56738 0.74953 0.0
C294 C 0.32112 0.57067 0.64499 0.0
C295 C 0.32762 0.57784 0.83636 0.0
C296 C 0.36213 0.594 0.71555 0.0
C297 C 0.35251 0.591 0.81971 0.0
C298 C 0.34607 0.58381 0.62823 0.0
C299 C 0.23033 0.53255 0.48963 0.0
O300 O 0.18622 0.49438 0.66562 0.0
O301 O 0.22035 0.50237 0.75955 0.0
O302 O 0.15903 0.53069 0.66098 0.0
O303 O 0.1694 0.51911 0.51596 0.0
O304 O 0.1938 0.54934 0.8129 0.0
O305 O 0.21091 0.52896 0.80075 0.0
O306 O 0.25028 0.57836 0.70351 0.0
O307 O 0.2157 0.57276 0.61999 0.0
O308 O 0.27335 0.53414 0.70385 0.0
O309 O 0.27369 0.56183 0.80621 0.0
O310 O 0.24276 0.52451 0.53785 0.0
O311 O 0.2265 0.54538 0.55379 0.0
H312 H 0.1134 0.50942 0.69406 0.0
H313 H 0.13351 0.48893 0.39854 0.0
H314 H 0.0912 0.461 0.35908 0.0
H315 H 0.07112 0.48117 0.65557 0.0
H316 H 0.30924 0.5628 0.57644 0.0
H317 H 0.32081 0.57536 0.91775 0.0
H318 H 0.36425 0.59829 0.88904 0.0
H319 H 0.3528 0.58601 0.54684 0.0
Gd320 Gd 0.55845 0.68884 0.65851 0.0
Gd321 Gd 0.55399 0.73418 0.6981 0.0
C322 C 0.60726 0.74223 0.68297 0.0
C323 C 0.56783 0.65781 0.57118 0.0
C324 C 0.58726 0.65197 0.55269 0.0
C325 C 0.59051 0.63682 0.62383 0.0
C326 C 0.60097 0.65931 0.45774 0.0
C327 C 0.61991 0.63563 0.5034 0.0
C328 C 0.61715 0.65134 0.43367 0.0
C329 C 0.60667 0.62883 0.59971 0.0
C330 C 0.5582 0.70047 0.86537 0.0
C331 C 0.50574 0.68082 0.70128 0.0
C332 C 0.54378 0.76612 0.76581 0.0
C333 C 0.52486 0.77272 0.75071 0.0
C334 C 0.52249 0.78253 0.65331 0.0
C335 C 0.50968 0.77036 0.83663 0.0
C336 C 0.49041 0.7878 0.72894 0.0
C337 C 0.49261 0.77772 0.82582 0.0
C338 C 0.50548 0.78998 0.64264 0.0
C339 C 0.55249 0.72114 0.49112 0.0
O340 O 0.5976 0.71971 0.6478 0.0
O341 O 0.59377 0.75076 0.72082 0.0
O342 O 0.55941 0.65565 0.66899 0.0
O343 O 0.5691 0.67616 0.51927 0.0
O344 O 0.54978 0.67845 0.83307 0.0
O345 O 0.56822 0.71494 0.78949 0.0
O346 O 0.51655 0.70357 0.73246 0.0
O347 O 0.51779 0.67148 0.65471 0.0
O348 O 0.558 0.76951 0.68434 0.0
O349 O 0.5378 0.74623 0.81818 0.0
O350 O 0.56155 0.74325 0.52172 0.0
O351 O 0.54307 0.70732 0.56926 0.0
H352 H 0.58011 0.63058 0.69711 0.0
H353 H 0.59868 0.67065 0.40014 0.0
H354 H 0.6268 0.65675 0.35825 0.0
H355 H 0.60855 0.61705 0.65616 0.0
H356 H 0.5339 0.78468 0.58536 0.0
H357 H 0.51125 0.76312 0.91295 0.0
H358 H 0.48153 0.77604 0.89441 0.0
H359 H 0.50409 0.79739 0.56652 0.0
H360 H 0.17125 0.38356 0.88834 0.0
H361 H 0.10546 0.36413 0.71663 0.0
H362 H 0.12104 0.40625 0.66784 0.0
H363 H 0.15417 0.44872 0.66943 0.0
H364 H 0.22008 0.46685 0.83863 0.0
H365 H 0.20377 0.4252 0.89054 0.0
C366 C 0.16033 0.38843 0.83941 0.0
C367 C 0.13726 0.37057 0.80568 0.0
C368 C 0.16952 0.41255 0.8103 0.0
C369 C 0.1232 0.37746 0.74461 0.0
C370 C 0.13219 0.40155 0.71591 0.0
C371 C 0.16497 0.44354 0.71743 0.0
C372 C 0.18841 0.46106 0.74947 0.0
C373 C 0.15545 0.41928 0.74753 0.0
C374 C 0.20205 0.45392 0.81218 0.0
C375 C 0.19273 0.43002 0.84233 0.0
H376 H 0.71448 0.82256 0.77392 0.0
H377 H 0.72429 0.76104 0.79349 0.0
H378 H 0.68217 0.73465 0.7417 0.0
H379 H 0.64163 0.7288 0.70139 0.0
H380 H 0.63242 0.79081 0.69015 0.0
H381 H 0.67502 0.81707 0.72847 0.0
C382 C 0.70742 0.80336 0.76782 0.0
C383 C 0.72258 0.79386 0.78894 0.0
C384 C 0.68316 0.78829 0.73935 0.0
C385 C 0.71314 0.76894 0.77748 0.0
C386 C 0.68898 0.75379 0.74827 0.0
C387 C 0.64906 0.74809 0.70576 0.0
C388 C 0.63377 0.75778 0.69315 0.0
C389 C 0.67371 0.76322 0.73008 0.0
C390 C 0.64368 0.78281 0.70009 0.0
C391 C 0.66808 0.79789 0.7222 0.0
H392 H 0.2739 0.91937 0.86513 0.0
H393 H 0.32835 0.98959 0.75818 0.0
H394 H 0.35406 0.97334 0.70468 0.0
H395 H 0.36138 0.93908 0.6914 0.0
H396 H 0.30661 0.86926 0.8027 0.0
H397 H 0.28101 0.88555 0.85198 0.0
C398 C 0.29151 0.93124 0.83136 0.0
C399 C 0.29917 0.95573 0.81653 0.0
C400 C 0.30622 0.92182 0.80129 0.0
C401 C 0.32186 0.97064 0.77002 0.0
C402 C 0.33664 0.96137 0.73974 0.0
C403 C 0.34381 0.92741 0.72596 0.0
C404 C 0.33606 0.90294 0.74334 0.0
C405 C 0.32903 0.93696 0.75512 0.0
C406 C 0.3132 0.88816 0.78857 0.0
C407 C 0.29846 0.89745 0.81696 0.0
H408 H 0.38576 0.11701 0.04328 0.0
H409 H 0.37792 0.16029 0.28752 0.0
H410 H 0.33455 0.13897 0.25911 0.0
H411 H 0.29874 0.10825 0.16564 0.0
H412 H 0.30556 0.06342 0.92665 0.0
H413 H 0.34929 0.08503 0.95265 0.0
C414 C 0.37455 0.1216 0.0911 0.0
C415 C 0.38528 0.14049 0.16674 0.0
C416 C 0.34938 0.10908 0.07492 0.0
C417 C 0.37035 0.14623 0.22727 0.0
C418 C 0.34546 0.13396 0.21144 0.0
C419 C 0.30975 0.10327 0.11842 0.0
C420 C 0.29882 0.08434 0.04351 0.0
C421 C 0.3348 0.11549 0.13502 0.0
C422 C 0.31346 0.07796 -0.01543 0.0
C423 C 0.33849 0.0903 -0.00042 0.0
H424 H 0.9796 0.29832 0.03567 0.0
H425 H 0.935 0.24716 0.27662 0.0
H426 H 0.95402 0.22315 0.24159 0.0
H427 H 0.9835 0.21665 0.14337 0.0
H428 H 1.02828 0.26795 0.90315 0.0
H429 H 1.00866 0.29151 0.93548 0.0
C430 C 0.9739 0.28184 0.08006 0.0
C431 C 0.95591 0.27471 0.15915 0.0
C432 C 0.98482 0.26796 0.05902 0.0
C433 C 0.94906 0.2534 0.21667 0.0
C434 C 0.95978 0.23949 0.19599 0.0
C435 C 0.98879 0.23283 0.09713 0.0
C436 C 1.00731 0.2404 0.02051 0.0
C437 C 0.97768 0.24658 0.11734 0.0
C438 C 1.01409 0.26163 0.96253 0.0
C439 C 1.00291 0.27519 0.98117 0.0
H440 H 0.8716 0.79212 0.15762 0.0
H441 H 0.82103 0.78516 0.91104 0.0
H442 H 0.79766 0.74175 0.9426 0.0
H443 H 0.79185 0.70559 0.04006 0.0
H444 H 0.84183 0.71381 0.29244 0.0
H445 H 0.86508 0.75678 0.25839 0.0
C446 C 0.85557 0.78114 0.10994 0.0
C447 C 0.84826 0.79192 0.03116 0.0
C448 C 0.84202 0.75633 0.12986 0.0
C449 C 0.82717 0.77736 0.97179 0.0
C450 C 0.81376 0.75252 -0.00998 0.0
C451 C 0.80766 0.71681 0.08848 0.0
C452 C 0.81515 0.70625 0.16799 0.0
C453 C 0.82098 0.74178 0.06914 0.0
C454 C 0.83584 0.7212 0.22923 0.0
C455 C 0.84915 0.74588 0.21018 0.0
H456 H 0.04099 0.47838 0.53077 0.0
H457 H 0.0555 0.42395 0.41112 0.0
H458 H 1.01317 0.39881 0.36053 0.0
H459 H 0.9717 0.39203 0.35168 0.0
H460 H 0.95763 0.44656 0.47502 0.0
H461 H 0.99989 0.4716 0.52323 0.0
C462 C 1.03491 0.4609 0.49488 0.0
C463 C 0.05157 0.45314 0.47532 0.0
C464 C 1.01049 0.44646 0.46625 0.0
C465 C 0.04325 0.43058 0.42642 0.0
C466 C 1.01897 0.4161 0.39777 0.0
C467 C 0.97787 0.40942 0.38873 0.0
C468 C 0.96132 0.41728 0.40947 0.0
C469 C 1.00239 0.42386 0.41714 0.0
C470 C 0.96979 0.4399 0.45801 0.0
C471 C 0.99404 0.45431 0.48583 0.0
H472 H 0.61056 0.58972 0.53011 0.0
H473 H 0.66453 0.65857 0.40773 0.0
H474 H 0.68962 0.6415 0.35591 0.0
H475 H 0.69645 0.60679 0.34711 0.0
H476 H 0.64204 0.53837 0.4732 0.0
H477 H 0.61726 0.55558 0.52229 0.0
C478 C 0.62795 0.60113 0.49338 0.0
C479 C 0.63561 0.62547 0.4736 0.0
C480 C 0.64231 0.59123 0.46408 0.0
C481 C 0.65801 0.63974 0.4234 0.0
C482 C 0.67245 0.63 0.39404 0.0
C483 C 0.67915 0.59564 0.38499 0.0
C484 C 0.67128 0.57126 0.40635 0.0
C485 C 0.66479 0.60571 0.4139 0.0
C486 C 0.64876 0.55717 0.45582 0.0
C487 C 0.63447 0.56699 0.48414 0.0
H488 H 0.53401 0.12851 0.51663 0.0
H489 H 0.48418 0.12025 0.26391 0.0
H490 H 0.46098 0.077 0.29803 0.0
H491 H 0.45559 0.04121 0.39635 0.0
H492 H 0.50472 0.05032 0.65415 0.0
H493 H 0.52737 0.09339 0.62089 0.0
C494 C 0.51811 0.11727 0.46867 0.0
C495 C 0.51102 0.12764 0.38705 0.0
C496 C 0.50469 0.09247 0.48958 0.0
C497 C 0.49013 0.11278 0.32703 0.0
C498 C 0.47683 0.08801 0.34652 0.0
C499 C 0.47103 0.05263 0.44635 0.0
C500 C 0.47852 0.0423 0.52689 0.0
C501 C 0.48399 0.07761 0.42739 0.0
C502 C 0.49876 0.05754 0.59008 0.0
C503 C 0.51171 0.08226 0.57148 0.0
H504 H 0.1644 0.16098 0.0201 0.0
H505 H 0.10813 0.09431 0.15062 0.0
H506 H 0.07995 0.10948 0.14101 0.0
H507 H 0.07126 0.14187 0.09389 0.0
H508 H 0.12829 0.20815 0.9619 0.0
H509 H 0.15589 0.19278 0.9727 0.0
C510 C 0.1459 0.1496 0.04534 0.0
C511 C 0.13843 0.12647 0.08548 0.0
C512 C 0.12982 0.15839 0.03933 0.0
C513 C 0.11448 0.11226 0.1201 0.0
C514 C 0.0983 0.12089 0.11418 0.0
C515 C 0.08971 0.15295 0.06754 0.0
C516 C 0.09752 0.17617 0.02693 0.0
C517 C 0.10577 0.14397 0.07389 0.0
C518 C 0.12158 0.19021 -0.00674 0.0
C519 C 0.1375 0.18145 -0.0006 0.0
H520 H 0.89598 0.95192 0.94386 0.0
H521 H 0.94977 0.94882 0.14169 0.0
H522 H 0.97108 0.99239 0.16212 0.0
H523 H 0.97424 0.03157 0.12685 0.0
H524 H 0.92093 0.03473 0.92596 0.0
H525 H 0.89977 0.99118 0.90448 0.0
C526 C 0.91234 0.96074 -0.00839 0.0
C527 C 0.92113 0.94694 0.04127 0.0
C528 C 0.92467 0.98594 0.00278 0.0
C529 C 0.9425 0.95884 0.10224 0.0
C530 C 0.95475 0.98384 0.11413 0.0
C531 C 0.95815 1.02278 0.07735 0.0
C532 C 0.94918 0.03655 0.02883 0.0
C533 C 0.94602 0.99761 0.06486 0.0
C534 C 0.9281 1.02467 0.96592 0.0
C535 C 0.916 0.99971 0.9531 0.0
H536 H 0.05909 0.9651 0.14418 0.0
H537 H 0.05597 0.90954 0.93904 0.0
H538 H 0.0997 0.93217 0.91894 0.0
H539 H 0.13905 0.96775 0.96067 0.0
H540 H 0.14177 1.0234 0.1647 0.0
H541 H 0.09821 1.00066 0.18481 0.0
C542 C 0.06799 0.95787 0.09564 0.0
C543 C 0.0542 0.93563 0.0433 0.0
C544 C 0.09317 0.97099 0.08436 0.0
C545 C 0.06606 0.92672 0.97931 0.0
C546 C 0.09112 0.9396 0.96827 0.0
C547 C 0.13014 0.97487 0.00985 0.0
C548 C 0.14381 0.99728 0.06119 0.0
C549 C 0.10489 0.96175 0.02055 0.0
C550 C 0.13183 1.00625 0.12396 0.0
C551 C 0.10684 0.99324 0.13568 0.0
H552 H 0.73498 0.47399 0.39873 0.0
H553 H 0.79056 0.53745 0.24219 0.0
H554 H 0.81736 0.52077 0.24723 0.0
H555 H 0.82571 0.48884 0.30224 0.0
H556 H 0.76999 0.4253 0.45742 0.0
H557 H 0.74279 0.44144 0.44737 0.0
C558 C 0.75292 0.48418 0.36522 0.0
C559 C 0.76067 0.50703 0.32037 0.0
C560 C 0.76835 0.47452 0.36872 0.0
C561 C 0.784 0.51985 0.27721 0.0
C562 C 0.79942 0.51033 0.28021 0.0
C563 C 0.80752 0.47835 0.33263 0.0
C564 C 0.80005 0.45588 0.38112 0.0
C565 C 0.79187 0.48775 0.32648 0.0
C566 C 0.77645 0.44278 0.42127 0.0
C567 C 0.76079 0.45196 0.41507 0.0
H568 H 0.64559 0.36744 0.374 0.0
H569 H 0.58031 0.36792 0.29562 0.0
H570 H 0.5591 0.32442 0.26994 0.0
H571 H 0.55859 0.28585 0.27715 0.0
H572 H 0.62393 0.28569 0.35739 0.0
H573 H 0.64555 0.32923 0.3731 0.0
C574 C 0.62683 0.3581 0.34973 0.0
C575 C 0.61459 0.37101 0.33744 0.0
C576 C 0.61466 0.33301 0.33556 0.0
C577 C 0.59013 0.35845 0.30728 0.0
C578 C 0.57799 0.33355 0.29208 0.0
C579 C 0.57762 0.29534 0.29703 0.0
C580 C 0.58953 0.28232 0.3166 0.0
C581 C 0.58998 0.32057 0.30724 0.0
C582 C 0.61417 0.29505 0.34279 0.0
C583 C 0.62662 0.32006 0.35173 0.0
H584 H 0.72553 0.25666 0.29042 0.0
H585 H 0.71554 0.30672 0.48362 0.0
H586 H 0.7586 0.33548 0.47569 0.0
H587 H 0.79937 0.34608 0.41872 0.0
H588 H 0.80957 0.29568 0.22896 0.0
H589 H 0.76631 0.26746 0.23172 0.0
C590 C 0.73276 0.27379 0.33146 0.0
C591 C 0.71716 0.27941 0.38753 0.0
C592 C 0.75767 0.29024 0.32744 0.0
C593 C 0.72694 0.30193 0.43861 0.0
C594 C 0.75165 0.31838 0.43474 0.0
C595 C 0.79218 0.32899 0.37744 0.0
C596 C 0.80785 0.32309 0.32383 0.0
C597 C 0.76722 0.3127 0.37982 0.0
C598 C 0.79805 0.30077 0.27107 0.0
C599 C 0.77326 0.28456 0.27264 0.0
H600 H 0.49701 0.82896 0.63384 0.0
H601 H 0.44401 0.76587 0.80177 0.0
H602 H 0.41553 0.78051 0.79234 0.0
H603 H 0.40594 0.81161 0.74049 0.0
H604 H 0.45887 0.87473 0.57206 0.0
H605 H 0.48689 0.85949 0.57629 0.0
C606 C 0.47913 0.81826 0.66721 0.0
C607 C 0.47276 0.79637 0.71888 0.0
C608 C 0.46278 0.82679 0.66149 0.0
C609 C 0.44957 0.78294 0.76297 0.0
C610 C 0.43321 0.79124 0.75714 0.0
C611 C 0.42355 0.82203 0.70413 0.0
C612 C 0.43023 0.84436 0.65618 0.0
C613 C 0.43968 0.81323 0.70738 0.0
C614 C 0.45317 0.85751 0.60952 0.0
C615 C 0.46926 0.84882 0.61205 0.0
H616 H 0.28188 0.62182 0.72783 0.0
H617 H 0.21581 0.61217 0.58942 0.0
H618 H 0.23188 0.65555 0.59434 0.0
H619 H 0.26415 0.69621 0.64421 0.0
H620 H 0.33022 0.70563 0.78124 0.0
H621 H 0.31457 0.66241 0.77123 0.0
C622 C 0.27096 0.62914 0.69824 0.0
C623 C 0.24758 0.6136 0.65853 0.0
C624 C 0.28028 0.65413 0.70164 0.0
C625 C 0.23384 0.62358 0.62042 0.0
C626 C 0.24301 0.64844 0.62335 0.0
C627 C 0.27527 0.68887 0.67062 0.0
C628 C 0.29833 0.70427 0.71404 0.0
C629 C 0.26615 0.6639 0.66451 0.0
C630 C 0.31229 0.69427 0.7491 0.0
C631 C 0.30339 0.66952 0.74291 0.0
H632 H 0.47303 0.63844 0.60221 0.0
H633 H 0.47865 0.69063 0.83624 0.0
H634 H 0.43528 0.66874 0.86023 0.0
H635 H 0.39548 0.63536 0.81359 0.0
H636 H 0.38885 0.58281 0.5799 0.0
H637 H 0.43254 0.60438 0.55596 0.0
C638 C 0.46476 0.6449 0.65891 0.0
C639 C 0.47924 0.66623 0.71711 0.0
C640 C 0.43949 0.63228 0.67185 0.0
C641 C 0.46809 0.6744 0.78968 0.0
C642 C 0.4432 0.66187 0.8037 0.0
C643 C 0.40356 0.62845 0.75804 0.0
C644 C 0.38877 0.60742 0.69891 0.0
C645 C 0.4287 0.64088 0.74494 0.0
C646 C 0.39967 0.59909 0.62574 0.0
C647 C 0.42473 0.61134 0.61252 0.0
H648 H 1.01187 0.18271 0.63984 0.0
H649 H 0.08599 0.21633 0.74272 0.0
H650 H 0.09942 0.22759 0.55741 0.0
H651 H 0.08998 0.22802 0.36572 0.0
H652 H 1.01573 0.19346 0.26344 0.0
H653 H 1.00244 0.18224 0.44845 0.0
C654 C 1.03094 0.19248 0.62141 0.0
C655 C 0.04792 0.19891 0.70425 0.0
C656 C 1.0385 0.19866 0.51482 0.0
C657 C 0.07259 0.21144 0.6799 0.0
C658 C 0.08028 0.21781 0.57407 0.0
C659 C 0.07092 0.21802 0.38429 0.0
C660 C 0.05387 0.21168 0.30173 0.0
C661 C 0.06339 0.21156 0.49088 0.0
C662 C 1.0292 0.19861 0.32608 0.0
C663 C 1.02157 0.19219 0.43176 0.0
H664 H 0.90635 0.85174 0.64857 0.0
H665 H 0.8786 0.89743 0.74808 0.0
H666 H 0.86815 0.90063 0.56206 0.0
H667 H 0.8667 0.89012 0.37082 0.0
H668 H 0.89547 0.8452 0.27213 0.0
H669 H 0.90593 0.84218 0.45772 0.0
C670 C 0.89804 0.86239 0.62926 0.0
C671 C 0.89298 0.87409 0.71132 0.0
C672 C 0.89234 0.86434 0.52234 0.0
C673 C 0.88237 0.888 0.68584 0.0
C674 C 0.87647 0.88992 0.57963 0.0
C675 C 0.87528 0.87972 0.39031 0.0
C676 C 0.88019 0.8678 0.3086 0.0
C677 C 0.88131 0.8781 0.49724 0.0
C678 C 0.89143 0.85447 0.3341 0.0
C679 C 0.89742 0.85271 0.44012 0.0
H680 H 0.2383 0.07964 0.66813 0.0
H681 H 0.19333 1.00593 0.76585 0.0
H682 H 0.19084 0.99254 0.57995 0.0
H683 H 0.20164 1.00189 0.38927 0.0
H684 H 0.24597 0.07578 0.29222 0.0
H685 H 0.24838 0.08903 0.47779 0.0
C686 C 0.22795 0.06066 0.64847 0.0
C687 C 0.21621 0.04377 0.73005 0.0
C688 C 0.22644 0.05314 0.54158 0.0
C689 C 0.20274 1.01924 0.70405 0.0
C690 C 0.20124 1.01158 0.59789 0.0
C691 C 0.2118 1.02086 0.4091 0.0
C692 C 0.22367 0.03782 0.3278 0.0
C693 C 0.21307 0.02837 0.51601 0.0
C694 C 0.2367 0.06238 0.35382 0.0
C695 C 0.23811 0.06998 0.45983 0.0
H696 H 0.69146 0.53227 0.64469 0.0
H697 H 0.7682 0.56188 0.67118 0.0
H698 H 0.76488 0.55745 0.86682 0.0
H699 H 0.74008 0.54527 0.03163 0.0
H700 H 0.66338 0.5159 0.00397 0.0
H701 H 0.66677 0.52025 0.80871 0.0
C702 C 0.70744 0.5377 0.69331 0.0
C703 C 0.73005 0.54741 0.64334 0.0
C704 C 0.70542 0.53523 0.80601 0.0
C705 C 0.75058 0.55437 0.70757 0.0
C706 C 0.7487 0.55187 0.81958 0.0
C707 C 0.72415 0.53988 0.98272 0.0
C708 C 0.7015 0.53023 0.03239 0.0
C709 C 0.72622 0.54239 0.86989 0.0
C710 C 0.68102 0.52334 0.9679 0.0
C711 C 0.68293 0.5258 0.85605 0.0
H712 H 0.55356 0.18415 0.63887 0.0
H713 H 0.5344 0.23939 0.66106 0.0
H714 H 0.53887 0.24036 0.85666 0.0
H715 H 0.54816 0.2254 0.02278 0.0
H716 H 0.56706 0.16997 0.0 0.0
H717 H 0.56264 0.16908 0.80461 0.0
C718 C 0.55043 0.19643 0.68657 0.0
C719 C 0.54365 0.21167 0.63533 0.0
C720 C 0.5529 0.19679 0.79942 0.0
C721 C 0.53961 0.22745 0.6984 0.0
C722 C 0.54214 0.228 0.81042 0.0
C723 C 0.55125 0.21311 0.97493 0.0
C724 C 0.55798 0.19781 0.02604 0.0
C725 C 0.54872 0.21272 0.86203 0.0
C726 C 0.5619 0.18197 0.96284 0.0
C727 C 0.5594 0.18146 0.8509 0.0
H728 H 0.90217 0.39527 0.65108 0.0
H729 H 0.85561 0.31856 0.67368 0.0
H730 H 0.85418 0.32164 0.86931 0.0
H731 H 0.86633 0.34621 0.03532 0.0
H732 H 0.91309 0.42289 0.01165 0.0
H733 H 0.91439 0.41973 0.81638 0.0
C734 C 0.89167 0.37924 0.69886 0.0
C735 C 0.87903 0.35672 0.64776 0.0
C736 C 0.89104 0.38113 0.81163 0.0
C737 C 0.86553 0.33612 0.71093 0.0
C738 C 0.86472 0.33786 0.82295 0.0
C739 C 0.87683 0.36219 -0.01271 0.0
C740 C 0.88956 0.38476 0.03812 0.0
C741 C 0.87746 0.36026 0.8744 0.0
C742 C 0.90309 0.4053 0.97471 0.0
C743 C 0.90383 0.40353 0.86284 0.0
H744 H 0.40748 0.88036 0.37124 0.0
H745 H 0.33061 0.84994 0.34482 0.0
H746 H 0.33381 0.85425 0.14946 0.0
H747 H 0.3584 0.86649 -0.01498 0.0
H748 H 0.43529 0.89712 0.01065 0.0
H749 H 0.43214 0.89276 0.20627 0.0
C750 C 0.39146 0.87473 0.3226 0.0
C751 C 0.36883 0.8648 0.37257 0.0
C752 C 0.39342 0.8772 0.20979 0.0
C753 C 0.34825 0.85761 0.30844 0.0
C754 C 0.35005 0.86003 0.19657 0.0
C755 C 0.37444 0.87215 0.03348 0.0
C756 C 0.39705 0.88214 0.9833 0.0
C757 C 0.37252 0.86973 0.1462 0.0
C758 C 0.41767 0.8894 0.04725 0.0
C759 C 0.4159 0.88694 0.15923 0.0
H760 H 0.22519 0.5197 0.98399 0.0
H761 H 0.1959 0.56697 0.0071 0.0
H762 H 0.20008 0.56801 0.20301 0.0
H763 H 0.21195 0.55528 0.36897 0.0
H764 H 0.24102 0.50781 0.34449 0.0
H765 H 0.23689 0.50692 0.14901 0.0
C766 C 0.2198 0.53028 0.03191 0.0
C767 C 0.21024 0.54323 0.98095 0.0
C768 C 0.2221 0.53067 0.14472 0.0
C769 C 0.2033 0.55683 0.04429 0.0
C770 C 0.20565 0.5574 0.15644 0.0
C771 C 0.2173 0.5447 0.32071 0.0
C772 C 0.22681 0.53165 0.37132 0.0
C773 C 0.21495 0.54433 0.20774 0.0
C774 C 0.23368 0.51804 0.30766 0.0
C775 C 0.23136 0.51754 0.19571 0.0
H776 H 0.57119 0.7493 0.31704 0.0
H777 H 0.53013 0.67522 0.41575 0.0
H778 H 0.52817 0.66208 0.22963 0.0
H779 H 0.53843 0.67182 0.03875 0.0
H780 H 0.57884 0.74606 0.94106 0.0
H781 H 0.58059 0.75902 0.12675 0.0
C782 C 0.56181 0.73029 0.29757 0.0
C783 C 0.55103 0.71323 0.37935 0.0
C784 C 0.56058 0.72293 0.19073 0.0
C785 C 0.53878 0.68865 0.35368 0.0
C786 C 0.53759 0.68114 0.24745 0.0
C787 C 0.54758 0.69081 0.05846 0.0
C788 C 0.55858 0.70797 0.97708 0.0
C789 C 0.54849 0.69814 0.16536 0.0
C790 C 0.57029 0.73253 0.00284 0.0
C791 C 0.57132 0.73996 0.10885 0.0
loop_
_geom_bond_atom_site_label_1
_geom_bond_atom_site_label_2
_geom_bond_distance
_geom_bond_site_symmetry_2
_ccdc_geom_bond_type
Gd0 C3 2.818 1_554 S
Gd0 O20 2.377 . S
Gd0 O22 2.448 . S
Gd0 O23 2.506 1_554 S
Gd0 O24 2.435 . S
Gd0 O25 2.717 . S
Gd0 O27 2.395 . S
Gd0 O31 2.327 1_554 S
Gd1 C12 2.818 1_556 S
Gd1 O21 2.395 . S
Gd1 O25 2.327 1_656 S
Gd1 O26 2.377 1_655 S
Gd1 O28 2.448 . S
Gd1 O29 2.506 1_556 S
Gd1 O30 2.435 . S
Gd1 O31 2.717 1_655 S
C2 O20 1.240 1_655 S
C2 O21 1.240 1_554 S
C3 Gd0 2.818 1_556 S
C3 C4 1.510 . S
C3 O22 1.249 1_556 S
C3 O23 1.252 . S
C4 C3 1.510 . S
C4 C5 1.404 1_556 S
C4 C6 1.352 . S
C5 C4 1.404 1_554 S
C5 C9 1.389 . S
C5 H32 0.930 . S
C6 C4 1.352 . S
C6 C8 1.374 . S
C6 H33 0.931 . S
C7 C8 1.359 . S
C7 C9 1.364 1_556 S
C8 C6 1.374 . S
C8 C7 1.359 . S
C8 H34 0.931 . S
C9 C5 1.389 . S
C9 C7 1.364 1_554 S
C9 H35 0.931 . S
C10 O24 1.256 . S
C10 O25 1.257 . S
C11 O26 1.240 . S
C11 O27 1.240 1_556 S
C12 Gd1 2.818 1_554 S
C12 C13 1.510 . S
C12 O28 1.249 1_554 S
C12 O29 1.252 . S
C13 C12 1.510 . S
C13 C14 1.404 1_554 S
C13 C15 1.352 . S
C14 C13 1.404 1_556 S
C14 C18 1.389 . S
C14 H36 0.930 . S
C15 C13 1.352 . S
C15 C17 1.374 . S
C15 H37 0.931 . S
C16 C17 1.359 . S
C16 C18 1.364 1_554 S
C17 C15 1.374 . S
C17 C16 1.359 . S
C17 H38 0.931 . S
C18 C14 1.389 . S
C18 C16 1.364 1_556 S
C18 H39 0.931 . S
C19 O30 1.256 1_455 S
C19 O31 1.257 . S
O20 Gd0 2.377 . S
O20 C2 1.240 1_455 S
O21 Gd1 2.395 . S
O21 C2 1.240 1_556 S
O22 Gd0 2.448 . S
O22 C3 1.249 1_554 S
O23 Gd0 2.506 1_556 S
O23 C3 1.252 . S
O24 Gd0 2.435 . S
O24 C10 1.256 . S
O25 Gd0 2.717 . S
O25 Gd1 2.327 1_454 S
O25 C10 1.257 . S
O26 Gd1 2.377 1_455 S
O26 C11 1.240 . S
O27 Gd0 2.395 . S
O27 C11 1.240 1_554 S
O28 Gd1 2.448 . S
O28 C12 1.249 1_556 S
O29 Gd1 2.506 1_554 S
O29 C12 1.252 . S
O30 Gd1 2.435 . S
O30 C19 1.256 1_655 S
O31 Gd0 2.327 1_556 S
O31 Gd1 2.717 1_455 S
O31 C19 1.257 . S
H32 C5 0.930 . S
H33 C6 0.931 . S
H34 C8 0.931 . S
H35 C9 0.931 . S
H36 C14 0.930 . S
H37 C15 0.931 . S
H38 C17 0.931 . S
H39 C18 0.931 . S
Gd40 C43 2.818 1_554 S
Gd40 O60 2.377 . S
Gd40 O62 2.448 . S
Gd40 O63 2.506 1_554 S
Gd40 O64 2.435 . S
Gd40 O65 2.717 . S
Gd40 O67 2.395 . S
Gd40 O71 2.327 1_554 S
Gd41 C52 2.818 1_556 S
Gd41 O61 2.395 . S
Gd41 O65 2.327 1_556 S
Gd41 O66 2.377 . S
Gd41 O68 2.448 . S
Gd41 O69 2.506 1_556 S
Gd41 O70 2.435 . S
Gd41 O71 2.717 . S
C42 O60 1.240 . S
C42 O61 1.240 1_554 S
C43 Gd40 2.818 1_556 S
C43 C44 1.510 . S
C43 O62 1.249 1_556 S
C43 O63 1.252 . S
C44 C43 1.510 . S
C44 C45 1.404 1_556 S
C44 C46 1.352 . S
C45 C44 1.404 1_554 S
C45 C49 1.389 . S
C45 H72 0.930 . S
C46 C44 1.352 . S
C46 C48 1.374 . S
C46 H73 0.931 . S
C47 C48 1.359 . S
C47 C49 1.364 1_556 S
C48 C46 1.374 . S
C48 C47 1.359 . S
C48 H74 0.931 . S
C49 C45 1.389 . S
C49 C47 1.364 1_554 S
C49 H75 0.931 . S
C50 O64 1.256 . S
C50 O65 1.257 . S
C51 O66 1.240 . S
C51 O67 1.240 1_556 S
C52 Gd41 2.818 1_554 S
C52 C53 1.510 . S
C52 O68 1.249 1_554 S
C52 O69 1.252 . S
C53 C52 1.510 . S
C53 C54 1.404 1_554 S
C53 C55 1.352 . S
C54 C53 1.404 1_556 S
C54 C58 1.389 . S
C54 H76 0.930 . S
C55 C53 1.352 . S
C55 C57 1.374 . S
C55 H77 0.931 . S
C56 C57 1.359 . S
C56 C58 1.364 1_554 S
C57 C55 1.374 . S
C57 C56 1.359 . S
C57 H78 0.931 . S
C58 C54 1.389 . S
C58 C56 1.364 1_556 S
C58 H79 0.931 . S
C59 O70 1.256 . S
C59 O71 1.257 . S
O60 Gd40 2.377 . S
O60 C42 1.240 . S
O61 Gd41 2.395 . S
O61 C42 1.240 1_556 S
O62 Gd40 2.448 . S
O62 C43 1.249 1_554 S
O63 Gd40 2.506 1_556 S
O63 C43 1.252 . S
O64 Gd40 2.435 . S
O64 C50 1.256 . S
O65 Gd40 2.717 . S
O65 Gd41 2.327 1_554 S
O65 C50 1.257 . S
O66 Gd41 2.377 . S
O66 C51 1.240 . S
O67 Gd40 2.395 . S
O67 C51 1.240 1_554 S
O68 Gd41 2.448 . S
O68 C52 1.249 1_556 S
O69 Gd41 2.506 1_554 S
O69 C52 1.252 . S
O70 Gd41 2.435 . S
O70 C59 1.256 . S
O71 Gd40 2.327 1_556 S
O71 Gd41 2.717 . S
O71 C59 1.257 . S
H72 C45 0.930 . S
H73 C46 0.931 . S
H74 C48 0.931 . S
H75 C49 0.931 . S
H76 C54 0.930 . S
H77 C55 0.931 . S
H78 C57 0.931 . S
H79 C58 0.931 . S
Gd80 C83 2.818 1_554 S
Gd80 O100 2.377 1_565 S
Gd80 O102 2.448 . S
Gd80 O103 2.506 1_554 S
Gd80 O104 2.435 . S
Gd80 O105 2.717 1_565 S
Gd80 O107 2.395 . S
Gd80 O111 2.327 1_564 S
Gd81 C92 2.818 1_556 S
Gd81 O101 2.395 . S
Gd81 O105 2.327 1_556 S
Gd81 O106 2.377 . S
Gd81 O108 2.448 . S
Gd81 O109 2.506 1_556 S
Gd81 O110 2.435 . S
Gd81 O111 2.717 . S
C82 O100 1.240 . S
C82 O101 1.240 1_554 S
C83 Gd80 2.818 1_556 S
C83 C84 1.510 . S
C83 O102 1.249 1_556 S
C83 O103 1.252 . S
C84 C83 1.510 . S
C84 C85 1.404 1_556 S
C84 C86 1.352 . S
C85 C84 1.404 1_554 S
C85 C89 1.389 . S
C85 H112 0.930 . S
C86 C84 1.352 . S
C86 C88 1.374 . S
C86 H113 0.931 . S
C87 C88 1.359 . S
C87 C89 1.364 1_556 S
C88 C86 1.374 . S
C88 C87 1.359 . S
C88 H114 0.931 . S
C89 C85 1.389 . S
C89 C87 1.364 1_554 S
C89 H115 0.931 . S
C90 O104 1.256 1_545 S
C90 O105 1.257 . S
C91 O106 1.240 1_565 S
C91 O107 1.240 1_556 S
C92 Gd81 2.818 1_554 S
C92 C93 1.510 . S
C92 O108 1.249 1_554 S
C92 O109 1.252 . S
C93 C92 1.510 . S
C93 C94 1.404 1_554 S
C93 C95 1.352 . S
C94 C93 1.404 1_556 S
C94 C98 1.389 . S
C94 H116 0.930 . S
C95 C93 1.352 . S
C95 C97 1.374 . S
C95 H117 0.931 . S
C96 C97 1.359 . S
C96 C98 1.364 1_554 S
C97 C95 1.374 . S
C97 C96 1.359 . S
C97 H118 0.931 . S
C98 C94 1.389 . S
C98 C96 1.364 1_556 S
C98 H119 0.931 . S
C99 O110 1.256 . S
C99 O111 1.257 . S
O100 Gd80 2.377 1_545 S
O100 C82 1.240 . S
O101 Gd81 2.395 . S
O101 C82 1.240 1_556 S
O102 Gd80 2.448 . S
O102 C83 1.249 1_554 S
O103 Gd80 2.506 1_556 S
O103 C83 1.252 . S
O104 Gd80 2.435 . S
O104 C90 1.256 1_565 S
O105 Gd80 2.717 1_545 S
O105 Gd81 2.327 1_554 S
O105 C90 1.257 . S
O106 Gd81 2.377 . S
O106 C91 1.240 1_545 S
O107 Gd80 2.395 . S
O107 C91 1.240 1_554 S
O108 Gd81 2.448 . S
O108 C92 1.249 1_556 S
O109 Gd81 2.506 1_554 S
O109 C92 1.252 . S
O110 Gd81 2.435 . S
O110 C99 1.256 . S
O111 Gd80 2.327 1_546 S
O111 Gd81 2.717 . S
O111 C99 1.257 . S
H112 C85 0.930 . S
H113 C86 0.931 . S
H114 C88 0.931 . S
H115 C89 0.931 . S
H116 C94 0.930 . S
H117 C95 0.931 . S
H118 C97 0.931 . S
H119 C98 0.931 . S
Gd120 C123 2.818 . S
Gd120 O140 2.377 . S
Gd120 O142 2.448 . S
Gd120 O143 2.506 . S
Gd120 O144 2.435 . S
Gd120 O145 2.717 . S
Gd120 O147 2.395 . S
Gd120 O151 2.327 . S
Gd121 C132 2.818 . S
Gd121 O141 2.395 . S
Gd121 O145 2.327 . S
Gd121 O146 2.377 . S
Gd121 O148 2.448 . S
Gd121 O149 2.506 . S
Gd121 O150 2.435 . S
Gd121 O151 2.717 . S
C122 O140 1.240 . S
C122 O141 1.240 . S
C123 Gd120 2.818 . S
C123 C124 1.510 . S
C123 O142 1.249 . S
C123 O143 1.252 . S
C124 C123 1.510 . S
C124 C125 1.404 . S
C124 C126 1.352 . S
C125 C124 1.404 . S
C125 C129 1.389 . S
C125 H152 0.930 . S
C126 C124 1.352 . S
C126 C128 1.374 . S
C126 H153 0.931 . S
C127 C128 1.359 . S
C127 C129 1.364 . S
C128 C126 1.374 . S
C128 C127 1.359 . S
C128 H154 0.931 . S
C129 C125 1.389 . S
C129 C127 1.364 . S
C129 H155 0.931 . S
C130 O144 1.256 . S
C130 O145 1.257 . S
C131 O146 1.240 . S
C131 O147 1.240 . S
C132 Gd121 2.818 . S
C132 C133 1.510 . S
C132 O148 1.249 . S
C132 O149 1.252 . S
C133 C132 1.510 . S
C133 C134 1.404 . S
C133 C135 1.352 . S
C134 C133 1.404 . S
C134 C138 1.389 . S
C134 H156 0.930 . S
C135 C133 1.352 . S
C135 C137 1.374 . S
C135 H157 0.931 . S
C136 C137 1.359 . S
C136 C138 1.364 . S
C137 C135 1.374 . S
C137 C136 1.359 . S
C137 H158 0.931 . S
C138 C134 1.389 . S
C138 C136 1.364 . S
C138 H159 0.931 . S
C139 O150 1.256 . S
C139 O151 1.257 . S
O140 Gd120 2.377 . S
O140 C122 1.240 . S
O141 Gd121 2.395 . S
O141 C122 1.240 . S
O142 Gd120 2.448 . S
O142 C123 1.249 . S
O143 Gd120 2.506 . S
O143 C123 1.252 . S
O144 Gd120 2.435 . S
O144 C130 1.256 . S
O145 Gd120 2.717 . S
O145 Gd121 2.327 . S
O145 C130 1.257 . S
O146 Gd121 2.377 . S
O146 C131 1.240 . S
O147 Gd120 2.395 . S
O147 C131 1.240 . S
O148 Gd121 2.448 . S
O148 C132 1.249 . S
O149 Gd121 2.506 . S
O149 C132 1.252 . S
O150 Gd121 2.435 . S
O150 C139 1.256 . S
O151 Gd120 2.327 . S
O151 Gd121 2.717 . S
O151 C139 1.257 . S
H152 C125 0.930 . S
H153 C126 0.931 . S
H154 C128 0.931 . S
H155 C129 0.931 . S
H156 C134 0.930 . S
H157 C135 0.931 . S
H158 C137 0.931 . S
H159 C138 0.931 . S
Gd160 C163 2.818 . S
Gd160 O180 2.377 . S
Gd160 O182 2.448 . S
Gd160 O183 2.506 . S
Gd160 O184 2.435 . S
Gd160 O185 2.717 . S
Gd160 O187 2.395 . S
Gd160 O191 2.327 . S
Gd161 C172 2.818 . S
Gd161 O181 2.395 . S
Gd161 O185 2.327 . S
Gd161 O186 2.377 . S
Gd161 O188 2.448 . S
Gd161 O189 2.506 . S
Gd161 O190 2.435 . S
Gd161 O191 2.717 . S
C162 O180 1.240 . S
C162 O181 1.240 . S
C163 Gd160 2.818 . S
C163 C164 1.510 . S
C163 O182 1.249 . S
C163 O183 1.252 . S
C164 C163 1.510 . S
C164 C165 1.404 . S
C164 C166 1.352 . S
C165 C164 1.404 . S
C165 C169 1.389 . S
C165 H192 0.930 . S
C166 C164 1.352 . S
C166 C168 1.374 . S
C166 H193 0.931 . S
C167 C168 1.359 . S
C167 C169 1.364 . S
C168 C166 1.374 . S
C168 C167 1.359 . S
C168 H194 0.931 . S
C169 C165 1.389 . S
C169 C167 1.364 . S
C169 H195 0.931 . S
C170 O184 1.256 . S
C170 O185 1.257 . S
C171 O186 1.240 . S
C171 O187 1.240 . S
C172 Gd161 2.818 . S
C172 C173 1.510 . S
C172 O188 1.249 . S
C172 O189 1.252 . S
C173 C172 1.510 . S
C173 C174 1.404 . S
C173 C175 1.352 . S
C174 C173 1.404 . S
C174 C178 1.389 . S
C174 H196 0.930 . S
C175 C173 1.352 . S
C175 C177 1.374 . S
C175 H197 0.931 . S
C176 C177 1.359 . S
C176 C178 1.364 . S
C177 C175 1.374 . S
C177 C176 1.359 . S
C177 H198 0.931 . S
C178 C174 1.389 . S
C178 C176 1.364 . S
C178 H199 0.931 . S
C179 O190 1.256 . S
C179 O191 1.257 . S
O180 Gd160 2.377 . S
O180 C162 1.240 . S
O181 Gd161 2.395 . S
O181 C162 1.240 . S
O182 Gd160 2.448 . S
O182 C163 1.249 . S
O183 Gd160 2.506 . S
O183 C163 1.252 . S
O184 Gd160 2.435 . S
O184 C170 1.256 . S
O185 Gd160 2.717 . S
O185 Gd161 2.327 . S
O185 C170 1.257 . S
O186 Gd161 2.377 . S
O186 C171 1.240 . S
O187 Gd160 2.395 . S
O187 C171 1.240 . S
O188 Gd161 2.448 . S
O188 C172 1.249 . S
O189 Gd161 2.506 . S
O189 C172 1.252 . S
O190 Gd161 2.435 . S
O190 C179 1.256 . S
O191 Gd160 2.327 . S
O191 Gd161 2.717 . S
O191 C179 1.257 . S
H192 C165 0.930 . S
H193 C166 0.931 . S
H194 C168 0.931 . S
H195 C169 0.931 . S
H196 C174 0.930 . S
H197 C175 0.931 . S
H198 C177 0.931 . S
H199 C178 0.931 . S
Gd200 C203 2.818 . S
Gd200 O220 2.377 . S
Gd200 O222 2.448 . S
Gd200 O223 2.506 . S
Gd200 O224 2.435 . S
Gd200 O225 2.717 . S
Gd200 O227 2.395 . S
Gd200 O231 2.327 . S
Gd201 C212 2.818 . S
Gd201 O221 2.395 . S
Gd201 O225 2.327 . S
Gd201 O226 2.377 . S
Gd201 O228 2.448 . S
Gd201 O229 2.506 . S
Gd201 O230 2.435 . S
Gd201 O231 2.717 . S
C202 O220 1.240 . S
C202 O221 1.240 . S
C203 Gd200 2.818 . S
C203 C204 1.510 . S
C203 O222 1.249 . S
C203 O223 1.252 . S
C204 C203 1.510 . S
C204 C205 1.404 . S
C204 C206 1.352 . S
C205 C204 1.404 . S
C205 C209 1.389 . S
C205 H232 0.930 . S
C206 C204 1.352 . S
C206 C208 1.374 . S
C206 H233 0.931 . S
C207 C208 1.359 . S
C207 C209 1.364 . S
C208 C206 1.374 . S
C208 C207 1.359 . S
C208 H234 0.931 . S
C209 C205 1.389 . S
C209 C207 1.364 . S
C209 H235 0.931 . S
C210 O224 1.256 . S
C210 O225 1.257 . S
C211 O226 1.240 . S
C211 O227 1.240 . S
C212 Gd201 2.818 . S
C212 C213 1.510 . S
C212 O228 1.249 . S
C212 O229 1.252 . S
C213 C212 1.510 . S
C213 C214 1.404 . S
C213 C215 1.352 . S
C214 C213 1.404 . S
C214 C218 1.389 . S
C214 H236 0.930 . S
C215 C213 1.352 . S
C215 C217 1.374 . S
C215 H237 0.931 . S
C216 C217 1.359 . S
C216 C218 1.364 . S
C217 C215 1.374 . S
C217 C216 1.359 . S
C217 H238 0.931 . S
C218 C214 1.389 . S
C218 C216 1.364 . S
C218 H239 0.931 . S
C219 O230 1.256 . S
C219 O231 1.257 . S
O220 Gd200 2.377 . S
O220 C202 1.240 . S
O221 Gd201 2.395 . S
O221 C202 1.240 . S
O222 Gd200 2.448 . S
O222 C203 1.249 . S
O223 Gd200 2.506 . S
O223 C203 1.252 . S
O224 Gd200 2.435 . S
O224 C210 1.256 . S
O225 Gd200 2.717 . S
O225 Gd201 2.327 . S
O225 C210 1.257 . S
O226 Gd201 2.377 . S
O226 C211 1.240 . S
O227 Gd200 2.395 . S
O227 C211 1.240 . S
O228 Gd201 2.448 . S
O228 C212 1.249 . S
O229 Gd201 2.506 . S
O229 C212 1.252 . S
O230 Gd201 2.435 . S
O230 C219 1.256 . S
O231 Gd200 2.327 . S
O231 Gd201 2.717 . S
O231 C219 1.257 . S
H232 C205 0.930 . S
H233 C206 0.931 . S
H234 C208 0.931 . S
H235 C209 0.931 . S
H236 C214 0.930 . S
H237 C215 0.931 . S
H238 C217 0.931 . S
H239 C218 0.931 . S
Gd240 C243 2.818 . S
Gd240 O260 2.377 . S
Gd240 O262 2.448 . S
Gd240 O263 2.506 . S
Gd240 O264 2.435 . S
Gd240 O265 2.717 . S
Gd240 O267 2.395 . S
Gd240 O271 2.327 . S
Gd241 C252 2.818 . S
Gd241 O261 2.395 . S
Gd241 O265 2.327 . S
Gd241 O266 2.377 . S
Gd241 O268 2.448 . S
Gd241 O269 2.506 . S
Gd241 O270 2.435 . S
Gd241 O271 2.717 . S
C242 O260 1.240 . S
C242 O261 1.240 . S
C243 Gd240 2.818 . S
C243 C244 1.510 . S
C243 O262 1.249 . S
C243 O263 1.252 . S
C244 C243 1.510 . S
C244 C245 1.404 . S
C244 C246 1.352 . S
C245 C244 1.404 . S
C245 C249 1.389 . S
C245 H272 0.930 . S
C246 C244 1.352 . S
C246 C248 1.374 . S
C246 H273 0.931 . S
C247 C248 1.359 . S
C247 C249 1.364 . S
C248 C246 1.374 . S
C248 C247 1.359 . S
C248 H274 0.931 . S
C249 C245 1.389 . S
C249 C247 1.364 . S
C249 H275 0.931 . S
C250 O264 1.256 . S
C250 O265 1.257 . S
C251 O266 1.240 . S
C251 O267 1.240 . S
C252 Gd241 2.818 . S
C252 C253 1.510 . S
C252 O268 1.249 . S
C252 O269 1.252 . S
C253 C252 1.510 . S
C253 C254 1.404 . S
C253 C255 1.352 . S
C254 C253 1.404 . S
C254 C258 1.389 . S
C254 H276 0.930 . S
C255 C253 1.352 . S
C255 C257 1.374 . S
C255 H277 0.931 . S
C256 C257 1.359 . S
C256 C258 1.364 . S
C257 C255 1.374 . S
C257 C256 1.359 . S
C257 H278 0.931 . S
C258 C254 1.389 . S
C258 C256 1.364 . S
C258 H279 0.931 . S
C259 O270 1.256 . S
C259 O271 1.257 . S
O260 Gd240 2.377 . S
O260 C242 1.240 . S
O261 Gd241 2.395 . S
O261 C242 1.240 . S
O262 Gd240 2.448 . S
O262 C243 1.249 . S
O263 Gd240 2.506 . S
O263 C243 1.252 . S
O264 Gd240 2.435 . S
O264 C250 1.256 . S
O265 Gd240 2.717 . S
O265 Gd241 2.327 . S
O265 C250 1.257 . S
O266 Gd241 2.377 . S
O266 C251 1.240 . S
O267 Gd240 2.395 . S
O267 C251 1.240 . S
O268 Gd241 2.448 . S
O268 C252 1.249 . S
O269 Gd241 2.506 . S
O269 C252 1.252 . S
O270 Gd241 2.435 . S
O270 C259 1.256 . S
O271 Gd240 2.327 . S
O271 Gd241 2.717 . S
O271 C259 1.257 . S
H272 C245 0.930 . S
H273 C246 0.931 . S
H274 C248 0.931 . S
H275 C249 0.931 . S
H276 C254 0.930 . S
H277 C255 0.931 . S
H278 C257 0.931 . S
H279 C258 0.931 . S
Gd280 C283 2.818 . S
Gd280 O300 2.377 . S
Gd280 O302 2.448 . S
Gd280 O303 2.506 . S
Gd280 O304 2.435 . S
Gd280 O305 2.717 . S
Gd280 O307 2.395 . S
Gd280 O311 2.327 . S
Gd281 C292 2.818 . S
Gd281 O301 2.395 . S
Gd281 O305 2.327 . S
Gd281 O306 2.377 . S
Gd281 O308 2.448 . S
Gd281 O309 2.506 . S
Gd281 O310 2.435 . S
Gd281 O311 2.717 . S
C282 O300 1.240 . S
C282 O301 1.240 . S
C283 Gd280 2.818 . S
C283 C284 1.510 . S
C283 O302 1.249 . S
C283 O303 1.252 . S
C284 C283 1.510 . S
C284 C285 1.404 . S
C284 C286 1.352 . S
C285 C284 1.404 . S
C285 C289 1.389 . S
C285 H312 0.930 . S
C286 C284 1.352 . S
C286 C288 1.374 . S
C286 H313 0.931 . S
C287 C288 1.359 . S
C287 C289 1.364 . S
C288 C286 1.374 . S
C288 C287 1.359 . S
C288 H314 0.931 . S
C289 C285 1.389 . S
C289 C287 1.364 . S
C289 H315 0.931 . S
C290 O304 1.256 . S
C290 O305 1.257 . S
C291 O306 1.240 . S
C291 O307 1.240 . S
C292 Gd281 2.818 . S
C292 C293 1.510 . S
C292 O308 1.249 . S
C292 O309 1.252 . S
C293 C292 1.510 . S
C293 C294 1.404 . S
C293 C295 1.352 . S
C294 C293 1.404 . S
C294 C298 1.389 . S
C294 H316 0.930 . S
C295 C293 1.352 . S
C295 C297 1.374 . S
C295 H317 0.931 . S
C296 C297 1.359 . S
C296 C298 1.364 . S
C297 C295 1.374 . S
C297 C296 1.359 . S
C297 H318 0.931 . S
C298 C294 1.389 . S
C298 C296 1.364 . S
C298 H319 0.931 . S
C299 O310 1.256 . S
C299 O311 1.257 . S
O300 Gd280 2.377 . S
O300 C282 1.240 . S
O301 Gd281 2.395 . S
O301 C282 1.240 . S
O302 Gd280 2.448 . S
O302 C283 1.249 . S
O303 Gd280 2.506 . S
O303 C283 1.252 . S
O304 Gd280 2.435 . S
O304 C290 1.256 . S
O305 Gd280 2.717 . S
O305 Gd281 2.327 . S
O305 C290 1.257 . S
O306 Gd281 2.377 . S
O306 C291 1.240 . S
O307 Gd280 2.395 . S
O307 C291 1.240 . S
O308 Gd281 2.448 . S
O308 C292 1.249 . S
O309 Gd281 2.506 . S
O309 C292 1.252 . S
O310 Gd281 2.435 . S
O310 C299 1.256 . S
O311 Gd280 2.327 . S
O311 Gd281 2.717 . S
O311 C299 1.257 . S
H312 C285 0.930 . S
H313 C286 0.931 . S
H314 C288 0.931 . S
H315 C289 0.931 . S
H316 C294 0.930 . S
H317 C295 0.931 . S
H318 C297 0.931 . S
H319 C298 0.931 . S
Gd320 C323 2.818 . S
Gd320 O340 2.377 . S
Gd320 O342 2.448 . S
Gd320 O343 2.506 . S
Gd320 O344 2.435 . S
Gd320 O345 2.717 . S
Gd320 O347 2.395 . S
Gd320 O351 2.327 . S
Gd321 C332 2.818 . S
Gd321 O341 2.395 . S
Gd321 O345 2.327 . S
Gd321 O346 2.377 . S
Gd321 O348 2.448 . S
Gd321 O349 2.506 . S
Gd321 O350 2.435 . S
Gd321 O351 2.717 . S
C322 O340 1.240 . S
C322 O341 1.240 . S
C323 Gd320 2.818 . S
C323 C324 1.510 . S
C323 O342 1.249 . S
C323 O343 1.252 . S
C324 C323 1.510 . S
C324 C325 1.404 . S
C324 C326 1.352 . S
C325 C324 1.404 . S
C325 C329 1.389 . S
C325 H352 0.930 . S
C326 C324 1.352 . S
C326 C328 1.374 . S
C326 H353 0.931 . S
C327 C328 1.359 . S
C327 C329 1.364 . S
C328 C326 1.374 . S
C328 C327 1.359 . S
C328 H354 0.931 . S
C329 C325 1.389 . S
C329 C327 1.364 . S
C329 H355 0.931 . S
C330 O344 1.256 . S
C330 O345 1.257 . S
C331 O346 1.240 . S
C331 O347 1.240 . S
C332 Gd321 2.818 . S
C332 C333 1.510 . S
C332 O348 1.249 . S
C332 O349 1.252 . S
C333 C332 1.510 . S
C333 C334 1.404 . S
C333 C335 1.352 . S
C334 C333 1.404 . S
C334 C338 1.389 . S
C334 H356 0.930 . S
C335 C333 1.352 . S
C335 C337 1.374 . S
C335 H357 0.931 . S
C336 C337 1.359 . S
C336 C338 1.364 . S
C337 C335 1.374 . S
C337 C336 1.359 . S
C337 H358 0.931 . S
C338 C334 1.389 . S
C338 C336 1.364 . S
C338 H359 0.931 . S
C339 O350 1.256 . S
C339 O351 1.257 . S
O340 Gd320 2.377 . S
O340 C322 1.240 . S
O341 Gd321 2.395 . S
O341 C322 1.240 . S
O342 Gd320 2.448 . S
O342 C323 1.249 . S
O343 Gd320 2.506 . S
O343 C323 1.252 . S
O344 Gd320 2.435 . S
O344 C330 1.256 . S
O345 Gd320 2.717 . S
O345 Gd321 2.327 . S
O345 C330 1.257 . S
O346 Gd321 2.377 . S
O346 C331 1.240 . S
O347 Gd320 2.395 . S
O347 C331 1.240 . S
O348 Gd321 2.448 . S
O348 C332 1.249 . S
O349 Gd321 2.506 . S
O349 C332 1.252 . S
O350 Gd321 2.435 . S
O350 C339 1.256 . S
O351 Gd320 2.327 . S
O351 Gd321 2.717 . S
O351 C339 1.257 . S
H352 C325 0.930 . S
H353 C326 0.931 . S
H354 C328 0.931 . S
H355 C329 0.931 . S
H356 C334 0.930 . S
H357 C335 0.931 . S
H358 C337 0.931 . S
H359 C338 0.931 . S
H360 C366 0.930 . S
H361 C369 0.930 . S
H362 C370 0.930 . S
H363 C371 0.930 . S
H364 C374 0.930 . S
H365 C375 0.930 . S
C366 H360 0.930 . S
C366 C367 1.355 . S
C366 C368 1.415 . S
C367 C366 1.355 . S
C367 C369 1.419 . S
C368 C366 1.415 . S
C368 C373 1.425 . S
C368 C375 1.409 . S
C369 H361 0.930 . S
C369 C367 1.419 . S
C369 C370 1.362 . S
C370 H362 0.930 . S
C370 C369 1.362 . S
C370 C373 1.409 . S
C371 H363 0.930 . S
C371 C372 1.355 . S
C371 C373 1.415 . S
C372 C371 1.355 . S
C372 C374 1.419 . S
C373 C368 1.425 . S
C373 C370 1.409 . S
C373 C371 1.415 . S
C374 H364 0.930 . S
C374 C372 1.419 . S
C374 C375 1.362 . S
C375 H365 0.930 . S
C375 C368 1.409 . S
C375 C374 1.362 . S
H376 C382 0.930 . S
H377 C385 0.930 . S
H378 C386 0.930 . S
H379 C387 0.930 . S
H380 C390 0.930 . S
H381 C391 0.930 . S
C382 H376 0.930 . S
C382 C383 1.355 . S
C382 C384 1.415 . S
C383 C382 1.355 . S
C383 C385 1.419 . S
C384 C382 1.415 . S
C384 C389 1.425 . S
C384 C391 1.409 . S
C385 H377 0.930 . S
C385 C383 1.419 . S
C385 C386 1.362 . S
C386 H378 0.930 . S
C386 C385 1.362 . S
C386 C389 1.409 . S
C387 H379 0.930 . S
C387 C388 1.355 . S
C387 C389 1.415 . S
C388 C387 1.355 . S
C388 C390 1.419 . S
C389 C384 1.425 . S
C389 C386 1.409 . S
C389 C387 1.415 . S
C390 H380 0.930 . S
C390 C388 1.419 . S
C390 C391 1.362 . S
C391 H381 0.930 . S
C391 C384 1.409 . S
C391 C390 1.362 . S
H392 C398 0.930 . S
H393 C401 0.930 . S
H394 C402 0.930 . S
H395 C403 0.930 . S
H396 C406 0.930 . S
H397 C407 0.930 . S
C398 H392 0.930 . S
C398 C399 1.355 . S
C398 C400 1.415 . S
C399 C398 1.355 . S
C399 C401 1.419 . S
C400 C398 1.415 . S
C400 C405 1.425 . S
C400 C407 1.409 . S
C401 H393 0.930 . S
C401 C399 1.419 . S
C401 C402 1.362 . S
C402 H394 0.930 . S
C402 C401 1.362 . S
C402 C405 1.409 . S
C403 H395 0.930 . S
C403 C404 1.355 . S
C403 C405 1.415 . S
C404 C403 1.355 . S
C404 C406 1.419 . S
C405 C400 1.425 . S
C405 C402 1.409 . S
C405 C403 1.415 . S
C406 H396 0.930 . S
C406 C404 1.419 . S
C406 C407 1.362 . S
C407 H397 0.930 . S
C407 C400 1.409 . S
C407 C406 1.362 . S
H408 C414 0.930 . S
H409 C417 0.930 . S
H410 C418 0.930 . S
H411 C419 0.930 . S
H412 C422 0.930 . S
H413 C423 0.930 . S
C414 H408 0.930 . S
C414 C415 1.355 . S
C414 C416 1.415 . S
C415 C414 1.355 . S
C415 C417 1.419 . S
C416 C414 1.415 . S
C416 C421 1.425 . S
C416 C423 1.409 1_554 S
C417 H409 0.930 . S
C417 C415 1.419 . S
C417 C418 1.362 . S
C418 H410 0.930 . S
C418 C417 1.362 . S
C418 C421 1.409 . S
C419 H411 0.930 . S
C419 C420 1.355 . S
C419 C421 1.415 . S
C420 C419 1.355 . S
C420 C422 1.419 1_554 S
C421 C416 1.425 . S
C421 C418 1.409 . S
C421 C419 1.415 . S
C422 H412 0.930 . S
C422 C420 1.419 1_556 S
C422 C423 1.362 . S
C423 H413 0.930 . S
C423 C416 1.409 1_556 S
C423 C422 1.362 . S
H424 C430 0.930 . S
H425 C433 0.930 . S
H426 C434 0.930 . S
H427 C435 0.930 1_556 S
H428 C438 0.930 1_455 S
H429 C439 0.925 1_455 S
C430 H424 0.930 . S
C430 C431 1.355 . S
C430 C432 1.415 . S
C431 C430 1.355 . S
C431 C433 1.419 . S
C432 C430 1.415 . S
C432 C437 1.425 . S
C432 C439 1.409 . S
C433 H425 0.930 . S
C433 C431 1.419 . S
C433 C434 1.362 . S
C434 H426 0.930 . S
C434 C433 1.362 . S
C434 C437 1.409 . S
C435 H427 0.930 1_554 S
C435 C436 1.355 . S
C435 C437 1.415 . S
C436 C435 1.355 . S
C436 C438 1.419 . S
C437 C432 1.425 . S
C437 C434 1.409 . S
C437 C435 1.415 . S
C438 H428 0.930 1_655 S
C438 C436 1.419 . S
C438 C439 1.362 . S
C439 H429 0.925 1_655 S
C439 C432 1.409 . S
C439 C438 1.362 . S
H440 C446 0.930 1_556 S
H441 C449 0.930 . S
H442 C450 0.930 . S
H443 C451 0.930 . S
H444 C454 0.930 . S
H445 C455 0.930 1_556 S
C446 H440 0.930 1_554 S
C446 C447 1.355 . S
C446 C448 1.415 . S
C447 C446 1.355 . S
C447 C449 1.419 . S
C448 C446 1.415 . S
C448 C453 1.425 . S
C448 C455 1.409 . S
C449 H441 0.930 . S
C449 C447 1.419 . S
C449 C450 1.362 . S
C450 H442 0.930 . S
C450 C449 1.362 . S
C450 C453 1.409 . S
C451 H443 0.930 . S
C451 C452 1.355 . S
C451 C453 1.415 . S
C452 C451 1.355 . S
C452 C454 1.419 . S
C453 C448 1.425 . S
C453 C450 1.409 . S
C453 C451 1.415 . S
C454 H444 0.930 . S
C454 C452 1.419 . S
C454 C455 1.362 . S
C455 H445 0.930 1_554 S
C455 C448 1.409 . S
C455 C454 1.362 . S
H456 C462 0.930 . S
H457 C465 0.928 1_455 S
H458 C466 0.930 . S
H459 C467 0.930 . S
H460 C470 0.930 . S
H461 C471 0.930 . S
C462 H456 0.930 . S
C462 C463 1.355 1_655 S
C462 C464 1.415 . S
C463 C462 1.355 1_455 S
C463 C465 1.420 1_455 S
C464 C462 1.415 . S
C464 C469 1.425 . S
C464 C471 1.409 . S
C465 H457 0.928 1_655 S
C465 C463 1.420 1_655 S
C465 C466 1.364 . S
C466 H458 0.930 . S
C466 C465 1.364 . S
C466 C469 1.409 . S
C467 H459 0.930 . S
C467 C468 1.355 . S
C467 C469 1.415 . S
C468 C467 1.355 . S
C468 C470 1.419 . S
C469 C464 1.425 . S
C469 C466 1.409 . S
C469 C467 1.415 . S
C470 H460 0.930 . S
C470 C468 1.419 . S
C470 C471 1.362 . S
C471 H461 0.930 . S
C471 C464 1.409 . S
C471 C470 1.362 . S
H472 C478 0.930 . S
H473 C481 0.930 . S
H474 C482 0.930 . S
H475 C483 0.930 . S
H476 C486 0.930 . S
H477 C487 0.930 . S
C478 H472 0.930 . S
C478 C479 1.355 . S
C478 C480 1.415 . S
C479 C478 1.355 . S
C479 C481 1.419 . S
C480 C478 1.415 . S
C480 C485 1.425 . S
C480 C487 1.409 . S
C481 H473 0.930 . S
C481 C479 1.419 . S
C481 C482 1.362 . S
C482 H474 0.930 . S
C482 C481 1.362 . S
C482 C485 1.409 . S
C483 H475 0.930 . S
C483 C484 1.355 . S
C483 C485 1.415 . S
C484 C483 1.355 . S
C484 C486 1.419 . S
C485 C480 1.425 . S
C485 C482 1.409 . S
C485 C483 1.415 . S
C486 H476 0.930 . S
C486 C484 1.419 . S
C486 C487 1.362 . S
C487 H477 0.930 . S
C487 C480 1.409 . S
C487 C486 1.362 . S
H488 C494 0.930 . S
H489 C497 0.930 . S
H490 C498 0.930 . S
H491 C499 0.930 . S
H492 C502 0.930 . S
H493 C503 0.930 . S
C494 H488 0.930 . S
C494 C495 1.355 . S
C494 C496 1.415 . S
C495 C494 1.355 . S
C495 C497 1.419 . S
C496 C494 1.415 . S
C496 C501 1.425 . S
C496 C503 1.409 . S
C497 H489 0.930 . S
C497 C495 1.419 . S
C497 C498 1.362 . S
C498 H490 0.930 . S
C498 C497 1.362 . S
C498 C501 1.409 . S
C499 H491 0.930 . S
C499 C500 1.355 . S
C499 C501 1.415 . S
C500 C499 1.355 . S
C500 C502 1.419 . S
C501 C496 1.425 . S
C501 C498 1.409 . S
C501 C499 1.415 . S
C502 H492 0.930 . S
C502 C500 1.419 . S
C502 C503 1.362 . S
C503 H493 0.930 . S
C503 C496 1.409 . S
C503 C502 1.362 . S
H504 C510 0.934 . S
H505 C513 0.930 . S
H506 C514 0.930 . S
H507 C515 0.930 . S
H508 C518 0.930 . S
H509 C519 0.930 . S
C510 H504 0.934 . S
C510 C511 1.350 1_556 S
C510 C512 1.415 . S
C511 C510 1.350 1_554 S
C511 C513 1.419 . S
C512 C510 1.415 . S
C512 C517 1.425 1_556 S
C512 C519 1.409 . S
C513 H505 0.930 . S
C513 C511 1.419 . S
C513 C514 1.362 . S
C514 H506 0.930 . S
C514 C513 1.362 . S
C514 C517 1.409 . S
C515 H507 0.930 . S
C515 C516 1.355 . S
C515 C517 1.415 . S
C516 C515 1.355 . S
C516 C518 1.419 1_554 S
C517 C512 1.425 1_554 S
C517 C514 1.409 . S
C517 C515 1.415 . S
C518 H508 0.930 . S
C518 C516 1.419 1_556 S
C518 C519 1.362 . S
C519 H509 0.930 . S
C519 C512 1.409 . S
C519 C518 1.362 . S
H520 C526 0.930 . S
H521 C529 0.930 . S
H522 C530 0.930 . S
H523 C531 0.930 . S
H524 C534 0.930 . S
H525 C535 0.930 . S
C526 H520 0.930 . S
C526 C527 1.355 1_556 S
C526 C528 1.415 . S
C527 C526 1.355 1_554 S
C527 C529 1.419 . S
C528 C526 1.415 . S
C528 C533 1.425 1_556 S
C528 C535 1.409 . S
C529 H521 0.930 . S
C529 C527 1.419 . S
C529 C530 1.362 . S
C530 H522 0.930 . S
C530 C529 1.362 . S
C530 C533 1.409 . S
C531 H523 0.930 . S
C531 C532 1.355 1_565 S
C531 C533 1.415 . S
C532 C531 1.355 1_545 S
C532 C534 1.419 1_554 S
C533 C528 1.425 1_554 S
C533 C530 1.409 . S
C533 C531 1.415 . S
C534 H524 0.930 . S
C534 C532 1.419 1_556 S
C534 C535 1.362 1_545 S
C535 H525 0.930 . S
C535 C528 1.409 . S
C535 C534 1.362 1_565 S
H536 C542 0.930 . S
H537 C545 0.930 . S
H538 C546 0.930 . S
H539 C547 0.930 . S
H540 C550 0.930 1_545 S
H541 C551 0.930 1_546 S
C542 H536 0.930 . S
C542 C543 1.355 . S
C542 C544 1.415 . S
C543 C542 1.355 . S
C543 C545 1.419 . S
C544 C542 1.415 . S
C544 C549 1.425 . S
C544 C551 1.409 . S
C545 H537 0.930 . S
C545 C543 1.419 . S
C545 C546 1.362 . S
C546 H538 0.930 . S
C546 C545 1.362 . S
C546 C549 1.409 . S
C547 H539 0.930 . S
C547 C548 1.355 . S
C547 C549 1.415 . S
C548 C547 1.355 . S
C548 C550 1.419 1_554 S
C549 C544 1.425 . S
C549 C546 1.409 . S
C549 C547 1.415 . S
C550 H540 0.930 1_565 S
C550 C548 1.419 1_556 S
C550 C551 1.362 1_556 S
C551 H541 0.930 1_564 S
C551 C544 1.409 . S
C551 C550 1.362 1_554 S
H552 C558 0.930 . S
H553 C561 0.930 . S
H554 C562 0.930 . S
H555 C563 0.930 . S
H556 C566 0.930 . S
H557 C567 0.930 . S
C558 H552 0.930 . S
C558 C559 1.355 . S
C558 C560 1.415 . S
C559 C558 1.355 . S
C559 C561 1.419 . S
C560 C558 1.415 . S
C560 C565 1.425 . S
C560 C567 1.409 . S
C561 H553 0.930 . S
C561 C559 1.419 . S
C561 C562 1.362 . S
C562 H554 0.930 . S
C562 C561 1.362 . S
C562 C565 1.409 . S
C563 H555 0.930 . S
C563 C564 1.355 . S
C563 C565 1.415 . S
C564 C563 1.355 . S
C564 C566 1.419 . S
C565 C560 1.425 . S
C565 C562 1.409 . S
C565 C563 1.415 . S
C566 H556 0.930 . S
C566 C564 1.419 . S
C566 C567 1.362 . S
C567 H557 0.930 . S
C567 C560 1.409 . S
C567 C566 1.362 . S
H568 C574 0.930 . S
H569 C577 0.930 . S
H570 C578 0.930 . S
H571 C579 0.930 . S
H572 C582 0.930 . S
H573 C583 0.930 . S
C574 H568 0.930 . S
C574 C575 1.355 . S
C574 C576 1.415 . S
C575 C574 1.355 . S
C575 C577 1.419 . S
C576 C574 1.415 . S
C576 C581 1.425 . S
C576 C583 1.409 . S
C577 H569 0.930 . S
C577 C575 1.419 . S
C577 C578 1.362 . S
C578 H570 0.930 . S
C578 C577 1.362 . S
C578 C581 1.409 . S
C579 H571 0.930 . S
C579 C580 1.355 . S
C579 C581 1.415 . S
C580 C579 1.355 . S
C580 C582 1.419 . S
C581 C576 1.425 . S
C581 C578 1.409 . S
C581 C579 1.415 . S
C582 H572 0.930 . S
C582 C580 1.419 . S
C582 C583 1.362 . S
C583 H573 0.930 . S
C583 C576 1.409 . S
C583 C582 1.362 . S
H584 C590 0.930 . S
H585 C593 0.930 . S
H586 C594 0.930 . S
H587 C595 0.930 . S
H588 C598 0.930 . S
H589 C599 0.930 . S
C590 H584 0.930 . S
C590 C591 1.355 . S
C590 C592 1.415 . S
C591 C590 1.355 . S
C591 C593 1.419 . S
C592 C590 1.415 . S
C592 C597 1.425 . S
C592 C599 1.409 . S
C593 H585 0.930 . S
C593 C591 1.419 . S
C593 C594 1.362 . S
C594 H586 0.930 . S
C594 C593 1.362 . S
C594 C597 1.409 . S
C595 H587 0.930 . S
C595 C596 1.355 . S
C595 C597 1.415 . S
C596 C595 1.355 . S
C596 C598 1.419 . S
C597 C592 1.425 . S
C597 C594 1.409 . S
C597 C595 1.415 . S
C598 H588 0.930 . S
C598 C596 1.419 . S
C598 C599 1.362 . S
C599 H589 0.930 . S
C599 C592 1.409 . S
C599 C598 1.362 . S
H600 C606 0.930 . S
H601 C609 0.930 . S
H602 C610 0.930 . S
H603 C611 0.930 . S
H604 C614 0.930 . S
H605 C615 0.930 . S
C606 H600 0.930 . S
C606 C607 1.355 . S
C606 C608 1.415 . S
C607 C606 1.355 . S
C607 C609 1.419 . S
C608 C606 1.415 . S
C608 C613 1.425 . S
C608 C615 1.409 . S
C609 H601 0.930 . S
C609 C607 1.419 . S
C609 C610 1.362 . S
C610 H602 0.930 . S
C610 C609 1.362 . S
C610 C613 1.409 . S
C611 H603 0.930 . S
C611 C612 1.355 . S
C611 C613 1.415 . S
C612 C611 1.355 . S
C612 C614 1.419 . S
C613 C608 1.425 . S
C613 C610 1.409 . S
C613 C611 1.415 . S
C614 H604 0.930 . S
C614 C612 1.419 . S
C614 C615 1.362 . S
C615 H605 0.930 . S
C615 C608 1.409 . S
C615 C614 1.362 . S
H616 C622 0.930 . S
H617 C625 0.930 . S
H618 C626 0.930 . S
H619 C627 0.930 . S
H620 C630 0.930 . S
H621 C631 0.930 . S
C622 H616 0.930 . S
C622 C623 1.355 . S
C622 C624 1.415 . S
C623 C622 1.355 . S
C623 C625 1.419 . S
C624 C622 1.415 . S
C624 C629 1.425 . S
C624 C631 1.409 . S
C625 H617 0.930 . S
C625 C623 1.419 . S
C625 C626 1.362 . S
C626 H618 0.930 . S
C626 C625 1.362 . S
C626 C629 1.409 . S
C627 H619 0.930 . S
C627 C628 1.355 . S
C627 C629 1.415 . S
C628 C627 1.355 . S
C628 C630 1.419 . S
C629 C624 1.425 . S
C629 C626 1.409 . S
C629 C627 1.415 . S
C630 H620 0.930 . S
C630 C628 1.419 . S
C630 C631 1.362 . S
C631 H621 0.930 . S
C631 C624 1.409 . S
C631 C630 1.362 . S
H632 C638 0.930 . S
H633 C641 0.930 . S
H634 C642 0.930 . S
H635 C643 0.930 . S
H636 C646 0.930 . S
H637 C647 0.930 . S
C638 H632 0.930 . S
C638 C639 1.355 . S
C638 C640 1.415 . S
C639 C638 1.355 . S
C639 C641 1.419 . S
C640 C638 1.415 . S
C640 C645 1.425 . S
C640 C647 1.409 . S
C641 H633 0.930 . S
C641 C639 1.419 . S
C641 C642 1.362 . S
C642 H634 0.930 . S
C642 C641 1.362 . S
C642 C645 1.409 . S
C643 H635 0.930 . S
C643 C644 1.355 . S
C643 C645 1.415 . S
C644 C643 1.355 . S
C644 C646 1.419 . S
C645 C640 1.425 . S
C645 C642 1.409 . S
C645 C643 1.415 . S
C646 H636 0.930 . S
C646 C644 1.419 . S
C646 C647 1.362 . S
C647 H637 0.930 . S
C647 C640 1.409 . S
C647 C646 1.362 . S
H648 C654 0.930 . S
H649 C657 0.930 . S
H650 C658 0.930 . S
H651 C659 0.930 . S
H652 C662 0.930 . S
H653 C663 0.930 . S
C654 H648 0.930 . S
C654 C655 1.355 . S
C654 C656 1.415 . S
C655 C654 1.355 . S
C655 C657 1.419 . S
C656 C654 1.415 . S
C656 C661 1.425 . S
C656 C663 1.409 . S
C657 H649 0.930 . S
C657 C655 1.419 . S
C657 C658 1.362 . S
C658 H650 0.930 . S
C658 C657 1.362 . S
C658 C661 1.409 . S
C659 H651 0.930 . S
C659 C660 1.355 . S
C659 C661 1.415 . S
C660 C659 1.355 . S
C660 C662 1.419 . S
C661 C656 1.425 . S
C661 C658 1.409 . S
C661 C659 1.415 . S
C662 H652 0.930 . S
C662 C660 1.419 . S
C662 C663 1.362 . S
C663 H653 0.930 . S
C663 C656 1.409 . S
C663 C662 1.362 . S
H664 C670 0.930 . S
H665 C673 0.930 . S
H666 C674 0.930 . S
H667 C675 0.930 . S
H668 C678 0.930 . S
H669 C679 0.930 . S
C670 H664 0.930 . S
C670 C671 1.355 . S
C670 C672 1.415 . S
C671 C670 1.355 . S
C671 C673 1.419 . S
C672 C670 1.415 . S
C672 C677 1.425 . S
C672 C679 1.409 . S
C673 H665 0.930 . S
C673 C671 1.419 . S
C673 C674 1.362 . S
C674 H666 0.930 . S
C674 C673 1.362 . S
C674 C677 1.409 . S
C675 H667 0.930 . S
C675 C676 1.355 . S
C675 C677 1.415 . S
C676 C675 1.355 . S
C676 C678 1.419 . S
C677 C672 1.425 . S
C677 C674 1.409 . S
C677 C675 1.415 . S
C678 H668 0.930 . S
C678 C676 1.419 . S
C678 C679 1.362 . S
C679 H669 0.930 . S
C679 C672 1.409 . S
C679 C678 1.362 . S
H680 C686 0.930 . S
H681 C689 0.930 . S
H682 C690 0.930 . S
H683 C691 0.930 . S
H684 C694 0.930 . S
H685 C695 0.930 . S
C686 H680 0.930 . S
C686 C687 1.355 . S
C686 C688 1.415 . S
C687 C686 1.355 . S
C687 C689 1.419 . S
C688 C686 1.415 . S
C688 C693 1.425 . S
C688 C695 1.409 . S
C689 H681 0.930 . S
C689 C687 1.419 . S
C689 C690 1.362 . S
C690 H682 0.930 . S
C690 C689 1.362 . S
C690 C693 1.409 . S
C691 H683 0.930 . S
C691 C692 1.355 . S
C691 C693 1.415 . S
C692 C691 1.355 . S
C692 C694 1.419 . S
C693 C688 1.425 . S
C693 C690 1.409 . S
C693 C691 1.415 . S
C694 H684 0.930 . S
C694 C692 1.419 . S
C694 C695 1.362 . S
C695 H685 0.930 . S
C695 C688 1.409 . S
C695 C694 1.362 . S
H696 C702 0.930 . S
H697 C705 0.930 . S
H698 C706 0.930 . S
H699 C707 0.930 1_554 S
H700 C710 0.930 1_554 S
H701 C711 0.930 . S
C702 H696 0.930 . S
C702 C703 1.355 . S
C702 C704 1.415 . S
C703 C702 1.355 . S
C703 C705 1.419 . S
C704 C702 1.415 . S
C704 C709 1.425 . S
C704 C711 1.409 . S
C705 H697 0.930 . S
C705 C703 1.419 . S
C705 C706 1.362 . S
C706 H698 0.930 . S
C706 C705 1.362 . S
C706 C709 1.409 . S
C707 H699 0.930 1_556 S
C707 C708 1.355 1_556 S
C707 C709 1.415 . S
C708 C707 1.355 1_554 S
C708 C710 1.419 1_554 S
C709 C704 1.425 . S
C709 C706 1.409 . S
C709 C707 1.415 . S
C710 H700 0.930 1_556 S
C710 C708 1.419 1_556 S
C710 C711 1.362 . S
C711 H701 0.930 . S
C711 C704 1.409 . S
C711 C710 1.362 . S
H712 C718 0.930 . S
H713 C721 0.930 . S
H714 C722 0.930 . S
H715 C723 0.930 1_554 S
H716 C726 0.928 1_554 S
H717 C727 0.930 . S
C718 H712 0.930 . S
C718 C719 1.355 . S
C718 C720 1.415 . S
C719 C718 1.355 . S
C719 C721 1.419 . S
C720 C718 1.415 . S
C720 C725 1.425 . S
C720 C727 1.409 . S
C721 H713 0.930 . S
C721 C719 1.419 . S
C721 C722 1.362 . S
C722 H714 0.930 . S
C722 C721 1.362 . S
C722 C725 1.409 . S
C723 H715 0.930 1_556 S
C723 C724 1.355 1_556 S
C723 C725 1.415 . S
C724 C723 1.355 1_554 S
C724 C726 1.418 1_554 S
C725 C720 1.425 . S
C725 C722 1.409 . S
C725 C723 1.415 . S
C726 H716 0.928 1_556 S
C726 C724 1.418 1_556 S
C726 C727 1.365 . S
C727 H717 0.930 . S
C727 C720 1.409 . S
C727 C726 1.365 . S
H728 C734 0.930 . S
H729 C737 0.930 . S
H730 C738 0.930 . S
H731 C739 0.930 1_554 S
H732 C742 0.930 1_554 S
H733 C743 0.930 . S
C734 H728 0.930 . S
C734 C735 1.355 . S
C734 C736 1.415 . S
C735 C734 1.355 . S
C735 C737 1.419 . S
C736 C734 1.415 . S
C736 C741 1.425 . S
C736 C743 1.409 . S
C737 H729 0.930 . S
C737 C735 1.419 . S
C737 C738 1.362 . S
C738 H730 0.930 . S
C738 C737 1.362 . S
C738 C741 1.409 . S
C739 H731 0.930 1_556 S
C739 C740 1.355 1_556 S
C739 C741 1.415 . S
C740 C739 1.355 1_554 S
C740 C742 1.419 1_554 S
C741 C736 1.425 . S
C741 C738 1.409 . S
C741 C739 1.415 . S
C742 H732 0.930 1_556 S
C742 C740 1.419 1_556 S
C742 C743 1.362 . S
C743 H733 0.930 . S
C743 C736 1.409 . S
C743 C742 1.362 . S
H744 C750 0.930 . S
H745 C753 0.930 . S
H746 C754 0.930 . S
H747 C755 0.930 . S
H748 C758 0.930 1_556 S
H749 C759 0.930 . S
C750 H744 0.930 . S
C750 C751 1.355 . S
C750 C752 1.415 . S
C751 C750 1.355 . S
C751 C753 1.419 . S
C752 C750 1.415 . S
C752 C757 1.425 . S
C752 C759 1.409 . S
C753 H745 0.930 . S
C753 C751 1.419 . S
C753 C754 1.362 . S
C754 H746 0.930 . S
C754 C753 1.362 . S
C754 C757 1.409 . S
C755 H747 0.930 . S
C755 C756 1.355 1_554 S
C755 C757 1.415 . S
C756 C755 1.355 1_556 S
C756 C758 1.419 1_556 S
C757 C752 1.425 . S
C757 C754 1.409 . S
C757 C755 1.415 . S
C758 H748 0.930 1_554 S
C758 C756 1.419 1_554 S
C758 C759 1.362 . S
C759 H749 0.930 . S
C759 C752 1.409 . S
C759 C758 1.362 . S
H760 C766 0.930 1_556 S
H761 C769 0.930 1_556 S
H762 C770 0.930 . S
H763 C771 0.930 . S
H764 C774 0.930 . S
H765 C775 0.930 . S
C766 H760 0.930 1_554 S
C766 C767 1.355 1_554 S
C766 C768 1.415 . S
C767 C766 1.355 1_556 S
C767 C769 1.419 1_556 S
C768 C766 1.415 . S
C768 C773 1.425 . S
C768 C775 1.409 . S
C769 H761 0.930 1_554 S
C769 C767 1.419 1_554 S
C769 C770 1.362 . S
C770 H762 0.930 . S
C770 C769 1.362 . S
C770 C773 1.409 . S
C771 H763 0.930 . S
C771 C772 1.355 . S
C771 C773 1.415 . S
C772 C771 1.355 . S
C772 C774 1.419 . S
C773 C768 1.425 . S
C773 C770 1.409 . S
C773 C771 1.415 . S
C774 H764 0.930 . S
C774 C772 1.419 . S
C774 C775 1.362 . S
C775 H765 0.930 . S
C775 C768 1.409 . S
C775 C774 1.362 . S
H776 C782 0.930 . S
H777 C785 0.930 . S
H778 C786 0.930 . S
H779 C787 0.930 . S
H780 C790 0.930 . S
H781 C791 0.930 . S
C782 H776 0.930 . S
C782 C783 1.355 . S
C782 C784 1.415 . S
C783 C782 1.355 . S
C783 C785 1.419 . S
C784 C782 1.415 . S
C784 C789 1.425 . S
C784 C791 1.409 . S
C785 H777 0.930 . S
C785 C783 1.419 . S
C785 C786 1.362 . S
C786 H778 0.930 . S
C786 C785 1.362 . S
C786 C789 1.409 . S
C787 H779 0.930 . S
C787 C788 1.355 1_554 S
C787 C789 1.415 . S
C788 C787 1.355 1_556 S
C788 C790 1.419 . S
C789 C784 1.425 . S
C789 C786 1.409 . S
C789 C787 1.415 . S
C790 H780 0.930 . S
C790 C788 1.419 . S
C790 C791 1.362 1_556 S
C791 H781 0.930 . S
C791 C784 1.409 . S
C791 C790 1.362 1_554 S
C367 C7 1.840 . S
C372 C282 1.799 . S
C383 C47 1.858 . S
C388 C322 1.805 . S
C399 C87 1.883 . S
C404 C242 1.840 . S
C415 C167 1.883 . S
C420 C82 1.858 . S
C431 C207 1.841 . S
C436 C2 1.804 . S
C447 C42 1.812 . S
C452 C127 1.844 . S
C463 C287 1.865 . S
C468 C202 1.813 . S
C479 C327 1.881 . S
C484 C122 1.837 . S
C495 C162 1.850 . S
C500 C247 1.886 1_545 S
C511 C96 1.698 . S
C516 C11 1.692 1_554 S
C527 C51 1.699 1_554 S
C532 C16 1.673 . S
C543 C56 1.675 1_455 S
C548 C91 1.700 1_554 S
C559 C131 1.691 . S
C564 C216 1.694 . S
C575 C136 1.678 . S
C580 C171 1.700 . S
C591 C176 1.695 . S
C596 C211 1.694 . S
C607 C336 1.697 . S
C612 C251 1.693 . S
C623 C291 1.691 . S
C628 C256 1.699 . S
C639 C331 1.700 . S
C644 C296 1.675 . S
C655 C19 1.007 . S
C660 C10 1.007 . S
C671 C59 1.007 . S
C676 C50 1.007 . S
C687 C99 1.003 . S
C692 C90 1.003 . S
C703 C130 1.048 . S
C708 C139 1.048 . S
C719 C170 1.015 . S
C724 C179 1.015 . S
C735 C210 1.058 . S
C740 C219 1.058 . S
C751 C259 1.008 . S
C756 C250 1.008 . S
C767 C290 1.050 . S
C772 C299 1.050 . S
C783 C339 1.010 . S
C788 C330 1.010 . S
