# Generated by pormake.
# Topology fci, (5)-cn, num edge types: 1
# Building blocks:
#     Node 0, Type 0, BuildingBlock: BEQFEK_clean_sbu_0, # of connection points: 5
#     Node 1, Type 0, BuildingBlock: BEQFEK_clean_sbu_0, # of connection points: 5
#     Node 2, Type 0, BuildingBlock: BEQFEK_clean_sbu_0, # of connection points: 5
#     Node 3, Type 0, BuildingBlock: BEQFEK_clean_sbu_0, # of connection points: 5
#     Node 4, Type 0, BuildingBlock: BEQFEK_clean_sbu_0, # of connection points: 5
#     Node 5, Type 0, BuildingBlock: BEQFEK_clean_sbu_0, # of connection points: 5
#     Node 6, Type 0, BuildingBlock: BEQFEK_clean_sbu_0, # of connection points: 5
#     Node 7, Type 0, BuildingBlock: BEQFEK_clean_sbu_0, # of connection points: 5
#     Node 8, Type 0, BuildingBlock: BEQFEK_clean_sbu_0, # of connection points: 5
#     Node 9, Type 0, BuildingBlock: BEQFEK_clean_sbu_0, # of connection points: 5
#     Node 10, Type 0, BuildingBlock: BEQFEK_clean_sbu_0, # of connection points: 5
#     Node 11, Type 0, BuildingBlock: BEQFEK_clean_sbu_0, # of connection points: 5
#     Node 12, Type 0, BuildingBlock: BEQFEK_clean_sbu_0, # of connection points: 5
#     Node 13, Type 0, BuildingBlock: BEQFEK_clean_sbu_0, # of connection points: 5
#     Node 14, Type 0, BuildingBlock: BEQFEK_clean_sbu_0, # of connection points: 5
#     Node 15, Type 0, BuildingBlock: BEQFEK_clean_sbu_0, # of connection points: 5
#     Node 16, Type 0, BuildingBlock: BEQFEK_clean_sbu_0, # of connection points: 5
#     Node 17, Type 0, BuildingBlock: BEQFEK_clean_sbu_0, # of connection points: 5
#     Node 18, Type 0, BuildingBlock: BEQFEK_clean_sbu_0, # of connection points: 5
#     Node 19, Type 0, BuildingBlock: BEQFEK_clean_sbu_0, # of connection points: 5
#     Node 20, Type 0, BuildingBlock: BEQFEK_clean_sbu_0, # of connection points: 5
#     Node 21, Type 0, BuildingBlock: BEQFEK_clean_sbu_0, # of connection points: 5
#     Node 22, Type 0, BuildingBlock: BEQFEK_clean_sbu_0, # of connection points: 5
#     Node 23, Type 0, BuildingBlock: BEQFEK_clean_sbu_0, # of connection points: 5
#     Edge 24, Type (0, 0), BuildingBlock: EZIPEK_clean_linker_0, # of connection points: 2
#     Edge 25, Type (0, 0), BuildingBlock: EZIPEK_clean_linker_0, # of connection points: 2
#     Edge 26, Type (0, 0), BuildingBlock: EZIPEK_clean_linker_0, # of connection points: 2
#     Edge 27, Type (0, 0), BuildingBlock: EZIPEK_clean_linker_0, # of connection points: 2
#     Edge 28, Type (0, 0), BuildingBlock: EZIPEK_clean_linker_0, # of connection points: 2
#     Edge 29, Type (0, 0), BuildingBlock: EZIPEK_clean_linker_0, # of connection points: 2
#     Edge 30, Type (0, 0), BuildingBlock: EZIPEK_clean_linker_0, # of connection points: 2
#     Edge 31, Type (0, 0), BuildingBlock: EZIPEK_clean_linker_0, # of connection points: 2
#     Edge 32, Type (0, 0), BuildingBlock: EZIPEK_clean_linker_0, # of connection points: 2
#     Edge 33, Type (0, 0), BuildingBlock: EZIPEK_clean_linker_0, # of connection points: 2
#     Edge 34, Type (0, 0), BuildingBlock: EZIPEK_clean_linker_0, # of connection points: 2
#     Edge 35, Type (0, 0), BuildingBlock: EZIPEK_clean_linker_0, # of connection points: 2
#     Edge 36, Type (0, 0), BuildingBlock: EZIPEK_clean_linker_0, # of connection points: 2
#     Edge 37, Type (0, 0), BuildingBlock: EZIPEK_clean_linker_0, # of connection points: 2
#     Edge 38, Type (0, 0), BuildingBlock: EZIPEK_clean_linker_0, # of connection points: 2
#     Edge 39, Type (0, 0), BuildingBlock: EZIPEK_clean_linker_0, # of connection points: 2
#     Edge 40, Type (0, 0), BuildingBlock: EZIPEK_clean_linker_0, # of connection points: 2
#     Edge 41, Type (0, 0), BuildingBlock: EZIPEK_clean_linker_0, # of connection points: 2
#     Edge 42, Type (0, 0), BuildingBlock: EZIPEK_clean_linker_0, # of connection points: 2
#     Edge 43, Type (0, 0), BuildingBlock: EZIPEK_clean_linker_0, # of connection points: 2
#     Edge 44, Type (0, 0), BuildingBlock: EZIPEK_clean_linker_0, # of connection points: 2
#     Edge 45, Type (0, 0), BuildingBlock: EZIPEK_clean_linker_0, # of connection points: 2
#     Edge 46, Type (0, 0), BuildingBlock: EZIPEK_clean_linker_0, # of connection points: 2
#     Edge 47, Type (0, 0), BuildingBlock: EZIPEK_clean_linker_0, # of connection points: 2
#     Edge 48, Type (0, 0), BuildingBlock: EZIPEK_clean_linker_0, # of connection points: 2
#     Edge 49, Type (0, 0), BuildingBlock: EZIPEK_clean_linker_0, # of connection points: 2
#     Edge 50, Type (0, 0), BuildingBlock: EZIPEK_clean_linker_0, # of connection points: 2
#     Edge 51, Type (0, 0), BuildingBlock: EZIPEK_clean_linker_0, # of connection points: 2
#     Edge 52, Type (0, 0), BuildingBlock: EZIPEK_clean_linker_0, # of connection points: 2
#     Edge 53, Type (0, 0), BuildingBlock: EZIPEK_clean_linker_0, # of connection points: 2
#     Edge 54, Type (0, 0), BuildingBlock: EZIPEK_clean_linker_0, # of connection points: 2
#     Edge 55, Type (0, 0), BuildingBlock: EZIPEK_clean_linker_0, # of connection points: 2
#     Edge 56, Type (0, 0), BuildingBlock: EZIPEK_clean_linker_0, # of connection points: 2
#     Edge 57, Type (0, 0), BuildingBlock: EZIPEK_clean_linker_0, # of connection points: 2
#     Edge 58, Type (0, 0), BuildingBlock: EZIPEK_clean_linker_0, # of connection points: 2
#     Edge 59, Type (0, 0), BuildingBlock: EZIPEK_clean_linker_0, # of connection points: 2
#     Edge 60, Type (0, 0), BuildingBlock: EZIPEK_clean_linker_0, # of connection points: 2
#     Edge 61, Type (0, 0), BuildingBlock: EZIPEK_clean_linker_0, # of connection points: 2
#     Edge 62, Type (0, 0), BuildingBlock: EZIPEK_clean_linker_0, # of connection points: 2
#     Edge 63, Type (0, 0), BuildingBlock: EZIPEK_clean_linker_0, # of connection points: 2
#     Edge 64, Type (0, 0), BuildingBlock: EZIPEK_clean_linker_0, # of connection points: 2
#     Edge 65, Type (0, 0), BuildingBlock: EZIPEK_clean_linker_0, # of connection points: 2
#     Edge 66, Type (0, 0), BuildingBlock: EZIPEK_clean_linker_0, # of connection points: 2
#     Edge 67, Type (0, 0), BuildingBlock: EZIPEK_clean_linker_0, # of connection points: 2
#     Edge 68, Type (0, 0), BuildingBlock: EZIPEK_clean_linker_0, # of connection points: 2
#     Edge 69, Type (0, 0), BuildingBlock: EZIPEK_clean_linker_0, # of connection points: 2
#     Edge 70, Type (0, 0), BuildingBlock: EZIPEK_clean_linker_0, # of connection points: 2
#     Edge 71, Type (0, 0), BuildingBlock: EZIPEK_clean_linker_0, # of connection points: 2
#     Edge 72, Type (0, 0), BuildingBlock: EZIPEK_clean_linker_0, # of connection points: 2
#     Edge 73, Type (0, 0), BuildingBlock: EZIPEK_clean_linker_0, # of connection points: 2
#     Edge 74, Type (0, 0), BuildingBlock: EZIPEK_clean_linker_0, # of connection points: 2
#     Edge 75, Type (0, 0), BuildingBlock: EZIPEK_clean_linker_0, # of connection points: 2
#     Edge 76, Type (0, 0), BuildingBlock: EZIPEK_clean_linker_0, # of connection points: 2
#     Edge 77, Type (0, 0), BuildingBlock: EZIPEK_clean_linker_0, # of connection points: 2
#     Edge 78, Type (0, 0), BuildingBlock: EZIPEK_clean_linker_0, # of connection points: 2
#     Edge 79, Type (0, 0), BuildingBlock: EZIPEK_clean_linker_0, # of connection points: 2
#     Edge 80, Type (0, 0), BuildingBlock: EZIPEK_clean_linker_0, # of connection points: 2
#     Edge 81, Type (0, 0), BuildingBlock: EZIPEK_clean_linker_0, # of connection points: 2
#     Edge 82, Type (0, 0), BuildingBlock: EZIPEK_clean_linker_0, # of connection points: 2
#     Edge 83, Type (0, 0), BuildingBlock: EZIPEK_clean_linker_0, # of connection points: 2
# Relax obj value: 0.902
# Max RMSD: 0.349
# Mean RMSD: 0.317
data_MOF--net-fci--node1-BEQFEK_clean_sbu_0--edge1-EZIPEK_clean_linker_0
_symmetry_space_group_name_H-M    P1
_symmetry_Int_Tables_number       1
_symmetry_cell_setting            triclinic
loop_
_symmetry_equiv_pos_as_xyz
'x, y, z'
_cell_length_a     42.373252
_cell_length_b     42.388607
_cell_length_c     42.371357
_cell_angle_alpha  89.247333
_cell_angle_beta   89.246383
_cell_angle_gamma 89.225378
loop_
_atom_site_label
_atom_site_type_symbol
_atom_site_fract_x
_atom_site_fract_y
_atom_site_fract_z
_atom_type_partial_charge
Co0 Co 0.16103 0.20076 0.57454 0.0
Co1 Co 0.21294 0.16743 0.5335 0.0
C2 C 0.17767 0.13379 0.58594 0.0
O3 O 0.16228 0.1587 0.59207 0.0
O4 O 0.19817 0.13298 0.56373 0.0
C5 C 0.10617 0.21192 0.60944 0.0
O6 O 0.09655 0.18841 0.59233 0.0
C7 C 0.27856 0.14873 0.5325 0.0
C8 C 0.28958 0.14361 0.48199 0.0
C9 C 0.30393 0.14396 0.51141 0.0
N10 N 0.25172 0.15172 0.51607 0.0
N11 N 0.25826 0.14766 0.48592 0.0
C12 C 0.27929 0.15408 0.56746 0.0
H13 H 0.29692 0.17207 0.57338 0.0
H14 H 0.28528 0.13168 0.57986 0.0
H15 H 0.25582 0.16165 0.57656 0.0
C16 C 0.21114 0.24603 0.5844 0.0
N17 N 0.20099 0.21846 0.57332 0.0
N18 N 0.22194 0.20681 0.55335 0.0
C19 C 0.24552 0.2278 0.54976 0.0
C20 C 0.23971 0.25287 0.56986 0.0
C21 C 0.19258 0.26646 0.60662 0.0
H22 H 0.17218 0.27705 0.59396 0.0
H23 H 0.18326 0.25187 0.62647 0.0
H24 H 0.20721 0.28562 0.61605 0.0
O25 O 0.14433 0.20079 0.53141 0.0
O26 O 0.18056 0.17739 0.50051 0.0
H27 H 0.26299 0.2126 0.50441 0.0
H28 H 0.27717 0.25053 0.51669 0.0
C29 C 0.27086 0.22639 0.52483 0.0
H30 H 0.29244 0.21523 0.53472 0.0
H31 H 0.24177 0.14993 0.46792 0.0
O32 O 0.13309 0.22361 0.60385 0.0
C33 C 0.1539 0.19147 0.50435 0.0
Co34 Co 0.51978 0.40358 0.30544 0.0
Co35 Co 0.54272 0.46387 0.26809 0.0
C36 C 0.58296 0.42877 0.31663 0.0
O37 O 0.56125 0.40956 0.32353 0.0
O38 O 0.57933 0.45002 0.29544 0.0
C39 C 0.51363 0.35198 0.34872 0.0
O40 O 0.54455 0.35216 0.34748 0.0
C41 C 0.55721 0.5283 0.27963 0.0
C42 C 0.53553 0.55317 0.2393 0.0
C43 C 0.54587 0.55766 0.26989 0.0
N44 N 0.55108 0.5071 0.2572 0.0
N45 N 0.53969 0.5224 0.23242 0.0
C46 C 0.57146 0.5199 0.31087 0.0
H47 H 0.59525 0.50934 0.30685 0.0
H48 H 0.55686 0.50189 0.32313 0.0
H49 H 0.5737 0.54093 0.32597 0.0
C50 C 0.4664 0.44507 0.32126 0.0
N51 N 0.49523 0.44031 0.30832 0.0
N52 N 0.50242 0.46431 0.28972 0.0
C53 C 0.47717 0.48421 0.28878 0.0
C54 C 0.45413 0.473 0.30931 0.0
C55 C 0.44999 0.42238 0.34302 0.0
H56 H 0.44313 0.40133 0.32955 0.0
H57 H 0.46628 0.41459 0.36193 0.0
H58 H 0.42845 0.43314 0.35377 0.0
O59 O 0.5231 0.39257 0.26017 0.0
O60 O 0.53835 0.43471 0.23171 0.0
H61 H 0.48234 0.50241 0.24166 0.0
H62 H 0.44669 0.51518 0.26154 0.0
C63 C 0.47217 0.50983 0.26463 0.0
H64 H 0.48339 0.53178 0.27209 0.0
H65 H 0.53141 0.51145 0.21228 0.0
O66 O 0.49816 0.37045 0.3307 0.0
C67 C 0.52988 0.40587 0.2337 0.0
Co68 Co 0.35815 0.79897 0.0722 0.0
Co69 Co 0.30365 0.82654 0.03053 0.0
C70 C 0.33773 0.86615 0.07648 0.0
O71 O 0.35561 0.84302 0.08309 0.0
O72 O 0.31585 0.86391 0.05645 0.0
C73 C 0.37923 0.7885 0.13186 0.0
O74 O 0.35247 0.80408 0.13593 0.0
C75 C 0.23721 0.84234 0.02795 0.0
C76 C 0.22738 0.84173 0.97715 0.0
C77 C 0.21219 0.84367 0.00649 0.0
N78 N 0.26457 0.83885 0.01182 0.0
N79 N 0.2587 0.83955 0.98139 0.0
C80 C 0.23606 0.84115 0.06339 0.0
H81 H 0.25968 0.83577 0.07308 0.0
H82 H 0.21932 0.82316 0.07227 0.0
H83 H 0.22882 0.86456 0.07252 0.0
C84 C 0.3086 0.75309 0.09019 0.0
N85 N 0.31821 0.7797 0.07544 0.0
N86 N 0.29626 0.78939 0.05568 0.0
C87 C 0.27268 0.76822 0.05617 0.0
C88 C 0.27925 0.74539 0.07882 0.0
C89 C 0.32823 0.7339 0.11267 0.0
H90 H 0.35241 0.73095 0.10282 0.0
H91 H 0.32956 0.74636 0.13542 0.0
H92 H 0.31812 0.71034 0.11755 0.0
O93 O 0.37392 0.79311 0.02875 0.0
O94 O 0.33622 0.8138 0.99799 0.0
H95 H 0.24211 0.74116 0.02704 0.0
H96 H 0.22511 0.77703 0.04134 0.0
C97 C 0.24723 0.76621 0.03207 0.0
H98 H 0.2544 0.77818 0.00978 0.0
H99 H 0.27574 0.83621 0.96371 0.0
O100 O 0.3878 0.7818 0.10389 0.0
C101 C 0.36288 0.79973 0.00154 0.0
Co102 Co 0.98261 0.59343 0.80387 0.0
Co103 Co 0.95177 0.54182 0.76361 0.0
C104 C 0.91944 0.56878 0.82158 0.0
O105 O 0.94271 0.58634 0.82653 0.0
O106 O 0.91954 0.55025 0.79822 0.0
C107 C 0.00616 0.61515 0.85865 0.0
O108 O 0.99819 0.58609 0.86607 0.0
C109 C 0.9412 0.47542 0.76423 0.0
C110 C 0.92749 0.464 0.71581 0.0
C111 C 0.936 0.45028 0.74453 0.0
N112 N 0.93827 0.50244 0.74758 0.0
N113 N 0.92899 0.49563 0.71885 0.0
C114 C 0.95056 0.47373 0.79825 0.0
H115 H 0.95742 0.4971 0.80703 0.0
H116 H 0.97001 0.4563 0.80166 0.0
H117 H 0.93016 0.46567 0.81272 0.0
C118 C 0.03595 0.54697 0.80576 0.0
N119 N 0.00649 0.55621 0.79776 0.0
N120 N 0.99472 0.53557 0.77827 0.0
C121 C 0.01703 0.51308 0.7726 0.0
C122 C 0.04326 0.51914 0.79056 0.0
C123 C 0.05779 0.56517 0.82592 0.0
H124 H 0.05523 0.59072 0.82074 0.0
H125 H 0.05196 0.56064 0.85113 0.0
H126 H 0.08274 0.55788 0.8218 0.0
O127 O 0.97543 0.61227 0.76231 0.0
O128 O 0.95177 0.57776 0.73156 0.0
H129 H 0.99764 0.49405 0.73021 0.0
H130 H 0.03849 0.48373 0.73718 0.0
C131 C 0.01504 0.48765 0.74857 0.0
H132 H 0.00842 0.46515 0.76033 0.0
H133 H 0.92541 0.51233 0.70089 0.0
O134 O 0.00325 0.62438 0.83028 0.0
C135 C 0.96373 0.60494 0.7359 0.0
Co136 Co 0.64954 0.30203 0.40588 0.0
Co137 Co 0.70589 0.3332 0.4409 0.0
C138 C 0.66706 0.3679 0.39173 0.0
O139 O 0.6504 0.34382 0.38771 0.0
O140 O 0.68951 0.36786 0.4115 0.0
C141 C 0.59131 0.28997 0.376 0.0
O142 O 0.58102 0.31465 0.39168 0.0
C143 C 0.77117 0.34953 0.43326 0.0
C144 C 0.79074 0.33131 0.47784 0.0
C145 C 0.79918 0.33894 0.44688 0.0
N146 N 0.74729 0.34505 0.45403 0.0
N147 N 0.75939 0.33596 0.48127 0.0
C148 C 0.7668 0.36427 0.40123 0.0
H149 H 0.74864 0.35131 0.38814 0.0
H150 H 0.78935 0.36482 0.3876 0.0
H151 H 0.75774 0.38876 0.40409 0.0
C152 C 0.69641 0.2532 0.39266 0.0
N153 N 0.68875 0.28228 0.40288 0.0
N154 N 0.71097 0.29258 0.42136 0.0
C155 C 0.73242 0.26903 0.42533 0.0
C156 C 0.72437 0.24406 0.40655 0.0
C157 C 0.67552 0.23317 0.3733 0.0
H158 H 0.65528 0.22521 0.38812 0.0
H159 H 0.66608 0.24728 0.35321 0.0
H160 H 0.68849 0.21213 0.36429 0.0
O161 O 0.63707 0.30385 0.45078 0.0
O162 O 0.6759 0.32686 0.4771 0.0
H163 H 0.76028 0.24159 0.45842 0.0
H164 H 0.7778 0.27731 0.44492 0.0
C165 C 0.75518 0.26659 0.45197 0.0
H166 H 0.74514 0.27843 0.473 0.0
H167 H 0.74597 0.32911 0.50095 0.0
O168 O 0.61904 0.27939 0.38057 0.0
C169 C 0.649 0.31363 0.47631 0.0
Co170 Co 0.45604 0.88952 0.19446 0.0
Co171 Co 0.43196 0.954 0.22249 0.0
C172 C 0.39801 0.92162 0.17061 0.0
O173 O 0.41811 0.89938 0.17081 0.0
O174 O 0.39976 0.94441 0.18961 0.0
C175 C 0.47531 0.85724 0.14254 0.0
O176 O 0.46835 0.88569 0.1318 0.0
C177 C 0.42481 0.01984 0.2071 0.0
C178 C 0.43873 0.04317 0.25079 0.0
C179 C 0.43465 0.04847 0.21865 0.0
N180 N 0.42571 0.99813 0.23057 0.0
N181 N 0.43254 0.01257 0.25702 0.0
C182 C 0.41652 0.01261 0.17373 0.0
H183 H 0.39195 0.00397 0.17314 0.0
H184 H 0.43229 0.99353 0.16487 0.0
H185 H 0.41841 0.03376 0.15814 0.0
C186 C 0.51479 0.92661 0.18428 0.0
N187 N 0.48407 0.92382 0.19266 0.0
N188 N 0.47481 0.94951 0.20754 0.0
C189 C 0.49998 0.9683 0.21095 0.0
C190 C 0.52552 0.95506 0.19528 0.0
C191 C 0.53432 0.90179 0.16825 0.0
H192 H 0.5294 0.87843 0.17909 0.0
H193 H 0.52812 0.90117 0.14293 0.0
H194 H 0.55989 0.90676 0.17003 0.0
O195 O 0.4471 0.88072 0.23989 0.0
O196 O 0.42888 0.92592 0.26064 0.0
H197 H 0.48865 0.98668 0.2566 0.0
H198 H 0.52726 0.99704 0.2421 0.0
C199 C 0.50239 0.9935 0.23523 0.0
H200 H 0.49344 0.01626 0.22602 0.0
H201 H 0.43613 0.00101 0.2786 0.0
O202 O 0.47316 0.85201 0.17209 0.0
C203 C 0.43693 0.8968 0.26333 0.0
Co204 Co 0.85692 0.69297 0.91543 0.0
Co205 Co 0.80405 0.66079 0.95646 0.0
C206 C 0.84131 0.62482 0.90834 0.0
O207 O 0.85772 0.64904 0.90376 0.0
O208 O 0.81778 0.62515 0.92734 0.0
C209 C 0.869 0.70248 0.85434 0.0
O210 O 0.84192 0.6879 0.85681 0.0
C211 C 0.73752 0.64619 0.96143 0.0
C212 C 0.72928 0.64344 0.0127 0.0
C213 C 0.71313 0.64419 0.98421 0.0
N214 N 0.76546 0.64736 0.97616 0.0
N215 N 0.76047 0.64469 0.0068 0.0
C216 C 0.7352 0.65067 0.9263 0.0
H217 H 0.75842 0.6567 0.91574 0.0
H218 H 0.71778 0.6694 0.92011 0.0
H219 H 0.72816 0.62825 0.91544 0.0
C220 C 0.8069 0.74008 0.90496 0.0
N221 N 0.81651 0.71162 0.9159 0.0
N222 N 0.79505 0.70022 0.93547 0.0
C223 C 0.77163 0.72204 0.93869 0.0
C224 C 0.77803 0.74728 0.91869 0.0
C225 C 0.82663 0.76178 0.88494 0.0
H226 H 0.85107 0.76212 0.89394 0.0
H227 H 0.82732 0.75312 0.86037 0.0
H228 H 0.81686 0.78618 0.88451 0.0
O229 O 0.87424 0.69565 0.95835 0.0
O230 O 0.83813 0.66995 0.9879 0.0
H231 H 0.75459 0.70774 0.98476 0.0
H232 H 0.74159 0.74646 0.97202 0.0
C233 C 0.74679 0.72202 0.96417 0.0
H234 H 0.72455 0.71253 0.95492 0.0
H235 H 0.77805 0.64626 0.0237 0.0
O236 O 0.8815 0.71139 0.87989 0.0
C237 C 0.8641 0.68498 0.98494 0.0
Co238 Co 0.03621 0.10651 0.68088 0.0
Co239 Co 0.05713 0.04363 0.71643 0.0
C240 C 0.09913 0.0764 0.66873 0.0
O241 O 0.07879 0.09816 0.66443 0.0
O242 O 0.09424 0.05367 0.68803 0.0
C243 C 0.03157 0.15339 0.63251 0.0
O244 O 0.06202 0.14806 0.62998 0.0
C245 C 0.05843 0.97507 0.71212 0.0
C246 C 0.06265 0.95901 0.76138 0.0
C247 C 0.05628 0.94831 0.73127 0.0
N248 N 0.0636 0.00038 0.73008 0.0
N249 N 0.06742 0.9904 0.75945 0.0
C250 C 0.05322 0.97668 0.67721 0.0
H251 H 0.05358 0.00138 0.66831 0.0
H252 H 0.03068 0.96537 0.67117 0.0
H253 H 0.07233 0.96313 0.66515 0.0
C254 C 0.98289 0.06721 0.66345 0.0
N255 N 0.01138 0.07078 0.67666 0.0
N256 N 0.01772 0.04621 0.69486 0.0
C257 C 0.99224 0.02755 0.69559 0.0
C258 C 0.9701 0.03946 0.67485 0.0
C259 C 0.96715 0.09094 0.64227 0.0
H260 H 0.98387 0.09847 0.62343 0.0
H261 H 0.94576 0.08119 0.63137 0.0
H262 H 0.96022 0.11196 0.65621 0.0
O263 O 0.03607 0.11703 0.72637 0.0
O264 O 0.05227 0.07355 0.75243 0.0
H265 H 0.96161 0.00254 0.72747 0.0
H266 H 0.99069 0.97937 0.70708 0.0
C267 C 0.98656 0.00191 0.71911 0.0
H268 H 0.00234 0.00392 0.7396 0.0
H269 H 0.0708 0.00525 0.77853 0.0
O270 O 0.01617 0.14035 0.65489 0.0
C271 C 0.04255 0.10228 0.75203 0.0
Co272 Co 0.57491 0.15803 0.20438 0.0
Co273 Co 0.53915 0.21265 0.16791 0.0
C274 C 0.59558 0.17915 0.14022 0.0
O275 O 0.59731 0.16175 0.16456 0.0
O276 O 0.57463 0.20078 0.13785 0.0
C277 C 0.63076 0.13552 0.22793 0.0
O278 O 0.63845 0.16278 0.21506 0.0
C279 C 0.53607 0.28019 0.15757 0.0
C280 C 0.48883 0.2884 0.1378 0.0
C281 C 0.51431 0.30389 0.15058 0.0
N282 N 0.52309 0.25211 0.15196 0.0
N283 N 0.49531 0.25716 0.13891 0.0
C284 C 0.56855 0.28416 0.17049 0.0
H285 H 0.57951 0.26111 0.17685 0.0
H286 H 0.568 0.30008 0.19105 0.0
H287 H 0.5837 0.29537 0.15212 0.0
C288 C 0.57551 0.20559 0.25456 0.0
N289 N 0.56981 0.19698 0.2247 0.0
N290 N 0.55153 0.21842 0.21111 0.0
C291 C 0.54358 0.24039 0.2328 0.0
C292 C 0.55942 0.23349 0.26039 0.0
C293 C 0.59333 0.18601 0.2781 0.0
H294 H 0.58331 0.16203 0.27901 0.0
H295 H 0.61844 0.18421 0.27067 0.0
H296 H 0.5921 0.1963 0.30203 0.0
O297 O 0.5325 0.14165 0.19648 0.0
O298 O 0.5064 0.1791 0.16906 0.0
H299 H 0.50325 0.26488 0.25213 0.0
H300 H 0.52702 0.28801 0.22603 0.0
C301 C 0.51727 0.26413 0.22981 0.0
H302 H 0.50144 0.25806 0.21028 0.0
H303 H 0.4799 0.23932 0.13275 0.0
O304 O 0.60192 0.12759 0.22813 0.0
C305 C 0.50777 0.15199 0.18262 0.0
Co306 Co 0.60764 0.79789 0.9776 0.0
Co307 Co 0.5514 0.76084 0.9493 0.0
C308 C 0.58267 0.81383 0.91383 0.0
O309 O 0.60164 0.8178 0.93618 0.0
O310 O 0.56188 0.79257 0.91533 0.0
C311 C 0.62955 0.85474 0.99613 0.0
O312 O 0.60179 0.86141 0.98404 0.0
C313 C 0.48562 0.76527 0.93437 0.0
C314 C 0.47075 0.71611 0.92965 0.0
C315 C 0.45886 0.74693 0.92996 0.0
N316 N 0.5111 0.74619 0.93688 0.0
N317 N 0.50226 0.7168 0.93323 0.0
C318 C 0.48712 0.80013 0.94007 0.0
H319 H 0.51024 0.80668 0.94966 0.0
H320 H 0.46821 0.80787 0.95669 0.0
H321 H 0.4844 0.81317 0.91741 0.0
C322 C 0.56063 0.80735 0.02991 0.0
N323 N 0.56923 0.79652 0.0012 0.0
N324 N 0.54643 0.77903 0.99034 0.0
C325 C 0.52317 0.77729 0.01243 0.0
C326 C 0.53097 0.796 0.03762 0.0
C327 C 0.58091 0.82712 0.05022 0.0
H328 H 0.58093 0.85168 0.04099 0.0
H329 H 0.57235 0.82785 0.07499 0.0
H330 H 0.60529 0.81751 0.04979 0.0
O331 O 0.62407 0.754 0.97351 0.0
O332 O 0.58459 0.72666 0.95302 0.0
H333 H 0.48792 0.74873 0.03558 0.0
H334 H 0.47518 0.7684 0.0003 0.0
C335 C 0.4954 0.75586 0.01134 0.0
H336 H 0.50137 0.73448 0.99763 0.0
H337 H 0.51734 0.69721 0.93497 0.0
O338 O 0.63863 0.82606 0.99729 0.0
C339 C 0.61264 0.72818 0.96377 0.0
Co340 Co 0.89729 0.85267 0.68958 0.0
Co341 Co 0.93865 0.80026 0.65782 0.0
C342 C 0.89005 0.83318 0.62138 0.0
O343 O 0.8839 0.84846 0.64625 0.0
O344 O 0.91196 0.81223 0.62034 0.0
C345 C 0.85866 0.90531 0.69488 0.0
O346 O 0.87368 0.91318 0.66878 0.0
C347 C 0.95955 0.73476 0.64481 0.0
C348 C 0.00711 0.73557 0.6647 0.0
C349 C 0.98332 0.71508 0.65668 0.0
N350 N 0.96719 0.76501 0.64939 0.0
N351 N 0.99659 0.76528 0.65941 0.0
C352 C 0.9301 0.72474 0.62876 0.0
H353 H 0.91136 0.74316 0.63094 0.0
H354 H 0.92191 0.70158 0.63801 0.0
H355 H 0.93552 0.72185 0.60326 0.0
C356 C 0.88843 0.80556 0.73834 0.0
N357 N 0.89944 0.81446 0.70983 0.0
N358 N 0.91117 0.79011 0.69452 0.0
C359 C 0.90455 0.76404 0.71214 0.0
C360 C 0.89165 0.77335 0.74081 0.0
C361 C 0.87482 0.82759 0.76237 0.0
H362 H 0.88868 0.84962 0.76259 0.0
H363 H 0.85025 0.8339 0.75577 0.0
H364 H 0.87444 0.8165 0.78625 0.0
O365 O 0.937 0.87138 0.69144 0.0
O366 O 0.96857 0.83691 0.66864 0.0
H367 H 0.89112 0.71486 0.71697 0.0
H368 H 0.88163 0.73393 0.67994 0.0
C369 C 0.89936 0.73211 0.69893 0.0
H370 H 0.92111 0.723 0.68891 0.0
H371 H 0.0082 0.78558 0.66625 0.0
O372 O 0.86587 0.87993 0.70935 0.0
C373 C 0.96429 0.86369 0.68175 0.0
Co374 Co 0.89462 0.19252 0.45525 0.0
Co375 Co 0.95847 0.21818 0.42747 0.0
C376 C 0.92551 0.16313 0.399 0.0
O377 O 0.90332 0.16568 0.41906 0.0
O378 O 0.94892 0.18158 0.39912 0.0
C379 C 0.86061 0.14264 0.4782 0.0
O380 O 0.88833 0.13009 0.47125 0.0
C381 C 0.02625 0.20944 0.42582 0.0
C382 C 0.04396 0.25488 0.40756 0.0
C383 C 0.05368 0.22643 0.42123 0.0
N384 N 0.00147 0.22768 0.41752 0.0
N385 N 0.01222 0.25445 0.40555 0.0
C386 C 0.02344 0.17661 0.43911 0.0
H387 H 0.99856 0.17099 0.44487 0.0
H388 H 0.03844 0.17335 0.4602 0.0
H389 H 0.03196 0.15958 0.42118 0.0
C390 C 0.93361 0.18556 0.51327 0.0
N391 N 0.92961 0.19346 0.4826 0.0
N392 N 0.95521 0.20758 0.47188 0.0
C393 C 0.9753 0.21078 0.49613 0.0
C394 C 0.9628 0.19596 0.52261 0.0
C395 C 0.90989 0.16896 0.53369 0.0
H396 H 0.88606 0.17904 0.52941 0.0
H397 H 0.90989 0.14357 0.52776 0.0
H398 H 0.91556 0.17114 0.55906 0.0
O399 O 0.88523 0.23639 0.44131 0.0
O400 O 0.92976 0.25548 0.41999 0.0
H401 H 0.00401 0.24756 0.47579 0.0
H402 H 0.00606 0.2434 0.51813 0.0
C403 C 0.00442 0.23035 0.49567 0.0
H404 H 0.02567 0.21493 0.49412 0.0
H405 H 0.99788 0.27308 0.3977 0.0
O406 O 0.85688 0.17229 0.4748 0.0
C407 C 0.90079 0.25872 0.42824 0.0
Co408 Co 0.078 0.33313 0.78325 0.0
Co409 Co 0.03249 0.28501 0.81534 0.0
C410 C 0.08322 0.31894 0.85117 0.0
O411 O 0.0924 0.33306 0.82633 0.0
O412 O 0.06023 0.29987 0.85092 0.0
C413 C 0.11828 0.38392 0.76944 0.0
O414 O 0.10364 0.39672 0.79366 0.0
C415 C 0.02941 0.21957 0.83345 0.0
C416 C 0.97853 0.21041 0.83594 0.0
C417 C 0.00777 0.19489 0.83619 0.0
N418 N 0.0135 0.24714 0.83079 0.0
N419 N 0.98306 0.24168 0.83337 0.0
C420 C 0.06462 0.21757 0.82914 0.0
H421 H 0.07463 0.24112 0.82412 0.0
H422 H 0.07119 0.20137 0.80972 0.0
H423 H 0.07563 0.20904 0.85126 0.0
C424 C 0.08841 0.28196 0.73915 0.0
N425 N 0.07699 0.29266 0.7668 0.0
N426 N 0.05494 0.2737 0.7775 0.0
C427 C 0.05045 0.25105 0.7559 0.0
C428 C 0.07193 0.25531 0.7313 0.0
C429 C 0.11153 0.2993 0.71859 0.0
H430 H 0.09979 0.32059 0.70839 0.0
H431 H 0.13166 0.30702 0.73295 0.0
H432 H 0.12052 0.28431 0.69906 0.0
O433 O 0.03537 0.35195 0.77977 0.0
O434 O 0.00112 0.31836 0.80187 0.0
H435 H 0.01581 0.22414 0.73137 0.0
H436 H 0.03007 0.2063 0.76705 0.0
C437 C 0.02306 0.22909 0.75588 0.0
H438 H 0.00275 0.23935 0.76912 0.0
H439 H 0.96542 0.2589 0.8307 0.0
O440 O 0.10936 0.35749 0.75951 0.0
C441 C 0.00716 0.34419 0.78713 0.0
Co442 Co 0.38931 0.29644 0.53481 0.0
Co443 Co 0.45426 0.26391 0.55141 0.0
C444 C 0.42139 0.30931 0.5953 0.0
O445 O 0.3989 0.31289 0.57627 0.0
O446 O 0.44451 0.29091 0.58919 0.0
C447 C 0.35816 0.35128 0.52421 0.0
O448 O 0.38668 0.35914 0.53277 0.0
C449 C 0.52012 0.27591 0.5601 0.0
C450 C 0.54333 0.2357 0.5365 0.0
C451 C 0.54869 0.26606 0.54702 0.0
N452 N 0.49837 0.25375 0.55497 0.0
N453 N 0.51276 0.22904 0.54233 0.0
C454 C 0.51303 0.30685 0.57552 0.0
H455 H 0.50427 0.30243 0.59994 0.0
H456 H 0.49408 0.31945 0.56248 0.0
H457 H 0.5343 0.32179 0.57646 0.0
C458 C 0.42527 0.31529 0.47689 0.0
N459 N 0.42341 0.30228 0.50612 0.0
N460 N 0.44954 0.28603 0.51168 0.0
C461 C 0.46785 0.28671 0.48528 0.0
C462 C 0.45357 0.30613 0.46312 0.0
C463 C 0.39931 0.3332 0.46078 0.0
H464 H 0.37663 0.32111 0.46504 0.0
H465 H 0.39763 0.35737 0.4704 0.0
H466 H 0.40379 0.33511 0.43496 0.0
O467 O 0.38067 0.25063 0.53643 0.0
O468 O 0.42622 0.2264 0.54911 0.0
H469 H 0.48767 0.24007 0.48723 0.0
H470 H 0.49832 0.26203 0.45215 0.0
C471 C 0.49399 0.26374 0.47796 0.0
H472 H 0.51618 0.27114 0.48867 0.0
H473 H 0.50116 0.20903 0.53467 0.0
O474 O 0.352 0.32215 0.52209 0.0
C475 C 0.39697 0.22563 0.54201 0.0
Co476 Co 0.4079 0.66201 0.30736 0.0
Co477 Co 0.44374 0.71598 0.34088 0.0
C478 C 0.39323 0.67716 0.37366 0.0
O479 O 0.38892 0.6614 0.349 0.0
O480 O 0.4135 0.69908 0.37438 0.0
C481 C 0.37683 0.60508 0.29271 0.0
O482 O 0.39025 0.59431 0.31851 0.0
C483 C 0.43961 0.78247 0.35434 0.0
C484 C 0.48903 0.7951 0.36191 0.0
C485 C 0.45918 0.80868 0.35772 0.0
N486 N 0.45739 0.75594 0.35549 0.0
N487 N 0.48679 0.76354 0.3611 0.0
C488 C 0.4052 0.78179 0.34641 0.0
H489 H 0.39755 0.75741 0.34188 0.0
H490 H 0.40008 0.79691 0.32551 0.0
H491 H 0.39088 0.79011 0.36677 0.0
C492 C 0.39664 0.7114 0.26036 0.0
N493 N 0.40639 0.70219 0.28911 0.0
N494 N 0.42528 0.72347 0.30043 0.0
C495 C 0.42979 0.74611 0.27814 0.0
C496 C 0.41123 0.73951 0.25238 0.0
C497 C 0.37653 0.69188 0.23963 0.0
H498 H 0.39104 0.67229 0.22973 0.0
H499 H 0.35697 0.68147 0.25378 0.0
H500 H 0.36661 0.7062 0.21992 0.0
O501 O 0.45244 0.64826 0.30927 0.0
O502 O 0.47949 0.68551 0.33385 0.0
H503 H 0.47456 0.76233 0.29459 0.0
H504 H 0.46504 0.77457 0.25474 0.0
C505 C 0.45527 0.77025 0.27883 0.0
H506 H 0.44532 0.79294 0.2874 0.0
H507 H 0.50564 0.74745 0.36172 0.0
O508 O 0.3827 0.6328 0.2828 0.0
C509 C 0.47819 0.65914 0.31966 0.0
Co510 Co 0.12659 0.68735 0.02752 0.0
Co511 Co 0.06332 0.71912 0.05234 0.0
C512 C 0.09988 0.67335 0.09247 0.0
O513 O 0.11951 0.67208 0.06998 0.0
O514 O 0.07496 0.69008 0.08921 0.0
C515 C 0.14625 0.62917 0.0104 0.0
O516 O 0.11643 0.62691 0.01899 0.0
C517 C 0.99684 0.71157 0.06646 0.0
C518 C 0.97618 0.7536 0.04328 0.0
C519 C 0.96861 0.72359 0.05444 0.0
N520 N 0.02011 0.7321 0.05983 0.0
N521 N 0.00726 0.75793 0.04756 0.0
C522 C 0.00195 0.681 0.08397 0.0
H523 H 0.01986 0.66634 0.07139 0.0
H524 H 0.97961 0.66785 0.08695 0.0
H525 H 0.01156 0.68602 0.1076 0.0
C526 C 0.08744 0.67481 0.97249 0.0
N527 N 0.0906 0.68509 0.00226 0.0
N528 N 0.06419 0.69904 0.0116 0.0
C529 C 0.04381 0.69876 0.9872 0.0
C530 C 0.05752 0.68226 0.96262 0.0
C531 C 0.11339 0.66133 0.95224 0.0
H532 H 0.13625 0.67153 0.95875 0.0
H533 H 0.11415 0.63531 0.95518 0.0
H534 H 0.10944 0.66643 0.9269 0.0
O535 O 0.13793 0.73224 0.02842 0.0
O536 O 0.09361 0.75542 0.04731 0.0
H537 H 0.02241 0.74452 0.99033 0.0
H538 H 0.00864 0.72168 0.95801 0.0
C539 C 0.01605 0.72048 0.98305 0.0
H540 H 0.99579 0.7122 0.9971 0.0
H541 H 0.02015 0.77702 0.0388 0.0
O542 O 0.15876 0.65626 0.01183 0.0
C543 C 0.12215 0.75676 0.03683 0.0
Co544 Co 0.20028 0.58279 0.16417 0.0
Co545 Co 0.17515 0.53368 0.21069 0.0
C546 C 0.13876 0.5918 0.18761 0.0
O547 O 0.16457 0.60551 0.18266 0.0
O548 O 0.13916 0.56279 0.19576 0.0
C549 C 0.22036 0.6405 0.13898 0.0
O550 O 0.2113 0.64934 0.16733 0.0
C551 C 0.15557 0.53631 0.27527 0.0
C552 C 0.17505 0.49176 0.29442 0.0
C553 C 0.16537 0.52188 0.30317 0.0
N554 N 0.1623 0.51694 0.2511 0.0
N555 N 0.17221 0.48963 0.26287 0.0
C556 C 0.14186 0.56887 0.27115 0.0
H557 H 0.15674 0.58279 0.2545 0.0
H558 H 0.13957 0.58117 0.29405 0.0
H559 H 0.1182 0.56715 0.26043 0.0
C560 C 0.25652 0.58214 0.20421 0.0
N561 N 0.22731 0.57315 0.19655 0.0
N562 N 0.21741 0.55117 0.21638 0.0
C563 C 0.24126 0.54446 0.23654 0.0
C564 C 0.26618 0.56443 0.22989 0.0
C565 C 0.27494 0.60731 0.18758 0.0
H566 H 0.27362 0.60407 0.1618 0.0
H567 H 0.26464 0.63071 0.19348 0.0
H568 H 0.30006 0.60675 0.19471 0.0
O569 O 0.19065 0.5421 0.14279 0.0
O570 O 0.17951 0.50291 0.1758 0.0
H571 H 0.23166 0.49627 0.2482 0.0
H572 H 0.26728 0.51093 0.2652 0.0
C573 C 0.24255 0.51703 0.25903 0.0
H574 H 0.22993 0.52288 0.28117 0.0
H575 H 0.18067 0.47093 0.24923 0.0
O576 O 0.2184 0.61162 0.13191 0.0
C577 C 0.18418 0.51304 0.14757 0.0
Co578 Co 0.70503 0.90994 0.83987 0.0
Co579 Co 0.66378 0.95949 0.8032 0.0
C580 C 0.6359 0.90233 0.83513 0.0
O581 O 0.66289 0.89389 0.84459 0.0
O582 O 0.63195 0.92717 0.81832 0.0
C583 C 0.72232 0.86702 0.88656 0.0
O584 O 0.69796 0.88054 0.90058 0.0
C585 C 0.64207 0.9691 0.74015 0.0
C586 C 0.63924 0.02062 0.73505 0.0
C587 C 0.63974 0.99319 0.71718 0.0
N588 N 0.64426 0.98204 0.76889 0.0
N589 N 0.64125 0.01288 0.76587 0.0
C590 C 0.64726 0.93437 0.73526 0.0
H591 H 0.65235 0.922 0.75783 0.0
H592 H 0.66692 0.93003 0.71831 0.0
H593 H 0.62549 0.92381 0.72616 0.0
C594 C 0.74137 0.90896 0.78156 0.0
N595 N 0.7153 0.91705 0.79803 0.0
N596 N 0.70174 0.94185 0.78481 0.0
C597 C 0.72002 0.95146 0.76026 0.0
C598 C 0.74497 0.93041 0.75695 0.0
C599 C 0.76492 0.88463 0.79225 0.0
H600 H 0.77877 0.8943 0.81186 0.0
H601 H 0.75248 0.86339 0.80122 0.0
H602 H 0.78135 0.878 0.77273 0.0
O603 O 0.70953 0.95045 0.86107 0.0
O604 O 0.67686 0.98617 0.83998 0.0
H605 H 0.7036 -0.00022 0.75849 0.0
H606 H 0.74138 0.99276 0.73962 0.0
C607 C 0.71755 0.98294 0.74402 0.0
H608 H 0.70651 0.98006 0.7207 0.0
H609 H 0.64409 0.02871 0.78424 0.0
O610 O 0.7316 0.8771 0.85967 0.0
C611 C 0.69749 0.97821 0.86056 0.0
Co612 Co 0.79421 0.97788 0.60707 0.0
Co613 Co 0.75167 0.95574 0.55215 0.0
C614 C 0.8046 0.91532 0.57692 0.0
O615 O 0.81153 0.93613 0.5967 0.0
O616 O 0.78167 0.91937 0.55832 0.0
C617 C 0.85382 0.99341 0.62529 0.0
O618 O 0.85761 0.98535 0.59561 0.0
C619 C 0.75072 0.9435 0.48582 0.0
C620 C 0.70068 0.93738 0.4747 0.0
C621 C 0.73053 0.93873 0.46067 0.0
N622 N 0.7336 0.94585 0.51262 0.0
N623 N 0.70367 0.94141 0.50602 0.0
C624 C 0.78587 0.94772 0.48454 0.0
H625 H 0.79475 0.95678 0.50706 0.0
H626 H 0.79267 0.96398 0.46497 0.0
H627 H 0.79764 0.92458 0.48057 0.0
C628 C 0.80348 0.0328 0.56269 0.0
N629 N 0.79152 0.00431 0.57039 0.0
N630 N 0.77232 0.99568 0.54795 0.0
C631 C 0.77087 0.01892 0.52582 0.0
C632 C 0.79143 0.04252 0.53387 0.0
C633 C 0.82497 0.05123 0.58304 0.0
H634 H 0.84971 0.04335 0.5789 0.0
H635 H 0.82374 0.07682 0.57765 0.0
H636 H 0.81845 0.04747 0.60811 0.0
O637 O 0.75111 0.9757 0.62655 0.0
O638 O 0.71993 0.96034 0.58755 0.0
H639 H 0.72667 0.00712 0.50473 0.0
H640 H 0.74194 0.04525 0.49316 0.0
C641 C 0.74838 0.02036 0.49886 0.0
H642 H 0.75976 0.01025 0.47752 0.0
H643 H 0.68528 0.94213 0.52263 0.0
O644 O 0.82607 0.99318 0.63708 0.0
C645 C 0.72382 0.96919 0.61602 0.0
Co646 Co 0.7958 0.07107 0.35965 0.0
Co647 Co 0.82074 0.02813 0.30524 0.0
C648 C 0.86373 0.07 0.34132 0.0
O649 O 0.84102 0.0774 0.35943 0.0
O650 O 0.85993 0.05149 0.31829 0.0
C651 C 0.79201 0.12954 0.38547 0.0
O652 O 0.81285 0.13228 0.3624 0.0
C653 C 0.83524 0.02392 0.23816 0.0
C654 C 0.83247 0.97297 0.22975 0.0
C655 C 0.83547 0.00175 0.21375 0.0
N656 N 0.83158 0.00867 0.26603 0.0
N657 N 0.83091 0.97812 0.26093 0.0
C658 C 0.83521 0.0593 0.23587 0.0
H659 H 0.83022 0.06995 0.25915 0.0
H660 H 0.81757 0.06814 0.21869 0.0
H661 H 0.85894 0.06745 0.2285 0.0
C662 C 0.75207 0.09301 0.31041 0.0
N663 N 0.7781 0.07684 0.31937 0.0
N664 N 0.78553 0.05588 0.2978 0.0
C665 C 0.76322 0.05679 0.27529 0.0
C666 C 0.74187 0.08088 0.28214 0.0
C667 C 0.73544 0.11733 0.33009 0.0
H668 H 0.75197 0.13657 0.33523 0.0
H669 H 0.71467 0.12772 0.31793 0.0
H670 H 0.72769 0.10647 0.35282 0.0
O671 O 0.78534 0.02841 0.37405 0.0
O672 O 0.80493 0.99614 0.33715 0.0
H673 H 0.76975 0.0092 0.25888 0.0
H674 H 0.73318 0.02803 0.24717 0.0
C675 C 0.75869 0.03179 0.25114 0.0
H676 H 0.76931 0.0394 0.2283 0.0
H677 H 0.82714 0.96104 0.27848 0.0
O678 O 0.77855 0.10311 0.38873 0.0
C679 C 0.79009 0.00082 0.36321 0.0
Co680 Co 0.68452 0.03281 0.11565 0.0
Co681 Co 0.72468 0.0528 0.05562 0.0
C682 C 0.67732 0.0967 0.08746 0.0
O683 O 0.67025 0.07631 0.1085 0.0
O684 O 0.69759 0.09095 0.06571 0.0
C685 C 0.63737 0.02616 0.16557 0.0
O686 O 0.63825 0.05696 0.16834 0.0
C687 C 0.72497 0.05633 0.98687 0.0
C688 C 0.77543 0.05754 0.97423 0.0
C689 C 0.74571 0.05392 0.96142 0.0
N690 N 0.74147 0.05953 0.01353 0.0
N691 N 0.77167 0.06142 0.00565 0.0
C692 C 0.68983 0.05324 0.98585 0.0
H693 H 0.6792 0.05375 0.00989 0.0
H694 H 0.68345 0.03126 0.97371 0.0
H695 H 0.67992 0.07315 0.97171 0.0
C696 C 0.66569 0.9821 0.07359 0.0
N697 N 0.68074 0.00935 0.07878 0.0
N698 N 0.70091 0.01476 0.05559 0.0
C699 C 0.70099 0.98971 0.03632 0.0
C700 C 0.67805 0.96893 0.04638 0.0
C701 C 0.64136 0.96794 0.09518 0.0
H702 H 0.62415 0.98642 0.10258 0.0
H703 H 0.62866 0.94864 0.08352 0.0
H704 H 0.65307 0.9582 0.11653 0.0
O705 O 0.72926 0.03048 0.12898 0.0
O706 O 0.75859 0.04582 0.08738 0.0
H707 H 0.73287 0.95768 0.01309 0.0
H708 H 0.71457 0.98682 0.98849 0.0
C709 C 0.72541 0.98287 0.01177 0.0
H710 H 0.74631 0.99791 0.01459 0.0
H711 H 0.78987 0.06289 0.02189 0.0
O712 O 0.65659 0.01229 0.14707 0.0
C713 C 0.75602 0.03605 0.11598 0.0
Co714 Co 0.30519 0.41569 0.64952 0.0
Co715 Co 0.33333 0.44248 0.71171 0.0
C716 C 0.36947 0.39693 0.67172 0.0
O717 O 0.34738 0.39778 0.65205 0.0
O718 O 0.3678 0.41255 0.69709 0.0
C719 C 0.29266 0.36181 0.61904 0.0
O720 O 0.30342 0.35272 0.64672 0.0
C721 C 0.34425 0.43355 0.77883 0.0
C722 C 0.35298 0.48179 0.79477 0.0
C723 C 0.34909 0.45109 0.80624 0.0
N724 N 0.3448 0.45318 0.75361 0.0
N725 N 0.35089 0.48187 0.76317 0.0
C726 C 0.33667 0.39924 0.77577 0.0
H727 H 0.32962 0.39386 0.75137 0.0
H728 H 0.31746 0.39222 0.7923 0.0
H729 H 0.35801 0.38471 0.78067 0.0
C730 C 0.25191 0.40151 0.69185 0.0
N731 N 0.28202 0.41035 0.68722 0.0
N732 N 0.29232 0.42386 0.71289 0.0
C733 C 0.26845 0.42495 0.73434 0.0
C734 C 0.24256 0.41027 0.72187 0.0
C735 C 0.23146 0.38826 0.66685 0.0
H736 H 0.23361 0.40274 0.64495 0.0
H737 H 0.2396 0.36393 0.66148 0.0
H738 H 0.20634 0.38749 0.67449 0.0
O739 O 0.30711 0.46125 0.64103 0.0
O740 O 0.32897 0.48133 0.68416 0.0
H741 H 0.28444 0.46421 0.76139 0.0
H742 H 0.24397 0.45338 0.76894 0.0
C743 C 0.26811 0.44412 0.7638 0.0
H744 H 0.27514 0.42901 0.78412 0.0
H745 H 0.35185 0.50171 0.74836 0.0
O746 O 0.28733 0.39111 0.6146 0.0
C747 C 0.31678 0.48459 0.65681 0.0
Co748 Co 0.30239 0.53368 0.4112 0.0
Co749 Co 0.26577 0.55737 0.47148 0.0
C750 C 0.31602 0.59591 0.43702 0.0
O751 O 0.32189 0.57418 0.41754 0.0
O752 O 0.29485 0.59294 0.45841 0.0
C753 C 0.33778 0.52883 0.35401 0.0
O754 O 0.32812 0.55805 0.34944 0.0
C755 C 0.27422 0.57419 0.53627 0.0
C756 C 0.23545 0.54852 0.55953 0.0
C757 C 0.26495 0.56112 0.56513 0.0
N758 N 0.25313 0.56642 0.51426 0.0
N759 N 0.22896 0.55291 0.52872 0.0
C760 C 0.30323 0.59313 0.52945 0.0
H761 H 0.31896 0.5805 0.5126 0.0
H762 H 0.31621 0.59805 0.55139 0.0
H763 H 0.29622 0.61582 0.51803 0.0
C764 C 0.31683 0.47947 0.45165 0.0
N765 N 0.30426 0.50853 0.44747 0.0
N766 N 0.28635 0.51601 0.47192 0.0
C767 C 0.2858 0.49066 0.49178 0.0
C768 C 0.30546 0.46715 0.47981 0.0
C769 C 0.3384 0.4634 0.4285 0.0
H770 H 0.35694 0.47998 0.42035 0.0
H771 H 0.34974 0.44205 0.43902 0.0
H772 H 0.32463 0.45638 0.4077 0.0
O773 O 0.25795 0.53958 0.39914 0.0
O774 O 0.22988 0.5561 0.44104 0.0
H775 H 0.2622 0.46138 0.52667 0.0
H776 H 0.27295 0.49968 0.5397 0.0
C777 C 0.26394 0.48657 0.51942 0.0
H778 H 0.24009 0.49534 0.5132 0.0
H779 H 0.20992 0.5432 0.51707 0.0
O780 O 0.32754 0.51335 0.37772 0.0
C781 C 0.23182 0.54783 0.41213 0.0
Co782 Co 0.19091 0.44513 0.88565 0.0
Co783 Co 0.21671 0.42234 0.95219 0.0
C784 C 0.16678 0.38698 0.91729 0.0
O785 O 0.16797 0.40658 0.89454 0.0
O786 O 0.18393 0.3898 0.94158 0.0
C787 C 0.15389 0.45006 0.83049 0.0
O788 O 0.1566 0.41919 0.83122 0.0
C789 C 0.20624 0.42655 0.02042 0.0
C790 C 0.25313 0.41643 0.04016 0.0
C791 C 0.2231 0.42739 0.04826 0.0
N792 N 0.22558 0.41714 0.99676 0.0
N793 N 0.25338 0.41009 0.00898 0.0
C794 C 0.17257 0.43678 0.01613 0.0
H795 H 0.16605 0.43671 0.99087 0.0
H796 H 0.16839 0.4605 0.02624 0.0
H797 H 0.15707 0.42022 0.02937 0.0
C798 C 0.17794 0.50297 0.9206 0.0
N799 N 0.18744 0.47254 0.91949 0.0
N800 N 0.20224 0.46486 0.94563 0.0
C801 C 0.20473 0.49111 0.96294 0.0
C802 C 0.18876 0.51558 0.94822 0.0
C803 C 0.15933 0.5197 0.89558 0.0
H804 H 0.17477 0.52378 0.87462 0.0
H805 H 0.13942 0.50477 0.88838 0.0
H806 H 0.1501 0.5428 0.90395 0.0
O807 O 0.23651 0.4367 0.87857 0.0
O808 O 0.25535 0.4185 0.92469 0.0
H809 H 0.23701 0.51765 0.99018 0.0
H810 H 0.20963 0.49462 0.01246 0.0
C811 C 0.22494 0.49456 0.99114 0.0
H812 H 0.24296 0.47547 0.99236 0.0
H813 H 0.27315 0.40317 0.99572 0.0
O814 O 0.1699 0.4661 0.84944 0.0
C815 C 0.25915 0.4263 0.8956 0.0
C816 C 0.30268 0.30808 0.59804 0.0
C817 C 0.28602 0.33714 0.59525 0.0
C818 C 0.24592 0.31153 0.56384 0.0
C819 C 0.25855 0.28178 0.57364 0.0
N820 N 0.29977 0.25119 0.59907 0.0
N821 N 0.25154 0.36861 0.56232 0.0
C822 C 0.28767 0.27983 0.58968 0.0
C823 C 0.26051 0.33972 0.57399 0.0
N824 N 0.33317 0.30789 0.6081 0.0
N825 N 0.21951 0.31255 0.54563 0.0
H826 H 0.2645 0.38888 0.56593 0.0
H827 H 0.23385 0.37219 0.54584 0.0
H828 H 0.20986 0.29234 0.53604 0.0
H829 H 0.20666 0.33301 0.54053 0.0
H830 H 0.3476 0.28781 0.60849 0.0
H831 H 0.34508 0.32875 0.61253 0.0
H832 H 0.3189 0.24863 0.6141 0.0
H833 H 0.28946 0.22979 0.59367 0.0
C834 C 0.36751 0.49864 0.3124 0.0
C835 C 0.36767 0.51793 0.33944 0.0
C836 C 0.42403 0.50747 0.34659 0.0
C837 C 0.42433 0.48903 0.31893 0.0
N838 N 0.39806 0.46961 0.27312 0.0
N839 N 0.39662 0.54645 0.37833 0.0
C840 C 0.39654 0.48547 0.30099 0.0
C841 C 0.39615 0.52416 0.35526 0.0
N842 N 0.33951 0.49238 0.29826 0.0
N843 N 0.45005 0.50803 0.36534 0.0
H844 H 0.37659 0.55903 0.38566 0.0
H845 H 0.4173 0.55466 0.38816 0.0
H846 H 0.47142 0.49698 0.35948 0.0
H847 H 0.44993 0.51767 0.38782 0.0
H848 H 0.337 0.47597 0.28046 0.0
H849 H 0.3182 0.50293 0.30532 0.0
H850 H 0.37957 0.4688 0.25726 0.0
H851 H 0.41871 0.45869 0.26482 0.0
C852 C 0.27205 0.68696 0.08079 0.0
C853 C 0.26015 0.71751 0.08748 0.0
C854 C 0.21519 0.69423 0.11525 0.0
C855 C 0.23138 0.6647 0.11583 0.0
N856 N 0.2757 0.63247 0.09758 0.0
N857 N 0.22004 0.75087 0.11134 0.0
C858 C 0.2596 0.66061 0.09759 0.0
C859 C 0.23128 0.72139 0.10429 0.0
N860 N 0.29523 0.68325 0.05836 0.0
N861 N 0.18428 0.69612 0.12474 0.0
H862 H 0.23118 0.77151 0.10397 0.0
H863 H 0.20089 0.75483 0.12653 0.0
H864 H 0.17154 0.67631 0.13186 0.0
H865 H 0.17044 0.71647 0.12207 0.0
H866 H 0.30283 0.66131 0.05022 0.0
H867 H 0.3046 0.70226 0.04563 0.0
H868 H 0.29853 0.62992 0.08848 0.0
H869 H 0.26727 0.61183 0.10785 0.0
C870 C 0.09563 0.45955 0.83249 0.0
C871 C 0.12516 0.46492 0.81717 0.0
C872 C 0.10036 0.50402 0.7818 0.0
C873 C 0.07084 0.49811 0.79681 0.0
N874 N 0.03884 0.46618 0.83186 0.0
N875 N 0.15568 0.4888 0.77523 0.0
C876 C 0.06801 0.4744 0.82054 0.0
C877 C 0.12752 0.48611 0.7911 0.0
N878 N 0.09422 0.44187 0.85974 0.0
N879 N 0.1024 0.52732 0.75928 0.0
H880 H 0.17588 0.47609 0.78177 0.0
H881 H 0.15871 0.50179 0.75446 0.0
H882 H 0.08266 0.53975 0.75108 0.0
H883 H 0.12354 0.53534 0.74957 0.0
H884 H 0.07416 0.44033 0.8741 0.0
H885 H 0.11375 0.43064 0.86974 0.0
H886 H 0.03488 0.44632 0.84601 0.0
H887 H 0.01807 0.47772 0.82521 0.0
C888 C 0.7708 0.21386 0.38695 0.0
C889 C 0.74185 0.21383 0.40381 0.0
C890 C 0.75107 0.1585 0.41939 0.0
C891 C 0.77915 0.1587 0.40063 0.0
N892 N 0.82303 0.19093 0.38449 0.0
N893 N 0.70681 0.18876 0.44142 0.0
C894 C 0.79144 0.18784 0.39015 0.0
C895 C 0.73259 0.18685 0.42175 0.0
N896 N 0.77808 0.23807 0.36673 0.0
N897 N 0.74294 0.13177 0.43569 0.0
H898 H 0.69291 0.20917 0.44333 0.0
H899 H 0.69976 0.17086 0.45684 0.0
H900 H 0.759 0.11327 0.43943 0.0
H901 H 0.72109 0.12834 0.44658 0.0
H902 H 0.79779 0.23734 0.35175 0.0
H903 H 0.76273 0.25708 0.36254 0.0
H904 H 0.83323 0.21248 0.37858 0.0
H905 H 0.83917 0.17293 0.39005 0.0
C906 C 0.58186 0.01154 0.15485 0.0
C907 C 0.60852 0.00896 0.17473 0.0
C908 C 0.58125 0.96979 0.20799 0.0
C909 C 0.55533 0.97133 0.18715 0.0
N910 N 0.53297 0.98872 0.13775 0.0
N911 N 0.63575 0.98359 0.21784 0.0
C912 C 0.55623 0.99079 0.15972 0.0
C913 C 0.60887 0.98743 0.20064 0.0
N914 N 0.58087 0.03406 0.13141 0.0
N915 N 0.5791 0.95197 0.23504 0.0
H916 H 0.65581 0.99719 0.21387 0.0
H917 H 0.63889 0.96599 0.23491 0.0
H918 H 0.5597 0.93783 0.24032 0.0
H919 H 0.59558 0.95236 0.25301 0.0
H920 H 0.56056 0.03985 0.11893 0.0
H921 H 0.59973 0.04871 0.12571 0.0
H922 H 0.5342 0.99934 0.11549 0.0
H923 H 0.51332 0.97439 0.14067 0.0
C924 C 0.75587 0.83434 0.92281 0.0
C925 C 0.73366 0.83605 0.89815 0.0
C926 C 0.73444 0.77845 0.89382 0.0
C927 C 0.75995 0.7772 0.91509 0.0
N928 N 0.79454 0.80255 0.9513 0.0
N929 N 0.70026 0.8107 0.86066 0.0
C930 C 0.77029 0.80475 0.93035 0.0
C931 C 0.72224 0.80831 0.884 0.0
N932 N 0.76289 0.86099 0.93903 0.0
N933 N 0.72185 0.75102 0.88327 0.0
H934 H 0.68936 0.83197 0.85413 0.0
H935 H 0.69357 0.79198 0.84672 0.0
H936 H 0.73066 0.72876 0.88957 0.0
H937 H 0.70128 0.74996 0.87023 0.0
H938 H 0.77668 0.8611 0.95916 0.0
H939 H 0.75309 0.88308 0.93355 0.0
H940 H 0.80585 0.8219 0.96058 0.0
H941 H 0.80429 0.78099 0.95866 0.0
C942 C 0.91069 0.98504 0.63822 0.0
C943 C 0.88207 0.00221 0.64371 0.0
C944 C 0.91097 0.03876 0.67704 0.0
C945 C 0.93974 0.02514 0.66631 0.0
N946 N 0.96765 0.98669 0.63465 0.0
N947 N 0.85543 0.04719 0.66786 0.0
C948 C 0.93981 0.99844 0.64662 0.0
C949 C 0.88213 0.02927 0.66343 0.0
N950 N 0.91005 0.95556 0.62549 0.0
N951 N 0.91121 0.06051 0.70058 0.0
H952 H 0.8333 0.04123 0.65985 0.0
H953 H 0.85554 0.06939 0.67809 0.0
H954 H 0.932 0.06805 0.71087 0.0
H955 H 0.89083 0.06877 0.71193 0.0
H956 H 0.9298 0.94072 0.62403 0.0
H957 H 0.88922 0.94438 0.6196 0.0
H958 H 0.96886 0.96959 0.61723 0.0
H959 H 0.9896 0.99583 0.64008 0.0
C960 C 0.54514 0.24327 0.31705 0.0
C961 C 0.56123 0.25292 0.28907 0.0
C962 C 0.58756 0.29446 0.31783 0.0
C963 C 0.57601 0.28107 0.34647 0.0
N964 N 0.5425 0.24466 0.37445 0.0
N965 N 0.59801 0.2873 0.26208 0.0
C966 C 0.55399 0.25628 0.34641 0.0
C967 C 0.58202 0.27887 0.28909 0.0
N968 N 0.52158 0.22169 0.31532 0.0
N969 N 0.604 0.32201 0.31827 0.0
H970 H 0.59439 0.27678 0.24036 0.0
H971 H 0.61638 0.30336 0.26142 0.0
H972 H 0.60868 0.33387 0.33907 0.0
H973 H 0.61034 0.33476 0.29805 0.0
H974 H 0.50721 0.2152 0.33434 0.0
H975 H 0.51479 0.21197 0.29399 0.0
H976 H 0.52883 0.22452 0.37656 0.0
H977 H 0.54752 0.25494 0.39604 0.0
C978 C 0.52262 0.79562 0.09631 0.0
C979 C 0.51146 0.8039 0.0659 0.0
C980 C 0.46775 0.83301 0.09038 0.0
C981 C 0.484 0.83241 0.11942 0.0
N982 N 0.52719 0.81137 0.15065 0.0
N983 N 0.47326 0.83198 0.03369 0.0
C984 C 0.51112 0.81258 0.12293 0.0
C985 C 0.48355 0.82244 0.06277 0.0
N986 N 0.54451 0.77189 0.09954 0.0
N987 N 0.4373 0.84395 0.0893 0.0
H988 H 0.48467 0.82586 0.0127 0.0
H989 H 0.45489 0.84827 0.03057 0.0
H990 H 0.42489 0.85093 0.10955 0.0
H991 H 0.42346 0.84262 0.06921 0.0
H992 H 0.5516 0.76289 0.12135 0.0
H993 H 0.5532 0.7592 0.08026 0.0
H994 H 0.54935 0.80069 0.15282 0.0
H995 H 0.51936 0.82222 0.1712 0.0
C996 C 0.91144 0.7525 0.79267 0.0
C997 C 0.88758 0.7533 0.76932 0.0
C998 C 0.86059 0.71018 0.79613 0.0
C999 C 0.8802 0.7139 0.82265 0.0
N1000 N 0.93236 0.72655 0.83966 0.0
N1001 N 0.83755 0.73538 0.7504 0.0
C1002 C 0.9081 0.73177 0.81923 0.0
C1003 C 0.86159 0.73285 0.7715 0.0
N1004 N 0.93689 0.77187 0.78962 0.0
N1005 N 0.84332 0.68346 0.79299 0.0
H1006 H 0.83743 0.75189 0.73191 0.0
H1007 H 0.81662 0.72291 0.75301 0.0
H1008 H 0.8462 0.66394 0.80796 0.0
H1009 H 0.83035 0.67872 0.7729 0.0
H1010 H 0.95333 0.77516 0.80724 0.0
H1011 H 0.94102 0.78603 0.76972 0.0
H1012 H 0.95419 0.73736 0.83789 0.0
H1013 H 0.93204 0.70819 0.85629 0.0
C1014 C 0.97784 0.20296 0.5794 0.0
C1015 C 0.98047 0.18565 0.55103 0.0
C1016 C 0.01492 0.14657 0.57683 0.0
C1017 C 0.0142 0.16503 0.60457 0.0
N1018 N 0.99746 0.21167 0.63228 0.0
N1019 N 0.00423 0.14322 0.52107 0.0
C1020 C 0.99624 0.19348 0.60592 0.0
C1021 C 0.99991 0.15819 0.54925 0.0
N1022 N 0.95734 0.2281 0.58101 0.0
N1023 N 0.02831 0.11697 0.57735 0.0
H1024 H 0.99186 0.14921 0.50072 0.0
H1025 H 0.02162 0.12606 0.51721 0.0
H1026 H 0.03899 0.10694 0.59717 0.0
H1027 H 0.02623 0.10092 0.55913 0.0
H1028 H 0.9518 0.23997 0.60173 0.0
H1029 H 0.94428 0.23607 0.56171 0.0
H1030 H 0.98759 0.23421 0.63385 0.0
H1031 H 0.0103 0.20501 0.65219 0.0
C1032 C 0.06941 0.24425 0.6427 0.0
C1033 C 0.09076 0.21848 0.64009 0.0
C1034 C 0.08963 0.21053 0.69751 0.0
C1035 C 0.07302 0.23953 0.70031 0.0
N1036 N 0.04336 0.28243 0.67689 0.0
N1037 N 0.12041 0.1756 0.66396 0.0
C1038 C 0.06137 0.25571 0.67321 0.0
C1039 C 0.10017 0.20079 0.66719 0.0
N1040 N 0.05685 0.25742 0.61596 0.0
N1041 N 0.09542 0.19253 0.72387 0.0
H1042 H 0.1272 0.16666 0.64208 0.0
H1043 H 0.13147 0.16419 0.68276 0.0
H1044 H 0.0886 0.1995 0.74649 0.0
H1045 H 0.10458 0.16964 0.72328 0.0
H1046 H 0.03935 0.27486 0.61592 0.0
H1047 H 0.06234 0.24907 0.59346 0.0
H1048 H 0.03682 0.29752 0.65849 0.0
H1049 H 0.03535 0.28995 0.69896 0.0
C1050 C 0.46531 0.30055 0.40507 0.0
C1051 C 0.46784 0.31806 0.43322 0.0
C1052 C 0.49841 0.35855 0.4052 0.0
C1053 C 0.49785 0.33993 0.37759 0.0
N1054 N 0.48335 0.29262 0.35094 0.0
N1055 N 0.48868 0.362 0.46156 0.0
C1056 C 0.48193 0.31075 0.37739 0.0
C1057 C 0.48485 0.34664 0.43367 0.0
N1058 N 0.44654 0.27456 0.40483 0.0
N1059 N 0.51116 0.38807 0.40392 0.0
H1060 H 0.4783 0.35469 0.48283 0.0
H1061 H 0.50386 0.38081 0.46434 0.0
H1062 H 0.52213 0.39748 0.3838 0.0
H1063 H 0.50892 0.40441 0.42195 0.0
H1064 H 0.44121 0.26223 0.38456 0.0
H1065 H 0.43451 0.26634 0.42489 0.0
H1066 H 0.47496 0.26971 0.34996 0.0
H1067 H 0.49488 0.29984 0.33021 0.0
C1068 C 0.39909 0.78636 0.21733 0.0
C1069 C 0.41133 0.75533 0.22098 0.0
C1070 C 0.41136 0.74811 0.1638 0.0
C1071 C 0.39754 0.77878 0.16021 0.0
N1072 N 0.39206 0.83096 0.18183 0.0
N1073 N 0.44095 0.71245 0.19788 0.0
C1074 C 0.39614 0.79923 0.18649 0.0
C1075 C 0.42147 0.73815 0.1942 0.0
N1076 N 0.38854 0.80288 0.24295 0.0
N1077 N 0.41327 0.72762 0.13922 0.0
H1078 H 0.44925 0.70512 0.21992 0.0
H1079 H 0.45149 0.70067 0.17898 0.0
H1080 H 0.40827 0.73358 0.11598 0.0
H1081 H 0.41871 0.70374 0.14226 0.0
H1082 H 0.37635 0.82433 0.2411 0.0
H1083 H 0.38974 0.79408 0.26598 0.0
H1084 H 0.39316 0.84722 0.2 0.0
H1085 H 0.39124 0.84115 0.15928 0.0
C1086 C 0.00308 0.6328 0.91435 0.0
C1087 C 0.01644 0.6367 0.88371 0.0
C1088 C 0.04969 0.6784 0.90422 0.0
C1089 C 0.04145 0.6688 0.93528 0.0
N1090 N 0.01493 0.63125 0.96959 0.0
N1091 N 0.05665 0.66138 0.85049 0.0
C1092 C 0.01932 0.64453 0.94037 0.0
C1093 C 0.04065 0.65934 0.87862 0.0
N1094 N 0.97442 0.61887 0.91868 0.0
N1095 N 0.06637 0.70539 0.89923 0.0
H1096 H 0.05255 0.64692 0.8314 0.0
H1097 H 0.07644 0.67545 0.8472 0.0
H1098 H 0.07341 0.7196 0.91774 0.0
H1099 H 0.07057 0.71494 0.8768 0.0
H1100 H 0.96312 0.61764 0.94069 0.0
H1101 H 0.96023 0.61248 0.89992 0.0
H1102 H 0.00141 0.61109 0.97317 0.0
H1103 H 0.02706 0.63826 0.9895 0.0
C1104 C 0.35053 0.56476 0.25946 0.0
C1105 C 0.34823 0.58994 0.28104 0.0
C1106 C 0.29167 0.59571 0.27179 0.0
C1107 C 0.29379 0.5708 0.24979 0.0
N1108 N 0.3231 0.52791 0.22623 0.0
N1109 N 0.31612 0.6231 0.31468 0.0
C1110 C 0.3226 0.55397 0.2449 0.0
C1111 C 0.31857 0.60338 0.28942 0.0
N1112 N 0.37952 0.55206 0.25222 0.0
N1113 N 0.26438 0.6131 0.27475 0.0
H1114 H 0.33542 0.62901 0.32834 0.0
H1115 H 0.29466 0.63097 0.32413 0.0
H1116 H 0.24383 0.6081 0.26265 0.0
H1117 H 0.26265 0.6339 0.28748 0.0
H1118 H 0.38357 0.53572 0.23447 0.0
H1119 H 0.40004 0.55876 0.26357 0.0
H1120 H 0.34254 0.51287 0.22372 0.0
H1121 H 0.30312 0.52003 0.21473 0.0
C1122 C 0.77214 0.92233 0.70525 0.0
C1123 C 0.77305 0.93387 0.73639 0.0
C1124 C 0.83015 0.94006 0.73218 0.0
C1125 C 0.82973 0.92205 0.70441 0.0
N1126 N 0.80137 0.89775 0.66238 0.0
N1127 N 0.80121 0.95817 0.77848 0.0
C1128 C 0.80097 0.91446 0.68978 0.0
C1129 C 0.80156 0.94469 0.74934 0.0
N1130 N 0.74377 0.91836 0.69094 0.0
N1131 N 0.85801 0.95227 0.74194 0.0
H1132 H 0.78029 0.96341 0.79071 0.0
H1133 H 0.82141 0.96346 0.79093 0.0
H1134 H 0.87904 0.94921 0.72913 0.0
H1135 H 0.85998 0.9674 0.76093 0.0
H1136 H 0.7415 0.91268 0.66726 0.0
H1137 H 0.72228 0.92341 0.70213 0.0
H1138 H 0.7814 0.88814 0.65245 0.0
H1139 H 0.82214 0.89236 0.65001 0.0
C1140 C 0.81972 0.06575 0.48654 0.0
C1141 C 0.80156 0.0702 0.51454 0.0
C1142 C 0.81517 0.12619 0.51456 0.0
C1143 C 0.8344 0.12126 0.48727 0.0
N1144 N 0.84316 0.09067 0.44035 0.0
N1145 N 0.77287 0.1061 0.54814 0.0
C1146 C 0.83252 0.09244 0.47087 0.0
C1147 C 0.79605 0.10106 0.52602 0.0
N1148 N 0.82678 0.0361 0.47604 0.0
N1149 N 0.81654 0.15373 0.53079 0.0
H1150 H 0.75868 0.08791 0.55682 0.0
H1151 H 0.76585 0.1285 0.5555 0.0
H1152 H 0.82938 0.17314 0.52306 0.0
H1153 H 0.80613 0.15674 0.55297 0.0
H1154 H 0.84276 0.03179 0.45764 0.0
H1155 H 0.81894 0.01562 0.48726 0.0
H1156 H 0.84005 0.07088 0.42644 0.0
H1157 H 0.85171 0.11031 0.42798 0.0
C1158 C 0.71288 0.10209 0.23482 0.0
C1159 C 0.71203 0.08871 0.26563 0.0
C1160 C 0.65532 0.09997 0.26998 0.0
C1161 C 0.65633 0.11413 0.23938 0.0
N1162 N 0.6828 0.11699 0.18868 0.0
N1163 N 0.68117 0.06479 0.30742 0.0
C1164 C 0.68412 0.11135 0.22048 0.0
C1165 C 0.68275 0.08427 0.28151 0.0
N1166 N 0.74109 0.1075 0.21984 0.0
N1167 N 0.62909 0.10288 0.28883 0.0
H1168 H 0.70084 0.05256 0.31603 0.0
H1169 H 0.65999 0.05828 0.31826 0.0
H1170 H 0.60801 0.11302 0.28132 0.0
H1171 H 0.62885 0.09673 0.31272 0.0
H1172 H 0.74303 0.12033 0.19878 0.0
H1173 H 0.76281 0.10137 0.2296 0.0
H1174 H 0.7017 0.1126 0.1733 0.0
H1175 H 0.6617 0.12247 0.17727 0.0
C1176 C 0.64933 0.90903 0.98771 0.0
C1177 C 0.64939 0.88119 0.00667 0.0
C1178 C 0.67656 0.90973 0.04813 0.0
C1179 C 0.67001 0.93846 0.03189 0.0
N1180 N 0.64764 0.96603 0.98703 0.0
N1181 N 0.66372 0.85478 0.05566 0.0
C1182 C 0.65603 0.9383 0.0017 0.0
C1183 C 0.66364 0.88123 0.03692 0.0
N1184 N 0.64325 0.90729 0.95617 0.0
N1185 N 0.69578 0.90958 0.0738 0.0
H1186 H 0.65706 0.83272 0.048 0.0
H1187 H 0.66937 0.85501 0.0795 0.0
H1188 H 0.70594 0.93 0.08236 0.0
H1189 H 0.70409 0.88898 0.0847 0.0
H1190 H 0.64484 0.92647 0.94067 0.0
H1191 H 0.63997 0.88584 0.9449 0.0
H1192 H 0.63448 0.96712 0.96645 0.0
H1193 H 0.65128 0.98806 0.99689 0.0
C1194 C 0.15453 0.41905 0.73828 0.0
C1195 C 0.15025 0.39419 0.76048 0.0
C1196 C 0.20675 0.3815 0.75909 0.0
C1197 C 0.21113 0.40629 0.7368 0.0
N1198 N 0.19142 0.45259 0.70954 0.0
N1199 N 0.17226 0.35674 0.79781 0.0
C1200 C 0.18564 0.42638 0.72776 0.0
C1201 C 0.17641 0.37695 0.77269 0.0
N1202 N 0.12878 0.43496 0.72675 0.0
N1203 N 0.23132 0.36148 0.76625 0.0
H1204 H 0.15033 0.35293 0.80854 0.0
H1205 H 0.19077 0.34605 0.81003 0.0
H1206 H 0.25418 0.36445 0.75739 0.0
H1207 H 0.22874 0.34067 0.77928 0.0
H1208 H 0.12976 0.4512 0.70815 0.0
H1209 H 0.10588 0.43092 0.73509 0.0
H1210 H 0.17444 0.46971 0.70417 0.0
H1211 H 0.214 0.45852 0.70157 0.0
C1212 C 0.30401 0.40776 0.4789 0.0
C1213 C 0.31297 0.43578 0.49416 0.0
C1214 C 0.33662 0.40409 0.53631 0.0
C1215 C 0.33499 0.377 0.51728 0.0
N1216 N 0.3147 0.35225 0.4706 0.0
N1217 N 0.34133 0.46059 0.5359 0.0
C1218 C 0.31742 0.37832 0.48887 0.0
C1219 C 0.32972 0.43397 0.52283 0.0
N1220 N 0.28245 0.40931 0.45522 0.0
N1221 N 0.34548 0.40116 0.56711 0.0
H1222 H 0.3391 0.48262 0.52503 0.0
H1223 H 0.35612 0.46024 0.55537 0.0
H1224 H 0.35007 0.37921 0.57767 0.0
H1225 H 0.34476 0.41991 0.58279 0.0
H1226 H 0.27266 0.38946 0.44518 0.0
H1227 H 0.27211 0.43053 0.44767 0.0
H1228 H 0.3064 0.35317 0.44757 0.0
H1229 H 0.32142 0.32969 0.47792 0.0
C1230 C 0.1942 0.57399 0.95552 0.0
C1231 C 0.17901 0.54538 0.96328 0.0
C1232 C 0.15157 0.57058 0.00706 0.0
C1233 C 0.16227 0.60074 0.99651 0.0
N1234 N 0.19287 0.63078 0.95749 0.0
N1235 N 0.13866 0.51757 0.99253 0.0
C1236 C 0.18363 0.60247 0.97004 0.0
C1237 C 0.15635 0.54404 0.98786 0.0
N1238 N 0.21912 0.57387 0.93471 0.0
N1239 N 0.13761 0.56683 0.03605 0.0
H1240 H 0.14104 0.4975 0.97868 0.0
H1241 H 0.1194 0.51674 0.00807 0.0
H1242 H 0.13409 0.58527 0.05154 0.0
H1243 H 0.13282 0.5448 0.0461 0.0
H1244 H 0.2337 0.5932 0.93099 0.0
H1245 H 0.22677 0.5536 0.923 0.0
H1246 H 0.20423 0.63285 0.93562 0.0
H1247 H 0.18815 0.65255 0.96747 0.0
C1248 C 0.15469 0.09386 0.66012 0.0
C1249 C 0.12816 0.07761 0.64902 0.0
C1250 C 0.14585 0.08553 0.59429 0.0
C1251 C 0.16959 0.10567 0.60525 0.0
N1252 N 0.20351 0.12108 0.6469 0.0
N1253 N 0.10352 0.04919 0.60763 0.0
C1254 C 0.17657 0.10664 0.63778 0.0
C1255 C 0.12576 0.07015 0.61667 0.0
N1256 N 0.15754 0.09882 0.69173 0.0
N1257 N 0.14111 0.0833 0.56259 0.0
H1258 H 0.08874 0.03787 0.62399 0.0
H1259 H 0.10131 0.04115 0.58468 0.0
H1260 H 0.15639 0.09358 0.54602 0.0
H1261 H 0.12205 0.072 0.5527 0.0
H1262 H 0.17439 0.11329 0.70145 0.0
H1263 H 0.14218 0.08874 0.70836 0.0
H1264 H 0.21127 0.12159 0.67008 0.0
H1265 H 0.21942 0.13049 0.63036 0.0
C1266 C 0.61205 0.43211 0.36706 0.0
C1267 C 0.61278 0.42561 0.33433 0.0
C1268 C 0.66246 0.39623 0.34078 0.0
C1269 C 0.65745 0.39651 0.37382 0.0
N1270 N 0.6309 0.41764 0.41935 0.0
N1271 N 0.63994 0.40462 0.28883 0.0
C1272 C 0.63384 0.41626 0.38726 0.0
C1273 C 0.63894 0.40939 0.32065 0.0
N1274 N 0.58987 0.45276 0.37863 0.0
N1275 N 0.68922 0.38214 0.32908 0.0
H1276 H 0.62343 0.41473 0.27356 0.0
H1277 H 0.65638 0.39 0.27761 0.0
H1278 H 0.7063 0.3724 0.34401 0.0
H1279 H 0.69571 0.38238 0.30531 0.0
H1280 H 0.58897 0.46028 0.4019 0.0
H1281 H 0.57365 0.46431 0.36403 0.0
H1282 H 0.61208 0.42845 0.43116 0.0
H1283 H 0.64746 0.40706 0.4343 0.0
C1284 C 0.34446 0.90881 0.15062 0.0
C1285 C 0.37468 0.9217 0.14498 0.0
C1286 C 0.37031 0.91216 0.08836 0.0
C1287 C 0.34255 0.89502 0.09478 0.0
N1288 N 0.29763 0.88547 0.12824 0.0
N1289 N 0.41244 0.94423 0.10866 0.0
C1290 C 0.32749 0.89678 0.12471 0.0
C1291 C 0.38598 0.9267 0.11368 0.0
N1292 N 0.3333 0.90605 0.1809 0.0
N1293 N 0.38269 0.9121 0.05843 0.0
H1294 H 0.42445 0.95447 0.12716 0.0
H1295 H 0.42128 0.95041 0.08645 0.0
H1296 H 0.37059 0.90233 0.03967 0.0
H1297 H 0.40469 0.92101 0.0522 0.0
H1298 H 0.31298 0.89391 0.18732 0.0
H1299 H 0.34513 0.91557 0.19994 0.0
H1300 H 0.28428 0.88714 0.14895 0.0
H1301 H 0.28534 0.87659 0.10917 0.0
C1302 C 0.84156 0.59662 0.8577 0.0
C1303 C 0.85078 0.59687 0.88965 0.0
C1304 C 0.89746 0.56468 0.87638 0.0
C1305 C 0.89207 0.57093 0.8439 0.0
N1306 N 0.85787 0.59066 0.80287 0.0
N1307 N 0.88516 0.57872 0.93071 0.0
C1308 C 0.86327 0.58542 0.83424 0.0
C1309 C 0.87761 0.5793 0.89947 0.0
N1310 N 0.81252 0.6085 0.85 0.0
N1311 N 0.92196 0.54522 0.88486 0.0
H1312 H 0.87007 0.58825 0.9479 0.0
H1313 H 0.90638 0.56983 0.93943 0.0
H1314 H 0.9365 0.53417 0.86813 0.0
H1315 H 0.92624 0.53793 0.90798 0.0
H1316 H 0.80303 0.60752 0.82751 0.0
H1317 H 0.7968 0.61696 0.86721 0.0
H1318 H 0.8391 0.60417 0.7943 0.0
H1319 H 0.87299 0.58239 0.78515 0.0
C1320 C 0.67228 0.15152 0.10743 0.0
C1321 C 0.66025 0.12733 0.08851 0.0
C1322 C 0.60787 0.15249 0.08975 0.0
C1323 C 0.61825 0.1718 0.11441 0.0
N1324 N 0.66034 0.19515 0.14272 0.0
N1325 N 0.61883 0.10678 0.05691 0.0
C1326 C 0.6508 0.17361 0.12126 0.0
C1327 C 0.62882 0.12898 0.0775 0.0
N1328 N 0.70395 0.15228 0.11298 0.0
N1329 N 0.57765 0.15591 0.07932 0.0
H1330 H 0.63431 0.09025 0.04686 0.0
H1331 H 0.59553 0.10431 0.05005 0.0
H1332 H 0.56232 0.1732 0.0882 0.0
H1333 H 0.56848 0.14358 0.06055 0.0
H1334 H 0.71488 0.16969 0.1258 0.0
H1335 H 0.71973 0.13608 0.10287 0.0
H1336 H 0.6831 0.19638 0.15146 0.0
H1337 H 0.64472 0.21203 0.15199 0.0
C1338 C 0.57739 0.86847 0.89252 0.0
C1339 C 0.58432 0.83623 0.88679 0.0
C1340 C 0.60959 0.85073 0.83654 0.0
C1341 C 0.60929 0.88262 0.84606 0.0
N1342 N 0.591 0.92299 0.88148 0.0
N1343 N 0.60464 0.79573 0.8525 0.0
C1344 C 0.59173 0.89198 0.8731 0.0
C1345 C 0.59894 0.82698 0.85805 0.0
N1346 N 0.55758 0.87632 0.91696 0.0
N1347 N 0.62117 0.84344 0.80727 0.0
H1348 H 0.59636 0.7779 0.86752 0.0
H1349 H 0.61851 0.78749 0.83382 0.0
H1350 H 0.62904 0.86089 0.79152 0.0
H1351 H 0.62041 0.82099 0.79768 0.0
H1352 H 0.54964 0.89923 0.92125 0.0
H1353 H 0.54682 0.85925 0.93131 0.0
H1354 H 0.58228 0.93098 0.90306 0.0
H1355 H 0.60029 0.94076 0.86699 0.0
C1356 C 0.83865 0.83483 0.59534 0.0
C1357 C 0.87105 0.84238 0.59374 0.0
C1358 C 0.85782 0.89179 0.56607 0.0
C1359 C 0.82567 0.88725 0.57457 0.0
N1360 N 0.78442 0.85183 0.59135 0.0
N1361 N 0.91249 0.87452 0.57272 0.0
C1362 C 0.8157 0.85766 0.58652 0.0
C1363 C 0.88092 0.86935 0.57647 0.0
N1364 N 0.82914 0.80678 0.60789 0.0
N1365 N 0.86594 0.91789 0.54868 0.0
H1366 H 0.92928 0.85761 0.57961 0.0
H1367 H 0.92205 0.89515 0.56339 0.0
H1368 H 0.84907 0.93418 0.54063 0.0
H1369 H 0.88866 0.92237 0.54037 0.0
H1370 H 0.84494 0.78906 0.61507 0.0
H1371 H 0.84494 0.78906 0.61507 0.0
H1372 H 0.77644 0.83052 0.60095 0.0
H1373 H 0.76673 0.86809 0.58536 0.0
C1374 C 0.91131 0.1417 0.34622 0.0
C1375 C 0.92379 0.13653 0.37673 0.0
C1376 C 0.9097 0.08074 0.37497 0.0
C1377 C 0.89358 0.08689 0.34646 0.0
N1378 N 0.88755 0.11895 0.29982 0.0
N1379 N 0.94411 0.10031 0.41569 0.0
C1380 C 0.89781 0.11592 0.33013 0.0
C1381 C 0.92641 0.10551 0.38937 0.0
N1382 N 0.9103 0.17162 0.33387 0.0
N1383 N 0.90688 0.05179 0.38918 0.0
H1384 H 0.95646 0.11841 0.42631 0.0
H1385 H 0.94865 0.07806 0.4254 0.0
H1386 H 0.89569 0.0332 0.37811 0.0
H1387 H 0.91473 0.04641 0.4118 0.0
H1388 H 0.89831 0.17791 0.31341 0.0
H1389 H 0.92091 0.19054 0.34491 0.0
H1390 H 0.89135 0.1388 0.28564 0.0
H1391 H 0.87758 0.10015 0.28802 0.0
C1392 C 0.13116 0.31436 0.88392 0.0
C1393 C 0.10005 0.32638 0.88051 0.0
C1394 C 0.11146 0.36887 0.9171 0.0
C1395 C 0.14396 0.36105 0.91443 0.0
N1396 N 0.18522 0.32488 0.89894 0.0
N1397 N 0.0588 0.36258 0.89607 0.0
C1398 C 0.15386 0.33275 0.89969 0.0
C1399 C 0.0894 0.3524 0.8986 0.0
N1400 N 0.13889 0.28589 0.87102 0.0
N1401 N 0.10221 0.39281 0.93655 0.0
H1402 H 0.04213 0.35008 0.88352 0.0
H1403 H 0.05011 0.38354 0.90554 0.0
H1404 H 0.11838 0.40494 0.9501 0.0
H1405 H 0.07876 0.39892 0.94122 0.0
H1406 H 0.16061 0.27455 0.87389 0.0
H1407 H 0.12224 0.27242 0.85946 0.0
H1408 H 0.19483 0.30655 0.88568 0.0
H1409 H 0.20189 0.33755 0.91133 0.0
C1410 C 0.4172 0.38512 0.64016 0.0
C1411 C 0.39615 0.37538 0.66432 0.0
C1412 C 0.40672 0.32 0.6514 0.0
C1413 C 0.42145 0.33024 0.62298 0.0
N1414 N 0.44396 0.3718 0.59102 0.0
N1415 N 0.37403 0.33439 0.69686 0.0
C1416 C 0.42852 0.36259 0.61804 0.0
C1417 C 0.39271 0.34292 0.67174 0.0
N1418 N 0.42493 0.41623 0.63787 0.0
N1419 N 0.40513 0.28843 0.65797 0.0
H1420 H 0.36463 0.35107 0.71241 0.0
H1421 H 0.36748 0.31132 0.70207 0.0
H1422 H 0.41518 0.2716 0.64298 0.0
H1423 H 0.39607 0.27902 0.67893 0.0
H1424 H 0.44159 0.42517 0.62198 0.0
H1425 H 0.41629 0.43269 0.65408 0.0
H1426 H 0.44689 0.39522 0.58405 0.0
H1427 H 0.453 0.35564 0.57479 0.0
C1428 C 0.34216 0.6736 0.40234 0.0
C1429 C 0.37503 0.66733 0.40203 0.0
C1430 C 0.36735 0.62326 0.43911 0.0
C1431 C 0.33451 0.62515 0.43344 0.0
N1432 N 0.28957 0.6534 0.4127 0.0
N1433 N 0.41999 0.63896 0.42232 0.0
C1434 C 0.32146 0.65131 0.41673 0.0
C1435 C 0.38802 0.64355 0.42193 0.0
N1436 N 0.33108 0.7004 0.38783 0.0
N1437 N 0.3785 0.60137 0.46027 0.0
H1438 H 0.43549 0.65435 0.41081 0.0
H1439 H 0.43111 0.61973 0.43314 0.0
H1440 H 0.36344 0.58634 0.47286 0.0
H1441 H 0.40192 0.59979 0.46726 0.0
H1442 H 0.30756 0.70778 0.38854 0.0
H1443 H 0.34632 0.71669 0.37723 0.0
H1444 H 0.27862 0.66969 0.39772 0.0
H1445 H 0.27394 0.63794 0.42389 0.0
C1446 C 0.12175 0.6226 0.11563 0.0
C1447 C 0.10508 0.65158 0.12044 0.0
C1448 C 0.09957 0.63487 0.17629 0.0
C1449 C 0.11256 0.60491 0.16853 0.0
N1450 N 0.12088 0.56708 0.12755 0.0
N1451 N 0.07653 0.68457 0.15803 0.0
C1452 C 0.11609 0.59747 0.13661 0.0
C1453 C 0.09261 0.6573 0.15148 0.0
N1454 N 0.1474 0.62035 0.09594 0.0
N1455 N 0.09611 0.64239 0.20732 0.0
H1456 H 0.07507 0.70356 0.14229 0.0
H1457 H 0.06432 0.68805 0.17923 0.0
H1458 H 0.10055 0.62572 0.22517 0.0
H1459 H 0.09016 0.66494 0.21508 0.0
H1460 H 0.16132 0.59985 0.09523 0.0
H1461 H 0.1585 0.63965 0.08551 0.0
H1462 H 0.12491 0.56131 0.10396 0.0
H1463 H 0.11787 0.54818 0.1433 0.0
C1464 C 0.35084 0.14965 0.54742 0.0
C1465 C 0.3383 0.1506 0.51674 0.0
C1466 C 0.37724 0.18973 0.50087 0.0
C1467 C 0.38274 0.19538 0.53331 0.0
N1468 N 0.37857 0.17816 0.58762 0.0
N1469 N 0.35511 0.15455 0.46246 0.0
C1470 C 0.37141 0.17401 0.55668 0.0
C1471 C 0.35639 0.16534 0.4926 0.0
N1472 N 0.34428 0.12458 0.56669 0.0
N1473 N 0.39094 0.20846 0.47819 0.0
H1474 H 0.34316 0.13398 0.45712 0.0
H1475 H 0.36919 0.16305 0.444 0.0
H1476 H 0.40786 0.22524 0.48337 0.0
H1477 H 0.38474 0.20815 0.4545 0.0
H1478 H 0.3545 0.12104 0.5887 0.0
H1479 H 0.33065 0.10597 0.55876 0.0
H1480 H 0.36809 0.16532 0.60599 0.0
H1481 H 0.39405 0.19552 0.59484 0.0
C1482 C 0.5436 0.61634 0.27696 0.0
C1483 C 0.53705 0.58574 0.28936 0.0
C1484 C 0.50711 0.61054 0.33262 0.0
C1485 C 0.50654 0.63906 0.31545 0.0
N1486 N 0.52539 0.67078 0.27199 0.0
N1487 N 0.50739 0.55441 0.32813 0.0
C1488 C 0.52573 0.64272 0.28814 0.0
C1489 C 0.51815 0.58287 0.31752 0.0
N1490 N 0.5666 0.62002 0.25439 0.0
N1491 N 0.49499 0.6097 0.36264 0.0
H1492 H 0.51147 0.53325 0.31682 0.0
H1493 H 0.49103 0.55225 0.34653 0.0
H1494 H 0.48609 0.62998 0.37354 0.0
H1495 H 0.49698 0.58999 0.3775 0.0
H1496 H 0.57398 0.64199 0.2461 0.0
H1497 H 0.5804 0.60113 0.24632 0.0
H1498 H 0.53584 0.6739 0.2498 0.0
H1499 H 0.51335 0.69064 0.2805 0.0
C1500 C 0.1411 0.79532 0.99609 0.0
C1501 C 0.13582 0.78774 0.02851 0.0
C1502 C 0.16482 0.83469 0.04286 0.0
C1503 C 0.17799 0.83558 0.01215 0.0
N1504 N 0.16226 0.83316 0.95804 0.0
N1505 N 0.13928 0.80263 0.08316 0.0
C1506 C 0.16093 0.82102 0.98799 0.0
C1507 C 0.14594 0.80862 0.0521 0.0
N1508 N 0.12804 0.77733 0.97325 0.0
N1509 N 0.16839 0.85995 0.06191 0.0
H1510 H 0.12523 0.78384 0.0906 0.0
H1511 H 0.1491 0.81539 0.10137 0.0
H1512 H 0.18 0.88009 0.05366 0.0
H1513 H 0.15729 0.86197 0.0839 0.0
H1514 H 0.13414 0.77916 0.94942 0.0
H1515 H 0.11166 0.75975 0.97837 0.0
H1516 H 0.14888 0.82493 0.93951 0.0
H1517 H 0.17379 0.85427 0.95295 0.0
C1518 C 0.95678 0.37746 0.79228 0.0
C1519 C 0.98154 0.36432 0.77364 0.0
C1520 C 0.97208 0.40363 0.73214 0.0
C1521 C 0.94731 0.41728 0.7507 0.0
N1522 N 0.90897 0.40969 0.79248 0.0
N1523 N 0.00204 0.35608 0.72105 0.0
C1524 C 0.93714 0.40146 0.77874 0.0
C1525 C 0.98528 0.37434 0.74184 0.0
N1526 N 0.95312 0.36872 0.82321 0.0
N1527 N 0.98533 0.41939 0.70705 0.0
H1528 H 0.01134 0.33402 0.72748 0.0
H1529 H 0.0034 0.36121 0.69694 0.0
H1530 H 0.97853 0.44183 0.69952 0.0
H1531 H 0.0057 0.41129 0.6955 0.0
H1532 H 0.9376 0.38025 0.83861 0.0
H1533 H 0.96709 0.3514 0.83401 0.0
H1534 H 0.89923 0.39741 0.81164 0.0
H1535 H 0.89413 0.42693 0.78262 0.0
C1536 C 0.83131 0.30587 0.40672 0.0
C1537 C 0.82977 0.32787 0.43218 0.0
C1538 C 0.88402 0.31249 0.44627 0.0
C1539 C 0.88365 0.28892 0.42296 0.0
N1540 N 0.86257 0.27057 0.3745 0.0
N1541 N 0.85931 0.3599 0.46747 0.0
C1542 C 0.85961 0.2891 0.4005 0.0
C1543 C 0.85792 0.33393 0.44885 0.0
N1544 N 0.80599 0.29749 0.38957 0.0
N1545 N 0.90826 0.31295 0.46715 0.0
H1546 H 0.84061 0.37612 0.46912 0.0
H1547 H 0.8798 0.36692 0.47857 0.0
H1548 H 0.92802 0.29814 0.46488 0.0
H1549 H 0.90818 0.327 0.48713 0.0
H1550 H 0.78291 0.30499 0.39347 0.0
H1551 H 0.78291 0.30499 0.39347 0.0
H1552 H 0.84527 0.26982 0.35721 0.0
H1553 H 0.88317 0.25761 0.36965 0.0
C1554 C 0.47116 0.07437 0.17764 0.0
C1555 C 0.44657 0.0768 0.20104 0.0
C1556 C 0.45577 0.13373 0.20431 0.0
C1557 C 0.48071 0.13054 0.18202 0.0
N1558 N 0.5037 0.10195 0.13897 0.0
N1559 N 0.40918 0.11036 0.22839 0.0
C1560 C 0.48504 0.10226 0.16551 0.0
C1561 C 0.43667 0.10714 0.21149 0.0
N1562 N 0.48383 0.04592 0.16908 0.0
N1563 N 0.45157 0.1615 0.21987 0.0
H1564 H 0.39451 0.09129 0.23338 0.0
H1565 H 0.39948 0.13214 0.23464 0.0
H1566 H 0.46457 0.18158 0.21419 0.0
H1567 H 0.43631 0.16417 0.23914 0.0
H1568 H 0.50436 0.04385 0.15547 0.0
H1569 H 0.47618 0.02433 0.17757 0.0
H1570 H 0.50564 0.08257 0.12414 0.0
H1571 H 0.5144 0.12235 0.13014 0.0
C1572 C 0.63926 0.69071 0.00142 0.0
C1573 C 0.63118 0.69877 0.96979 0.0
C1574 C 0.6639 0.6545 0.95139 0.0
C1575 C 0.6786 0.65317 0.98105 0.0
N1576 N 0.66507 0.65285 0.03632 0.0
N1577 N 0.6337 0.6862 0.91433 0.0
C1578 C 0.66172 0.6661 0.00701 0.0
C1579 C 0.64223 0.67955 0.94466 0.0
N1580 N 0.6259 0.70693 0.02598 0.0
N1581 N 0.66847 0.63021 0.93108 0.0
H1582 H 0.61788 0.70435 0.90849 0.0
H1583 H 0.64391 0.67486 0.89497 0.0
H1584 H 0.68185 0.61036 0.93767 0.0
H1585 H 0.6564 0.62831 0.90993 0.0
H1586 H 0.63389 0.70514 0.04908 0.0
H1587 H 0.60731 0.72306 0.02306 0.0
H1588 H 0.65197 0.65978 0.05606 0.0
H1589 H 0.67766 0.6318 0.03978 0.0
C1590 C 0.04636 0.89905 0.6998 0.0
C1591 C 0.03635 0.92071 0.7234 0.0
C1592 C 0.98217 0.91163 0.70966 0.0
C1593 C 0.99069 0.88559 0.69038 0.0
N1594 N 0.0333 0.85589 0.66534 0.0
N1595 N 0.99348 0.93668 0.75844 0.0
C1596 C 0.02359 0.87934 0.68509 0.0
C1597 C 0.00396 0.9227 0.73138 0.0
N1598 N 0.07742 0.89812 0.69085 0.0
N1599 N 0.95423 0.92761 0.70571 0.0
H1600 H 0.00842 0.94386 0.77614 0.0
H1601 H 0.9696 0.93729 0.76481 0.0
H1602 H 0.9407 0.92517 0.6855 0.0
H1603 H 0.94715 0.94649 0.71977 0.0
H1604 H 0.08593 0.88577 0.67137 0.0
H1605 H 0.09448 0.91105 0.70241 0.0
H1606 H 0.05647 0.84739 0.6644 0.0
H1607 H 0.01843 0.84529 0.64942 0.0
C1608 C 0.49043 0.3442 0.18804 0.0
C1609 C 0.51393 0.33578 0.16513 0.0
C1610 C 0.54647 0.37975 0.18232 0.0
C1611 C 0.52294 0.38762 0.20504 0.0
N1612 N 0.46787 0.38627 0.21944 0.0
N1613 N 0.55857 0.35234 0.13357 0.0
C1614 C 0.49321 0.37302 0.20409 0.0
C1615 C 0.54 0.35602 0.15985 0.0
N1616 N 0.46714 0.32386 0.19711 0.0
N1617 N 0.57544 0.39335 0.18326 0.0
H1618 H 0.55386 0.3354 0.11665 0.0
H1619 H 0.57649 0.36787 0.12724 0.0
H1620 H 0.58084 0.41093 0.19921 0.0
H1621 H 0.59456 0.38579 0.16947 0.0
H1622 H 0.452 0.32824 0.21619 0.0
H1623 H 0.46473 0.30123 0.18853 0.0
H1624 H 0.44499 0.37784 0.21738 0.0
H1625 H 0.46933 0.40771 0.23119 0.0
C1626 C 0.41545 0.78846 0.92907 0.0
C1627 C 0.42496 0.75692 0.93513 0.0
C1628 C 0.38206 0.75153 0.97371 0.0
C1629 C 0.37906 0.785 0.97414 0.0
N1630 N 0.38977 0.8355 0.94967 0.0
N1631 N 0.40367 0.7057 0.94681 0.0
C1632 C 0.39407 0.80353 0.9504 0.0
C1633 C 0.40405 0.73731 0.95245 0.0
N1634 N 0.42632 0.80328 0.90244 0.0
N1635 N 0.3645 0.73356 0.99422 0.0
H1636 H 0.41607 0.69583 0.92789 0.0
H1637 H 0.38783 0.69019 0.95748 0.0
H1638 H 0.34629 0.74301 0.00815 0.0
H1639 H 0.36851 0.70955 0.99814 0.0
H1640 H 0.41859 0.8256 0.89512 0.0
H1641 H 0.4411 0.79151 0.88639 0.0
H1642 H 0.40291 0.85049 0.93511 0.0
H1643 H 0.37404 0.84712 0.96484 0.0
C1644 C 0.97544 0.62769 0.68072 0.0
C1645 C 0.96253 0.63077 0.71173 0.0
C1646 C 0.96678 0.68793 0.70757 0.0
C1647 C 0.97685 0.68564 0.67541 0.0
N1648 N 0.9857 0.65314 0.62983 0.0
N1649 N 0.93486 0.66417 0.74869 0.0
C1650 C 0.97935 0.6554 0.66139 0.0
C1651 C 0.9546 0.66105 0.72308 0.0
N1652 N 0.98556 0.5989 0.67033 0.0
N1653 N 0.96842 0.71559 0.72372 0.0
H1654 H 0.92418 0.64481 0.75972 0.0
H1655 H 0.92636 0.68595 0.75652 0.0
H1656 H 0.9741 0.73723 0.71354 0.0
H1657 H 0.96496 0.71666 0.7481 0.0
H1658 H 0.99831 0.59588 0.64938 0.0
H1659 H 0.98304 0.57823 0.68363 0.0
H1660 H 0.9848 0.63196 0.61769 0.0
H1661 H 0.98963 0.67289 0.61541 0.0
C1662 C 0.09553 0.24093 0.46037 0.0
C1663 C 0.08422 0.21986 0.43732 0.0
C1664 C 0.12304 0.17993 0.45475 0.0
C1665 C 0.13464 0.20157 0.47691 0.0
N1666 N 0.14047 0.25612 0.49086 0.0
N1667 N 0.09414 0.17348 0.40622 0.0
C1668 C 0.12385 0.2333 0.47612 0.0
C1669 C 0.10037 0.19071 0.43234 0.0
N1670 N 0.07827 0.26676 0.4696 0.0
N1671 N 0.13208 0.14893 0.45609 0.0
H1672 H 0.07817 0.18127 0.38916 0.0
H1673 H 0.10698 0.15329 0.40007 0.0
H1674 H 0.14846 0.14013 0.47219 0.0
H1675 H 0.12159 0.13161 0.44268 0.0
H1676 H 0.08462 0.28058 0.48862 0.0
H1677 H 0.05596 0.27249 0.46126 0.0
H1678 H 0.1348 0.28007 0.48881 0.0
H1679 H 0.16191 0.25134 0.50196 0.0
C1680 C 0.98986 0.14433 0.81129 0.0
C1681 C 0.01321 0.16075 0.82778 0.0
C1682 C 0.05428 0.12707 0.80448 0.0
C1683 C 0.0322 0.11731 0.78185 0.0
N1684 N 0.9778 0.11137 0.7668 0.0
N1685 N 0.06113 0.15129 0.85559 0.0
C1686 C 0.99947 0.12393 0.78653 0.0
C1687 C 0.04361 0.1469 0.82936 0.0
N1688 N 0.95908 0.14642 0.82098 0.0
N1689 N 0.08546 0.1192 0.80115 0.0
H1690 H 0.05208 0.16427 0.87455 0.0
H1691 H 0.08266 0.13985 0.85957 0.0
H1692 H 0.09389 0.10448 0.7833 0.0
H1693 H 0.10296 0.12863 0.81512 0.0
H1694 H 0.94098 0.13355 0.8112 0.0
H1695 H 0.95255 0.15766 0.84188 0.0
H1696 H 0.9542 0.11851 0.76635 0.0
H1697 H 0.98372 0.09437 0.75006 0.0
C1698 C 0.57374 0.31334 0.51871 0.0
C1699 C 0.57675 0.28519 0.53757 0.0
C1700 C 0.63334 0.28279 0.52452 0.0
C1701 C 0.62951 0.30991 0.50511 0.0
N1702 N 0.60067 0.35751 0.49388 0.0
N1703 N 0.61128 0.24978 0.5663 0.0
C1704 C 0.60132 0.32764 0.50635 0.0
C1705 C 0.60732 0.27226 0.54326 0.0
N1706 N 0.54503 0.32481 0.50941 0.0
N1707 N 0.66115 0.26617 0.52353 0.0
H1708 H 0.59264 0.24217 0.58071 0.0
H1709 H 0.63331 0.2411 0.5731 0.0
H1710 H 0.6808 0.2742 0.51082 0.0
H1711 H 0.66423 0.24407 0.53415 0.0
H1712 H 0.54255 0.34279 0.49262 0.0
H1713 H 0.52363 0.31483 0.51548 0.0
H1714 H 0.58135 0.37281 0.49635 0.0
H1715 H 0.62085 0.36787 0.48411 0.0
C1716 C 0.47867 0.85968 0.33324 0.0
C1717 C 0.4534 0.84213 0.34629 0.0
C1718 C 0.4161 0.87234 0.314 0.0
C1719 C 0.4418 0.88297 0.29516 0.0
N1720 N 0.49788 0.89154 0.28931 0.0
N1721 N 0.40035 0.84962 0.36466 0.0
C1722 C 0.47325 0.87856 0.30586 0.0
C1723 C 0.42253 0.85395 0.34156 0.0
N1724 N 0.50686 0.8601 0.34841 0.0
N1725 N 0.38585 0.87821 0.30477 0.0
H1726 H 0.40622 0.83837 0.38593 0.0
H1727 H 0.37782 0.85974 0.36395 0.0
H1728 H 0.38053 0.89202 0.28493 0.0
H1729 H 0.36636 0.86803 0.31594 0.0
H1730 H 0.52574 0.87406 0.34126 0.0
H1731 H 0.50958 0.84984 0.37075 0.0
H1732 H 0.52143 0.88584 0.29357 0.0
H1733 H 0.49468 0.90724 0.2704 0.0
C1734 C 0.93858 0.67802 0.02913 0.0
C1735 C 0.93866 0.70724 0.04586 0.0
C1736 C 0.88384 0.71715 0.02973 0.0
C1737 C 0.88471 0.68885 0.01247 0.0
N1738 N 0.90691 0.63704 0.00615 0.0
N1739 N 0.90734 0.74788 0.07101 0.0
C1740 C 0.90991 0.6673 0.01632 0.0
C1741 C 0.90978 0.72448 0.04924 0.0
N1742 N 0.96581 0.66195 0.02206 0.0
N1743 N 0.85887 0.73757 0.02642 0.0
H1744 H 0.92572 0.75298 0.08622 0.0
H1745 H 0.88626 0.75978 0.07617 0.0
H1746 H 0.83906 0.73202 0.01329 0.0
H1747 H 0.85851 0.76031 0.03545 0.0
H1748 H 0.96643 0.64224 0.00772 0.0
H1749 H 0.98821 0.66966 0.02701 0.0
H1750 H 0.92335 0.61919 0.01103 0.0
H1751 H 0.8862 0.62912 0.99598 0.0
C1752 C 0.16477 0.52052 0.3624 0.0
C1753 C 0.17392 0.53634 0.33396 0.0
C1754 C 0.20737 0.57088 0.36503 0.0
C1755 C 0.20433 0.55014 0.39105 0.0
N1756 N 0.17891 0.50606 0.41621 0.0
N1757 N 0.2069 0.57785 0.30999 0.0
C1758 C 0.18201 0.52564 0.39056 0.0
C1759 C 0.19513 0.56228 0.33569 0.0
N1760 N 0.13975 0.50055 0.36232 0.0
N1761 N 0.22507 0.59743 0.36748 0.0
H1762 H 0.20266 0.57225 0.28664 0.0
H1763 H 0.20266 0.57225 0.28664 0.0
H1764 H 0.23449 0.60435 0.38893 0.0
H1765 H 0.22879 0.61306 0.34858 0.0
H1766 H 0.13037 0.49011 0.38269 0.0
H1767 H 0.12648 0.49692 0.34213 0.0
H1768 H 0.16598 0.48535 0.41614 0.0
H1769 H 0.19051 0.51013 0.43732 0.0
C1770 C 0.69158 0.00903 0.6463 0.0
C1771 C 0.69575 0.97735 0.636 0.0
C1772 C 0.64841 0.96269 0.66636 0.0
C1773 C 0.64997 0.99134 0.68284 0.0
N1774 N 0.65764 0.04676 0.67346 0.0
N1775 N 0.67651 0.92398 0.63477 0.0
C1776 C 0.66703 0.01629 0.66842 0.0
C1777 C 0.67321 0.95428 0.64494 0.0
N1778 N 0.71116 0.03211 0.63511 0.0
N1779 N 0.62209 0.94482 0.6697 0.0
H1780 H 0.69453 0.91682 0.61937 0.0
H1781 H 0.66263 0.90561 0.64343 0.0
H1782 H 0.60307 0.95234 0.68378 0.0
H1783 H 0.61803 0.92484 0.65635 0.0
H1784 H 0.71233 0.05443 0.64497 0.0
H1785 H 0.72707 0.02868 0.61643 0.0
H1786 H 0.66774 0.0662 0.6622 0.0
H1787 H 0.63653 0.05223 0.68521 0.0
C1788 C 0.7867 0.9493 0.39396 0.0
C1789 C 0.77186 0.9752 0.3786 0.0
C1790 C 0.72226 0.96448 0.4068 0.0
C1791 C 0.73893 0.94256 0.42629 0.0
N1792 N 0.77933 0.90246 0.42683 0.0
N1793 N 0.72335 0.99839 0.36004 0.0
C1794 C 0.7686 0.93086 0.41563 0.0
C1795 C 0.73875 0.97972 0.38161 0.0
N1796 N 0.81822 0.94368 0.38961 0.0
N1797 N 0.69126 0.97152 0.41276 0.0
H1798 H 0.7351 0.00898 0.34094 0.0
H1799 H 0.69891 0.00099 0.35919 0.0
H1800 H 0.6767 0.95687 0.42615 0.0
H1801 H 0.67963 0.99122 0.40336 0.0
H1802 H 0.83092 0.92719 0.40296 0.0
H1803 H 0.83187 0.95667 0.37357 0.0
H1804 H 0.79989 0.89147 0.41852 0.0
H1805 H 0.76579 0.88897 0.44261 0.0
C1806 C 0.78835 0.99297 0.14082 0.0
C1807 C 0.78455 0.02558 0.13323 0.0
C1808 C 0.83082 0.0369 0.1648 0.0
C1809 C 0.82808 0.00691 0.17928 0.0
N1810 N 0.82127 0.95263 0.16551 0.0
N1811 N 0.80451 0.07862 0.13522 0.0
C1812 C 0.81201 0.98347 0.16254 0.0
C1813 C 0.80699 0.04754 0.14372 0.0
N1814 N 0.7689 0.97131 0.12786 0.0
N1815 N 0.8575 0.05371 0.16919 0.0
H1816 H 0.78743 0.08714 0.11967 0.0
H1817 H 0.81833 0.09601 0.14507 0.0
H1818 H 0.87612 0.04422 0.18236 0.0
H1819 H 0.86229 0.07481 0.15729 0.0
H1820 H 0.76774 0.94792 0.13555 0.0
H1821 H 0.75305 0.97706 0.10996 0.0
H1822 H 0.81189 0.93445 0.15245 0.0
H1823 H 0.84157 0.94606 0.17776 0.0
C1824 C 0.72204 0.05208 0.90678 0.0
C1825 C 0.7384 0.0369 0.93188 0.0
C1826 C 0.72037 0.9864 0.91375 0.0
C1827 C 0.70824 0.00024 0.88561 0.0
N1828 N 0.70486 0.04765 0.85274 0.0
N1829 N 0.76324 0.98821 0.94995 0.0
C1830 C 0.71096 0.0336 0.88122 0.0
C1831 C 0.74123 0.00367 0.9321 0.0
N1832 N 0.71724 0.08396 0.90718 0.0
N1833 N 0.71072 0.95741 0.92418 0.0
H1834 H 0.77987 0.99973 0.96329 0.0
H1835 H 0.76663 0.96381 0.94885 0.0
H1836 H 0.69208 0.94563 0.91393 0.0
H1837 H 0.7182 0.94742 0.94549 0.0
H1838 H 0.70264 0.09579 0.8912 0.0
H1839 H 0.72647 0.0981 0.92471 0.0
H1840 H 0.7092 0.07142 0.84813 0.0
H1841 H 0.6988 0.03527 0.83273 0.0
C1842 C 0.30834 0.40483 0.86914 0.0
C1843 C 0.29137 0.4304 0.88271 0.0
C1844 C 0.33005 0.46707 0.86049 0.0
C1845 C 0.34046 0.44291 0.83998 0.0
N1846 N 0.35681 0.3888 0.84216 0.0
N1847 N 0.28888 0.48556 0.89624 0.0
C1848 C 0.33505 0.41147 0.84964 0.0
C1849 C 0.30355 0.46142 0.88048 0.0
N1850 N 0.29804 0.37472 0.87343 0.0
N1851 N 0.34666 0.49434 0.86208 0.0
H1852 H 0.27042 0.48188 0.91237 0.0
H1853 H 0.29422 0.50922 0.89243 0.0
H1854 H 0.36827 0.49693 0.85029 0.0
H1855 H 0.34146 0.5122 0.87803 0.0
H1856 H 0.30767 0.35559 0.86127 0.0
H1857 H 0.27894 0.36933 0.88826 0.0
H1858 H 0.3556 0.36559 0.85045 0.0
H1859 H 0.37768 0.39468 0.83018 0.0
C1860 C 0.33033 0.52409 0.61637 0.0
C1861 C 0.31153 0.51618 0.64269 0.0
C1862 C 0.27021 0.55204 0.62343 0.0
C1863 C 0.28466 0.55161 0.59296 0.0
N1864 N 0.32903 0.53296 0.56054 0.0
N1865 N 0.26459 0.52472 0.6739 0.0
C1866 C 0.31548 0.53755 0.58949 0.0
C1867 C 0.28205 0.53149 0.64744 0.0
N1868 N 0.36155 0.51574 0.61623 0.0
N1869 N 0.24503 0.57166 0.62912 0.0
H1870 H 0.27345 0.51058 0.6922 0.0
H1871 H 0.2412 0.53205 0.67702 0.0
H1872 H 0.23652 0.58747 0.61205 0.0
H1873 H 0.23486 0.57451 0.65144 0.0
H1874 H 0.37745 0.52284 0.59866 0.0
H1875 H 0.37191 0.50464 0.63576 0.0
H1876 H 0.35168 0.52373 0.55726 0.0
H1877 H 0.31644 0.53375 0.53975 0.0
C1878 C 0.22354 0.47902 0.07608 0.0
C1879 C 0.21429 0.44708 0.07613 0.0
C1880 C 0.1797 0.45811 0.12221 0.0
C1881 C 0.18795 0.49065 0.12017 0.0
N1882 N 0.20195 0.53108 0.08157 0.0
N1883 N 0.18018 0.40668 0.09686 0.0
C1884 C 0.20516 0.501 0.09309 0.0
C1885 C 0.1913 0.4367 0.09858 0.0
N1886 N 0.2495 0.48899 0.05958 0.0
N1887 N 0.15984 0.4479 0.14568 0.0
H1888 H 0.18935 0.3903 0.08089 0.0
H1889 H 0.1611 0.39842 0.11013 0.0
H1890 H 0.1461 0.46335 0.15918 0.0
H1891 H 0.15652 0.42419 0.15131 0.0
H1892 H 0.25755 0.51209 0.06099 0.0
H1893 H 0.26447 0.47393 0.04705 0.0
H1894 H 0.21311 0.5386 0.06075 0.0
H1895 H 0.18408 0.54634 0.08932 0.0
loop_
_geom_bond_atom_site_label_1
_geom_bond_atom_site_label_2
_geom_bond_distance
_geom_bond_site_symmetry_2
_ccdc_geom_bond_type
Co0 O3 1.970 . S
Co0 N17 1.989 . S
Co0 O25 1.967 . S
Co0 O32 1.920 . S
Co1 O4 1.966 . S
Co1 N10 2.022 . S
Co1 N18 1.993 . S
Co1 O26 1.941 . S
C2 O3 1.258 . S
C2 O4 1.263 . S
O3 Co0 1.970 . S
O3 C2 1.258 . S
O4 Co1 1.966 . S
O4 C2 1.263 . S
C5 O6 1.235 . S
C5 O32 1.289 . S
O6 C5 1.235 . S
C7 C9 1.400 . S
C7 N10 1.351 . S
C7 C12 1.501 . S
C8 C9 1.387 . S
C8 N11 1.341 . S
C9 C7 1.400 . S
C9 C8 1.387 . S
N10 Co1 2.022 . S
N10 C7 1.351 . S
N10 N11 1.365 . S
N11 C8 1.341 . S
N11 N10 1.365 . S
N11 H31 0.862 . S
C12 C7 1.501 . S
C12 H13 0.961 . S
C12 H14 0.961 . S
C12 H15 0.960 . S
H13 C12 0.961 . S
H14 C12 0.961 . S
H15 C12 0.960 . S
C16 N17 1.342 . S
C16 C20 1.401 . S
C16 C21 1.499 . S
N17 Co0 1.989 . S
N17 C16 1.342 . S
N17 N18 1.388 . S
N18 Co1 1.993 . S
N18 N17 1.388 . S
N18 C19 1.346 . S
C19 N18 1.346 . S
C19 C20 1.396 . S
C19 C29 1.510 . S
C20 C16 1.401 . S
C20 C19 1.396 . S
C21 C16 1.499 . S
C21 H22 0.959 . S
C21 H23 0.960 . S
C21 H24 0.961 . S
H22 C21 0.959 . S
H23 C21 0.960 . S
H24 C21 0.961 . S
O25 Co0 1.967 . S
O25 C33 1.258 . S
O26 Co1 1.941 . S
O26 C33 1.266 . S
H27 C29 0.959 . S
H28 C29 0.961 . S
C29 C19 1.510 . S
C29 H27 0.959 . S
C29 H28 0.961 . S
C29 H30 0.960 . S
H30 C29 0.960 . S
H31 N11 0.862 . S
O32 Co0 1.920 . S
O32 C5 1.289 . S
C33 O25 1.258 . S
C33 O26 1.266 . S
Co34 O37 1.970 . S
Co34 N51 1.989 . S
Co34 O59 1.967 . S
Co34 O66 1.920 . S
Co35 O38 1.966 . S
Co35 N44 2.022 . S
Co35 N52 1.993 . S
Co35 O60 1.941 . S
C36 O37 1.258 . S
C36 O38 1.263 . S
O37 Co34 1.970 . S
O37 C36 1.258 . S
O38 Co35 1.966 . S
O38 C36 1.263 . S
C39 O40 1.235 . S
C39 O66 1.289 . S
O40 C39 1.235 . S
C41 C43 1.400 . S
C41 N44 1.351 . S
C41 C46 1.501 . S
C42 C43 1.387 . S
C42 N45 1.341 . S
C43 C41 1.400 . S
C43 C42 1.387 . S
N44 Co35 2.022 . S
N44 C41 1.351 . S
N44 N45 1.365 . S
N45 C42 1.341 . S
N45 N44 1.365 . S
N45 H65 0.862 . S
C46 C41 1.501 . S
C46 H47 0.961 . S
C46 H48 0.961 . S
C46 H49 0.960 . S
H47 C46 0.961 . S
H48 C46 0.961 . S
H49 C46 0.960 . S
C50 N51 1.342 . S
C50 C54 1.401 . S
C50 C55 1.499 . S
N51 Co34 1.989 . S
N51 C50 1.342 . S
N51 N52 1.388 . S
N52 Co35 1.993 . S
N52 N51 1.388 . S
N52 C53 1.346 . S
C53 N52 1.346 . S
C53 C54 1.396 . S
C53 C63 1.510 . S
C54 C50 1.401 . S
C54 C53 1.396 . S
C55 C50 1.499 . S
C55 H56 0.959 . S
C55 H57 0.960 . S
C55 H58 0.961 . S
H56 C55 0.959 . S
H57 C55 0.960 . S
H58 C55 0.961 . S
O59 Co34 1.967 . S
O59 C67 1.258 . S
O60 Co35 1.941 . S
O60 C67 1.266 . S
H61 C63 0.959 . S
H62 C63 0.961 . S
C63 C53 1.510 . S
C63 H61 0.959 . S
C63 H62 0.961 . S
C63 H64 0.960 . S
H64 C63 0.960 . S
H65 N45 0.862 . S
O66 Co34 1.920 . S
O66 C39 1.289 . S
C67 O59 1.258 . S
C67 O60 1.266 . S
Co68 O71 1.970 . S
Co68 N85 1.989 . S
Co68 O93 1.967 . S
Co68 O100 1.920 . S
Co69 O72 1.966 . S
Co69 N78 2.022 . S
Co69 N86 1.993 . S
Co69 O94 1.941 . S
C70 O71 1.258 . S
C70 O72 1.263 . S
O71 Co68 1.970 . S
O71 C70 1.258 . S
O72 Co69 1.966 . S
O72 C70 1.263 . S
C73 O74 1.235 . S
C73 O100 1.289 . S
O74 C73 1.235 . S
C75 C77 1.400 . S
C75 N78 1.351 . S
C75 C80 1.501 . S
C76 C77 1.387 1_556 S
C76 N79 1.341 1_556 S
C77 C75 1.400 . S
C77 C76 1.387 1_554 S
N78 Co69 2.022 . S
N78 C75 1.351 . S
N78 N79 1.365 . S
N79 C76 1.341 1_554 S
N79 N78 1.365 . S
N79 H99 0.862 . S
C80 C75 1.501 . S
C80 H81 0.961 . S
C80 H82 0.961 . S
C80 H83 0.960 . S
H81 C80 0.961 . S
H82 C80 0.961 . S
H83 C80 0.960 . S
C84 N85 1.342 . S
C84 C88 1.401 . S
C84 C89 1.499 . S
N85 Co68 1.989 . S
N85 C84 1.342 . S
N85 N86 1.388 . S
N86 Co69 1.993 . S
N86 N85 1.388 . S
N86 C87 1.346 . S
C87 N86 1.346 . S
C87 C88 1.396 . S
C87 C97 1.510 . S
C88 C84 1.401 . S
C88 C87 1.396 . S
C89 C84 1.499 . S
C89 H90 0.959 . S
C89 H91 0.960 . S
C89 H92 0.961 . S
H90 C89 0.959 . S
H91 C89 0.960 . S
H92 C89 0.961 . S
O93 Co68 1.967 . S
O93 C101 1.258 . S
O94 Co69 1.941 . S
O94 C101 1.266 . S
H95 C97 0.959 . S
H96 C97 0.961 . S
C97 C87 1.510 . S
C97 H95 0.959 . S
C97 H96 0.961 . S
C97 H98 0.960 . S
H98 C97 0.960 . S
H99 N79 0.862 . S
O100 Co68 1.920 . S
O100 C73 1.289 . S
C101 O93 1.258 . S
C101 O94 1.266 . S
Co102 O105 1.994 . S
Co102 N119 1.971 1_655 S
Co102 O127 1.971 . S
Co102 O134 1.914 1_655 S
Co103 O106 1.966 . S
Co103 N112 2.022 . S
Co103 N120 1.993 1_655 S
Co103 O128 1.941 . S
C104 O105 1.258 . S
C104 O106 1.263 . S
O105 Co102 1.994 . S
O105 C104 1.258 . S
O106 Co103 1.966 . S
O106 C104 1.263 . S
C107 O108 1.235 . S
C107 O134 1.289 . S
O108 C107 1.235 . S
C109 C111 1.400 . S
C109 N112 1.351 . S
C109 C114 1.501 . S
C110 C111 1.387 1_455 S
C110 N113 1.341 . S
C111 C109 1.400 . S
C111 C110 1.387 1_655 S
N112 Co103 2.022 . S
N112 C109 1.351 . S
N112 N113 1.365 1_655 S
N113 C110 1.341 . S
N113 N112 1.365 1_455 S
N113 H133 0.862 . S
C114 C109 1.501 . S
C114 H115 0.961 . S
C114 H116 0.961 . S
C114 H117 0.960 . S
H115 C114 0.961 . S
H116 C114 0.961 . S
H117 C114 0.960 . S
C118 N119 1.342 . S
C118 C122 1.401 . S
C118 C123 1.499 . S
N119 Co102 1.971 1_455 S
N119 C118 1.342 . S
N119 N120 1.388 . S
N120 Co103 1.993 1_455 S
N120 N119 1.388 . S
N120 C121 1.346 . S
C121 N120 1.346 . S
C121 C122 1.396 . S
C121 C131 1.510 . S
C122 C118 1.401 . S
C122 C121 1.396 . S
C123 C118 1.499 . S
C123 H124 0.959 . S
C123 H125 0.960 . S
C123 H126 0.961 . S
H124 C123 0.959 . S
H125 C123 0.960 . S
H126 C123 0.961 . S
O127 Co102 1.971 . S
O127 C135 1.258 . S
O128 Co103 1.941 . S
O128 C135 1.266 . S
H129 C131 0.959 . S
H130 C131 0.961 . S
C131 C121 1.510 . S
C131 H129 0.959 . S
C131 H130 0.961 . S
C131 H132 0.960 . S
H132 C131 0.960 . S
H133 N113 0.862 . S
O134 Co102 1.914 1_455 S
O134 C107 1.289 . S
C135 O127 1.258 . S
C135 O128 1.266 . S
Co136 O139 1.970 . S
Co136 N153 1.989 . S
Co136 O161 1.967 . S
Co136 O168 1.920 . S
Co137 O140 1.966 . S
Co137 N146 2.022 . S
Co137 N154 1.993 . S
Co137 O162 1.941 . S
C138 O139 1.258 . S
C138 O140 1.263 . S
O139 Co136 1.970 . S
O139 C138 1.258 . S
O140 Co137 1.966 . S
O140 C138 1.263 . S
C141 O142 1.235 . S
C141 O168 1.289 . S
O142 C141 1.235 . S
C143 C145 1.400 . S
C143 N146 1.351 . S
C143 C148 1.501 . S
C144 C145 1.387 . S
C144 N147 1.341 . S
C145 C143 1.400 . S
C145 C144 1.387 . S
N146 Co137 2.022 . S
N146 C143 1.351 . S
N146 N147 1.365 . S
N147 C144 1.341 . S
N147 N146 1.365 . S
N147 H167 0.862 . S
C148 C143 1.501 . S
C148 H149 0.961 . S
C148 H150 0.961 . S
C148 H151 0.960 . S
H149 C148 0.961 . S
H150 C148 0.961 . S
H151 C148 0.960 . S
C152 N153 1.342 . S
C152 C156 1.401 . S
C152 C157 1.499 . S
N153 Co136 1.989 . S
N153 C152 1.342 . S
N153 N154 1.388 . S
N154 Co137 1.993 . S
N154 N153 1.388 . S
N154 C155 1.346 . S
C155 N154 1.346 . S
C155 C156 1.396 . S
C155 C165 1.510 . S
C156 C152 1.401 . S
C156 C155 1.396 . S
C157 C152 1.499 . S
C157 H158 0.959 . S
C157 H159 0.960 . S
C157 H160 0.961 . S
H158 C157 0.959 . S
H159 C157 0.960 . S
H160 C157 0.961 . S
O161 Co136 1.967 . S
O161 C169 1.258 . S
O162 Co137 1.941 . S
O162 C169 1.266 . S
H163 C165 0.959 . S
H164 C165 0.961 . S
C165 C155 1.510 . S
C165 H163 0.959 . S
C165 H164 0.961 . S
C165 H166 0.960 . S
H166 C165 0.960 . S
H167 N147 0.862 . S
O168 Co136 1.920 . S
O168 C141 1.289 . S
C169 O161 1.258 . S
C169 O162 1.266 . S
Co170 O173 1.970 . S
Co170 N187 1.989 . S
Co170 O195 1.967 . S
Co170 O202 1.920 . S
Co171 O174 1.966 . S
Co171 N180 2.022 1_565 S
Co171 N188 1.993 . S
Co171 O196 1.941 . S
C172 O173 1.258 . S
C172 O174 1.263 . S
O173 Co170 1.970 . S
O173 C172 1.258 . S
O174 Co171 1.966 . S
O174 C172 1.263 . S
C175 O176 1.235 . S
C175 O202 1.289 . S
O176 C175 1.235 . S
C177 C179 1.400 . S
C177 N180 1.351 . S
C177 C182 1.501 . S
C178 C179 1.387 . S
C178 N181 1.341 . S
C179 C177 1.400 . S
C179 C178 1.387 . S
N180 Co171 2.022 1_545 S
N180 C177 1.351 . S
N180 N181 1.365 . S
N181 C178 1.341 . S
N181 N180 1.365 . S
N181 H201 0.862 . S
C182 C177 1.501 . S
C182 H183 0.961 . S
C182 H184 0.961 . S
C182 H185 0.960 . S
H183 C182 0.961 . S
H184 C182 0.961 . S
H185 C182 0.960 . S
C186 N187 1.342 . S
C186 C190 1.401 . S
C186 C191 1.499 . S
N187 Co170 1.989 . S
N187 C186 1.342 . S
N187 N188 1.388 . S
N188 Co171 1.993 . S
N188 N187 1.388 . S
N188 C189 1.346 . S
C189 N188 1.346 . S
C189 C190 1.396 . S
C189 C199 1.510 1_565 S
C190 C186 1.401 . S
C190 C189 1.396 . S
C191 C186 1.499 . S
C191 H192 0.959 . S
C191 H193 0.960 . S
C191 H194 0.961 . S
H192 C191 0.959 . S
H193 C191 0.960 . S
H194 C191 0.961 . S
O195 Co170 1.967 . S
O195 C203 1.258 . S
O196 Co171 1.941 . S
O196 C203 1.266 . S
H197 C199 0.959 . S
H198 C199 0.961 . S
C199 C189 1.510 1_545 S
C199 H197 0.959 . S
C199 H198 0.961 . S
C199 H200 0.960 . S
H200 C199 0.960 . S
H201 N181 0.862 . S
O202 Co170 1.920 . S
O202 C175 1.289 . S
C203 O195 1.258 . S
C203 O196 1.266 . S
Co204 O207 1.970 . S
Co204 N221 1.989 . S
Co204 O229 1.967 . S
Co204 O236 1.920 . S
Co205 O208 1.966 . S
Co205 N214 2.022 . S
Co205 N222 1.993 . S
Co205 O230 1.941 . S
C206 O207 1.258 . S
C206 O208 1.263 . S
O207 Co204 1.970 . S
O207 C206 1.258 . S
O208 Co205 1.966 . S
O208 C206 1.263 . S
C209 O210 1.235 . S
C209 O236 1.289 . S
O210 C209 1.235 . S
C211 C213 1.400 . S
C211 N214 1.351 . S
C211 C216 1.501 . S
C212 C213 1.390 . S
C212 N215 1.343 . S
C213 C211 1.400 . S
C213 C212 1.390 . S
N214 Co205 2.022 . S
N214 C211 1.351 . S
N214 N215 1.365 . S
N215 C212 1.343 . S
N215 N214 1.365 . S
N215 H235 0.862 . S
C216 C211 1.501 . S
C216 H217 0.961 . S
C216 H218 0.961 . S
C216 H219 0.960 . S
H217 C216 0.961 . S
H218 C216 0.961 . S
H219 C216 0.960 . S
C220 N221 1.342 . S
C220 C224 1.401 . S
C220 C225 1.499 . S
N221 Co204 1.989 . S
N221 C220 1.342 . S
N221 N222 1.388 . S
N222 Co205 1.993 . S
N222 N221 1.388 . S
N222 C223 1.346 . S
C223 N222 1.346 . S
C223 C224 1.396 . S
C223 C233 1.510 . S
C224 C220 1.401 . S
C224 C223 1.396 . S
C225 C220 1.499 . S
C225 H226 0.959 . S
C225 H227 0.960 . S
C225 H228 0.961 . S
H226 C225 0.959 . S
H227 C225 0.960 . S
H228 C225 0.961 . S
O229 Co204 1.967 . S
O229 C237 1.258 . S
O230 Co205 1.941 . S
O230 C237 1.266 . S
H231 C233 0.959 . S
H232 C233 0.961 . S
C233 C223 1.510 . S
C233 H231 0.959 . S
C233 H232 0.961 . S
C233 H234 0.960 . S
H234 C233 0.960 . S
H235 N215 0.862 . S
O236 Co204 1.920 . S
O236 C209 1.289 . S
C237 O229 1.258 . S
C237 O230 1.266 . S
Co238 O241 1.970 . S
Co238 N255 1.989 1_455 S
Co238 O263 1.967 . S
Co238 O270 1.920 1_455 S
Co239 O242 1.966 . S
Co239 N248 2.022 1_545 S
Co239 N256 1.993 1_455 S
Co239 O264 1.941 . S
C240 O241 1.258 . S
C240 O242 1.263 . S
O241 Co238 1.970 . S
O241 C240 1.258 . S
O242 Co239 1.966 . S
O242 C240 1.263 . S
C243 O244 1.235 . S
C243 O270 1.289 . S
O244 C243 1.235 . S
C245 C247 1.400 . S
C245 N248 1.351 . S
C245 C250 1.501 . S
C246 C247 1.387 1_655 S
C246 N249 1.341 . S
C247 C245 1.400 . S
C247 C246 1.387 1_455 S
N248 Co239 2.022 1_565 S
N248 C245 1.351 . S
N248 N249 1.365 1_455 S
N249 C246 1.341 . S
N249 N248 1.365 1_655 S
N249 H269 0.862 . S
C250 C245 1.501 . S
C250 H251 0.961 . S
C250 H252 0.961 . S
C250 H253 0.960 . S
H251 C250 0.961 . S
H252 C250 0.961 . S
H253 C250 0.960 . S
C254 N255 1.342 . S
C254 C258 1.401 . S
C254 C259 1.499 . S
N255 Co238 1.989 1_655 S
N255 C254 1.342 . S
N255 N256 1.388 . S
N256 Co239 1.993 1_655 S
N256 N255 1.388 . S
N256 C257 1.346 . S
C257 N256 1.346 . S
C257 C258 1.396 . S
C257 C267 1.510 1_545 S
C258 C254 1.401 . S
C258 C257 1.396 . S
C259 C254 1.499 . S
C259 H260 0.959 . S
C259 H261 0.960 . S
C259 H262 0.961 . S
H260 C259 0.959 . S
H261 C259 0.960 . S
H262 C259 0.961 . S
O263 Co238 1.967 . S
O263 C271 1.258 . S
O264 Co239 1.941 . S
O264 C271 1.266 . S
H265 C267 0.959 . S
H266 C267 0.961 . S
C267 C257 1.510 1_565 S
C267 H265 0.959 . S
C267 H266 0.961 . S
C267 H268 0.960 . S
H268 C267 0.960 . S
H269 N249 0.862 . S
O270 Co238 1.920 1_655 S
O270 C243 1.289 . S
C271 O263 1.258 . S
C271 O264 1.266 . S
Co272 O275 1.970 . S
Co272 N289 1.989 . S
Co272 O297 1.967 . S
Co272 O304 1.920 . S
Co273 O276 1.966 . S
Co273 N282 2.022 . S
Co273 N290 1.993 . S
Co273 O298 1.941 . S
C274 O275 1.258 . S
C274 O276 1.263 . S
O275 Co272 1.970 . S
O275 C274 1.258 . S
O276 Co273 1.966 . S
O276 C274 1.263 . S
C277 O278 1.235 . S
C277 O304 1.289 . S
O278 C277 1.235 . S
C279 C281 1.400 . S
C279 N282 1.351 . S
C279 C284 1.501 . S
C280 C281 1.387 . S
C280 N283 1.341 . S
C281 C279 1.400 . S
C281 C280 1.387 . S
N282 Co273 2.022 . S
N282 C279 1.351 . S
N282 N283 1.365 . S
N283 C280 1.341 . S
N283 N282 1.365 . S
N283 H303 0.862 . S
C284 C279 1.501 . S
C284 H285 0.961 . S
C284 H286 0.961 . S
C284 H287 0.960 . S
H285 C284 0.961 . S
H286 C284 0.961 . S
H287 C284 0.960 . S
C288 N289 1.342 . S
C288 C292 1.401 . S
C288 C293 1.499 . S
N289 Co272 1.989 . S
N289 C288 1.342 . S
N289 N290 1.388 . S
N290 Co273 1.993 . S
N290 N289 1.388 . S
N290 C291 1.346 . S
C291 N290 1.346 . S
C291 C292 1.396 . S
C291 C301 1.510 . S
C292 C288 1.401 . S
C292 C291 1.396 . S
C293 C288 1.499 . S
C293 H294 0.959 . S
C293 H295 0.960 . S
C293 H296 0.961 . S
H294 C293 0.959 . S
H295 C293 0.960 . S
H296 C293 0.961 . S
O297 Co272 1.967 . S
O297 C305 1.258 . S
O298 Co273 1.941 . S
O298 C305 1.266 . S
H299 C301 0.959 . S
H300 C301 0.961 . S
C301 C291 1.510 . S
C301 H299 0.959 . S
C301 H300 0.961 . S
C301 H302 0.960 . S
H302 C301 0.960 . S
H303 N283 0.862 . S
O304 Co272 1.920 . S
O304 C277 1.289 . S
C305 O297 1.258 . S
C305 O298 1.266 . S
Co306 O309 1.994 . S
Co306 N323 1.971 1_556 S
Co306 O331 1.971 . S
Co306 O338 1.914 1_556 S
Co307 O310 1.966 . S
Co307 N316 2.022 . S
Co307 N324 1.993 1_556 S
Co307 O332 1.941 . S
C308 O309 1.258 . S
C308 O310 1.263 . S
O309 Co306 1.994 . S
O309 C308 1.258 . S
O310 Co307 1.966 . S
O310 C308 1.263 . S
C311 O312 1.235 . S
C311 O338 1.289 . S
O312 C311 1.235 . S
C313 C315 1.400 . S
C313 N316 1.351 . S
C313 C318 1.501 . S
C314 C315 1.387 1_554 S
C314 N317 1.341 . S
C315 C313 1.400 . S
C315 C314 1.387 1_556 S
N316 Co307 2.022 . S
N316 C313 1.351 . S
N316 N317 1.365 1_556 S
N317 C314 1.341 . S
N317 N316 1.365 1_554 S
N317 H337 0.862 . S
C318 C313 1.501 . S
C318 H319 0.961 . S
C318 H320 0.961 . S
C318 H321 0.960 . S
H319 C318 0.961 . S
H320 C318 0.961 . S
H321 C318 0.960 . S
C322 N323 1.342 . S
C322 C326 1.401 . S
C322 C327 1.499 . S
N323 Co306 1.971 1_554 S
N323 C322 1.342 . S
N323 N324 1.388 . S
N324 Co307 1.993 1_554 S
N324 N323 1.388 . S
N324 C325 1.346 . S
C325 N324 1.346 . S
C325 C326 1.396 . S
C325 C335 1.510 . S
C326 C322 1.401 . S
C326 C325 1.396 . S
C327 C322 1.499 . S
C327 H328 0.959 . S
C327 H329 0.960 . S
C327 H330 0.961 . S
H328 C327 0.959 . S
H329 C327 0.960 . S
H330 C327 0.961 . S
O331 Co306 1.971 . S
O331 C339 1.258 . S
O332 Co307 1.941 . S
O332 C339 1.266 . S
H333 C335 0.959 . S
H334 C335 0.961 . S
C335 C325 1.510 . S
C335 H333 0.959 . S
C335 H334 0.961 . S
C335 H336 0.960 . S
H336 C335 0.960 . S
H337 N317 0.862 . S
O338 Co306 1.914 1_554 S
O338 C311 1.289 . S
C339 O331 1.258 . S
C339 O332 1.266 . S
Co340 O343 1.970 . S
Co340 N357 1.989 . S
Co340 O365 1.967 . S
Co340 O372 1.920 . S
Co341 O344 1.966 . S
Co341 N350 2.022 . S
Co341 N358 1.993 . S
Co341 O366 1.941 . S
C342 O343 1.258 . S
C342 O344 1.263 . S
O343 Co340 1.970 . S
O343 C342 1.258 . S
O344 Co341 1.966 . S
O344 C342 1.263 . S
C345 O346 1.235 . S
C345 O372 1.289 . S
O346 C345 1.235 . S
C347 C349 1.400 . S
C347 N350 1.351 . S
C347 C352 1.501 . S
C348 C349 1.390 . S
C348 N351 1.343 . S
C349 C347 1.400 . S
C349 C348 1.390 . S
N350 Co341 2.022 . S
N350 C347 1.351 . S
N350 N351 1.365 . S
N351 C348 1.343 . S
N351 N350 1.365 . S
N351 H371 0.862 . S
C352 C347 1.501 . S
C352 H353 0.961 . S
C352 H354 0.961 . S
C352 H355 0.960 . S
H353 C352 0.961 . S
H354 C352 0.961 . S
H355 C352 0.960 . S
C356 N357 1.342 . S
C356 C360 1.401 . S
C356 C361 1.499 . S
N357 Co340 1.989 . S
N357 C356 1.342 . S
N357 N358 1.388 . S
N358 Co341 1.993 . S
N358 N357 1.388 . S
N358 C359 1.346 . S
C359 N358 1.346 . S
C359 C360 1.396 . S
C359 C369 1.510 . S
C360 C356 1.401 . S
C360 C359 1.396 . S
C361 C356 1.499 . S
C361 H362 0.959 . S
C361 H363 0.960 . S
C361 H364 0.961 . S
H362 C361 0.959 . S
H363 C361 0.960 . S
H364 C361 0.961 . S
O365 Co340 1.967 . S
O365 C373 1.258 . S
O366 Co341 1.941 . S
O366 C373 1.266 . S
H367 C369 0.959 . S
H368 C369 0.961 . S
C369 C359 1.510 . S
C369 H367 0.959 . S
C369 H368 0.961 . S
C369 H370 0.960 . S
H370 C369 0.960 . S
H371 N351 0.862 . S
O372 Co340 1.920 . S
O372 C345 1.289 . S
C373 O365 1.258 . S
C373 O366 1.266 . S
Co374 O377 1.970 . S
Co374 N391 1.989 . S
Co374 O399 1.967 . S
Co374 O406 1.920 . S
Co375 O378 1.966 . S
Co375 N384 2.022 1_655 S
Co375 N392 1.993 . S
Co375 O400 1.941 . S
C376 O377 1.258 . S
C376 O378 1.263 . S
O377 Co374 1.970 . S
O377 C376 1.258 . S
O378 Co375 1.966 . S
O378 C376 1.263 . S
C379 O380 1.235 . S
C379 O406 1.289 . S
O380 C379 1.235 . S
C381 C383 1.400 . S
C381 N384 1.351 . S
C381 C386 1.501 . S
C382 C383 1.387 . S
C382 N385 1.341 . S
C383 C381 1.400 . S
C383 C382 1.387 . S
N384 Co375 2.022 1_455 S
N384 C381 1.351 . S
N384 N385 1.365 . S
N385 C382 1.341 . S
N385 N384 1.365 . S
N385 H405 0.862 . S
C386 C381 1.501 . S
C386 H387 0.961 . S
C386 H388 0.961 . S
C386 H389 0.960 . S
H387 C386 0.961 . S
H388 C386 0.961 . S
H389 C386 0.960 . S
C390 N391 1.342 . S
C390 C394 1.401 . S
C390 C395 1.499 . S
N391 Co374 1.989 . S
N391 C390 1.342 . S
N391 N392 1.388 . S
N392 Co375 1.993 . S
N392 N391 1.388 . S
N392 C393 1.346 . S
C393 N392 1.346 . S
C393 C394 1.396 . S
C393 C403 1.510 1_655 S
C394 C390 1.401 . S
C394 C393 1.396 . S
C395 C390 1.499 . S
C395 H396 0.959 . S
C395 H397 0.960 . S
C395 H398 0.961 . S
H396 C395 0.959 . S
H397 C395 0.960 . S
H398 C395 0.961 . S
O399 Co374 1.967 . S
O399 C407 1.258 . S
O400 Co375 1.941 . S
O400 C407 1.266 . S
H401 C403 0.959 . S
H402 C403 0.961 . S
C403 C393 1.510 1_455 S
C403 H401 0.959 . S
C403 H402 0.961 . S
C403 H404 0.960 . S
H404 C403 0.960 . S
H405 N385 0.862 . S
O406 Co374 1.920 . S
O406 C379 1.289 . S
C407 O399 1.258 . S
C407 O400 1.266 . S
Co408 O411 1.970 . S
Co408 N425 1.989 . S
Co408 O433 1.967 . S
Co408 O440 1.920 . S
Co409 O412 1.966 . S
Co409 N418 2.022 . S
Co409 N426 1.993 . S
Co409 O434 1.941 . S
C410 O411 1.258 . S
C410 O412 1.263 . S
O411 Co408 1.970 . S
O411 C410 1.258 . S
O412 Co409 1.966 . S
O412 C410 1.263 . S
C413 O414 1.235 . S
C413 O440 1.289 . S
O414 C413 1.235 . S
C415 C417 1.400 . S
C415 N418 1.351 . S
C415 C420 1.501 . S
C416 C417 1.387 1_655 S
C416 N419 1.341 1_655 S
C417 C415 1.400 . S
C417 C416 1.387 1_455 S
N418 Co409 2.022 . S
N418 C415 1.351 . S
N418 N419 1.365 . S
N419 C416 1.341 1_455 S
N419 N418 1.365 . S
N419 H439 0.862 . S
C420 C415 1.501 . S
C420 H421 0.961 . S
C420 H422 0.961 . S
C420 H423 0.960 . S
H421 C420 0.961 . S
H422 C420 0.961 . S
H423 C420 0.960 . S
C424 N425 1.342 . S
C424 C428 1.401 . S
C424 C429 1.499 . S
N425 Co408 1.989 . S
N425 C424 1.342 . S
N425 N426 1.388 . S
N426 Co409 1.993 . S
N426 N425 1.388 . S
N426 C427 1.346 . S
C427 N426 1.346 . S
C427 C428 1.396 . S
C427 C437 1.510 . S
C428 C424 1.401 . S
C428 C427 1.396 . S
C429 C424 1.499 . S
C429 H430 0.959 . S
C429 H431 0.960 . S
C429 H432 0.961 . S
H430 C429 0.959 . S
H431 C429 0.960 . S
H432 C429 0.961 . S
O433 Co408 1.967 . S
O433 C441 1.258 . S
O434 Co409 1.941 . S
O434 C441 1.266 . S
H435 C437 0.959 . S
H436 C437 0.961 . S
C437 C427 1.510 . S
C437 H435 0.959 . S
C437 H436 0.961 . S
C437 H438 0.960 . S
H438 C437 0.960 . S
H439 N419 0.862 . S
O440 Co408 1.920 . S
O440 C413 1.289 . S
C441 O433 1.258 . S
C441 O434 1.266 . S
Co442 O445 1.970 . S
Co442 N459 1.989 . S
Co442 O467 1.967 . S
Co442 O474 1.920 . S
Co443 O446 1.966 . S
Co443 N452 2.022 . S
Co443 N460 1.993 . S
Co443 O468 1.941 . S
C444 O445 1.258 . S
C444 O446 1.263 . S
O445 Co442 1.970 . S
O445 C444 1.258 . S
O446 Co443 1.966 . S
O446 C444 1.263 . S
C447 O448 1.235 . S
C447 O474 1.289 . S
O448 C447 1.235 . S
C449 C451 1.400 . S
C449 N452 1.351 . S
C449 C454 1.501 . S
C450 C451 1.387 . S
C450 N453 1.341 . S
C451 C449 1.400 . S
C451 C450 1.387 . S
N452 Co443 2.022 . S
N452 C449 1.351 . S
N452 N453 1.365 . S
N453 C450 1.341 . S
N453 N452 1.365 . S
N453 H473 0.862 . S
C454 C449 1.501 . S
C454 H455 0.961 . S
C454 H456 0.961 . S
C454 H457 0.960 . S
H455 C454 0.961 . S
H456 C454 0.961 . S
H457 C454 0.960 . S
C458 N459 1.342 . S
C458 C462 1.401 . S
C458 C463 1.499 . S
N459 Co442 1.989 . S
N459 C458 1.342 . S
N459 N460 1.388 . S
N460 Co443 1.993 . S
N460 N459 1.388 . S
N460 C461 1.346 . S
C461 N460 1.346 . S
C461 C462 1.396 . S
C461 C471 1.510 . S
C462 C458 1.401 . S
C462 C461 1.396 . S
C463 C458 1.499 . S
C463 H464 0.959 . S
C463 H465 0.960 . S
C463 H466 0.961 . S
H464 C463 0.959 . S
H465 C463 0.960 . S
H466 C463 0.961 . S
O467 Co442 1.967 . S
O467 C475 1.258 . S
O468 Co443 1.941 . S
O468 C475 1.266 . S
H469 C471 0.959 . S
H470 C471 0.961 . S
C471 C461 1.510 . S
C471 H469 0.959 . S
C471 H470 0.961 . S
C471 H472 0.960 . S
H472 C471 0.960 . S
H473 N453 0.862 . S
O474 Co442 1.920 . S
O474 C447 1.289 . S
C475 O467 1.258 . S
C475 O468 1.266 . S
Co476 O479 1.970 . S
Co476 N493 1.989 . S
Co476 O501 1.967 . S
Co476 O508 1.920 . S
Co477 O480 1.966 . S
Co477 N486 2.022 . S
Co477 N494 1.993 . S
Co477 O502 1.941 . S
C478 O479 1.258 . S
C478 O480 1.263 . S
O479 Co476 1.970 . S
O479 C478 1.258 . S
O480 Co477 1.966 . S
O480 C478 1.263 . S
C481 O482 1.235 . S
C481 O508 1.289 . S
O482 C481 1.235 . S
C483 C485 1.400 . S
C483 N486 1.351 . S
C483 C488 1.501 . S
C484 C485 1.387 . S
C484 N487 1.341 . S
C485 C483 1.400 . S
C485 C484 1.387 . S
N486 Co477 2.022 . S
N486 C483 1.351 . S
N486 N487 1.365 . S
N487 C484 1.341 . S
N487 N486 1.365 . S
N487 H507 0.862 . S
C488 C483 1.501 . S
C488 H489 0.961 . S
C488 H490 0.961 . S
C488 H491 0.960 . S
H489 C488 0.961 . S
H490 C488 0.961 . S
H491 C488 0.960 . S
C492 N493 1.342 . S
C492 C496 1.401 . S
C492 C497 1.499 . S
N493 Co476 1.989 . S
N493 C492 1.342 . S
N493 N494 1.388 . S
N494 Co477 1.993 . S
N494 N493 1.388 . S
N494 C495 1.346 . S
C495 N494 1.346 . S
C495 C496 1.396 . S
C495 C505 1.510 . S
C496 C492 1.401 . S
C496 C495 1.396 . S
C497 C492 1.499 . S
C497 H498 0.959 . S
C497 H499 0.960 . S
C497 H500 0.961 . S
H498 C497 0.959 . S
H499 C497 0.960 . S
H500 C497 0.961 . S
O501 Co476 1.967 . S
O501 C509 1.258 . S
O502 Co477 1.941 . S
O502 C509 1.266 . S
H503 C505 0.959 . S
H504 C505 0.961 . S
C505 C495 1.510 . S
C505 H503 0.959 . S
C505 H504 0.961 . S
C505 H506 0.960 . S
H506 C505 0.960 . S
H507 N487 0.862 . S
O508 Co476 1.920 . S
O508 C481 1.289 . S
C509 O501 1.258 . S
C509 O502 1.266 . S
Co510 O513 1.970 . S
Co510 N527 1.989 1_554 S
Co510 O535 1.967 . S
Co510 O542 1.920 1_554 S
Co511 O514 1.966 . S
Co511 N520 2.022 1_455 S
Co511 N528 1.993 1_554 S
Co511 O536 1.941 . S
C512 O513 1.258 . S
C512 O514 1.263 . S
O513 Co510 1.970 . S
O513 C512 1.258 . S
O514 Co511 1.966 . S
O514 C512 1.263 . S
C515 O516 1.235 . S
C515 O542 1.289 . S
O516 C515 1.235 . S
C517 C519 1.400 . S
C517 N520 1.351 . S
C517 C522 1.501 . S
C518 C519 1.387 1_556 S
C518 N521 1.341 . S
C519 C517 1.400 . S
C519 C518 1.387 1_554 S
N520 Co511 2.022 1_655 S
N520 C517 1.351 . S
N520 N521 1.365 1_554 S
N521 C518 1.341 . S
N521 N520 1.365 1_556 S
N521 H541 0.862 . S
C522 C517 1.501 . S
C522 H523 0.961 . S
C522 H524 0.961 . S
C522 H525 0.960 . S
H523 C522 0.961 . S
H524 C522 0.961 . S
H525 C522 0.960 . S
C526 N527 1.342 . S
C526 C530 1.401 . S
C526 C531 1.499 . S
N527 Co510 1.989 1_556 S
N527 C526 1.342 . S
N527 N528 1.388 . S
N528 Co511 1.993 1_556 S
N528 N527 1.388 . S
N528 C529 1.346 . S
C529 N528 1.346 . S
C529 C530 1.396 . S
C529 C539 1.510 1_455 S
C530 C526 1.401 . S
C530 C529 1.396 . S
C531 C526 1.499 . S
C531 H532 0.959 . S
C531 H533 0.960 . S
C531 H534 0.961 . S
H532 C531 0.959 . S
H533 C531 0.960 . S
H534 C531 0.961 . S
O535 Co510 1.967 . S
O535 C543 1.258 . S
O536 Co511 1.941 . S
O536 C543 1.266 . S
H537 C539 0.959 . S
H538 C539 0.961 . S
C539 C529 1.510 1_655 S
C539 H537 0.959 . S
C539 H538 0.961 . S
C539 H540 0.960 . S
H540 C539 0.960 . S
H541 N521 0.862 . S
O542 Co510 1.920 1_556 S
O542 C515 1.289 . S
C543 O535 1.258 . S
C543 O536 1.266 . S
Co544 O547 1.970 . S
Co544 N561 1.989 . S
Co544 O569 1.967 . S
Co544 O576 1.920 . S
Co545 O548 1.966 . S
Co545 N554 2.022 . S
Co545 N562 1.993 . S
Co545 O570 1.941 . S
C546 O547 1.258 . S
C546 O548 1.263 . S
O547 Co544 1.970 . S
O547 C546 1.258 . S
O548 Co545 1.966 . S
O548 C546 1.263 . S
C549 O550 1.235 . S
C549 O576 1.289 . S
O550 C549 1.235 . S
C551 C553 1.400 . S
C551 N554 1.351 . S
C551 C556 1.501 . S
C552 C553 1.387 . S
C552 N555 1.341 . S
C553 C551 1.400 . S
C553 C552 1.387 . S
N554 Co545 2.022 . S
N554 C551 1.351 . S
N554 N555 1.365 . S
N555 C552 1.341 . S
N555 N554 1.365 . S
N555 H575 0.862 . S
C556 C551 1.501 . S
C556 H557 0.961 . S
C556 H558 0.961 . S
C556 H559 0.960 . S
H557 C556 0.961 . S
H558 C556 0.961 . S
H559 C556 0.960 . S
C560 N561 1.342 . S
C560 C564 1.401 . S
C560 C565 1.499 . S
N561 Co544 1.989 . S
N561 C560 1.342 . S
N561 N562 1.388 . S
N562 Co545 1.993 . S
N562 N561 1.388 . S
N562 C563 1.346 . S
C563 N562 1.346 . S
C563 C564 1.396 . S
C563 C573 1.510 . S
C564 C560 1.401 . S
C564 C563 1.396 . S
C565 C560 1.499 . S
C565 H566 0.959 . S
C565 H567 0.960 . S
C565 H568 0.961 . S
H566 C565 0.959 . S
H567 C565 0.960 . S
H568 C565 0.961 . S
O569 Co544 1.967 . S
O569 C577 1.258 . S
O570 Co545 1.941 . S
O570 C577 1.266 . S
H571 C573 0.959 . S
H572 C573 0.961 . S
C573 C563 1.510 . S
C573 H571 0.959 . S
C573 H572 0.961 . S
C573 H574 0.960 . S
H574 C573 0.960 . S
H575 N555 0.862 . S
O576 Co544 1.920 . S
O576 C549 1.289 . S
C577 O569 1.258 . S
C577 O570 1.266 . S
Co578 O581 1.970 . S
Co578 N595 1.989 . S
Co578 O603 1.967 . S
Co578 O610 1.920 . S
Co579 O582 1.966 . S
Co579 N588 2.022 . S
Co579 N596 1.993 . S
Co579 O604 1.941 . S
C580 O581 1.258 . S
C580 O582 1.263 . S
O581 Co578 1.970 . S
O581 C580 1.258 . S
O582 Co579 1.966 . S
O582 C580 1.263 . S
C583 O584 1.235 . S
C583 O610 1.289 . S
O584 C583 1.235 . S
C585 C587 1.400 . S
C585 N588 1.351 . S
C585 C590 1.501 . S
C586 C587 1.390 . S
C586 N589 1.343 . S
C587 C585 1.400 . S
C587 C586 1.390 . S
N588 Co579 2.022 . S
N588 C585 1.351 . S
N588 N589 1.365 . S
N589 C586 1.343 . S
N589 N588 1.365 . S
N589 H609 0.862 . S
C590 C585 1.501 . S
C590 H591 0.961 . S
C590 H592 0.961 . S
C590 H593 0.960 . S
H591 C590 0.961 . S
H592 C590 0.961 . S
H593 C590 0.960 . S
C594 N595 1.342 . S
C594 C598 1.401 . S
C594 C599 1.499 . S
N595 Co578 1.989 . S
N595 C594 1.342 . S
N595 N596 1.388 . S
N596 Co579 1.993 . S
N596 N595 1.388 . S
N596 C597 1.346 . S
C597 N596 1.346 . S
C597 C598 1.396 . S
C597 C607 1.510 . S
C598 C594 1.401 . S
C598 C597 1.396 . S
C599 C594 1.499 . S
C599 H600 0.959 . S
C599 H601 0.960 . S
C599 H602 0.961 . S
H600 C599 0.959 . S
H601 C599 0.960 . S
H602 C599 0.961 . S
O603 Co578 1.967 . S
O603 C611 1.258 . S
O604 Co579 1.941 . S
O604 C611 1.266 . S
H605 C607 0.959 . S
H606 C607 0.961 . S
C607 C597 1.510 . S
C607 H605 0.959 . S
C607 H606 0.961 . S
C607 H608 0.960 . S
H608 C607 0.960 . S
H609 N589 0.862 . S
O610 Co578 1.920 . S
O610 C583 1.289 . S
C611 O603 1.258 . S
C611 O604 1.266 . S
Co612 O615 1.994 . S
Co612 N629 1.971 1_565 S
Co612 O637 1.971 . S
Co612 O644 1.914 1_565 S
Co613 O616 1.966 . S
Co613 N622 2.022 . S
Co613 N630 1.993 1_565 S
Co613 O638 1.941 . S
C614 O615 1.258 . S
C614 O616 1.263 . S
O615 Co612 1.994 . S
O615 C614 1.258 . S
O616 Co613 1.966 . S
O616 C614 1.263 . S
C617 O618 1.235 . S
C617 O644 1.289 . S
O618 C617 1.235 . S
C619 C621 1.400 . S
C619 N622 1.351 . S
C619 C624 1.501 . S
C620 C621 1.387 1_545 S
C620 N623 1.341 . S
C621 C619 1.400 . S
C621 C620 1.387 1_565 S
N622 Co613 2.022 . S
N622 C619 1.351 . S
N622 N623 1.365 1_565 S
N623 C620 1.341 . S
N623 N622 1.365 1_545 S
N623 H643 0.862 . S
C624 C619 1.501 . S
C624 H625 0.961 . S
C624 H626 0.961 . S
C624 H627 0.960 . S
H625 C624 0.961 . S
H626 C624 0.961 . S
H627 C624 0.960 . S
C628 N629 1.342 . S
C628 C632 1.401 . S
C628 C633 1.499 . S
N629 Co612 1.971 1_545 S
N629 C628 1.342 . S
N629 N630 1.388 . S
N630 Co613 1.993 1_545 S
N630 N629 1.388 . S
N630 C631 1.346 . S
C631 N630 1.346 . S
C631 C632 1.396 . S
C631 C641 1.510 . S
C632 C628 1.401 . S
C632 C631 1.396 . S
C633 C628 1.499 . S
C633 H634 0.959 . S
C633 H635 0.960 . S
C633 H636 0.961 . S
H634 C633 0.959 . S
H635 C633 0.960 . S
H636 C633 0.961 . S
O637 Co612 1.971 . S
O637 C645 1.258 . S
O638 Co613 1.941 . S
O638 C645 1.266 . S
H639 C641 0.959 . S
H640 C641 0.961 . S
C641 C631 1.510 . S
C641 H639 0.959 . S
C641 H640 0.961 . S
C641 H642 0.960 . S
H642 C641 0.960 . S
H643 N623 0.862 . S
O644 Co612 1.914 1_545 S
O644 C617 1.289 . S
C645 O637 1.258 . S
C645 O638 1.266 . S
Co646 O649 1.970 . S
Co646 N663 1.989 . S
Co646 O671 1.967 . S
Co646 O678 1.920 . S
Co647 O650 1.966 . S
Co647 N656 2.022 . S
Co647 N664 1.993 . S
Co647 O672 1.941 . S
C648 O649 1.258 . S
C648 O650 1.263 . S
O649 Co646 1.970 . S
O649 C648 1.258 . S
O650 Co647 1.966 . S
O650 C648 1.263 . S
C651 O652 1.235 . S
C651 O678 1.289 . S
O652 C651 1.235 . S
C653 C655 1.400 . S
C653 N656 1.351 . S
C653 C658 1.501 . S
C654 C655 1.387 1_565 S
C654 N657 1.341 1_565 S
C655 C653 1.400 . S
C655 C654 1.387 1_545 S
N656 Co647 2.022 . S
N656 C653 1.351 . S
N656 N657 1.365 . S
N657 C654 1.341 1_545 S
N657 N656 1.365 . S
N657 H677 0.862 . S
C658 C653 1.501 . S
C658 H659 0.961 . S
C658 H660 0.961 . S
C658 H661 0.960 . S
H659 C658 0.961 . S
H660 C658 0.961 . S
H661 C658 0.960 . S
C662 N663 1.342 . S
C662 C666 1.401 . S
C662 C667 1.499 . S
N663 Co646 1.989 . S
N663 C662 1.342 . S
N663 N664 1.388 . S
N664 Co647 1.993 . S
N664 N663 1.388 . S
N664 C665 1.346 . S
C665 N664 1.346 . S
C665 C666 1.396 . S
C665 C675 1.510 . S
C666 C662 1.401 . S
C666 C665 1.396 . S
C667 C662 1.499 . S
C667 H668 0.959 . S
C667 H669 0.960 . S
C667 H670 0.961 . S
H668 C667 0.959 . S
H669 C667 0.960 . S
H670 C667 0.961 . S
O671 Co646 1.967 . S
O671 C679 1.258 . S
O672 Co647 1.941 . S
O672 C679 1.266 . S
H673 C675 0.959 . S
H674 C675 0.961 . S
C675 C665 1.510 . S
C675 H673 0.959 . S
C675 H674 0.961 . S
C675 H676 0.960 . S
H676 C675 0.960 . S
H677 N657 0.862 . S
O678 Co646 1.920 . S
O678 C651 1.289 . S
C679 O671 1.258 . S
C679 O672 1.266 . S
Co680 O683 1.970 . S
Co680 N697 1.989 1_545 S
Co680 O705 1.967 . S
Co680 O712 1.920 1_545 S
Co681 O684 1.966 . S
Co681 N690 2.022 1_554 S
Co681 N698 1.993 1_545 S
Co681 O706 1.941 . S
C682 O683 1.258 . S
C682 O684 1.263 . S
O683 Co680 1.970 . S
O683 C682 1.258 . S
O684 Co681 1.966 . S
O684 C682 1.263 . S
C685 O686 1.235 . S
C685 O712 1.289 . S
O686 C685 1.235 . S
C687 C689 1.400 . S
C687 N690 1.351 . S
C687 C692 1.501 . S
C688 C689 1.387 1_565 S
C688 N691 1.341 . S
C689 C687 1.400 . S
C689 C688 1.387 1_545 S
N690 Co681 2.022 1_556 S
N690 C687 1.351 . S
N690 N691 1.365 1_545 S
N691 C688 1.341 . S
N691 N690 1.365 1_565 S
N691 H711 0.862 . S
C692 C687 1.501 . S
C692 H693 0.961 . S
C692 H694 0.961 . S
C692 H695 0.960 . S
H693 C692 0.961 . S
H694 C692 0.961 . S
H695 C692 0.960 . S
C696 N697 1.342 . S
C696 C700 1.401 . S
C696 C701 1.499 . S
N697 Co680 1.989 1_565 S
N697 C696 1.342 . S
N697 N698 1.388 . S
N698 Co681 1.993 1_565 S
N698 N697 1.388 . S
N698 C699 1.346 . S
C699 N698 1.346 . S
C699 C700 1.396 . S
C699 C709 1.510 1_554 S
C700 C696 1.401 . S
C700 C699 1.396 . S
C701 C696 1.499 . S
C701 H702 0.959 . S
C701 H703 0.960 . S
C701 H704 0.961 . S
H702 C701 0.959 . S
H703 C701 0.960 . S
H704 C701 0.961 . S
O705 Co680 1.967 . S
O705 C713 1.258 . S
O706 Co681 1.941 . S
O706 C713 1.266 . S
H707 C709 0.959 . S
H708 C709 0.961 . S
C709 C699 1.510 1_556 S
C709 H707 0.959 . S
C709 H708 0.961 . S
C709 H710 0.960 . S
H710 C709 0.960 . S
H711 N691 0.862 . S
O712 Co680 1.920 1_565 S
O712 C685 1.289 . S
C713 O705 1.258 . S
C713 O706 1.266 . S
Co714 O717 1.970 . S
Co714 N731 1.989 . S
Co714 O739 1.967 . S
Co714 O746 1.920 . S
Co715 O718 1.966 . S
Co715 N724 2.022 . S
Co715 N732 1.993 . S
Co715 O740 1.941 . S
C716 O717 1.258 . S
C716 O718 1.263 . S
O717 Co714 1.970 . S
O717 C716 1.258 . S
O718 Co715 1.966 . S
O718 C716 1.263 . S
C719 O720 1.235 . S
C719 O746 1.289 . S
O720 C719 1.235 . S
C721 C723 1.400 . S
C721 N724 1.351 . S
C721 C726 1.501 . S
C722 C723 1.387 . S
C722 N725 1.341 . S
C723 C721 1.400 . S
C723 C722 1.387 . S
N724 Co715 2.022 . S
N724 C721 1.351 . S
N724 N725 1.365 . S
N725 C722 1.341 . S
N725 N724 1.365 . S
N725 H745 0.862 . S
C726 C721 1.501 . S
C726 H727 0.961 . S
C726 H728 0.961 . S
C726 H729 0.960 . S
H727 C726 0.961 . S
H728 C726 0.961 . S
H729 C726 0.960 . S
C730 N731 1.342 . S
C730 C734 1.401 . S
C730 C735 1.499 . S
N731 Co714 1.989 . S
N731 C730 1.342 . S
N731 N732 1.388 . S
N732 Co715 1.993 . S
N732 N731 1.388 . S
N732 C733 1.346 . S
C733 N732 1.346 . S
C733 C734 1.396 . S
C733 C743 1.510 . S
C734 C730 1.401 . S
C734 C733 1.396 . S
C735 C730 1.499 . S
C735 H736 0.959 . S
C735 H737 0.960 . S
C735 H738 0.961 . S
H736 C735 0.959 . S
H737 C735 0.960 . S
H738 C735 0.961 . S
O739 Co714 1.967 . S
O739 C747 1.258 . S
O740 Co715 1.941 . S
O740 C747 1.266 . S
H741 C743 0.959 . S
H742 C743 0.961 . S
C743 C733 1.510 . S
C743 H741 0.959 . S
C743 H742 0.961 . S
C743 H744 0.960 . S
H744 C743 0.960 . S
H745 N725 0.862 . S
O746 Co714 1.920 . S
O746 C719 1.289 . S
C747 O739 1.258 . S
C747 O740 1.266 . S
Co748 O751 1.970 . S
Co748 N765 1.989 . S
Co748 O773 1.967 . S
Co748 O780 1.920 . S
Co749 O752 1.966 . S
Co749 N758 2.022 . S
Co749 N766 1.993 . S
Co749 O774 1.941 . S
C750 O751 1.258 . S
C750 O752 1.263 . S
O751 Co748 1.970 . S
O751 C750 1.258 . S
O752 Co749 1.966 . S
O752 C750 1.263 . S
C753 O754 1.235 . S
C753 O780 1.289 . S
O754 C753 1.235 . S
C755 C757 1.400 . S
C755 N758 1.351 . S
C755 C760 1.501 . S
C756 C757 1.387 . S
C756 N759 1.341 . S
C757 C755 1.400 . S
C757 C756 1.387 . S
N758 Co749 2.022 . S
N758 C755 1.351 . S
N758 N759 1.365 . S
N759 C756 1.341 . S
N759 N758 1.365 . S
N759 H779 0.862 . S
C760 C755 1.501 . S
C760 H761 0.961 . S
C760 H762 0.961 . S
C760 H763 0.960 . S
H761 C760 0.961 . S
H762 C760 0.961 . S
H763 C760 0.960 . S
C764 N765 1.342 . S
C764 C768 1.401 . S
C764 C769 1.499 . S
N765 Co748 1.989 . S
N765 C764 1.342 . S
N765 N766 1.388 . S
N766 Co749 1.993 . S
N766 N765 1.388 . S
N766 C767 1.346 . S
C767 N766 1.346 . S
C767 C768 1.396 . S
C767 C777 1.510 . S
C768 C764 1.401 . S
C768 C767 1.396 . S
C769 C764 1.499 . S
C769 H770 0.959 . S
C769 H771 0.960 . S
C769 H772 0.961 . S
H770 C769 0.959 . S
H771 C769 0.960 . S
H772 C769 0.961 . S
O773 Co748 1.967 . S
O773 C781 1.258 . S
O774 Co749 1.941 . S
O774 C781 1.266 . S
H775 C777 0.959 . S
H776 C777 0.961 . S
C777 C767 1.510 . S
C777 H775 0.959 . S
C777 H776 0.961 . S
C777 H778 0.960 . S
H778 C777 0.960 . S
H779 N759 0.862 . S
O780 Co748 1.920 . S
O780 C753 1.289 . S
C781 O773 1.258 . S
C781 O774 1.266 . S
Co782 O785 1.970 . S
Co782 N799 1.989 . S
Co782 O807 1.967 . S
Co782 O814 1.920 . S
Co783 O786 1.966 . S
Co783 N792 2.022 1_556 S
Co783 N800 1.993 . S
Co783 O808 1.941 . S
C784 O785 1.258 . S
C784 O786 1.263 . S
O785 Co782 1.970 . S
O785 C784 1.258 . S
O786 Co783 1.966 . S
O786 C784 1.263 . S
C787 O788 1.235 . S
C787 O814 1.289 . S
O788 C787 1.235 . S
C789 C791 1.400 . S
C789 N792 1.351 . S
C789 C794 1.501 . S
C790 C791 1.387 . S
C790 N793 1.341 . S
C791 C789 1.400 . S
C791 C790 1.387 . S
N792 Co783 2.022 1_554 S
N792 C789 1.351 . S
N792 N793 1.365 . S
N793 C790 1.341 . S
N793 N792 1.365 . S
N793 H813 0.862 . S
C794 C789 1.501 . S
C794 H795 0.961 . S
C794 H796 0.961 . S
C794 H797 0.960 . S
H795 C794 0.961 . S
H796 C794 0.961 . S
H797 C794 0.960 . S
C798 N799 1.342 . S
C798 C802 1.401 . S
C798 C803 1.499 . S
N799 Co782 1.989 . S
N799 C798 1.342 . S
N799 N800 1.388 . S
N800 Co783 1.993 . S
N800 N799 1.388 . S
N800 C801 1.346 . S
C801 N800 1.346 . S
C801 C802 1.396 . S
C801 C811 1.510 1_556 S
C802 C798 1.401 . S
C802 C801 1.396 . S
C803 C798 1.499 . S
C803 H804 0.959 . S
C803 H805 0.960 . S
C803 H806 0.961 . S
H804 C803 0.959 . S
H805 C803 0.960 . S
H806 C803 0.961 . S
O807 Co782 1.967 . S
O807 C815 1.258 . S
O808 Co783 1.941 . S
O808 C815 1.266 . S
H809 C811 0.959 . S
H810 C811 0.961 . S
C811 C801 1.510 1_554 S
C811 H809 0.959 . S
C811 H810 0.961 . S
C811 H812 0.960 . S
H812 C811 0.960 . S
H813 N793 0.862 . S
O814 Co782 1.920 . S
O814 C787 1.289 . S
C815 O807 1.258 . S
C815 O808 1.266 . S
C816 C817 1.363 . S
C816 C822 1.379 . S
C816 N824 1.356 . S
C817 C816 1.363 . S
C817 C823 1.363 . S
C818 C819 1.363 . S
C818 C823 1.379 . S
C818 N825 1.356 . S
C819 C818 1.363 . S
C819 C822 1.363 . S
N820 C822 1.356 . S
N820 H832 0.984 . S
N820 H833 0.985 . S
N821 C823 1.356 . S
N821 H826 0.984 . S
N821 H827 0.985 . S
C822 C816 1.379 . S
C822 C819 1.363 . S
C822 N820 1.356 . S
C823 C817 1.363 . S
C823 C818 1.379 . S
C823 N821 1.356 . S
N824 C816 1.356 . S
N824 H830 0.984 . S
N824 H831 0.984 . S
N825 C818 1.356 . S
N825 H828 0.984 . S
N825 H829 0.985 . S
H826 N821 0.984 . S
H827 N821 0.985 . S
H828 N825 0.984 . S
H829 N825 0.985 . S
H830 N824 0.984 . S
H831 N824 0.984 . S
H832 N820 0.984 . S
H833 N820 0.985 . S
C834 C835 1.363 . S
C834 C840 1.379 . S
C834 N842 1.356 . S
C835 C834 1.363 . S
C835 C841 1.363 . S
C836 C837 1.363 . S
C836 C841 1.379 . S
C836 N843 1.356 . S
C837 C836 1.363 . S
C837 C840 1.363 . S
N838 C840 1.356 . S
N838 H850 0.984 . S
N838 H851 0.985 . S
N839 C841 1.356 . S
N839 H844 0.984 . S
N839 H845 0.985 . S
C840 C834 1.379 . S
C840 C837 1.363 . S
C840 N838 1.356 . S
C841 C835 1.363 . S
C841 C836 1.379 . S
C841 N839 1.356 . S
N842 C834 1.356 . S
N842 H848 0.984 . S
N842 H849 0.984 . S
N843 C836 1.356 . S
N843 H846 0.984 . S
N843 H847 0.985 . S
H844 N839 0.984 . S
H845 N839 0.985 . S
H846 N843 0.984 . S
H847 N843 0.985 . S
H848 N842 0.984 . S
H849 N842 0.984 . S
H850 N838 0.984 . S
H851 N838 0.985 . S
C852 C853 1.363 . S
C852 C858 1.379 . S
C852 N860 1.356 . S
C853 C852 1.363 . S
C853 C859 1.363 . S
C854 C855 1.363 . S
C854 C859 1.379 . S
C854 N861 1.356 . S
C855 C854 1.363 . S
C855 C858 1.363 . S
N856 C858 1.356 . S
N856 H868 0.984 . S
N856 H869 0.985 . S
N857 C859 1.356 . S
N857 H862 0.984 . S
N857 H863 0.985 . S
C858 C852 1.379 . S
C858 C855 1.363 . S
C858 N856 1.356 . S
C859 C853 1.363 . S
C859 C854 1.379 . S
C859 N857 1.356 . S
N860 C852 1.356 . S
N860 H866 0.984 . S
N860 H867 0.984 . S
N861 C854 1.356 . S
N861 H864 0.984 . S
N861 H865 0.985 . S
H862 N857 0.984 . S
H863 N857 0.985 . S
H864 N861 0.984 . S
H865 N861 0.985 . S
H866 N860 0.984 . S
H867 N860 0.984 . S
H868 N856 0.984 . S
H869 N856 0.985 . S
C870 C871 1.363 . S
C870 C876 1.379 . S
C870 N878 1.356 . S
C871 C870 1.363 . S
C871 C877 1.363 . S
C872 C873 1.363 . S
C872 C877 1.379 . S
C872 N879 1.356 . S
C873 C872 1.363 . S
C873 C876 1.363 . S
N874 C876 1.356 . S
N874 H886 0.984 . S
N874 H887 0.985 . S
N875 C877 1.356 . S
N875 H880 0.984 . S
N875 H881 0.985 . S
C876 C870 1.379 . S
C876 C873 1.363 . S
C876 N874 1.356 . S
C877 C871 1.363 . S
C877 C872 1.379 . S
C877 N875 1.356 . S
N878 C870 1.356 . S
N878 H884 0.984 . S
N878 H885 0.984 . S
N879 C872 1.356 . S
N879 H882 0.984 . S
N879 H883 0.985 . S
H880 N875 0.984 . S
H881 N875 0.985 . S
H882 N879 0.984 . S
H883 N879 0.985 . S
H884 N878 0.984 . S
H885 N878 0.984 . S
H886 N874 0.984 . S
H887 N874 0.985 . S
C888 C889 1.363 . S
C888 C894 1.379 . S
C888 N896 1.356 . S
C889 C888 1.363 . S
C889 C895 1.363 . S
C890 C891 1.363 . S
C890 C895 1.379 . S
C890 N897 1.356 . S
C891 C890 1.363 . S
C891 C894 1.363 . S
N892 C894 1.356 . S
N892 H904 0.984 . S
N892 H905 0.985 . S
N893 C895 1.356 . S
N893 H898 0.984 . S
N893 H899 0.985 . S
C894 C888 1.379 . S
C894 C891 1.363 . S
C894 N892 1.356 . S
C895 C889 1.363 . S
C895 C890 1.379 . S
C895 N893 1.356 . S
N896 C888 1.356 . S
N896 H902 0.984 . S
N896 H903 0.984 . S
N897 C890 1.356 . S
N897 H900 0.984 . S
N897 H901 0.985 . S
H898 N893 0.984 . S
H899 N893 0.985 . S
H900 N897 0.984 . S
H901 N897 0.985 . S
H902 N896 0.984 . S
H903 N896 0.984 . S
H904 N892 0.984 . S
H905 N892 0.985 . S
C906 C907 1.363 . S
C906 C912 1.379 . S
C906 N914 1.356 . S
C907 C906 1.363 . S
C907 C913 1.363 . S
C908 C909 1.363 . S
C908 C913 1.379 . S
C908 N915 1.356 . S
C909 C908 1.363 . S
C909 C912 1.363 . S
N910 C912 1.356 . S
N910 H922 0.984 . S
N910 H923 0.985 . S
N911 C913 1.356 . S
N911 H916 0.984 . S
N911 H917 0.985 . S
C912 C906 1.379 . S
C912 C909 1.363 . S
C912 N910 1.356 . S
C913 C907 1.363 . S
C913 C908 1.379 . S
C913 N911 1.356 . S
N914 C906 1.356 . S
N914 H920 0.984 . S
N914 H921 0.984 . S
N915 C908 1.356 . S
N915 H918 0.984 . S
N915 H919 0.985 . S
H916 N911 0.984 . S
H917 N911 0.985 . S
H918 N915 0.984 . S
H919 N915 0.985 . S
H920 N914 0.984 . S
H921 N914 0.984 . S
H922 N910 0.984 . S
H923 N910 0.985 . S
C924 C925 1.363 . S
C924 C930 1.379 . S
C924 N932 1.356 . S
C925 C924 1.363 . S
C925 C931 1.363 . S
C926 C927 1.363 . S
C926 C931 1.379 . S
C926 N933 1.356 . S
C927 C926 1.363 . S
C927 C930 1.363 . S
N928 C930 1.356 . S
N928 H940 0.984 . S
N928 H941 0.985 . S
N929 C931 1.356 . S
N929 H934 0.984 . S
N929 H935 0.985 . S
C930 C924 1.379 . S
C930 C927 1.363 . S
C930 N928 1.356 . S
C931 C925 1.363 . S
C931 C926 1.379 . S
C931 N929 1.356 . S
N932 C924 1.356 . S
N932 H938 0.984 . S
N932 H939 0.984 . S
N933 C926 1.356 . S
N933 H936 0.984 . S
N933 H937 0.985 . S
H934 N929 0.984 . S
H935 N929 0.985 . S
H936 N933 0.984 . S
H937 N933 0.985 . S
H938 N932 0.984 . S
H939 N932 0.984 . S
H940 N928 0.984 . S
H941 N928 0.985 . S
C942 C943 1.363 1_565 S
C942 C948 1.379 . S
C942 N950 1.356 . S
C943 C942 1.363 1_545 S
C943 C949 1.363 . S
C944 C945 1.363 . S
C944 C949 1.379 . S
C944 N951 1.356 . S
C945 C944 1.363 . S
C945 C948 1.362 1_545 S
N946 C948 1.357 . S
N946 H958 0.984 . S
N946 H959 0.985 . S
N947 C949 1.356 . S
N947 H952 0.984 . S
N947 H953 0.985 . S
C948 C942 1.379 . S
C948 C945 1.362 1_565 S
C948 N946 1.357 . S
C949 C943 1.363 . S
C949 C944 1.379 . S
C949 N947 1.356 . S
N950 C942 1.356 . S
N950 H956 0.984 . S
N950 H957 0.984 . S
N951 C944 1.356 . S
N951 H954 0.984 . S
N951 H955 0.985 . S
H952 N947 0.984 . S
H953 N947 0.985 . S
H954 N951 0.984 . S
H955 N951 0.985 . S
H956 N950 0.984 . S
H957 N950 0.984 . S
H958 N946 0.984 . S
H959 N946 0.985 . S
C960 C961 1.363 . S
C960 C966 1.379 . S
C960 N968 1.356 . S
C961 C960 1.363 . S
C961 C967 1.363 . S
C962 C963 1.363 . S
C962 C967 1.379 . S
C962 N969 1.356 . S
C963 C962 1.363 . S
C963 C966 1.363 . S
N964 C966 1.356 . S
N964 H976 0.984 . S
N964 H977 0.985 . S
N965 C967 1.356 . S
N965 H970 0.984 . S
N965 H971 0.985 . S
C966 C960 1.379 . S
C966 C963 1.363 . S
C966 N964 1.356 . S
C967 C961 1.363 . S
C967 C962 1.379 . S
C967 N965 1.356 . S
N968 C960 1.356 . S
N968 H974 0.984 . S
N968 H975 0.984 . S
N969 C962 1.356 . S
N969 H972 0.984 . S
N969 H973 0.985 . S
H970 N965 0.984 . S
H971 N965 0.985 . S
H972 N969 0.984 . S
H973 N969 0.985 . S
H974 N968 0.984 . S
H975 N968 0.984 . S
H976 N964 0.984 . S
H977 N964 0.985 . S
C978 C979 1.363 . S
C978 C984 1.379 . S
C978 N986 1.356 . S
C979 C978 1.363 . S
C979 C985 1.363 . S
C980 C981 1.363 . S
C980 C985 1.379 . S
C980 N987 1.356 . S
C981 C980 1.363 . S
C981 C984 1.363 . S
N982 C984 1.356 . S
N982 H994 0.984 . S
N982 H995 0.985 . S
N983 C985 1.356 . S
N983 H988 0.984 . S
N983 H989 0.985 . S
C984 C978 1.379 . S
C984 C981 1.363 . S
C984 N982 1.356 . S
C985 C979 1.363 . S
C985 C980 1.379 . S
C985 N983 1.356 . S
N986 C978 1.356 . S
N986 H992 0.984 . S
N986 H993 0.984 . S
N987 C980 1.356 . S
N987 H990 0.984 . S
N987 H991 0.985 . S
H988 N983 0.984 . S
H989 N983 0.985 . S
H990 N987 0.984 . S
H991 N987 0.985 . S
H992 N986 0.984 . S
H993 N986 0.984 . S
H994 N982 0.984 . S
H995 N982 0.985 . S
C996 C997 1.363 . S
C996 C1002 1.379 . S
C996 N1004 1.356 . S
C997 C996 1.363 . S
C997 C1003 1.363 . S
C998 C999 1.363 . S
C998 C1003 1.379 . S
C998 N1005 1.356 . S
C999 C998 1.363 . S
C999 C1002 1.363 . S
N1000 C1002 1.356 . S
N1000 H1012 0.984 . S
N1000 H1013 0.985 . S
N1001 C1003 1.356 . S
N1001 H1006 0.984 . S
N1001 H1007 0.985 . S
C1002 C996 1.379 . S
C1002 C999 1.363 . S
C1002 N1000 1.356 . S
C1003 C997 1.363 . S
C1003 C998 1.379 . S
C1003 N1001 1.356 . S
N1004 C996 1.356 . S
N1004 H1010 0.984 . S
N1004 H1011 0.984 . S
N1005 C998 1.356 . S
N1005 H1008 0.984 . S
N1005 H1009 0.985 . S
H1006 N1001 0.984 . S
H1007 N1001 0.985 . S
H1008 N1005 0.984 . S
H1009 N1005 0.985 . S
H1010 N1004 0.984 . S
H1011 N1004 0.984 . S
H1012 N1000 0.984 . S
H1013 N1000 0.985 . S
C1014 C1015 1.363 . S
C1014 C1020 1.379 . S
C1014 N1022 1.356 . S
C1015 C1014 1.363 . S
C1015 C1021 1.363 . S
C1016 C1017 1.363 . S
C1016 C1021 1.379 . S
C1016 N1023 1.356 . S
C1017 C1016 1.363 . S
C1017 C1020 1.363 . S
N1018 C1020 1.356 1_455 S
N1018 H1030 0.984 . S
N1018 H1031 0.985 . S
N1019 C1021 1.356 . S
N1019 H1024 0.984 . S
N1019 H1025 0.985 . S
C1020 C1014 1.379 . S
C1020 C1017 1.363 . S
C1020 N1018 1.356 1_655 S
C1021 C1015 1.363 . S
C1021 C1016 1.379 . S
C1021 N1019 1.356 . S
N1022 C1014 1.356 . S
N1022 H1028 0.984 1_655 S
N1022 H1029 0.984 . S
N1023 C1016 1.356 . S
N1023 H1026 0.984 . S
N1023 H1027 0.985 . S
H1024 N1019 0.984 . S
H1025 N1019 0.985 . S
H1026 N1023 0.984 . S
H1027 N1023 0.985 . S
H1028 N1022 0.984 1_455 S
H1029 N1022 0.984 . S
H1030 N1018 0.984 . S
H1031 N1018 0.985 . S
C1032 C1033 1.363 . S
C1032 C1038 1.379 . S
C1032 N1040 1.356 . S
C1033 C1032 1.363 . S
C1033 C1039 1.363 . S
C1034 C1035 1.363 . S
C1034 C1039 1.379 . S
C1034 N1041 1.356 . S
C1035 C1034 1.363 . S
C1035 C1038 1.363 . S
N1036 C1038 1.356 . S
N1036 H1048 0.984 . S
N1036 H1049 0.985 . S
N1037 C1039 1.356 . S
N1037 H1042 0.984 . S
N1037 H1043 0.985 . S
C1038 C1032 1.379 . S
C1038 C1035 1.363 . S
C1038 N1036 1.356 . S
C1039 C1033 1.363 . S
C1039 C1034 1.379 . S
C1039 N1037 1.356 . S
N1040 C1032 1.356 . S
N1040 H1046 0.984 . S
N1040 H1047 0.984 . S
N1041 C1034 1.356 . S
N1041 H1044 0.984 . S
N1041 H1045 0.985 . S
H1042 N1037 0.984 . S
H1043 N1037 0.985 . S
H1044 N1041 0.984 . S
H1045 N1041 0.985 . S
H1046 N1040 0.984 . S
H1047 N1040 0.984 . S
H1048 N1036 0.984 . S
H1049 N1036 0.985 . S
C1050 C1051 1.363 . S
C1050 C1056 1.379 . S
C1050 N1058 1.356 . S
C1051 C1050 1.363 . S
C1051 C1057 1.363 . S
C1052 C1053 1.363 . S
C1052 C1057 1.379 . S
C1052 N1059 1.356 . S
C1053 C1052 1.363 . S
C1053 C1056 1.363 . S
N1054 C1056 1.356 . S
N1054 H1066 0.984 . S
N1054 H1067 0.985 . S
N1055 C1057 1.356 . S
N1055 H1060 0.984 . S
N1055 H1061 0.985 . S
C1056 C1050 1.379 . S
C1056 C1053 1.363 . S
C1056 N1054 1.356 . S
C1057 C1051 1.363 . S
C1057 C1052 1.379 . S
C1057 N1055 1.356 . S
N1058 C1050 1.356 . S
N1058 H1064 0.984 . S
N1058 H1065 0.984 . S
N1059 C1052 1.356 . S
N1059 H1062 0.984 . S
N1059 H1063 0.985 . S
H1060 N1055 0.984 . S
H1061 N1055 0.985 . S
H1062 N1059 0.984 . S
H1063 N1059 0.985 . S
H1064 N1058 0.984 . S
H1065 N1058 0.984 . S
H1066 N1054 0.984 . S
H1067 N1054 0.985 . S
C1068 C1069 1.363 . S
C1068 C1074 1.379 . S
C1068 N1076 1.356 . S
C1069 C1068 1.363 . S
C1069 C1075 1.363 . S
C1070 C1071 1.363 . S
C1070 C1075 1.379 . S
C1070 N1077 1.356 . S
C1071 C1070 1.363 . S
C1071 C1074 1.363 . S
N1072 C1074 1.356 . S
N1072 H1084 0.984 . S
N1072 H1085 0.985 . S
N1073 C1075 1.356 . S
N1073 H1078 0.984 . S
N1073 H1079 0.985 . S
C1074 C1068 1.379 . S
C1074 C1071 1.363 . S
C1074 N1072 1.356 . S
C1075 C1069 1.363 . S
C1075 C1070 1.379 . S
C1075 N1073 1.356 . S
N1076 C1068 1.356 . S
N1076 H1082 0.984 . S
N1076 H1083 0.984 . S
N1077 C1070 1.356 . S
N1077 H1080 0.984 . S
N1077 H1081 0.985 . S
H1078 N1073 0.984 . S
H1079 N1073 0.985 . S
H1080 N1077 0.984 . S
H1081 N1077 0.985 . S
H1082 N1076 0.984 . S
H1083 N1076 0.984 . S
H1084 N1072 0.984 . S
H1085 N1072 0.985 . S
C1086 C1087 1.363 . S
C1086 C1092 1.379 . S
C1086 N1094 1.356 1_455 S
C1087 C1086 1.363 . S
C1087 C1093 1.363 . S
C1088 C1089 1.363 . S
C1088 C1093 1.379 . S
C1088 N1095 1.356 . S
C1089 C1088 1.363 . S
C1089 C1092 1.363 . S
N1090 C1092 1.356 . S
N1090 H1102 0.984 . S
N1090 H1103 0.985 . S
N1091 C1093 1.356 . S
N1091 H1096 0.984 . S
N1091 H1097 0.985 . S
C1092 C1086 1.379 . S
C1092 C1089 1.363 . S
C1092 N1090 1.356 . S
C1093 C1087 1.363 . S
C1093 C1088 1.379 . S
C1093 N1091 1.356 . S
N1094 C1086 1.356 1_655 S
N1094 H1100 0.984 . S
N1094 H1101 0.984 . S
N1095 C1088 1.356 . S
N1095 H1098 0.984 . S
N1095 H1099 0.985 . S
H1096 N1091 0.984 . S
H1097 N1091 0.985 . S
H1098 N1095 0.984 . S
H1099 N1095 0.985 . S
H1100 N1094 0.984 . S
H1101 N1094 0.984 . S
H1102 N1090 0.984 . S
H1103 N1090 0.985 . S
C1104 C1105 1.363 . S
C1104 C1110 1.379 . S
C1104 N1112 1.356 . S
C1105 C1104 1.363 . S
C1105 C1111 1.363 . S
C1106 C1107 1.363 . S
C1106 C1111 1.379 . S
C1106 N1113 1.356 . S
C1107 C1106 1.363 . S
C1107 C1110 1.363 . S
N1108 C1110 1.356 . S
N1108 H1120 0.984 . S
N1108 H1121 0.985 . S
N1109 C1111 1.356 . S
N1109 H1114 0.984 . S
N1109 H1115 0.985 . S
C1110 C1104 1.379 . S
C1110 C1107 1.363 . S
C1110 N1108 1.356 . S
C1111 C1105 1.363 . S
C1111 C1106 1.379 . S
C1111 N1109 1.356 . S
N1112 C1104 1.356 . S
N1112 H1118 0.984 . S
N1112 H1119 0.984 . S
N1113 C1106 1.356 . S
N1113 H1116 0.984 . S
N1113 H1117 0.985 . S
H1114 N1109 0.984 . S
H1115 N1109 0.985 . S
H1116 N1113 0.984 . S
H1117 N1113 0.985 . S
H1118 N1112 0.984 . S
H1119 N1112 0.984 . S
H1120 N1108 0.984 . S
H1121 N1108 0.985 . S
C1122 C1123 1.363 . S
C1122 C1128 1.379 . S
C1122 N1130 1.356 . S
C1123 C1122 1.363 . S
C1123 C1129 1.363 . S
C1124 C1125 1.363 . S
C1124 C1129 1.379 . S
C1124 N1131 1.356 . S
C1125 C1124 1.363 . S
C1125 C1128 1.363 . S
N1126 C1128 1.356 . S
N1126 H1138 0.984 . S
N1126 H1139 0.985 . S
N1127 C1129 1.356 . S
N1127 H1132 0.984 . S
N1127 H1133 0.985 . S
C1128 C1122 1.379 . S
C1128 C1125 1.363 . S
C1128 N1126 1.356 . S
C1129 C1123 1.363 . S
C1129 C1124 1.379 . S
C1129 N1127 1.356 . S
N1130 C1122 1.356 . S
N1130 H1136 0.984 . S
N1130 H1137 0.984 . S
N1131 C1124 1.356 . S
N1131 H1134 0.984 . S
N1131 H1135 0.985 . S
H1132 N1127 0.984 . S
H1133 N1127 0.985 . S
H1134 N1131 0.984 . S
H1135 N1131 0.985 . S
H1136 N1130 0.984 . S
H1137 N1130 0.984 . S
H1138 N1126 0.984 . S
H1139 N1126 0.985 . S
C1140 C1141 1.363 . S
C1140 C1146 1.379 . S
C1140 N1148 1.356 . S
C1141 C1140 1.363 . S
C1141 C1147 1.363 . S
C1142 C1143 1.363 . S
C1142 C1147 1.379 . S
C1142 N1149 1.356 . S
C1143 C1142 1.363 . S
C1143 C1146 1.363 . S
N1144 C1146 1.356 . S
N1144 H1156 0.984 . S
N1144 H1157 0.985 . S
N1145 C1147 1.356 . S
N1145 H1150 0.984 . S
N1145 H1151 0.985 . S
C1146 C1140 1.379 . S
C1146 C1143 1.363 . S
C1146 N1144 1.356 . S
C1147 C1141 1.363 . S
C1147 C1142 1.379 . S
C1147 N1145 1.356 . S
N1148 C1140 1.356 . S
N1148 H1154 0.984 . S
N1148 H1155 0.984 . S
N1149 C1142 1.356 . S
N1149 H1152 0.984 . S
N1149 H1153 0.985 . S
H1150 N1145 0.984 . S
H1151 N1145 0.985 . S
H1152 N1149 0.984 . S
H1153 N1149 0.985 . S
H1154 N1148 0.984 . S
H1155 N1148 0.984 . S
H1156 N1144 0.984 . S
H1157 N1144 0.985 . S
C1158 C1159 1.363 . S
C1158 C1164 1.379 . S
C1158 N1166 1.356 . S
C1159 C1158 1.363 . S
C1159 C1165 1.363 . S
C1160 C1161 1.363 . S
C1160 C1165 1.379 . S
C1160 N1167 1.356 . S
C1161 C1160 1.363 . S
C1161 C1164 1.363 . S
N1162 C1164 1.356 . S
N1162 H1174 0.984 . S
N1162 H1175 0.985 . S
N1163 C1165 1.356 . S
N1163 H1168 0.984 . S
N1163 H1169 0.985 . S
C1164 C1158 1.379 . S
C1164 C1161 1.363 . S
C1164 N1162 1.356 . S
C1165 C1159 1.363 . S
C1165 C1160 1.379 . S
C1165 N1163 1.356 . S
N1166 C1158 1.356 . S
N1166 H1172 0.984 . S
N1166 H1173 0.984 . S
N1167 C1160 1.356 . S
N1167 H1170 0.984 . S
N1167 H1171 0.985 . S
H1168 N1163 0.984 . S
H1169 N1163 0.985 . S
H1170 N1167 0.984 . S
H1171 N1167 0.985 . S
H1172 N1166 0.984 . S
H1173 N1166 0.984 . S
H1174 N1162 0.984 . S
H1175 N1162 0.985 . S
C1176 C1177 1.363 1_556 S
C1176 C1182 1.369 1_556 S
C1176 N1184 1.356 . S
C1177 C1176 1.363 1_554 S
C1177 C1183 1.363 . S
C1178 C1179 1.363 . S
C1178 C1183 1.379 . S
C1178 N1185 1.356 . S
C1179 C1178 1.363 . S
C1179 C1182 1.395 . S
N1180 C1182 1.343 1_556 S
N1180 H1192 0.984 . S
N1180 H1193 0.985 1_556 S
N1181 C1183 1.356 . S
N1181 H1186 0.984 . S
N1181 H1187 0.985 . S
C1182 C1176 1.369 1_554 S
C1182 C1179 1.395 . S
C1182 N1180 1.343 1_554 S
C1183 C1177 1.363 . S
C1183 C1178 1.379 . S
C1183 N1181 1.356 . S
N1184 C1176 1.356 . S
N1184 H1190 0.984 . S
N1184 H1191 0.984 . S
N1185 C1178 1.356 . S
N1185 H1188 0.984 . S
N1185 H1189 0.985 . S
H1186 N1181 0.984 . S
H1187 N1181 0.985 . S
H1188 N1185 0.984 . S
H1189 N1185 0.985 . S
H1190 N1184 0.984 . S
H1191 N1184 0.984 . S
H1192 N1180 0.984 . S
H1193 N1180 0.985 1_554 S
C1194 C1195 1.363 . S
C1194 C1200 1.379 . S
C1194 N1202 1.356 . S
C1195 C1194 1.363 . S
C1195 C1201 1.363 . S
C1196 C1197 1.363 . S
C1196 C1201 1.379 . S
C1196 N1203 1.356 . S
C1197 C1196 1.363 . S
C1197 C1200 1.363 . S
N1198 C1200 1.356 . S
N1198 H1210 0.984 . S
N1198 H1211 0.985 . S
N1199 C1201 1.356 . S
N1199 H1204 0.984 . S
N1199 H1205 0.985 . S
C1200 C1194 1.379 . S
C1200 C1197 1.363 . S
C1200 N1198 1.356 . S
C1201 C1195 1.363 . S
C1201 C1196 1.379 . S
C1201 N1199 1.356 . S
N1202 C1194 1.356 . S
N1202 H1208 0.984 . S
N1202 H1209 0.984 . S
N1203 C1196 1.356 . S
N1203 H1206 0.984 . S
N1203 H1207 0.985 . S
H1204 N1199 0.984 . S
H1205 N1199 0.985 . S
H1206 N1203 0.984 . S
H1207 N1203 0.985 . S
H1208 N1202 0.984 . S
H1209 N1202 0.984 . S
H1210 N1198 0.984 . S
H1211 N1198 0.985 . S
C1212 C1213 1.363 . S
C1212 C1218 1.379 . S
C1212 N1220 1.356 . S
C1213 C1212 1.363 . S
C1213 C1219 1.363 . S
C1214 C1215 1.363 . S
C1214 C1219 1.379 . S
C1214 N1221 1.356 . S
C1215 C1214 1.363 . S
C1215 C1218 1.363 . S
N1216 C1218 1.356 . S
N1216 H1228 0.984 . S
N1216 H1229 0.985 . S
N1217 C1219 1.356 . S
N1217 H1222 0.984 . S
N1217 H1223 0.985 . S
C1218 C1212 1.379 . S
C1218 C1215 1.363 . S
C1218 N1216 1.356 . S
C1219 C1213 1.363 . S
C1219 C1214 1.379 . S
C1219 N1217 1.356 . S
N1220 C1212 1.356 . S
N1220 H1226 0.984 . S
N1220 H1227 0.984 . S
N1221 C1214 1.356 . S
N1221 H1224 0.984 . S
N1221 H1225 0.985 . S
H1222 N1217 0.984 . S
H1223 N1217 0.985 . S
H1224 N1221 0.984 . S
H1225 N1221 0.985 . S
H1226 N1220 0.984 . S
H1227 N1220 0.984 . S
H1228 N1216 0.984 . S
H1229 N1216 0.985 . S
C1230 C1231 1.363 . S
C1230 C1236 1.379 . S
C1230 N1238 1.356 . S
C1231 C1230 1.363 . S
C1231 C1237 1.363 . S
C1232 C1233 1.363 . S
C1232 C1237 1.379 . S
C1232 N1239 1.356 1_556 S
C1233 C1232 1.363 . S
C1233 C1236 1.363 . S
N1234 C1236 1.356 . S
N1234 H1246 0.984 . S
N1234 H1247 0.985 . S
N1235 C1237 1.356 . S
N1235 H1240 0.984 . S
N1235 H1241 0.985 . S
C1236 C1230 1.379 . S
C1236 C1233 1.363 . S
C1236 N1234 1.356 . S
C1237 C1231 1.363 . S
C1237 C1232 1.379 . S
C1237 N1235 1.356 . S
N1238 C1230 1.356 . S
N1238 H1244 0.984 . S
N1238 H1245 0.984 . S
N1239 C1232 1.356 1_554 S
N1239 H1242 0.984 . S
N1239 H1243 0.985 . S
H1240 N1235 0.984 . S
H1241 N1235 0.985 . S
H1242 N1239 0.984 . S
H1243 N1239 0.985 . S
H1244 N1238 0.984 . S
H1245 N1238 0.984 . S
H1246 N1234 0.984 . S
H1247 N1234 0.985 . S
C1248 C1249 1.363 . S
C1248 C1254 1.379 . S
C1248 N1256 1.356 . S
C1249 C1248 1.363 . S
C1249 C1255 1.363 . S
C1250 C1251 1.363 . S
C1250 C1255 1.379 . S
C1250 N1257 1.356 . S
C1251 C1250 1.363 . S
C1251 C1254 1.363 . S
N1252 C1254 1.356 . S
N1252 H1264 0.984 . S
N1252 H1265 0.985 . S
N1253 C1255 1.356 . S
N1253 H1258 0.984 . S
N1253 H1259 0.985 . S
C1254 C1248 1.379 . S
C1254 C1251 1.363 . S
C1254 N1252 1.356 . S
C1255 C1249 1.363 . S
C1255 C1250 1.379 . S
C1255 N1253 1.356 . S
N1256 C1248 1.356 . S
N1256 H1262 0.978 1_545 S
N1256 H1263 0.984 . S
N1257 C1250 1.356 . S
N1257 H1260 0.984 . S
N1257 H1261 0.985 . S
H1258 N1253 0.984 . S
H1259 N1253 0.985 . S
H1260 N1257 0.984 . S
H1261 N1257 0.985 . S
H1262 N1256 0.978 1_565 S
H1263 N1256 0.984 . S
H1264 N1252 0.984 . S
H1265 N1252 0.985 . S
C1266 C1267 1.363 . S
C1266 C1272 1.379 . S
C1266 N1274 1.356 . S
C1267 C1266 1.363 . S
C1267 C1273 1.363 . S
C1268 C1269 1.363 . S
C1268 C1273 1.379 . S
C1268 N1275 1.356 . S
C1269 C1268 1.363 . S
C1269 C1272 1.363 . S
N1270 C1272 1.356 . S
N1270 H1282 0.984 . S
N1270 H1283 0.985 . S
N1271 C1273 1.356 . S
N1271 H1276 0.984 . S
N1271 H1277 0.985 . S
C1272 C1266 1.379 . S
C1272 C1269 1.363 . S
C1272 N1270 1.356 . S
C1273 C1267 1.363 . S
C1273 C1268 1.379 . S
C1273 N1271 1.356 . S
N1274 C1266 1.356 . S
N1274 H1280 0.984 . S
N1274 H1281 0.984 . S
N1275 C1268 1.356 . S
N1275 H1278 0.984 . S
N1275 H1279 0.985 . S
H1276 N1271 0.984 . S
H1277 N1271 0.985 . S
H1278 N1275 0.984 . S
H1279 N1275 0.985 . S
H1280 N1274 0.984 . S
H1281 N1274 0.984 . S
H1282 N1270 0.984 . S
H1283 N1270 0.985 . S
C1284 C1285 1.363 . S
C1284 C1290 1.379 . S
C1284 N1292 1.356 . S
C1285 C1284 1.363 . S
C1285 C1291 1.363 . S
C1286 C1287 1.363 . S
C1286 C1291 1.379 . S
C1286 N1293 1.356 . S
C1287 C1286 1.363 . S
C1287 C1290 1.363 . S
N1288 C1290 1.356 . S
N1288 H1300 0.984 . S
N1288 H1301 0.985 . S
N1289 C1291 1.356 . S
N1289 H1294 0.984 . S
N1289 H1295 0.985 . S
C1290 C1284 1.379 . S
C1290 C1287 1.363 . S
C1290 N1288 1.356 . S
C1291 C1285 1.363 . S
C1291 C1286 1.379 . S
C1291 N1289 1.356 . S
N1292 C1284 1.356 . S
N1292 H1298 0.984 1_565 S
N1292 H1299 0.984 . S
N1293 C1286 1.356 . S
N1293 H1296 0.984 . S
N1293 H1297 0.985 . S
H1294 N1289 0.984 . S
H1295 N1289 0.985 . S
H1296 N1293 0.984 . S
H1297 N1293 0.985 . S
H1298 N1292 0.984 1_545 S
H1299 N1292 0.984 . S
H1300 N1288 0.984 . S
H1301 N1288 0.985 . S
C1302 C1303 1.363 . S
C1302 C1308 1.379 . S
C1302 N1310 1.356 . S
C1303 C1302 1.363 . S
C1303 C1309 1.363 . S
C1304 C1305 1.363 . S
C1304 C1309 1.379 . S
C1304 N1311 1.356 . S
C1305 C1304 1.363 . S
C1305 C1308 1.363 . S
N1306 C1308 1.356 . S
N1306 H1318 0.984 . S
N1306 H1319 0.985 . S
N1307 C1309 1.356 . S
N1307 H1312 0.984 . S
N1307 H1313 0.985 . S
C1308 C1302 1.379 . S
C1308 C1305 1.363 . S
C1308 N1306 1.356 . S
C1309 C1303 1.363 . S
C1309 C1304 1.379 . S
C1309 N1307 1.356 . S
N1310 C1302 1.356 . S
N1310 H1316 0.984 . S
N1310 H1317 0.984 . S
N1311 C1304 1.356 . S
N1311 H1314 0.984 . S
N1311 H1315 0.985 . S
H1312 N1307 0.984 . S
H1313 N1307 0.985 . S
H1314 N1311 0.984 . S
H1315 N1311 0.985 . S
H1316 N1310 0.984 . S
H1317 N1310 0.984 . S
H1318 N1306 0.984 . S
H1319 N1306 0.985 . S
C1320 C1321 1.363 . S
C1320 C1326 1.379 . S
C1320 N1328 1.356 . S
C1321 C1320 1.363 . S
C1321 C1327 1.363 . S
C1322 C1323 1.363 . S
C1322 C1327 1.379 . S
C1322 N1329 1.356 . S
C1323 C1322 1.363 . S
C1323 C1326 1.363 . S
N1324 C1326 1.356 . S
N1324 H1336 0.984 . S
N1324 H1337 0.985 . S
N1325 C1327 1.356 . S
N1325 H1330 0.984 . S
N1325 H1331 0.985 . S
C1326 C1320 1.379 . S
C1326 C1323 1.363 . S
C1326 N1324 1.356 . S
C1327 C1321 1.363 . S
C1327 C1322 1.379 . S
C1327 N1325 1.356 . S
N1328 C1320 1.356 . S
N1328 H1334 0.984 . S
N1328 H1335 0.984 . S
N1329 C1322 1.356 . S
N1329 H1332 0.984 . S
N1329 H1333 0.985 . S
H1330 N1325 0.984 . S
H1331 N1325 0.985 . S
H1332 N1329 0.984 . S
H1333 N1329 0.985 . S
H1334 N1328 0.984 . S
H1335 N1328 0.984 . S
H1336 N1324 0.984 . S
H1337 N1324 0.985 . S
C1338 C1339 1.363 . S
C1338 C1344 1.379 . S
C1338 N1346 1.356 . S
C1339 C1338 1.363 . S
C1339 C1345 1.363 . S
C1340 C1341 1.363 . S
C1340 C1345 1.379 . S
C1340 N1347 1.356 . S
C1341 C1340 1.363 . S
C1341 C1344 1.363 . S
N1342 C1344 1.356 . S
N1342 H1354 0.984 . S
N1342 H1355 0.985 . S
N1343 C1345 1.356 . S
N1343 H1348 0.984 . S
N1343 H1349 0.985 . S
C1344 C1338 1.379 . S
C1344 C1341 1.363 . S
C1344 N1342 1.356 . S
C1345 C1339 1.363 . S
C1345 C1340 1.379 . S
C1345 N1343 1.356 . S
N1346 C1338 1.356 . S
N1346 H1352 0.984 . S
N1346 H1353 0.984 . S
N1347 C1340 1.356 . S
N1347 H1350 0.984 . S
N1347 H1351 0.985 . S
H1348 N1343 0.984 . S
H1349 N1343 0.985 . S
H1350 N1347 0.984 . S
H1351 N1347 0.985 . S
H1352 N1346 0.984 . S
H1353 N1346 0.984 . S
H1354 N1342 0.984 . S
H1355 N1342 0.985 . S
C1356 C1357 1.363 . S
C1356 C1362 1.379 . S
C1356 N1364 1.356 . S
C1357 C1356 1.363 . S
C1357 C1363 1.363 . S
C1358 C1359 1.363 . S
C1358 C1363 1.379 . S
C1358 N1365 1.356 . S
C1359 C1358 1.363 . S
C1359 C1362 1.363 . S
N1360 C1362 1.356 . S
N1360 H1372 0.984 . S
N1360 H1373 0.985 . S
N1361 C1363 1.356 . S
N1361 H1366 0.984 . S
N1361 H1367 0.985 . S
C1362 C1356 1.379 . S
C1362 C1359 1.363 . S
C1362 N1360 1.356 . S
C1363 C1357 1.363 . S
C1363 C1358 1.379 . S
C1363 N1361 1.356 . S
N1364 C1356 1.356 . S
N1364 H1370 0.984 . S
N1364 H1371 0.984 . S
N1365 C1358 1.356 . S
N1365 H1368 0.984 . S
N1365 H1369 0.985 . S
H1366 N1361 0.984 . S
H1367 N1361 0.985 . S
H1368 N1365 0.984 . S
H1369 N1365 0.985 . S
H1370 N1364 0.984 . S
H1371 N1364 0.984 . S
H1372 N1360 0.984 . S
H1373 N1360 0.985 . S
C1374 C1375 1.363 . S
C1374 C1380 1.379 . S
C1374 N1382 1.356 . S
C1375 C1374 1.363 . S
C1375 C1381 1.363 . S
C1376 C1377 1.363 . S
C1376 C1381 1.379 . S
C1376 N1383 1.356 . S
C1377 C1376 1.363 . S
C1377 C1380 1.363 . S
N1378 C1380 1.356 . S
N1378 H1390 0.984 . S
N1378 H1391 0.985 . S
N1379 C1381 1.356 . S
N1379 H1384 0.984 . S
N1379 H1385 0.985 . S
C1380 C1374 1.379 . S
C1380 C1377 1.363 . S
C1380 N1378 1.356 . S
C1381 C1375 1.363 . S
C1381 C1376 1.379 . S
C1381 N1379 1.356 . S
N1382 C1374 1.356 . S
N1382 H1388 0.984 . S
N1382 H1389 0.984 . S
N1383 C1376 1.356 . S
N1383 H1386 0.984 . S
N1383 H1387 0.985 . S
H1384 N1379 0.984 . S
H1385 N1379 0.985 . S
H1386 N1383 0.984 . S
H1387 N1383 0.985 . S
H1388 N1382 0.984 . S
H1389 N1382 0.984 . S
H1390 N1378 0.984 . S
H1391 N1378 0.985 . S
C1392 C1393 1.363 . S
C1392 C1398 1.379 . S
C1392 N1400 1.356 . S
C1393 C1392 1.363 . S
C1393 C1399 1.363 . S
C1394 C1395 1.363 . S
C1394 C1399 1.379 . S
C1394 N1401 1.356 . S
C1395 C1394 1.363 . S
C1395 C1398 1.363 . S
N1396 C1398 1.356 . S
N1396 H1408 0.984 1_556 S
N1396 H1409 0.985 . S
N1397 C1399 1.356 . S
N1397 H1402 0.984 . S
N1397 H1403 0.985 . S
C1398 C1392 1.379 . S
C1398 C1395 1.363 . S
C1398 N1396 1.356 . S
C1399 C1393 1.363 . S
C1399 C1394 1.379 . S
C1399 N1397 1.356 . S
N1400 C1392 1.356 . S
N1400 H1406 0.984 . S
N1400 H1407 0.984 . S
N1401 C1394 1.356 . S
N1401 H1404 0.984 . S
N1401 H1405 0.985 . S
H1402 N1397 0.984 . S
H1403 N1397 0.985 . S
H1404 N1401 0.984 . S
H1405 N1401 0.985 . S
H1406 N1400 0.984 . S
H1407 N1400 0.984 . S
H1408 N1396 0.984 1_554 S
H1409 N1396 0.985 . S
C1410 C1411 1.363 . S
C1410 C1416 1.379 . S
C1410 N1418 1.356 . S
C1411 C1410 1.363 . S
C1411 C1417 1.363 . S
C1412 C1413 1.363 . S
C1412 C1417 1.379 . S
C1412 N1419 1.356 . S
C1413 C1412 1.363 . S
C1413 C1416 1.363 . S
N1414 C1416 1.356 . S
N1414 H1426 0.984 . S
N1414 H1427 0.985 . S
N1415 C1417 1.356 . S
N1415 H1420 0.984 . S
N1415 H1421 0.985 . S
C1416 C1410 1.379 . S
C1416 C1413 1.363 . S
C1416 N1414 1.356 . S
C1417 C1411 1.363 . S
C1417 C1412 1.379 . S
C1417 N1415 1.356 . S
N1418 C1410 1.356 . S
N1418 H1424 0.984 . S
N1418 H1425 0.984 . S
N1419 C1412 1.356 . S
N1419 H1422 0.984 . S
N1419 H1423 0.985 . S
H1420 N1415 0.984 . S
H1421 N1415 0.985 . S
H1422 N1419 0.984 . S
H1423 N1419 0.985 . S
H1424 N1418 0.984 . S
H1425 N1418 0.984 . S
H1426 N1414 0.984 . S
H1427 N1414 0.985 . S
C1428 C1429 1.363 . S
C1428 C1434 1.379 . S
C1428 N1436 1.356 . S
C1429 C1428 1.363 . S
C1429 C1435 1.363 . S
C1430 C1431 1.363 . S
C1430 C1435 1.379 . S
C1430 N1437 1.356 . S
C1431 C1430 1.363 . S
C1431 C1434 1.363 . S
N1432 C1434 1.356 . S
N1432 H1444 0.984 . S
N1432 H1445 0.985 . S
N1433 C1435 1.356 . S
N1433 H1438 0.984 . S
N1433 H1439 0.985 . S
C1434 C1428 1.379 . S
C1434 C1431 1.363 . S
C1434 N1432 1.356 . S
C1435 C1429 1.363 . S
C1435 C1430 1.379 . S
C1435 N1433 1.356 . S
N1436 C1428 1.356 . S
N1436 H1442 0.984 . S
N1436 H1443 0.984 . S
N1437 C1430 1.356 . S
N1437 H1440 0.984 . S
N1437 H1441 0.985 . S
H1438 N1433 0.984 . S
H1439 N1433 0.985 . S
H1440 N1437 0.984 . S
H1441 N1437 0.985 . S
H1442 N1436 0.984 . S
H1443 N1436 0.984 . S
H1444 N1432 0.984 . S
H1445 N1432 0.985 . S
C1446 C1447 1.363 . S
C1446 C1452 1.379 . S
C1446 N1454 1.356 . S
C1447 C1446 1.363 . S
C1447 C1453 1.363 . S
C1448 C1449 1.363 . S
C1448 C1453 1.379 . S
C1448 N1455 1.356 . S
C1449 C1448 1.363 . S
C1449 C1452 1.363 . S
N1450 C1452 1.356 . S
N1450 H1462 0.984 . S
N1450 H1463 0.985 . S
N1451 C1453 1.356 . S
N1451 H1456 0.984 . S
N1451 H1457 0.985 1_455 S
C1452 C1446 1.379 . S
C1452 C1449 1.363 . S
C1452 N1450 1.356 . S
C1453 C1447 1.363 . S
C1453 C1448 1.379 . S
C1453 N1451 1.356 . S
N1454 C1446 1.356 . S
N1454 H1460 0.984 . S
N1454 H1461 0.984 . S
N1455 C1448 1.356 . S
N1455 H1458 0.984 . S
N1455 H1459 0.985 . S
H1456 N1451 0.984 . S
H1457 N1451 0.985 1_655 S
H1458 N1455 0.984 . S
H1459 N1455 0.985 . S
H1460 N1454 0.984 . S
H1461 N1454 0.984 . S
H1462 N1450 0.984 . S
H1463 N1450 0.985 . S
C1464 C1465 1.363 . S
C1464 C1470 1.379 . S
C1464 N1472 1.356 . S
C1465 C1464 1.363 . S
C1465 C1471 1.363 . S
C1466 C1467 1.363 . S
C1466 C1471 1.379 . S
C1466 N1473 1.356 . S
C1467 C1466 1.363 . S
C1467 C1470 1.363 . S
N1468 C1470 1.356 . S
N1468 H1480 0.984 . S
N1468 H1481 0.985 . S
N1469 C1471 1.356 . S
N1469 H1474 0.984 . S
N1469 H1475 0.985 . S
C1470 C1464 1.379 . S
C1470 C1467 1.363 . S
C1470 N1468 1.356 . S
C1471 C1465 1.363 . S
C1471 C1466 1.379 . S
C1471 N1469 1.356 . S
N1472 C1464 1.356 . S
N1472 H1478 0.984 . S
N1472 H1479 0.984 . S
N1473 C1466 1.356 . S
N1473 H1476 0.984 . S
N1473 H1477 0.985 . S
H1474 N1469 0.984 . S
H1475 N1469 0.985 . S
H1476 N1473 0.984 . S
H1477 N1473 0.985 . S
H1478 N1472 0.984 . S
H1479 N1472 0.984 . S
H1480 N1468 0.984 . S
H1481 N1468 0.985 . S
C1482 C1483 1.363 . S
C1482 C1488 1.379 . S
C1482 N1490 1.356 . S
C1483 C1482 1.363 . S
C1483 C1489 1.363 . S
C1484 C1485 1.363 . S
C1484 C1489 1.379 . S
C1484 N1491 1.356 . S
C1485 C1484 1.363 . S
C1485 C1488 1.363 . S
N1486 C1488 1.356 . S
N1486 H1498 0.984 . S
N1486 H1499 0.985 . S
N1487 C1489 1.356 . S
N1487 H1492 0.984 . S
N1487 H1493 0.985 . S
C1488 C1482 1.379 . S
C1488 C1485 1.363 . S
C1488 N1486 1.356 . S
C1489 C1483 1.363 . S
C1489 C1484 1.379 . S
C1489 N1487 1.356 . S
N1490 C1482 1.356 . S
N1490 H1496 0.984 . S
N1490 H1497 0.984 . S
N1491 C1484 1.356 . S
N1491 H1494 0.984 . S
N1491 H1495 0.985 . S
H1492 N1487 0.984 . S
H1493 N1487 0.985 . S
H1494 N1491 0.984 . S
H1495 N1491 0.985 . S
H1496 N1490 0.984 . S
H1497 N1490 0.984 . S
H1498 N1486 0.984 . S
H1499 N1486 0.985 . S
C1500 C1501 1.363 1_556 S
C1500 C1506 1.379 . S
C1500 N1508 1.356 . S
C1501 C1500 1.363 1_554 S
C1501 C1507 1.363 . S
C1502 C1503 1.363 . S
C1502 C1507 1.379 . S
C1502 N1509 1.356 . S
C1503 C1502 1.363 . S
C1503 C1506 1.363 1_554 S
N1504 C1506 1.356 . S
N1504 H1516 0.984 . S
N1504 H1517 0.985 . S
N1505 C1507 1.356 . S
N1505 H1510 0.984 . S
N1505 H1511 0.985 . S
C1506 C1500 1.379 . S
C1506 C1503 1.363 1_556 S
C1506 N1504 1.356 . S
C1507 C1501 1.363 . S
C1507 C1502 1.379 . S
C1507 N1505 1.356 . S
N1508 C1500 1.356 . S
N1508 H1514 0.984 . S
N1508 H1515 0.984 . S
N1509 C1502 1.356 . S
N1509 H1512 0.984 . S
N1509 H1513 0.985 . S
H1510 N1505 0.984 . S
H1511 N1505 0.985 . S
H1512 N1509 0.984 . S
H1513 N1509 0.985 . S
H1514 N1508 0.984 . S
H1515 N1508 0.984 . S
H1516 N1504 0.984 . S
H1517 N1504 0.985 . S
C1518 C1519 1.363 . S
C1518 C1524 1.379 1_455 S
C1518 N1526 1.358 . S
C1519 C1518 1.363 . S
C1519 C1525 1.363 . S
C1520 C1521 1.363 1_455 S
C1520 C1525 1.379 . S
C1520 N1527 1.356 . S
C1521 C1520 1.363 1_655 S
C1521 C1524 1.363 . S
N1522 C1524 1.356 . S
N1522 H1534 0.984 . S
N1522 H1535 0.985 . S
N1523 C1525 1.356 . S
N1523 H1528 0.984 . S
N1523 H1529 0.985 . S
C1524 C1518 1.379 1_655 S
C1524 C1521 1.363 . S
C1524 N1522 1.356 . S
C1525 C1519 1.363 . S
C1525 C1520 1.379 . S
C1525 N1523 1.356 . S
N1526 C1518 1.358 . S
N1526 H1532 0.971 1_455 S
N1526 H1533 0.997 . S
N1527 C1520 1.356 . S
N1527 H1530 0.984 . S
N1527 H1531 0.985 . S
H1528 N1523 0.984 . S
H1529 N1523 0.985 . S
H1530 N1527 0.984 . S
H1531 N1527 0.985 . S
H1532 N1526 0.971 1_655 S
H1533 N1526 0.997 . S
H1534 N1522 0.984 . S
H1535 N1522 0.985 . S
C1536 C1537 1.363 . S
C1536 C1542 1.379 . S
C1536 N1544 1.356 . S
C1537 C1536 1.363 . S
C1537 C1543 1.363 . S
C1538 C1539 1.363 . S
C1538 C1543 1.379 . S
C1538 N1545 1.356 . S
C1539 C1538 1.363 . S
C1539 C1542 1.363 . S
N1540 C1542 1.356 . S
N1540 H1552 0.984 . S
N1540 H1553 0.985 . S
N1541 C1543 1.356 . S
N1541 H1546 0.984 . S
N1541 H1547 0.985 . S
C1542 C1536 1.379 . S
C1542 C1539 1.363 . S
C1542 N1540 1.356 . S
C1543 C1537 1.363 . S
C1543 C1538 1.379 . S
C1543 N1541 1.356 . S
N1544 C1536 1.356 . S
N1544 H1550 0.984 . S
N1544 H1551 0.984 . S
N1545 C1538 1.356 . S
N1545 H1548 0.984 . S
N1545 H1549 0.985 . S
H1546 N1541 0.984 . S
H1547 N1541 0.985 . S
H1548 N1545 0.984 . S
H1549 N1545 0.985 . S
H1550 N1544 0.984 . S
H1551 N1544 0.984 . S
H1552 N1540 0.984 . S
H1553 N1540 0.985 . S
C1554 C1555 1.363 . S
C1554 C1560 1.379 . S
C1554 N1562 1.356 . S
C1555 C1554 1.363 . S
C1555 C1561 1.363 . S
C1556 C1557 1.363 . S
C1556 C1561 1.379 . S
C1556 N1563 1.356 . S
C1557 C1556 1.363 . S
C1557 C1560 1.363 . S
N1558 C1560 1.356 . S
N1558 H1570 0.984 . S
N1558 H1571 0.985 . S
N1559 C1561 1.356 . S
N1559 H1564 0.984 . S
N1559 H1565 0.985 . S
C1560 C1554 1.379 . S
C1560 C1557 1.363 . S
C1560 N1558 1.356 . S
C1561 C1555 1.363 . S
C1561 C1556 1.379 . S
C1561 N1559 1.356 . S
N1562 C1554 1.356 . S
N1562 H1568 0.984 . S
N1562 H1569 0.984 . S
N1563 C1556 1.356 . S
N1563 H1566 0.984 . S
N1563 H1567 0.985 . S
H1564 N1559 0.984 . S
H1565 N1559 0.985 . S
H1566 N1563 0.984 . S
H1567 N1563 0.985 . S
H1568 N1562 0.984 . S
H1569 N1562 0.984 . S
H1570 N1558 0.984 . S
H1571 N1558 0.985 . S
C1572 C1573 1.363 1_554 S
C1572 C1578 1.379 . S
C1572 N1580 1.356 . S
C1573 C1572 1.363 1_556 S
C1573 C1579 1.363 . S
C1574 C1575 1.363 . S
C1574 C1579 1.379 . S
C1574 N1581 1.356 . S
C1575 C1574 1.363 . S
C1575 C1578 1.363 1_556 S
N1576 C1578 1.356 . S
N1576 H1588 0.984 . S
N1576 H1589 0.985 . S
N1577 C1579 1.356 . S
N1577 H1582 0.984 . S
N1577 H1583 0.985 . S
C1578 C1572 1.379 . S
C1578 C1575 1.363 1_554 S
C1578 N1576 1.356 . S
C1579 C1573 1.363 . S
C1579 C1574 1.379 . S
C1579 N1577 1.356 . S
N1580 C1572 1.356 . S
N1580 H1586 0.984 . S
N1580 H1587 0.984 . S
N1581 C1574 1.356 . S
N1581 H1584 0.984 . S
N1581 H1585 0.985 . S
H1582 N1577 0.984 . S
H1583 N1577 0.985 . S
H1584 N1581 0.984 . S
H1585 N1581 0.985 . S
H1586 N1580 0.984 . S
H1587 N1580 0.984 . S
H1588 N1576 0.984 . S
H1589 N1576 0.985 . S
C1590 C1591 1.363 1_455 S
C1590 C1596 1.379 1_455 S
C1590 N1598 1.356 . S
C1591 C1590 1.363 1_655 S
C1591 C1597 1.363 . S
C1592 C1593 1.363 . S
C1592 C1597 1.379 . S
C1592 N1599 1.356 . S
C1593 C1592 1.363 . S
C1593 C1596 1.363 . S
N1594 C1596 1.356 1_455 S
N1594 H1606 0.984 . S
N1594 H1607 0.985 1_455 S
N1595 C1597 1.356 . S
N1595 H1600 0.984 . S
N1595 H1601 0.985 . S
C1596 C1590 1.379 1_655 S
C1596 C1593 1.363 . S
C1596 N1594 1.356 1_655 S
C1597 C1591 1.363 . S
C1597 C1592 1.379 . S
C1597 N1595 1.356 . S
N1598 C1590 1.356 . S
N1598 H1604 0.984 . S
N1598 H1605 0.984 . S
N1599 C1592 1.356 . S
N1599 H1602 0.984 . S
N1599 H1603 0.985 . S
H1600 N1595 0.984 . S
H1601 N1595 0.985 . S
H1602 N1599 0.984 . S
H1603 N1599 0.985 . S
H1604 N1598 0.984 . S
H1605 N1598 0.984 . S
H1606 N1594 0.984 . S
H1607 N1594 0.985 1_655 S
C1608 C1609 1.363 . S
C1608 C1614 1.379 . S
C1608 N1616 1.356 . S
C1609 C1608 1.363 . S
C1609 C1615 1.363 . S
C1610 C1611 1.363 . S
C1610 C1615 1.379 . S
C1610 N1617 1.356 . S
C1611 C1610 1.363 . S
C1611 C1614 1.363 . S
N1612 C1614 1.356 . S
N1612 H1624 0.984 . S
N1612 H1625 0.985 . S
N1613 C1615 1.356 . S
N1613 H1618 0.984 . S
N1613 H1619 0.985 . S
C1614 C1608 1.379 . S
C1614 C1611 1.363 . S
C1614 N1612 1.356 . S
C1615 C1609 1.363 . S
C1615 C1610 1.379 . S
C1615 N1613 1.356 . S
N1616 C1608 1.356 . S
N1616 H1622 0.984 . S
N1616 H1623 0.984 . S
N1617 C1610 1.356 . S
N1617 H1620 0.984 . S
N1617 H1621 0.985 . S
H1618 N1613 0.984 . S
H1619 N1613 0.985 . S
H1620 N1617 0.984 . S
H1621 N1617 0.985 . S
H1622 N1616 0.984 . S
H1623 N1616 0.984 . S
H1624 N1612 0.984 . S
H1625 N1612 0.985 . S
C1626 C1627 1.363 . S
C1626 C1632 1.396 . S
C1626 N1634 1.356 . S
C1627 C1626 1.363 . S
C1627 C1633 1.363 1_556 S
C1628 C1629 1.363 . S
C1628 C1633 1.379 . S
C1628 N1635 1.356 . S
C1629 C1628 1.363 . S
C1629 C1632 1.330 1_554 S
N1630 C1632 1.363 . S
N1630 H1642 0.984 . S
N1630 H1643 0.985 1_556 S
N1631 C1633 1.356 . S
N1631 H1636 0.984 . S
N1631 H1637 0.985 . S
C1632 C1626 1.396 . S
C1632 C1629 1.330 1_556 S
C1632 N1630 1.363 . S
C1633 C1627 1.363 1_554 S
C1633 C1628 1.379 . S
C1633 N1631 1.356 . S
N1634 C1626 1.356 . S
N1634 H1640 0.984 . S
N1634 H1641 0.984 . S
N1635 C1628 1.356 . S
N1635 H1638 0.984 . S
N1635 H1639 0.985 . S
H1636 N1631 0.984 . S
H1637 N1631 0.985 . S
H1638 N1635 0.984 . S
H1639 N1635 0.985 . S
H1640 N1634 0.984 . S
H1641 N1634 0.984 . S
H1642 N1630 0.984 . S
H1643 N1630 0.985 1_554 S
C1644 C1645 1.363 1_455 S
C1644 C1650 1.379 . S
C1644 N1652 1.356 . S
C1645 C1644 1.363 1_655 S
C1645 C1651 1.363 . S
C1646 C1647 1.363 . S
C1646 C1651 1.379 . S
C1646 N1653 1.356 . S
C1647 C1646 1.363 . S
C1647 C1650 1.363 1_655 S
N1648 C1650 1.356 . S
N1648 H1660 0.984 . S
N1648 H1661 0.985 . S
N1649 C1651 1.356 . S
N1649 H1654 0.984 . S
N1649 H1655 0.985 . S
C1650 C1644 1.379 . S
C1650 C1647 1.363 1_455 S
C1650 N1648 1.356 . S
C1651 C1645 1.363 . S
C1651 C1646 1.379 . S
C1651 N1649 1.356 . S
N1652 C1644 1.356 . S
N1652 H1658 0.984 . S
N1652 H1659 0.984 . S
N1653 C1646 1.356 . S
N1653 H1656 0.984 . S
N1653 H1657 0.985 . S
H1654 N1649 0.984 . S
H1655 N1649 0.985 . S
H1656 N1653 0.984 . S
H1657 N1653 0.985 . S
H1658 N1652 0.984 . S
H1659 N1652 0.984 . S
H1660 N1648 0.984 . S
H1661 N1648 0.985 . S
C1662 C1663 1.363 . S
C1662 C1668 1.379 . S
C1662 N1670 1.356 . S
C1663 C1662 1.363 . S
C1663 C1669 1.363 . S
C1664 C1665 1.363 . S
C1664 C1669 1.379 . S
C1664 N1671 1.356 . S
C1665 C1664 1.363 . S
C1665 C1668 1.363 . S
N1666 C1668 1.356 . S
N1666 H1678 0.984 . S
N1666 H1679 0.985 . S
N1667 C1669 1.356 . S
N1667 H1672 0.984 . S
N1667 H1673 0.985 . S
C1668 C1662 1.379 . S
C1668 C1665 1.363 . S
C1668 N1666 1.356 . S
C1669 C1663 1.363 . S
C1669 C1664 1.379 . S
C1669 N1667 1.356 . S
N1670 C1662 1.356 . S
N1670 H1676 0.984 . S
N1670 H1677 0.984 . S
N1671 C1664 1.356 . S
N1671 H1674 0.984 . S
N1671 H1675 0.985 . S
H1672 N1667 0.984 . S
H1673 N1667 0.985 . S
H1674 N1671 0.984 . S
H1675 N1671 0.985 . S
H1676 N1670 0.984 . S
H1677 N1670 0.984 . S
H1678 N1666 0.984 . S
H1679 N1666 0.985 . S
C1680 C1681 1.363 1_655 S
C1680 C1686 1.379 1_655 S
C1680 N1688 1.356 . S
C1681 C1680 1.363 1_455 S
C1681 C1687 1.363 . S
C1682 C1683 1.363 . S
C1682 C1687 1.379 . S
C1682 N1689 1.356 . S
C1683 C1682 1.363 . S
C1683 C1686 1.363 . S
N1684 C1686 1.356 1_655 S
N1684 H1696 0.984 . S
N1684 H1697 0.985 1_655 S
N1685 C1687 1.356 . S
N1685 H1690 0.984 . S
N1685 H1691 0.985 . S
C1686 C1680 1.379 1_455 S
C1686 C1683 1.363 . S
C1686 N1684 1.356 1_455 S
C1687 C1681 1.363 . S
C1687 C1682 1.379 . S
C1687 N1685 1.356 . S
N1688 C1680 1.356 . S
N1688 H1694 0.984 . S
N1688 H1695 0.984 . S
N1689 C1682 1.356 . S
N1689 H1692 0.984 . S
N1689 H1693 0.985 . S
H1690 N1685 0.984 . S
H1691 N1685 0.985 . S
H1692 N1689 0.984 . S
H1693 N1689 0.985 . S
H1694 N1688 0.984 . S
H1695 N1688 0.984 . S
H1696 N1684 0.984 . S
H1697 N1684 0.985 1_455 S
C1698 C1699 1.363 . S
C1698 C1704 1.379 . S
C1698 N1706 1.356 . S
C1699 C1698 1.363 . S
C1699 C1705 1.363 . S
C1700 C1701 1.363 . S
C1700 C1705 1.379 . S
C1700 N1707 1.356 . S
C1701 C1700 1.363 . S
C1701 C1704 1.363 . S
N1702 C1704 1.356 . S
N1702 H1714 0.984 . S
N1702 H1715 0.985 . S
N1703 C1705 1.356 . S
N1703 H1708 0.984 . S
N1703 H1709 0.985 . S
C1704 C1698 1.379 . S
C1704 C1701 1.363 . S
C1704 N1702 1.356 . S
C1705 C1699 1.363 . S
C1705 C1700 1.379 . S
C1705 N1703 1.356 . S
N1706 C1698 1.356 . S
N1706 H1712 0.984 . S
N1706 H1713 0.984 . S
N1707 C1700 1.356 . S
N1707 H1710 0.984 . S
N1707 H1711 0.985 . S
H1708 N1703 0.984 . S
H1709 N1703 0.985 . S
H1710 N1707 0.984 . S
H1711 N1707 0.985 . S
H1712 N1706 0.984 . S
H1713 N1706 0.984 . S
H1714 N1702 0.984 . S
H1715 N1702 0.985 . S
C1716 C1717 1.363 . S
C1716 C1722 1.379 . S
C1716 N1724 1.356 . S
C1717 C1716 1.363 . S
C1717 C1723 1.363 . S
C1718 C1719 1.363 . S
C1718 C1723 1.379 . S
C1718 N1725 1.356 . S
C1719 C1718 1.363 . S
C1719 C1722 1.363 . S
N1720 C1722 1.356 . S
N1720 H1732 0.984 . S
N1720 H1733 0.985 . S
N1721 C1723 1.356 . S
N1721 H1726 0.984 . S
N1721 H1727 0.985 . S
C1722 C1716 1.379 . S
C1722 C1719 1.363 . S
C1722 N1720 1.356 . S
C1723 C1717 1.363 . S
C1723 C1718 1.379 . S
C1723 N1721 1.356 . S
N1724 C1716 1.356 . S
N1724 H1730 0.984 . S
N1724 H1731 0.984 . S
N1725 C1718 1.356 . S
N1725 H1728 0.984 . S
N1725 H1729 0.985 . S
H1726 N1721 0.984 . S
H1727 N1721 0.985 . S
H1728 N1725 0.984 . S
H1729 N1725 0.985 . S
H1730 N1724 0.984 . S
H1731 N1724 0.984 . S
H1732 N1720 0.984 . S
H1733 N1720 0.985 . S
C1734 C1735 1.363 . S
C1734 C1740 1.379 . S
C1734 N1742 1.356 1_556 S
C1735 C1734 1.363 . S
C1735 C1741 1.363 . S
C1736 C1737 1.363 . S
C1736 C1741 1.379 . S
C1736 N1743 1.356 . S
C1737 C1736 1.363 . S
C1737 C1740 1.363 . S
N1738 C1740 1.356 . S
N1738 H1750 0.984 . S
N1738 H1751 0.985 . S
N1739 C1741 1.356 . S
N1739 H1744 0.984 1_556 S
N1739 H1745 0.985 . S
C1740 C1734 1.379 . S
C1740 C1737 1.363 . S
C1740 N1738 1.356 . S
C1741 C1735 1.363 . S
C1741 C1736 1.379 . S
C1741 N1739 1.356 . S
N1742 C1734 1.356 1_554 S
N1742 H1748 0.984 . S
N1742 H1749 0.984 . S
N1743 C1736 1.356 . S
N1743 H1746 0.984 . S
N1743 H1747 0.985 . S
H1744 N1739 0.984 1_554 S
H1745 N1739 0.985 . S
H1746 N1743 0.984 . S
H1747 N1743 0.985 . S
H1748 N1742 0.984 . S
H1749 N1742 0.984 . S
H1750 N1738 0.984 . S
H1751 N1738 0.985 . S
C1752 C1753 1.363 . S
C1752 C1758 1.379 . S
C1752 N1760 1.356 . S
C1753 C1752 1.363 . S
C1753 C1759 1.363 . S
C1754 C1755 1.363 . S
C1754 C1759 1.379 . S
C1754 N1761 1.356 . S
C1755 C1754 1.363 . S
C1755 C1758 1.363 . S
N1756 C1758 1.356 . S
N1756 H1768 0.984 . S
N1756 H1769 0.985 . S
N1757 C1759 1.356 . S
N1757 H1762 0.984 . S
N1757 H1763 0.985 . S
C1758 C1752 1.379 . S
C1758 C1755 1.363 . S
C1758 N1756 1.356 . S
C1759 C1753 1.363 . S
C1759 C1754 1.379 . S
C1759 N1757 1.356 . S
N1760 C1752 1.356 . S
N1760 H1766 0.984 . S
N1760 H1767 0.984 . S
N1761 C1754 1.356 . S
N1761 H1764 0.984 . S
N1761 H1765 0.985 . S
H1762 N1757 0.984 . S
H1763 N1757 0.985 . S
H1764 N1761 0.984 . S
H1765 N1761 0.985 . S
H1766 N1760 0.984 . S
H1767 N1760 0.984 . S
H1768 N1756 0.984 . S
H1769 N1756 0.985 . S
C1770 C1771 1.363 1_545 S
C1770 C1776 1.379 . S
C1770 N1778 1.356 . S
C1771 C1770 1.363 1_565 S
C1771 C1777 1.363 . S
C1772 C1773 1.363 . S
C1772 C1777 1.379 . S
C1772 N1779 1.356 . S
C1773 C1772 1.363 . S
C1773 C1776 1.363 1_565 S
N1774 C1776 1.356 . S
N1774 H1786 0.984 . S
N1774 H1787 0.985 . S
N1775 C1777 1.356 . S
N1775 H1780 0.984 . S
N1775 H1781 0.985 . S
C1776 C1770 1.379 . S
C1776 C1773 1.363 1_545 S
C1776 N1774 1.356 . S
C1777 C1771 1.363 . S
C1777 C1772 1.379 . S
C1777 N1775 1.356 . S
N1778 C1770 1.356 . S
N1778 H1784 0.984 . S
N1778 H1785 0.984 . S
N1779 C1772 1.356 . S
N1779 H1782 0.984 . S
N1779 H1783 0.985 . S
H1780 N1775 0.984 . S
H1781 N1775 0.985 . S
H1782 N1779 0.984 . S
H1783 N1779 0.985 . S
H1784 N1778 0.984 . S
H1785 N1778 0.984 . S
H1786 N1774 0.984 . S
H1787 N1774 0.985 . S
C1788 C1789 1.363 1_565 S
C1788 C1794 1.379 . S
C1788 N1796 1.356 . S
C1789 C1788 1.363 1_545 S
C1789 C1795 1.363 . S
C1790 C1791 1.363 1_545 S
C1790 C1795 1.379 . S
C1790 N1797 1.356 . S
C1791 C1790 1.363 1_565 S
C1791 C1794 1.363 . S
N1792 C1794 1.356 . S
N1792 H1804 0.984 . S
N1792 H1805 0.985 . S
N1793 C1795 1.356 . S
N1793 H1798 0.984 . S
N1793 H1799 0.985 . S
C1794 C1788 1.379 . S
C1794 C1791 1.363 . S
C1794 N1792 1.356 . S
C1795 C1789 1.363 . S
C1795 C1790 1.379 . S
C1795 N1793 1.356 . S
N1796 C1788 1.356 . S
N1796 H1802 0.984 . S
N1796 H1803 0.984 1_565 S
N1797 C1790 1.356 . S
N1797 H1800 0.984 . S
N1797 H1801 0.985 . S
H1798 N1793 0.984 . S
H1799 N1793 0.985 . S
H1800 N1797 0.984 . S
H1801 N1797 0.985 . S
H1802 N1796 0.984 . S
H1803 N1796 0.984 1_545 S
H1804 N1792 0.984 . S
H1805 N1792 0.985 . S
C1806 C1807 1.363 1_565 S
C1806 C1812 1.379 . S
C1806 N1814 1.356 . S
C1807 C1806 1.363 1_545 S
C1807 C1813 1.363 . S
C1808 C1809 1.363 . S
C1808 C1813 1.379 . S
C1808 N1815 1.356 . S
C1809 C1808 1.363 . S
C1809 C1812 1.363 1_545 S
N1810 C1812 1.356 . S
N1810 H1822 0.984 . S
N1810 H1823 0.985 . S
N1811 C1813 1.356 . S
N1811 H1816 0.984 . S
N1811 H1817 0.985 . S
C1812 C1806 1.379 . S
C1812 C1809 1.363 1_565 S
C1812 N1810 1.356 . S
C1813 C1807 1.363 . S
C1813 C1808 1.379 . S
C1813 N1811 1.356 . S
N1814 C1806 1.356 . S
N1814 H1820 0.984 . S
N1814 H1821 0.984 . S
N1815 C1808 1.356 . S
N1815 H1818 0.984 . S
N1815 H1819 0.985 . S
H1816 N1811 0.984 . S
H1817 N1811 0.985 . S
H1818 N1815 0.984 . S
H1819 N1815 0.985 . S
H1820 N1814 0.984 . S
H1821 N1814 0.984 . S
H1822 N1810 0.984 . S
H1823 N1810 0.985 . S
C1824 C1825 1.363 1_545 S
C1824 C1830 1.379 1_545 S
C1824 N1832 1.356 . S
C1825 C1824 1.363 1_565 S
C1825 C1831 1.363 . S
C1826 C1827 1.363 . S
C1826 C1831 1.379 . S
C1826 N1833 1.356 . S
C1827 C1826 1.363 . S
C1827 C1830 1.363 . S
N1828 C1830 1.356 1_545 S
N1828 H1840 0.984 . S
N1828 H1841 0.985 1_545 S
N1829 C1831 1.356 . S
N1829 H1834 0.984 . S
N1829 H1835 0.985 . S
C1830 C1824 1.379 1_565 S
C1830 C1827 1.363 . S
C1830 N1828 1.356 1_565 S
C1831 C1825 1.363 . S
C1831 C1826 1.379 . S
C1831 N1829 1.356 . S
N1832 C1824 1.356 . S
N1832 H1838 0.984 . S
N1832 H1839 0.984 . S
N1833 C1826 1.356 . S
N1833 H1836 0.984 . S
N1833 H1837 0.985 . S
H1834 N1829 0.984 . S
H1835 N1829 0.985 . S
H1836 N1833 0.984 . S
H1837 N1833 0.985 . S
H1838 N1832 0.984 . S
H1839 N1832 0.984 . S
H1840 N1828 0.984 . S
H1841 N1828 0.985 1_565 S
C1842 C1843 1.363 . S
C1842 C1848 1.379 . S
C1842 N1850 1.356 . S
C1843 C1842 1.363 . S
C1843 C1849 1.363 . S
C1844 C1845 1.363 . S
C1844 C1849 1.379 . S
C1844 N1851 1.356 . S
C1845 C1844 1.363 . S
C1845 C1848 1.363 . S
N1846 C1848 1.356 . S
N1846 H1858 0.984 . S
N1846 H1859 0.985 . S
N1847 C1849 1.356 . S
N1847 H1852 0.984 . S
N1847 H1853 0.985 . S
C1848 C1842 1.379 . S
C1848 C1845 1.363 . S
C1848 N1846 1.356 . S
C1849 C1843 1.363 . S
C1849 C1844 1.379 . S
C1849 N1847 1.356 . S
N1850 C1842 1.356 . S
N1850 H1856 0.984 . S
N1850 H1857 0.984 . S
N1851 C1844 1.356 . S
N1851 H1854 0.984 . S
N1851 H1855 0.985 . S
H1852 N1847 0.984 . S
H1853 N1847 0.985 . S
H1854 N1851 0.984 . S
H1855 N1851 0.985 . S
H1856 N1850 0.984 . S
H1857 N1850 0.984 . S
H1858 N1846 0.984 . S
H1859 N1846 0.985 . S
C1860 C1861 1.363 . S
C1860 C1866 1.379 . S
C1860 N1868 1.356 . S
C1861 C1860 1.363 . S
C1861 C1867 1.363 . S
C1862 C1863 1.363 . S
C1862 C1867 1.379 . S
C1862 N1869 1.356 . S
C1863 C1862 1.363 . S
C1863 C1866 1.363 . S
N1864 C1866 1.356 . S
N1864 H1876 0.984 . S
N1864 H1877 0.985 . S
N1865 C1867 1.356 . S
N1865 H1870 0.984 . S
N1865 H1871 0.985 . S
C1866 C1860 1.379 . S
C1866 C1863 1.363 . S
C1866 N1864 1.356 . S
C1867 C1861 1.363 . S
C1867 C1862 1.379 . S
C1867 N1865 1.356 . S
N1868 C1860 1.356 . S
N1868 H1874 0.984 . S
N1868 H1875 0.984 . S
N1869 C1862 1.356 . S
N1869 H1872 0.984 . S
N1869 H1873 0.985 . S
H1870 N1865 0.984 . S
H1871 N1865 0.985 . S
H1872 N1869 0.984 . S
H1873 N1869 0.985 . S
H1874 N1868 0.984 . S
H1875 N1868 0.984 . S
H1876 N1864 0.984 . S
H1877 N1864 0.985 . S
C1878 C1879 1.363 . S
C1878 C1884 1.379 . S
C1878 N1886 1.356 . S
C1879 C1878 1.363 . S
C1879 C1885 1.363 . S
C1880 C1881 1.363 . S
C1880 C1885 1.379 . S
C1880 N1887 1.356 . S
C1881 C1880 1.363 . S
C1881 C1884 1.363 . S
N1882 C1884 1.356 . S
N1882 H1894 0.984 . S
N1882 H1895 0.985 . S
N1883 C1885 1.356 . S
N1883 H1888 0.984 . S
N1883 H1889 0.985 . S
C1884 C1878 1.379 . S
C1884 C1881 1.363 . S
C1884 N1882 1.356 . S
C1885 C1879 1.363 . S
C1885 C1880 1.379 . S
C1885 N1883 1.356 . S
N1886 C1878 1.356 . S
N1886 H1892 0.984 . S
N1886 H1893 0.984 . S
N1887 C1880 1.356 . S
N1887 H1890 0.984 . S
N1887 H1891 0.985 . S
H1888 N1883 0.984 . S
H1889 N1883 0.985 . S
H1890 N1887 0.984 . S
H1891 N1887 0.985 . S
H1892 N1886 0.984 . S
H1893 N1886 0.984 . S
H1894 N1882 0.984 . S
H1895 N1882 0.985 . S
C817 C719 0.971 . S
C819 C20 0.993 . S
C835 C753 0.906 . S
C837 C54 0.933 . S
C853 C88 1.003 . S
C855 C549 0.977 . S
C871 C787 0.918 . S
C873 C122 0.925 . S
C889 C156 0.927 . S
C891 C651 0.912 . S
C907 C685 0.910 . S
C909 C190 0.944 . S
C925 C583 0.916 . S
C927 C224 0.933 . S
C943 C617 0.815 . S
C945 C258 0.824 . S
C961 C292 0.993 . S
C963 C141 0.971 . S
C979 C326 0.929 . S
C981 C175 0.916 . S
C997 C360 0.933 . S
C999 C209 0.916 . S
C1015 C394 0.945 . S
C1017 C243 0.910 . S
C1033 C5 0.977 . S
C1035 C428 1.003 . S
C1051 C462 0.933 . S
C1053 C39 0.906 . S
C1069 C496 0.927 . S
C1071 C73 0.912 . S
C1087 C107 0.815 . S
C1089 C530 0.824 . S
C1105 C481 0.971 . S
C1107 C564 0.993 . S
C1123 C598 0.933 . S
C1125 C345 0.916 . S
C1141 C632 0.929 . S
C1143 C379 0.916 . S
C1159 C666 1.003 . S
C1161 C277 0.977 . S
C1177 C311 0.815 . S
C1179 C700 0.824 . S
C1195 C413 0.912 . S
C1197 C734 0.927 . S
C1213 C768 0.933 . S
C1215 C447 0.906 . S
C1231 C802 0.945 . S
C1233 C515 0.910 . S
C1249 C240 2.349 . S
C1251 C2 2.077 . S
C1267 C36 2.140 . S
C1269 C138 1.926 . S
C1285 C172 2.287 . S
C1287 C70 2.057 . S
C1303 C206 2.074 . S
C1305 C104 2.355 . S
C1321 C682 2.349 . S
C1323 C274 2.077 . S
C1339 C308 2.352 . S
C1341 C580 2.077 . S
C1357 C342 2.074 . S
C1359 C614 2.355 . S
C1375 C376 2.287 . S
C1377 C648 2.057 . S
C1393 C410 2.057 . S
C1395 C784 2.287 . S
C1411 C716 1.926 . S
C1413 C444 2.140 . S
C1429 C478 1.926 . S
C1431 C750 2.140 . S
C1447 C512 2.349 . S
C1449 C546 2.077 . S
C1465 C9 1.596 . S
C1467 C475 2.113 . S
C1483 C43 1.894 . S
C1485 C509 2.172 . S
C1501 C543 1.905 . S
C1503 C77 1.423 . S
C1519 C441 2.030 . S
C1521 C111 1.818 . S
C1537 C145 1.437 . S
C1539 C407 1.884 . S
C1555 C179 1.883 . S
C1557 C305 2.155 . S
C1573 C339 1.971 . S
C1575 C213 1.493 . S
C1591 C247 1.863 1_655 S
C1593 C373 2.090 . S
C1609 C281 1.596 . S
C1611 C67 2.113 . S
C1627 C315 1.819 . S
C1629 C101 2.028 . S
C1645 C135 1.971 . S
C1647 C349 1.493 . S
C1663 C383 1.883 . S
C1665 C33 2.155 . S
C1681 C417 1.423 . S
C1683 C271 1.905 . S
C1699 C451 1.895 . S
C1701 C169 2.172 . S
C1717 C485 1.437 . S
C1719 C203 1.884 . S
C1735 C519 1.863 1_556 S
C1737 C237 2.090 . S
C1753 C553 1.596 . S
C1755 C781 2.113 . S
C1771 C645 1.971 . S
C1773 C587 1.493 . S
C1789 C679 2.030 . S
C1791 C621 1.818 . S
C1807 C713 1.905 . S
C1809 C655 1.423 . S
C1825 C689 1.863 1_565 S
C1827 C611 2.090 . S
C1843 C815 1.884 . S
C1845 C723 1.437 . S
C1861 C747 2.172 . S
C1863 C757 1.895 . S
C1879 C791 1.883 . S
C1881 C577 2.155 . S
