# Generated by pormake.
# Topology wfa, (4)-cn, num edge types: 1
# Building blocks:
#     Node 0, Type 0, BuildingBlock: MUDLON_clean_sbu_0, # of connection points: 4
#     Node 1, Type 0, BuildingBlock: MUDLON_clean_sbu_0, # of connection points: 4
#     Node 2, Type 0, BuildingBlock: MUDLON_clean_sbu_0, # of connection points: 4
#     Node 3, Type 0, BuildingBlock: MUDLON_clean_sbu_0, # of connection points: 4
#     Node 4, Type 0, BuildingBlock: MUDLON_clean_sbu_0, # of connection points: 4
#     Node 5, Type 0, BuildingBlock: MUDLON_clean_sbu_0, # of connection points: 4
#     Node 6, Type 0, BuildingBlock: MUDLON_clean_sbu_0, # of connection points: 4
#     Node 7, Type 0, BuildingBlock: MUDLON_clean_sbu_0, # of connection points: 4
#     Node 8, Type 0, BuildingBlock: MUDLON_clean_sbu_0, # of connection points: 4
#     Node 9, Type 0, BuildingBlock: MUDLON_clean_sbu_0, # of connection points: 4
#     Node 10, Type 0, BuildingBlock: MUDLON_clean_sbu_0, # of connection points: 4
#     Node 11, Type 0, BuildingBlock: MUDLON_clean_sbu_0, # of connection points: 4
#     Node 12, Type 0, BuildingBlock: MUDLON_clean_sbu_0, # of connection points: 4
#     Node 13, Type 0, BuildingBlock: MUDLON_clean_sbu_0, # of connection points: 4
#     Node 14, Type 0, BuildingBlock: MUDLON_clean_sbu_0, # of connection points: 4
#     Node 15, Type 0, BuildingBlock: MUDLON_clean_sbu_0, # of connection points: 4
#     Edge 16, Type (0, 0), BuildingBlock: XIVTED_clean_linker_0, # of connection points: 2
#     Edge 17, Type (0, 0), BuildingBlock: XIVTED_clean_linker_0, # of connection points: 2
#     Edge 18, Type (0, 0), BuildingBlock: XIVTED_clean_linker_0, # of connection points: 2
#     Edge 19, Type (0, 0), BuildingBlock: XIVTED_clean_linker_0, # of connection points: 2
#     Edge 20, Type (0, 0), BuildingBlock: XIVTED_clean_linker_0, # of connection points: 2
#     Edge 21, Type (0, 0), BuildingBlock: XIVTED_clean_linker_0, # of connection points: 2
#     Edge 22, Type (0, 0), BuildingBlock: XIVTED_clean_linker_0, # of connection points: 2
#     Edge 23, Type (0, 0), BuildingBlock: XIVTED_clean_linker_0, # of connection points: 2
#     Edge 24, Type (0, 0), BuildingBlock: XIVTED_clean_linker_0, # of connection points: 2
#     Edge 25, Type (0, 0), BuildingBlock: XIVTED_clean_linker_0, # of connection points: 2
#     Edge 26, Type (0, 0), BuildingBlock: XIVTED_clean_linker_0, # of connection points: 2
#     Edge 27, Type (0, 0), BuildingBlock: XIVTED_clean_linker_0, # of connection points: 2
#     Edge 28, Type (0, 0), BuildingBlock: XIVTED_clean_linker_0, # of connection points: 2
#     Edge 29, Type (0, 0), BuildingBlock: XIVTED_clean_linker_0, # of connection points: 2
#     Edge 30, Type (0, 0), BuildingBlock: XIVTED_clean_linker_0, # of connection points: 2
#     Edge 31, Type (0, 0), BuildingBlock: XIVTED_clean_linker_0, # of connection points: 2
#     Edge 32, Type (0, 0), BuildingBlock: XIVTED_clean_linker_0, # of connection points: 2
#     Edge 33, Type (0, 0), BuildingBlock: XIVTED_clean_linker_0, # of connection points: 2
#     Edge 34, Type (0, 0), BuildingBlock: XIVTED_clean_linker_0, # of connection points: 2
#     Edge 35, Type (0, 0), BuildingBlock: XIVTED_clean_linker_0, # of connection points: 2
#     Edge 36, Type (0, 0), BuildingBlock: XIVTED_clean_linker_0, # of connection points: 2
#     Edge 37, Type (0, 0), BuildingBlock: XIVTED_clean_linker_0, # of connection points: 2
#     Edge 38, Type (0, 0), BuildingBlock: XIVTED_clean_linker_0, # of connection points: 2
#     Edge 39, Type (0, 0), BuildingBlock: XIVTED_clean_linker_0, # of connection points: 2
#     Edge 40, Type (0, 0), BuildingBlock: XIVTED_clean_linker_0, # of connection points: 2
#     Edge 41, Type (0, 0), BuildingBlock: XIVTED_clean_linker_0, # of connection points: 2
#     Edge 42, Type (0, 0), BuildingBlock: XIVTED_clean_linker_0, # of connection points: 2
#     Edge 43, Type (0, 0), BuildingBlock: XIVTED_clean_linker_0, # of connection points: 2
#     Edge 44, Type (0, 0), BuildingBlock: XIVTED_clean_linker_0, # of connection points: 2
#     Edge 45, Type (0, 0), BuildingBlock: XIVTED_clean_linker_0, # of connection points: 2
#     Edge 46, Type (0, 0), BuildingBlock: XIVTED_clean_linker_0, # of connection points: 2
#     Edge 47, Type (0, 0), BuildingBlock: XIVTED_clean_linker_0, # of connection points: 2
# Relax obj value: 0.200
# Max RMSD: 0.234
# Mean RMSD: 0.228
data_MOF--net-wfa--node1-MUDLON_clean_sbu_0--edge1-XIVTED_clean_linker_0
_symmetry_space_group_name_H-M    P1
_symmetry_Int_Tables_number       1
_symmetry_cell_setting            triclinic
loop_
_symmetry_equiv_pos_as_xyz
'x, y, z'
_cell_length_a     48.994647
_cell_length_b     49.066411
_cell_length_c     25.169305
_cell_angle_alpha  89.57528
_cell_angle_beta   89.589319
_cell_angle_gamma 89.5265
loop_
_atom_site_label
_atom_site_type_symbol
_atom_site_fract_x
_atom_site_fract_y
_atom_site_fract_z
_atom_type_partial_charge
Mg0 Mg 0.66781 0.02196 0.07093 0.0
C1 C 0.6827 1.00657 0.18219 0.0
O2 O 0.65976 0.02009 0.18997 0.0
C3 C 0.61085 0.02126 0.03003 0.0
O4 O 0.62217 0.04035 1.00058 0.0
C5 C 0.71323 1.00766 0.9921 0.0
O6 O 0.72557 0.99997 0.03597 0.0
O7 O 0.68929 0.01784 0.99509 0.0
O8 O 0.69024 1.00171 0.1347 0.0
O9 O 0.66468 0.06405 0.09702 0.0
C10 C 0.68235 0.07377 0.12831 0.0
O11 O 0.70475 0.05972 0.13782 0.0
O12 O 0.62559 1.00854 0.06369 0.0
Mg13 Mg 0.49509 0.67218 0.0469 0.0
C14 C 0.43593 0.65347 0.06793 0.0
O15 O 0.43949 0.63828 0.02567 0.0
C16 C 0.51538 0.70882 0.95815 0.0
O17 O 0.53411 0.71361 0.99392 0.0
C18 C 0.50205 0.61649 1.0008 0.0
O19 O 0.48904 0.6296 0.96283 0.0
O20 O 0.50924 0.62972 0.04172 0.0
O21 O 0.45443 0.67005 0.08087 0.0
O22 O 0.51346 0.69821 0.10647 0.0
C23 C 0.50112 0.72115 0.10832 0.0
O24 O 0.48259 0.72653 0.07214 0.0
O25 O 0.49629 0.69225 0.96935 0.0
Mg26 Mg 0.85797 0.50206 0.07515 0.0
C27 C 0.83932 0.52756 0.18008 0.0
O28 O 0.86395 0.52047 0.19542 0.0
C29 C 0.91759 0.50881 0.09862 0.0
O30 O 0.90952 0.49479 0.14044 0.0
C31 C 0.81632 0.51745 0.99211 0.0
O32 O 0.80861 0.5336 0.0309 0.0
O33 O 0.83662 0.50149 0.99925 0.0
O34 O 0.83296 0.52487 0.13153 0.0
O35 O 0.86172 0.46196 0.11208 0.0
C36 C 0.84456 0.45443 0.14732 0.0
O37 O 0.82221 0.46893 0.15451 0.0
O38 O 0.89993 0.5162 0.06443 0.0
Mg39 Mg 0.02882 0.84224 0.06055 0.0
C40 C 0.07966 0.83575 0.12848 0.0
O41 O 0.06604 0.81493 0.14767 0.0
C42 C 0.01284 0.82595 0.9483 0.0
O43 O 0.99942 0.8492 0.9507 0.0
C44 C 0.02927 0.89963 0.02302 0.0
O45 O 0.0522 0.88941 1.0041 0.0
O46 O 0.01326 0.88386 0.04867 0.0
O47 O 0.07018 0.84878 0.08867 0.0
O48 O 1.00951 0.81892 0.12469 0.0
C49 C 1.01143 0.79308 0.12134 0.0
O50 O 0.02093 0.78259 0.07697 0.0
O51 O 0.02739 0.81851 0.98756 0.0
Mg52 Mg 0.16661 1.00136 0.46137 0.0
C53 C 0.2161 0.01428 0.40134 0.0
O54 O 0.22332 0.99459 0.43416 0.0
C55 C 0.10687 0.0143 0.43712 0.0
O56 O 0.11488 1.00707 0.38931 0.0
C57 C 0.20214 0.01851 0.5525 0.0
O58 O 0.20459 0.03983 0.52101 0.0
O59 O 0.18733 0.99875 0.53787 0.0
O60 O 0.1923 0.02463 0.40643 0.0
O61 O 0.16351 0.96203 0.42153 0.0
C62 C 0.16496 0.96319 0.37098 0.0
O63 O 0.16797 0.98704 0.34785 0.0
O64 O 0.12447 0.01547 0.47399 0.0
Mg65 Mg 0.52914 0.17652 0.44756 0.0
C66 C 0.57987 0.18648 0.38186 0.0
O67 O 0.56524 0.20771 0.36699 0.0
C68 C 0.51128 0.19203 0.55984 0.0
O69 O 0.50064 0.16756 0.55822 0.0
C70 C 0.52946 0.11894 0.48716 0.0
O71 O 0.55101 0.12899 0.51059 0.0
O72 O 0.51484 0.13475 0.45856 0.0
O73 O 0.57108 0.17146 0.4196 0.0
O74 O 0.50933 0.19757 0.38148 0.0
C75 C 0.50384 0.22292 0.38417 0.0
O76 O 0.50667 0.23537 0.4298 0.0
O77 O 0.52483 0.20071 0.51992 0.0
Mg78 Mg 0.35372 0.5251 0.46525 0.0
C79 C 0.33011 0.48594 0.37821 0.0
O80 O 0.35491 0.47608 0.37167 0.0
C81 C 0.40945 0.52182 0.51025 0.0
O82 O 0.39658 0.53845 0.54275 0.0
C83 C 0.31734 0.51115 0.55726 0.0
O84 O 0.31225 0.49109 0.52461 0.0
O85 O 0.33434 0.52935 0.54304 0.0
O86 O 0.32541 0.50291 0.41517 0.0
O87 O 0.35663 0.5627 0.41905 0.0
C88 C 0.36393 0.5566 0.37198 0.0
O89 O 0.3705 0.53119 0.36173 0.0
O90 O 0.39598 0.51089 0.47301 0.0
Mg91 Mg 1.0039 0.3434 0.45286 0.0
C92 C 0.94604 0.36548 0.43513 0.0
O93 O 0.95299 0.38349 0.47082 0.0
C94 C 0.99395 0.32133 0.56634 0.0
O95 O 0.97285 0.33801 0.56502 0.0
C96 C 0.01466 0.39875 0.50247 0.0
O97 O 1.00522 0.38576 0.54443 0.0
O98 O 0.01772 0.38573 0.45919 0.0
O99 O 0.9621 0.34566 0.42534 0.0
O100 O 0.02245 0.32112 0.38707 0.0
C101 C 0.02176 0.29521 0.38952 0.0
O102 O 0.01329 0.28355 0.43374 0.0
O103 O 1.00961 0.31971 0.52596 0.0
Mg104 Mg 0.35095 0.99235 0.96241 0.0
C105 C 0.30354 1.00252 0.89666 0.0
O106 O 0.29669 0.98256 0.92908 0.0
C107 C 0.40741 0.99625 1.00721 0.0
O108 O 0.39516 0.98118 0.04342 0.0
C109 C 0.31491 0.01338 0.05151 0.0
O110 O 0.31044 0.03246 0.01566 0.0
O111 O 0.33088 0.99364 0.04008 0.0
O112 O 0.32649 0.01397 0.90339 0.0
O113 O 0.3508 0.95257 0.92521 0.0
C114 C 0.37149 0.93695 0.92114 0.0
O115 O 0.39326 0.94199 0.94945 0.0
O116 O 0.39351 1.00517 0.96808 0.0
Mg117 Mg 0.51802 0.35523 0.94011 0.0
C118 C 0.49667 0.30589 0.88703 0.0
O119 O 0.51044 0.29511 0.92665 0.0
C120 C 0.52077 0.41197 0.98285 0.0
O121 O 0.5406 0.39962 1.00867 0.0
C122 C 0.50525 0.33893 0.05411 0.0
O123 O 0.48867 0.36 0.04981 0.0
O124 O 0.52072 0.33285 0.01508 0.0
O125 O 0.49298 0.3316 0.88595 0.0
O126 O 0.55626 0.35642 0.89556 0.0
C127 C 0.55188 0.3596 0.8461 0.0
O128 O 0.52664 0.36292 0.83001 0.0
O129 O 0.50626 0.39802 0.9514 0.0
Mg130 Mg 0.17399 0.53239 0.98056 0.0
C131 C 0.21861 0.52229 0.9074 0.0
O132 O 0.22753 0.54036 0.94129 0.0
C133 C 0.11981 0.5251 0.03555 0.0
O134 O 0.13517 0.53226 0.07559 0.0
C135 C 0.21103 0.50409 0.05887 0.0
O136 O 0.21185 0.48664 0.01954 0.0
O137 O 0.19663 0.52567 0.05398 0.0
O138 O 0.19512 0.51207 0.91547 0.0
O139 O 0.17609 0.57362 0.94928 0.0
C140 C 0.15503 0.58862 0.94405 0.0
O141 O 0.13257 0.582 0.96968 0.0
O142 O 0.13083 0.52227 0.98995 0.0
Mg143 Mg 0.9977 0.16005 0.95638 0.0
C144 C 0.01993 0.20727 0.89422 0.0
O145 O 0.01402 0.2188 0.93987 0.0
C146 C 0.99383 0.10184 0.99138 0.0
O147 O 0.97074 0.11228 1.00905 0.0
C148 C 0.01292 0.17502 0.07011 0.0
O149 O 0.02274 0.15002 0.07027 0.0
O150 O 1.00095 0.18401 0.02878 0.0
O151 O 0.018 0.18148 0.89079 0.0
O152 O 0.95608 0.15775 0.92759 0.0
C153 C 0.94631 0.17695 0.89909 0.0
O154 O 0.95957 0.20003 0.89553 0.0
O155 O 1.01068 0.11753 0.96771 0.0
Mg156 Mg 0.85121 0.02674 0.56902 0.0
C157 C 0.80718 1.00671 0.63787 0.0
O158 O 0.7945 0.02068 0.60062 0.0
C159 C 0.90432 0.02471 0.50666 0.0
O160 O 0.88826 0.03606 0.47108 0.0
C161 C 0.82523 1.00654 0.46646 0.0
O162 O 0.84377 0.9872 0.47126 0.0
O163 O 0.82449 0.02573 0.50019 0.0
O164 O 0.83283 1.00296 0.63314 0.0
O165 O 0.85011 0.06619 0.60666 0.0
C166 C 0.86659 0.08555 0.59782 0.0
O167 O 0.88413 0.0836 0.55828 0.0
O168 O 0.89413 0.01742 0.55118 0.0
Mg169 Mg 0.50032 0.85801 0.54519 0.0
C170 C 0.51218 0.81125 0.61206 0.0
O171 O 0.4944 0.80284 0.57705 0.0
C172 C 0.50257 0.91578 0.50174 0.0
O173 O 0.48709 0.90448 0.4658 0.0
C174 C 0.48706 0.83634 0.43468 0.0
O175 O 0.4645 0.85047 0.44228 0.0
O176 O 0.50515 0.83606 0.47062 0.0
O177 O 0.52164 0.83522 0.60682 0.0
O178 O 0.45967 0.85561 0.57969 0.0
C179 C 0.44331 0.87567 0.58433 0.0
O180 O 0.44835 0.89832 0.55809 0.0
O181 O 0.51204 0.90096 0.5392 0.0
Mg182 Mg 0.67101 0.50768 0.57206 0.0
C183 C 0.71548 0.51437 0.64608 0.0
O184 O 0.72517 0.4988 0.60796 0.0
C185 C 0.61487 0.51442 0.52198 0.0
O186 O 0.62876 0.50601 0.48034 0.0
C187 C 0.69679 0.5043 0.4603 0.0
O188 O 0.6811 0.48289 0.45562 0.0
O189 O 0.6961 0.5179 0.50307 0.0
O190 O 0.69135 0.52391 0.64147 0.0
O191 O 0.67227 0.46482 0.59254 0.0
C192 C 0.65642 0.447 0.57393 0.0
O193 O 0.64088 0.45344 0.53335 0.0
O194 O 0.62756 0.51863 0.56514 0.0
Mg195 Mg 0.0312 0.66044 0.56542 0.0
C196 C 1.00817 0.70638 0.62793 0.0
O197 O 0.01651 0.71884 0.58445 0.0
C198 C 0.02887 0.60332 0.51815 0.0
O199 O 0.03908 0.61648 0.47709 0.0
C200 C 0.04026 0.68271 0.45244 0.0
O201 O 0.06316 0.66873 0.4561 0.0
O202 O 0.02366 0.68275 0.4915 0.0
O203 O 1.00911 0.68046 0.62975 0.0
O204 O 0.07197 0.66553 0.5964 0.0
C205 C 0.08875 0.64586 0.60165 0.0
O206 O 0.084 0.62288 0.57706 0.0
O207 O 0.02275 0.61663 0.55992 0.0
H208 H 0.59231 0.20336 0.28092 0.0
H209 H 0.70062 0.08392 0.2284 0.0
H210 H 0.61782 0.14632 0.40258 0.0
H211 H 0.6455 0.11482 0.10888 0.0
H212 H 0.6812 0.11647 0.2919 0.0
H213 H 0.62295 0.1807 0.21784 0.0
C214 C 0.6048 0.18648 0.29479 0.0
C215 C 0.60224 0.1765 0.34705 0.0
C216 C 0.67377 0.11643 0.25147 0.0
C217 C 0.63735 0.15063 0.27492 0.0
C218 C 0.68494 0.09804 0.21507 0.0
C219 C 0.67453 0.09662 0.16332 0.0
C220 C 0.65239 0.1338 0.2357 0.0
C221 C 0.65398 0.11517 0.14847 0.0
C222 C 0.62215 0.17349 0.2586 0.0
C223 C 0.61896 0.15451 0.36258 0.0
N224 N 0.64348 0.13294 0.18458 0.0
N225 N 0.63569 0.14216 0.32653 0.0
H226 H 0.3754 0.61154 0.37535 0.0
H227 H 0.39624 0.61462 0.06115 0.0
H228 H 0.35404 0.54685 0.26868 0.0
H229 H 0.4272 0.67629 0.16581 0.0
H230 H 0.36944 0.59615 0.13486 0.0
H231 H 0.38391 0.64135 0.29793 0.0
C232 C 0.37198 0.60385 0.33575 0.0
C233 C 0.36463 0.57663 0.32812 0.0
C234 C 0.38175 0.61401 0.14154 0.0
C235 C 0.37412 0.61028 0.24002 0.0
C236 C 0.39698 0.62464 0.09931 0.0
C237 C 0.41457 0.64657 0.10759 0.0
C238 C 0.38432 0.62521 0.19253 0.0
C239 C 0.41435 0.65897 0.15783 0.0
C240 C 0.37687 0.62077 0.29164 0.0
C241 C 0.36033 0.56758 0.27615 0.0
N242 N 0.39994 0.64777 0.19871 0.0
N243 N 0.3654 0.58424 0.23416 0.0
H244 H 0.88351 0.41433 0.13856 0.0
H245 H 0.90508 0.40359 0.44528 0.0
H246 H 0.82522 0.44895 0.24887 0.0
H247 H 0.9366 0.34231 0.33846 0.0
H248 H 0.87449 0.41975 0.37504 0.0
H249 H 0.90256 0.38678 0.21103 0.0
C250 C 0.8744 0.41573 0.1778 0.0
C251 C 0.85286 0.43403 0.18775 0.0
C252 C 0.88773 0.40241 0.3674 0.0
C253 C 0.87491 0.4031 0.27099 0.0
C254 C 0.9052 0.39319 0.40747 0.0
C255 C 0.92366 0.37178 0.39761 0.0
C256 C 0.88918 0.3905 0.31684 0.0
C257 C 0.92285 0.359 0.34784 0.0
C258 C 0.88524 0.4 0.21913 0.0
C259 C 0.84182 0.43507 0.23938 0.0
N260 N 0.90633 0.36891 0.30898 0.0
N261 N 0.85332 0.42023 0.27932 0.0
H262 H 0.11438 0.87684 0.09981 0.0
H263 H 0.14501 0.91275 0.39979 0.0
H264 H 0.09405 0.82326 0.23078 0.0
H265 H 0.17527 0.95877 0.26526 0.0
H266 H 0.13174 0.8763 0.33919 0.0
H267 H 0.14267 0.90337 0.1593 0.0
C268 C 0.11628 0.87034 0.14086 0.0
C269 C 0.10146 0.84808 0.16051 0.0
C270 C 0.14169 0.8942 0.3231 0.0
C271 C 0.13336 0.87872 0.22928 0.0
C272 C 0.14928 0.91498 0.35771 0.0
C273 C 0.16073 0.93904 0.33741 0.0
C274 C 0.14554 0.89767 0.268 0.0
C275 C 0.16595 0.94081 0.28258 0.0
C276 C 0.1324 0.88554 0.17494 0.0
C277 C 0.1049 0.84045 0.214 0.0
N278 N 0.158 0.92062 0.2498 0.0
N279 N 0.12006 0.85607 0.2468 0.0
H280 H 0.33914 0.93643 0.83292 0.0
H281 H 0.44206 0.84128 0.67042 0.0
H282 H 0.40939 0.89663 0.90246 0.0
H283 H 0.40111 0.9115 0.60278 0.0
H284 H 0.41776 0.84906 0.7542 0.0
H285 H 0.34981 0.91447 0.74832 0.0
C286 C 0.35637 0.92248 0.83094 0.0
C287 C 0.37372 0.91871 0.8747 0.0
C288 C 0.41367 0.86234 0.72056 0.0
C289 C 0.38578 0.8935 0.77804 0.0
C290 C 0.42738 0.85788 0.67258 0.0
C291 C 0.42392 0.87608 0.6297 0.0
C292 C 0.39606 0.88484 0.72539 0.0
C293 C 0.40464 0.8972 0.63501 0.0
C294 C 0.36248 0.91011 0.7825 0.0
C295 C 0.39571 0.90039 0.86958 0.0
N296 N 0.39161 0.90118 0.68224 0.0
N297 N 0.40129 0.88866 0.82189 0.0
H298 H 0.62 0.40636 0.55347 0.0
H299 H 0.60535 0.37459 0.86092 0.0
H300 H 0.67772 0.43281 0.67082 0.0
H301 H 0.54877 0.34894 0.74103 0.0
H302 H 0.63831 0.38609 0.79043 0.0
H303 H 0.60069 0.37489 0.61877 0.0
C304 C 0.62904 0.40512 0.59257 0.0
C305 C 0.64995 0.42285 0.60711 0.0
C306 C 0.61888 0.37742 0.77966 0.0
C307 C 0.62755 0.38731 0.68254 0.0
C308 C 0.60014 0.37082 0.81989 0.0
C309 C 0.57413 0.3615 0.80655 0.0
C310 C 0.61141 0.3746 0.72606 0.0
C311 C 0.56839 0.35678 0.7529 0.0
C312 C 0.61793 0.3872 0.63002 0.0
C313 C 0.66115 0.41998 0.65817 0.0
N314 N 0.58669 0.36375 0.71463 0.0
N315 N 0.64938 0.40306 0.69446 0.0
H316 H 0.1315 0.61091 0.62124 0.0
H317 H 0.11684 0.62843 0.92424 0.0
H318 H 0.08888 0.68056 0.68628 0.0
H319 H 0.18871 0.59027 0.85687 0.0
H320 H 0.10788 0.65018 0.83822 0.0
H321 H 0.15497 0.60477 0.70608 0.0
C322 C 0.12757 0.6253 0.65289 0.0
C323 C 0.10793 0.64602 0.64684 0.0
C324 C 0.12599 0.63759 0.84267 0.0
C325 C 0.13414 0.63873 0.74428 0.0
C326 C 0.1311 0.62518 0.89177 0.0
C327 C 0.15332 0.60724 0.89762 0.0
C328 C 0.14282 0.63141 0.79886 0.0
C329 C 0.17121 0.60381 0.85416 0.0
C330 C 0.14098 0.62181 0.7013 0.0
C331 C 0.10372 0.66416 0.6892 0.0
N332 N 0.16518 0.6152 0.80624 0.0
N333 N 0.11618 0.65967 0.73657 0.0
H334 H 0.90874 0.13598 0.90249 0.0
H335 H 0.89929 0.13075 0.59462 0.0
H336 H 0.93679 0.2028 0.80448 0.0
H337 H 0.84199 0.08802 0.69557 0.0
H338 H 0.91133 0.15941 0.66998 0.0
H339 H 0.88177 0.1197 0.82793 0.0
C340 C 0.90873 0.14756 0.86567 0.0
C341 C 0.92524 0.17058 0.85949 0.0
C342 C 0.8957 0.14413 0.67526 0.0
C343 C 0.89505 0.15174 0.77373 0.0
C344 C 0.88885 0.12774 0.63226 0.0
C345 C 0.86997 0.10664 0.63896 0.0
C346 C 0.88396 0.13898 0.72541 0.0
C347 C 0.85693 0.1038 0.68863 0.0
C348 C 0.89334 0.13828 0.82311 0.0
C349 C 0.92442 0.18488 0.81093 0.0
N350 N 0.8646 0.11937 0.73023 0.0
N351 N 0.9101 0.17486 0.76947 0.0
H352 H 0.76551 0.9898 0.9718 0.0
H353 H 0.7524 1.00972 0.65689 0.0
H354 H 0.69235 0.0177 0.893 0.0
H355 H 0.82856 0.99031 0.73413 0.0
H356 H 0.72908 1.00696 0.74253 0.0
H357 H 0.78795 0.98511 0.88509 0.0
C358 C 0.75412 0.99488 0.93631 0.0
C359 C 0.72701 1.00433 0.93981 0.0
C360 C 0.75085 1.00307 0.74084 0.0
C361 C 0.75259 0.99883 0.84033 0.0
C362 C 0.76421 1.00452 0.6918 0.0
C363 C 0.79257 1.00047 0.68827 0.0
C364 C 0.76589 0.99761 0.78703 0.0
C365 C 0.8067 0.99363 0.73495 0.0
C366 C 0.76696 0.99217 0.8868 0.0
C367 C 0.7133 1.01051 0.89238 0.0
N368 N 0.79325 0.99268 0.7825 0.0
N369 N 0.72624 1.0077 0.84474 0.0
H370 H 0.54287 0.82392 0.69988 0.0
H371 H 0.48456 0.69879 0.87011 0.0
H372 H 0.49211 0.7609 0.63541 0.0
H373 H 0.54875 0.75062 0.92668 0.0
H374 H 0.48647 0.72235 0.78435 0.0
H375 H 0.54547 0.79801 0.78352 0.0
C376 C 0.53257 0.80452 0.70302 0.0
C377 C 0.51714 0.79467 0.66059 0.0
C378 C 0.50024 0.72851 0.81543 0.0
C379 C 0.51968 0.76517 0.75627 0.0
C380 C 0.49907 0.71512 0.86451 0.0
C381 C 0.51648 0.72275 0.90573 0.0
C382 C 0.51877 0.74991 0.80748 0.0
C383 C 0.53495 0.74402 0.89603 0.0
C384 C 0.53399 0.78979 0.75081 0.0
C385 C 0.50415 0.76942 0.66703 0.0
N386 N 0.53551 0.75696 0.84803 0.0
N387 N 0.50552 0.75572 0.71399 0.0
H388 H 0.77011 0.5465 0.9672 0.0
H389 H 0.76666 0.49495 0.66644 0.0
H390 H 0.82898 0.49039 0.8999 0.0
H391 H 0.70083 0.54098 0.73837 0.0
H392 H 0.79156 0.49673 0.74964 0.0
H393 H 0.74616 0.54779 0.88233 0.0
C394 C 0.77804 0.53444 0.93459 0.0
C395 C 0.80161 0.51824 0.94081 0.0
C396 C 0.77172 0.50655 0.74731 0.0
C397 C 0.77427 0.51978 0.84333 0.0
C398 C 0.75746 0.50564 0.69964 0.0
C399 C 0.73149 0.51775 0.69535 0.0
C400 C 0.76005 0.51972 0.79133 0.0
C401 C 0.72076 0.53134 0.73985 0.0
C402 C 0.76431 0.53521 0.88613 0.0
C403 C 0.81088 0.5031 0.89708 0.0
N404 N 0.73505 0.53188 0.78607 0.0
N405 N 0.79721 0.50427 0.85025 0.0
H406 H 0.99069 0.83882 0.85165 0.0
H407 H 1.00978 0.68899 0.73186 0.0
H408 H 0.02828 0.77232 0.93811 0.0
H409 H 0.99634 0.76072 0.635 0.0
H410 H 1.00889 0.71768 0.8112 0.0
H411 H 0.9858 0.80898 0.77492 0.0
C412 C 0.9979 0.81794 0.85455 0.0
C413 C 1.01008 0.80813 0.90133 0.0
C414 C 1.00588 0.72707 0.77258 0.0
C415 C 1.00421 0.77374 0.81376 0.0
C416 C 1.00612 0.71069 0.72732 0.0
C417 C 1.00321 0.7225 0.67667 0.0
C418 C 1.00241 0.75541 0.7672 0.0
C419 C 0.99879 0.75077 0.67322 0.0
C420 C 0.99509 0.80092 0.81071 0.0
C421 C 0.01898 0.78083 0.90274 0.0
N422 N 0.9986 0.76625 0.7178 0.0
N423 N 0.01582 0.76459 0.85966 0.0
H424 H 0.24084 0.05369 0.58877 0.0
H425 H 0.25519 0.9791 0.87097 0.0
H426 H 0.19622 0.98159 0.63418 0.0
H427 H 0.31326 0.03831 0.81354 0.0
H428 H 0.22984 0.98414 0.78863 0.0
H429 H 0.26437 0.05208 0.6742 0.0
C430 C 0.23593 0.03754 0.61671 0.0
C431 C 0.21652 0.01769 0.60417 0.0
C432 C 0.24804 0.99615 0.79403 0.0
C433 C 0.2433 0.0159 0.70225 0.0
C434 C 0.26252 0.9934 0.84125 0.0
C435 C 0.28656 1.0082 0.84921 0.0
C436 C 0.25747 0.01394 0.7542 0.0
C437 C 0.29489 0.02646 0.80914 0.0
C438 C 0.24942 0.03664 0.66545 0.0
C439 C 0.21107 0.99725 0.64198 0.0
N440 N 0.28042 0.02874 0.76324 0.0
N441 N 0.22434 0.99693 0.68927 0.0
H442 H 0.51994 0.24702 0.5694 0.0
H443 H 0.4924 0.25058 0.8809 0.0
H444 H 0.49217 0.17678 0.65802 0.0
H445 H 0.4918 0.32331 0.78354 0.0
H446 H 0.49341 0.22298 0.80036 0.0
H447 H 0.51197 0.27521 0.64808 0.0
C448 C 0.51222 0.23751 0.60539 0.0
C449 C 0.50682 0.20944 0.60714 0.0
C450 C 0.49267 0.24497 0.79657 0.0
C451 C 0.49768 0.24161 0.69731 0.0
C452 C 0.492 0.26075 0.84255 0.0
C453 C 0.492 0.2893 0.83901 0.0
C454 C 0.49392 0.25782 0.74657 0.0
C455 C 0.49162 0.30137 0.7882 0.0
C456 C 0.5075 0.25365 0.65016 0.0
C457 C 0.49664 0.1983 0.65481 0.0
N458 N 0.49302 0.28558 0.74399 0.0
N459 N 0.49261 0.21434 0.69805 0.0
H460 H 0.3274 0.54548 0.64037 0.0
H461 H 0.20528 0.48954 0.82298 0.0
H462 H 0.27575 0.47904 0.59391 0.0
H463 H 0.26745 0.54415 0.87818 0.0
H464 H 0.22988 0.48578 0.73803 0.0
H465 H 0.30433 0.54633 0.72682 0.0
C466 C 0.3112 0.53109 0.6483 0.0
C467 C 0.30351 0.51217 0.60979 0.0
C468 C 0.23819 0.49842 0.76897 0.0
C469 C 0.27695 0.51302 0.70874 0.0
C470 C 0.2242 0.5005 0.81749 0.0
C471 C 0.23424 0.51724 0.85776 0.0
C472 C 0.26226 0.51335 0.76059 0.0
C473 C 0.25884 0.53105 0.84833 0.0
C474 C 0.29808 0.5315 0.69776 0.0
C475 C 0.2824 0.49396 0.62241 0.0
N476 N 0.27185 0.52895 0.80072 0.0
N477 N 0.26979 0.49489 0.67068 0.0
H478 H 0.97512 0.33004 0.66729 0.0
H479 H 0.0309 0.19138 0.79127 0.0
H480 H 0.026 0.27537 0.57572 0.0
H481 H 0.01212 0.26228 0.88574 0.0
H482 H 0.02673 0.21962 0.71067 0.0
H483 H 0.98488 0.30294 0.74694 0.0
C484 C 0.98831 0.3123 0.66391 0.0
C485 C 0.99975 0.30497 0.61477 0.0
C486 C 0.02387 0.22897 0.74917 0.0
C487 C 1.01088 0.27372 0.70583 0.0
C488 C 0.0263 0.21291 0.79517 0.0
C489 C 0.02178 0.22441 0.84547 0.0
C490 C 0.01637 0.25657 0.75351 0.0
C491 C 0.01577 0.25244 0.84798 0.0
C492 C 0.994 0.29694 0.70946 0.0
C493 C 0.01682 0.28181 0.61287 0.0
N494 N 0.01289 0.26742 0.80274 0.0
N495 N 0.02169 0.26685 0.65767 0.0
H496 H 0.20405 0.04648 0.31418 0.0
H497 H 0.32515 0.98217 0.14011 0.0
H498 H 0.26624 0.99287 0.37768 0.0
H499 H 0.27462 0.04871 0.08406 0.0
H500 H 0.30301 0.9855 0.22717 0.0
H501 H 0.22933 0.0482 0.22976 0.0
C502 C 0.2232 0.03544 0.31073 0.0
C503 C 0.23292 0.01938 0.35308 0.0
C504 C 0.29683 0.99946 0.19591 0.0
C505 C 0.26167 0.02084 0.25636 0.0
C506 C 0.30939 0.99747 0.14607 0.0
C507 C 0.3017 0.01513 0.10461 0.0
C508 C 0.27619 0.01908 0.20438 0.0
C509 C 0.28121 0.03466 0.11483 0.0
C510 C 0.23756 0.03632 0.26244 0.0
C511 C 0.25782 1.0054 0.34613 0.0
N512 N 0.26907 0.03601 0.16355 0.0
N513 N 0.27114 1.00623 0.29865 0.0
H514 H 0.48675 0.27604 0.37506 0.0
H515 H 0.52781 0.28809 0.06836 0.0
H516 H 0.51262 0.20714 0.28111 0.0
H517 H 0.48088 0.34995 0.14999 0.0
H518 H 0.52496 0.25909 0.14766 0.0
H519 H 0.48603 0.30417 0.29437 0.0
C520 C 0.49196 0.26673 0.33739 0.0
C521 C 0.49975 0.23917 0.33491 0.0
C522 C 0.51524 0.27899 0.14818 0.0
C523 C 0.49947 0.2714 0.24251 0.0
C524 C 0.51702 0.29565 0.10303 0.0
C525 C 0.5046 0.32154 0.10252 0.0
C526 C 0.50122 0.28838 0.19346 0.0
C527 C 0.49074 0.33014 0.14855 0.0
C528 C 0.4916 0.28283 0.29135 0.0
C529 C 0.50635 0.22825 0.28495 0.0
N530 N 0.48953 0.31367 0.19221 0.0
N531 N 0.50633 0.24445 0.24087 0.0
H532 H 0.27866 0.50803 0.37519 0.0
H533 H 0.25015 0.46478 0.07495 0.0
H534 H 0.33448 0.45815 0.28377 0.0
H535 H 0.20828 0.53088 0.15418 0.0
H536 H 0.27699 0.45661 0.1552 0.0
H537 H 0.24809 0.51019 0.29929 0.0
C538 C 0.28436 0.49716 0.33945 0.0
C539 C 0.30941 0.48308 0.33584 0.0
C540 C 0.26187 0.47283 0.15504 0.0
C541 C 0.27436 0.48571 0.24837 0.0
C542 C 0.2465 0.47752 0.10927 0.0
C543 C 0.227 0.49867 0.10769 0.0
C544 C 0.25755 0.48921 0.19985 0.0
C545 C 0.22319 0.51448 0.15344 0.0
C546 C 0.26691 0.49857 0.29596 0.0
C547 C 0.31548 0.46933 0.28839 0.0
N548 N 0.23831 0.50942 0.19761 0.0
N549 N 0.29818 0.47115 0.24637 0.0
H550 H 0.03061 0.16046 0.16944 0.0
H551 H 0.0233 0.31212 0.28519 0.0
H552 H 1.00368 0.23012 0.07749 0.0
H553 H 0.02855 0.23998 0.38383 0.0
H554 H 0.02334 0.28313 0.2063 0.0
H555 H 0.03643 0.19008 0.24619 0.0
C556 C 0.02595 0.18199 0.16532 0.0
C557 C 0.01647 0.19277 0.11697 0.0
C558 C 0.02471 0.27369 0.24523 0.0
C559 C 0.02336 0.22687 0.20468 0.0
C560 C 0.02491 0.29023 0.29026 0.0
C561 C 0.02579 0.27846 0.34126 0.0
C562 C 0.02565 0.24519 0.25119 0.0
C563 C 0.02768 0.24994 0.34535 0.0
C564 C 0.02928 0.19889 0.2092 0.0
C565 C 1.01083 0.22087 0.11406 0.0
N566 N 0.02746 0.23431 0.30099 0.0
N567 N 0.01439 0.23694 0.15726 0.0
H568 H 0.67752 0.02525 0.28379 0.0
H569 H 0.82457 0.97321 0.37929 0.0
H570 H 0.73231 0.97979 0.18194 0.0
H571 H 0.77813 0.03656 0.4576 0.0
H572 H 0.78905 0.97068 0.31139 0.0
H573 H 0.71185 0.02402 0.35343 0.0
C574 C 0.69662 0.01465 0.27624 0.0
C575 C 0.70202 1.00264 0.22676 0.0
C576 C 0.7867 0.98513 0.34343 0.0
C577 C 0.74163 1.0014 0.30655 0.0
C578 C 0.80694 0.9866 0.38221 0.0
C579 C 0.80439 1.00521 0.42414 0.0
C580 C 0.76356 1.00213 0.34699 0.0
C581 C 0.78108 0.02202 0.42588 0.0
C582 C 0.71632 0.01415 0.31599 0.0
C583 C 0.72727 0.98935 0.21941 0.0
N584 N 0.76156 0.02001 0.38803 0.0
N585 N 0.74617 0.98914 0.25882 0.0
H586 H 0.45738 0.8396 0.34332 0.0
H587 H 0.53133 0.71422 0.19992 0.0
H588 H 0.52624 0.79747 0.41278 0.0
H589 H 0.47684 0.77077 0.12107 0.0
H590 H 0.53014 0.74352 0.27874 0.0
H591 H 0.46381 0.81323 0.26238 0.0
C592 C 0.47388 0.82481 0.34156 0.0
C593 C 0.49124 0.82073 0.385 0.0
C594 C 0.5187 0.74958 0.24389 0.0
C595 C 0.49872 0.79026 0.29218 0.0
C596 C 0.51944 0.73291 0.19886 0.0
C597 C 0.50401 0.7399 0.15389 0.0
C598 C 0.50224 0.77321 0.24395 0.0
C599 C 0.48891 0.76437 0.15486 0.0
C600 C 0.47764 0.8098 0.29518 0.0
C601 C 0.51238 0.80131 0.38022 0.0
N602 N 0.48821 0.77992 0.1992 0.0
N603 N 0.51542 0.78665 0.33478 0.0
H604 H 0.69522 0.4895 0.35581 0.0
H605 H 0.84464 0.53803 0.28641 0.0
H606 H 0.74239 0.53598 0.46683 0.0
H607 H 0.78408 0.52505 0.16564 0.0
H608 H 0.8085 0.53623 0.35416 0.0
H609 H 0.72865 0.50027 0.28617 0.0
C610 C 0.71255 0.50205 0.36547 0.0
C611 C 0.71608 0.51178 0.4172 0.0
C612 C 0.80312 0.53421 0.31273 0.0
C613 C 0.75451 0.52396 0.33791 0.0
C614 C 0.82372 0.53527 0.27404 0.0
C615 C 0.81743 0.53156 0.22027 0.0
C616 C 0.77617 0.52885 0.29759 0.0
C617 C 0.78993 0.52802 0.20657 0.0
C618 C 0.73154 0.50832 0.32567 0.0
C619 C 0.73886 0.52809 0.42743 0.0
N620 N 0.7704 0.52629 0.24503 0.0
N621 N 0.75741 0.53339 0.3883 0.0
H622 H 0.99492 0.8073 0.22253 0.0
H623 H 0.06243 0.6758 0.35354 0.0
H624 H 0.02507 0.73924 0.13084 0.0
H625 H 1.00325 0.72449 0.43906 0.0
H626 H 0.05177 0.70143 0.27256 0.0
H627 H 0.9995 0.77948 0.30357 0.0
C628 C 1.0021 0.78643 0.21927 0.0
C629 C 1.00975 0.77567 0.16973 0.0
C630 C 0.041 0.70643 0.30898 0.0
C631 C 0.01558 0.74406 0.26223 0.0
C632 C 0.0472 0.69191 0.3553 0.0
C633 C 0.03373 0.69803 0.40314 0.0
C634 C 0.02154 0.72759 0.31057 0.0
C635 C 0.01406 0.71905 0.40296 0.0
C636 C 1.00476 0.77061 0.26553 0.0
C637 C 0.01899 0.7485 0.16803 0.0
N638 N 1.00872 0.73328 0.35748 0.0
N639 N 0.022 0.73381 0.21358 0.0
H640 H 0.44013 0.02597 0.93933 0.0
H641 H 0.57884 0.98757 0.09185 0.0
H642 H 0.44303 0.97641 0.08161 0.0
H643 H 0.57489 0.04348 0.95886 0.0
H644 H 0.52937 0.9815 0.08625 0.0
H645 H 0.48971 0.03136 0.94388 0.0
C646 C 0.45114 0.0163 0.97163 0.0
C647 C 0.43731 1.00076 0.01018 0.0
C648 C 0.53935 0.99506 0.05823 0.0
C649 C 0.49418 1.00667 0.01544 0.0
C650 C 0.56763 0.99846 0.06131 0.0
C651 C 0.5811 0.0161 0.02586 0.0
C652 C 0.52438 1.00933 0.01931 0.0
C653 C 0.56543 0.02971 0.98717 0.0
C654 C 0.47948 0.01935 0.97417 0.0
C655 C 0.45274 0.98864 0.05103 0.0
N656 N 0.53797 0.02606 0.98497 0.0
N657 N 0.48028 0.9918 0.05251 0.0
H658 H 0.54502 0.44607 0.05366 0.0
H659 H 0.48344 0.58248 0.92378 0.0
H660 H 0.48822 0.4464 0.92341 0.0
H661 H 0.52844 0.58169 0.07058 0.0
H662 H 0.48717 0.53293 0.9205 0.0
H663 H 0.54084 0.49565 0.05854 0.0
C664 C 0.53155 0.45653 0.02618 0.0
C665 C 0.51695 0.44194 0.98799 0.0
C666 C 0.49627 0.54354 0.95344 0.0
C667 C 0.51228 0.49898 0.99316 0.0
C668 C 0.49427 0.57193 0.95527 0.0
C669 C 0.50568 0.58641 0.99755 0.0
C670 C 0.50993 0.5293 0.994 0.0
C671 C 0.51936 0.57145 0.0372 0.0
C672 C 0.5292 0.4849 0.02904 0.0
C673 C 0.49981 0.45671 0.95356 0.0
N674 N 0.52113 0.54375 0.03442 0.0
N675 N 0.49808 0.48438 0.95679 0.0
H676 H 0.95856 0.50409 0.17097 0.0
H677 H 0.07989 0.52163 0.95947 0.0
H678 H 0.94412 0.52377 1.00612 0.0
H679 H 0.09144 0.52271 0.12927 0.0
H680 H 0.03039 0.51923 0.97423 0.0
H681 H 1.00753 0.50825 0.15515 0.0
C682 C 0.96568 0.50945 0.13144 0.0
C683 C 0.94715 0.51358 0.08981 0.0
C684 C 0.0438 0.52 1.00818 0.0
C685 C 1.00346 0.51804 0.0712 0.0
C686 C 0.07206 0.52119 0.99982 0.0
C687 C 0.08989 0.52232 0.04321 0.0
C688 C 0.0333 0.51964 0.06031 0.0
C689 C 0.07853 0.5219 0.09459 0.0
C690 C 0.99369 0.51182 0.12243 0.0
C691 C 0.95764 0.52052 0.03943 0.0
N692 N 0.05105 0.5205 0.10167 0.0
N693 N 0.98512 0.52233 0.03142 0.0
H694 H 0.96187 0.0638 0.04114 0.0
H695 H 0.06015 0.93761 0.97087 0.0
H696 H 0.03783 0.07183 0.95479 0.0
H697 H 0.98535 0.92946 0.06103 0.0
H698 H 0.05183 0.98653 0.96348 0.0
H699 H 0.96988 0.01475 0.04828 0.0
C700 C 0.98031 0.05529 0.02375 0.0
C701 C 0.99921 0.07209 0.99727 0.0
C702 C 0.03718 0.9741 0.98483 0.0
C703 C 1.00846 0.01561 1.00522 0.0
C704 C 0.04187 0.94606 0.98902 0.0
C705 C 0.02342 0.92926 0.0167 0.0
C706 C 0.01381 0.98567 1.00844 0.0
C707 C 1.00013 0.94155 0.0393 0.0
C708 C 0.98484 0.0272 0.02783 0.0
C709 C 0.0227 0.05976 0.9756 0.0
N710 N 0.99603 0.96898 0.03473 0.0
N711 N 0.02662 0.03231 0.97999 0.0
H712 H 0.08123 0.01796 0.53453 0.0
H713 H 0.93118 0.0321 0.4121 0.0
H714 H 0.06491 0.0186 0.36626 0.0
H715 H 0.94558 0.0128 0.57714 0.0
H716 H 0.98035 0.03081 0.39572 0.0
H717 H 0.03197 0.02031 0.5521 0.0
C718 C 0.06734 0.01886 0.50126 0.0
C719 C 0.07729 0.01806 0.44878 0.0
C720 C 0.9728 0.02677 0.43551 0.0
C721 C 0.02084 0.02063 0.4687 0.0
C722 C 0.94467 0.02749 0.44493 0.0
C723 C 0.93414 0.02249 0.49609 0.0
C724 C 0.99074 0.02127 0.47761 0.0
C725 C 0.95272 0.01664 0.53701 0.0
C726 C 0.0392 0.02002 0.51136 0.0
C727 C 0.05824 0.01911 0.40734 0.0
N728 N 0.9801 0.01633 0.52695 0.0
N729 N 0.03102 0.02035 0.41817 0.0
H730 H 0.53462 0.94646 0.5674 0.0
H731 H 0.49142 0.08919 0.43298 0.0
H732 H 0.48034 0.95346 0.43357 0.0
H733 H 0.55467 0.08103 0.55065 0.0
H734 H 0.48463 0.03982 0.43714 0.0
H735 H 0.54023 0.99602 0.56566 0.0
C736 C 0.52394 0.95837 0.53757 0.0
C737 C 0.50704 0.94569 0.5005 0.0
C738 C 0.49995 0.04885 0.46214 0.0
C739 C 0.5132 1.00253 0.49854 0.0
C740 C 0.50376 0.07708 0.45994 0.0
C741 C 0.52371 0.08933 0.49139 0.0
C742 C 0.51611 0.03272 0.49623 0.0
C743 C 0.53912 0.07252 0.52551 0.0
C744 C 0.52713 0.98669 0.53662 0.0
C745 C 0.49366 0.96226 0.46285 0.0
N746 N 0.53502 0.04514 0.52697 0.0
N747 N 0.49698 0.98975 0.46293 0.0
H748 H 0.58181 0.50152 0.43877 0.0
H749 H 0.44239 0.53811 0.591 0.0
H750 H 0.57867 0.53064 0.60012 0.0
H751 H 0.44528 0.49851 0.43852 0.0
H752 H 0.49215 0.53631 0.59437 0.0
H753 H 0.532 0.50181 0.43679 0.0
C754 C 0.57069 0.50814 0.47377 0.0
C755 C 0.58458 0.51613 0.51971 0.0
C756 C 0.48195 0.52787 0.56027 0.0
C757 C 0.52725 0.51634 0.51768 0.0
C758 C 0.45347 0.52885 0.5583 0.0
C759 C 0.43954 0.51847 0.51433 0.0
C760 C 0.49681 0.51662 0.51776 0.0
C761 C 0.45509 0.50669 0.47327 0.0
C762 C 0.54217 0.50816 0.47263 0.0
C763 C 0.56892 0.52437 0.5638 0.0
N764 N 0.48287 0.50625 0.47584 0.0
N765 N 0.54114 0.52428 0.56166 0.0
H766 H 0.01256 0.56839 0.59813 0.0
H767 H 0.03088 0.4335 0.42203 0.0
H768 H 0.03958 0.56935 0.43453 0.0
H769 H 1.00743 0.4325 0.58766 0.0
H770 H 0.03443 0.48321 0.42579 0.0
H771 H 1.01018 0.51862 0.59479 0.0
C772 C 0.01788 0.55818 0.56144 0.0
C773 C 0.02625 0.57317 0.51654 0.0
C774 C 0.02861 0.4721 0.46137 0.0
C775 C 0.0237 0.51604 0.51248 0.0
C776 C 0.02666 0.44367 0.45927 0.0
C777 C 0.01883 0.4287 0.50457 0.0
C778 C 0.02262 0.48574 0.50907 0.0
C779 C 0.01353 0.4431 0.55169 0.0
C780 C 0.01661 0.52972 0.55959 0.0
C781 C 0.033 0.55872 0.47016 0.0
N782 N 0.01544 0.47073 0.55264 0.0
N783 N 0.03158 0.53104 0.46935 0.0
loop_
_geom_bond_atom_site_label_1
_geom_bond_atom_site_label_2
_geom_bond_distance
_geom_bond_site_symmetry_2
_ccdc_geom_bond_type
Mg0 O7 2.141 . S
Mg0 O8 2.048 . S
Mg0 O9 2.048 . S
Mg0 O12 2.141 . S
C1 O2 1.329 . S
C1 O8 1.184 1_565 S
O2 C1 1.329 . S
C3 O4 1.245 . S
C3 O12 1.289 1_565 S
O4 C3 1.245 . S
C5 O6 1.245 . S
C5 O7 1.289 1_565 S
O6 C5 1.245 . S
O7 Mg0 2.141 . S
O7 C5 1.289 1_545 S
O8 Mg0 2.048 . S
O8 C1 1.184 1_545 S
O9 Mg0 2.048 . S
O9 C10 1.195 . S
C10 O9 1.195 . S
C10 O11 1.313 1_545 S
O11 C10 1.313 1_565 S
O12 Mg0 2.141 . S
O12 C3 1.289 1_545 S
Mg13 O20 2.141 . S
Mg13 O21 2.048 . S
Mg13 O22 2.048 . S
Mg13 O25 2.141 . S
C14 O15 1.313 . S
C14 O21 1.195 . S
O15 C14 1.313 . S
C16 O17 1.245 . S
C16 O25 1.289 . S
O17 C16 1.245 . S
C18 O19 1.245 . S
C18 O20 1.289 . S
O19 C18 1.245 . S
O20 Mg13 2.141 . S
O20 C18 1.289 . S
O21 Mg13 2.048 . S
O21 C14 1.195 . S
O22 Mg13 2.048 . S
O22 C23 1.195 . S
C23 O22 1.195 . S
C23 O24 1.313 . S
O24 C23 1.313 . S
O25 Mg13 2.141 . S
O25 C16 1.289 . S
Mg26 O33 2.141 . S
Mg26 O34 2.048 . S
Mg26 O35 2.048 . S
Mg26 O38 2.141 . S
C27 O28 1.313 . S
C27 O34 1.195 . S
O28 C27 1.313 . S
C29 O30 1.245 . S
C29 O38 1.289 . S
O30 C29 1.245 . S
C31 O32 1.245 . S
C31 O33 1.289 . S
O32 C31 1.245 . S
O33 Mg26 2.141 . S
O33 C31 1.289 . S
O34 Mg26 2.048 . S
O34 C27 1.195 . S
O35 Mg26 2.048 . S
O35 C36 1.195 . S
C36 O35 1.195 . S
C36 O37 1.313 . S
O37 C36 1.313 . S
O38 Mg26 2.141 . S
O38 C29 1.289 . S
Mg39 O46 2.141 . S
Mg39 O47 2.048 . S
Mg39 O48 2.048 . S
Mg39 O51 2.141 . S
C40 O41 1.313 . S
C40 O47 1.195 1_455 S
O41 C40 1.313 . S
C42 O43 1.245 1_655 S
C42 O51 1.289 . S
O43 C42 1.245 1_455 S
C44 O45 1.245 . S
C44 O46 1.289 1_455 S
O45 C44 1.245 . S
O46 Mg39 2.141 . S
O46 C44 1.289 1_655 S
O47 Mg39 2.048 . S
O47 C40 1.195 1_655 S
O48 Mg39 2.048 . S
O48 C49 1.195 1_655 S
C49 O48 1.195 1_455 S
C49 O50 1.313 . S
O50 C49 1.313 . S
O51 Mg39 2.141 . S
O51 C42 1.289 . S
Mg52 O59 2.141 . S
Mg52 O60 2.048 . S
Mg52 O61 2.048 . S
Mg52 O64 2.141 . S
C53 O54 1.338 . S
C53 O60 1.177 1_545 S
O54 C53 1.338 . S
C55 O56 1.245 . S
C55 O64 1.289 1_545 S
O56 C55 1.245 . S
C57 O58 1.245 . S
C57 O59 1.289 1_545 S
O58 C57 1.245 . S
O59 Mg52 2.141 . S
O59 C57 1.289 1_565 S
O60 Mg52 2.048 . S
O60 C53 1.177 1_565 S
O61 Mg52 2.048 . S
O61 C62 1.195 . S
C62 O61 1.195 . S
C62 O63 1.313 1_565 S
O63 C62 1.313 1_545 S
O64 Mg52 2.141 . S
O64 C55 1.289 1_565 S
Mg65 O72 2.141 . S
Mg65 O73 2.048 . S
Mg65 O74 2.048 . S
Mg65 O77 2.141 . S
C66 O67 1.313 . S
C66 O73 1.195 . S
O67 C66 1.313 . S
C68 O69 1.245 . S
C68 O77 1.289 . S
O69 C68 1.245 . S
C70 O71 1.245 . S
C70 O72 1.289 . S
O71 C70 1.245 . S
O72 Mg65 2.141 . S
O72 C70 1.289 . S
O73 Mg65 2.048 . S
O73 C66 1.195 . S
O74 Mg65 2.048 . S
O74 C75 1.195 . S
C75 O74 1.195 . S
C75 O76 1.313 . S
O76 C75 1.313 . S
O77 Mg65 2.141 . S
O77 C68 1.289 . S
Mg78 O85 2.141 . S
Mg78 O86 2.048 . S
Mg78 O87 2.048 . S
Mg78 O90 2.141 . S
C79 O80 1.313 . S
C79 O86 1.195 . S
O80 C79 1.313 . S
C81 O82 1.245 . S
C81 O90 1.289 . S
O82 C81 1.245 . S
C83 O84 1.245 . S
C83 O85 1.289 . S
O84 C83 1.245 . S
O85 Mg78 2.141 . S
O85 C83 1.289 . S
O86 Mg78 2.048 . S
O86 C79 1.195 . S
O87 Mg78 2.048 . S
O87 C88 1.195 . S
C88 O87 1.195 . S
C88 O89 1.313 . S
O89 C88 1.313 . S
O90 Mg78 2.141 . S
O90 C81 1.289 . S
Mg91 O98 2.141 . S
Mg91 O99 2.048 . S
Mg91 O100 2.048 . S
Mg91 O103 2.141 . S
C92 O93 1.313 . S
C92 O99 1.195 1_655 S
O93 C92 1.313 . S
C94 O95 1.245 1_455 S
C94 O103 1.289 . S
O95 C94 1.245 1_655 S
C96 O97 1.245 . S
C96 O98 1.289 1_655 S
O97 C96 1.245 . S
O98 Mg91 2.141 . S
O98 C96 1.289 1_455 S
O99 Mg91 2.048 . S
O99 C92 1.195 1_455 S
O100 Mg91 2.048 . S
O100 C101 1.195 1_455 S
C101 O100 1.195 1_655 S
C101 O102 1.313 . S
O102 C101 1.313 . S
O103 Mg91 2.141 . S
O103 C94 1.289 . S
Mg104 O111 2.141 . S
Mg104 O112 2.048 . S
Mg104 O113 2.048 . S
Mg104 O116 2.141 . S
C105 O106 1.313 . S
C105 O112 1.195 1_565 S
O106 C105 1.313 . S
C107 O108 1.245 . S
C107 O116 1.289 1_565 S
O108 C107 1.245 . S
C109 O110 1.245 1_545 S
C109 O111 1.289 . S
O110 C109 1.245 1_565 S
O111 Mg104 2.141 . S
O111 C109 1.289 . S
O112 Mg104 2.048 . S
O112 C105 1.195 1_545 S
O113 Mg104 2.048 . S
O113 C114 1.195 1_545 S
C114 O113 1.195 1_565 S
C114 O115 1.313 . S
O115 C114 1.313 . S
O116 Mg104 2.141 . S
O116 C107 1.289 1_545 S
Mg117 O124 2.141 . S
Mg117 O125 2.048 . S
Mg117 O126 2.048 . S
Mg117 O129 2.141 . S
C118 O119 1.313 . S
C118 O125 1.195 . S
O119 C118 1.313 . S
C120 O121 1.245 . S
C120 O129 1.289 . S
O121 C120 1.245 . S
C122 O123 1.245 . S
C122 O124 1.289 . S
O123 C122 1.245 . S
O124 Mg117 2.141 . S
O124 C122 1.289 . S
O125 Mg117 2.048 . S
O125 C118 1.195 . S
O126 Mg117 2.048 . S
O126 C127 1.195 . S
C127 O126 1.195 . S
C127 O128 1.313 . S
O128 C127 1.313 . S
O129 Mg117 2.141 . S
O129 C120 1.289 . S
Mg130 O137 2.141 . S
Mg130 O138 2.048 . S
Mg130 O139 2.048 . S
Mg130 O142 2.141 . S
C131 O132 1.313 . S
C131 O138 1.195 . S
O132 C131 1.313 . S
C133 O134 1.245 . S
C133 O142 1.289 . S
O134 C133 1.245 . S
C135 O136 1.245 . S
C135 O137 1.289 . S
O136 C135 1.245 . S
O137 Mg130 2.141 . S
O137 C135 1.289 . S
O138 Mg130 2.048 . S
O138 C131 1.195 . S
O139 Mg130 2.048 . S
O139 C140 1.195 . S
C140 O139 1.195 . S
C140 O141 1.313 . S
O141 C140 1.313 . S
O142 Mg130 2.141 . S
O142 C133 1.289 . S
Mg143 O150 2.141 . S
Mg143 O151 2.048 . S
Mg143 O152 2.048 . S
Mg143 O155 2.141 . S
C144 O145 1.313 . S
C144 O151 1.195 1_655 S
O145 C144 1.313 . S
C146 O147 1.245 . S
C146 O155 1.289 1_655 S
O147 C146 1.245 . S
C148 O149 1.245 1_455 S
C148 O150 1.289 . S
O149 C148 1.245 1_655 S
O150 Mg143 2.141 . S
O150 C148 1.289 . S
O151 Mg143 2.048 . S
O151 C144 1.195 1_455 S
O152 Mg143 2.048 . S
O152 C153 1.195 1_455 S
C153 O152 1.195 1_655 S
C153 O154 1.313 . S
O154 C153 1.313 . S
O155 Mg143 2.141 . S
O155 C146 1.289 1_455 S
Mg156 O163 2.141 . S
Mg156 O164 2.048 . S
Mg156 O165 2.048 . S
Mg156 O168 2.141 . S
C157 O158 1.313 . S
C157 O164 1.195 1_545 S
O158 C157 1.313 . S
C159 O160 1.245 . S
C159 O168 1.289 1_545 S
O160 C159 1.245 . S
C161 O162 1.245 1_565 S
C161 O163 1.289 . S
O162 C161 1.245 1_545 S
O163 Mg156 2.141 . S
O163 C161 1.289 . S
O164 Mg156 2.048 . S
O164 C157 1.195 1_565 S
O165 Mg156 2.048 . S
O165 C166 1.195 1_565 S
C166 O165 1.195 1_545 S
C166 O167 1.313 . S
O167 C166 1.313 . S
O168 Mg156 2.141 . S
O168 C159 1.289 1_565 S
Mg169 O176 2.141 . S
Mg169 O177 2.048 . S
Mg169 O178 2.048 . S
Mg169 O181 2.141 . S
C170 O171 1.313 . S
C170 O177 1.195 . S
O171 C170 1.313 . S
C172 O173 1.245 . S
C172 O181 1.289 . S
O173 C172 1.245 . S
C174 O175 1.245 . S
C174 O176 1.289 . S
O175 C174 1.245 . S
O176 Mg169 2.141 . S
O176 C174 1.289 . S
O177 Mg169 2.048 . S
O177 C170 1.195 . S
O178 Mg169 2.048 . S
O178 C179 1.195 . S
C179 O178 1.195 . S
C179 O180 1.313 . S
O180 C179 1.313 . S
O181 Mg169 2.141 . S
O181 C172 1.289 . S
Mg182 O189 2.141 . S
Mg182 O190 2.048 . S
Mg182 O191 2.048 . S
Mg182 O194 2.141 . S
C183 O184 1.313 . S
C183 O190 1.195 . S
O184 C183 1.313 . S
C185 O186 1.245 . S
C185 O194 1.289 . S
O186 C185 1.245 . S
C187 O188 1.245 . S
C187 O189 1.289 . S
O188 C187 1.245 . S
O189 Mg182 2.141 . S
O189 C187 1.289 . S
O190 Mg182 2.048 . S
O190 C183 1.195 . S
O191 Mg182 2.048 . S
O191 C192 1.195 . S
C192 O191 1.195 . S
C192 O193 1.313 . S
O193 C192 1.313 . S
O194 Mg182 2.141 . S
O194 C185 1.289 . S
Mg195 O202 2.141 . S
Mg195 O203 2.048 . S
Mg195 O204 2.048 . S
Mg195 O207 2.141 . S
C196 O197 1.313 . S
C196 O203 1.195 1_455 S
O197 C196 1.313 . S
C198 O199 1.245 . S
C198 O207 1.289 1_455 S
O199 C198 1.245 . S
C200 O201 1.245 1_655 S
C200 O202 1.289 . S
O201 C200 1.245 1_455 S
O202 Mg195 2.141 . S
O202 C200 1.289 . S
O203 Mg195 2.048 . S
O203 C196 1.195 1_655 S
O204 Mg195 2.048 . S
O204 C205 1.195 1_655 S
C205 O204 1.195 1_455 S
C205 O206 1.313 . S
O206 C205 1.313 . S
O207 Mg195 2.141 . S
O207 C198 1.289 1_655 S
H208 C214 0.930 . S
H209 C218 0.930 . S
H210 C223 0.929 . S
H211 C221 0.929 . S
H212 C216 0.929 . S
H213 C222 0.929 . S
C214 H208 0.930 . S
C214 C215 1.367 . S
C214 C222 1.378 . S
C215 C214 1.367 . S
C215 C223 1.433 . S
C216 H212 0.929 . S
C216 C218 1.378 . S
C216 C220 1.350 . S
C217 C220 1.463 . S
C217 C222 1.350 . S
C217 N225 1.427 . S
C218 H209 0.930 . S
C218 C216 1.378 . S
C218 C219 1.367 . S
C219 C218 1.367 . S
C219 C221 1.433 . S
C220 C216 1.350 . S
C220 C217 1.463 . S
C220 N224 1.427 . S
C221 H211 0.929 . S
C221 C219 1.433 . S
C221 N224 1.384 . S
C222 H213 0.929 . S
C222 C214 1.378 . S
C222 C217 1.350 . S
C223 H210 0.929 . S
C223 C215 1.433 . S
C223 N225 1.384 . S
N224 C220 1.427 . S
N224 C221 1.384 . S
N225 C217 1.427 . S
N225 C223 1.384 . S
H226 C232 0.930 . S
H227 C236 0.930 . S
H228 C241 0.929 . S
H229 C239 0.929 . S
H230 C234 0.929 . S
H231 C240 0.929 . S
C232 H226 0.930 . S
C232 C233 1.367 . S
C232 C240 1.378 . S
C233 C232 1.367 . S
C233 C241 1.433 . S
C234 H230 0.929 . S
C234 C236 1.378 . S
C234 C238 1.350 . S
C235 C238 1.463 . S
C235 C240 1.350 . S
C235 N243 1.427 . S
C236 H227 0.930 . S
C236 C234 1.378 . S
C236 C237 1.367 . S
C237 C236 1.367 . S
C237 C239 1.433 . S
C238 C234 1.350 . S
C238 C235 1.463 . S
C238 N242 1.427 . S
C239 H229 0.929 . S
C239 C237 1.433 . S
C239 N242 1.384 . S
C240 H231 0.929 . S
C240 C232 1.378 . S
C240 C235 1.350 . S
C241 H228 0.929 . S
C241 C233 1.433 . S
C241 N243 1.384 . S
N242 C238 1.427 . S
N242 C239 1.384 . S
N243 C235 1.427 . S
N243 C241 1.384 . S
H244 C250 0.930 . S
H245 C254 0.930 . S
H246 C259 0.929 . S
H247 C257 0.929 . S
H248 C252 0.929 . S
H249 C258 0.929 . S
C250 H244 0.930 . S
C250 C251 1.367 . S
C250 C258 1.378 . S
C251 C250 1.367 . S
C251 C259 1.433 . S
C252 H248 0.929 . S
C252 C254 1.378 . S
C252 C256 1.350 . S
C253 C256 1.463 . S
C253 C258 1.350 . S
C253 N261 1.427 . S
C254 H245 0.930 . S
C254 C252 1.378 . S
C254 C255 1.367 . S
C255 C254 1.367 . S
C255 C257 1.433 . S
C256 C252 1.350 . S
C256 C253 1.463 . S
C256 N260 1.427 . S
C257 H247 0.929 . S
C257 C255 1.433 . S
C257 N260 1.384 . S
C258 H249 0.929 . S
C258 C250 1.378 . S
C258 C253 1.350 . S
C259 H246 0.929 . S
C259 C251 1.433 . S
C259 N261 1.384 . S
N260 C256 1.427 . S
N260 C257 1.384 . S
N261 C253 1.427 . S
N261 C259 1.384 . S
H262 C268 0.930 1_655 S
H263 C272 0.930 . S
H264 C277 0.929 . S
H265 C275 0.963 . S
H266 C270 0.929 . S
H267 C276 0.929 . S
C268 H262 0.930 1_455 S
C268 C269 1.367 . S
C268 C276 1.378 . S
C269 C268 1.367 . S
C269 C277 1.433 . S
C270 H266 0.929 . S
C270 C272 1.378 . S
C270 C274 1.350 . S
C271 C274 1.463 . S
C271 C276 1.350 . S
C271 N279 1.427 . S
C272 H263 0.930 . S
C272 C270 1.378 . S
C272 C273 1.367 . S
C273 C272 1.367 . S
C273 C275 1.433 . S
C274 C270 1.350 . S
C274 C271 1.463 . S
C274 N278 1.427 . S
C275 H265 0.963 . S
C275 C273 1.433 . S
C275 N278 1.384 . S
C276 H267 0.929 . S
C276 C268 1.378 . S
C276 C271 1.350 . S
C277 H264 0.929 . S
C277 C269 1.433 . S
C277 N279 1.384 . S
N278 C274 1.427 . S
N278 C275 1.384 . S
N279 C271 1.427 . S
N279 C277 1.384 . S
H280 C286 0.912 1_545 S
H281 C290 0.930 . S
H282 C295 0.929 . S
H283 C293 0.929 . S
H284 C288 0.929 . S
H285 C294 0.929 . S
C286 H280 0.912 1_565 S
C286 C287 1.367 . S
C286 C294 1.378 . S
C287 C286 1.367 . S
C287 C295 1.433 . S
C288 H284 0.929 . S
C288 C290 1.378 . S
C288 C292 1.350 . S
C289 C292 1.463 . S
C289 C294 1.350 . S
C289 N297 1.427 . S
C290 H281 0.930 . S
C290 C288 1.378 . S
C290 C291 1.367 . S
C291 C290 1.367 . S
C291 C293 1.433 . S
C292 C288 1.350 . S
C292 C289 1.463 . S
C292 N296 1.427 . S
C293 H283 0.929 . S
C293 C291 1.433 . S
C293 N296 1.384 . S
C294 H285 0.929 . S
C294 C286 1.378 . S
C294 C289 1.350 . S
C295 H282 0.929 . S
C295 C287 1.433 . S
C295 N297 1.384 . S
N296 C292 1.427 . S
N296 C293 1.384 . S
N297 C289 1.427 . S
N297 C295 1.384 . S
H298 C304 0.930 . S
H299 C308 0.930 . S
H300 C313 0.929 . S
H301 C311 0.929 . S
H302 C306 0.929 . S
H303 C312 0.929 . S
C304 H298 0.930 . S
C304 C305 1.367 . S
C304 C312 1.378 . S
C305 C304 1.367 . S
C305 C313 1.433 . S
C306 H302 0.929 . S
C306 C308 1.378 . S
C306 C310 1.350 . S
C307 C310 1.463 . S
C307 C312 1.350 . S
C307 N315 1.427 . S
C308 H299 0.930 . S
C308 C306 1.378 . S
C308 C309 1.367 . S
C309 C308 1.367 . S
C309 C311 1.433 . S
C310 C306 1.350 . S
C310 C307 1.463 . S
C310 N314 1.427 . S
C311 H301 0.929 . S
C311 C309 1.433 . S
C311 N314 1.384 . S
C312 H303 0.929 . S
C312 C304 1.378 . S
C312 C307 1.350 . S
C313 H300 0.929 . S
C313 C305 1.433 . S
C313 N315 1.384 . S
N314 C310 1.427 . S
N314 C311 1.384 . S
N315 C307 1.427 . S
N315 C313 1.384 . S
H316 C322 0.930 . S
H317 C326 0.930 . S
H318 C331 0.929 1_655 S
H319 C329 0.929 . S
H320 C324 0.929 . S
H321 C330 0.929 . S
C322 H316 0.930 . S
C322 C323 1.367 . S
C322 C330 1.378 . S
C323 C322 1.367 . S
C323 C331 1.433 . S
C324 H320 0.929 . S
C324 C326 1.378 . S
C324 C328 1.350 . S
C325 C328 1.463 . S
C325 C330 1.350 . S
C325 N333 1.427 . S
C326 H317 0.930 . S
C326 C324 1.378 . S
C326 C327 1.367 . S
C327 C326 1.367 . S
C327 C329 1.433 . S
C328 C324 1.350 . S
C328 C325 1.463 . S
C328 N332 1.427 . S
C329 H319 0.929 . S
C329 C327 1.433 . S
C329 N332 1.384 . S
C330 H321 0.929 . S
C330 C322 1.378 . S
C330 C325 1.350 . S
C331 H318 0.929 1_455 S
C331 C323 1.433 . S
C331 N333 1.384 . S
N332 C328 1.427 . S
N332 C329 1.384 . S
N333 C325 1.427 . S
N333 C331 1.384 . S
H334 C340 0.930 . S
H335 C344 0.930 . S
H336 C349 0.929 . S
H337 C347 0.929 1_565 S
H338 C342 0.929 . S
H339 C348 0.929 . S
C340 H334 0.930 . S
C340 C341 1.367 . S
C340 C348 1.378 . S
C341 C340 1.367 . S
C341 C349 1.433 . S
C342 H338 0.929 . S
C342 C344 1.378 . S
C342 C346 1.350 . S
C343 C346 1.463 . S
C343 C348 1.350 . S
C343 N351 1.427 . S
C344 H335 0.930 . S
C344 C342 1.378 . S
C344 C345 1.367 . S
C345 C344 1.367 . S
C345 C347 1.433 . S
C346 C342 1.350 . S
C346 C343 1.463 . S
C346 N350 1.427 . S
C347 H337 0.929 1_545 S
C347 C345 1.433 . S
C347 N350 1.384 . S
C348 H339 0.929 . S
C348 C340 1.378 . S
C348 C343 1.350 . S
C349 H336 0.929 . S
C349 C341 1.433 . S
C349 N351 1.384 . S
N350 C346 1.427 . S
N350 C347 1.384 . S
N351 C343 1.427 . S
N351 C349 1.384 . S
H352 C358 0.930 . S
H353 C362 0.930 . S
H354 C367 0.929 . S
H355 C365 0.929 . S
H356 C360 0.929 . S
H357 C366 0.929 . S
C358 H352 0.930 . S
C358 C359 1.367 . S
C358 C366 1.378 . S
C359 C358 1.367 . S
C359 C367 1.433 1_565 S
C360 H356 0.929 . S
C360 C362 1.378 . S
C360 C364 1.350 1_545 S
C361 C364 1.463 . S
C361 C366 1.350 . S
C361 N369 1.427 1_565 S
C362 H353 0.930 . S
C362 C360 1.378 . S
C362 C363 1.339 1_545 S
C363 C362 1.339 1_565 S
C363 C365 1.465 . S
C364 C360 1.350 1_565 S
C364 C361 1.463 . S
C364 N368 1.427 . S
C365 H355 0.929 . S
C365 C363 1.465 . S
C365 N368 1.384 . S
C366 H357 0.929 . S
C366 C358 1.378 . S
C366 C361 1.350 . S
C367 H354 0.929 . S
C367 C359 1.433 1_545 S
C367 N369 1.384 . S
N368 C364 1.427 . S
N368 C365 1.384 . S
N369 C361 1.427 1_545 S
N369 C367 1.384 . S
H370 C376 0.930 . S
H371 C380 0.930 . S
H372 C385 0.929 . S
H373 C383 0.929 . S
H374 C378 0.929 . S
H375 C384 0.929 . S
C376 H370 0.930 . S
C376 C377 1.367 . S
C376 C384 1.378 . S
C377 C376 1.367 . S
C377 C385 1.433 . S
C378 H374 0.929 . S
C378 C380 1.378 . S
C378 C382 1.350 . S
C379 C382 1.463 . S
C379 C384 1.350 . S
C379 N387 1.427 . S
C380 H371 0.930 . S
C380 C378 1.378 . S
C380 C381 1.367 . S
C381 C380 1.367 . S
C381 C383 1.433 . S
C382 C378 1.350 . S
C382 C379 1.463 . S
C382 N386 1.427 . S
C383 H373 0.929 . S
C383 C381 1.433 . S
C383 N386 1.384 . S
C384 H375 0.929 . S
C384 C376 1.378 . S
C384 C379 1.350 . S
C385 H372 0.929 . S
C385 C377 1.433 . S
C385 N387 1.384 . S
N386 C382 1.427 . S
N386 C383 1.384 . S
N387 C379 1.427 . S
N387 C385 1.384 . S
H388 C394 0.930 . S
H389 C398 0.930 . S
H390 C403 0.929 . S
H391 C401 0.929 . S
H392 C396 0.929 . S
H393 C402 0.929 . S
C394 H388 0.930 . S
C394 C395 1.367 . S
C394 C402 1.378 . S
C395 C394 1.367 . S
C395 C403 1.433 . S
C396 H392 0.929 . S
C396 C398 1.378 . S
C396 C400 1.350 . S
C397 C400 1.463 . S
C397 C402 1.350 . S
C397 N405 1.427 . S
C398 H389 0.930 . S
C398 C396 1.378 . S
C398 C399 1.367 . S
C399 C398 1.367 . S
C399 C401 1.433 . S
C400 C396 1.350 . S
C400 C397 1.463 . S
C400 N404 1.427 . S
C401 H391 0.929 . S
C401 C399 1.433 . S
C401 N404 1.384 . S
C402 H393 0.929 . S
C402 C394 1.378 . S
C402 C397 1.350 . S
C403 H390 0.929 . S
C403 C395 1.433 . S
C403 N405 1.384 . S
N404 C400 1.427 . S
N404 C401 1.384 . S
N405 C397 1.427 . S
N405 C403 1.384 . S
H406 C412 0.930 . S
H407 C416 0.930 . S
H408 C421 0.929 . S
H409 C419 0.929 . S
H410 C414 0.929 . S
H411 C420 0.929 . S
C412 H406 0.930 . S
C412 C413 1.367 1_455 S
C412 C420 1.378 . S
C413 C412 1.367 1_655 S
C413 C421 1.433 . S
C414 H410 0.929 . S
C414 C416 1.378 . S
C414 C418 1.350 . S
C415 C418 1.463 . S
C415 C420 1.350 1_655 S
C415 N423 1.427 . S
C416 H407 0.930 . S
C416 C414 1.378 . S
C416 C417 1.367 . S
C417 C416 1.367 . S
C417 C419 1.433 1_655 S
C418 C414 1.350 . S
C418 C415 1.463 . S
C418 N422 1.427 1_655 S
C419 H409 0.929 . S
C419 C417 1.433 1_455 S
C419 N422 1.384 . S
C420 H411 0.929 . S
C420 C412 1.378 . S
C420 C415 1.350 1_455 S
C421 H408 0.929 . S
C421 C413 1.433 . S
C421 N423 1.384 . S
N422 C418 1.427 1_455 S
N422 C419 1.384 . S
N423 C415 1.427 . S
N423 C421 1.384 . S
H424 C430 0.930 . S
H425 C434 0.930 . S
H426 C439 0.929 . S
H427 C437 0.929 . S
H428 C432 0.929 . S
H429 C438 0.929 . S
C430 H424 0.930 . S
C430 C431 1.367 . S
C430 C438 1.378 . S
C431 C430 1.367 . S
C431 C439 1.433 1_545 S
C432 H428 0.929 . S
C432 C434 1.378 . S
C432 C436 1.350 1_565 S
C433 C436 1.463 . S
C433 C438 1.350 . S
C433 N441 1.427 1_545 S
C434 H425 0.930 . S
C434 C432 1.378 . S
C434 C435 1.343 1_565 S
C435 C434 1.343 1_545 S
C435 C437 1.461 . S
C436 C432 1.350 1_545 S
C436 C433 1.463 . S
C436 N440 1.427 . S
C437 H427 0.929 . S
C437 C435 1.461 . S
C437 N440 1.384 . S
C438 H429 0.929 . S
C438 C430 1.378 . S
C438 C433 1.350 . S
C439 H426 0.929 . S
C439 C431 1.433 1_565 S
C439 N441 1.384 . S
N440 C436 1.427 . S
N440 C437 1.384 . S
N441 C433 1.427 1_565 S
N441 C439 1.384 . S
H442 C448 0.930 . S
H443 C452 0.930 . S
H444 C457 0.929 . S
H445 C455 0.929 . S
H446 C450 0.929 . S
H447 C456 0.929 . S
C448 H442 0.930 . S
C448 C449 1.367 . S
C448 C456 1.378 . S
C449 C448 1.367 . S
C449 C457 1.433 . S
C450 H446 0.929 . S
C450 C452 1.378 . S
C450 C454 1.350 . S
C451 C454 1.463 . S
C451 C456 1.350 . S
C451 N459 1.427 . S
C452 H443 0.930 . S
C452 C450 1.378 . S
C452 C453 1.367 . S
C453 C452 1.367 . S
C453 C455 1.433 . S
C454 C450 1.350 . S
C454 C451 1.463 . S
C454 N458 1.427 . S
C455 H445 0.929 . S
C455 C453 1.433 . S
C455 N458 1.384 . S
C456 H447 0.929 . S
C456 C448 1.378 . S
C456 C451 1.350 . S
C457 H444 0.929 . S
C457 C449 1.433 . S
C457 N459 1.384 . S
N458 C454 1.427 . S
N458 C455 1.384 . S
N459 C451 1.427 . S
N459 C457 1.384 . S
H460 C466 0.930 . S
H461 C470 0.930 . S
H462 C475 0.929 . S
H463 C473 0.929 . S
H464 C468 0.929 . S
H465 C474 0.929 . S
C466 H460 0.930 . S
C466 C467 1.367 . S
C466 C474 1.378 . S
C467 C466 1.367 . S
C467 C475 1.433 . S
C468 H464 0.929 . S
C468 C470 1.378 . S
C468 C472 1.350 . S
C469 C472 1.463 . S
C469 C474 1.350 . S
C469 N477 1.427 . S
C470 H461 0.930 . S
C470 C468 1.378 . S
C470 C471 1.367 . S
C471 C470 1.367 . S
C471 C473 1.433 . S
C472 C468 1.350 . S
C472 C469 1.463 . S
C472 N476 1.427 . S
C473 H463 0.929 . S
C473 C471 1.433 . S
C473 N476 1.384 . S
C474 H465 0.929 . S
C474 C466 1.378 . S
C474 C469 1.350 . S
C475 H462 0.929 . S
C475 C467 1.433 . S
C475 N477 1.384 . S
N476 C472 1.427 . S
N476 C473 1.384 . S
N477 C469 1.427 . S
N477 C475 1.384 . S
H478 C484 0.934 . S
H479 C488 0.930 . S
H480 C493 0.929 . S
H481 C491 0.929 . S
H482 C486 0.929 . S
H483 C492 0.929 . S
C484 H478 0.934 . S
C484 C485 1.363 1_655 S
C484 C492 1.379 . S
C485 C484 1.363 1_455 S
C485 C493 1.433 . S
C486 H482 0.929 . S
C486 C488 1.378 . S
C486 C490 1.350 . S
C487 C490 1.463 . S
C487 C492 1.350 1_455 S
C487 N495 1.427 . S
C488 H479 0.930 . S
C488 C486 1.378 . S
C488 C489 1.367 . S
C489 C488 1.367 . S
C489 C491 1.433 1_455 S
C490 C486 1.350 . S
C490 C487 1.463 . S
C490 N494 1.427 1_455 S
C491 H481 0.929 . S
C491 C489 1.433 1_655 S
C491 N494 1.384 . S
C492 H483 0.929 . S
C492 C484 1.379 . S
C492 C487 1.350 1_655 S
C493 H480 0.929 . S
C493 C485 1.433 . S
C493 N495 1.384 . S
N494 C490 1.427 1_655 S
N494 C491 1.384 . S
N495 C487 1.427 . S
N495 C493 1.384 . S
H496 C502 0.930 . S
H497 C506 0.930 . S
H498 C511 0.929 . S
H499 C509 0.929 . S
H500 C504 0.929 . S
H501 C510 0.929 . S
C502 H496 0.930 . S
C502 C503 1.340 1_565 S
C502 C510 1.378 . S
C503 C502 1.340 1_545 S
C503 C511 1.465 . S
C504 H500 0.929 . S
C504 C506 1.378 . S
C504 C508 1.350 . S
C505 C508 1.463 . S
C505 C510 1.350 1_545 S
C505 N513 1.427 . S
C506 H497 0.930 . S
C506 C504 1.378 . S
C506 C507 1.367 . S
C507 C506 1.367 . S
C507 C509 1.433 1_545 S
C508 C504 1.350 . S
C508 C505 1.463 . S
C508 N512 1.427 1_545 S
C509 H499 0.929 . S
C509 C507 1.433 1_565 S
C509 N512 1.384 . S
C510 H501 0.929 . S
C510 C502 1.378 . S
C510 C505 1.350 1_565 S
C511 H498 0.929 . S
C511 C503 1.465 . S
C511 N513 1.384 . S
N512 C508 1.427 1_565 S
N512 C509 1.384 . S
N513 C505 1.427 . S
N513 C511 1.384 . S
H514 C520 0.930 . S
H515 C524 0.930 . S
H516 C529 0.929 . S
H517 C527 0.929 . S
H518 C522 0.929 . S
H519 C528 0.929 . S
C520 H514 0.930 . S
C520 C521 1.367 . S
C520 C528 1.378 . S
C521 C520 1.367 . S
C521 C529 1.433 . S
C522 H518 0.929 . S
C522 C524 1.378 . S
C522 C526 1.350 . S
C523 C526 1.463 . S
C523 C528 1.350 . S
C523 N531 1.427 . S
C524 H515 0.930 . S
C524 C522 1.378 . S
C524 C525 1.367 . S
C525 C524 1.367 . S
C525 C527 1.433 . S
C526 C522 1.350 . S
C526 C523 1.463 . S
C526 N530 1.427 . S
C527 H517 0.929 . S
C527 C525 1.433 . S
C527 N530 1.384 . S
C528 H519 0.929 . S
C528 C520 1.378 . S
C528 C523 1.350 . S
C529 H516 0.929 . S
C529 C521 1.433 . S
C529 N531 1.384 . S
N530 C526 1.427 . S
N530 C527 1.384 . S
N531 C523 1.427 . S
N531 C529 1.384 . S
H532 C538 0.930 . S
H533 C542 0.930 . S
H534 C547 0.929 . S
H535 C545 0.929 . S
H536 C540 0.929 . S
H537 C546 0.929 . S
C538 H532 0.930 . S
C538 C539 1.367 . S
C538 C546 1.378 . S
C539 C538 1.367 . S
C539 C547 1.433 . S
C540 H536 0.929 . S
C540 C542 1.378 . S
C540 C544 1.350 . S
C541 C544 1.463 . S
C541 C546 1.350 . S
C541 N549 1.427 . S
C542 H533 0.930 . S
C542 C540 1.378 . S
C542 C543 1.367 . S
C543 C542 1.367 . S
C543 C545 1.433 . S
C544 C540 1.350 . S
C544 C541 1.463 . S
C544 N548 1.427 . S
C545 H535 0.929 . S
C545 C543 1.433 . S
C545 N548 1.384 . S
C546 H537 0.929 . S
C546 C538 1.378 . S
C546 C541 1.350 . S
C547 H534 0.929 . S
C547 C539 1.433 . S
C547 N549 1.384 . S
N548 C544 1.427 . S
N548 C545 1.384 . S
N549 C541 1.427 . S
N549 C547 1.384 . S
H550 C556 0.930 . S
H551 C560 0.930 . S
H552 C565 0.929 . S
H553 C563 0.929 . S
H554 C558 0.929 . S
H555 C564 0.929 . S
C556 H550 0.930 . S
C556 C557 1.367 1_655 S
C556 C564 1.378 . S
C557 C556 1.367 1_455 S
C557 C565 1.433 . S
C558 H554 0.929 . S
C558 C560 1.378 . S
C558 C562 1.350 . S
C559 C562 1.463 . S
C559 C564 1.350 1_455 S
C559 N567 1.427 . S
C560 H551 0.930 . S
C560 C558 1.378 . S
C560 C561 1.367 . S
C561 C560 1.367 . S
C561 C563 1.433 1_455 S
C562 C558 1.350 . S
C562 C559 1.463 . S
C562 N566 1.427 1_455 S
C563 H553 0.929 . S
C563 C561 1.433 1_655 S
C563 N566 1.384 . S
C564 H555 0.929 . S
C564 C556 1.378 . S
C564 C559 1.350 1_655 S
C565 H552 0.929 . S
C565 C557 1.433 . S
C565 N567 1.384 . S
N566 C562 1.427 1_655 S
N566 C563 1.384 . S
N567 C559 1.427 . S
N567 C565 1.384 . S
H568 C574 0.930 . S
H569 C578 0.930 1_545 S
H570 C583 0.929 . S
H571 C581 0.929 . S
H572 C576 0.929 1_545 S
H573 C582 0.929 . S
C574 H568 0.930 . S
C574 C575 1.367 . S
C574 C582 1.378 . S
C575 C574 1.367 . S
C575 C583 1.433 1_565 S
C576 H572 0.929 1_565 S
C576 C578 1.378 . S
C576 C580 1.350 . S
C577 C580 1.463 . S
C577 C582 1.350 . S
C577 N585 1.427 1_565 S
C578 H569 0.930 1_565 S
C578 C576 1.378 . S
C578 C579 1.367 . S
C579 C578 1.367 . S
C579 C581 1.433 . S
C580 C576 1.350 . S
C580 C577 1.463 . S
C580 N584 1.427 . S
C581 H571 0.929 . S
C581 C579 1.433 . S
C581 N584 1.384 . S
C582 H573 0.929 . S
C582 C574 1.378 . S
C582 C577 1.350 . S
C583 H570 0.929 . S
C583 C575 1.433 1_545 S
C583 N585 1.384 . S
N584 C580 1.427 . S
N584 C581 1.384 . S
N585 C577 1.427 1_545 S
N585 C583 1.384 . S
H586 C592 0.930 . S
H587 C596 0.930 . S
H588 C601 0.929 . S
H589 C599 0.929 . S
H590 C594 0.929 . S
H591 C600 0.929 . S
C592 H586 0.930 . S
C592 C593 1.367 . S
C592 C600 1.378 . S
C593 C592 1.367 . S
C593 C601 1.433 . S
C594 H590 0.929 . S
C594 C596 1.378 . S
C594 C598 1.350 . S
C595 C598 1.463 . S
C595 C600 1.350 . S
C595 N603 1.427 . S
C596 H587 0.930 . S
C596 C594 1.378 . S
C596 C597 1.367 . S
C597 C596 1.367 . S
C597 C599 1.433 . S
C598 C594 1.350 . S
C598 C595 1.463 . S
C598 N602 1.427 . S
C599 H589 0.929 . S
C599 C597 1.433 . S
C599 N602 1.384 . S
C600 H591 0.929 . S
C600 C592 1.378 . S
C600 C595 1.350 . S
C601 H588 0.929 . S
C601 C593 1.433 . S
C601 N603 1.384 . S
N602 C598 1.427 . S
N602 C599 1.384 . S
N603 C595 1.427 . S
N603 C601 1.384 . S
H604 C610 0.930 . S
H605 C614 0.930 . S
H606 C619 0.929 . S
H607 C617 0.929 . S
H608 C612 0.929 . S
H609 C618 0.929 . S
C610 H604 0.930 . S
C610 C611 1.367 . S
C610 C618 1.378 . S
C611 C610 1.367 . S
C611 C619 1.433 . S
C612 H608 0.929 . S
C612 C614 1.378 . S
C612 C616 1.350 . S
C613 C616 1.463 . S
C613 C618 1.350 . S
C613 N621 1.427 . S
C614 H605 0.930 . S
C614 C612 1.378 . S
C614 C615 1.367 . S
C615 C614 1.367 . S
C615 C617 1.433 . S
C616 C612 1.350 . S
C616 C613 1.463 . S
C616 N620 1.427 . S
C617 H607 0.929 . S
C617 C615 1.433 . S
C617 N620 1.384 . S
C618 H609 0.929 . S
C618 C610 1.378 . S
C618 C613 1.350 . S
C619 H606 0.929 . S
C619 C611 1.433 . S
C619 N621 1.384 . S
N620 C616 1.427 . S
N620 C617 1.384 . S
N621 C613 1.427 . S
N621 C619 1.384 . S
H622 C628 0.930 . S
H623 C632 0.930 . S
H624 C637 0.929 . S
H625 C635 0.929 . S
H626 C630 0.929 1_455 S
H627 C636 0.929 . S
C628 H622 0.930 . S
C628 C629 1.367 . S
C628 C636 1.378 . S
C629 C628 1.367 . S
C629 C637 1.433 1_655 S
C630 H626 0.929 1_655 S
C630 C632 1.378 . S
C630 C634 1.350 . S
C631 C634 1.463 . S
C631 C636 1.350 . S
C631 N639 1.427 1_655 S
C632 H623 0.930 . S
C632 C630 1.378 . S
C632 C633 1.367 . S
C633 C632 1.367 . S
C633 C635 1.433 . S
C634 C630 1.350 . S
C634 C631 1.463 . S
C634 N638 1.427 . S
C635 H625 0.929 . S
C635 C633 1.433 . S
C635 N638 1.384 . S
C636 H627 0.929 . S
C636 C628 1.378 . S
C636 C631 1.350 . S
C637 H624 0.929 . S
C637 C629 1.433 1_455 S
C637 N639 1.384 . S
N638 C634 1.427 . S
N638 C635 1.384 . S
N639 C631 1.427 1_455 S
N639 C637 1.384 . S
H640 C646 0.930 . S
H641 C650 0.930 . S
H642 C655 0.929 . S
H643 C653 0.929 . S
H644 C648 0.929 . S
H645 C654 0.929 . S
C646 H640 0.930 . S
C646 C647 1.350 1_565 S
C646 C654 1.378 . S
C647 C646 1.350 1_545 S
C647 C655 1.450 1_556 S
C648 H644 0.929 . S
C648 C650 1.378 . S
C648 C652 1.361 . S
C649 C652 1.461 1_566 S
C649 C654 1.368 . S
C649 N657 1.409 1_566 S
C650 H641 0.930 . S
C650 C648 1.378 . S
C650 C651 1.343 1_545 S
C651 C650 1.343 1_565 S
C651 C653 1.458 1_554 S
C652 C648 1.361 . S
C652 C649 1.461 1_544 S
C652 N656 1.416 1_544 S
C653 H643 0.929 . S
C653 C651 1.458 1_556 S
C653 N656 1.384 . S
C654 H645 0.929 . S
C654 C646 1.378 . S
C654 C649 1.368 . S
C655 H642 0.929 . S
C655 C647 1.450 1_554 S
C655 N657 1.384 . S
N656 C652 1.416 1_566 S
N656 C653 1.384 . S
N657 C649 1.409 1_544 S
N657 C655 1.384 . S
H658 C664 0.930 . S
H659 C668 0.930 . S
H660 C673 0.929 . S
H661 C671 0.929 . S
H662 C666 0.929 . S
H663 C672 0.929 . S
C664 H658 0.930 . S
C664 C665 1.367 1_554 S
C664 C672 1.378 . S
C665 C664 1.367 1_556 S
C665 C673 1.433 . S
C666 H662 0.929 . S
C666 C668 1.378 . S
C666 C670 1.350 1_556 S
C667 C670 1.463 1_556 S
C667 C672 1.350 1_556 S
C667 N675 1.427 . S
C668 H659 0.930 . S
C668 C666 1.378 . S
C668 C669 1.367 1_556 S
C669 C668 1.367 1_554 S
C669 C671 1.433 . S
C670 C666 1.350 1_554 S
C670 C667 1.463 1_554 S
C670 N674 1.427 . S
C671 H661 0.929 . S
C671 C669 1.433 . S
C671 N674 1.384 . S
C672 H663 0.929 . S
C672 C664 1.378 . S
C672 C667 1.350 1_554 S
C673 H660 0.929 . S
C673 C665 1.433 . S
C673 N675 1.384 . S
N674 C670 1.427 . S
N674 C671 1.384 . S
N675 C667 1.427 . S
N675 C673 1.384 . S
H676 C682 0.930 . S
H677 C686 0.930 . S
H678 C691 0.929 . S
H679 C689 0.929 . S
H680 C684 0.929 . S
H681 C690 0.929 . S
C682 H676 0.930 . S
C682 C683 1.367 . S
C682 C690 1.378 . S
C683 C682 1.367 . S
C683 C691 1.433 1_554 S
C684 H680 0.929 . S
C684 C686 1.378 . S
C684 C688 1.350 . S
C685 C688 1.463 1_654 S
C685 C690 1.350 . S
C685 N693 1.427 1_554 S
C686 H677 0.930 . S
C686 C684 1.378 . S
C686 C687 1.367 . S
C687 C686 1.367 . S
C687 C689 1.433 1_556 S
C688 C684 1.350 . S
C688 C685 1.463 1_456 S
C688 N692 1.427 1_556 S
C689 H679 0.929 . S
C689 C687 1.433 1_554 S
C689 N692 1.384 . S
C690 H681 0.929 . S
C690 C682 1.378 . S
C690 C685 1.350 . S
C691 H678 0.929 . S
C691 C683 1.433 1_556 S
C691 N693 1.384 . S
N692 C688 1.427 1_554 S
N692 C689 1.384 . S
N693 C685 1.427 1_556 S
N693 C691 1.384 . S
H694 C700 0.930 . S
H695 C704 0.930 . S
H696 C709 0.929 . S
H697 C707 0.929 . S
H698 C702 0.929 . S
H699 C708 0.929 . S
C700 H694 0.930 . S
C700 C701 1.360 1_654 S
C700 C708 1.378 . S
C701 C700 1.360 1_456 S
C701 C709 1.440 . S
C702 H698 0.929 . S
C702 C704 1.378 . S
C702 C706 1.343 1_556 S
C703 C706 1.463 1_646 S
C703 C708 1.346 1_556 S
C703 N711 1.432 1_655 S
C704 H695 0.930 . S
C704 C702 1.378 . S
C704 C705 1.357 1_456 S
C705 C704 1.357 1_654 S
C705 C707 1.443 . S
C706 C702 1.343 1_554 S
C706 C703 1.463 1_464 S
C706 N710 1.435 1_455 S
C707 H697 0.929 . S
C707 C705 1.443 . S
C707 N710 1.384 . S
C708 H699 0.929 . S
C708 C700 1.378 . S
C708 C703 1.346 1_554 S
C709 H696 0.929 . S
C709 C701 1.440 . S
C709 N711 1.384 . S
N710 C706 1.435 1_655 S
N710 C707 1.384 . S
N711 C703 1.432 1_455 S
N711 C709 1.384 . S
H712 C718 0.930 . S
H713 C722 0.930 . S
H714 C727 0.929 . S
H715 C725 0.929 . S
H716 C720 0.929 . S
H717 C726 0.929 . S
C718 H712 0.930 . S
C718 C719 1.363 1_565 S
C718 C726 1.378 . S
C719 C718 1.363 1_545 S
C719 C727 1.437 . S
C720 H716 0.929 . S
C720 C722 1.378 . S
C720 C724 1.367 . S
C721 C724 1.462 1_465 S
C721 C726 1.375 . S
C721 N729 1.402 1_565 S
C722 H713 0.930 . S
C722 C720 1.378 . S
C722 C723 1.355 1_545 S
C723 C722 1.355 1_565 S
C723 C725 1.445 . S
C724 C720 1.367 . S
C724 C721 1.462 1_645 S
C724 N728 1.410 1_545 S
C725 H715 0.929 . S
C725 C723 1.445 . S
C725 N728 1.384 . S
C726 H717 0.929 . S
C726 C718 1.378 . S
C726 C721 1.375 . S
C727 H714 0.929 . S
C727 C719 1.437 . S
C727 N729 1.384 . S
N728 C724 1.410 1_565 S
N728 C725 1.384 . S
N729 C721 1.402 1_545 S
N729 C727 1.384 . S
H730 C736 0.930 . S
H731 C740 0.930 . S
H732 C745 0.929 . S
H733 C743 0.929 . S
H734 C738 0.929 . S
H735 C744 0.929 . S
C736 H730 0.930 . S
C736 C737 1.367 . S
C736 C744 1.378 . S
C737 C736 1.367 . S
C737 C745 1.433 . S
C738 H734 0.929 . S
C738 C740 1.378 . S
C738 C742 1.350 . S
C739 C742 1.463 1_565 S
C739 C744 1.350 . S
C739 N747 1.427 . S
C740 H731 0.930 . S
C740 C738 1.378 . S
C740 C741 1.367 . S
C741 C740 1.367 . S
C741 C743 1.433 . S
C742 C738 1.350 . S
C742 C739 1.463 1_545 S
C742 N746 1.427 . S
C743 H733 0.929 . S
C743 C741 1.433 . S
C743 N746 1.384 . S
C744 H735 0.929 . S
C744 C736 1.378 . S
C744 C739 1.350 . S
C745 H732 0.929 . S
C745 C737 1.433 . S
C745 N747 1.384 . S
N746 C742 1.427 . S
N746 C743 1.384 . S
N747 C739 1.427 . S
N747 C745 1.384 . S
H748 C754 0.930 . S
H749 C758 0.930 . S
H750 C763 0.929 . S
H751 C761 0.929 . S
H752 C756 0.929 . S
H753 C762 0.929 . S
C754 H748 0.930 . S
C754 C755 1.367 . S
C754 C762 1.378 . S
C755 C754 1.367 . S
C755 C763 1.433 . S
C756 H752 0.929 . S
C756 C758 1.378 . S
C756 C760 1.350 . S
C757 C760 1.463 . S
C757 C762 1.350 . S
C757 N765 1.427 . S
C758 H749 0.930 . S
C758 C756 1.378 . S
C758 C759 1.367 . S
C759 C758 1.367 . S
C759 C761 1.433 . S
C760 C756 1.350 . S
C760 C757 1.463 . S
C760 N764 1.427 . S
C761 H751 0.929 . S
C761 C759 1.433 . S
C761 N764 1.384 . S
C762 H753 0.929 . S
C762 C754 1.378 . S
C762 C757 1.350 . S
C763 H750 0.929 . S
C763 C755 1.433 . S
C763 N765 1.384 . S
N764 C760 1.427 . S
N764 C761 1.384 . S
N765 C757 1.427 . S
N765 C763 1.384 . S
H766 C772 0.930 . S
H767 C776 0.930 . S
H768 C781 0.929 . S
H769 C779 0.929 . S
H770 C774 0.929 . S
H771 C780 0.929 . S
C772 H766 0.930 . S
C772 C773 1.367 . S
C772 C780 1.378 . S
C773 C772 1.367 . S
C773 C781 1.433 1_655 S
C774 H770 0.929 . S
C774 C776 1.378 . S
C774 C778 1.362 . S
C775 C778 1.462 1_655 S
C775 C780 1.358 . S
C775 N783 1.420 1_655 S
C776 H767 0.930 . S
C776 C774 1.378 . S
C776 C777 1.367 . S
C777 C776 1.367 . S
C777 C779 1.433 1_455 S
C778 C774 1.362 . S
C778 C775 1.462 1_455 S
C778 N782 1.416 1_455 S
C779 H769 0.929 . S
C779 C777 1.433 1_655 S
C779 N782 1.384 . S
C780 H771 0.929 . S
C780 C772 1.378 . S
C780 C775 1.358 . S
C781 H768 0.929 . S
C781 C773 1.433 1_455 S
C781 N783 1.384 . S
N782 C778 1.416 1_655 S
N782 C779 1.384 . S
N783 C775 1.420 1_455 S
N783 C781 1.384 . S
C215 C66 0.777 . S
C219 C10 0.776 . S
C233 C88 0.873 . S
C237 C14 0.851 . S
C251 C36 0.758 . S
C255 C92 0.752 . S
C269 C40 0.643 . S
C273 C62 0.591 . S
C287 C114 0.783 . S
C291 C179 0.767 . S
C305 C192 0.850 . S
C309 C127 0.852 . S
C323 C205 0.750 . S
C327 C140 0.760 . S
C341 C153 0.624 . S
C345 C166 0.601 . S
C359 C5 2.050 1_556 S
C363 C157 2.030 1_565 S
C377 C170 2.079 . S
C381 C16 2.008 1_556 S
C395 C31 2.168 1_556 S
C399 C183 2.161 . S
C413 C42 1.987 1_556 S
C417 C196 2.082 1_655 S
C431 C57 2.092 . S
C435 C105 2.076 1_545 S
C449 C68 2.065 . S
C453 C118 2.165 . S
C467 C83 2.094 . S
C471 C131 2.084 . S
C485 C94 1.949 . S
C489 C144 2.033 1_455 S
C503 C53 1.996 . S
C507 C109 1.961 1_554 S
C521 C75 2.080 . S
C525 C122 2.009 1_554 S
C539 C79 2.137 . S
C543 C135 2.062 1_554 S
C557 C148 1.987 1_554 S
C561 C101 2.082 1_455 S
C575 C1 2.037 . S
C579 C161 1.988 . S
C593 C174 2.058 . S
C597 C23 2.165 . S
C611 C187 1.996 . S
C615 C27 2.056 . S
C629 C49 2.032 1_655 S
C633 C200 1.951 . S
C647 C107 1.515 1_545 S
C651 C3 1.500 . S
C665 C120 1.532 . S
C669 C18 1.532 . S
C683 C29 1.681 . S
C687 C133 1.685 . S
C701 C146 1.677 1_455 S
C705 C44 1.677 1_655 S
C719 C55 1.646 . S
C723 C159 1.670 1_565 S
C737 C172 1.685 . S
C741 C70 1.685 . S
C755 C185 1.536 . S
C759 C81 1.533 . S
C773 C198 1.519 1_655 S
C777 C96 1.521 1_455 S
